# Generated by pormake.
# Topology nom, (4,4)-cn, num edge types: 1
# Building blocks:
#     Node 0, Type 0, BuildingBlock: NAHDIM_clean_linker_0, # of connection points: 4
#     Node 1, Type 0, BuildingBlock: NAHDIM_clean_linker_0, # of connection points: 4
#     Node 2, Type 0, BuildingBlock: NAHDIM_clean_linker_0, # of connection points: 4
#     Node 3, Type 0, BuildingBlock: NAHDIM_clean_linker_0, # of connection points: 4
#     Node 4, Type 0, BuildingBlock: NAHDIM_clean_linker_0, # of connection points: 4
#     Node 5, Type 0, BuildingBlock: NAHDIM_clean_linker_0, # of connection points: 4
#     Node 6, Type 1, BuildingBlock: QUQFOY_clean_sbu_1, # of connection points: 4
#     Node 7, Type 1, BuildingBlock: QUQFOY_clean_sbu_1, # of connection points: 4
#     Node 8, Type 1, BuildingBlock: QUQFOY_clean_sbu_1, # of connection points: 4
#     Node 9, Type 1, BuildingBlock: QUQFOY_clean_sbu_1, # of connection points: 4
#     Node 10, Type 1, BuildingBlock: QUQFOY_clean_sbu_1, # of connection points: 4
#     Node 11, Type 1, BuildingBlock: QUQFOY_clean_sbu_1, # of connection points: 4
#     Edge 12, Type (0, 1), BuildingBlock: TEMPAE_clean_linker_10, # of connection points: 2
#     Edge 13, Type (0, 1), BuildingBlock: TEMPAE_clean_linker_10, # of connection points: 2
#     Edge 14, Type (0, 1), BuildingBlock: TEMPAE_clean_linker_10, # of connection points: 2
#     Edge 15, Type (0, 1), BuildingBlock: TEMPAE_clean_linker_10, # of connection points: 2
#     Edge 16, Type (0, 1), BuildingBlock: TEMPAE_clean_linker_10, # of connection points: 2
#     Edge 17, Type (0, 1), BuildingBlock: TEMPAE_clean_linker_10, # of connection points: 2
#     Edge 18, Type (0, 1), BuildingBlock: TEMPAE_clean_linker_10, # of connection points: 2
#     Edge 19, Type (0, 1), BuildingBlock: TEMPAE_clean_linker_10, # of connection points: 2
#     Edge 20, Type (0, 1), BuildingBlock: TEMPAE_clean_linker_10, # of connection points: 2
#     Edge 21, Type (0, 1), BuildingBlock: TEMPAE_clean_linker_10, # of connection points: 2
#     Edge 22, Type (0, 1), BuildingBlock: TEMPAE_clean_linker_10, # of connection points: 2
#     Edge 23, Type (0, 1), BuildingBlock: TEMPAE_clean_linker_10, # of connection points: 2
#     Edge 24, Type (0, 1), BuildingBlock: TEMPAE_clean_linker_10, # of connection points: 2
#     Edge 25, Type (0, 1), BuildingBlock: TEMPAE_clean_linker_10, # of connection points: 2
#     Edge 26, Type (0, 1), BuildingBlock: TEMPAE_clean_linker_10, # of connection points: 2
#     Edge 27, Type (0, 1), BuildingBlock: TEMPAE_clean_linker_10, # of connection points: 2
#     Edge 28, Type (0, 1), BuildingBlock: TEMPAE_clean_linker_10, # of connection points: 2
#     Edge 29, Type (0, 1), BuildingBlock: TEMPAE_clean_linker_10, # of connection points: 2
#     Edge 30, Type (0, 1), BuildingBlock: TEMPAE_clean_linker_10, # of connection points: 2
#     Edge 31, Type (0, 1), BuildingBlock: TEMPAE_clean_linker_10, # of connection points: 2
#     Edge 32, Type (0, 1), BuildingBlock: TEMPAE_clean_linker_10, # of connection points: 2
#     Edge 33, Type (0, 1), BuildingBlock: TEMPAE_clean_linker_10, # of connection points: 2
#     Edge 34, Type (0, 1), BuildingBlock: TEMPAE_clean_linker_10, # of connection points: 2
#     Edge 35, Type (0, 1), BuildingBlock: TEMPAE_clean_linker_10, # of connection points: 2
# Relax obj value: 0.085
# Max RMSD: 0.158
# Mean RMSD: 0.148
data_MOF--net-nom--node1-QUQFOY_clean_sbu_1--node2-NAHDIM_clean_linker_0--edge1-TEMPAE_clean_linker_10
_symmetry_space_group_name_H-M    P1
_symmetry_Int_Tables_number       1
_symmetry_cell_setting            triclinic
loop_
_symmetry_equiv_pos_as_xyz
'x, y, z'
_cell_length_a     60.304789
_cell_length_b     60.45766
_cell_length_c     67.594569
_cell_angle_alpha  90.155916
_cell_angle_beta   90.108553
_cell_angle_gamma 119.98985
loop_
_atom_site_label
_atom_site_type_symbol
_atom_site_fract_x
_atom_site_fract_y
_atom_site_fract_z
_atom_type_partial_charge
C0 C 0.16054 0.57186 0.24278 0.0
C1 C 0.17182 0.57599 0.26377 0.0
C2 C 0.13149 0.5612 0.28201 0.0
C3 C 0.12177 0.53478 0.28002 0.0
C4 C 0.09619 0.51727 0.28478 0.0
C5 C 0.07993 0.52636 0.29142 0.0
C6 C 0.08976 0.55297 0.29356 0.0
C7 C 0.11555 0.56998 0.28916 0.0
C8 C 0.08646 0.48904 0.28259 0.0
C9 C 0.07295 0.56352 0.30017 0.0
C10 C 0.90406 0.44781 0.19803 0.0
C11 C 0.91979 0.45849 0.21625 0.0
C12 C 0.95569 0.45963 0.23385 0.0
C13 C 0.96054 0.48063 0.24586 0.0
C14 C 0.97879 0.48889 0.26109 0.0
C15 C 0.9921 0.47555 0.26472 0.0
C16 C 0.98777 0.45482 0.25239 0.0
C17 C 0.96972 0.44725 0.23699 0.0
C18 C 0.98344 0.51159 0.27357 0.0
C19 C 0.00177 0.44032 0.25582 0.0
C20 C 0.88828 0.41182 0.36833 0.0
C21 C 0.89955 0.43773 0.36343 0.0
C22 C 0.92619 0.45284 0.36125 0.0
C23 C 0.94178 0.44161 0.36369 0.0
C24 C 0.93046 0.41566 0.3693 0.0
C25 C 0.90383 0.40119 0.37184 0.0
C26 C 0.93763 0.48071 0.3561 0.0
C27 C 0.94643 0.40308 0.37216 0.0
C28 C 0.11034 0.57418 0.42571 0.0
C29 C 0.10752 0.54844 0.43167 0.0
C30 C 0.06432 0.51847 0.42197 0.0
C31 C 0.04862 0.5279 0.41555 0.0
C32 C 0.03128 0.51606 0.39992 0.0
C33 C 0.02924 0.49389 0.391 0.0
C34 C 0.0441 0.48348 0.39832 0.0
C35 C 0.06176 0.49613 0.41365 0.0
C36 C 0.0157 0.52765 0.39258 0.0
C37 C 0.04177 0.45939 0.38963 0.0
C38 C 0.05246 0.50813 0.29551 0.0
C39 C 0.03558 0.49885 0.2794 0.0
C40 C 0.00934 0.48251 0.28216 0.0
C41 C 0.99954 0.47482 0.30146 0.0
C42 C 0.97331 0.45799 0.3047 0.0
C43 C 0.96358 0.45168 0.32377 0.0
C44 C 0.97968 0.46202 0.34036 0.0
C45 C 0.96975 0.45682 0.35982 0.0
C46 C 0.9864 0.46702 0.37598 0.0
C47 C 0.01278 0.48261 0.37327 0.0
C48 C 0.023 0.48837 0.35392 0.0
C49 C 0.0494 0.50439 0.35064 0.0
C50 C 0.05918 0.51039 0.33155 0.0
C51 C 0.04291 0.50106 0.31497 0.0
C52 C 0.01631 0.48451 0.31794 0.0
C53 C 0.00635 0.47813 0.33742 0.0
C54 C 0.83071 0.36985 0.34667 0.0
C55 C 0.84474 0.39615 0.35655 0.0
O56 O 0.15591 0.57887 0.27707 0.0
O57 O 0.08219 0.5312 0.43607 0.0
O58 O 0.86252 0.39668 0.36989 0.0
O59 O 0.93763 0.45074 0.21929 0.0
H60 H 0.17384 0.55935 0.26809 0.0
H61 H 0.14146 0.5543 0.2421 0.0
H62 H 0.15839 0.58836 0.23831 0.0
H63 H 0.17308 0.56953 0.23197 0.0
H64 H 0.134 0.52767 0.2748 0.0
H65 H 0.12326 0.59038 0.29074 0.0
H66 H 0.07222 0.48122 0.27037 0.0
H67 H 0.10209 0.48492 0.2793 0.0
H68 H 0.07665 0.4789 0.29635 0.0
H69 H 0.08273 0.58464 0.29885 0.0
H70 H 0.05506 0.555 0.29125 0.0
H71 H 0.06747 0.55839 0.31586 0.0
H72 H 0.90876 0.4571 0.2299 0.0
H73 H 0.91473 0.48014 0.18046 0.0
H74 H 0.90657 0.43136 0.19314 0.0
H75 H 0.88392 0.43532 0.20349 0.0
H76 H 0.9501 0.49065 0.24353 0.0
H77 H 0.96604 0.43121 0.22758 0.0
H78 H 0.97541 0.50499 0.28857 0.0
H79 H 0.00431 0.52503 0.27527 0.0
H80 H 0.9744 0.52205 0.26711 0.0
H81 H 0.99587 0.42429 0.24517 0.0
H82 H 0.0227 0.45349 0.25442 0.0
H83 H 0.99811 0.43257 0.27109 0.0
H84 H 0.85449 0.4103 0.3445 0.0
H85 H 0.88752 0.44616 0.36142 0.0
H86 H 0.8949 0.38124 0.37593 0.0
H87 H 0.94436 0.48376 0.34055 0.0
H88 H 0.92356 0.48737 0.3577 0.0
H89 H 0.95445 0.49264 0.36571 0.0
H90 H 0.93454 0.38234 0.37527 0.0
H91 H 0.95804 0.40565 0.35872 0.0
H92 H 0.95992 0.41234 0.38469 0.0
H93 H 0.11382 0.54098 0.41907 0.0
H94 H 0.13072 0.58838 0.42275 0.0
H95 H 0.09931 0.57198 0.41196 0.0
H96 H 0.10314 0.58161 0.43764 0.0
H97 H 0.05062 0.54503 0.4224 0.0
H98 H 0.07383 0.48887 0.41903 0.0
H99 H 0.01887 0.53157 0.37648 0.0
H100 H 0.99502 0.5139 0.39474 0.0
H101 H 0.02059 0.54571 0.40041 0.0
H102 H 0.05182 0.45184 0.39876 0.0
H103 H 0.0213 0.44445 0.38821 0.0
H104 H 0.05018 0.46341 0.37458 0.0
H105 H 0.04287 0.50494 0.26456 0.0
H106 H 0.95993 0.44965 0.29252 0.0
H107 H 0.94321 0.43878 0.32533 0.0
H108 H 0.97867 0.46313 0.39086 0.0
H109 H 0.06284 0.51261 0.36279 0.0
H110 H 0.07964 0.52277 0.32995 0.0
H111 H 0.82064 0.35463 0.35787 0.0
H112 H 0.81651 0.36901 0.33574 0.0
H113 H 0.84466 0.36614 0.33875 0.0
C114 C 0.29962 0.85308 0.54554 0.0
C115 C 0.32169 0.85584 0.55871 0.0
C116 C 0.35972 0.89271 0.54427 0.0
C117 C 0.38269 0.90034 0.53432 0.0
C118 C 0.39911 0.92601 0.5293 0.0
C119 C 0.3919 0.94443 0.53381 0.0
C120 C 0.36871 0.93689 0.54399 0.0
C121 C 0.35311 0.91124 0.54942 0.0
C122 C 0.42412 0.93335 0.51915 0.0
C123 C 0.36032 0.95589 0.54919 0.0
C124 C 0.50282 0.11195 0.62875 0.0
C125 C 0.4829 0.09183 0.61587 0.0
C126 C 0.47933 0.06665 0.58645 0.0
C127 C 0.45368 0.05933 0.58238 0.0
C128 C 0.44047 0.04267 0.56665 0.0
C129 C 0.45298 0.03275 0.555 0.0
C130 C 0.47868 0.03983 0.5592 0.0
C131 C 0.49161 0.05694 0.57477 0.0
C132 C 0.41314 0.03573 0.56245 0.0
C133 C 0.49248 0.02935 0.54722 0.0
C134 C 0.49037 0.12903 0.44509 0.0
C135 C 0.46615 0.11936 0.45378 0.0
C136 C 0.45104 0.09325 0.45807 0.0
C137 C 0.46059 0.07655 0.45398 0.0
C138 C 0.48475 0.08617 0.44481 0.0
C139 C 0.49915 0.11226 0.4402 0.0
C140 C 0.42489 0.08353 0.46705 0.0
C141 C 0.49555 0.06899 0.44017 0.0
C142 C 0.31827 0.89006 0.39344 0.0
C143 C 0.34745 0.9048 0.3953 0.0
C144 C 0.37182 0.94956 0.40441 0.0
C145 C 0.36521 0.96779 0.40987 0.0
C146 C 0.37957 0.98652 0.42412 0.0
C147 C 0.40162 0.98749 0.43244 0.0
C148 C 0.40941 0.97017 0.42577 0.0
C149 C 0.39413 0.95106 0.41207 0.0
C150 C 0.37067 0.00467 0.43072 0.0
C151 C 0.43353 0.9714 0.43344 0.0
C152 C 0.4086 0.97158 0.528 0.0
C153 C 0.42331 0.98915 0.54272 0.0
C154 C 0.4391 0.01503 0.53839 0.0
C155 C 0.44086 0.02371 0.51873 0.0
C156 C 0.45679 0.04956 0.51383 0.0
C157 C 0.45845 0.0579 0.49443 0.0
C158 C 0.44403 0.04077 0.47921 0.0
C159 C 0.44534 0.04912 0.45947 0.0
C160 C 0.43147 0.03136 0.44458 0.0
C161 C 0.41558 0.00549 0.44894 0.0
C162 C 0.41315 0.99702 0.46874 0.0
C163 C 0.39622 0.97143 0.47385 0.0
C164 C 0.39451 0.9631 0.49325 0.0
C165 C 0.4097 0.98001 0.50831 0.0
C166 C 0.42618 0.0061 0.50363 0.0
C167 C 0.42782 0.01463 0.48384 0.0
C168 C 0.52513 0.17525 0.47161 0.0
C169 C 0.5094 0.17429 0.45345 0.0
O170 O 0.3446 0.86741 0.54839 0.0
O171 O 0.35617 0.93047 0.39194 0.0
O172 O 0.50568 0.15429 0.44113 0.0
O173 O 0.49285 0.08303 0.60138 0.0
H174 H 0.3233 0.86764 0.57189 0.0
H175 H 0.30251 0.87201 0.54122 0.0
H176 H 0.29816 0.84235 0.53177 0.0
H177 H 0.28119 0.84283 0.55365 0.0
H178 H 0.38781 0.88603 0.53055 0.0
H179 H 0.33573 0.90595 0.55751 0.0
H180 H 0.44002 0.95073 0.52611 0.0
H181 H 0.4288 0.91778 0.51968 0.0
H182 H 0.42289 0.93779 0.5034 0.0
H183 H 0.3399 0.94637 0.55372 0.0
H184 H 0.37218 0.96799 0.56168 0.0
H185 H 0.36311 0.96861 0.53647 0.0
H186 H 0.46642 0.07602 0.62384 0.0
H187 H 0.49928 0.10304 0.64386 0.0
H188 H 0.52101 0.11143 0.62621 0.0
H189 H 0.49961 0.1442 0.62278 0.0
H190 H 0.44389 0.06668 0.59128 0.0
H191 H 0.51137 0.06267 0.57803 0.0
H192 H 0.40031 0.01503 0.5651 0.0
H193 H 0.40678 0.04656 0.5719 0.0
H194 H 0.411 0.03946 0.54668 0.0
H195 H 0.5119 0.03546 0.55316 0.0
H196 H 0.48119 0.00815 0.54701 0.0
H197 H 0.49433 0.03595 0.53169 0.0
H198 H 0.49066 0.17151 0.45851 0.0
H199 H 0.45871 0.13196 0.45693 0.0
H200 H 0.51773 0.11986 0.43328 0.0
H201 H 0.42521 0.07821 0.4827 0.0
H202 H 0.41878 0.09808 0.46667 0.0
H203 H 0.41041 0.06616 0.45909 0.0
H204 H 0.51553 0.07982 0.43466 0.0
H205 H 0.49513 0.05824 0.4536 0.0
H206 H 0.48349 0.05482 0.42873 0.0
H207 H 0.35216 0.90194 0.41072 0.0
H208 H 0.31065 0.86945 0.39649 0.0
H209 H 0.30985 0.89755 0.40433 0.0
H210 H 0.31225 0.89217 0.37834 0.0
H211 H 0.34808 0.96657 0.40359 0.0
H212 H 0.39951 0.93726 0.40733 0.0
H213 H 0.36912 0.00448 0.4471 0.0
H214 H 0.38494 0.0244 0.42625 0.0
H215 H 0.35184 0.9998 0.42418 0.0
H216 H 0.43982 0.96071 0.42375 0.0
H217 H 0.44931 0.99152 0.43464 0.0
H218 H 0.42996 0.96288 0.44843 0.0
H219 H 0.42222 0.98265 0.55782 0.0
H220 H 0.46825 0.06366 0.52492 0.0
H221 H 0.47122 0.07797 0.49153 0.0
H222 H 0.43291 0.0378 0.42943 0.0
H223 H 0.38407 0.95748 0.46292 0.0
H224 H 0.38117 0.94319 0.49625 0.0
H225 H 0.52822 0.19113 0.48165 0.0
H226 H 0.5148 0.15714 0.48004 0.0
H227 H 0.54403 0.17798 0.46701 0.0
C228 C 0.60527 0.4605 0.74608 0.0
C229 C 0.61008 0.453 0.72544 0.0
C230 C 0.58314 0.46577 0.70697 0.0
C231 C 0.60088 0.49192 0.70503 0.0
C232 C 0.59283 0.50921 0.69958 0.0
C233 C 0.56645 0.50023 0.69639 0.0
C234 C 0.54859 0.47382 0.69812 0.0
C235 C 0.55731 0.45689 0.70297 0.0
C236 C 0.61252 0.53713 0.69746 0.0
C237 C 0.52025 0.4635 0.69532 0.0
C238 C 0.58222 0.62289 0.8021 0.0
C239 C 0.55702 0.60534 0.79137 0.0
C240 C 0.55602 0.59769 0.75589 0.0
C241 C 0.53547 0.57256 0.75478 0.0
C242 C 0.53237 0.55718 0.73822 0.0
C243 C 0.55045 0.5671 0.72267 0.0
C244 C 0.57113 0.59254 0.72381 0.0
C245 C 0.57325 0.60768 0.74024 0.0
C246 C 0.50987 0.53034 0.73736 0.0
C247 C 0.59129 0.60365 0.70788 0.0
C248 C 0.49138 0.61798 0.62167 0.0
C249 C 0.47443 0.59317 0.62832 0.0
C250 C 0.48248 0.5751 0.63016 0.0
C251 C 0.50811 0.58221 0.6256 0.0
C252 C 0.52492 0.60697 0.61824 0.0
C253 C 0.51615 0.6244 0.61608 0.0
C254 C 0.4637 0.54856 0.63725 0.0
C255 C 0.55232 0.61523 0.61313 0.0
C256 C 0.5328 0.43985 0.56271 0.0
C257 C 0.55487 0.46624 0.55701 0.0
C258 C 0.54135 0.49589 0.56679 0.0
C259 C 0.51661 0.48737 0.57379 0.0
C260 C 0.51234 0.50006 0.58945 0.0
C261 C 0.53332 0.52209 0.59783 0.0
C262 C 0.55819 0.53155 0.58992 0.0
C263 C 0.56195 0.51809 0.57459 0.0
C264 C 0.4856 0.4895 0.59743 0.0
C265 C 0.58089 0.55549 0.59798 0.0
C266 C 0.55744 0.51861 0.69229 0.0
C267 C 0.55655 0.53303 0.70814 0.0
C268 C 0.54837 0.55075 0.70553 0.0
C269 C 0.54004 0.55373 0.68667 0.0
C270 C 0.53076 0.57067 0.68367 0.0
C271 C 0.5234 0.57411 0.66494 0.0
C272 C 0.52486 0.56061 0.64847 0.0
C273 C 0.51767 0.56418 0.6293 0.0
C274 C 0.52026 0.5511 0.61317 0.0
C275 C 0.52963 0.53429 0.61566 0.0
C276 C 0.53612 0.52986 0.6348 0.0
C277 C 0.54493 0.51253 0.6379 0.0
C278 C 0.55195 0.50882 0.65668 0.0
C279 C 0.55023 0.52212 0.67314 0.0
C280 C 0.54128 0.5396 0.67037 0.0
C281 C 0.53396 0.54327 0.65121 0.0
C282 C 0.48319 0.66755 0.64079 0.0
C283 C 0.46921 0.63967 0.63398 0.0
O284 O 0.59002 0.44855 0.71285 0.0
O285 O 0.5453 0.4823 0.55272 0.0
O286 O 0.48445 0.63612 0.62047 0.0
O287 O 0.55963 0.61287 0.77177 0.0
H288 H 0.62839 0.46863 0.71948 0.0
H289 H 0.60391 0.47812 0.74525 0.0
H290 H 0.58711 0.44493 0.75229 0.0
H291 H 0.62122 0.46446 0.75637 0.0
H292 H 0.62101 0.49896 0.7077 0.0
H293 H 0.5438 0.43665 0.70439 0.0
H294 H 0.61074 0.54799 0.71003 0.0
H295 H 0.63237 0.54044 0.69734 0.0
H296 H 0.60916 0.54487 0.6836 0.0
H297 H 0.50871 0.44307 0.69952 0.0
H298 H 0.5139 0.47471 0.70432 0.0
H299 H 0.51623 0.46537 0.67958 0.0
H300 H 0.55368 0.5855 0.79253 0.0
H301 H 0.58142 0.61686 0.81772 0.0
H302 H 0.59819 0.62199 0.7947 0.0
H303 H 0.58634 0.64298 0.80184 0.0
H304 H 0.52174 0.56511 0.76675 0.0
H305 H 0.58893 0.62719 0.74126 0.0
H306 H 0.51681 0.51652 0.73878 0.0
H307 H 0.49586 0.52661 0.74935 0.0
H308 H 0.49996 0.52681 0.72285 0.0
H309 H 0.608 0.62221 0.71242 0.0
H310 H 0.59814 0.59019 0.70411 0.0
H311 H 0.5829 0.60678 0.69429 0.0
H312 H 0.46627 0.62792 0.64746 0.0
H313 H 0.45493 0.58791 0.632 0.0
H314 H 0.52892 0.64351 0.61067 0.0
H315 H 0.46892 0.54602 0.65249 0.0
H316 H 0.44374 0.54494 0.63741 0.0
H317 H 0.46453 0.53404 0.62765 0.0
H318 H 0.56343 0.63571 0.60896 0.0
H319 H 0.56191 0.61194 0.62591 0.0
H320 H 0.55272 0.60357 0.60056 0.0
H321 H 0.56844 0.47408 0.56976 0.0
H322 H 0.5401 0.42668 0.56619 0.0
H323 H 0.52298 0.44142 0.57608 0.0
H324 H 0.51865 0.43159 0.55044 0.0
H325 H 0.50083 0.47025 0.5674 0.0
H326 H 0.58097 0.52464 0.56879 0.0
H327 H 0.4854 0.48558 0.6135 0.0
H328 H 0.47943 0.50389 0.59568 0.0
H329 H 0.47154 0.47163 0.58978 0.0
H330 H 0.59787 0.56253 0.58821 0.0
H331 H 0.57602 0.57084 0.59982 0.0
H332 H 0.58609 0.5515 0.61277 0.0
H333 H 0.56275 0.53073 0.7227 0.0
H334 H 0.52916 0.58154 0.69579 0.0
H335 H 0.51669 0.58763 0.66353 0.0
H336 H 0.51522 0.5543 0.59846 0.0
H337 H 0.54659 0.50166 0.62582 0.0
H338 H 0.55885 0.49546 0.65811 0.0
H339 H 0.48716 0.68056 0.62804 0.0
H340 H 0.47149 0.67085 0.65182 0.0
H341 H 0.50169 0.67223 0.64785 0.0
C342 C 0.16163 0.45202 0.92399 0.0
C343 C 0.16515 0.47335 0.90993 0.0
C344 C 0.13077 0.45448 0.88575 0.0
C345 C 0.12051 0.47076 0.88598 0.0
C346 C 0.0952 0.46198 0.87982 0.0
C347 C 0.07981 0.43627 0.87359 0.0
C348 C 0.09027 0.41988 0.87325 0.0
C349 C 0.11584 0.42938 0.87902 0.0
C350 C 0.08495 0.48019 0.87992 0.0
C351 C 0.07442 0.39233 0.86687 0.0
C352 C 0.89319 0.37084 0.95114 0.0
C353 C 0.90918 0.36917 0.93513 0.0
C354 C 0.95313 0.39111 0.92377 0.0
C355 C 0.95357 0.37179 0.91257 0.0
C356 C 0.97223 0.37781 0.89795 0.0
C357 C 0.99008 0.40377 0.89395 0.0
C358 C 0.98989 0.42323 0.90555 0.0
C359 C 0.97173 0.41654 0.92064 0.0
C360 C 0.9727 0.35641 0.88676 0.0
C361 C 0.00868 0.45112 0.90201 0.0
C362 C 0.90231 0.37934 0.7773 0.0
C363 C 0.91214 0.3627 0.77687 0.0
C364 C 0.93707 0.37073 0.78366 0.0
C365 C 0.95252 0.39606 0.7907 0.0
C366 C 0.94246 0.4128 0.79125 0.0
C367 C 0.91723 0.404 0.78488 0.0
C368 C 0.94691 0.35219 0.78321 0.0
C369 C 0.95844 0.44004 0.79832 0.0
C370 C 0.14263 0.45354 0.73605 0.0
C371 C 0.12669 0.46667 0.73394 0.0
C372 C 0.08172 0.44217 0.74287 0.0
C373 C 0.06448 0.41646 0.74651 0.0
C374 C 0.04497 0.40922 0.76056 0.0
C375 C 0.04232 0.4283 0.77067 0.0
C376 C 0.0587 0.45436 0.766 0.0
C377 C 0.07841 0.46104 0.75222 0.0
C378 C 0.02769 0.38126 0.76497 0.0
C379 C 0.0558 0.47514 0.77593 0.0
C380 C 0.05282 0.42662 0.8674 0.0
C381 C 0.03425 0.41914 0.88216 0.0
C382 C 0.00862 0.41064 0.87745 0.0
C383 C 0.00115 0.40935 0.85741 0.0
C384 C 0.97562 0.40125 0.8521 0.0
C385 C 0.96838 0.39954 0.83235 0.0
C386 C 0.98649 0.40656 0.81712 0.0
C387 C 0.97938 0.4052 0.79698 0.0
C388 C 0.99798 0.41253 0.78224 0.0
C389 C 0.02357 0.4211 0.78701 0.0
C390 C 0.03101 0.42246 0.80705 0.0
C391 C 0.0566 0.43087 0.81235 0.0
C392 C 0.06382 0.43246 0.83208 0.0
C393 C 0.04567 0.42524 0.8473 0.0
C394 C 0.01973 0.41653 0.8423 0.0
C395 C 0.0124 0.4152 0.82214 0.0
C396 C 0.87767 0.38716 0.7384 0.0
C397 C 0.87011 0.36379 0.75145 0.0
O398 O 0.15523 0.46278 0.89153 0.0
O399 O 0.10142 0.44825 0.73031 0.0
O400 O 0.87835 0.37184 0.77066 0.0
O401 O 0.93517 0.38579 0.93782 0.0
H402 H 0.15472 0.4826 0.91621 0.0
H403 H 0.14098 0.43756 0.92517 0.0
H404 H 0.17205 0.44246 0.9184 0.0
H405 H 0.16883 0.4598 0.93902 0.0
H406 H 0.13244 0.49042 0.89069 0.0
H407 H 0.12414 0.41709 0.87873 0.0
H408 H 0.06987 0.47417 0.89135 0.0
H409 H 0.1001 0.50016 0.88313 0.0
H410 H 0.07605 0.47967 0.8654 0.0
H411 H 0.08467 0.38154 0.86909 0.0
H412 H 0.05621 0.38283 0.87529 0.0
H413 H 0.06944 0.39141 0.85096 0.0
H414 H 0.90436 0.3494 0.93097 0.0
H415 H 0.90644 0.38083 0.96398 0.0
H416 H 0.87238 0.38544 0.93688 0.0
H417 H 0.88371 0.35146 0.95827 0.0
H418 H 0.93968 0.352 0.91547 0.0
H419 H 0.97146 0.43125 0.92966 0.0
H420 H 0.96431 0.35466 0.87182 0.0
H421 H 0.99267 0.36043 0.88487 0.0
H422 H 0.96147 0.33778 0.89439 0.0
H423 H 0.00301 0.46378 0.9097 0.0
H424 H 0.02778 0.4556 0.90765 0.0
H425 H 0.01051 0.45548 0.88595 0.0
H426 H 0.87944 0.35328 0.74546 0.0
H427 H 0.90021 0.34339 0.77141 0.0
H428 H 0.90926 0.41657 0.78526 0.0
H429 H 0.95576 0.35226 0.79765 0.0
H430 H 0.93153 0.33239 0.7798 0.0
H431 H 0.96194 0.35822 0.77172 0.0
H432 H 0.94864 0.45126 0.79603 0.0
H433 H 0.96263 0.44025 0.81433 0.0
H434 H 0.97704 0.44958 0.79041 0.0
H435 H 0.12847 0.47679 0.74818 0.0
H436 H 0.16296 0.46784 0.73923 0.0
H437 H 0.13519 0.43975 0.74848 0.0
H438 H 0.14165 0.44299 0.72227 0.0
H439 H 0.067 0.40208 0.73889 0.0
H440 H 0.09128 0.48096 0.74878 0.0
H441 H 0.02808 0.37777 0.78106 0.0
H442 H 0.0077 0.37559 0.76093 0.0
H443 H 0.03329 0.36891 0.7567 0.0
H444 H 0.06755 0.49396 0.76869 0.0
H445 H 0.03542 0.47022 0.77573 0.0
H446 H 0.06187 0.47688 0.79164 0.0
H447 H 0.03986 0.42017 0.89754 0.0
H448 H 0.96087 0.39597 0.86315 0.0
H449 H 0.94839 0.39281 0.82918 0.0
H450 H 0.99244 0.41152 0.76684 0.0
H451 H 0.07141 0.43644 0.80131 0.0
H452 H 0.08383 0.43931 0.83523 0.0
H453 H 0.87172 0.38127 0.72281 0.0
H454 H 0.86856 0.39809 0.74384 0.0
H455 H 0.89878 0.39989 0.73868 0.0
C456 C 0.43494 0.87534 0.91175 0.0
C457 C 0.42651 0.86198 0.93193 0.0
C458 C 0.44993 0.90095 0.95204 0.0
C459 C 0.43182 0.90908 0.95198 0.0
C460 C 0.43886 0.93423 0.95735 0.0
C461 C 0.46465 0.95172 0.96245 0.0
C462 C 0.48287 0.94344 0.96261 0.0
C463 C 0.47506 0.91796 0.95786 0.0
C464 C 0.41876 0.94214 0.95737 0.0
C465 C 0.51073 0.96155 0.96734 0.0
C466 C 0.47006 0.04397 0.8515 0.0
C467 C 0.49278 0.06326 0.86407 0.0
C468 C 0.48517 0.05857 0.89952 0.0
C469 C 0.50715 0.0581 0.90575 0.0
C470 C 0.50733 0.0465 0.92365 0.0
C471 C 0.48518 0.03549 0.93561 0.0
C472 C 0.46353 0.03725 0.9299 0.0
C473 C 0.46391 0.04902 0.91194 0.0
C474 C 0.53092 0.04546 0.92957 0.0
C475 C 0.43972 0.02596 0.94247 0.0
C476 C 0.54399 0.14487 0.03882 0.0
C477 C 0.55963 0.13566 0.03154 0.0
C478 C 0.55001 0.10932 0.02912 0.0
C479 C 0.52408 0.09193 0.03376 0.0
C480 C 0.50853 0.10123 0.04163 0.0
C481 C 0.51887 0.12761 0.04436 0.0
C482 C 0.5675 0.10011 0.02147 0.0
C483 C 0.48088 0.08338 0.04691 0.0
C484 C 0.44103 0.90839 0.08413 0.0
C485 C 0.44532 0.92479 0.10266 0.0
C486 C 0.47693 0.96669 0.08996 0.0
C487 C 0.50212 0.97927 0.08306 0.0
C488 C 0.5101 0.99849 0.06869 0.0
C489 C 0.49246 0.00546 0.06139 0.0
C490 C 0.46757 0.99422 0.06946 0.0
C491 C 0.46004 0.97496 0.08366 0.0
C492 C 0.53688 0.01037 0.06054 0.0
C493 C 0.4485 0.00176 0.06241 0.0
C494 C 0.47284 0.97891 0.96668 0.0
C495 C 0.47535 0.99457 0.95069 0.0
C496 C 0.48396 0.02056 0.95335 0.0
C497 C 0.49108 0.03161 0.9724 0.0
C498 C 0.50059 0.05785 0.9755 0.0
C499 C 0.50779 0.06856 0.99432 0.0
C500 C 0.50565 0.05342 0.01079 0.0
C501 C 0.51307 0.06412 0.03 0.0
C502 C 0.50942 0.04821 0.04616 0.0
C503 C 0.49864 0.02185 0.04363 0.0
C504 C 0.4921 0.01099 0.02447 0.0
C505 C 0.48181 0.98459 0.02141 0.0
C506 C 0.47535 0.97402 0.00254 0.0
C507 C 0.47885 0.9894 0.98598 0.0
C508 C 0.48851 0.01595 0.98879 0.0
C509 C 0.49554 0.02682 0.00802 0.0
C510 C 0.55438 0.20311 0.02059 0.0
C511 C 0.56808 0.18895 0.02744 0.0
O512 O 0.44408 0.87705 0.94635 0.0
O513 O 0.46948 0.9464 0.10224 0.0
O514 O 0.55259 0.17024 0.04083 0.0
O515 O 0.4838 0.06784 0.88158 0.0
H516 H 0.40724 0.85891 0.93566 0.0
H517 H 0.43623 0.8943 0.91226 0.0
H518 H 0.45401 0.87812 0.90766 0.0
H519 H 0.42094 0.86406 0.89996 0.0
H520 H 0.41217 0.89589 0.94786 0.0
H521 H 0.48884 0.91143 0.95794 0.0
H522 H 0.4218 0.95466 0.94448 0.0
H523 H 0.39906 0.92545 0.95642 0.0
H524 H 0.42037 0.9532 0.97098 0.0
H525 H 0.52301 0.95328 0.96353 0.0
H526 H 0.51778 0.97978 0.95921 0.0
H527 H 0.51292 0.96602 0.98339 0.0
H528 H 0.50439 0.05391 0.86683 0.0
H529 H 0.47663 0.04195 0.8366 0.0
H530 H 0.46089 0.025 0.8588 0.0
H531 H 0.45532 0.04972 0.84993 0.0
H532 H 0.52412 0.06662 0.8966 0.0
H533 H 0.44722 0.04992 0.90714 0.0
H534 H 0.52636 0.02525 0.93006 0.0
H535 H 0.54705 0.05606 0.91915 0.0
H536 H 0.53715 0.05361 0.94464 0.0
H537 H 0.42492 0.02991 0.93639 0.0
H538 H 0.43148 0.00496 0.94345 0.0
H539 H 0.44467 0.03381 0.95772 0.0
H540 H 0.57116 0.18017 0.01397 0.0
H541 H 0.5794 0.14903 0.02791 0.0
H542 H 0.50711 0.13496 0.05027 0.0
H543 H 0.56186 0.09288 0.00612 0.0
H544 H 0.58787 0.11556 0.0214 0.0
H545 H 0.56569 0.08409 0.03066 0.0
H546 H 0.47055 0.09381 0.05044 0.0
H547 H 0.4708 0.06988 0.03454 0.0
H548 H 0.48 0.07196 0.06002 0.0
H549 H 0.43031 0.93028 0.10283 0.0
H550 H 0.42221 0.89049 0.0849 0.0
H551 H 0.4411 0.919 0.07073 0.0
H552 H 0.4564 0.90346 0.08257 0.0
H553 H 0.51518 0.97312 0.08826 0.0
H554 H 0.44088 0.96639 0.08954 0.0
H555 H 0.536 0.00456 0.04483 0.0
H556 H 0.54611 0.03151 0.06094 0.0
H557 H 0.54897 0.00451 0.06891 0.0
H558 H 0.43076 0.99301 0.07143 0.0
H559 H 0.45722 0.02284 0.06294 0.0
H560 H 0.44322 0.99564 0.04679 0.0
H561 H 0.47056 0.98642 0.93591 0.0
H562 H 0.50271 0.07041 0.96337 0.0
H563 H 0.515 0.08886 0.9958 0.0
H564 H 0.51449 0.05636 0.06092 0.0
H565 H 0.47875 0.97175 0.03355 0.0
H566 H 0.46752 0.95361 0.0011 0.0
H567 H 0.56629 0.21807 0.00966 0.0
H568 H 0.53592 0.18946 0.01339 0.0
H569 H 0.55036 0.2122 0.03334 0.0
C570 C 0.70484 0.56283 0.06612 0.0
C571 C 0.69075 0.54217 0.08172 0.0
C572 C 0.68084 0.56252 0.10832 0.0
C573 C 0.65484 0.54614 0.11214 0.0
C574 C 0.63961 0.55571 0.11968 0.0
C575 C 0.65064 0.58228 0.12313 0.0
C576 C 0.67712 0.59872 0.11983 0.0
C577 C 0.69201 0.58852 0.1127 0.0
C578 C 0.61166 0.53748 0.12369 0.0
C579 C 0.68952 0.62709 0.12345 0.0
C580 C 0.52173 0.60961 0.02737 0.0
C581 C 0.53602 0.60147 0.04067 0.0
C582 C 0.56329 0.61577 0.07008 0.0
C583 C 0.58227 0.63705 0.08017 0.0
C584 C 0.59598 0.63431 0.09589 0.0
C585 C 0.58962 0.60951 0.10223 0.0
C586 C 0.5701 0.58786 0.09226 0.0
C587 C 0.55752 0.59122 0.07609 0.0
C588 C 0.61736 0.65794 0.10552 0.0
C589 C 0.5626 0.56102 0.09841 0.0
C590 C 0.53692 0.64932 0.21543 0.0
C591 C 0.56136 0.66603 0.208 0.0
C592 C 0.57816 0.65714 0.20304 0.0
C593 C 0.57004 0.63086 0.20518 0.0
C594 C 0.54549 0.61408 0.21303 0.0
C595 C 0.52939 0.62367 0.21836 0.0
C596 C 0.60455 0.67585 0.1955 0.0
C597 C 0.53613 0.58598 0.21554 0.0
C598 C 0.70779 0.58046 0.26272 0.0
C599 C 0.67852 0.56617 0.26271 0.0
C600 C 0.65609 0.58875 0.25401 0.0
C601 C 0.66376 0.61422 0.25005 0.0
C602 C 0.65086 0.62057 0.23585 0.0
C603 C 0.6293 0.60083 0.22594 0.0
C604 C 0.62039 0.57501 0.23102 0.0
C605 C 0.63412 0.56923 0.24484 0.0
C606 C 0.66079 0.64829 0.23097 0.0
C607 C 0.59674 0.55348 0.2215 0.0
C608 C 0.63413 0.59287 0.12922 0.0
C609 C 0.62118 0.59795 0.11435 0.0
C610 C 0.60373 0.60604 0.11889 0.0
C611 C 0.59917 0.60944 0.13891 0.0
C612 C 0.58108 0.61665 0.14413 0.0
C613 C 0.5771 0.6204 0.16384 0.0
C614 C 0.59084 0.61683 0.17913 0.0
C615 C 0.58721 0.62096 0.1992 0.0
C616 C 0.60015 0.61581 0.21407 0.0
C617 C 0.61701 0.60701 0.20946 0.0
C618 C 0.62171 0.60385 0.18944 0.0
C619 C 0.63927 0.59593 0.18425 0.0
C620 C 0.64333 0.59227 0.16456 0.0
C621 C 0.63028 0.59674 0.14926 0.0
C622 C 0.61275 0.60508 0.15411 0.0
C623 C 0.60847 0.60864 0.17424 0.0
C624 C 0.49028 0.64944 0.1943 0.0
C625 C 0.51227 0.66961 0.20692 0.0
O626 O 0.69537 0.55352 0.10028 0.0
O627 O 0.67032 0.58347 0.2666 0.0
O628 O 0.52042 0.6576 0.22012 0.0
O629 O 0.55101 0.61964 0.05472 0.0
H630 H 0.66989 0.53232 0.07825 0.0
H631 H 0.69798 0.57679 0.06647 0.0
H632 H 0.7258 0.57317 0.06903 0.0
H633 H 0.70115 0.55421 0.05108 0.0
H634 H 0.64651 0.5259 0.10916 0.0
H635 H 0.71225 0.6009 0.10987 0.0
H636 H 0.59981 0.54116 0.11311 0.0
H637 H 0.60665 0.51719 0.12217 0.0
H638 H 0.60666 0.54062 0.13884 0.0
H639 H 0.71033 0.6373 0.1201 0.0
H640 H 0.68009 0.63513 0.11413 0.0
H641 H 0.68689 0.63073 0.13914 0.0
H642 H 0.54646 0.59296 0.03311 0.0
H643 H 0.53011 0.61089 0.01227 0.0
H644 H 0.48321 0.58389 0.03394 0.0
H645 H 0.53062 0.6309 0.02929 0.0
H646 H 0.58671 0.65593 0.0754 0.0
H647 H 0.54306 0.5745 0.06837 0.0
H648 H 0.61101 0.66084 0.12021 0.0
H649 H 0.63442 0.65579 0.10787 0.0
H650 H 0.62306 0.67532 0.09653 0.0
H651 H 0.54343 0.54677 0.09259 0.0
H652 H 0.57679 0.55623 0.0924 0.0
H653 H 0.56245 0.55931 0.11477 0.0
H654 H 0.5282 0.68222 0.19685 0.0
H655 H 0.5674 0.68608 0.20635 0.0
H656 H 0.51055 0.61103 0.22435 0.0
H657 H 0.60567 0.67242 0.17949 0.0
H658 H 0.60924 0.69599 0.1975 0.0
H659 H 0.61924 0.67311 0.20326 0.0
H660 H 0.5156 0.57506 0.21974 0.0
H661 H 0.53882 0.57785 0.2016 0.0
H662 H 0.54755 0.58338 0.22724 0.0
H663 H 0.67214 0.55759 0.24769 0.0
H664 H 0.71497 0.56717 0.25923 0.0
H665 H 0.71509 0.59566 0.2513 0.0
H666 H 0.71542 0.58947 0.27738 0.0
H667 H 0.68056 0.62911 0.2575 0.0
H668 H 0.6278 0.54952 0.24848 0.0
H669 H 0.66456 0.65141 0.21485 0.0
H670 H 0.64606 0.6535 0.23471 0.0
H671 H 0.67867 0.66125 0.23917 0.0
H672 H 0.58981 0.53518 0.22953 0.0
H673 H 0.58112 0.55814 0.22098 0.0
H674 H 0.60115 0.55077 0.20606 0.0
H675 H 0.62429 0.59499 0.09899 0.0
H676 H 0.56984 0.61955 0.13303 0.0
H677 H 0.56303 0.62606 0.16693 0.0
H678 H 0.59697 0.61859 0.22945 0.0
H679 H 0.65007 0.59239 0.19536 0.0
H680 H 0.65692 0.58597 0.16147 0.0
H681 H 0.47396 0.63637 0.20383 0.0
H682 H 0.48361 0.6587 0.1835 0.0
H683 H 0.49688 0.63799 0.1859 0.0
O684 O 0.61378 0.41164 0.4258 0.0
Cd685 Cd 0.61979 0.39746 0.39991 0.0
Cd686 Cd 0.66933 0.43156 0.40861 0.0
O687 O 0.65422 0.43633 0.43468 0.0
O688 O 0.58879 0.36315 0.39568 0.0
O689 O 0.62705 0.36876 0.40311 0.0
C690 C 0.60293 0.35338 0.40004 0.0
C691 C 0.70203 0.42167 0.40734 0.0
C692 C 0.63043 0.42675 0.43815 0.0
C693 C 0.64733 0.44051 0.37149 0.0
O694 O 0.66584 0.44905 0.38373 0.0
O695 O 0.62709 0.41922 0.37451 0.0
O696 O 0.70673 0.44428 0.41218 0.0
O697 O 0.67849 0.40433 0.40425 0.0
O698 O 0.23114 0.5769 0.60959 0.0
Cd699 Cd 0.25278 0.59399 0.58491 0.0
Cd700 Cd 0.23431 0.62649 0.59077 0.0
O701 O 0.21768 0.60419 0.61551 0.0
O702 O 0.27813 0.58212 0.58329 0.0
O703 O 0.2889 0.62234 0.5891 0.0
C704 C 0.29569 0.60525 0.58723 0.0
C705 C 0.25431 0.67094 0.59239 0.0
C706 C 0.21856 0.58425 0.62011 0.0
C707 C 0.22062 0.59623 0.55248 0.0
O708 O 0.21824 0.61193 0.56354 0.0
O709 O 0.23417 0.58664 0.55795 0.0
O710 O 0.22977 0.65677 0.59325 0.0
O711 O 0.26779 0.65975 0.59166 0.0
O712 O 0.61465 0.20451 0.76101 0.0
Cd713 Cd 0.63355 0.22595 0.73681 0.0
Cd714 Cd 0.60368 0.24631 0.74289 0.0
O715 O 0.59482 0.22558 0.76896 0.0
O716 O 0.66734 0.22757 0.73598 0.0
O717 O 0.66292 0.26164 0.73966 0.0
C718 C 0.67771 0.25193 0.73853 0.0
C719 C 0.61182 0.28827 0.74339 0.0
C720 C 0.60013 0.20811 0.77251 0.0
C721 C 0.59466 0.21438 0.70588 0.0
O722 O 0.58713 0.22632 0.71701 0.0
O723 O 0.61424 0.21276 0.71048 0.0
O724 O 0.58925 0.26933 0.7467 0.0
O725 O 0.63016 0.28354 0.74027 0.0
O726 O 0.45038 0.65431 0.94013 0.0
Cd727 Cd 0.43828 0.66376 0.91474 0.0
Cd728 Cd 0.40191 0.61348 0.91349 0.0
O729 O 0.41863 0.61442 0.9405 0.0
O730 O 0.45376 0.70152 0.91458 0.0
O731 O 0.41195 0.67483 0.91666 0.0
C732 C 0.43091 0.698 0.91608 0.0
C733 C 0.35717 0.59016 0.91211 0.0
C734 C 0.43874 0.63255 0.94832 0.0
C735 C 0.44064 0.63314 0.88069 0.0
O736 O 0.42141 0.61384 0.88819 0.0
O737 O 0.44973 0.65503 0.88868 0.0
O738 O 0.37061 0.57908 0.9135 0.0
O739 O 0.36916 0.61481 0.91137 0.0
O740 O 0.80423 0.36571 0.04892 0.0
Cd741 Cd 0.78331 0.36225 0.07394 0.0
Cd742 Cd 0.79209 0.40824 0.06338 0.0
O743 O 0.80175 0.39823 0.03682 0.0
O744 O 0.7587 0.32526 0.07824 0.0
O745 O 0.74697 0.35332 0.06972 0.0
C746 C 0.74072 0.32992 0.07334 0.0
C747 C 0.76786 0.42867 0.06371 0.0
C748 C 0.80793 0.38108 0.03486 0.0
C749 C 0.81801 0.40403 0.10036 0.0
O750 O 0.81748 0.41823 0.08674 0.0
O751 O 0.8035 0.37995 0.09933 0.0
O752 O 0.79122 0.44014 0.05764 0.0
O753 O 0.7578 0.40509 0.06899 0.0
O754 O 0.43113 0.82631 0.2398 0.0
Cd755 Cd 0.42582 0.8046 0.26448 0.0
Cd756 Cd 0.37635 0.78177 0.25432 0.0
O757 O 0.3926 0.80008 0.22787 0.0
O758 O 0.45564 0.79919 0.26793 0.0
O759 O 0.41669 0.76857 0.25937 0.0
C760 C 0.44052 0.77579 0.26252 0.0
C761 C 0.34128 0.74019 0.25358 0.0
C762 C 0.4149 0.81932 0.22581 0.0
C763 C 0.39382 0.81489 0.29134 0.0
O764 O 0.37662 0.80351 0.27817 0.0
O765 O 0.41533 0.81592 0.28983 0.0
O766 O 0.3393 0.75936 0.24765 0.0
O767 O 0.36342 0.74441 0.25951 0.0
C768 C 0.20298 0.62285 0.27213 0.0
C769 C 0.19843 0.59951 0.26401 0.0
C770 C 0.22729 0.6448 0.27114 0.0
C771 C 0.24736 0.64372 0.26116 0.0
C772 C 0.24299 0.62028 0.25302 0.0
C773 C 0.2187 0.59842 0.25477 0.0
C774 C 0.23135 0.6693 0.28045 0.0
C775 C 0.26368 0.61849 0.24181 0.0
C776 C 0.29853 0.70738 0.24076 0.0
C777 C 0.31843 0.71448 0.25446 0.0
C778 C 0.27574 0.68387 0.2423 0.0
C779 C 0.27244 0.66749 0.25835 0.0
C780 C 0.29265 0.67446 0.2721 0.0
C781 C 0.31561 0.69774 0.2698 0.0
C782 C 0.25498 0.67681 0.22697 0.0
C783 C 0.28961 0.65788 0.28972 0.0
H784 H 0.18753 0.62415 0.27914 0.0
H785 H 0.21526 0.58051 0.24838 0.0
H786 H 0.24848 0.67759 0.29021 0.0
H787 H 0.23488 0.6835 0.26875 0.0
H788 H 0.21459 0.66638 0.28928 0.0
H789 H 0.25747 0.59866 0.23695 0.0
H790 H 0.26912 0.6309 0.22855 0.0
H791 H 0.28109 0.62549 0.25112 0.0
H792 H 0.30077 0.72029 0.22883 0.0
H793 H 0.33092 0.70337 0.28053 0.0
H794 H 0.2381 0.67634 0.23389 0.0
H795 H 0.24863 0.65742 0.22098 0.0
H796 H 0.26144 0.69053 0.21448 0.0
H797 H 0.27411 0.65653 0.29937 0.0
H798 H 0.30747 0.66551 0.29861 0.0
H799 H 0.2839 0.63822 0.28483 0.0
C800 C 0.52139 0.2204 0.45014 0.0
C801 C 0.52302 0.19963 0.44262 0.0
C802 C 0.53501 0.24465 0.44152 0.0
C803 C 0.55046 0.24824 0.42474 0.0
C804 C 0.55197 0.22731 0.41686 0.0
C805 C 0.53858 0.20333 0.42608 0.0
C806 C 0.53326 0.26656 0.45065 0.0
C807 C 0.5679 0.2303 0.39879 0.0
C808 C 0.56683 0.3085 0.3962 0.0
C809 C 0.59126 0.32564 0.40364 0.0
C810 C 0.55394 0.28275 0.40197 0.0
C811 C 0.56549 0.27416 0.41592 0.0
C812 C 0.59061 0.29116 0.42282 0.0
C813 C 0.60331 0.31663 0.4164 0.0
C814 C 0.52748 0.26506 0.39385 0.0
C815 C 0.60343 0.28293 0.43799 0.0
H816 H 0.50973 0.21771 0.46309 0.0
H817 H 0.54038 0.18755 0.42035 0.0
H818 H 0.5526 0.28193 0.45519 0.0
H819 H 0.52584 0.27483 0.43963 0.0
H820 H 0.52057 0.26061 0.4638 0.0
H821 H 0.56585 0.21185 0.39379 0.0
H822 H 0.56224 0.23857 0.38647 0.0
H823 H 0.58839 0.24375 0.40203 0.0
H824 H 0.5575 0.31535 0.38623 0.0
H825 H 0.62212 0.32984 0.42232 0.0
H826 H 0.5131 0.26042 0.40568 0.0
H827 H 0.52588 0.24683 0.38882 0.0
H828 H 0.52262 0.27369 0.38128 0.0
H829 H 0.59292 0.27885 0.4522 0.0
H830 H 0.62369 0.29779 0.44067 0.0
H831 H 0.60283 0.26509 0.4332 0.0
C832 C 0.42144 0.6211 0.63648 0.0
C833 C 0.44361 0.63292 0.62489 0.0
C834 C 0.39784 0.61673 0.62906 0.0
C835 C 0.39637 0.62449 0.60959 0.0
C836 C 0.41864 0.63621 0.59771 0.0
C837 C 0.44204 0.64044 0.60555 0.0
C838 C 0.37455 0.60424 0.64223 0.0
C839 C 0.41781 0.64469 0.57687 0.0
C840 C 0.32965 0.59304 0.58719 0.0
C841 C 0.32242 0.61142 0.59086 0.0
C842 C 0.35403 0.59744 0.59252 0.0
C843 C 0.37155 0.6207 0.60189 0.0
C844 C 0.36471 0.63971 0.60499 0.0
C845 C 0.34025 0.63488 0.59935 0.0
C846 C 0.36069 0.5768 0.58879 0.0
C847 C 0.38285 0.66473 0.615 0.0
H848 H 0.42269 0.61566 0.65153 0.0
H849 H 0.45924 0.65002 0.59668 0.0
H850 H 0.36701 0.61742 0.64461 0.0
H851 H 0.35917 0.5868 0.63497 0.0
H852 H 0.37883 0.59889 0.65687 0.0
H853 H 0.43657 0.65254 0.56929 0.0
H854 H 0.40316 0.62839 0.56805 0.0
H855 H 0.41217 0.65956 0.57711 0.0
H856 H 0.31602 0.57491 0.58053 0.0
H857 H 0.3348 0.64916 0.60227 0.0
H858 H 0.36297 0.56922 0.60312 0.0
H859 H 0.37921 0.58478 0.58088 0.0
H860 H 0.34576 0.56069 0.57996 0.0
H861 H 0.38624 0.66114 0.6305 0.0
H862 H 0.3753 0.67814 0.61515 0.0
H863 H 0.40165 0.67405 0.60742 0.0
C864 C 0.8304 0.33061 0.73386 0.0
C865 C 0.84132 0.34604 0.75064 0.0
C866 C 0.80377 0.31522 0.73182 0.0
C867 C 0.7876 0.31489 0.7471 0.0
C868 C 0.79845 0.33013 0.76423 0.0
C869 C 0.82515 0.34585 0.76565 0.0
C870 C 0.79292 0.29966 0.71315 0.0
C871 C 0.78185 0.32988 0.78102 0.0
C872 C 0.71815 0.29383 0.73511 0.0
C873 C 0.70575 0.26808 0.74063 0.0
C874 C 0.74484 0.30923 0.73693 0.0
C875 C 0.7593 0.2988 0.74505 0.0
C876 C 0.74675 0.27291 0.75099 0.0
C877 C 0.72016 0.25775 0.74842 0.0
C878 C 0.75761 0.33655 0.72992 0.0
C879 C 0.76137 0.26128 0.76022 0.0
H880 H 0.84281 0.33098 0.72212 0.0
H881 H 0.83329 0.358 0.77854 0.0
H882 H 0.78138 0.27908 0.7168 0.0
H883 H 0.77994 0.30515 0.70576 0.0
H884 H 0.80811 0.30231 0.70255 0.0
H885 H 0.79333 0.3418 0.79375 0.0
H886 H 0.76919 0.3371 0.77581 0.0
H887 H 0.76932 0.31003 0.78622 0.0
H888 H 0.70702 0.30179 0.729 0.0
H889 H 0.71055 0.2379 0.7529 0.0
H890 H 0.77215 0.33978 0.71854 0.0
H891 H 0.76778 0.34974 0.74241 0.0
H892 H 0.74371 0.34157 0.72354 0.0
H893 H 0.77564 0.26186 0.7496 0.0
H894 H 0.7486 0.24115 0.76476 0.0
H895 H 0.77207 0.27256 0.77342 0.0
C896 C 0.44038 0.82992 0.94222 0.0
C897 C 0.42442 0.8358 0.9309 0.0
C898 C 0.43907 0.80616 0.9404 0.0
C899 C 0.42202 0.78808 0.92649 0.0
C900 C 0.40551 0.79359 0.91533 0.0
C901 C 0.40652 0.81712 0.918 0.0
C902 C 0.45641 0.80066 0.95306 0.0
C903 C 0.38752 0.77509 0.89999 0.0
C904 C 0.44321 0.74258 0.9073 0.0
C905 C 0.42696 0.72012 0.91754 0.0
C906 C 0.44102 0.76448 0.90946 0.0
C907 C 0.42275 0.76417 0.92276 0.0
C908 C 0.4061 0.74142 0.93303 0.0
C909 C 0.40813 0.71947 0.93002 0.0
C910 C 0.45858 0.78808 0.89777 0.0
C911 C 0.38696 0.74058 0.9478 0.0
H912 H 0.45413 0.84387 0.95245 0.0
H913 H 0.39378 0.82125 0.9095 0.0
H914 H 0.44521 0.78182 0.96035 0.0
H915 H 0.47099 0.79979 0.94364 0.0
H916 H 0.46646 0.81547 0.96465 0.0
H917 H 0.37529 0.78185 0.89303 0.0
H918 H 0.39876 0.77236 0.88823 0.0
H919 H 0.37498 0.75614 0.90672 0.0
H920 H 0.45767 0.743 0.89755 0.0
H921 H 0.39575 0.70214 0.93809 0.0
H922 H 0.47187 0.80347 0.90795 0.0
H923 H 0.44728 0.79522 0.88984 0.0
H924 H 0.47011 0.78447 0.8868 0.0
H925 H 0.39725 0.75392 0.9602 0.0
H926 H 0.37471 0.72115 0.95394 0.0
H927 H 0.37447 0.74699 0.94084 0.0
C928 C 0.68861 0.503 0.06661 0.0
C929 C 0.6995 0.52263 0.08077 0.0
C930 C 0.69791 0.48608 0.06384 0.0
C931 C 0.71855 0.48875 0.0756 0.0
C932 C 0.72927 0.50814 0.09026 0.0
C933 C 0.71988 0.52509 0.09247 0.0
C934 C 0.68629 0.46598 0.04781 0.0
C935 C 0.75113 0.51143 0.10324 0.0
C936 C 0.73259 0.43403 0.07814 0.0
C937 C 0.75379 0.44279 0.06556 0.0
C938 C 0.72075 0.44868 0.08147 0.0
C939 C 0.73008 0.47239 0.07172 0.0
C940 C 0.75091 0.48087 0.05848 0.0
C941 C 0.76264 0.46608 0.05571 0.0
C942 C 0.6988 0.43919 0.09588 0.0
C943 C 0.76113 0.5058 0.04751 0.0
H944 H 0.67319 0.50136 0.05731 0.0
H945 H 0.72877 0.54051 0.10317 0.0
H946 H 0.70086 0.46974 0.03631 0.0
H947 H 0.6802 0.44682 0.054 0.0
H948 H 0.66951 0.46558 0.04064 0.0
H949 H 0.75584 0.52598 0.11502 0.0
H950 H 0.74633 0.49302 0.11028 0.0
H951 H 0.76845 0.51736 0.09409 0.0
H952 H 0.7258 0.41613 0.08591 0.0
H953 H 0.77895 0.47289 0.04589 0.0
H954 H 0.68184 0.43824 0.08863 0.0
H955 H 0.70421 0.45278 0.10846 0.0
H956 H 0.69332 0.42 0.1018 0.0
H957 H 0.74545 0.50619 0.0392 0.0
H958 H 0.77655 0.50899 0.03696 0.0
H959 H 0.76887 0.52193 0.0582 0.0
C960 C 0.31016 0.82252 0.58543 0.0
C961 C 0.31608 0.82968 0.56557 0.0
C962 C 0.30257 0.79757 0.5916 0.0
C963 C 0.30031 0.77921 0.57748 0.0
C964 C 0.30705 0.78654 0.55752 0.0
C965 C 0.31509 0.81174 0.55186 0.0
C966 C 0.29601 0.79061 0.61307 0.0
C967 C 0.30455 0.76747 0.54194 0.0
C968 C 0.29282 0.71504 0.59211 0.0
C969 C 0.26622 0.69901 0.59058 0.0
C970 C 0.30421 0.74143 0.58862 0.0
C971 C 0.28865 0.75184 0.58309 0.0
C972 C 0.26176 0.7358 0.58196 0.0
C973 C 0.25088 0.70968 0.58591 0.0
C974 C 0.33289 0.75805 0.5904 0.0
C975 C 0.24449 0.74604 0.57583 0.0
H976 H 0.31095 0.83632 0.5961 0.0
H977 H 0.31975 0.81724 0.53651 0.0
H978 H 0.27507 0.77762 0.61456 0.0
H979 H 0.30561 0.78027 0.61867 0.0
H980 H 0.30168 0.80768 0.62254 0.0
H981 H 0.31196 0.77655 0.52734 0.0
H982 H 0.31506 0.75763 0.54656 0.0
H983 H 0.2841 0.75264 0.54019 0.0
H984 H 0.30477 0.70692 0.59578 0.0
H985 H 0.23032 0.69742 0.58459 0.0
H986 H 0.33778 0.77474 0.60007 0.0
H987 H 0.34121 0.76554 0.57564 0.0
H988 H 0.34202 0.74748 0.59651 0.0
H989 H 0.24736 0.76187 0.5858 0.0
H990 H 0.22392 0.73113 0.57608 0.0
H991 H 0.24944 0.75393 0.56065 0.0
C992 C 0.63389 0.43084 0.737 0.0
C993 C 0.61274 0.42931 0.72697 0.0
C994 C 0.63607 0.40905 0.74011 0.0
C995 C 0.6171 0.38524 0.73238 0.0
C996 C 0.59629 0.38369 0.7215 0.0
C997 C 0.5941 0.40559 0.71922 0.0
C998 C 0.65817 0.41135 0.75226 0.0
C999 C 0.57604 0.35877 0.71251 0.0
C1000 C 0.6308 0.33059 0.72681 0.0
C1001 C 0.61589 0.31434 0.74204 0.0
C1002 C 0.63176 0.35401 0.72362 0.0
C1003 C 0.6182 0.36163 0.73644 0.0
C1004 C 0.60431 0.34584 0.75254 0.0
C1005 C 0.60289 0.32212 0.75489 0.0
C1006 C 0.64606 0.36988 0.70591 0.0
C1007 C 0.59034 0.35365 0.76694 0.0
H1008 H 0.64843 0.4491 0.7429 0.0
H1009 H 0.57763 0.40394 0.71142 0.0
H1010 H 0.65074 0.39949 0.76577 0.0
H1011 H 0.66889 0.40402 0.74379 0.0
H1012 H 0.67166 0.43138 0.7568 0.0
H1013 H 0.56249 0.36127 0.7029 0.0
H1014 H 0.58513 0.35003 0.7036 0.0
H1015 H 0.56496 0.34512 0.72442 0.0
H1016 H 0.64057 0.32435 0.71673 0.0
H1017 H 0.59143 0.30952 0.76672 0.0
H1018 H 0.65969 0.3898 0.71047 0.0
H1019 H 0.63228 0.37058 0.69538 0.0
H1020 H 0.65681 0.36203 0.69806 0.0
H1021 H 0.60326 0.37335 0.77243 0.0
H1022 H 0.58284 0.3406 0.77983 0.0
H1023 H 0.57401 0.35366 0.75937 0.0
C1024 C 0.20484 0.51087 0.92413 0.0
C1025 C 0.19332 0.49337 0.90854 0.0
C1026 C 0.23131 0.52805 0.92446 0.0
C1027 C 0.24665 0.52802 0.90865 0.0
C1028 C 0.23507 0.51099 0.89254 0.0
C1029 C 0.20863 0.49358 0.89282 0.0
C1030 C 0.24298 0.54546 0.94213 0.0
C1031 C 0.25074 0.51063 0.87527 0.0
C1032 C 0.3142 0.58475 0.90362 0.0
C1033 C 0.32889 0.57479 0.91151 0.0
C1034 C 0.28737 0.56971 0.90242 0.0
C1035 C 0.27502 0.54437 0.9097 0.0
C1036 C 0.28979 0.53445 0.91803 0.0
C1037 C 0.31653 0.54968 0.91863 0.0
C1038 C 0.27228 0.58075 0.89311 0.0
C1039 C 0.27736 0.50773 0.92634 0.0
H1040 H 0.19313 0.51052 0.93641 0.0
H1041 H 0.20007 0.47992 0.88083 0.0
H1042 H 0.25606 0.54049 0.95 0.0
H1043 H 0.25458 0.56559 0.93728 0.0
H1044 H 0.22826 0.54404 0.95272 0.0
H1045 H 0.23856 0.49811 0.86304 0.0
H1046 H 0.2629 0.53023 0.86946 0.0
H1047 H 0.26372 0.50367 0.88023 0.0
H1048 H 0.32371 0.60411 0.89801 0.0
H1049 H 0.32778 0.54195 0.92489 0.0
H1050 H 0.25821 0.5804 0.90383 0.0
H1051 H 0.26128 0.56889 0.88022 0.0
H1052 H 0.28475 0.60072 0.88808 0.0
H1053 H 0.26325 0.50535 0.93786 0.0
H1054 H 0.29153 0.50325 0.93294 0.0
H1055 H 0.26676 0.49359 0.91448 0.0
C1056 C 0.61587 0.21804 0.02523 0.0
C1057 C 0.59363 0.20758 0.03675 0.0
C1058 C 0.63938 0.23728 0.03277 0.0
C1059 C 0.64068 0.2464 0.0523 0.0
C1060 C 0.61838 0.23563 0.06415 0.0
C1061 C 0.59507 0.21647 0.05618 0.0
C1062 C 0.66269 0.24832 0.01962 0.0
C1063 C 0.61903 0.24481 0.08504 0.0
C1064 C 0.70762 0.28346 0.07425 0.0
C1065 C 0.7141 0.30878 0.07033 0.0
C1066 C 0.68338 0.26297 0.06921 0.0
C1067 C 0.66525 0.2679 0.05993 0.0
C1068 C 0.6713 0.29345 0.05668 0.0
C1069 C 0.69562 0.31358 0.06197 0.0
C1070 C 0.67757 0.23601 0.07309 0.0
C1071 C 0.65249 0.29951 0.04679 0.0
H1072 H 0.61473 0.21152 0.01011 0.0
H1073 H 0.57781 0.20876 0.065 0.0
H1074 H 0.66971 0.2689 0.0171 0.0
H1075 H 0.67837 0.24683 0.02693 0.0
H1076 H 0.65864 0.23852 0.00503 0.0
H1077 H 0.60042 0.23339 0.09271 0.0
H1078 H 0.63415 0.24385 0.09373 0.0
H1079 H 0.62386 0.26508 0.08487 0.0
H1080 H 0.72174 0.27957 0.08078 0.0
H1081 H 0.70044 0.33307 0.05889 0.0
H1082 H 0.67565 0.22609 0.05881 0.0
H1083 H 0.65908 0.22514 0.08097 0.0
H1084 H 0.69279 0.23546 0.08199 0.0
H1085 H 0.64913 0.29237 0.03131 0.0
H1086 H 0.65943 0.32034 0.04659 0.0
H1087 H 0.63379 0.28969 0.05449 0.0
C1088 C 0.49321 0.67969 0.23693 0.0
C1089 C 0.50348 0.68586 0.21778 0.0
C1090 C 0.48352 0.69388 0.24628 0.0
C1091 C 0.48339 0.7142 0.23601 0.0
C1092 C 0.49362 0.72042 0.21667 0.0
C1093 C 0.5036 0.70624 0.20784 0.0
C1094 C 0.47304 0.68688 0.26699 0.0
C1095 C 0.49346 0.74167 0.20508 0.0
C1096 C 0.43519 0.735 0.24869 0.0
C1097 C 0.45068 0.75846 0.25822 0.0
C1098 C 0.44541 0.71996 0.24198 0.0
C1099 C 0.4717 0.72845 0.24507 0.0
C1100 C 0.48713 0.75146 0.25558 0.0
C1101 C 0.47647 0.76626 0.26195 0.0
C1102 C 0.42834 0.69562 0.23072 0.0
C1103 C 0.51516 0.76098 0.25939 0.0
H1104 H 0.49253 0.66363 0.24457 0.0
H1105 H 0.51105 0.71072 0.19291 0.0
H1106 H 0.48229 0.70394 0.27677 0.0
H1107 H 0.45221 0.68008 0.26688 0.0
H1108 H 0.47606 0.6717 0.27343 0.0
H1109 H 0.50251 0.74433 0.19032 0.0
H1110 H 0.47346 0.73745 0.20296 0.0
H1111 H 0.50378 0.75991 0.21342 0.0
H1112 H 0.41526 0.72882 0.24571 0.0
H1113 H 0.48855 0.78432 0.26938 0.0
H1114 H 0.42955 0.67942 0.2372 0.0
H1115 H 0.4349 0.69765 0.21516 0.0
H1116 H 0.40799 0.69081 0.23072 0.0
H1117 H 0.51774 0.74565 0.26603 0.0
H1118 H 0.5239 0.77787 0.26939 0.0
H1119 H 0.52571 0.76636 0.24518 0.0
C1120 C 0.81626 0.41563 0.35699 0.0
C1121 C 0.82574 0.40169 0.36686 0.0
C1122 C 0.79674 0.41887 0.36524 0.0
C1123 C 0.78632 0.4078 0.38381 0.0
C1124 C 0.79609 0.39406 0.39403 0.0
C1125 C 0.81556 0.39099 0.38536 0.0
C1126 C 0.78676 0.43353 0.35379 0.0
C1127 C 0.78554 0.38207 0.41388 0.0
C1128 C 0.74839 0.43438 0.40922 0.0
C1129 C 0.72322 0.41646 0.40369 0.0
C1130 C 0.76906 0.4312 0.40365 0.0
C1131 C 0.76448 0.4098 0.39202 0.0
C1132 C 0.73903 0.39117 0.38703 0.0
C1133 C 0.71869 0.39463 0.39305 0.0
C1134 C 0.79588 0.45126 0.40953 0.0
C1135 C 0.73334 0.3682 0.3745 0.0
H1136 H 0.82379 0.42354 0.34254 0.0
H1137 H 0.82249 0.37979 0.39287 0.0
H1138 H 0.76626 0.42076 0.35009 0.0
H1139 H 0.78807 0.44938 0.36297 0.0
H1140 H 0.79748 0.44162 0.33985 0.0
H1141 H 0.79635 0.37346 0.4205 0.0
H1142 H 0.78611 0.39656 0.4243 0.0
H1143 H 0.7652 0.36694 0.41224 0.0
H1144 H 0.75202 0.45123 0.41753 0.0
H1145 H 0.69931 0.38075 0.38865 0.0
H1146 H 0.80673 0.46165 0.39619 0.0
H1147 H 0.80614 0.44219 0.41627 0.0
H1148 H 0.79601 0.46534 0.4202 0.0
H1149 H 0.74146 0.37455 0.35949 0.0
H1150 H 0.71246 0.35464 0.37301 0.0
H1151 H 0.74253 0.35791 0.38096 0.0
C1152 C 0.11524 0.54898 0.46873 0.0
C1153 C 0.12459 0.55216 0.44932 0.0
C1154 C 0.13163 0.55454 0.48504 0.0
C1155 C 0.15813 0.56433 0.48189 0.0
C1156 C 0.16767 0.56747 0.46238 0.0
C1157 C 0.15074 0.56122 0.44634 0.0
C1158 C 0.12069 0.55065 0.50565 0.0
C1159 C 0.19587 0.57842 0.45844 0.0
C1160 C 0.20052 0.60544 0.52387 0.0
C1161 C 0.20666 0.58867 0.53346 0.0
C1162 C 0.18557 0.59805 0.50662 0.0
C1163 C 0.176 0.57304 0.49905 0.0
C1164 C 0.18258 0.55617 0.50842 0.0
C1165 C 0.19812 0.56431 0.52543 0.0
C1166 C 0.1795 0.61682 0.49678 0.0
C1167 C 0.17236 0.52922 0.50096 0.0
H1168 H 0.09517 0.54251 0.47121 0.0
H1169 H 0.15806 0.56413 0.43136 0.0
H1170 H 0.12694 0.53941 0.51463 0.0
H1171 H 0.12797 0.56942 0.51307 0.0
H1172 H 0.09943 0.54065 0.50556 0.0
H1173 H 0.19998 0.5782 0.44244 0.0
H1174 H 0.2066 0.59845 0.46385 0.0
H1175 H 0.20325 0.56754 0.46662 0.0
H1176 H 0.2073 0.62438 0.52994 0.0
H1177 H 0.20272 0.55125 0.53291 0.0
H1178 H 0.15868 0.60987 0.49786 0.0
H1179 H 0.18433 0.61847 0.48082 0.0
H1180 H 0.19008 0.63612 0.50363 0.0
H1181 H 0.15119 0.51845 0.50231 0.0
H1182 H 0.18031 0.51893 0.5093 0.0
H1183 H 0.17691 0.52934 0.48506 0.0
C1184 C 0.46779 0.11736 0.63361 0.0
C1185 C 0.47952 0.11209 0.60962 0.0
C1186 C 0.49263 0.13731 0.65089 0.0
C1187 C 0.5258 0.15462 0.64321 0.0
C1188 C 0.53523 0.15421 0.61787 0.0
C1189 C 0.51175 0.13474 0.59953 0.0
C1190 C 0.48556 0.1388 0.67179 0.0
C1191 C 0.5625 0.17033 0.61188 0.0
C1192 C 0.56429 0.20907 0.67868 0.0
C1193 C 0.5792 0.20056 0.68837 0.0
C1194 C 0.54772 0.19482 0.66318 0.0
C1195 C 0.54536 0.17112 0.65779 0.0
C1196 C 0.5608 0.16273 0.66719 0.0
C1197 C 0.57783 0.17775 0.68222 0.0
C1198 C 0.53254 0.20501 0.65276 0.0
C1199 C 0.55844 0.13732 0.66213 0.0
H1200 H 0.44829 0.10512 0.63846 0.0
H1201 H 0.51728 0.13285 0.58468 0.0
H1202 H 0.50195 0.14381 0.68187 0.0
H1203 H 0.48007 0.15372 0.67296 0.0
H1204 H 0.46881 0.12031 0.67615 0.0
H1205 H 0.56364 0.1751 0.59594 0.0
H1206 H 0.57201 0.18797 0.62099 0.0
H1207 H 0.57258 0.15944 0.61426 0.0
H1208 H 0.5655 0.22684 0.68329 0.0
H1209 H 0.58918 0.17102 0.6898 0.0
H1210 H 0.51219 0.19381 0.65725 0.0
H1211 H 0.53335 0.20298 0.63648 0.0
H1212 H 0.53968 0.22542 0.65637 0.0
H1213 H 0.53874 0.12176 0.66547 0.0
H1214 H 0.57223 0.13383 0.67053 0.0
H1215 H 0.56175 0.1364 0.6461 0.0
C1216 C 0.52482 0.62102 0.79349 0.0
C1217 C 0.53513 0.60657 0.80132 0.0
C1218 C 0.5065 0.62414 0.80402 0.0
C1219 C 0.49904 0.61335 0.8231 0.0
C1220 C 0.50883 0.59819 0.83082 0.0
C1221 C 0.5265 0.59475 0.81973 0.0
C1222 C 0.49592 0.63982 0.79507 0.0
C1223 C 0.50179 0.58678 0.85127 0.0
C1224 C 0.48073 0.64684 0.86169 0.0
C1225 C 0.45449 0.62967 0.86402 0.0
C1226 C 0.49527 0.64209 0.84799 0.0
C1227 C 0.48315 0.61998 0.8359 0.0
C1228 C 0.45636 0.60339 0.83729 0.0
C1229 C 0.44238 0.60822 0.85158 0.0
C1230 C 0.52388 0.66 0.84729 0.0
C1231 C 0.44264 0.58011 0.82418 0.0
H1232 H 0.53139 0.63037 0.77933 0.0
H1233 H 0.5345 0.58367 0.82583 0.0
H1234 H 0.47482 0.62999 0.79686 0.0
H1235 H 0.50409 0.65845 0.80287 0.0
H1236 H 0.50054 0.64352 0.7791 0.0
H1237 H 0.51017 0.57451 0.85471 0.0
H1238 H 0.50873 0.60232 0.86246 0.0
H1239 H 0.4807 0.57519 0.85277 0.0
H1240 H 0.49026 0.66336 0.87135 0.0
H1241 H 0.42205 0.59499 0.85323 0.0
H1242 H 0.52997 0.6669 0.83199 0.0
H1243 H 0.53393 0.64963 0.85179 0.0
H1244 H 0.5302 0.6768 0.85719 0.0
H1245 H 0.44851 0.58517 0.80854 0.0
H1246 H 0.4215 0.57126 0.82514 0.0
H1247 H 0.44792 0.56569 0.82861 0.0
C1248 C 0.90847 0.41072 0.93702 0.0
C1249 C 0.89727 0.37979 0.92382 0.0
C1250 C 0.89037 0.40863 0.95879 0.0
C1251 C 0.86077 0.37967 0.96422 0.0
C1252 C 0.84714 0.3525 0.94764 0.0
C1253 C 0.86386 0.35266 0.92553 0.0
C1254 C 0.90037 0.43081 0.97265 0.0
C1255 C 0.82169 0.3299 0.95208 0.0
C1256 C 0.83541 0.36788 0.01657 0.0
C1257 C 0.82044 0.37968 0.01648 0.0
C1258 C 0.84861 0.36764 -0.00042 0.0
C1259 C 0.84635 0.37898 0.982 0.0
C1260 C 0.83068 0.39024 0.98163 0.0
C1261 C 0.81815 0.39076 0.99896 0.0
C1262 C 0.86551 0.35587 0.00063 0.0
C1263 C 0.82707 0.40161 0.96289 0.0
H1264 H 0.92713 0.42717 0.93438 0.0
H1265 H 0.85701 0.33578 0.91636 0.0
H1266 H 0.88986 0.44126 0.97019 0.0
H1267 H 0.89712 0.42398 0.98816 0.0
H1268 H 0.92106 0.44399 0.97002 0.0
H1269 H 0.81474 0.31647 0.93935 0.0
H1270 H 0.82341 0.32005 0.96531 0.0
H1271 H 0.80784 0.33633 0.9556 0.0
H1272 H 0.83739 0.35943 0.0301 0.0
H1273 H 0.80642 0.3997 0.99875 0.0
H1274 H 0.88553 0.37054 0.99714 0.0
H1275 H 0.85919 0.34036 0.98949 0.0
H1276 H 0.8652 0.34784 0.01546 0.0
H1277 H 0.84554 0.41834 0.95847 0.0
H1278 H 0.81271 0.40786 0.96465 0.0
H1279 H 0.82083 0.38741 0.95067 0.0
C1280 C 0.4598 0.90108 0.12539 0.0
C1281 C 0.44254 0.90962 0.12119 0.0
C1282 C 0.45657 0.88602 0.14211 0.0
C1283 C 0.43584 0.87977 0.15506 0.0
C1284 C 0.41862 0.8887 0.15105 0.0
C1285 C 0.42208 0.90334 0.1341 0.0
C1286 C 0.47511 0.87656 0.14579 0.0
C1287 C 0.39649 0.88274 0.16465 0.0
C1288 C 0.40999 0.82273 0.18943 0.0
C1289 C 0.42154 0.83438 0.20742 0.0
C1290 C 0.41535 0.83715 0.17205 0.0
C1291 C 0.43203 0.86392 0.17287 0.0
C1292 C 0.44391 0.87572 0.19099 0.0
C1293 C 0.4388 0.86073 0.20801 0.0
C1294 C 0.40284 0.82381 0.15288 0.0
C1295 C 0.46127 0.90429 0.19256 0.0
H1296 H 0.47566 0.90596 0.11545 0.0
H1297 H 0.40867 0.90988 0.13091 0.0
H1298 H 0.48469 0.8836 0.16033 0.0
H1299 H 0.4646 0.85538 0.14637 0.0
H1300 H 0.49003 0.88285 0.13416 0.0
H1301 H 0.38531 0.89179 0.15972 0.0
H1302 H 0.38342 0.86179 0.16537 0.0
H1303 H 0.40367 0.88945 0.17987 0.0
H1304 H 0.3968 0.80231 0.18894 0.0
H1305 H 0.44759 0.8698 0.22196 0.0
H1306 H 0.41754 0.82889 0.14124 0.0
H1307 H 0.38953 0.83025 0.1477 0.0
H1308 H 0.39194 0.80271 0.15445 0.0
H1309 H 0.47721 0.91082 0.18183 0.0
H1310 H 0.46948 0.91041 0.20764 0.0
H1311 H 0.45039 0.91405 0.18877 0.0
C1312 C 0.66531 0.54995 0.29778 0.0
C1313 C 0.66847 0.54509 0.27798 0.0
C1314 C 0.65906 0.53127 0.31236 0.0
C1315 C 0.65654 0.50742 0.3071 0.0
C1316 C 0.65907 0.50219 0.28708 0.0
C1317 C 0.665 0.52109 0.27277 0.0
C1318 C 0.65629 0.5375 0.33354 0.0
C1319 C 0.65689 0.47715 0.28091 0.0
C1320 C 0.67355 0.47515 0.34758 0.0
C1321 C 0.64937 0.45617 0.35405 0.0
C1322 C 0.67607 0.49146 0.332 0.0
C1323 C 0.65385 0.48905 0.32281 0.0
C1324 C 0.62936 0.46966 0.32902 0.0
C1325 C 0.6274 0.45327 0.34448 0.0
C1326 C 0.70257 0.5116 0.32559 0.0
C1327 C 0.60525 0.46673 0.31971 0.0
H1328 H 0.66843 0.5686 0.30198 0.0
H1329 H 0.66785 0.51746 0.25753 0.0
H1330 H 0.6384 0.52191 0.34002 0.0
H1331 H 0.6725 0.53916 0.34249 0.0
H1332 H 0.65603 0.55569 0.33484 0.0
H1333 H 0.65703 0.47517 0.26457 0.0
H1334 H 0.67316 0.47577 0.28721 0.0
H1335 H 0.63903 0.46088 0.28679 0.0
H1336 H 0.69061 0.47735 0.35481 0.0
H1337 H 0.60866 0.43873 0.3495 0.0
H1338 H 0.70524 0.53089 0.32832 0.0
H1339 H 0.70493 0.50992 0.30948 0.0
H1340 H 0.71788 0.51009 0.33358 0.0
H1341 H 0.60409 0.48422 0.32246 0.0
H1342 H 0.58771 0.45005 0.32565 0.0
H1343 H 0.60567 0.4645 0.30345 0.0
C1344 C 0.36376 0.9027 0.36111 0.0
C1345 C 0.359 0.89429 0.38078 0.0
C1346 C 0.37165 0.89087 0.34712 0.0
C1347 C 0.37426 0.86975 0.35283 0.0
C1348 C 0.36998 0.86151 0.37274 0.0
C1349 C 0.3624 0.87388 0.38646 0.0
C1350 C 0.37625 0.90035 0.32606 0.0
C1351 C 0.37226 0.83889 0.37937 0.0
C1352 C 0.36381 0.8218 0.31239 0.0
C1353 C 0.38895 0.82795 0.30792 0.0
C1354 C 0.35881 0.83497 0.32722 0.0
C1355 C 0.37947 0.85506 0.33766 0.0
C1356 C 0.40489 0.8612 0.33339 0.0
C1357 C 0.40933 0.84742 0.31866 0.0
C1358 C 0.33139 0.82755 0.33155 0.0
C1359 C 0.4274 0.88269 0.34406 0.0
H1360 H 0.36071 0.91815 0.35655 0.0
H1361 H 0.35831 0.86707 0.40157 0.0
H1362 H 0.39506 0.90357 0.32084 0.0
H1363 H 0.36136 0.88568 0.31625 0.0
H1364 H 0.37577 0.91839 0.32444 0.0
H1365 H 0.37008 0.83605 0.39563 0.0
H1366 H 0.35728 0.82132 0.37196 0.0
H1367 H 0.39108 0.84137 0.375 0.0
H1368 H 0.34796 0.80669 0.30423 0.0
H1369 H 0.42882 0.85239 0.31519 0.0
H1370 H 0.32836 0.84385 0.32837 0.0
H1371 H 0.3272 0.8229 0.34746 0.0
H1372 H 0.31749 0.81085 0.32264 0.0
H1373 H 0.42782 0.90097 0.34123 0.0
H1374 H 0.44595 0.8847 0.33932 0.0
H1375 H 0.42541 0.87945 0.36026 0.0
C1376 C 0.58683 0.45552 0.54256 0.0
C1377 C 0.56915 0.46382 0.53946 0.0
C1378 C 0.59857 0.45054 0.52661 0.0
C1379 C 0.59271 0.45425 0.50705 0.0
C1380 C 0.57544 0.46333 0.5038 0.0
C1381 C 0.56352 0.46759 0.52002 0.0
C1382 C 0.61642 0.44033 0.53067 0.0
C1383 C 0.569 0.46789 0.48316 0.0
C1384 C 0.63629 0.45768 0.4651 0.0
C1385 C 0.62177 0.43346 0.45645 0.0
C1386 C 0.62711 0.46479 0.48162 0.0
C1387 C 0.60323 0.44698 0.48994 0.0
C1388 C 0.58895 0.4222 0.48164 0.0
C1389 C 0.59823 0.41587 0.46483 0.0
C1390 C 0.64257 0.49156 0.4898 0.0
C1391 C 0.56373 0.40242 0.49039 0.0
H1392 H 0.59089 0.45221 0.55755 0.0
H1393 H 0.54956 0.47355 0.51742 0.0
H1394 H 0.60811 0.42073 0.5245 0.0
H1395 H 0.63506 0.45229 0.52325 0.0
H1396 H 0.61994 0.43968 0.54674 0.0
H1397 H 0.55717 0.47726 0.48323 0.0
H1398 H 0.5868 0.48001 0.47474 0.0
H1399 H 0.5583 0.44943 0.47515 0.0
H1400 H 0.6544 0.47137 0.45853 0.0
H1401 H 0.58707 0.39706 0.45824 0.0
H1402 H 0.64675 0.49098 0.50571 0.0
H1403 H 0.63132 0.50147 0.48864 0.0
H1404 H 0.66096 0.50298 0.48184 0.0
H1405 H 0.56616 0.39993 0.50636 0.0
H1406 H 0.5558 0.38358 0.4829 0.0
H1407 H 0.54955 0.40893 0.48917 0.0
C1408 C 0.12995 0.47824 0.6976 0.0
C1409 C 0.13708 0.48589 0.7173 0.0
C1410 C 0.14174 0.49539 0.68197 0.0
C1411 C 0.16153 0.52061 0.68613 0.0
C1412 C 0.16842 0.5286 0.706 0.0
C1413 C 0.15611 0.51113 0.72134 0.0
C1414 C 0.13374 0.4862 0.66098 0.0
C1415 C 0.18963 0.55523 0.71102 0.0
C1416 C 0.21156 0.55228 0.64613 0.0
C1417 C 0.20455 0.56901 0.63758 0.0
C1418 C 0.19799 0.53684 0.66218 0.0
C1419 C 0.17659 0.53781 0.66967 0.0
C1420 C 0.16949 0.55479 0.66121 0.0
C1421 C 0.18372 0.57039 0.64535 0.0
C1422 C 0.20645 0.51929 0.671 0.0
C1423 C 0.14656 0.55605 0.66865 0.0
H1424 H 0.11559 0.45863 0.69437 0.0
H1425 H 0.16194 0.51695 0.73653 0.0
H1426 H 0.12993 0.49979 0.65271 0.0
H1427 H 0.14951 0.48531 0.65328 0.0
H1428 H 0.11635 0.46697 0.66034 0.0
H1429 H 0.19123 0.55908 0.72719 0.0
H1430 H 0.20815 0.55781 0.70566 0.0
H1431 H 0.18641 0.56966 0.70346 0.0
H1432 H 0.22777 0.55128 0.64029 0.0
H1433 H 0.17813 0.58318 0.63871 0.0
H1434 H 0.19103 0.49913 0.66925 0.0
H1435 H 0.21007 0.5231 0.68709 0.0
H1436 H 0.2241 0.52158 0.66395 0.0
H1437 H 0.129 0.53717 0.66671 0.0
H1438 H 0.14388 0.57065 0.66076 0.0
H1439 H 0.14865 0.56053 0.6847 0.0
C1440 C 0.49871 0.10009 0.84218 0.0
C1441 C 0.50942 0.08828 0.85348 0.0
C1442 C 0.51426 0.12182 0.83085 0.0
C1443 C 0.54119 0.13265 0.83153 0.0
C1444 C 0.55217 0.12227 0.84437 0.0
C1445 C 0.53614 0.1001 0.85509 0.0
C1446 C 0.50176 0.13213 0.81717 0.0
C1447 C 0.58082 0.1338 0.84606 0.0
C1448 C 0.5781 0.16369 0.78485 0.0
C1449 C 0.58668 0.18957 0.78841 0.0
C1450 C 0.56321 0.14507 0.79877 0.0
C1451 C 0.55754 0.1526 0.81704 0.0
C1452 C 0.56695 0.17884 0.82105 0.0
C1453 C 0.58099 0.19704 0.80645 0.0
C1454 C 0.55292 0.11726 0.79364 0.0
C1455 C 0.5621 0.18761 0.84066 0.0
H1456 H 0.47814 0.09184 0.84153 0.0
H1457 H 0.54454 0.09159 0.86435 0.0
H1458 H 0.51035 0.15303 0.81921 0.0
H1459 H 0.50513 0.1288 0.80159 0.0
H1460 H 0.48078 0.12291 0.81958 0.0
H1461 H 0.58631 0.12601 0.85884 0.0
H1462 H 0.58826 0.12968 0.83237 0.0
H1463 H 0.5903 0.15486 0.84764 0.0
H1464 H 0.58218 0.15787 0.77077 0.0
H1465 H 0.5877 0.2171 0.80917 0.0
H1466 H 0.5317 0.10673 0.79453 0.0
H1467 H 0.56004 0.10846 0.80444 0.0
H1468 H 0.55855 0.11463 0.77856 0.0
H1469 H 0.54131 0.18029 0.84252 0.0
H1470 H 0.57235 0.20876 0.84199 0.0
H1471 H 0.56826 0.17976 0.85296 0.0
C1472 C 0.49958 0.56557 0.0239 0.0
C1473 C 0.51129 0.58409 0.04733 0.0
C1474 C 0.48764 0.57906 0.006 0.0
C1475 C 0.48282 0.60532 0.01265 0.0
C1476 C 0.48796 0.61798 0.03753 0.0
C1477 C 0.5 0.60583 0.0565 0.0
C1478 C 0.48225 0.56878 0.9854 0.0
C1479 C 0.4816 0.63818 0.04256 0.0
C1480 C 0.47591 0.64224 0.97034 0.0
C1481 C 0.44961 0.62755 0.96625 0.0
C1482 C 0.48699 0.63569 0.98589 0.0
C1483 C 0.47132 0.61433 0.99778 0.0
C1484 C 0.4446 0.60033 0.99443 0.0
C1485 C 0.43408 0.60691 0.97854 0.0
C1486 C 0.51559 0.65086 0.98899 0.0
C1487 C 0.42719 0.57807 0.0074 0.0
H1488 H 0.5048 0.55152 0.01961 0.0
H1489 H 0.50489 0.61437 0.0711 0.0
H1490 H 0.46128 0.5583 0.98281 0.0
H1491 H 0.49094 0.58484 0.97476 0.0
H1492 H 0.4899 0.55568 0.98301 0.0
H1493 H 0.48416 0.64249 0.05864 0.0
H1494 H 0.49422 0.65569 0.03405 0.0
H1495 H 0.46156 0.63172 0.03808 0.0
H1496 H 0.48804 0.65817 0.96085 0.0
H1497 H 0.4137 0.59567 0.97558 0.0
H1498 H 0.52395 0.63851 0.98588 0.0
H1499 H 0.52002 0.65724 0.00463 0.0
H1500 H 0.52494 0.66788 0.97926 0.0
H1501 H 0.4311 0.56217 0.00506 0.0
H1502 H 0.40663 0.57095 0.00421 0.0
H1503 H 0.43102 0.58372 0.02323 0.0
C1504 C 0.94334 0.47432 0.18356 0.0
C1505 C 0.92968 0.48146 0.20575 0.0
C1506 C 0.92033 0.45656 0.16443 0.0
C1507 C 0.88813 0.45135 0.16572 0.0
C1508 C 0.87811 0.46497 0.18514 0.0
C1509 C 0.89966 0.48299 0.20494 0.0
C1510 C 0.92802 0.44635 0.14731 0.0
C1511 C 0.85178 0.46132 0.18478 0.0
C1512 C 0.85315 0.44228 0.1174 0.0
C1513 C 0.83599 0.41584 0.1172 0.0
C1514 C 0.87047 0.45395 0.13306 0.0
C1515 C 0.8706 0.4389 0.14894 0.0
C1516 C 0.85352 0.41226 0.14889 0.0
C1517 C 0.83638 0.40098 0.13298 0.0
C1518 C 0.88859 0.48244 0.13263 0.0
C1519 C 0.85325 0.3958 0.1657 0.0
H1520 H 0.96208 0.47604 0.18379 0.0
H1521 H 0.89321 0.48934 0.21752 0.0
H1522 H 0.91473 0.42547 0.14605 0.0
H1523 H 0.9263 0.45524 0.13349 0.0
H1524 H 0.94798 0.45036 0.14915 0.0
H1525 H 0.84825 0.4696 0.19826 0.0
H1526 H 0.84947 0.47061 0.17143 0.0
H1527 H 0.83762 0.44063 0.18373 0.0
H1528 H 0.85313 0.45396 0.10528 0.0
H1529 H 0.82325 0.38055 0.13296 0.0
H1530 H 0.90866 0.48653 0.13372 0.0
H1531 H 0.88503 0.49154 0.14558 0.0
H1532 H 0.8865 0.49137 0.11893 0.0
H1533 H 0.87261 0.39814 0.1676 0.0
H1534 H 0.83923 0.37525 0.16325 0.0
H1535 H 0.84839 0.40207 0.17968 0.0
loop_
_geom_bond_atom_site_label_1
_geom_bond_atom_site_label_2
_geom_bond_distance
_geom_bond_site_symmetry_2
_ccdc_geom_bond_type
C0 C1 1.560 . S
C0 H61 0.959 . S
C0 H62 0.959 . S
C0 H63 0.960 . S
C1 C0 1.560 . S
C1 O56 1.426 . S
C1 H60 0.980 . S
C2 C3 1.407 . S
C2 C7 1.418 . S
C2 O56 1.334 . S
C3 C2 1.407 . S
C3 C4 1.360 . S
C3 H64 0.929 . S
C4 C3 1.360 . S
C4 C5 1.401 . S
C4 C8 1.527 . S
C5 C4 1.401 . S
C5 C6 1.405 . S
C5 C38 1.587 . S
C6 C5 1.405 . S
C6 C7 1.332 . S
C6 C9 1.496 . S
C7 C2 1.418 . S
C7 C6 1.332 . S
C7 H65 0.929 . S
C8 C4 1.527 . S
C8 H66 0.959 . S
C8 H67 0.961 . S
C8 H68 0.961 . S
C9 C6 1.496 . S
C9 H69 0.960 . S
C9 H70 0.960 . S
C9 H71 0.961 . S
C10 C11 1.517 . S
C10 H73 0.961 . S
C10 H74 0.960 . S
C10 H75 0.959 . S
C11 C10 1.517 . S
C11 O59 1.468 . S
C11 H72 0.980 . S
C12 C13 1.349 . S
C12 C17 1.367 . S
C12 O59 1.408 . S
C13 C12 1.349 . S
C13 C14 1.407 . S
C13 H76 0.930 . S
C14 C13 1.407 . S
C14 C15 1.466 . S
C14 C18 1.536 1_655 S
C15 C14 1.466 . S
C15 C16 1.380 . S
C15 C40 1.543 1_655 S
C16 C15 1.380 . S
C16 C17 1.364 . S
C16 C19 1.458 . S
C17 C12 1.367 . S
C17 C16 1.364 . S
C17 H77 0.931 . S
C18 C14 1.536 1_455 S
C18 H78 0.960 . S
C18 H79 0.961 . S
C18 H80 0.958 1_455 S
C19 C16 1.458 . S
C19 H81 0.957 . S
C19 H82 0.950 1_655 S
C19 H83 0.965 . S
C20 C21 1.309 . S
C20 C25 1.304 . S
C20 O58 1.435 . S
C21 C20 1.309 . S
C21 C22 1.476 . S
C21 H85 0.930 . S
C22 C21 1.476 . S
C22 C23 1.400 . S
C22 C26 1.567 . S
C23 C22 1.400 . S
C23 C24 1.373 . S
C23 C45 1.432 . S
C24 C23 1.373 . S
C24 C25 1.339 . S
C24 C27 1.530 . S
C25 C20 1.304 . S
C25 C24 1.339 . S
C25 H86 0.930 . S
C26 C22 1.567 . S
C26 H87 0.961 . S
C26 H88 0.960 . S
C26 H89 0.958 . S
C27 C24 1.530 . S
C27 H90 0.961 . S
C27 H91 0.960 . S
C27 H92 0.960 . S
C28 C29 1.530 . S
C28 H94 0.961 . S
C28 H95 0.961 . S
C28 H96 0.959 . S
C29 C28 1.530 . S
C29 O57 1.412 . S
C29 H93 0.980 . S
C30 C31 1.288 . S
C30 C35 1.377 . S
C30 O57 1.393 . S
C31 C30 1.288 . S
C31 C32 1.369 . S
C31 H97 0.932 . S
C32 C31 1.369 . S
C32 C33 1.398 . S
C32 C36 1.527 . S
C33 C32 1.398 . S
C33 C34 1.380 . S
C33 C47 1.497 . S
C34 C33 1.380 . S
C34 C35 1.383 . S
C34 C37 1.603 . S
C35 C30 1.377 . S
C35 C34 1.383 . S
C35 H98 0.929 . S
C36 C32 1.527 . S
C36 H99 0.961 . S
C36 H100 0.959 . S
C36 H101 0.959 . S
C37 C34 1.603 . S
C37 H102 0.960 . S
C37 H103 0.962 . S
C37 H104 0.961 . S
C38 C5 1.587 . S
C38 C39 1.360 . S
C38 C51 1.412 . S
C39 C38 1.360 . S
C39 C40 1.365 . S
C39 H105 0.929 . S
C40 C15 1.543 1_455 S
C40 C39 1.365 . S
C40 C41 1.404 . S
C41 C40 1.404 . S
C41 C42 1.395 1_455 S
C41 C52 1.451 . S
C42 C41 1.395 1_655 S
C42 C43 1.322 . S
C42 H106 0.930 . S
C43 C42 1.322 . S
C43 C44 1.459 . S
C43 H107 0.929 . S
C44 C43 1.459 . S
C44 C45 1.445 . S
C44 C53 1.395 1_655 S
C45 C23 1.432 . S
C45 C44 1.445 . S
C45 C46 1.370 . S
C46 C45 1.370 . S
C46 C47 1.438 1_655 S
C46 H108 0.930 . S
C47 C33 1.497 . S
C47 C46 1.438 1_455 S
C47 C48 1.360 . S
C48 C47 1.360 . S
C48 C49 1.401 . S
C48 C53 1.446 . S
C49 C48 1.401 . S
C49 C50 1.347 . S
C49 H109 0.929 . S
C50 C49 1.347 . S
C50 C51 1.455 . S
C50 H110 0.930 . S
C51 C38 1.412 . S
C51 C50 1.455 . S
C51 C52 1.331 . S
C52 C41 1.451 . S
C52 C51 1.331 . S
C52 C53 1.497 . S
C53 C44 1.395 1_455 S
C53 C48 1.446 . S
C53 C52 1.497 . S
C54 C55 1.582 . S
C54 H111 0.962 . S
C54 H112 0.959 . S
C54 H113 0.958 . S
C55 C54 1.582 . S
C55 O58 1.458 . S
C55 H84 0.980 . S
O56 C1 1.426 . S
O56 C2 1.334 . S
O57 C29 1.412 . S
O57 C30 1.393 . S
O58 C20 1.435 . S
O58 C55 1.458 . S
O59 C11 1.468 . S
O59 C12 1.408 . S
H60 C1 0.980 . S
H61 C0 0.959 . S
H62 C0 0.959 . S
H63 C0 0.960 . S
H64 C3 0.929 . S
H65 C7 0.929 . S
H66 C8 0.959 . S
H67 C8 0.961 . S
H68 C8 0.961 . S
H69 C9 0.960 . S
H70 C9 0.960 . S
H71 C9 0.961 . S
H72 C11 0.980 . S
H73 C10 0.961 . S
H74 C10 0.960 . S
H75 C10 0.959 . S
H76 C13 0.930 . S
H77 C17 0.931 . S
H78 C18 0.960 . S
H79 C18 0.961 . S
H80 C18 0.958 1_655 S
H81 C19 0.957 . S
H82 C19 0.950 1_455 S
H83 C19 0.965 . S
H84 C55 0.980 . S
H85 C21 0.930 . S
H86 C25 0.930 . S
H87 C26 0.961 . S
H88 C26 0.960 . S
H89 C26 0.958 . S
H90 C27 0.961 . S
H91 C27 0.960 . S
H92 C27 0.960 . S
H93 C29 0.980 . S
H94 C28 0.961 . S
H95 C28 0.961 . S
H96 C28 0.959 . S
H97 C31 0.932 . S
H98 C35 0.929 . S
H99 C36 0.961 . S
H100 C36 0.959 . S
H101 C36 0.959 . S
H102 C37 0.960 . S
H103 C37 0.962 . S
H104 C37 0.961 . S
H105 C39 0.929 . S
H106 C42 0.930 . S
H107 C43 0.929 . S
H108 C46 0.930 . S
H109 C49 0.929 . S
H110 C50 0.930 . S
H111 C54 0.962 . S
H112 C54 0.959 . S
H113 C54 0.958 . S
C114 C115 1.560 . S
C114 H175 0.959 . S
C114 H176 0.959 . S
C114 H177 0.960 . S
C115 C114 1.560 . S
C115 O170 1.426 . S
C115 H174 0.980 . S
C116 C117 1.407 . S
C116 C121 1.418 . S
C116 O170 1.334 . S
C117 C116 1.407 . S
C117 C118 1.360 . S
C117 H178 0.929 . S
C118 C117 1.360 . S
C118 C119 1.401 . S
C118 C122 1.527 . S
C119 C118 1.401 . S
C119 C120 1.405 . S
C119 C152 1.587 . S
C120 C119 1.405 . S
C120 C121 1.332 . S
C120 C123 1.496 . S
C121 C116 1.418 . S
C121 C120 1.332 . S
C121 H179 0.929 . S
C122 C118 1.527 . S
C122 H180 0.959 . S
C122 H181 0.961 . S
C122 H182 0.961 . S
C123 C120 1.496 . S
C123 H183 0.960 . S
C123 H184 0.960 . S
C123 H185 0.961 . S
C124 C125 1.517 . S
C124 H187 0.961 . S
C124 H188 0.960 . S
C124 H189 0.959 . S
C125 C124 1.517 . S
C125 O173 1.468 . S
C125 H186 0.980 . S
C126 C127 1.349 . S
C126 C131 1.367 . S
C126 O173 1.408 . S
C127 C126 1.349 . S
C127 C128 1.407 . S
C127 H190 0.930 . S
C128 C127 1.407 . S
C128 C129 1.449 . S
C128 C132 1.535 . S
C129 C128 1.449 . S
C129 C130 1.384 . S
C129 C154 1.553 . S
C130 C129 1.384 . S
C130 C131 1.364 . S
C130 C133 1.450 . S
C131 C126 1.367 . S
C131 C130 1.364 . S
C131 H191 0.931 . S
C132 C128 1.535 . S
C132 H192 0.959 . S
C132 H193 0.961 . S
C132 H194 0.959 . S
C133 C130 1.450 . S
C133 H195 0.960 . S
C133 H196 0.960 . S
C133 H197 0.960 . S
C134 C135 1.309 . S
C134 C139 1.304 . S
C134 O172 1.435 . S
C135 C134 1.309 . S
C135 C136 1.476 . S
C135 H199 0.930 . S
C136 C135 1.476 . S
C136 C137 1.400 . S
C136 C140 1.567 . S
C137 C136 1.400 . S
C137 C138 1.373 . S
C137 C159 1.432 . S
C138 C137 1.373 . S
C138 C139 1.339 . S
C138 C141 1.530 . S
C139 C134 1.304 . S
C139 C138 1.339 . S
C139 H200 0.930 . S
C140 C136 1.567 . S
C140 H201 0.961 . S
C140 H202 0.960 . S
C140 H203 0.958 . S
C141 C138 1.530 . S
C141 H204 0.961 . S
C141 H205 0.960 . S
C141 H206 0.960 . S
C142 C143 1.530 . S
C142 H208 0.961 . S
C142 H209 0.961 . S
C142 H210 0.959 . S
C143 C142 1.530 . S
C143 O171 1.412 . S
C143 H207 0.980 . S
C144 C145 1.288 . S
C144 C149 1.377 . S
C144 O171 1.393 . S
C145 C144 1.288 . S
C145 C146 1.369 . S
C145 H211 0.932 . S
C146 C145 1.369 . S
C146 C147 1.398 . S
C146 C150 1.527 1_565 S
C147 C146 1.398 . S
C147 C148 1.380 . S
C147 C161 1.497 1_565 S
C148 C147 1.380 . S
C148 C149 1.383 . S
C148 C151 1.603 . S
C149 C144 1.377 . S
C149 C148 1.383 . S
C149 H212 0.929 . S
C150 C146 1.527 1_545 S
C150 H213 0.961 . S
C150 H214 0.959 . S
C150 H215 0.959 1_545 S
C151 C148 1.603 . S
C151 H216 0.960 . S
C151 H217 0.962 . S
C151 H218 0.961 . S
C152 C119 1.587 . S
C152 C153 1.360 . S
C152 C165 1.412 . S
C153 C152 1.360 . S
C153 C154 1.365 1_565 S
C153 H219 0.929 . S
C154 C129 1.553 . S
C154 C153 1.365 1_545 S
C154 C155 1.404 . S
C155 C154 1.404 . S
C155 C156 1.395 . S
C155 C166 1.451 . S
C156 C155 1.395 . S
C156 C157 1.322 . S
C156 H220 0.930 . S
C157 C156 1.322 . S
C157 C158 1.459 . S
C157 H221 0.929 . S
C158 C157 1.459 . S
C158 C159 1.445 . S
C158 C167 1.395 . S
C159 C137 1.432 . S
C159 C158 1.445 . S
C159 C160 1.370 . S
C160 C159 1.370 . S
C160 C161 1.438 . S
C160 H222 0.930 . S
C161 C147 1.497 1_545 S
C161 C160 1.438 . S
C161 C162 1.342 1_545 S
C162 C161 1.342 1_565 S
C162 C163 1.439 . S
C162 C167 1.425 1_565 S
C163 C162 1.439 . S
C163 C164 1.347 . S
C163 H223 0.929 . S
C164 C163 1.347 . S
C164 C165 1.455 . S
C164 H224 0.930 . S
C165 C152 1.412 . S
C165 C164 1.455 . S
C165 C166 1.331 1_565 S
C166 C155 1.451 . S
C166 C165 1.331 1_545 S
C166 C167 1.497 . S
C167 C158 1.395 . S
C167 C162 1.425 1_545 S
C167 C166 1.497 . S
C168 C169 1.582 . S
C168 H225 0.962 . S
C168 H226 0.959 . S
C168 H227 0.958 . S
C169 C168 1.582 . S
C169 O172 1.458 . S
C169 H198 0.980 . S
O170 C115 1.426 . S
O170 C116 1.334 . S
O171 C143 1.412 . S
O171 C144 1.393 . S
O172 C134 1.435 . S
O172 C169 1.458 . S
O173 C125 1.468 . S
O173 C126 1.408 . S
H174 C115 0.980 . S
H175 C114 0.959 . S
H176 C114 0.959 . S
H177 C114 0.960 . S
H178 C117 0.929 . S
H179 C121 0.929 . S
H180 C122 0.959 . S
H181 C122 0.961 . S
H182 C122 0.961 . S
H183 C123 0.960 . S
H184 C123 0.960 . S
H185 C123 0.961 . S
H186 C125 0.980 . S
H187 C124 0.961 . S
H188 C124 0.960 . S
H189 C124 0.959 . S
H190 C127 0.930 . S
H191 C131 0.931 . S
H192 C132 0.959 . S
H193 C132 0.961 . S
H194 C132 0.959 . S
H195 C133 0.960 . S
H196 C133 0.960 . S
H197 C133 0.960 . S
H198 C169 0.980 . S
H199 C135 0.930 . S
H200 C139 0.930 . S
H201 C140 0.961 . S
H202 C140 0.960 . S
H203 C140 0.958 . S
H204 C141 0.961 . S
H205 C141 0.960 . S
H206 C141 0.960 . S
H207 C143 0.980 . S
H208 C142 0.961 . S
H209 C142 0.961 . S
H210 C142 0.959 . S
H211 C145 0.932 . S
H212 C149 0.929 . S
H213 C150 0.961 . S
H214 C150 0.959 . S
H215 C150 0.959 1_565 S
H216 C151 0.960 . S
H217 C151 0.962 . S
H218 C151 0.961 . S
H219 C153 0.929 . S
H220 C156 0.930 . S
H221 C157 0.929 . S
H222 C160 0.930 . S
H223 C163 0.929 . S
H224 C164 0.930 . S
H225 C168 0.962 . S
H226 C168 0.959 . S
H227 C168 0.958 . S
C228 C229 1.560 . S
C228 H289 0.959 . S
C228 H290 0.959 . S
C228 H291 0.960 . S
C229 C228 1.560 . S
C229 O284 1.426 . S
C229 H288 0.980 . S
C230 C231 1.407 . S
C230 C235 1.418 . S
C230 O284 1.334 . S
C231 C230 1.407 . S
C231 C232 1.360 . S
C231 H292 0.929 . S
C232 C231 1.360 . S
C232 C233 1.401 . S
C232 C236 1.527 . S
C233 C232 1.401 . S
C233 C234 1.405 . S
C233 C266 1.587 . S
C234 C233 1.405 . S
C234 C235 1.332 . S
C234 C237 1.496 . S
C235 C230 1.418 . S
C235 C234 1.332 . S
C235 H293 0.929 . S
C236 C232 1.527 . S
C236 H294 0.959 . S
C236 H295 0.961 . S
C236 H296 0.961 . S
C237 C234 1.496 . S
C237 H297 0.960 . S
C237 H298 0.960 . S
C237 H299 0.961 . S
C238 C239 1.517 . S
C238 H301 0.961 . S
C238 H302 0.960 . S
C238 H303 0.959 . S
C239 C238 1.517 . S
C239 O287 1.468 . S
C239 H300 0.980 . S
C240 C241 1.349 . S
C240 C245 1.367 . S
C240 O287 1.408 . S
C241 C240 1.349 . S
C241 C242 1.407 . S
C241 H304 0.930 . S
C242 C241 1.407 . S
C242 C243 1.449 . S
C242 C246 1.535 . S
C243 C242 1.449 . S
C243 C244 1.384 . S
C243 C268 1.553 . S
C244 C243 1.384 . S
C244 C245 1.364 . S
C244 C247 1.450 . S
C245 C240 1.367 . S
C245 C244 1.364 . S
C245 H305 0.931 . S
C246 C242 1.535 . S
C246 H306 0.959 . S
C246 H307 0.961 . S
C246 H308 0.959 . S
C247 C244 1.450 . S
C247 H309 0.960 . S
C247 H310 0.960 . S
C247 H311 0.960 . S
C248 C249 1.309 . S
C248 C253 1.304 . S
C248 O286 1.435 . S
C249 C248 1.309 . S
C249 C250 1.476 . S
C249 H313 0.930 . S
C250 C249 1.476 . S
C250 C251 1.400 . S
C250 C254 1.567 . S
C251 C250 1.400 . S
C251 C252 1.373 . S
C251 C273 1.432 . S
C252 C251 1.373 . S
C252 C253 1.339 . S
C252 C255 1.530 . S
C253 C248 1.304 . S
C253 C252 1.339 . S
C253 H314 0.930 . S
C254 C250 1.567 . S
C254 H315 0.961 . S
C254 H316 0.960 . S
C254 H317 0.958 . S
C255 C252 1.530 . S
C255 H318 0.961 . S
C255 H319 0.960 . S
C255 H320 0.960 . S
C256 C257 1.530 . S
C256 H322 0.961 . S
C256 H323 0.961 . S
C256 H324 0.959 . S
C257 C256 1.530 . S
C257 O285 1.412 . S
C257 H321 0.980 . S
C258 C259 1.288 . S
C258 C263 1.377 . S
C258 O285 1.393 . S
C259 C258 1.288 . S
C259 C260 1.369 . S
C259 H325 0.932 . S
C260 C259 1.369 . S
C260 C261 1.398 . S
C260 C264 1.527 . S
C261 C260 1.398 . S
C261 C262 1.380 . S
C261 C275 1.497 . S
C262 C261 1.380 . S
C262 C263 1.383 . S
C262 C265 1.603 . S
C263 C258 1.377 . S
C263 C262 1.383 . S
C263 H326 0.929 . S
C264 C260 1.527 . S
C264 H327 0.961 . S
C264 H328 0.959 . S
C264 H329 0.959 . S
C265 C262 1.603 . S
C265 H330 0.960 . S
C265 H331 0.962 . S
C265 H332 0.961 . S
C266 C233 1.587 . S
C266 C267 1.360 . S
C266 C279 1.412 . S
C267 C266 1.360 . S
C267 C268 1.365 . S
C267 H333 0.929 . S
C268 C243 1.553 . S
C268 C267 1.365 . S
C268 C269 1.404 . S
C269 C268 1.404 . S
C269 C270 1.395 . S
C269 C280 1.451 . S
C270 C269 1.395 . S
C270 C271 1.322 . S
C270 H334 0.930 . S
C271 C270 1.322 . S
C271 C272 1.459 . S
C271 H335 0.929 . S
C272 C271 1.459 . S
C272 C273 1.445 . S
C272 C281 1.395 . S
C273 C251 1.432 . S
C273 C272 1.445 . S
C273 C274 1.370 . S
C274 C273 1.370 . S
C274 C275 1.438 . S
C274 H336 0.930 . S
C275 C261 1.497 . S
C275 C274 1.438 . S
C275 C276 1.360 . S
C276 C275 1.360 . S
C276 C277 1.401 . S
C276 C281 1.446 . S
C277 C276 1.401 . S
C277 C278 1.347 . S
C277 H337 0.929 . S
C278 C277 1.347 . S
C278 C279 1.455 . S
C278 H338 0.930 . S
C279 C266 1.412 . S
C279 C278 1.455 . S
C279 C280 1.331 . S
C280 C269 1.451 . S
C280 C279 1.331 . S
C280 C281 1.497 . S
C281 C272 1.395 . S
C281 C276 1.446 . S
C281 C280 1.497 . S
C282 C283 1.582 . S
C282 H339 0.962 . S
C282 H340 0.959 . S
C282 H341 0.958 . S
C283 C282 1.582 . S
C283 O286 1.458 . S
C283 H312 0.980 . S
O284 C229 1.426 . S
O284 C230 1.334 . S
O285 C257 1.412 . S
O285 C258 1.393 . S
O286 C248 1.435 . S
O286 C283 1.458 . S
O287 C239 1.468 . S
O287 C240 1.408 . S
H288 C229 0.980 . S
H289 C228 0.959 . S
H290 C228 0.959 . S
H291 C228 0.960 . S
H292 C231 0.929 . S
H293 C235 0.929 . S
H294 C236 0.959 . S
H295 C236 0.961 . S
H296 C236 0.961 . S
H297 C237 0.960 . S
H298 C237 0.960 . S
H299 C237 0.961 . S
H300 C239 0.980 . S
H301 C238 0.961 . S
H302 C238 0.960 . S
H303 C238 0.959 . S
H304 C241 0.930 . S
H305 C245 0.931 . S
H306 C246 0.959 . S
H307 C246 0.961 . S
H308 C246 0.959 . S
H309 C247 0.960 . S
H310 C247 0.960 . S
H311 C247 0.960 . S
H312 C283 0.980 . S
H313 C249 0.930 . S
H314 C253 0.930 . S
H315 C254 0.961 . S
H316 C254 0.960 . S
H317 C254 0.958 . S
H318 C255 0.961 . S
H319 C255 0.960 . S
H320 C255 0.960 . S
H321 C257 0.980 . S
H322 C256 0.961 . S
H323 C256 0.961 . S
H324 C256 0.959 . S
H325 C259 0.932 . S
H326 C263 0.929 . S
H327 C264 0.961 . S
H328 C264 0.959 . S
H329 C264 0.959 . S
H330 C265 0.960 . S
H331 C265 0.962 . S
H332 C265 0.961 . S
H333 C267 0.929 . S
H334 C270 0.930 . S
H335 C271 0.929 . S
H336 C274 0.930 . S
H337 C277 0.929 . S
H338 C278 0.930 . S
H339 C282 0.962 . S
H340 C282 0.959 . S
H341 C282 0.958 . S
C342 C343 1.560 . S
C342 H403 0.959 . S
C342 H404 0.959 . S
C342 H405 0.960 . S
C343 C342 1.560 . S
C343 O398 1.426 . S
C343 H402 0.980 . S
C344 C345 1.407 . S
C344 C349 1.418 . S
C344 O398 1.334 . S
C345 C344 1.407 . S
C345 C346 1.360 . S
C345 H406 0.929 . S
C346 C345 1.360 . S
C346 C347 1.401 . S
C346 C350 1.527 . S
C347 C346 1.401 . S
C347 C348 1.405 . S
C347 C380 1.587 . S
C348 C347 1.405 . S
C348 C349 1.332 . S
C348 C351 1.496 . S
C349 C344 1.418 . S
C349 C348 1.332 . S
C349 H407 0.929 . S
C350 C346 1.527 . S
C350 H408 0.959 . S
C350 H409 0.961 . S
C350 H410 0.961 . S
C351 C348 1.496 . S
C351 H411 0.960 . S
C351 H412 0.960 . S
C351 H413 0.961 . S
C352 C353 1.517 . S
C352 H415 0.961 . S
C352 H416 0.960 . S
C352 H417 0.959 . S
C353 C352 1.517 . S
C353 O401 1.468 . S
C353 H414 0.980 . S
C354 C355 1.349 . S
C354 C359 1.367 . S
C354 O401 1.408 . S
C355 C354 1.349 . S
C355 C356 1.407 . S
C355 H418 0.930 . S
C356 C355 1.407 . S
C356 C357 1.449 . S
C356 C360 1.570 . S
C357 C356 1.449 . S
C357 C358 1.384 . S
C357 C382 1.553 1_655 S
C358 C357 1.384 . S
C358 C359 1.364 . S
C358 C361 1.450 . S
C359 C354 1.367 . S
C359 C358 1.364 . S
C359 H419 0.931 . S
C360 C356 1.570 . S
C360 H420 0.931 1_655 S
C360 H421 0.937 1_655 S
C360 H422 0.980 . S
C361 C358 1.450 . S
C361 H423 0.960 . S
C361 H424 0.960 1_655 S
C361 H425 0.960 . S
C362 C363 1.309 . S
C362 C367 1.304 . S
C362 O400 1.435 . S
C363 C362 1.309 . S
C363 C364 1.476 . S
C363 H427 0.930 . S
C364 C363 1.476 . S
C364 C365 1.400 . S
C364 C368 1.567 . S
C365 C364 1.400 . S
C365 C366 1.373 . S
C365 C387 1.432 . S
C366 C365 1.373 . S
C366 C367 1.339 . S
C366 C369 1.530 . S
C367 C362 1.304 . S
C367 C366 1.339 . S
C367 H428 0.930 . S
C368 C364 1.567 . S
C368 H429 0.961 . S
C368 H430 0.960 . S
C368 H431 0.958 . S
C369 C366 1.530 . S
C369 H432 0.961 . S
C369 H433 0.960 . S
C369 H434 0.960 . S
C370 C371 1.530 . S
C370 H436 0.961 . S
C370 H437 0.961 . S
C370 H438 0.959 . S
C371 C370 1.530 . S
C371 O399 1.412 . S
C371 H435 0.980 . S
C372 C373 1.288 . S
C372 C377 1.377 . S
C372 O399 1.393 . S
C373 C372 1.288 . S
C373 C374 1.369 . S
C373 H439 0.932 . S
C374 C373 1.369 . S
C374 C375 1.398 . S
C374 C378 1.527 . S
C375 C374 1.398 . S
C375 C376 1.380 . S
C375 C389 1.497 . S
C376 C375 1.380 . S
C376 C377 1.383 . S
C376 C379 1.603 . S
C377 C372 1.377 . S
C377 C376 1.383 . S
C377 H440 0.929 . S
C378 C374 1.527 . S
C378 H441 0.961 . S
C378 H442 0.959 . S
C378 H443 0.959 . S
C379 C376 1.603 . S
C379 H444 0.960 . S
C379 H445 0.962 . S
C379 H446 0.961 . S
C380 C347 1.587 . S
C380 C381 1.360 . S
C380 C393 1.412 . S
C381 C380 1.360 . S
C381 C382 1.365 . S
C381 H447 0.929 . S
C382 C357 1.553 1_455 S
C382 C381 1.365 . S
C382 C383 1.404 . S
C383 C382 1.404 . S
C383 C384 1.395 1_455 S
C383 C394 1.451 . S
C384 C383 1.395 1_655 S
C384 C385 1.322 . S
C384 H448 0.930 . S
C385 C384 1.322 . S
C385 C386 1.459 . S
C385 H449 0.929 . S
C386 C385 1.459 . S
C386 C387 1.445 . S
C386 C395 1.395 1_655 S
C387 C365 1.432 . S
C387 C386 1.445 . S
C387 C388 1.370 . S
C388 C387 1.370 . S
C388 C389 1.438 1_655 S
C388 H450 0.930 . S
C389 C375 1.497 . S
C389 C388 1.438 1_455 S
C389 C390 1.360 . S
C390 C389 1.360 . S
C390 C391 1.401 . S
C390 C395 1.446 . S
C391 C390 1.401 . S
C391 C392 1.347 . S
C391 H451 0.929 . S
C392 C391 1.347 . S
C392 C393 1.455 . S
C392 H452 0.930 . S
C393 C380 1.412 . S
C393 C392 1.455 . S
C393 C394 1.331 . S
C394 C383 1.451 . S
C394 C393 1.331 . S
C394 C395 1.497 . S
C395 C386 1.395 1_455 S
C395 C390 1.446 . S
C395 C394 1.497 . S
C396 C397 1.582 . S
C396 H453 0.962 . S
C396 H454 0.959 . S
C396 H455 0.958 . S
C397 C396 1.582 . S
C397 O400 1.458 . S
C397 H426 0.980 . S
O398 C343 1.426 . S
O398 C344 1.334 . S
O399 C371 1.412 . S
O399 C372 1.393 . S
O400 C362 1.435 . S
O400 C397 1.458 . S
O401 C353 1.468 . S
O401 C354 1.408 . S
H402 C343 0.980 . S
H403 C342 0.959 . S
H404 C342 0.959 . S
H405 C342 0.960 . S
H406 C345 0.929 . S
H407 C349 0.929 . S
H408 C350 0.959 . S
H409 C350 0.961 . S
H410 C350 0.961 . S
H411 C351 0.960 . S
H412 C351 0.960 . S
H413 C351 0.961 . S
H414 C353 0.980 . S
H415 C352 0.961 . S
H416 C352 0.960 . S
H417 C352 0.959 . S
H418 C355 0.930 . S
H419 C359 0.931 . S
H420 C360 0.931 1_455 S
H421 C360 0.937 1_455 S
H422 C360 0.980 . S
H423 C361 0.960 . S
H424 C361 0.960 1_455 S
H425 C361 0.960 . S
H426 C397 0.980 . S
H427 C363 0.930 . S
H428 C367 0.930 . S
H429 C368 0.961 . S
H430 C368 0.960 . S
H431 C368 0.958 . S
H432 C369 0.961 . S
H433 C369 0.960 . S
H434 C369 0.960 . S
H435 C371 0.980 . S
H436 C370 0.961 . S
H437 C370 0.961 . S
H438 C370 0.959 . S
H439 C373 0.932 . S
H440 C377 0.929 . S
H441 C378 0.961 . S
H442 C378 0.959 . S
H443 C378 0.959 . S
H444 C379 0.960 . S
H445 C379 0.962 . S
H446 C379 0.961 . S
H447 C381 0.929 . S
H448 C384 0.930 . S
H449 C385 0.929 . S
H450 C388 0.930 . S
H451 C391 0.929 . S
H452 C392 0.930 . S
H453 C396 0.962 . S
H454 C396 0.959 . S
H455 C396 0.958 . S
C456 C457 1.560 . S
C456 H517 0.959 . S
C456 H518 0.959 . S
C456 H519 0.960 . S
C457 C456 1.560 . S
C457 O512 1.426 . S
C457 H516 0.980 . S
C458 C459 1.407 . S
C458 C463 1.418 . S
C458 O512 1.334 . S
C459 C458 1.407 . S
C459 C460 1.360 . S
C459 H520 0.929 . S
C460 C459 1.360 . S
C460 C461 1.401 . S
C460 C464 1.527 . S
C461 C460 1.401 . S
C461 C462 1.405 . S
C461 C494 1.587 . S
C462 C461 1.405 . S
C462 C463 1.332 . S
C462 C465 1.496 . S
C463 C458 1.418 . S
C463 C462 1.332 . S
C463 H521 0.929 . S
C464 C460 1.527 . S
C464 H522 0.959 . S
C464 H523 0.961 . S
C464 H524 0.961 . S
C465 C462 1.496 . S
C465 H525 0.960 . S
C465 H526 0.960 . S
C465 H527 0.961 . S
C466 C467 1.517 . S
C466 H529 0.961 . S
C466 H530 0.960 . S
C466 H531 0.959 . S
C467 C466 1.517 . S
C467 O515 1.468 . S
C467 H528 0.980 . S
C468 C469 1.349 . S
C468 C473 1.367 . S
C468 O515 1.408 . S
C469 C468 1.349 . S
C469 C470 1.407 . S
C469 H532 0.930 . S
C470 C469 1.407 . S
C470 C471 1.449 . S
C470 C474 1.535 . S
C471 C470 1.449 . S
C471 C472 1.384 . S
C471 C496 1.553 . S
C472 C471 1.384 . S
C472 C473 1.364 . S
C472 C475 1.450 . S
C473 C468 1.367 . S
C473 C472 1.364 . S
C473 H533 0.931 . S
C474 C470 1.535 . S
C474 H534 0.959 . S
C474 H535 0.961 . S
C474 H536 0.959 . S
C475 C472 1.450 . S
C475 H537 0.960 . S
C475 H538 0.960 . S
C475 H539 0.960 . S
C476 C477 1.309 . S
C476 C481 1.304 . S
C476 O514 1.435 . S
C477 C476 1.309 . S
C477 C478 1.476 . S
C477 H541 0.930 . S
C478 C477 1.476 . S
C478 C479 1.400 . S
C478 C482 1.567 . S
C479 C478 1.400 . S
C479 C480 1.373 . S
C479 C501 1.432 . S
C480 C479 1.373 . S
C480 C481 1.339 . S
C480 C483 1.530 . S
C481 C476 1.304 . S
C481 C480 1.339 . S
C481 H542 0.930 . S
C482 C478 1.567 . S
C482 H543 0.961 . S
C482 H544 0.960 . S
C482 H545 0.958 . S
C483 C480 1.530 . S
C483 H546 0.961 . S
C483 H547 0.960 . S
C483 H548 0.960 . S
C484 C485 1.530 . S
C484 H550 0.961 . S
C484 H551 0.961 . S
C484 H552 0.959 . S
C485 C484 1.530 . S
C485 O513 1.412 . S
C485 H549 0.980 . S
C486 C487 1.288 . S
C486 C491 1.377 . S
C486 O513 1.393 . S
C487 C486 1.288 . S
C487 C488 1.369 . S
C487 H553 0.932 . S
C488 C487 1.369 . S
C488 C489 1.398 . S
C488 C492 1.527 1_565 S
C489 C488 1.398 . S
C489 C490 1.380 . S
C489 C503 1.497 1_565 S
C490 C489 1.380 . S
C490 C491 1.383 . S
C490 C493 1.603 . S
C491 C486 1.377 . S
C491 C490 1.383 . S
C491 H554 0.929 . S
C492 C488 1.527 1_545 S
C492 H555 0.961 . S
C492 H556 0.959 . S
C492 H557 0.942 1_545 S
C493 C490 1.603 . S
C493 H558 0.960 . S
C493 H559 0.962 . S
C493 H560 0.961 . S
C494 C461 1.587 . S
C494 C495 1.360 . S
C494 C507 1.412 . S
C495 C494 1.360 . S
C495 C496 1.365 1_565 S
C495 H561 0.929 . S
C496 C471 1.553 . S
C496 C495 1.365 1_545 S
C496 C497 1.404 . S
C497 C496 1.404 . S
C497 C498 1.395 . S
C497 C508 1.451 . S
C498 C497 1.395 . S
C498 C499 1.322 . S
C498 H562 0.930 . S
C499 C498 1.322 . S
C499 C500 1.459 1_556 S
C499 H563 0.929 . S
C500 C499 1.459 1_554 S
C500 C501 1.445 . S
C500 C509 1.398 . S
C501 C479 1.432 . S
C501 C500 1.445 . S
C501 C502 1.370 . S
C502 C501 1.370 . S
C502 C503 1.438 . S
C502 H564 0.930 . S
C503 C489 1.497 1_545 S
C503 C502 1.438 . S
C503 C504 1.353 1_545 S
C504 C503 1.353 1_565 S
C504 C505 1.422 . S
C504 C509 1.449 1_565 S
C505 C504 1.422 . S
C505 C506 1.347 1_554 S
C505 H565 0.929 . S
C506 C505 1.347 1_556 S
C506 C507 1.455 . S
C506 H566 0.930 . S
C507 C494 1.412 . S
C507 C506 1.455 . S
C507 C508 1.331 1_565 S
C508 C497 1.451 . S
C508 C507 1.331 1_545 S
C508 C509 1.476 1_556 S
C509 C500 1.398 . S
C509 C504 1.449 1_545 S
C509 C508 1.476 1_554 S
C510 C511 1.582 . S
C510 H567 0.962 . S
C510 H568 0.959 . S
C510 H569 0.958 . S
C511 C510 1.582 . S
C511 O514 1.458 . S
C511 H540 0.980 . S
O512 C457 1.426 . S
O512 C458 1.334 . S
O513 C485 1.412 . S
O513 C486 1.393 . S
O514 C476 1.435 . S
O514 C511 1.458 . S
O515 C467 1.468 . S
O515 C468 1.408 . S
H516 C457 0.980 . S
H517 C456 0.959 . S
H518 C456 0.959 . S
H519 C456 0.960 . S
H520 C459 0.929 . S
H521 C463 0.929 . S
H522 C464 0.959 . S
H523 C464 0.961 . S
H524 C464 0.961 . S
H525 C465 0.960 . S
H526 C465 0.960 . S
H527 C465 0.961 . S
H528 C467 0.980 . S
H529 C466 0.961 . S
H530 C466 0.960 . S
H531 C466 0.959 . S
H532 C469 0.930 . S
H533 C473 0.931 . S
H534 C474 0.959 . S
H535 C474 0.961 . S
H536 C474 0.959 . S
H537 C475 0.960 . S
H538 C475 0.960 . S
H539 C475 0.960 . S
H540 C511 0.980 . S
H541 C477 0.930 . S
H542 C481 0.930 . S
H543 C482 0.961 . S
H544 C482 0.960 . S
H545 C482 0.958 . S
H546 C483 0.961 . S
H547 C483 0.960 . S
H548 C483 0.960 . S
H549 C485 0.980 . S
H550 C484 0.961 . S
H551 C484 0.961 . S
H552 C484 0.959 . S
H553 C487 0.932 . S
H554 C491 0.929 . S
H555 C492 0.961 . S
H556 C492 0.959 . S
H557 C492 0.942 1_565 S
H558 C493 0.960 . S
H559 C493 0.962 . S
H560 C493 0.961 . S
H561 C495 0.929 . S
H562 C498 0.930 . S
H563 C499 0.929 . S
H564 C502 0.930 . S
H565 C505 0.929 . S
H566 C506 0.930 . S
H567 C510 0.962 . S
H568 C510 0.959 . S
H569 C510 0.958 . S
C570 C571 1.560 . S
C570 H631 0.959 . S
C570 H632 0.959 . S
C570 H633 0.960 . S
C571 C570 1.560 . S
C571 O626 1.426 . S
C571 H630 0.980 . S
C572 C573 1.407 . S
C572 C577 1.418 . S
C572 O626 1.334 . S
C573 C572 1.407 . S
C573 C574 1.360 . S
C573 H634 0.929 . S
C574 C573 1.360 . S
C574 C575 1.401 . S
C574 C578 1.527 . S
C575 C574 1.401 . S
C575 C576 1.405 . S
C575 C608 1.587 . S
C576 C575 1.405 . S
C576 C577 1.332 . S
C576 C579 1.496 . S
C577 C572 1.418 . S
C577 C576 1.332 . S
C577 H635 0.929 . S
C578 C574 1.527 . S
C578 H636 0.959 . S
C578 H637 0.961 . S
C578 H638 0.961 . S
C579 C576 1.496 . S
C579 H639 0.960 . S
C579 H640 0.960 . S
C579 H641 0.961 . S
C580 C581 1.517 . S
C580 H643 0.961 . S
C580 H644 0.960 . S
C580 H645 0.959 . S
C581 C580 1.517 . S
C581 O629 1.468 . S
C581 H642 0.980 . S
C582 C583 1.349 . S
C582 C587 1.367 . S
C582 O629 1.408 . S
C583 C582 1.349 . S
C583 C584 1.407 . S
C583 H646 0.930 . S
C584 C583 1.407 . S
C584 C585 1.449 . S
C584 C588 1.535 . S
C585 C584 1.449 . S
C585 C586 1.384 . S
C585 C610 1.553 . S
C586 C585 1.384 . S
C586 C587 1.364 . S
C586 C589 1.450 . S
C587 C582 1.367 . S
C587 C586 1.364 . S
C587 H647 0.931 . S
C588 C584 1.535 . S
C588 H648 0.959 . S
C588 H649 0.961 . S
C588 H650 0.959 . S
C589 C586 1.450 . S
C589 H651 0.960 . S
C589 H652 0.960 . S
C589 H653 0.960 . S
C590 C591 1.309 . S
C590 C595 1.304 . S
C590 O628 1.435 . S
C591 C590 1.309 . S
C591 C592 1.476 . S
C591 H655 0.930 . S
C592 C591 1.476 . S
C592 C593 1.400 . S
C592 C596 1.567 . S
C593 C592 1.400 . S
C593 C594 1.373 . S
C593 C615 1.432 . S
C594 C593 1.373 . S
C594 C595 1.339 . S
C594 C597 1.530 . S
C595 C590 1.304 . S
C595 C594 1.339 . S
C595 H656 0.930 . S
C596 C592 1.567 . S
C596 H657 0.961 . S
C596 H658 0.960 . S
C596 H659 0.958 . S
C597 C594 1.530 . S
C597 H660 0.961 . S
C597 H661 0.960 . S
C597 H662 0.960 . S
C598 C599 1.530 . S
C598 H664 0.961 . S
C598 H665 0.961 . S
C598 H666 0.959 . S
C599 C598 1.530 . S
C599 O627 1.412 . S
C599 H663 0.980 . S
C600 C601 1.288 . S
C600 C605 1.377 . S
C600 O627 1.393 . S
C601 C600 1.288 . S
C601 C602 1.369 . S
C601 H667 0.932 . S
C602 C601 1.369 . S
C602 C603 1.398 . S
C602 C606 1.527 . S
C603 C602 1.398 . S
C603 C604 1.380 . S
C603 C617 1.497 . S
C604 C603 1.380 . S
C604 C605 1.383 . S
C604 C607 1.603 . S
C605 C600 1.377 . S
C605 C604 1.383 . S
C605 H668 0.929 . S
C606 C602 1.527 . S
C606 H669 0.961 . S
C606 H670 0.959 . S
C606 H671 0.959 . S
C607 C604 1.603 . S
C607 H672 0.960 . S
C607 H673 0.962 . S
C607 H674 0.961 . S
C608 C575 1.587 . S
C608 C609 1.360 . S
C608 C621 1.412 . S
C609 C608 1.360 . S
C609 C610 1.365 . S
C609 H675 0.929 . S
C610 C585 1.553 . S
C610 C609 1.365 . S
C610 C611 1.404 . S
C611 C610 1.404 . S
C611 C612 1.395 . S
C611 C622 1.451 . S
C612 C611 1.395 . S
C612 C613 1.322 . S
C612 H676 0.930 . S
C613 C612 1.322 . S
C613 C614 1.459 . S
C613 H677 0.929 . S
C614 C613 1.459 . S
C614 C615 1.445 . S
C614 C623 1.395 . S
C615 C593 1.432 . S
C615 C614 1.445 . S
C615 C616 1.370 . S
C616 C615 1.370 . S
C616 C617 1.438 . S
C616 H678 0.930 . S
C617 C603 1.497 . S
C617 C616 1.438 . S
C617 C618 1.360 . S
C618 C617 1.360 . S
C618 C619 1.401 . S
C618 C623 1.446 . S
C619 C618 1.401 . S
C619 C620 1.347 . S
C619 H679 0.929 . S
C620 C619 1.347 . S
C620 C621 1.455 . S
C620 H680 0.930 . S
C621 C608 1.412 . S
C621 C620 1.455 . S
C621 C622 1.331 . S
C622 C611 1.451 . S
C622 C621 1.331 . S
C622 C623 1.497 . S
C623 C614 1.395 . S
C623 C618 1.446 . S
C623 C622 1.497 . S
C624 C625 1.582 . S
C624 H681 0.962 . S
C624 H682 0.959 . S
C624 H683 0.958 . S
C625 C624 1.582 . S
C625 O628 1.458 . S
C625 H654 0.980 . S
O626 C571 1.426 . S
O626 C572 1.334 . S
O627 C599 1.412 . S
O627 C600 1.393 . S
O628 C590 1.435 . S
O628 C625 1.458 . S
O629 C581 1.468 . S
O629 C582 1.408 . S
H630 C571 0.980 . S
H631 C570 0.959 . S
H632 C570 0.959 . S
H633 C570 0.960 . S
H634 C573 0.929 . S
H635 C577 0.929 . S
H636 C578 0.959 . S
H637 C578 0.961 . S
H638 C578 0.961 . S
H639 C579 0.960 . S
H640 C579 0.960 . S
H641 C579 0.961 . S
H642 C581 0.980 . S
H643 C580 0.961 . S
H644 C580 0.960 . S
H645 C580 0.959 . S
H646 C583 0.930 . S
H647 C587 0.931 . S
H648 C588 0.959 . S
H649 C588 0.961 . S
H650 C588 0.959 . S
H651 C589 0.960 . S
H652 C589 0.960 . S
H653 C589 0.960 . S
H654 C625 0.980 . S
H655 C591 0.930 . S
H656 C595 0.930 . S
H657 C596 0.961 . S
H658 C596 0.960 . S
H659 C596 0.958 . S
H660 C597 0.961 . S
H661 C597 0.960 . S
H662 C597 0.960 . S
H663 C599 0.980 . S
H664 C598 0.961 . S
H665 C598 0.961 . S
H666 C598 0.959 . S
H667 C601 0.932 . S
H668 C605 0.929 . S
H669 C606 0.961 . S
H670 C606 0.959 . S
H671 C606 0.959 . S
H672 C607 0.960 . S
H673 C607 0.962 . S
H674 C607 0.961 . S
H675 C609 0.929 . S
H676 C612 0.930 . S
H677 C613 0.929 . S
H678 C616 0.930 . S
H679 C619 0.929 . S
H680 C620 0.930 . S
H681 C624 0.962 . S
H682 C624 0.959 . S
H683 C624 0.958 . S
O684 Cd685 2.223 . S
O684 C692 1.315 . S
Cd685 O684 2.223 . S
Cd685 O688 2.297 . S
Cd685 O689 2.439 . S
Cd685 O695 2.240 . S
Cd686 O687 2.240 . S
Cd686 O694 2.223 . S
Cd686 O696 2.297 . S
Cd686 O697 2.439 . S
O687 Cd686 2.240 . S
O687 C692 1.279 . S
O688 Cd685 2.297 . S
O688 C690 1.247 . S
O689 Cd685 2.439 . S
O689 C690 1.208 . S
C690 O688 1.247 . S
C690 O689 1.208 . S
C691 O696 1.247 . S
C691 O697 1.208 . S
C692 O684 1.315 . S
C692 O687 1.279 . S
C693 O694 1.315 . S
C693 O695 1.279 . S
O694 Cd686 2.223 . S
O694 C693 1.315 . S
O695 Cd685 2.240 . S
O695 C693 1.279 . S
O696 Cd686 2.297 . S
O696 C691 1.247 . S
O697 Cd686 2.439 . S
O697 C691 1.208 . S
O698 Cd699 2.223 . S
O698 C706 1.315 . S
Cd699 O698 2.223 . S
Cd699 O702 2.297 . S
Cd699 O703 2.439 . S
Cd699 O709 2.240 . S
Cd700 O701 2.240 . S
Cd700 O708 2.223 . S
Cd700 O710 2.297 . S
Cd700 O711 2.439 . S
O701 Cd700 2.240 . S
O701 C706 1.279 . S
O702 Cd699 2.297 . S
O702 C704 1.247 . S
O703 Cd699 2.439 . S
O703 C704 1.208 . S
C704 O702 1.247 . S
C704 O703 1.208 . S
C705 O710 1.247 . S
C705 O711 1.208 . S
C706 O698 1.315 . S
C706 O701 1.279 . S
C707 O708 1.315 . S
C707 O709 1.279 . S
O708 Cd700 2.223 . S
O708 C707 1.315 . S
O709 Cd699 2.240 . S
O709 C707 1.279 . S
O710 Cd700 2.297 . S
O710 C705 1.247 . S
O711 Cd700 2.439 . S
O711 C705 1.208 . S
O712 Cd713 2.223 . S
O712 C720 1.315 . S
Cd713 O712 2.223 . S
Cd713 O716 2.297 . S
Cd713 O717 2.439 . S
Cd713 O723 2.240 . S
Cd714 O715 2.240 . S
Cd714 O722 2.223 . S
Cd714 O724 2.297 . S
Cd714 O725 2.439 . S
O715 Cd714 2.240 . S
O715 C720 1.279 . S
O716 Cd713 2.297 . S
O716 C718 1.247 . S
O717 Cd713 2.439 . S
O717 C718 1.208 . S
C718 O716 1.247 . S
C718 O717 1.208 . S
C719 O724 1.247 . S
C719 O725 1.208 . S
C720 O712 1.315 . S
C720 O715 1.279 . S
C721 O722 1.315 . S
C721 O723 1.279 . S
O722 Cd714 2.223 . S
O722 C721 1.315 . S
O723 Cd713 2.240 . S
O723 C721 1.279 . S
O724 Cd714 2.297 . S
O724 C719 1.247 . S
O725 Cd714 2.439 . S
O725 C719 1.208 . S
O726 Cd727 2.223 . S
O726 C734 1.315 . S
Cd727 O726 2.223 . S
Cd727 O730 2.297 . S
Cd727 O731 2.439 . S
Cd727 O737 2.240 . S
Cd728 O729 2.240 . S
Cd728 O736 2.223 . S
Cd728 O738 2.297 . S
Cd728 O739 2.439 . S
O729 Cd728 2.240 . S
O729 C734 1.279 . S
O730 Cd727 2.297 . S
O730 C732 1.247 . S
O731 Cd727 2.439 . S
O731 C732 1.208 . S
C732 O730 1.247 . S
C732 O731 1.208 . S
C733 O738 1.247 . S
C733 O739 1.208 . S
C734 O726 1.315 . S
C734 O729 1.279 . S
C735 O736 1.315 . S
C735 O737 1.279 . S
O736 Cd728 2.223 . S
O736 C735 1.315 . S
O737 Cd727 2.240 . S
O737 C735 1.279 . S
O738 Cd728 2.297 . S
O738 C733 1.247 . S
O739 Cd728 2.439 . S
O739 C733 1.208 . S
O740 Cd741 2.223 . S
O740 C748 1.315 . S
Cd741 O740 2.223 . S
Cd741 O744 2.297 . S
Cd741 O745 2.439 . S
Cd741 O751 2.240 . S
Cd742 O743 2.240 . S
Cd742 O750 2.223 . S
Cd742 O752 2.297 . S
Cd742 O753 2.439 . S
O743 Cd742 2.240 . S
O743 C748 1.279 . S
O744 Cd741 2.297 . S
O744 C746 1.247 . S
O745 Cd741 2.439 . S
O745 C746 1.208 . S
C746 O744 1.247 . S
C746 O745 1.208 . S
C747 O752 1.247 . S
C747 O753 1.208 . S
C748 O740 1.315 . S
C748 O743 1.279 . S
C749 O750 1.315 . S
C749 O751 1.279 . S
O750 Cd742 2.223 . S
O750 C749 1.315 . S
O751 Cd741 2.240 . S
O751 C749 1.279 . S
O752 Cd742 2.297 . S
O752 C747 1.247 . S
O753 Cd742 2.439 . S
O753 C747 1.208 . S
O754 Cd755 2.223 . S
O754 C762 1.315 . S
Cd755 O754 2.223 . S
Cd755 O758 2.297 . S
Cd755 O759 2.439 . S
Cd755 O765 2.240 . S
Cd756 O757 2.240 . S
Cd756 O764 2.223 . S
Cd756 O766 2.297 . S
Cd756 O767 2.439 . S
O757 Cd756 2.240 . S
O757 C762 1.279 . S
O758 Cd755 2.297 . S
O758 C760 1.247 . S
O759 Cd755 2.439 . S
O759 C760 1.208 . S
C760 O758 1.247 . S
C760 O759 1.208 . S
C761 O766 1.247 . S
C761 O767 1.208 . S
C762 O754 1.315 . S
C762 O757 1.279 . S
C763 O764 1.315 . S
C763 O765 1.279 . S
O764 Cd756 2.223 . S
O764 C763 1.315 . S
O765 Cd755 2.240 . S
O765 C763 1.279 . S
O766 Cd756 2.297 . S
O766 C761 1.247 . S
O767 Cd756 2.439 . S
O767 C761 1.208 . S
C768 C769 1.391 . S
C768 C770 1.394 . S
C768 H784 0.931 . S
C769 C768 1.391 . S
C769 C773 1.376 . S
C770 C768 1.394 . S
C770 C771 1.369 . S
C770 C774 1.531 . S
C771 C770 1.369 . S
C771 C772 1.410 . S
C771 C779 1.503 . S
C772 C771 1.410 . S
C772 C773 1.392 . S
C772 C775 1.511 . S
C773 C769 1.376 . S
C773 C772 1.392 . S
C773 H785 0.929 . S
C774 C770 1.531 . S
C774 H786 0.960 . S
C774 H787 0.962 . S
C774 H788 0.960 . S
C775 C772 1.511 . S
C775 H789 0.961 . S
C775 H790 0.961 . S
C775 H791 0.961 . S
C776 C777 1.370 . S
C776 C778 1.363 . S
C776 H792 0.931 . S
C777 C776 1.370 . S
C777 C781 1.408 . S
C778 C776 1.363 . S
C778 C779 1.370 . S
C778 C782 1.524 . S
C779 C771 1.503 . S
C779 C778 1.370 . S
C779 C780 1.403 . S
C780 C779 1.403 . S
C780 C781 1.404 . S
C780 C783 1.539 . S
C781 C777 1.408 . S
C781 C780 1.404 . S
C781 H793 0.930 . S
C782 C778 1.524 . S
C782 H794 0.956 . S
C782 H795 0.961 . S
C782 H796 0.961 . S
C783 C780 1.539 . S
C783 H797 0.958 . S
C783 H798 0.961 . S
C783 H799 0.960 . S
H784 C768 0.931 . S
H785 C773 0.929 . S
H786 C774 0.960 . S
H787 C774 0.962 . S
H788 C774 0.960 . S
H789 C775 0.961 . S
H790 C775 0.961 . S
H791 C775 0.961 . S
H792 C776 0.931 . S
H793 C781 0.930 . S
H794 C782 0.956 . S
H795 C782 0.961 . S
H796 C782 0.961 . S
H797 C783 0.958 . S
H798 C783 0.961 . S
H799 C783 0.960 . S
C800 C801 1.391 . S
C800 C802 1.394 . S
C800 H816 0.931 . S
C801 C800 1.391 . S
C801 C805 1.376 . S
C802 C800 1.394 . S
C802 C803 1.369 . S
C802 C806 1.531 . S
C803 C802 1.369 . S
C803 C804 1.410 . S
C803 C811 1.503 . S
C804 C803 1.410 . S
C804 C805 1.392 . S
C804 C807 1.511 . S
C805 C801 1.376 . S
C805 C804 1.392 . S
C805 H817 0.929 . S
C806 C802 1.531 . S
C806 H818 0.960 . S
C806 H819 0.962 . S
C806 H820 0.960 . S
C807 C804 1.511 . S
C807 H821 0.961 . S
C807 H822 0.961 . S
C807 H823 0.961 . S
C808 C809 1.370 . S
C808 C810 1.363 . S
C808 H824 0.931 . S
C809 C808 1.370 . S
C809 C813 1.408 . S
C810 C808 1.363 . S
C810 C811 1.370 . S
C810 C814 1.524 . S
C811 C803 1.503 . S
C811 C810 1.370 . S
C811 C812 1.403 . S
C812 C811 1.403 . S
C812 C813 1.404 . S
C812 C815 1.539 . S
C813 C809 1.408 . S
C813 C812 1.404 . S
C813 H825 0.930 . S
C814 C810 1.524 . S
C814 H826 0.956 . S
C814 H827 0.961 . S
C814 H828 0.961 . S
C815 C812 1.539 . S
C815 H829 0.958 . S
C815 H830 0.961 . S
C815 H831 0.960 . S
H816 C800 0.931 . S
H817 C805 0.929 . S
H818 C806 0.960 . S
H819 C806 0.962 . S
H820 C806 0.960 . S
H821 C807 0.961 . S
H822 C807 0.961 . S
H823 C807 0.961 . S
H824 C808 0.931 . S
H825 C813 0.930 . S
H826 C814 0.956 . S
H827 C814 0.961 . S
H828 C814 0.961 . S
H829 C815 0.958 . S
H830 C815 0.961 . S
H831 C815 0.960 . S
C832 C833 1.391 . S
C832 C834 1.394 . S
C832 H848 0.931 . S
C833 C832 1.391 . S
C833 C837 1.376 . S
C834 C832 1.394 . S
C834 C835 1.369 . S
C834 C838 1.531 . S
C835 C834 1.369 . S
C835 C836 1.410 . S
C835 C843 1.503 . S
C836 C835 1.410 . S
C836 C837 1.392 . S
C836 C839 1.511 . S
C837 C833 1.376 . S
C837 C836 1.392 . S
C837 H849 0.929 . S
C838 C834 1.531 . S
C838 H850 0.960 . S
C838 H851 0.962 . S
C838 H852 0.960 . S
C839 C836 1.511 . S
C839 H853 0.961 . S
C839 H854 0.961 . S
C839 H855 0.961 . S
C840 C841 1.370 . S
C840 C842 1.363 . S
C840 H856 0.931 . S
C841 C840 1.370 . S
C841 C845 1.408 . S
C842 C840 1.363 . S
C842 C843 1.370 . S
C842 C846 1.524 . S
C843 C835 1.503 . S
C843 C842 1.370 . S
C843 C844 1.403 . S
C844 C843 1.403 . S
C844 C845 1.404 . S
C844 C847 1.539 . S
C845 C841 1.408 . S
C845 C844 1.404 . S
C845 H857 0.930 . S
C846 C842 1.524 . S
C846 H858 0.956 . S
C846 H859 0.961 . S
C846 H860 0.961 . S
C847 C844 1.539 . S
C847 H861 0.958 . S
C847 H862 0.961 . S
C847 H863 0.960 . S
H848 C832 0.931 . S
H849 C837 0.929 . S
H850 C838 0.960 . S
H851 C838 0.962 . S
H852 C838 0.960 . S
H853 C839 0.961 . S
H854 C839 0.961 . S
H855 C839 0.961 . S
H856 C840 0.931 . S
H857 C845 0.930 . S
H858 C846 0.956 . S
H859 C846 0.961 . S
H860 C846 0.961 . S
H861 C847 0.958 . S
H862 C847 0.961 . S
H863 C847 0.960 . S
C864 C865 1.391 . S
C864 C866 1.394 . S
C864 H880 0.931 . S
C865 C864 1.391 . S
C865 C869 1.376 . S
C866 C864 1.394 . S
C866 C867 1.369 . S
C866 C870 1.531 . S
C867 C866 1.369 . S
C867 C868 1.410 . S
C867 C875 1.503 . S
C868 C867 1.410 . S
C868 C869 1.392 . S
C868 C871 1.511 . S
C869 C865 1.376 . S
C869 C868 1.392 . S
C869 H881 0.929 . S
C870 C866 1.531 . S
C870 H882 0.960 . S
C870 H883 0.962 . S
C870 H884 0.960 . S
C871 C868 1.511 . S
C871 H885 0.961 . S
C871 H886 0.961 . S
C871 H887 0.961 . S
C872 C873 1.370 . S
C872 C874 1.363 . S
C872 H888 0.931 . S
C873 C872 1.370 . S
C873 C877 1.408 . S
C874 C872 1.363 . S
C874 C875 1.370 . S
C874 C878 1.524 . S
C875 C867 1.503 . S
C875 C874 1.370 . S
C875 C876 1.403 . S
C876 C875 1.403 . S
C876 C877 1.404 . S
C876 C879 1.539 . S
C877 C873 1.408 . S
C877 C876 1.404 . S
C877 H889 0.930 . S
C878 C874 1.524 . S
C878 H890 0.956 . S
C878 H891 0.961 . S
C878 H892 0.961 . S
C879 C876 1.539 . S
C879 H893 0.958 . S
C879 H894 0.961 . S
C879 H895 0.960 . S
H880 C864 0.931 . S
H881 C869 0.929 . S
H882 C870 0.960 . S
H883 C870 0.962 . S
H884 C870 0.960 . S
H885 C871 0.961 . S
H886 C871 0.961 . S
H887 C871 0.961 . S
H888 C872 0.931 . S
H889 C877 0.930 . S
H890 C878 0.956 . S
H891 C878 0.961 . S
H892 C878 0.961 . S
H893 C879 0.958 . S
H894 C879 0.961 . S
H895 C879 0.960 . S
C896 C897 1.391 . S
C896 C898 1.394 . S
C896 H912 0.931 . S
C897 C896 1.391 . S
C897 C901 1.376 . S
C898 C896 1.394 . S
C898 C899 1.369 . S
C898 C902 1.531 . S
C899 C898 1.369 . S
C899 C900 1.410 . S
C899 C907 1.503 . S
C900 C899 1.410 . S
C900 C901 1.392 . S
C900 C903 1.511 . S
C901 C897 1.376 . S
C901 C900 1.392 . S
C901 H913 0.929 . S
C902 C898 1.531 . S
C902 H914 0.960 . S
C902 H915 0.962 . S
C902 H916 0.960 . S
C903 C900 1.511 . S
C903 H917 0.961 . S
C903 H918 0.961 . S
C903 H919 0.961 . S
C904 C905 1.370 . S
C904 C906 1.363 . S
C904 H920 0.931 . S
C905 C904 1.370 . S
C905 C909 1.408 . S
C906 C904 1.363 . S
C906 C907 1.370 . S
C906 C910 1.524 . S
C907 C899 1.503 . S
C907 C906 1.370 . S
C907 C908 1.403 . S
C908 C907 1.403 . S
C908 C909 1.404 . S
C908 C911 1.539 . S
C909 C905 1.408 . S
C909 C908 1.404 . S
C909 H921 0.930 . S
C910 C906 1.524 . S
C910 H922 0.956 . S
C910 H923 0.961 . S
C910 H924 0.961 . S
C911 C908 1.539 . S
C911 H925 0.958 . S
C911 H926 0.961 . S
C911 H927 0.960 . S
H912 C896 0.931 . S
H913 C901 0.929 . S
H914 C902 0.960 . S
H915 C902 0.962 . S
H916 C902 0.960 . S
H917 C903 0.961 . S
H918 C903 0.961 . S
H919 C903 0.961 . S
H920 C904 0.931 . S
H921 C909 0.930 . S
H922 C910 0.956 . S
H923 C910 0.961 . S
H924 C910 0.961 . S
H925 C911 0.958 . S
H926 C911 0.961 . S
H927 C911 0.960 . S
C928 C929 1.391 . S
C928 C930 1.394 . S
C928 H944 0.931 . S
C929 C928 1.391 . S
C929 C933 1.376 . S
C930 C928 1.394 . S
C930 C931 1.369 . S
C930 C934 1.531 . S
C931 C930 1.369 . S
C931 C932 1.410 . S
C931 C939 1.503 . S
C932 C931 1.410 . S
C932 C933 1.392 . S
C932 C935 1.511 . S
C933 C929 1.376 . S
C933 C932 1.392 . S
C933 H945 0.929 . S
C934 C930 1.531 . S
C934 H946 0.960 . S
C934 H947 0.962 . S
C934 H948 0.960 . S
C935 C932 1.511 . S
C935 H949 0.961 . S
C935 H950 0.961 . S
C935 H951 0.961 . S
C936 C937 1.370 . S
C936 C938 1.363 . S
C936 H952 0.931 . S
C937 C936 1.370 . S
C937 C941 1.408 . S
C938 C936 1.363 . S
C938 C939 1.370 . S
C938 C942 1.524 . S
C939 C931 1.503 . S
C939 C938 1.370 . S
C939 C940 1.403 . S
C940 C939 1.403 . S
C940 C941 1.404 . S
C940 C943 1.539 . S
C941 C937 1.408 . S
C941 C940 1.404 . S
C941 H953 0.930 . S
C942 C938 1.524 . S
C942 H954 0.956 . S
C942 H955 0.961 . S
C942 H956 0.961 . S
C943 C940 1.539 . S
C943 H957 0.958 . S
C943 H958 0.961 . S
C943 H959 0.960 . S
H944 C928 0.931 . S
H945 C933 0.929 . S
H946 C934 0.960 . S
H947 C934 0.962 . S
H948 C934 0.960 . S
H949 C935 0.961 . S
H950 C935 0.961 . S
H951 C935 0.961 . S
H952 C936 0.931 . S
H953 C941 0.930 . S
H954 C942 0.956 . S
H955 C942 0.961 . S
H956 C942 0.961 . S
H957 C943 0.958 . S
H958 C943 0.961 . S
H959 C943 0.960 . S
C960 C961 1.391 . S
C960 C962 1.394 . S
C960 H976 0.931 . S
C961 C960 1.391 . S
C961 C965 1.376 . S
C962 C960 1.394 . S
C962 C963 1.369 . S
C962 C966 1.531 . S
C963 C962 1.369 . S
C963 C964 1.410 . S
C963 C971 1.503 . S
C964 C963 1.410 . S
C964 C965 1.392 . S
C964 C967 1.511 . S
C965 C961 1.376 . S
C965 C964 1.392 . S
C965 H977 0.929 . S
C966 C962 1.531 . S
C966 H978 0.960 . S
C966 H979 0.962 . S
C966 H980 0.960 . S
C967 C964 1.511 . S
C967 H981 0.961 . S
C967 H982 0.961 . S
C967 H983 0.961 . S
C968 C969 1.370 . S
C968 C970 1.363 . S
C968 H984 0.931 . S
C969 C968 1.370 . S
C969 C973 1.408 . S
C970 C968 1.363 . S
C970 C971 1.370 . S
C970 C974 1.524 . S
C971 C963 1.503 . S
C971 C970 1.370 . S
C971 C972 1.403 . S
C972 C971 1.403 . S
C972 C973 1.404 . S
C972 C975 1.539 . S
C973 C969 1.408 . S
C973 C972 1.404 . S
C973 H985 0.930 . S
C974 C970 1.524 . S
C974 H986 0.956 . S
C974 H987 0.961 . S
C974 H988 0.961 . S
C975 C972 1.539 . S
C975 H989 0.958 . S
C975 H990 0.961 . S
C975 H991 0.960 . S
H976 C960 0.931 . S
H977 C965 0.929 . S
H978 C966 0.960 . S
H979 C966 0.962 . S
H980 C966 0.960 . S
H981 C967 0.961 . S
H982 C967 0.961 . S
H983 C967 0.961 . S
H984 C968 0.931 . S
H985 C973 0.930 . S
H986 C974 0.956 . S
H987 C974 0.961 . S
H988 C974 0.961 . S
H989 C975 0.958 . S
H990 C975 0.961 . S
H991 C975 0.960 . S
C992 C993 1.391 . S
C992 C994 1.394 . S
C992 H1008 0.931 . S
C993 C992 1.391 . S
C993 C997 1.376 . S
C994 C992 1.394 . S
C994 C995 1.369 . S
C994 C998 1.531 . S
C995 C994 1.369 . S
C995 C996 1.410 . S
C995 C1003 1.503 . S
C996 C995 1.410 . S
C996 C997 1.392 . S
C996 C999 1.511 . S
C997 C993 1.376 . S
C997 C996 1.392 . S
C997 H1009 0.929 . S
C998 C994 1.531 . S
C998 H1010 0.960 . S
C998 H1011 0.962 . S
C998 H1012 0.960 . S
C999 C996 1.511 . S
C999 H1013 0.961 . S
C999 H1014 0.961 . S
C999 H1015 0.961 . S
C1000 C1001 1.370 . S
C1000 C1002 1.363 . S
C1000 H1016 0.931 . S
C1001 C1000 1.370 . S
C1001 C1005 1.408 . S
C1002 C1000 1.363 . S
C1002 C1003 1.370 . S
C1002 C1006 1.524 . S
C1003 C995 1.503 . S
C1003 C1002 1.370 . S
C1003 C1004 1.403 . S
C1004 C1003 1.403 . S
C1004 C1005 1.404 . S
C1004 C1007 1.539 . S
C1005 C1001 1.408 . S
C1005 C1004 1.404 . S
C1005 H1017 0.930 . S
C1006 C1002 1.524 . S
C1006 H1018 0.956 . S
C1006 H1019 0.961 . S
C1006 H1020 0.961 . S
C1007 C1004 1.539 . S
C1007 H1021 0.958 . S
C1007 H1022 0.961 . S
C1007 H1023 0.960 . S
H1008 C992 0.931 . S
H1009 C997 0.929 . S
H1010 C998 0.960 . S
H1011 C998 0.962 . S
H1012 C998 0.960 . S
H1013 C999 0.961 . S
H1014 C999 0.961 . S
H1015 C999 0.961 . S
H1016 C1000 0.931 . S
H1017 C1005 0.930 . S
H1018 C1006 0.956 . S
H1019 C1006 0.961 . S
H1020 C1006 0.961 . S
H1021 C1007 0.958 . S
H1022 C1007 0.961 . S
H1023 C1007 0.960 . S
C1024 C1025 1.391 . S
C1024 C1026 1.394 . S
C1024 H1040 0.931 . S
C1025 C1024 1.391 . S
C1025 C1029 1.376 . S
C1026 C1024 1.394 . S
C1026 C1027 1.369 . S
C1026 C1030 1.531 . S
C1027 C1026 1.369 . S
C1027 C1028 1.410 . S
C1027 C1035 1.503 . S
C1028 C1027 1.410 . S
C1028 C1029 1.392 . S
C1028 C1031 1.511 . S
C1029 C1025 1.376 . S
C1029 C1028 1.392 . S
C1029 H1041 0.929 . S
C1030 C1026 1.531 . S
C1030 H1042 0.960 . S
C1030 H1043 0.962 . S
C1030 H1044 0.960 . S
C1031 C1028 1.511 . S
C1031 H1045 0.961 . S
C1031 H1046 0.961 . S
C1031 H1047 0.961 . S
C1032 C1033 1.370 . S
C1032 C1034 1.363 . S
C1032 H1048 0.931 . S
C1033 C1032 1.370 . S
C1033 C1037 1.408 . S
C1034 C1032 1.363 . S
C1034 C1035 1.370 . S
C1034 C1038 1.524 . S
C1035 C1027 1.503 . S
C1035 C1034 1.370 . S
C1035 C1036 1.403 . S
C1036 C1035 1.403 . S
C1036 C1037 1.404 . S
C1036 C1039 1.539 . S
C1037 C1033 1.408 . S
C1037 C1036 1.404 . S
C1037 H1049 0.930 . S
C1038 C1034 1.524 . S
C1038 H1050 0.956 . S
C1038 H1051 0.961 . S
C1038 H1052 0.961 . S
C1039 C1036 1.539 . S
C1039 H1053 0.958 . S
C1039 H1054 0.961 . S
C1039 H1055 0.960 . S
H1040 C1024 0.931 . S
H1041 C1029 0.929 . S
H1042 C1030 0.960 . S
H1043 C1030 0.962 . S
H1044 C1030 0.960 . S
H1045 C1031 0.961 . S
H1046 C1031 0.961 . S
H1047 C1031 0.961 . S
H1048 C1032 0.931 . S
H1049 C1037 0.930 . S
H1050 C1038 0.956 . S
H1051 C1038 0.961 . S
H1052 C1038 0.961 . S
H1053 C1039 0.958 . S
H1054 C1039 0.961 . S
H1055 C1039 0.960 . S
C1056 C1057 1.391 . S
C1056 C1058 1.394 . S
C1056 H1072 0.931 . S
C1057 C1056 1.391 . S
C1057 C1061 1.376 . S
C1058 C1056 1.394 . S
C1058 C1059 1.369 . S
C1058 C1062 1.531 . S
C1059 C1058 1.369 . S
C1059 C1060 1.410 . S
C1059 C1067 1.503 . S
C1060 C1059 1.410 . S
C1060 C1061 1.392 . S
C1060 C1063 1.511 . S
C1061 C1057 1.376 . S
C1061 C1060 1.392 . S
C1061 H1073 0.929 . S
C1062 C1058 1.531 . S
C1062 H1074 0.960 . S
C1062 H1075 0.962 . S
C1062 H1076 0.960 . S
C1063 C1060 1.511 . S
C1063 H1077 0.961 . S
C1063 H1078 0.961 . S
C1063 H1079 0.961 . S
C1064 C1065 1.370 . S
C1064 C1066 1.363 . S
C1064 H1080 0.931 . S
C1065 C1064 1.370 . S
C1065 C1069 1.408 . S
C1066 C1064 1.363 . S
C1066 C1067 1.370 . S
C1066 C1070 1.524 . S
C1067 C1059 1.503 . S
C1067 C1066 1.370 . S
C1067 C1068 1.403 . S
C1068 C1067 1.403 . S
C1068 C1069 1.404 . S
C1068 C1071 1.539 . S
C1069 C1065 1.408 . S
C1069 C1068 1.404 . S
C1069 H1081 0.930 . S
C1070 C1066 1.524 . S
C1070 H1082 0.956 . S
C1070 H1083 0.961 . S
C1070 H1084 0.961 . S
C1071 C1068 1.539 . S
C1071 H1085 0.958 . S
C1071 H1086 0.961 . S
C1071 H1087 0.960 . S
H1072 C1056 0.931 . S
H1073 C1061 0.929 . S
H1074 C1062 0.960 . S
H1075 C1062 0.962 . S
H1076 C1062 0.960 . S
H1077 C1063 0.961 . S
H1078 C1063 0.961 . S
H1079 C1063 0.961 . S
H1080 C1064 0.931 . S
H1081 C1069 0.930 . S
H1082 C1070 0.956 . S
H1083 C1070 0.961 . S
H1084 C1070 0.961 . S
H1085 C1071 0.958 . S
H1086 C1071 0.961 . S
H1087 C1071 0.960 . S
C1088 C1089 1.391 . S
C1088 C1090 1.394 . S
C1088 H1104 0.931 . S
C1089 C1088 1.391 . S
C1089 C1093 1.376 . S
C1090 C1088 1.394 . S
C1090 C1091 1.369 . S
C1090 C1094 1.531 . S
C1091 C1090 1.369 . S
C1091 C1092 1.410 . S
C1091 C1099 1.503 . S
C1092 C1091 1.410 . S
C1092 C1093 1.392 . S
C1092 C1095 1.511 . S
C1093 C1089 1.376 . S
C1093 C1092 1.392 . S
C1093 H1105 0.929 . S
C1094 C1090 1.531 . S
C1094 H1106 0.960 . S
C1094 H1107 0.962 . S
C1094 H1108 0.960 . S
C1095 C1092 1.511 . S
C1095 H1109 0.961 . S
C1095 H1110 0.961 . S
C1095 H1111 0.961 . S
C1096 C1097 1.370 . S
C1096 C1098 1.363 . S
C1096 H1112 0.931 . S
C1097 C1096 1.370 . S
C1097 C1101 1.408 . S
C1098 C1096 1.363 . S
C1098 C1099 1.370 . S
C1098 C1102 1.524 . S
C1099 C1091 1.503 . S
C1099 C1098 1.370 . S
C1099 C1100 1.403 . S
C1100 C1099 1.403 . S
C1100 C1101 1.404 . S
C1100 C1103 1.539 . S
C1101 C1097 1.408 . S
C1101 C1100 1.404 . S
C1101 H1113 0.930 . S
C1102 C1098 1.524 . S
C1102 H1114 0.956 . S
C1102 H1115 0.961 . S
C1102 H1116 0.961 . S
C1103 C1100 1.539 . S
C1103 H1117 0.958 . S
C1103 H1118 0.961 . S
C1103 H1119 0.960 . S
H1104 C1088 0.931 . S
H1105 C1093 0.929 . S
H1106 C1094 0.960 . S
H1107 C1094 0.962 . S
H1108 C1094 0.960 . S
H1109 C1095 0.961 . S
H1110 C1095 0.961 . S
H1111 C1095 0.961 . S
H1112 C1096 0.931 . S
H1113 C1101 0.930 . S
H1114 C1102 0.956 . S
H1115 C1102 0.961 . S
H1116 C1102 0.961 . S
H1117 C1103 0.958 . S
H1118 C1103 0.961 . S
H1119 C1103 0.960 . S
C1120 C1121 1.391 . S
C1120 C1122 1.394 . S
C1120 H1136 0.931 . S
C1121 C1120 1.391 . S
C1121 C1125 1.376 . S
C1122 C1120 1.394 . S
C1122 C1123 1.369 . S
C1122 C1126 1.531 . S
C1123 C1122 1.369 . S
C1123 C1124 1.410 . S
C1123 C1131 1.503 . S
C1124 C1123 1.410 . S
C1124 C1125 1.392 . S
C1124 C1127 1.511 . S
C1125 C1121 1.376 . S
C1125 C1124 1.392 . S
C1125 H1137 0.929 . S
C1126 C1122 1.531 . S
C1126 H1138 0.960 . S
C1126 H1139 0.962 . S
C1126 H1140 0.960 . S
C1127 C1124 1.511 . S
C1127 H1141 0.961 . S
C1127 H1142 0.961 . S
C1127 H1143 0.961 . S
C1128 C1129 1.370 . S
C1128 C1130 1.363 . S
C1128 H1144 0.931 . S
C1129 C1128 1.370 . S
C1129 C1133 1.408 . S
C1130 C1128 1.363 . S
C1130 C1131 1.370 . S
C1130 C1134 1.524 . S
C1131 C1123 1.503 . S
C1131 C1130 1.370 . S
C1131 C1132 1.403 . S
C1132 C1131 1.403 . S
C1132 C1133 1.404 . S
C1132 C1135 1.539 . S
C1133 C1129 1.408 . S
C1133 C1132 1.404 . S
C1133 H1145 0.930 . S
C1134 C1130 1.524 . S
C1134 H1146 0.956 . S
C1134 H1147 0.961 . S
C1134 H1148 0.961 . S
C1135 C1132 1.539 . S
C1135 H1149 0.958 . S
C1135 H1150 0.961 . S
C1135 H1151 0.960 . S
H1136 C1120 0.931 . S
H1137 C1125 0.929 . S
H1138 C1126 0.960 . S
H1139 C1126 0.962 . S
H1140 C1126 0.960 . S
H1141 C1127 0.961 . S
H1142 C1127 0.961 . S
H1143 C1127 0.961 . S
H1144 C1128 0.931 . S
H1145 C1133 0.930 . S
H1146 C1134 0.956 . S
H1147 C1134 0.961 . S
H1148 C1134 0.961 . S
H1149 C1135 0.958 . S
H1150 C1135 0.961 . S
H1151 C1135 0.960 . S
C1152 C1153 1.391 . S
C1152 C1154 1.394 . S
C1152 H1168 0.931 . S
C1153 C1152 1.391 . S
C1153 C1157 1.376 . S
C1154 C1152 1.394 . S
C1154 C1155 1.369 . S
C1154 C1158 1.531 . S
C1155 C1154 1.369 . S
C1155 C1156 1.410 . S
C1155 C1163 1.503 . S
C1156 C1155 1.410 . S
C1156 C1157 1.392 . S
C1156 C1159 1.511 . S
C1157 C1153 1.376 . S
C1157 C1156 1.392 . S
C1157 H1169 0.929 . S
C1158 C1154 1.531 . S
C1158 H1170 0.960 . S
C1158 H1171 0.962 . S
C1158 H1172 0.960 . S
C1159 C1156 1.511 . S
C1159 H1173 0.961 . S
C1159 H1174 0.961 . S
C1159 H1175 0.961 . S
C1160 C1161 1.370 . S
C1160 C1162 1.363 . S
C1160 H1176 0.931 . S
C1161 C1160 1.370 . S
C1161 C1165 1.408 . S
C1162 C1160 1.363 . S
C1162 C1163 1.370 . S
C1162 C1166 1.524 . S
C1163 C1155 1.503 . S
C1163 C1162 1.370 . S
C1163 C1164 1.403 . S
C1164 C1163 1.403 . S
C1164 C1165 1.404 . S
C1164 C1167 1.539 . S
C1165 C1161 1.408 . S
C1165 C1164 1.404 . S
C1165 H1177 0.930 . S
C1166 C1162 1.524 . S
C1166 H1178 0.956 . S
C1166 H1179 0.961 . S
C1166 H1180 0.961 . S
C1167 C1164 1.539 . S
C1167 H1181 0.958 . S
C1167 H1182 0.961 . S
C1167 H1183 0.960 . S
H1168 C1152 0.931 . S
H1169 C1157 0.929 . S
H1170 C1158 0.960 . S
H1171 C1158 0.962 . S
H1172 C1158 0.960 . S
H1173 C1159 0.961 . S
H1174 C1159 0.961 . S
H1175 C1159 0.961 . S
H1176 C1160 0.931 . S
H1177 C1165 0.930 . S
H1178 C1166 0.956 . S
H1179 C1166 0.961 . S
H1180 C1166 0.961 . S
H1181 C1167 0.958 . S
H1182 C1167 0.961 . S
H1183 C1167 0.960 . S
C1184 C1185 1.391 . S
C1184 C1186 1.394 . S
C1184 H1200 0.931 . S
C1185 C1184 1.391 . S
C1185 C1189 1.376 . S
C1186 C1184 1.394 . S
C1186 C1187 1.369 . S
C1186 C1190 1.531 . S
C1187 C1186 1.369 . S
C1187 C1188 1.410 . S
C1187 C1195 1.503 . S
C1188 C1187 1.410 . S
C1188 C1189 1.392 . S
C1188 C1191 1.511 . S
C1189 C1185 1.376 . S
C1189 C1188 1.392 . S
C1189 H1201 0.929 . S
C1190 C1186 1.531 . S
C1190 H1202 0.960 . S
C1190 H1203 0.962 . S
C1190 H1204 0.960 . S
C1191 C1188 1.511 . S
C1191 H1205 0.961 . S
C1191 H1206 0.961 . S
C1191 H1207 0.961 . S
C1192 C1193 1.370 . S
C1192 C1194 1.363 . S
C1192 H1208 0.931 . S
C1193 C1192 1.370 . S
C1193 C1197 1.408 . S
C1194 C1192 1.363 . S
C1194 C1195 1.370 . S
C1194 C1198 1.524 . S
C1195 C1187 1.503 . S
C1195 C1194 1.370 . S
C1195 C1196 1.403 . S
C1196 C1195 1.403 . S
C1196 C1197 1.404 . S
C1196 C1199 1.539 . S
C1197 C1193 1.408 . S
C1197 C1196 1.404 . S
C1197 H1209 0.930 . S
C1198 C1194 1.524 . S
C1198 H1210 0.956 . S
C1198 H1211 0.961 . S
C1198 H1212 0.961 . S
C1199 C1196 1.539 . S
C1199 H1213 0.958 . S
C1199 H1214 0.961 . S
C1199 H1215 0.960 . S
H1200 C1184 0.931 . S
H1201 C1189 0.929 . S
H1202 C1190 0.960 . S
H1203 C1190 0.962 . S
H1204 C1190 0.960 . S
H1205 C1191 0.961 . S
H1206 C1191 0.961 . S
H1207 C1191 0.961 . S
H1208 C1192 0.931 . S
H1209 C1197 0.930 . S
H1210 C1198 0.956 . S
H1211 C1198 0.961 . S
H1212 C1198 0.961 . S
H1213 C1199 0.958 . S
H1214 C1199 0.961 . S
H1215 C1199 0.960 . S
C1216 C1217 1.391 . S
C1216 C1218 1.394 . S
C1216 H1232 0.931 . S
C1217 C1216 1.391 . S
C1217 C1221 1.376 . S
C1218 C1216 1.394 . S
C1218 C1219 1.369 . S
C1218 C1222 1.531 . S
C1219 C1218 1.369 . S
C1219 C1220 1.410 . S
C1219 C1227 1.503 . S
C1220 C1219 1.410 . S
C1220 C1221 1.392 . S
C1220 C1223 1.511 . S
C1221 C1217 1.376 . S
C1221 C1220 1.392 . S
C1221 H1233 0.929 . S
C1222 C1218 1.531 . S
C1222 H1234 0.960 . S
C1222 H1235 0.962 . S
C1222 H1236 0.960 . S
C1223 C1220 1.511 . S
C1223 H1237 0.961 . S
C1223 H1238 0.961 . S
C1223 H1239 0.961 . S
C1224 C1225 1.370 . S
C1224 C1226 1.363 . S
C1224 H1240 0.931 . S
C1225 C1224 1.370 . S
C1225 C1229 1.408 . S
C1226 C1224 1.363 . S
C1226 C1227 1.370 . S
C1226 C1230 1.524 . S
C1227 C1219 1.503 . S
C1227 C1226 1.370 . S
C1227 C1228 1.403 . S
C1228 C1227 1.403 . S
C1228 C1229 1.404 . S
C1228 C1231 1.539 . S
C1229 C1225 1.408 . S
C1229 C1228 1.404 . S
C1229 H1241 0.930 . S
C1230 C1226 1.524 . S
C1230 H1242 0.956 . S
C1230 H1243 0.961 . S
C1230 H1244 0.961 . S
C1231 C1228 1.539 . S
C1231 H1245 0.958 . S
C1231 H1246 0.961 . S
C1231 H1247 0.960 . S
H1232 C1216 0.931 . S
H1233 C1221 0.929 . S
H1234 C1222 0.960 . S
H1235 C1222 0.962 . S
H1236 C1222 0.960 . S
H1237 C1223 0.961 . S
H1238 C1223 0.961 . S
H1239 C1223 0.961 . S
H1240 C1224 0.931 . S
H1241 C1229 0.930 . S
H1242 C1230 0.956 . S
H1243 C1230 0.961 . S
H1244 C1230 0.961 . S
H1245 C1231 0.958 . S
H1246 C1231 0.961 . S
H1247 C1231 0.960 . S
C1248 C1249 1.391 . S
C1248 C1250 1.394 . S
C1248 H1264 0.931 . S
C1249 C1248 1.391 . S
C1249 C1253 1.376 . S
C1250 C1248 1.394 . S
C1250 C1251 1.369 . S
C1250 C1254 1.489 1_556 S
C1251 C1250 1.369 . S
C1251 C1252 1.410 . S
C1251 C1259 1.503 . S
C1252 C1251 1.410 . S
C1252 C1253 1.392 . S
C1252 C1255 1.511 . S
C1253 C1249 1.376 . S
C1253 C1252 1.392 . S
C1253 H1265 0.929 . S
C1254 C1250 1.489 1_554 S
C1254 H1266 0.977 . S
C1254 H1267 1.006 . S
C1254 H1268 0.945 1_554 S
C1255 C1252 1.511 . S
C1255 H1269 0.961 . S
C1255 H1270 0.961 . S
C1255 H1271 0.961 . S
C1256 C1257 1.370 . S
C1256 C1258 1.363 . S
C1256 H1272 0.931 . S
C1257 C1256 1.370 . S
C1257 C1261 1.408 . S
C1258 C1256 1.363 . S
C1258 C1259 1.370 1_554 S
C1258 C1262 1.524 . S
C1259 C1251 1.503 . S
C1259 C1258 1.370 1_556 S
C1259 C1260 1.403 . S
C1260 C1259 1.403 . S
C1260 C1261 1.404 1_556 S
C1260 C1263 1.539 . S
C1261 C1257 1.408 . S
C1261 C1260 1.404 1_554 S
C1261 H1273 0.930 . S
C1262 C1258 1.524 . S
C1262 H1274 0.956 . S
C1262 H1275 0.961 . S
C1262 H1276 0.961 . S
C1263 C1260 1.539 . S
C1263 H1277 0.958 . S
C1263 H1278 0.961 . S
C1263 H1279 0.960 . S
H1264 C1248 0.931 . S
H1265 C1253 0.929 . S
H1266 C1254 0.977 . S
H1267 C1254 1.006 . S
H1268 C1254 0.945 1_556 S
H1269 C1255 0.961 . S
H1270 C1255 0.961 . S
H1271 C1255 0.961 . S
H1272 C1256 0.931 . S
H1273 C1261 0.930 . S
H1274 C1262 0.956 . S
H1275 C1262 0.961 . S
H1276 C1262 0.961 . S
H1277 C1263 0.958 . S
H1278 C1263 0.961 . S
H1279 C1263 0.960 . S
C1280 C1281 1.391 . S
C1280 C1282 1.394 . S
C1280 H1296 0.931 . S
C1281 C1280 1.391 . S
C1281 C1285 1.376 . S
C1282 C1280 1.394 . S
C1282 C1283 1.369 . S
C1282 C1286 1.531 . S
C1283 C1282 1.369 . S
C1283 C1284 1.410 . S
C1283 C1291 1.503 . S
C1284 C1283 1.410 . S
C1284 C1285 1.392 . S
C1284 C1287 1.511 . S
C1285 C1281 1.376 . S
C1285 C1284 1.392 . S
C1285 H1297 0.929 . S
C1286 C1282 1.531 . S
C1286 H1298 0.960 . S
C1286 H1299 0.962 . S
C1286 H1300 0.960 . S
C1287 C1284 1.511 . S
C1287 H1301 0.961 . S
C1287 H1302 0.961 . S
C1287 H1303 0.961 . S
C1288 C1289 1.370 . S
C1288 C1290 1.363 . S
C1288 H1304 0.931 . S
C1289 C1288 1.370 . S
C1289 C1293 1.408 . S
C1290 C1288 1.363 . S
C1290 C1291 1.370 . S
C1290 C1294 1.524 . S
C1291 C1283 1.503 . S
C1291 C1290 1.370 . S
C1291 C1292 1.403 . S
C1292 C1291 1.403 . S
C1292 C1293 1.404 . S
C1292 C1295 1.539 . S
C1293 C1289 1.408 . S
C1293 C1292 1.404 . S
C1293 H1305 0.930 . S
C1294 C1290 1.524 . S
C1294 H1306 0.956 . S
C1294 H1307 0.961 . S
C1294 H1308 0.961 . S
C1295 C1292 1.539 . S
C1295 H1309 0.958 . S
C1295 H1310 0.961 . S
C1295 H1311 0.960 . S
H1296 C1280 0.931 . S
H1297 C1285 0.929 . S
H1298 C1286 0.960 . S
H1299 C1286 0.962 . S
H1300 C1286 0.960 . S
H1301 C1287 0.961 . S
H1302 C1287 0.961 . S
H1303 C1287 0.961 . S
H1304 C1288 0.931 . S
H1305 C1293 0.930 . S
H1306 C1294 0.956 . S
H1307 C1294 0.961 . S
H1308 C1294 0.961 . S
H1309 C1295 0.958 . S
H1310 C1295 0.961 . S
H1311 C1295 0.960 . S
C1312 C1313 1.391 . S
C1312 C1314 1.394 . S
C1312 H1328 0.931 . S
C1313 C1312 1.391 . S
C1313 C1317 1.376 . S
C1314 C1312 1.394 . S
C1314 C1315 1.369 . S
C1314 C1318 1.531 . S
C1315 C1314 1.369 . S
C1315 C1316 1.410 . S
C1315 C1323 1.503 . S
C1316 C1315 1.410 . S
C1316 C1317 1.392 . S
C1316 C1319 1.511 . S
C1317 C1313 1.376 . S
C1317 C1316 1.392 . S
C1317 H1329 0.929 . S
C1318 C1314 1.531 . S
C1318 H1330 0.960 . S
C1318 H1331 0.962 . S
C1318 H1332 0.960 . S
C1319 C1316 1.511 . S
C1319 H1333 0.961 . S
C1319 H1334 0.961 . S
C1319 H1335 0.961 . S
C1320 C1321 1.370 . S
C1320 C1322 1.363 . S
C1320 H1336 0.931 . S
C1321 C1320 1.370 . S
C1321 C1325 1.408 . S
C1322 C1320 1.363 . S
C1322 C1323 1.370 . S
C1322 C1326 1.524 . S
C1323 C1315 1.503 . S
C1323 C1322 1.370 . S
C1323 C1324 1.403 . S
C1324 C1323 1.403 . S
C1324 C1325 1.404 . S
C1324 C1327 1.539 . S
C1325 C1321 1.408 . S
C1325 C1324 1.404 . S
C1325 H1337 0.930 . S
C1326 C1322 1.524 . S
C1326 H1338 0.956 . S
C1326 H1339 0.961 . S
C1326 H1340 0.961 . S
C1327 C1324 1.539 . S
C1327 H1341 0.958 . S
C1327 H1342 0.961 . S
C1327 H1343 0.960 . S
H1328 C1312 0.931 . S
H1329 C1317 0.929 . S
H1330 C1318 0.960 . S
H1331 C1318 0.962 . S
H1332 C1318 0.960 . S
H1333 C1319 0.961 . S
H1334 C1319 0.961 . S
H1335 C1319 0.961 . S
H1336 C1320 0.931 . S
H1337 C1325 0.930 . S
H1338 C1326 0.956 . S
H1339 C1326 0.961 . S
H1340 C1326 0.961 . S
H1341 C1327 0.958 . S
H1342 C1327 0.961 . S
H1343 C1327 0.960 . S
C1344 C1345 1.391 . S
C1344 C1346 1.394 . S
C1344 H1360 0.931 . S
C1345 C1344 1.391 . S
C1345 C1349 1.376 . S
C1346 C1344 1.394 . S
C1346 C1347 1.369 . S
C1346 C1350 1.531 . S
C1347 C1346 1.369 . S
C1347 C1348 1.410 . S
C1347 C1355 1.503 . S
C1348 C1347 1.410 . S
C1348 C1349 1.392 . S
C1348 C1351 1.511 . S
C1349 C1345 1.376 . S
C1349 C1348 1.392 . S
C1349 H1361 0.929 . S
C1350 C1346 1.531 . S
C1350 H1362 0.960 . S
C1350 H1363 0.962 . S
C1350 H1364 0.960 . S
C1351 C1348 1.511 . S
C1351 H1365 0.961 . S
C1351 H1366 0.961 . S
C1351 H1367 0.961 . S
C1352 C1353 1.370 . S
C1352 C1354 1.363 . S
C1352 H1368 0.931 . S
C1353 C1352 1.370 . S
C1353 C1357 1.408 . S
C1354 C1352 1.363 . S
C1354 C1355 1.370 . S
C1354 C1358 1.524 . S
C1355 C1347 1.503 . S
C1355 C1354 1.370 . S
C1355 C1356 1.403 . S
C1356 C1355 1.403 . S
C1356 C1357 1.404 . S
C1356 C1359 1.539 . S
C1357 C1353 1.408 . S
C1357 C1356 1.404 . S
C1357 H1369 0.930 . S
C1358 C1354 1.524 . S
C1358 H1370 0.956 . S
C1358 H1371 0.961 . S
C1358 H1372 0.961 . S
C1359 C1356 1.539 . S
C1359 H1373 0.958 . S
C1359 H1374 0.961 . S
C1359 H1375 0.960 . S
H1360 C1344 0.931 . S
H1361 C1349 0.929 . S
H1362 C1350 0.960 . S
H1363 C1350 0.962 . S
H1364 C1350 0.960 . S
H1365 C1351 0.961 . S
H1366 C1351 0.961 . S
H1367 C1351 0.961 . S
H1368 C1352 0.931 . S
H1369 C1357 0.930 . S
H1370 C1358 0.956 . S
H1371 C1358 0.961 . S
H1372 C1358 0.961 . S
H1373 C1359 0.958 . S
H1374 C1359 0.961 . S
H1375 C1359 0.960 . S
C1376 C1377 1.391 . S
C1376 C1378 1.394 . S
C1376 H1392 0.931 . S
C1377 C1376 1.391 . S
C1377 C1381 1.376 . S
C1378 C1376 1.394 . S
C1378 C1379 1.369 . S
C1378 C1382 1.531 . S
C1379 C1378 1.369 . S
C1379 C1380 1.410 . S
C1379 C1387 1.503 . S
C1380 C1379 1.410 . S
C1380 C1381 1.392 . S
C1380 C1383 1.511 . S
C1381 C1377 1.376 . S
C1381 C1380 1.392 . S
C1381 H1393 0.929 . S
C1382 C1378 1.531 . S
C1382 H1394 0.960 . S
C1382 H1395 0.962 . S
C1382 H1396 0.960 . S
C1383 C1380 1.511 . S
C1383 H1397 0.961 . S
C1383 H1398 0.961 . S
C1383 H1399 0.961 . S
C1384 C1385 1.370 . S
C1384 C1386 1.363 . S
C1384 H1400 0.931 . S
C1385 C1384 1.370 . S
C1385 C1389 1.408 . S
C1386 C1384 1.363 . S
C1386 C1387 1.370 . S
C1386 C1390 1.524 . S
C1387 C1379 1.503 . S
C1387 C1386 1.370 . S
C1387 C1388 1.403 . S
C1388 C1387 1.403 . S
C1388 C1389 1.404 . S
C1388 C1391 1.539 . S
C1389 C1385 1.408 . S
C1389 C1388 1.404 . S
C1389 H1401 0.930 . S
C1390 C1386 1.524 . S
C1390 H1402 0.956 . S
C1390 H1403 0.961 . S
C1390 H1404 0.961 . S
C1391 C1388 1.539 . S
C1391 H1405 0.958 . S
C1391 H1406 0.961 . S
C1391 H1407 0.960 . S
H1392 C1376 0.931 . S
H1393 C1381 0.929 . S
H1394 C1382 0.960 . S
H1395 C1382 0.962 . S
H1396 C1382 0.960 . S
H1397 C1383 0.961 . S
H1398 C1383 0.961 . S
H1399 C1383 0.961 . S
H1400 C1384 0.931 . S
H1401 C1389 0.930 . S
H1402 C1390 0.956 . S
H1403 C1390 0.961 . S
H1404 C1390 0.961 . S
H1405 C1391 0.958 . S
H1406 C1391 0.961 . S
H1407 C1391 0.960 . S
C1408 C1409 1.391 . S
C1408 C1410 1.394 . S
C1408 H1424 0.931 . S
C1409 C1408 1.391 . S
C1409 C1413 1.376 . S
C1410 C1408 1.394 . S
C1410 C1411 1.369 . S
C1410 C1414 1.531 . S
C1411 C1410 1.369 . S
C1411 C1412 1.410 . S
C1411 C1419 1.503 . S
C1412 C1411 1.410 . S
C1412 C1413 1.392 . S
C1412 C1415 1.511 . S
C1413 C1409 1.376 . S
C1413 C1412 1.392 . S
C1413 H1425 0.929 . S
C1414 C1410 1.531 . S
C1414 H1426 0.960 . S
C1414 H1427 0.962 . S
C1414 H1428 0.960 . S
C1415 C1412 1.511 . S
C1415 H1429 0.961 . S
C1415 H1430 0.961 . S
C1415 H1431 0.961 . S
C1416 C1417 1.370 . S
C1416 C1418 1.363 . S
C1416 H1432 0.931 . S
C1417 C1416 1.370 . S
C1417 C1421 1.408 . S
C1418 C1416 1.363 . S
C1418 C1419 1.370 . S
C1418 C1422 1.524 . S
C1419 C1411 1.503 . S
C1419 C1418 1.370 . S
C1419 C1420 1.403 . S
C1420 C1419 1.403 . S
C1420 C1421 1.404 . S
C1420 C1423 1.539 . S
C1421 C1417 1.408 . S
C1421 C1420 1.404 . S
C1421 H1433 0.930 . S
C1422 C1418 1.524 . S
C1422 H1434 0.956 . S
C1422 H1435 0.961 . S
C1422 H1436 0.961 . S
C1423 C1420 1.539 . S
C1423 H1437 0.958 . S
C1423 H1438 0.961 . S
C1423 H1439 0.960 . S
H1424 C1408 0.931 . S
H1425 C1413 0.929 . S
H1426 C1414 0.960 . S
H1427 C1414 0.962 . S
H1428 C1414 0.960 . S
H1429 C1415 0.961 . S
H1430 C1415 0.961 . S
H1431 C1415 0.961 . S
H1432 C1416 0.931 . S
H1433 C1421 0.930 . S
H1434 C1422 0.956 . S
H1435 C1422 0.961 . S
H1436 C1422 0.961 . S
H1437 C1423 0.958 . S
H1438 C1423 0.961 . S
H1439 C1423 0.960 . S
C1440 C1441 1.391 . S
C1440 C1442 1.394 . S
C1440 H1456 0.931 . S
C1441 C1440 1.391 . S
C1441 C1445 1.376 . S
C1442 C1440 1.394 . S
C1442 C1443 1.369 . S
C1442 C1446 1.531 . S
C1443 C1442 1.369 . S
C1443 C1444 1.410 . S
C1443 C1451 1.503 . S
C1444 C1443 1.410 . S
C1444 C1445 1.392 . S
C1444 C1447 1.511 . S
C1445 C1441 1.376 . S
C1445 C1444 1.392 . S
C1445 H1457 0.929 . S
C1446 C1442 1.531 . S
C1446 H1458 0.960 . S
C1446 H1459 0.962 . S
C1446 H1460 0.960 . S
C1447 C1444 1.511 . S
C1447 H1461 0.961 . S
C1447 H1462 0.961 . S
C1447 H1463 0.961 . S
C1448 C1449 1.370 . S
C1448 C1450 1.363 . S
C1448 H1464 0.931 . S
C1449 C1448 1.370 . S
C1449 C1453 1.408 . S
C1450 C1448 1.363 . S
C1450 C1451 1.370 . S
C1450 C1454 1.524 . S
C1451 C1443 1.503 . S
C1451 C1450 1.370 . S
C1451 C1452 1.403 . S
C1452 C1451 1.403 . S
C1452 C1453 1.404 . S
C1452 C1455 1.539 . S
C1453 C1449 1.408 . S
C1453 C1452 1.404 . S
C1453 H1465 0.930 . S
C1454 C1450 1.524 . S
C1454 H1466 0.956 . S
C1454 H1467 0.961 . S
C1454 H1468 0.961 . S
C1455 C1452 1.539 . S
C1455 H1469 0.958 . S
C1455 H1470 0.961 . S
C1455 H1471 0.960 . S
H1456 C1440 0.931 . S
H1457 C1445 0.929 . S
H1458 C1446 0.960 . S
H1459 C1446 0.962 . S
H1460 C1446 0.960 . S
H1461 C1447 0.961 . S
H1462 C1447 0.961 . S
H1463 C1447 0.961 . S
H1464 C1448 0.931 . S
H1465 C1453 0.930 . S
H1466 C1454 0.956 . S
H1467 C1454 0.961 . S
H1468 C1454 0.961 . S
H1469 C1455 0.958 . S
H1470 C1455 0.961 . S
H1471 C1455 0.960 . S
C1472 C1473 1.391 . S
C1472 C1474 1.394 . S
C1472 H1488 0.931 . S
C1473 C1472 1.391 . S
C1473 C1477 1.376 . S
C1474 C1472 1.394 . S
C1474 C1475 1.369 . S
C1474 C1478 1.531 1_554 S
C1475 C1474 1.369 . S
C1475 C1476 1.410 . S
C1475 C1483 1.503 1_554 S
C1476 C1475 1.410 . S
C1476 C1477 1.392 . S
C1476 C1479 1.511 . S
C1477 C1473 1.376 . S
C1477 C1476 1.392 . S
C1477 H1489 0.929 . S
C1478 C1474 1.531 1_556 S
C1478 H1490 0.960 . S
C1478 H1491 0.962 . S
C1478 H1492 0.960 . S
C1479 C1476 1.511 . S
C1479 H1493 0.961 . S
C1479 H1494 0.961 . S
C1479 H1495 0.961 . S
C1480 C1481 1.370 . S
C1480 C1482 1.363 . S
C1480 H1496 0.931 . S
C1481 C1480 1.370 . S
C1481 C1485 1.408 . S
C1482 C1480 1.363 . S
C1482 C1483 1.370 . S
C1482 C1486 1.524 . S
C1483 C1475 1.503 1_556 S
C1483 C1482 1.370 . S
C1483 C1484 1.403 . S
C1484 C1483 1.403 . S
C1484 C1485 1.404 . S
C1484 C1487 1.547 . S
C1485 C1481 1.408 . S
C1485 C1484 1.404 . S
C1485 H1497 0.930 . S
C1486 C1482 1.524 . S
C1486 H1498 0.956 . S
C1486 H1499 0.961 . S
C1486 H1500 0.961 . S
C1487 C1484 1.547 . S
C1487 H1501 0.963 . S
C1487 H1502 0.959 1_556 S
C1487 H1503 0.948 1_556 S
H1488 C1472 0.931 . S
H1489 C1477 0.929 . S
H1490 C1478 0.960 . S
H1491 C1478 0.962 . S
H1492 C1478 0.960 . S
H1493 C1479 0.961 . S
H1494 C1479 0.961 . S
H1495 C1479 0.961 . S
H1496 C1480 0.931 . S
H1497 C1485 0.930 . S
H1498 C1486 0.956 . S
H1499 C1486 0.961 . S
H1500 C1486 0.961 . S
H1501 C1487 0.963 . S
H1502 C1487 0.959 1_554 S
H1503 C1487 0.948 1_554 S
C1504 C1505 1.391 . S
C1504 C1506 1.394 . S
C1504 H1520 0.931 . S
C1505 C1504 1.391 . S
C1505 C1509 1.376 . S
C1506 C1504 1.394 . S
C1506 C1507 1.369 . S
C1506 C1510 1.531 . S
C1507 C1506 1.369 . S
C1507 C1508 1.410 . S
C1507 C1515 1.503 . S
C1508 C1507 1.410 . S
C1508 C1509 1.392 . S
C1508 C1511 1.511 . S
C1509 C1505 1.376 . S
C1509 C1508 1.392 . S
C1509 H1521 0.929 . S
C1510 C1506 1.531 . S
C1510 H1522 0.960 . S
C1510 H1523 0.962 . S
C1510 H1524 0.960 . S
C1511 C1508 1.511 . S
C1511 H1525 0.961 . S
C1511 H1526 0.961 . S
C1511 H1527 0.961 . S
C1512 C1513 1.370 . S
C1512 C1514 1.363 . S
C1512 H1528 0.931 . S
C1513 C1512 1.370 . S
C1513 C1517 1.408 . S
C1514 C1512 1.363 . S
C1514 C1515 1.370 . S
C1514 C1518 1.524 . S
C1515 C1507 1.503 . S
C1515 C1514 1.370 . S
C1515 C1516 1.403 . S
C1516 C1515 1.403 . S
C1516 C1517 1.404 . S
C1516 C1519 1.539 . S
C1517 C1513 1.408 . S
C1517 C1516 1.404 . S
C1517 H1529 0.930 . S
C1518 C1514 1.524 . S
C1518 H1530 0.956 . S
C1518 H1531 0.961 . S
C1518 H1532 0.961 . S
C1519 C1516 1.539 . S
C1519 H1533 0.958 . S
C1519 H1534 0.961 . S
C1519 H1535 0.960 . S
H1520 C1504 0.931 . S
H1521 C1509 0.929 . S
H1522 C1510 0.960 . S
H1523 C1510 0.962 . S
H1524 C1510 0.960 . S
H1525 C1511 0.961 . S
H1526 C1511 0.961 . S
H1527 C1511 0.961 . S
H1528 C1512 0.931 . S
H1529 C1517 0.930 . S
H1530 C1518 0.956 . S
H1531 C1518 0.961 . S
H1532 C1518 0.961 . S
H1533 C1519 0.958 . S
H1534 C1519 0.961 . S
H1535 C1519 0.960 . S
C777 C761 1.964 . S
C769 C1 1.536 . S
C801 C169 0.967 . S
C809 C690 1.512 . S
C833 C283 1.725 . S
C841 C704 2.059 . S
C865 C397 0.905 . S
C873 C718 1.390 . S
C905 C732 1.817 . S
C897 C457 1.435 . S
C929 C571 1.084 . S
C937 C747 1.292 . S
C961 C115 1.224 . S
C969 C705 1.403 . S
C993 C229 1.328 . S
C1001 C719 1.817 . S
C1025 C343 1.101 . S
C1033 C733 1.284 . S
C1065 C746 1.924 . S
C1057 C511 1.589 . S
C1097 C760 1.484 . S
C1089 C625 1.044 . S
C1129 C691 2.073 . S
C1121 C55 1.755 . S
C1153 C29 1.182 . S
C1161 C707 1.482 . S
C1185 C125 1.092 . S
C1193 C721 1.952 . S
C1225 C735 1.480 . S
C1217 C239 1.080 . S
C1249 C353 1.099 . S
C1257 C748 1.902 . S
C1289 C762 1.431 . S
C1281 C485 1.146 . S
C1321 C693 1.892 . S
C1313 C599 1.761 . S
C1353 C763 1.878 . S
C1345 C143 1.757 . S
C1377 C257 1.037 . S
C1385 C692 1.478 . S
C1417 C706 1.826 . S
C1409 C371 1.701 . S
C1441 C467 1.088 . S
C1449 C720 1.484 . S
C1473 C581 1.057 . S
C1481 C734 1.899 . S
C1505 C11 1.041 . S
C1513 C749 1.546 . S
