# Generated by pormake.
# Topology zzz, (3,6)-cn, num edge types: 1
# Building blocks:
#     Node 0, Type 0, BuildingBlock: BETDIP_clean_linker_0, # of connection points: 3
#     Node 1, Type 0, BuildingBlock: BETDIP_clean_linker_0, # of connection points: 3
#     Node 2, Type 0, BuildingBlock: BETDIP_clean_linker_0, # of connection points: 3
#     Node 3, Type 0, BuildingBlock: BETDIP_clean_linker_0, # of connection points: 3
#     Node 4, Type 0, BuildingBlock: BETDIP_clean_linker_0, # of connection points: 3
#     Node 5, Type 0, BuildingBlock: BETDIP_clean_linker_0, # of connection points: 3
#     Node 6, Type 0, BuildingBlock: BETDIP_clean_linker_0, # of connection points: 3
#     Node 7, Type 0, BuildingBlock: BETDIP_clean_linker_0, # of connection points: 3
#     Node 8, Type 1, BuildingBlock: PAMTOO_clean_sbu_0, # of connection points: 6
#     Node 9, Type 1, BuildingBlock: PAMTOO_clean_sbu_0, # of connection points: 6
#     Node 10, Type 1, BuildingBlock: PAMTOO_clean_sbu_0, # of connection points: 6
#     Node 11, Type 1, BuildingBlock: PAMTOO_clean_sbu_0, # of connection points: 6
#     Edge 12, Type (0, 1), BuildingBlock: AJUNOK_clean_linker_0, # of connection points: 2
#     Edge 13, Type (0, 1), BuildingBlock: AJUNOK_clean_linker_0, # of connection points: 2
#     Edge 14, Type (0, 1), BuildingBlock: AJUNOK_clean_linker_0, # of connection points: 2
#     Edge 15, Type (0, 1), BuildingBlock: AJUNOK_clean_linker_0, # of connection points: 2
#     Edge 16, Type (0, 1), BuildingBlock: AJUNOK_clean_linker_0, # of connection points: 2
#     Edge 17, Type (0, 1), BuildingBlock: AJUNOK_clean_linker_0, # of connection points: 2
#     Edge 18, Type (0, 1), BuildingBlock: AJUNOK_clean_linker_0, # of connection points: 2
#     Edge 19, Type (0, 1), BuildingBlock: AJUNOK_clean_linker_0, # of connection points: 2
#     Edge 20, Type (0, 1), BuildingBlock: AJUNOK_clean_linker_0, # of connection points: 2
#     Edge 21, Type (0, 1), BuildingBlock: AJUNOK_clean_linker_0, # of connection points: 2
#     Edge 22, Type (0, 1), BuildingBlock: AJUNOK_clean_linker_0, # of connection points: 2
#     Edge 23, Type (0, 1), BuildingBlock: AJUNOK_clean_linker_0, # of connection points: 2
#     Edge 24, Type (0, 1), BuildingBlock: AJUNOK_clean_linker_0, # of connection points: 2
#     Edge 25, Type (0, 1), BuildingBlock: AJUNOK_clean_linker_0, # of connection points: 2
#     Edge 26, Type (0, 1), BuildingBlock: AJUNOK_clean_linker_0, # of connection points: 2
#     Edge 27, Type (0, 1), BuildingBlock: AJUNOK_clean_linker_0, # of connection points: 2
#     Edge 28, Type (0, 1), BuildingBlock: AJUNOK_clean_linker_0, # of connection points: 2
#     Edge 29, Type (0, 1), BuildingBlock: AJUNOK_clean_linker_0, # of connection points: 2
#     Edge 30, Type (0, 1), BuildingBlock: AJUNOK_clean_linker_0, # of connection points: 2
#     Edge 31, Type (0, 1), BuildingBlock: AJUNOK_clean_linker_0, # of connection points: 2
#     Edge 32, Type (0, 1), BuildingBlock: AJUNOK_clean_linker_0, # of connection points: 2
#     Edge 33, Type (0, 1), BuildingBlock: AJUNOK_clean_linker_0, # of connection points: 2
#     Edge 34, Type (0, 1), BuildingBlock: AJUNOK_clean_linker_0, # of connection points: 2
#     Edge 35, Type (0, 1), BuildingBlock: AJUNOK_clean_linker_0, # of connection points: 2
# Relax obj value: 0.287
# Max RMSD: 0.248
# Mean RMSD: 0.131
data_MOF--net-zzz--node1-PAMTOO_clean_sbu_0--node2-BETDIP_clean_linker_0--edge1-AJUNOK_clean_linker_0
_symmetry_space_group_name_H-M    P1
_symmetry_Int_Tables_number       1
_symmetry_cell_setting            triclinic
loop_
_symmetry_equiv_pos_as_xyz
'x, y, z'
_cell_length_a     43.11028
_cell_length_b     35.624059
_cell_length_c     11.633079
_cell_angle_alpha  92.336105
_cell_angle_beta   76.024706
_cell_angle_gamma 86.104638
loop_
_atom_site_label
_atom_site_type_symbol
_atom_site_fract_x
_atom_site_fract_y
_atom_site_fract_z
_atom_type_partial_charge
H0 H 0.82101 0.54295 0.76851 0.0
H1 H 0.79419 0.45633 0.55133 0.0
H2 H 0.87329 0.43422 0.70978 0.0
H3 H 0.81099 0.53309 0.44532 0.0
C4 C 0.78663 0.53439 0.50059 0.0
C5 C 0.82381 0.51396 0.73333 0.0
C6 C 0.84812 0.48874 0.75573 0.0
C7 C 0.80434 0.50203 0.65934 0.0
C8 C 0.80875 0.46488 0.61037 0.0
C9 C 0.83341 0.4399 0.62842 0.0
C10 C 0.85256 0.45208 0.70249 0.0
N11 N 0.78248 0.52793 0.62328 0.0
H12 H 0.98623 0.7749 0.6554 0.0
H13 H 0.05422 0.70792 0.37801 0.0
H14 H 0.07859 0.8137 0.50897 0.0
H15 H 1.01164 0.66035 0.59068 0.0
C16 C 1.00246 0.67109 0.51843 0.0
C17 C 1.0102 0.76986 0.59843 0.0
C18 C 1.03239 0.79725 0.59468 0.0
C19 C 1.01869 0.73649 0.52444 0.0
C20 C 0.0489 0.73162 0.443 0.0
C21 C 0.07053 0.75966 0.4354 0.0
C22 C 0.06264 0.79114 0.51646 0.0
N23 N 0.99533 0.71064 0.51909 0.0
H24 H 0.77151 1.00746 0.55429 0.0
H25 H 0.78834 0.08827 0.28215 0.0
H26 H 0.69398 0.08215 0.50301 0.0
H27 H 0.81955 0.03068 0.19145 0.0
C28 C 0.83433 0.03088 0.25516 0.0
C29 C 0.76302 0.03079 0.51022 0.0
C30 C 0.72998 0.04383 0.5422 0.0
C31 C 0.78467 0.04709 0.41635 0.0
C32 C 0.77262 0.07611 0.35597 0.0
C33 C 0.74011 0.08888 0.38782 0.0
C34 C 0.71944 0.07331 0.48216 0.0
N35 N 0.81795 0.03349 0.3785 0.0
H36 H 0.55305 0.75975 0.5319 0.0
H37 H 0.52041 0.74404 0.21012 0.0
H38 H 0.51781 0.65471 0.44495 0.0
H39 H 0.56041 0.78227 0.14667 0.0
C40 C 0.55366 0.80476 0.21611 0.0
C41 C 0.5426 0.74275 0.47406 0.0
C42 C 0.53538 0.7055 0.50205 0.0
C43 C 0.53715 0.75738 0.36821 0.0
C44 C 0.52434 0.73414 0.29259 0.0
C45 C 0.51727 0.6974 0.32114 0.0
C46 C 0.52221 0.68378 0.42612 0.0
N47 N 0.54506 0.79474 0.33701 0.0
H48 H 0.24177 0.4833 0.03942 0.0
H49 H 0.26779 0.57039 0.25904 0.0
H50 H 0.17942 0.58423 0.15314 0.0
H51 H 0.31999 0.54588 0.12095 0.0
C52 C 0.3154 0.51933 0.16249 0.0
C53 C 0.2369 0.51099 0.08501 0.0
C54 C 0.20863 0.53334 0.08332 0.0
C55 C 0.25903 0.52485 0.14521 0.0
C56 C 0.25188 0.5603 0.20753 0.0
C57 C 0.22305 0.58148 0.21257 0.0
C58 C 0.20223 0.5684 0.14699 0.0
N59 N 0.28719 0.50231 0.15138 0.0
H60 H 0.08207 0.2663 0.13942 0.0
H61 H 1.00812 0.32649 0.41333 0.0
H62 H 0.98743 0.22875 0.22519 0.0
H63 H 0.05893 0.379 0.22885 0.0
C64 C 0.06317 0.36567 0.30637 0.0
C65 C 0.05716 0.2706 0.18791 0.0
C66 C 0.03501 0.24535 0.16755 0.0
C67 C 0.04689 0.30143 0.27196 0.0
C68 C 1.01506 0.30518 0.3408 0.0
C69 C 0.9934 0.27878 0.3261 0.0
C70 C 1.00334 0.25033 0.23502 0.0
N71 N 0.06933 0.32578 0.29859 0.0
H72 H 0.29942 0.03625 0.22655 0.0
H73 H 0.27966 0.95541 0.49817 0.0
H74 H 0.37603 0.9655 0.30176 0.0
H75 H 0.23486 0.95133 0.42064 0.0
C76 C 0.22729 0.98127 0.43158 0.0
C77 C 0.30748 1.01383 0.27515 0.0
C78 C 0.34073 1.00214 0.25219 0.0
C79 C 0.28473 0.99597 0.36163 0.0
C80 C 0.29608 0.96785 0.42703 0.0
C81 C 0.3288 0.95655 0.40444 0.0
C82 C 0.35053 0.97342 0.31644 0.0
N83 N 0.25091 1.00709 0.38694 0.0
H84 H 0.52498 0.26253 0.22575 0.0
H85 H 0.55596 0.27968 0.55003 0.0
H86 H 0.5497 0.37174 0.33032 0.0
H87 H 0.58266 0.21869 0.47011 0.0
C88 C 0.56013 0.20673 0.46964 0.0
C89 C 0.53343 0.28057 0.28695 0.0
C90 C 0.53668 0.31916 0.26567 0.0
C91 C 0.54168 0.26546 0.38783 0.0
C92 C 0.55169 0.28985 0.46826 0.0
C93 C 0.55484 0.32785 0.44623 0.0
C94 C 0.54785 0.34194 0.34488 0.0
N95 N 0.53889 0.22647 0.41123 0.0
Dy96 Dy 1.02082 0.03898 0.76104 0.0
Dy97 Dy 0.04721 1.00671 0.98005 0.0
C98 C 0.09509 1.01273 0.72428 0.0
O99 O 1.03156 0.97699 0.7154 0.0
O100 O 1.02735 0.95774 0.90341 0.0
O101 O 1.0245 0.07429 0.61275 0.0
O102 O 0.98443 0.04 0.66134 0.0
O103 O 0.99598 0.02847 0.06791 0.0
O104 O 0.97765 0.02555 0.89939 0.0
O105 O 0.05641 0.06795 0.98085 0.0
O106 O 1.01868 0.08916 0.88549 0.0
O107 O 0.0422 0.97664 0.14013 0.0
O108 O 0.08725 0.99916 0.06056 0.0
C109 C 1.02765 0.95037 0.79161 0.0
O110 O 0.07463 0.0385 0.70054 0.0
O111 O 0.08597 0.99115 0.81345 0.0
C112 C 0.97487 0.09975 0.59105 0.0
C113 C 0.94412 0.17074 0.57208 0.0
C114 C 0.94525 0.15809 0.68412 0.0
C115 C 0.96059 0.12282 0.69352 0.0
C116 C 0.97135 0.11077 0.48069 0.0
C117 C 0.956 0.14586 0.47118 0.0
C118 C 0.99669 0.06674 0.59625 0.0
C119 C 0.97203 0.02791 0.0158 0.0
C120 C 0.0393 0.09578 0.94908 0.0
C121 C 0.08928 0.94004 0.14211 0.0
C122 C 0.11283 0.8653 0.16004 0.0
C123 C 0.10774 0.89202 0.25695 0.0
C124 C 0.0961 0.92905 0.2479 0.0
C125 C 0.09603 0.91428 0.0429 0.0
C126 C 0.10775 0.87717 0.05175 0.0
C127 C 0.0725 0.97708 0.1387 0.0
H128 H 0.93652 0.17663 0.76319 0.0
H129 H 0.96309 0.11461 0.7797 0.0
H130 H 0.98235 0.09336 0.40075 0.0
H131 H 0.95637 0.15483 0.38304 0.0
H132 H 0.11031 0.88372 0.34292 0.0
H133 H 0.09083 0.94852 0.32542 0.0
H134 H 0.09079 0.92237 0.96037 0.0
H135 H 0.11106 0.85723 0.97614 0.0
Dy136 Dy 0.5324 0.9894 0.79489 0.0
Dy137 Dy 0.54092 0.04215 0.01513 0.0
C138 C 0.53749 0.07721 0.76742 0.0
O139 O 0.58451 1.00042 0.73706 0.0
O140 O 0.59198 0.02444 0.91444 0.0
O141 O 0.52868 0.97614 0.61608 0.0
O142 O 0.52327 0.93312 0.74425 0.0
O143 O 0.53175 0.98456 0.08361 0.0
O144 O 0.55574 0.95352 0.90771 0.0
O145 O 0.48751 0.04844 0.03418 0.0
O146 O 0.48329 0.99629 0.9198 0.0
O147 O 0.55639 0.04802 0.17729 0.0
O148 O 0.53481 0.09658 0.1104 0.0
C149 C 0.60351 1.01183 0.80278 0.0
O150 O 0.52203 0.04841 0.74403 0.0
O151 O 0.55166 0.07676 0.85559 0.0
C152 C 0.4876 0.93508 0.62333 0.0
C153 C 0.42528 0.91952 0.61114 0.0
C154 C 0.43219 0.9564 0.63851 0.0
C155 C 0.46286 0.96399 0.6459 0.0
C156 C 0.48108 0.89819 0.59589 0.0
C157 C 0.4501 0.89043 0.58957 0.0
C158 C 0.51898 0.94285 0.64234 0.0
C159 C 0.54509 0.95333 0.02282 0.0
C160 C 0.46987 0.02403 0.99765 0.0
C161 C 0.57789 0.10545 0.19868 0.0
C162 C 0.63693 0.13063 0.21786 0.0
C163 C 0.62842 0.13101 0.10868 0.0
C164 C 0.59906 0.11839 0.09906 0.0
C165 C 0.58553 0.10729 0.30872 0.0
C166 C 0.61462 0.1201 0.31863 0.0
C167 C 0.55064 0.08457 0.18598 0.0
H168 H 0.41415 0.97986 0.65064 0.0
H169 H 0.46719 0.99258 0.66943 0.0
H170 H 0.49986 0.87541 0.58035 0.0
H171 H 0.44561 0.86186 0.56672 0.0
H172 H 0.64522 0.13885 0.02973 0.0
H173 H 0.59378 0.1166 0.01262 0.0
H174 H 0.56998 0.09634 0.38538 0.0
H175 H 0.62076 0.11872 0.40346 0.0
Dy176 Dy 0.57059 0.51518 0.92857 0.0
Dy177 Dy 0.50066 0.5095 0.84071 0.0
C178 C 0.52769 0.4435 0.98753 0.0
O179 O 0.58033 0.46496 0.80062 0.0
O180 O 0.54491 0.48927 0.70261 0.0
O181 O 0.58705 0.5229 0.08714 0.0
O182 O 0.62199 0.51961 0.91367 0.0
O183 O 0.51524 0.56742 0.80088 0.0
O184 O 0.5689 0.5624 0.80415 0.0
O185 O 0.49103 0.55971 0.96909 0.0
O186 O 0.52652 0.53561 0.0672 0.0
O187 O 0.48456 0.50188 0.68123 0.0
O188 O 0.44927 0.5056 0.85402 0.0
C189 C 0.56548 0.46201 0.71543 0.0
O190 O 0.55599 0.45727 0.96904 0.0
O191 O 0.50242 0.4619 0.96387 0.0
C192 C 0.64207 0.52933 0.09422 0.0
C193 C 0.68805 0.53436 0.23133 0.0
C194 C 0.65628 0.54969 0.27622 0.0
C195 C 0.63356 0.54702 0.20895 0.0
C196 C 0.67403 0.51528 0.04683 0.0
C197 C 0.69676 0.51767 0.11477 0.0
C198 C 0.61696 0.52335 0.02938 0.0
C199 C 0.54363 0.58097 0.78121 0.0
C200 C 0.50586 0.56276 0.05439 0.0
C201 C 0.42959 0.49604 0.67257 0.0
C202 C 0.38585 0.4952 0.52596 0.0
C203 C 0.41624 0.47556 0.48898 0.0
C204 C 0.43791 0.47606 0.56122 0.0
C205 C 0.39859 0.51406 0.71254 0.0
C206 C 0.37701 0.51394 0.63936 0.0
C207 C 0.45454 0.50191 0.7382 0.0
H208 H 0.64887 0.56372 0.36371 0.0
H209 H 0.60916 0.55852 0.24748 0.0
H210 H 0.68123 0.5014 0.95881 0.0
H211 H 0.721 0.50553 0.07707 0.0
H212 H 0.42391 0.46165 0.40126 0.0
H213 H 0.46169 0.46201 0.52784 0.0
H214 H 0.39166 0.52992 0.79746 0.0
H215 H 0.35378 0.52951 0.66969 0.0
Dy216 Dy 1.03188 0.54997 0.85092 0.0
Dy217 Dy 1.02156 0.47716 0.01653 0.0
C218 C 0.04344 0.46573 0.73308 0.0
O219 O 0.9844 0.53188 0.83577 0.0
O220 O 0.97204 0.49543 0.99723 0.0
O221 O 0.03555 0.57904 0.68931 0.0
O222 O 0.0373 0.60967 0.8516 0.0
O223 O 1.02501 0.52831 0.1303 0.0
O224 O 1.00089 0.56902 0.02912 0.0
O225 O 0.07479 0.47998 0.96819 0.0
O226 O 0.07726 0.54104 0.91252 0.0
O227 O 1.00654 0.45686 0.19155 0.0
O228 O 1.02605 0.41722 0.04111 0.0
C229 C 0.96388 0.51328 0.91027 0.0
O230 O 0.05369 0.4998 0.72709 0.0
O231 O 1.02524 0.4547 0.83145 0.0
C232 C 0.06866 0.63003 0.67212 0.0
C233 C 0.12687 0.65487 0.54407 0.0
C234 C 0.11742 0.66122 0.66794 0.0
C235 C 0.08844 0.6489 0.73172 0.0
C236 C 0.07657 0.62765 0.54784 0.0
C237 C 0.10519 0.64021 0.48442 0.0
C238 C 0.04094 0.61094 0.73741 0.0
C239 C 1.0096 0.561 0.12586 0.0
C240 C 0.09063 0.51009 0.94448 0.0
C241 C 0.98745 0.39676 0.20512 0.0
C242 C 0.93108 0.36467 0.31967 0.0
C243 C 0.95256 0.37699 0.38444 0.0
C244 C 0.98033 0.39296 0.32767 0.0
C245 C 0.96819 0.38069 0.13781 0.0
C246 C 0.94032 0.36436 0.19481 0.0
C247 C 1.01257 0.42151 0.1544 0.0
H248 H 0.13356 0.67282 0.71585 0.0
H249 H 0.0826 0.65209 0.82769 0.0
H250 H 0.06171 0.61374 0.49938 0.0
H251 H 0.11177 0.6347 0.38898 0.0
H252 H 0.94638 0.37837 0.48049 0.0
H253 H 0.99495 0.40504 0.38112 0.0
H254 H 0.97336 0.3831 0.04267 0.0
H255 H 0.9244 0.35493 0.1423 0.0
C256 C 0.17764 0.96421 0.57373 0.0
C257 C 0.1938 0.99191 0.50489 0.0
C258 C 0.14612 0.97138 0.64396 0.0
C259 C 0.12871 1.00648 0.64732 0.0
H260 H 0.18961 0.93649 0.57409 0.0
H261 H 0.1352 0.94887 0.69513 0.0
S262 S 0.15954 0.08891 0.48234 0.0
N263 N 0.18984 0.05618 0.44477 0.0
N264 N 0.13031 0.06956 0.5742 0.0
C265 C 0.14442 0.03452 0.57797 0.0
C266 C 0.17696 0.02733 0.50772 0.0
C267 C 0.57179 0.16403 0.62012 0.0
C268 C 0.55218 0.17361 0.54333 0.0
C269 C 0.56646 0.13329 0.69188 0.0
C270 C 0.54149 0.10997 0.68949 0.0
H271 H 0.59163 0.18062 0.62521 0.0
H272 H 0.58255 0.12755 0.74875 0.0
S273 S 0.48382 0.12161 0.49965 0.0
N274 N 0.50686 0.15687 0.46737 0.0
N275 N 0.49716 0.09831 0.60038 0.0
C276 C 0.52174 0.11888 0.61194 0.0
C277 C 0.52691 0.15089 0.53974 0.0
C278 C 0.34049 0.54197 0.32115 0.0
C279 C 0.33111 0.51144 0.26046 0.0
C280 C 0.35688 0.53636 0.41035 0.0
C281 C 0.36526 0.49991 0.44062 0.0
H282 H 0.33524 0.57058 0.29899 0.0
H283 H 0.36405 0.56077 0.4531 0.0
S284 S 0.34629 0.41037 0.30862 0.0
N285 N 0.33075 0.44342 0.23853 0.0
N286 N 0.36264 0.43269 0.40366 0.0
C287 C 0.35585 0.46905 0.38122 0.0
C288 C 0.33844 0.47485 0.29198 0.0
C289 C 0.06156 0.42902 0.40914 0.0
C290 C 0.06112 0.38967 0.41644 0.0
C291 C 0.05702 0.45334 0.5112 0.0
C292 C 0.05112 0.43934 0.62523 0.0
H293 H 0.06497 0.44123 0.32359 0.0
H294 H 0.05705 0.48342 0.50074 0.0
S295 S 0.04829 0.33837 0.6933 0.0
N296 N 0.05534 0.33775 0.54728 0.0
N297 N 0.04608 0.3832 0.73881 0.0
C298 C 0.05109 0.39993 0.63363 0.0
C299 C 0.05628 0.37515 0.52946 0.0
C300 C 0.88093 0.02612 0.07981 0.0
C301 C 0.87002 0.02939 0.2042 0.0
C302 C 0.91351 0.02579 0.02223 0.0
C303 C 0.93747 0.02868 0.08535 0.0
H304 H 0.86393 0.02396 0.0252 0.0
H305 H 0.91978 0.02322 0.92616 0.0
S306 S 0.92206 0.03794 0.41434 0.0
N307 N 0.88595 0.03571 0.39028 0.0
N308 N 0.94752 0.03494 0.28221 0.0
C309 C 0.92706 0.03188 0.2107 0.0
C310 C 0.89339 0.03226 0.26993 0.0
C311 C 0.54478 0.84793 0.06259 0.0
C312 C 0.54996 0.84382 0.17643 0.0
C313 C 0.54289 0.8834 0.01546 0.0
C314 C 0.54614 0.9166 0.07979 0.0
H315 H 0.54228 0.82332 0.00865 0.0
H316 H 0.53884 0.88472 0.9273 0.0
S317 S 0.56421 0.92113 0.37537 0.0
N318 N 0.5607 0.87587 0.34921 0.0
N319 N 0.55709 0.94282 0.26044 0.0
C320 C 0.55156 0.91306 0.19365 0.0
C321 C 0.55351 0.87664 0.24199 0.0
C322 C 0.7668 0.54532 0.31975 0.0
C323 C 0.75985 0.53679 0.43992 0.0
C324 C 0.74346 0.54495 0.25402 0.0
C325 C 0.71206 0.53576 0.30528 0.0
H326 H 0.79075 0.55197 0.27534 0.0
H327 H 0.75016 0.55191 0.16198 0.0
S328 S 0.68151 0.51023 0.61701 0.0
N329 N 0.71916 0.51883 0.60811 0.0
N330 N 0.67546 0.51714 0.48436 0.0
C331 C 0.70465 0.52739 0.4261 0.0
C332 C 0.72847 0.5281 0.49341 0.0
C333 C 1.00376 0.60538 0.43415 0.0
C334 C 1.00043 0.64431 0.41921 0.0
C335 C 1.00598 0.5787 0.33978 0.0
C336 C 1.00441 0.58982 0.22655 0.0
H337 H 1.00539 0.59537 0.51925 0.0
H338 H 1.00934 0.54911 0.35559 0.0
S339 S 0.99431 0.68851 0.14124 0.0
N340 N 0.99468 0.69274 0.28274 0.0
N341 N 0.99813 0.64278 0.10595 0.0
C342 C 0.99977 0.62873 0.21137 0.0
C343 C 0.99789 0.65594 0.30749 0.0
C344 C 0.97172 0.2659 0.53495 0.0
C345 C 0.96537 0.27221 0.42398 0.0
C346 C 0.95906 0.23577 0.59922 0.0
C347 C 0.9396 0.2117 0.55453 0.0
H348 H 0.99089 0.2793 0.56173 0.0
H349 H 0.96896 0.22785 0.67233 0.0
S350 S 0.90202 0.23087 0.30635 0.0
N351 N 0.92792 0.26327 0.30101 0.0
N352 N 0.90431 0.20606 0.42147 0.0
C353 C 0.92647 0.2244 0.46234 0.0
C354 C 0.93915 0.25531 0.39752 0.0
C355 C 0.36716 0.90406 0.42677 0.0
C356 C 0.34233 0.93148 0.48147 0.0
C357 C 0.39277 0.89558 0.47819 0.0
C358 C 0.39364 0.91353 0.58715 0.0
H359 H 0.36934 0.8937 0.33603 0.0
H360 H 0.41366 0.87896 0.42494 0.0
S361 S 0.32766 0.9741 0.78749 0.0
N362 N 0.3155 0.96756 0.66445 0.0
N363 N 0.36265 0.94941 0.76506 0.0
C364 C 0.36558 0.93415 0.65357 0.0
C365 C 0.33992 0.94358 0.59982 0.0
C366 C 0.58932 0.37047 0.52635 0.0
C367 C 0.55945 0.35551 0.53653 0.0
C368 C 0.59171 0.40434 0.58912 0.0
C369 C 0.56407 0.4246 0.65942 0.0
H370 H 0.61054 0.35698 0.46505 0.0
H371 H 0.61485 0.41575 0.57739 0.0
S372 S 0.48079 0.39581 0.71886 0.0
N373 N 0.50241 0.36183 0.62773 0.0
N374 N 0.50645 0.42602 0.74081 0.0
C375 C 0.53441 0.40897 0.67327 0.0
C376 C 0.53221 0.37422 0.6129 0.0
C377 C 0.19364 0.64452 0.27602 0.0
C378 C 0.2108 0.61262 0.30428 0.0
C379 C 0.16912 0.66439 0.36279 0.0
C380 C 0.16108 0.65255 0.47946 0.0
H381 H 0.19629 0.65106 0.18416 0.0
H382 H 0.15344 0.68527 0.33475 0.0
S383 S 0.20615 0.57919 0.60545 0.0
N384 N 0.22376 0.57668 0.4624 0.0
N385 N 0.17784 0.61405 0.62506 0.0
C386 C 0.1823 0.62582 0.51287 0.0
C387 C 0.20718 0.60556 0.42471 0.0
C388 C 0.08283 0.7714 0.22439 0.0
C389 C 0.09497 0.76423 0.32397 0.0
C390 C 0.09287 0.8016 0.15504 0.0
C391 C 0.11582 0.82452 0.18205 0.0
H392 H 0.06147 0.75875 0.21358 0.0
H393 H 0.07913 0.81022 0.09281 0.0
S394 S 0.16609 0.80364 0.39214 0.0
N395 N 0.13928 0.77199 0.41533 0.0
N396 N 0.15865 0.82866 0.28385 0.0
C397 C 0.13363 0.81112 0.26062 0.0
C398 C 0.12338 0.78031 0.33086 0.0
C399 C 0.70361 0.14338 0.36519 0.0
C400 C 0.72513 0.1126 0.31141 0.0
C401 C 0.67662 0.15352 0.32285 0.0
C402 C 0.67055 0.13325 0.22534 0.0
H403 H 0.70524 0.15616 0.44947 0.0
H404 H 0.6585 0.17411 0.37514 0.0
S405 S 0.72452 0.05755 0.03516 0.0
N406 N 0.74249 0.0677 0.14152 0.0
N407 N 0.69181 0.08667 0.06143 0.0
C408 C 0.69475 0.10689 0.15939 0.0
C409 C 0.72221 0.09661 0.20261 0.0
C410 C 0.48238 0.65407 0.24529 0.0
C411 C 0.51218 0.66946 0.23222 0.0
C412 C 0.47984 0.62018 0.18283 0.0
C413 C 0.50729 0.60023 0.11013 0.0
H414 H 0.46136 0.66731 0.30827 0.0
H415 H 0.45676 0.6085 0.19662 0.0
S416 S 0.5904 0.6297 0.04466 0.0
N417 N 0.56897 0.6636 0.13665 0.0
N418 N 0.5647 0.59925 0.02499 0.0
C419 C 0.53688 0.61615 0.09405 0.0
C420 C 0.5392 0.651 0.15377 0.0
C421 C 0.84959 0.40973 0.42456 0.0
C422 C 0.84512 0.40582 0.54722 0.0
C423 C 0.87481 0.38913 0.34351 0.0
C424 C 0.89666 0.36481 0.38297 0.0
H425 H 0.837 0.4326 0.39145 0.0
H426 H 0.8801 0.39728 0.25299 0.0
S427 S 0.88489 0.33115 0.68659 0.0
N428 N 0.85615 0.36524 0.69813 0.0
N429 N 0.9046 0.32753 0.54547 0.0
C430 C 0.88758 0.35422 0.50083 0.0
C431 C 0.86148 0.37472 0.58341 0.0
C432 C 0.06087 0.17954 0.12326 0.0
C433 C 0.04393 0.21042 0.08847 0.0
C434 C 0.06031 0.14278 0.07449 0.0
C435 C 0.04251 0.13544 0.98989 0.0
H436 H 0.07273 0.18339 0.19457 0.0
H437 H 0.07269 0.11978 0.10782 0.0
S438 S 0.99675 0.20782 0.86189 0.0
N439 N 1.01109 0.23199 0.95863 0.0
N440 N 1.00994 0.16346 0.86639 0.0
C441 C 1.02713 0.16665 0.9495 0.0
C442 C 1.02791 0.20392 0.99878 0.0
C443 C 0.38239 0.99861 0.05986 0.0
C444 C 0.36744 0.01898 0.16767 0.0
C445 C 0.41482 1.00206 1.00235 0.0
C446 C 0.43408 0.02587 0.05028 0.0
H447 H 0.36972 0.97736 0.02495 0.0
H448 H 0.42528 0.98426 0.92283 0.0
S449 S 0.40559 0.08782 0.32607 0.0
N450 N 0.37384 0.06569 0.31569 0.0
N451 N 0.4343 0.07269 0.20837 0.0
C452 C 0.41869 0.04845 0.15362 0.0
C453 C 0.38562 0.04488 0.21187 0.0
C454 C 0.55488 0.34721 0.0725 0.0
C455 C 0.52897 0.33855 0.164 0.0
C456 C 0.55321 0.37987 0.00984 0.0
C457 C 0.5255 0.40524 0.03554 0.0
H458 H 0.57778 0.3309 0.05816 0.0
H459 H 0.57463 0.38653 0.94592 0.0
S460 S 0.44903 0.39152 0.25149 0.0
N461 N 0.47337 0.35512 0.26611 0.0
N462 N 0.46988 0.4161 0.14643 0.0
C463 C 0.4982 0.39462 0.11706 0.0
C464 C 0.50004 0.36137 0.18165 0.0
C465 C 0.17243 0.54407 0.94704 0.0
C466 C 0.18346 0.52052 0.02567 0.0
C467 C 0.14331 0.53921 0.91639 0.0
C468 C 0.1238 0.51054 0.96306 0.0
H469 H 0.18558 0.5679 0.91427 0.0
H470 H 0.13544 0.55915 0.85937 0.0
S471 S 0.14293 0.43966 0.16702 0.0
N472 N 0.17352 0.46625 0.14464 0.0
N473 N 0.11899 0.45659 0.08671 0.0
C474 C 0.13557 0.48528 0.03615 0.0
C475 C 0.16531 0.49038 0.06746 0.0
C476 C 1.02186 0.86645 0.58621 0.0
C477 C 1.0238 0.83532 0.65554 0.0
C478 C 1.02213 0.90342 0.6321 0.0
C479 C 1.02449 0.91092 0.74941 0.0
H480 H 1.02181 0.86198 0.49353 0.0
H481 H 1.0215 0.92617 0.57349 0.0
S482 S 1.02852 0.83883 0.96913 0.0
N483 N 1.02694 0.81408 0.84778 0.0
N484 N 1.02708 0.88346 0.93598 0.0
C485 C 1.02502 0.87994 0.82139 0.0
C486 C 1.02478 0.8422 0.774 0.0
C487 C 0.68917 0.04343 0.73695 0.0
C488 C 0.70396 0.02544 0.62502 0.0
C489 C 0.65752 0.03705 0.7973 0.0
C490 C 0.63884 1.01308 0.74701 0.0
H491 H 0.70128 0.06479 0.77407 0.0
H492 H 0.64694 0.05304 0.88038 0.0
S493 S 0.66734 0.95698 0.45963 0.0
N494 N 0.69821 0.98071 0.47048 0.0
N495 N 0.63907 0.96883 0.58178 0.0
C496 C 0.65411 0.99327 0.63827 0.0
C497 C 0.68647 0.9994 0.57807 0.0
C498 C 0.51671 0.67713 0.69467 0.0
C499 C 0.54275 0.68573 0.60359 0.0
C500 C 0.51825 0.64454 0.75769 0.0
C501 C 0.54592 0.61914 0.73263 0.0
H502 H 0.49386 0.6935 0.7086 0.0
H503 H 0.49676 0.63798 0.82142 0.0
S504 S 0.62261 0.63255 0.51751 0.0
N505 N 0.5984 0.669 0.50233 0.0
N506 N 0.6016 0.60807 0.62249 0.0
C507 C 0.57332 0.62964 0.65135 0.0
C508 C 0.57164 0.66286 0.5865 0.0
C509 C 0.89169 0.53008 0.77664 0.0
C510 C 0.87261 0.50067 0.81847 0.0
C511 C 0.92032 0.53506 0.81146 0.0
C512 C 0.93104 0.51093 0.88988 0.0
H513 H 0.88565 0.54777 0.71037 0.0
H514 H 0.93481 0.55713 0.77247 0.0
S515 S 0.88786 0.4318 0.03278 0.0
N516 N 0.86489 0.44912 0.94979 0.0
N517 N 0.91854 0.45812 0.01463 0.0
C518 C 0.91098 0.48296 0.93815 0.0
C519 C 0.88188 0.47796 0.90265 0.0
loop_
_geom_bond_atom_site_label_1
_geom_bond_atom_site_label_2
_geom_bond_distance
_geom_bond_site_symmetry_2
_ccdc_geom_bond_type
H0 C5 0.930 . S
H1 C8 0.930 . S
H2 C10 0.930 . S
H3 C4 1.016 . S
C4 H3 1.016 . S
C4 N11 1.286 . S
C5 H0 0.930 . S
C5 C6 1.397 . S
C5 C7 1.361 . S
C6 C5 1.397 . S
C6 C10 1.390 . S
C7 C5 1.361 . S
C7 C8 1.393 . S
C7 N11 1.413 . S
C8 H1 0.930 . S
C8 C7 1.393 . S
C8 C9 1.399 . S
C9 C8 1.399 . S
C9 C10 1.381 . S
C10 H2 0.930 . S
C10 C6 1.390 . S
C10 C9 1.381 . S
N11 C4 1.286 . S
N11 C7 1.413 . S
H12 C17 0.930 . S
H13 C20 0.930 . S
H14 C22 0.930 . S
H15 C16 1.036 . S
C16 H15 1.036 . S
C16 N23 1.260 1_655 S
C17 H12 0.930 . S
C17 C18 1.397 . S
C17 C19 1.361 . S
C18 C17 1.397 . S
C18 C22 1.390 1_455 S
C19 C17 1.361 . S
C19 C20 1.393 . S
C19 N23 1.413 . S
C20 H13 0.930 . S
C20 C19 1.393 . S
C20 C21 1.400 . S
C21 C20 1.400 . S
C21 C22 1.384 1_455 S
C22 H14 0.930 . S
C22 C18 1.390 1_655 S
C22 C21 1.384 1_655 S
N23 C16 1.260 1_455 S
N23 C19 1.413 . S
H24 C29 0.930 . S
H25 C32 0.930 . S
H26 C34 0.930 . S
H27 C28 1.016 . S
C28 H27 1.016 . S
C28 N35 1.286 1_565 S
C29 H24 0.930 . S
C29 C30 1.397 . S
C29 C31 1.361 . S
C30 C29 1.397 . S
C30 C34 1.390 1_545 S
C31 C29 1.361 . S
C31 C32 1.393 . S
C31 N35 1.413 . S
C32 H25 0.930 . S
C32 C31 1.393 . S
C32 C33 1.405 . S
C33 C32 1.405 . S
C33 C34 1.376 1_545 S
C34 H26 0.930 . S
C34 C30 1.390 1_565 S
C34 C33 1.376 1_565 S
N35 C28 1.286 1_545 S
N35 C31 1.413 . S
H36 C41 0.930 . S
H37 C44 0.930 . S
H38 C46 0.930 . S
H39 C40 1.016 . S
C40 H39 1.016 . S
C40 N47 1.286 . S
C41 H36 0.930 . S
C41 C42 1.397 . S
C41 C43 1.361 . S
C42 C41 1.397 . S
C42 C46 1.390 . S
C43 C41 1.361 . S
C43 C44 1.393 . S
C43 N47 1.413 . S
C44 H37 0.930 . S
C44 C43 1.393 . S
C44 C45 1.399 . S
C45 C44 1.399 . S
C45 C46 1.381 . S
C46 H38 0.930 . S
C46 C42 1.390 . S
C46 C45 1.381 . S
N47 C40 1.286 . S
N47 C43 1.413 . S
H48 C53 0.930 . S
H49 C56 0.930 . S
H50 C58 0.930 . S
H51 C52 1.016 . S
C52 H51 1.016 . S
C52 N59 1.286 1_554 S
C53 H48 0.930 . S
C53 C54 1.397 . S
C53 C55 1.361 . S
C54 C53 1.397 . S
C54 C58 1.390 . S
C55 C53 1.361 . S
C55 C56 1.393 1_556 S
C55 N59 1.413 . S
C56 H49 0.930 . S
C56 C55 1.393 1_554 S
C56 C57 1.399 . S
C57 C56 1.399 . S
C57 C58 1.381 1_554 S
C58 H50 0.930 . S
C58 C54 1.390 . S
C58 C57 1.381 1_556 S
N59 C52 1.286 1_556 S
N59 C55 1.413 . S
H60 C65 0.930 1_556 S
H61 C68 0.930 . S
H62 C70 0.930 . S
H63 C64 1.021 . S
C64 H63 1.021 . S
C64 N71 1.279 1_655 S
C65 H60 0.930 1_554 S
C65 C66 1.397 . S
C65 C67 1.361 . S
C66 C65 1.397 . S
C66 C70 1.390 1_455 S
C67 C65 1.361 . S
C67 C68 1.393 . S
C67 N71 1.413 . S
C68 H61 0.930 . S
C68 C67 1.393 . S
C68 C69 1.408 . S
C69 C68 1.408 . S
C69 C70 1.370 1_455 S
C70 H62 0.930 . S
C70 C66 1.390 1_655 S
C70 C69 1.370 1_655 S
N71 C64 1.279 1_455 S
N71 C67 1.413 . S
H72 C77 0.930 . S
H73 C80 0.930 . S
H74 C82 0.930 . S
H75 C76 1.016 . S
C76 H75 1.016 . S
C76 N83 1.286 1_565 S
C77 H72 0.930 . S
C77 C78 1.397 . S
C77 C79 1.361 . S
C78 C77 1.397 . S
C78 C82 1.390 1_545 S
C79 C77 1.361 . S
C79 C80 1.393 . S
C79 N83 1.413 . S
C80 H73 0.930 . S
C80 C79 1.393 . S
C80 C81 1.401 . S
C81 C80 1.401 . S
C81 C82 1.382 1_545 S
C82 H74 0.930 . S
C82 C78 1.390 1_565 S
C82 C81 1.382 1_565 S
N83 C76 1.286 1_545 S
N83 C79 1.413 . S
H84 C89 0.930 . S
H85 C92 0.930 . S
H86 C94 0.930 . S
H87 C88 1.016 . S
C88 H87 1.016 . S
C88 N95 1.286 . S
C89 H84 0.930 . S
C89 C90 1.397 . S
C89 C91 1.361 . S
C90 C89 1.397 . S
C90 C94 1.390 . S
C91 C89 1.361 . S
C91 C92 1.393 . S
C91 N95 1.413 . S
C92 H85 0.930 . S
C92 C91 1.393 . S
C92 C93 1.399 . S
C93 C92 1.399 . S
C93 C94 1.381 . S
C94 H86 0.930 . S
C94 C90 1.390 . S
C94 C93 1.381 . S
N95 C88 1.286 . S
N95 C91 1.413 . S
Dy96 O99 2.307 1_545 S
Dy96 O101 2.395 1_655 S
Dy96 O102 2.379 . S
Dy96 O104 2.339 . S
Dy96 O106 2.298 . S
Dy96 O110 2.275 1_655 S
Dy96 C118 2.738 . S
Dy97 O100 2.298 1_554 S
Dy97 O103 2.275 1_454 S
Dy97 O105 2.307 1_565 S
Dy97 O107 2.395 1_455 S
Dy97 O108 2.379 . S
Dy97 O111 2.339 1_554 S
Dy97 C127 2.738 . S
C98 O110 1.254 1_565 S
C98 O111 1.257 . S
O99 Dy96 2.307 1_565 S
O99 C109 1.266 . S
O100 Dy97 2.298 1_556 S
O100 C109 1.236 1_455 S
O101 Dy96 2.395 1_455 S
O101 C118 1.255 1_455 S
O102 Dy96 2.379 . S
O102 C118 1.249 . S
O103 Dy97 2.275 1_656 S
O103 C119 1.254 1_565 S
O104 Dy96 2.339 . S
O104 C119 1.257 . S
O105 Dy97 2.307 1_545 S
O105 C120 1.266 1_554 S
O106 Dy96 2.298 . S
O106 C120 1.236 1_655 S
O107 Dy97 2.395 1_655 S
O107 C127 1.255 1_655 S
O108 Dy97 2.379 . S
O108 C127 1.249 . S
C109 O99 1.266 . S
C109 O100 1.236 1_655 S
O110 Dy96 2.275 1_455 S
O110 C98 1.254 1_545 S
O111 Dy97 2.339 1_556 S
O111 C98 1.257 . S
C112 C115 1.344 1_655 S
C112 C116 1.328 . S
C112 C118 1.516 . S
C113 C114 1.304 1_655 S
C113 C117 1.323 . S
C114 C113 1.304 1_455 S
C114 C115 1.371 . S
C114 H128 0.930 . S
C115 C112 1.344 1_455 S
C115 C114 1.371 . S
C115 H129 0.931 . S
C116 C112 1.328 . S
C116 C117 1.433 . S
C116 H130 0.931 . S
C117 C113 1.323 . S
C117 C116 1.433 . S
C117 H131 0.933 . S
C118 Dy96 2.738 . S
C118 O101 1.255 1_655 S
C118 O102 1.249 . S
C118 C112 1.516 . S
C119 O103 1.254 1_545 S
C119 O104 1.257 . S
C120 O105 1.266 1_556 S
C120 O106 1.236 1_455 S
C121 C124 1.344 1_455 S
C121 C125 1.328 . S
C121 C127 1.516 . S
C122 C123 1.304 1_455 S
C122 C126 1.323 . S
C123 C122 1.304 1_655 S
C123 C124 1.371 . S
C123 H132 0.930 . S
C124 C121 1.344 1_655 S
C124 C123 1.371 . S
C124 H133 0.931 . S
C125 C121 1.328 . S
C125 C126 1.433 . S
C125 H134 0.931 . S
C126 C122 1.323 . S
C126 C125 1.433 . S
C126 H135 0.933 . S
C127 Dy97 2.738 . S
C127 O107 1.255 1_455 S
C127 O108 1.249 . S
C127 C121 1.516 . S
H128 C114 0.930 . S
H129 C115 0.931 . S
H130 C116 0.931 . S
H131 C117 0.933 . S
H132 C123 0.930 . S
H133 C124 0.931 . S
H134 C125 0.931 . S
H135 C126 0.933 . S
Dy136 O139 2.307 . S
Dy136 O141 2.395 1_565 S
Dy136 O142 2.379 . S
Dy136 O144 2.339 . S
Dy136 O146 2.298 . S
Dy136 O150 2.275 1_565 S
Dy136 C158 2.738 . S
Dy137 O140 2.298 1_554 S
Dy137 O143 2.275 1_544 S
Dy137 O145 2.307 . S
Dy137 O147 2.395 1_545 S
Dy137 O148 2.379 . S
Dy137 O151 2.339 1_554 S
Dy137 C167 2.738 . S
C138 O150 1.254 . S
C138 O151 1.257 . S
O139 Dy136 2.307 . S
O139 C149 1.266 . S
O140 Dy137 2.298 1_556 S
O140 C149 1.236 1_545 S
O141 Dy136 2.395 1_545 S
O141 C158 1.255 1_545 S
O142 Dy136 2.379 . S
O142 C158 1.249 . S
O143 Dy137 2.275 1_566 S
O143 C159 1.254 . S
O144 Dy136 2.339 . S
O144 C159 1.257 . S
O145 Dy137 2.307 . S
O145 C160 1.266 1_554 S
O146 Dy136 2.298 . S
O146 C160 1.236 1_565 S
O147 Dy137 2.395 1_565 S
O147 C167 1.255 1_565 S
O148 Dy137 2.379 . S
O148 C167 1.249 . S
C149 O139 1.266 . S
C149 O140 1.236 1_565 S
O150 Dy136 2.275 1_545 S
O150 C138 1.254 . S
O151 Dy137 2.339 1_556 S
O151 C138 1.257 . S
C152 C155 1.334 1_565 S
C152 C156 1.328 . S
C152 C158 1.516 . S
C153 C154 1.304 . S
C153 C157 1.323 . S
C154 C153 1.304 . S
C154 C155 1.370 1_565 S
C154 H168 0.930 1_565 S
C155 C152 1.334 1_545 S
C155 C154 1.370 1_545 S
C155 H169 0.942 . S
C156 C152 1.328 . S
C156 C157 1.433 . S
C156 H170 0.931 . S
C157 C153 1.323 . S
C157 C156 1.433 . S
C157 H171 0.933 . S
C158 Dy136 2.738 . S
C158 O141 1.255 1_565 S
C158 O142 1.249 . S
C158 C152 1.516 . S
C159 O143 1.254 . S
C159 O144 1.257 . S
C160 O145 1.266 1_556 S
C160 O146 1.236 1_545 S
C161 C164 1.340 1_545 S
C161 C165 1.328 . S
C161 C167 1.516 . S
C162 C163 1.304 . S
C162 C166 1.323 . S
C163 C162 1.304 . S
C163 C164 1.370 1_545 S
C163 H172 0.930 1_545 S
C164 C161 1.340 1_565 S
C164 C163 1.370 1_565 S
C164 H173 0.936 . S
C165 C161 1.328 . S
C165 C166 1.433 . S
C165 H174 0.931 . S
C166 C162 1.323 . S
C166 C165 1.433 . S
C166 H175 0.933 . S
C167 Dy137 2.738 . S
C167 O147 1.255 1_545 S
C167 O148 1.249 . S
C167 C161 1.516 . S
H168 C154 0.930 1_545 S
H169 C155 0.942 . S
H170 C156 0.931 . S
H171 C157 0.933 . S
H172 C163 0.930 1_565 S
H173 C164 0.936 . S
H174 C165 0.931 . S
H175 C166 0.933 . S
Dy176 O179 2.307 . S
Dy176 O181 2.395 1_556 S
Dy176 O182 2.379 . S
Dy176 O184 2.339 . S
Dy176 O186 2.298 . S
Dy176 O190 2.275 . S
Dy176 C198 2.738 1_556 S
Dy177 O180 2.298 . S
Dy177 O183 2.275 . S
Dy177 O185 2.307 1_556 S
Dy177 O187 2.395 . S
Dy177 O188 2.379 . S
Dy177 O191 2.339 1_556 S
Dy177 C207 2.738 . S
C178 O190 1.254 1_554 S
C178 O191 1.257 . S
O179 Dy176 2.307 . S
O179 C189 1.266 . S
O180 Dy177 2.298 . S
O180 C189 1.236 . S
O181 Dy176 2.395 1_554 S
O181 C198 1.255 . S
O182 Dy176 2.379 . S
O182 C198 1.249 1_556 S
O183 Dy177 2.275 . S
O183 C199 1.254 . S
O184 Dy176 2.339 . S
O184 C199 1.257 . S
O185 Dy177 2.307 1_554 S
O185 C200 1.266 . S
O186 Dy176 2.298 . S
O186 C200 1.236 1_556 S
O187 Dy177 2.395 . S
O187 C207 1.255 . S
O188 Dy177 2.379 . S
O188 C207 1.249 . S
C189 O179 1.266 . S
C189 O180 1.236 . S
O190 Dy176 2.275 . S
O190 C178 1.254 1_556 S
O191 Dy177 2.339 1_554 S
O191 C178 1.257 . S
C192 C195 1.344 . S
C192 C196 1.328 . S
C192 C198 1.516 . S
C193 C194 1.304 . S
C193 C197 1.323 . S
C194 C193 1.304 . S
C194 C195 1.371 . S
C194 H208 0.930 . S
C195 C192 1.344 . S
C195 C194 1.371 . S
C195 H209 0.931 . S
C196 C192 1.328 . S
C196 C197 1.433 . S
C196 H210 0.931 1_554 S
C197 C193 1.323 . S
C197 C196 1.433 . S
C197 H211 0.933 . S
C198 Dy176 2.738 1_554 S
C198 O181 1.255 . S
C198 O182 1.249 1_554 S
C198 C192 1.516 . S
C199 O183 1.254 . S
C199 O184 1.257 . S
C200 O185 1.266 . S
C200 O186 1.236 1_554 S
C201 C204 1.344 . S
C201 C205 1.328 . S
C201 C207 1.516 . S
C202 C203 1.304 . S
C202 C206 1.323 . S
C203 C202 1.304 . S
C203 C204 1.371 . S
C203 H212 0.930 . S
C204 C201 1.344 . S
C204 C203 1.371 . S
C204 H213 0.931 . S
C205 C201 1.328 . S
C205 C206 1.433 . S
C205 H214 0.931 . S
C206 C202 1.323 . S
C206 C205 1.433 . S
C206 H215 0.933 . S
C207 Dy177 2.738 . S
C207 O187 1.255 . S
C207 O188 1.249 . S
C207 C201 1.516 . S
H208 C194 0.930 . S
H209 C195 0.931 . S
H210 C196 0.931 1_556 S
H211 C197 0.933 . S
H212 C203 0.930 . S
H213 C204 0.931 . S
H214 C205 0.931 . S
H215 C206 0.933 . S
Dy216 O219 2.307 1_455 S
Dy216 O221 2.395 . S
Dy216 O222 2.379 . S
Dy216 O224 2.339 . S
Dy216 O226 2.298 . S
Dy216 O230 2.275 . S
Dy216 C238 2.738 . S
Dy217 O220 2.298 1_554 S
Dy217 O223 2.275 . S
Dy217 O225 2.307 1_654 S
Dy217 O227 2.395 . S
Dy217 O228 2.379 . S
Dy217 O231 2.339 1_554 S
Dy217 C247 2.738 . S
C218 O230 1.254 1_655 S
C218 O231 1.257 . S
O219 Dy216 2.307 1_655 S
O219 C229 1.266 . S
O220 Dy217 2.298 1_556 S
O220 C229 1.236 . S
O221 Dy216 2.395 . S
O221 C238 1.255 . S
O222 Dy216 2.379 . S
O222 C238 1.249 . S
O223 Dy217 2.275 . S
O223 C239 1.254 1_655 S
O224 Dy216 2.339 . S
O224 C239 1.255 1_556 S
O225 Dy217 2.307 1_456 S
O225 C240 1.266 . S
O226 Dy216 2.298 . S
O226 C240 1.236 . S
O227 Dy217 2.395 . S
O227 C247 1.255 . S
O228 Dy217 2.379 . S
O228 C247 1.249 . S
C229 O219 1.266 . S
C229 O220 1.236 . S
O230 Dy216 2.275 . S
O230 C218 1.254 1_455 S
O231 Dy217 2.339 1_556 S
O231 C218 1.257 . S
C232 C235 1.344 . S
C232 C236 1.328 . S
C232 C238 1.516 . S
C233 C234 1.304 . S
C233 C237 1.323 . S
C234 C233 1.304 . S
C234 C235 1.371 . S
C234 H248 0.930 . S
C235 C232 1.344 . S
C235 C234 1.371 . S
C235 H249 0.931 . S
C236 C232 1.328 . S
C236 C237 1.433 . S
C236 H250 0.931 . S
C237 C233 1.323 . S
C237 C236 1.433 . S
C237 H251 0.933 . S
C238 Dy216 2.738 . S
C238 O221 1.255 . S
C238 O222 1.249 . S
C238 C232 1.516 . S
C239 O223 1.254 1_455 S
C239 O224 1.255 1_554 S
C240 O225 1.266 . S
C240 O226 1.236 . S
C241 C244 1.344 . S
C241 C245 1.328 . S
C241 C247 1.516 . S
C242 C243 1.304 . S
C242 C246 1.323 . S
C243 C242 1.304 . S
C243 C244 1.371 . S
C243 H252 0.930 . S
C244 C241 1.344 . S
C244 C243 1.371 . S
C244 H253 0.931 . S
C245 C241 1.328 . S
C245 C246 1.433 . S
C245 H254 0.931 . S
C246 C242 1.323 . S
C246 C245 1.433 . S
C246 H255 0.933 . S
C247 Dy217 2.738 . S
C247 O227 1.255 . S
C247 O228 1.249 . S
C247 C241 1.516 . S
H248 C234 0.930 . S
H249 C235 0.931 . S
H250 C236 0.931 . S
H251 C237 0.933 . S
H252 C243 0.930 . S
H253 C244 0.931 . S
H254 C245 0.931 . S
H255 C246 0.933 . S
C256 C257 1.365 1_565 S
C256 C258 1.419 . S
C256 H260 0.930 . S
C257 C256 1.365 1_545 S
C257 C266 1.431 . S
C258 C256 1.419 . S
C258 C259 1.363 1_565 S
C258 H261 0.929 . S
C259 C258 1.363 1_545 S
C259 C265 1.428 . S
H260 C256 0.930 . S
H261 C258 0.929 . S
S262 N263 1.613 . S
S262 N264 1.610 . S
N263 S262 1.613 . S
N263 C266 1.350 . S
N264 S262 1.610 . S
N264 C265 1.351 . S
C265 C259 1.428 . S
C265 N264 1.351 . S
C265 C266 1.434 . S
C266 C257 1.431 . S
C266 N263 1.350 . S
C266 C265 1.434 . S
C267 C268 1.369 . S
C267 C269 1.419 . S
C267 H271 0.930 . S
C268 C267 1.369 . S
C268 C277 1.429 . S
C269 C267 1.419 . S
C269 C270 1.363 . S
C269 H272 0.929 . S
C270 C269 1.363 . S
C270 C276 1.428 . S
H271 C267 0.930 . S
H272 C269 0.929 . S
S273 N274 1.613 . S
S273 N275 1.610 . S
N274 S273 1.613 . S
N274 C277 1.350 . S
N275 S273 1.610 . S
N275 C276 1.351 . S
C276 C270 1.428 . S
C276 N275 1.351 . S
C276 C277 1.434 . S
C277 C268 1.429 . S
C277 N274 1.350 . S
C277 C276 1.434 . S
C278 C279 1.369 . S
C278 C280 1.419 . S
C278 H282 0.930 . S
C279 C278 1.369 . S
C279 C288 1.429 . S
C280 C278 1.419 . S
C280 C281 1.363 . S
C280 H283 0.929 . S
C281 C280 1.363 . S
C281 C287 1.428 . S
H282 C278 0.930 . S
H283 C280 0.929 . S
S284 N285 1.613 . S
S284 N286 1.610 . S
N285 S284 1.613 . S
N285 C288 1.350 . S
N286 S284 1.610 . S
N286 C287 1.351 . S
C287 C281 1.428 . S
C287 N286 1.351 . S
C287 C288 1.434 . S
C288 C279 1.429 . S
C288 N285 1.350 . S
C288 C287 1.434 . S
C289 C290 1.357 1_655 S
C289 C291 1.419 . S
C289 H293 0.930 . S
C290 C289 1.357 1_455 S
C290 C299 1.452 . S
C291 C289 1.419 . S
C291 C292 1.363 1_655 S
C291 H294 0.929 . S
C292 C291 1.363 1_455 S
C292 C298 1.428 . S
H293 C289 0.930 . S
H294 C291 0.929 . S
S295 N296 1.613 . S
S295 N297 1.610 . S
N296 S295 1.613 . S
N296 C299 1.350 . S
N297 S295 1.610 . S
N297 C298 1.351 . S
C298 C292 1.428 . S
C298 N297 1.351 . S
C298 C299 1.434 . S
C299 C290 1.452 . S
C299 N296 1.350 . S
C299 C298 1.434 . S
C300 C301 1.360 1_545 S
C300 C302 1.419 . S
C300 H304 0.930 . S
C301 C300 1.360 1_565 S
C301 C310 1.436 . S
C302 C300 1.419 . S
C302 C303 1.363 1_545 S
C302 H305 0.929 . S
C303 C302 1.363 1_565 S
C303 C309 1.428 . S
H304 C300 0.930 . S
H305 C302 0.929 . S
S306 N307 1.613 . S
S306 N308 1.610 . S
N307 S306 1.613 . S
N307 C310 1.350 . S
N308 S306 1.610 . S
N308 C309 1.351 . S
C309 C303 1.428 . S
C309 N308 1.351 . S
C309 C310 1.434 . S
C310 C301 1.436 . S
C310 N307 1.350 . S
C310 C309 1.434 . S
C311 C312 1.369 . S
C311 C313 1.419 1_554 S
C311 H315 0.930 1_554 S
C312 C311 1.369 . S
C312 C321 1.429 . S
C313 C311 1.419 1_556 S
C313 C314 1.363 1_556 S
C313 H316 0.929 . S
C314 C313 1.363 1_554 S
C314 C320 1.428 . S
H315 C311 0.930 1_556 S
H316 C313 0.929 . S
S317 N318 1.613 . S
S317 N319 1.610 . S
N318 S317 1.613 . S
N318 C321 1.350 . S
N319 S317 1.610 . S
N319 C320 1.351 . S
C320 C314 1.428 . S
C320 N319 1.351 . S
C320 C321 1.434 . S
C321 C312 1.429 . S
C321 N318 1.350 . S
C321 C320 1.434 . S
C322 C323 1.369 . S
C322 C324 1.419 . S
C322 H326 0.930 . S
C323 C322 1.369 . S
C323 C332 1.429 . S
C324 C322 1.419 . S
C324 C325 1.363 . S
C324 H327 0.929 . S
C325 C324 1.363 . S
C325 C331 1.428 . S
H326 C322 0.930 . S
H327 C324 0.929 . S
S328 N329 1.613 . S
S328 N330 1.610 . S
N329 S328 1.613 . S
N329 C332 1.350 . S
N330 S328 1.610 . S
N330 C331 1.351 . S
C331 C325 1.428 . S
C331 N330 1.351 . S
C331 C332 1.434 . S
C332 C323 1.429 . S
C332 N329 1.350 . S
C332 C331 1.434 . S
C333 C334 1.368 . S
C333 C335 1.421 . S
C333 H337 0.929 1_655 S
C334 C333 1.368 . S
C334 C343 1.429 . S
C335 C333 1.421 . S
C335 C336 1.363 . S
C335 H338 0.929 . S
C336 C335 1.363 . S
C336 C342 1.428 . S
H337 C333 0.929 1_455 S
H338 C335 0.929 . S
S339 N340 1.613 . S
S339 N341 1.610 . S
N340 S339 1.613 . S
N340 C343 1.350 . S
N341 S339 1.610 . S
N341 C342 1.351 . S
C342 C336 1.428 . S
C342 N341 1.351 . S
C342 C343 1.434 . S
C343 C334 1.429 . S
C343 N340 1.350 . S
C343 C342 1.434 . S
C344 C345 1.369 . S
C344 C346 1.420 1_455 S
C344 H348 0.930 . S
C345 C344 1.369 . S
C345 C354 1.429 1_455 S
C346 C344 1.420 1_655 S
C346 C347 1.360 . S
C346 H349 0.930 1_655 S
C347 C346 1.360 . S
C347 C353 1.428 . S
H348 C344 0.930 . S
H349 C346 0.930 1_455 S
S350 N351 1.613 . S
S350 N352 1.610 . S
N351 S350 1.613 . S
N351 C354 1.350 . S
N352 S350 1.610 . S
N352 C353 1.351 . S
C353 C347 1.428 . S
C353 N352 1.351 . S
C353 C354 1.434 . S
C354 C345 1.429 1_655 S
C354 N351 1.350 . S
C354 C353 1.434 . S
C355 C356 1.369 . S
C355 C357 1.419 . S
C355 H359 0.930 . S
C356 C355 1.369 . S
C356 C365 1.429 1_565 S
C357 C355 1.419 . S
C357 C358 1.363 . S
C357 H360 0.929 . S
C358 C357 1.363 . S
C358 C364 1.428 . S
H359 C355 0.930 . S
H360 C357 0.929 . S
S361 N362 1.613 . S
S361 N363 1.610 1_545 S
N362 S361 1.613 . S
N362 C365 1.350 . S
N363 S361 1.610 1_565 S
N363 C364 1.351 . S
C364 C358 1.428 . S
C364 N363 1.351 . S
C364 C365 1.434 1_565 S
C365 C356 1.429 1_545 S
C365 N362 1.350 . S
C365 C364 1.434 1_545 S
C366 C367 1.369 . S
C366 C368 1.419 . S
C366 H370 0.930 . S
C367 C366 1.369 . S
C367 C376 1.429 . S
C368 C366 1.419 . S
C368 C369 1.363 . S
C368 H371 0.929 . S
C369 C368 1.363 . S
C369 C375 1.428 . S
H370 C366 0.930 . S
H371 C368 0.929 . S
S372 N373 1.613 . S
S372 N374 1.610 . S
N373 S372 1.613 . S
N373 C376 1.350 . S
N374 S372 1.610 . S
N374 C375 1.351 . S
C375 C369 1.428 . S
C375 N374 1.351 . S
C375 C376 1.434 . S
C376 C367 1.429 . S
C376 N373 1.350 . S
C376 C375 1.434 . S
C377 C378 1.369 . S
C377 C379 1.419 . S
C377 H381 0.930 . S
C378 C377 1.369 . S
C378 C387 1.429 . S
C379 C377 1.419 . S
C379 C380 1.363 . S
C379 H382 0.929 . S
C380 C379 1.363 . S
C380 C386 1.428 . S
H381 C377 0.930 . S
H382 C379 0.929 . S
S383 N384 1.613 . S
S383 N385 1.610 . S
N384 S383 1.613 . S
N384 C387 1.350 . S
N385 S383 1.610 . S
N385 C386 1.351 . S
C386 C380 1.428 . S
C386 N385 1.351 . S
C386 C387 1.434 . S
C387 C378 1.429 . S
C387 N384 1.350 . S
C387 C386 1.434 . S
C388 C389 1.369 . S
C388 C390 1.419 1_655 S
C388 H392 0.930 . S
C389 C388 1.369 . S
C389 C398 1.429 1_655 S
C390 C388 1.419 1_455 S
C390 C391 1.363 . S
C390 H393 0.946 . S
C391 C390 1.363 . S
C391 C397 1.428 . S
H392 C388 0.930 . S
H393 C390 0.946 . S
S394 N395 1.613 . S
S394 N396 1.610 . S
N395 S394 1.613 . S
N395 C398 1.350 . S
N396 S394 1.610 . S
N396 C397 1.351 . S
C397 C391 1.428 . S
C397 N396 1.351 . S
C397 C398 1.434 . S
C398 C389 1.429 1_455 S
C398 N395 1.350 . S
C398 C397 1.434 . S
C399 C400 1.369 . S
C399 C401 1.419 . S
C399 H403 0.930 . S
C400 C399 1.369 . S
C400 C409 1.429 1_545 S
C401 C399 1.419 . S
C401 C402 1.363 . S
C401 H404 0.929 . S
C402 C401 1.363 . S
C402 C408 1.428 1_545 S
H403 C399 0.930 . S
H404 C401 0.929 . S
S405 N406 1.613 . S
S405 N407 1.610 . S
N406 S405 1.613 . S
N406 C409 1.350 . S
N407 S405 1.610 . S
N407 C408 1.351 . S
C408 C402 1.428 1_565 S
C408 N407 1.351 . S
C408 C409 1.434 . S
C409 C400 1.429 1_565 S
C409 N406 1.350 . S
C409 C408 1.434 . S
C410 C411 1.369 . S
C410 C412 1.419 . S
C410 H414 0.930 . S
C411 C410 1.369 . S
C411 C420 1.429 . S
C412 C410 1.419 . S
C412 C413 1.363 . S
C412 H415 0.929 . S
C413 C412 1.363 . S
C413 C419 1.428 . S
H414 C410 0.930 . S
H415 C412 0.929 . S
S416 N417 1.613 1_556 S
S416 N418 1.610 . S
N417 S416 1.613 1_554 S
N417 C420 1.350 . S
N418 S416 1.610 . S
N418 C419 1.351 1_556 S
C419 C413 1.428 . S
C419 N418 1.351 1_554 S
C419 C420 1.434 . S
C420 C411 1.429 . S
C420 N417 1.350 . S
C420 C419 1.434 . S
C421 C422 1.369 . S
C421 C423 1.419 . S
C421 H425 0.930 . S
C422 C421 1.369 . S
C422 C431 1.429 . S
C423 C421 1.419 . S
C423 C424 1.363 . S
C423 H426 0.929 . S
C424 C423 1.363 . S
C424 C430 1.428 . S
H425 C421 0.930 . S
H426 C423 0.929 . S
S427 N428 1.613 . S
S427 N429 1.610 . S
N428 S427 1.613 . S
N428 C431 1.350 . S
N429 S427 1.610 . S
N429 C430 1.351 . S
C430 C424 1.428 . S
C430 N429 1.351 . S
C430 C431 1.434 . S
C431 C422 1.429 . S
C431 N428 1.350 . S
C431 C430 1.434 . S
C432 C433 1.369 . S
C432 C434 1.419 . S
C432 H436 0.930 . S
C433 C432 1.369 . S
C433 C442 1.429 1_456 S
C434 C432 1.419 . S
C434 C435 1.363 . S
C434 H437 0.929 . S
C435 C434 1.363 . S
C435 C441 1.428 1_456 S
H436 C432 0.930 . S
H437 C434 0.929 . S
S438 N439 1.613 . S
S438 N440 1.610 . S
N439 S438 1.613 . S
N439 C442 1.350 . S
N440 S438 1.610 . S
N440 C441 1.351 . S
C441 C435 1.428 1_654 S
C441 N440 1.351 . S
C441 C442 1.434 . S
C442 C433 1.429 1_654 S
C442 N439 1.350 . S
C442 C441 1.434 . S
C443 C444 1.369 1_565 S
C443 C445 1.419 . S
C443 H447 0.930 . S
C444 C443 1.369 1_545 S
C444 C453 1.429 . S
C445 C443 1.419 . S
C445 C446 1.363 1_565 S
C445 H448 0.929 . S
C446 C445 1.363 1_545 S
C446 C452 1.428 . S
H447 C443 0.930 . S
H448 C445 0.929 . S
S449 N450 1.613 . S
S449 N451 1.610 . S
N450 S449 1.613 . S
N450 C453 1.350 . S
N451 S449 1.610 . S
N451 C452 1.351 . S
C452 C446 1.428 . S
C452 N451 1.351 . S
C452 C453 1.434 . S
C453 C444 1.429 . S
C453 N450 1.350 . S
C453 C452 1.434 . S
C454 C455 1.369 . S
C454 C456 1.419 . S
C454 H458 0.930 . S
C455 C454 1.369 . S
C455 C464 1.429 . S
C456 C454 1.419 . S
C456 C457 1.363 . S
C456 H459 0.929 . S
C457 C456 1.363 . S
C457 C463 1.428 . S
H458 C454 0.930 . S
H459 C456 0.929 . S
S460 N461 1.613 . S
S460 N462 1.610 . S
N461 S460 1.613 . S
N461 C464 1.350 . S
N462 S460 1.610 . S
N462 C463 1.351 . S
C463 C457 1.428 . S
C463 N462 1.351 . S
C463 C464 1.434 . S
C464 C455 1.429 . S
C464 N461 1.350 . S
C464 C463 1.434 . S
C465 C466 1.369 . S
C465 C467 1.419 . S
C465 H469 0.930 . S
C466 C465 1.369 . S
C466 C475 1.429 . S
C467 C465 1.419 . S
C467 C468 1.363 . S
C467 H470 0.929 1_556 S
C468 C467 1.363 . S
C468 C474 1.428 . S
H469 C465 0.930 . S
H470 C467 0.929 1_554 S
S471 N472 1.613 . S
S471 N473 1.610 . S
N472 S471 1.613 . S
N472 C475 1.350 . S
N473 S471 1.610 . S
N473 C474 1.351 . S
C474 C468 1.428 . S
C474 N473 1.351 . S
C474 C475 1.434 . S
C475 C466 1.429 . S
C475 N472 1.350 . S
C475 C474 1.434 . S
C476 C477 1.369 . S
C476 C478 1.419 . S
C476 H480 0.930 . S
C477 C476 1.369 . S
C477 C486 1.429 1_655 S
C478 C476 1.419 . S
C478 C479 1.363 . S
C478 H481 0.929 . S
C479 C478 1.363 . S
C479 C485 1.428 1_655 S
H480 C476 0.930 . S
H481 C478 0.929 . S
S482 N483 1.613 . S
S482 N484 1.610 . S
N483 S482 1.613 . S
N483 C486 1.350 . S
N484 S482 1.610 . S
N484 C485 1.351 . S
C485 C479 1.428 1_455 S
C485 N484 1.351 . S
C485 C486 1.434 . S
C486 C477 1.429 1_455 S
C486 N483 1.350 . S
C486 C485 1.434 . S
C487 C488 1.369 1_545 S
C487 C489 1.419 . S
C487 H491 0.930 . S
C488 C487 1.369 1_565 S
C488 C497 1.429 . S
C489 C487 1.419 . S
C489 C490 1.363 1_545 S
C489 H492 0.929 . S
C490 C489 1.363 1_565 S
C490 C496 1.428 . S
H491 C487 0.930 . S
H492 C489 0.929 . S
S493 N494 1.613 . S
S493 N495 1.610 . S
N494 S493 1.613 . S
N494 C497 1.350 . S
N495 S493 1.610 . S
N495 C496 1.351 . S
C496 C490 1.428 . S
C496 N495 1.351 . S
C496 C497 1.434 . S
C497 C488 1.429 . S
C497 N494 1.350 . S
C497 C496 1.434 . S
C498 C499 1.369 . S
C498 C500 1.419 . S
C498 H502 0.930 . S
C499 C498 1.369 . S
C499 C508 1.429 . S
C500 C498 1.419 . S
C500 C501 1.363 . S
C500 H503 0.929 . S
C501 C500 1.363 . S
C501 C507 1.428 . S
H502 C498 0.930 . S
H503 C500 0.929 . S
S504 N505 1.613 . S
S504 N506 1.610 . S
N505 S504 1.613 . S
N505 C508 1.350 . S
N506 S504 1.610 . S
N506 C507 1.351 . S
C507 C501 1.428 . S
C507 N506 1.351 . S
C507 C508 1.434 . S
C508 C499 1.429 . S
C508 N505 1.350 . S
C508 C507 1.434 . S
C509 C510 1.369 . S
C509 C511 1.419 . S
C509 H513 0.930 . S
C510 C509 1.369 . S
C510 C519 1.429 . S
C511 C509 1.419 . S
C511 C512 1.363 . S
C511 H514 0.929 . S
C512 C511 1.363 . S
C512 C518 1.428 . S
H513 C509 0.930 . S
H514 C511 0.929 . S
S515 N516 1.613 . S
S515 N517 1.610 . S
N516 S515 1.613 . S
N516 C519 1.350 . S
N517 S515 1.610 . S
N517 C518 1.351 . S
C518 C512 1.428 . S
C518 N517 1.351 . S
C518 C519 1.434 . S
C519 C510 1.429 . S
C519 N516 1.350 . S
C519 C518 1.434 . S
C257 C76 2.089 1_545 S
C259 C98 2.207 1_545 S
C270 C138 2.069 . S
C268 C88 1.986 . S
C281 C202 2.062 . S
C279 C52 1.876 . S
C292 C218 1.973 1_455 S
C290 C64 1.621 1_455 S
C303 C119 2.209 1_564 S
C301 C28 2.092 . S
C312 C40 1.997 . S
C314 C159 2.070 1_554 S
C323 C4 1.888 . S
C325 C193 2.061 . S
C334 C16 1.649 . S
C336 C239 1.975 1_655 S
C347 C113 0.640 . S
C345 C69 0.632 . S
C358 C153 0.909 . S
C356 C81 0.923 1_565 S
C369 C189 1.047 . S
C367 C93 1.051 . S
C378 C57 0.947 . S
C380 C233 0.867 . S
C389 C21 0.614 1_655 S
C391 C122 0.642 . S
C402 C162 0.911 . S
C400 C33 0.919 . S
C413 C200 1.039 . S
C411 C45 1.053 . S
C422 C9 0.910 . S
C424 C242 0.891 . S
C433 C66 1.892 1_556 S
C435 C120 2.201 . S
C444 C78 2.041 . S
C446 C160 2.277 1_554 S
C457 C178 1.784 . S
C455 C90 1.748 . S
C468 C240 2.642 . S
C466 C54 2.306 . S
C477 C18 1.898 1_655 S
C479 C109 2.208 . S
C490 C149 2.277 . S
C488 C30 2.040 1_565 S
C501 C199 1.778 . S
C499 C42 1.748 . S
C510 C6 2.302 . S
C512 C229 2.645 . S
