# Generated by pormake.
# Topology zzz, (3,6)-cn, num edge types: 1
# Building blocks:
#     Node 0, Type 0, BuildingBlock: KAKCAD_clean_linker_0, # of connection points: 3
#     Node 1, Type 0, BuildingBlock: KAKCAD_clean_linker_0, # of connection points: 3
#     Node 2, Type 0, BuildingBlock: KAKCAD_clean_linker_0, # of connection points: 3
#     Node 3, Type 0, BuildingBlock: KAKCAD_clean_linker_0, # of connection points: 3
#     Node 4, Type 0, BuildingBlock: KAKCAD_clean_linker_0, # of connection points: 3
#     Node 5, Type 0, BuildingBlock: KAKCAD_clean_linker_0, # of connection points: 3
#     Node 6, Type 0, BuildingBlock: KAKCAD_clean_linker_0, # of connection points: 3
#     Node 7, Type 0, BuildingBlock: KAKCAD_clean_linker_0, # of connection points: 3
#     Node 8, Type 1, BuildingBlock: LEVNOQ01_clean_sbu_1, # of connection points: 6
#     Node 9, Type 1, BuildingBlock: LEVNOQ01_clean_sbu_1, # of connection points: 6
#     Node 10, Type 1, BuildingBlock: LEVNOQ01_clean_sbu_1, # of connection points: 6
#     Node 11, Type 1, BuildingBlock: LEVNOQ01_clean_sbu_1, # of connection points: 6
#     Edge 12, Type (0, 1), BuildingBlock: TEMPAE_clean_linker_10, # of connection points: 2
#     Edge 13, Type (0, 1), BuildingBlock: TEMPAE_clean_linker_10, # of connection points: 2
#     Edge 14, Type (0, 1), BuildingBlock: TEMPAE_clean_linker_10, # of connection points: 2
#     Edge 15, Type (0, 1), BuildingBlock: TEMPAE_clean_linker_10, # of connection points: 2
#     Edge 16, Type (0, 1), BuildingBlock: TEMPAE_clean_linker_10, # of connection points: 2
#     Edge 17, Type (0, 1), BuildingBlock: TEMPAE_clean_linker_10, # of connection points: 2
#     Edge 18, Type (0, 1), BuildingBlock: TEMPAE_clean_linker_10, # of connection points: 2
#     Edge 19, Type (0, 1), BuildingBlock: TEMPAE_clean_linker_10, # of connection points: 2
#     Edge 20, Type (0, 1), BuildingBlock: TEMPAE_clean_linker_10, # of connection points: 2
#     Edge 21, Type (0, 1), BuildingBlock: TEMPAE_clean_linker_10, # of connection points: 2
#     Edge 22, Type (0, 1), BuildingBlock: TEMPAE_clean_linker_10, # of connection points: 2
#     Edge 23, Type (0, 1), BuildingBlock: TEMPAE_clean_linker_10, # of connection points: 2
#     Edge 24, Type (0, 1), BuildingBlock: TEMPAE_clean_linker_10, # of connection points: 2
#     Edge 25, Type (0, 1), BuildingBlock: TEMPAE_clean_linker_10, # of connection points: 2
#     Edge 26, Type (0, 1), BuildingBlock: TEMPAE_clean_linker_10, # of connection points: 2
#     Edge 27, Type (0, 1), BuildingBlock: TEMPAE_clean_linker_10, # of connection points: 2
#     Edge 28, Type (0, 1), BuildingBlock: TEMPAE_clean_linker_10, # of connection points: 2
#     Edge 29, Type (0, 1), BuildingBlock: TEMPAE_clean_linker_10, # of connection points: 2
#     Edge 30, Type (0, 1), BuildingBlock: TEMPAE_clean_linker_10, # of connection points: 2
#     Edge 31, Type (0, 1), BuildingBlock: TEMPAE_clean_linker_10, # of connection points: 2
#     Edge 32, Type (0, 1), BuildingBlock: TEMPAE_clean_linker_10, # of connection points: 2
#     Edge 33, Type (0, 1), BuildingBlock: TEMPAE_clean_linker_10, # of connection points: 2
#     Edge 34, Type (0, 1), BuildingBlock: TEMPAE_clean_linker_10, # of connection points: 2
#     Edge 35, Type (0, 1), BuildingBlock: TEMPAE_clean_linker_10, # of connection points: 2
# Relax obj value: 0.304
# Max RMSD: 0.218
# Mean RMSD: 0.206
data_MOF--net-zzz--node1-LEVNOQ01_clean_sbu_1--node2-KAKCAD_clean_linker_0--edge1-TEMPAE_clean_linker_10
_symmetry_space_group_name_H-M    P1
_symmetry_Int_Tables_number       1
_symmetry_cell_setting            triclinic
loop_
_symmetry_equiv_pos_as_xyz
'x, y, z'
_cell_length_a     55.472781
_cell_length_b     59.019855
_cell_length_c     21.183092
_cell_angle_alpha  89.803032
_cell_angle_beta   90.027468
_cell_angle_gamma 88.425974
loop_
_atom_site_label
_atom_site_type_symbol
_atom_site_fract_x
_atom_site_fract_y
_atom_site_fract_z
_atom_type_partial_charge
C0 C 0.81479 0.62269 0.94913 0.0
C1 C 0.83747 0.61286 0.96212 0.0
C2 C 0.79908 0.62812 0.99878 0.0
C3 C 0.80528 0.62223 0.06162 0.0
C4 C 0.82935 0.61512 0.07388 0.0
C5 C 0.84532 0.61086 0.02462 0.0
C6 C 0.78623 0.61892 0.11085 0.0
C7 C 0.76259 0.61376 0.09285 0.0
C8 C 0.74575 0.60545 0.13629 0.0
C9 C 0.75369 0.60024 0.19828 0.0
C10 C 0.77726 0.60553 0.21719 0.0
C11 C 0.79249 0.61639 0.17476 0.0
C12 C 0.78855 0.59647 0.27583 0.0
C13 C 0.79587 0.61134 0.3234 0.0
C14 C 0.79794 0.5741 0.27587 0.0
C15 C 0.81504 0.56701 0.32098 0.0
C16 C 0.82318 0.5822 0.36665 0.0
C17 C 0.72084 0.60075 0.11297 0.0
C18 C 0.71015 0.6149 0.06646 0.0
C19 C 0.70849 0.58134 0.13158 0.0
C20 C 0.68686 0.57561 0.10173 0.0
C21 C 0.6772 0.58888 0.0516 0.0
C22 C 0.68903 0.6089 0.03559 0.0
C23 C 0.81303 0.60425 0.36853 0.0
H24 H 0.80859 0.62457 0.90084 0.0
H25 H 0.78141 0.63509 0.98697 0.0
H26 H 0.83557 0.61034 0.12045 0.0
H27 H 0.86285 0.60321 0.03537 0.0
H28 H 0.75749 0.61459 0.04368 0.0
H29 H 0.8102 0.62088 0.19112 0.0
H30 H 0.74185 0.59206 0.23142 0.0
H31 H 0.7894 0.62883 0.32325 0.0
H32 H 0.79338 0.56261 0.23818 0.0
H33 H 0.82291 0.55004 0.31806 0.0
H34 H 0.71867 0.63036 0.05187 0.0
H35 H 0.71599 0.57003 0.16727 0.0
H36 H 0.81908 0.61623 0.40337 0.0
H37 H 0.68271 0.61963 0.99719 0.0
H38 H 0.67807 0.56043 0.11722 0.0
C39 C 0.98607 0.80603 0.96652 0.0
C40 C 0.99846 0.82593 0.97778 0.0
C41 C 0.98195 0.79106 0.01657 0.0
C42 C 0.99069 0.79569 0.07783 0.0
C43 C 1.00157 0.81656 0.08858 0.0
C44 C 0.00489 0.83162 0.0395 0.0
C45 C 0.99061 0.77838 0.12916 0.0
C46 C 0.99206 0.75529 0.11512 0.0
C47 C 0.99287 0.73875 0.16309 0.0
C48 C 0.99559 0.74554 0.22641 0.0
C49 C 0.99551 0.76883 0.24071 0.0
C50 C 0.99129 0.78481 0.19264 0.0
C51 C 1.00086 0.77787 0.30396 0.0
C52 C 0.98399 0.77664 0.35296 0.0
C53 C 0.01988 0.79295 0.30928 0.0
C54 C 0.0206 0.80827 0.35902 0.0
C55 C 0.00255 0.80861 0.40572 0.0
C56 C 0.98978 0.71488 0.14381 0.0
C57 C 0.97232 0.71061 0.09791 0.0
C58 C 0.00555 0.69714 0.16282 0.0
C59 C 0.00484 0.67595 0.13262 0.0
C60 C 0.98877 0.67242 0.08186 0.0
C61 C 0.97228 0.69016 0.06625 0.0
C62 C 0.98495 0.79177 0.40382 0.0
H63 H 0.98055 0.80167 0.91913 0.0
H64 H 0.97262 0.77561 0.00662 0.0
H65 H 0.00896 0.82101 0.13395 0.0
H66 H 0.0139 0.84731 0.04923 0.0
H67 H 0.9926 0.74989 0.06633 0.0
H68 H 0.98938 0.80251 0.20546 0.0
H69 H 0.99759 0.73303 0.26372 0.0
H70 H 0.96905 0.76528 0.34948 0.0
H71 H 0.03296 0.79435 0.27154 0.0
H72 H 0.03429 0.82097 0.3576 0.0
H73 H 0.95959 0.72384 0.08298 0.0
H74 H 0.01912 0.69994 0.1985 0.0
H75 H 0.97114 0.79102 0.43977 0.0
H76 H 0.96 0.68924 0.02686 0.0
H77 H 0.01746 0.66276 0.14785 0.0
C78 C 0.68599 0.87398 0.95478 0.0
C79 C 0.67016 0.89275 0.9486 0.0
C80 C 0.70261 0.87321 0.00469 0.0
C81 C 0.70286 0.89095 0.04889 0.0
C82 C 0.68745 0.90991 0.04086 0.0
C83 C 0.67136 0.91084 0.99102 0.0
C84 C 0.71928 0.8905 0.10337 0.0
C85 C 0.74408 0.88955 0.09384 0.0
C86 C 0.76026 0.8937 0.14356 0.0
C87 C 0.75066 0.89913 0.20408 0.0
C88 C 0.72541 0.90014 0.21356 0.0
C89 C 0.71011 0.89516 0.16332 0.0
C90 C 0.71372 0.90907 0.27182 0.0
C91 C 0.71275 0.89599 0.32731 0.0
C92 C 0.69878 0.92863 0.26671 0.0
C93 C 0.6821 0.9342 0.31384 0.0
C94 C 0.68013 0.92053 0.36776 0.0
C95 C 0.78651 0.89515 0.1276 0.0
C96 C 0.79625 0.88214 0.07765 0.0
C97 C 0.80102 0.91169 0.1545 0.0
C98 C 0.82351 0.91654 0.12808 0.0
C99 C 0.83171 0.90572 0.07219 0.0
C100 C 0.818 0.88773 0.04927 0.0
C101 C 0.69616 0.9018 0.37531 0.0
H102 H 0.6851 0.85989 0.9223 0.0
H103 H 0.71468 0.85859 0.00995 0.0
H104 H 0.68772 0.92399 0.07358 0.0
H105 H 0.65915 0.92543 0.98673 0.0
H106 H 0.75054 0.88741 0.04591 0.0
H107 H 0.6907 0.89636 0.16994 0.0
H108 H 0.76251 0.90331 0.24268 0.0
H109 H 0.72369 0.88058 0.33177 0.0
H110 H 0.69894 0.93884 0.22408 0.0
H111 H 0.67009 0.9488 0.30716 0.0
H112 H 0.78626 0.86846 0.05726 0.0
H113 H 0.79452 0.92189 0.19362 0.0
H114 H 0.69493 0.89101 0.41658 0.0
H115 H 0.82297 0.87854 0.00707 0.0
H116 H 0.83381 0.92952 0.15054 0.0
C117 C 0.46882 0.70444 0.39336 0.0
C118 C 0.4913 0.69293 0.39774 0.0
C119 C 0.46471 0.72099 0.34691 0.0
C120 C 0.48309 0.72645 0.30457 0.0
C121 C 0.50614 0.71635 0.31236 0.0
C122 C 0.51026 0.69975 0.35878 0.0
C123 C 0.47675 0.73658 0.24282 0.0
C124 C 0.48351 0.75856 0.22546 0.0
C125 C 0.48151 0.76551 0.16196 0.0
C126 C 0.47324 0.75026 0.11667 0.0
C127 C 0.46816 0.72793 0.13282 0.0
C128 C 0.46807 0.72186 0.19686 0.0
C129 C 0.46979 0.71018 0.08323 0.0
C130 C 0.46322 0.71484 0.02006 0.0
C131 C 0.48239 0.68977 0.09683 0.0
C132 C 0.48952 0.67524 0.04885 0.0
C133 C 0.48499 0.68086 0.98539 0.0
C134 C 0.49078 0.78735 0.139 0.0
C135 C 0.48225 0.80814 0.16321 0.0
C136 C 0.50585 0.78729 0.08579 0.0
C137 C 0.51034 0.80726 0.05351 0.0
C138 C 0.50058 0.82813 0.07467 0.0
C139 C 0.48725 0.82841 0.13152 0.0
C140 C 0.471 0.70043 0.97141 0.0
H141 H 0.45396 0.69955 0.42317 0.0
H142 H 0.44668 0.7282 0.34082 0.0
H143 H 0.52035 0.71977 0.27883 0.0
H144 H 0.52765 0.69094 0.36063 0.0
H145 H 0.49135 0.76961 0.26016 0.0
H146 H 0.46375 0.70472 0.21053 0.0
H147 H 0.47311 0.75535 0.06751 0.0
H148 H 0.45298 0.73011 0.00781 0.0
H149 H 0.48822 0.68541 0.14418 0.0
H150 H 0.49908 0.65967 0.06191 0.0
H151 H 0.47067 0.80862 0.20438 0.0
H152 H 0.51299 0.77148 0.0666 0.0
H153 H 0.46665 0.70494 0.92307 0.0
H154 H 0.4799 0.84416 0.15038 0.0
H155 H 0.52028 0.8059 0.00971 0.0
C156 C 0.19685 0.38497 0.51557 0.0
C157 C 0.17233 0.38203 0.50342 0.0
C158 C 0.2138 0.38036 0.46866 0.0
C159 C 0.20656 0.37198 0.4094 0.0
C160 C 0.18277 0.36442 0.40353 0.0
C161 C 0.16564 0.36971 0.45 0.0
C162 C 0.22171 0.37619 0.35219 0.0
C163 C 0.24654 0.37942 0.35867 0.0
C164 C 0.25941 0.39156 0.31347 0.0
C165 C 0.24805 0.39787 0.25616 0.0
C166 C 0.2237 0.39247 0.24545 0.0
C167 C 0.21075 0.38205 0.29417 0.0
C168 C 0.21019 0.39988 0.18756 0.0
C169 C 0.20981 0.42267 0.16798 0.0
C170 C 0.19477 0.38479 0.15705 0.0
C171 C 0.1787 0.39246 0.11 0.0
C172 C 0.17737 0.41547 0.09309 0.0
C173 C 0.28306 0.40043 0.33334 0.0
C174 C 0.28385 0.41389 0.38796 0.0
C175 C 0.30486 0.39319 0.30516 0.0
C176 C 0.32705 0.39861 0.33292 0.0
C177 C 0.32759 0.41131 0.38898 0.0
C178 C 0.30583 0.41924 0.41543 0.0
C179 C 0.19342 0.43042 0.12164 0.0
H180 H 0.20244 0.39402 0.55731 0.0
H181 H 0.23181 0.38621 0.47698 0.0
H182 H 0.17669 0.35662 0.36042 0.0
H183 H 0.1468 0.36681 0.44021 0.0
H184 H 0.25569 0.37428 0.40178 0.0
H185 H 0.19151 0.38037 0.28814 0.0
H186 H 0.25778 0.4075 0.2213 0.0
H187 H 0.22121 0.43475 0.19097 0.0
H188 H 0.19455 0.36715 0.17129 0.0
H189 H 0.1665 0.3806 0.08902 0.0
H190 H 0.2673 0.41959 0.41083 0.0
H191 H 0.30471 0.38258 0.26357 0.0
H192 H 0.19282 0.44824 0.10921 0.0
H193 H 0.30583 0.42914 0.45842 0.0
H194 H 0.34371 0.39243 0.31166 0.0
C195 C 0.00204 0.20517 0.50208 0.0
C196 C 0.01693 0.18559 0.49993 0.0
C197 C 0.00332 0.22134 0.45425 0.0
C198 C 0.01974 0.21816 0.40431 0.0
C199 C 0.03713 0.20044 0.4081 0.0
C200 C 0.03576 0.18423 0.45585 0.0
C201 C 0.01615 0.23089 0.3446 0.0
C202 C 0.00984 0.25386 0.34543 0.0
C203 C 0.00363 0.2655 0.2897 0.0
C204 C 0.005 0.25408 0.23125 0.0
C205 C 0.01174 0.23076 0.22951 0.0
C206 C 0.01663 0.21943 0.28689 0.0
C207 C 0.01325 0.21736 0.16965 0.0
C208 C 0.99638 0.2204 0.12058 0.0
C209 C 0.03061 0.19963 0.16423 0.0
C210 C 0.02993 0.18426 0.11455 0.0
C211 C 0.01249 0.18652 0.06649 0.0
C212 C 0.99638 0.28971 0.29625 0.0
C213 C 0.97883 0.29562 0.3415 0.0
C214 C 0.01106 0.30662 0.27206 0.0
C215 C 0.01016 0.32841 0.29834 0.0
C216 C 0.99487 0.33348 0.34997 0.0
C217 C 0.97826 0.31712 0.36862 0.0
C218 C 0.99614 0.20529 0.06935 0.0
H219 H 0.98746 0.20652 0.53604 0.0
H220 H 0.98979 0.23491 0.45301 0.0
H221 H 0.05041 0.198 0.37109 0.0
H222 H 0.04747 0.16926 0.45343 0.0
H223 H 0.00957 0.26278 0.39014 0.0
H224 H 0.01999 0.20126 0.2871 0.0
H225 H 1.0008 0.26321 0.18802 0.0
H226 H 0.98275 0.23386 0.12287 0.0
H227 H 0.04439 0.19702 0.19996 0.0
H228 H 0.04266 0.17005 0.11585 0.0
H229 H 0.96727 0.28282 0.36088 0.0
H230 H 0.02472 0.30247 0.23713 0.0
H231 H 0.98278 0.20817 0.03277 0.0
H232 H 0.96619 0.32001 0.40807 0.0
H233 H 0.02259 0.34078 0.2809 0.0
C234 C 0.30898 0.11761 0.4951 0.0
C235 C 0.33344 0.11936 0.48087 0.0
C236 C 0.29169 0.12444 0.45104 0.0
C237 C 0.29861 0.13325 0.39178 0.0
C238 C 0.32286 0.13913 0.38377 0.0
C239 C 0.34026 0.13193 0.42774 0.0
C240 C 0.28245 0.13028 0.33592 0.0
C241 C 0.25776 0.12757 0.34547 0.0
C242 C 0.24474 0.11278 0.3075 0.0
C243 C 0.255 0.10527 0.24987 0.0
C244 C 0.27856 0.11175 0.2332 0.0
C245 C 0.29225 0.12358 0.27749 0.0
C246 C 0.29109 0.1038 0.17473 0.0
C247 C 0.29407 0.08054 0.16194 0.0
C248 C 0.30396 0.11931 0.138 0.0
C249 C 0.32032 0.11175 0.09175 0.0
C250 C 0.32446 0.08847 0.08192 0.0
C251 C 0.223 0.10253 0.33633 0.0
C252 C 0.22417 0.09579 0.40008 0.0
C253 C 0.20103 0.1006 0.30413 0.0
C254 C 0.18049 0.09295 0.33615 0.0
C255 C 0.18153 0.08725 0.40107 0.0
C256 C 0.2038 0.08885 0.43215 0.0
C257 C 0.31076 0.07295 0.11633 0.0
H258 H 0.30333 0.10852 0.53689 0.0
H259 H 0.27335 0.12001 0.46129 0.0
H260 H 0.32885 0.14711 0.34069 0.0
H261 H 0.35913 0.13395 0.41647 0.0
H262 H 0.24943 0.13424 0.38804 0.0
H263 H 0.31127 0.12549 0.26815 0.0
H264 H 0.24523 0.09391 0.21973 0.0
H265 H 0.2847 0.06819 0.19 0.0
H266 H 0.30222 0.13733 0.14729 0.0
H267 H 0.33071 0.12405 0.06616 0.0
H268 H 0.24092 0.09638 0.42616 0.0
H269 H 0.19958 0.1055 0.25494 0.0
H270 H 0.31358 0.0549 0.10935 0.0
H271 H 0.20565 0.08523 0.48204 0.0
H272 H 0.16385 0.09153 0.30995 0.0
C273 C 0.4901 0.29502 0.05558 0.0
C274 C 0.50953 0.30936 0.04561 0.0
C275 C 0.49102 0.27891 0.10433 0.0
C276 C 0.51131 0.27707 0.14381 0.0
C277 C 0.53129 0.29049 0.13123 0.0
C278 C 0.53045 0.30645 0.08228 0.0
C279 C 0.50904 0.26679 0.20704 0.0
C280 C 0.5151 0.24389 0.21996 0.0
C281 C 0.51484 0.23597 0.28289 0.0
C282 C 0.50838 0.25099 0.33163 0.0
C283 C 0.50248 0.2737 0.31913 0.0
C284 C 0.50227 0.2813 0.25646 0.0
C285 C 0.50042 0.28999 0.37194 0.0
C286 C 0.48983 0.28402 0.43004 0.0
C287 C 0.51205 0.31071 0.36686 0.0
C288 C 0.51441 0.32443 0.41918 0.0
C289 C 0.50562 0.31762 0.47816 0.0
C290 C 0.52099 0.21222 0.30074 0.0
C291 C 0.50755 0.19441 0.27683 0.0
C292 C 0.53647 0.20802 0.35229 0.0
C293 C 0.53624 0.18733 0.38423 0.0
C294 C 0.52084 0.17017 0.36461 0.0
C295 C 0.50756 0.17349 0.30837 0.0
C296 C 0.49244 0.29782 0.48309 0.0
H297 H 0.47374 0.29719 0.02807 0.0
H298 H 0.47519 0.26917 0.11435 0.0
H299 H 0.54678 0.28988 0.16245 0.0
H300 H 0.54544 0.31763 0.07599 0.0
H301 H 0.52053 0.23261 0.182 0.0
H302 H 0.49773 0.29892 0.24601 0.0
H303 H 0.50878 0.24503 0.3801 0.0
H304 H 0.48035 0.26832 0.43499 0.0
H305 H 0.5207 0.31582 0.32345 0.0
H306 H 0.52408 0.34005 0.41412 0.0
H307 H 0.49552 0.19721 0.23711 0.0
H308 H 0.54718 0.22147 0.37134 0.0
H309 H 0.48512 0.29261 0.5281 0.0
H310 H 0.49605 0.16041 0.29078 0.0
H311 H 0.54671 0.18561 0.42722 0.0
O312 O 0.04785 0.98592 0.81634 0.0
Mg313 Mg 0.04173 0.98276 0.71897 0.0
O314 O 0.01046 0.97775 0.80107 0.0
Mg315 Mg 0.99731 0.00142 0.71941 0.0
O316 O 0.03437 0.01223 0.67096 0.0
O317 O 0.06976 0.9925 0.66671 0.0
O318 O 0.98518 0.02483 0.63862 0.0
O319 O 1.00137 0.03263 0.78555 0.0
Mg320 Mg 0.95211 0.02223 0.72159 0.0
O321 O 0.95932 0.99112 0.76334 0.0
O322 O 0.94657 0.02418 0.62351 0.0
O323 O 0.96657 0.05076 0.76818 0.0
O324 O 0.92329 0.00966 0.76463 0.0
C325 C 0.00676 0.95246 0.65467 0.0
C326 C 0.02953 0.97553 0.8341 0.0
C327 C 0.05661 0.01 0.65126 0.0
C328 C 0.96695 0.03048 0.60555 0.0
C329 C 0.98741 0.04997 0.79272 0.0
C330 C 0.93656 0.99215 0.77949 0.0
O331 O 0.02668 0.95238 0.68381 0.0
O332 O 0.99327 0.97028 0.65337 0.0
O333 O 0.43955 -0.00124 0.76253 0.0
Mg334 Mg 0.4558 0.97649 0.69399 0.0
O335 O 0.47181 0.01755 0.79374 0.0
Mg336 Mg 0.50214 0.0035 0.72438 0.0
O337 O 0.48758 0.96718 0.7351 0.0
O338 O 0.45904 0.94247 0.71491 0.0
O339 O 0.53244 0.98946 0.65542 0.0
O340 O 0.52699 0.9925 0.80199 0.0
Mg341 Mg 0.55247 0.03291 0.74309 0.0
O342 O 0.51749 0.03828 0.71819 0.0
O343 O 0.56473 0.01105 0.66812 0.0
O344 O 0.55528 0.01571 0.83176 0.0
O345 O 0.54184 0.06689 0.72272 0.0
C346 C 0.46441 0.00864 0.60056 0.0
C347 C 0.44919 0.01352 0.79766 0.0
C348 C 0.47939 0.94686 0.74103 0.0
C349 C 0.55422 -0.00543 0.64188 0.0
C350 C 0.5452 -0.00332 0.83573 0.0
C351 C 0.52137 0.05921 0.70538 0.0
O352 O 0.45908 0.98799 0.59954 0.0
O353 O 0.47804 0.01556 0.64406 0.0
O354 O 0.54266 0.45489 0.77646 0.0
Mg355 Mg 0.55333 0.48063 0.71259 0.0
O356 O 0.50471 0.46735 0.77856 0.0
Mg357 Mg 0.50432 0.49842 0.70977 0.0
O358 O 0.54298 0.51185 0.74393 0.0
O359 O 0.58135 0.49837 0.74232 0.0
O360 O 0.5031 0.52997 0.64155 0.0
O361 O 0.4955 0.52143 0.78828 0.0
Mg362 Mg 0.45773 0.51783 0.72767 0.0
O363 O 0.4644 0.48686 0.68198 0.0
O364 O 0.46824 0.54557 0.67178 0.0
O365 O 0.45956 0.52561 0.82616 0.0
O366 O 0.42767 0.50264 0.69965 0.0
C367 C 0.53379 0.46782 0.59947 0.0
C368 C 0.52118 0.45314 0.79587 0.0
C369 C 0.5659 0.51427 0.75653 0.0
C370 C 0.48769 0.54652 0.6405 0.0
C371 C 0.4816 0.53031 0.82858 0.0
C372 C 0.44088 0.48641 0.67614 0.0
O373 O 0.55361 0.47619 0.61434 0.0
O374 O 0.51504 0.47413 0.62962 0.0
O375 O 0.95424 0.47987 0.82022 0.0
Mg376 Mg 0.95631 0.4689 0.72509 0.0
O377 O 0.97541 0.50953 0.79486 0.0
Mg378 Mg 0.00395 0.50118 0.719 0.0
O379 O 0.99147 0.46546 0.70221 0.0
O380 O 0.96778 0.43615 0.69875 0.0
O381 O 0.03087 0.49164 0.64206 0.0
O382 O 0.03329 0.48708 0.79229 0.0
Mg383 Mg 0.04926 0.53041 0.6998 0.0
O384 O 0.01601 0.538 0.73528 0.0
O385 O 0.05093 0.51985 0.60438 0.0
O386 O 0.06489 0.50807 0.76888 0.0
O387 O 0.04392 0.56401 0.72166 0.0
C388 C 0.95413 0.50966 0.62959 0.0
C389 C 0.95917 0.50048 0.82828 0.0
C390 C 0.98828 0.44475 0.68558 0.0
C391 C 0.04556 0.49922 0.60194 0.0
C392 C 0.05555 0.49201 0.80004 0.0
C393 C 0.02317 0.55856 0.74364 0.0
O394 O 0.94364 0.49271 0.65378 0.0
O395 O 0.97545 0.51514 0.64594 0.0
C396 C 0.16279 0.06427 0.48786 0.0
C397 C 0.15989 0.07952 0.43702 0.0
C398 C 0.14309 0.05718 0.52349 0.0
C399 C 0.11947 0.06446 0.5063 0.0
C400 C 0.11619 0.07994 0.45557 0.0
C401 C 0.13643 0.08751 0.42209 0.0
C402 C 0.14759 0.04107 0.57816 0.0
C403 C 0.09126 0.08787 0.43538 0.0
C404 C 0.07639 0.01861 0.55017 0.0
C405 C 0.06714 0.02649 0.60768 0.0
C406 C 0.09171 0.03185 0.51377 0.0
C407 C 0.09852 0.05331 0.53635 0.0
C408 C 0.08792 0.062 0.59261 0.0
C409 C 0.07207 0.04849 0.62747 0.0
C410 C 0.10225 0.02198 0.45379 0.0
C411 C 0.09496 0.0846 0.6189 0.0
H412 H 0.18051 0.05731 0.49947 0.0
H413 H 0.13379 0.09964 0.38407 0.0
H414 H 0.13702 0.04656 0.62012 0.0
H415 H 0.1417 0.02389 0.56514 0.0
H416 H 0.16696 0.03988 0.59153 0.0
H417 H 0.09174 0.1007 0.39694 0.0
H418 H 0.08095 0.0732 0.41867 0.0
H419 H 0.08125 0.09527 0.47603 0.0
H420 H 0.07259 0.00151 0.5352 0.0
H421 H 0.06508 0.05442 0.67244 0.0
H422 H 0.12143 0.01695 0.4618 0.0
H423 H 0.10168 0.03477 0.41528 0.0
H424 H 0.09253 0.0068 0.43802 0.0
H425 H 0.11404 0.08356 0.63469 0.0
H426 H 0.08353 0.08983 0.65966 0.0
H427 H 0.09358 0.09791 0.58194 0.0
C428 C 0.53497 0.14105 0.44477 0.0
C429 C 0.51642 0.15046 0.40702 0.0
C430 C 0.53016 0.12483 0.49148 0.0
C431 C 0.50626 0.11749 0.50028 0.0
C432 C 0.48773 0.12611 0.46033 0.0
C433 C 0.49295 0.1426 0.41479 0.0
C434 C 0.55061 0.11604 0.53272 0.0
C435 C 0.46208 0.11906 0.46796 0.0
C436 C 0.50665 0.06326 0.5959 0.0
C437 C 0.50744 0.07204 0.65723 0.0
C438 C 0.50379 0.07774 0.54343 0.0
C439 C 0.50106 0.10142 0.55297 0.0
C440 C 0.49814 0.1098 0.61522 0.0
C441 C 0.50198 0.09507 0.66674 0.0
C442 C 0.50682 0.06794 0.47815 0.0
C443 C 0.49367 0.13471 0.62772 0.0
H444 H 0.55325 0.14669 0.43872 0.0
H445 H 0.47829 0.15006 0.3872 0.0
H446 H 0.5473 0.12114 0.58241 0.0
H447 H 0.55161 0.09725 0.53147 0.0
H448 H 0.56832 0.1226 0.5179 0.0
H449 H 0.45054 0.12446 0.42743 0.0
H450 H 0.46119 0.10041 0.47342 0.0
H451 H 0.45475 0.1271 0.51124 0.0
H452 H 0.51122 0.04549 0.58838 0.0
H453 H 0.5026 0.10187 0.71419 0.0
H454 H 0.52545 0.0709 0.46148 0.0
H455 H 0.49421 0.0763 0.44416 0.0
H456 H 0.50386 0.0494 0.47777 0.0
H457 H 0.51094 0.14367 0.62387 0.0
H458 H 0.48623 0.13764 0.67579 0.0
H459 H 0.48097 0.14228 0.59256 0.0
C460 C 0.35839 0.40256 0.4724 0.0
C461 C 0.35045 0.41624 0.42187 0.0
C462 C 0.37695 0.40953 0.5128 0.0
C463 C 0.38746 0.43091 0.50306 0.0
C464 C 0.38046 0.44402 0.44943 0.0
C465 C 0.36202 0.43654 0.40961 0.0
C466 C 0.38397 0.39477 0.56848 0.0
C467 C 0.39104 0.46689 0.437 0.0
C468 C 0.40319 0.46775 0.64261 0.0
C469 C 0.42844 0.46872 0.63886 0.0
C470 C 0.38992 0.45457 0.60088 0.0
C471 C 0.40206 0.44159 0.55403 0.0
C472 C 0.42768 0.441 0.5529 0.0
C473 C 0.44062 0.45463 0.59531 0.0
C474 C 0.36269 0.45574 0.60461 0.0
C475 C 0.44132 0.42657 0.50561 0.0
H476 H 0.34923 0.38694 0.48218 0.0
H477 H 0.35566 0.44719 0.37091 0.0
H478 H 0.40376 0.39468 0.57614 0.0
H479 H 0.37525 0.40161 0.61178 0.0
H480 H 0.3782 0.37705 0.56209 0.0
H481 H 0.38569 0.47384 0.39009 0.0
H482 H 0.38478 0.479 0.47388 0.0
H483 H 0.41101 0.46573 0.4395 0.0
H484 H 0.39351 0.47814 0.67681 0.0
H485 H 0.46012 0.45498 0.59247 0.0
H486 H 0.35543 0.43846 0.60781 0.0
H487 H 0.35522 0.46376 0.56107 0.0
H488 H 0.35606 0.46566 0.64588 0.0
H489 H 0.43703 0.40849 0.51282 0.0
H490 H 0.46113 0.4284 0.5097 0.0
H491 H 0.43566 0.43121 0.45691 0.0
C492 C 0.02153 0.36248 0.39936 0.0
C493 C 0.99832 0.35408 0.38977 0.0
C494 C 0.02571 0.37962 0.44361 0.0
C495 C 0.00643 0.38817 0.48098 0.0
C496 C 0.98284 0.38035 0.47029 0.0
C497 C 0.97902 0.3638 0.42414 0.0
C498 C 0.05105 0.38759 0.45226 0.0
C499 C 0.96169 0.38882 0.50945 0.0
C500 C 0.00997 0.41036 0.64735 0.0
C501 C 0.00335 0.43316 0.63793 0.0
C502 C 0.01416 0.39589 0.5958 0.0
C503 C 0.01062 0.40433 0.5337 0.0
C504 C 0.00684 0.42793 0.52415 0.0
C505 C 0.00351 0.44217 0.57667 0.0
C506 C 0.01961 0.3711 0.6081 0.0
C507 C 0.00362 0.43772 0.45873 0.0
H508 H 0.03681 0.35502 0.37444 0.0
H509 H 0.96089 0.35803 0.41639 0.0
H510 H 0.0511 0.40562 0.46643 0.0
H511 H 0.06004 0.37736 0.48993 0.0
H512 H 0.06179 0.38545 0.40833 0.0
H513 H 0.94446 0.38124 0.49484 0.0
H514 H 0.96492 0.38465 0.55995 0.0
H515 H 0.95976 0.40753 0.50557 0.0
H516 H 0.00978 0.40341 0.6948 0.0
H517 H 0.99812 0.4598 0.56936 0.0
H518 H 0.03355 0.36449 0.57492 0.0
H519 H 0.00302 0.36136 0.60052 0.0
H520 H 0.02598 0.36803 0.6572 0.0
H521 H 0.01783 0.4309 0.4266 0.0
H522 H 0.00419 0.45652 0.4587 0.0
H523 H 0.98594 0.43271 0.4395 0.0
C524 C 0.86011 0.93697 0.04185 0.0
C525 C 0.85275 0.91446 0.03471 0.0
C526 C 0.87738 0.9464 0.00187 0.0
C527 C 0.88683 0.93359 0.95081 0.0
C528 C 0.88041 0.91071 0.9442 0.0
C529 C 0.86415 0.90124 0.98728 0.0
C530 C 0.8843 0.9707 0.01201 0.0
C531 C 0.88959 0.89662 0.88942 0.0
C532 C 0.90015 0.97152 0.81159 0.0
C533 C 0.92518 0.97392 0.81626 0.0
C534 C 0.88776 0.95729 0.85257 0.0
C535 C 0.90063 0.94526 0.9003 0.0
C536 C 0.92612 0.94655 0.90303 0.0
C537 C 0.93819 0.96073 0.86037 0.0
C538 C 0.86065 0.9562 0.84695 0.0
C539 C 0.94043 0.93416 0.95352 0.0
H540 H 0.85173 0.94792 0.0767 0.0
H541 H 0.85996 0.88358 0.98189 0.0
H542 H 0.9041 0.97241 0.00756 0.0
H543 H 0.87562 0.98164 0.97537 0.0
H544 H 0.87861 0.97708 0.05912 0.0
H545 H 0.88315 0.87897 0.89117 0.0
H546 H 0.88347 0.90449 0.8443 0.0
H547 H 0.90958 0.8961 0.88882 0.0
H548 H 0.89002 0.98142 0.77688 0.0
H549 H 0.95754 0.96251 0.86405 0.0
H550 H 0.85204 0.96477 0.88803 0.0
H551 H 0.85497 0.93833 0.84728 0.0
H552 H 0.85373 0.96454 0.8032 0.0
H553 H 0.93493 0.94056 0.0007 0.0
H554 H 0.96009 0.93642 0.94784 0.0
H555 H 0.93669 0.91581 0.95246 0.0
C556 C 0.52201 0.85109 0.99249 0.0
C557 C 0.50235 0.84871 0.03367 0.0
C558 C 0.52166 0.86751 0.94449 0.0
C559 C 0.50175 0.88292 0.93946 0.0
C560 C 0.48271 0.88183 0.98383 0.0
C561 C 0.48307 0.86459 0.02973 0.0
C562 C 0.54174 0.86685 0.89646 0.0
C563 C 0.46111 0.89791 0.9801 0.0
C564 C 0.50188 0.93692 0.84054 0.0
C565 C 0.48997 0.93 0.78578 0.0
C566 C 0.5072 0.92148 0.8897 0.0
C567 C 0.49962 0.89881 0.88478 0.0
C568 C 0.48849 0.89156 0.82851 0.0
C569 C 0.48404 0.90717 0.77957 0.0
C570 C 0.5194 0.93 0.94838 0.0
C571 C 0.47998 0.8676 0.82134 0.0
H572 H 0.53741 0.83945 0.99572 0.0
H573 H 0.46755 0.86293 0.06021 0.0
H574 H 0.53754 0.85418 0.85976 0.0
H575 H 0.54394 0.88339 0.87268 0.0
H576 H 0.55911 0.86134 0.91849 0.0
H577 H 0.44866 0.8959 0.02069 0.0
H578 H 0.46702 0.9157 0.97878 0.0
H579 H 0.45101 0.89482 0.93585 0.0
H580 H 0.50576 0.95465 0.84678 0.0
H581 H 0.4747 0.90174 0.73751 0.0
H582 H 0.53018 0.91642 0.97246 0.0
H583 H 0.50544 0.93636 0.98188 0.0
H584 H 0.53136 0.94424 0.93715 0.0
H585 H 0.49537 0.85539 0.82725 0.0
H586 H 0.47153 0.86469 0.77462 0.0
H587 H 0.46663 0.86387 0.8587 0.0
C588 C 0.64066 0.5971 0.9819 0.0
C589 C 0.65602 0.5813 0.01325 0.0
C590 C 0.62278 0.59012 0.93948 0.0
C591 C 0.61935 0.56673 0.92957 0.0
C592 C 0.63379 0.55069 0.96359 0.0
C593 C 0.65206 0.55811 0.00404 0.0
C594 C 0.60816 0.6078 0.90349 0.0
C595 C 0.63071 0.52554 0.95505 0.0
C596 C 0.56514 0.54023 0.85026 0.0
C597 C 0.57523 0.53374 0.79218 0.0
C598 C 0.57853 0.55279 0.89407 0.0
C599 C 0.60254 0.55872 0.87941 0.0
C600 C 0.61172 0.55407 0.81831 0.0
C601 C 0.59797 0.54169 0.77565 0.0
C602 C 0.56775 0.55775 0.95803 0.0
C603 C 0.637 0.56029 0.79983 0.0
H604 H 0.6428 0.61506 0.98944 0.0
H605 H 0.66382 0.54555 0.02644 0.0
H606 H 0.61228 0.60652 0.85236 0.0
H607 H 0.58871 0.6047 0.90909 0.0
H608 H 0.61182 0.6253 0.91932 0.0
H609 H 0.64188 0.5153 0.98872 0.0
H610 H 0.61153 0.52123 0.96166 0.0
H611 H 0.6359 0.52063 0.9063 0.0
H612 H 0.54774 0.53384 0.86378 0.0
H613 H 0.60582 0.53669 0.73075 0.0
H614 H 0.57353 0.57435 0.9762 0.0
H615 H 0.57406 0.54448 0.99192 0.0
H616 H 0.54773 0.55773 0.95649 0.0
H617 H 0.64029 0.57824 0.81159 0.0
H618 H 0.64044 0.55773 0.74865 0.0
H619 H 0.65022 0.54965 0.82681 0.0
C620 C 0.97064 0.64637 0.00188 0.0
C621 C 0.99021 0.65166 0.0409 0.0
C622 C 0.97339 0.6316 0.9509 0.0
C623 C 0.99514 0.61894 0.94355 0.0
C624 C 0.01411 0.62191 0.98731 0.0
C625 C 0.01178 0.63875 0.03405 0.0
C626 C 0.95351 0.63168 0.9026 0.0
C627 C 0.03746 0.6083 0.98223 0.0
C628 C 0.99796 0.56647 0.83937 0.0
C629 C 0.01073 0.57451 0.78718 0.0
C630 C 0.9919 0.58094 0.88992 0.0
C631 C 0.99881 0.60387 0.88789 0.0
C632 C 0.00969 0.61247 0.83273 0.0
C633 C 0.01566 0.59766 0.78324 0.0
C634 C 0.97933 0.57141 0.94685 0.0
C635 C 0.01574 0.63717 0.82685 0.0
H636 H 0.95321 0.65471 0.00814 0.0
H637 H 0.02726 0.64224 0.06312 0.0
H638 H 0.95604 0.61853 0.86595 0.0
H639 H 0.93589 0.62976 0.92663 0.0
H640 H 0.95273 0.64845 0.87859 0.0
H641 H 0.04935 0.61073 0.02372 0.0
H642 H 0.03374 0.58998 0.97783 0.0
H643 H 0.04727 0.61344 0.93909 0.0
H644 H 0.99418 0.54859 0.84279 0.0
H645 H 0.02522 0.60401 0.7425 0.0
H646 H 0.96396 0.5827 0.961 0.0
H647 H 0.99213 0.57049 0.98712 0.0
H648 H 0.97253 0.55418 0.93798 0.0
H649 H 0.99933 0.64794 0.83509 0.0
H650 H 0.02318 0.64136 0.77967 0.0
H651 H 0.02917 0.64158 0.86333 0.0
C652 C 0.98533 0.15746 0.50651 0.0
C653 C 0.00805 0.16437 0.52645 0.0
C654 C 0.97798 0.13539 0.51688 0.0
C655 C 0.99336 0.12015 0.55027 0.0
C656 C 0.01588 0.12727 0.5735 0.0
C657 C 0.02323 0.14934 0.56013 0.0
C658 C 0.95438 0.12805 0.48883 0.0
C659 C 0.03268 0.11129 0.60929 0.0
C660 C 0.95997 0.07089 0.61618 0.0
C661 C 0.96853 0.05301 0.57835 0.0
C662 C 0.96909 0.09253 0.60972 0.0
C663 C 0.98555 0.09678 0.56052 0.0
C664 C 0.99331 0.079 0.51971 0.0
C665 C 0.98507 0.05708 0.53024 0.0
C666 C 0.96211 0.11044 0.65775 0.0
C667 C 0.01053 0.08255 0.46556 0.0
H668 H 0.97392 0.16891 0.47873 0.0
H669 H 0.04099 0.15464 0.57428 0.0
H670 H 0.95758 0.113 0.45831 0.0
H671 H 0.94185 0.12304 0.5268 0.0
H672 H 0.94538 0.14165 0.46026 0.0
H673 H 0.04707 0.12048 0.63415 0.0
H674 H 0.0226 0.10123 0.64432 0.0
H675 H 0.04136 0.09921 0.5757 0.0
H676 H 0.94794 0.06743 0.6552 0.0
H677 H 0.99229 0.043 0.50271 0.0
H678 H 0.94973 0.12328 0.63597 0.0
H679 H 0.97831 0.11935 0.67423 0.0
H680 H 0.95299 0.10315 0.69955 0.0
H681 H 1.00035 0.08171 0.42054 0.0
H682 H 0.02452 0.06871 0.46469 0.0
H683 H 0.01968 0.09899 0.46711 0.0
C684 C 0.3461 0.0805 0.51361 0.0
C685 C 0.35107 0.10369 0.51113 0.0
C686 C 0.36393 0.0645 0.53091 0.0
C687 C 0.3872 0.07195 0.54569 0.0
C688 C 0.39181 0.0954 0.54792 0.0
C689 C 0.37369 0.11107 0.52973 0.0
C690 C 0.35803 0.03964 0.53194 0.0
C691 C 0.41582 0.10395 0.56925 0.0
C692 C 0.43139 0.03409 0.6326 0.0
C693 C 0.44524 0.02486 0.58326 0.0
C694 C 0.41187 0.04873 0.621 0.0
C695 C 0.40682 0.05521 0.55824 0.0
C696 C 0.4209 0.04615 0.50774 0.0
C697 C 0.43987 0.03058 0.52088 0.0
C698 C 0.39678 0.05709 0.67613 0.0
C699 C 0.41609 0.05314 0.44025 0.0
H700 H 0.32858 0.07472 0.49892 0.0
H701 H 0.37732 0.12903 0.52871 0.0
H702 H 0.36836 0.03056 0.49451 0.0
H703 H 0.36346 0.0319 0.57779 0.0
H704 H 0.33852 0.03687 0.52439 0.0
H705 H 0.41772 0.12219 0.55802 0.0
H706 H 0.41751 0.10192 0.62108 0.0
H707 H 0.4308 0.09391 0.54764 0.0
H708 H 0.43569 0.02961 0.68079 0.0
H709 H 0.45066 0.02328 0.48303 0.0
H710 H 0.37727 0.056 0.66542 0.0
H711 H 0.40051 0.0751 0.68559 0.0
H712 H 0.40069 0.04727 0.72001 0.0
H713 H 0.39738 0.04903 0.42687 0.0
H714 H 0.42874 0.04463 0.40669 0.0
H715 H 0.41777 0.07177 0.43548 0.0
C716 C 0.49318 0.34348 0.56515 0.0
C717 C 0.51147 0.33149 0.53307 0.0
C718 C 0.49834 0.36398 0.59486 0.0
C719 C 0.52173 0.37265 0.58828 0.0
C720 C 0.54086 0.35866 0.56551 0.0
C721 C 0.5355 0.33766 0.54015 0.0
C722 C 0.47828 0.3776 0.62607 0.0
C723 C 0.56617 0.36719 0.55811 0.0
C724 C 0.52211 0.43413 0.53784 0.0
C725 C 0.53453 0.44353 0.588 0.0
C726 C 0.51829 0.41076 0.53679 0.0
C727 C 0.52507 0.39727 0.59008 0.0
C728 C 0.53693 0.40701 0.64162 0.0
C729 C 0.54279 0.42975 0.63797 0.0
C730 C 0.50705 0.40058 0.47883 0.0
C731 C 0.54189 0.39408 0.70224 0.0
H732 H 0.47466 0.33825 0.56126 0.0
H733 H 0.54962 0.32772 0.51688 0.0
H734 H 0.48519 0.38702 0.6673 0.0
H735 H 0.47057 0.39017 0.59211 0.0
H736 H 0.46355 0.36654 0.64192 0.0
H737 H 0.5791 0.35364 0.54246 0.0
H738 H 0.56615 0.38107 0.52258 0.0
H739 H 0.5728 0.3742 0.60313 0.0
H740 H 0.51534 0.445 0.50006 0.0
H741 H 0.55244 0.4372 0.67661 0.0
H742 H 0.48927 0.3936 0.49077 0.0
H743 H 0.51865 0.38635 0.46112 0.0
H744 H 0.50442 0.4132 0.44023 0.0
H745 H 0.52463 0.39224 0.728 0.0
H746 H 0.55453 0.40303 0.73362 0.0
H747 H 0.54921 0.37674 0.69325 0.0
C748 C 0.13229 0.39099 0.55443 0.0
C749 C 0.15461 0.39802 0.53188 0.0
C750 C 0.1142 0.40708 0.57052 0.0
C751 C 0.11845 0.4304 0.56106 0.0
C752 C 0.14129 0.43751 0.54107 0.0
C753 C 0.15914 0.42124 0.52722 0.0
C754 C 0.09059 0.39932 0.59725 0.0
C755 C 0.1467 0.46231 0.53288 0.0
C756 C 0.06557 0.47101 0.52979 0.0
C757 C 0.06492 0.48302 0.5863 0.0
C758 C 0.08299 0.45357 0.52098 0.0
C759 C 0.09907 0.44763 0.57106 0.0
C760 C 0.09799 0.45965 0.62851 0.0
C761 C 0.08125 0.47745 0.6346 0.0
C762 C 0.08487 0.44226 0.45735 0.0
C763 C 0.11395 0.45401 0.68468 0.0
H764 H 0.12891 0.37304 0.55834 0.0
H765 H 0.17631 0.42673 0.50913 0.0
H766 H 0.0883 0.4061 0.64579 0.0
H767 H 0.07528 0.40623 0.56876 0.0
H768 H 0.08963 0.38056 0.59904 0.0
H769 H 0.16506 0.46491 0.51369 0.0
H770 H 0.13332 0.47054 0.5006 0.0
H771 H 0.14525 0.47102 0.57913 0.0
H772 H 0.05264 0.47524 0.49291 0.0
H773 H 0.08051 0.48669 0.67845 0.0
H774 H 0.08886 0.42383 0.46208 0.0
H775 H 0.10003 0.44965 0.43084 0.0
H776 H 0.06812 0.44486 0.42917 0.0
H777 H 0.10275 0.44666 0.72264 0.0
H778 H 0.12158 0.46977 0.704 0.0
H779 H 0.12899 0.44187 0.67416 0.0
C780 C 0.99038 0.85427 0.89316 0.0
C781 C 0.00684 0.84062 0.92693 0.0
C782 C 0.9977 0.87489 0.86751 0.0
C783 C 0.02154 0.882 0.87928 0.0
C784 C 0.03879 0.86676 0.90601 0.0
C785 C 0.03132 0.8457 0.92697 0.0
C786 C 0.97905 0.88992 0.83487 0.0
C787 C 0.06423 0.87366 0.92044 0.0
C788 C 0.04526 0.93718 0.81802 0.0
C789 C 0.03362 0.95268 0.85854 0.0
C790 C 0.04118 0.91404 0.82283 0.0
C791 C 0.02723 0.90617 0.87374 0.0
C792 C 0.01826 0.92161 0.91997 0.0
C793 C 0.02053 0.94493 0.91003 0.0
C794 C 0.05091 0.8987 0.77123 0.0
C795 C 0.00598 0.9135 0.9792 0.0
H796 H 0.97147 0.85005 0.89226 0.0
H797 H 0.04397 0.83458 0.95208 0.0
H798 H 0.98716 0.90388 0.80776 0.0
H799 H 0.96804 0.87972 0.80231 0.0
H800 H 0.96656 0.89738 0.87054 0.0
H801 H 0.07475 0.8602 0.9459 0.0
H802 H 0.07385 0.87751 0.87611 0.0
H803 H 0.0639 0.88922 0.94981 0.0
H804 H 0.05551 0.94333 0.77822 0.0
H805 H 0.01153 0.95703 0.94106 0.0
H806 H 0.04207 0.88209 0.76957 0.0
H807 H 0.07057 0.8958 0.77831 0.0
H808 H 0.04875 0.90704 0.72441 0.0
H809 H 1.00183 0.92759 0.01247 0.0
H810 H 0.01772 0.90067 0.00351 0.0
H811 H 0.98893 0.90518 0.9672 0.0
C812 C 0.65263 0.907 0.84962 0.0
C813 C 0.65018 0.89358 0.90366 0.0
C814 C 0.63317 0.92058 0.82821 0.0
C815 C 0.61149 0.9209 0.86339 0.0
C816 C 0.608 0.90471 0.91159 0.0
C817 C 0.62733 0.89051 0.92961 0.0
C818 C 0.637 0.93678 0.77408 0.0
C819 C 0.58541 0.9049 0.95123 0.0
C820 C 0.58044 0.97799 0.89089 0.0
C821 C 0.56042 0.97654 0.85124 0.0
C822 C 0.59742 0.95996 0.89474 0.0
C823 C 0.59423 0.94025 0.85767 0.0
C824 C 0.57406 0.93865 0.81793 0.0
C825 C 0.55751 0.95676 0.81506 0.0
C826 C 0.61892 0.96208 0.93786 0.0
C827 C 0.57032 0.91818 0.77673 0.0
H828 H 0.6704 0.90922 0.82956 0.0
H829 H 0.62565 0.88004 0.97153 0.0
H830 H 0.6205 0.93879 0.74475 0.0
H831 H 0.64128 0.9537 0.7931 0.0
H832 H 0.65221 0.93096 0.7435 0.0
H833 H 0.58315 0.8885 0.97609 0.0
H834 H 0.58659 0.91837 0.98743 0.0
H835 H 0.56923 0.90878 0.92218 0.0
H836 H 0.58315 -0.0066 0.91737 0.0
H837 H 0.5429 0.95574 0.78134 0.0
H838 H 0.63588 0.9596 0.91069 0.0
H839 H 0.6186 0.94866 0.97464 0.0
H840 H 0.61924 0.97884 0.96148 0.0
H841 H 0.58428 0.91752 0.73925 0.0
H842 H 0.55229 0.91857 0.75381 0.0
H843 H 0.57236 0.90233 0.8047 0.0
C844 C 0.47851 0.65899 0.88621 0.0
C845 C 0.4937 0.66505 0.93591 0.0
C846 C 0.48227 0.63823 0.85558 0.0
C847 C 0.50051 0.62316 0.87839 0.0
C848 C 0.51831 0.63095 0.9199 0.0
C849 C 0.51518 0.65243 0.94628 0.0
C850 C 0.46493 0.63126 0.80488 0.0
C851 C 0.53845 0.61555 0.94402 0.0
C852 C 0.47647 0.56429 0.89819 0.0
C853 C 0.48907 0.55261 0.85103 0.0
C854 C 0.48106 0.58716 0.90956 0.0
C855 C 0.4977 0.59862 0.87057 0.0
C856 C 0.51093 0.58674 0.82411 0.0
C857 C 0.50685 0.56382 0.81599 0.0
C858 C 0.46745 0.59927 0.96179 0.0
C859 C 0.52805 0.59812 0.77923 0.0
H860 H 0.46243 0.66911 0.8755 0.0
H861 H 0.52793 0.65794 0.98147 0.0
H862 H 0.47395 0.61969 0.77048 0.0
H863 H 0.44979 0.62217 0.82676 0.0
H864 H 0.45731 0.64628 0.77929 0.0
H865 H 0.55326 0.62529 0.96519 0.0
H866 H 0.53121 0.60418 0.98087 0.0
H867 H 0.54592 0.60471 0.90578 0.0
H868 H 0.46271 0.55577 0.9249 0.0
H869 H 0.51661 0.55519 0.77837 0.0
H870 H 0.45382 0.61122 0.94101 0.0
H871 H 0.47992 0.60929 0.99085 0.0
H872 H 0.45798 0.58729 0.99314 0.0
H873 H 0.51834 0.6021 0.73454 0.0
H874 H 0.54353 0.58653 0.76747 0.0
H875 H 0.53516 0.61412 0.79795 0.0
C876 C 0.87376 0.60399 0.89804 0.0
C877 C 0.85025 0.59886 0.91528 0.0
C878 C 0.88936 0.58703 0.87431 0.0
C879 C 0.88157 0.56447 0.87155 0.0
C880 C 0.85713 0.55973 0.88268 0.0
C881 C 0.84158 0.57717 0.90388 0.0
C882 C 0.91473 0.59302 0.85768 0.0
C883 C 0.84792 0.53599 0.87756 0.0
C884 C 0.92505 0.52399 0.79153 0.0
C885 C 0.93859 0.51555 0.8427 0.0
C886 C 0.90546 0.53889 0.8004 0.0
C887 C 0.89957 0.54585 0.86216 0.0
C888 C 0.9127 0.5368 0.91455 0.0
C889 C 0.93217 0.52152 0.90415 0.0
C890 C 0.89227 0.5483 0.74326 0.0
C891 C 0.90676 0.54395 0.98118 0.0
H892 H 0.88044 0.62076 0.90731 0.0
H893 H 0.82334 0.57328 0.91786 0.0
H894 H 0.92254 0.58204 0.82016 0.0
H895 H 0.91524 0.61085 0.84109 0.0
H896 H 0.92612 0.59083 0.90041 0.0
H897 H 0.8279 0.5358 0.8781 0.0
H898 H 0.85452 0.52773 0.83364 0.0
H899 H 0.85486 0.52571 0.91794 0.0
H900 H 0.93008 0.51918 0.74406 0.0
H901 H 0.94264 0.51475 0.94348 0.0
H902 H 0.8994 0.5652 0.73179 0.0
H903 H 0.87267 0.55055 0.75223 0.0
H904 H 0.89484 0.53719 0.70146 0.0
H905 H 0.91173 0.56187 0.98784 0.0
H906 H 0.91658 0.53334 0.01677 0.0
H907 H 0.8871 0.5429 0.98992 0.0
C908 C 0.03115 0.1553 -0.00093 0.0
C909 C 0.01072 0.16854 0.01662 0.0
C910 C 0.02921 0.13618 0.96022 0.0
C911 C 0.0065 0.13069 0.9351 0.0
C912 C 0.98613 0.14487 0.94833 0.0
C913 C 0.98836 0.16328 0.98976 0.0
C914 C 0.05136 0.1214 0.94786 0.0
C915 C 0.96172 0.14005 0.92069 0.0
C916 C 0.00191 0.08934 0.79807 0.0
C917 C 0.99518 0.06957 0.82933 0.0
C918 C 0.00645 0.10923 0.83191 0.0
C919 C 0.00368 0.10935 0.89844 0.0
C920 C 0.99732 0.08915 0.93012 0.0
C921 C 0.9932 0.06945 0.89508 0.0
C922 C 0.01332 0.13028 0.79627 0.0
C923 C 0.99418 0.08852 0.00088 0.0
H924 H 0.04878 0.1595 0.01671 0.0
H925 H 0.97228 0.17298 0.00266 0.0
H926 H 0.04814 0.10375 0.96327 0.0
H927 H 0.05523 0.1209 0.89652 0.0
H928 H 0.06754 0.1275 0.97287 0.0
H929 H 0.94836 0.15406 0.92941 0.0
H930 H 0.96317 0.13732 0.86901 0.0
H931 H 0.9548 0.12427 0.9418 0.0
H932 H 0.00315 0.08932 0.74699 0.0
H933 H 0.98763 0.05416 0.91883 0.0
H934 H 0.02969 0.13759 0.81715 0.0
H935 H 0.99857 0.14328 0.80002 0.0
H936 H 0.01677 0.12684 0.7455 0.0
H937 H 0.01071 0.09442 0.02449 0.0
H938 H 0.99027 0.07125 0.01854 0.0
H939 H 0.97911 0.1002 0.01485 0.0
C940 C 0.34472 0.08593 0.97563 0.0
C941 C 0.34443 0.08037 0.04004 0.0
C942 C 0.36319 0.07744 0.9357 0.0
C943 C 0.38208 0.06349 0.96114 0.0
C944 C 0.38245 0.05894 0.02688 0.0
C945 C 0.3635 0.06717 0.06528 0.0
C946 C 0.36198 0.08265 0.86595 0.0
C947 C 0.40253 0.04476 0.05643 0.0
C948 C 0.41061 0.01752 0.85783 0.0
C949 C 0.43299 0.02647 0.84164 0.0
C950 C 0.394 0.02952 0.89584 0.0
C951 C 0.39965 0.05126 0.91859 0.0
C952 C 0.4222 0.06055 0.90253 0.0
C953 C 0.43865 0.04802 0.86436 0.0
C954 C 0.37032 0.01882 0.91181 0.0
C955 C 0.42879 0.08384 0.92473 0.0
H956 H 0.3301 0.09633 0.95617 0.0
H957 H 0.36356 0.06328 0.11534 0.0
H958 H 0.37938 0.08932 0.84937 0.0
H959 H 0.35882 0.06684 0.83935 0.0
H960 H 0.34732 0.09518 0.8543 0.0
H961 H 0.4013 0.04436 0.10877 0.0
H962 H 0.40188 0.02712 0.03865 0.0
H963 H 0.42029 0.05148 0.04286 0.0
H964 H 0.40597 0.00091 0.8407 0.0
H965 H 0.45568 0.05527 0.85127 0.0
H966 H 0.35508 0.03002 0.89607 0.0
H967 H 0.36873 0.01674 0.9637 0.0
H968 H 0.36847 0.00196 0.88945 0.0
H969 H 0.41721 0.09678 0.90047 0.0
H970 H 0.44795 0.08754 0.91473 0.0
H971 H 0.42552 0.0856 0.97617 0.0
C972 C 0.49379 0.34854 0.02606 0.0
C973 C 0.50678 0.32947 0.00422 0.0
C974 C 0.4933 0.36893 0.99166 0.0
C975 C 0.50583 0.3701 0.93354 0.0
C976 C 0.51802 0.35046 0.90988 0.0
C977 C 0.51862 0.33041 0.94603 0.0
C978 C 0.48038 0.3895 0.01898 0.0
C979 C 0.53115 0.35089 0.84749 0.0
C980 C 0.49492 0.42081 0.82387 0.0
C981 C 0.51545 0.43345 0.83572 0.0
C982 C 0.49136 0.40013 0.85548 0.0
C983 C 0.50844 0.39236 0.90103 0.0
C984 C 0.52864 0.40566 0.91484 0.0
C985 C 0.53207 0.42583 0.88132 0.0
C986 C 0.46995 0.38619 0.83824 0.0
C987 C 0.54695 0.39834 0.96416 0.0
H988 H 0.48481 0.34774 0.07147 0.0
H989 H 0.5287 0.31559 0.92947 0.0
H990 H 0.49351 0.40296 0.02812 0.0
H991 H 0.46697 0.39646 0.9847 0.0
H992 H 0.47096 0.3856 0.06384 0.0
H993 H 0.53804 0.3338 0.83335 0.0
H994 H 0.51899 0.35765 0.80989 0.0
H995 H 0.54662 0.36236 0.85061 0.0
H996 H 0.4823 0.42649 0.78765 0.0
H997 H 0.54797 0.43562 0.89035 0.0
H998 H 0.45965 0.38174 0.88117 0.0
H999 H 0.47631 0.37007 0.81628 0.0
H1000 H 0.45761 0.3952 0.80463 0.0
H1001 H 0.53782 0.3952 0.00984 0.0
H1002 H 0.56091 0.41121 0.97159 0.0
H1003 H 0.55604 0.38221 0.94971 0.0
C1004 C 0.14161 0.44093 0.07018 0.0
C1005 C 0.15813 0.42419 0.04948 0.0
C1006 C 0.12332 0.44962 0.03015 0.0
C1007 C 0.12177 0.44179 0.96711 0.0
C1008 C 0.1382 0.42454 0.94623 0.0
C1009 C 0.156 0.41574 0.98794 0.0
C1010 C 0.10602 0.46766 0.05489 0.0
C1011 C 0.13758 0.416 0.87918 0.0
C1012 C 0.06463 0.45881 0.87407 0.0
C1013 C 0.0719 0.4786 0.84326 0.0
C1014 C 0.08079 0.4462 0.91319 0.0
C1015 C 0.10474 0.45354 0.92181 0.0
C1016 C 0.11221 0.4732 0.8898 0.0
C1017 C 0.09583 0.4854 0.85136 0.0
C1018 C 0.0722 0.42514 0.94576 0.0
C1019 C 0.13754 0.48165 0.89688 0.0
H1020 H 0.14296 0.44721 0.11806 0.0
H1021 H 0.16871 0.40273 0.9719 0.0
H1022 H 0.10879 0.48383 0.02938 0.0
H1023 H 0.08714 0.46275 0.04625 0.0
H1024 H 0.10839 0.47065 0.10624 0.0
H1025 H 0.15 0.40115 0.87193 0.0
H1026 H 0.11904 0.4112 0.86618 0.0
H1027 H 0.14285 0.42971 0.84641 0.0
H1028 H 0.04638 0.45315 0.86755 0.0
H1029 H 0.10194 0.50048 0.82761 0.0
H1030 H 0.07307 0.42737 0.99769 0.0
H1031 H 0.08421 0.41044 0.93378 0.0
H1032 H 0.05342 0.42114 0.93244 0.0
H1033 H 0.14073 0.48658 0.94662 0.0
H1034 H 0.14093 0.49651 0.86612 0.0
H1035 H 0.15089 0.46797 0.88513 0.0
C1036 C 0.97815 0.83702 0.46958 0.0
C1037 C 1.00078 0.82796 0.45115 0.0
C1038 C 0.97616 0.85685 0.50601 0.0
C1039 C 0.99723 0.86842 0.52261 0.0
C1040 C 0.02011 0.85922 0.50531 0.0
C1041 C 0.02161 0.8389 0.47118 0.0
C1042 C 0.95147 0.8657 0.52528 0.0
C1043 C 0.04305 0.8712 0.52127 0.0
C1044 C 0.99536 0.93164 0.5574 0.0
C1045 C 0.99987 0.9316 0.62233 0.0
C1046 C 0.9935 0.91113 0.52437 0.0
C1047 C 0.99562 0.89025 0.55766 0.0
C1048 C 0.99848 0.89033 0.62405 0.0
C1049 C 1.00092 0.91102 0.65541 0.0
C1050 C 0.99097 0.91178 0.45344 0.0
C1051 C 1.00004 0.86854 0.66159 0.0
H1052 H 0.96182 0.82912 0.45384 0.0
H1053 H 0.03924 0.83188 0.459 0.0
H1054 H 0.95121 0.86991 0.5763 0.0
H1055 H 0.94697 0.88152 0.49888 0.0
H1056 H 0.93723 0.85328 0.51576 0.0
H1057 H 0.05936 0.86227 0.50224 0.0
H1058 H 0.04226 0.8887 0.50182 0.0
H1059 H 0.04501 0.8726 0.5732 0.0
H1060 H 0.99482 0.94762 0.53193 0.0
H1061 H 0.00427 0.91114 0.70577 0.0
H1062 H 0.97587 0.90118 0.43808 0.0
H1063 H 0.00768 0.90464 0.43153 0.0
H1064 H 0.98781 0.92929 0.43525 0.0
H1065 H 1.00014 0.8716 0.71327 0.0
H1066 H 0.01678 0.85888 0.64909 0.0
H1067 H 0.98461 0.85774 0.64987 0.0
C1068 C 0.66513 0.93272 0.4746 0.0
C1069 C 0.66026 0.92542 0.41319 0.0
C1070 C 0.6464 0.94095 0.514 0.0
C1071 C 0.62226 0.94167 0.49156 0.0
C1072 C 0.61718 0.93264 0.43127 0.0
C1073 C 0.63625 0.9249 0.39258 0.0
C1074 C 0.65261 0.95015 0.57818 0.0
C1075 C 0.59174 0.93235 0.40611 0.0
C1076 C 0.57131 0.95686 0.60731 0.0
C1077 C 0.56877 0.98035 0.59792 0.0
C1078 C 0.58841 0.94385 0.57268 0.0
C1079 C 0.60302 0.95458 0.52708 0.0
C1080 C 0.59969 0.97816 0.51591 0.0
C1081 C 0.58289 0.99076 0.55201 0.0
C1082 C 0.59154 0.9189 0.58713 0.0
C1083 C 0.6144 0.99028 0.46694 0.0
H1084 H 0.68369 0.93311 0.49052 0.0
H1085 H 0.63248 0.91904 0.34523 0.0
H1086 H 0.64965 0.96882 0.57827 0.0
H1087 H 0.64064 0.94303 0.61474 0.0
H1088 H 0.67166 0.94625 0.59138 0.0
H1089 H 0.59036 0.92165 0.36327 0.0
H1090 H 0.57925 0.92593 0.44255 0.0
H1091 H 0.58563 0.94987 0.39386 0.0
H1092 H 0.56083 0.94887 0.64396 0.0
H1093 H 0.58105 0.00894 0.54512 0.0
H1094 H 0.60797 0.9161 0.61633 0.0
H1095 H 0.59394 0.90891 0.54319 0.0
H1096 H 0.57592 0.91233 0.61371 0.0
H1097 H 0.6338 0.98906 0.47972 0.0
H1098 H 0.60899 0.00847 0.46233 0.0
H1099 H 0.61237 0.98209 0.42024 0.0
C1100 C 0.51274 0.6681 0.47819 0.0
C1101 C 0.49374 0.67173 0.43533 0.0
C1102 C 0.51488 0.64773 0.51293 0.0
C1103 C 0.49802 0.63047 0.503 0.0
C1104 C 0.47921 0.63395 0.45852 0.0
C1105 C 0.47721 0.65456 0.4257 0.0
C1106 C 0.53485 0.64483 0.56089 0.0
C1107 C 0.46071 0.61613 0.44685 0.0
C1108 C 0.50779 0.56892 0.55449 0.0
C1109 C 0.49265 0.56805 0.60731 0.0
C1110 C 0.51072 0.58944 0.52145 0.0
C1111 C 0.49846 0.60947 0.54236 0.0
C1112 C 0.48422 0.6088 0.59765 0.0
C1113 C 0.48154 0.58818 0.62932 0.0
C1114 C 0.52603 0.58952 0.46262 0.0
C1115 C 0.47135 0.62978 0.62298 0.0
H1116 H 0.52561 0.68135 0.48534 0.0
H1117 H 0.46277 0.65718 0.39171 0.0
H1118 H 0.52712 0.6415 0.60822 0.0
H1119 H 0.54651 0.62993 0.54852 0.0
H1120 H 0.54622 0.66 0.56382 0.0
H1121 H 0.44819 0.62086 0.40771 0.0
H1122 H 0.46979 0.59967 0.43536 0.0
H1123 H 0.44993 0.61359 0.4903 0.0
H1124 H 0.51662 0.55347 0.53774 0.0
H1125 H 0.47046 0.58781 0.67146 0.0
H1126 H 0.53923 0.60327 0.46496 0.0
H1127 H 0.51439 0.59292 0.42085 0.0
H1128 H 0.53595 0.57312 0.45552 0.0
H1129 H 0.48479 0.64122 0.64353 0.0
H1130 H 0.45803 0.62567 0.66013 0.0
H1131 H 0.46173 0.63923 0.58481 0.0
C1132 C 0.84058 0.55924 0.45605 0.0
C1133 C 0.8436 0.57544 0.40856 0.0
C1134 C 0.86027 0.55133 0.49261 0.0
C1135 C 0.88371 0.55926 0.48 0.0
C1136 C 0.88669 0.57611 0.43295 0.0
C1137 C 0.86655 0.58409 0.39809 0.0
C1138 C 0.85607 0.53403 0.54382 0.0
C1139 C 0.91125 0.58487 0.41684 0.0
C1140 C 0.93142 0.54571 0.60549 0.0
C1141 C 0.93998 0.52432 0.5858 0.0
C1142 C 0.91379 0.55787 0.57024 0.0
C1143 C 0.90503 0.54862 0.51322 0.0
C1144 C 0.91518 0.52784 0.49088 0.0
C1145 C 0.9321 0.51568 0.52818 0.0
C1146 C 0.90343 0.57984 0.59619 0.0
C1147 C 0.90737 0.51792 0.42882 0.0
H1148 H 0.8228 0.55261 0.46412 0.0
H1149 H 0.86888 0.59651 0.36088 0.0
H1150 H 0.86488 0.51761 0.53071 0.0
H1151 H 0.86429 0.53955 0.58881 0.0
H1152 H 0.83659 0.53125 0.55183 0.0
H1153 H 0.90991 0.60123 0.39079 0.0
H1154 H 0.92234 0.58721 0.45978 0.0
H1155 H 0.9209 0.57231 0.38649 0.0
H1156 H 0.93737 0.55225 0.6505 0.0
H1157 H 0.93875 0.49913 0.51305 0.0
H1158 H 0.88502 0.57697 0.61452 0.0
H1159 H 0.9018 0.59293 0.55865 0.0
H1160 H 0.9146 0.58649 0.63516 0.0
H1161 H 0.88864 0.51196 0.43299 0.0
H1162 H 0.91922 0.5034 0.41415 0.0
H1163 H 0.90748 0.53105 0.39118 0.0
loop_
_geom_bond_atom_site_label_1
_geom_bond_atom_site_label_2
_geom_bond_distance
_geom_bond_site_symmetry_2
_ccdc_geom_bond_type
C0 C1 1.386 . S
C0 C2 1.397 . S
C0 H24 0.931 . S
C1 C0 1.386 . S
C1 C5 1.397 . S
C2 C0 1.397 . S
C2 C3 1.384 1_556 S
C2 H25 0.930 . S
C3 C2 1.384 1_554 S
C3 C4 1.377 . S
C3 C6 1.481 . S
C4 C3 1.377 . S
C4 C5 1.389 1_554 S
C4 H26 0.929 . S
C5 C1 1.397 . S
C5 C4 1.389 1_556 S
C5 H27 0.931 . S
C6 C3 1.481 . S
C6 C7 1.387 . S
C6 C11 1.390 . S
C7 C6 1.387 . S
C7 C8 1.401 . S
C7 H28 0.936 . S
C8 C7 1.401 . S
C8 C9 1.376 . S
C8 C17 1.511 . S
C9 C8 1.376 . S
C9 C10 1.392 . S
C9 H30 0.931 . S
C10 C9 1.392 . S
C10 C11 1.361 . S
C10 C12 1.500 . S
C11 C6 1.390 . S
C11 C10 1.361 . S
C11 H29 0.931 . S
C12 C10 1.500 . S
C12 C13 1.371 . S
C12 C14 1.365 . S
C13 C12 1.371 . S
C13 C23 1.386 . S
C13 H31 0.931 . S
C14 C12 1.365 . S
C14 C15 1.409 . S
C14 H32 0.929 . S
C15 C14 1.409 . S
C15 C16 1.380 . S
C15 H33 0.930 . S
C16 C15 1.380 . S
C16 C23 1.357 . S
C17 C8 1.511 . S
C17 C18 1.341 . S
C17 C19 1.371 . S
C18 C17 1.341 . S
C18 C22 1.390 1_554 S
C18 H34 0.930 1_554 S
C19 C17 1.371 . S
C19 C20 1.392 . S
C19 H35 0.931 . S
C20 C19 1.392 . S
C20 C21 1.331 . S
C20 H38 0.932 . S
C21 C20 1.331 . S
C21 C22 1.326 1_554 S
C22 C18 1.390 1_556 S
C22 C21 1.326 1_556 S
C22 H37 0.943 . S
C23 C13 1.386 . S
C23 C16 1.357 . S
C23 H36 0.928 . S
H24 C0 0.931 . S
H25 C2 0.930 . S
H26 C4 0.929 . S
H27 C5 0.931 . S
H28 C7 0.936 . S
H29 C11 0.931 . S
H30 C9 0.931 . S
H31 C13 0.931 . S
H32 C14 0.929 . S
H33 C15 0.930 . S
H34 C18 0.930 1_556 S
H35 C19 0.931 . S
H36 C23 0.928 . S
H37 C22 0.943 . S
H38 C20 0.932 . S
C39 C40 1.396 . S
C39 C41 1.397 . S
C39 H63 0.931 . S
C40 C39 1.396 . S
C40 C44 1.387 1_655 S
C41 C39 1.397 . S
C41 C42 1.389 1_556 S
C41 H64 0.930 . S
C42 C41 1.389 1_554 S
C42 C43 1.372 1_655 S
C42 C45 1.480 . S
C43 C42 1.372 1_455 S
C43 C44 1.389 1_554 S
C43 H65 0.929 . S
C44 C40 1.387 1_455 S
C44 C43 1.389 1_556 S
C44 H66 0.931 . S
C45 C42 1.480 . S
C45 C46 1.389 . S
C45 C50 1.390 . S
C46 C45 1.389 . S
C46 C47 1.402 . S
C46 H67 0.930 . S
C47 C46 1.402 . S
C47 C48 1.376 . S
C47 C56 1.514 . S
C48 C47 1.376 . S
C48 C49 1.390 . S
C48 H69 0.935 . S
C49 C48 1.390 . S
C49 C50 1.361 . S
C49 C51 1.499 1_655 S
C50 C45 1.390 . S
C50 C49 1.361 . S
C50 H68 0.931 . S
C51 C49 1.499 1_455 S
C51 C52 1.362 1_455 S
C51 C53 1.375 . S
C52 C51 1.362 1_655 S
C52 C62 1.386 . S
C52 H70 0.931 . S
C53 C51 1.375 . S
C53 C54 1.409 . S
C53 H71 0.929 . S
C54 C53 1.409 . S
C54 C55 1.379 . S
C54 H72 0.930 . S
C55 C54 1.379 . S
C55 C62 1.359 1_455 S
C56 C47 1.514 . S
C56 C57 1.341 . S
C56 C58 1.371 1_655 S
C57 C56 1.341 . S
C57 C61 1.394 . S
C57 H73 0.930 . S
C58 C56 1.371 1_455 S
C58 C59 1.392 . S
C58 H74 0.931 . S
C59 C58 1.392 . S
C59 C60 1.323 1_455 S
C59 H77 0.932 . S
C60 C59 1.323 1_655 S
C60 C61 1.344 . S
C61 C57 1.394 . S
C61 C60 1.344 . S
C61 H76 0.929 1_554 S
C62 C52 1.386 . S
C62 C55 1.359 1_655 S
C62 H75 0.928 . S
H63 C39 0.931 . S
H64 C41 0.930 . S
H65 C43 0.929 . S
H66 C44 0.931 . S
H67 C46 0.930 . S
H68 C50 0.931 . S
H69 C48 0.935 . S
H70 C52 0.931 . S
H71 C53 0.929 . S
H72 C54 0.930 . S
H73 C57 0.930 . S
H74 C58 0.931 . S
H75 C62 0.928 . S
H76 C61 0.929 1_556 S
H77 C59 0.932 . S
C78 C79 1.386 . S
C78 C80 1.397 . S
C78 H102 0.931 . S
C79 C78 1.386 . S
C79 C83 1.397 . S
C80 C78 1.397 . S
C80 C81 1.384 1_556 S
C80 H103 0.930 . S
C81 C80 1.384 1_554 S
C81 C82 1.377 . S
C81 C84 1.481 . S
C82 C81 1.377 . S
C82 C83 1.389 1_554 S
C82 H104 0.929 . S
C83 C79 1.397 . S
C83 C82 1.389 1_556 S
C83 H105 0.931 . S
C84 C81 1.481 . S
C84 C85 1.387 . S
C84 C89 1.390 . S
C85 C84 1.387 . S
C85 C86 1.401 . S
C85 H106 0.930 . S
C86 C85 1.401 . S
C86 C87 1.376 . S
C86 C95 1.511 . S
C87 C86 1.376 . S
C87 C88 1.392 . S
C87 H108 0.931 . S
C88 C87 1.392 . S
C88 C89 1.361 . S
C88 C90 1.500 . S
C89 C84 1.390 . S
C89 C88 1.361 . S
C89 H107 0.931 . S
C90 C88 1.500 . S
C90 C91 1.371 . S
C90 C92 1.365 . S
C91 C90 1.371 . S
C91 C101 1.386 . S
C91 H109 0.931 . S
C92 C90 1.365 . S
C92 C93 1.409 . S
C92 H110 0.929 . S
C93 C92 1.409 . S
C93 C94 1.380 . S
C93 H111 0.930 . S
C94 C93 1.380 . S
C94 C101 1.357 . S
C95 C86 1.511 . S
C95 C96 1.341 . S
C95 C97 1.371 . S
C96 C95 1.341 . S
C96 C100 1.394 . S
C96 H112 0.930 1_554 S
C97 C95 1.371 . S
C97 C98 1.392 . S
C97 H113 0.931 . S
C98 C97 1.392 . S
C98 C99 1.331 . S
C98 H116 0.932 . S
C99 C98 1.331 . S
C99 C100 1.336 . S
C100 C96 1.394 . S
C100 C99 1.336 . S
C100 H115 0.929 1_554 S
C101 C91 1.386 . S
C101 C94 1.357 . S
C101 H114 0.928 . S
H102 C78 0.931 . S
H103 C80 0.930 . S
H104 C82 0.929 . S
H105 C83 0.931 . S
H106 C85 0.930 . S
H107 C89 0.931 . S
H108 C87 0.931 . S
H109 C91 0.931 . S
H110 C92 0.929 . S
H111 C93 0.930 . S
H112 C96 0.930 1_556 S
H113 C97 0.931 . S
H114 C101 0.928 . S
H115 C100 0.929 1_556 S
H116 C98 0.932 . S
C117 C118 1.386 . S
C117 C119 1.397 . S
C117 H141 0.931 . S
C118 C117 1.386 . S
C118 C122 1.397 . S
C119 C117 1.397 . S
C119 C120 1.384 . S
C119 H142 0.930 . S
C120 C119 1.384 . S
C120 C121 1.377 . S
C120 C123 1.481 . S
C121 C120 1.377 . S
C121 C122 1.389 . S
C121 H143 0.929 . S
C122 C118 1.397 . S
C122 C121 1.389 . S
C122 H144 0.931 . S
C123 C120 1.481 . S
C123 C124 1.387 . S
C123 C128 1.390 . S
C124 C123 1.387 . S
C124 C125 1.401 . S
C124 H145 0.930 . S
C125 C124 1.401 . S
C125 C126 1.376 . S
C125 C134 1.511 . S
C126 C125 1.376 . S
C126 C127 1.392 . S
C126 H147 0.931 . S
C127 C126 1.392 . S
C127 C128 1.361 . S
C127 C129 1.500 . S
C128 C123 1.390 . S
C128 C127 1.361 . S
C128 H146 0.931 . S
C129 C127 1.500 . S
C129 C130 1.371 1_554 S
C129 C131 1.365 . S
C130 C129 1.371 1_556 S
C130 C140 1.386 . S
C130 H148 0.931 . S
C131 C129 1.365 . S
C131 C132 1.409 1_554 S
C131 H149 0.929 . S
C132 C131 1.409 1_556 S
C132 C133 1.380 . S
C132 H150 0.930 . S
C133 C132 1.380 . S
C133 C140 1.357 . S
C134 C125 1.511 . S
C134 C135 1.341 . S
C134 C136 1.371 . S
C135 C134 1.341 . S
C135 C139 1.394 . S
C135 H151 0.930 . S
C136 C134 1.371 . S
C136 C137 1.392 . S
C136 H152 0.931 . S
C137 C136 1.392 . S
C137 C138 1.331 . S
C137 H155 0.932 1_554 S
C138 C137 1.331 . S
C138 C139 1.336 . S
C139 C135 1.394 . S
C139 C138 1.336 . S
C139 H154 0.929 . S
C140 C130 1.386 . S
C140 C133 1.357 . S
C140 H153 0.928 . S
H141 C117 0.931 . S
H142 C119 0.930 . S
H143 C121 0.929 . S
H144 C122 0.931 . S
H145 C124 0.930 . S
H146 C128 0.931 . S
H147 C126 0.931 . S
H148 C130 0.931 . S
H149 C131 0.929 . S
H150 C132 0.930 . S
H151 C135 0.930 . S
H152 C136 0.931 . S
H153 C140 0.928 . S
H154 C139 0.929 . S
H155 C137 0.932 1_556 S
C156 C157 1.386 . S
C156 C158 1.397 . S
C156 H180 0.931 . S
C157 C156 1.386 . S
C157 C161 1.397 . S
C158 C156 1.397 . S
C158 C159 1.384 . S
C158 H181 0.930 . S
C159 C158 1.384 . S
C159 C160 1.377 . S
C159 C162 1.481 . S
C160 C159 1.377 . S
C160 C161 1.389 . S
C160 H182 0.929 . S
C161 C157 1.397 . S
C161 C160 1.389 . S
C161 H183 0.931 . S
C162 C159 1.481 . S
C162 C163 1.387 . S
C162 C167 1.390 . S
C163 C162 1.387 . S
C163 C164 1.401 . S
C163 H184 0.930 . S
C164 C163 1.401 . S
C164 C165 1.376 . S
C164 C173 1.511 . S
C165 C164 1.376 . S
C165 C166 1.392 . S
C165 H186 0.931 . S
C166 C165 1.392 . S
C166 C167 1.361 . S
C166 C168 1.500 . S
C167 C162 1.390 . S
C167 C166 1.361 . S
C167 H185 0.931 . S
C168 C166 1.500 . S
C168 C169 1.371 . S
C168 C170 1.365 . S
C169 C168 1.371 . S
C169 C179 1.386 . S
C169 H187 0.931 . S
C170 C168 1.365 . S
C170 C171 1.409 . S
C170 H188 0.929 . S
C171 C170 1.409 . S
C171 C172 1.380 . S
C171 H189 0.930 . S
C172 C171 1.380 . S
C172 C179 1.357 . S
C173 C164 1.511 . S
C173 C174 1.341 . S
C173 C175 1.371 . S
C174 C173 1.341 . S
C174 C178 1.394 . S
C174 H190 0.930 . S
C175 C173 1.371 . S
C175 C176 1.392 . S
C175 H191 0.931 . S
C176 C175 1.392 . S
C176 C177 1.331 . S
C176 H194 0.932 . S
C177 C176 1.331 . S
C177 C178 1.336 . S
C178 C174 1.394 . S
C178 C177 1.336 . S
C178 H193 0.929 . S
C179 C169 1.386 . S
C179 C172 1.357 . S
C179 H192 0.928 . S
H180 C156 0.931 . S
H181 C158 0.930 . S
H182 C160 0.929 . S
H183 C161 0.931 . S
H184 C163 0.930 . S
H185 C167 0.931 . S
H186 C165 0.931 . S
H187 C169 0.931 . S
H188 C170 0.929 . S
H189 C171 0.930 . S
H190 C174 0.930 . S
H191 C175 0.931 . S
H192 C179 0.928 . S
H193 C178 0.929 . S
H194 C176 0.932 . S
C195 C196 1.389 . S
C195 C197 1.397 . S
C195 H219 0.931 . S
C196 C195 1.389 . S
C196 C200 1.394 1_655 S
C197 C195 1.397 . S
C197 C198 1.383 . S
C197 H220 0.930 . S
C198 C197 1.383 . S
C198 C199 1.378 1_655 S
C198 C201 1.481 . S
C199 C198 1.378 1_455 S
C199 C200 1.389 . S
C199 H221 0.929 . S
C200 C196 1.394 1_455 S
C200 C199 1.389 . S
C200 H222 0.931 . S
C201 C198 1.481 . S
C201 C202 1.387 . S
C201 C206 1.390 . S
C202 C201 1.387 . S
C202 C203 1.402 . S
C202 H223 0.930 . S
C203 C202 1.402 . S
C203 C204 1.376 . S
C203 C212 1.511 . S
C204 C203 1.376 . S
C204 C205 1.393 1_655 S
C204 H225 0.933 . S
C205 C204 1.393 1_455 S
C205 C206 1.361 1_455 S
C205 C207 1.499 . S
C206 C201 1.390 . S
C206 C205 1.361 1_655 S
C206 H224 0.931 . S
C207 C205 1.499 . S
C207 C208 1.358 1_455 S
C207 C209 1.379 . S
C208 C207 1.358 1_655 S
C208 C218 1.386 . S
C208 H226 0.931 . S
C209 C207 1.379 . S
C209 C210 1.409 . S
C209 H227 0.929 . S
C210 C209 1.409 . S
C210 C211 1.384 . S
C210 H228 0.930 . S
C211 C210 1.384 . S
C211 C218 1.354 1_455 S
C212 C203 1.511 . S
C212 C213 1.341 . S
C212 C214 1.371 1_655 S
C213 C212 1.341 . S
C213 C217 1.394 . S
C213 H229 0.930 . S
C214 C212 1.371 1_455 S
C214 C215 1.392 . S
C214 H230 0.931 . S
C215 C214 1.392 . S
C215 C216 1.326 1_455 S
C215 H233 0.932 . S
C216 C215 1.326 1_655 S
C216 C217 1.341 . S
C217 C213 1.394 . S
C217 C216 1.341 . S
C217 H232 0.929 . S
C218 C208 1.386 . S
C218 C211 1.354 1_655 S
C218 H231 0.928 . S
H219 C195 0.931 . S
H220 C197 0.930 . S
H221 C199 0.929 . S
H222 C200 0.931 . S
H223 C202 0.930 . S
H224 C206 0.931 . S
H225 C204 0.933 . S
H226 C208 0.931 . S
H227 C209 0.929 . S
H228 C210 0.930 . S
H229 C213 0.930 . S
H230 C214 0.931 . S
H231 C218 0.928 . S
H232 C217 0.929 . S
H233 C215 0.932 . S
C234 C235 1.386 . S
C234 C236 1.397 . S
C234 H258 0.931 . S
C235 C234 1.386 . S
C235 C239 1.397 . S
C236 C234 1.397 . S
C236 C237 1.384 . S
C236 H259 0.930 . S
C237 C236 1.384 . S
C237 C238 1.377 . S
C237 C240 1.481 . S
C238 C237 1.377 . S
C238 C239 1.389 . S
C238 H260 0.929 . S
C239 C235 1.397 . S
C239 C238 1.389 . S
C239 H261 0.931 . S
C240 C237 1.481 . S
C240 C241 1.387 . S
C240 C245 1.390 . S
C241 C240 1.387 . S
C241 C242 1.401 . S
C241 H262 0.930 . S
C242 C241 1.401 . S
C242 C243 1.376 . S
C242 C251 1.511 . S
C243 C242 1.376 . S
C243 C244 1.392 . S
C243 H264 0.931 . S
C244 C243 1.392 . S
C244 C245 1.361 . S
C244 C246 1.500 . S
C245 C240 1.390 . S
C245 C244 1.361 . S
C245 H263 0.931 . S
C246 C244 1.500 . S
C246 C247 1.371 . S
C246 C248 1.365 . S
C247 C246 1.371 . S
C247 C257 1.386 . S
C247 H265 0.931 . S
C248 C246 1.365 . S
C248 C249 1.409 . S
C248 H266 0.929 . S
C249 C248 1.409 . S
C249 C250 1.380 . S
C249 H267 0.930 . S
C250 C249 1.380 . S
C250 C257 1.357 . S
C251 C242 1.511 . S
C251 C252 1.341 . S
C251 C253 1.371 . S
C252 C251 1.341 . S
C252 C256 1.394 . S
C252 H268 0.930 . S
C253 C251 1.371 . S
C253 C254 1.392 . S
C253 H269 0.931 . S
C254 C253 1.392 . S
C254 C255 1.331 . S
C254 H272 0.932 . S
C255 C254 1.331 . S
C255 C256 1.336 . S
C256 C252 1.394 . S
C256 C255 1.336 . S
C256 H271 0.929 . S
C257 C247 1.386 . S
C257 C250 1.357 . S
C257 H270 0.928 . S
H258 C234 0.931 . S
H259 C236 0.930 . S
H260 C238 0.929 . S
H261 C239 0.931 . S
H262 C241 0.930 . S
H263 C245 0.931 . S
H264 C243 0.931 . S
H265 C247 0.931 . S
H266 C248 0.929 . S
H267 C249 0.930 . S
H268 C252 0.930 . S
H269 C253 0.931 . S
H270 C257 0.928 . S
H271 C256 0.929 . S
H272 C254 0.932 . S
C273 C274 1.386 . S
C273 C275 1.397 . S
C273 H297 0.931 . S
C274 C273 1.386 . S
C274 C278 1.397 . S
C275 C273 1.397 . S
C275 C276 1.384 . S
C275 H298 0.930 . S
C276 C275 1.384 . S
C276 C277 1.377 . S
C276 C279 1.481 . S
C277 C276 1.377 . S
C277 C278 1.389 . S
C277 H299 0.929 . S
C278 C274 1.397 . S
C278 C277 1.389 . S
C278 H300 0.931 . S
C279 C276 1.481 . S
C279 C280 1.387 . S
C279 C284 1.390 . S
C280 C279 1.387 . S
C280 C281 1.401 . S
C280 H301 0.930 . S
C281 C280 1.401 . S
C281 C282 1.376 . S
C281 C290 1.511 . S
C282 C281 1.376 . S
C282 C283 1.392 . S
C282 H303 0.931 . S
C283 C282 1.392 . S
C283 C284 1.361 . S
C283 C285 1.500 . S
C284 C279 1.390 . S
C284 C283 1.361 . S
C284 H302 0.931 . S
C285 C283 1.500 . S
C285 C286 1.371 . S
C285 C287 1.365 . S
C286 C285 1.371 . S
C286 C296 1.386 . S
C286 H304 0.931 . S
C287 C285 1.365 . S
C287 C288 1.409 . S
C287 H305 0.929 . S
C288 C287 1.409 . S
C288 C289 1.380 . S
C288 H306 0.930 . S
C289 C288 1.380 . S
C289 C296 1.357 . S
C290 C281 1.511 . S
C290 C291 1.341 . S
C290 C292 1.371 . S
C291 C290 1.341 . S
C291 C295 1.394 . S
C291 H307 0.930 . S
C292 C290 1.371 . S
C292 C293 1.392 . S
C292 H308 0.931 . S
C293 C292 1.392 . S
C293 C294 1.331 . S
C293 H311 0.932 . S
C294 C293 1.331 . S
C294 C295 1.336 . S
C295 C291 1.394 . S
C295 C294 1.336 . S
C295 H310 0.929 . S
C296 C286 1.386 . S
C296 C289 1.357 . S
C296 H309 0.928 . S
H297 C273 0.931 . S
H298 C275 0.930 . S
H299 C277 0.929 . S
H300 C278 0.931 . S
H301 C280 0.930 . S
H302 C284 0.931 . S
H303 C282 0.931 . S
H304 C286 0.931 . S
H305 C287 0.929 . S
H306 C288 0.930 . S
H307 C291 0.930 . S
H308 C292 0.931 . S
H309 C296 0.928 . S
H310 C295 0.929 . S
H311 C293 0.932 . S
O312 Mg313 1.990 . S
O312 C326 1.253 . S
Mg313 O312 1.990 . S
Mg313 O316 2.180 1_565 S
Mg313 O317 2.117 . S
Mg313 O331 2.030 . S
O314 Mg315 2.072 1_465 S
O314 C326 1.260 . S
Mg315 O314 2.072 1_645 S
Mg315 O316 2.099 1_655 S
Mg315 O318 2.079 . S
Mg315 O319 2.072 1_655 S
Mg315 O321 2.099 . S
Mg315 O332 2.079 1_545 S
O316 Mg313 2.180 1_545 S
O316 Mg315 2.099 1_455 S
O316 C327 1.279 . S
O317 Mg313 2.117 . S
O317 C327 1.250 1_565 S
O318 Mg315 2.079 . S
O318 C328 1.264 . S
O319 Mg315 2.072 1_455 S
O319 C329 1.260 . S
Mg320 O321 2.180 . S
Mg320 O322 2.030 . S
Mg320 O323 1.990 . S
Mg320 O324 2.117 . S
O321 Mg315 2.099 . S
O321 Mg320 2.180 . S
O321 C330 1.279 . S
O322 Mg320 2.030 . S
O322 C328 1.248 . S
O323 Mg320 1.990 . S
O323 C329 1.253 1_655 S
O324 Mg320 2.117 . S
O324 C330 1.250 . S
C325 O331 1.248 1_655 S
C325 O332 1.264 . S
C326 O312 1.253 . S
C326 O314 1.260 . S
C327 O316 1.279 . S
C327 O317 1.250 1_545 S
C328 O318 1.264 . S
C328 O322 1.248 . S
C329 O319 1.260 . S
C329 O323 1.253 1_455 S
C330 O321 1.279 . S
C330 O324 1.250 . S
O331 Mg313 2.030 . S
O331 C325 1.248 1_455 S
O332 Mg315 2.079 1_565 S
O332 C325 1.264 . S
O333 Mg334 1.990 1_545 S
O333 C347 1.253 . S
Mg334 O333 1.990 1_565 S
Mg334 O337 2.180 . S
Mg334 O338 2.117 . S
Mg334 O352 2.030 1_565 S
O335 Mg336 2.072 . S
O335 C347 1.260 . S
Mg336 O335 2.072 . S
Mg336 O337 2.099 1_545 S
Mg336 O339 2.079 1_545 S
Mg336 O340 2.072 1_545 S
Mg336 O342 2.099 . S
Mg336 O353 2.079 . S
O337 Mg334 2.180 . S
O337 Mg336 2.099 1_565 S
O337 C348 1.279 . S
O338 Mg334 2.117 . S
O338 C348 1.250 . S
O339 Mg336 2.079 1_565 S
O339 C349 1.264 . S
O340 Mg336 2.072 1_565 S
O340 C350 1.260 1_565 S
Mg341 O342 2.180 . S
Mg341 O343 2.057 . S
Mg341 O344 1.990 . S
Mg341 O345 2.117 . S
O342 Mg336 2.099 . S
O342 Mg341 2.180 . S
O342 C351 1.279 . S
O343 Mg341 2.057 . S
O343 C349 1.230 1_545 S
O344 Mg341 1.990 . S
O344 C350 1.253 . S
O345 Mg341 2.117 . S
O345 C351 1.250 . S
C346 O352 1.248 . S
C346 O353 1.264 . S
C347 O333 1.253 . S
C347 O335 1.260 . S
C348 O337 1.279 . S
C348 O338 1.250 . S
C349 O339 1.264 . S
C349 O343 1.230 1_565 S
C350 O340 1.260 1_545 S
C350 O344 1.253 . S
C351 O342 1.279 . S
C351 O345 1.250 . S
O352 Mg334 2.030 1_545 S
O352 C346 1.248 . S
O353 Mg336 2.079 . S
O353 C346 1.264 . S
O354 Mg355 1.990 . S
O354 C368 1.253 . S
Mg355 O354 1.990 . S
Mg355 O358 2.180 . S
Mg355 O359 2.117 . S
Mg355 O373 2.030 . S
O356 Mg357 2.072 . S
O356 C368 1.260 . S
Mg357 O356 2.072 . S
Mg357 O358 2.099 . S
Mg357 O360 2.079 . S
Mg357 O361 2.072 . S
Mg357 O363 2.099 . S
Mg357 O374 2.079 . S
O358 Mg355 2.180 . S
O358 Mg357 2.099 . S
O358 C369 1.279 . S
O359 Mg355 2.117 . S
O359 C369 1.250 . S
O360 Mg357 2.079 . S
O360 C370 1.264 . S
O361 Mg357 2.072 . S
O361 C371 1.260 . S
Mg362 O363 2.180 . S
Mg362 O364 2.030 . S
Mg362 O365 1.990 . S
Mg362 O366 2.117 . S
O363 Mg357 2.099 . S
O363 Mg362 2.180 . S
O363 C372 1.279 . S
O364 Mg362 2.030 . S
O364 C370 1.248 . S
O365 Mg362 1.990 . S
O365 C371 1.253 . S
O366 Mg362 2.117 . S
O366 C372 1.250 . S
C367 O373 1.248 . S
C367 O374 1.264 . S
C368 O354 1.253 . S
C368 O356 1.260 . S
C369 O358 1.279 . S
C369 O359 1.250 . S
C370 O360 1.264 . S
C370 O364 1.248 . S
C371 O361 1.260 . S
C371 O365 1.253 . S
C372 O363 1.279 . S
C372 O366 1.250 . S
O373 Mg355 2.030 . S
O373 C367 1.248 . S
O374 Mg357 2.079 . S
O374 C367 1.264 . S
O375 Mg376 1.990 . S
O375 C389 1.253 . S
Mg376 O375 1.990 . S
Mg376 O379 2.180 . S
Mg376 O380 2.117 . S
Mg376 O394 2.030 . S
O377 Mg378 2.072 1_655 S
O377 C389 1.260 . S
Mg378 O377 2.072 1_455 S
Mg378 O379 2.099 1_455 S
Mg378 O381 2.079 . S
Mg378 O382 2.072 . S
Mg378 O384 2.099 . S
Mg378 O395 2.079 1_455 S
O379 Mg376 2.180 . S
O379 Mg378 2.099 1_655 S
O379 C390 1.279 . S
O380 Mg376 2.117 . S
O380 C390 1.250 . S
O381 Mg378 2.079 . S
O381 C391 1.264 . S
O382 Mg378 2.072 . S
O382 C392 1.260 . S
Mg383 O384 2.180 . S
Mg383 O385 2.030 . S
Mg383 O386 1.990 . S
Mg383 O387 2.117 . S
O384 Mg378 2.099 . S
O384 Mg383 2.180 . S
O384 C393 1.279 . S
O385 Mg383 2.030 . S
O385 C391 1.248 . S
O386 Mg383 1.990 . S
O386 C392 1.253 . S
O387 Mg383 2.117 . S
O387 C393 1.250 . S
C388 O394 1.248 . S
C388 O395 1.264 . S
C389 O375 1.253 . S
C389 O377 1.260 . S
C390 O379 1.279 . S
C390 O380 1.250 . S
C391 O381 1.264 . S
C391 O385 1.248 . S
C392 O382 1.260 . S
C392 O386 1.253 . S
C393 O384 1.279 . S
C393 O387 1.250 . S
O394 Mg376 2.030 . S
O394 C388 1.248 . S
O395 Mg378 2.079 1_655 S
O395 C388 1.264 . S
C396 C397 1.391 . S
C396 C398 1.394 . S
C396 H412 0.931 . S
C397 C396 1.391 . S
C397 C401 1.376 . S
C398 C396 1.394 . S
C398 C399 1.369 . S
C398 C402 1.531 . S
C399 C398 1.369 . S
C399 C400 1.410 . S
C399 C407 1.503 . S
C400 C399 1.410 . S
C400 C401 1.392 . S
C400 C403 1.511 . S
C401 C397 1.376 . S
C401 C400 1.392 . S
C401 H413 0.929 . S
C402 C398 1.531 . S
C402 H414 0.960 . S
C402 H415 0.962 . S
C402 H416 0.960 . S
C403 C400 1.511 . S
C403 H417 0.961 . S
C403 H418 0.961 . S
C403 H419 0.961 . S
C404 C405 1.370 . S
C404 C406 1.363 . S
C404 H420 0.931 . S
C405 C404 1.370 . S
C405 C409 1.408 . S
C406 C404 1.363 . S
C406 C407 1.370 . S
C406 C410 1.524 . S
C407 C399 1.503 . S
C407 C406 1.370 . S
C407 C408 1.403 . S
C408 C407 1.403 . S
C408 C409 1.404 . S
C408 C411 1.539 . S
C409 C405 1.408 . S
C409 C408 1.404 . S
C409 H421 0.930 . S
C410 C406 1.524 . S
C410 H422 0.956 . S
C410 H423 0.961 . S
C410 H424 0.961 . S
C411 C408 1.539 . S
C411 H425 0.958 . S
C411 H426 0.961 . S
C411 H427 0.960 . S
H412 C396 0.931 . S
H413 C401 0.929 . S
H414 C402 0.960 . S
H415 C402 0.962 . S
H416 C402 0.960 . S
H417 C403 0.961 . S
H418 C403 0.961 . S
H419 C403 0.961 . S
H420 C404 0.931 . S
H421 C409 0.930 . S
H422 C410 0.956 . S
H423 C410 0.961 . S
H424 C410 0.961 . S
H425 C411 0.958 . S
H426 C411 0.961 . S
H427 C411 0.960 . S
C428 C429 1.391 . S
C428 C430 1.394 . S
C428 H444 0.931 . S
C429 C428 1.391 . S
C429 C433 1.376 . S
C430 C428 1.394 . S
C430 C431 1.369 . S
C430 C434 1.531 . S
C431 C430 1.369 . S
C431 C432 1.410 . S
C431 C439 1.503 . S
C432 C431 1.410 . S
C432 C433 1.392 . S
C432 C435 1.511 . S
C433 C429 1.376 . S
C433 C432 1.392 . S
C433 H445 0.929 . S
C434 C430 1.531 . S
C434 H446 0.960 . S
C434 H447 0.962 . S
C434 H448 0.960 . S
C435 C432 1.511 . S
C435 H449 0.961 . S
C435 H450 0.961 . S
C435 H451 0.961 . S
C436 C437 1.370 . S
C436 C438 1.363 . S
C436 H452 0.931 . S
C437 C436 1.370 . S
C437 C441 1.408 . S
C438 C436 1.363 . S
C438 C439 1.370 . S
C438 C442 1.524 . S
C439 C431 1.503 . S
C439 C438 1.370 . S
C439 C440 1.403 . S
C440 C439 1.403 . S
C440 C441 1.404 . S
C440 C443 1.539 . S
C441 C437 1.408 . S
C441 C440 1.404 . S
C441 H453 0.930 . S
C442 C438 1.524 . S
C442 H454 0.956 . S
C442 H455 0.961 . S
C442 H456 0.961 . S
C443 C440 1.539 . S
C443 H457 0.958 . S
C443 H458 0.961 . S
C443 H459 0.960 . S
H444 C428 0.931 . S
H445 C433 0.929 . S
H446 C434 0.960 . S
H447 C434 0.962 . S
H448 C434 0.960 . S
H449 C435 0.961 . S
H450 C435 0.961 . S
H451 C435 0.961 . S
H452 C436 0.931 . S
H453 C441 0.930 . S
H454 C442 0.956 . S
H455 C442 0.961 . S
H456 C442 0.961 . S
H457 C443 0.958 . S
H458 C443 0.961 . S
H459 C443 0.960 . S
C460 C461 1.391 . S
C460 C462 1.394 . S
C460 H476 0.931 . S
C461 C460 1.391 . S
C461 C465 1.376 . S
C462 C460 1.394 . S
C462 C463 1.369 . S
C462 C466 1.531 . S
C463 C462 1.369 . S
C463 C464 1.410 . S
C463 C471 1.503 . S
C464 C463 1.410 . S
C464 C465 1.392 . S
C464 C467 1.511 . S
C465 C461 1.376 . S
C465 C464 1.392 . S
C465 H477 0.929 . S
C466 C462 1.531 . S
C466 H478 0.960 . S
C466 H479 0.962 . S
C466 H480 0.960 . S
C467 C464 1.511 . S
C467 H481 0.961 . S
C467 H482 0.961 . S
C467 H483 0.961 . S
C468 C469 1.370 . S
C468 C470 1.363 . S
C468 H484 0.931 . S
C469 C468 1.370 . S
C469 C473 1.408 . S
C470 C468 1.363 . S
C470 C471 1.370 . S
C470 C474 1.524 . S
C471 C463 1.503 . S
C471 C470 1.370 . S
C471 C472 1.403 . S
C472 C471 1.403 . S
C472 C473 1.404 . S
C472 C475 1.539 . S
C473 C469 1.408 . S
C473 C472 1.404 . S
C473 H485 0.930 . S
C474 C470 1.524 . S
C474 H486 0.956 . S
C474 H487 0.961 . S
C474 H488 0.961 . S
C475 C472 1.539 . S
C475 H489 0.958 . S
C475 H490 0.961 . S
C475 H491 0.960 . S
H476 C460 0.931 . S
H477 C465 0.929 . S
H478 C466 0.960 . S
H479 C466 0.962 . S
H480 C466 0.960 . S
H481 C467 0.961 . S
H482 C467 0.961 . S
H483 C467 0.961 . S
H484 C468 0.931 . S
H485 C473 0.930 . S
H486 C474 0.956 . S
H487 C474 0.961 . S
H488 C474 0.961 . S
H489 C475 0.958 . S
H490 C475 0.961 . S
H491 C475 0.960 . S
C492 C493 1.391 1_455 S
C492 C494 1.394 . S
C492 H508 0.931 . S
C493 C492 1.391 1_655 S
C493 C497 1.376 . S
C494 C492 1.394 . S
C494 C495 1.369 1_455 S
C494 C498 1.531 . S
C495 C494 1.369 1_655 S
C495 C496 1.410 . S
C495 C503 1.503 . S
C496 C495 1.410 . S
C496 C497 1.392 . S
C496 C499 1.511 . S
C497 C493 1.376 . S
C497 C496 1.392 . S
C497 H509 0.929 . S
C498 C494 1.531 . S
C498 H510 0.960 . S
C498 H511 0.962 . S
C498 H512 0.960 . S
C499 C496 1.511 . S
C499 H513 0.961 . S
C499 H514 0.961 . S
C499 H515 0.961 . S
C500 C501 1.370 1_455 S
C500 C502 1.363 . S
C500 H516 0.931 . S
C501 C500 1.370 1_655 S
C501 C505 1.408 . S
C502 C500 1.363 . S
C502 C503 1.370 1_455 S
C502 C506 1.524 . S
C503 C495 1.503 . S
C503 C502 1.370 1_655 S
C503 C504 1.403 . S
C504 C503 1.403 . S
C504 C505 1.404 . S
C504 C507 1.539 . S
C505 C501 1.408 . S
C505 C504 1.404 . S
C505 H517 0.930 . S
C506 C502 1.524 . S
C506 H518 0.956 . S
C506 H519 0.961 . S
C506 H520 0.961 . S
C507 C504 1.539 . S
C507 H521 0.958 . S
C507 H522 0.961 . S
C507 H523 0.960 . S
H508 C492 0.931 . S
H509 C497 0.929 . S
H510 C498 0.960 . S
H511 C498 0.962 . S
H512 C498 0.960 . S
H513 C499 0.961 . S
H514 C499 0.961 . S
H515 C499 0.961 . S
H516 C500 0.931 . S
H517 C505 0.930 . S
H518 C506 0.956 . S
H519 C506 0.961 . S
H520 C506 0.961 . S
H521 C507 0.958 . S
H522 C507 0.961 . S
H523 C507 0.960 . S
C524 C525 1.391 . S
C524 C526 1.394 1_554 S
C524 H540 0.931 . S
C525 C524 1.391 . S
C525 C529 1.376 1_554 S
C526 C524 1.394 1_556 S
C526 C527 1.369 . S
C526 C530 1.531 1_556 S
C527 C526 1.369 . S
C527 C528 1.410 . S
C527 C535 1.503 . S
C528 C527 1.410 . S
C528 C529 1.392 . S
C528 C531 1.511 . S
C529 C525 1.376 1_556 S
C529 C528 1.392 . S
C529 H541 0.929 . S
C530 C526 1.531 1_554 S
C530 H542 0.954 1_554 S
C530 H543 0.956 1_554 S
C530 H544 0.960 . S
C531 C528 1.511 . S
C531 H545 0.961 . S
C531 H546 0.961 . S
C531 H547 0.961 . S
C532 C533 1.370 . S
C532 C534 1.363 . S
C532 H548 0.931 . S
C533 C532 1.370 . S
C533 C537 1.408 . S
C534 C532 1.363 . S
C534 C535 1.370 . S
C534 C538 1.524 . S
C535 C527 1.503 . S
C535 C534 1.370 . S
C535 C536 1.403 . S
C536 C535 1.403 . S
C536 C537 1.404 . S
C536 C539 1.539 . S
C537 C533 1.408 . S
C537 C536 1.404 . S
C537 H549 0.930 . S
C538 C534 1.524 . S
C538 H550 0.956 . S
C538 H551 0.961 . S
C538 H552 0.961 . S
C539 C536 1.539 . S
C539 H553 0.958 . S
C539 H554 0.961 . S
C539 H555 0.960 . S
H540 C524 0.931 . S
H541 C529 0.929 . S
H542 C530 0.954 1_556 S
H543 C530 0.956 1_556 S
H544 C530 0.960 . S
H545 C531 0.961 . S
H546 C531 0.961 . S
H547 C531 0.961 . S
H548 C532 0.931 . S
H549 C537 0.930 . S
H550 C538 0.956 . S
H551 C538 0.961 . S
H552 C538 0.961 . S
H553 C539 0.958 . S
H554 C539 0.961 . S
H555 C539 0.960 . S
C556 C557 1.391 1_556 S
C556 C558 1.394 . S
C556 H572 0.931 . S
C557 C556 1.391 1_554 S
C557 C561 1.376 . S
C558 C556 1.394 . S
C558 C559 1.369 . S
C558 C562 1.531 . S
C559 C558 1.369 . S
C559 C560 1.410 . S
C559 C567 1.503 . S
C560 C559 1.410 . S
C560 C561 1.392 1_556 S
C560 C563 1.511 . S
C561 C557 1.376 . S
C561 C560 1.392 1_554 S
C561 H573 0.929 . S
C562 C558 1.531 . S
C562 H574 0.960 . S
C562 H575 0.962 . S
C562 H576 0.960 . S
C563 C560 1.511 . S
C563 H577 0.961 1_556 S
C563 H578 0.961 . S
C563 H579 0.961 . S
C564 C565 1.370 . S
C564 C566 1.363 . S
C564 H580 0.931 . S
C565 C564 1.370 . S
C565 C569 1.408 . S
C566 C564 1.363 . S
C566 C567 1.370 . S
C566 C570 1.524 . S
C567 C559 1.503 . S
C567 C566 1.370 . S
C567 C568 1.403 . S
C568 C567 1.403 . S
C568 C569 1.404 . S
C568 C571 1.539 . S
C569 C565 1.408 . S
C569 C568 1.404 . S
C569 H581 0.930 . S
C570 C566 1.524 . S
C570 H582 0.956 . S
C570 H583 0.961 . S
C570 H584 0.961 . S
C571 C568 1.539 . S
C571 H585 0.958 . S
C571 H586 0.961 . S
C571 H587 0.960 . S
H572 C556 0.931 . S
H573 C561 0.929 . S
H574 C562 0.960 . S
H575 C562 0.962 . S
H576 C562 0.960 . S
H577 C563 0.961 1_554 S
H578 C563 0.961 . S
H579 C563 0.961 . S
H580 C564 0.931 . S
H581 C569 0.930 . S
H582 C570 0.956 . S
H583 C570 0.961 . S
H584 C570 0.961 . S
H585 C571 0.958 . S
H586 C571 0.961 . S
H587 C571 0.960 . S
C588 C589 1.391 . S
C588 C590 1.394 . S
C588 H604 0.931 . S
C589 C588 1.391 . S
C589 C593 1.376 . S
C590 C588 1.394 . S
C590 C591 1.369 . S
C590 C594 1.531 . S
C591 C590 1.369 . S
C591 C592 1.410 . S
C591 C599 1.503 . S
C592 C591 1.410 . S
C592 C593 1.392 . S
C592 C595 1.511 . S
C593 C589 1.376 . S
C593 C592 1.392 . S
C593 H605 0.929 1_556 S
C594 C590 1.531 . S
C594 H606 0.960 . S
C594 H607 0.962 . S
C594 H608 0.960 . S
C595 C592 1.511 . S
C595 H609 0.961 . S
C595 H610 0.961 . S
C595 H611 0.961 . S
C596 C597 1.370 . S
C596 C598 1.363 . S
C596 H612 0.931 . S
C597 C596 1.370 . S
C597 C601 1.408 . S
C598 C596 1.363 . S
C598 C599 1.370 . S
C598 C602 1.524 . S
C599 C591 1.503 . S
C599 C598 1.370 . S
C599 C600 1.403 . S
C600 C599 1.403 . S
C600 C601 1.404 . S
C600 C603 1.539 . S
C601 C597 1.408 . S
C601 C600 1.404 . S
C601 H613 0.930 . S
C602 C598 1.524 . S
C602 H614 0.956 . S
C602 H615 0.961 . S
C602 H616 0.961 . S
C603 C600 1.539 . S
C603 H617 0.958 . S
C603 H618 0.961 . S
C603 H619 0.960 . S
H604 C588 0.931 . S
H605 C593 0.929 1_554 S
H606 C594 0.960 . S
H607 C594 0.962 . S
H608 C594 0.960 . S
H609 C595 0.961 . S
H610 C595 0.961 . S
H611 C595 0.961 . S
H612 C596 0.931 . S
H613 C601 0.930 . S
H614 C602 0.956 . S
H615 C602 0.961 . S
H616 C602 0.961 . S
H617 C603 0.958 . S
H618 C603 0.961 . S
H619 C603 0.960 . S
C620 C621 1.391 1_656 S
C620 C622 1.394 . S
C620 H636 0.931 . S
C621 C620 1.391 1_454 S
C621 C625 1.376 . S
C622 C620 1.394 . S
C622 C623 1.369 1_655 S
C622 C626 1.531 . S
C623 C622 1.369 1_455 S
C623 C624 1.410 . S
C623 C631 1.503 . S
C624 C623 1.410 . S
C624 C625 1.392 1_556 S
C624 C627 1.511 . S
C625 C621 1.376 . S
C625 C624 1.392 1_554 S
C625 H637 0.929 . S
C626 C622 1.531 . S
C626 H638 0.960 . S
C626 H639 0.962 . S
C626 H640 0.960 . S
C627 C624 1.511 . S
C627 H641 0.961 1_556 S
C627 H642 0.961 . S
C627 H643 0.961 . S
C628 C629 1.370 1_655 S
C628 C630 1.363 . S
C628 H644 0.931 . S
C629 C628 1.370 1_455 S
C629 C633 1.408 . S
C630 C628 1.363 . S
C630 C631 1.370 1_655 S
C630 C634 1.524 . S
C631 C623 1.503 . S
C631 C630 1.370 1_455 S
C631 C632 1.403 . S
C632 C631 1.403 . S
C632 C633 1.404 . S
C632 C635 1.539 . S
C633 C629 1.408 . S
C633 C632 1.404 . S
C633 H645 0.930 . S
C634 C630 1.524 . S
C634 H646 0.956 . S
C634 H647 0.961 . S
C634 H648 0.961 . S
C635 C632 1.539 . S
C635 H649 0.958 . S
C635 H650 0.961 . S
C635 H651 0.960 . S
H636 C620 0.931 . S
H637 C625 0.929 . S
H638 C626 0.960 . S
H639 C626 0.962 . S
H640 C626 0.960 . S
H641 C627 0.961 1_554 S
H642 C627 0.961 . S
H643 C627 0.961 . S
H644 C628 0.931 . S
H645 C633 0.930 . S
H646 C634 0.956 . S
H647 C634 0.961 . S
H648 C634 0.961 . S
H649 C635 0.958 . S
H650 C635 0.961 . S
H651 C635 0.960 . S
C652 C653 1.391 1_655 S
C652 C654 1.394 . S
C652 H668 0.931 . S
C653 C652 1.391 1_455 S
C653 C657 1.376 . S
C654 C652 1.394 . S
C654 C655 1.369 . S
C654 C658 1.531 . S
C655 C654 1.369 . S
C655 C656 1.410 1_655 S
C655 C663 1.503 . S
C656 C655 1.410 1_455 S
C656 C657 1.392 . S
C656 C659 1.511 . S
C657 C653 1.376 . S
C657 C656 1.392 . S
C657 H669 0.929 . S
C658 C654 1.531 . S
C658 H670 0.960 . S
C658 H671 0.962 . S
C658 H672 0.960 . S
C659 C656 1.511 . S
C659 H673 0.961 . S
C659 H674 0.961 . S
C659 H675 0.961 . S
C660 C661 1.370 . S
C660 C662 1.363 . S
C660 H676 0.931 . S
C661 C660 1.370 . S
C661 C665 1.408 . S
C662 C660 1.363 . S
C662 C663 1.370 . S
C662 C666 1.524 . S
C663 C655 1.503 . S
C663 C662 1.370 . S
C663 C664 1.403 . S
C664 C663 1.403 . S
C664 C665 1.404 . S
C664 C667 1.539 1_655 S
C665 C661 1.408 . S
C665 C664 1.404 . S
C665 H677 0.930 . S
C666 C662 1.524 . S
C666 H678 0.956 . S
C666 H679 0.961 . S
C666 H680 0.961 . S
C667 C664 1.539 1_455 S
C667 H681 0.930 1_455 S
C667 H682 0.961 . S
C667 H683 0.960 . S
H668 C652 0.931 . S
H669 C657 0.929 . S
H670 C658 0.960 . S
H671 C658 0.962 . S
H672 C658 0.960 . S
H673 C659 0.961 . S
H674 C659 0.961 . S
H675 C659 0.961 . S
H676 C660 0.931 . S
H677 C665 0.930 . S
H678 C666 0.956 . S
H679 C666 0.961 . S
H680 C666 0.961 . S
H681 C667 0.930 1_655 S
H682 C667 0.961 . S
H683 C667 0.960 . S
C684 C685 1.391 . S
C684 C686 1.394 . S
C684 H700 0.931 . S
C685 C684 1.391 . S
C685 C689 1.376 . S
C686 C684 1.394 . S
C686 C687 1.369 . S
C686 C690 1.531 . S
C687 C686 1.369 . S
C687 C688 1.410 . S
C687 C695 1.503 . S
C688 C687 1.410 . S
C688 C689 1.392 . S
C688 C691 1.511 . S
C689 C685 1.376 . S
C689 C688 1.392 . S
C689 H701 0.929 . S
C690 C686 1.531 . S
C690 H702 0.960 . S
C690 H703 0.962 . S
C690 H704 0.960 . S
C691 C688 1.511 . S
C691 H705 0.961 . S
C691 H706 0.961 . S
C691 H707 0.961 . S
C692 C693 1.370 . S
C692 C694 1.363 . S
C692 H708 0.931 . S
C693 C692 1.370 . S
C693 C697 1.408 . S
C694 C692 1.363 . S
C694 C695 1.370 . S
C694 C698 1.524 . S
C695 C687 1.503 . S
C695 C694 1.370 . S
C695 C696 1.403 . S
C696 C695 1.403 . S
C696 C697 1.404 . S
C696 C699 1.539 . S
C697 C693 1.408 . S
C697 C696 1.404 . S
C697 H709 0.930 . S
C698 C694 1.524 . S
C698 H710 0.956 . S
C698 H711 0.961 . S
C698 H712 0.961 . S
C699 C696 1.539 . S
C699 H713 0.958 . S
C699 H714 0.961 . S
C699 H715 0.960 . S
H700 C684 0.931 . S
H701 C689 0.929 . S
H702 C690 0.960 . S
H703 C690 0.962 . S
H704 C690 0.960 . S
H705 C691 0.961 . S
H706 C691 0.961 . S
H707 C691 0.961 . S
H708 C692 0.931 . S
H709 C697 0.930 . S
H710 C698 0.956 . S
H711 C698 0.961 . S
H712 C698 0.961 . S
H713 C699 0.958 . S
H714 C699 0.961 . S
H715 C699 0.960 . S
C716 C717 1.391 . S
C716 C718 1.394 . S
C716 H732 0.931 . S
C717 C716 1.391 . S
C717 C721 1.376 . S
C718 C716 1.394 . S
C718 C719 1.369 . S
C718 C722 1.531 . S
C719 C718 1.369 . S
C719 C720 1.410 . S
C719 C727 1.503 . S
C720 C719 1.410 . S
C720 C721 1.392 . S
C720 C723 1.511 . S
C721 C717 1.376 . S
C721 C720 1.392 . S
C721 H733 0.929 . S
C722 C718 1.531 . S
C722 H734 0.960 . S
C722 H735 0.962 . S
C722 H736 0.960 . S
C723 C720 1.511 . S
C723 H737 0.961 . S
C723 H738 0.961 . S
C723 H739 0.961 . S
C724 C725 1.370 . S
C724 C726 1.363 . S
C724 H740 0.931 . S
C725 C724 1.370 . S
C725 C729 1.408 . S
C726 C724 1.363 . S
C726 C727 1.370 . S
C726 C730 1.524 . S
C727 C719 1.503 . S
C727 C726 1.370 . S
C727 C728 1.403 . S
C728 C727 1.403 . S
C728 C729 1.404 . S
C728 C731 1.539 . S
C729 C725 1.408 . S
C729 C728 1.404 . S
C729 H741 0.930 . S
C730 C726 1.524 . S
C730 H742 0.956 . S
C730 H743 0.961 . S
C730 H744 0.961 . S
C731 C728 1.539 . S
C731 H745 0.958 . S
C731 H746 0.961 . S
C731 H747 0.960 . S
H732 C716 0.931 . S
H733 C721 0.929 . S
H734 C722 0.960 . S
H735 C722 0.962 . S
H736 C722 0.960 . S
H737 C723 0.961 . S
H738 C723 0.961 . S
H739 C723 0.961 . S
H740 C724 0.931 . S
H741 C729 0.930 . S
H742 C730 0.956 . S
H743 C730 0.961 . S
H744 C730 0.961 . S
H745 C731 0.958 . S
H746 C731 0.961 . S
H747 C731 0.960 . S
C748 C749 1.391 . S
C748 C750 1.394 . S
C748 H764 0.931 . S
C749 C748 1.391 . S
C749 C753 1.376 . S
C750 C748 1.394 . S
C750 C751 1.369 . S
C750 C754 1.531 . S
C751 C750 1.369 . S
C751 C752 1.410 . S
C751 C759 1.503 . S
C752 C751 1.410 . S
C752 C753 1.392 . S
C752 C755 1.511 . S
C753 C749 1.376 . S
C753 C752 1.392 . S
C753 H765 0.929 . S
C754 C750 1.531 . S
C754 H766 0.960 . S
C754 H767 0.962 . S
C754 H768 0.960 . S
C755 C752 1.511 . S
C755 H769 0.961 . S
C755 H770 0.961 . S
C755 H771 0.961 . S
C756 C757 1.370 . S
C756 C758 1.363 . S
C756 H772 0.931 . S
C757 C756 1.370 . S
C757 C761 1.408 . S
C758 C756 1.363 . S
C758 C759 1.370 . S
C758 C762 1.524 . S
C759 C751 1.503 . S
C759 C758 1.370 . S
C759 C760 1.403 . S
C760 C759 1.403 . S
C760 C761 1.404 . S
C760 C763 1.539 . S
C761 C757 1.408 . S
C761 C760 1.404 . S
C761 H773 0.930 . S
C762 C758 1.524 . S
C762 H774 0.956 . S
C762 H775 0.961 . S
C762 H776 0.961 . S
C763 C760 1.539 . S
C763 H777 0.958 . S
C763 H778 0.961 . S
C763 H779 0.960 . S
H764 C748 0.931 . S
H765 C753 0.929 . S
H766 C754 0.960 . S
H767 C754 0.962 . S
H768 C754 0.960 . S
H769 C755 0.961 . S
H770 C755 0.961 . S
H771 C755 0.961 . S
H772 C756 0.931 . S
H773 C761 0.930 . S
H774 C762 0.956 . S
H775 C762 0.961 . S
H776 C762 0.961 . S
H777 C763 0.958 . S
H778 C763 0.961 . S
H779 C763 0.960 . S
C780 C781 1.391 . S
C780 C782 1.394 . S
C780 H796 0.931 . S
C781 C780 1.391 . S
C781 C785 1.376 1_655 S
C782 C780 1.394 . S
C782 C783 1.369 1_655 S
C782 C786 1.531 . S
C783 C782 1.369 1_455 S
C783 C784 1.410 . S
C783 C791 1.503 . S
C784 C783 1.410 . S
C784 C785 1.392 . S
C784 C787 1.511 . S
C785 C781 1.376 1_455 S
C785 C784 1.392 . S
C785 H797 0.929 . S
C786 C782 1.531 . S
C786 H798 0.960 . S
C786 H799 0.962 . S
C786 H800 0.960 . S
C787 C784 1.511 . S
C787 H801 0.961 . S
C787 H802 0.961 . S
C787 H803 0.961 . S
C788 C789 1.370 . S
C788 C790 1.363 . S
C788 H804 0.931 . S
C789 C788 1.370 . S
C789 C793 1.385 1_455 S
C790 C788 1.363 . S
C790 C791 1.370 . S
C790 C794 1.524 . S
C791 C783 1.503 . S
C791 C790 1.370 . S
C791 C792 1.403 1_455 S
C792 C791 1.403 1_655 S
C792 C793 1.412 . S
C792 C795 1.539 . S
C793 C789 1.385 1_655 S
C793 C792 1.412 . S
C793 H805 0.946 . S
C794 C790 1.524 . S
C794 H806 0.956 . S
C794 H807 0.961 . S
C794 H808 0.961 . S
C795 C792 1.539 . S
C795 H809 0.958 . S
C795 H810 0.961 . S
C795 H811 0.960 . S
H796 C780 0.931 . S
H797 C785 0.929 . S
H798 C786 0.960 . S
H799 C786 0.962 . S
H800 C786 0.960 . S
H801 C787 0.961 . S
H802 C787 0.961 . S
H803 C787 0.961 . S
H804 C788 0.931 . S
H805 C793 0.946 . S
H806 C794 0.956 . S
H807 C794 0.961 . S
H808 C794 0.961 . S
H809 C795 0.958 . S
H810 C795 0.961 . S
H811 C795 0.960 . S
C812 C813 1.391 . S
C812 C814 1.394 . S
C812 H828 0.931 . S
C813 C812 1.391 . S
C813 C817 1.376 . S
C814 C812 1.394 . S
C814 C815 1.369 . S
C814 C818 1.531 . S
C815 C814 1.369 . S
C815 C816 1.410 . S
C815 C823 1.503 . S
C816 C815 1.410 . S
C816 C817 1.392 . S
C816 C819 1.511 . S
C817 C813 1.376 . S
C817 C816 1.392 . S
C817 H829 0.929 . S
C818 C814 1.531 . S
C818 H830 0.960 . S
C818 H831 0.962 . S
C818 H832 0.960 . S
C819 C816 1.511 . S
C819 H833 0.961 . S
C819 H834 0.961 . S
C819 H835 0.961 . S
C820 C821 1.375 . S
C820 C822 1.384 . S
C820 H836 0.905 1_565 S
C821 C820 1.375 . S
C821 C825 1.408 . S
C822 C820 1.384 . S
C822 C823 1.370 . S
C822 C826 1.524 . S
C823 C815 1.503 . S
C823 C822 1.370 . S
C823 C824 1.403 . S
C824 C823 1.403 . S
C824 C825 1.404 . S
C824 C827 1.539 . S
C825 C821 1.408 . S
C825 C824 1.404 . S
C825 H837 0.930 . S
C826 C822 1.524 . S
C826 H838 0.956 . S
C826 H839 0.961 . S
C826 H840 0.961 1_565 S
C827 C824 1.539 . S
C827 H841 0.958 . S
C827 H842 0.961 . S
C827 H843 0.960 . S
H828 C812 0.931 . S
H829 C817 0.929 . S
H830 C818 0.960 . S
H831 C818 0.962 . S
H832 C818 0.960 . S
H833 C819 0.961 . S
H834 C819 0.961 . S
H835 C819 0.961 . S
H836 C820 0.905 1_545 S
H837 C825 0.930 . S
H838 C826 0.956 . S
H839 C826 0.961 . S
H840 C826 0.961 1_545 S
H841 C827 0.958 . S
H842 C827 0.961 . S
H843 C827 0.960 . S
C844 C845 1.391 . S
C844 C846 1.394 . S
C844 H860 0.931 . S
C845 C844 1.391 . S
C845 C849 1.376 . S
C846 C844 1.394 . S
C846 C847 1.369 . S
C846 C850 1.531 . S
C847 C846 1.369 . S
C847 C848 1.410 . S
C847 C855 1.503 . S
C848 C847 1.410 . S
C848 C849 1.392 . S
C848 C851 1.511 . S
C849 C845 1.376 . S
C849 C848 1.392 . S
C849 H861 0.929 . S
C850 C846 1.531 . S
C850 H862 0.960 . S
C850 H863 0.962 . S
C850 H864 0.960 . S
C851 C848 1.511 . S
C851 H865 0.961 . S
C851 H866 0.961 . S
C851 H867 0.961 . S
C852 C853 1.370 . S
C852 C854 1.363 . S
C852 H868 0.931 . S
C853 C852 1.370 . S
C853 C857 1.408 . S
C854 C852 1.363 . S
C854 C855 1.370 . S
C854 C858 1.524 . S
C855 C847 1.503 . S
C855 C854 1.370 . S
C855 C856 1.403 . S
C856 C855 1.403 . S
C856 C857 1.404 . S
C856 C859 1.539 . S
C857 C853 1.408 . S
C857 C856 1.404 . S
C857 H869 0.930 . S
C858 C854 1.524 . S
C858 H870 0.956 . S
C858 H871 0.961 . S
C858 H872 0.961 . S
C859 C856 1.539 . S
C859 H873 0.958 . S
C859 H874 0.961 . S
C859 H875 0.960 . S
H860 C844 0.931 . S
H861 C849 0.929 . S
H862 C850 0.960 . S
H863 C850 0.962 . S
H864 C850 0.960 . S
H865 C851 0.961 . S
H866 C851 0.961 . S
H867 C851 0.961 . S
H868 C852 0.931 . S
H869 C857 0.930 . S
H870 C858 0.956 . S
H871 C858 0.961 . S
H872 C858 0.961 . S
H873 C859 0.958 . S
H874 C859 0.961 . S
H875 C859 0.960 . S
C876 C877 1.391 . S
C876 C878 1.394 . S
C876 H892 0.931 . S
C877 C876 1.391 . S
C877 C881 1.376 . S
C878 C876 1.394 . S
C878 C879 1.369 . S
C878 C882 1.531 . S
C879 C878 1.369 . S
C879 C880 1.410 . S
C879 C887 1.503 . S
C880 C879 1.410 . S
C880 C881 1.392 . S
C880 C883 1.511 . S
C881 C877 1.376 . S
C881 C880 1.392 . S
C881 H893 0.929 . S
C882 C878 1.531 . S
C882 H894 0.960 . S
C882 H895 0.962 . S
C882 H896 0.960 . S
C883 C880 1.511 . S
C883 H897 0.961 . S
C883 H898 0.961 . S
C883 H899 0.961 . S
C884 C885 1.370 . S
C884 C886 1.363 . S
C884 H900 0.931 . S
C885 C884 1.370 . S
C885 C889 1.408 . S
C886 C884 1.363 . S
C886 C887 1.370 . S
C886 C890 1.524 . S
C887 C879 1.503 . S
C887 C886 1.370 . S
C887 C888 1.403 . S
C888 C887 1.403 . S
C888 C889 1.404 . S
C888 C891 1.539 . S
C889 C885 1.408 . S
C889 C888 1.404 . S
C889 H901 0.930 . S
C890 C886 1.524 . S
C890 H902 0.956 . S
C890 H903 0.961 . S
C890 H904 0.961 . S
C891 C888 1.539 . S
C891 H905 0.958 . S
C891 H906 0.961 . S
C891 H907 0.960 . S
H892 C876 0.931 . S
H893 C881 0.929 . S
H894 C882 0.960 . S
H895 C882 0.962 . S
H896 C882 0.960 . S
H897 C883 0.961 . S
H898 C883 0.961 . S
H899 C883 0.961 . S
H900 C884 0.931 . S
H901 C889 0.930 . S
H902 C890 0.956 . S
H903 C890 0.961 . S
H904 C890 0.961 . S
H905 C891 0.958 . S
H906 C891 0.961 . S
H907 C891 0.960 . S
C908 C909 1.409 . S
C908 C910 1.394 1_554 S
C908 H924 0.931 . S
C909 C908 1.409 . S
C909 C913 1.358 1_454 S
C910 C908 1.394 1_556 S
C910 C911 1.369 . S
C910 C914 1.531 1_556 S
C911 C910 1.369 . S
C911 C912 1.410 1_455 S
C911 C919 1.503 . S
C912 C911 1.410 1_655 S
C912 C913 1.392 . S
C912 C915 1.511 . S
C913 C909 1.358 1_656 S
C913 C912 1.392 . S
C913 H925 0.929 . S
C914 C910 1.531 1_554 S
C914 H926 0.960 . S
C914 H927 0.962 1_554 S
C914 H928 0.960 . S
C915 C912 1.511 . S
C915 H929 0.961 . S
C915 H930 0.961 . S
C915 H931 0.961 . S
C916 C917 1.370 . S
C916 C918 1.363 . S
C916 H932 0.931 . S
C917 C916 1.370 . S
C917 C921 1.408 1_455 S
C918 C916 1.363 . S
C918 C919 1.370 . S
C918 C922 1.524 . S
C919 C911 1.503 . S
C919 C918 1.370 . S
C919 C920 1.403 1_455 S
C920 C919 1.403 1_655 S
C920 C921 1.404 . S
C920 C923 1.539 1_556 S
C921 C917 1.408 1_655 S
C921 C920 1.404 . S
C921 H933 0.930 . S
C922 C918 1.524 . S
C922 H934 0.956 . S
C922 H935 0.961 . S
C922 H936 0.961 . S
C923 C920 1.539 1_554 S
C923 H937 0.958 . S
C923 H938 0.961 . S
C923 H939 0.960 . S
H924 C908 0.931 . S
H925 C913 0.929 . S
H926 C914 0.960 . S
H927 C914 0.962 1_556 S
H928 C914 0.960 . S
H929 C915 0.961 . S
H930 C915 0.961 . S
H931 C915 0.961 . S
H932 C916 0.931 . S
H933 C921 0.930 . S
H934 C922 0.956 . S
H935 C922 0.961 . S
H936 C922 0.961 . S
H937 C923 0.958 . S
H938 C923 0.961 . S
H939 C923 0.960 . S
C940 C941 1.391 1_556 S
C940 C942 1.394 . S
C940 H956 0.931 . S
C941 C940 1.391 1_554 S
C941 C945 1.376 . S
C942 C940 1.394 . S
C942 C943 1.369 . S
C942 C946 1.531 . S
C943 C942 1.369 . S
C943 C944 1.410 1_556 S
C943 C951 1.503 . S
C944 C943 1.410 1_554 S
C944 C945 1.392 . S
C944 C947 1.511 . S
C945 C941 1.376 . S
C945 C944 1.392 . S
C945 H957 0.929 . S
C946 C942 1.531 . S
C946 H958 0.960 . S
C946 H959 0.962 . S
C946 H960 0.960 . S
C947 C944 1.511 . S
C947 H961 0.961 . S
C947 H962 0.961 . S
C947 H963 0.961 . S
C948 C949 1.370 . S
C948 C950 1.363 . S
C948 H964 0.931 . S
C949 C948 1.370 . S
C949 C953 1.408 . S
C950 C948 1.363 . S
C950 C951 1.370 . S
C950 C954 1.524 . S
C951 C943 1.503 . S
C951 C950 1.370 . S
C951 C952 1.403 . S
C952 C951 1.403 . S
C952 C953 1.404 . S
C952 C955 1.539 . S
C953 C949 1.408 . S
C953 C952 1.404 . S
C953 H965 0.930 . S
C954 C950 1.524 . S
C954 H966 0.956 . S
C954 H967 0.961 . S
C954 H968 0.961 . S
C955 C952 1.539 . S
C955 H969 0.958 . S
C955 H970 0.961 . S
C955 H971 0.960 . S
H956 C940 0.931 . S
H957 C945 0.929 . S
H958 C946 0.960 . S
H959 C946 0.962 . S
H960 C946 0.960 . S
H961 C947 0.961 . S
H962 C947 0.961 . S
H963 C947 0.961 . S
H964 C948 0.931 . S
H965 C953 0.930 . S
H966 C954 0.956 . S
H967 C954 0.961 . S
H968 C954 0.961 . S
H969 C955 0.958 . S
H970 C955 0.961 . S
H971 C955 0.960 . S
C972 C973 1.391 . S
C972 C974 1.394 . S
C972 H988 0.931 . S
C973 C972 1.391 . S
C973 C977 1.376 1_554 S
C974 C972 1.394 . S
C974 C975 1.369 1_554 S
C974 C978 1.531 . S
C975 C974 1.369 1_556 S
C975 C976 1.410 . S
C975 C983 1.503 . S
C976 C975 1.410 . S
C976 C977 1.392 . S
C976 C979 1.511 . S
C977 C973 1.376 1_556 S
C977 C976 1.392 . S
C977 H989 0.929 . S
C978 C974 1.531 . S
C978 H990 0.960 . S
C978 H991 0.962 . S
C978 H992 0.960 . S
C979 C976 1.511 . S
C979 H993 0.961 . S
C979 H994 0.961 . S
C979 H995 0.961 . S
C980 C981 1.370 . S
C980 C982 1.363 . S
C980 H996 0.931 . S
C981 C980 1.370 . S
C981 C985 1.408 . S
C982 C980 1.363 . S
C982 C983 1.370 . S
C982 C986 1.524 . S
C983 C975 1.503 . S
C983 C982 1.370 . S
C983 C984 1.403 . S
C984 C983 1.403 . S
C984 C985 1.404 . S
C984 C987 1.539 . S
C985 C981 1.408 . S
C985 C984 1.404 . S
C985 H997 0.930 . S
C986 C982 1.524 . S
C986 H998 0.956 . S
C986 H999 0.961 . S
C986 H1000 0.961 . S
C987 C984 1.539 . S
C987 H1001 0.958 1_556 S
C987 H1002 0.961 . S
C987 H1003 0.960 . S
H988 C972 0.931 . S
H989 C977 0.929 . S
H990 C978 0.960 . S
H991 C978 0.962 . S
H992 C978 0.960 . S
H993 C979 0.961 . S
H994 C979 0.961 . S
H995 C979 0.961 . S
H996 C980 0.931 . S
H997 C985 0.930 . S
H998 C986 0.956 . S
H999 C986 0.961 . S
H1000 C986 0.961 . S
H1001 C987 0.958 1_554 S
H1002 C987 0.961 . S
H1003 C987 0.960 . S
C1004 C1005 1.391 . S
C1004 C1006 1.394 . S
C1004 H1020 0.931 . S
C1005 C1004 1.391 . S
C1005 C1009 1.376 1_554 S
C1006 C1004 1.394 . S
C1006 C1007 1.369 1_554 S
C1006 C1010 1.531 . S
C1007 C1006 1.369 1_556 S
C1007 C1008 1.410 . S
C1007 C1015 1.503 . S
C1008 C1007 1.410 . S
C1008 C1009 1.392 . S
C1008 C1011 1.511 . S
C1009 C1005 1.376 1_556 S
C1009 C1008 1.392 . S
C1009 H1021 0.929 . S
C1010 C1006 1.531 . S
C1010 H1022 0.960 . S
C1010 H1023 0.962 . S
C1010 H1024 0.960 . S
C1011 C1008 1.511 . S
C1011 H1025 0.961 . S
C1011 H1026 0.961 . S
C1011 H1027 0.961 . S
C1012 C1013 1.370 . S
C1012 C1014 1.363 . S
C1012 H1028 0.931 . S
C1013 C1012 1.370 . S
C1013 C1017 1.408 . S
C1014 C1012 1.363 . S
C1014 C1015 1.370 . S
C1014 C1018 1.524 . S
C1015 C1007 1.503 . S
C1015 C1014 1.370 . S
C1015 C1016 1.403 . S
C1016 C1015 1.403 . S
C1016 C1017 1.404 . S
C1016 C1019 1.539 . S
C1017 C1013 1.408 . S
C1017 C1016 1.404 . S
C1017 H1029 0.930 . S
C1018 C1014 1.524 . S
C1018 H1030 0.956 1_556 S
C1018 H1031 0.961 . S
C1018 H1032 0.961 . S
C1019 C1016 1.539 . S
C1019 H1033 0.958 . S
C1019 H1034 0.961 . S
C1019 H1035 0.960 . S
H1020 C1004 0.931 . S
H1021 C1009 0.929 . S
H1022 C1010 0.960 . S
H1023 C1010 0.962 . S
H1024 C1010 0.960 . S
H1025 C1011 0.961 . S
H1026 C1011 0.961 . S
H1027 C1011 0.961 . S
H1028 C1012 0.931 . S
H1029 C1017 0.930 . S
H1030 C1018 0.956 1_554 S
H1031 C1018 0.961 . S
H1032 C1018 0.961 . S
H1033 C1019 0.958 . S
H1034 C1019 0.961 . S
H1035 C1019 0.960 . S
C1036 C1037 1.426 . S
C1036 C1038 1.394 . S
C1036 H1052 0.931 . S
C1037 C1036 1.426 . S
C1037 C1041 1.341 1_655 S
C1038 C1036 1.394 . S
C1038 C1039 1.369 . S
C1038 C1042 1.531 . S
C1039 C1038 1.369 . S
C1039 C1040 1.410 1_655 S
C1039 C1047 1.503 . S
C1040 C1039 1.410 1_455 S
C1040 C1041 1.392 . S
C1040 C1043 1.511 . S
C1041 C1037 1.341 1_455 S
C1041 C1040 1.392 . S
C1041 H1053 0.929 . S
C1042 C1038 1.531 . S
C1042 H1054 0.960 . S
C1042 H1055 0.962 . S
C1042 H1056 0.960 . S
C1043 C1040 1.511 . S
C1043 H1057 0.961 . S
C1043 H1058 0.961 . S
C1043 H1059 0.961 . S
C1044 C1045 1.370 . S
C1044 C1046 1.363 . S
C1044 H1060 0.931 . S
C1045 C1044 1.370 . S
C1045 C1049 1.408 . S
C1046 C1044 1.363 . S
C1046 C1047 1.370 . S
C1046 C1050 1.524 . S
C1047 C1039 1.503 . S
C1047 C1046 1.370 . S
C1047 C1048 1.403 . S
C1048 C1047 1.403 . S
C1048 C1049 1.404 . S
C1048 C1051 1.539 1_655 S
C1049 C1045 1.408 . S
C1049 C1048 1.404 . S
C1049 H1061 0.930 . S
C1050 C1046 1.524 . S
C1050 H1062 0.956 . S
C1050 H1063 0.961 1_655 S
C1050 H1064 0.961 . S
C1051 C1048 1.539 1_455 S
C1051 H1065 0.958 1_455 S
C1051 H1066 0.961 . S
C1051 H1067 0.960 . S
H1052 C1036 0.931 . S
H1053 C1041 0.929 . S
H1054 C1042 0.960 . S
H1055 C1042 0.962 . S
H1056 C1042 0.960 . S
H1057 C1043 0.961 . S
H1058 C1043 0.961 . S
H1059 C1043 0.961 . S
H1060 C1044 0.931 . S
H1061 C1049 0.930 . S
H1062 C1050 0.956 . S
H1063 C1050 0.961 1_455 S
H1064 C1050 0.961 . S
H1065 C1051 0.958 1_655 S
H1066 C1051 0.961 . S
H1067 C1051 0.960 . S
C1068 C1069 1.391 . S
C1068 C1070 1.394 . S
C1068 H1084 0.931 . S
C1069 C1068 1.391 . S
C1069 C1073 1.376 . S
C1070 C1068 1.394 . S
C1070 C1071 1.369 . S
C1070 C1074 1.531 . S
C1071 C1070 1.369 . S
C1071 C1072 1.410 . S
C1071 C1079 1.503 . S
C1072 C1071 1.410 . S
C1072 C1073 1.392 . S
C1072 C1075 1.511 . S
C1073 C1069 1.376 . S
C1073 C1072 1.392 . S
C1073 H1085 0.929 . S
C1074 C1070 1.531 . S
C1074 H1086 0.960 . S
C1074 H1087 0.962 . S
C1074 H1088 0.960 . S
C1075 C1072 1.511 . S
C1075 H1089 0.961 . S
C1075 H1090 0.961 . S
C1075 H1091 0.961 . S
C1076 C1077 1.370 . S
C1076 C1078 1.363 . S
C1076 H1092 0.931 . S
C1077 C1076 1.370 . S
C1077 C1081 1.408 . S
C1078 C1076 1.363 . S
C1078 C1079 1.370 . S
C1078 C1082 1.524 . S
C1079 C1071 1.503 . S
C1079 C1078 1.370 . S
C1079 C1080 1.403 . S
C1080 C1079 1.403 . S
C1080 C1081 1.404 . S
C1080 C1083 1.539 . S
C1081 C1077 1.408 . S
C1081 C1080 1.404 . S
C1081 H1093 0.913 1_565 S
C1082 C1078 1.524 . S
C1082 H1094 0.956 . S
C1082 H1095 0.961 . S
C1082 H1096 0.961 . S
C1083 C1080 1.539 . S
C1083 H1097 0.958 1_565 S
C1083 H1098 0.961 1_565 S
C1083 H1099 0.960 . S
H1084 C1068 0.931 . S
H1085 C1073 0.929 . S
H1086 C1074 0.960 . S
H1087 C1074 0.962 . S
H1088 C1074 0.960 . S
H1089 C1075 0.961 . S
H1090 C1075 0.961 . S
H1091 C1075 0.961 . S
H1092 C1076 0.931 . S
H1093 C1081 0.913 1_545 S
H1094 C1082 0.956 . S
H1095 C1082 0.961 . S
H1096 C1082 0.961 . S
H1097 C1083 0.958 1_545 S
H1098 C1083 0.961 1_545 S
H1099 C1083 0.960 . S
C1100 C1101 1.391 . S
C1100 C1102 1.394 . S
C1100 H1116 0.931 . S
C1101 C1100 1.391 . S
C1101 C1105 1.376 . S
C1102 C1100 1.394 . S
C1102 C1103 1.369 . S
C1102 C1106 1.531 . S
C1103 C1102 1.369 . S
C1103 C1104 1.410 . S
C1103 C1111 1.503 . S
C1104 C1103 1.410 . S
C1104 C1105 1.392 . S
C1104 C1107 1.511 . S
C1105 C1101 1.376 . S
C1105 C1104 1.392 . S
C1105 H1117 0.929 . S
C1106 C1102 1.531 . S
C1106 H1118 0.960 . S
C1106 H1119 0.962 . S
C1106 H1120 0.960 . S
C1107 C1104 1.511 . S
C1107 H1121 0.961 . S
C1107 H1122 0.961 . S
C1107 H1123 0.961 . S
C1108 C1109 1.370 . S
C1108 C1110 1.363 . S
C1108 H1124 0.931 . S
C1109 C1108 1.370 . S
C1109 C1113 1.408 . S
C1110 C1108 1.363 . S
C1110 C1111 1.370 . S
C1110 C1114 1.524 . S
C1111 C1103 1.503 . S
C1111 C1110 1.370 . S
C1111 C1112 1.403 . S
C1112 C1111 1.403 . S
C1112 C1113 1.404 . S
C1112 C1115 1.539 . S
C1113 C1109 1.408 . S
C1113 C1112 1.404 . S
C1113 H1125 0.930 . S
C1114 C1110 1.524 . S
C1114 H1126 0.956 . S
C1114 H1127 0.961 . S
C1114 H1128 0.961 . S
C1115 C1112 1.539 . S
C1115 H1129 0.958 . S
C1115 H1130 0.961 . S
C1115 H1131 0.960 . S
H1116 C1100 0.931 . S
H1117 C1105 0.929 . S
H1118 C1106 0.960 . S
H1119 C1106 0.962 . S
H1120 C1106 0.960 . S
H1121 C1107 0.961 . S
H1122 C1107 0.961 . S
H1123 C1107 0.961 . S
H1124 C1108 0.931 . S
H1125 C1113 0.930 . S
H1126 C1114 0.956 . S
H1127 C1114 0.961 . S
H1128 C1114 0.961 . S
H1129 C1115 0.958 . S
H1130 C1115 0.961 . S
H1131 C1115 0.960 . S
C1132 C1133 1.391 . S
C1132 C1134 1.394 . S
C1132 H1148 0.931 . S
C1133 C1132 1.391 . S
C1133 C1137 1.376 . S
C1134 C1132 1.394 . S
C1134 C1135 1.369 . S
C1134 C1138 1.531 . S
C1135 C1134 1.369 . S
C1135 C1136 1.410 . S
C1135 C1143 1.503 . S
C1136 C1135 1.410 . S
C1136 C1137 1.392 . S
C1136 C1139 1.511 . S
C1137 C1133 1.376 . S
C1137 C1136 1.392 . S
C1137 H1149 0.929 . S
C1138 C1134 1.531 . S
C1138 H1150 0.960 . S
C1138 H1151 0.962 . S
C1138 H1152 0.960 . S
C1139 C1136 1.511 . S
C1139 H1153 0.961 . S
C1139 H1154 0.961 . S
C1139 H1155 0.961 . S
C1140 C1141 1.370 . S
C1140 C1142 1.363 . S
C1140 H1156 0.931 . S
C1141 C1140 1.370 . S
C1141 C1145 1.408 . S
C1142 C1140 1.363 . S
C1142 C1143 1.370 . S
C1142 C1146 1.524 . S
C1143 C1135 1.503 . S
C1143 C1142 1.370 . S
C1143 C1144 1.403 . S
C1144 C1143 1.403 . S
C1144 C1145 1.404 . S
C1144 C1147 1.539 . S
C1145 C1141 1.408 . S
C1145 C1144 1.404 . S
C1145 H1157 0.930 . S
C1146 C1142 1.524 . S
C1146 H1158 0.956 . S
C1146 H1159 0.961 . S
C1146 H1160 0.961 . S
C1147 C1144 1.539 . S
C1147 H1161 0.958 . S
C1147 H1162 0.961 . S
C1147 H1163 0.960 . S
H1148 C1132 0.931 . S
H1149 C1137 0.929 . S
H1150 C1138 0.960 . S
H1151 C1138 0.962 . S
H1152 C1138 0.960 . S
H1153 C1139 0.961 . S
H1154 C1139 0.961 . S
H1155 C1139 0.961 . S
H1156 C1140 0.931 . S
H1157 C1145 0.930 . S
H1158 C1146 0.956 . S
H1159 C1146 0.961 . S
H1160 C1146 0.961 . S
H1161 C1147 0.958 . S
H1162 C1147 0.961 . S
H1163 C1147 0.960 . S
C397 C255 1.966 . S
C405 C327 1.927 . S
C437 C351 1.416 . S
C429 C294 1.543 . S
C469 C372 1.884 . S
C461 C177 1.960 . S
C501 C390 1.407 . S
C493 C216 1.625 . S
C533 C330 1.816 1_565 S
C525 C99 1.899 . S
C557 C138 1.438 . S
C565 C348 1.281 . S
C589 C21 1.821 1_556 S
C597 C369 1.778 . S
C621 C60 1.460 1_455 S
C629 C393 1.317 . S
C661 C328 0.500 . S
C653 C196 0.312 1_455 S
C693 C346 0.762 . S
C685 C235 0.664 . S
C725 C367 0.414 . S
C717 C289 0.489 . S
C749 C157 0.789 . S
C757 C391 0.700 . S
C781 C40 0.356 . S
C789 C326 0.468 . S
C821 C350 0.777 1_565 S
C813 C79 0.860 . S
C853 C371 0.448 . S
C845 C133 0.485 . S
C877 C1 0.702 . S
C885 C389 0.803 . S
C909 C211 1.869 . S
C917 C329 1.915 . S
C941 C250 2.118 . S
C949 C347 2.179 . S
C981 C368 1.879 . S
C973 C274 1.868 . S
C1013 C392 2.180 . S
C1005 C172 2.143 . S
C1037 C55 1.806 1_655 S
C1045 C325 1.767 . S
C1077 C349 2.016 . S
C1069 C94 1.957 . S
C1109 C370 1.732 . S
C1101 C118 1.783 . S
C1133 C16 1.967 . S
C1141 C388 2.047 . S
