# Generated by pormake.
# Topology eea, (3,6)-cn, num edge types: 1
# Building blocks:
#     Node 0, Type 0, BuildingBlock: BETDIP_clean_linker_0, # of connection points: 3
#     Node 1, Type 0, BuildingBlock: BETDIP_clean_linker_0, # of connection points: 3
#     Node 2, Type 0, BuildingBlock: BETDIP_clean_linker_0, # of connection points: 3
#     Node 3, Type 0, BuildingBlock: BETDIP_clean_linker_0, # of connection points: 3
#     Node 4, Type 0, BuildingBlock: BETDIP_clean_linker_0, # of connection points: 3
#     Node 5, Type 0, BuildingBlock: BETDIP_clean_linker_0, # of connection points: 3
#     Node 6, Type 0, BuildingBlock: BETDIP_clean_linker_0, # of connection points: 3
#     Node 7, Type 0, BuildingBlock: BETDIP_clean_linker_0, # of connection points: 3
#     Node 8, Type 0, BuildingBlock: BETDIP_clean_linker_0, # of connection points: 3
#     Node 9, Type 0, BuildingBlock: BETDIP_clean_linker_0, # of connection points: 3
#     Node 10, Type 0, BuildingBlock: BETDIP_clean_linker_0, # of connection points: 3
#     Node 11, Type 0, BuildingBlock: BETDIP_clean_linker_0, # of connection points: 3
#     Node 12, Type 0, BuildingBlock: BETDIP_clean_linker_0, # of connection points: 3
#     Node 13, Type 0, BuildingBlock: BETDIP_clean_linker_0, # of connection points: 3
#     Node 14, Type 0, BuildingBlock: BETDIP_clean_linker_0, # of connection points: 3
#     Node 15, Type 0, BuildingBlock: BETDIP_clean_linker_0, # of connection points: 3
#     Node 16, Type 0, BuildingBlock: BETDIP_clean_linker_0, # of connection points: 3
#     Node 17, Type 0, BuildingBlock: BETDIP_clean_linker_0, # of connection points: 3
#     Node 18, Type 1, BuildingBlock: LEVNOQ01_clean_sbu_1, # of connection points: 6
#     Node 19, Type 1, BuildingBlock: LEVNOQ01_clean_sbu_1, # of connection points: 6
#     Node 20, Type 1, BuildingBlock: LEVNOQ01_clean_sbu_1, # of connection points: 6
#     Node 21, Type 1, BuildingBlock: LEVNOQ01_clean_sbu_1, # of connection points: 6
#     Node 22, Type 1, BuildingBlock: LEVNOQ01_clean_sbu_1, # of connection points: 6
#     Node 23, Type 1, BuildingBlock: LEVNOQ01_clean_sbu_1, # of connection points: 6
#     Node 24, Type 1, BuildingBlock: LEVNOQ01_clean_sbu_1, # of connection points: 6
#     Node 25, Type 1, BuildingBlock: LEVNOQ01_clean_sbu_1, # of connection points: 6
#     Node 26, Type 1, BuildingBlock: LEVNOQ01_clean_sbu_1, # of connection points: 6
#     Edge 27, Type (0, 1), BuildingBlock: XIVTED_clean_linker_0, # of connection points: 2
#     Edge 28, Type (0, 1), BuildingBlock: XIVTED_clean_linker_0, # of connection points: 2
#     Edge 29, Type (0, 1), BuildingBlock: XIVTED_clean_linker_0, # of connection points: 2
#     Edge 30, Type (0, 1), BuildingBlock: XIVTED_clean_linker_0, # of connection points: 2
#     Edge 31, Type (0, 1), BuildingBlock: XIVTED_clean_linker_0, # of connection points: 2
#     Edge 32, Type (0, 1), BuildingBlock: XIVTED_clean_linker_0, # of connection points: 2
#     Edge 33, Type (0, 1), BuildingBlock: XIVTED_clean_linker_0, # of connection points: 2
#     Edge 34, Type (0, 1), BuildingBlock: XIVTED_clean_linker_0, # of connection points: 2
#     Edge 35, Type (0, 1), BuildingBlock: XIVTED_clean_linker_0, # of connection points: 2
#     Edge 36, Type (0, 1), BuildingBlock: XIVTED_clean_linker_0, # of connection points: 2
#     Edge 37, Type (0, 1), BuildingBlock: XIVTED_clean_linker_0, # of connection points: 2
#     Edge 38, Type (0, 1), BuildingBlock: XIVTED_clean_linker_0, # of connection points: 2
#     Edge 39, Type (0, 1), BuildingBlock: XIVTED_clean_linker_0, # of connection points: 2
#     Edge 40, Type (0, 1), BuildingBlock: XIVTED_clean_linker_0, # of connection points: 2
#     Edge 41, Type (0, 1), BuildingBlock: XIVTED_clean_linker_0, # of connection points: 2
#     Edge 42, Type (0, 1), BuildingBlock: XIVTED_clean_linker_0, # of connection points: 2
#     Edge 43, Type (0, 1), BuildingBlock: XIVTED_clean_linker_0, # of connection points: 2
#     Edge 44, Type (0, 1), BuildingBlock: XIVTED_clean_linker_0, # of connection points: 2
#     Edge 45, Type (0, 1), BuildingBlock: XIVTED_clean_linker_0, # of connection points: 2
#     Edge 46, Type (0, 1), BuildingBlock: XIVTED_clean_linker_0, # of connection points: 2
#     Edge 47, Type (0, 1), BuildingBlock: XIVTED_clean_linker_0, # of connection points: 2
#     Edge 48, Type (0, 1), BuildingBlock: XIVTED_clean_linker_0, # of connection points: 2
#     Edge 49, Type (0, 1), BuildingBlock: XIVTED_clean_linker_0, # of connection points: 2
#     Edge 50, Type (0, 1), BuildingBlock: XIVTED_clean_linker_0, # of connection points: 2
#     Edge 51, Type (0, 1), BuildingBlock: XIVTED_clean_linker_0, # of connection points: 2
#     Edge 52, Type (0, 1), BuildingBlock: XIVTED_clean_linker_0, # of connection points: 2
#     Edge 53, Type (0, 1), BuildingBlock: XIVTED_clean_linker_0, # of connection points: 2
#     Edge 54, Type (0, 1), BuildingBlock: XIVTED_clean_linker_0, # of connection points: 2
#     Edge 55, Type (0, 1), BuildingBlock: XIVTED_clean_linker_0, # of connection points: 2
#     Edge 56, Type (0, 1), BuildingBlock: XIVTED_clean_linker_0, # of connection points: 2
#     Edge 57, Type (0, 1), BuildingBlock: XIVTED_clean_linker_0, # of connection points: 2
#     Edge 58, Type (0, 1), BuildingBlock: XIVTED_clean_linker_0, # of connection points: 2
#     Edge 59, Type (0, 1), BuildingBlock: XIVTED_clean_linker_0, # of connection points: 2
#     Edge 60, Type (0, 1), BuildingBlock: XIVTED_clean_linker_0, # of connection points: 2
#     Edge 61, Type (0, 1), BuildingBlock: XIVTED_clean_linker_0, # of connection points: 2
#     Edge 62, Type (0, 1), BuildingBlock: XIVTED_clean_linker_0, # of connection points: 2
#     Edge 63, Type (0, 1), BuildingBlock: XIVTED_clean_linker_0, # of connection points: 2
#     Edge 64, Type (0, 1), BuildingBlock: XIVTED_clean_linker_0, # of connection points: 2
#     Edge 65, Type (0, 1), BuildingBlock: XIVTED_clean_linker_0, # of connection points: 2
#     Edge 66, Type (0, 1), BuildingBlock: XIVTED_clean_linker_0, # of connection points: 2
#     Edge 67, Type (0, 1), BuildingBlock: XIVTED_clean_linker_0, # of connection points: 2
#     Edge 68, Type (0, 1), BuildingBlock: XIVTED_clean_linker_0, # of connection points: 2
#     Edge 69, Type (0, 1), BuildingBlock: XIVTED_clean_linker_0, # of connection points: 2
#     Edge 70, Type (0, 1), BuildingBlock: XIVTED_clean_linker_0, # of connection points: 2
#     Edge 71, Type (0, 1), BuildingBlock: XIVTED_clean_linker_0, # of connection points: 2
#     Edge 72, Type (0, 1), BuildingBlock: XIVTED_clean_linker_0, # of connection points: 2
#     Edge 73, Type (0, 1), BuildingBlock: XIVTED_clean_linker_0, # of connection points: 2
#     Edge 74, Type (0, 1), BuildingBlock: XIVTED_clean_linker_0, # of connection points: 2
#     Edge 75, Type (0, 1), BuildingBlock: XIVTED_clean_linker_0, # of connection points: 2
#     Edge 76, Type (0, 1), BuildingBlock: XIVTED_clean_linker_0, # of connection points: 2
#     Edge 77, Type (0, 1), BuildingBlock: XIVTED_clean_linker_0, # of connection points: 2
#     Edge 78, Type (0, 1), BuildingBlock: XIVTED_clean_linker_0, # of connection points: 2
#     Edge 79, Type (0, 1), BuildingBlock: XIVTED_clean_linker_0, # of connection points: 2
#     Edge 80, Type (0, 1), BuildingBlock: XIVTED_clean_linker_0, # of connection points: 2
# Relax obj value: 0.086
# Max RMSD: 0.116
# Mean RMSD: 0.102
data_MOF--net-eea--node1-LEVNOQ01_clean_sbu_1--node2-BETDIP_clean_linker_0--edge1-XIVTED_clean_linker_0
_symmetry_space_group_name_H-M    P1
_symmetry_Int_Tables_number       1
_symmetry_cell_setting            triclinic
loop_
_symmetry_equiv_pos_as_xyz
'x, y, z'
_cell_length_a     58.328052
_cell_length_b     58.543899
_cell_length_c     44.800656
_cell_angle_alpha  89.829092
_cell_angle_beta   89.75585
_cell_angle_gamma 119.91742
loop_
_atom_site_label
_atom_site_type_symbol
_atom_site_fract_x
_atom_site_fract_y
_atom_site_fract_z
_atom_type_partial_charge
H0 H 0.21807 0.09994 0.33236 0.0
H1 H 0.26429 0.15513 0.40056 0.0
H2 H 0.25762 0.07897 0.3986 0.0
H3 H 0.22562 0.15698 0.40175 0.0
C4 C 0.22293 0.15908 0.37811 0.0
C5 C 0.23136 0.10516 0.35116 0.0
C6 C 0.23796 0.08694 0.36283 0.0
C7 C 0.24016 0.12938 0.36525 0.0
C8 C 0.25712 0.13621 0.38989 0.0
C9 C 0.26357 0.11808 0.40198 0.0
C10 C 0.25416 0.09368 0.38811 0.0
N11 N 0.2292 0.14519 0.35669 0.0
H12 H 0.89314 0.10775 0.31991 0.0
H13 H 0.83546 0.09718 0.3867 0.0
H14 H 0.91267 0.1665 0.38735 0.0
H15 H 0.87263 0.06196 0.32868 0.0
C16 C 0.85219 0.05545 0.33458 0.0
C17 C 0.88735 0.11495 0.33911 0.0
C18 C 0.90532 0.13927 0.35157 0.0
C19 C 0.86214 0.09981 0.35202 0.0
C20 C 0.85487 0.10928 0.37675 0.0
C21 C 0.87303 0.13311 0.39001 0.0
C22 C 0.89817 0.14826 0.37698 0.0
N23 N 0.84432 0.07394 0.34255 0.0
H24 H 0.88585 0.77456 0.31736 0.0
H25 H 0.8979 0.74125 0.39771 0.0
H26 H 0.82297 0.73578 0.38191 0.0
H27 H 0.93669 0.77977 0.39419 0.0
C28 C 0.94223 0.77955 0.37104 0.0
C29 C 0.87835 0.76356 0.33802 0.0
C30 C 0.85214 0.75469 0.34698 0.0
C31 C 0.89521 0.75925 0.35646 0.0
C32 C 0.88528 0.74514 0.38345 0.0
C33 C 0.85944 0.73713 0.39299 0.0
C34 C 0.84293 0.74174 0.37451 0.0
N35 N 0.92245 0.77078 0.34871 0.0
H36 H 0.11241 0.22338 0.70299 0.0
H37 H 0.16896 0.26464 0.63274 0.0
H38 H 0.08776 0.24374 0.62152 0.0
H39 H 0.14001 0.20517 0.70954 0.0
C40 C 0.1593 0.21885 0.70014 0.0
C41 C 0.11708 0.2324 0.68102 0.0
C42 C 0.09707 0.23257 0.6638 0.0
C43 C 0.14301 0.24372 0.66953 0.0
C44 C 0.149 0.25613 0.64157 0.0
C45 C 0.12904 0.25559 0.62392 0.0
C46 C 0.10315 0.2438 0.63509 0.0
N47 N 0.16328 0.24157 0.68428 0.0
H48 H 0.79011 0.88192 0.68882 0.0
H49 H 0.74279 0.90162 0.63294 0.0
H50 H 0.73803 0.82653 0.62377 0.0
H51 H 0.79237 0.93454 0.62569 0.0
C52 C 0.79293 0.94052 0.64878 0.0
C53 C 0.77441 0.87598 0.67262 0.0
C54 C 0.76417 0.85159 0.65821 0.0
C55 C 0.76704 0.89418 0.66313 0.0
C56 C 0.74792 0.88721 0.64081 0.0
C57 C 0.73747 0.86293 0.6265 0.0
C58 C 0.74518 0.84492 0.63574 0.0
N59 N 0.78241 0.92091 0.6715 0.0
H60 H 0.11453 0.89148 0.68349 0.0
H61 H 0.10818 0.83348 0.61997 0.0
H62 H 0.17359 0.91248 0.61507 0.0
H63 H 0.06525 0.82404 0.62377 0.0
C64 C 0.06193 0.82527 0.64745 0.0
C65 C 0.12286 0.88581 0.66522 0.0
C66 C 0.14588 0.90483 0.65074 0.0
C67 C 0.10886 0.86014 0.65396 0.0
C68 C 0.11892 0.85318 0.62907 0.0
C69 C 0.14244 0.87199 0.61509 0.0
C70 C 0.15602 0.89754 0.62652 0.0
N71 N 0.08327 0.84285 0.66571 0.0
H72 H 0.87367 0.43197 0.67169 0.0
H73 H 0.92643 0.49027 0.73422 0.0
H74 H 0.91527 0.41241 0.73646 0.0
H75 H 0.91546 0.51669 0.71396 0.0
C76 C 0.89762 0.50558 0.70102 0.0
C77 C 0.8882 0.43793 0.6893 0.0
C78 C 0.89335 0.4193 0.70267 0.0
C79 C 0.89993 0.4637 0.70038 0.0
C80 C 0.9177 0.47091 0.72447 0.0
C81 C 0.92343 0.45249 0.73741 0.0
C82 C 0.91163 0.42699 0.7259 0.0
N83 N 0.89075 0.48047 0.68928 0.0
H84 H 0.56134 0.44413 0.65078 0.0
H85 H 0.50646 0.43217 0.72146 0.0
H86 H 0.58134 0.50383 0.71712 0.0
H87 H 0.51246 0.39511 0.72343 0.0
C88 C 0.508 0.38914 0.70024 0.0
C89 C 0.55549 0.45189 0.66944 0.0
C90 C 0.57343 0.47652 0.68127 0.0
C91 C 0.5316 0.43568 0.68431 0.0
C92 C 0.52469 0.44507 0.70963 0.0
C93 C 0.54269 0.46942 0.72198 0.0
C94 C 0.5668 0.48538 0.70719 0.0
N95 N 0.51734 0.40854 0.67725 0.0
H96 H 0.55416 0.10771 0.64783 0.0
H97 H 0.5702 0.08051 0.73075 0.0
H98 H 0.50137 0.08833 0.72288 0.0
H99 H 0.5984 0.07479 0.70393 0.0
C100 C 0.60594 0.09011 0.68693 0.0
C101 C 0.54891 0.1009 0.6707 0.0
C102 C 0.52601 0.09876 0.68356 0.0
C103 C 0.56513 0.0943 0.68731 0.0
C104 C 0.558 0.08539 0.71711 0.0
C105 C 0.53509 0.08339 0.72997 0.0
C106 C 0.51932 0.09025 0.71314 0.0
N107 N 0.58908 0.09833 0.67399 0.0
H108 H 0.7806 0.55846 0.03646 0.0
H109 H 0.83398 0.5985 0.96317 0.0
H110 H 0.75554 0.58776 0.96283 0.0
H111 H 0.80449 0.53521 0.03361 0.0
C112 C 0.82455 0.5499 0.0273 0.0
C113 C 0.78496 0.56899 0.01541 0.0
C114 C 0.76564 0.57301 0.00173 0.0
C115 C 0.80984 0.57857 0.00151 0.0
C116 C 0.81514 0.59208 0.97422 0.0
C117 C 0.79543 0.5948 0.95972 0.0
C118 C 0.77095 0.58578 0.97396 0.0
N119 N 0.82957 0.5737 0.01311 0.0
H120 H 0.45498 0.21758 0.02208 0.0
H121 H 0.40543 0.23387 0.96566 0.0
H122 H 0.4045 0.16045 0.95764 0.0
H123 H 0.45059 0.26938 0.95804 0.0
C124 C 0.45383 0.27497 0.98143 0.0
C125 C 0.4393 0.21095 0.00576 0.0
C126 C 0.42984 0.18648 0.99187 0.0
C127 C 0.43105 0.22831 0.99572 0.0
C128 C 0.41164 0.22029 0.97357 0.0
C129 C 0.40216 0.19598 0.95955 0.0
C130 C 0.41092 0.17889 0.96922 0.0
N131 N 0.44569 0.25517 0.00381 0.0
H132 H 0.77782 0.22153 0.01998 0.0
H133 H 0.77331 0.17101 0.94799 0.0
H134 H 0.84264 0.2474 0.95895 0.0
H135 H 0.73337 0.20077 0.00727 0.0
C136 C 0.72871 0.18034 0.0067 0.0
C137 C 0.78685 0.2174 0.00115 0.0
C138 C 0.81145 0.23698 0.99065 0.0
C139 C 0.77338 0.19318 0.98613 0.0
C140 C 0.78477 0.18894 0.96056 0.0
C141 C 0.80945 0.20887 0.94971 0.0
C142 C 0.82333 0.23196 0.96639 0.0
N143 N 0.7473 0.17389 0.99453 0.0
H144 H 0.55252 0.77762 -0.00043 0.0
H145 H 0.59332 0.82276 0.07683 0.0
H146 H 0.59088 0.74946 0.05833 0.0
H147 H 0.52512 0.79351 0.01582 0.0
C148 C 0.53851 0.81376 0.02231 0.0
C149 C 0.56473 0.78059 0.01894 0.0
C150 C 0.57097 0.76125 0.02705 0.0
C151 C 0.57324 0.80306 0.03689 0.0
C152 C 0.58828 0.80612 0.06238 0.0
C153 C 0.59406 0.78645 0.07095 0.0
C154 C 0.5863 0.76471 0.05232 0.0
N155 N 0.56443 0.82133 0.03205 0.0
H156 H 0.22555 0.77294 0.98507 0.0
H157 H 0.16942 0.76763 0.05144 0.0
H158 H 0.24927 0.83169 0.05334 0.0
H159 H 0.15842 0.72633 0.05116 0.0
C160 C 0.16083 0.72101 0.02866 0.0
C161 C 0.22047 0.78123 0.00386 0.0
C162 C 0.23975 0.80479 0.01667 0.0
C163 C 0.19542 0.76702 0.01716 0.0
C164 C 0.18911 0.77768 0.04185 0.0
C165 C 0.20851 0.80062 0.05549 0.0
C166 C 0.23377 0.8143 0.04254 0.0
N167 N 0.1784 0.74063 0.00823 0.0
H168 H 0.2199 0.43963 0.98747 0.0
H169 H 0.22937 0.4044 0.06747 0.0
H170 H 0.15949 0.41028 0.05547 0.0
H171 H 0.26932 0.44205 0.06284 0.0
C172 C 0.27442 0.44091 0.03973 0.0
C173 C 0.21213 0.42939 0.00851 0.0
C174 C 0.18758 0.42485 0.01912 0.0
C175 C 0.2276 0.42267 0.02621 0.0
C176 C 0.21757 0.40989 0.05385 0.0
C177 C 0.19326 0.40578 0.06493 0.0
C178 C 0.17827 0.41316 0.04722 0.0
N179 N 0.2543 0.43175 0.0178 0.0
H180 H 0.44654 0.89215 0.36689 0.0
H181 H 0.50192 0.93264 0.2955 0.0
H182 H 0.42133 0.91498 0.28773 0.0
H183 H 0.47387 0.87452 0.37448 0.0
C184 C 0.49269 0.887 0.36339 0.0
C185 C 0.45104 0.90152 0.34513 0.0
C186 C 0.43104 0.90258 0.32888 0.0
C187 C 0.47663 0.91229 0.33284 0.0
C188 C 0.48227 0.92488 0.30499 0.0
C189 C 0.4623 0.92534 0.28823 0.0
C190 C 0.43678 0.91432 0.30041 0.0
N191 N 0.49685 0.90931 0.34649 0.0
H192 H 0.12237 0.55071 0.35062 0.0
H193 H 0.07007 0.56496 0.29679 0.0
H194 H 0.06956 0.49168 0.28929 0.0
H195 H 0.1169 0.60012 0.28685 0.0
C196 C 0.1199 0.60638 0.31005 0.0
C197 C 0.10589 0.5434 0.33529 0.0
C198 C 0.09635 0.51875 0.32181 0.0
C199 C 0.09677 0.5602 0.32584 0.0
C200 C 0.0766 0.55159 0.30454 0.0
C201 C 0.06682 0.52699 0.29107 0.0
C202 C 0.07626 0.51035 0.30044 0.0
N203 N 0.11144 0.58719 0.33316 0.0
H204 H 0.4481 0.55092 0.35776 0.0
H205 H 0.43625 0.50007 0.28386 0.0
H206 H 0.51161 0.57033 0.29621 0.0
H207 H 0.39929 0.51804 0.29608 0.0
C208 C 0.39383 0.5052 0.31558 0.0
C209 C 0.45645 0.54548 0.33931 0.0
C210 C 0.48137 0.56363 0.32783 0.0
C211 C 0.44081 0.52167 0.32435 0.0
C212 C 0.44978 0.51681 0.29713 0.0
C213 C 0.47512 0.53491 0.28602 0.0
C214 C 0.4917 0.55651 0.30376 0.0
N215 N 0.41411 0.5056 0.33325 0.0
O216 O 0.49537 -0.00974 0.92477 0.0
Mg217 Mg 0.51726 0.98568 0.95852 0.0
O218 O 0.47933 0.00905 0.95486 0.0
Mg219 Mg 0.47998 -0.00475 0.00452 0.0
O220 O 0.49287 0.96575 0.99243 0.0
O221 O 0.51392 0.94948 0.96652 0.0
O222 O 0.4823 0.98168 0.05422 0.0
O223 O 0.43788 0.9597 0.99621 0.0
Mg224 Mg 0.44433 -0.00313 0.04601 0.0
O225 O 0.46687 0.02643 0.01638 0.0
O226 O 0.46449 -0.00163 0.08416 0.0
O227 O 0.41299 0.96013 0.03297 0.0
O228 O 0.43518 0.02527 0.04668 0.0
C229 C 0.5457 0.03382 -0.00048 0.0
C230 C 0.48378 0.00341 0.92867 0.0
C231 C 0.49868 0.9474 0.98854 0.0
C232 C 0.47792 0.9872 0.08047 0.0
C233 C 0.41592 0.9493 0.01011 0.0
C234 C 0.45426 0.03758 0.02774 0.0
O235 O 0.54756 0.01954 0.97941 0.0
O236 O 0.52346 0.02902 0.01056 0.0
O237 O 0.01548 0.47552 0.94202 0.0
Mg238 Mg 0.00896 0.49917 0.97314 0.0
O239 O 0.97811 0.4556 0.96499 0.0
Mg240 Mg -0.00202 0.47088 0.01312 0.0
O241 O 0.03435 0.51602 0.00656 0.0
O242 O 0.03738 0.53496 0.96173 0.0
O243 O 0.01057 0.47919 0.06387 0.0
O244 O 0.03146 0.46237 -7e-05 0.0
Mg245 Mg -0.00662 0.42106 0.0439 0.0
O246 O 0.96559 0.42863 0.0251 0.0
O247 O -5e-05 0.44044 0.08464 0.0
O248 O 0.02608 0.42558 0.01955 0.0
O249 O 0.96071 0.38865 0.02848 0.0
C250 C 0.96064 0.4946 0.00253 0.0
C251 C 0.99142 0.4585 0.94141 0.0
C252 C 0.04671 0.53565 0.98791 0.0
C253 C 0.00784 0.46489 0.08689 0.0
C254 C 0.03883 0.44546 0.00302 0.0
C255 C 0.95251 0.4039 0.01837 0.0
O256 O 0.97321 0.50101 0.97788 0.0
O257 O 0.96697 0.48339 0.02268 0.0
O258 O 0.53901 0.52211 0.07457 0.0
Mg259 Mg 0.50733 0.49634 0.04684 0.0
O260 O 0.52081 0.54087 0.05092 0.0
Mg261 Mg 0.52485 0.52359 0.00373 0.0
O262 O 0.51497 0.47892 0.01317 0.0
O263 O 0.49818 0.45968 0.05778 0.0
O264 O 0.52667 0.5053 0.95635 0.0
O265 O 0.5677 0.53533 0.01673 0.0
Mg266 Mg 0.55182 0.55348 0.96246 0.0
O267 O 0.53525 0.5679 0.99176 0.0
O268 O 0.52778 0.53494 0.92606 0.0
O269 O 0.58452 0.54774 0.97195 0.0
O270 O 0.5655 0.59181 0.95639 0.0
C271 C 0.46522 0.50317 0.01602 0.0
C272 C 0.5312 0.53857 0.0748 0.0
C273 C 0.5064 0.45882 0.03128 0.0
C274 C 0.52326 0.51189 0.93031 0.0
C275 C 0.58669 0.54187 -0.00145 0.0
C276 C 0.54897 0.58986 0.97678 0.0
O277 O 0.47209 0.49872 0.04124 0.0
O278 O 0.48128 0.51049 0.99406 0.0
O279 O 0.1328 0.31151 0.27601 0.0
Mg280 Mg 0.16537 0.32389 0.3048 0.0
O281 O 0.14608 0.34945 0.2956 0.0
Mg282 Mg 0.1453 0.3316 0.34523 0.0
O283 O 0.15976 0.29971 0.33884 0.0
O284 O 0.17945 0.2999 0.29537 0.0
O285 O 0.14457 0.31879 0.39499 0.0
O286 O 0.10326 0.29635 0.33589 0.0
Mg287 Mg 0.10039 0.33431 0.38388 0.0
O288 O 0.13052 0.35988 0.35678 0.0
O289 O 0.11761 0.32763 0.42149 0.0
O290 O 0.07251 0.30159 0.3591 0.0
O291 O 0.10303 0.37035 0.37961 0.0
C292 C 0.20396 0.37487 0.33233 0.0
C293 C 0.13747 0.33472 0.27278 0.0
C294 C 0.17065 0.28997 0.32145 0.0
C295 C 0.13467 0.3203 0.41991 0.0
C296 C 0.0791 0.28883 0.34164 0.0
C297 C 0.1232 0.37692 0.36243 0.0
O298 O 0.19834 0.36345 0.30722 0.0
O299 O 0.18753 0.3652 0.35379 0.0
O300 O 0.6852 0.81356 0.27834 0.0
Mg301 Mg 0.67687 0.83652 0.30812 0.0
O302 O 0.64763 0.79134 0.30038 0.0
Mg303 Mg 0.66389 0.80585 0.34955 0.0
O304 O 0.6997 0.85073 0.34448 0.0
O305 O 0.70578 0.8734 0.30147 0.0
O306 O 0.67476 0.81703 0.40016 0.0
O307 O 0.69771 0.79638 0.33956 0.0
Mg308 Mg 0.65826 0.76146 0.38405 0.0
O309 O 0.62992 0.76228 0.35776 0.0
O310 O 0.66378 0.7802 0.42467 0.0
O311 O 0.68919 0.75973 0.36263 0.0
O312 O 0.62469 0.72704 0.3841 0.0
C313 C 0.62609 0.82868 0.33459 0.0
C314 C 0.66155 0.79551 0.27702 0.0
C315 C 0.71298 0.87187 0.3282 0.0
C316 C 0.67169 0.80455 0.42463 0.0
C317 C 0.70343 0.7785 0.34513 0.0
C318 C 0.61543 0.73787 0.36642 0.0
O319 O 0.63971 0.83563 0.31066 0.0
O320 O 0.63229 0.81812 0.35563 0.0
O321 O 0.20595 0.85009 0.40549 0.0
Mg322 Mg 0.17429 0.82854 0.37533 0.0
O323 O 0.18998 0.87218 0.38445 0.0
Mg324 Mg 0.19193 0.85608 0.33528 0.0
O325 O 0.17954 0.80999 0.34094 0.0
O326 O 0.16201 0.79113 0.38551 0.0
O327 O 0.19552 0.84761 0.28479 0.0
O328 O 0.2345 0.86382 0.34553 0.0
Mg329 Mg 0.23906 0.90783 0.30547 0.0
O330 O 0.20415 0.89854 0.32522 0.0
O331 O 0.22879 0.88505 0.26657 0.0
O332 O 0.26506 0.90506 0.33593 0.0
O333 O 0.2316 0.93856 0.30714 0.0
C334 C 0.1332 0.8389 0.34903 0.0
C335 C 0.20017 0.86802 0.40735 0.0
C336 C 0.16993 0.78979 0.35904 0.0
C337 C 0.21035 0.86144 0.26305 0.0
C338 C 0.25836 0.88262 0.34685 0.0
C339 C 0.20964 0.92247 0.32033 0.0
O340 O 0.14002 0.83316 0.37353 0.0
O341 O 0.14893 0.8461 0.3268 0.0
O342 O 0.85112 0.67481 0.60392 0.0
Mg343 Mg 0.86514 0.66261 0.64004 0.0
O344 O 0.81533 0.6726 0.62459 0.0
Mg345 Mg 0.81542 0.6623 0.67528 0.0
O346 O 0.83559 0.63812 0.66784 0.0
O347 O 0.85329 0.62285 0.63623 0.0
O348 O 0.81564 0.65246 0.72589 0.0
O349 O 0.77568 0.62266 0.66643 0.0
Mg350 Mg 0.76625 0.65831 0.70759 0.0
O351 O 0.79669 0.68834 0.68482 0.0
O352 O 0.77998 0.65001 0.74714 0.0
O353 O 0.74156 0.62698 0.68026 0.0
O354 O 0.76333 0.69133 0.70577 0.0
C355 C 0.88061 0.70689 0.6826 0.0
C356 C 0.8305 0.67672 0.60213 0.0
C357 C 0.83497 0.61797 0.6555 0.0
C358 C 0.8011 0.64894 0.74876 0.0
C359 C 0.75083 0.61411 0.66749 0.0
C360 C 0.78522 0.70196 0.69079 0.0
O361 O 0.8883 0.69208 0.67091 0.0
O362 O 0.85628 0.70093 0.68266 0.0
O363 O 0.34934 0.14282 0.61018 0.0
Mg364 Mg 0.34298 0.16733 0.64005 0.0
O365 O 0.31215 0.12328 0.63369 0.0
Mg366 Mg 0.33134 0.13916 0.68176 0.0
O367 O 0.36787 0.18403 0.67418 0.0
O368 O 0.37149 0.20336 0.62943 0.0
O369 O 0.34363 0.14911 0.73249 0.0
O370 O 0.36386 0.12843 0.67047 0.0
Mg371 Mg 0.32396 0.08981 0.71739 0.0
O372 O 0.29804 0.09748 0.69451 0.0
O373 O 0.32918 0.11082 0.75645 0.0
O374 O 0.35718 0.09312 0.69535 0.0
O375 O 0.29131 0.05715 0.70231 0.0
C376 C 0.2943 0.16286 0.66848 0.0
C377 C 0.32526 0.12577 0.61005 0.0
C378 C 0.3803 0.20397 0.6559 0.0
C379 C 0.33889 0.13564 0.75669 0.0
C380 C 0.37035 0.11123 0.67672 0.0
C381 C 0.28466 0.07251 0.68902 0.0
O382 O 0.30674 0.1684 0.64377 0.0
O383 O 0.30097 0.1527 0.68949 0.0
O384 O 0.86994 0.18094 0.73773 0.0
Mg385 Mg 0.83882 0.16274 0.7066 0.0
O386 O 0.85717 0.20623 0.71834 0.0
Mg387 Mg 0.85849 0.19085 0.66845 0.0
O388 O 0.84392 0.14366 0.67274 0.0
O389 O 0.82368 0.12483 0.71634 0.0
O390 O 0.86121 0.18243 0.61788 0.0
O391 O 0.90047 0.19646 0.6786 0.0
Mg392 Mg 0.90594 0.2408 0.63845 0.0
O393 O 0.87237 0.23447 0.65959 0.0
O394 O 0.89422 0.21935 0.59856 0.0
O395 O 0.93219 0.23675 0.66704 0.0
O396 O 0.90234 0.27364 0.64097 0.0
C397 C 0.79989 0.17588 0.68142 0.0
C398 C 0.86562 0.19972 0.74103 0.0
C399 C 0.83258 0.12324 0.69055 0.0
C400 C 0.87533 0.1959 0.5956 0.0
C401 C 0.92475 0.21446 0.67881 0.0
C402 C 0.88016 0.25908 0.65461 0.0
O403 O 0.80585 0.16938 0.70593 0.0
O404 O 0.81609 0.18285 0.65966 0.0
H405 H 0.26028 0.83495 0.96644 0.0
H406 H 0.40029 0.90517 0.04219 0.0
H407 H 0.2813 0.80526 0.04342 0.0
H408 H 0.38357 0.93397 0.96136 0.0
H409 H 0.35996 0.86296 0.03555 0.0
H410 H 0.30749 0.86536 0.9565 0.0
C411 C 0.27497 0.83439 0.98066 0.0
C412 C 0.26725 0.81807 0.00593 0.0
C413 C 0.3652 0.87822 0.01885 0.0
C414 C 0.32074 0.85272 0.99526 0.0
C415 C 0.38822 0.90226 0.02268 0.0
C416 C 0.3948 0.92286 0.00245 0.0
C417 C 0.34825 0.87511 0.99507 0.0
C418 C 0.37883 0.91839 0.97746 0.0
C419 C 0.30182 0.85173 0.97511 0.0
C420 C 0.28671 0.81788 0.02387 0.0
N421 N 0.35585 0.89506 0.97476 0.0
N422 N 0.31257 0.83527 0.01846 0.0
H423 H 0.19085 0.47215 0.02605 0.0
H424 H 0.04608 0.41293 0.9664 0.0
H425 H 0.14958 0.39951 0.97733 0.0
H426 H 0.08788 0.48731 0.01178 0.0
H427 H 0.08802 0.41416 0.95735 0.0
H428 H 0.15835 0.48418 0.0093 0.0
C429 C 0.17534 0.4592 0.01095 0.0
C430 C 0.17261 0.43489 0.00296 0.0
C431 C 0.08822 0.43057 0.96867 0.0
C432 C 0.13512 0.44797 0.98439 0.0
C433 C 0.06431 0.42988 0.97367 0.0
C434 C 0.06377 0.44993 0.99 0.0
C435 C 0.11151 0.45099 0.98109 0.0
C436 C 0.0877 0.47152 -0.00096 0.0
C437 C 0.15676 0.46596 0.00148 0.0
C438 C 0.15217 0.41846 0.98382 0.0
N439 N 0.11064 0.47118 0.99515 0.0
N440 N 0.13389 0.42511 0.97553 0.0
H441 H 0.58253 0.74868 0.97248 0.0
H442 H 0.52714 0.60112 0.02533 0.0
H443 H 0.53284 0.71546 0.05019 0.0
H444 H 0.56175 0.6303 0.93831 0.0
H445 H 0.52498 0.64152 0.0329 0.0
H446 H 0.57046 0.70407 0.95634 0.0
C447 C 0.56839 0.73185 0.98553 0.0
C448 C 0.55863 0.73541 0.01259 0.0
C449 C 0.53271 0.63886 0.01199 0.0
C450 C 0.54549 0.68479 0.99518 0.0
C451 C 0.53401 0.61587 0.00776 0.0
C452 C 0.5452 0.61268 0.98149 0.0
C453 C 0.54266 0.65861 0.98976 0.0
C454 C 0.55361 0.63227 0.95928 0.0
C455 C 0.56165 0.70645 0.97656 0.0
C456 C 0.5407 0.71322 0.02914 0.0
N457 N 0.55242 0.65448 0.96403 0.0
N458 N 0.53505 0.68881 0.02046 0.0
H459 H 0.83636 0.2605 0.04286 0.0
H460 H 0.92905 0.38516 0.96516 0.0
H461 H 0.81235 0.27563 0.95768 0.0
H462 H 0.91324 0.39057 0.05806 0.0
H463 H 0.88505 0.34625 0.96074 0.0
H464 H 0.86378 0.30839 0.05037 0.0
C465 C 0.83619 0.27397 0.02635 0.0
C466 C 0.82241 0.26452 -0.00036 0.0
C467 C 0.89072 0.35667 0.98177 0.0
C468 C 0.85364 0.31848 0.00756 0.0
C469 C 0.91565 0.379 0.98414 0.0
C470 C 0.92438 0.39099 0.01189 0.0
C471 C 0.87517 0.346 0.00762 0.0
C472 C 0.90682 0.38183 0.03623 0.0
C473 C 0.85171 0.30114 0.03055 0.0
C474 C 0.82296 0.28249 0.9785 0.0
N475 N 0.88328 0.35919 0.03386 0.0
N476 N 0.83892 0.3087 0.98254 0.0
H477 H 0.72365 0.52494 0.99094 0.0
H478 H 0.61953 0.56743 0.04539 0.0
H479 H 0.74659 0.59717 0.03791 0.0
H480 H 0.60782 0.51515 0.97227 0.0
H481 H 0.66231 0.57009 0.05574 0.0
H482 H 0.67709 0.51208 -0.00172 0.0
C483 C 0.71875 0.53757 0.00382 0.0
C484 C 0.73873 0.56197 0.01408 0.0
C485 C 0.65011 0.5577 0.03779 0.0
C486 C 0.68583 0.54795 0.02172 0.0
C487 C 0.62582 0.55618 0.03193 0.0
C488 C 0.61061 0.54141 0.00766 0.0
C489 C 0.65869 0.54384 0.01962 0.0
C490 C 0.61935 0.52711 0.99083 0.0
C491 C 0.69227 0.53042 0.00773 0.0
C492 C 0.73157 0.57807 0.02999 0.0
N493 N 0.64285 0.52872 0.99707 0.0
N494 N 0.70561 0.57093 0.03304 0.0
H495 H 0.45246 0.16952 0.95114 0.0
H496 H 0.46447 0.07446 0.06885 0.0
H497 H 0.43622 0.16777 0.04536 0.0
H498 H 0.46238 0.06292 0.97371 0.0
H499 H 0.46803 0.11728 0.06064 0.0
H500 H 0.46891 0.13893 0.95957 0.0
C501 C 0.45249 0.16269 0.97364 0.0
C502 C 0.44238 0.17045 0.99755 0.0
C503 C 0.46726 0.10567 0.0415 0.0
C504 C 0.46124 0.13583 0.0073 0.0
C505 C 0.46532 0.08133 0.04615 0.0
C506 C 0.46272 0.06523 0.02187 0.0
C507 C 0.46608 0.11368 0.01234 0.0
C508 C 0.46422 0.07488 0.99293 0.0
C509 C 0.46199 0.14542 0.97842 0.0
C510 C 0.44356 0.16188 0.02636 0.0
N511 N 0.46526 0.09843 0.98891 0.0
N512 N 0.45246 0.14464 0.0304 0.0
H513 H 0.68526 0.18581 0.01074 0.0
H514 H 0.58759 0.0305 0.01812 0.0
H515 H 0.71009 0.1278 0.01641 0.0
H516 H 0.56021 0.08596 0.00569 0.0
H517 H 0.63204 0.06688 0.02714 0.0
H518 H 0.63913 0.15059 0.01687 0.0
C519 C 0.68094 0.16566 0.01364 0.0
C520 C 0.7013 0.15954 0.01273 0.0
C521 C 0.61636 0.07124 0.02283 0.0
C522 C 0.64896 0.11942 0.02 0.0
C523 C 0.591 0.05047 0.01782 0.0
C524 C 0.57052 0.05545 0.01093 0.0
C525 C 0.62138 0.09723 0.02032 0.0
C526 C 0.57567 0.0815 0.01097 0.0
C527 C 0.6547 0.14564 0.01713 0.0
C528 C 0.69489 0.13328 0.01656 0.0
N529 N 0.60084 0.1016 0.01506 0.0
N530 N 0.66924 0.11416 0.0199 0.0
H531 H 0.87642 0.58022 0.01005 0.0
H532 H 0.91713 0.47051 0.03968 0.0
H533 H 0.82026 0.50295 0.04389 0.0
H534 H 0.95788 0.53563 0.9782 0.0
H535 H 0.88383 0.48404 0.04809 0.0
H536 H 0.90941 0.5665 0.00577 0.0
C537 C 0.87103 0.56037 0.01678 0.0
C538 C 0.84547 0.5426 0.02721 0.0
C539 C 0.90011 0.4953 0.0328 0.0
C540 C 0.8833 0.52676 0.02227 0.0
C541 C 0.91908 0.48765 0.02806 0.0
C542 C 0.94014 0.50189 0.00808 0.0
C543 C 0.90269 0.51767 0.01798 0.0
C544 C 0.94178 0.52391 0.99353 0.0
C545 C 0.8899 0.55252 0.01421 0.0
C546 C 0.83977 0.51721 0.03575 0.0
N547 N 0.92343 0.5312 -0.00109 0.0
N548 N 0.85855 0.50997 0.03304 0.0
H549 H 0.47163 0.29886 0.03578 0.0
H550 H 0.4985 0.43844 0.97497 0.0
H551 H 0.4633 0.31437 0.94342 0.0
H552 H 0.51101 0.42352 0.06615 0.0
H553 H 0.48976 0.39425 0.96165 0.0
H554 H 0.48995 0.34569 0.0465 0.0
C555 C 0.47374 0.31219 0.01779 0.0
C556 C 0.46584 0.30297 0.98875 0.0
C557 C 0.49482 0.40081 0.98448 0.0
C558 C 0.48657 0.35623 0.00071 0.0
C559 C 0.49991 0.42602 0.992 0.0
C560 C 0.5051 0.4343 0.02171 0.0
C561 C 0.49511 0.38407 0.00688 0.0
C562 C 0.50659 0.41757 0.04306 0.0
C563 C 0.48426 0.33889 0.02384 0.0
C564 C 0.46916 0.32092 0.96613 0.0
N565 N 0.50142 0.39313 0.03527 0.0
N566 N 0.47908 0.34673 0.97262 0.0
H567 H 0.16113 0.69693 0.97606 0.0
H568 H 0.06455 0.55485 0.044 0.0
H569 H 0.13675 0.68151 0.06847 0.0
H570 H 0.08455 0.57071 0.95048 0.0
H571 H 0.10005 0.5995 0.05543 0.0
H572 H 0.14117 0.64946 0.96801 0.0
C573 C 0.15173 0.68353 0.99466 0.0
C574 C 0.15008 0.69288 0.02284 0.0
C575 C 0.09691 0.59302 0.03245 0.0
C576 C 0.12751 0.63894 0.01398 0.0
C577 C 0.07675 0.56755 0.026 0.0
C578 C 0.07112 0.5596 0.99625 0.0
C579 C 0.11122 0.61037 0.00891 0.0
C580 C 0.08773 0.57652 0.97369 0.0
C581 C 0.14048 0.65649 0.99014 0.0
C582 C 0.13797 0.67487 0.04629 0.0
N583 N 0.10674 0.60133 0.98043 0.0
N584 N 0.12692 0.6487 0.04129 0.0
H585 H 0.31416 0.46496 0.07802 0.0
H586 H 0.42989 0.48232 0.96945 0.0
H587 H 0.29878 0.44356 0.9852 0.0
H588 H 0.44027 0.51628 0.05707 0.0
H589 H 0.38268 0.46973 0.97161 0.0
H590 H 0.36106 0.48449 0.06855 0.0
C591 C 0.32079 0.4645 0.0555 0.0
C592 C 0.3027 0.45269 0.03241 0.0
C593 C 0.3955 0.48037 0.99004 0.0
C594 C 0.35673 0.47508 0.02113 0.0
C595 C 0.42234 0.48764 0.98875 0.0
C596 C 0.43867 0.49992 0.01336 0.0
C597 C 0.38538 0.48562 0.01607 0.0
C598 C 0.42816 0.50639 0.03788 0.0
C599 C 0.34765 0.47579 0.05 0.0
C600 C 0.31226 0.45255 0.00362 0.0
N601 N 0.40222 0.49898 0.03867 0.0
N602 N 0.33881 0.46347 -0.00125 0.0
H603 H 0.4879 0.80226 0.01424 0.0
H604 H 0.52402 0.95081 0.03968 0.0
H605 H 0.56464 0.86562 0.03988 0.0
H606 H 0.46059 0.89624 0.98369 0.0
H607 H 0.52964 0.91455 0.05825 0.0
H608 H 0.47004 0.83213 0.01934 0.0
C609 C 0.50092 0.82243 0.02106 0.0
C610 C 0.52778 0.83164 0.0262 0.0
C611 C 0.51375 0.91031 0.04285 0.0
C612 C 0.50753 0.86561 0.0325 0.0
C613 C 0.51022 0.93088 0.03269 0.0
C614 C 0.49192 0.92629 0.01012 0.0
C615 C 0.49873 0.8852 0.03026 0.0
C616 C 0.47489 0.90037 0.00117 0.0
C617 C 0.4907 0.83934 0.02419 0.0
C618 C 0.54382 0.85779 0.03543 0.0
N619 N 0.47907 0.88075 0.0108 0.0
N620 N 0.53347 0.87396 0.03802 0.0
H621 H 0.94894 0.1399 0.37279 0.0
H622 H 0.04118 0.27936 0.30074 0.0
H623 H 0.92293 0.1742 0.30526 0.0
H624 H 0.06916 0.24078 0.3602 0.0
H625 H 0.00035 0.2373 0.29347 0.0
H626 H -0.00506 0.17227 0.36074 0.0
C627 C 0.95311 0.15392 0.35486 0.0
C628 C 0.93246 0.15468 0.33999 0.0
C629 C 0.01562 0.23782 0.30759 0.0
C630 C 0.98467 0.19209 0.32655 0.0
C631 C 0.03889 0.26177 0.31159 0.0
C632 C 0.05826 0.26325 0.33105 0.0
C633 C 0.01147 0.21555 0.32403 0.0
C634 C 0.05457 0.24018 0.34486 0.0
C635 C 0.97928 0.17242 0.34799 0.0
C636 C 0.93853 0.17319 0.31713 0.0
N637 N 0.03132 0.21732 0.34159 0.0
N638 N 0.96416 0.19151 0.31141 0.0
H639 H 0.80574 0.72008 0.3213 0.0
H640 H 0.75409 0.82016 0.34117 0.0
H641 H 0.85784 0.80299 0.33587 0.0
H642 H 0.70532 0.73818 0.31879 0.0
H643 H 0.79359 0.81732 0.3281 0.0
H644 H 0.77055 0.72902 0.30774 0.0
C645 C 0.80994 0.74031 0.32057 0.0
C646 C 0.83448 0.76084 0.32975 0.0
C647 C 0.77421 0.80016 0.32526 0.0
C648 C 0.79414 0.77125 0.31569 0.0
C649 C 0.75174 0.80182 0.33265 0.0
C650 C 0.72667 0.7792 0.33147 0.0
C651 C 0.77129 0.77575 0.31658 0.0
C652 C 0.72447 0.75587 0.32049 0.0
C653 C 0.78983 0.74547 0.31308 0.0
C654 C 0.83904 0.78671 0.32883 0.0
N655 N 0.74649 0.75466 0.31378 0.0
N656 N 0.81879 0.79117 0.32266 0.0
H657 H 0.18611 0.05457 0.34609 0.0
H658 H 0.20197 0.93294 0.37682 0.0
H659 H 0.26078 0.05657 0.35575 0.0
H660 H 0.18162 0.93735 0.28555 0.0
H661 H 0.19842 0.97193 0.38808 0.0
H662 H 0.16433 0.00652 0.33847 0.0
C663 C 0.19797 0.04506 0.34615 0.0
C664 C 0.22528 0.0595 0.35201 0.0
C665 C 0.19311 0.96332 0.36604 0.0
C666 C 0.20036 0.00519 0.34514 0.0
C667 C 0.1949 0.94099 0.35969 0.0
C668 C 0.19255 0.93252 0.33017 0.0
C669 C 0.18887 0.97675 0.34265 0.0
C670 C 0.18385 0.94377 0.30854 0.0
C671 C 0.18544 0.01775 0.34234 0.0
C672 C 0.23963 0.04616 0.35204 0.0
N673 N 0.18322 0.96609 0.31492 0.0
N674 N 0.22692 0.01968 0.34916 0.0
H675 H 0.49061 0.6017 0.28783 0.0
H676 H 0.57196 0.7184 0.4008 0.0
H677 H 0.499 0.58987 0.38134 0.0
H678 H 0.59845 0.71804 0.31101 0.0
H679 H 0.53121 0.67693 0.39094 0.0
H680 H 0.51699 0.6493 0.29477 0.0
C681 C 0.49781 0.60924 0.30995 0.0
C682 C 0.49341 0.592 0.33398 0.0
C683 C 0.54553 0.68645 0.37312 0.0
C684 C 0.52264 0.64618 0.34205 0.0
C685 C 0.5685 0.71018 0.37854 0.0
C686 C 0.58825 0.72145 0.35659 0.0
C687 C 0.54254 0.6741 0.34559 0.0
C688 C 0.58336 0.71 0.32828 0.0
C689 C 0.51264 0.6363 0.31382 0.0
C690 C 0.50232 0.60259 0.36229 0.0
N691 N 0.56104 0.68651 0.32368 0.0
N692 N 0.5169 0.6292 0.36553 0.0
H693 H 0.41544 0.91443 0.38145 0.0
H694 H 0.26391 0.84067 0.33207 0.0
H695 H 0.3852 0.86605 0.30312 0.0
H696 H 0.30117 0.91338 0.38132 0.0
H697 H 0.30468 0.83844 0.33586 0.0
H698 H 0.36996 0.90248 0.3955 0.0
C699 C 0.39914 0.90075 0.3677 0.0
C700 C 0.40391 0.89145 0.34093 0.0
C701 C 0.30363 0.85444 0.34661 0.0
C702 C 0.35229 0.87775 0.35675 0.0
C703 C 0.28036 0.85562 0.34466 0.0
C704 C 0.27944 0.87738 0.35619 0.0
C705 C 0.32584 0.87496 0.36059 0.0
C706 C 0.30133 0.89645 0.37191 0.0
C707 C 0.37331 0.89405 0.37561 0.0
C708 C 0.38224 0.87385 0.32375 0.0
N709 N 0.3238 0.89494 0.37343 0.0
N710 N 0.35736 0.86776 0.33179 0.0
H711 H 0.11086 0.50583 0.37451 0.0
H712 H 0.12258 0.39196 0.30533 0.0
H713 H 0.11389 0.4982 0.27901 0.0
H714 H 0.15202 0.42157 0.39307 0.0
H715 H 0.12614 0.43425 0.2924 0.0
H716 H 0.13093 0.47806 0.38078 0.0
C717 C 0.11604 0.49853 0.35491 0.0
C718 C 0.11006 0.50359 0.32629 0.0
C719 C 0.13291 0.43196 0.31408 0.0
C720 C 0.13307 0.47213 0.33311 0.0
C721 C 0.13118 0.40794 0.32125 0.0
C722 C 0.13688 0.40356 0.35027 0.0
C723 C 0.13982 0.45111 0.33642 0.0
C724 C 0.14736 0.42446 0.37048 0.0
C725 C 0.12765 0.48286 0.35842 0.0
C726 C 0.11733 0.4939 0.30153 0.0
N727 N 0.14784 0.44721 0.36348 0.0
N728 N 0.12807 0.47825 0.30551 0.0
H729 H 0.35378 0.50861 0.29099 0.0
H730 H 0.23876 0.38421 0.3776 0.0
H731 H 0.36993 0.46592 0.35847 0.0
H732 H 0.22876 0.41736 0.29602 0.0
H733 H 0.28549 0.41931 0.37873 0.0
H734 H 0.3066 0.48088 0.3008 0.0
C735 C 0.3473 0.4934 0.308 0.0
C736 C 0.36562 0.48928 0.32365 0.0
C737 C 0.2729 0.41914 0.36093 0.0
C738 C 0.31162 0.45721 0.33486 0.0
C739 C 0.2463 0.39931 0.3604 0.0
C740 C 0.23018 0.39805 0.33658 0.0
C741 C 0.28304 0.43786 0.33769 0.0
C742 C 0.24073 0.41767 0.3146 0.0
C743 C 0.32039 0.47758 0.31362 0.0
C744 C 0.35632 0.46955 0.34576 0.0
N745 N 0.26651 0.43673 0.31565 0.0
N746 N 0.32981 0.45396 0.35052 0.0
H747 H 0.49257 0.84605 0.39305 0.0
H748 H 0.61162 0.85509 0.29579 0.0
H749 H 0.53674 0.90684 0.32758 0.0
H750 H 0.59119 0.81611 0.38176 0.0
H751 H 0.5785 0.86819 0.30337 0.0
H752 H 0.52382 0.82969 0.38624 0.0
C753 C 0.5089 0.85601 0.37745 0.0
C754 C 0.51214 0.87787 0.36102 0.0
C755 C 0.58121 0.85674 0.32059 0.0
C756 C 0.54736 0.85909 0.35272 0.0
C757 C 0.60006 0.84912 0.31623 0.0
C758 C 0.6044 0.83465 0.33831 0.0
C759 C 0.56633 0.84973 0.34711 0.0
C760 C 0.58862 0.8274 0.36425 0.0
C761 C 0.52662 0.84668 0.37356 0.0
C762 C 0.53348 0.89001 0.3409 0.0
N763 N 0.57025 0.83506 0.36799 0.0
N764 N 0.55012 0.88035 0.33721 0.0
H765 H 0.12954 0.64474 0.27038 0.0
H766 H 0.17558 0.75582 0.39483 0.0
H767 H 0.13634 0.63156 0.36392 0.0
H768 H 0.16062 0.76766 0.30345 0.0
H769 H 0.16782 0.71216 0.38204 0.0
H770 H 0.1466 0.69145 0.28052 0.0
C771 C 0.13485 0.65183 0.29302 0.0
C772 C 0.1314 0.63448 0.31639 0.0
C773 C 0.16633 0.72428 0.36471 0.0
C774 C 0.15095 0.68757 0.32814 0.0
C775 C 0.17073 0.74916 0.37198 0.0
C776 C 0.1683 0.76501 0.35017 0.0
C777 C 0.1591 0.71508 0.33549 0.0
C778 C 0.16257 0.75586 0.32084 0.0
C779 C 0.14456 0.6784 0.29879 0.0
C780 C 0.13851 0.64437 0.34534 0.0
N781 N 0.15777 0.73121 0.31438 0.0
N782 N 0.1479 0.67036 0.35043 0.0
H783 H 0.80301 0.03239 0.36067 0.0
H784 H 0.762 0.89075 0.30594 0.0
H785 H 0.85948 0.01438 0.32044 0.0
H786 H 0.71775 0.90487 0.37337 0.0
H787 H 0.79951 0.93489 0.31398 0.0
H788 H 0.77248 0.98551 0.36764 0.0
C789 C 0.80902 0.01856 0.35329 0.0
C790 C 0.83363 0.02718 0.33941 0.0
C791 C 0.78193 0.92815 0.32767 0.0
C792 C 0.79878 0.97348 0.34758 0.0
C793 C 0.76064 0.90298 0.32318 0.0
C794 C 0.73708 0.89445 0.33918 0.0
C795 C 0.77918 0.94506 0.34763 0.0
C796 C 0.73583 0.91089 0.36089 0.0
C797 C 0.79166 -0.00823 0.35761 0.0
C798 C 0.8405 0.0084 0.33082 0.0
N799 N 0.75649 0.93577 0.36409 0.0
N800 N 0.82298 0.98232 0.33467 0.0
H801 H 0.98042 0.79399 0.41136 0.0
H802 H 0.0989 0.82284 0.30128 0.0
H803 H 0.96825 0.78877 0.31616 0.0
H804 H 0.10739 0.84844 0.39275 0.0
H805 H 0.05174 0.81039 0.30356 0.0
H806 H 0.02739 0.81216 0.40307 0.0
C807 C 0.98777 0.79685 0.3886 0.0
C808 C 0.97055 0.79007 0.36447 0.0
C809 C 0.06414 0.81917 0.32287 0.0
C810 C 0.02468 0.81117 0.35457 0.0
C811 C 0.09097 0.82638 0.32155 0.0
C812 C 0.10677 0.83619 0.34709 0.0
C813 C 0.05344 0.82193 0.34991 0.0
C814 C 0.09572 0.84042 0.37278 0.0
C815 C 0.01466 0.80737 0.38382 0.0
C816 C 0.98102 0.79385 0.33538 0.0
N817 N 0.06977 0.83305 0.37359 0.0
N818 N 0.00759 0.80416 0.33117 0.0
H819 H 0.20797 0.16588 0.32217 0.0
H820 H 0.17116 0.27312 0.37842 0.0
H821 H 0.21055 0.18798 0.41443 0.0
H822 H 0.17471 0.25486 0.28581 0.0
H823 H 0.17921 0.23733 0.39284 0.0
H824 H 0.18964 0.19404 0.30904 0.0
C825 C 0.20462 0.17664 0.33965 0.0
C826 C 0.211 0.17498 0.36937 0.0
C827 C 0.17799 0.24104 0.36937 0.0
C828 C 0.19016 0.20711 0.35462 0.0
C829 C 0.17336 0.26139 0.36119 0.0
C830 C 0.17288 0.26719 0.33095 0.0
C831 C 0.18192 0.22646 0.34708 0.0
C832 C 0.17561 0.25137 0.30941 0.0
C833 C 0.19409 0.19264 0.33219 0.0
C834 C 0.20602 0.18901 0.39122 0.0
N835 N 0.1802 0.23182 0.3179 0.0
N836 N 0.19606 0.2047 0.38338 0.0
H837 H 0.61415 0.47778 0.71045 0.0
H838 H 0.71892 0.6009 0.61935 0.0
H839 H 0.59537 0.50572 0.63033 0.0
H840 H 0.73791 0.5681 0.69504 0.0
H841 H 0.67643 0.56009 0.615 0.0
H842 H 0.66115 0.50455 0.69852 0.0
C843 C 0.62011 0.48939 0.69005 0.0
C844 C 0.60121 0.49003 0.67149 0.0
C845 C 0.69018 0.5614 0.63199 0.0
C846 C 0.65479 0.52093 0.65776 0.0
C847 C 0.71452 0.58456 0.63422 0.0
C848 C 0.73175 0.58759 0.65745 0.0
C849 C 0.68286 0.54164 0.65381 0.0
C850 C 0.72513 0.56626 0.67662 0.0
C851 C 0.64687 0.50458 0.68316 0.0
C852 C 0.60958 0.50504 0.64524 0.0
N853 N 0.70088 0.54435 0.67483 0.0
N854 N 0.6359 0.52034 0.63937 0.0
H855 H 0.52836 0.14599 0.67676 0.0
H856 H 0.37426 0.07048 0.65461 0.0
H857 H 0.48195 0.0638 0.65453 0.0
H858 H 0.41973 0.15424 0.66924 0.0
H859 H 0.41485 0.07011 0.64269 0.0
H860 H 0.4912 0.15213 0.66251 0.0
C861 C 0.51063 0.12952 0.66773 0.0
C862 C 0.50798 0.10443 0.66658 0.0
C863 C 0.41608 0.08873 0.64793 0.0
C864 C 0.46534 0.11091 0.65132 0.0
C865 C 0.39289 0.08891 0.65471 0.0
C866 C 0.39387 0.11235 0.66322 0.0
C867 C 0.44053 0.11206 0.65059 0.0
C868 C 0.41832 0.13576 0.66282 0.0
C869 C 0.48938 0.13292 0.65983 0.0
C870 C 0.48462 0.08347 0.65543 0.0
N871 N 0.44086 0.13494 0.65732 0.0
N872 N 0.464 0.08708 0.64868 0.0
H873 H 0.86722 0.37797 0.74076 0.0
H874 H 0.85708 0.27717 0.61694 0.0
H875 H 0.88485 0.39663 0.6473 0.0
H876 H 0.86983 0.2701 0.7103 0.0
H877 H 0.84764 0.31247 0.62861 0.0
H878 H 0.84997 0.3314 0.72966 0.0
C879 C 0.86702 0.37213 0.7178 0.0
C880 C 0.87811 0.3911 0.69495 0.0
C881 C 0.8516 0.3026 0.64667 0.0
C882 C 0.85814 0.33803 0.68217 0.0
C883 C 0.85669 0.28233 0.64008 0.0
C884 C 0.86427 0.27102 0.66276 0.0
C885 C 0.85456 0.31171 0.67606 0.0
C886 C 0.86388 0.27839 0.69232 0.0
C887 C 0.85707 0.3456 0.71152 0.0
C888 C 0.87675 0.38258 0.66553 0.0
N889 N 0.85972 0.29882 0.69812 0.0
N890 N 0.86738 0.35659 0.66001 0.0
H891 H 0.16311 0.92935 0.70481 0.0
H892 H 0.26688 0.05617 0.63312 0.0
H893 H 0.15551 0.94423 0.61207 0.0
H894 H 0.2415 0.05771 0.7231 0.0
H895 H 0.22396 0.0172 0.62338 0.0
H896 H 0.18989 0.97714 0.71271 0.0
C897 C 0.16657 0.94273 0.68637 0.0
C898 C 0.15776 0.93307 0.65767 0.0
C899 C 0.2273 0.02673 0.64488 0.0
C900 C 0.18811 0.98718 0.66631 0.0
C901 C 0.25164 0.04915 0.65025 0.0
C902 C 0.25741 0.06002 0.67882 0.0
C903 C 0.20927 0.01486 0.66863 0.0
C904 C 0.23746 0.04981 0.70069 0.0
C905 C 0.1817 0.9699 0.69083 0.0
C906 C 0.16265 0.95107 0.63438 0.0
N907 N 0.21449 0.02715 0.69551 0.0
N908 N 0.17801 0.97728 0.63905 0.0
H909 H 0.08102 0.24584 0.71499 0.0
H910 H 0.93009 0.17252 0.66311 0.0
H911 H 0.05135 0.19528 0.63825 0.0
H912 H 0.9667 0.24391 0.7147 0.0
H913 H 0.97069 0.16992 0.6673 0.0
H914 H 0.03552 0.23432 0.72802 0.0
C915 C 0.06483 0.23175 0.70141 0.0
C916 C 0.0698 0.22166 0.67539 0.0
C917 C 0.96953 0.18571 0.67846 0.0
C918 C 0.01805 0.20852 0.68999 0.0
C919 C 0.94633 0.18705 0.6763 0.0
C920 C 0.9453 0.20855 0.68846 0.0
C921 C 0.99154 0.20583 0.6932 0.0
C922 C 0.96694 0.22715 0.70488 0.0
C923 C 0.03896 0.22531 0.70872 0.0
C924 C 0.04824 0.20365 0.65834 0.0
N925 N 0.98932 0.22551 0.70656 0.0
N926 N 0.0233 0.19784 0.66576 0.0
H927 H 0.7846 0.83374 0.6158 0.0
H928 H 0.80406 0.74115 0.73059 0.0
H929 H 0.77206 0.83253 0.71086 0.0
H930 H 0.79175 0.72559 0.63641 0.0
H931 H 0.80824 0.78437 0.72241 0.0
H932 H 0.80147 0.80332 0.62251 0.0
C933 C 0.78544 0.82701 0.63811 0.0
C934 C 0.77629 0.83496 0.66278 0.0
C935 C 0.8054 0.77187 0.70339 0.0
C936 C 0.79588 0.80063 0.67059 0.0
C937 C 0.80334 0.74741 0.70799 0.0
C938 C 0.79756 0.73006 0.68409 0.0
C939 C 0.80125 0.77871 0.67473 0.0
C940 C 0.7964 0.73866 0.65529 0.0
C941 C 0.79525 0.80988 0.64191 0.0
C942 C 0.77863 0.82652 0.69129 0.0
N943 N 0.79769 0.76232 0.65143 0.0
N944 N 0.78788 0.80945 0.6944 0.0
H945 H 0.04313 0.8187 0.70529 0.0
H946 H 0.89389 0.75018 0.64975 0.0
H947 H 0.01827 0.80526 0.61337 0.0
H948 H 0.91621 0.7229 0.72777 0.0
H949 H 0.93935 0.78676 0.64515 0.0
H950 H -0.00362 0.79773 0.72092 0.0
C951 C 0.02787 0.81157 0.68845 0.0
C952 C 0.03437 0.81343 0.658 0.0
C953 C 0.934 0.77343 0.66404 0.0
C954 C 0.98153 0.79049 0.67561 0.0
C955 C 0.90802 0.75286 0.66697 0.0
C956 C 0.90154 0.73368 0.68916 0.0
C957 C 0.95332 0.77479 0.68368 0.0
C958 C 0.92063 0.73748 0.71044 0.0
C959 C 0.00136 0.7998 0.69737 0.0
C960 C 0.01397 0.804 0.63705 0.0
N961 N 0.94595 0.75744 0.7069 0.0
N962 N 0.98844 0.79292 0.64624 0.0
H963 H 0.15816 0.17582 0.72554 0.0
H964 H 0.28333 0.1942 0.63327 0.0
H965 H 0.20615 0.24303 0.66898 0.0
H966 H 0.25759 0.14735 0.71401 0.0
H967 H 0.2504 0.20748 0.64199 0.0
H968 H 0.19046 0.16087 0.71833 0.0
C969 C 0.17557 0.1875 0.71187 0.0
C970 C 0.17952 0.21069 0.69795 0.0
C971 C 0.25193 0.19428 0.65781 0.0
C972 C 0.21602 0.19357 0.68919 0.0
C973 C 0.27063 0.18655 0.65277 0.0
C974 C 0.2733 0.1697 0.67302 0.0
C975 C 0.23547 0.1849 0.68311 0.0
C976 C 0.25628 0.16049 0.69792 0.0
C977 C 0.1939 0.17897 0.70774 0.0
C978 C 0.20226 0.22506 0.68024 0.0
N979 N 0.23799 0.16816 0.70226 0.0
N980 N 0.21952 0.21615 0.67622 0.0
H981 H 0.79965 0.9771 0.60795 0.0
H982 H 0.83841 0.09065 0.72817 0.0
H983 H 0.80441 0.96638 0.70255 0.0
H984 H 0.82286 0.09898 0.63591 0.0
H985 H 0.83118 0.04678 0.71776 0.0
H986 H 0.81217 0.02306 0.61666 0.0
C987 C 0.80355 0.98459 0.63055 0.0
C988 C 0.80106 0.96815 0.65458 0.0
C989 C 0.82934 0.05811 0.69973 0.0
C990 C 0.8155 0.02049 0.6647 0.0
C991 C 0.83349 0.08314 0.70563 0.0
C992 C 0.83089 0.09816 0.68286 0.0
C993 C 0.82226 0.04789 0.67088 0.0
C994 C 0.82502 0.08789 0.65398 0.0
C995 C 0.81063 0.01073 0.6355 0.0
C996 C 0.80605 0.9785 0.68346 0.0
N997 N 0.82059 0.06313 0.64883 0.0
N998 N 0.81311 0.00412 0.68772 0.0
H999 H 0.49746 0.365 0.64556 0.0
H1000 H 0.39567 0.22414 0.71228 0.0
H1001 H 0.48572 0.34927 0.7402 0.0
H1002 H 0.41932 0.23878 0.6196 0.0
H1003 H 0.43152 0.26865 0.72418 0.0
H1004 H 0.47122 0.31778 0.63618 0.0
C1005 C 0.48941 0.35155 0.66435 0.0
C1006 C 0.49336 0.36086 0.69367 0.0
C1007 C 0.42908 0.2619 0.70132 0.0
C1008 C 0.46337 0.30697 0.68323 0.0
C1009 C 0.40874 0.23652 0.69461 0.0
C1010 C 0.40428 0.22814 0.66489 0.0
C1011 C 0.44483 0.27873 0.67808 0.0
C1012 C 0.42173 0.2448 0.64274 0.0
C1013 C 0.47455 0.32459 0.65904 0.0
C1014 C 0.48279 0.34268 0.71725 0.0
N1015 N 0.44102 0.26942 0.64973 0.0
N1016 N 0.46799 0.31654 0.71153 0.0
H1017 H 0.64097 0.10663 0.73166 0.0
H1018 H 0.76907 0.16272 0.63108 0.0
H1019 H 0.63586 0.11185 0.63622 0.0
H1020 H 0.76978 0.18022 0.72463 0.0
H1021 H 0.72115 0.14623 0.63029 0.0
H1022 H 0.68888 0.13457 0.72826 0.0
C1023 C 0.65012 0.11367 0.70995 0.0
C1024 C 0.63476 0.10695 0.6842 0.0
C1025 C 0.73197 0.15428 0.65077 0.0
C1026 C 0.68954 0.13861 0.67988 0.0
C1027 C 0.75928 0.1638 0.65119 0.0
C1028 C 0.77318 0.17233 0.67813 0.0
C1029 C 0.71877 0.1533 0.67749 0.0
C1030 C 0.75965 0.17328 0.70356 0.0
C1031 C 0.6774 0.12979 0.70797 0.0
C1032 C 0.64729 0.11675 0.65655 0.0
N1033 N 0.73317 0.16351 0.70272 0.0
N1034 N 0.67415 0.13183 0.655 0.0
H1035 H 0.85442 0.48884 0.66443 0.0
H1036 H 0.83535 0.6082 0.71481 0.0
H1037 H 0.89856 0.54505 0.73313 0.0
H1038 H 0.81102 0.56988 0.62958 0.0
H1039 H 0.84211 0.57243 0.73234 0.0
H1040 H 0.82526 0.50771 0.66079 0.0
C1041 C 0.85778 0.50496 0.67896 0.0
C1042 C 0.8791 0.51574 0.69884 0.0
C1043 C 0.83429 0.57132 0.71017 0.0
C1044 C 0.84559 0.53688 0.69527 0.0
C1045 C 0.82991 0.59148 0.70036 0.0
C1046 C 0.82338 0.59224 0.67046 0.0
C1047 C 0.83186 0.55196 0.68988 0.0
C1048 C 0.81658 0.57012 0.65266 0.0
C1049 C 0.84106 0.51558 0.67701 0.0
C1050 C 0.88253 0.53649 0.71724 0.0
N1051 N 0.82183 0.55121 0.66229 0.0
N1052 N 0.86605 0.5465 0.71489 0.0
H1053 H 0.50385 0.97134 0.2663 0.0
H1054 H 0.45677 0.93618 0.09678 0.0
H1055 H 0.43284 0.90112 0.23923 0.0
H1056 H 0.51002 0.01539 0.1258 0.0
H1057 H 0.45506 0.92037 0.14793 0.0
H1058 H 0.51255 0.98573 0.21387 0.0
C1059 C 0.49014 0.95898 0.24931 0.0
C1060 C 0.46752 0.9351 0.25703 0.0
C1061 C 0.4677 0.94112 0.14295 0.0
C1062 C 0.47756 0.9511 0.19732 0.0
C1063 C 0.46904 0.95002 0.11373 0.0
C1064 C 0.48399 0.97696 0.10724 0.0
C1065 C 0.48154 0.95936 0.16561 0.0
C1066 C 0.49868 -0.00562 0.13006 0.0
C1067 C 0.49511 0.96717 0.21949 0.0
C1068 C 0.45032 0.91983 0.23424 0.0
N1069 N 0.49702 0.98531 0.15838 0.0
N1070 N 0.45574 0.92805 0.20541 0.0
H1071 H 0.07653 0.55935 0.24304 0.0
H1072 H 0.98887 0.43778 0.1387 0.0
H1073 H 0.02326 0.48058 0.27512 0.0
H1074 H 0.03655 0.51699 0.10445 0.0
H1075 H -0.00238 0.45468 0.18907 0.0
H1076 H 0.0579 0.54618 0.19318 0.0
C1077 C 0.06031 0.53948 0.23979 0.0
C1078 C 0.05148 0.52092 0.26317 0.0
C1079 C 0.00609 0.4685 0.17067 0.0
C1080 C 0.03061 0.50561 0.20607 0.0
C1081 C 0.00125 0.45884 0.14177 0.0
C1082 C 0.0124 0.47598 0.11727 0.0
C1083 C 0.02249 0.49557 0.17539 0.0
C1084 C 0.02778 0.50309 0.12272 0.0
C1085 C 0.04988 0.53192 0.21123 0.0
C1086 C 0.0308 0.49537 0.2576 0.0
N1087 N 0.03269 0.51206 0.15132 0.0
N1088 N 0.0213 0.48838 0.22952 0.0
H1089 H 0.46217 0.49249 0.24847 0.0
H1090 H 0.55741 0.57694 0.11648 0.0
H1091 H 0.50401 0.57777 0.24965 0.0
H1092 H 0.48365 0.50615 0.09897 0.0
H1093 H 0.54269 0.57582 0.16838 0.0
H1094 H 0.47417 0.49462 0.19543 0.0
C1095 C 0.47397 0.51156 0.2379 0.0
C1096 C 0.48264 0.53491 0.25414 0.0
C1097 C 0.52961 0.56081 0.15293 0.0
C1098 C 0.49668 0.53738 0.19392 0.0
C1099 C 0.53789 0.56164 0.12343 0.0
C1100 C 0.52137 0.54203 0.10354 0.0
C1101 C 0.50512 0.53972 0.16251 0.0
C1102 C 0.49658 0.52198 0.11364 0.0
C1103 C 0.4808 0.51274 0.20769 0.0
C1104 C 0.49781 0.55909 0.23891 0.0
N1105 N 0.48928 0.52112 0.14259 0.0
N1106 N 0.50456 0.55966 0.2099 0.0
H1107 H 0.91633 0.47508 0.78701 0.0
H1108 H 0.0084 0.44472 0.89157 0.0
H1109 H 0.96169 0.44068 0.75341 0.0
H1110 H 0.9469 0.45862 0.92456 0.0
H1111 H -0.00632 0.44497 0.84043 0.0
H1112 H 0.93205 0.4744 0.83721 0.0
C1113 C 0.93012 0.46798 0.7901 0.0
C1114 C 0.93762 0.45778 0.76609 0.0
C1115 C 0.98318 0.44759 0.85889 0.0
C1116 C 0.95496 0.45612 0.82355 0.0
C1117 C 0.99136 0.44711 0.88799 0.0
C1118 C 0.97861 0.45132 0.91215 0.0
C1119 C 0.9626 0.45302 0.85406 0.0
C1120 C 0.95692 0.4548 0.90651 0.0
C1121 C 0.93871 0.46715 0.81883 0.0
C1122 C 0.95525 0.44847 0.77144 0.0
N1123 N 0.94984 0.45597 0.87798 0.0
N1124 N 0.96319 0.44768 0.79968 0.0
H1125 H 0.57841 0.48523 0.76693 0.0
H1126 H 0.48343 0.49185 0.89025 0.0
H1127 H 0.49787 0.46483 0.74845 0.0
H1128 H 0.55927 0.49962 0.90947 0.0
H1129 H 0.48645 0.47862 0.83916 0.0
H1130 H 0.57106 0.48988 0.81946 0.0
C1131 C 0.55928 0.48222 0.77387 0.0
C1132 C 0.53885 0.47509 0.7532 0.0
C1133 C 0.50218 0.48265 0.8547 0.0
C1134 C 0.53001 0.47959 0.81368 0.0
C1135 C 0.50028 0.48985 0.88386 0.0
C1136 C 0.52092 0.49629 0.90393 0.0
C1137 C 0.52528 0.48276 0.8455 0.0
C1138 C 0.54271 0.49416 0.89468 0.0
C1139 C 0.55496 0.48444 0.80399 0.0
C1140 C 0.51419 0.47054 0.76367 0.0
N1141 N 0.54453 0.48798 0.86591 0.0
N1142 N 0.51047 0.47298 0.79322 0.0
H1143 H 0.5212 0.0344 0.74988 0.0
H1144 H 0.50007 0.05544 0.91903 0.0
H1145 H 0.52827 0.10789 0.77828 0.0
H1146 H 0.46191 0.9794 0.87673 0.0
H1147 H 0.51064 0.07651 0.86943 0.0
H1148 H 0.50202 0.01506 0.79855 0.0
C1149 C 0.51899 0.0465 0.76662 0.0
C1150 C 0.52638 0.0727 0.76037 0.0
C1151 C 0.49921 0.05523 0.87108 0.0
C1152 C 0.50426 0.05081 0.81582 0.0
C1153 C 0.49282 0.04323 0.89933 0.0
C1154 C 0.4802 0.01569 0.90178 0.0
C1155 C 0.49309 0.03941 0.84551 0.0
C1156 C 0.47177 0.00071 0.87565 0.0
C1157 C 0.50774 0.03543 0.79419 0.0
C1158 C 0.52281 0.08757 0.78253 0.0
N1159 N 0.47883 0.01275 0.8486 0.0
N1160 N 0.51217 0.07648 0.80949 0.0
H1161 H 0.10674 0.22818 0.57353 0.0
H1162 H 0.15248 0.35004 0.46959 0.0
H1163 H 0.16427 0.30546 0.6044 0.0
H1164 H 0.13369 0.27448 0.43376 0.0
H1165 H 0.15697 0.33511 0.51925 0.0
H1166 H 0.11493 0.24494 0.52216 0.0
C1167 C 0.12116 0.24868 0.56934 0.0
C1168 C 0.13474 0.26559 0.59298 0.0
C1169 C 0.15243 0.32199 0.50044 0.0
C1170 C 0.1441 0.28486 0.53464 0.0
C1171 C 0.14986 0.33047 0.47221 0.0
C1172 C 0.14266 0.31334 0.44786 0.0
C1173 C 0.14684 0.29594 0.50434 0.0
C1174 C 0.13937 0.28819 0.45213 0.0
C1175 C 0.12601 0.25816 0.54012 0.0
C1176 C 0.15341 0.29192 0.5866 0.0
N1177 N 0.1409 0.27998 0.48009 0.0
N1178 N 0.15728 0.30093 0.55796 0.0
H1179 H 0.75354 0.89498 0.57787 0.0
H1180 H 0.6429 0.78488 0.47503 0.0
H1181 H 0.69 0.82078 0.61041 0.0
H1182 H 0.71167 0.85381 0.44005 0.0
H1183 H 0.65478 0.80277 0.52522 0.0
H1184 H 0.73382 0.8848 0.5282 0.0
C1185 C 0.73501 0.87683 0.57465 0.0
C1186 C 0.72324 0.85865 0.59812 0.0
C1187 C 0.66719 0.81417 0.50662 0.0
C1188 C 0.7008 0.8468 0.54147 0.0
C1189 C 0.66042 0.80399 0.478 0.0
C1190 C 0.67665 0.81777 0.45361 0.0
C1191 C 0.69063 0.83813 0.51097 0.0
C1192 C 0.69878 0.8426 0.45842 0.0
C1193 C 0.72388 0.87098 0.5463 0.0
C1194 C 0.69963 0.83521 0.59278 0.0
N1195 N 0.70544 0.85184 0.48674 0.0
N1196 N 0.68923 0.82988 0.56492 0.0
H1197 H 0.1118 0.85093 0.56598 0.0
H1198 H 0.2313 0.87911 0.45643 0.0
H1199 H 0.192 0.88364 0.59687 0.0
H1200 H 0.15727 0.87055 0.4265 0.0
H1201 H 0.21741 0.87876 0.50826 0.0
H1202 H 0.12734 0.8527 0.51478 0.0
C1203 C 0.13259 0.85784 0.56203 0.0
C1204 C 0.15067 0.86714 0.58561 0.0
C1205 C 0.20438 0.87735 0.49033 0.0
C1206 C 0.16868 0.86998 0.52714 0.0
C1207 C 0.21243 0.87786 0.46083 0.0
C1208 C 0.19552 0.87515 0.43729 0.0
C1209 C 0.17896 0.87333 0.49621 0.0
C1210 C 0.17108 0.87315 0.44404 0.0
C1211 C 0.14151 0.8593 0.53279 0.0
C1212 C 0.17747 0.87635 0.57922 0.0
N1213 N 0.16333 0.87184 0.47293 0.0
N1214 N 0.18572 0.87766 0.55054 0.0
H1215 H 0.5802 0.74423 0.10828 0.0
H1216 H 0.65475 0.83137 0.24791 0.0
H1217 H 0.63112 0.82877 0.10301 0.0
H1218 H 0.63977 0.75166 0.24086 0.0
H1219 H 0.63793 0.8285 0.19748 0.0
H1220 H 0.5956 0.7448 0.15884 0.0
C1221 C 0.59498 0.7629 0.11743 0.0
C1222 C 0.6046 0.78654 0.10105 0.0
C1223 C 0.63833 0.81163 0.20688 0.0
C1224 C 0.6213 0.78719 0.15947 0.0
C1225 C 0.64773 0.81318 0.2356 0.0
C1226 C 0.64879 0.79178 0.24807 0.0
C1227 C 0.62983 0.78845 0.19058 0.0
C1228 C 0.63928 0.76854 0.23168 0.0
C1229 C 0.60351 0.76313 0.14644 0.0
C1230 C 0.62296 0.81013 0.11475 0.0
N1231 N 0.63017 0.76746 0.20348 0.0
N1232 N 0.63057 0.80986 0.14327 0.0
H1233 H 0.1832 0.76859 0.1034 0.0
H1234 H 0.22365 0.89011 0.21209 0.0
H1235 H 0.22284 0.8501 0.07536 0.0
H1236 H 0.18589 0.80967 0.24391 0.0
H1237 H 0.2188 0.87462 0.16127 0.0
H1238 H 0.17924 0.78208 0.15388 0.0
C1239 C 0.19065 0.7893 0.10774 0.0
C1240 C 0.20344 0.80832 0.08516 0.0
C1241 C 0.21148 0.86023 0.17922 0.0
C1242 C 0.19932 0.82382 0.14291 0.0
C1243 C 0.21435 0.86907 0.20837 0.0
C1244 C 0.20557 0.85114 0.23234 0.0
C1245 C 0.19996 0.83319 0.17372 0.0
C1246 C 0.19309 0.82413 0.22604 0.0
C1247 C 0.18854 0.79696 0.13661 0.0
C1248 C 0.2131 0.83485 0.09215 0.0
N1249 N 0.19091 0.81593 0.19722 0.0
N1250 N 0.21096 0.8418 0.12043 0.0
H1251 H 0.19534 0.3652 0.0928 0.0
H1252 H 0.14345 0.38228 0.25239 0.0
H1253 H 0.17209 0.42368 0.10751 0.0
H1254 H 0.14536 0.3129 0.22354 0.0
H1255 H 0.15745 0.40091 0.20161 0.0
H1256 H 0.18195 0.3494 0.14382 0.0
C1257 C 0.18739 0.37471 0.10677 0.0
C1258 C 0.18456 0.39558 0.09575 0.0
C1259 C 0.15457 0.38153 0.20658 0.0
C1260 C 0.16895 0.37747 0.15428 0.0
C1261 C 0.14647 0.37089 0.23541 0.0
C1262 C 0.14277 0.34583 0.24214 0.0
C1263 C 0.15957 0.3672 0.18485 0.0
C1264 C 0.14737 0.33205 0.21942 0.0
C1265 C 0.17961 0.36561 0.13588 0.0
C1266 C 0.17409 0.40715 0.11493 0.0
N1267 N 0.1557 0.34299 0.19206 0.0
N1268 N 0.16666 0.39795 0.14331 0.0
H1269 H 0.76231 0.56903 0.9143 0.0
H1270 H 0.83813 0.67936 0.79019 0.0
H1271 H 0.83639 0.63912 0.93329 0.0
H1272 H 0.77547 0.60043 0.77239 0.0
H1273 H 0.83964 0.6662 0.8422 0.0
H1274 H 0.7675 0.58159 0.86195 0.0
C1275 C 0.77961 0.58726 0.90738 0.0
C1276 C 0.79878 0.60326 0.92811 0.0
C1277 C 0.826 0.65166 0.8267 0.0
C1278 C 0.80512 0.61773 0.86792 0.0
C1279 C 0.8253 0.6591 0.79711 0.0
C1280 C 0.80683 0.64075 0.77728 0.0
C1281 C 0.80784 0.62587 0.83618 0.0
C1282 C 0.79011 0.61497 0.78715 0.0
C1283 C 0.78273 0.59431 0.87741 0.0
C1284 C 0.82114 0.62636 0.91788 0.0
N1285 N 0.79087 0.60834 0.81595 0.0
N1286 N 0.82363 0.63309 0.88841 0.0
H1287 H 0.4144 0.2289 0.91175 0.0
H1288 H 0.31144 0.11382 0.80744 0.0
H1289 H 0.3578 0.1507 0.94257 0.0
H1290 H 0.37695 0.18589 0.7729 0.0
H1291 H 0.32232 0.13138 0.85766 0.0
H1292 H 0.39512 0.21747 0.86193 0.0
C1293 C 0.39743 0.20953 0.90819 0.0
C1294 C 0.38759 0.19065 0.93122 0.0
C1295 C 0.33426 0.14351 0.83917 0.0
C1296 C 0.36582 0.17741 0.87433 0.0
C1297 C 0.3281 0.13349 0.81047 0.0
C1298 C 0.34371 0.14826 0.78611 0.0
C1299 C 0.35638 0.16842 0.84371 0.0
C1300 C 0.3646 0.17383 0.79118 0.0
C1301 C 0.38662 0.20298 0.87971 0.0
C1302 C 0.36599 0.16573 0.92533 0.0
N1303 N 0.37064 0.18301 0.81962 0.0
N1304 N 0.35593 0.15977 0.89736 0.0
H1305 H 0.83587 0.25 0.91025 0.0
H1306 H 0.82412 0.16262 0.77129 0.0
H1307 H 0.80373 0.16575 0.91798 0.0
H1308 H 0.88738 0.2431 0.77783 0.0
H1309 H 0.81066 0.16472 0.82249 0.0
H1310 H 0.85041 0.24871 0.85994 0.0
C1311 C 0.83229 0.23121 0.9018 0.0
C1312 C 0.81897 0.20794 0.91905 0.0
C1313 C 0.82755 0.18187 0.81283 0.0
C1314 C 0.83454 0.20646 0.86029 0.0
C1315 C 0.83515 0.18076 0.78369 0.0
C1316 C 0.85702 0.20267 0.77077 0.0
C1317 C 0.84188 0.20512 0.82907 0.0
C1318 C 0.87046 0.22586 0.78726 0.0
C1319 C 0.8404 0.23058 0.87277 0.0
C1320 C 0.81383 0.18417 0.90575 0.0
N1321 N 0.86267 0.2265 0.8158 0.0
N1322 N 0.82148 0.18403 0.87705 0.0
H1323 H 0.30108 0.10604 0.42055 0.0
H1324 H 0.28588 0.13401 0.59204 0.0
H1325 H 0.25324 0.13864 0.45148 0.0
H1326 H 0.33679 0.10489 0.5619 0.0
H1327 H 0.2723 0.13405 0.54061 0.0
H1328 H 0.31447 0.1053 0.47201 0.0
C1329 C 0.2937 0.11338 0.43813 0.0
C1330 C 0.27594 0.1223 0.43174 0.0
C1331 C 0.286 0.12708 0.54522 0.0
C1332 C 0.29092 0.12126 0.49059 0.0
C1333 C 0.29339 0.12664 0.57463 0.0
C1334 C 0.31206 0.11894 0.58107 0.0
C1335 C 0.2972 0.11955 0.52218 0.0
C1336 C 0.32208 0.11063 0.55768 0.0
C1337 C 0.30125 0.11285 0.46748 0.0
C1338 C 0.26716 0.13182 0.45529 0.0
N1339 N 0.31451 0.11114 0.52917 0.0
N1340 N 0.27458 0.13085 0.4837 0.0
H1341 H 0.85021 0.10159 0.43884 0.0
H1342 H 0.88399 0.22347 0.54428 0.0
H1343 H 0.88265 0.18177 0.40785 0.0
H1344 H 0.85265 0.14412 0.57769 0.0
H1345 H 0.87783 0.20709 0.49355 0.0
H1346 H 0.84521 0.1153 0.48875 0.0
C1347 C 0.8558 0.12201 0.44242 0.0
C1348 C 0.86698 0.14065 0.41923 0.0
C1349 C 0.87217 0.19315 0.51186 0.0
C1350 C 0.86169 0.15648 0.47633 0.0
C1351 C 0.87578 0.2025 0.54088 0.0
C1352 C 0.86928 0.18514 0.56517 0.0
C1353 C 0.8623 0.16621 0.50693 0.0
C1354 C 0.8581 0.15814 0.5595 0.0
C1355 C 0.85309 0.12983 0.47096 0.0
C1356 C 0.87426 0.16686 0.4252 0.0
N1357 N 0.85529 0.14949 0.53085 0.0
N1358 N 0.87165 0.17403 0.45322 0.0
H1359 H 0.86043 0.69513 0.41818 0.0
H1360 H 0.82745 0.71958 0.58252 0.0
H1361 H 0.83826 0.75384 0.43632 0.0
H1362 H 0.82128 0.64655 0.5539 0.0
H1363 H 0.83042 0.73304 0.5298 0.0
H1364 H 0.84679 0.67783 0.4689 0.0
C1365 C 0.85256 0.70426 0.43289 0.0
C1366 C 0.85033 0.72579 0.42317 0.0
C1367 C 0.82767 0.71376 0.5351 0.0
C1368 C 0.83487 0.70637 0.48119 0.0
C1369 C 0.82567 0.70602 0.56508 0.0
C1370 C 0.82392 0.6819 0.57226 0.0
C1371 C 0.82826 0.69733 0.51259 0.0
C1372 C 0.82248 0.66526 0.54907 0.0
C1373 C 0.84463 0.69434 0.46173 0.0
C1374 C 0.84001 0.73699 0.44301 0.0
N1375 N 0.82505 0.67341 0.5203 0.0
N1376 N 0.8329 0.72733 0.47125 0.0
loop_
_geom_bond_atom_site_label_1
_geom_bond_atom_site_label_2
_geom_bond_distance
_geom_bond_site_symmetry_2
_ccdc_geom_bond_type
H0 C5 0.930 . S
H1 C8 0.930 . S
H2 C10 0.930 . S
H3 C4 1.016 . S
C4 H3 1.016 . S
C4 N11 1.286 . S
C5 H0 0.930 . S
C5 C6 1.397 . S
C5 C7 1.361 . S
C6 C5 1.397 . S
C6 C10 1.390 . S
C7 C5 1.361 . S
C7 C8 1.393 . S
C7 N11 1.413 . S
C8 H1 0.930 . S
C8 C7 1.393 . S
C8 C9 1.399 . S
C9 C8 1.399 . S
C9 C10 1.381 . S
C10 H2 0.930 . S
C10 C6 1.390 . S
C10 C9 1.381 . S
N11 C4 1.286 . S
N11 C7 1.413 . S
H12 C17 0.930 . S
H13 C20 0.930 . S
H14 C22 0.930 . S
H15 C16 1.016 . S
C16 H15 1.016 . S
C16 N23 1.286 . S
C17 H12 0.930 . S
C17 C18 1.397 . S
C17 C19 1.361 . S
C18 C17 1.397 . S
C18 C22 1.390 . S
C19 C17 1.361 . S
C19 C20 1.393 . S
C19 N23 1.413 . S
C20 H13 0.930 . S
C20 C19 1.393 . S
C20 C21 1.399 . S
C21 C20 1.399 . S
C21 C22 1.381 . S
C22 H14 0.930 . S
C22 C18 1.390 . S
C22 C21 1.381 . S
N23 C16 1.286 . S
N23 C19 1.413 . S
H24 C29 0.930 . S
H25 C32 0.930 . S
H26 C34 0.930 . S
H27 C28 1.016 . S
C28 H27 1.016 . S
C28 N35 1.286 . S
C29 H24 0.930 . S
C29 C30 1.397 . S
C29 C31 1.361 . S
C30 C29 1.397 . S
C30 C34 1.390 . S
C31 C29 1.361 . S
C31 C32 1.393 . S
C31 N35 1.413 . S
C32 H25 0.930 . S
C32 C31 1.393 . S
C32 C33 1.399 . S
C33 C32 1.399 . S
C33 C34 1.381 . S
C34 H26 0.930 . S
C34 C30 1.390 . S
C34 C33 1.381 . S
N35 C28 1.286 . S
N35 C31 1.413 . S
H36 C41 0.930 . S
H37 C44 0.930 . S
H38 C46 0.930 . S
H39 C40 1.016 . S
C40 H39 1.016 . S
C40 N47 1.286 . S
C41 H36 0.930 . S
C41 C42 1.397 . S
C41 C43 1.361 . S
C42 C41 1.397 . S
C42 C46 1.390 . S
C43 C41 1.361 . S
C43 C44 1.393 . S
C43 N47 1.413 . S
C44 H37 0.930 . S
C44 C43 1.393 . S
C44 C45 1.399 . S
C45 C44 1.399 . S
C45 C46 1.381 . S
C46 H38 0.930 . S
C46 C42 1.390 . S
C46 C45 1.381 . S
N47 C40 1.286 . S
N47 C43 1.413 . S
H48 C53 0.930 . S
H49 C56 0.930 . S
H50 C58 0.930 . S
H51 C52 1.016 . S
C52 H51 1.016 . S
C52 N59 1.286 . S
C53 H48 0.930 . S
C53 C54 1.397 . S
C53 C55 1.361 . S
C54 C53 1.397 . S
C54 C58 1.390 . S
C55 C53 1.361 . S
C55 C56 1.393 . S
C55 N59 1.413 . S
C56 H49 0.930 . S
C56 C55 1.393 . S
C56 C57 1.399 . S
C57 C56 1.399 . S
C57 C58 1.381 . S
C58 H50 0.930 . S
C58 C54 1.390 . S
C58 C57 1.381 . S
N59 C52 1.286 . S
N59 C55 1.413 . S
H60 C65 0.930 . S
H61 C68 0.930 . S
H62 C70 0.930 . S
H63 C64 1.016 . S
C64 H63 1.016 . S
C64 N71 1.286 . S
C65 H60 0.930 . S
C65 C66 1.397 . S
C65 C67 1.361 . S
C66 C65 1.397 . S
C66 C70 1.390 . S
C67 C65 1.361 . S
C67 C68 1.393 . S
C67 N71 1.413 . S
C68 H61 0.930 . S
C68 C67 1.393 . S
C68 C69 1.399 . S
C69 C68 1.399 . S
C69 C70 1.381 . S
C70 H62 0.930 . S
C70 C66 1.390 . S
C70 C69 1.381 . S
N71 C64 1.286 . S
N71 C67 1.413 . S
H72 C77 0.930 . S
H73 C80 0.930 . S
H74 C82 0.930 . S
H75 C76 1.016 . S
C76 H75 1.016 . S
C76 N83 1.286 . S
C77 H72 0.930 . S
C77 C78 1.397 . S
C77 C79 1.361 . S
C78 C77 1.397 . S
C78 C82 1.390 . S
C79 C77 1.361 . S
C79 C80 1.393 . S
C79 N83 1.413 . S
C80 H73 0.930 . S
C80 C79 1.393 . S
C80 C81 1.399 . S
C81 C80 1.399 . S
C81 C82 1.381 . S
C82 H74 0.930 . S
C82 C78 1.390 . S
C82 C81 1.381 . S
N83 C76 1.286 . S
N83 C79 1.413 . S
H84 C89 0.930 . S
H85 C92 0.930 . S
H86 C94 0.930 . S
H87 C88 1.016 . S
C88 H87 1.016 . S
C88 N95 1.286 . S
C89 H84 0.930 . S
C89 C90 1.397 . S
C89 C91 1.361 . S
C90 C89 1.397 . S
C90 C94 1.390 . S
C91 C89 1.361 . S
C91 C92 1.393 . S
C91 N95 1.413 . S
C92 H85 0.930 . S
C92 C91 1.393 . S
C92 C93 1.399 . S
C93 C92 1.399 . S
C93 C94 1.381 . S
C94 H86 0.930 . S
C94 C90 1.390 . S
C94 C93 1.381 . S
N95 C88 1.286 . S
N95 C91 1.413 . S
H96 C101 0.930 . S
H97 C104 0.930 . S
H98 C106 0.930 . S
H99 C100 1.016 . S
C100 H99 1.016 . S
C100 N107 1.286 . S
C101 H96 0.930 . S
C101 C102 1.397 . S
C101 C103 1.361 . S
C102 C101 1.397 . S
C102 C106 1.390 . S
C103 C101 1.361 . S
C103 C104 1.393 . S
C103 N107 1.413 . S
C104 H97 0.930 . S
C104 C103 1.393 . S
C104 C105 1.399 . S
C105 C104 1.399 . S
C105 C106 1.381 . S
C106 H98 0.930 . S
C106 C102 1.390 . S
C106 C105 1.381 . S
N107 C100 1.286 . S
N107 C103 1.413 . S
H108 C113 0.930 . S
H109 C116 0.930 . S
H110 C118 0.930 . S
H111 C112 1.016 1_556 S
C112 H111 1.016 1_554 S
C112 N119 1.286 . S
C113 H108 0.930 . S
C113 C114 1.397 1_554 S
C113 C115 1.361 1_554 S
C114 C113 1.397 1_556 S
C114 C118 1.390 . S
C115 C113 1.361 1_556 S
C115 C116 1.393 . S
C115 N119 1.413 1_556 S
C116 H109 0.930 . S
C116 C115 1.393 . S
C116 C117 1.399 . S
C117 C116 1.399 . S
C117 C118 1.381 . S
C118 H110 0.930 . S
C118 C114 1.390 . S
C118 C117 1.381 . S
N119 C112 1.286 . S
N119 C115 1.413 1_554 S
H120 C125 0.930 . S
H121 C128 0.930 . S
H122 C130 0.930 . S
H123 C124 1.016 1_556 S
C124 H123 1.016 1_554 S
C124 N131 1.286 . S
C125 H120 0.930 . S
C125 C126 1.397 1_554 S
C125 C127 1.361 . S
C126 C125 1.397 1_556 S
C126 C130 1.390 . S
C127 C125 1.361 . S
C127 C128 1.393 1_554 S
C127 N131 1.413 . S
C128 H121 0.930 . S
C128 C127 1.393 1_556 S
C128 C129 1.399 . S
C129 C128 1.399 . S
C129 C130 1.381 . S
C130 H122 0.930 . S
C130 C126 1.390 . S
C130 C129 1.381 . S
N131 C124 1.286 . S
N131 C127 1.413 . S
H132 C137 0.930 . S
H133 C140 0.930 . S
H134 C142 0.930 . S
H135 C136 1.016 . S
C136 H135 1.016 . S
C136 N143 1.286 1_556 S
C137 H132 0.930 . S
C137 C138 1.397 1_554 S
C137 C139 1.361 1_554 S
C138 C137 1.397 1_556 S
C138 C142 1.390 . S
C139 C137 1.361 1_556 S
C139 C140 1.393 . S
C139 N143 1.413 1_556 S
C140 H133 0.930 . S
C140 C139 1.393 . S
C140 C141 1.399 . S
C141 C140 1.399 . S
C141 C142 1.381 . S
C142 H134 0.930 . S
C142 C138 1.390 . S
C142 C141 1.381 . S
N143 C136 1.286 1_554 S
N143 C139 1.413 1_554 S
H144 C149 0.930 1_556 S
H145 C152 0.930 . S
H146 C154 0.930 . S
H147 C148 1.016 . S
C148 H147 1.016 . S
C148 N155 1.286 . S
C149 H144 0.930 1_554 S
C149 C150 1.397 . S
C149 C151 1.361 . S
C150 C149 1.397 . S
C150 C154 1.390 . S
C151 C149 1.361 . S
C151 C152 1.393 . S
C151 N155 1.413 . S
C152 H145 0.930 . S
C152 C151 1.393 . S
C152 C153 1.399 . S
C153 C152 1.399 . S
C153 C154 1.381 . S
C154 H146 0.930 . S
C154 C150 1.390 . S
C154 C153 1.381 . S
N155 C148 1.286 . S
N155 C151 1.413 . S
H156 C161 0.930 1_556 S
H157 C164 0.930 . S
H158 C166 0.930 . S
H159 C160 1.016 . S
C160 H159 1.016 . S
C160 N167 1.286 . S
C161 H156 0.930 1_554 S
C161 C162 1.397 . S
C161 C163 1.361 . S
C162 C161 1.397 . S
C162 C166 1.390 . S
C163 C161 1.361 . S
C163 C164 1.393 . S
C163 N167 1.413 . S
C164 H157 0.930 . S
C164 C163 1.393 . S
C164 C165 1.399 . S
C165 C164 1.399 . S
C165 C166 1.381 . S
C166 H158 0.930 . S
C166 C162 1.390 . S
C166 C165 1.381 . S
N167 C160 1.286 . S
N167 C163 1.413 . S
H168 C173 0.930 1_556 S
H169 C176 0.930 . S
H170 C178 0.930 . S
H171 C172 1.016 . S
C172 H171 1.016 . S
C172 N179 1.286 . S
C173 H168 0.930 1_554 S
C173 C174 1.397 . S
C173 C175 1.361 . S
C174 C173 1.397 . S
C174 C178 1.390 . S
C175 C173 1.361 . S
C175 C176 1.393 . S
C175 N179 1.413 . S
C176 H169 0.930 . S
C176 C175 1.393 . S
C176 C177 1.399 . S
C177 C176 1.399 . S
C177 C178 1.381 . S
C178 H170 0.930 . S
C178 C174 1.390 . S
C178 C177 1.381 . S
N179 C172 1.286 . S
N179 C175 1.413 . S
H180 C185 0.930 . S
H181 C188 0.930 . S
H182 C190 0.930 . S
H183 C184 1.016 . S
C184 H183 1.016 . S
C184 N191 1.286 . S
C185 H180 0.930 . S
C185 C186 1.397 . S
C185 C187 1.361 . S
C186 C185 1.397 . S
C186 C190 1.390 . S
C187 C185 1.361 . S
C187 C188 1.393 . S
C187 N191 1.413 . S
C188 H181 0.930 . S
C188 C187 1.393 . S
C188 C189 1.399 . S
C189 C188 1.399 . S
C189 C190 1.381 . S
C190 H182 0.930 . S
C190 C186 1.390 . S
C190 C189 1.381 . S
N191 C184 1.286 . S
N191 C187 1.413 . S
H192 C197 0.930 . S
H193 C200 0.930 . S
H194 C202 0.930 . S
H195 C196 1.016 . S
C196 H195 1.016 . S
C196 N203 1.286 . S
C197 H192 0.930 . S
C197 C198 1.397 . S
C197 C199 1.361 . S
C198 C197 1.397 . S
C198 C202 1.390 . S
C199 C197 1.361 . S
C199 C200 1.393 . S
C199 N203 1.413 . S
C200 H193 0.930 . S
C200 C199 1.393 . S
C200 C201 1.399 . S
C201 C200 1.399 . S
C201 C202 1.381 . S
C202 H194 0.930 . S
C202 C198 1.390 . S
C202 C201 1.381 . S
N203 C196 1.286 . S
N203 C199 1.413 . S
H204 C209 0.930 . S
H205 C212 0.930 . S
H206 C214 0.930 . S
H207 C208 1.016 . S
C208 H207 1.016 . S
C208 N215 1.286 . S
C209 H204 0.930 . S
C209 C210 1.397 . S
C209 C211 1.361 . S
C210 C209 1.397 . S
C210 C214 1.390 . S
C211 C209 1.361 . S
C211 C212 1.393 . S
C211 N215 1.413 . S
C212 H205 0.930 . S
C212 C211 1.393 . S
C212 C213 1.399 . S
C213 C212 1.399 . S
C213 C214 1.381 . S
C214 H206 0.930 . S
C214 C210 1.390 . S
C214 C213 1.381 . S
N215 C208 1.286 . S
N215 C211 1.413 . S
O216 Mg217 1.990 . S
O216 C230 1.253 . S
Mg217 O216 1.990 . S
Mg217 O220 2.180 1_546 S
Mg217 O221 2.117 1_545 S
Mg217 O235 2.030 . S
O218 Mg219 2.072 1_556 S
O218 C230 1.260 . S
Mg219 O218 2.072 1_554 S
Mg219 O220 2.099 1_545 S
Mg219 O222 2.079 . S
Mg219 O223 2.072 1_545 S
Mg219 O225 2.099 . S
Mg219 O236 2.079 . S
O220 Mg217 2.180 1_564 S
O220 Mg219 2.099 1_565 S
O220 C231 1.279 1_554 S
O221 Mg217 2.117 1_565 S
O221 C231 1.250 . S
O222 Mg219 2.079 . S
O222 C232 1.264 1_545 S
O223 Mg219 2.072 1_565 S
O223 C233 1.260 . S
Mg224 O225 2.180 . S
Mg224 O226 2.030 1_545 S
Mg224 O227 1.990 1_545 S
Mg224 O228 2.117 . S
O225 Mg219 2.099 . S
O225 Mg224 2.180 . S
O225 C234 1.279 . S
O226 Mg224 2.030 1_565 S
O226 C232 1.248 . S
O227 Mg224 1.990 1_565 S
O227 C233 1.253 . S
O228 Mg224 2.117 . S
O228 C234 1.250 . S
C229 O235 1.248 1_554 S
C229 O236 1.264 . S
C230 O216 1.253 . S
C230 O218 1.260 . S
C231 O220 1.279 1_556 S
C231 O221 1.250 . S
C232 O222 1.264 1_565 S
C232 O226 1.248 . S
C233 O223 1.260 . S
C233 O227 1.253 . S
C234 O225 1.279 . S
C234 O228 1.250 . S
O235 Mg217 2.030 . S
O235 C229 1.248 1_556 S
O236 Mg219 2.079 . S
O236 C229 1.264 . S
O237 Mg238 1.990 . S
O237 C251 1.253 1_455 S
Mg238 O237 1.990 . S
Mg238 O241 2.180 1_556 S
Mg238 O242 2.117 . S
Mg238 O256 2.030 1_455 S
O239 Mg240 2.072 1_656 S
O239 C251 1.260 . S
Mg240 O239 2.072 1_454 S
Mg240 O241 2.099 . S
Mg240 O243 2.079 . S
Mg240 O244 2.072 . S
Mg240 O246 2.099 1_455 S
Mg240 O257 2.079 1_455 S
O241 Mg238 2.180 1_554 S
O241 Mg240 2.099 . S
O241 C252 1.279 1_554 S
O242 Mg238 2.117 . S
O242 C252 1.250 . S
O243 Mg240 2.079 . S
O243 C253 1.264 . S
O244 Mg240 2.072 . S
O244 C254 1.260 . S
Mg245 O246 2.180 1_455 S
Mg245 O247 2.030 . S
Mg245 O248 1.990 . S
Mg245 O249 2.117 1_455 S
O246 Mg240 2.099 1_655 S
O246 Mg245 2.180 1_655 S
O246 C255 1.279 . S
O247 Mg245 2.030 . S
O247 C253 1.248 . S
O248 Mg245 1.990 . S
O248 C254 1.253 . S
O249 Mg245 2.117 1_655 S
O249 C255 1.250 . S
C250 O256 1.248 1_554 S
C250 O257 1.264 . S
C251 O237 1.253 1_655 S
C251 O239 1.260 . S
C252 O241 1.279 1_556 S
C252 O242 1.250 . S
C253 O243 1.264 . S
C253 O247 1.248 . S
C254 O244 1.260 . S
C254 O248 1.253 . S
C255 O246 1.279 . S
C255 O249 1.250 . S
O256 Mg238 2.030 1_655 S
O256 C250 1.248 1_556 S
O257 Mg240 2.079 1_655 S
O257 C250 1.264 . S
O258 Mg259 1.990 . S
O258 C272 1.253 . S
Mg259 O258 1.990 . S
Mg259 O262 2.180 . S
Mg259 O263 2.117 . S
Mg259 O277 2.030 . S
O260 Mg261 2.072 . S
O260 C272 1.260 . S
Mg261 O260 2.072 . S
Mg261 O262 2.099 . S
Mg261 O264 2.079 1_554 S
Mg261 O265 2.072 . S
Mg261 O267 2.099 1_554 S
Mg261 O278 2.078 1_554 S
O262 Mg259 2.180 . S
O262 Mg261 2.099 . S
O262 C273 1.279 . S
O263 Mg259 2.117 . S
O263 C273 1.250 . S
O264 Mg261 2.079 1_556 S
O264 C274 1.264 . S
O265 Mg261 2.072 . S
O265 C275 1.260 . S
Mg266 O267 2.180 . S
Mg266 O268 2.030 . S
Mg266 O269 1.990 . S
Mg266 O270 2.117 . S
O267 Mg261 2.099 1_556 S
O267 Mg266 2.180 . S
O267 C276 1.279 1_556 S
O268 Mg266 2.030 . S
O268 C274 1.248 . S
O269 Mg266 1.990 . S
O269 C275 1.253 1_556 S
O270 Mg266 2.117 . S
O270 C276 1.250 1_556 S
C271 O277 1.248 . S
C271 O278 1.259 1_554 S
C272 O258 1.253 . S
C272 O260 1.260 . S
C273 O262 1.279 . S
C273 O263 1.250 . S
C274 O264 1.264 . S
C274 O268 1.248 . S
C275 O265 1.260 . S
C275 O269 1.253 1_554 S
C276 O267 1.279 1_554 S
C276 O270 1.250 1_554 S
O277 Mg259 2.030 . S
O277 C271 1.248 . S
O278 Mg261 2.078 1_556 S
O278 C271 1.259 1_556 S
O279 Mg280 1.990 . S
O279 C293 1.253 . S
Mg280 O279 1.990 . S
Mg280 O283 2.180 . S
Mg280 O284 2.117 . S
Mg280 O298 2.030 . S
O281 Mg282 2.072 . S
O281 C293 1.260 . S
Mg282 O281 2.072 . S
Mg282 O283 2.099 . S
Mg282 O285 2.079 . S
Mg282 O286 2.072 . S
Mg282 O288 2.099 . S
Mg282 O299 2.079 . S
O283 Mg280 2.180 . S
O283 Mg282 2.099 . S
O283 C294 1.279 . S
O284 Mg280 2.117 . S
O284 C294 1.250 . S
O285 Mg282 2.079 . S
O285 C295 1.264 . S
O286 Mg282 2.072 . S
O286 C296 1.260 . S
Mg287 O288 2.180 . S
Mg287 O289 2.030 . S
Mg287 O290 1.990 . S
Mg287 O291 2.117 . S
O288 Mg282 2.099 . S
O288 Mg287 2.180 . S
O288 C297 1.279 . S
O289 Mg287 2.030 . S
O289 C295 1.248 . S
O290 Mg287 1.990 . S
O290 C296 1.253 . S
O291 Mg287 2.117 . S
O291 C297 1.250 . S
C292 O298 1.248 . S
C292 O299 1.264 . S
C293 O279 1.253 . S
C293 O281 1.260 . S
C294 O283 1.279 . S
C294 O284 1.250 . S
C295 O285 1.264 . S
C295 O289 1.248 . S
C296 O286 1.260 . S
C296 O290 1.253 . S
C297 O288 1.279 . S
C297 O291 1.250 . S
O298 Mg280 2.030 . S
O298 C292 1.248 . S
O299 Mg282 2.079 . S
O299 C292 1.264 . S
O300 Mg301 1.990 . S
O300 C314 1.253 . S
Mg301 O300 1.990 . S
Mg301 O304 2.180 . S
Mg301 O305 2.117 . S
Mg301 O319 2.030 . S
O302 Mg303 2.072 . S
O302 C314 1.260 . S
Mg303 O302 2.072 . S
Mg303 O304 2.099 . S
Mg303 O306 2.079 . S
Mg303 O307 2.072 . S
Mg303 O309 2.099 . S
Mg303 O320 2.079 . S
O304 Mg301 2.180 . S
O304 Mg303 2.099 . S
O304 C315 1.279 . S
O305 Mg301 2.117 . S
O305 C315 1.250 . S
O306 Mg303 2.079 . S
O306 C316 1.264 . S
O307 Mg303 2.072 . S
O307 C317 1.260 . S
Mg308 O309 2.180 . S
Mg308 O310 2.030 . S
Mg308 O311 1.990 . S
Mg308 O312 2.117 . S
O309 Mg303 2.099 . S
O309 Mg308 2.180 . S
O309 C318 1.279 . S
O310 Mg308 2.030 . S
O310 C316 1.248 . S
O311 Mg308 1.990 . S
O311 C317 1.253 . S
O312 Mg308 2.117 . S
O312 C318 1.250 . S
C313 O319 1.248 . S
C313 O320 1.264 . S
C314 O300 1.253 . S
C314 O302 1.260 . S
C315 O304 1.279 . S
C315 O305 1.250 . S
C316 O306 1.264 . S
C316 O310 1.248 . S
C317 O307 1.260 . S
C317 O311 1.253 . S
C318 O309 1.279 . S
C318 O312 1.250 . S
O319 Mg301 2.030 . S
O319 C313 1.248 . S
O320 Mg303 2.079 . S
O320 C313 1.264 . S
O321 Mg322 1.990 . S
O321 C335 1.253 . S
Mg322 O321 1.990 . S
Mg322 O325 2.180 . S
Mg322 O326 2.117 . S
Mg322 O340 2.030 . S
O323 Mg324 2.072 . S
O323 C335 1.260 . S
Mg324 O323 2.072 . S
Mg324 O325 2.099 . S
Mg324 O327 2.079 . S
Mg324 O328 2.072 . S
Mg324 O330 2.099 . S
Mg324 O341 2.079 . S
O325 Mg322 2.180 . S
O325 Mg324 2.099 . S
O325 C336 1.279 . S
O326 Mg322 2.117 . S
O326 C336 1.250 . S
O327 Mg324 2.079 . S
O327 C337 1.264 . S
O328 Mg324 2.072 . S
O328 C338 1.260 . S
Mg329 O330 2.180 . S
Mg329 O331 2.030 . S
Mg329 O332 1.990 . S
Mg329 O333 2.117 . S
O330 Mg324 2.099 . S
O330 Mg329 2.180 . S
O330 C339 1.279 . S
O331 Mg329 2.030 . S
O331 C337 1.248 . S
O332 Mg329 1.990 . S
O332 C338 1.253 . S
O333 Mg329 2.117 . S
O333 C339 1.250 . S
C334 O340 1.248 . S
C334 O341 1.264 . S
C335 O321 1.253 . S
C335 O323 1.260 . S
C336 O325 1.279 . S
C336 O326 1.250 . S
C337 O327 1.264 . S
C337 O331 1.248 . S
C338 O328 1.260 . S
C338 O332 1.253 . S
C339 O330 1.279 . S
C339 O333 1.250 . S
O340 Mg322 2.030 . S
O340 C334 1.248 . S
O341 Mg324 2.079 . S
O341 C334 1.264 . S
O342 Mg343 1.990 . S
O342 C356 1.253 . S
Mg343 O342 1.990 . S
Mg343 O346 2.180 . S
Mg343 O347 2.117 . S
Mg343 O361 2.030 . S
O344 Mg345 2.072 . S
O344 C356 1.260 . S
Mg345 O344 2.072 . S
Mg345 O346 2.099 . S
Mg345 O348 2.079 . S
Mg345 O349 2.072 . S
Mg345 O351 2.099 . S
Mg345 O362 2.079 . S
O346 Mg343 2.180 . S
O346 Mg345 2.099 . S
O346 C357 1.279 . S
O347 Mg343 2.117 . S
O347 C357 1.250 . S
O348 Mg345 2.079 . S
O348 C358 1.264 . S
O349 Mg345 2.072 . S
O349 C359 1.260 . S
Mg350 O351 2.180 . S
Mg350 O352 2.030 . S
Mg350 O353 1.990 . S
Mg350 O354 2.117 . S
O351 Mg345 2.099 . S
O351 Mg350 2.180 . S
O351 C360 1.279 . S
O352 Mg350 2.030 . S
O352 C358 1.248 . S
O353 Mg350 1.990 . S
O353 C359 1.253 . S
O354 Mg350 2.117 . S
O354 C360 1.250 . S
C355 O361 1.248 . S
C355 O362 1.264 . S
C356 O342 1.253 . S
C356 O344 1.260 . S
C357 O346 1.279 . S
C357 O347 1.250 . S
C358 O348 1.264 . S
C358 O352 1.248 . S
C359 O349 1.260 . S
C359 O353 1.253 . S
C360 O351 1.279 . S
C360 O354 1.250 . S
O361 Mg343 2.030 . S
O361 C355 1.248 . S
O362 Mg345 2.079 . S
O362 C355 1.264 . S
O363 Mg364 1.990 . S
O363 C377 1.253 . S
Mg364 O363 1.990 . S
Mg364 O367 2.180 . S
Mg364 O368 2.117 . S
Mg364 O382 2.030 . S
O365 Mg366 2.072 . S
O365 C377 1.260 . S
Mg366 O365 2.072 . S
Mg366 O367 2.099 . S
Mg366 O369 2.079 . S
Mg366 O370 2.072 . S
Mg366 O372 2.099 . S
Mg366 O383 2.079 . S
O367 Mg364 2.180 . S
O367 Mg366 2.099 . S
O367 C378 1.279 . S
O368 Mg364 2.117 . S
O368 C378 1.250 . S
O369 Mg366 2.079 . S
O369 C379 1.264 . S
O370 Mg366 2.072 . S
O370 C380 1.260 . S
Mg371 O372 2.180 . S
Mg371 O373 2.030 . S
Mg371 O374 1.990 . S
Mg371 O375 2.117 . S
O372 Mg366 2.099 . S
O372 Mg371 2.180 . S
O372 C381 1.279 . S
O373 Mg371 2.030 . S
O373 C379 1.248 . S
O374 Mg371 1.990 . S
O374 C380 1.253 . S
O375 Mg371 2.117 . S
O375 C381 1.250 . S
C376 O382 1.248 . S
C376 O383 1.264 . S
C377 O363 1.253 . S
C377 O365 1.260 . S
C378 O367 1.279 . S
C378 O368 1.250 . S
C379 O369 1.264 . S
C379 O373 1.248 . S
C380 O370 1.260 . S
C380 O374 1.253 . S
C381 O372 1.279 . S
C381 O375 1.250 . S
O382 Mg364 2.030 . S
O382 C376 1.248 . S
O383 Mg366 2.079 . S
O383 C376 1.264 . S
O384 Mg385 1.990 . S
O384 C398 1.253 . S
Mg385 O384 1.990 . S
Mg385 O388 2.180 . S
Mg385 O389 2.117 . S
Mg385 O403 2.030 . S
O386 Mg387 2.072 . S
O386 C398 1.260 . S
Mg387 O386 2.072 . S
Mg387 O388 2.099 . S
Mg387 O390 2.079 . S
Mg387 O391 2.072 . S
Mg387 O393 2.099 . S
Mg387 O404 2.079 . S
O388 Mg385 2.180 . S
O388 Mg387 2.099 . S
O388 C399 1.279 . S
O389 Mg385 2.117 . S
O389 C399 1.250 . S
O390 Mg387 2.079 . S
O390 C400 1.264 . S
O391 Mg387 2.072 . S
O391 C401 1.260 . S
Mg392 O393 2.180 . S
Mg392 O394 2.030 . S
Mg392 O395 1.990 . S
Mg392 O396 2.117 . S
O393 Mg387 2.099 . S
O393 Mg392 2.180 . S
O393 C402 1.279 . S
O394 Mg392 2.030 . S
O394 C400 1.248 . S
O395 Mg392 1.990 . S
O395 C401 1.253 . S
O396 Mg392 2.117 . S
O396 C402 1.250 . S
C397 O403 1.248 . S
C397 O404 1.264 . S
C398 O384 1.253 . S
C398 O386 1.260 . S
C399 O388 1.279 . S
C399 O389 1.250 . S
C400 O390 1.264 . S
C400 O394 1.248 . S
C401 O391 1.260 . S
C401 O395 1.253 . S
C402 O393 1.279 . S
C402 O396 1.250 . S
O403 Mg385 2.030 . S
O403 C397 1.248 . S
O404 Mg387 2.079 . S
O404 C397 1.264 . S
H405 C411 0.930 . S
H406 C415 0.930 . S
H407 C420 0.929 . S
H408 C418 0.929 . S
H409 C413 0.929 . S
H410 C419 0.929 . S
C411 H405 0.930 . S
C411 C412 1.367 1_556 S
C411 C419 1.378 . S
C412 C411 1.367 1_554 S
C412 C420 1.433 . S
C413 H409 0.929 . S
C413 C415 1.378 . S
C413 C417 1.350 . S
C414 C417 1.463 . S
C414 C419 1.350 1_554 S
C414 N422 1.427 . S
C415 H406 0.930 . S
C415 C413 1.378 . S
C415 C416 1.367 . S
C416 C415 1.367 . S
C416 C418 1.433 1_554 S
C417 C413 1.350 . S
C417 C414 1.463 . S
C417 N421 1.427 1_554 S
C418 H408 0.929 . S
C418 C416 1.433 1_556 S
C418 N421 1.384 . S
C419 H410 0.929 . S
C419 C411 1.378 . S
C419 C414 1.350 1_556 S
C420 H407 0.929 . S
C420 C412 1.433 . S
C420 N422 1.384 . S
N421 C417 1.427 1_556 S
N421 C418 1.384 . S
N422 C414 1.427 . S
N422 C420 1.384 . S
H423 C429 0.930 . S
H424 C433 0.930 1_556 S
H425 C438 0.925 1_556 S
H426 C436 0.929 . S
H427 C431 0.929 1_556 S
H428 C437 0.929 . S
C429 H423 0.930 . S
C429 C430 1.367 . S
C429 C437 1.378 . S
C430 C429 1.367 . S
C430 C438 1.433 . S
C431 H427 0.929 1_554 S
C431 C433 1.378 . S
C431 C435 1.350 . S
C432 C435 1.463 . S
C432 C437 1.350 . S
C432 N440 1.427 . S
C433 H424 0.930 1_554 S
C433 C431 1.378 . S
C433 C434 1.367 . S
C434 C433 1.367 . S
C434 C436 1.433 . S
C435 C431 1.350 . S
C435 C432 1.463 . S
C435 N439 1.427 . S
C436 H426 0.929 . S
C436 C434 1.433 . S
C436 N439 1.384 . S
C437 H428 0.929 . S
C437 C429 1.378 . S
C437 C432 1.350 . S
C438 H425 0.925 1_554 S
C438 C430 1.433 . S
C438 N440 1.384 . S
N439 C435 1.427 . S
N439 C436 1.384 . S
N440 C432 1.427 . S
N440 C438 1.384 . S
H441 C447 0.930 . S
H442 C451 0.930 . S
H443 C456 0.929 . S
H444 C454 0.929 . S
H445 C449 0.929 . S
H446 C455 0.929 . S
C447 H441 0.930 . S
C447 C448 1.367 1_556 S
C447 C455 1.378 . S
C448 C447 1.367 1_554 S
C448 C456 1.433 . S
C449 H445 0.929 . S
C449 C451 1.378 . S
C449 C453 1.350 . S
C450 C453 1.463 . S
C450 C455 1.350 1_554 S
C450 N458 1.427 . S
C451 H442 0.930 . S
C451 C449 1.378 . S
C451 C452 1.367 . S
C452 C451 1.367 . S
C452 C454 1.433 1_554 S
C453 C449 1.350 . S
C453 C450 1.463 . S
C453 N457 1.427 1_554 S
C454 H444 0.929 . S
C454 C452 1.433 1_556 S
C454 N457 1.384 . S
C455 H446 0.929 . S
C455 C447 1.378 . S
C455 C450 1.350 1_556 S
C456 H443 0.929 . S
C456 C448 1.433 . S
C456 N458 1.384 . S
N457 C453 1.427 1_556 S
N457 C454 1.384 . S
N458 C450 1.427 . S
N458 C456 1.384 . S
H459 C465 0.930 . S
H460 C469 0.930 . S
H461 C474 0.929 . S
H462 C472 0.929 . S
H463 C467 0.929 . S
H464 C473 0.929 . S
C465 H459 0.930 . S
C465 C466 1.367 1_554 S
C465 C473 1.378 . S
C466 C465 1.367 1_556 S
C466 C474 1.433 . S
C467 H463 0.929 . S
C467 C469 1.378 . S
C467 C471 1.350 1_556 S
C468 C471 1.463 . S
C468 C473 1.350 . S
C468 N476 1.427 1_554 S
C469 H460 0.930 . S
C469 C467 1.378 . S
C469 C470 1.367 1_556 S
C470 C469 1.367 1_554 S
C470 C472 1.433 . S
C471 C467 1.350 1_554 S
C471 C468 1.463 . S
C471 N475 1.427 . S
C472 H462 0.929 . S
C472 C470 1.433 . S
C472 N475 1.384 . S
C473 H464 0.929 . S
C473 C465 1.378 . S
C473 C468 1.350 . S
C474 H461 0.929 . S
C474 C466 1.433 . S
C474 N476 1.384 . S
N475 C471 1.427 . S
N475 C472 1.384 . S
N476 C468 1.427 1_556 S
N476 C474 1.384 . S
H477 C483 0.930 . S
H478 C487 0.930 . S
H479 C492 0.929 . S
H480 C490 0.929 . S
H481 C485 0.929 . S
H482 C491 0.929 . S
C483 H477 0.930 . S
C483 C484 1.362 1_556 S
C483 C491 1.378 . S
C484 C483 1.362 1_554 S
C484 C492 1.439 . S
C485 H481 0.929 . S
C485 C487 1.378 . S
C485 C489 1.350 . S
C486 C489 1.463 . S
C486 C491 1.350 1_554 S
C486 N494 1.427 . S
C487 H478 0.930 . S
C487 C485 1.378 . S
C487 C488 1.367 . S
C488 C487 1.367 . S
C488 C490 1.433 1_554 S
C489 C485 1.350 . S
C489 C486 1.463 . S
C489 N493 1.427 1_554 S
C490 H480 0.929 . S
C490 C488 1.433 1_556 S
C490 N493 1.384 . S
C491 H482 0.929 . S
C491 C483 1.378 . S
C491 C486 1.350 1_556 S
C492 H479 0.929 . S
C492 C484 1.439 . S
C492 N494 1.384 . S
N493 C489 1.427 1_556 S
N493 C490 1.384 . S
N494 C486 1.427 . S
N494 C492 1.384 . S
H495 C501 0.930 . S
H496 C505 0.930 . S
H497 C510 0.929 . S
H498 C508 0.929 . S
H499 C503 0.929 . S
H500 C509 0.929 . S
C501 H495 0.930 . S
C501 C502 1.367 1_556 S
C501 C509 1.378 . S
C502 C501 1.367 1_554 S
C502 C510 1.433 . S
C503 H499 0.929 . S
C503 C505 1.378 . S
C503 C507 1.350 . S
C504 C507 1.463 . S
C504 C509 1.350 1_554 S
C504 N512 1.427 . S
C505 H496 0.930 . S
C505 C503 1.378 . S
C505 C506 1.367 . S
C506 C505 1.367 . S
C506 C508 1.433 1_554 S
C507 C503 1.350 . S
C507 C504 1.463 . S
C507 N511 1.427 1_554 S
C508 H498 0.929 . S
C508 C506 1.433 1_556 S
C508 N511 1.384 . S
C509 H500 0.929 . S
C509 C501 1.378 . S
C509 C504 1.350 1_556 S
C510 H497 0.929 . S
C510 C502 1.433 . S
C510 N512 1.384 . S
N511 C507 1.427 1_556 S
N511 C508 1.384 . S
N512 C504 1.427 . S
N512 C510 1.384 . S
H513 C519 0.930 . S
H514 C523 0.930 . S
H515 C528 0.929 . S
H516 C526 0.929 . S
H517 C521 0.929 . S
H518 C527 0.929 . S
C519 H513 0.930 . S
C519 C520 1.367 . S
C519 C527 1.378 . S
C520 C519 1.367 . S
C520 C528 1.433 . S
C521 H517 0.929 . S
C521 C523 1.378 . S
C521 C525 1.350 . S
C522 C525 1.463 . S
C522 C527 1.350 . S
C522 N530 1.427 . S
C523 H514 0.930 . S
C523 C521 1.378 . S
C523 C524 1.367 . S
C524 C523 1.367 . S
C524 C526 1.433 . S
C525 C521 1.350 . S
C525 C522 1.463 . S
C525 N529 1.427 . S
C526 H516 0.929 . S
C526 C524 1.433 . S
C526 N529 1.384 . S
C527 H518 0.929 . S
C527 C519 1.378 . S
C527 C522 1.350 . S
C528 H515 0.929 . S
C528 C520 1.433 . S
C528 N530 1.384 . S
N529 C525 1.427 . S
N529 C526 1.384 . S
N530 C522 1.427 . S
N530 C528 1.384 . S
H531 C537 0.930 . S
H532 C541 0.930 . S
H533 C546 0.929 . S
H534 C544 0.929 . S
H535 C539 0.929 . S
H536 C545 0.929 . S
C537 H531 0.930 . S
C537 C538 1.367 1_556 S
C537 C545 1.378 . S
C538 C537 1.367 1_554 S
C538 C546 1.433 . S
C539 H535 0.929 . S
C539 C541 1.378 . S
C539 C543 1.350 . S
C540 C543 1.463 . S
C540 C545 1.350 1_554 S
C540 N548 1.427 . S
C541 H532 0.930 . S
C541 C539 1.378 . S
C541 C542 1.367 . S
C542 C541 1.367 . S
C542 C544 1.433 1_554 S
C543 C539 1.350 . S
C543 C540 1.463 . S
C543 N547 1.427 1_554 S
C544 H534 0.929 . S
C544 C542 1.433 1_556 S
C544 N547 1.384 . S
C545 H536 0.929 . S
C545 C537 1.378 . S
C545 C540 1.350 1_556 S
C546 H533 0.929 . S
C546 C538 1.433 . S
C546 N548 1.384 . S
N547 C543 1.427 1_556 S
N547 C544 1.384 . S
N548 C540 1.427 . S
N548 C546 1.384 . S
H549 C555 0.930 . S
H550 C559 0.930 . S
H551 C564 0.929 . S
H552 C562 0.929 . S
H553 C557 0.929 . S
H554 C563 0.929 . S
C555 H549 0.930 . S
C555 C556 1.367 . S
C555 C563 1.378 . S
C556 C555 1.367 . S
C556 C564 1.433 1_554 S
C557 H553 0.929 . S
C557 C559 1.378 . S
C557 C561 1.350 1_556 S
C558 C561 1.463 . S
C558 C563 1.350 . S
C558 N566 1.427 1_554 S
C559 H550 0.930 . S
C559 C557 1.378 . S
C559 C560 1.367 1_556 S
C560 C559 1.367 1_554 S
C560 C562 1.433 . S
C561 C557 1.350 1_554 S
C561 C558 1.463 . S
C561 N565 1.427 . S
C562 H552 0.929 . S
C562 C560 1.433 . S
C562 N565 1.384 . S
C563 H554 0.929 . S
C563 C555 1.378 . S
C563 C558 1.350 . S
C564 H551 0.929 . S
C564 C556 1.433 1_556 S
C564 N566 1.384 . S
N565 C561 1.427 . S
N565 C562 1.384 . S
N566 C558 1.427 1_556 S
N566 C564 1.384 . S
H567 C573 0.930 . S
H568 C577 0.930 . S
H569 C582 0.929 . S
H570 C580 0.929 . S
H571 C575 0.929 . S
H572 C581 0.929 . S
C573 H567 0.930 . S
C573 C574 1.367 1_556 S
C573 C581 1.378 . S
C574 C573 1.367 1_554 S
C574 C582 1.433 . S
C575 H571 0.929 . S
C575 C577 1.378 . S
C575 C579 1.350 . S
C576 C579 1.463 . S
C576 C581 1.350 1_554 S
C576 N584 1.427 . S
C577 H568 0.930 . S
C577 C575 1.378 . S
C577 C578 1.367 . S
C578 C577 1.367 . S
C578 C580 1.433 1_554 S
C579 C575 1.350 . S
C579 C576 1.463 . S
C579 N583 1.427 1_554 S
C580 H570 0.929 . S
C580 C578 1.433 1_556 S
C580 N583 1.384 . S
C581 H572 0.929 . S
C581 C573 1.378 . S
C581 C576 1.350 1_556 S
C582 H569 0.929 . S
C582 C574 1.433 . S
C582 N584 1.384 . S
N583 C579 1.427 1_556 S
N583 C580 1.384 . S
N584 C576 1.427 . S
N584 C582 1.384 . S
H585 C591 0.930 . S
H586 C595 0.930 . S
H587 C600 0.929 . S
H588 C598 0.929 . S
H589 C593 0.929 . S
H590 C599 0.929 . S
C591 H585 0.930 . S
C591 C592 1.367 . S
C591 C599 1.378 . S
C592 C591 1.367 . S
C592 C600 1.433 1_554 S
C593 H589 0.929 . S
C593 C595 1.378 . S
C593 C597 1.350 1_556 S
C594 C597 1.463 . S
C594 C599 1.350 . S
C594 N602 1.427 1_554 S
C595 H586 0.930 . S
C595 C593 1.378 . S
C595 C596 1.367 1_556 S
C596 C595 1.367 1_554 S
C596 C598 1.433 . S
C597 C593 1.350 1_554 S
C597 C594 1.463 . S
C597 N601 1.427 . S
C598 H588 0.929 . S
C598 C596 1.433 . S
C598 N601 1.384 . S
C599 H590 0.929 . S
C599 C591 1.378 . S
C599 C594 1.350 . S
C600 H587 0.929 . S
C600 C592 1.433 1_556 S
C600 N602 1.384 . S
N601 C597 1.427 . S
N601 C598 1.384 . S
N602 C594 1.427 1_556 S
N602 C600 1.384 . S
H603 C609 0.930 . S
H604 C613 0.930 . S
H605 C618 0.929 . S
H606 C616 0.929 . S
H607 C611 0.929 . S
H608 C617 0.929 . S
C609 H603 0.930 . S
C609 C610 1.367 . S
C609 C617 1.378 . S
C610 C609 1.367 . S
C610 C618 1.433 . S
C611 H607 0.929 . S
C611 C613 1.378 . S
C611 C615 1.350 . S
C612 C615 1.463 . S
C612 C617 1.350 . S
C612 N620 1.427 . S
C613 H604 0.930 . S
C613 C611 1.378 . S
C613 C614 1.367 . S
C614 C613 1.367 . S
C614 C616 1.433 . S
C615 C611 1.350 . S
C615 C612 1.463 . S
C615 N619 1.427 . S
C616 H606 0.929 . S
C616 C614 1.433 . S
C616 N619 1.384 . S
C617 H608 0.929 . S
C617 C609 1.378 . S
C617 C612 1.350 . S
C618 H605 0.929 . S
C618 C610 1.433 . S
C618 N620 1.384 . S
N619 C615 1.427 . S
N619 C616 1.384 . S
N620 C612 1.427 . S
N620 C618 1.384 . S
H621 C627 0.930 . S
H622 C631 0.930 . S
H623 C636 0.929 . S
H624 C634 0.929 . S
H625 C629 0.929 . S
H626 C635 0.929 1_455 S
C627 H621 0.930 . S
C627 C628 1.367 . S
C627 C635 1.378 . S
C628 C627 1.367 . S
C628 C636 1.433 . S
C629 H625 0.929 . S
C629 C631 1.378 . S
C629 C633 1.350 . S
C630 C633 1.463 1_655 S
C630 C635 1.350 . S
C630 N638 1.427 . S
C631 H622 0.930 . S
C631 C629 1.378 . S
C631 C632 1.367 . S
C632 C631 1.367 . S
C632 C634 1.433 . S
C633 C629 1.350 . S
C633 C630 1.463 1_455 S
C633 N637 1.427 . S
C634 H624 0.929 . S
C634 C632 1.433 . S
C634 N637 1.384 . S
C635 H626 0.929 1_655 S
C635 C627 1.378 . S
C635 C630 1.350 . S
C636 H623 0.929 . S
C636 C628 1.433 . S
C636 N638 1.384 . S
N637 C633 1.427 . S
N637 C634 1.384 . S
N638 C630 1.427 . S
N638 C636 1.384 . S
H639 C645 0.930 . S
H640 C649 0.930 . S
H641 C654 0.929 . S
H642 C652 0.929 . S
H643 C647 0.929 . S
H644 C653 0.929 . S
C645 H639 0.930 . S
C645 C646 1.367 . S
C645 C653 1.378 . S
C646 C645 1.367 . S
C646 C654 1.433 . S
C647 H643 0.929 . S
C647 C649 1.378 . S
C647 C651 1.350 . S
C648 C651 1.463 . S
C648 C653 1.350 . S
C648 N656 1.427 . S
C649 H640 0.930 . S
C649 C647 1.378 . S
C649 C650 1.367 . S
C650 C649 1.367 . S
C650 C652 1.433 . S
C651 C647 1.350 . S
C651 C648 1.463 . S
C651 N655 1.427 . S
C652 H642 0.929 . S
C652 C650 1.433 . S
C652 N655 1.384 . S
C653 H644 0.929 . S
C653 C645 1.378 . S
C653 C648 1.350 . S
C654 H641 0.929 . S
C654 C646 1.433 . S
C654 N656 1.384 . S
N655 C651 1.427 . S
N655 C652 1.384 . S
N656 C648 1.427 . S
N656 C654 1.384 . S
H657 C663 0.930 . S
H658 C667 0.930 . S
H659 C672 0.929 . S
H660 C670 0.929 . S
H661 C665 0.929 . S
H662 C671 0.929 . S
C663 H657 0.930 . S
C663 C664 1.367 . S
C663 C671 1.378 . S
C664 C663 1.367 . S
C664 C672 1.433 . S
C665 H661 0.929 . S
C665 C667 1.378 . S
C665 C669 1.350 . S
C666 C669 1.463 1_545 S
C666 C671 1.350 . S
C666 N674 1.427 . S
C667 H658 0.930 . S
C667 C665 1.378 . S
C667 C668 1.367 . S
C668 C667 1.367 . S
C668 C670 1.433 . S
C669 C665 1.350 . S
C669 C666 1.463 1_565 S
C669 N673 1.427 . S
C670 H660 0.929 . S
C670 C668 1.433 . S
C670 N673 1.384 . S
C671 H662 0.929 . S
C671 C663 1.378 . S
C671 C666 1.350 . S
C672 H659 0.929 . S
C672 C664 1.433 . S
C672 N674 1.384 . S
N673 C669 1.427 . S
N673 C670 1.384 . S
N674 C666 1.427 . S
N674 C672 1.384 . S
H675 C681 0.930 . S
H676 C685 0.930 . S
H677 C690 0.929 . S
H678 C688 0.929 . S
H679 C683 0.929 . S
H680 C689 0.929 . S
C681 H675 0.930 . S
C681 C682 1.367 . S
C681 C689 1.378 . S
C682 C681 1.367 . S
C682 C690 1.433 . S
C683 H679 0.929 . S
C683 C685 1.378 . S
C683 C687 1.350 . S
C684 C687 1.463 . S
C684 C689 1.350 . S
C684 N692 1.427 . S
C685 H676 0.930 . S
C685 C683 1.378 . S
C685 C686 1.367 . S
C686 C685 1.367 . S
C686 C688 1.433 . S
C687 C683 1.350 . S
C687 C684 1.463 . S
C687 N691 1.427 . S
C688 H678 0.929 . S
C688 C686 1.433 . S
C688 N691 1.384 . S
C689 H680 0.929 . S
C689 C681 1.378 . S
C689 C684 1.350 . S
C690 H677 0.929 . S
C690 C682 1.433 . S
C690 N692 1.384 . S
N691 C687 1.427 . S
N691 C688 1.384 . S
N692 C684 1.427 . S
N692 C690 1.384 . S
H693 C699 0.930 . S
H694 C703 0.930 . S
H695 C708 0.929 . S
H696 C706 0.929 . S
H697 C701 0.929 . S
H698 C707 0.929 . S
C699 H693 0.930 . S
C699 C700 1.367 . S
C699 C707 1.378 . S
C700 C699 1.367 . S
C700 C708 1.433 . S
C701 H697 0.929 . S
C701 C703 1.378 . S
C701 C705 1.350 . S
C702 C705 1.463 . S
C702 C707 1.350 . S
C702 N710 1.427 . S
C703 H694 0.930 . S
C703 C701 1.378 . S
C703 C704 1.367 . S
C704 C703 1.367 . S
C704 C706 1.433 . S
C705 C701 1.350 . S
C705 C702 1.463 . S
C705 N709 1.427 . S
C706 H696 0.929 . S
C706 C704 1.433 . S
C706 N709 1.384 . S
C707 H698 0.929 . S
C707 C699 1.378 . S
C707 C702 1.350 . S
C708 H695 0.929 . S
C708 C700 1.433 . S
C708 N710 1.384 . S
N709 C705 1.427 . S
N709 C706 1.384 . S
N710 C702 1.427 . S
N710 C708 1.384 . S
H711 C717 0.930 . S
H712 C721 0.930 . S
H713 C726 0.929 . S
H714 C724 0.929 . S
H715 C719 0.929 . S
H716 C725 0.929 . S
C717 H711 0.930 . S
C717 C718 1.367 . S
C717 C725 1.378 . S
C718 C717 1.367 . S
C718 C726 1.433 . S
C719 H715 0.929 . S
C719 C721 1.378 . S
C719 C723 1.350 . S
C720 C723 1.463 . S
C720 C725 1.350 . S
C720 N728 1.427 . S
C721 H712 0.930 . S
C721 C719 1.378 . S
C721 C722 1.367 . S
C722 C721 1.367 . S
C722 C724 1.433 . S
C723 C719 1.350 . S
C723 C720 1.463 . S
C723 N727 1.427 . S
C724 H714 0.929 . S
C724 C722 1.433 . S
C724 N727 1.384 . S
C725 H716 0.929 . S
C725 C717 1.378 . S
C725 C720 1.350 . S
C726 H713 0.929 . S
C726 C718 1.433 . S
C726 N728 1.384 . S
N727 C723 1.427 . S
N727 C724 1.384 . S
N728 C720 1.427 . S
N728 C726 1.384 . S
H729 C735 0.930 . S
H730 C739 0.930 . S
H731 C744 0.929 . S
H732 C742 0.929 . S
H733 C737 0.929 . S
H734 C743 0.929 . S
C735 H729 0.930 . S
C735 C736 1.367 . S
C735 C743 1.378 . S
C736 C735 1.367 . S
C736 C744 1.433 . S
C737 H733 0.929 . S
C737 C739 1.378 . S
C737 C741 1.350 . S
C738 C741 1.463 . S
C738 C743 1.350 . S
C738 N746 1.427 . S
C739 H730 0.930 . S
C739 C737 1.378 . S
C739 C740 1.367 . S
C740 C739 1.367 . S
C740 C742 1.433 . S
C741 C737 1.350 . S
C741 C738 1.463 . S
C741 N745 1.427 . S
C742 H732 0.929 . S
C742 C740 1.433 . S
C742 N745 1.384 . S
C743 H734 0.929 . S
C743 C735 1.378 . S
C743 C738 1.350 . S
C744 H731 0.929 . S
C744 C736 1.433 . S
C744 N746 1.384 . S
N745 C741 1.427 . S
N745 C742 1.384 . S
N746 C738 1.427 . S
N746 C744 1.384 . S
H747 C753 0.930 . S
H748 C757 0.930 . S
H749 C762 0.929 . S
H750 C760 0.929 . S
H751 C755 0.929 . S
H752 C761 0.929 . S
C753 H747 0.930 . S
C753 C754 1.367 . S
C753 C761 1.378 . S
C754 C753 1.367 . S
C754 C762 1.433 . S
C755 H751 0.929 . S
C755 C757 1.378 . S
C755 C759 1.350 . S
C756 C759 1.463 . S
C756 C761 1.350 . S
C756 N764 1.427 . S
C757 H748 0.930 . S
C757 C755 1.378 . S
C757 C758 1.367 . S
C758 C757 1.367 . S
C758 C760 1.433 . S
C759 C755 1.350 . S
C759 C756 1.463 . S
C759 N763 1.427 . S
C760 H750 0.929 . S
C760 C758 1.433 . S
C760 N763 1.384 . S
C761 H752 0.929 . S
C761 C753 1.378 . S
C761 C756 1.350 . S
C762 H749 0.929 . S
C762 C754 1.433 . S
C762 N764 1.384 . S
N763 C759 1.427 . S
N763 C760 1.384 . S
N764 C756 1.427 . S
N764 C762 1.384 . S
H765 C771 0.930 . S
H766 C775 0.930 . S
H767 C780 0.929 . S
H768 C778 0.929 . S
H769 C773 0.929 . S
H770 C779 0.929 . S
C771 H765 0.930 . S
C771 C772 1.367 . S
C771 C779 1.378 . S
C772 C771 1.367 . S
C772 C780 1.433 . S
C773 H769 0.929 . S
C773 C775 1.378 . S
C773 C777 1.350 . S
C774 C777 1.463 . S
C774 C779 1.350 . S
C774 N782 1.427 . S
C775 H766 0.930 . S
C775 C773 1.378 . S
C775 C776 1.367 . S
C776 C775 1.367 . S
C776 C778 1.433 . S
C777 C773 1.350 . S
C777 C774 1.463 . S
C777 N781 1.427 . S
C778 H768 0.929 . S
C778 C776 1.433 . S
C778 N781 1.384 . S
C779 H770 0.929 . S
C779 C771 1.378 . S
C779 C774 1.350 . S
C780 H767 0.929 . S
C780 C772 1.433 . S
C780 N782 1.384 . S
N781 C777 1.427 . S
N781 C778 1.384 . S
N782 C774 1.427 . S
N782 C780 1.384 . S
H783 C789 0.930 . S
H784 C793 0.930 . S
H785 C798 0.929 . S
H786 C796 0.929 . S
H787 C791 0.929 . S
H788 C797 0.929 . S
C789 H783 0.930 . S
C789 C790 1.367 . S
C789 C797 1.378 1_545 S
C790 C789 1.367 . S
C790 C798 1.433 . S
C791 H787 0.929 . S
C791 C793 1.378 . S
C791 C795 1.350 . S
C792 C795 1.463 . S
C792 C797 1.350 . S
C792 N800 1.427 . S
C793 H784 0.930 . S
C793 C791 1.378 . S
C793 C794 1.367 . S
C794 C793 1.367 . S
C794 C796 1.433 . S
C795 C791 1.350 . S
C795 C792 1.463 . S
C795 N799 1.427 . S
C796 H786 0.929 . S
C796 C794 1.433 . S
C796 N799 1.384 . S
C797 H788 0.929 . S
C797 C789 1.378 1_565 S
C797 C792 1.350 . S
C798 H785 0.929 . S
C798 C790 1.433 . S
C798 N800 1.384 1_545 S
N799 C795 1.427 . S
N799 C796 1.384 . S
N800 C792 1.427 . S
N800 C798 1.384 1_565 S
H801 C807 0.930 . S
H802 C811 0.930 . S
H803 C816 0.929 . S
H804 C814 0.929 . S
H805 C809 0.929 . S
H806 C815 0.929 . S
C807 H801 0.930 . S
C807 C808 1.367 . S
C807 C815 1.378 1_655 S
C808 C807 1.367 . S
C808 C816 1.433 . S
C809 H805 0.929 . S
C809 C811 1.378 . S
C809 C813 1.350 . S
C810 C813 1.463 . S
C810 C815 1.350 . S
C810 N818 1.427 . S
C811 H802 0.930 . S
C811 C809 1.378 . S
C811 C812 1.367 . S
C812 C811 1.367 . S
C812 C814 1.433 . S
C813 C809 1.350 . S
C813 C810 1.463 . S
C813 N817 1.427 . S
C814 H804 0.929 . S
C814 C812 1.433 . S
C814 N817 1.384 . S
C815 H806 0.929 . S
C815 C807 1.378 1_455 S
C815 C810 1.350 . S
C816 H803 0.929 . S
C816 C808 1.433 . S
C816 N818 1.384 1_655 S
N817 C813 1.427 . S
N817 C814 1.384 . S
N818 C810 1.427 . S
N818 C816 1.384 1_455 S
H819 C825 0.930 . S
H820 C829 0.930 . S
H821 C834 0.929 . S
H822 C832 0.929 . S
H823 C827 0.929 . S
H824 C833 0.929 . S
C825 H819 0.930 . S
C825 C826 1.367 . S
C825 C833 1.378 . S
C826 C825 1.367 . S
C826 C834 1.433 . S
C827 H823 0.929 . S
C827 C829 1.378 . S
C827 C831 1.350 . S
C828 C831 1.463 . S
C828 C833 1.350 . S
C828 N836 1.427 . S
C829 H820 0.930 . S
C829 C827 1.378 . S
C829 C830 1.367 . S
C830 C829 1.367 . S
C830 C832 1.433 . S
C831 C827 1.350 . S
C831 C828 1.463 . S
C831 N835 1.427 . S
C832 H822 0.929 . S
C832 C830 1.433 . S
C832 N835 1.384 . S
C833 H824 0.929 . S
C833 C825 1.378 . S
C833 C828 1.350 . S
C834 H821 0.929 . S
C834 C826 1.433 . S
C834 N836 1.384 . S
N835 C831 1.427 . S
N835 C832 1.384 . S
N836 C828 1.427 . S
N836 C834 1.384 . S
H837 C843 0.930 . S
H838 C847 0.930 . S
H839 C852 0.929 . S
H840 C850 0.929 . S
H841 C845 0.929 . S
H842 C851 0.929 . S
C843 H837 0.930 . S
C843 C844 1.367 . S
C843 C851 1.378 . S
C844 C843 1.367 . S
C844 C852 1.433 . S
C845 H841 0.929 . S
C845 C847 1.378 . S
C845 C849 1.350 . S
C846 C849 1.463 . S
C846 C851 1.350 . S
C846 N854 1.427 . S
C847 H838 0.930 . S
C847 C845 1.378 . S
C847 C848 1.367 . S
C848 C847 1.367 . S
C848 C850 1.433 . S
C849 C845 1.350 . S
C849 C846 1.463 . S
C849 N853 1.427 . S
C850 H840 0.929 . S
C850 C848 1.433 . S
C850 N853 1.384 . S
C851 H842 0.929 . S
C851 C843 1.378 . S
C851 C846 1.350 . S
C852 H839 0.929 . S
C852 C844 1.433 . S
C852 N854 1.384 . S
N853 C849 1.427 . S
N853 C850 1.384 . S
N854 C846 1.427 . S
N854 C852 1.384 . S
H855 C861 0.930 . S
H856 C865 0.930 . S
H857 C870 0.929 . S
H858 C868 0.929 . S
H859 C863 0.929 . S
H860 C869 0.929 . S
C861 H855 0.930 . S
C861 C862 1.367 . S
C861 C869 1.378 . S
C862 C861 1.367 . S
C862 C870 1.433 . S
C863 H859 0.929 . S
C863 C865 1.378 . S
C863 C867 1.350 . S
C864 C867 1.463 . S
C864 C869 1.350 . S
C864 N872 1.427 . S
C865 H856 0.930 . S
C865 C863 1.378 . S
C865 C866 1.367 . S
C866 C865 1.367 . S
C866 C868 1.433 . S
C867 C863 1.350 . S
C867 C864 1.463 . S
C867 N871 1.427 . S
C868 H858 0.929 . S
C868 C866 1.433 . S
C868 N871 1.384 . S
C869 H860 0.929 . S
C869 C861 1.378 . S
C869 C864 1.350 . S
C870 H857 0.929 . S
C870 C862 1.433 . S
C870 N872 1.384 . S
N871 C867 1.427 . S
N871 C868 1.384 . S
N872 C864 1.427 . S
N872 C870 1.384 . S
H873 C879 0.930 . S
H874 C883 0.930 . S
H875 C888 0.929 . S
H876 C886 0.929 . S
H877 C881 0.929 . S
H878 C887 0.929 . S
C879 H873 0.930 . S
C879 C880 1.367 . S
C879 C887 1.378 . S
C880 C879 1.367 . S
C880 C888 1.433 . S
C881 H877 0.929 . S
C881 C883 1.378 . S
C881 C885 1.350 . S
C882 C885 1.463 . S
C882 C887 1.350 . S
C882 N890 1.427 . S
C883 H874 0.930 . S
C883 C881 1.378 . S
C883 C884 1.367 . S
C884 C883 1.367 . S
C884 C886 1.433 . S
C885 C881 1.350 . S
C885 C882 1.463 . S
C885 N889 1.427 . S
C886 H876 0.929 . S
C886 C884 1.433 . S
C886 N889 1.384 . S
C887 H878 0.929 . S
C887 C879 1.378 . S
C887 C882 1.350 . S
C888 H875 0.929 . S
C888 C880 1.433 . S
C888 N890 1.384 . S
N889 C885 1.427 . S
N889 C886 1.384 . S
N890 C882 1.427 . S
N890 C888 1.384 . S
H891 C897 0.930 . S
H892 C901 0.930 . S
H893 C906 0.929 . S
H894 C904 0.929 . S
H895 C899 0.929 . S
H896 C905 0.929 . S
C897 H891 0.930 . S
C897 C898 1.367 . S
C897 C905 1.378 . S
C898 C897 1.367 . S
C898 C906 1.433 . S
C899 H895 0.929 . S
C899 C901 1.378 . S
C899 C903 1.350 . S
C900 C903 1.463 1_565 S
C900 C905 1.350 . S
C900 N908 1.427 . S
C901 H892 0.930 . S
C901 C899 1.378 . S
C901 C902 1.367 . S
C902 C901 1.367 . S
C902 C904 1.433 . S
C903 C899 1.350 . S
C903 C900 1.463 1_545 S
C903 N907 1.427 . S
C904 H894 0.929 . S
C904 C902 1.433 . S
C904 N907 1.384 . S
C905 H896 0.929 . S
C905 C897 1.378 . S
C905 C900 1.350 . S
C906 H893 0.929 . S
C906 C898 1.433 . S
C906 N908 1.384 . S
N907 C903 1.427 . S
N907 C904 1.384 . S
N908 C900 1.427 . S
N908 C906 1.384 . S
H909 C915 0.930 . S
H910 C919 0.930 . S
H911 C924 0.929 . S
H912 C922 0.929 . S
H913 C917 0.929 . S
H914 C923 0.929 . S
C915 H909 0.930 . S
C915 C916 1.367 . S
C915 C923 1.378 . S
C916 C915 1.367 . S
C916 C924 1.433 . S
C917 H913 0.929 . S
C917 C919 1.378 . S
C917 C921 1.350 . S
C918 C921 1.463 1_455 S
C918 C923 1.350 . S
C918 N926 1.427 . S
C919 H910 0.930 . S
C919 C917 1.378 . S
C919 C920 1.367 . S
C920 C919 1.367 . S
C920 C922 1.433 . S
C921 C917 1.350 . S
C921 C918 1.463 1_655 S
C921 N925 1.427 . S
C922 H912 0.929 . S
C922 C920 1.433 . S
C922 N925 1.384 . S
C923 H914 0.929 . S
C923 C915 1.378 . S
C923 C918 1.350 . S
C924 H911 0.929 . S
C924 C916 1.433 . S
C924 N926 1.384 . S
N925 C921 1.427 . S
N925 C922 1.384 . S
N926 C918 1.427 . S
N926 C924 1.384 . S
H927 C933 0.930 . S
H928 C937 0.930 . S
H929 C942 0.929 . S
H930 C940 0.929 . S
H931 C935 0.929 . S
H932 C941 0.929 . S
C933 H927 0.930 . S
C933 C934 1.367 . S
C933 C941 1.378 . S
C934 C933 1.367 . S
C934 C942 1.433 . S
C935 H931 0.929 . S
C935 C937 1.378 . S
C935 C939 1.350 . S
C936 C939 1.463 . S
C936 C941 1.350 . S
C936 N944 1.427 . S
C937 H928 0.930 . S
C937 C935 1.378 . S
C937 C938 1.367 . S
C938 C937 1.367 . S
C938 C940 1.433 . S
C939 C935 1.350 . S
C939 C936 1.463 . S
C939 N943 1.427 . S
C940 H930 0.929 . S
C940 C938 1.433 . S
C940 N943 1.384 . S
C941 H932 0.929 . S
C941 C933 1.378 . S
C941 C936 1.350 . S
C942 H929 0.929 . S
C942 C934 1.433 . S
C942 N944 1.384 . S
N943 C939 1.427 . S
N943 C940 1.384 . S
N944 C936 1.427 . S
N944 C942 1.384 . S
H945 C951 0.930 . S
H946 C955 0.930 . S
H947 C960 0.929 . S
H948 C958 0.929 . S
H949 C953 0.929 . S
H950 C959 0.929 1_655 S
C951 H945 0.930 . S
C951 C952 1.367 . S
C951 C959 1.378 . S
C952 C951 1.367 . S
C952 C960 1.433 . S
C953 H949 0.929 . S
C953 C955 1.378 . S
C953 C957 1.350 . S
C954 C957 1.463 . S
C954 C959 1.350 1_655 S
C954 N962 1.427 1_655 S
C955 H946 0.930 . S
C955 C953 1.378 . S
C955 C956 1.367 . S
C956 C955 1.367 . S
C956 C958 1.433 . S
C957 C953 1.350 . S
C957 C954 1.463 . S
C957 N961 1.427 . S
C958 H948 0.929 . S
C958 C956 1.433 . S
C958 N961 1.384 . S
C959 H950 0.929 1_455 S
C959 C951 1.378 . S
C959 C954 1.350 1_455 S
C960 H947 0.929 . S
C960 C952 1.433 . S
C960 N962 1.384 . S
N961 C957 1.427 . S
N961 C958 1.384 . S
N962 C954 1.427 1_455 S
N962 C960 1.384 . S
H963 C969 0.930 . S
H964 C973 0.930 . S
H965 C978 0.929 . S
H966 C976 0.929 . S
H967 C971 0.929 . S
H968 C977 0.929 . S
C969 H963 0.930 . S
C969 C970 1.367 . S
C969 C977 1.378 . S
C970 C969 1.367 . S
C970 C978 1.433 . S
C971 H967 0.929 . S
C971 C973 1.378 . S
C971 C975 1.350 . S
C972 C975 1.463 . S
C972 C977 1.350 . S
C972 N980 1.427 . S
C973 H964 0.930 . S
C973 C971 1.378 . S
C973 C974 1.367 . S
C974 C973 1.367 . S
C974 C976 1.433 . S
C975 C971 1.350 . S
C975 C972 1.463 . S
C975 N979 1.427 . S
C976 H966 0.929 . S
C976 C974 1.433 . S
C976 N979 1.384 . S
C977 H968 0.929 . S
C977 C969 1.378 . S
C977 C972 1.350 . S
C978 H965 0.929 . S
C978 C970 1.433 . S
C978 N980 1.384 . S
N979 C975 1.427 . S
N979 C976 1.384 . S
N980 C972 1.427 . S
N980 C978 1.384 . S
H981 C987 0.930 . S
H982 C991 0.930 . S
H983 C996 0.929 . S
H984 C994 0.929 . S
H985 C989 0.929 . S
H986 C995 0.929 . S
C987 H981 0.930 . S
C987 C988 1.367 . S
C987 C995 1.378 1_565 S
C988 C987 1.367 . S
C988 C996 1.433 . S
C989 H985 0.929 . S
C989 C991 1.378 . S
C989 C993 1.350 . S
C990 C993 1.463 . S
C990 C995 1.350 . S
C990 N998 1.427 . S
C991 H982 0.930 . S
C991 C989 1.378 . S
C991 C992 1.367 . S
C992 C991 1.367 . S
C992 C994 1.433 . S
C993 C989 1.350 . S
C993 C990 1.463 . S
C993 N997 1.427 . S
C994 H984 0.929 . S
C994 C992 1.433 . S
C994 N997 1.384 . S
C995 H986 0.929 . S
C995 C987 1.378 1_545 S
C995 C990 1.350 . S
C996 H983 0.929 . S
C996 C988 1.433 . S
C996 N998 1.384 1_565 S
N997 C993 1.427 . S
N997 C994 1.384 . S
N998 C990 1.427 . S
N998 C996 1.384 1_545 S
H999 C1005 0.930 . S
H1000 C1009 0.930 . S
H1001 C1014 0.929 . S
H1002 C1012 0.929 . S
H1003 C1007 0.929 . S
H1004 C1013 0.929 . S
C1005 H999 0.930 . S
C1005 C1006 1.367 . S
C1005 C1013 1.378 . S
C1006 C1005 1.367 . S
C1006 C1014 1.433 . S
C1007 H1003 0.929 . S
C1007 C1009 1.378 . S
C1007 C1011 1.350 . S
C1008 C1011 1.463 . S
C1008 C1013 1.350 . S
C1008 N1016 1.427 . S
C1009 H1000 0.930 . S
C1009 C1007 1.378 . S
C1009 C1010 1.367 . S
C1010 C1009 1.367 . S
C1010 C1012 1.433 . S
C1011 C1007 1.350 . S
C1011 C1008 1.463 . S
C1011 N1015 1.427 . S
C1012 H1002 0.929 . S
C1012 C1010 1.433 . S
C1012 N1015 1.384 . S
C1013 H1004 0.929 . S
C1013 C1005 1.378 . S
C1013 C1008 1.350 . S
C1014 H1001 0.929 . S
C1014 C1006 1.433 . S
C1014 N1016 1.384 . S
N1015 C1011 1.427 . S
N1015 C1012 1.384 . S
N1016 C1008 1.427 . S
N1016 C1014 1.384 . S
H1017 C1023 0.930 . S
H1018 C1027 0.930 . S
H1019 C1032 0.929 . S
H1020 C1030 0.929 . S
H1021 C1025 0.929 . S
H1022 C1031 0.929 . S
C1023 H1017 0.930 . S
C1023 C1024 1.367 . S
C1023 C1031 1.378 . S
C1024 C1023 1.367 . S
C1024 C1032 1.433 . S
C1025 H1021 0.929 . S
C1025 C1027 1.378 . S
C1025 C1029 1.350 . S
C1026 C1029 1.463 . S
C1026 C1031 1.350 . S
C1026 N1034 1.427 . S
C1027 H1018 0.930 . S
C1027 C1025 1.378 . S
C1027 C1028 1.367 . S
C1028 C1027 1.367 . S
C1028 C1030 1.433 . S
C1029 C1025 1.350 . S
C1029 C1026 1.463 . S
C1029 N1033 1.427 . S
C1030 H1020 0.929 . S
C1030 C1028 1.433 . S
C1030 N1033 1.384 . S
C1031 H1022 0.929 . S
C1031 C1023 1.378 . S
C1031 C1026 1.350 . S
C1032 H1019 0.929 . S
C1032 C1024 1.433 . S
C1032 N1034 1.384 . S
N1033 C1029 1.427 . S
N1033 C1030 1.384 . S
N1034 C1026 1.427 . S
N1034 C1032 1.384 . S
H1035 C1041 0.930 . S
H1036 C1045 0.930 . S
H1037 C1050 0.929 . S
H1038 C1048 0.929 . S
H1039 C1043 0.929 . S
H1040 C1049 0.929 . S
C1041 H1035 0.930 . S
C1041 C1042 1.367 . S
C1041 C1049 1.378 . S
C1042 C1041 1.367 . S
C1042 C1050 1.433 . S
C1043 H1039 0.929 . S
C1043 C1045 1.378 . S
C1043 C1047 1.350 . S
C1044 C1047 1.463 . S
C1044 C1049 1.350 . S
C1044 N1052 1.427 . S
C1045 H1036 0.930 . S
C1045 C1043 1.378 . S
C1045 C1046 1.367 . S
C1046 C1045 1.367 . S
C1046 C1048 1.433 . S
C1047 C1043 1.350 . S
C1047 C1044 1.463 . S
C1047 N1051 1.427 . S
C1048 H1038 0.929 . S
C1048 C1046 1.433 . S
C1048 N1051 1.384 . S
C1049 H1040 0.929 . S
C1049 C1041 1.378 . S
C1049 C1044 1.350 . S
C1050 H1037 0.929 . S
C1050 C1042 1.433 . S
C1050 N1052 1.384 . S
N1051 C1047 1.427 . S
N1051 C1048 1.384 . S
N1052 C1044 1.427 . S
N1052 C1050 1.384 . S
H1053 C1059 0.930 . S
H1054 C1063 0.930 . S
H1055 C1068 0.929 . S
H1056 C1066 0.929 . S
H1057 C1061 0.929 . S
H1058 C1067 0.929 . S
C1059 H1053 0.930 . S
C1059 C1060 1.367 . S
C1059 C1067 1.378 . S
C1060 C1059 1.367 . S
C1060 C1068 1.433 . S
C1061 H1057 0.929 . S
C1061 C1063 1.378 . S
C1061 C1065 1.350 . S
C1062 C1065 1.463 . S
C1062 C1067 1.350 . S
C1062 N1070 1.427 . S
C1063 H1054 0.930 . S
C1063 C1061 1.378 . S
C1063 C1064 1.367 . S
C1064 C1063 1.367 . S
C1064 C1066 1.433 1_565 S
C1065 C1061 1.350 . S
C1065 C1062 1.463 . S
C1065 N1069 1.427 . S
C1066 H1056 0.929 . S
C1066 C1064 1.433 1_545 S
C1066 N1069 1.384 1_545 S
C1067 H1058 0.929 . S
C1067 C1059 1.378 . S
C1067 C1062 1.350 . S
C1068 H1055 0.929 . S
C1068 C1060 1.433 . S
C1068 N1070 1.384 . S
N1069 C1065 1.427 . S
N1069 C1066 1.384 1_565 S
N1070 C1062 1.427 . S
N1070 C1068 1.384 . S
H1071 C1077 0.930 . S
H1072 C1081 0.930 . S
H1073 C1086 0.929 . S
H1074 C1084 0.929 . S
H1075 C1079 0.929 . S
H1076 C1085 0.929 . S
C1077 H1071 0.930 . S
C1077 C1078 1.367 . S
C1077 C1085 1.378 . S
C1078 C1077 1.367 . S
C1078 C1086 1.433 . S
C1079 H1075 0.929 . S
C1079 C1081 1.378 . S
C1079 C1083 1.350 . S
C1080 C1083 1.463 . S
C1080 C1085 1.350 . S
C1080 N1088 1.427 . S
C1081 H1072 0.930 . S
C1081 C1079 1.378 . S
C1081 C1082 1.367 . S
C1082 C1081 1.367 . S
C1082 C1084 1.433 . S
C1083 C1079 1.350 . S
C1083 C1080 1.463 . S
C1083 N1087 1.427 . S
C1084 H1074 0.929 . S
C1084 C1082 1.433 . S
C1084 N1087 1.384 . S
C1085 H1076 0.929 . S
C1085 C1077 1.378 . S
C1085 C1080 1.350 . S
C1086 H1073 0.929 . S
C1086 C1078 1.433 . S
C1086 N1088 1.384 . S
N1087 C1083 1.427 . S
N1087 C1084 1.384 . S
N1088 C1080 1.427 . S
N1088 C1086 1.384 . S
H1089 C1095 0.930 . S
H1090 C1099 0.930 . S
H1091 C1104 0.929 . S
H1092 C1102 0.929 . S
H1093 C1097 0.929 . S
H1094 C1103 0.929 . S
C1095 H1089 0.930 . S
C1095 C1096 1.367 . S
C1095 C1103 1.378 . S
C1096 C1095 1.367 . S
C1096 C1104 1.433 . S
C1097 H1093 0.929 . S
C1097 C1099 1.378 . S
C1097 C1101 1.350 . S
C1098 C1101 1.463 . S
C1098 C1103 1.350 . S
C1098 N1106 1.427 . S
C1099 H1090 0.930 . S
C1099 C1097 1.378 . S
C1099 C1100 1.367 . S
C1100 C1099 1.367 . S
C1100 C1102 1.433 . S
C1101 C1097 1.350 . S
C1101 C1098 1.463 . S
C1101 N1105 1.427 . S
C1102 H1092 0.929 . S
C1102 C1100 1.433 . S
C1102 N1105 1.384 . S
C1103 H1094 0.929 . S
C1103 C1095 1.378 . S
C1103 C1098 1.350 . S
C1104 H1091 0.929 . S
C1104 C1096 1.433 . S
C1104 N1106 1.384 . S
N1105 C1101 1.427 . S
N1105 C1102 1.384 . S
N1106 C1098 1.427 . S
N1106 C1104 1.384 . S
H1107 C1113 0.930 . S
H1108 C1117 0.930 . S
H1109 C1122 0.929 . S
H1110 C1120 0.929 . S
H1111 C1115 0.929 . S
H1112 C1121 0.929 . S
C1113 H1107 0.930 . S
C1113 C1114 1.367 . S
C1113 C1121 1.378 . S
C1114 C1113 1.367 . S
C1114 C1122 1.433 . S
C1115 H1111 0.929 . S
C1115 C1117 1.378 . S
C1115 C1119 1.350 . S
C1116 C1119 1.463 . S
C1116 C1121 1.350 . S
C1116 N1124 1.427 . S
C1117 H1108 0.930 . S
C1117 C1115 1.378 . S
C1117 C1118 1.367 . S
C1118 C1117 1.367 . S
C1118 C1120 1.433 . S
C1119 C1115 1.350 . S
C1119 C1116 1.463 . S
C1119 N1123 1.427 . S
C1120 H1110 0.929 . S
C1120 C1118 1.433 . S
C1120 N1123 1.384 . S
C1121 H1112 0.929 . S
C1121 C1113 1.378 . S
C1121 C1116 1.350 . S
C1122 H1109 0.929 . S
C1122 C1114 1.433 . S
C1122 N1124 1.384 . S
N1123 C1119 1.427 . S
N1123 C1120 1.384 . S
N1124 C1116 1.427 . S
N1124 C1122 1.384 . S
H1125 C1131 0.930 . S
H1126 C1135 0.930 . S
H1127 C1140 0.929 . S
H1128 C1138 0.929 . S
H1129 C1133 0.929 . S
H1130 C1139 0.929 . S
C1131 H1125 0.930 . S
C1131 C1132 1.367 . S
C1131 C1139 1.378 . S
C1132 C1131 1.367 . S
C1132 C1140 1.433 . S
C1133 H1129 0.929 . S
C1133 C1135 1.378 . S
C1133 C1137 1.350 . S
C1134 C1137 1.463 . S
C1134 C1139 1.350 . S
C1134 N1142 1.427 . S
C1135 H1126 0.930 . S
C1135 C1133 1.378 . S
C1135 C1136 1.367 . S
C1136 C1135 1.367 . S
C1136 C1138 1.433 . S
C1137 C1133 1.350 . S
C1137 C1134 1.463 . S
C1137 N1141 1.427 . S
C1138 H1128 0.929 . S
C1138 C1136 1.433 . S
C1138 N1141 1.384 . S
C1139 H1130 0.929 . S
C1139 C1131 1.378 . S
C1139 C1134 1.350 . S
C1140 H1127 0.929 . S
C1140 C1132 1.433 . S
C1140 N1142 1.384 . S
N1141 C1137 1.427 . S
N1141 C1138 1.384 . S
N1142 C1134 1.427 . S
N1142 C1140 1.384 . S
H1143 C1149 0.930 . S
H1144 C1153 0.930 . S
H1145 C1158 0.929 . S
H1146 C1156 0.929 1_565 S
H1147 C1151 0.929 . S
H1148 C1157 0.929 . S
C1149 H1143 0.930 . S
C1149 C1150 1.367 . S
C1149 C1157 1.378 . S
C1150 C1149 1.367 . S
C1150 C1158 1.433 . S
C1151 H1147 0.929 . S
C1151 C1153 1.378 . S
C1151 C1155 1.350 . S
C1152 C1155 1.463 . S
C1152 C1157 1.350 . S
C1152 N1160 1.427 . S
C1153 H1144 0.930 . S
C1153 C1151 1.378 . S
C1153 C1154 1.367 . S
C1154 C1153 1.367 . S
C1154 C1156 1.433 . S
C1155 C1151 1.350 . S
C1155 C1152 1.463 . S
C1155 N1159 1.427 . S
C1156 H1146 0.929 1_545 S
C1156 C1154 1.433 . S
C1156 N1159 1.384 . S
C1157 H1148 0.929 . S
C1157 C1149 1.378 . S
C1157 C1152 1.350 . S
C1158 H1145 0.929 . S
C1158 C1150 1.433 . S
C1158 N1160 1.384 . S
N1159 C1155 1.427 . S
N1159 C1156 1.384 . S
N1160 C1152 1.427 . S
N1160 C1158 1.384 . S
H1161 C1167 0.930 . S
H1162 C1171 0.930 . S
H1163 C1176 0.929 . S
H1164 C1174 0.929 . S
H1165 C1169 0.929 . S
H1166 C1175 0.929 . S
C1167 H1161 0.930 . S
C1167 C1168 1.367 . S
C1167 C1175 1.378 . S
C1168 C1167 1.367 . S
C1168 C1176 1.433 . S
C1169 H1165 0.929 . S
C1169 C1171 1.378 . S
C1169 C1173 1.350 . S
C1170 C1173 1.463 . S
C1170 C1175 1.350 . S
C1170 N1178 1.427 . S
C1171 H1162 0.930 . S
C1171 C1169 1.378 . S
C1171 C1172 1.367 . S
C1172 C1171 1.367 . S
C1172 C1174 1.433 . S
C1173 C1169 1.350 . S
C1173 C1170 1.463 . S
C1173 N1177 1.427 . S
C1174 H1164 0.929 . S
C1174 C1172 1.433 . S
C1174 N1177 1.384 . S
C1175 H1166 0.929 . S
C1175 C1167 1.378 . S
C1175 C1170 1.350 . S
C1176 H1163 0.929 . S
C1176 C1168 1.433 . S
C1176 N1178 1.384 . S
N1177 C1173 1.427 . S
N1177 C1174 1.384 . S
N1178 C1170 1.427 . S
N1178 C1176 1.384 . S
H1179 C1185 0.930 . S
H1180 C1189 0.930 . S
H1181 C1194 0.929 . S
H1182 C1192 0.929 . S
H1183 C1187 0.929 . S
H1184 C1193 0.929 . S
C1185 H1179 0.930 . S
C1185 C1186 1.367 . S
C1185 C1193 1.378 . S
C1186 C1185 1.367 . S
C1186 C1194 1.433 . S
C1187 H1183 0.929 . S
C1187 C1189 1.378 . S
C1187 C1191 1.350 . S
C1188 C1191 1.463 . S
C1188 C1193 1.350 . S
C1188 N1196 1.427 . S
C1189 H1180 0.930 . S
C1189 C1187 1.378 . S
C1189 C1190 1.367 . S
C1190 C1189 1.367 . S
C1190 C1192 1.433 . S
C1191 C1187 1.350 . S
C1191 C1188 1.463 . S
C1191 N1195 1.427 . S
C1192 H1182 0.929 . S
C1192 C1190 1.433 . S
C1192 N1195 1.384 . S
C1193 H1184 0.929 . S
C1193 C1185 1.378 . S
C1193 C1188 1.350 . S
C1194 H1181 0.929 . S
C1194 C1186 1.433 . S
C1194 N1196 1.384 . S
N1195 C1191 1.427 . S
N1195 C1192 1.384 . S
N1196 C1188 1.427 . S
N1196 C1194 1.384 . S
H1197 C1203 0.930 . S
H1198 C1207 0.930 . S
H1199 C1212 0.929 . S
H1200 C1210 0.929 . S
H1201 C1205 0.929 . S
H1202 C1211 0.929 . S
C1203 H1197 0.930 . S
C1203 C1204 1.367 . S
C1203 C1211 1.378 . S
C1204 C1203 1.367 . S
C1204 C1212 1.433 . S
C1205 H1201 0.929 . S
C1205 C1207 1.378 . S
C1205 C1209 1.350 . S
C1206 C1209 1.463 . S
C1206 C1211 1.350 . S
C1206 N1214 1.427 . S
C1207 H1198 0.930 . S
C1207 C1205 1.378 . S
C1207 C1208 1.367 . S
C1208 C1207 1.367 . S
C1208 C1210 1.433 . S
C1209 C1205 1.350 . S
C1209 C1206 1.463 . S
C1209 N1213 1.427 . S
C1210 H1200 0.929 . S
C1210 C1208 1.433 . S
C1210 N1213 1.384 . S
C1211 H1202 0.929 . S
C1211 C1203 1.378 . S
C1211 C1206 1.350 . S
C1212 H1199 0.929 . S
C1212 C1204 1.433 . S
C1212 N1214 1.384 . S
N1213 C1209 1.427 . S
N1213 C1210 1.384 . S
N1214 C1206 1.427 . S
N1214 C1212 1.384 . S
H1215 C1221 0.930 . S
H1216 C1225 0.930 . S
H1217 C1230 0.929 . S
H1218 C1228 0.929 . S
H1219 C1223 0.929 . S
H1220 C1229 0.929 . S
C1221 H1215 0.930 . S
C1221 C1222 1.367 . S
C1221 C1229 1.378 . S
C1222 C1221 1.367 . S
C1222 C1230 1.433 . S
C1223 H1219 0.929 . S
C1223 C1225 1.378 . S
C1223 C1227 1.350 . S
C1224 C1227 1.463 . S
C1224 C1229 1.350 . S
C1224 N1232 1.427 . S
C1225 H1216 0.930 . S
C1225 C1223 1.378 . S
C1225 C1226 1.367 . S
C1226 C1225 1.367 . S
C1226 C1228 1.433 . S
C1227 C1223 1.350 . S
C1227 C1224 1.463 . S
C1227 N1231 1.427 . S
C1228 H1218 0.929 . S
C1228 C1226 1.433 . S
C1228 N1231 1.384 . S
C1229 H1220 0.929 . S
C1229 C1221 1.378 . S
C1229 C1224 1.350 . S
C1230 H1217 0.929 . S
C1230 C1222 1.433 . S
C1230 N1232 1.384 . S
N1231 C1227 1.427 . S
N1231 C1228 1.384 . S
N1232 C1224 1.427 . S
N1232 C1230 1.384 . S
H1233 C1239 0.930 . S
H1234 C1243 0.930 . S
H1235 C1248 0.929 . S
H1236 C1246 0.929 . S
H1237 C1241 0.929 . S
H1238 C1247 0.929 . S
C1239 H1233 0.930 . S
C1239 C1240 1.367 . S
C1239 C1247 1.378 . S
C1240 C1239 1.367 . S
C1240 C1248 1.433 . S
C1241 H1237 0.929 . S
C1241 C1243 1.378 . S
C1241 C1245 1.350 . S
C1242 C1245 1.463 . S
C1242 C1247 1.350 . S
C1242 N1250 1.427 . S
C1243 H1234 0.930 . S
C1243 C1241 1.378 . S
C1243 C1244 1.367 . S
C1244 C1243 1.367 . S
C1244 C1246 1.433 . S
C1245 C1241 1.350 . S
C1245 C1242 1.463 . S
C1245 N1249 1.427 . S
C1246 H1236 0.929 . S
C1246 C1244 1.433 . S
C1246 N1249 1.384 . S
C1247 H1238 0.929 . S
C1247 C1239 1.378 . S
C1247 C1242 1.350 . S
C1248 H1235 0.929 . S
C1248 C1240 1.433 . S
C1248 N1250 1.384 . S
N1249 C1245 1.427 . S
N1249 C1246 1.384 . S
N1250 C1242 1.427 . S
N1250 C1248 1.384 . S
H1251 C1257 0.930 . S
H1252 C1261 0.930 . S
H1253 C1266 0.929 . S
H1254 C1264 0.929 . S
H1255 C1259 0.929 . S
H1256 C1265 0.929 . S
C1257 H1251 0.930 . S
C1257 C1258 1.367 . S
C1257 C1265 1.378 . S
C1258 C1257 1.367 . S
C1258 C1266 1.433 . S
C1259 H1255 0.929 . S
C1259 C1261 1.378 . S
C1259 C1263 1.350 . S
C1260 C1263 1.463 . S
C1260 C1265 1.350 . S
C1260 N1268 1.427 . S
C1261 H1252 0.930 . S
C1261 C1259 1.378 . S
C1261 C1262 1.367 . S
C1262 C1261 1.367 . S
C1262 C1264 1.433 . S
C1263 C1259 1.350 . S
C1263 C1260 1.463 . S
C1263 N1267 1.427 . S
C1264 H1254 0.929 . S
C1264 C1262 1.433 . S
C1264 N1267 1.384 . S
C1265 H1256 0.929 . S
C1265 C1257 1.378 . S
C1265 C1260 1.350 . S
C1266 H1253 0.929 . S
C1266 C1258 1.433 . S
C1266 N1268 1.384 . S
N1267 C1263 1.427 . S
N1267 C1264 1.384 . S
N1268 C1260 1.427 . S
N1268 C1266 1.384 . S
H1269 C1275 0.930 . S
H1270 C1279 0.930 . S
H1271 C1284 0.929 . S
H1272 C1282 0.929 . S
H1273 C1277 0.929 . S
H1274 C1283 0.929 . S
C1275 H1269 0.930 . S
C1275 C1276 1.367 . S
C1275 C1283 1.378 . S
C1276 C1275 1.367 . S
C1276 C1284 1.433 . S
C1277 H1273 0.929 . S
C1277 C1279 1.378 . S
C1277 C1281 1.350 . S
C1278 C1281 1.463 . S
C1278 C1283 1.350 . S
C1278 N1286 1.427 . S
C1279 H1270 0.930 . S
C1279 C1277 1.378 . S
C1279 C1280 1.367 . S
C1280 C1279 1.367 . S
C1280 C1282 1.433 . S
C1281 C1277 1.350 . S
C1281 C1278 1.463 . S
C1281 N1285 1.427 . S
C1282 H1272 0.929 . S
C1282 C1280 1.433 . S
C1282 N1285 1.384 . S
C1283 H1274 0.929 . S
C1283 C1275 1.378 . S
C1283 C1278 1.350 . S
C1284 H1271 0.929 . S
C1284 C1276 1.433 . S
C1284 N1286 1.384 . S
N1285 C1281 1.427 . S
N1285 C1282 1.384 . S
N1286 C1278 1.427 . S
N1286 C1284 1.384 . S
H1287 C1293 0.930 . S
H1288 C1297 0.930 . S
H1289 C1302 0.929 . S
H1290 C1300 0.929 . S
H1291 C1295 0.929 . S
H1292 C1301 0.929 . S
C1293 H1287 0.930 . S
C1293 C1294 1.367 . S
C1293 C1301 1.378 . S
C1294 C1293 1.367 . S
C1294 C1302 1.433 . S
C1295 H1291 0.929 . S
C1295 C1297 1.378 . S
C1295 C1299 1.350 . S
C1296 C1299 1.463 . S
C1296 C1301 1.350 . S
C1296 N1304 1.427 . S
C1297 H1288 0.930 . S
C1297 C1295 1.378 . S
C1297 C1298 1.367 . S
C1298 C1297 1.367 . S
C1298 C1300 1.433 . S
C1299 C1295 1.350 . S
C1299 C1296 1.463 . S
C1299 N1303 1.427 . S
C1300 H1290 0.929 . S
C1300 C1298 1.433 . S
C1300 N1303 1.384 . S
C1301 H1292 0.929 . S
C1301 C1293 1.378 . S
C1301 C1296 1.350 . S
C1302 H1289 0.929 . S
C1302 C1294 1.433 . S
C1302 N1304 1.384 . S
N1303 C1299 1.427 . S
N1303 C1300 1.384 . S
N1304 C1296 1.427 . S
N1304 C1302 1.384 . S
H1305 C1311 0.930 . S
H1306 C1315 0.930 . S
H1307 C1320 0.929 . S
H1308 C1318 0.929 . S
H1309 C1313 0.929 . S
H1310 C1319 0.929 . S
C1311 H1305 0.930 . S
C1311 C1312 1.367 . S
C1311 C1319 1.378 . S
C1312 C1311 1.367 . S
C1312 C1320 1.433 . S
C1313 H1309 0.929 . S
C1313 C1315 1.378 . S
C1313 C1317 1.350 . S
C1314 C1317 1.463 . S
C1314 C1319 1.350 . S
C1314 N1322 1.427 . S
C1315 H1306 0.930 . S
C1315 C1313 1.378 . S
C1315 C1316 1.367 . S
C1316 C1315 1.367 . S
C1316 C1318 1.433 . S
C1317 C1313 1.350 . S
C1317 C1314 1.463 . S
C1317 N1321 1.427 . S
C1318 H1308 0.929 . S
C1318 C1316 1.433 . S
C1318 N1321 1.384 . S
C1319 H1310 0.929 . S
C1319 C1311 1.378 . S
C1319 C1314 1.350 . S
C1320 H1307 0.929 . S
C1320 C1312 1.433 . S
C1320 N1322 1.384 . S
N1321 C1317 1.427 . S
N1321 C1318 1.384 . S
N1322 C1314 1.427 . S
N1322 C1320 1.384 . S
H1323 C1329 0.930 . S
H1324 C1333 0.930 . S
H1325 C1338 0.929 . S
H1326 C1336 0.929 . S
H1327 C1331 0.929 . S
H1328 C1337 0.929 . S
C1329 H1323 0.930 . S
C1329 C1330 1.367 . S
C1329 C1337 1.378 . S
C1330 C1329 1.367 . S
C1330 C1338 1.433 . S
C1331 H1327 0.929 . S
C1331 C1333 1.378 . S
C1331 C1335 1.350 . S
C1332 C1335 1.463 . S
C1332 C1337 1.350 . S
C1332 N1340 1.427 . S
C1333 H1324 0.930 . S
C1333 C1331 1.378 . S
C1333 C1334 1.367 . S
C1334 C1333 1.367 . S
C1334 C1336 1.433 . S
C1335 C1331 1.350 . S
C1335 C1332 1.463 . S
C1335 N1339 1.427 . S
C1336 H1326 0.929 . S
C1336 C1334 1.433 . S
C1336 N1339 1.384 . S
C1337 H1328 0.929 . S
C1337 C1329 1.378 . S
C1337 C1332 1.350 . S
C1338 H1325 0.929 . S
C1338 C1330 1.433 . S
C1338 N1340 1.384 . S
N1339 C1335 1.427 . S
N1339 C1336 1.384 . S
N1340 C1332 1.427 . S
N1340 C1338 1.384 . S
H1341 C1347 0.930 . S
H1342 C1351 0.930 . S
H1343 C1356 0.929 . S
H1344 C1354 0.929 . S
H1345 C1349 0.929 . S
H1346 C1355 0.929 . S
C1347 H1341 0.930 . S
C1347 C1348 1.367 . S
C1347 C1355 1.378 . S
C1348 C1347 1.367 . S
C1348 C1356 1.433 . S
C1349 H1345 0.929 . S
C1349 C1351 1.378 . S
C1349 C1353 1.350 . S
C1350 C1353 1.463 . S
C1350 C1355 1.350 . S
C1350 N1358 1.427 . S
C1351 H1342 0.930 . S
C1351 C1349 1.378 . S
C1351 C1352 1.367 . S
C1352 C1351 1.367 . S
C1352 C1354 1.433 . S
C1353 C1349 1.350 . S
C1353 C1350 1.463 . S
C1353 N1357 1.427 . S
C1354 H1344 0.929 . S
C1354 C1352 1.433 . S
C1354 N1357 1.384 . S
C1355 H1346 0.929 . S
C1355 C1347 1.378 . S
C1355 C1350 1.350 . S
C1356 H1343 0.929 . S
C1356 C1348 1.433 . S
C1356 N1358 1.384 . S
N1357 C1353 1.427 . S
N1357 C1354 1.384 . S
N1358 C1350 1.427 . S
N1358 C1356 1.384 . S
H1359 C1365 0.930 . S
H1360 C1369 0.930 . S
H1361 C1374 0.929 . S
H1362 C1372 0.929 . S
H1363 C1367 0.929 . S
H1364 C1373 0.929 . S
C1365 H1359 0.930 . S
C1365 C1366 1.367 . S
C1365 C1373 1.378 . S
C1366 C1365 1.367 . S
C1366 C1374 1.433 . S
C1367 H1363 0.929 . S
C1367 C1369 1.378 . S
C1367 C1371 1.350 . S
C1368 C1371 1.463 . S
C1368 C1373 1.350 . S
C1368 N1376 1.427 . S
C1369 H1360 0.930 . S
C1369 C1367 1.378 . S
C1369 C1370 1.367 . S
C1370 C1369 1.367 . S
C1370 C1372 1.433 . S
C1371 C1367 1.350 . S
C1371 C1368 1.463 . S
C1371 N1375 1.427 . S
C1372 H1362 0.929 . S
C1372 C1370 1.433 . S
C1372 N1375 1.384 . S
C1373 H1364 0.929 . S
C1373 C1365 1.378 . S
C1373 C1368 1.350 . S
C1374 H1361 0.929 . S
C1374 C1366 1.433 . S
C1374 N1376 1.384 . S
N1375 C1371 1.427 . S
N1375 C1372 1.384 . S
N1376 C1368 1.427 . S
N1376 C1374 1.384 . S
C412 C162 1.436 . S
C416 C233 1.401 . S
C430 C174 1.414 . S
C434 C254 1.373 . S
C448 C150 1.382 . S
C452 C276 1.245 . S
C466 C138 1.372 . S
C470 C255 1.226 . S
C488 C275 1.377 . S
C484 C114 1.417 1_554 S
C502 C126 1.381 1_554 S
C506 C234 1.216 . S
C524 C229 1.397 . S
C520 C136 1.440 1_554 S
C542 C250 1.414 . S
C538 C112 1.417 . S
C556 C124 1.493 . S
C560 C273 1.277 . S
C574 C160 1.468 . S
C578 C252 1.275 1_554 S
C592 C172 1.405 . S
C596 C271 1.391 . S
C614 C231 1.264 1_554 S
C610 C148 1.481 . S
C632 C296 1.397 . S
C628 C18 1.429 . S
C646 C30 1.414 . S
C650 C317 1.386 . S
C664 C6 1.383 . S
C668 C339 1.236 . S
C682 C210 1.362 . S
C686 C318 1.206 . S
C700 C186 1.426 . S
C704 C338 1.382 . S
C718 C198 1.390 . S
C722 C297 1.242 . S
C736 C208 1.434 . S
C740 C292 1.402 . S
C754 C184 1.427 . S
C758 C313 1.397 . S
C776 C336 1.275 . S
C772 C196 1.480 . S
C790 C16 1.455 . S
C794 C315 1.268 . S
C812 C334 1.392 . S
C808 C28 1.405 . S
C826 C4 1.488 . S
C830 C294 1.279 . S
C848 C359 1.401 . S
C844 C90 1.427 . S
C862 C102 1.417 . S
C866 C380 1.370 . S
C884 C402 1.221 . S
C880 C78 1.373 . S
C902 C381 1.226 . S
C898 C66 1.372 . S
C920 C401 1.386 . S
C916 C42 1.425 . S
C934 C54 1.381 . S
C938 C360 1.216 . S
C952 C64 1.445 . S
C956 C355 1.397 . S
C970 C40 1.427 . S
C974 C376 1.396 . S
C992 C399 1.275 . S
C988 C52 1.480 . S
C1006 C88 1.468 . S
C1010 C378 1.270 . S
C1024 C100 1.405 . S
C1028 C397 1.389 . S
C1042 C76 1.485 . S
C1046 C357 1.272 . S
C1060 C189 1.495 . S
C1064 C232 1.473 . S
C1082 C253 1.520 . S
C1078 C201 1.541 . S
C1096 C213 1.559 . S
C1100 C272 1.501 . S
C1114 C81 1.629 . S
C1118 C251 1.568 . S
C1132 C93 1.561 . S
C1136 C274 1.549 . S
C1154 C230 1.521 . S
C1150 C105 1.580 . S
C1168 C45 1.491 . S
C1172 C295 1.477 . S
C1186 C57 1.539 . S
C1190 C316 1.522 . S
C1204 C69 1.559 . S
C1208 C335 1.500 . S
C1222 C153 1.624 . S
C1226 C314 1.554 . S
C1244 C337 1.541 . S
C1240 C165 1.565 . S
C1258 C177 1.581 . S
C1262 C293 1.524 . S
C1276 C117 1.490 . S
C1280 C358 1.479 . S
C1294 C129 1.540 . S
C1298 C379 1.521 . S
C1316 C398 1.486 . S
C1312 C141 1.554 . S
C1330 C9 1.625 . S
C1334 C377 1.554 . S
C1348 C21 1.565 . S
C1352 C400 1.541 . S
C1366 C33 1.581 . S
C1370 C356 1.524 . S
