# Generated by pormake.
# Topology tsx, (6,3)-cn, num edge types: 1
# Building blocks:
#     Node 0, Type 0, BuildingBlock: JUFBIX_clean_sbu_0, # of connection points: 6
#     Node 1, Type 0, BuildingBlock: JUFBIX_clean_sbu_0, # of connection points: 6
#     Node 2, Type 1, BuildingBlock: CUQRIR_clean_linker_1, # of connection points: 3
#     Node 3, Type 1, BuildingBlock: CUQRIR_clean_linker_1, # of connection points: 3
#     Node 4, Type 1, BuildingBlock: CUQRIR_clean_linker_1, # of connection points: 3
#     Node 5, Type 1, BuildingBlock: CUQRIR_clean_linker_1, # of connection points: 3
#     Edge 6, Type (0, 1), BuildingBlock: KIFKEQ_clean_linker_1, # of connection points: 2
#     Edge 7, Type (0, 1), BuildingBlock: KIFKEQ_clean_linker_1, # of connection points: 2
#     Edge 8, Type (0, 1), BuildingBlock: KIFKEQ_clean_linker_1, # of connection points: 2
#     Edge 9, Type (0, 1), BuildingBlock: KIFKEQ_clean_linker_1, # of connection points: 2
#     Edge 10, Type (0, 1), BuildingBlock: KIFKEQ_clean_linker_1, # of connection points: 2
#     Edge 11, Type (0, 1), BuildingBlock: KIFKEQ_clean_linker_1, # of connection points: 2
#     Edge 12, Type (0, 1), BuildingBlock: KIFKEQ_clean_linker_1, # of connection points: 2
#     Edge 13, Type (0, 1), BuildingBlock: KIFKEQ_clean_linker_1, # of connection points: 2
#     Edge 14, Type (0, 1), BuildingBlock: KIFKEQ_clean_linker_1, # of connection points: 2
#     Edge 15, Type (0, 1), BuildingBlock: KIFKEQ_clean_linker_1, # of connection points: 2
#     Edge 16, Type (0, 1), BuildingBlock: KIFKEQ_clean_linker_1, # of connection points: 2
#     Edge 17, Type (0, 1), BuildingBlock: KIFKEQ_clean_linker_1, # of connection points: 2
# Relax obj value: 0.138
# Max RMSD: 0.159
# Mean RMSD: 0.147
data_MOF--net-tsx--node1-JUFBIX_clean_sbu_0--node2-CUQRIR_clean_linker_1--edge1-KIFKEQ_clean_linker_1
_symmetry_space_group_name_H-M    P1
_symmetry_Int_Tables_number       1
_symmetry_cell_setting            triclinic
loop_
_symmetry_equiv_pos_as_xyz
'x, y, z'
_cell_length_a     18.656824
_cell_length_b     22.209367
_cell_length_c     31.866764
_cell_angle_alpha  81.399784
_cell_angle_beta   89.962346
_cell_angle_gamma 99.626654
loop_
_atom_site_label
_atom_site_type_symbol
_atom_site_fract_x
_atom_site_fract_y
_atom_site_fract_z
_atom_type_partial_charge
Co0 Co 0.11404 0.07654 0.98794 0.0
C1 C 0.04788 0.12205 0.91409 0.0
Co2 Co 1.02254 0.12479 -0.00163 0.0
C3 C 0.20926 0.98408 0.98516 0.0
C4 C 0.25383 0.07424 0.95294 0.0
N5 N 0.19454 0.04211 0.97541 0.0
N6 N 0.2759 0.97979 0.97037 0.0
C7 C 0.30391 0.03635 0.95018 0.0
H8 H 0.17219 0.94588 0.0027 0.0
H9 H 0.26017 0.1222 0.93865 0.0
C10 C 0.0915 0.07904 0.07183 0.0
N11 N 0.94443 0.16161 0.01004 0.0
C12 C 0.92412 0.21242 0.98791 0.0
C13 C 0.89657 0.14445 0.04302 0.0
N14 N 0.86534 0.22807 0.00572 0.0
C15 C 0.84809 0.18511 0.04054 0.0
C16 C 0.98198 0.99722 -0.00085 0.0
O17 O 0.12955 0.05834 0.04611 0.0
O18 O 0.04254 0.10989 0.05769 0.0
O19 O 0.9606 0.04744 0.00333 0.0
O20 O 0.04918 0.99805 -0.00915 0.0
O21 O 1.00428 0.13871 0.93898 0.0
H22 H 0.89721 0.10512 0.06748 0.0
H23 H 0.95215 0.23704 0.95911 0.0
O24 O 0.09893 0.09501 0.92934 0.0
O25 O 0.17609 0.15517 0.98657 0.0
O26 O 0.08409 0.20236 -0.00622 0.0
C27 C 0.15206 0.20467 0.98946 0.0
H28 H 0.35598 0.04873 0.93335 0.0
H29 H 0.80425 0.18321 0.06315 0.0
Co30 Co 0.57574 0.4443 0.51093 0.0
C31 C 0.54925 0.49412 0.42759 0.0
Co32 Co 0.48555 0.4991 0.50433 0.0
C33 C 0.66061 0.34909 0.49897 0.0
C34 C 0.71095 0.41022 0.54039 0.0
N35 N 0.65336 0.40076 0.51521 0.0
N36 N 0.71983 0.32552 0.51354 0.0
C37 C 0.75177 0.36427 0.53941 0.0
H38 H 0.62134 0.32755 0.47843 0.0
H39 H 0.72117 0.4469 0.55956 0.0
C40 C 0.51551 0.45114 0.5879 0.0
N41 N 0.40414 0.53924 0.50241 0.0
C42 C 0.38434 0.58827 0.47706 0.0
C43 C 0.34652 0.5176 0.52923 0.0
N44 N 0.31651 0.59732 0.48725 0.0
C45 C 0.29356 0.55294 0.52034 0.0
C46 C 0.44298 0.37238 0.50372 0.0
O47 O 0.56375 0.42853 0.57046 0.0
O48 O 0.47602 0.48321 0.56477 0.0
O49 O 0.42179 0.4242 0.50072 0.0
O50 O 0.51024 0.37015 0.50748 0.0
O51 O 0.49801 0.51458 0.44445 0.0
H52 H 0.34245 0.47761 0.55361 0.0
H53 H 0.41816 0.61566 0.45113 0.0
O54 O 0.58809 0.46129 0.45091 0.0
O55 O 0.63949 0.51933 0.51538 0.0
O56 O 0.55036 0.57356 0.50825 0.0
C57 C 0.61747 0.57089 0.5138 0.0
H58 H 0.80071 0.35939 0.55689 0.0
H59 H 0.24201 0.54633 0.53741 0.0
C60 C 0.9607 0.93472 0.43023 0.0
N61 N 1.01518 0.92794 0.40407 0.0
N62 N 0.94471 0.99251 0.42158 0.0
C63 C 0.91895 0.88356 0.46133 0.0
C64 C 0.9902 0.02015 0.38875 0.0
N65 N 0.03335 0.98109 0.37815 0.0
C66 C 0.98848 0.08409 0.36537 0.0
H67 H 0.88059 0.85335 0.4437 0.0
H68 H 0.88705 0.9021 0.48422 0.0
H69 H 0.95629 0.85474 0.47814 0.0
H70 H 0.03738 0.11588 0.37319 0.0
H71 H 0.93953 0.1021 0.37425 0.0
H72 H 0.98906 0.08393 0.33058 0.0
C73 C 1.01363 0.97313 0.57317 0.0
N74 N 0.03943 0.01976 0.59486 0.0
N75 N 0.95 0.94088 0.59102 0.0
C76 C 0.0491 0.96059 0.53377 0.0
C77 C 0.93842 0.96945 0.62449 0.0
N78 N 0.99234 0.01783 0.62651 0.0
C79 C 0.87851 0.94637 0.65756 0.0
H80 H 0.08788 0.92839 0.54292 0.0
H81 H 0.07934 1.00355 0.51525 0.0
H82 H 1.00808 0.93896 0.51347 0.0
H83 H 0.89796 0.95367 0.6896 0.0
H84 H 0.85742 0.89651 0.65809 0.0
H85 H 0.8333 0.97263 0.65015 0.0
C86 C 0.59146 0.62333 0.9166 0.0
N87 N 0.59782 0.57391 0.89742 0.0
N88 N 0.53462 0.64985 0.90085 0.0
C89 C 0.63965 0.64423 0.95129 0.0
C90 C 0.50784 0.61558 0.87097 0.0
N91 N 0.54573 0.56922 0.86914 0.0
C92 C 0.44717 0.6299 0.84202 0.0
H93 H 0.69704 0.65476 0.93973 0.0
H94 H 0.63555 0.60647 0.9787 0.0
H95 H 0.62618 0.6865 0.96152 0.0
H96 H 0.4584 0.6213 0.80944 0.0
H97 H 0.4397 0.67868 0.84065 0.0
H98 H 0.39583 0.59943 0.85421 0.0
C99 C 0.54293 0.605 0.05927 0.0
N100 N 0.59538 0.62348 0.08615 0.0
N101 N 0.51203 0.54566 0.07195 0.0
C102 C 0.51376 0.64666 0.02466 0.0
C103 C 0.54661 0.52862 0.10788 0.0
N104 N 0.59767 0.57594 0.11663 0.0
C105 C 0.52729 0.46694 0.13591 0.0
H106 H 0.45935 0.6539 0.03483 0.0
H107 H 0.50593 0.62314 -0.00359 0.0
H108 H 0.54928 0.69228 0.01707 0.0
H109 H 0.57602 0.44432 0.13987 0.0
H110 H 0.48394 0.43533 0.12261 0.0
H111 H 0.50926 0.47388 0.16778 0.0
H112 H 0.30049 0.2256 0.98122 0.0
H113 H 0.11861 0.31568 0.00295 0.0
H114 H 0.38437 0.31722 -0.00601 0.0
H115 H 0.20269 0.40761 0.01524 0.0
H116 H 0.37499 0.50522 0.10138 0.0
H117 H 0.28425 0.42929 0.07345 0.0
H118 H 0.43209 0.42713 0.96941 0.0
H119 H 0.52289 0.50271 -0.00173 0.0
C120 C 0.27838 0.26532 0.98799 0.0
C121 C 0.20283 0.26303 -0.00849 0.0
C122 C 0.32651 0.31804 -0.00495 0.0
C123 C 0.30019 0.36959 0.00593 0.0
C124 C 0.22465 0.36835 0.00748 0.0
C125 C 0.1765 0.31573 0.00025 0.0
C126 C 0.38695 0.48914 0.07212 0.0
C127 C 0.45532 0.50885 0.05195 0.0
C128 C 0.33525 0.446 0.05598 0.0
C129 C 0.35121 0.4218 0.01933 0.0
C130 C 0.41862 0.44428 -0.00203 0.0
C131 C 0.47021 0.48762 0.01415 0.0
H132 H 0.41319 0.97017 -0.0088 0.0
H133 H 0.21489 0.86984 0.94974 0.0
H134 H 0.47728 0.88593 0.98125 0.0
H135 H 0.27892 0.78677 0.93703 0.0
H136 H 0.4008 0.62964 0.9358 0.0
H137 H 0.33698 0.70477 0.96155 0.0
H138 H 0.5245 0.84702 0.92556 0.0
H139 H 0.58887 0.76998 0.90225 0.0
C140 C 0.38339 0.92943 0.98035 0.0
C141 C 0.3094 0.92603 0.97128 0.0
C142 C 0.4201 0.88151 0.97408 0.0
C143 C 0.38393 0.82969 0.95754 0.0
C144 C 0.30874 0.82533 0.95029 0.0
C145 C 0.27175 0.87282 0.9575 0.0
C146 C 0.42803 0.67708 0.93387 0.0
C147 C 0.49952 0.69444 0.91747 0.0
C148 C 0.39156 0.72025 0.94834 0.0
C149 C 0.42508 0.7824 0.94555 0.0
C150 C 0.49717 0.79949 0.92915 0.0
C151 C 0.53412 0.75576 0.91547 0.0
H152 H 1.00586 0.879 0.02743 0.0
H153 H 0.83598 0.98438 0.98968 0.0
H154 H 0.91383 0.78751 0.05029 0.0
H155 H 0.74452 0.89323 0.01049 0.0
H156 H 0.59143 0.7427 0.0928 0.0
H157 H 0.68753 0.83159 0.07083 0.0
H158 H 0.82369 0.70927 0.03152 0.0
H159 H 0.72813 0.62095 0.05566 0.0
C160 C 0.94896 0.88222 0.02311 0.0
C161 C 0.92828 0.93899 0.00693 0.0
C162 C 0.89597 0.82978 0.03625 0.0
C163 C 0.8211 0.83279 0.03303 0.0
C164 C 0.80113 0.88914 0.01486 0.0
C165 C 0.85381 0.94145 0.00237 0.0
C166 C 0.64255 0.73534 0.08007 0.0
C167 C 0.65326 0.6755 0.07624 0.0
C168 C 0.6974 0.78608 0.06689 0.0
C169 C 0.76382 0.77813 0.0489 0.0
C170 C 0.77421 0.71759 0.04568 0.0
C171 C 0.71962 0.66693 0.05939 0.0
H172 H 0.73248 0.24673 0.03166 0.0
H173 H 0.91376 0.32758 0.9452 0.0
H174 H 0.67105 0.33229 0.0065 0.0
H175 H 0.8498 0.41104 0.91819 0.0
H176 H 0.74396 0.58401 0.90585 0.0
H177 H 0.81058 0.5015 0.93425 0.0
H178 H 0.60898 0.37094 0.94677 0.0
H179 H 0.54304 0.45446 0.92104 0.0
C180 C 0.75959 0.2824 0.00731 0.0
C181 C 0.82857 0.27937 -0.00938 0.0
C182 C 0.72361 0.33138 -0.0076 0.0
C183 C 0.75504 0.37852 0.96 0.0
C184 C 0.82413 0.37595 0.94347 0.0
C185 C 0.86053 0.32725 0.95868 0.0
C186 C 0.7142 0.53784 0.91556 0.0
C187 C 0.63843 0.5255 0.91219 0.0
C188 C 0.75226 0.49032 0.93116 0.0
C189 C 0.71519 0.42942 0.94316 0.0
C190 C 0.63932 0.41731 0.9388 0.0
C191 C 0.60151 0.46486 0.92362 0.0
H192 H 0.74333 0.57379 0.55675 0.0
H193 H 0.60747 0.69236 0.48839 0.0
H194 H 0.82411 0.66346 0.57434 0.0
H195 H 0.69103 0.78298 0.50343 0.0
H196 H 0.80681 0.92957 0.5767 0.0
H197 H 0.72724 0.8402 0.55676 0.0
H198 H 0.9127 0.74719 0.5518 0.0
H199 H 0.99023 0.8352 0.57508 0.0
C200 C 0.7316 0.61929 0.54474 0.0
C201 C 0.66902 0.62613 0.5213 0.0
C202 C 0.7783 0.67097 0.55459 0.0
C203 C 0.76453 0.731 0.54045 0.0
C204 C 0.70278 0.73768 0.51582 0.0
C205 C 0.65509 0.68579 0.50681 0.0
C206 C 0.82988 0.88951 0.57172 0.0
C207 C 0.90424 0.88885 0.57749 0.0
C208 C 0.7847 0.83856 0.55966 0.0
C209 C 0.81315 0.786 0.55243 0.0
C210 C 0.88816 0.78601 0.55782 0.0
C211 C 0.93302 0.8367 0.57056 0.0
H212 H 0.79245 0.25051 0.56624 0.0
H213 H 0.69795 0.27185 0.44246 0.0
H214 H 0.83645 0.15851 0.55127 0.0
H215 H 0.74286 0.18018 0.42704 0.0
H216 H 0.80146 0.99573 0.41448 0.0
H217 H 0.73626 0.06954 0.44221 0.0
H218 H 0.92965 0.13703 0.50736 0.0
H219 H 0.9929 0.0633 0.47965 0.0
C220 C 0.78129 0.23572 0.53571 0.0
C221 C 0.74242 0.26911 0.50532 0.0
C222 C 0.80638 0.18276 0.52715 0.0
C223 C 0.79366 0.16185 0.48784 0.0
C224 C 0.75281 0.1942 0.45792 0.0
C225 C 0.72731 0.24705 0.46662 0.0
C226 C 0.82844 0.02498 0.43605 0.0
C227 C 0.90134 0.02333 0.44584 0.0
C228 C 0.79183 0.06783 0.45141 0.0
C229 C 0.82778 0.10983 0.47675 0.0
C230 C 0.89962 0.10513 0.48848 0.0
C231 C 0.93597 0.06262 0.47295 0.0
H232 H 0.30326 0.35848 0.47751 0.0
H233 H 0.45911 0.25841 0.54398 0.0
H234 H 0.20735 0.27001 0.49772 0.0
H235 H 0.36272 0.17099 0.56629 0.0
H236 H 0.17738 1.00647 0.57789 0.0
H237 H 0.27739 0.08844 0.54969 0.0
H238 H 0.13925 0.22439 0.55937 0.0
H239 H 0.03861 0.14164 0.5844 0.0
C240 C 0.31705 0.31721 0.4961 0.0
C241 C 0.38849 0.31533 0.50928 0.0
C242 C 0.26195 0.26675 0.50821 0.0
C243 C 0.27674 0.21372 0.53454 0.0
C244 C 0.34915 0.21076 0.54584 0.0
C245 C 0.40457 0.26091 0.53303 0.0
C246 C 0.16887 0.05402 0.5736 0.0
C247 C 0.10057 0.06812 0.58276 0.0
C248 C 0.2261 0.10104 0.55783 0.0
C249 C 0.21639 0.16322 0.55166 0.0
C250 C 0.1484 0.17708 0.56251 0.0
C251 C 0.09105 0.12996 0.57761 0.0
H252 H 0.16972 0.58821 0.48848 0.0
H253 H 0.36715 0.71088 0.44158 0.0
H254 H 0.09943 0.66793 0.46509 0.0
H255 H 0.29536 0.79049 0.41485 0.0
H256 H 0.15592 0.94195 0.42328 0.0
H257 H 0.23113 0.86155 0.43809 0.0
H258 H 0.04929 0.72579 0.41068 0.0
H259 H 0.97395 0.80672 0.39827 0.0
C260 C 0.19843 0.63223 0.47288 0.0
C261 C 0.27477 0.64324 0.46795 0.0
C262 C 0.15749 0.67803 0.45859 0.0
C263 C 0.19109 0.73638 0.43803 0.0
C264 C 0.26731 0.74668 0.43126 0.0
C265 C 0.30864 0.70071 0.44611 0.0
C266 C 0.13267 0.89474 0.42036 0.0
C267 C 0.05936 0.88004 0.41013 0.0
C268 C 0.17577 0.84861 0.42846 0.0
C269 C 0.14676 0.78653 0.42589 0.0
C270 C 0.07353 0.77254 0.41408 0.0
C271 C 0.03018 0.81872 0.40671 0.0
H272 H 0.05504 0.1426 0.13319 0.0
H273 H 0.15441 0.98614 0.11393 0.0
H274 H 0.06772 0.11691 0.20984 0.0
H275 H 0.16545 0.95981 0.19078 0.0
H276 H 1.01626 0.90167 0.322 0.0
H277 H 0.05364 0.92556 0.24719 0.0
H278 H 0.17134 0.10247 0.2684 0.0
H279 H 0.13709 0.07666 0.34418 0.0
C280 C 0.08015 0.10313 0.14534 0.0
C281 C 0.10323 0.0661 0.11776 0.0
C282 C 0.08816 0.08887 0.18905 0.0
C283 C 0.11814 0.03674 0.20592 0.0
C284 C 0.14274 1.00049 0.17834 0.0
C285 C 0.13615 0.01549 0.13453 0.0
C286 C 0.05315 0.94424 0.3111 0.0
C287 C 0.07257 0.988 0.33838 0.0
C288 C 0.07418 0.95808 0.2683 0.0
C289 C 0.11416 0.01624 0.25216 0.0
C290 C 0.13973 0.0576 0.28022 0.0
C291 C 0.12004 0.04302 0.32331 0.0
H292 H 0.15437 0.15506 0.85362 0.0
H293 H 0.92153 0.10595 0.87096 0.0
H294 H 0.14361 0.14898 0.77819 0.0
H295 H 0.9104 0.09577 0.79586 0.0
H296 H 0.90467 0.08792 0.6562 0.0
H297 H 0.91922 0.13295 0.72213 0.0
H298 H 0.12236 0.0643 0.74214 0.0
H299 H 0.10799 0.02201 0.67595 0.0
C300 C 0.10071 0.14375 0.84097 0.0
C301 C 0.0388 0.13037 0.86789 0.0
C302 C 0.09448 0.13968 0.79786 0.0
C303 C 0.02635 0.12024 0.78098 0.0
C304 C 0.96377 0.11119 0.80753 0.0
C305 C 0.96996 0.11679 0.85063 0.0
C306 C 0.95288 0.08399 0.67462 0.0
C307 C 1.00528 0.05172 0.66156 0.0
C308 C 0.96115 0.10926 0.71236 0.0
C309 C 1.02178 0.10211 0.73777 0.0
C310 C 0.07563 0.07201 0.72325 0.0
C311 C 0.06754 0.04743 0.68544 0.0
H312 H 0.41345 0.48782 0.6351 0.0
H313 H 0.60563 0.40207 0.64613 0.0
H314 H 0.41704 0.49562 0.71039 0.0
H315 H 0.60862 0.40933 0.7218 0.0
H316 H 0.42515 0.49439 0.84895 0.0
H317 H 0.41081 0.44402 0.78526 0.0
H318 H 0.63996 0.50385 0.75494 0.0
H319 H 0.65321 0.55425 0.81812 0.0
C320 C 0.45548 0.46934 0.6538 0.0
C321 C 0.51001 0.44538 0.63456 0.0
C322 C 0.45715 0.47327 0.69707 0.0
C323 C 0.5135 0.45351 0.7219 0.0
C324 C 0.56503 0.4255 0.70328 0.0
C325 C 0.56318 0.42128 0.65999 0.0
C326 C 0.47229 0.4956 0.82881 0.0
C327 C 0.53987 0.52908 0.83744 0.0
C328 C 0.46429 0.46681 0.79262 0.0
C329 C 0.52407 0.47069 0.76488 0.0
C330 C 0.59297 0.49957 0.77582 0.0
C331 C 0.6007 0.52857 0.81184 0.0
H332 H 0.67273 0.48294 0.38542 0.0
H333 H 0.46712 0.54679 0.36625 0.0
H334 H 0.70499 0.51662 0.31051 0.0
H335 H 0.49769 0.57794 0.29114 0.0
H336 H 0.5689 0.66034 0.16314 0.0
H337 H 0.57115 0.64963 0.2403 0.0
H338 H 0.6762 0.48963 0.24316 0.0
H339 H 0.67867 0.50413 0.16572 0.0
C340 C 0.63406 0.50362 0.36509 0.0
C341 C 0.56711 0.51187 0.38171 0.0
C342 C 0.65264 0.523 0.3221 0.0
C343 C 0.60436 0.55052 0.29461 0.0
C344 C 0.53725 0.55848 0.3114 0.0
C345 C 0.51911 0.53981 0.35444 0.0
C346 C 0.59573 0.62493 0.18031 0.0
C347 C 0.62217 0.58218 0.1588 0.0
C348 C 0.59555 0.61777 0.22457 0.0
C349 C 0.62101 0.56717 0.24816 0.0
C350 C 0.65539 0.52882 0.22625 0.0
C351 C 0.65667 0.53681 0.18187 0.0
loop_
_geom_bond_atom_site_label_1
_geom_bond_atom_site_label_2
_geom_bond_distance
_geom_bond_site_symmetry_2
_ccdc_geom_bond_type
Co0 N5 2.057 . S
Co0 O17 2.021 . S
Co0 O20 2.062 1_455 S
Co0 O24 2.117 1_564 S
Co0 O25 2.020 1_565 S
C1 O21 1.259 1_455 S
C1 O24 1.258 . S
Co2 N11 2.057 . S
Co2 O18 2.117 . S
Co2 O19 2.020 1_545 S
Co2 O21 2.021 1_554 S
Co2 O26 2.062 1_654 S
C3 N5 1.316 . S
C3 N6 1.347 . S
C3 H8 0.931 . S
C4 N5 1.375 1_556 S
C4 C7 1.350 . S
C4 H9 0.930 . S
N5 Co0 2.057 . S
N5 C3 1.316 . S
N5 C4 1.375 1_554 S
N6 C3 1.347 . S
N6 C7 1.373 1_554 S
C7 C4 1.350 . S
C7 N6 1.373 1_556 S
C7 H28 0.931 . S
H8 C3 0.931 . S
H9 C4 0.930 . S
C10 O17 1.259 1_545 S
C10 O18 1.258 1_455 S
N11 Co2 2.057 . S
N11 C12 1.316 1_554 S
N11 C13 1.375 . S
C12 N11 1.316 1_556 S
C12 N14 1.347 1_556 S
C12 H23 0.931 . S
C13 N11 1.375 . S
C13 C15 1.350 . S
C13 H22 0.930 . S
N14 C12 1.347 1_554 S
N14 C15 1.373 . S
C15 C13 1.350 . S
C15 N14 1.373 . S
C15 H29 0.931 . S
C16 O19 1.256 . S
C16 O20 1.255 . S
O17 Co0 2.021 . S
O17 C10 1.259 1_565 S
O18 Co2 2.117 . S
O18 C10 1.258 1_655 S
O19 Co2 2.020 1_565 S
O19 C16 1.256 . S
O20 Co0 2.062 1_655 S
O20 C16 1.255 . S
O21 C1 1.259 1_655 S
O21 Co2 2.021 1_556 S
H22 C13 0.930 . S
H23 C12 0.931 . S
O24 Co0 2.117 1_546 S
O24 C1 1.258 . S
O25 Co0 2.020 1_545 S
O25 C27 1.256 . S
O26 Co2 2.062 1_456 S
O26 C27 1.254 1_556 S
C27 O25 1.256 . S
C27 O26 1.254 1_554 S
H28 C7 0.931 . S
H29 C15 0.931 . S
Co30 N35 2.057 . S
Co30 O47 2.021 . S
Co30 O50 2.062 . S
Co30 O54 2.117 . S
Co30 O55 2.020 . S
C31 O51 1.259 . S
C31 O54 1.258 . S
Co32 N41 2.057 . S
Co32 O48 2.117 . S
Co32 O49 2.020 . S
Co32 O51 2.021 . S
Co32 O56 2.062 . S
C33 N35 1.316 . S
C33 N36 1.347 . S
C33 H38 0.931 . S
C34 N35 1.375 . S
C34 C37 1.350 . S
C34 H39 0.930 . S
N35 Co30 2.057 . S
N35 C33 1.316 . S
N35 C34 1.375 . S
N36 C33 1.347 . S
N36 C37 1.373 . S
C37 C34 1.350 . S
C37 N36 1.373 . S
C37 H58 0.931 . S
H38 C33 0.931 . S
H39 C34 0.930 . S
C40 O47 1.259 . S
C40 O48 1.258 . S
N41 Co32 2.057 . S
N41 C42 1.316 . S
N41 C43 1.375 . S
C42 N41 1.316 . S
C42 N44 1.347 . S
C42 H53 0.931 . S
C43 N41 1.375 . S
C43 C45 1.350 . S
C43 H52 0.930 . S
N44 C42 1.347 . S
N44 C45 1.373 . S
C45 C43 1.350 . S
C45 N44 1.373 . S
C45 H59 0.931 . S
C46 O49 1.256 . S
C46 O50 1.255 . S
O47 Co30 2.021 . S
O47 C40 1.259 . S
O48 Co32 2.117 . S
O48 C40 1.258 . S
O49 Co32 2.020 . S
O49 C46 1.256 . S
O50 Co30 2.062 . S
O50 C46 1.255 . S
O51 C31 1.259 . S
O51 Co32 2.021 . S
H52 C43 0.930 . S
H53 C42 0.931 . S
O54 Co30 2.117 . S
O54 C31 1.258 . S
O55 Co30 2.020 . S
O55 C57 1.256 . S
O56 Co32 2.062 . S
O56 C57 1.255 . S
C57 O55 1.256 . S
C57 O56 1.255 . S
H58 C37 0.931 . S
H59 C45 0.931 . S
C60 N61 1.317 1_545 S
C60 N62 1.348 1_455 S
C60 C63 1.485 1_545 S
N61 C60 1.317 1_565 S
N61 N65 1.371 . S
N62 C60 1.348 1_655 S
N62 C64 1.346 . S
C63 C60 1.485 1_565 S
C63 H67 0.960 1_455 S
C63 H68 0.961 1_565 S
C63 H69 0.960 . S
C64 N62 1.346 . S
C64 N65 1.304 1_645 S
C64 C66 1.486 . S
N65 N61 1.371 . S
N65 C64 1.304 1_465 S
C66 C64 1.486 . S
C66 H70 0.960 . S
C66 H71 0.960 . S
C66 H72 0.959 . S
H67 C63 0.960 1_655 S
H68 C63 0.961 1_545 S
H69 C63 0.960 . S
H70 C66 0.960 . S
H71 C66 0.960 . S
H72 C66 0.959 . S
C73 N74 1.317 . S
C73 N75 1.348 1_445 S
C73 C76 1.485 . S
N74 C73 1.317 . S
N74 N78 1.370 . S
N75 C73 1.348 1_665 S
N75 C77 1.346 . S
C76 C73 1.485 . S
C76 H80 0.960 1_455 S
C76 H81 0.961 . S
C76 H82 0.960 . S
C77 N75 1.346 . S
C77 N78 1.307 1_665 S
C77 C79 1.486 . S
N78 N74 1.370 . S
N78 C77 1.307 1_445 S
C79 C77 1.486 . S
C79 H83 0.960 . S
C79 H84 0.960 . S
C79 H85 0.959 . S
H80 C76 0.960 1_655 S
H81 C76 0.961 . S
H82 C76 0.960 . S
H83 C79 0.960 . S
H84 C79 0.960 . S
H85 C79 0.959 . S
C86 N87 1.317 . S
C86 N88 1.348 . S
C86 C89 1.485 1_556 S
N87 C86 1.317 . S
N87 N91 1.370 . S
N88 C86 1.348 . S
N88 C90 1.346 . S
C89 C86 1.485 1_554 S
C89 H93 0.960 . S
C89 H94 0.961 . S
C89 H95 0.960 . S
C90 N88 1.346 . S
C90 N91 1.307 . S
C90 C92 1.486 . S
N91 N87 1.370 . S
N91 C90 1.307 . S
C92 C90 1.486 . S
C92 H96 0.960 . S
C92 H97 0.960 . S
C92 H98 0.959 . S
H93 C89 0.960 . S
H94 C89 0.961 . S
H95 C89 0.960 . S
H96 C92 0.960 . S
H97 C92 0.960 . S
H98 C92 0.959 . S
C99 N100 1.317 . S
C99 N101 1.348 . S
C99 C102 1.485 1_554 S
N100 C99 1.317 . S
N100 N104 1.370 . S
N101 C99 1.348 . S
N101 C103 1.346 . S
C102 C99 1.485 1_556 S
C102 H106 0.960 . S
C102 H107 0.961 . S
C102 H108 0.960 . S
C103 N101 1.346 . S
C103 N104 1.307 . S
C103 C105 1.486 . S
N104 N100 1.370 . S
N104 C103 1.307 . S
C105 C103 1.486 . S
C105 H109 0.960 . S
C105 H110 0.960 . S
C105 H111 0.959 . S
H106 C102 0.960 . S
H107 C102 0.961 . S
H108 C102 0.960 . S
H109 C105 0.960 . S
H110 C105 0.960 . S
H111 C105 0.959 . S
H112 C120 0.950 . S
H113 C125 0.950 . S
H114 C122 0.950 . S
H115 C124 0.950 . S
H116 C126 0.950 . S
H117 C128 0.950 . S
H118 C130 0.950 . S
H119 C131 0.950 . S
C120 H112 0.950 . S
C120 C121 1.386 . S
C120 C122 1.391 . S
C121 C120 1.386 . S
C121 C125 1.393 1_554 S
C122 H114 0.950 . S
C122 C120 1.391 . S
C122 C123 1.400 . S
C123 C122 1.400 . S
C123 C124 1.398 . S
C123 C129 1.491 . S
C124 H115 0.950 . S
C124 C123 1.398 . S
C124 C125 1.391 1_554 S
C125 H113 0.950 . S
C125 C121 1.393 1_556 S
C125 C124 1.391 1_556 S
C126 H116 0.950 . S
C126 C127 1.386 . S
C126 C128 1.391 . S
C127 C126 1.386 . S
C127 C131 1.393 . S
C128 H117 0.950 . S
C128 C126 1.391 . S
C128 C129 1.400 . S
C129 C123 1.491 . S
C129 C128 1.400 . S
C129 C130 1.398 . S
C130 H118 0.950 . S
C130 C129 1.398 . S
C130 C131 1.391 . S
C131 H119 0.950 . S
C131 C127 1.393 . S
C131 C130 1.391 . S
H132 C140 0.950 . S
H133 C145 0.950 . S
H134 C142 0.950 . S
H135 C144 0.950 . S
H136 C146 0.950 1_554 S
H137 C148 0.950 . S
H138 C150 0.950 . S
H139 C151 0.950 . S
C140 H132 0.950 . S
C140 C141 1.386 1_556 S
C140 C142 1.391 . S
C141 C140 1.386 1_554 S
C141 C145 1.393 . S
C142 H134 0.950 . S
C142 C140 1.391 . S
C142 C143 1.400 1_556 S
C143 C142 1.400 1_554 S
C143 C144 1.398 . S
C143 C149 1.491 1_554 S
C144 H135 0.950 . S
C144 C143 1.398 . S
C144 C145 1.391 . S
C145 H133 0.950 . S
C145 C141 1.393 . S
C145 C144 1.391 . S
C146 H136 0.950 1_556 S
C146 C147 1.385 . S
C146 C148 1.391 1_556 S
C147 C146 1.385 . S
C147 C151 1.393 . S
C148 H137 0.950 . S
C148 C146 1.391 1_554 S
C148 C149 1.400 1_554 S
C149 C143 1.491 1_556 S
C149 C148 1.400 1_556 S
C149 C150 1.398 . S
C150 H138 0.950 . S
C150 C149 1.398 . S
C150 C151 1.391 . S
C151 H139 0.950 . S
C151 C147 1.393 . S
C151 C150 1.391 . S
H152 C160 0.950 . S
H153 C165 0.950 . S
H154 C162 0.950 . S
H155 C164 0.950 . S
H156 C166 0.950 1_556 S
H157 C168 0.950 1_556 S
H158 C170 0.950 . S
H159 C171 0.950 . S
C160 H152 0.950 . S
C160 C161 1.386 . S
C160 C162 1.391 . S
C161 C160 1.386 . S
C161 C165 1.393 1_554 S
C162 H154 0.950 . S
C162 C160 1.391 . S
C162 C163 1.400 . S
C163 C162 1.400 . S
C163 C164 1.398 1_554 S
C163 C169 1.491 . S
C164 H155 0.950 . S
C164 C163 1.398 1_556 S
C164 C165 1.391 . S
C165 H153 0.950 . S
C165 C161 1.393 1_556 S
C165 C164 1.391 . S
C166 H156 0.950 1_554 S
C166 C167 1.386 . S
C166 C168 1.391 . S
C167 C166 1.386 . S
C167 C171 1.393 . S
C168 H157 0.950 1_554 S
C168 C166 1.391 . S
C168 C169 1.400 . S
C169 C163 1.491 . S
C169 C168 1.400 . S
C169 C170 1.398 . S
C170 H158 0.950 . S
C170 C169 1.398 . S
C170 C171 1.391 . S
C171 H159 0.950 . S
C171 C167 1.393 . S
C171 C170 1.391 . S
H172 C180 0.950 . S
H173 C185 0.950 . S
H174 C182 0.950 . S
H175 C184 0.950 . S
H176 C186 0.950 . S
H177 C188 0.950 . S
H178 C190 0.950 . S
H179 C191 0.950 . S
C180 H172 0.950 . S
C180 C181 1.386 1_554 S
C180 C182 1.391 . S
C181 C180 1.386 1_556 S
C181 C185 1.393 . S
C182 H174 0.950 . S
C182 C180 1.391 . S
C182 C183 1.400 1_554 S
C183 C182 1.400 1_556 S
C183 C184 1.398 . S
C183 C189 1.491 . S
C184 H175 0.950 . S
C184 C183 1.398 . S
C184 C185 1.391 . S
C185 H173 0.950 . S
C185 C181 1.393 . S
C185 C184 1.391 . S
C186 H176 0.950 . S
C186 C187 1.386 . S
C186 C188 1.391 . S
C187 C186 1.386 . S
C187 C191 1.393 1_556 S
C188 H177 0.950 . S
C188 C186 1.391 . S
C188 C189 1.400 . S
C189 C183 1.491 . S
C189 C188 1.400 . S
C189 C190 1.398 1_556 S
C190 H178 0.950 . S
C190 C189 1.398 1_554 S
C190 C191 1.391 . S
C191 H179 0.950 . S
C191 C187 1.393 1_554 S
C191 C190 1.391 . S
H192 C200 0.950 . S
H193 C205 0.950 . S
H194 C202 0.950 . S
H195 C204 0.950 . S
H196 C206 0.950 . S
H197 C208 0.950 . S
H198 C210 0.950 . S
H199 C211 0.950 . S
C200 H192 0.950 . S
C200 C201 1.386 . S
C200 C202 1.391 . S
C201 C200 1.386 . S
C201 C205 1.393 . S
C202 H194 0.950 . S
C202 C200 1.391 . S
C202 C203 1.400 . S
C203 C202 1.400 . S
C203 C204 1.398 . S
C203 C209 1.491 . S
C204 H195 0.950 . S
C204 C203 1.398 . S
C204 C205 1.391 . S
C205 H193 0.950 . S
C205 C201 1.393 . S
C205 C204 1.391 . S
C206 H196 0.950 . S
C206 C207 1.386 . S
C206 C208 1.391 . S
C207 C206 1.386 . S
C207 C211 1.393 . S
C208 H197 0.950 . S
C208 C206 1.391 . S
C208 C209 1.400 . S
C209 C203 1.491 . S
C209 C208 1.400 . S
C209 C210 1.398 . S
C210 H198 0.950 . S
C210 C209 1.398 . S
C210 C211 1.391 . S
C211 H199 0.950 . S
C211 C207 1.393 . S
C211 C210 1.391 . S
H212 C220 0.950 . S
H213 C225 0.950 . S
H214 C222 0.950 . S
H215 C224 0.950 . S
H216 C226 0.950 . S
H217 C228 0.950 . S
H218 C230 0.950 . S
H219 C231 0.950 . S
C220 H212 0.950 . S
C220 C221 1.386 . S
C220 C222 1.391 . S
C221 C220 1.386 . S
C221 C225 1.393 . S
C222 H214 0.950 . S
C222 C220 1.391 . S
C222 C223 1.400 . S
C223 C222 1.400 . S
C223 C224 1.398 . S
C223 C229 1.491 . S
C224 H215 0.950 . S
C224 C223 1.398 . S
C224 C225 1.391 . S
C225 H213 0.950 . S
C225 C221 1.393 . S
C225 C224 1.391 . S
C226 H216 0.950 . S
C226 C227 1.386 . S
C226 C228 1.391 . S
C227 C226 1.386 . S
C227 C231 1.393 . S
C228 H217 0.950 . S
C228 C226 1.391 . S
C228 C229 1.400 . S
C229 C223 1.491 . S
C229 C228 1.400 . S
C229 C230 1.398 . S
C230 H218 0.950 . S
C230 C229 1.398 . S
C230 C231 1.391 . S
C231 H219 0.950 . S
C231 C227 1.393 . S
C231 C230 1.391 . S
H232 C240 0.950 . S
H233 C245 0.950 . S
H234 C242 0.950 . S
H235 C244 0.950 . S
H236 C246 0.950 . S
H237 C248 0.950 . S
H238 C250 0.950 . S
H239 C251 0.950 . S
C240 H232 0.950 . S
C240 C241 1.386 . S
C240 C242 1.391 . S
C241 C240 1.386 . S
C241 C245 1.393 . S
C242 H234 0.950 . S
C242 C240 1.391 . S
C242 C243 1.400 . S
C243 C242 1.400 . S
C243 C244 1.398 . S
C243 C249 1.491 . S
C244 H235 0.950 . S
C244 C243 1.398 . S
C244 C245 1.391 . S
C245 H233 0.950 . S
C245 C241 1.393 . S
C245 C244 1.391 . S
C246 H236 0.950 . S
C246 C247 1.386 . S
C246 C248 1.391 . S
C247 C246 1.386 . S
C247 C251 1.393 . S
C248 H237 0.950 . S
C248 C246 1.391 . S
C248 C249 1.400 . S
C249 C243 1.491 . S
C249 C248 1.400 . S
C249 C250 1.398 . S
C250 H238 0.950 . S
C250 C249 1.398 . S
C250 C251 1.391 . S
C251 H239 0.950 . S
C251 C247 1.393 . S
C251 C250 1.391 . S
H252 C260 0.950 . S
H253 C265 0.950 . S
H254 C262 0.950 . S
H255 C264 0.950 . S
H256 C266 0.950 . S
H257 C268 0.950 . S
H258 C270 0.950 . S
H259 C271 0.950 . S
C260 H252 0.950 . S
C260 C261 1.386 . S
C260 C262 1.391 . S
C261 C260 1.386 . S
C261 C265 1.393 . S
C262 H254 0.950 . S
C262 C260 1.391 . S
C262 C263 1.400 . S
C263 C262 1.400 . S
C263 C264 1.398 . S
C263 C269 1.491 . S
C264 H255 0.950 . S
C264 C263 1.398 . S
C264 C265 1.391 . S
C265 H253 0.950 . S
C265 C261 1.393 . S
C265 C264 1.391 . S
C266 H256 0.950 . S
C266 C267 1.386 . S
C266 C268 1.391 . S
C267 C266 1.386 . S
C267 C271 1.393 . S
C268 H257 0.950 . S
C268 C266 1.391 . S
C268 C269 1.400 . S
C269 C263 1.491 . S
C269 C268 1.400 . S
C269 C270 1.398 . S
C270 H258 0.950 . S
C270 C269 1.398 . S
C270 C271 1.391 . S
C271 H259 0.950 . S
C271 C267 1.393 . S
C271 C270 1.391 . S
H272 C280 0.950 . S
H273 C285 0.950 . S
H274 C282 0.950 . S
H275 C284 0.950 . S
H276 C286 0.950 . S
H277 C288 0.950 . S
H278 C290 0.950 . S
H279 C291 0.950 . S
C280 H272 0.950 . S
C280 C281 1.401 1_655 S
C280 C282 1.391 . S
C281 C280 1.401 1_455 S
C281 C285 1.379 1_545 S
C282 H274 0.950 . S
C282 C280 1.391 . S
C282 C283 1.400 1_645 S
C283 C282 1.400 1_465 S
C283 C284 1.398 . S
C283 C289 1.491 . S
C284 H275 0.950 . S
C284 C283 1.398 . S
C284 C285 1.391 . S
C285 H273 0.950 . S
C285 C281 1.379 1_565 S
C285 C284 1.391 . S
C286 H276 0.950 . S
C286 C287 1.386 . S
C286 C288 1.391 . S
C287 C286 1.386 . S
C287 C291 1.393 1_465 S
C288 H277 0.950 . S
C288 C286 1.391 . S
C288 C289 1.400 . S
C289 C283 1.491 . S
C289 C288 1.400 . S
C289 C290 1.398 1_465 S
C290 H278 0.950 . S
C290 C289 1.398 1_645 S
C290 C291 1.391 . S
C291 H279 0.950 . S
C291 C287 1.393 1_645 S
C291 C290 1.391 . S
H292 C300 0.950 . S
H293 C305 0.950 . S
H294 C302 0.950 . S
H295 C304 0.950 . S
H296 C306 0.950 . S
H297 C308 0.950 . S
H298 C310 0.950 . S
H299 C311 0.950 . S
C300 H292 0.950 . S
C300 C301 1.386 . S
C300 C302 1.391 . S
C301 C300 1.386 . S
C301 C305 1.393 1_455 S
C302 H294 0.950 . S
C302 C300 1.391 . S
C302 C303 1.400 . S
C303 C302 1.400 . S
C303 C304 1.398 1_455 S
C303 C309 1.491 . S
C304 H295 0.950 . S
C304 C303 1.398 1_655 S
C304 C305 1.391 . S
C305 H293 0.950 . S
C305 C301 1.393 1_655 S
C305 C304 1.391 . S
C306 H296 0.950 . S
C306 C307 1.386 1_655 S
C306 C308 1.391 . S
C307 C306 1.386 1_455 S
C307 C311 1.393 . S
C308 H297 0.950 . S
C308 C306 1.391 . S
C308 C309 1.400 1_655 S
C309 C303 1.491 . S
C309 C308 1.400 1_455 S
C309 C310 1.398 . S
C310 H298 0.950 . S
C310 C309 1.398 . S
C310 C311 1.391 . S
C311 H299 0.950 . S
C311 C307 1.393 . S
C311 C310 1.391 . S
H312 C320 0.950 . S
H313 C325 0.950 . S
H314 C322 0.950 . S
H315 C324 0.950 . S
H316 C326 0.950 . S
H317 C328 0.950 . S
H318 C330 0.950 . S
H319 C331 0.950 . S
C320 H312 0.950 . S
C320 C321 1.386 . S
C320 C322 1.391 . S
C321 C320 1.386 . S
C321 C325 1.393 . S
C322 H314 0.950 . S
C322 C320 1.391 . S
C322 C323 1.400 . S
C323 C322 1.400 . S
C323 C324 1.398 . S
C323 C329 1.491 . S
C324 H315 0.950 . S
C324 C323 1.398 . S
C324 C325 1.391 . S
C325 H313 0.950 . S
C325 C321 1.393 . S
C325 C324 1.391 . S
C326 H316 0.950 . S
C326 C327 1.386 . S
C326 C328 1.391 . S
C327 C326 1.386 . S
C327 C331 1.393 . S
C328 H317 0.950 . S
C328 C326 1.391 . S
C328 C329 1.400 . S
C329 C323 1.491 . S
C329 C328 1.400 . S
C329 C330 1.398 . S
C330 H318 0.950 . S
C330 C329 1.398 . S
C330 C331 1.391 . S
C331 H319 0.950 . S
C331 C327 1.393 . S
C331 C330 1.391 . S
H332 C340 0.950 . S
H333 C345 0.950 . S
H334 C342 0.950 . S
H335 C344 0.950 . S
H336 C346 0.950 . S
H337 C348 0.950 . S
H338 C350 0.950 . S
H339 C351 0.950 . S
C340 H332 0.950 . S
C340 C341 1.386 . S
C340 C342 1.391 . S
C341 C340 1.386 . S
C341 C345 1.393 . S
C342 H334 0.950 . S
C342 C340 1.391 . S
C342 C343 1.400 . S
C343 C342 1.400 . S
C343 C344 1.398 . S
C343 C349 1.491 . S
C344 H335 0.950 . S
C344 C343 1.398 . S
C344 C345 1.391 . S
C345 H333 0.950 . S
C345 C341 1.393 . S
C345 C344 1.391 . S
C346 H336 0.950 . S
C346 C347 1.386 . S
C346 C348 1.391 . S
C347 C346 1.386 . S
C347 C351 1.393 . S
C348 H337 0.950 . S
C348 C346 1.391 . S
C348 C349 1.400 . S
C349 C343 1.491 . S
C349 C348 1.400 . S
C349 C350 1.398 . S
C350 H338 0.950 . S
C350 C349 1.398 . S
C350 C351 1.391 . S
C351 H339 0.950 . S
C351 C347 1.393 . S
C351 C350 1.391 . S
C127 N101 1.377 . S
C121 C27 1.404 . S
C141 N6 1.348 . S
C147 N88 1.378 . S
C161 C16 1.479 . S
C167 N100 1.475 . S
C181 N14 1.434 1_556 S
C187 N87 1.456 . S
C201 C57 1.405 . S
C207 N75 1.378 . S
C221 N36 1.344 . S
C227 N62 1.379 . S
C247 N74 1.482 . S
C241 C46 1.484 . S
C267 N61 1.456 . S
C261 N44 1.432 . S
C281 C10 1.472 . S
C287 N65 1.451 . S
C301 C1 1.553 . S
C307 N78 1.545 . S
C327 N91 1.455 . S
C321 C40 1.473 . S
C341 C31 1.553 . S
C347 N104 1.545 . S
