# Generated by pormake.
# Topology dag, (6,3)-cn, num edge types: 1
# Building blocks:
#     Node 0, Type 0, BuildingBlock: OJICUG_clean_sbu_0, # of connection points: 6
#     Node 1, Type 0, BuildingBlock: OJICUG_clean_sbu_0, # of connection points: 6
#     Node 2, Type 0, BuildingBlock: OJICUG_clean_sbu_0, # of connection points: 6
#     Node 3, Type 0, BuildingBlock: OJICUG_clean_sbu_0, # of connection points: 6
#     Node 4, Type 1, BuildingBlock: VETTIZ_charged_linker_0, # of connection points: 3
#     Node 5, Type 1, BuildingBlock: VETTIZ_charged_linker_0, # of connection points: 3
#     Node 6, Type 1, BuildingBlock: VETTIZ_charged_linker_0, # of connection points: 3
#     Node 7, Type 1, BuildingBlock: VETTIZ_charged_linker_0, # of connection points: 3
#     Node 8, Type 1, BuildingBlock: VETTIZ_charged_linker_0, # of connection points: 3
#     Node 9, Type 1, BuildingBlock: VETTIZ_charged_linker_0, # of connection points: 3
#     Node 10, Type 1, BuildingBlock: VETTIZ_charged_linker_0, # of connection points: 3
#     Node 11, Type 1, BuildingBlock: VETTIZ_charged_linker_0, # of connection points: 3
#     Edge 12, Type (0, 1), BuildingBlock: CIFDUS_clean_linker_0, # of connection points: 2
#     Edge 13, Type (0, 1), BuildingBlock: CIFDUS_clean_linker_0, # of connection points: 2
#     Edge 14, Type (0, 1), BuildingBlock: CIFDUS_clean_linker_0, # of connection points: 2
#     Edge 15, Type (0, 1), BuildingBlock: CIFDUS_clean_linker_0, # of connection points: 2
#     Edge 16, Type (0, 1), BuildingBlock: CIFDUS_clean_linker_0, # of connection points: 2
#     Edge 17, Type (0, 1), BuildingBlock: CIFDUS_clean_linker_0, # of connection points: 2
#     Edge 18, Type (0, 1), BuildingBlock: CIFDUS_clean_linker_0, # of connection points: 2
#     Edge 19, Type (0, 1), BuildingBlock: CIFDUS_clean_linker_0, # of connection points: 2
#     Edge 20, Type (0, 1), BuildingBlock: CIFDUS_clean_linker_0, # of connection points: 2
#     Edge 21, Type (0, 1), BuildingBlock: CIFDUS_clean_linker_0, # of connection points: 2
#     Edge 22, Type (0, 1), BuildingBlock: CIFDUS_clean_linker_0, # of connection points: 2
#     Edge 23, Type (0, 1), BuildingBlock: CIFDUS_clean_linker_0, # of connection points: 2
#     Edge 24, Type (0, 1), BuildingBlock: CIFDUS_clean_linker_0, # of connection points: 2
#     Edge 25, Type (0, 1), BuildingBlock: CIFDUS_clean_linker_0, # of connection points: 2
#     Edge 26, Type (0, 1), BuildingBlock: CIFDUS_clean_linker_0, # of connection points: 2
#     Edge 27, Type (0, 1), BuildingBlock: CIFDUS_clean_linker_0, # of connection points: 2
#     Edge 28, Type (0, 1), BuildingBlock: CIFDUS_clean_linker_0, # of connection points: 2
#     Edge 29, Type (0, 1), BuildingBlock: CIFDUS_clean_linker_0, # of connection points: 2
#     Edge 30, Type (0, 1), BuildingBlock: CIFDUS_clean_linker_0, # of connection points: 2
#     Edge 31, Type (0, 1), BuildingBlock: CIFDUS_clean_linker_0, # of connection points: 2
#     Edge 32, Type (0, 1), BuildingBlock: CIFDUS_clean_linker_0, # of connection points: 2
#     Edge 33, Type (0, 1), BuildingBlock: CIFDUS_clean_linker_0, # of connection points: 2
#     Edge 34, Type (0, 1), BuildingBlock: CIFDUS_clean_linker_0, # of connection points: 2
#     Edge 35, Type (0, 1), BuildingBlock: CIFDUS_clean_linker_0, # of connection points: 2
# Relax obj value: 0.268
# Max RMSD: 0.196
# Mean RMSD: 0.162
data_MOF--net-dag--node1-OJICUG_clean_sbu_0--node2-VETTIZ_charged_linker_0--edge1-CIFDUS_clean_linker_0
_symmetry_space_group_name_H-M    P1
_symmetry_Int_Tables_number       1
_symmetry_cell_setting            triclinic
loop_
_symmetry_equiv_pos_as_xyz
'x, y, z'
_cell_length_a     41.044062
_cell_length_b     40.924593
_cell_length_c     42.761279
_cell_angle_alpha  90.179277
_cell_angle_beta   89.90701
_cell_angle_gamma 90.076061
loop_
_atom_site_label
_atom_site_type_symbol
_atom_site_fract_x
_atom_site_fract_y
_atom_site_fract_z
_atom_type_partial_charge
Sc0 Sc 0.12124 0.82663 0.98259 0.0
Sc1 Sc 0.12935 0.74303 -0.00134 0.0
Sc2 Sc 0.19923 0.79487 0.99574 0.0
O3 O 0.15001 0.78809 0.99242 0.0
C4 C 0.18265 0.8442 0.94045 0.0
C5 C 0.08752 0.77125 0.94179 0.0
C6 C 0.19231 0.72876 0.95625 0.0
C7 C 0.07829 0.78843 0.03351 0.0
C8 C 0.17139 0.85657 0.03243 0.0
C9 C 0.18663 0.7417 0.04916 0.0
O10 O 0.15249 0.84517 0.94669 0.0
O11 O 0.09636 0.7479 0.95939 0.0
O12 O 0.20794 0.75433 0.96446 0.0
O13 O 0.0861 0.81315 0.01726 0.0
O14 O 0.19421 0.83614 0.02734 0.0
O15 O 0.15916 0.73205 0.03897 0.0
O16 O 0.14439 0.85603 0.01786 0.0
O17 O 0.09207 0.76076 0.03046 0.0
O18 O 0.20333 0.76366 0.03569 0.0
O19 O 0.09568 0.80078 0.94652 0.0
O20 O 0.20287 0.82777 0.95639 0.0
O21 O 0.1642 0.7214 0.96684 0.0
Sc22 Sc 0.71152 0.69282 0.49604 0.0
Sc23 Sc 0.64955 0.75235 0.49773 0.0
Sc24 Sc 0.63543 0.67566 0.52886 0.0
O25 O 0.66574 0.70673 0.50725 0.0
C26 C 0.66767 0.63138 0.47587 0.0
C27 C 0.69731 0.74033 0.43981 0.0
C28 C 0.58882 0.71235 0.47958 0.0
C29 C 0.71849 0.76321 0.52938 0.0
C30 C 0.70296 0.65359 0.55913 0.0
C31 C 0.61329 0.7377 0.56274 0.0
O32 O 0.69436 0.6475 0.47476 0.0
O33 O 0.67764 0.75802 0.45528 0.0
O34 O 0.594 0.69309 0.50242 0.0
O35 O 0.73079 0.7371 0.51772 0.0
O36 O 0.67209 0.65397 0.55798 0.0
O37 O 0.61715 0.7545 0.53802 0.0
O38 O 0.7207 0.66796 0.53918 0.0
O39 O 0.68885 0.77165 0.52532 0.0
O40 O 0.62594 0.70968 0.56581 0.0
O41 O 0.70943 0.71434 0.45067 0.0
O42 O 0.64384 0.63947 0.4934 0.0
O43 O 0.60959 0.73341 0.47041 0.0
Sc44 Sc 0.84821 0.25517 0.00219 0.0
Sc45 Sc 0.77518 0.20841 -0.00244 0.0
Sc46 Sc 0.84841 0.17223 0.0218 0.0
O47 O 0.82387 0.212 0.00713 0.0
C48 C 0.89967 0.20484 0.97466 0.0
C49 C 0.79912 0.25802 0.94484 0.0
C50 C 0.80308 0.14337 0.96717 0.0
C51 C 0.78144 0.27532 0.03592 0.0
C52 C 0.88126 0.22708 0.06389 0.0
C53 C 0.78098 0.16122 0.05655 0.0
O54 O 0.88772 0.23348 0.97599 0.0
O55 O 0.77853 0.23841 0.95656 0.0
O56 O 0.82711 0.14251 0.98589 0.0
O57 O 0.811 0.28041 0.02822 0.0
O58 O 0.87227 0.19785 0.05899 0.0
O59 O 0.76424 0.17706 0.03681 0.0
O60 O 0.87516 0.25028 0.04515 0.0
O61 O 0.76524 0.25039 0.02688 0.0
O62 O 0.81172 0.15877 0.05497 0.0
O63 O 0.82545 0.26581 0.9584 0.0
O64 O 0.88819 0.18104 0.99023 0.0
O65 O 0.78177 0.16599 0.96763 0.0
Sc66 Sc 0.37625 0.31714 0.47479 0.0
Sc67 Sc 0.29666 0.29788 0.49772 0.0
Sc68 Sc 0.35845 0.2367 0.49683 0.0
O69 O 0.34376 0.28384 0.48999 0.0
C70 C 0.39939 0.25531 0.43599 0.0
C71 C 0.31407 0.3407 0.4375 0.0
C72 C 0.29129 0.23073 0.45954 0.0
C73 C 0.33641 0.35655 0.52762 0.0
C74 C 0.41792 0.27651 0.52471 0.0
C75 C 0.30667 0.24504 0.55187 0.0
O76 O 0.39546 0.28585 0.43912 0.0
O77 O 0.29388 0.32995 0.45753 0.0
O78 O 0.31817 0.21889 0.46913 0.0
O79 O 0.36035 0.35195 0.50919 0.0
O80 O 0.40023 0.25094 0.52446 0.0
O81 O 0.2912 0.26834 0.53919 0.0
O82 O 0.41213 0.30124 0.5077 0.0
O83 O 0.31099 0.33857 0.52752 0.0
O84 O 0.33153 0.23196 0.5395 0.0
O85 O 0.34451 0.33643 0.43989 0.0
O86 O 0.38869 0.23457 0.45549 0.0
O87 O 0.28044 0.2587 0.4677 0.0
C88 C 0.17121 0.03083 0.15621 0.0
C89 C 0.15382 0.01913 0.13011 0.0
C90 C 0.13314 0.04043 0.11375 0.0
C91 C 0.14438 0.08348 0.15094 0.0
C92 C 0.16598 0.0632 0.16632 0.0
C93 C 0.18068 0.07983 0.19457 0.0
H94 H 0.17897 0.21067 0.29288 0.0
C95 C 0.14198 0.11441 0.16847 0.0
C96 C 0.16326 0.11269 0.1941 0.0
H97 H 0.2427 0.12679 0.2978 0.0
H98 H 0.21747 0.10419 0.25117 0.0
H99 H 0.18879 0.22215 0.22085 0.0
H100 H 0.11496 0.17299 0.2744 0.0
H101 H 0.09456 0.19373 0.24445 0.0
H102 H 0.11794 0.21668 0.27265 0.0
H103 H 0.15851 0.24383 0.24295 0.0
H104 H 0.15149 0.23142 0.20297 0.0
C105 C 0.21773 0.08356 0.18895 0.0
C106 C 0.17186 0.05965 0.22391 0.0
C107 C 0.05606 0.19691 0.13722 0.0
C108 C 0.04504 0.22594 0.15108 0.0
C109 C 0.06141 0.23892 0.1771 0.0
C110 C 0.08812 0.22231 0.1899 0.0
C111 C 0.09813 0.19239 0.17658 0.0
C112 C 0.08249 0.18054 0.15033 0.0
C113 C 0.09545 0.14795 0.13994 0.0
C114 C 0.12141 0.14194 0.16447 0.0
C115 C 0.12273 0.16791 0.18582 0.0
C116 C 0.11041 0.15208 0.10685 0.0
C117 C 0.06719 0.12276 0.14196 0.0
C118 C 0.18791 0.18759 0.28388 0.0
C119 C 0.21309 0.17071 0.29896 0.0
C120 C 0.22319 0.14026 0.28673 0.0
C121 C 0.2087 0.12731 0.25954 0.0
C122 C 0.18391 0.14502 0.24449 0.0
C123 C 0.17418 0.17472 0.25677 0.0
C124 C 0.14839 0.19102 0.23769 0.0
C125 C 0.1442 0.16641 0.21162 0.0
C126 C 0.16466 0.13919 0.21572 0.0
C127 C 0.16217 0.22396 0.22555 0.0
C128 C 0.1173 0.19409 0.2582 0.0
H129 H 0.11194 0.08719 0.11062 0.0
H130 H 0.18736 0.01486 0.16905 0.0
H131 H 0.14582 0.05212 0.22322 0.0
H132 H 0.17481 0.07348 0.24588 0.0
H133 H 0.18691 0.03716 0.22525 0.0
H134 H 0.2229 0.08916 0.16398 0.0
H135 H 0.23086 0.06069 0.19491 0.0
H136 H 0.22844 0.10409 0.20222 0.0
H137 H 0.04341 0.18645 0.11733 0.0
H138 H 0.05287 0.26122 0.18806 0.0
H139 H 0.0993 0.23295 0.21018 0.0
H140 H 0.12092 0.17696 0.10382 0.0
H141 H 0.09173 0.14856 0.08838 0.0
H142 H 0.13104 0.13532 0.10246 0.0
H143 H 0.05053 0.1286 0.16176 0.0
H144 H 0.0755 0.09765 0.14675 0.0
H145 H 0.05242 0.12269 0.12022 0.0
H146 H 0.11993 0.03193 0.09335 0.0
C147 C 0.1285 0.0725 0.12386 0.0
C148 C 0.31655 0.53034 0.65571 0.0
C149 C 0.33092 0.52122 0.62707 0.0
C150 C 0.35308 0.54273 0.61259 0.0
C151 C 0.34932 0.57991 0.65646 0.0
C152 C 0.32621 0.55979 0.67003 0.0
C153 C 0.31505 0.57279 0.7013 0.0
H154 H 0.3304 0.68766 0.81521 0.0
C155 C 0.35639 0.60696 0.67831 0.0
C156 C 0.33629 0.60312 0.70466 0.0
H157 H 0.26307 0.60625 0.81277 0.0
H158 H 0.28475 0.58956 0.76259 0.0
H159 H 0.39049 0.64779 0.79435 0.0
H160 H 0.32454 0.70838 0.74257 0.0
H161 H 0.36468 0.71833 0.73128 0.0
H162 H 0.35258 0.72343 0.77144 0.0
H163 H 0.39572 0.69123 0.79261 0.0
H164 H 0.4138 0.66433 0.76385 0.0
C165 C 0.32284 0.54696 0.72656 0.0
C166 C 0.27847 0.58152 0.69871 0.0
C167 C 0.44946 0.68486 0.65433 0.0
C168 C 0.46539 0.70873 0.67232 0.0
C169 C 0.45291 0.71724 0.70186 0.0
C170 C 0.4249 0.70179 0.71353 0.0
C171 C 0.40977 0.67706 0.69572 0.0
C172 C 0.42207 0.66907 0.6666 0.0
C173 C 0.4047 0.64042 0.65211 0.0
C174 C 0.37986 0.6325 0.67732 0.0
C175 C 0.38274 0.65422 0.70258 0.0
C176 C 0.42985 0.61249 0.64746 0.0
C177 C 0.38815 0.65223 0.62163 0.0
C178 C 0.32052 0.66594 0.80423 0.0
C179 C 0.29497 0.64829 0.81819 0.0
C180 C 0.28251 0.62056 0.80248 0.0
C181 C 0.2952 0.61083 0.77336 0.0
C182 C 0.3207 0.62891 0.7598 0.0
C183 C 0.33298 0.65585 0.77538 0.0
C184 C 0.36044 0.67194 0.75805 0.0
C185 C 0.36198 0.65092 0.72889 0.0
C186 C 0.33879 0.62562 0.72997 0.0
C187 C 0.39178 0.66898 0.77815 0.0
C188 C 0.35033 0.7075 0.75048 0.0
H189 H 0.3797 0.58688 0.615 0.0
H190 H 0.29935 0.51432 0.66729 0.0
H191 H 0.2728 0.59164 0.67522 0.0
H192 H 0.27095 0.60074 0.71537 0.0
H193 H 0.26294 0.55957 0.70218 0.0
H194 H 0.34706 0.53565 0.72212 0.0
H195 H 0.30436 0.5271 0.72656 0.0
H196 H 0.32443 0.55739 0.75033 0.0
H197 H 0.45924 0.67738 0.63186 0.0
H198 H 0.46522 0.7354 0.71608 0.0
H199 H 0.41658 0.70915 0.73627 0.0
H200 H 0.44894 0.6132 0.66591 0.0
H201 H 0.44233 0.61451 0.62448 0.0
H202 H 0.41905 0.58788 0.64956 0.0
H203 H 0.37884 0.6776 0.62438 0.0
H204 H 0.36653 0.63754 0.61529 0.0
H205 H 0.4056 0.65216 0.60175 0.0
H206 H 0.36392 0.53652 0.59023 0.0
C207 C 0.36223 0.57198 0.62702 0.0
C208 C 0.74328 0.85004 0.2649 0.0
C209 C 0.75772 0.82452 0.28186 0.0
C210 C 0.78649 0.81005 0.27016 0.0
C211 C 0.7864 0.8471 0.22608 0.0
C212 C 0.75802 0.86097 0.23736 0.0
C213 C 0.74665 0.88905 0.21768 0.0
H214 H 0.77273 0.99015 0.0957 0.0
C215 C 0.7959 0.86485 0.19746 0.0
C216 C 0.77256 0.88937 0.19239 0.0
H217 H 0.69843 0.99777 0.16677 0.0
H218 H 0.71644 0.94661 0.18957 0.0
H219 H 0.82661 0.97557 0.14028 0.0
H220 H 0.76918 0.90927 0.08515 0.0
H221 H 0.80964 0.89532 0.08337 0.0
H222 H 0.79983 0.93546 0.06877 0.0
H223 H 0.83437 0.96909 0.09945 0.0
H224 H 0.85323 0.94427 0.12912 0.0
C225 C 0.74741 0.92052 0.23805 0.0
C226 C 0.71268 0.8804 0.2043 0.0
C227 C 0.90226 0.83777 0.14138 0.0
C228 C 0.91783 0.85208 0.11549 0.0
C229 C 0.90143 0.87632 0.09832 0.0
C230 C 0.87059 0.88718 0.1074 0.0
C231 C 0.85594 0.87397 0.1342 0.0
C232 C 0.87138 0.84925 0.15042 0.0
C233 C 0.85194 0.83857 0.17853 0.0
C234 C 0.82283 0.86148 0.17675 0.0
C235 C 0.82548 0.88219 0.15079 0.0
C236 C 0.87279 0.84487 0.20813 0.0
C237 C 0.84191 0.80244 0.17365 0.0
C238 C 0.75984 0.98015 0.11566 0.0
C239 C 0.73387 0.99726 0.12929 0.0
C240 C 0.71822 0.98448 0.15582 0.0
C241 C 0.72896 0.95505 0.16908 0.0
C242 C 0.75609 0.93888 0.15603 0.0
C243 C 0.7708 0.95137 0.12955 0.0
C244 C 0.80085 0.93274 0.12031 0.0
C245 C 0.8019 0.90694 0.14565 0.0
C246 C 0.77557 0.91052 0.16635 0.0
C247 C 0.83041 0.95644 0.12209 0.0
C248 C 0.79492 0.91748 0.08761 0.0
H249 H 0.8228 0.8093 0.23485 0.0
H250 H 0.72102 0.86152 0.27294 0.0
H251 H 0.71202 0.85453 0.19626 0.0
H252 H 0.7062 0.89509 0.18362 0.0
H253 H 0.69343 0.88352 0.22235 0.0
H254 H 0.76574 0.91869 0.25711 0.0
H255 H 0.72337 0.92517 0.24916 0.0
H256 H 0.7549 0.94238 0.22471 0.0
H257 H 0.91437 0.81909 0.15496 0.0
H258 H 0.9128 0.88726 0.07799 0.0
H259 H 0.8597 0.90603 0.09357 0.0
H260 H 0.88693 0.86796 0.20582 0.0
H261 H 0.89043 0.82472 0.21194 0.0
H262 H 0.85806 0.84816 0.2295 0.0
H263 H 0.83633 0.79747 0.14862 0.0
H264 H 0.81942 0.79586 0.18637 0.0
H265 H 0.86179 0.78564 0.18073 0.0
H266 H 0.79846 0.79066 0.28291 0.0
C267 C 0.80079 0.82108 0.24233 0.0
C268 C 0.71175 0.31509 0.76247 0.0
C269 C 0.73515 0.32863 0.78273 0.0
C270 C 0.75267 0.35655 0.77316 0.0
C271 C 0.72414 0.35648 0.72379 0.0
C272 C 0.70661 0.32943 0.73326 0.0
C273 C 0.68197 0.31884 0.70927 0.0
H274 H 0.60552 0.35017 0.57316 0.0
C275 C 0.71346 0.36507 0.69205 0.0
C276 C 0.68893 0.34302 0.68323 0.0
H277 H 0.57805 0.28135 0.64501 0.0
H278 H 0.62821 0.29251 0.67262 0.0
H279 H 0.62758 0.40701 0.62096 0.0
H280 H 0.68113 0.33366 0.57012 0.0
H281 H 0.70798 0.3668 0.57502 0.0
H282 H 0.67106 0.37206 0.55258 0.0
H283 H 0.62947 0.40398 0.57904 0.0
H284 H 0.66022 0.42521 0.6004 0.0
C285 C 0.6474 0.32331 0.72352 0.0
C286 C 0.68986 0.28341 0.69908 0.0
C287 C 0.7561 0.46794 0.64034 0.0
C288 C 0.7509 0.48131 0.6106 0.0
C289 C 0.73484 0.46264 0.58759 0.0
C290 C 0.7216 0.43208 0.59491 0.0
C291 C 0.72432 0.42033 0.62556 0.0
C292 C 0.74309 0.43711 0.6471 0.0
C293 C 0.74571 0.41912 0.67758 0.0
C294 C 0.72352 0.39008 0.67133 0.0
C295 C 0.71027 0.39154 0.64119 0.0
C296 C 0.73215 0.44144 0.70388 0.0
C297 C 0.78174 0.40869 0.68207 0.0
C298 C 0.61038 0.33746 0.59483 0.0
C299 C 0.58753 0.31539 0.60727 0.0
C300 C 0.59517 0.29855 0.63499 0.0
C301 C 0.62409 0.30539 0.65119 0.0
C302 C 0.64532 0.32958 0.63974 0.0
C303 C 0.63871 0.34459 0.61158 0.0
C304 C 0.66303 0.37085 0.60371 0.0
C305 C 0.68462 0.37004 0.63251 0.0
C306 C 0.6741 0.34582 0.65344 0.0
C307 C 0.64433 0.40358 0.60073 0.0
C308 C 0.68173 0.3606 0.57372 0.0
H309 H 0.76149 0.3916 0.73793 0.0
H310 H 0.69792 0.29361 0.769 0.0
H311 H 0.71651 0.28042 0.69524 0.0
H312 H 0.6782 0.27656 0.67674 0.0
H313 H 0.68225 0.26567 0.7173 0.0
H314 H 0.64743 0.34092 0.7434 0.0
H315 H 0.63757 0.29982 0.73247 0.0
H316 H 0.6299 0.33377 0.70664 0.0
H317 H 0.7688 0.48177 0.65821 0.0
H318 H 0.73065 0.47264 0.56451 0.0
H319 H 0.70847 0.41944 0.57689 0.0
H320 H 0.70949 0.45386 0.69608 0.0
H321 H 0.75008 0.46064 0.71037 0.0
H322 H 0.72528 0.42794 0.72519 0.0
H323 H 0.79493 0.40705 0.65936 0.0
H324 H 0.78396 0.38396 0.69228 0.0
H325 H 0.79514 0.42643 0.69699 0.0
H326 H 0.77028 0.36799 0.78855 0.0
C327 C 0.74745 0.37038 0.74377 0.0
C328 C 0.68352 0.45808 0.34836 0.0
C329 C 0.67538 0.46379 0.37987 0.0
C330 C 0.66093 0.43848 0.39737 0.0
C331 C 0.65974 0.40376 0.35151 0.0
C332 C 0.67537 0.42795 0.33465 0.0
C333 C 0.68044 0.41821 0.30099 0.0
H334 H 0.65792 0.30623 0.18596 0.0
C335 C 0.65207 0.37658 0.32999 0.0
C336 C 0.66424 0.38479 0.30032 0.0
H337 H 0.70982 0.39808 0.17995 0.0
H338 H 0.69702 0.40958 0.23408 0.0
H339 H 0.68418 0.28488 0.25279 0.0
H340 H 0.59778 0.33411 0.222 0.0
H341 H 0.58587 0.31236 0.25537 0.0
H342 H 0.60069 0.29043 0.2215 0.0
H343 H 0.65224 0.26567 0.23069 0.0
H344 H 0.65076 0.26763 0.27273 0.0
C345 C 0.71757 0.41601 0.29488 0.0
C346 C 0.66241 0.44311 0.28002 0.0
C347 C 0.57999 0.28356 0.36709 0.0
C348 C 0.56376 0.25845 0.35093 0.0
C349 C 0.57135 0.25251 0.31935 0.0
C350 C 0.59405 0.2722 0.30369 0.0
C351 C 0.60864 0.29855 0.31963 0.0
C352 C 0.60189 0.30358 0.35093 0.0
C353 C 0.6173 0.33437 0.36335 0.0
C354 C 0.63417 0.34719 0.33424 0.0
C355 C 0.62916 0.326 0.30886 0.0
C356 C 0.64208 0.32471 0.38898 0.0
C357 C 0.58968 0.35746 0.37471 0.0
C358 C 0.66602 0.32918 0.19598 0.0
C359 C 0.6849 0.35126 0.17853 0.0
C360 C 0.69548 0.38048 0.19292 0.0
C361 C 0.68805 0.3871 0.22437 0.0
C362 C 0.6698 0.36431 0.24162 0.0
C363 C 0.65885 0.33611 0.22721 0.0
C364 C 0.63967 0.31461 0.24885 0.0
C365 C 0.64185 0.33396 0.27901 0.0
C366 C 0.65935 0.36313 0.27471 0.0
C367 C 0.65734 0.28129 0.25141 0.0
C368 C 0.6042 0.31244 0.23638 0.0
H369 H 0.64172 0.39051 0.3979 0.0
H370 H 0.69464 0.4771 0.33437 0.0
H371 H 0.63864 0.4501 0.29064 0.0
H372 H 0.65629 0.43323 0.25673 0.0
H373 H 0.67701 0.46576 0.27703 0.0
H374 H 0.73056 0.40666 0.31584 0.0
H375 H 0.72793 0.44038 0.28923 0.0
H376 H 0.72382 0.39865 0.27599 0.0
H377 H 0.57378 0.28918 0.39115 0.0
H378 H 0.55877 0.23344 0.30653 0.0
H379 H 0.5984 0.26687 0.27948 0.0
H380 H 0.6545 0.30139 0.38286 0.0
H381 H 0.62979 0.32121 0.41189 0.0
H382 H 0.66197 0.3427 0.39169 0.0
H383 H 0.56744 0.35449 0.36012 0.0
H384 H 0.5959 0.38359 0.37264 0.0
H385 H 0.58278 0.3522 0.39931 0.0
H386 H 0.65499 0.44215 0.42182 0.0
C387 C 0.65324 0.40851 0.38343 0.0
C388 C 0.1947 0.188 0.72315 0.0
C389 C 0.21859 0.17375 0.7038 0.0
C390 C 0.23211 0.14342 0.71253 0.0
C391 C 0.19958 0.14303 0.75975 0.0
C392 C 0.18557 0.17225 0.75086 0.0
C393 C 0.16043 0.18386 0.774 0.0
H394 H 0.07789 0.15774 0.90874 0.0
C395 C 0.18596 0.13382 0.79041 0.0
C396 C 0.1631 0.15775 0.79901 0.0
H397 H 0.05962 0.23184 0.83919 0.0
H398 H 0.10706 0.21411 0.80998 0.0
H399 H 0.09177 0.09981 0.85953 0.0
H400 H 0.15366 0.16483 0.91159 0.0
H401 H 0.17664 0.12904 0.90622 0.0
H402 H 0.13907 0.12746 0.9283 0.0
H403 H 0.09528 0.10024 0.90141 0.0
H404 H 0.12265 0.0768 0.87768 0.0
C405 C 0.12671 0.18345 0.75766 0.0
C406 C 0.17089 0.21782 0.78649 0.0
C407 C 0.22082 0.028 0.8431 0.0
C408 C 0.21413 0.01512 0.87284 0.0
C409 C 0.19612 0.03372 0.8945 0.0
C410 C 0.18342 0.06415 0.88622 0.0
C411 C 0.18877 0.07611 0.85593 0.0
C412 C 0.2084 0.0589 0.83539 0.0
C413 C 0.21381 0.07729 0.80536 0.0
C414 C 0.19271 0.10734 0.81078 0.0
C415 C 0.17751 0.10597 0.84012 0.0
C416 C 0.20088 0.0561 0.778 0.0
C417 C 0.25053 0.08601 0.80297 0.0
C418 C 0.08407 0.17013 0.88717 0.0
C419 C 0.0647 0.19583 0.87596 0.0
C420 C 0.07411 0.21193 0.84828 0.0
C421 C 0.10143 0.20135 0.83121 0.0
C422 C 0.11939 0.17433 0.84187 0.0
C423 C 0.11087 0.15959 0.86972 0.0
C424 C 0.13184 0.13058 0.87714 0.0
C425 C 0.15372 0.12956 0.84852 0.0
C426 C 0.14646 0.15528 0.82804 0.0
C427 C 0.10943 0.10013 0.87924 0.0
C428 C 0.15123 0.13808 0.90745 0.0
H429 H 0.23414 0.10518 0.7457 0.0
H430 H 0.18377 0.21124 0.71725 0.0
H431 H 0.19746 0.21817 0.7916 0.0
H432 H 0.15876 0.22445 0.80866 0.0
H433 H 0.1659 0.23719 0.76901 0.0
H434 H 0.12577 0.16476 0.73872 0.0
H435 H 0.12115 0.20749 0.74694 0.0
H436 H 0.10668 0.17659 0.77366 0.0
H437 H 0.23499 0.01421 0.82625 0.0
H438 H 0.19074 0.02403 0.9175 0.0
H439 H 0.16921 0.07679 0.90346 0.0
H440 H 0.17709 0.0448 0.78429 0.0
H441 H 0.21814 0.03606 0.77229 0.0
H442 H 0.19622 0.07032 0.75659 0.0
H443 H 0.262 0.08775 0.82648 0.0
H444 H 0.25476 0.11026 0.79237 0.0
H445 H 0.26412 0.06723 0.78944 0.0
H446 H 0.24987 0.13137 0.69773 0.0
C447 C 0.22284 0.1281 0.74037 0.0
C448 C 0.27722 0.65059 0.21086 0.0
C449 C 0.28763 0.68027 0.19756 0.0
C450 C 0.31218 0.69844 0.21285 0.0
C451 C 0.31634 0.65711 0.25299 0.0
C452 C 0.29173 0.63963 0.23856 0.0
C453 C 0.28342 0.6088 0.25597 0.0
H454 H 0.31254 0.5088 0.37896 0.0
C455 C 0.32663 0.63892 0.28102 0.0
C456 C 0.30715 0.6107 0.28312 0.0
H457 H 0.24288 0.49394 0.30487 0.0
H458 H 0.25864 0.5458 0.28145 0.0
H459 H 0.36835 0.52956 0.33636 0.0
H460 H 0.29992 0.58654 0.38927 0.0
H461 H 0.33803 0.60555 0.39371 0.0
H462 H 0.3326 0.56402 0.40679 0.0
H463 H 0.37321 0.5365 0.37751 0.0
H464 H 0.39016 0.56401 0.34883 0.0
C465 C 0.29058 0.57928 0.23429 0.0
C466 C 0.24757 0.61118 0.26704 0.0
C467 C 0.42202 0.67988 0.34678 0.0
C468 C 0.43686 0.66762 0.37398 0.0
C469 C 0.42448 0.63877 0.38753 0.0
C470 C 0.39783 0.6225 0.3745 0.0
C471 C 0.38326 0.63491 0.34739 0.0
C472 C 0.39522 0.66318 0.33398 0.0
C473 C 0.3762 0.67263 0.30527 0.0
C474 C 0.35137 0.645 0.30353 0.0
C475 C 0.35576 0.62308 0.32826 0.0
C476 C 0.39983 0.6722 0.27701 0.0
C477 C 0.35984 0.70616 0.3115 0.0
C478 C 0.30036 0.51711 0.35795 0.0
C479 C 0.27624 0.49794 0.34382 0.0
C480 C 0.26129 0.5088 0.31617 0.0
C481 C 0.27061 0.53873 0.30267 0.0
C482 C 0.29531 0.55756 0.31691 0.0
C483 C 0.30962 0.54652 0.34413 0.0
C484 C 0.33642 0.56847 0.35544 0.0
C485 C 0.33577 0.59492 0.33078 0.0
C486 C 0.31164 0.5886 0.3083 0.0
C487 C 0.36877 0.54881 0.3548 0.0
C488 C 0.32659 0.58181 0.3881 0.0
H489 H 0.34519 0.70193 0.25069 0.0
H490 H 0.25858 0.63587 0.19974 0.0
H491 H 0.24179 0.63644 0.27498 0.0
H492 H 0.24223 0.59549 0.28735 0.0
H493 H 0.23051 0.60488 0.24779 0.0
H494 H 0.31274 0.5838 0.21991 0.0
H495 H 0.26998 0.57471 0.21804 0.0
H496 H 0.29584 0.55665 0.2473 0.0
H497 H 0.43085 0.70207 0.3359 0.0
H498 H 0.4358 0.62838 0.40809 0.0
H499 H 0.3898 0.6007 0.38602 0.0
H500 H 0.41608 0.65049 0.27805 0.0
H501 H 0.41552 0.69435 0.27691 0.0
H502 H 0.38727 0.67037 0.2543 0.0
H503 H 0.35462 0.70973 0.33682 0.0
H504 H 0.33583 0.7084 0.30002 0.0
H505 H 0.37576 0.72662 0.30387 0.0
H506 H 0.32017 0.72174 0.20366 0.0
C507 C 0.32659 0.68701 0.24036 0.0
C508 C 0.81234 0.97172 0.84153 0.0
C509 C 0.82371 0.97833 0.87191 0.0
C510 C 0.83781 0.95303 0.8895 0.0
C511 C 0.83325 0.91633 0.84539 0.0
C512 C 0.81747 0.94047 0.82869 0.0
C513 C 0.80911 0.92924 0.79604 0.0
H514 H 0.81527 0.80987 0.68574 0.0
C515 C 0.83847 0.88811 0.82449 0.0
C516 C 0.82427 0.89528 0.79553 0.0
H517 H 0.76591 0.90313 0.68082 0.0
H518 H 0.78606 0.91737 0.73192 0.0
H519 H 0.88077 0.83968 0.71232 0.0
H520 H 0.80033 0.79261 0.75863 0.0
H521 H 0.83766 0.7754 0.77118 0.0
H522 H 0.82671 0.77313 0.73063 0.0
H523 H 0.87865 0.79609 0.71565 0.0
H524 H 0.89705 0.82108 0.74576 0.0
C525 C 0.82587 0.95248 0.77244 0.0
C526 C 0.77151 0.92791 0.79327 0.0
C527 C 0.91192 0.79676 0.86094 0.0
C528 C 0.92801 0.77155 0.84499 0.0
C529 C 0.91979 0.76477 0.8137 0.0
C530 C 0.89605 0.78352 0.7983 0.0
C531 C 0.88125 0.80983 0.81417 0.0
C532 C 0.88931 0.81594 0.84502 0.0
C533 C 0.87471 0.84712 0.85714 0.0
C534 C 0.85648 0.85886 0.82852 0.0
C535 C 0.85983 0.83671 0.80361 0.0
C536 C 0.90298 0.87055 0.86648 0.0
C537 C 0.8511 0.83835 0.88416 0.0
C538 C 0.80914 0.83357 0.69537 0.0
C539 C 0.78843 0.85511 0.67921 0.0
C540 C 0.78109 0.88566 0.69294 0.0
C541 C 0.79287 0.89396 0.72266 0.0
C542 C 0.8125 0.87168 0.7389 0.0
C543 C 0.82088 0.84233 0.72499 0.0
C544 C 0.8429 0.82215 0.74537 0.0
C545 C 0.84443 0.84325 0.77459 0.0
C546 C 0.82675 0.87235 0.77059 0.0
C547 C 0.87657 0.81931 0.72903 0.0
C548 C 0.82624 0.78892 0.75181 0.0
H549 H 0.85409 0.90417 0.89089 0.0
H550 H 0.80133 0.99082 0.82763 0.0
H551 H 0.7601 0.92101 0.81594 0.0
H552 H 0.76301 0.90911 0.77658 0.0
H553 H 0.76146 0.95203 0.78641 0.0
H554 H 0.85083 0.95896 0.78049 0.0
H555 H 0.8119 0.97554 0.76987 0.0
H556 H 0.82924 0.94139 0.74911 0.0
H557 H 0.9188 0.80314 0.88466 0.0
H558 H 0.93247 0.74571 0.80096 0.0
H559 H 0.89091 0.77756 0.77436 0.0
H560 H 0.92565 0.86507 0.85315 0.0
H561 H 0.90887 0.86847 0.89174 0.0
H562 H 0.89789 0.89639 0.86094 0.0
H563 H 0.83775 0.81529 0.87895 0.0
H564 H 0.83188 0.85688 0.88777 0.0
H565 H 0.86453 0.83478 0.90642 0.0
H566 H 0.84629 0.95762 0.9131 0.0
C567 C 0.84244 0.92207 0.87651 0.0
H568 H 0.12534 0.88347 0.06905 0.0
H569 H 0.22786 0.8889 0.04768 0.0
H570 H 0.23283 0.93835 0.07998 0.0
H571 H 0.20596 0.98389 0.1089 0.0
H572 H 0.10314 0.97751 0.12873 0.0
H573 H 0.10034 0.92437 0.10287 0.0
C574 C 0.14888 0.89526 0.07178 0.0
C575 C 0.17608 0.88296 0.05567 0.0
C576 C 0.15141 0.92358 0.09007 0.0
C577 C 0.20655 0.89804 0.05983 0.0
C578 C 0.20934 0.92638 0.07815 0.0
C579 C 0.18325 0.97034 0.10818 0.0
C580 C 0.15473 0.98448 0.12041 0.0
C581 C 0.1817 0.93994 0.09265 0.0
C582 C 0.1253 0.96699 0.11926 0.0
C583 C 0.12366 0.93674 0.10439 0.0
H584 H 0.60781 0.72032 0.62376 0.0
H585 H 0.55926 0.77409 0.55082 0.0
H586 H 0.50882 0.77382 0.58102 0.0
H587 H 0.47627 0.74898 0.62336 0.0
H588 H 0.5247 0.69561 0.69636 0.0
H589 H 0.57748 0.70516 0.67119 0.0
C590 C 0.58644 0.73285 0.61496 0.0
C591 C 0.58712 0.7467 0.58491 0.0
C592 C 0.55735 0.73215 0.63223 0.0
C593 C 0.55941 0.76321 0.57388 0.0
C594 C 0.5304 0.76275 0.59099 0.0
C595 C 0.49859 0.74039 0.63411 0.0
C596 C 0.49693 0.72152 0.66139 0.0
C597 C 0.52872 0.74589 0.61944 0.0
C598 C 0.52571 0.71032 0.67535 0.0
C599 C 0.55577 0.71559 0.66087 0.0
H600 H 0.73098 0.12023 0.04535 0.0
H601 H 0.79573 0.15376 0.11791 0.0
H602 H 0.77979 0.10777 0.15097 0.0
H603 H 0.75681 0.05254 0.15411 0.0
H604 H 0.69863 0.01518 0.07838 0.0
H605 H 0.70191 0.06807 0.05172 0.0
C606 C 0.74054 0.11806 0.06889 0.0
C607 C 0.76437 0.14018 0.07936 0.0
C608 C 0.73277 0.09047 0.08689 0.0
C609 C 0.77727 0.13692 0.10956 0.0
C610 C 0.76836 0.11053 0.12831 0.0
C611 C 0.74383 0.0566 0.13237 0.0
C612 C 0.72723 0.03053 0.1182 0.0
C613 C 0.74748 0.08631 0.11653 0.0
C614 C 0.71114 0.03531 0.0897 0.0
C615 C 0.71332 0.06538 0.07441 0.0
H616 H 0.45178 0.33028 0.54126 0.0
H617 H 0.45067 0.22548 0.55223 0.0
H618 H 0.50299 0.2281 0.57972 0.0
H619 H 0.55074 0.26027 0.59757 0.0
H620 H 0.55016 0.36508 0.58591 0.0
H621 H 0.497 0.36216 0.56118 0.0
C622 C 0.46284 0.30792 0.5497 0.0
C623 C 0.44751 0.2777 0.54438 0.0
C624 C 0.49287 0.30957 0.56497 0.0
C625 C 0.46198 0.24908 0.556 0.0
C626 C 0.49197 0.25055 0.57155 0.0
C627 C 0.53882 0.28243 0.58979 0.0
C628 C 0.55474 0.31276 0.59299 0.0
C629 C 0.50792 0.28065 0.57568 0.0
C630 C 0.53894 0.34131 0.5829 0.0
C631 C 0.50837 0.33974 0.56901 0.0
H632 H 0.71323 0.60083 0.43868 0.0
H633 H 0.61352 0.59327 0.47074 0.0
H634 H 0.60744 0.54163 0.44348 0.0
H635 H 0.6303 0.49755 0.41214 0.0
H636 H 0.7293 0.50365 0.379 0.0
H637 H 0.73564 0.55702 0.40475 0.0
C638 C 0.69014 0.58801 0.43953 0.0
C639 C 0.66404 0.60101 0.45707 0.0
C640 C 0.68662 0.55797 0.42369 0.0
C641 C 0.63422 0.58396 0.45772 0.0
C642 C 0.6306 0.5543 0.44212 0.0
C643 C 0.65334 0.5105 0.4107 0.0
C644 C 0.67944 0.49658 0.39416 0.0
C645 C 0.6567 0.54092 0.4254 0.0
C646 C 0.70889 0.51394 0.39173 0.0
C647 C 0.71252 0.54435 0.40651 0.0
H648 H 0.94068 0.24951 0.94764 0.0
H649 H 0.92333 0.14574 0.95635 0.0
H650 H 0.97197 0.13431 0.92578 0.0
H651 H 0.02011 0.15321 0.89793 0.0
H652 H 0.03944 0.25643 0.88966 0.0
H653 H 0.98898 0.26864 0.9182 0.0
C654 C 0.94744 0.22442 0.94268 0.0
C655 C 0.92843 0.19856 0.95455 0.0
C656 C 0.97577 0.21788 0.92518 0.0
C657 C 0.9376 0.16617 0.94786 0.0
C658 C 0.96542 0.15954 0.9303 0.0
C659 C 0.01347 0.17842 0.90261 0.0
C660 C 0.0337 0.20387 0.89213 0.0
C661 C 0.98484 0.18515 0.9192 0.0
C662 C 0.02425 0.2364 0.89752 0.0
C663 C 0.99551 0.24336 0.91394 0.0
H664 H 0.26349 0.38362 0.43836 0.0
H665 H 0.33996 0.34561 0.37932 0.0
H666 H 0.32977 0.38842 0.341 0.0
H667 H 0.30614 0.44195 0.32911 0.0
H668 H 0.23347 0.48306 0.39018 0.0
H669 H 0.23449 0.4337 0.42259 0.0
C670 C 0.27721 0.3842 0.41667 0.0
C671 C 0.30265 0.36177 0.41178 0.0
C672 C 0.27204 0.40969 0.39524 0.0
C673 C 0.32049 0.3629 0.38372 0.0
C674 C 0.31473 0.38739 0.36183 0.0
C675 C 0.28969 0.43939 0.34885 0.0
C676 C 0.26948 0.46557 0.35722 0.0
C677 C 0.29158 0.4117 0.368 0.0
C678 C 0.24879 0.46275 0.38321 0.0
C679 C 0.24968 0.43474 0.40186 0.0
H680 H 0.03294 0.73401 0.9434 0.0
H681 H 0.09046 0.79552 0.88305 0.0
H682 H 0.04738 0.79457 0.84365 0.0
H683 H 0.99012 0.78434 0.83072 0.0
H684 H 0.92988 0.72935 0.89406 0.0
H685 H 0.97708 0.71889 0.92768 0.0
C686 C 0.0363 0.74634 0.9212 0.0
C687 C 0.06466 0.7648 0.91598 0.0
C688 C 0.01073 0.74701 0.89935 0.0
C689 C 0.06869 0.78124 0.88746 0.0
C690 C 0.04406 0.78078 0.86502 0.0
C691 C 0.98777 0.76902 0.85128 0.0
C692 C 0.95697 0.75714 0.85984 0.0
C693 C 0.0145 0.76487 0.87127 0.0
C694 C 0.95364 0.7382 0.88695 0.0
C695 C 0.98051 0.73258 0.90627 0.0
H696 H 0.8527 0.10846 0.94363 0.0
H697 H 0.74821 0.11798 0.9389 0.0
H698 H 0.74523 0.06879 0.90591 0.0
H699 H 0.77256 0.0199 0.88274 0.0
H700 H 0.87702 0.01143 0.88982 0.0
H701 H 0.87987 0.06352 0.91745 0.0
C702 C 0.82922 0.09992 0.93528 0.0
C703 C 0.80068 0.11646 0.94411 0.0
C704 C 0.82775 0.07171 0.91684 0.0
C705 C 0.77054 0.10554 0.9325 0.0
C706 C 0.76884 0.07736 0.91378 0.0
C707 C 0.79586 0.02989 0.88996 0.0
C708 C 0.82453 0.01189 0.88467 0.0
C709 C 0.79727 0.05977 0.90641 0.0
C710 C 0.85467 0.02484 0.89404 0.0
C711 C 0.85631 0.05454 0.90982 0.0
H712 H 0.45443 0.22172 0.44517 0.0
H713 H 0.39696 0.26811 0.37383 0.0
H714 H 0.44309 0.26578 0.33753 0.0
H715 H 0.50217 0.26138 0.33053 0.0
H716 H 0.56144 0.22336 0.405 0.0
H717 H 0.51248 0.21102 0.43567 0.0
C718 C 0.45178 0.23004 0.42123 0.0
C719 C 0.42253 0.24477 0.41186 0.0
C720 C 0.47902 0.23068 0.40139 0.0
C721 C 0.41932 0.25642 0.38122 0.0
C722 C 0.44575 0.25537 0.36066 0.0
C723 C 0.50416 0.24929 0.353 0.0
C724 C 0.53509 0.24309 0.36561 0.0
C725 C 0.47612 0.24413 0.37107 0.0
C726 C 0.53771 0.22815 0.39497 0.0
C727 C 0.50978 0.22133 0.4125 0.0
H728 H 0.23279 0.88618 0.94681 0.0
H729 H 0.15752 0.85581 0.88287 0.0
H730 H 0.16653 0.90473 0.85127 0.0
H731 H 0.18767 0.96083 0.84842 0.0
H732 H 0.25708 0.99431 0.91677 0.0
H733 H 0.25917 0.93962 0.93986 0.0
C734 C 0.21933 0.88975 0.92527 0.0
C735 C 0.19464 0.86756 0.917 0.0
C736 C 0.22328 0.91888 0.90838 0.0
C737 C 0.17672 0.87265 0.88951 0.0
C738 C 0.18169 0.90071 0.87163 0.0
C739 C 0.20411 0.95565 0.86763 0.0
C740 C 0.22238 0.98115 0.88087 0.0
C741 C 0.20371 0.92474 0.88175 0.0
C742 C 0.24307 0.97474 0.90619 0.0
C743 C 0.24402 0.94361 0.91949 0.0
H744 H 0.57494 0.71858 0.41733 0.0
H745 H 0.53112 0.70019 0.50737 0.0
H746 H 0.47894 0.68882 0.48256 0.0
H747 H 0.44722 0.67885 0.43546 0.0
H748 H 0.49094 0.69279 0.34472 0.0
H749 H 0.54131 0.71201 0.36947 0.0
C750 C 0.55376 0.71262 0.43141 0.0
C751 C 0.55685 0.70989 0.46405 0.0
C752 C 0.52387 0.70518 0.41686 0.0
C753 C 0.52936 0.702 0.48215 0.0
C754 C 0.49952 0.69553 0.46801 0.0
C755 C 0.46774 0.68619 0.42106 0.0
C756 C 0.46555 0.6839 0.38836 0.0
C757 C 0.49676 0.69613 0.4354 0.0
C758 C 0.49201 0.69434 0.36999 0.0
C759 C 0.5209 0.70507 0.38414 0.0
H760 H 0.28765 0.39221 0.55605 0.0
H761 H 0.39229 0.38286 0.54956 0.0
H762 H 0.39935 0.43147 0.58146 0.0
H763 H 0.37654 0.47874 0.60799 0.0
H764 H 0.27252 0.49057 0.6148 0.0
H765 H 0.26441 0.43875 0.58652 0.0
C766 C 0.31192 0.40064 0.562 0.0
C767 C 0.33937 0.38412 0.55 0.0
C768 C 0.31596 0.42916 0.58026 0.0
C769 C 0.37071 0.39535 0.55797 0.0
C770 C 0.37484 0.42315 0.5763 0.0
C771 C 0.35207 0.46994 0.60331 0.0
C772 C 0.32518 0.48858 0.61293 0.0
C773 C 0.34773 0.44061 0.58694 0.0
C774 C 0.29359 0.47659 0.60746 0.0
C775 C 0.289 0.44709 0.5912 0.0
H776 H 0.05929 0.84432 0.06125 0.0
H777 H 0.0351 0.74195 0.0547 0.0
H778 H 0.98403 0.75197 0.08307 0.0
H779 H 0.94325 0.79148 0.10379 0.0
H780 H 0.96807 0.89386 0.1077 0.0
H781 H 0.02193 0.88222 0.08635 0.0
C782 C 0.04303 0.82407 0.06631 0.0
C783 C 0.05067 0.79255 0.05546 0.0
C784 C 0.01365 0.83014 0.08188 0.0
C785 C 0.02971 0.76648 0.06276 0.0
C786 C 0.00041 0.77225 0.07877 0.0
C787 C 0.96076 0.81103 0.10044 0.0
C788 C 0.95167 0.84352 0.1068 0.0
C789 C 0.99164 0.8042 0.08756 0.0
C790 C 0.97445 0.86875 0.10244 0.0
C791 C 0.00521 0.86212 0.09029 0.0
H792 H 0.75576 0.61683 0.54684 0.0
H793 H 0.68325 0.63581 0.61767 0.0
H794 H 0.69842 0.58551 0.64472 0.0
H795 H 0.72343 0.53121 0.64136 0.0
H796 H 0.78923 0.5089 0.56572 0.0
H797 H 0.78615 0.56551 0.54749 0.0
C798 C 0.74414 0.61056 0.56882 0.0
C799 C 0.71833 0.6298 0.58024 0.0
C800 C 0.75148 0.58063 0.58298 0.0
C801 C 0.7031 0.62123 0.60846 0.0
C802 C 0.71161 0.59238 0.62376 0.0
C803 C 0.73799 0.53921 0.62159 0.0
C804 C 0.75659 0.5163 0.60484 0.0
C805 C 0.73445 0.57109 0.61026 0.0
C806 C 0.77488 0.5264 0.57889 0.0
C807 C 0.77291 0.55861 0.56841 0.0
H808 H 0.93136 0.27012 0.06593 0.0
H809 H 0.88234 0.19585 0.11985 0.0
H810 H 0.92785 0.19424 0.15648 0.0
H811 H 0.98548 0.20571 0.16649 0.0
H812 H 0.03676 0.2756 0.10971 0.0
H813 H 0.98647 0.28773 0.08101 0.0
C814 C 0.93021 0.25442 0.0863 0.0
C815 C 0.90382 0.23284 0.09007 0.0
C816 C 0.95713 0.25255 0.1064 0.0
C817 C 0.90264 0.21241 0.11638 0.0
C818 C 0.92869 0.21137 0.13721 0.0
C819 C 0.98516 0.2244 0.14853 0.0
C820 C 0.01428 0.23991 0.14004 0.0
C821 C 0.95667 0.23007 0.13148 0.0
C822 C 0.01427 0.26372 0.11657 0.0
C823 C 0.98566 0.27037 0.10009 0.0
H824 H 0.24955 0.74251 0.06794 0.0
H825 H 0.15438 0.70738 0.09484 0.0
H826 H 0.17722 0.68491 0.14306 0.0
H827 H 0.22407 0.67696 0.17828 0.0
H828 H 0.31936 0.71031 0.14939 0.0
H829 H 0.29637 0.73223 0.10145 0.0
C830 C 0.2337 0.72999 0.08433 0.0
C831 C 0.20024 0.72688 0.07788 0.0
C832 C 0.24698 0.71701 0.11177 0.0
C833 C 0.18023 0.71012 0.09921 0.0
C834 C 0.19326 0.69735 0.12682 0.0
C835 C 0.2399 0.68864 0.16134 0.0
C836 C 0.27339 0.69228 0.16774 0.0
C837 C 0.2266 0.70082 0.13342 0.0
C838 C 0.29341 0.70781 0.14555 0.0
C839 C 0.28034 0.72016 0.11795 0.0
H840 H 0.69748 0.81137 0.56825 0.0
H841 H 0.78407 0.75825 0.54153 0.0
H842 H 0.81428 0.78443 0.584 0.0
H843 H 0.81472 0.81878 0.63141 0.0
H844 H 0.72633 0.86791 0.65985 0.0
H845 H 0.69861 0.84745 0.61359 0.0
C846 C 0.72311 0.80582 0.57127 0.0
C847 C 0.73835 0.78266 0.55172 0.0
C848 C 0.74006 0.82019 0.59622 0.0
C849 C 0.7716 0.77584 0.55625 0.0
C850 C 0.78889 0.79072 0.58063 0.0
C851 C 0.78938 0.825 0.62755 0.0
C852 C 0.77275 0.84486 0.64932 0.0
C853 C 0.77312 0.81227 0.60127 0.0
C854 C 0.74006 0.85315 0.64343 0.0
C855 C 0.724 0.84118 0.61706 0.0
H856 H 0.71728 0.28006 0.05208 0.0
H857 H 0.81208 0.32106 0.07203 0.0
H858 H 0.78947 0.35152 0.11589 0.0
H859 H 0.74468 0.36062 0.15265 0.0
H860 H 0.64956 0.32069 0.1326 0.0
H861 H 0.67051 0.29576 0.08472 0.0
C862 C 0.73292 0.29601 0.06574 0.0
C863 C 0.76643 0.29776 0.05902 0.0
C864 C 0.71983 0.31339 0.09116 0.0
C865 C 0.78622 0.31899 0.0767 0.0
C866 C 0.77335 0.33639 0.10194 0.0
C867 C 0.72824 0.3473 0.1374 0.0
C868 C 0.69575 0.34203 0.14656 0.0
C869 C 0.74043 0.33296 0.10996 0.0
C870 C 0.67491 0.32446 0.12651 0.0
C871 C 0.68683 0.31024 0.09908 0.0
H872 H 0.24536 0.24771 0.57645 0.0
H873 H 0.34261 0.21295 0.59534 0.0
H874 H 0.3241 0.18908 0.64439 0.0
H875 H 0.28041 0.17707 0.68132 0.0
H876 H 0.18224 0.2084 0.66141 0.0
H877 H 0.20115 0.2352 0.61371 0.0
C878 C 0.26251 0.23512 0.59144 0.0
C879 C 0.29529 0.23207 0.58222 0.0
C880 C 0.25158 0.22086 0.61943 0.0
C881 C 0.31719 0.21545 0.60176 0.0
C882 C 0.30666 0.20182 0.62985 0.0
C883 C 0.263 0.18938 0.6664 0.0
C884 C 0.22991 0.19048 0.67493 0.0
C885 C 0.27387 0.20407 0.63873 0.0
C886 C 0.20792 0.20739 0.65564 0.0
C887 C 0.21868 0.22256 0.62823 0.0
H888 H 0.69592 0.80163 0.41548 0.0
H889 H 0.72195 0.70205 0.39326 0.0
H890 H 0.74176 0.71912 0.34203 0.0
H891 H 0.75297 0.76239 0.3041 0.0
H892 H 0.73026 0.86249 0.32764 0.0
H893 H 0.70733 0.84502 0.37747 0.0
C894 C 0.70566 0.78364 0.39931 0.0
C895 C 0.70748 0.75066 0.40818 0.0
C896 C 0.71759 0.79368 0.37009 0.0
C897 C 0.72045 0.72766 0.38708 0.0
C898 C 0.73177 0.73736 0.35776 0.0
C899 C 0.74329 0.78045 0.32022 0.0
C900 C 0.74335 0.81369 0.31202 0.0
C901 C 0.73081 0.77035 0.34917 0.0
C902 C 0.73009 0.83666 0.33303 0.0
C903 C 0.71717 0.82674 0.36169 0.0
H904 H 0.7405 0.26287 0.9159 0.0
H905 H 0.84275 0.28486 0.90426 0.0
H906 H 0.83192 0.30783 0.85278 0.0
H907 H 0.79371 0.32122 0.81112 0.0
H908 H 0.69098 0.30238 0.82376 0.0
H909 H 0.7019 0.27783 0.87461 0.0
C910 C 0.76042 0.27262 0.90206 0.0
C911 C 0.79236 0.27214 0.91386 0.0
C912 C 0.75401 0.28612 0.87264 0.0
C913 C 0.8179 0.28511 0.89578 0.0
C914 C 0.81176 0.29816 0.86632 0.0
C915 C 0.7736 0.31218 0.82514 0.0
C916 C 0.74159 0.31371 0.81363 0.0
C917 C 0.77993 0.29884 0.85458 0.0
C918 C 0.71594 0.30113 0.83184 0.0
C919 C 0.72211 0.28731 0.86103 0.0
H920 H 0.26821 0.25855 0.40782 0.0
H921 H 0.27973 0.16508 0.45249 0.0
H922 H 0.2566 0.13764 0.40634 0.0
H923 H 0.23348 0.14082 0.35289 0.0
H924 H 0.22854 0.2348 0.30735 0.0
H925 H 0.24883 0.26143 0.35422 0.0
C926 C 0.26513 0.23219 0.40763 0.0
C927 C 0.27481 0.21383 0.4336 0.0
C928 C 0.2533 0.21671 0.38075 0.0
C929 C 0.27189 0.17964 0.43278 0.0
C930 C 0.2589 0.16402 0.40639 0.0
C931 C 0.23723 0.16704 0.35312 0.0
C932 C 0.22876 0.18579 0.32679 0.0
C933 C 0.24974 0.18233 0.38009 0.0
C934 C 0.23387 0.2198 0.32753 0.0
C935 C 0.24564 0.23513 0.35429 0.0
H936 H 0.25644 0.71936 0.94383 0.0
H937 H 0.16021 0.69127 0.91338 0.0
H938 H 0.18358 0.66178 0.86892 0.0
H939 H 0.23104 0.64837 0.83621 0.0
H940 H 0.32745 0.67405 0.86842 0.0
H941 H 0.30423 0.70021 0.91456 0.0
C942 C 0.24063 0.70653 0.9276 0.0
C943 C 0.20668 0.70778 0.93167 0.0
C944 C 0.2542 0.68947 0.90223 0.0
C945 C 0.18647 0.69064 0.91076 0.0
C946 C 0.19979 0.6739 0.88525 0.0
C947 C 0.24707 0.659 0.85362 0.0
C948 C 0.28094 0.65979 0.84839 0.0
C949 C 0.2336 0.6737 0.88041 0.0
C950 C 0.30123 0.67389 0.87129 0.0
C951 C 0.288 0.68872 0.89782 0.0
loop_
_geom_bond_atom_site_label_1
_geom_bond_atom_site_label_2
_geom_bond_distance
_geom_bond_site_symmetry_2
_ccdc_geom_bond_type
Sc0 O3 2.025 . S
Sc0 O10 2.105 1_554 S
Sc0 O13 2.105 . S
Sc0 O16 2.105 . S
Sc0 O19 2.105 1_554 S
Sc1 O3 2.025 . S
Sc1 O11 2.105 1_554 S
Sc1 O15 2.105 . S
Sc1 O17 2.105 . S
Sc1 O21 2.105 1_554 S
Sc2 O3 2.025 . S
Sc2 O12 2.105 1_554 S
Sc2 O14 2.105 . S
Sc2 O18 2.105 . S
Sc2 O20 2.105 1_554 S
O3 Sc0 2.025 . S
O3 Sc1 2.025 . S
O3 Sc2 2.025 . S
C4 O10 1.268 . S
C4 O20 1.268 . S
C5 O11 1.268 . S
C5 O19 1.268 . S
C6 O12 1.268 . S
C6 O21 1.268 . S
C7 O13 1.268 . S
C7 O17 1.268 . S
C8 O14 1.268 . S
C8 O16 1.268 . S
C9 O15 1.268 . S
C9 O18 1.268 . S
O10 Sc0 2.105 1_556 S
O10 C4 1.268 . S
O11 Sc1 2.105 1_556 S
O11 C5 1.268 . S
O12 Sc2 2.105 1_556 S
O12 C6 1.268 . S
O13 Sc0 2.105 . S
O13 C7 1.268 . S
O14 Sc2 2.105 . S
O14 C8 1.268 . S
O15 Sc1 2.105 . S
O15 C9 1.268 . S
O16 Sc0 2.105 . S
O16 C8 1.268 . S
O17 Sc1 2.105 . S
O17 C7 1.268 . S
O18 Sc2 2.105 . S
O18 C9 1.268 . S
O19 Sc0 2.105 1_556 S
O19 C5 1.268 . S
O20 Sc2 2.105 1_556 S
O20 C4 1.268 . S
O21 Sc1 2.105 1_556 S
O21 C6 1.268 . S
Sc22 O25 2.025 . S
Sc22 O32 2.105 . S
Sc22 O35 2.105 . S
Sc22 O38 2.105 . S
Sc22 O41 2.105 . S
Sc23 O25 2.025 . S
Sc23 O33 2.105 . S
Sc23 O37 2.105 . S
Sc23 O39 2.105 . S
Sc23 O43 2.105 . S
Sc24 O25 2.025 . S
Sc24 O34 2.105 . S
Sc24 O36 2.105 . S
Sc24 O40 2.105 . S
Sc24 O42 2.105 . S
O25 Sc22 2.025 . S
O25 Sc23 2.025 . S
O25 Sc24 2.025 . S
C26 O32 1.268 . S
C26 O42 1.268 . S
C27 O33 1.268 . S
C27 O41 1.268 . S
C28 O34 1.268 . S
C28 O43 1.268 . S
C29 O35 1.268 . S
C29 O39 1.268 . S
C30 O36 1.268 . S
C30 O38 1.268 . S
C31 O37 1.268 . S
C31 O40 1.268 . S
O32 Sc22 2.105 . S
O32 C26 1.268 . S
O33 Sc23 2.105 . S
O33 C27 1.268 . S
O34 Sc24 2.105 . S
O34 C28 1.268 . S
O35 Sc22 2.105 . S
O35 C29 1.268 . S
O36 Sc24 2.105 . S
O36 C30 1.268 . S
O37 Sc23 2.105 . S
O37 C31 1.268 . S
O38 Sc22 2.105 . S
O38 C30 1.268 . S
O39 Sc23 2.105 . S
O39 C29 1.268 . S
O40 Sc24 2.105 . S
O40 C31 1.268 . S
O41 Sc22 2.105 . S
O41 C27 1.268 . S
O42 Sc24 2.105 . S
O42 C26 1.268 . S
O43 Sc23 2.105 . S
O43 C28 1.268 . S
Sc44 O47 2.025 . S
Sc44 O54 2.105 1_554 S
Sc44 O57 2.105 . S
Sc44 O60 2.105 . S
Sc44 O63 2.105 1_554 S
Sc45 O47 2.025 . S
Sc45 O55 2.105 1_554 S
Sc45 O59 2.105 . S
Sc45 O61 2.105 . S
Sc45 O65 2.105 1_554 S
Sc46 O47 2.025 . S
Sc46 O56 2.105 1_554 S
Sc46 O58 2.105 . S
Sc46 O62 2.105 . S
Sc46 O64 2.105 1_554 S
O47 Sc44 2.025 . S
O47 Sc45 2.025 . S
O47 Sc46 2.025 . S
C48 O54 1.268 . S
C48 O64 1.268 . S
C49 O55 1.268 . S
C49 O63 1.268 . S
C50 O56 1.268 . S
C50 O65 1.268 . S
C51 O57 1.268 . S
C51 O61 1.268 . S
C52 O58 1.268 . S
C52 O60 1.268 . S
C53 O59 1.268 . S
C53 O62 1.268 . S
O54 Sc44 2.105 1_556 S
O54 C48 1.268 . S
O55 Sc45 2.105 1_556 S
O55 C49 1.268 . S
O56 Sc46 2.105 1_556 S
O56 C50 1.268 . S
O57 Sc44 2.105 . S
O57 C51 1.268 . S
O58 Sc46 2.105 . S
O58 C52 1.268 . S
O59 Sc45 2.105 . S
O59 C53 1.268 . S
O60 Sc44 2.105 . S
O60 C52 1.268 . S
O61 Sc45 2.105 . S
O61 C51 1.268 . S
O62 Sc46 2.105 . S
O62 C53 1.268 . S
O63 Sc44 2.105 1_556 S
O63 C49 1.268 . S
O64 Sc46 2.105 1_556 S
O64 C48 1.268 . S
O65 Sc45 2.105 1_556 S
O65 C50 1.268 . S
Sc66 O69 2.025 . S
Sc66 O76 2.105 . S
Sc66 O79 2.105 . S
Sc66 O82 2.105 . S
Sc66 O85 2.105 . S
Sc67 O69 2.025 . S
Sc67 O77 2.105 . S
Sc67 O81 2.105 . S
Sc67 O83 2.105 . S
Sc67 O87 2.105 . S
Sc68 O69 2.025 . S
Sc68 O78 2.105 . S
Sc68 O80 2.105 . S
Sc68 O84 2.105 . S
Sc68 O86 2.105 . S
O69 Sc66 2.025 . S
O69 Sc67 2.025 . S
O69 Sc68 2.025 . S
C70 O76 1.268 . S
C70 O86 1.268 . S
C71 O77 1.268 . S
C71 O85 1.268 . S
C72 O78 1.268 . S
C72 O87 1.268 . S
C73 O79 1.268 . S
C73 O83 1.268 . S
C74 O80 1.268 . S
C74 O82 1.268 . S
C75 O81 1.268 . S
C75 O84 1.268 . S
O76 Sc66 2.105 . S
O76 C70 1.268 . S
O77 Sc67 2.105 . S
O77 C71 1.268 . S
O78 Sc68 2.105 . S
O78 C72 1.268 . S
O79 Sc66 2.105 . S
O79 C73 1.268 . S
O80 Sc68 2.105 . S
O80 C74 1.268 . S
O81 Sc67 2.105 . S
O81 C75 1.268 . S
O82 Sc66 2.105 . S
O82 C74 1.268 . S
O83 Sc67 2.105 . S
O83 C73 1.268 . S
O84 Sc68 2.105 . S
O84 C75 1.268 . S
O85 Sc66 2.105 . S
O85 C71 1.268 . S
O86 Sc68 2.105 . S
O86 C70 1.268 . S
O87 Sc67 2.105 . S
O87 C72 1.268 . S
C88 C89 1.391 . S
C88 C92 1.391 . S
C88 H130 0.948 . S
C89 C88 1.391 . S
C89 C90 1.391 . S
C90 C89 1.391 . S
C90 H146 0.947 . S
C90 C147 1.392 . S
C91 C92 1.391 . S
C91 C95 1.397 . S
C91 C147 1.419 . S
C92 C88 1.391 . S
C92 C91 1.391 . S
C92 C93 1.399 . S
C93 C92 1.399 . S
C93 C96 1.396 . S
C93 C105 1.453 . S
C93 C106 1.684 . S
H94 C118 0.948 . S
C95 C91 1.397 . S
C95 C96 1.394 . S
C95 C114 1.723 . S
C96 C93 1.396 . S
C96 C95 1.394 . S
C96 C126 1.723 . S
H97 C120 0.947 . S
H98 C121 0.948 . S
H99 C127 0.982 . S
H100 C128 0.979 . S
H101 C128 0.980 . S
H102 C128 0.983 . S
H103 C127 0.979 . S
H104 C127 0.977 . S
C105 C93 1.453 . S
C105 H134 0.982 . S
C105 H135 0.979 . S
C105 H136 0.977 . S
C106 C93 1.684 . S
C106 H131 0.979 . S
C106 H132 0.980 . S
C106 H133 0.983 . S
C107 C108 1.391 . S
C107 C112 1.391 . S
C107 H137 0.948 . S
C108 C107 1.391 . S
C108 C109 1.391 . S
C109 C108 1.391 . S
C109 C110 1.392 . S
C109 H138 0.947 . S
C110 C109 1.392 . S
C110 C111 1.419 . S
C110 H139 0.948 . S
C111 C110 1.419 . S
C111 C112 1.391 . S
C111 C115 1.397 . S
C112 C107 1.391 . S
C112 C111 1.391 . S
C112 C113 1.399 . S
C113 C112 1.399 . S
C113 C114 1.396 . S
C113 C116 1.453 . S
C113 C117 1.684 . S
C114 C95 1.723 . S
C114 C113 1.396 . S
C114 C115 1.394 . S
C115 C111 1.397 . S
C115 C114 1.394 . S
C115 C125 1.723 . S
C116 C113 1.453 . S
C116 H140 0.982 . S
C116 H141 0.979 . S
C116 H142 0.977 . S
C117 C113 1.684 . S
C117 H143 0.979 . S
C117 H144 0.980 . S
C117 H145 0.983 . S
C118 H94 0.948 . S
C118 C119 1.391 . S
C118 C123 1.391 . S
C119 C118 1.391 . S
C119 C120 1.391 . S
C120 H97 0.947 . S
C120 C119 1.391 . S
C120 C121 1.392 . S
C121 H98 0.948 . S
C121 C120 1.392 . S
C121 C122 1.419 . S
C122 C121 1.419 . S
C122 C123 1.391 . S
C122 C126 1.397 . S
C123 C118 1.391 . S
C123 C122 1.391 . S
C123 C124 1.399 . S
C124 C123 1.399 . S
C124 C125 1.396 . S
C124 C127 1.453 . S
C124 C128 1.684 . S
C125 C115 1.723 . S
C125 C124 1.396 . S
C125 C126 1.394 . S
C126 C96 1.723 . S
C126 C122 1.397 . S
C126 C125 1.394 . S
C127 H99 0.982 . S
C127 H103 0.979 . S
C127 H104 0.977 . S
C127 C124 1.453 . S
C128 H100 0.979 . S
C128 H101 0.980 . S
C128 H102 0.983 . S
C128 C124 1.684 . S
H129 C147 0.948 . S
H130 C88 0.948 . S
H131 C106 0.979 . S
H132 C106 0.980 . S
H133 C106 0.983 . S
H134 C105 0.982 . S
H135 C105 0.979 . S
H136 C105 0.977 . S
H137 C107 0.948 . S
H138 C109 0.947 . S
H139 C110 0.948 . S
H140 C116 0.982 . S
H141 C116 0.979 . S
H142 C116 0.977 . S
H143 C117 0.979 . S
H144 C117 0.980 . S
H145 C117 0.983 . S
H146 C90 0.947 . S
C147 C90 1.392 . S
C147 C91 1.419 . S
C147 H129 0.948 . S
C148 C149 1.391 . S
C148 C152 1.391 . S
C148 H190 0.948 . S
C149 C148 1.391 . S
C149 C150 1.391 . S
C150 C149 1.391 . S
C150 H206 0.947 . S
C150 C207 1.392 . S
C151 C152 1.391 . S
C151 C155 1.397 . S
C151 C207 1.419 . S
C152 C148 1.391 . S
C152 C151 1.391 . S
C152 C153 1.399 . S
C153 C152 1.399 . S
C153 C156 1.396 . S
C153 C165 1.453 . S
C153 C166 1.684 . S
H154 C178 0.948 . S
C155 C151 1.397 . S
C155 C156 1.394 . S
C155 C174 1.723 . S
C156 C153 1.396 . S
C156 C155 1.394 . S
C156 C186 1.723 . S
H157 C180 0.947 . S
H158 C181 0.948 . S
H159 C187 0.982 . S
H160 C188 0.979 . S
H161 C188 0.980 . S
H162 C188 0.983 . S
H163 C187 0.979 . S
H164 C187 0.977 . S
C165 C153 1.453 . S
C165 H194 0.982 . S
C165 H195 0.979 . S
C165 H196 0.977 . S
C166 C153 1.684 . S
C166 H191 0.979 . S
C166 H192 0.980 . S
C166 H193 0.983 . S
C167 C168 1.391 . S
C167 C172 1.391 . S
C167 H197 0.948 . S
C168 C167 1.391 . S
C168 C169 1.391 . S
C169 C168 1.391 . S
C169 C170 1.392 . S
C169 H198 0.947 . S
C170 C169 1.392 . S
C170 C171 1.419 . S
C170 H199 0.948 . S
C171 C170 1.419 . S
C171 C172 1.391 . S
C171 C175 1.397 . S
C172 C167 1.391 . S
C172 C171 1.391 . S
C172 C173 1.399 . S
C173 C172 1.399 . S
C173 C174 1.396 . S
C173 C176 1.453 . S
C173 C177 1.684 . S
C174 C155 1.723 . S
C174 C173 1.396 . S
C174 C175 1.394 . S
C175 C171 1.397 . S
C175 C174 1.394 . S
C175 C185 1.723 . S
C176 C173 1.453 . S
C176 H200 0.982 . S
C176 H201 0.979 . S
C176 H202 0.977 . S
C177 C173 1.684 . S
C177 H203 0.979 . S
C177 H204 0.980 . S
C177 H205 0.983 . S
C178 H154 0.948 . S
C178 C179 1.391 . S
C178 C183 1.391 . S
C179 C178 1.391 . S
C179 C180 1.391 . S
C180 H157 0.947 . S
C180 C179 1.391 . S
C180 C181 1.392 . S
C181 H158 0.948 . S
C181 C180 1.392 . S
C181 C182 1.419 . S
C182 C181 1.419 . S
C182 C183 1.391 . S
C182 C186 1.397 . S
C183 C178 1.391 . S
C183 C182 1.391 . S
C183 C184 1.399 . S
C184 C183 1.399 . S
C184 C185 1.396 . S
C184 C187 1.453 . S
C184 C188 1.684 . S
C185 C175 1.723 . S
C185 C184 1.396 . S
C185 C186 1.394 . S
C186 C156 1.723 . S
C186 C182 1.397 . S
C186 C185 1.394 . S
C187 H159 0.982 . S
C187 H163 0.979 . S
C187 H164 0.977 . S
C187 C184 1.453 . S
C188 H160 0.979 . S
C188 H161 0.980 . S
C188 H162 0.983 . S
C188 C184 1.684 . S
H189 C207 0.948 . S
H190 C148 0.948 . S
H191 C166 0.979 . S
H192 C166 0.980 . S
H193 C166 0.983 . S
H194 C165 0.982 . S
H195 C165 0.979 . S
H196 C165 0.977 . S
H197 C167 0.948 . S
H198 C169 0.947 . S
H199 C170 0.948 . S
H200 C176 0.982 . S
H201 C176 0.979 . S
H202 C176 0.977 . S
H203 C177 0.979 . S
H204 C177 0.980 . S
H205 C177 0.983 . S
H206 C150 0.947 . S
C207 C150 1.392 . S
C207 C151 1.419 . S
C207 H189 0.948 . S
C208 C209 1.391 . S
C208 C212 1.391 . S
C208 H250 0.948 . S
C209 C208 1.391 . S
C209 C210 1.391 . S
C210 C209 1.391 . S
C210 H266 0.947 . S
C210 C267 1.392 . S
C211 C212 1.391 . S
C211 C215 1.397 . S
C211 C267 1.419 . S
C212 C208 1.391 . S
C212 C211 1.391 . S
C212 C213 1.399 . S
C213 C212 1.399 . S
C213 C216 1.396 . S
C213 C225 1.453 . S
C213 C226 1.684 . S
H214 C238 0.948 . S
C215 C211 1.397 . S
C215 C216 1.394 . S
C215 C234 1.723 . S
C216 C213 1.396 . S
C216 C215 1.394 . S
C216 C246 1.723 . S
H217 C240 0.947 . S
H218 C241 0.948 . S
H219 C247 0.982 . S
H220 C248 0.979 . S
H221 C248 0.980 . S
H222 C248 0.983 . S
H223 C247 0.979 . S
H224 C247 0.977 . S
C225 C213 1.453 . S
C225 H254 0.982 . S
C225 H255 0.979 . S
C225 H256 0.977 . S
C226 C213 1.684 . S
C226 H251 0.979 . S
C226 H252 0.980 . S
C226 H253 0.983 . S
C227 C228 1.391 . S
C227 C232 1.391 . S
C227 H257 0.948 . S
C228 C227 1.391 . S
C228 C229 1.391 . S
C229 C228 1.391 . S
C229 C230 1.392 . S
C229 H258 0.947 . S
C230 C229 1.392 . S
C230 C231 1.419 . S
C230 H259 0.948 . S
C231 C230 1.419 . S
C231 C232 1.391 . S
C231 C235 1.397 . S
C232 C227 1.391 . S
C232 C231 1.391 . S
C232 C233 1.399 . S
C233 C232 1.399 . S
C233 C234 1.396 . S
C233 C236 1.453 . S
C233 C237 1.684 . S
C234 C215 1.723 . S
C234 C233 1.396 . S
C234 C235 1.394 . S
C235 C231 1.397 . S
C235 C234 1.394 . S
C235 C245 1.723 . S
C236 C233 1.453 . S
C236 H260 0.982 . S
C236 H261 0.979 . S
C236 H262 0.977 . S
C237 C233 1.684 . S
C237 H263 0.979 . S
C237 H264 0.980 . S
C237 H265 0.983 . S
C238 H214 0.948 . S
C238 C239 1.391 . S
C238 C243 1.391 . S
C239 C238 1.391 . S
C239 C240 1.391 . S
C240 H217 0.947 . S
C240 C239 1.391 . S
C240 C241 1.392 . S
C241 H218 0.948 . S
C241 C240 1.392 . S
C241 C242 1.419 . S
C242 C241 1.419 . S
C242 C243 1.391 . S
C242 C246 1.397 . S
C243 C238 1.391 . S
C243 C242 1.391 . S
C243 C244 1.399 . S
C244 C243 1.399 . S
C244 C245 1.396 . S
C244 C247 1.453 . S
C244 C248 1.684 . S
C245 C235 1.723 . S
C245 C244 1.396 . S
C245 C246 1.394 . S
C246 C216 1.723 . S
C246 C242 1.397 . S
C246 C245 1.394 . S
C247 H219 0.982 . S
C247 H223 0.979 . S
C247 H224 0.977 . S
C247 C244 1.453 . S
C248 H220 0.979 . S
C248 H221 0.980 . S
C248 H222 0.983 . S
C248 C244 1.684 . S
H249 C267 0.948 . S
H250 C208 0.948 . S
H251 C226 0.979 . S
H252 C226 0.980 . S
H253 C226 0.983 . S
H254 C225 0.982 . S
H255 C225 0.979 . S
H256 C225 0.977 . S
H257 C227 0.948 . S
H258 C229 0.947 . S
H259 C230 0.948 . S
H260 C236 0.982 . S
H261 C236 0.979 . S
H262 C236 0.977 . S
H263 C237 0.979 . S
H264 C237 0.980 . S
H265 C237 0.983 . S
H266 C210 0.947 . S
C267 C210 1.392 . S
C267 C211 1.419 . S
C267 H249 0.948 . S
C268 C269 1.391 . S
C268 C272 1.391 . S
C268 H310 0.948 . S
C269 C268 1.391 . S
C269 C270 1.391 . S
C270 C269 1.391 . S
C270 H326 0.947 . S
C270 C327 1.392 . S
C271 C272 1.391 . S
C271 C275 1.397 . S
C271 C327 1.419 . S
C272 C268 1.391 . S
C272 C271 1.391 . S
C272 C273 1.399 . S
C273 C272 1.399 . S
C273 C276 1.396 . S
C273 C285 1.453 . S
C273 C286 1.684 . S
H274 C298 0.948 . S
C275 C271 1.397 . S
C275 C276 1.394 . S
C275 C294 1.723 . S
C276 C273 1.396 . S
C276 C275 1.394 . S
C276 C306 1.723 . S
H277 C300 0.947 . S
H278 C301 0.948 . S
H279 C307 0.982 . S
H280 C308 0.979 . S
H281 C308 0.980 . S
H282 C308 0.983 . S
H283 C307 0.979 . S
H284 C307 0.977 . S
C285 C273 1.453 . S
C285 H314 0.982 . S
C285 H315 0.979 . S
C285 H316 0.977 . S
C286 C273 1.684 . S
C286 H311 0.979 . S
C286 H312 0.980 . S
C286 H313 0.983 . S
C287 C288 1.391 . S
C287 C292 1.391 . S
C287 H317 0.948 . S
C288 C287 1.391 . S
C288 C289 1.391 . S
C289 C288 1.391 . S
C289 C290 1.392 . S
C289 H318 0.947 . S
C290 C289 1.392 . S
C290 C291 1.419 . S
C290 H319 0.948 . S
C291 C290 1.419 . S
C291 C292 1.391 . S
C291 C295 1.397 . S
C292 C287 1.391 . S
C292 C291 1.391 . S
C292 C293 1.399 . S
C293 C292 1.399 . S
C293 C294 1.396 . S
C293 C296 1.453 . S
C293 C297 1.684 . S
C294 C275 1.723 . S
C294 C293 1.396 . S
C294 C295 1.394 . S
C295 C291 1.397 . S
C295 C294 1.394 . S
C295 C305 1.723 . S
C296 C293 1.453 . S
C296 H320 0.982 . S
C296 H321 0.979 . S
C296 H322 0.977 . S
C297 C293 1.684 . S
C297 H323 0.979 . S
C297 H324 0.980 . S
C297 H325 0.983 . S
C298 H274 0.948 . S
C298 C299 1.391 . S
C298 C303 1.391 . S
C299 C298 1.391 . S
C299 C300 1.391 . S
C300 H277 0.947 . S
C300 C299 1.391 . S
C300 C301 1.392 . S
C301 H278 0.948 . S
C301 C300 1.392 . S
C301 C302 1.419 . S
C302 C301 1.419 . S
C302 C303 1.391 . S
C302 C306 1.397 . S
C303 C298 1.391 . S
C303 C302 1.391 . S
C303 C304 1.399 . S
C304 C303 1.399 . S
C304 C305 1.396 . S
C304 C307 1.453 . S
C304 C308 1.684 . S
C305 C295 1.723 . S
C305 C304 1.396 . S
C305 C306 1.394 . S
C306 C276 1.723 . S
C306 C302 1.397 . S
C306 C305 1.394 . S
C307 H279 0.982 . S
C307 H283 0.979 . S
C307 H284 0.977 . S
C307 C304 1.453 . S
C308 H280 0.979 . S
C308 H281 0.980 . S
C308 H282 0.983 . S
C308 C304 1.684 . S
H309 C327 0.948 . S
H310 C268 0.948 . S
H311 C286 0.979 . S
H312 C286 0.980 . S
H313 C286 0.983 . S
H314 C285 0.982 . S
H315 C285 0.979 . S
H316 C285 0.977 . S
H317 C287 0.948 . S
H318 C289 0.947 . S
H319 C290 0.948 . S
H320 C296 0.982 . S
H321 C296 0.979 . S
H322 C296 0.977 . S
H323 C297 0.979 . S
H324 C297 0.980 . S
H325 C297 0.983 . S
H326 C270 0.947 . S
C327 C270 1.392 . S
C327 C271 1.419 . S
C327 H309 0.948 . S
C328 C329 1.391 . S
C328 C332 1.391 . S
C328 H370 0.948 . S
C329 C328 1.391 . S
C329 C330 1.391 . S
C330 C329 1.391 . S
C330 H386 0.947 . S
C330 C387 1.392 . S
C331 C332 1.391 . S
C331 C335 1.397 . S
C331 C387 1.419 . S
C332 C328 1.391 . S
C332 C331 1.391 . S
C332 C333 1.399 . S
C333 C332 1.399 . S
C333 C336 1.396 . S
C333 C345 1.453 . S
C333 C346 1.684 . S
H334 C358 0.948 . S
C335 C331 1.397 . S
C335 C336 1.394 . S
C335 C354 1.723 . S
C336 C333 1.396 . S
C336 C335 1.394 . S
C336 C366 1.723 . S
H337 C360 0.947 . S
H338 C361 0.948 . S
H339 C367 0.982 . S
H340 C368 0.979 . S
H341 C368 0.980 . S
H342 C368 0.983 . S
H343 C367 0.979 . S
H344 C367 0.977 . S
C345 C333 1.453 . S
C345 H374 0.982 . S
C345 H375 0.979 . S
C345 H376 0.977 . S
C346 C333 1.684 . S
C346 H371 0.979 . S
C346 H372 0.980 . S
C346 H373 0.983 . S
C347 C348 1.391 . S
C347 C352 1.391 . S
C347 H377 0.948 . S
C348 C347 1.391 . S
C348 C349 1.391 . S
C349 C348 1.391 . S
C349 C350 1.392 . S
C349 H378 0.947 . S
C350 C349 1.392 . S
C350 C351 1.419 . S
C350 H379 0.948 . S
C351 C350 1.419 . S
C351 C352 1.391 . S
C351 C355 1.397 . S
C352 C347 1.391 . S
C352 C351 1.391 . S
C352 C353 1.399 . S
C353 C352 1.399 . S
C353 C354 1.396 . S
C353 C356 1.453 . S
C353 C357 1.684 . S
C354 C335 1.723 . S
C354 C353 1.396 . S
C354 C355 1.394 . S
C355 C351 1.397 . S
C355 C354 1.394 . S
C355 C365 1.723 . S
C356 C353 1.453 . S
C356 H380 0.982 . S
C356 H381 0.979 . S
C356 H382 0.977 . S
C357 C353 1.684 . S
C357 H383 0.979 . S
C357 H384 0.980 . S
C357 H385 0.983 . S
C358 H334 0.948 . S
C358 C359 1.391 . S
C358 C363 1.391 . S
C359 C358 1.391 . S
C359 C360 1.391 . S
C360 H337 0.947 . S
C360 C359 1.391 . S
C360 C361 1.392 . S
C361 H338 0.948 . S
C361 C360 1.392 . S
C361 C362 1.419 . S
C362 C361 1.419 . S
C362 C363 1.391 . S
C362 C366 1.397 . S
C363 C358 1.391 . S
C363 C362 1.391 . S
C363 C364 1.399 . S
C364 C363 1.399 . S
C364 C365 1.396 . S
C364 C367 1.453 . S
C364 C368 1.684 . S
C365 C355 1.723 . S
C365 C364 1.396 . S
C365 C366 1.394 . S
C366 C336 1.723 . S
C366 C362 1.397 . S
C366 C365 1.394 . S
C367 H339 0.982 . S
C367 H343 0.979 . S
C367 H344 0.977 . S
C367 C364 1.453 . S
C368 H340 0.979 . S
C368 H341 0.980 . S
C368 H342 0.983 . S
C368 C364 1.684 . S
H369 C387 0.948 . S
H370 C328 0.948 . S
H371 C346 0.979 . S
H372 C346 0.980 . S
H373 C346 0.983 . S
H374 C345 0.982 . S
H375 C345 0.979 . S
H376 C345 0.977 . S
H377 C347 0.948 . S
H378 C349 0.947 . S
H379 C350 0.948 . S
H380 C356 0.982 . S
H381 C356 0.979 . S
H382 C356 0.977 . S
H383 C357 0.979 . S
H384 C357 0.980 . S
H385 C357 0.983 . S
H386 C330 0.947 . S
C387 C330 1.392 . S
C387 C331 1.419 . S
C387 H369 0.948 . S
C388 C389 1.391 . S
C388 C392 1.391 . S
C388 H430 0.948 . S
C389 C388 1.391 . S
C389 C390 1.391 . S
C390 C389 1.391 . S
C390 H446 0.947 . S
C390 C447 1.392 . S
C391 C392 1.391 . S
C391 C395 1.397 . S
C391 C447 1.419 . S
C392 C388 1.391 . S
C392 C391 1.391 . S
C392 C393 1.399 . S
C393 C392 1.399 . S
C393 C396 1.396 . S
C393 C405 1.453 . S
C393 C406 1.684 . S
H394 C418 0.948 . S
C395 C391 1.397 . S
C395 C396 1.394 . S
C395 C414 1.723 . S
C396 C393 1.396 . S
C396 C395 1.394 . S
C396 C426 1.723 . S
H397 C420 0.947 . S
H398 C421 0.948 . S
H399 C427 0.982 . S
H400 C428 0.979 . S
H401 C428 0.980 . S
H402 C428 0.983 . S
H403 C427 0.979 . S
H404 C427 0.977 . S
C405 C393 1.453 . S
C405 H434 0.982 . S
C405 H435 0.979 . S
C405 H436 0.977 . S
C406 C393 1.684 . S
C406 H431 0.979 . S
C406 H432 0.980 . S
C406 H433 0.983 . S
C407 C408 1.391 . S
C407 C412 1.391 . S
C407 H437 0.948 . S
C408 C407 1.391 . S
C408 C409 1.391 . S
C409 C408 1.391 . S
C409 C410 1.392 . S
C409 H438 0.947 . S
C410 C409 1.392 . S
C410 C411 1.419 . S
C410 H439 0.948 . S
C411 C410 1.419 . S
C411 C412 1.391 . S
C411 C415 1.397 . S
C412 C407 1.391 . S
C412 C411 1.391 . S
C412 C413 1.399 . S
C413 C412 1.399 . S
C413 C414 1.396 . S
C413 C416 1.453 . S
C413 C417 1.684 . S
C414 C395 1.723 . S
C414 C413 1.396 . S
C414 C415 1.394 . S
C415 C411 1.397 . S
C415 C414 1.394 . S
C415 C425 1.723 . S
C416 C413 1.453 . S
C416 H440 0.982 . S
C416 H441 0.979 . S
C416 H442 0.977 . S
C417 C413 1.684 . S
C417 H443 0.979 . S
C417 H444 0.980 . S
C417 H445 0.983 . S
C418 H394 0.948 . S
C418 C419 1.391 . S
C418 C423 1.391 . S
C419 C418 1.391 . S
C419 C420 1.391 . S
C420 H397 0.947 . S
C420 C419 1.391 . S
C420 C421 1.392 . S
C421 H398 0.948 . S
C421 C420 1.392 . S
C421 C422 1.419 . S
C422 C421 1.419 . S
C422 C423 1.391 . S
C422 C426 1.397 . S
C423 C418 1.391 . S
C423 C422 1.391 . S
C423 C424 1.399 . S
C424 C423 1.399 . S
C424 C425 1.396 . S
C424 C427 1.453 . S
C424 C428 1.684 . S
C425 C415 1.723 . S
C425 C424 1.396 . S
C425 C426 1.394 . S
C426 C396 1.723 . S
C426 C422 1.397 . S
C426 C425 1.394 . S
C427 H399 0.982 . S
C427 H403 0.979 . S
C427 H404 0.977 . S
C427 C424 1.453 . S
C428 H400 0.979 . S
C428 H401 0.980 . S
C428 H402 0.983 . S
C428 C424 1.684 . S
H429 C447 0.948 . S
H430 C388 0.948 . S
H431 C406 0.979 . S
H432 C406 0.980 . S
H433 C406 0.983 . S
H434 C405 0.982 . S
H435 C405 0.979 . S
H436 C405 0.977 . S
H437 C407 0.948 . S
H438 C409 0.947 . S
H439 C410 0.948 . S
H440 C416 0.982 . S
H441 C416 0.979 . S
H442 C416 0.977 . S
H443 C417 0.979 . S
H444 C417 0.980 . S
H445 C417 0.983 . S
H446 C390 0.947 . S
C447 C390 1.392 . S
C447 C391 1.419 . S
C447 H429 0.948 . S
C448 C449 1.391 . S
C448 C452 1.391 . S
C448 H490 0.948 . S
C449 C448 1.391 . S
C449 C450 1.391 . S
C450 C449 1.391 . S
C450 H506 0.947 . S
C450 C507 1.392 . S
C451 C452 1.391 . S
C451 C455 1.397 . S
C451 C507 1.419 . S
C452 C448 1.391 . S
C452 C451 1.391 . S
C452 C453 1.399 . S
C453 C452 1.399 . S
C453 C456 1.396 . S
C453 C465 1.453 . S
C453 C466 1.684 . S
H454 C478 0.948 . S
C455 C451 1.397 . S
C455 C456 1.394 . S
C455 C474 1.723 . S
C456 C453 1.396 . S
C456 C455 1.394 . S
C456 C486 1.723 . S
H457 C480 0.947 . S
H458 C481 0.948 . S
H459 C487 0.982 . S
H460 C488 0.979 . S
H461 C488 0.980 . S
H462 C488 0.983 . S
H463 C487 0.979 . S
H464 C487 0.977 . S
C465 C453 1.453 . S
C465 H494 0.982 . S
C465 H495 0.979 . S
C465 H496 0.977 . S
C466 C453 1.684 . S
C466 H491 0.979 . S
C466 H492 0.980 . S
C466 H493 0.983 . S
C467 C468 1.391 . S
C467 C472 1.391 . S
C467 H497 0.948 . S
C468 C467 1.391 . S
C468 C469 1.391 . S
C469 C468 1.391 . S
C469 C470 1.392 . S
C469 H498 0.947 . S
C470 C469 1.392 . S
C470 C471 1.419 . S
C470 H499 0.948 . S
C471 C470 1.419 . S
C471 C472 1.391 . S
C471 C475 1.397 . S
C472 C467 1.391 . S
C472 C471 1.391 . S
C472 C473 1.399 . S
C473 C472 1.399 . S
C473 C474 1.396 . S
C473 C476 1.453 . S
C473 C477 1.684 . S
C474 C455 1.723 . S
C474 C473 1.396 . S
C474 C475 1.394 . S
C475 C471 1.397 . S
C475 C474 1.394 . S
C475 C485 1.723 . S
C476 C473 1.453 . S
C476 H500 0.982 . S
C476 H501 0.979 . S
C476 H502 0.977 . S
C477 C473 1.684 . S
C477 H503 0.979 . S
C477 H504 0.980 . S
C477 H505 0.983 . S
C478 H454 0.948 . S
C478 C479 1.391 . S
C478 C483 1.391 . S
C479 C478 1.391 . S
C479 C480 1.391 . S
C480 H457 0.947 . S
C480 C479 1.391 . S
C480 C481 1.392 . S
C481 H458 0.948 . S
C481 C480 1.392 . S
C481 C482 1.419 . S
C482 C481 1.419 . S
C482 C483 1.391 . S
C482 C486 1.397 . S
C483 C478 1.391 . S
C483 C482 1.391 . S
C483 C484 1.399 . S
C484 C483 1.399 . S
C484 C485 1.396 . S
C484 C487 1.453 . S
C484 C488 1.684 . S
C485 C475 1.723 . S
C485 C484 1.396 . S
C485 C486 1.394 . S
C486 C456 1.723 . S
C486 C482 1.397 . S
C486 C485 1.394 . S
C487 H459 0.982 . S
C487 H463 0.979 . S
C487 H464 0.977 . S
C487 C484 1.453 . S
C488 H460 0.979 . S
C488 H461 0.980 . S
C488 H462 0.983 . S
C488 C484 1.684 . S
H489 C507 0.948 . S
H490 C448 0.948 . S
H491 C466 0.979 . S
H492 C466 0.980 . S
H493 C466 0.983 . S
H494 C465 0.982 . S
H495 C465 0.979 . S
H496 C465 0.977 . S
H497 C467 0.948 . S
H498 C469 0.947 . S
H499 C470 0.948 . S
H500 C476 0.982 . S
H501 C476 0.979 . S
H502 C476 0.977 . S
H503 C477 0.979 . S
H504 C477 0.980 . S
H505 C477 0.983 . S
H506 C450 0.947 . S
C507 C450 1.392 . S
C507 C451 1.419 . S
C507 H489 0.948 . S
C508 C509 1.391 . S
C508 C512 1.391 . S
C508 H550 0.948 . S
C509 C508 1.391 . S
C509 C510 1.391 . S
C510 C509 1.391 . S
C510 H566 0.947 . S
C510 C567 1.392 . S
C511 C512 1.391 . S
C511 C515 1.397 . S
C511 C567 1.419 . S
C512 C508 1.391 . S
C512 C511 1.391 . S
C512 C513 1.399 . S
C513 C512 1.399 . S
C513 C516 1.396 . S
C513 C525 1.453 . S
C513 C526 1.684 . S
H514 C538 0.948 . S
C515 C511 1.397 . S
C515 C516 1.394 . S
C515 C534 1.723 . S
C516 C513 1.396 . S
C516 C515 1.394 . S
C516 C546 1.723 . S
H517 C540 0.947 . S
H518 C541 0.948 . S
H519 C547 0.982 . S
H520 C548 0.979 . S
H521 C548 0.980 . S
H522 C548 0.983 . S
H523 C547 0.979 . S
H524 C547 0.977 . S
C525 C513 1.453 . S
C525 H554 0.982 . S
C525 H555 0.979 . S
C525 H556 0.977 . S
C526 C513 1.684 . S
C526 H551 0.979 . S
C526 H552 0.980 . S
C526 H553 0.983 . S
C527 C528 1.391 . S
C527 C532 1.391 . S
C527 H557 0.948 . S
C528 C527 1.391 . S
C528 C529 1.391 . S
C529 C528 1.391 . S
C529 C530 1.392 . S
C529 H558 0.947 . S
C530 C529 1.392 . S
C530 C531 1.419 . S
C530 H559 0.948 . S
C531 C530 1.419 . S
C531 C532 1.391 . S
C531 C535 1.397 . S
C532 C527 1.391 . S
C532 C531 1.391 . S
C532 C533 1.399 . S
C533 C532 1.399 . S
C533 C534 1.396 . S
C533 C536 1.453 . S
C533 C537 1.684 . S
C534 C515 1.723 . S
C534 C533 1.396 . S
C534 C535 1.394 . S
C535 C531 1.397 . S
C535 C534 1.394 . S
C535 C545 1.723 . S
C536 C533 1.453 . S
C536 H560 0.982 . S
C536 H561 0.979 . S
C536 H562 0.977 . S
C537 C533 1.684 . S
C537 H563 0.979 . S
C537 H564 0.980 . S
C537 H565 0.983 . S
C538 H514 0.948 . S
C538 C539 1.391 . S
C538 C543 1.391 . S
C539 C538 1.391 . S
C539 C540 1.391 . S
C540 H517 0.947 . S
C540 C539 1.391 . S
C540 C541 1.392 . S
C541 H518 0.948 . S
C541 C540 1.392 . S
C541 C542 1.419 . S
C542 C541 1.419 . S
C542 C543 1.391 . S
C542 C546 1.397 . S
C543 C538 1.391 . S
C543 C542 1.391 . S
C543 C544 1.399 . S
C544 C543 1.399 . S
C544 C545 1.396 . S
C544 C547 1.453 . S
C544 C548 1.684 . S
C545 C535 1.723 . S
C545 C544 1.396 . S
C545 C546 1.394 . S
C546 C516 1.723 . S
C546 C542 1.397 . S
C546 C545 1.394 . S
C547 H519 0.982 . S
C547 H523 0.979 . S
C547 H524 0.977 . S
C547 C544 1.453 . S
C548 H520 0.979 . S
C548 H521 0.980 . S
C548 H522 0.983 . S
C548 C544 1.684 . S
H549 C567 0.948 . S
H550 C508 0.948 . S
H551 C526 0.979 . S
H552 C526 0.980 . S
H553 C526 0.983 . S
H554 C525 0.982 . S
H555 C525 0.979 . S
H556 C525 0.977 . S
H557 C527 0.948 . S
H558 C529 0.947 . S
H559 C530 0.948 . S
H560 C536 0.982 . S
H561 C536 0.979 . S
H562 C536 0.977 . S
H563 C537 0.979 . S
H564 C537 0.980 . S
H565 C537 0.983 . S
H566 C510 0.947 . S
C567 C510 1.392 . S
C567 C511 1.419 . S
C567 H549 0.948 . S
H568 C574 0.930 . S
H569 C577 0.930 . S
H570 C578 0.930 . S
H571 C579 0.930 . S
H572 C582 0.930 1_545 S
H573 C583 0.930 . S
C574 H568 0.930 . S
C574 C575 1.355 . S
C574 C576 1.415 . S
C575 C574 1.355 . S
C575 C577 1.419 . S
C576 C574 1.415 . S
C576 C581 1.425 . S
C576 C583 1.409 . S
C577 H569 0.930 . S
C577 C575 1.419 . S
C577 C578 1.362 . S
C578 H570 0.930 . S
C578 C577 1.362 . S
C578 C581 1.409 . S
C579 H571 0.930 . S
C579 C580 1.355 1_565 S
C579 C581 1.415 . S
C580 C579 1.355 1_545 S
C580 C582 1.419 1_545 S
C581 C576 1.425 . S
C581 C578 1.409 . S
C581 C579 1.415 . S
C582 H572 0.930 1_565 S
C582 C580 1.419 1_565 S
C582 C583 1.362 . S
C583 H573 0.930 . S
C583 C576 1.409 . S
C583 C582 1.362 . S
H584 C590 0.930 . S
H585 C593 0.930 . S
H586 C594 0.930 . S
H587 C595 0.930 . S
H588 C598 0.930 . S
H589 C599 0.930 . S
C590 H584 0.930 . S
C590 C591 1.355 . S
C590 C592 1.415 . S
C591 C590 1.355 . S
C591 C593 1.419 . S
C592 C590 1.415 . S
C592 C597 1.425 . S
C592 C599 1.409 . S
C593 H585 0.930 . S
C593 C591 1.419 . S
C593 C594 1.362 . S
C594 H586 0.930 . S
C594 C593 1.362 . S
C594 C597 1.409 . S
C595 H587 0.930 . S
C595 C596 1.355 . S
C595 C597 1.415 . S
C596 C595 1.355 . S
C596 C598 1.419 . S
C597 C592 1.425 . S
C597 C594 1.409 . S
C597 C595 1.415 . S
C598 H588 0.930 . S
C598 C596 1.419 . S
C598 C599 1.362 . S
C599 H589 0.930 . S
C599 C592 1.409 . S
C599 C598 1.362 . S
H600 C606 0.930 . S
H601 C609 0.930 . S
H602 C610 0.930 . S
H603 C611 0.930 1_565 S
H604 C614 0.930 . S
H605 C615 0.930 . S
C606 H600 0.930 . S
C606 C607 1.355 . S
C606 C608 1.415 . S
C607 C606 1.355 . S
C607 C609 1.419 . S
C608 C606 1.415 . S
C608 C613 1.425 . S
C608 C615 1.409 . S
C609 H601 0.930 . S
C609 C607 1.419 . S
C609 C610 1.362 . S
C610 H602 0.930 . S
C610 C609 1.362 . S
C610 C613 1.409 . S
C611 H603 0.930 1_545 S
C611 C612 1.355 1_545 S
C611 C613 1.415 . S
C612 C611 1.355 1_565 S
C612 C614 1.419 1_565 S
C613 C608 1.425 . S
C613 C610 1.409 . S
C613 C611 1.415 . S
C614 H604 0.930 . S
C614 C612 1.419 1_545 S
C614 C615 1.362 . S
C615 H605 0.930 . S
C615 C608 1.409 . S
C615 C614 1.362 . S
H616 C622 0.930 . S
H617 C625 0.930 . S
H618 C626 0.930 . S
H619 C627 0.930 . S
H620 C630 0.930 . S
H621 C631 0.930 . S
C622 H616 0.930 . S
C622 C623 1.355 . S
C622 C624 1.415 . S
C623 C622 1.355 . S
C623 C625 1.419 . S
C624 C622 1.415 . S
C624 C629 1.425 . S
C624 C631 1.409 . S
C625 H617 0.930 . S
C625 C623 1.419 . S
C625 C626 1.362 . S
C626 H618 0.930 . S
C626 C625 1.362 . S
C626 C629 1.409 . S
C627 H619 0.930 . S
C627 C628 1.355 . S
C627 C629 1.415 . S
C628 C627 1.355 . S
C628 C630 1.419 . S
C629 C624 1.425 . S
C629 C626 1.409 . S
C629 C627 1.415 . S
C630 H620 0.930 . S
C630 C628 1.419 . S
C630 C631 1.362 . S
C631 H621 0.930 . S
C631 C624 1.409 . S
C631 C630 1.362 . S
H632 C638 0.930 . S
H633 C641 0.930 . S
H634 C642 0.930 . S
H635 C643 0.930 . S
H636 C646 0.930 . S
H637 C647 0.930 . S
C638 H632 0.930 . S
C638 C639 1.355 . S
C638 C640 1.415 . S
C639 C638 1.355 . S
C639 C641 1.419 . S
C640 C638 1.415 . S
C640 C645 1.425 . S
C640 C647 1.409 . S
C641 H633 0.930 . S
C641 C639 1.419 . S
C641 C642 1.362 . S
C642 H634 0.930 . S
C642 C641 1.362 . S
C642 C645 1.409 . S
C643 H635 0.930 . S
C643 C644 1.355 . S
C643 C645 1.415 . S
C644 C643 1.355 . S
C644 C646 1.419 . S
C645 C640 1.425 . S
C645 C642 1.409 . S
C645 C643 1.415 . S
C646 H636 0.930 . S
C646 C644 1.419 . S
C646 C647 1.362 . S
C647 H637 0.930 . S
C647 C640 1.409 . S
C647 C646 1.362 . S
H648 C654 0.930 . S
H649 C657 0.930 . S
H650 C658 0.930 . S
H651 C659 0.930 . S
H652 C662 0.930 . S
H653 C663 0.930 1_455 S
C654 H648 0.930 . S
C654 C655 1.355 . S
C654 C656 1.415 . S
C655 C654 1.355 . S
C655 C657 1.419 . S
C656 C654 1.415 . S
C656 C661 1.425 . S
C656 C663 1.409 . S
C657 H649 0.930 . S
C657 C655 1.419 . S
C657 C658 1.362 . S
C658 H650 0.930 . S
C658 C657 1.362 . S
C658 C661 1.409 . S
C659 H651 0.930 . S
C659 C660 1.355 1_655 S
C659 C661 1.415 . S
C660 C659 1.355 1_455 S
C660 C662 1.419 . S
C661 C656 1.425 . S
C661 C658 1.409 . S
C661 C659 1.415 . S
C662 H652 0.930 . S
C662 C660 1.419 . S
C662 C663 1.362 1_455 S
C663 H653 0.930 1_655 S
C663 C656 1.409 . S
C663 C662 1.362 1_655 S
H664 C670 0.930 . S
H665 C673 0.930 . S
H666 C674 0.930 . S
H667 C675 0.930 . S
H668 C678 0.930 . S
H669 C679 0.930 . S
C670 H664 0.930 . S
C670 C671 1.355 . S
C670 C672 1.415 . S
C671 C670 1.355 . S
C671 C673 1.419 . S
C672 C670 1.415 . S
C672 C677 1.425 . S
C672 C679 1.409 . S
C673 H665 0.930 . S
C673 C671 1.419 . S
C673 C674 1.362 . S
C674 H666 0.930 . S
C674 C673 1.362 . S
C674 C677 1.409 . S
C675 H667 0.930 . S
C675 C676 1.355 . S
C675 C677 1.415 . S
C676 C675 1.355 . S
C676 C678 1.419 . S
C677 C672 1.425 . S
C677 C674 1.409 . S
C677 C675 1.415 . S
C678 H668 0.930 . S
C678 C676 1.419 . S
C678 C679 1.362 . S
C679 H669 0.930 . S
C679 C672 1.409 . S
C679 C678 1.362 . S
H680 C686 0.930 . S
H681 C689 0.930 . S
H682 C690 0.930 . S
H683 C691 0.930 . S
H684 C694 0.930 . S
H685 C695 0.930 1_655 S
C686 H680 0.930 . S
C686 C687 1.355 . S
C686 C688 1.415 . S
C687 C686 1.355 . S
C687 C689 1.419 . S
C688 C686 1.415 . S
C688 C693 1.425 . S
C688 C695 1.409 . S
C689 H681 0.930 . S
C689 C687 1.419 . S
C689 C690 1.362 . S
C690 H682 0.930 . S
C690 C689 1.362 . S
C690 C693 1.409 . S
C691 H683 0.930 . S
C691 C692 1.355 1_455 S
C691 C693 1.415 . S
C692 C691 1.355 1_655 S
C692 C694 1.419 . S
C693 C688 1.425 . S
C693 C690 1.409 . S
C693 C691 1.415 . S
C694 H684 0.930 . S
C694 C692 1.419 . S
C694 C695 1.362 1_655 S
C695 H685 0.930 1_455 S
C695 C688 1.409 . S
C695 C694 1.362 1_455 S
H696 C702 0.930 . S
H697 C705 0.930 . S
H698 C706 0.930 . S
H699 C707 0.930 1_565 S
H700 C710 0.930 . S
H701 C711 0.930 . S
C702 H696 0.930 . S
C702 C703 1.355 . S
C702 C704 1.415 . S
C703 C702 1.355 . S
C703 C705 1.419 . S
C704 C702 1.415 . S
C704 C709 1.425 . S
C704 C711 1.409 . S
C705 H697 0.930 . S
C705 C703 1.419 . S
C705 C706 1.362 . S
C706 H698 0.930 . S
C706 C705 1.362 . S
C706 C709 1.409 . S
C707 H699 0.930 1_545 S
C707 C708 1.355 1_545 S
C707 C709 1.415 . S
C708 C707 1.355 1_565 S
C708 C710 1.419 1_565 S
C709 C704 1.425 . S
C709 C706 1.409 . S
C709 C707 1.415 . S
C710 H700 0.930 . S
C710 C708 1.419 1_545 S
C710 C711 1.362 . S
C711 H701 0.930 . S
C711 C704 1.409 . S
C711 C710 1.362 . S
H712 C718 0.930 . S
H713 C721 0.930 . S
H714 C722 0.930 . S
H715 C723 0.930 . S
H716 C726 0.930 . S
H717 C727 0.930 . S
C718 H712 0.930 . S
C718 C719 1.355 . S
C718 C720 1.415 . S
C719 C718 1.355 . S
C719 C721 1.419 . S
C720 C718 1.415 . S
C720 C725 1.425 . S
C720 C727 1.409 . S
C721 H713 0.930 . S
C721 C719 1.419 . S
C721 C722 1.362 . S
C722 H714 0.930 . S
C722 C721 1.362 . S
C722 C725 1.409 . S
C723 H715 0.930 . S
C723 C724 1.355 . S
C723 C725 1.415 . S
C724 C723 1.355 . S
C724 C726 1.419 . S
C725 C720 1.425 . S
C725 C722 1.409 . S
C725 C723 1.415 . S
C726 H716 0.930 . S
C726 C724 1.419 . S
C726 C727 1.362 . S
C727 H717 0.930 . S
C727 C720 1.409 . S
C727 C726 1.362 . S
H728 C734 0.930 . S
H729 C737 0.930 . S
H730 C738 0.930 . S
H731 C739 0.930 . S
H732 C742 0.930 1_545 S
H733 C743 0.930 . S
C734 H728 0.930 . S
C734 C735 1.355 . S
C734 C736 1.415 . S
C735 C734 1.355 . S
C735 C737 1.419 . S
C736 C734 1.415 . S
C736 C741 1.425 . S
C736 C743 1.409 . S
C737 H729 0.930 . S
C737 C735 1.419 . S
C737 C738 1.362 . S
C738 H730 0.930 . S
C738 C737 1.362 . S
C738 C741 1.409 . S
C739 H731 0.930 . S
C739 C740 1.355 1_565 S
C739 C741 1.415 . S
C740 C739 1.355 1_545 S
C740 C742 1.419 1_545 S
C741 C736 1.425 . S
C741 C738 1.409 . S
C741 C739 1.415 . S
C742 H732 0.930 1_565 S
C742 C740 1.419 1_565 S
C742 C743 1.362 . S
C743 H733 0.930 . S
C743 C736 1.409 . S
C743 C742 1.362 . S
H744 C750 0.930 . S
H745 C753 0.930 . S
H746 C754 0.930 . S
H747 C755 0.930 . S
H748 C758 0.930 . S
H749 C759 0.930 . S
C750 H744 0.930 . S
C750 C751 1.355 . S
C750 C752 1.415 . S
C751 C750 1.355 . S
C751 C753 1.419 . S
C752 C750 1.415 . S
C752 C757 1.425 . S
C752 C759 1.409 . S
C753 H745 0.930 . S
C753 C751 1.419 . S
C753 C754 1.362 . S
C754 H746 0.930 . S
C754 C753 1.362 . S
C754 C757 1.409 . S
C755 H747 0.930 . S
C755 C756 1.355 . S
C755 C757 1.415 . S
C756 C755 1.355 . S
C756 C758 1.419 . S
C757 C752 1.425 . S
C757 C754 1.409 . S
C757 C755 1.415 . S
C758 H748 0.930 . S
C758 C756 1.419 . S
C758 C759 1.362 . S
C759 H749 0.930 . S
C759 C752 1.409 . S
C759 C758 1.362 . S
H760 C766 0.930 . S
H761 C769 0.930 . S
H762 C770 0.930 . S
H763 C771 0.930 . S
H764 C774 0.930 . S
H765 C775 0.930 . S
C766 H760 0.930 . S
C766 C767 1.355 . S
C766 C768 1.415 . S
C767 C766 1.355 . S
C767 C769 1.419 . S
C768 C766 1.415 . S
C768 C773 1.425 . S
C768 C775 1.409 . S
C769 H761 0.930 . S
C769 C767 1.419 . S
C769 C770 1.362 . S
C770 H762 0.930 . S
C770 C769 1.362 . S
C770 C773 1.409 . S
C771 H763 0.930 . S
C771 C772 1.355 . S
C771 C773 1.415 . S
C772 C771 1.355 . S
C772 C774 1.419 . S
C773 C768 1.425 . S
C773 C770 1.409 . S
C773 C771 1.415 . S
C774 H764 0.930 . S
C774 C772 1.419 . S
C774 C775 1.362 . S
C775 H765 0.930 . S
C775 C768 1.409 . S
C775 C774 1.362 . S
H776 C782 0.930 . S
H777 C785 0.930 . S
H778 C786 0.930 . S
H779 C787 0.940 . S
H780 C790 0.930 . S
H781 C791 0.930 . S
C782 H776 0.930 . S
C782 C783 1.355 . S
C782 C784 1.415 . S
C783 C782 1.355 . S
C783 C785 1.419 . S
C784 C782 1.415 . S
C784 C789 1.425 . S
C784 C791 1.409 . S
C785 H777 0.930 . S
C785 C783 1.419 . S
C785 C786 1.362 . S
C786 H778 0.930 . S
C786 C785 1.362 . S
C786 C789 1.409 . S
C787 H779 0.940 . S
C787 C788 1.356 . S
C787 C789 1.404 1_655 S
C788 C787 1.356 . S
C788 C790 1.419 1_655 S
C789 C784 1.425 . S
C789 C786 1.409 . S
C789 C787 1.404 1_455 S
C790 H780 0.930 . S
C790 C788 1.419 1_455 S
C790 C791 1.362 . S
C791 H781 0.930 . S
C791 C784 1.409 . S
C791 C790 1.362 . S
H792 C798 0.930 . S
H793 C801 0.930 . S
H794 C802 0.930 . S
H795 C803 0.930 . S
H796 C806 0.930 . S
H797 C807 0.930 . S
C798 H792 0.930 . S
C798 C799 1.355 . S
C798 C800 1.415 . S
C799 C798 1.355 . S
C799 C801 1.419 . S
C800 C798 1.415 . S
C800 C805 1.425 . S
C800 C807 1.409 . S
C801 H793 0.930 . S
C801 C799 1.419 . S
C801 C802 1.362 . S
C802 H794 0.930 . S
C802 C801 1.362 . S
C802 C805 1.409 . S
C803 H795 0.930 . S
C803 C804 1.355 . S
C803 C805 1.415 . S
C804 C803 1.355 . S
C804 C806 1.419 . S
C805 C800 1.425 . S
C805 C802 1.409 . S
C805 C803 1.415 . S
C806 H796 0.930 . S
C806 C804 1.419 . S
C806 C807 1.362 . S
C807 H797 0.930 . S
C807 C800 1.409 . S
C807 C806 1.362 . S
H808 C814 0.930 . S
H809 C817 0.930 . S
H810 C818 0.930 . S
H811 C819 0.930 . S
H812 C822 0.930 . S
H813 C823 0.930 1_455 S
C814 H808 0.930 . S
C814 C815 1.355 . S
C814 C816 1.415 . S
C815 C814 1.355 . S
C815 C817 1.419 . S
C816 C814 1.415 . S
C816 C821 1.425 . S
C816 C823 1.409 . S
C817 H809 0.930 . S
C817 C815 1.419 . S
C817 C818 1.362 . S
C818 H810 0.930 . S
C818 C817 1.362 . S
C818 C821 1.409 . S
C819 H811 0.930 . S
C819 C820 1.355 1_655 S
C819 C821 1.415 . S
C820 C819 1.355 1_455 S
C820 C822 1.419 . S
C821 C816 1.425 . S
C821 C818 1.409 . S
C821 C819 1.415 . S
C822 H812 0.930 . S
C822 C820 1.419 . S
C822 C823 1.362 1_455 S
C823 H813 0.930 1_655 S
C823 C816 1.409 . S
C823 C822 1.362 1_655 S
H824 C830 0.930 . S
H825 C833 0.930 . S
H826 C834 0.930 . S
H827 C835 0.930 . S
H828 C838 0.930 . S
H829 C839 0.930 . S
C830 H824 0.930 . S
C830 C831 1.355 . S
C830 C832 1.415 . S
C831 C830 1.355 . S
C831 C833 1.419 . S
C832 C830 1.415 . S
C832 C837 1.425 . S
C832 C839 1.409 . S
C833 H825 0.930 . S
C833 C831 1.419 . S
C833 C834 1.362 . S
C834 H826 0.930 . S
C834 C833 1.362 . S
C834 C837 1.409 . S
C835 H827 0.930 . S
C835 C836 1.355 . S
C835 C837 1.415 . S
C836 C835 1.355 . S
C836 C838 1.419 . S
C837 C832 1.425 . S
C837 C834 1.409 . S
C837 C835 1.415 . S
C838 H828 0.930 . S
C838 C836 1.419 . S
C838 C839 1.362 . S
C839 H829 0.930 . S
C839 C832 1.409 . S
C839 C838 1.362 . S
H840 C846 0.930 . S
H841 C849 0.930 . S
H842 C850 0.930 . S
H843 C851 0.930 . S
H844 C854 0.930 . S
H845 C855 0.930 . S
C846 H840 0.930 . S
C846 C847 1.355 . S
C846 C848 1.415 . S
C847 C846 1.355 . S
C847 C849 1.419 . S
C848 C846 1.415 . S
C848 C853 1.425 . S
C848 C855 1.409 . S
C849 H841 0.930 . S
C849 C847 1.419 . S
C849 C850 1.362 . S
C850 H842 0.930 . S
C850 C849 1.362 . S
C850 C853 1.409 . S
C851 H843 0.930 . S
C851 C852 1.355 . S
C851 C853 1.415 . S
C852 C851 1.355 . S
C852 C854 1.419 . S
C853 C848 1.425 . S
C853 C850 1.409 . S
C853 C851 1.415 . S
C854 H844 0.930 . S
C854 C852 1.419 . S
C854 C855 1.362 . S
C855 H845 0.930 . S
C855 C848 1.409 . S
C855 C854 1.362 . S
H856 C862 0.930 . S
H857 C865 0.930 . S
H858 C866 0.930 . S
H859 C867 0.930 . S
H860 C870 0.930 . S
H861 C871 0.930 . S
C862 H856 0.930 . S
C862 C863 1.355 . S
C862 C864 1.415 . S
C863 C862 1.355 . S
C863 C865 1.419 . S
C864 C862 1.415 . S
C864 C869 1.425 . S
C864 C871 1.409 . S
C865 H857 0.930 . S
C865 C863 1.419 . S
C865 C866 1.362 . S
C866 H858 0.930 . S
C866 C865 1.362 . S
C866 C869 1.409 . S
C867 H859 0.930 . S
C867 C868 1.355 . S
C867 C869 1.415 . S
C868 C867 1.355 . S
C868 C870 1.419 . S
C869 C864 1.425 . S
C869 C866 1.409 . S
C869 C867 1.415 . S
C870 H860 0.930 . S
C870 C868 1.419 . S
C870 C871 1.362 . S
C871 H861 0.930 . S
C871 C864 1.409 . S
C871 C870 1.362 . S
H872 C878 0.930 . S
H873 C881 0.930 . S
H874 C882 0.930 . S
H875 C883 0.930 . S
H876 C886 0.930 . S
H877 C887 0.930 . S
C878 H872 0.930 . S
C878 C879 1.355 . S
C878 C880 1.415 . S
C879 C878 1.355 . S
C879 C881 1.419 . S
C880 C878 1.415 . S
C880 C885 1.425 . S
C880 C887 1.409 . S
C881 H873 0.930 . S
C881 C879 1.419 . S
C881 C882 1.362 . S
C882 H874 0.930 . S
C882 C881 1.362 . S
C882 C885 1.409 . S
C883 H875 0.930 . S
C883 C884 1.355 . S
C883 C885 1.415 . S
C884 C883 1.355 . S
C884 C886 1.419 . S
C885 C880 1.425 . S
C885 C882 1.409 . S
C885 C883 1.415 . S
C886 H876 0.930 . S
C886 C884 1.419 . S
C886 C887 1.362 . S
C887 H877 0.930 . S
C887 C880 1.409 . S
C887 C886 1.362 . S
H888 C894 0.930 . S
H889 C897 0.930 . S
H890 C898 0.930 . S
H891 C899 0.930 . S
H892 C902 0.930 . S
H893 C903 0.930 . S
C894 H888 0.930 . S
C894 C895 1.355 . S
C894 C896 1.415 . S
C895 C894 1.355 . S
C895 C897 1.419 . S
C896 C894 1.415 . S
C896 C901 1.425 . S
C896 C903 1.409 . S
C897 H889 0.930 . S
C897 C895 1.419 . S
C897 C898 1.362 . S
C898 H890 0.930 . S
C898 C897 1.362 . S
C898 C901 1.409 . S
C899 H891 0.930 . S
C899 C900 1.355 . S
C899 C901 1.415 . S
C900 C899 1.355 . S
C900 C902 1.419 . S
C901 C896 1.425 . S
C901 C898 1.409 . S
C901 C899 1.415 . S
C902 H892 0.930 . S
C902 C900 1.419 . S
C902 C903 1.362 . S
C903 H893 0.930 . S
C903 C896 1.409 . S
C903 C902 1.362 . S
H904 C910 0.930 . S
H905 C913 0.930 . S
H906 C914 0.930 . S
H907 C915 0.930 . S
H908 C918 0.930 . S
H909 C919 0.930 . S
C910 H904 0.930 . S
C910 C911 1.355 . S
C910 C912 1.415 . S
C911 C910 1.355 . S
C911 C913 1.419 . S
C912 C910 1.415 . S
C912 C917 1.425 . S
C912 C919 1.409 . S
C913 H905 0.930 . S
C913 C911 1.419 . S
C913 C914 1.362 . S
C914 H906 0.930 . S
C914 C913 1.362 . S
C914 C917 1.409 . S
C915 H907 0.930 . S
C915 C916 1.355 . S
C915 C917 1.415 . S
C916 C915 1.355 . S
C916 C918 1.419 . S
C917 C912 1.425 . S
C917 C914 1.409 . S
C917 C915 1.415 . S
C918 H908 0.930 . S
C918 C916 1.419 . S
C918 C919 1.362 . S
C919 H909 0.930 . S
C919 C912 1.409 . S
C919 C918 1.362 . S
H920 C926 0.930 . S
H921 C929 0.930 . S
H922 C930 0.930 . S
H923 C931 0.930 . S
H924 C934 0.930 . S
H925 C935 0.930 . S
C926 H920 0.930 . S
C926 C927 1.355 . S
C926 C928 1.415 . S
C927 C926 1.355 . S
C927 C929 1.419 . S
C928 C926 1.415 . S
C928 C933 1.425 . S
C928 C935 1.409 . S
C929 H921 0.930 . S
C929 C927 1.419 . S
C929 C930 1.362 . S
C930 H922 0.930 . S
C930 C929 1.362 . S
C930 C933 1.409 . S
C931 H923 0.930 . S
C931 C932 1.355 . S
C931 C933 1.415 . S
C932 C931 1.355 . S
C932 C934 1.419 . S
C933 C928 1.425 . S
C933 C930 1.409 . S
C933 C931 1.415 . S
C934 H924 0.930 . S
C934 C932 1.419 . S
C934 C935 1.362 . S
C935 H925 0.930 . S
C935 C928 1.409 . S
C935 C934 1.362 . S
H936 C942 0.930 . S
H937 C945 0.930 . S
H938 C946 0.930 . S
H939 C947 0.930 . S
H940 C950 0.930 . S
H941 C951 0.930 . S
C942 H936 0.930 . S
C942 C943 1.355 . S
C942 C944 1.415 . S
C943 C942 1.355 . S
C943 C945 1.419 . S
C944 C942 1.415 . S
C944 C949 1.425 . S
C944 C951 1.409 . S
C945 H937 0.930 . S
C945 C943 1.419 . S
C945 C946 1.362 . S
C946 H938 0.930 . S
C946 C945 1.362 . S
C946 C949 1.409 . S
C947 H939 0.930 . S
C947 C948 1.355 . S
C947 C949 1.415 . S
C948 C947 1.355 . S
C948 C950 1.419 . S
C949 C944 1.425 . S
C949 C946 1.409 . S
C949 C947 1.415 . S
C950 H940 0.930 . S
C950 C948 1.419 . S
C950 C951 1.362 . S
C951 H941 0.930 . S
C951 C944 1.409 . S
C951 C950 1.362 . S
C575 C8 1.406 . S
C580 C89 1.237 . S
C591 C31 1.385 . S
C596 C168 1.433 . S
C607 C53 1.405 . S
C612 C239 1.420 . S
C628 C299 1.433 . S
C623 C74 1.385 . S
C644 C329 1.343 . S
C639 C26 1.412 . S
C655 C48 1.433 . S
C660 C419 1.394 . S
C671 C71 1.429 . S
C676 C479 1.399 . S
C687 C5 1.432 . S
C692 C528 1.392 . S
C703 C50 1.410 . S
C708 C509 1.254 . S
C724 C348 1.432 . S
C719 C70 1.398 . S
C740 C408 1.347 . S
C735 C4 1.400 . S
C751 C28 1.385 . S
C756 C468 1.343 . S
C772 C149 1.278 . S
C767 C73 1.428 . S
C783 C7 1.395 . S
C788 C228 1.289 . S
C804 C288 1.235 . S
C799 C30 1.433 . S
C820 C108 1.416 . S
C815 C52 1.429 . S
C836 C449 1.052 . S
C831 C9 1.084 . S
C852 C539 1.065 . S
C847 C29 1.073 . S
C863 C51 1.084 . S
C868 C359 1.082 . S
C884 C389 1.083 . S
C879 C75 1.091 . S
C900 C209 1.080 . S
C895 C27 1.091 . S
C911 C49 1.090 . S
C916 C269 1.096 . S
C932 C119 1.077 . S
C927 C72 1.074 . S
C948 C179 1.086 . S
C943 C6 1.094 . S
