# Generated by pormake.
# Topology csq, (4,8)-cn, num edge types: 1
# Building blocks:
#     Node 0, Type 0, BuildingBlock: KUFVIS_clean_linker_0, # of connection points: 4
#     Node 1, Type 0, BuildingBlock: KUFVIS_clean_linker_0, # of connection points: 4
#     Node 2, Type 0, BuildingBlock: KUFVIS_clean_linker_0, # of connection points: 4
#     Node 3, Type 0, BuildingBlock: KUFVIS_clean_linker_0, # of connection points: 4
#     Node 4, Type 0, BuildingBlock: KUFVIS_clean_linker_0, # of connection points: 4
#     Node 5, Type 0, BuildingBlock: KUFVIS_clean_linker_0, # of connection points: 4
#     Node 6, Type 1, BuildingBlock: TAGTUT_clean_sbu_1, # of connection points: 8
#     Node 7, Type 1, BuildingBlock: TAGTUT_clean_sbu_1, # of connection points: 8
#     Node 8, Type 1, BuildingBlock: TAGTUT_clean_sbu_1, # of connection points: 8
#     Edge 9, Type (0, 1), BuildingBlock: CIFDUS_clean_linker_0, # of connection points: 2
#     Edge 10, Type (0, 1), BuildingBlock: CIFDUS_clean_linker_0, # of connection points: 2
#     Edge 11, Type (0, 1), BuildingBlock: CIFDUS_clean_linker_0, # of connection points: 2
#     Edge 12, Type (0, 1), BuildingBlock: CIFDUS_clean_linker_0, # of connection points: 2
#     Edge 13, Type (0, 1), BuildingBlock: CIFDUS_clean_linker_0, # of connection points: 2
#     Edge 14, Type (0, 1), BuildingBlock: CIFDUS_clean_linker_0, # of connection points: 2
#     Edge 15, Type (0, 1), BuildingBlock: CIFDUS_clean_linker_0, # of connection points: 2
#     Edge 16, Type (0, 1), BuildingBlock: CIFDUS_clean_linker_0, # of connection points: 2
#     Edge 17, Type (0, 1), BuildingBlock: CIFDUS_clean_linker_0, # of connection points: 2
#     Edge 18, Type (0, 1), BuildingBlock: CIFDUS_clean_linker_0, # of connection points: 2
#     Edge 19, Type (0, 1), BuildingBlock: CIFDUS_clean_linker_0, # of connection points: 2
#     Edge 20, Type (0, 1), BuildingBlock: CIFDUS_clean_linker_0, # of connection points: 2
#     Edge 21, Type (0, 1), BuildingBlock: CIFDUS_clean_linker_0, # of connection points: 2
#     Edge 22, Type (0, 1), BuildingBlock: CIFDUS_clean_linker_0, # of connection points: 2
#     Edge 23, Type (0, 1), BuildingBlock: CIFDUS_clean_linker_0, # of connection points: 2
#     Edge 24, Type (0, 1), BuildingBlock: CIFDUS_clean_linker_0, # of connection points: 2
#     Edge 25, Type (0, 1), BuildingBlock: CIFDUS_clean_linker_0, # of connection points: 2
#     Edge 26, Type (0, 1), BuildingBlock: CIFDUS_clean_linker_0, # of connection points: 2
#     Edge 27, Type (0, 1), BuildingBlock: CIFDUS_clean_linker_0, # of connection points: 2
#     Edge 28, Type (0, 1), BuildingBlock: CIFDUS_clean_linker_0, # of connection points: 2
#     Edge 29, Type (0, 1), BuildingBlock: CIFDUS_clean_linker_0, # of connection points: 2
#     Edge 30, Type (0, 1), BuildingBlock: CIFDUS_clean_linker_0, # of connection points: 2
#     Edge 31, Type (0, 1), BuildingBlock: CIFDUS_clean_linker_0, # of connection points: 2
#     Edge 32, Type (0, 1), BuildingBlock: CIFDUS_clean_linker_0, # of connection points: 2
# Relax obj value: 0.045
# Max RMSD: 0.130
# Mean RMSD: 0.100
data_MOF--net-csq--node1-TAGTUT_clean_sbu_1--node2-KUFVIS_clean_linker_0--edge1-CIFDUS_clean_linker_0
_symmetry_space_group_name_H-M    P1
_symmetry_Int_Tables_number       1
_symmetry_cell_setting            triclinic
loop_
_symmetry_equiv_pos_as_xyz
'x, y, z'
_cell_length_a     47.550257
_cell_length_b     47.311227
_cell_length_c     16.574139
_cell_angle_alpha  92.997872
_cell_angle_beta   91.938145
_cell_angle_gamma 120.01948
loop_
_atom_site_label
_atom_site_type_symbol
_atom_site_fract_x
_atom_site_fract_y
_atom_site_fract_z
_atom_type_partial_charge
H0 H 0.37456 0.52545 0.21224 0.0
H1 H 0.2937 0.52569 0.31479 0.0
H2 H 0.29533 0.51255 0.05359 0.0
H3 H 0.26372 0.53361 0.05074 0.0
H4 H 0.17664 0.52048 0.15026 0.0
H5 H 0.24097 0.50138 0.29302 0.0
C6 C 0.35092 0.52352 0.20333 0.0
C7 C 0.33731 0.52002 0.12476 0.0
C8 C 0.3347 0.52466 0.2709 0.0
C9 C 0.30456 0.52286 0.26096 0.0
C10 C 0.28942 0.51853 0.18284 0.0
C11 C 0.30603 0.51638 0.1146 0.0
C12 C 0.25742 0.51798 0.17356 0.0
C13 C 0.2483 0.5267 0.10098 0.0
C14 C 0.21928 0.52744 0.09272 0.0
C15 C 0.19924 0.52012 0.15734 0.0
C16 C 0.2072 0.51118 0.22985 0.0
C17 C 0.23601 0.50971 0.23767 0.0
H18 H 0.68839 0.15807 0.14934 0.0
H19 H 0.7774 0.23729 0.26124 0.0
H20 H 0.75532 0.23142 0.00282 0.0
H21 H 0.81084 0.25819 0.00466 0.0
H22 H 0.88046 0.35444 0.10762 0.0
H23 H 0.80391 0.29091 0.24936 0.0
C24 C 0.71113 0.1806 0.14388 0.0
C25 C 0.71981 0.19248 0.06746 0.0
C26 C 0.73172 0.19694 0.21336 0.0
C27 C 0.76149 0.22565 0.20694 0.0
C28 C 0.77053 0.23899 0.13134 0.0
C29 C 0.74941 0.22177 0.06155 0.0
C30 C 0.80158 0.27087 0.12552 0.0
C31 C 0.81883 0.27693 0.05425 0.0
C32 C 0.84761 0.30685 0.04876 0.0
C33 C 0.85841 0.33109 0.11238 0.0
C34 C 0.84421 0.32468 0.18596 0.0
C35 C 0.81517 0.29505 0.19225 0.0
H36 H 0.57545 0.88835 -0.0014 0.0
H37 H 0.57869 0.82355 0.16358 0.0
H38 H 0.55075 0.79198 0.90793 0.0
H39 H 0.57585 0.76352 0.92909 0.0
H40 H 0.57185 0.69561 0.09451 0.0
H41 H 0.55131 0.76993 0.17734 0.0
C42 C 0.57196 0.86442 0.00992 0.0
C43 C 0.56185 0.84073 0.94557 0.0
C44 C 0.5757 0.8576 0.08879 0.0
C45 C 0.57394 0.82776 0.10241 0.0
C46 C 0.56591 0.80368 0.03737 0.0
C47 C 0.55889 0.81027 0.95857 0.0
C48 C 0.56526 0.77226 0.05213 0.0
C49 C 0.57163 0.75509 0.98928 0.0
C50 C 0.57232 0.7265 0.00395 0.0
C51 C 0.56929 0.71657 0.08213 0.0
C52 C 0.56049 0.73111 0.14347 0.0
C53 C 0.55854 0.7591 0.12917 0.0
H54 H 0.86883 0.51181 0.06602 0.0
H55 H 0.78927 0.50951 0.18443 0.0
H56 H 0.80475 0.53508 0.93558 0.0
H57 H 0.75031 0.50941 0.92686 0.0
H58 H 0.67628 0.51749 0.04696 0.0
H59 H 0.76283 0.53699 0.18519 0.0
C60 C 0.84742 0.51444 0.06384 0.0
C61 C 0.83822 0.52307 -0.00747 0.0
C62 C 0.83029 0.51047 0.13325 0.0
C63 C 0.80282 0.51412 0.13083 0.0
C64 C 0.79243 0.52238 0.05949 0.0
C65 C 0.81109 0.5276 -0.00936 0.0
C66 C 0.76134 0.5236 0.05622 0.0
C67 C 0.74243 0.51561 0.98213 0.0
C68 C 0.71224 0.51401 0.97908 0.0
C69 C 0.70003 0.51943 0.0501 0.0
C70 C 0.71781 0.52713 0.1249 0.0
C71 C 0.74893 0.53023 0.12741 0.0
H72 H 0.36938 0.86116 0.07408 0.0
H73 H 0.29076 0.80652 0.22223 0.0
H74 H 0.29043 0.76927 0.97629 0.0
H75 H 0.23864 0.74129 0.97893 0.0
H76 H 0.16763 0.67602 0.12992 0.0
H77 H 0.25568 0.75609 0.24184 0.0
C78 C 0.34627 0.83938 0.08219 0.0
C79 C 0.33075 0.81572 0.01737 0.0
C80 C 0.33217 0.83593 0.1564 0.0
C81 C 0.30183 0.80791 0.16562 0.0
C82 C 0.28562 0.78307 0.10093 0.0
C83 C 0.30099 0.78751 0.02703 0.0
C84 C 0.25266 0.75319 0.10916 0.0
C85 C 0.232 0.73432 0.03943 0.0
C86 C 0.20152 0.70646 0.04712 0.0
C87 C 0.19115 0.69764 0.12378 0.0
C88 C 0.21011 0.71604 0.19306 0.0
C89 C 0.2411 0.74323 0.18656 0.0
H90 H 0.46392 0.32362 0.1355 0.0
H91 H 0.45733 0.25558 0.30353 0.0
H92 H 0.48174 0.24686 0.05645 0.0
H93 H 0.45215 0.19281 0.07413 0.0
H94 H 0.4519 0.12882 0.24757 0.0
H95 H 0.48414 0.22834 0.32611 0.0
C96 C 0.46591 0.30243 0.14893 0.0
C97 C 0.47426 0.28708 0.08846 0.0
C98 C 0.46211 0.29266 0.22726 0.0
C99 C 0.46203 0.26382 0.2432 0.0
C100 C 0.4681 0.24602 0.18154 0.0
C101 C 0.47515 0.25859 0.10395 0.0
C102 C 0.46648 0.2144 0.19856 0.0
C103 C 0.45673 0.18907 0.13591 0.0
C104 C 0.45311 0.15868 0.15297 0.0
C105 C 0.45672 0.15292 0.23309 0.0
C106 C 0.4693 0.17806 0.29439 0.0
C107 C 0.47414 0.20891 0.27784 0.0
C108 C 0.99413 0.42385 0.81789 0.0
C109 C 0.09189 0.49349 0.74969 0.0
C110 C 0.05344 0.58006 0.74594 0.0
Mg111 Mg 0.02573 0.44944 0.65818 0.0
O112 O 1.01126 0.47882 0.68817 0.0
Mg113 Mg 0.02921 0.5052 0.79448 0.0
Mg114 Mg 0.02298 0.51489 0.61783 0.0
O115 O 0.03511 0.55089 0.54745 0.0
Mg116 Mg 0.02261 0.58222 0.57402 0.0
Mg117 Mg 0.0185 0.52482 0.44043 0.0
C118 C 0.99195 0.44991 0.48903 0.0
C119 C 0.07889 0.51623 0.50293 0.0
O120 O 1.00397 0.45343 0.84669 0.0
O121 O 0.99941 0.41667 0.74663 0.0
O122 O 0.07707 0.50512 0.79004 0.0
O123 O 0.07751 0.47204 0.69005 0.0
O124 O 1.00406 0.43679 0.53418 0.0
O125 O 0.99406 0.47748 0.51022 0.0
C126 C 0.96673 0.51129 0.73415 0.0
O127 O 0.97674 0.51529 0.66221 0.0
O128 O 0.982 0.50663 0.79223 0.0
O129 O 0.04843 0.57657 0.39159 0.0
O130 O 0.05135 0.6143 0.48625 0.0
O131 O 0.972 0.52787 0.44006 0.0
C132 C 0.05892 0.60646 0.41869 0.0
O133 O 0.97148 0.56146 0.53853 0.0
O134 O 0.04275 0.59416 0.69984 0.0
C135 C 0.95741 0.54037 0.47811 0.0
O136 O 0.05106 0.5524 0.72432 0.0
O137 O 0.0695 0.51424 0.57527 0.0
O138 O 0.06352 0.52009 0.44396 0.0
C139 C 0.45591 0.02091 0.86621 0.0
C140 C 0.42638 0.93345 0.70964 0.0
C141 C 0.55078 0.96999 0.69916 0.0
Mg142 Mg 0.45135 1.00549 0.68108 0.0
O143 O 0.49453 0.01696 0.71191 0.0
Mg144 Mg 0.50148 0.99051 0.79166 0.0
Mg145 Mg 0.52035 0.01352 0.62558 0.0
O146 O 0.54509 0.00931 0.53778 0.0
Mg147 Mg 0.58756 0.01725 0.56009 0.0
Mg148 Mg 0.53651 0.03362 0.45463 0.0
C149 C 0.48924 0.05544 0.54757 0.0
C150 C 0.46688 0.96832 0.47561 0.0
O151 O 0.47518 0.00939 0.87613 0.0
O152 O 0.4438 0.02139 0.79647 0.0
O153 O 0.45283 0.94446 0.75374 0.0
O154 O 0.42069 0.95235 0.66826 0.0
O155 O 0.46339 0.03996 0.58629 0.0
O156 O 0.51314 0.05007 0.55527 0.0
C157 C 0.56976 0.05881 0.78102 0.0
O158 O 0.56595 0.0558 0.70317 0.0
O159 O 0.54912 0.03727 0.82413 0.0
O160 O 0.55828 0.01027 0.36758 0.0
O161 O 0.58969 0.99738 0.44436 0.0
O162 O 0.5874 0.07848 0.48291 0.0
C163 C 0.57623 0.99717 0.376 0.0
O164 O 0.62094 0.06974 0.56166 0.0
O165 O 0.57595 0.98375 0.65729 0.0
C166 C 0.61505 0.08865 0.52079 0.0
O167 O 0.52819 0.97738 0.69415 0.0
O168 O 0.47424 0.97137 0.55196 0.0
O169 O 0.48622 0.98885 0.42856 0.0
C170 C 0.54593 0.59012 0.38916 0.0
C171 C 0.59371 0.53156 0.42944 0.0
C172 C 0.47491 0.43897 0.51137 0.0
Mg173 Mg 0.57625 0.57487 0.53787 0.0
O174 O 0.53245 0.54123 0.53497 0.0
Mg175 Mg 0.51372 0.51105 0.43495 0.0
Mg176 Mg 0.51737 0.50915 0.61856 0.0
O177 O 0.50216 0.47698 0.70156 0.0
Mg178 Mg 0.45864 0.44299 0.69609 0.0
Mg179 Mg 0.51935 0.50695 0.80189 0.0
C180 C 0.55973 0.57921 0.72395 0.0
C181 C 0.58067 0.51251 0.70785 0.0
O182 O 0.52724 0.55909 0.37091 0.0
O183 O 0.56668 0.60148 0.45056 0.0
O184 O 0.56322 0.51528 0.40811 0.0
O185 O 0.60522 0.55546 0.48402 0.0
O186 O 0.57862 0.59117 0.66577 0.0
O187 O 0.53454 0.55022 0.71711 0.0
C188 C 0.4534 0.50552 0.53268 0.0
O189 O 0.46736 0.50568 0.6002 0.0
O190 O 0.46622 0.50722 0.46536 0.0
O191 O 0.5055 0.4587 0.86611 0.0
O192 O 0.46738 0.41629 0.78397 0.0
O193 O 0.46882 0.5024 0.82583 0.0
C194 C 0.48741 0.42765 0.84669 0.0
O195 O 0.42904 0.46181 0.74527 0.0
O196 O 0.4561 0.42655 0.56925 0.0
C197 C 0.43871 0.48528 0.80037 0.0
O198 O 0.49985 0.46807 0.51916 0.0
O199 O 0.56761 0.51281 0.63917 0.0
O200 O 0.56705 0.51068 0.77403 0.0
H201 H 0.21231 0.54576 0.37282 0.0
H202 H 0.14814 0.4567 0.22589 0.0
H203 H 0.10294 0.44754 0.30763 0.0
H204 H 0.07976 0.46968 0.40527 0.0
H205 H 0.14267 0.55896 0.55222 0.0
H206 H 0.19028 0.56315 0.4877 0.0
C207 C 0.18869 0.52379 0.36091 0.0
C208 C 0.18353 0.50178 0.29372 0.0
C209 C 0.16249 0.51903 0.40752 0.0
C210 C 0.15269 0.47374 0.2777 0.0
C211 C 0.12678 0.46866 0.324 0.0
C212 C 0.10408 0.4894 0.42507 0.0
C213 C 0.10784 0.51386 0.4836 0.0
C214 C 0.13109 0.49179 0.38686 0.0
C215 C 0.13931 0.5396 0.50815 0.0
C216 C 0.16645 0.54215 0.47052 0.0
H217 H 0.68901 0.2025 0.30601 0.0
H218 H 0.7503 0.15976 0.29395 0.0
H219 H 0.72376 0.12682 0.40686 0.0
H220 H 0.67624 0.10297 0.48962 0.0
H221 H 0.61298 0.14375 0.49456 0.0
H222 H 0.64779 0.18556 0.40675 0.0
C223 C 0.69712 0.18668 0.33009 0.0
C224 C 0.72138 0.18333 0.29229 0.0
C225 C 0.6813 0.16746 0.39373 0.0
C226 C 0.73171 0.16268 0.32283 0.0
C227 C 0.71642 0.14378 0.38699 0.0
C228 C 0.67095 0.12194 0.47452 0.0
C229 C 0.642 0.1202 0.49824 0.0
C230 C 0.69026 0.14496 0.42063 0.0
C231 C 0.63515 0.14463 0.4771 0.0
C232 C 0.65482 0.16828 0.42597 0.0
H233 H 0.51011 0.67158 0.16066 0.0
H234 H 0.5952 0.75147 0.29005 0.0
H235 H 0.59717 0.7137 0.38289 0.0
H236 H 0.5808 0.65696 0.4096 0.0
H237 H 0.49956 0.57664 0.26734 0.0
H238 H 0.49075 0.6154 0.19482 0.0
C239 C 0.52812 0.68085 0.21175 0.0
C240 C 0.55237 0.71422 0.21906 0.0
C241 C 0.53085 0.65862 0.25944 0.0
C242 C 0.576 0.72603 0.28417 0.0
C243 C 0.5776 0.70425 0.33572 0.0
C244 C 0.56111 0.64783 0.36282 0.0
C245 C 0.54126 0.61377 0.34308 0.0
C246 C 0.55631 0.6703 0.32078 0.0
C247 C 0.51564 0.6026 0.28289 0.0
C248 C 0.51034 0.62477 0.24195 0.0
H249 H 0.84958 0.54816 0.27489 0.0
H250 H 0.84043 0.46 0.15889 0.0
H251 H 0.87439 0.45771 0.26949 0.0
H252 H 0.91482 0.48667 0.38269 0.0
H253 H 0.92814 0.57755 0.4931 0.0
H254 H 0.88368 0.57246 0.40311 0.0
C255 C 0.8542 0.52792 0.27559 0.0
C256 C 0.84292 0.50442 0.20904 0.0
C257 C 0.87483 0.52755 0.33776 0.0
C258 C 0.84914 0.47839 0.2096 0.0
C259 C 0.86864 0.47719 0.27249 0.0
C260 C 0.9075 0.505 0.38838 0.0
C261 C 0.92522 0.53286 0.44297 0.0
C262 C 0.88293 0.50256 0.33449 0.0
C263 C 0.91503 0.55601 0.45106 0.0
C264 C 0.88981 0.55326 0.39905 0.0
H265 H 0.35377 0.83366 0.31065 0.0
H266 H 0.35023 0.89943 0.14546 0.0
H267 H 0.38945 0.9465 0.23481 0.0
H268 H 0.43015 0.96891 0.34933 0.0
H269 H 0.4345 0.90471 0.51793 0.0
H270 H 0.3894 0.85718 0.439 0.0
C271 C 0.36094 0.85831 0.2957 0.0
C272 C 0.3494 0.8631 0.22111 0.0
C273 C 0.38403 0.88552 0.34731 0.0
C274 C 0.35898 0.89517 0.20218 0.0
C275 C 0.38153 0.9221 0.25304 0.0
C276 C 0.42089 0.94454 0.36953 0.0
C277 C 0.43599 0.94024 0.43842 0.0
C278 C 0.39512 0.91757 0.32403 0.0
C279 C 0.42337 0.90863 0.4648 0.0
C280 C 0.39769 0.88145 0.41938 0.0
H281 H 0.5008 0.35786 0.24653 0.0
H282 H 0.42012 0.27745 0.34947 0.0
H283 H 0.41462 0.31651 0.44181 0.0
H284 H 0.4327 0.37332 0.49058 0.0
H285 H 0.51196 0.45309 0.38082 0.0
H286 H 0.51647 0.414 0.28863 0.0
C287 C 0.48174 0.3488 0.2887 0.0
C288 C 0.46061 0.31488 0.29083 0.0
C289 C 0.47789 0.37117 0.3381 0.0
C290 C 0.43673 0.30344 0.34722 0.0
C291 C 0.43333 0.32575 0.39891 0.0
C292 C 0.45062 0.38229 0.44559 0.0
C293 C 0.47223 0.41621 0.44325 0.0
C294 C 0.45357 0.35966 0.39403 0.0
C295 C 0.49513 0.42723 0.38424 0.0
C296 C 0.49797 0.40489 0.33213 0.0
H297 H 0.51211 0.8505 0.91147 0.0
H298 H 0.59691 0.8558 0.812 0.0
H299 H 0.60055 0.89715 0.72313 0.0
H300 H 0.58549 0.93841 0.69304 0.0
H301 H 0.50362 0.93646 0.80357 0.0
H302 H 0.49362 0.88801 0.87122 0.0
C303 C 0.53038 0.85959 0.86725 0.0
C304 C 0.5541 0.85003 0.86768 0.0
C305 C 0.53392 0.88529 0.82196 0.0
C306 C 0.57809 0.86234 0.81164 0.0
C307 C 0.58067 0.88666 0.76261 0.0
C308 C 0.56552 0.92757 0.73223 0.0
C309 C 0.54578 0.94168 0.74446 0.0
C310 C 0.55988 0.89961 0.77089 0.0
C311 C 0.51958 0.92663 0.794 0.0
C312 C 0.51364 0.89867 0.83215 0.0
H313 H 0.71512 0.55448 0.86647 0.0
H314 H 0.66267 0.45417 0.92615 0.0
H315 H 0.61864 0.44232 0.82534 0.0
H316 H 0.59036 0.46392 0.74572 0.0
H317 H 0.64052 0.56512 0.69356 0.0
H318 H 0.69068 0.5733 0.76323 0.0
C319 C 0.6946 0.5298 0.8546 0.0
C320 C 0.69184 0.50513 0.9029 0.0
C321 C 0.66895 0.52355 0.79842 0.0
C322 C 0.66512 0.47331 0.88881 0.0
C323 C 0.63992 0.46665 0.83173 0.0
C324 C 0.61281 0.48728 0.74623 0.0
C325 C 0.61211 0.51387 0.71465 0.0
C326 C 0.64084 0.492 0.7895 0.0
C327 C 0.64087 0.54427 0.71659 0.0
C328 C 0.66933 0.54902 0.75759 0.0
H329 H 0.13926 0.69075 0.01698 0.0
H330 H 0.21349 0.67343 0.92545 0.0
H331 H 0.1727 0.62903 0.83013 0.0
H332 H 0.11546 0.59456 0.77541 0.0
H333 H 0.04207 0.61367 0.8652 0.0
H334 H 0.08273 0.65718 0.96173 0.0
C335 C 0.14653 0.67759 0.97499 0.0
C336 C 0.17927 0.68544 0.9773 0.0
C337 C 0.12293 0.65179 0.92244 0.0
C338 C 0.18852 0.66819 0.92336 0.0
C339 C 0.16513 0.6425 0.87005 0.0
C340 C 0.10835 0.60775 0.81775 0.0
C341 C 0.07578 0.60052 0.81521 0.0
C342 C 0.13217 0.63374 0.87011 0.0
C343 C 0.0669 0.61846 0.86782 0.0
C344 C 0.09019 0.64357 0.92193 0.0
H345 H 0.48343 0.12362 0.152 0.0
H346 H 0.41369 0.13707 0.01048 0.0
H347 H 0.40559 0.09246 0.91219 0.0
H348 H 0.41928 0.05052 0.86745 0.0
H349 H 0.48668 0.03613 0.01724 0.0
H350 H 0.49264 0.07897 0.11585 0.0
C351 C 0.46575 0.1164 0.1008 0.0
C352 C 0.44872 0.1333 0.08933 0.0
C353 C 0.46021 0.09012 0.04754 0.0
C354 C 0.42714 0.12453 0.02057 0.0
C355 C 0.42224 0.0988 0.96512 0.0
C356 C 0.43481 0.05627 0.92239 0.0
C357 C 0.45283 0.04032 0.93435 0.0
C358 C 0.4386 0.08139 0.97837 0.0
C359 C 0.47257 0.04794 0.00624 0.0
C360 C 0.47632 0.07273 0.06223 0.0
H361 H 0.32144 0.47581 -0.00789 0.0
H362 H 0.39891 0.5677 0.10407 0.0
H363 H 0.43661 0.56664 0.00951 0.0
H364 H 0.44933 0.53687 0.90499 0.0
H365 H 0.37234 0.44495 0.7912 0.0
H366 H 0.33301 0.449 0.87494 0.0
C367 C 0.34635 0.49593 -0.00568 0.0
C368 C 0.35738 0.52163 0.05572 0.0
C369 C 0.36825 0.495 0.93988 0.0
C370 C 0.38986 0.54747 0.05798 0.0
C371 C 0.41151 0.54685 0.00402 0.0
C372 C 0.42388 0.51789 0.89758 0.0
C373 C 0.41408 0.49045 0.84225 0.0
C374 C 0.40129 0.52027 0.94633 0.0
C375 C 0.3808 0.46635 0.83327 0.0
C376 C 0.3582 0.46856 0.88154 0.0
H377 H 0.91035 0.32392 0.0632 0.0
H378 H 0.83391 0.30719 0.88673 0.0
H379 H 0.87474 0.33925 0.79214 0.0
H380 H 0.93168 0.38112 0.7728 0.0
H381 H 1.00635 0.40631 0.96287 0.0
H382 H 0.96691 0.36276 0.04112 0.0
C383 C 0.90272 0.32653 0.0029 0.0
C384 C 0.86936 0.31369 0.98185 0.0
C385 C 0.92612 0.34763 0.9532 0.0
C386 C 0.85946 0.31682 0.90386 0.0
C387 C 0.88283 0.33569 0.8507 0.0
C388 C 0.93922 0.37659 0.83093 0.0
C389 C 0.97155 0.39661 0.86291 0.0
C390 C 0.9161 0.35272 0.87678 0.0
C391 C 0.98142 0.39115 0.93811 0.0
C392 C 0.95896 0.36624 0.98228 0.0
H393 H 0.83621 0.47623 0.88763 0.0
H394 H 0.88729 0.58041 0.94679 0.0
H395 H 0.93065 0.58701 0.86004 0.0
H396 H 0.95808 0.56174 0.7857 0.0
H397 H 0.90727 0.45731 0.73007 0.0
H398 H 0.85962 0.45203 0.79534 0.0
C399 C 0.85624 0.50045 0.8788 0.0
C400 C 0.85842 0.52787 0.92249 0.0
C401 C 0.88136 0.50388 0.83013 0.0
C402 C 0.88486 0.55909 0.91246 0.0
C403 C 0.90981 0.56277 0.8636 0.0
C404 C 0.93606 0.53806 0.78536 0.0
C405 C 0.93588 0.50996 0.75223 0.0
C406 C 0.90894 0.53521 0.82458 0.0
C407 C 0.90764 0.47927 0.75395 0.0
C408 C 0.88054 0.47624 0.79198 0.0
H409 H 0.31064 0.83422 0.88643 0.0
H410 H 0.38495 0.8149 0.97587 0.0
H411 H 0.41891 0.84335 0.86649 0.0
H412 H 0.43222 0.88421 0.76841 0.0
H413 H 0.36048 0.90903 0.68914 0.0
H414 H 0.32021 0.86686 0.7679 0.0
C415 C 0.33368 0.83512 0.87951 0.0
C416 C 0.34545 0.82259 0.93852 0.0
C417 C 0.35366 0.85288 0.81868 0.0
C418 C 0.37551 0.82427 0.93053 0.0
C419 C 0.39497 0.84075 0.86844 0.0
C420 C 0.40742 0.87962 0.76604 0.0
C421 C 0.39965 0.9004 0.72491 0.0
C422 C 0.38506 0.85675 0.81529 0.0
C423 C 0.36727 0.89366 0.72092 0.0
C424 C 0.34433 0.86983 0.76705 0.0
H425 H 0.52529 0.34595 0.06895 0.0
H426 H 0.43922 0.26627 0.9424 0.0
H427 H 0.43664 0.30412 0.85098 0.0
H428 H 0.45251 0.36087 0.82614 0.0
H429 H 0.53444 0.44108 0.96675 0.0
H430 H 0.54409 0.40223 0.03646 0.0
C431 C 0.50695 0.33674 0.01863 0.0
C432 C 0.48251 0.30342 0.01209 0.0
C433 C 0.50373 0.35907 0.97237 0.0
C434 C 0.45851 0.29167 0.94784 0.0
C435 C 0.45653 0.31352 0.89722 0.0
C436 C 0.47253 0.36997 0.872 0.0
C437 C 0.49233 0.40401 0.89214 0.0
C438 C 0.47781 0.34745 0.91238 0.0
C439 C 0.51836 0.41514 0.95109 0.0
C440 C 0.52416 0.39291 -0.0097 0.0
H441 H 0.20161 0.48952 0.95201 0.0
H442 H 0.20976 0.57792 0.06309 0.0
H443 H 0.17584 0.57923 0.95076 0.0
H444 H 0.13497 0.54881 0.83912 0.0
H445 H 0.12228 0.45739 0.73464 0.0
H446 H 0.16759 0.46408 0.82404 0.0
C447 C 0.19689 0.50966 0.94963 0.0
C448 C 0.20788 0.53354 0.01523 0.0
C449 C 0.17615 0.50935 0.88669 0.0
C450 C 0.20143 0.55937 0.01283 0.0
C451 C 0.18189 0.55995 0.94904 0.0
C452 C 0.14269 0.53076 0.83441 0.0
C453 C 0.12484 0.50224 0.78195 0.0
C454 C 0.16769 0.53409 0.88824 0.0
C455 C 0.13549 0.47943 0.77503 0.0
C456 C 0.16118 0.48309 0.82679 0.0
H457 H 0.6556 0.17149 0.04773 0.0
H458 H 0.73368 0.17061 0.92572 0.0
H459 H 0.69452 0.13152 0.81824 0.0
H460 H 0.6366 0.09225 0.76811 0.0
H461 H 0.55981 0.09354 0.89669 0.0
H462 H 0.59963 0.13774 -0.00873 0.0
C463 C 0.66408 0.16308 -0.00305 0.0
C464 C 0.69738 0.17363 -0.00494 0.0
C465 C 0.64147 0.14037 0.93654 0.0
C466 C 0.70812 0.16286 0.92844 0.0
C467 C 0.68568 0.14032 0.8673 0.0
C468 C 0.6288 0.10284 0.81574 0.0
C469 C 0.5953 0.08951 0.82576 0.0
C470 C 0.65209 0.12812 0.87182 0.0
C471 C 0.58545 0.10324 0.88814 0.0
C472 C 0.6082 0.12848 0.94248 0.0
H473 H 0.53324 0.66149 0.98422 0.0
H474 H 0.61382 0.74158 0.88027 0.0
H475 H 0.61924 0.70225 0.78852 0.0
H476 H 0.60145 0.64517 0.74162 0.0
H477 H 0.52279 0.56591 0.85443 0.0
H478 H 0.51784 0.60534 0.94409 0.0
C479 C 0.5522 0.67043 0.94179 0.0
C480 C 0.57338 0.70433 0.93938 0.0
C481 C 0.55616 0.64793 0.89322 0.0
C482 C 0.59717 0.7156 0.88277 0.0
C483 C 0.60055 0.69313 0.83147 0.0
C484 C 0.5836 0.63641 0.78679 0.0
C485 C 0.56231 0.60248 0.79072 0.0
C486 C 0.58045 0.65924 0.83722 0.0
C487 C 0.53943 0.59175 0.84984 0.0
C488 C 0.53632 0.61428 0.9005 0.0
H489 H 0.52035 0.17011 0.32419 0.0
H490 H 0.43671 0.16431 0.43188 0.0
H491 H 0.43623 0.12528 0.52419 0.0
H492 H 0.45354 0.08583 0.55584 0.0
H493 H 0.53469 0.08864 0.43936 0.0
H494 H 0.54166 0.13511 0.36686 0.0
C495 C 0.5031 0.16151 0.37086 0.0
C496 C 0.4788 0.17024 0.37211 0.0
C497 C 0.50147 0.13723 0.41883 0.0
C498 C 0.456 0.15844 0.4311 0.0
C499 C 0.45524 0.13546 0.48223 0.0
C500 C 0.47271 0.09649 0.5144 0.0
C501 C 0.49305 0.08312 0.50159 0.0
C502 C 0.47668 0.12334 0.47324 0.0
C503 C 0.51831 0.09793 0.44932 0.0
C504 C 0.52249 0.12473 0.40837 0.0
H505 H 0.32549 0.47615 0.36351 0.0
H506 H 0.38068 0.58073 0.3532 0.0
H507 H 0.42009 0.58489 0.45877 0.0
H508 H 0.44535 0.55712 0.52468 0.0
H509 H 0.39309 0.45209 0.52387 0.0
H510 H 0.34539 0.44941 0.45471 0.0
C511 C 0.34536 0.49988 0.38746 0.0
C512 C 0.35046 0.52812 0.35151 0.0
C513 C 0.36857 0.5018 0.44547 0.0
C514 C 0.37642 0.55882 0.38105 0.0
C515 C 0.39904 0.56111 0.4407 0.0
C516 C 0.42281 0.53388 0.51316 0.0
C517 C 0.42234 0.50486 0.52924 0.0
C518 C 0.39637 0.53257 0.46953 0.0
C519 C 0.39356 0.47469 0.51279 0.0
C520 C 0.36655 0.47318 0.4721 0.0
H521 H 0.90098 0.33265 0.23952 0.0
H522 H 0.83476 0.36794 0.28373 0.0
H523 H 0.87663 0.41304 0.37661 0.0
H524 H 0.9331 0.44287 0.44188 0.0
H525 H 0.99889 0.40756 0.38815 0.0
H526 H 0.95661 0.36278 0.29853 0.0
C527 C 0.89553 0.34988 0.27096 0.0
C528 C 0.86477 0.34675 0.25654 0.0
C529 C 0.92004 0.37633 0.31978 0.0
C530 C 0.85802 0.36946 0.29585 0.0
C531 C 0.88216 0.39551 0.34749 0.0
C532 C 0.93833 0.42583 0.40875 0.0
C533 C 0.96917 0.42862 0.42082 0.0
C534 C 0.9135 0.39952 0.3587 0.0
C535 C 0.97546 0.40601 0.37913 0.0
C536 C 0.95119 0.38019 0.32886 0.0
H537 H 0.5413 0.88835 0.0986 0.0
H538 H 0.61776 0.88103 0.2262 0.0
H539 H 0.62671 0.92619 0.32374 0.0
H540 H 0.61317 0.96808 0.36935 0.0
H541 H 0.53897 0.97673 0.23316 0.0
H542 H 0.53054 0.9319 0.1376 0.0
C543 C 0.56029 0.89685 0.14717 0.0
C544 C 0.57921 0.88174 0.15466 0.0
C545 C 0.56634 0.92358 0.19946 0.0
C546 C 0.60283 0.89222 0.21947 0.0
C547 C 0.60822 0.91828 0.27428 0.0
C548 C 0.59548 0.96053 0.31808 0.0
C549 C 0.57656 0.97566 0.30879 0.0
C550 C 0.59037 0.93437 0.26402 0.0
C551 C 0.55396 0.9657 0.2417 0.0
C552 C 0.54879 0.93976 0.18764 0.0
H553 H 0.65877 0.48364 0.17305 0.0
H554 H 0.74201 0.57867 0.24207 0.0
H555 H 0.71217 0.58748 0.34963 0.0
H556 H 0.65981 0.57025 0.41359 0.0
H557 H 0.57697 0.475 0.33973 0.0
H558 H 0.60919 0.4642 0.24549 0.0
C559 C 0.67054 0.50612 0.21243 0.0
C560 C 0.70245 0.5306 0.19911 0.0
C561 C 0.65311 0.51109 0.27302 0.0
C562 C 0.71752 0.55943 0.25116 0.0
C563 C 0.70033 0.56452 0.31227 0.0
C564 C 0.64902 0.54689 0.37808 0.0
C565 C 0.61574 0.52366 0.38348 0.0
C566 C 0.66774 0.54086 0.32242 0.0
C567 C 0.60228 0.49354 0.33656 0.0
C568 C 0.62072 0.48729 0.28234 0.0
H569 H 0.16587 0.72801 0.25667 0.0
H570 H 0.21811 0.67664 0.29243 0.0
H571 H 0.17385 0.63649 0.36704 0.0
H572 H 0.1165 0.61101 0.3996 0.0
H573 H 0.06356 0.66168 0.36237 0.0
H574 H 0.11144 0.70682 0.30784 0.0
C575 C 0.1682 0.70901 0.28482 0.0
C576 C 0.19515 0.70527 0.27 0.0
C577 C 0.14179 0.68499 0.3228 0.0
C578 C 0.19784 0.68025 0.30473 0.0
C579 C 0.17214 0.65683 0.34529 0.0
C580 C 0.11551 0.63189 0.37878 0.0
C581 C 0.08642 0.6327 0.38126 0.0
C582 C 0.1433 0.65797 0.35028 0.0
C583 C 0.08554 0.66031 0.35808 0.0
C584 C 0.11296 0.68618 0.32808 0.0
loop_
_geom_bond_atom_site_label_1
_geom_bond_atom_site_label_2
_geom_bond_distance
_geom_bond_site_symmetry_2
_ccdc_geom_bond_type
H0 C6 0.930 . S
H1 C9 0.931 . S
H2 C11 0.931 . S
H3 C13 0.930 . S
H4 C15 0.930 . S
H5 C17 0.931 . S
C6 H0 0.930 . S
C6 C7 1.380 . S
C6 C8 1.394 . S
C7 C6 1.380 . S
C7 C11 1.382 . S
C8 C6 1.394 . S
C8 C9 1.400 . S
C9 H1 0.931 . S
C9 C8 1.400 . S
C9 C10 1.375 . S
C10 C9 1.375 . S
C10 C11 1.415 . S
C10 C12 1.501 . S
C11 H2 0.931 . S
C11 C7 1.382 . S
C11 C10 1.415 . S
C12 C10 1.501 . S
C12 C13 1.384 . S
C12 C17 1.408 . S
C13 H3 0.930 . S
C13 C12 1.384 . S
C13 C14 1.389 . S
C14 C13 1.389 . S
C14 C15 1.405 . S
C15 H4 0.930 . S
C15 C14 1.405 . S
C15 C16 1.364 . S
C16 C15 1.364 . S
C16 C17 1.400 . S
C17 H5 0.931 . S
C17 C12 1.408 . S
C17 C16 1.400 . S
H18 C24 0.930 . S
H19 C27 0.931 . S
H20 C29 0.931 . S
H21 C31 0.930 . S
H22 C33 0.930 . S
H23 C35 0.931 . S
C24 H18 0.930 . S
C24 C25 1.380 . S
C24 C26 1.394 . S
C25 C24 1.380 . S
C25 C29 1.382 . S
C26 C24 1.394 . S
C26 C27 1.400 . S
C27 H19 0.931 . S
C27 C26 1.400 . S
C27 C28 1.375 . S
C28 C27 1.375 . S
C28 C29 1.415 . S
C28 C30 1.501 . S
C29 H20 0.931 . S
C29 C25 1.382 . S
C29 C28 1.415 . S
C30 C28 1.501 . S
C30 C31 1.384 . S
C30 C35 1.408 . S
C31 H21 0.930 . S
C31 C30 1.384 . S
C31 C32 1.389 . S
C32 C31 1.389 . S
C32 C33 1.405 . S
C33 H22 0.930 . S
C33 C32 1.405 . S
C33 C34 1.364 . S
C34 C33 1.364 . S
C34 C35 1.400 . S
C35 H23 0.931 . S
C35 C30 1.408 . S
C35 C34 1.400 . S
H36 C42 0.930 . S
H37 C45 0.931 . S
H38 C47 0.931 . S
H39 C49 0.930 . S
H40 C51 0.930 . S
H41 C53 0.931 . S
C42 H36 0.930 . S
C42 C43 1.380 1_554 S
C42 C44 1.394 . S
C43 C42 1.380 1_556 S
C43 C47 1.382 . S
C44 C42 1.394 . S
C44 C45 1.400 . S
C45 H37 0.931 . S
C45 C44 1.400 . S
C45 C46 1.375 . S
C46 C45 1.375 . S
C46 C47 1.415 1_554 S
C46 C48 1.501 . S
C47 H38 0.931 . S
C47 C43 1.382 . S
C47 C46 1.415 1_556 S
C48 C46 1.501 . S
C48 C49 1.384 1_554 S
C48 C53 1.408 . S
C49 H39 0.930 . S
C49 C48 1.384 1_556 S
C49 C50 1.389 . S
C50 C49 1.389 . S
C50 C51 1.405 1_556 S
C51 H40 0.930 . S
C51 C50 1.405 1_554 S
C51 C52 1.364 . S
C52 C51 1.364 . S
C52 C53 1.400 . S
C53 H41 0.931 . S
C53 C48 1.408 . S
C53 C52 1.400 . S
H54 C60 0.930 . S
H55 C63 0.931 . S
H56 C65 0.931 . S
H57 C67 0.930 . S
H58 C69 0.930 . S
H59 C71 0.931 . S
C60 H54 0.930 . S
C60 C61 1.380 1_554 S
C60 C62 1.394 . S
C61 C60 1.380 1_556 S
C61 C65 1.382 . S
C62 C60 1.394 . S
C62 C63 1.400 . S
C63 H55 0.931 . S
C63 C62 1.400 . S
C63 C64 1.375 . S
C64 C63 1.375 . S
C64 C65 1.415 1_554 S
C64 C66 1.501 . S
C65 H56 0.931 . S
C65 C61 1.382 . S
C65 C64 1.415 1_556 S
C66 C64 1.501 . S
C66 C67 1.384 1_554 S
C66 C71 1.408 . S
C67 H57 0.930 . S
C67 C66 1.384 1_556 S
C67 C68 1.389 . S
C68 C67 1.389 . S
C68 C69 1.405 1_556 S
C69 H58 0.930 . S
C69 C68 1.405 1_554 S
C69 C70 1.364 . S
C70 C69 1.364 . S
C70 C71 1.400 . S
C71 H59 0.931 . S
C71 C66 1.408 . S
C71 C70 1.400 . S
H72 C78 0.930 . S
H73 C81 0.931 . S
H74 C83 0.931 1_556 S
H75 C85 0.930 1_556 S
H76 C87 0.930 . S
H77 C89 0.931 . S
C78 H72 0.930 . S
C78 C79 1.380 . S
C78 C80 1.394 . S
C79 C78 1.380 . S
C79 C83 1.382 . S
C80 C78 1.394 . S
C80 C81 1.400 . S
C81 H73 0.931 . S
C81 C80 1.400 . S
C81 C82 1.375 . S
C82 C81 1.375 . S
C82 C83 1.415 . S
C82 C84 1.501 . S
C83 H74 0.931 1_554 S
C83 C79 1.382 . S
C83 C82 1.415 . S
C84 C82 1.501 . S
C84 C85 1.384 . S
C84 C89 1.408 . S
C85 H75 0.930 1_554 S
C85 C84 1.384 . S
C85 C86 1.389 . S
C86 C85 1.389 . S
C86 C87 1.405 . S
C87 H76 0.930 . S
C87 C86 1.405 . S
C87 C88 1.364 . S
C88 C87 1.364 . S
C88 C89 1.400 . S
C89 H77 0.931 . S
C89 C84 1.408 . S
C89 C88 1.400 . S
H90 C96 0.930 . S
H91 C99 0.931 . S
H92 C101 0.931 . S
H93 C103 0.930 . S
H94 C105 0.930 . S
H95 C107 0.931 . S
C96 H90 0.930 . S
C96 C97 1.380 . S
C96 C98 1.394 . S
C97 C96 1.380 . S
C97 C101 1.382 . S
C98 C96 1.394 . S
C98 C99 1.400 . S
C99 H91 0.931 . S
C99 C98 1.400 . S
C99 C100 1.375 . S
C100 C99 1.375 . S
C100 C101 1.415 . S
C100 C102 1.501 . S
C101 H92 0.931 . S
C101 C97 1.382 . S
C101 C100 1.415 . S
C102 C100 1.501 . S
C102 C103 1.384 . S
C102 C107 1.408 . S
C103 H93 0.930 . S
C103 C102 1.384 . S
C103 C104 1.389 . S
C104 C103 1.389 . S
C104 C105 1.405 . S
C105 H94 0.930 . S
C105 C104 1.405 . S
C105 C106 1.364 . S
C106 C105 1.364 . S
C106 C107 1.400 . S
C107 H95 0.931 . S
C107 C102 1.408 . S
C107 C106 1.400 . S
C108 O120 1.241 . S
C108 O121 1.280 . S
C109 O122 1.277 . S
C109 O123 1.245 . S
C110 O134 1.247 . S
C110 O136 1.289 . S
Mg111 O112 1.926 . S
Mg111 O121 1.984 . S
Mg111 O123 1.988 1_655 S
Mg111 O124 2.061 . S
O112 Mg111 1.926 . S
O112 Mg113 1.986 1_655 S
O112 Mg114 1.917 1_655 S
Mg113 O112 1.986 1_455 S
Mg113 O120 2.042 1_455 S
Mg113 O122 2.041 . S
Mg113 O128 2.038 1_455 S
Mg113 O136 2.238 . S
Mg114 O112 1.917 1_455 S
Mg114 O115 1.917 . S
Mg114 O125 2.106 1_455 S
Mg114 O127 2.079 1_455 S
Mg114 O136 2.106 . S
Mg114 O137 2.079 . S
O115 Mg114 1.917 . S
O115 Mg116 1.926 . S
O115 Mg117 1.986 . S
Mg116 O115 1.926 . S
Mg116 O130 1.984 . S
Mg116 O133 1.988 1_455 S
Mg116 O134 2.061 . S
Mg117 O115 1.986 . S
Mg117 O125 2.238 1_455 S
Mg117 O129 2.042 . S
Mg117 O131 2.041 1_455 S
Mg117 O138 2.038 . S
C118 O124 1.247 . S
C118 O125 1.289 . S
C119 O137 1.245 . S
C119 O138 1.274 . S
O120 C108 1.241 . S
O120 Mg113 2.042 1_655 S
O121 C108 1.280 . S
O121 Mg111 1.984 . S
O122 C109 1.277 . S
O122 Mg113 2.041 . S
O123 C109 1.245 . S
O123 Mg111 1.988 1_455 S
O124 Mg111 2.061 . S
O124 C118 1.247 . S
O125 Mg114 2.106 1_655 S
O125 Mg117 2.238 1_655 S
O125 C118 1.289 . S
C126 O127 1.245 . S
C126 O128 1.274 . S
O127 Mg114 2.079 1_655 S
O127 C126 1.245 . S
O128 Mg113 2.038 1_655 S
O128 C126 1.274 . S
O129 Mg117 2.042 . S
O129 C132 1.241 . S
O130 Mg116 1.984 . S
O130 C132 1.280 . S
O131 Mg117 2.041 1_655 S
O131 C135 1.277 . S
C132 O129 1.241 . S
C132 O130 1.280 . S
O133 Mg116 1.988 1_655 S
O133 C135 1.245 . S
O134 C110 1.247 . S
O134 Mg116 2.061 . S
C135 O131 1.277 . S
C135 O133 1.245 . S
O136 C110 1.289 . S
O136 Mg113 2.238 . S
O136 Mg114 2.106 . S
O137 Mg114 2.079 . S
O137 C119 1.245 . S
O138 Mg117 2.038 . S
O138 C119 1.274 . S
C139 O151 1.241 . S
C139 O152 1.280 . S
C140 O153 1.277 . S
C140 O154 1.245 . S
C141 O165 1.247 . S
C141 O167 1.289 . S
Mg142 O143 1.926 . S
Mg142 O152 1.984 . S
Mg142 O154 1.988 1_545 S
Mg142 O155 2.061 . S
O143 Mg142 1.926 . S
O143 Mg144 1.986 . S
O143 Mg145 1.917 . S
Mg144 O143 1.986 . S
Mg144 O151 2.042 . S
Mg144 O153 2.041 1_545 S
Mg144 O159 2.038 . S
Mg144 O167 2.238 1_545 S
Mg145 O143 1.917 . S
Mg145 O146 1.917 1_545 S
Mg145 O156 2.106 . S
Mg145 O158 2.079 . S
Mg145 O167 2.106 1_545 S
Mg145 O168 2.079 1_545 S
O146 Mg145 1.917 1_565 S
O146 Mg147 1.926 . S
O146 Mg148 1.986 1_565 S
Mg147 O146 1.926 . S
Mg147 O161 1.984 . S
Mg147 O164 1.988 1_565 S
Mg147 O165 2.061 . S
Mg148 O146 1.986 1_545 S
Mg148 O156 2.238 . S
Mg148 O160 2.042 1_545 S
Mg148 O162 2.041 . S
Mg148 O169 2.038 1_545 S
C149 O155 1.247 . S
C149 O156 1.289 . S
C150 O168 1.245 . S
C150 O169 1.274 . S
O151 C139 1.241 . S
O151 Mg144 2.042 . S
O152 C139 1.280 . S
O152 Mg142 1.984 . S
O153 C140 1.277 . S
O153 Mg144 2.041 1_565 S
O154 C140 1.245 . S
O154 Mg142 1.988 1_565 S
O155 Mg142 2.061 . S
O155 C149 1.247 . S
O156 Mg145 2.106 . S
O156 Mg148 2.238 . S
O156 C149 1.289 . S
C157 O158 1.245 . S
C157 O159 1.274 . S
O158 Mg145 2.079 . S
O158 C157 1.245 . S
O159 Mg144 2.038 . S
O159 C157 1.274 . S
O160 Mg148 2.042 1_565 S
O160 C163 1.241 . S
O161 Mg147 1.984 . S
O161 C163 1.280 . S
O162 Mg148 2.041 . S
O162 C166 1.277 . S
C163 O160 1.241 . S
C163 O161 1.280 . S
O164 Mg147 1.988 1_545 S
O164 C166 1.245 . S
O165 C141 1.247 . S
O165 Mg147 2.061 . S
C166 O162 1.277 . S
C166 O164 1.245 . S
O167 C141 1.289 . S
O167 Mg144 2.238 1_565 S
O167 Mg145 2.106 1_565 S
O168 Mg145 2.079 1_565 S
O168 C150 1.245 . S
O169 Mg148 2.038 1_565 S
O169 C150 1.274 . S
C170 O182 1.241 . S
C170 O183 1.280 . S
C171 O184 1.277 . S
C171 O185 1.245 . S
C172 O196 1.247 . S
C172 O198 1.289 . S
Mg173 O174 1.926 . S
Mg173 O183 1.984 . S
Mg173 O185 1.988 . S
Mg173 O186 2.061 . S
O174 Mg173 1.926 . S
O174 Mg175 1.986 . S
O174 Mg176 1.917 . S
Mg175 O174 1.986 . S
Mg175 O182 2.042 . S
Mg175 O184 2.041 . S
Mg175 O190 2.038 . S
Mg175 O198 2.238 . S
Mg176 O174 1.917 . S
Mg176 O177 1.917 . S
Mg176 O187 2.106 . S
Mg176 O189 2.079 . S
Mg176 O198 2.106 . S
Mg176 O199 2.079 . S
O177 Mg176 1.917 . S
O177 Mg178 1.926 . S
O177 Mg179 1.986 . S
Mg178 O177 1.926 . S
Mg178 O192 1.984 . S
Mg178 O195 1.988 . S
Mg178 O196 2.061 . S
Mg179 O177 1.986 . S
Mg179 O187 2.238 . S
Mg179 O191 2.042 . S
Mg179 O193 2.041 . S
Mg179 O200 2.038 . S
C180 O186 1.247 . S
C180 O187 1.289 . S
C181 O199 1.245 . S
C181 O200 1.274 . S
O182 C170 1.241 . S
O182 Mg175 2.042 . S
O183 C170 1.280 . S
O183 Mg173 1.984 . S
O184 C171 1.277 . S
O184 Mg175 2.041 . S
O185 C171 1.245 . S
O185 Mg173 1.988 . S
O186 Mg173 2.061 . S
O186 C180 1.247 . S
O187 Mg176 2.106 . S
O187 Mg179 2.238 . S
O187 C180 1.289 . S
C188 O189 1.245 . S
C188 O190 1.274 . S
O189 Mg176 2.079 . S
O189 C188 1.245 . S
O190 Mg175 2.038 . S
O190 C188 1.274 . S
O191 Mg179 2.042 . S
O191 C194 1.241 . S
O192 Mg178 1.984 . S
O192 C194 1.280 . S
O193 Mg179 2.041 . S
O193 C197 1.277 . S
C194 O191 1.241 . S
C194 O192 1.280 . S
O195 Mg178 1.988 . S
O195 C197 1.245 . S
O196 C172 1.247 . S
O196 Mg178 2.061 . S
C197 O193 1.277 . S
C197 O195 1.245 . S
O198 C172 1.289 . S
O198 Mg175 2.238 . S
O198 Mg176 2.106 . S
O199 Mg176 2.079 . S
O199 C181 1.245 . S
O200 Mg179 2.038 . S
O200 C181 1.274 . S
H201 C207 0.930 . S
H202 C210 0.930 . S
H203 C211 0.930 . S
H204 C212 0.930 . S
H205 C215 0.930 . S
H206 C216 0.930 . S
C207 H201 0.930 . S
C207 C208 1.355 . S
C207 C209 1.415 . S
C208 C207 1.355 . S
C208 C210 1.419 . S
C209 C207 1.415 . S
C209 C214 1.425 . S
C209 C216 1.409 . S
C210 H202 0.930 . S
C210 C208 1.419 . S
C210 C211 1.362 . S
C211 H203 0.930 . S
C211 C210 1.362 . S
C211 C214 1.409 . S
C212 H204 0.930 . S
C212 C213 1.355 . S
C212 C214 1.415 . S
C213 C212 1.355 . S
C213 C215 1.419 . S
C214 C209 1.425 . S
C214 C211 1.409 . S
C214 C212 1.415 . S
C215 H205 0.930 . S
C215 C213 1.419 . S
C215 C216 1.362 . S
C216 H206 0.930 . S
C216 C209 1.409 . S
C216 C215 1.362 . S
H217 C223 0.930 . S
H218 C226 0.930 . S
H219 C227 0.930 . S
H220 C228 0.930 . S
H221 C231 0.930 . S
H222 C232 0.930 . S
C223 H217 0.930 . S
C223 C224 1.355 . S
C223 C225 1.415 . S
C224 C223 1.355 . S
C224 C226 1.419 . S
C225 C223 1.415 . S
C225 C230 1.425 . S
C225 C232 1.409 . S
C226 H218 0.930 . S
C226 C224 1.419 . S
C226 C227 1.362 . S
C227 H219 0.930 . S
C227 C226 1.362 . S
C227 C230 1.409 . S
C228 H220 0.930 . S
C228 C229 1.355 . S
C228 C230 1.415 . S
C229 C228 1.355 . S
C229 C231 1.419 . S
C230 C225 1.425 . S
C230 C227 1.409 . S
C230 C228 1.415 . S
C231 H221 0.930 . S
C231 C229 1.419 . S
C231 C232 1.362 . S
C232 H222 0.930 . S
C232 C225 1.409 . S
C232 C231 1.362 . S
H233 C239 0.930 . S
H234 C242 0.930 . S
H235 C243 0.930 . S
H236 C244 0.930 . S
H237 C247 0.930 . S
H238 C248 0.930 . S
C239 H233 0.930 . S
C239 C240 1.355 . S
C239 C241 1.415 . S
C240 C239 1.355 . S
C240 C242 1.419 . S
C241 C239 1.415 . S
C241 C246 1.425 . S
C241 C248 1.409 . S
C242 H234 0.930 . S
C242 C240 1.419 . S
C242 C243 1.362 . S
C243 H235 0.930 . S
C243 C242 1.362 . S
C243 C246 1.409 . S
C244 H236 0.930 . S
C244 C245 1.355 . S
C244 C246 1.415 . S
C245 C244 1.355 . S
C245 C247 1.419 . S
C246 C241 1.425 . S
C246 C243 1.409 . S
C246 C244 1.415 . S
C247 H237 0.930 . S
C247 C245 1.419 . S
C247 C248 1.362 . S
C248 H238 0.930 . S
C248 C241 1.409 . S
C248 C247 1.362 . S
H249 C255 0.930 . S
H250 C258 0.930 . S
H251 C259 0.930 . S
H252 C260 0.930 . S
H253 C263 0.930 . S
H254 C264 0.930 . S
C255 H249 0.930 . S
C255 C256 1.355 . S
C255 C257 1.415 . S
C256 C255 1.355 . S
C256 C258 1.419 . S
C257 C255 1.415 . S
C257 C262 1.425 . S
C257 C264 1.409 . S
C258 H250 0.930 . S
C258 C256 1.419 . S
C258 C259 1.362 . S
C259 H251 0.930 . S
C259 C258 1.362 . S
C259 C262 1.409 . S
C260 H252 0.930 . S
C260 C261 1.355 . S
C260 C262 1.415 . S
C261 C260 1.355 . S
C261 C263 1.419 . S
C262 C257 1.425 . S
C262 C259 1.409 . S
C262 C260 1.415 . S
C263 H253 0.930 . S
C263 C261 1.419 . S
C263 C264 1.362 . S
C264 H254 0.930 . S
C264 C257 1.409 . S
C264 C263 1.362 . S
H265 C271 0.930 . S
H266 C274 0.930 . S
H267 C275 0.930 . S
H268 C276 0.930 . S
H269 C279 0.930 . S
H270 C280 0.930 . S
C271 H265 0.930 . S
C271 C272 1.355 . S
C271 C273 1.415 . S
C272 C271 1.355 . S
C272 C274 1.419 . S
C273 C271 1.415 . S
C273 C278 1.425 . S
C273 C280 1.409 . S
C274 H266 0.930 . S
C274 C272 1.419 . S
C274 C275 1.362 . S
C275 H267 0.930 . S
C275 C274 1.362 . S
C275 C278 1.409 . S
C276 H268 0.930 . S
C276 C277 1.355 . S
C276 C278 1.415 . S
C277 C276 1.355 . S
C277 C279 1.419 . S
C278 C273 1.425 . S
C278 C275 1.409 . S
C278 C276 1.415 . S
C279 H269 0.930 . S
C279 C277 1.419 . S
C279 C280 1.362 . S
C280 H270 0.930 . S
C280 C273 1.409 . S
C280 C279 1.362 . S
H281 C287 0.930 . S
H282 C290 0.930 . S
H283 C291 0.930 . S
H284 C292 0.930 . S
H285 C295 0.930 . S
H286 C296 0.930 . S
C287 H281 0.930 . S
C287 C288 1.355 . S
C287 C289 1.415 . S
C288 C287 1.355 . S
C288 C290 1.419 . S
C289 C287 1.415 . S
C289 C294 1.425 . S
C289 C296 1.409 . S
C290 H282 0.930 . S
C290 C288 1.419 . S
C290 C291 1.362 . S
C291 H283 0.930 . S
C291 C290 1.362 . S
C291 C294 1.409 . S
C292 H284 0.930 . S
C292 C293 1.355 . S
C292 C294 1.415 . S
C293 C292 1.355 . S
C293 C295 1.419 . S
C294 C289 1.425 . S
C294 C291 1.409 . S
C294 C292 1.415 . S
C295 H285 0.930 . S
C295 C293 1.419 . S
C295 C296 1.362 . S
C296 H286 0.930 . S
C296 C289 1.409 . S
C296 C295 1.362 . S
H297 C303 0.930 . S
H298 C306 0.930 . S
H299 C307 0.930 . S
H300 C308 0.930 . S
H301 C311 0.930 . S
H302 C312 0.930 . S
C303 H297 0.930 . S
C303 C304 1.355 . S
C303 C305 1.415 . S
C304 C303 1.355 . S
C304 C306 1.419 . S
C305 C303 1.415 . S
C305 C310 1.425 . S
C305 C312 1.409 . S
C306 H298 0.930 . S
C306 C304 1.419 . S
C306 C307 1.362 . S
C307 H299 0.930 . S
C307 C306 1.362 . S
C307 C310 1.409 . S
C308 H300 0.930 . S
C308 C309 1.355 . S
C308 C310 1.415 . S
C309 C308 1.355 . S
C309 C311 1.419 . S
C310 C305 1.425 . S
C310 C307 1.409 . S
C310 C308 1.415 . S
C311 H301 0.930 . S
C311 C309 1.419 . S
C311 C312 1.362 . S
C312 H302 0.930 . S
C312 C305 1.409 . S
C312 C311 1.362 . S
H313 C319 0.930 . S
H314 C322 0.930 1_554 S
H315 C323 0.930 . S
H316 C324 0.930 . S
H317 C327 0.930 . S
H318 C328 0.930 . S
C319 H313 0.930 . S
C319 C320 1.355 . S
C319 C321 1.415 . S
C320 C319 1.355 . S
C320 C322 1.419 . S
C321 C319 1.415 . S
C321 C326 1.425 . S
C321 C328 1.409 . S
C322 H314 0.930 1_556 S
C322 C320 1.419 . S
C322 C323 1.362 . S
C323 H315 0.930 . S
C323 C322 1.362 . S
C323 C326 1.409 . S
C324 H316 0.930 . S
C324 C325 1.355 . S
C324 C326 1.415 . S
C325 C324 1.355 . S
C325 C327 1.419 . S
C326 C321 1.425 . S
C326 C323 1.409 . S
C326 C324 1.415 . S
C327 H317 0.930 . S
C327 C325 1.419 . S
C327 C328 1.362 . S
C328 H318 0.930 . S
C328 C321 1.409 . S
C328 C327 1.362 . S
H329 C335 0.930 1_554 S
H330 C338 0.930 . S
H331 C339 0.930 . S
H332 C340 0.930 . S
H333 C343 0.930 . S
H334 C344 0.930 . S
C335 H329 0.930 1_556 S
C335 C336 1.355 . S
C335 C337 1.415 . S
C336 C335 1.355 . S
C336 C338 1.419 . S
C337 C335 1.415 . S
C337 C342 1.425 . S
C337 C344 1.409 . S
C338 H330 0.930 . S
C338 C336 1.419 . S
C338 C339 1.362 . S
C339 H331 0.930 . S
C339 C338 1.362 . S
C339 C342 1.409 . S
C340 H332 0.930 . S
C340 C341 1.355 . S
C340 C342 1.415 . S
C341 C340 1.355 . S
C341 C343 1.419 . S
C342 C337 1.425 . S
C342 C339 1.409 . S
C342 C340 1.415 . S
C343 H333 0.930 . S
C343 C341 1.419 . S
C343 C344 1.362 . S
C344 H334 0.930 . S
C344 C337 1.409 . S
C344 C343 1.362 . S
H345 C351 0.930 . S
H346 C354 0.930 . S
H347 C355 0.930 . S
H348 C356 0.930 . S
H349 C359 0.930 . S
H350 C360 0.930 . S
C351 H345 0.930 . S
C351 C352 1.355 . S
C351 C353 1.415 . S
C352 C351 1.355 . S
C352 C354 1.419 . S
C353 C351 1.415 . S
C353 C358 1.425 . S
C353 C360 1.409 1_554 S
C354 H346 0.930 . S
C354 C352 1.419 . S
C354 C355 1.362 . S
C355 H347 0.930 . S
C355 C354 1.362 . S
C355 C358 1.409 . S
C356 H348 0.930 . S
C356 C357 1.355 . S
C356 C358 1.415 1_556 S
C357 C356 1.355 . S
C357 C359 1.419 . S
C358 C353 1.425 . S
C358 C355 1.409 . S
C358 C356 1.415 1_554 S
C359 H349 0.930 . S
C359 C357 1.419 . S
C359 C360 1.362 . S
C360 H350 0.930 . S
C360 C353 1.409 1_556 S
C360 C359 1.362 . S
H361 C367 0.930 . S
H362 C370 0.930 . S
H363 C371 0.930 . S
H364 C372 0.930 . S
H365 C375 0.930 . S
H366 C376 0.930 . S
C367 H361 0.930 . S
C367 C368 1.355 . S
C367 C369 1.415 1_554 S
C368 C367 1.355 . S
C368 C370 1.419 . S
C369 C367 1.415 1_556 S
C369 C374 1.425 . S
C369 C376 1.409 . S
C370 H362 0.930 . S
C370 C368 1.419 . S
C370 C371 1.362 1_554 S
C371 H363 0.930 . S
C371 C370 1.362 1_556 S
C371 C374 1.409 . S
C372 H364 0.930 . S
C372 C373 1.355 . S
C372 C374 1.415 . S
C373 C372 1.355 . S
C373 C375 1.419 . S
C374 C369 1.425 . S
C374 C371 1.409 . S
C374 C372 1.415 . S
C375 H365 0.930 . S
C375 C373 1.419 . S
C375 C376 1.362 . S
C376 H366 0.930 . S
C376 C369 1.409 . S
C376 C375 1.362 . S
H377 C383 0.930 1_554 S
H378 C386 0.930 . S
H379 C387 0.930 . S
H380 C388 0.930 . S
H381 C391 0.930 . S
H382 C392 0.930 . S
C383 H377 0.930 1_556 S
C383 C384 1.355 1_556 S
C383 C385 1.415 . S
C384 C383 1.355 1_554 S
C384 C386 1.419 . S
C385 C383 1.415 . S
C385 C390 1.425 . S
C385 C392 1.409 . S
C386 H378 0.930 . S
C386 C384 1.419 . S
C386 C387 1.362 1_554 S
C387 H379 0.930 . S
C387 C386 1.362 1_556 S
C387 C390 1.409 . S
C388 H380 0.930 . S
C388 C389 1.355 . S
C388 C390 1.415 . S
C389 C388 1.355 . S
C389 C391 1.419 . S
C390 C385 1.425 . S
C390 C387 1.409 . S
C390 C388 1.415 . S
C391 H381 0.930 . S
C391 C389 1.419 . S
C391 C392 1.362 . S
C392 H382 0.930 . S
C392 C385 1.409 . S
C392 C391 1.362 . S
H393 C399 0.930 . S
H394 C402 0.930 . S
H395 C403 0.930 . S
H396 C404 0.930 . S
H397 C407 0.930 . S
H398 C408 0.930 . S
C399 H393 0.930 . S
C399 C400 1.355 . S
C399 C401 1.415 . S
C400 C399 1.355 . S
C400 C402 1.419 . S
C401 C399 1.415 . S
C401 C406 1.425 . S
C401 C408 1.409 . S
C402 H394 0.930 . S
C402 C400 1.419 . S
C402 C403 1.362 . S
C403 H395 0.930 . S
C403 C402 1.362 . S
C403 C406 1.409 . S
C404 H396 0.930 . S
C404 C405 1.355 . S
C404 C406 1.415 . S
C405 C404 1.355 . S
C405 C407 1.419 . S
C406 C401 1.425 . S
C406 C403 1.409 . S
C406 C404 1.415 . S
C407 H397 0.930 . S
C407 C405 1.419 . S
C407 C408 1.362 . S
C408 H398 0.930 . S
C408 C401 1.409 . S
C408 C407 1.362 . S
H409 C415 0.930 . S
H410 C418 0.930 . S
H411 C419 0.931 . S
H412 C420 0.930 . S
H413 C423 0.930 . S
H414 C424 0.930 . S
C415 H409 0.930 . S
C415 C416 1.355 . S
C415 C417 1.415 . S
C416 C415 1.355 . S
C416 C418 1.419 1_556 S
C417 C415 1.415 . S
C417 C422 1.425 . S
C417 C424 1.409 . S
C418 H410 0.930 . S
C418 C416 1.419 1_554 S
C418 C419 1.363 . S
C419 H411 0.931 . S
C419 C418 1.363 . S
C419 C422 1.408 1_554 S
C420 H412 0.930 . S
C420 C421 1.355 . S
C420 C422 1.415 . S
C421 C420 1.355 . S
C421 C423 1.419 . S
C422 C417 1.425 . S
C422 C419 1.408 1_556 S
C422 C420 1.415 . S
C423 H413 0.930 . S
C423 C421 1.419 . S
C423 C424 1.362 . S
C424 H414 0.930 . S
C424 C417 1.409 . S
C424 C423 1.362 . S
H425 C431 0.930 . S
H426 C434 0.930 . S
H427 C435 0.930 . S
H428 C436 0.930 . S
H429 C439 0.930 . S
H430 C440 0.930 . S
C431 H425 0.930 . S
C431 C432 1.355 . S
C431 C433 1.415 . S
C432 C431 1.355 . S
C432 C434 1.419 . S
C433 C431 1.415 . S
C433 C438 1.425 . S
C433 C440 1.409 1_554 S
C434 H426 0.930 . S
C434 C432 1.419 . S
C434 C435 1.362 . S
C435 H427 0.930 . S
C435 C434 1.362 . S
C435 C438 1.409 . S
C436 H428 0.930 . S
C436 C437 1.355 . S
C436 C438 1.415 1_556 S
C437 C436 1.355 . S
C437 C439 1.419 . S
C438 C433 1.425 . S
C438 C435 1.409 . S
C438 C436 1.415 1_554 S
C439 H429 0.930 . S
C439 C437 1.419 . S
C439 C440 1.362 . S
C440 H430 0.930 . S
C440 C433 1.409 1_556 S
C440 C439 1.362 . S
H441 C447 0.930 . S
H442 C450 0.930 . S
H443 C451 0.930 . S
H444 C452 0.930 . S
H445 C455 0.930 . S
H446 C456 0.930 1_554 S
C447 H441 0.930 . S
C447 C448 1.355 . S
C447 C449 1.415 1_554 S
C448 C447 1.355 . S
C448 C450 1.419 1_554 S
C449 C447 1.415 1_556 S
C449 C454 1.425 . S
C449 C456 1.409 . S
C450 H442 0.930 . S
C450 C448 1.419 1_556 S
C450 C451 1.362 . S
C451 H443 0.930 . S
C451 C450 1.362 . S
C451 C454 1.409 . S
C452 H444 0.930 . S
C452 C453 1.355 . S
C452 C454 1.415 . S
C453 C452 1.355 . S
C453 C455 1.419 . S
C454 C449 1.425 . S
C454 C451 1.409 . S
C454 C452 1.415 . S
C455 H445 0.930 . S
C455 C453 1.419 . S
C455 C456 1.362 . S
C456 H446 0.930 1_556 S
C456 C449 1.409 . S
C456 C455 1.362 . S
H457 C463 0.930 . S
H458 C466 0.930 . S
H459 C467 0.930 . S
H460 C468 0.930 . S
H461 C471 0.930 . S
H462 C472 0.930 1_554 S
C463 H457 0.930 . S
C463 C464 1.355 1_554 S
C463 C465 1.415 1_554 S
C464 C463 1.355 1_556 S
C464 C466 1.419 . S
C465 C463 1.415 1_556 S
C465 C470 1.425 . S
C465 C472 1.409 . S
C466 H458 0.930 . S
C466 C464 1.419 . S
C466 C467 1.362 . S
C467 H459 0.930 . S
C467 C466 1.362 . S
C467 C470 1.409 . S
C468 H460 0.930 . S
C468 C469 1.355 . S
C468 C470 1.415 . S
C469 C468 1.355 . S
C469 C471 1.419 . S
C470 C465 1.425 . S
C470 C467 1.409 . S
C470 C468 1.415 . S
C471 H461 0.930 . S
C471 C469 1.419 . S
C471 C472 1.362 . S
C472 H462 0.930 1_556 S
C472 C465 1.409 . S
C472 C471 1.362 . S
H473 C479 0.930 . S
H474 C482 0.930 . S
H475 C483 0.930 . S
H476 C484 0.930 . S
H477 C487 0.930 . S
H478 C488 0.930 . S
C479 H473 0.930 . S
C479 C480 1.355 . S
C479 C481 1.415 . S
C480 C479 1.355 . S
C480 C482 1.419 . S
C481 C479 1.415 . S
C481 C486 1.425 . S
C481 C488 1.409 . S
C482 H474 0.930 . S
C482 C480 1.419 . S
C482 C483 1.362 . S
C483 H475 0.930 . S
C483 C482 1.362 . S
C483 C486 1.409 . S
C484 H476 0.930 . S
C484 C485 1.355 . S
C484 C486 1.415 . S
C485 C484 1.355 . S
C485 C487 1.419 . S
C486 C481 1.425 . S
C486 C483 1.409 . S
C486 C484 1.415 . S
C487 H477 0.930 . S
C487 C485 1.419 . S
C487 C488 1.362 . S
C488 H478 0.930 . S
C488 C481 1.409 . S
C488 C487 1.362 . S
H489 C495 0.930 . S
H490 C498 0.930 . S
H491 C499 0.930 . S
H492 C500 0.930 . S
H493 C503 0.930 . S
H494 C504 0.930 . S
C495 H489 0.930 . S
C495 C496 1.355 . S
C495 C497 1.415 . S
C496 C495 1.355 . S
C496 C498 1.419 . S
C497 C495 1.415 . S
C497 C502 1.425 . S
C497 C504 1.409 . S
C498 H490 0.930 . S
C498 C496 1.419 . S
C498 C499 1.362 . S
C499 H491 0.930 . S
C499 C498 1.362 . S
C499 C502 1.409 . S
C500 H492 0.930 . S
C500 C501 1.355 . S
C500 C502 1.415 . S
C501 C500 1.355 . S
C501 C503 1.419 . S
C502 C497 1.425 . S
C502 C499 1.409 . S
C502 C500 1.415 . S
C503 H493 0.930 . S
C503 C501 1.419 . S
C503 C504 1.362 . S
C504 H494 0.930 . S
C504 C497 1.409 . S
C504 C503 1.362 . S
H505 C511 0.930 . S
H506 C514 0.930 . S
H507 C515 0.930 . S
H508 C516 0.930 . S
H509 C519 0.930 . S
H510 C520 0.930 . S
C511 H505 0.930 . S
C511 C512 1.355 . S
C511 C513 1.415 . S
C512 C511 1.355 . S
C512 C514 1.419 . S
C513 C511 1.415 . S
C513 C518 1.425 . S
C513 C520 1.409 . S
C514 H506 0.930 . S
C514 C512 1.419 . S
C514 C515 1.362 . S
C515 H507 0.930 . S
C515 C514 1.362 . S
C515 C518 1.409 . S
C516 H508 0.930 . S
C516 C517 1.355 . S
C516 C518 1.415 . S
C517 C516 1.355 . S
C517 C519 1.419 . S
C518 C513 1.425 . S
C518 C515 1.409 . S
C518 C516 1.415 . S
C519 H509 0.930 . S
C519 C517 1.419 . S
C519 C520 1.362 . S
C520 H510 0.930 . S
C520 C513 1.409 . S
C520 C519 1.362 . S
H521 C527 0.930 . S
H522 C530 0.930 . S
H523 C531 0.930 . S
H524 C532 0.930 . S
H525 C535 0.930 . S
H526 C536 0.930 . S
C527 H521 0.930 . S
C527 C528 1.355 . S
C527 C529 1.415 . S
C528 C527 1.355 . S
C528 C530 1.419 . S
C529 C527 1.415 . S
C529 C534 1.425 . S
C529 C536 1.409 . S
C530 H522 0.930 . S
C530 C528 1.419 . S
C530 C531 1.362 . S
C531 H523 0.930 . S
C531 C530 1.362 . S
C531 C534 1.409 . S
C532 H524 0.930 . S
C532 C533 1.355 . S
C532 C534 1.415 . S
C533 C532 1.355 . S
C533 C535 1.419 . S
C534 C529 1.425 . S
C534 C531 1.409 . S
C534 C532 1.415 . S
C535 H525 0.930 . S
C535 C533 1.419 . S
C535 C536 1.362 . S
C536 H526 0.930 . S
C536 C529 1.409 . S
C536 C535 1.362 . S
H537 C543 0.930 . S
H538 C546 0.930 . S
H539 C547 0.930 . S
H540 C548 0.930 . S
H541 C551 0.930 . S
H542 C552 0.930 . S
C543 H537 0.930 . S
C543 C544 1.355 . S
C543 C545 1.415 . S
C544 C543 1.355 . S
C544 C546 1.419 . S
C545 C543 1.415 . S
C545 C550 1.425 . S
C545 C552 1.409 . S
C546 H538 0.930 . S
C546 C544 1.419 . S
C546 C547 1.362 . S
C547 H539 0.930 . S
C547 C546 1.362 . S
C547 C550 1.409 . S
C548 H540 0.930 . S
C548 C549 1.355 . S
C548 C550 1.415 . S
C549 C548 1.355 . S
C549 C551 1.419 . S
C550 C545 1.425 . S
C550 C547 1.409 . S
C550 C548 1.415 . S
C551 H541 0.930 . S
C551 C549 1.419 . S
C551 C552 1.362 . S
C552 H542 0.930 . S
C552 C545 1.409 . S
C552 C551 1.362 . S
H553 C559 0.930 . S
H554 C562 0.930 . S
H555 C563 0.930 . S
H556 C564 0.930 . S
H557 C567 0.930 . S
H558 C568 0.930 . S
C559 H553 0.930 . S
C559 C560 1.355 . S
C559 C561 1.415 . S
C560 C559 1.355 . S
C560 C562 1.419 . S
C561 C559 1.415 . S
C561 C566 1.425 . S
C561 C568 1.409 . S
C562 H554 0.930 . S
C562 C560 1.419 . S
C562 C563 1.362 . S
C563 H555 0.930 . S
C563 C562 1.362 . S
C563 C566 1.409 . S
C564 H556 0.930 . S
C564 C565 1.355 . S
C564 C566 1.415 . S
C565 C564 1.355 . S
C565 C567 1.419 . S
C566 C561 1.425 . S
C566 C563 1.409 . S
C566 C564 1.415 . S
C567 H557 0.930 . S
C567 C565 1.419 . S
C567 C568 1.362 . S
C568 H558 0.930 . S
C568 C561 1.409 . S
C568 C567 1.362 . S
H569 C575 0.930 . S
H570 C578 0.930 . S
H571 C579 0.930 . S
H572 C580 0.930 . S
H573 C583 0.930 . S
H574 C584 0.930 . S
C575 H569 0.930 . S
C575 C576 1.355 . S
C575 C577 1.415 . S
C576 C575 1.355 . S
C576 C578 1.419 . S
C577 C575 1.415 . S
C577 C582 1.425 . S
C577 C584 1.409 . S
C578 H570 0.930 . S
C578 C576 1.419 . S
C578 C579 1.362 . S
C579 H571 0.930 . S
C579 C578 1.362 . S
C579 C582 1.409 . S
C580 H572 0.930 . S
C580 C581 1.355 . S
C580 C582 1.415 . S
C581 C580 1.355 . S
C581 C583 1.419 . S
C582 C577 1.425 . S
C582 C579 1.409 . S
C582 C580 1.415 . S
C583 H573 0.930 . S
C583 C581 1.419 . S
C583 C584 1.362 . S
C584 H574 0.930 . S
C584 C577 1.409 . S
C584 C583 1.362 . S
C208 C16 1.850 . S
C213 C119 1.814 . S
C224 C26 1.591 . S
C229 C166 1.610 . S
C245 C170 1.732 . S
C240 C52 1.777 . S
C261 C135 1.470 . S
C256 C62 1.503 . S
C272 C80 1.811 . S
C277 C150 1.743 . S
C293 C172 1.192 . S
C288 C98 1.139 . S
C309 C141 1.602 . S
C304 C43 1.574 . S
C320 C68 1.431 . S
C325 C181 1.507 . S
C341 C110 1.422 . S
C336 C86 1.486 1_556 S
C352 C104 1.460 . S
C357 C139 1.468 . S
C368 C7 1.837 . S
C373 C197 1.825 . S
C389 C108 1.489 . S
C384 C32 1.493 . S
C405 C126 1.808 . S
C400 C61 1.829 . S
C421 C140 1.587 . S
C416 C79 1.538 1_556 S
C437 C194 1.759 . S
C432 C97 1.747 . S
C453 C109 1.463 . S
C448 C14 1.520 . S
C469 C157 1.688 . S
C464 C25 1.778 1_556 S
C480 C50 1.203 . S
C485 C180 1.207 . S
C501 C149 1.549 . S
C496 C106 1.504 . S
C517 C188 1.381 . S
C512 C8 1.428 . S
C533 C118 1.361 . S
C528 C34 1.436 . S
C549 C163 1.428 . S
C544 C44 1.402 . S
C560 C70 1.828 . S
C565 C171 1.842 . S
C576 C88 1.502 . S
C581 C132 1.460 . S
