# Generated by pormake.
# Topology eea, (3,6)-cn, num edge types: 1
# Building blocks:
#     Node 0, Type 0, BuildingBlock: QEWDON_clean_linker_0, # of connection points: 3
#     Node 1, Type 0, BuildingBlock: QEWDON_clean_linker_0, # of connection points: 3
#     Node 2, Type 0, BuildingBlock: QEWDON_clean_linker_0, # of connection points: 3
#     Node 3, Type 0, BuildingBlock: QEWDON_clean_linker_0, # of connection points: 3
#     Node 4, Type 0, BuildingBlock: QEWDON_clean_linker_0, # of connection points: 3
#     Node 5, Type 0, BuildingBlock: QEWDON_clean_linker_0, # of connection points: 3
#     Node 6, Type 0, BuildingBlock: QEWDON_clean_linker_0, # of connection points: 3
#     Node 7, Type 0, BuildingBlock: QEWDON_clean_linker_0, # of connection points: 3
#     Node 8, Type 0, BuildingBlock: QEWDON_clean_linker_0, # of connection points: 3
#     Node 9, Type 0, BuildingBlock: QEWDON_clean_linker_0, # of connection points: 3
#     Node 10, Type 0, BuildingBlock: QEWDON_clean_linker_0, # of connection points: 3
#     Node 11, Type 0, BuildingBlock: QEWDON_clean_linker_0, # of connection points: 3
#     Node 12, Type 0, BuildingBlock: QEWDON_clean_linker_0, # of connection points: 3
#     Node 13, Type 0, BuildingBlock: QEWDON_clean_linker_0, # of connection points: 3
#     Node 14, Type 0, BuildingBlock: QEWDON_clean_linker_0, # of connection points: 3
#     Node 15, Type 0, BuildingBlock: QEWDON_clean_linker_0, # of connection points: 3
#     Node 16, Type 0, BuildingBlock: QEWDON_clean_linker_0, # of connection points: 3
#     Node 17, Type 0, BuildingBlock: QEWDON_clean_linker_0, # of connection points: 3
#     Node 18, Type 1, BuildingBlock: CUKXOW_clean_sbu_0, # of connection points: 6
#     Node 19, Type 1, BuildingBlock: CUKXOW_clean_sbu_0, # of connection points: 6
#     Node 20, Type 1, BuildingBlock: CUKXOW_clean_sbu_0, # of connection points: 6
#     Node 21, Type 1, BuildingBlock: CUKXOW_clean_sbu_0, # of connection points: 6
#     Node 22, Type 1, BuildingBlock: CUKXOW_clean_sbu_0, # of connection points: 6
#     Node 23, Type 1, BuildingBlock: CUKXOW_clean_sbu_0, # of connection points: 6
#     Node 24, Type 1, BuildingBlock: CUKXOW_clean_sbu_0, # of connection points: 6
#     Node 25, Type 1, BuildingBlock: CUKXOW_clean_sbu_0, # of connection points: 6
#     Node 26, Type 1, BuildingBlock: CUKXOW_clean_sbu_0, # of connection points: 6
#     Edge 27, Type (0, 1), BuildingBlock: CIFDUS_clean_linker_0, # of connection points: 2
#     Edge 28, Type (0, 1), BuildingBlock: CIFDUS_clean_linker_0, # of connection points: 2
#     Edge 29, Type (0, 1), BuildingBlock: CIFDUS_clean_linker_0, # of connection points: 2
#     Edge 30, Type (0, 1), BuildingBlock: CIFDUS_clean_linker_0, # of connection points: 2
#     Edge 31, Type (0, 1), BuildingBlock: CIFDUS_clean_linker_0, # of connection points: 2
#     Edge 32, Type (0, 1), BuildingBlock: CIFDUS_clean_linker_0, # of connection points: 2
#     Edge 33, Type (0, 1), BuildingBlock: CIFDUS_clean_linker_0, # of connection points: 2
#     Edge 34, Type (0, 1), BuildingBlock: CIFDUS_clean_linker_0, # of connection points: 2
#     Edge 35, Type (0, 1), BuildingBlock: CIFDUS_clean_linker_0, # of connection points: 2
#     Edge 36, Type (0, 1), BuildingBlock: CIFDUS_clean_linker_0, # of connection points: 2
#     Edge 37, Type (0, 1), BuildingBlock: CIFDUS_clean_linker_0, # of connection points: 2
#     Edge 38, Type (0, 1), BuildingBlock: CIFDUS_clean_linker_0, # of connection points: 2
#     Edge 39, Type (0, 1), BuildingBlock: CIFDUS_clean_linker_0, # of connection points: 2
#     Edge 40, Type (0, 1), BuildingBlock: CIFDUS_clean_linker_0, # of connection points: 2
#     Edge 41, Type (0, 1), BuildingBlock: CIFDUS_clean_linker_0, # of connection points: 2
#     Edge 42, Type (0, 1), BuildingBlock: CIFDUS_clean_linker_0, # of connection points: 2
#     Edge 43, Type (0, 1), BuildingBlock: CIFDUS_clean_linker_0, # of connection points: 2
#     Edge 44, Type (0, 1), BuildingBlock: CIFDUS_clean_linker_0, # of connection points: 2
#     Edge 45, Type (0, 1), BuildingBlock: CIFDUS_clean_linker_0, # of connection points: 2
#     Edge 46, Type (0, 1), BuildingBlock: CIFDUS_clean_linker_0, # of connection points: 2
#     Edge 47, Type (0, 1), BuildingBlock: CIFDUS_clean_linker_0, # of connection points: 2
#     Edge 48, Type (0, 1), BuildingBlock: CIFDUS_clean_linker_0, # of connection points: 2
#     Edge 49, Type (0, 1), BuildingBlock: CIFDUS_clean_linker_0, # of connection points: 2
#     Edge 50, Type (0, 1), BuildingBlock: CIFDUS_clean_linker_0, # of connection points: 2
#     Edge 51, Type (0, 1), BuildingBlock: CIFDUS_clean_linker_0, # of connection points: 2
#     Edge 52, Type (0, 1), BuildingBlock: CIFDUS_clean_linker_0, # of connection points: 2
#     Edge 53, Type (0, 1), BuildingBlock: CIFDUS_clean_linker_0, # of connection points: 2
#     Edge 54, Type (0, 1), BuildingBlock: CIFDUS_clean_linker_0, # of connection points: 2
#     Edge 55, Type (0, 1), BuildingBlock: CIFDUS_clean_linker_0, # of connection points: 2
#     Edge 56, Type (0, 1), BuildingBlock: CIFDUS_clean_linker_0, # of connection points: 2
#     Edge 57, Type (0, 1), BuildingBlock: CIFDUS_clean_linker_0, # of connection points: 2
#     Edge 58, Type (0, 1), BuildingBlock: CIFDUS_clean_linker_0, # of connection points: 2
#     Edge 59, Type (0, 1), BuildingBlock: CIFDUS_clean_linker_0, # of connection points: 2
#     Edge 60, Type (0, 1), BuildingBlock: CIFDUS_clean_linker_0, # of connection points: 2
#     Edge 61, Type (0, 1), BuildingBlock: CIFDUS_clean_linker_0, # of connection points: 2
#     Edge 62, Type (0, 1), BuildingBlock: CIFDUS_clean_linker_0, # of connection points: 2
#     Edge 63, Type (0, 1), BuildingBlock: CIFDUS_clean_linker_0, # of connection points: 2
#     Edge 64, Type (0, 1), BuildingBlock: CIFDUS_clean_linker_0, # of connection points: 2
#     Edge 65, Type (0, 1), BuildingBlock: CIFDUS_clean_linker_0, # of connection points: 2
#     Edge 66, Type (0, 1), BuildingBlock: CIFDUS_clean_linker_0, # of connection points: 2
#     Edge 67, Type (0, 1), BuildingBlock: CIFDUS_clean_linker_0, # of connection points: 2
#     Edge 68, Type (0, 1), BuildingBlock: CIFDUS_clean_linker_0, # of connection points: 2
#     Edge 69, Type (0, 1), BuildingBlock: CIFDUS_clean_linker_0, # of connection points: 2
#     Edge 70, Type (0, 1), BuildingBlock: CIFDUS_clean_linker_0, # of connection points: 2
#     Edge 71, Type (0, 1), BuildingBlock: CIFDUS_clean_linker_0, # of connection points: 2
#     Edge 72, Type (0, 1), BuildingBlock: CIFDUS_clean_linker_0, # of connection points: 2
#     Edge 73, Type (0, 1), BuildingBlock: CIFDUS_clean_linker_0, # of connection points: 2
#     Edge 74, Type (0, 1), BuildingBlock: CIFDUS_clean_linker_0, # of connection points: 2
#     Edge 75, Type (0, 1), BuildingBlock: CIFDUS_clean_linker_0, # of connection points: 2
#     Edge 76, Type (0, 1), BuildingBlock: CIFDUS_clean_linker_0, # of connection points: 2
#     Edge 77, Type (0, 1), BuildingBlock: CIFDUS_clean_linker_0, # of connection points: 2
#     Edge 78, Type (0, 1), BuildingBlock: CIFDUS_clean_linker_0, # of connection points: 2
#     Edge 79, Type (0, 1), BuildingBlock: CIFDUS_clean_linker_0, # of connection points: 2
#     Edge 80, Type (0, 1), BuildingBlock: CIFDUS_clean_linker_0, # of connection points: 2
# Relax obj value: 0.053
# Max RMSD: 0.211
# Mean RMSD: 0.122
data_MOF--net-eea--node1-CUKXOW_clean_sbu_0--node2-QEWDON_clean_linker_0--edge1-CIFDUS_clean_linker_0
_symmetry_space_group_name_H-M    P1
_symmetry_Int_Tables_number       1
_symmetry_cell_setting            triclinic
loop_
_symmetry_equiv_pos_as_xyz
'x, y, z'
_cell_length_a     56.58875
_cell_length_b     52.640128
_cell_length_c     40.572933
_cell_angle_alpha  93.661276
_cell_angle_beta   93.449774
_cell_angle_gamma 119.9678
loop_
_atom_site_label
_atom_site_type_symbol
_atom_site_fract_x
_atom_site_fract_y
_atom_site_fract_z
_atom_type_partial_charge
H0 H 0.23581 0.14409 0.44573 0.0
C1 C 0.2342 0.1246 0.43271 0.0
C2 C 0.24857 0.11167 0.44672 0.0
C3 C 0.21703 0.11183 0.40261 0.0
H4 H 0.25445 0.07407 0.44204 0.0
C5 C 0.24513 0.08537 0.4304 0.0
C6 C 0.2282 0.07236 0.40037 0.0
C7 C 0.21523 0.08644 0.38614 0.0
C8 C 0.19875 0.12276 0.38969 0.0
H9 H 0.20286 0.07684 0.36244 0.0
C10 C 0.20679 0.15304 0.3931 0.0
C11 C 0.18846 0.16208 0.38141 0.0
C12 C 0.17211 0.10213 0.37461 0.0
H13 H 0.16459 0.07867 0.37265 0.0
C14 C 0.15434 0.11127 0.36253 0.0
H15 H 0.22693 0.16944 0.40494 0.0
C16 C 0.16241 0.14102 0.3659 0.0
H17 H 0.14806 0.14762 0.35695 0.0
H18 H 0.134 0.09512 0.35103 0.0
H19 H 0.88779 0.11674 0.45875 0.0
C20 C 0.90613 0.13321 0.44921 0.0
C21 C 0.9228 0.16051 0.4686 0.0
C22 C 0.91376 0.12687 0.41869 0.0
H23 H 0.96167 0.20141 0.47409 0.0
C24 C 0.94812 0.18118 0.45821 0.0
C25 C 0.95596 0.17547 0.42759 0.0
C26 C 0.93773 0.14923 0.40741 0.0
C27 C 0.89832 0.09678 0.39926 0.0
H28 H 0.94279 0.14607 0.38277 0.0
C29 C 0.87017 0.07677 0.40159 0.0
C30 C 0.85669 0.04879 0.38293 0.0
C31 C 0.9124 0.08736 0.37863 0.0
H32 H 0.93425 0.10069 0.3774 0.0
C33 C 0.89878 0.06007 0.35958 0.0
H34 H 0.85861 0.08263 0.41757 0.0
C35 C 0.87108 0.04095 0.36153 0.0
H36 H 0.86106 0.01944 0.34725 0.0
H37 H 0.90994 0.05344 0.34379 0.0
H38 H 0.91755 0.77474 0.4774 0.0
C39 C 0.90226 0.77841 0.46476 0.0
C40 C 0.8743 0.76029 0.4688 0.0
C41 C 0.91075 0.80221 0.44564 0.0
H42 H 0.83341 0.7522 0.45548 0.0
C43 C 0.85495 0.76584 0.45238 0.0
C44 C 0.86317 0.78951 0.43301 0.0
C45 C 0.89121 0.80765 0.42992 0.0
C46 C 0.9402 0.82367 0.4452 0.0
H47 H 0.89806 0.82669 0.41617 0.0
C48 C 0.95726 0.81636 0.42809 0.0
C49 C 0.98505 0.83763 0.42737 0.0
C50 C 0.95114 0.85215 0.46165 0.0
H51 H 0.93825 0.85813 0.47488 0.0
C52 C 0.9788 0.87307 0.46129 0.0
H53 H 0.94892 0.7945 0.41508 0.0
C54 C 0.9957 0.86589 0.44423 0.0
H55 H 0.0171 0.88246 0.44396 0.0
H56 H 0.98711 0.89495 0.47413 0.0
H57 H 0.14205 0.24709 0.55795 0.0
C58 C 0.12686 0.24954 0.57063 0.0
C59 C 0.11759 0.26796 0.55913 0.0
C60 C 0.11551 0.23315 0.59718 0.0
H61 H 0.08821 0.28221 0.56294 0.0
C62 C 0.09642 0.26952 0.57367 0.0
C63 C 0.0846 0.25307 0.60014 0.0
C64 C 0.09528 0.23606 0.61258 0.0
C65 C 0.12247 0.21069 0.60685 0.0
H66 H 0.08722 0.22417 0.63382 0.0
C67 C 0.14975 0.21655 0.60975 0.0
C68 C 0.15569 0.19505 0.61983 0.0
C69 C 0.10129 0.18275 0.61301 0.0
H70 H 0.08005 0.17726 0.61015 0.0
C71 C 0.10716 0.16138 0.62255 0.0
H72 H 0.16634 0.23797 0.60527 0.0
C73 C 0.13417 0.1675 0.62615 0.0
H74 H 0.13827 0.15057 0.63369 0.0
H75 H 0.09069 0.14 0.62723 0.0
H76 H 0.79031 0.90668 0.57505 0.0
C77 C 0.78928 0.88783 0.58574 0.0
C78 C 0.77204 0.85935 0.56929 0.0
C79 C 0.80639 0.89229 0.61463 0.0
H80 H 0.7593 0.81325 0.56866 0.0
C81 C 0.7717 0.83499 0.58219 0.0
C82 C 0.78901 0.83906 0.61092 0.0
C83 C 0.80577 0.8677 0.62725 0.0
C84 C 0.8273 0.92269 0.62938 0.0
H85 H 0.81894 0.87099 0.64956 0.0
C86 C 0.82086 0.94529 0.63438 0.0
C87 C 0.84136 0.97415 0.64763 0.0
C88 C 0.85445 0.92937 0.63749 0.0
H89 H 0.86018 0.91272 0.63332 0.0
C90 C 0.87475 0.95778 0.65015 0.0
H91 H 0.79993 0.94024 0.62855 0.0
C92 C 0.86838 0.98 0.65504 0.0
H93 H 0.88489 1.00199 0.66413 0.0
H94 H 0.89565 0.96271 0.65586 0.0
H95 H 0.12245 0.87129 0.58264 0.0
C96 C 0.14033 0.88958 0.59702 0.0
C97 C 0.16673 0.89674 0.58936 0.0
C98 C 0.13702 0.90723 0.62166 0.0
H99 H 0.20999 0.92784 0.59946 0.0
C100 C 0.1898 0.92141 0.60681 0.0
C101 C 0.18687 0.93964 0.63096 0.0
C102 C 0.16041 0.93201 0.63869 0.0
C103 C 0.10935 0.90226 0.62695 0.0
H104 H 0.15794 0.94601 0.65728 0.0
C105 C 0.08777 0.87439 0.63288 0.0
C106 C 0.0621 0.87081 0.6393 0.0
C107 C 0.10465 0.92606 0.62632 0.0
H108 H 0.12073 0.94756 0.62128 0.0
C109 C 0.07914 0.92238 0.63187 0.0
H110 H 0.09123 0.85596 0.63368 0.0
C111 C 0.05804 0.89505 0.63846 0.0
H112 H 0.0384 0.8928 0.64274 0.0
H113 H 0.07573 0.94084 0.63119 0.0
H114 H 0.91421 0.47741 0.78155 0.0
C115 C 0.91508 0.45965 0.76771 0.0
C116 C 0.9308 0.4483 0.78176 0.0
C117 C 0.89864 0.44637 0.73717 0.0
H118 H 0.94237 0.41509 0.77532 0.0
C119 C 0.93066 0.4242 0.76438 0.0
C120 C 0.91437 0.41054 0.73412 0.0
C121 C 0.89891 0.42217 0.7204 0.0
C122 C 0.87837 0.45477 0.72465 0.0
H123 H 0.88639 0.41174 0.69692 0.0
C124 C 0.88476 0.48451 0.72541 0.0
C125 C 0.86458 0.49118 0.7139 0.0
C126 C 0.85166 0.43217 0.71239 0.0
H127 H 0.84573 0.40915 0.71231 0.0
C128 C 0.832 0.43875 0.70057 0.0
H129 H 0.90509 0.50223 0.73505 0.0
C130 C 0.83836 0.46793 0.70119 0.0
H131 H 0.82261 0.47233 0.69163 0.0
H132 H 0.81162 0.42111 0.69105 0.0
H133 H 0.5405 0.44901 0.77324 0.0
C134 C 0.55772 0.46666 0.76306 0.0
C135 C 0.56879 0.49589 0.77723 0.0
C136 C 0.57045 0.45997 0.73803 0.0
H137 H 0.60195 0.54057 0.77897 0.0
C138 C 0.59266 0.51849 0.76627 0.0
C139 C 0.60523 0.51237 0.74047 0.0
C140 C 0.59326 0.48307 0.72585 0.0
C141 C 0.56307 0.42899 0.72829 0.0
H142 H 0.6023 0.47777 0.70569 0.0
C143 C 0.53561 0.40613 0.72029 0.0
C144 C 0.52938 0.37677 0.71213 0.0
C145 C 0.58414 0.42215 0.72839 0.0
H146 H 0.60538 0.43914 0.73509 0.0
C147 C 0.57809 0.39326 0.72084 0.0
H148 H 0.51933 0.41131 0.71987 0.0
C149 C 0.55101 0.37073 0.71296 0.0
H150 H 0.54704 0.3484 0.70804 0.0
H151 H 0.59447 0.38824 0.72146 0.0
H152 H 0.58017 0.10678 0.82223 0.0
C153 C 0.56569 0.10725 0.80387 0.0
C154 C 0.53754 0.09143 0.80733 0.0
C155 C 0.57543 0.12586 0.77848 0.0
H156 H 0.49739 0.08065 0.78646 0.0
C157 C 0.51921 0.09326 0.78416 0.0
C158 C 0.52858 0.11303 0.76002 0.0
C159 C 0.55684 0.12892 0.75674 0.0
C160 C 0.6052 0.14642 0.7794 0.0
H161 H 0.56452 0.14503 0.73898 0.0
C162 C 0.62193 0.13932 0.7612 0.0
C163 C 0.6506 0.15837 0.765 0.0
C164 C 0.61716 0.1728 0.80065 0.0
H165 H 0.60454 0.17847 0.81492 0.0
C166 C 0.64549 0.1918 0.80412 0.0
H167 H 0.61282 0.11883 0.74499 0.0
C168 C 0.66216 0.18458 0.78661 0.0
H169 H 0.68415 0.19956 0.78978 0.0
H170 H 0.65458 0.21206 0.82067 0.0
H171 H 0.80867 0.56262 0.89697 0.0
C172 C 0.79 0.56124 0.90406 0.0
C173 C 0.77824 0.57577 0.88738 0.0
C174 C 0.77739 0.54385 0.92942 0.0
H175 H 0.74373 0.58333 0.8853 0.0
C176 C 0.75396 0.57353 0.89816 0.0
C177 C 0.74194 0.55732 0.92479 0.0
C178 C 0.75413 0.54306 0.94039 0.0
C179 C 0.78668 0.5242 0.9426 0.0
H180 H 0.74519 0.53078 0.96112 0.0
C181 C 0.81471 0.53389 0.95047 0.0
C182 C 0.82261 0.5146 0.9629 0.0
C183 C 0.76698 0.49493 0.94681 0.0
H184 H 0.74532 0.48658 0.94026 0.0
C185 C 0.77494 0.4759 0.95906 0.0
H186 H 0.83023 0.55632 0.94754 0.0
C187 C 0.80262 0.48568 0.96718 0.0
H188 H 0.80849 0.47063 0.97674 0.0
H189 H 0.75961 0.45347 0.96219 0.0
H190 H 0.45233 0.2473 0.92666 0.0
C191 C 0.45091 0.22699 0.93286 0.0
C192 C 0.4383 0.20192 0.90893 0.0
C193 C 0.46213 0.2261 0.96449 0.0
H194 H 0.43016 0.15713 0.89849 0.0
C195 C 0.43776 0.17595 0.91703 0.0
C196 C 0.4482 0.17443 0.94859 0.0
C197 C 0.45908 0.19903 0.97238 0.0
C198 C 0.47889 0.25343 0.98853 0.0
H199 H 0.46578 0.19694 0.9971 0.0
C200 C 0.47546 0.27836 0.98851 0.0
C201 C 0.49298 0.30428 0.00995 0.0
C202 C 0.49997 0.25527 0.01092 0.0
H203 H 0.50472 0.23777 0.01095 0.0
C204 C 0.51614 0.28021 0.03328 0.0
H205 H 0.45991 0.27817 0.97146 0.0
C206 C 0.5127 0.30451 0.03288 0.0
H207 H 0.52604 0.32391 0.05006 0.0
H208 H 0.53197 0.28101 0.05043 0.0
H209 H 0.77078 0.21593 0.89147 0.0
C210 C 0.78808 0.23527 0.90531 0.0
C211 C 0.81468 0.24573 0.89592 0.0
C212 C 0.78347 0.25066 0.93133 0.0
H213 H 0.85715 0.28023 0.90583 0.0
C214 C 0.83678 0.27131 0.91373 0.0
C215 C 0.83255 0.28691 0.93987 0.0
C216 C 0.80577 0.27638 0.94849 0.0
C217 C 0.75511 0.24233 0.93763 0.0
H218 H 0.80211 0.2885 0.96818 0.0
C219 C 0.73645 0.21416 0.94643 0.0
C220 C 0.70933 0.20672 0.95108 0.0
C221 C 0.74644 0.26286 0.93383 0.0
H222 H 0.76041 0.28458 0.92694 0.0
C223 C 0.71957 0.2554 0.93818 0.0
H224 H 0.74296 0.1982 0.94961 0.0
C225 C 0.70107 0.22749 0.9466 0.0
H226 H 0.68034 0.22221 0.95013 0.0
H227 H 0.71305 0.27131 0.93498 0.0
H228 H 0.56123 0.8082 0.12851 0.0
C229 C 0.55931 0.7885 0.11555 0.0
C230 C 0.57557 0.77705 0.12752 0.0
C231 C 0.5396 0.77382 0.08795 0.0
H232 H 0.5839 0.74129 0.12067 0.0
C233 C 0.57233 0.75099 0.1109 0.0
C234 C 0.55267 0.73606 0.08328 0.0
C235 C 0.5367 0.74787 0.07179 0.0
C236 C 0.51988 0.78349 0.07813 0.0
H237 H 0.52146 0.7364 0.05054 0.0
C238 C 0.52864 0.81331 0.07453 0.0
C239 C 0.50926 0.82187 0.06634 0.0
C240 C 0.49167 0.76251 0.07319 0.0
H241 H 0.48433 0.73954 0.07627 0.0
C242 C 0.47254 0.77096 0.06493 0.0
H243 H 0.55029 0.82973 0.07826 0.0
C244 C 0.48122 0.80042 0.06159 0.0
H245 H 0.46597 0.80647 0.05504 0.0
H246 H 0.45089 0.75464 0.06126 0.0
H247 H 0.20938 0.76826 0.12233 0.0
C248 C 0.22426 0.78615 0.10978 0.0
C249 C 0.23119 0.81533 0.11996 0.0
C250 C 0.2376 0.78027 0.08486 0.0
H251 H 0.25869 0.86121 0.11554 0.0
C252 C 0.25212 0.83879 0.10571 0.0
C253 C 0.26603 0.83342 0.08107 0.0
C254 C 0.25744 0.80397 0.06967 0.0
C255 C 0.23404 0.75033 0.07772 0.0
H256 H 0.26715 0.79938 0.04977 0.0
C257 C 0.20804 0.7243 0.07494 0.0
C258 C 0.20584 0.69638 0.0695 0.0
C259 C 0.25751 0.74784 0.07488 0.0
H260 H 0.27783 0.76722 0.0777 0.0
C261 C 0.25528 0.72035 0.06909 0.0
H262 H 0.18975 0.72572 0.07728 0.0
C263 C 0.2297 0.69482 0.06643 0.0
H264 H 0.22854 0.6737 0.06182 0.0
H265 H 0.27352 0.71883 0.0669 0.0
H266 H 0.25245 0.42282 0.12892 0.0
C267 C 0.23583 0.4229 0.11425 0.0
C268 C 0.20848 0.40318 0.11952 0.0
C269 C 0.24183 0.44423 0.09205 0.0
H270 H 0.16612 0.38987 0.10632 0.0
C271 C 0.18714 0.4044 0.10155 0.0
C272 C 0.19281 0.42582 0.07958 0.0
C273 C 0.22018 0.44528 0.07455 0.0
C274 C 0.27055 0.46785 0.09019 0.0
H275 H 0.2248 0.46241 0.05833 0.0
C276 C 0.29138 0.46127 0.08482 0.0
C277 C 0.31823 0.48417 0.08221 0.0
C278 C 0.27716 0.49752 0.09382 0.0
H279 H 0.26163 0.50322 0.09853 0.0
C280 C 0.30387 0.52017 0.0917 0.0
H281 H 0.2866 0.43853 0.08174 0.0
C282 C 0.3243 0.51356 0.08572 0.0
H283 H 0.34488 0.53141 0.08369 0.0
H284 H 0.30872 0.54291 0.0945 0.0
H285 H 0.46997 0.90467 0.22424 0.0
C286 C 0.45344 0.90613 0.23463 0.0
C287 C 0.44711 0.92765 0.22553 0.0
C288 C 0.43748 0.88516 0.25551 0.0
H289 H 0.41968 0.94469 0.2321 0.0
C290 C 0.42459 0.92802 0.23828 0.0
C291 C 0.40836 0.90706 0.25917 0.0
C292 C 0.41511 0.88587 0.2677 0.0
C293 C 0.44277 0.86111 0.26301 0.0
H294 H 0.40245 0.86926 0.28326 0.0
C295 C 0.46905 0.86714 0.27561 0.0
C296 C 0.47299 0.84408 0.28494 0.0
C297 C 0.42091 0.83176 0.2586 0.0
H298 H 0.40062 0.82652 0.24855 0.0
C299 C 0.42497 0.80889 0.26709 0.0
H300 H 0.486 0.88969 0.27948 0.0
C301 C 0.45076 0.81498 0.28043 0.0
H302 H 0.45339 0.7969 0.28724 0.0
H303 H 0.408 0.78638 0.26362 0.0
H304 H 0.10407 0.57116 0.26743 0.0
C305 C 0.11173 0.55631 0.27153 0.0
C306 C 0.10949 0.53617 0.24516 0.0
C307 C 0.12248 0.55643 0.3037 0.0
H308 H 0.11733 0.50077 0.23155 0.0
C309 C 0.11868 0.51629 0.25149 0.0
C310 C 0.12922 0.516 0.2837 0.0
C311 C 0.13107 0.53615 0.30949 0.0
C312 C 0.12382 0.57687 0.33173 0.0
H313 H 0.13962 0.53628 0.3342 0.0
C314 C 0.13413 0.60703 0.3285 0.0
C315 C 0.13562 0.62626 0.35544 0.0
C316 C 0.1149 0.56616 0.36217 0.0
H317 H 0.1066 0.54304 0.36526 0.0
C318 C 0.11632 0.58509 0.38884 0.0
H319 H 0.14103 0.6155 0.30513 0.0
C320 C 0.12663 0.61491 0.3856 0.0
H321 H 0.12785 0.62919 0.40689 0.0
H322 H 0.10945 0.57661 0.41218 0.0
H323 H 0.44924 0.55561 0.22986 0.0
C324 C 0.46789 0.57255 0.24441 0.0
C325 C 0.49364 0.57931 0.23446 0.0
C326 C 0.46616 0.58881 0.272 0.0
H327 H 0.53748 0.60791 0.24501 0.0
C328 C 0.51763 0.60213 0.25299 0.0
C329 C 0.51618 0.61875 0.28052 0.0
C330 C 0.4903 0.61168 0.28996 0.0
C331 C 0.43948 0.58536 0.27931 0.0
H332 H 0.48877 0.62504 0.31026 0.0
C333 C 0.4193 0.55984 0.29176 0.0
C334 C 0.39518 0.55857 0.30123 0.0
C335 C 0.43491 0.60891 0.27527 0.0
H336 H 0.45019 0.62866 0.26566 0.0
C337 C 0.41076 0.60731 0.28375 0.0
H338 H 0.42284 0.54174 0.29536 0.0
C339 C 0.3911 0.58244 0.29687 0.0
H340 H 0.37261 0.58182 0.30368 0.0
H341 H 0.40741 0.62557 0.28053 0.0
Tb342 Tb 0.52685 0.02965 0.01694 0.0
C343 C 0.50564 0.9669 0.03742 0.0
Tb344 Tb 0.46386 0.98831 0.01601 0.0
O345 O 0.53337 0.03175 0.07114 0.0
O346 O 0.49608 0.02367 0.04782 0.0
O347 O 0.52525 0.9878 0.02223 0.0
C348 C 0.41371 0.94691 0.02781 0.0
O349 O 0.48219 0.9661 0.04172 0.0
C350 C 0.48313 0.9944 0.958 0.0
C351 C 0.48531 0.05421 1.00391 0.0
O352 O 0.4309 0.94241 0.01239 0.0
O353 O 0.42458 0.97502 0.03646 0.0
O354 O 0.45825 0.98788 0.96228 0.0
O355 O 0.49473 0.99412 0.98534 0.0
O356 O 0.46378 0.02921 0.01056 0.0
O357 O 0.51055 0.05828 1.00434 0.0
C358 C 0.57432 0.06531 0.99295 0.0
O359 O 0.57132 0.06193 0.02419 0.0
O360 O 0.55085 0.04839 0.97571 0.0
C361 C 0.50813 0.02428 0.07532 0.0
Tb362 Tb 1.00046 0.50392 0.01017 0.0
C363 C 0.06334 0.54691 0.01884 0.0
Tb364 Tb 0.03751 0.47682 0.0158 0.0
O365 O 0.01533 0.52443 0.0617 0.0
O366 O 0.01249 0.48431 0.04652 0.0
O367 O 0.0395 0.54331 0.00639 0.0
C368 C 0.07331 0.46094 0.03698 0.0
O369 O 0.06631 0.52449 0.02708 0.0
C370 C 0.01684 0.47432 0.95545 0.0
C371 C 0.97382 0.43367 0.00662 0.0
O372 O 0.07229 0.47035 0.0084 0.0
O373 O 0.05423 0.46052 0.05353 0.0
O374 O 0.02411 0.45589 0.965 0.0
O375 O 0.02434 0.4949 0.9786 0.0
O376 O 0.99803 0.43669 0.01646 0.0
O377 O 0.97066 0.45652 1.00117 0.0
C378 C 0.96331 0.51837 0.99017 0.0
O379 O 0.97836 0.51326 0.97102 0.0
O380 O 0.9693 0.51548 0.02057 0.0
C381 C 0.02044 0.50417 0.07038 0.0
Tb382 Tb 0.50447 0.51583 0.01045 0.0
C383 C 0.52648 0.47111 0.01292 0.0
Tb384 Tb 0.5669 0.54039 0.01913 0.0
O385 O 0.50581 0.52336 0.95738 0.0
O386 O 0.53438 0.51594 0.98188 0.0
O387 O 0.50533 0.47504 0.01737 0.0
C388 C 0.61836 0.56174 1.00411 0.0
O389 O 0.55085 0.49327 0.00761 0.0
C390 C 0.54404 0.53288 0.07498 0.0
C391 C 0.54488 0.58531 0.0181 0.0
O392 O 0.60632 0.54206 0.02438 0.0
O393 O 0.60162 0.57006 0.99292 0.0
O394 O 0.5674 0.53421 0.07203 0.0
O395 O 0.53721 0.54001 0.04861 0.0
O396 O 0.56582 0.58102 0.01397 0.0
O397 O 0.51977 0.56315 0.02101 0.0
C398 C 0.45147 0.49434 0.01835 0.0
O399 O 0.463 0.50461 0.99185 0.0
O400 O 0.46978 0.49573 0.04048 0.0
C401 C 0.5286 0.52334 0.95528 0.0
Tb402 Tb 0.21111 0.37988 0.35829 0.0
C403 C 0.19367 0.31195 0.35684 0.0
Tb404 Tb 0.14861 0.33106 0.3512 0.0
O405 O 0.21009 0.39006 0.41192 0.0
O406 O 0.18287 0.34927 0.38687 0.0
O407 O 0.21317 0.33902 0.35187 0.0
C408 C 0.09847 0.29847 0.37026 0.0
O409 O 0.16824 0.30532 0.36181 0.0
C410 C 0.1711 0.34564 0.29534 0.0
C411 C 0.16594 0.39878 0.35004 0.0
O412 O 0.10871 0.29 0.347 0.0
O413 O 0.11627 0.32537 0.38223 0.0
O414 O 0.14822 0.32107 0.29705 0.0
O415 O 0.17691 0.36115 0.32248 0.0
O416 O 0.14677 0.37195 0.35607 0.0
O417 O 0.19145 0.40541 0.34537 0.0
C418 C 0.26273 0.41576 0.34565 0.0
O419 O 0.25079 0.42072 0.36956 0.0
O420 O 0.24572 0.39032 0.32919 0.0
C421 C 0.188 0.3649 0.41372 0.0
Tb422 Tb 0.65632 0.84505 0.34809 0.0
C423 C 0.71844 0.89792 0.35393 0.0
Tb424 Tb 0.70521 0.83104 0.34902 0.0
O425 O 0.65054 0.83319 0.3997 0.0
O426 O 0.68803 0.84855 0.38153 0.0
O427 O 0.69191 0.88966 0.34893 0.0
C428 C 0.7421 0.81883 0.37522 0.0
O429 O 0.72778 0.8793 0.35715 0.0
C430 C 0.68384 0.82782 0.28801 0.0
C431 C 0.64322 0.7794 0.33537 0.0
O432 O 0.74505 0.83358 0.34971 0.0
O433 O 0.71833 0.81079 0.38568 0.0
O434 O 0.70423 0.8233 0.29447 0.0
O435 O 0.67795 0.83421 0.31546 0.0
O436 O 0.66848 0.78717 0.34802 0.0
O437 O 0.63536 0.79865 0.3289 0.0
C438 C 0.61801 0.85914 0.33234 0.0
O439 O 0.61864 0.84511 0.35724 0.0
O440 O 0.6393 0.86572 0.31652 0.0
C441 C 0.67526 0.83781 0.4058 0.0
Tb442 Tb 0.16184 0.84644 0.34788 0.0
C443 C 0.1757 0.79536 0.35941 0.0
Tb444 Tb 0.22258 0.86132 0.35663 0.0
O445 O 0.16207 0.84677 0.29334 0.0
O446 O 0.18806 0.83754 0.32142 0.0
O447 O 0.15752 0.80439 0.36003 0.0
C448 C 0.27282 0.87661 0.3408 0.0
O449 O 0.20174 0.8131 0.35414 0.0
C450 C 0.20066 0.86231 0.41137 0.0
C451 C 0.20884 0.91336 0.34994 0.0
O452 O 0.26409 0.86924 0.36957 0.0
O453 O 0.25327 0.8754 0.32107 0.0
O454 O 0.22142 0.85805 0.41044 0.0
O455 O 0.19607 0.86926 0.38369 0.0
O456 O 0.22745 0.90486 0.34868 0.0
O457 O 0.18258 0.8945 0.35296 0.0
C458 C 0.11213 0.83054 0.36618 0.0
O459 O 0.12121 0.84233 0.33907 0.0
O460 O 0.1308 0.82735 0.38223 0.0
C461 C 0.18303 0.8428 0.29302 0.0
Tb462 Tb 0.87063 0.69866 0.69245 0.0
C463 C 0.84787 0.63179 0.69835 0.0
Tb464 Tb 0.80769 0.65669 0.68124 0.0
O465 O 0.8711 0.68954 0.74424 0.0
O466 O 0.83658 0.68728 0.72001 0.0
O467 O 0.86954 0.6564 0.69116 0.0
C468 C 0.75611 0.61725 0.68997 0.0
O469 O 0.82335 0.62921 0.69962 0.0
C470 C 0.83114 0.67138 0.62628 0.0
C471 C 0.8301 0.72307 0.67302 0.0
O472 O 0.77173 0.61241 0.67157 0.0
O473 O 0.76942 0.64447 0.70329 0.0
O474 O 0.80512 0.66121 0.62807 0.0
O475 O 0.84153 0.66878 0.65341 0.0
O476 O 0.80836 0.6982 0.67928 0.0
O477 O 0.85513 0.72655 0.67381 0.0
C478 C 0.92309 0.74057 0.69124 0.0
O479 O 0.91088 0.71513 0.67332 0.0
O480 O 0.90588 0.74203 0.70986 0.0
C481 C 0.84588 0.68269 0.74655 0.0
Tb482 Tb 0.33195 0.17835 0.67369 0.0
C483 C 0.39414 0.22054 0.6704 0.0
Tb484 Tb 0.36836 0.15077 0.67373 0.0
O485 O 0.35216 0.2011 0.72323 0.0
O486 O 0.34646 0.15965 0.70822 0.0
O487 O 0.36954 0.21781 0.66566 0.0
C488 C 0.4062 0.13881 0.69831 0.0
O489 O 0.39799 0.19814 0.67582 0.0
C490 C 0.3438 0.146 0.61546 0.0
C491 C 0.30522 0.10824 0.66986 0.0
O492 O 0.40158 0.14109 0.66716 0.0
O493 O 0.38929 0.14273 0.71504 0.0
O494 O 0.35269 0.12851 0.62388 0.0
O495 O 0.35237 0.16757 0.6378 0.0
O496 O 0.32955 0.1111 0.67833 0.0
O497 O 0.30228 0.13104 0.66353 0.0
C498 C 0.29189 0.19122 0.66781 0.0
O499 O 0.29853 0.18167 0.69336 0.0
O500 O 0.30805 0.19382 0.64515 0.0
C501 C 0.35698 0.18053 0.73114 0.0
Tb502 Tb 0.82776 0.17325 0.68024 0.0
C503 C 0.85044 0.12908 0.68494 0.0
Tb504 Tb 0.8924 0.19894 0.68535 0.0
O505 O 0.82626 0.17751 0.62652 0.0
O506 O 0.85744 0.17363 0.65065 0.0
O507 O 0.82839 0.13213 0.68324 0.0
C508 C 0.94179 0.21254 0.66875 0.0
O509 O 0.87603 0.15131 0.6845 0.0
C510 C 0.87544 0.20377 0.74344 0.0
C511 C 0.86891 0.24225 0.68235 0.0
O512 O 0.92852 0.19431 0.68989 0.0
O513 O 0.92742 0.22365 0.65703 0.0
O514 O 0.90095 0.21238 0.73961 0.0
O515 O 0.86227 0.19346 0.71528 0.0
O516 O 0.88943 0.23783 0.67557 0.0
O517 O 0.84458 0.22078 0.68898 0.0
C518 C 0.77824 0.15338 0.70133 0.0
O519 O 0.78513 0.16369 0.67297 0.0
O520 O 0.79896 0.1535 0.71706 0.0
C521 C 0.84977 0.17904 0.62364 0.0
H522 H 0.31188 0.8327 0.06553 0.0
H523 H 0.27822 0.89038 0.0727 0.0
H524 H 0.32128 0.93107 0.05834 0.0
H525 H 0.36893 0.95032 0.04361 0.0
H526 H 0.39954 0.89028 0.03149 0.0
H527 H 0.35688 0.85027 0.04706 0.0
C528 C 0.3134 0.85383 0.06311 0.0
C529 C 0.29145 0.85811 0.07004 0.0
C530 C 0.33782 0.87684 0.05394 0.0
C531 C 0.2947 0.88628 0.0679 0.0
C532 C 0.31932 0.9096 0.0595 0.0
C533 C 0.3661 0.92842 0.04435 0.0
C534 C 0.38731 0.9232 0.03655 0.0
C535 C 0.34111 0.90518 0.05257 0.0
C536 C 0.38345 0.89477 0.0373 0.0
C537 C 0.35909 0.87189 0.04626 0.0
H538 H 0.15204 0.42604 0.11124 0.0
H539 H 0.18434 0.43703 0.01622 0.0
H540 H 0.15003 0.44877 0.99445 0.0
H541 H 0.11158 0.45721 1.00307 0.0
H542 H 0.07939 0.44567 0.09815 0.0
H543 H 0.11277 0.43248 0.11919 0.0
C544 C 0.15125 0.43039 0.08555 0.0
C545 C 0.17062 0.43046 0.06531 0.0
C546 C 0.13159 0.43719 0.0733 0.0
C547 C 0.16972 0.43695 0.03234 0.0
C548 C 0.15011 0.44363 0.01988 0.0
C549 C 0.11188 0.45171 0.02834 0.0
C550 C 0.09317 0.45244 0.04909 0.0
C551 C 0.13111 0.44409 0.04025 0.0
C552 C 0.09363 0.44523 0.08175 0.0
C553 C 0.1127 0.4377 0.09378 0.0
H554 H 0.58927 0.71992 0.06438 0.0
H555 H 0.50281 0.68622 0.06911 0.0
H556 H 0.49257 0.6372 0.04693 0.0
H557 H 0.50822 0.60331 0.02898 0.0
H558 H 0.59468 0.63657 0.02405 0.0
H559 H 0.60476 0.68623 0.04308 0.0
C560 C 0.56821 0.70181 0.06045 0.0
C561 C 0.54685 0.70671 0.06837 0.0
C562 C 0.56243 0.67358 0.04759 0.0
C563 C 0.51962 0.68312 0.06289 0.0
C564 C 0.51374 0.65503 0.05034 0.0
C565 C 0.52927 0.62142 0.03168 0.0
C566 C 0.55062 0.61602 0.02525 0.0
C567 C 0.53499 0.64993 0.04289 0.0
C568 C 0.57776 0.63993 0.02881 0.0
C569 C 0.5836 0.6684 0.03988 0.0
H570 H 0.88449 0.30018 0.9617 0.0
H571 H 0.83276 0.33848 0.95329 0.0
H572 H 0.8714 0.38674 0.97522 0.0
H573 H 0.92038 0.41866 0.99354 0.0
H574 H 0.97255 0.38081 1.00184 0.0
H575 H 0.93328 0.33189 0.98333 0.0
C576 C 0.88169 0.31909 0.96481 0.0
C577 C 0.85573 0.31567 0.95583 0.0
C578 C 0.9041 0.34691 0.97732 0.0
C579 C 0.85238 0.34035 0.96035 0.0
C580 C 0.87453 0.36803 0.97268 0.0
C581 C 0.9232 0.39972 0.99163 0.0
C582 C 0.94951 0.40355 0.99901 0.0
C583 C 0.90056 0.37165 0.98083 0.0
C584 C 0.9526 0.37861 0.99647 0.0
C585 C 0.93014 0.35059 0.98571 0.0
H586 H 0.72692 0.59924 0.9354 0.0
H587 H 0.69816 0.5066 0.93922 0.0
H588 H 0.65868 0.50063 0.96593 0.0
H589 H 0.63311 0.52168 0.99034 0.0
H590 H 0.65781 0.61256 0.98217 0.0
H591 H 0.69811 0.61942 0.95515 0.0
C592 C 0.71176 0.5777 0.94161 0.0
C593 C 0.71594 0.5536 0.93609 0.0
C594 C 0.68862 0.57421 0.95665 0.0
C595 C 0.69594 0.52574 0.94407 0.0
C596 C 0.67328 0.52224 0.9593 0.0
C597 C 0.6475 0.54306 0.98291 0.0
C598 C 0.64313 0.56682 0.98894 0.0
C599 C 0.66973 0.5464 0.96635 0.0
C600 C 0.66121 0.59414 0.97819 0.0
C601 C 0.68409 0.59798 0.96264 0.0
H602 H 0.4926 0.17422 0.97636 0.0
H603 H 0.40808 0.11585 0.93775 0.0
H604 H 0.41159 0.0732 0.95238 0.0
H605 H 0.43906 0.05272 0.9767 0.0
H606 H 0.52403 0.11222 0.01336 0.0
H607 H 0.51986 0.15417 0.99935 0.0
C608 C 0.47486 0.15216 0.97138 0.0
C609 C 0.45003 0.14819 0.95637 0.0
C610 C 0.47711 0.12795 0.97966 0.0
C611 C 0.42742 0.11944 0.9493 0.0
C612 C 0.42941 0.09511 0.9578 0.0
C613 C 0.45654 0.07491 0.98185 0.0
C614 C 0.48176 0.07932 0.99629 0.0
C615 C 0.45416 0.09911 0.97315 0.0
C616 C 0.50439 0.10815 1.00227 0.0
C617 C 0.50205 0.13221 0.99427 0.0
H618 H 0.66149 0.16538 0.91678 0.0
H619 H 0.71208 0.18411 0.00882 0.0
H620 H 0.67508 0.1407 0.02999 0.0
H621 H 0.6265 0.10004 0.0239 0.0
H622 H 0.577 0.08107 0.93061 0.0
H623 H 0.61527 0.12165 0.90826 0.0
C624 C 0.66451 0.15952 0.94121 0.0
C625 C 0.6893 0.17776 0.9613 0.0
C626 C 0.64321 0.13466 0.95309 0.0
C627 C 0.69315 0.17015 0.9929 0.0
C628 C 0.67194 0.14551 0.00506 0.0
C629 C 0.6243 0.10464 0.99858 0.0
C630 C 0.5989 0.0878 0.97907 0.0
C631 C 0.6466 0.128 0.98568 0.0
C632 C 0.59632 0.09377 0.94619 0.0
C633 C 0.61818 0.11703 0.93337 0.0
H634 H 0.8588 0.51505 0.92221 0.0
H635 H 0.85007 0.53329 0.0243 0.0
H636 H 0.89482 0.53901 0.04177 0.0
H637 H 0.93361 0.533 0.02847 0.0
H638 H 0.94197 0.51331 0.9265 0.0
H639 H 0.90035 0.51416 0.90827 0.0
C640 C 0.86719 0.52107 0.94811 0.0
C641 C 0.85159 0.52404 0.97204 0.0
C642 C 0.89259 0.5236 0.95793 0.0
C643 C 0.8621 0.53127 0.00561 0.0
C644 C 0.8875 0.53429 0.01555 0.0
C645 C 0.9265 0.52933 1.00224 0.0
C646 C 0.94056 0.52284 0.97886 0.0
C647 C 0.90251 0.52961 0.99204 0.0
C648 C 0.93136 0.51829 0.94492 0.0
C649 C 0.90755 0.51869 0.93451 0.0
H650 H 0.53661 0.35724 0.00484 0.0
H651 H 0.44926 0.314 0.00884 0.0
H652 H 0.45138 0.36193 0.00985 0.0
H653 H 0.47913 0.41688 0.01224 0.0
H654 H 0.56685 0.458 0.00916 0.0
H655 H 0.56347 0.41029 0.00566 0.0
C656 C 0.51799 0.35828 0.006 0.0
C657 C 0.4929 0.33226 0.00723 0.0
C658 C 0.51949 0.38565 0.00704 0.0
C659 C 0.46884 0.33381 0.00789 0.0
C660 C 0.47012 0.36121 0.0087 0.0
C661 C 0.49745 0.41534 0.01085 0.0
C662 C 0.5232 0.44122 0.01107 0.0
C663 C 0.49547 0.38742 0.00879 0.0
C664 C 0.54671 0.4387 0.00903 0.0
C665 C 0.54488 0.41132 0.00699 0.0
H666 H 0.15863 0.68059 0.03005 0.0
H667 H 0.19341 0.64923 0.10329 0.0
H668 H 0.15238 0.60038 0.09421 0.0
H669 H 0.10795 0.56575 0.06326 0.0
H670 H 0.07219 0.59631 0.99021 0.0
H671 H 0.11215 0.64617 1.00134 0.0
C672 C 0.15693 0.66315 0.04437 0.0
C673 C 0.17908 0.66842 0.06712 0.0
C674 C 0.1333 0.63486 0.03871 0.0
C675 C 0.17673 0.6456 0.08541 0.0
C676 C 0.15332 0.61764 0.08017 0.0
C677 C 0.10892 0.58327 0.04962 0.0
C678 C 0.08733 0.5772 0.02554 0.0
C679 C 0.13176 0.61184 0.05637 0.0
C680 C 0.08865 0.60034 0.00871 0.0
C681 C 0.11148 0.62887 0.0151 0.0
H682 H 0.33645 0.4844 0.02268 0.0
H683 H 0.34957 0.47209 0.12458 0.0
H684 H 0.39145 0.47146 0.11325 0.0
H685 H 0.42672 0.47972 0.07531 0.0
H686 H 0.41328 0.49282 0.97354 0.0
H687 H 0.36903 0.4875 0.98358 0.0
C688 C 0.34822 0.48087 0.0421 0.0
C689 C 0.34012 0.4781 0.07427 0.0
C690 C 0.3723 0.48097 0.03544 0.0
C691 C 0.35547 0.47393 0.09955 0.0
C692 C 0.37944 0.47379 0.0931 0.0
C693 C 0.41383 0.48087 0.05526 0.0
C694 C 0.42327 0.48685 0.02381 0.0
C695 C 0.38844 0.47806 0.06131 0.0
C696 C 0.40647 0.48835 0.998 0.0
C697 C 0.38119 0.48537 1.00372 0.0
H698 H 0.49143 0.85433 0.09833 0.0
H699 H 0.5451 0.8585 0.02537 0.0
H700 H 0.55157 0.9063 0.01198 0.0
H701 H 0.53698 0.94374 0.0165 0.0
H702 H 0.48219 0.93753 0.08928 0.0
H703 H 0.48135 0.89404 0.10744 0.0
C704 C 0.5049 0.866 0.07988 0.0
C705 C 0.51755 0.85294 0.06259 0.0
C706 C 0.50807 0.89299 0.07204 0.0
C707 C 0.5352 0.86827 0.039 0.0
C708 C 0.5387 0.89544 0.0312 0.0
C709 C 0.52531 0.93312 0.0367 0.0
C710 C 0.50926 0.94352 0.05103 0.0
C711 C 0.52453 0.90759 0.04684 0.0
C712 C 0.49428 0.92963 0.07732 0.0
C713 C 0.49379 0.90474 0.08782 0.0
H714 H 0.98623 0.23646 0.43455 0.0
H715 H 0.98862 0.15926 0.39676 0.0
H716 H 0.03157 0.1901 0.37432 0.0
H717 H 0.06854 0.23889 0.36439 0.0
H718 H 0.06922 0.31666 0.40584 0.0
H719 H 0.02539 0.28594 0.42793 0.0
C720 C 0.99627 0.2264 0.42172 0.0
C721 C 0.98359 0.19541 0.41669 0.0
C722 C 0.02159 0.24442 0.40929 0.0
C723 C 0.99721 0.18293 0.40011 0.0
C724 C 0.02199 0.20057 0.38738 0.0
C725 C 0.05898 0.24906 0.3781 0.0
C726 C 0.0718 0.27991 0.38307 0.0
C727 C 0.03422 0.23129 0.39145 0.0
C728 C 0.05955 0.29288 0.40149 0.0
C729 C 0.03453 0.27532 0.41417 0.0
H730 H 0.8189 0.78689 0.45951 0.0
H731 H 0.8614 0.80751 0.37148 0.0
H732 H 0.82832 0.8194 0.3463 0.0
H733 H 0.78684 0.82335 0.34895 0.0
H734 H 0.74322 0.80029 0.43585 0.0
H735 H 0.777 0.78956 0.46164 0.0
C736 C 0.82075 0.79355 0.43461 0.0
C737 C 0.84264 0.7962 0.41743 0.0
C738 C 0.80141 0.79991 0.42006 0.0
C739 C 0.84498 0.80558 0.38547 0.0
C740 C 0.82597 0.81224 0.37095 0.0
C741 C 0.78481 0.81598 0.37353 0.0
C742 C 0.76264 0.81252 0.3905 0.0
C743 C 0.8041 0.80948 0.388 0.0
C744 C 0.76008 0.8029 0.42226 0.0
C745 C 0.77939 0.79682 0.43702 0.0
H746 H 0.26278 0.05032 0.39232 0.0
H747 H 0.17776 0.0266 0.37638 0.0
H748 H 0.16492 0.97643 0.35609 0.0
H749 H 0.17694 0.93828 0.3467 0.0
H750 H 0.26146 0.96052 0.36348 0.0
H751 H 0.27531 0.01214 0.37913 0.0
C752 C 0.24148 0.03417 0.38426 0.0
C753 C 0.22132 0.04238 0.38583 0.0
C754 C 0.23408 1.00502 0.37276 0.0
C755 C 0.19382 0.02117 0.37501 0.0
C756 C 0.18637 0.99233 0.36358 0.0
C757 C 0.19847 0.95441 0.35342 0.0
C758 C 0.21806 0.94536 0.35415 0.0
C759 C 0.20623 0.9839 0.36282 0.0
C760 C 0.24589 0.96676 0.36263 0.0
C761 C 0.25382 0.9963 0.37183 0.0
H762 H 0.55813 0.66069 0.25101 0.0
H763 H 0.53025 0.63758 0.34713 0.0
H764 H 0.56869 0.68451 0.37344 0.0
H765 H 0.60843 0.73404 0.36843 0.0
H766 H 0.63506 0.75682 0.27192 0.0
H767 H 0.59934 0.70798 0.24646 0.0
C768 C 0.56079 0.66554 0.2778 0.0
C769 C 0.54128 0.64559 0.29703 0.0
C770 C 0.58276 0.69263 0.29268 0.0
C771 C 0.5448 0.65265 0.33169 0.0
C772 C 0.56682 0.67947 0.34676 0.0
C773 C 0.60663 0.72789 0.34198 0.0
C774 C 0.62435 0.74858 0.32197 0.0
C775 C 0.58565 0.6999 0.32745 0.0
C776 C 0.62171 0.74091 0.28767 0.0
C777 C 0.60124 0.7131 0.27313 0.0
H778 H 0.39094 0.89818 0.32085 0.0
H779 H 0.3692 0.91275 0.22297 0.0
H780 H 0.32583 0.90582 0.23997 0.0
H781 H 0.29276 0.89258 0.28168 0.0
H782 H 0.31423 0.87716 0.37917 0.0
H783 H 0.35883 0.88709 0.36321 0.0
C784 C 0.37673 0.89988 0.30324 0.0
C785 C 0.38331 0.90586 0.27063 0.0
C786 C 0.35165 0.89544 0.31304 0.0
C787 C 0.36483 0.90848 0.24831 0.0
C788 C 0.3399 0.90426 0.25793 0.0
C789 C 0.3073 0.89157 0.29946 0.0
C790 C 0.30022 0.88402 0.3315 0.0
C791 C 0.3329 0.89729 0.29007 0.0
C792 C 0.31922 0.88286 0.35434 0.0
C793 C 0.34471 0.88853 0.34522 0.0
H794 H 0.11354 0.47913 0.33187 0.0
H795 H 0.16508 0.50518 0.25208 0.0
H796 H 0.18223 0.47238 0.26679 0.0
H797 H 0.18275 0.43656 0.30279 0.0
H798 H 0.12878 0.40805 0.38008 0.0
H799 H 0.11259 0.44181 0.36628 0.0
C800 C 0.12852 0.47756 0.31773 0.0
C801 C 0.13817 0.49461 0.29104 0.0
C802 C 0.138 0.45846 0.32612 0.0
C803 C 0.15727 0.49213 0.27259 0.0
C804 C 0.16719 0.47355 0.28114 0.0
C805 C 0.16768 0.43803 0.31683 0.0
C806 C 0.15727 0.42026 0.3428 0.0
C807 C 0.15783 0.45675 0.308 0.0
C808 C 0.13721 0.42172 0.36019 0.0
C809 C 0.12791 0.44093 0.35224 0.0
H810 H 0.36698 0.50046 0.27647 0.0
H811 H 0.37635 0.56028 0.36056 0.0
H812 H 0.33753 0.52052 0.38339 0.0
H813 H 0.29831 0.47005 0.37688 0.0
H814 H 0.28722 0.41023 0.29189 0.0
H815 H 0.32926 0.44838 0.27208 0.0
C816 C 0.36076 0.50451 0.30008 0.0
C817 C 0.37435 0.53319 0.31679 0.0
C818 C 0.33794 0.48161 0.31271 0.0
C819 C 0.36603 0.53836 0.34722 0.0
C820 C 0.34382 0.51567 0.36023 0.0
C821 C 0.30532 0.46526 0.35426 0.0
C822 C 0.28971 0.43747 0.33581 0.0
C823 C 0.3292 0.48742 0.3428 0.0
C824 C 0.29896 0.43151 0.30654 0.0
C825 C 0.32294 0.45335 0.29515 0.0
H826 H 0.52253 0.87109 0.26007 0.0
H827 H 0.48301 0.8292 0.34457 0.0
H828 H 0.52535 0.83257 0.36818 0.0
H829 H 0.57224 0.84352 0.3626 0.0
H830 H 0.61171 0.88319 0.27711 0.0
H831 H 0.571 0.88483 0.25613 0.0
C832 C 0.52347 0.8632 0.2839 0.0
C833 C 0.49978 0.84984 0.30058 0.0
C834 C 0.54777 0.86459 0.29696 0.0
C835 C 0.50102 0.83941 0.33128 0.0
C836 C 0.52517 0.84129 0.34474 0.0
C837 C 0.57205 0.85286 0.33958 0.0
C838 C 0.59485 0.86317 0.32138 0.0
C839 C 0.54847 0.85321 0.32746 0.0
C840 C 0.59436 0.87517 0.29157 0.0
C841 C 0.57106 0.87601 0.27953 0.0
H842 H 0.11442 0.65972 0.3771 0.0
H843 H 0.18145 0.66442 0.3272 0.0
H844 H 0.20035 0.71739 0.32472 0.0
H845 H 0.19795 0.76257 0.33737 0.0
H846 H 0.13027 0.75692 0.38681 0.0
H847 H 0.11183 0.70429 0.38934 0.0
C848 C 0.13327 0.67236 0.36586 0.0
C849 C 0.14656 0.65816 0.35251 0.0
C850 C 0.14402 0.70271 0.36465 0.0
C851 C 0.17068 0.67476 0.33743 0.0
C852 C 0.1816 0.70509 0.33622 0.0
C853 C 0.1793 0.74984 0.34893 0.0
C854 C 0.16558 0.76371 0.36199 0.0
C855 C 0.16851 0.71935 0.34991 0.0
C856 C 0.14122 0.74682 0.37648 0.0
C857 C 0.13062 0.71669 0.37795 0.0
H858 H 0.81131 0.02681 0.33892 0.0
H859 H 0.83999 0.0182 0.43598 0.0
H860 H 0.79792 0.97068 0.43682 0.0
H861 H 0.75635 0.92853 0.40615 0.0
H862 H 0.72649 0.93768 0.31006 0.0
H863 H 0.76549 0.98817 0.31246 0.0
C864 C 0.80776 0.01495 0.36069 0.0
C865 C 0.82846 0.02586 0.38745 0.0
C866 C 0.78363 0.98757 0.3608 0.0
C867 C 0.82405 0.0103 0.41539 0.0
C868 C 0.80019 0.983 0.41566 0.0
C869 C 0.75821 0.9419 0.3861 0.0
C870 C 0.73899 0.92958 0.35779 0.0
C871 C 0.78038 0.97092 0.38795 0.0
C872 C 0.7412 0.94691 0.33202 0.0
C873 C 0.7635 0.97567 0.33337 0.0
H874 H 0.01941 0.82042 0.45201 0.0
H875 H 0.99243 0.84201 0.36212 0.0
H876 H 0.02855 0.83975 0.33372 0.0
H877 H 0.07058 0.83612 0.33643 0.0
H878 H 0.09723 0.81466 0.42698 0.0
H879 H 0.05855 0.81215 0.45311 0.0
C880 C 0.02118 0.82395 0.42599 0.0
C881 C 1.0034 0.83113 0.40893 0.0
C882 C 0.04212 0.82294 0.41011 0.0
C883 C 1.00588 0.83612 0.37544 0.0
C884 C 0.0266 0.83504 0.35935 0.0
C885 C 0.06762 0.83048 0.36169 0.0
C886 C 0.08676 0.82572 0.3798 0.0
C887 C 0.04527 0.82914 0.37668 0.0
C888 C 0.08274 0.8184 0.41251 0.0
C889 C 0.06067 0.81704 0.42754 0.0
H890 H 0.21831 0.20749 0.34525 0.0
H891 H 0.17059 0.18444 0.42862 0.0
H892 H 0.16974 0.23046 0.4299 0.0
H893 H 0.1775 0.27387 0.40294 0.0
H894 H 0.22562 0.29828 0.31997 0.0
H895 H 0.23168 0.25533 0.32286 0.0
C896 C 0.20857 0.21317 0.3643 0.0
C897 C 0.19472 0.19292 0.38703 0.0
C898 C 0.2078 0.23954 0.36449 0.0
C899 C 0.18164 0.2 0.41123 0.0
C900 C 0.18092 0.22612 0.41173 0.0
C901 C 0.18958 0.26993 0.38573 0.0
C902 C 0.20073 0.28877 0.36092 0.0
C903 C 0.19309 0.2455 0.38777 0.0
C904 C 0.21678 0.2839 0.33917 0.0
C905 C 0.22014 0.25933 0.34078 0.0
H906 H 0.64757 0.50626 0.7203 0.0
H907 H 0.62395 0.57182 0.73938 0.0
H908 H 0.66883 0.6102 0.72679 0.0
H909 H 0.71511 0.62525 0.71031 0.0
H910 H 0.73583 0.55842 0.68528 0.0
H911 H 0.69131 0.52026 0.69924 0.0
C912 C 0.65168 0.52872 0.7209 0.0
C913 C 0.63203 0.53583 0.73083 0.0
C914 C 0.67711 0.55054 0.71246 0.0
C915 C 0.63862 0.56551 0.73242 0.0
C916 C 0.66428 0.58754 0.72497 0.0
C917 C 0.70971 0.60228 0.70782 0.0
C918 C 0.72863 0.59455 0.69697 0.0
C919 C 0.68374 0.58033 0.71508 0.0
C920 C 0.72149 0.5648 0.69351 0.0
C921 C 0.69609 0.54301 0.70158 0.0
H922 H 0.49175 0.12339 0.78747 0.0
H923 H 0.52144 0.11835 0.69331 0.0
H924 H 0.48611 0.12611 0.66527 0.0
H925 H 0.44537 0.13251 0.6679 0.0
H926 H 0.41633 0.13593 0.76319 0.0
H927 H 0.45246 0.12993 0.79033 0.0
C928 C 0.49038 0.12369 0.76072 0.0
C929 C 0.50883 0.11972 0.74238 0.0
C930 C 0.46995 0.12761 0.74498 0.0
C931 C 0.50738 0.12122 0.70793 0.0
C932 C 0.48709 0.12547 0.69193 0.0
C933 C 0.447 0.13183 0.69456 0.0
C934 C 0.42811 0.13446 0.7135 0.0
C935 C 0.46801 0.12834 0.7102 0.0
C936 C 0.43049 0.13377 0.74803 0.0
C937 C 0.4512 0.13044 0.76363 0.0
H938 H 0.86691 0.36032 0.71065 0.0
H939 H 0.95447 0.39666 0.72516 0.0
H940 H 0.94844 0.34821 0.70766 0.0
H941 H 0.91788 0.29456 0.69252 0.0
H942 H 0.83023 0.2586 0.68002 0.0
H943 H 0.83677 0.30777 0.69188 0.0
C944 C 0.88474 0.35782 0.70926 0.0
C945 C 0.91111 0.38215 0.71921 0.0
C946 C 0.88109 0.32981 0.69972 0.0
C947 C 0.93393 0.37828 0.71786 0.0
C948 C 0.93049 0.35057 0.70784 0.0
C949 C 0.90024 0.29754 0.69184 0.0
C950 C 0.87359 0.27278 0.68551 0.0
C951 C 0.9041 0.326 0.69936 0.0
C952 C 0.85098 0.27713 0.68504 0.0
C953 C 0.85468 0.30531 0.69184 0.0
H954 H 0.18967 0.99266 0.63755 0.0
H955 H 0.23863 0.95185 0.65323 0.0
H956 H 0.27957 1.00045 0.66831 0.0
H957 H 0.30186 0.05474 0.67354 0.0
H958 H 0.25217 0.09476 0.65686 0.0
H959 H 0.21118 0.04627 0.64617 0.0
C960 C 0.20915 0.9943 0.64503 0.0
C961 C 0.21104 0.96863 0.64435 0.0
C962 C 0.23259 0.02224 0.65324 0.0
C963 C 0.23664 0.97128 0.65338 0.0
C964 C 0.26005 0.99906 0.66199 0.0
C965 C 0.28205 0.05288 0.66786 0.0
C966 C 0.28027 0.07849 0.6658 0.0
C967 C 0.25837 0.02475 0.66141 0.0
C968 C 0.25434 0.07555 0.65842 0.0
C969 C 0.23077 0.04776 0.65229 0.0
H970 H 0.04174 0.20525 0.62154 0.0
H971 H 0.07016 0.2961 0.60606 0.0
H972 H 0.02773 0.29122 0.62392 0.0
H973 H 0.98246 0.26097 0.6449 0.0
H974 H 0.95788 0.17239 0.66618 0.0
H975 H 0.99933 0.17687 0.64589 0.0
C976 C 0.03925 0.2244 0.62285 0.0
C977 C 0.0595 0.25111 0.61263 0.0
C978 C 0.01538 0.22182 0.63424 0.0
C979 C 0.05496 0.27512 0.61338 0.0
C980 C 0.03072 0.27242 0.62381 0.0
C981 C 0.98636 0.24279 0.64507 0.0
C982 C 0.96729 0.2164 0.65691 0.0
C983 C 0.01076 0.24584 0.63431 0.0
C984 C 0.97244 0.19297 0.65734 0.0
C985 C 0.99607 0.19548 0.64567 0.0
H986 H 0.83591 0.83921 0.63008 0.0
H987 H 0.74796 0.78254 0.61691 0.0
H988 H 0.7527 0.74179 0.63568 0.0
H989 H 0.78207 0.72229 0.65573 0.0
H990 H 0.8701 0.77962 0.66786 0.0
H991 H 0.86498 0.82007 0.65009 0.0
C992 C 0.81771 0.81806 0.6317 0.0
C993 C 0.79158 0.81407 0.6224 0.0
C994 C 0.8206 0.7948 0.64241 0.0
C995 C 0.76831 0.78623 0.62383 0.0
C996 C 0.77102 0.76295 0.63469 0.0
C997 C 0.80013 0.74368 0.65473 0.0
C998 C 0.82645 0.74779 0.66333 0.0
C999 C 0.79709 0.76698 0.64407 0.0
C1000 C 0.84959 0.77566 0.66146 0.0
C1001 C 0.84671 0.7989 0.65125 0.0
H1002 H 0.03152 0.86225 0.69047 0.0
H1003 H 0.04158 0.81553 0.60642 0.0
H1004 H 1.00021 0.76992 0.61639 0.0
H1005 H 0.95883 0.74458 0.64647 0.0
H1006 H 0.94933 0.79274 0.72974 0.0
H1007 H 0.99272 0.83649 0.72263 0.0
C1008 C 0.02473 0.84202 0.67444 0.0
C1009 C 0.03934 0.84229 0.64753 0.0
C1010 C 1.0009 0.81619 0.68009 0.0
C1011 C 0.03066 0.81583 0.62733 0.0
C1012 C 1.00692 0.78984 0.63291 0.0
C1013 C 0.96652 0.76456 0.66327 0.0
C1014 C 0.95085 0.76551 0.68849 0.0
C1015 C 0.99152 0.7899 0.65882 0.0
C1016 C 0.96096 0.79151 0.71007 0.0
C1017 C 0.98576 0.81656 0.70601 0.0
H1018 H 0.18084 0.18994 0.67516 0.0
H1019 H 0.19396 0.2129 0.57523 0.0
H1020 H 0.23865 0.21558 0.5815 0.0
H1021 H 0.27215 0.20712 0.61442 0.0
H1022 H 0.25786 0.18429 0.71449 0.0
H1023 H 0.21557 0.18588 0.70925 0.0
C1024 C 0.19367 0.19584 0.65491 0.0
C1025 C 0.18419 0.20096 0.62473 0.0
C1026 C 0.21902 0.19713 0.65868 0.0
C1027 C 0.201 0.20894 0.59873 0.0
C1028 C 0.22641 0.21027 0.60226 0.0
C1029 C 0.25989 0.20287 0.63512 0.0
C1030 C 0.26796 0.19536 0.66469 0.0
C1031 C 0.23538 0.20378 0.63193 0.0
C1032 C 0.25199 0.18996 0.6914 0.0
C1033 C 0.22778 0.19083 0.68846 0.0
H1034 H 0.86263 0.01811 0.69878 0.0
H1035 H 0.80652 0.98556 0.60913 0.0
H1036 H 0.80139 0.02906 0.61523 0.0
H1037 H 0.81697 0.07926 0.64286 0.0
H1038 H 0.87721 0.11325 0.72847 0.0
H1039 H 0.87693 0.06662 0.72692 0.0
C1040 C 0.84935 0.02049 0.68037 0.0
C1041 C 0.83536 0.99865 0.65322 0.0
C1042 C 0.8474 0.04607 0.68326 0.0
C1043 C 0.81752 1.00183 0.63037 0.0
C1044 C 0.81476 0.02689 0.63368 0.0
C1045 C 0.82957 0.07609 0.66147 0.0
C1046 C 0.84695 0.09944 0.68592 0.0
C1047 C 0.83013 0.04953 0.65959 0.0
C1048 C 0.86364 0.09547 0.70954 0.0
C1049 C 0.86353 0.06887 0.7086 0.0
H1050 H 0.51123 0.32968 0.66564 0.0
H1051 H 0.48261 0.36801 0.739 0.0
H1052 H 0.43676 0.32425 0.72912 0.0
H1053 H 0.40617 0.27257 0.70407 0.0
H1054 H 0.43742 0.23292 0.63635 0.0
H1055 H 0.48098 0.27943 0.63993 0.0
C1056 C 0.49506 0.3285 0.67969 0.0
C1057 C 0.50061 0.35202 0.70345 0.0
C1058 C 0.4692 0.30282 0.67502 0.0
C1059 C 0.47902 0.35038 0.72047 0.0
C1060 C 0.45282 0.3252 0.71505 0.0
C1061 C 0.42243 0.27445 0.6897 0.0
C1062 C 0.41875 0.24962 0.66982 0.0
C1063 C 0.44786 0.30097 0.693 0.0
C1064 C 0.43996 0.25188 0.65175 0.0
C1065 C 0.46481 0.27841 0.65384 0.0
H1066 H 0.69108 0.15087 0.79206 0.0
H1067 H 0.65165 0.15105 0.69802 0.0
H1068 H 0.68694 0.14748 0.66904 0.0
H1069 H 0.73159 0.14907 0.67139 0.0
H1070 H 0.76969 0.14735 0.76593 0.0
H1071 H 0.73242 0.14664 0.7938 0.0
C1072 C 0.69005 0.14963 0.76517 0.0
C1073 C 0.66903 0.15136 0.7471 0.0
C1074 C 0.71029 0.14754 0.74885 0.0
C1075 C 0.66766 0.14962 0.71231 0.0
C1076 C 0.68791 0.14777 0.69583 0.0
C1077 C 0.73141 0.14802 0.69799 0.0
C1078 C 0.75342 0.14844 0.71661 0.0
C1079 C 0.7097 0.14741 0.71393 0.0
C1080 C 0.75295 0.14698 0.75104 0.0
C1081 C 0.7317 0.1467 0.76704 0.0
H1082 H 0.83296 0.51129 0.73791 0.0
H1083 H 0.90742 0.53983 0.69154 0.0
H1084 H 0.91037 0.58738 0.68444 0.0
H1085 H 0.88868 0.61879 0.68654 0.0
H1086 H 0.8125 0.58677 0.73069 0.0
H1087 H 0.81331 0.54291 0.7432 0.0
C1088 C 0.85 0.52802 0.7265 0.0
C1089 C 0.86975 0.52192 0.71493 0.0
C1090 C 0.85103 0.55466 0.72163 0.0
C1091 C 0.89197 0.54402 0.70074 0.0
C1092 C 0.89348 0.57108 0.69639 0.0
C1093 C 0.87242 0.60229 0.69909 0.0
C1094 C 0.8504 0.60615 0.70719 0.0
C1095 C 0.87266 0.57636 0.70591 0.0
C1096 C 0.82953 0.58446 0.72358 0.0
C1097 C 0.82996 0.55924 0.73095 0.0
H1098 H 0.42829 0.94909 0.17701 0.0
H1099 H 0.50235 0.95368 0.21963 0.0
H1100 H 0.52785 0.9846 0.17764 0.0
H1101 H 0.52887 1.00886 0.12742 0.0
H1102 H 0.45594 1.00759 0.08764 0.0
H1103 H 0.43036 0.97735 0.13037 0.0
C1104 C 0.45012 0.95731 0.17773 0.0
C1105 C 0.46316 0.94864 0.2015 0.0
C1106 C 0.4649 0.97567 0.1539 0.0
C1107 C 0.49147 0.95928 0.20132 0.0
C1108 C 0.5062 0.97722 0.17743 0.0
C1109 C 0.50748 1.00231 0.12843 0.0
C1110 C 0.49404 0.0098 0.10397 0.0
C1111 C 0.49307 0.98531 0.15339 0.0
C1112 C 0.46641 1.00131 0.10565 0.0
C1113 C 0.45187 0.98419 0.13019 0.0
H1114 H 0.07445 0.48762 0.20183 0.0
H1115 H 0.11493 0.58272 0.21276 0.0
H1116 H 0.09062 0.58125 0.16028 0.0
H1117 H 0.05688 0.55289 0.11162 0.0
H1118 H 0.01811 0.4581 0.09951 0.0
H1119 H 0.04302 0.45953 0.1517 0.0
C1120 C 0.07837 0.50809 0.19255 0.0
C1121 C 0.09639 0.53523 0.21161 0.0
C1122 C 0.06448 0.50714 0.1621 0.0
C1123 C 0.10081 0.56145 0.19912 0.0
C1124 C 0.08698 0.56066 0.16897 0.0
C1125 C 0.05386 0.53259 0.12057 0.0
C1126 C 0.0356 0.50541 0.10197 0.0
C1127 C 0.06849 0.53363 0.15044 0.0
C1128 C 0.03212 0.47928 0.11346 0.0
C1129 C 0.04632 0.48009 0.1433 0.0
H1130 H 0.52759 0.55769 0.22321 0.0
H1131 H 0.465 0.5702 0.17409 0.0
H1132 H 0.47336 0.55436 0.12027 0.0
H1133 H 0.50198 0.54222 0.08677 0.0
H1134 H 0.56462 0.52977 0.1359 0.0
H1135 H 0.55288 0.54048 0.19001 0.0
C1136 C 0.5156 0.55664 0.20073 0.0
C1137 C 0.49584 0.56529 0.20266 0.0
C1138 C 0.52077 0.54787 0.16982 0.0
C1139 C 0.48019 0.56345 0.17337 0.0
C1140 C 0.48514 0.55465 0.14253 0.0
C1141 C 0.51269 0.5413 0.10932 0.0
C1142 C 0.53428 0.53544 0.10735 0.0
C1143 C 0.50586 0.54755 0.14038 0.0
C1144 C 0.54803 0.5344 0.13678 0.0
C1145 C 0.54136 0.54058 0.16773 0.0
H1146 H 0.9297 0.41559 0.83078 0.0
H1147 H 0.96463 0.50584 0.80953 0.0
H1148 H 0.99263 0.52273 0.86365 0.0
H1149 H 0.01059 0.51096 0.9148 0.0
H1150 H 0.97693 0.41971 0.93184 0.0
H1151 H 0.94521 0.40411 0.88175 0.0
C1152 C 0.94351 0.439 0.83788 0.0
C1153 C 0.94556 0.45938 0.81584 0.0
C1154 C 0.95994 0.44834 0.86833 0.0
C1155 C 0.96282 0.48967 0.82597 0.0
C1156 C 0.97893 0.4993 0.85682 0.0
C1157 C 0.99602 0.48776 0.9076 0.0
C1158 C 0.99618 0.46649 0.92682 0.0
C1159 C 0.9782 0.47875 0.8779 0.0
C1160 C 0.97736 0.43647 0.91729 0.0
C1161 C 0.95918 0.4275 0.88863 0.0
H1162 H 0.59217 0.5091 0.84001 0.0
H1163 H 0.52093 0.49633 0.7801 0.0
H1164 H 0.5029 0.50635 0.8299 0.0
H1165 H 0.507 0.51707 0.8911 0.0
H1166 H 0.57626 0.52405 0.95037 0.0
H1167 H 0.59583 0.51866 0.90052 0.0
C1168 C 0.57278 0.50872 0.83801 0.0
C1169 C 0.55788 0.50225 0.80677 0.0
C1170 C 0.56238 0.51372 0.86665 0.0
C1171 C 0.53264 0.50136 0.80413 0.0
C1172 C 0.52242 0.5071 0.83252 0.0
C1173 C 0.52652 0.51777 0.89295 0.0
C1174 C 0.54057 0.52179 0.92438 0.0
C1175 C 0.53704 0.51314 0.864 0.0
C1176 C 0.56549 0.52192 0.92651 0.0
C1177 C 0.57656 0.51847 0.89798 0.0
H1178 H 0.54977 0.05354 0.83796 0.0
H1179 H 0.50239 0.09703 0.84525 0.0
H1180 H 0.48161 0.07076 0.89212 0.0
H1181 H 0.47512 0.03412 0.92948 0.0
H1182 H 0.52303 0.99137 0.92578 0.0
H1183 H 0.54543 0.01857 0.87908 0.0
C1184 C 0.53504 0.05732 0.85001 0.0
C1185 C 0.52707 0.07657 0.83749 0.0
C1186 C 0.52312 0.04214 0.87736 0.0
C1187 C 0.50822 0.0816 0.85366 0.0
C1188 C 0.4964 0.06672 0.8806 0.0
C1189 C 0.49046 0.03074 0.9184 0.0
C1190 C 0.49735 0.01073 0.9306 0.0
C1191 C 0.50331 0.04661 0.89224 0.0
C1192 C 0.51744 1.0067 0.91647 0.0
C1193 C 0.53019 0.02223 0.88989 0.0
H1194 H 0.15107 0.32646 0.55499 0.0
H1195 H 0.10596 0.24177 0.49653 0.0
H1196 H 0.12225 0.26499 0.4459 0.0
H1197 H 0.15042 0.30862 0.41902 0.0
H1198 H 0.19844 0.39357 0.47651 0.0
H1199 H 0.17978 0.37116 0.52712 0.0
C1200 C 0.1449 0.31331 0.53106 0.0
C1201 C 0.12754 0.28259 0.52911 0.0
C1202 C 0.15482 0.32679 0.50219 0.0
C1203 C 0.11949 0.26546 0.49828 0.0
C1204 C 0.12873 0.2787 0.46947 0.0
C1205 C 0.15677 0.32236 0.44253 0.0
C1206 C 0.1758 0.35268 0.44413 0.0
C1207 C 0.14657 0.30925 0.47123 0.0
C1208 C 0.1838 0.37015 0.47479 0.0
C1209 C 0.1732 0.35732 0.50364 0.0
H1210 H 0.71668 0.8288 0.55103 0.0
H1211 H 0.79469 0.88225 0.51407 0.0
H1212 H 0.77154 0.87903 0.45983 0.0
H1213 H 0.72944 0.86314 0.42385 0.0
H1214 H 0.65081 0.81139 0.4601 0.0
H1215 H 0.67372 0.81198 0.51382 0.0
C1216 C 0.72845 0.83954 0.53094 0.0
C1217 C 0.75729 0.85584 0.53639 0.0
C1218 C 0.71492 0.83811 0.49992 0.0
C1219 C 0.77247 0.8698 0.51036 0.0
C1220 C 0.75926 0.86796 0.47942 0.0
C1221 C 0.71726 0.85174 0.44339 0.0
C1222 C 0.68848 0.83708 0.43803 0.0
C1223 C 0.73054 0.85251 0.47406 0.0
C1224 C 0.67301 0.82278 0.46371 0.0
C1225 C 0.68611 0.82312 0.49436 0.0
H1226 H 0.14569 0.89194 0.52648 0.0
H1227 H 0.19795 0.87072 0.58567 0.0
H1228 H 0.21145 0.85548 0.53518 0.0
H1229 H 0.21186 0.85312 0.47423 0.0
H1230 H 0.16284 0.87933 0.41612 0.0
H1231 H 0.1443 0.88726 0.46583 0.0
C1232 C 0.15943 0.88319 0.52822 0.0
C1233 C 0.17061 0.88209 0.55956 0.0
C1234 C 0.16791 0.8757 0.49921 0.0
C1235 C 0.18896 0.87147 0.56167 0.0
C1236 C 0.19681 0.863 0.53286 0.0
C1237 C 0.19692 0.86029 0.47251 0.0
C1238 C 0.18853 0.86534 0.44152 0.0
C1239 C 0.18702 0.86582 0.50149 0.0
C1240 C 0.16933 0.87484 0.4396 0.0
C1241 C 0.15882 0.87957 0.46807 0.0
H1242 H 0.62741 0.78683 0.14081 0.0
H1243 H 0.56502 0.79726 0.18538 0.0
H1244 H 0.59373 0.8159 0.2385 0.0
H1245 H 0.63524 0.82581 0.2733 0.0
H1246 H 0.69726 0.81474 0.22896 0.0
H1247 H 0.66996 0.79943 0.17491 0.0
C1248 C 0.62013 0.79324 0.16213 0.0
C1249 C 0.59408 0.7906 0.15905 0.0
C1250 C 0.63662 0.80362 0.19274 0.0
C1251 C 0.58511 0.79938 0.18687 0.0
C1252 C 0.60143 0.80982 0.21737 0.0
C1253 C 0.64299 0.82063 0.25171 0.0
C1254 C 0.66827 0.82157 0.25508 0.0
C1255 C 0.62707 0.81166 0.22072 0.0
C1256 C 0.67785 0.81424 0.22695 0.0
C1257 C 0.66223 0.80542 0.19605 0.0
H1258 H 0.23458 0.80229 0.18246 0.0
H1259 H 0.20189 0.8437 0.12114 0.0
H1260 H 0.18346 0.85577 0.16918 0.0
H1261 H 0.17709 0.85472 0.22927 0.0
H1262 H 0.21295 0.81579 0.2902 0.0
H1263 H 0.22978 0.80279 0.24202 0.0
C1264 C 0.22319 0.81372 0.17968 0.0
C1265 C 0.21915 0.82173 0.14845 0.0
C1266 C 0.21339 0.82121 0.20744 0.0
C1267 C 0.20496 0.83714 0.14506 0.0
C1268 C 0.19451 0.84407 0.17249 0.0
C1269 C 0.1886 0.84342 0.23186 0.0
C1270 C 0.19365 0.83616 0.26325 0.0
C1271 C 0.19867 0.83628 0.20389 0.0
C1272 C 0.20877 0.8217 0.26637 0.0
C1273 C 0.21838 0.81414 0.23878 0.0
H1274 H 0.23154 0.42218 0.18256 0.0
H1275 H 0.17007 0.3447 0.12037 0.0
H1276 H 0.15431 0.31845 0.16957 0.0
H1277 H 0.15529 0.3196 0.231 0.0
H1278 H 0.21439 0.39978 0.29151 0.0
H1279 H 0.23412 0.42257 0.24258 0.0
C1280 C 0.21522 0.39927 0.17969 0.0
C1281 C 0.20214 0.38529 0.14797 0.0
C1282 C 0.20571 0.38483 0.20798 0.0
C1283 C 0.18049 0.35585 0.14466 0.0
C1284 C 0.17141 0.34092 0.17276 0.0
C1285 C 0.17271 0.34187 0.23334 0.0
C1286 C 0.18366 0.35773 0.26496 0.0
C1287 C 0.18339 0.35548 0.20468 0.0
C1288 C 0.20599 0.38675 0.26765 0.0
C1289 C 0.21718 0.4 0.23957 0.0
H1290 H 0.77491 0.622 0.86227 0.0
H1291 H 0.80944 0.56578 0.84415 0.0
H1292 H 0.83458 0.59526 0.8019 0.0
H1293 H 0.84831 0.63785 0.77081 0.0
H1294 H 0.80665 0.68723 0.77841 0.0
H1295 H 0.7822 0.65908 0.82352 0.0
C1296 C 0.78739 0.61556 0.84885 0.0
C1297 C 0.79099 0.59218 0.85829 0.0
C1298 C 0.80054 0.63142 0.82243 0.0
C1299 C 0.80733 0.58461 0.83971 0.0
C1300 C 0.82151 0.6012 0.81479 0.0
C1301 C 0.83352 0.6421 0.78197 0.0
C1302 C 0.82933 0.66458 0.77165 0.0
C1303 C 0.81861 0.62489 0.80634 0.0
C1304 C 0.81015 0.66996 0.78616 0.0
C1305 C 0.79626 0.65391 0.8119 0.0
H1306 H 0.39499 0.1566 0.8687 0.0
H1307 H 0.45467 0.24957 0.87223 0.0
H1308 H 0.43379 0.25142 0.81904 0.0
H1309 H 0.39867 0.22662 0.77067 0.0
H1310 H 0.34378 0.13265 0.76378 0.0
H1311 H 0.3634 0.13107 0.81849 0.0
C1312 C 0.40401 0.17726 0.85779 0.0
C1313 C 0.42633 0.20295 0.87532 0.0
C1314 C 0.39278 0.17798 0.82626 0.0
C1315 C 0.437 0.22949 0.86039 0.0
C1316 C 0.42527 0.23057 0.82955 0.0
C1317 C 0.39108 0.20588 0.7813 0.0
C1318 C 0.36966 0.17985 0.76362 0.0
C1319 C 0.40308 0.205 0.81231 0.0
C1320 C 0.36023 0.15295 0.77713 0.0
C1321 C 0.37141 0.15207 0.80839 0.0
H1322 H 0.8563 0.23484 0.88795 0.0
H1323 H 0.78378 0.22647 0.83534 0.0
H1324 H 0.79488 0.21042 0.78364 0.0
H1325 H 0.82788 0.2037 0.75232 0.0
H1326 H 0.90091 0.21359 0.8051 0.0
H1327 H 0.88728 0.2247 0.85756 0.0
C1328 C 0.84283 0.22933 0.86521 0.0
C1329 C 0.81936 0.23206 0.86556 0.0
C1330 C 0.84962 0.22072 0.83545 0.0
C1331 C 0.80187 0.22434 0.83593 0.0
C1332 C 0.80833 0.2154 0.80624 0.0
C1333 C 0.84036 0.20748 0.7754 0.0
C1334 C 0.86521 0.20755 0.77492 0.0
C1335 C 0.83249 0.21413 0.80555 0.0
C1336 C 0.88168 0.21342 0.8049 0.0
C1337 C 0.87391 0.21977 0.8349 0.0
H1338 H 0.2973 0.11536 0.46495 0.0
H1339 H 0.23831 0.13581 0.50251 0.0
H1340 H 0.26442 0.15178 0.55742 0.0
H1341 H 0.30182 0.15528 0.59629 0.0
H1342 H 0.358 0.13063 0.55876 0.0
H1343 H 0.3351 0.12061 0.50263 0.0
C1344 C 0.29007 0.12325 0.48511 0.0
C1345 C 0.26571 0.12412 0.47946 0.0
C1346 C 0.30468 0.13151 0.51684 0.0
C1347 C 0.25709 0.1351 0.50586 0.0
C1348 C 0.27191 0.14402 0.53744 0.0
C1349 C 0.30935 0.14843 0.57563 0.0
C1350 C 0.3317 0.144 0.58148 0.0
C1351 C 0.29547 0.14179 0.54341 0.0
C1352 C 0.34085 0.13426 0.55474 0.0
C1353 C 0.32774 0.12846 0.52267 0.0
H1354 H 0.87789 0.16499 0.47737 0.0
H1355 H 0.94818 0.16956 0.53102 0.0
H1356 H 0.93201 0.17609 0.58395 0.0
H1357 H 0.89638 0.17768 0.61472 0.0
H1358 H 0.82803 0.17719 0.5611 0.0
H1359 H 0.84463 0.17153 0.50834 0.0
C1360 C 0.88968 0.16762 0.50072 0.0
C1361 C 0.91405 0.16662 0.50047 0.0
C1362 C 0.88049 0.17189 0.53094 0.0
C1363 C 0.92937 0.17029 0.53073 0.0
C1364 C 0.92008 0.17392 0.56093 0.0
C1365 C 0.88549 0.17706 0.59153 0.0
C1366 C 0.86111 0.17808 0.59186 0.0
C1367 C 0.89551 0.17445 0.56133 0.0
C1368 C 0.84688 0.17655 0.56153 0.0
C1369 C 0.85634 0.17325 0.53135 0.0
H1370 H 0.89976 0.76369 0.52965 0.0
H1371 H 0.82811 0.70537 0.46148 0.0
H1372 H 0.80928 0.6717 0.50382 0.0
H1373 H 0.81117 0.66122 0.5619 0.0
H1374 H 0.88302 0.71881 0.6292 0.0
H1375 H 0.90419 0.74989 0.58543 0.0
C1376 C 0.88038 0.74325 0.52364 0.0
C1377 C 0.86522 0.73742 0.49248 0.0
C1378 C 0.86969 0.72383 0.54806 0.0
C1379 C 0.83997 0.71085 0.48547 0.0
C1380 C 0.82919 0.69149 0.50964 0.0
C1381 C 0.83169 0.68029 0.56673 0.0
C1382 C 0.84572 0.68759 0.59877 0.0
C1383 C 0.84353 0.69816 0.54131 0.0
C1384 C 0.87219 0.7123 0.60473 0.0
C1385 C 0.88411 0.73032 0.57968 0.0
loop_
_geom_bond_atom_site_label_1
_geom_bond_atom_site_label_2
_geom_bond_distance
_geom_bond_site_symmetry_2
_ccdc_geom_bond_type
H0 C1 0.949 . S
C1 H0 0.949 . S
C1 C2 1.395 . S
C1 C3 1.391 . S
C2 C1 1.395 . S
C2 C5 1.390 . S
C3 C1 1.391 . S
C3 C7 1.387 . S
C3 C8 1.491 . S
H4 C5 0.950 . S
C5 C2 1.390 . S
C5 H4 0.950 . S
C5 C6 1.378 . S
C6 C5 1.378 . S
C6 C7 1.409 . S
C7 C3 1.387 . S
C7 C6 1.409 . S
C7 H9 0.951 . S
C8 C3 1.491 . S
C8 C10 1.382 . S
C8 C12 1.404 . S
H9 C7 0.951 . S
C10 C8 1.382 . S
C10 C11 1.390 . S
C10 H15 0.949 . S
C11 C10 1.390 . S
C11 C16 1.399 . S
C12 C8 1.404 . S
C12 H13 0.950 . S
C12 C14 1.375 . S
H13 C12 0.950 . S
C14 C12 1.375 . S
C14 C16 1.382 . S
C14 H18 0.950 . S
H15 C10 0.949 . S
C16 C11 1.399 . S
C16 C14 1.382 . S
C16 H17 0.952 . S
H17 C16 0.952 . S
H18 C14 0.950 . S
H19 C20 0.949 . S
C20 H19 0.949 . S
C20 C21 1.395 . S
C20 C22 1.391 . S
C21 C20 1.395 . S
C21 C24 1.390 . S
C22 C20 1.391 . S
C22 C26 1.387 . S
C22 C27 1.491 . S
H23 C24 0.950 . S
C24 C21 1.390 . S
C24 H23 0.950 . S
C24 C25 1.378 . S
C25 C24 1.378 . S
C25 C26 1.409 . S
C26 C22 1.387 . S
C26 C25 1.409 . S
C26 H28 0.951 . S
C27 C22 1.491 . S
C27 C29 1.382 . S
C27 C31 1.404 . S
H28 C26 0.951 . S
C29 C27 1.382 . S
C29 C30 1.390 . S
C29 H34 0.949 . S
C30 C29 1.390 . S
C30 C35 1.399 . S
C31 C27 1.404 . S
C31 H32 0.950 . S
C31 C33 1.375 . S
H32 C31 0.950 . S
C33 C31 1.375 . S
C33 C35 1.382 . S
C33 H37 0.950 . S
H34 C29 0.949 . S
C35 C30 1.399 . S
C35 C33 1.382 . S
C35 H36 0.952 1_545 S
H36 C35 0.952 1_565 S
H37 C33 0.950 . S
H38 C39 0.949 . S
C39 H38 0.949 . S
C39 C40 1.395 . S
C39 C41 1.391 . S
C40 C39 1.395 . S
C40 C43 1.390 . S
C41 C39 1.391 . S
C41 C45 1.387 . S
C41 C46 1.491 . S
H42 C43 0.950 . S
C43 C40 1.390 . S
C43 H42 0.950 . S
C43 C44 1.378 . S
C44 C43 1.378 . S
C44 C45 1.409 . S
C45 C41 1.387 . S
C45 C44 1.409 . S
C45 H47 0.951 . S
C46 C41 1.491 . S
C46 C48 1.382 . S
C46 C50 1.404 . S
H47 C45 0.951 . S
C48 C46 1.382 . S
C48 C49 1.390 . S
C48 H53 0.949 . S
C49 C48 1.390 . S
C49 C54 1.399 . S
C50 C46 1.404 . S
C50 H51 0.950 . S
C50 C52 1.375 . S
H51 C50 0.950 . S
C52 C50 1.375 . S
C52 C54 1.382 . S
C52 H56 0.950 . S
H53 C48 0.949 . S
C54 C49 1.399 . S
C54 C52 1.382 . S
C54 H55 0.952 1_655 S
H55 C54 0.952 1_455 S
H56 C52 0.950 . S
H57 C58 0.949 . S
C58 H57 0.949 . S
C58 C59 1.395 . S
C58 C60 1.391 . S
C59 C58 1.395 . S
C59 C62 1.390 . S
C60 C58 1.391 . S
C60 C64 1.387 . S
C60 C65 1.491 . S
H61 C62 0.950 . S
C62 C59 1.390 . S
C62 H61 0.950 . S
C62 C63 1.378 . S
C63 C62 1.378 . S
C63 C64 1.409 . S
C64 C60 1.387 . S
C64 C63 1.409 . S
C64 H66 0.951 . S
C65 C60 1.491 . S
C65 C67 1.382 . S
C65 C69 1.404 . S
H66 C64 0.951 . S
C67 C65 1.382 . S
C67 C68 1.390 . S
C67 H72 0.949 . S
C68 C67 1.390 . S
C68 C73 1.399 . S
C69 C65 1.404 . S
C69 H70 0.950 . S
C69 C71 1.375 . S
H70 C69 0.950 . S
C71 C69 1.375 . S
C71 C73 1.382 . S
C71 H75 0.950 . S
H72 C67 0.949 . S
C73 C68 1.399 . S
C73 C71 1.382 . S
C73 H74 0.952 . S
H74 C73 0.952 . S
H75 C71 0.950 . S
H76 C77 0.949 . S
C77 H76 0.949 . S
C77 C78 1.395 . S
C77 C79 1.391 . S
C78 C77 1.395 . S
C78 C81 1.390 . S
C79 C77 1.391 . S
C79 C83 1.387 . S
C79 C84 1.491 . S
H80 C81 0.950 . S
C81 C78 1.390 . S
C81 H80 0.950 . S
C81 C82 1.378 . S
C82 C81 1.378 . S
C82 C83 1.409 . S
C83 C79 1.387 . S
C83 C82 1.409 . S
C83 H85 0.951 . S
C84 C79 1.491 . S
C84 C86 1.382 . S
C84 C88 1.404 . S
H85 C83 0.951 . S
C86 C84 1.382 . S
C86 C87 1.390 . S
C86 H91 0.949 . S
C87 C86 1.390 . S
C87 C92 1.399 . S
C88 C84 1.404 . S
C88 H89 0.950 . S
C88 C90 1.375 . S
H89 C88 0.950 . S
C90 C88 1.375 . S
C90 C92 1.382 . S
C90 H94 0.950 . S
H91 C86 0.949 . S
C92 C87 1.399 . S
C92 C90 1.382 . S
C92 H93 0.952 1_565 S
H93 C92 0.952 1_545 S
H94 C90 0.950 . S
H95 C96 0.949 . S
C96 H95 0.949 . S
C96 C97 1.395 . S
C96 C98 1.391 . S
C97 C96 1.395 . S
C97 C100 1.390 . S
C98 C96 1.391 . S
C98 C102 1.387 . S
C98 C103 1.491 . S
H99 C100 0.950 . S
C100 C97 1.390 . S
C100 H99 0.950 . S
C100 C101 1.378 . S
C101 C100 1.378 . S
C101 C102 1.409 . S
C102 C98 1.387 . S
C102 C101 1.409 . S
C102 H104 0.951 . S
C103 C98 1.491 . S
C103 C105 1.382 . S
C103 C107 1.404 . S
H104 C102 0.951 . S
C105 C103 1.382 . S
C105 C106 1.390 . S
C105 H110 0.949 . S
C106 C105 1.390 . S
C106 C111 1.399 . S
C107 C103 1.404 . S
C107 H108 0.950 . S
C107 C109 1.375 . S
H108 C107 0.950 . S
C109 C107 1.375 . S
C109 C111 1.382 . S
C109 H113 0.950 . S
H110 C105 0.949 . S
C111 C106 1.399 . S
C111 C109 1.382 . S
C111 H112 0.952 . S
H112 C111 0.952 . S
H113 C109 0.950 . S
H114 C115 0.949 . S
C115 H114 0.949 . S
C115 C116 1.395 . S
C115 C117 1.391 . S
C116 C115 1.395 . S
C116 C119 1.390 . S
C117 C115 1.391 . S
C117 C121 1.387 . S
C117 C122 1.491 . S
H118 C119 0.950 . S
C119 C116 1.390 . S
C119 H118 0.950 . S
C119 C120 1.378 . S
C120 C119 1.378 . S
C120 C121 1.409 . S
C121 C117 1.387 . S
C121 C120 1.409 . S
C121 H123 0.951 . S
C122 C117 1.491 . S
C122 C124 1.382 . S
C122 C126 1.404 . S
H123 C121 0.951 . S
C124 C122 1.382 . S
C124 C125 1.390 . S
C124 H129 0.949 . S
C125 C124 1.390 . S
C125 C130 1.399 . S
C126 C122 1.404 . S
C126 H127 0.950 . S
C126 C128 1.375 . S
H127 C126 0.950 . S
C128 C126 1.375 . S
C128 C130 1.382 . S
C128 H132 0.950 . S
H129 C124 0.949 . S
C130 C125 1.399 . S
C130 C128 1.382 . S
C130 H131 0.952 . S
H131 C130 0.952 . S
H132 C128 0.950 . S
H133 C134 0.949 . S
C134 H133 0.949 . S
C134 C135 1.395 . S
C134 C136 1.391 . S
C135 C134 1.395 . S
C135 C138 1.390 . S
C136 C134 1.391 . S
C136 C140 1.387 . S
C136 C141 1.491 . S
H137 C138 0.950 . S
C138 C135 1.390 . S
C138 H137 0.950 . S
C138 C139 1.378 . S
C139 C138 1.378 . S
C139 C140 1.409 . S
C140 C136 1.387 . S
C140 C139 1.409 . S
C140 H142 0.951 . S
C141 C136 1.491 . S
C141 C143 1.382 . S
C141 C145 1.404 . S
H142 C140 0.951 . S
C143 C141 1.382 . S
C143 C144 1.390 . S
C143 H148 0.949 . S
C144 C143 1.390 . S
C144 C149 1.399 . S
C145 C141 1.404 . S
C145 H146 0.950 . S
C145 C147 1.375 . S
H146 C145 0.950 . S
C147 C145 1.375 . S
C147 C149 1.382 . S
C147 H151 0.950 . S
H148 C143 0.949 . S
C149 C144 1.399 . S
C149 C147 1.382 . S
C149 H150 0.952 . S
H150 C149 0.952 . S
H151 C147 0.950 . S
H152 C153 0.949 . S
C153 H152 0.949 . S
C153 C154 1.395 . S
C153 C155 1.391 . S
C154 C153 1.395 . S
C154 C157 1.390 . S
C155 C153 1.391 . S
C155 C159 1.387 . S
C155 C160 1.491 . S
H156 C157 0.950 . S
C157 C154 1.390 . S
C157 H156 0.950 . S
C157 C158 1.378 . S
C158 C157 1.378 . S
C158 C159 1.409 . S
C159 C155 1.387 . S
C159 C158 1.409 . S
C159 H161 0.951 . S
C160 C155 1.491 . S
C160 C162 1.382 . S
C160 C164 1.404 . S
H161 C159 0.951 . S
C162 C160 1.382 . S
C162 C163 1.390 . S
C162 H167 0.949 . S
C163 C162 1.390 . S
C163 C168 1.399 . S
C164 C160 1.404 . S
C164 H165 0.950 . S
C164 C166 1.375 . S
H165 C164 0.950 . S
C166 C164 1.375 . S
C166 C168 1.382 . S
C166 H170 0.950 . S
H167 C162 0.949 . S
C168 C163 1.399 . S
C168 C166 1.382 . S
C168 H169 0.952 . S
H169 C168 0.952 . S
H170 C166 0.950 . S
H171 C172 0.949 . S
C172 H171 0.949 . S
C172 C173 1.395 . S
C172 C174 1.391 . S
C173 C172 1.395 . S
C173 C176 1.390 . S
C174 C172 1.391 . S
C174 C178 1.387 . S
C174 C179 1.491 . S
H175 C176 0.950 . S
C176 C173 1.390 . S
C176 H175 0.950 . S
C176 C177 1.378 . S
C177 C176 1.378 . S
C177 C178 1.409 . S
C178 C174 1.387 . S
C178 C177 1.409 . S
C178 H180 0.951 . S
C179 C174 1.491 . S
C179 C181 1.382 . S
C179 C183 1.404 . S
H180 C178 0.951 . S
C181 C179 1.382 . S
C181 C182 1.390 . S
C181 H186 0.949 . S
C182 C181 1.390 . S
C182 C187 1.399 . S
C183 C179 1.404 . S
C183 H184 0.950 . S
C183 C185 1.375 . S
H184 C183 0.950 . S
C185 C183 1.375 . S
C185 C187 1.382 . S
C185 H189 0.950 . S
H186 C181 0.949 . S
C187 C182 1.399 . S
C187 C185 1.382 . S
C187 H188 0.952 . S
H188 C187 0.952 . S
H189 C185 0.950 . S
H190 C191 0.949 . S
C191 H190 0.949 . S
C191 C192 1.395 . S
C191 C193 1.391 . S
C192 C191 1.395 . S
C192 C195 1.390 . S
C193 C191 1.391 . S
C193 C197 1.387 . S
C193 C198 1.491 . S
H194 C195 0.950 . S
C195 C192 1.390 . S
C195 H194 0.950 . S
C195 C196 1.378 . S
C196 C195 1.378 . S
C196 C197 1.409 . S
C197 C193 1.387 . S
C197 C196 1.409 . S
C197 H199 0.951 1_556 S
C198 C193 1.491 . S
C198 C200 1.382 . S
C198 C202 1.404 1_556 S
H199 C197 0.951 1_554 S
C200 C198 1.382 . S
C200 C201 1.390 1_556 S
C200 H205 0.949 . S
C201 C200 1.390 1_554 S
C201 C206 1.399 . S
C202 C198 1.404 1_554 S
C202 H203 0.950 . S
C202 C204 1.375 . S
H203 C202 0.950 . S
C204 C202 1.375 . S
C204 C206 1.382 . S
C204 H208 0.950 . S
H205 C200 0.949 . S
C206 C201 1.399 . S
C206 C204 1.382 . S
C206 H207 0.952 . S
H207 C206 0.952 . S
H208 C204 0.950 . S
H209 C210 0.949 . S
C210 H209 0.949 . S
C210 C211 1.395 . S
C210 C212 1.391 . S
C211 C210 1.395 . S
C211 C214 1.390 . S
C212 C210 1.391 . S
C212 C216 1.387 . S
C212 C217 1.491 . S
H213 C214 0.950 . S
C214 C211 1.390 . S
C214 H213 0.950 . S
C214 C215 1.378 . S
C215 C214 1.378 . S
C215 C216 1.409 . S
C216 C212 1.387 . S
C216 C215 1.409 . S
C216 H218 0.951 . S
C217 C212 1.491 . S
C217 C219 1.382 . S
C217 C221 1.404 . S
H218 C216 0.951 . S
C219 C217 1.382 . S
C219 C220 1.390 . S
C219 H224 0.949 . S
C220 C219 1.390 . S
C220 C225 1.399 . S
C221 C217 1.404 . S
C221 H222 0.950 . S
C221 C223 1.375 . S
H222 C221 0.950 . S
C223 C221 1.375 . S
C223 C225 1.382 . S
C223 H227 0.950 1_556 S
H224 C219 0.949 . S
C225 C220 1.399 . S
C225 C223 1.382 . S
C225 H226 0.938 1_556 S
H226 C225 0.938 1_554 S
H227 C223 0.950 1_554 S
H228 C229 0.949 . S
C229 H228 0.949 . S
C229 C230 1.395 . S
C229 C231 1.391 . S
C230 C229 1.395 . S
C230 C233 1.390 . S
C231 C229 1.391 . S
C231 C235 1.387 . S
C231 C236 1.491 . S
H232 C233 0.950 . S
C233 C230 1.390 . S
C233 H232 0.950 . S
C233 C234 1.378 . S
C234 C233 1.378 . S
C234 C235 1.409 . S
C235 C231 1.387 . S
C235 C234 1.409 . S
C235 H237 0.951 . S
C236 C231 1.491 . S
C236 C238 1.382 . S
C236 C240 1.404 . S
H237 C235 0.951 . S
C238 C236 1.382 . S
C238 C239 1.390 . S
C238 H243 0.949 . S
C239 C238 1.390 . S
C239 C244 1.399 . S
C240 C236 1.404 . S
C240 H241 0.950 . S
C240 C242 1.375 . S
H241 C240 0.950 . S
C242 C240 1.375 . S
C242 C244 1.382 . S
C242 H246 0.950 1_554 S
H243 C238 0.949 . S
C244 C239 1.399 . S
C244 C242 1.382 . S
C244 H245 0.959 . S
H245 C244 0.959 . S
H246 C242 0.950 1_556 S
H247 C248 0.949 . S
C248 H247 0.949 . S
C248 C249 1.395 . S
C248 C250 1.391 . S
C249 C248 1.395 . S
C249 C252 1.390 . S
C250 C248 1.391 . S
C250 C254 1.387 . S
C250 C255 1.491 . S
H251 C252 0.950 . S
C252 C249 1.390 . S
C252 H251 0.950 . S
C252 C253 1.378 . S
C253 C252 1.378 . S
C253 C254 1.409 . S
C254 C250 1.387 . S
C254 C253 1.409 . S
C254 H256 0.951 . S
C255 C250 1.491 . S
C255 C257 1.382 . S
C255 C259 1.404 . S
H256 C254 0.951 . S
C257 C255 1.382 . S
C257 C258 1.390 . S
C257 H262 0.949 . S
C258 C257 1.390 . S
C258 C263 1.399 . S
C259 C255 1.404 . S
C259 H260 0.950 . S
C259 C261 1.375 . S
H260 C259 0.950 . S
C261 C259 1.375 . S
C261 C263 1.382 . S
C261 H265 0.950 . S
H262 C257 0.949 . S
C263 C258 1.399 . S
C263 C261 1.382 . S
C263 H264 0.952 . S
H264 C263 0.952 . S
H265 C261 0.950 . S
H266 C267 0.949 . S
C267 H266 0.949 . S
C267 C268 1.395 . S
C267 C269 1.391 . S
C268 C267 1.395 . S
C268 C271 1.390 . S
C269 C267 1.391 . S
C269 C273 1.387 . S
C269 C274 1.491 . S
H270 C271 0.950 . S
C271 C268 1.390 . S
C271 H270 0.950 . S
C271 C272 1.378 . S
C272 C271 1.378 . S
C272 C273 1.409 . S
C273 C269 1.387 . S
C273 C272 1.409 . S
C273 H275 0.951 . S
C274 C269 1.491 . S
C274 C276 1.382 . S
C274 C278 1.404 . S
H275 C273 0.951 . S
C276 C274 1.382 . S
C276 C277 1.390 . S
C276 H281 0.949 . S
C277 C276 1.390 . S
C277 C282 1.399 . S
C278 C274 1.404 . S
C278 H279 0.950 . S
C278 C280 1.375 . S
H279 C278 0.950 . S
C280 C278 1.375 . S
C280 C282 1.382 . S
C280 H284 0.950 . S
H281 C276 0.949 . S
C282 C277 1.399 . S
C282 C280 1.382 . S
C282 H283 0.952 . S
H283 C282 0.952 . S
H284 C280 0.950 . S
H285 C286 0.949 . S
C286 H285 0.949 . S
C286 C287 1.395 . S
C286 C288 1.391 . S
C287 C286 1.395 . S
C287 C290 1.390 . S
C288 C286 1.391 . S
C288 C292 1.387 . S
C288 C293 1.491 . S
H289 C290 0.950 . S
C290 C287 1.390 . S
C290 H289 0.950 . S
C290 C291 1.378 . S
C291 C290 1.378 . S
C291 C292 1.409 . S
C292 C288 1.387 . S
C292 C291 1.409 . S
C292 H294 0.951 . S
C293 C288 1.491 . S
C293 C295 1.382 . S
C293 C297 1.404 . S
H294 C292 0.951 . S
C295 C293 1.382 . S
C295 C296 1.390 . S
C295 H300 0.949 . S
C296 C295 1.390 . S
C296 C301 1.399 . S
C297 C293 1.404 . S
C297 H298 0.950 . S
C297 C299 1.375 . S
H298 C297 0.950 . S
C299 C297 1.375 . S
C299 C301 1.382 . S
C299 H303 0.950 . S
H300 C295 0.949 . S
C301 C296 1.399 . S
C301 C299 1.382 . S
C301 H302 0.952 . S
H302 C301 0.952 . S
H303 C299 0.950 . S
H304 C305 0.949 . S
C305 H304 0.949 . S
C305 C306 1.395 . S
C305 C307 1.391 . S
C306 C305 1.395 . S
C306 C309 1.390 . S
C307 C305 1.391 . S
C307 C311 1.387 . S
C307 C312 1.491 . S
H308 C309 0.950 . S
C309 C306 1.390 . S
C309 H308 0.950 . S
C309 C310 1.378 . S
C310 C309 1.378 . S
C310 C311 1.409 . S
C311 C307 1.387 . S
C311 C310 1.409 . S
C311 H313 0.951 . S
C312 C307 1.491 . S
C312 C314 1.382 . S
C312 C316 1.404 . S
H313 C311 0.951 . S
C314 C312 1.382 . S
C314 C315 1.390 . S
C314 H319 0.949 . S
C315 C314 1.390 . S
C315 C320 1.399 . S
C316 C312 1.404 . S
C316 H317 0.950 . S
C316 C318 1.375 . S
H317 C316 0.950 . S
C318 C316 1.375 . S
C318 C320 1.382 . S
C318 H322 0.950 . S
H319 C314 0.949 . S
C320 C315 1.399 . S
C320 C318 1.382 . S
C320 H321 0.952 . S
H321 C320 0.952 . S
H322 C318 0.950 . S
H323 C324 0.949 . S
C324 H323 0.949 . S
C324 C325 1.395 . S
C324 C326 1.391 . S
C325 C324 1.395 . S
C325 C328 1.390 . S
C326 C324 1.391 . S
C326 C330 1.387 . S
C326 C331 1.491 . S
H327 C328 0.950 . S
C328 C325 1.390 . S
C328 H327 0.950 . S
C328 C329 1.378 . S
C329 C328 1.378 . S
C329 C330 1.409 . S
C330 C326 1.387 . S
C330 C329 1.409 . S
C330 H332 0.951 . S
C331 C326 1.491 . S
C331 C333 1.382 . S
C331 C335 1.404 . S
H332 C330 0.951 . S
C333 C331 1.382 . S
C333 C334 1.390 . S
C333 H338 0.949 . S
C334 C333 1.390 . S
C334 C339 1.399 . S
C335 C331 1.404 . S
C335 H336 0.950 . S
C335 C337 1.375 . S
H336 C335 0.950 . S
C337 C335 1.375 . S
C337 C339 1.382 . S
C337 H341 0.950 . S
H338 C333 0.949 . S
C339 C334 1.399 . S
C339 C337 1.382 . S
C339 H340 0.952 . S
H340 C339 0.952 . S
H341 C337 0.950 . S
Tb342 O345 2.453 . S
Tb342 O346 2.596 1_545 S
Tb342 O347 2.374 1_545 S
Tb342 O355 2.343 1_554 S
Tb342 O357 2.353 . S
Tb342 O359 2.427 . S
Tb342 O360 2.513 . S
C343 O347 1.251 . S
C343 O349 1.263 1_554 S
Tb344 O346 2.343 1_556 S
Tb344 O349 2.353 . S
Tb344 O352 2.427 1_556 S
Tb344 O353 2.513 1_556 S
Tb344 O354 2.453 . S
Tb344 O355 2.596 1_565 S
Tb344 O356 2.378 1_565 S
O345 Tb342 2.453 . S
O345 C361 1.245 1_545 S
O346 Tb342 2.596 1_565 S
O346 Tb344 2.343 1_554 S
O346 C361 1.259 . S
O347 Tb342 2.374 1_565 S
O347 C343 1.251 . S
C348 O352 1.275 . S
C348 O353 1.246 . S
O349 C343 1.263 1_556 S
O349 Tb344 2.353 . S
C350 O354 1.245 1_545 S
C350 O355 1.259 . S
C351 O356 1.245 1_554 S
C351 O357 1.263 . S
O352 Tb344 2.427 1_554 S
O352 C348 1.275 . S
O353 Tb344 2.513 1_554 S
O353 C348 1.246 . S
O354 Tb344 2.453 . S
O354 C350 1.245 1_565 S
O355 Tb342 2.343 1_556 S
O355 Tb344 2.596 1_545 S
O355 C350 1.259 . S
O356 Tb344 2.378 1_545 S
O356 C351 1.245 1_556 S
O357 Tb342 2.353 . S
O357 C351 1.263 . S
C358 O359 1.282 . S
C358 O360 1.248 . S
O359 Tb342 2.427 . S
O359 C358 1.282 . S
O360 Tb342 2.513 . S
O360 C358 1.248 . S
C361 O345 1.245 1_565 S
C361 O346 1.259 . S
Tb362 O365 2.453 . S
Tb362 O366 2.596 1_655 S
Tb362 O367 2.374 1_655 S
Tb362 O375 2.343 1_554 S
Tb362 O377 2.353 . S
Tb362 O379 2.427 1_554 S
Tb362 O380 2.513 1_554 S
C363 O367 1.251 . S
C363 O369 1.263 1_554 S
Tb364 O366 2.343 1_556 S
Tb364 O369 2.353 . S
Tb364 O372 2.427 1_556 S
Tb364 O373 2.513 1_556 S
Tb364 O374 2.453 . S
Tb364 O375 2.596 1_455 S
Tb364 O376 2.374 1_455 S
O365 Tb362 2.453 . S
O365 C381 1.245 1_655 S
O366 Tb362 2.596 1_455 S
O366 Tb364 2.343 1_554 S
O366 C381 1.259 . S
O367 Tb362 2.374 1_455 S
O367 C363 1.251 . S
C368 O372 1.275 . S
C368 O373 1.246 . S
O369 C363 1.263 1_556 S
O369 Tb364 2.353 . S
C370 O374 1.245 1_655 S
C370 O375 1.259 . S
C371 O376 1.250 1_554 S
C371 O377 1.263 . S
O372 Tb364 2.427 1_554 S
O372 C368 1.275 . S
O373 Tb364 2.513 1_554 S
O373 C368 1.246 . S
O374 Tb364 2.453 . S
O374 C370 1.245 1_455 S
O375 Tb362 2.343 1_556 S
O375 Tb364 2.596 1_655 S
O375 C370 1.259 . S
O376 Tb364 2.374 1_655 S
O376 C371 1.250 1_556 S
O377 Tb362 2.353 . S
O377 C371 1.263 . S
C378 O379 1.275 . S
C378 O380 1.246 . S
O379 Tb362 2.427 1_556 S
O379 C378 1.275 . S
O380 Tb362 2.513 1_556 S
O380 C378 1.246 . S
C381 O365 1.245 1_455 S
C381 O366 1.259 . S
Tb382 O385 2.453 . S
Tb382 O386 2.596 . S
Tb382 O387 2.374 1_556 S
Tb382 O395 2.343 1_556 S
Tb382 O397 2.354 1_556 S
Tb382 O399 2.427 1_556 S
Tb382 O400 2.513 1_556 S
C383 O387 1.251 . S
C383 O389 1.263 . S
Tb384 O386 2.343 1_554 S
Tb384 O389 2.353 . S
Tb384 O392 2.427 . S
Tb384 O393 2.513 . S
Tb384 O394 2.453 . S
Tb384 O395 2.596 . S
Tb384 O396 2.374 . S
O385 Tb382 2.453 . S
O385 C401 1.245 . S
O386 Tb382 2.596 . S
O386 Tb384 2.343 1_556 S
O386 C401 1.259 . S
O387 Tb382 2.374 1_554 S
O387 C383 1.251 . S
C388 O392 1.275 1_556 S
C388 O393 1.246 1_556 S
O389 C383 1.263 . S
O389 Tb384 2.353 . S
C390 O394 1.245 . S
C390 O395 1.259 . S
C391 O396 1.250 . S
C391 O397 1.270 . S
O392 Tb384 2.427 . S
O392 C388 1.275 1_554 S
O393 Tb384 2.513 . S
O393 C388 1.246 1_554 S
O394 Tb384 2.453 . S
O394 C390 1.245 . S
O395 Tb382 2.343 1_554 S
O395 Tb384 2.596 . S
O395 C390 1.259 . S
O396 Tb384 2.374 . S
O396 C391 1.250 . S
O397 Tb382 2.354 1_554 S
O397 C391 1.270 . S
C398 O399 1.275 . S
C398 O400 1.246 . S
O399 Tb382 2.427 1_554 S
O399 C398 1.275 . S
O400 Tb382 2.513 1_554 S
O400 C398 1.246 . S
C401 O385 1.245 . S
C401 O386 1.259 . S
Tb402 O405 2.453 . S
Tb402 O406 2.596 . S
Tb402 O407 2.374 . S
Tb402 O415 2.343 . S
Tb402 O417 2.353 . S
Tb402 O419 2.427 . S
Tb402 O420 2.513 . S
C403 O407 1.251 . S
C403 O409 1.263 . S
Tb404 O406 2.343 . S
Tb404 O409 2.353 . S
Tb404 O412 2.427 . S
Tb404 O413 2.513 . S
Tb404 O414 2.453 . S
Tb404 O415 2.596 . S
Tb404 O416 2.374 . S
O405 Tb402 2.453 . S
O405 C421 1.245 . S
O406 Tb402 2.596 . S
O406 Tb404 2.343 . S
O406 C421 1.259 . S
O407 Tb402 2.374 . S
O407 C403 1.251 . S
C408 O412 1.275 . S
C408 O413 1.246 . S
O409 C403 1.263 . S
O409 Tb404 2.353 . S
C410 O414 1.245 . S
C410 O415 1.259 . S
C411 O416 1.250 . S
C411 O417 1.263 . S
O412 Tb404 2.427 . S
O412 C408 1.275 . S
O413 Tb404 2.513 . S
O413 C408 1.246 . S
O414 Tb404 2.453 . S
O414 C410 1.245 . S
O415 Tb402 2.343 . S
O415 Tb404 2.596 . S
O415 C410 1.259 . S
O416 Tb404 2.374 . S
O416 C411 1.250 . S
O417 Tb402 2.353 . S
O417 C411 1.263 . S
C418 O419 1.275 . S
C418 O420 1.246 . S
O419 Tb402 2.427 . S
O419 C418 1.275 . S
O420 Tb402 2.513 . S
O420 C418 1.246 . S
C421 O405 1.245 . S
C421 O406 1.259 . S
Tb422 O425 2.453 . S
Tb422 O426 2.596 . S
Tb422 O427 2.374 . S
Tb422 O435 2.343 . S
Tb422 O437 2.353 . S
Tb422 O439 2.427 . S
Tb422 O440 2.513 . S
C423 O427 1.251 . S
C423 O429 1.263 . S
Tb424 O426 2.343 . S
Tb424 O429 2.353 . S
Tb424 O432 2.427 . S
Tb424 O433 2.513 . S
Tb424 O434 2.453 . S
Tb424 O435 2.596 . S
Tb424 O436 2.374 . S
O425 Tb422 2.453 . S
O425 C441 1.245 . S
O426 Tb422 2.596 . S
O426 Tb424 2.343 . S
O426 C441 1.259 . S
O427 Tb422 2.374 . S
O427 C423 1.251 . S
C428 O432 1.275 . S
C428 O433 1.246 . S
O429 C423 1.263 . S
O429 Tb424 2.353 . S
C430 O434 1.245 . S
C430 O435 1.259 . S
C431 O436 1.250 . S
C431 O437 1.263 . S
O432 Tb424 2.427 . S
O432 C428 1.275 . S
O433 Tb424 2.513 . S
O433 C428 1.246 . S
O434 Tb424 2.453 . S
O434 C430 1.245 . S
O435 Tb422 2.343 . S
O435 Tb424 2.596 . S
O435 C430 1.259 . S
O436 Tb424 2.374 . S
O436 C431 1.250 . S
O437 Tb422 2.353 . S
O437 C431 1.263 . S
C438 O439 1.275 . S
C438 O440 1.246 . S
O439 Tb422 2.427 . S
O439 C438 1.275 . S
O440 Tb422 2.513 . S
O440 C438 1.246 . S
C441 O425 1.245 . S
C441 O426 1.259 . S
Tb442 O445 2.453 . S
Tb442 O446 2.596 . S
Tb442 O447 2.374 . S
Tb442 O455 2.343 . S
Tb442 O457 2.353 . S
Tb442 O459 2.427 . S
Tb442 O460 2.513 . S
C443 O447 1.251 . S
C443 O449 1.263 . S
Tb444 O446 2.343 . S
Tb444 O449 2.353 . S
Tb444 O452 2.427 . S
Tb444 O453 2.513 . S
Tb444 O454 2.453 . S
Tb444 O455 2.596 . S
Tb444 O456 2.374 . S
O445 Tb442 2.453 . S
O445 C461 1.245 . S
O446 Tb442 2.596 . S
O446 Tb444 2.343 . S
O446 C461 1.259 . S
O447 Tb442 2.374 . S
O447 C443 1.251 . S
C448 O452 1.275 . S
C448 O453 1.246 . S
O449 C443 1.263 . S
O449 Tb444 2.353 . S
C450 O454 1.245 . S
C450 O455 1.259 . S
C451 O456 1.250 . S
C451 O457 1.263 . S
O452 Tb444 2.427 . S
O452 C448 1.275 . S
O453 Tb444 2.513 . S
O453 C448 1.246 . S
O454 Tb444 2.453 . S
O454 C450 1.245 . S
O455 Tb442 2.343 . S
O455 Tb444 2.596 . S
O455 C450 1.259 . S
O456 Tb444 2.374 . S
O456 C451 1.250 . S
O457 Tb442 2.353 . S
O457 C451 1.263 . S
C458 O459 1.275 . S
C458 O460 1.246 . S
O459 Tb442 2.427 . S
O459 C458 1.275 . S
O460 Tb442 2.513 . S
O460 C458 1.246 . S
C461 O445 1.245 . S
C461 O446 1.259 . S
Tb462 O465 2.453 . S
Tb462 O466 2.596 . S
Tb462 O467 2.374 . S
Tb462 O475 2.343 . S
Tb462 O477 2.353 . S
Tb462 O479 2.427 . S
Tb462 O480 2.513 . S
C463 O467 1.251 . S
C463 O469 1.263 . S
Tb464 O466 2.343 . S
Tb464 O469 2.353 . S
Tb464 O472 2.427 . S
Tb464 O473 2.513 . S
Tb464 O474 2.453 . S
Tb464 O475 2.596 . S
Tb464 O476 2.374 . S
O465 Tb462 2.453 . S
O465 C481 1.245 . S
O466 Tb462 2.596 . S
O466 Tb464 2.343 . S
O466 C481 1.259 . S
O467 Tb462 2.374 . S
O467 C463 1.251 . S
C468 O472 1.275 . S
C468 O473 1.246 . S
O469 C463 1.263 . S
O469 Tb464 2.353 . S
C470 O474 1.245 . S
C470 O475 1.259 . S
C471 O476 1.250 . S
C471 O477 1.263 . S
O472 Tb464 2.427 . S
O472 C468 1.275 . S
O473 Tb464 2.513 . S
O473 C468 1.246 . S
O474 Tb464 2.453 . S
O474 C470 1.245 . S
O475 Tb462 2.343 . S
O475 Tb464 2.596 . S
O475 C470 1.259 . S
O476 Tb464 2.374 . S
O476 C471 1.250 . S
O477 Tb462 2.353 . S
O477 C471 1.263 . S
C478 O479 1.275 . S
C478 O480 1.246 . S
O479 Tb462 2.427 . S
O479 C478 1.275 . S
O480 Tb462 2.513 . S
O480 C478 1.246 . S
C481 O465 1.245 . S
C481 O466 1.259 . S
Tb482 O485 2.453 . S
Tb482 O486 2.596 . S
Tb482 O487 2.374 . S
Tb482 O495 2.343 . S
Tb482 O497 2.353 . S
Tb482 O499 2.427 . S
Tb482 O500 2.513 . S
C483 O487 1.251 . S
C483 O489 1.263 . S
Tb484 O486 2.343 . S
Tb484 O489 2.353 . S
Tb484 O492 2.427 . S
Tb484 O493 2.513 . S
Tb484 O494 2.453 . S
Tb484 O495 2.596 . S
Tb484 O496 2.374 . S
O485 Tb482 2.453 . S
O485 C501 1.245 . S
O486 Tb482 2.596 . S
O486 Tb484 2.343 . S
O486 C501 1.259 . S
O487 Tb482 2.374 . S
O487 C483 1.251 . S
C488 O492 1.275 . S
C488 O493 1.246 . S
O489 C483 1.263 . S
O489 Tb484 2.353 . S
C490 O494 1.245 . S
C490 O495 1.259 . S
C491 O496 1.250 . S
C491 O497 1.263 . S
O492 Tb484 2.427 . S
O492 C488 1.275 . S
O493 Tb484 2.513 . S
O493 C488 1.246 . S
O494 Tb484 2.453 . S
O494 C490 1.245 . S
O495 Tb482 2.343 . S
O495 Tb484 2.596 . S
O495 C490 1.259 . S
O496 Tb484 2.374 . S
O496 C491 1.250 . S
O497 Tb482 2.353 . S
O497 C491 1.263 . S
C498 O499 1.275 . S
C498 O500 1.246 . S
O499 Tb482 2.427 . S
O499 C498 1.275 . S
O500 Tb482 2.513 . S
O500 C498 1.246 . S
C501 O485 1.245 . S
C501 O486 1.259 . S
Tb502 O505 2.453 . S
Tb502 O506 2.596 . S
Tb502 O507 2.374 . S
Tb502 O515 2.343 . S
Tb502 O517 2.353 . S
Tb502 O519 2.427 . S
Tb502 O520 2.513 . S
C503 O507 1.251 . S
C503 O509 1.263 . S
Tb504 O506 2.343 . S
Tb504 O509 2.353 . S
Tb504 O512 2.427 . S
Tb504 O513 2.513 . S
Tb504 O514 2.453 . S
Tb504 O515 2.596 . S
Tb504 O516 2.374 . S
O505 Tb502 2.453 . S
O505 C521 1.245 . S
O506 Tb502 2.596 . S
O506 Tb504 2.343 . S
O506 C521 1.259 . S
O507 Tb502 2.374 . S
O507 C503 1.251 . S
C508 O512 1.275 . S
C508 O513 1.246 . S
O509 C503 1.263 . S
O509 Tb504 2.353 . S
C510 O514 1.245 . S
C510 O515 1.259 . S
C511 O516 1.250 . S
C511 O517 1.263 . S
O512 Tb504 2.427 . S
O512 C508 1.275 . S
O513 Tb504 2.513 . S
O513 C508 1.246 . S
O514 Tb504 2.453 . S
O514 C510 1.245 . S
O515 Tb502 2.343 . S
O515 Tb504 2.596 . S
O515 C510 1.259 . S
O516 Tb504 2.374 . S
O516 C511 1.250 . S
O517 Tb502 2.353 . S
O517 C511 1.263 . S
C518 O519 1.275 . S
C518 O520 1.246 . S
O519 Tb502 2.427 . S
O519 C518 1.275 . S
O520 Tb502 2.513 . S
O520 C518 1.246 . S
C521 O505 1.245 . S
C521 O506 1.259 . S
H522 C528 0.930 . S
H523 C531 0.930 . S
H524 C532 0.930 . S
H525 C533 0.930 . S
H526 C536 0.930 . S
H527 C537 0.930 . S
C528 H522 0.930 . S
C528 C529 1.355 . S
C528 C530 1.415 . S
C529 C528 1.355 . S
C529 C531 1.419 . S
C530 C528 1.415 . S
C530 C535 1.425 . S
C530 C537 1.409 . S
C531 H523 0.930 . S
C531 C529 1.419 . S
C531 C532 1.362 . S
C532 H524 0.930 . S
C532 C531 1.362 . S
C532 C535 1.409 . S
C533 H525 0.930 . S
C533 C534 1.355 . S
C533 C535 1.415 . S
C534 C533 1.355 . S
C534 C536 1.419 . S
C535 C530 1.425 . S
C535 C532 1.409 . S
C535 C533 1.415 . S
C536 H526 0.930 . S
C536 C534 1.419 . S
C536 C537 1.362 . S
C537 H527 0.930 . S
C537 C530 1.409 . S
C537 C536 1.362 . S
H538 C544 0.930 . S
H539 C547 0.930 . S
H540 C548 0.930 . S
H541 C549 0.930 . S
H542 C552 0.930 . S
H543 C553 0.930 . S
C544 H538 0.930 . S
C544 C545 1.355 . S
C544 C546 1.415 . S
C545 C544 1.355 . S
C545 C547 1.419 . S
C546 C544 1.415 . S
C546 C551 1.425 . S
C546 C553 1.409 . S
C547 H539 0.930 . S
C547 C545 1.419 . S
C547 C548 1.362 . S
C548 H540 0.930 . S
C548 C547 1.362 . S
C548 C551 1.409 . S
C549 H541 0.930 . S
C549 C550 1.355 . S
C549 C551 1.415 . S
C550 C549 1.355 . S
C550 C552 1.419 . S
C551 C546 1.425 . S
C551 C548 1.409 . S
C551 C549 1.415 . S
C552 H542 0.930 . S
C552 C550 1.419 . S
C552 C553 1.362 . S
C553 H543 0.930 . S
C553 C546 1.409 . S
C553 C552 1.362 . S
H554 C560 0.930 . S
H555 C563 0.930 . S
H556 C564 0.930 . S
H557 C565 0.930 . S
H558 C568 0.930 . S
H559 C569 0.930 . S
C560 H554 0.930 . S
C560 C561 1.355 . S
C560 C562 1.415 . S
C561 C560 1.355 . S
C561 C563 1.419 . S
C562 C560 1.415 . S
C562 C567 1.425 . S
C562 C569 1.409 . S
C563 H555 0.930 . S
C563 C561 1.419 . S
C563 C564 1.362 . S
C564 H556 0.930 . S
C564 C563 1.362 . S
C564 C567 1.409 . S
C565 H557 0.930 . S
C565 C566 1.355 . S
C565 C567 1.415 . S
C566 C565 1.355 . S
C566 C568 1.419 . S
C567 C562 1.425 . S
C567 C564 1.409 . S
C567 C565 1.415 . S
C568 H558 0.930 . S
C568 C566 1.419 . S
C568 C569 1.362 . S
C569 H559 0.930 . S
C569 C562 1.409 . S
C569 C568 1.362 . S
H570 C576 0.930 . S
H571 C579 0.930 . S
H572 C580 0.930 . S
H573 C581 0.930 . S
H574 C584 0.930 1_554 S
H575 C585 0.930 . S
C576 H570 0.930 . S
C576 C577 1.355 . S
C576 C578 1.415 . S
C577 C576 1.355 . S
C577 C579 1.419 . S
C578 C576 1.415 . S
C578 C583 1.425 . S
C578 C585 1.409 . S
C579 H571 0.930 . S
C579 C577 1.419 . S
C579 C580 1.362 . S
C580 H572 0.930 . S
C580 C579 1.362 . S
C580 C583 1.409 . S
C581 H573 0.930 . S
C581 C582 1.355 . S
C581 C583 1.415 . S
C582 C581 1.355 . S
C582 C584 1.419 . S
C583 C578 1.425 . S
C583 C580 1.409 . S
C583 C581 1.415 . S
C584 H574 0.930 1_556 S
C584 C582 1.419 . S
C584 C585 1.362 . S
C585 H575 0.930 . S
C585 C578 1.409 . S
C585 C584 1.362 . S
H586 C592 0.930 . S
H587 C595 0.930 . S
H588 C596 0.930 . S
H589 C597 0.930 . S
H590 C600 0.930 . S
H591 C601 0.930 . S
C592 H586 0.930 . S
C592 C593 1.355 . S
C592 C594 1.415 . S
C593 C592 1.355 . S
C593 C595 1.419 . S
C594 C592 1.415 . S
C594 C599 1.425 . S
C594 C601 1.409 . S
C595 H587 0.930 . S
C595 C593 1.419 . S
C595 C596 1.362 . S
C596 H588 0.930 . S
C596 C595 1.362 . S
C596 C599 1.409 . S
C597 H589 0.930 . S
C597 C598 1.355 . S
C597 C599 1.415 . S
C598 C597 1.355 . S
C598 C600 1.419 . S
C599 C594 1.425 . S
C599 C596 1.409 . S
C599 C597 1.415 . S
C600 H590 0.930 . S
C600 C598 1.419 . S
C600 C601 1.362 . S
C601 H591 0.930 . S
C601 C594 1.409 . S
C601 C600 1.362 . S
H602 C608 0.930 . S
H603 C611 0.930 . S
H604 C612 0.930 . S
H605 C613 0.930 . S
H606 C616 0.930 . S
H607 C617 0.930 . S
C608 H602 0.930 . S
C608 C609 1.355 . S
C608 C610 1.415 . S
C609 C608 1.355 . S
C609 C611 1.419 . S
C610 C608 1.415 . S
C610 C615 1.425 . S
C610 C617 1.409 . S
C611 H603 0.930 . S
C611 C609 1.419 . S
C611 C612 1.362 . S
C612 H604 0.930 . S
C612 C611 1.362 . S
C612 C615 1.409 . S
C613 H605 0.930 . S
C613 C614 1.355 . S
C613 C615 1.415 1_554 S
C614 C613 1.355 . S
C614 C616 1.419 1_554 S
C615 C610 1.425 . S
C615 C612 1.409 . S
C615 C613 1.415 1_556 S
C616 H606 0.930 . S
C616 C614 1.419 1_556 S
C616 C617 1.362 . S
C617 H607 0.930 . S
C617 C610 1.409 . S
C617 C616 1.362 . S
H618 C624 0.930 . S
H619 C627 0.930 . S
H620 C628 0.930 . S
H621 C629 0.930 . S
H622 C632 0.930 . S
H623 C633 0.930 . S
C624 H618 0.930 . S
C624 C625 1.355 . S
C624 C626 1.415 . S
C625 C624 1.355 . S
C625 C627 1.419 . S
C626 C624 1.415 . S
C626 C631 1.425 . S
C626 C633 1.409 . S
C627 H619 0.930 . S
C627 C625 1.419 . S
C627 C628 1.362 . S
C628 H620 0.930 . S
C628 C627 1.362 . S
C628 C631 1.409 . S
C629 H621 0.930 . S
C629 C630 1.355 . S
C629 C631 1.415 . S
C630 C629 1.355 . S
C630 C632 1.419 . S
C631 C626 1.425 . S
C631 C628 1.409 . S
C631 C629 1.415 . S
C632 H622 0.930 . S
C632 C630 1.419 . S
C632 C633 1.362 . S
C633 H623 0.930 . S
C633 C626 1.409 . S
C633 C632 1.362 . S
H634 C640 0.930 . S
H635 C643 0.930 . S
H636 C644 0.930 . S
H637 C645 0.930 . S
H638 C648 0.930 . S
H639 C649 0.930 . S
C640 H634 0.930 . S
C640 C641 1.355 . S
C640 C642 1.415 . S
C641 C640 1.355 . S
C641 C643 1.419 . S
C642 C640 1.415 . S
C642 C647 1.425 . S
C642 C649 1.409 . S
C643 H635 0.930 . S
C643 C641 1.419 . S
C643 C644 1.362 . S
C644 H636 0.930 . S
C644 C643 1.362 . S
C644 C647 1.409 . S
C645 H637 0.930 . S
C645 C646 1.355 . S
C645 C647 1.415 . S
C646 C645 1.355 . S
C646 C648 1.419 . S
C647 C642 1.425 . S
C647 C644 1.409 . S
C647 C645 1.415 . S
C648 H638 0.930 . S
C648 C646 1.419 . S
C648 C649 1.362 . S
C649 H639 0.930 . S
C649 C642 1.409 . S
C649 C648 1.362 . S
H650 C656 0.930 . S
H651 C659 0.930 . S
H652 C660 0.930 . S
H653 C661 0.930 . S
H654 C664 0.930 . S
H655 C665 0.930 . S
C656 H650 0.930 . S
C656 C657 1.355 1_556 S
C656 C658 1.415 . S
C657 C656 1.355 1_554 S
C657 C659 1.419 . S
C658 C656 1.415 . S
C658 C663 1.425 1_556 S
C658 C665 1.409 . S
C659 H651 0.930 . S
C659 C657 1.419 . S
C659 C660 1.362 . S
C660 H652 0.930 . S
C660 C659 1.362 . S
C660 C663 1.409 . S
C661 H653 0.930 . S
C661 C662 1.355 . S
C661 C663 1.415 . S
C662 C661 1.355 . S
C662 C664 1.419 1_554 S
C663 C658 1.425 1_554 S
C663 C660 1.409 . S
C663 C661 1.415 . S
C664 H654 0.930 . S
C664 C662 1.419 1_556 S
C664 C665 1.362 . S
C665 H655 0.930 . S
C665 C658 1.409 . S
C665 C664 1.362 . S
H666 C672 0.930 . S
H667 C675 0.930 . S
H668 C676 0.930 . S
H669 C677 0.930 . S
H670 C680 0.930 . S
H671 C681 0.930 . S
C672 H666 0.930 . S
C672 C673 1.355 . S
C672 C674 1.415 . S
C673 C672 1.355 . S
C673 C675 1.419 . S
C674 C672 1.415 . S
C674 C679 1.425 . S
C674 C681 1.409 . S
C675 H667 0.930 . S
C675 C673 1.419 . S
C675 C676 1.362 . S
C676 H668 0.930 . S
C676 C675 1.362 . S
C676 C679 1.409 . S
C677 H669 0.930 . S
C677 C678 1.355 . S
C677 C679 1.415 . S
C678 C677 1.355 . S
C678 C680 1.419 . S
C679 C674 1.425 . S
C679 C676 1.409 . S
C679 C677 1.415 . S
C680 H670 0.930 . S
C680 C678 1.419 . S
C680 C681 1.362 . S
C681 H671 0.930 . S
C681 C674 1.409 . S
C681 C680 1.362 . S
H682 C688 0.930 . S
H683 C691 0.930 . S
H684 C692 0.930 . S
H685 C693 0.930 . S
H686 C696 0.930 1_556 S
H687 C697 0.930 1_556 S
C688 H682 0.930 . S
C688 C689 1.355 . S
C688 C690 1.415 . S
C689 C688 1.355 . S
C689 C691 1.419 . S
C690 C688 1.415 . S
C690 C695 1.425 . S
C690 C697 1.409 . S
C691 H683 0.930 . S
C691 C689 1.419 . S
C691 C692 1.362 . S
C692 H684 0.930 . S
C692 C691 1.362 . S
C692 C695 1.409 . S
C693 H685 0.930 . S
C693 C694 1.355 . S
C693 C695 1.415 . S
C694 C693 1.355 . S
C694 C696 1.419 . S
C695 C690 1.425 . S
C695 C692 1.409 . S
C695 C693 1.415 . S
C696 H686 0.930 1_554 S
C696 C694 1.419 . S
C696 C697 1.362 . S
C697 H687 0.930 1_554 S
C697 C690 1.409 . S
C697 C696 1.362 . S
H698 C704 0.930 . S
H699 C707 0.930 . S
H700 C708 0.930 . S
H701 C709 0.930 . S
H702 C712 0.930 . S
H703 C713 0.930 . S
C704 H698 0.930 . S
C704 C705 1.355 . S
C704 C706 1.415 . S
C705 C704 1.355 . S
C705 C707 1.419 . S
C706 C704 1.415 . S
C706 C711 1.425 . S
C706 C713 1.409 . S
C707 H699 0.930 . S
C707 C705 1.419 . S
C707 C708 1.362 . S
C708 H700 0.930 . S
C708 C707 1.362 . S
C708 C711 1.409 . S
C709 H701 0.930 . S
C709 C710 1.355 . S
C709 C711 1.415 . S
C710 C709 1.355 . S
C710 C712 1.419 . S
C711 C706 1.425 . S
C711 C708 1.409 . S
C711 C709 1.415 . S
C712 H702 0.930 . S
C712 C710 1.419 . S
C712 C713 1.362 . S
C713 H703 0.930 . S
C713 C706 1.409 . S
C713 C712 1.362 . S
H714 C720 0.930 . S
H715 C723 0.930 . S
H716 C724 0.930 . S
H717 C725 0.930 . S
H718 C728 0.930 . S
H719 C729 0.930 . S
C720 H714 0.930 . S
C720 C721 1.355 . S
C720 C722 1.415 . S
C721 C720 1.355 . S
C721 C723 1.419 . S
C722 C720 1.415 . S
C722 C727 1.425 . S
C722 C729 1.409 . S
C723 H715 0.930 . S
C723 C721 1.419 . S
C723 C724 1.362 . S
C724 H716 0.930 . S
C724 C723 1.362 . S
C724 C727 1.409 . S
C725 H717 0.930 . S
C725 C726 1.355 . S
C725 C727 1.415 1_455 S
C726 C725 1.355 . S
C726 C728 1.419 . S
C727 C722 1.425 . S
C727 C724 1.409 . S
C727 C725 1.415 1_655 S
C728 H718 0.930 . S
C728 C726 1.419 . S
C728 C729 1.362 1_455 S
C729 H719 0.930 . S
C729 C722 1.409 . S
C729 C728 1.362 1_655 S
H730 C736 0.930 . S
H731 C739 0.930 . S
H732 C740 0.930 . S
H733 C741 0.930 . S
H734 C744 0.930 . S
H735 C745 0.930 . S
C736 H730 0.930 . S
C736 C737 1.355 . S
C736 C738 1.415 . S
C737 C736 1.355 . S
C737 C739 1.419 . S
C738 C736 1.415 . S
C738 C743 1.425 . S
C738 C745 1.409 . S
C739 H731 0.930 . S
C739 C737 1.419 . S
C739 C740 1.362 . S
C740 H732 0.930 . S
C740 C739 1.362 . S
C740 C743 1.409 . S
C741 H733 0.930 . S
C741 C742 1.355 . S
C741 C743 1.415 . S
C742 C741 1.355 . S
C742 C744 1.419 . S
C743 C738 1.425 . S
C743 C740 1.409 . S
C743 C741 1.415 . S
C744 H734 0.930 . S
C744 C742 1.419 . S
C744 C745 1.362 . S
C745 H735 0.930 . S
C745 C738 1.409 . S
C745 C744 1.362 . S
H746 C752 0.930 . S
H747 C755 0.930 . S
H748 C756 0.930 1_565 S
H749 C757 0.930 . S
H750 C760 0.930 . S
H751 C761 0.930 . S
C752 H746 0.930 . S
C752 C753 1.355 . S
C752 C754 1.415 . S
C753 C752 1.355 . S
C753 C755 1.419 . S
C754 C752 1.415 . S
C754 C759 1.425 1_545 S
C754 C761 1.409 . S
C755 H747 0.930 . S
C755 C753 1.419 . S
C755 C756 1.362 . S
C756 H748 0.930 1_545 S
C756 C755 1.362 . S
C756 C759 1.409 1_545 S
C757 H749 0.930 . S
C757 C758 1.355 . S
C757 C759 1.415 . S
C758 C757 1.355 . S
C758 C760 1.419 . S
C759 C754 1.425 1_565 S
C759 C756 1.409 1_565 S
C759 C757 1.415 . S
C760 H750 0.930 . S
C760 C758 1.419 . S
C760 C761 1.362 1_565 S
C761 H751 0.930 . S
C761 C754 1.409 . S
C761 C760 1.362 1_545 S
H762 C768 0.930 . S
H763 C771 0.930 . S
H764 C772 0.930 . S
H765 C773 0.930 . S
H766 C776 0.930 . S
H767 C777 0.930 . S
C768 H762 0.930 . S
C768 C769 1.355 . S
C768 C770 1.415 . S
C769 C768 1.355 . S
C769 C771 1.419 . S
C770 C768 1.415 . S
C770 C775 1.425 . S
C770 C777 1.409 . S
C771 H763 0.930 . S
C771 C769 1.419 . S
C771 C772 1.362 . S
C772 H764 0.930 . S
C772 C771 1.362 . S
C772 C775 1.409 . S
C773 H765 0.930 . S
C773 C774 1.355 . S
C773 C775 1.415 . S
C774 C773 1.355 . S
C774 C776 1.419 . S
C775 C770 1.425 . S
C775 C772 1.409 . S
C775 C773 1.415 . S
C776 H766 0.930 . S
C776 C774 1.419 . S
C776 C777 1.362 . S
C777 H767 0.930 . S
C777 C770 1.409 . S
C777 C776 1.362 . S
H778 C784 0.930 . S
H779 C787 0.930 . S
H780 C788 0.930 . S
H781 C789 0.930 . S
H782 C792 0.930 . S
H783 C793 0.930 . S
C784 H778 0.930 . S
C784 C785 1.355 . S
C784 C786 1.415 . S
C785 C784 1.355 . S
C785 C787 1.419 . S
C786 C784 1.415 . S
C786 C791 1.425 . S
C786 C793 1.409 . S
C787 H779 0.930 . S
C787 C785 1.419 . S
C787 C788 1.362 . S
C788 H780 0.930 . S
C788 C787 1.362 . S
C788 C791 1.409 . S
C789 H781 0.930 . S
C789 C790 1.355 . S
C789 C791 1.415 . S
C790 C789 1.355 . S
C790 C792 1.419 . S
C791 C786 1.425 . S
C791 C788 1.409 . S
C791 C789 1.415 . S
C792 H782 0.930 . S
C792 C790 1.419 . S
C792 C793 1.362 . S
C793 H783 0.930 . S
C793 C786 1.409 . S
C793 C792 1.362 . S
H794 C800 0.930 . S
H795 C803 0.930 . S
H796 C804 0.930 . S
H797 C805 0.930 . S
H798 C808 0.930 . S
H799 C809 0.930 . S
C800 H794 0.930 . S
C800 C801 1.355 . S
C800 C802 1.415 . S
C801 C800 1.355 . S
C801 C803 1.419 . S
C802 C800 1.415 . S
C802 C807 1.425 . S
C802 C809 1.409 . S
C803 H795 0.930 . S
C803 C801 1.419 . S
C803 C804 1.362 . S
C804 H796 0.930 . S
C804 C803 1.362 . S
C804 C807 1.409 . S
C805 H797 0.930 . S
C805 C806 1.355 . S
C805 C807 1.415 . S
C806 C805 1.355 . S
C806 C808 1.419 . S
C807 C802 1.425 . S
C807 C804 1.409 . S
C807 C805 1.415 . S
C808 H798 0.930 . S
C808 C806 1.419 . S
C808 C809 1.362 . S
C809 H799 0.930 . S
C809 C802 1.409 . S
C809 C808 1.362 . S
H810 C816 0.930 . S
H811 C819 0.930 . S
H812 C820 0.930 . S
H813 C821 0.930 . S
H814 C824 0.930 . S
H815 C825 0.930 . S
C816 H810 0.930 . S
C816 C817 1.355 . S
C816 C818 1.415 . S
C817 C816 1.355 . S
C817 C819 1.419 . S
C818 C816 1.415 . S
C818 C823 1.425 . S
C818 C825 1.409 . S
C819 H811 0.930 . S
C819 C817 1.419 . S
C819 C820 1.362 . S
C820 H812 0.930 . S
C820 C819 1.362 . S
C820 C823 1.409 . S
C821 H813 0.930 . S
C821 C822 1.355 . S
C821 C823 1.415 . S
C822 C821 1.355 . S
C822 C824 1.419 . S
C823 C818 1.425 . S
C823 C820 1.409 . S
C823 C821 1.415 . S
C824 H814 0.930 . S
C824 C822 1.419 . S
C824 C825 1.362 . S
C825 H815 0.930 . S
C825 C818 1.409 . S
C825 C824 1.362 . S
H826 C832 0.930 . S
H827 C835 0.930 . S
H828 C836 0.930 . S
H829 C837 0.930 . S
H830 C840 0.930 . S
H831 C841 0.930 . S
C832 H826 0.930 . S
C832 C833 1.355 . S
C832 C834 1.415 . S
C833 C832 1.355 . S
C833 C835 1.419 . S
C834 C832 1.415 . S
C834 C839 1.425 . S
C834 C841 1.409 . S
C835 H827 0.930 . S
C835 C833 1.419 . S
C835 C836 1.362 . S
C836 H828 0.930 . S
C836 C835 1.362 . S
C836 C839 1.409 . S
C837 H829 0.930 . S
C837 C838 1.355 . S
C837 C839 1.415 . S
C838 C837 1.355 . S
C838 C840 1.419 . S
C839 C834 1.425 . S
C839 C836 1.409 . S
C839 C837 1.415 . S
C840 H830 0.930 . S
C840 C838 1.419 . S
C840 C841 1.362 . S
C841 H831 0.930 . S
C841 C834 1.409 . S
C841 C840 1.362 . S
H842 C848 0.930 . S
H843 C851 0.930 . S
H844 C852 0.930 . S
H845 C853 0.930 . S
H846 C856 0.930 . S
H847 C857 0.930 . S
C848 H842 0.930 . S
C848 C849 1.355 . S
C848 C850 1.415 . S
C849 C848 1.355 . S
C849 C851 1.419 . S
C850 C848 1.415 . S
C850 C855 1.425 . S
C850 C857 1.409 . S
C851 H843 0.930 . S
C851 C849 1.419 . S
C851 C852 1.362 . S
C852 H844 0.930 . S
C852 C851 1.362 . S
C852 C855 1.409 . S
C853 H845 0.930 . S
C853 C854 1.355 . S
C853 C855 1.415 . S
C854 C853 1.355 . S
C854 C856 1.419 . S
C855 C850 1.425 . S
C855 C852 1.409 . S
C855 C853 1.415 . S
C856 H846 0.930 . S
C856 C854 1.419 . S
C856 C857 1.362 . S
C857 H847 0.930 . S
C857 C850 1.409 . S
C857 C856 1.362 . S
H858 C864 0.930 . S
H859 C867 0.930 . S
H860 C868 0.930 . S
H861 C869 0.930 . S
H862 C872 0.930 . S
H863 C873 0.930 . S
C864 H858 0.930 . S
C864 C865 1.355 . S
C864 C866 1.415 . S
C865 C864 1.355 . S
C865 C867 1.419 . S
C866 C864 1.415 . S
C866 C871 1.425 . S
C866 C873 1.409 . S
C867 H859 0.930 . S
C867 C865 1.419 . S
C867 C868 1.362 . S
C868 H860 0.930 . S
C868 C867 1.362 . S
C868 C871 1.409 . S
C869 H861 0.930 . S
C869 C870 1.355 . S
C869 C871 1.415 . S
C870 C869 1.355 . S
C870 C872 1.419 . S
C871 C866 1.425 . S
C871 C868 1.409 . S
C871 C869 1.415 . S
C872 H862 0.930 . S
C872 C870 1.419 . S
C872 C873 1.362 . S
C873 H863 0.930 . S
C873 C866 1.409 . S
C873 C872 1.362 . S
H874 C880 0.930 . S
H875 C883 0.930 1_655 S
H876 C884 0.930 . S
H877 C885 0.930 . S
H878 C888 0.930 . S
H879 C889 0.930 . S
C880 H874 0.930 . S
C880 C881 1.346 1_455 S
C880 C882 1.415 . S
C881 C880 1.346 1_655 S
C881 C883 1.401 1_655 S
C882 C880 1.415 . S
C882 C887 1.425 . S
C882 C889 1.409 . S
C883 H875 0.930 1_455 S
C883 C881 1.401 1_455 S
C883 C884 1.362 . S
C884 H876 0.930 . S
C884 C883 1.362 . S
C884 C887 1.409 . S
C885 H877 0.930 . S
C885 C886 1.355 . S
C885 C887 1.415 . S
C886 C885 1.355 . S
C886 C888 1.419 . S
C887 C882 1.425 . S
C887 C884 1.409 . S
C887 C885 1.415 . S
C888 H878 0.930 . S
C888 C886 1.419 . S
C888 C889 1.362 . S
C889 H879 0.930 . S
C889 C882 1.409 . S
C889 C888 1.362 . S
H890 C896 0.930 . S
H891 C899 0.930 . S
H892 C900 0.930 . S
H893 C901 0.930 . S
H894 C904 0.930 . S
H895 C905 0.930 . S
C896 H890 0.930 . S
C896 C897 1.355 . S
C896 C898 1.415 . S
C897 C896 1.355 . S
C897 C899 1.419 . S
C898 C896 1.415 . S
C898 C903 1.425 . S
C898 C905 1.409 . S
C899 H891 0.930 . S
C899 C897 1.419 . S
C899 C900 1.362 . S
C900 H892 0.930 . S
C900 C899 1.362 . S
C900 C903 1.409 . S
C901 H893 0.930 . S
C901 C902 1.355 . S
C901 C903 1.415 . S
C902 C901 1.355 . S
C902 C904 1.419 . S
C903 C898 1.425 . S
C903 C900 1.409 . S
C903 C901 1.415 . S
C904 H894 0.930 . S
C904 C902 1.419 . S
C904 C905 1.362 . S
C905 H895 0.930 . S
C905 C898 1.409 . S
C905 C904 1.362 . S
H906 C912 0.930 . S
H907 C915 0.930 . S
H908 C916 0.930 . S
H909 C917 0.930 . S
H910 C920 0.930 . S
H911 C921 0.930 . S
C912 H906 0.930 . S
C912 C913 1.355 . S
C912 C914 1.415 . S
C913 C912 1.355 . S
C913 C915 1.419 . S
C914 C912 1.415 . S
C914 C919 1.425 . S
C914 C921 1.409 . S
C915 H907 0.930 . S
C915 C913 1.419 . S
C915 C916 1.362 . S
C916 H908 0.930 . S
C916 C915 1.362 . S
C916 C919 1.409 . S
C917 H909 0.930 . S
C917 C918 1.355 . S
C917 C919 1.415 . S
C918 C917 1.355 . S
C918 C920 1.419 . S
C919 C914 1.425 . S
C919 C916 1.409 . S
C919 C917 1.415 . S
C920 H910 0.930 . S
C920 C918 1.419 . S
C920 C921 1.362 . S
C921 H911 0.930 . S
C921 C914 1.409 . S
C921 C920 1.362 . S
H922 C928 0.930 . S
H923 C931 0.930 . S
H924 C932 0.930 . S
H925 C933 0.930 . S
H926 C936 0.930 . S
H927 C937 0.930 . S
C928 H922 0.930 . S
C928 C929 1.355 . S
C928 C930 1.415 . S
C929 C928 1.355 . S
C929 C931 1.419 . S
C930 C928 1.415 . S
C930 C935 1.425 . S
C930 C937 1.409 . S
C931 H923 0.930 . S
C931 C929 1.419 . S
C931 C932 1.362 . S
C932 H924 0.930 . S
C932 C931 1.362 . S
C932 C935 1.409 . S
C933 H925 0.930 . S
C933 C934 1.355 . S
C933 C935 1.415 . S
C934 C933 1.355 . S
C934 C936 1.419 . S
C935 C930 1.425 . S
C935 C932 1.409 . S
C935 C933 1.415 . S
C936 H926 0.930 . S
C936 C934 1.419 . S
C936 C937 1.362 . S
C937 H927 0.930 . S
C937 C930 1.409 . S
C937 C936 1.362 . S
H938 C944 0.930 . S
H939 C947 0.930 . S
H940 C948 0.930 . S
H941 C949 0.930 . S
H942 C952 0.930 . S
H943 C953 0.930 . S
C944 H938 0.930 . S
C944 C945 1.355 . S
C944 C946 1.415 . S
C945 C944 1.355 . S
C945 C947 1.419 . S
C946 C944 1.415 . S
C946 C951 1.425 . S
C946 C953 1.409 . S
C947 H939 0.930 . S
C947 C945 1.419 . S
C947 C948 1.362 . S
C948 H940 0.930 . S
C948 C947 1.362 . S
C948 C951 1.409 . S
C949 H941 0.930 . S
C949 C950 1.355 . S
C949 C951 1.415 . S
C950 C949 1.355 . S
C950 C952 1.419 . S
C951 C946 1.425 . S
C951 C948 1.409 . S
C951 C949 1.415 . S
C952 H942 0.930 . S
C952 C950 1.419 . S
C952 C953 1.362 . S
C953 H943 0.930 . S
C953 C946 1.409 . S
C953 C952 1.362 . S
H954 C960 0.930 . S
H955 C963 0.930 . S
H956 C964 0.930 . S
H957 C965 0.930 . S
H958 C968 0.930 . S
H959 C969 0.930 . S
C960 H954 0.930 . S
C960 C961 1.355 . S
C960 C962 1.415 1_565 S
C961 C960 1.355 . S
C961 C963 1.419 . S
C962 C960 1.415 1_545 S
C962 C967 1.429 . S
C962 C969 1.409 . S
C963 H955 0.930 . S
C963 C961 1.419 . S
C963 C964 1.362 . S
C964 H956 0.930 . S
C964 C963 1.362 . S
C964 C967 1.402 1_565 S
C965 H957 0.930 . S
C965 C966 1.355 . S
C965 C967 1.418 . S
C966 C965 1.355 . S
C966 C968 1.419 . S
C967 C962 1.429 . S
C967 C964 1.402 1_545 S
C967 C965 1.418 . S
C968 H958 0.930 . S
C968 C966 1.419 . S
C968 C969 1.362 . S
C969 H959 0.930 . S
C969 C962 1.409 . S
C969 C968 1.362 . S
H970 C976 0.930 . S
H971 C979 0.930 . S
H972 C980 0.930 . S
H973 C981 0.930 . S
H974 C984 0.930 . S
H975 C985 0.930 . S
C976 H970 0.930 . S
C976 C977 1.355 . S
C976 C978 1.415 . S
C977 C976 1.355 . S
C977 C979 1.419 . S
C978 C976 1.415 . S
C978 C983 1.425 . S
C978 C985 1.409 1_455 S
C979 H971 0.930 . S
C979 C977 1.419 . S
C979 C980 1.362 . S
C980 H972 0.930 . S
C980 C979 1.362 . S
C980 C983 1.409 . S
C981 H973 0.930 . S
C981 C982 1.355 . S
C981 C983 1.415 1_655 S
C982 C981 1.355 . S
C982 C984 1.419 . S
C983 C978 1.425 . S
C983 C980 1.409 . S
C983 C981 1.415 1_455 S
C984 H974 0.930 . S
C984 C982 1.419 . S
C984 C985 1.362 . S
C985 H975 0.930 . S
C985 C978 1.409 1_655 S
C985 C984 1.362 . S
H986 C992 0.930 . S
H987 C995 0.930 . S
H988 C996 0.930 . S
H989 C997 0.930 . S
H990 C1000 0.930 . S
H991 C1001 0.930 . S
C992 H986 0.930 . S
C992 C993 1.355 . S
C992 C994 1.415 . S
C993 C992 1.355 . S
C993 C995 1.419 . S
C994 C992 1.415 . S
C994 C999 1.425 . S
C994 C1001 1.409 . S
C995 H987 0.930 . S
C995 C993 1.419 . S
C995 C996 1.362 . S
C996 H988 0.930 . S
C996 C995 1.362 . S
C996 C999 1.409 . S
C997 H989 0.930 . S
C997 C998 1.355 . S
C997 C999 1.415 . S
C998 C997 1.355 . S
C998 C1000 1.419 . S
C999 C994 1.425 . S
C999 C996 1.409 . S
C999 C997 1.415 . S
C1000 H990 0.930 . S
C1000 C998 1.419 . S
C1000 C1001 1.362 . S
C1001 H991 0.930 . S
C1001 C994 1.409 . S
C1001 C1000 1.362 . S
H1002 C1008 0.930 . S
H1003 C1011 0.930 . S
H1004 C1012 0.930 . S
H1005 C1013 0.930 . S
H1006 C1016 0.930 . S
H1007 C1017 0.930 . S
C1008 H1002 0.930 . S
C1008 C1009 1.355 . S
C1008 C1010 1.415 1_455 S
C1009 C1008 1.355 . S
C1009 C1011 1.419 . S
C1010 C1008 1.415 1_655 S
C1010 C1015 1.425 . S
C1010 C1017 1.409 . S
C1011 H1003 0.930 . S
C1011 C1009 1.419 . S
C1011 C1012 1.362 1_455 S
C1012 H1004 0.930 . S
C1012 C1011 1.362 1_655 S
C1012 C1015 1.409 . S
C1013 H1005 0.930 . S
C1013 C1014 1.355 . S
C1013 C1015 1.415 . S
C1014 C1013 1.355 . S
C1014 C1016 1.419 . S
C1015 C1010 1.425 . S
C1015 C1012 1.409 . S
C1015 C1013 1.415 . S
C1016 H1006 0.930 . S
C1016 C1014 1.419 . S
C1016 C1017 1.362 . S
C1017 H1007 0.930 . S
C1017 C1010 1.409 . S
C1017 C1016 1.362 . S
H1018 C1024 0.930 . S
H1019 C1027 0.930 . S
H1020 C1028 0.930 . S
H1021 C1029 0.930 . S
H1022 C1032 0.930 . S
H1023 C1033 0.930 . S
C1024 H1018 0.930 . S
C1024 C1025 1.355 . S
C1024 C1026 1.415 . S
C1025 C1024 1.355 . S
C1025 C1027 1.419 . S
C1026 C1024 1.415 . S
C1026 C1031 1.425 . S
C1026 C1033 1.409 . S
C1027 H1019 0.930 . S
C1027 C1025 1.419 . S
C1027 C1028 1.362 . S
C1028 H1020 0.930 . S
C1028 C1027 1.362 . S
C1028 C1031 1.409 . S
C1029 H1021 0.930 . S
C1029 C1030 1.355 . S
C1029 C1031 1.415 . S
C1030 C1029 1.355 . S
C1030 C1032 1.419 . S
C1031 C1026 1.425 . S
C1031 C1028 1.409 . S
C1031 C1029 1.415 . S
C1032 H1022 0.930 . S
C1032 C1030 1.419 . S
C1032 C1033 1.362 . S
C1033 H1023 0.930 . S
C1033 C1026 1.409 . S
C1033 C1032 1.362 . S
H1034 C1040 0.930 . S
H1035 C1043 0.930 1_565 S
H1036 C1044 0.930 . S
H1037 C1045 0.930 . S
H1038 C1048 0.930 . S
H1039 C1049 0.930 . S
C1040 H1034 0.930 . S
C1040 C1041 1.355 . S
C1040 C1042 1.415 . S
C1041 C1040 1.355 . S
C1041 C1043 1.419 . S
C1042 C1040 1.415 . S
C1042 C1047 1.425 . S
C1042 C1049 1.409 . S
C1043 H1035 0.930 1_545 S
C1043 C1041 1.419 . S
C1043 C1044 1.362 . S
C1044 H1036 0.930 . S
C1044 C1043 1.362 . S
C1044 C1047 1.409 . S
C1045 H1037 0.930 . S
C1045 C1046 1.355 . S
C1045 C1047 1.415 . S
C1046 C1045 1.355 . S
C1046 C1048 1.419 . S
C1047 C1042 1.425 . S
C1047 C1044 1.409 . S
C1047 C1045 1.415 . S
C1048 H1038 0.930 . S
C1048 C1046 1.419 . S
C1048 C1049 1.362 . S
C1049 H1039 0.930 . S
C1049 C1042 1.409 . S
C1049 C1048 1.362 . S
H1050 C1056 0.930 . S
H1051 C1059 0.930 . S
H1052 C1060 0.930 . S
H1053 C1061 0.930 . S
H1054 C1064 0.930 . S
H1055 C1065 0.930 . S
C1056 H1050 0.930 . S
C1056 C1057 1.355 . S
C1056 C1058 1.415 . S
C1057 C1056 1.355 . S
C1057 C1059 1.419 . S
C1058 C1056 1.415 . S
C1058 C1063 1.425 . S
C1058 C1065 1.409 . S
C1059 H1051 0.930 . S
C1059 C1057 1.419 . S
C1059 C1060 1.362 . S
C1060 H1052 0.930 . S
C1060 C1059 1.362 . S
C1060 C1063 1.409 . S
C1061 H1053 0.930 . S
C1061 C1062 1.355 . S
C1061 C1063 1.415 . S
C1062 C1061 1.355 . S
C1062 C1064 1.419 . S
C1063 C1058 1.425 . S
C1063 C1060 1.409 . S
C1063 C1061 1.415 . S
C1064 H1054 0.930 . S
C1064 C1062 1.419 . S
C1064 C1065 1.362 . S
C1065 H1055 0.930 . S
C1065 C1058 1.409 . S
C1065 C1064 1.362 . S
H1066 C1072 0.930 . S
H1067 C1075 0.930 . S
H1068 C1076 0.930 . S
H1069 C1077 0.930 . S
H1070 C1080 0.930 . S
H1071 C1081 0.930 . S
C1072 H1066 0.930 . S
C1072 C1073 1.355 . S
C1072 C1074 1.415 . S
C1073 C1072 1.355 . S
C1073 C1075 1.419 . S
C1074 C1072 1.415 . S
C1074 C1079 1.425 . S
C1074 C1081 1.409 . S
C1075 H1067 0.930 . S
C1075 C1073 1.419 . S
C1075 C1076 1.362 . S
C1076 H1068 0.930 . S
C1076 C1075 1.362 . S
C1076 C1079 1.409 . S
C1077 H1069 0.930 . S
C1077 C1078 1.355 . S
C1077 C1079 1.415 . S
C1078 C1077 1.355 . S
C1078 C1080 1.419 . S
C1079 C1074 1.425 . S
C1079 C1076 1.409 . S
C1079 C1077 1.415 . S
C1080 H1070 0.930 . S
C1080 C1078 1.419 . S
C1080 C1081 1.362 . S
C1081 H1071 0.930 . S
C1081 C1074 1.409 . S
C1081 C1080 1.362 . S
H1082 C1088 0.930 . S
H1083 C1091 0.930 . S
H1084 C1092 0.930 . S
H1085 C1093 0.930 . S
H1086 C1096 0.930 . S
H1087 C1097 0.930 . S
C1088 H1082 0.930 . S
C1088 C1089 1.355 . S
C1088 C1090 1.415 . S
C1089 C1088 1.355 . S
C1089 C1091 1.419 . S
C1090 C1088 1.415 . S
C1090 C1095 1.425 . S
C1090 C1097 1.409 . S
C1091 H1083 0.930 . S
C1091 C1089 1.419 . S
C1091 C1092 1.362 . S
C1092 H1084 0.930 . S
C1092 C1091 1.362 . S
C1092 C1095 1.409 . S
C1093 H1085 0.930 . S
C1093 C1094 1.355 . S
C1093 C1095 1.415 . S
C1094 C1093 1.355 . S
C1094 C1096 1.419 . S
C1095 C1090 1.425 . S
C1095 C1092 1.409 . S
C1095 C1093 1.415 . S
C1096 H1086 0.930 . S
C1096 C1094 1.419 . S
C1096 C1097 1.362 . S
C1097 H1087 0.930 . S
C1097 C1090 1.409 . S
C1097 C1096 1.362 . S
H1098 C1104 0.930 . S
H1099 C1107 0.930 . S
H1100 C1108 0.930 . S
H1101 C1109 0.930 1_545 S
H1102 C1112 0.930 . S
H1103 C1113 0.930 . S
C1104 H1098 0.930 . S
C1104 C1105 1.355 . S
C1104 C1106 1.415 . S
C1105 C1104 1.355 . S
C1105 C1107 1.419 . S
C1106 C1104 1.415 . S
C1106 C1111 1.425 . S
C1106 C1113 1.409 . S
C1107 H1099 0.930 . S
C1107 C1105 1.419 . S
C1107 C1108 1.362 . S
C1108 H1100 0.930 . S
C1108 C1107 1.362 . S
C1108 C1111 1.409 . S
C1109 H1101 0.930 1_565 S
C1109 C1110 1.355 . S
C1109 C1111 1.415 . S
C1110 C1109 1.355 . S
C1110 C1112 1.419 . S
C1111 C1106 1.425 . S
C1111 C1108 1.409 . S
C1111 C1109 1.415 . S
C1112 H1102 0.930 . S
C1112 C1110 1.419 . S
C1112 C1113 1.362 . S
C1113 H1103 0.930 . S
C1113 C1106 1.409 . S
C1113 C1112 1.362 . S
H1114 C1120 0.930 . S
H1115 C1123 0.930 . S
H1116 C1124 0.930 . S
H1117 C1125 0.930 . S
H1118 C1128 0.930 1_655 S
H1119 C1129 0.930 . S
C1120 H1114 0.930 . S
C1120 C1121 1.355 . S
C1120 C1122 1.415 . S
C1121 C1120 1.355 . S
C1121 C1123 1.419 . S
C1122 C1120 1.415 . S
C1122 C1127 1.425 . S
C1122 C1129 1.409 . S
C1123 H1115 0.930 . S
C1123 C1121 1.419 . S
C1123 C1124 1.362 . S
C1124 H1116 0.930 . S
C1124 C1123 1.362 . S
C1124 C1127 1.409 . S
C1125 H1117 0.930 . S
C1125 C1126 1.355 . S
C1125 C1127 1.415 . S
C1126 C1125 1.355 . S
C1126 C1128 1.419 . S
C1127 C1122 1.425 . S
C1127 C1124 1.409 . S
C1127 C1125 1.415 . S
C1128 H1118 0.930 1_455 S
C1128 C1126 1.419 . S
C1128 C1129 1.362 . S
C1129 H1119 0.930 . S
C1129 C1122 1.409 . S
C1129 C1128 1.362 . S
H1130 C1136 0.930 . S
H1131 C1139 0.930 . S
H1132 C1140 0.930 . S
H1133 C1141 0.930 . S
H1134 C1144 0.930 . S
H1135 C1145 0.930 . S
C1136 H1130 0.930 . S
C1136 C1137 1.355 . S
C1136 C1138 1.415 . S
C1137 C1136 1.355 . S
C1137 C1139 1.419 . S
C1138 C1136 1.415 . S
C1138 C1143 1.425 . S
C1138 C1145 1.409 . S
C1139 H1131 0.930 . S
C1139 C1137 1.419 . S
C1139 C1140 1.362 . S
C1140 H1132 0.930 . S
C1140 C1139 1.362 . S
C1140 C1143 1.409 . S
C1141 H1133 0.930 . S
C1141 C1142 1.355 . S
C1141 C1143 1.415 . S
C1142 C1141 1.355 . S
C1142 C1144 1.419 . S
C1143 C1138 1.425 . S
C1143 C1140 1.409 . S
C1143 C1141 1.415 . S
C1144 H1134 0.930 . S
C1144 C1142 1.419 . S
C1144 C1145 1.362 . S
C1145 H1135 0.930 . S
C1145 C1138 1.409 . S
C1145 C1144 1.362 . S
H1146 C1152 0.930 . S
H1147 C1155 0.930 . S
H1148 C1156 0.930 . S
H1149 C1157 0.930 . S
H1150 C1160 0.930 . S
H1151 C1161 0.930 . S
C1152 H1146 0.930 . S
C1152 C1153 1.355 . S
C1152 C1154 1.415 . S
C1153 C1152 1.355 . S
C1153 C1155 1.419 . S
C1154 C1152 1.415 . S
C1154 C1159 1.425 . S
C1154 C1161 1.409 . S
C1155 H1147 0.930 . S
C1155 C1153 1.419 . S
C1155 C1156 1.362 . S
C1156 H1148 0.930 . S
C1156 C1155 1.362 . S
C1156 C1159 1.409 . S
C1157 H1149 0.930 . S
C1157 C1158 1.355 . S
C1157 C1159 1.415 . S
C1158 C1157 1.355 . S
C1158 C1160 1.419 . S
C1159 C1154 1.425 . S
C1159 C1156 1.409 . S
C1159 C1157 1.415 . S
C1160 H1150 0.930 . S
C1160 C1158 1.419 . S
C1160 C1161 1.362 . S
C1161 H1151 0.930 . S
C1161 C1154 1.409 . S
C1161 C1160 1.362 . S
H1162 C1168 0.930 . S
H1163 C1171 0.930 . S
H1164 C1172 0.930 . S
H1165 C1173 0.930 . S
H1166 C1176 0.930 . S
H1167 C1177 0.930 . S
C1168 H1162 0.930 . S
C1168 C1169 1.355 . S
C1168 C1170 1.415 . S
C1169 C1168 1.355 . S
C1169 C1171 1.419 . S
C1170 C1168 1.415 . S
C1170 C1175 1.425 . S
C1170 C1177 1.409 . S
C1171 H1163 0.930 . S
C1171 C1169 1.419 . S
C1171 C1172 1.362 . S
C1172 H1164 0.930 . S
C1172 C1171 1.362 . S
C1172 C1175 1.409 . S
C1173 H1165 0.930 . S
C1173 C1174 1.355 . S
C1173 C1175 1.415 . S
C1174 C1173 1.355 . S
C1174 C1176 1.419 . S
C1175 C1170 1.425 . S
C1175 C1172 1.409 . S
C1175 C1173 1.415 . S
C1176 H1166 0.930 . S
C1176 C1174 1.419 . S
C1176 C1177 1.362 . S
C1177 H1167 0.930 . S
C1177 C1170 1.409 . S
C1177 C1176 1.362 . S
H1178 C1184 0.930 . S
H1179 C1187 0.930 . S
H1180 C1188 0.930 . S
H1181 C1189 0.930 . S
H1182 C1192 0.930 . S
H1183 C1193 0.930 . S
C1184 H1178 0.930 . S
C1184 C1185 1.355 . S
C1184 C1186 1.415 . S
C1185 C1184 1.355 . S
C1185 C1187 1.419 . S
C1186 C1184 1.415 . S
C1186 C1191 1.425 . S
C1186 C1193 1.409 . S
C1187 H1179 0.930 . S
C1187 C1185 1.419 . S
C1187 C1188 1.362 . S
C1188 H1180 0.930 . S
C1188 C1187 1.362 . S
C1188 C1191 1.409 . S
C1189 H1181 0.930 . S
C1189 C1190 1.355 . S
C1189 C1191 1.415 . S
C1190 C1189 1.355 . S
C1190 C1192 1.419 . S
C1191 C1186 1.425 . S
C1191 C1188 1.409 . S
C1191 C1189 1.415 . S
C1192 H1182 0.930 . S
C1192 C1190 1.419 . S
C1192 C1193 1.362 . S
C1193 H1183 0.930 . S
C1193 C1186 1.409 . S
C1193 C1192 1.362 . S
H1194 C1200 0.930 . S
H1195 C1203 0.930 . S
H1196 C1204 0.930 . S
H1197 C1205 0.930 . S
H1198 C1208 0.930 . S
H1199 C1209 0.930 . S
C1200 H1194 0.930 . S
C1200 C1201 1.355 . S
C1200 C1202 1.415 . S
C1201 C1200 1.355 . S
C1201 C1203 1.419 . S
C1202 C1200 1.415 . S
C1202 C1207 1.425 . S
C1202 C1209 1.409 . S
C1203 H1195 0.930 . S
C1203 C1201 1.419 . S
C1203 C1204 1.362 . S
C1204 H1196 0.930 . S
C1204 C1203 1.362 . S
C1204 C1207 1.409 . S
C1205 H1197 0.930 . S
C1205 C1206 1.355 . S
C1205 C1207 1.415 . S
C1206 C1205 1.355 . S
C1206 C1208 1.419 . S
C1207 C1202 1.425 . S
C1207 C1204 1.409 . S
C1207 C1205 1.415 . S
C1208 H1198 0.930 . S
C1208 C1206 1.419 . S
C1208 C1209 1.362 . S
C1209 H1199 0.930 . S
C1209 C1202 1.409 . S
C1209 C1208 1.362 . S
H1210 C1216 0.930 . S
H1211 C1219 0.930 . S
H1212 C1220 0.930 . S
H1213 C1221 0.930 . S
H1214 C1224 0.930 . S
H1215 C1225 0.930 . S
C1216 H1210 0.930 . S
C1216 C1217 1.355 . S
C1216 C1218 1.415 . S
C1217 C1216 1.355 . S
C1217 C1219 1.419 . S
C1218 C1216 1.415 . S
C1218 C1223 1.425 . S
C1218 C1225 1.409 . S
C1219 H1211 0.930 . S
C1219 C1217 1.419 . S
C1219 C1220 1.362 . S
C1220 H1212 0.930 . S
C1220 C1219 1.362 . S
C1220 C1223 1.409 . S
C1221 H1213 0.930 . S
C1221 C1222 1.355 . S
C1221 C1223 1.415 . S
C1222 C1221 1.355 . S
C1222 C1224 1.419 . S
C1223 C1218 1.425 . S
C1223 C1220 1.409 . S
C1223 C1221 1.415 . S
C1224 H1214 0.930 . S
C1224 C1222 1.419 . S
C1224 C1225 1.362 . S
C1225 H1215 0.930 . S
C1225 C1218 1.409 . S
C1225 C1224 1.362 . S
H1226 C1232 0.930 . S
H1227 C1235 0.930 . S
H1228 C1236 0.930 . S
H1229 C1237 0.930 . S
H1230 C1240 0.930 . S
H1231 C1241 0.930 . S
C1232 H1226 0.930 . S
C1232 C1233 1.355 . S
C1232 C1234 1.415 . S
C1233 C1232 1.355 . S
C1233 C1235 1.419 . S
C1234 C1232 1.415 . S
C1234 C1239 1.425 . S
C1234 C1241 1.409 . S
C1235 H1227 0.930 . S
C1235 C1233 1.419 . S
C1235 C1236 1.362 . S
C1236 H1228 0.930 . S
C1236 C1235 1.362 . S
C1236 C1239 1.409 . S
C1237 H1229 0.930 . S
C1237 C1238 1.355 . S
C1237 C1239 1.415 . S
C1238 C1237 1.355 . S
C1238 C1240 1.419 . S
C1239 C1234 1.425 . S
C1239 C1236 1.409 . S
C1239 C1237 1.415 . S
C1240 H1230 0.930 . S
C1240 C1238 1.419 . S
C1240 C1241 1.362 . S
C1241 H1231 0.930 . S
C1241 C1234 1.409 . S
C1241 C1240 1.362 . S
H1242 C1248 0.930 . S
H1243 C1251 0.930 . S
H1244 C1252 0.930 . S
H1245 C1253 0.930 . S
H1246 C1256 0.930 . S
H1247 C1257 0.930 . S
C1248 H1242 0.930 . S
C1248 C1249 1.355 . S
C1248 C1250 1.415 . S
C1249 C1248 1.355 . S
C1249 C1251 1.419 . S
C1250 C1248 1.415 . S
C1250 C1255 1.425 . S
C1250 C1257 1.409 . S
C1251 H1243 0.930 . S
C1251 C1249 1.419 . S
C1251 C1252 1.362 . S
C1252 H1244 0.930 . S
C1252 C1251 1.362 . S
C1252 C1255 1.409 . S
C1253 H1245 0.930 . S
C1253 C1254 1.355 . S
C1253 C1255 1.415 . S
C1254 C1253 1.355 . S
C1254 C1256 1.419 . S
C1255 C1250 1.425 . S
C1255 C1252 1.409 . S
C1255 C1253 1.415 . S
C1256 H1246 0.930 . S
C1256 C1254 1.419 . S
C1256 C1257 1.362 . S
C1257 H1247 0.930 . S
C1257 C1250 1.409 . S
C1257 C1256 1.362 . S
H1258 C1264 0.930 . S
H1259 C1267 0.930 . S
H1260 C1268 0.930 . S
H1261 C1269 0.930 . S
H1262 C1272 0.930 . S
H1263 C1273 0.930 . S
C1264 H1258 0.930 . S
C1264 C1265 1.355 . S
C1264 C1266 1.415 . S
C1265 C1264 1.355 . S
C1265 C1267 1.419 . S
C1266 C1264 1.415 . S
C1266 C1271 1.425 . S
C1266 C1273 1.409 . S
C1267 H1259 0.930 . S
C1267 C1265 1.419 . S
C1267 C1268 1.362 . S
C1268 H1260 0.930 . S
C1268 C1267 1.362 . S
C1268 C1271 1.409 . S
C1269 H1261 0.930 . S
C1269 C1270 1.355 . S
C1269 C1271 1.415 . S
C1270 C1269 1.355 . S
C1270 C1272 1.419 . S
C1271 C1266 1.425 . S
C1271 C1268 1.409 . S
C1271 C1269 1.415 . S
C1272 H1262 0.930 . S
C1272 C1270 1.419 . S
C1272 C1273 1.362 . S
C1273 H1263 0.930 . S
C1273 C1266 1.409 . S
C1273 C1272 1.362 . S
H1274 C1280 0.930 . S
H1275 C1283 0.930 . S
H1276 C1284 0.930 . S
H1277 C1285 0.930 . S
H1278 C1288 0.930 . S
H1279 C1289 0.930 . S
C1280 H1274 0.930 . S
C1280 C1281 1.355 . S
C1280 C1282 1.415 . S
C1281 C1280 1.355 . S
C1281 C1283 1.419 . S
C1282 C1280 1.415 . S
C1282 C1287 1.425 . S
C1282 C1289 1.409 . S
C1283 H1275 0.930 . S
C1283 C1281 1.419 . S
C1283 C1284 1.362 . S
C1284 H1276 0.930 . S
C1284 C1283 1.362 . S
C1284 C1287 1.409 . S
C1285 H1277 0.930 . S
C1285 C1286 1.355 . S
C1285 C1287 1.415 . S
C1286 C1285 1.355 . S
C1286 C1288 1.419 . S
C1287 C1282 1.425 . S
C1287 C1284 1.409 . S
C1287 C1285 1.415 . S
C1288 H1278 0.930 . S
C1288 C1286 1.419 . S
C1288 C1289 1.362 . S
C1289 H1279 0.930 . S
C1289 C1282 1.409 . S
C1289 C1288 1.362 . S
H1290 C1296 0.930 . S
H1291 C1299 0.930 . S
H1292 C1300 0.930 . S
H1293 C1301 0.930 . S
H1294 C1304 0.930 . S
H1295 C1305 0.930 . S
C1296 H1290 0.930 . S
C1296 C1297 1.355 . S
C1296 C1298 1.415 . S
C1297 C1296 1.355 . S
C1297 C1299 1.419 . S
C1298 C1296 1.415 . S
C1298 C1303 1.425 . S
C1298 C1305 1.409 . S
C1299 H1291 0.930 . S
C1299 C1297 1.419 . S
C1299 C1300 1.362 . S
C1300 H1292 0.930 . S
C1300 C1299 1.362 . S
C1300 C1303 1.409 . S
C1301 H1293 0.930 . S
C1301 C1302 1.355 . S
C1301 C1303 1.415 . S
C1302 C1301 1.355 . S
C1302 C1304 1.419 . S
C1303 C1298 1.425 . S
C1303 C1300 1.409 . S
C1303 C1301 1.415 . S
C1304 H1294 0.930 . S
C1304 C1302 1.419 . S
C1304 C1305 1.362 . S
C1305 H1295 0.930 . S
C1305 C1298 1.409 . S
C1305 C1304 1.362 . S
H1306 C1312 0.930 . S
H1307 C1315 0.930 . S
H1308 C1316 0.930 . S
H1309 C1317 0.930 . S
H1310 C1320 0.930 . S
H1311 C1321 0.930 . S
C1312 H1306 0.930 . S
C1312 C1313 1.355 . S
C1312 C1314 1.415 . S
C1313 C1312 1.355 . S
C1313 C1315 1.419 . S
C1314 C1312 1.415 . S
C1314 C1319 1.425 . S
C1314 C1321 1.409 . S
C1315 H1307 0.930 . S
C1315 C1313 1.419 . S
C1315 C1316 1.362 . S
C1316 H1308 0.930 . S
C1316 C1315 1.362 . S
C1316 C1319 1.409 . S
C1317 H1309 0.930 . S
C1317 C1318 1.355 . S
C1317 C1319 1.415 . S
C1318 C1317 1.355 . S
C1318 C1320 1.419 . S
C1319 C1314 1.425 . S
C1319 C1316 1.409 . S
C1319 C1317 1.415 . S
C1320 H1310 0.930 . S
C1320 C1318 1.419 . S
C1320 C1321 1.362 . S
C1321 H1311 0.930 . S
C1321 C1314 1.409 . S
C1321 C1320 1.362 . S
H1322 C1328 0.930 . S
H1323 C1331 0.930 . S
H1324 C1332 0.930 . S
H1325 C1333 0.930 . S
H1326 C1336 0.930 . S
H1327 C1337 0.930 . S
C1328 H1322 0.930 . S
C1328 C1329 1.355 . S
C1328 C1330 1.415 . S
C1329 C1328 1.355 . S
C1329 C1331 1.419 . S
C1330 C1328 1.415 . S
C1330 C1335 1.425 . S
C1330 C1337 1.409 . S
C1331 H1323 0.930 . S
C1331 C1329 1.419 . S
C1331 C1332 1.362 . S
C1332 H1324 0.930 . S
C1332 C1331 1.362 . S
C1332 C1335 1.409 . S
C1333 H1325 0.930 . S
C1333 C1334 1.355 . S
C1333 C1335 1.415 . S
C1334 C1333 1.355 . S
C1334 C1336 1.419 . S
C1335 C1330 1.425 . S
C1335 C1332 1.409 . S
C1335 C1333 1.415 . S
C1336 H1326 0.930 . S
C1336 C1334 1.419 . S
C1336 C1337 1.362 . S
C1337 H1327 0.930 . S
C1337 C1330 1.409 . S
C1337 C1336 1.362 . S
H1338 C1344 0.930 . S
H1339 C1347 0.930 . S
H1340 C1348 0.930 . S
H1341 C1349 0.930 . S
H1342 C1352 0.930 . S
H1343 C1353 0.930 . S
C1344 H1338 0.930 . S
C1344 C1345 1.355 . S
C1344 C1346 1.415 . S
C1345 C1344 1.355 . S
C1345 C1347 1.419 . S
C1346 C1344 1.415 . S
C1346 C1351 1.425 . S
C1346 C1353 1.409 . S
C1347 H1339 0.930 . S
C1347 C1345 1.419 . S
C1347 C1348 1.362 . S
C1348 H1340 0.930 . S
C1348 C1347 1.362 . S
C1348 C1351 1.409 . S
C1349 H1341 0.930 . S
C1349 C1350 1.355 . S
C1349 C1351 1.415 . S
C1350 C1349 1.355 . S
C1350 C1352 1.419 . S
C1351 C1346 1.425 . S
C1351 C1348 1.409 . S
C1351 C1349 1.415 . S
C1352 H1342 0.930 . S
C1352 C1350 1.419 . S
C1352 C1353 1.362 . S
C1353 H1343 0.930 . S
C1353 C1346 1.409 . S
C1353 C1352 1.362 . S
H1354 C1360 0.930 . S
H1355 C1363 0.930 . S
H1356 C1364 0.930 . S
H1357 C1365 0.930 . S
H1358 C1368 0.930 . S
H1359 C1369 0.930 . S
C1360 H1354 0.930 . S
C1360 C1361 1.355 . S
C1360 C1362 1.415 . S
C1361 C1360 1.355 . S
C1361 C1363 1.419 . S
C1362 C1360 1.415 . S
C1362 C1367 1.425 . S
C1362 C1369 1.409 . S
C1363 H1355 0.930 . S
C1363 C1361 1.419 . S
C1363 C1364 1.362 . S
C1364 H1356 0.930 . S
C1364 C1363 1.362 . S
C1364 C1367 1.409 . S
C1365 H1357 0.930 . S
C1365 C1366 1.355 . S
C1365 C1367 1.415 . S
C1366 C1365 1.355 . S
C1366 C1368 1.419 . S
C1367 C1362 1.425 . S
C1367 C1364 1.409 . S
C1367 C1365 1.415 . S
C1368 H1358 0.930 . S
C1368 C1366 1.419 . S
C1368 C1369 1.362 . S
C1369 H1359 0.930 . S
C1369 C1362 1.409 . S
C1369 C1368 1.362 . S
H1370 C1376 0.930 . S
H1371 C1379 0.930 . S
H1372 C1380 0.930 . S
H1373 C1381 0.930 . S
H1374 C1384 0.930 . S
H1375 C1385 0.930 . S
C1376 H1370 0.930 . S
C1376 C1377 1.355 . S
C1376 C1378 1.415 . S
C1377 C1376 1.355 . S
C1377 C1379 1.419 . S
C1378 C1376 1.415 . S
C1378 C1383 1.425 . S
C1378 C1385 1.409 . S
C1379 H1371 0.930 . S
C1379 C1377 1.419 . S
C1379 C1380 1.362 . S
C1380 H1372 0.930 . S
C1380 C1379 1.362 . S
C1380 C1383 1.409 . S
C1381 H1373 0.930 . S
C1381 C1382 1.355 . S
C1381 C1383 1.415 . S
C1382 C1381 1.355 . S
C1382 C1384 1.419 . S
C1383 C1378 1.425 . S
C1383 C1380 1.409 . S
C1383 C1381 1.415 . S
C1384 H1374 0.930 . S
C1384 C1382 1.419 . S
C1384 C1385 1.362 . S
C1385 H1375 0.930 . S
C1385 C1378 1.409 . S
C1385 C1384 1.362 . S
C529 C253 1.569 . S
C534 C348 1.547 . S
C545 C272 1.527 . S
C550 C368 1.515 . S
C561 C234 1.519 . S
C566 C391 1.531 . S
C577 C215 1.427 . S
C582 C371 1.435 1_556 S
C598 C388 1.469 . S
C593 C177 1.473 . S
C609 C196 1.492 . S
C614 C351 1.503 . S
C630 C358 1.584 1_556 S
C625 C220 1.514 . S
C646 C378 1.443 . S
C641 C182 1.429 . S
C657 C201 1.487 . S
C662 C383 1.605 . S
C673 C258 1.373 . S
C678 C363 1.478 . S
C689 C277 1.347 . S
C694 C398 1.398 . S
C710 C343 1.619 . S
C705 C239 1.538 . S
C726 C408 1.570 . S
C721 C25 1.578 . S
C737 C44 1.532 . S
C742 C428 1.524 . S
C753 C6 1.508 . S
C758 C451 1.524 . S
C769 C329 1.434 . S
C774 C431 1.438 . S
C785 C291 1.463 . S
C790 C448 1.434 . S
C801 C310 1.476 . S
C806 C411 1.492 . S
C817 C334 1.426 . S
C822 C418 1.567 . S
C833 C296 1.340 . S
C838 C438 1.439 . S
C854 C443 1.583 . S
C849 C315 1.485 . S
C865 C30 1.376 1_565 S
C870 C423 1.476 . S
C886 C458 1.459 . S
C881 C49 1.425 . S
C897 C11 1.446 . S
C902 C403 1.574 . S
C918 C468 1.544 . S
C913 C139 1.566 . S
C929 C158 1.533 . S
C934 C488 1.525 . S
C950 C511 1.527 . S
C945 C120 1.510 . S
C966 C491 1.433 . S
C961 C101 1.428 . S
C982 C508 1.446 . S
C977 C63 1.466 . S
C993 C82 1.494 . S
C998 C471 1.504 . S
C1009 C106 1.438 . S
C1014 C478 1.528 . S
C1025 C68 1.429 . S
C1030 C498 1.431 . S
C1046 C503 1.608 . S
C1041 C87 1.559 1_545 S
C1057 C144 1.456 . S
C1062 C483 1.499 . S
C1073 C163 1.294 . S
C1078 C518 1.425 . S
C1089 C125 1.514 . S
C1094 C463 1.618 . S
C1105 C287 1.422 . S
C1110 C361 1.396 . S
C1126 C381 1.644 . S
C1121 C306 1.756 . S
C1137 C325 1.526 . S
C1142 C390 1.488 . S
C1153 C116 1.715 . S
C1158 C370 1.646 . S
C1169 C135 1.668 . S
C1174 C401 1.616 . S
C1190 C350 1.355 . S
C1185 C154 1.332 . S
C1201 C59 1.394 . S
C1206 C421 1.329 . S
C1217 C78 1.759 . S
C1222 C441 1.673 . S
C1233 C97 1.565 . S
C1238 C450 1.541 . S
C1249 C230 1.695 . S
C1254 C430 1.627 . S
C1270 C461 1.608 . S
C1265 C249 1.661 . S
C1281 C268 1.344 . S
C1286 C410 1.376 . S
C1297 C173 1.412 . S
C1302 C481 1.331 . S
C1313 C192 1.760 . S
C1318 C501 1.652 . S
C1334 C510 1.491 . S
C1329 C211 1.549 . S
C1345 C2 1.685 . S
C1350 C490 1.628 . S
C1361 C21 1.640 . S
C1366 C521 1.541 . S
C1377 C40 1.341 . S
C1382 C470 1.373 . S
