# Generated by pormake.
# Topology ptr, (4,4)-cn, num edge types: 1
# Building blocks:
#     Node 0, Type 0, BuildingBlock: AZAVOO_clean_sbu_0, # of connection points: 4
#     Node 1, Type 0, BuildingBlock: AZAVOO_clean_sbu_0, # of connection points: 4
#     Node 2, Type 0, BuildingBlock: AZAVOO_clean_sbu_0, # of connection points: 4
#     Node 3, Type 0, BuildingBlock: AZAVOO_clean_sbu_0, # of connection points: 4
#     Node 4, Type 0, BuildingBlock: AZAVOO_clean_sbu_0, # of connection points: 4
#     Node 5, Type 0, BuildingBlock: AZAVOO_clean_sbu_0, # of connection points: 4
#     Node 6, Type 0, BuildingBlock: AZAVOO_clean_sbu_0, # of connection points: 4
#     Node 7, Type 0, BuildingBlock: AZAVOO_clean_sbu_0, # of connection points: 4
#     Node 8, Type 0, BuildingBlock: AZAVOO_clean_sbu_0, # of connection points: 4
#     Node 9, Type 0, BuildingBlock: AZAVOO_clean_sbu_0, # of connection points: 4
#     Node 10, Type 0, BuildingBlock: AZAVOO_clean_sbu_0, # of connection points: 4
#     Node 11, Type 0, BuildingBlock: AZAVOO_clean_sbu_0, # of connection points: 4
#     Node 12, Type 0, BuildingBlock: AZAVOO_clean_sbu_0, # of connection points: 4
#     Node 13, Type 0, BuildingBlock: AZAVOO_clean_sbu_0, # of connection points: 4
#     Node 14, Type 0, BuildingBlock: AZAVOO_clean_sbu_0, # of connection points: 4
#     Node 15, Type 0, BuildingBlock: AZAVOO_clean_sbu_0, # of connection points: 4
#     Node 16, Type 0, BuildingBlock: AZAVOO_clean_sbu_0, # of connection points: 4
#     Node 17, Type 0, BuildingBlock: AZAVOO_clean_sbu_0, # of connection points: 4
#     Node 18, Type 1, BuildingBlock: NAWXER_clean_linker_0, # of connection points: 4
#     Node 19, Type 1, BuildingBlock: NAWXER_clean_linker_0, # of connection points: 4
#     Node 20, Type 1, BuildingBlock: NAWXER_clean_linker_0, # of connection points: 4
#     Node 21, Type 1, BuildingBlock: NAWXER_clean_linker_0, # of connection points: 4
#     Node 22, Type 1, BuildingBlock: NAWXER_clean_linker_0, # of connection points: 4
#     Node 23, Type 1, BuildingBlock: NAWXER_clean_linker_0, # of connection points: 4
#     Node 24, Type 1, BuildingBlock: NAWXER_clean_linker_0, # of connection points: 4
#     Node 25, Type 1, BuildingBlock: NAWXER_clean_linker_0, # of connection points: 4
#     Node 26, Type 1, BuildingBlock: NAWXER_clean_linker_0, # of connection points: 4
#     Node 27, Type 1, BuildingBlock: NAWXER_clean_linker_0, # of connection points: 4
#     Node 28, Type 1, BuildingBlock: NAWXER_clean_linker_0, # of connection points: 4
#     Node 29, Type 1, BuildingBlock: NAWXER_clean_linker_0, # of connection points: 4
#     Node 30, Type 1, BuildingBlock: NAWXER_clean_linker_0, # of connection points: 4
#     Node 31, Type 1, BuildingBlock: NAWXER_clean_linker_0, # of connection points: 4
#     Node 32, Type 1, BuildingBlock: NAWXER_clean_linker_0, # of connection points: 4
#     Node 33, Type 1, BuildingBlock: NAWXER_clean_linker_0, # of connection points: 4
#     Node 34, Type 1, BuildingBlock: NAWXER_clean_linker_0, # of connection points: 4
#     Node 35, Type 1, BuildingBlock: NAWXER_clean_linker_0, # of connection points: 4
#     Edge 36, Type (0, 1), BuildingBlock: XIVTED_clean_linker_0, # of connection points: 2
#     Edge 37, Type (0, 1), BuildingBlock: XIVTED_clean_linker_0, # of connection points: 2
#     Edge 38, Type (0, 1), BuildingBlock: XIVTED_clean_linker_0, # of connection points: 2
#     Edge 39, Type (0, 1), BuildingBlock: XIVTED_clean_linker_0, # of connection points: 2
#     Edge 40, Type (0, 1), BuildingBlock: XIVTED_clean_linker_0, # of connection points: 2
#     Edge 41, Type (0, 1), BuildingBlock: XIVTED_clean_linker_0, # of connection points: 2
#     Edge 42, Type (0, 1), BuildingBlock: XIVTED_clean_linker_0, # of connection points: 2
#     Edge 43, Type (0, 1), BuildingBlock: XIVTED_clean_linker_0, # of connection points: 2
#     Edge 44, Type (0, 1), BuildingBlock: XIVTED_clean_linker_0, # of connection points: 2
#     Edge 45, Type (0, 1), BuildingBlock: XIVTED_clean_linker_0, # of connection points: 2
#     Edge 46, Type (0, 1), BuildingBlock: XIVTED_clean_linker_0, # of connection points: 2
#     Edge 47, Type (0, 1), BuildingBlock: XIVTED_clean_linker_0, # of connection points: 2
#     Edge 48, Type (0, 1), BuildingBlock: XIVTED_clean_linker_0, # of connection points: 2
#     Edge 49, Type (0, 1), BuildingBlock: XIVTED_clean_linker_0, # of connection points: 2
#     Edge 50, Type (0, 1), BuildingBlock: XIVTED_clean_linker_0, # of connection points: 2
#     Edge 51, Type (0, 1), BuildingBlock: XIVTED_clean_linker_0, # of connection points: 2
#     Edge 52, Type (0, 1), BuildingBlock: XIVTED_clean_linker_0, # of connection points: 2
#     Edge 53, Type (0, 1), BuildingBlock: XIVTED_clean_linker_0, # of connection points: 2
#     Edge 54, Type (0, 1), BuildingBlock: XIVTED_clean_linker_0, # of connection points: 2
#     Edge 55, Type (0, 1), BuildingBlock: XIVTED_clean_linker_0, # of connection points: 2
#     Edge 56, Type (0, 1), BuildingBlock: XIVTED_clean_linker_0, # of connection points: 2
#     Edge 57, Type (0, 1), BuildingBlock: XIVTED_clean_linker_0, # of connection points: 2
#     Edge 58, Type (0, 1), BuildingBlock: XIVTED_clean_linker_0, # of connection points: 2
#     Edge 59, Type (0, 1), BuildingBlock: XIVTED_clean_linker_0, # of connection points: 2
#     Edge 60, Type (0, 1), BuildingBlock: XIVTED_clean_linker_0, # of connection points: 2
#     Edge 61, Type (0, 1), BuildingBlock: XIVTED_clean_linker_0, # of connection points: 2
#     Edge 62, Type (0, 1), BuildingBlock: XIVTED_clean_linker_0, # of connection points: 2
#     Edge 63, Type (0, 1), BuildingBlock: XIVTED_clean_linker_0, # of connection points: 2
#     Edge 64, Type (0, 1), BuildingBlock: XIVTED_clean_linker_0, # of connection points: 2
#     Edge 65, Type (0, 1), BuildingBlock: XIVTED_clean_linker_0, # of connection points: 2
#     Edge 66, Type (0, 1), BuildingBlock: XIVTED_clean_linker_0, # of connection points: 2
#     Edge 67, Type (0, 1), BuildingBlock: XIVTED_clean_linker_0, # of connection points: 2
#     Edge 68, Type (0, 1), BuildingBlock: XIVTED_clean_linker_0, # of connection points: 2
#     Edge 69, Type (0, 1), BuildingBlock: XIVTED_clean_linker_0, # of connection points: 2
#     Edge 70, Type (0, 1), BuildingBlock: XIVTED_clean_linker_0, # of connection points: 2
#     Edge 71, Type (0, 1), BuildingBlock: XIVTED_clean_linker_0, # of connection points: 2
#     Edge 72, Type (0, 1), BuildingBlock: XIVTED_clean_linker_0, # of connection points: 2
#     Edge 73, Type (0, 1), BuildingBlock: XIVTED_clean_linker_0, # of connection points: 2
#     Edge 74, Type (0, 1), BuildingBlock: XIVTED_clean_linker_0, # of connection points: 2
#     Edge 75, Type (0, 1), BuildingBlock: XIVTED_clean_linker_0, # of connection points: 2
#     Edge 76, Type (0, 1), BuildingBlock: XIVTED_clean_linker_0, # of connection points: 2
#     Edge 77, Type (0, 1), BuildingBlock: XIVTED_clean_linker_0, # of connection points: 2
#     Edge 78, Type (0, 1), BuildingBlock: XIVTED_clean_linker_0, # of connection points: 2
#     Edge 79, Type (0, 1), BuildingBlock: XIVTED_clean_linker_0, # of connection points: 2
#     Edge 80, Type (0, 1), BuildingBlock: XIVTED_clean_linker_0, # of connection points: 2
#     Edge 81, Type (0, 1), BuildingBlock: XIVTED_clean_linker_0, # of connection points: 2
#     Edge 82, Type (0, 1), BuildingBlock: XIVTED_clean_linker_0, # of connection points: 2
#     Edge 83, Type (0, 1), BuildingBlock: XIVTED_clean_linker_0, # of connection points: 2
#     Edge 84, Type (0, 1), BuildingBlock: XIVTED_clean_linker_0, # of connection points: 2
#     Edge 85, Type (0, 1), BuildingBlock: XIVTED_clean_linker_0, # of connection points: 2
#     Edge 86, Type (0, 1), BuildingBlock: XIVTED_clean_linker_0, # of connection points: 2
#     Edge 87, Type (0, 1), BuildingBlock: XIVTED_clean_linker_0, # of connection points: 2
#     Edge 88, Type (0, 1), BuildingBlock: XIVTED_clean_linker_0, # of connection points: 2
#     Edge 89, Type (0, 1), BuildingBlock: XIVTED_clean_linker_0, # of connection points: 2
#     Edge 90, Type (0, 1), BuildingBlock: XIVTED_clean_linker_0, # of connection points: 2
#     Edge 91, Type (0, 1), BuildingBlock: XIVTED_clean_linker_0, # of connection points: 2
#     Edge 92, Type (0, 1), BuildingBlock: XIVTED_clean_linker_0, # of connection points: 2
#     Edge 93, Type (0, 1), BuildingBlock: XIVTED_clean_linker_0, # of connection points: 2
#     Edge 94, Type (0, 1), BuildingBlock: XIVTED_clean_linker_0, # of connection points: 2
#     Edge 95, Type (0, 1), BuildingBlock: XIVTED_clean_linker_0, # of connection points: 2
#     Edge 96, Type (0, 1), BuildingBlock: XIVTED_clean_linker_0, # of connection points: 2
#     Edge 97, Type (0, 1), BuildingBlock: XIVTED_clean_linker_0, # of connection points: 2
#     Edge 98, Type (0, 1), BuildingBlock: XIVTED_clean_linker_0, # of connection points: 2
#     Edge 99, Type (0, 1), BuildingBlock: XIVTED_clean_linker_0, # of connection points: 2
#     Edge 100, Type (0, 1), BuildingBlock: XIVTED_clean_linker_0, # of connection points: 2
#     Edge 101, Type (0, 1), BuildingBlock: XIVTED_clean_linker_0, # of connection points: 2
#     Edge 102, Type (0, 1), BuildingBlock: XIVTED_clean_linker_0, # of connection points: 2
#     Edge 103, Type (0, 1), BuildingBlock: XIVTED_clean_linker_0, # of connection points: 2
#     Edge 104, Type (0, 1), BuildingBlock: XIVTED_clean_linker_0, # of connection points: 2
#     Edge 105, Type (0, 1), BuildingBlock: XIVTED_clean_linker_0, # of connection points: 2
#     Edge 106, Type (0, 1), BuildingBlock: XIVTED_clean_linker_0, # of connection points: 2
#     Edge 107, Type (0, 1), BuildingBlock: XIVTED_clean_linker_0, # of connection points: 2
# Relax obj value: 0.082
# Max RMSD: 0.299
# Mean RMSD: 0.121
data_MOF--net-ptr--node1-AZAVOO_clean_sbu_0--node2-NAWXER_clean_linker_0--edge1-XIVTED_clean_linker_0
_symmetry_space_group_name_H-M    P1
_symmetry_Int_Tables_number       1
_symmetry_cell_setting            triclinic
loop_
_symmetry_equiv_pos_as_xyz
'x, y, z'
_cell_length_a     88.318398
_cell_length_b     86.81816
_cell_length_c     62.011968
_cell_angle_alpha  91.176498
_cell_angle_beta   90.932251
_cell_angle_gamma 120.10412
loop_
_atom_site_label
_atom_site_type_symbol
_atom_site_fract_x
_atom_site_fract_y
_atom_site_fract_z
_atom_type_partial_charge
Mg0 Mg 0.01755 0.33662 0.97973 0.0
O1 O 0.00365 0.34354 0.00631 0.0
O2 O 0.98214 0.34587 0.98998 0.0
Mg3 Mg 0.98235 0.341 0.95381 0.0
C4 C 0.99083 0.34647 0.00694 0.0
C5 C 0.04005 0.32165 0.99868 0.0
O6 O 0.04071 0.31911 0.97783 0.0
O7 O 0.99476 0.30792 0.97575 0.0
O8 O 0.97425 0.31182 0.95931 0.0
O9 O 0.03556 0.36572 0.97535 0.0
O10 O 0.01044 0.34969 0.95725 0.0
C11 C 0.97949 0.30175 0.96715 0.0
C12 C 0.02395 0.36508 0.96175 0.0
O13 O 0.03119 0.32864 0.00518 0.0
Mg14 Mg 0.65407 0.65441 0.03995 0.0
O15 O 0.63264 0.64804 0.01391 0.0
O16 O 0.60852 0.64233 0.03129 0.0
Mg17 Mg 0.61383 0.64372 0.06765 0.0
C18 C 0.61659 0.64396 0.01383 0.0
C19 C 0.67552 0.65674 0.99942 0.0
O20 O 0.6632 0.63992 0.99748 0.0
O21 O 0.65709 0.68162 0.04812 0.0
O22 O 0.6333 0.67365 0.06747 0.0
O23 O 0.64604 0.62539 0.04128 0.0
O24 O 0.63537 0.63859 0.06165 0.0
C25 C 0.64779 0.68558 0.06004 0.0
C26 C 0.63528 0.62424 0.05595 0.0
O27 O 0.6751 0.66629 0.01493 0.0
Mg28 Mg 0.33085 0.97509 0.98772 0.0
O29 O 0.35313 0.9889 0.01328 0.0
O30 O 0.37685 0.00988 0.99745 0.0
Mg31 Mg 0.37005 0.0089 0.96157 0.0
C32 C 0.36909 0.00143 0.01412 0.0
C33 C 0.29595 0.96039 0.01096 0.0
O34 O 0.29149 0.96293 0.9916 0.0
O35 O 0.32698 -0.00084 0.98643 0.0
O36 O 0.35082 0.01846 0.96911 0.0
O37 O 0.33981 0.95556 0.97961 0.0
O38 O 0.34871 0.98109 0.96371 0.0
C39 C 0.33632 0.01422 0.9779 0.0
C40 C 0.34971 0.96694 0.96568 0.0
O41 O 0.31149 0.96366 0.01458 0.0
Mg42 Mg 0.99445 0.67013 0.03747 0.0
O43 O 0.0068 0.66206 0.01007 0.0
O44 O 0.02679 0.65687 0.02565 0.0
Mg45 Mg 0.02645 0.66015 0.06222 0.0
C46 C 0.01861 0.65768 0.00893 0.0
C47 C 0.97251 0.67116 0.99825 0.0
O48 O 0.96931 0.65468 0.99632 0.0
O49 O 0.01913 0.69743 0.04286 0.0
O50 O 0.03711 0.69021 0.05979 0.0
O51 O 0.97383 0.64157 0.04032 0.0
O52 O -0.00068 0.6544 0.05818 0.0
C53 C 0.03368 0.70184 0.05256 0.0
C54 C 0.98482 0.64013 0.05297 0.0
O55 O 0.98283 0.68125 0.01338 0.0
Mg56 Mg 0.34057 0.35053 0.96876 0.0
O57 O 0.36118 0.35516 0.99503 0.0
O58 O 0.3856 0.36009 0.97897 0.0
Mg59 Mg 0.38092 0.35962 0.94253 0.0
C60 C 0.37695 0.35835 0.99593 0.0
C61 C 0.32066 0.34885 0.01 0.0
O62 O 0.33402 0.36518 0.01186 0.0
O63 O 0.33643 0.32302 0.96028 0.0
O64 O 0.36082 0.32977 0.94283 0.0
O65 O 0.34982 0.37965 0.96895 0.0
O66 O 0.36035 0.36651 0.94811 0.0
C67 C 0.34583 0.31838 0.94966 0.0
C68 C 0.36103 0.38099 0.95484 0.0
O69 O 0.31948 0.33912 0.99374 0.0
Mg70 Mg 0.66733 0.01172 0.03543 0.0
O71 O 0.64565 0.99426 0.01026 0.0
O72 O 0.62339 0.97269 0.02753 0.0
Mg73 Mg 0.63099 0.97593 0.06335 0.0
C74 C 0.6303 0.98062 0.01022 0.0
C75 C 0.68337 0.03013 0.99183 0.0
O76 O 0.66879 0.03068 0.99033 0.0
O77 O 0.6754 0.99093 0.03954 0.0
O78 O 0.65307 0.96976 0.05729 0.0
O79 O 0.65494 0.02846 0.04024 0.0
O80 O 0.64879 0.00477 0.0591 0.0
C81 C 0.668 0.97602 0.04875 0.0
C82 C 0.64562 0.01735 0.05474 0.0
O83 O 0.68644 0.02367 0.00841 0.0
Mg84 Mg 0.6756 0.66501 0.32086 0.0
O85 O 0.66201 0.67253 0.34731 0.0
O86 O 0.64267 0.67785 0.33016 0.0
Mg87 Mg 0.64441 0.67491 0.29384 0.0
C88 C 0.65007 0.67678 0.34746 0.0
C89 C 0.69834 0.65067 0.33822 0.0
O90 O 0.70229 0.65365 0.31782 0.0
O91 O 0.65121 0.63759 0.31448 0.0
O92 O 0.63357 0.64488 0.2968 0.0
O93 O 0.69605 0.69371 0.31895 0.0
O94 O 0.67153 0.6808 0.2992 0.0
C95 C 0.63682 0.63325 0.30441 0.0
C96 C 0.68578 0.69515 0.30504 0.0
O97 O 0.6868 0.65387 0.34558 0.0
Mg98 Mg 0.33404 0.99291 0.38796 0.0
O99 O 0.31115 0.98513 0.36379 0.0
O100 O 0.28828 0.98234 0.38184 0.0
Mg101 Mg 0.29626 0.98736 0.41771 0.0
C102 C 0.29537 0.98189 0.36425 0.0
C103 C 0.36661 0.01484 0.3584 0.0
O104 O 0.37144 0.02712 0.37385 0.0
O105 O 0.3388 0.02118 0.39211 0.0
O106 O 0.31604 0.01671 0.41181 0.0
O107 O 0.32492 0.96424 0.39283 0.0
O108 O 0.31657 0.98008 0.41239 0.0
C109 C 0.3303 0.02707 0.40255 0.0
C110 C 0.3153 0.96491 0.40795 0.0
O111 O 0.35236 0.00017 0.35984 0.0
Mg112 Mg 0.00901 0.32402 0.31619 0.0
O113 O 0.02998 0.3361 0.34355 0.0
O114 O 0.05478 0.3569 0.3294 0.0
Mg115 Mg 0.05019 0.3571 0.2931 0.0
C116 C 0.04607 0.34825 0.34549 0.0
C117 C 0.98522 0.29952 0.35244 0.0
O118 O 0.99534 0.29254 0.35044 0.0
O119 O 0.00704 0.34912 0.31524 0.0
O120 O 0.03175 0.36804 0.29916 0.0
O121 O 0.01638 0.3033 0.30843 0.0
O122 O 0.02797 0.32962 0.29372 0.0
C123 C 0.01712 0.36425 0.30728 0.0
C124 C 0.02752 0.31468 0.29542 0.0
O125 O 0.98774 0.31241 0.3408 0.0
Mg126 Mg 0.65175 0.98741 0.37024 0.0
O127 O 0.66817 0.98067 0.34762 0.0
O128 O 0.68685 0.97673 0.36831 0.0
Mg129 Mg 0.68179 0.97971 0.4038 0.0
C130 C 0.68059 0.97725 0.34981 0.0
C131 C 0.63996 0.00998 0.34304 0.0
O132 O 0.64583 0.02026 0.36058 0.0
O133 O 0.67505 0.01576 0.37746 0.0
O134 O 0.6909 0.00914 0.39986 0.0
O135 O 0.63236 0.95808 0.3727 0.0
O136 O 0.65519 0.97338 0.39479 0.0
C137 C 0.68816 0.02051 0.39045 0.0
C138 C 0.64193 0.95831 0.38887 0.0
O139 O 0.64131 0.99608 0.34178 0.0
Mg140 Mg 0.00398 0.67729 0.30926 0.0
O141 O 0.02845 0.68543 0.3306 0.0
O142 O 0.0515 0.69599 0.3094 0.0
Mg143 Mg 0.04176 0.69436 0.27448 0.0
C144 C 0.04485 0.69216 0.32802 0.0
C145 C 0.98846 0.67162 0.35476 0.0
O146 O 0.00098 0.68836 0.35675 0.0
O147 O 0.00365 0.65212 0.29707 0.0
O148 O 0.02602 0.66385 0.27469 0.0
O149 O 0.00892 0.70529 0.31204 0.0
O150 O 0.01886 0.69517 0.28618 0.0
C151 C 0.01321 0.6504 0.28308 0.0
C152 C 0.01816 0.70829 0.29501 0.0
O153 O 0.98666 0.66302 0.33718 0.0
Mg154 Mg 0.3284 0.33909 0.36852 0.0
O155 O 0.30611 0.32293 0.34346 0.0
O156 O 0.28274 0.30373 0.36143 0.0
Mg157 Mg 0.28956 0.30782 0.39751 0.0
C158 C 0.29017 0.31041 0.34381 0.0
C159 C 0.36373 0.35307 0.34681 0.0
O160 O 0.36782 0.35197 0.36697 0.0
O161 O 0.33262 0.31559 0.37425 0.0
O162 O 0.30942 0.29852 0.3939 0.0
O163 O 0.31936 0.35911 0.37284 0.0
O164 O 0.31057 0.33514 0.39202 0.0
C165 C 0.32381 0.30185 0.38546 0.0
C166 C 0.30961 0.34904 0.38787 0.0
O167 O 0.34806 0.34878 0.34184 0.0
Mg168 Mg 0.34391 0.00087 0.66017 0.0
O169 O 0.32936 0.00987 0.68376 0.0
O170 O 0.31139 0.01467 0.66276 0.0
Mg171 Mg 0.3137 0.00889 0.6275 0.0
C172 C 0.31775 0.01448 0.68132 0.0
C173 C 0.36514 0.98632 0.68095 0.0
O174 O 0.36708 0.98559 0.66005 0.0
O175 O 0.31953 0.97305 0.65546 0.0
O176 O 0.30249 0.97949 0.63499 0.0
O177 O 0.36441 0.02938 0.65594 0.0
O178 O 0.34041 0.01493 0.63546 0.0
C179 C 0.30527 0.96832 0.6448 0.0
C180 C 0.35447 0.02968 0.64058 0.0
O181 O 0.35512 0.99188 0.68761 0.0
Mg182 Mg 0.99524 0.32164 0.70497 0.0
O183 O 0.97305 0.31314 0.67961 0.0
O184 O 0.94844 0.30585 0.69684 0.0
Mg185 Mg 0.95472 0.30865 0.73317 0.0
C186 C 0.95671 0.3079 0.67946 0.0
C187 C 0.03093 0.3453 0.68479 0.0
O188 O 0.03458 0.34999 0.70534 0.0
O189 O 0.99606 0.34796 0.71189 0.0
O190 O 0.97169 0.33894 0.7305 0.0
O191 O 0.98914 0.29332 0.707 0.0
O192 O 0.9777 0.30574 0.72753 0.0
C193 C 0.98571 0.35128 0.72257 0.0
C194 C 0.97856 0.29184 0.72209 0.0
O195 O 0.01535 0.33376 0.67898 0.0
Mg196 Mg 0.67979 0.64382 0.65586 0.0
O197 O 0.70088 0.66005 0.68203 0.0
O198 O 0.72521 0.67935 0.66549 0.0
Mg199 Mg 0.7203 0.674 0.62904 0.0
C200 C 0.71676 0.67279 0.6826 0.0
C201 C 0.64378 0.63278 0.67318 0.0
O202 O 0.64169 0.63418 0.65242 0.0
O203 O 0.67713 0.66779 0.64794 0.0
O204 O 0.70124 0.68463 0.62961 0.0
O205 O 0.68752 0.62283 0.6549 0.0
O206 O 0.69905 0.64682 0.63517 0.0
C207 C 0.6866 0.6815 0.63706 0.0
C208 C 0.69891 0.63263 0.64101 0.0
O209 O 0.65852 0.63556 0.68036 0.0
Mg210 Mg 0.31701 0.32562 0.70595 0.0
O211 O 0.33441 0.31921 0.6845 0.0
O212 O 0.35222 0.31532 0.70696 0.0
Mg213 Mg 0.34572 0.31792 0.74195 0.0
C214 C 0.34677 0.31584 0.68793 0.0
C215 C 0.30166 0.34556 0.68303 0.0
O216 O 0.30177 0.34946 0.70365 0.0
O217 O 0.3399 0.35379 0.71444 0.0
O218 O 0.35503 0.34754 0.7385 0.0
O219 O 0.2975 0.29623 0.7071 0.0
O220 O 0.3194 0.31103 0.73061 0.0
C221 C 0.35245 0.35873 0.72837 0.0
C222 C 0.30646 0.29605 0.72373 0.0
O223 O 0.3079 0.33571 0.67752 0.0
Mg224 Mg 0.66743 0.01307 0.63419 0.0
O225 O 0.69158 0.02319 0.65684 0.0
O226 O 0.71483 0.02963 0.63709 0.0
Mg227 Mg 0.70554 0.02433 0.60157 0.0
C228 C 0.70788 0.02863 0.65527 0.0
C229 C 0.65154 0.01377 0.67801 0.0
O230 O 0.66379 0.03056 0.67678 0.0
O231 O 0.6662 0.98645 0.62835 0.0
O232 O 0.68905 0.99431 0.60719 0.0
O233 O 0.67317 0.04101 0.63098 0.0
O234 O 0.68312 0.02776 0.60929 0.0
C235 C 0.67573 0.9825 0.61687 0.0
C236 C 0.68277 0.04193 0.61495 0.0
O237 O 0.64982 0.0028 0.66296 0.0
Mg238 Mg 0.98802 0.68571 0.70033 0.0
O239 O 0.96529 0.66863 0.67607 0.0
O240 O 0.94153 0.65189 0.69511 0.0
Mg241 Mg 0.94868 0.65827 0.73099 0.0
C242 C 0.94908 0.65688 0.67711 0.0
C243 C 0.00761 0.70135 0.65778 0.0
O244 O 0.99575 0.70622 0.6564 0.0
O245 O 0.99028 0.66152 0.70905 0.0
O246 O 0.96653 0.64629 0.7287 0.0
O247 O 0.98097 0.7073 0.70084 0.0
O248 O 0.97018 0.68446 0.7224 0.0
C249 C 0.98057 0.64828 0.72055 0.0
C250 C 0.97021 0.69838 0.71572 0.0
O251 O 0.00774 0.69259 0.67388 0.0
C252 C 0.22296 0.31322 0.13171 0.0
C253 C 0.22151 0.30427 0.11194 0.0
C254 C 0.20818 0.30866 0.14378 0.0
C255 C 0.19167 0.2947 0.13667 0.0
C256 C 0.20497 0.29023 0.10492 0.0
C257 C 0.1902 0.28554 0.11715 0.0
C258 C 0.17571 0.29101 0.14818 0.0
C259 C 0.2084 0.28075 0.19696 0.0
C260 C 0.21155 0.29005 0.21683 0.0
C261 C 0.19651 0.28076 0.18169 0.0
C262 C 0.18803 0.29054 0.18589 0.0
C263 C 0.20312 0.29979 0.22097 0.0
C264 C 0.19158 0.3001 0.20567 0.0
C265 C 0.17452 0.29013 0.1709 0.0
C266 C 0.10312 0.28027 0.18816 0.0
C267 C 0.1084 0.29371 0.20434 0.0
C268 C 0.11566 0.27881 0.17614 0.0
C269 C 0.13357 0.2907 0.18034 0.0
C270 C 0.12632 0.30536 0.20864 0.0
C271 C 0.13876 0.30378 0.19687 0.0
C272 C 0.14725 0.28961 0.16826 0.0
C273 C 0.12052 0.30792 0.12149 0.0
C274 C 0.11252 0.29636 0.10341 0.0
C275 C 0.13195 0.30578 0.1353 0.0
C276 C 0.1355 0.29191 0.13152 0.0
C277 C 0.11622 0.28256 0.09958 0.0
C278 C 0.12768 0.28043 0.11342 0.0
C279 C 0.14818 0.29005 0.14559 0.0
H280 H 0.23549 0.32399 0.13773 0.0
H281 H 0.20963 0.31641 0.15836 0.0
H282 H 0.20329 0.28325 0.08961 0.0
H283 H 0.17755 0.27496 0.11113 0.0
H284 H 0.21468 0.27302 0.19357 0.0
H285 H 0.19366 0.27282 0.16691 0.0
H286 H 0.20543 0.30713 0.23617 0.0
H287 H 0.18526 0.30774 0.20943 0.0
H288 H 0.08934 0.27115 0.18459 0.0
H289 H 0.1114 0.26843 0.16367 0.0
H290 H 0.13071 0.31568 0.22121 0.0
H291 H 0.15252 0.31299 0.20047 0.0
H292 H 0.11833 0.31895 0.12468 0.0
H293 H 0.13829 0.31522 0.14871 0.0
H294 H 0.1102 0.27332 0.08593 0.0
H295 H 0.13038 0.26976 0.11006 0.0
N296 N 0.16237 0.29067 0.13642 0.0
N297 N 0.16036 0.28958 0.1799 0.0
C298 C 0.70172 0.89323 0.12816 0.0
C299 C 0.71447 0.91129 0.12636 0.0
C300 C 0.70362 0.88291 0.14364 0.0
C301 C 0.71804 0.89042 0.15813 0.0
C302 C 0.72903 0.91883 0.14093 0.0
C303 C 0.73075 0.90847 0.15678 0.0
C304 C 0.71973 0.87873 0.17367 0.0
C305 C 0.72675 0.91609 0.23881 0.0
C306 C 0.71391 0.92037 0.23265 0.0
C307 C 0.72941 0.90412 0.2263 0.0
C308 C 0.71932 0.89607 0.20736 0.0
C309 C 0.70423 0.91275 0.21325 0.0
C310 C 0.70668 0.90053 0.20098 0.0
C311 C 0.72045 0.88133 0.19636 0.0
C312 C 0.72642 0.81784 0.22519 0.0
C313 C 0.71321 0.81102 0.24046 0.0
C314 C 0.72908 0.8322 0.21276 0.0
C315 C 0.71863 0.84003 0.21547 0.0
C316 C 0.70331 0.81941 0.24382 0.0
C317 C 0.70611 0.83389 0.23155 0.0
C318 C 0.71976 0.85367 0.20062 0.0
C319 C 0.69221 0.80255 0.1604 0.0
C320 C 0.70212 0.80153 0.14343 0.0
C321 C 0.69799 0.8184 0.17229 0.0
C322 C 0.71376 0.83366 0.16745 0.0
C323 C 0.71813 0.81682 0.13891 0.0
C324 C 0.72378 0.8328 0.15067 0.0
C325 C 0.71843 0.8509 0.17803 0.0
H326 H 0.69004 0.88701 0.11784 0.0
H327 H 0.69362 0.869 0.1445 0.0
H328 H 0.73919 0.93263 0.13995 0.0
H329 H 0.7421 0.91443 0.1677 0.0
H330 H 0.73425 0.92133 0.2538 0.0
H331 H 0.73902 0.9007 0.23185 0.0
H332 H 0.69437 0.91581 0.20778 0.0
H333 H 0.69807 0.89401 0.18707 0.0
H334 H 0.7342 0.8116 0.2222 0.0
H335 H 0.73898 0.83687 0.20062 0.0
H336 H 0.69318 0.81456 0.25566 0.0
H337 H 0.69793 0.83977 0.23395 0.0
H338 H 0.67961 0.79129 0.16405 0.0
H339 H 0.68976 0.81894 0.1847 0.0
H340 H 0.72622 0.81651 0.12617 0.0
H341 H 0.73587 0.84454 0.14653 0.0
N342 N 0.71862 0.86357 0.16548 0.0
N343 N 0.72061 0.86872 0.20894 0.0
C344 C 0.11572 0.81637 0.14912 0.0
C345 C 0.10874 0.81839 0.12954 0.0
C346 C 0.12572 0.83101 0.16304 0.0
C347 C 0.12883 0.84801 0.15787 0.0
C348 C 0.11159 0.83535 0.1245 0.0
C349 C 0.12171 0.85007 0.13846 0.0
C350 C 0.14117 0.86378 0.17148 0.0
C351 C 0.09463 0.83113 0.21061 0.0
C352 C 0.09796 0.82385 0.22888 0.0
C353 C 0.10846 0.84465 0.19967 0.0
C354 C 0.12587 0.85086 0.20655 0.0
C355 C 0.11532 0.83079 0.23646 0.0
C356 C 0.12914 0.84418 0.22541 0.0
C357 C 0.14076 0.86423 0.19427 0.0
C358 C 0.20585 0.93211 0.22332 0.0
C359 C 0.21283 0.92489 0.23785 0.0
C360 C 0.19191 0.92092 0.20911 0.0
C361 C 0.1846 0.90236 0.20957 0.0
C362 C 0.20564 0.90634 0.23795 0.0
C363 C 0.19156 0.89519 0.22411 0.0
C364 C 0.16925 0.89008 0.19577 0.0
C365 C 0.21362 0.91235 0.14846 0.0
C366 C 0.21103 0.9211 0.13114 0.0
C367 C 0.20036 0.90326 0.16306 0.0
C368 C 0.18431 0.90278 0.16065 0.0
C369 C 0.19525 0.92134 0.1295 0.0
C370 C 0.18195 0.91211 0.14399 0.0
C371 C 0.16912 0.89035 0.17305 0.0
H372 H 0.11362 0.80346 0.15356 0.0
H373 H 0.13148 0.8291 0.17756 0.0
H374 H 0.1065 0.83733 0.10946 0.0
H375 H 0.1242 0.86311 0.13396 0.0
H376 H 0.08135 0.8262 0.20463 0.0
H377 H 0.10552 0.85005 0.18566 0.0
H378 H 0.11828 0.82534 0.2504 0.0
H379 H 0.14244 0.84887 0.23118 0.0
H380 H 0.21117 0.94638 0.22298 0.0
H381 H 0.1866 0.92669 0.19813 0.0
H382 H 0.21063 0.90041 0.24916 0.0
H383 H 0.18606 0.8809 0.22476 0.0
H384 H 0.22548 0.91165 0.15005 0.0
H385 H 0.20229 0.89572 0.17544 0.0
H386 H 0.19293 0.92821 0.11661 0.0
H387 H 0.16959 0.91177 0.14178 0.0
N388 N 0.15517 0.87709 0.16178 0.0
N389 N 0.15498 0.87717 0.2055 0.0
C390 C 0.30064 0.08754 0.81146 0.0
C391 C 0.28711 0.07586 0.7969 0.0
C392 C 0.2986 0.09955 0.82474 0.0
C393 C 0.28302 0.10015 0.82375 0.0
C394 C 0.27127 0.07611 0.79659 0.0
C395 C 0.26935 0.0883 0.80968 0.0
C396 C 0.28173 0.11436 0.83561 0.0
C397 C 0.28303 0.0778 0.88603 0.0
C398 C 0.29619 0.08664 0.90224 0.0
C399 C 0.27902 0.08752 0.87154 0.0
C400 C 0.28831 0.10625 0.87283 0.0
C401 C 0.30494 0.10532 0.90388 0.0
C402 C 0.30114 0.11495 0.88932 0.0
C403 C 0.28459 0.11733 0.8582 0.0
C404 C 0.28484 0.18695 0.87368 0.0
C405 C 0.29976 0.19494 0.88755 0.0
C406 C 0.27954 0.17044 0.86335 0.0
C407 C 0.28918 0.16178 0.86668 0.0
C408 C 0.3089 0.18586 0.89145 0.0
C409 C 0.30366 0.16949 0.88115 0.0
C410 C 0.2847 0.14476 0.85536 0.0
C411 C 0.30127 0.18614 0.80624 0.0
C412 C 0.28678 0.18472 0.79468 0.0
C413 C 0.2997 0.17194 0.81803 0.0
C414 C 0.28361 0.15602 0.81858 0.0
C415 C 0.27085 0.16842 0.79437 0.0
C416 C 0.2693 0.15413 0.8062 0.0
C417 C 0.28181 0.14183 0.83283 0.0
H418 H 0.31312 0.088 0.81195 0.0
H419 H 0.30947 0.10886 0.83517 0.0
H420 H 0.26042 0.06712 0.78594 0.0
H421 H 0.25726 0.08862 0.80861 0.0
H422 H 0.27603 0.0634 0.88433 0.0
H423 H 0.26863 0.0804 0.8595 0.0
H424 H 0.31481 0.11259 0.91646 0.0
H425 H 0.30842 0.12936 0.89095 0.0
H426 H 0.27753 0.19366 0.87041 0.0
H427 H 0.26805 0.16455 0.8527 0.0
H428 H 0.32022 0.19148 0.90238 0.0
H429 H 0.31125 0.16304 0.88416 0.0
H430 H 0.31385 0.19832 0.80639 0.0
H431 H 0.31099 0.17353 0.82717 0.0
H432 H 0.25944 0.16691 0.78565 0.0
H433 H 0.2568 0.14187 0.80635 0.0
N434 N 0.28032 0.12669 0.82379 0.0
N435 N 0.28586 0.13237 0.86701 0.0
C436 C 0.89892 0.1729 0.89019 0.0
C437 C 0.89446 0.18357 0.90299 0.0
C438 C 0.88646 0.15948 0.8762 0.0
C439 C 0.86925 0.15631 0.87491 0.0
C440 C 0.87706 0.18007 0.90176 0.0
C441 C 0.86459 0.16647 0.88811 0.0
C442 C 0.85599 0.14264 0.8597 0.0
C443 C 0.89172 0.18798 0.8196 0.0
C444 C 0.90145 0.18427 0.8048 0.0
C445 C 0.87804 0.17431 0.83036 0.0
C446 C 0.87386 0.15658 0.82682 0.0
C447 C 0.89711 0.16646 0.80099 0.0
C448 C 0.88335 0.15271 0.81187 0.0
C449 C 0.85862 0.14214 0.83737 0.0
C450 C 0.78608 0.09296 0.801 0.0
C451 C 0.79018 0.08536 0.78337 0.0
C452 C 0.79872 0.10315 0.81701 0.0
C453 C 0.81561 0.10538 0.81641 0.0
C454 C 0.80717 0.08777 0.78271 0.0
C455 C 0.81968 0.0976 0.79905 0.0
C456 C 0.82962 0.1173 0.83234 0.0
C457 C 0.78639 0.07717 0.87382 0.0
C458 C 0.77893 0.08513 0.88648 0.0
C459 C 0.80195 0.08775 0.86311 0.0
C460 C 0.81026 0.1064 0.86509 0.0
C461 C 0.78728 0.10378 0.88827 0.0
C462 C 0.80285 0.1143 0.87782 0.0
C463 C 0.82698 0.11802 0.85472 0.0
H464 H 0.91203 0.17487 0.89093 0.0
H465 H 0.89027 0.15159 0.86639 0.0
H466 H 0.87309 0.18814 0.91087 0.0
H467 H 0.85138 0.16428 0.88731 0.0
H468 H 0.89432 0.20146 0.82242 0.0
H469 H 0.87042 0.17758 0.84107 0.0
H470 H 0.90435 0.16319 0.78966 0.0
H471 H 0.8801 0.13906 0.80862 0.0
H472 H 0.77315 0.0913 0.80239 0.0
H473 H 0.79531 0.10968 0.82947 0.0
H474 H 0.81108 0.08256 0.76925 0.0
H475 H 0.8327 0.09942 0.79789 0.0
H476 H 0.78021 0.06281 0.87222 0.0
H477 H 0.8076 0.08142 0.85356 0.0
H478 H 0.78201 0.11028 0.89822 0.0
H479 H 0.80913 0.12866 0.87964 0.0
N480 N 0.84025 0.13066 0.86745 0.0
N481 N 0.84542 0.12941 0.82461 0.0
C482 C 0.79419 0.71878 0.90654 0.0
C483 C 0.7863 0.7032 0.91849 0.0
C484 C 0.80971 0.72368 0.89583 0.0
C485 C 0.81752 0.71303 0.89688 0.0
C486 C 0.79459 0.69306 0.92027 0.0
C487 C 0.81011 0.69799 0.90968 0.0
C488 C 0.83295 0.71691 0.88407 0.0
C489 C 0.78879 0.69973 0.83482 0.0
C490 C 0.79207 0.71066 0.81701 0.0
C491 C 0.80214 0.70315 0.84984 0.0
C492 C 0.81894 0.7181 0.84809 0.0
C493 C 0.80882 0.72581 0.81552 0.0
C494 C 0.82205 0.7295 0.83091 0.0
C495 C 0.83392 0.72033 0.86178 0.0
C496 C 0.8889 0.70763 0.83031 0.0
C497 C 0.897 0.72126 0.81546 0.0
C498 C 0.87825 0.70854 0.84604 0.0
C499 C 0.87565 0.72319 0.8474 0.0
C500 C 0.89489 0.73622 0.81729 0.0
C501 C 0.88415 0.73709 0.83302 0.0
C502 C 0.86205 0.72269 0.86137 0.0
C503 C 0.90393 0.72409 0.90473 0.0
C504 C 0.89802 0.70843 0.91633 0.0
C505 C 0.89194 0.72773 0.89429 0.0
C506 C 0.87385 0.71577 0.89529 0.0
C507 C 0.87991 0.69679 0.9178 0.0
C508 C 0.86797 0.70047 0.9075 0.0
C509 C 0.86083 0.71867 0.88345 0.0
H510 H 0.7881 0.72687 0.90492 0.0
H511 H 0.81539 0.73553 0.88635 0.0
H512 H 0.789 0.68119 0.92973 0.0
H513 H 0.81598 0.68966 0.91087 0.0
H514 H 0.77604 0.68812 0.83684 0.0
H515 H 0.79941 0.69356 0.8622 0.0
H516 H 0.81208 0.73442 0.80191 0.0
H517 H 0.83496 0.7409 0.82889 0.0
H518 H 0.89044 0.69602 0.8294 0.0
H519 H 0.87142 0.69738 0.85647 0.0
H520 H 0.90087 0.74684 0.80595 0.0
H521 H 0.88204 0.74835 0.83356 0.0
H522 H 0.91781 0.73332 0.90333 0.0
H523 H 0.8968 0.7398 0.88531 0.0
H524 H 0.87495 0.68479 0.92694 0.0
H525 H 0.8541 0.6911 0.90865 0.0
N526 N 0.84634 0.716 0.89393 0.0
N527 N 0.84858 0.72336 0.85149 0.0
C528 C 0.76471 0.60366 0.44559 0.0
C529 C 0.77136 0.61797 0.43154 0.0
C530 C 0.77608 0.6007 0.45857 0.0
C531 C 0.79431 0.61224 0.45809 0.0
C532 C 0.78958 0.6293 0.43085 0.0
C533 C 0.80089 0.62645 0.44393 0.0
C534 C 0.8068 0.60966 0.47177 0.0
C535 C 0.77654 0.6206 0.52202 0.0
C536 C 0.7685 0.60748 0.53748 0.0
C537 C 0.78728 0.61929 0.50675 0.0
C538 C 0.78998 0.60468 0.50643 0.0
C539 C 0.77053 0.59243 0.53649 0.0
C540 C 0.78129 0.59112 0.52118 0.0
C541 C 0.80418 0.60515 0.49373 0.0
C542 C 0.87448 0.62783 0.52932 0.0
C543 C 0.8709 0.61456 0.54432 0.0
C544 C 0.86226 0.6251 0.51295 0.0
C545 C 0.84624 0.60901 0.51109 0.0
C546 C 0.8551 0.5982 0.54191 0.0
C547 C 0.84283 0.59553 0.52558 0.0
C548 C 0.83217 0.60727 0.49619 0.0
C549 C 0.87446 0.60982 0.45533 0.0
C550 C 0.88321 0.6257 0.44406 0.0
C551 C 0.85855 0.60501 0.46496 0.0
C552 C 0.85114 0.61599 0.46341 0.0
C553 C 0.87555 0.63644 0.44217 0.0
C554 C 0.85961 0.63156 0.45162 0.0
C555 C 0.83476 0.6116 0.47427 0.0
H556 H 0.75074 0.59455 0.44623 0.0
H557 H 0.77062 0.5893 0.46881 0.0
H558 H 0.79511 0.64055 0.42036 0.0
H559 H 0.81486 0.63556 0.44316 0.0
H560 H 0.77504 0.63225 0.52225 0.0
H561 H 0.79423 0.6302 0.49602 0.0
H562 H 0.76461 0.58219 0.5483 0.0
H563 H 0.78345 0.57989 0.52144 0.0
H564 H 0.88632 0.64071 0.53089 0.0
H565 H 0.86498 0.63596 0.50245 0.0
H566 H 0.852 0.5876 0.55297 0.0
H567 H 0.83048 0.58309 0.52458 0.0
H568 H 0.88007 0.60129 0.45699 0.0
H569 H 0.85208 0.59277 0.47369 0.0
H570 H 0.88186 0.64859 0.43325 0.0
H571 H 0.85407 0.64017 0.45012 0.0
N572 N 0.82203 0.61269 0.46294 0.0
N573 N 0.81693 0.60407 0.50496 0.0
C574 C 0.36828 0.24207 0.49449 0.0
C575 C 0.37973 0.25248 0.47842 0.0
C576 C 0.37278 0.23246 0.5083 0.0
C577 C 0.38879 0.23293 0.50635 0.0
C578 C 0.39611 0.2535 0.47712 0.0
C579 C 0.4005 0.24362 0.49081 0.0
C580 C 0.39158 0.21972 0.51755 0.0
C581 C 0.39539 0.25952 0.56746 0.0
C582 C 0.3807 0.25247 0.58057 0.0
C583 C 0.39871 0.2482 0.55448 0.0
C584 C 0.38751 0.22965 0.55464 0.0
C585 C 0.36973 0.2339 0.58097 0.0
C586 C 0.3732 0.22261 0.56829 0.0
C587 C 0.39002 0.21745 0.54 0.0
C588 C 0.39261 0.15867 0.57477 0.0
C589 C 0.37902 0.14184 0.56733 0.0
C590 C 0.39597 0.1741 0.56419 0.0
C591 C 0.38587 0.17307 0.54595 0.0
C592 C 0.3688 0.14093 0.54914 0.0
C593 C 0.37199 0.15638 0.53882 0.0
C594 C 0.38915 0.1896 0.53549 0.0
C595 C 0.37316 0.16024 0.4647 0.0
C596 C 0.37996 0.14891 0.46818 0.0
C597 C 0.37736 0.17452 0.47893 0.0
C598 C 0.38854 0.17794 0.49698 0.0
C599 C 0.39214 0.15303 0.48538 0.0
C600 C 0.39653 0.16756 0.49957 0.0
C601 C 0.39088 0.19201 0.51293 0.0
H602 H 0.35536 0.24046 0.49572 0.0
H603 H 0.36325 0.22377 0.51961 0.0
H604 H 0.40536 0.26154 0.46518 0.0
H605 H 0.41279 0.24389 0.48883 0.0
H606 H 0.40407 0.27379 0.56689 0.0
H607 H 0.40992 0.25393 0.54421 0.0
H608 H 0.35845 0.2281 0.59114 0.0
H609 H 0.36437 0.20835 0.56867 0.0
H610 H 0.40049 0.16001 0.589 0.0
H611 H 0.40648 0.18688 0.5703 0.0
H612 H 0.35833 0.12826 0.54274 0.0
H613 H 0.36357 0.15527 0.52527 0.0
H614 H 0.36414 0.15777 0.45127 0.0
H615 H 0.37121 0.18246 0.47626 0.0
H616 H 0.39767 0.1446 0.48845 0.0
H617 H 0.40566 0.17027 0.51294 0.0
N618 N 0.39204 0.20701 0.50501 0.0
N619 N 0.38893 0.2025 0.54812 0.0
C620 C 0.77987 0.14332 0.4673 0.0
C621 C 0.76926 0.14352 0.45027 0.0
C622 C 0.79233 0.15909 0.47778 0.0
C623 C 0.79452 0.17548 0.47152 0.0
C624 C 0.77203 0.16006 0.44331 0.0
C625 C 0.78466 0.17596 0.45382 0.0
C626 C 0.80704 0.19187 0.48387 0.0
C627 C 0.75958 0.16003 0.5222 0.0
C628 C 0.76295 0.15412 0.54164 0.0
C629 C 0.77332 0.17352 0.51109 0.0
C630 C 0.79071 0.18084 0.51887 0.0
C631 C 0.78017 0.16225 0.5501 0.0
C632 C 0.79391 0.17545 0.5388 0.0
C633 C 0.80576 0.19378 0.50637 0.0
C634 C 0.87132 0.26143 0.53443 0.0
C635 C 0.87724 0.25446 0.55066 0.0
C636 C 0.85768 0.24995 0.52003 0.0
C637 C 0.8496 0.23142 0.52207 0.0
C638 C 0.86928 0.23594 0.55237 0.0
C639 C 0.85545 0.22454 0.53839 0.0
C640 C 0.83468 0.21887 0.50791 0.0
C641 C 0.88272 0.23727 0.46859 0.0
C642 C 0.88252 0.24542 0.44932 0.0
C643 C 0.86765 0.2285 0.4806 0.0
C644 C 0.85215 0.22798 0.47381 0.0
C645 C 0.867 0.24494 0.44259 0.0
C646 C 0.85192 0.2362 0.45468 0.0
C647 C 0.83577 0.21732 0.48536 0.0
H648 H 0.7785 0.1309 0.47266 0.0
H649 H 0.80012 0.15848 0.49105 0.0
H650 H 0.76411 0.16067 0.4302 0.0
H651 H 0.78634 0.18855 0.44863 0.0
H652 H 0.74636 0.15409 0.51553 0.0
H653 H 0.77036 0.17795 0.49624 0.0
H654 H 0.78311 0.15783 0.565 0.0
H655 H 0.80715 0.18096 0.5453 0.0
H656 H 0.87726 0.2757 0.5329 0.0
H657 H 0.85323 0.25548 0.50761 0.0
H658 H 0.87349 0.23027 0.56491 0.0
H659 H 0.84936 0.21028 0.54024 0.0
H660 H 0.89448 0.23748 0.47429 0.0
H661 H 0.86801 0.22169 0.49485 0.0
H662 H 0.86634 0.25084 0.42765 0.0
H663 H 0.83999 0.23564 0.44894 0.0
N664 N 0.82189 0.20385 0.47416 0.0
N665 N 0.81972 0.2071 0.51748 0.0
C666 C 0.95213 0.51446 0.12304 0.0
C667 C 0.96733 0.52605 0.11199 0.0
C668 C 0.9514 0.50059 0.13484 0.0
C669 C 0.96564 0.49769 0.13538 0.0
C670 C 0.98139 0.52269 0.11216 0.0
C671 C 0.98043 0.50849 0.1235 0.0
C672 C 0.96564 0.48434 0.14969 0.0
C673 C 0.9858 0.53371 0.19128 0.0
C674 C 0.97397 0.53328 0.2065 0.0
C675 C 0.98245 0.51832 0.17981 0.0
C676 C 0.96718 0.50209 0.18322 0.0
C677 C 0.95868 0.51694 0.21002 0.0
C678 C 0.95539 0.50142 0.19857 0.0
C679 C 0.96473 0.48572 0.17224 0.0
C680 C 0.98818 0.43871 0.20704 0.0
C681 C 0.9772 0.4318 0.22468 0.0
C682 C 0.98408 0.44681 0.19055 0.0
C683 C 0.96883 0.448 0.19129 0.0
C684 C 0.96168 0.43253 0.22512 0.0
C685 C 0.95762 0.44073 0.20863 0.0
C686 C 0.96605 0.4592 0.176 0.0
C687 C 0.96072 0.41287 0.13545 0.0
C688 C 0.97417 0.41782 0.12064 0.0
C689 C 0.95855 0.42587 0.14639 0.0
C690 C 0.96971 0.44402 0.14255 0.0
C691 C 0.98538 0.43599 0.11701 0.0
C692 C 0.98307 0.44893 0.12771 0.0
C693 C 0.96738 0.45801 0.1534 0.0
H694 H 0.9408 0.51615 0.12284 0.0
H695 H 0.93981 0.49225 0.14382 0.0
H696 H 0.99345 0.53138 0.10426 0.0
H697 H 0.99161 0.50651 0.1239 0.0
H698 H 0.99798 0.54587 0.1886 0.0
H699 H 0.9921 0.51902 0.16872 0.0
H700 H 0.94927 0.51613 0.22156 0.0
H701 H 0.94369 0.48892 0.20169 0.0
H702 H 0.00013 0.43814 0.20616 0.0
H703 H 0.99324 0.45282 0.17774 0.0
H704 H 0.95304 0.42739 0.23859 0.0
H705 H 0.94596 0.44183 0.20969 0.0
H706 H 0.95188 0.39896 0.13853 0.0
H707 H 0.94799 0.42175 0.15756 0.0
H708 H 0.99568 0.44019 0.10545 0.0
H709 H 0.99179 0.46284 0.12445 0.0
N710 N 0.9671 0.47065 0.14104 0.0
N711 N 0.96481 0.47304 0.18454 0.0
C712 C 0.45915 0.399 0.14283 0.0
C713 C 0.4504 0.40539 0.1299 0.0
C714 C 0.47295 0.41065 0.15695 0.0
C715 C 0.47832 0.42887 0.15791 0.0
C716 C 0.45551 0.42353 0.13148 0.0
C717 C 0.46945 0.43516 0.14517 0.0
C718 C 0.49386 0.44185 0.17089 0.0
C719 C 0.45122 0.41497 0.21849 0.0
C720 C 0.45478 0.4061 0.23479 0.0
C721 C 0.46428 0.42597 0.20461 0.0
C722 C 0.48113 0.42821 0.20656 0.0
C723 C 0.47162 0.40818 0.23653 0.0
C724 C 0.4847 0.41924 0.22261 0.0
C725 C 0.49541 0.44138 0.1935 0.0
C726 C 0.54747 0.51628 0.21687 0.0
C727 C 0.55708 0.5147 0.23411 0.0
C728 C 0.53651 0.50158 0.20352 0.0
C729 C 0.53509 0.48495 0.20681 0.0
C730 C 0.55573 0.49806 0.23739 0.0
C731 C 0.54468 0.48327 0.22396 0.0
C732 C 0.52232 0.46913 0.19363 0.0
C733 C 0.56327 0.50548 0.14804 0.0
C734 C 0.55675 0.51259 0.13275 0.0
C735 C 0.55175 0.49128 0.16052 0.0
C736 C 0.53357 0.484 0.15777 0.0
C737 C 0.53857 0.50492 0.12965 0.0
C738 C 0.52711 0.49072 0.14194 0.0
C739 C 0.52098 0.46923 0.17088 0.0
H740 H 0.45546 0.38507 0.14183 0.0
H741 H 0.47976 0.40559 0.16654 0.0
H742 H 0.44917 0.42886 0.12148 0.0
H743 H 0.47346 0.44919 0.14565 0.0
H744 H 0.43856 0.41405 0.21702 0.0
H745 H 0.46136 0.43329 0.19293 0.0
H746 H 0.47475 0.40144 0.2488 0.0
H747 H 0.49769 0.42098 0.22456 0.0
H748 H 0.54834 0.52892 0.21373 0.0
H749 H 0.52883 0.50315 0.19088 0.0
H750 H 0.56284 0.49638 0.25065 0.0
H751 H 0.54353 0.4705 0.22705 0.0
H752 H 0.57725 0.5112 0.15074 0.0
H753 H 0.55702 0.48605 0.17232 0.0
H754 H 0.5332 0.51001 0.11778 0.0
H755 H 0.51314 0.48522 0.1394 0.0
N756 N 0.50673 0.45569 0.1605 0.0
N757 N 0.50958 0.45505 0.20403 0.0
C758 C 0.45851 0.03806 0.23103 0.0
C759 C 0.45002 0.02418 0.24548 0.0
C760 C 0.47151 0.03872 0.21787 0.0
C761 C 0.47625 0.02554 0.21903 0.0
C762 C 0.45484 0.01105 0.24659 0.0
C763 C 0.46794 0.01182 0.23362 0.0
C764 C 0.49037 0.02629 0.20587 0.0
C765 C 0.4459 0.01344 0.15841 0.0
C766 C 0.45016 0.02458 0.14065 0.0
C767 C 0.45899 0.0148 0.17264 0.0
C768 C 0.47663 0.02766 0.16981 0.0
C769 C 0.46783 0.03752 0.13797 0.0
C770 C 0.48087 0.03903 0.15238 0.0
C771 C 0.49093 0.02812 0.18325 0.0
C772 C 0.54844 0.01407 0.15903 0.0
C773 C 0.55572 0.02599 0.14214 0.0
C774 C 0.53634 0.01486 0.1725 0.0
C775 C 0.53162 0.02795 0.16983 0.0
C776 C 0.55082 0.03896 0.13935 0.0
C777 C 0.53888 0.0399 0.15305 0.0
C778 C 0.51807 0.0283 0.18321 0.0
C779 C 0.56186 0.03761 0.2295 0.0
C780 C 0.55724 0.02334 0.24326 0.0
C781 C 0.54899 0.03874 0.21734 0.0
C782 C 0.53126 0.02564 0.21878 0.0
C783 C 0.53947 0.0104 0.24487 0.0
C784 C 0.5266 0.01164 0.2329 0.0
C785 C 0.51747 0.02644 0.20581 0.0
H786 H 0.45503 0.04834 0.22987 0.0
H787 H 0.478 0.0496 0.20698 0.0
H788 H 0.44871 0.00036 0.25781 0.0
H789 H 0.47153 0.00162 0.2349 0.0
H790 H 0.43246 0.00342 0.16117 0.0
H791 H 0.45531 0.00535 0.18539 0.0
H792 H 0.47175 0.0461 0.12429 0.0
H793 H 0.49438 0.04887 0.14958 0.0
H794 H 0.55202 0.00403 0.16187 0.0
H795 H 0.53044 0.00499 0.18472 0.0
H796 H 0.5559 0.04816 0.12631 0.0
H797 H 0.53518 0.04989 0.15041 0.0
H798 H 0.57545 0.04776 0.22792 0.0
H799 H 0.55286 0.04983 0.2068 0.0
H800 H 0.53549 -0.0006 0.25558 0.0
H801 H 0.513 0.00147 0.23439 0.0
N802 N 0.50358 0.0254 0.21622 0.0
N803 N 0.50484 0.02916 0.17289 0.0
C804 C 0.55847 0.98858 0.80396 0.0
C805 C 0.5568 0.97908 0.78458 0.0
C806 C 0.54381 0.98433 0.81617 0.0
C807 C 0.52724 0.97024 0.80951 0.0
C808 C 0.54014 0.96508 0.77787 0.0
C809 C 0.52551 0.96075 0.79018 0.0
C810 C 0.51149 0.96615 0.82174 0.0
C811 C 0.54587 0.95593 0.86768 0.0
C812 C 0.54923 0.96473 0.88794 0.0
C813 C 0.53352 0.95595 0.85321 0.0
C814 C 0.52479 0.96527 0.85855 0.0
C815 C 0.54053 0.974 0.89325 0.0
C816 C 0.52851 0.97434 0.87869 0.0
C817 C 0.51072 0.96466 0.84443 0.0
C818 C 0.43683 0.94588 0.86354 0.0
C819 C 0.44049 0.95818 0.88071 0.0
C820 C 0.45043 0.947 0.85115 0.0
C821 C 0.4678 0.96036 0.85592 0.0
C822 C 0.45791 0.97125 0.88567 0.0
C823 C 0.47145 0.97224 0.8735 0.0
C824 C 0.48245 0.96193 0.84324 0.0
C825 C 0.45177 0.97792 0.79977 0.0
C826 C 0.44434 0.96685 0.78118 0.0
C827 C 0.46423 0.97668 0.81267 0.0
C828 C 0.46945 0.96424 0.80741 0.0
C829 C 0.44968 0.95445 0.77592 0.0
C830 C 0.46219 0.95327 0.78882 0.0
C831 C 0.4831 0.96328 0.82061 0.0
H832 H 0.57109 -0.00062 0.80968 0.0
H833 H 0.54541 0.99224 0.83067 0.0
H834 H 0.5383 0.95772 0.76281 0.0
H835 H 0.51281 0.95004 0.78454 0.0
H836 H 0.55232 0.94852 0.8634 0.0
H837 H 0.53051 0.94832 0.83815 0.0
H838 H 0.54297 0.98093 0.90877 0.0
H839 H 0.52195 0.98156 0.88333 0.0
H840 H 0.42347 0.93572 0.85941 0.0
H841 H 0.4474 0.93749 0.83789 0.0
H842 H 0.46105 0.98077 0.89897 0.0
H843 H 0.4848 0.98252 0.87756 0.0
H844 H 0.44831 0.98788 0.80408 0.0
H845 H 0.47004 0.98571 0.82655 0.0
H846 H 0.44413 0.94558 0.76188 0.0
H847 H 0.46611 0.94367 0.78435 0.0
N848 N 0.49756 0.96523 0.81071 0.0
N849 N 0.49624 0.9627 0.85417 0.0
C850 C 0.01083 0.55401 0.79069 0.0
C851 C 0.0205 0.57269 0.79255 0.0
C852 C 0.01467 0.54372 0.80418 0.0
C853 C 0.02825 0.55183 0.81986 0.0
C854 C 0.0346 0.58086 0.80768 0.0
C855 C 0.03852 0.5705 0.82116 0.0
C856 C 0.03147 0.5403 0.83421 0.0
C857 C 0.0441 0.57976 0.89795 0.0
C858 C 0.03072 0.58375 0.89394 0.0
C859 C 0.04496 0.56653 0.88572 0.0
C860 C 0.03249 0.55696 0.86917 0.0
C861 C 0.01813 0.57401 0.87744 0.0
C862 C 0.01887 0.5606 0.86541 0.0
C863 C 0.03332 0.54253 0.85697 0.0
C864 C 0.04836 0.48371 0.88017 0.0
C865 C 0.03615 0.47548 0.89638 0.0
C866 C 0.04848 0.49734 0.86841 0.0
C867 C 0.03645 0.50302 0.87274 0.0
C868 C 0.0246 0.48168 0.90124 0.0
C869 C 0.02487 0.49545 0.88966 0.0
C870 C 0.03511 0.51601 0.85893 0.0
C871 C 0.01267 0.46543 0.81752 0.0
C872 C 0.02139 0.46701 0.7982 0.0
C873 C 0.01683 0.48048 0.83041 0.0
C874 C 0.02997 0.4974 0.8244 0.0
C875 C 0.03479 0.48392 0.79243 0.0
C876 C 0.03894 0.49899 0.80534 0.0
C877 C 0.03278 0.51359 0.8363 0.0
H878 H 0.00016 0.54729 0.77888 0.0
H879 H 0.00672 0.52934 0.80262 0.0
H880 H 0.04229 0.59524 0.80949 0.0
H881 H 0.04939 0.57706 0.83272 0.0
H882 H 0.05376 0.58657 0.91087 0.0
H883 H 0.05539 0.56375 0.88924 0.0
H884 H 0.00767 0.57669 0.87376 0.0
H885 H 0.00868 0.55299 0.85329 0.0
H886 H 0.05737 0.47916 0.87604 0.0
H887 H 0.05767 0.50315 0.85558 0.0
H888 H 0.01518 0.4757 0.91382 0.0
H889 H 0.01552 0.49968 0.89331 0.0
H890 H 0.0024 0.45256 0.82251 0.0
H891 H 0.00932 0.47893 0.84465 0.0
H892 H 0.04161 0.48559 0.77753 0.0
H893 H 0.04891 0.51196 0.80022 0.0
N894 N 0.03119 0.52588 0.8249 0.0
N895 N 0.03522 0.53034 0.86842 0.0
C896 C 0.54007 0.59735 0.78895 0.0
C897 C 0.54409 0.58857 0.77272 0.0
C898 C 0.52567 0.58766 0.80197 0.0
C899 C 0.51546 0.56901 0.79931 0.0
C900 C 0.53379 0.57003 0.76995 0.0
C901 C 0.5197 0.56037 0.78312 0.0
C902 C 0.49994 0.55806 0.81234 0.0
C903 C 0.54258 0.58472 0.86627 0.0
C904 C 0.53962 0.59593 0.88017 0.0
C905 C 0.52996 0.57384 0.85049 0.0
C906 C 0.51419 0.57399 0.84834 0.0
C907 C 0.52419 0.5967 0.87703 0.0
C908 C 0.51153 0.58567 0.86149 0.0
C909 C 0.49946 0.56024 0.83492 0.0
C910 C 0.44644 0.48799 0.859 0.0
C911 C 0.43889 0.49139 0.87694 0.0
C912 C 0.45679 0.50158 0.84528 0.0
C913 C 0.45947 0.51881 0.84878 0.0
C914 C 0.44157 0.50865 0.88048 0.0
C915 C 0.45189 0.52228 0.86658 0.0
C916 C 0.47172 0.53346 0.83525 0.0
C917 C 0.42659 0.49424 0.79413 0.0
C918 C 0.43093 0.48562 0.77803 0.0
C919 C 0.43961 0.50984 0.8046 0.0
C920 C 0.4573 0.5168 0.79962 0.0
C921 C 0.44842 0.49335 0.77188 0.0
C922 C 0.46148 0.50878 0.7826 0.0
C923 C 0.47159 0.5319 0.8125 0.0
H924 H 0.54779 0.6117 0.7912 0.0
H925 H 0.52239 0.59481 0.81376 0.0
H926 H 0.53676 0.56295 0.75768 0.0
H927 H 0.51212 0.54603 0.78066 0.0
H928 H 0.55417 0.58358 0.86831 0.0
H929 H 0.53211 0.56465 0.84074 0.0
H930 H 0.52162 0.60544 0.88705 0.0
H931 H 0.49939 0.5859 0.86013 0.0
H932 H 0.44446 0.47481 0.8556 0.0
H933 H 0.463 0.49867 0.83214 0.0
H934 H 0.43609 0.51173 0.89429 0.0
H935 H 0.45411 0.53558 0.86984 0.0
H936 H 0.41315 0.48869 0.79894 0.0
H937 H 0.43589 0.51612 0.81706 0.0
H938 H 0.45215 0.48695 0.75958 0.0
H939 H 0.47498 0.51396 0.77822 0.0
N940 N 0.48584 0.54412 0.80207 0.0
N941 N 0.48542 0.54778 0.84546 0.0
C942 C 0.6419 0.75293 0.48254 0.0
C943 C 0.62984 0.74323 0.46554 0.0
C944 C 0.63995 0.76523 0.49531 0.0
C945 C 0.62553 0.76769 0.49197 0.0
C946 C 0.61555 0.74594 0.46204 0.0
C947 C 0.61344 0.75802 0.47511 0.0
C948 C 0.6239 0.78148 0.5046 0.0
C949 C 0.6261 0.74415 0.55265 0.0
C950 C 0.64056 0.75289 0.56719 0.0
C951 C 0.62104 0.75402 0.53984 0.0
C952 C 0.63053 0.77273 0.54126 0.0
C953 C 0.64936 0.77154 0.56931 0.0
C954 C 0.64442 0.78132 0.5565 0.0
C955 C 0.62647 0.78387 0.52729 0.0
C956 C 0.62322 0.85129 0.54591 0.0
C957 C 0.63794 0.85952 0.5601 0.0
C958 C 0.61881 0.83526 0.53491 0.0
C959 C 0.62915 0.82731 0.53782 0.0
C960 C 0.64777 0.8511 0.56362 0.0
C961 C 0.64341 0.8352 0.55263 0.0
C962 C 0.6256 0.81086 0.52575 0.0
C963 C 0.63978 0.85292 0.47766 0.0
C964 C 0.62521 0.85028 0.46511 0.0
C965 C 0.63903 0.83917 0.48964 0.0
C966 C 0.62367 0.82249 0.48942 0.0
C967 C 0.61006 0.8333 0.4642 0.0
C968 C 0.60934 0.81946 0.47622 0.0
C969 C 0.62278 0.8084 0.50316 0.0
H970 H 0.65299 0.75117 0.48595 0.0
H971 H 0.64994 0.77304 0.50755 0.0
H972 H 0.60621 0.73912 0.44882 0.0
H973 H 0.60244 0.75998 0.47187 0.0
H974 H 0.61905 0.72977 0.55072 0.0
H975 H 0.60997 0.74707 0.52862 0.0
H976 H 0.66027 0.77864 0.58072 0.0
H977 H 0.65183 0.79573 0.55814 0.0
H978 H 0.61539 0.85747 0.54287 0.0
H979 H 0.60746 0.8292 0.52401 0.0
H980 H 0.65896 0.85689 0.57477 0.0
H981 H 0.65151 0.82927 0.55537 0.0
H982 H 0.65181 0.86567 0.47827 0.0
H983 H 0.65039 0.84162 0.49932 0.0
H984 H 0.59862 0.83085 0.45471 0.0
H985 H 0.59745 0.80659 0.4757 0.0
N986 N 0.62192 0.79376 0.49345 0.0
N987 N 0.62724 0.79846 0.5368 0.0
C988 C 0.12772 0.74074 0.47495 0.0
C989 C 0.12589 0.74793 0.45564 0.0
C990 C 0.13897 0.75197 0.4917 0.0
C991 C 0.14818 0.77057 0.48956 0.0
C992 C 0.1351 0.76647 0.45357 0.0
C993 C 0.14605 0.77763 0.47031 0.0
C994 C 0.16086 0.78301 0.50636 0.0
C995 C 0.10976 0.75721 0.54046 0.0
C996 C 0.1095 0.74915 0.56 0.0
C997 C 0.12543 0.76725 0.52989 0.0
C998 C 0.14114 0.76906 0.53827 0.0
C999 C 0.12519 0.75073 0.56818 0.0
C1000 C 0.14085 0.76063 0.55745 0.0
C1001 C 0.1581 0.78164 0.52885 0.0
C1002 C 0.20998 0.85342 0.56384 0.0
C1003 C 0.21931 0.85059 0.58038 0.0
C1004 C 0.19903 0.83963 0.54933 0.0
C1005 C 0.19724 0.82271 0.55092 0.0
C1006 C 0.21738 0.83356 0.58209 0.0
C1007 C 0.20627 0.81966 0.56757 0.0
C1008 C 0.18567 0.80828 0.53529 0.0
C1009 C 0.23332 0.84732 0.49947 0.0
C1010 C 0.22901 0.8566 0.48457 0.0
C1011 C 0.22009 0.83204 0.50884 0.0
C1012 C 0.20245 0.8258 0.50318 0.0
C1013 C 0.21137 0.85018 0.47883 0.0
C1014 C 0.19823 0.83485 0.4879 0.0
C1015 C 0.18809 0.80992 0.51288 0.0
H1016 H 0.12082 0.72646 0.47685 0.0
H1017 H 0.1407 0.74608 0.50608 0.0
H1018 H 0.13376 0.77238 0.43896 0.0
H1019 H 0.15293 0.79189 0.46814 0.0
H1020 H 0.09792 0.75614 0.53355 0.0
H1021 H 0.12531 0.77414 0.51559 0.0
H1022 H 0.12556 0.74498 0.58337 0.0
H1023 H 0.15285 0.76213 0.56447 0.0
H1024 H 0.21132 0.86642 0.56189 0.0
H1025 H 0.19197 0.8422 0.5368 0.0
H1026 H 0.22431 0.83095 0.59475 0.0
H1027 H 0.20492 0.80663 0.56915 0.0
H1028 H 0.24687 0.85205 0.50412 0.0
H1029 H 0.22361 0.82511 0.52043 0.0
H1030 H 0.20774 0.857 0.46718 0.0
H1031 H 0.1847 0.83021 0.48327 0.0
N1032 N 0.1757 0.79721 0.4994 0.0
N1033 N 0.17077 0.79422 0.54244 0.0
C1034 C 0.23403 0.3856 0.49112 0.0
C1035 C 0.22815 0.37151 0.47575 0.0
C1036 C 0.22213 0.38687 0.50462 0.0
C1037 C 0.20422 0.37408 0.50283 0.0
C1038 C 0.2102 0.35895 0.47379 0.0
C1039 C 0.19835 0.3603 0.4871 0.0
C1040 C 0.19126 0.3753 0.51638 0.0
C1041 C 0.22198 0.36084 0.56161 0.0
C1042 C 0.23148 0.37351 0.57826 0.0
C1043 C 0.20978 0.3624 0.54863 0.0
C1044 C 0.20685 0.37676 0.55184 0.0
C1045 C 0.22857 0.38793 0.58137 0.0
C1046 C 0.21628 0.38945 0.5684 0.0
C1047 C 0.193 0.37769 0.53907 0.0
C1048 C 0.12161 0.36128 0.56418 0.0
C1049 C 0.12544 0.37485 0.57975 0.0
C1050 C 0.13466 0.36218 0.551 0.0
C1051 C 0.15178 0.37674 0.55294 0.0
C1052 C 0.14264 0.3894 0.58173 0.0
C1053 C 0.15571 0.39027 0.56851 0.0
C1054 C 0.16576 0.37729 0.53964 0.0
C1055 C 0.12948 0.38256 0.49094 0.0
C1056 C 0.12105 0.3678 0.47642 0.0
C1057 C 0.14305 0.38452 0.50483 0.0
C1058 C 0.14847 0.37183 0.50423 0.0
C1059 C 0.12623 0.35491 0.47635 0.0
C1060 C 0.13989 0.357 0.48997 0.0
C1061 C 0.16388 0.37442 0.51704 0.0
H1062 H 0.24782 0.39541 0.49296 0.0
H1063 H 0.22688 0.39785 0.51634 0.0
H1064 H 0.20532 0.34806 0.46191 0.0
H1065 H 0.18456 0.35042 0.48528 0.0
H1066 H 0.22352 0.34933 0.55904 0.0
H1067 H 0.20225 0.35207 0.53647 0.0
H1068 H 0.23575 0.39805 0.59388 0.0
H1069 H 0.21412 0.40054 0.57131 0.0
H1070 H 0.10864 0.34966 0.56259 0.0
H1071 H 0.13143 0.35125 0.53963 0.0
H1072 H 0.146 0.40011 0.59348 0.0
H1073 H 0.16889 0.40153 0.57041 0.0
H1074 H 0.12574 0.39268 0.49132 0.0
H1075 H 0.14965 0.39619 0.51552 0.0
H1076 H 0.12018 0.34355 0.46513 0.0
H1077 H 0.14395 0.34712 0.48917 0.0
N1078 N 0.17671 0.37359 0.50634 0.0
N1079 N 0.18025 0.37882 0.54984 0.0
H1080 H 0.96008 0.34439 0.01799 0.0
H1081 H 0.00422 0.41703 0.11279 0.0
H1082 H 0.01265 0.36282 0.04232 0.0
H1083 H 0.94847 0.38775 0.09962 0.0
H1084 H 0.00745 0.39641 0.08838 0.0
H1085 H 0.95517 0.35886 0.04906 0.0
C1086 C 0.97052 0.35128 0.03005 0.0
C1087 C 0.98686 0.35253 0.02745 0.0
C1088 C 0.99447 0.39433 0.09106 0.0
C1089 C 0.98142 0.36942 0.06294 0.0
C1090 C 0.99264 0.40615 0.10489 0.0
C1091 C 0.97607 0.40418 0.10807 0.0
C1092 C 0.97966 0.3806 0.08005 0.0
C1093 C 0.96148 0.38972 0.09767 0.0
C1094 C 0.9677 0.35953 0.04782 0.0
C1095 C -0.00014 0.36153 0.04367 0.0
N1096 N 0.96364 0.37864 0.08389 0.0
N1097 N 0.99697 0.36989 0.06055 0.0
H1098 H 0.61113 0.6185 0.08617 0.0
H1099 H 0.58617 0.51917 0.1109 0.0
H1100 H 0.63252 0.59138 0.04957 0.0
H1101 H 0.55439 0.54226 0.12748 0.0
H1102 H 0.60535 0.54601 0.0909 0.0
H1103 H 0.59216 0.5911 0.10394 0.0
C1104 C 0.6117 0.60673 0.08159 0.0
C1105 C 0.62328 0.60723 0.06604 0.0
C1106 C 0.59412 0.54509 0.09885 0.0
C1107 C 0.60171 0.57568 0.08693 0.0
C1108 C 0.58328 0.5299 0.11035 0.0
C1109 C 0.56868 0.52853 0.12074 0.0
C1110 C 0.5904 0.55903 0.09815 0.0
C1111 C 0.5654 0.5427 0.11949 0.0
C1112 C 0.60087 0.59104 0.09188 0.0
C1113 C 0.62367 0.59154 0.06132 0.0
N1114 N 0.57621 0.55736 0.10849 0.0
N1115 N 0.61307 0.57635 0.07184 0.0
H1116 H 0.36152 0.98074 0.04959 0.0
H1117 H 0.44788 0.05005 0.11724 0.0
H1118 H 0.39988 0.03169 0.02568 0.0
H1119 H 0.42117 0.99326 0.12625 0.0
H1120 H 0.42698 0.04514 0.08789 0.0
H1121 H 0.37986 0.98698 0.08229 0.0
C1122 C 0.37369 0.99332 0.05131 0.0
C1123 C 0.37924 0.00566 0.03478 0.0
C1124 C 0.42567 0.0338 0.09645 0.0
C1125 C 0.40019 0.01288 0.07218 0.0
C1126 C 0.43765 0.03656 0.11314 0.0
C1127 C 0.4365 0.02205 0.12421 0.0
C1128 C 0.41226 0.01644 0.0909 0.0
C1129 C 0.42257 0.00492 0.11846 0.0
C1130 C 0.38417 0.99682 0.06992 0.0
C1131 C 0.39516 0.02173 0.0379 0.0
N1132 N 0.41106 0.0026 0.10218 0.0
N1133 N 0.40508 0.02487 0.05622 0.0
H1134 H 0.36959 0.98777 0.93373 0.0
H1135 H 0.413 0.93009 0.90004 0.0
H1136 H 0.3582 0.94036 0.96766 0.0
H1137 H 0.43571 0.98618 0.88885 0.0
H1138 H 0.38998 0.9311 0.92095 0.0
H1139 H 0.39094 0.98474 0.91295 0.0
C1140 C 0.37168 0.97678 0.93701 0.0
C1141 C 0.36234 0.96452 0.95285 0.0
C1142 C 0.40006 0.94314 0.91392 0.0
C1143 C 0.3867 0.96077 0.92858 0.0
C1144 C 0.41306 0.94255 0.90193 0.0
C1145 C 0.42623 0.95811 0.89286 0.0
C1146 C 0.40017 0.95931 0.91638 0.0
C1147 C 0.42587 0.97395 0.89578 0.0
C1148 C 0.38387 0.97503 0.92501 0.0
C1149 C 0.36528 0.95022 0.95576 0.0
N1150 N 0.41302 0.97412 0.90721 0.0
N1151 N 0.37727 0.94872 0.9437 0.0
H1152 H 0.00068 0.36822 0.93503 0.0
H1153 H 0.06258 0.47137 0.91402 0.0
H1154 H 0.05132 0.39938 0.96711 0.0
H1155 H 0.00657 0.44382 0.90319 0.0
H1156 H 0.0598 0.44467 0.93065 0.0
H1157 H 0.00365 0.39533 0.92022 0.0
C1158 C 0.01237 0.38075 0.93913 0.0
C1159 C 0.02567 0.38149 0.9526 0.0
C1160 C 0.04813 0.44454 0.92474 0.0
C1161 C 0.02931 0.41266 0.93523 0.0
C1162 C 0.04972 0.45971 0.91519 0.0
C1163 C 0.03477 0.4598 0.9073 0.0
C1164 C 0.03152 0.42927 0.92603 0.0
C1165 C 0.0184 0.44438 0.90928 0.0
C1166 C 0.01407 0.39626 0.93061 0.0
C1167 C 0.04069 0.39818 0.95692 0.0
N1168 N 0.01722 0.42971 0.9183 0.0
N1169 N 0.04215 0.4131 0.94818 0.0
H1170 H 0.62744 0.64229 0.97282 0.0
H1171 H 0.53102 0.60122 0.9208 0.0
H1172 H 0.58265 0.6359 0.00732 0.0
H1173 H 0.57576 0.61211 0.88297 0.0
H1174 H 0.55037 0.61525 0.95212 0.0
H1175 H 0.60946 0.63262 0.93938 0.0
C1176 C 0.61391 0.63904 0.97337 0.0
C1177 C 0.60655 0.6398 0.99302 0.0
C1178 C 0.55603 0.61473 0.93696 0.0
C1179 C 0.5859 0.62863 0.95482 0.0
C1180 C 0.54496 0.60681 0.91891 0.0
C1181 C 0.5517 0.6055 0.89903 0.0
C1182 C 0.57408 0.62129 0.93536 0.0
C1183 C 0.56991 0.6126 0.89797 0.0
C1184 C 0.60365 0.63349 0.95426 0.0
C1185 C 0.58892 0.63541 0.99267 0.0
N1186 N 0.58045 0.62011 0.9159 0.0
N1187 N 0.57922 0.62993 0.97396 0.0
H1188 H 0.99558 0.64215 0.97446 0.0
H1189 H 0.05769 0.61529 0.91137 0.0
H1190 H 0.04812 0.65773 0.99631 0.0
H1191 H 0.00119 0.58389 0.90757 0.0
H1192 H 0.05555 0.63617 0.93637 0.0
H1193 H -0.00104 0.62639 0.94327 0.0
C1194 C 0.00796 0.64262 0.97244 0.0
C1195 C 0.02155 0.65114 0.98809 0.0
C1196 C 0.04365 0.62477 0.92988 0.0
C1197 C 0.02545 0.63316 0.95257 0.0
C1198 C 0.04483 0.61274 0.91572 0.0
C1199 C 0.0296 0.59754 0.90751 0.0
C1200 C 0.02714 0.62179 0.93573 0.0
C1201 C 0.01332 0.59539 0.91328 0.0
C1202 C 0.00982 0.6335 0.95475 0.0
C1203 C 0.03726 0.65119 0.98474 0.0
N1204 N 0.01253 0.60732 0.92711 0.0
N1205 N 0.03875 0.64226 0.96741 0.0
H1206 H 0.39019 0.38901 0.93203 0.0
H1207 H 0.40831 0.48365 0.89683 0.0
H1208 H 0.36141 0.41271 0.95846 0.0
H1209 H 0.44612 0.4662 0.89147 0.0
H1210 H 0.3905 0.458 0.91906 0.0
H1211 H 0.41028 0.41714 0.91626 0.0
C1212 C 0.38815 0.40014 0.93472 0.0
C1213 C 0.37406 0.39844 0.94662 0.0
C1214 C 0.40279 0.45993 0.91315 0.0
C1215 C 0.39698 0.43081 0.92819 0.0
C1216 C 0.41297 0.47457 0.90052 0.0
C1217 C 0.42859 0.47691 0.89194 0.0
C1218 C 0.40822 0.44754 0.91705 0.0
C1219 C 0.43394 0.46467 0.89718 0.0
C1220 C 0.39969 0.41628 0.9257 0.0
C1221 C 0.37213 0.41346 0.94943 0.0
N1222 N 0.4237 0.45044 0.90918 0.0
N1223 N 0.38336 0.429 0.94004 0.0
H1224 H 0.63977 0.99365 0.9695 0.0
H1225 H 0.54134 0.95213 0.92827 0.0
H1226 H 0.59579 0.95495 0.00483 0.0
H1227 H 0.58401 0.97531 0.8845 0.0
H1228 H 0.56146 0.9531 0.95648 0.0
H1229 H 0.62021 0.98709 0.93791 0.0
C1230 C 0.62608 0.98361 0.97056 0.0
C1231 C 0.61941 0.975 0.99 0.0
C1232 C 0.56645 0.95779 0.94066 0.0
C1233 C 0.59698 0.96762 0.95398 0.0
C1234 C 0.55498 0.95728 0.92462 0.0
C1235 C 0.56111 0.96371 0.90417 0.0
C1236 C 0.58429 0.96512 0.93637 0.0
C1237 C 0.57885 0.97021 0.90012 0.0
C1238 C 0.61494 0.97987 0.9525 0.0
C1239 C 0.60156 0.96205 0.99032 0.0
N1240 N 0.58992 0.97099 0.91622 0.0
N1241 N 0.59096 0.95895 0.97272 0.0
H1242 H 0.63803 0.04436 0.05303 0.0
H1243 H 0.55479 0.9957 0.12669 0.0
H1244 H 0.6214 0.99367 0.08182 0.0
H1245 H 0.58473 0.05305 0.12341 0.0
H1246 H 0.57599 0.99363 0.104 0.0
H1247 H 0.61533 0.04667 0.07282 0.0
C1248 C 0.62953 0.03365 0.0633 0.0
C1249 C 0.63157 0.01873 0.06565 0.0
C1250 C 0.57788 0.00666 0.10824 0.0
C1251 C 0.60564 0.02124 0.08802 0.0
C1252 C 0.56585 0.00788 0.12133 0.0
C1253 C 0.56808 0.0246 0.12733 0.0
C1254 C 0.59216 0.02222 0.10078 0.0
C1255 C 0.5824 0.03987 0.11916 0.0
C1256 C 0.61666 0.03502 0.0746 0.0
C1257 C 0.62027 0.00531 0.07928 0.0
N1258 N 0.59393 0.03832 0.10631 0.0
N1259 N 0.60777 0.00686 0.08986 0.0
H1260 H 0.95408 0.61295 0.06676 0.0
H1261 H 0.98591 0.54273 0.07592 0.0
H1262 H 0.0075 0.62746 0.05481 0.0
H1263 H 0.95228 0.54615 0.12343 0.0
H1264 H 0.98981 0.57013 0.06053 0.0
H1265 H 0.9488 0.58416 0.07995 0.0
C1266 C 0.96464 0.61 0.06682 0.0
C1267 C 0.9813 0.6226 0.06005 0.0
C1268 C 0.9815 0.5647 0.07425 0.0
C1269 C 0.97529 0.58983 0.07446 0.0
C1270 C 0.97934 0.54913 0.0832 0.0
C1271 C 0.96883 0.54199 0.10124 0.0
C1272 C 0.97276 0.57299 0.08298 0.0
C1273 C 0.96025 0.55078 0.10936 0.0
C1274 C 0.96165 0.59369 0.07437 0.0
C1275 C 0.99458 0.61822 0.06033 0.0
N1276 N 0.96236 0.56576 0.10012 0.0
N1277 N 0.99126 0.60211 0.06731 0.0
H1278 H 0.40784 0.35928 0.00529 0.0
H1279 H 0.41804 0.40151 0.12272 0.0
H1280 H 0.36645 0.36389 0.03531 0.0
H1281 H 0.45236 0.38342 0.09931 0.0
H1282 H 0.39817 0.38644 0.09165 0.0
H1283 H 0.42373 0.36683 0.04004 0.0
C1284 C 0.40202 0.36174 0.01922 0.0
C1285 C 0.38586 0.36113 0.0173 0.0
C1286 C 0.40989 0.3855 0.09346 0.0
C1287 C 0.40407 0.36992 0.05714 0.0
C1288 C 0.42122 0.3941 0.11117 0.0
C1289 C 0.43688 0.39377 0.11346 0.0
C1290 C 0.41441 0.37677 0.07772 0.0
C1291 C 0.44038 0.38393 0.09815 0.0
C1292 C 0.41107 0.36598 0.03909 0.0
C1293 C 0.3789 0.36428 0.03598 0.0
N1294 N 0.42937 0.37605 0.08073 0.0
N1295 N 0.38815 0.36877 0.05505 0.0
H1296 H 0.61914 0.67454 0.35778 0.0
H1297 H 0.66104 0.74672 0.45224 0.0
H1298 H 0.67125 0.69247 0.38344 0.0
H1299 H 0.60504 0.7118 0.44505 0.0
H1300 H 0.66522 0.72755 0.42677 0.0
H1301 H 0.61362 0.68837 0.38913 0.0
C1302 C 0.62933 0.68117 0.37019 0.0
C1303 C 0.6457 0.68243 0.36798 0.0
C1304 C 0.65203 0.724 0.43097 0.0
C1305 C 0.6396 0.69861 0.40363 0.0
C1306 C 0.64958 0.73491 0.44564 0.0
C1307 C 0.63261 0.73102 0.4509 0.0
C1308 C 0.63743 0.70923 0.42108 0.0
C1309 C 0.61836 0.71566 0.44123 0.0
C1310 C 0.62616 0.68904 0.38808 0.0
C1311 C 0.65843 0.69113 0.38456 0.0
N1312 N 0.62109 0.70547 0.42663 0.0
N1313 N 0.65522 0.69918 0.40152 0.0
H1314 H 0.31031 0.93117 0.40334 0.0
H1315 H 0.2303 0.88848 0.4826 0.0
H1316 H 0.29254 0.96202 0.43911 0.0
H1317 H 0.25856 0.86188 0.46449 0.0
H1318 H 0.25177 0.91499 0.46436 0.0
H1319 H 0.29009 0.90486 0.42312 0.0
C1320 C 0.30212 0.93241 0.41525 0.0
C1321 C 0.30299 0.9488 0.4194 0.0
C1322 C 0.25337 0.90341 0.46448 0.0
C1323 C 0.27991 0.91882 0.44201 0.0
C1324 C 0.24111 0.8883 0.47482 0.0
C1325 C 0.2427 0.87303 0.47495 0.0
C1326 C 0.2672 0.90319 0.45393 0.0
C1327 C 0.25698 0.87346 0.4648 0.0
C1328 C 0.29066 0.91742 0.4266 0.0
C1329 C 0.29217 0.94966 0.43513 0.0
N1330 N 0.26863 0.88828 0.45449 0.0
N1331 N 0.28103 0.93487 0.44577 0.0
H1332 H 0.03566 0.32787 0.38146 0.0
H1333 H 0.12283 0.39378 0.45064 0.0
H1334 H 0.07725 0.37746 0.35831 0.0
H1335 H 0.08948 0.33844 0.4649 0.0
H1336 H 0.10289 0.39012 0.42055 0.0
H1337 H 0.05217 0.33366 0.41568 0.0
C1338 C 0.04817 0.34005 0.38362 0.0
C1339 C 0.05516 0.35211 0.36689 0.0
C1340 C 0.09985 0.37882 0.4304 0.0
C1341 C 0.07401 0.35883 0.40602 0.0
C1342 C 0.11113 0.38095 0.44768 0.0
C1343 C 0.10785 0.36636 0.46017 0.0
C1344 C 0.08511 0.36202 0.42567 0.0
C1345 C 0.09259 0.34997 0.45547 0.0
C1346 C 0.05759 0.34331 0.40314 0.0
C1347 C 0.07143 0.36768 0.37064 0.0
N1348 N 0.08182 0.34821 0.43853 0.0
N1349 N 0.08031 0.37056 0.38977 0.0
H1350 H 0.03017 0.28437 0.29447 0.0
H1351 H 0.10784 0.32436 0.21109 0.0
H1352 H 0.05133 0.3361 0.26666 0.0
H1353 H 0.07987 0.26859 0.22552 0.0
H1354 H 0.08802 0.32903 0.2335 0.0
H1355 H 0.04919 0.27837 0.27153 0.0
C1356 C 0.03888 0.29449 0.28371 0.0
C1357 C 0.0393 0.31085 0.28268 0.0
C1358 C 0.0861 0.31572 0.23174 0.0
C1359 C 0.0609 0.30407 0.25647 0.0
C1360 C 0.09744 0.31308 0.21899 0.0
C1361 C 0.09548 0.2961 0.21658 0.0
C1362 C 0.07274 0.30129 0.24236 0.0
C1363 C 0.08171 0.28187 0.22694 0.0
C1364 C 0.04964 0.29103 0.27057 0.0
C1365 C 0.05071 0.32343 0.26831 0.0
N1366 N 0.07088 0.28481 0.23958 0.0
N1367 N 0.06104 0.31978 0.25585 0.0
H1368 H 0.71557 0.72745 0.31273 0.0
H1369 H 0.68097 0.782 0.24589 0.0
H1370 H 0.6656 0.70292 0.27837 0.0
H1371 H 0.73583 0.8024 0.26045 0.0
H1372 H 0.67417 0.75415 0.26282 0.0
H1373 H 0.72236 0.75622 0.29831 0.0
C1374 C 0.70598 0.7281 0.30228 0.0
C1375 C 0.68993 0.71271 0.29686 0.0
C1376 C 0.68769 0.76474 0.26238 0.0
C1377 C 0.69759 0.74558 0.28047 0.0
C1378 C 0.69157 0.78068 0.25288 0.0
C1379 C 0.70899 0.79452 0.2518 0.0
C1380 C 0.70131 0.76265 0.27107 0.0
C1381 C 0.72223 0.79199 0.26083 0.0
C1382 C 0.70989 0.74452 0.29403 0.0
C1383 C 0.67805 0.71438 0.28317 0.0
N1384 N 0.71812 0.77636 0.27015 0.0
N1385 N 0.68209 0.73051 0.27552 0.0
H1386 H 0.26414 0.98071 0.35644 0.0
H1387 H 0.24331 0.92496 0.24624 0.0
H1388 H 0.30201 0.97065 0.32575 0.0
H1389 H 0.21436 0.9505 0.26572 0.0
H1390 H 0.26489 0.94134 0.27542 0.0
H1391 H 0.24551 0.96946 0.3237 0.0
C1392 C 0.2686 0.97625 0.34278 0.0
C1393 C 0.28463 0.97652 0.34392 0.0
C1394 C 0.25395 0.94355 0.27317 0.0
C1395 C 0.26326 0.96348 0.30646 0.0
C1396 C 0.24163 0.93418 0.25656 0.0
C1397 C 0.22704 0.93637 0.25366 0.0
C1398 C 0.25149 0.95494 0.28724 0.0
C1399 C 0.22549 0.94852 0.26738 0.0
C1400 C 0.25798 0.96989 0.32406 0.0
C1401 C 0.28976 0.97067 0.32563 0.0
N1402 N 0.23744 0.95718 0.28378 0.0
N1403 N 0.27902 0.96419 0.30777 0.0
H1404 H 0.71185 0.97821 0.34552 0.0
H1405 H 0.68179 0.91732 0.23952 0.0
H1406 H 0.66407 0.96483 0.31022 0.0
H1407 H 0.73634 0.94888 0.25955 0.0
H1408 H 0.67482 0.934 0.2656 0.0
H1409 H 0.72095 0.96691 0.31488 0.0
C1410 C 0.70334 0.97305 0.33125 0.0
C1411 C 0.68712 0.97238 0.33049 0.0
C1412 C 0.68834 0.93739 0.26411 0.0
C1413 C 0.69736 0.9592 0.2955 0.0
C1414 C 0.6924 0.92794 0.24907 0.0
C1415 C 0.70973 0.93156 0.24724 0.0
C1416 C 0.7016 0.95039 0.27778 0.0
C1417 C 0.72274 0.94527 0.26061 0.0
C1418 C 0.70858 0.96666 0.31374 0.0
C1419 C 0.67668 0.96563 0.31151 0.0
N1420 N 0.71838 0.95401 0.27547 0.0
N1421 N 0.68186 0.95906 0.29489 0.0
H1422 H 0.02976 0.74096 0.31537 0.0
H1423 H 0.07193 0.79397 0.20845 0.0
H1424 H 0.02907 0.71608 0.25411 0.0
H1425 H 0.09159 0.81763 0.27199 0.0
H1426 H 0.05043 0.76649 0.22491 0.0
H1427 H 0.04743 0.77035 0.29949 0.0
C1428 C 0.03321 0.7417 0.29859 0.0
C1429 C 0.02812 0.72614 0.28604 0.0
C1430 C 0.05934 0.77776 0.23526 0.0
C1431 C 0.04786 0.75939 0.26787 0.0
C1432 C 0.0715 0.79348 0.22589 0.0
C1433 C 0.0836 0.80804 0.23889 0.0
C1434 C 0.05919 0.77659 0.2578 0.0
C1435 C 0.0826 0.8066 0.26141 0.0
C1436 C 0.04328 0.7584 0.2896 0.0
C1437 C 0.0329 0.72776 0.26441 0.0
N1438 N 0.07063 0.79108 0.27021 0.0
N1439 N 0.04246 0.74407 0.256 0.0
H1440 H 0.30043 0.32129 0.30247 0.0
H1441 H 0.20252 0.27785 0.25713 0.0
H1442 H 0.25532 0.28577 0.33863 0.0
H1443 H 0.2465 0.3009 0.21531 0.0
H1444 H 0.22198 0.27997 0.2869 0.0
H1445 H 0.28148 0.31345 0.27002 0.0
C1446 C 0.28661 0.31171 0.30358 0.0
C1447 C 0.27946 0.30435 0.32344 0.0
C1448 C 0.22742 0.28438 0.27118 0.0
C1449 C 0.25773 0.29544 0.28639 0.0
C1450 C 0.2163 0.28317 0.25423 0.0
C1451 C 0.22299 0.28925 0.23387 0.0
C1452 C 0.24545 0.29206 0.26789 0.0
C1453 C 0.24091 0.29602 0.23083 0.0
C1454 C 0.27581 0.30722 0.28502 0.0
C1455 C 0.26145 0.29193 0.3238 0.0
N1456 N 0.25161 0.2975 0.24778 0.0
N1457 N 0.25122 0.28805 0.30565 0.0
H1458 H 0.28934 0.33045 0.4209 0.0
H1459 H 0.25496 0.39653 0.45205 0.0
H1460 H 0.30296 0.37677 0.38341 0.0
H1461 H 0.22963 0.34134 0.4691 0.0
H1462 H 0.27509 0.39175 0.42956 0.0
H1463 H 0.26983 0.33646 0.44153 0.0
C1464 C 0.28807 0.34178 0.41673 0.0
C1465 C 0.29757 0.35289 0.40001 0.0
C1466 C 0.26505 0.38073 0.43819 0.0
C1467 C 0.27536 0.36016 0.42423 0.0
C1468 C 0.2537 0.38346 0.45109 0.0
C1469 C 0.24063 0.36927 0.46234 0.0
C1470 C 0.26342 0.36379 0.43695 0.0
C1471 C 0.2394 0.35258 0.46051 0.0
C1472 C 0.27693 0.34526 0.42868 0.0
C1473 C 0.29572 0.36775 0.396 0.0
N1474 N 0.25069 0.35033 0.44815 0.0
N1475 N 0.28482 0.37101 0.40811 0.0
H1476 H 0.65595 0.9563 0.42722 0.0
H1477 H 0.61237 0.85044 0.42427 0.0
H1478 H 0.61992 0.92319 0.37592 0.0
H1479 H 0.63941 0.88473 0.47988 0.0
H1480 H 0.6152 0.87633 0.40544 0.0
H1481 H 0.65076 0.92976 0.44562 0.0
C1482 C 0.64697 0.9434 0.41975 0.0
C1483 C 0.63844 0.94197 0.39991 0.0
C1484 C 0.62044 0.87812 0.42179 0.0
C1485 C 0.63232 0.91132 0.42109 0.0
C1486 C 0.61878 0.86336 0.43257 0.0
C1487 C 0.62588 0.86545 0.4536 0.0
C1488 C 0.62929 0.89504 0.43211 0.0
C1489 C 0.63412 0.88252 0.46351 0.0
C1490 C 0.64392 0.92821 0.43037 0.0
C1491 C 0.62676 0.92487 0.39119 0.0
N1492 N 0.63567 0.89661 0.45266 0.0
N1493 N 0.6241 0.91015 0.4018 0.0
H1494 H 0.03606 0.68655 0.37065 0.0
H1495 H 0.13453 0.74894 0.41357 0.0
H1496 H 0.0807 0.70869 0.32955 0.0
H1497 H 0.09161 0.72101 0.45614 0.0
H1498 H 0.11503 0.73262 0.38278 0.0
H1499 H 0.05602 0.69728 0.40225 0.0
C1500 C 0.05004 0.6935 0.36823 0.0
C1501 C 0.05668 0.69686 0.34733 0.0
C1502 C 0.10985 0.72987 0.39883 0.0
C1503 C 0.07959 0.70926 0.38351 0.0
C1504 C 0.12098 0.73922 0.4164 0.0
C1505 C 0.1146 0.73641 0.43736 0.0
C1506 C 0.0921 0.71775 0.40216 0.0
C1507 C 0.09701 0.72353 0.4402 0.0
C1508 C 0.06143 0.69961 0.38631 0.0
C1509 C 0.07493 0.70587 0.34528 0.0
N1510 N 0.08629 0.71483 0.42275 0.0
N1511 N 0.08571 0.71189 0.36311 0.0
H1512 H 0.33079 0.02147 0.7235 0.0
H1513 H 0.27504 0.06744 0.75487 0.0
H1514 H 0.29125 0.02195 0.68208 0.0
H1515 H 0.30608 0.05863 0.80223 0.0
H1516 H 0.28096 0.05037 0.72837 0.0
H1517 H 0.32215 0.03459 0.75294 0.0
C1518 C 0.32022 0.02415 0.72063 0.0
C1519 C 0.31188 0.02075 0.70016 0.0
C1520 C 0.2864 0.05202 0.7446 0.0
C1521 C 0.30204 0.03583 0.73366 0.0
C1522 C 0.28288 0.0617 0.75988 0.0
C1523 C 0.28997 0.0645 0.78099 0.0
C1524 C 0.2973 0.04517 0.75021 0.0
C1525 C 0.3005 0.05706 0.78612 0.0
C1526 C 0.31531 0.03165 0.73743 0.0
C1527 C 0.29824 0.02449 0.69743 0.0
N1528 N 0.30393 0.04783 0.77081 0.0
N1529 N 0.29387 0.03191 0.71387 0.0
H1530 H 0.96998 0.25775 0.70918 0.0
H1531 H 0.92571 0.21734 0.82072 0.0
H1532 H 0.96348 0.2879 0.76077 0.0
H1533 H 0.90928 0.18495 0.76187 0.0
H1534 H 0.94572 0.24297 0.8002 0.0
H1535 H 0.95286 0.23042 0.72946 0.0
C1536 C 0.96497 0.25861 0.72472 0.0
C1537 C 0.96803 0.27506 0.73328 0.0
C1538 C 0.93781 0.23022 0.7918 0.0
C1539 C 0.949 0.24421 0.75653 0.0
C1540 C 0.92637 0.21559 0.80348 0.0
C1541 C 0.91552 0.19906 0.79293 0.0
C1542 C 0.93858 0.22833 0.7694 0.0
C1543 C 0.91737 0.19746 0.77065 0.0
C1544 C 0.95525 0.24308 0.73621 0.0
C1545 C 0.9613 0.27549 0.75346 0.0
N1546 N 0.92859 0.212 0.75953 0.0
N1547 N 0.95221 0.26033 0.76443 0.0
H1548 H 0.74554 0.70535 0.69239 0.0
H1549 H 0.76735 0.67687 0.80249 0.0
H1550 H 0.70919 0.65566 0.72085 0.0
H1551 H 0.78619 0.73236 0.79019 0.0
H1552 H 0.74712 0.66851 0.77168 0.0
H1553 H 0.76211 0.71535 0.72682 0.0
C1554 C 0.74099 0.6966 0.70592 0.0
C1555 C 0.72603 0.67961 0.70373 0.0
C1556 C 0.75556 0.68251 0.77591 0.0
C1557 C 0.74502 0.69087 0.74295 0.0
C1558 C 0.76709 0.68737 0.79367 0.0
C1559 C 0.77865 0.70544 0.79918 0.0
C1560 C 0.75579 0.69575 0.76315 0.0
C1561 C 0.77788 0.71828 0.78644 0.0
C1562 C 0.75039 0.70235 0.72555 0.0
C1563 C 0.72064 0.66886 0.72183 0.0
N1564 N 0.76682 0.71319 0.76886 0.0
N1565 N 0.73029 0.67457 0.7406 0.0
H1566 H 0.69262 0.59917 0.6304 0.0
H1567 H 0.77921 0.63799 0.56145 0.0
H1568 H 0.73241 0.65461 0.62927 0.0
H1569 H 0.73731 0.58333 0.55515 0.0
H1570 H 0.76396 0.64308 0.59057 0.0
H1571 H 0.71082 0.59178 0.60772 0.0
C1572 C 0.70533 0.60972 0.62572 0.0
C1573 C 0.71092 0.62756 0.63127 0.0
C1574 C 0.75807 0.62994 0.5829 0.0
C1575 C 0.7316 0.61932 0.60539 0.0
C1576 C 0.76671 0.62707 0.56612 0.0
C1577 C 0.75934 0.61031 0.55557 0.0
C1578 C 0.74185 0.61597 0.58921 0.0
C1579 C 0.74339 0.59649 0.5628 0.0
C1580 C 0.71562 0.60554 0.61267 0.0
C1581 C 0.72741 0.64076 0.62482 0.0
N1582 N 0.73506 0.59967 0.57908 0.0
N1583 N 0.73711 0.6364 0.61209 0.0
H1584 H 0.38335 0.06288 0.64741 0.0
H1585 H 0.34711 0.11183 0.57336 0.0
H1586 H 0.33507 0.03481 0.60961 0.0
H1587 H 0.40243 0.13409 0.58736 0.0
H1588 H 0.34143 0.08473 0.59108 0.0
H1589 H 0.38962 0.09049 0.62993 0.0
C1590 C 0.37403 0.0625 0.63555 0.0
C1591 C 0.35854 0.04649 0.63018 0.0
C1592 C 0.35481 0.09556 0.59023 0.0
C1593 C 0.36558 0.07799 0.61033 0.0
C1594 C 0.35812 0.11104 0.57997 0.0
C1595 C 0.37533 0.12535 0.57861 0.0
C1596 C 0.36875 0.09437 0.59955 0.0
C1597 C 0.38893 0.12358 0.58818 0.0
C1598 C 0.37765 0.07824 0.62556 0.0
C1599 C 0.34701 0.04681 0.61458 0.0
N1600 N 0.38534 0.10841 0.59829 0.0
N1601 N 0.3507 0.06231 0.60533 0.0
H1602 H 0.96601 0.30002 0.64061 0.0
H1603 H 0.87804 0.28025 0.57741 0.0
H1604 H 0.92494 0.30519 0.67064 0.0
H1605 H 0.90762 0.25484 0.56039 0.0
H1606 H 0.89906 0.29625 0.60748 0.0
H1607 H 0.94837 0.29002 0.60696 0.0
C1608 C 0.95338 0.29926 0.64008 0.0
C1609 C 0.94686 0.30328 0.65854 0.0
C1610 C 0.90105 0.28735 0.59696 0.0
C1611 C 0.92675 0.29203 0.62007 0.0
C1612 C 0.88918 0.27836 0.57977 0.0
C1613 C 0.89115 0.26622 0.56656 0.0
C1614 C 0.91507 0.28433 0.60069 0.0
C1615 C 0.90565 0.26404 0.57035 0.0
C1616 C 0.94333 0.2935 0.6209 0.0
C1617 C 0.9304 0.30203 0.65687 0.0
N1618 N 0.91706 0.27298 0.58711 0.0
N1619 N 0.92089 0.29649 0.63798 0.0
H1620 H 0.378 0.31641 0.68636 0.0
H1621 H 0.34942 0.25151 0.58336 0.0
H1622 H 0.33147 0.30255 0.64791 0.0
H1623 H 0.40281 0.28027 0.60795 0.0
H1624 H 0.34241 0.26977 0.60717 0.0
H1625 H 0.38745 0.30336 0.65806 0.0
C1626 C 0.36987 0.31083 0.67184 0.0
C1627 C 0.35385 0.31049 0.66957 0.0
C1628 C 0.3557 0.27222 0.60722 0.0
C1629 C 0.36447 0.29524 0.63726 0.0
C1630 C 0.35967 0.26173 0.59375 0.0
C1631 C 0.37668 0.26432 0.59383 0.0
C1632 C 0.36876 0.28519 0.62118 0.0
C1633 C 0.38954 0.27788 0.60739 0.0
C1634 C 0.37529 0.3034 0.65567 0.0
C1635 C 0.34391 0.30314 0.65034 0.0
N1636 N 0.38526 0.28767 0.62073 0.0
N1637 N 0.34925 0.29555 0.63508 0.0
H1638 H 0.69707 0.04602 0.5755 0.0
H1639 H 0.75464 0.15106 0.58425 0.0
H1640 H 0.69274 0.07592 0.62914 0.0
H1641 H 0.73983 0.12177 0.52324 0.0
H1642 H 0.73366 0.12385 0.60212 0.0
H1643 H 0.71487 0.07382 0.55713 0.0
C1644 C 0.6999 0.05846 0.58342 0.0
C1645 C 0.69349 0.05871 0.60388 0.0
C1646 C 0.73485 0.12347 0.58479 0.0
C1647 C 0.71386 0.09053 0.58299 0.0
C1648 C 0.74681 0.13893 0.57464 0.0
C1649 C 0.7489 0.13858 0.55229 0.0
C1650 C 0.72526 0.10754 0.57254 0.0
C1651 C 0.73847 0.12259 0.54048 0.0
C1652 C 0.70994 0.07429 0.57286 0.0
C1653 C 0.69744 0.07518 0.61335 0.0
N1654 N 0.72725 0.10763 0.5508 0.0
N1655 N 0.70754 0.0905 0.60289 0.0
H1656 H 0.95941 0.66446 0.63512 0.0
H1657 H 0.86207 0.60453 0.58596 0.0
H1658 H 0.91435 0.6316 0.67292 0.0
H1659 H 0.90701 0.63375 0.54648 0.0
H1660 H 0.8815 0.61309 0.61766 0.0
H1661 H 0.94094 0.65249 0.60228 0.0
C1662 C 0.94568 0.65467 0.63655 0.0
C1663 C 0.93843 0.64914 0.65689 0.0
C1664 C 0.88717 0.61754 0.60206 0.0
C1665 C 0.91722 0.63542 0.61934 0.0
C1666 C 0.87605 0.6125 0.58385 0.0
C1667 C 0.88286 0.61842 0.56342 0.0
C1668 C 0.90528 0.62871 0.59998 0.0
C1669 C 0.90113 0.62908 0.56192 0.0
C1670 C 0.93514 0.64784 0.61777 0.0
C1671 C 0.92055 0.63637 0.65767 0.0
N1672 N 0.91169 0.63398 0.57996 0.0
N1673 N 0.91058 0.63005 0.63921 0.0
H1674 H 0.97702 0.73174 0.72802 0.0
H1675 H 0.88675 0.69183 0.78955 0.0
H1676 H 0.93592 0.67676 0.72414 0.0
H1677 H 0.92888 0.74599 0.79988 0.0
H1678 H 0.90314 0.68763 0.76112 0.0
H1679 H 0.958 0.73889 0.74944 0.0
C1680 C 0.96388 0.72127 0.73136 0.0
C1681 C 0.9581 0.70358 0.72481 0.0
C1682 C 0.90883 0.70049 0.7695 0.0
C1683 C 0.93646 0.71152 0.74919 0.0
C1684 C 0.89952 0.70284 0.78585 0.0
C1685 C 0.90663 0.71917 0.79737 0.0
C1686 C 0.92549 0.71452 0.76463 0.0
C1687 C 0.92299 0.73315 0.79145 0.0
C1688 C 0.9531 0.7253 0.74367 0.0
C1689 C 0.94105 0.69045 0.72948 0.0
N1690 N 0.93199 0.73046 0.77562 0.0
N1691 N 0.93088 0.69466 0.74152 0.0
H1692 H 0.31976 0.29269 0.76203 0.0
H1693 H 0.27323 0.18634 0.75488 0.0
H1694 H 0.28455 0.26136 0.70918 0.0
H1695 H 0.3036 0.21921 0.80997 0.0
H1696 H 0.27702 0.21312 0.73734 0.0
H1697 H 0.31416 0.26548 0.77907 0.0
C1698 C 0.31088 0.28006 0.75393 0.0
C1699 C 0.30272 0.27933 0.73404 0.0
C1700 C 0.28281 0.21441 0.75327 0.0
C1701 C 0.2961 0.24788 0.75367 0.0
C1702 C 0.2806 0.19914 0.76332 0.0
C1703 C 0.28829 0.20054 0.78383 0.0
C1704 C 0.29276 0.23116 0.76384 0.0
C1705 C 0.29778 0.21749 0.79396 0.0
C1706 C 0.30761 0.26446 0.76375 0.0
C1707 C 0.29114 0.26252 0.72451 0.0
N1708 N 0.29978 0.23207 0.78385 0.0
N1709 N 0.28821 0.24742 0.73438 0.0
H1710 H 0.73965 0.03081 0.66222 0.0
H1711 H 0.76432 0.09154 0.76782 0.0
H1712 H 0.70211 0.04121 0.69319 0.0
H1713 H 0.78603 0.05718 0.7572 0.0
H1714 H 0.74342 0.07605 0.73807 0.0
H1715 H 0.75906 0.04329 0.69439 0.0
C1716 C 0.73547 0.03564 0.67581 0.0
C1717 C 0.71926 0.03499 0.67503 0.0
C1718 C 0.75271 0.07186 0.74239 0.0
C1719 C 0.74146 0.04951 0.71156 0.0
C1720 C 0.76464 0.08062 0.75953 0.0
C1721 C 0.77706 0.0757 0.76535 0.0
C1722 C 0.75339 0.05833 0.73052 0.0
C1723 C 0.77699 0.06175 0.75324 0.0
C1724 C 0.7465 0.04268 0.69414 0.0
C1725 C 0.71446 0.04138 0.69312 0.0
N1726 N 0.76546 0.05368 0.73629 0.0
N1727 N 0.72561 0.04859 0.71054 0.0
H1728 H 0.06088 0.30749 0.98965 0.0
H1729 H 0.08813 0.3061 0.11319 0.0
H1730 H 0.0418 0.32501 0.04299 0.0
H1731 H 0.1102 0.29291 0.05915 0.0
H1732 H 0.06994 0.31165 0.08801 0.0
H1733 H 0.07774 0.3005 0.01513 0.0
C1734 C 0.06018 0.30984 0.00674 0.0
C1735 C 0.04992 0.31691 0.01416 0.0
C1736 C 0.07873 0.3075 0.08167 0.0
C1737 C 0.06928 0.3089 0.04352 0.0
C1738 C 0.0892 0.3044 0.09604 0.0
C1739 C 0.1008 0.29907 0.08833 0.0
C1740 C 0.07983 0.30525 0.05936 0.0
C1741 C 0.10133 0.29678 0.06591 0.0
C1742 C 0.06985 0.30584 0.02129 0.0
C1743 C 0.04955 0.31962 0.03651 0.0
N1744 N 0.09105 0.29993 0.05226 0.0
N1745 N 0.05911 0.31564 0.05039 0.0
H1746 H 0.67776 0.716 0.04825 0.0
H1747 H 0.68315 0.76711 0.15662 0.0
H1748 H 0.63466 0.69741 0.09163 0.0
H1749 H 0.70547 0.79752 0.09973 0.0
H1750 H 0.66941 0.73996 0.1341 0.0
H1751 H 0.69171 0.74521 0.06744 0.0
C1752 C 0.67111 0.71809 0.06153 0.0
C1753 C 0.65507 0.70414 0.06844 0.0
C1754 C 0.67733 0.75261 0.1266 0.0
C1755 C 0.67114 0.73713 0.0906 0.0
C1756 C 0.68515 0.76816 0.13941 0.0
C1757 C 0.69527 0.78478 0.13009 0.0
C1758 C 0.67991 0.75353 0.10432 0.0
C1759 C 0.69788 0.78506 0.10771 0.0
C1760 C 0.67909 0.73471 0.07245 0.0
C1761 C 0.64705 0.70765 0.08574 0.0
N1762 N 0.69025 0.76964 0.09555 0.0
N1763 N 0.65531 0.72367 0.09643 0.0
H1764 H 0.26111 0.94972 0.00801 0.0
H1765 H 0.24704 0.93897 0.13514 0.0
H1766 H 0.30211 0.95842 0.05398 0.0
H1767 H 0.20469 0.91977 0.08756 0.0
H1768 H 0.26788 0.94883 0.10598 0.0
H1769 H 0.24064 0.94122 0.03741 0.0
C1770 C 0.26581 0.94982 0.02428 0.0
C1771 C 0.28333 0.95474 0.02853 0.0
C1772 C 0.25402 0.94252 0.10197 0.0
C1773 C 0.26 0.94514 0.06229 0.0
C1774 C 0.24211 0.93686 0.11861 0.0
C1775 C 0.22404 0.92851 0.11386 0.0
C1776 C 0.24785 0.93989 0.08044 0.0
C1777 C 0.21847 0.92639 0.09209 0.0
C1778 C 0.25411 0.94496 0.04106 0.0
C1779 C 0.28869 0.95464 0.04995 0.0
N1780 N 0.23031 0.932 0.07623 0.0
N1781 N 0.27707 0.94996 0.06605 0.0
H1782 H 0.30188 0.00561 0.97506 0.0
H1783 H 0.32918 0.09614 0.91668 0.0
H1784 H 0.35465 0.05001 0.97287 0.0
H1785 H 0.27524 0.05455 0.92145 0.0
H1786 H 0.33794 0.08035 0.94097 0.0
H1787 H 0.29102 0.02435 0.96018 0.0
C1788 C 0.31113 0.01943 0.97205 0.0
C1789 C 0.32921 0.02622 0.97485 0.0
C1790 C 0.32415 0.07467 0.9369 0.0
C1791 C 0.31696 0.04752 0.95753 0.0
C1792 C 0.3191 0.08376 0.92304 0.0
C1793 C 0.3014 0.07674 0.91703 0.0
C1794 C 0.3115 0.05821 0.94469 0.0
C1795 C 0.28905 0.06036 0.92542 0.0
C1796 C 0.30494 0.03007 0.96337 0.0
C1797 C 0.34062 0.04417 0.97062 0.0
N1798 N 0.29435 0.05157 0.93874 0.0
N1799 N 0.33433 0.0541 0.96191 0.0
H1800 H 0.98859 0.27699 0.95559 0.0
H1801 H 0.89015 0.19674 0.94191 0.0
H1802 H 0.94407 0.28267 0.97044 0.0
H1803 H 0.92973 0.20532 0.89595 0.0
H1804 H 0.91146 0.22394 0.96164 0.0
H1805 H 0.96846 0.246 0.94325 0.0
C1806 C 0.9746 0.27155 0.95682 0.0
C1807 C 0.96791 0.28234 0.96393 0.0
C1808 C 0.91545 0.21965 0.94736 0.0
C1809 C 0.94502 0.24714 0.9501 0.0
C1810 C 0.90327 0.20421 0.93592 0.0
C1811 C 0.90792 0.19877 0.91682 0.0
C1812 C 0.93254 0.22956 0.94003 0.0
C1813 C 0.92542 0.20879 0.91054 0.0
C1814 C 0.96318 0.25398 0.94963 0.0
C1815 C 0.9497 0.27477 0.96495 0.0
N1816 N 0.93706 0.22374 0.92205 0.0
N1817 N 0.93887 0.25762 0.95807 0.0
H1818 H 0.68246 0.63918 0.9674 0.0
H1819 H 0.7757 0.7232 0.94173 0.0
H1820 H 0.70294 0.69104 0.99861 0.0
H1821 H 0.75803 0.66954 0.91822 0.0
H1822 H 0.7477 0.71253 0.95941 0.0
H1823 H 0.70865 0.65101 0.94585 0.0
C1824 C 0.6924 0.65309 0.96962 0.0
C1825 C 0.69057 0.66409 0.98498 0.0
C1826 C 0.74995 0.70311 0.95033 0.0
C1827 C 0.72062 0.67771 0.9604 0.0
C1828 C 0.76588 0.7092 0.94018 0.0
C1829 C 0.76924 0.6972 0.92869 0.0
C1830 C 0.73726 0.6849 0.94883 0.0
C1831 C 0.7561 0.67919 0.92726 0.0
C1832 C 0.70737 0.65983 0.95734 0.0
C1833 C 0.70385 0.68203 0.98707 0.0
N1834 N 0.74072 0.67359 0.93725 0.0
N1835 N 0.71836 0.68826 0.975 0.0
H1836 H 0.94806 0.65223 0.9662 0.0
H1837 H 0.92805 0.73047 0.94024 0.0
H1838 H 0.97549 0.70422 0.99798 0.0
H1839 H 0.89657 0.67623 0.91594 0.0
H1840 H 0.94766 0.72221 0.95853 0.0
H1841 H 0.93121 0.66194 0.94467 0.0
C1842 C 0.95063 0.66573 0.96858 0.0
C1843 C 0.96314 0.67738 0.98405 0.0
C1844 C 0.93649 0.71214 0.94914 0.0
C1845 C 0.94379 0.6886 0.95943 0.0
C1846 C 0.92535 0.71687 0.93861 0.0
C1847 C 0.91057 0.70398 0.92671 0.0
C1848 C 0.93288 0.69443 0.9476 0.0
C1849 C 0.90764 0.68653 0.92525 0.0
C1850 C 0.94096 0.67126 0.95629 0.0
C1851 C 0.96592 0.69476 0.98632 0.0
N1852 N 0.91865 0.68227 0.93559 0.0
N1853 N 0.95627 0.69981 0.97421 0.0
H1854 H 0.3121 0.29043 0.95261 0.0
H1855 H 0.33356 0.22208 0.89091 0.0
H1856 H 0.36352 0.30307 0.93232 0.0
H1857 H 0.28104 0.20882 0.90663 0.0
H1858 H 0.34469 0.25132 0.90816 0.0
H1859 H 0.30048 0.25987 0.93846 0.0
C1860 C 0.32098 0.28675 0.94542 0.0
C1861 C 0.3388 0.29939 0.94351 0.0
C1862 C 0.33072 0.24206 0.90791 0.0
C1863 C 0.32557 0.26456 0.92719 0.0
C1864 C 0.32436 0.2253 0.89813 0.0
C1865 C 0.30635 0.21294 0.89747 0.0
C1866 C 0.31903 0.24661 0.91713 0.0
C1867 C 0.29502 0.218 0.90668 0.0
C1868 C 0.31431 0.26934 0.93724 0.0
C1869 C 0.34967 0.29387 0.934 0.0
N1870 N 0.30155 0.23448 0.9162 0.0
N1871 N 0.34287 0.27692 0.92614 0.0
H1872 H 0.68358 0.04875 0.95653 0.0
H1873 H 0.77162 0.05673 0.91141 0.0
H1874 H 0.71198 0.02622 0.98718 0.0
H1875 H 0.75018 0.089 0.88987 0.0
H1876 H 0.74691 0.04141 0.93524 0.0
H1877 H 0.70531 0.06002 0.92832 0.0
C1878 C 0.69433 0.04612 0.95729 0.0
C1879 C 0.69606 0.03668 0.97434 0.0
C1880 C 0.74754 0.05175 0.92516 0.0
C1881 C 0.72083 0.04938 0.94209 0.0
C1882 C 0.76155 0.06038 0.91144 0.0
C1883 C 0.76298 0.07424 0.89881 0.0
C1884 C 0.73485 0.05697 0.92615 0.0
C1885 C 0.74966 0.07855 0.89961 0.0
C1886 C 0.70672 0.05255 0.9412 0.0
C1887 C 0.71022 0.03359 0.97446 0.0
N1888 N 0.73619 0.07001 0.91315 0.0
N1889 N 0.72207 0.03995 0.95861 0.0
H1890 H 0.70285 0.9914 0.05849 0.0
H1891 H 0.69949 0.90067 0.08552 0.0
H1892 H 0.6558 0.94026 0.0494 0.0
H1893 H 0.72379 0.94675 0.12919 0.0
H1894 H 0.69074 0.91698 0.06152 0.0
H1895 H 0.71788 0.97647 0.07341 0.0
C1896 C 0.69587 0.977 0.05898 0.0
C1897 C 0.67805 0.96699 0.05285 0.0
C1898 C 0.69825 0.92352 0.07622 0.0
C1899 C 0.69514 0.95003 0.06955 0.0
C1900 C 0.70312 0.91423 0.09007 0.0
C1901 C 0.71196 0.92211 0.10986 0.0
C1902 C 0.70266 0.941 0.08183 0.0
C1903 C 0.71696 0.94003 0.11424 0.0
C1904 C 0.7044 0.96856 0.06762 0.0
C1905 C 0.66952 0.94841 0.05408 0.0
N1906 N 0.71211 0.94883 0.1004 0.0
N1907 N 0.67814 0.94049 0.06238 0.0
H1908 H 0.02812 0.73034 0.05177 0.0
H1909 H 0.11777 0.79372 0.1176 0.0
H1910 H 0.06782 0.71667 0.06632 0.0
H1911 H 0.07795 0.80781 0.10653 0.0
H1912 H 0.101 0.76704 0.09469 0.0
H1913 H 0.04762 0.76039 0.06708 0.0
C1914 C 0.04104 0.73373 0.05779 0.0
C1915 C 0.04624 0.72086 0.058 0.0
C1916 C 0.09592 0.77597 0.09713 0.0
C1917 C 0.06852 0.75514 0.0757 0.0
C1918 C 0.10546 0.79118 0.11033 0.0
C1919 C 0.09911 0.80287 0.11427 0.0
C1920 C 0.07979 0.77227 0.08781 0.0
C1921 C 0.08329 0.79912 0.10396 0.0
C1922 C 0.05212 0.75086 0.06665 0.0
C1923 C 0.06313 0.72604 0.06606 0.0
N1924 N 0.07406 0.78403 0.09137 0.0
N1925 N 0.07356 0.74268 0.07474 0.0
H1926 H 0.31707 0.36738 0.04378 0.0
H1927 H 0.2305 0.28381 0.0867 0.0
H1928 H 0.29302 0.31489 0.01333 0.0
H1929 H 0.24772 0.33846 0.10545 0.0
H1930 H 0.25523 0.29429 0.06269 0.0
H1931 H 0.29371 0.35622 0.06977 0.0
C1932 C 0.30691 0.35349 0.0426 0.0
C1933 C 0.30694 0.34208 0.02627 0.0
C1934 C 0.2536 0.30395 0.07215 0.0
C1935 C 0.28018 0.32922 0.05601 0.0
C1936 C 0.23945 0.29799 0.0858 0.0
C1937 C 0.23696 0.31025 0.09814 0.0
C1938 C 0.26541 0.32229 0.07091 0.0
C1939 C 0.2492 0.32847 0.09656 0.0
C1940 C 0.29356 0.34714 0.05742 0.0
C1941 C 0.29345 0.32419 0.02557 0.0
N1942 N 0.26285 0.33392 0.08319 0.0
N1943 N 0.2806 0.31831 0.04023 0.0
H1944 H 0.69376 0.64277 0.38131 0.0
H1945 H 0.7749 0.62594 0.38888 0.0
H1946 H 0.7245 0.64429 0.32713 0.0
H1947 H 0.74086 0.61727 0.442 0.0
H1948 H 0.75636 0.6328 0.36624 0.0
H1949 H 0.71055 0.63346 0.40407 0.0
C1950 C 0.70397 0.64109 0.37418 0.0
C1951 C 0.70775 0.64439 0.35228 0.0
C1952 C 0.75285 0.62933 0.38282 0.0
C1953 C 0.72702 0.63381 0.3782 0.0
C1954 C 0.7635 0.6255 0.39579 0.0
C1955 C 0.7595 0.62115 0.41741 0.0
C1956 C 0.73808 0.62896 0.3915 0.0
C1957 C 0.74438 0.62048 0.42538 0.0
C1958 C 0.71353 0.63576 0.38717 0.0
C1959 C 0.72112 0.64196 0.34391 0.0
N1960 N 0.73428 0.62448 0.41248 0.0
N1961 N 0.73028 0.63691 0.35688 0.0
H1962 H 0.36476 0.05339 0.40022 0.0
H1963 H 0.34618 0.12633 0.45463 0.0
H1964 H 0.31343 0.04487 0.41415 0.0
H1965 H 0.39799 0.13311 0.45181 0.0
H1966 H 0.33457 0.09839 0.43411 0.0
H1967 H 0.37757 0.08448 0.41308 0.0
C1968 C 0.35616 0.05814 0.40556 0.0
C1969 C 0.338 0.04647 0.40634 0.0
C1970 C 0.34851 0.106 0.43782 0.0
C1971 C 0.35256 0.08186 0.42117 0.0
C1972 C 0.3552 0.12207 0.44943 0.0
C1973 C 0.37314 0.13217 0.45492 0.0
C1974 C 0.35976 0.09977 0.43165 0.0
C1975 C 0.38406 0.12568 0.44812 0.0
C1976 C 0.36349 0.07583 0.41305 0.0
C1977 C 0.3275 0.05332 0.4135 0.0
N1978 N 0.37718 0.10984 0.43688 0.0
N1979 N 0.33494 0.0705 0.42076 0.0
H1980 H 0.96301 0.31196 0.36167 0.0
H1981 H 0.90497 0.23315 0.44038 0.0
H1982 H 0.97423 0.27046 0.37772 0.0
H1983 H 0.89584 0.27655 0.42749 0.0
H1984 H 0.93054 0.24676 0.41781 0.0
H1985 H 0.93848 0.29927 0.38589 0.0
C1986 C 0.96034 0.30019 0.37032 0.0
C1987 C 0.97067 0.29222 0.3676 0.0
C1988 C 0.92299 0.25335 0.41997 0.0
C1989 C 0.94253 0.2776 0.39537 0.0
C1990 C 0.90844 0.24564 0.43296 0.0
C1991 C 0.89826 0.25375 0.43589 0.0
C1992 C 0.92741 0.26927 0.40973 0.0
C1993 C 0.90318 0.26973 0.4255 0.0
C1994 C 0.94633 0.29295 0.38417 0.0
C1995 C 0.96661 0.27703 0.3793 0.0
N1996 N 0.9174 0.27696 0.41287 0.0
N1997 N 0.95282 0.27017 0.39263 0.0
H1998 H 0.98323 0.35737 0.3078 0.0
H1999 H 0.00929 0.44583 0.24481 0.0
H2000 H 0.03628 0.39965 0.29898 0.0
H2001 H 0.95671 0.40097 0.2459 0.0
H2002 H 0.01844 0.43198 0.27196 0.0
H2003 H 0.97254 0.37626 0.29326 0.0
C2004 C 0.99265 0.37078 0.30335 0.0
C2005 C 0.01067 0.37681 0.30413 0.0
C2006 C 0.00485 0.42522 0.26645 0.0
C2007 C -0.00147 0.39834 0.28729 0.0
C2008 C -0.00034 0.43306 0.25084 0.0
C2009 C 0.98231 0.42432 0.24276 0.0
C2010 C 0.99265 0.40842 0.27394 0.0
C2011 C 0.97025 0.40807 0.2516 0.0
C2012 C 0.98652 0.38151 0.29491 0.0
C2013 C 0.02226 0.39433 0.29823 0.0
N2014 N 0.9757 0.4005 0.26651 0.0
N2015 N 0.01598 0.40437 0.28975 0.0
H2016 H 0.60199 0.61855 0.29473 0.0
H2017 H 0.59026 0.52608 0.25088 0.0
H2018 H 0.64231 0.60471 0.30259 0.0
H2019 H 0.54905 0.53903 0.25071 0.0
H2020 H 0.60892 0.55351 0.27237 0.0
H2021 H 0.5818 0.58833 0.28137 0.0
C2022 C 0.60655 0.60907 0.29387 0.0
C2023 C 0.62393 0.61423 0.2996 0.0
C2024 C 0.59574 0.55024 0.26777 0.0
C2025 C 0.60086 0.5795 0.28392 0.0
C2026 C 0.58506 0.53457 0.25557 0.0
C2027 C 0.56815 0.53039 0.24868 0.0
C2028 C 0.58944 0.56179 0.27311 0.0
C2029 C 0.56213 0.54192 0.25518 0.0
C2030 C 0.595 0.59177 0.28621 0.0
C2031 C 0.62903 0.6013 0.29833 0.0
N2032 N 0.57279 0.55711 0.26684 0.0
N2033 N 0.61761 0.58458 0.29032 0.0
H2034 H 0.39782 0.04456 0.34941 0.0
H2035 H 0.41823 0.9954 0.2537 0.0
H2036 H 0.36153 0.99109 0.32557 0.0
H2037 H 0.4511 0.05136 0.26997 0.0
H2038 H 0.39703 0.99386 0.27962 0.0
H2039 H 0.4173 0.04773 0.32008 0.0
C2040 C 0.3939 0.03353 0.33796 0.0
C2041 C 0.37808 0.01749 0.34006 0.0
C2042 C 0.40881 0.00653 0.27744 0.0
C2043 C 0.40031 0.021 0.30655 0.0
C2044 C 0.42093 0.00738 0.26271 0.0
C2045 C 0.43647 0.0235 0.25982 0.0
C2046 C 0.41231 0.02187 0.28956 0.0
C2047 C 0.43923 0.03869 0.27167 0.0
C2048 C 0.40501 0.03536 0.3212 0.0
C2049 C 0.37364 0.00367 0.32468 0.0
N2050 N 0.42734 0.03747 0.28619 0.0
N2051 N 0.38475 0.0057 0.3087 0.0
H2052 H 0.63668 0.03955 0.33883 0.0
H2053 H 0.56032 0.99381 0.24857 0.0
H2054 H 0.62034 0.98801 0.30892 0.0
H2055 H 0.58503 0.04958 0.26702 0.0
H2056 H 0.58195 0.99133 0.27104 0.0
H2057 H 0.61787 0.04358 0.31291 0.0
C2058 C 0.62926 0.02914 0.3267 0.0
C2059 C 0.63003 0.01337 0.32614 0.0
C2060 C 0.58273 0.00414 0.27008 0.0
C2061 C 0.60832 0.01783 0.29657 0.0
C2062 C 0.57032 0.00554 0.25736 0.0
C2063 C 0.57083 0.02191 0.25603 0.0
C2064 C 0.59566 0.01918 0.28179 0.0
C2065 C 0.58422 0.03673 0.26752 0.0
C2066 C 0.61853 0.03146 0.3119 0.0
C2067 C 0.62015 0.00037 0.31001 0.0
N2068 N 0.59602 0.03498 0.28007 0.0
N2069 N 0.60959 0.00282 0.29602 0.0
H2070 H 0.02803 0.64226 0.2498 0.0
H2071 H 0.96802 0.53721 0.24933 0.0
H2072 H 0.98714 0.61755 0.29603 0.0
H2073 H 0.9893 0.56723 0.19196 0.0
H2074 H 0.97752 0.56529 0.26974 0.0
H2075 H 0.01774 0.61332 0.2322 0.0
C2076 C 0.01699 0.63074 0.25645 0.0
C2077 C 0.00833 0.63244 0.27435 0.0
C2078 C 0.98 0.5656 0.25266 0.0
C2079 C 0.99645 0.59915 0.25404 0.0
C2080 C 0.9745 0.54962 0.24096 0.0
C2081 C 0.97807 0.54983 0.2189 0.0
C2082 C 0.98933 0.58182 0.24228 0.0
C2083 C 0.98668 0.56637 0.20901 0.0
C2084 C 0.01105 0.61422 0.24625 0.0
C2085 C 0.99413 0.6169 0.28219 0.0
N2086 N 0.99216 0.58166 0.22081 0.0
N2087 N 0.98857 0.60083 0.27194 0.0
H2088 H 0.3989 0.36607 0.35268 0.0
H2089 H 0.41941 0.38402 0.22755 0.0
H2090 H 0.35929 0.35432 0.30318 0.0
H2091 H 0.45928 0.40481 0.27845 0.0
H2092 H 0.39712 0.36972 0.25458 0.0
H2093 H 0.4211 0.37707 0.32516 0.0
C2094 C 0.39486 0.36575 0.33602 0.0
C2095 C 0.37722 0.35937 0.33024 0.0
C2096 C 0.41076 0.37732 0.2598 0.0
C2097 C 0.40257 0.37188 0.29866 0.0
C2098 C 0.4235 0.38553 0.24439 0.0
C2099 C 0.44126 0.39577 0.25072 0.0
C2100 C 0.4158 0.3793 0.28173 0.0
C2101 C 0.44578 0.39694 0.27276 0.0
C2102 C 0.40755 0.37205 0.32032 0.0
C2103 C 0.37275 0.35923 0.30838 0.0
N2104 N 0.43313 0.38889 0.28747 0.0
N2105 N 0.38534 0.36542 0.29339 0.0
H2106 H 0.30852 0.27153 0.40838 0.0
H2107 H 0.38715 0.2574 0.43507 0.0
H2108 H 0.35741 0.30827 0.37952 0.0
H2109 H 0.35872 0.267 0.48466 0.0
H2110 H 0.3742 0.26822 0.40827 0.0
H2111 H 0.3237 0.25947 0.42894 0.0
C2112 C 0.32236 0.2768 0.40591 0.0
C2113 C 0.33179 0.29128 0.39258 0.0
C2114 C 0.37097 0.26795 0.42508 0.0
C2115 C 0.34905 0.27731 0.41598 0.0
C2116 C 0.37843 0.26196 0.44046 0.0
C2117 C 0.37385 0.26099 0.46227 0.0
C2118 C 0.35859 0.27252 0.43154 0.0
C2119 C 0.36225 0.26689 0.46806 0.0
C2120 C 0.33097 0.26993 0.41775 0.0
C2121 C 0.34967 0.29727 0.38982 0.0
N2122 N 0.3548 0.2721 0.45274 0.0
N2123 N 0.35785 0.2904 0.40172 0.0
H2124 H 0.69262 0.05085 0.37048 0.0
H2125 H 0.74723 0.11334 0.47103 0.0
H2126 H 0.71001 0.03356 0.42566 0.0
H2127 H 0.75893 0.1346 0.40724 0.0
H2128 H 0.72674 0.08416 0.45505 0.0
H2129 H 0.71129 0.08202 0.38392 0.0
C2130 C 0.70035 0.05356 0.38528 0.0
C2131 C 0.69977 0.03954 0.3969 0.0
C2132 C 0.73374 0.09523 0.44454 0.0
C2133 C 0.72054 0.07477 0.41244 0.0
C2134 C 0.74551 0.11188 0.45363 0.0
C2135 C 0.75522 0.12636 0.44044 0.0
C2136 C 0.73138 0.09292 0.42205 0.0
C2137 C 0.75183 0.12376 0.418 0.0
C2138 C 0.71095 0.07128 0.39288 0.0
C2139 C 0.71004 0.04382 0.41601 0.0
N2140 N 0.74025 0.10726 0.40943 0.0
N2141 N 0.71981 0.06096 0.42322 0.0
H2142 H 0.98563 0.68773 0.39163 0.0
H2143 H 0.89237 0.60514 0.41967 0.0
H2144 H 0.96099 0.63738 0.35594 0.0
H2145 H 0.91266 0.65857 0.44582 0.0
H2146 H 0.91982 0.61512 0.40096 0.0
H2147 H 0.96143 0.67548 0.41645 0.0
C2148 C 0.97525 0.67403 0.38916 0.0
C2149 C 0.97521 0.66365 0.3715 0.0
C2150 C 0.91831 0.62462 0.41093 0.0
C2151 C 0.94745 0.64958 0.3998 0.0
C2152 C 0.90269 0.61891 0.42168 0.0
C2153 C 0.9002 0.63111 0.43408 0.0
C2154 C 0.93152 0.6426 0.41275 0.0
C2155 C 0.91395 0.64882 0.43608 0.0
C2156 C 0.96141 0.66707 0.4033 0.0
C2157 C 0.96146 0.64593 0.3692 0.0
N2158 N 0.92899 0.65405 0.42543 0.0
N2159 N 0.94804 0.6395 0.38307 0.0
H2160 H 0.38729 0.97412 0.67088 0.0
H2161 H 0.41797 0.97327 0.79292 0.0
H2162 H 0.3667 0.98847 0.7255 0.0
H2163 H 0.44152 0.96465 0.73691 0.0
H2164 H 0.39783 0.97712 0.76906 0.0
H2165 H 0.40562 0.96846 0.69538 0.0
C2166 C 0.38654 0.97601 0.68806 0.0
C2167 C 0.37545 0.98186 0.6961 0.0
C2168 C 0.40738 0.97433 0.76203 0.0
C2169 C 0.3966 0.97542 0.72441 0.0
C2170 C 0.41896 0.97222 0.77563 0.0
C2171 C 0.43154 0.96863 0.76698 0.0
C2172 C 0.40832 0.97282 0.73956 0.0
C2173 C 0.43193 0.96712 0.74442 0.0
C2174 C 0.39708 0.9728 0.70208 0.0
C2175 C 0.37506 0.98401 0.71857 0.0
N2176 N 0.42055 0.96926 0.73156 0.0
N2177 N 0.38554 0.98084 0.73195 0.0
H2178 H 0.01818 0.38131 0.72051 0.0
H2179 H 0.98812 0.44072 0.78716 0.0
H2180 H 0.96488 0.36374 0.73766 0.0
H2181 H 0.04224 0.45738 0.776 0.0
H2182 H 0.97922 0.41403 0.7647 0.0
H2183 H 0.02697 0.41098 0.73576 0.0
C2184 C 0.00828 0.38376 0.72711 0.0
C2185 C 0.99081 0.36995 0.72808 0.0
C2186 C 0.99306 0.42353 0.76706 0.0
C2187 C 0.00079 0.40374 0.74569 0.0
C2188 C 0.99815 0.43872 0.78004 0.0
C2189 C 0.01596 0.45116 0.78375 0.0
C2190 C 0.00585 0.42066 0.75772 0.0
C2191 C 0.02836 0.44812 0.77358 0.0
C2192 C 0.01332 0.40067 0.73594 0.0
C2193 C 0.97854 0.3739 0.73684 0.0
N2194 N 0.02307 0.43308 0.76117 0.0
N2195 N 0.98379 0.39036 0.74546 0.0
H2196 H 0.60981 0.62227 0.66232 0.0
H2197 H 0.57836 0.61193 0.78417 0.0
H2198 H 0.64462 0.63311 0.71744 0.0
H2199 H 0.54342 0.58719 0.7289 0.0
H2200 H 0.60323 0.62491 0.75993 0.0
H2201 H 0.58571 0.61419 0.68668 0.0
C2202 C 0.6124 0.623 0.67955 0.0
C2203 C 0.62922 0.62821 0.68786 0.0
C2204 C 0.59009 0.61677 0.75314 0.0
C2205 C 0.6017 0.61909 0.71582 0.0
C2206 C 0.57595 0.60951 0.76691 0.0
C2207 C 0.55893 0.59843 0.75843 0.0
C2208 C 0.58707 0.61304 0.73081 0.0
C2209 C 0.55641 0.59555 0.73601 0.0
C2210 C 0.59863 0.61838 0.69344 0.0
C2211 C 0.63182 0.62899 0.71035 0.0
N2212 N 0.57033 0.60276 0.72298 0.0
N2213 N 0.61818 0.62445 0.72358 0.0
H2214 H 0.65303 0.6754 0.64002 0.0
H2215 H 0.67454 0.76164 0.57363 0.0
H2216 H 0.7046 0.71437 0.61984 0.0
H2217 H 0.62186 0.72141 0.58828 0.0
H2218 H 0.68576 0.74565 0.59385 0.0
H2219 H 0.64147 0.69344 0.62493 0.0
C2220 C 0.66197 0.68786 0.63272 0.0
C2221 C 0.67979 0.6933 0.63098 0.0
C2222 C 0.67174 0.7403 0.59276 0.0
C2223 C 0.66664 0.71384 0.6136 0.0
C2224 C 0.66531 0.74949 0.58129 0.0
C2225 C 0.64723 0.7429 0.57937 0.0
C2226 C 0.66004 0.72429 0.60237 0.0
C2227 C 0.6359 0.72687 0.58923 0.0
C2228 C 0.65533 0.69808 0.624 0.0
C2229 C 0.69074 0.70954 0.62134 0.0
N2230 N 0.6425 0.71807 0.60033 0.0
N2231 N 0.68397 0.71915 0.61291 0.0
H2232 H 0.27017 0.95443 0.64006 0.0
H2233 H 0.25268 0.86036 0.59477 0.0
H2234 H 0.3096 0.93905 0.643 0.0
H2235 H 0.21288 0.87505 0.60017 0.0
H2236 H 0.27303 0.88741 0.6159 0.0
H2237 H 0.24837 0.92399 0.62929 0.0
C2238 C 0.27418 0.94453 0.63872 0.0
C2239 C 0.29174 0.94929 0.64222 0.0
C2240 C 0.25977 0.88458 0.61269 0.0
C2241 C 0.26684 0.91434 0.62938 0.0
C2242 C 0.24814 0.86912 0.6007 0.0
C2243 C 0.23114 0.86559 0.5954 0.0
C2244 C 0.25434 0.89658 0.61938 0.0
C2245 C 0.22598 0.87743 0.60343 0.0
C2246 C 0.26171 0.92712 0.63253 0.0
C2247 C 0.29618 0.9359 0.64044 0.0
N2248 N 0.23756 0.89243 0.6148 0.0
N2249 N 0.28385 0.91906 0.63375 0.0
H2250 H 0.06609 0.36743 0.69251 0.0
H2251 H 0.09081 0.36285 0.56988 0.0
H2252 H 0.02785 0.33917 0.64099 0.0
H2253 H 0.12859 0.38319 0.62312 0.0
H2254 H 0.06781 0.35774 0.59494 0.0
H2255 H 0.08934 0.37705 0.66645 0.0
C2256 C 0.06256 0.36335 0.67569 0.0
C2257 C 0.045 0.35234 0.66895 0.0
C2258 C 0.08116 0.36343 0.60112 0.0
C2259 C 0.07156 0.36331 0.63906 0.0
C2260 C 0.09429 0.36629 0.58684 0.0
C2261 C 0.11165 0.3733 0.59443 0.0
C2262 C 0.08539 0.36763 0.62318 0.0
C2263 C 0.11543 0.37787 0.6165 0.0
C2264 C 0.07585 0.36883 0.66084 0.0
C2265 C 0.04122 0.34754 0.64694 0.0
N2266 N 0.10238 0.37484 0.63011 0.0
N2267 N 0.0544 0.35299 0.6328 0.0
H2268 H 0.28656 0.36588 0.69052 0.0
H2269 H 0.25377 0.36102 0.56808 0.0
H2270 H 0.29741 0.33891 0.63903 0.0
H2271 H 0.23702 0.38045 0.622 0.0
H2272 H 0.27215 0.35542 0.59292 0.0
H2273 H 0.27101 0.37414 0.66469 0.0
C2274 C 0.28577 0.36175 0.67374 0.0
C2275 C 0.29324 0.35157 0.66699 0.0
C2276 C 0.26451 0.36099 0.59927 0.0
C2277 C 0.27531 0.36101 0.6372 0.0
C2278 C 0.25393 0.36413 0.58511 0.0
C2279 C 0.2437 0.37116 0.5929 0.0
C2280 C 0.26494 0.36495 0.62141 0.0
C2281 C 0.24478 0.37523 0.61512 0.0
C2282 C 0.27683 0.36647 0.65898 0.0
C2283 C 0.2918 0.34671 0.64498 0.0
N2284 N 0.25513 0.37201 0.62855 0.0
N2285 N 0.28295 0.35142 0.63088 0.0
H2286 H 0.64385 0.95269 0.62356 0.0
H2287 H 0.67122 0.88766 0.56498 0.0
H2288 H 0.69551 0.9692 0.60054 0.0
H2289 H 0.6177 0.87168 0.579 0.0
H2290 H 0.6807 0.91667 0.58209 0.0
H2291 H 0.63453 0.92199 0.61182 0.0
C2292 C 0.65331 0.94984 0.61635 0.0
C2293 C 0.67046 0.96358 0.61284 0.0
C2294 C 0.66687 0.90683 0.58153 0.0
C2295 C 0.65984 0.92858 0.59927 0.0
C2296 C 0.66145 0.8902 0.57184 0.0
C2297 C 0.64363 0.87718 0.5706 0.0
C2298 C 0.65442 0.9106 0.59006 0.0
C2299 C 0.63155 0.88139 0.57943 0.0
C2300 C 0.64793 0.93234 0.60952 0.0
C2301 C 0.68212 0.9591 0.60337 0.0
N2302 N 0.63716 0.89776 0.58879 0.0
N2303 N 0.67657 0.94203 0.59683 0.0
H2304 H 0.01382 0.72366 0.62433 0.0
H2305 H 0.09714 0.71902 0.58396 0.0
H2306 H 0.03252 0.69153 0.65406 0.0
H2307 H 0.08479 0.75915 0.56497 0.0
H2308 H 0.07137 0.70605 0.60642 0.0
H2309 H 0.03752 0.73389 0.59885 0.0
C2310 C 0.02284 0.71867 0.62543 0.0
C2311 C 0.02126 0.70682 0.64147 0.0
C2312 C 0.07428 0.71764 0.59722 0.0
C2313 C 0.04841 0.71847 0.61233 0.0
C2314 C 0.08903 0.7251 0.58446 0.0
C2315 C 0.09322 0.74025 0.57254 0.0
C2316 C 0.06359 0.72533 0.59803 0.0
C2317 C 0.082 0.74733 0.57356 0.0
C2318 C 0.0364 0.72455 0.6109 0.0
C2319 C 0.03332 0.70077 0.64206 0.0
N2320 N 0.06776 0.73985 0.58611 0.0
N2321 N 0.04641 0.7067 0.62774 0.0
H2322 H 0.96036 0.61466 0.73468 0.0
H2323 H 0.04152 0.60395 0.77199 0.0
H2324 H 0.01376 0.65297 0.72024 0.0
H2325 H 0.98737 0.56584 0.78328 0.0
H2326 H 0.03198 0.62139 0.75099 0.0
H2327 H 0.97026 0.59545 0.74964 0.0
C2328 C 0.97418 0.61895 0.73446 0.0
C2329 C 0.98627 0.63553 0.72642 0.0
C2330 C 0.02222 0.60912 0.75793 0.0
C2331 C 0.9978 0.61366 0.74388 0.0
C2332 C 0.02765 0.59925 0.77004 0.0
C2333 C 0.01523 0.58339 0.77937 0.0
C2334 C 0.00425 0.60312 0.75529 0.0
C2335 C 0.99742 0.57782 0.77614 0.0
C2336 C 0.97985 0.60798 0.74305 0.0
C2337 C 0.004 0.6403 0.72633 0.0
N2338 N 0.9925 0.58769 0.76446 0.0
N2339 N 0.00928 0.62951 0.73522 0.0
H2340 H 0.37047 0.37262 0.76631 0.0
H2341 H 0.42365 0.47352 0.73563 0.0
H2342 H 0.35977 0.38836 0.70492 0.0
H2343 H 0.40848 0.45694 0.80065 0.0
H2344 H 0.40348 0.44274 0.72237 0.0
H2345 H 0.38827 0.40383 0.77754 0.0
C2346 C 0.37196 0.38265 0.75509 0.0
C2347 C 0.36364 0.37784 0.73459 0.0
C2348 C 0.40446 0.44598 0.73948 0.0
C2349 C 0.38413 0.41375 0.74746 0.0
C2350 C 0.41595 0.46344 0.74705 0.0
C2351 C 0.41766 0.46774 0.76925 0.0
C2352 C 0.39503 0.43273 0.75432 0.0
C2353 C 0.40742 0.45424 0.7834 0.0
C2354 C 0.38202 0.40048 0.76161 0.0
C2355 C 0.36594 0.3915 0.72087 0.0
N2356 N 0.39673 0.43732 0.77573 0.0
N2357 N 0.37614 0.40891 0.72749 0.0
H2358 H 0.62556 0.97994 0.68652 0.0
H2359 H 0.5836 0.01268 0.77657 0.0
H2360 H 0.64895 0.03458 0.70978 0.0
H2361 H 0.56511 0.95717 0.76132 0.0
H2362 H 0.60799 0.02086 0.75276 0.0
H2363 H 0.60362 0.97119 0.71424 0.0
C2364 C 0.62616 0.99008 0.69754 0.0
C2365 C 0.63903 0.00804 0.69572 0.0
C2366 C 0.59867 0.00688 0.75473 0.0
C2367 C 0.6139 0.99813 0.72739 0.0
C2368 C 0.58476 0.00218 0.76844 0.0
C2369 C 0.5722 0.98419 0.77095 0.0
C2370 C 0.60001 0.99352 0.74325 0.0
C2371 C 0.57428 0.97122 0.75962 0.0
C2372 C 0.61363 0.98507 0.71338 0.0
C2373 C 0.63922 0.02059 0.71051 0.0
N2374 N 0.58785 0.97614 0.74618 0.0
N2375 N 0.62676 0.01542 0.72561 0.0
loop_
_geom_bond_atom_site_label_1
_geom_bond_atom_site_label_2
_geom_bond_distance
_geom_bond_site_symmetry_2
_ccdc_geom_bond_type
Mg0 O1 2.028 1_556 S
Mg0 O7 1.986 1_455 S
Mg0 O9 2.114 . S
Mg0 O10 2.217 1_455 S
Mg0 O13 2.010 1_556 S
O1 Mg0 2.028 1_554 S
O1 C4 1.250 1_455 S
O2 Mg3 2.028 1_554 S
O2 C4 1.248 . S
Mg3 O2 2.028 1_556 S
Mg3 O8 2.032 . S
Mg3 O10 2.124 . S
C4 O1 1.250 1_655 S
C4 O2 1.248 . S
C5 O6 1.264 . S
C5 O13 1.249 . S
O6 C5 1.264 . S
O7 Mg0 1.986 1_655 S
O7 C11 1.246 . S
O8 Mg3 2.032 . S
O8 C11 1.259 . S
O9 Mg0 2.114 . S
O9 C12 1.252 . S
O10 Mg0 2.217 1_655 S
O10 Mg3 2.124 . S
O10 C12 1.240 1_655 S
C11 O7 1.246 . S
C11 O8 1.259 . S
C12 O9 1.252 . S
C12 O10 1.240 1_455 S
O13 Mg0 2.010 1_554 S
O13 C5 1.249 . S
Mg14 O15 2.028 1_554 S
Mg14 O21 1.986 . S
Mg14 O23 2.114 . S
Mg14 O24 2.251 . S
Mg14 O27 2.010 . S
O15 Mg14 2.028 1_556 S
O15 C18 1.250 . S
O16 Mg17 2.028 . S
O16 C18 1.248 1_554 S
Mg17 O16 2.028 . S
Mg17 O22 2.032 . S
Mg17 O24 2.079 . S
C18 O15 1.250 . S
C18 O16 1.248 1_556 S
C19 O20 1.264 1_556 S
C19 O27 1.249 1_556 S
O20 C19 1.264 1_554 S
O21 Mg14 1.986 . S
O21 C25 1.246 . S
O22 Mg17 2.032 . S
O22 C25 1.259 . S
O23 Mg14 2.114 . S
O23 C26 1.252 . S
O24 Mg14 2.251 . S
O24 Mg17 2.079 . S
O24 C26 1.273 . S
C25 O21 1.246 . S
C25 O22 1.259 . S
C26 O23 1.252 . S
C26 O24 1.273 . S
O27 Mg14 2.010 . S
O27 C19 1.249 1_554 S
Mg28 O29 1.993 1_566 S
Mg28 O35 1.986 1_565 S
Mg28 O37 2.128 . S
Mg28 O38 2.274 1_565 S
Mg28 O41 1.996 1_556 S
O29 Mg28 1.993 1_544 S
O29 C32 1.250 . S
O30 Mg31 2.028 1_554 S
O30 C32 1.248 . S
Mg31 O30 2.028 1_556 S
Mg31 O36 2.032 . S
Mg31 O38 2.079 . S
C32 O29 1.250 . S
C32 O30 1.248 . S
C33 O34 1.264 . S
C33 O41 1.249 . S
O34 C33 1.264 . S
O35 Mg28 1.986 1_545 S
O35 C39 1.251 . S
O36 Mg31 2.032 . S
O36 C39 1.259 . S
O37 Mg28 2.128 . S
O37 C40 1.252 . S
O38 Mg28 2.274 1_545 S
O38 Mg31 2.079 . S
O38 C40 1.273 1_545 S
C39 O35 1.251 . S
C39 O36 1.259 . S
C40 O37 1.252 . S
C40 O38 1.273 1_565 S
O41 Mg28 1.996 1_554 S
O41 C33 1.249 . S
Mg42 O43 2.007 1_654 S
Mg42 O49 1.986 1_655 S
Mg42 O51 2.114 . S
Mg42 O52 2.251 1_655 S
Mg42 O55 2.010 . S
O43 Mg42 2.007 1_456 S
O43 C46 1.300 . S
O44 Mg45 2.019 1_556 S
O44 C46 1.254 . S
Mg45 O44 2.019 1_554 S
Mg45 O50 2.032 . S
Mg45 O52 2.079 . S
C46 O43 1.300 . S
C46 O44 1.254 . S
C47 O48 1.264 . S
C47 O55 1.249 . S
O48 C47 1.264 . S
O49 Mg42 1.986 1_455 S
O49 C53 1.246 . S
O50 Mg45 2.032 . S
O50 C53 1.259 . S
O51 Mg42 2.114 . S
O51 C54 1.252 . S
O52 Mg42 2.251 1_455 S
O52 Mg45 2.079 . S
O52 C54 1.273 1_455 S
C53 O49 1.246 . S
C53 O50 1.259 . S
C54 O51 1.252 . S
C54 O52 1.273 1_655 S
O55 Mg42 2.010 . S
O55 C47 1.249 . S
Mg56 O57 2.048 . S
Mg56 O63 1.985 1_554 S
Mg56 O65 2.107 1_554 S
Mg56 O66 2.238 1_554 S
Mg56 O69 2.020 . S
O57 Mg56 2.048 . S
O57 C60 1.250 . S
O58 Mg59 2.028 1_554 S
O58 C60 1.248 . S
Mg59 O58 2.028 1_556 S
Mg59 O64 2.032 . S
Mg59 O66 2.079 . S
C60 O57 1.250 . S
C60 O58 1.248 . S
C61 O62 1.264 . S
C61 O69 1.249 . S
O62 C61 1.264 . S
O63 Mg56 1.985 1_556 S
O63 C67 1.246 . S
O64 Mg59 2.032 . S
O64 C67 1.259 . S
O65 Mg56 2.107 1_556 S
O65 C68 1.252 . S
O66 Mg56 2.238 1_556 S
O66 Mg59 2.079 . S
O66 C68 1.273 . S
C67 O63 1.246 . S
C67 O64 1.259 . S
C68 O65 1.252 . S
C68 O66 1.273 . S
O69 Mg56 2.020 . S
O69 C61 1.249 . S
Mg70 O71 2.028 1_554 S
Mg70 O77 1.986 1_545 S
Mg70 O79 2.114 . S
Mg70 O80 2.251 1_545 S
Mg70 O83 2.010 . S
O71 Mg70 2.028 1_556 S
O71 C74 1.250 1_545 S
O72 Mg73 2.074 . S
O72 C74 1.219 1_554 S
Mg73 O72 2.074 . S
Mg73 O78 2.032 . S
Mg73 O80 2.079 . S
C74 O71 1.250 1_565 S
C74 O72 1.219 1_556 S
C75 O76 1.264 . S
C75 O83 1.249 . S
O76 C75 1.264 . S
O77 Mg70 1.986 1_565 S
O77 C81 1.246 . S
O78 Mg73 2.032 . S
O78 C81 1.259 . S
O79 Mg70 2.114 . S
O79 C82 1.252 . S
O80 Mg70 2.251 1_565 S
O80 Mg73 2.079 . S
O80 C82 1.273 1_565 S
C81 O77 1.246 . S
C81 O78 1.259 . S
C82 O79 1.252 . S
C82 O80 1.273 1_545 S
O83 Mg70 2.010 . S
O83 C75 1.249 . S
Mg84 O85 2.028 . S
Mg84 O91 1.986 . S
Mg84 O93 2.114 . S
Mg84 O94 2.251 . S
Mg84 O97 2.010 . S
O85 Mg84 2.028 . S
O85 C88 1.250 . S
O86 Mg87 2.028 . S
O86 C88 1.248 . S
Mg87 O86 2.028 . S
Mg87 O92 2.032 . S
Mg87 O94 2.079 . S
C88 O85 1.250 . S
C88 O86 1.248 . S
C89 O90 1.264 . S
C89 O97 1.249 . S
O90 C89 1.264 . S
O91 Mg84 1.986 . S
O91 C95 1.246 . S
O92 Mg87 2.032 . S
O92 C95 1.259 . S
O93 Mg84 2.114 . S
O93 C96 1.252 . S
O94 Mg84 2.251 . S
O94 Mg87 2.079 . S
O94 C96 1.273 . S
C95 O91 1.246 . S
C95 O92 1.259 . S
C96 O93 1.252 . S
C96 O94 1.273 . S
O97 Mg84 2.010 . S
O97 C89 1.249 . S
Mg98 O99 2.028 . S
Mg98 O105 1.986 1_565 S
Mg98 O107 2.114 . S
Mg98 O108 2.251 . S
Mg98 O111 2.010 . S
O99 Mg98 2.028 . S
O99 C102 1.250 . S
O100 Mg101 2.028 . S
O100 C102 1.248 . S
Mg101 O100 2.028 . S
Mg101 O106 2.032 1_565 S
Mg101 O108 2.079 . S
C102 O99 1.250 . S
C102 O100 1.248 . S
C103 O104 1.264 . S
C103 O111 1.249 . S
O104 C103 1.264 . S
O105 Mg98 1.986 1_545 S
O105 C109 1.246 . S
O106 Mg101 2.032 1_545 S
O106 C109 1.259 . S
O107 Mg98 2.114 . S
O107 C110 1.252 . S
O108 Mg98 2.251 . S
O108 Mg101 2.079 . S
O108 C110 1.273 . S
C109 O105 1.246 . S
C109 O106 1.259 . S
C110 O107 1.252 . S
C110 O108 1.273 . S
O111 Mg98 2.010 . S
O111 C103 1.249 . S
Mg112 O113 2.028 . S
Mg112 O119 1.986 . S
Mg112 O121 2.114 . S
Mg112 O122 2.251 . S
Mg112 O125 2.010 1_455 S
O113 Mg112 2.028 . S
O113 C116 1.250 . S
O114 Mg115 2.028 . S
O114 C116 1.248 . S
Mg115 O114 2.028 . S
Mg115 O120 2.032 . S
Mg115 O122 2.079 . S
C116 O113 1.250 . S
C116 O114 1.248 . S
C117 O118 1.264 . S
C117 O125 1.249 . S
O118 C117 1.264 . S
O119 Mg112 1.986 . S
O119 C123 1.246 . S
O120 Mg115 2.032 . S
O120 C123 1.259 . S
O121 Mg112 2.114 . S
O121 C124 1.252 . S
O122 Mg112 2.251 . S
O122 Mg115 2.079 . S
O122 C124 1.273 . S
C123 O119 1.246 . S
C123 O120 1.259 . S
C124 O121 1.252 . S
C124 O122 1.273 . S
O125 Mg112 2.010 1_655 S
O125 C117 1.249 . S
Mg126 O127 2.028 . S
Mg126 O133 1.986 1_565 S
Mg126 O135 2.114 . S
Mg126 O136 2.251 . S
Mg126 O139 2.010 . S
O127 Mg126 2.028 . S
O127 C130 1.250 . S
O128 Mg129 2.028 . S
O128 C130 1.248 . S
Mg129 O128 2.028 . S
Mg129 O134 2.032 1_565 S
Mg129 O136 2.079 . S
C130 O127 1.250 . S
C130 O128 1.248 . S
C131 O132 1.264 . S
C131 O139 1.249 . S
O132 C131 1.264 . S
O133 Mg126 1.986 1_545 S
O133 C137 1.246 . S
O134 Mg129 2.032 1_545 S
O134 C137 1.259 . S
O135 Mg126 2.114 . S
O135 C138 1.252 . S
O136 Mg126 2.251 . S
O136 Mg129 2.079 . S
O136 C138 1.273 . S
C137 O133 1.246 . S
C137 O134 1.259 . S
C138 O135 1.252 . S
C138 O136 1.273 . S
O139 Mg126 2.010 . S
O139 C131 1.249 . S
Mg140 O141 2.028 . S
Mg140 O147 1.986 . S
Mg140 O149 2.114 . S
Mg140 O150 2.251 . S
Mg140 O153 2.010 1_455 S
O141 Mg140 2.028 . S
O141 C144 1.250 . S
O142 Mg143 2.028 . S
O142 C144 1.248 . S
Mg143 O142 2.028 . S
Mg143 O148 2.032 . S
Mg143 O150 2.079 . S
C144 O141 1.250 . S
C144 O142 1.248 . S
C145 O146 1.264 . S
C145 O153 1.249 . S
O146 C145 1.264 . S
O147 Mg140 1.986 . S
O147 C151 1.246 . S
O148 Mg143 2.032 . S
O148 C151 1.259 . S
O149 Mg140 2.114 . S
O149 C152 1.252 . S
O150 Mg140 2.251 . S
O150 Mg143 2.079 . S
O150 C152 1.273 . S
C151 O147 1.246 . S
C151 O148 1.259 . S
C152 O149 1.252 . S
C152 O150 1.273 . S
O153 Mg140 2.010 1_655 S
O153 C145 1.249 . S
Mg154 O155 2.028 . S
Mg154 O161 1.986 . S
Mg154 O163 2.114 . S
Mg154 O164 2.251 . S
Mg154 O167 2.010 . S
O155 Mg154 2.028 . S
O155 C158 1.250 . S
O156 Mg157 2.028 . S
O156 C158 1.248 . S
Mg157 O156 2.028 . S
Mg157 O162 2.032 . S
Mg157 O164 2.079 . S
C158 O155 1.250 . S
C158 O156 1.248 . S
C159 O160 1.264 . S
C159 O167 1.249 . S
O160 C159 1.264 . S
O161 Mg154 1.986 . S
O161 C165 1.246 . S
O162 Mg157 2.032 . S
O162 C165 1.259 . S
O163 Mg154 2.114 . S
O163 C166 1.252 . S
O164 Mg154 2.251 . S
O164 Mg157 2.079 . S
O164 C166 1.273 . S
C165 O161 1.246 . S
C165 O162 1.259 . S
C166 O163 1.252 . S
C166 O164 1.273 . S
O167 Mg154 2.010 . S
O167 C159 1.249 . S
Mg168 O169 2.028 . S
Mg168 O175 1.986 1_545 S
Mg168 O177 2.114 . S
Mg168 O178 2.251 . S
Mg168 O181 2.010 . S
O169 Mg168 2.028 . S
O169 C172 1.250 . S
O170 Mg171 2.028 . S
O170 C172 1.248 . S
Mg171 O170 2.028 . S
Mg171 O176 2.032 1_545 S
Mg171 O178 2.079 . S
C172 O169 1.250 . S
C172 O170 1.248 . S
C173 O174 1.264 . S
C173 O181 1.249 . S
O174 C173 1.264 . S
O175 Mg168 1.986 1_565 S
O175 C179 1.246 . S
O176 Mg171 2.032 1_565 S
O176 C179 1.259 . S
O177 Mg168 2.114 . S
O177 C180 1.252 . S
O178 Mg168 2.251 . S
O178 Mg171 2.079 . S
O178 C180 1.273 . S
C179 O175 1.246 . S
C179 O176 1.259 . S
C180 O177 1.252 . S
C180 O178 1.273 . S
O181 Mg168 2.010 . S
O181 C173 1.249 . S
Mg182 O183 2.028 . S
Mg182 O189 1.986 . S
Mg182 O191 2.114 . S
Mg182 O192 2.251 . S
Mg182 O195 2.010 1_655 S
O183 Mg182 2.028 . S
O183 C186 1.250 . S
O184 Mg185 2.028 . S
O184 C186 1.248 . S
Mg185 O184 2.028 . S
Mg185 O190 2.032 . S
Mg185 O192 2.079 . S
C186 O183 1.250 . S
C186 O184 1.248 . S
C187 O188 1.264 . S
C187 O195 1.249 . S
O188 C187 1.264 . S
O189 Mg182 1.986 . S
O189 C193 1.246 . S
O190 Mg185 2.032 . S
O190 C193 1.259 . S
O191 Mg182 2.114 . S
O191 C194 1.252 . S
O192 Mg182 2.251 . S
O192 Mg185 2.079 . S
O192 C194 1.273 . S
C193 O189 1.246 . S
C193 O190 1.259 . S
C194 O191 1.252 . S
C194 O192 1.273 . S
O195 Mg182 2.010 1_455 S
O195 C187 1.249 . S
Mg196 O197 2.028 . S
Mg196 O203 1.986 . S
Mg196 O205 2.114 . S
Mg196 O206 2.251 . S
Mg196 O209 2.010 . S
O197 Mg196 2.028 . S
O197 C200 1.250 . S
O198 Mg199 2.028 . S
O198 C200 1.248 . S
Mg199 O198 2.028 . S
Mg199 O204 2.032 . S
Mg199 O206 2.079 . S
C200 O197 1.250 . S
C200 O198 1.248 . S
C201 O202 1.264 . S
C201 O209 1.249 . S
O202 C201 1.264 . S
O203 Mg196 1.986 . S
O203 C207 1.246 . S
O204 Mg199 2.032 . S
O204 C207 1.259 . S
O205 Mg196 2.114 . S
O205 C208 1.252 . S
O206 Mg196 2.251 . S
O206 Mg199 2.079 . S
O206 C208 1.273 . S
C207 O203 1.246 . S
C207 O204 1.259 . S
C208 O205 1.252 . S
C208 O206 1.273 . S
O209 Mg196 2.010 . S
O209 C201 1.249 . S
Mg210 O211 2.028 . S
Mg210 O217 1.986 . S
Mg210 O219 2.114 . S
Mg210 O220 2.251 . S
Mg210 O223 2.010 . S
O211 Mg210 2.028 . S
O211 C214 1.250 . S
O212 Mg213 2.028 . S
O212 C214 1.248 . S
Mg213 O212 2.028 . S
Mg213 O218 2.032 . S
Mg213 O220 2.079 . S
C214 O211 1.250 . S
C214 O212 1.248 . S
C215 O216 1.264 . S
C215 O223 1.249 . S
O216 C215 1.264 . S
O217 Mg210 1.986 . S
O217 C221 1.246 . S
O218 Mg213 2.032 . S
O218 C221 1.259 . S
O219 Mg210 2.114 . S
O219 C222 1.252 . S
O220 Mg210 2.251 . S
O220 Mg213 2.079 . S
O220 C222 1.273 . S
C221 O217 1.246 . S
C221 O218 1.259 . S
C222 O219 1.252 . S
C222 O220 1.273 . S
O223 Mg210 2.010 . S
O223 C215 1.249 . S
Mg224 O225 2.028 . S
Mg224 O231 1.986 1_545 S
Mg224 O233 2.114 . S
Mg224 O234 2.251 . S
Mg224 O237 2.010 . S
O225 Mg224 2.028 . S
O225 C228 1.250 . S
O226 Mg227 2.028 . S
O226 C228 1.248 . S
Mg227 O226 2.028 . S
Mg227 O232 2.032 1_545 S
Mg227 O234 2.079 . S
C228 O225 1.250 . S
C228 O226 1.248 . S
C229 O230 1.264 . S
C229 O237 1.249 . S
O230 C229 1.264 . S
O231 Mg224 1.986 1_565 S
O231 C235 1.246 . S
O232 Mg227 2.032 1_565 S
O232 C235 1.259 . S
O233 Mg224 2.114 . S
O233 C236 1.252 . S
O234 Mg224 2.251 . S
O234 Mg227 2.079 . S
O234 C236 1.273 . S
C235 O231 1.246 . S
C235 O232 1.259 . S
C236 O233 1.252 . S
C236 O234 1.273 . S
O237 Mg224 2.010 . S
O237 C229 1.249 . S
Mg238 O239 2.028 . S
Mg238 O245 1.986 . S
Mg238 O247 2.114 . S
Mg238 O248 2.251 . S
Mg238 O251 2.010 1_655 S
O239 Mg238 2.028 . S
O239 C242 1.250 . S
O240 Mg241 2.028 . S
O240 C242 1.248 . S
Mg241 O240 2.028 . S
Mg241 O246 2.032 . S
Mg241 O248 2.079 . S
C242 O239 1.250 . S
C242 O240 1.248 . S
C243 O244 1.264 . S
C243 O251 1.249 . S
O244 C243 1.264 . S
O245 Mg238 1.986 . S
O245 C249 1.246 . S
O246 Mg241 2.032 . S
O246 C249 1.259 . S
O247 Mg238 2.114 . S
O247 C250 1.252 . S
O248 Mg238 2.251 . S
O248 Mg241 2.079 . S
O248 C250 1.273 . S
C249 O245 1.246 . S
C249 O246 1.259 . S
C250 O247 1.252 . S
C250 O248 1.273 . S
O251 Mg238 2.010 1_455 S
O251 C243 1.249 . S
C252 C253 1.384 . S
C252 C254 1.384 . S
C252 H280 0.931 . S
C253 C252 1.384 . S
C253 C256 1.382 . S
C254 C252 1.384 . S
C254 C255 1.381 . S
C254 H281 0.930 . S
C255 C254 1.381 . S
C255 C257 1.381 . S
C255 C258 1.487 . S
C256 C253 1.382 . S
C256 C257 1.387 . S
C256 H282 0.930 . S
C257 C255 1.381 . S
C257 C256 1.387 . S
C257 H283 0.931 . S
C258 C255 1.487 . S
C258 C265 1.399 . S
C258 N296 1.343 . S
C259 C260 1.384 . S
C259 C261 1.384 . S
C259 H284 0.931 . S
C260 C259 1.384 . S
C260 C263 1.382 . S
C261 C259 1.384 . S
C261 C262 1.381 . S
C261 H285 0.930 . S
C262 C261 1.381 . S
C262 C264 1.381 . S
C262 C265 1.487 . S
C263 C260 1.382 . S
C263 C264 1.387 . S
C263 H286 0.930 . S
C264 C262 1.381 . S
C264 C263 1.387 . S
C264 H287 0.931 . S
C265 C258 1.399 . S
C265 C262 1.487 . S
C265 N297 1.343 . S
C266 C267 1.384 . S
C266 C268 1.384 . S
C266 H288 0.931 . S
C267 C266 1.384 . S
C267 C270 1.382 . S
C268 C266 1.384 . S
C268 C269 1.381 . S
C268 H289 0.930 . S
C269 C268 1.381 . S
C269 C271 1.381 . S
C269 C272 1.487 . S
C270 C267 1.382 . S
C270 C271 1.387 . S
C270 H290 0.930 . S
C271 C269 1.381 . S
C271 C270 1.387 . S
C271 H291 0.931 . S
C272 C269 1.487 . S
C272 C279 1.399 . S
C272 N297 1.343 . S
C273 C274 1.384 . S
C273 C275 1.384 . S
C273 H292 0.931 . S
C274 C273 1.384 . S
C274 C277 1.382 . S
C275 C273 1.384 . S
C275 C276 1.381 . S
C275 H293 0.930 . S
C276 C275 1.381 . S
C276 C278 1.381 . S
C276 C279 1.487 . S
C277 C274 1.382 . S
C277 C278 1.387 . S
C277 H294 0.930 . S
C278 C276 1.381 . S
C278 C277 1.387 . S
C278 H295 0.931 . S
C279 C272 1.399 . S
C279 C276 1.487 . S
C279 N296 1.343 . S
H280 C252 0.931 . S
H281 C254 0.930 . S
H282 C256 0.930 . S
H283 C257 0.931 . S
H284 C259 0.931 . S
H285 C261 0.930 . S
H286 C263 0.930 . S
H287 C264 0.931 . S
H288 C266 0.931 . S
H289 C268 0.930 . S
H290 C270 0.930 . S
H291 C271 0.931 . S
H292 C273 0.931 . S
H293 C275 0.930 . S
H294 C277 0.930 . S
H295 C278 0.931 . S
N296 C258 1.343 . S
N296 C279 1.343 . S
N297 C265 1.343 . S
N297 C272 1.343 . S
C298 C299 1.384 . S
C298 C300 1.384 . S
C298 H326 0.931 . S
C299 C298 1.384 . S
C299 C302 1.382 . S
C300 C298 1.384 . S
C300 C301 1.381 . S
C300 H327 0.930 . S
C301 C300 1.381 . S
C301 C303 1.381 . S
C301 C304 1.487 . S
C302 C299 1.382 . S
C302 C303 1.387 . S
C302 H328 0.930 . S
C303 C301 1.381 . S
C303 C302 1.387 . S
C303 H329 0.931 . S
C304 C301 1.487 . S
C304 C311 1.399 . S
C304 N342 1.343 . S
C305 C306 1.384 . S
C305 C307 1.384 . S
C305 H330 0.931 . S
C306 C305 1.384 . S
C306 C309 1.382 . S
C307 C305 1.384 . S
C307 C308 1.381 . S
C307 H331 0.930 . S
C308 C307 1.381 . S
C308 C310 1.381 . S
C308 C311 1.487 . S
C309 C306 1.382 . S
C309 C310 1.387 . S
C309 H332 0.930 . S
C310 C308 1.381 . S
C310 C309 1.387 . S
C310 H333 0.931 . S
C311 C304 1.399 . S
C311 C308 1.487 . S
C311 N343 1.343 . S
C312 C313 1.384 . S
C312 C314 1.384 . S
C312 H334 0.931 . S
C313 C312 1.384 . S
C313 C316 1.382 . S
C314 C312 1.384 . S
C314 C315 1.381 . S
C314 H335 0.930 . S
C315 C314 1.381 . S
C315 C317 1.381 . S
C315 C318 1.487 . S
C316 C313 1.382 . S
C316 C317 1.387 . S
C316 H336 0.930 . S
C317 C315 1.381 . S
C317 C316 1.387 . S
C317 H337 0.931 . S
C318 C315 1.487 . S
C318 C325 1.399 . S
C318 N343 1.343 . S
C319 C320 1.384 . S
C319 C321 1.384 . S
C319 H338 0.931 . S
C320 C319 1.384 . S
C320 C323 1.382 . S
C321 C319 1.384 . S
C321 C322 1.381 . S
C321 H339 0.930 . S
C322 C321 1.381 . S
C322 C324 1.381 . S
C322 C325 1.487 . S
C323 C320 1.382 . S
C323 C324 1.387 . S
C323 H340 0.930 . S
C324 C322 1.381 . S
C324 C323 1.387 . S
C324 H341 0.931 . S
C325 C318 1.399 . S
C325 C322 1.487 . S
C325 N342 1.343 . S
H326 C298 0.931 . S
H327 C300 0.930 . S
H328 C302 0.930 . S
H329 C303 0.931 . S
H330 C305 0.931 . S
H331 C307 0.930 . S
H332 C309 0.930 . S
H333 C310 0.931 . S
H334 C312 0.931 . S
H335 C314 0.930 . S
H336 C316 0.930 . S
H337 C317 0.931 . S
H338 C319 0.931 . S
H339 C321 0.930 . S
H340 C323 0.930 . S
H341 C324 0.931 . S
N342 C304 1.343 . S
N342 C325 1.343 . S
N343 C311 1.343 . S
N343 C318 1.343 . S
C344 C345 1.384 . S
C344 C346 1.384 . S
C344 H372 0.931 . S
C345 C344 1.384 . S
C345 C348 1.382 . S
C346 C344 1.384 . S
C346 C347 1.381 . S
C346 H373 0.930 . S
C347 C346 1.381 . S
C347 C349 1.381 . S
C347 C350 1.487 . S
C348 C345 1.382 . S
C348 C349 1.387 . S
C348 H374 0.930 . S
C349 C347 1.381 . S
C349 C348 1.387 . S
C349 H375 0.931 . S
C350 C347 1.487 . S
C350 C357 1.399 . S
C350 N388 1.343 . S
C351 C352 1.384 . S
C351 C353 1.384 . S
C351 H376 0.931 . S
C352 C351 1.384 . S
C352 C355 1.382 . S
C353 C351 1.384 . S
C353 C354 1.381 . S
C353 H377 0.930 . S
C354 C353 1.381 . S
C354 C356 1.381 . S
C354 C357 1.487 . S
C355 C352 1.382 . S
C355 C356 1.387 . S
C355 H378 0.930 . S
C356 C354 1.381 . S
C356 C355 1.387 . S
C356 H379 0.931 . S
C357 C350 1.399 . S
C357 C354 1.487 . S
C357 N389 1.343 . S
C358 C359 1.384 . S
C358 C360 1.384 . S
C358 H380 0.931 . S
C359 C358 1.384 . S
C359 C362 1.382 . S
C360 C358 1.384 . S
C360 C361 1.381 . S
C360 H381 0.930 . S
C361 C360 1.381 . S
C361 C363 1.381 . S
C361 C364 1.487 . S
C362 C359 1.382 . S
C362 C363 1.387 . S
C362 H382 0.930 . S
C363 C361 1.381 . S
C363 C362 1.387 . S
C363 H383 0.931 . S
C364 C361 1.487 . S
C364 C371 1.399 . S
C364 N389 1.343 . S
C365 C366 1.384 . S
C365 C367 1.384 . S
C365 H384 0.931 . S
C366 C365 1.384 . S
C366 C369 1.382 . S
C367 C365 1.384 . S
C367 C368 1.381 . S
C367 H385 0.930 . S
C368 C367 1.381 . S
C368 C370 1.381 . S
C368 C371 1.487 . S
C369 C366 1.382 . S
C369 C370 1.387 . S
C369 H386 0.930 . S
C370 C368 1.381 . S
C370 C369 1.387 . S
C370 H387 0.931 . S
C371 C364 1.399 . S
C371 C368 1.487 . S
C371 N388 1.343 . S
H372 C344 0.931 . S
H373 C346 0.930 . S
H374 C348 0.930 . S
H375 C349 0.931 . S
H376 C351 0.931 . S
H377 C353 0.930 . S
H378 C355 0.930 . S
H379 C356 0.931 . S
H380 C358 0.931 . S
H381 C360 0.930 . S
H382 C362 0.930 . S
H383 C363 0.931 . S
H384 C365 0.931 . S
H385 C367 0.930 . S
H386 C369 0.930 . S
H387 C370 0.931 . S
N388 C350 1.343 . S
N388 C371 1.343 . S
N389 C357 1.343 . S
N389 C364 1.343 . S
C390 C391 1.384 . S
C390 C392 1.384 . S
C390 H418 0.931 . S
C391 C390 1.384 . S
C391 C394 1.382 . S
C392 C390 1.384 . S
C392 C393 1.381 . S
C392 H419 0.930 . S
C393 C392 1.381 . S
C393 C395 1.381 . S
C393 C396 1.487 . S
C394 C391 1.382 . S
C394 C395 1.387 . S
C394 H420 0.930 . S
C395 C393 1.381 . S
C395 C394 1.387 . S
C395 H421 0.931 . S
C396 C393 1.487 . S
C396 C403 1.399 . S
C396 N434 1.343 . S
C397 C398 1.384 . S
C397 C399 1.384 . S
C397 H422 0.931 . S
C398 C397 1.384 . S
C398 C401 1.382 . S
C399 C397 1.384 . S
C399 C400 1.381 . S
C399 H423 0.930 . S
C400 C399 1.381 . S
C400 C402 1.381 . S
C400 C403 1.487 . S
C401 C398 1.382 . S
C401 C402 1.387 . S
C401 H424 0.930 . S
C402 C400 1.381 . S
C402 C401 1.387 . S
C402 H425 0.931 . S
C403 C396 1.399 . S
C403 C400 1.487 . S
C403 N435 1.343 . S
C404 C405 1.384 . S
C404 C406 1.384 . S
C404 H426 0.931 . S
C405 C404 1.384 . S
C405 C408 1.382 . S
C406 C404 1.384 . S
C406 C407 1.381 . S
C406 H427 0.930 . S
C407 C406 1.381 . S
C407 C409 1.381 . S
C407 C410 1.487 . S
C408 C405 1.382 . S
C408 C409 1.387 . S
C408 H428 0.930 . S
C409 C407 1.381 . S
C409 C408 1.387 . S
C409 H429 0.931 . S
C410 C407 1.487 . S
C410 C417 1.399 . S
C410 N435 1.343 . S
C411 C412 1.384 . S
C411 C413 1.384 . S
C411 H430 0.931 . S
C412 C411 1.384 . S
C412 C415 1.382 . S
C413 C411 1.384 . S
C413 C414 1.381 . S
C413 H431 0.930 . S
C414 C413 1.381 . S
C414 C416 1.381 . S
C414 C417 1.487 . S
C415 C412 1.382 . S
C415 C416 1.387 . S
C415 H432 0.930 . S
C416 C414 1.381 . S
C416 C415 1.387 . S
C416 H433 0.931 . S
C417 C410 1.399 . S
C417 C414 1.487 . S
C417 N434 1.343 . S
H418 C390 0.931 . S
H419 C392 0.930 . S
H420 C394 0.930 . S
H421 C395 0.931 . S
H422 C397 0.931 . S
H423 C399 0.930 . S
H424 C401 0.930 . S
H425 C402 0.931 . S
H426 C404 0.931 . S
H427 C406 0.930 . S
H428 C408 0.930 . S
H429 C409 0.931 . S
H430 C411 0.931 . S
H431 C413 0.930 . S
H432 C415 0.930 . S
H433 C416 0.931 . S
N434 C396 1.343 . S
N434 C417 1.343 . S
N435 C403 1.343 . S
N435 C410 1.343 . S
C436 C437 1.384 . S
C436 C438 1.384 . S
C436 H464 0.931 . S
C437 C436 1.384 . S
C437 C440 1.382 . S
C438 C436 1.384 . S
C438 C439 1.381 . S
C438 H465 0.930 . S
C439 C438 1.381 . S
C439 C441 1.381 . S
C439 C442 1.487 . S
C440 C437 1.382 . S
C440 C441 1.387 . S
C440 H466 0.930 . S
C441 C439 1.381 . S
C441 C440 1.387 . S
C441 H467 0.931 . S
C442 C439 1.487 . S
C442 C449 1.399 . S
C442 N480 1.343 . S
C443 C444 1.384 . S
C443 C445 1.384 . S
C443 H468 0.931 . S
C444 C443 1.384 . S
C444 C447 1.382 . S
C445 C443 1.384 . S
C445 C446 1.381 . S
C445 H469 0.930 . S
C446 C445 1.381 . S
C446 C448 1.381 . S
C446 C449 1.487 . S
C447 C444 1.382 . S
C447 C448 1.387 . S
C447 H470 0.930 . S
C448 C446 1.381 . S
C448 C447 1.387 . S
C448 H471 0.931 . S
C449 C442 1.399 . S
C449 C446 1.487 . S
C449 N481 1.343 . S
C450 C451 1.384 . S
C450 C452 1.384 . S
C450 H472 0.931 . S
C451 C450 1.384 . S
C451 C454 1.382 . S
C452 C450 1.384 . S
C452 C453 1.381 . S
C452 H473 0.930 . S
C453 C452 1.381 . S
C453 C455 1.381 . S
C453 C456 1.487 . S
C454 C451 1.382 . S
C454 C455 1.387 . S
C454 H474 0.930 . S
C455 C453 1.381 . S
C455 C454 1.387 . S
C455 H475 0.931 . S
C456 C453 1.487 . S
C456 C463 1.399 . S
C456 N481 1.343 . S
C457 C458 1.384 . S
C457 C459 1.384 . S
C457 H476 0.931 . S
C458 C457 1.384 . S
C458 C461 1.382 . S
C459 C457 1.384 . S
C459 C460 1.381 . S
C459 H477 0.930 . S
C460 C459 1.381 . S
C460 C462 1.381 . S
C460 C463 1.487 . S
C461 C458 1.382 . S
C461 C462 1.387 . S
C461 H478 0.930 . S
C462 C460 1.381 . S
C462 C461 1.387 . S
C462 H479 0.931 . S
C463 C456 1.399 . S
C463 C460 1.487 . S
C463 N480 1.343 . S
H464 C436 0.931 . S
H465 C438 0.930 . S
H466 C440 0.930 . S
H467 C441 0.931 . S
H468 C443 0.931 . S
H469 C445 0.930 . S
H470 C447 0.930 . S
H471 C448 0.931 . S
H472 C450 0.931 . S
H473 C452 0.930 . S
H474 C454 0.930 . S
H475 C455 0.931 . S
H476 C457 0.931 . S
H477 C459 0.930 . S
H478 C461 0.930 . S
H479 C462 0.931 . S
N480 C442 1.343 . S
N480 C463 1.343 . S
N481 C449 1.343 . S
N481 C456 1.343 . S
C482 C483 1.384 . S
C482 C484 1.384 . S
C482 H510 0.931 . S
C483 C482 1.384 . S
C483 C486 1.382 . S
C484 C482 1.384 . S
C484 C485 1.381 . S
C484 H511 0.930 . S
C485 C484 1.381 . S
C485 C487 1.381 . S
C485 C488 1.487 . S
C486 C483 1.382 . S
C486 C487 1.387 . S
C486 H512 0.930 . S
C487 C485 1.381 . S
C487 C486 1.387 . S
C487 H513 0.931 . S
C488 C485 1.487 . S
C488 C495 1.399 . S
C488 N526 1.343 . S
C489 C490 1.384 . S
C489 C491 1.384 . S
C489 H514 0.931 . S
C490 C489 1.384 . S
C490 C493 1.382 . S
C491 C489 1.384 . S
C491 C492 1.381 . S
C491 H515 0.930 . S
C492 C491 1.381 . S
C492 C494 1.381 . S
C492 C495 1.487 . S
C493 C490 1.382 . S
C493 C494 1.387 . S
C493 H516 0.930 . S
C494 C492 1.381 . S
C494 C493 1.387 . S
C494 H517 0.931 . S
C495 C488 1.399 . S
C495 C492 1.487 . S
C495 N527 1.343 . S
C496 C497 1.384 . S
C496 C498 1.384 . S
C496 H518 0.931 . S
C497 C496 1.384 . S
C497 C500 1.382 . S
C498 C496 1.384 . S
C498 C499 1.381 . S
C498 H519 0.930 . S
C499 C498 1.381 . S
C499 C501 1.381 . S
C499 C502 1.487 . S
C500 C497 1.382 . S
C500 C501 1.387 . S
C500 H520 0.930 . S
C501 C499 1.381 . S
C501 C500 1.387 . S
C501 H521 0.931 . S
C502 C499 1.487 . S
C502 C509 1.399 . S
C502 N527 1.343 . S
C503 C504 1.384 . S
C503 C505 1.384 . S
C503 H522 0.931 . S
C504 C503 1.384 . S
C504 C507 1.382 . S
C505 C503 1.384 . S
C505 C506 1.381 . S
C505 H523 0.930 . S
C506 C505 1.381 . S
C506 C508 1.381 . S
C506 C509 1.487 . S
C507 C504 1.382 . S
C507 C508 1.387 . S
C507 H524 0.930 . S
C508 C506 1.381 . S
C508 C507 1.387 . S
C508 H525 0.931 . S
C509 C502 1.399 . S
C509 C506 1.487 . S
C509 N526 1.343 . S
H510 C482 0.931 . S
H511 C484 0.930 . S
H512 C486 0.930 . S
H513 C487 0.931 . S
H514 C489 0.931 . S
H515 C491 0.930 . S
H516 C493 0.930 . S
H517 C494 0.931 . S
H518 C496 0.931 . S
H519 C498 0.930 . S
H520 C500 0.930 . S
H521 C501 0.931 . S
H522 C503 0.931 . S
H523 C505 0.930 . S
H524 C507 0.930 . S
H525 C508 0.931 . S
N526 C488 1.343 . S
N526 C509 1.343 . S
N527 C495 1.343 . S
N527 C502 1.343 . S
C528 C529 1.384 . S
C528 C530 1.384 . S
C528 H556 0.931 . S
C529 C528 1.384 . S
C529 C532 1.382 . S
C530 C528 1.384 . S
C530 C531 1.381 . S
C530 H557 0.930 . S
C531 C530 1.381 . S
C531 C533 1.381 . S
C531 C534 1.487 . S
C532 C529 1.382 . S
C532 C533 1.387 . S
C532 H558 0.930 . S
C533 C531 1.381 . S
C533 C532 1.387 . S
C533 H559 0.931 . S
C534 C531 1.487 . S
C534 C541 1.399 . S
C534 N572 1.343 . S
C535 C536 1.384 . S
C535 C537 1.384 . S
C535 H560 0.931 . S
C536 C535 1.384 . S
C536 C539 1.382 . S
C537 C535 1.384 . S
C537 C538 1.381 . S
C537 H561 0.930 . S
C538 C537 1.381 . S
C538 C540 1.381 . S
C538 C541 1.487 . S
C539 C536 1.382 . S
C539 C540 1.387 . S
C539 H562 0.930 . S
C540 C538 1.381 . S
C540 C539 1.387 . S
C540 H563 0.931 . S
C541 C534 1.399 . S
C541 C538 1.487 . S
C541 N573 1.343 . S
C542 C543 1.384 . S
C542 C544 1.384 . S
C542 H564 0.931 . S
C543 C542 1.384 . S
C543 C546 1.382 . S
C544 C542 1.384 . S
C544 C545 1.381 . S
C544 H565 0.930 . S
C545 C544 1.381 . S
C545 C547 1.381 . S
C545 C548 1.487 . S
C546 C543 1.382 . S
C546 C547 1.387 . S
C546 H566 0.930 . S
C547 C545 1.381 . S
C547 C546 1.387 . S
C547 H567 0.931 . S
C548 C545 1.487 . S
C548 C555 1.399 . S
C548 N573 1.343 . S
C549 C550 1.384 . S
C549 C551 1.384 . S
C549 H568 0.931 . S
C550 C549 1.384 . S
C550 C553 1.382 . S
C551 C549 1.384 . S
C551 C552 1.381 . S
C551 H569 0.930 . S
C552 C551 1.381 . S
C552 C554 1.381 . S
C552 C555 1.487 . S
C553 C550 1.382 . S
C553 C554 1.387 . S
C553 H570 0.930 . S
C554 C552 1.381 . S
C554 C553 1.387 . S
C554 H571 0.931 . S
C555 C548 1.399 . S
C555 C552 1.487 . S
C555 N572 1.343 . S
H556 C528 0.931 . S
H557 C530 0.930 . S
H558 C532 0.930 . S
H559 C533 0.931 . S
H560 C535 0.931 . S
H561 C537 0.930 . S
H562 C539 0.930 . S
H563 C540 0.931 . S
H564 C542 0.931 . S
H565 C544 0.930 . S
H566 C546 0.930 . S
H567 C547 0.931 . S
H568 C549 0.931 . S
H569 C551 0.930 . S
H570 C553 0.930 . S
H571 C554 0.931 . S
N572 C534 1.343 . S
N572 C555 1.343 . S
N573 C541 1.343 . S
N573 C548 1.343 . S
C574 C575 1.384 . S
C574 C576 1.384 . S
C574 H602 0.931 . S
C575 C574 1.384 . S
C575 C578 1.382 . S
C576 C574 1.384 . S
C576 C577 1.381 . S
C576 H603 0.930 . S
C577 C576 1.381 . S
C577 C579 1.381 . S
C577 C580 1.487 . S
C578 C575 1.382 . S
C578 C579 1.387 . S
C578 H604 0.930 . S
C579 C577 1.381 . S
C579 C578 1.387 . S
C579 H605 0.931 . S
C580 C577 1.487 . S
C580 C587 1.399 . S
C580 N618 1.343 . S
C581 C582 1.384 . S
C581 C583 1.384 . S
C581 H606 0.931 . S
C582 C581 1.384 . S
C582 C585 1.382 . S
C583 C581 1.384 . S
C583 C584 1.381 . S
C583 H607 0.930 . S
C584 C583 1.381 . S
C584 C586 1.381 . S
C584 C587 1.487 . S
C585 C582 1.382 . S
C585 C586 1.387 . S
C585 H608 0.930 . S
C586 C584 1.381 . S
C586 C585 1.387 . S
C586 H609 0.931 . S
C587 C580 1.399 . S
C587 C584 1.487 . S
C587 N619 1.343 . S
C588 C589 1.384 . S
C588 C590 1.384 . S
C588 H610 0.931 . S
C589 C588 1.384 . S
C589 C592 1.382 . S
C590 C588 1.384 . S
C590 C591 1.381 . S
C590 H611 0.930 . S
C591 C590 1.381 . S
C591 C593 1.381 . S
C591 C594 1.487 . S
C592 C589 1.382 . S
C592 C593 1.387 . S
C592 H612 0.930 . S
C593 C591 1.381 . S
C593 C592 1.387 . S
C593 H613 0.931 . S
C594 C591 1.487 . S
C594 C601 1.399 . S
C594 N619 1.343 . S
C595 C596 1.384 . S
C595 C597 1.384 . S
C595 H614 0.931 . S
C596 C595 1.384 . S
C596 C599 1.382 . S
C597 C595 1.384 . S
C597 C598 1.381 . S
C597 H615 0.930 . S
C598 C597 1.381 . S
C598 C600 1.381 . S
C598 C601 1.487 . S
C599 C596 1.382 . S
C599 C600 1.387 . S
C599 H616 0.930 . S
C600 C598 1.381 . S
C600 C599 1.387 . S
C600 H617 0.931 . S
C601 C594 1.399 . S
C601 C598 1.487 . S
C601 N618 1.343 . S
H602 C574 0.931 . S
H603 C576 0.930 . S
H604 C578 0.930 . S
H605 C579 0.931 . S
H606 C581 0.931 . S
H607 C583 0.930 . S
H608 C585 0.930 . S
H609 C586 0.931 . S
H610 C588 0.931 . S
H611 C590 0.930 . S
H612 C592 0.930 . S
H613 C593 0.931 . S
H614 C595 0.931 . S
H615 C597 0.930 . S
H616 C599 0.930 . S
H617 C600 0.931 . S
N618 C580 1.343 . S
N618 C601 1.343 . S
N619 C587 1.343 . S
N619 C594 1.343 . S
C620 C621 1.384 . S
C620 C622 1.384 . S
C620 H648 0.931 . S
C621 C620 1.384 . S
C621 C624 1.382 . S
C622 C620 1.384 . S
C622 C623 1.381 . S
C622 H649 0.930 . S
C623 C622 1.381 . S
C623 C625 1.381 . S
C623 C626 1.487 . S
C624 C621 1.382 . S
C624 C625 1.387 . S
C624 H650 0.930 . S
C625 C623 1.381 . S
C625 C624 1.387 . S
C625 H651 0.931 . S
C626 C623 1.487 . S
C626 C633 1.399 . S
C626 N664 1.343 . S
C627 C628 1.384 . S
C627 C629 1.384 . S
C627 H652 0.931 . S
C628 C627 1.384 . S
C628 C631 1.382 . S
C629 C627 1.384 . S
C629 C630 1.381 . S
C629 H653 0.930 . S
C630 C629 1.381 . S
C630 C632 1.381 . S
C630 C633 1.487 . S
C631 C628 1.382 . S
C631 C632 1.387 . S
C631 H654 0.930 . S
C632 C630 1.381 . S
C632 C631 1.387 . S
C632 H655 0.931 . S
C633 C626 1.399 . S
C633 C630 1.487 . S
C633 N665 1.343 . S
C634 C635 1.384 . S
C634 C636 1.384 . S
C634 H656 0.931 . S
C635 C634 1.384 . S
C635 C638 1.382 . S
C636 C634 1.384 . S
C636 C637 1.381 . S
C636 H657 0.930 . S
C637 C636 1.381 . S
C637 C639 1.381 . S
C637 C640 1.487 . S
C638 C635 1.382 . S
C638 C639 1.387 . S
C638 H658 0.930 . S
C639 C637 1.381 . S
C639 C638 1.387 . S
C639 H659 0.931 . S
C640 C637 1.487 . S
C640 C647 1.399 . S
C640 N665 1.343 . S
C641 C642 1.384 . S
C641 C643 1.384 . S
C641 H660 0.931 . S
C642 C641 1.384 . S
C642 C645 1.382 . S
C643 C641 1.384 . S
C643 C644 1.381 . S
C643 H661 0.930 . S
C644 C643 1.381 . S
C644 C646 1.381 . S
C644 C647 1.487 . S
C645 C642 1.382 . S
C645 C646 1.387 . S
C645 H662 0.930 . S
C646 C644 1.381 . S
C646 C645 1.387 . S
C646 H663 0.931 . S
C647 C640 1.399 . S
C647 C644 1.487 . S
C647 N664 1.343 . S
H648 C620 0.931 . S
H649 C622 0.930 . S
H650 C624 0.930 . S
H651 C625 0.931 . S
H652 C627 0.931 . S
H653 C629 0.930 . S
H654 C631 0.930 . S
H655 C632 0.931 . S
H656 C634 0.931 . S
H657 C636 0.930 . S
H658 C638 0.930 . S
H659 C639 0.931 . S
H660 C641 0.931 . S
H661 C643 0.930 . S
H662 C645 0.930 . S
H663 C646 0.931 . S
N664 C626 1.343 . S
N664 C647 1.343 . S
N665 C633 1.343 . S
N665 C640 1.343 . S
C666 C667 1.384 . S
C666 C668 1.384 . S
C666 H694 0.931 . S
C667 C666 1.384 . S
C667 C670 1.382 1_655 S
C668 C666 1.384 . S
C668 C669 1.390 . S
C668 H695 0.930 . S
C669 C668 1.390 . S
C669 C671 1.376 1_655 S
C669 C672 1.477 1_655 S
C670 C667 1.382 1_455 S
C670 C671 1.387 . S
C670 H696 0.930 . S
C671 C669 1.376 1_455 S
C671 C670 1.387 . S
C671 H697 0.931 . S
C672 C669 1.477 1_455 S
C672 C679 1.398 1_455 S
C672 N710 1.350 . S
C673 C674 1.384 . S
C673 C675 1.384 . S
C673 H698 0.931 . S
C674 C673 1.384 . S
C674 C677 1.382 1_455 S
C675 C673 1.384 . S
C675 C676 1.383 1_455 S
C675 H699 0.930 . S
C676 C675 1.383 1_655 S
C676 C678 1.377 . S
C676 C679 1.496 . S
C677 C674 1.382 1_655 S
C677 C678 1.387 . S
C677 H700 0.930 . S
C678 C676 1.377 . S
C678 C677 1.387 . S
C678 H701 0.931 . S
C679 C672 1.398 1_655 S
C679 C676 1.496 . S
C679 N711 1.363 . S
C680 C681 1.384 . S
C680 C682 1.384 . S
C680 H702 0.931 . S
C681 C680 1.384 . S
C681 C684 1.382 1_455 S
C682 C680 1.384 . S
C682 C683 1.407 . S
C682 H703 0.930 . S
C683 C682 1.407 . S
C683 C685 1.368 1_455 S
C683 C686 1.477 1_455 S
C684 C681 1.382 1_655 S
C684 C685 1.387 . S
C684 H704 0.930 . S
C685 C683 1.368 1_655 S
C685 C684 1.387 . S
C685 H705 0.931 . S
C686 C683 1.477 1_655 S
C686 C693 1.398 1_655 S
C686 N711 1.312 . S
C687 C688 1.384 . S
C687 C689 1.384 . S
C687 H706 0.931 . S
C688 C687 1.384 . S
C688 C691 1.382 1_655 S
C689 C687 1.384 . S
C689 C690 1.379 1_655 S
C689 H707 0.930 . S
C690 C689 1.379 1_455 S
C690 C692 1.387 . S
C690 C693 1.496 . S
C691 C688 1.382 1_455 S
C691 C692 1.387 . S
C691 H708 0.930 . S
C692 C690 1.387 . S
C692 C691 1.387 . S
C692 H709 0.931 . S
C693 C686 1.398 1_455 S
C693 C690 1.496 . S
C693 N710 1.330 . S
H694 C666 0.931 . S
H695 C668 0.930 . S
H696 C670 0.930 . S
H697 C671 0.931 . S
H698 C673 0.931 . S
H699 C675 0.930 . S
H700 C677 0.930 . S
H701 C678 0.931 . S
H702 C680 0.931 . S
H703 C682 0.930 . S
H704 C684 0.930 . S
H705 C685 0.931 . S
H706 C687 0.931 . S
H707 C689 0.930 . S
H708 C691 0.930 . S
H709 C692 0.931 . S
N710 C672 1.350 . S
N710 C693 1.330 . S
N711 C679 1.363 . S
N711 C686 1.312 . S
C712 C713 1.384 . S
C712 C714 1.384 . S
C712 H740 0.931 . S
C713 C712 1.384 . S
C713 C716 1.382 . S
C714 C712 1.384 . S
C714 C715 1.381 . S
C714 H741 0.930 . S
C715 C714 1.381 . S
C715 C717 1.381 . S
C715 C718 1.487 . S
C716 C713 1.382 . S
C716 C717 1.387 . S
C716 H742 0.930 . S
C717 C715 1.381 . S
C717 C716 1.387 . S
C717 H743 0.931 . S
C718 C715 1.487 . S
C718 C725 1.399 . S
C718 N756 1.343 . S
C719 C720 1.384 . S
C719 C721 1.384 . S
C719 H744 0.931 . S
C720 C719 1.384 . S
C720 C723 1.382 . S
C721 C719 1.384 . S
C721 C722 1.381 . S
C721 H745 0.930 . S
C722 C721 1.381 . S
C722 C724 1.381 . S
C722 C725 1.487 . S
C723 C720 1.382 . S
C723 C724 1.387 . S
C723 H746 0.930 . S
C724 C722 1.381 . S
C724 C723 1.387 . S
C724 H747 0.931 . S
C725 C718 1.399 . S
C725 C722 1.487 . S
C725 N757 1.343 . S
C726 C727 1.384 . S
C726 C728 1.384 . S
C726 H748 0.931 . S
C727 C726 1.384 . S
C727 C730 1.382 . S
C728 C726 1.384 . S
C728 C729 1.381 . S
C728 H749 0.930 . S
C729 C728 1.381 . S
C729 C731 1.381 . S
C729 C732 1.487 . S
C730 C727 1.382 . S
C730 C731 1.387 . S
C730 H750 0.930 . S
C731 C729 1.381 . S
C731 C730 1.387 . S
C731 H751 0.931 . S
C732 C729 1.487 . S
C732 C739 1.399 . S
C732 N757 1.343 . S
C733 C734 1.384 . S
C733 C735 1.384 . S
C733 H752 0.931 . S
C734 C733 1.384 . S
C734 C737 1.382 . S
C735 C733 1.384 . S
C735 C736 1.381 . S
C735 H753 0.930 . S
C736 C735 1.381 . S
C736 C738 1.381 . S
C736 C739 1.487 . S
C737 C734 1.382 . S
C737 C738 1.387 . S
C737 H754 0.930 . S
C738 C736 1.381 . S
C738 C737 1.387 . S
C738 H755 0.931 . S
C739 C732 1.399 . S
C739 C736 1.487 . S
C739 N756 1.343 . S
H740 C712 0.931 . S
H741 C714 0.930 . S
H742 C716 0.930 . S
H743 C717 0.931 . S
H744 C719 0.931 . S
H745 C721 0.930 . S
H746 C723 0.930 . S
H747 C724 0.931 . S
H748 C726 0.931 . S
H749 C728 0.930 . S
H750 C730 0.930 . S
H751 C731 0.931 . S
H752 C733 0.931 . S
H753 C735 0.930 . S
H754 C737 0.930 . S
H755 C738 0.931 . S
N756 C718 1.343 . S
N756 C739 1.343 . S
N757 C725 1.343 . S
N757 C732 1.343 . S
C758 C759 1.384 1_545 S
C758 C760 1.384 . S
C758 H786 0.931 . S
C759 C758 1.384 1_565 S
C759 C762 1.382 . S
C760 C758 1.384 . S
C760 C761 1.381 1_545 S
C760 H787 0.930 . S
C761 C760 1.381 1_565 S
C761 C763 1.381 . S
C761 C764 1.487 . S
C762 C759 1.382 . S
C762 C763 1.387 . S
C762 H788 0.930 . S
C763 C761 1.381 . S
C763 C762 1.387 . S
C763 H789 0.931 . S
C764 C761 1.487 . S
C764 C771 1.399 1_565 S
C764 N802 1.343 . S
C765 C766 1.384 1_565 S
C765 C767 1.384 . S
C765 H790 0.931 . S
C766 C765 1.384 1_545 S
C766 C769 1.382 . S
C767 C765 1.384 . S
C767 C768 1.381 1_565 S
C767 H791 0.930 . S
C768 C767 1.381 1_545 S
C768 C770 1.381 . S
C768 C771 1.487 . S
C769 C766 1.382 . S
C769 C770 1.387 . S
C769 H792 0.930 . S
C770 C768 1.381 . S
C770 C769 1.387 . S
C770 H793 0.931 . S
C771 C764 1.399 1_545 S
C771 C768 1.487 . S
C771 N803 1.343 . S
C772 C773 1.384 1_565 S
C772 C774 1.384 . S
C772 H794 0.931 . S
C773 C772 1.384 1_545 S
C773 C776 1.382 . S
C774 C772 1.384 . S
C774 C775 1.381 1_565 S
C774 H795 0.930 . S
C775 C774 1.381 1_545 S
C775 C777 1.381 . S
C775 C778 1.487 . S
C776 C773 1.382 . S
C776 C777 1.387 . S
C776 H796 0.930 . S
C777 C775 1.381 . S
C777 C776 1.387 . S
C777 H797 0.931 . S
C778 C775 1.487 . S
C778 C785 1.399 1_545 S
C778 N803 1.343 . S
C779 C780 1.384 1_545 S
C779 C781 1.384 . S
C779 H798 0.931 . S
C780 C779 1.384 1_565 S
C780 C783 1.382 . S
C781 C779 1.384 . S
C781 C782 1.381 1_545 S
C781 H799 0.930 . S
C782 C781 1.381 1_565 S
C782 C784 1.381 . S
C782 C785 1.487 . S
C783 C780 1.382 . S
C783 C784 1.387 . S
C783 H800 0.930 . S
C784 C782 1.381 . S
C784 C783 1.387 . S
C784 H801 0.931 . S
C785 C778 1.399 1_565 S
C785 C782 1.487 . S
C785 N802 1.343 . S
H786 C758 0.931 . S
H787 C760 0.930 . S
H788 C762 0.930 . S
H789 C763 0.931 . S
H790 C765 0.931 . S
H791 C767 0.930 . S
H792 C769 0.930 . S
H793 C770 0.931 . S
H794 C772 0.931 . S
H795 C774 0.930 . S
H796 C776 0.930 . S
H797 C777 0.931 . S
H798 C779 0.931 . S
H799 C781 0.930 . S
H800 C783 0.930 . S
H801 C784 0.931 . S
N802 C764 1.343 . S
N802 C785 1.343 . S
N803 C771 1.343 . S
N803 C778 1.343 . S
C804 C805 1.384 . S
C804 C806 1.384 . S
C804 H832 0.931 . S
C805 C804 1.384 . S
C805 C808 1.382 1_545 S
C806 C804 1.384 . S
C806 C807 1.385 . S
C806 H833 0.930 . S
C807 C806 1.385 . S
C807 C809 1.371 1_545 S
C807 C810 1.495 1_545 S
C808 C805 1.382 1_565 S
C808 C809 1.387 . S
C808 H834 0.930 . S
C809 C807 1.371 1_565 S
C809 C808 1.387 . S
C809 H835 0.931 . S
C810 C807 1.495 1_565 S
C810 C817 1.399 1_565 S
C810 N848 1.367 . S
C811 C812 1.384 . S
C811 C813 1.384 . S
C811 H836 0.931 . S
C812 C811 1.384 . S
C812 C815 1.382 1_565 S
C813 C811 1.384 . S
C813 C814 1.379 . S
C813 H837 0.930 . S
C814 C813 1.379 . S
C814 C816 1.382 1_565 S
C814 C817 1.479 1_565 S
C815 C812 1.382 1_545 S
C815 C816 1.387 . S
C815 H838 0.930 . S
C816 C814 1.382 1_545 S
C816 C815 1.387 . S
C816 H839 0.931 . S
C817 C810 1.399 1_545 S
C817 C814 1.479 1_545 S
C817 N849 1.320 . S
C818 C819 1.384 . S
C818 C820 1.384 . S
C818 H840 0.931 . S
C819 C818 1.384 . S
C819 C822 1.382 1_565 S
C820 C818 1.384 . S
C820 C821 1.382 . S
C820 H841 0.930 . S
C821 C820 1.382 . S
C821 C823 1.380 1_565 S
C821 C824 1.495 1_565 S
C822 C819 1.382 1_545 S
C822 C823 1.387 . S
C822 H842 0.930 . S
C823 C821 1.380 1_545 S
C823 C822 1.387 . S
C823 H843 0.931 . S
C824 C821 1.495 1_545 S
C824 C831 1.399 1_545 S
C824 N849 1.367 . S
C825 C826 1.384 . S
C825 C827 1.384 . S
C825 H844 0.931 . S
C826 C825 1.384 . S
C826 C829 1.382 1_545 S
C827 C825 1.384 . S
C827 C828 1.395 . S
C827 H845 0.930 . S
C828 C827 1.395 . S
C828 C830 1.374 1_545 S
C828 C831 1.479 1_545 S
C829 C826 1.382 1_565 S
C829 C830 1.387 . S
C829 H846 0.930 . S
C830 C828 1.374 1_565 S
C830 C829 1.387 . S
C830 H847 0.931 . S
C831 C824 1.399 1_565 S
C831 C828 1.479 1_565 S
C831 N848 1.320 . S
H832 C804 0.931 . S
H833 C806 0.930 . S
H834 C808 0.930 . S
H835 C809 0.931 . S
H836 C811 0.931 . S
H837 C813 0.930 . S
H838 C815 0.930 . S
H839 C816 0.931 . S
H840 C818 0.931 . S
H841 C820 0.930 . S
H842 C822 0.930 . S
H843 C823 0.931 . S
H844 C825 0.931 . S
H845 C827 0.930 . S
H846 C829 0.930 . S
H847 C830 0.931 . S
N848 C810 1.367 . S
N848 C831 1.320 . S
N849 C817 1.320 . S
N849 C824 1.367 . S
C850 C851 1.384 . S
C850 C852 1.384 . S
C850 H878 0.931 . S
C851 C850 1.384 . S
C851 C854 1.382 1_655 S
C852 C850 1.384 . S
C852 C853 1.424 . S
C852 H879 0.930 . S
C853 C852 1.424 . S
C853 C855 1.359 1_655 S
C853 C856 1.466 . S
C854 C851 1.382 1_455 S
C854 C855 1.387 . S
C854 H880 0.930 . S
C855 C853 1.359 1_455 S
C855 C854 1.387 . S
C855 H881 0.931 . S
C856 C853 1.466 . S
C856 C863 1.398 . S
C856 N894 1.324 1_655 S
C857 C858 1.384 . S
C857 C859 1.384 . S
C857 H882 0.931 . S
C858 C857 1.384 . S
C858 C861 1.382 1_455 S
C859 C857 1.384 . S
C859 C860 1.383 1_455 S
C859 H883 0.930 . S
C860 C859 1.383 1_655 S
C860 C862 1.377 . S
C860 C863 1.500 . S
C861 C858 1.382 1_655 S
C861 C862 1.387 . S
C861 H884 0.930 . S
C862 C860 1.377 . S
C862 C861 1.387 . S
C862 H885 0.931 . S
C863 C856 1.398 . S
C863 C860 1.500 . S
C863 N895 1.360 . S
C864 C865 1.384 . S
C864 C866 1.384 . S
C864 H886 0.931 . S
C865 C864 1.384 . S
C865 C868 1.382 1_455 S
C866 C864 1.384 . S
C866 C867 1.408 . S
C866 H887 0.930 . S
C867 C866 1.408 . S
C867 C869 1.368 1_455 S
C867 C870 1.473 1_455 S
C868 C865 1.382 1_655 S
C868 C869 1.387 . S
C868 H888 0.930 . S
C869 C867 1.368 1_655 S
C869 C868 1.387 . S
C869 H889 0.931 . S
C870 C867 1.473 1_655 S
C870 C877 1.399 1_655 S
C870 N895 1.316 . S
C871 C872 1.384 . S
C871 C873 1.384 . S
C871 H890 0.931 . S
C872 C871 1.384 . S
C872 C875 1.382 1_655 S
C873 C871 1.384 . S
C873 C874 1.383 . S
C873 H891 0.930 . S
C874 C873 1.383 . S
C874 C876 1.377 1_655 S
C874 C877 1.493 1_655 S
C875 C872 1.382 1_455 S
C875 C876 1.387 . S
C875 H892 0.930 . S
C876 C874 1.377 1_455 S
C876 C875 1.387 . S
C876 H893 0.931 . S
C877 C870 1.399 1_455 S
C877 C874 1.493 1_455 S
C877 N894 1.360 . S
H878 C850 0.931 . S
H879 C852 0.930 . S
H880 C854 0.930 . S
H881 C855 0.931 . S
H882 C857 0.931 . S
H883 C859 0.930 . S
H884 C861 0.930 . S
H885 C862 0.931 . S
H886 C864 0.931 . S
H887 C866 0.930 . S
H888 C868 0.930 . S
H889 C869 0.931 . S
H890 C871 0.931 . S
H891 C873 0.930 . S
H892 C875 0.930 . S
H893 C876 0.931 . S
N894 C856 1.324 1_455 S
N894 C877 1.360 . S
N895 C863 1.360 . S
N895 C870 1.316 . S
C896 C897 1.384 . S
C896 C898 1.384 . S
C896 H924 0.931 . S
C897 C896 1.384 . S
C897 C900 1.382 . S
C898 C896 1.384 . S
C898 C899 1.381 . S
C898 H925 0.930 . S
C899 C898 1.381 . S
C899 C901 1.381 . S
C899 C902 1.487 . S
C900 C897 1.382 . S
C900 C901 1.387 . S
C900 H926 0.930 . S
C901 C899 1.381 . S
C901 C900 1.387 . S
C901 H927 0.931 . S
C902 C899 1.487 . S
C902 C909 1.399 . S
C902 N940 1.343 . S
C903 C904 1.384 . S
C903 C905 1.384 . S
C903 H928 0.931 . S
C904 C903 1.384 . S
C904 C907 1.382 . S
C905 C903 1.384 . S
C905 C906 1.381 . S
C905 H929 0.930 . S
C906 C905 1.381 . S
C906 C908 1.381 . S
C906 C909 1.487 . S
C907 C904 1.382 . S
C907 C908 1.387 . S
C907 H930 0.930 . S
C908 C906 1.381 . S
C908 C907 1.387 . S
C908 H931 0.931 . S
C909 C902 1.399 . S
C909 C906 1.487 . S
C909 N941 1.343 . S
C910 C911 1.384 . S
C910 C912 1.384 . S
C910 H932 0.931 . S
C911 C910 1.384 . S
C911 C914 1.382 . S
C912 C910 1.384 . S
C912 C913 1.381 . S
C912 H933 0.930 . S
C913 C912 1.381 . S
C913 C915 1.381 . S
C913 C916 1.487 . S
C914 C911 1.382 . S
C914 C915 1.387 . S
C914 H934 0.930 . S
C915 C913 1.381 . S
C915 C914 1.387 . S
C915 H935 0.931 . S
C916 C913 1.487 . S
C916 C923 1.399 . S
C916 N941 1.343 . S
C917 C918 1.384 . S
C917 C919 1.384 . S
C917 H936 0.931 . S
C918 C917 1.384 . S
C918 C921 1.382 . S
C919 C917 1.384 . S
C919 C920 1.381 . S
C919 H937 0.930 . S
C920 C919 1.381 . S
C920 C922 1.381 . S
C920 C923 1.487 . S
C921 C918 1.382 . S
C921 C922 1.387 . S
C921 H938 0.930 . S
C922 C920 1.381 . S
C922 C921 1.387 . S
C922 H939 0.931 . S
C923 C916 1.399 . S
C923 C920 1.487 . S
C923 N940 1.343 . S
H924 C896 0.931 . S
H925 C898 0.930 . S
H926 C900 0.930 . S
H927 C901 0.931 . S
H928 C903 0.931 . S
H929 C905 0.930 . S
H930 C907 0.930 . S
H931 C908 0.931 . S
H932 C910 0.931 . S
H933 C912 0.930 . S
H934 C914 0.930 . S
H935 C915 0.931 . S
H936 C917 0.931 . S
H937 C919 0.930 . S
H938 C921 0.930 . S
H939 C922 0.931 . S
N940 C902 1.343 . S
N940 C923 1.343 . S
N941 C909 1.343 . S
N941 C916 1.343 . S
C942 C943 1.384 . S
C942 C944 1.384 . S
C942 H970 0.931 . S
C943 C942 1.384 . S
C943 C946 1.382 . S
C944 C942 1.384 . S
C944 C945 1.381 . S
C944 H971 0.930 . S
C945 C944 1.381 . S
C945 C947 1.381 . S
C945 C948 1.487 . S
C946 C943 1.382 . S
C946 C947 1.387 . S
C946 H972 0.930 . S
C947 C945 1.381 . S
C947 C946 1.387 . S
C947 H973 0.931 . S
C948 C945 1.487 . S
C948 C955 1.399 . S
C948 N986 1.343 . S
C949 C950 1.384 . S
C949 C951 1.384 . S
C949 H974 0.931 . S
C950 C949 1.384 . S
C950 C953 1.382 . S
C951 C949 1.384 . S
C951 C952 1.381 . S
C951 H975 0.930 . S
C952 C951 1.381 . S
C952 C954 1.381 . S
C952 C955 1.487 . S
C953 C950 1.382 . S
C953 C954 1.387 . S
C953 H976 0.930 . S
C954 C952 1.381 . S
C954 C953 1.387 . S
C954 H977 0.931 . S
C955 C948 1.399 . S
C955 C952 1.487 . S
C955 N987 1.343 . S
C956 C957 1.384 . S
C956 C958 1.384 . S
C956 H978 0.931 . S
C957 C956 1.384 . S
C957 C960 1.382 . S
C958 C956 1.384 . S
C958 C959 1.381 . S
C958 H979 0.930 . S
C959 C958 1.381 . S
C959 C961 1.381 . S
C959 C962 1.487 . S
C960 C957 1.382 . S
C960 C961 1.387 . S
C960 H980 0.930 . S
C961 C959 1.381 . S
C961 C960 1.387 . S
C961 H981 0.931 . S
C962 C959 1.487 . S
C962 C969 1.399 . S
C962 N987 1.343 . S
C963 C964 1.384 . S
C963 C965 1.384 . S
C963 H982 0.931 . S
C964 C963 1.384 . S
C964 C967 1.382 . S
C965 C963 1.384 . S
C965 C966 1.381 . S
C965 H983 0.930 . S
C966 C965 1.381 . S
C966 C968 1.381 . S
C966 C969 1.487 . S
C967 C964 1.382 . S
C967 C968 1.387 . S
C967 H984 0.930 . S
C968 C966 1.381 . S
C968 C967 1.387 . S
C968 H985 0.931 . S
C969 C962 1.399 . S
C969 C966 1.487 . S
C969 N986 1.343 . S
H970 C942 0.931 . S
H971 C944 0.930 . S
H972 C946 0.930 . S
H973 C947 0.931 . S
H974 C949 0.931 . S
H975 C951 0.930 . S
H976 C953 0.930 . S
H977 C954 0.931 . S
H978 C956 0.931 . S
H979 C958 0.930 . S
H980 C960 0.930 . S
H981 C961 0.931 . S
H982 C963 0.931 . S
H983 C965 0.930 . S
H984 C967 0.930 . S
H985 C968 0.931 . S
N986 C948 1.343 . S
N986 C969 1.343 . S
N987 C955 1.343 . S
N987 C962 1.343 . S
C988 C989 1.384 . S
C988 C990 1.384 . S
C988 H1016 0.931 . S
C989 C988 1.384 . S
C989 C992 1.382 . S
C990 C988 1.384 . S
C990 C991 1.381 . S
C990 H1017 0.930 . S
C991 C990 1.381 . S
C991 C993 1.381 . S
C991 C994 1.487 . S
C992 C989 1.382 . S
C992 C993 1.387 . S
C992 H1018 0.930 . S
C993 C991 1.381 . S
C993 C992 1.387 . S
C993 H1019 0.931 . S
C994 C991 1.487 . S
C994 C1001 1.399 . S
C994 N1032 1.343 . S
C995 C996 1.384 . S
C995 C997 1.384 . S
C995 H1020 0.931 . S
C996 C995 1.384 . S
C996 C999 1.382 . S
C997 C995 1.384 . S
C997 C998 1.381 . S
C997 H1021 0.930 . S
C998 C997 1.381 . S
C998 C1000 1.381 . S
C998 C1001 1.487 . S
C999 C996 1.382 . S
C999 C1000 1.387 . S
C999 H1022 0.930 . S
C1000 C998 1.381 . S
C1000 C999 1.387 . S
C1000 H1023 0.931 . S
C1001 C994 1.399 . S
C1001 C998 1.487 . S
C1001 N1033 1.343 . S
C1002 C1003 1.384 . S
C1002 C1004 1.384 . S
C1002 H1024 0.931 . S
C1003 C1002 1.384 . S
C1003 C1006 1.382 . S
C1004 C1002 1.384 . S
C1004 C1005 1.381 . S
C1004 H1025 0.930 . S
C1005 C1004 1.381 . S
C1005 C1007 1.381 . S
C1005 C1008 1.487 . S
C1006 C1003 1.382 . S
C1006 C1007 1.387 . S
C1006 H1026 0.930 . S
C1007 C1005 1.381 . S
C1007 C1006 1.387 . S
C1007 H1027 0.931 . S
C1008 C1005 1.487 . S
C1008 C1015 1.399 . S
C1008 N1033 1.343 . S
C1009 C1010 1.384 . S
C1009 C1011 1.384 . S
C1009 H1028 0.931 . S
C1010 C1009 1.384 . S
C1010 C1013 1.382 . S
C1011 C1009 1.384 . S
C1011 C1012 1.381 . S
C1011 H1029 0.930 . S
C1012 C1011 1.381 . S
C1012 C1014 1.381 . S
C1012 C1015 1.487 . S
C1013 C1010 1.382 . S
C1013 C1014 1.387 . S
C1013 H1030 0.930 . S
C1014 C1012 1.381 . S
C1014 C1013 1.387 . S
C1014 H1031 0.931 . S
C1015 C1008 1.399 . S
C1015 C1012 1.487 . S
C1015 N1032 1.343 . S
H1016 C988 0.931 . S
H1017 C990 0.930 . S
H1018 C992 0.930 . S
H1019 C993 0.931 . S
H1020 C995 0.931 . S
H1021 C997 0.930 . S
H1022 C999 0.930 . S
H1023 C1000 0.931 . S
H1024 C1002 0.931 . S
H1025 C1004 0.930 . S
H1026 C1006 0.930 . S
H1027 C1007 0.931 . S
H1028 C1009 0.931 . S
H1029 C1011 0.930 . S
H1030 C1013 0.930 . S
H1031 C1014 0.931 . S
N1032 C994 1.343 . S
N1032 C1015 1.343 . S
N1033 C1001 1.343 . S
N1033 C1008 1.343 . S
C1034 C1035 1.384 . S
C1034 C1036 1.384 . S
C1034 H1062 0.931 . S
C1035 C1034 1.384 . S
C1035 C1038 1.382 . S
C1036 C1034 1.384 . S
C1036 C1037 1.381 . S
C1036 H1063 0.930 . S
C1037 C1036 1.381 . S
C1037 C1039 1.381 . S
C1037 C1040 1.487 . S
C1038 C1035 1.382 . S
C1038 C1039 1.387 . S
C1038 H1064 0.930 . S
C1039 C1037 1.381 . S
C1039 C1038 1.387 . S
C1039 H1065 0.931 . S
C1040 C1037 1.487 . S
C1040 C1047 1.399 . S
C1040 N1078 1.343 . S
C1041 C1042 1.384 . S
C1041 C1043 1.384 . S
C1041 H1066 0.931 . S
C1042 C1041 1.384 . S
C1042 C1045 1.382 . S
C1043 C1041 1.384 . S
C1043 C1044 1.381 . S
C1043 H1067 0.930 . S
C1044 C1043 1.381 . S
C1044 C1046 1.381 . S
C1044 C1047 1.487 . S
C1045 C1042 1.382 . S
C1045 C1046 1.387 . S
C1045 H1068 0.930 . S
C1046 C1044 1.381 . S
C1046 C1045 1.387 . S
C1046 H1069 0.931 . S
C1047 C1040 1.399 . S
C1047 C1044 1.487 . S
C1047 N1079 1.343 . S
C1048 C1049 1.384 . S
C1048 C1050 1.384 . S
C1048 H1070 0.931 . S
C1049 C1048 1.384 . S
C1049 C1052 1.382 . S
C1050 C1048 1.384 . S
C1050 C1051 1.381 . S
C1050 H1071 0.930 . S
C1051 C1050 1.381 . S
C1051 C1053 1.381 . S
C1051 C1054 1.487 . S
C1052 C1049 1.382 . S
C1052 C1053 1.387 . S
C1052 H1072 0.930 . S
C1053 C1051 1.381 . S
C1053 C1052 1.387 . S
C1053 H1073 0.931 . S
C1054 C1051 1.487 . S
C1054 C1061 1.399 . S
C1054 N1079 1.343 . S
C1055 C1056 1.384 . S
C1055 C1057 1.384 . S
C1055 H1074 0.931 . S
C1056 C1055 1.384 . S
C1056 C1059 1.382 . S
C1057 C1055 1.384 . S
C1057 C1058 1.381 . S
C1057 H1075 0.930 . S
C1058 C1057 1.381 . S
C1058 C1060 1.381 . S
C1058 C1061 1.487 . S
C1059 C1056 1.382 . S
C1059 C1060 1.387 . S
C1059 H1076 0.930 . S
C1060 C1058 1.381 . S
C1060 C1059 1.387 . S
C1060 H1077 0.931 . S
C1061 C1054 1.399 . S
C1061 C1058 1.487 . S
C1061 N1078 1.343 . S
H1062 C1034 0.931 . S
H1063 C1036 0.930 . S
H1064 C1038 0.930 . S
H1065 C1039 0.931 . S
H1066 C1041 0.931 . S
H1067 C1043 0.930 . S
H1068 C1045 0.930 . S
H1069 C1046 0.931 . S
H1070 C1048 0.931 . S
H1071 C1050 0.930 . S
H1072 C1052 0.930 . S
H1073 C1053 0.931 . S
H1074 C1055 0.931 . S
H1075 C1057 0.930 . S
H1076 C1059 0.930 . S
H1077 C1060 0.931 . S
N1078 C1040 1.343 . S
N1078 C1061 1.343 . S
N1079 C1047 1.343 . S
N1079 C1054 1.343 . S
H1080 C1086 0.930 . S
H1081 C1090 0.930 . S
H1082 C1095 0.929 . S
H1083 C1093 0.929 . S
H1084 C1088 0.929 . S
H1085 C1094 0.929 . S
C1086 H1080 0.930 . S
C1086 C1087 1.367 . S
C1086 C1094 1.378 . S
C1087 C1086 1.367 . S
C1087 C1095 1.433 1_655 S
C1088 H1084 0.929 . S
C1088 C1090 1.378 . S
C1088 C1092 1.350 1_455 S
C1089 C1092 1.463 . S
C1089 C1094 1.350 . S
C1089 N1097 1.427 1_655 S
C1090 H1081 0.930 . S
C1090 C1088 1.378 . S
C1090 C1091 1.367 1_455 S
C1091 C1090 1.367 1_655 S
C1091 C1093 1.433 . S
C1092 C1088 1.350 1_655 S
C1092 C1089 1.463 . S
C1092 N1096 1.427 . S
C1093 H1083 0.929 . S
C1093 C1091 1.433 . S
C1093 N1096 1.384 . S
C1094 H1085 0.929 . S
C1094 C1086 1.378 . S
C1094 C1089 1.350 . S
C1095 H1082 0.929 . S
C1095 C1087 1.433 1_455 S
C1095 N1097 1.384 . S
N1096 C1092 1.427 . S
N1096 C1093 1.384 . S
N1097 C1089 1.427 1_455 S
N1097 C1095 1.384 . S
H1098 C1104 0.930 . S
H1099 C1108 0.930 . S
H1100 C1113 0.929 . S
H1101 C1111 0.929 . S
H1102 C1106 0.929 . S
H1103 C1112 0.929 . S
C1104 H1098 0.930 . S
C1104 C1105 1.367 . S
C1104 C1112 1.378 . S
C1105 C1104 1.367 . S
C1105 C1113 1.433 . S
C1106 H1102 0.929 . S
C1106 C1108 1.378 . S
C1106 C1110 1.350 . S
C1107 C1110 1.463 . S
C1107 C1112 1.350 . S
C1107 N1115 1.427 . S
C1108 H1099 0.930 . S
C1108 C1106 1.378 . S
C1108 C1109 1.367 . S
C1109 C1108 1.367 . S
C1109 C1111 1.433 . S
C1110 C1106 1.350 . S
C1110 C1107 1.463 . S
C1110 N1114 1.427 . S
C1111 H1101 0.929 . S
C1111 C1109 1.433 . S
C1111 N1114 1.384 . S
C1112 H1103 0.929 . S
C1112 C1104 1.378 . S
C1112 C1107 1.350 . S
C1113 H1100 0.929 . S
C1113 C1105 1.433 . S
C1113 N1115 1.384 . S
N1114 C1110 1.427 . S
N1114 C1111 1.384 . S
N1115 C1107 1.427 . S
N1115 C1113 1.384 . S
H1116 C1122 0.930 . S
H1117 C1126 0.930 . S
H1118 C1131 0.929 . S
H1119 C1129 0.929 . S
H1120 C1124 0.929 . S
H1121 C1130 0.929 . S
C1122 H1116 0.930 . S
C1122 C1123 1.367 1_565 S
C1122 C1130 1.378 . S
C1123 C1122 1.367 1_545 S
C1123 C1131 1.433 . S
C1124 H1120 0.929 . S
C1124 C1126 1.378 . S
C1124 C1128 1.350 . S
C1125 C1128 1.463 . S
C1125 C1130 1.350 1_545 S
C1125 N1133 1.427 . S
C1126 H1117 0.930 . S
C1126 C1124 1.378 . S
C1126 C1127 1.367 . S
C1127 C1126 1.367 . S
C1127 C1129 1.433 1_545 S
C1128 C1124 1.350 . S
C1128 C1125 1.463 . S
C1128 N1132 1.427 1_545 S
C1129 H1119 0.929 . S
C1129 C1127 1.433 1_565 S
C1129 N1132 1.384 . S
C1130 H1121 0.929 . S
C1130 C1122 1.378 . S
C1130 C1125 1.350 1_565 S
C1131 H1118 0.929 . S
C1131 C1123 1.433 . S
C1131 N1133 1.384 . S
N1132 C1128 1.427 1_565 S
N1132 C1129 1.384 . S
N1133 C1125 1.427 . S
N1133 C1131 1.384 . S
H1134 C1140 0.930 . S
H1135 C1144 0.930 . S
H1136 C1149 0.929 . S
H1137 C1147 0.929 . S
H1138 C1142 0.929 . S
H1139 C1148 0.929 . S
C1140 H1134 0.930 . S
C1140 C1141 1.367 1_545 S
C1140 C1148 1.378 . S
C1141 C1140 1.367 1_565 S
C1141 C1149 1.433 . S
C1142 H1138 0.929 . S
C1142 C1144 1.378 . S
C1142 C1146 1.350 . S
C1143 C1146 1.463 . S
C1143 C1148 1.350 1_565 S
C1143 N1151 1.427 . S
C1144 H1135 0.930 . S
C1144 C1142 1.378 . S
C1144 C1145 1.367 . S
C1145 C1144 1.367 . S
C1145 C1147 1.433 1_565 S
C1146 C1142 1.350 . S
C1146 C1143 1.463 . S
C1146 N1150 1.427 1_565 S
C1147 H1137 0.929 . S
C1147 C1145 1.433 1_545 S
C1147 N1150 1.384 . S
C1148 H1139 0.929 . S
C1148 C1140 1.378 . S
C1148 C1143 1.350 1_545 S
C1149 H1136 0.929 . S
C1149 C1141 1.433 . S
C1149 N1151 1.384 . S
N1150 C1146 1.427 1_545 S
N1150 C1147 1.384 . S
N1151 C1143 1.427 . S
N1151 C1149 1.384 . S
H1152 C1158 0.930 1_655 S
H1153 C1162 0.930 . S
H1154 C1167 0.929 . S
H1155 C1165 0.929 . S
H1156 C1160 0.929 . S
H1157 C1166 0.888 1_655 S
C1158 H1152 0.930 1_455 S
C1158 C1159 1.367 . S
C1158 C1166 1.399 . S
C1159 C1158 1.367 . S
C1159 C1167 1.433 . S
C1160 H1156 0.929 . S
C1160 C1162 1.378 . S
C1160 C1164 1.350 . S
C1161 C1164 1.463 . S
C1161 C1166 1.371 . S
C1161 N1169 1.427 . S
C1162 H1153 0.930 . S
C1162 C1160 1.378 . S
C1162 C1163 1.367 . S
C1163 C1162 1.367 . S
C1163 C1165 1.433 1_455 S
C1164 C1160 1.350 . S
C1164 C1161 1.463 . S
C1164 N1168 1.427 1_455 S
C1165 H1155 0.929 . S
C1165 C1163 1.433 1_655 S
C1165 N1168 1.384 . S
C1166 H1157 0.888 1_455 S
C1166 C1158 1.399 . S
C1166 C1161 1.371 . S
C1167 H1154 0.929 . S
C1167 C1159 1.433 . S
C1167 N1169 1.384 . S
N1168 C1164 1.427 1_655 S
N1168 C1165 1.384 . S
N1169 C1161 1.427 . S
N1169 C1167 1.384 . S
H1170 C1176 0.930 . S
H1171 C1180 0.930 . S
H1172 C1185 0.929 . S
H1173 C1183 0.929 . S
H1174 C1178 0.929 . S
H1175 C1184 0.929 . S
C1176 H1170 0.930 . S
C1176 C1177 1.367 . S
C1176 C1184 1.378 . S
C1177 C1176 1.367 . S
C1177 C1185 1.433 . S
C1178 H1174 0.929 . S
C1178 C1180 1.378 . S
C1178 C1182 1.350 . S
C1179 C1182 1.463 . S
C1179 C1184 1.350 . S
C1179 N1187 1.427 . S
C1180 H1171 0.930 . S
C1180 C1178 1.378 . S
C1180 C1181 1.367 . S
C1181 C1180 1.367 . S
C1181 C1183 1.433 . S
C1182 C1178 1.350 . S
C1182 C1179 1.463 . S
C1182 N1186 1.427 . S
C1183 H1173 0.929 . S
C1183 C1181 1.433 . S
C1183 N1186 1.384 . S
C1184 H1175 0.929 . S
C1184 C1176 1.378 . S
C1184 C1179 1.350 . S
C1185 H1172 0.929 . S
C1185 C1177 1.433 . S
C1185 N1187 1.384 . S
N1186 C1182 1.427 . S
N1186 C1183 1.384 . S
N1187 C1179 1.427 . S
N1187 C1185 1.384 . S
H1188 C1194 0.927 1_655 S
H1189 C1198 0.930 . S
H1190 C1203 0.929 . S
H1191 C1201 0.929 . S
H1192 C1196 0.929 . S
H1193 C1202 0.929 . S
C1194 H1188 0.927 1_455 S
C1194 C1195 1.367 . S
C1194 C1202 1.381 1_455 S
C1195 C1194 1.367 . S
C1195 C1203 1.433 . S
C1196 H1192 0.929 . S
C1196 C1198 1.378 . S
C1196 C1200 1.350 . S
C1197 C1200 1.463 . S
C1197 C1202 1.350 1_455 S
C1197 N1205 1.427 . S
C1198 H1189 0.930 . S
C1198 C1196 1.378 . S
C1198 C1199 1.367 . S
C1199 C1198 1.367 . S
C1199 C1201 1.433 1_455 S
C1200 C1196 1.350 . S
C1200 C1197 1.463 . S
C1200 N1204 1.427 1_455 S
C1201 H1191 0.929 . S
C1201 C1199 1.433 1_655 S
C1201 N1204 1.384 . S
C1202 H1193 0.929 . S
C1202 C1194 1.381 1_655 S
C1202 C1197 1.350 1_655 S
C1203 H1190 0.929 . S
C1203 C1195 1.433 . S
C1203 N1205 1.384 . S
N1204 C1200 1.427 1_655 S
N1204 C1201 1.384 . S
N1205 C1197 1.427 . S
N1205 C1203 1.384 . S
H1206 C1212 0.930 . S
H1207 C1216 0.930 . S
H1208 C1221 0.929 . S
H1209 C1219 0.929 . S
H1210 C1214 0.929 . S
H1211 C1220 0.929 . S
C1212 H1206 0.930 . S
C1212 C1213 1.367 . S
C1212 C1220 1.378 . S
C1213 C1212 1.367 . S
C1213 C1221 1.433 . S
C1214 H1210 0.929 . S
C1214 C1216 1.378 . S
C1214 C1218 1.350 . S
C1215 C1218 1.463 . S
C1215 C1220 1.350 . S
C1215 N1223 1.427 . S
C1216 H1207 0.930 . S
C1216 C1214 1.378 . S
C1216 C1217 1.367 . S
C1217 C1216 1.367 . S
C1217 C1219 1.433 . S
C1218 C1214 1.350 . S
C1218 C1215 1.463 . S
C1218 N1222 1.427 . S
C1219 H1209 0.929 . S
C1219 C1217 1.433 . S
C1219 N1222 1.384 . S
C1220 H1211 0.929 . S
C1220 C1212 1.378 . S
C1220 C1215 1.350 . S
C1221 H1208 0.929 . S
C1221 C1213 1.433 . S
C1221 N1223 1.384 . S
N1222 C1218 1.427 . S
N1222 C1219 1.384 . S
N1223 C1215 1.427 . S
N1223 C1221 1.384 . S
H1224 C1230 0.946 1_545 S
H1225 C1234 0.930 . S
H1226 C1239 0.929 . S
H1227 C1237 0.929 . S
H1228 C1232 0.929 . S
H1229 C1238 0.929 1_545 S
C1230 H1224 0.946 1_565 S
C1230 C1231 1.367 . S
C1230 C1238 1.378 . S
C1231 C1230 1.367 . S
C1231 C1239 1.433 . S
C1232 H1228 0.929 . S
C1232 C1234 1.378 . S
C1232 C1236 1.350 . S
C1233 C1236 1.463 . S
C1233 C1238 1.350 . S
C1233 N1241 1.427 . S
C1234 H1225 0.930 . S
C1234 C1232 1.378 . S
C1234 C1235 1.367 . S
C1235 C1234 1.367 . S
C1235 C1237 1.433 1_565 S
C1236 C1232 1.350 . S
C1236 C1233 1.463 . S
C1236 N1240 1.423 1_565 S
C1237 H1227 0.929 . S
C1237 C1235 1.433 1_545 S
C1237 N1240 1.394 . S
C1238 H1229 0.929 1_565 S
C1238 C1230 1.378 . S
C1238 C1233 1.350 . S
C1239 H1226 0.929 . S
C1239 C1231 1.433 . S
C1239 N1241 1.384 . S
N1240 C1236 1.423 1_545 S
N1240 C1237 1.394 . S
N1241 C1233 1.427 . S
N1241 C1239 1.384 . S
H1242 C1248 0.930 . S
H1243 C1252 0.930 . S
H1244 C1257 0.908 1_565 S
H1245 C1255 0.929 . S
H1246 C1250 0.929 . S
H1247 C1256 0.929 . S
C1248 H1242 0.930 . S
C1248 C1249 1.367 . S
C1248 C1256 1.378 . S
C1249 C1248 1.367 . S
C1249 C1257 1.446 . S
C1250 H1246 0.929 . S
C1250 C1252 1.378 . S
C1250 C1254 1.350 1_565 S
C1251 C1254 1.463 . S
C1251 C1256 1.350 . S
C1251 N1259 1.427 1_545 S
C1252 H1243 0.930 . S
C1252 C1250 1.378 . S
C1252 C1253 1.367 1_565 S
C1253 C1252 1.367 1_545 S
C1253 C1255 1.433 . S
C1254 C1250 1.350 1_545 S
C1254 C1251 1.463 . S
C1254 N1258 1.427 . S
C1255 H1245 0.929 . S
C1255 C1253 1.433 . S
C1255 N1258 1.384 . S
C1256 H1247 0.929 . S
C1256 C1248 1.378 . S
C1256 C1251 1.350 . S
C1257 H1244 0.908 1_545 S
C1257 C1249 1.446 . S
C1257 N1259 1.394 1_545 S
N1258 C1254 1.427 . S
N1258 C1255 1.384 . S
N1259 C1251 1.427 1_565 S
N1259 C1257 1.394 1_565 S
H1260 C1266 0.930 . S
H1261 C1270 0.930 . S
H1262 C1275 0.929 . S
H1263 C1273 0.929 . S
H1264 C1268 0.929 . S
H1265 C1274 0.929 . S
C1266 H1260 0.930 . S
C1266 C1267 1.367 . S
C1266 C1274 1.378 . S
C1267 C1266 1.367 . S
C1267 C1275 1.433 1_655 S
C1268 H1264 0.929 . S
C1268 C1270 1.378 . S
C1268 C1272 1.350 1_455 S
C1269 C1272 1.463 . S
C1269 C1274 1.350 . S
C1269 N1277 1.427 1_655 S
C1270 H1261 0.930 . S
C1270 C1268 1.378 . S
C1270 C1271 1.367 1_455 S
C1271 C1270 1.367 1_655 S
C1271 C1273 1.433 . S
C1272 C1268 1.350 1_655 S
C1272 C1269 1.463 . S
C1272 N1276 1.427 . S
C1273 H1263 0.929 . S
C1273 C1271 1.433 . S
C1273 N1276 1.384 . S
C1274 H1265 0.929 . S
C1274 C1266 1.378 . S
C1274 C1269 1.350 . S
C1275 H1262 0.929 . S
C1275 C1267 1.433 1_455 S
C1275 N1277 1.384 . S
N1276 C1272 1.427 . S
N1276 C1273 1.384 . S
N1277 C1269 1.427 1_455 S
N1277 C1275 1.384 . S
H1278 C1284 0.930 . S
H1279 C1288 0.930 . S
H1280 C1293 0.929 . S
H1281 C1291 0.929 . S
H1282 C1286 0.929 . S
H1283 C1292 0.929 . S
C1284 H1278 0.930 . S
C1284 C1285 1.367 . S
C1284 C1292 1.378 . S
C1285 C1284 1.367 . S
C1285 C1293 1.433 . S
C1286 H1282 0.929 . S
C1286 C1288 1.378 . S
C1286 C1290 1.350 . S
C1287 C1290 1.463 . S
C1287 C1292 1.350 . S
C1287 N1295 1.427 . S
C1288 H1279 0.930 . S
C1288 C1286 1.378 . S
C1288 C1289 1.367 . S
C1289 C1288 1.367 . S
C1289 C1291 1.433 . S
C1290 C1286 1.350 . S
C1290 C1287 1.463 . S
C1290 N1294 1.427 . S
C1291 H1281 0.929 . S
C1291 C1289 1.433 . S
C1291 N1294 1.384 . S
C1292 H1283 0.929 . S
C1292 C1284 1.378 . S
C1292 C1287 1.350 . S
C1293 H1280 0.929 . S
C1293 C1285 1.433 . S
C1293 N1295 1.384 . S
N1294 C1290 1.427 . S
N1294 C1291 1.384 . S
N1295 C1287 1.427 . S
N1295 C1293 1.384 . S
H1296 C1302 0.930 . S
H1297 C1306 0.930 . S
H1298 C1311 0.929 . S
H1299 C1309 0.929 . S
H1300 C1304 0.929 . S
H1301 C1310 0.929 . S
C1302 H1296 0.930 . S
C1302 C1303 1.367 . S
C1302 C1310 1.378 . S
C1303 C1302 1.367 . S
C1303 C1311 1.433 . S
C1304 H1300 0.929 . S
C1304 C1306 1.378 . S
C1304 C1308 1.350 . S
C1305 C1308 1.463 . S
C1305 C1310 1.350 . S
C1305 N1313 1.427 . S
C1306 H1297 0.930 . S
C1306 C1304 1.378 . S
C1306 C1307 1.367 . S
C1307 C1306 1.367 . S
C1307 C1309 1.433 . S
C1308 C1304 1.350 . S
C1308 C1305 1.463 . S
C1308 N1312 1.427 . S
C1309 H1299 0.929 . S
C1309 C1307 1.433 . S
C1309 N1312 1.384 . S
C1310 H1301 0.929 . S
C1310 C1302 1.378 . S
C1310 C1305 1.350 . S
C1311 H1298 0.929 . S
C1311 C1303 1.433 . S
C1311 N1313 1.384 . S
N1312 C1308 1.427 . S
N1312 C1309 1.384 . S
N1313 C1305 1.427 . S
N1313 C1311 1.384 . S
H1314 C1320 0.930 . S
H1315 C1324 0.930 . S
H1316 C1329 0.929 . S
H1317 C1327 0.929 . S
H1318 C1322 0.929 . S
H1319 C1328 0.929 . S
C1320 H1314 0.930 . S
C1320 C1321 1.367 . S
C1320 C1328 1.378 . S
C1321 C1320 1.367 . S
C1321 C1329 1.433 . S
C1322 H1318 0.929 . S
C1322 C1324 1.378 . S
C1322 C1326 1.350 . S
C1323 C1326 1.463 . S
C1323 C1328 1.350 . S
C1323 N1331 1.427 . S
C1324 H1315 0.930 . S
C1324 C1322 1.378 . S
C1324 C1325 1.367 . S
C1325 C1324 1.367 . S
C1325 C1327 1.433 . S
C1326 C1322 1.350 . S
C1326 C1323 1.463 . S
C1326 N1330 1.427 . S
C1327 H1317 0.929 . S
C1327 C1325 1.433 . S
C1327 N1330 1.384 . S
C1328 H1319 0.929 . S
C1328 C1320 1.378 . S
C1328 C1323 1.350 . S
C1329 H1316 0.929 . S
C1329 C1321 1.433 . S
C1329 N1331 1.384 . S
N1330 C1326 1.427 . S
N1330 C1327 1.384 . S
N1331 C1323 1.427 . S
N1331 C1329 1.384 . S
H1332 C1338 0.930 . S
H1333 C1342 0.930 . S
H1334 C1347 0.929 . S
H1335 C1345 0.929 . S
H1336 C1340 0.929 . S
H1337 C1346 0.929 . S
C1338 H1332 0.930 . S
C1338 C1339 1.367 . S
C1338 C1346 1.378 . S
C1339 C1338 1.367 . S
C1339 C1347 1.433 . S
C1340 H1336 0.929 . S
C1340 C1342 1.378 . S
C1340 C1344 1.350 . S
C1341 C1344 1.463 . S
C1341 C1346 1.350 . S
C1341 N1349 1.427 . S
C1342 H1333 0.930 . S
C1342 C1340 1.378 . S
C1342 C1343 1.367 . S
C1343 C1342 1.367 . S
C1343 C1345 1.433 . S
C1344 C1340 1.350 . S
C1344 C1341 1.463 . S
C1344 N1348 1.427 . S
C1345 H1335 0.929 . S
C1345 C1343 1.433 . S
C1345 N1348 1.384 . S
C1346 H1337 0.929 . S
C1346 C1338 1.378 . S
C1346 C1341 1.350 . S
C1347 H1334 0.929 . S
C1347 C1339 1.433 . S
C1347 N1349 1.384 . S
N1348 C1344 1.427 . S
N1348 C1345 1.384 . S
N1349 C1341 1.427 . S
N1349 C1347 1.384 . S
H1350 C1356 0.930 . S
H1351 C1360 0.930 . S
H1352 C1365 0.929 . S
H1353 C1363 0.929 . S
H1354 C1358 0.929 . S
H1355 C1364 0.929 . S
C1356 H1350 0.930 . S
C1356 C1357 1.367 . S
C1356 C1364 1.378 . S
C1357 C1356 1.367 . S
C1357 C1365 1.433 . S
C1358 H1354 0.929 . S
C1358 C1360 1.378 . S
C1358 C1362 1.350 . S
C1359 C1362 1.463 . S
C1359 C1364 1.350 . S
C1359 N1367 1.427 . S
C1360 H1351 0.930 . S
C1360 C1358 1.378 . S
C1360 C1361 1.367 . S
C1361 C1360 1.367 . S
C1361 C1363 1.433 . S
C1362 C1358 1.350 . S
C1362 C1359 1.463 . S
C1362 N1366 1.427 . S
C1363 H1353 0.929 . S
C1363 C1361 1.433 . S
C1363 N1366 1.384 . S
C1364 H1355 0.929 . S
C1364 C1356 1.378 . S
C1364 C1359 1.350 . S
C1365 H1352 0.929 . S
C1365 C1357 1.433 . S
C1365 N1367 1.384 . S
N1366 C1362 1.427 . S
N1366 C1363 1.384 . S
N1367 C1359 1.427 . S
N1367 C1365 1.384 . S
H1368 C1374 0.930 . S
H1369 C1378 0.930 . S
H1370 C1383 0.929 . S
H1371 C1381 0.929 . S
H1372 C1376 0.929 . S
H1373 C1382 0.929 . S
C1374 H1368 0.930 . S
C1374 C1375 1.367 . S
C1374 C1382 1.378 . S
C1375 C1374 1.367 . S
C1375 C1383 1.433 . S
C1376 H1372 0.929 . S
C1376 C1378 1.378 . S
C1376 C1380 1.350 . S
C1377 C1380 1.463 . S
C1377 C1382 1.350 . S
C1377 N1385 1.427 . S
C1378 H1369 0.930 . S
C1378 C1376 1.378 . S
C1378 C1379 1.367 . S
C1379 C1378 1.367 . S
C1379 C1381 1.433 . S
C1380 C1376 1.350 . S
C1380 C1377 1.463 . S
C1380 N1384 1.427 . S
C1381 H1371 0.929 . S
C1381 C1379 1.433 . S
C1381 N1384 1.384 . S
C1382 H1373 0.929 . S
C1382 C1374 1.378 . S
C1382 C1377 1.350 . S
C1383 H1370 0.929 . S
C1383 C1375 1.433 . S
C1383 N1385 1.384 . S
N1384 C1380 1.427 . S
N1384 C1381 1.384 . S
N1385 C1377 1.427 . S
N1385 C1383 1.384 . S
H1386 C1392 0.930 . S
H1387 C1396 0.930 . S
H1388 C1401 0.929 . S
H1389 C1399 0.929 . S
H1390 C1394 0.929 . S
H1391 C1400 0.929 . S
C1392 H1386 0.930 . S
C1392 C1393 1.367 . S
C1392 C1400 1.378 . S
C1393 C1392 1.367 . S
C1393 C1401 1.433 . S
C1394 H1390 0.929 . S
C1394 C1396 1.378 . S
C1394 C1398 1.350 . S
C1395 C1398 1.463 . S
C1395 C1400 1.350 . S
C1395 N1403 1.427 . S
C1396 H1387 0.930 . S
C1396 C1394 1.378 . S
C1396 C1397 1.367 . S
C1397 C1396 1.367 . S
C1397 C1399 1.433 . S
C1398 C1394 1.350 . S
C1398 C1395 1.463 . S
C1398 N1402 1.427 . S
C1399 H1389 0.929 . S
C1399 C1397 1.433 . S
C1399 N1402 1.384 . S
C1400 H1391 0.929 . S
C1400 C1392 1.378 . S
C1400 C1395 1.350 . S
C1401 H1388 0.929 . S
C1401 C1393 1.433 . S
C1401 N1403 1.384 . S
N1402 C1398 1.427 . S
N1402 C1399 1.384 . S
N1403 C1395 1.427 . S
N1403 C1401 1.384 . S
H1404 C1410 0.930 . S
H1405 C1414 0.930 . S
H1406 C1419 0.929 . S
H1407 C1417 0.929 . S
H1408 C1412 0.929 . S
H1409 C1418 0.929 . S
C1410 H1404 0.930 . S
C1410 C1411 1.367 . S
C1410 C1418 1.378 . S
C1411 C1410 1.367 . S
C1411 C1419 1.433 . S
C1412 H1408 0.929 . S
C1412 C1414 1.378 . S
C1412 C1416 1.350 . S
C1413 C1416 1.463 . S
C1413 C1418 1.350 . S
C1413 N1421 1.427 . S
C1414 H1405 0.930 . S
C1414 C1412 1.378 . S
C1414 C1415 1.367 . S
C1415 C1414 1.367 . S
C1415 C1417 1.433 . S
C1416 C1412 1.350 . S
C1416 C1413 1.463 . S
C1416 N1420 1.427 . S
C1417 H1407 0.929 . S
C1417 C1415 1.433 . S
C1417 N1420 1.384 . S
C1418 H1409 0.929 . S
C1418 C1410 1.378 . S
C1418 C1413 1.350 . S
C1419 H1406 0.929 . S
C1419 C1411 1.433 . S
C1419 N1421 1.384 . S
N1420 C1416 1.427 . S
N1420 C1417 1.384 . S
N1421 C1413 1.427 . S
N1421 C1419 1.384 . S
H1422 C1428 0.930 . S
H1423 C1432 0.930 . S
H1424 C1437 0.929 . S
H1425 C1435 0.929 . S
H1426 C1430 0.929 . S
H1427 C1436 0.929 . S
C1428 H1422 0.930 . S
C1428 C1429 1.367 . S
C1428 C1436 1.378 . S
C1429 C1428 1.367 . S
C1429 C1437 1.433 . S
C1430 H1426 0.929 . S
C1430 C1432 1.378 . S
C1430 C1434 1.350 . S
C1431 C1434 1.463 . S
C1431 C1436 1.350 . S
C1431 N1439 1.427 . S
C1432 H1423 0.930 . S
C1432 C1430 1.378 . S
C1432 C1433 1.367 . S
C1433 C1432 1.367 . S
C1433 C1435 1.433 . S
C1434 C1430 1.350 . S
C1434 C1431 1.463 . S
C1434 N1438 1.427 . S
C1435 H1425 0.929 . S
C1435 C1433 1.433 . S
C1435 N1438 1.384 . S
C1436 H1427 0.929 . S
C1436 C1428 1.378 . S
C1436 C1431 1.350 . S
C1437 H1424 0.929 . S
C1437 C1429 1.433 . S
C1437 N1439 1.384 . S
N1438 C1434 1.427 . S
N1438 C1435 1.384 . S
N1439 C1431 1.427 . S
N1439 C1437 1.384 . S
H1440 C1446 0.930 . S
H1441 C1450 0.930 . S
H1442 C1455 0.929 . S
H1443 C1453 0.929 . S
H1444 C1448 0.929 . S
H1445 C1454 0.929 . S
C1446 H1440 0.930 . S
C1446 C1447 1.367 . S
C1446 C1454 1.378 . S
C1447 C1446 1.367 . S
C1447 C1455 1.433 . S
C1448 H1444 0.929 . S
C1448 C1450 1.378 . S
C1448 C1452 1.350 . S
C1449 C1452 1.463 . S
C1449 C1454 1.350 . S
C1449 N1457 1.427 . S
C1450 H1441 0.930 . S
C1450 C1448 1.378 . S
C1450 C1451 1.367 . S
C1451 C1450 1.367 . S
C1451 C1453 1.433 . S
C1452 C1448 1.350 . S
C1452 C1449 1.463 . S
C1452 N1456 1.427 . S
C1453 H1443 0.929 . S
C1453 C1451 1.433 . S
C1453 N1456 1.384 . S
C1454 H1445 0.929 . S
C1454 C1446 1.378 . S
C1454 C1449 1.350 . S
C1455 H1442 0.929 . S
C1455 C1447 1.433 . S
C1455 N1457 1.384 . S
N1456 C1452 1.427 . S
N1456 C1453 1.384 . S
N1457 C1449 1.427 . S
N1457 C1455 1.384 . S
H1458 C1464 0.930 . S
H1459 C1468 0.930 . S
H1460 C1473 0.929 . S
H1461 C1471 0.929 . S
H1462 C1466 0.929 . S
H1463 C1472 0.929 . S
C1464 H1458 0.930 . S
C1464 C1465 1.367 . S
C1464 C1472 1.378 . S
C1465 C1464 1.367 . S
C1465 C1473 1.433 . S
C1466 H1462 0.929 . S
C1466 C1468 1.378 . S
C1466 C1470 1.350 . S
C1467 C1470 1.463 . S
C1467 C1472 1.350 . S
C1467 N1475 1.427 . S
C1468 H1459 0.930 . S
C1468 C1466 1.378 . S
C1468 C1469 1.367 . S
C1469 C1468 1.367 . S
C1469 C1471 1.433 . S
C1470 C1466 1.350 . S
C1470 C1467 1.463 . S
C1470 N1474 1.427 . S
C1471 H1461 0.929 . S
C1471 C1469 1.433 . S
C1471 N1474 1.384 . S
C1472 H1463 0.929 . S
C1472 C1464 1.378 . S
C1472 C1467 1.350 . S
C1473 H1460 0.929 . S
C1473 C1465 1.433 . S
C1473 N1475 1.384 . S
N1474 C1470 1.427 . S
N1474 C1471 1.384 . S
N1475 C1467 1.427 . S
N1475 C1473 1.384 . S
H1476 C1482 0.930 . S
H1477 C1486 0.930 . S
H1478 C1491 0.929 . S
H1479 C1489 0.929 . S
H1480 C1484 0.929 . S
H1481 C1490 0.929 . S
C1482 H1476 0.930 . S
C1482 C1483 1.367 . S
C1482 C1490 1.378 . S
C1483 C1482 1.367 . S
C1483 C1491 1.433 . S
C1484 H1480 0.929 . S
C1484 C1486 1.378 . S
C1484 C1488 1.350 . S
C1485 C1488 1.463 . S
C1485 C1490 1.350 . S
C1485 N1493 1.427 . S
C1486 H1477 0.930 . S
C1486 C1484 1.378 . S
C1486 C1487 1.367 . S
C1487 C1486 1.367 . S
C1487 C1489 1.433 . S
C1488 C1484 1.350 . S
C1488 C1485 1.463 . S
C1488 N1492 1.427 . S
C1489 H1479 0.929 . S
C1489 C1487 1.433 . S
C1489 N1492 1.384 . S
C1490 H1481 0.929 . S
C1490 C1482 1.378 . S
C1490 C1485 1.350 . S
C1491 H1478 0.929 . S
C1491 C1483 1.433 . S
C1491 N1493 1.384 . S
N1492 C1488 1.427 . S
N1492 C1489 1.384 . S
N1493 C1485 1.427 . S
N1493 C1491 1.384 . S
H1494 C1500 0.930 . S
H1495 C1504 0.930 . S
H1496 C1509 0.929 . S
H1497 C1507 0.929 . S
H1498 C1502 0.929 . S
H1499 C1508 0.929 . S
C1500 H1494 0.930 . S
C1500 C1501 1.367 . S
C1500 C1508 1.378 . S
C1501 C1500 1.367 . S
C1501 C1509 1.433 . S
C1502 H1498 0.929 . S
C1502 C1504 1.378 . S
C1502 C1506 1.350 . S
C1503 C1506 1.463 . S
C1503 C1508 1.350 . S
C1503 N1511 1.427 . S
C1504 H1495 0.930 . S
C1504 C1502 1.378 . S
C1504 C1505 1.367 . S
C1505 C1504 1.367 . S
C1505 C1507 1.433 . S
C1506 C1502 1.350 . S
C1506 C1503 1.463 . S
C1506 N1510 1.427 . S
C1507 H1497 0.929 . S
C1507 C1505 1.433 . S
C1507 N1510 1.384 . S
C1508 H1499 0.929 . S
C1508 C1500 1.378 . S
C1508 C1503 1.350 . S
C1509 H1496 0.929 . S
C1509 C1501 1.433 . S
C1509 N1511 1.384 . S
N1510 C1506 1.427 . S
N1510 C1507 1.384 . S
N1511 C1503 1.427 . S
N1511 C1509 1.384 . S
H1512 C1518 0.930 . S
H1513 C1522 0.930 . S
H1514 C1527 0.929 . S
H1515 C1525 0.929 . S
H1516 C1520 0.929 . S
H1517 C1526 0.929 . S
C1518 H1512 0.930 . S
C1518 C1519 1.367 . S
C1518 C1526 1.378 . S
C1519 C1518 1.367 . S
C1519 C1527 1.433 . S
C1520 H1516 0.929 . S
C1520 C1522 1.378 . S
C1520 C1524 1.350 . S
C1521 C1524 1.463 . S
C1521 C1526 1.350 . S
C1521 N1529 1.427 . S
C1522 H1513 0.930 . S
C1522 C1520 1.378 . S
C1522 C1523 1.367 . S
C1523 C1522 1.367 . S
C1523 C1525 1.433 . S
C1524 C1520 1.350 . S
C1524 C1521 1.463 . S
C1524 N1528 1.427 . S
C1525 H1515 0.929 . S
C1525 C1523 1.433 . S
C1525 N1528 1.384 . S
C1526 H1517 0.929 . S
C1526 C1518 1.378 . S
C1526 C1521 1.350 . S
C1527 H1514 0.929 . S
C1527 C1519 1.433 . S
C1527 N1529 1.384 . S
N1528 C1524 1.427 . S
N1528 C1525 1.384 . S
N1529 C1521 1.427 . S
N1529 C1527 1.384 . S
H1530 C1536 0.930 . S
H1531 C1540 0.930 . S
H1532 C1545 0.929 . S
H1533 C1543 0.929 . S
H1534 C1538 0.929 . S
H1535 C1544 0.929 . S
C1536 H1530 0.930 . S
C1536 C1537 1.367 . S
C1536 C1544 1.378 . S
C1537 C1536 1.367 . S
C1537 C1545 1.433 . S
C1538 H1534 0.929 . S
C1538 C1540 1.378 . S
C1538 C1542 1.350 . S
C1539 C1542 1.463 . S
C1539 C1544 1.350 . S
C1539 N1547 1.427 . S
C1540 H1531 0.930 . S
C1540 C1538 1.378 . S
C1540 C1541 1.367 . S
C1541 C1540 1.367 . S
C1541 C1543 1.433 . S
C1542 C1538 1.350 . S
C1542 C1539 1.463 . S
C1542 N1546 1.427 . S
C1543 H1533 0.929 . S
C1543 C1541 1.433 . S
C1543 N1546 1.384 . S
C1544 H1535 0.929 . S
C1544 C1536 1.378 . S
C1544 C1539 1.350 . S
C1545 H1532 0.929 . S
C1545 C1537 1.433 . S
C1545 N1547 1.384 . S
N1546 C1542 1.427 . S
N1546 C1543 1.384 . S
N1547 C1539 1.427 . S
N1547 C1545 1.384 . S
H1548 C1554 0.930 . S
H1549 C1558 0.930 . S
H1550 C1563 0.929 . S
H1551 C1561 0.929 . S
H1552 C1556 0.929 . S
H1553 C1562 0.929 . S
C1554 H1548 0.930 . S
C1554 C1555 1.367 . S
C1554 C1562 1.378 . S
C1555 C1554 1.367 . S
C1555 C1563 1.433 . S
C1556 H1552 0.929 . S
C1556 C1558 1.378 . S
C1556 C1560 1.350 . S
C1557 C1560 1.463 . S
C1557 C1562 1.350 . S
C1557 N1565 1.427 . S
C1558 H1549 0.930 . S
C1558 C1556 1.378 . S
C1558 C1559 1.367 . S
C1559 C1558 1.367 . S
C1559 C1561 1.433 . S
C1560 C1556 1.350 . S
C1560 C1557 1.463 . S
C1560 N1564 1.427 . S
C1561 H1551 0.929 . S
C1561 C1559 1.433 . S
C1561 N1564 1.384 . S
C1562 H1553 0.929 . S
C1562 C1554 1.378 . S
C1562 C1557 1.350 . S
C1563 H1550 0.929 . S
C1563 C1555 1.433 . S
C1563 N1565 1.384 . S
N1564 C1560 1.427 . S
N1564 C1561 1.384 . S
N1565 C1557 1.427 . S
N1565 C1563 1.384 . S
H1566 C1572 0.930 . S
H1567 C1576 0.930 . S
H1568 C1581 0.929 . S
H1569 C1579 0.929 . S
H1570 C1574 0.929 . S
H1571 C1580 0.929 . S
C1572 H1566 0.930 . S
C1572 C1573 1.367 . S
C1572 C1580 1.378 . S
C1573 C1572 1.367 . S
C1573 C1581 1.433 . S
C1574 H1570 0.929 . S
C1574 C1576 1.378 . S
C1574 C1578 1.350 . S
C1575 C1578 1.463 . S
C1575 C1580 1.350 . S
C1575 N1583 1.427 . S
C1576 H1567 0.930 . S
C1576 C1574 1.378 . S
C1576 C1577 1.367 . S
C1577 C1576 1.367 . S
C1577 C1579 1.433 . S
C1578 C1574 1.350 . S
C1578 C1575 1.463 . S
C1578 N1582 1.427 . S
C1579 H1569 0.929 . S
C1579 C1577 1.433 . S
C1579 N1582 1.384 . S
C1580 H1571 0.929 . S
C1580 C1572 1.378 . S
C1580 C1575 1.350 . S
C1581 H1568 0.929 . S
C1581 C1573 1.433 . S
C1581 N1583 1.384 . S
N1582 C1578 1.427 . S
N1582 C1579 1.384 . S
N1583 C1575 1.427 . S
N1583 C1581 1.384 . S
H1584 C1590 0.930 . S
H1585 C1594 0.930 . S
H1586 C1599 0.929 . S
H1587 C1597 0.929 . S
H1588 C1592 0.929 . S
H1589 C1598 0.929 . S
C1590 H1584 0.930 . S
C1590 C1591 1.367 . S
C1590 C1598 1.378 . S
C1591 C1590 1.367 . S
C1591 C1599 1.433 . S
C1592 H1588 0.929 . S
C1592 C1594 1.378 . S
C1592 C1596 1.350 . S
C1593 C1596 1.463 . S
C1593 C1598 1.350 . S
C1593 N1601 1.427 . S
C1594 H1585 0.930 . S
C1594 C1592 1.378 . S
C1594 C1595 1.367 . S
C1595 C1594 1.367 . S
C1595 C1597 1.433 . S
C1596 C1592 1.350 . S
C1596 C1593 1.463 . S
C1596 N1600 1.427 . S
C1597 H1587 0.929 . S
C1597 C1595 1.433 . S
C1597 N1600 1.384 . S
C1598 H1589 0.929 . S
C1598 C1590 1.378 . S
C1598 C1593 1.350 . S
C1599 H1586 0.929 . S
C1599 C1591 1.433 . S
C1599 N1601 1.384 . S
N1600 C1596 1.427 . S
N1600 C1597 1.384 . S
N1601 C1593 1.427 . S
N1601 C1599 1.384 . S
H1602 C1608 0.930 . S
H1603 C1612 0.930 . S
H1604 C1617 0.929 . S
H1605 C1615 0.929 . S
H1606 C1610 0.929 . S
H1607 C1616 0.929 . S
C1608 H1602 0.930 . S
C1608 C1609 1.367 . S
C1608 C1616 1.378 . S
C1609 C1608 1.367 . S
C1609 C1617 1.433 . S
C1610 H1606 0.929 . S
C1610 C1612 1.378 . S
C1610 C1614 1.350 . S
C1611 C1614 1.463 . S
C1611 C1616 1.350 . S
C1611 N1619 1.427 . S
C1612 H1603 0.930 . S
C1612 C1610 1.378 . S
C1612 C1613 1.367 . S
C1613 C1612 1.367 . S
C1613 C1615 1.433 . S
C1614 C1610 1.350 . S
C1614 C1611 1.463 . S
C1614 N1618 1.427 . S
C1615 H1605 0.929 . S
C1615 C1613 1.433 . S
C1615 N1618 1.384 . S
C1616 H1607 0.929 . S
C1616 C1608 1.378 . S
C1616 C1611 1.350 . S
C1617 H1604 0.929 . S
C1617 C1609 1.433 . S
C1617 N1619 1.384 . S
N1618 C1614 1.427 . S
N1618 C1615 1.384 . S
N1619 C1611 1.427 . S
N1619 C1617 1.384 . S
H1620 C1626 0.930 . S
H1621 C1630 0.930 . S
H1622 C1635 0.929 . S
H1623 C1633 0.929 . S
H1624 C1628 0.929 . S
H1625 C1634 0.929 . S
C1626 H1620 0.930 . S
C1626 C1627 1.367 . S
C1626 C1634 1.378 . S
C1627 C1626 1.367 . S
C1627 C1635 1.433 . S
C1628 H1624 0.929 . S
C1628 C1630 1.378 . S
C1628 C1632 1.350 . S
C1629 C1632 1.463 . S
C1629 C1634 1.350 . S
C1629 N1637 1.427 . S
C1630 H1621 0.930 . S
C1630 C1628 1.378 . S
C1630 C1631 1.367 . S
C1631 C1630 1.367 . S
C1631 C1633 1.433 . S
C1632 C1628 1.350 . S
C1632 C1629 1.463 . S
C1632 N1636 1.427 . S
C1633 H1623 0.929 . S
C1633 C1631 1.433 . S
C1633 N1636 1.384 . S
C1634 H1625 0.929 . S
C1634 C1626 1.378 . S
C1634 C1629 1.350 . S
C1635 H1622 0.929 . S
C1635 C1627 1.433 . S
C1635 N1637 1.384 . S
N1636 C1632 1.427 . S
N1636 C1633 1.384 . S
N1637 C1629 1.427 . S
N1637 C1635 1.384 . S
H1638 C1644 0.930 . S
H1639 C1648 0.930 . S
H1640 C1653 0.929 . S
H1641 C1651 0.929 . S
H1642 C1646 0.929 . S
H1643 C1652 0.929 . S
C1644 H1638 0.930 . S
C1644 C1645 1.367 . S
C1644 C1652 1.378 . S
C1645 C1644 1.367 . S
C1645 C1653 1.433 . S
C1646 H1642 0.929 . S
C1646 C1648 1.378 . S
C1646 C1650 1.350 . S
C1647 C1650 1.463 . S
C1647 C1652 1.350 . S
C1647 N1655 1.427 . S
C1648 H1639 0.930 . S
C1648 C1646 1.378 . S
C1648 C1649 1.367 . S
C1649 C1648 1.367 . S
C1649 C1651 1.433 . S
C1650 C1646 1.350 . S
C1650 C1647 1.463 . S
C1650 N1654 1.427 . S
C1651 H1641 0.929 . S
C1651 C1649 1.433 . S
C1651 N1654 1.384 . S
C1652 H1643 0.929 . S
C1652 C1644 1.378 . S
C1652 C1647 1.350 . S
C1653 H1640 0.929 . S
C1653 C1645 1.433 . S
C1653 N1655 1.384 . S
N1654 C1650 1.427 . S
N1654 C1651 1.384 . S
N1655 C1647 1.427 . S
N1655 C1653 1.384 . S
H1656 C1662 0.930 . S
H1657 C1666 0.930 . S
H1658 C1671 0.929 . S
H1659 C1669 0.929 . S
H1660 C1664 0.929 . S
H1661 C1670 0.929 . S
C1662 H1656 0.930 . S
C1662 C1663 1.367 . S
C1662 C1670 1.378 . S
C1663 C1662 1.367 . S
C1663 C1671 1.433 . S
C1664 H1660 0.929 . S
C1664 C1666 1.378 . S
C1664 C1668 1.350 . S
C1665 C1668 1.463 . S
C1665 C1670 1.350 . S
C1665 N1673 1.427 . S
C1666 H1657 0.930 . S
C1666 C1664 1.378 . S
C1666 C1667 1.367 . S
C1667 C1666 1.367 . S
C1667 C1669 1.433 . S
C1668 C1664 1.350 . S
C1668 C1665 1.463 . S
C1668 N1672 1.427 . S
C1669 H1659 0.929 . S
C1669 C1667 1.433 . S
C1669 N1672 1.384 . S
C1670 H1661 0.929 . S
C1670 C1662 1.378 . S
C1670 C1665 1.350 . S
C1671 H1658 0.929 . S
C1671 C1663 1.433 . S
C1671 N1673 1.384 . S
N1672 C1668 1.427 . S
N1672 C1669 1.384 . S
N1673 C1665 1.427 . S
N1673 C1671 1.384 . S
H1674 C1680 0.930 . S
H1675 C1684 0.930 . S
H1676 C1689 0.929 . S
H1677 C1687 0.929 . S
H1678 C1682 0.929 . S
H1679 C1688 0.929 . S
C1680 H1674 0.930 . S
C1680 C1681 1.367 . S
C1680 C1688 1.378 . S
C1681 C1680 1.367 . S
C1681 C1689 1.433 . S
C1682 H1678 0.929 . S
C1682 C1684 1.378 . S
C1682 C1686 1.350 . S
C1683 C1686 1.463 . S
C1683 C1688 1.350 . S
C1683 N1691 1.427 . S
C1684 H1675 0.930 . S
C1684 C1682 1.378 . S
C1684 C1685 1.367 . S
C1685 C1684 1.367 . S
C1685 C1687 1.433 . S
C1686 C1682 1.350 . S
C1686 C1683 1.463 . S
C1686 N1690 1.427 . S
C1687 H1677 0.929 . S
C1687 C1685 1.433 . S
C1687 N1690 1.384 . S
C1688 H1679 0.929 . S
C1688 C1680 1.378 . S
C1688 C1683 1.350 . S
C1689 H1676 0.929 . S
C1689 C1681 1.433 . S
C1689 N1691 1.384 . S
N1690 C1686 1.427 . S
N1690 C1687 1.384 . S
N1691 C1683 1.427 . S
N1691 C1689 1.384 . S
H1692 C1698 0.930 . S
H1693 C1702 0.930 . S
H1694 C1707 0.929 . S
H1695 C1705 0.929 . S
H1696 C1700 0.929 . S
H1697 C1706 0.929 . S
C1698 H1692 0.930 . S
C1698 C1699 1.367 . S
C1698 C1706 1.378 . S
C1699 C1698 1.367 . S
C1699 C1707 1.433 . S
C1700 H1696 0.929 . S
C1700 C1702 1.378 . S
C1700 C1704 1.350 . S
C1701 C1704 1.463 . S
C1701 C1706 1.350 . S
C1701 N1709 1.427 . S
C1702 H1693 0.930 . S
C1702 C1700 1.378 . S
C1702 C1703 1.367 . S
C1703 C1702 1.367 . S
C1703 C1705 1.433 . S
C1704 C1700 1.350 . S
C1704 C1701 1.463 . S
C1704 N1708 1.427 . S
C1705 H1695 0.929 . S
C1705 C1703 1.433 . S
C1705 N1708 1.384 . S
C1706 H1697 0.929 . S
C1706 C1698 1.378 . S
C1706 C1701 1.350 . S
C1707 H1694 0.929 . S
C1707 C1699 1.433 . S
C1707 N1709 1.384 . S
N1708 C1704 1.427 . S
N1708 C1705 1.384 . S
N1709 C1701 1.427 . S
N1709 C1707 1.384 . S
H1710 C1716 0.930 . S
H1711 C1720 0.930 . S
H1712 C1725 0.929 . S
H1713 C1723 0.929 . S
H1714 C1718 0.929 . S
H1715 C1724 0.929 . S
C1716 H1710 0.930 . S
C1716 C1717 1.367 . S
C1716 C1724 1.378 . S
C1717 C1716 1.367 . S
C1717 C1725 1.433 . S
C1718 H1714 0.929 . S
C1718 C1720 1.378 . S
C1718 C1722 1.350 . S
C1719 C1722 1.463 . S
C1719 C1724 1.350 . S
C1719 N1727 1.427 . S
C1720 H1711 0.930 . S
C1720 C1718 1.378 . S
C1720 C1721 1.367 . S
C1721 C1720 1.367 . S
C1721 C1723 1.433 . S
C1722 C1718 1.350 . S
C1722 C1719 1.463 . S
C1722 N1726 1.427 . S
C1723 H1713 0.929 . S
C1723 C1721 1.433 . S
C1723 N1726 1.384 . S
C1724 H1715 0.929 . S
C1724 C1716 1.378 . S
C1724 C1719 1.350 . S
C1725 H1712 0.929 . S
C1725 C1717 1.433 . S
C1725 N1727 1.384 . S
N1726 C1722 1.427 . S
N1726 C1723 1.384 . S
N1727 C1719 1.427 . S
N1727 C1725 1.384 . S
H1728 C1734 0.930 . S
H1729 C1738 0.930 . S
H1730 C1743 0.929 . S
H1731 C1741 0.929 . S
H1732 C1736 0.929 . S
H1733 C1742 0.929 . S
C1734 H1728 0.930 . S
C1734 C1735 1.367 . S
C1734 C1742 1.378 . S
C1735 C1734 1.367 . S
C1735 C1743 1.433 . S
C1736 H1732 0.929 . S
C1736 C1738 1.378 . S
C1736 C1740 1.350 . S
C1737 C1740 1.463 . S
C1737 C1742 1.350 . S
C1737 N1745 1.427 . S
C1738 H1729 0.930 . S
C1738 C1736 1.378 . S
C1738 C1739 1.367 . S
C1739 C1738 1.367 . S
C1739 C1741 1.433 . S
C1740 C1736 1.350 . S
C1740 C1737 1.463 . S
C1740 N1744 1.427 . S
C1741 H1731 0.929 . S
C1741 C1739 1.433 . S
C1741 N1744 1.384 . S
C1742 H1733 0.929 . S
C1742 C1734 1.378 . S
C1742 C1737 1.350 . S
C1743 H1730 0.929 . S
C1743 C1735 1.433 . S
C1743 N1745 1.384 . S
N1744 C1740 1.427 . S
N1744 C1741 1.384 . S
N1745 C1737 1.427 . S
N1745 C1743 1.384 . S
H1746 C1752 0.930 . S
H1747 C1756 0.930 . S
H1748 C1761 0.929 . S
H1749 C1759 0.929 . S
H1750 C1754 0.929 . S
H1751 C1760 0.929 . S
C1752 H1746 0.930 . S
C1752 C1753 1.367 . S
C1752 C1760 1.378 . S
C1753 C1752 1.367 . S
C1753 C1761 1.433 . S
C1754 H1750 0.929 . S
C1754 C1756 1.378 . S
C1754 C1758 1.350 . S
C1755 C1758 1.463 . S
C1755 C1760 1.350 . S
C1755 N1763 1.427 . S
C1756 H1747 0.930 . S
C1756 C1754 1.378 . S
C1756 C1757 1.367 . S
C1757 C1756 1.367 . S
C1757 C1759 1.433 . S
C1758 C1754 1.350 . S
C1758 C1755 1.463 . S
C1758 N1762 1.427 . S
C1759 H1749 0.929 . S
C1759 C1757 1.433 . S
C1759 N1762 1.384 . S
C1760 H1751 0.929 . S
C1760 C1752 1.378 . S
C1760 C1755 1.350 . S
C1761 H1748 0.929 . S
C1761 C1753 1.433 . S
C1761 N1763 1.384 . S
N1762 C1758 1.427 . S
N1762 C1759 1.384 . S
N1763 C1755 1.427 . S
N1763 C1761 1.384 . S
H1764 C1770 0.930 . S
H1765 C1774 0.930 . S
H1766 C1779 0.929 . S
H1767 C1777 0.929 . S
H1768 C1772 0.929 . S
H1769 C1778 0.929 . S
C1770 H1764 0.930 . S
C1770 C1771 1.367 . S
C1770 C1778 1.378 . S
C1771 C1770 1.367 . S
C1771 C1779 1.433 . S
C1772 H1768 0.929 . S
C1772 C1774 1.378 . S
C1772 C1776 1.350 . S
C1773 C1776 1.463 . S
C1773 C1778 1.350 . S
C1773 N1781 1.427 . S
C1774 H1765 0.930 . S
C1774 C1772 1.378 . S
C1774 C1775 1.367 . S
C1775 C1774 1.367 . S
C1775 C1777 1.433 . S
C1776 C1772 1.350 . S
C1776 C1773 1.463 . S
C1776 N1780 1.427 . S
C1777 H1767 0.929 . S
C1777 C1775 1.433 . S
C1777 N1780 1.384 . S
C1778 H1769 0.929 . S
C1778 C1770 1.378 . S
C1778 C1773 1.350 . S
C1779 H1766 0.929 . S
C1779 C1771 1.433 . S
C1779 N1781 1.384 . S
N1780 C1776 1.427 . S
N1780 C1777 1.384 . S
N1781 C1773 1.427 . S
N1781 C1779 1.384 . S
H1782 C1788 0.930 . S
H1783 C1792 0.930 . S
H1784 C1797 0.929 . S
H1785 C1795 0.929 . S
H1786 C1790 0.929 . S
H1787 C1796 0.929 . S
C1788 H1782 0.930 . S
C1788 C1789 1.367 . S
C1788 C1796 1.378 . S
C1789 C1788 1.367 . S
C1789 C1797 1.433 . S
C1790 H1786 0.929 . S
C1790 C1792 1.378 . S
C1790 C1794 1.350 . S
C1791 C1794 1.463 . S
C1791 C1796 1.350 . S
C1791 N1799 1.427 . S
C1792 H1783 0.930 . S
C1792 C1790 1.378 . S
C1792 C1793 1.367 . S
C1793 C1792 1.367 . S
C1793 C1795 1.433 . S
C1794 C1790 1.350 . S
C1794 C1791 1.463 . S
C1794 N1798 1.427 . S
C1795 H1785 0.929 . S
C1795 C1793 1.433 . S
C1795 N1798 1.384 . S
C1796 H1787 0.929 . S
C1796 C1788 1.378 . S
C1796 C1791 1.350 . S
C1797 H1784 0.929 . S
C1797 C1789 1.433 . S
C1797 N1799 1.384 . S
N1798 C1794 1.427 . S
N1798 C1795 1.384 . S
N1799 C1791 1.427 . S
N1799 C1797 1.384 . S
H1800 C1806 0.930 . S
H1801 C1810 0.930 . S
H1802 C1815 0.929 1_554 S
H1803 C1813 0.929 . S
H1804 C1808 0.929 . S
H1805 C1814 0.929 . S
C1806 H1800 0.930 . S
C1806 C1807 1.367 . S
C1806 C1814 1.378 . S
C1807 C1806 1.367 . S
C1807 C1815 1.433 . S
C1808 H1804 0.929 . S
C1808 C1810 1.378 . S
C1808 C1812 1.350 . S
C1809 C1812 1.463 . S
C1809 C1814 1.350 . S
C1809 N1817 1.427 . S
C1810 H1801 0.930 . S
C1810 C1808 1.378 . S
C1810 C1811 1.367 . S
C1811 C1810 1.367 . S
C1811 C1813 1.433 . S
C1812 C1808 1.350 . S
C1812 C1809 1.463 . S
C1812 N1816 1.427 . S
C1813 H1803 0.929 . S
C1813 C1811 1.433 . S
C1813 N1816 1.384 . S
C1814 H1805 0.929 . S
C1814 C1806 1.378 . S
C1814 C1809 1.350 . S
C1815 H1802 0.929 1_556 S
C1815 C1807 1.433 . S
C1815 N1817 1.384 . S
N1816 C1812 1.427 . S
N1816 C1813 1.384 . S
N1817 C1809 1.427 . S
N1817 C1815 1.384 . S
H1818 C1824 0.930 . S
H1819 C1828 0.930 . S
H1820 C1833 0.929 . S
H1821 C1831 0.929 . S
H1822 C1826 0.929 . S
H1823 C1832 0.929 . S
C1824 H1818 0.930 . S
C1824 C1825 1.367 . S
C1824 C1832 1.378 . S
C1825 C1824 1.367 . S
C1825 C1833 1.433 . S
C1826 H1822 0.929 . S
C1826 C1828 1.378 . S
C1826 C1830 1.350 . S
C1827 C1830 1.463 . S
C1827 C1832 1.350 . S
C1827 N1835 1.427 . S
C1828 H1819 0.930 . S
C1828 C1826 1.378 . S
C1828 C1829 1.367 . S
C1829 C1828 1.367 . S
C1829 C1831 1.433 . S
C1830 C1826 1.350 . S
C1830 C1827 1.463 . S
C1830 N1834 1.427 . S
C1831 H1821 0.929 . S
C1831 C1829 1.433 . S
C1831 N1834 1.384 . S
C1832 H1823 0.929 . S
C1832 C1824 1.378 . S
C1832 C1827 1.350 . S
C1833 H1820 0.929 . S
C1833 C1825 1.433 . S
C1833 N1835 1.384 . S
N1834 C1830 1.427 . S
N1834 C1831 1.384 . S
N1835 C1827 1.427 . S
N1835 C1833 1.384 . S
H1836 C1842 0.930 . S
H1837 C1846 0.930 . S
H1838 C1851 0.929 . S
H1839 C1849 0.929 . S
H1840 C1844 0.929 . S
H1841 C1850 0.929 . S
C1842 H1836 0.930 . S
C1842 C1843 1.367 . S
C1842 C1850 1.378 . S
C1843 C1842 1.367 . S
C1843 C1851 1.433 . S
C1844 H1840 0.929 . S
C1844 C1846 1.378 . S
C1844 C1848 1.350 . S
C1845 C1848 1.463 . S
C1845 C1850 1.350 . S
C1845 N1853 1.427 . S
C1846 H1837 0.930 . S
C1846 C1844 1.378 . S
C1846 C1847 1.367 . S
C1847 C1846 1.367 . S
C1847 C1849 1.433 . S
C1848 C1844 1.350 . S
C1848 C1845 1.463 . S
C1848 N1852 1.427 . S
C1849 H1839 0.929 . S
C1849 C1847 1.433 . S
C1849 N1852 1.384 . S
C1850 H1841 0.929 . S
C1850 C1842 1.378 . S
C1850 C1845 1.350 . S
C1851 H1838 0.929 . S
C1851 C1843 1.433 . S
C1851 N1853 1.384 . S
N1852 C1848 1.427 . S
N1852 C1849 1.384 . S
N1853 C1845 1.427 . S
N1853 C1851 1.384 . S
H1854 C1860 0.930 . S
H1855 C1864 0.930 . S
H1856 C1869 0.929 . S
H1857 C1867 0.929 . S
H1858 C1862 0.929 . S
H1859 C1868 0.929 . S
C1860 H1854 0.930 . S
C1860 C1861 1.367 . S
C1860 C1868 1.378 . S
C1861 C1860 1.367 . S
C1861 C1869 1.433 . S
C1862 H1858 0.929 . S
C1862 C1864 1.378 . S
C1862 C1866 1.350 . S
C1863 C1866 1.463 . S
C1863 C1868 1.350 . S
C1863 N1871 1.427 . S
C1864 H1855 0.930 . S
C1864 C1862 1.378 . S
C1864 C1865 1.367 . S
C1865 C1864 1.367 . S
C1865 C1867 1.433 . S
C1866 C1862 1.350 . S
C1866 C1863 1.463 . S
C1866 N1870 1.427 . S
C1867 H1857 0.929 . S
C1867 C1865 1.433 . S
C1867 N1870 1.384 . S
C1868 H1859 0.929 . S
C1868 C1860 1.378 . S
C1868 C1863 1.350 . S
C1869 H1856 0.929 . S
C1869 C1861 1.433 . S
C1869 N1871 1.384 . S
N1870 C1866 1.427 . S
N1870 C1867 1.384 . S
N1871 C1863 1.427 . S
N1871 C1869 1.384 . S
H1872 C1878 0.930 . S
H1873 C1882 0.930 . S
H1874 C1887 0.929 . S
H1875 C1885 0.929 . S
H1876 C1880 0.929 . S
H1877 C1886 0.929 . S
C1878 H1872 0.930 . S
C1878 C1879 1.367 . S
C1878 C1886 1.378 . S
C1879 C1878 1.367 . S
C1879 C1887 1.433 . S
C1880 H1876 0.929 . S
C1880 C1882 1.378 . S
C1880 C1884 1.350 . S
C1881 C1884 1.463 . S
C1881 C1886 1.350 . S
C1881 N1889 1.427 . S
C1882 H1873 0.930 . S
C1882 C1880 1.378 . S
C1882 C1883 1.367 . S
C1883 C1882 1.367 . S
C1883 C1885 1.433 . S
C1884 C1880 1.350 . S
C1884 C1881 1.463 . S
C1884 N1888 1.427 . S
C1885 H1875 0.929 . S
C1885 C1883 1.433 . S
C1885 N1888 1.384 . S
C1886 H1877 0.929 . S
C1886 C1878 1.378 . S
C1886 C1881 1.350 . S
C1887 H1874 0.929 . S
C1887 C1879 1.433 . S
C1887 N1889 1.384 . S
N1888 C1884 1.427 . S
N1888 C1885 1.384 . S
N1889 C1881 1.427 . S
N1889 C1887 1.384 . S
H1890 C1896 0.930 . S
H1891 C1900 0.930 . S
H1892 C1905 0.929 . S
H1893 C1903 0.929 . S
H1894 C1898 0.929 . S
H1895 C1904 0.929 . S
C1896 H1890 0.930 . S
C1896 C1897 1.367 . S
C1896 C1904 1.378 . S
C1897 C1896 1.367 . S
C1897 C1905 1.433 . S
C1898 H1894 0.929 . S
C1898 C1900 1.378 . S
C1898 C1902 1.350 . S
C1899 C1902 1.463 . S
C1899 C1904 1.350 . S
C1899 N1907 1.427 . S
C1900 H1891 0.930 . S
C1900 C1898 1.378 . S
C1900 C1901 1.367 . S
C1901 C1900 1.367 . S
C1901 C1903 1.433 . S
C1902 C1898 1.350 . S
C1902 C1899 1.463 . S
C1902 N1906 1.427 . S
C1903 H1893 0.929 . S
C1903 C1901 1.433 . S
C1903 N1906 1.384 . S
C1904 H1895 0.929 . S
C1904 C1896 1.378 . S
C1904 C1899 1.350 . S
C1905 H1892 0.929 . S
C1905 C1897 1.433 . S
C1905 N1907 1.384 . S
N1906 C1902 1.427 . S
N1906 C1903 1.384 . S
N1907 C1899 1.427 . S
N1907 C1905 1.384 . S
H1908 C1914 0.930 . S
H1909 C1918 0.930 . S
H1910 C1923 0.929 . S
H1911 C1921 0.929 . S
H1912 C1916 0.929 . S
H1913 C1922 0.929 . S
C1914 H1908 0.930 . S
C1914 C1915 1.367 . S
C1914 C1922 1.378 . S
C1915 C1914 1.367 . S
C1915 C1923 1.433 . S
C1916 H1912 0.929 . S
C1916 C1918 1.378 . S
C1916 C1920 1.350 . S
C1917 C1920 1.463 . S
C1917 C1922 1.350 . S
C1917 N1925 1.427 . S
C1918 H1909 0.930 . S
C1918 C1916 1.378 . S
C1918 C1919 1.367 . S
C1919 C1918 1.367 . S
C1919 C1921 1.433 . S
C1920 C1916 1.350 . S
C1920 C1917 1.463 . S
C1920 N1924 1.427 . S
C1921 H1911 0.929 . S
C1921 C1919 1.433 . S
C1921 N1924 1.384 . S
C1922 H1913 0.929 . S
C1922 C1914 1.378 . S
C1922 C1917 1.350 . S
C1923 H1910 0.929 . S
C1923 C1915 1.433 . S
C1923 N1925 1.384 . S
N1924 C1920 1.427 . S
N1924 C1921 1.384 . S
N1925 C1917 1.427 . S
N1925 C1923 1.384 . S
H1926 C1932 0.930 . S
H1927 C1936 0.930 . S
H1928 C1941 0.929 . S
H1929 C1939 0.929 . S
H1930 C1934 0.929 . S
H1931 C1940 0.929 . S
C1932 H1926 0.930 . S
C1932 C1933 1.367 . S
C1932 C1940 1.378 . S
C1933 C1932 1.367 . S
C1933 C1941 1.433 . S
C1934 H1930 0.929 . S
C1934 C1936 1.378 . S
C1934 C1938 1.350 . S
C1935 C1938 1.463 . S
C1935 C1940 1.350 . S
C1935 N1943 1.427 . S
C1936 H1927 0.930 . S
C1936 C1934 1.378 . S
C1936 C1937 1.367 . S
C1937 C1936 1.367 . S
C1937 C1939 1.433 . S
C1938 C1934 1.350 . S
C1938 C1935 1.463 . S
C1938 N1942 1.427 . S
C1939 H1929 0.929 . S
C1939 C1937 1.433 . S
C1939 N1942 1.384 . S
C1940 H1931 0.929 . S
C1940 C1932 1.378 . S
C1940 C1935 1.350 . S
C1941 H1928 0.929 . S
C1941 C1933 1.433 . S
C1941 N1943 1.384 . S
N1942 C1938 1.427 . S
N1942 C1939 1.384 . S
N1943 C1935 1.427 . S
N1943 C1941 1.384 . S
H1944 C1950 0.930 . S
H1945 C1954 0.930 . S
H1946 C1959 0.929 . S
H1947 C1957 0.929 . S
H1948 C1952 0.929 . S
H1949 C1958 0.929 . S
C1950 H1944 0.930 . S
C1950 C1951 1.367 . S
C1950 C1958 1.378 . S
C1951 C1950 1.367 . S
C1951 C1959 1.433 . S
C1952 H1948 0.929 . S
C1952 C1954 1.378 . S
C1952 C1956 1.350 . S
C1953 C1956 1.463 . S
C1953 C1958 1.350 . S
C1953 N1961 1.427 . S
C1954 H1945 0.930 . S
C1954 C1952 1.378 . S
C1954 C1955 1.367 . S
C1955 C1954 1.367 . S
C1955 C1957 1.433 . S
C1956 C1952 1.350 . S
C1956 C1953 1.463 . S
C1956 N1960 1.427 . S
C1957 H1947 0.929 . S
C1957 C1955 1.433 . S
C1957 N1960 1.384 . S
C1958 H1949 0.929 . S
C1958 C1950 1.378 . S
C1958 C1953 1.350 . S
C1959 H1946 0.929 . S
C1959 C1951 1.433 . S
C1959 N1961 1.384 . S
N1960 C1956 1.427 . S
N1960 C1957 1.384 . S
N1961 C1953 1.427 . S
N1961 C1959 1.384 . S
H1962 C1968 0.930 . S
H1963 C1972 0.930 . S
H1964 C1977 0.929 . S
H1965 C1975 0.929 . S
H1966 C1970 0.929 . S
H1967 C1976 0.929 . S
C1968 H1962 0.930 . S
C1968 C1969 1.367 . S
C1968 C1976 1.378 . S
C1969 C1968 1.367 . S
C1969 C1977 1.433 . S
C1970 H1966 0.929 . S
C1970 C1972 1.378 . S
C1970 C1974 1.350 . S
C1971 C1974 1.463 . S
C1971 C1976 1.350 . S
C1971 N1979 1.427 . S
C1972 H1963 0.930 . S
C1972 C1970 1.378 . S
C1972 C1973 1.367 . S
C1973 C1972 1.367 . S
C1973 C1975 1.433 . S
C1974 C1970 1.350 . S
C1974 C1971 1.463 . S
C1974 N1978 1.427 . S
C1975 H1965 0.929 . S
C1975 C1973 1.433 . S
C1975 N1978 1.384 . S
C1976 H1967 0.929 . S
C1976 C1968 1.378 . S
C1976 C1971 1.350 . S
C1977 H1964 0.929 . S
C1977 C1969 1.433 . S
C1977 N1979 1.384 . S
N1978 C1974 1.427 . S
N1978 C1975 1.384 . S
N1979 C1971 1.427 . S
N1979 C1977 1.384 . S
H1980 C1986 0.930 . S
H1981 C1990 0.930 . S
H1982 C1995 0.929 . S
H1983 C1993 0.929 . S
H1984 C1988 0.929 . S
H1985 C1994 0.929 . S
C1986 H1980 0.930 . S
C1986 C1987 1.367 . S
C1986 C1994 1.378 . S
C1987 C1986 1.367 . S
C1987 C1995 1.433 . S
C1988 H1984 0.929 . S
C1988 C1990 1.378 . S
C1988 C1992 1.350 . S
C1989 C1992 1.463 . S
C1989 C1994 1.350 . S
C1989 N1997 1.427 . S
C1990 H1981 0.930 . S
C1990 C1988 1.378 . S
C1990 C1991 1.367 . S
C1991 C1990 1.367 . S
C1991 C1993 1.433 . S
C1992 C1988 1.350 . S
C1992 C1989 1.463 . S
C1992 N1996 1.427 . S
C1993 H1983 0.929 . S
C1993 C1991 1.433 . S
C1993 N1996 1.384 . S
C1994 H1985 0.929 . S
C1994 C1986 1.378 . S
C1994 C1989 1.350 . S
C1995 H1982 0.929 . S
C1995 C1987 1.433 . S
C1995 N1997 1.384 . S
N1996 C1992 1.427 . S
N1996 C1993 1.384 . S
N1997 C1989 1.427 . S
N1997 C1995 1.384 . S
H1998 C2004 0.930 . S
H1999 C2008 0.930 . S
H2000 C2013 0.929 . S
H2001 C2011 0.929 1_655 S
H2002 C2006 0.929 . S
H2003 C2012 0.929 . S
C2004 H1998 0.930 . S
C2004 C2005 1.367 . S
C2004 C2012 1.378 . S
C2005 C2004 1.367 . S
C2005 C2013 1.433 . S
C2006 H2002 0.929 . S
C2006 C2008 1.378 . S
C2006 C2010 1.350 . S
C2007 C2010 1.463 . S
C2007 C2012 1.350 . S
C2007 N2015 1.427 . S
C2008 H1999 0.930 . S
C2008 C2006 1.378 . S
C2008 C2009 1.367 . S
C2009 C2008 1.367 . S
C2009 C2011 1.433 . S
C2010 C2006 1.350 . S
C2010 C2007 1.463 . S
C2010 N2014 1.427 . S
C2011 H2001 0.929 1_455 S
C2011 C2009 1.433 . S
C2011 N2014 1.384 . S
C2012 H2003 0.929 . S
C2012 C2004 1.378 . S
C2012 C2007 1.350 . S
C2013 H2000 0.929 . S
C2013 C2005 1.433 . S
C2013 N2015 1.384 . S
N2014 C2010 1.427 . S
N2014 C2011 1.384 . S
N2015 C2007 1.427 . S
N2015 C2013 1.384 . S
H2016 C2022 0.930 . S
H2017 C2026 0.930 . S
H2018 C2031 0.929 . S
H2019 C2029 0.929 . S
H2020 C2024 0.929 . S
H2021 C2030 0.929 . S
C2022 H2016 0.930 . S
C2022 C2023 1.367 . S
C2022 C2030 1.378 . S
C2023 C2022 1.367 . S
C2023 C2031 1.433 . S
C2024 H2020 0.929 . S
C2024 C2026 1.378 . S
C2024 C2028 1.350 . S
C2025 C2028 1.463 . S
C2025 C2030 1.350 . S
C2025 N2033 1.427 . S
C2026 H2017 0.930 . S
C2026 C2024 1.378 . S
C2026 C2027 1.367 . S
C2027 C2026 1.367 . S
C2027 C2029 1.433 . S
C2028 C2024 1.350 . S
C2028 C2025 1.463 . S
C2028 N2032 1.427 . S
C2029 H2019 0.929 . S
C2029 C2027 1.433 . S
C2029 N2032 1.384 . S
C2030 H2021 0.929 . S
C2030 C2022 1.378 . S
C2030 C2025 1.350 . S
C2031 H2018 0.929 . S
C2031 C2023 1.433 . S
C2031 N2033 1.384 . S
N2032 C2028 1.427 . S
N2032 C2029 1.384 . S
N2033 C2025 1.427 . S
N2033 C2031 1.384 . S
H2034 C2040 0.930 . S
H2035 C2044 0.930 . S
H2036 C2049 0.929 . S
H2037 C2047 0.929 . S
H2038 C2042 0.929 . S
H2039 C2048 0.929 . S
C2040 H2034 0.930 . S
C2040 C2041 1.367 1_545 S
C2040 C2048 1.378 . S
C2041 C2040 1.367 1_565 S
C2041 C2049 1.433 . S
C2042 H2038 0.929 . S
C2042 C2044 1.378 . S
C2042 C2046 1.350 . S
C2043 C2046 1.463 . S
C2043 C2048 1.350 1_565 S
C2043 N2051 1.427 . S
C2044 H2035 0.930 . S
C2044 C2042 1.378 . S
C2044 C2045 1.367 . S
C2045 C2044 1.367 . S
C2045 C2047 1.433 1_565 S
C2046 C2042 1.350 . S
C2046 C2043 1.463 . S
C2046 N2050 1.427 1_565 S
C2047 H2037 0.929 . S
C2047 C2045 1.433 1_545 S
C2047 N2050 1.384 . S
C2048 H2039 0.929 . S
C2048 C2040 1.378 . S
C2048 C2043 1.350 1_545 S
C2049 H2036 0.929 . S
C2049 C2041 1.433 . S
C2049 N2051 1.384 . S
N2050 C2046 1.427 1_545 S
N2050 C2047 1.384 . S
N2051 C2043 1.427 . S
N2051 C2049 1.384 . S
H2052 C2058 0.930 1_545 S
H2053 C2062 0.930 . S
H2054 C2067 0.929 . S
H2055 C2065 0.929 . S
H2056 C2060 0.929 . S
H2057 C2066 0.924 1_545 S
C2058 H2052 0.930 1_565 S
C2058 C2059 1.367 . S
C2058 C2066 1.380 . S
C2059 C2058 1.367 . S
C2059 C2067 1.433 . S
C2060 H2056 0.929 . S
C2060 C2062 1.378 . S
C2060 C2064 1.350 . S
C2061 C2064 1.463 . S
C2061 C2066 1.352 . S
C2061 N2069 1.427 . S
C2062 H2053 0.930 . S
C2062 C2060 1.378 . S
C2062 C2063 1.367 . S
C2063 C2062 1.367 . S
C2063 C2065 1.433 1_565 S
C2064 C2060 1.350 . S
C2064 C2061 1.463 . S
C2064 N2068 1.427 1_565 S
C2065 H2055 0.929 . S
C2065 C2063 1.433 1_545 S
C2065 N2068 1.384 . S
C2066 H2057 0.924 1_565 S
C2066 C2058 1.380 . S
C2066 C2061 1.352 . S
C2067 H2054 0.929 . S
C2067 C2059 1.433 . S
C2067 N2069 1.384 . S
N2068 C2064 1.427 1_545 S
N2068 C2065 1.384 . S
N2069 C2061 1.427 . S
N2069 C2067 1.384 . S
H2070 C2076 0.930 . S
H2071 C2080 0.935 1_655 S
H2072 C2085 0.929 . S
H2073 C2083 0.929 . S
H2074 C2078 0.929 . S
H2075 C2084 0.929 . S
C2076 H2070 0.930 . S
C2076 C2077 1.367 . S
C2076 C2084 1.378 . S
C2077 C2076 1.367 . S
C2077 C2085 1.433 . S
C2078 H2074 0.929 . S
C2078 C2080 1.369 . S
C2078 C2082 1.350 . S
C2079 C2082 1.463 . S
C2079 C2084 1.350 . S
C2079 N2087 1.427 . S
C2080 H2071 0.935 1_455 S
C2080 C2078 1.369 . S
C2080 C2081 1.372 . S
C2081 C2080 1.372 . S
C2081 C2083 1.433 . S
C2082 C2078 1.350 . S
C2082 C2079 1.463 . S
C2082 N2086 1.427 . S
C2083 H2073 0.929 . S
C2083 C2081 1.433 . S
C2083 N2086 1.384 . S
C2084 H2075 0.929 . S
C2084 C2076 1.378 . S
C2084 C2079 1.350 . S
C2085 H2072 0.929 . S
C2085 C2077 1.433 . S
C2085 N2087 1.384 . S
N2086 C2082 1.427 . S
N2086 C2083 1.384 . S
N2087 C2079 1.427 . S
N2087 C2085 1.384 . S
H2088 C2094 0.930 . S
H2089 C2098 0.930 . S
H2090 C2103 0.929 . S
H2091 C2101 0.929 . S
H2092 C2096 0.929 . S
H2093 C2102 0.929 . S
C2094 H2088 0.930 . S
C2094 C2095 1.367 . S
C2094 C2102 1.378 . S
C2095 C2094 1.367 . S
C2095 C2103 1.433 . S
C2096 H2092 0.929 . S
C2096 C2098 1.378 . S
C2096 C2100 1.350 . S
C2097 C2100 1.463 . S
C2097 C2102 1.350 . S
C2097 N2105 1.427 . S
C2098 H2089 0.930 . S
C2098 C2096 1.378 . S
C2098 C2099 1.367 . S
C2099 C2098 1.367 . S
C2099 C2101 1.433 . S
C2100 C2096 1.350 . S
C2100 C2097 1.463 . S
C2100 N2104 1.427 . S
C2101 H2091 0.929 . S
C2101 C2099 1.433 . S
C2101 N2104 1.384 . S
C2102 H2093 0.929 . S
C2102 C2094 1.378 . S
C2102 C2097 1.350 . S
C2103 H2090 0.929 . S
C2103 C2095 1.433 . S
C2103 N2105 1.384 . S
N2104 C2100 1.427 . S
N2104 C2101 1.384 . S
N2105 C2097 1.427 . S
N2105 C2103 1.384 . S
H2106 C2112 0.930 . S
H2107 C2116 0.930 . S
H2108 C2121 0.929 . S
H2109 C2119 0.929 . S
H2110 C2114 0.929 . S
H2111 C2120 0.929 . S
C2112 H2106 0.930 . S
C2112 C2113 1.367 . S
C2112 C2120 1.378 . S
C2113 C2112 1.367 . S
C2113 C2121 1.433 . S
C2114 H2110 0.929 . S
C2114 C2116 1.378 . S
C2114 C2118 1.350 . S
C2115 C2118 1.463 . S
C2115 C2120 1.350 . S
C2115 N2123 1.427 . S
C2116 H2107 0.930 . S
C2116 C2114 1.378 . S
C2116 C2117 1.367 . S
C2117 C2116 1.367 . S
C2117 C2119 1.433 . S
C2118 C2114 1.350 . S
C2118 C2115 1.463 . S
C2118 N2122 1.427 . S
C2119 H2109 0.929 . S
C2119 C2117 1.433 . S
C2119 N2122 1.384 . S
C2120 H2111 0.929 . S
C2120 C2112 1.378 . S
C2120 C2115 1.350 . S
C2121 H2108 0.929 . S
C2121 C2113 1.433 . S
C2121 N2123 1.384 . S
N2122 C2118 1.427 . S
N2122 C2119 1.384 . S
N2123 C2115 1.427 . S
N2123 C2121 1.384 . S
H2124 C2130 0.930 . S
H2125 C2134 0.930 . S
H2126 C2139 0.929 . S
H2127 C2137 0.929 . S
H2128 C2132 0.929 . S
H2129 C2138 0.929 . S
C2130 H2124 0.930 . S
C2130 C2131 1.367 . S
C2130 C2138 1.378 . S
C2131 C2130 1.367 . S
C2131 C2139 1.433 . S
C2132 H2128 0.929 . S
C2132 C2134 1.378 . S
C2132 C2136 1.350 . S
C2133 C2136 1.463 . S
C2133 C2138 1.350 . S
C2133 N2141 1.427 . S
C2134 H2125 0.930 . S
C2134 C2132 1.378 . S
C2134 C2135 1.367 . S
C2135 C2134 1.367 . S
C2135 C2137 1.433 . S
C2136 C2132 1.350 . S
C2136 C2133 1.463 . S
C2136 N2140 1.427 . S
C2137 H2127 0.929 . S
C2137 C2135 1.433 . S
C2137 N2140 1.384 . S
C2138 H2129 0.929 . S
C2138 C2130 1.378 . S
C2138 C2133 1.350 . S
C2139 H2126 0.929 . S
C2139 C2131 1.433 . S
C2139 N2141 1.384 . S
N2140 C2136 1.427 . S
N2140 C2137 1.384 . S
N2141 C2133 1.427 . S
N2141 C2139 1.384 . S
H2142 C2148 0.930 . S
H2143 C2152 0.930 . S
H2144 C2157 0.929 . S
H2145 C2155 0.929 . S
H2146 C2150 0.929 . S
H2147 C2156 0.929 . S
C2148 H2142 0.930 . S
C2148 C2149 1.367 . S
C2148 C2156 1.378 . S
C2149 C2148 1.367 . S
C2149 C2157 1.433 . S
C2150 H2146 0.929 . S
C2150 C2152 1.378 . S
C2150 C2154 1.350 . S
C2151 C2154 1.463 . S
C2151 C2156 1.350 . S
C2151 N2159 1.427 . S
C2152 H2143 0.930 . S
C2152 C2150 1.378 . S
C2152 C2153 1.367 . S
C2153 C2152 1.367 . S
C2153 C2155 1.433 . S
C2154 C2150 1.350 . S
C2154 C2151 1.463 . S
C2154 N2158 1.427 . S
C2155 H2145 0.929 . S
C2155 C2153 1.433 . S
C2155 N2158 1.384 . S
C2156 H2147 0.929 . S
C2156 C2148 1.378 . S
C2156 C2151 1.350 . S
C2157 H2144 0.929 . S
C2157 C2149 1.433 . S
C2157 N2159 1.384 . S
N2158 C2154 1.427 . S
N2158 C2155 1.384 . S
N2159 C2151 1.427 . S
N2159 C2157 1.384 . S
H2160 C2166 0.930 . S
H2161 C2170 0.930 . S
H2162 C2175 0.929 . S
H2163 C2173 0.929 . S
H2164 C2168 0.929 . S
H2165 C2174 0.929 . S
C2166 H2160 0.930 . S
C2166 C2167 1.367 . S
C2166 C2174 1.378 . S
C2167 C2166 1.367 . S
C2167 C2175 1.433 . S
C2168 H2164 0.929 . S
C2168 C2170 1.378 . S
C2168 C2172 1.350 . S
C2169 C2172 1.463 . S
C2169 C2174 1.350 . S
C2169 N2177 1.427 . S
C2170 H2161 0.930 . S
C2170 C2168 1.378 . S
C2170 C2171 1.367 . S
C2171 C2170 1.367 . S
C2171 C2173 1.433 1_545 S
C2172 C2168 1.350 . S
C2172 C2169 1.463 . S
C2172 N2176 1.427 . S
C2173 H2163 0.929 . S
C2173 C2171 1.433 1_565 S
C2173 N2176 1.384 1_565 S
C2174 H2165 0.929 . S
C2174 C2166 1.378 . S
C2174 C2169 1.350 . S
C2175 H2162 0.929 . S
C2175 C2167 1.433 . S
C2175 N2177 1.384 . S
N2176 C2172 1.427 . S
N2176 C2173 1.384 1_545 S
N2177 C2169 1.427 . S
N2177 C2175 1.384 . S
H2178 C2184 0.925 1_455 S
H2179 C2188 0.930 . S
H2180 C2193 0.929 . S
H2181 C2191 0.929 . S
H2182 C2186 0.929 . S
H2183 C2192 0.929 1_455 S
C2184 H2178 0.925 1_655 S
C2184 C2185 1.367 . S
C2184 C2192 1.378 . S
C2185 C2184 1.367 . S
C2185 C2193 1.433 . S
C2186 H2182 0.929 . S
C2186 C2188 1.378 . S
C2186 C2190 1.350 . S
C2187 C2190 1.463 . S
C2187 C2192 1.350 . S
C2187 N2195 1.427 . S
C2188 H2179 0.930 . S
C2188 C2186 1.378 . S
C2188 C2189 1.367 . S
C2189 C2188 1.367 . S
C2189 C2191 1.433 1_655 S
C2190 C2186 1.350 . S
C2190 C2187 1.463 . S
C2190 N2194 1.427 1_655 S
C2191 H2181 0.929 . S
C2191 C2189 1.433 1_455 S
C2191 N2194 1.384 . S
C2192 H2183 0.929 1_655 S
C2192 C2184 1.378 . S
C2192 C2187 1.350 . S
C2193 H2180 0.929 . S
C2193 C2185 1.433 . S
C2193 N2195 1.384 . S
N2194 C2190 1.427 1_455 S
N2194 C2191 1.384 . S
N2195 C2187 1.427 . S
N2195 C2193 1.384 . S
H2196 C2202 0.930 . S
H2197 C2206 0.930 . S
H2198 C2211 0.929 . S
H2199 C2209 0.929 . S
H2200 C2204 0.929 . S
H2201 C2210 0.929 . S
C2202 H2196 0.930 . S
C2202 C2203 1.367 . S
C2202 C2210 1.378 . S
C2203 C2202 1.367 . S
C2203 C2211 1.433 . S
C2204 H2200 0.929 . S
C2204 C2206 1.378 . S
C2204 C2208 1.350 . S
C2205 C2208 1.463 . S
C2205 C2210 1.350 . S
C2205 N2213 1.427 . S
C2206 H2197 0.930 . S
C2206 C2204 1.378 . S
C2206 C2207 1.367 . S
C2207 C2206 1.367 . S
C2207 C2209 1.433 . S
C2208 C2204 1.350 . S
C2208 C2205 1.463 . S
C2208 N2212 1.427 . S
C2209 H2199 0.929 . S
C2209 C2207 1.433 . S
C2209 N2212 1.384 . S
C2210 H2201 0.929 . S
C2210 C2202 1.378 . S
C2210 C2205 1.350 . S
C2211 H2198 0.929 . S
C2211 C2203 1.433 . S
C2211 N2213 1.384 . S
N2212 C2208 1.427 . S
N2212 C2209 1.384 . S
N2213 C2205 1.427 . S
N2213 C2211 1.384 . S
H2214 C2220 0.930 . S
H2215 C2224 0.930 . S
H2216 C2229 0.929 . S
H2217 C2227 0.929 . S
H2218 C2222 0.929 . S
H2219 C2228 0.929 . S
C2220 H2214 0.930 . S
C2220 C2221 1.367 . S
C2220 C2228 1.378 . S
C2221 C2220 1.367 . S
C2221 C2229 1.433 . S
C2222 H2218 0.929 . S
C2222 C2224 1.378 . S
C2222 C2226 1.350 . S
C2223 C2226 1.463 . S
C2223 C2228 1.350 . S
C2223 N2231 1.427 . S
C2224 H2215 0.930 . S
C2224 C2222 1.378 . S
C2224 C2225 1.367 . S
C2225 C2224 1.367 . S
C2225 C2227 1.433 . S
C2226 C2222 1.350 . S
C2226 C2223 1.463 . S
C2226 N2230 1.427 . S
C2227 H2217 0.929 . S
C2227 C2225 1.433 . S
C2227 N2230 1.384 . S
C2228 H2219 0.929 . S
C2228 C2220 1.378 . S
C2228 C2223 1.350 . S
C2229 H2216 0.929 . S
C2229 C2221 1.433 . S
C2229 N2231 1.384 . S
N2230 C2226 1.427 . S
N2230 C2227 1.384 . S
N2231 C2223 1.427 . S
N2231 C2229 1.384 . S
H2232 C2238 0.930 . S
H2233 C2242 0.930 . S
H2234 C2247 0.929 . S
H2235 C2245 0.929 . S
H2236 C2240 0.929 . S
H2237 C2246 0.929 . S
C2238 H2232 0.930 . S
C2238 C2239 1.367 . S
C2238 C2246 1.378 . S
C2239 C2238 1.367 . S
C2239 C2247 1.433 . S
C2240 H2236 0.929 . S
C2240 C2242 1.378 . S
C2240 C2244 1.350 . S
C2241 C2244 1.463 . S
C2241 C2246 1.350 . S
C2241 N2249 1.427 . S
C2242 H2233 0.930 . S
C2242 C2240 1.378 . S
C2242 C2243 1.367 . S
C2243 C2242 1.367 . S
C2243 C2245 1.433 . S
C2244 C2240 1.350 . S
C2244 C2241 1.463 . S
C2244 N2248 1.427 . S
C2245 H2235 0.929 . S
C2245 C2243 1.433 . S
C2245 N2248 1.384 . S
C2246 H2237 0.929 . S
C2246 C2238 1.378 . S
C2246 C2241 1.350 . S
C2247 H2234 0.929 . S
C2247 C2239 1.433 . S
C2247 N2249 1.384 . S
N2248 C2244 1.427 . S
N2248 C2245 1.384 . S
N2249 C2241 1.427 . S
N2249 C2247 1.384 . S
H2250 C2256 0.930 . S
H2251 C2260 0.930 . S
H2252 C2265 0.929 . S
H2253 C2263 0.929 . S
H2254 C2258 0.929 . S
H2255 C2264 0.929 . S
C2256 H2250 0.930 . S
C2256 C2257 1.367 . S
C2256 C2264 1.378 . S
C2257 C2256 1.367 . S
C2257 C2265 1.433 . S
C2258 H2254 0.929 . S
C2258 C2260 1.378 . S
C2258 C2262 1.350 . S
C2259 C2262 1.463 . S
C2259 C2264 1.350 . S
C2259 N2267 1.427 . S
C2260 H2251 0.930 . S
C2260 C2258 1.378 . S
C2260 C2261 1.367 . S
C2261 C2260 1.367 . S
C2261 C2263 1.433 . S
C2262 C2258 1.350 . S
C2262 C2259 1.463 . S
C2262 N2266 1.427 . S
C2263 H2253 0.929 . S
C2263 C2261 1.433 . S
C2263 N2266 1.384 . S
C2264 H2255 0.929 . S
C2264 C2256 1.378 . S
C2264 C2259 1.350 . S
C2265 H2252 0.929 . S
C2265 C2257 1.433 . S
C2265 N2267 1.384 . S
N2266 C2262 1.427 . S
N2266 C2263 1.384 . S
N2267 C2259 1.427 . S
N2267 C2265 1.384 . S
H2268 C2274 0.930 . S
H2269 C2278 0.930 . S
H2270 C2283 0.929 . S
H2271 C2281 0.929 . S
H2272 C2276 0.929 . S
H2273 C2282 0.929 . S
C2274 H2268 0.930 . S
C2274 C2275 1.367 . S
C2274 C2282 1.378 . S
C2275 C2274 1.367 . S
C2275 C2283 1.433 . S
C2276 H2272 0.929 . S
C2276 C2278 1.378 . S
C2276 C2280 1.350 . S
C2277 C2280 1.463 . S
C2277 C2282 1.350 . S
C2277 N2285 1.427 . S
C2278 H2269 0.930 . S
C2278 C2276 1.378 . S
C2278 C2279 1.367 . S
C2279 C2278 1.367 . S
C2279 C2281 1.433 . S
C2280 C2276 1.350 . S
C2280 C2277 1.463 . S
C2280 N2284 1.427 . S
C2281 H2271 0.929 . S
C2281 C2279 1.433 . S
C2281 N2284 1.384 . S
C2282 H2273 0.929 . S
C2282 C2274 1.378 . S
C2282 C2277 1.350 . S
C2283 H2270 0.929 . S
C2283 C2275 1.433 . S
C2283 N2285 1.384 . S
N2284 C2280 1.427 . S
N2284 C2281 1.384 . S
N2285 C2277 1.427 . S
N2285 C2283 1.384 . S
H2286 C2292 0.930 . S
H2287 C2296 0.930 . S
H2288 C2301 0.929 . S
H2289 C2299 0.929 . S
H2290 C2294 0.929 . S
H2291 C2300 0.929 . S
C2292 H2286 0.930 . S
C2292 C2293 1.367 . S
C2292 C2300 1.378 . S
C2293 C2292 1.367 . S
C2293 C2301 1.433 . S
C2294 H2290 0.929 . S
C2294 C2296 1.378 . S
C2294 C2298 1.350 . S
C2295 C2298 1.463 . S
C2295 C2300 1.350 . S
C2295 N2303 1.427 . S
C2296 H2287 0.930 . S
C2296 C2294 1.378 . S
C2296 C2297 1.367 . S
C2297 C2296 1.367 . S
C2297 C2299 1.433 . S
C2298 C2294 1.350 . S
C2298 C2295 1.463 . S
C2298 N2302 1.427 . S
C2299 H2289 0.929 . S
C2299 C2297 1.433 . S
C2299 N2302 1.384 . S
C2300 H2291 0.929 . S
C2300 C2292 1.378 . S
C2300 C2295 1.350 . S
C2301 H2288 0.929 . S
C2301 C2293 1.433 . S
C2301 N2303 1.384 . S
N2302 C2298 1.427 . S
N2302 C2299 1.384 . S
N2303 C2295 1.427 . S
N2303 C2301 1.384 . S
H2304 C2310 0.930 . S
H2305 C2314 0.930 . S
H2306 C2319 0.929 . S
H2307 C2317 0.929 . S
H2308 C2312 0.929 . S
H2309 C2318 0.929 . S
C2310 H2304 0.930 . S
C2310 C2311 1.367 . S
C2310 C2318 1.378 . S
C2311 C2310 1.367 . S
C2311 C2319 1.433 . S
C2312 H2308 0.929 . S
C2312 C2314 1.378 . S
C2312 C2316 1.350 . S
C2313 C2316 1.463 . S
C2313 C2318 1.350 . S
C2313 N2321 1.427 . S
C2314 H2305 0.930 . S
C2314 C2312 1.378 . S
C2314 C2315 1.367 . S
C2315 C2314 1.367 . S
C2315 C2317 1.433 . S
C2316 C2312 1.350 . S
C2316 C2313 1.463 . S
C2316 N2320 1.427 . S
C2317 H2307 0.929 . S
C2317 C2315 1.433 . S
C2317 N2320 1.384 . S
C2318 H2309 0.929 . S
C2318 C2310 1.378 . S
C2318 C2313 1.350 . S
C2319 H2306 0.929 . S
C2319 C2311 1.433 . S
C2319 N2321 1.384 . S
N2320 C2316 1.427 . S
N2320 C2317 1.384 . S
N2321 C2313 1.427 . S
N2321 C2319 1.384 . S
H2322 C2328 0.930 . S
H2323 C2332 0.930 . S
H2324 C2337 0.929 . S
H2325 C2335 0.929 . S
H2326 C2330 0.923 1_455 S
H2327 C2336 0.929 . S
C2328 H2322 0.930 . S
C2328 C2329 1.367 . S
C2328 C2336 1.378 . S
C2329 C2328 1.367 . S
C2329 C2337 1.433 . S
C2330 H2326 0.923 1_655 S
C2330 C2332 1.365 1_655 S
C2330 C2334 1.369 . S
C2331 C2334 1.463 . S
C2331 C2336 1.350 . S
C2331 N2339 1.427 . S
C2332 H2323 0.930 . S
C2332 C2330 1.365 1_455 S
C2332 C2333 1.367 1_455 S
C2333 C2332 1.367 1_655 S
C2333 C2335 1.433 . S
C2334 C2330 1.369 . S
C2334 C2331 1.463 . S
C2334 N2338 1.427 . S
C2335 H2325 0.929 . S
C2335 C2333 1.433 . S
C2335 N2338 1.384 . S
C2336 H2327 0.929 . S
C2336 C2328 1.378 . S
C2336 C2331 1.350 . S
C2337 H2324 0.929 . S
C2337 C2329 1.433 . S
C2337 N2339 1.384 . S
N2338 C2334 1.427 . S
N2338 C2335 1.384 . S
N2339 C2331 1.427 . S
N2339 C2337 1.384 . S
H2340 C2346 0.930 . S
H2341 C2350 0.930 . S
H2342 C2355 0.929 . S
H2343 C2353 0.929 . S
H2344 C2348 0.929 . S
H2345 C2354 0.929 . S
C2346 H2340 0.930 . S
C2346 C2347 1.367 . S
C2346 C2354 1.378 . S
C2347 C2346 1.367 . S
C2347 C2355 1.433 . S
C2348 H2344 0.929 . S
C2348 C2350 1.378 . S
C2348 C2352 1.350 . S
C2349 C2352 1.463 . S
C2349 C2354 1.350 . S
C2349 N2357 1.427 . S
C2350 H2341 0.930 . S
C2350 C2348 1.378 . S
C2350 C2351 1.367 . S
C2351 C2350 1.367 . S
C2351 C2353 1.433 . S
C2352 C2348 1.350 . S
C2352 C2349 1.463 . S
C2352 N2356 1.427 . S
C2353 H2343 0.929 . S
C2353 C2351 1.433 . S
C2353 N2356 1.384 . S
C2354 H2345 0.929 . S
C2354 C2346 1.378 . S
C2354 C2349 1.350 . S
C2355 H2342 0.929 . S
C2355 C2347 1.433 . S
C2355 N2357 1.384 . S
N2356 C2352 1.427 . S
N2356 C2353 1.384 . S
N2357 C2349 1.427 . S
N2357 C2355 1.384 . S
H2358 C2364 0.863 1_565 S
H2359 C2368 0.930 . S
H2360 C2373 0.929 . S
H2361 C2371 0.929 . S
H2362 C2366 0.929 . S
H2363 C2372 0.929 . S
C2364 H2358 0.863 1_545 S
C2364 C2365 1.413 . S
C2364 C2372 1.403 1_545 S
C2365 C2364 1.413 . S
C2365 C2373 1.433 . S
C2366 H2362 0.929 . S
C2366 C2368 1.378 . S
C2366 C2370 1.350 . S
C2367 C2370 1.463 . S
C2367 C2372 1.350 1_545 S
C2367 N2375 1.427 . S
C2368 H2359 0.930 . S
C2368 C2366 1.378 . S
C2368 C2369 1.367 . S
C2369 C2368 1.367 . S
C2369 C2371 1.433 1_545 S
C2370 C2366 1.350 . S
C2370 C2367 1.463 . S
C2370 N2374 1.427 1_545 S
C2371 H2361 0.929 . S
C2371 C2369 1.433 1_565 S
C2371 N2374 1.384 . S
C2372 H2363 0.929 . S
C2372 C2364 1.403 1_565 S
C2372 C2367 1.350 1_565 S
C2373 H2360 0.929 . S
C2373 C2365 1.433 . S
C2373 N2375 1.384 . S
N2374 C2370 1.427 1_565 S
N2374 C2371 1.384 . S
N2375 C2367 1.427 . S
N2375 C2373 1.384 . S
C1087 C4 1.420 . S
C1091 C688 1.464 . S
C1105 C26 1.544 . S
C1109 C734 1.538 . S
C1127 C766 1.416 . S
C1123 C32 1.367 . S
C1141 C40 1.385 . S
C1145 C819 1.416 . S
C1159 C12 1.439 . S
C1163 C865 1.475 . S
C1177 C18 1.474 . S
C1181 C904 1.511 . S
C1195 C46 1.401 . S
C1199 C858 1.450 . S
C1217 C911 1.542 . S
C1213 C68 1.539 . S
C1235 C812 1.431 . S
C1231 C74 1.390 . S
C1249 C82 1.391 . S
C1253 C773 1.412 . S
C1271 C667 1.478 . S
C1267 C54 1.461 . S
C1285 C60 1.465 . S
C1289 C713 1.495 . S
C1303 C88 1.603 . S
C1307 C943 1.638 . S
C1321 C110 1.620 . S
C1325 C1010 1.594 . S
C1343 C1056 1.586 . S
C1339 C116 1.551 . S
C1357 C124 1.472 . S
C1361 C267 1.457 . S
C1375 C96 1.551 . S
C1379 C313 1.539 . S
C1393 C102 1.512 . S
C1397 C359 1.537 . S
C1411 C130 1.514 . S
C1415 C306 1.533 . S
C1429 C152 1.609 . S
C1433 C352 1.593 . S
C1451 C260 1.581 . S
C1447 C158 1.558 . S
C1469 C1035 1.546 . S
C1465 C166 1.555 . S
C1487 C964 1.528 . S
C1483 C138 1.533 . S
C1505 C989 1.578 . S
C1501 C144 1.558 . S
C1519 C172 1.526 . S
C1523 C391 1.556 . S
C1537 C194 1.606 . S
C1541 C444 1.597 . S
C1555 C200 1.553 . S
C1559 C490 1.594 . S
C1573 C208 1.547 . S
C1577 C536 1.540 . S
C1595 C589 1.527 . S
C1591 C180 1.542 . S
C1613 C635 1.573 . S
C1609 C186 1.542 . S
C1631 C582 1.632 . S
C1627 C214 1.601 . S
C1649 C628 1.597 . S
C1645 C236 1.619 . S
C1663 C242 1.540 . S
C1667 C543 1.580 . S
C1685 C497 1.462 . S
C1681 C250 1.467 . S
C1699 C222 1.556 . S
C1703 C412 1.553 . S
C1721 C451 1.555 . S
C1717 C228 1.524 . S
C1739 C274 1.540 . S
C1735 C5 1.325 . S
C1753 C25 1.470 . S
C1757 C320 1.442 . S
C1775 C366 1.570 . S
C1771 C33 1.363 . S
C1793 C398 1.440 . S
C1789 C39 1.452 . S
C1811 C437 1.496 . S
C1807 C11 1.523 . S
C1829 C483 1.435 . S
C1825 C19 1.229 . S
C1843 C47 1.355 1_556 S
C1847 C504 1.557 . S
C1861 C67 1.465 . S
C1865 C405 1.424 . S
C1879 C75 1.381 1_556 S
C1883 C458 1.562 . S
C1897 C81 1.462 . S
C1901 C299 1.465 . S
C1919 C345 1.490 . S
C1915 C53 1.511 . S
C1933 C61 1.229 . S
C1937 C253 1.439 . S
C1955 C529 1.473 . S
C1951 C89 1.273 . S
C1969 C109 1.560 . S
C1973 C596 1.535 . S
C1987 C117 1.328 . S
C1991 C642 1.545 . S
C2009 C681 1.240 . S
C2005 C123 1.215 . S
C2023 C95 1.440 . S
C2027 C727 1.428 . S
C2041 C103 1.085 . S
C2045 C759 1.254 . S
C2059 C131 1.079 . S
C2063 C780 1.246 . S
C2077 C151 1.243 . S
C2081 C674 1.264 . S
C2099 C720 1.459 . S
C2095 C159 1.235 . S
C2113 C165 1.425 . S
C2117 C575 1.420 . S
C2131 C137 1.536 . S
C2135 C621 1.510 . S
C2153 C550 1.517 . S
C2149 C145 1.307 . S
C2171 C826 1.270 . S
C2167 C173 1.088 . S
C2185 C193 1.227 . S
C2189 C872 1.247 . S
C2203 C201 1.229 . S
C2207 C897 1.439 . S
C2225 C950 1.387 . S
C2221 C207 1.419 . S
C2243 C1003 1.532 . S
C2239 C179 1.550 . S
C2257 C187 1.298 . S
C2261 C1049 1.530 . S
C2275 C215 1.261 . S
C2279 C1042 1.498 . S
C2293 C235 1.555 . S
C2297 C957 1.517 . S
C2315 C996 1.545 . S
C2311 C243 1.323 . S
C2333 C851 1.222 . S
C2329 C249 1.191 . S
C2351 C918 1.425 . S
C2347 C221 1.442 . S
C2365 C229 1.107 . S
C2369 C805 1.264 . S
