# Generated by pormake.
# Topology tsx, (6,3)-cn, num edge types: 1
# Building blocks:
#     Node 0, Type 0, BuildingBlock: JUFBIX_clean_sbu_0, # of connection points: 6
#     Node 1, Type 0, BuildingBlock: JUFBIX_clean_sbu_0, # of connection points: 6
#     Node 2, Type 1, BuildingBlock: QEWDON_clean_linker_0, # of connection points: 3
#     Node 3, Type 1, BuildingBlock: QEWDON_clean_linker_0, # of connection points: 3
#     Node 4, Type 1, BuildingBlock: QEWDON_clean_linker_0, # of connection points: 3
#     Node 5, Type 1, BuildingBlock: QEWDON_clean_linker_0, # of connection points: 3
#     Edge 6, Type (0, 1), BuildingBlock: FUNLAD_clean_linker_1, # of connection points: 2
#     Edge 7, Type (0, 1), BuildingBlock: FUNLAD_clean_linker_1, # of connection points: 2
#     Edge 8, Type (0, 1), BuildingBlock: FUNLAD_clean_linker_1, # of connection points: 2
#     Edge 9, Type (0, 1), BuildingBlock: FUNLAD_clean_linker_1, # of connection points: 2
#     Edge 10, Type (0, 1), BuildingBlock: FUNLAD_clean_linker_1, # of connection points: 2
#     Edge 11, Type (0, 1), BuildingBlock: FUNLAD_clean_linker_1, # of connection points: 2
#     Edge 12, Type (0, 1), BuildingBlock: FUNLAD_clean_linker_1, # of connection points: 2
#     Edge 13, Type (0, 1), BuildingBlock: FUNLAD_clean_linker_1, # of connection points: 2
#     Edge 14, Type (0, 1), BuildingBlock: FUNLAD_clean_linker_1, # of connection points: 2
#     Edge 15, Type (0, 1), BuildingBlock: FUNLAD_clean_linker_1, # of connection points: 2
#     Edge 16, Type (0, 1), BuildingBlock: FUNLAD_clean_linker_1, # of connection points: 2
#     Edge 17, Type (0, 1), BuildingBlock: FUNLAD_clean_linker_1, # of connection points: 2
# Relax obj value: 0.110
# Max RMSD: 0.170
# Mean RMSD: 0.146
data_MOF--net-tsx--node1-JUFBIX_clean_sbu_0--node2-QEWDON_clean_linker_0--edge1-FUNLAD_clean_linker_1
_symmetry_space_group_name_H-M    P1
_symmetry_Int_Tables_number       1
_symmetry_cell_setting            triclinic
loop_
_symmetry_equiv_pos_as_xyz
'x, y, z'
_cell_length_a     22.615137
_cell_length_b     26.564445
_cell_length_c     33.335172
_cell_angle_alpha  91.288648
_cell_angle_beta   105.081
_cell_angle_gamma 99.382551
loop_
_atom_site_label
_atom_site_type_symbol
_atom_site_fract_x
_atom_site_fract_y
_atom_site_fract_z
_atom_type_partial_charge
Co0 Co 0.07792 0.95859 0.00967 0.0
C1 C 0.01536 0.99628 0.935 0.0
Co2 Co 0.01393 0.01146 0.01545 0.0
C3 C 0.18681 0.9098 0.02172 0.0
C4 C 0.11276 0.87772 0.96866 0.0
N5 N 0.1286 0.91421 0.00018 0.0
N6 N 0.20764 0.87178 0.00494 0.0
C7 C 0.16111 0.85167 0.9714 0.0
H8 H 0.21327 0.93374 0.04932 0.0
H9 H 0.06867 0.87048 0.94513 0.0
C10 C 0.07736 0.97417 0.09036 0.0
N11 N 0.96136 0.05438 0.02531 0.0
C12 C 0.94309 0.09537 0.00558 0.0
C13 C 0.93047 0.04829 0.05499 0.0
N14 N 0.9028 0.11521 0.02225 0.0
C15 C 0.89468 0.08556 0.05328 0.0
C16 C 0.95741 0.9099 0.00265 0.0
O17 O 0.10067 0.9489 0.06752 0.0
O18 O 0.04014 0.00348 0.07376 0.0
O19 O 0.94834 0.95493 0.0091 0.0
O20 O 0.01111 0.90276 0.00172 0.0
O21 O 0.98881 0.01907 0.95738 0.0
H22 H 0.93251 0.01777 0.07598 0.0
H23 H 0.95835 0.11001 0.97921 0.0
O24 O 0.05489 0.9689 0.95179 0.0
O25 O 0.14415 0.0146 0.01763 0.0
O26 O 0.0799 0.06765 0.02096 0.0
C27 C 0.134 0.05994 0.02085 0.0
H28 H 0.16159 0.82063 0.95002 0.0
H29 H 0.86325 0.08914 0.07232 0.0
Co30 Co 0.56657 0.48945 0.51033 0.0
C31 C 0.51207 0.50994 0.428 0.0
Co32 Co 0.48367 0.52709 0.50121 0.0
C33 C 0.65563 0.41944 0.53258 0.0
C34 C 0.68382 0.48035 0.49694 0.0
N35 N 0.63804 0.46162 0.51445 0.0
N36 N 0.71017 0.41101 0.52661 0.0
C37 C 0.72815 0.44958 0.50441 0.0
H38 H 0.62841 0.39479 0.54911 0.0
H39 H 0.68456 0.51404 0.47932 0.0
C40 C 0.53875 0.50731 0.58372 0.0
N41 N 0.41218 0.55507 0.49747 0.0
C42 C 0.39869 0.60083 0.48467 0.0
C43 C 0.36386 0.5341 0.51189 0.0
N44 N 0.34437 0.60926 0.49099 0.0
C45 C 0.32212 0.56707 0.50782 0.0
C46 C 0.45857 0.41987 0.49513 0.0
O47 O 0.5776 0.4888 0.56878 0.0
O48 O 0.49496 0.52528 0.55963 0.0
O49 O 0.43533 0.46048 0.49286 0.0
O50 O 0.51714 0.42304 0.5029 0.0
O51 O 0.47328 0.5288 0.44277 0.0
H52 H 0.36002 0.49771 0.52577 0.0
H53 H 0.42902 0.62821 0.47218 0.0
O54 O 0.55476 0.4907 0.45204 0.0
O55 O 0.61499 0.55594 0.51759 0.0
O56 O 0.53318 0.59313 0.50946 0.0
C57 C 0.5915 0.59637 0.51568 0.0
H58 H 0.77025 0.4555 0.49419 0.0
H59 H 0.27931 0.56046 0.51717 0.0
H60 H 0.04914 0.03949 0.41774 0.0
C61 C 0.06061 0.00382 0.42967 0.0
C62 C 0.07865 0.97069 0.40363 0.0
C63 C 0.05991 0.99219 0.47069 0.0
H64 H 0.10897 0.8986 0.39885 0.0
C65 C 0.09766 0.92571 0.41913 0.0
C66 C 0.1007 0.91434 0.46042 0.0
C67 C 0.07951 0.9466 0.48559 0.0
C68 C 0.04355 0.02979 0.49824 0.0
H69 H 0.07947 0.93627 0.51678 0.0
C70 C 0.00234 0.07518 0.47588 0.0
C71 C 0.99905 0.14445 0.53269 0.0
C72 C 0.07534 0.03273 0.55067 0.0
H73 H 0.10258 0.0039 0.56263 0.0
C74 C 0.07353 0.07746 0.58757 0.0
H75 H 0.98146 0.07054 0.44222 0.0
C76 C 0.03895 0.12975 0.58086 0.0
H77 H 0.0422 0.15436 0.60794 0.0
H78 H 0.09773 0.0719 0.61925 0.0
H79 H 0.95812 0.07648 0.61118 0.0
C80 C 0.94582 0.03706 0.599 0.0
C81 C 0.91682 0.00143 0.62116 0.0
C82 C 0.95603 0.02207 0.5608 0.0
H83 H 0.87235 0.92421 0.62177 0.0
C84 C 0.89462 0.95145 0.60421 0.0
C85 C 0.9016 0.93611 0.56542 0.0
C86 C 0.93349 0.97127 0.54416 0.0
C87 C 0.97619 0.06204 0.53324 0.0
H88 H 0.93776 0.95991 0.51375 0.0
C89 C 0.07971 0.11605 0.52415 0.0
C90 C 0.06357 0.15801 0.48642 0.0
C91 C 0.91349 0.0802 0.49921 0.0
H92 H 0.86701 0.06209 0.49916 0.0
C93 C 0.922 0.12608 0.46571 0.0
H94 H 0.12854 0.11696 0.54062 0.0
C95 C 0.98935 0.16089 0.46003 0.0
H96 H 0.98373 0.18884 0.43684 0.0
H97 H 0.87941 0.13464 0.44565 0.0
H98 H 0.57283 0.52 0.90849 0.0
C99 C 0.58795 0.48618 0.92198 0.0
C100 C 0.61218 0.45398 0.89873 0.0
C101 C 0.58719 0.47662 0.96332 0.0
H102 H 0.65996 0.39074 0.90025 0.0
C103 C 0.63809 0.41331 0.91766 0.0
C104 C 0.6378 0.40278 0.9587 0.0
C105 C 0.61151 0.43422 0.98109 0.0
C106 C 0.56544 0.51305 0.98855 0.0
H107 H 0.61071 0.42552 0.01252 0.0
C108 C 0.51551 0.55129 0.96374 0.0
C109 C 0.49901 0.6186 0.01727 0.0
C110 C 0.59718 0.52089 0.04097 0.0
H111 H 0.63004 0.49663 0.05447 0.0
C112 C 0.58703 0.56443 0.0757 0.0
H113 H 0.49613 0.54396 0.93005 0.0
C114 C 0.54217 0.61029 0.06637 0.0
H115 H 0.54065 0.63457 0.09244 0.0
H116 H 0.61261 0.5627 0.10779 0.0
H117 H 0.48255 0.54542 0.10305 0.0
C118 C 0.47293 0.50642 0.09012 0.0
C119 C 0.45094 0.46811 0.11336 0.0
C120 C 0.47796 0.49469 0.04974 0.0
H121 H 0.41102 0.38999 0.11355 0.0
C122 C 0.43052 0.41829 0.09555 0.0
C123 C 0.43048 0.4061 0.05431 0.0
C124 C 0.45505 0.44444 0.03181 0.0
C125 C 0.49102 0.53659 0.02148 0.0
H126 H 0.45316 0.43591 -0.00051 0.0
C127 C 0.58627 0.60101 0.01059 0.0
C128 C 0.56215 0.63883 0.97095 0.0
C129 C 0.42416 0.5457 0.98606 0.0
H130 H 0.38032 0.52234 0.98623 0.0
C131 C 0.42455 0.58996 0.95036 0.0
H132 H 0.63563 0.60803 0.02734 0.0
C133 C 0.48635 0.63201 0.94394 0.0
H134 H 0.47542 0.65825 0.91984 0.0
H135 H 0.37986 0.59237 0.9294 0.0
H136 H 0.23235 0.0973 0.03784 0.0
C137 C 0.18499 0.10306 0.02407 0.0
H138 H 0.12701 0.15364 0.99495 0.0
H139 H 0.30713 0.35359 0.08354 0.0
H140 H 0.21651 0.35583 0.10885 0.0
H141 H 0.12871 0.2834 0.09235 0.0
H142 H 0.13112 0.2087 0.05033 0.0
C143 C 0.17434 0.1482 0.00926 0.0
C144 C 0.22538 0.19309 0.01606 0.0
C145 C 0.223 0.23644 0.04074 0.0
C146 C 0.27409 0.27764 0.05099 0.0
C147 C 0.27039 0.32068 0.07555 0.0
C148 C 0.21838 0.32259 0.09013 0.0
C149 C 0.16894 0.28189 0.08078 0.0
C150 C 0.17096 0.23921 0.05647 0.0
H151 H 0.36966 0.35674 -8e-05 0.0
C152 C 0.39462 0.35669 0.03255 0.0
H153 H 0.40911 0.3134 0.08561 0.0
H154 H 0.23937 0.1207 0.96092 0.0
H155 H 0.33043 0.11893 0.9355 0.0
H156 H 0.42167 0.18825 0.95685 0.0
H157 H 0.42187 0.26031 0.00321 0.0
C158 C 0.3839 0.3148 0.05327 0.0
C159 C 0.32781 0.27502 0.03709 0.0
C160 C 0.32895 0.23301 0.01068 0.0
C161 C 0.27716 0.19228 -0.00049 0.0
C162 C 0.27842 0.15165 0.97171 0.0
C163 C 0.33019 0.1504 0.95662 0.0
C164 C 0.38151 0.1895 0.96856 0.0
C165 C 0.38111 0.23052 0.99522 0.0
H166 H 0.30239 0.88007 0.04533 0.0
C167 C 0.26738 0.85658 0.02035 0.0
H168 H 0.24642 0.7899 0.97991 0.0
H169 H 0.50629 0.75403 0.97484 0.0
H170 H 0.47968 0.79878 0.91147 0.0
H171 H 0.39039 0.84442 0.89713 0.0
H172 H 0.3272 0.84551 0.94597 0.0
C173 C 0.28035 0.81369 0.00503 0.0
C174 C 0.34199 0.79777 0.0189 0.0
C175 C 0.37925 0.79876 0.9906 0.0
C176 C 0.43057 0.77255 0.99877 0.0
C177 C 0.46638 0.77304 0.96967 0.0
C178 C 0.45176 0.79873 0.93339 0.0
C179 C 0.4015 0.82442 0.92533 0.0
C180 C 0.3655 0.82459 0.95349 0.0
H181 H 0.41204 0.65456 0.99912 0.0
C182 C 0.46088 0.66071 0.01621 0.0
H183 H 0.53288 0.71507 0.0557 0.0
H184 H 0.28408 0.79269 0.08194 0.0
H185 H 0.31385 0.75054 0.14612 0.0
H186 H 0.40423 0.70628 0.16046 0.0
H187 H 0.46554 0.70398 0.11048 0.0
C188 C 0.48469 0.70617 0.0374 0.0
C189 C 0.4441 0.7452 0.03499 0.0
C190 C 0.4108 0.74833 0.06521 0.0
C191 C 0.35917 0.77436 0.05707 0.0
C192 C 0.32432 0.77423 0.08673 0.0
C193 C 0.34084 0.75004 0.12368 0.0
C194 C 0.39173 0.72509 0.13176 0.0
C195 C 0.42637 0.72394 0.10288 0.0
H196 H 0.91787 0.82775 0.99417 0.0
C197 C 0.90662 0.86583 0.99622 0.0
H198 H 0.83483 0.90872 0.99429 0.0
H199 H 0.65802 0.69928 0.89715 0.0
H200 H 0.67652 0.74132 0.83651 0.0
H201 H 0.75099 0.82221 0.84441 0.0
H202 H 0.80727 0.86179 0.9131 0.0
C203 C 0.84758 0.87117 0.99269 0.0
C204 C 0.79857 0.82534 0.98777 0.0
C205 C 0.76527 0.80336 0.94748 0.0
C206 C 0.72179 0.75707 0.94294 0.0
C207 C 0.69062 0.73495 0.90237 0.0
C208 C 0.70109 0.75852 0.86731 0.0
C209 C 0.74303 0.80409 0.87176 0.0
C210 C 0.77503 0.82637 0.91131 0.0
H211 H 0.58728 0.71538 0.9498 0.0
C212 C 0.60601 0.68246 0.96306 0.0
H213 H 0.68738 0.65171 0.98775 0.0
H214 H 0.85258 0.8596 0.06921 0.0
H215 H 0.83228 0.81919 0.13 0.0
H216 H 0.75562 0.73962 0.12235 0.0
H217 H 0.69924 0.69981 0.05401 0.0
C218 C 0.66774 0.68443 0.97509 0.0
C219 C 0.7113 0.73355 0.9788 0.0
C220 C 0.74347 0.75642 0.0191 0.0
C221 C 0.7872 0.80242 0.02356 0.0
C222 C 0.81893 0.8245 0.0641 0.0
C223 C 0.80761 0.8018 0.09926 0.0
C224 C 0.7645 0.75699 0.09495 0.0
C225 C 0.73259 0.73444 0.05547 0.0
H226 H 0.86633 0.16608 0.97511 0.0
C227 C 0.87048 0.15624 0.00709 0.0
H228 H 0.8492 0.1726 0.06345 0.0
H229 H 0.7817 0.36883 0.94689 0.0
H230 H 0.89088 0.3865 0.94819 0.0
H231 H 0.96225 0.3295 0.98183 0.0
H232 H 0.92469 0.25411 0.0137 0.0
C233 C 0.84453 0.18183 0.03136 0.0
C234 C 0.80383 0.2195 0.01468 0.0
C235 C 0.82732 0.26448 0.99762 0.0
C236 C 0.78668 0.29831 0.97954 0.0
C237 C 0.81069 0.3421 0.96144 0.0
C238 C 0.8733 0.35277 0.96204 0.0
C239 C 0.91344 0.32062 0.98089 0.0
C240 C 0.89108 0.27712 0.99872 0.0
H241 H 0.68725 0.36613 0.01365 0.0
C242 C 0.66977 0.36209 0.9799 0.0
H243 H 0.66237 0.31555 0.92558 0.0
H244 H 0.74395 0.13804 0.04668 0.0
H245 H 0.63618 0.12346 0.04858 0.0
H246 H 0.56702 0.18409 0.01933 0.0
H247 H 0.60545 0.25971 0.98783 0.0
C248 C 0.68077 0.3222 0.95906 0.0
C249 C 0.72342 0.28824 0.98013 0.0
C250 C 0.7006 0.24478 0.99894 0.0
C251 C 0.74074 0.21018 0.01612 0.0
C252 C 0.71607 0.16618 0.03371 0.0
C253 C 0.6541 0.15719 0.03488 0.0
C254 C 0.61515 0.19129 0.01839 0.0
C255 C 0.6378 0.23454 0.00044 0.0
H256 H 0.61175 0.68046 0.52502 0.0
C257 C 0.63159 0.64672 0.52079 0.0
H258 H 0.71197 0.61884 0.51514 0.0
H259 H 0.80067 0.85109 0.47072 0.0
H260 H 0.76111 0.81131 0.40052 0.0
H261 H 0.70845 0.72119 0.38795 0.0
H262 H 0.69462 0.6704 0.44567 0.0
C263 C 0.69146 0.65182 0.52036 0.0
C264 C 0.73148 0.70288 0.52812 0.0
C265 C 0.7411 0.7313 0.49426 0.0
C266 C 0.77247 0.78293 0.50161 0.0
C267 C 0.77851 0.8114 0.46707 0.0
C268 C 0.75576 0.78906 0.42656 0.0
C269 C 0.72604 0.73833 0.41947 0.0
C270 C 0.7184 0.70964 0.45281 0.0
H271 H 0.90084 0.86255 0.53188 0.0
C272 C 0.87448 0.88338 0.54732 0.0
H273 H 0.79216 0.88236 0.56608 0.0
H274 H 0.72727 0.65599 0.59987 0.0
H275 H 0.77017 0.69419 0.67044 0.0
H276 H 0.82626 0.78326 0.68359 0.0
H277 H 0.83973 0.83457 0.62632 0.0
C278 C 0.81877 0.86088 0.55135 0.0
C279 C 0.79513 0.80525 0.54294 0.0
C280 C 0.78899 0.7755 0.57695 0.0
C281 C 0.75701 0.72422 0.56948 0.0
C282 C 0.75079 0.69539 0.60387 0.0
C283 C 0.7754 0.71675 0.64454 0.0
C284 C 0.80695 0.7669 0.65192 0.0
C285 C 0.81399 0.79604 0.6187 0.0
H286 H 0.72621 0.34496 0.56337 0.0
C287 C 0.74125 0.36871 0.54049 0.0
H288 H 0.80251 0.38028 0.50199 0.0
H289 H 0.01493 0.27064 0.59579 0.0
H290 H 0.06349 0.35942 0.61468 0.0
H291 H 0.00173 0.42854 0.59959 0.0
H292 H 0.89105 0.40933 0.56567 0.0
C293 C 0.78693 0.35702 0.52482 0.0
C294 C 0.82127 0.31454 0.53903 0.0
C295 C 0.88591 0.32638 0.55903 0.0
C296 C 0.92167 0.28662 0.56744 0.0
C297 C 0.98593 0.2995 0.58787 0.0
C298 C 0.01429 0.35026 0.59912 0.0
C299 C 0.97951 0.38917 0.59064 0.0
C300 C 0.91605 0.37761 0.57097 0.0
H301 H 0.97377 0.22146 0.51343 0.0
C302 C 0.96845 0.19095 0.53406 0.0
H303 H 0.9227 0.16285 0.57872 0.0
H304 H 0.6983 0.27792 0.50004 0.0
H305 H 0.64987 0.18914 0.48315 0.0
H306 H 0.71161 0.1202 0.49955 0.0
H307 H 0.82232 0.13978 0.53271 0.0
C308 C 0.93106 0.1939 0.55911 0.0
C309 C 0.89288 0.23508 0.55554 0.0
C310 C 0.8277 0.22292 0.53765 0.0
C311 C 0.79188 0.2627 0.52888 0.0
C312 C 0.72758 0.24945 0.5086 0.0
C313 C 0.69915 0.19852 0.49844 0.0
C314 C 0.73391 0.15971 0.50762 0.0
C315 C 0.79747 0.17152 0.52675 0.0
H316 H 0.43915 0.33569 0.49711 0.0
C317 C 0.41797 0.36964 0.4911 0.0
H318 H 0.3341 0.3992 0.47582 0.0
H319 H 0.15761 0.18904 0.40732 0.0
H320 H 0.16643 0.22297 0.34166 0.0
H321 H 0.2434 0.29983 0.34025 0.0
H322 H 0.31203 0.34328 0.4045 0.0
C323 C 0.35593 0.36573 0.48281 0.0
C324 C 0.3145 0.31655 0.48359 0.0
C325 C 0.27466 0.29184 0.44583 0.0
C326 C 0.22984 0.24791 0.44665 0.0
C327 C 0.19143 0.22329 0.40846 0.0
C328 C 0.19634 0.24214 0.37057 0.0
C329 C 0.23968 0.28542 0.36977 0.0
C330 C 0.27862 0.31009 0.40686 0.0
H331 H 0.1026 0.2301 0.46433 0.0
C332 C 0.11413 0.19487 0.47772 0.0
H333 H 0.18589 0.15213 0.49973 0.0
H334 H 0.38387 0.35501 0.56193 0.0
H335 H 0.37584 0.32044 0.62723 0.0
H336 H 0.29912 0.24345 0.62858 0.0
H337 H 0.22956 0.20089 0.56455 0.0
C338 C 0.17332 0.18733 0.48707 0.0
C339 C 0.22444 0.2294 0.48531 0.0
C340 C 0.26613 0.25276 0.52301 0.0
C341 C 0.31089 0.29673 0.52221 0.0
C342 C 0.34987 0.32086 0.56049 0.0
C343 C 0.34561 0.30153 0.59832 0.0
C344 C 0.30236 0.25824 0.59908 0.0
C345 C 0.26277 0.23412 0.56202 0.0
H346 H 0.33926 0.68402 0.46568 0.0
C347 C 0.3181 0.65517 0.48276 0.0
H348 H 0.24908 0.63697 0.51508 0.0
H349 H 0.21836 0.86546 0.54603 0.0
H350 H 0.27056 0.8462 0.61569 0.0
H351 H 0.3105 0.7653 0.6281 0.0
H352 H 0.29893 0.70333 0.57082 0.0
C353 C 0.2691 0.66382 0.49618 0.0
C354 C 0.24319 0.71189 0.48849 0.0
C355 C 0.24896 0.74721 0.52246 0.0
C356 C 0.22512 0.79361 0.5154 0.0
C357 C 0.2341 0.82912 0.54967 0.0
C358 C 0.26434 0.81867 0.58984 0.0
C359 C 0.28687 0.77314 0.59683 0.0
C360 C 0.2797 0.73781 0.56365 0.0
H361 H 0.10444 0.84575 0.49768 0.0
C362 C 0.12588 0.86833 0.47676 0.0
H363 H 0.19659 0.87765 0.44548 0.0
H364 H 0.21745 0.64972 0.41707 0.0
H365 H 0.1642 0.66845 0.34753 0.0
H366 H 0.1239 0.74921 0.33511 0.0
H367 H 0.13624 0.81142 0.39218 0.0
C368 C 0.17427 0.85421 0.46553 0.0
C369 C 0.19454 0.80411 0.47442 0.0
C370 C 0.18745 0.76818 0.4406 0.0
C371 C 0.21137 0.72189 0.44765 0.0
C372 C 0.20182 0.68611 0.41342 0.0
C373 C 0.17088 0.6962 0.37331 0.0
C374 C 0.14816 0.74163 0.36632 0.0
C375 C 0.15591 0.77718 0.39942 0.0
H376 H 0.12324 0.94249 0.14883 0.0
C377 C 0.09174 0.96829 0.13558 0.0
H378 H 0.03459 0.01926 0.14744 0.0
H379 H 0.05449 0.87493 0.30888 0.0
H380 H 0.99797 0.80519 0.25826 0.0
H381 H 0.97466 0.81736 0.18296 0.0
H382 H 0.00866 0.89893 0.15786 0.0
C383 C 0.06497 0.99243 0.16016 0.0
C384 C 0.07705 0.98505 0.2055 0.0
C385 C 0.05567 0.93717 0.21956 0.0
C386 C 0.06749 0.93056 0.26297 0.0
C387 C 0.04646 0.88219 0.27625 0.0
C388 C 0.01382 0.84182 0.24754 0.0
C389 C 1.00083 0.84864 0.20515 0.0
C390 C 0.02114 0.89567 0.19115 0.0
H391 H 0.04288 0.00774 0.34541 0.0
C392 C 0.07519 0.98306 0.35986 0.0
H393 H 0.14345 0.94109 0.35081 0.0
H394 H 0.12294 0.08202 0.18902 0.0
H395 H 0.1771 0.1523 0.23985 0.0
H396 H 0.19679 0.1408 0.31514 0.0
H397 H 0.16197 0.0591 0.34007 0.0
C398 C 0.10961 0.96485 0.33737 0.0
C399 C 0.09861 0.97224 0.29216 0.0
C400 C 0.11917 0.02026 0.27818 0.0
C401 C 0.10821 0.02672 0.23476 0.0
C402 C 0.12968 0.07502 0.22162 0.0
C403 C 0.16099 0.11567 0.25047 0.0
C404 C 0.172 0.10923 0.29286 0.0
C405 C 0.15158 0.06215 0.30674 0.0
H406 H 0.02874 0.98184 0.87335 0.0
C407 C 0.00219 0.00106 0.88987 0.0
H408 H 0.93353 0.0478 0.88426 0.0
H409 H 0.98093 0.12972 0.71502 0.0
H410 H 0.00411 0.20805 0.75941 0.0
H411 H 0.00349 0.20557 0.83325 0.0
H412 H 0.97888 0.12485 0.86306 0.0
C413 C 0.95945 0.02706 0.86839 0.0
C414 C 0.94982 0.02963 0.82258 0.0
C415 C 0.96433 0.07714 0.80573 0.0
C416 C 0.96571 0.07851 0.76331 0.0
C417 C 0.97993 0.12647 0.74715 0.0
C418 C 0.99327 0.17171 0.77227 0.0
C419 C 0.99288 0.17031 0.81385 0.0
C420 C 0.97873 0.1237 0.83058 0.0
H421 H 0.86474 -0.00041 0.66865 0.0
C422 C 0.90885 0.01481 0.66236 0.0
H423 H 0.00297 0.04755 0.68887 0.0
H424 H 0.90366 0.93414 0.84183 0.0
H425 H 0.88524 0.85507 0.79898 0.0
H426 H 0.90368 0.85572 0.72918 0.0
H427 H 0.93758 0.93512 0.70126 0.0
C428 C 0.95792 0.03379 0.6943 0.0
C429 C 0.95356 0.03234 0.7381 0.0
C430 C 0.93827 0.98476 0.75496 0.0
C431 C 0.93308 0.98383 0.79649 0.0
C432 C 0.91199 0.9365 0.81134 0.0
C433 C 0.9008 0.89093 0.78698 0.0
C434 C 0.91073 0.89133 0.74761 0.0
C435 C 0.92948 0.93748 0.73171 0.0
H436 H 0.50896 0.52587 0.63921 0.0
C437 C 0.54295 0.50842 0.62854 0.0
H438 H 0.61883 0.46902 0.64635 0.0
H439 H 0.6274 0.58024 0.82774 0.0
H440 H 0.67705 0.65591 0.80176 0.0
H441 H 0.68483 0.65554 0.72928 0.0
H442 H 0.6433 0.57936 0.68233 0.0
C443 C 0.58552 0.48817 0.65621 0.0
C444 C 0.58423 0.48787 0.70054 0.0
C445 C 0.60869 0.53272 0.72749 0.0
C446 C 0.60445 0.5329 0.76932 0.0
C447 C 0.62946 0.57807 0.79568 0.0
C448 C 0.658 0.62177 0.78116 0.0
C449 C 0.66237 0.62155 0.74034 0.0
C450 C 0.63816 0.57764 0.71368 0.0
H451 H 0.64509 0.44288 0.8428 0.0
C452 C 0.61373 0.46202 0.85501 0.0
H453 H 0.542 0.5064 0.8384 0.0
H454 H 0.53328 0.39565 0.65693 0.0
H455 H 0.48297 0.32019 0.68267 0.0
H456 H 0.47349 0.32102 0.75474 0.0
H457 H 0.51464 0.39713 0.80162 0.0
C458 C 0.57532 0.48736 0.82856 0.0
C459 C 0.57628 0.48815 0.78413 0.0
C460 C 0.55122 0.44345 0.757 0.0
C461 C 0.5558 0.44318 0.71528 0.0
C462 C 0.53082 0.39798 0.6889 0.0
C463 C 0.50178 0.35441 0.70324 0.0
C464 C 0.49655 0.35485 0.74385 0.0
C465 C 0.52072 0.39874 0.77051 0.0
H466 H 0.54636 0.49502 0.37404 0.0
C467 C 0.50935 0.5095 0.38348 0.0
H468 H 0.42658 0.53984 0.36285 0.0
H469 H 0.48773 0.60626 0.19369 0.0
H470 H 0.48517 0.68788 0.22677 0.0
H471 H 0.47345 0.69374 0.29817 0.0
H472 H 0.46359 0.61793 0.33686 0.0
C473 C 0.46334 0.52405 0.35427 0.0
C474 C 0.46364 0.51997 0.30964 0.0
C475 C 0.46972 0.5647 0.28758 0.0
C476 C 0.47758 0.56143 0.24663 0.0
C477 C 0.48248 0.60659 0.22504 0.0
C478 C 0.48097 0.6537 0.24363 0.0
C479 C 0.47439 0.657 0.28384 0.0
C480 C 0.46882 0.61318 0.30572 0.0
H481 H 0.40344 0.45733 0.16324 0.0
C482 C 0.4431 0.47937 0.15508 0.0
H483 H 0.52712 0.5318 0.17769 0.0
H484 H 0.43869 0.42535 0.33895 0.0
H485 H 0.44873 0.3445 0.30839 0.0
H486 H 0.47921 0.34074 0.24263 0.0
H487 H 0.49715 0.41727 0.20634 0.0
C488 C 0.4865 0.50997 0.18476 0.0
C489 C 0.48047 0.51359 0.22818 0.0
C490 C 0.47556 0.46896 0.25068 0.0
C491 C 0.4636 0.47178 0.29035 0.0
C492 C 0.45207 0.42585 0.31005 0.0
C493 C 0.45712 0.37911 0.29268 0.0
C494 C 0.47387 0.37695 0.25556 0.0
C495 C 0.48325 0.4212 0.23475 0.0
loop_
_geom_bond_atom_site_label_1
_geom_bond_atom_site_label_2
_geom_bond_distance
_geom_bond_site_symmetry_2
_ccdc_geom_bond_type
Co0 N5 2.057 . S
Co0 O17 2.021 . S
Co0 O20 2.062 . S
Co0 O24 2.117 1_554 S
Co0 O25 2.020 1_565 S
C1 O21 1.259 1_455 S
C1 O24 1.258 1_545 S
Co2 N11 2.057 . S
Co2 O18 2.117 1_655 S
Co2 O19 2.018 1_545 S
Co2 O21 2.021 1_554 S
Co2 O26 2.062 1_655 S
C3 N5 1.316 . S
C3 N6 1.347 . S
C3 H8 0.931 . S
C4 N5 1.375 1_556 S
C4 C7 1.350 . S
C4 H9 0.930 . S
N5 Co0 2.057 . S
N5 C3 1.316 . S
N5 C4 1.375 1_554 S
N6 C3 1.347 . S
N6 C7 1.373 1_554 S
C7 C4 1.350 . S
C7 N6 1.373 1_556 S
C7 H28 0.931 . S
H8 C3 0.931 . S
H9 C4 0.930 . S
C10 O17 1.263 . S
C10 O18 1.254 1_565 S
N11 Co2 2.057 . S
N11 C12 1.316 1_554 S
N11 C13 1.375 . S
C12 N11 1.316 1_556 S
C12 N14 1.347 1_556 S
C12 H23 0.931 . S
C13 N11 1.375 . S
C13 C15 1.350 . S
C13 H22 0.930 . S
N14 C12 1.347 1_554 S
N14 C15 1.373 . S
C15 C13 1.350 . S
C15 N14 1.373 . S
C15 H29 0.931 . S
C16 O19 1.256 . S
C16 O20 1.255 1_655 S
O17 Co0 2.021 . S
O17 C10 1.263 . S
O18 Co2 2.117 1_455 S
O18 C10 1.254 1_545 S
O19 Co2 2.018 1_565 S
O19 C16 1.256 . S
O20 Co0 2.062 . S
O20 C16 1.255 1_455 S
O21 C1 1.259 1_655 S
O21 Co2 2.021 1_556 S
H22 C13 0.930 . S
H23 C12 0.931 . S
O24 Co0 2.117 1_556 S
O24 C1 1.258 1_565 S
O25 Co0 2.020 1_545 S
O25 C27 1.256 . S
O26 Co2 2.062 1_455 S
O26 C27 1.255 . S
C27 O25 1.256 . S
C27 O26 1.255 . S
H28 C7 0.931 . S
H29 C15 0.931 . S
Co30 N35 2.057 . S
Co30 O47 2.021 . S
Co30 O50 2.062 . S
Co30 O54 2.117 . S
Co30 O55 2.020 . S
C31 O51 1.259 . S
C31 O54 1.258 . S
Co32 N41 2.057 . S
Co32 O48 2.117 . S
Co32 O49 2.020 . S
Co32 O51 2.021 . S
Co32 O56 2.062 . S
C33 N35 1.316 . S
C33 N36 1.347 . S
C33 H38 0.931 . S
C34 N35 1.375 . S
C34 C37 1.350 . S
C34 H39 0.930 . S
N35 Co30 2.057 . S
N35 C33 1.316 . S
N35 C34 1.375 . S
N36 C33 1.347 . S
N36 C37 1.373 . S
C37 C34 1.350 . S
C37 N36 1.373 . S
C37 H58 0.931 . S
H38 C33 0.931 . S
H39 C34 0.930 . S
C40 O47 1.259 . S
C40 O48 1.258 . S
N41 Co32 2.057 . S
N41 C42 1.316 . S
N41 C43 1.375 . S
C42 N41 1.316 . S
C42 N44 1.347 . S
C42 H53 0.931 . S
C43 N41 1.375 . S
C43 C45 1.350 . S
C43 H52 0.930 . S
N44 C42 1.347 . S
N44 C45 1.373 . S
C45 C43 1.350 . S
C45 N44 1.373 . S
C45 H59 0.931 . S
C46 O49 1.256 . S
C46 O50 1.255 . S
O47 Co30 2.021 . S
O47 C40 1.259 . S
O48 Co32 2.117 . S
O48 C40 1.258 . S
O49 Co32 2.020 . S
O49 C46 1.256 . S
O50 Co30 2.062 . S
O50 C46 1.255 . S
O51 C31 1.259 . S
O51 Co32 2.021 . S
H52 C43 0.930 . S
H53 C42 0.931 . S
O54 Co30 2.117 . S
O54 C31 1.258 . S
O55 Co30 2.020 . S
O55 C57 1.256 . S
O56 Co32 2.062 . S
O56 C57 1.255 . S
C57 O55 1.256 . S
C57 O56 1.255 . S
H58 C37 0.931 . S
H59 C45 0.931 . S
H60 C61 0.949 . S
C61 H60 0.949 . S
C61 C62 1.395 1_545 S
C61 C63 1.391 . S
C62 C61 1.395 1_565 S
C62 C65 1.390 . S
C63 C61 1.391 . S
C63 C67 1.387 1_545 S
C63 C68 1.491 . S
H64 C65 0.950 . S
C65 C62 1.390 . S
C65 H64 0.950 . S
C65 C66 1.378 . S
C66 C65 1.378 . S
C66 C67 1.409 . S
C67 C63 1.387 1_565 S
C67 C66 1.409 . S
C67 H69 0.951 . S
C68 C63 1.491 . S
C68 C70 1.382 1_455 S
C68 C72 1.404 . S
H69 C67 0.951 . S
C70 C68 1.382 1_655 S
C70 C71 1.390 . S
C70 H75 0.949 . S
C71 C70 1.390 . S
C71 C76 1.399 1_655 S
C72 C68 1.404 . S
C72 H73 0.950 . S
C72 C74 1.375 . S
H73 C72 0.950 . S
C74 C72 1.375 . S
C74 C76 1.382 . S
C74 H78 0.950 . S
H75 C70 0.949 . S
C76 C71 1.399 1_455 S
C76 C74 1.382 . S
C76 H77 0.952 . S
H77 C76 0.952 . S
H78 C74 0.950 . S
H79 C80 0.956 . S
C80 H79 0.956 . S
C80 C81 1.388 1_445 S
C80 C82 1.391 1_455 S
C81 C80 1.388 1_665 S
C81 C84 1.390 . S
C82 C80 1.391 1_655 S
C82 C86 1.387 1_545 S
C82 C87 1.491 1_655 S
H83 C84 0.950 . S
C84 C81 1.390 . S
C84 H83 0.950 . S
C84 C85 1.378 . S
C85 C84 1.378 . S
C85 C86 1.409 . S
C86 C82 1.387 1_565 S
C86 C85 1.409 . S
C86 H88 0.951 . S
C87 C82 1.491 1_455 S
C87 C89 1.382 . S
C87 C91 1.404 1_455 S
H88 C86 0.951 . S
C89 C87 1.382 . S
C89 C90 1.390 . S
C89 H94 0.949 . S
C90 C89 1.390 . S
C90 C95 1.399 . S
C91 C87 1.404 1_655 S
C91 H92 0.950 . S
C91 C93 1.375 . S
H92 C91 0.950 . S
C93 C91 1.375 . S
C93 C95 1.382 1_655 S
C93 H97 0.950 . S
H94 C89 0.949 . S
C95 C90 1.399 . S
C95 C93 1.382 1_455 S
C95 H96 0.952 . S
H96 C95 0.952 . S
H97 C93 0.950 . S
H98 C99 0.949 . S
C99 H98 0.949 . S
C99 C100 1.395 . S
C99 C101 1.391 . S
C100 C99 1.395 . S
C100 C103 1.390 . S
C101 C99 1.391 . S
C101 C105 1.387 . S
C101 C106 1.491 1_556 S
H102 C103 0.950 . S
C103 C100 1.390 . S
C103 H102 0.950 . S
C103 C104 1.378 . S
C104 C103 1.378 . S
C104 C105 1.409 . S
C105 C101 1.387 . S
C105 C104 1.409 . S
C105 H107 0.951 1_556 S
C106 C101 1.491 1_554 S
C106 C108 1.382 1_554 S
C106 C110 1.404 . S
H107 C105 0.951 1_554 S
C108 C106 1.382 1_556 S
C108 C109 1.390 1_556 S
C108 H113 0.949 . S
C109 C108 1.390 1_554 S
C109 C114 1.399 . S
C110 C106 1.404 . S
C110 H111 0.950 . S
C110 C112 1.375 . S
H111 C110 0.950 . S
C112 C110 1.375 . S
C112 C114 1.382 . S
C112 H116 0.950 . S
H113 C108 0.949 . S
C114 C109 1.399 . S
C114 C112 1.382 . S
C114 H115 0.952 . S
H115 C114 0.952 . S
H116 C112 0.950 . S
H117 C118 0.949 . S
C118 H117 0.949 . S
C118 C119 1.395 . S
C118 C120 1.391 . S
C119 C118 1.395 . S
C119 C122 1.390 . S
C120 C118 1.391 . S
C120 C124 1.387 . S
C120 C125 1.491 . S
H121 C122 0.950 . S
C122 C119 1.390 . S
C122 H121 0.950 . S
C122 C123 1.378 . S
C123 C122 1.378 . S
C123 C124 1.409 . S
C124 C120 1.387 . S
C124 C123 1.409 . S
C124 H126 0.951 1_554 S
C125 C120 1.491 . S
C125 C127 1.382 . S
C125 C129 1.404 1_554 S
H126 C124 0.951 1_556 S
C127 C125 1.382 . S
C127 C128 1.389 . S
C127 H132 0.949 . S
C128 C127 1.389 . S
C128 C133 1.400 1_554 S
C129 C125 1.404 1_556 S
C129 H130 0.950 . S
C129 C131 1.375 . S
H130 C129 0.950 . S
C131 C129 1.375 . S
C131 C133 1.382 . S
C131 H135 0.950 . S
H132 C127 0.949 . S
C133 C128 1.400 1_556 S
C133 C131 1.382 . S
C133 H134 0.952 . S
H134 C133 0.952 . S
H135 C131 0.950 . S
H136 C137 0.951 . S
C137 H136 0.951 . S
C137 C143 1.265 . S
H138 C143 0.950 . S
H139 C147 0.949 . S
H140 C148 0.950 . S
H141 C149 0.951 . S
H142 C150 0.951 . S
C143 C137 1.265 . S
C143 H138 0.950 . S
C143 C144 1.478 . S
C144 C143 1.478 . S
C144 C145 1.397 . S
C144 C161 1.406 . S
C145 C144 1.397 . S
C145 C146 1.438 . S
C145 C150 1.429 . S
C146 C145 1.438 . S
C146 C147 1.428 . S
C146 C159 1.394 . S
C147 H139 0.949 . S
C147 C146 1.428 . S
C147 C148 1.345 . S
C148 H140 0.950 . S
C148 C147 1.345 . S
C148 C149 1.424 . S
C149 H141 0.951 . S
C149 C148 1.424 . S
C149 C150 1.347 . S
C150 H142 0.951 . S
C150 C145 1.429 . S
C150 C149 1.347 . S
H151 C152 0.951 . S
C152 H151 0.951 . S
C152 C158 1.265 . S
H153 C158 0.950 . S
H154 C162 0.949 . S
H155 C163 0.950 . S
H156 C164 0.951 . S
H157 C165 0.951 . S
C158 C152 1.265 . S
C158 H153 0.950 . S
C158 C159 1.478 . S
C159 C146 1.394 . S
C159 C158 1.478 . S
C159 C160 1.397 . S
C160 C159 1.397 . S
C160 C161 1.436 . S
C160 C165 1.429 1_554 S
C161 C144 1.406 . S
C161 C160 1.436 . S
C161 C162 1.417 1_554 S
C162 H154 0.949 . S
C162 C161 1.417 1_556 S
C162 C163 1.345 . S
C163 H155 0.950 . S
C163 C162 1.345 . S
C163 C164 1.424 . S
C164 H156 0.951 . S
C164 C163 1.424 . S
C164 C165 1.347 . S
C165 H157 0.951 . S
C165 C160 1.429 1_556 S
C165 C164 1.347 . S
H166 C167 0.951 . S
C167 H166 0.951 . S
C167 C173 1.265 . S
H168 C173 0.950 . S
H169 C177 0.949 . S
H170 C178 0.950 . S
H171 C179 0.951 . S
H172 C180 0.951 . S
C173 C167 1.265 . S
C173 H168 0.950 . S
C173 C174 1.478 . S
C174 C173 1.478 . S
C174 C175 1.397 1_554 S
C174 C191 1.394 . S
C175 C174 1.397 1_556 S
C175 C176 1.438 . S
C175 C180 1.429 . S
C176 C175 1.438 . S
C176 C177 1.428 . S
C176 C189 1.394 1_556 S
C177 H169 0.949 . S
C177 C176 1.428 . S
C177 C178 1.345 . S
C178 H170 0.950 . S
C178 C177 1.345 . S
C178 C179 1.424 . S
C179 H171 0.951 . S
C179 C178 1.424 . S
C179 C180 1.347 . S
C180 H172 0.951 . S
C180 C175 1.429 . S
C180 C179 1.347 . S
H181 C182 0.951 . S
C182 H181 0.951 . S
C182 C188 1.265 . S
H183 C188 0.950 . S
H184 C192 0.949 . S
H185 C193 0.950 . S
H186 C194 0.951 . S
H187 C195 0.951 . S
C188 C182 1.265 . S
C188 H183 0.950 . S
C188 C189 1.478 . S
C189 C176 1.394 1_554 S
C189 C188 1.478 . S
C189 C190 1.397 . S
C190 C189 1.397 . S
C190 C191 1.438 . S
C190 C195 1.429 . S
C191 C174 1.394 . S
C191 C190 1.438 . S
C191 C192 1.428 . S
C192 H184 0.949 . S
C192 C191 1.428 . S
C192 C193 1.345 . S
C193 H185 0.950 . S
C193 C192 1.345 . S
C193 C194 1.424 . S
C194 H186 0.951 . S
C194 C193 1.424 . S
C194 C195 1.347 . S
C195 H187 0.951 . S
C195 C190 1.429 . S
C195 C194 1.347 . S
H196 C197 0.951 . S
C197 H196 0.951 . S
C197 C203 1.265 1_554 S
H198 C203 0.950 . S
H199 C207 0.949 . S
H200 C208 0.950 . S
H201 C209 0.951 . S
H202 C210 0.951 . S
C203 C197 1.265 1_556 S
C203 H198 0.950 . S
C203 C204 1.477 1_556 S
C204 C203 1.477 1_554 S
C204 C205 1.394 1_554 S
C204 C221 1.398 . S
C205 C204 1.394 1_556 S
C205 C206 1.438 . S
C205 C210 1.429 . S
C206 C205 1.438 . S
C206 C207 1.428 . S
C206 C219 1.394 1_556 S
C207 H199 0.949 . S
C207 C206 1.428 . S
C207 C208 1.345 . S
C208 H200 0.950 . S
C208 C207 1.345 . S
C208 C209 1.424 . S
C209 H201 0.951 . S
C209 C208 1.424 . S
C209 C210 1.347 . S
C210 H202 0.951 . S
C210 C205 1.429 . S
C210 C209 1.347 . S
H211 C212 0.951 1_556 S
C212 H211 0.951 1_554 S
C212 C218 1.265 . S
H213 C218 0.950 . S
H214 C222 0.949 . S
H215 C223 0.950 . S
H216 C224 0.951 . S
H217 C225 0.951 . S
C218 C212 1.265 . S
C218 H213 0.950 . S
C218 C219 1.478 . S
C219 C206 1.394 1_554 S
C219 C218 1.478 . S
C219 C220 1.397 . S
C220 C219 1.397 . S
C220 C221 1.438 . S
C220 C225 1.429 . S
C221 C204 1.398 . S
C221 C220 1.438 . S
C221 C222 1.428 . S
C222 H214 0.949 . S
C222 C221 1.428 . S
C222 C223 1.345 . S
C223 H215 0.950 . S
C223 C222 1.345 . S
C223 C224 1.424 . S
C224 H216 0.951 . S
C224 C223 1.424 . S
C224 C225 1.347 . S
C225 H217 0.951 . S
C225 C220 1.429 . S
C225 C224 1.347 . S
H226 C227 0.951 . S
C227 H226 0.951 . S
C227 C233 1.265 . S
H228 C233 0.950 . S
H229 C237 0.949 . S
H230 C238 0.950 . S
H231 C239 0.951 . S
H232 C240 0.951 . S
C233 C227 1.265 . S
C233 H228 0.950 . S
C233 C234 1.478 . S
C234 C233 1.478 . S
C234 C235 1.397 . S
C234 C251 1.394 1_556 S
C235 C234 1.397 . S
C235 C236 1.438 . S
C235 C240 1.429 . S
C236 C235 1.438 . S
C236 C237 1.428 . S
C236 C249 1.394 . S
C237 H229 0.949 . S
C237 C236 1.428 . S
C237 C238 1.345 . S
C238 H230 0.950 . S
C238 C237 1.345 . S
C238 C239 1.424 . S
C239 H231 0.951 . S
C239 C238 1.424 . S
C239 C240 1.347 . S
C240 H232 0.951 . S
C240 C235 1.429 . S
C240 C239 1.347 . S
H241 C242 0.951 . S
C242 H241 0.951 . S
C242 C248 1.265 . S
H243 C248 0.950 . S
H244 C252 0.949 . S
H245 C253 0.950 . S
H246 C254 0.951 . S
H247 C255 0.951 . S
C248 C242 1.265 . S
C248 H243 0.950 . S
C248 C249 1.478 . S
C249 C236 1.394 . S
C249 C248 1.478 . S
C249 C250 1.397 1_556 S
C250 C249 1.397 1_554 S
C250 C251 1.438 . S
C250 C255 1.429 . S
C251 C234 1.394 1_554 S
C251 C250 1.438 . S
C251 C252 1.428 . S
C252 H244 0.949 . S
C252 C251 1.428 . S
C252 C253 1.345 . S
C253 H245 0.950 . S
C253 C252 1.345 . S
C253 C254 1.424 . S
C254 H246 0.951 . S
C254 C253 1.424 . S
C254 C255 1.347 . S
C255 H247 0.951 . S
C255 C250 1.429 . S
C255 C254 1.347 . S
H256 C257 0.951 . S
C257 H256 0.951 . S
C257 C263 1.265 . S
H258 C263 0.950 . S
H259 C267 0.949 . S
H260 C268 0.950 . S
H261 C269 0.951 . S
H262 C270 0.951 . S
C263 C257 1.265 . S
C263 H258 0.950 . S
C263 C264 1.478 . S
C264 C263 1.478 . S
C264 C265 1.397 . S
C264 C281 1.394 . S
C265 C264 1.397 . S
C265 C266 1.438 . S
C265 C270 1.429 . S
C266 C265 1.438 . S
C266 C267 1.428 . S
C266 C279 1.394 . S
C267 H259 0.949 . S
C267 C266 1.428 . S
C267 C268 1.345 . S
C268 H260 0.950 . S
C268 C267 1.345 . S
C268 C269 1.424 . S
C269 H261 0.951 . S
C269 C268 1.424 . S
C269 C270 1.347 . S
C270 H262 0.951 . S
C270 C265 1.429 . S
C270 C269 1.347 . S
H271 C272 0.951 . S
C272 H271 0.951 . S
C272 C278 1.265 . S
H273 C278 0.950 . S
H274 C282 0.949 . S
H275 C283 0.950 . S
H276 C284 0.951 . S
H277 C285 0.951 . S
C278 C272 1.265 . S
C278 H273 0.950 . S
C278 C279 1.478 . S
C279 C266 1.394 . S
C279 C278 1.478 . S
C279 C280 1.397 . S
C280 C279 1.397 . S
C280 C281 1.438 . S
C280 C285 1.429 . S
C281 C264 1.394 . S
C281 C280 1.438 . S
C281 C282 1.428 . S
C282 H274 0.949 . S
C282 C281 1.428 . S
C282 C283 1.345 . S
C283 H275 0.950 . S
C283 C282 1.345 . S
C283 C284 1.424 . S
C284 H276 0.951 . S
C284 C283 1.424 . S
C284 C285 1.347 . S
C285 H277 0.951 . S
C285 C280 1.429 . S
C285 C284 1.347 . S
H286 C287 0.951 . S
C287 H286 0.951 . S
C287 C293 1.265 . S
H288 C293 0.950 . S
H289 C297 0.949 . S
H290 C298 0.950 . S
H291 C299 0.951 . S
H292 C300 0.951 . S
C293 C287 1.265 . S
C293 H288 0.950 . S
C293 C294 1.478 . S
C294 C293 1.478 . S
C294 C295 1.397 . S
C294 C311 1.394 . S
C295 C294 1.397 . S
C295 C296 1.438 . S
C295 C300 1.429 . S
C296 C295 1.438 . S
C296 C297 1.428 . S
C296 C309 1.394 . S
C297 H289 0.949 . S
C297 C296 1.428 . S
C297 C298 1.345 . S
C298 H290 0.950 . S
C298 C297 1.345 . S
C298 C299 1.424 . S
C299 H291 0.951 . S
C299 C298 1.424 . S
C299 C300 1.347 . S
C300 H292 0.951 . S
C300 C295 1.429 . S
C300 C299 1.347 . S
H301 C302 0.951 . S
C302 H301 0.951 . S
C302 C308 1.265 . S
H303 C308 0.950 . S
H304 C312 0.949 . S
H305 C313 0.950 . S
H306 C314 0.951 . S
H307 C315 0.951 . S
C308 C302 1.265 . S
C308 H303 0.950 . S
C308 C309 1.478 . S
C309 C296 1.394 . S
C309 C308 1.478 . S
C309 C310 1.397 . S
C310 C309 1.397 . S
C310 C311 1.438 . S
C310 C315 1.429 . S
C311 C294 1.394 . S
C311 C310 1.438 . S
C311 C312 1.428 . S
C312 H304 0.949 . S
C312 C311 1.428 . S
C312 C313 1.345 . S
C313 H305 0.950 . S
C313 C312 1.345 . S
C313 C314 1.424 . S
C314 H306 0.951 . S
C314 C313 1.424 . S
C314 C315 1.347 . S
C315 H307 0.951 . S
C315 C310 1.429 . S
C315 C314 1.347 . S
H316 C317 0.951 . S
C317 H316 0.951 . S
C317 C323 1.265 . S
H318 C323 0.950 . S
H319 C327 0.949 . S
H320 C328 0.950 . S
H321 C329 0.951 . S
H322 C330 0.951 . S
C323 C317 1.265 . S
C323 H318 0.950 . S
C323 C324 1.478 . S
C324 C323 1.478 . S
C324 C325 1.397 . S
C324 C341 1.394 . S
C325 C324 1.397 . S
C325 C326 1.438 . S
C325 C330 1.429 . S
C326 C325 1.438 . S
C326 C327 1.428 . S
C326 C339 1.394 . S
C327 H319 0.949 . S
C327 C326 1.428 . S
C327 C328 1.345 . S
C328 H320 0.950 . S
C328 C327 1.345 . S
C328 C329 1.424 . S
C329 H321 0.951 . S
C329 C328 1.424 . S
C329 C330 1.347 . S
C330 H322 0.951 . S
C330 C325 1.429 . S
C330 C329 1.347 . S
H331 C332 0.951 . S
C332 H331 0.951 . S
C332 C338 1.265 . S
H333 C338 0.950 . S
H334 C342 0.949 . S
H335 C343 0.950 . S
H336 C344 0.951 . S
H337 C345 0.951 . S
C338 C332 1.265 . S
C338 H333 0.950 . S
C338 C339 1.478 . S
C339 C326 1.394 . S
C339 C338 1.478 . S
C339 C340 1.397 . S
C340 C339 1.397 . S
C340 C341 1.438 . S
C340 C345 1.429 . S
C341 C324 1.394 . S
C341 C340 1.438 . S
C341 C342 1.428 . S
C342 H334 0.949 . S
C342 C341 1.428 . S
C342 C343 1.345 . S
C343 H335 0.950 . S
C343 C342 1.345 . S
C343 C344 1.424 . S
C344 H336 0.951 . S
C344 C343 1.424 . S
C344 C345 1.347 . S
C345 H337 0.951 . S
C345 C340 1.429 . S
C345 C344 1.347 . S
H346 C347 0.951 . S
C347 H346 0.951 . S
C347 C353 1.265 . S
H348 C353 0.950 . S
H349 C357 0.949 . S
H350 C358 0.950 . S
H351 C359 0.951 . S
H352 C360 0.951 . S
C353 C347 1.265 . S
C353 H348 0.950 . S
C353 C354 1.478 . S
C354 C353 1.478 . S
C354 C355 1.397 . S
C354 C371 1.394 . S
C355 C354 1.397 . S
C355 C356 1.438 . S
C355 C360 1.429 . S
C356 C355 1.438 . S
C356 C357 1.428 . S
C356 C369 1.394 . S
C357 H349 0.949 . S
C357 C356 1.428 . S
C357 C358 1.345 . S
C358 H350 0.950 . S
C358 C357 1.345 . S
C358 C359 1.424 . S
C359 H351 0.951 . S
C359 C358 1.424 . S
C359 C360 1.347 . S
C360 H352 0.951 . S
C360 C355 1.429 . S
C360 C359 1.347 . S
H361 C362 0.951 . S
C362 H361 0.951 . S
C362 C368 1.265 . S
H363 C368 0.950 . S
H364 C372 0.949 . S
H365 C373 0.950 . S
H366 C374 0.951 . S
H367 C375 0.951 . S
C368 C362 1.265 . S
C368 H363 0.950 . S
C368 C369 1.478 . S
C369 C356 1.394 . S
C369 C368 1.478 . S
C369 C370 1.397 . S
C370 C369 1.397 . S
C370 C371 1.438 . S
C370 C375 1.429 . S
C371 C354 1.394 . S
C371 C370 1.438 . S
C371 C372 1.428 . S
C372 H364 0.949 . S
C372 C371 1.428 . S
C372 C373 1.345 . S
C373 H365 0.950 . S
C373 C372 1.345 . S
C373 C374 1.424 . S
C374 H366 0.951 . S
C374 C373 1.424 . S
C374 C375 1.347 . S
C375 H367 0.951 . S
C375 C370 1.429 . S
C375 C374 1.347 . S
H376 C377 0.951 . S
C377 H376 0.951 . S
C377 C383 1.265 1_545 S
H378 C383 0.950 1_655 S
H379 C387 0.949 . S
H380 C388 0.950 . S
H381 C389 0.951 . S
H382 C390 0.951 . S
C383 C377 1.265 1_565 S
C383 H378 0.950 1_455 S
C383 C384 1.478 . S
C384 C383 1.478 . S
C384 C385 1.397 . S
C384 C401 1.394 1_565 S
C385 C384 1.397 . S
C385 C386 1.438 . S
C385 C390 1.429 1_455 S
C386 C385 1.438 . S
C386 C387 1.428 . S
C386 C399 1.398 . S
C387 H379 0.949 . S
C387 C386 1.428 . S
C387 C388 1.345 1_455 S
C388 H380 0.950 . S
C388 C387 1.345 1_655 S
C388 C389 1.424 . S
C389 H381 0.951 . S
C389 C388 1.424 . S
C389 C390 1.347 . S
C390 H382 0.951 . S
C390 C385 1.429 1_655 S
C390 C389 1.347 . S
H391 C392 0.951 . S
C392 H391 0.951 . S
C392 C398 1.265 1_565 S
H393 C398 0.950 . S
H394 C402 0.949 . S
H395 C403 0.950 . S
H396 C404 0.951 . S
H397 C405 0.951 . S
C398 C392 1.265 1_545 S
C398 H393 0.950 . S
C398 C399 1.478 1_545 S
C399 C386 1.398 . S
C399 C398 1.478 1_565 S
C399 C400 1.393 1_565 S
C400 C399 1.393 1_545 S
C400 C401 1.438 . S
C400 C405 1.429 . S
C401 C384 1.394 1_545 S
C401 C400 1.438 . S
C401 C402 1.428 . S
C402 H394 0.949 . S
C402 C401 1.428 . S
C402 C403 1.345 . S
C403 H395 0.950 . S
C403 C402 1.345 . S
C403 C404 1.424 . S
C404 H396 0.951 . S
C404 C403 1.424 . S
C404 C405 1.347 . S
C405 H397 0.951 . S
C405 C400 1.429 . S
C405 C404 1.347 . S
H406 C407 0.950 1_565 S
C407 H406 0.950 1_545 S
C407 C413 1.265 1_455 S
H408 C413 0.950 . S
H409 C417 0.949 . S
H410 C418 0.950 . S
H411 C419 0.951 . S
H412 C420 0.951 . S
C413 C407 1.265 1_655 S
C413 H408 0.950 . S
C413 C414 1.479 . S
C414 C413 1.479 . S
C414 C415 1.416 . S
C414 C431 1.374 1_645 S
C415 C414 1.416 . S
C415 C416 1.438 . S
C415 C420 1.429 . S
C416 C415 1.438 . S
C416 C417 1.428 . S
C416 C429 1.394 1_645 S
C417 H409 0.949 . S
C417 C416 1.428 . S
C417 C418 1.345 . S
C418 H410 0.950 . S
C418 C417 1.345 . S
C418 C419 1.424 . S
C419 H411 0.951 . S
C419 C418 1.424 . S
C419 C420 1.347 . S
C420 H412 0.951 . S
C420 C415 1.429 . S
C420 C419 1.347 . S
H421 C422 0.951 . S
C422 H421 0.951 . S
C422 C428 1.265 1_655 S
H423 C428 0.950 . S
H424 C432 0.949 . S
H425 C433 0.950 . S
H426 C434 0.951 . S
H427 C435 0.951 . S
C428 C422 1.265 1_455 S
C428 H423 0.950 . S
C428 C429 1.478 . S
C429 C416 1.394 1_465 S
C429 C428 1.478 . S
C429 C430 1.397 . S
C430 C429 1.397 . S
C430 C431 1.438 . S
C430 C435 1.429 . S
C431 C414 1.374 1_465 S
C431 C430 1.438 . S
C431 C432 1.428 . S
C432 H424 0.949 . S
C432 C431 1.428 . S
C432 C433 1.345 . S
C433 H425 0.950 . S
C433 C432 1.345 . S
C433 C434 1.424 . S
C434 H426 0.951 . S
C434 C433 1.424 . S
C434 C435 1.347 . S
C435 H427 0.951 . S
C435 C430 1.429 . S
C435 C434 1.347 . S
H436 C437 0.951 . S
C437 H436 0.951 . S
C437 C443 1.265 . S
H438 C443 0.950 . S
H439 C447 0.949 . S
H440 C448 0.950 . S
H441 C449 0.951 . S
H442 C450 0.951 . S
C443 C437 1.265 . S
C443 H438 0.950 . S
C443 C444 1.478 . S
C444 C443 1.478 . S
C444 C445 1.397 . S
C444 C461 1.394 . S
C445 C444 1.397 . S
C445 C446 1.438 . S
C445 C450 1.429 . S
C446 C445 1.438 . S
C446 C447 1.428 . S
C446 C459 1.394 . S
C447 H439 0.949 . S
C447 C446 1.428 . S
C447 C448 1.345 . S
C448 H440 0.950 . S
C448 C447 1.345 . S
C448 C449 1.424 . S
C449 H441 0.951 . S
C449 C448 1.424 . S
C449 C450 1.347 . S
C450 H442 0.951 . S
C450 C445 1.429 . S
C450 C449 1.347 . S
H451 C452 0.951 . S
C452 H451 0.951 . S
C452 C458 1.265 . S
H453 C458 0.950 . S
H454 C462 0.949 . S
H455 C463 0.950 . S
H456 C464 0.951 . S
H457 C465 0.951 . S
C458 C452 1.265 . S
C458 H453 0.950 . S
C458 C459 1.478 . S
C459 C446 1.394 . S
C459 C458 1.478 . S
C459 C460 1.397 . S
C460 C459 1.397 . S
C460 C461 1.438 . S
C460 C465 1.429 . S
C461 C444 1.394 . S
C461 C460 1.438 . S
C461 C462 1.428 . S
C462 H454 0.949 . S
C462 C461 1.428 . S
C462 C463 1.345 . S
C463 H455 0.950 . S
C463 C462 1.345 . S
C463 C464 1.424 . S
C464 H456 0.951 . S
C464 C463 1.424 . S
C464 C465 1.347 . S
C465 H457 0.951 . S
C465 C460 1.429 . S
C465 C464 1.347 . S
H466 C467 0.951 . S
C467 H466 0.951 . S
C467 C473 1.265 . S
H468 C473 0.950 . S
H469 C477 0.949 . S
H470 C478 0.950 . S
H471 C479 0.951 . S
H472 C480 0.951 . S
C473 C467 1.265 . S
C473 H468 0.950 . S
C473 C474 1.478 . S
C474 C473 1.478 . S
C474 C475 1.397 . S
C474 C491 1.394 . S
C475 C474 1.397 . S
C475 C476 1.438 . S
C475 C480 1.429 . S
C476 C475 1.438 . S
C476 C477 1.428 . S
C476 C489 1.394 . S
C477 H469 0.949 . S
C477 C476 1.428 . S
C477 C478 1.345 . S
C478 H470 0.950 . S
C478 C477 1.345 . S
C478 C479 1.424 . S
C479 H471 0.951 . S
C479 C478 1.424 . S
C479 C480 1.347 . S
C480 H472 0.951 . S
C480 C475 1.429 . S
C480 C479 1.347 . S
H481 C482 0.951 . S
C482 H481 0.951 . S
C482 C488 1.265 . S
H483 C488 0.950 . S
H484 C492 0.949 . S
H485 C493 0.950 . S
H486 C494 0.951 . S
H487 C495 0.951 . S
C488 C482 1.265 . S
C488 H483 0.950 . S
C488 C489 1.478 . S
C489 C476 1.394 . S
C489 C488 1.478 . S
C489 C490 1.397 . S
C490 C489 1.397 . S
C490 C491 1.438 . S
C490 C495 1.429 . S
C491 C474 1.394 . S
C491 C490 1.438 . S
C491 C492 1.428 . S
C492 H484 0.949 . S
C492 C491 1.428 . S
C492 C493 1.345 . S
C493 H485 0.950 . S
C493 C492 1.345 . S
C493 C494 1.424 . S
C494 H486 0.951 . S
C494 C493 1.424 . S
C494 C495 1.347 . S
C495 H487 0.951 . S
C495 C490 1.429 . S
C495 C494 1.347 . S
C152 C123 1.521 . S
C137 C27 1.541 . S
C167 N6 1.334 . S
C182 C109 1.413 . S
C197 C16 1.435 . S
C212 C128 1.355 . S
C227 N14 1.472 1_556 S
C242 C104 1.495 . S
C257 C57 1.525 . S
C272 C85 1.515 . S
C287 N36 1.397 . S
C302 C71 1.417 . S
C332 C90 1.362 . S
C317 C46 1.439 . S
C362 C66 1.502 . S
C347 N44 1.505 . S
C377 C10 1.511 1_545 S
C392 C62 1.517 . S
C407 C1 1.557 . S
C422 C81 1.533 . S
C452 C100 1.498 . S
C437 C40 1.518 . S
C467 C31 1.557 . S
C482 C119 1.534 . S
