# Generated by pormake.
# Topology zzz, (3,6)-cn, num edge types: 1
# Building blocks:
#     Node 0, Type 0, BuildingBlock: KAKCAD_clean_linker_0, # of connection points: 3
#     Node 1, Type 0, BuildingBlock: KAKCAD_clean_linker_0, # of connection points: 3
#     Node 2, Type 0, BuildingBlock: KAKCAD_clean_linker_0, # of connection points: 3
#     Node 3, Type 0, BuildingBlock: KAKCAD_clean_linker_0, # of connection points: 3
#     Node 4, Type 0, BuildingBlock: KAKCAD_clean_linker_0, # of connection points: 3
#     Node 5, Type 0, BuildingBlock: KAKCAD_clean_linker_0, # of connection points: 3
#     Node 6, Type 0, BuildingBlock: KAKCAD_clean_linker_0, # of connection points: 3
#     Node 7, Type 0, BuildingBlock: KAKCAD_clean_linker_0, # of connection points: 3
#     Node 8, Type 1, BuildingBlock: KUMJIN_clean_sbu_1, # of connection points: 6
#     Node 9, Type 1, BuildingBlock: KUMJIN_clean_sbu_1, # of connection points: 6
#     Node 10, Type 1, BuildingBlock: KUMJIN_clean_sbu_1, # of connection points: 6
#     Node 11, Type 1, BuildingBlock: KUMJIN_clean_sbu_1, # of connection points: 6
#     Edge 12, Type (0, 1), BuildingBlock: AJUNOK_clean_linker_0, # of connection points: 2
#     Edge 13, Type (0, 1), BuildingBlock: AJUNOK_clean_linker_0, # of connection points: 2
#     Edge 14, Type (0, 1), BuildingBlock: AJUNOK_clean_linker_0, # of connection points: 2
#     Edge 15, Type (0, 1), BuildingBlock: AJUNOK_clean_linker_0, # of connection points: 2
#     Edge 16, Type (0, 1), BuildingBlock: AJUNOK_clean_linker_0, # of connection points: 2
#     Edge 17, Type (0, 1), BuildingBlock: AJUNOK_clean_linker_0, # of connection points: 2
#     Edge 18, Type (0, 1), BuildingBlock: AJUNOK_clean_linker_0, # of connection points: 2
#     Edge 19, Type (0, 1), BuildingBlock: AJUNOK_clean_linker_0, # of connection points: 2
#     Edge 20, Type (0, 1), BuildingBlock: AJUNOK_clean_linker_0, # of connection points: 2
#     Edge 21, Type (0, 1), BuildingBlock: AJUNOK_clean_linker_0, # of connection points: 2
#     Edge 22, Type (0, 1), BuildingBlock: AJUNOK_clean_linker_0, # of connection points: 2
#     Edge 23, Type (0, 1), BuildingBlock: AJUNOK_clean_linker_0, # of connection points: 2
#     Edge 24, Type (0, 1), BuildingBlock: AJUNOK_clean_linker_0, # of connection points: 2
#     Edge 25, Type (0, 1), BuildingBlock: AJUNOK_clean_linker_0, # of connection points: 2
#     Edge 26, Type (0, 1), BuildingBlock: AJUNOK_clean_linker_0, # of connection points: 2
#     Edge 27, Type (0, 1), BuildingBlock: AJUNOK_clean_linker_0, # of connection points: 2
#     Edge 28, Type (0, 1), BuildingBlock: AJUNOK_clean_linker_0, # of connection points: 2
#     Edge 29, Type (0, 1), BuildingBlock: AJUNOK_clean_linker_0, # of connection points: 2
#     Edge 30, Type (0, 1), BuildingBlock: AJUNOK_clean_linker_0, # of connection points: 2
#     Edge 31, Type (0, 1), BuildingBlock: AJUNOK_clean_linker_0, # of connection points: 2
#     Edge 32, Type (0, 1), BuildingBlock: AJUNOK_clean_linker_0, # of connection points: 2
#     Edge 33, Type (0, 1), BuildingBlock: AJUNOK_clean_linker_0, # of connection points: 2
#     Edge 34, Type (0, 1), BuildingBlock: AJUNOK_clean_linker_0, # of connection points: 2
#     Edge 35, Type (0, 1), BuildingBlock: AJUNOK_clean_linker_0, # of connection points: 2
# Relax obj value: 0.349
# Max RMSD: 0.204
# Mean RMSD: 0.183
data_MOF--net-zzz--node1-KUMJIN_clean_sbu_1--node2-KAKCAD_clean_linker_0--edge1-AJUNOK_clean_linker_0
_symmetry_space_group_name_H-M    P1
_symmetry_Int_Tables_number       1
_symmetry_cell_setting            triclinic
loop_
_symmetry_equiv_pos_as_xyz
'x, y, z'
_cell_length_a     44.675795
_cell_length_b     44.747622
_cell_length_c     16.6374
_cell_angle_alpha  89.926972
_cell_angle_beta   90.157271
_cell_angle_gamma 90.29785
loop_
_atom_site_label
_atom_site_type_symbol
_atom_site_fract_x
_atom_site_fract_y
_atom_site_fract_z
_atom_type_partial_charge
C0 C 0.83634 0.6044 0.04844 0.0
C1 C 0.82736 0.58851 0.9796 0.0
C2 C 0.81583 0.6091 0.11049 0.0
C3 C 0.78652 0.59758 0.1038 0.0
C4 C 0.77642 0.58881 0.02675 0.0
C5 C 0.79678 0.58457 0.96479 0.0
C6 C 0.77029 0.58614 0.17628 0.0
C7 C 0.73964 0.5797 0.17083 0.0
C8 C 0.72652 0.55709 0.21724 0.0
C9 C 0.74367 0.54413 0.28112 0.0
C10 C 0.77373 0.554 0.29584 0.0
C11 C 0.78661 0.57433 0.2415 0.0
C12 C 0.79402 0.54261 0.36209 0.0
C13 C 0.7958 0.55788 0.436 0.0
C14 C 0.81725 0.5224 0.34429 0.0
C15 C 0.84171 0.51823 0.39736 0.0
C16 C 0.84428 0.53464 0.46952 0.0
C17 C 0.69751 0.5449 0.18384 0.0
C18 C 0.67092 0.56169 0.18902 0.0
C19 C 0.69883 0.52284 0.12371 0.0
C20 C 0.67508 0.51849 0.06884 0.0
C21 C 0.64861 0.53565 0.07248 0.0
C22 C 0.64682 0.55696 0.13495 0.0
C23 C 0.82036 0.55389 0.48884 0.0
H24 H 0.85987 0.6087 0.0597 0.0
H25 H 0.82404 0.61792 0.16701 0.0
H26 H 0.75395 0.58057 1.0165 0.0
H27 H 0.78916 0.57313 0.91103 0.0
H28 H 0.72655 0.58964 0.1229 0.0
H29 H 0.81028 0.57917 0.24759 0.0
H30 H 0.73407 0.52645 0.31744 0.0
H31 H 0.77898 0.57429 0.45097 0.0
H32 H 0.81735 0.51102 0.28686 0.0
H33 H 0.85952 0.50333 0.37957 0.0
H34 H 0.66946 0.57976 0.23206 0.0
H35 H 0.7194 0.51059 0.11469 0.0
H36 H 0.821 0.56664 0.54409 0.0
H37 H 0.62708 0.57071 0.14073 0.0
H38 H 0.67843 0.50274 0.02049 0.0
C39 C 0.93326 0.80896 0.94987 0.0
C40 C 0.94771 0.8368 0.94644 0.0
C41 C 0.93203 0.79323 0.02266 0.0
C42 C 0.94626 0.80468 0.09217 0.0
C43 C 0.95735 0.83411 0.08989 0.0
C44 C 0.95777 0.85 0.01832 0.0
C45 C 0.95484 0.78482 0.16059 0.0
C46 C 0.96192 0.7549 0.14569 0.0
C47 C 0.97551 0.73672 0.20379 0.0
C48 C 0.98393 0.74991 0.27898 0.0
C49 C 0.97636 0.78036 0.29574 0.0
C50 C 0.96077 0.79665 0.23712 0.0
C51 C 0.98548 0.79784 0.36954 0.0
C52 C 0.96376 0.80567 0.42701 0.0
C53 C 0.01223 0.81469 0.36883 0.0
C54 C 0.01662 0.83918 0.42135 0.0
C55 C 0.99435 0.84786 0.47674 0.0
C56 C 0.98048 0.70468 0.17841 0.0
C57 C 0.95579 0.68829 0.1485 0.0
C58 C 0.00922 0.69373 0.16089 0.0
C59 C 0.01299 0.66821 0.11156 0.0
C60 C 0.98817 0.65303 0.07684 0.0
C61 C 0.95949 0.66339 0.09802 0.0
C62 C 0.96817 0.83003 0.47985 0.0
H63 H 0.92485 0.79851 0.89557 0.0
H64 H 0.92193 0.7712 0.02273 0.0
H65 H 0.96868 0.84407 0.14082 0.0
H66 H 0.96925 0.87139 0.01804 0.0
H67 H 0.95823 0.74566 0.08632 0.0
H68 H 0.95463 0.81952 0.25034 0.0
H69 H 0.99574 0.73679 0.32349 0.0
H70 H 0.94241 0.79408 0.42759 0.0
H71 H 0.02891 0.81036 0.32322 0.0
H72 H 0.03677 0.85246 0.4146 0.0
H73 H 0.93329 0.69639 0.15861 0.0
H74 H 0.02882 0.70604 0.18071 0.0
H75 H 0.95043 0.8356 0.52134 0.0
H76 H 0.93959 0.65369 0.07148 0.0
H77 H 0.03554 0.66108 0.09817 0.0
C78 C 0.71853 0.91072 0.97253 0.0
C79 C 0.68951 0.92236 0.96569 0.0
C80 C 0.7354 0.9157 0.04244 0.0
C81 C 0.72382 0.93321 0.10559 0.0
C82 C 0.69353 0.94145 0.10198 0.0
C83 C 0.67659 0.93584 0.03353 0.0
C84 C 0.74387 0.94749 0.16678 0.0
C85 C 0.77304 0.95604 0.14571 0.0
C86 C 0.79067 0.9746 0.19505 0.0
C87 C 0.77759 0.98631 0.26663 0.0
C88 C 0.74808 0.97734 0.28963 0.0
C89 C 0.73246 0.95701 0.24087 0.0
C90 C 0.73063 0.98991 0.35892 0.0
C91 C 0.72885 0.97422 0.43221 0.0
C92 C 0.70856 0.01154 0.34326 0.0
C93 C 0.68468 0.01627 0.39692 0.0
C94 C 0.68181 0.99938 0.46822 0.0
C95 C 0.82187 0.98134 0.16498 0.0
C96 C 0.83985 0.9574 0.13906 0.0
C97 C 0.83112 1.01045 0.14409 0.0
C98 C 0.85662 0.01518 0.09514 0.0
C99 C 0.87356 0.99095 0.06506 0.0
C100 C 0.86484 0.96203 0.08946 0.0
C101 C 0.70507 0.97914 0.48642 0.0
H102 H 0.72898 0.89993 0.92166 0.0
H103 H 0.75824 0.90776 0.0442 0.0
H104 H 0.68341 0.95509 0.14803 0.0
H105 H 0.65444 0.94554 0.03087 0.0
H106 H 0.78189 0.94958 0.08777 0.0
H107 H 0.71028 0.94989 0.25931 0.0
H108 H 0.79007 1.00192 0.3036 0.0
H109 H 0.74488 0.95679 0.44538 0.0
H110 H 0.70853 0.02328 0.28627 0.0
H111 H 0.66743 0.03199 0.37987 0.0
H112 H 0.83326 0.93461 0.15268 0.0
H113 H 0.81765 0.02942 0.16137 0.0
H114 H 0.70448 0.96629 0.54154 0.0
H115 H 0.87616 0.94252 0.0665 0.0
H116 H 0.8625 0.03787 0.07875 0.0
C117 C 0.51153 0.68346 0.37419 0.0
C118 C 0.5262 0.68277 0.44944 0.0
C119 C 0.51457 0.70815 0.32161 0.0
C120 C 0.53186 0.73346 0.3427 0.0
C121 C 0.54535 0.73346 0.41935 0.0
C122 C 0.54248 0.70867 0.47179 0.0
C123 C 0.54254 0.75483 0.27815 0.0
C124 C 0.5318 0.78463 0.26597 0.0
C125 C 0.54411 0.80292 0.2034 0.0
C126 C 0.56693 0.7911 0.15574 0.0
C127 C 0.57529 0.76109 0.16109 0.0
C128 C 0.56372 0.74353 0.22394 0.0
C129 C 0.59035 0.74667 0.09142 0.0
C130 C 0.58212 0.75536 1.01311 0.0
C131 C 0.60759 0.72068 0.1009 0.0
C132 C 0.6116 0.70126 0.03592 0.0
C133 C 0.59793 0.70743 0.96135 0.0
C134 C 0.53278 0.8331 0.17657 0.0
C135 C 0.50659 0.83511 0.12946 0.0
C136 C 0.55301 0.85739 0.17311 0.0
C137 C 0.54826 0.88181 0.12101 0.0
C138 C 0.52283 0.88324 0.07057 0.0
C139 C 0.50166 0.85975 0.07763 0.0
C140 C 0.58606 0.73607 0.94881 0.0
H141 H 0.49887 0.66418 0.35394 0.0
H142 H 0.50465 0.70677 0.26225 0.0
H143 H 0.55956 0.75201 0.4371 0.0
H144 H 0.55368 0.70959 0.52937 0.0
H145 H 0.51416 0.79327 0.30375 0.0
H146 H 0.56995 0.72022 0.22863 0.0
H147 H 0.57646 0.80489 0.10854 0.0
H148 H 0.56896 0.77518 1.00208 0.0
H149 H 0.61543 0.71389 0.15978 0.0
H150 H 0.62182 0.67973 0.04686 0.0
H151 H 0.49099 0.81651 0.12792 0.0
H152 H 0.57397 0.85626 0.20584 0.0
H153 H 0.57531 0.74206 0.89275 0.0
H154 H 0.48169 0.85978 0.04062 0.0
H155 H 0.56573 0.89856 0.11663 0.0
C156 C 0.22622 0.41705 0.39017 0.0
C157 C 0.1994 0.40809 0.35273 0.0
C158 C 0.25169 0.42124 0.3434 0.0
C159 C 0.25029 0.41526 0.26057 0.0
C160 C 0.22709 0.39651 0.23253 0.0
C161 C 0.20145 0.39261 0.27956 0.0
C162 C 0.26476 0.43694 0.20484 0.0
C163 C 0.29302 0.4487 0.22194 0.0
C164 C 0.30393 0.47459 0.18366 0.0
C165 C 0.28555 0.48849 0.12326 0.0
C166 C 0.25717 0.47555 0.10152 0.0
C167 C 0.2474 0.45039 0.14483 0.0
C168 C 0.23585 0.48635 0.03604 0.0
C169 C 0.22455 0.5157 0.03219 0.0
C170 C 0.22164 0.46478 0.98687 0.0
C171 C 0.1961 0.47138 0.94096 0.0
C172 C 0.18422 0.50048 0.93712 0.0
C173 C 0.33407 0.48571 0.21374 0.0
C174 C 0.33758 0.5137 0.25133 0.0
C175 C 0.35735 0.46485 0.22445 0.0
C176 C 0.38161 0.47044 0.27637 0.0
C177 C 0.38476 0.49786 0.31746 0.0
C178 C 0.36261 0.51977 0.3016 0.0
C179 C 0.19935 0.52269 0.98308 0.0
H180 H 0.22602 0.42725 0.44921 0.0
H181 H 0.26985 0.43425 0.36899 0.0
H182 H 0.22629 0.38974 0.17006 0.0
H183 H 0.1815 0.38345 0.25158 0.0
H184 H 0.30608 0.43838 0.26937 0.0
H185 H 0.22489 0.44211 0.13436 0.0
H186 H 0.29346 0.50838 0.09271 0.0
H187 H 0.23424 0.53295 0.06986 0.0
H188 H 0.22919 0.4418 0.98801 0.0
H189 H 0.18497 0.45287 0.91161 0.0
H190 H 0.32006 0.53024 0.24612 0.0
H191 H 0.35548 0.44285 0.19766 0.0
H192 H 0.19138 0.54548 0.98261 0.0
H193 H 0.36395 0.54142 0.33031 0.0
H194 H 0.39674 0.45215 0.28771 0.0
C195 C 0.11063 0.23679 0.36223 0.0
C196 C 0.11962 0.21064 0.32242 0.0
C197 C 0.10399 0.26224 0.31751 0.0
C198 C 0.10684 0.26155 0.23331 0.0
C199 C 0.12518 0.23929 0.19987 0.0
C200 C 0.1319 0.21377 0.24511 0.0
C201 C 0.08244 0.27522 0.18432 0.0
C202 C 0.06879 0.3017 0.20983 0.0
C203 C 0.03935 0.30881 0.18732 0.0
C204 C 0.02399 0.28957 0.13218 0.0
C205 C 0.03861 0.26384 0.10038 0.0
C206 C 0.06766 0.25741 0.1269 0.0
C207 C 0.02438 0.24069 0.04638 0.0
C208 C 0.01036 0.21534 0.08014 0.0
C209 C 0.03283 0.23902 0.96497 0.0
C210 C 0.02804 0.21279 0.91942 0.0
C211 C 0.0149 0.18699 0.95371 0.0
C212 C 0.02514 0.33406 0.23311 0.0
C213 C 0.01994 0.33043 0.31603 0.0
C214 C 0.02424 0.36331 0.20186 0.0
C215 C 0.01917 0.38817 0.25259 0.0
C216 C 0.01551 0.38466 0.33662 0.0
C217 C 0.0152 0.35513 0.36665 0.0
C218 C 1.00564 0.18904 0.03472 0.0
H219 H 0.10275 0.236 0.42371 0.0
H220 H 0.0915 0.27965 0.34732 0.0
H221 H 0.12976 0.2391 0.13597 0.0
H222 H 0.14128 0.1946 0.21466 0.0
H223 H 0.08018 0.31566 0.25364 0.0
H224 H 0.07757 0.23653 0.10773 0.0
H225 H 1.00095 0.29406 0.1161 0.0
H226 H 1.0049 0.21513 0.14354 0.0
H227 H 0.04474 0.25755 0.93763 0.0
H228 H 0.03544 0.21249 0.85752 0.0
H229 H 0.02138 0.30839 0.3428 0.0
H230 H 0.02891 0.36711 0.13882 0.0
H231 H 0.9963 0.16971 0.06493 0.0
H232 H 0.01278 0.35104 0.43045 0.0
H233 H 0.01873 0.41021 0.22581 0.0
C234 C 0.31459 0.11033 0.35643 0.0
C235 C 0.33448 0.12632 0.30681 0.0
C236 C 0.28767 0.09952 0.32515 0.0
C237 C 0.28052 0.10454 0.24403 0.0
C238 C 0.29702 0.12607 0.20104 0.0
C239 C 0.32393 0.13705 0.23255 0.0
C240 C 0.2641 0.08071 0.20022 0.0
C241 C 0.2383 0.06767 0.23268 0.0
C242 C 0.22756 0.03987 0.20534 0.0
C243 C 0.24343 0.02499 0.14269 0.0
C244 C 0.26933 0.03857 0.10795 0.0
C245 C 0.27867 0.06649 0.13652 0.0
C246 C 0.29002 0.02413 0.04852 0.0
C247 C 0.31376 1.00629 0.0766 0.0
C248 C 0.29244 0.03611 0.9704 0.0
C249 C 0.31818 0.03145 0.92321 0.0
C250 C 0.34265 0.01491 0.95286 0.0
C251 C 0.20142 0.02674 0.2503 0.0
C252 C 0.20384 0.02264 0.33402 0.0
C253 C 0.17273 0.0246 0.21548 0.0
C254 C 0.14711 0.01983 0.26377 0.0
C255 C 0.14943 0.01736 0.34837 0.0
C256 C 0.17841 0.01803 0.38203 0.0
C257 C 0.33963 1.00178 0.02966 0.0
H258 H 0.32174 0.10188 0.41435 0.0
H259 H 0.27519 0.08338 0.36046 0.0
H260 H 0.29148 0.13098 0.13898 0.0
H261 H 0.33849 0.15007 0.1939 0.0
H262 H 0.22734 0.07861 0.28268 0.0
H263 H 0.29938 0.07593 0.11346 0.0
H264 H 0.23631 1.003 0.12312 0.0
H265 H 0.31331 0.9977 0.13749 0.0
H266 H 0.27528 0.05101 0.94804 0.0
H267 H 0.31967 0.04253 0.86547 0.0
H268 H 0.22547 0.02466 0.36317 0.0
H269 H 0.16993 0.02816 0.15151 0.0
H270 H 0.35784 0.9889 0.0549 0.0
H271 H 0.18148 0.01642 0.44647 0.0
H272 H 0.12543 0.01865 0.23474 0.0
C273 C 0.48763 0.31956 0.90892 0.0
C274 C 0.50084 0.34638 0.93705 0.0
C275 C 0.48386 0.29447 0.96001 0.0
C276 C 0.49347 0.29512 0.04077 0.0
C277 C 0.5078 0.32143 0.06781 0.0
C278 C 0.51163 0.34643 0.01691 0.0
C279 C 0.48096 0.27319 0.10134 0.0
C280 C 0.49302 0.24435 0.11917 0.0
C281 C 0.47903 0.2256 0.17807 0.0
C282 C 0.45335 0.23619 0.217 0.0
C283 C 0.44343 0.2656 0.20715 0.0
C284 C 0.45669 0.28334 0.14702 0.0
C285 C 0.42512 0.27998 0.27144 0.0
C286 C 0.42999 0.27166 0.35225 0.0
C287 C 0.4099 0.30695 0.25659 0.0
C288 C 0.40738 0.32818 0.31786 0.0
C289 C 0.42007 0.32227 0.39357 0.0
C290 C 0.49118 0.19638 0.20992 0.0
C291 C 0.47164 0.1716 0.21699 0.0
C292 C 0.51805 0.19556 0.25469 0.0
C293 C 0.5241 0.17173 0.30849 0.0
C294 C 0.50326 0.14829 0.3198 0.0
C295 C 0.4774 0.14825 0.27152 0.0
C296 C 0.42703 0.29266 0.4132 0.0
H297 H 0.47959 0.31807 0.84762 0.0
H298 H 0.47192 0.27508 0.93748 0.0
H299 H 0.51455 0.3233 0.13021 0.0
H300 H 0.52178 0.36645 0.04164 0.0
H301 H 0.51292 0.23678 0.08848 0.0
H302 H 0.4495 0.30621 0.13845 0.0
H303 H 0.44258 0.2221 0.26144 0.0
H304 H 0.44063 0.25084 0.36831 0.0
H305 H 0.40379 0.31338 0.19599 0.0
H306 H 0.40053 0.35065 0.3023 0.0
H307 H 0.45051 0.1715 0.18486 0.0
H308 H 0.53328 0.21446 0.2529 0.0
H309 H 0.43584 0.28709 0.47208 0.0
H310 H 0.46089 0.13071 0.27839 0.0
H311 H 0.54422 0.17258 0.34488 0.0
Eu312 Eu 0.97821 0.03428 0.63163 0.0
C313 C 0.08025 0.0621 0.85737 0.0
N314 N 0.07989 0.04465 0.79031 0.0
C315 C 0.12535 0.06782 0.74454 0.0
C316 C 0.10295 0.08374 0.86913 0.0
C317 C 0.10237 0.0468 0.73501 0.0
C318 C 0.12558 0.08646 0.81161 0.0
C319 C 0.05658 0.07769 0.98168 0.0
C320 C 0.05725 0.05906 0.91321 0.0
C321 C 0.07917 0.09919 0.99325 0.0
C322 C 0.10228 0.10218 0.93726 0.0
Eu323 Eu 0.04046 1.00913 0.78178 0.0
N324 N 0.03525 0.03841 0.89992 0.0
C325 C 0.03318 0.07425 0.03661 0.0
C326 C 0.01333 0.03404 0.95562 0.0
C327 C 0.01162 0.05213 0.02384 0.0
H328 H 0.10315 0.03218 0.6838 0.0
H329 H 0.99389 0.0487 0.06713 0.0
H330 H 0.9212 0.06941 0.7169 0.0
H331 H 0.97835 0.96243 0.3654 0.0
H332 H 0.99759 0.01615 0.94933 0.0
H333 H 0.03184 0.08821 0.08966 0.0
H334 H 1.00065 0.99435 0.47047 0.0
H335 H 0.14298 0.0695 0.70025 0.0
H336 H 0.07898 0.11363 0.04538 0.0
H337 H 0.11949 0.11894 0.94704 0.0
H338 H 0.86573 0.06779 0.71544 0.0
H339 H 0.14339 0.10279 0.81859 0.0
H340 H 0.9235 0.9547 0.36038 0.0
N341 N 0.92555 0.03576 0.62806 0.0
C342 C 0.91151 0.01739 0.57519 0.0
C343 C 0.87833 0.05341 0.67587 0.0
C344 C 0.88001 0.016 0.57118 0.0
C345 C 0.90964 0.0542 0.67687 0.0
C346 C 0.86342 0.03403 0.62325 0.0
N347 N 0.95895 1.00405 0.52618 0.0
C348 C 0.97669 0.99128 0.46898 0.0
C349 C 0.915 0.98319 0.46289 0.0
C350 C 0.92874 1.00114 0.5222 0.0
C351 C 0.93317 0.96872 0.40683 0.0
C352 C 0.96413 0.97309 0.40933 0.0
H353 H 0.83917 0.03359 0.62218 0.0
H354 H 0.84199 0.99574 0.51054 0.0
H355 H 0.87266 0.96708 0.41541 0.0
O356 O 1.00659 0.07017 0.58722 0.0
O357 O 0.98144 0.98348 0.63347 0.0
O358 O 0.02708 0.97217 0.69169 0.0
O359 O 0.95836 0.0692 0.55641 0.0
O360 O 0.02405 0.02667 0.57188 0.0
O361 O 0.05889 1.00477 0.6564 0.0
O362 O 0.04873 0.98161 0.88763 0.0
O363 O 0.03295 0.05875 0.74954 0.0
O364 O 0.98267 0.0618 0.74604 0.0
O365 O 0.08207 0.98391 0.79469 0.0
O366 O 0.99258 0.99353 0.81464 0.0
O367 O 0.96205 0.02978 0.76123 0.0
C368 C 1.00337 0.96468 0.64815 0.0
C369 C 0.98842 0.11006 0.50176 0.0
C370 C 0.02142 0.143 0.42641 0.0
C371 C 0.99635 0.15895 0.39888 0.0
C372 C 0.96356 0.12609 0.4737 0.0
C373 C 0.9676 0.15062 0.42299 0.0
C374 C 0.01738 0.11907 0.47944 0.0
C375 C 0.05083 0.01529 0.58586 0.0
C376 C 0.98427 0.08265 0.54883 0.0
C377 C 0.86616 0.99726 0.5143 0.0
C378 C 0.88363 0.98091 0.46017 0.0
C379 C 1.0084 0.07325 0.76856 0.0
C380 C 0.07191 0.93707 0.85103 0.0
C381 C 0.042 0.8922 0.82329 0.0
C382 C 0.06671 0.87482 0.8481 0.0
C383 C 0.09625 0.91949 0.8736 0.0
C384 C 0.0456 0.92339 0.82303 0.0
C385 C 0.09372 0.88839 0.87108 0.0
C386 C 0.96691 1.00821 0.81372 0.0
C387 C 0.07285 0.96972 0.85815 0.0
H388 H 0.99907 0.17786 0.35876 0.0
H389 H 0.94103 0.11948 0.49019 0.0
H390 H 0.9484 0.16294 0.4014 0.0
H391 H 0.03675 0.10683 0.50054 0.0
H392 H 0.06512 0.85084 0.85428 0.0
H393 H 0.11687 0.92974 0.89443 0.0
H394 H 0.02741 0.93749 0.8044 0.0
H395 H 0.11235 0.87472 0.8902 0.0
Eu396 Eu 0.52583 0.05042 0.76906 0.0
C397 C 0.52287 0.92939 0.53278 0.0
N398 N 0.5274 0.95936 0.53169 0.0
C399 C 0.56498 0.95382 0.43015 0.0
C400 C 0.53974 0.91023 0.48344 0.0
C401 C 0.54753 0.97187 0.47986 0.0
C402 C 0.56127 0.92281 0.43243 0.0
C403 C 0.49383 0.88717 0.58087 0.0
C404 C 0.50025 0.91805 0.58054 0.0
C405 C 0.51119 0.8678 0.53391 0.0
C406 C 0.53409 0.87931 0.48523 0.0
Eu407 Eu 0.49803 0.98819 0.62054 0.0
N408 N 0.48359 0.93743 0.62385 0.0
C409 C 0.46972 0.87683 0.62698 0.0
C410 C 0.45943 0.9277 0.66668 0.0
C411 C 0.4523 0.89724 0.66957 0.0
H412 H 0.55052 0.99579 0.47755 0.0
H413 H 0.43337 0.88953 0.7045 0.0
H414 H 0.50486 0.03631 0.95758 0.0
H415 H 0.53377 0.15892 0.61845 0.0
H416 H 0.44588 0.94343 0.69951 0.0
H417 H 0.46405 0.85327 0.62895 0.0
H418 H 0.54554 0.10566 0.64242 0.0
H419 H 0.58129 0.96383 0.39021 0.0
H420 H 0.50671 0.84398 0.53363 0.0
H421 H 0.54691 0.8642 0.44808 0.0
H422 H 0.47828 0.06124 0.06921 0.0
H423 H 0.57473 0.90887 0.39363 0.0
H424 H 0.50076 0.18588 0.71273 0.0
N425 N 0.50091 0.07315 0.87825 0.0
C426 C 0.49229 0.10194 0.86886 0.0
C427 C 0.48192 0.07292 1.01302 0.0
C428 C 0.47709 0.11715 0.93063 0.0
C429 C 0.49706 0.05889 0.95006 0.0
C430 C 0.47149 0.10206 1.00287 0.0
N431 N 0.51751 0.10204 0.74503 0.0
C432 C 0.53048 0.11714 0.68258 0.0
C433 C 0.49408 0.14741 0.78991 0.0
C434 C 0.50072 0.11683 0.79971 0.0
C435 C 0.5054 0.16242 0.72254 0.0
C436 C 0.52409 0.14731 0.66931 0.0
H437 H 0.45995 0.11296 0.05188 0.0
H438 H 0.45717 0.1592 0.96596 0.0
H439 H 0.47197 0.18571 0.84244 0.0
O440 O 0.55798 0.04017 0.86348 0.0
O441 O 0.50233 0.06377 0.65106 0.0
O442 O 0.519 0.02959 0.56159 0.0
O443 O 0.56519 0.07891 0.78816 0.0
O444 O 0.55877 0.03785 0.6698 0.0
O445 O 0.54859 0.98854 0.64586 0.0
O446 O 0.46246 0.01854 0.58378 0.0
O447 O 0.49988 0.96818 0.74635 0.0
O448 O 0.52658 1.0027 0.82275 0.0
O449 O 0.47069 0.97779 0.51547 0.0
O450 O 0.46319 0.9977 0.71842 0.0
O451 O 0.47837 0.03625 0.80396 0.0
C452 C 0.5114 0.05724 0.578 0.0
C453 C 0.60753 0.05064 0.82313 0.0
C454 C 0.64289 1.00988 0.79674 0.0
C455 C 0.66621 0.03152 0.79904 0.0
C456 C 0.63109 0.07124 0.8251 0.0
C457 C 0.66023 0.06175 0.81155 0.0
C458 C 0.61336 0.02049 0.80514 0.0
C459 C 0.56748 0.01123 0.64628 0.0
C460 C 0.57689 0.06069 0.84024 0.0
C461 C 0.46906 0.14719 0.91952 0.0
C462 C 0.47749 0.16229 0.84917 0.0
C463 C 0.5145 0.9758 0.8124 0.0
C464 C 0.46006 0.02224 0.44307 0.0
C465 C 0.44337 0.06543 0.36551 0.0
C466 C 0.46726 0.06108 0.31191 0.0
C467 C 0.48368 0.0182 0.38857 0.0
C468 C 0.43987 0.04566 0.43073 0.0
C469 C 0.48713 0.03749 0.32328 0.0
C470 C 0.45841 0.01646 0.77857 0.0
C471 C 0.45775 1.004 0.51663 0.0
H472 H 0.68952 0.02549 0.79522 0.0
H473 H 0.62694 0.09462 0.83757 0.0
H474 H 0.67848 0.07774 0.81377 0.0
H475 H 0.59446 1.00577 0.79867 0.0
H476 H 0.47051 0.0758 0.26094 0.0
H477 H 0.49973 1.00046 0.39695 0.0
H478 H 0.42121 0.04811 0.47163 0.0
H479 H 0.50546 0.03434 0.28178 0.0
Eu480 Eu 0.54845 0.50165 0.63129 0.0
C481 C 0.43852 0.48009 0.84928 0.0
N482 N 0.43997 0.4988 0.78493 0.0
C483 C 0.39073 0.48361 0.74368 0.0
C484 C 0.41314 0.46181 0.86216 0.0
C485 C 0.41637 0.50122 0.73331 0.0
C486 C 0.38916 0.46367 0.80812 0.0
C487 C 0.46191 0.45948 0.96873 0.0
C488 C 0.46265 0.47901 0.90199 0.0
C489 C 0.43695 0.44082 0.98075 0.0
C490 C 0.41256 0.44211 0.92789 0.0
Eu491 Eu 0.48418 0.52762 0.77097 0.0
N492 N 0.48661 0.49729 0.88869 0.0
C493 C 0.48605 0.45967 0.02238 0.0
C494 C 0.50877 0.49938 0.94504 0.0
C495 C 0.50932 0.48011 1.01122 0.0
H496 H 0.41701 0.51711 0.68491 0.0
H497 H 0.52737 0.48154 0.05462 0.0
H498 H 0.61257 0.49331 0.73562 0.0
H499 H 0.52635 0.56687 0.35986 0.0
H500 H 0.52541 0.51662 0.9417 0.0
H501 H 0.48638 0.44495 0.07416 0.0
H502 H 0.5143 0.53275 0.47154 0.0
H503 H 0.37213 0.48555 0.7022 0.0
H504 H 0.43612 0.42559 0.03141 0.0
H505 H 0.39336 0.42774 0.93832 0.0
H506 H 0.66435 0.51255 0.73342 0.0
H507 H 0.3693 0.44999 0.8159 0.0
H508 H 0.57754 0.58765 0.3469 0.0
N509 N 0.5988 0.51829 0.63322 0.0
C510 C 0.60726 0.53707 0.57308 0.0
C511 C 0.64848 0.51976 0.6882 0.0
C512 C 0.63684 0.54813 0.56854 0.0
C513 C 0.61898 0.50919 0.68985 0.0
C514 C 0.65745 0.53937 0.62743 0.0
N515 N 0.55782 0.53472 0.52295 0.0
C516 C 0.5366 0.54171 0.46693 0.0
C517 C 0.59425 0.5647 0.45241 0.0
C518 C 0.58626 0.54527 0.51577 0.0
C519 C 0.57233 0.57266 0.39617 0.0
C520 C 0.54341 0.56102 0.40335 0.0
H521 H 0.68036 0.54741 0.62611 0.0
H522 H 0.66754 0.57612 0.50099 0.0
H523 H 0.63025 0.59059 0.39924 0.0
O524 O 0.54136 0.47119 0.53198 0.0
O525 O 0.54517 0.55277 0.64288 0.0
O526 O 0.49554 0.56071 0.6698 0.0
O527 O 0.58075 0.46614 0.60615 0.0
O528 O 0.50055 0.49502 0.5805 0.0
O529 O 0.4688 0.5287 0.6404 0.0
O530 O 0.47888 0.55667 0.87483 0.0
O531 O 0.48633 0.47724 0.74122 0.0
O532 O 0.53658 0.47148 0.7377 0.0
O533 O 0.44666 0.55888 0.77856 0.0
O534 O 0.53283 0.54065 0.80871 0.0
O535 O 0.55921 0.50054 0.76433 0.0
C536 C 0.52136 0.57005 0.64095 0.0
C537 C 0.55249 0.4226 0.57446 0.0
C538 C 0.5136 0.38439 0.56101 0.0
C539 C 0.52703 0.36797 0.62331 0.0
C540 C 0.56597 0.40568 0.63583 0.0
C541 C 0.55316 0.37857 0.66019 0.0
C542 C 0.52634 0.41169 0.5378 0.0
C543 C 0.47549 0.51071 0.58054 0.0
C544 C 0.56259 0.45327 0.5553 0.0
C545 C 0.64493 0.56743 0.50546 0.0
C546 C 0.6237 0.57565 0.44746 0.0
C547 C 0.50996 0.46027 0.75253 0.0
C548 C 0.46695 0.60419 0.8244 0.0
C549 C 0.50623 0.64217 0.81434 0.0
C550 C 0.48502 0.66251 0.78454 0.0
C551 C 0.44603 0.6247 0.79471 0.0
C552 C 0.49706 0.61297 0.83196 0.0
C553 C 0.45516 0.65368 0.77422 0.0
C554 C 0.55668 0.52329 0.81338 0.0
C555 C 0.45859 0.57279 0.83928 0.0
H556 H 0.51767 0.34675 0.64243 0.0
H557 H 0.58584 0.41373 0.6665 0.0
H558 H 0.56342 0.36582 0.70815 0.0
H559 H 0.51527 0.42494 0.49215 0.0
H560 H 0.49118 0.6855 0.77229 0.0
H561 H 0.42284 0.6182 0.7864 0.0
H562 H 0.51367 0.59719 0.85285 0.0
H563 H 0.43893 0.66949 0.75157 0.0
Eu564 Eu 0.02932 0.55337 0.63613 0.0
C565 C 0.06011 0.45387 0.85667 0.0
N566 N 0.04295 0.45292 0.78892 0.0
C567 C 0.07067 0.41077 0.74108 0.0
C568 C 0.08403 0.43377 0.86756 0.0
C569 C 0.04738 0.43128 0.73238 0.0
C570 C 0.08921 0.41216 0.8086 0.0
C571 C 0.07222 0.47747 0.98409 0.0
C572 C 0.05434 0.47569 0.91407 0.0
C573 C 0.09627 0.45775 0.9944 0.0
C574 C 0.10217 0.43599 0.93632 0.0
Eu575 Eu 1.00445 0.48896 0.77924 0.0
N576 N 0.03139 0.49513 0.90161 0.0
C577 C 0.06535 0.49897 0.04201 0.0
C578 C 0.0235 0.51472 0.96054 0.0
C579 C 0.04059 0.51736 0.03067 0.0
H580 H 0.03309 0.42963 0.68031 0.0
H581 H 0.03436 0.53329 0.07652 0.0
H582 H 0.06329 0.61 0.72875 0.0
H583 H 0.95666 0.55549 0.37043 0.0
H584 H 1.00343 0.52759 0.9554 0.0
H585 H 0.07855 0.50104 0.09649 0.0
H586 H 0.98945 0.5325 0.47228 0.0
H587 H 0.07431 0.39391 0.69562 0.0
H588 H 0.11036 0.45903 0.04736 0.0
H589 H 0.12081 0.42094 0.94524 0.0
H590 H 0.06006 0.66523 0.7352 0.0
H591 H 0.10738 0.39637 0.81478 0.0
H592 H 0.94775 0.61 0.37241 0.0
N593 N 0.02938 0.606 0.63991 0.0
C594 C 0.01057 0.62029 0.58883 0.0
C595 C 0.04589 0.65286 0.69403 0.0
C596 C 1.00833 0.65171 0.58909 0.0
C597 C 0.04754 0.62167 0.69073 0.0
C598 C 0.02599 0.66795 0.64348 0.0
N599 N 0.9983 0.57341 0.53344 0.0
C600 C 0.9858 0.5563 0.47394 0.0
C601 C 0.97633 0.61763 0.47582 0.0
C602 C 0.9947 0.6035 0.53337 0.0
C603 C 0.96213 0.60001 0.41748 0.0
C604 C 0.96714 0.56925 0.41608 0.0
H605 H 0.02491 0.69212 0.64571 0.0
H606 H 0.98699 0.68997 0.53355 0.0
H607 H 0.95902 0.6601 0.4341 0.0
O608 O 0.0648 0.52705 0.58527 0.0
O609 O 0.97846 0.54896 0.6361 0.0
O610 O 0.96583 0.50389 0.69623 0.0
O611 O 0.06376 0.57576 0.56278 0.0
O612 O 0.02186 0.50812 0.57173 0.0
O613 O 1.00104 0.47143 0.65274 0.0
O614 O 0.97829 0.4747 0.88301 0.0
O615 O 0.05321 0.49672 0.7396 0.0
O616 O 0.05809 0.54654 0.74842 0.0
O617 O 0.97972 0.44658 0.77848 0.0
O618 O 0.98879 0.53633 0.81608 0.0
O619 O 0.02621 0.56679 0.76809 0.0
C620 C 0.95906 0.5275 0.65192 0.0
C621 C 0.10406 0.54684 0.50136 0.0
C622 C 0.13734 0.51391 0.42832 0.0
C623 C 0.15252 0.539 0.39742 0.0
C624 C 0.11919 0.57179 0.46997 0.0
C625 C 0.14352 0.5678 0.41858 0.0
C626 C 0.11364 0.51803 0.4815 0.0
C627 C 0.01105 0.48081 0.58296 0.0
C628 C 0.07708 0.55023 0.55022 0.0
C629 C 0.98916 0.66586 0.534 0.0
C630 C 0.97323 0.64885 0.47737 0.0
C631 C 0.06881 0.51999 0.76426 0.0
C632 C 0.93243 0.45609 0.83333 0.0
C633 C 0.88845 0.48792 0.84126 0.0
C634 C 0.87277 0.46831 0.79059 0.0
C635 C 0.91634 0.4362 0.78395 0.0
C636 C 0.91806 0.4817 0.86225 0.0
C637 C 0.88665 0.44236 0.76273 0.0
C638 C 1.00422 0.56169 0.81901 0.0
C639 C 0.96512 0.45327 0.84338 0.0
H640 H 0.17143 0.53633 0.3575 0.0
H641 H 0.11208 0.59425 0.48446 0.0
H642 H 0.15524 0.58704 0.39452 0.0
H643 H 0.10205 0.49861 0.5053 0.0
H644 H 0.84977 0.47279 0.77387 0.0
H645 H 0.92703 0.41653 0.75959 0.0
H646 H 0.93009 0.49762 0.89951 0.0
H647 H 0.87449 0.42716 0.72384 0.0
C648 C 0.12281 0.99635 0.47109 0.0
C649 C 0.12226 0.01511 0.40278 0.0
C650 C 0.09934 0.99592 0.52765 0.0
C651 C 0.07376 0.0141 0.51919 0.0
H652 H 0.14185 0.98199 0.48181 0.0
H653 H 0.1016 0.98138 0.57939 0.0
S654 S 0.06022 0.06677 0.35008 0.0
N655 N 0.09324 0.05221 0.32984 0.0
N656 N 0.04897 0.05069 0.43421 0.0
C657 C 0.07228 0.03217 0.44962 0.0
C658 C 0.09643 0.03284 0.39217 0.0
C659 C 0.48756 0.12574 0.45308 0.0
C660 C 0.50681 0.1254 0.38603 0.0
C661 C 0.4895 0.10407 0.51491 0.0
C662 C 0.51037 0.08052 0.51204 0.0
H663 H 0.47075 0.14301 0.45781 0.0
H664 H 0.47414 0.10554 0.56496 0.0
S665 S 0.56662 0.06977 0.35071 0.0
N666 N 0.54812 0.09987 0.32203 0.0
N667 N 0.55144 0.05902 0.43653 0.0
C668 C 0.52997 0.08011 0.4456 0.0
C669 C 0.52829 0.1025 0.38328 0.0
C670 C 0.40428 0.52008 0.4497 0.0
C671 C 0.40943 0.5025 0.38054 0.0
C672 C 0.4258 0.52315 0.51181 0.0
C673 C 0.45351 0.508 0.51057 0.0
H674 H 0.38309 0.5313 0.45732 0.0
H675 H 0.42034 0.5376 0.56158 0.0
S676 S 0.4808 0.46257 0.33886 0.0
N677 N 0.44701 0.47304 0.31068 0.0
N678 N 0.48586 0.4768 0.42932 0.0
C679 C 0.45949 0.49112 0.44074 0.0
C680 C 0.43795 0.48877 0.37597 0.0
C681 C 0.99396 0.4094 0.46168 0.0
C682 C 0.01295 0.41109 0.39399 0.0
C683 C 0.99292 0.43227 0.5201 0.0
C684 C 0.01059 0.45848 0.51433 0.0
H685 H 0.97978 0.38998 0.47036 0.0
H686 H 0.97823 0.42907 0.5711 0.0
S687 S 0.0639 0.475 0.3487 0.0
N688 N 0.05004 0.44185 0.32537 0.0
N689 N 0.04717 0.48498 0.43281 0.0
C690 C 0.02897 0.46106 0.44567 0.0
C691 C 0.03036 0.43749 0.38642 0.0
C692 C 0.89577 0.0171 0.94261 0.0
C693 C 0.89851 0.99545 1.00394 0.0
C694 C 0.91768 0.02074 0.88228 0.0
C695 C 0.94359 1.00278 0.87864 0.0
H696 H 0.87617 0.0312 0.94002 0.0
H697 H 0.91411 0.03808 0.83815 0.0
S698 S 0.96324 0.94404 0.02786 0.0
N699 N 0.93089 0.95703 0.05989 0.0
N700 N 0.97094 0.96288 0.94509 0.0
C701 C 0.9468 0.98111 0.93993 0.0
C702 C 0.92469 0.97773 1.00246 0.0
C703 C 0.50914 0.90098 0.9289 0.0
C704 C 0.5196 0.90773 1.00716 0.0
C705 C 0.50754 0.92288 0.86743 0.0
C706 C 0.51643 0.95291 0.88011 0.0
H707 H 0.50272 0.87829 0.91404 0.0
H708 H 0.49961 0.91592 0.80881 0.0
S709 S 0.54422 0.98318 0.07501 0.0
N710 N 0.53749 0.94759 0.09434 0.0
N711 N 0.53575 0.98798 0.97928 0.0
C712 C 0.52669 0.96005 0.95836 0.0
C713 C 0.52797 0.9378 0.0213 0.0
C714 C 0.60826 0.55722 0.97816 0.0
C715 C 0.6239 0.53221 1.00933 0.0
C716 C 0.58638 0.55442 0.91628 0.0
C717 C 0.5793 0.52651 0.88133 0.0
H718 H 0.61338 0.57939 1.00047 0.0
H719 H 0.57542 0.5744 0.89445 0.0
S720 S 0.61036 0.45346 0.94704 0.0
N721 N 0.6276 0.47806 1.00487 0.0
N722 N 0.58828 0.47312 0.88786 0.0
C723 C 0.59417 0.50135 0.91334 0.0
C724 C 0.61589 0.50409 0.97707 0.0
C725 C 0.01583 0.62987 0.9582 0.0
C726 C 0.99211 0.62842 1.01406 0.0
C727 C 0.01932 0.60844 0.89663 0.0
C728 C 0.99907 0.58438 0.88566 0.0
H729 H 0.03182 0.6481 0.96084 0.0
H730 H 0.0384 0.61089 0.8574 0.0
S731 S 0.93372 0.56869 0.01704 0.0
N732 N 0.94894 0.59898 0.05656 0.0
N733 N 0.95428 0.56038 0.93801 0.0
C734 C 0.97517 0.58252 0.94089 0.0
C735 C 0.97201 0.60399 1.00521 0.0
C736 C 0.09935 0.17596 0.42734 0.0
C737 C 0.10353 0.18263 0.34522 0.0
C738 C 0.07363 0.16073 0.4537 0.0
C739 C 0.05165 0.15142 0.39855 0.0
H740 H 0.11423 0.18553 0.47205 0.0
H741 H 0.06971 0.15862 0.51769 0.0
S742 S 0.05599 0.15469 0.1768 0.0
N743 N 0.08632 0.17234 0.2083 0.0
N744 N 0.03862 0.14339 0.25881 0.0
C745 C 0.0577 0.15376 0.31633 0.0
C746 C 0.08371 0.16921 0.28929 0.0
C747 C 0.38276 0.10735 0.25553 0.0
C748 C 0.36701 0.12127 0.31837 0.0
C749 C 0.40881 0.09116 0.27057 0.0
C750 C 0.42031 0.08843 0.3489 0.0
H751 H 0.37332 0.10613 0.19557 0.0
H752 H 0.41846 0.07868 0.22138 0.0
S753 S 0.39219 0.12755 0.53006 0.0
N754 N 0.36806 0.13635 0.45852 0.0
N755 N 0.41739 0.10598 0.48711 0.0
C756 C 0.40691 0.10528 0.41043 0.0
C757 C 0.38027 0.1218 0.39499 0.0
C758 C 0.43862 0.34686 0.51927 0.0
C759 C 0.43801 0.34559 0.43476 0.0
C760 C 0.46264 0.36037 0.56009 0.0
C761 C 0.48689 0.37288 0.51772 0.0
H762 H 0.42145 0.33556 0.5539 0.0
H763 H 0.4628 0.36003 0.62516 0.0
S764 S 0.49578 0.37583 0.29594 0.0
N765 N 0.46324 0.35916 0.31025 0.0
N766 N 0.50849 0.38366 0.38667 0.0
C767 C 0.4858 0.37303 0.43324 0.0
C768 C 0.46126 0.35973 0.39186 0.0
C769 C 0.16554 0.43465 0.44722 0.0
C770 C 0.17334 0.42778 0.3675 0.0
C771 C 0.15229 0.46204 0.46614 0.0
C772 C 0.14629 0.4833 0.40603 0.0
H773 H 0.17254 0.42017 0.49594 0.0
H774 H 0.1488 0.46752 0.52866 0.0
S775 S 0.15515 0.47346 0.18657 0.0
N776 N 0.16876 0.44259 0.22646 0.0
N777 N 0.14345 0.49363 0.26312 0.0
C778 C 0.15042 0.47527 0.32559 0.0
C779 C 0.16379 0.44744 0.30598 0.0
C780 C 0.95986 0.88061 0.86285 0.0
C781 C 0.9593 0.8494 0.87024 0.0
C782 C 0.9858 0.89511 0.83657 0.0
C783 C 0.01133 0.87871 0.81295 0.0
H784 H 0.94274 0.89386 0.89178 0.0
H785 H 0.98649 0.91893 0.84545 0.0
S786 S 0.01153 0.79741 0.76987 0.0
N787 N 0.97995 0.80305 0.81887 0.0
N788 N 0.0275 0.8306 0.76039 0.0
C789 C 1.00698 0.84804 0.79762 0.0
C790 C 0.98095 0.83321 0.82765 0.0
C791 C 0.693 0.94461 0.8296 0.0
C792 C 0.67583 0.92863 0.88592 0.0
C793 C 0.68009 0.9678 0.78487 0.0
C794 C 0.65033 0.97687 0.79969 0.0
H795 H 0.71712 0.94238 0.82834 0.0
H796 H 0.69477 0.98093 0.74699 0.0
S797 S 0.59338 0.92756 0.89768 0.0
N798 N 0.62581 0.91214 0.91967 0.0
N799 N 0.60137 0.95703 0.84189 0.0
C800 C 0.63164 0.95532 0.83763 0.0
C801 C 0.6447 0.93071 0.87936 0.0
C802 C 0.57116 0.65909 0.95157 0.0
C803 C 0.58581 0.68264 0.91121 0.0
C804 C 0.54687 0.64434 0.91658 0.0
C805 C 0.53655 0.65219 0.83946 0.0
H806 H 0.57564 0.65453 1.01438 0.0
H807 H 0.53439 0.62881 0.95376 0.0
S808 S 0.57436 0.70392 0.69805 0.0
N809 N 0.59392 0.70682 0.78207 0.0
N810 N 0.54759 0.67922 0.71619 0.0
C811 C 0.55397 0.67207 0.79368 0.0
C812 C 0.57903 0.68696 0.8293 0.0
C813 C 0.84924 0.56266 0.85981 0.0
C814 C 0.84764 0.56629 0.94373 0.0
C815 C 0.86249 0.53718 0.82622 0.0
C816 C 0.87418 0.51457 0.87578 0.0
H817 H 0.83927 0.5791 0.82023 0.0
H818 H 0.86338 0.53498 0.7614 0.0
S819 S 0.87413 0.51254 0.09842 0.0
N820 N 0.85812 0.54454 0.07507 0.0
N821 N 0.88296 0.497 1.01185 0.0
C822 C 0.87297 0.51808 0.95939 0.0
C823 C 0.85972 0.54387 0.99342 0.0
C824 C 0.03613 0.1484 0.85612 0.0
C825 C 0.01249 0.15787 0.9064 0.0
C826 C 0.03469 0.12135 0.81201 0.0
C827 C 0.00951 0.10222 0.81549 0.0
H828 H 0.05629 0.16181 0.8515 0.0
H829 H 0.05352 0.11545 0.7745 0.0
S830 S 0.94124 0.11596 0.9367 0.0
N831 N 0.96268 0.14535 0.95514 0.0
N832 N 0.96032 0.09481 0.87408 0.0
C833 C 0.98569 0.11135 0.86515 0.0
C834 C 0.98714 0.13886 0.9102 0.0
C835 C 0.39942 0.01929 0.94702 0.0
C836 C 0.372 0.01356 0.90727 0.0
C837 C 0.42699 0.01991 0.90548 0.0
C838 C 0.42879 0.01461 0.82205 0.0
H839 H 0.39958 0.02399 1.01086 0.0
H840 H 0.44713 0.02423 0.93957 0.0
S841 S 0.36409 0.99682 0.68943 0.0
N842 N 0.34889 1.00124 0.77902 0.0
N843 N 0.40039 1.00236 0.70172 0.0
C844 C 0.40168 1.00808 0.78182 0.0
C845 C 0.37351 1.00771 0.82397 0.0
C846 C 0.5292 0.39208 0.88484 0.0
C847 C 0.50287 0.37447 0.88524 0.0
C848 C 0.53139 0.41895 0.84025 0.0
C849 C 0.50723 0.43031 0.79487 0.0
H850 H 0.54853 0.38498 0.91915 0.0
H851 H 0.55227 0.43113 0.84238 0.0
S852 S 0.4337 0.39228 0.77002 0.0
N853 N 0.45225 0.37021 0.83204 0.0
N854 N 0.45659 0.42029 0.74877 0.0
C855 C 0.481 0.41262 0.79284 0.0
C856 C 0.4788 0.38499 0.83765 0.0
C857 C 0.13448 0.52823 0.91448 0.0
C858 C 0.15569 0.50688 0.88847 0.0
C859 C 0.10708 0.53308 0.87298 0.0
C860 C 0.09898 0.51631 0.80441 0.0
H861 H 0.13858 0.54088 0.96882 0.0
H862 H 0.09156 0.54933 0.89674 0.0
S863 S 0.14671 0.46008 0.70442 0.0
N864 N 0.16697 0.47128 0.78188 0.0
N865 N 0.11511 0.47889 0.70936 0.0
C866 C 0.11994 0.49545 0.77659 0.0
C867 C 0.1482 0.49111 0.81705 0.0
C868 C 0.97238 0.89594 0.53385 0.0
C869 C 0.99712 0.8766 0.52569 0.0
C870 C 0.97452 0.92362 0.57463 0.0
C871 C 1.00156 0.93385 0.60968 0.0
H872 H 0.95113 0.89005 0.50656 0.0
H873 H 0.95465 0.93731 0.57767 0.0
S874 S 0.0729 0.89132 0.61059 0.0
N875 N 0.04937 0.86931 0.56154 0.0
N876 N 0.05369 0.92141 0.63462 0.0
C877 C 0.02639 0.91451 0.60346 0.0
C878 C 0.02414 0.88611 0.5624 0.0
C879 C 0.64055 0.03005 0.53415 0.0
C880 C 0.65389 1.00196 0.51997 0.0
C881 C 0.61337 0.03288 0.57684 0.0
C882 C 0.59779 1.00777 0.60712 0.0
H883 H 0.65113 0.05018 0.51152 0.0
H884 H 0.60412 0.05503 0.58425 0.0
S885 S 0.62316 0.92909 0.59074 0.0
N886 N 0.64911 0.9484 0.54256 0.0
N887 N 0.59884 0.95385 0.6235 0.0
C888 C 0.61123 0.97964 0.59564 0.0
C889 C 0.63893 0.97672 0.55218 0.0
C890 C 0.49828 0.6389 0.51477 0.0
C891 C 0.5253 0.65482 0.50219 0.0
C892 C 0.49708 0.61231 0.56127 0.0
C893 C 0.52291 0.59981 0.59694 0.0
H894 H 0.4777 0.64707 0.4884 0.0
H895 H 0.47569 0.60106 0.56763 0.0
S896 S 0.59935 0.63264 0.58519 0.0
N897 N 0.57868 0.65563 0.53102 0.0
N898 N 0.57628 0.60655 0.61867 0.0
C899 C 0.54999 0.6157 0.58596 0.0
C900 C 0.55121 0.64282 0.53882 0.0
C901 C 0.88559 0.50537 0.54257 0.0
C902 C 0.8725 0.53303 0.52131 0.0
C903 C 0.91259 0.50366 0.58779 0.0
C904 C 0.92836 0.52954 0.61271 0.0
H905 H 0.87489 0.48474 0.52385 0.0
H906 H 0.92169 0.4818 0.60092 0.0
S907 S 0.90376 0.60758 0.57507 0.0
N908 N 0.87771 0.58697 0.53112 0.0
N909 N 0.92781 0.5838 0.61462 0.0
C910 C 0.91526 0.55728 0.59296 0.0
C911 C 0.88766 0.55901 0.54793 0.0
loop_
_geom_bond_atom_site_label_1
_geom_bond_atom_site_label_2
_geom_bond_distance
_geom_bond_site_symmetry_2
_ccdc_geom_bond_type
C0 C1 1.386 . S
C0 C2 1.397 . S
C0 H24 0.931 . S
C1 C0 1.386 . S
C1 C5 1.397 . S
C2 C0 1.397 . S
C2 C3 1.384 . S
C2 H25 0.930 . S
C3 C2 1.384 . S
C3 C4 1.377 . S
C3 C6 1.481 . S
C4 C3 1.377 . S
C4 C5 1.389 . S
C4 H26 0.929 . S
C5 C1 1.397 . S
C5 C4 1.389 . S
C5 H27 0.931 . S
C6 C3 1.481 . S
C6 C7 1.387 . S
C6 C11 1.390 . S
C7 C6 1.387 . S
C7 C8 1.401 . S
C7 H28 0.930 . S
C8 C7 1.401 . S
C8 C9 1.376 . S
C8 C17 1.511 . S
C9 C8 1.376 . S
C9 C10 1.392 . S
C9 H30 0.931 . S
C10 C9 1.392 . S
C10 C11 1.361 . S
C10 C12 1.500 . S
C11 C6 1.390 . S
C11 C10 1.361 . S
C11 H29 0.931 . S
C12 C10 1.500 . S
C12 C13 1.371 . S
C12 C14 1.365 . S
C13 C12 1.371 . S
C13 C23 1.386 . S
C13 H31 0.931 . S
C14 C12 1.365 . S
C14 C15 1.409 . S
C14 H32 0.929 . S
C15 C14 1.409 . S
C15 C16 1.380 . S
C15 H33 0.930 . S
C16 C15 1.380 . S
C16 C23 1.357 . S
C17 C8 1.511 . S
C17 C18 1.341 . S
C17 C19 1.371 . S
C18 C17 1.341 . S
C18 C22 1.394 . S
C18 H34 0.930 . S
C19 C17 1.371 . S
C19 C20 1.392 . S
C19 H35 0.931 . S
C20 C19 1.392 . S
C20 C21 1.331 . S
C20 H38 0.932 . S
C21 C20 1.331 . S
C21 C22 1.336 . S
C22 C18 1.394 . S
C22 C21 1.336 . S
C22 H37 0.929 . S
C23 C13 1.386 . S
C23 C16 1.357 . S
C23 H36 0.928 . S
H24 C0 0.931 . S
H25 C2 0.930 . S
H26 C4 0.929 . S
H27 C5 0.931 . S
H28 C7 0.930 . S
H29 C11 0.931 . S
H30 C9 0.931 . S
H31 C13 0.931 . S
H32 C14 0.929 . S
H33 C15 0.930 . S
H34 C18 0.930 . S
H35 C19 0.931 . S
H36 C23 0.928 . S
H37 C22 0.929 . S
H38 C20 0.932 . S
C39 C40 1.386 . S
C39 C41 1.397 . S
C39 H63 0.931 . S
C40 C39 1.386 . S
C40 C44 1.397 . S
C41 C39 1.397 . S
C41 C42 1.384 . S
C41 H64 0.930 . S
C42 C41 1.384 . S
C42 C43 1.377 . S
C42 C45 1.481 . S
C43 C42 1.377 . S
C43 C44 1.389 . S
C43 H65 0.929 1_655 S
C44 C40 1.397 . S
C44 C43 1.389 . S
C44 H66 0.931 1_655 S
C45 C42 1.481 . S
C45 C46 1.387 . S
C45 C50 1.390 . S
C46 C45 1.387 . S
C46 C47 1.401 . S
C46 H67 0.930 . S
C47 C46 1.401 . S
C47 C48 1.376 . S
C47 C56 1.511 . S
C48 C47 1.376 . S
C48 C49 1.392 . S
C48 H69 0.931 . S
C49 C48 1.392 . S
C49 C50 1.361 . S
C49 C51 1.500 . S
C50 C45 1.390 . S
C50 C49 1.361 . S
C50 H68 0.931 . S
C51 C49 1.500 . S
C51 C52 1.371 . S
C51 C53 1.365 . S
C52 C51 1.371 . S
C52 C62 1.386 . S
C52 H70 0.931 . S
C53 C51 1.365 . S
C53 C54 1.409 . S
C53 H71 0.929 . S
C54 C53 1.409 . S
C54 C55 1.380 . S
C54 H72 0.930 . S
C55 C54 1.380 . S
C55 C62 1.357 . S
C56 C47 1.511 . S
C56 C57 1.341 . S
C56 C58 1.371 . S
C57 C56 1.341 . S
C57 C61 1.394 . S
C57 H73 0.930 . S
C58 C56 1.371 . S
C58 C59 1.392 . S
C58 H74 0.931 . S
C59 C58 1.392 . S
C59 C60 1.331 . S
C59 H77 0.932 . S
C60 C59 1.331 . S
C60 C61 1.336 . S
C61 C57 1.394 . S
C61 C60 1.336 . S
C61 H76 0.929 . S
C62 C52 1.386 . S
C62 C55 1.357 . S
C62 H75 0.928 . S
H63 C39 0.931 . S
H64 C41 0.930 . S
H65 C43 0.929 1_455 S
H66 C44 0.931 1_455 S
H67 C46 0.930 . S
H68 C50 0.931 . S
H69 C48 0.931 . S
H70 C52 0.931 . S
H71 C53 0.929 . S
H72 C54 0.930 . S
H73 C57 0.930 . S
H74 C58 0.931 . S
H75 C62 0.928 . S
H76 C61 0.929 . S
H77 C59 0.932 . S
C78 C79 1.386 . S
C78 C80 1.397 . S
C78 H102 0.931 . S
C79 C78 1.386 . S
C79 C83 1.397 . S
C80 C78 1.397 . S
C80 C81 1.384 . S
C80 H103 0.930 . S
C81 C80 1.384 . S
C81 C82 1.377 . S
C81 C84 1.481 . S
C82 C81 1.377 . S
C82 C83 1.389 . S
C82 H104 0.929 1_565 S
C83 C79 1.397 . S
C83 C82 1.389 . S
C83 H105 0.931 1_565 S
C84 C81 1.481 . S
C84 C85 1.387 . S
C84 C89 1.390 . S
C85 C84 1.387 . S
C85 C86 1.401 . S
C85 H106 0.930 . S
C86 C85 1.401 . S
C86 C87 1.376 . S
C86 C95 1.511 . S
C87 C86 1.376 . S
C87 C88 1.392 . S
C87 H108 0.931 . S
C88 C87 1.392 . S
C88 C89 1.361 . S
C88 C90 1.500 . S
C89 C84 1.390 . S
C89 C88 1.361 . S
C89 H107 0.931 . S
C90 C88 1.500 . S
C90 C91 1.371 . S
C90 C92 1.365 . S
C91 C90 1.371 . S
C91 C101 1.386 . S
C91 H109 0.931 . S
C92 C90 1.365 . S
C92 C93 1.409 . S
C92 H110 0.929 . S
C93 C92 1.409 . S
C93 C94 1.380 . S
C93 H111 0.930 . S
C94 C93 1.380 . S
C94 C101 1.357 . S
C95 C86 1.511 . S
C95 C96 1.341 . S
C95 C97 1.371 . S
C96 C95 1.341 . S
C96 C100 1.394 . S
C96 H112 0.930 . S
C97 C95 1.371 . S
C97 C98 1.392 . S
C97 H113 0.931 . S
C98 C97 1.392 . S
C98 C99 1.331 . S
C98 H116 0.932 . S
C99 C98 1.331 . S
C99 C100 1.336 . S
C100 C96 1.394 . S
C100 C99 1.336 . S
C100 H115 0.929 . S
C101 C91 1.386 . S
C101 C94 1.357 . S
C101 H114 0.928 . S
H102 C78 0.931 . S
H103 C80 0.930 . S
H104 C82 0.929 1_545 S
H105 C83 0.931 1_545 S
H106 C85 0.930 . S
H107 C89 0.931 . S
H108 C87 0.931 . S
H109 C91 0.931 . S
H110 C92 0.929 . S
H111 C93 0.930 . S
H112 C96 0.930 . S
H113 C97 0.931 . S
H114 C101 0.928 . S
H115 C100 0.929 . S
H116 C98 0.932 . S
C117 C118 1.386 . S
C117 C119 1.397 . S
C117 H141 0.931 . S
C118 C117 1.386 . S
C118 C122 1.397 . S
C119 C117 1.397 . S
C119 C120 1.384 . S
C119 H142 0.930 . S
C120 C119 1.384 . S
C120 C121 1.377 . S
C120 C123 1.481 . S
C121 C120 1.377 . S
C121 C122 1.389 . S
C121 H143 0.929 . S
C122 C118 1.397 . S
C122 C121 1.389 . S
C122 H144 0.931 . S
C123 C120 1.481 . S
C123 C124 1.387 . S
C123 C128 1.390 . S
C124 C123 1.387 . S
C124 C125 1.401 . S
C124 H145 0.930 . S
C125 C124 1.401 . S
C125 C126 1.376 . S
C125 C134 1.511 . S
C126 C125 1.376 . S
C126 C127 1.392 . S
C126 H147 0.931 . S
C127 C126 1.392 . S
C127 C128 1.361 . S
C127 C129 1.500 . S
C128 C123 1.390 . S
C128 C127 1.361 . S
C128 H146 0.931 . S
C129 C127 1.500 . S
C129 C130 1.371 . S
C129 C131 1.365 . S
C130 C129 1.371 . S
C130 C140 1.386 . S
C130 H148 0.931 . S
C131 C129 1.365 . S
C131 C132 1.409 . S
C131 H149 0.929 . S
C132 C131 1.409 . S
C132 C133 1.380 . S
C132 H150 0.930 . S
C133 C132 1.380 . S
C133 C140 1.357 . S
C134 C125 1.511 . S
C134 C135 1.341 . S
C134 C136 1.371 . S
C135 C134 1.341 . S
C135 C139 1.394 . S
C135 H151 0.930 . S
C136 C134 1.371 . S
C136 C137 1.392 . S
C136 H152 0.931 . S
C137 C136 1.392 . S
C137 C138 1.331 . S
C137 H155 0.932 . S
C138 C137 1.331 . S
C138 C139 1.336 . S
C139 C135 1.394 . S
C139 C138 1.336 . S
C139 H154 0.929 . S
C140 C130 1.386 . S
C140 C133 1.357 . S
C140 H153 0.928 . S
H141 C117 0.931 . S
H142 C119 0.930 . S
H143 C121 0.929 . S
H144 C122 0.931 . S
H145 C124 0.930 . S
H146 C128 0.931 . S
H147 C126 0.931 . S
H148 C130 0.931 . S
H149 C131 0.929 . S
H150 C132 0.930 . S
H151 C135 0.930 . S
H152 C136 0.931 . S
H153 C140 0.928 . S
H154 C139 0.929 . S
H155 C137 0.932 . S
C156 C157 1.386 . S
C156 C158 1.397 . S
C156 H180 0.931 . S
C157 C156 1.386 . S
C157 C161 1.397 . S
C158 C156 1.397 . S
C158 C159 1.384 . S
C158 H181 0.930 . S
C159 C158 1.384 . S
C159 C160 1.377 . S
C159 C162 1.481 . S
C160 C159 1.377 . S
C160 C161 1.389 . S
C160 H182 0.929 . S
C161 C157 1.397 . S
C161 C160 1.389 . S
C161 H183 0.931 . S
C162 C159 1.481 . S
C162 C163 1.387 . S
C162 C167 1.390 . S
C163 C162 1.387 . S
C163 C164 1.401 . S
C163 H184 0.930 . S
C164 C163 1.401 . S
C164 C165 1.376 1_554 S
C164 C173 1.511 . S
C165 C164 1.376 1_556 S
C165 C166 1.392 . S
C165 H186 0.931 . S
C166 C165 1.392 . S
C166 C167 1.361 1_556 S
C166 C168 1.500 . S
C167 C162 1.390 . S
C167 C166 1.361 1_554 S
C167 H185 0.931 . S
C168 C166 1.500 . S
C168 C169 1.371 . S
C168 C170 1.365 . S
C169 C168 1.371 . S
C169 C179 1.386 . S
C169 H187 0.931 . S
C170 C168 1.365 . S
C170 C171 1.409 . S
C170 H188 0.929 . S
C171 C170 1.409 . S
C171 C172 1.380 . S
C171 H189 0.930 . S
C172 C171 1.380 . S
C172 C179 1.357 . S
C173 C164 1.511 . S
C173 C174 1.341 . S
C173 C175 1.371 . S
C174 C173 1.341 . S
C174 C178 1.394 . S
C174 H190 0.930 . S
C175 C173 1.371 . S
C175 C176 1.392 . S
C175 H191 0.931 1_554 S
C176 C175 1.392 . S
C176 C177 1.331 . S
C176 H194 0.932 . S
C177 C176 1.331 . S
C177 C178 1.336 . S
C178 C174 1.394 . S
C178 C177 1.336 . S
C178 H193 0.929 . S
C179 C169 1.386 . S
C179 C172 1.357 . S
C179 H192 0.928 . S
H180 C156 0.931 . S
H181 C158 0.930 . S
H182 C160 0.929 . S
H183 C161 0.931 . S
H184 C163 0.930 . S
H185 C167 0.931 . S
H186 C165 0.931 . S
H187 C169 0.931 . S
H188 C170 0.929 . S
H189 C171 0.930 . S
H190 C174 0.930 . S
H191 C175 0.931 1_556 S
H192 C179 0.928 . S
H193 C178 0.929 . S
H194 C176 0.932 . S
C195 C196 1.386 . S
C195 C197 1.397 . S
C195 H219 0.931 . S
C196 C195 1.386 . S
C196 C200 1.397 . S
C197 C195 1.397 . S
C197 C198 1.384 . S
C197 H220 0.930 . S
C198 C197 1.384 . S
C198 C199 1.377 . S
C198 C201 1.481 . S
C199 C198 1.377 . S
C199 C200 1.389 . S
C199 H221 0.929 . S
C200 C196 1.397 . S
C200 C199 1.389 . S
C200 H222 0.931 . S
C201 C198 1.481 . S
C201 C202 1.387 . S
C201 C206 1.390 . S
C202 C201 1.387 . S
C202 C203 1.401 . S
C202 H223 0.930 . S
C203 C202 1.401 . S
C203 C204 1.376 1_554 S
C203 C212 1.511 . S
C204 C203 1.376 1_556 S
C204 C205 1.392 . S
C204 H225 0.931 . S
C205 C204 1.392 . S
C205 C206 1.361 1_556 S
C205 C207 1.500 . S
C206 C201 1.390 . S
C206 C205 1.361 1_554 S
C206 H224 0.931 . S
C207 C205 1.500 . S
C207 C208 1.371 . S
C207 C209 1.365 . S
C208 C207 1.371 . S
C208 C218 1.386 . S
C208 H226 0.931 . S
C209 C207 1.365 . S
C209 C210 1.409 . S
C209 H227 0.929 . S
C210 C209 1.409 . S
C210 C211 1.380 . S
C210 H228 0.930 . S
C211 C210 1.380 . S
C211 C218 1.357 . S
C212 C203 1.511 . S
C212 C213 1.341 . S
C212 C214 1.371 . S
C213 C212 1.341 . S
C213 C217 1.394 . S
C213 H229 0.930 . S
C214 C212 1.371 . S
C214 C215 1.392 . S
C214 H230 0.931 1_554 S
C215 C214 1.392 . S
C215 C216 1.331 . S
C215 H233 0.932 . S
C216 C215 1.331 . S
C216 C217 1.336 . S
C217 C213 1.394 . S
C217 C216 1.336 . S
C217 H232 0.929 . S
C218 C208 1.386 . S
C218 C211 1.357 . S
C218 H231 0.928 . S
H219 C195 0.931 . S
H220 C197 0.930 . S
H221 C199 0.929 . S
H222 C200 0.931 . S
H223 C202 0.930 . S
H224 C206 0.931 . S
H225 C204 0.931 . S
H226 C208 0.931 . S
H227 C209 0.929 . S
H228 C210 0.930 . S
H229 C213 0.930 . S
H230 C214 0.931 1_556 S
H231 C218 0.928 . S
H232 C217 0.929 . S
H233 C215 0.932 . S
C234 C235 1.386 . S
C234 C236 1.397 . S
C234 H258 0.931 . S
C235 C234 1.386 . S
C235 C239 1.397 . S
C236 C234 1.397 . S
C236 C237 1.384 . S
C236 H259 0.930 . S
C237 C236 1.384 . S
C237 C238 1.377 . S
C237 C240 1.481 . S
C238 C237 1.377 . S
C238 C239 1.389 . S
C238 H260 0.929 . S
C239 C235 1.397 . S
C239 C238 1.389 . S
C239 H261 0.931 . S
C240 C237 1.481 . S
C240 C241 1.387 . S
C240 C245 1.390 . S
C241 C240 1.387 . S
C241 C242 1.401 . S
C241 H262 0.930 . S
C242 C241 1.401 . S
C242 C243 1.376 1_554 S
C242 C251 1.511 . S
C243 C242 1.376 1_556 S
C243 C244 1.392 . S
C243 H264 0.931 . S
C244 C243 1.392 . S
C244 C245 1.361 1_556 S
C244 C246 1.500 . S
C245 C240 1.390 . S
C245 C244 1.361 1_554 S
C245 H263 0.931 . S
C246 C244 1.500 . S
C246 C247 1.371 . S
C246 C248 1.365 . S
C247 C246 1.371 . S
C247 C257 1.386 . S
C247 H265 0.931 . S
C248 C246 1.365 . S
C248 C249 1.409 . S
C248 H266 0.929 . S
C249 C248 1.409 . S
C249 C250 1.380 . S
C249 H267 0.930 . S
C250 C249 1.380 . S
C250 C257 1.357 . S
C251 C242 1.511 . S
C251 C252 1.341 . S
C251 C253 1.371 . S
C252 C251 1.341 . S
C252 C256 1.394 . S
C252 H268 0.930 . S
C253 C251 1.371 . S
C253 C254 1.392 . S
C253 H269 0.931 1_554 S
C254 C253 1.392 . S
C254 C255 1.331 . S
C254 H272 0.932 . S
C255 C254 1.331 . S
C255 C256 1.336 . S
C256 C252 1.394 . S
C256 C255 1.336 . S
C256 H271 0.929 . S
C257 C247 1.386 . S
C257 C250 1.357 . S
C257 H270 0.928 . S
H258 C234 0.931 . S
H259 C236 0.930 . S
H260 C238 0.929 . S
H261 C239 0.931 . S
H262 C241 0.930 . S
H263 C245 0.931 . S
H264 C243 0.931 . S
H265 C247 0.931 . S
H266 C248 0.929 . S
H267 C249 0.930 . S
H268 C252 0.930 . S
H269 C253 0.931 1_556 S
H270 C257 0.928 . S
H271 C256 0.929 . S
H272 C254 0.932 . S
C273 C274 1.386 . S
C273 C275 1.397 . S
C273 H297 0.931 . S
C274 C273 1.386 . S
C274 C278 1.397 . S
C275 C273 1.397 . S
C275 C276 1.384 . S
C275 H298 0.930 . S
C276 C275 1.384 . S
C276 C277 1.377 . S
C276 C279 1.481 . S
C277 C276 1.377 . S
C277 C278 1.389 . S
C277 H299 0.929 . S
C278 C274 1.397 . S
C278 C277 1.389 . S
C278 H300 0.931 . S
C279 C276 1.481 . S
C279 C280 1.387 . S
C279 C284 1.390 1_556 S
C280 C279 1.387 . S
C280 C281 1.401 1_556 S
C280 H301 0.930 . S
C281 C280 1.401 1_554 S
C281 C282 1.376 . S
C281 C290 1.511 . S
C282 C281 1.376 . S
C282 C283 1.392 . S
C282 H303 0.931 . S
C283 C282 1.392 . S
C283 C284 1.361 . S
C283 C285 1.500 . S
C284 C279 1.390 1_554 S
C284 C283 1.361 . S
C284 H302 0.931 . S
C285 C283 1.500 . S
C285 C286 1.371 . S
C285 C287 1.365 . S
C286 C285 1.371 . S
C286 C296 1.386 . S
C286 H304 0.931 . S
C287 C285 1.365 . S
C287 C288 1.409 . S
C287 H305 0.929 . S
C288 C287 1.409 . S
C288 C289 1.380 . S
C288 H306 0.930 . S
C289 C288 1.380 . S
C289 C296 1.357 . S
C290 C281 1.511 . S
C290 C291 1.341 . S
C290 C292 1.371 . S
C291 C290 1.341 . S
C291 C295 1.394 . S
C291 H307 0.930 1_554 S
C292 C290 1.371 . S
C292 C293 1.392 . S
C292 H308 0.931 . S
C293 C292 1.392 . S
C293 C294 1.331 . S
C293 H311 0.932 . S
C294 C293 1.331 . S
C294 C295 1.336 . S
C295 C291 1.394 . S
C295 C294 1.336 . S
C295 H310 0.929 . S
C296 C286 1.386 . S
C296 C289 1.357 . S
C296 H309 0.928 . S
H297 C273 0.931 . S
H298 C275 0.930 . S
H299 C277 0.929 . S
H300 C278 0.931 . S
H301 C280 0.930 . S
H302 C284 0.931 . S
H303 C282 0.931 . S
H304 C286 0.931 . S
H305 C287 0.929 . S
H306 C288 0.930 . S
H307 C291 0.930 1_556 S
H308 C292 0.931 . S
H309 C296 0.928 . S
H310 C295 0.929 . S
H311 C293 0.932 . S
Eu312 N341 2.600 . S
Eu312 N347 2.562 . S
Eu312 O356 2.462 . S
Eu312 O357 2.373 1_545 S
Eu312 O359 2.432 . S
Eu312 O360 2.291 1_655 S
Eu312 O364 2.335 1_655 S
Eu312 O367 2.372 . S
Eu312 C376 2.787 . S
C313 N314 1.381 . S
C313 C316 1.405 . S
C313 C320 1.448 . S
N314 C313 1.381 . S
N314 C317 1.315 1_545 S
N314 Eu323 2.592 1_545 S
C315 C317 1.397 1_545 S
C315 C318 1.367 . S
C315 H335 0.931 . S
C316 C313 1.405 . S
C316 C318 1.403 . S
C316 C322 1.439 . S
C317 N314 1.315 1_565 S
C317 C315 1.397 1_565 S
C317 H328 0.930 . S
C318 C315 1.367 . S
C318 C316 1.403 . S
C318 H339 0.929 . S
C319 C320 1.430 . S
C319 C321 1.387 1_556 S
C319 C325 1.404 1_556 S
C320 C313 1.448 . S
C320 C319 1.430 . S
C320 N324 1.351 . S
C321 C319 1.387 1_554 S
C321 C322 1.374 1_554 S
C321 H336 0.931 . S
C322 C316 1.439 . S
C322 C321 1.374 1_556 S
C322 H337 0.931 . S
Eu323 N314 2.592 1_565 S
Eu323 N324 2.562 1_565 S
Eu323 O358 2.335 . S
Eu323 O361 2.372 . S
Eu323 O362 2.462 . S
Eu323 O363 2.373 1_565 S
Eu323 O365 2.432 . S
Eu323 O366 2.288 1_465 S
Eu323 C387 2.787 . S
N324 C320 1.351 . S
N324 Eu323 2.562 1_545 S
N324 C326 1.325 . S
C325 C319 1.404 1_554 S
C325 C327 1.366 . S
C325 H333 0.930 . S
C326 N324 1.325 . S
C326 C327 1.416 1_556 S
C326 H332 0.929 . S
C327 C325 1.366 . S
C327 C326 1.416 1_554 S
C327 H329 0.930 . S
H328 C317 0.930 . S
H329 C327 0.930 . S
H330 C345 0.930 . S
H331 C352 0.930 1_455 S
H332 C326 0.929 . S
H333 C325 0.930 . S
H334 C348 0.929 1_455 S
H335 C315 0.931 . S
H336 C321 0.931 . S
H337 C322 0.931 . S
H338 C343 0.931 . S
H339 C318 0.929 . S
H340 C351 0.930 . S
N341 Eu312 2.600 . S
N341 C342 1.360 1_545 S
N341 C345 1.319 . S
C342 N341 1.360 1_565 S
C342 C344 1.409 . S
C342 C350 1.449 . S
C343 H338 0.931 . S
C343 C345 1.397 . S
C343 C346 1.367 1_545 S
C344 C342 1.409 . S
C344 C346 1.403 . S
C344 C377 1.439 . S
C345 H330 0.930 . S
C345 N341 1.319 . S
C345 C343 1.397 . S
C346 C343 1.367 1_565 S
C346 C344 1.403 . S
C346 H353 0.929 . S
N347 Eu312 2.562 . S
N347 C348 1.325 . S
N347 C350 1.351 1_545 S
C348 H334 0.929 1_655 S
C348 N347 1.325 . S
C348 C352 1.416 1_545 S
C349 C350 1.430 . S
C349 C351 1.404 . S
C349 C378 1.387 . S
C350 C342 1.449 . S
C350 N347 1.351 1_565 S
C350 C349 1.430 . S
C351 H340 0.930 . S
C351 C349 1.404 . S
C351 C352 1.366 . S
C352 H331 0.930 1_655 S
C352 C348 1.416 1_565 S
C352 C351 1.366 . S
H353 C346 0.929 . S
H354 C377 0.931 . S
H355 C378 0.931 . S
O356 Eu312 2.462 . S
O356 C376 1.252 . S
O357 Eu312 2.373 1_565 S
O357 C368 1.249 . S
O358 Eu323 2.335 . S
O358 C368 1.264 1_455 S
O359 Eu312 2.432 . S
O359 C376 1.268 . S
O360 Eu312 2.291 1_455 S
O360 C375 1.255 . S
O361 Eu323 2.372 . S
O361 C375 1.257 1_565 S
O362 Eu323 2.462 . S
O362 C387 1.252 . S
O363 Eu323 2.373 1_545 S
O363 C379 1.249 . S
O364 Eu312 2.335 1_455 S
O364 C379 1.264 . S
O365 Eu323 2.432 . S
O365 C387 1.268 . S
O366 Eu323 2.288 1_645 S
O366 C386 1.257 . S
O367 Eu312 2.372 . S
O367 C386 1.257 . S
C368 O357 1.249 . S
C368 O358 1.264 1_655 S
C369 C372 1.382 . S
C369 C374 1.390 . S
C369 C376 1.506 . S
C370 C371 1.398 . S
C370 C374 1.392 . S
C371 C370 1.398 . S
C371 C373 1.372 . S
C371 H388 0.931 . S
C372 C369 1.382 . S
C372 C373 1.390 . S
C372 H389 0.931 . S
C373 C371 1.372 . S
C373 C372 1.390 . S
C373 H390 0.929 . S
C374 C369 1.390 . S
C374 C370 1.392 . S
C374 H391 0.930 1_655 S
C375 O360 1.255 . S
C375 O361 1.257 1_545 S
C376 Eu312 2.787 . S
C376 O356 1.252 . S
C376 O359 1.268 . S
C376 C369 1.506 . S
C377 C344 1.439 . S
C377 H354 0.931 . S
C377 C378 1.374 . S
C378 C349 1.387 . S
C378 H355 0.931 . S
C378 C377 1.374 . S
C379 O363 1.249 . S
C379 O364 1.264 . S
C380 C383 1.382 . S
C380 C384 1.390 . S
C380 C387 1.506 . S
C381 C382 1.398 . S
C381 C384 1.392 . S
C382 C381 1.398 . S
C382 C385 1.372 . S
C382 H392 0.931 . S
C383 C380 1.382 . S
C383 C385 1.390 . S
C383 H393 0.931 . S
C384 C380 1.390 . S
C384 C381 1.392 . S
C384 H394 0.930 . S
C385 C382 1.372 . S
C385 C383 1.390 . S
C385 H395 0.929 . S
C386 O366 1.257 . S
C386 O367 1.257 . S
C387 Eu323 2.787 . S
C387 O362 1.252 . S
C387 O365 1.268 . S
C387 C380 1.506 . S
H388 C371 0.931 . S
H389 C372 0.931 . S
H390 C373 0.929 . S
H391 C374 0.930 1_455 S
H392 C382 0.931 . S
H393 C383 0.931 . S
H394 C384 0.930 . S
H395 C385 0.929 . S
Eu396 N425 2.600 . S
Eu396 N431 2.562 . S
Eu396 O440 2.462 . S
Eu396 O441 2.373 . S
Eu396 O443 2.432 . S
Eu396 O444 2.291 . S
Eu396 O448 2.335 1_545 S
Eu396 O451 2.372 . S
Eu396 C460 2.787 . S
C397 N398 1.365 . S
C397 C400 1.405 . S
C397 C404 1.448 . S
N398 C397 1.365 . S
N398 C401 1.319 . S
N398 Eu407 2.600 . S
C399 C401 1.397 . S
C399 C402 1.367 . S
C399 H419 0.931 . S
C400 C397 1.405 . S
C400 C402 1.403 . S
C400 C406 1.439 . S
C401 N398 1.319 . S
C401 C399 1.397 . S
C401 H412 0.930 . S
C402 C399 1.367 . S
C402 C400 1.403 . S
C402 H423 0.929 . S
C403 C404 1.430 . S
C403 C405 1.387 . S
C403 C409 1.404 . S
C404 C397 1.448 . S
C404 C403 1.430 . S
C404 N408 1.351 . S
C405 C403 1.387 . S
C405 C406 1.374 . S
C405 H420 0.931 . S
C406 C400 1.439 . S
C406 C405 1.374 . S
C406 H421 0.931 . S
Eu407 N398 2.600 . S
Eu407 N408 2.562 . S
Eu407 O442 2.335 1_565 S
Eu407 O445 2.372 . S
Eu407 O446 2.462 . S
Eu407 O447 2.373 . S
Eu407 O449 2.432 . S
Eu407 O450 2.274 1_565 S
Eu407 C471 2.787 . S
N408 C404 1.351 . S
N408 Eu407 2.562 . S
N408 C410 1.325 . S
C409 C403 1.404 . S
C409 C411 1.366 . S
C409 H417 0.930 . S
C410 N408 1.325 . S
C410 C411 1.416 . S
C410 H416 0.929 . S
C411 C409 1.366 . S
C411 C410 1.416 . S
C411 H413 0.930 . S
H412 C401 0.930 . S
H413 C411 0.930 . S
H414 C429 0.930 . S
H415 C436 0.930 . S
H416 C410 0.929 . S
H417 C409 0.930 . S
H418 C432 0.929 . S
H419 C399 0.931 . S
H420 C405 0.931 . S
H421 C406 0.931 . S
H422 C427 0.931 . S
H423 C402 0.929 . S
H424 C435 0.930 . S
N425 Eu396 2.600 . S
N425 C426 1.365 . S
N425 C429 1.319 . S
C426 N425 1.365 . S
C426 C428 1.405 . S
C426 C434 1.448 . S
C427 H422 0.931 . S
C427 C429 1.397 . S
C427 C430 1.367 . S
C428 C426 1.405 . S
C428 C430 1.403 . S
C428 C461 1.439 . S
C429 H414 0.930 . S
C429 N425 1.319 . S
C429 C427 1.397 . S
C430 C427 1.367 . S
C430 C428 1.403 . S
C430 H437 0.929 . S
N431 Eu396 2.562 . S
N431 C432 1.325 . S
N431 C434 1.351 . S
C432 H418 0.929 . S
C432 N431 1.325 . S
C432 C436 1.416 . S
C433 C434 1.430 . S
C433 C435 1.404 . S
C433 C462 1.387 . S
C434 C426 1.448 . S
C434 N431 1.351 . S
C434 C433 1.430 . S
C435 H424 0.930 . S
C435 C433 1.404 . S
C435 C436 1.366 . S
C436 H415 0.930 . S
C436 C432 1.416 . S
C436 C435 1.366 . S
H437 C430 0.929 . S
H438 C461 0.931 . S
H439 C462 0.931 . S
O440 Eu396 2.462 . S
O440 C460 1.252 . S
O441 Eu396 2.373 . S
O441 C452 1.249 . S
O442 Eu407 2.335 1_545 S
O442 C452 1.264 . S
O443 Eu396 2.432 . S
O443 C460 1.268 . S
O444 Eu396 2.291 . S
O444 C459 1.255 1_545 S
O445 Eu407 2.372 . S
O445 C459 1.257 . S
O446 Eu407 2.462 . S
O446 C471 1.252 . S
O447 Eu407 2.373 . S
O447 C463 1.249 . S
O448 Eu396 2.335 1_565 S
O448 C463 1.264 . S
O449 Eu407 2.432 . S
O449 C471 1.268 . S
O450 Eu407 2.274 1_545 S
O450 C470 1.281 . S
O451 Eu396 2.372 . S
O451 C470 1.257 . S
C452 O441 1.249 . S
C452 O442 1.264 . S
C453 C456 1.382 1_556 S
C453 C458 1.390 . S
C453 C460 1.506 . S
C454 C455 1.398 1_556 S
C454 C458 1.392 . S
C455 C454 1.398 1_554 S
C455 C457 1.372 . S
C455 H472 0.931 . S
C456 C453 1.382 1_554 S
C456 C457 1.390 . S
C456 H473 0.931 . S
C457 C455 1.372 . S
C457 C456 1.390 . S
C457 H474 0.929 . S
C458 C453 1.390 . S
C458 C454 1.392 . S
C458 H475 0.930 . S
C459 O444 1.255 1_565 S
C459 O445 1.257 . S
C460 Eu396 2.787 . S
C460 O440 1.252 . S
C460 O443 1.268 . S
C460 C453 1.506 . S
C461 C428 1.439 . S
C461 H438 0.931 . S
C461 C462 1.374 . S
C462 C433 1.387 . S
C462 H439 0.931 . S
C462 C461 1.374 . S
C463 O447 1.249 . S
C463 O448 1.264 . S
C464 C467 1.382 . S
C464 C468 1.390 . S
C464 C471 1.506 . S
C465 C466 1.398 . S
C465 C468 1.392 . S
C466 C465 1.398 . S
C466 C469 1.372 . S
C466 H476 0.931 . S
C467 C464 1.382 . S
C467 C469 1.390 . S
C467 H477 0.931 . S
C468 C464 1.390 . S
C468 C465 1.392 . S
C468 H478 0.932 . S
C469 C466 1.372 . S
C469 C467 1.390 . S
C469 H479 0.929 . S
C470 O450 1.281 . S
C470 O451 1.257 . S
C471 Eu407 2.787 . S
C471 O446 1.252 . S
C471 O449 1.268 . S
C471 C464 1.506 . S
H472 C455 0.931 . S
H473 C456 0.931 . S
H474 C457 0.929 . S
H475 C458 0.930 . S
H476 C466 0.931 . S
H477 C467 0.931 . S
H478 C468 0.932 . S
H479 C469 0.929 . S
Eu480 N509 2.600 . S
Eu480 N515 2.562 . S
Eu480 O524 2.462 . S
Eu480 O525 2.373 . S
Eu480 O527 2.432 . S
Eu480 O528 2.291 . S
Eu480 O532 2.335 . S
Eu480 O535 2.372 . S
Eu480 C544 2.787 . S
C481 N482 1.365 . S
C481 C484 1.405 . S
C481 C488 1.448 . S
N482 C481 1.365 . S
N482 C485 1.319 . S
N482 Eu491 2.600 . S
C483 C485 1.397 . S
C483 C486 1.367 . S
C483 H503 0.931 . S
C484 C481 1.405 . S
C484 C486 1.403 . S
C484 C490 1.439 . S
C485 N482 1.319 . S
C485 C483 1.397 . S
C485 H496 0.930 . S
C486 C483 1.367 . S
C486 C484 1.403 . S
C486 H507 0.929 . S
C487 C488 1.430 . S
C487 C489 1.387 1_556 S
C487 C493 1.404 1_556 S
C488 C481 1.448 . S
C488 C487 1.430 . S
C488 N492 1.351 . S
C489 C487 1.387 1_554 S
C489 C490 1.374 1_554 S
C489 H504 0.931 . S
C490 C484 1.439 . S
C490 C489 1.374 1_556 S
C490 H505 0.931 . S
Eu491 N482 2.600 . S
Eu491 N492 2.562 . S
Eu491 O526 2.335 . S
Eu491 O529 2.372 . S
Eu491 O530 2.462 . S
Eu491 O531 2.373 . S
Eu491 O533 2.432 . S
Eu491 O534 2.291 . S
Eu491 C555 2.787 . S
N492 C488 1.351 . S
N492 Eu491 2.562 . S
N492 C494 1.325 . S
C493 C487 1.404 1_554 S
C493 C495 1.366 . S
C493 H501 0.930 . S
C494 N492 1.325 . S
C494 C495 1.416 1_556 S
C494 H500 0.929 . S
C495 C493 1.366 . S
C495 C494 1.416 1_554 S
C495 H497 0.930 . S
H496 C485 0.930 . S
H497 C495 0.930 . S
H498 C513 0.930 . S
H499 C520 0.930 . S
H500 C494 0.929 . S
H501 C493 0.930 . S
H502 C516 0.929 . S
H503 C483 0.931 . S
H504 C489 0.931 . S
H505 C490 0.931 . S
H506 C511 0.931 . S
H507 C486 0.929 . S
H508 C519 0.930 . S
N509 Eu480 2.600 . S
N509 C510 1.365 . S
N509 C513 1.319 . S
C510 N509 1.365 . S
C510 C512 1.405 . S
C510 C518 1.448 . S
C511 H506 0.931 . S
C511 C513 1.397 . S
C511 C514 1.367 . S
C512 C510 1.405 . S
C512 C514 1.403 . S
C512 C545 1.439 . S
C513 H498 0.930 . S
C513 N509 1.319 . S
C513 C511 1.397 . S
C514 C511 1.367 . S
C514 C512 1.403 . S
C514 H521 0.929 . S
N515 Eu480 2.562 . S
N515 C516 1.325 . S
N515 C518 1.351 . S
C516 H502 0.929 . S
C516 N515 1.325 . S
C516 C520 1.416 . S
C517 C518 1.430 . S
C517 C519 1.404 . S
C517 C546 1.387 . S
C518 C510 1.448 . S
C518 N515 1.351 . S
C518 C517 1.430 . S
C519 H508 0.930 . S
C519 C517 1.404 . S
C519 C520 1.366 . S
C520 H499 0.930 . S
C520 C516 1.416 . S
C520 C519 1.366 . S
H521 C514 0.929 . S
H522 C545 0.931 . S
H523 C546 0.931 . S
O524 Eu480 2.462 . S
O524 C544 1.252 . S
O525 Eu480 2.373 . S
O525 C536 1.249 . S
O526 Eu491 2.335 . S
O526 C536 1.264 . S
O527 Eu480 2.432 . S
O527 C544 1.268 . S
O528 Eu480 2.291 . S
O528 C543 1.255 . S
O529 Eu491 2.372 . S
O529 C543 1.257 . S
O530 Eu491 2.462 . S
O530 C555 1.252 . S
O531 Eu491 2.373 . S
O531 C547 1.249 . S
O532 Eu480 2.335 . S
O532 C547 1.264 . S
O533 Eu491 2.432 . S
O533 C555 1.268 . S
O534 Eu491 2.291 . S
O534 C554 1.255 . S
O535 Eu480 2.372 . S
O535 C554 1.257 . S
C536 O525 1.249 . S
C536 O526 1.264 . S
C537 C540 1.382 . S
C537 C542 1.390 . S
C537 C544 1.506 . S
C538 C539 1.398 . S
C538 C542 1.392 . S
C539 C538 1.398 . S
C539 C541 1.372 . S
C539 H556 0.931 . S
C540 C537 1.382 . S
C540 C541 1.390 . S
C540 H557 0.931 . S
C541 C539 1.372 . S
C541 C540 1.390 . S
C541 H558 0.929 . S
C542 C537 1.390 . S
C542 C538 1.392 . S
C542 H559 0.930 . S
C543 O528 1.255 . S
C543 O529 1.257 . S
C544 Eu480 2.787 . S
C544 O524 1.252 . S
C544 O527 1.268 . S
C544 C537 1.506 . S
C545 C512 1.439 . S
C545 H522 0.931 . S
C545 C546 1.374 . S
C546 C517 1.387 . S
C546 H523 0.931 . S
C546 C545 1.374 . S
C547 O531 1.249 . S
C547 O532 1.264 . S
C548 C551 1.382 . S
C548 C552 1.390 . S
C548 C555 1.506 . S
C549 C550 1.398 . S
C549 C552 1.392 . S
C550 C549 1.398 . S
C550 C553 1.372 . S
C550 H560 0.931 . S
C551 C548 1.382 . S
C551 C553 1.390 . S
C551 H561 0.931 . S
C552 C548 1.390 . S
C552 C549 1.392 . S
C552 H562 0.930 . S
C553 C550 1.372 . S
C553 C551 1.390 . S
C553 H563 0.929 . S
C554 O534 1.255 . S
C554 O535 1.257 . S
C555 Eu491 2.787 . S
C555 O530 1.252 . S
C555 O533 1.268 . S
C555 C548 1.506 . S
H556 C539 0.931 . S
H557 C540 0.931 . S
H558 C541 0.929 . S
H559 C542 0.930 . S
H560 C550 0.931 . S
H561 C551 0.931 . S
H562 C552 0.930 . S
H563 C553 0.929 . S
Eu564 N593 2.600 . S
Eu564 N599 2.562 . S
Eu564 O608 2.462 . S
Eu564 O609 2.373 1_455 S
Eu564 O611 2.432 . S
Eu564 O612 2.291 . S
Eu564 O616 2.335 . S
Eu564 O619 2.372 . S
Eu564 C628 2.787 . S
C565 N566 1.365 1_455 S
C565 C568 1.405 . S
C565 C572 1.448 . S
N566 C565 1.365 1_655 S
N566 C569 1.319 . S
N566 Eu575 2.600 . S
C567 C569 1.397 1_455 S
C567 C570 1.367 . S
C567 H587 0.931 . S
C568 C565 1.405 . S
C568 C570 1.403 . S
C568 C574 1.439 . S
C569 N566 1.319 . S
C569 C567 1.397 1_655 S
C569 H580 0.930 . S
C570 C567 1.367 . S
C570 C568 1.403 . S
C570 H591 0.929 . S
C571 C572 1.430 . S
C571 C573 1.387 1_556 S
C571 C577 1.404 1_556 S
C572 C565 1.448 . S
C572 C571 1.430 . S
C572 N576 1.351 . S
C573 C571 1.387 1_554 S
C573 C574 1.374 1_554 S
C573 H588 0.931 . S
C574 C568 1.439 . S
C574 C573 1.374 1_556 S
C574 H589 0.931 . S
Eu575 N566 2.600 . S
Eu575 N576 2.562 1_655 S
Eu575 O610 2.335 . S
Eu575 O613 2.372 . S
Eu575 O614 2.462 . S
Eu575 O615 2.373 1_655 S
Eu575 O617 2.432 . S
Eu575 O618 2.291 . S
Eu575 C639 2.787 . S
N576 C572 1.351 . S
N576 Eu575 2.562 1_455 S
N576 C578 1.325 . S
C577 C571 1.404 1_554 S
C577 C579 1.366 . S
C577 H585 0.930 . S
C578 N576 1.325 . S
C578 C579 1.416 1_556 S
C578 H584 0.931 1_455 S
C579 C577 1.366 . S
C579 C578 1.416 1_554 S
C579 H581 0.930 . S
H580 C569 0.930 . S
H581 C579 0.930 . S
H582 C597 0.930 . S
H583 C604 0.930 . S
H584 C578 0.931 1_655 S
H585 C577 0.930 . S
H586 C600 0.929 . S
H587 C567 0.931 . S
H588 C573 0.931 . S
H589 C574 0.931 . S
H590 C595 0.931 . S
H591 C570 0.929 . S
H592 C603 0.930 . S
N593 Eu564 2.600 . S
N593 C594 1.352 1_455 S
N593 C597 1.319 . S
C594 N593 1.352 1_655 S
C594 C596 1.416 . S
C594 C602 1.451 . S
C595 H590 0.931 . S
C595 C597 1.397 . S
C595 C598 1.367 1_455 S
C596 C594 1.416 . S
C596 C598 1.403 . S
C596 C629 1.439 . S
C597 H582 0.930 . S
C597 N593 1.319 . S
C597 C595 1.397 . S
C598 C595 1.367 1_655 S
C598 C596 1.403 . S
C598 H605 0.929 . S
N599 Eu564 2.562 . S
N599 C600 1.325 . S
N599 C602 1.351 1_455 S
C600 H586 0.929 . S
C600 N599 1.325 . S
C600 C604 1.416 1_455 S
C601 C602 1.430 . S
C601 C603 1.404 . S
C601 C630 1.387 . S
C602 C594 1.451 . S
C602 N599 1.351 1_655 S
C602 C601 1.430 . S
C603 H592 0.930 . S
C603 C601 1.404 . S
C603 C604 1.366 . S
C604 H583 0.930 . S
C604 C600 1.416 1_655 S
C604 C603 1.366 . S
H605 C598 0.929 . S
H606 C629 0.931 . S
H607 C630 0.931 . S
O608 Eu564 2.462 . S
O608 C628 1.252 . S
O609 Eu564 2.373 1_655 S
O609 C620 1.249 . S
O610 Eu575 2.335 . S
O610 C620 1.264 . S
O611 Eu564 2.432 . S
O611 C628 1.268 . S
O612 Eu564 2.291 . S
O612 C627 1.255 . S
O613 Eu575 2.372 . S
O613 C627 1.257 1_655 S
O614 Eu575 2.462 . S
O614 C639 1.252 . S
O615 Eu575 2.373 1_455 S
O615 C631 1.249 . S
O616 Eu564 2.335 . S
O616 C631 1.264 . S
O617 Eu575 2.432 . S
O617 C639 1.268 . S
O618 Eu575 2.291 . S
O618 C638 1.255 1_655 S
O619 Eu564 2.372 . S
O619 C638 1.257 . S
C620 O609 1.249 . S
C620 O610 1.264 . S
C621 C624 1.382 . S
C621 C626 1.390 . S
C621 C628 1.506 . S
C622 C623 1.398 . S
C622 C626 1.392 . S
C623 C622 1.398 . S
C623 C625 1.372 . S
C623 H640 0.931 . S
C624 C621 1.382 . S
C624 C625 1.390 . S
C624 H641 0.931 . S
C625 C623 1.372 . S
C625 C624 1.390 . S
C625 H642 0.929 . S
C626 C621 1.390 . S
C626 C622 1.392 . S
C626 H643 0.930 . S
C627 O612 1.255 . S
C627 O613 1.257 1_455 S
C628 Eu564 2.787 . S
C628 O608 1.252 . S
C628 O611 1.268 . S
C628 C621 1.506 . S
C629 C596 1.439 . S
C629 H606 0.931 . S
C629 C630 1.374 . S
C630 C601 1.387 . S
C630 H607 0.931 . S
C630 C629 1.374 . S
C631 O615 1.249 . S
C631 O616 1.264 . S
C632 C635 1.382 . S
C632 C636 1.390 . S
C632 C639 1.506 . S
C633 C634 1.398 . S
C633 C636 1.392 . S
C634 C633 1.398 . S
C634 C637 1.372 . S
C634 H644 0.931 . S
C635 C632 1.382 . S
C635 C637 1.390 . S
C635 H645 0.931 . S
C636 C632 1.390 . S
C636 C633 1.392 . S
C636 H646 0.930 . S
C637 C634 1.372 . S
C637 C635 1.390 . S
C637 H647 0.929 . S
C638 O618 1.255 1_455 S
C638 O619 1.257 . S
C639 Eu575 2.787 . S
C639 O614 1.252 . S
C639 O617 1.268 . S
C639 C632 1.506 . S
H640 C623 0.931 . S
H641 C624 0.931 . S
H642 C625 0.929 . S
H643 C626 0.930 . S
H644 C634 0.931 . S
H645 C635 0.931 . S
H646 C636 0.930 . S
H647 C637 0.929 . S
C648 C649 1.369 . S
C648 C650 1.419 . S
C648 H652 0.930 1_545 S
C649 C648 1.369 . S
C649 C658 1.429 . S
C650 C648 1.419 . S
C650 C651 1.363 . S
C650 H653 0.929 1_545 S
C651 C650 1.363 . S
C651 C657 1.428 . S
H652 C648 0.930 1_565 S
H653 C650 0.929 1_565 S
S654 N655 1.613 . S
S654 N656 1.610 . S
N655 S654 1.613 . S
N655 C658 1.350 . S
N656 S654 1.610 . S
N656 C657 1.351 . S
C657 C651 1.428 . S
C657 N656 1.351 . S
C657 C658 1.434 . S
C658 C649 1.429 . S
C658 N655 1.350 . S
C658 C657 1.434 . S
C659 C660 1.369 . S
C659 C661 1.419 . S
C659 H663 0.930 . S
C660 C659 1.369 . S
C660 C669 1.429 . S
C661 C659 1.419 . S
C661 C662 1.363 . S
C661 H664 0.929 . S
C662 C661 1.363 . S
C662 C668 1.428 . S
H663 C659 0.930 . S
H664 C661 0.929 . S
S665 N666 1.613 . S
S665 N667 1.610 . S
N666 S665 1.613 . S
N666 C669 1.350 . S
N667 S665 1.610 . S
N667 C668 1.351 . S
C668 C662 1.428 . S
C668 N667 1.351 . S
C668 C669 1.434 . S
C669 C660 1.429 . S
C669 N666 1.350 . S
C669 C668 1.434 . S
C670 C671 1.369 . S
C670 C672 1.419 . S
C670 H674 0.930 . S
C671 C670 1.369 . S
C671 C680 1.429 . S
C672 C670 1.419 . S
C672 C673 1.363 . S
C672 H675 0.929 . S
C673 C672 1.363 . S
C673 C679 1.428 . S
H674 C670 0.930 . S
H675 C672 0.929 . S
S676 N677 1.613 . S
S676 N678 1.610 . S
N677 S676 1.613 . S
N677 C680 1.350 . S
N678 S676 1.610 . S
N678 C679 1.351 . S
C679 C673 1.428 . S
C679 N678 1.351 . S
C679 C680 1.434 . S
C680 C671 1.429 . S
C680 N677 1.350 . S
C680 C679 1.434 . S
C681 C682 1.369 . S
C681 C683 1.418 1_455 S
C681 H685 0.930 1_455 S
C682 C681 1.369 . S
C682 C691 1.429 . S
C683 C681 1.418 1_655 S
C683 C684 1.362 1_655 S
C683 H686 0.930 . S
C684 C683 1.362 1_455 S
C684 C690 1.428 . S
H685 C681 0.930 1_655 S
H686 C683 0.930 . S
S687 N688 1.613 . S
S687 N689 1.610 . S
N688 S687 1.613 . S
N688 C691 1.350 . S
N689 S687 1.610 . S
N689 C690 1.351 . S
C690 C684 1.428 . S
C690 N689 1.351 . S
C690 C691 1.434 . S
C691 C682 1.429 . S
C691 N688 1.350 . S
C691 C690 1.434 . S
C692 C693 1.369 1_545 S
C692 C694 1.419 1_554 S
C692 H696 0.930 . S
C693 C692 1.369 1_565 S
C693 C702 1.429 . S
C694 C692 1.419 1_556 S
C694 C695 1.363 1_545 S
C694 H697 0.929 . S
C695 C694 1.363 1_565 S
C695 C701 1.428 . S
H696 C692 0.930 . S
H697 C694 0.929 . S
S698 N699 1.613 1_556 S
S698 N700 1.610 . S
N699 S698 1.613 1_554 S
N699 C702 1.350 . S
N700 S698 1.610 . S
N700 C701 1.351 . S
C701 C695 1.428 . S
C701 N700 1.351 . S
C701 C702 1.434 1_556 S
C702 C693 1.429 . S
C702 N699 1.350 . S
C702 C701 1.434 1_554 S
C703 C704 1.369 . S
C703 C705 1.419 1_554 S
C703 H707 0.930 . S
C704 C703 1.369 . S
C704 C713 1.429 . S
C705 C703 1.419 1_556 S
C705 C706 1.363 . S
C705 H708 0.929 . S
C706 C705 1.363 . S
C706 C712 1.428 . S
H707 C703 0.930 . S
H708 C705 0.929 . S
S709 N710 1.613 . S
S709 N711 1.610 1_554 S
N710 S709 1.613 . S
N710 C713 1.350 . S
N711 S709 1.610 1_556 S
N711 C712 1.351 . S
C712 C706 1.428 . S
C712 N711 1.351 . S
C712 C713 1.434 1_556 S
C713 C704 1.429 . S
C713 N710 1.350 . S
C713 C712 1.434 1_554 S
C714 C715 1.369 . S
C714 C716 1.419 1_554 S
C714 H718 0.930 . S
C715 C714 1.369 . S
C715 C724 1.429 . S
C716 C714 1.419 1_556 S
C716 C717 1.363 . S
C716 H719 0.929 . S
C717 C716 1.363 . S
C717 C723 1.428 . S
H718 C714 0.930 . S
H719 C716 0.929 . S
S720 N721 1.613 . S
S720 N722 1.610 1_554 S
N721 S720 1.613 . S
N721 C724 1.350 . S
N722 S720 1.610 1_556 S
N722 C723 1.351 . S
C723 C717 1.428 . S
C723 N722 1.351 . S
C723 C724 1.434 1_556 S
C724 C715 1.429 . S
C724 N721 1.350 . S
C724 C723 1.434 1_554 S
C725 C726 1.369 . S
C725 C727 1.419 1_554 S
C725 H729 0.931 . S
C726 C725 1.369 . S
C726 C735 1.429 . S
C727 C725 1.419 1_556 S
C727 C728 1.363 . S
C727 H730 0.929 1_655 S
C728 C727 1.363 . S
C728 C734 1.428 . S
H729 C725 0.931 . S
H730 C727 0.929 1_455 S
S731 N732 1.613 . S
S731 N733 1.610 1_554 S
N732 S731 1.613 . S
N732 C735 1.350 . S
N733 S731 1.610 1_556 S
N733 C734 1.351 . S
C734 C728 1.428 . S
C734 N733 1.351 . S
C734 C735 1.434 1_556 S
C735 C726 1.429 . S
C735 N732 1.350 . S
C735 C734 1.434 1_554 S
C736 C737 1.369 . S
C736 C738 1.419 . S
C736 H740 0.930 . S
C737 C736 1.369 . S
C737 C746 1.429 . S
C738 C736 1.419 . S
C738 C739 1.363 1_455 S
C738 H741 0.929 1_455 S
C739 C738 1.363 1_655 S
C739 C745 1.428 1_655 S
H740 C736 0.930 . S
H741 C738 0.929 1_655 S
S742 N743 1.613 . S
S742 N744 1.610 1_455 S
N743 S742 1.613 . S
N743 C746 1.350 . S
N744 S742 1.610 1_655 S
N744 C745 1.351 1_655 S
C745 C739 1.428 1_455 S
C745 N744 1.351 1_455 S
C745 C746 1.434 . S
C746 C737 1.429 . S
C746 N743 1.350 . S
C746 C745 1.434 . S
C747 C748 1.369 . S
C747 C749 1.419 1_545 S
C747 H751 0.930 . S
C748 C747 1.369 . S
C748 C757 1.429 . S
C749 C747 1.419 1_565 S
C749 C750 1.363 . S
C749 H752 0.929 . S
C750 C749 1.363 . S
C750 C756 1.428 1_565 S
H751 C747 0.930 . S
H752 C749 0.929 . S
S753 N754 1.613 . S
S753 N755 1.610 . S
N754 S753 1.613 . S
N754 C757 1.350 . S
N755 S753 1.610 . S
N755 C756 1.351 . S
C756 C750 1.428 1_545 S
C756 N755 1.351 . S
C756 C757 1.434 . S
C757 C748 1.429 . S
C757 N754 1.350 . S
C757 C756 1.434 . S
C758 C759 1.369 . S
C758 C760 1.419 . S
C758 H762 0.930 . S
C759 C758 1.369 . S
C759 C768 1.429 . S
C760 C758 1.419 . S
C760 C761 1.363 . S
C760 H763 0.929 . S
C761 C760 1.363 . S
C761 C767 1.428 . S
H762 C758 0.930 . S
H763 C760 0.929 . S
S764 N765 1.613 . S
S764 N766 1.610 . S
N765 S764 1.613 . S
N765 C768 1.350 . S
N766 S764 1.610 . S
N766 C767 1.351 . S
C767 C761 1.428 . S
C767 N766 1.351 . S
C767 C768 1.434 . S
C768 C759 1.429 . S
C768 N765 1.350 . S
C768 C767 1.434 . S
C769 C770 1.369 . S
C769 C771 1.419 . S
C769 H773 0.930 . S
C770 C769 1.369 . S
C770 C779 1.429 . S
C771 C769 1.419 . S
C771 C772 1.363 . S
C771 H774 0.929 . S
C772 C771 1.363 . S
C772 C778 1.428 . S
H773 C769 0.930 . S
H774 C771 0.929 . S
S775 N776 1.613 . S
S775 N777 1.610 . S
N776 S775 1.613 . S
N776 C779 1.350 . S
N777 S775 1.610 . S
N777 C778 1.351 . S
C778 C772 1.428 . S
C778 N777 1.351 . S
C778 C779 1.434 . S
C779 C770 1.429 . S
C779 N776 1.350 . S
C779 C778 1.434 . S
C780 C781 1.369 . S
C780 C782 1.419 1_655 S
C780 H784 0.930 . S
C781 C780 1.369 . S
C781 C790 1.429 1_554 S
C782 C780 1.419 1_455 S
C782 C783 1.363 1_554 S
C782 H785 0.929 . S
C783 C782 1.363 1_556 S
C783 C789 1.428 . S
H784 C780 0.930 . S
H785 C782 0.929 . S
S786 N787 1.613 1_455 S
S786 N788 1.610 . S
N787 S786 1.613 1_655 S
N787 C790 1.350 . S
N788 S786 1.610 . S
N788 C789 1.351 . S
C789 C783 1.428 . S
C789 N788 1.351 . S
C789 C790 1.434 1_455 S
C790 C781 1.429 1_556 S
C790 N787 1.350 . S
C790 C789 1.434 1_655 S
C791 C792 1.369 1_556 S
C791 C793 1.419 1_565 S
C791 H795 0.930 . S
C792 C791 1.369 1_554 S
C792 C801 1.429 . S
C793 C791 1.419 1_545 S
C793 C794 1.363 . S
C793 H796 0.929 . S
C794 C793 1.363 . S
C794 C800 1.428 1_546 S
H795 C791 0.930 . S
H796 C793 0.929 . S
S797 N798 1.613 . S
S797 N799 1.610 . S
N798 S797 1.613 . S
N798 C801 1.350 . S
N799 S797 1.610 . S
N799 C800 1.351 . S
C800 C794 1.428 1_564 S
C800 N799 1.351 . S
C800 C801 1.434 . S
C801 C792 1.429 . S
C801 N798 1.350 . S
C801 C800 1.434 . S
C802 C803 1.369 . S
C802 C804 1.419 . S
C802 H806 0.930 . S
C803 C802 1.369 . S
C803 C812 1.429 1_554 S
C804 C802 1.419 . S
C804 C805 1.363 1_554 S
C804 H807 0.929 . S
C805 C804 1.363 1_556 S
C805 C811 1.428 . S
H806 C802 0.930 . S
H807 C804 0.929 . S
S808 N809 1.613 . S
S808 N810 1.610 . S
N809 S808 1.613 . S
N809 C812 1.350 . S
N810 S808 1.610 . S
N810 C811 1.351 . S
C811 C805 1.428 . S
C811 N810 1.351 . S
C811 C812 1.434 . S
C812 C803 1.429 1_556 S
C812 N809 1.350 . S
C812 C811 1.434 . S
C813 C814 1.369 1_556 S
C813 C815 1.419 . S
C813 H817 0.930 . S
C814 C813 1.369 1_554 S
C814 C823 1.429 . S
C815 C813 1.419 . S
C815 C816 1.363 . S
C815 H818 0.929 . S
C816 C815 1.363 . S
C816 C822 1.428 1_556 S
H817 C813 0.930 . S
H818 C815 0.929 . S
S819 N820 1.613 . S
S819 N821 1.610 . S
N820 S819 1.613 . S
N820 C823 1.350 . S
N821 S819 1.610 . S
N821 C822 1.351 . S
C822 C816 1.428 1_554 S
C822 N821 1.351 . S
C822 C823 1.434 . S
C823 C814 1.429 . S
C823 N820 1.350 . S
C823 C822 1.434 . S
C824 C825 1.369 . S
C824 C826 1.419 . S
C824 H828 0.930 . S
C825 C824 1.369 . S
C825 C834 1.429 . S
C826 C824 1.419 . S
C826 C827 1.363 . S
C826 H829 0.929 . S
C827 C826 1.363 . S
C827 C833 1.428 . S
H828 C824 0.930 . S
H829 C826 0.929 . S
S830 N831 1.613 . S
S830 N832 1.610 . S
N831 S830 1.613 . S
N831 C834 1.350 1_655 S
N832 S830 1.610 . S
N832 C833 1.351 1_655 S
C833 C827 1.428 . S
C833 N832 1.351 1_455 S
C833 C834 1.434 . S
C834 C825 1.429 . S
C834 N831 1.350 1_455 S
C834 C833 1.434 . S
C835 C836 1.369 . S
C835 C837 1.419 . S
C835 H839 0.930 . S
C836 C835 1.369 . S
C836 C845 1.429 . S
C837 C835 1.419 . S
C837 C838 1.363 . S
C837 H840 0.929 . S
C838 C837 1.363 . S
C838 C844 1.428 . S
H839 C835 0.930 . S
H840 C837 0.929 . S
S841 N842 1.613 . S
S841 N843 1.610 . S
N842 S841 1.613 . S
N842 C845 1.350 . S
N843 S841 1.610 . S
N843 C844 1.351 . S
C844 C838 1.428 . S
C844 N843 1.351 . S
C844 C845 1.434 . S
C845 C836 1.429 . S
C845 N842 1.350 . S
C845 C844 1.434 . S
C846 C847 1.369 . S
C846 C848 1.419 . S
C846 H850 0.930 . S
C847 C846 1.369 . S
C847 C856 1.429 . S
C848 C846 1.419 . S
C848 C849 1.363 . S
C848 H851 0.929 . S
C849 C848 1.363 . S
C849 C855 1.428 . S
H850 C846 0.930 . S
H851 C848 0.929 . S
S852 N853 1.613 . S
S852 N854 1.610 . S
N853 S852 1.613 . S
N853 C856 1.350 . S
N854 S852 1.610 . S
N854 C855 1.351 . S
C855 C849 1.428 . S
C855 N854 1.351 . S
C855 C856 1.434 . S
C856 C847 1.429 . S
C856 N853 1.350 . S
C856 C855 1.434 . S
C857 C858 1.369 . S
C857 C859 1.419 . S
C857 H861 0.930 . S
C858 C857 1.369 . S
C858 C867 1.429 . S
C859 C857 1.419 . S
C859 C860 1.363 . S
C859 H862 0.929 . S
C860 C859 1.363 . S
C860 C866 1.428 . S
H861 C857 0.930 . S
H862 C859 0.929 . S
S863 N864 1.613 . S
S863 N865 1.610 . S
N864 S863 1.613 . S
N864 C867 1.350 . S
N865 S863 1.610 . S
N865 C866 1.351 . S
C866 C860 1.428 . S
C866 N865 1.351 . S
C866 C867 1.434 . S
C867 C858 1.429 . S
C867 N864 1.350 . S
C867 C866 1.434 . S
C868 C869 1.369 . S
C868 C870 1.419 . S
C868 H872 0.930 . S
C869 C868 1.369 . S
C869 C878 1.429 . S
C870 C868 1.419 . S
C870 C871 1.363 . S
C870 H873 0.929 . S
C871 C870 1.363 . S
C871 C877 1.412 1_655 S
H872 C868 0.930 . S
H873 C870 0.929 . S
S874 N875 1.613 . S
S874 N876 1.610 . S
N875 S874 1.613 . S
N875 C878 1.350 1_455 S
N876 S874 1.610 . S
N876 C877 1.370 . S
C877 C871 1.412 1_455 S
C877 N876 1.370 . S
C877 C878 1.432 1_455 S
C878 C869 1.429 . S
C878 N875 1.350 1_655 S
C878 C877 1.432 1_655 S
C879 C880 1.369 1_545 S
C879 C881 1.419 . S
C879 H883 0.930 . S
C880 C879 1.369 1_565 S
C880 C889 1.429 . S
C881 C879 1.419 . S
C881 C882 1.363 1_545 S
C881 H884 0.929 . S
C882 C881 1.363 1_565 S
C882 C888 1.428 . S
H883 C879 0.930 . S
H884 C881 0.929 . S
S885 N886 1.613 . S
S885 N887 1.610 . S
N886 S885 1.613 . S
N886 C889 1.350 . S
N887 S885 1.610 . S
N887 C888 1.351 . S
C888 C882 1.428 . S
C888 N887 1.351 . S
C888 C889 1.434 . S
C889 C880 1.429 . S
C889 N886 1.350 . S
C889 C888 1.434 . S
C890 C891 1.369 . S
C890 C892 1.419 . S
C890 H894 0.930 . S
C891 C890 1.369 . S
C891 C900 1.429 . S
C892 C890 1.419 . S
C892 C893 1.363 . S
C892 H895 0.929 . S
C893 C892 1.363 . S
C893 C899 1.428 . S
H894 C890 0.930 . S
H895 C892 0.929 . S
S896 N897 1.613 . S
S896 N898 1.610 . S
N897 S896 1.613 . S
N897 C900 1.350 . S
N898 S896 1.610 . S
N898 C899 1.351 . S
C899 C893 1.428 . S
C899 N898 1.351 . S
C899 C900 1.434 . S
C900 C891 1.429 . S
C900 N897 1.350 . S
C900 C899 1.434 . S
C901 C902 1.369 . S
C901 C903 1.419 . S
C901 H905 0.930 . S
C902 C901 1.369 . S
C902 C911 1.429 . S
C903 C901 1.419 . S
C903 C904 1.363 . S
C903 H906 0.929 . S
C904 C903 1.363 . S
C904 C910 1.428 . S
H905 C901 0.930 . S
H906 C903 0.929 . S
S907 N908 1.613 . S
S907 N909 1.610 . S
N908 S907 1.613 . S
N908 C911 1.350 . S
N909 S907 1.610 . S
N909 C910 1.351 . S
C910 C904 1.428 . S
C910 N909 1.351 . S
C910 C911 1.434 . S
C911 C902 1.429 . S
C911 N908 1.350 . S
C911 C910 1.434 . S
C649 C255 2.582 . S
C651 C375 2.832 . S
C662 C452 2.843 . S
C660 C294 2.566 . S
C673 C543 2.835 . S
C671 C177 2.591 . S
C684 C627 2.822 . S
C682 C216 2.570 . S
C695 C386 2.832 1_565 S
C693 C99 2.590 . S
C704 C138 2.563 . S
C706 C463 2.841 . S
C715 C21 2.596 . S
C717 C554 2.835 . S
C726 C60 2.585 . S
C728 C638 2.818 1_655 S
C739 C370 0.760 . S
C737 C196 0.744 . S
C750 C465 0.748 . S
C748 C235 0.762 . S
C761 C538 0.768 . S
C759 C289 0.749 . S
C770 C157 0.739 . S
C772 C622 0.752 . S
C781 C40 0.754 . S
C783 C381 0.751 . S
C794 C454 0.740 . S
C792 C79 0.753 . S
C805 C549 0.762 . S
C803 C133 0.772 . S
C814 C1 0.740 . S
C816 C633 0.752 . S
C825 C211 2.889 . S
C827 C379 3.296 . S
C836 C250 2.900 . S
C838 C470 3.396 . S
C849 C547 3.313 . S
C847 C274 2.922 . S
C860 C631 3.310 . S
C858 C172 2.910 . S
C869 C55 2.896 . S
C871 C368 3.294 . S
C882 C459 3.397 . S
C880 C94 2.893 . S
C893 C536 3.316 . S
C891 C118 2.912 . S
C902 C16 2.903 . S
C904 C620 3.312 . S
