# Generated by pormake.
# Topology anh, (6,3)-cn, num edge types: 1
# Building blocks:
#     Node 0, Type 0, BuildingBlock: PAMTOO_clean_sbu_0, # of connection points: 6
#     Node 1, Type 0, BuildingBlock: PAMTOO_clean_sbu_0, # of connection points: 6
#     Node 2, Type 0, BuildingBlock: PAMTOO_clean_sbu_0, # of connection points: 6
#     Node 3, Type 1, BuildingBlock: KAKCAD_clean_linker_0, # of connection points: 3
#     Node 4, Type 1, BuildingBlock: KAKCAD_clean_linker_0, # of connection points: 3
#     Node 5, Type 1, BuildingBlock: KAKCAD_clean_linker_0, # of connection points: 3
#     Node 6, Type 1, BuildingBlock: KAKCAD_clean_linker_0, # of connection points: 3
#     Node 7, Type 1, BuildingBlock: KAKCAD_clean_linker_0, # of connection points: 3
#     Node 8, Type 1, BuildingBlock: KAKCAD_clean_linker_0, # of connection points: 3
#     Edge 9, Type (0, 1), BuildingBlock: EZIPEK_clean_linker_0, # of connection points: 2
#     Edge 10, Type (0, 1), BuildingBlock: EZIPEK_clean_linker_0, # of connection points: 2
#     Edge 11, Type (0, 1), BuildingBlock: EZIPEK_clean_linker_0, # of connection points: 2
#     Edge 12, Type (0, 1), BuildingBlock: EZIPEK_clean_linker_0, # of connection points: 2
#     Edge 13, Type (0, 1), BuildingBlock: EZIPEK_clean_linker_0, # of connection points: 2
#     Edge 14, Type (0, 1), BuildingBlock: EZIPEK_clean_linker_0, # of connection points: 2
#     Edge 15, Type (0, 1), BuildingBlock: EZIPEK_clean_linker_0, # of connection points: 2
#     Edge 16, Type (0, 1), BuildingBlock: EZIPEK_clean_linker_0, # of connection points: 2
#     Edge 17, Type (0, 1), BuildingBlock: EZIPEK_clean_linker_0, # of connection points: 2
#     Edge 18, Type (0, 1), BuildingBlock: EZIPEK_clean_linker_0, # of connection points: 2
#     Edge 19, Type (0, 1), BuildingBlock: EZIPEK_clean_linker_0, # of connection points: 2
#     Edge 20, Type (0, 1), BuildingBlock: EZIPEK_clean_linker_0, # of connection points: 2
#     Edge 21, Type (0, 1), BuildingBlock: EZIPEK_clean_linker_0, # of connection points: 2
#     Edge 22, Type (0, 1), BuildingBlock: EZIPEK_clean_linker_0, # of connection points: 2
#     Edge 23, Type (0, 1), BuildingBlock: EZIPEK_clean_linker_0, # of connection points: 2
#     Edge 24, Type (0, 1), BuildingBlock: EZIPEK_clean_linker_0, # of connection points: 2
#     Edge 25, Type (0, 1), BuildingBlock: EZIPEK_clean_linker_0, # of connection points: 2
#     Edge 26, Type (0, 1), BuildingBlock: EZIPEK_clean_linker_0, # of connection points: 2
# Relax obj value: 0.211
# Max RMSD: 0.208
# Mean RMSD: 0.164
data_MOF--net-anh--node1-PAMTOO_clean_sbu_0--node2-KAKCAD_clean_linker_0--edge1-EZIPEK_clean_linker_0
_symmetry_space_group_name_H-M    P1
_symmetry_Int_Tables_number       1
_symmetry_cell_setting            triclinic
loop_
_symmetry_equiv_pos_as_xyz
'x, y, z'
_cell_length_a     29.065993
_cell_length_b     27.65786
_cell_length_c     53.410008
_cell_angle_alpha  90.920347
_cell_angle_beta   94.767001
_cell_angle_gamma 102.83059
loop_
_atom_site_label
_atom_site_type_symbol
_atom_site_fract_x
_atom_site_fract_y
_atom_site_fract_z
_atom_type_partial_charge
Dy0 Dy 0.08377 0.60532 0.14547 0.0
Dy1 Dy 1.05229 0.48656 0.13016 0.0
C2 C 0.07713 0.56711 0.08742 0.0
O3 O 1.00329 0.59409 0.13696 0.0
O4 O 0.98274 0.50895 0.13721 0.0
O5 O 0.09549 0.68375 0.13774 0.0
O6 O 0.11292 0.66014 0.17501 0.0
O7 O 0.07308 0.49371 0.17145 0.0
O8 O 1.05298 0.56725 0.17857 0.0
O9 O 0.13151 0.50458 0.12441 0.0
O10 O 0.15333 0.57814 0.14749 0.0
O11 O 1.05808 0.41123 0.13718 0.0
O12 O 1.00445 0.425 0.10944 0.0
C13 C 0.97019 0.55226 0.13661 0.0
O14 O 0.09106 0.60313 0.10446 0.0
O15 O 1.05891 0.52095 0.09268 0.0
C16 C 0.16237 0.73243 0.16189 0.0
C17 C 0.25186 0.7978 0.17057 0.0
C18 C 0.24834 0.74773 0.16387 0.0
C19 C 0.20389 0.71523 0.1597 0.0
C20 C 0.16584 0.7828 0.16769 0.0
C21 C 0.21032 0.81531 0.17205 0.0
C22 C 0.11585 0.69742 0.1602 0.0
C23 C 1.06211 0.52587 0.18673 0.0
C24 C 0.16524 0.54104 0.13533 0.0
C25 C 0.98204 0.35609 0.1349 0.0
C26 C 0.90682 0.29377 0.15716 0.0
C27 C 0.94702 0.31956 0.17211 0.0
C28 C 0.98436 0.35034 0.1611 0.0
C29 C 0.94211 0.32938 0.11996 0.0
C30 C 0.90482 0.29849 0.13098 0.0
C31 C 1.01922 0.39194 0.12314 0.0
H32 H 0.28 0.73351 0.16275 0.0
H33 H 0.2019 0.67636 0.15565 0.0
H34 H 0.13421 0.79667 0.16962 0.0
H35 H 0.21241 0.85378 0.17729 0.0
H36 H 0.94921 0.31634 0.19234 0.0
H37 H 1.01462 0.37026 0.17318 0.0
H38 H 0.93938 0.33316 0.09976 0.0
H39 H 0.87409 0.27878 0.11914 0.0
Dy40 Dy 0.54245 1.00701 0.51522 0.0
Dy41 Dy 0.6596 0.03497 0.5224 0.0
C42 C 0.59871 0.01781 0.56899 0.0
O43 O 0.56105 0.08943 0.51154 0.0
O44 O 0.63856 0.10708 0.52896 0.0
O45 O 0.47581 0.9762 0.53018 0.0
O46 O 0.47666 1.00594 0.49295 0.0
O47 O 0.63778 0.0531 0.48334 0.0
O48 O 0.56864 0.99407 0.47805 0.0
O49 O 0.64075 0.95259 0.51455 0.0
O50 O 0.56203 0.9343 0.52243 0.0
O51 O 0.72661 0.02911 0.50958 0.0
O52 O 0.72486 0.07285 0.54342 0.0
C53 C 0.59984 0.12105 0.52061 0.0
O54 O 0.56513 0.03249 0.55523 0.0
O55 O 0.63427 1.00593 0.5587 0.0
C56 C 0.41712 0.93515 0.49964 0.0
C57 C 0.35344 0.84603 0.48347 0.0
C58 C 0.34073 0.87816 0.50089 0.0
C59 C 0.37241 0.92256 0.50889 0.0
C60 C 0.42994 0.9028 0.48231 0.0
C61 C 0.39813 0.8586 0.47416 0.0
C62 C 0.45098 0.98057 0.50925 0.0
C63 C 0.60371 0.02473 0.46872 0.0
C64 C 0.6015 0.92059 0.5187 0.0
C65 C 0.78469 0.10411 0.51688 0.0
C66 C 0.84699 0.18745 0.49969 0.0
C67 C 0.81248 0.15722 0.48286 0.0
C68 C 0.78141 0.11602 0.49138 0.0
C69 C 0.81945 0.13426 0.53368 0.0
C70 C 0.85027 0.17582 0.52517 0.0
C71 C 0.75087 0.06187 0.52635 0.0
H72 H 0.30633 0.86885 0.50822 0.0
H73 H 0.3622 0.94685 0.52247 0.0
H74 H 0.4646 0.91157 0.47524 0.0
H75 H 0.40842 0.83402 0.46077 0.0
H76 H 0.8094 0.16581 0.46316 0.0
H77 H 0.75461 0.09384 0.47802 0.0
H78 H 0.82238 0.12595 0.55342 0.0
H79 H 0.87664 0.19893 0.5384 0.0
Dy80 Dy 0.61507 0.48449 0.83578 0.0
Dy81 Dy 0.4993 0.46173 0.82774 0.0
C82 C 0.56175 0.47898 0.78193 0.0
O83 O 0.59787 0.55874 0.84198 0.0
O84 O 0.52262 0.54354 0.82202 0.0
O85 O 0.68222 0.51661 0.85647 0.0
O86 O 0.67981 0.47591 0.82112 0.0
O87 O 0.51927 0.48349 0.86843 0.0
O88 O 0.59138 0.46224 0.87336 0.0
O89 O 0.51365 0.38783 0.83755 0.0
O90 O 0.59125 0.40221 0.82791 0.0
O91 O 0.43044 0.45671 0.84138 0.0
O92 O 0.43612 0.44139 0.80213 0.0
C93 C 0.5612 0.57443 0.83199 0.0
O94 O 0.59552 0.50613 0.79708 0.0
O95 O 0.5262 0.44858 0.79084 0.0
C96 C 0.73921 0.54886 0.82907 0.0
C97 C 0.79902 0.63636 0.81486 0.0
C98 C 0.75571 0.61753 0.80077 0.0
C99 C 0.72587 0.57393 0.80788 0.0
C100 C 0.78292 0.56731 0.84276 0.0
C101 C 0.81267 0.61075 0.83567 0.0
C102 C 0.70615 0.50622 0.83829 0.0
C103 C 0.55465 0.47345 0.88276 0.0
C104 C 0.55152 0.37188 0.83281 0.0
C105 C 0.38177 0.48948 0.81194 0.0
C106 C 0.34178 0.57207 0.80362 0.0
C107 C 0.33357 0.54458 0.82529 0.0
C108 C 0.35319 0.50348 0.82936 0.0
C109 C 0.38803 0.51569 0.78957 0.0
C110 C 0.36779 0.55654 0.78536 0.0
C111 C 0.40911 0.45185 0.81873 0.0
H112 H 0.74482 0.63691 0.78465 0.0
H113 H 0.69208 0.56028 0.79711 0.0
H114 H 0.79356 0.54871 0.85923 0.0
H115 H 0.84616 0.62494 0.84668 0.0
H116 H 0.313 0.55589 0.83941 0.0
H117 H 0.34773 0.48391 0.84667 0.0
H118 H 0.4099 0.50586 0.77573 0.0
H119 H 0.37388 0.57711 0.76841 0.0
C120 C 0.62416 0.08648 0.35003 0.0
C121 C 0.61002 0.04032 0.36094 0.0
C122 C 0.62341 0.08963 0.32386 0.0
C123 C 0.60812 0.04667 0.30822 0.0
C124 C 0.5949 1.00041 0.31935 0.0
C125 C 0.59592 0.99728 0.34547 0.0
C126 C 0.6037 0.05006 0.28038 0.0
C127 C 0.63981 0.07966 0.26782 0.0
C128 C 0.63552 0.08248 0.2414 0.0
C129 C 0.5941 0.05505 0.22765 0.0
C130 C 0.55739 0.02583 0.24003 0.0
C131 C 0.56273 0.02352 0.26632 0.0
C132 C 0.51321 0.99716 0.22591 0.0
C133 C 0.51496 0.96682 0.20477 0.0
C134 C 0.46895 0.99714 0.23477 0.0
C135 C 0.42767 0.96596 0.22349 0.0
C136 C 0.42975 0.93416 0.20312 0.0
C137 C 0.67435 0.11398 0.22832 0.0
C138 C 0.6993 0.16034 0.23892 0.0
C139 C 0.6873 0.09778 0.20532 0.0
C140 C 0.72439 0.12695 0.19339 0.0
C141 C 0.7494 0.17282 0.20423 0.0
C142 C 0.73647 0.18935 0.22704 0.0
C143 C 0.47351 0.93535 0.19351 0.0
H144 H 0.63513 0.12006 0.36177 0.0
H145 H 0.63343 0.12578 0.31584 0.0
H146 H 0.58351 0.9666 0.30782 0.0
H147 H 0.58505 0.96137 0.35363 0.0
H148 H 0.67185 0.09944 0.27863 0.0
H149 H 0.53468 1.00082 0.27594 0.0
H150 H 0.58976 0.05746 0.2074 0.0
H151 H 0.54856 0.96583 0.19764 0.0
H152 H 0.46637 0.02055 0.25081 0.0
H153 H 0.3942 0.96555 0.23112 0.0
H154 H 0.6899 0.17446 0.25635 0.0
H155 H 0.66937 0.06211 0.19673 0.0
H156 H 0.47572 0.91086 0.17785 0.0
H157 H 0.75525 0.22473 0.23564 0.0
H158 H 0.73392 0.11355 0.17581 0.0
C159 C 0.54294 0.51947 0.65992 0.0
C160 C 0.57634 0.50068 0.67501 0.0
C161 C 0.54753 0.5252 0.63422 0.0
C162 C 0.58522 0.51154 0.62318 0.0
C163 C 0.61863 0.49278 0.63836 0.0
C164 C 0.6144 0.48771 0.66411 0.0
C165 C 0.5888 0.5153 0.59572 0.0
C166 C 0.58472 0.55882 0.58354 0.0
C167 C 0.58714 0.56244 0.55736 0.0
C168 C 0.59344 0.52081 0.54332 0.0
C169 C 0.5978 0.4769 0.55556 0.0
C170 C 0.59568 0.47486 0.58166 0.0
C171 C 0.60322 0.43141 0.54205 0.0
C172 C 0.56456 0.40174 0.52735 0.0
C173 C 0.64316 0.4119 0.5486 0.0
C174 C 0.64335 0.3628 0.54196 0.0
C175 C 0.60343 0.33206 0.52881 0.0
C176 C 0.58455 0.61071 0.5456 0.0
C177 C 0.55348 0.63877 0.55404 0.0
C178 C 0.61627 0.63176 0.52811 0.0
C179 C 0.61875 0.68068 0.52052 0.0
C180 C 0.58972 0.70942 0.53038 0.0
C181 C 0.55629 0.68756 0.54667 0.0
C182 C 0.56461 0.35233 0.52082 0.0
H183 H 0.51334 0.52964 0.66805 0.0
H184 H 0.52108 0.53931 0.62288 0.0
H185 H 0.64817 0.48229 0.63032 0.0
H186 H 0.64061 0.47338 0.67552 0.0
H187 H 0.58098 0.59052 0.59474 0.0
H188 H 0.59811 0.44085 0.591 0.0
H189 H 0.59494 0.52247 0.52315 0.0
H190 H 0.53299 0.41554 0.52254 0.0
H191 H 0.67306 0.43376 0.56028 0.0
H192 H 0.67357 0.3479 0.54836 0.0
H193 H 0.52788 0.62352 0.56708 0.0
H194 H 0.64085 0.61145 0.52131 0.0
H195 H 0.53338 0.32915 0.51077 0.0
H196 H 0.53326 0.70885 0.5543 0.0
H197 H 0.64474 0.69686 0.50785 0.0
C198 C 0.13865 0.70258 -0.00761 0.0
C199 C 0.10313 0.65875 -0.00773 0.0
C200 C 0.1452 0.72958 0.97051 0.0
C201 C 0.11557 0.71362 0.94847 0.0
C202 C 0.08034 0.66963 0.94838 0.0
C203 C 0.0745 0.64216 0.97001 0.0
C204 C 0.12176 0.741 0.92502 0.0
C205 C 0.16308 0.74389 0.91283 0.0
C206 C 0.16445 0.75723 0.88751 0.0
C207 C 0.1249 0.77106 0.8752 0.0
C208 C 0.08366 0.76931 0.88739 0.0
C209 C 0.08286 0.75525 0.91253 0.0
C210 C 1.03889 0.77152 0.87239 0.0
C211 C 1.0378 0.80564 0.85313 0.0
C212 C 0.99783 0.735 0.87543 0.0
C213 C 0.9574 0.73128 0.85909 0.0
C214 C 0.95697 0.76373 0.83925 0.0
C215 C 0.20189 0.74638 0.87237 0.0
C216 C 0.21696 0.77549 0.85187 0.0
C217 C 0.21765 0.70229 0.87616 0.0
C218 C 0.24552 0.68639 0.85925 0.0
C219 C 0.258 0.71386 0.8381 0.0
C220 C 0.2447 0.75917 0.83473 0.0
C221 C 0.99689 0.80186 0.83665 0.0
H222 H 0.16117 0.7158 0.00942 0.0
H223 H 0.17286 0.76313 0.97085 0.0
H224 H 1.05763 0.65622 0.93142 0.0
H225 H 1.04718 0.60829 0.96951 0.0
H226 H 0.19257 0.73154 0.92239 0.0
H227 H 1.0507 0.752 0.92193 0.0
H228 H 0.12422 0.77788 0.85526 0.0
H229 H 1.06893 0.83421 0.85039 0.0
H230 H 0.99755 0.70733 0.88957 0.0
H231 H 0.92685 0.70151 0.86128 0.0
H232 H 0.20573 0.80981 0.84854 0.0
H233 H 0.20606 0.67817 0.89126 0.0
H234 H 0.99693 0.82729 0.82145 0.0
H235 H 0.25425 0.78077 0.81846 0.0
H236 H 0.25551 0.65122 0.86202 0.0
C237 C 1.02911 0.49818 0.30746 0.0
C238 C 1.06881 0.49891 0.29408 0.0
C239 C 1.03295 0.49607 0.33368 0.0
C240 C 0.07675 0.4956 0.34684 0.0
C241 C 0.11618 0.49538 0.33336 0.0
C242 C 0.11213 0.49656 0.30717 0.0
C243 C 0.08199 0.49751 0.37464 0.0
C244 C 1.05183 0.463 0.38823 0.0
C245 C 1.05712 0.46444 0.41469 0.0
C246 C 0.0921 0.50238 0.42741 0.0
C247 C 0.1221 0.53761 0.41395 0.0
C248 C 0.11713 0.53446 0.38758 0.0
C249 C 0.15787 0.57875 0.42716 0.0
C250 C 0.14526 0.6073 0.44639 0.0
C251 C 0.20396 0.5919 0.41942 0.0
C252 C 0.23628 0.63368 0.43009 0.0
C253 C 0.22292 0.66309 0.44856 0.0
C254 C 1.02678 0.42568 0.42885 0.0
C255 C 1.01485 0.37602 0.41975 0.0
C256 C 1.00964 0.43769 0.45151 0.0
C257 C 0.98114 0.40091 0.46465 0.0
C258 C 0.96898 0.35165 0.45524 0.0
C259 C 0.98608 0.33948 0.43275 0.0
C260 C 0.17752 0.64936 0.45693 0.0
H261 H 0.99548 0.5002 0.29765 0.0
H262 H 1.00216 0.49652 0.34373 0.0
H263 H 0.15021 0.49471 0.34314 0.0
H264 H 0.14311 0.4971 0.29712 0.0
H265 H 1.02443 0.4348 0.37809 0.0
H266 H 0.13964 0.5619 0.37702 0.0
H267 H 0.09691 0.50388 0.44777 0.0
H268 H 0.10988 0.59825 0.45256 0.0
H269 H 0.21474 0.57028 0.4048 0.0
H270 H 0.27126 0.64388 0.42348 0.0
H271 H 1.02818 0.36516 0.40269 0.0
H272 H 1.01769 0.47558 0.45893 0.0
H273 H 0.16675 0.67189 0.47114 0.0
H274 H 0.97726 0.30154 0.42532 0.0
H275 H 0.96823 0.41086 0.48203 0.0
C276 C 0.56809 0.95106 0.68614 0.0
C277 C 0.58871 0.99719 0.67672 0.0
C278 C 0.56326 0.946 0.71186 0.0
C279 C 0.58059 0.98656 0.729 0.0
C280 C 0.60296 0.03227 0.71943 0.0
C281 C 0.606 0.03774 0.69361 0.0
C282 C 0.57437 0.98171 0.75652 0.0
C283 C 0.57169 0.93604 0.76821 0.0
C284 C 0.56397 0.93074 0.79384 0.0
C285 C 0.56133 0.97315 0.80838 0.0
C286 C 0.56519 0.01951 0.79707 0.0
C287 C 0.57047 0.02286 0.77125 0.0
C288 C 0.56407 0.06599 0.81117 0.0
C289 C 0.5213 0.07434 0.81885 0.0
C290 C 0.6036 0.10613 0.81187 0.0
C291 C 0.59987 0.15408 0.81872 0.0
C292 C 0.55643 0.16302 0.82485 0.0
C293 C 0.55915 0.88036 0.80463 0.0
C294 C 0.532 0.83836 0.79078 0.0
C295 C 0.58464 0.87294 0.8273 0.0
C296 C 0.58499 0.82461 0.8351 0.0
C297 C 0.55974 0.78297 0.8204 0.0
C298 C 0.53239 0.79037 0.79853 0.0
C299 C 0.5175 0.12255 0.82565 0.0
H300 H 0.55452 0.9192 0.67344 0.0
H301 H 0.54494 0.9104 0.71807 0.0
H302 H 0.61832 0.06417 0.73176 0.0
H303 H 0.62224 0.07366 0.68681 0.0
H304 H 0.57641 0.90426 0.75746 0.0
H305 H 0.5708 0.05815 0.76269 0.0
H306 H 0.5562 0.97013 0.8282 0.0
H307 H 0.49009 0.04428 0.81796 0.0
H308 H 0.63673 0.10082 0.80564 0.0
H309 H 0.63027 0.18467 0.81794 0.0
H310 H 0.51135 0.84263 0.77345 0.0
H311 H 0.60605 0.90435 0.83835 0.0
H312 H 0.48362 0.12869 0.83027 0.0
H313 H 0.51239 0.75885 0.78702 0.0
H314 H 0.60631 0.81968 0.85208 0.0
C315 C 0.57311 0.46471 0.0072 0.0
C316 C 0.55086 0.49327 -0.00922 0.0
C317 C 0.5743 0.47231 0.03324 0.0
C318 C 0.55304 0.50846 0.0433 0.0
C319 C 0.52989 0.53623 0.02671 0.0
C320 C 0.52897 0.52881 0.00067 0.0
C321 C 0.5566 0.51852 0.07098 0.0
C322 C 0.60011 0.52307 0.08515 0.0
C323 C 0.60596 0.53328 0.11122 0.0
C324 C 0.56455 0.54042 0.12321 0.0
C325 C 0.51894 0.53641 0.10874 0.0
C326 C 0.51692 0.52451 0.08282 0.0
C327 C 0.47175 0.54428 0.11815 0.0
C328 C 0.45059 0.52084 0.13909 0.0
C329 C 0.44279 0.56943 0.10286 0.0
C330 C 0.39508 0.56868 0.10708 0.0
C331 C 0.37312 0.54407 0.12739 0.0
C332 C 0.65658 0.53492 0.12339 0.0
C333 C 0.6784 0.49505 0.11834 0.0
C334 C 0.68759 0.57893 0.13374 0.0
C335 C 0.7377 0.58303 0.13801 0.0
C336 C 0.75942 0.54371 0.13164 0.0
C337 C 0.72814 0.49938 0.12218 0.0
C338 C 0.40264 0.52115 0.14372 0.0
H339 H 0.59018 0.43713 -0.00016 0.0
H340 H 0.592 0.45001 0.04552 0.0
H341 H 0.51362 0.56466 0.03386 0.0
H342 H 0.5118 0.55128 -0.01178 0.0
H343 H 0.63055 0.51932 0.07545 0.0
H344 H 0.48343 0.51916 0.07142 0.0
H345 H 0.56776 0.54895 0.14321 0.0
H346 H 0.47034 0.50046 0.15139 0.0
H347 H 0.45664 0.58869 0.08665 0.0
H348 H 0.37487 0.58715 0.09396 0.0
H349 H 0.65686 0.46068 0.10991 0.0
H350 H 0.67353 0.61125 0.13729 0.0
H351 H 0.38816 0.50214 0.15984 0.0
H352 H 0.74244 0.46801 0.11702 0.0
H353 H 0.75986 0.61794 0.1454 0.0
C354 C 0.25209 0.58536 0.1284 0.0
C355 C 0.21863 0.54116 0.13366 0.0
C356 C 0.28546 0.49731 0.1328 0.0
C357 C 0.31989 0.54275 0.13086 0.0
N358 N 0.33386 0.63207 0.13344 0.0
N359 N 0.20883 0.45641 0.14635 0.0
C360 C 0.30241 0.58726 0.13061 0.0
C361 C 0.23696 0.49756 0.13738 0.0
N362 N 0.23604 0.62534 0.11976 0.0
N363 N 0.29804 0.45324 0.12904 0.0
H364 H 0.17448 0.45534 0.15095 0.0
H365 H 0.22141 0.42538 0.15184 0.0
H366 H 0.33176 0.45097 0.12461 0.0
H367 H 0.27364 0.41923 0.12761 0.0
H368 H 0.2583 0.65675 0.11337 0.0
H369 H 0.20013 0.62484 0.11617 0.0
H370 H 0.32337 0.66542 0.13581 0.0
H371 H 0.37036 0.63537 0.1364 0.0
C372 C 0.86081 0.27264 0.48224 0.0
C373 C 0.87929 0.23164 0.49045 0.0
C374 C 0.95831 0.27463 0.48025 0.0
C375 C 0.93848 0.31222 0.46884 0.0
N376 N 0.8696 0.34401 0.45592 0.0
N377 N 0.94428 0.19019 0.49424 0.0
C378 C 0.88938 0.31064 0.46912 0.0
C379 C 0.92779 0.23177 0.48878 0.0
N380 N 0.81628 0.27575 0.48748 0.0
N381 N 1.00641 0.28041 0.48338 0.0
H382 H 0.92302 0.15785 0.50038 0.0
H383 H 0.97796 0.18627 0.49065 0.0
H384 H 1.02987 0.31162 0.47757 0.0
H385 H 1.02308 0.25669 0.49383 0.0
H386 H 0.8027 0.30713 0.48424 0.0
H387 H 0.79449 0.24878 0.49727 0.0
H388 H 0.83319 0.34117 0.45312 0.0
H389 H 0.8892 0.37229 0.44593 0.0
C390 C 0.53125 0.65005 0.84388 0.0
C391 C 0.56384 0.62908 0.83126 0.0
C392 C 0.60003 0.71179 0.81658 0.0
C393 C 0.56395 0.73138 0.82658 0.0
N394 N 0.49565 0.72071 0.85016 0.0
N395 N 0.62737 0.63913 0.80404 0.0
C396 C 0.52978 0.70091 0.84047 0.0
C397 C 0.59816 0.65988 0.81747 0.0
N398 N 0.50284 0.62159 0.85977 0.0
N399 N 0.63649 0.74308 0.8064 0.0
H400 H 0.62753 0.60158 0.80422 0.0
H401 H 0.64902 0.65812 0.79114 0.0
H402 H 0.63838 0.78097 0.80474 0.0
H403 H 0.66689 0.73257 0.8015 0.0
H404 H 0.48106 0.63509 0.8713 0.0
H405 H 0.50358 0.58465 0.86297 0.0
H406 H 0.46665 0.70003 0.8583 0.0
H407 H 0.49501 0.75818 0.84896 0.0
C408 C 0.88757 0.52634 0.1541 0.0
C409 C 0.91665 0.55323 0.13628 0.0
C410 C 0.84391 0.57915 0.11754 0.0
C411 C 0.81418 0.54862 0.13393 0.0
N412 N 0.80893 0.48946 0.16673 0.0
N413 N 0.91963 0.60182 0.09919 0.0
C414 C 0.83656 0.5211 0.15177 0.0
C415 C 0.89395 0.57914 0.11773 0.0
N416 N 0.9091 0.50815 0.17443 0.0
N417 N 0.82427 0.60845 0.10146 0.0
H418 H 0.95573 0.60395 0.09882 0.0
H419 H 0.90484 0.61556 0.08318 0.0
H420 H 0.78799 0.60672 0.09906 0.0
H421 H 0.84401 0.63662 0.09153 0.0
H422 H 0.89143 0.49268 0.18956 0.0
H423 H 0.94576 0.51323 0.17754 0.0
H424 H 0.82114 0.46304 0.17748 0.0
H425 H 0.77281 0.48756 0.16732 0.0
C426 C 0.32217 0.75442 0.4869 0.0
C427 C 0.31962 0.79919 0.47479 0.0
C428 C 0.25486 0.75437 0.44501 0.0
C429 C 0.25569 0.7101 0.45796 0.0
N430 N 0.28531 0.66797 0.49275 0.0
N431 N 0.28089 0.84399 0.44444 0.0
C432 C 0.28802 0.71012 0.47937 0.0
C433 C 0.28514 0.79979 0.45444 0.0
N434 N 0.35786 0.7542 0.50526 0.0
N435 N 0.22592 0.75263 0.42329 0.0
H436 H 0.30369 0.8778 0.45013 0.0
H437 H 0.25306 0.84792 0.43164 0.0
H438 H 0.20198 0.72045 0.41626 0.0
H439 H 0.22753 0.7821 0.41129 0.0
H440 H 0.36516 0.72206 0.5129 0.0
H441 H 0.38242 0.78626 0.51191 0.0
H442 H 0.30421 0.66665 0.51005 0.0
H443 H 0.26155 0.63457 0.48736 0.0
C444 C 0.52586 0.28814 0.81049 0.0
C445 C 0.54906 0.31741 0.8319 0.0
C446 C 0.56996 0.24333 0.85051 0.0
C447 C 0.55112 0.21536 0.828 0.0
N448 N 0.51636 0.2123 0.78522 0.0
N449 N 0.59571 0.32445 0.87178 0.0
C450 C 0.53012 0.23799 0.80769 0.0
C451 C 0.57179 0.29538 0.8518 0.0
N452 N 0.49958 0.30826 0.79281 0.0
N453 N 0.58508 0.21973 0.87084 0.0
H454 H 0.59567 0.36197 0.87399 0.0
H455 H 0.61767 0.31227 0.88549 0.0
H456 H 0.5843 0.18182 0.87042 0.0
H457 H 0.59487 0.23653 0.88864 0.0
H458 H 0.47745 0.28754 0.77828 0.0
H459 H 0.49695 0.34521 0.79368 0.0
H460 H 0.50626 0.2284 0.76878 0.0
H461 H 0.51842 0.17548 0.78237 0.0
C462 C 0.56975 0.83165 0.50344 0.0
C463 C 0.60172 0.86669 0.52001 0.0
C464 C 0.63149 0.79861 0.53999 0.0
C465 C 0.59607 0.76346 0.52529 0.0
N466 N 0.5288 0.74574 0.49438 0.0
N467 N 0.65862 0.88325 0.55643 0.0
C468 C 0.56447 0.77981 0.50735 0.0
C469 C 0.63183 0.85015 0.53874 0.0
N470 N 0.54565 0.84797 0.48341 0.0
N471 N 0.66486 0.78273 0.55529 0.0
H472 H 0.65988 0.92115 0.55645 0.0
H473 H 0.67665 0.87284 0.57238 0.0
H474 H 0.66456 0.74535 0.55777 0.0
H475 H 0.69494 0.8065 0.56408 0.0
H476 H 0.52522 0.82458 0.46924 0.0
H477 H 0.5494 0.88549 0.47968 0.0
H478 H 0.501 0.75514 0.4834 0.0
H479 H 0.52538 0.70754 0.49578 0.0
C480 C 0.87116 0.68056 0.79595 0.0
C481 C 0.83109 0.68326 0.80876 0.0
C482 C 0.87238 0.7625 0.82889 0.0
C483 C 0.91484 0.75342 0.82082 0.0
N484 N 0.9536 0.71738 0.78994 0.0
N485 N 0.78711 0.73274 0.82995 0.0
C486 C 0.91349 0.71749 0.8015 0.0
C487 C 0.82935 0.72707 0.82233 0.0
N488 N 0.86919 0.64073 0.78013 0.0
N489 N 0.87467 0.80272 0.84447 0.0
H490 H 0.75559 0.70662 0.82505 0.0
H491 H 0.78258 0.76397 0.83968 0.0
H492 H 0.9065 0.82877 0.84882 0.0
H493 H 0.84596 0.81059 0.85279 0.0
H494 H 0.898 0.63365 0.77159 0.0
H495 H 0.83771 0.61432 0.77558 0.0
H496 H 0.9555 0.69306 0.77521 0.0
H497 H 0.9846 0.74457 0.7942 0.0
C498 C 0.31856 0.86924 0.16187 0.0
C499 C 0.29898 0.83111 0.17794 0.0
C500 C 0.36948 0.8554 0.20787 0.0
C501 C 0.38633 0.89708 0.19334 0.0
N502 N 0.3752 0.94712 0.15778 0.0
N503 N 0.30222 0.79217 0.21799 0.0
C504 C 0.36052 0.90486 0.17058 0.0
C505 C 0.32357 0.82518 0.20139 0.0
N506 N 0.29763 0.87064 0.1381 0.0
N507 N 0.39786 0.84411 0.22762 0.0
H508 H 0.26847 0.76949 0.21413 0.0
H509 H 0.31615 0.79026 0.23646 0.0
H510 H 0.43178 0.86535 0.23292 0.0
H511 H 0.38967 0.81128 0.23724 0.0
H512 H 0.31273 0.89429 0.12456 0.0
H513 H 0.26687 0.84518 0.13118 0.0
H514 H 0.35516 0.95775 0.14266 0.0
H515 H 0.40611 0.97355 0.1634 0.0
C516 C 0.60238 0.20336 0.50043 0.0
C517 C 0.59948 0.17477 0.52237 0.0
C518 C 0.59315 0.24781 0.54754 0.0
C519 C 0.60047 0.27749 0.52612 0.0
N520 N 0.61721 0.28536 0.48279 0.0
N521 N 0.59763 0.17048 0.56735 0.0
C522 C 0.60624 0.25569 0.50267 0.0
C523 C 0.59657 0.19727 0.54609 0.0
N524 N 0.60131 0.18041 0.47745 0.0
N525 N 0.58113 0.26753 0.56906 0.0
H526 H 0.59786 0.13284 0.56705 0.0
H527 H 0.60158 0.18621 0.58546 0.0
H528 H 0.57795 0.30423 0.57086 0.0
H529 H 0.5702 0.2466 0.58439 0.0
H530 H 0.5979 0.19778 0.46047 0.0
H531 H 0.60082 0.14277 0.47522 0.0
H532 H 0.62704 0.27293 0.46598 0.0
H533 H 0.61975 0.32358 0.48372 0.0
C534 C 0.27425 0.61321 0.79551 0.0
C535 C 0.32347 0.61771 0.80115 0.0
C536 C 0.33151 0.69948 0.82113 0.0
C537 C 0.28155 0.69146 0.81893 0.0
N538 N 0.20681 0.65149 0.79718 0.0
N539 N 0.40074 0.67124 0.81007 0.0
C540 C 0.25347 0.65209 0.80339 0.0
C541 C 0.35281 0.6633 0.81063 0.0
N542 N 0.24749 0.5705 0.78403 0.0
N543 N 0.35801 0.73956 0.83492 0.0
H544 H 0.41717 0.64453 0.80316 0.0
H545 H 0.42346 0.70579 0.81392 0.0
H546 H 0.34303 0.76728 0.84206 0.0
H547 H 0.3942 0.74455 0.8399 0.0
H548 H 0.21066 0.5621 0.78165 0.0
H549 H 0.26275 0.54268 0.77721 0.0
H550 H 0.18452 0.62541 0.78481 0.0
H551 H 0.19142 0.67998 0.80301 0.0
C552 C 0.82419 0.27979 0.1709 0.0
C553 C 0.86631 0.2625 0.169 0.0
C554 C 0.83324 0.18842 0.192 0.0
C555 C 0.78958 0.2035 0.19185 0.0
N556 N 0.74064 0.25922 0.17752 0.0
N557 N 0.90849 0.19695 0.17405 0.0
C558 C 0.78425 0.24803 0.18027 0.0
C559 C 0.87015 0.2158 0.17852 0.0
N560 N 0.82287 0.32718 0.16453 0.0
N561 N 0.84008 0.14898 0.20578 0.0
H562 H 0.9363 0.21599 0.16435 0.0
H563 H 0.9109 0.16083 0.17806 0.0
H564 H 0.81402 0.1281 0.21598 0.0
H565 H 0.87277 0.13954 0.2089 0.0
H566 H 0.79516 0.34381 0.16811 0.0
H567 H 0.85135 0.35155 0.15759 0.0
H568 H 0.73338 0.28829 0.16687 0.0
H569 H 0.71053 0.23682 0.18405 0.0
C570 C 1.04312 0.59671 0.04792 0.0
C571 C 0.08112 0.58079 0.06095 0.0
C572 C 0.13046 0.60713 0.02645 0.0
C573 C 0.09512 0.63053 0.01559 0.0
N574 N 1.02009 0.65368 0.01809 0.0
N575 N 0.16196 0.57204 0.06367 0.0
C576 C 1.05181 0.62665 0.02676 0.0
C577 C 0.1251 0.58612 0.05046 0.0
N578 N 0.99867 0.58291 0.05573 0.0
N579 N 0.1683 0.60368 0.01351 0.0
H580 H 0.15826 0.55382 0.08058 0.0
H581 H 0.19656 0.58059 0.05854 0.0
H582 H 0.17287 0.61783 -0.00433 0.0
H583 H 0.1928 0.58295 0.01938 0.0
H584 H 0.96863 0.58981 0.0457 0.0
H585 H 0.99129 0.55976 0.0708 0.0
H586 H 0.99034 0.65613 0.02721 0.0
H587 H 1.02574 0.67756 0.00319 0.0
C588 C 0.64313 0.01586 0.42938 0.0
C589 C 0.60486 0.02801 0.4411 0.0
C590 C 0.56853 0.04514 0.40003 0.0
C591 C 0.60866 0.03693 0.38863 0.0
N592 N 0.68732 0.02157 0.39252 0.0
N593 N 0.53541 0.06256 0.43846 0.0
C594 C 0.64694 0.02437 0.40335 0.0
C595 C 0.56859 0.04479 0.42666 0.0
N596 N 0.67473 0.99425 0.44292 0.0
N597 N 0.5299 0.0522 0.38535 0.0
H598 H 0.53449 0.06344 0.45794 0.0
H599 H 0.51134 0.08048 0.42921 0.0
H600 H 0.52891 0.05386 0.36581 0.0
H601 H 0.49755 0.05262 0.39229 0.0
H602 H 0.70048 0.97979 0.43491 0.0
H603 H 0.67266 0.98668 0.46191 0.0
H604 H 0.71845 0.01808 0.40273 0.0
H605 H 0.691 0.02671 0.37342 0.0
C606 C 0.56766 0.53127 0.74394 0.0
C607 C 0.56347 0.48382 0.75442 0.0
C608 C 0.56122 0.44659 0.71226 0.0
C609 C 0.57158 0.49476 0.70235 0.0
N610 N 0.59366 0.58362 0.70966 0.0
N611 N 0.56465 0.39722 0.74912 0.0
C612 C 0.57739 0.53736 0.71845 0.0
C613 C 0.56238 0.44158 0.73874 0.0
N614 N 0.56016 0.5701 0.75795 0.0
N615 N 0.54897 0.40565 0.69638 0.0
H616 H 0.56691 0.3923 0.76846 0.0
H617 H 0.56887 0.36658 0.73871 0.0
H618 H 0.54714 0.40781 0.67686 0.0
H619 H 0.53634 0.36995 0.70249 0.0
H620 H 0.55839 0.60431 0.75053 0.0
H621 H 0.5505 0.56648 0.77629 0.0
H622 H 0.60326 0.61548 0.72131 0.0
H623 H 0.60192 0.58971 0.69118 0.0
C624 C 0.63667 0.03257 0.61346 0.0
C625 C 0.59603 0.01351 0.59659 0.0
C626 C 0.54939 0.99127 0.6325 0.0
C627 C 0.59136 1.00325 0.64911 0.0
N628 N 0.67701 0.02478 0.65412 0.0
N629 N 0.5167 0.96208 0.59059 0.0
C630 C 0.6357 0.0209 0.63925 0.0
C631 C 0.5531 0.98936 0.60622 0.0
N632 N 0.67552 0.06349 0.60523 0.0
N633 N 0.50591 0.98319 0.64164 0.0
H634 H 0.51948 0.95597 0.57154 0.0
H635 H 0.48626 0.94047 0.59715 0.0
H636 H 0.50149 0.98652 0.66072 0.0
H637 H 0.47451 0.97866 0.63001 0.0
H638 H 0.70433 0.08173 0.61735 0.0
H639 H 0.67664 0.07547 0.58683 0.0
H640 H 0.71016 0.03314 0.6471 0.0
H641 H 0.67802 0.01445 0.67282 0.0
C642 C 0.52008 0.44381 0.92285 0.0
C643 C 0.55424 0.47763 0.91047 0.0
C644 C 0.58874 0.51847 0.95102 0.0
C645 C 0.55216 0.48738 0.96312 0.0
N646 N 0.47972 0.42439 0.96069 0.0
N647 N 0.61648 0.55193 0.91193 0.0
C648 C 0.51686 0.4511 0.94906 0.0
C649 C 0.58749 0.51617 0.92433 0.0
N650 N 0.49191 0.40369 0.90971 0.0
N651 N 0.62519 0.5496 0.96509 0.0
H652 H 0.61667 0.55168 0.89242 0.0
H653 H 0.63757 0.58409 0.92071 0.0
H654 H 0.62674 0.55331 0.98463 0.0
H655 H 0.65571 0.56893 0.95768 0.0
H656 H 0.46983 0.37476 0.91808 0.0
H657 H 0.4934 0.39715 0.89053 0.0
H658 H 0.45005 0.40139 0.95109 0.0
H659 H 0.4769 0.42786 0.97995 0.0
C660 C 0.0957 0.55271 0.2306 0.0
C661 C 1.06403 0.51766 0.21405 0.0
C662 C 1.03854 0.46727 0.24984 0.0
C663 C 1.06609 0.50538 0.26647 0.0
N664 N 0.1126 0.58937 0.27264 0.0
N665 N 0.99949 0.44552 0.20799 0.0
C666 C 0.09224 0.54963 0.25684 0.0
C667 C 1.0338 0.47589 0.22366 0.0
N668 N 0.13065 0.58755 0.22135 0.0
N669 N 1.01826 0.42235 0.25891 0.0
H670 H 0.99478 0.45091 0.18875 0.0
H671 H 0.97322 0.41761 0.21438 0.0
H672 H 1.02136 0.4145 0.27793 0.0
H673 H 1.00195 0.39158 0.24735 0.0
H674 H 0.15745 0.61103 0.23281 0.0
H675 H 0.13608 0.58917 0.20231 0.0
H676 H 0.12797 0.62412 0.26623 0.0
H677 H 0.1099 0.58919 0.29199 0.0
loop_
_geom_bond_atom_site_label_1
_geom_bond_atom_site_label_2
_geom_bond_distance
_geom_bond_site_symmetry_2
_ccdc_geom_bond_type
Dy0 O3 2.307 1_455 S
Dy0 O5 2.395 . S
Dy0 O6 2.379 . S
Dy0 O8 2.339 . S
Dy0 O10 2.298 . S
Dy0 O14 2.275 . S
Dy0 C22 2.738 . S
Dy1 O4 2.298 . S
Dy1 O7 2.274 1_655 S
Dy1 O9 2.307 1_655 S
Dy1 O11 2.395 . S
Dy1 O12 2.379 . S
Dy1 O15 2.339 . S
Dy1 C31 2.738 . S
C2 O14 1.254 . S
C2 O15 1.257 1_455 S
O3 Dy0 2.307 1_655 S
O3 C13 1.266 . S
O4 Dy1 2.298 . S
O4 C13 1.236 . S
O5 Dy0 2.395 . S
O5 C22 1.255 . S
O6 Dy0 2.379 . S
O6 C22 1.249 . S
O7 Dy1 2.274 1_455 S
O7 C23 1.254 . S
O8 Dy0 2.339 . S
O8 C23 1.257 . S
O9 Dy1 2.307 1_455 S
O9 C24 1.266 . S
O10 Dy0 2.298 . S
O10 C24 1.236 . S
O11 Dy1 2.395 . S
O11 C31 1.255 . S
O12 Dy1 2.379 . S
O12 C31 1.249 . S
C13 O3 1.266 . S
C13 O4 1.236 . S
O14 Dy0 2.275 . S
O14 C2 1.254 . S
O15 Dy1 2.339 . S
O15 C2 1.257 1_655 S
C16 C19 1.344 . S
C16 C20 1.328 . S
C16 C22 1.516 . S
C17 C18 1.304 . S
C17 C21 1.323 . S
C18 C17 1.304 . S
C18 C19 1.371 . S
C18 H32 0.930 . S
C19 C16 1.344 . S
C19 C18 1.371 . S
C19 H33 0.931 . S
C20 C16 1.328 . S
C20 C21 1.433 . S
C20 H34 0.931 . S
C21 C17 1.323 . S
C21 C20 1.433 . S
C21 H35 0.933 . S
C22 Dy0 2.738 . S
C22 O5 1.255 . S
C22 O6 1.249 . S
C22 C16 1.516 . S
C23 O7 1.254 . S
C23 O8 1.257 . S
C24 O9 1.266 . S
C24 O10 1.236 . S
C25 C28 1.344 . S
C25 C29 1.328 . S
C25 C31 1.516 . S
C26 C27 1.304 . S
C26 C30 1.323 . S
C27 C26 1.304 . S
C27 C28 1.371 . S
C27 H36 0.930 . S
C28 C25 1.344 . S
C28 C27 1.371 . S
C28 H37 0.931 . S
C29 C25 1.328 . S
C29 C30 1.433 . S
C29 H38 0.931 . S
C30 C26 1.323 . S
C30 C29 1.433 . S
C30 H39 0.933 . S
C31 Dy1 2.738 . S
C31 O11 1.255 . S
C31 O12 1.249 . S
C31 C25 1.516 . S
H32 C18 0.930 . S
H33 C19 0.931 . S
H34 C20 0.931 . S
H35 C21 0.933 . S
H36 C27 0.930 . S
H37 C28 0.931 . S
H38 C29 0.931 . S
H39 C30 0.933 . S
Dy40 O43 2.307 1_565 S
Dy40 O45 2.395 . S
Dy40 O46 2.379 . S
Dy40 O48 2.339 1_565 S
Dy40 O50 2.298 . S
Dy40 O54 2.275 1_565 S
Dy40 C62 2.738 . S
Dy41 O44 2.298 . S
Dy41 O47 2.275 . S
Dy41 O49 2.307 1_545 S
Dy41 O51 2.395 . S
Dy41 O52 2.379 . S
Dy41 O55 2.339 . S
Dy41 C71 2.738 . S
C42 O54 1.254 . S
C42 O55 1.257 . S
O43 Dy40 2.307 1_545 S
O43 C53 1.266 . S
O44 Dy41 2.298 . S
O44 C53 1.236 . S
O45 Dy40 2.395 . S
O45 C62 1.255 . S
O46 Dy40 2.379 . S
O46 C62 1.249 . S
O47 Dy41 2.275 . S
O47 C63 1.254 . S
O48 Dy40 2.339 1_545 S
O48 C63 1.257 . S
O49 Dy41 2.307 1_565 S
O49 C64 1.266 . S
O50 Dy40 2.298 . S
O50 C64 1.236 . S
O51 Dy41 2.395 . S
O51 C71 1.255 . S
O52 Dy41 2.379 . S
O52 C71 1.249 . S
C53 O43 1.266 . S
C53 O44 1.236 . S
O54 Dy40 2.275 1_545 S
O54 C42 1.254 . S
O55 Dy41 2.339 . S
O55 C42 1.257 . S
C56 C59 1.344 . S
C56 C60 1.328 . S
C56 C62 1.516 . S
C57 C58 1.304 . S
C57 C61 1.323 . S
C58 C57 1.304 . S
C58 C59 1.371 . S
C58 H72 0.930 . S
C59 C56 1.344 . S
C59 C58 1.371 . S
C59 H73 0.931 . S
C60 C56 1.328 . S
C60 C61 1.433 . S
C60 H74 0.931 . S
C61 C57 1.323 . S
C61 C60 1.433 . S
C61 H75 0.933 . S
C62 Dy40 2.738 . S
C62 O45 1.255 . S
C62 O46 1.249 . S
C62 C56 1.516 . S
C63 O47 1.254 . S
C63 O48 1.257 . S
C64 O49 1.266 . S
C64 O50 1.236 . S
C65 C68 1.344 . S
C65 C69 1.328 . S
C65 C71 1.516 . S
C66 C67 1.304 . S
C66 C70 1.323 . S
C67 C66 1.304 . S
C67 C68 1.371 . S
C67 H76 0.930 . S
C68 C65 1.344 . S
C68 C67 1.371 . S
C68 H77 0.931 . S
C69 C65 1.328 . S
C69 C70 1.433 . S
C69 H78 0.931 . S
C70 C66 1.323 . S
C70 C69 1.433 . S
C70 H79 0.933 . S
C71 Dy41 2.738 . S
C71 O51 1.255 . S
C71 O52 1.249 . S
C71 C65 1.516 . S
H72 C58 0.930 . S
H73 C59 0.931 . S
H74 C60 0.931 . S
H75 C61 0.933 . S
H76 C67 0.930 . S
H77 C68 0.931 . S
H78 C69 0.931 . S
H79 C70 0.933 . S
Dy80 O83 2.307 . S
Dy80 O85 2.395 . S
Dy80 O86 2.379 . S
Dy80 O88 2.339 . S
Dy80 O90 2.298 . S
Dy80 O94 2.275 . S
Dy80 C102 2.738 . S
Dy81 O84 2.298 . S
Dy81 O87 2.275 . S
Dy81 O89 2.307 . S
Dy81 O91 2.395 . S
Dy81 O92 2.379 . S
Dy81 O95 2.339 . S
Dy81 C111 2.738 . S
C82 O94 1.254 . S
C82 O95 1.257 . S
O83 Dy80 2.307 . S
O83 C93 1.266 . S
O84 Dy81 2.298 . S
O84 C93 1.236 . S
O85 Dy80 2.395 . S
O85 C102 1.255 . S
O86 Dy80 2.379 . S
O86 C102 1.249 . S
O87 Dy81 2.275 . S
O87 C103 1.254 . S
O88 Dy80 2.339 . S
O88 C103 1.257 . S
O89 Dy81 2.307 . S
O89 C104 1.266 . S
O90 Dy80 2.298 . S
O90 C104 1.236 . S
O91 Dy81 2.395 . S
O91 C111 1.255 . S
O92 Dy81 2.379 . S
O92 C111 1.249 . S
C93 O83 1.266 . S
C93 O84 1.236 . S
O94 Dy80 2.275 . S
O94 C82 1.254 . S
O95 Dy81 2.339 . S
O95 C82 1.257 . S
C96 C99 1.344 . S
C96 C100 1.328 . S
C96 C102 1.516 . S
C97 C98 1.304 . S
C97 C101 1.323 . S
C98 C97 1.304 . S
C98 C99 1.371 . S
C98 H112 0.930 . S
C99 C96 1.344 . S
C99 C98 1.371 . S
C99 H113 0.931 . S
C100 C96 1.328 . S
C100 C101 1.433 . S
C100 H114 0.931 . S
C101 C97 1.323 . S
C101 C100 1.433 . S
C101 H115 0.933 . S
C102 Dy80 2.738 . S
C102 O85 1.255 . S
C102 O86 1.249 . S
C102 C96 1.516 . S
C103 O87 1.254 . S
C103 O88 1.257 . S
C104 O89 1.266 . S
C104 O90 1.236 . S
C105 C108 1.344 . S
C105 C109 1.328 . S
C105 C111 1.516 . S
C106 C107 1.304 . S
C106 C110 1.323 . S
C107 C106 1.304 . S
C107 C108 1.371 . S
C107 H116 0.930 . S
C108 C105 1.344 . S
C108 C107 1.371 . S
C108 H117 0.931 . S
C109 C105 1.328 . S
C109 C110 1.433 . S
C109 H118 0.931 . S
C110 C106 1.323 . S
C110 C109 1.433 . S
C110 H119 0.933 . S
C111 Dy81 2.738 . S
C111 O91 1.255 . S
C111 O92 1.249 . S
C111 C105 1.516 . S
H112 C98 0.930 . S
H113 C99 0.931 . S
H114 C100 0.931 . S
H115 C101 0.933 . S
H116 C107 0.930 . S
H117 C108 0.931 . S
H118 C109 0.931 . S
H119 C110 0.933 . S
C120 C121 1.386 . S
C120 C122 1.397 . S
C120 H144 0.931 . S
C121 C120 1.386 . S
C121 C125 1.397 . S
C122 C120 1.397 . S
C122 C123 1.384 . S
C122 H145 0.930 . S
C123 C122 1.384 . S
C123 C124 1.377 . S
C123 C126 1.481 . S
C124 C123 1.377 . S
C124 C125 1.389 . S
C124 H146 0.929 1_545 S
C125 C121 1.397 . S
C125 C124 1.389 . S
C125 H147 0.931 1_545 S
C126 C123 1.481 . S
C126 C127 1.387 . S
C126 C131 1.390 . S
C127 C126 1.387 . S
C127 C128 1.401 . S
C127 H148 0.930 . S
C128 C127 1.401 . S
C128 C129 1.376 . S
C128 C137 1.511 . S
C129 C128 1.376 . S
C129 C130 1.392 . S
C129 H150 0.931 . S
C130 C129 1.392 . S
C130 C131 1.361 . S
C130 C132 1.500 1_545 S
C131 C126 1.390 . S
C131 C130 1.361 . S
C131 H149 0.921 1_545 S
C132 C130 1.500 1_565 S
C132 C133 1.371 . S
C132 C134 1.365 . S
C133 C132 1.371 . S
C133 C143 1.386 . S
C133 H151 0.931 1_565 S
C134 C132 1.365 . S
C134 C135 1.409 . S
C134 H152 0.929 . S
C135 C134 1.409 . S
C135 C136 1.380 . S
C135 H153 0.930 . S
C136 C135 1.380 . S
C136 C143 1.357 . S
C137 C128 1.511 . S
C137 C138 1.341 . S
C137 C139 1.371 . S
C138 C137 1.341 . S
C138 C142 1.394 . S
C138 H154 0.930 . S
C139 C137 1.371 . S
C139 C140 1.392 . S
C139 H155 0.931 . S
C140 C139 1.392 . S
C140 C141 1.331 . S
C140 H158 0.932 . S
C141 C140 1.331 . S
C141 C142 1.336 . S
C142 C138 1.394 . S
C142 C141 1.336 . S
C142 H157 0.929 . S
C143 C133 1.386 . S
C143 C136 1.357 . S
C143 H156 0.928 . S
H144 C120 0.931 . S
H145 C122 0.930 . S
H146 C124 0.929 1_565 S
H147 C125 0.931 1_565 S
H148 C127 0.930 . S
H149 C131 0.921 1_565 S
H150 C129 0.931 . S
H151 C133 0.931 1_545 S
H152 C134 0.929 . S
H153 C135 0.930 . S
H154 C138 0.930 . S
H155 C139 0.931 . S
H156 C143 0.928 . S
H157 C142 0.929 . S
H158 C140 0.932 . S
C159 C160 1.386 . S
C159 C161 1.397 . S
C159 H183 0.931 . S
C160 C159 1.386 . S
C160 C164 1.397 . S
C161 C159 1.397 . S
C161 C162 1.384 . S
C161 H184 0.930 . S
C162 C161 1.384 . S
C162 C163 1.377 . S
C162 C165 1.481 . S
C163 C162 1.377 . S
C163 C164 1.389 . S
C163 H185 0.929 . S
C164 C160 1.397 . S
C164 C163 1.389 . S
C164 H186 0.931 . S
C165 C162 1.481 . S
C165 C166 1.387 . S
C165 C170 1.390 . S
C166 C165 1.387 . S
C166 C167 1.401 . S
C166 H187 0.930 . S
C167 C166 1.401 . S
C167 C168 1.376 . S
C167 C176 1.511 . S
C168 C167 1.376 . S
C168 C169 1.392 . S
C168 H189 0.931 . S
C169 C168 1.392 . S
C169 C170 1.361 . S
C169 C171 1.500 . S
C170 C165 1.390 . S
C170 C169 1.361 . S
C170 H188 0.931 . S
C171 C169 1.500 . S
C171 C172 1.371 . S
C171 C173 1.365 . S
C172 C171 1.371 . S
C172 C182 1.386 . S
C172 H190 0.931 . S
C173 C171 1.365 . S
C173 C174 1.409 . S
C173 H191 0.929 . S
C174 C173 1.409 . S
C174 C175 1.380 . S
C174 H192 0.930 . S
C175 C174 1.380 . S
C175 C182 1.357 . S
C176 C167 1.511 . S
C176 C177 1.341 . S
C176 C178 1.371 . S
C177 C176 1.341 . S
C177 C181 1.394 . S
C177 H193 0.930 . S
C178 C176 1.371 . S
C178 C179 1.392 . S
C178 H194 0.931 . S
C179 C178 1.392 . S
C179 C180 1.331 . S
C179 H197 0.932 . S
C180 C179 1.331 . S
C180 C181 1.336 . S
C181 C177 1.394 . S
C181 C180 1.336 . S
C181 H196 0.929 . S
C182 C172 1.386 . S
C182 C175 1.357 . S
C182 H195 0.928 . S
H183 C159 0.931 . S
H184 C161 0.930 . S
H185 C163 0.929 . S
H186 C164 0.931 . S
H187 C166 0.930 . S
H188 C170 0.931 . S
H189 C168 0.931 . S
H190 C172 0.931 . S
H191 C173 0.929 . S
H192 C174 0.930 . S
H193 C177 0.930 . S
H194 C178 0.931 . S
H195 C182 0.928 . S
H196 C181 0.929 . S
H197 C179 0.932 . S
C198 C199 1.386 . S
C198 C200 1.397 1_554 S
C198 H222 0.931 . S
C199 C198 1.386 . S
C199 C203 1.397 1_455 S
C200 C198 1.397 1_556 S
C200 C201 1.384 . S
C200 H223 0.930 . S
C201 C200 1.384 . S
C201 C202 1.377 1_455 S
C201 C204 1.481 . S
C202 C201 1.377 1_655 S
C202 C203 1.389 1_556 S
C202 H224 0.929 . S
C203 C199 1.397 1_655 S
C203 C202 1.389 1_554 S
C203 H225 0.931 . S
C204 C201 1.481 . S
C204 C205 1.387 . S
C204 C209 1.390 1_455 S
C205 C204 1.387 . S
C205 C206 1.401 . S
C205 H226 0.930 . S
C206 C205 1.401 . S
C206 C207 1.376 . S
C206 C215 1.511 . S
C207 C206 1.376 . S
C207 C208 1.392 1_455 S
C207 H228 0.931 . S
C208 C207 1.392 1_655 S
C208 C209 1.361 . S
C208 C210 1.500 . S
C209 C204 1.390 1_655 S
C209 C208 1.361 . S
C209 H227 0.931 . S
C210 C208 1.500 . S
C210 C211 1.371 . S
C210 C212 1.365 . S
C211 C210 1.371 . S
C211 C221 1.386 . S
C211 H229 0.931 . S
C212 C210 1.365 . S
C212 C213 1.409 . S
C212 H230 0.929 . S
C213 C212 1.409 . S
C213 C214 1.380 . S
C213 H231 0.930 . S
C214 C213 1.380 . S
C214 C221 1.357 . S
C215 C206 1.511 . S
C215 C216 1.341 . S
C215 C217 1.371 . S
C216 C215 1.341 . S
C216 C220 1.394 . S
C216 H232 0.930 . S
C217 C215 1.371 . S
C217 C218 1.392 . S
C217 H233 0.931 . S
C218 C217 1.392 . S
C218 C219 1.331 . S
C218 H236 0.932 . S
C219 C218 1.331 . S
C219 C220 1.336 . S
C220 C216 1.394 . S
C220 C219 1.336 . S
C220 H235 0.929 . S
C221 C211 1.386 . S
C221 C214 1.357 . S
C221 H234 0.928 . S
H222 C198 0.931 . S
H223 C200 0.930 . S
H224 C202 0.929 . S
H225 C203 0.931 . S
H226 C205 0.930 . S
H227 C209 0.931 . S
H228 C207 0.931 . S
H229 C211 0.931 . S
H230 C212 0.929 . S
H231 C213 0.930 . S
H232 C216 0.930 . S
H233 C217 0.931 . S
H234 C221 0.928 . S
H235 C220 0.929 . S
H236 C218 0.932 . S
C237 C238 1.386 . S
C237 C239 1.397 . S
C237 H261 0.931 . S
C238 C237 1.386 . S
C238 C242 1.397 1_655 S
C239 C237 1.397 . S
C239 C240 1.399 . S
C239 H262 0.930 . S
C240 C239 1.399 . S
C240 C241 1.362 1_655 S
C240 C243 1.481 1_655 S
C241 C240 1.362 1_455 S
C241 C242 1.389 . S
C241 H263 0.929 . S
C242 C238 1.397 1_455 S
C242 C241 1.389 . S
C242 H264 0.931 . S
C243 C240 1.481 1_455 S
C243 C244 1.387 1_455 S
C243 C248 1.390 . S
C244 C243 1.387 1_655 S
C244 C245 1.401 . S
C244 H265 0.930 . S
C245 C244 1.401 . S
C245 C246 1.376 1_655 S
C245 C254 1.511 . S
C246 C245 1.376 1_455 S
C246 C247 1.392 . S
C246 H267 0.931 . S
C247 C246 1.392 . S
C247 C248 1.361 . S
C247 C249 1.500 . S
C248 C243 1.390 . S
C248 C247 1.361 . S
C248 H266 0.931 . S
C249 C247 1.500 . S
C249 C250 1.371 . S
C249 C251 1.365 . S
C250 C249 1.371 . S
C250 C260 1.386 . S
C250 H268 0.931 . S
C251 C249 1.365 . S
C251 C252 1.409 . S
C251 H269 0.929 . S
C252 C251 1.409 . S
C252 C253 1.380 . S
C252 H270 0.930 . S
C253 C252 1.380 . S
C253 C260 1.357 . S
C254 C245 1.511 . S
C254 C255 1.341 . S
C254 C256 1.371 . S
C255 C254 1.341 . S
C255 C259 1.394 . S
C255 H271 0.930 . S
C256 C254 1.371 . S
C256 C257 1.392 . S
C256 H272 0.931 . S
C257 C256 1.392 . S
C257 C258 1.331 . S
C257 H275 0.932 . S
C258 C257 1.331 . S
C258 C259 1.336 . S
C259 C255 1.394 . S
C259 C258 1.336 . S
C259 H274 0.929 . S
C260 C250 1.386 . S
C260 C253 1.357 . S
C260 H273 0.928 . S
H261 C237 0.931 . S
H262 C239 0.930 . S
H263 C241 0.929 . S
H264 C242 0.931 . S
H265 C244 0.930 . S
H266 C248 0.931 . S
H267 C246 0.931 . S
H268 C250 0.931 . S
H269 C251 0.929 . S
H270 C252 0.930 . S
H271 C255 0.930 . S
H272 C256 0.931 . S
H273 C260 0.928 . S
H274 C259 0.929 . S
H275 C257 0.932 . S
C276 C277 1.386 1_565 S
C276 C278 1.397 . S
C276 H300 0.931 . S
C277 C276 1.386 1_545 S
C277 C281 1.397 . S
C278 C276 1.397 . S
C278 C279 1.384 1_565 S
C278 H301 0.930 . S
C279 C278 1.384 1_545 S
C279 C280 1.377 . S
C279 C282 1.481 . S
C280 C279 1.377 . S
C280 C281 1.389 . S
C280 H302 0.929 . S
C281 C277 1.397 . S
C281 C280 1.389 . S
C281 H303 0.931 . S
C282 C279 1.481 . S
C282 C283 1.387 1_545 S
C282 C287 1.390 . S
C283 C282 1.387 1_565 S
C283 C284 1.401 . S
C283 H304 0.930 . S
C284 C283 1.401 . S
C284 C285 1.376 1_565 S
C284 C293 1.511 . S
C285 C284 1.376 1_545 S
C285 C286 1.392 . S
C285 H306 0.931 . S
C286 C285 1.392 . S
C286 C287 1.361 . S
C286 C288 1.500 . S
C287 C282 1.390 . S
C287 C286 1.361 . S
C287 H305 0.931 . S
C288 C286 1.500 . S
C288 C289 1.371 . S
C288 C290 1.365 . S
C289 C288 1.371 . S
C289 C299 1.386 . S
C289 H307 0.931 . S
C290 C288 1.365 . S
C290 C291 1.409 . S
C290 H308 0.929 . S
C291 C290 1.409 . S
C291 C292 1.380 . S
C291 H309 0.930 . S
C292 C291 1.380 . S
C292 C299 1.357 . S
C293 C284 1.511 . S
C293 C294 1.341 . S
C293 C295 1.371 . S
C294 C293 1.341 . S
C294 C298 1.394 . S
C294 H310 0.930 . S
C295 C293 1.371 . S
C295 C296 1.392 . S
C295 H311 0.931 . S
C296 C295 1.392 . S
C296 C297 1.331 . S
C296 H314 0.932 . S
C297 C296 1.331 . S
C297 C298 1.336 . S
C298 C294 1.394 . S
C298 C297 1.336 . S
C298 H313 0.929 . S
C299 C289 1.386 . S
C299 C292 1.357 . S
C299 H312 0.928 . S
H300 C276 0.931 . S
H301 C278 0.930 . S
H302 C280 0.929 . S
H303 C281 0.931 . S
H304 C283 0.930 . S
H305 C287 0.931 . S
H306 C285 0.931 . S
H307 C289 0.931 . S
H308 C290 0.929 . S
H309 C291 0.930 . S
H310 C294 0.930 . S
H311 C295 0.931 . S
H312 C299 0.928 . S
H313 C298 0.929 . S
H314 C296 0.932 . S
C315 C316 1.386 1_554 S
C315 C317 1.397 . S
C315 H339 0.931 . S
C316 C315 1.386 1_556 S
C316 C320 1.397 1_556 S
C317 C315 1.397 . S
C317 C318 1.384 . S
C317 H340 0.930 . S
C318 C317 1.384 . S
C318 C319 1.377 . S
C318 C321 1.481 . S
C319 C318 1.377 . S
C319 C320 1.389 . S
C319 H341 0.929 . S
C320 C316 1.397 1_554 S
C320 C319 1.389 . S
C320 H342 0.940 . S
C321 C318 1.481 . S
C321 C322 1.387 . S
C321 C326 1.390 . S
C322 C321 1.387 . S
C322 C323 1.401 . S
C322 H343 0.930 . S
C323 C322 1.401 . S
C323 C324 1.376 . S
C323 C332 1.511 . S
C324 C323 1.376 . S
C324 C325 1.392 . S
C324 H345 0.931 . S
C325 C324 1.392 . S
C325 C326 1.361 . S
C325 C327 1.500 . S
C326 C321 1.390 . S
C326 C325 1.361 . S
C326 H344 0.931 . S
C327 C325 1.500 . S
C327 C328 1.371 . S
C327 C329 1.365 . S
C328 C327 1.371 . S
C328 C338 1.386 . S
C328 H346 0.931 . S
C329 C327 1.365 . S
C329 C330 1.409 . S
C329 H347 0.929 . S
C330 C329 1.409 . S
C330 C331 1.380 . S
C330 H348 0.930 . S
C331 C330 1.380 . S
C331 C338 1.357 . S
C332 C323 1.511 . S
C332 C333 1.341 . S
C332 C334 1.371 . S
C333 C332 1.341 . S
C333 C337 1.394 . S
C333 H349 0.930 . S
C334 C332 1.371 . S
C334 C335 1.392 . S
C334 H350 0.931 . S
C335 C334 1.392 . S
C335 C336 1.331 . S
C335 H353 0.932 . S
C336 C335 1.331 . S
C336 C337 1.336 . S
C337 C333 1.394 . S
C337 C336 1.336 . S
C337 H352 0.929 . S
C338 C328 1.386 . S
C338 C331 1.357 . S
C338 H351 0.928 . S
H339 C315 0.931 . S
H340 C317 0.930 . S
H341 C319 0.929 . S
H342 C320 0.940 . S
H343 C322 0.930 . S
H344 C326 0.931 . S
H345 C324 0.931 . S
H346 C328 0.931 . S
H347 C329 0.929 . S
H348 C330 0.930 . S
H349 C333 0.930 . S
H350 C334 0.931 . S
H351 C338 0.928 . S
H352 C337 0.929 . S
H353 C335 0.932 . S
C354 C355 1.363 . S
C354 C360 1.379 . S
C354 N362 1.356 . S
C355 C354 1.363 . S
C355 C361 1.363 . S
C356 C357 1.363 . S
C356 C361 1.379 . S
C356 N363 1.356 . S
C357 C356 1.363 . S
C357 C360 1.363 . S
N358 C360 1.356 . S
N358 H370 0.984 . S
N358 H371 0.985 . S
N359 C361 1.356 . S
N359 H364 0.984 . S
N359 H365 0.985 . S
C360 C354 1.379 . S
C360 C357 1.363 . S
C360 N358 1.356 . S
C361 C355 1.363 . S
C361 C356 1.379 . S
C361 N359 1.356 . S
N362 C354 1.356 . S
N362 H368 0.984 . S
N362 H369 0.984 . S
N363 C356 1.356 . S
N363 H366 0.984 . S
N363 H367 0.985 . S
H364 N359 0.984 . S
H365 N359 0.985 . S
H366 N363 0.984 . S
H367 N363 0.985 . S
H368 N362 0.984 . S
H369 N362 0.984 . S
H370 N358 0.984 . S
H371 N358 0.985 . S
C372 C373 1.363 . S
C372 C378 1.379 . S
C372 N380 1.356 . S
C373 C372 1.363 . S
C373 C379 1.363 . S
C374 C375 1.363 . S
C374 C379 1.379 . S
C374 N381 1.356 . S
C375 C374 1.363 . S
C375 C378 1.363 . S
N376 C378 1.356 . S
N376 H388 0.984 . S
N376 H389 0.985 . S
N377 C379 1.356 . S
N377 H382 0.984 . S
N377 H383 0.985 . S
C378 C372 1.379 . S
C378 C375 1.363 . S
C378 N376 1.356 . S
C379 C373 1.363 . S
C379 C374 1.379 . S
C379 N377 1.356 . S
N380 C372 1.356 . S
N380 H386 0.984 . S
N380 H387 0.984 . S
N381 C374 1.356 . S
N381 H384 0.984 . S
N381 H385 0.985 . S
H382 N377 0.984 . S
H383 N377 0.985 . S
H384 N381 0.984 . S
H385 N381 0.985 . S
H386 N380 0.984 . S
H387 N380 0.984 . S
H388 N376 0.984 . S
H389 N376 0.985 . S
C390 C391 1.363 . S
C390 C396 1.379 . S
C390 N398 1.356 . S
C391 C390 1.363 . S
C391 C397 1.363 . S
C392 C393 1.363 . S
C392 C397 1.379 . S
C392 N399 1.356 . S
C393 C392 1.363 . S
C393 C396 1.363 . S
N394 C396 1.356 . S
N394 H406 0.984 . S
N394 H407 0.985 . S
N395 C397 1.356 . S
N395 H400 0.984 . S
N395 H401 0.985 . S
C396 C390 1.379 . S
C396 C393 1.363 . S
C396 N394 1.356 . S
C397 C391 1.363 . S
C397 C392 1.379 . S
C397 N395 1.356 . S
N398 C390 1.356 . S
N398 H404 0.984 . S
N398 H405 0.984 . S
N399 C392 1.356 . S
N399 H402 0.984 . S
N399 H403 0.985 . S
H400 N395 0.984 . S
H401 N395 0.985 . S
H402 N399 0.984 . S
H403 N399 0.985 . S
H404 N398 0.984 . S
H405 N398 0.984 . S
H406 N394 0.984 . S
H407 N394 0.985 . S
C408 C409 1.363 . S
C408 C414 1.379 . S
C408 N416 1.356 . S
C409 C408 1.363 . S
C409 C415 1.363 . S
C410 C411 1.363 . S
C410 C415 1.379 . S
C410 N417 1.356 . S
C411 C410 1.363 . S
C411 C414 1.363 . S
N412 C414 1.356 . S
N412 H424 0.984 . S
N412 H425 0.985 . S
N413 C415 1.356 . S
N413 H418 0.984 . S
N413 H419 0.985 . S
C414 C408 1.379 . S
C414 C411 1.363 . S
C414 N412 1.356 . S
C415 C409 1.363 . S
C415 C410 1.379 . S
C415 N413 1.356 . S
N416 C408 1.356 . S
N416 H422 0.984 . S
N416 H423 0.984 . S
N417 C410 1.356 . S
N417 H420 0.984 . S
N417 H421 0.985 . S
H418 N413 0.984 . S
H419 N413 0.985 . S
H420 N417 0.984 . S
H421 N417 0.985 . S
H422 N416 0.984 . S
H423 N416 0.984 . S
H424 N412 0.984 . S
H425 N412 0.985 . S
C426 C427 1.363 . S
C426 C432 1.379 . S
C426 N434 1.356 . S
C427 C426 1.363 . S
C427 C433 1.363 . S
C428 C429 1.363 . S
C428 C433 1.379 . S
C428 N435 1.356 . S
C429 C428 1.363 . S
C429 C432 1.363 . S
N430 C432 1.356 . S
N430 H442 0.984 . S
N430 H443 0.985 . S
N431 C433 1.356 . S
N431 H436 0.984 . S
N431 H437 0.985 . S
C432 C426 1.379 . S
C432 C429 1.363 . S
C432 N430 1.356 . S
C433 C427 1.363 . S
C433 C428 1.379 . S
C433 N431 1.356 . S
N434 C426 1.356 . S
N434 H440 0.984 . S
N434 H441 0.984 . S
N435 C428 1.356 . S
N435 H438 0.984 . S
N435 H439 0.985 . S
H436 N431 0.984 . S
H437 N431 0.985 . S
H438 N435 0.984 . S
H439 N435 0.985 . S
H440 N434 0.984 . S
H441 N434 0.984 . S
H442 N430 0.984 . S
H443 N430 0.985 . S
C444 C445 1.363 . S
C444 C450 1.379 . S
C444 N452 1.356 . S
C445 C444 1.363 . S
C445 C451 1.363 . S
C446 C447 1.363 . S
C446 C451 1.379 . S
C446 N453 1.356 . S
C447 C446 1.363 . S
C447 C450 1.363 . S
N448 C450 1.356 . S
N448 H460 0.984 . S
N448 H461 0.985 . S
N449 C451 1.356 . S
N449 H454 0.984 . S
N449 H455 0.985 . S
C450 C444 1.379 . S
C450 C447 1.363 . S
C450 N448 1.356 . S
C451 C445 1.363 . S
C451 C446 1.379 . S
C451 N449 1.356 . S
N452 C444 1.356 . S
N452 H458 0.984 . S
N452 H459 0.984 . S
N453 C446 1.356 . S
N453 H456 0.984 . S
N453 H457 0.985 . S
H454 N449 0.984 . S
H455 N449 0.985 . S
H456 N453 0.984 . S
H457 N453 0.985 . S
H458 N452 0.984 . S
H459 N452 0.984 . S
H460 N448 0.984 . S
H461 N448 0.985 . S
C462 C463 1.363 . S
C462 C468 1.379 . S
C462 N470 1.356 . S
C463 C462 1.363 . S
C463 C469 1.363 . S
C464 C465 1.363 . S
C464 C469 1.379 . S
C464 N471 1.356 . S
C465 C464 1.363 . S
C465 C468 1.363 . S
N466 C468 1.356 . S
N466 H478 0.984 . S
N466 H479 0.985 . S
N467 C469 1.356 . S
N467 H472 0.984 . S
N467 H473 0.985 . S
C468 C462 1.379 . S
C468 C465 1.363 . S
C468 N466 1.356 . S
C469 C463 1.363 . S
C469 C464 1.379 . S
C469 N467 1.356 . S
N470 C462 1.356 . S
N470 H476 0.984 . S
N470 H477 0.984 . S
N471 C464 1.356 . S
N471 H474 0.984 . S
N471 H475 0.985 . S
H472 N467 0.984 . S
H473 N467 0.985 . S
H474 N471 0.984 . S
H475 N471 0.985 . S
H476 N470 0.984 . S
H477 N470 0.984 . S
H478 N466 0.984 . S
H479 N466 0.985 . S
C480 C481 1.363 . S
C480 C486 1.379 . S
C480 N488 1.356 . S
C481 C480 1.363 . S
C481 C487 1.363 . S
C482 C483 1.363 . S
C482 C487 1.379 . S
C482 N489 1.356 . S
C483 C482 1.363 . S
C483 C486 1.363 . S
N484 C486 1.356 . S
N484 H496 0.984 . S
N484 H497 0.985 . S
N485 C487 1.356 . S
N485 H490 0.984 . S
N485 H491 0.985 . S
C486 C480 1.379 . S
C486 C483 1.363 . S
C486 N484 1.356 . S
C487 C481 1.363 . S
C487 C482 1.379 . S
C487 N485 1.356 . S
N488 C480 1.356 . S
N488 H494 0.984 . S
N488 H495 0.984 . S
N489 C482 1.356 . S
N489 H492 0.984 . S
N489 H493 0.985 . S
H490 N485 0.984 . S
H491 N485 0.985 . S
H492 N489 0.984 . S
H493 N489 0.985 . S
H494 N488 0.984 . S
H495 N488 0.984 . S
H496 N484 0.984 . S
H497 N484 0.985 . S
C498 C499 1.363 . S
C498 C504 1.379 . S
C498 N506 1.356 . S
C499 C498 1.363 . S
C499 C505 1.363 . S
C500 C501 1.363 . S
C500 C505 1.379 . S
C500 N507 1.356 . S
C501 C500 1.363 . S
C501 C504 1.363 . S
N502 C504 1.356 . S
N502 H514 0.984 . S
N502 H515 0.985 . S
N503 C505 1.356 . S
N503 H508 0.984 . S
N503 H509 0.985 . S
C504 C498 1.379 . S
C504 C501 1.363 . S
C504 N502 1.356 . S
C505 C499 1.363 . S
C505 C500 1.379 . S
C505 N503 1.356 . S
N506 C498 1.356 . S
N506 H512 0.984 . S
N506 H513 0.984 . S
N507 C500 1.356 . S
N507 H510 0.984 . S
N507 H511 0.985 . S
H508 N503 0.984 . S
H509 N503 0.985 . S
H510 N507 0.984 . S
H511 N507 0.985 . S
H512 N506 0.984 . S
H513 N506 0.984 . S
H514 N502 0.984 . S
H515 N502 0.985 . S
C516 C517 1.363 . S
C516 C522 1.379 . S
C516 N524 1.356 . S
C517 C516 1.363 . S
C517 C523 1.363 . S
C518 C519 1.363 . S
C518 C523 1.379 . S
C518 N525 1.356 . S
C519 C518 1.363 . S
C519 C522 1.363 . S
N520 C522 1.356 . S
N520 H532 0.984 . S
N520 H533 0.985 . S
N521 C523 1.356 . S
N521 H526 0.984 . S
N521 H527 0.985 . S
C522 C516 1.379 . S
C522 C519 1.363 . S
C522 N520 1.356 . S
C523 C517 1.363 . S
C523 C518 1.379 . S
C523 N521 1.356 . S
N524 C516 1.356 . S
N524 H530 0.984 . S
N524 H531 0.984 . S
N525 C518 1.356 . S
N525 H528 0.984 . S
N525 H529 0.985 . S
H526 N521 0.984 . S
H527 N521 0.985 . S
H528 N525 0.984 . S
H529 N525 0.985 . S
H530 N524 0.984 . S
H531 N524 0.984 . S
H532 N520 0.984 . S
H533 N520 0.985 . S
C534 C535 1.363 . S
C534 C540 1.379 . S
C534 N542 1.356 . S
C535 C534 1.363 . S
C535 C541 1.363 . S
C536 C537 1.363 . S
C536 C541 1.379 . S
C536 N543 1.356 . S
C537 C536 1.363 . S
C537 C540 1.363 . S
N538 C540 1.356 . S
N538 H550 0.984 . S
N538 H551 0.985 . S
N539 C541 1.356 . S
N539 H544 0.984 . S
N539 H545 0.985 . S
C540 C534 1.379 . S
C540 C537 1.363 . S
C540 N538 1.356 . S
C541 C535 1.363 . S
C541 C536 1.379 . S
C541 N539 1.356 . S
N542 C534 1.356 . S
N542 H548 0.984 . S
N542 H549 0.984 . S
N543 C536 1.356 . S
N543 H546 0.984 . S
N543 H547 0.985 . S
H544 N539 0.984 . S
H545 N539 0.985 . S
H546 N543 0.984 . S
H547 N543 0.985 . S
H548 N542 0.984 . S
H549 N542 0.984 . S
H550 N538 0.984 . S
H551 N538 0.985 . S
C552 C553 1.363 . S
C552 C558 1.379 . S
C552 N560 1.356 . S
C553 C552 1.363 . S
C553 C559 1.363 . S
C554 C555 1.363 . S
C554 C559 1.379 . S
C554 N561 1.356 . S
C555 C554 1.363 . S
C555 C558 1.363 . S
N556 C558 1.356 . S
N556 H568 0.984 . S
N556 H569 0.985 . S
N557 C559 1.356 . S
N557 H562 0.984 . S
N557 H563 0.985 . S
C558 C552 1.379 . S
C558 C555 1.363 . S
C558 N556 1.356 . S
C559 C553 1.363 . S
C559 C554 1.379 . S
C559 N557 1.356 . S
N560 C552 1.356 . S
N560 H566 0.984 . S
N560 H567 0.984 . S
N561 C554 1.356 . S
N561 H564 0.984 . S
N561 H565 0.985 . S
H562 N557 0.984 . S
H563 N557 0.985 . S
H564 N561 0.984 . S
H565 N561 0.985 . S
H566 N560 0.984 . S
H567 N560 0.984 . S
H568 N556 0.984 . S
H569 N556 0.985 . S
C570 C571 1.363 . S
C570 C576 1.379 . S
C570 N578 1.356 1_455 S
C571 C570 1.363 . S
C571 C577 1.363 . S
C572 C573 1.363 . S
C572 C577 1.379 . S
C572 N579 1.356 . S
C573 C572 1.363 . S
C573 C576 1.363 . S
N574 C576 1.356 . S
N574 H586 0.984 . S
N574 H587 0.985 . S
N575 C577 1.356 . S
N575 H580 0.984 . S
N575 H581 0.985 . S
C576 C570 1.379 . S
C576 C573 1.363 . S
C576 N574 1.356 . S
C577 C571 1.363 . S
C577 C572 1.379 . S
C577 N575 1.356 . S
N578 C570 1.356 1_655 S
N578 H584 0.984 . S
N578 H585 0.984 . S
N579 C572 1.356 . S
N579 H582 0.984 . S
N579 H583 0.985 . S
H580 N575 0.984 . S
H581 N575 0.985 . S
H582 N579 0.984 . S
H583 N579 0.985 . S
H584 N578 0.984 . S
H585 N578 0.984 . S
H586 N574 0.984 . S
H587 N574 0.985 . S
C588 C589 1.363 . S
C588 C594 1.379 . S
C588 N596 1.356 1_545 S
C589 C588 1.363 . S
C589 C595 1.363 . S
C590 C591 1.363 . S
C590 C595 1.379 . S
C590 N597 1.356 . S
C591 C590 1.363 . S
C591 C594 1.363 . S
N592 C594 1.356 1_565 S
N592 H604 0.984 . S
N592 H605 0.985 1_565 S
N593 C595 1.356 . S
N593 H598 0.984 . S
N593 H599 0.985 . S
C594 C588 1.379 . S
C594 C591 1.363 . S
C594 N592 1.356 1_545 S
C595 C589 1.363 . S
C595 C590 1.379 . S
C595 N593 1.356 . S
N596 C588 1.356 1_565 S
N596 H602 0.984 . S
N596 H603 0.984 . S
N597 C590 1.356 . S
N597 H600 0.984 . S
N597 H601 0.985 . S
H598 N593 0.984 . S
H599 N593 0.985 . S
H600 N597 0.984 . S
H601 N597 0.985 . S
H602 N596 0.984 . S
H603 N596 0.984 . S
H604 N592 0.984 . S
H605 N592 0.985 1_545 S
C606 C607 1.363 . S
C606 C612 1.379 . S
C606 N614 1.356 . S
C607 C606 1.363 . S
C607 C613 1.363 . S
C608 C609 1.363 . S
C608 C613 1.379 . S
C608 N615 1.356 . S
C609 C608 1.363 . S
C609 C612 1.363 . S
N610 C612 1.356 . S
N610 H622 0.984 . S
N610 H623 0.985 . S
N611 C613 1.356 . S
N611 H616 0.984 . S
N611 H617 0.985 . S
C612 C606 1.379 . S
C612 C609 1.363 . S
C612 N610 1.356 . S
C613 C607 1.363 . S
C613 C608 1.379 . S
C613 N611 1.356 . S
N614 C606 1.356 . S
N614 H620 0.984 . S
N614 H621 0.984 . S
N615 C608 1.356 . S
N615 H618 0.984 . S
N615 H619 0.985 . S
H616 N611 0.984 . S
H617 N611 0.985 . S
H618 N615 0.984 . S
H619 N615 0.985 . S
H620 N614 0.984 . S
H621 N614 0.984 . S
H622 N610 0.984 . S
H623 N610 0.985 . S
C624 C625 1.363 . S
C624 C630 1.379 . S
C624 N632 1.356 . S
C625 C624 1.363 . S
C625 C631 1.363 1_545 S
C626 C627 1.363 1_565 S
C626 C631 1.379 . S
C626 N633 1.356 . S
C627 C626 1.363 1_545 S
C627 C630 1.363 . S
N628 C630 1.356 . S
N628 H640 0.984 . S
N628 H641 0.985 . S
N629 C631 1.356 . S
N629 H634 0.984 . S
N629 H635 0.985 . S
C630 C624 1.379 . S
C630 C627 1.363 . S
C630 N628 1.356 . S
C631 C625 1.363 1_565 S
C631 C626 1.379 . S
C631 N629 1.356 . S
N632 C624 1.356 . S
N632 H638 0.984 . S
N632 H639 0.984 . S
N633 C626 1.356 . S
N633 H636 0.984 . S
N633 H637 0.985 . S
H634 N629 0.984 . S
H635 N629 0.985 . S
H636 N633 0.984 . S
H637 N633 0.985 . S
H638 N632 0.984 . S
H639 N632 0.984 . S
H640 N628 0.984 . S
H641 N628 0.985 . S
C642 C643 1.363 . S
C642 C648 1.379 . S
C642 N650 1.356 . S
C643 C642 1.363 . S
C643 C649 1.363 . S
C644 C645 1.363 . S
C644 C649 1.379 . S
C644 N651 1.356 . S
C645 C644 1.363 . S
C645 C648 1.363 . S
N646 C648 1.356 . S
N646 H658 0.984 . S
N646 H659 0.985 . S
N647 C649 1.356 . S
N647 H652 0.984 . S
N647 H653 0.985 . S
C648 C642 1.379 . S
C648 C645 1.363 . S
C648 N646 1.356 . S
C649 C643 1.363 . S
C649 C644 1.379 . S
C649 N647 1.356 . S
N650 C642 1.356 . S
N650 H656 0.984 . S
N650 H657 0.984 . S
N651 C644 1.356 . S
N651 H654 0.984 . S
N651 H655 0.985 . S
H652 N647 0.984 . S
H653 N647 0.985 . S
H654 N651 0.984 . S
H655 N651 0.985 . S
H656 N650 0.984 . S
H657 N650 0.984 . S
H658 N646 0.984 . S
H659 N646 0.985 . S
C660 C661 1.378 . S
C660 C666 1.379 . S
C660 N668 1.356 . S
C661 C660 1.378 . S
C661 C667 1.344 1_455 S
C662 C663 1.363 . S
C662 C667 1.379 . S
C662 N669 1.356 . S
C663 C662 1.363 . S
C663 C666 1.363 1_655 S
N664 C666 1.356 . S
N664 H676 0.984 . S
N664 H677 0.985 . S
N665 C667 1.356 . S
N665 H670 0.984 . S
N665 H671 0.985 . S
C666 C660 1.379 . S
C666 C663 1.363 1_455 S
C666 N664 1.356 . S
C667 C661 1.344 1_655 S
C667 C662 1.379 . S
C667 N665 1.356 . S
N668 C660 1.356 . S
N668 H674 0.984 . S
N668 H675 0.984 . S
N669 C662 1.356 . S
N669 H672 0.984 . S
N669 H673 0.985 . S
H670 N665 0.984 . S
H671 N665 0.985 . S
H672 N669 0.984 . S
H673 N669 0.985 . S
H674 N668 0.984 . S
H675 N668 0.984 . S
H676 N664 0.984 . S
H677 N664 0.985 . S
C355 C24 3.062 . S
C357 C331 3.007 . S
C373 C66 1.246 . S
C375 C258 1.318 . S
C391 C93 2.000 . S
C393 C297 1.914 . S
C409 C13 3.192 . S
C411 C336 3.109 . S
C429 C253 1.360 . S
C427 C57 1.349 . S
C447 C292 2.014 . S
C445 C104 2.090 . S
C463 C64 2.074 . S
C465 C180 1.992 . S
C481 C97 0.882 . S
C483 C214 0.904 . S
C499 C17 1.398 . S
C501 C136 1.445 . S
C519 C175 1.906 . S
C517 C53 2.000 . S
C537 C219 0.476 . S
C535 C106 0.625 . S
C553 C26 1.275 . S
C555 C141 1.343 . S
C573 C199 1.061 . S
C571 C2 1.068 . S
C589 C63 1.455 . S
C591 C121 1.494 . S
C607 C82 1.367 . S
C609 C160 1.377 . S
C627 C277 1.399 . S
C625 C42 1.384 . S
C645 C316 1.807 . S
C643 C103 1.765 . S
C661 C23 1.486 . S
C663 C238 1.508 . S
