# Generated by pormake.
# Topology rtl, (3,6)-cn, num edge types: 1
# Building blocks:
#     Node 0, Type 0, BuildingBlock: MIDCAF_clean_linker_0, # of connection points: 3
#     Node 1, Type 0, BuildingBlock: MIDCAF_clean_linker_0, # of connection points: 3
#     Node 2, Type 0, BuildingBlock: MIDCAF_clean_linker_0, # of connection points: 3
#     Node 3, Type 0, BuildingBlock: MIDCAF_clean_linker_0, # of connection points: 3
#     Node 4, Type 1, BuildingBlock: CIFDUS_clean_sbu_1, # of connection points: 6
#     Node 5, Type 1, BuildingBlock: CIFDUS_clean_sbu_1, # of connection points: 6
#     Edge 6, Type (0, 1), BuildingBlock: MIFKUJ_clean_linker_0, # of connection points: 2
#     Edge 7, Type (0, 1), BuildingBlock: MIFKUJ_clean_linker_0, # of connection points: 2
#     Edge 8, Type (0, 1), BuildingBlock: MIFKUJ_clean_linker_0, # of connection points: 2
#     Edge 9, Type (0, 1), BuildingBlock: MIFKUJ_clean_linker_0, # of connection points: 2
#     Edge 10, Type (0, 1), BuildingBlock: MIFKUJ_clean_linker_0, # of connection points: 2
#     Edge 11, Type (0, 1), BuildingBlock: MIFKUJ_clean_linker_0, # of connection points: 2
#     Edge 12, Type (0, 1), BuildingBlock: MIFKUJ_clean_linker_0, # of connection points: 2
#     Edge 13, Type (0, 1), BuildingBlock: MIFKUJ_clean_linker_0, # of connection points: 2
#     Edge 14, Type (0, 1), BuildingBlock: MIFKUJ_clean_linker_0, # of connection points: 2
#     Edge 15, Type (0, 1), BuildingBlock: MIFKUJ_clean_linker_0, # of connection points: 2
#     Edge 16, Type (0, 1), BuildingBlock: MIFKUJ_clean_linker_0, # of connection points: 2
#     Edge 17, Type (0, 1), BuildingBlock: MIFKUJ_clean_linker_0, # of connection points: 2
# Relax obj value: 0.029
# Max RMSD: 0.064
# Mean RMSD: 0.049
data_MOF--net-rtl--node1-CIFDUS_clean_sbu_1--node2-MIDCAF_clean_linker_0--edge1-MIFKUJ_clean_linker_0
_symmetry_space_group_name_H-M    P1
_symmetry_Int_Tables_number       1
_symmetry_cell_setting            triclinic
loop_
_symmetry_equiv_pos_as_xyz
'x, y, z'
_cell_length_a     46.216965
_cell_length_b     52.592522
_cell_length_c     36.701384
_cell_angle_alpha  89.92608
_cell_angle_beta   97.640589
_cell_angle_gamma 89.947521
loop_
_atom_site_label
_atom_site_type_symbol
_atom_site_fract_x
_atom_site_fract_y
_atom_site_fract_z
_atom_type_partial_charge
C0 C 0.22327 0.93775 0.18494 0.0
C1 C 0.23483 0.92974 0.22037 0.0
C2 C 0.26012 0.91456 0.22475 0.0
C3 C 0.27292 0.90674 0.19395 0.0
H4 H 0.3317 0.85226 0.15533 0.0
H5 H 0.36028 0.81295 0.15584 0.0
H6 H 0.34253 0.8093 0.03757 0.0
H7 H 0.31435 0.84839 0.03672 0.0
H8 H 0.28639 0.89599 0.99192 0.0
H9 H 0.26124 0.91002 0.9323 0.0
H10 H 0.20126 0.95408 0.98703 0.0
H11 H 0.22641 0.9407 0.04667 0.0
H12 H 0.22623 0.93668 0.12756 0.0
H13 H 0.20402 0.94973 0.1808 0.0
H14 H 0.26945 0.90813 0.25183 0.0
H15 H 0.29199 0.89457 0.19804 0.0
N16 N 0.29222 0.88553 0.12658 0.0
N17 N 0.29072 0.88706 0.06232 0.0
N18 N 0.26273 0.91555 0.0918 0.0
C19 C 0.30127 0.87634 0.0952 0.0
C20 C 0.27155 0.90673 0.06037 0.0
C21 C 0.27291 0.90525 0.12499 0.0
C22 C 0.32047 0.85352 0.09603 0.0
C23 C 0.33407 0.84321 0.12941 0.0
C24 C 0.35055 0.82075 0.12972 0.0
C25 C 0.35341 0.80797 0.09675 0.0
C26 C 0.34041 0.81857 0.06343 0.0
C27 C 0.32434 0.8411 0.06303 0.0
C28 C 0.25832 0.91701 0.02422 0.0
C29 C 0.2681 0.90894 0.99137 0.0
C30 C 0.25383 0.91699 0.95725 0.0
C31 C 0.22936 0.93296 0.95538 0.0
C32 C 0.22005 0.94165 0.98798 0.0
C33 C 0.23453 0.93395 0.02207 0.0
C34 C 0.26089 0.91434 0.15833 0.0
C35 C 0.23619 0.93031 0.1544 0.0
C36 C 0.70286 0.59755 0.47741 0.0
C37 C 0.70802 0.61126 0.44611 0.0
C38 C 0.72721 0.63199 0.44998 0.0
C39 C 0.74048 0.6394 0.48474 0.0
H40 H 0.80517 0.68497 0.5374 0.0
H41 H 0.83524 0.72306 0.53976 0.0
H42 H 0.81884 0.73683 0.65112 0.0
H43 H 0.78852 0.69867 0.64887 0.0
H44 H 0.75292 0.65515 0.68865 0.0
H45 H 0.73046 0.63966 0.74101 0.0
H46 H 0.68981 0.57862 0.67421 0.0
H47 H 0.71157 0.59427 0.62188 0.0
H48 H 0.7107 0.59471 0.53612 0.0
H49 H 0.68798 0.58155 0.47494 0.0
H50 H 0.73153 0.64273 0.42607 0.0
H51 H 0.75476 0.65579 0.4867 0.0
N52 N 0.76503 0.65603 0.55699 0.0
N53 N 0.76448 0.65654 0.62082 0.0
N54 N 0.73661 0.6265 0.58413 0.0
C55 C 0.77442 0.66631 0.5904 0.0
C56 C 0.74568 0.63647 0.61791 0.0
C57 C 0.74614 0.63616 0.55353 0.0
C58 C 0.79423 0.68872 0.59292 0.0
C59 C 0.80801 0.69599 0.56253 0.0
C60 C 0.82544 0.71779 0.5639 0.0
C61 C 0.82936 0.73304 0.59556 0.0
C62 C 0.81598 0.72562 0.62617 0.0
C63 C 0.79875 0.70364 0.62495 0.0
C64 C 0.73388 0.62618 0.65078 0.0
C65 C 0.73933 0.63834 0.68515 0.0
C66 C 0.72655 0.62938 0.71529 0.0
C67 C 0.70805 0.60802 0.71181 0.0
C68 C 0.7034 0.59543 0.67775 0.0
C69 C 0.71607 0.60439 0.64769 0.0
C70 C 0.73442 0.62648 0.51649 0.0
C71 C 0.71581 0.60518 0.51236 0.0
C72 C 0.81187 0.1016 0.91349 0.0
C73 C 0.80535 0.11324 0.87891 0.0
C74 C 0.78653 0.13442 0.87548 0.0
C75 C 0.77466 0.14379 0.90602 0.0
H76 H 0.72811 0.20542 0.9452 0.0
H77 H 0.69721 0.24324 0.94369 0.0
H78 H 0.67685 0.22544 0.05224 0.0
H79 H 0.70771 0.18771 0.05399 0.0
H80 H 0.75631 0.15534 0.10583 0.0
H81 H 0.77902 0.1406 0.16581 0.0
H82 H 0.83383 0.08951 0.11321 0.0
H83 H 0.81075 0.1037 0.0533 0.0
H84 H 0.80591 0.10145 0.97008 0.0
H85 H 0.82663 0.08552 0.91731 0.0
H86 H 0.78085 0.1437 0.84914 0.0
H87 H 0.76039 0.1602 0.90246 0.0
N88 N 0.75076 0.16219 0.97125 0.0
N89 N 0.75049 0.1609 0.0352 0.0
N90 N 0.77931 0.1322 0.00723 0.0
C91 C 0.7408 0.17145 1.00196 0.0
C92 C 0.76979 0.14129 0.03808 0.0
C93 C 0.76993 0.14238 0.97372 0.0
C94 C 0.72057 0.19354 0.99978 0.0
C95 C 0.71689 0.20942 0.96864 0.0
C96 C 0.69932 0.23117 0.96784 0.0
C97 C 0.68471 0.23734 0.9979 0.0
C98 C 0.68768 0.22109 0.02857 0.0
C99 C 0.70553 0.19954 0.0296 0.0
C100 C 0.78183 0.13092 0.07461 0.0
C101 C 0.77301 0.1408 0.10698 0.0
C102 C 0.78616 0.13245 0.14142 0.0
C103 C 0.80846 0.11406 0.14435 0.0
C104 C 0.81657 0.10355 0.112 0.0
C105 C 0.8034 0.11184 0.07757 0.0
C106 C 0.78145 0.13223 0.9407 0.0
C107 C 0.80009 0.11093 0.94391 0.0
C108 C 0.29581 0.43954 0.60272 0.0
C109 C 0.28553 0.43281 0.63573 0.0
C110 C 0.25999 0.41812 0.63418 0.0
C111 C 0.24565 0.40955 0.60036 0.0
H112 H 0.17839 0.35907 0.54908 0.0
H113 H 0.14958 0.31984 0.54824 0.0
H114 H 0.17463 0.30047 0.44267 0.0
H115 H 0.20276 0.33973 0.44282 0.0
H116 H 0.21574 0.39626 0.3949 0.0
H117 H 0.23556 0.40936 0.33894 0.0
H118 H 0.30843 0.44485 0.40524 0.0
H119 H 0.28871 0.43236 0.46093 0.0
H120 H 0.29023 0.43658 0.54418 0.0
H121 H 0.31525 0.45107 0.60303 0.0
H122 H 0.25163 0.41255 0.65922 0.0
H123 H 0.22643 0.39777 0.6002 0.0
N124 N 0.22306 0.38591 0.53006 0.0
N125 N 0.22075 0.38448 0.46572 0.0
N126 N 0.25093 0.41421 0.49965 0.0
C127 C 0.21212 0.37531 0.49726 0.0
C128 C 0.24002 0.40406 0.46667 0.0
C129 C 0.24254 0.40541 0.53146 0.0
C130 C 0.19296 0.35255 0.49605 0.0
C131 C 0.17752 0.34658 0.52552 0.0
C132 C 0.16096 0.32421 0.52503 0.0
C133 C 0.16008 0.30717 0.49547 0.0
C134 C 0.17511 0.31328 0.46584 0.0
C135 C 0.1911 0.33583 0.46593 0.0
C136 C 0.2507 0.41312 0.43248 0.0
C137 C 0.23586 0.40705 0.39753 0.0
C138 C 0.24706 0.41462 0.36551 0.0
C139 C 0.27354 0.42796 0.36793 0.0
C140 C 0.28803 0.43444 0.40272 0.0
C141 C 0.27665 0.42732 0.4346 0.0
C142 C 0.25634 0.41578 0.56732 0.0
C143 C 0.28132 0.43129 0.56895 0.0
O144 O 0.98778 0.03077 0.50312 0.0
Mn145 Mn 0.0144 0.01416 0.54882 0.0
O146 O 0.96268 0.99896 0.47461 0.0
Mn147 Mn 0.98921 0.97598 0.49548 0.0
O148 O 0.04235 0.99839 0.59407 0.0
O149 O 0.03247 0.04961 0.55548 0.0
Mn150 Mn 0.03959 0.05418 0.6035 0.0
O151 O 0.98317 0.02391 0.58331 0.0
O152 O 0.06706 0.03099 0.62232 0.0
O153 O 0.04605 0.00462 0.51385 0.0
O154 O 0.02373 0.97511 0.47637 0.0
O155 O 0.05167 0.08354 0.58497 0.0
O156 O 0.00441 0.05378 0.62179 0.0
C157 C 0.98222 0.95587 0.5407 0.0
C158 C 0.96845 0.02235 0.47758 0.0
C159 C 0.06304 0.00734 0.6176 0.0
C160 C 0.04306 0.0725 0.55388 0.0
C161 C 0.98278 0.03979 0.60991 0.0
C162 C 0.04565 0.98906 0.48663 0.0
O163 O 0.9947 0.97846 0.54388 0.0
O164 O 0.97496 0.94647 0.50809 0.0
O165 O 0.52368 0.53275 0.08917 0.0
Mn166 Mn 0.49671 0.51468 0.04525 0.0
O167 O 0.54341 0.5013 0.12565 0.0
Mn168 Mn 0.52129 0.47622 0.10167 0.0
O169 O 0.46896 0.49726 1.0005 0.0
O170 O 0.4744 0.54807 0.03578 0.0
Mn171 Mn 0.46918 0.55114 0.98699 0.0
O172 O 0.5278 0.52438 0.01067 0.0
O173 O 0.43953 0.52852 0.97531 0.0
O174 O 0.4653 0.50436 0.08052 0.0
O175 O 0.48479 0.47171 0.1144 0.0
O176 O 0.46991 0.58341 0.00484 0.0
O177 O 0.50141 0.54412 0.96379 0.0
C178 C 0.53338 0.45927 0.05522 0.0
C179 C 0.54112 0.52464 0.11714 0.0
C180 C 0.44587 0.50504 0.9793 0.0
C181 C 0.47662 0.57271 0.0366 0.0
C182 C 0.52509 0.53416 0.9784 0.0
C183 C 0.46354 0.48648 0.10434 0.0
O184 O 0.51909 0.48086 0.05368 0.0
O185 O 0.53997 0.44885 0.08728 0.0
H186 H 0.10246 0.29882 0.50135 0.0
H187 H 0.077 0.25786 0.49974 0.0
H188 H 0.15825 0.21903 0.49129 0.0
H189 H 0.18309 0.26001 0.49053 0.0
H190 H 0.12012 0.19696 0.44864 0.0
H191 H 0.12284 0.22337 0.57387 0.0
H192 H 0.1146 0.25213 0.62451 0.0
H193 H 0.02212 0.24928 0.59034 0.0
H194 H 0.02985 0.22079 0.53913 0.0
H195 H 0.08928 0.0757 0.51773 0.0
H196 H 0.10484 0.11671 0.49732 0.0
H197 H 0.01762 0.14614 0.49745 0.0
H198 H 0.00265 0.10512 0.52041 0.0
H199 H 0.05431 0.17409 0.53969 0.0
H200 H 0.05574 0.14112 0.41698 0.0
H201 H 0.06896 0.1088 0.37335 0.0
H202 H 0.15989 0.12087 0.41071 0.0
H203 H 0.14728 0.15284 0.45509 0.0
C204 C 0.11475 0.28147 0.49919 0.0
C205 C 0.14467 0.28248 0.49605 0.0
C206 C 0.10027 0.25803 0.4985 0.0
C207 C 0.11567 0.23511 0.49593 0.0
C208 C 0.1457 0.23629 0.49311 0.0
C209 C 0.15996 0.2597 0.49284 0.0
C210 C 0.10069 0.2099 0.49557 0.0
C211 C 0.10587 0.19199 0.46876 0.0
C212 C 0.08167 0.20328 0.52137 0.0
C213 C 0.07696 0.2202 0.55238 0.0
C214 C 0.10077 0.22902 0.57699 0.0
C215 C 0.09618 0.24526 0.60582 0.0
C216 C 0.06786 0.2526 0.61056 0.0
C217 C 0.04405 0.24363 0.58658 0.0
C218 C 0.04852 0.22743 0.55765 0.0
C219 C 0.07293 0.09036 0.51095 0.0
C220 C 0.04481 0.08721 0.52046 0.0
C221 C 0.08194 0.11409 0.49967 0.0
C222 C 0.06252 0.13482 0.49597 0.0
C223 C 0.03314 0.13058 0.50037 0.0
C224 C 0.02434 0.10689 0.51251 0.0
C225 C 0.07384 0.1612 0.4928 0.0
C226 C 0.0681 0.17929 0.51914 0.0
C227 C 0.093 0.16775 0.46725 0.0
C228 C 0.10054 0.14944 0.43927 0.0
C229 C 0.07855 0.13691 0.41583 0.0
C230 C 0.08593 0.11861 0.39105 0.0
C231 C 0.11521 0.11286 0.38919 0.0
C232 C 0.13721 0.12541 0.41209 0.0
C233 C 0.12997 0.14365 0.43702 0.0
H234 H 0.12085 0.09865 0.37002 0.0
H235 H 0.06436 0.26518 0.63287 0.0
H236 H 0.33388 0.76445 0.06156 0.0
H237 H 0.35866 0.72323 0.06192 0.0
H238 H 0.43252 0.754 0.13203 0.0
H239 H 0.40757 0.79535 0.13226 0.0
H240 H 0.44245 0.72257 0.06239 0.0
H241 H 0.39478 0.72049 0.17422 0.0
H242 H 0.35087 0.72579 0.20504 0.0
H243 H 0.30599 0.66943 0.1342 0.0
H244 H 0.34953 0.66406 0.10265 0.0
H245 H 0.51274 0.6062 0.07623 0.0
H246 H 0.49512 0.64606 0.09969 0.0
H247 H 0.40703 0.61697 0.0824 0.0
H248 H 0.42512 0.5766 0.06231 0.0
H249 H 0.4062 0.64961 0.12922 0.0
H250 H 0.44264 0.65153 0.01398 0.0
H251 H 0.47799 0.64668 0.96967 0.0
H252 H 0.53397 0.7022 0.0286 0.0
H253 H 0.49913 0.7071 0.07359 0.0
C254 C 0.35546 0.76248 0.07692 0.0
C255 C 0.3688 0.78311 0.09691 0.0
C256 C 0.36954 0.73892 0.07715 0.0
C257 C 0.39739 0.7356 0.09701 0.0
C258 C 0.41103 0.75623 0.11652 0.0
C259 C 0.39672 0.77974 0.11682 0.0
C260 C 0.41182 0.71033 0.09793 0.0
C261 C 0.43506 0.70668 0.07761 0.0
C262 C 0.40106 0.68939 0.11617 0.0
C263 C 0.37535 0.69195 0.13605 0.0
C264 C 0.37551 0.70929 0.16517 0.0
C265 C 0.35069 0.71231 0.18275 0.0
C266 C 0.32565 0.69797 0.17157 0.0
C267 C 0.32541 0.68051 0.14286 0.0
C268 C 0.35016 0.67744 0.12517 0.0
C269 C 0.48995 0.60776 0.07999 0.0
C270 C 0.47034 0.58825 0.06781 0.0
C271 C 0.47967 0.63086 0.09235 0.0
C272 C 0.44947 0.63519 0.0911 0.0
C273 C 0.43038 0.61449 0.08333 0.0
C274 C 0.44081 0.59113 0.07231 0.0
C275 C 0.43745 0.6615 0.09385 0.0
C276 C 0.41429 0.66542 0.11451 0.0
C277 C 0.44735 0.68245 0.07426 0.0
C278 C 0.46849 0.67941 0.04746 0.0
C279 C 0.46261 0.66254 0.01766 0.0
C280 C 0.48253 0.65981 0.9924 0.0
C281 C 0.50825 0.67406 0.9964 0.0
C282 C 0.51407 0.69112 0.02561 0.0
C283 C 0.49426 0.69387 0.05101 0.0
H284 H 0.52364 0.67193 0.97679 0.0
H285 H 0.30644 0.70037 0.18517 0.0
H286 H 0.88216 0.74062 0.57082 0.0
H287 H 0.90993 0.78032 0.57081 0.0
H288 H 0.84343 0.81925 0.62133 0.0
H289 H 0.81548 0.77969 0.62124 0.0
H290 H 0.86163 0.84529 0.56034 0.0
H291 H 0.90551 0.80328 0.67263 0.0
H292 H 0.93009 0.76724 0.70703 0.0
H293 H 0.00057 0.77168 0.64192 0.0
H294 H 0.9762 0.80751 0.6068 0.0
H295 H 0.93649 0.96065 0.5797 0.0
H296 H 0.91079 0.92346 0.59968 0.0
H297 H 0.98407 0.8761 0.58228 0.0
H298 H 0.01008 0.91334 0.56482 0.0
H299 H 0.96086 0.8542 0.62943 0.0
H300 H 0.92126 0.88981 0.51384 0.0
H301 H 0.89834 0.92118 0.46895 0.0
H302 H 0.82307 0.92447 0.52591 0.0
H303 H 0.84573 0.89341 0.57149 0.0
C304 C 0.87344 0.75765 0.58188 0.0
C305 C 0.84668 0.75696 0.59623 0.0
C306 C 0.8894 0.78028 0.58203 0.0
C307 C 0.87886 0.80271 0.59635 0.0
C308 C 0.85203 0.80215 0.6103 0.0
C309 C 0.8362 0.77948 0.61049 0.0
C310 C 0.89564 0.82685 0.59654 0.0
C311 C 0.88314 0.84748 0.57593 0.0
C312 C 0.92418 0.82927 0.61555 0.0
C313 C 0.93894 0.80794 0.63696 0.0
C314 C 0.92616 0.79646 0.66551 0.0
C315 C 0.94007 0.77609 0.68515 0.0
C316 C 0.96685 0.76715 0.67663 0.0
C317 C 0.97982 0.77861 0.64849 0.0
C318 C 0.96599 0.79896 0.62874 0.0
C319 C 0.94784 0.94258 0.58277 0.0
C320 C 0.97547 0.93993 0.57127 0.0
C321 C 0.93277 0.92111 0.59302 0.0
C322 C 0.94487 0.89663 0.59102 0.0
C323 C 0.97392 0.89457 0.58387 0.0
C324 C 0.98912 0.91603 0.57447 0.0
C325 C 0.92695 0.87309 0.59316 0.0
C326 C 0.93923 0.85238 0.61407 0.0
C327 C 0.89864 0.87025 0.57305 0.0
C328 C 0.88542 0.88961 0.54644 0.0
C329 C 0.89998 0.89747 0.51707 0.0
C330 C 0.887 0.91514 0.49144 0.0
C331 C 0.85932 0.92489 0.49466 0.0
C332 C 0.84456 0.91699 0.52353 0.0
C333 C 0.85747 0.89938 0.54929 0.0
H334 H 0.84927 0.9385 0.47473 0.0
H335 H 0.97758 0.75138 0.69187 0.0
H336 H 0.70044 0.28501 0.97883 0.0
H337 H 0.67255 0.32452 0.98039 0.0
H338 H 0.60191 0.28311 0.01856 0.0
H339 H 0.62987 0.24343 0.01737 0.0
H340 H 0.58473 0.31888 0.95912 0.0
H341 H 0.6395 0.31494 0.07883 0.0
H342 H 0.68409 0.30913 0.12299 0.0
H343 H 0.72308 0.37393 0.07755 0.0
H344 H 0.67881 0.3799 0.0327 0.0
H345 H 0.50437 0.42039 0.02181 0.0
H346 H 0.52965 0.3829 0.00486 0.0
H347 H 0.60832 0.42693 0.00318 0.0
H348 H 0.58326 0.46411 0.02424 0.0
H349 H 0.62215 0.38908 0.04245 0.0
H350 H 0.56522 0.39302 0.92208 0.0
H351 H 0.51922 0.39813 0.88015 0.0
H352 H 0.48332 0.33285 0.92831 0.0
H353 H 0.52904 0.32744 0.97071 0.0
C354 C 0.67888 0.28428 0.98727 0.0
C355 C 0.6673 0.26112 0.99787 0.0
C356 C 0.66305 0.30687 0.98833 0.0
C357 C 0.63522 0.30672 0.99964 0.0
C358 C 0.62335 0.28359 0.0097 0.0
C359 C 0.63938 0.26101 0.00918 0.0
C360 C 0.61878 0.33086 1.00126 0.0
C361 C 0.59275 0.33423 0.97745 0.0
C362 C 0.6295 0.35092 0.02483 0.0
C363 C 0.65596 0.34771 0.05216 0.0
C364 C 0.65766 0.32784 0.07806 0.0
C365 C 0.68286 0.32453 0.10325 0.0
C366 C 0.70644 0.34111 0.103 0.0
C367 C 0.7048 0.36109 0.07766 0.0
C368 C 0.67965 0.36446 0.05238 0.0
C369 C 0.52651 0.42248 0.01552 0.0
C370 C 0.54167 0.44524 0.0238 0.0
C371 C 0.54123 0.4008 0.00602 0.0
C372 C 0.57113 0.40174 1.00236 0.0
C373 C 0.58534 0.42546 0.00598 0.0
C374 C 0.57079 0.44699 0.01694 0.0
C375 C 0.58808 0.37769 0.99946 0.0
C376 C 0.61421 0.3741 0.02344 0.0
C377 C 0.57741 0.35737 0.97604 0.0
C378 C 0.55052 0.35983 0.94945 0.0
C379 C 0.54753 0.37973 0.92362 0.0
C380 C 0.52152 0.38269 0.89986 0.0
C381 C 0.49845 0.36579 0.90158 0.0
C382 C 0.50129 0.34585 0.92697 0.0
C383 C 0.52728 0.34276 0.95076 0.0
H384 H 0.47842 0.36814 0.88315 0.0
H385 H 0.72594 0.3385 0.1225 0.0
H386 H 0.17729 0.92379 0.22613 0.0
H387 H 0.15087 0.93744 0.27599 0.0
H388 H 0.23105 0.96571 0.33585 0.0
H389 H 0.25786 0.95111 0.28615 0.0
H390 H 0.19849 0.94379 0.38196 0.0
H391 H 0.17954 0.00654 0.28592 0.0
H392 H 0.16479 0.02114 0.22224 0.0
H393 H 0.08005 0.98789 0.22292 0.0
H394 H 0.09439 0.97283 0.28642 0.0
H395 H 0.10368 0.00554 0.50138 0.0
H396 H 0.14223 0.99987 0.46121 0.0
H397 H 0.08025 0.96241 0.38068 0.0
H398 H 0.04256 0.96805 0.41916 0.0
H399 H 0.11023 0.99697 0.34871 0.0
H400 H 0.12967 0.9287 0.43744 0.0
H401 H 0.1427 0.91066 0.49952 0.0
H402 H 0.22396 0.95131 0.5113 0.0
H403 H 0.21118 0.96985 0.44941 0.0
C404 C 0.1893 0.93286 0.24997 0.0
C405 C 0.21956 0.93667 0.2521 0.0
C406 C 0.17417 0.94078 0.27842 0.0
C407 C 0.18877 0.95332 0.30931 0.0
C408 C 0.21923 0.95631 0.31217 0.0
C409 C 0.23453 0.94797 0.28383 0.0
C410 C 0.17194 0.96349 0.33807 0.0
C411 C 0.17955 0.95589 0.37482 0.0
C412 C 0.14695 0.97903 0.32885 0.0
C413 C 0.1381 0.98851 0.29089 0.0
C414 C 0.1578 0.00229 0.27244 0.0
C415 C 0.1495 0.01063 0.23637 0.0
C416 C 0.12151 0.00543 0.21854 0.0
C417 C 0.10171 0.99193 0.23677 0.0
C418 C 0.10989 0.98353 0.27282 0.0
C419 C 0.09841 0.99622 0.47504 0.0
C420 C 0.06997 0.98715 0.46383 0.0
C421 C 0.12042 0.99288 0.4522 0.0
C422 C 0.11411 0.98068 0.41785 0.0
C423 C 0.08573 0.97198 0.40683 0.0
C424 C 0.06412 0.97515 0.42929 0.0
C425 C 0.13623 0.97664 0.39237 0.0
C426 C 0.12961 0.98542 0.35607 0.0
C427 C 0.16176 0.96191 0.40193 0.0
C428 C 0.16928 0.95097 0.43913 0.0
C429 C 0.15016 0.934 0.45346 0.0
C430 C 0.15753 0.92364 0.48855 0.0
C431 C 0.18408 0.92993 0.50942 0.0
C432 C 0.20335 0.94653 0.49517 0.0
C433 C 0.19606 0.95697 0.4601 0.0
H434 H 0.18976 0.92187 0.53658 0.0
H435 H 0.11515 0.01188 0.19061 0.0
H436 H 0.72927 0.60538 0.7856 0.0
H437 H 0.70315 0.5918 0.83622 0.0
H438 H 0.62626 0.5771 0.75892 0.0
H439 H 0.65173 0.59141 0.70864 0.0
H440 H 0.61231 0.60239 0.81627 0.0
H441 H 0.67134 0.52884 0.79819 0.0
H442 H 0.71741 0.50591 0.79443 0.0
H443 H 0.74855 0.52654 0.90593 0.0
H444 H 0.70277 0.54989 0.91017 0.0
H445 H 0.52186 0.52768 0.90521 0.0
H446 H 0.55844 0.53859 0.86585 0.0
H447 H 0.62043 0.55498 0.96143 0.0
H448 H 0.5835 0.54362 1.00148 0.0
H449 H 0.64607 0.53226 0.90221 0.0
H450 H 0.58441 0.60277 0.92129 0.0
H451 H 0.53775 0.62493 0.92428 0.0
H452 H 0.51137 0.60994 0.8097 0.0
H453 H 0.55767 0.5873 0.80617 0.0
C454 C 0.70674 0.59939 0.77942 0.0
C455 C 0.69269 0.59938 0.74293 0.0
C456 C 0.69192 0.59139 0.80838 0.0
C457 C 0.66277 0.58317 0.80141 0.0
C458 C 0.64873 0.58327 0.76506 0.0
C459 C 0.66347 0.59125 0.73622 0.0
C460 C 0.64636 0.57497 0.83173 0.0
C461 C 0.61966 0.58693 0.83484 0.0
C462 C 0.65631 0.55537 0.85688 0.0
C463 C 0.68379 0.54134 0.85436 0.0
C464 C 0.68811 0.52866 0.8218 0.0
C465 C 0.71415 0.51556 0.8196 0.0
C466 C 0.73593 0.51483 0.84989 0.0
C467 C 0.73168 0.52716 0.88247 0.0
C468 C 0.70569 0.54032 0.88479 0.0
C469 C 0.54349 0.53305 0.91798 0.0
C470 C 0.54974 0.53506 0.95642 0.0
C471 C 0.56436 0.53937 0.89541 0.0
C472 C 0.59193 0.54823 0.91062 0.0
C473 C 0.59917 0.54837 0.94911 0.0
C474 C 0.57816 0.54178 0.97196 0.0
C475 C 0.61172 0.55922 0.88586 0.0
C476 C 0.63898 0.54791 0.88388 0.0
C477 C 0.60232 0.57945 0.86158 0.0
C478 C 0.57446 0.59317 0.86355 0.0
C479 C 0.56857 0.60402 0.8968 0.0
C480 C 0.54219 0.61669 0.89858 0.0
C481 C 0.52159 0.6188 0.86721 0.0
C482 C 0.52734 0.60828 0.83398 0.0
C483 C 0.55366 0.59554 0.83207 0.0
H484 H 0.50119 0.62864 0.86864 0.0
H485 H 0.75607 0.50467 0.84814 0.0
H486 H 0.82706 0.06659 0.16845 0.0
H487 H 0.85524 0.05536 0.22744 0.0
H488 H 0.8532 0.13361 0.26211 0.0
H489 H 0.82605 0.14516 0.20272 0.0
H490 H 0.90718 0.11378 0.27786 0.0
H491 H 0.80906 0.08759 0.29402 0.0
H492 H 0.76289 0.0641 0.27856 0.0
H493 H 0.80975 0.99335 0.28685 0.0
H494 H 0.85623 0.01641 0.30185 0.0
H495 H 0.95111 0.0734 0.47397 0.0
H496 H 0.92563 0.09512 0.41871 0.0
H497 H 0.93518 0.02785 0.35435 0.0
H498 H 0.96044 0.00666 0.4078 0.0
H499 H 0.87528 0.04622 0.35799 0.0
H500 H 0.97137 0.06863 0.3332 0.0
H501 H 0.0199 0.08864 0.34422 0.0
H502 H 0.97996 0.1622 0.34766 0.0
H503 H 0.9311 0.14251 0.33734 0.0
C504 C 0.83269 0.08143 0.18857 0.0
C505 C 0.82418 0.10677 0.18089 0.0
C506 C 0.84858 0.07494 0.22242 0.0
C507 C 0.85604 0.09361 0.24937 0.0
C508 C 0.84758 0.11888 0.24179 0.0
C509 C 0.83178 0.1254 0.20795 0.0
C510 C 0.87318 0.08694 0.28522 0.0
C511 C 0.8999 0.09938 0.29578 0.0
C512 C 0.86412 0.06762 0.30807 0.0
C513 C 0.83614 0.05377 0.29881 0.0
C514 C 0.80954 0.06704 0.29227 0.0
C515 C 0.78331 0.05379 0.28363 0.0
C516 C 0.78339 0.02725 0.28167 0.0
C517 C 0.80971 0.0139 0.28836 0.0
C518 C 0.836 0.02705 0.29696 0.0
C519 C 0.94807 0.06356 0.44784 0.0
C520 C 0.9568 0.03807 0.44548 0.0
C521 C 0.93362 0.0759 0.41642 0.0
C522 C 0.92819 0.0628 0.38274 0.0
C523 C 0.93879 0.03812 0.38015 0.0
C524 C 0.95305 0.02601 0.41094 0.0
C525 C 0.90911 0.0731 0.35058 0.0
C526 C 0.88213 0.06113 0.34053 0.0
C527 C 0.91828 0.09231 0.32782 0.0
C528 C 0.94758 0.10405 0.33532 0.0
C529 C 0.97291 0.08901 0.33704 0.0
C530 C 1.0005 0.10031 0.34297 0.0
C531 C 0.00302 0.12668 0.34684 0.0
C532 C 0.97796 0.14177 0.34483 0.0
C533 C 0.95033 0.13055 0.33898 0.0
H534 H 0.02435 0.13546 0.35112 0.0
H535 H 0.76306 0.01704 0.27502 0.0
H536 H 0.26479 0.45387 0.69554 0.0
H537 H 0.29266 0.46448 0.75532 0.0
H538 H 0.37167 0.43828 0.71687 0.0
H539 H 0.34406 0.42791 0.6571 0.0
H540 H 0.36241 0.41813 0.7858 0.0
H541 H 0.36432 0.49818 0.72491 0.0
H542 H 0.34388 0.5357 0.69026 0.0
H543 H 0.29516 0.55501 0.77812 0.0
H544 H 0.31494 0.51732 0.81308 0.0
H545 H 0.46565 0.46945 0.93388 0.0
H546 H 0.43814 0.45389 0.87629 0.0
H547 H 0.35994 0.48891 0.90536 0.0
H548 H 0.38732 0.50456 0.96231 0.0
H549 H 0.36964 0.50463 0.83966 0.0
H550 H 0.37003 0.42461 0.90183 0.0
H551 H 0.38997 0.38625 0.93469 0.0
H552 H 0.43323 0.36559 0.84247 0.0
H553 H 0.41497 0.40452 0.80992 0.0
C554 C 0.28811 0.45046 0.69987 0.0
C555 C 0.30225 0.44008 0.67166 0.0
C556 C 0.30402 0.45663 0.73391 0.0
C557 C 0.33425 0.4522 0.74049 0.0
C558 C 0.34838 0.44187 0.71236 0.0
C559 C 0.3326 0.43608 0.67818 0.0
C560 C 0.35102 0.45749 0.77712 0.0
C561 C 0.36441 0.43709 0.79749 0.0
C562 C 0.35301 0.48215 0.79249 0.0
C563 C 0.34083 0.50472 0.77142 0.0
C564 C 0.34898 0.51025 0.73667 0.0
C565 C 0.33757 0.53159 0.71701 0.0
C566 C 0.31816 0.54769 0.73193 0.0
C567 C 0.31015 0.54249 0.76657 0.0
C568 C 0.32146 0.52114 0.78633 0.0
C569 C 0.44233 0.47277 0.9287 0.0
C570 C 0.42855 0.48801 0.95274 0.0
C571 C 0.42665 0.46414 0.89555 0.0
C572 C 0.39695 0.47048 0.88618 0.0
C573 C 0.38283 0.48397 0.91167 0.0
C574 C 0.39842 0.4926 0.94451 0.0
C575 C 0.38103 0.46513 0.84885 0.0
C576 C 0.36778 0.48561 0.82819 0.0
C577 C 0.37926 0.44051 0.83317 0.0
C578 C 0.39148 0.41776 0.85365 0.0
C579 C 0.38437 0.41222 0.88889 0.0
C580 C 0.3954 0.39035 0.9075 0.0
C581 C 0.41313 0.37361 0.89087 0.0
C582 C 0.41985 0.37872 0.85559 0.0
C583 C 0.4093 0.40077 0.83713 0.0
H584 H 0.42151 0.3566 0.90521 0.0
H585 H 0.30939 0.56422 0.71668 0.0
H586 H 0.71042 0.56773 0.406 0.0
H587 H 0.68337 0.55854 0.345 0.0
H588 H 0.6418 0.63205 0.34438 0.0
H589 H 0.66919 0.6414 0.40478 0.0
H590 H 0.60312 0.59106 0.32575 0.0
H591 H 0.69385 0.62438 0.29361 0.0
H592 H 0.74733 0.62579 0.29521 0.0
H593 H 0.7469 0.54947 0.25368 0.0
H594 H 0.69345 0.54747 0.25238 0.0
H595 H 0.52913 0.57231 0.14403 0.0
H596 H 0.55858 0.59421 0.19569 0.0
H597 H 0.62418 0.53543 0.19819 0.0
H598 H 0.59613 0.51486 0.1463 0.0
H599 H 0.6509 0.57502 0.21482 0.0
H600 H 0.56399 0.53797 0.25072 0.0
H601 H 0.51166 0.53204 0.25319 0.0
H602 H 0.50535 0.60797 0.29446 0.0
H603 H 0.55752 0.6149 0.29004 0.0
C604 C 0.69553 0.58185 0.39264 0.0
C605 C 0.69184 0.60527 0.40972 0.0
C606 C 0.68024 0.57668 0.35789 0.0
C607 C 0.66078 0.59473 0.34013 0.0
C608 C 0.65682 0.61796 0.35755 0.0
C609 C 0.67245 0.62329 0.39189 0.0
C610 C 0.64388 0.58927 0.30379 0.0
C611 C 0.61342 0.58792 0.30123 0.0
C612 C 0.65753 0.58455 0.27226 0.0
C613 C 0.68968 0.58572 0.27321 0.0
C614 C 0.70519 0.60782 0.28515 0.0
C615 C 0.73549 0.60874 0.28593 0.0
C616 C 0.75051 0.58772 0.27462 0.0
C617 C 0.73525 0.56574 0.26247 0.0
C618 C 0.70495 0.56471 0.26169 0.0
C619 C 0.55035 0.56476 0.15489 0.0
C620 C 0.56029 0.54184 0.14134 0.0
C621 C 0.56698 0.577 0.18475 0.0
C622 C 0.59344 0.56621 0.20157 0.0
C623 C 0.604 0.5443 0.18606 0.0
C624 C 0.5878 0.53244 0.1563 0.0
C625 C 0.60975 0.57615 0.23651 0.0
C626 C 0.64029 0.57842 0.23901 0.0
C627 C 0.59618 0.58093 0.26833 0.0
C628 C 0.56456 0.57711 0.26937 0.0
C629 C 0.55136 0.55358 0.25966 0.0
C630 C 0.52167 0.55002 0.26155 0.0
C631 C 0.50513 0.56957 0.27428 0.0
C632 C 0.51816 0.59287 0.28455 0.0
C633 C 0.54774 0.59669 0.28204 0.0
H634 H 0.48224 0.56676 0.27637 0.0
H635 H 0.77397 0.58848 0.2752 0.0
H636 H 0.81367 0.06364 0.85992 0.0
H637 H 0.83858 0.04774 0.80985 0.0
H638 H 0.85232 0.12473 0.77536 0.0
H639 H 0.82759 0.14081 0.82557 0.0
H640 H 0.83616 0.0952 0.71726 0.0
H641 H 0.90694 0.09086 0.82477 0.0
H642 H 0.92688 0.07876 0.88808 0.0
H643 H 0.91847 0.99977 0.85916 0.0
H644 H 0.89804 0.01141 0.79577 0.0
H645 H 0.95868 0.08446 0.62378 0.0
H646 H 0.92202 0.09254 0.66421 0.0
H647 H 0.91163 0.01179 0.67891 0.0
H648 H 0.94886 0.00359 0.63794 0.0
H649 H 0.9223 0.03863 0.74476 0.0
H650 H 0.85634 0.04544 0.6331 0.0
H651 H 0.84034 0.06024 0.56987 0.0
H652 H 0.84369 0.1377 0.60706 0.0
H653 H 0.86012 0.12339 0.67046 0.0
C654 C 0.82208 0.07722 0.84178 0.0
C655 C 0.8188 0.10353 0.84695 0.0
C656 C 0.83629 0.06808 0.81312 0.0
C657 C 0.84766 0.08504 0.78912 0.0
C658 C 0.84371 0.11128 0.79353 0.0
C659 C 0.82946 0.12045 0.82219 0.0
C660 C 0.86409 0.07546 0.75978 0.0
C661 C 0.85507 0.08293 0.72332 0.0
C662 C 0.88847 0.05905 0.76753 0.0
C663 C 0.90057 0.052 0.80568 0.0
C664 C 0.90905 0.07091 0.83201 0.0
C665 C 0.9205 0.06414 0.86789 0.0
C666 C 0.92383 0.03852 0.87768 0.0
C667 C 0.91579 0.01961 0.85157 0.0
C668 C 0.90428 0.02628 0.81567 0.0
C669 C 0.948 0.0684 0.63485 0.0
C670 C 0.95635 0.04343 0.62764 0.0
C671 C 0.92704 0.07303 0.65792 0.0
C672 C 0.91392 0.05278 0.67439 0.0
C673 C 0.92141 0.02767 0.66625 0.0
C674 C 0.94238 0.02298 0.64266 0.0
C675 C 0.89437 0.0584 0.70232 0.0
C676 C 0.90297 0.0504 0.73861 0.0
C677 C 0.8699 0.07465 0.69451 0.0
C678 C 0.85955 0.08333 0.65652 0.0
C679 C 0.85379 0.06564 0.62777 0.0
C680 C 0.84464 0.07394 0.5919 0.0
C681 C 0.84102 0.0999 0.58444 0.0
C682 C 0.84648 0.1176 0.61288 0.0
C683 C 0.85566 0.1094 0.6488 0.0
H684 H 0.83394 0.10629 0.55664 0.0
H685 H 0.93272 0.03331 0.90546 0.0
H686 H 0.25106 0.45608 0.30761 0.0
H687 H 0.27669 0.4694 0.25611 0.0
H688 H 0.352 0.42566 0.30192 0.0
H689 H 0.32699 0.41348 0.35374 0.0
H690 H 0.36875 0.4697 0.2873 0.0
H691 H 0.30352 0.40945 0.22032 0.0
H692 H 0.25567 0.39139 0.19575 0.0
H693 H 0.23267 0.46081 0.13719 0.0
H694 H 0.28026 0.4794 0.16185 0.0
H695 H 0.4533 0.44695 0.14845 0.0
H696 H 0.41505 0.4421 0.18677 0.0
H697 H 0.37471 0.5115 0.14299 0.0
H698 H 0.41413 0.51715 0.10423 0.0
H699 H 0.3356 0.46337 0.15349 0.0
H700 H 0.40772 0.51925 0.21729 0.0
H701 H 0.4561 0.53407 0.2444 0.0
H702 H 0.46761 0.46702 0.31176 0.0
H703 H 0.41959 0.45123 0.28377 0.0
C704 C 0.27298 0.44919 0.30625 0.0
C705 C 0.28724 0.43398 0.33468 0.0
C706 C 0.28757 0.45668 0.27678 0.0
C707 C 0.31638 0.44858 0.27497 0.0
C708 C 0.32994 0.43243 0.30271 0.0
C709 C 0.31566 0.42542 0.33233 0.0
C710 C 0.33366 0.45816 0.2462 0.0
C711 C 0.36147 0.46803 0.25805 0.0
C712 C 0.32389 0.45705 0.20794 0.0
C713 C 0.29528 0.44593 0.19329 0.0
C714 C 0.28815 0.42094 0.20248 0.0
C715 C 0.2611 0.41059 0.18849 0.0
C716 C 0.2411 0.42497 0.16502 0.0
C717 C 0.24815 0.44971 0.15544 0.0
C718 C 0.27515 0.46016 0.1694 0.0
C719 C 0.43637 0.46133 0.14644 0.0
C720 C 0.43722 0.48275 0.12336 0.0
C721 C 0.41436 0.45837 0.16851 0.0
C722 C 0.39221 0.4765 0.16806 0.0
C723 C 0.39175 0.49729 0.14376 0.0
C724 C 0.41424 0.5005 0.12163 0.0
C725 C 0.37099 0.47378 0.19492 0.0
C726 C 0.34255 0.46526 0.18278 0.0
C727 C 0.38039 0.47535 0.23315 0.0
C728 C 0.41009 0.48401 0.24819 0.0
C729 C 0.42077 0.50742 0.23734 0.0
C730 C 0.44814 0.51605 0.25307 0.0
C731 C 0.46492 0.5016 0.28011 0.0
C732 C 0.45458 0.47823 0.29091 0.0
C733 C 0.42732 0.46939 0.275 0.0
H734 H 0.48587 0.50848 0.29289 0.0
H735 H 0.22018 0.41692 0.15419 0.0
H736 H 0.17453 0.91752 0.93021 0.0
H737 H 0.14608 0.92679 0.8703 0.0
H738 H 0.21718 0.97205 0.84059 0.0
H739 H 0.24594 0.96227 0.90038 0.0
H740 H 0.16066 0.9953 0.82511 0.0
H741 H 0.20922 0.91704 0.80418 0.0
H742 H 0.22426 0.87272 0.8181 0.0
H743 H 0.13443 0.84946 0.80472 0.0
H744 H 0.11884 0.89377 0.79124 0.0
H745 H 0.12099 0.01178 0.63796 0.0
H746 H 0.14877 0.99512 0.69409 0.0
H747 H 0.07431 0.95079 0.71513 0.0
H748 H 0.0462 0.96754 0.6584 0.0
H749 H 0.13026 0.92616 0.73617 0.0
H750 H 0.0817 0.00443 0.755 0.0
H751 H 0.06677 0.04897 0.74271 0.0
H752 H 0.15642 0.07257 0.76181 0.0
H753 H 0.17194 0.02809 0.77358 0.0
C754 C 0.18397 0.92946 0.9108 0.0
C755 C 0.2123 0.93918 0.91957 0.0
C756 C 0.16781 0.93468 0.87668 0.0
C757 C 0.1796 0.94999 0.85098 0.0
C758 C 0.20774 0.96016 0.86005 0.0
C759 C 0.22414 0.95454 0.89399 0.0
C760 C 0.16258 0.95516 0.81453 0.0
C761 C 0.15432 0.98025 0.80547 0.0
C762 C 0.15361 0.9354 0.78942 0.0
C763 C 0.16286 0.90872 0.79703 0.0
C764 C 0.19267 0.9025 0.80447 0.0
C765 C 0.20129 0.87738 0.81224 0.0
C766 C 0.18031 0.85829 0.81237 0.0
C767 C 0.15065 0.86428 0.80464 0.0
C768 C 0.14191 0.88938 0.7969 0.0
C769 C 0.11085 0.99774 0.65381 0.0
C770 C 0.08148 0.99085 0.64378 0.0
C771 C 0.12667 0.98842 0.68605 0.0
C772 C 0.11342 0.97214 0.70914 0.0
C773 C 0.08489 0.96342 0.69769 0.0
C774 C 0.06895 0.97277 0.66514 0.0
C775 C 0.12864 0.96638 0.74649 0.0
C776 C 0.13651 0.94121 0.75582 0.0
C777 C 0.13723 0.9861 0.77197 0.0
C778 C 0.128 0.01287 0.76474 0.0
C779 C 0.09826 0.01908 0.75619 0.0
C780 C 0.08969 0.04432 0.74939 0.0
C781 C 0.11064 0.06358 0.75137 0.0
C782 C 0.14022 0.05763 0.76022 0.0
C783 C 0.14891 0.0324 0.76696 0.0
H784 H 0.10396 0.08312 0.74614 0.0
H785 H 0.18703 0.83885 0.81839 0.0
loop_
_geom_bond_atom_site_label_1
_geom_bond_atom_site_label_2
_geom_bond_distance
_geom_bond_site_symmetry_2
_ccdc_geom_bond_type
C0 C1 1.384 . S
C0 H13 0.947 . S
C0 C35 1.382 . S
C1 C0 1.384 . S
C1 C2 1.378 . S
C2 C1 1.378 . S
C2 C3 1.378 . S
C2 H14 0.952 . S
C3 C2 1.378 . S
C3 H15 0.950 . S
C3 C34 1.383 . S
H4 C23 0.947 . S
H5 C24 0.946 . S
H6 C26 0.953 . S
H7 C27 0.945 . S
H8 C29 0.952 . S
H9 C30 0.949 . S
H10 C32 0.950 . S
H11 C33 0.948 . S
H12 C35 0.951 . S
H13 C0 0.947 . S
H14 C2 0.952 . S
H15 C3 0.950 . S
N16 C19 1.382 . S
N16 C21 1.363 . S
N17 C19 1.371 . S
N17 C20 1.372 . S
N18 C20 1.361 . S
N18 C21 1.377 . S
C19 N16 1.382 . S
C19 N17 1.371 . S
C19 C22 1.480 . S
C20 N17 1.372 . S
C20 N18 1.361 . S
C20 C28 1.457 . S
C21 N16 1.363 . S
C21 N18 1.377 . S
C21 C34 1.479 . S
C22 C19 1.480 . S
C22 C23 1.383 . S
C22 C27 1.385 . S
C23 H4 0.947 . S
C23 C22 1.383 . S
C23 C24 1.388 . S
C24 H5 0.946 . S
C24 C23 1.388 . S
C24 C25 1.384 . S
C25 C24 1.384 . S
C25 C26 1.377 . S
C26 H6 0.953 . S
C26 C25 1.377 . S
C26 C27 1.369 . S
C27 H7 0.945 . S
C27 C22 1.385 . S
C27 C26 1.369 . S
C28 C20 1.457 . S
C28 C29 1.372 1_554 S
C28 C33 1.364 . S
C29 H8 0.952 . S
C29 C28 1.372 1_556 S
C29 C30 1.389 . S
C30 H9 0.949 . S
C30 C29 1.389 . S
C30 C31 1.387 . S
C31 C30 1.387 . S
C31 C32 1.372 . S
C32 H10 0.950 . S
C32 C31 1.372 . S
C32 C33 1.379 1_556 S
C33 H11 0.948 . S
C33 C28 1.364 . S
C33 C32 1.379 1_554 S
C34 C3 1.383 . S
C34 C21 1.479 . S
C34 C35 1.398 . S
C35 C0 1.382 . S
C35 H12 0.951 . S
C35 C34 1.398 . S
C36 C37 1.384 . S
C36 H49 0.947 . S
C36 C71 1.382 . S
C37 C36 1.384 . S
C37 C38 1.378 . S
C38 C37 1.378 . S
C38 C39 1.378 . S
C38 H50 0.952 . S
C39 C38 1.378 . S
C39 H51 0.950 . S
C39 C70 1.383 . S
H40 C59 0.947 . S
H41 C60 0.946 . S
H42 C62 0.953 . S
H43 C63 0.945 . S
H44 C65 0.952 . S
H45 C66 0.949 . S
H46 C68 0.950 . S
H47 C69 0.948 . S
H48 C71 0.951 . S
H49 C36 0.947 . S
H50 C38 0.952 . S
H51 C39 0.950 . S
N52 C55 1.382 . S
N52 C57 1.363 . S
N53 C55 1.371 . S
N53 C56 1.372 . S
N54 C56 1.361 . S
N54 C57 1.377 . S
C55 N52 1.382 . S
C55 N53 1.371 . S
C55 C58 1.480 . S
C56 N53 1.372 . S
C56 N54 1.361 . S
C56 C64 1.457 . S
C57 N52 1.363 . S
C57 N54 1.377 . S
C57 C70 1.479 . S
C58 C55 1.480 . S
C58 C59 1.383 . S
C58 C63 1.385 . S
C59 H40 0.947 . S
C59 C58 1.383 . S
C59 C60 1.388 . S
C60 H41 0.946 . S
C60 C59 1.388 . S
C60 C61 1.384 . S
C61 C60 1.384 . S
C61 C62 1.377 . S
C62 H42 0.953 . S
C62 C61 1.377 . S
C62 C63 1.369 . S
C63 H43 0.945 . S
C63 C58 1.385 . S
C63 C62 1.369 . S
C64 C56 1.457 . S
C64 C65 1.372 . S
C64 C69 1.364 . S
C65 H44 0.952 . S
C65 C64 1.372 . S
C65 C66 1.389 . S
C66 H45 0.949 . S
C66 C65 1.389 . S
C66 C67 1.387 . S
C67 C66 1.387 . S
C67 C68 1.372 . S
C68 H46 0.950 . S
C68 C67 1.372 . S
C68 C69 1.379 . S
C69 H47 0.948 . S
C69 C64 1.364 . S
C69 C68 1.379 . S
C70 C39 1.383 . S
C70 C57 1.479 . S
C70 C71 1.398 . S
C71 C36 1.382 . S
C71 H48 0.951 . S
C71 C70 1.398 . S
C72 C73 1.384 . S
C72 H85 0.947 . S
C72 C107 1.382 . S
C73 C72 1.384 . S
C73 C74 1.378 . S
C74 C73 1.378 . S
C74 C75 1.378 . S
C74 H86 0.952 . S
C75 C74 1.378 . S
C75 H87 0.950 . S
C75 C106 1.383 . S
H76 C95 0.947 . S
H77 C96 0.946 . S
H78 C98 0.953 . S
H79 C99 0.945 . S
H80 C101 0.952 . S
H81 C102 0.949 . S
H82 C104 0.950 . S
H83 C105 0.948 . S
H84 C107 0.951 . S
H85 C72 0.947 . S
H86 C74 0.952 . S
H87 C75 0.950 . S
N88 C91 1.382 1_556 S
N88 C93 1.363 . S
N89 C91 1.371 . S
N89 C92 1.372 . S
N90 C92 1.361 . S
N90 C93 1.377 1_554 S
C91 N88 1.382 1_554 S
C91 N89 1.371 . S
C91 C94 1.480 . S
C92 N89 1.372 . S
C92 N90 1.361 . S
C92 C100 1.457 . S
C93 N88 1.363 . S
C93 N90 1.377 1_556 S
C93 C106 1.479 . S
C94 C91 1.480 . S
C94 C95 1.383 1_554 S
C94 C99 1.385 . S
C95 H76 0.947 . S
C95 C94 1.383 1_556 S
C95 C96 1.388 . S
C96 H77 0.946 . S
C96 C95 1.388 . S
C96 C97 1.384 . S
C97 C96 1.384 . S
C97 C98 1.377 1_556 S
C98 H78 0.953 . S
C98 C97 1.377 1_554 S
C98 C99 1.369 . S
C99 H79 0.945 . S
C99 C94 1.385 . S
C99 C98 1.369 . S
C100 C92 1.457 . S
C100 C101 1.372 . S
C100 C105 1.364 . S
C101 H80 0.952 . S
C101 C100 1.372 . S
C101 C102 1.389 . S
C102 H81 0.949 . S
C102 C101 1.389 . S
C102 C103 1.387 . S
C103 C102 1.387 . S
C103 C104 1.372 . S
C104 H82 0.950 . S
C104 C103 1.372 . S
C104 C105 1.379 . S
C105 H83 0.948 . S
C105 C100 1.364 . S
C105 C104 1.379 . S
C106 C75 1.383 . S
C106 C93 1.479 . S
C106 C107 1.398 . S
C107 C72 1.382 . S
C107 H84 0.951 . S
C107 C106 1.398 . S
C108 C109 1.384 . S
C108 H121 0.947 . S
C108 C143 1.382 . S
C109 C108 1.384 . S
C109 C110 1.378 . S
C110 C109 1.378 . S
C110 C111 1.378 . S
C110 H122 0.952 . S
C111 C110 1.378 . S
C111 H123 0.950 . S
C111 C142 1.383 . S
H112 C131 0.947 . S
H113 C132 0.946 . S
H114 C134 0.953 . S
H115 C135 0.945 . S
H116 C137 0.952 . S
H117 C138 0.949 . S
H118 C140 0.950 . S
H119 C141 0.948 . S
H120 C143 0.951 . S
H121 C108 0.947 . S
H122 C110 0.952 . S
H123 C111 0.950 . S
N124 C127 1.382 . S
N124 C129 1.363 . S
N125 C127 1.371 . S
N125 C128 1.372 . S
N126 C128 1.361 . S
N126 C129 1.377 . S
C127 N124 1.382 . S
C127 N125 1.371 . S
C127 C130 1.480 . S
C128 N125 1.372 . S
C128 N126 1.361 . S
C128 C136 1.457 . S
C129 N124 1.363 . S
C129 N126 1.377 . S
C129 C142 1.479 . S
C130 C127 1.480 . S
C130 C131 1.383 . S
C130 C135 1.385 . S
C131 H112 0.947 . S
C131 C130 1.383 . S
C131 C132 1.388 . S
C132 H113 0.946 . S
C132 C131 1.388 . S
C132 C133 1.384 . S
C133 C132 1.384 . S
C133 C134 1.377 . S
C134 H114 0.953 . S
C134 C133 1.377 . S
C134 C135 1.369 . S
C135 H115 0.945 . S
C135 C130 1.385 . S
C135 C134 1.369 . S
C136 C128 1.457 . S
C136 C137 1.372 . S
C136 C141 1.364 . S
C137 H116 0.952 . S
C137 C136 1.372 . S
C137 C138 1.389 . S
C138 H117 0.949 . S
C138 C137 1.389 . S
C138 C139 1.387 . S
C139 C138 1.387 . S
C139 C140 1.372 . S
C140 H118 0.950 . S
C140 C139 1.372 . S
C140 C141 1.379 . S
C141 H119 0.948 . S
C141 C136 1.364 . S
C141 C140 1.379 . S
C142 C111 1.383 . S
C142 C129 1.479 . S
C142 C143 1.398 . S
C143 C108 1.382 . S
C143 H120 0.951 . S
C143 C142 1.398 . S
O144 Mn145 2.163 1_655 S
O144 C158 1.244 . S
Mn145 O144 2.163 1_455 S
Mn145 O148 2.160 1_545 S
Mn145 O149 2.221 . S
Mn145 O151 2.163 1_455 S
Mn145 O153 2.165 . S
Mn145 O163 2.221 1_445 S
O146 Mn147 2.087 1_545 S
O146 C158 1.256 . S
Mn147 O146 2.087 1_565 S
Mn147 O154 2.089 1_655 S
Mn147 O163 2.290 . S
Mn147 O164 2.251 . S
O148 Mn145 2.160 1_565 S
O148 C159 1.239 . S
O149 Mn145 2.221 . S
O149 Mn150 2.290 . S
O149 C160 1.278 . S
Mn150 O149 2.290 . S
Mn150 O152 2.089 . S
Mn150 O155 2.251 . S
Mn150 O156 2.087 1_455 S
O151 Mn145 2.163 1_655 S
O151 C161 1.244 . S
O152 Mn150 2.089 . S
O152 C159 1.257 1_545 S
O153 Mn145 2.165 . S
O153 C162 1.233 1_545 S
O154 Mn147 2.089 1_455 S
O154 C162 1.256 . S
O155 Mn150 2.251 . S
O155 C160 1.241 . S
O156 Mn150 2.087 1_655 S
O156 C161 1.256 . S
C157 O163 1.278 . S
C157 O164 1.241 . S
C158 O144 1.244 . S
C158 O146 1.256 . S
C159 O148 1.239 . S
C159 O152 1.257 1_565 S
C160 O149 1.278 . S
C160 O155 1.241 . S
C161 O151 1.244 . S
C161 O156 1.256 . S
C162 O153 1.233 1_565 S
C162 O154 1.256 . S
O163 Mn145 2.221 1_665 S
O163 Mn147 2.290 . S
O163 C157 1.278 . S
O164 Mn147 2.251 . S
O164 C157 1.241 . S
O165 Mn166 2.163 . S
O165 C179 1.244 . S
Mn166 O165 2.163 . S
Mn166 O169 2.160 1_554 S
Mn166 O170 2.221 . S
Mn166 O172 2.163 . S
Mn166 O174 2.160 . S
Mn166 O184 2.221 . S
O167 Mn168 2.087 . S
O167 C179 1.256 . S
Mn168 O167 2.087 . S
Mn168 O175 2.089 . S
Mn168 O184 2.290 . S
Mn168 O185 2.251 . S
O169 Mn166 2.160 1_556 S
O169 C180 1.239 . S
O170 Mn166 2.221 . S
O170 Mn171 2.290 1_554 S
O170 C181 1.278 . S
Mn171 O170 2.290 1_556 S
Mn171 O173 2.089 . S
Mn171 O176 2.251 1_556 S
Mn171 O177 2.087 . S
O172 Mn166 2.163 . S
O172 C182 1.244 1_554 S
O173 Mn171 2.089 . S
O173 C180 1.256 . S
O174 Mn166 2.160 . S
O174 C183 1.239 . S
O175 Mn168 2.089 . S
O175 C183 1.256 . S
O176 Mn171 2.251 1_554 S
O176 C181 1.241 . S
O177 Mn171 2.087 . S
O177 C182 1.256 . S
C178 O184 1.278 . S
C178 O185 1.241 . S
C179 O165 1.244 . S
C179 O167 1.256 . S
C180 O169 1.239 . S
C180 O173 1.256 . S
C181 O170 1.278 . S
C181 O176 1.241 . S
C182 O172 1.244 1_556 S
C182 O177 1.256 . S
C183 O174 1.239 . S
C183 O175 1.256 . S
O184 Mn166 2.221 . S
O184 Mn168 2.290 . S
O184 C178 1.278 . S
O185 Mn168 2.251 . S
O185 C178 1.241 . S
H186 C204 0.951 . S
H187 C206 0.951 . S
H188 C208 0.950 . S
H189 C209 0.950 . S
H190 C211 0.950 . S
H191 C214 0.950 . S
H192 C215 0.950 . S
H193 C217 0.950 . S
H194 C218 0.950 . S
H195 C219 0.951 . S
H196 C221 0.951 . S
H197 C223 0.950 . S
H198 C224 0.950 . S
H199 C226 0.950 . S
H200 C229 0.950 . S
H201 C230 0.950 . S
H202 C232 0.950 . S
H203 C233 0.950 . S
C204 H186 0.951 . S
C204 C205 1.366 . S
C204 C206 1.388 . S
C205 C204 1.366 . S
C205 C209 1.385 . S
C206 H187 0.951 . S
C206 C204 1.388 . S
C206 C207 1.366 . S
C207 C206 1.366 . S
C207 C208 1.414 . S
C207 C210 1.499 . S
C208 H188 0.950 . S
C208 C207 1.414 . S
C208 C209 1.374 . S
C209 H189 0.950 . S
C209 C205 1.385 . S
C209 C208 1.374 . S
C210 C207 1.499 . S
C210 C211 1.373 . S
C210 C212 1.389 . S
C211 H190 0.950 . S
C211 C210 1.373 . S
C211 C227 1.377 . S
C212 C210 1.389 . S
C212 C213 1.524 . S
C212 C226 1.377 . S
C213 C212 1.524 . S
C213 C214 1.397 . S
C213 C218 1.363 . S
C214 H191 0.950 . S
C214 C213 1.397 . S
C214 C215 1.334 . S
C215 H192 0.950 . S
C215 C214 1.334 . S
C215 C216 1.287 . S
C216 C215 1.287 . S
C216 C217 1.524 . S
C216 H235 0.913 . S
C217 H193 0.950 . S
C217 C216 1.524 . S
C217 C218 1.415 . S
C218 H194 0.950 . S
C218 C213 1.363 . S
C218 C217 1.415 . S
C219 H195 0.951 . S
C219 C220 1.366 . S
C219 C221 1.388 . S
C220 C219 1.366 . S
C220 C224 1.385 . S
C221 H196 0.951 . S
C221 C219 1.388 . S
C221 C222 1.366 . S
C222 C221 1.366 . S
C222 C223 1.414 . S
C222 C225 1.499 . S
C223 H197 0.950 . S
C223 C222 1.414 . S
C223 C224 1.374 . S
C224 H198 0.950 . S
C224 C220 1.385 . S
C224 C223 1.374 . S
C225 C222 1.499 . S
C225 C226 1.373 . S
C225 C227 1.389 . S
C226 H199 0.950 . S
C226 C212 1.377 . S
C226 C225 1.373 . S
C227 C211 1.377 . S
C227 C225 1.389 . S
C227 C228 1.524 . S
C228 C227 1.524 . S
C228 C229 1.397 . S
C228 C233 1.363 . S
C229 H200 0.950 . S
C229 C228 1.397 . S
C229 C230 1.334 . S
C230 H201 0.950 . S
C230 C229 1.334 . S
C230 C231 1.287 . S
C231 C230 1.287 . S
C231 C232 1.524 . S
C231 H234 0.999 . S
C232 H202 0.950 . S
C232 C231 1.524 . S
C232 C233 1.415 . S
C233 H203 0.950 . S
C233 C228 1.363 . S
C233 C232 1.415 . S
H234 C231 0.999 . S
H235 C216 0.913 . S
H236 C254 0.951 . S
H237 C256 0.951 . S
H238 C258 0.950 . S
H239 C259 0.950 . S
H240 C261 0.950 . S
H241 C264 0.950 . S
H242 C265 0.950 . S
H243 C267 0.950 . S
H244 C268 0.950 . S
H245 C269 0.951 . S
H246 C271 0.951 . S
H247 C273 0.950 . S
H248 C274 0.950 . S
H249 C276 0.950 . S
H250 C279 0.949 1_556 S
H251 C280 0.950 . S
H252 C282 0.950 . S
H253 C283 0.950 . S
C254 H236 0.951 . S
C254 C255 1.366 . S
C254 C256 1.388 . S
C255 C254 1.366 . S
C255 C259 1.385 . S
C256 H237 0.951 . S
C256 C254 1.388 . S
C256 C257 1.366 . S
C257 C256 1.366 . S
C257 C258 1.414 . S
C257 C260 1.499 . S
C258 H238 0.950 . S
C258 C257 1.414 . S
C258 C259 1.374 . S
C259 H239 0.950 . S
C259 C255 1.385 . S
C259 C258 1.374 . S
C260 C257 1.499 . S
C260 C261 1.373 . S
C260 C262 1.389 . S
C261 H240 0.950 . S
C261 C260 1.373 . S
C261 C277 1.377 . S
C262 C260 1.389 . S
C262 C263 1.524 . S
C262 C276 1.377 . S
C263 C262 1.524 . S
C263 C264 1.397 . S
C263 C268 1.363 . S
C264 H241 0.950 . S
C264 C263 1.397 . S
C264 C265 1.334 . S
C265 H242 0.950 . S
C265 C264 1.334 . S
C265 C266 1.287 . S
C266 C265 1.287 . S
C266 C267 1.524 . S
C266 H285 0.913 . S
C267 H243 0.950 . S
C267 C266 1.524 . S
C267 C268 1.415 . S
C268 H244 0.950 . S
C268 C263 1.363 . S
C268 C267 1.415 . S
C269 H245 0.951 . S
C269 C270 1.366 . S
C269 C271 1.388 . S
C270 C269 1.366 . S
C270 C274 1.385 . S
C271 H246 0.951 . S
C271 C269 1.388 . S
C271 C272 1.366 . S
C272 C271 1.366 . S
C272 C273 1.414 . S
C272 C275 1.499 . S
C273 H247 0.950 . S
C273 C272 1.414 . S
C273 C274 1.374 . S
C274 H248 0.950 . S
C274 C270 1.385 . S
C274 C273 1.374 . S
C275 C272 1.499 . S
C275 C276 1.373 . S
C275 C277 1.389 . S
C276 H249 0.950 . S
C276 C262 1.377 . S
C276 C275 1.373 . S
C277 C261 1.377 . S
C277 C275 1.389 . S
C277 C278 1.524 . S
C278 C277 1.524 . S
C278 C279 1.404 . S
C278 C283 1.363 . S
C279 H250 0.949 1_554 S
C279 C278 1.404 . S
C279 C280 1.328 1_554 S
C280 H251 0.950 . S
C280 C279 1.328 1_556 S
C280 C281 1.287 . S
C281 C280 1.287 . S
C281 C282 1.524 1_556 S
C281 H284 0.999 . S
C282 H252 0.950 . S
C282 C281 1.524 1_554 S
C282 C283 1.415 . S
C283 H253 0.950 . S
C283 C278 1.363 . S
C283 C282 1.415 . S
H284 C281 0.999 . S
H285 C266 0.913 . S
H286 C304 0.951 . S
H287 C306 0.951 . S
H288 C308 0.950 . S
H289 C309 0.950 . S
H290 C311 0.950 . S
H291 C314 0.950 . S
H292 C315 0.950 . S
H293 C317 0.950 1_455 S
H294 C318 0.950 . S
H295 C319 0.951 . S
H296 C321 0.951 . S
H297 C323 0.950 . S
H298 C324 0.950 . S
H299 C326 0.950 . S
H300 C329 0.950 . S
H301 C330 0.950 . S
H302 C332 0.950 . S
H303 C333 0.950 . S
C304 H286 0.951 . S
C304 C305 1.366 . S
C304 C306 1.388 . S
C305 C304 1.366 . S
C305 C309 1.385 . S
C306 H287 0.951 . S
C306 C304 1.388 . S
C306 C307 1.366 . S
C307 C306 1.366 . S
C307 C308 1.414 . S
C307 C310 1.499 . S
C308 H288 0.950 . S
C308 C307 1.414 . S
C308 C309 1.374 . S
C309 H289 0.950 . S
C309 C305 1.385 . S
C309 C308 1.374 . S
C310 C307 1.499 . S
C310 C311 1.373 . S
C310 C312 1.389 . S
C311 H290 0.950 . S
C311 C310 1.373 . S
C311 C327 1.377 . S
C312 C310 1.389 . S
C312 C313 1.524 . S
C312 C326 1.377 . S
C313 C312 1.524 . S
C313 C314 1.397 . S
C313 C318 1.363 . S
C314 H291 0.950 . S
C314 C313 1.397 . S
C314 C315 1.334 . S
C315 H292 0.950 . S
C315 C314 1.334 . S
C315 C316 1.287 . S
C316 C315 1.287 . S
C316 C317 1.524 . S
C316 H335 0.913 . S
C317 H293 0.950 1_655 S
C317 C316 1.524 . S
C317 C318 1.415 . S
C318 H294 0.950 . S
C318 C313 1.363 . S
C318 C317 1.415 . S
C319 H295 0.951 . S
C319 C320 1.366 . S
C319 C321 1.388 . S
C320 C319 1.366 . S
C320 C324 1.385 . S
C321 H296 0.951 . S
C321 C319 1.388 . S
C321 C322 1.366 . S
C322 C321 1.366 . S
C322 C323 1.414 . S
C322 C325 1.499 . S
C323 H297 0.950 . S
C323 C322 1.414 . S
C323 C324 1.374 . S
C324 H298 0.950 . S
C324 C320 1.385 . S
C324 C323 1.374 . S
C325 C322 1.499 . S
C325 C326 1.373 . S
C325 C327 1.389 . S
C326 H299 0.950 . S
C326 C312 1.377 . S
C326 C325 1.373 . S
C327 C311 1.377 . S
C327 C325 1.389 . S
C327 C328 1.524 . S
C328 C327 1.524 . S
C328 C329 1.397 . S
C328 C333 1.363 . S
C329 H300 0.950 . S
C329 C328 1.397 . S
C329 C330 1.334 . S
C330 H301 0.950 . S
C330 C329 1.334 . S
C330 C331 1.287 . S
C331 C330 1.287 . S
C331 C332 1.524 . S
C331 H334 0.999 . S
C332 H302 0.950 . S
C332 C331 1.524 . S
C332 C333 1.415 . S
C333 H303 0.950 . S
C333 C328 1.363 . S
C333 C332 1.415 . S
H334 C331 0.999 . S
H335 C316 0.913 . S
H336 C354 0.951 . S
H337 C356 0.951 . S
H338 C358 0.950 . S
H339 C359 0.950 . S
H340 C361 0.950 . S
H341 C364 0.950 . S
H342 C365 0.950 . S
H343 C367 0.950 . S
H344 C368 0.950 . S
H345 C369 0.951 . S
H346 C371 0.951 . S
H347 C373 0.950 . S
H348 C374 0.950 . S
H349 C376 0.950 . S
H350 C379 0.950 . S
H351 C380 0.950 . S
H352 C382 0.950 . S
H353 C383 0.950 . S
C354 H336 0.951 . S
C354 C355 1.366 . S
C354 C356 1.388 . S
C355 C354 1.366 . S
C355 C359 1.385 1_556 S
C356 H337 0.951 . S
C356 C354 1.388 . S
C356 C357 1.366 1_556 S
C357 C356 1.366 1_554 S
C357 C358 1.414 . S
C357 C360 1.499 . S
C358 H338 0.950 . S
C358 C357 1.414 . S
C358 C359 1.374 . S
C359 H339 0.950 . S
C359 C355 1.385 1_554 S
C359 C358 1.374 . S
C360 C357 1.499 . S
C360 C361 1.373 1_554 S
C360 C362 1.389 . S
C361 H340 0.950 . S
C361 C360 1.373 1_556 S
C361 C377 1.377 . S
C362 C360 1.389 . S
C362 C363 1.524 . S
C362 C376 1.377 . S
C363 C362 1.524 . S
C363 C364 1.397 . S
C363 C368 1.363 . S
C364 H341 0.950 . S
C364 C363 1.397 . S
C364 C365 1.334 . S
C365 H342 0.950 . S
C365 C364 1.334 . S
C365 C366 1.287 . S
C366 C365 1.287 . S
C366 C367 1.524 . S
C366 H385 0.913 . S
C367 H343 0.950 . S
C367 C366 1.524 . S
C367 C368 1.415 . S
C368 H344 0.950 . S
C368 C363 1.363 . S
C368 C367 1.415 . S
C369 H345 0.951 . S
C369 C370 1.366 . S
C369 C371 1.388 . S
C370 C369 1.366 . S
C370 C374 1.385 . S
C371 H346 0.951 . S
C371 C369 1.388 . S
C371 C372 1.366 . S
C372 C371 1.366 . S
C372 C373 1.414 . S
C372 C375 1.499 . S
C373 H347 0.950 . S
C373 C372 1.414 . S
C373 C374 1.374 . S
C374 H348 0.950 . S
C374 C370 1.385 . S
C374 C373 1.374 . S
C375 C372 1.499 . S
C375 C376 1.373 . S
C375 C377 1.389 1_554 S
C376 H349 0.950 . S
C376 C362 1.377 . S
C376 C375 1.373 . S
C377 C361 1.377 . S
C377 C375 1.389 1_556 S
C377 C378 1.524 . S
C378 C377 1.524 . S
C378 C379 1.397 . S
C378 C383 1.363 . S
C379 H350 0.950 . S
C379 C378 1.397 . S
C379 C380 1.334 . S
C380 H351 0.950 . S
C380 C379 1.334 . S
C380 C381 1.287 . S
C381 C380 1.287 . S
C381 C382 1.524 . S
C381 H384 0.999 . S
C382 H352 0.950 . S
C382 C381 1.524 . S
C382 C383 1.415 . S
C383 H353 0.950 . S
C383 C378 1.363 . S
C383 C382 1.415 . S
H384 C381 0.999 . S
H385 C366 0.913 . S
H386 C404 0.951 . S
H387 C406 0.951 . S
H388 C408 0.950 . S
H389 C409 0.950 . S
H390 C411 0.950 . S
H391 C414 0.950 1_545 S
H392 C415 0.950 . S
H393 C417 0.950 . S
H394 C418 0.950 . S
H395 C419 0.951 1_545 S
H396 C421 0.951 . S
H397 C423 0.950 . S
H398 C424 0.950 . S
H399 C426 0.950 . S
H400 C429 0.950 . S
H401 C430 0.950 . S
H402 C432 0.950 . S
H403 C433 0.950 . S
C404 H386 0.951 . S
C404 C405 1.366 . S
C404 C406 1.388 . S
C405 C404 1.366 . S
C405 C409 1.385 . S
C406 H387 0.951 . S
C406 C404 1.388 . S
C406 C407 1.366 . S
C407 C406 1.366 . S
C407 C408 1.414 . S
C407 C410 1.499 . S
C408 H388 0.950 . S
C408 C407 1.414 . S
C408 C409 1.374 . S
C409 H389 0.950 . S
C409 C405 1.385 . S
C409 C408 1.374 . S
C410 C407 1.499 . S
C410 C411 1.373 . S
C410 C412 1.389 . S
C411 H390 0.950 . S
C411 C410 1.373 . S
C411 C427 1.377 . S
C412 C410 1.389 . S
C412 C413 1.524 . S
C412 C426 1.377 . S
C413 C412 1.524 . S
C413 C414 1.397 . S
C413 C418 1.363 . S
C414 H391 0.950 1_565 S
C414 C413 1.397 . S
C414 C415 1.334 1_565 S
C415 H392 0.950 . S
C415 C414 1.334 1_545 S
C415 C416 1.287 . S
C416 C415 1.287 . S
C416 C417 1.524 1_545 S
C416 H435 0.913 . S
C417 H393 0.950 . S
C417 C416 1.524 1_565 S
C417 C418 1.415 . S
C418 H394 0.950 . S
C418 C413 1.363 . S
C418 C417 1.415 . S
C419 H395 0.951 1_565 S
C419 C420 1.366 . S
C419 C421 1.388 . S
C420 C419 1.366 . S
C420 C424 1.385 . S
C421 H396 0.951 . S
C421 C419 1.388 . S
C421 C422 1.366 . S
C422 C421 1.366 . S
C422 C423 1.414 . S
C422 C425 1.499 . S
C423 H397 0.950 . S
C423 C422 1.414 . S
C423 C424 1.374 . S
C424 H398 0.950 . S
C424 C420 1.385 . S
C424 C423 1.374 . S
C425 C422 1.499 . S
C425 C426 1.373 . S
C425 C427 1.389 . S
C426 H399 0.950 . S
C426 C412 1.377 . S
C426 C425 1.373 . S
C427 C411 1.377 . S
C427 C425 1.389 . S
C427 C428 1.524 . S
C428 C427 1.524 . S
C428 C429 1.397 . S
C428 C433 1.363 . S
C429 H400 0.950 . S
C429 C428 1.397 . S
C429 C430 1.334 . S
C430 H401 0.950 . S
C430 C429 1.334 . S
C430 C431 1.287 . S
C431 C430 1.287 . S
C431 C432 1.524 . S
C431 H434 0.999 . S
C432 H402 0.950 . S
C432 C431 1.524 . S
C432 C433 1.415 . S
C433 H403 0.950 . S
C433 C428 1.363 . S
C433 C432 1.415 . S
H434 C431 0.999 . S
H435 C416 0.913 . S
H436 C454 0.951 . S
H437 C456 0.951 . S
H438 C458 0.950 . S
H439 C459 0.950 . S
H440 C461 0.950 . S
H441 C464 0.950 . S
H442 C465 0.950 . S
H443 C467 0.950 . S
H444 C468 0.950 . S
H445 C469 0.951 . S
H446 C471 0.951 . S
H447 C473 0.950 . S
H448 C474 0.950 . S
H449 C476 0.950 . S
H450 C479 0.950 . S
H451 C480 0.950 . S
H452 C482 0.950 . S
H453 C483 0.950 . S
C454 H436 0.951 . S
C454 C455 1.366 . S
C454 C456 1.388 . S
C455 C454 1.366 . S
C455 C459 1.385 . S
C456 H437 0.951 . S
C456 C454 1.388 . S
C456 C457 1.366 . S
C457 C456 1.366 . S
C457 C458 1.414 . S
C457 C460 1.499 . S
C458 H438 0.950 . S
C458 C457 1.414 . S
C458 C459 1.374 . S
C459 H439 0.950 . S
C459 C455 1.385 . S
C459 C458 1.374 . S
C460 C457 1.499 . S
C460 C461 1.373 . S
C460 C462 1.389 . S
C461 H440 0.950 . S
C461 C460 1.373 . S
C461 C477 1.377 . S
C462 C460 1.389 . S
C462 C463 1.524 . S
C462 C476 1.377 . S
C463 C462 1.524 . S
C463 C464 1.397 . S
C463 C468 1.363 . S
C464 H441 0.950 . S
C464 C463 1.397 . S
C464 C465 1.334 . S
C465 H442 0.950 . S
C465 C464 1.334 . S
C465 C466 1.287 . S
C466 C465 1.287 . S
C466 C467 1.524 . S
C466 H485 0.913 . S
C467 H443 0.950 . S
C467 C466 1.524 . S
C467 C468 1.415 . S
C468 H444 0.950 . S
C468 C463 1.363 . S
C468 C467 1.415 . S
C469 H445 0.951 . S
C469 C470 1.366 . S
C469 C471 1.388 . S
C470 C469 1.366 . S
C470 C474 1.385 . S
C471 H446 0.951 . S
C471 C469 1.388 . S
C471 C472 1.366 . S
C472 C471 1.366 . S
C472 C473 1.414 . S
C472 C475 1.499 . S
C473 H447 0.950 . S
C473 C472 1.414 . S
C473 C474 1.374 . S
C474 H448 0.950 . S
C474 C470 1.385 . S
C474 C473 1.374 . S
C475 C472 1.499 . S
C475 C476 1.373 . S
C475 C477 1.389 . S
C476 H449 0.950 . S
C476 C462 1.377 . S
C476 C475 1.373 . S
C477 C461 1.377 . S
C477 C475 1.389 . S
C477 C478 1.524 . S
C478 C477 1.524 . S
C478 C479 1.397 . S
C478 C483 1.363 . S
C479 H450 0.950 . S
C479 C478 1.397 . S
C479 C480 1.334 . S
C480 H451 0.950 . S
C480 C479 1.334 . S
C480 C481 1.287 . S
C481 C480 1.287 . S
C481 C482 1.524 . S
C481 H484 0.999 . S
C482 H452 0.950 . S
C482 C481 1.524 . S
C482 C483 1.415 . S
C483 H453 0.950 . S
C483 C478 1.363 . S
C483 C482 1.415 . S
H484 C481 0.999 . S
H485 C466 0.913 . S
H486 C504 0.951 . S
H487 C506 0.951 . S
H488 C508 0.950 . S
H489 C509 0.950 . S
H490 C511 0.950 . S
H491 C514 0.950 . S
H492 C515 0.950 . S
H493 C517 0.950 1_565 S
H494 C518 0.950 . S
H495 C519 0.951 . S
H496 C521 0.951 . S
H497 C523 0.950 . S
H498 C524 0.950 . S
H499 C526 0.950 . S
H500 C529 0.950 . S
H501 C530 0.950 1_455 S
H502 C532 0.950 . S
H503 C533 0.950 . S
C504 H486 0.951 . S
C504 C505 1.366 . S
C504 C506 1.388 . S
C505 C504 1.366 . S
C505 C509 1.385 . S
C506 H487 0.951 . S
C506 C504 1.388 . S
C506 C507 1.366 . S
C507 C506 1.366 . S
C507 C508 1.414 . S
C507 C510 1.499 . S
C508 H488 0.950 . S
C508 C507 1.414 . S
C508 C509 1.374 . S
C509 H489 0.950 . S
C509 C505 1.385 . S
C509 C508 1.374 . S
C510 C507 1.499 . S
C510 C511 1.373 . S
C510 C512 1.389 . S
C511 H490 0.950 . S
C511 C510 1.373 . S
C511 C527 1.377 . S
C512 C510 1.389 . S
C512 C513 1.524 . S
C512 C526 1.377 . S
C513 C512 1.524 . S
C513 C514 1.397 . S
C513 C518 1.363 . S
C514 H491 0.950 . S
C514 C513 1.397 . S
C514 C515 1.334 . S
C515 H492 0.950 . S
C515 C514 1.334 . S
C515 C516 1.287 . S
C516 C515 1.287 . S
C516 C517 1.524 . S
C516 H535 0.913 . S
C517 H493 0.950 1_545 S
C517 C516 1.524 . S
C517 C518 1.415 . S
C518 H494 0.950 . S
C518 C513 1.363 . S
C518 C517 1.415 . S
C519 H495 0.951 . S
C519 C520 1.366 . S
C519 C521 1.388 . S
C520 C519 1.366 . S
C520 C524 1.385 . S
C521 H496 0.951 . S
C521 C519 1.388 . S
C521 C522 1.366 . S
C522 C521 1.366 . S
C522 C523 1.414 . S
C522 C525 1.499 . S
C523 H497 0.950 . S
C523 C522 1.414 . S
C523 C524 1.374 . S
C524 H498 0.950 . S
C524 C520 1.385 . S
C524 C523 1.374 . S
C525 C522 1.499 . S
C525 C526 1.373 . S
C525 C527 1.389 . S
C526 H499 0.950 . S
C526 C512 1.377 . S
C526 C525 1.373 . S
C527 C511 1.377 . S
C527 C525 1.389 . S
C527 C528 1.524 . S
C528 C527 1.524 . S
C528 C529 1.397 . S
C528 C533 1.363 . S
C529 H500 0.950 . S
C529 C528 1.397 . S
C529 C530 1.334 . S
C530 H501 0.950 1_655 S
C530 C529 1.334 . S
C530 C531 1.287 . S
C531 C530 1.287 . S
C531 C532 1.524 . S
C531 H534 0.999 1_655 S
C532 H502 0.950 . S
C532 C531 1.524 . S
C532 C533 1.415 . S
C533 H503 0.950 . S
C533 C528 1.363 . S
C533 C532 1.415 . S
H534 C531 0.999 1_455 S
H535 C516 0.913 . S
H536 C554 0.951 . S
H537 C556 0.951 . S
H538 C558 0.950 . S
H539 C559 0.950 . S
H540 C561 0.950 . S
H541 C564 0.950 . S
H542 C565 0.950 . S
H543 C567 0.950 . S
H544 C568 0.950 . S
H545 C569 0.951 . S
H546 C571 0.951 . S
H547 C573 0.950 . S
H548 C574 0.950 . S
H549 C576 0.950 . S
H550 C579 0.950 . S
H551 C580 0.950 . S
H552 C582 0.950 . S
H553 C583 0.950 . S
C554 H536 0.951 . S
C554 C555 1.366 . S
C554 C556 1.388 . S
C555 C554 1.366 . S
C555 C559 1.385 . S
C556 H537 0.951 . S
C556 C554 1.388 . S
C556 C557 1.366 . S
C557 C556 1.366 . S
C557 C558 1.414 . S
C557 C560 1.499 . S
C558 H538 0.950 . S
C558 C557 1.414 . S
C558 C559 1.374 . S
C559 H539 0.950 . S
C559 C555 1.385 . S
C559 C558 1.374 . S
C560 C557 1.499 . S
C560 C561 1.373 . S
C560 C562 1.389 . S
C561 H540 0.950 . S
C561 C560 1.373 . S
C561 C577 1.377 . S
C562 C560 1.389 . S
C562 C563 1.524 . S
C562 C576 1.377 . S
C563 C562 1.524 . S
C563 C564 1.397 . S
C563 C568 1.363 . S
C564 H541 0.950 . S
C564 C563 1.397 . S
C564 C565 1.334 . S
C565 H542 0.950 . S
C565 C564 1.334 . S
C565 C566 1.287 . S
C566 C565 1.287 . S
C566 C567 1.524 . S
C566 H585 0.913 . S
C567 H543 0.950 . S
C567 C566 1.524 . S
C567 C568 1.415 . S
C568 H544 0.950 . S
C568 C563 1.363 . S
C568 C567 1.415 . S
C569 H545 0.951 . S
C569 C570 1.366 . S
C569 C571 1.388 . S
C570 C569 1.366 . S
C570 C574 1.385 . S
C571 H546 0.951 . S
C571 C569 1.388 . S
C571 C572 1.366 . S
C572 C571 1.366 . S
C572 C573 1.414 . S
C572 C575 1.499 . S
C573 H547 0.950 . S
C573 C572 1.414 . S
C573 C574 1.374 . S
C574 H548 0.950 . S
C574 C570 1.385 . S
C574 C573 1.374 . S
C575 C572 1.499 . S
C575 C576 1.373 . S
C575 C577 1.389 . S
C576 H549 0.950 . S
C576 C562 1.377 . S
C576 C575 1.373 . S
C577 C561 1.377 . S
C577 C575 1.389 . S
C577 C578 1.524 . S
C578 C577 1.524 . S
C578 C579 1.397 . S
C578 C583 1.363 . S
C579 H550 0.950 . S
C579 C578 1.397 . S
C579 C580 1.334 . S
C580 H551 0.950 . S
C580 C579 1.334 . S
C580 C581 1.287 . S
C581 C580 1.287 . S
C581 C582 1.524 . S
C581 H584 0.999 . S
C582 H552 0.950 . S
C582 C581 1.524 . S
C582 C583 1.415 . S
C583 H553 0.950 . S
C583 C578 1.363 . S
C583 C582 1.415 . S
H584 C581 0.999 . S
H585 C566 0.913 . S
H586 C604 0.951 . S
H587 C606 0.951 . S
H588 C608 0.950 . S
H589 C609 0.950 . S
H590 C611 0.950 . S
H591 C614 0.950 . S
H592 C615 0.950 . S
H593 C617 0.950 . S
H594 C618 0.950 . S
H595 C619 0.951 . S
H596 C621 0.951 . S
H597 C623 0.950 . S
H598 C624 0.950 . S
H599 C626 0.950 . S
H600 C629 0.950 . S
H601 C630 0.950 . S
H602 C632 0.950 . S
H603 C633 0.950 . S
C604 H586 0.951 . S
C604 C605 1.366 . S
C604 C606 1.388 . S
C605 C604 1.366 . S
C605 C609 1.385 . S
C606 H587 0.951 . S
C606 C604 1.388 . S
C606 C607 1.366 . S
C607 C606 1.366 . S
C607 C608 1.414 . S
C607 C610 1.499 . S
C608 H588 0.950 . S
C608 C607 1.414 . S
C608 C609 1.374 . S
C609 H589 0.950 . S
C609 C605 1.385 . S
C609 C608 1.374 . S
C610 C607 1.499 . S
C610 C611 1.373 . S
C610 C612 1.389 . S
C611 H590 0.950 . S
C611 C610 1.373 . S
C611 C627 1.377 . S
C612 C610 1.389 . S
C612 C613 1.524 . S
C612 C626 1.377 . S
C613 C612 1.524 . S
C613 C614 1.397 . S
C613 C618 1.363 . S
C614 H591 0.950 . S
C614 C613 1.397 . S
C614 C615 1.334 . S
C615 H592 0.950 . S
C615 C614 1.334 . S
C615 C616 1.287 . S
C616 C615 1.287 . S
C616 C617 1.524 . S
C616 H635 0.913 . S
C617 H593 0.950 . S
C617 C616 1.524 . S
C617 C618 1.415 . S
C618 H594 0.950 . S
C618 C613 1.363 . S
C618 C617 1.415 . S
C619 H595 0.951 . S
C619 C620 1.366 . S
C619 C621 1.388 . S
C620 C619 1.366 . S
C620 C624 1.385 . S
C621 H596 0.951 . S
C621 C619 1.388 . S
C621 C622 1.366 . S
C622 C621 1.366 . S
C622 C623 1.414 . S
C622 C625 1.499 . S
C623 H597 0.950 . S
C623 C622 1.414 . S
C623 C624 1.374 . S
C624 H598 0.950 . S
C624 C620 1.385 . S
C624 C623 1.374 . S
C625 C622 1.499 . S
C625 C626 1.373 . S
C625 C627 1.389 . S
C626 H599 0.950 . S
C626 C612 1.377 . S
C626 C625 1.373 . S
C627 C611 1.377 . S
C627 C625 1.389 . S
C627 C628 1.524 . S
C628 C627 1.524 . S
C628 C629 1.397 . S
C628 C633 1.363 . S
C629 H600 0.950 . S
C629 C628 1.397 . S
C629 C630 1.334 . S
C630 H601 0.950 . S
C630 C629 1.334 . S
C630 C631 1.287 . S
C631 C630 1.287 . S
C631 C632 1.524 . S
C631 H634 0.999 . S
C632 H602 0.950 . S
C632 C631 1.524 . S
C632 C633 1.415 . S
C633 H603 0.950 . S
C633 C628 1.363 . S
C633 C632 1.415 . S
H634 C631 0.999 . S
H635 C616 0.913 . S
H636 C654 0.951 . S
H637 C656 0.951 . S
H638 C658 0.950 . S
H639 C659 0.950 . S
H640 C661 0.950 . S
H641 C664 0.950 . S
H642 C665 0.950 . S
H643 C667 0.950 . S
H644 C668 0.950 . S
H645 C669 0.951 . S
H646 C671 0.951 . S
H647 C673 0.950 . S
H648 C674 0.950 . S
H649 C676 0.950 . S
H650 C679 0.950 . S
H651 C680 0.950 . S
H652 C682 0.950 . S
H653 C683 0.950 . S
C654 H636 0.951 . S
C654 C655 1.366 . S
C654 C656 1.388 . S
C655 C654 1.366 . S
C655 C659 1.385 . S
C656 H637 0.951 . S
C656 C654 1.388 . S
C656 C657 1.366 . S
C657 C656 1.366 . S
C657 C658 1.414 . S
C657 C660 1.499 . S
C658 H638 0.950 . S
C658 C657 1.414 . S
C658 C659 1.374 . S
C659 H639 0.950 . S
C659 C655 1.385 . S
C659 C658 1.374 . S
C660 C657 1.499 . S
C660 C661 1.373 . S
C660 C662 1.389 . S
C661 H640 0.950 . S
C661 C660 1.373 . S
C661 C677 1.377 . S
C662 C660 1.389 . S
C662 C663 1.524 . S
C662 C676 1.377 . S
C663 C662 1.524 . S
C663 C664 1.397 . S
C663 C668 1.363 . S
C664 H641 0.950 . S
C664 C663 1.397 . S
C664 C665 1.334 . S
C665 H642 0.950 . S
C665 C664 1.334 . S
C665 C666 1.287 . S
C666 C665 1.287 . S
C666 C667 1.524 . S
C666 H685 0.913 . S
C667 H643 0.950 . S
C667 C666 1.524 . S
C667 C668 1.415 . S
C668 H644 0.950 . S
C668 C663 1.363 . S
C668 C667 1.415 . S
C669 H645 0.951 . S
C669 C670 1.366 . S
C669 C671 1.388 . S
C670 C669 1.366 . S
C670 C674 1.385 . S
C671 H646 0.951 . S
C671 C669 1.388 . S
C671 C672 1.366 . S
C672 C671 1.366 . S
C672 C673 1.414 . S
C672 C675 1.499 . S
C673 H647 0.950 . S
C673 C672 1.414 . S
C673 C674 1.374 . S
C674 H648 0.950 . S
C674 C670 1.385 . S
C674 C673 1.374 . S
C675 C672 1.499 . S
C675 C676 1.373 . S
C675 C677 1.389 . S
C676 H649 0.950 . S
C676 C662 1.377 . S
C676 C675 1.373 . S
C677 C661 1.377 . S
C677 C675 1.389 . S
C677 C678 1.524 . S
C678 C677 1.524 . S
C678 C679 1.397 . S
C678 C683 1.363 . S
C679 H650 0.950 . S
C679 C678 1.397 . S
C679 C680 1.334 . S
C680 H651 0.950 . S
C680 C679 1.334 . S
C680 C681 1.287 . S
C681 C680 1.287 . S
C681 C682 1.524 . S
C681 H684 0.999 . S
C682 H652 0.950 . S
C682 C681 1.524 . S
C682 C683 1.415 . S
C683 H653 0.950 . S
C683 C678 1.363 . S
C683 C682 1.415 . S
H684 C681 0.999 . S
H685 C666 0.913 . S
H686 C704 0.951 . S
H687 C706 0.951 . S
H688 C708 0.950 . S
H689 C709 0.950 . S
H690 C711 0.950 . S
H691 C714 0.950 . S
H692 C715 0.950 . S
H693 C717 0.950 . S
H694 C718 0.950 . S
H695 C719 0.951 . S
H696 C721 0.951 . S
H697 C723 0.950 . S
H698 C724 0.950 . S
H699 C726 0.950 . S
H700 C729 0.950 . S
H701 C730 0.950 . S
H702 C732 0.950 . S
H703 C733 0.950 . S
C704 H686 0.951 . S
C704 C705 1.366 . S
C704 C706 1.388 . S
C705 C704 1.366 . S
C705 C709 1.385 . S
C706 H687 0.951 . S
C706 C704 1.388 . S
C706 C707 1.366 . S
C707 C706 1.366 . S
C707 C708 1.414 . S
C707 C710 1.499 . S
C708 H688 0.950 . S
C708 C707 1.414 . S
C708 C709 1.374 . S
C709 H689 0.950 . S
C709 C705 1.385 . S
C709 C708 1.374 . S
C710 C707 1.499 . S
C710 C711 1.373 . S
C710 C712 1.389 . S
C711 H690 0.950 . S
C711 C710 1.373 . S
C711 C727 1.377 . S
C712 C710 1.389 . S
C712 C713 1.524 . S
C712 C726 1.377 . S
C713 C712 1.524 . S
C713 C714 1.397 . S
C713 C718 1.363 . S
C714 H691 0.950 . S
C714 C713 1.397 . S
C714 C715 1.334 . S
C715 H692 0.950 . S
C715 C714 1.334 . S
C715 C716 1.287 . S
C716 C715 1.287 . S
C716 C717 1.524 . S
C716 H735 0.913 . S
C717 H693 0.950 . S
C717 C716 1.524 . S
C717 C718 1.415 . S
C718 H694 0.950 . S
C718 C713 1.363 . S
C718 C717 1.415 . S
C719 H695 0.951 . S
C719 C720 1.366 . S
C719 C721 1.388 . S
C720 C719 1.366 . S
C720 C724 1.385 . S
C721 H696 0.951 . S
C721 C719 1.388 . S
C721 C722 1.366 . S
C722 C721 1.366 . S
C722 C723 1.414 . S
C722 C725 1.499 . S
C723 H697 0.950 . S
C723 C722 1.414 . S
C723 C724 1.374 . S
C724 H698 0.950 . S
C724 C720 1.385 . S
C724 C723 1.374 . S
C725 C722 1.499 . S
C725 C726 1.373 . S
C725 C727 1.389 . S
C726 H699 0.950 . S
C726 C712 1.377 . S
C726 C725 1.373 . S
C727 C711 1.377 . S
C727 C725 1.389 . S
C727 C728 1.524 . S
C728 C727 1.524 . S
C728 C729 1.397 . S
C728 C733 1.363 . S
C729 H700 0.950 . S
C729 C728 1.397 . S
C729 C730 1.334 . S
C730 H701 0.950 . S
C730 C729 1.334 . S
C730 C731 1.287 . S
C731 C730 1.287 . S
C731 C732 1.524 . S
C731 H734 0.999 . S
C732 H702 0.950 . S
C732 C731 1.524 . S
C732 C733 1.415 . S
C733 H703 0.950 . S
C733 C728 1.363 . S
C733 C732 1.415 . S
H734 C731 0.999 . S
H735 C716 0.913 . S
H736 C754 0.951 . S
H737 C756 0.951 . S
H738 C758 0.950 . S
H739 C759 0.950 . S
H740 C761 0.950 . S
H741 C764 0.950 . S
H742 C765 0.950 . S
H743 C767 0.950 . S
H744 C768 0.950 . S
H745 C769 0.951 1_545 S
H746 C771 0.951 1_545 S
H747 C773 0.950 . S
H748 C774 0.950 . S
H749 C776 0.950 . S
H750 C779 0.950 . S
H751 C780 0.950 . S
H752 C782 0.950 . S
H753 C783 0.950 . S
C754 H736 0.951 . S
C754 C755 1.366 . S
C754 C756 1.388 . S
C755 C754 1.366 . S
C755 C759 1.385 . S
C756 H737 0.951 . S
C756 C754 1.388 . S
C756 C757 1.366 . S
C757 C756 1.366 . S
C757 C758 1.414 . S
C757 C760 1.499 . S
C758 H738 0.950 . S
C758 C757 1.414 . S
C758 C759 1.374 . S
C759 H739 0.950 . S
C759 C755 1.385 . S
C759 C758 1.374 . S
C760 C757 1.499 . S
C760 C761 1.373 . S
C760 C762 1.389 . S
C761 H740 0.950 . S
C761 C760 1.373 . S
C761 C777 1.377 . S
C762 C760 1.389 . S
C762 C763 1.524 . S
C762 C776 1.377 . S
C763 C762 1.524 . S
C763 C764 1.397 . S
C763 C768 1.363 . S
C764 H741 0.950 . S
C764 C763 1.397 . S
C764 C765 1.334 . S
C765 H742 0.950 . S
C765 C764 1.334 . S
C765 C766 1.287 . S
C766 C765 1.287 . S
C766 C767 1.524 . S
C766 H785 0.913 . S
C767 H743 0.950 . S
C767 C766 1.524 . S
C767 C768 1.415 . S
C768 H744 0.950 . S
C768 C763 1.363 . S
C768 C767 1.415 . S
C769 H745 0.951 1_565 S
C769 C770 1.366 . S
C769 C771 1.388 . S
C770 C769 1.366 . S
C770 C774 1.385 . S
C771 H746 0.951 1_565 S
C771 C769 1.388 . S
C771 C772 1.366 . S
C772 C771 1.366 . S
C772 C773 1.414 . S
C772 C775 1.499 . S
C773 H747 0.950 . S
C773 C772 1.414 . S
C773 C774 1.374 . S
C774 H748 0.950 . S
C774 C770 1.385 . S
C774 C773 1.374 . S
C775 C772 1.499 . S
C775 C776 1.373 . S
C775 C777 1.389 . S
C776 H749 0.950 . S
C776 C762 1.377 . S
C776 C775 1.373 . S
C777 C761 1.377 . S
C777 C775 1.389 . S
C777 C778 1.524 1_565 S
C778 C777 1.524 1_545 S
C778 C779 1.397 . S
C778 C783 1.363 . S
C779 H750 0.950 . S
C779 C778 1.397 . S
C779 C780 1.334 . S
C780 H751 0.950 . S
C780 C779 1.334 . S
C780 C781 1.287 . S
C781 C780 1.287 . S
C781 C782 1.524 . S
C781 H784 0.999 . S
C782 H752 0.950 . S
C782 C781 1.524 . S
C782 C783 1.415 . S
C783 H753 0.950 . S
C783 C778 1.363 . S
C783 C782 1.415 . S
H784 C781 0.999 . S
H785 C766 0.913 . S
C220 C160 1.311 . S
C205 C133 1.465 . S
C255 C25 1.493 . S
C270 C181 1.311 . S
C305 C61 1.701 . S
C320 C157 1.481 . S
C355 C97 1.661 . S
C370 C178 1.478 . S
C420 C162 1.617 . S
C405 C1 1.641 . S
C470 C182 1.561 . S
C455 C67 1.598 . S
C505 C103 1.546 . S
C520 C158 1.508 . S
C555 C109 1.594 . S
C570 C180 1.552 . S
C620 C179 1.509 . S
C605 C37 1.574 . S
C670 C161 1.559 . S
C655 C73 1.584 . S
C720 C183 1.618 . S
C705 C139 1.599 . S
C755 C31 1.626 . S
C770 C159 1.553 . S
