# Generated by pormake.
# Topology ctn, (3,4)-cn, num edge types: 1
# Building blocks:
#     Node 0, Type 0, BuildingBlock: BETDAH_clean_linker_0, # of connection points: 3
#     Node 1, Type 0, BuildingBlock: BETDAH_clean_linker_0, # of connection points: 3
#     Node 2, Type 0, BuildingBlock: BETDAH_clean_linker_0, # of connection points: 3
#     Node 3, Type 0, BuildingBlock: BETDAH_clean_linker_0, # of connection points: 3
#     Node 4, Type 0, BuildingBlock: BETDAH_clean_linker_0, # of connection points: 3
#     Node 5, Type 0, BuildingBlock: BETDAH_clean_linker_0, # of connection points: 3
#     Node 6, Type 0, BuildingBlock: BETDAH_clean_linker_0, # of connection points: 3
#     Node 7, Type 0, BuildingBlock: BETDAH_clean_linker_0, # of connection points: 3
#     Node 8, Type 0, BuildingBlock: BETDAH_clean_linker_0, # of connection points: 3
#     Node 9, Type 0, BuildingBlock: BETDAH_clean_linker_0, # of connection points: 3
#     Node 10, Type 0, BuildingBlock: BETDAH_clean_linker_0, # of connection points: 3
#     Node 11, Type 0, BuildingBlock: BETDAH_clean_linker_0, # of connection points: 3
#     Node 12, Type 0, BuildingBlock: BETDAH_clean_linker_0, # of connection points: 3
#     Node 13, Type 0, BuildingBlock: BETDAH_clean_linker_0, # of connection points: 3
#     Node 14, Type 0, BuildingBlock: BETDAH_clean_linker_0, # of connection points: 3
#     Node 15, Type 0, BuildingBlock: BETDAH_clean_linker_0, # of connection points: 3
#     Node 16, Type 1, BuildingBlock: AZAVOO_clean_sbu_0, # of connection points: 4
#     Node 17, Type 1, BuildingBlock: AZAVOO_clean_sbu_0, # of connection points: 4
#     Node 18, Type 1, BuildingBlock: AZAVOO_clean_sbu_0, # of connection points: 4
#     Node 19, Type 1, BuildingBlock: AZAVOO_clean_sbu_0, # of connection points: 4
#     Node 20, Type 1, BuildingBlock: AZAVOO_clean_sbu_0, # of connection points: 4
#     Node 21, Type 1, BuildingBlock: AZAVOO_clean_sbu_0, # of connection points: 4
#     Node 22, Type 1, BuildingBlock: AZAVOO_clean_sbu_0, # of connection points: 4
#     Node 23, Type 1, BuildingBlock: AZAVOO_clean_sbu_0, # of connection points: 4
#     Node 24, Type 1, BuildingBlock: AZAVOO_clean_sbu_0, # of connection points: 4
#     Node 25, Type 1, BuildingBlock: AZAVOO_clean_sbu_0, # of connection points: 4
#     Node 26, Type 1, BuildingBlock: AZAVOO_clean_sbu_0, # of connection points: 4
#     Node 27, Type 1, BuildingBlock: AZAVOO_clean_sbu_0, # of connection points: 4
#     Edge 28, Type (0, 1), BuildingBlock: EZIPEK_clean_linker_0, # of connection points: 2
#     Edge 29, Type (0, 1), BuildingBlock: EZIPEK_clean_linker_0, # of connection points: 2
#     Edge 30, Type (0, 1), BuildingBlock: EZIPEK_clean_linker_0, # of connection points: 2
#     Edge 31, Type (0, 1), BuildingBlock: EZIPEK_clean_linker_0, # of connection points: 2
#     Edge 32, Type (0, 1), BuildingBlock: EZIPEK_clean_linker_0, # of connection points: 2
#     Edge 33, Type (0, 1), BuildingBlock: EZIPEK_clean_linker_0, # of connection points: 2
#     Edge 34, Type (0, 1), BuildingBlock: EZIPEK_clean_linker_0, # of connection points: 2
#     Edge 35, Type (0, 1), BuildingBlock: EZIPEK_clean_linker_0, # of connection points: 2
#     Edge 36, Type (0, 1), BuildingBlock: EZIPEK_clean_linker_0, # of connection points: 2
#     Edge 37, Type (0, 1), BuildingBlock: EZIPEK_clean_linker_0, # of connection points: 2
#     Edge 38, Type (0, 1), BuildingBlock: EZIPEK_clean_linker_0, # of connection points: 2
#     Edge 39, Type (0, 1), BuildingBlock: EZIPEK_clean_linker_0, # of connection points: 2
#     Edge 40, Type (0, 1), BuildingBlock: EZIPEK_clean_linker_0, # of connection points: 2
#     Edge 41, Type (0, 1), BuildingBlock: EZIPEK_clean_linker_0, # of connection points: 2
#     Edge 42, Type (0, 1), BuildingBlock: EZIPEK_clean_linker_0, # of connection points: 2
#     Edge 43, Type (0, 1), BuildingBlock: EZIPEK_clean_linker_0, # of connection points: 2
#     Edge 44, Type (0, 1), BuildingBlock: EZIPEK_clean_linker_0, # of connection points: 2
#     Edge 45, Type (0, 1), BuildingBlock: EZIPEK_clean_linker_0, # of connection points: 2
#     Edge 46, Type (0, 1), BuildingBlock: EZIPEK_clean_linker_0, # of connection points: 2
#     Edge 47, Type (0, 1), BuildingBlock: EZIPEK_clean_linker_0, # of connection points: 2
#     Edge 48, Type (0, 1), BuildingBlock: EZIPEK_clean_linker_0, # of connection points: 2
#     Edge 49, Type (0, 1), BuildingBlock: EZIPEK_clean_linker_0, # of connection points: 2
#     Edge 50, Type (0, 1), BuildingBlock: EZIPEK_clean_linker_0, # of connection points: 2
#     Edge 51, Type (0, 1), BuildingBlock: EZIPEK_clean_linker_0, # of connection points: 2
#     Edge 52, Type (0, 1), BuildingBlock: EZIPEK_clean_linker_0, # of connection points: 2
#     Edge 53, Type (0, 1), BuildingBlock: EZIPEK_clean_linker_0, # of connection points: 2
#     Edge 54, Type (0, 1), BuildingBlock: EZIPEK_clean_linker_0, # of connection points: 2
#     Edge 55, Type (0, 1), BuildingBlock: EZIPEK_clean_linker_0, # of connection points: 2
#     Edge 56, Type (0, 1), BuildingBlock: EZIPEK_clean_linker_0, # of connection points: 2
#     Edge 57, Type (0, 1), BuildingBlock: EZIPEK_clean_linker_0, # of connection points: 2
#     Edge 58, Type (0, 1), BuildingBlock: EZIPEK_clean_linker_0, # of connection points: 2
#     Edge 59, Type (0, 1), BuildingBlock: EZIPEK_clean_linker_0, # of connection points: 2
#     Edge 60, Type (0, 1), BuildingBlock: EZIPEK_clean_linker_0, # of connection points: 2
#     Edge 61, Type (0, 1), BuildingBlock: EZIPEK_clean_linker_0, # of connection points: 2
#     Edge 62, Type (0, 1), BuildingBlock: EZIPEK_clean_linker_0, # of connection points: 2
#     Edge 63, Type (0, 1), BuildingBlock: EZIPEK_clean_linker_0, # of connection points: 2
#     Edge 64, Type (0, 1), BuildingBlock: EZIPEK_clean_linker_0, # of connection points: 2
#     Edge 65, Type (0, 1), BuildingBlock: EZIPEK_clean_linker_0, # of connection points: 2
#     Edge 66, Type (0, 1), BuildingBlock: EZIPEK_clean_linker_0, # of connection points: 2
#     Edge 67, Type (0, 1), BuildingBlock: EZIPEK_clean_linker_0, # of connection points: 2
#     Edge 68, Type (0, 1), BuildingBlock: EZIPEK_clean_linker_0, # of connection points: 2
#     Edge 69, Type (0, 1), BuildingBlock: EZIPEK_clean_linker_0, # of connection points: 2
#     Edge 70, Type (0, 1), BuildingBlock: EZIPEK_clean_linker_0, # of connection points: 2
#     Edge 71, Type (0, 1), BuildingBlock: EZIPEK_clean_linker_0, # of connection points: 2
#     Edge 72, Type (0, 1), BuildingBlock: EZIPEK_clean_linker_0, # of connection points: 2
#     Edge 73, Type (0, 1), BuildingBlock: EZIPEK_clean_linker_0, # of connection points: 2
#     Edge 74, Type (0, 1), BuildingBlock: EZIPEK_clean_linker_0, # of connection points: 2
#     Edge 75, Type (0, 1), BuildingBlock: EZIPEK_clean_linker_0, # of connection points: 2
# Relax obj value: 0.054
# Max RMSD: 0.178
# Mean RMSD: 0.102
data_MOF--net-ctn--node1-AZAVOO_clean_sbu_0--node2-BETDAH_clean_linker_0--edge1-EZIPEK_clean_linker_0
_symmetry_space_group_name_H-M    P1
_symmetry_Int_Tables_number       1
_symmetry_cell_setting            triclinic
loop_
_symmetry_equiv_pos_as_xyz
'x, y, z'
_cell_length_a     38.307605
_cell_length_b     39.168111
_cell_length_c     39.550157
_cell_angle_alpha  99.023479
_cell_angle_beta   93.616993
_cell_angle_gamma 98.365762
loop_
_atom_site_label
_atom_site_type_symbol
_atom_site_fract_x
_atom_site_fract_y
_atom_site_fract_z
_atom_type_partial_charge
H0 H 0.06951 0.97444 0.11155 0.0
H1 H 0.06135 0.99043 0.00611 0.0
H2 H 0.99242 0.03392 0.07693 0.0
C3 C 0.05745 0.98576 0.09131 0.0
C4 C 0.03014 0.0055 0.09831 0.0
C5 C 0.06874 0.98018 0.05801 0.0
C6 C 0.05302 0.99497 0.0319 0.0
C7 C 0.02548 0.01436 0.03881 0.0
C8 C 0.01394 0.01919 0.07181 0.0
N9 N 0.00757 0.02746 0.01247 0.0
C10 C 0.02501 0.04971 0.99271 0.0
H11 H 0.34445 0.68528 0.29532 0.0
H12 H 0.40441 0.7791 0.27285 0.0
H13 H 0.30857 0.73091 0.2099 0.0
C14 C 0.34758 0.70592 0.27988 0.0
C15 C 0.32272 0.70529 0.25204 0.0
C16 C 0.37734 0.73195 0.28701 0.0
C17 C 0.38148 0.75869 0.26722 0.0
C18 C 0.35653 0.75907 0.23985 0.0
C19 C 0.3274 0.73178 0.23174 0.0
N20 N 0.3621 0.78708 0.221 0.0
C21 C 0.34035 0.79091 0.19284 0.0
H22 H 0.06203 0.43606 0.07398 0.0
H23 H 0.00987 0.52591 0.07023 0.0
H24 H 0.98705 0.43662 0.98887 0.0
C25 C 0.04359 0.44933 0.06101 0.0
C26 C 0.0249 0.43238 0.03001 0.0
C27 C 0.03876 0.48322 0.07542 0.0
C28 C 0.01396 0.49992 0.05894 0.0
C29 C 0.99542 0.48303 0.02737 0.0
C30 C 1.00144 0.44963 0.01304 0.0
N31 N 0.97074 0.49843 0.00879 0.0
C32 C 0.957 0.52848 0.02092 0.0
H33 H 0.81707 0.8469 0.19808 0.0
H34 H 0.70831 0.79703 0.18649 0.0
H35 H 0.74411 0.88369 0.26835 0.0
C36 C 0.79077 0.84449 0.20704 0.0
C37 C 0.78369 0.8684 0.23495 0.0
C38 C 0.76381 0.81858 0.18952 0.0
C39 C 0.72951 0.81653 0.20033 0.0
C40 C 0.72262 0.83918 0.22937 0.0
C41 C 0.74976 0.8652 0.24678 0.0
N42 N 0.68783 0.8365 0.23971 0.0
C43 C 0.68039 0.82892 0.27185 0.0
H44 H 0.10042 0.06089 0.45906 0.0
H45 H 0.13397 0.03683 0.557 0.0
H46 H 0.03206 0.9882 0.50646 0.0
C47 C 0.09559 0.04615 0.4798 0.0
C48 C 0.06331 0.02361 0.47898 0.0
C49 C 0.12095 0.05122 0.5079 0.0
C50 C 0.11459 0.03261 0.53497 0.0
C51 C 0.08321 0.00898 0.53417 0.0
C52 C 0.05718 0.00492 0.50637 0.0
N53 N 0.07758 0.99232 0.56321 0.0
C54 C 0.062 0.95769 0.56203 0.0
H55 H 0.29103 0.71185 0.84327 0.0
H56 H 0.20418 0.73989 0.78454 0.0
H57 H 0.26775 0.6671 0.73646 0.0
C58 C 0.27472 0.70904 0.81926 0.0
C59 C 0.28269 0.68717 0.79014 0.0
C60 C 0.24649 0.72809 0.81733 0.0
C61 C 0.22568 0.72487 0.786 0.0
C62 C 0.23312 0.70247 0.75675 0.0
C63 C 0.26168 0.68394 0.75909 0.0
N64 N 0.2132 0.69818 0.72437 0.0
C65 C 0.18271 0.7124 0.71764 0.0
H66 H 0.92062 0.53907 0.52406 0.0
H67 H 0.01159 0.54976 0.4656 0.0
H68 H 0.94237 0.45087 0.45379 0.0
C69 C 0.93696 0.52781 0.50525 0.0
C70 C 0.92806 0.49253 0.48999 0.0
C71 C 0.96721 0.54844 0.49666 0.0
C72 C 0.98832 0.53375 0.47216 0.0
C73 C 0.97911 0.49844 0.45643 0.0
C74 C 0.94924 0.47813 0.46571 0.0
N75 N 0.99908 0.48206 0.43139 0.0
C76 C 0.02701 0.49896 0.41641 0.0
H77 H 0.85447 0.73904 0.79658 0.0
H78 H 0.7892 0.78476 0.72884 0.0
H79 H 0.75117 0.7588 0.82301 0.0
C80 C 0.83007 0.7487 0.79063 0.0
C81 C 0.80358 0.74777 0.81358 0.0
C82 C 0.82495 0.76187 0.75988 0.0
C83 C 0.79339 0.77481 0.7526 0.0
C84 C 0.76678 0.77377 0.77549 0.0
C85 C 0.7718 0.75967 0.80547 0.0
N86 N 0.73416 0.78545 0.76846 0.0
C87 C 0.73177 0.81702 0.75726 0.0
H88 H 0.35306 0.23455 0.28901 0.0
H89 H 0.28907 0.29357 0.23402 0.0
H90 H 0.25757 0.26232 0.32733 0.0
C91 C 0.32894 0.245 0.28444 0.0
C92 C 0.30596 0.24625 0.31074 0.0
C93 C 0.32113 0.25765 0.25347 0.0
C94 C 0.2932 0.27804 0.25364 0.0
C95 C 0.26979 0.27882 0.27969 0.0
C96 C 0.2757 0.26178 0.30733 0.0
N97 N 0.23936 0.29558 0.27863 0.0
C98 C 0.23631 0.32448 0.26292 0.0
H99 H 0.56528 0.93933 0.57419 0.0
H100 H 0.52029 0.03321 0.56891 0.0
H101 H 0.49368 0.94404 0.48778 0.0
C102 C 0.54837 0.95379 0.56083 0.0
C103 C 0.5295 0.93766 0.52967 0.0
C104 C 0.54566 0.98838 0.5749 0.0
C105 C 0.52276 0.00664 0.5579 0.0
C106 C 0.50419 0.99057 0.5261 0.0
C107 C 0.50812 0.95642 0.51212 0.0
N108 N 0.48169 0.00761 0.50686 0.0
C109 C 0.46853 0.03795 0.51911 0.0
H110 H 0.31699 0.35131 0.6906 0.0
H111 H 0.20874 0.30029 0.68264 0.0
H112 H 0.24517 0.38983 0.76122 0.0
C113 C 0.29092 0.34908 0.70006 0.0
C114 C 0.28418 0.37372 0.72754 0.0
C115 C 0.26394 0.32242 0.68379 0.0
C116 C 0.22997 0.3204 0.69544 0.0
C117 C 0.22345 0.34412 0.72386 0.0
C118 C 0.25056 0.37081 0.73997 0.0
N119 N 0.18909 0.34192 0.73515 0.0
C120 C 0.18152 0.32803 0.7645 0.0
H121 H 0.85318 0.18057 0.7952 0.0
H122 H 0.91371 0.27321 0.77097 0.0
H123 H 0.8171 0.22526 0.70917 0.0
C124 C 0.85634 0.2009 0.7794 0.0
C125 C 0.83124 0.20018 0.75174 0.0
C126 C 0.88633 0.22666 0.78594 0.0
C127 C 0.89056 0.25303 0.76576 0.0
C128 C 0.86548 0.25328 0.73849 0.0
C129 C 0.83605 0.22625 0.73095 0.0
N130 N 0.87127 0.28086 0.71914 0.0
C131 C 0.84892 0.28511 0.69159 0.0
H132 H 0.56514 0.47305 0.60499 0.0
H133 H 0.56067 0.46959 0.49544 0.0
H134 H 0.4918 0.52703 0.55523 0.0
C135 C 0.55411 0.48072 0.58193 0.0
C136 C 0.52707 0.50146 0.58394 0.0
C137 C 0.56652 0.46946 0.55006 0.0
C138 C 0.55162 0.47874 0.52019 0.0
C139 C 0.52503 0.49976 0.52208 0.0
C140 C 0.51286 0.51128 0.55394 0.0
N141 N 0.50919 0.50748 0.49153 0.0
C142 C 0.51815 0.53987 0.48169 0.0
H143 H 0.59916 0.56593 0.95568 0.0
H144 H 0.62033 0.54197 0.05643 0.0
H145 H 0.52972 0.48455 0.99105 0.0
C146 C 0.59205 0.55051 0.97544 0.0
C147 C 0.56175 0.52468 0.96953 0.0
C148 C 0.61376 0.5562 0.00621 0.0
C149 C 0.60421 0.53691 0.03212 0.0
C150 C 0.57403 0.51107 0.02692 0.0
C151 C 0.5531 0.50439 0.99524 0.0
N152 N 0.56371 0.49492 0.05523 0.0
C153 C 0.555 0.45899 0.05426 0.0
H154 H 0.78632 0.20915 0.34416 0.0
H155 H 0.70286 0.24154 0.28449 0.0
H156 H 0.76986 0.17301 0.23525 0.0
C157 C 0.77161 0.20837 0.31963 0.0
C158 C 0.78111 0.18847 0.29005 0.0
C159 C 0.74365 0.22774 0.31771 0.0
C160 C 0.72438 0.22655 0.2859 0.0
C161 C 0.73392 0.20677 0.25597 0.0
C162 C 0.76234 0.18803 0.25832 0.0
N163 N 0.7167 0.2058 0.22285 0.0
C164 C 0.6842 0.21633 0.21566 0.0
H165 H 0.41722 0.04264 0.02014 0.0
H166 H 0.49935 0.05666 0.95174 0.0
H167 H 0.42872 0.95854 0.93983 0.0
C168 C 0.43082 0.03247 0.99845 0.0
C169 C 0.41986 0.99809 0.98135 0.0
C170 C 0.45945 0.05367 0.9878 0.0
C171 C 0.47723 0.04024 0.9598 0.0
C172 C 0.4659 0.00581 0.94225 0.0
C173 C 0.43728 0.98511 0.95319 0.0
N174 N 0.4822 0.99084 0.91348 0.0
C175 C 0.51251 0.00636 0.90085 0.0
Mg176 Mg 0.23556 0.84882 0.02583 0.0
O177 O 0.28293 0.89072 0.02016 0.0
O178 O 0.3292 0.8626 0.01088 0.0
Mg179 Mg 0.31351 0.80499 0.01653 0.0
C180 C 0.31514 0.8904 0.01365 0.0
C181 C 0.1721 0.88665 0.03863 0.0
O182 O 0.16908 0.86329 0.05919 0.0
O183 O 0.23238 0.82676 0.96787 0.0
O184 O 0.27832 0.79709 0.96595 0.0
O185 O 0.2476 0.85647 0.08301 0.0
O186 O 0.26927 0.8181 0.04649 0.0
C187 C 0.25126 0.80639 0.9516 0.0
C188 C 0.26736 0.83236 0.07783 0.0
O189 O 0.19714 0.88747 0.01896 0.0
Mg190 Mg 0.18182 0.53042 0.26805 0.0
O191 O 0.14306 0.52593 0.22 0.0
O192 O 0.17559 0.51917 0.17495 0.0
Mg193 Mg 0.23453 0.5259 0.19338 0.0
C194 C 0.14586 0.5207 0.18761 0.0
C195 C 0.13558 0.53822 0.32978 0.0
O196 O 0.16024 0.5657 0.33916 0.0
O197 O 0.18835 0.47277 0.25478 0.0
O198 O 0.22625 0.47366 0.21378 0.0
O199 O 0.19387 0.5892 0.27465 0.0
O200 O 0.22194 0.55315 0.24249 0.0
C201 C 0.20868 0.45791 0.23479 0.0
C202 C 0.21879 0.58481 0.25448 0.0
O203 O 0.13651 0.51811 0.30139 0.0
Mg204 Mg 0.82442 0.69135 0.02238 0.0
O205 O 0.76895 0.6577 0.0187 0.0
O206 O 0.72938 0.69374 0.01267 0.0
Mg207 Mg 0.75823 0.74958 0.01522 0.0
C208 C 0.73698 0.66344 0.01493 0.0
C209 C 0.87991 0.64461 0.03391 0.0
O210 O 0.89089 0.67294 0.05674 0.0
O211 O 0.81873 0.69438 0.96481 0.0
O212 O 0.78186 0.73388 0.96412 0.0
O213 O 0.82464 0.70409 0.07951 0.0
O214 O 0.80305 0.73478 0.04325 0.0
C215 C 0.80189 0.71402 0.94914 0.0
C216 C 0.80817 0.72968 0.07437 0.0
O217 O 0.85194 0.64308 0.01419 0.0
Mg218 Mg 0.94874 0.05547 0.28725 0.0
O219 O 0.90757 0.00592 0.27677 0.0
O220 O 0.93615 0.95983 0.26823 0.0
Mg221 Mg 0.99584 0.9802 0.2699 0.0
C222 C 0.90762 0.973 0.27069 0.0
C223 C 0.89915 0.11094 0.28749 0.0
O224 O 0.92006 0.11787 0.26355 0.0
O225 O 0.96384 0.04336 0.34134 0.0
O226 O 0.99741 1.00189 0.32748 0.0
O227 O 0.94811 0.05783 0.2307 0.0
O228 O 0.98476 0.03053 0.25769 0.0
C229 C 0.98496 0.02298 0.34991 0.0
C230 C 0.97302 0.03882 0.2294 0.0
O231 O 0.90475 0.087 0.30465 0.0
Mg232 Mg 0.32751 0.19254 0.52 0.0
O233 O 0.27312 0.15675 0.51573 0.0
O234 O 0.23205 0.19069 0.50738 0.0
Mg235 Mg 0.2588 0.24711 0.50881 0.0
C236 C 0.24081 0.16109 0.51083 0.0
C237 C 0.38429 0.14811 0.535 0.0
O238 O 0.39283 0.1759 0.55897 0.0
O239 O 0.32301 0.1938 0.46213 0.0
O240 O 0.28427 0.23115 0.45873 0.0
O241 O 0.32623 0.20663 0.5769 0.0
O242 O 0.30376 0.23506 0.53905 0.0
C243 C 0.30569 0.21202 0.44514 0.0
C244 C 0.30879 0.23119 0.57059 0.0
O245 O 0.35752 0.14603 0.51361 0.0
Mg246 Mg 0.45382 0.55832 0.77572 0.0
O247 O 0.411 0.50981 0.7676 0.0
O248 O 0.43617 0.46226 0.75272 0.0
Mg249 Mg 0.49547 0.48015 0.75136 0.0
C250 C 0.40907 0.47678 0.75913 0.0
C251 C 0.40308 0.61325 0.7807 0.0
O252 O 0.42012 0.61926 0.75393 0.0
O253 O 0.47444 0.54553 0.82798 0.0
O254 O 0.50016 0.49897 0.80965 0.0
O255 O 0.44828 0.56129 0.71931 0.0
O256 O 0.4863 0.53242 0.74241 0.0
C257 C 0.49238 0.52153 0.83387 0.0
C258 C 0.47256 0.54165 0.71542 0.0
O259 O 0.41204 0.59052 0.79796 0.0
Mg260 Mg 0.73906 0.34454 0.5287 0.0
O261 O 0.78633 0.38605 0.52142 0.0
O262 O 0.83179 0.3571 0.51047 0.0
Mg263 Mg 0.81549 0.2994 0.51549 0.0
C264 C 0.8183 0.38525 0.51422 0.0
C265 C 0.67491 0.38054 0.54246 0.0
O266 O 0.67268 0.35683 0.56265 0.0
O267 O 0.73261 0.32241 0.47084 0.0
O268 O 0.77768 0.29178 0.46643 0.0
O269 O 0.75349 0.35232 0.58547 0.0
O270 O 0.77332 0.31353 0.54783 0.0
C271 C 0.75024 0.30165 0.45341 0.0
C272 C 0.77287 0.32798 0.57935 0.0
O273 O 0.7002 0.38276 0.52316 0.0
Mg274 Mg 0.68537 0.0287 0.76915 0.0
O275 O 0.64831 0.02591 0.72035 0.0
O276 O 0.68162 0.018 0.67604 0.0
Mg277 Mg 0.73991 0.02223 0.69584 0.0
C278 C 0.65178 0.02071 0.6881 0.0
C279 C 0.63085 0.04176 0.8237 0.0
O280 O 0.65047 0.07284 0.8292 0.0
O281 O 0.68959 0.97039 0.75594 0.0
O282 O 0.72844 0.96994 0.71577 0.0
O283 O 0.69961 0.08734 0.77575 0.0
O284 O 0.72729 0.05004 0.74471 0.0
C285 C 0.70961 0.95468 0.73625 0.0
C286 C 0.7248 0.082 0.75617 0.0
O287 O 0.63813 0.01793 0.80068 0.0
Mg288 Mg 0.07687 0.2341 0.92331 0.0
O289 O 0.02512 0.22345 0.88887 0.0
O290 O 0.98146 0.21049 0.92197 0.0
Mg291 Mg 0.00649 0.2043 0.97493 0.0
C292 C 0.99235 0.2166 0.89329 0.0
C293 C 0.13391 0.26065 0.87594 0.0
O294 O 0.15281 0.24194 0.89233 0.0
O295 O 0.05907 0.2839 0.95012 0.0
O296 O 0.02229 0.2642 0.98709 0.0
O297 O 0.08582 0.17813 0.91001 0.0
O298 O 0.05727 0.19843 0.95374 0.0
C299 C 0.0395 0.28927 0.97484 0.0
C300 C 0.06812 0.17234 0.93591 0.0
O301 O 0.10243 0.26288 0.88323 0.0
Mg302 Mg 0.56689 0.73366 0.42386 0.0
O303 O 0.51478 0.72573 0.39022 0.0
O304 O 0.47114 0.71671 0.42447 0.0
Mg305 Mg 0.49587 0.70892 0.47695 0.0
C306 C 0.48204 0.72148 0.39543 0.0
C307 C 0.6274 0.77184 0.38686 0.0
O308 O 0.64667 0.76801 0.41427 0.0
O309 O 0.5527 0.78506 0.4506 0.0
O310 O 0.51569 0.76821 0.48864 0.0
O311 O 0.57261 0.67694 0.41063 0.0
O312 O 0.5451 0.69902 0.45438 0.0
C313 C 0.53413 0.79208 0.47578 0.0
C314 C 0.55454 0.67208 0.43653 0.0
O315 O 0.59429 0.76081 0.3836 0.0
Mg316 Mg 0.98316 0.74785 0.60911 0.0
O317 O 0.03463 0.74439 0.64159 0.0
O318 O 0.07547 0.73561 0.6045 0.0
Mg319 Mg 0.05131 0.73467 0.54967 0.0
C320 C 0.06588 0.73917 0.63504 0.0
C321 C 0.92318 0.75458 0.65435 0.0
O322 O 0.90872 0.73646 0.62473 0.0
O323 O 1.00498 0.80357 0.60123 0.0
O324 O 0.04391 0.79277 0.56241 0.0
O325 O 0.96771 0.68975 0.60124 0.0
O326 O 0.99863 0.71746 0.56562 0.0
C327 C 0.02742 0.81389 0.58088 0.0
C328 C 0.98425 0.68834 0.57367 0.0
O329 O 0.95631 0.76588 0.65757 0.0
Mg330 Mg 0.48361 0.25103 0.10763 0.0
O331 O 0.53533 0.24359 0.1381 0.0
O332 O 0.57502 0.2374 0.09909 0.0
Mg333 Mg 0.549 0.23673 0.04504 0.0
C334 C 0.56652 0.23949 0.12999 0.0
C335 C 0.42355 0.25876 0.15088 0.0
O336 O 0.41049 0.24387 0.11966 0.0
O337 O 0.50784 0.30659 0.10086 0.0
O338 O 0.54283 0.29498 0.05848 0.0
O339 O 0.46356 0.19353 0.09748 0.0
O340 O 0.49767 0.22046 0.06387 0.0
C341 C 0.5284 0.31644 0.07873 0.0
C342 C 0.48072 0.19164 0.07031 0.0
O343 O 0.45687 0.2688 0.15643 0.0
C344 C 0.26318 0.78551 0.85714 0.0
C345 C 0.24052 0.75279 0.84828 0.0
C346 C 0.21753 0.76048 0.90506 0.0
C347 C 0.24195 0.79197 0.91466 0.0
N348 N 0.28182 0.83883 0.89876 0.0
N349 N 0.19072 0.71258 0.85989 0.0
C350 C 0.26265 0.80597 0.89014 0.0
C351 C 0.21568 0.74156 0.87096 0.0
N352 N 0.28617 0.79618 0.83438 0.0
N353 N 0.19764 0.74779 0.9292 0.0
H354 H 0.18936 0.69778 0.83538 0.0
H355 H 0.16982 0.70453 0.87384 0.0
H356 H 0.1974 0.76178 0.95389 0.0
H357 H 0.18238 0.72305 0.92545 0.0
H358 H 0.30634 0.81758 0.84034 0.0
H359 H 0.28582 0.78272 0.80938 0.0
H360 H 0.29546 0.85215 0.88161 0.0
H361 H 0.28182 0.85402 0.92289 0.0
C362 C 0.08625 0.49474 0.39634 0.0
C363 C 0.056 0.51171 0.39741 0.0
C364 C 0.07995 0.54897 0.35725 0.0
C365 C 0.10837 0.52946 0.35339 0.0
N366 N 0.13814 0.48259 0.36729 0.0
N367 N 0.02228 0.55353 0.37846 0.0
C368 C 0.11143 0.50202 0.37244 0.0
C369 C 0.05245 0.53864 0.37793 0.0
N370 N 0.09121 0.47222 0.41875 0.0
N371 N 0.07942 0.57743 0.34123 0.0
H372 H 1.00236 0.54752 0.39439 0.0
H373 H 0.01597 0.57043 0.362 0.0
H374 H 0.09823 0.5848 0.3247 0.0
H375 H 0.0617 0.59505 0.34578 0.0
H376 H 0.11434 0.46162 0.42186 0.0
H377 H 0.07317 0.46627 0.43649 0.0
H378 H 0.13949 0.45964 0.37714 0.0
H379 H 0.15816 0.48821 0.35138 0.0
C380 C 0.79001 0.70268 0.85158 0.0
C381 C 0.80895 0.73532 0.8469 0.0
C382 C 0.83196 0.74709 0.90753 0.0
C383 C 0.80848 0.71751 0.91328 0.0
N384 N 0.76484 0.66684 0.89169 0.0
N385 N 0.84655 0.78992 0.87053 0.0
C386 C 0.78772 0.69489 0.88545 0.0
C387 C 0.83004 0.75768 0.87479 0.0
N388 N 0.7745 0.67917 0.82355 0.0
N389 N 0.85609 0.76502 0.93353 0.0
H390 H 0.84608 0.79865 0.84694 0.0
H391 H 0.85868 0.80908 0.89078 0.0
H392 H 0.858 0.75788 0.95784 0.0
H393 H 0.87628 0.78475 0.93018 0.0
H394 H 0.7629 0.65371 0.82475 0.0
H395 H 0.77595 0.68422 0.79849 0.0
H396 H 0.74593 0.65157 0.87328 0.0
H397 H 0.76366 0.65983 0.91603 0.0
C398 C 0.02457 0.05337 0.44328 0.0
C399 C 0.03581 0.02189 0.4499 0.0
C400 C 1.0004 0.99084 0.3975 0.0
C401 C 0.99676 0.02328 0.38681 0.0
N402 N 0.01008 0.08676 0.39951 0.0
N403 N 0.03703 0.96042 0.43054 0.0
C404 C 0.00951 0.05502 0.40988 0.0
C405 C 0.02404 0.99036 0.42653 0.0
N406 N 0.02855 0.0818 0.46888 0.0
N407 N 0.9811 0.96045 0.37998 0.0
H408 H 0.0555 0.95911 0.45058 0.0
H409 H 0.03192 0.93776 0.41211 0.0
H410 H 0.96254 0.96008 0.35943 0.0
H411 H 0.98058 0.93645 0.38835 0.0
H412 H 0.01807 0.10446 0.4663 0.0
H413 H 0.03887 0.08113 0.49379 0.0
H414 H 0.02278 0.1101 0.41444 0.0
H415 H 1.00112 0.08987 0.37498 0.0
C416 C 0.27051 0.2618 0.6547 0.0
C417 C 0.27145 0.29792 0.65342 0.0
C418 C 0.29869 0.29062 0.59904 0.0
C419 C 0.29478 0.25389 0.59856 0.0
N420 N 0.26821 0.20378 0.62202 0.0
N421 N 0.27712 0.34442 0.61974 0.0
C422 C 0.27807 0.23918 0.62523 0.0
C423 C 0.28245 0.31155 0.62401 0.0
N424 N 0.26393 0.24923 0.6844 0.0
N425 N 0.31983 0.3061 0.57732 0.0
H426 H 0.26456 0.36028 0.63721 0.0
H427 H 0.28171 0.3543 0.59716 0.0
H428 H 0.33461 0.29245 0.56026 0.0
H429 H 0.32604 0.33317 0.57914 0.0
H430 H 0.26671 0.22386 0.6877 0.0
H431 H 0.25882 0.26496 0.70678 0.0
H432 H 0.25291 0.19215 0.63925 0.0
H433 H 0.27177 0.18631 0.60024 0.0
C434 C 0.4821 0.4914 0.62643 0.0
C435 C 0.51273 0.51197 0.61746 0.0
C436 C 0.51482 0.55342 0.67129 0.0
C437 C 0.48564 0.53165 0.68128 0.0
N438 N 0.44287 0.47889 0.67038 0.0
N439 N 0.56063 0.56036 0.632 0.0
C440 C 0.46959 0.50036 0.65934 0.0
C441 C 0.52975 0.54241 0.64009 0.0
N442 N 0.46471 0.4636 0.60318 0.0
N443 N 0.52765 0.5851 0.69129 0.0
H444 H 0.57159 0.55387 0.60881 0.0
H445 H 0.57669 0.5803 0.64896 0.0
H446 H 0.51792 0.59371 0.71465 0.0
H447 H 0.54618 0.60402 0.68382 0.0
H448 H 0.44011 0.44982 0.6063 0.0
H449 H 0.47392 0.45534 0.57948 0.0
H450 H 0.43255 0.45377 0.65772 0.0
H451 H 0.43212 0.48558 0.69356 0.0
C452 C 0.84736 0.30293 0.63449 0.0
C453 C 0.82898 0.29333 0.66234 0.0
C454 C 0.77323 0.30233 0.63382 0.0
C455 C 0.79233 0.316 0.60791 0.0
N456 N 0.84848 0.33533 0.58734 0.0
N457 N 0.77542 0.28737 0.69114 0.0
C458 C 0.82965 0.31768 0.6091 0.0
C459 C 0.79216 0.294 0.66279 0.0
N460 N 0.88176 0.29781 0.63217 0.0
N461 N 0.73702 0.29592 0.63007 0.0
H462 H 0.78832 0.28029 0.7124 0.0
H463 H 0.74949 0.29131 0.69463 0.0
H464 H 0.72213 0.30095 0.60893 0.0
H465 H 0.72178 0.28265 0.64625 0.0
H466 H 0.89532 0.30087 0.61056 0.0
H467 H 0.89577 0.28747 0.65058 0.0
H468 H 0.87604 0.34068 0.58921 0.0
H469 H 0.83636 0.34793 0.56977 0.0
C470 C 0.56175 0.98888 0.63714 0.0
C471 C 0.56759 0.00436 0.60749 0.0
C472 C 0.62245 0.03915 0.63708 0.0
C473 C 0.62037 0.01809 0.66322 0.0
N474 N 0.58875 0.97027 0.68665 0.0
N475 N 0.60509 0.04303 0.5781 0.0
C476 C 0.58989 0.99264 0.66332 0.0
C477 C 0.59809 0.02966 0.60729 0.0
N478 N 0.52938 0.97012 0.63987 0.0
N479 N 0.64748 0.06847 0.64094 0.0
H480 H 0.58802 0.03692 0.55568 0.0
H481 H 0.62907 0.05826 0.57535 0.0
H482 H 0.66509 0.07664 0.66293 0.0
H483 H 0.64823 0.08655 0.62418 0.0
H484 H 0.52244 0.9607 0.66213 0.0
H485 H 0.50834 0.96717 0.62098 0.0
H486 H 0.56889 0.94878 0.6853 0.0
H487 H 0.60912 0.97113 0.70565 0.0
C488 C 0.93757 0.19984 0.80664 0.0
C489 C 0.91427 0.22475 0.813 0.0
C490 C 0.94575 0.2472 0.86964 0.0
C491 C 0.96609 0.21954 0.86513 0.0
N492 N 0.98027 0.16796 0.83028 0.0
N493 N 0.89271 0.26907 0.852 0.0
C494 C 0.9618 0.19545 0.83381 0.0
C495 C 0.91735 0.24757 0.84495 0.0
N496 N 0.93728 0.1812 0.77431 0.0
N497 N 0.95493 0.27422 0.89653 0.0
H498 H 0.87173 0.27039 0.83434 0.0
H499 H 0.89141 0.28345 0.87626 0.0
H500 H 0.97706 0.27588 0.91379 0.0
H501 H 0.94321 0.29678 0.89946 0.0
H502 H 0.95606 0.16539 0.76704 0.0
H503 H 0.91995 0.18375 0.75376 0.0
H504 H 0.97513 0.14709 0.80989 0.0
H505 H 0.99945 0.16482 0.8489 0.0
C506 C 0.563 0.89011 0.50536 0.0
C507 C 0.53093 0.90042 0.51608 0.0
C508 C 0.50017 0.8406 0.49716 0.0
C509 C 0.53308 0.82933 0.49011 0.0
N510 N 0.59712 0.84275 0.49617 0.0
N511 N 0.47104 0.88379 0.53001 0.0
C512 C 0.56494 0.85392 0.49657 0.0
C513 C 0.50011 0.87516 0.51433 0.0
N514 N 0.59137 0.91482 0.50276 0.0
N515 N 0.46876 0.81912 0.48617 0.0
H516 H 0.4701 0.90867 0.54359 0.0
H517 H 0.44928 0.8653 0.53255 0.0
H518 H 0.46687 0.79386 0.47258 0.0
H519 H 0.44432 0.82777 0.48744 0.0
H520 H 0.61414 0.90869 0.4917 0.0
H521 H 0.59083 0.94164 0.50858 0.0
H522 H 0.62097 0.85951 0.50383 0.0
H523 H 0.59993 0.81638 0.49212 0.0
C524 C 0.17418 0.27581 0.79284 0.0
C525 C 0.1723 0.3118 0.79393 0.0
C526 C 0.15093 0.31529 0.85125 0.0
C527 C 0.14871 0.27842 0.84838 0.0
N528 N 0.1533 0.22262 0.81436 0.0
N529 N 0.15646 0.36576 0.82221 0.0
C530 C 0.15931 0.25839 0.81874 0.0
C531 C 0.16006 0.3316 0.82262 0.0
N532 N 0.19045 0.25836 0.76718 0.0
N533 N 0.14557 0.33483 0.88175 0.0
H534 H 0.16415 0.37888 0.80221 0.0
H535 H 0.14379 0.38044 0.8405 0.0
H536 H 0.13947 0.32385 0.90346 0.0
H537 H 0.15027 0.36208 0.88661 0.0
H538 H 0.19605 0.2331 0.76703 0.0
H539 H 0.20113 0.2702 0.74747 0.0
H540 H 0.15678 0.2066 0.7916 0.0
H541 H 0.1418 0.20871 0.83232 0.0
C542 C 0.50031 0.5905 0.45848 0.0
C543 C 0.52751 0.57297 0.46987 0.0
C544 C 0.57265 0.62042 0.45947 0.0
C545 C 0.54547 0.63688 0.44595 0.0
N546 N 0.48434 0.63427 0.42594 0.0
N547 N 0.58937 0.5678 0.47678 0.0
C548 C 0.5095 0.62102 0.44366 0.0
C549 C 0.56366 0.58687 0.46898 0.0
N550 N 0.46573 0.57832 0.46234 0.0
N551 N 0.60681 0.6375 0.46464 0.0
H552 H 0.5838 0.54363 0.48486 0.0
H553 H 0.61594 0.57463 0.4729 0.0
H554 H 0.61456 0.66195 0.4578 0.0
H555 H 0.62709 0.62873 0.47802 0.0
H556 H 0.44503 0.59208 0.45805 0.0
H557 H 0.45797 0.55559 0.47243 0.0
H558 H 0.45813 0.62209 0.4204 0.0
H559 H 0.49064 0.65572 0.41368 0.0
C560 C 0.87292 0.79171 0.72869 0.0
C561 C 0.85202 0.76043 0.73444 0.0
C562 C 0.88415 0.72596 0.69352 0.0
C563 C 0.90151 0.75726 0.68426 0.0
N564 N 0.91012 0.82023 0.69051 0.0
N565 N 0.83388 0.69797 0.71852 0.0
C566 C 0.89552 0.79031 0.70135 0.0
C567 C 0.85666 0.72757 0.7159 0.0
N568 N 0.87174 0.82259 0.74985 0.0
N569 N 0.89473 0.6947 0.68175 0.0
H570 H 0.81307 0.69794 0.7343 0.0
H571 H 0.83359 0.674 0.70271 0.0
H572 H 0.91552 0.69259 0.66611 0.0
H573 H 0.88553 0.67152 0.69039 0.0
H574 H 0.88887 0.84565 0.7492 0.0
H575 H 0.85561 0.82449 0.77014 0.0
H576 H 0.90351 0.84476 0.69927 0.0
H577 H 0.92698 0.82025 0.67082 0.0
C578 C 0.0385 0.89513 0.5382 0.0
C579 C 0.05002 0.92182 0.56688 0.0
C580 C 0.04686 0.87793 0.60517 0.0
C581 C 0.03342 0.85139 0.57674 0.0
N582 N 0.00867 0.83586 0.51769 0.0
N583 N 0.05856 0.94002 0.62836 0.0
C584 C 0.027 0.86033 0.54364 0.0
C585 C 0.05201 0.91363 0.60061 0.0
N586 N 0.03938 0.90282 0.5057 0.0
N587 N 0.05653 0.86898 0.63608 0.0
H588 H 0.06293 0.96644 0.62603 0.0
H589 H 0.05662 0.93589 0.6536 0.0
H590 H 0.05367 0.84316 0.64037 0.0
H591 H 0.07019 0.8868 0.65664 0.0
H592 H 0.03518 0.88384 0.48363 0.0
H593 H 0.04696 0.92813 0.50088 0.0
H594 H 1.00007 0.84167 0.49405 0.0
H595 H 0.99891 0.81039 0.5209 0.0
C596 C 0.11818 0.69972 0.69982 0.0
C597 C 0.15051 0.72335 0.70429 0.0
C598 C 0.12427 0.76156 0.66979 0.0
C599 C 0.0925 0.73684 0.66344 0.0
N600 N 0.05582 0.68728 0.67926 0.0
N601 N 0.18234 0.78021 0.70146 0.0
C602 C 0.08827 0.7076 0.6809 0.0
C603 C 0.15283 0.75552 0.69188 0.0
N604 N 0.11664 0.66898 0.7124 0.0
N605 N 0.1272 0.79042 0.65405 0.0
H606 H 0.20339 0.77627 0.71774 0.0
H607 H 0.185 0.80543 0.6957 0.0
H608 H 0.10592 0.79691 0.63992 0.0
H609 H 0.15072 0.80746 0.65409 0.0
H610 H 0.0956 0.6484 0.70643 0.0
H611 H 0.13745 0.66335 0.72786 0.0
H612 H 0.05011 0.66765 0.69392 0.0
H613 H 0.03346 0.69174 0.6653 0.0
C614 C 0.99583 0.59353 0.54684 0.0
C615 C 0.9766 0.58551 0.51397 0.0
C616 C 0.9655 0.64612 0.51863 0.0
C617 C 0.98496 0.65424 0.55144 0.0
N618 N 0.02546 0.63857 0.59319 0.0
N619 N 0.94957 0.60503 0.46531 0.0
C620 C 1.00221 0.62875 0.56447 0.0
C621 C 0.96367 0.6122 0.49875 0.0
N622 N 0.00715 0.56729 0.56157 0.0
N623 N 0.94696 0.6701 0.50734 0.0
H624 H 0.94688 0.58022 0.45034 0.0
H625 H 0.94321 0.62415 0.45148 0.0
H626 H 0.94766 0.69529 0.52089 0.0
H627 H 0.92884 0.66436 0.48571 0.0
H628 H 0.0175 0.57056 0.58705 0.0
H629 H 1.0044 0.54151 0.54878 0.0
H630 H 0.04144 0.62215 0.60246 0.0
H631 H 0.03125 0.66439 0.60593 0.0
C632 C 0.83637 0.89613 0.27624 0.0
C633 C 0.81154 0.89858 0.24899 0.0
C634 C 0.8484 0.95124 0.23723 0.0
C635 C 0.87321 0.94912 0.26482 0.0
N636 N 0.8867 0.92521 0.31579 0.0
N637 N 0.78918 0.93224 0.20889 0.0
C638 C 0.86593 0.92322 0.28594 0.0
C639 C 0.816 0.92754 0.23136 0.0
N640 N 0.83226 0.86736 0.29206 0.0
N641 N 0.85661 0.97437 0.21528 0.0
H642 H 0.76529 0.91502 0.20358 0.0
H643 H 0.78923 0.95475 0.19794 0.0
H644 H 0.87995 0.9923 0.21835 0.0
H645 H 0.84157 0.97405 0.19234 0.0
H646 H 0.8516 0.86189 0.30923 0.0
H647 H 0.81011 0.84781 0.28651 0.0
H648 H 0.88094 0.9091 0.33394 0.0
H649 H 0.90794 0.9453 0.324 0.0
C650 C 0.80456 0.13149 0.28918 0.0
C651 C 0.81129 0.1685 0.29221 0.0
C652 C 0.87517 0.16736 0.30038 0.0
C653 C 0.86866 0.13024 0.29275 0.0
N654 N 0.8271 0.07674 0.27529 0.0
N655 N 0.85307 0.22175 0.29676 0.0
C656 C 0.83331 0.11215 0.28623 0.0
C657 C 0.84664 0.18651 0.29693 0.0
N658 N 0.77071 0.11485 0.28973 0.0
N659 N 0.90858 0.1843 0.31183 0.0
H660 H 0.83295 0.23674 0.29436 0.0
H661 H 0.87828 0.23566 0.29618 0.0
H662 H 0.92993 0.17103 0.31526 0.0
H663 H 0.91446 0.21106 0.32111 0.0
H664 H 0.76454 0.0884 0.29134 0.0
H665 H 0.74902 0.12813 0.29169 0.0
H666 H 0.80212 0.0628 0.26627 0.0
H667 H 0.84722 0.06151 0.27249 0.0
C668 C 0.35708 0.96694 0.9733 0.0
C669 C 0.39035 0.97501 0.99303 0.0
C670 C 0.36831 0.93607 0.03234 0.0
C671 C 0.33773 0.92331 0.00927 0.0
N672 N 0.30226 0.9263 0.95751 0.0
N673 N 0.42897 0.9658 0.04028 0.0
C674 C 0.33158 0.93903 0.9799 0.0
C675 C 0.39626 0.95946 0.02252 0.0
N676 N 0.3498 0.98632 0.94858 0.0
N677 N 0.37006 0.92652 0.06408 0.0
H678 H 0.45013 0.98301 0.03414 0.0
H679 H 0.43592 0.95205 0.05952 0.0
H680 H 0.34895 0.91106 0.07252 0.0
H681 H 0.39033 0.93714 0.08328 0.0
H682 H 0.3249 0.98409 0.93553 0.0
H683 H 0.36797 0.00691 0.94322 0.0
H684 H 0.29858 0.93346 0.93344 0.0
H685 H 0.28222 0.90708 0.96226 0.0
C686 C 0.19543 0.36037 0.23924 0.0
C687 C 0.23015 0.35667 0.2513 0.0
C688 C 0.25043 0.41907 0.25268 0.0
C689 C 0.21605 0.4227 0.23932 0.0
N690 N 0.1575 0.39634 0.21437 0.0
N691 N 0.29218 0.38003 0.26294 0.0
C692 C 0.18897 0.39317 0.23098 0.0
C693 C 0.25815 0.38525 0.25579 0.0
N694 N 0.16847 0.3328 0.23662 0.0
N695 N 0.27512 0.44818 0.26435 0.0
H696 H 0.29862 0.35568 0.26609 0.0
H697 H 0.31424 0.39897 0.2628 0.0
H698 H 0.2705 0.47359 0.26332 0.0
H699 H 0.29915 0.44751 0.27789 0.0
H700 H 0.14187 0.33483 0.23193 0.0
H701 H 0.17257 0.30803 0.24099 0.0
H702 H 0.13791 0.37519 0.20445 0.0
H703 H 0.15201 0.42002 0.20808 0.0
C704 C 0.1549 0.1107 0.53237 0.0
C705 C 0.153 0.07827 0.51005 0.0
C706 C 0.20873 0.10005 0.4874 0.0
C707 C 0.21186 0.13153 0.51153 0.0
N708 N 0.19204 0.16339 0.56223 0.0
N709 N 0.18077 0.03945 0.47069 0.0
C710 C 0.18613 0.13582 0.53558 0.0
C711 C 0.1808 0.07213 0.48889 0.0
N712 N 0.12628 0.11817 0.54948 0.0
N713 N 0.23127 0.09745 0.462 0.0
H714 H 0.16064 0.01851 0.47108 0.0
H715 H 0.20206 0.03232 0.45761 0.0
H716 H 0.25177 0.1174 0.45977 0.0
H717 H 0.22788 0.07675 0.44144 0.0
H718 H 0.12469 0.14291 0.56293 0.0
H719 H 0.10274 0.10062 0.5478 0.0
H720 H 0.17615 0.1657 0.58264 0.0
H721 H 0.21474 0.18224 0.56584 0.0
C722 C 0.76604 0.1742 0.74728 0.0
C723 C 0.80188 0.16995 0.74391 0.0
C724 C 0.78721 0.10794 0.74699 0.0
C725 C 0.7508 0.11139 0.74857 0.0
N726 N 0.70492 0.14572 0.7379 0.0
N727 N 0.84291 0.13063 0.72711 0.0
C728 C 0.73991 0.14389 0.74477 0.0
C729 C 0.81101 0.13594 0.73878 0.0
N730 N 0.757 0.20684 0.75457 0.0
N731 N 0.80019 0.07978 0.75645 0.0
H732 H 0.86068 0.15081 0.72042 0.0
H733 H 0.84966 0.10573 0.72054 0.0
H734 H 0.78534 0.06035 0.76702 0.0
H735 H 0.82716 0.0782 0.75822 0.0
H736 H 0.73176 0.21103 0.76083 0.0
H737 H 0.77529 0.22973 0.75701 0.0
H738 H 0.69606 0.16831 0.73231 0.0
H739 H 0.68534 0.12365 0.73364 0.0
C740 C 0.42552 0.06872 0.55133 0.0
C741 C 0.45041 0.06798 0.5263 0.0
C742 C 0.4315 0.11922 0.50658 0.0
C743 C 0.40701 0.12049 0.53206 0.0
N744 N 0.38383 0.10035 0.58198 0.0
N745 N 0.48236 0.09541 0.48467 0.0
C746 C 0.40508 0.09646 0.55556 0.0
C747 C 0.45501 0.09418 0.50531 0.0
N748 N 0.42073 0.04228 0.57025 0.0
N749 N 0.43184 0.14161 0.48326 0.0
H750 H 0.5 0.07739 0.48323 0.0
H751 H 0.4895 0.11575 0.47117 0.0
H752 H 0.41612 0.16131 0.48426 0.0
H753 H 0.44605 0.13949 0.46165 0.0
H754 H 0.40026 0.03881 0.58608 0.0
H755 H 0.43641 0.02251 0.56883 0.0
H756 H 0.384 0.08622 0.60217 0.0
H757 H 0.36729 0.11935 0.58494 0.0
C758 C 0.63073 0.46239 0.55336 0.0
C759 C 0.59455 0.44692 0.5476 0.0
C760 C 0.61168 0.38884 0.53309 0.0
C761 C 0.6477 0.40385 0.54225 0.0
N762 N 0.69149 0.45419 0.56562 0.0
N763 N 0.54994 0.39539 0.53628 0.0
C764 C 0.65731 0.4405 0.5534 0.0
C765 C 0.58483 0.4101 0.53865 0.0
N766 N 0.63967 0.49802 0.55821 0.0
N767 N 0.60327 0.35452 0.51783 0.0
H768 H 0.52945 0.41015 0.53959 0.0
H769 H 0.54142 0.36855 0.53371 0.0
H770 H 0.6223 0.3383 0.51273 0.0
H771 H 0.57792 0.34296 0.50728 0.0
H772 H 0.66554 0.51081 0.55866 0.0
H773 H 0.62089 0.51488 0.55921 0.0
H774 H 0.69933 0.48001 0.57773 0.0
H775 H 0.71174 0.43908 0.56617 0.0
C776 C 0.74931 0.28579 0.35704 0.0
C777 C 0.73558 0.24948 0.34971 0.0
C778 C 0.72224 0.25026 0.40958 0.0
C779 C 0.73782 0.28603 0.41728 0.0
N780 N 0.75572 0.3403 0.39752 0.0
N781 N 0.70045 0.19947 0.36574 0.0
C782 C 0.74771 0.30467 0.39058 0.0
C783 C 0.71903 0.23254 0.375 0.0
N784 N 0.76572 0.3017 0.33261 0.0
N785 N 0.71181 0.23304 0.43564 0.0
H786 H 0.69773 0.18611 0.34047 0.0
H787 H 0.6853 0.18647 0.38215 0.0
H788 H 0.71194 0.24588 0.46087 0.0
H789 H 0.70426 0.20605 0.43267 0.0
H790 H 0.77999 0.32694 0.33757 0.0
H791 H 0.76678 0.2889 0.3076 0.0
H792 H 0.76058 0.35591 0.37878 0.0
H793 H 0.7538 0.35442 0.42177 0.0
C794 C 0.54496 0.04661 0.86685 0.0
C795 C 0.54396 0.01766 0.88436 0.0
C796 C 0.60221 0.0079 0.86618 0.0
C797 C 0.6013 0.03413 0.84524 0.0
N798 N 0.57017 0.07597 0.82232 0.0
N799 N 0.56957 0.9686 0.89893 0.0
C800 C 0.57238 0.0531 0.8449 0.0
C801 C 0.57206 0.99775 0.88363 0.0
N802 N 0.51985 0.06801 0.87142 0.0
N803 N 0.63244 0.99371 0.87049 0.0
H804 H 0.54865 0.96119 0.91326 0.0
H805 H 0.58702 0.95052 0.89567 0.0
H806 H 0.65529 1.00087 0.85859 0.0
H807 H 0.6361 0.97723 0.88822 0.0
H808 H 0.52112 0.09163 0.86226 0.0
H809 H 0.49914 0.06355 0.8869 0.0
H810 H 0.54796 0.08774 0.81818 0.0
H811 H 0.58941 0.08107 0.80549 0.0
C812 C 0.29202 0.20062 0.34786 0.0
C813 C 0.31317 0.23199 0.34277 0.0
C814 C 0.33842 0.24171 0.40265 0.0
C815 C 0.31265 0.21419 0.40909 0.0
N816 N 0.26543 0.16645 0.38861 0.0
N817 N 0.35639 0.28306 0.36496 0.0
C818 C 0.28992 0.19296 0.38177 0.0
C819 C 0.33693 0.25238 0.3699 0.0
N820 N 0.27402 0.17836 0.32014 0.0
N821 N 0.36407 0.25778 0.42807 0.0
H822 H 0.35654 0.29141 0.3412 0.0
H823 H 0.37083 0.3013 0.38474 0.0
H824 H 0.36553 0.25066 0.4524 0.0
H825 H 0.38562 0.27582 0.42423 0.0
H826 H 0.26034 0.15369 0.32147 0.0
H827 H 0.27538 0.18343 0.29508 0.0
H828 H 0.24527 0.15246 0.37073 0.0
H829 H 0.26444 0.15939 0.41295 0.0
C830 C 0.55869 0.51062 0.90554 0.0
C831 C 0.54086 0.51886 0.93531 0.0
C832 C 0.48837 0.5239 0.89828 0.0
C833 C 0.50856 0.52149 0.86927 0.0
N834 N 0.56676 0.5223 0.84836 0.0
N835 N 0.48982 0.53852 0.96032 0.0
C836 C 0.54478 0.51739 0.87369 0.0
C837 C 0.50586 0.52678 0.93185 0.0
N838 N 0.58909 0.49636 0.90768 0.0
N839 N 0.45249 0.52227 0.89387 0.0
H840 H 0.50174 0.54128 0.98523 0.0
H841 H 0.46593 0.5482 0.95902 0.0
H842 H 0.43865 0.51911 0.86974 0.0
H843 H 0.43618 0.52056 0.91385 0.0
H844 H 0.60149 0.4872 0.8861 0.0
H845 H 0.59955 0.49019 0.93057 0.0
H846 H 0.59401 0.52255 0.85178 0.0
H847 H 0.55882 0.53058 0.8257 0.0
C848 C 0.7838 0.80947 0.13022 0.0
C849 C 0.7717 0.79489 0.15877 0.0
C850 C 0.77721 0.73651 0.12888 0.0
C851 C 0.79483 0.7519 0.10309 0.0
N852 N 0.8218 0.80464 0.08397 0.0
N853 N 0.76235 0.7449 0.18785 0.0
C854 C 0.79987 0.78884 0.10488 0.0
C855 C 0.76979 0.75845 0.15884 0.0
N856 N 0.77956 0.8429 0.12704 0.0
N857 N 0.76627 0.70117 0.12432 0.0
H858 H 0.75735 0.76011 0.21059 0.0
H859 H 0.76436 0.71913 0.19027 0.0
H860 H 0.76953 0.68425 0.10204 0.0
H861 H 0.75035 0.68922 0.14092 0.0
H862 H 0.78499 0.85358 0.10505 0.0
H863 H 0.76709 0.85859 0.14475 0.0
H864 H 0.82881 0.83172 0.08674 0.0
H865 H 0.83632 0.79102 0.06661 0.0
C866 C 0.98803 0.98955 0.14165 0.0
C867 C 0.01776 0.01183 0.13332 0.0
C868 C 0.01819 0.05147 0.18804 0.0
C869 C 0.989 0.02875 0.19678 0.0
N870 N 0.94914 0.97402 0.18487 0.0
N871 N 0.06482 0.06071 0.15001 0.0
C872 C 0.97485 0.99708 0.17444 0.0
C873 C 0.03401 0.04179 0.15704 0.0
N874 N 0.97186 0.96174 0.11774 0.0
N875 N 0.03003 0.08289 0.20891 0.0
H876 H 0.07664 0.05486 0.12719 0.0
H877 H 0.08018 0.08059 0.16762 0.0
H878 H 0.01987 0.09044 0.23231 0.0
H879 H 0.04832 0.10252 0.20224 0.0
H880 H 0.94769 0.94683 0.12033 0.0
H881 H 0.98176 0.9545 0.09413 0.0
H882 H 0.94013 0.94881 0.1717 0.0
H883 H 0.93831 0.97938 0.20822 0.0
C884 C 0.28427 0.79941 0.16238 0.0
C885 C 0.32113 0.79862 0.16289 0.0
C886 C 0.32332 0.82216 0.10925 0.0
C887 C 0.28598 0.82068 0.10714 0.0
N888 N 0.22994 0.80108 0.1282 0.0
N889 N 0.37467 0.80228 0.13388 0.0
C890 C 0.26612 0.80743 0.13279 0.0
C891 C 0.34027 0.80767 0.1353 0.0
N892 N 0.26673 0.79313 0.19038 0.0
N893 N 0.34289 0.83943 0.08774 0.0
H894 H 0.38813 0.79209 0.15279 0.0
H895 H 0.38878 0.80493 0.11252 0.0
H896 H 0.3313 0.8519 0.06973 0.0
H897 H 0.37046 0.84465 0.09021 0.0
H898 H 0.24073 0.79721 0.19317 0.0
H899 H 0.27903 0.78616 0.21202 0.0
H900 H 0.21417 0.78811 0.14423 0.0
H901 H 0.21561 0.8058 0.10657 0.0
C902 C 0.08946 0.52707 0.10757 0.0
C903 C 0.06046 0.50012 0.10791 0.0
C904 C 0.08473 0.4896 0.16354 0.0
C905 C 0.11378 0.51658 0.16322 0.0
N906 N 0.13753 0.5681 0.14085 0.0
N907 N 0.0249 0.46362 0.14042 0.0
C908 C 0.11402 0.53769 0.13714 0.0
C909 C 0.05618 0.48424 0.13754 0.0
N910 N 0.09493 0.54102 0.07841 0.0
N911 N 0.08543 0.4674 0.18693 0.0
H912 H 1.00358 0.45947 0.12167 0.0
H913 H 0.01893 0.45372 0.16269 0.0
H914 H 0.10614 0.46958 0.20591 0.0
H915 H 0.06683 0.44492 0.18573 0.0
H916 H 0.11798 0.5576 0.07547 0.0
H917 H 0.0776 0.53418 0.0562 0.0
H918 H 0.13684 0.58616 0.12418 0.0
H919 H 0.15527 0.57701 0.16265 0.0
C920 C 0.42675 0.70351 0.30923 0.0
C921 C 0.40503 0.73002 0.31438 0.0
C922 C 0.43738 0.75347 0.37048 0.0
C923 C 0.45592 0.72445 0.36722 0.0
N924 N 0.46583 0.66956 0.3352 0.0
N925 N 0.38583 0.77713 0.35189 0.0
C926 C 0.45 0.69882 0.33701 0.0
C927 C 0.40925 0.75417 0.34559 0.0
N928 N 0.42602 0.68362 0.27745 0.0
N929 N 0.44787 0.78122 0.39642 0.0
H930 H 0.36487 0.77847 0.33423 0.0
H931 H 0.38539 0.79273 0.3757 0.0
H932 H 0.46966 0.78236 0.41395 0.0
H933 H 0.43756 0.80457 0.39828 0.0
H934 H 0.44378 0.66636 0.27117 0.0
H935 H 0.40976 0.68666 0.25633 0.0
H936 H 0.45939 0.64808 0.31553 0.0
H937 H 0.48355 0.66554 0.35475 0.0
C938 C 0.99959 0.36867 0.01406 0.0
C939 C 0.02882 0.3958 0.01599 0.0
C940 C 0.06625 0.35238 0.99623 0.0
C941 C 0.03586 0.3259 0.98945 0.0
N942 N 0.97167 0.31151 0.98543 0.0
N943 N 0.08852 0.41433 1.00266 0.0
C944 C 1.00195 0.33472 0.99658 0.0
C945 C 0.06176 0.38793 0.00518 0.0
N946 N 0.9699 0.37492 0.02992 0.0
N947 N 0.0995 0.34362 0.99605 0.0
H948 H 0.08607 0.44074 0.00851 0.0
H949 H 0.1118 0.40993 0.9916 0.0
H950 H 0.10422 0.31781 0.99208 0.0
H951 H 0.12238 0.3618 0.0039 0.0
H952 H 0.94938 0.35507 0.03232 0.0
H953 H 0.96734 0.39924 0.04378 0.0
H954 H 0.94647 0.31842 0.98676 0.0
H955 H 0.97134 0.28655 0.97167 0.0
C956 C 0.68489 0.7894 0.31433 0.0
C957 C 0.67041 0.8176 0.30358 0.0
C958 C 0.63307 0.81995 0.35168 0.0
C959 C 0.64399 0.78877 0.35961 0.0
N960 N 0.67737 0.74133 0.34639 0.0
N961 N 0.6296 0.85904 0.31007 0.0
C962 C 0.66945 0.773 0.34064 0.0
C963 C 0.6443 0.83285 0.32182 0.0
N964 N 0.71351 0.77843 0.29949 0.0
N965 N 0.61288 0.83776 0.37333 0.0
H966 H 0.63827 0.8701 0.28913 0.0
H967 H 0.60751 0.86842 0.31972 0.0
H968 H 0.60463 0.82932 0.3957 0.0
H969 H 0.60695 0.86241 0.3709 0.0
H970 H 0.72758 0.76038 0.30855 0.0
H971 H 0.72521 0.78969 0.2799 0.0
H972 H 0.69256 0.72662 0.33077 0.0
H973 H 0.66639 0.72821 0.36514 0.0
C974 C 0.07308 0.09649 0.98387 0.0
C975 C 0.03924 0.07633 0.97338 0.0
C976 C 0.0265 0.11621 0.93403 0.0
C977 C 0.06 0.13694 0.94499 0.0
N978 N 0.11827 0.14353 0.97423 0.0
N979 N 0.98743 0.06129 0.9331 0.0
C980 C 0.08438 0.12587 0.96788 0.0
C981 C 0.01718 0.08433 0.94659 0.0
N982 N 0.09373 0.0883 0.00998 0.0
N983 N 1.00314 0.12773 0.91261 0.0
H984 H 0.98001 0.03773 0.94188 0.0
H985 H 0.97183 0.0639 0.91143 0.0
H986 H 0.00992 0.15016 0.90192 0.0
H987 H 0.97674 0.11628 0.90682 0.0
H988 H 0.11685 0.10413 0.02172 0.0
H989 H 0.0868 0.06609 0.02112 0.0
H990 H 0.13837 0.13513 0.98818 0.0
H991 H 0.12712 0.16536 0.96317 0.0
C992 C 0.33934 0.26812 0.19351 0.0
C993 C 0.34399 0.25234 0.22312 0.0
C994 C 0.40061 0.2377 0.20348 0.0
C995 C 0.39914 0.26018 0.1787 0.0
N996 N 0.36755 0.29943 0.1521 0.0
N997 N 0.36504 0.20015 0.23523 0.0
C998 C 0.36871 0.27633 0.1745 0.0
C999 C 0.371 0.23091 0.22284 0.0
N1000 N 0.30606 0.26831 0.17919 0.0
N1001 N 0.42971 0.22199 0.20813 0.0
H1002 H 0.34039 0.19087 0.24301 0.0
H1003 H 0.38212 0.18166 0.23283 0.0
H1004 H 0.45137 0.22481 0.19358 0.0
H1005 H 0.43333 0.20833 0.22836 0.0
H1006 H 0.30119 0.27684 0.15591 0.0
H1007 H 0.28382 0.2544 0.18759 0.0
H1008 H 0.34684 0.31384 0.15032 0.0
H1009 H 0.38874 0.30649 0.13794 0.0
C1010 C 0.5741 0.41007 0.08002 0.0
C1011 C 0.54836 0.42278 0.05995 0.0
C1012 C 0.50777 0.36742 0.05639 0.0
C1013 C 0.53442 0.35384 0.07451 0.0
N1014 N 0.59385 0.36042 0.10114 0.0
N1015 N 0.49243 0.41334 0.02596 0.0
C1016 C 0.56787 0.37469 0.08563 0.0
C1017 C 0.51561 0.40141 0.04733 0.0
N1018 N 0.60414 0.43217 0.0945 0.0
N1019 N 0.47488 0.34784 0.04804 0.0
H1020 H 0.49711 0.43831 0.01948 0.0
H1021 H 0.46974 0.39796 0.01276 0.0
H1022 H 0.46853 0.3224 0.05297 0.0
H1023 H 0.4531 0.35738 0.03821 0.0
H1024 H 0.62205 0.42602 0.11263 0.0
H1025 H 0.61027 0.45782 0.09001 0.0
H1026 H 0.62012 0.3725 0.10615 0.0
H1027 H 0.58958 0.33538 0.10754 0.0
C1028 C 0.64298 0.25673 0.20049 0.0
C1029 C 0.65058 0.22229 0.20002 0.0
C1030 C 0.60145 0.19908 0.15599 0.0
C1031 C 0.59332 0.23342 0.15645 0.0
N1032 N 0.60217 0.29416 0.18278 0.0
N1033 N 0.63188 0.16011 0.18484 0.0
C1034 C 0.61263 0.26202 0.18013 0.0
C1035 C 0.62799 0.19329 0.18027 0.0
N1036 N 0.66549 0.28434 0.21944 0.0
N1037 N 0.58495 0.17217 0.13132 0.0
H1038 H 0.65109 0.15506 0.20251 0.0
H1039 H 0.61403 0.13793 0.17374 0.0
H1040 H 0.56544 0.17522 0.11298 0.0
H1041 H 0.59255 0.14749 0.12717 0.0
H1042 H 0.66397 0.31043 0.21819 0.0
H1043 H 0.68694 0.28098 0.23554 0.0
H1044 H 0.61299 0.31544 0.20152 0.0
H1045 H 0.58083 0.299 0.16749 0.0
C1046 C 0.48796 0.09554 0.03991 0.0
C1047 C 0.47032 0.09009 0.0065 0.0
C1048 C 0.46662 0.1528 0.0124 0.0
C1049 C 0.48015 0.15743 0.0475 0.0
N1050 N 0.50115 0.13245 0.09567 0.0
N1051 N 0.4402 0.11224 0.9613 0.0
C1052 C 0.49023 0.12859 0.0615 0.0
C1053 C 0.45943 0.11847 0.99261 0.0
N1054 N 0.50311 0.06914 0.05072 0.0
N1055 N 0.45965 0.18095 0.99807 0.0
H1056 H 0.4349 0.08766 0.94578 0.0
H1057 H 0.42739 0.13075 0.95155 0.0
H1058 H 0.46074 0.20598 0.012 0.0
H1059 H 0.45454 0.17998 0.97174 0.0
H1060 H 0.51958 0.07238 0.07333 0.0
H1061 H 0.50191 0.04465 0.03544 0.0
H1062 H 0.50436 0.11154 0.10826 0.0
H1063 H 0.50523 0.15643 0.11216 0.0
C1064 C 0.31524 0.43369 0.72481 0.0
C1065 C 0.31227 0.40381 0.74117 0.0
C1066 C 0.36836 0.42742 0.77579 0.0
C1067 C 0.37402 0.45425 0.75552 0.0
N1068 N 0.35385 0.4824 0.70934 0.0
N1069 N 0.33548 0.37113 0.78171 0.0
C1070 C 0.34747 0.45769 0.73004 0.0
C1071 C 0.33853 0.40053 0.76683 0.0
N1072 N 0.28724 0.43891 0.70407 0.0
N1073 N 0.39113 0.42822 0.80405 0.0
H1074 H 0.31317 0.35174 0.77683 0.0
H1075 H 0.35569 0.36505 0.79747 0.0
H1076 H 0.41285 0.44798 0.81161 0.0
H1077 H 0.3868 0.41133 0.82176 0.0
H1078 H 0.28622 0.46195 0.69428 0.0
H1079 H 0.26356 0.42137 0.69901 0.0
H1080 H 0.33752 0.48321 0.68752 0.0
H1081 H 0.37676 0.5009 0.71238 0.0
C1082 C 0.3085 0.63157 0.79067 0.0
C1083 C 0.31385 0.66837 0.79175 0.0
C1084 C 0.37819 0.66897 0.79489 0.0
C1085 C 0.37258 0.63183 0.78882 0.0
N1086 N 0.3319 0.57728 0.77682 0.0
N1087 N 0.35359 0.72204 0.79123 0.0
C1088 C 0.33761 0.61292 0.78599 0.0
C1089 C 0.34869 0.68713 0.79314 0.0
N1090 N 0.27564 0.61451 0.79461 0.0
N1091 N 0.41181 0.6869 0.80305 0.0
H1092 H 0.33276 0.73635 0.78992 0.0
H1093 H 0.37801 0.73625 0.78815 0.0
H1094 H 0.4339 0.67435 0.80505 0.0
H1095 H 0.41745 0.71388 0.81111 0.0
H1096 H 0.27077 0.58836 0.79766 0.0
H1097 H 0.25375 0.62734 0.79797 0.0
H1098 H 0.3068 0.56253 0.77035 0.0
H1099 H 0.35227 0.5625 0.77298 0.0
C1100 C 0.89752 0.45707 0.53064 0.0
C1101 C 0.89647 0.47003 0.49909 0.0
C1102 C 0.84016 0.4313 0.47951 0.0
C1103 C 0.8415 0.41812 0.51088 0.0
N1104 N 0.86493 0.42549 0.56985 0.0
N1105 N 0.86323 0.47622 0.44724 0.0
C1106 C 0.86815 0.43334 0.53763 0.0
C1107 C 0.86653 0.45929 0.47471 0.0
N1108 N 0.92722 0.46602 0.55317 0.0
N1109 N 0.81446 0.41612 0.45388 0.0
H1110 H 0.88204 0.49696 0.44322 0.0
H1111 H 0.8406 0.47189 0.43017 0.0
H1112 H 0.79385 0.39685 0.45737 0.0
H1113 H 0.81442 0.42136 0.42887 0.0
H1114 H 0.93113 0.45423 0.57465 0.0
H1115 H 0.94922 0.4835 0.54916 0.0
H1116 H 0.88186 0.43791 0.59127 0.0
H1117 H 0.8429 0.40925 0.57581 0.0
C1118 C 0.75522 0.87913 0.75599 0.0
C1119 C 0.72662 0.85102 0.7492 0.0
C1120 C 0.68731 0.89012 0.73057 0.0
C1121 C 0.71509 0.91883 0.74047 0.0
N1122 N 0.77375 0.94192 0.76789 0.0
N1123 N 0.66467 0.82939 0.73303 0.0
C1124 C 0.74868 0.91366 0.75442 0.0
C1125 C 0.69242 0.85638 0.73723 0.0
N1126 N 0.78874 0.87279 0.76365 0.0
N1127 N 0.65652 0.89497 0.71387 0.0
H1128 H 0.66771 0.80406 0.73639 0.0
H1129 H 0.63837 0.83245 0.72823 0.0
H1130 H 0.65193 0.91938 0.70883 0.0
H1131 H 0.63661 0.87459 0.70274 0.0
H1132 H 0.81132 0.89147 0.76497 0.0
H1133 H 0.79436 0.84797 0.76594 0.0
H1134 H 0.79715 0.94004 0.78186 0.0
H1135 H 0.76993 0.96775 0.76792 0.0
C1136 C 0.64904 0.61443 0.03377 0.0
C1137 C 0.64678 0.58237 0.01079 0.0
C1138 C 0.70376 0.60332 0.99 0.0
C1139 C 0.70717 0.63443 0.01463 0.0
N1140 N 0.68706 0.66568 0.06552 0.0
N1141 N 0.67536 0.54306 0.97265 0.0
C1142 C 0.68098 0.63881 0.0382 0.0
C1143 C 0.67525 0.57581 0.99065 0.0
N1144 N 0.62022 0.62233 0.05029 0.0
N1145 N 0.72655 0.60069 0.9648 0.0
H1146 H 0.65512 0.52217 0.97284 0.0
H1147 H 0.69701 0.53577 0.96028 0.0
H1148 H 0.74736 0.62045 0.96289 0.0
H1149 H 0.7229 0.58028 0.94396 0.0
H1150 H 0.61909 0.64694 0.06427 0.0
H1151 H 0.59623 0.6053 0.04764 0.0
H1152 H 0.67061 0.66797 0.08548 0.0
H1153 H 0.71035 0.68377 0.07011 0.0
C1154 C 0.30374 0.64101 0.23741 0.0
C1155 C 0.29387 0.67467 0.24343 0.0
C1156 C 0.23235 0.64723 0.24422 0.0
C1157 C 0.24404 0.61489 0.24714 0.0
N1158 N 0.2944 0.58422 0.25386 0.0
N1159 N 0.24817 0.71035 0.255 0.0
C1160 C 0.28062 0.61229 0.24515 0.0
C1161 C 0.25788 0.67805 0.24711 0.0
N1162 N 0.33575 0.63673 0.22543 0.0
N1163 N 0.19714 0.64844 0.23787 0.0
H1164 H 0.26602 0.73355 0.25753 0.0
H1165 H 0.22286 0.7139 0.26154 0.0
H1166 H 0.17798 0.62603 0.23342 0.0
H1167 H 0.18764 0.67094 0.23291 0.0
H1168 H 0.34305 0.61217 0.21823 0.0
H1169 H 0.35302 0.6575 0.2191 0.0
H1170 H 0.32149 0.58323 0.25534 0.0
H1171 H 0.28012 0.56423 0.26415 0.0
C1172 C 0.90198 0.55268 0.03322 0.0
C1173 C 0.93852 0.5583 0.02805 0.0
C1174 C 0.9362 0.61986 0.0249 0.0
C1175 C 0.89999 0.61478 0.03176 0.0
N1176 N 0.85036 0.57844 0.04951 0.0
N1177 N 0.99227 0.5978 0.02564 0.0
C1178 C 0.88336 0.58173 0.03786 0.0
C1179 C 0.95624 0.59214 0.02609 0.0
N1180 N 0.88487 0.51944 0.03292 0.0
N1181 N 0.95094 0.65053 0.01547 0.0
H1182 H 0.00758 0.57788 0.02622 0.0
H1183 H 0.00724 0.62257 0.02774 0.0
H1184 H 0.93693 0.67114 0.01343 0.0
H1185 H 0.97601 0.65444 0.00666 0.0
H1186 H 0.85746 0.51303 0.03226 0.0
H1187 H 0.89797 0.49774 0.03123 0.0
H1188 H 0.8384 0.55605 0.05793 0.0
H1189 H 0.83604 0.59919 0.0537 0.0
C1190 C 0.08436 0.92071 0.03782 0.0
C1191 C 0.09562 0.95696 0.05001 0.0
C1192 C 0.15772 0.94781 0.0524 0.0
C1193 C 0.14647 0.91171 0.03921 0.0
N1194 N 0.10026 0.86517 0.01245 0.0
N1195 N 0.14247 0.00642 0.06289 0.0
C1196 C 0.11008 0.89858 0.02985 0.0
C1197 C 0.1322 0.97096 0.05533 0.0
N1198 N 0.04908 0.90726 0.03485 0.0
N1199 N 0.19247 0.95962 0.06385 0.0
H1200 H 0.12445 0.02401 0.06598 0.0
H1201 H 0.1686 0.01858 0.06347 0.0
H1202 H 0.21201 0.94363 0.06194 0.0
H1203 H 0.20163 0.98465 0.07743 0.0
H1204 H 0.03941 0.88055 0.03009 0.0
H1205 H 0.02934 0.92272 0.03951 0.0
H1206 H 0.0746 0.85506 1.00176 0.0
H1207 H 0.11852 0.84844 0.00583 0.0
loop_
_geom_bond_atom_site_label_1
_geom_bond_atom_site_label_2
_geom_bond_distance
_geom_bond_site_symmetry_2
_ccdc_geom_bond_type
H0 C3 0.929 . S
H1 C6 0.929 . S
H2 C8 0.930 . S
C3 H0 0.929 . S
C3 C4 1.398 . S
C3 C5 1.396 . S
C4 C3 1.398 . S
C4 C8 1.407 . S
C5 C3 1.396 . S
C5 C6 1.394 . S
C6 H1 0.929 . S
C6 C5 1.394 . S
C6 C7 1.382 . S
C7 C6 1.382 . S
C7 C8 1.392 . S
C7 N9 1.420 . S
C8 H2 0.930 . S
C8 C4 1.407 . S
C8 C7 1.392 . S
N9 C7 1.420 . S
N9 C10 1.244 1_554 S
C10 N9 1.244 1_556 S
H11 C14 0.929 . S
H12 C17 0.929 . S
H13 C19 0.930 . S
C14 H11 0.929 . S
C14 C15 1.398 . S
C14 C16 1.396 . S
C15 C14 1.398 . S
C15 C19 1.407 . S
C16 C14 1.396 . S
C16 C17 1.394 . S
C17 H12 0.929 . S
C17 C16 1.394 . S
C17 C18 1.382 . S
C18 C17 1.382 . S
C18 C19 1.392 . S
C18 N20 1.420 . S
C19 H13 0.930 . S
C19 C15 1.407 . S
C19 C18 1.392 . S
N20 C18 1.420 . S
N20 C21 1.244 . S
C21 N20 1.244 . S
H22 C25 0.929 . S
H23 C28 0.929 . S
H24 C30 0.930 1_556 S
C25 H22 0.929 . S
C25 C26 1.398 . S
C25 C27 1.396 . S
C26 C25 1.398 . S
C26 C30 1.407 1_455 S
C27 C25 1.396 . S
C27 C28 1.394 . S
C28 H23 0.929 . S
C28 C27 1.394 . S
C28 C29 1.382 1_455 S
C29 C28 1.382 1_655 S
C29 C30 1.392 . S
C29 N31 1.420 . S
C30 H24 0.930 1_554 S
C30 C26 1.407 1_655 S
C30 C29 1.392 . S
N31 C29 1.420 . S
N31 C32 1.244 . S
C32 N31 1.244 . S
H33 C36 0.929 . S
H34 C39 0.929 . S
H35 C41 0.930 . S
C36 H33 0.929 . S
C36 C37 1.398 . S
C36 C38 1.396 . S
C37 C36 1.398 . S
C37 C41 1.407 . S
C38 C36 1.396 . S
C38 C39 1.394 . S
C39 H34 0.929 . S
C39 C38 1.394 . S
C39 C40 1.382 . S
C40 C39 1.382 . S
C40 C41 1.392 . S
C40 N42 1.420 . S
C41 H35 0.930 . S
C41 C37 1.407 . S
C41 C40 1.392 . S
N42 C40 1.420 . S
N42 C43 1.244 . S
C43 N42 1.244 . S
H44 C47 0.929 . S
H45 C50 0.929 . S
H46 C52 0.930 . S
C47 H44 0.929 . S
C47 C48 1.398 1_545 S
C47 C49 1.396 . S
C48 C47 1.398 1_565 S
C48 C52 1.407 . S
C49 C47 1.396 . S
C49 C50 1.394 1_545 S
C50 H45 0.929 . S
C50 C49 1.394 1_565 S
C50 C51 1.382 . S
C51 C50 1.382 . S
C51 C52 1.392 . S
C51 N53 1.420 . S
C52 H46 0.930 . S
C52 C48 1.407 . S
C52 C51 1.392 . S
N53 C51 1.420 . S
N53 C54 1.244 . S
C54 N53 1.244 . S
H55 C58 0.929 . S
H56 C61 0.929 . S
H57 C63 0.930 . S
C58 H55 0.929 . S
C58 C59 1.398 . S
C58 C60 1.396 . S
C59 C58 1.398 . S
C59 C63 1.407 . S
C60 C58 1.396 . S
C60 C61 1.394 . S
C61 H56 0.929 . S
C61 C60 1.394 . S
C61 C62 1.382 . S
C62 C61 1.382 . S
C62 C63 1.392 . S
C62 N64 1.420 . S
C63 H57 0.930 . S
C63 C59 1.407 . S
C63 C62 1.392 . S
N64 C62 1.420 . S
N64 C65 1.244 . S
C65 N64 1.244 . S
H66 C69 0.929 . S
H67 C72 0.929 1_455 S
H68 C74 0.930 . S
C69 H66 0.929 . S
C69 C70 1.398 . S
C69 C71 1.396 . S
C70 C69 1.398 . S
C70 C74 1.407 . S
C71 C69 1.396 . S
C71 C72 1.394 . S
C72 H67 0.929 1_655 S
C72 C71 1.394 . S
C72 C73 1.382 . S
C73 C72 1.382 . S
C73 C74 1.392 . S
C73 N75 1.420 1_655 S
C74 H68 0.930 . S
C74 C70 1.407 . S
C74 C73 1.392 . S
N75 C73 1.420 1_455 S
N75 C76 1.244 . S
C76 N75 1.244 . S
H77 C80 0.929 . S
H78 C83 0.929 . S
H79 C85 0.930 . S
C80 H77 0.929 . S
C80 C81 1.398 . S
C80 C82 1.396 . S
C81 C80 1.398 . S
C81 C85 1.407 . S
C82 C80 1.396 . S
C82 C83 1.394 . S
C83 H78 0.929 . S
C83 C82 1.394 . S
C83 C84 1.382 . S
C84 C83 1.382 . S
C84 C85 1.392 . S
C84 N86 1.420 . S
C85 H79 0.930 . S
C85 C81 1.407 . S
C85 C84 1.392 . S
N86 C84 1.420 . S
N86 C87 1.244 . S
C87 N86 1.244 . S
H88 C91 0.929 . S
H89 C94 0.929 . S
H90 C96 0.930 . S
C91 H88 0.929 . S
C91 C92 1.398 . S
C91 C93 1.396 . S
C92 C91 1.398 . S
C92 C96 1.407 . S
C93 C91 1.396 . S
C93 C94 1.394 . S
C94 H89 0.929 . S
C94 C93 1.394 . S
C94 C95 1.382 . S
C95 C94 1.382 . S
C95 C96 1.392 . S
C95 N97 1.420 . S
C96 H90 0.930 . S
C96 C92 1.407 . S
C96 C95 1.392 . S
N97 C95 1.420 . S
N97 C98 1.244 . S
C98 N97 1.244 . S
H99 C102 0.929 . S
H100 C105 0.931 1_545 S
H101 C107 0.930 . S
C102 H99 0.929 . S
C102 C103 1.398 . S
C102 C104 1.396 . S
C103 C102 1.398 . S
C103 C107 1.407 . S
C104 C102 1.396 . S
C104 C105 1.392 . S
C105 H100 0.931 1_565 S
C105 C104 1.392 . S
C105 C106 1.382 . S
C106 C105 1.382 . S
C106 C107 1.392 . S
C106 N108 1.420 1_565 S
C107 H101 0.930 . S
C107 C103 1.407 . S
C107 C106 1.392 . S
N108 C106 1.420 1_545 S
N108 C109 1.244 . S
C109 N108 1.244 . S
H110 C113 0.929 . S
H111 C116 0.929 . S
H112 C118 0.930 . S
C113 H110 0.929 . S
C113 C114 1.398 . S
C113 C115 1.396 . S
C114 C113 1.398 . S
C114 C118 1.407 . S
C115 C113 1.396 . S
C115 C116 1.394 . S
C116 H111 0.929 . S
C116 C115 1.394 . S
C116 C117 1.382 . S
C117 C116 1.382 . S
C117 C118 1.392 . S
C117 N119 1.420 . S
C118 H112 0.930 . S
C118 C114 1.407 . S
C118 C117 1.392 . S
N119 C117 1.420 . S
N119 C120 1.244 . S
C120 N119 1.244 . S
H121 C124 0.929 . S
H122 C127 0.929 . S
H123 C129 0.930 . S
C124 H121 0.929 . S
C124 C125 1.398 . S
C124 C126 1.396 . S
C125 C124 1.398 . S
C125 C129 1.407 . S
C126 C124 1.396 . S
C126 C127 1.394 . S
C127 H122 0.929 . S
C127 C126 1.394 . S
C127 C128 1.382 . S
C128 C127 1.382 . S
C128 C129 1.392 . S
C128 N130 1.420 . S
C129 H123 0.930 . S
C129 C125 1.407 . S
C129 C128 1.392 . S
N130 C128 1.420 . S
N130 C131 1.244 . S
C131 N130 1.244 . S
H132 C135 0.929 . S
H133 C138 0.929 . S
H134 C140 0.930 . S
C135 H132 0.929 . S
C135 C136 1.398 . S
C135 C137 1.396 . S
C136 C135 1.398 . S
C136 C140 1.407 . S
C137 C135 1.396 . S
C137 C138 1.394 . S
C138 H133 0.929 . S
C138 C137 1.394 . S
C138 C139 1.382 . S
C139 C138 1.382 . S
C139 C140 1.392 . S
C139 N141 1.420 . S
C140 H134 0.930 . S
C140 C136 1.407 . S
C140 C139 1.392 . S
N141 C139 1.420 . S
N141 C142 1.244 . S
C142 N141 1.244 . S
H143 C146 0.929 . S
H144 C149 0.929 . S
H145 C151 0.930 . S
C146 H143 0.929 . S
C146 C147 1.398 . S
C146 C148 1.396 . S
C147 C146 1.398 . S
C147 C151 1.407 . S
C148 C146 1.396 . S
C148 C149 1.394 1_556 S
C149 H144 0.929 . S
C149 C148 1.394 1_554 S
C149 C150 1.382 1_554 S
C150 C149 1.382 1_556 S
C150 C151 1.392 . S
C150 N152 1.420 1_556 S
C151 H145 0.930 . S
C151 C147 1.407 . S
C151 C150 1.392 . S
N152 C150 1.420 1_554 S
N152 C153 1.244 . S
C153 N152 1.244 . S
H154 C157 0.929 . S
H155 C160 0.929 . S
H156 C162 0.930 . S
C157 H154 0.929 . S
C157 C158 1.398 . S
C157 C159 1.396 . S
C158 C157 1.398 . S
C158 C162 1.407 . S
C159 C157 1.396 . S
C159 C160 1.394 . S
C160 H155 0.929 . S
C160 C159 1.394 . S
C160 C161 1.382 . S
C161 C160 1.382 . S
C161 C162 1.392 . S
C161 N163 1.420 . S
C162 H156 0.930 . S
C162 C158 1.407 . S
C162 C161 1.392 . S
N163 C161 1.420 . S
N163 C164 1.244 . S
C164 N163 1.244 . S
H165 C168 0.929 . S
H166 C171 0.929 . S
H167 C173 0.930 . S
C168 H165 0.929 . S
C168 C169 1.398 1_554 S
C168 C170 1.396 . S
C169 C168 1.398 1_556 S
C169 C173 1.407 1_545 S
C170 C168 1.396 . S
C170 C171 1.394 1_554 S
C171 H166 0.929 . S
C171 C170 1.394 1_556 S
C171 C172 1.382 . S
C172 C171 1.382 . S
C172 C173 1.392 1_545 S
C172 N174 1.420 . S
C173 H167 0.930 . S
C173 C169 1.407 1_565 S
C173 C172 1.392 1_565 S
N174 C172 1.420 . S
N174 C175 1.244 . S
C175 N174 1.244 . S
Mg176 O177 2.028 . S
Mg176 O183 1.986 1_554 S
Mg176 O185 2.114 . S
Mg176 O186 2.251 . S
Mg176 O189 2.010 . S
O177 Mg176 2.028 . S
O177 C180 1.250 . S
O178 Mg179 2.028 . S
O178 C180 1.248 . S
Mg179 O178 2.028 . S
Mg179 O184 2.032 1_554 S
Mg179 O186 2.079 . S
C180 O177 1.250 . S
C180 O178 1.248 . S
C181 O182 1.264 . S
C181 O189 1.249 . S
O182 C181 1.264 . S
O183 Mg176 1.986 1_556 S
O183 C187 1.246 . S
O184 Mg179 2.032 1_556 S
O184 C187 1.259 . S
O185 Mg176 2.114 . S
O185 C188 1.252 . S
O186 Mg176 2.251 . S
O186 Mg179 2.079 . S
O186 C188 1.273 . S
C187 O183 1.246 . S
C187 O184 1.259 . S
C188 O185 1.252 . S
C188 O186 1.273 . S
O189 Mg176 2.010 . S
O189 C181 1.249 . S
Mg190 O191 2.028 . S
Mg190 O197 1.986 . S
Mg190 O199 2.114 . S
Mg190 O200 2.251 . S
Mg190 O203 2.010 . S
O191 Mg190 2.028 . S
O191 C194 1.250 . S
O192 Mg193 2.028 . S
O192 C194 1.248 . S
Mg193 O192 2.028 . S
Mg193 O198 2.032 . S
Mg193 O200 2.079 . S
C194 O191 1.250 . S
C194 O192 1.248 . S
C195 O196 1.264 . S
C195 O203 1.249 . S
O196 C195 1.264 . S
O197 Mg190 1.986 . S
O197 C201 1.246 . S
O198 Mg193 2.032 . S
O198 C201 1.259 . S
O199 Mg190 2.114 . S
O199 C202 1.252 . S
O200 Mg190 2.251 . S
O200 Mg193 2.079 . S
O200 C202 1.273 . S
C201 O197 1.246 . S
C201 O198 1.259 . S
C202 O199 1.252 . S
C202 O200 1.273 . S
O203 Mg190 2.010 . S
O203 C195 1.249 . S
Mg204 O205 2.028 1_554 S
Mg204 O211 1.986 1_554 S
Mg204 O213 2.114 . S
Mg204 O214 2.251 . S
Mg204 O217 2.010 . S
O205 Mg204 2.028 1_556 S
O205 C208 1.250 . S
O206 Mg207 2.028 . S
O206 C208 1.248 . S
Mg207 O206 2.028 . S
Mg207 O212 2.032 . S
Mg207 O214 2.079 1_556 S
C208 O205 1.250 . S
C208 O206 1.248 . S
C209 O210 1.264 . S
C209 O217 1.249 . S
O210 C209 1.264 . S
O211 Mg204 1.986 1_556 S
O211 C215 1.246 . S
O212 Mg207 2.032 . S
O212 C215 1.259 . S
O213 Mg204 2.114 . S
O213 C216 1.252 . S
O214 Mg204 2.251 . S
O214 Mg207 2.079 1_554 S
O214 C216 1.273 . S
C215 O211 1.246 . S
C215 O212 1.259 . S
C216 O213 1.252 . S
C216 O214 1.273 . S
O217 Mg204 2.010 . S
O217 C209 1.249 . S
Mg218 O219 2.028 . S
Mg218 O225 1.986 . S
Mg218 O227 2.114 . S
Mg218 O228 2.251 . S
Mg218 O231 2.010 . S
O219 Mg218 2.028 . S
O219 C222 1.250 1_545 S
O220 Mg221 2.028 . S
O220 C222 1.248 . S
Mg221 O220 2.028 . S
Mg221 O226 2.032 . S
Mg221 O228 2.079 1_565 S
C222 O219 1.250 1_565 S
C222 O220 1.248 . S
C223 O224 1.264 . S
C223 O231 1.249 . S
O224 C223 1.264 . S
O225 Mg218 1.986 . S
O225 C229 1.246 . S
O226 Mg221 2.032 . S
O226 C229 1.259 1_565 S
O227 Mg218 2.114 . S
O227 C230 1.252 . S
O228 Mg218 2.251 . S
O228 Mg221 2.079 1_545 S
O228 C230 1.273 . S
C229 O225 1.246 . S
C229 O226 1.259 1_545 S
C230 O227 1.252 . S
C230 O228 1.273 . S
O231 Mg218 2.010 . S
O231 C223 1.249 . S
Mg232 O233 2.028 . S
Mg232 O239 1.986 . S
Mg232 O241 2.114 . S
Mg232 O242 2.251 . S
Mg232 O245 2.010 . S
O233 Mg232 2.028 . S
O233 C236 1.250 . S
O234 Mg235 2.028 . S
O234 C236 1.248 . S
Mg235 O234 2.028 . S
Mg235 O240 2.032 . S
Mg235 O242 2.079 . S
C236 O233 1.250 . S
C236 O234 1.248 . S
C237 O238 1.264 . S
C237 O245 1.249 . S
O238 C237 1.264 . S
O239 Mg232 1.986 . S
O239 C243 1.246 . S
O240 Mg235 2.032 . S
O240 C243 1.259 . S
O241 Mg232 2.114 . S
O241 C244 1.252 . S
O242 Mg232 2.251 . S
O242 Mg235 2.079 . S
O242 C244 1.273 . S
C243 O239 1.246 . S
C243 O240 1.259 . S
C244 O241 1.252 . S
C244 O242 1.273 . S
O245 Mg232 2.010 . S
O245 C237 1.249 . S
Mg246 O247 2.028 . S
Mg246 O253 1.986 . S
Mg246 O255 2.114 . S
Mg246 O256 2.251 . S
Mg246 O259 2.010 . S
O247 Mg246 2.028 . S
O247 C250 1.250 . S
O248 Mg249 2.028 . S
O248 C250 1.248 . S
Mg249 O248 2.028 . S
Mg249 O254 2.032 . S
Mg249 O256 2.079 . S
C250 O247 1.250 . S
C250 O248 1.248 . S
C251 O252 1.264 . S
C251 O259 1.249 . S
O252 C251 1.264 . S
O253 Mg246 1.986 . S
O253 C257 1.246 . S
O254 Mg249 2.032 . S
O254 C257 1.259 . S
O255 Mg246 2.114 . S
O255 C258 1.252 . S
O256 Mg246 2.251 . S
O256 Mg249 2.079 . S
O256 C258 1.273 . S
C257 O253 1.246 . S
C257 O254 1.259 . S
C258 O255 1.252 . S
C258 O256 1.273 . S
O259 Mg246 2.010 . S
O259 C251 1.249 . S
Mg260 O261 2.028 . S
Mg260 O267 1.986 . S
Mg260 O269 2.114 . S
Mg260 O270 2.251 . S
Mg260 O273 2.010 . S
O261 Mg260 2.028 . S
O261 C264 1.250 . S
O262 Mg263 2.028 . S
O262 C264 1.248 . S
Mg263 O262 2.028 . S
Mg263 O268 2.032 . S
Mg263 O270 2.079 . S
C264 O261 1.250 . S
C264 O262 1.248 . S
C265 O266 1.264 . S
C265 O273 1.249 . S
O266 C265 1.264 . S
O267 Mg260 1.986 . S
O267 C271 1.246 . S
O268 Mg263 2.032 . S
O268 C271 1.259 . S
O269 Mg260 2.114 . S
O269 C272 1.252 . S
O270 Mg260 2.251 . S
O270 Mg263 2.079 . S
O270 C272 1.273 . S
C271 O267 1.246 . S
C271 O268 1.259 . S
C272 O269 1.252 . S
C272 O270 1.273 . S
O273 Mg260 2.010 . S
O273 C265 1.249 . S
Mg274 O275 2.028 1_545 S
Mg274 O281 1.986 1_545 S
Mg274 O283 2.114 . S
Mg274 O284 2.251 . S
Mg274 O287 2.010 . S
O275 Mg274 2.028 1_565 S
O275 C278 1.250 . S
O276 Mg277 2.028 . S
O276 C278 1.248 . S
Mg277 O276 2.028 . S
Mg277 O282 2.032 . S
Mg277 O284 2.079 1_565 S
C278 O275 1.250 . S
C278 O276 1.248 . S
C279 O280 1.264 . S
C279 O287 1.249 . S
O280 C279 1.264 . S
O281 Mg274 1.986 1_565 S
O281 C285 1.246 . S
O282 Mg277 2.032 . S
O282 C285 1.259 . S
O283 Mg274 2.114 . S
O283 C286 1.252 . S
O284 Mg274 2.251 . S
O284 Mg277 2.079 1_545 S
O284 C286 1.273 . S
C285 O281 1.246 . S
C285 O282 1.259 . S
C286 O283 1.252 . S
C286 O284 1.273 . S
O287 Mg274 2.010 . S
O287 C279 1.249 . S
Mg288 O289 2.028 . S
Mg288 O295 1.986 . S
Mg288 O297 2.114 . S
Mg288 O298 2.251 . S
Mg288 O301 2.010 . S
O289 Mg288 2.028 . S
O289 C292 1.250 1_455 S
O290 Mg291 2.028 . S
O290 C292 1.248 . S
Mg291 O290 2.028 . S
Mg291 O296 2.032 . S
Mg291 O298 2.079 1_655 S
C292 O289 1.250 1_655 S
C292 O290 1.248 . S
C293 O294 1.264 . S
C293 O301 1.249 . S
O294 C293 1.264 . S
O295 Mg288 1.986 . S
O295 C299 1.246 . S
O296 Mg291 2.032 . S
O296 C299 1.259 1_655 S
O297 Mg288 2.114 . S
O297 C300 1.252 . S
O298 Mg288 2.251 . S
O298 Mg291 2.079 1_455 S
O298 C300 1.273 . S
C299 O295 1.246 . S
C299 O296 1.259 1_455 S
C300 O297 1.252 . S
C300 O298 1.273 . S
O301 Mg288 2.010 . S
O301 C293 1.249 . S
Mg302 O303 2.028 . S
Mg302 O309 1.986 . S
Mg302 O311 2.114 . S
Mg302 O312 2.251 . S
Mg302 O315 2.010 . S
O303 Mg302 2.028 . S
O303 C306 1.250 . S
O304 Mg305 2.028 . S
O304 C306 1.248 . S
Mg305 O304 2.028 . S
Mg305 O310 2.032 . S
Mg305 O312 2.079 . S
C306 O303 1.250 . S
C306 O304 1.248 . S
C307 O308 1.264 . S
C307 O315 1.249 . S
O308 C307 1.264 . S
O309 Mg302 1.986 . S
O309 C313 1.246 . S
O310 Mg305 2.032 . S
O310 C313 1.259 . S
O311 Mg302 2.114 . S
O311 C314 1.252 . S
O312 Mg302 2.251 . S
O312 Mg305 2.079 . S
O312 C314 1.273 . S
C313 O309 1.246 . S
C313 O310 1.259 . S
C314 O311 1.252 . S
C314 O312 1.273 . S
O315 Mg302 2.010 . S
O315 C307 1.249 . S
Mg316 O317 2.028 1_655 S
Mg316 O323 1.986 1_655 S
Mg316 O325 2.114 . S
Mg316 O326 2.251 1_655 S
Mg316 O329 2.010 . S
O317 Mg316 2.028 1_455 S
O317 C320 1.250 . S
O318 Mg319 2.028 . S
O318 C320 1.248 . S
Mg319 O318 2.028 . S
Mg319 O324 2.032 . S
Mg319 O326 2.079 . S
C320 O317 1.250 . S
C320 O318 1.248 . S
C321 O322 1.264 . S
C321 O329 1.249 . S
O322 C321 1.264 . S
O323 Mg316 1.986 1_455 S
O323 C327 1.246 . S
O324 Mg319 2.032 . S
O324 C327 1.259 . S
O325 Mg316 2.114 . S
O325 C328 1.252 . S
O326 Mg316 2.251 1_455 S
O326 Mg319 2.079 . S
O326 C328 1.273 1_455 S
C327 O323 1.246 . S
C327 O324 1.259 . S
C328 O325 1.252 . S
C328 O326 1.273 1_655 S
O329 Mg316 2.010 . S
O329 C321 1.249 . S
Mg330 O331 2.028 . S
Mg330 O337 1.986 . S
Mg330 O339 2.114 . S
Mg330 O340 2.251 . S
Mg330 O343 2.010 . S
O331 Mg330 2.028 . S
O331 C334 1.250 . S
O332 Mg333 2.028 . S
O332 C334 1.248 . S
Mg333 O332 2.028 . S
Mg333 O338 2.032 . S
Mg333 O340 2.079 . S
C334 O331 1.250 . S
C334 O332 1.248 . S
C335 O336 1.264 . S
C335 O343 1.249 . S
O336 C335 1.264 . S
O337 Mg330 1.986 . S
O337 C341 1.246 . S
O338 Mg333 2.032 . S
O338 C341 1.259 . S
O339 Mg330 2.114 . S
O339 C342 1.252 . S
O340 Mg330 2.251 . S
O340 Mg333 2.079 . S
O340 C342 1.273 . S
C341 O337 1.246 . S
C341 O338 1.259 . S
C342 O339 1.252 . S
C342 O340 1.273 . S
O343 Mg330 2.010 . S
O343 C335 1.249 . S
C344 C345 1.363 . S
C344 C350 1.379 . S
C344 N352 1.356 . S
C345 C344 1.363 . S
C345 C351 1.363 . S
C346 C347 1.363 . S
C346 C351 1.379 . S
C346 N353 1.356 . S
C347 C346 1.363 . S
C347 C350 1.363 . S
N348 C350 1.356 . S
N348 H360 0.984 . S
N348 H361 0.985 . S
N349 C351 1.356 . S
N349 H354 0.984 . S
N349 H355 0.985 . S
C350 C344 1.379 . S
C350 C347 1.363 . S
C350 N348 1.356 . S
C351 C345 1.363 . S
C351 C346 1.379 . S
C351 N349 1.356 . S
N352 C344 1.356 . S
N352 H358 0.984 . S
N352 H359 0.984 . S
N353 C346 1.356 . S
N353 H356 0.984 . S
N353 H357 0.985 . S
H354 N349 0.984 . S
H355 N349 0.985 . S
H356 N353 0.984 . S
H357 N353 0.985 . S
H358 N352 0.984 . S
H359 N352 0.984 . S
H360 N348 0.984 . S
H361 N348 0.985 . S
C362 C363 1.363 . S
C362 C368 1.379 . S
C362 N370 1.356 . S
C363 C362 1.363 . S
C363 C369 1.363 . S
C364 C365 1.363 . S
C364 C369 1.379 . S
C364 N371 1.356 . S
C365 C364 1.363 . S
C365 C368 1.363 . S
N366 C368 1.356 . S
N366 H378 0.984 . S
N366 H379 0.985 . S
N367 C369 1.356 . S
N367 H372 0.984 . S
N367 H373 0.985 . S
C368 C362 1.379 . S
C368 C365 1.363 . S
C368 N366 1.356 . S
C369 C363 1.363 . S
C369 C364 1.379 . S
C369 N367 1.356 . S
N370 C362 1.356 . S
N370 H376 0.984 . S
N370 H377 0.984 . S
N371 C364 1.356 . S
N371 H374 0.984 . S
N371 H375 0.985 . S
H372 N367 0.984 . S
H373 N367 0.985 . S
H374 N371 0.984 . S
H375 N371 0.985 . S
H376 N370 0.984 . S
H377 N370 0.984 . S
H378 N366 0.984 . S
H379 N366 0.985 . S
C380 C381 1.363 . S
C380 C386 1.379 . S
C380 N388 1.356 . S
C381 C380 1.363 . S
C381 C387 1.363 . S
C382 C383 1.363 . S
C382 C387 1.379 . S
C382 N389 1.356 . S
C383 C382 1.363 . S
C383 C386 1.363 . S
N384 C386 1.356 . S
N384 H396 0.984 . S
N384 H397 0.985 . S
N385 C387 1.356 . S
N385 H390 0.984 . S
N385 H391 0.985 . S
C386 C380 1.379 . S
C386 C383 1.363 . S
C386 N384 1.356 . S
C387 C381 1.363 . S
C387 C382 1.379 . S
C387 N385 1.356 . S
N388 C380 1.356 . S
N388 H394 0.984 . S
N388 H395 0.984 . S
N389 C382 1.356 . S
N389 H392 0.984 . S
N389 H393 0.985 . S
H390 N385 0.984 . S
H391 N385 0.985 . S
H392 N389 0.984 . S
H393 N389 0.985 . S
H394 N388 0.984 . S
H395 N388 0.984 . S
H396 N384 0.984 . S
H397 N384 0.985 . S
C398 C399 1.363 . S
C398 C404 1.379 . S
C398 N406 1.356 . S
C399 C398 1.363 . S
C399 C405 1.363 1_545 S
C400 C401 1.363 1_565 S
C400 C405 1.379 1_655 S
C400 N407 1.356 . S
C401 C400 1.363 1_545 S
C401 C404 1.363 1_655 S
N402 C404 1.356 . S
N402 H414 0.984 . S
N402 H415 0.983 1_455 S
N403 C405 1.356 . S
N403 H408 0.984 . S
N403 H409 0.985 . S
C404 C398 1.379 . S
C404 C401 1.363 1_455 S
C404 N402 1.356 . S
C405 C399 1.363 1_565 S
C405 C400 1.379 1_455 S
C405 N403 1.356 . S
N406 C398 1.356 . S
N406 H412 0.984 . S
N406 H413 0.984 . S
N407 C400 1.356 . S
N407 H410 0.984 . S
N407 H411 0.985 . S
H408 N403 0.984 . S
H409 N403 0.985 . S
H410 N407 0.984 . S
H411 N407 0.985 . S
H412 N406 0.984 . S
H413 N406 0.984 . S
H414 N402 0.984 . S
H415 N402 0.983 1_655 S
C416 C417 1.363 . S
C416 C422 1.379 . S
C416 N424 1.356 . S
C417 C416 1.363 . S
C417 C423 1.363 . S
C418 C419 1.363 . S
C418 C423 1.379 . S
C418 N425 1.356 . S
C419 C418 1.363 . S
C419 C422 1.363 . S
N420 C422 1.356 . S
N420 H432 0.984 . S
N420 H433 0.985 . S
N421 C423 1.356 . S
N421 H426 0.984 . S
N421 H427 0.985 . S
C422 C416 1.379 . S
C422 C419 1.363 . S
C422 N420 1.356 . S
C423 C417 1.363 . S
C423 C418 1.379 . S
C423 N421 1.356 . S
N424 C416 1.356 . S
N424 H430 0.984 . S
N424 H431 0.984 . S
N425 C418 1.356 . S
N425 H428 0.984 . S
N425 H429 0.985 . S
H426 N421 0.984 . S
H427 N421 0.985 . S
H428 N425 0.984 . S
H429 N425 0.985 . S
H430 N424 0.984 . S
H431 N424 0.984 . S
H432 N420 0.984 . S
H433 N420 0.985 . S
C434 C435 1.363 . S
C434 C440 1.379 . S
C434 N442 1.356 . S
C435 C434 1.363 . S
C435 C441 1.363 . S
C436 C437 1.363 . S
C436 C441 1.379 . S
C436 N443 1.356 . S
C437 C436 1.363 . S
C437 C440 1.363 . S
N438 C440 1.356 . S
N438 H450 0.984 . S
N438 H451 0.985 . S
N439 C441 1.356 . S
N439 H444 0.984 . S
N439 H445 0.985 . S
C440 C434 1.379 . S
C440 C437 1.363 . S
C440 N438 1.356 . S
C441 C435 1.363 . S
C441 C436 1.379 . S
C441 N439 1.356 . S
N442 C434 1.356 . S
N442 H448 0.984 . S
N442 H449 0.984 . S
N443 C436 1.356 . S
N443 H446 0.984 . S
N443 H447 0.985 . S
H444 N439 0.984 . S
H445 N439 0.985 . S
H446 N443 0.984 . S
H447 N443 0.985 . S
H448 N442 0.984 . S
H449 N442 0.984 . S
H450 N438 0.984 . S
H451 N438 0.985 . S
C452 C453 1.363 . S
C452 C458 1.379 . S
C452 N460 1.356 . S
C453 C452 1.363 . S
C453 C459 1.363 . S
C454 C455 1.363 . S
C454 C459 1.379 . S
C454 N461 1.356 . S
C455 C454 1.363 . S
C455 C458 1.363 . S
N456 C458 1.356 . S
N456 H468 0.984 . S
N456 H469 0.985 . S
N457 C459 1.356 . S
N457 H462 0.984 . S
N457 H463 0.985 . S
C458 C452 1.379 . S
C458 C455 1.363 . S
C458 N456 1.356 . S
C459 C453 1.363 . S
C459 C454 1.379 . S
C459 N457 1.356 . S
N460 C452 1.356 . S
N460 H466 0.984 . S
N460 H467 0.984 . S
N461 C454 1.356 . S
N461 H464 0.984 . S
N461 H465 0.985 . S
H462 N457 0.984 . S
H463 N457 0.985 . S
H464 N461 0.984 . S
H465 N461 0.985 . S
H466 N460 0.984 . S
H467 N460 0.984 . S
H468 N456 0.984 . S
H469 N456 0.985 . S
C470 C471 1.363 . S
C470 C476 1.379 . S
C470 N478 1.356 . S
C471 C470 1.363 . S
C471 C477 1.363 1_565 S
C472 C473 1.363 1_545 S
C472 C477 1.379 . S
C472 N479 1.356 . S
C473 C472 1.363 1_565 S
C473 C476 1.363 . S
N474 C476 1.356 . S
N474 H486 0.984 . S
N474 H487 0.985 . S
N475 C477 1.356 . S
N475 H480 0.984 . S
N475 H481 0.985 . S
C476 C470 1.379 . S
C476 C473 1.363 . S
C476 N474 1.356 . S
C477 C471 1.363 1_545 S
C477 C472 1.379 . S
C477 N475 1.356 . S
N478 C470 1.356 . S
N478 H484 0.984 . S
N478 H485 0.984 . S
N479 C472 1.356 . S
N479 H482 0.984 . S
N479 H483 0.985 . S
H480 N475 0.984 . S
H481 N475 0.985 . S
H482 N479 0.984 . S
H483 N479 0.985 . S
H484 N478 0.984 . S
H485 N478 0.984 . S
H486 N474 0.984 . S
H487 N474 0.985 . S
C488 C489 1.363 . S
C488 C494 1.379 . S
C488 N496 1.356 . S
C489 C488 1.363 . S
C489 C495 1.363 . S
C490 C491 1.363 . S
C490 C495 1.379 . S
C490 N497 1.356 . S
C491 C490 1.363 . S
C491 C494 1.363 . S
N492 C494 1.356 . S
N492 H504 0.984 . S
N492 H505 0.985 . S
N493 C495 1.356 . S
N493 H498 0.984 . S
N493 H499 0.985 . S
C494 C488 1.379 . S
C494 C491 1.363 . S
C494 N492 1.356 . S
C495 C489 1.363 . S
C495 C490 1.379 . S
C495 N493 1.356 . S
N496 C488 1.356 . S
N496 H502 0.984 . S
N496 H503 0.984 . S
N497 C490 1.356 . S
N497 H500 0.984 . S
N497 H501 0.985 . S
H498 N493 0.984 . S
H499 N493 0.985 . S
H500 N497 0.984 . S
H501 N497 0.985 . S
H502 N496 0.984 . S
H503 N496 0.984 . S
H504 N492 0.984 . S
H505 N492 0.985 . S
C506 C507 1.363 . S
C506 C512 1.379 . S
C506 N514 1.356 . S
C507 C506 1.363 . S
C507 C513 1.363 . S
C508 C509 1.363 . S
C508 C513 1.379 . S
C508 N515 1.356 . S
C509 C508 1.363 . S
C509 C512 1.363 . S
N510 C512 1.356 . S
N510 H522 0.984 . S
N510 H523 0.985 . S
N511 C513 1.356 . S
N511 H516 0.984 . S
N511 H517 0.985 . S
C512 C506 1.379 . S
C512 C509 1.363 . S
C512 N510 1.356 . S
C513 C507 1.363 . S
C513 C508 1.379 . S
C513 N511 1.356 . S
N514 C506 1.356 . S
N514 H520 0.984 . S
N514 H521 0.984 . S
N515 C508 1.356 . S
N515 H518 0.984 . S
N515 H519 0.985 . S
H516 N511 0.984 . S
H517 N511 0.985 . S
H518 N515 0.984 . S
H519 N515 0.985 . S
H520 N514 0.984 . S
H521 N514 0.984 . S
H522 N510 0.984 . S
H523 N510 0.985 . S
C524 C525 1.363 . S
C524 C530 1.379 . S
C524 N532 1.356 . S
C525 C524 1.363 . S
C525 C531 1.363 . S
C526 C527 1.363 . S
C526 C531 1.379 . S
C526 N533 1.356 . S
C527 C526 1.363 . S
C527 C530 1.363 . S
N528 C530 1.356 . S
N528 H540 0.984 . S
N528 H541 0.985 . S
N529 C531 1.356 . S
N529 H534 0.984 . S
N529 H535 0.985 . S
C530 C524 1.379 . S
C530 C527 1.363 . S
C530 N528 1.356 . S
C531 C525 1.363 . S
C531 C526 1.379 . S
C531 N529 1.356 . S
N532 C524 1.356 . S
N532 H538 0.984 . S
N532 H539 0.984 . S
N533 C526 1.356 . S
N533 H536 0.984 . S
N533 H537 0.985 . S
H534 N529 0.984 . S
H535 N529 0.985 . S
H536 N533 0.984 . S
H537 N533 0.985 . S
H538 N532 0.984 . S
H539 N532 0.984 . S
H540 N528 0.984 . S
H541 N528 0.985 . S
C542 C543 1.363 . S
C542 C548 1.379 . S
C542 N550 1.356 . S
C543 C542 1.363 . S
C543 C549 1.363 . S
C544 C545 1.363 . S
C544 C549 1.379 . S
C544 N551 1.356 . S
C545 C544 1.363 . S
C545 C548 1.363 . S
N546 C548 1.356 . S
N546 H558 0.984 . S
N546 H559 0.985 . S
N547 C549 1.356 . S
N547 H552 0.984 . S
N547 H553 0.985 . S
C548 C542 1.379 . S
C548 C545 1.363 . S
C548 N546 1.356 . S
C549 C543 1.363 . S
C549 C544 1.379 . S
C549 N547 1.356 . S
N550 C542 1.356 . S
N550 H556 0.984 . S
N550 H557 0.984 . S
N551 C544 1.356 . S
N551 H554 0.984 . S
N551 H555 0.985 . S
H552 N547 0.984 . S
H553 N547 0.985 . S
H554 N551 0.984 . S
H555 N551 0.985 . S
H556 N550 0.984 . S
H557 N550 0.984 . S
H558 N546 0.984 . S
H559 N546 0.985 . S
C560 C561 1.363 . S
C560 C566 1.379 . S
C560 N568 1.356 . S
C561 C560 1.363 . S
C561 C567 1.363 . S
C562 C563 1.363 . S
C562 C567 1.379 . S
C562 N569 1.356 . S
C563 C562 1.363 . S
C563 C566 1.363 . S
N564 C566 1.356 . S
N564 H576 0.984 . S
N564 H577 0.985 . S
N565 C567 1.356 . S
N565 H570 0.984 . S
N565 H571 0.985 . S
C566 C560 1.379 . S
C566 C563 1.363 . S
C566 N564 1.356 . S
C567 C561 1.363 . S
C567 C562 1.379 . S
C567 N565 1.356 . S
N568 C560 1.356 . S
N568 H574 0.984 . S
N568 H575 0.984 . S
N569 C562 1.356 . S
N569 H572 0.984 . S
N569 H573 0.985 . S
H570 N565 0.984 . S
H571 N565 0.985 . S
H572 N569 0.984 . S
H573 N569 0.985 . S
H574 N568 0.984 . S
H575 N568 0.984 . S
H576 N564 0.984 . S
H577 N564 0.985 . S
C578 C579 1.363 . S
C578 C584 1.379 . S
C578 N586 1.356 . S
C579 C578 1.363 . S
C579 C585 1.363 . S
C580 C581 1.363 . S
C580 C585 1.379 . S
C580 N587 1.356 . S
C581 C580 1.363 . S
C581 C584 1.363 . S
N582 C584 1.356 . S
N582 H594 0.984 . S
N582 H595 0.985 . S
N583 C585 1.356 . S
N583 H588 0.984 . S
N583 H589 0.985 . S
C584 C578 1.379 . S
C584 C581 1.363 . S
C584 N582 1.356 . S
C585 C579 1.363 . S
C585 C580 1.379 . S
C585 N583 1.356 . S
N586 C578 1.356 . S
N586 H592 0.984 . S
N586 H593 0.984 . S
N587 C580 1.356 . S
N587 H590 0.984 . S
N587 H591 0.985 . S
H588 N583 0.984 . S
H589 N583 0.985 . S
H590 N587 0.984 . S
H591 N587 0.985 . S
H592 N586 0.984 . S
H593 N586 0.984 . S
H594 N582 0.984 . S
H595 N582 0.985 . S
C596 C597 1.363 . S
C596 C602 1.379 . S
C596 N604 1.356 . S
C597 C596 1.363 . S
C597 C603 1.363 . S
C598 C599 1.363 . S
C598 C603 1.379 . S
C598 N605 1.356 . S
C599 C598 1.363 . S
C599 C602 1.363 . S
N600 C602 1.356 . S
N600 H612 0.984 . S
N600 H613 0.985 . S
N601 C603 1.356 . S
N601 H606 0.984 . S
N601 H607 0.985 . S
C602 C596 1.379 . S
C602 C599 1.363 . S
C602 N600 1.356 . S
C603 C597 1.363 . S
C603 C598 1.379 . S
C603 N601 1.356 . S
N604 C596 1.356 . S
N604 H610 0.984 . S
N604 H611 0.984 . S
N605 C598 1.356 . S
N605 H608 0.984 . S
N605 H609 0.985 . S
H606 N601 0.984 . S
H607 N601 0.985 . S
H608 N605 0.984 . S
H609 N605 0.985 . S
H610 N604 0.984 . S
H611 N604 0.984 . S
H612 N600 0.984 . S
H613 N600 0.985 . S
C614 C615 1.363 . S
C614 C620 1.379 . S
C614 N622 1.356 . S
C615 C614 1.363 . S
C615 C621 1.363 . S
C616 C617 1.363 . S
C616 C621 1.379 . S
C616 N623 1.356 . S
C617 C616 1.363 . S
C617 C620 1.363 . S
N618 C620 1.356 . S
N618 H630 0.984 . S
N618 H631 0.985 . S
N619 C621 1.356 . S
N619 H624 0.984 . S
N619 H625 0.985 . S
C620 C614 1.379 . S
C620 C617 1.363 . S
C620 N618 1.356 . S
C621 C615 1.363 . S
C621 C616 1.379 . S
C621 N619 1.356 . S
N622 C614 1.356 . S
N622 H628 0.984 . S
N622 H629 0.984 . S
N623 C616 1.356 . S
N623 H626 0.984 . S
N623 H627 0.985 . S
H624 N619 0.984 . S
H625 N619 0.985 . S
H626 N623 0.984 . S
H627 N623 0.985 . S
H628 N622 0.984 . S
H629 N622 0.984 . S
H630 N618 0.984 . S
H631 N618 0.985 . S
C632 C633 1.363 . S
C632 C638 1.379 . S
C632 N640 1.356 . S
C633 C632 1.363 . S
C633 C639 1.363 . S
C634 C635 1.363 . S
C634 C639 1.379 . S
C634 N641 1.356 . S
C635 C634 1.363 . S
C635 C638 1.363 . S
N636 C638 1.356 . S
N636 H648 0.984 . S
N636 H649 0.985 . S
N637 C639 1.356 . S
N637 H642 0.984 . S
N637 H643 0.985 . S
C638 C632 1.379 . S
C638 C635 1.363 . S
C638 N636 1.356 . S
C639 C633 1.363 . S
C639 C634 1.379 . S
C639 N637 1.356 . S
N640 C632 1.356 . S
N640 H646 0.984 . S
N640 H647 0.984 . S
N641 C634 1.356 . S
N641 H644 0.984 . S
N641 H645 0.985 . S
H642 N637 0.984 . S
H643 N637 0.985 . S
H644 N641 0.984 . S
H645 N641 0.985 . S
H646 N640 0.984 . S
H647 N640 0.984 . S
H648 N636 0.984 . S
H649 N636 0.985 . S
C650 C651 1.363 . S
C650 C656 1.379 . S
C650 N658 1.356 . S
C651 C650 1.363 . S
C651 C657 1.363 . S
C652 C653 1.363 . S
C652 C657 1.379 . S
C652 N659 1.356 . S
C653 C652 1.363 . S
C653 C656 1.363 . S
N654 C656 1.356 . S
N654 H666 0.984 . S
N654 H667 0.985 . S
N655 C657 1.356 . S
N655 H660 0.984 . S
N655 H661 0.985 . S
C656 C650 1.379 . S
C656 C653 1.363 . S
C656 N654 1.356 . S
C657 C651 1.363 . S
C657 C652 1.379 . S
C657 N655 1.356 . S
N658 C650 1.356 . S
N658 H664 0.984 . S
N658 H665 0.984 . S
N659 C652 1.356 . S
N659 H662 0.984 . S
N659 H663 0.985 . S
H660 N655 0.984 . S
H661 N655 0.985 . S
H662 N659 0.984 . S
H663 N659 0.985 . S
H664 N658 0.984 . S
H665 N658 0.984 . S
H666 N654 0.984 . S
H667 N654 0.985 . S
C668 C669 1.374 . S
C668 C674 1.379 . S
C668 N676 1.356 1_565 S
C669 C668 1.374 . S
C669 C675 1.340 1_556 S
C670 C671 1.363 . S
C670 C675 1.379 . S
C670 N677 1.356 . S
C671 C670 1.363 . S
C671 C674 1.363 1_554 S
N672 C674 1.356 . S
N672 H684 0.984 . S
N672 H685 0.985 . S
N673 C675 1.356 . S
N673 H678 0.984 . S
N673 H679 0.985 . S
C674 C668 1.379 . S
C674 C671 1.363 1_556 S
C674 N672 1.356 . S
C675 C669 1.340 1_554 S
C675 C670 1.379 . S
C675 N673 1.356 . S
N676 C668 1.356 1_545 S
N676 H682 0.984 . S
N676 H683 0.984 . S
N677 C670 1.356 . S
N677 H680 0.984 . S
N677 H681 0.985 . S
H678 N673 0.984 . S
H679 N673 0.985 . S
H680 N677 0.984 . S
H681 N677 0.985 . S
H682 N676 0.984 . S
H683 N676 0.984 . S
H684 N672 0.984 . S
H685 N672 0.985 . S
C686 C687 1.363 . S
C686 C692 1.379 . S
C686 N694 1.356 . S
C687 C686 1.363 . S
C687 C693 1.363 . S
C688 C689 1.363 . S
C688 C693 1.379 . S
C688 N695 1.356 . S
C689 C688 1.363 . S
C689 C692 1.363 . S
N690 C692 1.356 . S
N690 H702 0.984 . S
N690 H703 0.985 . S
N691 C693 1.356 . S
N691 H696 0.984 . S
N691 H697 0.985 . S
C692 C686 1.379 . S
C692 C689 1.363 . S
C692 N690 1.356 . S
C693 C687 1.363 . S
C693 C688 1.379 . S
C693 N691 1.356 . S
N694 C686 1.356 . S
N694 H700 0.984 . S
N694 H701 0.984 . S
N695 C688 1.356 . S
N695 H698 0.984 . S
N695 H699 0.985 . S
H696 N691 0.984 . S
H697 N691 0.985 . S
H698 N695 0.984 . S
H699 N695 0.985 . S
H700 N694 0.984 . S
H701 N694 0.984 . S
H702 N690 0.984 . S
H703 N690 0.985 . S
C704 C705 1.363 . S
C704 C710 1.379 . S
C704 N712 1.356 . S
C705 C704 1.363 . S
C705 C711 1.363 . S
C706 C707 1.363 . S
C706 C711 1.379 . S
C706 N713 1.356 . S
C707 C706 1.363 . S
C707 C710 1.363 . S
N708 C710 1.356 . S
N708 H720 0.984 . S
N708 H721 0.985 . S
N709 C711 1.383 . S
N709 H714 0.972 1_545 S
N709 H715 0.971 1_545 S
C710 C704 1.379 . S
C710 C707 1.363 . S
C710 N708 1.356 . S
C711 C705 1.363 . S
C711 C706 1.379 . S
C711 N709 1.383 . S
N712 C704 1.356 . S
N712 H718 0.984 . S
N712 H719 0.984 . S
N713 C706 1.356 . S
N713 H716 0.984 . S
N713 H717 0.985 . S
H714 N709 0.972 1_565 S
H715 N709 0.971 1_565 S
H716 N713 0.984 . S
H717 N713 0.985 . S
H718 N712 0.984 . S
H719 N712 0.984 . S
H720 N708 0.984 . S
H721 N708 0.985 . S
C722 C723 1.363 . S
C722 C728 1.379 . S
C722 N730 1.356 . S
C723 C722 1.363 . S
C723 C729 1.363 . S
C724 C725 1.363 . S
C724 C729 1.379 . S
C724 N731 1.356 . S
C725 C724 1.363 . S
C725 C728 1.363 . S
N726 C728 1.356 . S
N726 H738 0.984 . S
N726 H739 0.985 . S
N727 C729 1.356 . S
N727 H732 0.984 . S
N727 H733 0.985 . S
C728 C722 1.379 . S
C728 C725 1.363 . S
C728 N726 1.356 . S
C729 C723 1.363 . S
C729 C724 1.379 . S
C729 N727 1.356 . S
N730 C722 1.356 . S
N730 H736 0.984 . S
N730 H737 0.984 . S
N731 C724 1.356 . S
N731 H734 0.984 . S
N731 H735 0.985 . S
H732 N727 0.984 . S
H733 N727 0.985 . S
H734 N731 0.984 . S
H735 N731 0.985 . S
H736 N730 0.984 . S
H737 N730 0.984 . S
H738 N726 0.984 . S
H739 N726 0.985 . S
C740 C741 1.363 . S
C740 C746 1.379 . S
C740 N748 1.356 . S
C741 C740 1.363 . S
C741 C747 1.363 . S
C742 C743 1.363 . S
C742 C747 1.379 . S
C742 N749 1.356 . S
C743 C742 1.363 . S
C743 C746 1.363 . S
N744 C746 1.356 . S
N744 H756 0.984 . S
N744 H757 0.985 . S
N745 C747 1.356 . S
N745 H750 0.984 . S
N745 H751 0.985 . S
C746 C740 1.379 . S
C746 C743 1.363 . S
C746 N744 1.356 . S
C747 C741 1.363 . S
C747 C742 1.379 . S
C747 N745 1.356 . S
N748 C740 1.356 . S
N748 H754 0.984 . S
N748 H755 0.984 . S
N749 C742 1.356 . S
N749 H752 0.984 . S
N749 H753 0.985 . S
H750 N745 0.984 . S
H751 N745 0.985 . S
H752 N749 0.984 . S
H753 N749 0.985 . S
H754 N748 0.984 . S
H755 N748 0.984 . S
H756 N744 0.984 . S
H757 N744 0.985 . S
C758 C759 1.363 . S
C758 C764 1.379 . S
C758 N766 1.356 . S
C759 C758 1.363 . S
C759 C765 1.363 . S
C760 C761 1.363 . S
C760 C765 1.379 . S
C760 N767 1.356 . S
C761 C760 1.363 . S
C761 C764 1.363 . S
N762 C764 1.356 . S
N762 H774 0.984 . S
N762 H775 0.985 . S
N763 C765 1.356 . S
N763 H768 0.984 . S
N763 H769 0.985 . S
C764 C758 1.379 . S
C764 C761 1.363 . S
C764 N762 1.356 . S
C765 C759 1.363 . S
C765 C760 1.379 . S
C765 N763 1.356 . S
N766 C758 1.356 . S
N766 H772 0.984 . S
N766 H773 0.984 . S
N767 C760 1.356 . S
N767 H770 0.984 . S
N767 H771 0.985 . S
H768 N763 0.984 . S
H769 N763 0.985 . S
H770 N767 0.984 . S
H771 N767 0.985 . S
H772 N766 0.984 . S
H773 N766 0.984 . S
H774 N762 0.984 . S
H775 N762 0.985 . S
C776 C777 1.363 . S
C776 C782 1.379 . S
C776 N784 1.356 . S
C777 C776 1.363 . S
C777 C783 1.363 . S
C778 C779 1.363 . S
C778 C783 1.379 . S
C778 N785 1.356 . S
C779 C778 1.363 . S
C779 C782 1.363 . S
N780 C782 1.356 . S
N780 H792 0.984 . S
N780 H793 0.985 . S
N781 C783 1.356 . S
N781 H786 0.984 . S
N781 H787 0.985 . S
C782 C776 1.379 . S
C782 C779 1.363 . S
C782 N780 1.356 . S
C783 C777 1.363 . S
C783 C778 1.379 . S
C783 N781 1.356 . S
N784 C776 1.356 . S
N784 H790 0.984 . S
N784 H791 0.984 . S
N785 C778 1.356 . S
N785 H788 0.984 . S
N785 H789 0.985 . S
H786 N781 0.984 . S
H787 N781 0.985 . S
H788 N785 0.984 . S
H789 N785 0.985 . S
H790 N784 0.984 . S
H791 N784 0.984 . S
H792 N780 0.984 . S
H793 N780 0.985 . S
C794 C795 1.363 . S
C794 C800 1.379 . S
C794 N802 1.356 . S
C795 C794 1.363 . S
C795 C801 1.363 1_545 S
C796 C797 1.363 1_565 S
C796 C801 1.379 . S
C796 N803 1.356 . S
C797 C796 1.363 1_545 S
C797 C800 1.363 . S
N798 C800 1.356 . S
N798 H810 0.984 . S
N798 H811 0.985 . S
N799 C801 1.356 . S
N799 H804 0.984 . S
N799 H805 0.985 . S
C800 C794 1.379 . S
C800 C797 1.363 . S
C800 N798 1.356 . S
C801 C795 1.363 1_565 S
C801 C796 1.379 . S
C801 N799 1.356 . S
N802 C794 1.356 . S
N802 H808 0.984 . S
N802 H809 0.984 . S
N803 C796 1.356 . S
N803 H806 0.984 . S
N803 H807 0.985 . S
H804 N799 0.984 . S
H805 N799 0.985 . S
H806 N803 0.984 . S
H807 N803 0.985 . S
H808 N802 0.984 . S
H809 N802 0.984 . S
H810 N798 0.984 . S
H811 N798 0.985 . S
C812 C813 1.363 . S
C812 C818 1.379 . S
C812 N820 1.356 . S
C813 C812 1.363 . S
C813 C819 1.363 . S
C814 C815 1.363 . S
C814 C819 1.379 . S
C814 N821 1.356 . S
C815 C814 1.363 . S
C815 C818 1.363 . S
N816 C818 1.356 . S
N816 H828 0.984 . S
N816 H829 0.985 . S
N817 C819 1.356 . S
N817 H822 0.984 . S
N817 H823 0.985 . S
C818 C812 1.379 . S
C818 C815 1.363 . S
C818 N816 1.356 . S
C819 C813 1.363 . S
C819 C814 1.379 . S
C819 N817 1.356 . S
N820 C812 1.356 . S
N820 H826 0.984 . S
N820 H827 0.984 . S
N821 C814 1.356 . S
N821 H824 0.984 . S
N821 H825 0.985 . S
H822 N817 0.984 . S
H823 N817 0.985 . S
H824 N821 0.984 . S
H825 N821 0.985 . S
H826 N820 0.984 . S
H827 N820 0.984 . S
H828 N816 0.984 . S
H829 N816 0.985 . S
C830 C831 1.363 . S
C830 C836 1.379 . S
C830 N838 1.356 . S
C831 C830 1.363 . S
C831 C837 1.363 . S
C832 C833 1.363 . S
C832 C837 1.379 . S
C832 N839 1.356 . S
C833 C832 1.363 . S
C833 C836 1.363 . S
N834 C836 1.356 . S
N834 H846 0.984 . S
N834 H847 0.985 . S
N835 C837 1.356 . S
N835 H840 0.984 . S
N835 H841 0.985 . S
C836 C830 1.379 . S
C836 C833 1.363 . S
C836 N834 1.356 . S
C837 C831 1.363 . S
C837 C832 1.379 . S
C837 N835 1.356 . S
N838 C830 1.356 . S
N838 H844 0.984 . S
N838 H845 0.984 . S
N839 C832 1.356 . S
N839 H842 0.984 . S
N839 H843 0.985 . S
H840 N835 0.984 . S
H841 N835 0.985 . S
H842 N839 0.984 . S
H843 N839 0.985 . S
H844 N838 0.984 . S
H845 N838 0.984 . S
H846 N834 0.984 . S
H847 N834 0.985 . S
C848 C849 1.363 . S
C848 C854 1.379 . S
C848 N856 1.356 . S
C849 C848 1.363 . S
C849 C855 1.363 . S
C850 C851 1.363 . S
C850 C855 1.379 . S
C850 N857 1.356 . S
C851 C850 1.363 . S
C851 C854 1.363 . S
N852 C854 1.356 . S
N852 H864 0.984 . S
N852 H865 0.985 . S
N853 C855 1.356 . S
N853 H858 0.984 . S
N853 H859 0.985 . S
C854 C848 1.379 . S
C854 C851 1.363 . S
C854 N852 1.356 . S
C855 C849 1.363 . S
C855 C850 1.379 . S
C855 N853 1.356 . S
N856 C848 1.356 . S
N856 H862 0.984 . S
N856 H863 0.984 . S
N857 C850 1.356 . S
N857 H860 0.984 . S
N857 H861 0.985 . S
H858 N853 0.984 . S
H859 N853 0.985 . S
H860 N857 0.984 . S
H861 N857 0.985 . S
H862 N856 0.984 . S
H863 N856 0.984 . S
H864 N852 0.984 . S
H865 N852 0.985 . S
C866 C867 1.363 . S
C866 C872 1.378 1_455 S
C866 N874 1.356 1_545 S
C867 C866 1.363 . S
C867 C873 1.363 . S
C868 C869 1.363 . S
C868 C873 1.379 1_655 S
C868 N875 1.356 . S
C869 C868 1.363 . S
C869 C872 1.364 . S
N870 C872 1.357 1_565 S
N870 H882 0.984 . S
N870 H883 0.985 . S
N871 C873 1.356 . S
N871 H876 0.984 . S
N871 H877 0.985 . S
C872 C866 1.378 1_655 S
C872 C869 1.364 . S
C872 N870 1.357 1_545 S
C873 C867 1.363 . S
C873 C868 1.379 1_455 S
C873 N871 1.356 . S
N874 C866 1.356 1_565 S
N874 H880 0.984 . S
N874 H881 0.984 . S
N875 C868 1.356 . S
N875 H878 0.984 . S
N875 H879 0.985 . S
H876 N871 0.984 . S
H877 N871 0.985 . S
H878 N875 0.984 . S
H879 N875 0.985 . S
H880 N874 0.984 . S
H881 N874 0.984 . S
H882 N870 0.984 . S
H883 N870 0.985 . S
C884 C885 1.363 . S
C884 C890 1.379 . S
C884 N892 1.356 . S
C885 C884 1.363 . S
C885 C891 1.363 . S
C886 C887 1.363 . S
C886 C891 1.379 . S
C886 N893 1.356 . S
C887 C886 1.363 . S
C887 C890 1.363 . S
N888 C890 1.356 . S
N888 H900 0.984 . S
N888 H901 0.985 . S
N889 C891 1.356 . S
N889 H894 0.984 . S
N889 H895 0.985 . S
C890 C884 1.379 . S
C890 C887 1.363 . S
C890 N888 1.356 . S
C891 C885 1.363 . S
C891 C886 1.379 . S
C891 N889 1.356 . S
N892 C884 1.356 . S
N892 H898 0.984 . S
N892 H899 0.984 . S
N893 C886 1.356 . S
N893 H896 0.984 . S
N893 H897 0.985 . S
H894 N889 0.984 . S
H895 N889 0.985 . S
H896 N893 0.984 . S
H897 N893 0.985 . S
H898 N892 0.984 . S
H899 N892 0.984 . S
H900 N888 0.984 . S
H901 N888 0.985 . S
C902 C903 1.363 . S
C902 C908 1.379 . S
C902 N910 1.356 . S
C903 C902 1.363 . S
C903 C909 1.363 . S
C904 C905 1.363 . S
C904 C909 1.379 . S
C904 N911 1.356 . S
C905 C904 1.363 . S
C905 C908 1.363 . S
N906 C908 1.356 . S
N906 H918 0.984 . S
N906 H919 0.985 . S
N907 C909 1.356 . S
N907 H912 0.984 . S
N907 H913 0.985 . S
C908 C902 1.379 . S
C908 C905 1.363 . S
C908 N906 1.356 . S
C909 C903 1.363 . S
C909 C904 1.379 . S
C909 N907 1.356 . S
N910 C902 1.356 . S
N910 H916 0.984 . S
N910 H917 0.984 . S
N911 C904 1.356 . S
N911 H914 0.984 . S
N911 H915 0.985 . S
H912 N907 0.984 . S
H913 N907 0.985 . S
H914 N911 0.984 . S
H915 N911 0.985 . S
H916 N910 0.984 . S
H917 N910 0.984 . S
H918 N906 0.984 . S
H919 N906 0.985 . S
C920 C921 1.363 . S
C920 C926 1.379 . S
C920 N928 1.356 . S
C921 C920 1.363 . S
C921 C927 1.363 . S
C922 C923 1.363 . S
C922 C927 1.379 . S
C922 N929 1.356 . S
C923 C922 1.363 . S
C923 C926 1.363 . S
N924 C926 1.356 . S
N924 H936 0.984 . S
N924 H937 0.985 . S
N925 C927 1.356 . S
N925 H930 0.984 . S
N925 H931 0.985 . S
C926 C920 1.379 . S
C926 C923 1.363 . S
C926 N924 1.356 . S
C927 C921 1.363 . S
C927 C922 1.379 . S
C927 N925 1.356 . S
N928 C920 1.356 . S
N928 H934 0.984 . S
N928 H935 0.984 . S
N929 C922 1.356 . S
N929 H932 0.984 . S
N929 H933 0.985 . S
H930 N925 0.984 . S
H931 N925 0.985 . S
H932 N929 0.984 . S
H933 N929 0.985 . S
H934 N928 0.984 . S
H935 N928 0.984 . S
H936 N924 0.984 . S
H937 N924 0.985 . S
C938 C939 1.363 1_655 S
C938 C944 1.379 . S
C938 N946 1.356 . S
C939 C938 1.363 1_455 S
C939 C945 1.363 1_556 S
C940 C941 1.363 . S
C940 C945 1.379 1_556 S
C940 N947 1.356 . S
C941 C940 1.363 . S
C941 C944 1.363 1_455 S
N942 C944 1.356 . S
N942 H954 0.984 . S
N942 H955 0.985 . S
N943 C945 1.356 . S
N943 H948 0.984 . S
N943 H949 0.985 . S
C944 C938 1.379 . S
C944 C941 1.363 1_655 S
C944 N942 1.356 . S
C945 C939 1.363 1_554 S
C945 C940 1.379 1_554 S
C945 N943 1.356 . S
N946 C938 1.356 . S
N946 H952 0.984 . S
N946 H953 0.984 . S
N947 C940 1.356 . S
N947 H950 0.984 . S
N947 H951 0.985 . S
H948 N943 0.984 . S
H949 N943 0.985 . S
H950 N947 0.984 . S
H951 N947 0.985 . S
H952 N946 0.984 . S
H953 N946 0.984 . S
H954 N942 0.984 . S
H955 N942 0.985 . S
C956 C957 1.363 . S
C956 C962 1.379 . S
C956 N964 1.356 . S
C957 C956 1.363 . S
C957 C963 1.363 . S
C958 C959 1.363 . S
C958 C963 1.379 . S
C958 N965 1.356 . S
C959 C958 1.363 . S
C959 C962 1.363 . S
N960 C962 1.356 . S
N960 H972 0.984 . S
N960 H973 0.985 . S
N961 C963 1.356 . S
N961 H966 0.984 . S
N961 H967 0.985 . S
C962 C956 1.379 . S
C962 C959 1.363 . S
C962 N960 1.356 . S
C963 C957 1.363 . S
C963 C958 1.379 . S
C963 N961 1.356 . S
N964 C956 1.356 . S
N964 H970 0.984 . S
N964 H971 0.984 . S
N965 C958 1.356 . S
N965 H968 0.984 . S
N965 H969 0.985 . S
H966 N961 0.984 . S
H967 N961 0.985 . S
H968 N965 0.984 . S
H969 N965 0.985 . S
H970 N964 0.984 . S
H971 N964 0.984 . S
H972 N960 0.984 . S
H973 N960 0.985 . S
C974 C975 1.363 . S
C974 C980 1.379 . S
C974 N982 1.346 1_556 S
C975 C974 1.363 . S
C975 C981 1.363 . S
C976 C977 1.363 . S
C976 C981 1.379 . S
C976 N983 1.356 1_455 S
C977 C976 1.363 . S
C977 C980 1.363 . S
N978 C980 1.356 . S
N978 H990 0.984 . S
N978 H991 0.985 . S
N979 C981 1.349 1_655 S
N979 H984 0.975 1_655 S
N979 H985 1.001 . S
C980 C974 1.379 . S
C980 C977 1.363 . S
C980 N978 1.356 . S
C981 C975 1.363 . S
C981 C976 1.379 . S
C981 N979 1.349 1_455 S
N982 C974 1.346 1_554 S
N982 H988 0.986 . S
N982 H989 0.994 . S
N983 C976 1.356 1_655 S
N983 H986 0.984 . S
N983 H987 0.985 . S
H984 N979 0.975 1_455 S
H985 N979 1.001 . S
H986 N983 0.984 . S
H987 N983 0.985 . S
H988 N982 0.986 . S
H989 N982 0.994 . S
H990 N978 0.984 . S
H991 N978 0.985 . S
C992 C993 1.363 . S
C992 C998 1.379 . S
C992 N1000 1.356 . S
C993 C992 1.363 . S
C993 C999 1.363 . S
C994 C995 1.363 . S
C994 C999 1.379 . S
C994 N1001 1.356 . S
C995 C994 1.363 . S
C995 C998 1.363 . S
N996 C998 1.356 . S
N996 H1008 0.984 . S
N996 H1009 0.985 . S
N997 C999 1.356 . S
N997 H1002 0.984 . S
N997 H1003 0.985 . S
C998 C992 1.379 . S
C998 C995 1.363 . S
C998 N996 1.356 . S
C999 C993 1.363 . S
C999 C994 1.379 . S
C999 N997 1.356 . S
N1000 C992 1.356 . S
N1000 H1006 0.984 . S
N1000 H1007 0.984 . S
N1001 C994 1.356 . S
N1001 H1004 0.984 . S
N1001 H1005 0.985 . S
H1002 N997 0.984 . S
H1003 N997 0.985 . S
H1004 N1001 0.984 . S
H1005 N1001 0.985 . S
H1006 N1000 0.984 . S
H1007 N1000 0.984 . S
H1008 N996 0.984 . S
H1009 N996 0.985 . S
C1010 C1011 1.363 . S
C1010 C1016 1.379 . S
C1010 N1018 1.356 . S
C1011 C1010 1.363 . S
C1011 C1017 1.363 . S
C1012 C1013 1.363 . S
C1012 C1017 1.379 . S
C1012 N1019 1.356 . S
C1013 C1012 1.363 . S
C1013 C1016 1.363 . S
N1014 C1016 1.356 . S
N1014 H1026 0.984 . S
N1014 H1027 0.985 . S
N1015 C1017 1.356 . S
N1015 H1020 0.984 . S
N1015 H1021 0.985 . S
C1016 C1010 1.379 . S
C1016 C1013 1.363 . S
C1016 N1014 1.356 . S
C1017 C1011 1.363 . S
C1017 C1012 1.379 . S
C1017 N1015 1.356 . S
N1018 C1010 1.356 . S
N1018 H1024 0.984 . S
N1018 H1025 0.984 . S
N1019 C1012 1.356 . S
N1019 H1022 0.984 . S
N1019 H1023 0.985 . S
H1020 N1015 0.984 . S
H1021 N1015 0.985 . S
H1022 N1019 0.984 . S
H1023 N1019 0.985 . S
H1024 N1018 0.984 . S
H1025 N1018 0.984 . S
H1026 N1014 0.984 . S
H1027 N1014 0.985 . S
C1028 C1029 1.363 . S
C1028 C1034 1.379 . S
C1028 N1036 1.356 . S
C1029 C1028 1.363 . S
C1029 C1035 1.363 . S
C1030 C1031 1.363 . S
C1030 C1035 1.379 . S
C1030 N1037 1.356 . S
C1031 C1030 1.363 . S
C1031 C1034 1.363 . S
N1032 C1034 1.356 . S
N1032 H1044 0.984 . S
N1032 H1045 0.985 . S
N1033 C1035 1.356 . S
N1033 H1038 0.984 . S
N1033 H1039 0.985 . S
C1034 C1028 1.379 . S
C1034 C1031 1.363 . S
C1034 N1032 1.356 . S
C1035 C1029 1.363 . S
C1035 C1030 1.379 . S
C1035 N1033 1.356 . S
N1036 C1028 1.356 . S
N1036 H1042 0.984 . S
N1036 H1043 0.984 . S
N1037 C1030 1.356 . S
N1037 H1040 0.984 . S
N1037 H1041 0.985 . S
H1038 N1033 0.984 . S
H1039 N1033 0.985 . S
H1040 N1037 0.984 . S
H1041 N1037 0.985 . S
H1042 N1036 0.984 . S
H1043 N1036 0.984 . S
H1044 N1032 0.984 . S
H1045 N1032 0.985 . S
C1046 C1047 1.363 . S
C1046 C1052 1.379 . S
C1046 N1054 1.356 . S
C1047 C1046 1.363 . S
C1047 C1053 1.363 . S
C1048 C1049 1.363 . S
C1048 C1053 1.379 . S
C1048 N1055 1.356 . S
C1049 C1048 1.363 . S
C1049 C1052 1.363 . S
N1050 C1052 1.356 . S
N1050 H1062 0.984 . S
N1050 H1063 0.985 . S
N1051 C1053 1.356 1_556 S
N1051 H1056 0.984 . S
N1051 H1057 0.985 . S
C1052 C1046 1.379 . S
C1052 C1049 1.363 . S
C1052 N1050 1.356 . S
C1053 C1047 1.363 . S
C1053 C1048 1.379 . S
C1053 N1051 1.356 1_554 S
N1054 C1046 1.356 . S
N1054 H1060 0.984 . S
N1054 H1061 0.984 . S
N1055 C1048 1.356 . S
N1055 H1058 0.984 . S
N1055 H1059 0.985 . S
H1056 N1051 0.984 . S
H1057 N1051 0.985 . S
H1058 N1055 0.984 . S
H1059 N1055 0.985 . S
H1060 N1054 0.984 . S
H1061 N1054 0.984 . S
H1062 N1050 0.984 . S
H1063 N1050 0.985 . S
C1064 C1065 1.363 . S
C1064 C1070 1.379 . S
C1064 N1072 1.356 . S
C1065 C1064 1.363 . S
C1065 C1071 1.363 . S
C1066 C1067 1.363 . S
C1066 C1071 1.379 . S
C1066 N1073 1.356 . S
C1067 C1066 1.363 . S
C1067 C1070 1.363 . S
N1068 C1070 1.356 . S
N1068 H1080 0.984 . S
N1068 H1081 0.985 . S
N1069 C1071 1.356 . S
N1069 H1074 0.984 . S
N1069 H1075 0.985 . S
C1070 C1064 1.379 . S
C1070 C1067 1.363 . S
C1070 N1068 1.356 . S
C1071 C1065 1.363 . S
C1071 C1066 1.379 . S
C1071 N1069 1.356 . S
N1072 C1064 1.356 . S
N1072 H1078 0.984 . S
N1072 H1079 0.984 . S
N1073 C1066 1.356 . S
N1073 H1076 0.984 . S
N1073 H1077 0.985 . S
H1074 N1069 0.984 . S
H1075 N1069 0.985 . S
H1076 N1073 0.984 . S
H1077 N1073 0.985 . S
H1078 N1072 0.984 . S
H1079 N1072 0.984 . S
H1080 N1068 0.984 . S
H1081 N1068 0.985 . S
C1082 C1083 1.363 . S
C1082 C1088 1.379 . S
C1082 N1090 1.356 . S
C1083 C1082 1.363 . S
C1083 C1089 1.363 . S
C1084 C1085 1.363 . S
C1084 C1089 1.379 . S
C1084 N1091 1.356 . S
C1085 C1084 1.363 . S
C1085 C1088 1.363 . S
N1086 C1088 1.356 . S
N1086 H1098 0.984 . S
N1086 H1099 0.985 . S
N1087 C1089 1.356 . S
N1087 H1092 0.984 . S
N1087 H1093 0.985 . S
C1088 C1082 1.379 . S
C1088 C1085 1.363 . S
C1088 N1086 1.356 . S
C1089 C1083 1.363 . S
C1089 C1084 1.379 . S
C1089 N1087 1.356 . S
N1090 C1082 1.356 . S
N1090 H1096 0.984 . S
N1090 H1097 0.984 . S
N1091 C1084 1.356 . S
N1091 H1094 0.984 . S
N1091 H1095 0.985 . S
H1092 N1087 0.984 . S
H1093 N1087 0.985 . S
H1094 N1091 0.984 . S
H1095 N1091 0.985 . S
H1096 N1090 0.984 . S
H1097 N1090 0.984 . S
H1098 N1086 0.984 . S
H1099 N1086 0.985 . S
C1100 C1101 1.363 . S
C1100 C1106 1.379 . S
C1100 N1108 1.356 . S
C1101 C1100 1.363 . S
C1101 C1107 1.363 . S
C1102 C1103 1.363 . S
C1102 C1107 1.379 . S
C1102 N1109 1.356 . S
C1103 C1102 1.363 . S
C1103 C1106 1.363 . S
N1104 C1106 1.356 . S
N1104 H1116 0.984 . S
N1104 H1117 0.985 . S
N1105 C1107 1.356 . S
N1105 H1110 0.984 . S
N1105 H1111 0.985 . S
C1106 C1100 1.379 . S
C1106 C1103 1.363 . S
C1106 N1104 1.356 . S
C1107 C1101 1.363 . S
C1107 C1102 1.379 . S
C1107 N1105 1.356 . S
N1108 C1100 1.356 . S
N1108 H1114 0.984 . S
N1108 H1115 0.984 . S
N1109 C1102 1.356 . S
N1109 H1112 0.984 . S
N1109 H1113 0.985 . S
H1110 N1105 0.984 . S
H1111 N1105 0.985 . S
H1112 N1109 0.984 . S
H1113 N1109 0.985 . S
H1114 N1108 0.984 . S
H1115 N1108 0.984 . S
H1116 N1104 0.984 . S
H1117 N1104 0.985 . S
C1118 C1119 1.363 . S
C1118 C1124 1.379 . S
C1118 N1126 1.356 . S
C1119 C1118 1.363 . S
C1119 C1125 1.363 . S
C1120 C1121 1.363 . S
C1120 C1125 1.379 . S
C1120 N1127 1.356 . S
C1121 C1120 1.363 . S
C1121 C1124 1.363 . S
N1122 C1124 1.356 . S
N1122 H1134 0.984 . S
N1122 H1135 0.985 . S
N1123 C1125 1.356 . S
N1123 H1128 0.984 . S
N1123 H1129 0.985 . S
C1124 C1118 1.379 . S
C1124 C1121 1.363 . S
C1124 N1122 1.356 . S
C1125 C1119 1.363 . S
C1125 C1120 1.379 . S
C1125 N1123 1.356 . S
N1126 C1118 1.356 . S
N1126 H1132 0.984 . S
N1126 H1133 0.984 . S
N1127 C1120 1.356 . S
N1127 H1130 0.984 . S
N1127 H1131 0.985 . S
H1128 N1123 0.984 . S
H1129 N1123 0.985 . S
H1130 N1127 0.984 . S
H1131 N1127 0.985 . S
H1132 N1126 0.984 . S
H1133 N1126 0.984 . S
H1134 N1122 0.984 . S
H1135 N1122 0.985 . S
C1136 C1137 1.363 1_554 S
C1136 C1142 1.379 . S
C1136 N1144 1.356 . S
C1137 C1136 1.363 1_556 S
C1137 C1143 1.363 . S
C1138 C1139 1.363 . S
C1138 C1143 1.379 . S
C1138 N1145 1.356 . S
C1139 C1138 1.363 . S
C1139 C1142 1.363 1_556 S
N1140 C1142 1.356 . S
N1140 H1152 0.984 . S
N1140 H1153 0.985 . S
N1141 C1143 1.356 . S
N1141 H1146 0.984 . S
N1141 H1147 0.985 . S
C1142 C1136 1.379 . S
C1142 C1139 1.363 1_554 S
C1142 N1140 1.356 . S
C1143 C1137 1.363 . S
C1143 C1138 1.379 . S
C1143 N1141 1.356 . S
N1144 C1136 1.356 . S
N1144 H1150 0.984 . S
N1144 H1151 0.984 . S
N1145 C1138 1.356 . S
N1145 H1148 0.984 . S
N1145 H1149 0.985 . S
H1146 N1141 0.984 . S
H1147 N1141 0.985 . S
H1148 N1145 0.984 . S
H1149 N1145 0.985 . S
H1150 N1144 0.984 . S
H1151 N1144 0.984 . S
H1152 N1140 0.984 . S
H1153 N1140 0.985 . S
C1154 C1155 1.363 . S
C1154 C1160 1.379 . S
C1154 N1162 1.356 . S
C1155 C1154 1.363 . S
C1155 C1161 1.363 . S
C1156 C1157 1.363 . S
C1156 C1161 1.379 . S
C1156 N1163 1.356 . S
C1157 C1156 1.363 . S
C1157 C1160 1.363 . S
N1158 C1160 1.356 . S
N1158 H1170 0.984 . S
N1158 H1171 0.985 . S
N1159 C1161 1.356 . S
N1159 H1164 0.984 . S
N1159 H1165 0.985 . S
C1160 C1154 1.379 . S
C1160 C1157 1.363 . S
C1160 N1158 1.356 . S
C1161 C1155 1.363 . S
C1161 C1156 1.379 . S
C1161 N1159 1.356 . S
N1162 C1154 1.356 . S
N1162 H1168 0.984 . S
N1162 H1169 0.984 . S
N1163 C1156 1.356 . S
N1163 H1166 0.984 . S
N1163 H1167 0.985 . S
H1164 N1159 0.984 . S
H1165 N1159 0.985 . S
H1166 N1163 0.984 . S
H1167 N1163 0.985 . S
H1168 N1162 0.984 . S
H1169 N1162 0.984 . S
H1170 N1158 0.984 . S
H1171 N1158 0.985 . S
C1172 C1173 1.363 . S
C1172 C1178 1.379 . S
C1172 N1180 1.356 . S
C1173 C1172 1.363 . S
C1173 C1179 1.363 . S
C1174 C1175 1.363 . S
C1174 C1179 1.379 . S
C1174 N1181 1.356 1_554 S
C1175 C1174 1.363 . S
C1175 C1178 1.363 . S
N1176 C1178 1.356 . S
N1176 H1188 0.984 . S
N1176 H1189 0.985 . S
N1177 C1179 1.356 . S
N1177 H1182 0.984 . S
N1177 H1183 0.985 1_554 S
C1178 C1172 1.379 . S
C1178 C1175 1.363 . S
C1178 N1176 1.356 . S
C1179 C1173 1.363 . S
C1179 C1174 1.379 . S
C1179 N1177 1.356 . S
N1180 C1172 1.356 . S
N1180 H1186 0.984 . S
N1180 H1187 0.984 . S
N1181 C1174 1.356 1_556 S
N1181 H1184 0.984 . S
N1181 H1185 0.985 . S
H1182 N1177 0.984 . S
H1183 N1177 0.985 1_556 S
H1184 N1181 0.984 . S
H1185 N1181 0.985 . S
H1186 N1180 0.984 . S
H1187 N1180 0.984 . S
H1188 N1176 0.984 . S
H1189 N1176 0.985 . S
C1190 C1191 1.363 . S
C1190 C1196 1.379 . S
C1190 N1198 1.356 1_554 S
C1191 C1190 1.363 . S
C1191 C1197 1.363 1_565 S
C1192 C1193 1.363 . S
C1192 C1197 1.379 1_565 S
C1192 N1199 1.356 . S
C1193 C1192 1.363 . S
C1193 C1196 1.363 . S
N1194 C1196 1.355 1_556 S
N1194 H1206 0.987 . S
N1194 H1207 0.984 1_556 S
N1195 C1197 1.356 . S
N1195 H1200 0.984 . S
N1195 H1201 0.985 . S
C1196 C1190 1.379 . S
C1196 C1193 1.363 . S
C1196 N1194 1.355 1_554 S
C1197 C1191 1.363 1_545 S
C1197 C1192 1.379 1_545 S
C1197 N1195 1.356 . S
N1198 C1190 1.356 1_556 S
N1198 H1204 0.984 . S
N1198 H1205 0.984 1_556 S
N1199 C1192 1.356 . S
N1199 H1202 0.984 . S
N1199 H1203 0.985 1_565 S
H1200 N1195 0.984 . S
H1201 N1195 0.985 . S
H1202 N1199 0.984 . S
H1203 N1199 0.985 1_545 S
H1204 N1198 0.984 . S
H1205 N1198 0.984 1_554 S
H1206 N1194 0.987 . S
H1207 N1194 0.984 1_554 S
C347 C187 1.519 . S
C345 C60 1.567 . S
C365 C195 1.152 . S
C363 C76 1.386 . S
C381 C81 1.625 . S
C383 C215 1.606 . S
C401 C229 1.539 . S
C399 C48 1.578 1_545 S
C419 C244 1.524 . S
C417 C115 1.520 . S
C437 C258 1.613 . S
C435 C136 1.613 . S
C453 C131 1.447 . S
C455 C272 1.445 . S
C473 C278 1.483 . S
C471 C104 1.515 . S
C489 C126 1.539 . S
C491 C292 1.512 . S
C509 C313 1.455 . S
C507 C103 1.468 . S
C525 C120 1.412 . S
C527 C293 1.198 . S
C545 C314 1.464 . S
C543 C142 1.469 . S
C561 C82 1.504 . S
C563 C321 1.228 . S
C579 C54 1.716 . S
C581 C327 1.696 . S
C597 C65 1.428 . S
C599 C320 1.384 . S
C615 C71 1.305 . S
C617 C328 1.312 . S
C633 C37 1.573 . S
C635 C222 1.538 . S
C651 C158 1.840 . S
C653 C223 1.643 . S
C671 C180 1.391 . S
C669 C169 1.449 1_565 S
C689 C201 1.328 . S
C687 C98 1.317 . S
C705 C49 1.668 . S
C707 C236 1.649 . S
C725 C286 1.479 . S
C723 C125 1.475 . S
C743 C237 1.204 . S
C741 C109 1.385 . S
C761 C265 1.438 . S
C759 C137 1.751 . S
C779 C271 1.519 . S
C777 C159 1.567 . S
C795 C175 1.386 . S
C797 C279 1.151 . S
C813 C92 1.625 . S
C815 C243 1.606 . S
C833 C257 1.539 . S
C831 C147 1.578 . S
C849 C38 1.520 . S
C851 C216 1.524 . S
C869 C230 1.613 . S
C867 C4 1.613 . S
C887 C188 1.445 . S
C885 C21 1.447 . S
C905 C194 1.483 . S
C903 C27 1.516 . S
C921 C16 1.539 . S
C923 C306 1.512 . S
C939 C26 1.468 1_556 S
C941 C299 1.455 . S
C957 C43 1.412 . S
C959 C307 1.198 . S
C975 C10 1.469 . S
C977 C300 1.464 . S
C995 C335 1.228 . S
C993 C93 1.504 . S
C1013 C341 1.696 . S
C1011 C153 1.716 . S
C1031 C334 1.384 . S
C1029 C164 1.428 . S
C1047 C170 1.305 . S
C1049 C342 1.312 . S
C1065 C114 1.573 . S
C1067 C250 1.538 . S
C1085 C251 1.643 . S
C1083 C59 1.840 . S
C1103 C264 1.391 . S
C1101 C70 1.439 . S
C1121 C285 1.328 . S
C1119 C87 1.319 . S
C1137 C148 1.668 . S
C1139 C208 1.649 . S
C1157 C202 1.479 . S
C1155 C15 1.477 . S
C1173 C32 1.385 . S
C1175 C209 1.204 . S
C1193 C181 1.438 . S
C1191 C5 1.751 1_565 S
