# Generated by pormake.
# Topology ssa, (4,4)-cn, num edge types: 1
# Building blocks:
#     Node 0, Type 0, BuildingBlock: KOZSID_clean_sbu_0, # of connection points: 4
#     Node 1, Type 0, BuildingBlock: KOZSID_clean_sbu_0, # of connection points: 4
#     Node 2, Type 0, BuildingBlock: KOZSID_clean_sbu_0, # of connection points: 4
#     Node 3, Type 0, BuildingBlock: KOZSID_clean_sbu_0, # of connection points: 4
#     Node 4, Type 0, BuildingBlock: KOZSID_clean_sbu_0, # of connection points: 4
#     Node 5, Type 0, BuildingBlock: KOZSID_clean_sbu_0, # of connection points: 4
#     Node 6, Type 1, BuildingBlock: KUFVIS_clean_linker_0, # of connection points: 4
#     Node 7, Type 1, BuildingBlock: KUFVIS_clean_linker_0, # of connection points: 4
#     Node 8, Type 1, BuildingBlock: KUFVIS_clean_linker_0, # of connection points: 4
#     Node 9, Type 1, BuildingBlock: KUFVIS_clean_linker_0, # of connection points: 4
#     Node 10, Type 1, BuildingBlock: KUFVIS_clean_linker_0, # of connection points: 4
#     Node 11, Type 1, BuildingBlock: KUFVIS_clean_linker_0, # of connection points: 4
#     Edge 12, Type (0, 1), BuildingBlock: AJUNOK_clean_linker_0, # of connection points: 2
#     Edge 13, Type (0, 1), BuildingBlock: AJUNOK_clean_linker_0, # of connection points: 2
#     Edge 14, Type (0, 1), BuildingBlock: AJUNOK_clean_linker_0, # of connection points: 2
#     Edge 15, Type (0, 1), BuildingBlock: AJUNOK_clean_linker_0, # of connection points: 2
#     Edge 16, Type (0, 1), BuildingBlock: AJUNOK_clean_linker_0, # of connection points: 2
#     Edge 17, Type (0, 1), BuildingBlock: AJUNOK_clean_linker_0, # of connection points: 2
#     Edge 18, Type (0, 1), BuildingBlock: AJUNOK_clean_linker_0, # of connection points: 2
#     Edge 19, Type (0, 1), BuildingBlock: AJUNOK_clean_linker_0, # of connection points: 2
#     Edge 20, Type (0, 1), BuildingBlock: AJUNOK_clean_linker_0, # of connection points: 2
#     Edge 21, Type (0, 1), BuildingBlock: AJUNOK_clean_linker_0, # of connection points: 2
#     Edge 22, Type (0, 1), BuildingBlock: AJUNOK_clean_linker_0, # of connection points: 2
#     Edge 23, Type (0, 1), BuildingBlock: AJUNOK_clean_linker_0, # of connection points: 2
#     Edge 24, Type (0, 1), BuildingBlock: AJUNOK_clean_linker_0, # of connection points: 2
#     Edge 25, Type (0, 1), BuildingBlock: AJUNOK_clean_linker_0, # of connection points: 2
#     Edge 26, Type (0, 1), BuildingBlock: AJUNOK_clean_linker_0, # of connection points: 2
#     Edge 27, Type (0, 1), BuildingBlock: AJUNOK_clean_linker_0, # of connection points: 2
#     Edge 28, Type (0, 1), BuildingBlock: AJUNOK_clean_linker_0, # of connection points: 2
#     Edge 29, Type (0, 1), BuildingBlock: AJUNOK_clean_linker_0, # of connection points: 2
#     Edge 30, Type (0, 1), BuildingBlock: AJUNOK_clean_linker_0, # of connection points: 2
#     Edge 31, Type (0, 1), BuildingBlock: AJUNOK_clean_linker_0, # of connection points: 2
#     Edge 32, Type (0, 1), BuildingBlock: AJUNOK_clean_linker_0, # of connection points: 2
#     Edge 33, Type (0, 1), BuildingBlock: AJUNOK_clean_linker_0, # of connection points: 2
#     Edge 34, Type (0, 1), BuildingBlock: AJUNOK_clean_linker_0, # of connection points: 2
#     Edge 35, Type (0, 1), BuildingBlock: AJUNOK_clean_linker_0, # of connection points: 2
# Relax obj value: 0.007
# Max RMSD: 0.055
# Mean RMSD: 0.031
data_MOF--net-ssa--node1-KOZSID_clean_sbu_0--node2-KUFVIS_clean_linker_0--edge1-AJUNOK_clean_linker_0
_symmetry_space_group_name_H-M    P1
_symmetry_Int_Tables_number       1
_symmetry_cell_setting            triclinic
loop_
_symmetry_equiv_pos_as_xyz
'x, y, z'
_cell_length_a     44.414619
_cell_length_b     45.846225
_cell_length_c     25.122872
_cell_angle_alpha  86.212635
_cell_angle_beta   89.958151
_cell_angle_gamma 122.87944
loop_
_atom_site_label
_atom_site_type_symbol
_atom_site_fract_x
_atom_site_fract_y
_atom_site_fract_z
_atom_type_partial_charge
C0 C 0.9501 0.51338 0.02627 0.0
C1 C 0.92424 0.50427 0.0662 0.0
C2 C 0.93043 0.48735 0.10719 0.0
C3 C 0.95967 0.4872 0.09006 0.0
N4 N 0.97307 0.50369 0.04107 0.0
Co5 Co 0.01378 0.50728 0.9995 0.0
N6 N 0.01949 0.47782 0.05628 0.0
C7 C 0.99918 0.46261 0.10205 0.0
C8 C 1.01093 0.44619 0.13517 0.0
C9 C 0.04096 0.4518 0.10967 0.0
C10 C 0.04581 0.4713 0.06199 0.0
N11 N 0.05471 0.51114 0.9582 0.0
C12 C 0.07789 0.50176 0.97338 0.0
C13 C 0.1042 0.51143 0.93393 0.0
C14 C 0.09811 0.52841 0.8929 0.0
C15 C 0.06849 0.52807 0.90954 0.0
N16 N 1.00784 0.53647 0.94249 0.0
C17 C 0.0277 0.55113 0.89623 0.0
C18 C 0.01565 0.5672 0.8629 0.0
C19 C 0.98586 0.56188 0.8888 0.0
C20 C 0.98147 0.54292 0.93687 0.0
N21 N 0.04928 0.54985 0.03502 0.0
C22 C 0.10533 0.60601 0.0864 0.0
C23 C 0.10432 0.60732 0.03085 0.0
C24 C 0.07626 0.57912 0.00613 0.0
C25 C 0.077 0.57701 0.11579 0.0
C26 C 0.04925 0.54972 0.08959 0.0
N27 N 0.97827 0.46478 0.96386 0.0
C28 C 0.95193 0.43774 0.88243 0.0
C29 C 0.92188 0.40997 0.91092 0.0
C30 C 0.9215 0.40881 0.96654 0.0
C31 C 0.94977 0.43637 0.99207 0.0
C32 C 0.97976 0.46438 0.90945 0.0
H33 H 0.94749 0.43452 0.03453 0.0
H34 H 1.00176 0.48481 0.8853 0.0
H35 H 0.0775 0.58128 0.96363 0.0
H36 H 0.02848 0.52845 0.11438 0.0
C37 C 0.97235 0.46825 0.11598 0.0
C38 C 0.95042 0.52942 0.97394 0.0
C39 C 0.07736 0.48552 0.02569 0.0
C40 C 0.0552 0.54629 0.88294 0.0
H41 H 0.90243 0.50837 0.06493 0.0
H42 H 0.91443 0.47509 0.14398 0.0
H43 H 1.00017 0.43342 0.17461 0.0
H44 H 0.05812 0.44372 0.12574 0.0
H45 H 0.12619 0.50761 0.93556 0.0
H46 H 0.11431 0.54089 0.85634 0.0
H47 H 0.02622 0.57978 0.82331 0.0
H48 H 0.9686 0.56993 0.87297 0.0
H49 H 0.12563 0.62948 0.00656 0.0
H50 H 0.07635 0.57528 0.15906 0.0
H51 H 0.95377 0.43911 0.83921 0.0
H52 H 0.89895 0.38739 0.99015 0.0
C53 C 0.57086 0.04242 0.58139 0.0
C54 C 0.57674 0.03879 0.63496 0.0
C55 C 0.54641 0.00919 0.65641 0.0
C56 C 0.52383 0.99647 0.61488 0.0
N57 N 0.53824 0.0157 0.5679 0.0
Co58 Co 0.51369 0.00857 0.4986 0.0
N59 N 0.4672 0.96781 0.53163 0.0
C60 C 0.46074 0.95462 0.58315 0.0
C61 C 0.42718 0.92511 0.59323 0.0
C62 C 0.4115 0.91853 0.54502 0.0
C63 C 0.43652 0.94452 0.50827 0.0
N64 N 0.489 1.00169 0.42943 0.0
C65 C 0.45606 0.97544 0.41601 0.0
C66 C 0.45 0.9797 0.36271 0.0
C67 C 0.48042 0.00928 0.34147 0.0
C68 C 0.50326 0.0214 0.38277 0.0
N69 N 0.56028 0.04904 0.46535 0.0
C70 C 0.56697 0.06176 0.4136 0.0
C71 C 0.60071 0.09099 0.40335 0.0
C72 C 0.61624 0.09787 0.45167 0.0
C73 C 0.59094 0.07234 0.48864 0.0
N74 N 0.52745 0.97556 0.47958 0.0
C75 C 0.54116 0.92542 0.44878 0.0
C76 C 0.54824 0.95349 0.41348 0.0
C77 C 0.54118 0.97792 0.42944 0.0
C78 C 0.52768 0.92314 0.50014 0.0
C79 C 0.52162 0.9486 0.51487 0.0
N80 N 0.50019 0.04177 0.51786 0.0
C81 C 0.50648 0.09769 0.50179 0.0
C82 C 0.49228 0.09471 0.55289 0.0
C83 C 0.48028 0.06402 0.585 0.0
C84 C 0.48457 0.03819 0.56699 0.0
C85 C 0.50952 0.07081 0.48482 0.0
H86 H 0.47603 0.01605 0.59426 0.0
H87 H 0.52035 0.07454 0.44529 0.0
H88 H 0.54634 0.99808 0.40006 0.0
H89 H 0.51168 0.94559 0.55477 0.0
C90 C 0.48788 0.96876 0.61986 0.0
C91 C 0.59602 0.07289 0.54589 0.0
C92 C 0.43073 0.94483 0.4512 0.0
C93 C 0.53948 0.04845 0.3774 0.0
H94 H 0.60006 0.05642 0.65663 0.0
H95 H 0.54084 0.99908 0.69786 0.0
H96 H 0.41603 0.90941 0.63068 0.0
H97 H 0.38512 0.8965 0.53733 0.0
H98 H 0.42654 0.96249 0.34098 0.0
H99 H 0.48589 0.01973 0.3002 0.0
H100 H 0.61193 0.10657 0.36582 0.0
H101 H 0.64258 0.11998 0.45932 0.0
H102 H 0.55819 0.95603 0.37293 0.0
H103 H 0.52184 0.9018 0.52881 0.0
H104 H 0.51547 0.12079 0.4752 0.0
H105 H 0.46889 0.06053 0.62485 0.0
C106 C 0.58772 0.54421 0.94341 0.0
C107 C 0.60573 0.56411 0.89646 0.0
C108 C 0.58283 0.5707 0.87038 0.0
C109 C 0.55221 0.55451 0.90261 0.0
N110 N 0.55443 0.53852 0.94827 0.0
Co111 Co 0.51511 0.50953 0.00431 0.0
N112 N 0.4794 0.51416 0.96176 0.0
C113 C 0.48515 0.53057 0.91251 0.0
C114 C 0.45622 0.53102 0.89461 0.0
C115 C 0.4307 0.51454 0.93526 0.0
C116 C 0.44565 0.50509 0.97581 0.0
N117 N 0.47591 0.48108 0.06082 0.0
C118 C 0.44262 0.47547 0.06574 0.0
C119 C 0.42515 0.45671 0.11367 0.0
C120 C 0.44828 0.4507 0.14022 0.0
C121 C 0.47854 0.46617 0.10739 0.0
N122 N 0.55059 0.5043 0.04643 0.0
C123 C 0.54455 0.48691 0.0949 0.0
C124 C 0.57305 0.48542 0.11193 0.0
C125 C 0.59853 0.50205 0.07129 0.0
C126 C 0.58398 0.51269 0.03177 0.0
N127 N 0.52845 0.55246 0.03969 0.0
C128 C 0.54413 0.61192 0.09115 0.0
C129 C 0.5419 0.58349 0.11952 0.0
C130 C 0.53408 0.55433 0.09332 0.0
C131 C 0.53844 0.61015 0.03656 0.0
C132 C 0.53109 0.58059 0.01171 0.0
N133 N 0.50234 0.46684 0.96874 0.0
C134 C 0.49585 0.41063 0.97249 0.0
C135 C 0.50063 0.41317 0.91706 0.0
C136 C 0.50342 0.44157 0.88783 0.0
C137 C 0.50364 0.46756 0.91415 0.0
C138 C 0.49665 0.43756 0.99739 0.0
H139 H 0.50623 0.48864 0.88946 0.0
H140 H 0.49388 0.43471 0.03989 0.0
H141 H 0.53223 0.53343 0.1175 0.0
H142 H 0.52732 0.58105 0.96992 0.0
C143 C 0.51944 0.54941 0.88755 0.0
C144 C 0.60203 0.52879 0.97978 0.0
C145 C 0.42762 0.48964 0.02814 0.0
C146 C 0.5108 0.46973 0.12115 0.0
H147 H 0.63205 0.57177 0.88136 0.0
H148 H 0.58721 0.58392 0.83109 0.0
H149 H 0.45457 0.54349 0.85761 0.0
H150 H 0.40456 0.51105 0.93597 0.0
H151 H 0.39893 0.44918 0.12899 0.0
H152 H 0.44412 0.43794 0.17982 0.0
H153 H 0.57452 0.47246 0.1485 0.0
H154 H 0.62442 0.505 0.06997 0.0
H155 H 0.54535 0.58336 0.16221 0.0
H156 H 0.53979 0.63154 0.01305 0.0
H157 H 0.49297 0.38872 0.99664 0.0
H158 H 0.50609 0.44405 0.84461 0.0
C159 C 0.95008 0.43508 0.48451 0.0
C160 C 0.92512 0.41647 0.44703 0.0
C161 C 0.9312 0.43979 0.40509 0.0
C162 C 0.95965 0.47113 0.41904 0.0
N163 N 0.97254 0.46914 0.46695 0.0
Co164 Co 0.01373 0.50865 0.50229 0.0
N165 N 0.0198 0.54373 0.44384 0.0
C166 C 0.99869 0.53748 0.40174 0.0
C167 C 1.01035 0.56619 0.36681 0.0
C168 C 0.04101 0.59222 0.38735 0.0
C169 C 0.04632 0.57792 0.43404 0.0
N170 N 0.05585 0.548 0.53658 0.0
C171 C 0.07935 0.58155 0.51747 0.0
C172 C 0.10645 0.59967 0.55245 0.0
C173 C 0.10049 0.57654 0.59458 0.0
C174 C 0.07021 0.54578 0.58291 0.0
N175 N 1.00682 0.47373 0.56172 0.0
C176 C 0.0263 0.48054 0.60589 0.0
C177 C 0.01334 0.45248 0.64251 0.0
C178 C 0.98336 0.42624 0.6211 0.0
C179 C 0.97984 0.43969 0.57195 0.0
N180 N 0.04792 0.50161 0.46277 0.0
C181 C 0.10253 0.5021 0.40444 0.0
C182 C 0.10099 0.49891 0.46019 0.0
C183 C 0.07359 0.49872 0.48845 0.0
C184 C 0.07533 0.50318 0.37856 0.0
C185 C 0.04836 0.5025 0.40815 0.0
N186 N 0.97965 0.51599 0.54167 0.0
C187 C 0.9612 0.5292 0.62246 0.0
C188 C 0.93019 0.52389 0.59932 0.0
C189 C 0.9244 0.51482 0.54667 0.0
C190 C 0.94942 0.5113 0.51865 0.0
C191 C 0.98522 0.525 0.59336 0.0
H192 H 0.94356 0.50459 0.47851 0.0
H193 H 1.00793 0.52886 0.61382 0.0
H194 H 0.0742 0.49705 0.53093 0.0
H195 H 0.02863 0.50358 0.38576 0.0
C196 C 0.9719 0.50342 0.3915 0.0
C197 C 0.94941 0.41984 0.53784 0.0
C198 C 0.07833 0.59691 0.46533 0.0
C199 C 0.05535 0.51407 0.61339 0.0
H200 H 0.90376 0.38915 0.45077 0.0
H201 H 0.91563 0.4348 0.36981 0.0
H202 H 0.99917 0.56751 0.32914 0.0
H203 H 0.05822 0.6183 0.3686 0.0
H204 H 0.12873 0.62658 0.5472 0.0
H205 H 0.11688 0.58129 0.62885 0.0
H206 H 0.02367 0.45156 0.68117 0.0
H207 H 0.9657 0.40054 0.64073 0.0
H208 H 0.1214 0.49766 0.48183 0.0
H209 H 0.07504 0.50485 0.33534 0.0
H210 H 0.96663 0.53599 0.6634 0.0
H211 H 0.90088 0.51078 0.52697 0.0
C212 C 0.45707 0.97814 0.09377 0.0
C213 C 0.45245 0.98316 0.14635 0.0
C214 C 0.48383 0.01209 0.15936 0.0
C215 C 0.50586 0.023 0.1144 0.0
N216 N 0.49028 1.00312 0.07304 0.0
Co217 Co 0.51373 0.00815 0.00177 0.0
N218 N 0.5609 0.04907 0.02259 0.0
C219 C 0.56841 0.06329 0.07013 0.0
C220 C 0.60232 0.09254 0.07141 0.0
C221 C 0.61714 0.09786 0.02129 0.0
C222 C 0.59131 0.0714 0.99238 0.0
N223 N 0.53729 0.01307 0.93068 0.0
C224 C 0.57008 0.03869 0.90954 0.0
C225 C 0.57544 0.03317 0.85771 0.0
C226 C 0.54465 1.00336 0.84523 0.0
C227 C 0.52235 0.99239 0.89 0.0
N228 N 0.46653 0.96749 0.98062 0.0
C229 C 0.45916 0.95336 0.93297 0.0
C230 C 0.42482 0.92492 0.93086 0.0
C231 C 0.40946 0.92019 0.98038 0.0
C232 C 0.43548 0.94607 0.00996 0.0
N233 N 0.50025 0.04093 0.97336 0.0
C234 C 0.48595 0.09009 0.9286 0.0
C235 C 0.47891 0.06165 0.90115 0.0
C236 C 0.48615 0.03765 0.924 0.0
C237 C 0.49987 0.09334 0.97923 0.0
C238 C 0.50636 0.06838 0.001 0.0
N239 N 0.52703 0.97514 0.03032 0.0
C240 C 0.52216 0.91989 0.02803 0.0
C241 C 0.53668 0.92346 0.07816 0.0
C242 C 0.54799 0.95404 0.10273 0.0
C243 C 0.54288 0.97926 0.07842 0.0
C244 C 0.5181 0.94609 0.00466 0.0
H245 H 0.55113 1.00141 0.10006 0.0
H246 H 0.50696 0.94181 0.96635 0.0
H247 H 0.48083 0.01705 0.90041 0.0
H248 H 0.51683 0.07213 0.03988 0.0
C249 C 0.54196 0.05032 0.11108 0.0
C250 C 0.42992 0.94815 0.06643 0.0
C251 C 0.5959 0.06992 0.93547 0.0
C252 C 0.48604 0.9655 0.89275 0.0
H253 H 0.42922 0.96707 0.17318 0.0
H254 H 0.49025 0.02314 0.19764 0.0
H255 H 0.61426 0.10891 0.10417 0.0
H256 H 0.6435 0.11939 0.007 0.0
H257 H 0.59872 0.04971 0.8311 0.0
H258 H 0.5386 0.99201 0.80717 0.0
H259 H 0.41281 0.90877 0.8979 0.0
H260 H 0.38249 0.89949 0.99378 0.0
H261 H 0.46888 0.05847 0.86125 0.0
H262 H 0.50582 0.11507 0.00182 0.0
H263 H 0.51369 0.89687 0.00713 0.0
H264 H 0.55954 0.95793 0.14163 0.0
C265 C 0.51712 0.57463 0.5236 0.0
C266 C 0.50638 0.58938 0.55934 0.0
C267 C 0.48844 0.56483 0.60093 0.0
C268 C 0.48928 0.53665 0.58811 0.0
N269 N 0.50753 0.54201 0.54159 0.0
Co270 Co 0.512 0.50681 0.50489 0.0
N271 N 0.48131 0.46907 0.5621 0.0
C272 C 0.46633 0.47227 0.60644 0.0
C273 C 0.44912 0.44276 0.64062 0.0
C274 C 0.45402 0.4195 0.61741 0.0
C275 C 0.47388 0.43615 0.56994 0.0
N276 N 0.51561 0.47142 0.46734 0.0
C277 C 0.50434 0.43809 0.48375 0.0
C278 C 0.51336 0.42287 0.44632 0.0
C279 C 0.5318 0.44775 0.40526 0.0
C280 C 0.53286 0.4766 0.41985 0.0
N281 N 0.5434 0.54475 0.44839 0.0
C282 C 0.56038 0.54225 0.4059 0.0
C283 C 0.57852 0.5722 0.3726 0.0
C284 C 0.57217 0.59494 0.39455 0.0
C285 C 0.55042 0.57747 0.44019 0.0
N286 N 0.55538 0.51824 0.54527 0.0
C287 C 0.61496 0.53045 0.60414 0.0
C288 C 0.61312 0.5243 0.55026 0.0
C289 C 0.58358 0.51871 0.52168 0.0
C290 C 0.58661 0.53061 0.628 0.0
C291 C 0.55737 0.52446 0.5982 0.0
N292 N 0.46887 0.49565 0.46443 0.0
C293 C 0.44309 0.49558 0.37967 0.0
C294 C 0.41284 0.49128 0.40508 0.0
C295 C 0.40999 0.48711 0.46077 0.0
C296 C 0.43819 0.48937 0.48955 0.0
C297 C 0.47029 0.49722 0.40976 0.0
H298 H 0.43503 0.48698 0.53201 0.0
H299 H 0.49271 0.50083 0.38779 0.0
H300 H 0.58409 0.5145 0.48065 0.0
H301 H 0.53647 0.52437 0.61911 0.0
C302 C 0.47079 0.50398 0.61647 0.0
C303 C 0.5344 0.59176 0.47167 0.0
C304 C 0.48745 0.42069 0.53586 0.0
C305 C 0.5539 0.51 0.39383 0.0
H306 H 0.51013 0.61482 0.55481 0.0
H307 H 0.47503 0.56674 0.63526 0.0
H308 H 0.4358 0.43905 0.67889 0.0
H309 H 0.44501 0.39365 0.63463 0.0
H310 H 0.50829 0.39689 0.4495 0.0
H311 H 0.54455 0.44564 0.3703 0.0
H312 H 0.59274 0.5763 0.33504 0.0
H313 H 0.58114 0.62084 0.37751 0.0
H314 H 0.63452 0.52399 0.53011 0.0
H315 H 0.58657 0.5347 0.66998 0.0
H316 H 0.44603 0.49823 0.33647 0.0
H317 H 0.3868 0.48344 0.48202 0.0
H318 H 0.36087 0.49321 0.19869 0.0
H319 H 0.27512 0.48784 0.28378 0.0
H320 H 0.28059 0.4962 0.10944 0.0
H321 H 0.22746 0.48696 0.11155 0.0
H322 H 0.1542 0.50088 0.19918 0.0
H323 H 0.23879 0.50316 0.28152 0.0
C324 C 0.33616 0.49278 0.19802 0.0
C325 C 0.32184 0.49379 0.1492 0.0
C326 C 0.31978 0.4916 0.24595 0.0
C327 C 0.28738 0.49019 0.2454 0.0
C328 C 0.2721 0.49243 0.19644 0.0
C329 C 0.29016 0.49406 0.14804 0.0
C330 C 0.23862 0.49426 0.1965 0.0
C331 C 0.21955 0.49148 0.14918 0.0
C332 C 0.18967 0.4948 0.15013 0.0
C333 C 0.17779 0.4994 0.19825 0.0
C334 C 0.19515 0.50173 0.24529 0.0
C335 C 0.22554 0.49964 0.2444 0.0
H336 H 0.65106 0.13752 0.72976 0.0
H337 H 0.73972 0.21599 0.81055 0.0
H338 H 0.73867 0.22306 0.63666 0.0
H339 H 0.79425 0.26378 0.63578 0.0
H340 H 0.87178 0.35195 0.71561 0.0
H341 H 0.77877 0.2706 0.80494 0.0
C342 C 0.67697 0.16209 0.72794 0.0
C343 C 0.69364 0.17862 0.67843 0.0
C344 C 0.69319 0.17588 0.77518 0.0
C345 C 0.72744 0.20698 0.77304 0.0
C346 C 0.74498 0.22574 0.72323 0.0
C347 C 0.72727 0.2105 0.67582 0.0
C348 C 0.78087 0.26088 0.721 0.0
C349 C 0.80221 0.27655 0.67245 0.0
C350 C 0.8346 0.30954 0.6707 0.0
C351 C 0.84661 0.32668 0.71718 0.0
C352 C 0.82669 0.31259 0.76527 0.0
C353 C 0.79396 0.27997 0.76732 0.0
H354 H 0.54027 0.66049 0.28725 0.0
H355 H 0.55512 0.75014 0.19812 0.0
H356 H 0.52855 0.73268 0.36911 0.0
H357 H 0.54844 0.78763 0.36679 0.0
H358 H 0.54628 0.86792 0.27397 0.0
H359 H 0.53457 0.78305 0.19512 0.0
C360 C 0.54064 0.68441 0.28607 0.0
C361 C 0.53441 0.69498 0.33319 0.0
C362 C 0.54783 0.70406 0.23766 0.0
C363 C 0.5483 0.73503 0.23608 0.0
C364 C 0.54128 0.74653 0.2832 0.0
C365 C 0.53439 0.72573 0.33201 0.0
C366 C 0.5417 0.78002 0.28126 0.0
C367 C 0.54555 0.7975 0.32821 0.0
C368 C 0.54675 0.82893 0.32542 0.0
C369 C 0.54502 0.84353 0.27608 0.0
C370 C 0.54152 0.82746 0.22941 0.0
C371 C 0.53882 0.79541 0.23193 0.0
H372 H 0.88119 0.53039 0.80323 0.0
H373 H 0.79914 0.52895 0.8943 0.0
H374 H 0.79616 0.52724 0.72076 0.0
H375 H 0.75689 0.53885 0.72123 0.0
H376 H 0.6691 0.52887 0.80759 0.0
H377 H 0.74691 0.52073 0.89505 0.0
C378 C 0.85651 0.52999 0.80455 0.0
C379 C 0.84058 0.53023 0.75713 0.0
C380 C 0.84124 0.52867 0.85369 0.0
C381 C 0.80949 0.52882 0.85554 0.0
C382 C 0.79195 0.52877 0.80764 0.0
C383 C 0.80807 0.52857 0.75858 0.0
C384 C 0.75752 0.52898 0.80812 0.0
C385 C 0.74347 0.53399 0.75957 0.0
C386 C 0.71176 0.53392 0.75957 0.0
C387 C 0.69363 0.52898 0.80772 0.0
C388 C 0.70644 0.5247 0.85612 0.0
C389 C 0.73816 0.52456 0.85669 0.0
H390 H 0.15803 0.66132 0.28144 0.0
H391 H 0.2468 0.74774 0.19216 0.0
H392 H 0.23147 0.75076 0.36278 0.0
H393 H 0.28695 0.79372 0.36129 0.0
H394 H 0.36728 0.8852 0.26791 0.0
H395 H 0.28215 0.80261 0.18804 0.0
C396 C 0.18228 0.68728 0.2803 0.0
C397 C 0.19358 0.7039 0.32735 0.0
C398 C 0.20102 0.70325 0.23181 0.0
C399 C 0.23231 0.73695 0.23019 0.0
C400 C 0.24473 0.75545 0.27717 0.0
C401 C 0.22419 0.73818 0.32588 0.0
C402 C 0.27878 0.79205 0.27511 0.0
C403 C 0.29665 0.80754 0.32235 0.0
C404 C 0.32816 0.84133 0.31957 0.0
C405 C 0.34264 0.85949 0.27002 0.0
C406 C 0.32644 0.84513 0.22308 0.0
C407 C 0.2944 0.81201 0.22542 0.0
H408 H 0.50444 0.36397 0.71996 0.0
H409 H 0.5029 0.28131 0.81054 0.0
H410 H 0.48733 0.27755 0.63912 0.0
H411 H 0.49878 0.23763 0.64104 0.0
H412 H 0.48085 0.14782 0.73409 0.0
H413 H 0.48251 0.22758 0.81423 0.0
C414 C 0.50223 0.33914 0.72135 0.0
C415 C 0.49723 0.32292 0.67429 0.0
C416 C 0.50341 0.32378 0.77027 0.0
C417 C 0.50031 0.29151 0.77213 0.0
C418 C 0.49477 0.27364 0.72503 0.0
C419 C 0.49263 0.28994 0.67607 0.0
C420 C 0.49108 0.23847 0.72719 0.0
C421 C 0.49336 0.22387 0.67995 0.0
C422 C 0.48872 0.19082 0.68257 0.0
C423 C 0.48339 0.17282 0.73207 0.0
C424 C 0.48193 0.18648 0.77909 0.0
C425 C 0.48522 0.21879 0.77684 0.0
C426 C 0.13948 0.52081 0.05956 0.0
C427 C 0.1107 0.48844 0.04539 0.0
C428 C 0.16812 0.5234 0.0876 0.0
C429 C 0.16906 0.49371 0.10266 0.0
H430 H 0.13865 0.54391 0.05211 0.0
H431 H 0.18807 0.54834 0.10181 0.0
S432 S 0.10255 0.40372 0.06853 0.0
N433 N 0.08701 0.42684 0.04242 0.0
N434 N 0.14027 0.43153 0.09666 0.0
C435 C 0.14194 0.46172 0.08476 0.0
C436 C 0.11289 0.45913 0.05578 0.0
C437 C 0.61625 0.12748 0.59055 0.0
C438 C 0.62476 0.10517 0.56905 0.0
C439 C 0.64084 0.15454 0.62102 0.0
C440 C 0.6748 0.16022 0.63094 0.0
H441 H 0.58967 0.12268 0.58637 0.0
H442 H 0.63223 0.16939 0.64044 0.0
S443 S 0.71056 0.11027 0.58022 0.0
N444 N 0.66995 0.0917 0.5566 0.0
N445 N 0.71617 0.14243 0.61418 0.0
C446 C 0.68434 0.13944 0.60668 0.0
C447 C 0.65927 0.11185 0.57574 0.0
C448 C 0.52641 0.65302 0.11615 0.0
C449 C 0.5507 0.64226 0.11947 0.0
C450 C 0.52784 0.6765 0.15108 0.0
C451 C 0.55396 0.69031 0.18977 0.0
H452 H 0.50468 0.64139 0.08903 0.0
H453 H 0.50674 0.68165 0.15062 0.0
S454 S 0.62789 0.67586 0.20748 0.0
N455 N 0.60466 0.6512 0.15923 0.0
N456 N 0.60757 0.69546 0.2242 0.0
C457 C 0.58048 0.68245 0.18966 0.0
C458 C 0.57877 0.65836 0.15474 0.0
C459 C 0.91704 0.55765 0.65872 0.0
C460 C 0.90433 0.52771 0.63091 0.0
C461 C 0.89484 0.55965 0.69593 0.0
C462 C 0.8591 0.53173 0.70692 0.0
H463 H 0.94485 0.5791 0.65341 0.0
H464 H 0.90637 0.5823 0.71885 0.0
S465 S 0.81204 0.44859 0.64247 0.0
N466 N 0.85293 0.4705 0.61432 0.0
N467 N 0.81136 0.47421 0.68502 0.0
C468 C 0.84535 0.50259 0.67708 0.0
C469 C 0.86795 0.50059 0.63887 0.0
C470 C 0.39843 0.88824 0.11321 0.0
C471 C 0.39845 0.91827 0.09767 0.0
C472 C 0.37225 0.8623 0.15008 0.0
C473 C 0.34522 0.86556 0.17231 0.0
H474 H 0.41998 0.88579 0.09916 0.0
H475 H 0.37468 0.84084 0.16418 0.0
S476 S 0.3319 0.93777 0.14086 0.0
N477 N 0.3677 0.94847 0.10369 0.0
N478 N 0.31887 0.90004 0.17371 0.0
C479 C 0.34377 0.89443 0.15452 0.0
C480 C 0.37028 0.92071 0.11689 0.0
C481 C 0.5241 0.39965 0.57717 0.0
C482 C 0.4908 0.3918 0.55898 0.0
C483 C 0.5268 0.37507 0.60944 0.0
C484 C 0.49628 0.34182 0.62469 0.0
H485 H 0.54772 0.42574 0.56958 0.0
H486 H 0.55237 0.38314 0.62645 0.0
S487 S 0.4039 0.3072 0.58123 0.0
N488 N 0.42759 0.34738 0.55276 0.0
N489 N 0.4325 0.30135 0.61468 0.0
C490 C 0.46346 0.33272 0.60285 0.0
C491 C 0.46076 0.35772 0.56967 0.0
C492 C 0.51649 0.86322 0.43057 0.0
C493 C 0.546 0.89795 0.43023 0.0
C494 C 0.51819 0.83878 0.40173 0.0
C495 C 0.54962 0.84816 0.37242 0.0
H496 H 0.49109 0.85568 0.44954 0.0
H497 H 0.49387 0.81345 0.39838 0.0
S498 S 0.63591 0.9339 0.36635 0.0
N499 N 0.60881 0.93902 0.40389 0.0
N500 N 0.61201 0.89314 0.35028 0.0
C501 C 0.58022 0.88173 0.37632 0.0
C502 C 0.5784 0.90664 0.405 0.0
C503 C 0.62406 0.49429 0.94131 0.0
C504 C 0.63194 0.52561 0.96089 0.0
C505 C 0.65048 0.49256 0.91355 0.0
C506 C 0.68566 0.52208 0.90453 0.0
H507 H 0.59674 0.47173 0.94415 0.0
H508 H 0.64247 0.46897 0.89457 0.0
S509 S 0.72054 0.60895 0.95343 0.0
N510 N 0.67796 0.58558 0.97458 0.0
N511 N 0.72747 0.58253 0.92162 0.0
C512 C 0.69445 0.5526 0.92798 0.0
C513 C 0.66758 0.55435 0.95628 0.0
C514 C 0.14 0.62498 0.4233 0.0
C515 C 0.11189 0.62825 0.44026 0.0
C516 C 0.16939 0.65205 0.39209 0.0
C517 C 0.17174 0.68336 0.37656 0.0
H518 H 0.13816 0.60054 0.43147 0.0
H519 H 0.18891 0.64732 0.37613 0.0
S520 S 0.10743 0.70642 0.41689 0.0
N521 N 0.09028 0.66662 0.44512 0.0
N522 N 0.145 0.71712 0.38476 0.0
C523 C 0.14522 0.68794 0.39687 0.0
C524 C 0.11539 0.66044 0.42911 0.0
C525 C 0.51014 0.15206 0.89533 0.0
C526 C 0.481 0.11711 0.90215 0.0
C527 C 0.50888 0.17623 0.85942 0.0
C528 C 0.4783 0.16621 0.82981 0.0
H529 H 0.53505 0.16007 0.91445 0.0
H530 H 0.53298 0.20192 0.85136 0.0
S531 S 0.39279 0.07978 0.84065 0.0
N532 N 0.41904 0.07522 0.88217 0.0
N533 N 0.41681 0.12055 0.81477 0.0
C534 C 0.4479 0.13238 0.84031 0.0
C535 C 0.44921 0.10782 0.87647 0.0
C536 C 0.39716 0.52234 0.33687 0.0
C537 C 0.38579 0.49298 0.37264 0.0
C538 C 0.37418 0.52277 0.29916 0.0
C539 C 0.33895 0.49379 0.29549 0.0
H540 H 0.42459 0.54461 0.33653 0.0
H541 H 0.38475 0.54517 0.27041 0.0
S542 S 0.29524 0.41162 0.38262 0.0
N543 N 0.3362 0.43519 0.40477 0.0
N544 N 0.29301 0.43585 0.33304 0.0
C545 C 0.32646 0.46512 0.33313 0.0
C546 C 0.34991 0.46475 0.37193 0.0
C547 C 0.88121 0.348 0.88726 0.0
C548 C 0.89122 0.38297 0.88187 0.0
C549 C 0.85688 0.32371 0.85263 0.0
C550 C 0.84159 0.33363 0.81207 0.0
H551 H 0.89405 0.33998 0.91595 0.0
H552 H 0.85214 0.29784 0.85498 0.0
S553 S 0.8549 0.42063 0.78705 0.0
N554 N 0.88085 0.42515 0.8371 0.0
N555 N 0.83514 0.37967 0.77259 0.0
C556 C 0.84916 0.36774 0.80948 0.0
C557 C 0.87402 0.39239 0.84417 0.0
C558 C 0.88809 0.49692 0.94 0.0
C559 C 0.9177 0.52828 0.95573 0.0
C560 C 0.85999 0.49633 0.91318 0.0
C561 C 0.86042 0.52705 0.90119 0.0
H562 H 0.88787 0.47315 0.94516 0.0
H563 H 0.83947 0.47225 0.89729 0.0
S564 S 0.92993 0.61502 0.93954 0.0
N565 N 0.94399 0.59002 0.96271 0.0
N566 N 0.89163 0.58905 0.91122 0.0
C567 C 0.88849 0.55798 0.92059 0.0
C568 C 0.91703 0.55856 0.9481 0.0
C569 C 0.36832 0.9106 0.41713 0.0
C570 C 0.40075 0.91327 0.42789 0.0
C571 C 0.34234 0.88412 0.38694 0.0
C572 C 0.34788 0.85934 0.36684 0.0
H573 H 0.36397 0.93028 0.42945 0.0
H574 H 0.31906 0.88462 0.37577 0.0
S575 S 0.4275 0.85407 0.38699 0.0
N576 N 0.43615 0.88799 0.41903 0.0
N577 N 0.38754 0.83841 0.36214 0.0
C578 C 0.37932 0.86068 0.38013 0.0
C579 C 0.40572 0.88761 0.41071 0.0
C580 C 0.53404 0.39941 0.85428 0.0
C581 C 0.50399 0.38746 0.8889 0.0
C582 C 0.53541 0.37728 0.81985 0.0
C583 C 0.50671 0.34234 0.81846 0.0
H584 H 0.55593 0.42657 0.85198 0.0
H585 H 0.55798 0.38822 0.79135 0.0
S586 S 0.42343 0.29747 0.90454 0.0
N587 N 0.44624 0.33773 0.92298 0.0
N588 N 0.44863 0.29616 0.85754 0.0
C589 C 0.4777 0.32939 0.85557 0.0
C590 C 0.47636 0.35196 0.89094 0.0
C591 C 0.15115 0.53302 0.33307 0.0
C592 C 0.1323 0.50508 0.37225 0.0
C593 C 0.17455 0.53346 0.29513 0.0
C594 C 0.17992 0.50591 0.29474 0.0
H595 H 0.14639 0.55387 0.33011 0.0
H596 H 0.18671 0.55438 0.26364 0.0
S597 S 0.13952 0.42827 0.39161 0.0
N598 N 0.12276 0.45058 0.41109 0.0
N599 N 0.16663 0.45128 0.33919 0.0
C600 C 0.16329 0.47908 0.33595 0.0
C601 C 0.13946 0.47868 0.37486 0.0
C602 C 0.65831 0.10883 0.89355 0.0
C603 C 0.62352 0.10164 0.90223 0.0
C604 C 0.68268 0.1357 0.85579 0.0
C605 C 0.67291 0.15611 0.82576 0.0
H606 H 0.66599 0.09246 0.91408 0.0
H607 H 0.70829 0.13891 0.84738 0.0
S608 S 0.58584 0.14901 0.83692 0.0
N609 N 0.58135 0.11822 0.88064 0.0
N610 N 0.62687 0.16855 0.80986 0.0
C611 C 0.63889 0.1503 0.83659 0.0
C612 C 0.61423 0.12305 0.87474 0.0
C613 C 0.5006 0.61292 0.42082 0.0
C614 C 0.5316 0.6207 0.44751 0.0
C615 C 0.49981 0.63879 0.38881 0.0
C616 C 0.52996 0.67327 0.38265 0.0
H617 H 0.47775 0.58624 0.42181 0.0
H618 H 0.47666 0.63113 0.36502 0.0
S619 S 0.61619 0.70728 0.44868 0.0
N620 N 0.59182 0.66554 0.46983 0.0
N621 N 0.59052 0.71414 0.40922 0.0
C622 C 0.56001 0.68178 0.41256 0.0
C623 C 0.56082 0.65545 0.44506 0.0
C624 C 0.45848 0.11756 0.59427 0.0
C625 C 0.49116 0.12365 0.57428 0.0
C626 C 0.45754 0.14198 0.62395 0.0
C627 C 0.48926 0.17331 0.63521 0.0
H628 H 0.43365 0.09291 0.58936 0.0
H629 H 0.43209 0.13506 0.64198 0.0
S630 S 0.5815 0.20234 0.58996 0.0
N631 N 0.5558 0.16418 0.56513 0.0
N632 N 0.55402 0.2097 0.62199 0.0
C633 C 0.52186 0.18063 0.61276 0.0
C634 C 0.52281 0.15588 0.58206 0.0
C635 C 0.36232 0.46264 0.05532 0.0
C636 C 0.3972 0.49251 0.04613 0.0
C637 C 0.33546 0.46402 0.08273 0.0
C638 C 0.34245 0.4954 0.10117 0.0
H639 H 0.35657 0.43762 0.04475 0.0
H640 H 0.31019 0.43985 0.09385 0.0
S641 S 0.42807 0.58148 0.08121 0.0
N642 N 0.43619 0.55479 0.05286 0.0
N643 N 0.3858 0.55745 0.10371 0.0
C644 C 0.37625 0.52588 0.08777 0.0
C645 C 0.4036 0.52443 0.06041 0.0
C646 C 0.91639 0.35736 0.57805 0.0
C647 C 0.91591 0.38689 0.56013 0.0
C648 C 0.88737 0.32925 0.60888 0.0
C649 C 0.85639 0.32917 0.62107 0.0
H650 H 0.9404 0.35718 0.57158 0.0
H651 H 0.89038 0.30889 0.6269 0.0
S652 S 0.83904 0.39686 0.57479 0.0
N653 N 0.88009 0.41215 0.5511 0.0
N654 N 0.82515 0.35874 0.60682 0.0
C655 C 0.85413 0.35669 0.59827 0.0
C656 C 0.88392 0.38564 0.56819 0.0
C657 C 0.57136 0.90263 0.12737 0.0
C658 C 0.53875 0.89514 0.10646 0.0
C659 C 0.5727 0.87847 0.16283 0.0
C660 C 0.54147 0.84601 0.1789 0.0
H661 H 0.59567 0.92806 0.11841 0.0
H662 H 0.59787 0.88626 0.18101 0.0
S663 S 0.44984 0.81297 0.13342 0.0
N664 N 0.47487 0.85211 0.10183 0.0
N665 N 0.47746 0.80689 0.16921 0.0
C666 C 0.50914 0.8373 0.15576 0.0
C667 C 0.50776 0.86185 0.11933 0.0
C668 C 0.65455 0.51038 0.63866 0.0
C669 C 0.64547 0.5355 0.63612 0.0
C670 C 0.6792 0.51178 0.67537 0.0
C671 C 0.6958 0.53855 0.71025 0.0
H672 H 0.64082 0.4883 0.61459 0.0
H673 H 0.68328 0.4905 0.67914 0.0
S674 S 0.68543 0.6134 0.71369 0.0
N675 N 0.65823 0.59 0.66731 0.0
N676 N 0.70446 0.59268 0.73581 0.0
C677 C 0.68907 0.56523 0.70496 0.0
C678 C 0.66389 0.56366 0.66812 0.0
C679 C 0.15431 0.62526 0.15076 0.0
C680 C 0.13583 0.634 0.11443 0.0
C681 C 0.17895 0.64952 0.18465 0.0
C682 C 0.18585 0.68338 0.18392 0.0
H683 H 0.14837 0.59894 0.15477 0.0
H684 H 0.1907 0.64092 0.21449 0.0
S685 S 0.14687 0.72013 0.09295 0.0
N686 N 0.12833 0.67968 0.07647 0.0
N687 N 0.17425 0.72515 0.14113 0.0
C688 C 0.16953 0.69322 0.14519 0.0
C689 C 0.14454 0.66852 0.11026 0.0
loop_
_geom_bond_atom_site_label_1
_geom_bond_atom_site_label_2
_geom_bond_distance
_geom_bond_site_symmetry_2
_ccdc_geom_bond_type
C0 C1 1.443 1_556 S
C0 N4 1.376 1_556 S
C0 C38 1.389 . S
C1 C0 1.443 1_554 S
C1 C2 1.340 . S
C1 H41 0.951 . S
C2 C1 1.340 . S
C2 C3 1.439 . S
C2 H42 0.950 . S
C3 C2 1.439 . S
C3 N4 1.374 . S
C3 C37 1.395 . S
N4 C0 1.376 1_554 S
N4 C3 1.374 . S
N4 Co5 2.009 1_655 S
Co5 N4 2.009 1_455 S
Co5 N6 1.986 . S
Co5 N11 2.007 1_554 S
Co5 N16 1.992 1_554 S
Co5 N21 2.284 . S
Co5 N27 2.281 1_454 S
N6 Co5 1.986 . S
N6 C7 1.357 1_455 S
N6 C10 1.418 . S
C7 N6 1.357 1_655 S
C7 C8 1.446 . S
C7 C37 1.391 . S
C8 C7 1.446 . S
C8 C9 1.339 1_655 S
C8 H43 0.949 . S
C9 C8 1.339 1_455 S
C9 C10 1.439 . S
C9 H44 0.950 . S
C10 N6 1.418 . S
C10 C9 1.439 . S
C10 C39 1.392 . S
N11 Co5 2.007 1_556 S
N11 C12 1.376 1_556 S
N11 C15 1.374 . S
C12 N11 1.376 1_554 S
C12 C13 1.443 1_554 S
C12 C39 1.389 . S
C13 C12 1.443 1_556 S
C13 C14 1.340 . S
C13 H45 0.951 . S
C14 C13 1.340 . S
C14 C15 1.439 . S
C14 H46 0.950 . S
C15 N11 1.374 . S
C15 C14 1.439 . S
C15 C40 1.395 . S
N16 Co5 1.992 1_556 S
N16 C17 1.376 . S
N16 C20 1.383 1_455 S
C17 N16 1.376 . S
C17 C18 1.446 . S
C17 C40 1.391 . S
C18 C17 1.446 . S
C18 C19 1.339 1_455 S
C18 H47 0.949 . S
C19 C18 1.339 1_655 S
C19 C20 1.439 . S
C19 H48 0.950 . S
C20 N16 1.383 1_655 S
C20 C19 1.439 . S
C20 C38 1.392 . S
N21 Co5 2.284 . S
N21 C24 1.332 . S
N21 C26 1.332 . S
C22 C23 1.386 . S
C22 C25 1.388 . S
C23 C22 1.386 . S
C23 C24 1.382 . S
C23 H49 0.950 . S
C24 N21 1.332 . S
C24 C23 1.382 . S
C24 H35 0.952 1_554 S
C25 C22 1.388 . S
C25 C26 1.382 . S
C25 H50 0.950 . S
C26 N21 1.332 . S
C26 C25 1.382 . S
C26 H36 0.948 . S
N27 Co5 2.281 1_656 S
N27 C31 1.332 . S
N27 C32 1.332 . S
C28 C29 1.388 . S
C28 C32 1.382 . S
C28 H51 0.950 . S
C29 C28 1.388 . S
C29 C30 1.386 . S
C30 C29 1.386 . S
C30 C31 1.382 . S
C30 H52 0.950 . S
C31 N27 1.332 . S
C31 C30 1.382 . S
C31 H33 0.952 1_556 S
C32 N27 1.332 . S
C32 C28 1.382 . S
C32 H34 0.948 . S
H33 C31 0.952 1_554 S
H34 C32 0.948 . S
H35 C24 0.952 1_556 S
H36 C26 0.948 . S
C37 C3 1.395 . S
C37 C7 1.391 . S
C38 C0 1.389 . S
C38 C20 1.392 . S
C39 C10 1.392 . S
C39 C12 1.389 . S
C40 C15 1.395 . S
C40 C17 1.391 . S
H41 C1 0.951 . S
H42 C2 0.950 . S
H43 C8 0.949 . S
H44 C9 0.950 . S
H45 C13 0.951 . S
H46 C14 0.950 . S
H47 C18 0.949 . S
H48 C19 0.950 . S
H49 C23 0.950 . S
H50 C25 0.950 . S
H51 C28 0.950 . S
H52 C30 0.950 . S
C53 C54 1.443 . S
C53 N57 1.376 . S
C53 C91 1.389 . S
C54 C53 1.443 . S
C54 C55 1.340 1_545 S
C54 H94 0.951 . S
C55 C54 1.340 1_565 S
C55 C56 1.439 . S
C55 H95 0.950 . S
C56 C55 1.439 . S
C56 N57 1.374 1_565 S
C56 C90 1.395 . S
N57 C53 1.376 . S
N57 C56 1.374 1_545 S
N57 Co58 2.008 . S
Co58 N57 2.008 . S
Co58 N59 1.995 1_545 S
Co58 N64 2.006 . S
Co58 N69 1.995 . S
Co58 N74 2.282 1_545 S
Co58 N80 2.282 . S
N59 Co58 1.995 1_565 S
N59 C60 1.376 . S
N59 C63 1.383 . S
C60 N59 1.376 . S
C60 C61 1.446 . S
C60 C90 1.391 . S
C61 C60 1.446 . S
C61 C62 1.339 . S
C61 H96 0.949 . S
C62 C61 1.339 . S
C62 C63 1.439 . S
C62 H97 0.950 . S
C63 N59 1.383 . S
C63 C62 1.439 . S
C63 C92 1.392 . S
N64 Co58 2.006 . S
N64 C65 1.369 1_545 S
N64 C68 1.381 . S
C65 N64 1.369 1_565 S
C65 C66 1.443 . S
C65 C92 1.389 . S
C66 C65 1.443 . S
C66 C67 1.340 1_565 S
C66 H98 0.951 . S
C67 C66 1.340 1_545 S
C67 C68 1.439 . S
C67 H99 0.950 . S
C68 N64 1.381 . S
C68 C67 1.439 . S
C68 C93 1.395 . S
N69 Co58 1.995 . S
N69 C70 1.376 . S
N69 C73 1.383 . S
C70 N69 1.376 . S
C70 C71 1.446 . S
C70 C93 1.391 . S
C71 C70 1.446 . S
C71 C72 1.339 . S
C71 H100 0.949 . S
C72 C71 1.339 . S
C72 C73 1.439 . S
C72 H101 0.950 . S
C73 N69 1.383 . S
C73 C72 1.439 . S
C73 C91 1.392 . S
N74 Co58 2.282 1_565 S
N74 C77 1.332 . S
N74 C79 1.332 . S
C75 C76 1.386 . S
C75 C78 1.388 . S
C76 C75 1.386 . S
C76 C77 1.382 . S
C76 H102 0.950 . S
C77 N74 1.332 . S
C77 C76 1.382 . S
C77 H88 0.952 1_565 S
C78 C75 1.388 . S
C78 C79 1.382 . S
C78 H103 0.950 . S
C79 N74 1.332 . S
C79 C78 1.382 . S
C79 H89 0.948 . S
N80 Co58 2.282 . S
N80 C84 1.332 . S
N80 C85 1.332 . S
C81 C82 1.388 . S
C81 C85 1.382 . S
C81 H104 0.950 . S
C82 C81 1.388 . S
C82 C83 1.386 . S
C83 C82 1.386 . S
C83 C84 1.382 . S
C83 H105 0.950 . S
C84 N80 1.332 . S
C84 C83 1.382 . S
C84 H86 0.952 . S
C85 N80 1.332 . S
C85 C81 1.382 . S
C85 H87 0.948 . S
H86 C84 0.952 . S
H87 C85 0.948 . S
H88 C77 0.952 1_545 S
H89 C79 0.948 . S
C90 C56 1.395 . S
C90 C60 1.391 . S
C91 C53 1.389 . S
C91 C73 1.392 . S
C92 C63 1.392 . S
C92 C65 1.389 . S
C93 C68 1.395 . S
C93 C70 1.391 . S
H94 C54 0.951 . S
H95 C55 0.950 . S
H96 C61 0.949 . S
H97 C62 0.950 . S
H98 C66 0.951 . S
H99 C67 0.950 . S
H100 C71 0.949 . S
H101 C72 0.950 . S
H102 C76 0.950 . S
H103 C78 0.950 . S
H104 C81 0.950 . S
H105 C83 0.950 . S
C106 C107 1.443 . S
C106 N110 1.376 . S
C106 C144 1.389 . S
C107 C106 1.443 . S
C107 C108 1.340 . S
C107 H147 0.951 . S
C108 C107 1.340 . S
C108 C109 1.439 . S
C108 H148 0.950 . S
C109 C108 1.439 . S
C109 N110 1.374 . S
C109 C143 1.395 . S
N110 C106 1.376 . S
N110 C109 1.374 . S
N110 Co111 2.001 1_556 S
Co111 N110 2.001 1_554 S
Co111 N112 1.992 1_554 S
Co111 N117 2.015 . S
Co111 N122 1.997 . S
Co111 N127 2.286 . S
Co111 N133 2.279 1_554 S
N112 Co111 1.992 1_556 S
N112 C113 1.376 . S
N112 C116 1.383 1_556 S
C113 N112 1.376 . S
C113 C114 1.446 . S
C113 C143 1.391 . S
C114 C113 1.446 . S
C114 C115 1.339 . S
C114 H149 0.949 . S
C115 C114 1.339 . S
C115 C116 1.439 1_556 S
C115 H150 0.950 . S
C116 N112 1.383 1_554 S
C116 C115 1.439 1_554 S
C116 C145 1.392 . S
N117 Co111 2.015 . S
N117 C118 1.376 . S
N117 C121 1.374 . S
C118 N117 1.376 . S
C118 C119 1.443 . S
C118 C145 1.389 . S
C119 C118 1.443 . S
C119 C120 1.340 . S
C119 H151 0.951 . S
C120 C119 1.340 . S
C120 C121 1.439 . S
C120 H152 0.950 . S
C121 N117 1.374 . S
C121 C120 1.439 . S
C121 C146 1.395 . S
N122 Co111 1.997 . S
N122 C123 1.376 . S
N122 C126 1.383 1_554 S
C123 N122 1.376 . S
C123 C124 1.446 . S
C123 C146 1.391 . S
C124 C123 1.446 . S
C124 C125 1.339 . S
C124 H153 0.949 . S
C125 C124 1.339 . S
C125 C126 1.439 1_554 S
C125 H154 0.950 . S
C126 N122 1.383 1_556 S
C126 C125 1.439 1_556 S
C126 C144 1.392 . S
N127 Co111 2.286 . S
N127 C130 1.332 . S
N127 C132 1.332 . S
C128 C129 1.386 . S
C128 C131 1.388 . S
C129 C128 1.386 . S
C129 C130 1.382 . S
C129 H155 0.950 . S
C130 N127 1.332 . S
C130 C129 1.382 . S
C130 H141 0.952 . S
C131 C128 1.388 . S
C131 C132 1.382 . S
C131 H156 0.950 . S
C132 N127 1.332 . S
C132 C131 1.382 . S
C132 H142 0.948 1_554 S
N133 Co111 2.279 1_556 S
N133 C137 1.332 . S
N133 C138 1.332 . S
C134 C135 1.388 . S
C134 C138 1.382 . S
C134 H157 0.950 . S
C135 C134 1.388 . S
C135 C136 1.386 . S
C136 C135 1.386 . S
C136 C137 1.382 . S
C136 H158 0.950 . S
C137 N133 1.332 . S
C137 C136 1.382 . S
C137 H139 0.952 . S
C138 N133 1.332 . S
C138 C134 1.382 . S
C138 H140 0.948 1_556 S
H139 C137 0.952 . S
H140 C138 0.948 1_554 S
H141 C130 0.952 . S
H142 C132 0.948 1_556 S
C143 C109 1.395 . S
C143 C113 1.391 . S
C144 C106 1.389 . S
C144 C126 1.392 . S
C145 C116 1.392 . S
C145 C118 1.389 . S
C146 C121 1.395 . S
C146 C123 1.391 . S
H147 C107 0.951 . S
H148 C108 0.950 . S
H149 C114 0.949 . S
H150 C115 0.950 . S
H151 C119 0.951 . S
H152 C120 0.950 . S
H153 C124 0.949 . S
H154 C125 0.950 . S
H155 C129 0.950 . S
H156 C131 0.950 . S
H157 C134 0.950 . S
H158 C136 0.950 . S
C159 C160 1.443 . S
C159 N163 1.376 . S
C159 C197 1.389 . S
C160 C159 1.443 . S
C160 C161 1.340 . S
C160 H200 0.951 . S
C161 C160 1.340 . S
C161 C162 1.439 . S
C161 H201 0.950 . S
C162 C161 1.439 . S
C162 N163 1.374 . S
C162 C196 1.395 . S
N163 C159 1.376 . S
N163 C162 1.374 . S
N163 Co164 2.008 1_655 S
Co164 N163 2.008 1_455 S
Co164 N165 1.995 . S
Co164 N170 2.008 . S
Co164 N175 1.995 1_455 S
Co164 N180 2.282 . S
Co164 N186 2.282 1_455 S
N165 Co164 1.995 . S
N165 C166 1.376 1_455 S
N165 C169 1.383 . S
C166 N165 1.376 1_655 S
C166 C167 1.446 . S
C166 C196 1.391 . S
C167 C166 1.446 . S
C167 C168 1.339 1_655 S
C167 H202 0.949 . S
C168 C167 1.339 1_455 S
C168 C169 1.439 . S
C168 H203 0.950 . S
C169 N165 1.383 . S
C169 C168 1.439 . S
C169 C198 1.392 . S
N170 Co164 2.008 . S
N170 C171 1.376 . S
N170 C174 1.374 . S
C171 N170 1.376 . S
C171 C172 1.443 . S
C171 C198 1.389 . S
C172 C171 1.443 . S
C172 C173 1.340 . S
C172 H204 0.951 . S
C173 C172 1.340 . S
C173 C174 1.439 . S
C173 H205 0.950 . S
C174 N170 1.374 . S
C174 C173 1.439 . S
C174 C199 1.395 . S
N175 Co164 1.995 1_655 S
N175 C176 1.376 1_655 S
N175 C179 1.383 . S
C176 N175 1.376 1_455 S
C176 C177 1.446 . S
C176 C199 1.391 . S
C177 C176 1.446 . S
C177 C178 1.339 1_455 S
C177 H206 0.949 . S
C178 C177 1.339 1_655 S
C178 C179 1.439 . S
C178 H207 0.950 . S
C179 N175 1.383 . S
C179 C178 1.439 . S
C179 C197 1.392 . S
N180 Co164 2.282 . S
N180 C183 1.332 . S
N180 C185 1.332 . S
C181 C182 1.386 . S
C181 C184 1.388 . S
C182 C181 1.386 . S
C182 C183 1.382 . S
C182 H208 0.950 . S
C183 N180 1.332 . S
C183 C182 1.382 . S
C183 H194 0.952 . S
C184 C181 1.388 . S
C184 C185 1.382 . S
C184 H209 0.950 . S
C185 N180 1.332 . S
C185 C184 1.382 . S
C185 H195 0.948 . S
N186 Co164 2.282 1_655 S
N186 C190 1.332 . S
N186 C191 1.332 . S
C187 C188 1.388 . S
C187 C191 1.382 . S
C187 H210 0.950 . S
C188 C187 1.388 . S
C188 C189 1.386 . S
C189 C188 1.386 . S
C189 C190 1.382 . S
C189 H211 0.950 . S
C190 N186 1.332 . S
C190 C189 1.382 . S
C190 H192 0.952 . S
C191 N186 1.332 . S
C191 C187 1.382 . S
C191 H193 0.948 . S
H192 C190 0.952 . S
H193 C191 0.948 . S
H194 C183 0.952 . S
H195 C185 0.948 . S
C196 C162 1.395 . S
C196 C166 1.391 . S
C197 C159 1.389 . S
C197 C179 1.392 . S
C198 C169 1.392 . S
C198 C171 1.389 . S
C199 C174 1.395 . S
C199 C176 1.391 . S
H200 C160 0.951 . S
H201 C161 0.950 . S
H202 C167 0.949 . S
H203 C168 0.950 . S
H204 C172 0.951 . S
H205 C173 0.950 . S
H206 C177 0.949 . S
H207 C178 0.950 . S
H208 C182 0.950 . S
H209 C184 0.950 . S
H210 C187 0.950 . S
H211 C189 0.950 . S
C212 C213 1.443 . S
C212 N216 1.376 . S
C212 C250 1.389 . S
C213 C212 1.443 . S
C213 C214 1.340 1_565 S
C213 H253 0.951 . S
C214 C213 1.340 1_545 S
C214 C215 1.439 . S
C214 H254 0.950 . S
C215 C214 1.439 . S
C215 N216 1.374 1_545 S
C215 C249 1.395 . S
N216 C212 1.376 . S
N216 C215 1.374 1_565 S
N216 Co217 2.008 1_565 S
Co217 N216 2.008 1_545 S
Co217 N218 1.995 . S
Co217 N223 2.008 1_554 S
Co217 N228 1.995 1_544 S
Co217 N233 2.282 1_554 S
Co217 N239 2.282 1_545 S
N218 Co217 1.995 . S
N218 C219 1.376 . S
N218 C222 1.383 1_554 S
C219 N218 1.376 . S
C219 C220 1.446 . S
C219 C249 1.391 . S
C220 C219 1.446 . S
C220 C221 1.339 . S
C220 H255 0.949 . S
C221 C220 1.339 . S
C221 C222 1.439 1_554 S
C221 H256 0.950 1_554 S
C222 N218 1.383 1_556 S
C222 C221 1.439 1_556 S
C222 C251 1.392 . S
N223 Co217 2.008 1_556 S
N223 C224 1.376 . S
N223 C227 1.374 1_545 S
C224 N223 1.376 . S
C224 C225 1.443 . S
C224 C251 1.389 . S
C225 C224 1.443 . S
C225 C226 1.331 1_545 S
C225 H257 0.951 . S
C226 C225 1.331 1_565 S
C226 C227 1.440 . S
C226 H258 0.957 . S
C227 N223 1.374 1_565 S
C227 C226 1.440 . S
C227 C252 1.395 . S
N228 Co217 1.995 1_566 S
N228 C229 1.376 . S
N228 C232 1.383 1_556 S
C229 N228 1.376 . S
C229 C230 1.446 . S
C229 C252 1.391 . S
C230 C229 1.446 . S
C230 C231 1.340 . S
C230 H259 0.949 . S
C231 C230 1.340 . S
C231 C232 1.438 1_556 S
C231 H260 0.949 1_556 S
C232 N228 1.383 1_554 S
C232 C231 1.438 1_554 S
C232 C250 1.392 . S
N233 Co217 2.282 1_556 S
N233 C236 1.332 . S
N233 C238 1.332 . S
C234 C235 1.386 . S
C234 C237 1.388 . S
C235 C234 1.386 . S
C235 C236 1.382 . S
C235 H261 0.950 . S
C236 N233 1.332 . S
C236 C235 1.382 . S
C236 H247 0.952 . S
C237 C234 1.388 . S
C237 C238 1.382 . S
C237 H262 0.950 . S
C238 N233 1.332 . S
C238 C237 1.382 . S
C238 H248 0.948 1_556 S
N239 Co217 2.282 1_565 S
N239 C243 1.332 . S
N239 C244 1.332 . S
C240 C241 1.388 . S
C240 C244 1.382 . S
C240 H263 0.950 . S
C241 C240 1.388 . S
C241 C242 1.386 . S
C242 C241 1.386 . S
C242 C243 1.382 . S
C242 H264 0.950 . S
C243 N239 1.332 . S
C243 C242 1.382 . S
C243 H245 0.936 1_565 S
C244 N239 1.332 . S
C244 C240 1.382 . S
C244 H246 0.948 1_554 S
H245 C243 0.936 1_545 S
H246 C244 0.948 1_556 S
H247 C236 0.952 . S
H248 C238 0.948 1_554 S
C249 C215 1.395 . S
C249 C219 1.391 . S
C250 C212 1.389 . S
C250 C232 1.392 . S
C251 C222 1.392 . S
C251 C224 1.389 . S
C252 C227 1.395 . S
C252 C229 1.391 . S
H253 C213 0.951 . S
H254 C214 0.950 . S
H255 C220 0.949 . S
H256 C221 0.950 1_556 S
H257 C225 0.951 . S
H258 C226 0.957 . S
H259 C230 0.949 . S
H260 C231 0.949 1_554 S
H261 C235 0.950 . S
H262 C237 0.950 . S
H263 C240 0.950 . S
H264 C242 0.950 . S
C265 C266 1.443 . S
C265 N269 1.376 . S
C265 C303 1.389 . S
C266 C265 1.443 . S
C266 C267 1.340 . S
C266 H306 0.951 . S
C267 C266 1.340 . S
C267 C268 1.439 . S
C267 H307 0.950 . S
C268 C267 1.439 . S
C268 N269 1.374 . S
C268 C302 1.395 . S
N269 C265 1.376 . S
N269 C268 1.374 . S
N269 Co270 2.008 . S
Co270 N269 2.008 . S
Co270 N271 1.995 . S
Co270 N276 2.008 . S
Co270 N281 1.995 . S
Co270 N286 2.282 . S
Co270 N292 2.282 . S
N271 Co270 1.995 . S
N271 C272 1.376 . S
N271 C275 1.383 . S
C272 N271 1.376 . S
C272 C273 1.446 . S
C272 C302 1.391 . S
C273 C272 1.446 . S
C273 C274 1.339 . S
C273 H308 0.949 . S
C274 C273 1.339 . S
C274 C275 1.439 . S
C274 H309 0.950 . S
C275 N271 1.383 . S
C275 C274 1.439 . S
C275 C304 1.392 . S
N276 Co270 2.008 . S
N276 C277 1.376 . S
N276 C280 1.374 . S
C277 N276 1.376 . S
C277 C278 1.443 . S
C277 C304 1.389 . S
C278 C277 1.443 . S
C278 C279 1.340 . S
C278 H310 0.951 . S
C279 C278 1.340 . S
C279 C280 1.439 . S
C279 H311 0.950 . S
C280 N276 1.374 . S
C280 C279 1.439 . S
C280 C305 1.395 . S
N281 Co270 1.995 . S
N281 C282 1.376 . S
N281 C285 1.383 . S
C282 N281 1.376 . S
C282 C283 1.446 . S
C282 C305 1.391 . S
C283 C282 1.446 . S
C283 C284 1.339 . S
C283 H312 0.949 . S
C284 C283 1.339 . S
C284 C285 1.439 . S
C284 H313 0.950 . S
C285 N281 1.383 . S
C285 C284 1.439 . S
C285 C303 1.392 . S
N286 Co270 2.282 . S
N286 C289 1.332 . S
N286 C291 1.332 . S
C287 C288 1.386 . S
C287 C290 1.388 . S
C288 C287 1.386 . S
C288 C289 1.382 . S
C288 H314 0.950 . S
C289 N286 1.332 . S
C289 C288 1.382 . S
C289 H300 0.952 . S
C290 C287 1.388 . S
C290 C291 1.382 . S
C290 H315 0.950 . S
C291 N286 1.332 . S
C291 C290 1.382 . S
C291 H301 0.948 . S
N292 Co270 2.282 . S
N292 C296 1.332 . S
N292 C297 1.332 . S
C293 C294 1.388 . S
C293 C297 1.382 . S
C293 H316 0.950 . S
C294 C293 1.388 . S
C294 C295 1.386 . S
C295 C294 1.386 . S
C295 C296 1.382 . S
C295 H317 0.950 . S
C296 N292 1.332 . S
C296 C295 1.382 . S
C296 H298 0.952 . S
C297 N292 1.332 . S
C297 C293 1.382 . S
C297 H299 0.948 . S
H298 C296 0.952 . S
H299 C297 0.948 . S
H300 C289 0.952 . S
H301 C291 0.948 . S
C302 C268 1.395 . S
C302 C272 1.391 . S
C303 C265 1.389 . S
C303 C285 1.392 . S
C304 C275 1.392 . S
C304 C277 1.389 . S
C305 C280 1.395 . S
C305 C282 1.391 . S
H306 C266 0.951 . S
H307 C267 0.950 . S
H308 C273 0.949 . S
H309 C274 0.950 . S
H310 C278 0.951 . S
H311 C279 0.950 . S
H312 C283 0.949 . S
H313 C284 0.950 . S
H314 C288 0.950 . S
H315 C290 0.950 . S
H316 C293 0.950 . S
H317 C295 0.950 . S
H318 C324 0.930 . S
H319 C327 0.931 . S
H320 C329 0.931 . S
H321 C331 0.930 . S
H322 C333 0.930 . S
H323 C335 0.931 . S
C324 H318 0.930 . S
C324 C325 1.380 . S
C324 C326 1.394 . S
C325 C324 1.380 . S
C325 C329 1.382 . S
C326 C324 1.394 . S
C326 C327 1.400 . S
C327 H319 0.931 . S
C327 C326 1.400 . S
C327 C328 1.375 . S
C328 C327 1.375 . S
C328 C329 1.415 . S
C328 C330 1.501 . S
C329 H320 0.931 . S
C329 C325 1.382 . S
C329 C328 1.415 . S
C330 C328 1.501 . S
C330 C331 1.384 . S
C330 C335 1.408 . S
C331 H321 0.930 . S
C331 C330 1.384 . S
C331 C332 1.389 . S
C332 C331 1.389 . S
C332 C333 1.405 . S
C333 H322 0.930 . S
C333 C332 1.405 . S
C333 C334 1.364 . S
C334 C333 1.364 . S
C334 C335 1.400 . S
C335 H323 0.931 . S
C335 C330 1.408 . S
C335 C334 1.400 . S
H336 C342 0.930 . S
H337 C345 0.931 . S
H338 C347 0.931 . S
H339 C349 0.930 . S
H340 C351 0.930 . S
H341 C353 0.931 . S
C342 H336 0.930 . S
C342 C343 1.380 . S
C342 C344 1.394 . S
C343 C342 1.380 . S
C343 C347 1.382 . S
C344 C342 1.394 . S
C344 C345 1.400 . S
C345 H337 0.931 . S
C345 C344 1.400 . S
C345 C346 1.375 . S
C346 C345 1.375 . S
C346 C347 1.415 . S
C346 C348 1.501 . S
C347 H338 0.931 . S
C347 C343 1.382 . S
C347 C346 1.415 . S
C348 C346 1.501 . S
C348 C349 1.384 . S
C348 C353 1.408 . S
C349 H339 0.930 . S
C349 C348 1.384 . S
C349 C350 1.389 . S
C350 C349 1.389 . S
C350 C351 1.405 . S
C351 H340 0.930 . S
C351 C350 1.405 . S
C351 C352 1.364 . S
C352 C351 1.364 . S
C352 C353 1.400 . S
C353 H341 0.931 . S
C353 C348 1.408 . S
C353 C352 1.400 . S
H354 C360 0.930 . S
H355 C363 0.931 . S
H356 C365 0.931 . S
H357 C367 0.930 . S
H358 C369 0.930 . S
H359 C371 0.931 . S
C360 H354 0.930 . S
C360 C361 1.380 . S
C360 C362 1.394 . S
C361 C360 1.380 . S
C361 C365 1.382 . S
C362 C360 1.394 . S
C362 C363 1.400 . S
C363 H355 0.931 . S
C363 C362 1.400 . S
C363 C364 1.375 . S
C364 C363 1.375 . S
C364 C365 1.415 . S
C364 C366 1.501 . S
C365 H356 0.931 . S
C365 C361 1.382 . S
C365 C364 1.415 . S
C366 C364 1.501 . S
C366 C367 1.384 . S
C366 C371 1.408 . S
C367 H357 0.930 . S
C367 C366 1.384 . S
C367 C368 1.389 . S
C368 C367 1.389 . S
C368 C369 1.405 . S
C369 H358 0.930 . S
C369 C368 1.405 . S
C369 C370 1.364 . S
C370 C369 1.364 . S
C370 C371 1.400 . S
C371 H359 0.931 . S
C371 C366 1.408 . S
C371 C370 1.400 . S
H372 C378 0.930 . S
H373 C381 0.931 . S
H374 C383 0.931 . S
H375 C385 0.930 . S
H376 C387 0.930 . S
H377 C389 0.931 . S
C378 H372 0.930 . S
C378 C379 1.380 . S
C378 C380 1.394 . S
C379 C378 1.380 . S
C379 C383 1.382 . S
C380 C378 1.394 . S
C380 C381 1.400 . S
C381 H373 0.931 . S
C381 C380 1.400 . S
C381 C382 1.375 . S
C382 C381 1.375 . S
C382 C383 1.415 . S
C382 C384 1.501 . S
C383 H374 0.931 . S
C383 C379 1.382 . S
C383 C382 1.415 . S
C384 C382 1.501 . S
C384 C385 1.384 . S
C384 C389 1.408 . S
C385 H375 0.930 . S
C385 C384 1.384 . S
C385 C386 1.389 . S
C386 C385 1.389 . S
C386 C387 1.405 . S
C387 H376 0.930 . S
C387 C386 1.405 . S
C387 C388 1.364 . S
C388 C387 1.364 . S
C388 C389 1.400 . S
C389 H377 0.931 . S
C389 C384 1.408 . S
C389 C388 1.400 . S
H390 C396 0.930 . S
H391 C399 0.931 . S
H392 C401 0.931 . S
H393 C403 0.930 . S
H394 C405 0.930 . S
H395 C407 0.931 . S
C396 H390 0.930 . S
C396 C397 1.380 . S
C396 C398 1.394 . S
C397 C396 1.380 . S
C397 C401 1.382 . S
C398 C396 1.394 . S
C398 C399 1.400 . S
C399 H391 0.931 . S
C399 C398 1.400 . S
C399 C400 1.375 . S
C400 C399 1.375 . S
C400 C401 1.415 . S
C400 C402 1.501 . S
C401 H392 0.931 . S
C401 C397 1.382 . S
C401 C400 1.415 . S
C402 C400 1.501 . S
C402 C403 1.384 . S
C402 C407 1.408 . S
C403 H393 0.930 . S
C403 C402 1.384 . S
C403 C404 1.389 . S
C404 C403 1.389 . S
C404 C405 1.405 . S
C405 H394 0.930 . S
C405 C404 1.405 . S
C405 C406 1.364 . S
C406 C405 1.364 . S
C406 C407 1.400 . S
C407 H395 0.931 . S
C407 C402 1.408 . S
C407 C406 1.400 . S
H408 C414 0.930 . S
H409 C417 0.931 . S
H410 C419 0.931 . S
H411 C421 0.930 . S
H412 C423 0.930 . S
H413 C425 0.931 . S
C414 H408 0.930 . S
C414 C415 1.380 . S
C414 C416 1.394 . S
C415 C414 1.380 . S
C415 C419 1.382 . S
C416 C414 1.394 . S
C416 C417 1.400 . S
C417 H409 0.931 . S
C417 C416 1.400 . S
C417 C418 1.375 . S
C418 C417 1.375 . S
C418 C419 1.415 . S
C418 C420 1.501 . S
C419 H410 0.931 . S
C419 C415 1.382 . S
C419 C418 1.415 . S
C420 C418 1.501 . S
C420 C421 1.384 . S
C420 C425 1.408 . S
C421 H411 0.930 . S
C421 C420 1.384 . S
C421 C422 1.389 . S
C422 C421 1.389 . S
C422 C423 1.405 . S
C423 H412 0.930 . S
C423 C422 1.405 . S
C423 C424 1.364 . S
C424 C423 1.364 . S
C424 C425 1.400 . S
C425 H413 0.931 . S
C425 C420 1.408 . S
C425 C424 1.400 . S
C426 C427 1.369 . S
C426 C428 1.419 . S
C426 H430 0.930 . S
C427 C426 1.369 . S
C427 C436 1.429 . S
C428 C426 1.419 . S
C428 C429 1.363 . S
C428 H431 0.929 . S
C429 C428 1.363 . S
C429 C435 1.428 . S
H430 C426 0.930 . S
H431 C428 0.929 . S
S432 N433 1.613 . S
S432 N434 1.610 . S
N433 S432 1.613 . S
N433 C436 1.350 . S
N434 S432 1.610 . S
N434 C435 1.351 . S
C435 C429 1.428 . S
C435 N434 1.351 . S
C435 C436 1.434 . S
C436 C427 1.429 . S
C436 N433 1.350 . S
C436 C435 1.434 . S
C437 C438 1.369 . S
C437 C439 1.419 . S
C437 H441 0.930 . S
C438 C437 1.369 . S
C438 C447 1.429 . S
C439 C437 1.419 . S
C439 C440 1.363 . S
C439 H442 0.929 . S
C440 C439 1.363 . S
C440 C446 1.428 . S
H441 C437 0.930 . S
H442 C439 0.929 . S
S443 N444 1.613 . S
S443 N445 1.610 . S
N444 S443 1.613 . S
N444 C447 1.350 . S
N445 S443 1.610 . S
N445 C446 1.351 . S
C446 C440 1.428 . S
C446 N445 1.351 . S
C446 C447 1.434 . S
C447 C438 1.429 . S
C447 N444 1.350 . S
C447 C446 1.434 . S
C448 C449 1.369 . S
C448 C450 1.419 . S
C448 H452 0.930 . S
C449 C448 1.369 . S
C449 C458 1.429 . S
C450 C448 1.419 . S
C450 C451 1.363 . S
C450 H453 0.929 . S
C451 C450 1.363 . S
C451 C457 1.428 . S
H452 C448 0.930 . S
H453 C450 0.929 . S
S454 N455 1.613 . S
S454 N456 1.610 . S
N455 S454 1.613 . S
N455 C458 1.350 . S
N456 S454 1.610 . S
N456 C457 1.351 . S
C457 C451 1.428 . S
C457 N456 1.351 . S
C457 C458 1.434 . S
C458 C449 1.429 . S
C458 N455 1.350 . S
C458 C457 1.434 . S
C459 C460 1.369 . S
C459 C461 1.419 . S
C459 H463 0.930 . S
C460 C459 1.369 . S
C460 C469 1.429 . S
C461 C459 1.419 . S
C461 C462 1.363 . S
C461 H464 0.929 . S
C462 C461 1.363 . S
C462 C468 1.428 . S
H463 C459 0.930 . S
H464 C461 0.929 . S
S465 N466 1.613 . S
S465 N467 1.610 . S
N466 S465 1.613 . S
N466 C469 1.350 . S
N467 S465 1.610 . S
N467 C468 1.351 . S
C468 C462 1.428 . S
C468 N467 1.351 . S
C468 C469 1.434 . S
C469 C460 1.429 . S
C469 N466 1.350 . S
C469 C468 1.434 . S
C470 C471 1.369 . S
C470 C472 1.419 . S
C470 H474 0.930 . S
C471 C470 1.369 . S
C471 C480 1.429 . S
C472 C470 1.419 . S
C472 C473 1.363 . S
C472 H475 0.929 . S
C473 C472 1.363 . S
C473 C479 1.428 . S
H474 C470 0.930 . S
H475 C472 0.929 . S
S476 N477 1.613 . S
S476 N478 1.610 . S
N477 S476 1.613 . S
N477 C480 1.350 . S
N478 S476 1.610 . S
N478 C479 1.351 . S
C479 C473 1.428 . S
C479 N478 1.351 . S
C479 C480 1.434 . S
C480 C471 1.429 . S
C480 N477 1.350 . S
C480 C479 1.434 . S
C481 C482 1.369 . S
C481 C483 1.419 . S
C481 H485 0.930 . S
C482 C481 1.369 . S
C482 C491 1.429 . S
C483 C481 1.419 . S
C483 C484 1.363 . S
C483 H486 0.929 . S
C484 C483 1.363 . S
C484 C490 1.428 . S
H485 C481 0.930 . S
H486 C483 0.929 . S
S487 N488 1.613 . S
S487 N489 1.610 . S
N488 S487 1.613 . S
N488 C491 1.350 . S
N489 S487 1.610 . S
N489 C490 1.351 . S
C490 C484 1.428 . S
C490 N489 1.351 . S
C490 C491 1.434 . S
C491 C482 1.429 . S
C491 N488 1.350 . S
C491 C490 1.434 . S
C492 C493 1.369 . S
C492 C494 1.419 . S
C492 H496 0.930 . S
C493 C492 1.369 . S
C493 C502 1.429 . S
C494 C492 1.419 . S
C494 C495 1.363 . S
C494 H497 0.929 . S
C495 C494 1.363 . S
C495 C501 1.428 . S
H496 C492 0.930 . S
H497 C494 0.929 . S
S498 N499 1.613 . S
S498 N500 1.610 . S
N499 S498 1.613 . S
N499 C502 1.350 . S
N500 S498 1.610 . S
N500 C501 1.351 . S
C501 C495 1.428 . S
C501 N500 1.351 . S
C501 C502 1.434 . S
C502 C493 1.429 . S
C502 N499 1.350 . S
C502 C501 1.434 . S
C503 C504 1.369 . S
C503 C505 1.419 . S
C503 H507 0.930 . S
C504 C503 1.369 . S
C504 C513 1.429 . S
C505 C503 1.419 . S
C505 C506 1.363 . S
C505 H508 0.929 . S
C506 C505 1.363 . S
C506 C512 1.428 . S
H507 C503 0.930 . S
H508 C505 0.929 . S
S509 N510 1.613 . S
S509 N511 1.610 1_554 S
N510 S509 1.613 . S
N510 C513 1.350 1_554 S
N511 S509 1.610 1_556 S
N511 C512 1.351 . S
C512 C506 1.428 . S
C512 N511 1.351 . S
C512 C513 1.434 . S
C513 C504 1.429 . S
C513 N510 1.350 1_556 S
C513 C512 1.434 . S
C514 C515 1.369 . S
C514 C516 1.419 . S
C514 H518 0.930 . S
C515 C514 1.369 . S
C515 C524 1.429 . S
C516 C514 1.419 . S
C516 C517 1.363 . S
C516 H519 0.929 . S
C517 C516 1.363 . S
C517 C523 1.428 . S
H518 C514 0.930 . S
H519 C516 0.929 . S
S520 N521 1.613 . S
S520 N522 1.610 . S
N521 S520 1.613 . S
N521 C524 1.350 . S
N522 S520 1.610 . S
N522 C523 1.351 . S
C523 C517 1.428 . S
C523 N522 1.351 . S
C523 C524 1.434 . S
C524 C515 1.429 . S
C524 N521 1.350 . S
C524 C523 1.434 . S
C525 C526 1.369 . S
C525 C527 1.419 . S
C525 H529 0.930 . S
C526 C525 1.369 . S
C526 C535 1.429 . S
C527 C525 1.419 . S
C527 C528 1.363 . S
C527 H530 0.929 . S
C528 C527 1.363 . S
C528 C534 1.428 . S
H529 C525 0.930 . S
H530 C527 0.929 . S
S531 N532 1.613 . S
S531 N533 1.610 . S
N532 S531 1.613 . S
N532 C535 1.350 . S
N533 S531 1.610 . S
N533 C534 1.351 . S
C534 C528 1.428 . S
C534 N533 1.351 . S
C534 C535 1.434 . S
C535 C526 1.429 . S
C535 N532 1.350 . S
C535 C534 1.434 . S
C536 C537 1.369 . S
C536 C538 1.419 . S
C536 H540 0.930 . S
C537 C536 1.369 . S
C537 C546 1.429 . S
C538 C536 1.419 . S
C538 C539 1.363 . S
C538 H541 0.929 . S
C539 C538 1.363 . S
C539 C545 1.428 . S
H540 C536 0.930 . S
H541 C538 0.929 . S
S542 N543 1.613 . S
S542 N544 1.610 . S
N543 S542 1.613 . S
N543 C546 1.350 . S
N544 S542 1.610 . S
N544 C545 1.351 . S
C545 C539 1.428 . S
C545 N544 1.351 . S
C545 C546 1.434 . S
C546 C537 1.429 . S
C546 N543 1.350 . S
C546 C545 1.434 . S
C547 C548 1.369 . S
C547 C549 1.419 . S
C547 H551 0.930 . S
C548 C547 1.369 . S
C548 C557 1.429 . S
C549 C547 1.419 . S
C549 C550 1.363 . S
C549 H552 0.929 . S
C550 C549 1.363 . S
C550 C556 1.428 . S
H551 C547 0.930 . S
H552 C549 0.929 . S
S553 N554 1.613 . S
S553 N555 1.610 . S
N554 S553 1.613 . S
N554 C557 1.350 . S
N555 S553 1.610 . S
N555 C556 1.351 . S
C556 C550 1.428 . S
C556 N555 1.351 . S
C556 C557 1.434 . S
C557 C548 1.429 . S
C557 N554 1.350 . S
C557 C556 1.434 . S
C558 C559 1.369 . S
C558 C560 1.419 . S
C558 H562 0.930 . S
C559 C558 1.369 . S
C559 C568 1.429 . S
C560 C558 1.419 . S
C560 C561 1.363 . S
C560 H563 0.929 . S
C561 C560 1.363 . S
C561 C567 1.428 . S
H562 C558 0.930 . S
H563 C560 0.929 . S
S564 N565 1.613 . S
S564 N566 1.610 . S
N565 S564 1.613 . S
N565 C568 1.350 . S
N566 S564 1.610 . S
N566 C567 1.351 . S
C567 C561 1.428 . S
C567 N566 1.351 . S
C567 C568 1.434 . S
C568 C559 1.429 . S
C568 N565 1.350 . S
C568 C567 1.434 . S
C569 C570 1.369 . S
C569 C571 1.419 . S
C569 H573 0.930 . S
C570 C569 1.369 . S
C570 C579 1.429 . S
C571 C569 1.419 . S
C571 C572 1.363 . S
C571 H574 0.929 . S
C572 C571 1.363 . S
C572 C578 1.428 . S
H573 C569 0.930 . S
H574 C571 0.929 . S
S575 N576 1.613 . S
S575 N577 1.610 . S
N576 S575 1.613 . S
N576 C579 1.350 . S
N577 S575 1.610 . S
N577 C578 1.351 . S
C578 C572 1.428 . S
C578 N577 1.351 . S
C578 C579 1.434 . S
C579 C570 1.429 . S
C579 N576 1.350 . S
C579 C578 1.434 . S
C580 C581 1.369 . S
C580 C582 1.419 . S
C580 H584 0.930 . S
C581 C580 1.369 . S
C581 C590 1.429 . S
C582 C580 1.419 . S
C582 C583 1.363 . S
C582 H585 0.929 . S
C583 C582 1.363 . S
C583 C589 1.428 . S
H584 C580 0.930 . S
H585 C582 0.929 . S
S586 N587 1.613 . S
S586 N588 1.610 . S
N587 S586 1.613 . S
N587 C590 1.350 . S
N588 S586 1.610 . S
N588 C589 1.351 . S
C589 C583 1.428 . S
C589 N588 1.351 . S
C589 C590 1.434 . S
C590 C581 1.429 . S
C590 N587 1.350 . S
C590 C589 1.434 . S
C591 C592 1.369 . S
C591 C593 1.419 . S
C591 H595 0.930 . S
C592 C591 1.369 . S
C592 C601 1.429 . S
C593 C591 1.419 . S
C593 C594 1.363 . S
C593 H596 0.929 . S
C594 C593 1.363 . S
C594 C600 1.428 . S
H595 C591 0.930 . S
H596 C593 0.929 . S
S597 N598 1.613 . S
S597 N599 1.610 . S
N598 S597 1.613 . S
N598 C601 1.350 . S
N599 S597 1.610 . S
N599 C600 1.351 . S
C600 C594 1.428 . S
C600 N599 1.351 . S
C600 C601 1.434 . S
C601 C592 1.429 . S
C601 N598 1.350 . S
C601 C600 1.434 . S
C602 C603 1.369 . S
C602 C604 1.419 . S
C602 H606 0.930 . S
C603 C602 1.369 . S
C603 C612 1.429 . S
C604 C602 1.419 . S
C604 C605 1.363 . S
C604 H607 0.929 . S
C605 C604 1.363 . S
C605 C611 1.428 . S
H606 C602 0.930 . S
H607 C604 0.929 . S
S608 N609 1.613 . S
S608 N610 1.610 . S
N609 S608 1.613 . S
N609 C612 1.350 . S
N610 S608 1.610 . S
N610 C611 1.351 . S
C611 C605 1.428 . S
C611 N610 1.351 . S
C611 C612 1.434 . S
C612 C603 1.429 . S
C612 N609 1.350 . S
C612 C611 1.434 . S
C613 C614 1.369 . S
C613 C615 1.419 . S
C613 H617 0.930 . S
C614 C613 1.369 . S
C614 C623 1.429 . S
C615 C613 1.419 . S
C615 C616 1.363 . S
C615 H618 0.929 . S
C616 C615 1.363 . S
C616 C622 1.428 . S
H617 C613 0.930 . S
H618 C615 0.929 . S
S619 N620 1.613 . S
S619 N621 1.610 . S
N620 S619 1.613 . S
N620 C623 1.350 . S
N621 S619 1.610 . S
N621 C622 1.351 . S
C622 C616 1.428 . S
C622 N621 1.351 . S
C622 C623 1.434 . S
C623 C614 1.429 . S
C623 N620 1.350 . S
C623 C622 1.434 . S
C624 C625 1.369 . S
C624 C626 1.419 . S
C624 H628 0.930 . S
C625 C624 1.369 . S
C625 C634 1.429 . S
C626 C624 1.419 . S
C626 C627 1.363 . S
C626 H629 0.929 . S
C627 C626 1.363 . S
C627 C633 1.428 . S
H628 C624 0.930 . S
H629 C626 0.929 . S
S630 N631 1.613 . S
S630 N632 1.610 . S
N631 S630 1.613 . S
N631 C634 1.350 . S
N632 S630 1.610 . S
N632 C633 1.351 . S
C633 C627 1.428 . S
C633 N632 1.351 . S
C633 C634 1.434 . S
C634 C625 1.429 . S
C634 N631 1.350 . S
C634 C633 1.434 . S
C635 C636 1.369 . S
C635 C637 1.419 . S
C635 H639 0.930 . S
C636 C635 1.369 . S
C636 C645 1.429 . S
C637 C635 1.419 . S
C637 C638 1.363 . S
C637 H640 0.929 . S
C638 C637 1.363 . S
C638 C644 1.428 . S
H639 C635 0.930 . S
H640 C637 0.929 . S
S641 N642 1.613 . S
S641 N643 1.610 . S
N642 S641 1.613 . S
N642 C645 1.350 . S
N643 S641 1.610 . S
N643 C644 1.351 . S
C644 C638 1.428 . S
C644 N643 1.351 . S
C644 C645 1.434 . S
C645 C636 1.429 . S
C645 N642 1.350 . S
C645 C644 1.434 . S
C646 C647 1.369 . S
C646 C648 1.419 . S
C646 H650 0.930 . S
C647 C646 1.369 . S
C647 C656 1.429 . S
C648 C646 1.419 . S
C648 C649 1.363 . S
C648 H651 0.929 . S
C649 C648 1.363 . S
C649 C655 1.428 . S
H650 C646 0.930 . S
H651 C648 0.929 . S
S652 N653 1.613 . S
S652 N654 1.610 . S
N653 S652 1.613 . S
N653 C656 1.350 . S
N654 S652 1.610 . S
N654 C655 1.351 . S
C655 C649 1.428 . S
C655 N654 1.351 . S
C655 C656 1.434 . S
C656 C647 1.429 . S
C656 N653 1.350 . S
C656 C655 1.434 . S
C657 C658 1.369 . S
C657 C659 1.419 . S
C657 H661 0.930 . S
C658 C657 1.369 . S
C658 C667 1.429 . S
C659 C657 1.419 . S
C659 C660 1.363 . S
C659 H662 0.929 . S
C660 C659 1.363 . S
C660 C666 1.428 . S
H661 C657 0.930 . S
H662 C659 0.929 . S
S663 N664 1.613 . S
S663 N665 1.610 . S
N664 S663 1.613 . S
N664 C667 1.350 . S
N665 S663 1.610 . S
N665 C666 1.351 . S
C666 C660 1.428 . S
C666 N665 1.351 . S
C666 C667 1.434 . S
C667 C658 1.429 . S
C667 N664 1.350 . S
C667 C666 1.434 . S
C668 C669 1.369 . S
C668 C670 1.419 . S
C668 H672 0.930 . S
C669 C668 1.369 . S
C669 C678 1.429 . S
C670 C668 1.419 . S
C670 C671 1.363 . S
C670 H673 0.929 . S
C671 C670 1.363 . S
C671 C677 1.428 . S
H672 C668 0.930 . S
H673 C670 0.929 . S
S674 N675 1.613 . S
S674 N676 1.610 . S
N675 S674 1.613 . S
N675 C678 1.350 . S
N676 S674 1.610 . S
N676 C677 1.351 . S
C677 C671 1.428 . S
C677 N676 1.351 . S
C677 C678 1.434 . S
C678 C669 1.429 . S
C678 N675 1.350 . S
C678 C677 1.434 . S
C679 C680 1.369 . S
C679 C681 1.419 . S
C679 H683 0.930 . S
C680 C679 1.369 . S
C680 C689 1.429 . S
C681 C679 1.419 . S
C681 C682 1.363 . S
C681 H684 0.929 . S
C682 C681 1.363 . S
C682 C688 1.428 . S
H683 C679 0.930 . S
H684 C681 0.929 . S
S685 N686 1.613 . S
S685 N687 1.610 . S
N686 S685 1.613 . S
N686 C689 1.350 . S
N687 S685 1.610 . S
N687 C688 1.351 . S
C688 C682 1.428 . S
C688 N687 1.351 . S
C688 C689 1.434 . S
C689 C680 1.429 . S
C689 N686 1.350 . S
C689 C688 1.434 . S
C427 C39 1.681 . S
C429 C332 1.568 . S
C438 C91 1.630 . S
C440 C343 1.559 . S
C451 C362 1.439 . S
C449 C128 1.486 . S
C462 C379 1.417 . S
C460 C188 1.450 . S
C473 C406 1.502 . S
C471 C250 1.531 . S
C484 C415 1.559 . S
C482 C304 1.642 . S
C493 C75 1.571 . S
C495 C368 1.475 . S
C504 C144 1.676 . S
C506 C388 1.583 . S
C517 C397 1.524 . S
C515 C198 1.612 . S
C528 C424 1.430 . S
C526 C234 1.476 . S
C537 C294 1.434 . S
C539 C326 1.405 . S
C550 C352 1.429 . S
C548 C29 1.473 . S
C561 C380 1.609 . S
C559 C38 1.729 . S
C570 C92 1.676 . S
C572 C404 1.593 . S
C583 C416 1.478 . S
C581 C135 1.543 . S
C592 C181 1.501 . S
C594 C334 1.439 . S
C603 C251 1.579 . S
C605 C344 1.533 . S
C614 C303 1.703 . S
C616 C361 1.578 . S
C625 C82 1.630 . S
C627 C422 1.517 . S
C638 C325 1.588 . S
C636 C145 1.727 . S
C647 C197 1.664 . S
C649 C350 1.565 . S
C658 C241 1.537 . S
C660 C370 1.431 . S
C669 C287 1.479 . S
C671 C386 1.444 . S
C680 C22 1.516 . S
C682 C398 1.463 . S
