# Generated by pormake.
# Topology tsx, (6,3)-cn, num edge types: 1
# Building blocks:
#     Node 0, Type 0, BuildingBlock: LEVNOQ01_clean_sbu_1, # of connection points: 6
#     Node 1, Type 0, BuildingBlock: LEVNOQ01_clean_sbu_1, # of connection points: 6
#     Node 2, Type 1, BuildingBlock: BETDIP_clean_linker_0, # of connection points: 3
#     Node 3, Type 1, BuildingBlock: BETDIP_clean_linker_0, # of connection points: 3
#     Node 4, Type 1, BuildingBlock: BETDIP_clean_linker_0, # of connection points: 3
#     Node 5, Type 1, BuildingBlock: BETDIP_clean_linker_0, # of connection points: 3
#     Edge 6, Type (0, 1), BuildingBlock: XUDNAN_clean_linker_2, # of connection points: 2
#     Edge 7, Type (0, 1), BuildingBlock: XUDNAN_clean_linker_2, # of connection points: 2
#     Edge 8, Type (0, 1), BuildingBlock: XUDNAN_clean_linker_2, # of connection points: 2
#     Edge 9, Type (0, 1), BuildingBlock: XUDNAN_clean_linker_2, # of connection points: 2
#     Edge 10, Type (0, 1), BuildingBlock: XUDNAN_clean_linker_2, # of connection points: 2
#     Edge 11, Type (0, 1), BuildingBlock: XUDNAN_clean_linker_2, # of connection points: 2
#     Edge 12, Type (0, 1), BuildingBlock: XUDNAN_clean_linker_2, # of connection points: 2
#     Edge 13, Type (0, 1), BuildingBlock: XUDNAN_clean_linker_2, # of connection points: 2
#     Edge 14, Type (0, 1), BuildingBlock: XUDNAN_clean_linker_2, # of connection points: 2
#     Edge 15, Type (0, 1), BuildingBlock: XUDNAN_clean_linker_2, # of connection points: 2
#     Edge 16, Type (0, 1), BuildingBlock: XUDNAN_clean_linker_2, # of connection points: 2
#     Edge 17, Type (0, 1), BuildingBlock: XUDNAN_clean_linker_2, # of connection points: 2
# Relax obj value: 0.100
# Max RMSD: 0.152
# Mean RMSD: 0.113
data_MOF--net-tsx--node1-LEVNOQ01_clean_sbu_1--node2-BETDIP_clean_linker_0--edge1-XUDNAN_clean_linker_2
_symmetry_space_group_name_H-M    P1
_symmetry_Int_Tables_number       1
_symmetry_cell_setting            triclinic
loop_
_symmetry_equiv_pos_as_xyz
'x, y, z'
_cell_length_a     18.742722
_cell_length_b     22.771139
_cell_length_c     34.546878
_cell_angle_alpha  97.290604
_cell_angle_beta   102.17677
_cell_angle_gamma 91.249149
loop_
_atom_site_label
_atom_site_type_symbol
_atom_site_fract_x
_atom_site_fract_y
_atom_site_fract_z
_atom_type_partial_charge
O0 O 0.16972 0.0602 0.10664 0.0
Mg1 Mg 0.21966 0.06526 0.05798 0.0
O2 O 0.06672 0.01794 0.06836 0.0
Mg3 Mg 0.06569 0.02237 0.00066 0.0
O4 O 0.15102 0.09909 0.01306 0.0
O5 O 0.25698 0.14472 0.04544 0.0
O6 O 0.06402 0.02676 0.93382 0.0
O7 O 0.98215 0.10359 0.00243 0.0
Mg8 Mg 0.93569 0.00736 0.97146 0.0
O9 O 0.98649 0.93425 0.98688 0.0
O10 O 0.95051 0.05287 0.92277 0.0
O11 O 0.90066 0.05163 0.0207 0.0
O12 O 0.87336 0.93313 0.94812 0.0
C13 C 0.2203 0.94247 0.01512 0.0
C14 C 0.10742 0.03454 0.10289 0.0
C15 C 0.19729 0.14395 0.01869 0.0
C16 C 0.01047 0.04795 0.91172 0.0
C17 C 0.92317 0.10166 0.0153 0.0
C18 C 0.92573 0.90581 0.96766 0.0
O19 O 0.25987 0.98492 0.03709 0.0
O20 O 0.1526 0.94837 0.00035 0.0
O21 O 0.6513 0.53746 0.60081 0.0
Mg22 Mg 0.71123 0.53506 0.55542 0.0
O23 O 0.54494 0.51237 0.55865 0.0
Mg24 Mg 0.55775 0.52135 0.49417 0.0
O25 O 0.66067 0.5854 0.51358 0.0
O26 O 0.7727 0.60849 0.55079 0.0
O27 O 0.5751 0.52886 0.43026 0.0
O28 O 0.48942 0.60933 0.49909 0.0
Mg29 Mg 0.41839 0.51379 0.43935 0.0
O30 O 0.4586 0.44988 0.47365 0.0
O31 O 0.46567 0.53151 0.39199 0.0
O32 O 0.37511 0.58301 0.46995 0.0
O33 O 0.35395 0.43913 0.42673 0.0
C34 C 0.68766 0.41773 0.50449 0.0
C35 C 0.58371 0.52269 0.5941 0.0
C36 C 0.71807 0.62159 0.52425 0.0
C37 C 0.53434 0.53383 0.39653 0.0
C38 C 0.42169 0.6211 0.49123 0.0
C39 C 0.39882 0.41906 0.45518 0.0
O40 O 0.73548 0.45057 0.52991 0.0
O41 O 0.62499 0.43678 0.49089 0.0
H42 H 0.09034 0.98881 0.48841 0.0
H43 H 0.97661 0.02555 0.37307 0.0
H44 H 0.16484 0.91925 0.38287 0.0
H45 H 0.87849 0.00571 0.41005 0.0
C46 C 0.90179 0.04169 0.43344 0.0
C47 C 0.08504 0.98447 0.45632 0.0
C48 C 0.13429 0.95119 0.43836 0.0
C49 C 0.02738 0.01037 0.43268 0.0
C50 C 0.01994 0.00385 0.39112 0.0
C51 C 0.06961 0.97163 0.37287 0.0
C52 C 0.12702 0.94543 0.39672 0.0
N53 N 0.9776 0.0438 0.45091 0.0
H54 H 0.98145 0.01314 0.51761 0.0
H55 H 0.06942 0.12638 0.6279 0.0
H56 H 0.8887 0.00367 0.61998 0.0
H57 H 0.16227 0.14293 0.60143 0.0
C58 C 0.1465 0.13372 0.56914 0.0
C59 C 0.97958 0.02969 0.54797 0.0
C60 C 0.92642 0.00566 0.56533 0.0
C61 C 0.03123 0.07372 0.56974 0.0
C62 C 0.03019 0.09292 0.61004 0.0
C63 C 0.97975 0.0668 0.62831 0.0
C64 C 0.92715 0.02421 0.60567 0.0
N65 N 0.08329 0.09681 0.55018 0.0
H66 H 0.59233 0.46551 0.97828 0.0
H67 H 0.51147 0.5438 0.87146 0.0
H68 H 0.6241 0.38201 0.86485 0.0
H69 H 0.41547 0.55917 0.90315 0.0
C70 C 0.44562 0.57755 0.9328 0.0
C71 C 0.58648 0.4658 0.94652 0.0
C72 C 0.61477 0.4198 0.92405 0.0
C73 C 0.54676 0.50963 0.92747 0.0
C74 C 0.53963 0.50904 0.88627 0.0
C75 C 0.56708 0.4632 0.86363 0.0
C76 C 0.60385 0.41818 0.88246 0.0
N77 N 0.51254 0.55305 0.94966 0.0
H78 H 0.48475 0.49998 0.00347 0.0
H79 H 0.64236 0.54065 0.11477 0.0
H80 H 0.43516 0.45572 0.11226 0.0
H81 H 0.67081 0.61802 0.08787 0.0
C82 C 0.66754 0.60149 0.05662 0.0
C83 C 0.50077 0.49994 0.03528 0.0
C84 C 0.45234 0.47437 0.05498 0.0
C85 C 0.56828 0.52639 0.05666 0.0
C86 C 0.58926 0.52316 0.09778 0.0
C87 C 0.54101 0.49869 0.11779 0.0
C88 C 0.47219 0.47507 0.09655 0.0
N89 N 0.61347 0.5568 0.03657 0.0
H90 H 0.27255 0.17642 0.96651 0.0
H91 H 0.10045 0.22824 0.02724 0.0
H92 H 0.12762 0.33292 0.02248 0.0
H93 H 0.39514 0.25934 0.0136 0.0
H94 H 0.44048 0.28377 0.97687 0.0
H95 H 0.38628 0.21597 0.96514 0.0
H96 H 0.30703 0.2527 0.90313 0.0
H97 H 0.36275 0.32085 0.91405 0.0
H98 H 0.26499 0.3229 0.90805 0.0
H99 H 0.206 0.42274 0.04028 0.0
H100 H 0.31463 0.49011 0.0679 0.0
H101 H 0.43667 0.38617 -0.00687 0.0
C102 C 0.23704 0.20989 0.9756 0.0
C103 C 0.18432 0.19506 -0.00317 0.0
C104 C 0.14 0.23904 0.01011 0.0
C105 C 0.15558 0.29877 0.00767 0.0
C106 C 0.21443 0.31316 -0.009 0.0
C107 C 0.25238 0.26964 0.9732 0.0
C108 C 0.32196 0.29575 0.96483 0.0
C109 C 0.38982 0.26174 0.98118 0.0
C110 C 0.31364 0.29822 0.91985 0.0
C111 C 0.32396 0.35756 0.98723 0.0
C112 C 0.25987 0.36777 0.00045 0.0
C113 C 0.25483 0.41655 0.02851 0.0
C114 C 0.31697 0.45433 0.04441 0.0
C115 C 0.38326 0.44331 0.03214 0.0
C116 C 0.38563 0.39617 0.00188 0.0
H117 H 0.19377 0.85349 0.95024 0.0
H118 H 0.32184 0.90032 0.071 0.0
H119 H 0.38542 0.8074 0.06524 0.0
H120 H 0.18069 0.69043 0.95269 0.0
H121 H 0.19091 0.67301 0.90184 0.0
H122 H 0.14819 0.73987 0.91668 0.0
H123 H 0.24154 0.80189 0.89095 0.0
H124 H 0.28462 0.73536 0.87619 0.0
H125 H 0.33797 0.79523 0.90967 0.0
H126 H 0.44408 0.71541 0.04509 0.0
H127 H 0.49345 0.62868 0.01094 0.0
H128 H 0.32948 0.63963 0.90313 0.0
C129 C 0.23422 0.84345 0.97559 0.0
C130 C 0.25313 0.88417 0.01099 0.0
C131 C 0.30709 0.87002 0.04342 0.0
C132 C 0.34321 0.81714 0.0406 0.0
C133 C 0.32504 0.77861 0.00508 0.0
C134 C 0.27176 0.79076 0.97311 0.0
C135 C 0.26719 0.74357 0.93737 0.0
C136 C 0.19228 0.70972 0.92652 0.0
C137 C 0.28384 0.77065 0.90144 0.0
C138 C 0.32737 0.70432 0.95405 0.0
C139 C 0.35944 0.72502 -0.00669 0.0
C140 C 0.41888 0.69822 0.01447 0.0
C141 C 0.44677 0.64913 -0.00517 0.0
C142 C 0.41506 0.62754 0.95451 0.0
C143 C 0.35418 0.6551 0.93413 0.0
H144 H 0.93477 0.86318 0.03772 0.0
H145 H 0.87297 0.81423 0.90955 0.0
H146 H 0.81463 0.72013 0.91901 0.0
H147 H 0.95539 0.70877 0.06804 0.0
H148 H 0.91302 0.72922 0.10972 0.0
H149 H 0.96696 0.78376 0.09333 0.0
H150 H 0.85727 0.85163 0.08572 0.0
H151 H 0.80245 0.79717 0.10122 0.0
H152 H 0.771 0.82382 0.05391 0.0
H153 H 0.74503 0.641 0.94187 0.0
H154 H 0.67036 0.58347 0.97637 0.0
H155 H 0.77065 0.68812 0.08931 0.0
C156 C 0.91261 0.8309 0.01186 0.0
C157 C 0.91027 0.84439 0.97298 0.0
C158 C 0.87682 0.80336 0.93953 0.0
C159 C 0.8435 0.75004 0.94467 0.0
C160 C 0.84337 0.7391 0.98346 0.0
C161 C 0.87742 0.77831 0.01655 0.0
C162 C 0.859 0.76158 0.05445 0.0
C163 C 0.9277 0.74481 0.08307 0.0
C164 C 0.82012 0.81151 0.07499 0.0
C165 C 0.80769 0.70805 0.0374 0.0
C166 C 0.80029 0.69503 -0.00346 0.0
C167 C 0.75144 0.65009 0.97397 0.0
C168 C 0.70892 0.61786 -0.00627 0.0
C169 C 0.71501 0.63151 0.03543 0.0
C170 C 0.76563 0.67655 0.05742 0.0
H171 H 0.93996 0.22572 0.02198 0.0
H172 H 0.77916 0.0775 0.98783 0.0
H173 H 0.68357 0.14461 0.96666 0.0
H174 H 0.80636 0.33046 0.0589 0.0
H175 H 0.84425 0.39356 0.04212 0.0
H176 H 0.90218 0.33513 0.05821 0.0
H177 H 0.94213 0.32182 -0.0095 0.0
H178 H 0.88467 0.3802 0.97424 0.0
H179 H 0.8735 0.30808 0.9447 0.0
H180 H 0.6071 0.22212 0.94232 0.0
H181 H 0.55105 0.31137 0.91813 0.0
H182 H 0.75337 0.41454 0.9702 0.0
C183 C 0.88434 0.20791 0.01079 0.0
C184 C 0.8673 0.14624 0.00714 0.0
C185 C 0.79387 0.1245 -0.00813 0.0
C186 C 0.73873 0.16227 0.97953 0.0
C187 C 0.7568 0.22236 0.98335 0.0
C188 C 0.82721 0.2457 -0.00085 0.0
C189 C 0.83008 0.31258 -0.0009 0.0
C190 C 0.84673 0.34484 0.04214 0.0
C191 C 0.8859 0.33175 0.97571 0.0
C192 C 0.75189 0.32164 0.97799 0.0
C193 C 0.71063 0.26881 0.97001 0.0
C194 C 0.63817 0.26414 0.949 0.0
C195 C 0.60683 0.31482 0.93534 0.0
C196 C 0.64781 0.36932 0.94274 0.0
C197 C 0.72091 0.37322 0.96483 0.0
H198 H 0.83371 0.66938 0.50155 0.0
H199 H 0.61531 0.70297 0.51693 0.0
H200 H 0.63668 0.8096 0.51303 0.0
H201 H 0.91956 0.77858 0.56266 0.0
H202 H 0.98596 0.79988 0.53543 0.0
H203 H 0.9465 0.72575 0.52551 0.0
H204 H 0.90229 0.73616 0.45063 0.0
H205 H 0.94327 0.81043 0.46018 0.0
H206 H 0.848 0.79741 0.43633 0.0
H207 H 0.69414 0.91168 0.52873 0.0
H208 H 0.77781 -0.00027 0.5556 0.0
H209 H 0.959 0.90117 0.52702 0.0
C210 C 0.78926 0.69894 0.50172 0.0
C211 C 0.72211 0.67857 0.50875 0.0
C212 C 0.66568 0.71807 0.51017 0.0
C213 C 0.67793 0.77859 0.50826 0.0
C214 C 0.74656 0.79828 0.50385 0.0
C215 C 0.80067 0.75918 0.49922 0.0
C216 C 0.87276 0.79193 0.50073 0.0
C217 C 0.93472 0.77292 0.53302 0.0
C218 C 0.89272 0.78349 0.45951 0.0
C219 C 0.85302 0.85512 0.51145 0.0
C220 C 0.7795 0.85813 0.51199 0.0
C221 C 0.75103 0.91026 0.52693 0.0
C222 C 0.79892 0.95991 0.54241 0.0
C223 C 0.87438 0.95712 0.5428 0.0
C224 C 0.90109 0.90473 0.5259 0.0
H225 H 0.81592 0.36302 0.52709 0.0
H226 H 0.59784 0.33324 0.45178 0.0
H227 H 0.62668 0.23082 0.42963 0.0
H228 H 0.90897 0.28412 0.46 0.0
H229 H 0.9734 0.25407 0.49807 0.0
H230 H 0.93391 0.3236 0.50994 0.0
H231 H 0.88824 0.28193 0.56734 0.0
H232 H 0.92725 0.21205 0.55537 0.0
H233 H 0.8317 0.21431 0.5566 0.0
H234 H 0.68072 0.13365 0.41331 0.0
H235 H 0.75825 0.04949 0.40182 0.0
H236 H 0.94063 0.14266 0.48793 0.0
C237 C 0.77394 0.33494 0.50613 0.0
C238 C 0.70456 0.35625 0.49116 0.0
C239 C 0.65139 0.31801 0.46364 0.0
C240 C 0.66712 0.25967 0.45102 0.0
C241 C 0.73605 0.24021 0.46635 0.0
C242 C 0.78864 0.27665 0.49329 0.0
C243 C 0.85952 0.2457 0.50388 0.0
C244 C 0.92265 0.27884 0.49226 0.0
C245 C 0.87772 0.23805 0.54844 0.0
C246 C 0.83913 0.18666 0.47784 0.0
C247 C 0.76738 0.18414 0.45684 0.0
C248 C 0.73678 0.13492 0.42978 0.0
C249 C 0.78109 0.08743 0.42347 0.0
C250 C 0.85506 0.08978 0.44391 0.0
C251 C 0.88408 0.13959 0.47196 0.0
H252 H 0.40991 0.3873 0.53018 0.0
H253 H 0.33885 0.32243 0.40408 0.0
H254 H 0.27954 0.23384 0.42032 0.0
H255 H 0.43318 0.2356 0.56621 0.0
H256 H 0.39797 0.26044 0.60986 0.0
H257 H 0.44866 0.31184 0.58894 0.0
H258 H 0.3407 0.38119 0.58356 0.0
H259 H 0.28899 0.32988 0.60368 0.0
H260 H 0.25128 0.35309 0.5559 0.0
H261 H 0.20941 0.163 0.44873 0.0
H262 H 0.13892 0.11123 0.48816 0.0
H263 H 0.25388 0.22045 0.59639 0.0
C264 C 0.38477 0.35296 0.50625 0.0
C265 C 0.37966 0.36103 0.46594 0.0
C266 C 0.34378 0.31659 0.43516 0.0
C267 C 0.31001 0.26611 0.44409 0.0
C268 C 0.31265 0.26063 0.48403 0.0
C269 C 0.34996 0.30234 0.51474 0.0
C270 C 0.33705 0.28921 0.55475 0.0
C271 C 0.40847 0.27331 0.58152 0.0
C272 C 0.30242 0.34145 0.57566 0.0
C273 C 0.28387 0.23564 0.54143 0.0
C274 C 0.27147 0.21935 0.50058 0.0
C275 C 0.21987 0.17443 0.48086 0.0
C276 C 0.17973 0.14548 0.50347 0.0
C277 C 0.19137 0.16167 0.54533 0.0
C278 C 0.2448 0.20672 0.56448 0.0
H279 H 0.28244 0.6487 0.49319 0.0
H280 H 0.50072 0.72842 0.51118 0.0
H281 H 0.4503 0.82768 0.51274 0.0
H282 H 0.20509 0.73104 0.42405 0.0
H283 H 0.11816 0.73733 0.43832 0.0
H284 H 0.17224 0.67515 0.44951 0.0
H285 H 0.17038 0.70016 0.52461 0.0
H286 H 0.11535 0.76234 0.51348 0.0
H287 H 0.20009 0.77336 0.55026 0.0
H288 H 0.37392 0.91465 0.49662 0.0
H289 H 0.27953 0.98062 0.46716 0.0
H290 H 0.11154 0.84389 0.45975 0.0
C291 C 0.32009 0.68714 0.49901 0.0
C292 C 0.39588 0.68074 0.50222 0.0
C293 C 0.44294 0.73211 0.50923 0.0
C294 C 0.41448 0.78878 0.51006 0.0
C295 C 0.33887 0.7932 0.50438 0.0
C296 C 0.29243 0.74357 0.49964 0.0
C297 C 0.21309 0.75848 0.48819 0.0
C298 C 0.175 0.72345 0.44763 0.0
C299 C 0.17234 0.74799 0.52112 0.0
C300 C 0.22197 0.82377 0.48532 0.0
C301 C 0.29481 0.84341 0.49534 0.0
C302 C 0.31672 0.90027 0.48991 0.0
C303 C 0.26308 0.93735 0.47312 0.0
C304 C 0.18888 0.91719 0.46213 0.0
C305 C 0.16799 0.86048 0.46916 0.0
H306 H 0.19512 0.03686 0.17689 0.0
H307 H 0.97148 -0.00366 0.11123 0.0
H308 H 0.93868 0.96816 0.1725 0.0
H309 H 0.20362 0.91561 0.23602 0.0
H310 H 0.26004 0.95824 0.2797 0.0
H311 H 0.26584 0.97399 0.23061 0.0
H312 H 0.23769 0.08366 0.24952 0.0
H313 H 0.2329 0.06836 0.29875 0.0
H314 H 0.15684 0.10005 0.26857 0.0
H315 H 0.93002 0.94968 0.24235 0.0
H316 H 0.94559 0.94357 0.31465 0.0
H317 H 0.17615 0.99283 0.33271 0.0
C318 C 0.13903 0.02235 0.17526 0.0
C319 C 0.08561 0.01937 0.13932 0.0
C320 C 0.01319 -0.00075 0.13848 0.0
C321 C 0.9942 0.98295 0.17306 0.0
C322 C 0.04854 0.98624 0.20792 0.0
C323 C 0.11952 0.00525 0.20912 0.0
C324 C 0.16784 0.00542 0.25019 0.0
C325 C 0.22787 0.96065 0.24904 0.0
C326 C 0.2007 0.0681 0.26778 0.0
C327 C 0.11248 0.98542 0.27246 0.0
C328 C 0.04407 0.97406 0.24755 0.0
C329 C 0.98345 0.95797 0.26198 0.0
C330 C 0.99275 0.95476 0.30302 0.0
C331 C 0.06213 0.96755 0.32907 0.0
C332 C 0.12285 0.98179 0.31333 0.0
H333 H 0.04073 0.97814 0.84786 0.0
H334 H 0.98746 0.15639 0.88826 0.0
H335 H 0.98195 0.18384 0.82052 0.0
H336 H 0.14705 0.01423 0.77455 0.0
H337 H 0.10873 0.95038 0.73931 0.0
H338 H 0.11921 0.94796 0.79214 0.0
H339 H 0.9812 0.91846 0.78082 0.0
H340 H 0.9701 0.92161 0.72811 0.0
H341 H 0.91475 0.96541 0.75636 0.0
H342 H 0.97692 0.18995 0.74712 0.0
H343 H 0.96584 0.17223 0.67353 0.0
H344 H 0.01129 0.98782 0.6809 0.0
C345 C 0.03006 0.02332 0.84254 0.0
C346 C 0.01615 0.06572 0.87306 0.0
C347 C 0.99934 0.12381 0.86505 0.0
C348 C 0.99614 0.13969 0.8268 0.0
C349 C 0.00858 0.0965 0.79687 0.0
C350 C 0.0248 0.03939 0.80429 0.0
C351 C 0.02841 -0.00031 0.76624 0.0
C352 C 0.10545 0.97673 0.76819 0.0
C353 C 0.97014 0.94828 0.75738 0.0
C354 C 0.0112 0.0431 0.73628 0.0
C355 C 1.0011 0.09901 0.75448 0.0
C356 C 0.98473 0.14633 0.73257 0.0
C357 C 0.97846 0.13602 0.69097 0.0
C358 C 0.9871 0.07869 0.67197 0.0
C359 C 0.00379 0.03191 0.69493 0.0
H360 H 0.61066 0.5889 0.66675 0.0
H361 H 0.49046 0.43129 0.59858 0.0
H362 H 0.46405 0.40112 0.66073 0.0
H363 H 0.69841 0.52758 0.74514 0.0
H364 H 0.69259 0.58715 0.78387 0.0
H365 H 0.68992 0.60264 0.73389 0.0
H366 H 0.56598 0.65191 0.73133 0.0
H367 H 0.56932 0.63843 0.78197 0.0
H368 H 0.49095 0.61196 0.7431 0.0
H369 H 0.47346 0.37926 0.73164 0.0
H370 H 0.49935 0.37581 0.80482 0.0
H371 H 0.60857 0.55011 0.82522 0.0
C372 C 0.57653 0.54918 0.66485 0.0
C373 C 0.55244 0.51229 0.62826 0.0
C374 C 0.5085 0.46033 0.6265 0.0
C375 C 0.49367 0.44278 0.66163 0.0
C376 C 0.52173 0.47867 0.69775 0.0
C377 C 0.56018 0.53182 0.69937 0.0
C378 C 0.58843 0.56064 0.74191 0.0
C379 C 0.67228 0.57 0.75175 0.0
C380 C 0.55143 0.61919 0.75005 0.0
C381 C 0.56373 0.51383 0.7641 0.0
C382 C 0.52502 0.46696 0.73828 0.0
C383 C 0.50205 0.41636 0.75214 0.0
C384 C 0.51768 0.41441 0.79351 0.0
C385 C 0.55549 0.46284 0.82016 0.0
C386 C 0.57877 0.51292 0.80523 0.0
H387 H 0.48136 0.59352 0.3349 0.0
H388 H 0.65444 0.47987 0.37821 0.0
H389 H 0.68612 0.46698 0.31162 0.0
H390 H 0.4145 0.51436 0.24767 0.0
H391 H 0.39473 0.57392 0.21789 0.0
H392 H 0.39752 0.58694 0.27053 0.0
H393 H 0.49586 0.67246 0.28015 0.0
H394 H 0.49173 0.66117 0.22709 0.0
H395 H 0.57801 0.65944 0.26172 0.0
H396 H 0.68258 0.45218 0.23722 0.0
H397 H 0.64993 0.44316 0.16305 0.0
H398 H 0.47703 0.56444 0.16995 0.0
C399 C 0.52768 0.56774 0.3307 0.0
C400 C 0.56551 0.53761 0.36129 0.0
C401 C 0.62547 0.5038 0.35502 0.0
C402 C 0.64364 0.49618 0.31734 0.0
C403 C 0.60226 0.52387 0.28692 0.0
C404 C 0.54671 0.56028 0.29361 0.0
C405 C 0.50542 0.58024 0.25545 0.0
C406 C 0.42323 0.56276 0.24744 0.0
C407 C 0.51856 0.6473 0.25616 0.0
C408 C 0.54218 0.54553 0.22575 0.0
C409 C 0.59933 0.51456 0.24434 0.0
C410 C 0.63884 0.4771 0.22246 0.0
C411 C 0.6197 0.47179 0.18057 0.0
C412 C 0.56066 0.50269 0.16147 0.0
C413 C 0.52193 0.54009 0.18426 0.0
loop_
_geom_bond_atom_site_label_1
_geom_bond_atom_site_label_2
_geom_bond_distance
_geom_bond_site_symmetry_2
_ccdc_geom_bond_type
O0 Mg1 1.990 . S
O0 C14 1.253 . S
Mg1 O0 1.990 . S
Mg1 O4 2.180 . S
Mg1 O5 2.117 . S
Mg1 O19 2.030 1_545 S
O2 Mg3 2.072 . S
O2 C14 1.260 . S
Mg3 O2 2.072 . S
Mg3 O4 2.099 . S
Mg3 O6 2.079 1_554 S
Mg3 O7 2.072 . S
Mg3 O9 2.099 1_444 S
Mg3 O20 2.078 1_544 S
O4 Mg1 2.180 . S
O4 Mg3 2.099 . S
O4 C15 1.279 . S
O5 Mg1 2.117 . S
O5 C15 1.250 . S
O6 Mg3 2.079 1_556 S
O6 C16 1.264 . S
O7 Mg3 2.072 . S
O7 C17 1.260 1_454 S
Mg8 O9 2.180 . S
Mg8 O10 2.030 1_565 S
Mg8 O11 1.990 1_565 S
Mg8 O12 2.117 . S
O9 Mg3 2.099 1_666 S
O9 Mg8 2.180 . S
O9 C18 1.279 . S
O10 Mg8 2.030 1_545 S
O10 C16 1.248 1_655 S
O11 Mg8 1.990 1_545 S
O11 C17 1.253 . S
O12 Mg8 2.117 . S
O12 C18 1.250 . S
C13 O19 1.248 . S
C13 O20 1.256 1_554 S
C14 O0 1.253 . S
C14 O2 1.260 . S
C15 O4 1.279 . S
C15 O5 1.250 . S
C16 O6 1.264 . S
C16 O10 1.248 1_455 S
C17 O7 1.260 1_656 S
C17 O11 1.253 . S
C18 O9 1.279 . S
C18 O12 1.250 . S
O19 Mg1 2.030 1_565 S
O19 C13 1.248 . S
O20 Mg3 2.078 1_566 S
O20 C13 1.256 1_556 S
O21 Mg22 1.990 . S
O21 C35 1.253 . S
Mg22 O21 1.990 . S
Mg22 O25 2.180 . S
Mg22 O26 2.117 . S
Mg22 O40 2.030 . S
O23 Mg24 2.072 . S
O23 C35 1.260 . S
Mg24 O23 2.072 . S
Mg24 O25 2.099 . S
Mg24 O27 2.079 . S
Mg24 O28 2.072 . S
Mg24 O30 2.099 . S
Mg24 O41 2.079 . S
O25 Mg22 2.180 . S
O25 Mg24 2.099 . S
O25 C36 1.279 . S
O26 Mg22 2.117 . S
O26 C36 1.250 . S
O27 Mg24 2.079 . S
O27 C37 1.264 . S
O28 Mg24 2.072 . S
O28 C38 1.260 . S
Mg29 O30 2.180 . S
Mg29 O31 2.030 . S
Mg29 O32 1.990 . S
Mg29 O33 2.117 . S
O30 Mg24 2.099 . S
O30 Mg29 2.180 . S
O30 C39 1.279 . S
O31 Mg29 2.030 . S
O31 C37 1.248 . S
O32 Mg29 1.990 . S
O32 C38 1.253 . S
O33 Mg29 2.117 . S
O33 C39 1.250 . S
C34 O40 1.248 . S
C34 O41 1.264 . S
C35 O21 1.253 . S
C35 O23 1.260 . S
C36 O25 1.279 . S
C36 O26 1.250 . S
C37 O27 1.264 . S
C37 O31 1.248 . S
C38 O28 1.260 . S
C38 O32 1.253 . S
C39 O30 1.279 . S
C39 O33 1.250 . S
O40 Mg22 2.030 . S
O40 C34 1.248 . S
O41 Mg24 2.079 . S
O41 C34 1.264 . S
H42 C47 0.930 . S
H43 C50 0.930 . S
H44 C52 0.930 . S
H45 C46 1.016 . S
C46 H45 1.016 . S
C46 N53 1.286 . S
C47 H42 0.930 . S
C47 C48 1.397 . S
C47 C49 1.361 1_565 S
C48 C47 1.397 . S
C48 C52 1.390 . S
C49 C47 1.361 1_545 S
C49 C50 1.393 . S
C49 N53 1.413 1_455 S
C50 H43 0.930 . S
C50 C49 1.393 . S
C50 C51 1.399 1_545 S
C51 C50 1.399 1_565 S
C51 C52 1.381 . S
C52 H44 0.930 . S
C52 C48 1.390 . S
C52 C51 1.381 . S
N53 C46 1.286 . S
N53 C49 1.413 1_655 S
H54 C59 0.930 . S
H55 C62 0.930 . S
H56 C64 0.930 1_565 S
H57 C58 1.016 . S
C58 H57 1.016 . S
C58 N65 1.286 . S
C59 H54 0.930 . S
C59 C60 1.397 1_545 S
C59 C61 1.361 1_655 S
C60 C59 1.397 1_565 S
C60 C64 1.390 1_565 S
C61 C59 1.361 1_455 S
C61 C62 1.393 . S
C61 N65 1.413 . S
C62 H55 0.930 . S
C62 C61 1.393 . S
C62 C63 1.399 1_455 S
C63 C62 1.399 1_655 S
C63 C64 1.381 . S
C64 H56 0.930 1_545 S
C64 C60 1.390 1_545 S
C64 C63 1.381 . S
N65 C58 1.286 . S
N65 C61 1.413 . S
H66 C71 0.931 . S
H67 C74 0.930 . S
H68 C76 0.930 . S
H69 C70 1.016 . S
C70 H69 1.016 . S
C70 N77 1.286 . S
C71 H66 0.931 . S
C71 C72 1.397 . S
C71 C73 1.361 . S
C72 C71 1.397 . S
C72 C76 1.390 . S
C73 C71 1.361 . S
C73 C74 1.393 . S
C73 N77 1.413 . S
C74 H67 0.930 . S
C74 C73 1.393 . S
C74 C75 1.399 . S
C75 C74 1.399 . S
C75 C76 1.381 . S
C76 H68 0.930 . S
C76 C72 1.390 . S
C76 C75 1.381 . S
N77 C70 1.286 . S
N77 C73 1.413 . S
H78 C83 0.930 . S
H79 C86 0.930 . S
H80 C88 0.930 . S
H81 C82 1.016 . S
C82 H81 1.016 . S
C82 N89 1.286 . S
C83 H78 0.930 . S
C83 C84 1.397 . S
C83 C85 1.361 . S
C84 C83 1.397 . S
C84 C88 1.390 . S
C85 C83 1.361 . S
C85 C86 1.393 . S
C85 N89 1.413 . S
C86 H79 0.930 . S
C86 C85 1.393 . S
C86 C87 1.399 . S
C87 C86 1.399 . S
C87 C88 1.381 . S
C88 H80 0.930 . S
C88 C84 1.390 . S
C88 C87 1.381 . S
N89 C82 1.286 . S
N89 C85 1.413 . S
H90 C102 0.928 . S
H91 C104 0.930 . S
H92 C105 0.930 . S
H93 C109 0.959 1_554 S
H94 C109 0.959 . S
H95 C109 0.961 . S
H96 C110 0.960 . S
H97 C110 0.961 . S
H98 C110 0.959 . S
H99 C113 0.929 . S
H100 C114 0.931 . S
H101 C116 0.930 1_556 S
C102 H90 0.928 . S
C102 C103 1.401 1_556 S
C102 C107 1.399 1_556 S
C103 C102 1.401 1_554 S
C103 C104 1.376 . S
C104 H91 0.930 . S
C104 C103 1.376 . S
C104 C105 1.388 . S
C105 H92 0.930 . S
C105 C104 1.388 . S
C105 C106 1.390 . S
C106 C105 1.390 . S
C106 C107 1.394 . S
C106 C112 1.465 . S
C107 C102 1.399 1_554 S
C107 C106 1.394 . S
C107 C108 1.516 1_554 S
C108 C107 1.516 1_556 S
C108 C109 1.502 . S
C108 C110 1.561 . S
C108 C111 1.526 1_556 S
C109 H93 0.959 1_556 S
C109 H94 0.959 . S
C109 H95 0.961 . S
C109 C108 1.502 . S
C110 H96 0.960 . S
C110 H97 0.961 . S
C110 H98 0.959 . S
C110 C108 1.561 . S
C111 C108 1.526 1_554 S
C111 C112 1.396 . S
C111 C116 1.390 . S
C112 C106 1.465 . S
C112 C111 1.396 . S
C112 C113 1.399 . S
C113 H99 0.929 . S
C113 C112 1.399 . S
C113 C114 1.385 . S
C114 H100 0.931 . S
C114 C113 1.385 . S
C114 C115 1.389 . S
C115 C114 1.389 . S
C115 C116 1.387 . S
C116 H101 0.930 1_554 S
C116 C111 1.390 . S
C116 C115 1.387 . S
H117 C129 0.930 . S
H118 C131 0.930 . S
H119 C132 0.930 . S
H120 C136 0.959 . S
H121 C136 0.959 . S
H122 C136 0.961 . S
H123 C137 0.960 . S
H124 C137 0.961 . S
H125 C137 0.959 . S
H126 C140 0.929 . S
H127 C141 0.931 . S
H128 C143 0.930 . S
C129 H117 0.930 . S
C129 C130 1.399 1_556 S
C129 C134 1.399 . S
C130 C129 1.399 1_554 S
C130 C131 1.376 . S
C131 H118 0.930 . S
C131 C130 1.376 . S
C131 C132 1.388 . S
C132 H119 0.930 . S
C132 C131 1.388 . S
C132 C133 1.390 . S
C133 C132 1.390 . S
C133 C134 1.394 1_554 S
C133 C139 1.465 . S
C134 C129 1.399 . S
C134 C133 1.394 1_556 S
C134 C135 1.516 . S
C135 C134 1.516 . S
C135 C136 1.502 . S
C135 C137 1.561 . S
C135 C138 1.526 . S
C136 H120 0.959 . S
C136 H121 0.959 . S
C136 H122 0.961 . S
C136 C135 1.502 . S
C137 H123 0.960 . S
C137 H124 0.961 . S
C137 H125 0.959 . S
C137 C135 1.561 . S
C138 C135 1.526 . S
C138 C139 1.396 1_556 S
C138 C143 1.390 . S
C139 C133 1.465 . S
C139 C138 1.396 1_554 S
C139 C140 1.399 . S
C140 H126 0.929 . S
C140 C139 1.399 . S
C140 C141 1.385 . S
C141 H127 0.931 . S
C141 C140 1.385 . S
C141 C142 1.389 1_554 S
C142 C141 1.389 1_556 S
C142 C143 1.387 . S
C143 H128 0.930 . S
C143 C138 1.390 . S
C143 C142 1.387 . S
H144 C156 0.930 . S
H145 C158 0.930 . S
H146 C159 0.930 . S
H147 C163 0.959 . S
H148 C163 0.959 . S
H149 C163 0.961 . S
H150 C164 0.960 . S
H151 C164 0.961 . S
H152 C164 0.959 . S
H153 C167 0.929 . S
H154 C168 0.931 . S
H155 C170 0.930 . S
C156 H144 0.930 . S
C156 C157 1.399 . S
C156 C161 1.399 . S
C157 C156 1.399 . S
C157 C158 1.376 1_554 S
C158 H145 0.930 . S
C158 C157 1.376 1_556 S
C158 C159 1.388 . S
C159 H146 0.930 . S
C159 C158 1.388 . S
C159 C160 1.389 1_556 S
C160 C159 1.389 1_554 S
C160 C161 1.394 . S
C160 C166 1.465 . S
C161 C156 1.399 . S
C161 C160 1.394 . S
C161 C162 1.516 . S
C162 C161 1.516 . S
C162 C163 1.502 . S
C162 C164 1.561 . S
C162 C165 1.526 . S
C163 H147 0.959 . S
C163 H148 0.959 . S
C163 H149 0.961 . S
C163 C162 1.502 . S
C164 H150 0.960 . S
C164 H151 0.961 . S
C164 H152 0.959 . S
C164 C162 1.561 . S
C165 C162 1.526 . S
C165 C166 1.396 . S
C165 C170 1.390 . S
C166 C160 1.465 . S
C166 C165 1.396 . S
C166 C167 1.399 1_554 S
C167 H153 0.929 . S
C167 C166 1.399 1_556 S
C167 C168 1.385 . S
C168 H154 0.931 . S
C168 C167 1.385 . S
C168 C169 1.389 1_556 S
C169 C168 1.389 1_554 S
C169 C170 1.387 . S
C170 H155 0.930 . S
C170 C165 1.390 . S
C170 C169 1.387 . S
H171 C183 0.930 . S
H172 C185 0.930 . S
H173 C186 0.930 . S
H174 C190 0.959 . S
H175 C190 0.959 . S
H176 C190 0.961 . S
H177 C191 0.960 . S
H178 C191 0.961 . S
H179 C191 0.959 . S
H180 C194 0.929 . S
H181 C195 0.931 . S
H182 C197 0.930 1_554 S
C183 H171 0.930 . S
C183 C184 1.399 1_554 S
C183 C188 1.399 . S
C184 C183 1.399 1_556 S
C184 C185 1.376 . S
C185 H172 0.930 . S
C185 C184 1.376 . S
C185 C186 1.388 . S
C186 H173 0.930 . S
C186 C185 1.388 . S
C186 C187 1.390 . S
C187 C186 1.390 . S
C187 C188 1.394 1_556 S
C187 C193 1.465 . S
C188 C183 1.399 . S
C188 C187 1.394 1_554 S
C188 C189 1.516 . S
C189 C188 1.516 . S
C189 C190 1.502 . S
C189 C191 1.561 . S
C189 C192 1.526 1_554 S
C190 H174 0.959 . S
C190 H175 0.959 . S
C190 H176 0.961 . S
C190 C189 1.502 . S
C191 H177 0.960 . S
C191 H178 0.961 . S
C191 H179 0.959 . S
C191 C189 1.561 . S
C192 C189 1.526 1_556 S
C192 C193 1.396 . S
C192 C197 1.390 . S
C193 C187 1.465 . S
C193 C192 1.396 . S
C193 C194 1.399 . S
C194 H180 0.929 . S
C194 C193 1.399 . S
C194 C195 1.385 . S
C195 H181 0.931 . S
C195 C194 1.385 . S
C195 C196 1.389 . S
C196 C195 1.389 . S
C196 C197 1.387 . S
C197 H182 0.930 1_556 S
C197 C192 1.390 . S
C197 C196 1.387 . S
H198 C210 0.930 . S
H199 C212 0.930 . S
H200 C213 0.930 . S
H201 C217 0.959 . S
H202 C217 0.959 . S
H203 C217 0.961 . S
H204 C218 0.960 . S
H205 C218 0.961 . S
H206 C218 0.959 . S
H207 C221 0.929 . S
H208 C222 0.931 . S
H209 C224 0.930 . S
C210 H198 0.930 . S
C210 C211 1.399 . S
C210 C215 1.399 . S
C211 C210 1.399 . S
C211 C212 1.376 . S
C212 H199 0.930 . S
C212 C211 1.376 . S
C212 C213 1.388 . S
C213 H200 0.930 . S
C213 C212 1.388 . S
C213 C214 1.390 . S
C214 C213 1.390 . S
C214 C215 1.394 . S
C214 C220 1.465 . S
C215 C210 1.399 . S
C215 C214 1.394 . S
C215 C216 1.516 . S
C216 C215 1.516 . S
C216 C217 1.502 . S
C216 C218 1.561 . S
C216 C219 1.526 . S
C217 H201 0.959 . S
C217 H202 0.959 . S
C217 H203 0.961 . S
C217 C216 1.502 . S
C218 H204 0.960 . S
C218 H205 0.961 . S
C218 H206 0.959 . S
C218 C216 1.561 . S
C219 C216 1.526 . S
C219 C220 1.396 . S
C219 C224 1.390 . S
C220 C214 1.465 . S
C220 C219 1.396 . S
C220 C221 1.399 . S
C221 H207 0.929 . S
C221 C220 1.399 . S
C221 C222 1.385 . S
C222 H208 0.931 . S
C222 C221 1.385 . S
C222 C223 1.389 . S
C223 C222 1.389 . S
C223 C224 1.387 . S
C224 H209 0.930 . S
C224 C219 1.390 . S
C224 C223 1.387 . S
H225 C237 0.930 . S
H226 C239 0.930 . S
H227 C240 0.930 . S
H228 C244 0.959 . S
H229 C244 0.959 . S
H230 C244 0.961 . S
H231 C245 0.960 . S
H232 C245 0.961 . S
H233 C245 0.959 . S
H234 C248 0.929 . S
H235 C249 0.931 . S
H236 C251 0.930 . S
C237 H225 0.930 . S
C237 C238 1.399 . S
C237 C242 1.399 . S
C238 C237 1.399 . S
C238 C239 1.376 . S
C239 H226 0.930 . S
C239 C238 1.376 . S
C239 C240 1.388 . S
C240 H227 0.930 . S
C240 C239 1.388 . S
C240 C241 1.390 . S
C241 C240 1.390 . S
C241 C242 1.394 . S
C241 C247 1.465 . S
C242 C237 1.399 . S
C242 C241 1.394 . S
C242 C243 1.516 . S
C243 C242 1.516 . S
C243 C244 1.502 . S
C243 C245 1.561 . S
C243 C246 1.526 . S
C244 H228 0.959 . S
C244 H229 0.959 . S
C244 H230 0.961 . S
C244 C243 1.502 . S
C245 H231 0.960 . S
C245 H232 0.961 . S
C245 H233 0.959 . S
C245 C243 1.561 . S
C246 C243 1.526 . S
C246 C247 1.396 . S
C246 C251 1.390 . S
C247 C241 1.465 . S
C247 C246 1.396 . S
C247 C248 1.399 . S
C248 H234 0.929 . S
C248 C247 1.399 . S
C248 C249 1.385 . S
C249 H235 0.931 . S
C249 C248 1.385 . S
C249 C250 1.389 . S
C250 C249 1.389 . S
C250 C251 1.387 . S
C251 H236 0.930 . S
C251 C246 1.390 . S
C251 C250 1.387 . S
H252 C264 0.930 . S
H253 C266 0.930 . S
H254 C267 0.930 . S
H255 C271 0.959 . S
H256 C271 0.959 . S
H257 C271 0.961 . S
H258 C272 0.960 . S
H259 C272 0.961 . S
H260 C272 0.959 . S
H261 C275 0.929 . S
H262 C276 0.931 . S
H263 C278 0.930 . S
C264 H252 0.930 . S
C264 C265 1.399 . S
C264 C269 1.399 . S
C265 C264 1.399 . S
C265 C266 1.376 . S
C266 H253 0.930 . S
C266 C265 1.376 . S
C266 C267 1.388 . S
C267 H254 0.930 . S
C267 C266 1.388 . S
C267 C268 1.390 . S
C268 C267 1.390 . S
C268 C269 1.394 . S
C268 C274 1.465 . S
C269 C264 1.399 . S
C269 C268 1.394 . S
C269 C270 1.516 . S
C270 C269 1.516 . S
C270 C271 1.502 . S
C270 C272 1.561 . S
C270 C273 1.526 . S
C271 H255 0.959 . S
C271 H256 0.959 . S
C271 H257 0.961 . S
C271 C270 1.502 . S
C272 H258 0.960 . S
C272 H259 0.961 . S
C272 H260 0.959 . S
C272 C270 1.561 . S
C273 C270 1.526 . S
C273 C274 1.396 . S
C273 C278 1.390 . S
C274 C268 1.465 . S
C274 C273 1.396 . S
C274 C275 1.399 . S
C275 H261 0.929 . S
C275 C274 1.399 . S
C275 C276 1.385 . S
C276 H262 0.931 . S
C276 C275 1.385 . S
C276 C277 1.389 . S
C277 C276 1.389 . S
C277 C278 1.387 . S
C278 H263 0.930 . S
C278 C273 1.390 . S
C278 C277 1.387 . S
H279 C291 0.930 . S
H280 C293 0.930 . S
H281 C294 0.930 . S
H282 C298 0.959 . S
H283 C298 0.959 . S
H284 C298 0.961 . S
H285 C299 0.960 . S
H286 C299 0.961 . S
H287 C299 0.959 . S
H288 C302 0.929 . S
H289 C303 0.931 . S
H290 C305 0.930 . S
C291 H279 0.930 . S
C291 C292 1.399 . S
C291 C296 1.399 . S
C292 C291 1.399 . S
C292 C293 1.376 . S
C293 H280 0.930 . S
C293 C292 1.376 . S
C293 C294 1.388 . S
C294 H281 0.930 . S
C294 C293 1.388 . S
C294 C295 1.390 . S
C295 C294 1.390 . S
C295 C296 1.394 . S
C295 C301 1.465 . S
C296 C291 1.399 . S
C296 C295 1.394 . S
C296 C297 1.516 . S
C297 C296 1.516 . S
C297 C298 1.502 . S
C297 C299 1.561 . S
C297 C300 1.526 . S
C298 H282 0.959 . S
C298 H283 0.959 . S
C298 H284 0.961 . S
C298 C297 1.502 . S
C299 H285 0.960 . S
C299 H286 0.961 . S
C299 H287 0.959 . S
C299 C297 1.561 . S
C300 C297 1.526 . S
C300 C301 1.396 . S
C300 C305 1.390 . S
C301 C295 1.465 . S
C301 C300 1.396 . S
C301 C302 1.399 . S
C302 H288 0.929 . S
C302 C301 1.399 . S
C302 C303 1.385 . S
C303 H289 0.931 . S
C303 C302 1.385 . S
C303 C304 1.389 . S
C304 C303 1.389 . S
C304 C305 1.387 . S
C305 H290 0.930 . S
C305 C300 1.390 . S
C305 C304 1.387 . S
H306 C318 0.930 . S
H307 C320 0.930 1_655 S
H308 C321 0.930 . S
H309 C325 0.959 . S
H310 C325 0.959 . S
H311 C325 0.961 . S
H312 C326 0.960 . S
H313 C326 0.961 . S
H314 C326 0.959 . S
H315 C329 0.929 . S
H316 C330 0.931 1_655 S
H317 C332 0.930 . S
C318 H306 0.930 . S
C318 C319 1.399 1_565 S
C318 C323 1.398 . S
C319 C318 1.399 1_545 S
C319 C320 1.376 . S
C320 H307 0.930 1_455 S
C320 C319 1.376 . S
C320 C321 1.388 1_455 S
C321 H308 0.930 . S
C321 C320 1.388 1_655 S
C321 C322 1.390 1_655 S
C322 C321 1.390 1_455 S
C322 C323 1.392 1_545 S
C322 C328 1.465 . S
C323 C318 1.398 . S
C323 C322 1.392 1_565 S
C323 C324 1.518 . S
C324 C323 1.518 . S
C324 C325 1.502 . S
C324 C326 1.561 1_565 S
C324 C327 1.526 . S
C325 H309 0.959 . S
C325 H310 0.959 . S
C325 H311 0.961 . S
C325 C324 1.502 . S
C326 H312 0.960 . S
C326 H313 0.961 . S
C326 H314 0.959 . S
C326 C324 1.561 1_545 S
C327 C324 1.526 . S
C327 C328 1.396 1_565 S
C327 C332 1.390 . S
C328 C322 1.465 . S
C328 C327 1.396 1_545 S
C328 C329 1.399 1_455 S
C329 H315 0.929 . S
C329 C328 1.399 1_655 S
C329 C330 1.385 1_655 S
C330 H316 0.931 1_455 S
C330 C329 1.385 1_455 S
C330 C331 1.389 1_545 S
C331 C330 1.389 1_565 S
C331 C332 1.387 . S
C332 H317 0.930 . S
C332 C327 1.390 . S
C332 C331 1.387 . S
H333 C345 0.930 . S
H334 C347 0.930 . S
H335 C348 0.930 . S
H336 C352 0.959 . S
H337 C352 0.959 . S
H338 C352 0.961 . S
H339 C353 0.960 . S
H340 C353 0.961 . S
H341 C353 0.959 . S
H342 C356 0.929 . S
H343 C357 0.931 . S
H344 C359 0.930 1_565 S
C345 H333 0.930 . S
C345 C346 1.399 1_565 S
C345 C350 1.399 1_565 S
C346 C345 1.399 1_545 S
C346 C347 1.376 1_455 S
C347 H334 0.930 . S
C347 C346 1.376 1_655 S
C347 C348 1.388 . S
C348 H335 0.930 . S
C348 C347 1.388 . S
C348 C349 1.390 . S
C349 C348 1.390 . S
C349 C350 1.394 1_655 S
C349 C355 1.465 . S
C350 C345 1.399 1_545 S
C350 C349 1.394 1_455 S
C350 C351 1.516 1_545 S
C351 C350 1.516 1_565 S
C351 C352 1.502 . S
C351 C353 1.561 1_455 S
C351 C354 1.526 1_565 S
C352 H336 0.959 . S
C352 H337 0.959 . S
C352 H338 0.961 . S
C352 C351 1.502 . S
C353 H339 0.960 . S
C353 H340 0.961 . S
C353 H341 0.959 . S
C353 C351 1.561 1_655 S
C354 C351 1.526 1_545 S
C354 C355 1.396 1_455 S
C354 C359 1.390 . S
C355 C349 1.465 . S
C355 C354 1.396 1_655 S
C355 C356 1.399 . S
C356 H342 0.929 . S
C356 C355 1.399 . S
C356 C357 1.385 . S
C357 H343 0.931 . S
C357 C356 1.385 . S
C357 C358 1.389 . S
C358 C357 1.389 . S
C358 C359 1.387 1_655 S
C359 H344 0.930 1_545 S
C359 C354 1.390 . S
C359 C358 1.387 1_455 S
H360 C372 0.930 . S
H361 C374 0.930 . S
H362 C375 0.930 . S
H363 C379 0.959 . S
H364 C379 0.959 . S
H365 C379 0.961 . S
H366 C380 0.960 . S
H367 C380 0.961 . S
H368 C380 0.959 . S
H369 C383 0.929 . S
H370 C384 0.931 . S
H371 C386 0.930 . S
C372 H360 0.930 . S
C372 C373 1.399 . S
C372 C377 1.399 . S
C373 C372 1.399 . S
C373 C374 1.376 . S
C374 H361 0.930 . S
C374 C373 1.376 . S
C374 C375 1.388 . S
C375 H362 0.930 . S
C375 C374 1.388 . S
C375 C376 1.390 . S
C376 C375 1.390 . S
C376 C377 1.394 . S
C376 C382 1.465 . S
C377 C372 1.399 . S
C377 C376 1.394 . S
C377 C378 1.516 . S
C378 C377 1.516 . S
C378 C379 1.502 . S
C378 C380 1.561 . S
C378 C381 1.526 . S
C379 H363 0.959 . S
C379 H364 0.959 . S
C379 H365 0.961 . S
C379 C378 1.502 . S
C380 H366 0.960 . S
C380 H367 0.961 . S
C380 H368 0.959 . S
C380 C378 1.561 . S
C381 C378 1.526 . S
C381 C382 1.396 . S
C381 C386 1.390 . S
C382 C376 1.465 . S
C382 C381 1.396 . S
C382 C383 1.399 . S
C383 H369 0.929 . S
C383 C382 1.399 . S
C383 C384 1.385 . S
C384 H370 0.931 . S
C384 C383 1.385 . S
C384 C385 1.389 . S
C385 C384 1.389 . S
C385 C386 1.387 . S
C386 H371 0.930 . S
C386 C381 1.390 . S
C386 C385 1.387 . S
H387 C399 0.930 . S
H388 C401 0.930 . S
H389 C402 0.930 . S
H390 C406 0.959 . S
H391 C406 0.959 . S
H392 C406 0.961 . S
H393 C407 0.960 . S
H394 C407 0.961 . S
H395 C407 0.959 . S
H396 C410 0.929 . S
H397 C411 0.931 . S
H398 C413 0.930 . S
C399 H387 0.930 . S
C399 C400 1.399 . S
C399 C404 1.399 . S
C400 C399 1.399 . S
C400 C401 1.376 . S
C401 H388 0.930 . S
C401 C400 1.376 . S
C401 C402 1.388 . S
C402 H389 0.930 . S
C402 C401 1.388 . S
C402 C403 1.390 . S
C403 C402 1.390 . S
C403 C404 1.394 . S
C403 C409 1.465 . S
C404 C399 1.399 . S
C404 C403 1.394 . S
C404 C405 1.516 . S
C405 C404 1.516 . S
C405 C406 1.502 . S
C405 C407 1.561 . S
C405 C408 1.526 . S
C406 H390 0.959 . S
C406 H391 0.959 . S
C406 H392 0.961 . S
C406 C405 1.502 . S
C407 H393 0.960 . S
C407 H394 0.961 . S
C407 H395 0.959 . S
C407 C405 1.561 . S
C408 C405 1.526 . S
C408 C409 1.396 . S
C408 C413 1.390 . S
C409 C403 1.465 . S
C409 C408 1.396 . S
C409 C410 1.399 . S
C410 H396 0.929 . S
C410 C409 1.399 . S
C410 C411 1.385 . S
C411 H397 0.931 . S
C411 C410 1.385 . S
C411 C412 1.389 . S
C412 C411 1.389 . S
C412 C413 1.387 . S
C413 H398 0.930 . S
C413 C408 1.390 . S
C413 C412 1.387 . S
C115 C84 1.436 . S
C103 C15 1.326 . S
C130 C13 1.386 . S
C142 C70 1.415 . S
C157 C18 1.194 1_554 S
C169 C82 1.453 . S
C184 C17 1.414 . S
C196 C72 1.434 . S
C211 C36 1.338 . S
C223 C60 1.441 . S
C238 C34 1.447 . S
C250 C46 1.372 . S
C277 C58 1.448 . S
C265 C39 1.189 . S
C304 C48 1.471 . S
C292 C38 1.455 . S
C319 C14 1.579 . S
C331 C51 1.617 . S
C346 C16 1.364 . S
C358 C63 1.432 . S
C385 C75 1.611 . S
C373 C35 1.602 . S
C400 C37 1.413 . S
C412 C87 1.398 . S
