# Generated by pormake.
# Topology anh, (6,3)-cn, num edge types: 1
# Building blocks:
#     Node 0, Type 0, BuildingBlock: BETGAK_clean_sbu_0, # of connection points: 6
#     Node 1, Type 0, BuildingBlock: BETGAK_clean_sbu_0, # of connection points: 6
#     Node 2, Type 0, BuildingBlock: BETGAK_clean_sbu_0, # of connection points: 6
#     Node 3, Type 1, BuildingBlock: VETTIZ_charged_linker_0, # of connection points: 3
#     Node 4, Type 1, BuildingBlock: VETTIZ_charged_linker_0, # of connection points: 3
#     Node 5, Type 1, BuildingBlock: VETTIZ_charged_linker_0, # of connection points: 3
#     Node 6, Type 1, BuildingBlock: VETTIZ_charged_linker_0, # of connection points: 3
#     Node 7, Type 1, BuildingBlock: VETTIZ_charged_linker_0, # of connection points: 3
#     Node 8, Type 1, BuildingBlock: VETTIZ_charged_linker_0, # of connection points: 3
#     Edge 9, Type (0, 1), BuildingBlock: OJICUG_clean_linker_0, # of connection points: 2
#     Edge 10, Type (0, 1), BuildingBlock: OJICUG_clean_linker_0, # of connection points: 2
#     Edge 11, Type (0, 1), BuildingBlock: OJICUG_clean_linker_0, # of connection points: 2
#     Edge 12, Type (0, 1), BuildingBlock: OJICUG_clean_linker_0, # of connection points: 2
#     Edge 13, Type (0, 1), BuildingBlock: OJICUG_clean_linker_0, # of connection points: 2
#     Edge 14, Type (0, 1), BuildingBlock: OJICUG_clean_linker_0, # of connection points: 2
#     Edge 15, Type (0, 1), BuildingBlock: OJICUG_clean_linker_0, # of connection points: 2
#     Edge 16, Type (0, 1), BuildingBlock: OJICUG_clean_linker_0, # of connection points: 2
#     Edge 17, Type (0, 1), BuildingBlock: OJICUG_clean_linker_0, # of connection points: 2
#     Edge 18, Type (0, 1), BuildingBlock: OJICUG_clean_linker_0, # of connection points: 2
#     Edge 19, Type (0, 1), BuildingBlock: OJICUG_clean_linker_0, # of connection points: 2
#     Edge 20, Type (0, 1), BuildingBlock: OJICUG_clean_linker_0, # of connection points: 2
#     Edge 21, Type (0, 1), BuildingBlock: OJICUG_clean_linker_0, # of connection points: 2
#     Edge 22, Type (0, 1), BuildingBlock: OJICUG_clean_linker_0, # of connection points: 2
#     Edge 23, Type (0, 1), BuildingBlock: OJICUG_clean_linker_0, # of connection points: 2
#     Edge 24, Type (0, 1), BuildingBlock: OJICUG_clean_linker_0, # of connection points: 2
#     Edge 25, Type (0, 1), BuildingBlock: OJICUG_clean_linker_0, # of connection points: 2
#     Edge 26, Type (0, 1), BuildingBlock: OJICUG_clean_linker_0, # of connection points: 2
# Relax obj value: 0.221
# Max RMSD: 0.225
# Mean RMSD: 0.167
data_MOF--net-anh--node1-BETGAK_clean_sbu_0--node2-VETTIZ_charged_linker_0--edge1-OJICUG_clean_linker_0
_symmetry_space_group_name_H-M    P1
_symmetry_Int_Tables_number       1
_symmetry_cell_setting            triclinic
loop_
_symmetry_equiv_pos_as_xyz
'x, y, z'
_cell_length_a     29.039366
_cell_length_b     35.122233
_cell_length_c     52.596067
_cell_angle_alpha  92.248741
_cell_angle_beta   89.394845
_cell_angle_gamma 131.167
loop_
_atom_site_label
_atom_site_type_symbol
_atom_site_fract_x
_atom_site_fract_y
_atom_site_fract_z
_atom_type_partial_charge
La0 La 0.16945 0.55615 0.14801 0.0
La1 La 1.08871 0.57869 0.15962 0.0
C2 C 0.23276 0.53852 0.1277 0.0
C3 C 0.26094 0.54098 0.10373 0.0
C4 C 0.31541 0.5498 0.1052 0.0
C5 C 0.32958 0.5308 0.08588 0.0
C6 C 0.28884 0.50229 0.06513 0.0
C7 C 0.23953 0.50043 0.06182 0.0
C8 C 0.22593 0.52016 0.08095 0.0
C9 C 0.14539 0.55353 0.19677 0.0
C10 C 0.23052 0.67202 0.15161 0.0
C11 C 1.02441 0.59767 0.17672 0.0
C12 C 0.95742 0.56355 0.17522 0.0
C13 C 0.92526 0.5155 0.16343 0.0
C14 C 0.86193 0.48161 0.16151 0.0
C15 C 0.82875 0.49489 0.17127 0.0
C16 C 0.86088 0.54312 0.18332 0.0
C17 C 0.92505 0.57724 0.18541 0.0
C18 C 1.08313 0.54789 0.11185 0.0
C19 C 1.02907 0.46553 0.15707 0.0
O20 O 0.25717 0.58002 0.14141 0.0
O21 O 0.17301 0.50692 0.12724 0.0
O22 O 0.15739 0.52742 0.18598 0.0
O23 O 0.15411 0.58359 0.18111 0.0
O24 O 0.23712 0.6391 0.14451 0.0
O25 O 0.17699 0.65658 0.15923 0.0
O26 O 1.05184 0.61318 0.15477 0.0
O27 O 1.04496 0.58133 0.19069 0.0
O28 O 1.03684 0.5361 0.12416 0.0
O29 O 0.13001 0.57749 0.12572 0.0
O30 O 1.02952 0.4993 0.1693 0.0
O31 O 1.07677 0.48058 0.14345 0.0
H32 H 0.34305 0.56581 0.12256 0.0
H33 H 0.36794 0.53271 0.08884 0.0
H34 H 0.20786 0.47895 0.04584 0.0
H35 H 0.18386 0.5133 0.07923 0.0
H36 H 0.94919 0.50423 0.1553 0.0
H37 H 0.83919 0.44558 0.15143 0.0
H38 H 0.83651 0.55449 0.19088 0.0
H39 H 0.94924 0.61419 0.19468 0.0
La40 La 0.68227 0.06398 0.48591 0.0
La41 La 0.60315 0.08724 0.47563 0.0
C42 C 0.7276 0.02856 0.50296 0.0
C43 C 0.70557 0.97732 0.5066 0.0
C44 C 0.70978 0.95136 0.48698 0.0
C45 C 0.69026 0.90349 0.49072 0.0
C46 C 0.6663 0.88063 0.51417 0.0
C47 C 0.66199 0.9066 0.53373 0.0
C48 C 0.68152 0.95439 0.53001 0.0
C49 C 0.67088 0.07425 0.43768 0.0
C50 C 0.53663 0.97308 0.47834 0.0
C51 C 0.55967 0.12386 0.45826 0.0
C52 C 0.57346 0.17144 0.46513 0.0
C53 C 0.60348 0.19708 0.48837 0.0
C54 C 0.61359 0.24058 0.49592 0.0
C55 C 0.59459 0.25963 0.48023 0.0
C56 C 0.56688 0.23522 0.45645 0.0
C57 C 0.55605 0.19111 0.449 0.0
C58 C 0.61444 0.07826 0.52413 0.0
C59 C 0.74979 0.17872 0.48268 0.0
O60 O 0.73323 0.04179 0.47948 0.0
O61 O 0.70376 0.04277 0.51735 0.0
O62 O 0.72066 0.08867 0.44804 0.0
O63 O 0.62905 0.05238 0.45373 0.0
O64 O 0.58851 0.9889 0.48868 0.0
O65 O 0.53482 1.00564 0.46767 0.0
O66 O 0.53407 0.09098 0.47615 0.0
O67 O 0.60398 0.12865 0.44748 0.0
O68 O 0.56612 0.06649 0.51379 0.0
O69 O 0.65611 0.09888 0.50799 0.0
O70 O 0.69594 0.16291 0.47513 0.0
O71 O 0.75498 0.14634 0.49068 0.0
H72 H 0.72854 0.96811 0.46876 0.0
H73 H 0.69397 0.8844 0.47525 0.0
H74 H 0.64503 0.89059 0.55222 0.0
H75 H 0.67839 0.97362 0.54562 0.0
H76 H 0.61802 0.18284 0.50093 0.0
H77 H 0.63569 0.25908 0.51421 0.0
H78 H 0.55178 0.24923 0.44408 0.0
H79 H 0.53322 0.17192 0.43091 0.0
La80 La 0.66256 0.59534 0.84231 0.0
La81 La 0.5715 0.4834 0.84311 0.0
C82 C 0.72076 0.68594 0.8309 0.0
C83 C 0.70644 0.7182 0.82551 0.0
C84 C 0.75234 0.77098 0.82846 0.0
C85 C 0.74069 0.80238 0.82213 0.0
C86 C 0.68266 0.78159 0.81276 0.0
C87 C 0.63626 0.72846 0.81053 0.0
C88 C 0.64812 0.69716 0.81671 0.0
C89 C 0.6403 0.55689 0.88714 0.0
C90 C 0.51333 0.53609 0.84564 0.0
C91 C 0.51741 0.39268 0.85253 0.0
C92 C 0.53368 0.36106 0.84787 0.0
C93 C 0.57191 0.37096 0.82775 0.0
C94 C 0.58724 0.34102 0.82327 0.0
C95 C 0.56549 0.30079 0.83903 0.0
C96 C 0.52788 0.29156 0.85945 0.0
C97 C 0.51205 0.32134 0.86376 0.0
C98 C 0.59491 0.52037 0.79778 0.0
C99 C 0.72072 0.54242 0.84179 0.0
O100 O 0.7132 0.67161 0.8543 0.0
O101 O 0.7003 0.64894 0.81419 0.0
O102 O 0.69453 0.59611 0.88011 0.0
O103 O 0.60213 0.54258 0.86968 0.0
O104 O 0.57092 0.57792 0.84021 0.0
O105 O 0.50389 0.49418 0.85047 0.0
O106 O 0.50615 0.40612 0.83231 0.0
O107 O 0.55226 0.4306 0.86906 0.0
O108 O 0.54153 0.4802 0.80464 0.0
O109 O 0.63326 0.53624 0.81544 0.0
O110 O 0.66224 0.50004 0.84514 0.0
O111 O 0.73182 0.58541 0.83811 0.0
H112 H 0.79773 0.78802 0.83516 0.0
H113 H 0.77783 0.84299 0.82378 0.0
H114 H 0.59077 0.71093 0.80377 0.0
H115 H 0.61198 0.65657 0.81417 0.0
H116 H 0.58956 0.40166 0.81531 0.0
H117 H 0.61523 0.34894 0.80706 0.0
H118 H 0.51087 0.26152 0.87224 0.0
H119 H 0.48283 0.31329 0.87949 0.0
C120 C 0.77871 0.20967 0.16692 0.0
C121 C 0.82645 0.25659 0.17993 0.0
C122 C 0.83104 0.25767 0.20652 0.0
C123 C 0.7411 0.16851 0.20749 0.0
C124 C 0.73615 0.16573 0.18124 0.0
C125 C 0.68132 0.11174 0.17181 0.0
H126 H 0.42504 0.87155 0.20706 0.0
C127 C 0.68977 0.11854 0.21742 0.0
C128 C 0.65339 0.08413 0.19681 0.0
H129 H 0.48322 0.91508 0.13 0.0
H130 H 0.57205 1.00117 0.14562 0.0
H131 H 0.55211 0.91923 0.22779 0.0
H132 H 0.45351 0.97114 0.22762 0.0
H133 H 0.48931 0.98909 0.25772 0.0
H134 H 0.43476 0.9229 0.24789 0.0
H135 H 0.49195 0.89711 0.24962 0.0
H136 H 0.5706 0.95227 0.25707 0.0
C137 C 0.70528 0.0904 0.15588 0.0
C138 C 0.63688 0.1125 0.15667 0.0
C139 C 0.67439 0.10222 0.31344 0.0
C140 C 0.63175 0.06211 0.32918 0.0
C141 C 0.57989 1.01575 0.31788 0.0
C142 C 0.57128 1.0092 0.29139 0.0
C143 C 0.615 0.04936 0.27584 0.0
C144 C 0.66506 0.09498 0.28699 0.0
C145 C 0.70623 0.13365 0.26766 0.0
C146 C 0.67335 0.10338 0.24292 0.0
C147 C 0.62023 0.05419 0.24785 0.0
C148 C 0.76973 0.14876 0.27032 0.0
C149 C 0.70658 0.17788 0.27204 0.0
C150 C 0.45646 0.89949 0.19339 0.0
C151 C 0.44644 0.88646 0.16733 0.0
C152 C 0.48968 0.92406 0.15028 0.0
C153 C 0.54112 0.97393 0.15935 0.0
C154 C 0.55017 0.98613 0.18577 0.0
C155 C 0.50791 0.94832 0.20206 0.0
C156 C 0.52436 0.96489 0.22945 0.0
C157 C 0.58313 1.01905 0.22744 0.0
C158 C 0.59907 0.03285 0.20186 0.0
C159 C 0.53498 0.93169 0.24185 0.0
C160 C 0.4729 0.96164 0.24153 0.0
H161 H 0.79612 0.21897 0.24041 0.0
H162 H 0.7741 0.2076 0.1464 0.0
H163 H 0.6249 0.13212 0.16811 0.0
H164 H 0.59371 0.07394 0.15167 0.0
H165 H 0.65794 0.1328 0.13878 0.0
H166 H 0.74262 0.09619 0.16639 0.0
H167 H 0.72376 0.10978 0.1376 0.0
H168 H 0.66941 0.04936 0.15164 0.0
H169 H 0.71428 0.1386 0.3215 0.0
H170 H 0.54659 0.98402 0.3295 0.0
H171 H 0.5311 0.97281 0.28409 0.0
H172 H 0.76495 0.11619 0.27613 0.0
H173 H 0.799 0.1799 0.28494 0.0
H174 H 0.79447 0.15991 0.2522 0.0
H175 H 0.66339 0.16476 0.28074 0.0
H176 H 0.70905 0.19456 0.25411 0.0
H177 H 0.74489 0.20818 0.28497 0.0
H178 H 0.86716 0.29277 0.21692 0.0
C179 C 0.78926 0.21443 0.22021 0.0
C180 C 0.62604 0.67255 0.53435 0.0
C181 C 0.62217 0.70582 0.5478 0.0
C182 C 0.61844 0.70461 0.5745 0.0
C183 C 0.62545 0.63979 0.57427 0.0
C184 C 0.62703 0.63948 0.54799 0.0
C185 C 0.62958 0.60047 0.53713 0.0
H186 H 0.64766 0.42149 0.55956 0.0
C187 C 0.63113 0.60367 0.58292 0.0
C188 C 0.63365 0.58034 0.56134 0.0
H189 H 0.61496 0.45544 0.48726 0.0
H190 H 0.62536 0.52382 0.50778 0.0
H191 H 0.75049 0.53485 0.58142 0.0
H192 H 0.55516 0.42505 0.58988 0.0
H193 H 0.58905 0.4524 0.62013 0.0
H194 H 0.60642 0.41833 0.60273 0.0
H195 H 0.71527 0.48422 0.60285 0.0
H196 H 0.73617 0.54385 0.61262 0.0
C197 C 0.68797 0.62756 0.52122 0.0
C198 C 0.56936 0.55939 0.52186 0.0
C199 C 0.63571 0.58326 0.67755 0.0
C200 C 0.64526 0.55572 0.69151 0.0
C201 C 0.66015 0.52923 0.6787 0.0
C202 C 0.66263 0.52824 0.65207 0.0
C203 C 0.6502 0.55412 0.63821 0.0
C204 C 0.63917 0.58244 0.65102 0.0
C205 C 0.63124 0.61032 0.6333 0.0
C206 C 0.63664 0.59227 0.60767 0.0
C207 C 0.64658 0.5587 0.61064 0.0
C208 C 0.68448 0.66797 0.63865 0.0
C209 C 0.56639 0.59199 0.637 0.0
C210 C 0.64224 0.44327 0.54806 0.0
C211 C 0.62943 0.4323 0.52179 0.0
C212 C 0.6248 0.46292 0.50753 0.0
C213 C 0.63012 0.50223 0.51951 0.0
C214 C 0.63964 0.51071 0.54605 0.0
C215 C 0.64604 0.48164 0.55977 0.0
C216 C 0.65259 0.49364 0.5879 0.0
C217 C 0.64754 0.53393 0.58896 0.0
C218 C 0.64064 0.54431 0.56441 0.0
C219 C 0.71667 0.51495 0.59688 0.0
C220 C 0.59839 0.445 0.60106 0.0
H221 H 0.61799 0.67351 0.60809 0.0
H222 H 0.62832 0.6724 0.51378 0.0
H223 H 0.53084 0.55582 0.52949 0.0
H224 H 0.5539 0.52116 0.52317 0.0
H225 H 0.5741 0.56859 0.50151 0.0
H226 H 0.72813 0.66201 0.53181 0.0
H227 H 0.68294 0.63949 0.50296 0.0
H228 H 0.69965 0.60381 0.51696 0.0
H229 H 0.62514 0.60455 0.68709 0.0
H230 H 0.66766 0.5078 0.68926 0.0
H231 H 0.67278 0.50647 0.64329 0.0
H232 H 0.72557 0.67611 0.64674 0.0
H233 H 0.67107 0.68376 0.65246 0.0
H234 H 0.70096 0.68974 0.62117 0.0
H235 H 0.5325 0.55061 0.64006 0.0
H236 H 0.5488 0.59711 0.62018 0.0
H237 H 0.56548 0.6116 0.65383 0.0
H238 H 0.61611 0.73023 0.58527 0.0
C239 C 0.62019 0.67196 0.58777 0.0
C240 C 0.26186 0.53956 0.84522 0.0
C241 C 0.30312 0.53767 0.86005 0.0
C242 C 0.29502 0.53623 0.88646 0.0
C243 C 0.21011 0.53639 0.8837 0.0
C244 C 0.21514 0.53878 0.85761 0.0
C245 C 0.16488 0.53986 0.84718 0.0
H246 H 0.90416 0.51405 0.88765 0.0
C247 C 0.15809 0.53381 0.89219 0.0
C248 C 0.12903 0.53595 0.87115 0.0
H249 H 0.97528 0.56253 0.81276 0.0
H250 H 1.05715 0.55954 0.8228 0.0
H251 H 0.91967 0.43545 0.89468 0.0
H252 H 1.02666 0.59387 0.91069 0.0
H253 H 1.04532 0.57591 0.93623 0.0
H254 H 0.96679 0.54747 0.93113 0.0
H255 H 0.90406 0.46043 0.92035 0.0
H256 H 0.95271 0.44599 0.92469 0.0
C257 C 0.12104 0.49465 0.82846 0.0
C258 C 0.1963 0.58989 0.83423 0.0
C259 C 0.12102 0.5221 0.98807 0.0
C260 C 1.0757 0.51549 0.00296 0.0
C261 C 1.02732 0.50771 0.99044 0.0
C262 C 1.02459 0.50753 0.96396 0.0
C263 C 1.07139 0.51637 0.94925 0.0
C264 C 0.11761 0.52216 0.96135 0.0
C265 C 0.16105 0.52792 0.9426 0.0
C266 C 0.13557 0.52795 0.91726 0.0
C267 C 1.08337 0.52161 0.9214 0.0
C268 C 0.15511 0.48072 0.94447 0.0
C269 C 0.22574 0.57968 0.9489 0.0
C270 C 0.93556 0.5231 0.87271 0.0
C271 C 0.9295 0.5373 0.84917 0.0
C272 C 0.976 0.55078 0.83135 0.0
C273 C 1.02388 0.54884 0.83709 0.0
C274 C 1.02849 0.5345 0.86136 0.0
C275 C 0.98404 0.52346 0.87833 0.0
C276 C 0.99631 0.51697 0.9043 0.0
C277 C 1.05325 0.52364 0.90108 0.0
C278 C 1.07477 0.53251 0.87562 0.0
C279 C 0.94037 0.46214 0.91164 0.0
C280 C 1.00902 0.56025 0.92166 0.0
H281 H 0.25072 0.53547 0.91819 0.0
H282 H 0.26521 0.54086 0.82472 0.0
H283 H 0.22809 0.62251 0.84785 0.0
H284 H 0.16193 0.59187 0.82735 0.0
H285 H 0.22302 0.59354 0.81773 0.0
H286 H 0.09867 0.45854 0.83791 0.0
H287 H 0.14618 0.4965 0.81179 0.0
H288 H 1.08478 0.4944 0.82156 0.0
H289 H 0.15829 0.52712 -0.00307 0.0
H290 H 0.99203 0.50318 0.00114 0.0
H291 H 0.9862 0.50141 0.95625 0.0
H292 H 0.1103 0.44797 0.95225 0.0
H293 H 0.19137 0.48888 0.95708 0.0
H294 H 0.15632 0.4662 0.92563 0.0
H295 H 0.22293 0.60836 0.95601 0.0
H296 H 0.2551 0.59659 0.93207 0.0
H297 H 0.24947 0.57631 0.96386 0.0
H298 H 0.3239 0.53529 0.89881 0.0
C299 C 0.25088 0.536 0.89794 0.0
C300 C 1.00619 0.43121 0.46993 0.0
C301 C 0.9583 0.38343 0.45774 0.0
C302 C 0.95494 0.37944 0.43106 0.0
C303 C 1.04336 0.46877 0.42854 0.0
C304 C 1.04856 0.47372 0.4548 0.0
C305 C 0.10301 0.52833 0.46341 0.0
H306 H 0.33089 0.77349 0.42503 0.0
C307 C 0.09138 0.51883 0.41785 0.0
C308 C 0.12722 0.55489 0.43803 0.0
H309 H 0.30221 0.72702 0.50238 0.0
H310 H 0.21634 0.639 0.48801 0.0
H311 H 0.32185 0.68699 0.40227 0.0
H312 H 0.19416 0.70965 0.40913 0.0
H313 H 0.1788 0.67979 0.37905 0.0
H314 H 0.25358 0.74052 0.3861 0.0
H315 H 0.32248 0.72675 0.38164 0.0
H316 H 0.27819 0.66022 0.374 0.0
C317 C 0.15012 0.529 0.47716 0.0
C318 C 1.08012 0.54944 0.48035 0.0
C319 C 0.09927 0.53197 0.32152 0.0
C320 C 0.13678 0.5731 0.30558 0.0
C321 C 0.18094 0.62218 0.31667 0.0
C322 C 0.1885 0.63013 0.3431 0.0
C323 C 0.15166 0.5886 0.35883 0.0
C324 C 0.10746 0.54067 0.34799 0.0
C325 C 1.07187 0.50137 0.3677 0.0
C326 C 0.10312 0.53358 0.39219 0.0
C327 C 0.14978 0.58435 0.38678 0.0
C328 C 1.0819 0.46332 0.36343 0.0
C329 C 1.00417 0.47772 0.36551 0.0
C330 C 0.30611 0.74471 0.43908 0.0
C331 C 0.32299 0.75761 0.46484 0.0
C332 C 0.2901 0.71825 0.48231 0.0
C333 C 0.2403 0.66729 0.47397 0.0
C334 C 0.22388 0.65541 0.44784 0.0
C335 C 0.25779 0.69446 0.43112 0.0
C336 C 0.23813 0.67705 0.40404 0.0
C337 C 0.18629 0.62102 0.40671 0.0
C338 C 0.17642 0.60723 0.43237 0.0
C339 C 0.29274 0.68847 0.38953 0.0
C340 C 0.21531 0.70315 0.39381 0.0
H341 H 0.99065 0.41494 0.39633 0.0
H342 H 1.00993 0.43536 0.49049 0.0
H343 H 1.0422 0.54388 0.47056 0.0
H344 H 0.11649 0.59041 0.48476 0.0
H345 H 1.06281 0.52979 0.49859 0.0
H346 H 0.15968 0.50784 0.4655 0.0
H347 H 0.1326 0.51093 0.49579 0.0
H348 H 0.19431 0.56773 0.48048 0.0
H349 H 1.0644 0.49382 0.31359 0.0
H350 H 0.21101 0.65446 0.30487 0.0
H351 H 0.2235 0.66841 0.35016 0.0
H352 H 0.12921 0.48291 0.35701 0.0
H353 H 1.04975 0.43366 0.34864 0.0
H354 H 1.07753 0.44498 0.38099 0.0
H355 H 1.00043 0.50442 0.35742 0.0
H356 H 0.98209 0.46899 0.38421 0.0
H357 H 0.97668 0.44283 0.35297 0.0
H358 H 0.91897 0.3434 0.42132 0.0
C359 C 0.99679 0.42135 0.41653 0.0
C360 C 0.64942 0.94886 0.78599 0.0
C361 C 0.65725 0.91854 0.7718 0.0
C362 C 0.66418 0.92359 0.74524 0.0
C363 C 0.65334 0.98634 0.74717 0.0
C364 C 0.64751 0.98242 0.77327 0.0
C365 C 0.63858 1.01712 0.78502 0.0
H366 H 0.62315 0.20017 0.76769 0.0
C367 C 0.64885 0.02385 0.73957 0.0
C368 C 0.64059 0.04255 0.76167 0.0
H369 H 0.60341 0.13299 0.83844 0.0
H370 H 0.61683 0.07856 0.81642 0.0
H371 H 0.73189 0.20666 0.74386 0.0
H372 H 0.53597 0.10027 0.7378 0.0
H373 H 0.55998 0.09473 0.70828 0.0
H374 H 0.58154 0.1544 0.71848 0.0
H375 H 0.688 0.21826 0.72795 0.0
H376 H 0.71198 0.18809 0.71148 0.0
C377 C 0.69261 0.05535 0.80372 0.0
C378 C 0.5752 0.9842 0.79756 0.0
C379 C 0.65313 0.05607 0.64553 0.0
C380 C 0.64533 0.08599 0.63282 0.0
C381 C 0.64053 0.11795 0.64705 0.0
C382 C 0.6423 0.11954 0.67366 0.0
C383 C 0.64792 0.08818 0.68626 0.0
C384 C 0.65366 0.0574 0.67226 0.0
C385 C 0.65689 0.0254 0.68903 0.0
C386 C 0.65104 0.04148 0.71531 0.0
C387 C 0.64618 0.07838 0.71349 0.0
C388 C 0.72024 0.04072 0.68555 0.0
C389 C 0.60149 0.96901 0.68208 0.0
C390 C 0.6226 0.17422 0.7785 0.0
C391 C 0.61343 0.17137 0.8048 0.0
C392 C 0.61091 0.13598 0.81813 0.0
C393 C 0.61873 0.10455 0.80531 0.0
C394 C 0.628 0.10799 0.77884 0.0
C395 C 0.62896 0.14212 0.76598 0.0
C396 C 0.6346 0.13871 0.73781 0.0
C397 C 0.63902 0.0981 0.73572 0.0
C398 C 0.63564 0.08018 0.75974 0.0
C399 C 0.69444 0.19059 0.72961 0.0
C400 C 0.5754 0.1215 0.72474 0.0
H401 H 0.66778 0.95881 0.71273 0.0
H402 H 0.6439 0.94594 0.8064 0.0
H403 H 0.54076 0.94914 0.78568 0.0
H404 H 0.55678 1.00337 0.79943 0.0
H405 H 0.5771 0.9727 0.81662 0.0
H406 H 0.73665 0.07051 0.79504 0.0
H407 H 0.68765 0.03699 0.82151 0.0
H408 H 0.69739 0.08859 0.80873 0.0
H409 H 0.65622 0.03078 0.63492 0.0
H410 H 0.6346 0.14129 0.63749 0.0
H411 H 0.63818 0.14457 0.68333 0.0
H412 H 0.75583 0.08141 0.68124 0.0
H413 H 0.71896 1.0183 0.66963 0.0
H414 H 0.73748 0.03682 0.70301 0.0
H415 H 0.56016 0.9637 0.67759 0.0
H416 H 0.58774 0.94374 0.69783 0.0
H417 H 0.61095 0.95539 0.66513 0.0
H418 H 0.67174 0.90181 0.73387 0.0
C419 C 0.66231 0.95712 0.73294 0.0
C420 C 0.55064 0.35861 0.11789 0.0
C421 C 0.60226 0.3629 0.11937 0.0
C422 C 0.61429 0.34313 0.09908 0.0
C423 C 0.53389 0.32732 0.07432 0.0
C424 C 0.51613 0.33949 0.09511 0.0
C425 C 0.45703 0.32795 0.0897 0.0
H426 H 0.3181 0.35212 0.00197 0.0
C427 C 0.4945 0.31415 0.05274 0.0
C428 C 0.44656 0.31121 0.06141 0.0
H429 H 0.29734 0.34722 0.08326 0.0
H430 H 0.34185 0.30842 0.08644 0.0
H431 H 0.46836 0.38689 0.99241 0.0
H432 H 0.299 0.27309 0.97613 0.0
H433 H 0.29302 0.23353 -0.00078 0.0
H434 H 0.33995 0.25147 0.97226 0.0
H435 H 0.40525 0.38159 0.98408 0.0
H436 H 0.4192 0.34879 0.96489 0.0
C437 C 0.46679 0.37682 0.09488 0.0
C438 C 0.40719 0.28358 0.10626 0.0
C439 C 0.59281 0.39785 0.97067 0.0
C440 C 0.56476 0.39323 0.94767 0.0
C441 C 0.50542 0.34723 0.9413 0.0
C442 C 0.46983 0.31171 0.95985 0.0
C443 C 0.49434 0.32372 0.98444 0.0
C444 C 0.55626 0.36102 0.98879 0.0
C445 C 0.573 0.36018 0.01564 0.0
C446 C 0.5089 0.32018 0.02669 0.0
C447 C 0.46397 0.30586 0.0088 0.0
C448 C 0.60829 0.41276 0.0292 0.0
C449 C 0.61172 0.34451 0.01468 0.0
C450 C 0.32404 0.34293 0.02037 0.0
C451 C 0.30715 0.35438 0.0424 0.0
C452 C 0.31146 0.33956 0.06609 0.0
C453 C 0.33886 0.31868 0.06806 0.0
C454 C 0.36364 0.31429 0.04633 0.0
C455 C 0.35285 0.32321 0.02275 0.0
C456 C 0.3791 0.3128 0.00169 0.0
C457 C 0.41437 0.30243 0.01704 0.0
C458 C 0.40543 0.30446 0.04333 0.0
C459 C 0.4204 0.35984 0.985 0.0
C460 C 0.32496 0.26514 0.98639 0.0
H461 H 0.5866 0.30707 0.06167 0.0
H462 H 0.53867 0.37104 0.13376 0.0
H463 H 0.41221 0.25484 0.10687 0.0
H464 H 0.36048 0.26289 0.09861 0.0
H465 H 0.41054 0.29732 0.12613 0.0
H466 H 0.47028 0.39407 0.0769 0.0
H467 H 0.50958 0.40673 0.10592 0.0
H468 H 0.42965 0.36959 0.10633 0.0
H469 H 0.63934 0.43169 0.97544 0.0
H470 H 0.4841 0.34179 0.92316 0.0
H471 H 0.42311 0.27859 0.95545 0.0
H472 H 0.58077 0.42441 0.02897 0.0
H473 H 0.65245 0.4419 0.01984 0.0
H474 H 0.61926 0.41255 0.04929 0.0
H475 H 0.64295 0.36096 -0.00177 0.0
H476 H 0.58216 0.30267 0.01281 0.0
H477 H 0.64215 0.35928 0.03168 0.0
H478 H 0.65243 0.34429 0.10024 0.0
C479 C 0.57911 0.32426 0.07659 0.0
C480 C 0.23707 0.41251 0.05505 0.0
C481 C 0.28814 0.464 0.05206 0.0
H482 H 0.20337 0.33674 0.05455 0.0
C483 C 0.34177 0.47762 0.04184 0.0
H484 H 0.19556 0.40119 0.06336 0.0
C485 C 0.34561 0.44057 0.03637 0.0
C486 C 0.29642 0.38978 0.04163 0.0
H487 H 0.38182 0.51709 0.0397 0.0
H488 H 0.38869 0.45212 0.03001 0.0
C489 C 0.24147 0.37567 0.0502 0.0
C490 C 0.86505 0.25181 0.48309 0.0
C491 C 0.80518 0.234 0.4813 0.0
H492 H 0.96118 0.31385 0.47756 0.0
C493 C 0.7985 0.26921 0.47602 0.0
H494 H 0.87222 0.22598 0.48701 0.0
C495 C 0.84956 0.31964 0.47107 0.0
C496 C 0.90897 0.33664 0.47134 0.0
H497 H 0.75344 0.25734 0.47457 0.0
H498 H 0.8422 0.34461 0.46535 0.0
C499 C 0.91626 0.30241 0.47798 0.0
C500 C 0.6363 0.80141 0.78171 0.0
C501 C 0.67177 0.81508 0.80385 0.0
H502 H 0.60277 0.82247 0.75473 0.0
C503 C 0.69886 0.8619 0.81651 0.0
H504 H 0.61516 0.76605 0.77124 0.0
C505 C 0.69234 0.89481 0.80676 0.0
C506 C 0.6588 0.88176 0.78406 0.0
H507 H 0.72577 0.87344 0.83381 0.0
H508 H 0.71539 0.9312 0.81648 0.0
C509 C 0.62978 0.83416 0.77203 0.0
C510 C 0.73578 0.47846 0.1556 0.0
C511 C 0.76193 0.45999 0.16588 0.0
H512 H 0.66261 0.46089 0.13292 0.0
C513 C 0.72688 0.40729 0.16603 0.0
H514 H 0.76153 0.51877 0.15515 0.0
C515 C 0.6709 0.37434 0.15286 0.0
C516 C 0.64841 0.39351 0.13999 0.0
H517 H 0.7452 0.39186 0.17439 0.0
H518 H 0.64757 0.33442 0.15107 0.0
C519 C 0.67914 0.44531 0.14282 0.0
C520 C 0.47993 0.88096 0.48765 0.0
C521 C 0.48042 0.91778 0.47735 0.0
H522 H 0.42956 0.80147 0.49231 0.0
C523 C 0.42634 0.90108 0.46547 0.0
H524 H 0.52049 0.89222 0.49708 0.0
C525 C 0.37453 0.84941 0.46292 0.0
C526 C 0.37461 0.8124 0.47225 0.0
H527 H 0.42427 0.92789 0.45748 0.0
H528 H 0.3346 0.83816 0.45286 0.0
C529 C 0.42758 0.82889 0.48518 0.0
C530 C 0.53747 0.21545 0.8371 0.0
C531 C 0.58068 0.26801 0.83351 0.0
H532 H 0.5145 0.14367 0.83118 0.0
C533 C 0.63749 0.28859 0.82312 0.0
H534 H 0.49303 0.19796 0.8448 0.0
C535 C 0.64912 0.25729 0.81498 0.0
C536 C 0.60487 0.20473 0.81752 0.0
H537 H 0.67271 0.32891 0.82069 0.0
H538 H 0.69221 0.27403 0.80603 0.0
C539 C 0.54962 0.18419 0.8293 0.0
C540 C 0.59737 0.79558 0.53349 0.0
C541 C 0.64884 0.83119 0.51893 0.0
H542 H 0.54785 0.72715 0.55362 0.0
C543 C 0.68623 0.82097 0.5108 0.0
H544 H 0.56684 0.80171 0.53953 0.0
C545 C 0.67484 0.77787 0.51864 0.0
C546 C 0.62609 0.74447 0.53481 0.0
H547 H 0.72641 0.84774 0.49967 0.0
H548 H 0.70652 0.77253 0.51346 0.0
C549 C 0.58623 0.75275 0.54141 0.0
C550 C 0.76706 0.50069 0.85301 0.0
C551 C 0.77439 0.54105 0.84242 0.0
H552 H 0.80585 0.46764 0.86342 0.0
C553 C 0.83425 0.57964 0.83282 0.0
H554 H 0.72322 0.46967 0.86078 0.0
C555 C 0.88275 0.57786 0.83379 0.0
C556 C 0.87564 0.53793 0.845 0.0
H557 H 0.84403 0.61184 0.82437 0.0
H558 H 0.92688 0.60905 0.82633 0.0
C559 C 0.81571 0.49954 0.85454 0.0
C560 C 0.34277 0.74767 0.14334 0.0
C561 C 0.28516 0.72799 0.15253 0.0
H562 H 0.43865 0.81328 0.14016 0.0
C563 C 0.28084 0.76243 0.16404 0.0
H564 H 0.34818 0.72261 0.13433 0.0
C565 C 0.33258 0.81409 0.16741 0.0
C566 C 0.39047 0.83351 0.15908 0.0
H567 H 0.23772 0.74928 0.17137 0.0
H568 H 0.3277 0.83883 0.17736 0.0
C569 C 0.39467 0.7998 0.14646 0.0
C570 C 0.6298 0.34631 0.47535 0.0
C571 C 0.6007 0.30305 0.48965 0.0
H572 H 0.66311 0.42185 0.47447 0.0
C573 C 0.57848 0.30163 0.51371 0.0
H574 H 0.6473 0.34818 0.45672 0.0
C575 C 0.58649 0.34302 0.52365 0.0
C576 C 0.61793 0.3874 0.50998 0.0
H577 H 0.55482 0.26831 0.52489 0.0
H578 H 0.56803 0.34015 0.54217 0.0
C579 C 0.63865 0.38831 0.48549 0.0
C580 C 0.39825 0.49324 0.85401 0.0
C581 C 0.45847 0.5362 0.8469 0.0
H582 H 0.30528 0.45938 0.86296 0.0
C583 C 0.46417 0.57876 0.84149 0.0
H584 H 0.38936 0.45917 0.85862 0.0
C585 C 0.41403 0.57851 0.84358 0.0
C586 C 0.35393 0.53551 0.851 0.0
H587 H 0.50835 0.61335 0.83607 0.0
H588 H 0.42336 0.61325 0.84031 0.0
C589 C 0.34855 0.49313 0.85621 0.0
C590 C 0.9746 0.37166 0.15148 0.0
C591 C 0.9737 0.41025 0.15886 0.0
H592 H 0.92793 0.29209 0.15187 0.0
C593 C 0.91942 0.3956 0.16927 0.0
H594 H 1.0154 0.38129 0.14339 0.0
C595 C 0.86914 0.34464 0.17351 0.0
C596 C 0.87117 0.30636 0.16758 0.0
H597 H 0.91632 0.42375 0.17507 0.0
H598 H 0.82975 0.33541 0.18299 0.0
C599 C 0.9241 0.32036 0.15599 0.0
C600 C 0.13698 0.56389 0.07084 0.0
C601 C 1.08253 0.53585 0.08459 0.0
H602 H 0.17772 0.57973 0.03419 0.0
C603 C 1.02687 0.49754 0.07183 0.0
H604 H 0.18062 0.59348 0.08033 0.0
C605 C 1.02524 0.48886 0.04557 0.0
C606 C 1.07916 0.51899 0.03136 0.0
H607 H 0.98436 0.47483 0.08208 0.0
H608 H 0.98132 0.4593 0.03631 0.0
C609 C 0.13533 0.55568 0.04445 0.0
C610 C 0.60313 0.05046 0.40021 0.0
C611 C 0.66143 0.07384 0.41018 0.0
H612 H 0.54808 0.02888 0.36674 0.0
C613 C 0.71037 0.0953 0.39354 0.0
H614 H 0.56468 0.03386 0.41267 0.0
C615 C 0.70091 0.09235 0.3673 0.0
C616 C 0.64227 0.06782 0.35717 0.0
H617 H 0.75581 0.1136 0.40077 0.0
H618 H 0.73924 0.10802 0.3549 0.0
C619 C 0.5936 0.04738 0.37393 0.0
C620 C 0.66876 0.55676 0.76219 0.0
C621 C 0.61043 0.53449 0.77118 0.0
H622 H 0.72528 0.58016 0.72942 0.0
C623 C 0.56521 0.52228 0.75414 0.0
H624 H 0.70425 0.56629 0.77505 0.0
C625 C 0.57761 0.53116 0.72833 0.0
C626 C 0.63498 0.5513 0.71912 0.0
H627 H 0.51996 0.50514 0.76072 0.0
H628 H 0.54166 0.52054 0.71539 0.0
C629 C 0.68071 0.56447 0.73622 0.0
C630 C 0.57463 0.06237 0.56804 0.0
C631 C 0.62268 0.07846 0.55178 0.0
H632 H 0.54475 0.0526 0.6065 0.0
C633 C 0.67804 0.09546 0.56232 0.0
H634 H 0.53143 0.04902 0.56047 0.0
C635 C 0.68511 0.09645 0.58873 0.0
C636 C 0.63741 0.08157 0.60489 0.0
H637 H 0.71601 0.10858 0.55023 0.0
H638 H 0.72827 0.11018 0.59659 0.0
C639 C 0.58213 0.06434 0.59433 0.0
C640 C 0.66841 0.51462 0.91154 0.0
C641 C 0.62759 0.52227 0.90649 0.0
H642 H 0.6801 0.46646 0.92841 0.0
C643 C 0.56892 0.49 0.91659 0.0
H644 H 0.71375 0.53889 0.9036 0.0
C645 C 0.54971 0.4488 0.9302 0.0
C646 C 0.58867 0.4388 0.93394 0.0
H647 H 0.53678 0.49523 0.91288 0.0
H648 H 0.50362 0.42403 0.93739 0.0
C649 C 0.64902 0.473 0.92534 0.0
C650 C 0.13068 0.52123 0.24004 0.0
C651 C 0.13784 0.55612 0.22431 0.0
H652 H 0.12474 0.49928 0.27813 0.0
C653 C 0.14013 0.59442 0.23524 0.0
H654 H 0.12851 0.49119 0.23201 0.0
C655 C 0.13762 0.59892 0.26162 0.0
C656 C 0.13266 0.56511 0.27751 0.0
H657 H 0.14548 0.6217 0.22348 0.0
H658 H 0.14051 0.62934 0.26962 0.0
C659 C 0.12802 0.52563 0.2664 0.0
loop_
_geom_bond_atom_site_label_1
_geom_bond_atom_site_label_2
_geom_bond_distance
_geom_bond_site_symmetry_2
_ccdc_geom_bond_type
La0 C2 2.928 . S
La0 O20 2.521 . S
La0 O21 2.628 . S
La0 O22 2.554 . S
La0 O23 2.757 . S
La0 O24 2.470 . S
La0 O29 2.482 . S
La0 O31 2.503 1_455 S
La1 C11 2.928 . S
La1 O23 2.482 1_655 S
La1 O25 2.503 1_655 S
La1 O26 2.521 . S
La1 O27 2.628 . S
La1 O28 2.554 . S
La1 O29 2.757 1_655 S
La1 O30 2.470 . S
C2 La0 2.928 . S
C2 C3 1.503 . S
C2 O20 1.261 . S
C2 O21 1.243 . S
C3 C2 1.503 . S
C3 C4 1.394 . S
C3 C8 1.373 . S
C4 C3 1.394 . S
C4 C5 1.380 . S
C4 H32 0.930 . S
C5 C4 1.380 . S
C5 C6 1.376 . S
C5 H33 0.930 . S
C6 C5 1.376 . S
C6 C7 1.370 . S
C7 C6 1.370 . S
C7 C8 1.396 . S
C7 H34 0.929 . S
C8 C3 1.373 . S
C8 C7 1.396 . S
C8 H35 0.929 . S
C9 O22 1.240 . S
C9 O23 1.289 . S
C10 O24 1.258 . S
C10 O25 1.256 . S
C11 La1 2.928 . S
C11 C12 1.503 . S
C11 O26 1.261 . S
C11 O27 1.243 . S
C12 C11 1.503 . S
C12 C13 1.394 . S
C12 C17 1.373 . S
C13 C12 1.394 . S
C13 C14 1.380 . S
C13 H36 0.930 . S
C14 C13 1.380 . S
C14 C15 1.376 . S
C14 H37 0.930 . S
C15 C14 1.376 . S
C15 C16 1.370 . S
C16 C15 1.370 . S
C16 C17 1.396 . S
C16 H38 0.929 . S
C17 C12 1.373 . S
C17 C16 1.396 . S
C17 H39 0.929 . S
C18 O28 1.240 1_455 S
C18 O29 1.289 . S
C19 O30 1.258 . S
C19 O31 1.256 . S
O20 La0 2.521 . S
O20 C2 1.261 . S
O21 La0 2.628 . S
O21 C2 1.243 . S
O22 La0 2.554 . S
O22 C9 1.240 . S
O23 La0 2.757 . S
O23 La1 2.482 1_455 S
O23 C9 1.289 . S
O24 La0 2.470 . S
O24 C10 1.258 . S
O25 La1 2.503 1_455 S
O25 C10 1.256 . S
O26 La1 2.521 . S
O26 C11 1.261 . S
O27 La1 2.628 . S
O27 C11 1.243 . S
O28 La1 2.554 . S
O28 C18 1.240 1_655 S
O29 La0 2.482 . S
O29 La1 2.757 1_455 S
O29 C18 1.289 . S
O30 La1 2.470 . S
O30 C19 1.258 . S
O31 La0 2.503 1_655 S
O31 C19 1.256 . S
H32 C4 0.930 . S
H33 C5 0.930 . S
H34 C7 0.929 . S
H35 C8 0.929 . S
H36 C13 0.930 . S
H37 C14 0.930 . S
H38 C16 0.929 . S
H39 C17 0.929 . S
La40 C42 2.928 . S
La40 O60 2.521 . S
La40 O61 2.628 . S
La40 O62 2.554 . S
La40 O63 2.757 1_565 S
La40 O64 2.470 . S
La40 O69 2.482 . S
La40 O71 2.503 1_565 S
La41 C51 2.928 . S
La41 O63 2.482 . S
La41 O65 2.503 1_545 S
La41 O66 2.521 . S
La41 O67 2.628 . S
La41 O68 2.554 . S
La41 O69 2.757 1_545 S
La41 O70 2.470 . S
C42 La40 2.928 . S
C42 C43 1.503 . S
C42 O60 1.261 . S
C42 O61 1.243 . S
C43 C42 1.503 . S
C43 C44 1.394 . S
C43 C48 1.373 . S
C44 C43 1.394 . S
C44 C45 1.380 . S
C44 H72 0.930 . S
C45 C44 1.380 . S
C45 C46 1.376 . S
C45 H73 0.930 . S
C46 C45 1.376 . S
C46 C47 1.370 . S
C47 C46 1.370 . S
C47 C48 1.396 . S
C47 H74 0.929 . S
C48 C43 1.373 . S
C48 C47 1.396 . S
C48 H75 0.929 . S
C49 O62 1.240 1_545 S
C49 O63 1.289 . S
C50 O64 1.258 . S
C50 O65 1.256 . S
C51 La41 2.928 . S
C51 C52 1.503 . S
C51 O66 1.261 . S
C51 O67 1.243 . S
C52 C51 1.503 . S
C52 C53 1.394 . S
C52 C57 1.373 . S
C53 C52 1.394 . S
C53 C54 1.380 . S
C53 H76 0.930 . S
C54 C53 1.380 . S
C54 C55 1.376 . S
C54 H77 0.930 . S
C55 C54 1.376 . S
C55 C56 1.370 . S
C56 C55 1.370 . S
C56 C57 1.396 . S
C56 H78 0.929 . S
C57 C52 1.373 . S
C57 C56 1.396 . S
C57 H79 0.929 . S
C58 O68 1.240 . S
C58 O69 1.289 1_545 S
C59 O70 1.258 . S
C59 O71 1.256 . S
O60 La40 2.521 . S
O60 C42 1.261 . S
O61 La40 2.628 . S
O61 C42 1.243 . S
O62 La40 2.554 . S
O62 C49 1.240 1_565 S
O63 La40 2.757 1_545 S
O63 La41 2.482 . S
O63 C49 1.289 . S
O64 La40 2.470 . S
O64 C50 1.258 . S
O65 La41 2.503 1_565 S
O65 C50 1.256 . S
O66 La41 2.521 . S
O66 C51 1.261 . S
O67 La41 2.628 . S
O67 C51 1.243 . S
O68 La41 2.554 . S
O68 C58 1.240 . S
O69 La40 2.482 . S
O69 La41 2.757 1_565 S
O69 C58 1.289 1_565 S
O70 La41 2.470 . S
O70 C59 1.258 . S
O71 La40 2.503 1_545 S
O71 C59 1.256 . S
H72 C44 0.930 . S
H73 C45 0.930 . S
H74 C47 0.929 . S
H75 C48 0.929 . S
H76 C53 0.930 . S
H77 C54 0.930 . S
H78 C56 0.929 . S
H79 C57 0.929 . S
La80 C82 2.928 . S
La80 O100 2.521 . S
La80 O101 2.628 . S
La80 O102 2.554 . S
La80 O103 2.757 . S
La80 O104 2.470 . S
La80 O109 2.482 . S
La80 O111 2.503 . S
La81 C91 2.928 . S
La81 O103 2.482 . S
La81 O105 2.503 . S
La81 O106 2.521 . S
La81 O107 2.628 . S
La81 O108 2.554 . S
La81 O109 2.757 . S
La81 O110 2.470 . S
C82 La80 2.928 . S
C82 C83 1.503 . S
C82 O100 1.261 . S
C82 O101 1.243 . S
C83 C82 1.503 . S
C83 C84 1.394 . S
C83 C88 1.373 . S
C84 C83 1.394 . S
C84 C85 1.380 . S
C84 H112 0.930 . S
C85 C84 1.380 . S
C85 C86 1.376 . S
C85 H113 0.930 . S
C86 C85 1.376 . S
C86 C87 1.370 . S
C87 C86 1.370 . S
C87 C88 1.396 . S
C87 H114 0.929 . S
C88 C83 1.373 . S
C88 C87 1.396 . S
C88 H115 0.929 . S
C89 O102 1.240 . S
C89 O103 1.289 . S
C90 O104 1.258 . S
C90 O105 1.256 . S
C91 La81 2.928 . S
C91 C92 1.503 . S
C91 O106 1.261 . S
C91 O107 1.243 . S
C92 C91 1.503 . S
C92 C93 1.394 . S
C92 C97 1.373 . S
C93 C92 1.394 . S
C93 C94 1.380 . S
C93 H116 0.930 . S
C94 C93 1.380 . S
C94 C95 1.376 . S
C94 H117 0.930 . S
C95 C94 1.376 . S
C95 C96 1.370 . S
C96 C95 1.370 . S
C96 C97 1.396 . S
C96 H118 0.929 . S
C97 C92 1.373 . S
C97 C96 1.396 . S
C97 H119 0.929 . S
C98 O108 1.240 . S
C98 O109 1.289 . S
C99 O110 1.258 . S
C99 O111 1.256 . S
O100 La80 2.521 . S
O100 C82 1.261 . S
O101 La80 2.628 . S
O101 C82 1.243 . S
O102 La80 2.554 . S
O102 C89 1.240 . S
O103 La80 2.757 . S
O103 La81 2.482 . S
O103 C89 1.289 . S
O104 La80 2.470 . S
O104 C90 1.258 . S
O105 La81 2.503 . S
O105 C90 1.256 . S
O106 La81 2.521 . S
O106 C91 1.261 . S
O107 La81 2.628 . S
O107 C91 1.243 . S
O108 La81 2.554 . S
O108 C98 1.240 . S
O109 La80 2.482 . S
O109 La81 2.757 . S
O109 C98 1.289 . S
O110 La81 2.470 . S
O110 C99 1.258 . S
O111 La80 2.503 . S
O111 C99 1.256 . S
H112 C84 0.930 . S
H113 C85 0.930 . S
H114 C87 0.929 . S
H115 C88 0.929 . S
H116 C93 0.930 . S
H117 C94 0.930 . S
H118 C96 0.929 . S
H119 C97 0.929 . S
C120 C121 1.391 . S
C120 C124 1.391 . S
C120 H162 0.948 . S
C121 C120 1.391 . S
C121 C122 1.391 . S
C122 C121 1.391 . S
C122 H178 0.947 . S
C122 C179 1.392 . S
C123 C124 1.391 . S
C123 C127 1.397 . S
C123 C179 1.419 . S
C124 C120 1.391 . S
C124 C123 1.391 . S
C124 C125 1.399 . S
C125 C124 1.399 . S
C125 C128 1.396 . S
C125 C137 1.453 . S
C125 C138 1.684 . S
H126 C150 0.948 . S
C127 C123 1.397 . S
C127 C128 1.394 . S
C127 C146 1.723 . S
C128 C125 1.396 . S
C128 C127 1.394 . S
C128 C158 1.723 1_545 S
H129 C152 0.947 . S
H130 C153 0.948 . S
H131 C159 0.982 . S
H132 C160 0.979 . S
H133 C160 0.980 . S
H134 C160 0.983 . S
H135 C159 0.979 . S
H136 C159 0.977 . S
C137 C125 1.453 . S
C137 H166 0.982 . S
C137 H167 0.979 . S
C137 H168 0.977 1_545 S
C138 C125 1.684 . S
C138 H163 0.979 . S
C138 H164 0.980 . S
C138 H165 0.983 . S
C139 C140 1.391 . S
C139 C144 1.391 . S
C139 H169 0.948 . S
C140 C139 1.391 . S
C140 C141 1.391 1_545 S
C141 C140 1.391 1_565 S
C141 C142 1.392 . S
C141 H170 0.947 . S
C142 C141 1.392 . S
C142 C143 1.419 1_565 S
C142 H171 0.948 . S
C143 C142 1.419 1_545 S
C143 C144 1.391 . S
C143 C147 1.397 . S
C144 C139 1.391 . S
C144 C143 1.391 . S
C144 C145 1.399 . S
C145 C144 1.399 . S
C145 C146 1.396 . S
C145 C148 1.453 . S
C145 C149 1.684 . S
C146 C127 1.723 . S
C146 C145 1.396 . S
C146 C147 1.394 . S
C147 C143 1.397 . S
C147 C146 1.394 . S
C147 C157 1.723 1_545 S
C148 C145 1.453 . S
C148 H172 0.982 . S
C148 H173 0.979 . S
C148 H174 0.977 . S
C149 C145 1.684 . S
C149 H175 0.979 . S
C149 H176 0.980 . S
C149 H177 0.983 . S
C150 H126 0.948 . S
C150 C151 1.391 . S
C150 C155 1.391 . S
C151 C150 1.391 . S
C151 C152 1.391 . S
C152 H129 0.947 . S
C152 C151 1.391 . S
C152 C153 1.392 . S
C153 H130 0.948 . S
C153 C152 1.392 . S
C153 C154 1.419 . S
C154 C153 1.419 . S
C154 C155 1.391 . S
C154 C158 1.397 . S
C155 C150 1.391 . S
C155 C154 1.391 . S
C155 C156 1.399 . S
C156 C155 1.399 . S
C156 C157 1.396 . S
C156 C159 1.453 . S
C156 C160 1.684 . S
C157 C147 1.723 1_565 S
C157 C156 1.396 . S
C157 C158 1.394 . S
C158 C128 1.723 1_565 S
C158 C154 1.397 . S
C158 C157 1.394 . S
C159 H131 0.982 . S
C159 H135 0.979 . S
C159 H136 0.977 . S
C159 C156 1.453 . S
C160 H132 0.979 . S
C160 H133 0.980 . S
C160 H134 0.983 . S
C160 C156 1.684 . S
H161 C179 0.948 . S
H162 C120 0.948 . S
H163 C138 0.979 . S
H164 C138 0.980 . S
H165 C138 0.983 . S
H166 C137 0.982 . S
H167 C137 0.979 . S
H168 C137 0.977 1_565 S
H169 C139 0.948 . S
H170 C141 0.947 . S
H171 C142 0.948 . S
H172 C148 0.982 . S
H173 C148 0.979 . S
H174 C148 0.977 . S
H175 C149 0.979 . S
H176 C149 0.980 . S
H177 C149 0.983 . S
H178 C122 0.947 . S
C179 C122 1.392 . S
C179 C123 1.419 . S
C179 H161 0.948 . S
C180 C181 1.391 . S
C180 C184 1.391 . S
C180 H222 0.948 . S
C181 C180 1.391 . S
C181 C182 1.391 . S
C182 C181 1.391 . S
C182 H238 0.947 . S
C182 C239 1.392 . S
C183 C184 1.391 . S
C183 C187 1.397 . S
C183 C239 1.419 . S
C184 C180 1.391 . S
C184 C183 1.391 . S
C184 C185 1.399 . S
C185 C184 1.399 . S
C185 C188 1.396 . S
C185 C197 1.453 . S
C185 C198 1.684 . S
H186 C210 0.948 . S
C187 C183 1.397 . S
C187 C188 1.394 . S
C187 C206 1.723 . S
C188 C185 1.396 . S
C188 C187 1.394 . S
C188 C218 1.723 . S
H189 C212 0.947 . S
H190 C213 0.948 . S
H191 C219 0.982 . S
H192 C220 0.979 . S
H193 C220 0.980 . S
H194 C220 0.983 . S
H195 C219 0.979 . S
H196 C219 0.977 . S
C197 C185 1.453 . S
C197 H226 0.982 . S
C197 H227 0.979 . S
C197 H228 0.977 . S
C198 C185 1.684 . S
C198 H223 0.979 . S
C198 H224 0.980 . S
C198 H225 0.983 . S
C199 C200 1.391 . S
C199 C204 1.391 . S
C199 H229 0.948 . S
C200 C199 1.391 . S
C200 C201 1.391 . S
C201 C200 1.391 . S
C201 C202 1.392 . S
C201 H230 0.947 . S
C202 C201 1.392 . S
C202 C203 1.419 . S
C202 H231 0.948 . S
C203 C202 1.419 . S
C203 C204 1.391 . S
C203 C207 1.397 . S
C204 C199 1.391 . S
C204 C203 1.391 . S
C204 C205 1.399 . S
C205 C204 1.399 . S
C205 C206 1.396 . S
C205 C208 1.453 . S
C205 C209 1.684 . S
C206 C187 1.723 . S
C206 C205 1.396 . S
C206 C207 1.394 . S
C207 C203 1.397 . S
C207 C206 1.394 . S
C207 C217 1.723 . S
C208 C205 1.453 . S
C208 H232 0.982 . S
C208 H233 0.979 . S
C208 H234 0.977 . S
C209 C205 1.684 . S
C209 H235 0.979 . S
C209 H236 0.980 . S
C209 H237 0.983 . S
C210 H186 0.948 . S
C210 C211 1.391 . S
C210 C215 1.391 . S
C211 C210 1.391 . S
C211 C212 1.391 . S
C212 H189 0.947 . S
C212 C211 1.391 . S
C212 C213 1.392 . S
C213 H190 0.948 . S
C213 C212 1.392 . S
C213 C214 1.419 . S
C214 C213 1.419 . S
C214 C215 1.391 . S
C214 C218 1.397 . S
C215 C210 1.391 . S
C215 C214 1.391 . S
C215 C216 1.399 . S
C216 C215 1.399 . S
C216 C217 1.396 . S
C216 C219 1.453 . S
C216 C220 1.684 . S
C217 C207 1.723 . S
C217 C216 1.396 . S
C217 C218 1.394 . S
C218 C188 1.723 . S
C218 C214 1.397 . S
C218 C217 1.394 . S
C219 H191 0.982 . S
C219 H195 0.979 . S
C219 H196 0.977 . S
C219 C216 1.453 . S
C220 H192 0.979 . S
C220 H193 0.980 . S
C220 H194 0.983 . S
C220 C216 1.684 . S
H221 C239 0.948 . S
H222 C180 0.948 . S
H223 C198 0.979 . S
H224 C198 0.980 . S
H225 C198 0.983 . S
H226 C197 0.982 . S
H227 C197 0.979 . S
H228 C197 0.977 . S
H229 C199 0.948 . S
H230 C201 0.947 . S
H231 C202 0.948 . S
H232 C208 0.982 . S
H233 C208 0.979 . S
H234 C208 0.977 . S
H235 C209 0.979 . S
H236 C209 0.980 . S
H237 C209 0.983 . S
H238 C182 0.947 . S
C239 C182 1.392 . S
C239 C183 1.419 . S
C239 H221 0.948 . S
C240 C241 1.391 . S
C240 C244 1.391 . S
C240 H282 0.948 . S
C241 C240 1.391 . S
C241 C242 1.391 . S
C242 C241 1.391 . S
C242 H298 0.947 . S
C242 C299 1.392 . S
C243 C244 1.391 . S
C243 C247 1.397 . S
C243 C299 1.419 . S
C244 C240 1.391 . S
C244 C243 1.391 . S
C244 C245 1.399 . S
C245 C244 1.399 . S
C245 C248 1.396 . S
C245 C257 1.453 . S
C245 C258 1.684 . S
H246 C270 0.948 . S
C247 C243 1.397 . S
C247 C248 1.394 . S
C247 C266 1.723 . S
C248 C245 1.396 . S
C248 C247 1.394 . S
C248 C278 1.723 . S
H249 C272 0.947 . S
H250 C273 0.948 1_455 S
H251 C279 0.982 . S
H252 C280 0.979 . S
H253 C280 0.980 . S
H254 C280 0.983 . S
H255 C279 0.979 . S
H256 C279 0.977 . S
C257 C245 1.453 . S
C257 H286 0.982 . S
C257 H287 0.979 . S
C257 H288 0.977 . S
C258 C245 1.684 . S
C258 H283 0.979 . S
C258 H284 0.980 . S
C258 H285 0.983 . S
C259 C260 1.391 . S
C259 C264 1.391 . S
C259 H289 0.948 . S
C260 C259 1.391 . S
C260 C261 1.391 . S
C261 C260 1.391 . S
C261 C262 1.392 . S
C261 H290 0.947 1_455 S
C262 C261 1.392 . S
C262 C263 1.419 . S
C262 H291 0.948 1_455 S
C263 C262 1.419 . S
C263 C264 1.391 . S
C263 C267 1.397 . S
C264 C259 1.391 . S
C264 C263 1.391 . S
C264 C265 1.399 . S
C265 C264 1.399 . S
C265 C266 1.396 . S
C265 C268 1.453 . S
C265 C269 1.684 . S
C266 C247 1.723 . S
C266 C265 1.396 . S
C266 C267 1.394 . S
C267 C263 1.397 . S
C267 C266 1.394 . S
C267 C277 1.725 . S
C268 C265 1.453 . S
C268 H292 0.982 . S
C268 H293 0.979 . S
C268 H294 0.977 . S
C269 C265 1.684 . S
C269 H295 0.979 . S
C269 H296 0.980 . S
C269 H297 0.983 . S
C270 H246 0.948 . S
C270 C271 1.391 . S
C270 C275 1.391 . S
C271 C270 1.391 . S
C271 C272 1.391 . S
C272 H249 0.947 . S
C272 C271 1.391 . S
C272 C273 1.392 . S
C273 H250 0.948 1_655 S
C273 C272 1.392 . S
C273 C274 1.419 . S
C274 C273 1.419 . S
C274 C275 1.391 . S
C274 C278 1.397 1_655 S
C275 C270 1.391 . S
C275 C274 1.391 . S
C275 C276 1.399 . S
C276 C275 1.399 . S
C276 C277 1.394 1_655 S
C276 C279 1.453 . S
C276 C280 1.684 . S
C277 C267 1.725 . S
C277 C276 1.394 1_455 S
C277 C278 1.395 . S
C278 C248 1.723 . S
C278 C274 1.397 1_455 S
C278 C277 1.395 . S
C279 H251 0.982 . S
C279 H255 0.979 . S
C279 H256 0.977 . S
C279 C276 1.453 . S
C280 H252 0.979 . S
C280 H253 0.980 . S
C280 H254 0.983 . S
C280 C276 1.684 . S
H281 C299 0.948 . S
H282 C240 0.948 . S
H283 C258 0.979 . S
H284 C258 0.980 . S
H285 C258 0.983 . S
H286 C257 0.982 . S
H287 C257 0.979 . S
H288 C257 0.977 . S
H289 C259 0.948 . S
H290 C261 0.947 1_655 S
H291 C262 0.948 1_655 S
H292 C268 0.982 . S
H293 C268 0.979 . S
H294 C268 0.977 . S
H295 C269 0.979 . S
H296 C269 0.980 . S
H297 C269 0.983 . S
H298 C242 0.947 . S
C299 C242 1.392 . S
C299 C243 1.419 . S
C299 H281 0.948 . S
C300 C301 1.391 . S
C300 C304 1.391 . S
C300 H342 0.948 . S
C301 C300 1.391 . S
C301 C302 1.391 . S
C302 C301 1.391 . S
C302 H358 0.947 . S
C302 C359 1.392 . S
C303 C304 1.391 . S
C303 C307 1.397 . S
C303 C359 1.419 . S
C304 C300 1.391 . S
C304 C303 1.391 . S
C304 C305 1.399 . S
C305 C304 1.399 . S
C305 C308 1.396 . S
C305 C317 1.453 . S
C305 C318 1.684 . S
H306 C330 0.948 . S
C307 C303 1.397 . S
C307 C308 1.394 . S
C307 C326 1.723 . S
C308 C305 1.396 . S
C308 C307 1.394 . S
C308 C338 1.723 1_655 S
H309 C332 0.947 . S
H310 C333 0.948 . S
H311 C339 0.982 . S
H312 C340 0.979 . S
H313 C340 0.980 . S
H314 C340 0.983 . S
H315 C339 0.979 . S
H316 C339 0.977 . S
C317 C305 1.453 . S
C317 H346 0.982 1_655 S
C317 H347 0.979 . S
C317 H348 0.977 1_655 S
C318 C305 1.684 . S
C318 H343 0.979 . S
C318 H344 0.980 . S
C318 H345 0.983 . S
C319 C320 1.391 1_655 S
C319 C324 1.391 . S
C319 H349 0.948 . S
C320 C319 1.391 1_455 S
C320 C321 1.391 . S
C321 C320 1.391 . S
C321 C322 1.392 . S
C321 H350 0.947 . S
C322 C321 1.392 . S
C322 C323 1.419 . S
C322 H351 0.948 . S
C323 C322 1.419 . S
C323 C324 1.391 1_455 S
C323 C327 1.397 . S
C324 C319 1.391 . S
C324 C323 1.391 1_655 S
C324 C325 1.399 . S
C325 C324 1.399 . S
C325 C326 1.396 . S
C325 C328 1.453 . S
C325 C329 1.684 . S
C326 C307 1.723 . S
C326 C325 1.396 . S
C326 C327 1.394 1_655 S
C327 C323 1.397 . S
C327 C326 1.394 1_455 S
C327 C337 1.723 . S
C328 C325 1.453 . S
C328 H352 0.982 . S
C328 H353 0.979 . S
C328 H354 0.977 . S
C329 C325 1.684 . S
C329 H355 0.979 . S
C329 H356 0.980 . S
C329 H357 0.983 . S
C330 H306 0.948 . S
C330 C331 1.391 . S
C330 C335 1.391 . S
C331 C330 1.391 . S
C331 C332 1.391 . S
C332 H309 0.947 . S
C332 C331 1.391 . S
C332 C333 1.392 . S
C333 H310 0.948 . S
C333 C332 1.392 . S
C333 C334 1.419 . S
C334 C333 1.419 . S
C334 C335 1.391 . S
C334 C338 1.397 . S
C335 C330 1.391 . S
C335 C334 1.391 . S
C335 C336 1.399 . S
C336 C335 1.399 . S
C336 C337 1.396 . S
C336 C339 1.453 . S
C336 C340 1.684 . S
C337 C327 1.723 . S
C337 C336 1.396 . S
C337 C338 1.394 . S
C338 C308 1.723 1_455 S
C338 C334 1.397 . S
C338 C337 1.394 . S
C339 H311 0.982 . S
C339 H315 0.979 . S
C339 H316 0.977 . S
C339 C336 1.453 . S
C340 H312 0.979 . S
C340 H313 0.980 . S
C340 H314 0.983 . S
C340 C336 1.684 . S
H341 C359 0.948 . S
H342 C300 0.948 . S
H343 C318 0.979 . S
H344 C318 0.980 . S
H345 C318 0.983 . S
H346 C317 0.982 1_455 S
H347 C317 0.979 . S
H348 C317 0.977 1_455 S
H349 C319 0.948 . S
H350 C321 0.947 . S
H351 C322 0.948 . S
H352 C328 0.982 . S
H353 C328 0.979 . S
H354 C328 0.977 . S
H355 C329 0.979 . S
H356 C329 0.980 . S
H357 C329 0.983 . S
H358 C302 0.947 . S
C359 C302 1.392 . S
C359 C303 1.419 . S
C359 H341 0.948 . S
C360 C361 1.391 . S
C360 C364 1.391 . S
C360 H402 0.948 . S
C361 C360 1.391 . S
C361 C362 1.391 . S
C362 C361 1.391 . S
C362 H418 0.947 . S
C362 C419 1.392 . S
C363 C364 1.391 . S
C363 C367 1.397 . S
C363 C419 1.419 . S
C364 C360 1.391 . S
C364 C363 1.391 . S
C364 C365 1.399 . S
C365 C364 1.399 . S
C365 C368 1.396 . S
C365 C377 1.453 1_565 S
C365 C378 1.684 . S
H366 C390 0.948 . S
C367 C363 1.397 . S
C367 C368 1.394 . S
C367 C386 1.723 . S
C368 C365 1.396 . S
C368 C367 1.394 . S
C368 C398 1.723 1_565 S
H369 C392 0.947 . S
H370 C393 0.948 . S
H371 C399 0.982 . S
H372 C400 0.979 . S
H373 C400 0.980 . S
H374 C400 0.983 . S
H375 C399 0.979 . S
H376 C399 0.977 . S
C377 C365 1.453 1_545 S
C377 H406 0.982 . S
C377 H407 0.979 1_545 S
C377 H408 0.977 . S
C378 C365 1.684 . S
C378 H403 0.979 . S
C378 H404 0.980 . S
C378 H405 0.983 . S
C379 C380 1.391 . S
C379 C384 1.391 . S
C379 H409 0.948 . S
C380 C379 1.391 . S
C380 C381 1.391 1_565 S
C381 C380 1.391 1_545 S
C381 C382 1.392 . S
C381 H410 0.947 . S
C382 C381 1.392 . S
C382 C383 1.419 . S
C382 H411 0.948 . S
C383 C382 1.419 . S
C383 C384 1.391 1_545 S
C383 C387 1.397 . S
C384 C379 1.391 . S
C384 C383 1.391 1_565 S
C384 C385 1.399 . S
C385 C384 1.399 . S
C385 C386 1.396 . S
C385 C388 1.453 . S
C385 C389 1.684 . S
C386 C367 1.723 . S
C386 C385 1.396 . S
C386 C387 1.394 1_565 S
C387 C383 1.397 . S
C387 C386 1.394 1_545 S
C387 C397 1.723 . S
C388 C385 1.453 . S
C388 H412 0.982 . S
C388 H413 0.979 . S
C388 H414 0.977 . S
C389 C385 1.684 . S
C389 H415 0.979 . S
C389 H416 0.980 . S
C389 H417 0.983 . S
C390 H366 0.948 . S
C390 C391 1.391 . S
C390 C395 1.391 . S
C391 C390 1.391 . S
C391 C392 1.391 . S
C392 H369 0.947 . S
C392 C391 1.391 . S
C392 C393 1.392 . S
C393 H370 0.948 . S
C393 C392 1.392 . S
C393 C394 1.419 . S
C394 C393 1.419 . S
C394 C395 1.391 . S
C394 C398 1.397 . S
C395 C390 1.391 . S
C395 C394 1.391 . S
C395 C396 1.399 . S
C396 C395 1.399 . S
C396 C397 1.396 . S
C396 C399 1.453 . S
C396 C400 1.684 . S
C397 C387 1.723 . S
C397 C396 1.396 . S
C397 C398 1.394 . S
C398 C368 1.723 1_545 S
C398 C394 1.397 . S
C398 C397 1.394 . S
C399 H371 0.982 . S
C399 H375 0.979 . S
C399 H376 0.977 . S
C399 C396 1.453 . S
C400 H372 0.979 . S
C400 H373 0.980 . S
C400 H374 0.983 . S
C400 C396 1.684 . S
H401 C419 0.948 . S
H402 C360 0.948 . S
H403 C378 0.979 . S
H404 C378 0.980 . S
H405 C378 0.983 . S
H406 C377 0.982 . S
H407 C377 0.979 1_565 S
H408 C377 0.977 . S
H409 C379 0.948 . S
H410 C381 0.947 . S
H411 C382 0.948 . S
H412 C388 0.982 . S
H413 C388 0.979 . S
H414 C388 0.977 . S
H415 C389 0.979 . S
H416 C389 0.980 . S
H417 C389 0.983 . S
H418 C362 0.947 . S
C419 C362 1.392 . S
C419 C363 1.419 . S
C419 H401 0.948 . S
C420 C421 1.391 . S
C420 C424 1.391 . S
C420 H462 0.948 . S
C421 C420 1.391 . S
C421 C422 1.391 . S
C422 C421 1.391 . S
C422 H478 0.947 . S
C422 C479 1.392 . S
C423 C424 1.391 . S
C423 C427 1.397 . S
C423 C479 1.419 . S
C424 C420 1.391 . S
C424 C423 1.391 . S
C424 C425 1.399 . S
C425 C424 1.399 . S
C425 C428 1.396 . S
C425 C437 1.453 . S
C425 C438 1.684 . S
H426 C450 0.948 . S
C427 C423 1.397 . S
C427 C428 1.394 . S
C427 C446 1.723 . S
C428 C425 1.396 . S
C428 C427 1.394 . S
C428 C458 1.723 . S
H429 C452 0.947 . S
H430 C453 0.948 . S
H431 C459 0.982 . S
H432 C460 0.979 . S
H433 C460 0.980 . S
H434 C460 0.983 . S
H435 C459 0.979 . S
H436 C459 0.977 . S
C437 C425 1.453 . S
C437 H466 0.982 . S
C437 H467 0.979 . S
C437 H468 0.977 . S
C438 C425 1.684 . S
C438 H463 0.979 . S
C438 H464 0.980 . S
C438 H465 0.983 . S
C439 C440 1.391 . S
C439 C444 1.391 1_556 S
C439 H469 0.948 . S
C440 C439 1.391 . S
C440 C441 1.391 . S
C441 C440 1.391 . S
C441 C442 1.392 1_556 S
C441 H470 0.947 . S
C442 C441 1.392 1_554 S
C442 C443 1.419 . S
C442 H471 0.948 . S
C443 C442 1.419 . S
C443 C444 1.391 . S
C443 C447 1.397 . S
C444 C439 1.391 1_554 S
C444 C443 1.391 . S
C444 C445 1.399 . S
C445 C444 1.399 . S
C445 C446 1.396 . S
C445 C448 1.453 . S
C445 C449 1.684 . S
C446 C427 1.723 . S
C446 C445 1.396 . S
C446 C447 1.394 . S
C447 C443 1.397 . S
C447 C446 1.394 . S
C447 C457 1.723 . S
C448 C445 1.453 . S
C448 H472 0.982 . S
C448 H473 0.979 . S
C448 H474 0.977 . S
C449 C445 1.684 . S
C449 H475 0.979 . S
C449 H476 0.980 . S
C449 H477 0.983 . S
C450 H426 0.948 . S
C450 C451 1.391 . S
C450 C455 1.391 . S
C451 C450 1.391 . S
C451 C452 1.391 . S
C452 H429 0.947 . S
C452 C451 1.391 . S
C452 C453 1.392 . S
C453 H430 0.948 . S
C453 C452 1.392 . S
C453 C454 1.419 . S
C454 C453 1.419 . S
C454 C455 1.391 . S
C454 C458 1.397 . S
C455 C450 1.391 . S
C455 C454 1.391 . S
C455 C456 1.399 . S
C456 C455 1.399 . S
C456 C457 1.396 . S
C456 C459 1.453 . S
C456 C460 1.684 . S
C457 C447 1.723 . S
C457 C456 1.396 . S
C457 C458 1.394 . S
C458 C428 1.723 . S
C458 C454 1.397 . S
C458 C457 1.394 . S
C459 H431 0.982 . S
C459 H435 0.979 . S
C459 H436 0.977 . S
C459 C456 1.453 . S
C460 H432 0.979 . S
C460 H433 0.980 . S
C460 H434 0.983 . S
C460 C456 1.684 . S
H461 C479 0.948 . S
H462 C420 0.948 . S
H463 C438 0.979 . S
H464 C438 0.980 . S
H465 C438 0.983 . S
H466 C437 0.982 . S
H467 C437 0.979 . S
H468 C437 0.977 . S
H469 C439 0.948 . S
H470 C441 0.947 . S
H471 C442 0.948 . S
H472 C448 0.982 . S
H473 C448 0.979 . S
H474 C448 0.977 . S
H475 C449 0.979 . S
H476 C449 0.980 . S
H477 C449 0.983 . S
H478 C422 0.947 . S
C479 C422 1.392 . S
C479 C423 1.419 . S
C479 H461 0.948 . S
C480 C481 1.387 . S
C480 H484 0.950 . S
C480 C489 1.390 . S
C481 C480 1.387 . S
C481 C483 1.387 . S
H482 C489 0.950 . S
C483 C481 1.387 . S
C483 C485 1.390 . S
C483 H487 0.950 . S
H484 C480 0.950 . S
C485 C483 1.390 . S
C485 C486 1.387 . S
C485 H488 0.950 . S
C486 C485 1.387 . S
C486 C489 1.387 . S
H487 C483 0.950 . S
H488 C485 0.950 . S
C489 C480 1.390 . S
C489 H482 0.950 . S
C489 C486 1.387 . S
C490 C491 1.387 . S
C490 H494 0.950 . S
C490 C499 1.390 . S
C491 C490 1.387 . S
C491 C493 1.387 . S
H492 C499 0.950 . S
C493 C491 1.387 . S
C493 C495 1.390 . S
C493 H497 0.950 . S
H494 C490 0.950 . S
C495 C493 1.390 . S
C495 C496 1.387 . S
C495 H498 0.950 . S
C496 C495 1.387 . S
C496 C499 1.387 . S
H497 C493 0.950 . S
H498 C495 0.950 . S
C499 C490 1.390 . S
C499 H492 0.950 . S
C499 C496 1.387 . S
C500 C501 1.387 . S
C500 H504 0.950 . S
C500 C509 1.390 . S
C501 C500 1.387 . S
C501 C503 1.387 . S
H502 C509 0.950 . S
C503 C501 1.387 . S
C503 C505 1.390 . S
C503 H507 0.950 . S
H504 C500 0.950 . S
C505 C503 1.390 . S
C505 C506 1.387 . S
C505 H508 0.950 . S
C506 C505 1.387 . S
C506 C509 1.387 . S
H507 C503 0.950 . S
H508 C505 0.950 . S
C509 C500 1.390 . S
C509 H502 0.950 . S
C509 C506 1.387 . S
C510 C511 1.387 . S
C510 H514 0.950 . S
C510 C519 1.390 . S
C511 C510 1.387 . S
C511 C513 1.387 . S
H512 C519 0.950 . S
C513 C511 1.387 . S
C513 C515 1.390 . S
C513 H517 0.950 . S
H514 C510 0.950 . S
C515 C513 1.390 . S
C515 C516 1.387 . S
C515 H518 0.950 . S
C516 C515 1.387 . S
C516 C519 1.387 . S
H517 C513 0.950 . S
H518 C515 0.950 . S
C519 C510 1.390 . S
C519 H512 0.950 . S
C519 C516 1.387 . S
C520 C521 1.387 . S
C520 H524 0.950 . S
C520 C529 1.390 . S
C521 C520 1.387 . S
C521 C523 1.387 . S
H522 C529 0.950 . S
C523 C521 1.387 . S
C523 C525 1.390 . S
C523 H527 0.950 . S
H524 C520 0.950 . S
C525 C523 1.390 . S
C525 C526 1.387 . S
C525 H528 0.950 . S
C526 C525 1.387 . S
C526 C529 1.387 . S
H527 C523 0.950 . S
H528 C525 0.950 . S
C529 C520 1.390 . S
C529 H522 0.950 . S
C529 C526 1.387 . S
C530 C531 1.387 . S
C530 H534 0.950 . S
C530 C539 1.390 . S
C531 C530 1.387 . S
C531 C533 1.387 . S
H532 C539 0.950 . S
C533 C531 1.387 . S
C533 C535 1.390 . S
C533 H537 0.950 . S
H534 C530 0.950 . S
C535 C533 1.390 . S
C535 C536 1.387 . S
C535 H538 0.950 . S
C536 C535 1.387 . S
C536 C539 1.387 . S
H537 C533 0.950 . S
H538 C535 0.950 . S
C539 C530 1.390 . S
C539 H532 0.950 . S
C539 C536 1.387 . S
C540 C541 1.387 . S
C540 H544 0.950 . S
C540 C549 1.390 . S
C541 C540 1.387 . S
C541 C543 1.387 . S
H542 C549 0.950 . S
C543 C541 1.387 . S
C543 C545 1.390 . S
C543 H547 0.950 . S
H544 C540 0.950 . S
C545 C543 1.390 . S
C545 C546 1.387 . S
C545 H548 0.950 . S
C546 C545 1.387 . S
C546 C549 1.387 . S
H547 C543 0.950 . S
H548 C545 0.950 . S
C549 C540 1.390 . S
C549 H542 0.950 . S
C549 C546 1.387 . S
C550 C551 1.387 . S
C550 H554 0.950 . S
C550 C559 1.390 . S
C551 C550 1.387 . S
C551 C553 1.387 . S
H552 C559 0.950 . S
C553 C551 1.387 . S
C553 C555 1.390 . S
C553 H557 0.950 . S
H554 C550 0.950 . S
C555 C553 1.390 . S
C555 C556 1.387 . S
C555 H558 0.950 . S
C556 C555 1.387 . S
C556 C559 1.387 . S
H557 C553 0.950 . S
H558 C555 0.950 . S
C559 C550 1.390 . S
C559 H552 0.950 . S
C559 C556 1.387 . S
C560 C561 1.387 . S
C560 H564 0.950 . S
C560 C569 1.390 . S
C561 C560 1.387 . S
C561 C563 1.387 . S
H562 C569 0.950 . S
C563 C561 1.387 . S
C563 C565 1.390 . S
C563 H567 0.950 . S
H564 C560 0.950 . S
C565 C563 1.390 . S
C565 C566 1.387 . S
C565 H568 0.950 . S
C566 C565 1.387 . S
C566 C569 1.387 . S
H567 C563 0.950 . S
H568 C565 0.950 . S
C569 C560 1.390 . S
C569 H562 0.950 . S
C569 C566 1.387 . S
C570 C571 1.387 . S
C570 H574 0.950 . S
C570 C579 1.390 . S
C571 C570 1.387 . S
C571 C573 1.387 . S
H572 C579 0.950 . S
C573 C571 1.387 . S
C573 C575 1.390 . S
C573 H577 0.950 . S
H574 C570 0.950 . S
C575 C573 1.390 . S
C575 C576 1.387 . S
C575 H578 0.950 . S
C576 C575 1.387 . S
C576 C579 1.387 . S
H577 C573 0.950 . S
H578 C575 0.950 . S
C579 C570 1.390 . S
C579 H572 0.950 . S
C579 C576 1.387 . S
C580 C581 1.387 . S
C580 H584 0.950 . S
C580 C589 1.390 . S
C581 C580 1.387 . S
C581 C583 1.387 . S
H582 C589 0.950 . S
C583 C581 1.387 . S
C583 C585 1.390 . S
C583 H587 0.950 . S
H584 C580 0.950 . S
C585 C583 1.390 . S
C585 C586 1.387 . S
C585 H588 0.950 . S
C586 C585 1.387 . S
C586 C589 1.387 . S
H587 C583 0.950 . S
H588 C585 0.950 . S
C589 C580 1.390 . S
C589 H582 0.950 . S
C589 C586 1.387 . S
C590 C591 1.387 . S
C590 H594 0.950 . S
C590 C599 1.390 . S
C591 C590 1.387 . S
C591 C593 1.387 . S
H592 C599 0.950 . S
C593 C591 1.387 . S
C593 C595 1.390 . S
C593 H597 0.950 . S
H594 C590 0.950 . S
C595 C593 1.390 . S
C595 C596 1.387 . S
C595 H598 0.950 . S
C596 C595 1.387 . S
C596 C599 1.387 . S
H597 C593 0.950 . S
H598 C595 0.950 . S
C599 C590 1.390 . S
C599 H592 0.950 . S
C599 C596 1.387 . S
C600 C601 1.387 . S
C600 H604 0.950 . S
C600 C609 1.390 . S
C601 C600 1.387 . S
C601 C603 1.387 1_455 S
H602 C609 0.950 . S
C603 C601 1.387 1_655 S
C603 C605 1.390 . S
C603 H607 0.950 . S
H604 C600 0.950 . S
C605 C603 1.390 . S
C605 C606 1.387 1_655 S
C605 H608 0.950 . S
C606 C605 1.387 1_455 S
C606 C609 1.387 . S
H607 C603 0.950 . S
H608 C605 0.950 . S
C609 C600 1.390 . S
C609 H602 0.950 . S
C609 C606 1.387 . S
C610 C611 1.387 1_565 S
C610 H614 0.950 . S
C610 C619 1.390 . S
C611 C610 1.387 1_545 S
C611 C613 1.387 . S
H612 C619 0.950 . S
C613 C611 1.387 . S
C613 C615 1.390 . S
C613 H617 0.950 . S
H614 C610 0.950 . S
C615 C613 1.390 . S
C615 C616 1.387 . S
C615 H618 0.950 . S
C616 C615 1.387 . S
C616 C619 1.387 1_545 S
H617 C613 0.950 . S
H618 C615 0.950 . S
C619 C610 1.390 . S
C619 H612 0.950 . S
C619 C616 1.387 1_565 S
C620 C621 1.387 . S
C620 H624 0.950 . S
C620 C629 1.390 . S
C621 C620 1.387 . S
C621 C623 1.387 . S
H622 C629 0.950 . S
C623 C621 1.387 . S
C623 C625 1.390 . S
C623 H627 0.950 . S
H624 C620 0.950 . S
C625 C623 1.390 . S
C625 C626 1.387 . S
C625 H628 0.950 . S
C626 C625 1.387 . S
C626 C629 1.387 . S
H627 C623 0.950 . S
H628 C625 0.950 . S
C629 C620 1.390 . S
C629 H622 0.950 . S
C629 C626 1.387 . S
C630 C631 1.387 1_565 S
C630 H634 0.950 . S
C630 C639 1.390 . S
C631 C630 1.387 1_545 S
C631 C633 1.387 . S
H632 C639 0.950 . S
C633 C631 1.387 . S
C633 C635 1.390 . S
C633 H637 0.950 . S
H634 C630 0.950 . S
C635 C633 1.390 . S
C635 C636 1.387 1_545 S
C635 H638 0.950 . S
C636 C635 1.387 1_565 S
C636 C639 1.387 . S
H637 C633 0.950 . S
H638 C635 0.950 . S
C639 C630 1.390 . S
C639 H632 0.950 . S
C639 C636 1.387 . S
C640 C641 1.387 . S
C640 H644 0.950 . S
C640 C649 1.390 . S
C641 C640 1.387 . S
C641 C643 1.387 . S
H642 C649 0.950 . S
C643 C641 1.387 . S
C643 C645 1.390 . S
C643 H647 0.950 . S
H644 C640 0.950 . S
C645 C643 1.390 . S
C645 C646 1.387 . S
C645 H648 0.950 . S
C646 C645 1.387 . S
C646 C649 1.387 . S
H647 C643 0.950 . S
H648 C645 0.950 . S
C649 C640 1.390 . S
C649 H642 0.950 . S
C649 C646 1.387 . S
C650 C651 1.387 1_655 S
C650 H654 0.950 . S
C650 C659 1.390 . S
C651 C650 1.387 1_455 S
C651 C653 1.387 . S
H652 C659 0.950 . S
C653 C651 1.387 . S
C653 C655 1.390 . S
C653 H657 0.950 . S
H654 C650 0.950 . S
C655 C653 1.390 . S
C655 C656 1.387 . S
C655 H658 0.950 . S
C656 C655 1.387 . S
C656 C659 1.387 1_455 S
H657 C653 0.950 . S
H658 C655 0.950 . S
C659 C650 1.390 . S
C659 H652 0.950 . S
C659 C656 1.387 1_655 S
C481 C6 0.904 . S
C486 C451 0.984 . S
C491 C59 2.010 . S
C496 C301 1.842 . S
C501 C86 1.373 . S
C506 C361 1.416 . S
C511 C15 0.672 . S
C516 C421 0.594 . S
C526 C331 2.129 . S
C521 C50 2.151 . S
C536 C391 1.387 . S
C531 C95 1.366 . S
C541 C46 1.287 . S
C546 C181 1.283 . S
C551 C99 3.190 . S
C556 C271 3.192 . S
C561 C10 2.180 . S
C566 C151 2.190 . S
C576 C211 1.386 . S
C571 C55 1.353 . S
C586 C241 2.954 . S
C581 C90 3.130 . S
C591 C19 2.005 . S
C596 C121 1.848 . S
C606 C260 1.774 1_554 S
C601 C18 1.722 . S
C611 C49 1.316 . S
C616 C140 1.335 . S
C621 C98 1.448 . S
C626 C200 1.474 . S
C636 C380 1.460 . S
C631 C58 1.438 . S
C646 C440 1.070 . S
C641 C89 1.071 . S
C651 C9 1.311 . S
C656 C320 1.322 . S
