# Generated by pormake.
# Topology anh, (6,3)-cn, num edge types: 1
# Building blocks:
#     Node 0, Type 0, BuildingBlock: BETDAH_clean_sbu_0, # of connection points: 6
#     Node 1, Type 0, BuildingBlock: BETDAH_clean_sbu_0, # of connection points: 6
#     Node 2, Type 0, BuildingBlock: BETDAH_clean_sbu_0, # of connection points: 6
#     Node 3, Type 1, BuildingBlock: PAMTOO_clean_linker_0, # of connection points: 3
#     Node 4, Type 1, BuildingBlock: PAMTOO_clean_linker_0, # of connection points: 3
#     Node 5, Type 1, BuildingBlock: PAMTOO_clean_linker_0, # of connection points: 3
#     Node 6, Type 1, BuildingBlock: PAMTOO_clean_linker_0, # of connection points: 3
#     Node 7, Type 1, BuildingBlock: PAMTOO_clean_linker_0, # of connection points: 3
#     Node 8, Type 1, BuildingBlock: PAMTOO_clean_linker_0, # of connection points: 3
#     Edge 9, Type (0, 1), BuildingBlock: OJICUG_clean_linker_0, # of connection points: 2
#     Edge 10, Type (0, 1), BuildingBlock: OJICUG_clean_linker_0, # of connection points: 2
#     Edge 11, Type (0, 1), BuildingBlock: OJICUG_clean_linker_0, # of connection points: 2
#     Edge 12, Type (0, 1), BuildingBlock: OJICUG_clean_linker_0, # of connection points: 2
#     Edge 13, Type (0, 1), BuildingBlock: OJICUG_clean_linker_0, # of connection points: 2
#     Edge 14, Type (0, 1), BuildingBlock: OJICUG_clean_linker_0, # of connection points: 2
#     Edge 15, Type (0, 1), BuildingBlock: OJICUG_clean_linker_0, # of connection points: 2
#     Edge 16, Type (0, 1), BuildingBlock: OJICUG_clean_linker_0, # of connection points: 2
#     Edge 17, Type (0, 1), BuildingBlock: OJICUG_clean_linker_0, # of connection points: 2
#     Edge 18, Type (0, 1), BuildingBlock: OJICUG_clean_linker_0, # of connection points: 2
#     Edge 19, Type (0, 1), BuildingBlock: OJICUG_clean_linker_0, # of connection points: 2
#     Edge 20, Type (0, 1), BuildingBlock: OJICUG_clean_linker_0, # of connection points: 2
#     Edge 21, Type (0, 1), BuildingBlock: OJICUG_clean_linker_0, # of connection points: 2
#     Edge 22, Type (0, 1), BuildingBlock: OJICUG_clean_linker_0, # of connection points: 2
#     Edge 23, Type (0, 1), BuildingBlock: OJICUG_clean_linker_0, # of connection points: 2
#     Edge 24, Type (0, 1), BuildingBlock: OJICUG_clean_linker_0, # of connection points: 2
#     Edge 25, Type (0, 1), BuildingBlock: OJICUG_clean_linker_0, # of connection points: 2
#     Edge 26, Type (0, 1), BuildingBlock: OJICUG_clean_linker_0, # of connection points: 2
# Relax obj value: 0.229
# Max RMSD: 0.216
# Mean RMSD: 0.135
data_MOF--net-anh--node1-BETDAH_clean_sbu_0--node2-PAMTOO_clean_linker_0--edge1-OJICUG_clean_linker_0
_symmetry_space_group_name_H-M    P1
_symmetry_Int_Tables_number       1
_symmetry_cell_setting            triclinic
loop_
_symmetry_equiv_pos_as_xyz
'x, y, z'
_cell_length_a     22.506107
_cell_length_b     29.023856
_cell_length_c     35.778216
_cell_angle_alpha  88.375757
_cell_angle_beta   92.248976
_cell_angle_gamma 132.66097
loop_
_atom_site_label
_atom_site_type_symbol
_atom_site_fract_x
_atom_site_fract_y
_atom_site_fract_z
_atom_type_partial_charge
Ho0 Ho 0.24402 0.50348 0.14618 0.0
Ho1 Ho 0.142 0.52939 0.17396 0.0
C2 C 0.33335 0.64865 0.16299 0.0
C3 C 0.34374 0.50376 0.11308 0.0
C4 C 0.42711 0.5556 0.10168 0.0
C5 C 0.48583 0.55349 0.11223 0.0
C6 C 0.56749 0.60796 0.11196 0.0
C7 C 0.59146 0.66516 0.10082 0.0
C8 C 0.5333 0.66624 0.08692 0.0
C9 C 0.45129 0.61178 0.0877 0.0
C10 C 0.21542 0.48733 0.21995 0.0
C11 C 1.05602 0.38648 0.15852 0.0
C12 C 1.07796 0.55821 0.21368 0.0
C13 C 1.00206 0.54311 0.21797 0.0
C14 C 0.92895 0.48854 0.20266 0.0
C15 C 0.86245 0.48325 0.19879 0.0
C16 C 0.8696 0.53348 0.20894 0.0
C17 C 0.93992 0.58411 0.22872 0.0
C18 C 1.00559 0.58881 0.2331 0.0
C19 C 1.1331 0.51232 0.099 0.0
O20 O 0.34025 0.61015 0.14981 0.0
O21 O 0.26402 0.62756 0.17533 0.0
O22 O 0.33567 0.49908 0.14932 0.0
O23 O 0.28634 0.49693 0.09498 0.0
O24 O 0.21667 0.45103 0.20055 0.0
O25 O 0.23214 0.53068 0.19991 0.0
O26 O 1.05763 0.42433 0.17946 0.0
O27 O 1.11774 0.40862 0.13732 0.0
O28 O 1.1149 0.58659 0.18238 0.0
O29 O 1.07951 0.51523 0.22362 0.0
O30 O 1.073 0.4954 0.11811 0.0
O31 O 0.19459 0.54089 0.12022 0.0
H32 H 0.46831 0.51069 0.12327 0.0
H33 H 0.61181 0.60603 0.12207 0.0
H34 H 0.55086 0.70989 0.0779 0.0
H35 H 0.40697 0.61467 0.07973 0.0
H36 H 0.92508 0.45234 0.1913 0.0
H37 H 0.80834 0.44268 0.18449 0.0
H38 H 0.9484 0.62383 0.23708 0.0
H39 H 1.06161 0.63093 0.24539 0.0
Ho40 Ho 0.74193 1.02263 0.48345 0.0
Ho41 Ho 0.62951 0.03982 0.45715 0.0
C42 C 0.55175 0.89922 0.46428 0.0
C43 C 0.80961 0.98951 0.51973 0.0
C44 C 0.79436 0.93176 0.5249 0.0
C45 C 0.80521 0.91691 0.56056 0.0
C46 C 0.79097 0.86237 0.56634 0.0
C47 C 0.76609 0.82164 0.53643 0.0
C48 C 0.75493 0.83663 0.50065 0.0
C49 C 0.76859 0.89104 0.49496 0.0
C50 C 0.73688 0.03457 0.40879 0.0
C51 C 0.82275 0.16317 0.46965 0.0
C52 C 0.55827 0.07417 0.42711 0.0
C53 C 0.55901 0.12421 0.43549 0.0
C54 C 0.63124 0.18768 0.43648 0.0
C55 C 0.6313 0.23361 0.44749 0.0
C56 C 0.55929 0.21697 0.458 0.0
C57 C 0.48688 0.15365 0.45615 0.0
C58 C 0.48675 0.10784 0.44489 0.0
C59 C 0.64407 0.03518 0.53246 0.0
O60 O 0.61803 0.92271 0.48416 0.0
O61 O 0.54733 0.93675 0.44542 0.0
O62 O 0.83111 1.01512 0.48648 0.0
O63 O 0.75739 0.9895 0.53453 0.0
O64 O 0.8011 0.05593 0.42801 0.0
O65 O 0.6764 1.00368 0.42954 0.0
O66 O 0.75336 0.13806 0.45235 0.0
O67 O 0.83027 0.12779 0.48914 0.0
O68 O 0.52525 0.02993 0.45228 0.0
O69 O 0.62439 0.09127 0.41419 0.0
O70 O 0.57748 1.01186 0.51506 0.0
O71 O 0.6997 0.06272 0.50949 0.0
H72 H 0.82435 0.94744 0.58407 0.0
H73 H 0.79844 0.85176 0.59443 0.0
H74 H 0.7365 0.80673 0.47692 0.0
H75 H 0.75921 0.90129 0.46718 0.0
H76 H 0.68799 0.20183 0.42953 0.0
H77 H 0.68818 0.28191 0.44888 0.0
H78 H 0.43024 0.13945 0.46357 0.0
H79 H 0.43025 0.05929 0.44426 0.0
Ho80 Ho 0.7547 0.60524 0.8263 0.0
Ho81 Ho 0.64494 0.47861 0.85696 0.0
C82 C 0.56819 0.54007 0.84952 0.0
C83 C 0.81598 0.70328 0.78582 0.0
C84 C 0.80253 0.74635 0.78185 0.0
C85 C 0.81431 0.77492 0.74725 0.0
C86 C 0.80191 0.81594 0.74293 0.0
C87 C 0.77787 0.8296 0.77324 0.0
C88 C 0.76538 0.80024 0.80787 0.0
C89 C 0.77728 0.75883 0.81209 0.0
C90 C 0.76664 0.60548 0.90108 0.0
C91 C 0.83539 0.5472 0.84414 0.0
C92 C 0.57896 0.37217 0.88764 0.0
C93 C 0.58353 0.32624 0.87597 0.0
C94 C 0.5695 0.28212 0.90121 0.0
C95 C 0.57498 0.2393 0.88964 0.0
C96 C 0.59443 0.23976 0.85251 0.0
C97 C 0.60877 0.28453 0.82749 0.0
C98 C 0.60396 0.32744 0.83914 0.0
C99 C 0.64577 0.48501 0.78114 0.0
O100 O 0.63324 0.58258 0.82894 0.0
O101 O 0.56386 0.49762 0.8682 0.0
O102 O 0.84801 0.70521 0.81768 0.0
O103 O 0.75667 0.64601 0.77408 0.0
O104 O 0.82677 0.64322 0.87913 0.0
O105 O 0.70055 0.56934 0.88241 0.0
O106 O 0.76645 0.50352 0.86164 0.0
O107 O 0.84337 0.59044 0.82393 0.0
O108 O 0.54041 0.37996 0.86417 0.0
O109 O 0.64671 0.42548 0.9002 0.0
O110 O 0.58091 0.44563 0.79999 0.0
O111 O 0.70577 0.51705 0.80311 0.0
H112 H 0.83289 0.76534 0.72348 0.0
H113 H 0.81026 0.83633 0.7156 0.0
H114 H 0.74746 0.80983 0.8319 0.0
H115 H 0.76711 0.73679 0.83902 0.0
H116 H 0.55458 0.28088 0.92986 0.0
H117 H 0.56474 0.20628 0.90991 0.0
H118 H 0.62248 0.28596 0.79858 0.0
H119 H 0.61578 0.36149 0.81921 0.0
H120 H 0.82425 0.1543 0.24865 0.0
H121 H 0.6541 0.95397 0.2371 0.0
H122 H 0.7646 0.07152 0.13947 0.0
H123 H 0.59314 0.92869 0.1177 0.0
C124 C 0.58649 0.92141 0.14845 0.0
O125 O 0.66239 0.95361 0.16488 0.0
H126 H 0.56079 0.94111 0.15763 0.0
C127 C 0.79003 0.11327 0.23089 0.0
C128 C 0.8002 0.12104 0.19201 0.0
C129 C 0.73818 0.0536 0.24748 0.0
C130 C 0.69364 1.00033 0.22466 0.0
C131 C 0.70272 1.00633 0.18581 0.0
C132 C 0.75689 0.06687 0.16944 0.0
H133 H 0.70115 0.61073 0.63 0.0
H134 H 0.62673 0.43398 0.60388 0.0
H135 H 0.67908 0.55892 0.51516 0.0
H136 H 0.55575 0.42698 0.49031 0.0
C137 C 0.56432 0.40596 0.51385 0.0
O138 O 0.63835 0.45207 0.53135 0.0
H139 H 0.51451 0.38476 0.53369 0.0
C140 C 0.68771 0.57783 0.60942 0.0
C141 C 0.6926 0.59182 0.57116 0.0
C142 C 0.66332 0.52091 0.62145 0.0
C143 C 0.64442 0.47771 0.59491 0.0
C144 C 0.65089 0.49179 0.55665 0.0
C145 C 0.67416 0.54844 0.54479 0.0
H146 H 1.04944 0.52921 0.93298 0.0
H147 H 0.24679 0.53663 0.93072 0.0
H148 H 0.15985 0.55821 0.82822 0.0
H149 H 0.25835 0.50209 0.82053 0.0
C150 C 0.27848 0.51447 0.85031 0.0
O151 O 0.27589 0.5599 0.86042 0.0
H152 H 0.23247 0.47068 0.86636 0.0
C153 C 1.09266 0.53302 0.91712 0.0
C154 C 1.09427 0.54207 0.87815 0.0
C155 C 0.14648 0.53079 0.93641 0.0
C156 C 0.20508 0.53823 0.91619 0.0
C157 C 0.2116 0.54782 0.87732 0.0
C158 C 0.1556 0.55016 0.85811 0.0
H159 H 1.0732 0.38255 0.38047 0.0
H160 H 0.28004 0.58104 0.38808 0.0
H161 H 0.14837 0.47585 0.48665 0.0
H162 H 0.24193 0.62209 0.49448 0.0
C163 C 0.26448 0.62988 0.4658 0.0
O164 O 0.27476 0.58862 0.45976 0.0
H165 H 0.21735 0.61989 0.44609 0.0
C166 C 1.11384 0.42529 0.39674 0.0
C167 C 1.10184 0.42225 0.43523 0.0
C168 C 0.17765 0.48192 0.37917 0.0
C169 C 0.23098 0.53655 0.40098 0.0
C170 C 0.22105 0.53484 0.43959 0.0
C171 C 0.15652 0.47733 0.45687 0.0
H172 H 0.71721 0.9773 0.68405 0.0
H173 H 0.65665 0.08497 0.70962 0.0
H174 H 0.70468 1.01072 0.79881 0.0
H175 H 0.57846 1.01864 0.81736 0.0
C176 C 0.59712 0.05427 0.79572 0.0
O177 O 0.67107 0.0801 0.78234 0.0
H178 H 0.55056 0.03081 0.77267 0.0
C179 C 0.70743 0.9983 0.70453 0.0
C180 C 0.71381 0.98987 0.74282 0.0
C181 C 0.68583 0.03167 0.69227 0.0
C182 C 0.67197 0.0581 0.71873 0.0
C183 C 0.67921 0.05087 0.75712 0.0
C184 C 0.69894 1.01599 0.76914 0.0
H185 H 0.72797 0.58935 0.07331 0.0
H186 H 0.89753 0.78375 0.0419 0.0
H187 H 0.88925 0.73281 0.15605 0.0
H188 H 0.96378 0.90187 0.09709 0.0
C189 C 0.93299 0.86272 0.11759 0.0
O190 O 0.95081 0.82645 0.10995 0.0
H191 H 0.95828 0.88388 0.14578 0.0
C192 C 0.77377 0.63823 0.08123 0.0
C193 C 0.80443 0.6544 0.11826 0.0
C194 C 0.80957 0.68415 0.05326 0.0
C195 C 0.86979 0.74758 0.06318 0.0
C196 C 0.89541 0.76483 0.10048 0.0
C197 C 0.86396 0.71842 0.12786 0.0
C198 C 0.7209 0.76555 0.07701 0.0
C199 C 0.67622 0.72375 0.10666 0.0
H200 H 0.83907 0.84432 0.05763 0.0
C201 C 0.71414 0.73604 0.14187 0.0
H202 H 0.69252 0.75693 0.0497 0.0
C203 C 0.79697 0.78649 0.14662 0.0
C204 C 0.84316 0.82482 0.11609 0.0
H205 H 0.68027 0.70482 0.16528 0.0
H206 H 0.82604 0.79221 0.17322 0.0
C207 C 0.80418 0.81577 0.08166 0.0
C208 C 0.88547 0.26882 0.44376 0.0
C209 C 0.89339 0.23219 0.46581 0.0
H210 H 0.94482 0.35763 0.41768 0.0
C211 C 0.9701 0.26177 0.48194 0.0
H212 H 0.82788 0.24824 0.43083 0.0
C213 C 1.03762 0.32539 0.47456 0.0
C214 C 1.02975 0.36063 0.45091 0.0
H215 H 0.97869 0.23525 0.49911 0.0
H216 H 1.09663 0.346 0.4856 0.0
C217 C 0.95257 0.33188 0.43636 0.0
C218 C 0.81575 0.92664 0.74502 0.0
C219 C 0.76542 0.87387 0.76841 0.0
H220 H 0.83934 1.00486 0.71907 0.0
C221 C 0.70189 0.86293 0.78604 0.0
H222 H 0.86655 0.93768 0.73175 0.0
C223 C 0.68731 0.90239 0.77924 0.0
C224 C 0.73543 0.95318 0.75442 0.0
H225 H 0.66145 0.82256 0.804 0.0
H226 H 0.63622 0.89154 0.79204 0.0
C227 C 0.80065 0.96553 0.73797 0.0
C228 C 0.79853 0.52786 0.15187 0.0
C229 C 0.81812 0.54263 0.19004 0.0
H230 H 0.78051 0.55216 0.09924 0.0
C231 C 0.80865 0.58112 0.20593 0.0
H232 H 0.80445 0.49834 0.13829 0.0
C233 C 0.79448 0.61287 0.18296 0.0
C234 C 0.78894 0.60607 0.14388 0.0
H235 H 0.82029 0.59166 0.23554 0.0
H236 H 0.7948 0.64656 0.1955 0.0
C237 C 0.78465 0.55943 0.12906 0.0
C238 C 0.41358 0.80417 0.43929 0.0
C239 C 0.48153 0.82971 0.46262 0.0
H240 H 0.29363 0.72207 0.42156 0.0
C241 C 0.48005 0.78817 0.48503 0.0
H242 H 0.41216 0.83426 0.42152 0.0
C243 C 0.41151 0.72334 0.48497 0.0
C244 C 0.34305 0.69826 0.46223 0.0
H245 H 0.53105 0.80587 0.50337 0.0
H246 H 0.41111 0.69294 0.50347 0.0
C247 C 0.34551 0.73955 0.43912 0.0
C248 C 0.54432 0.13115 0.8527 0.0
C249 C 0.59852 0.19338 0.83955 0.0
H250 H 0.50209 0.03925 0.84923 0.0
C251 C 0.65474 0.21029 0.81276 0.0
H252 H 0.49906 0.11581 0.87269 0.0
C253 C 0.65551 0.16604 0.79895 0.0
C254 C 0.60146 0.104 0.81225 0.0
H255 H 0.69822 0.25781 0.80223 0.0
H256 H 0.69817 0.18042 0.77765 0.0
C257 C 0.54572 0.08708 0.83915 0.0
C258 C 0.68599 0.70725 0.52453 0.0
C259 C 0.75092 0.7635 0.54287 0.0
H260 H 0.61698 0.60884 0.51897 0.0
C261 C 0.79984 0.76333 0.56847 0.0
H262 H 0.6465 0.7054 0.50494 0.0
C263 C 0.78226 0.70794 0.57674 0.0
C264 C 0.7159 0.65149 0.55933 0.0
H265 H 0.85154 0.80597 0.58243 0.0
H266 H 0.82016 0.7091 0.59712 0.0
C267 C 0.66892 0.65187 0.53256 0.0
C268 C 0.88594 0.49279 0.86425 0.0
C269 C 0.90268 0.5454 0.8479 0.0
H270 H 0.9297 0.44971 0.88479 0.0
C271 C 0.98393 0.59511 0.8371 0.0
H272 H 0.82524 0.45289 0.87295 0.0
C273 C 1.04548 0.59306 0.84396 0.0
C274 C 1.02851 0.54091 0.86159 0.0
H275 H 1.00086 0.63682 0.82448 0.0
H276 H 1.1072 0.63372 0.83706 0.0
C277 C 0.94665 0.49063 0.87081 0.0
C278 C 0.39987 0.75781 0.18213 0.0
C279 C 0.40386 0.71822 0.16296 0.0
H280 H 0.45431 0.8519 0.19329 0.0
C281 C 0.47314 0.74637 0.14211 0.0
H282 H 0.34817 0.7383 0.19881 0.0
C283 C 0.53433 0.8121 0.13889 0.0
C284 C 0.52797 0.85127 0.15664 0.0
H285 H 0.47859 0.71765 0.12707 0.0
H286 H 0.58513 0.8323 0.12132 0.0
C287 C 0.46105 0.82322 0.17913 0.0
C288 C 0.51635 0.25313 0.5037 0.0
C289 C 0.55996 0.26513 0.47192 0.0
H290 H 0.48421 0.28831 0.542 0.0
C291 C 0.60494 0.32364 0.454 0.0
H292 H 0.48229 0.20898 0.51852 0.0
C293 C 0.60575 0.36889 0.46743 0.0
C294 C 0.56172 0.35656 0.49902 0.0
H295 H 0.63888 0.3342 0.42938 0.0
H296 H 0.64079 0.41362 0.45318 0.0
C297 C 0.51762 0.29852 0.51723 0.0
C298 C 0.43591 0.50013 0.87756 0.0
C299 C 0.4994 0.53992 0.85216 0.0
H300 H 0.32158 0.46293 0.89795 0.0
C301 C 0.49378 0.57749 0.82898 0.0
H302 H 0.43632 0.47029 0.89619 0.0
C303 C 0.42656 0.57323 0.83008 0.0
C304 C 0.36197 0.53198 0.85485 0.0
H305 H 0.54028 0.60899 0.8089 0.0
H306 H 0.42355 0.60054 0.81028 0.0
C307 C 0.36952 0.49638 0.87889 0.0
C308 C 0.91752 0.29466 0.1818 0.0
C309 C 0.98521 0.31722 0.16156 0.0
H310 H 0.80581 0.21559 0.20615 0.0
C311 C 0.98607 0.27296 0.14704 0.0
H312 H 0.91368 0.32676 0.19313 0.0
C313 C 0.9232 0.20836 0.15455 0.0
C314 C 0.85818 0.18664 0.17677 0.0
H315 H 1.03696 0.28837 0.13127 0.0
H316 H 0.92779 0.17592 0.14477 0.0
C317 C 0.85521 0.23061 0.18922 0.0
C318 C 1.06448 0.48007 0.03543 0.0
C319 C 1.13562 0.51361 0.05754 0.0
H320 H 1.01154 0.4572 0.98019 0.0
C321 C 0.21007 0.55043 0.03965 0.0
H322 H 1.00619 0.4509 0.0484 0.0
C323 C 0.21356 0.55518 0.00055 0.0
C324 C 0.14253 0.52265 0.97818 0.0
H325 H 0.2661 0.57706 0.05593 0.0
H326 H 0.27233 0.58594 0.988 0.0
C327 C 1.0678 0.48416 -0.00373 0.0
C328 C 0.66169 1.00259 0.3468 0.0
C329 C 0.73485 0.03909 0.36767 0.0
H330 H 0.6052 0.97802 0.29196 0.0
C331 C 0.80808 0.07999 0.34886 0.0
H332 H 0.6044 0.97062 0.3607 0.0
C333 C 0.80856 0.08447 0.30998 0.0
C334 C 0.73577 0.04787 0.28888 0.0
H335 H 0.86539 0.10869 0.36423 0.0
H336 H 0.86619 0.11613 0.29634 0.0
C337 C 0.66216 1.00658 0.3076 0.0
C338 C 0.72422 0.54073 0.72361 0.0
C339 C 0.6502 0.49119 0.74007 0.0
H340 H 0.78582 0.58907 0.67295 0.0
C341 C 0.58112 0.44893 0.71703 0.0
H342 H 0.77861 0.57362 0.74068 0.0
C343 C 0.58582 0.45698 0.67812 0.0
C344 C 0.65931 0.508 0.66193 0.0
H345 H 0.52346 0.41016 0.72907 0.0
H346 H 0.53166 0.42467 0.6608 0.0
C347 C 0.72852 0.5495 0.68493 0.0
C348 C 0.59242 1.01429 0.59725 0.0
C349 C 0.65578 0.03735 0.57347 0.0
H350 H 0.5531 0.99574 0.65392 0.0
C351 C 0.73054 0.06219 0.58919 0.0
H352 H 0.53434 0.99526 0.58583 0.0
C353 C 0.74077 0.06162 0.62791 0.0
C354 C 0.67706 0.0376 0.65167 0.0
H355 H 0.78076 0.08111 0.57155 0.0
H356 H 0.79832 0.07947 0.63935 0.0
C357 C 0.60322 1.01492 0.6361 0.0
C358 C 0.85227 0.67054 0.95578 0.0
C359 C 0.77448 0.6225 0.94045 0.0
H360 H 0.92369 0.72801 0.00303 0.0
C361 C 0.70685 0.59534 0.96213 0.0
H362 H 0.90561 0.69218 0.93979 0.0
C363 C 0.71742 0.61636 -0.00129 0.0
C364 C 0.79563 0.66513 0.0137 0.0
H365 H 0.64624 0.55846 0.95079 0.0
H366 H 0.66478 0.59465 0.01527 0.0
C367 C 0.86271 0.69176 -0.00815 0.0
C368 C 1.12871 0.44522 0.27525 0.0
C369 C 0.20594 0.48374 0.26047 0.0
H370 H 1.05902 0.41619 0.32404 0.0
C371 C 0.27414 0.52224 0.28437 0.0
H372 H 1.07542 0.41595 0.25703 0.0
C373 C 0.26521 0.52171 0.3229 0.0
C374 C 0.18775 0.48332 0.33807 0.0
H375 H 0.3343 0.55272 0.27321 0.0
H376 H 0.31901 0.55092 0.34077 0.0
C377 C 1.11961 0.44532 0.31364 0.0
loop_
_geom_bond_atom_site_label_1
_geom_bond_atom_site_label_2
_geom_bond_distance
_geom_bond_site_symmetry_2
_ccdc_geom_bond_type
Ho0 C3 2.811 . S
Ho0 O20 2.322 . S
Ho0 O22 2.378 . S
Ho0 O23 2.524 . S
Ho0 O24 2.381 . S
Ho0 O25 2.669 1_455 S
Ho0 O27 2.346 1_455 S
Ho0 O31 2.305 . S
Ho1 C12 2.811 . S
Ho1 O21 2.346 1_655 S
Ho1 O25 2.305 . S
Ho1 O26 2.322 . S
Ho1 O28 2.378 . S
Ho1 O29 2.524 . S
Ho1 O30 2.381 . S
Ho1 O31 2.669 1_655 S
C2 O20 1.259 . S
C2 O21 1.268 . S
C3 Ho0 2.811 . S
C3 C4 1.488 . S
C3 O22 1.215 . S
C3 O23 1.289 . S
C4 C3 1.488 . S
C4 C5 1.348 . S
C4 C9 1.413 . S
C5 C4 1.348 . S
C5 C6 1.442 . S
C5 H32 0.930 . S
C6 C5 1.442 . S
C6 C7 1.381 . S
C6 H33 0.931 . S
C7 C6 1.381 . S
C7 C8 1.321 . S
C8 C7 1.321 . S
C8 C9 1.403 . S
C8 H34 0.934 . S
C9 C4 1.413 . S
C9 C8 1.403 . S
C9 H35 0.930 . S
C10 O24 1.275 . S
C10 O25 1.256 1_455 S
C11 O26 1.259 . S
C11 O27 1.268 . S
C12 Ho1 2.811 . S
C12 C13 1.488 . S
C12 O28 1.215 . S
C12 O29 1.289 . S
C13 C12 1.488 . S
C13 C14 1.348 . S
C13 C18 1.413 . S
C14 C13 1.348 . S
C14 C15 1.442 . S
C14 H36 0.930 . S
C15 C14 1.442 . S
C15 C16 1.381 . S
C15 H37 0.931 . S
C16 C15 1.381 . S
C16 C17 1.321 . S
C17 C16 1.321 . S
C17 C18 1.403 . S
C17 H38 0.934 . S
C18 C13 1.413 . S
C18 C17 1.403 . S
C18 H39 0.930 . S
C19 O30 1.275 1_455 S
C19 O31 1.256 . S
O20 Ho0 2.322 . S
O20 C2 1.259 . S
O21 Ho1 2.346 1_455 S
O21 C2 1.268 . S
O22 Ho0 2.378 . S
O22 C3 1.215 . S
O23 Ho0 2.524 . S
O23 C3 1.289 . S
O24 Ho0 2.381 . S
O24 C10 1.275 . S
O25 Ho0 2.669 1_655 S
O25 Ho1 2.305 . S
O25 C10 1.256 1_655 S
O26 Ho1 2.322 . S
O26 C11 1.259 . S
O27 Ho0 2.346 1_655 S
O27 C11 1.268 . S
O28 Ho1 2.378 . S
O28 C12 1.215 . S
O29 Ho1 2.524 . S
O29 C12 1.289 . S
O30 Ho1 2.381 . S
O30 C19 1.275 1_655 S
O31 Ho0 2.305 . S
O31 Ho1 2.669 1_455 S
O31 C19 1.256 . S
H32 C5 0.930 . S
H33 C6 0.931 . S
H34 C8 0.934 . S
H35 C9 0.930 . S
H36 C14 0.930 . S
H37 C15 0.931 . S
H38 C17 0.934 . S
H39 C18 0.930 . S
Ho40 C43 2.811 1_545 S
Ho40 O60 2.322 1_545 S
Ho40 O62 2.378 1_545 S
Ho40 O63 2.524 1_545 S
Ho40 O64 2.381 . S
Ho40 O65 2.669 . S
Ho40 O67 2.346 . S
Ho40 O71 2.305 . S
Ho41 C52 2.811 . S
Ho41 O61 2.346 1_545 S
Ho41 O65 2.305 . S
Ho41 O66 2.322 . S
Ho41 O68 2.378 . S
Ho41 O69 2.524 . S
Ho41 O70 2.381 . S
Ho41 O71 2.669 . S
C42 O60 1.259 . S
C42 O61 1.268 . S
C43 Ho40 2.811 1_565 S
C43 C44 1.488 . S
C43 O62 1.215 . S
C43 O63 1.289 . S
C44 C43 1.488 . S
C44 C45 1.348 . S
C44 C49 1.413 . S
C45 C44 1.348 . S
C45 C46 1.442 . S
C45 H72 0.930 . S
C46 C45 1.442 . S
C46 C47 1.381 . S
C46 H73 0.931 . S
C47 C46 1.381 . S
C47 C48 1.321 . S
C48 C47 1.321 . S
C48 C49 1.403 . S
C48 H74 0.934 . S
C49 C44 1.413 . S
C49 C48 1.403 . S
C49 H75 0.930 . S
C50 O64 1.275 . S
C50 O65 1.256 . S
C51 O66 1.259 . S
C51 O67 1.268 . S
C52 Ho41 2.811 . S
C52 C53 1.488 . S
C52 O68 1.215 . S
C52 O69 1.289 . S
C53 C52 1.488 . S
C53 C54 1.348 . S
C53 C58 1.413 . S
C54 C53 1.348 . S
C54 C55 1.442 . S
C54 H76 0.930 . S
C55 C54 1.442 . S
C55 C56 1.381 . S
C55 H77 0.931 . S
C56 C55 1.381 . S
C56 C57 1.321 . S
C57 C56 1.321 . S
C57 C58 1.403 . S
C57 H78 0.934 . S
C58 C53 1.413 . S
C58 C57 1.403 . S
C58 H79 0.930 . S
C59 O70 1.275 . S
C59 O71 1.256 . S
O60 Ho40 2.322 1_565 S
O60 C42 1.259 . S
O61 Ho41 2.346 1_565 S
O61 C42 1.268 . S
O62 Ho40 2.378 1_565 S
O62 C43 1.215 . S
O63 Ho40 2.524 1_565 S
O63 C43 1.289 . S
O64 Ho40 2.381 . S
O64 C50 1.275 . S
O65 Ho40 2.669 . S
O65 Ho41 2.305 . S
O65 C50 1.256 . S
O66 Ho41 2.322 . S
O66 C51 1.259 . S
O67 Ho40 2.346 . S
O67 C51 1.268 . S
O68 Ho41 2.378 . S
O68 C52 1.215 . S
O69 Ho41 2.524 . S
O69 C52 1.289 . S
O70 Ho41 2.381 . S
O70 C59 1.275 . S
O71 Ho40 2.305 . S
O71 Ho41 2.669 . S
O71 C59 1.256 . S
H72 C45 0.930 . S
H73 C46 0.931 . S
H74 C48 0.934 . S
H75 C49 0.930 . S
H76 C54 0.930 . S
H77 C55 0.931 . S
H78 C57 0.934 . S
H79 C58 0.930 . S
Ho80 C83 2.811 . S
Ho80 O100 2.322 . S
Ho80 O102 2.378 . S
Ho80 O103 2.524 . S
Ho80 O104 2.381 . S
Ho80 O105 2.669 . S
Ho80 O107 2.346 . S
Ho80 O111 2.305 . S
Ho81 C92 2.811 . S
Ho81 O101 2.346 . S
Ho81 O105 2.305 . S
Ho81 O106 2.322 . S
Ho81 O108 2.378 . S
Ho81 O109 2.524 . S
Ho81 O110 2.381 . S
Ho81 O111 2.669 . S
C82 O100 1.259 . S
C82 O101 1.268 . S
C83 Ho80 2.811 . S
C83 C84 1.488 . S
C83 O102 1.215 . S
C83 O103 1.289 . S
C84 C83 1.488 . S
C84 C85 1.348 . S
C84 C89 1.413 . S
C85 C84 1.348 . S
C85 C86 1.442 . S
C85 H112 0.930 . S
C86 C85 1.442 . S
C86 C87 1.381 . S
C86 H113 0.931 . S
C87 C86 1.381 . S
C87 C88 1.321 . S
C88 C87 1.321 . S
C88 C89 1.403 . S
C88 H114 0.934 . S
C89 C84 1.413 . S
C89 C88 1.403 . S
C89 H115 0.930 . S
C90 O104 1.275 . S
C90 O105 1.256 . S
C91 O106 1.259 . S
C91 O107 1.268 . S
C92 Ho81 2.811 . S
C92 C93 1.488 . S
C92 O108 1.215 . S
C92 O109 1.289 . S
C93 C92 1.488 . S
C93 C94 1.348 . S
C93 C98 1.413 . S
C94 C93 1.348 . S
C94 C95 1.442 . S
C94 H116 0.930 . S
C95 C94 1.442 . S
C95 C96 1.381 . S
C95 H117 0.931 . S
C96 C95 1.381 . S
C96 C97 1.321 . S
C97 C96 1.321 . S
C97 C98 1.403 . S
C97 H118 0.934 . S
C98 C93 1.413 . S
C98 C97 1.403 . S
C98 H119 0.930 . S
C99 O110 1.275 . S
C99 O111 1.256 . S
O100 Ho80 2.322 . S
O100 C82 1.259 . S
O101 Ho81 2.346 . S
O101 C82 1.268 . S
O102 Ho80 2.378 . S
O102 C83 1.215 . S
O103 Ho80 2.524 . S
O103 C83 1.289 . S
O104 Ho80 2.381 . S
O104 C90 1.275 . S
O105 Ho80 2.669 . S
O105 Ho81 2.305 . S
O105 C90 1.256 . S
O106 Ho81 2.322 . S
O106 C91 1.259 . S
O107 Ho80 2.346 . S
O107 C91 1.268 . S
O108 Ho81 2.378 . S
O108 C92 1.215 . S
O109 Ho81 2.524 . S
O109 C92 1.289 . S
O110 Ho81 2.381 . S
O110 C99 1.275 . S
O111 Ho80 2.305 . S
O111 Ho81 2.669 . S
O111 C99 1.256 . S
H112 C85 0.930 . S
H113 C86 0.931 . S
H114 C88 0.934 . S
H115 C89 0.930 . S
H116 C94 0.930 . S
H117 C95 0.931 . S
H118 C97 0.934 . S
H119 C98 0.930 . S
H120 C127 0.929 . S
H121 C130 0.930 . S
H122 C132 0.929 . S
H123 C124 0.969 . S
C124 H123 0.969 . S
C124 O125 1.550 . S
C124 H126 0.973 . S
O125 C124 1.550 . S
O125 C131 1.412 . S
H126 C124 0.973 . S
C127 H120 0.929 . S
C127 C128 1.400 . S
C127 C129 1.364 . S
C128 C127 1.400 . S
C128 C132 1.377 . S
C129 C127 1.364 . S
C129 C130 1.374 1_545 S
C130 H121 0.930 . S
C130 C129 1.374 1_565 S
C130 C131 1.383 . S
C131 O125 1.412 . S
C131 C130 1.383 . S
C131 C132 1.394 1_565 S
C132 H122 0.929 . S
C132 C128 1.377 . S
C132 C131 1.394 1_545 S
H133 C140 0.929 . S
H134 C143 0.930 . S
H135 C145 0.929 . S
H136 C137 0.969 . S
C137 H136 0.969 . S
C137 O138 1.550 . S
C137 H139 0.973 . S
O138 C137 1.550 . S
O138 C144 1.412 . S
H139 C137 0.973 . S
C140 H133 0.929 . S
C140 C141 1.400 . S
C140 C142 1.364 . S
C141 C140 1.400 . S
C141 C145 1.377 . S
C142 C140 1.364 . S
C142 C143 1.374 . S
C143 H134 0.930 . S
C143 C142 1.374 . S
C143 C144 1.383 . S
C144 O138 1.412 . S
C144 C143 1.383 . S
C144 C145 1.394 . S
C145 H135 0.929 . S
C145 C141 1.377 . S
C145 C144 1.394 . S
H146 C153 0.929 1_655 S
H147 C156 0.930 . S
H148 C158 0.929 . S
H149 C150 0.969 . S
C150 H149 0.969 . S
C150 O151 1.550 . S
C150 H152 0.973 . S
O151 C150 1.550 . S
O151 C157 1.412 . S
H152 C150 0.973 . S
C153 H146 0.929 1_455 S
C153 C154 1.400 . S
C153 C155 1.364 . S
C154 C153 1.400 . S
C154 C158 1.377 . S
C155 C153 1.364 . S
C155 C156 1.374 . S
C156 H147 0.930 . S
C156 C155 1.374 . S
C156 C157 1.383 . S
C157 O151 1.412 . S
C157 C156 1.383 . S
C157 C158 1.394 . S
C158 H148 0.929 . S
C158 C154 1.377 . S
C158 C157 1.394 . S
H159 C166 0.929 . S
H160 C169 0.930 . S
H161 C171 0.929 . S
H162 C163 0.969 . S
C163 H162 0.969 . S
C163 O164 1.550 . S
C163 H165 0.973 . S
O164 C163 1.550 . S
O164 C170 1.412 . S
H165 C163 0.973 . S
C166 H159 0.929 . S
C166 C167 1.400 . S
C166 C168 1.364 1_655 S
C167 C166 1.400 . S
C167 C171 1.377 1_655 S
C168 C166 1.364 1_455 S
C168 C169 1.374 . S
C169 H160 0.930 . S
C169 C168 1.374 . S
C169 C170 1.383 . S
C170 O164 1.412 . S
C170 C169 1.383 . S
C170 C171 1.394 . S
C171 H161 0.929 . S
C171 C167 1.377 1_455 S
C171 C170 1.394 . S
H172 C179 0.929 . S
H173 C182 0.930 . S
H174 C184 0.929 . S
H175 C176 0.969 . S
C176 H175 0.969 . S
C176 O177 1.550 . S
C176 H178 0.973 . S
O177 C176 1.550 . S
O177 C183 1.412 . S
H178 C176 0.973 . S
C179 H172 0.929 . S
C179 C180 1.400 . S
C179 C181 1.364 1_565 S
C180 C179 1.400 . S
C180 C184 1.377 . S
C181 C179 1.364 1_545 S
C181 C182 1.374 . S
C182 H173 0.930 . S
C182 C181 1.374 . S
C182 C183 1.383 . S
C183 O177 1.412 . S
C183 C182 1.383 . S
C183 C184 1.394 1_545 S
C184 H174 0.929 . S
C184 C180 1.377 . S
C184 C183 1.394 1_565 S
H185 C192 0.929 . S
H186 C195 0.930 . S
H187 C197 0.929 . S
H188 C189 0.969 . S
C189 H188 0.969 . S
C189 O190 1.550 . S
C189 H191 0.973 . S
O190 C189 1.550 . S
O190 C196 1.412 . S
H191 C189 0.973 . S
C192 H185 0.929 . S
C192 C193 1.400 . S
C192 C194 1.364 . S
C193 C192 1.400 . S
C193 C197 1.377 . S
C194 C192 1.364 . S
C194 C195 1.374 . S
C195 H186 0.930 . S
C195 C194 1.374 . S
C195 C196 1.383 . S
C196 O190 1.412 . S
C196 C195 1.383 . S
C196 C197 1.394 . S
C197 H187 0.929 . S
C197 C193 1.377 . S
C197 C196 1.394 . S
C198 C199 1.387 . S
C198 H202 0.950 . S
C198 C207 1.390 . S
C199 C198 1.387 . S
C199 C201 1.387 . S
H200 C207 0.950 . S
C201 C199 1.387 . S
C201 C203 1.390 . S
C201 H205 0.950 . S
H202 C198 0.950 . S
C203 C201 1.390 . S
C203 C204 1.387 . S
C203 H206 0.950 . S
C204 C203 1.387 . S
C204 C207 1.387 . S
H205 C201 0.950 . S
H206 C203 0.950 . S
C207 C198 1.390 . S
C207 H200 0.950 . S
C207 C204 1.387 . S
C208 C209 1.387 . S
C208 H212 0.950 . S
C208 C217 1.390 . S
C209 C208 1.387 . S
C209 C211 1.387 . S
H210 C217 0.950 . S
C211 C209 1.387 . S
C211 C213 1.390 . S
C211 H215 0.950 . S
H212 C208 0.950 . S
C213 C211 1.390 . S
C213 C214 1.387 . S
C213 H216 0.950 . S
C214 C213 1.387 . S
C214 C217 1.387 . S
H215 C211 0.950 . S
H216 C213 0.950 . S
C217 C208 1.390 . S
C217 H210 0.950 . S
C217 C214 1.387 . S
C218 C219 1.387 . S
C218 H222 0.950 . S
C218 C227 1.390 . S
C219 C218 1.387 . S
C219 C221 1.387 . S
H220 C227 0.950 . S
C221 C219 1.387 . S
C221 C223 1.390 . S
C221 H225 0.950 . S
H222 C218 0.950 . S
C223 C221 1.390 . S
C223 C224 1.387 . S
C223 H226 0.950 . S
C224 C223 1.387 . S
C224 C227 1.387 . S
H225 C221 0.950 . S
H226 C223 0.950 . S
C227 C218 1.390 . S
C227 H220 0.950 . S
C227 C224 1.387 . S
C228 C229 1.387 . S
C228 H232 0.950 . S
C228 C237 1.390 . S
C229 C228 1.387 . S
C229 C231 1.387 . S
H230 C237 0.950 . S
C231 C229 1.387 . S
C231 C233 1.390 . S
C231 H235 0.950 . S
H232 C228 0.950 . S
C233 C231 1.390 . S
C233 C234 1.387 . S
C233 H236 0.950 . S
C234 C233 1.387 . S
C234 C237 1.387 . S
H235 C231 0.950 . S
H236 C233 0.950 . S
C237 C228 1.390 . S
C237 H230 0.950 . S
C237 C234 1.387 . S
C238 C239 1.387 . S
C238 H242 0.950 . S
C238 C247 1.390 . S
C239 C238 1.387 . S
C239 C241 1.387 . S
H240 C247 0.950 . S
C241 C239 1.387 . S
C241 C243 1.390 . S
C241 H245 0.950 . S
H242 C238 0.950 . S
C243 C241 1.390 . S
C243 C244 1.387 . S
C243 H246 0.950 . S
C244 C243 1.387 . S
C244 C247 1.387 . S
H245 C241 0.950 . S
H246 C243 0.950 . S
C247 C238 1.390 . S
C247 H240 0.950 . S
C247 C244 1.387 . S
C248 C249 1.387 . S
C248 H252 0.950 . S
C248 C257 1.390 . S
C249 C248 1.387 . S
C249 C251 1.387 . S
H250 C257 0.950 . S
C251 C249 1.387 . S
C251 C253 1.390 . S
C251 H255 0.950 . S
H252 C248 0.950 . S
C253 C251 1.390 . S
C253 C254 1.387 . S
C253 H256 0.950 . S
C254 C253 1.387 . S
C254 C257 1.387 . S
H255 C251 0.950 . S
H256 C253 0.950 . S
C257 C248 1.390 . S
C257 H250 0.950 . S
C257 C254 1.387 . S
C258 C259 1.387 . S
C258 H262 0.950 . S
C258 C267 1.390 . S
C259 C258 1.387 . S
C259 C261 1.387 . S
H260 C267 0.950 . S
C261 C259 1.387 . S
C261 C263 1.390 . S
C261 H265 0.950 . S
H262 C258 0.950 . S
C263 C261 1.390 . S
C263 C264 1.387 . S
C263 H266 0.950 . S
C264 C263 1.387 . S
C264 C267 1.387 . S
H265 C261 0.950 . S
H266 C263 0.950 . S
C267 C258 1.390 . S
C267 H260 0.950 . S
C267 C264 1.387 . S
C268 C269 1.387 . S
C268 H272 0.950 . S
C268 C277 1.390 . S
C269 C268 1.387 . S
C269 C271 1.387 . S
H270 C277 0.950 . S
C271 C269 1.387 . S
C271 C273 1.390 . S
C271 H275 0.950 . S
H272 C268 0.950 . S
C273 C271 1.390 . S
C273 C274 1.387 . S
C273 H276 0.950 . S
C274 C273 1.387 . S
C274 C277 1.387 . S
H275 C271 0.950 . S
H276 C273 0.950 . S
C277 C268 1.390 . S
C277 H270 0.950 . S
C277 C274 1.387 . S
C278 C279 1.387 . S
C278 H282 0.950 . S
C278 C287 1.390 . S
C279 C278 1.387 . S
C279 C281 1.387 . S
H280 C287 0.950 . S
C281 C279 1.387 . S
C281 C283 1.390 . S
C281 H285 0.950 . S
H282 C278 0.950 . S
C283 C281 1.390 . S
C283 C284 1.387 . S
C283 H286 0.950 . S
C284 C283 1.387 . S
C284 C287 1.387 . S
H285 C281 0.950 . S
H286 C283 0.950 . S
C287 C278 1.390 . S
C287 H280 0.950 . S
C287 C284 1.387 . S
C288 C289 1.387 . S
C288 H292 0.950 . S
C288 C297 1.390 . S
C289 C288 1.387 . S
C289 C291 1.387 . S
H290 C297 0.950 . S
C291 C289 1.387 . S
C291 C293 1.390 . S
C291 H295 0.950 . S
H292 C288 0.950 . S
C293 C291 1.390 . S
C293 C294 1.387 . S
C293 H296 0.950 . S
C294 C293 1.387 . S
C294 C297 1.387 . S
H295 C291 0.950 . S
H296 C293 0.950 . S
C297 C288 1.390 . S
C297 H290 0.950 . S
C297 C294 1.387 . S
C298 C299 1.387 . S
C298 H302 0.950 . S
C298 C307 1.390 . S
C299 C298 1.387 . S
C299 C301 1.387 . S
H300 C307 0.950 . S
C301 C299 1.387 . S
C301 C303 1.390 . S
C301 H305 0.950 . S
H302 C298 0.950 . S
C303 C301 1.390 . S
C303 C304 1.387 . S
C303 H306 0.950 . S
C304 C303 1.387 . S
C304 C307 1.387 . S
H305 C301 0.950 . S
H306 C303 0.950 . S
C307 C298 1.390 . S
C307 H300 0.950 . S
C307 C304 1.387 . S
C308 C309 1.387 . S
C308 H312 0.950 . S
C308 C317 1.390 . S
C309 C308 1.387 . S
C309 C311 1.387 . S
H310 C317 0.950 . S
C311 C309 1.387 . S
C311 C313 1.390 . S
C311 H315 0.950 . S
H312 C308 0.950 . S
C313 C311 1.390 . S
C313 C314 1.387 . S
C313 H316 0.950 . S
C314 C313 1.387 . S
C314 C317 1.387 . S
H315 C311 0.950 . S
H316 C313 0.950 . S
C317 C308 1.390 . S
C317 H310 0.950 . S
C317 C314 1.387 . S
C318 C319 1.387 1_655 S
C318 H322 0.950 . S
C318 C327 1.390 1_654 S
C319 C318 1.387 1_455 S
C319 C321 1.387 . S
H320 C327 0.950 1_655 S
C321 C319 1.387 . S
C321 C323 1.390 . S
C321 H325 0.950 . S
H322 C318 0.950 . S
C323 C321 1.390 . S
C323 C324 1.387 1_554 S
C323 H326 0.950 1_554 S
C324 C323 1.387 1_556 S
C324 C327 1.387 . S
H325 C321 0.950 . S
H326 C323 0.950 1_556 S
C327 C318 1.390 1_456 S
C327 H320 0.950 1_455 S
C327 C324 1.387 . S
C328 C329 1.387 . S
C328 H332 0.950 . S
C328 C337 1.390 . S
C329 C328 1.387 . S
C329 C331 1.387 1_545 S
H330 C337 0.950 . S
C331 C329 1.387 1_565 S
C331 C333 1.390 . S
C331 H335 0.950 . S
H332 C328 0.950 . S
C333 C331 1.390 . S
C333 C334 1.387 1_565 S
C333 H336 0.950 . S
C334 C333 1.387 1_545 S
C334 C337 1.387 . S
H335 C331 0.950 . S
H336 C333 0.950 . S
C337 C328 1.390 . S
C337 H330 0.950 . S
C337 C334 1.387 . S
C338 C339 1.387 . S
C338 H342 0.950 . S
C338 C347 1.390 . S
C339 C338 1.387 . S
C339 C341 1.387 . S
H340 C347 0.950 . S
C341 C339 1.387 . S
C341 C343 1.390 . S
C341 H345 0.950 . S
H342 C338 0.950 . S
C343 C341 1.390 . S
C343 C344 1.387 . S
C343 H346 0.950 . S
C344 C343 1.387 . S
C344 C347 1.387 . S
H345 C341 0.950 . S
H346 C343 0.950 . S
C347 C338 1.390 . S
C347 H340 0.950 . S
C347 C344 1.387 . S
C348 C349 1.387 1_565 S
C348 H352 0.950 . S
C348 C357 1.390 . S
C349 C348 1.387 1_545 S
C349 C351 1.387 . S
H350 C357 0.950 . S
C351 C349 1.387 . S
C351 C353 1.390 . S
C351 H355 0.950 . S
H352 C348 0.950 . S
C353 C351 1.390 . S
C353 C354 1.387 . S
C353 H356 0.950 . S
C354 C353 1.387 . S
C354 C357 1.387 1_545 S
H355 C351 0.950 . S
H356 C353 0.950 . S
C357 C348 1.390 . S
C357 H350 0.950 . S
C357 C354 1.387 1_565 S
C358 C359 1.387 . S
C358 H362 0.950 . S
C358 C367 1.390 1_556 S
C359 C358 1.387 . S
C359 C361 1.387 . S
H360 C367 0.950 . S
C361 C359 1.387 . S
C361 C363 1.390 . S
C361 H365 0.950 . S
H362 C358 0.950 . S
C363 C361 1.390 . S
C363 C364 1.387 1_556 S
C363 H366 0.950 . S
C364 C363 1.387 1_554 S
C364 C367 1.387 . S
H365 C361 0.950 . S
H366 C363 0.950 . S
C367 C358 1.390 1_554 S
C367 H360 0.950 . S
C367 C364 1.387 . S
C368 C369 1.387 . S
C368 H372 0.950 . S
C368 C377 1.390 . S
C369 C368 1.387 . S
C369 C371 1.387 1_655 S
H370 C377 0.950 . S
C371 C369 1.387 1_455 S
C371 C373 1.390 . S
C371 H375 0.950 . S
H372 C368 0.950 . S
C373 C371 1.390 . S
C373 C374 1.387 . S
C373 H376 0.950 . S
C374 C373 1.387 . S
C374 C377 1.387 1_455 S
H375 C371 0.950 . S
H376 C373 0.950 . S
C377 C368 1.390 . S
C377 H370 0.950 . S
C377 C374 1.387 1_655 S
C199 C7 0.992 . S
C204 C189 1.113 . S
C209 C51 1.881 . S
C214 C167 1.849 . S
C219 C87 1.360 . S
C224 C180 1.396 . S
C229 C16 0.740 . S
C234 C193 0.736 . S
C244 C163 1.864 . S
C239 C42 2.044 . S
C254 C176 1.365 . S
C249 C96 1.378 . S
C259 C47 1.163 . S
C264 C141 1.175 . S
C269 C91 3.092 . S
C274 C154 3.052 1_655 S
C279 C2 2.065 . S
C284 C124 1.905 . S
C294 C137 1.443 . S
C289 C56 1.410 . S
C304 C150 2.914 . S
C299 C82 3.104 . S
C309 C11 1.894 . S
C314 C128 1.889 . S
C324 C155 1.780 . S
C319 C19 1.738 . S
C329 C50 1.450 . S
C334 C129 1.473 . S
C339 C99 1.500 . S
C344 C142 1.604 . S
C354 C181 1.533 . S
C349 C59 1.461 . S
C364 C194 1.270 . S
C359 C90 1.282 . S
C369 C10 1.404 1_655 S
C374 C168 1.453 . S
