# Generated by pormake.
# Topology pyr, (3,6)-cn, num edge types: 1
# Building blocks:
#     Node 0, Type 0, BuildingBlock: BETDIP_clean_linker_0, # of connection points: 3
#     Node 1, Type 0, BuildingBlock: BETDIP_clean_linker_0, # of connection points: 3
#     Node 2, Type 0, BuildingBlock: BETDIP_clean_linker_0, # of connection points: 3
#     Node 3, Type 0, BuildingBlock: BETDIP_clean_linker_0, # of connection points: 3
#     Node 4, Type 0, BuildingBlock: BETDIP_clean_linker_0, # of connection points: 3
#     Node 5, Type 0, BuildingBlock: BETDIP_clean_linker_0, # of connection points: 3
#     Node 6, Type 0, BuildingBlock: BETDIP_clean_linker_0, # of connection points: 3
#     Node 7, Type 0, BuildingBlock: BETDIP_clean_linker_0, # of connection points: 3
#     Node 8, Type 1, BuildingBlock: BETGAK_clean_sbu_0, # of connection points: 6
#     Node 9, Type 1, BuildingBlock: BETGAK_clean_sbu_0, # of connection points: 6
#     Node 10, Type 1, BuildingBlock: BETGAK_clean_sbu_0, # of connection points: 6
#     Node 11, Type 1, BuildingBlock: BETGAK_clean_sbu_0, # of connection points: 6
#     Edge 12, Type (0, 1), BuildingBlock: CIFDUS_clean_linker_0, # of connection points: 2
#     Edge 13, Type (0, 1), BuildingBlock: CIFDUS_clean_linker_0, # of connection points: 2
#     Edge 14, Type (0, 1), BuildingBlock: CIFDUS_clean_linker_0, # of connection points: 2
#     Edge 15, Type (0, 1), BuildingBlock: CIFDUS_clean_linker_0, # of connection points: 2
#     Edge 16, Type (0, 1), BuildingBlock: CIFDUS_clean_linker_0, # of connection points: 2
#     Edge 17, Type (0, 1), BuildingBlock: CIFDUS_clean_linker_0, # of connection points: 2
#     Edge 18, Type (0, 1), BuildingBlock: CIFDUS_clean_linker_0, # of connection points: 2
#     Edge 19, Type (0, 1), BuildingBlock: CIFDUS_clean_linker_0, # of connection points: 2
#     Edge 20, Type (0, 1), BuildingBlock: CIFDUS_clean_linker_0, # of connection points: 2
#     Edge 21, Type (0, 1), BuildingBlock: CIFDUS_clean_linker_0, # of connection points: 2
#     Edge 22, Type (0, 1), BuildingBlock: CIFDUS_clean_linker_0, # of connection points: 2
#     Edge 23, Type (0, 1), BuildingBlock: CIFDUS_clean_linker_0, # of connection points: 2
#     Edge 24, Type (0, 1), BuildingBlock: CIFDUS_clean_linker_0, # of connection points: 2
#     Edge 25, Type (0, 1), BuildingBlock: CIFDUS_clean_linker_0, # of connection points: 2
#     Edge 26, Type (0, 1), BuildingBlock: CIFDUS_clean_linker_0, # of connection points: 2
#     Edge 27, Type (0, 1), BuildingBlock: CIFDUS_clean_linker_0, # of connection points: 2
#     Edge 28, Type (0, 1), BuildingBlock: CIFDUS_clean_linker_0, # of connection points: 2
#     Edge 29, Type (0, 1), BuildingBlock: CIFDUS_clean_linker_0, # of connection points: 2
#     Edge 30, Type (0, 1), BuildingBlock: CIFDUS_clean_linker_0, # of connection points: 2
#     Edge 31, Type (0, 1), BuildingBlock: CIFDUS_clean_linker_0, # of connection points: 2
#     Edge 32, Type (0, 1), BuildingBlock: CIFDUS_clean_linker_0, # of connection points: 2
#     Edge 33, Type (0, 1), BuildingBlock: CIFDUS_clean_linker_0, # of connection points: 2
#     Edge 34, Type (0, 1), BuildingBlock: CIFDUS_clean_linker_0, # of connection points: 2
#     Edge 35, Type (0, 1), BuildingBlock: CIFDUS_clean_linker_0, # of connection points: 2
# Relax obj value: 0.154
# Max RMSD: 0.171
# Mean RMSD: 0.137
data_MOF--net-pyr--node1-BETGAK_clean_sbu_0--node2-BETDIP_clean_linker_0--edge1-CIFDUS_clean_linker_0
_symmetry_space_group_name_H-M    P1
_symmetry_Int_Tables_number       1
_symmetry_cell_setting            triclinic
loop_
_symmetry_equiv_pos_as_xyz
'x, y, z'
_cell_length_a     32.847374
_cell_length_b     34.647412
_cell_length_c     32.825004
_cell_angle_alpha  92.514332
_cell_angle_beta   86.375437
_cell_angle_gamma 107.5295
loop_
_atom_site_label
_atom_site_type_symbol
_atom_site_fract_x
_atom_site_fract_y
_atom_site_fract_z
_atom_type_partial_charge
H0 H 0.35858 0.36045 0.23923 0.0
H1 H 0.44491 0.33501 0.1453 0.0
H2 H 0.39776 0.25324 0.24438 0.0
H3 H 0.40563 0.43245 0.216 0.0
C4 C 0.39172 0.42034 0.18721 0.0
C5 C 0.37797 0.34187 0.22695 0.0
C6 C 0.37581 0.30603 0.24644 0.0
C7 C 0.40322 0.35267 0.19065 0.0
C8 C 0.42663 0.3274 0.17404 0.0
C9 C 0.42514 0.29161 0.19352 0.0
C10 C 0.39991 0.28135 0.22986 0.0
N11 N 0.40177 0.38641 0.16836 0.0
H12 H 0.14433 0.84436 0.72226 0.0
H13 H 0.18362 0.7827 0.6174 0.0
H14 H 0.25778 0.80675 0.72344 0.0
H15 H 0.13152 0.80132 0.58356 0.0
C16 C 0.12862 0.82629 0.60354 0.0
C17 C 0.16601 0.82903 0.70793 0.0
C18 C 0.20156 0.82702 0.72844 0.0
C19 C 0.15974 0.81399 0.66773 0.0
C20 C 0.18792 0.79444 0.64845 0.0
C21 C 0.22284 0.79132 0.66904 0.0
C22 C 0.22953 0.80777 0.70867 0.0
N23 N 0.12753 0.82298 0.64655 0.0
H24 H 0.75216 0.46277 0.86714 0.0
H25 H 0.63955 0.35929 0.85723 0.0
H26 H 0.73226 0.36148 0.94528 0.0
H27 H 0.6421 0.38816 0.78841 0.0
C28 C 0.6528 0.42064 0.79433 0.0
C29 C 0.73315 0.43303 0.87702 0.0
C30 C 0.74816 0.41423 0.90798 0.0
C31 C 0.69444 0.41364 0.85757 0.0
C32 C 0.66971 0.37425 0.87068 0.0
C33 C 0.68296 0.35531 0.9031 0.0
C34 C 0.72214 0.37577 0.9207 0.0
N35 N 0.68098 0.43606 0.82726 0.0
H36 H 0.83952 0.66929 0.38246 0.0
H37 H 0.95379 0.7717 0.37392 0.0
H38 H 0.8598 0.76767 0.4714 0.0
H39 H 0.95881 0.75149 0.30982 0.0
C40 C 0.94328 0.71922 0.30628 0.0
C41 C 0.85861 0.69859 0.39373 0.0
C42 C 0.84488 0.71557 0.43008 0.0
C43 C 0.89743 0.71866 0.37223 0.0
C44 C 0.92307 0.75622 0.38838 0.0
C45 C 0.90926 0.77412 0.42396 0.0
C46 C 0.87016 0.7538 0.44403 0.0
N47 N 0.91004 0.69968 0.33559 0.0
H48 H 0.61479 0.79219 0.94228 0.0
H49 H 0.71823 0.75728 0.88063 0.0
H50 H 0.70522 0.87442 0.86129 0.0
H51 H 0.64664 0.66992 0.92931 0.0
C52 C 0.66747 0.70076 0.93239 0.0
C53 C 0.64273 0.79923 0.92134 0.0
C54 C 0.6568 0.83694 0.90235 0.0
C55 C 0.66475 0.77045 0.91422 0.0
C56 C 0.70135 0.77939 0.88748 0.0
C57 C 0.71634 0.81714 0.86903 0.0
C58 C 0.69368 0.84547 0.87604 0.0
N59 N 0.64804 0.73239 0.9333 0.0
H60 H 0.77906 0.15167 0.44287 0.0
H61 H 0.75629 0.2257 0.5453 0.0
H62 H 0.66976 0.1952 0.44755 0.0
H63 H 0.8487 0.19474 0.45538 0.0
C64 C 0.84706 0.18733 0.48741 0.0
C65 C 0.75933 0.16799 0.45907 0.0
C66 C 0.72266 0.17059 0.44135 0.0
C67 C 0.77178 0.18821 0.49643 0.0
C68 C 0.74614 0.20939 0.51697 0.0
C69 C 0.70899 0.21172 0.49963 0.0
C70 C 0.6973 0.19193 0.46203 0.0
N71 N 0.81091 0.18888 0.51279 0.0
H72 H 0.35268 0.68934 0.24067 0.0
H73 H 0.45969 0.79754 0.23708 0.0
H74 H 0.35776 0.78309 0.15596 0.0
H75 H 0.37642 0.69735 0.31532 0.0
C76 C 0.41009 0.70158 0.30759 0.0
C77 C 0.36855 0.71871 0.22799 0.0
C78 C 0.34978 0.73289 0.1959 0.0
C79 C 0.40829 0.74189 0.24325 0.0
C80 C 0.42899 0.78019 0.22601 0.0
C81 C 0.41089 0.79625 0.19491 0.0
C82 C 0.37155 0.77174 0.18012 0.0
N83 N 0.42978 0.72669 0.27341 0.0
H84 H 0.14333 0.3608 0.75181 0.0
H85 H 0.25223 0.4684 0.74842 0.0
H86 H 0.2474 0.36965 0.66298 0.0
H87 H 0.22114 0.49079 0.80083 0.0
C88 C 0.18987 0.47068 0.80966 0.0
C89 C 0.17444 0.37764 0.73881 0.0
C90 C 0.19322 0.36039 0.70582 0.0
C91 C 0.19526 0.41647 0.75518 0.0
C92 C 0.23567 0.43833 0.73729 0.0
C93 C 0.25464 0.42189 0.70364 0.0
C94 C 0.23316 0.38275 0.68858 0.0
N95 N 0.17409 0.4323 0.78876 0.0
La96 La 0.06638 0.08314 0.53033 0.0
La97 La 0.04901 1.0428 0.61133 0.0
C98 C 0.07453 0.1284 0.47037 0.0
C99 C 0.11034 0.15635 0.44729 0.0
C100 C 0.14859 0.14688 0.43801 0.0
C101 C 0.18114 0.17228 0.41361 0.0
C102 C 0.17637 0.20795 0.39842 0.0
C103 C 0.13857 0.21803 0.40911 0.0
C104 C 0.10579 0.19233 0.43321 0.0
C105 C 0.12214 1.04548 0.5492 0.0
C106 C 0.1011 0.13388 0.61132 0.0
C107 C 0.03708 0.9954 0.66994 0.0
C108 C 0.99679 0.96942 0.6885 0.0
C109 C 0.95898 0.97981 0.68572 0.0
C110 C 0.92043 0.95551 0.70283 0.0
C111 C 0.9185 0.91973 0.72256 0.0
C112 C 0.95642 0.90903 0.72484 0.0
C113 C 0.99531 0.93375 0.70792 0.0
C114 C 0.99275 0.07919 0.5929 0.0
C115 C 1.01288 0.99298 0.53018 0.0
O116 O 0.07215 0.09006 0.46705 0.0
O117 O 0.06704 0.13943 0.508 0.0
O118 O 0.11249 0.04975 0.51247 0.0
O119 O 0.10426 0.06565 0.57249 0.0
O120 O 0.08618 0.13438 0.57477 0.0
O121 O 0.09797 0.09895 0.62829 0.0
O122 O 0.04287 1.03432 0.67453 0.0
O123 O 0.04636 0.9855 0.63241 0.0
O124 O 1.00125 0.07424 0.62975 0.0
O125 O 1.01116 0.06 0.5691 0.0
O126 O 1.02886 0.99175 0.56609 0.0
O127 O 1.01569 1.02828 0.51442 0.0
H128 H 0.15296 0.11936 0.4488 0.0
H129 H 0.20944 0.16316 0.40556 0.0
H130 H 0.13409 0.24557 0.39855 0.0
H131 H 0.0766 0.20026 0.44036 0.0
H132 H 0.95922 1.00697 0.6705 0.0
H133 H 0.89224 0.96529 0.70116 0.0
H134 H 0.95604 0.88148 0.73941 0.0
H135 H 1.02412 0.925 0.70988 0.0
La136 La 0.57337 0.07814 0.05169 0.0
La137 La 0.5018 0.05861 1.00449 0.0
C138 C 0.64584 0.09852 0.08184 0.0
C139 C 0.65968 0.10795 0.12378 0.0
C140 C 0.63752 0.0841 0.15639 0.0
C141 C 0.64869 0.09537 0.19644 0.0
C142 C 0.6818 0.13089 0.20459 0.0
C143 C 0.70446 0.1543 0.17189 0.0
C144 C 0.69354 0.1428 0.13176 0.0
C145 C 0.51201 1.01257 0.07997 0.0
C146 C 0.50349 0.11493 0.08406 0.0
C147 C 0.42791 1.03623 0.97695 0.0
C148 C 0.39869 1.00338 0.95338 0.0
C149 C 0.38842 1.0118 0.91461 0.0
C150 C 0.35847 0.98272 0.89253 0.0
C151 C 0.33755 0.94458 0.90891 0.0
C152 C 0.34816 0.93585 0.94761 0.0
C153 C 0.37842 0.96507 0.96976 0.0
C154 C 0.56284 0.12377 0.9757 0.0
C155 C 0.57226 1.02319 0.97403 0.0
O156 O 0.62385 0.06111 0.0738 0.0
O157 O 0.62919 0.12412 0.06662 0.0
O158 O 0.5353 1.04168 0.1022 0.0
O159 O 0.52349 1.02095 1.04296 0.0
O160 O 0.54413 0.1182 0.08631 0.0
O161 O 0.48026 0.09057 0.05666 0.0
O162 O 0.46191 0.05853 0.95708 0.0
O163 O 0.43605 1.02883 1.01377 0.0
O164 O 0.5399 0.09401 0.95405 0.0
O165 O 0.55152 0.11623 1.01301 0.0
O166 O 0.53035 1.01342 0.97881 0.0
O167 O 0.5956 0.05534 0.99382 0.0
H168 H 0.61091 0.05729 0.1511 0.0
H169 H 0.6304 0.07709 0.22114 0.0
H170 H 0.73031 0.18169 0.17742 0.0
H171 H 0.71086 0.16164 0.10701 0.0
H172 H 0.4033 1.04119 0.90144 0.0
H173 H 0.35189 0.99014 0.86241 0.0
H174 H 0.33253 0.90676 0.96105 0.0
H175 H 0.38542 0.95784 0.9998 0.0
La176 La 0.53928 0.53608 0.51911 0.0
La177 La 0.53824 0.59829 0.58017 0.0
C178 C 0.56499 0.48723 0.47341 0.0
C179 C 0.58265 0.45452 0.48228 0.0
C180 C 0.56563 0.42862 0.51497 0.0
C181 C 0.58586 0.40073 0.52587 0.0
C182 C 0.62362 0.39873 0.50456 0.0
C183 C 0.64019 0.42432 0.47154 0.0
C184 C 0.61981 0.45195 0.46049 0.0
C185 C 0.46391 0.52352 0.5585 0.0
C186 C 0.57141 0.5291 0.61058 0.0
C187 C 0.51596 0.64854 0.62742 0.0
C188 C 0.48474 0.67101 0.62587 0.0
C189 C 0.4887 0.70547 0.65097 0.0
C190 C 0.4588 0.72676 0.65027 0.0
C191 C 0.42459 0.71411 0.62409 0.0
C192 C 0.42118 0.67973 0.59853 0.0
C193 C 0.45083 0.65823 0.59964 0.0
C194 C 0.61249 0.61033 0.53795 0.0
C195 C 0.50364 0.60307 0.49001 0.0
O196 O 0.52465 0.48191 0.48413 0.0
O197 O 0.58911 0.52348 0.48338 0.0
O198 O 0.46979 0.51583 0.5199 0.0
O199 O 0.49997 0.53643 0.57422 0.0
O200 O 0.56684 0.51545 0.57196 0.0
O201 O 0.56061 0.56193 0.62222 0.0
O202 O 0.5484 0.6586 0.60079 0.0
O203 O 0.49991 0.60927 0.63011 0.0
O204 O 0.60873 0.61829 0.57674 0.0
O205 O 0.57561 0.59779 0.52452 0.0
O206 O 0.50105 0.61149 0.53001 0.0
O207 O 0.52326 0.57632 0.47687 0.0
H208 H 0.5373 0.43053 0.53267 0.0
H209 H 0.57255 0.38137 0.55148 0.0
H210 H 0.66885 0.42284 0.45413 0.0
H211 H 0.63359 0.47195 0.43544 0.0
H212 H 0.51461 0.71562 0.67152 0.0
H213 H 0.46198 0.75257 0.67098 0.0
H214 H 0.39556 0.66936 0.57772 0.0
H215 H 0.44695 0.63139 0.58033 0.0
La216 La 0.04693 0.5482 0.06638 0.0
La217 La 0.0444 0.62543 1.03648 0.0
C218 C 0.06912 0.48616 0.07953 0.0
C219 C 0.10797 0.47693 0.09011 0.0
C220 C 0.10537 0.4372 0.09953 0.0
C221 C 0.14219 0.42731 0.10787 0.0
C222 C 0.18225 0.45712 0.10718 0.0
C223 C 0.18467 0.49708 0.09815 0.0
C224 C 0.14786 0.50682 0.08938 0.0
C225 C 1.00241 0.58514 0.11603 0.0
C226 C 0.12362 0.63056 0.08642 0.0
C227 C 1.01962 0.68489 1.02032 0.0
C228 C 0.97996 0.68817 1.00383 0.0
C229 C 0.9657 0.66983 0.96618 0.0
C230 C 0.92617 0.67009 0.95293 0.0
C231 C 0.89975 0.6883 0.97718 0.0
C232 C 0.91464 0.70746 1.0144 0.0
C233 C 0.95436 0.70751 1.02746 0.0
C234 C 0.09065 0.58915 0.98844 0.0
C235 C 0.96631 0.54502 1.01772 0.0
O236 O 0.05153 0.50492 0.10754 0.0
O237 O 0.07053 0.50122 1.04348 0.0
O238 O 0.99228 0.54625 0.10931 0.0
O239 O 0.03718 0.60146 0.09616 0.0
O240 O 0.11095 0.59021 0.08298 0.0
O241 O 0.09945 0.65136 0.07331 0.0
O242 O 0.04481 0.67061 0.99563 0.0
O243 O 1.015 0.66942 0.05657 0.0
O244 O 0.10038 0.62792 0.99559 0.0
O245 O 0.05502 0.57234 1.00673 0.0
O246 O 0.98102 0.58509 1.02013 0.0
O247 O 0.98871 0.52283 1.03178 0.0
H248 H 0.07488 0.4137 0.10006 0.0
H249 H 0.13928 0.39637 0.11514 0.0
H250 H 0.21514 0.5206 0.097 0.0
H251 H 0.15071 0.53748 0.08143 0.0
H252 H 0.98458 0.65451 0.94727 0.0
H253 H 0.91616 0.65563 0.9238 0.0
H254 H 0.89503 0.72128 1.0342 0.0
H255 H 0.96455 0.72166 0.05671 0.0
H256 H 0.29223 0.30204 0.25215 0.0
H257 H 0.39046 0.27773 0.31875 0.0
H258 H 0.33772 0.24826 0.37371 0.0
H259 H 0.26311 0.22589 0.40053 0.0
H260 H 0.16441 0.24608 0.33093 0.0
H261 H 0.21816 0.28196 0.28016 0.0
C262 C 0.30218 0.29097 0.27908 0.0
C263 C 0.34507 0.29207 0.28157 0.0
C264 C 0.27163 0.2734 0.31 0.0
C265 C 0.3575 0.27698 0.31621 0.0
C266 C 0.32741 0.26019 0.34756 0.0
C267 C 0.25328 0.23802 0.37422 0.0
C268 C 0.20964 0.23303 0.36961 0.0
C269 C 0.28424 0.25754 0.34438 0.0
C270 C 0.19772 0.24983 0.3357 0.0
C271 C 0.22842 0.27006 0.30636 0.0
H272 H 0.23678 0.80396 0.79289 0.0
H273 H 0.19354 0.90121 0.75229 0.0
H274 H 0.22632 0.94396 0.80938 0.0
H275 H 0.27641 0.95739 0.86403 0.0
H276 H 0.32712 0.86323 0.8995 0.0
H277 H 0.28232 0.81573 0.85144 0.0
C278 C 0.23428 0.83443 0.79665 0.0
C279 C 0.21325 0.84943 0.76781 0.0
C280 C 0.25513 0.85968 0.82837 0.0
C281 C 0.2092 0.88858 0.77397 0.0
C282 C 0.22847 0.91334 0.8064 0.0
C283 C 0.27758 0.92642 0.86135 0.0
C284 C 0.30572 0.91412 0.88471 0.0
C285 C 0.253 0.89977 0.83265 0.0
C286 C 0.30581 0.87355 0.88186 0.0
C287 C 0.28042 0.84644 0.85416 0.0
H288 H 0.6205 0.40031 0.7183 0.0
H289 H 0.65803 0.50246 0.80197 0.0
H290 H 0.63614 0.54443 0.75435 0.0
H291 H 0.60497 0.55246 0.68805 0.0
H292 H 0.572 0.45029 0.6036 0.0
H293 H 0.59329 0.40906 0.65146 0.0
C294 C 0.6241 0.43183 0.72622 0.0
C295 C 0.64104 0.44773 0.76432 0.0
C296 C 0.61203 0.45622 0.69806 0.0
C297 C 0.64539 0.48892 0.77328 0.0
C298 C 0.63266 0.51308 0.74584 0.0
C299 C 0.60246 0.5212 0.67997 0.0
C300 C 0.58644 0.50502 0.64142 0.0
C301 C 0.61572 0.49717 0.708 0.0
C302 C 0.58411 0.46425 0.63228 0.0
C303 C 0.59627 0.44032 0.65999 0.0
H304 H 0.91133 0.63919 0.277 0.0
H305 H 1.00735 0.75271 0.2516 0.0
H306 H 0.03344 0.72263 0.19081 0.0
H307 H 0.03034 0.66388 0.14455 0.0
H308 H 0.93448 0.55008 0.16858 0.0
H309 H 0.90725 0.58015 0.22921 0.0
C310 C 0.93793 0.6573 0.25817 0.0
C311 C 0.95735 0.69835 0.26925 0.0
C312 C 0.95295 0.63968 0.22258 0.0
C313 C 0.99173 0.72115 0.2441 0.0
C314 C 1.00676 0.70394 0.20913 0.0
C315 C 1.00332 0.64568 0.16289 0.0
C316 C 0.98462 0.60463 0.15176 0.0
C317 C 0.98778 0.66323 0.19799 0.0
C318 C 0.94964 0.58169 0.17619 0.0
C319 C 0.93403 0.59891 0.21107 0.0
H320 H 0.39046 0.21162 0.17761 0.0
H321 H 0.50889 0.30836 0.16652 0.0
H322 H 0.54487 0.26113 0.13483 0.0
H323 H 0.54169 0.19258 0.10817 0.0
H324 H 0.42159 0.09747 0.11488 0.0
H325 H 0.38721 0.14352 0.15109 0.0
C326 C 0.42425 0.22221 0.16857 0.0
C327 C 0.44715 0.26324 0.17453 0.0
C328 C 0.44435 0.19511 0.14982 0.0
C329 C 0.49068 0.27687 0.16205 0.0
C330 C 0.51122 0.24987 0.14412 0.0
C331 C 0.50817 0.18189 0.11821 0.0
C332 C 0.48419 0.14168 0.10937 0.0
C333 C 0.4883 0.20895 0.13767 0.0
C334 C 0.4406 0.1283 0.12156 0.0
C335 C 0.42095 0.15461 0.14212 0.0
H336 H 0.14409 0.89971 0.6423 0.0
H337 H 0.11359 0.83934 0.52548 0.0
H338 H 0.11261 0.9032 0.49663 0.0
H339 H 0.11736 0.97556 0.50596 0.0
H340 H 0.14755 1.03478 0.62335 0.0
H341 H 0.15263 0.97198 0.65059 0.0
C342 C 0.13711 0.9004 0.61053 0.0
C343 C 0.1283 0.86481 0.58609 0.0
C344 C 0.13711 0.93709 0.59424 0.0
C345 C 0.12016 0.86641 0.54485 0.0
C346 C 0.11974 0.90287 0.52838 0.0
C347 C 0.12596 0.97483 0.53722 0.0
C348 C 0.13222 1.00961 0.5627 0.0
C349 C 0.12795 0.93837 0.55289 0.0
C350 C 0.1428 1.0083 0.60325 0.0
C351 C 0.14538 0.97239 0.61888 0.0
H352 H 0.78773 0.49524 0.93009 0.0
H353 H 0.80663 0.37728 0.92972 0.0
H354 H 0.87326 0.40571 0.9639 0.0
H355 H 0.92756 0.46426 0.99483 0.0
H356 H 0.90934 0.58244 0.99404 0.0
H357 H 0.84261 0.55398 0.95998 0.0
C358 C 0.80647 0.47567 0.9371 0.0
C359 C 0.79097 0.43367 0.92729 0.0
C360 C 0.84558 0.4924 0.95704 0.0
C361 C 0.81644 0.40938 0.93727 0.0
C362 C 0.85508 0.42574 0.95682 0.0
C363 C 0.90901 0.48387 0.9874 0.0
C364 C 0.92426 0.52577 0.99754 0.0
C365 C 0.87005 0.46721 0.96721 0.0
C366 C 0.8992 0.55023 0.987 0.0
C367 C 0.86066 0.53391 0.96728 0.0
H368 H 0.76465 0.67326 0.40413 0.0
H369 H 0.83583 0.708 0.51277 0.0
H370 H 0.77139 0.67809 0.55526 0.0
H371 H 0.69378 0.64447 0.56246 0.0
H372 H 0.62187 0.60887 0.45454 0.0
H373 H 0.68704 0.63603 0.41136 0.0
C374 C 0.76616 0.67385 0.43705 0.0
C375 C 0.80528 0.69356 0.455 0.0
C376 C 0.72855 0.65646 0.4617 0.0
C377 C 0.80626 0.69394 0.4979 0.0
C378 C 0.76932 0.67663 0.52237 0.0
C379 C 0.69241 0.64246 0.52949 0.0
C380 C 0.65282 0.62478 0.51189 0.0
C381 C 0.73012 0.65832 0.50474 0.0
C382 C 0.6518 0.62234 0.46903 0.0
C383 C 0.68915 0.63796 0.44424 0.0
H384 H 0.33391 0.38452 0.13024 0.0
H385 H 0.37153 0.48782 0.21284 0.0
H386 H 0.31116 0.50974 0.19404 0.0
H387 H 0.24554 0.49746 0.15678 0.0
H388 H 0.20647 0.39251 0.07641 0.0
H389 H 0.26934 0.37311 0.09186 0.0
C390 C 0.32921 0.41208 0.14375 0.0
C391 C 0.35722 0.43473 0.17272 0.0
C392 C 0.2939 0.42393 0.13351 0.0
C393 C 0.35038 0.47006 0.19035 0.0
C394 C 0.31584 0.4825 0.17971 0.0
C395 C 0.25108 0.47059 0.14235 0.0
C396 C 0.22134 0.44638 0.11561 0.0
C397 C 0.28707 0.45939 0.15172 0.0
C398 C 0.22864 0.41137 0.09749 0.0
C399 C 0.26467 0.40037 0.10616 0.0
H400 H 0.65079 0.27892 0.86579 0.0
H401 H 0.65636 0.34074 0.98296 0.0
H402 H 0.62152 0.2765 1.01627 0.0
H403 H 0.59045 0.20111 1.01316 0.0
H404 H 0.58578 0.13947 0.89583 0.0
H405 H 0.6188 0.20385 0.86254 0.0
C406 C 0.64378 0.27847 0.89851 0.0
C407 C 0.65624 0.31534 0.92149 0.0
C408 C 0.62409 0.24075 0.91796 0.0
C409 C 0.64726 0.31333 0.96414 0.0
C410 C 0.62738 0.27632 0.98341 0.0
C411 C 0.59683 0.20169 0.98035 0.0
C412 C 0.58542 0.16474 0.95736 0.0
C413 C 0.61598 0.23953 0.96086 0.0
C414 C 0.59397 0.16688 0.9147 0.0
C415 C 0.61292 0.204 0.89539 0.0
H416 H 0.89147 0.84611 0.43094 0.0
H417 H 0.98605 0.78948 0.45879 0.0
H418 H 1.02571 0.85115 0.49582 0.0
H419 H 0.03234 0.92121 0.52208 0.0
H420 H 0.94075 0.97933 0.48863 0.0
H421 H 0.9011 0.91753 0.45244 0.0
C422 C 0.92107 0.84756 0.4447 0.0
C423 C 0.93592 0.81332 0.44197 0.0
C424 C 0.94402 0.8834 0.46539 0.0
C425 C 0.97424 0.81554 0.46007 0.0
C426 C 0.99673 0.85074 0.4815 0.0
C427 C 1.00367 0.92023 0.50689 0.0
C428 C 0.98927 0.95479 0.50849 0.0
C429 C 0.98174 0.88481 0.48475 0.0
C430 C 0.95247 0.95322 0.48803 0.0
C431 C 0.92976 0.91783 0.46726 0.0
H432 H 0.30698 0.82724 0.65467 0.0
H433 H 0.20851 0.71347 0.6411 0.0
H434 H 0.26287 0.67946 0.62225 0.0
H435 H 0.33838 0.68118 0.61869 0.0
H436 H 0.43673 0.79572 0.63151 0.0
H437 H 0.38231 0.83041 0.64215 0.0
C438 C 0.29757 0.79514 0.64673 0.0
C439 C 0.25416 0.77263 0.64943 0.0
C440 C 0.32888 0.77594 0.63665 0.0
C441 C 0.2419 0.73121 0.63899 0.0
C442 C 0.27294 0.71181 0.62861 0.0
C443 C 0.34805 0.71385 0.62279 0.0
C444 C 0.39166 0.73567 0.62504 0.0
C445 C 0.31657 0.7337 0.62864 0.0
C446 C 0.40341 0.77799 0.63075 0.0
C447 C 0.37233 0.79793 0.63655 0.0
H448 H 0.72895 0.84282 0.79132 0.0
H449 H 0.79433 0.81626 0.89123 0.0
H450 H 0.86323 0.843 0.85341 0.0
H451 H 0.90487 0.88011 0.79476 0.0
H452 H 0.83867 0.9032 0.69329 0.0
H453 H 0.77012 0.87178 0.72896 0.0
C454 C 0.75834 0.84252 0.80446 0.0
C455 C 0.75692 0.82812 0.84396 0.0
C456 C 0.79762 0.85771 0.78252 0.0
C457 C 0.79491 0.82729 0.86075 0.0
C458 C 0.83422 0.84272 0.83924 0.0
C459 C 0.87553 0.87748 0.77997 0.0
C460 C 0.87712 0.89494 0.74174 0.0
C461 C 0.83602 0.85885 0.80045 0.0
C462 C 0.83855 0.89121 0.72323 0.0
C463 C 0.79924 0.87301 0.74348 0.0
H464 H 0.71283 0.21404 0.37896 0.0
H465 H 0.71518 0.0949 0.40895 0.0
H466 H 0.70316 0.07191 0.3377 0.0
H467 H 0.69194 0.08619 0.26701 0.0
H468 H 0.69163 0.20624 0.23753 0.0
H469 H 0.7033 0.22867 0.30856 0.0
C470 C 0.71022 0.18292 0.36988 0.0
C471 C 0.71415 0.15591 0.39894 0.0
C472 C 0.70408 0.17031 0.32905 0.0
C473 C 0.71192 0.116 0.38689 0.0
C474 C 0.70512 0.10295 0.34629 0.0
C475 C 0.69439 0.11721 0.27628 0.0
C476 C 0.69098 0.14457 0.24723 0.0
C477 C 0.70116 0.12989 0.31713 0.0
C478 C 0.69466 0.18481 0.25934 0.0
C479 C 0.70102 0.19756 0.29993 0.0
H480 H 0.38966 0.68266 0.38835 0.0
H481 H 0.48622 0.68239 0.29343 0.0
H482 H 0.52255 0.65126 0.33976 0.0
H483 H 0.52656 0.62242 0.408 0.0
H484 H 0.433 0.62907 0.5041 0.0
H485 H 0.39662 0.659 0.45736 0.0
C486 C 0.41885 0.67607 0.37774 0.0
C487 C 0.4348 0.68508 0.33688 0.0
C488 C 0.44033 0.65893 0.40517 0.0
C489 C 0.47295 0.67627 0.32435 0.0
C490 C 0.49375 0.65818 0.35103 0.0
C491 C 0.49821 0.63041 0.4188 0.0
C492 C 0.48268 0.62281 0.46012 0.0
C493 C 0.47771 0.64905 0.39159 0.0
C494 C 0.44611 0.63425 0.47302 0.0
C495 C 0.42505 0.65143 0.44604 0.0
H496 H 0.21345 0.54262 0.85069 0.0
H497 H 0.10995 0.43143 0.84575 0.0
H498 H 0.07055 0.45702 0.90133 0.0
H499 H 0.06497 0.51242 0.95125 0.0
H500 H 0.16926 0.62347 0.95366 0.0
H501 H 0.2085 0.59664 0.89988 0.0
C502 C 0.18226 0.52388 0.86177 0.0
C503 C 0.16485 0.48511 0.84382 0.0
C504 C 0.15974 0.53891 0.89362 0.0
C505 C 0.12431 0.46137 0.85874 0.0
C506 C 0.10171 0.47606 0.89066 0.0
C507 C 0.09638 0.53058 0.94012 0.0
C508 C 0.114 0.57013 0.95672 0.0
C509 C 0.119 0.51495 0.90838 0.0
C510 C 0.15471 0.59314 0.94161 0.0
C511 C 0.17729 0.57779 0.9107 0.0
H512 H 0.69171 0.91839 0.9138 0.0
H513 H 0.57028 0.82504 0.91069 0.0
H514 H 0.53303 0.87515 0.92902 0.0
H515 H 0.53523 0.94484 0.94987 0.0
H516 H 0.65697 1.03778 0.95286 0.0
H517 H 0.69362 0.98864 0.92924 0.0
C518 C 0.65706 0.90901 0.91631 0.0
C519 C 0.63394 0.86785 0.91108 0.0
C520 C 0.63583 0.93799 0.92665 0.0
C521 C 0.58901 0.85634 0.91525 0.0
C522 C 0.56763 0.88505 0.92545 0.0
C523 C 0.56971 0.95452 0.9446 0.0
C524 C 0.59331 0.99493 0.95325 0.0
C525 C 0.59074 0.92588 0.93177 0.0
C526 C 0.63801 1.00686 0.94656 0.0
C527 C 0.65905 0.97873 0.93322 0.0
H528 H 0.85983 0.17266 0.56585 0.0
H529 H 0.90545 0.16271 0.44083 0.0
H530 H 0.95486 0.12806 0.4625 0.0
H531 H 0.98232 0.09791 0.51647 0.0
H532 H 0.93992 0.11057 0.64196 0.0
H533 H 0.89134 0.14657 0.62065 0.0
C534 C 0.88075 0.16304 0.54344 0.0
C535 C 0.87892 0.16972 0.5018 0.0
C536 C 0.90918 0.14341 0.55615 0.0
C537 C 0.90644 0.15768 0.47306 0.0
C538 C 0.93449 0.13778 0.48537 0.0
C539 C 0.96268 0.10884 0.53913 0.0
C540 C 0.96434 0.1016 0.58058 0.0
C541 C 0.93569 0.13005 0.52675 0.0
C542 C 0.93888 0.11583 0.60979 0.0
C543 C 0.91122 0.13638 0.59765 0.0
H544 H 0.28479 0.75748 0.16549 0.0
H545 H 0.31932 0.64927 0.18498 0.0
H546 H 0.2538 0.60822 0.15418 0.0
H547 H 0.18608 0.60251 0.11971 0.0
H548 H 0.15473 0.71224 0.099 0.0
H549 H 0.21911 0.75219 0.13105 0.0
C550 C 0.27863 0.72499 0.16276 0.0
C551 C 0.30806 0.70715 0.17795 0.0
C552 C 0.24086 0.70128 0.14425 0.0
C553 C 0.29776 0.66452 0.17449 0.0
C554 C 0.26012 0.64077 0.15638 0.0
C555 C 0.19329 0.63515 0.12206 0.0
C556 C 0.16471 0.65381 0.10639 0.0
C557 C 0.2313 0.65872 0.14087 0.0
C558 C 0.17535 0.6964 0.11029 0.0
C559 C 0.21252 0.7196 0.12886 0.0
H560 H 0.27453 0.43256 0.62214 0.0
H561 H 0.32909 0.46482 0.73939 0.0
H562 H 0.39832 0.50043 0.70575 0.0
H563 H 0.44463 0.52021 0.64205 0.0
H564 H 0.38778 0.48821 0.52557 0.0
H565 H 0.31885 0.45505 0.55965 0.0
C566 C 0.30156 0.44731 0.64041 0.0
C567 C 0.29649 0.44558 0.68333 0.0
C568 C 0.34121 0.46789 0.62084 0.0
C569 C 0.33186 0.46565 0.70636 0.0
C570 C 0.37159 0.48593 0.68707 0.0
C571 C 0.41705 0.50623 0.62422 0.0
C572 C 0.42173 0.5065 0.58113 0.0
C573 C 0.37687 0.487 0.64421 0.0
C574 C 0.38546 0.48833 0.55864 0.0
C575 C 0.34584 0.46924 0.57814 0.0
H576 H 0.71116 0.64718 0.91885 0.0
H577 H 0.72386 0.76667 0.97023 0.0
H578 H 0.79747 0.77403 0.98633 0.0
H579 H 0.85791 0.74589 0.98688 0.0
H580 H 0.84287 0.62432 0.93961 0.0
H581 H 0.77088 0.61866 0.92049 0.0
C582 C 0.73017 0.67488 0.93347 0.0
C583 C 0.71241 0.70659 0.94245 0.0
C584 C 0.77213 0.67855 0.94338 0.0
C585 C 0.73706 0.74215 0.96192 0.0
C586 C 0.77912 0.74627 0.97143 0.0
C587 C 0.83884 0.71802 0.97267 0.0
C588 C 0.85613 0.68567 0.96463 0.0
C589 C 0.79694 0.71458 0.96243 0.0
C590 C 0.83094 0.65005 0.94558 0.0
C591 C 0.78951 0.64659 0.93491 0.0
H592 H 0.41449 0.82563 0.11591 0.0
H593 H 0.45608 0.86488 0.23711 0.0
H594 H 0.48963 0.9334 0.21323 0.0
H595 H 0.50754 0.98376 0.15809 0.0
H596 H 0.46655 0.94511 1.03686 0.0
H597 H 0.43236 0.87613 0.06063 0.0
C598 C 0.43057 0.84904 0.1374 0.0
C599 C 0.4324 0.83889 0.17873 0.0
C600 C 0.45005 0.88924 0.12335 0.0
C601 C 0.45431 0.87053 0.2052 0.0
C602 C 0.47341 0.91026 0.19154 0.0
C603 C 0.49099 0.96035 0.13678 0.0
C604 C 0.48979 0.97029 0.09545 0.0
C605 C 0.47156 0.92017 0.15071 0.0
C606 C 0.46822 0.93894 0.06868 0.0
C607 C 0.44859 0.89921 0.08236 0.0
H608 H 0.20822 0.28749 0.7139 0.0
H609 H 0.12732 0.3432 0.6554 0.0
H610 H 0.09251 0.27885 0.62022 0.0
H611 H 0.08585 0.20669 0.60496 0.0
H612 H 0.16323 0.14946 0.66697 0.0
H613 H 0.19844 0.21387 0.7017 0.0
C614 C 0.1827 0.2853 0.6937 0.0
C615 C 0.17025 0.32007 0.68731 0.0
C616 C 0.16235 0.24785 0.67397 0.0
C617 C 0.13723 0.31686 0.661 0.0
C618 C 0.11746 0.28007 0.64076 0.0
C619 C 0.11049 0.20831 0.62602 0.0
C620 C 0.1221 0.17316 0.63295 0.0
C621 C 0.1299 0.24537 0.64675 0.0
C622 C 0.15362 0.17586 0.66093 0.0
C623 C 0.17384 0.2128 0.68082 0.0
H624 H 0.7442 0.2909 0.51697 0.0
H625 H 0.62335 0.197 0.51616 0.0
H626 H 0.58528 0.24792 0.52396 0.0
H627 H 0.58719 0.31896 0.51869 0.0
H628 H 0.70851 0.41255 0.51453 0.0
H629 H 0.74578 0.36203 0.52122 0.0
C630 C 0.70954 0.28162 0.52003 0.0
C631 C 0.68647 0.24049 0.51596 0.0
C632 C 0.68809 0.31104 0.52265 0.0
C633 C 0.64159 0.22865 0.51921 0.0
C634 C 0.61991 0.25772 0.52333 0.0
C635 C 0.62169 0.32831 0.5203 0.0
C636 C 0.64522 0.36917 0.51548 0.0
C637 C 0.64289 0.29902 0.52316 0.0
C638 C 0.6899 0.38104 0.5174 0.0
C639 C 0.71117 0.35224 0.52133 0.0
loop_
_geom_bond_atom_site_label_1
_geom_bond_atom_site_label_2
_geom_bond_distance
_geom_bond_site_symmetry_2
_ccdc_geom_bond_type
H0 C5 0.930 . S
H1 C8 0.930 . S
H2 C10 0.930 . S
H3 C4 1.016 . S
C4 H3 1.016 . S
C4 N11 1.286 . S
C5 H0 0.930 . S
C5 C6 1.397 . S
C5 C7 1.361 . S
C6 C5 1.397 . S
C6 C10 1.390 . S
C7 C5 1.361 . S
C7 C8 1.393 . S
C7 N11 1.413 . S
C8 H1 0.930 . S
C8 C7 1.393 . S
C8 C9 1.399 . S
C9 C8 1.399 . S
C9 C10 1.381 . S
C10 H2 0.930 . S
C10 C6 1.390 . S
C10 C9 1.381 . S
N11 C4 1.286 . S
N11 C7 1.413 . S
H12 C17 0.930 . S
H13 C20 0.930 . S
H14 C22 0.930 . S
H15 C16 1.016 . S
C16 H15 1.016 . S
C16 N23 1.286 . S
C17 H12 0.930 . S
C17 C18 1.397 . S
C17 C19 1.361 . S
C18 C17 1.397 . S
C18 C22 1.390 . S
C19 C17 1.361 . S
C19 C20 1.393 . S
C19 N23 1.413 . S
C20 H13 0.930 . S
C20 C19 1.393 . S
C20 C21 1.399 . S
C21 C20 1.399 . S
C21 C22 1.381 . S
C22 H14 0.930 . S
C22 C18 1.390 . S
C22 C21 1.381 . S
N23 C16 1.286 . S
N23 C19 1.413 . S
H24 C29 0.930 . S
H25 C32 0.930 . S
H26 C34 0.930 . S
H27 C28 1.016 . S
C28 H27 1.016 . S
C28 N35 1.286 . S
C29 H24 0.930 . S
C29 C30 1.397 . S
C29 C31 1.361 . S
C30 C29 1.397 . S
C30 C34 1.390 . S
C31 C29 1.361 . S
C31 C32 1.393 . S
C31 N35 1.413 . S
C32 H25 0.930 . S
C32 C31 1.393 . S
C32 C33 1.399 . S
C33 C32 1.399 . S
C33 C34 1.381 . S
C34 H26 0.930 . S
C34 C30 1.390 . S
C34 C33 1.381 . S
N35 C28 1.286 . S
N35 C31 1.413 . S
H36 C41 0.930 . S
H37 C44 0.930 . S
H38 C46 0.930 . S
H39 C40 1.016 . S
C40 H39 1.016 . S
C40 N47 1.286 . S
C41 H36 0.930 . S
C41 C42 1.397 . S
C41 C43 1.361 . S
C42 C41 1.397 . S
C42 C46 1.390 . S
C43 C41 1.361 . S
C43 C44 1.393 . S
C43 N47 1.413 . S
C44 H37 0.930 . S
C44 C43 1.393 . S
C44 C45 1.399 . S
C45 C44 1.399 . S
C45 C46 1.381 . S
C46 H38 0.930 . S
C46 C42 1.390 . S
C46 C45 1.381 . S
N47 C40 1.286 . S
N47 C43 1.413 . S
H48 C53 0.930 . S
H49 C56 0.930 . S
H50 C58 0.930 . S
H51 C52 1.016 . S
C52 H51 1.016 . S
C52 N59 1.286 . S
C53 H48 0.930 . S
C53 C54 1.397 . S
C53 C55 1.361 . S
C54 C53 1.397 . S
C54 C58 1.390 . S
C55 C53 1.361 . S
C55 C56 1.393 . S
C55 N59 1.413 . S
C56 H49 0.930 . S
C56 C55 1.393 . S
C56 C57 1.399 . S
C57 C56 1.399 . S
C57 C58 1.381 . S
C58 H50 0.930 . S
C58 C54 1.390 . S
C58 C57 1.381 . S
N59 C52 1.286 . S
N59 C55 1.413 . S
H60 C65 0.930 . S
H61 C68 0.930 . S
H62 C70 0.930 . S
H63 C64 1.016 . S
C64 H63 1.016 . S
C64 N71 1.286 . S
C65 H60 0.930 . S
C65 C66 1.397 . S
C65 C67 1.361 . S
C66 C65 1.397 . S
C66 C70 1.390 . S
C67 C65 1.361 . S
C67 C68 1.393 . S
C67 N71 1.413 . S
C68 H61 0.930 . S
C68 C67 1.393 . S
C68 C69 1.399 . S
C69 C68 1.399 . S
C69 C70 1.381 . S
C70 H62 0.930 . S
C70 C66 1.390 . S
C70 C69 1.381 . S
N71 C64 1.286 . S
N71 C67 1.413 . S
H72 C77 0.930 . S
H73 C80 0.930 . S
H74 C82 0.930 . S
H75 C76 1.016 . S
C76 H75 1.016 . S
C76 N83 1.286 . S
C77 H72 0.930 . S
C77 C78 1.397 . S
C77 C79 1.361 . S
C78 C77 1.397 . S
C78 C82 1.390 . S
C79 C77 1.361 . S
C79 C80 1.393 . S
C79 N83 1.413 . S
C80 H73 0.930 . S
C80 C79 1.393 . S
C80 C81 1.399 . S
C81 C80 1.399 . S
C81 C82 1.381 . S
C82 H74 0.930 . S
C82 C78 1.390 . S
C82 C81 1.381 . S
N83 C76 1.286 . S
N83 C79 1.413 . S
H84 C89 0.930 . S
H85 C92 0.930 . S
H86 C94 0.930 . S
H87 C88 1.016 . S
C88 H87 1.016 . S
C88 N95 1.286 . S
C89 H84 0.930 . S
C89 C90 1.397 . S
C89 C91 1.361 . S
C90 C89 1.397 . S
C90 C94 1.390 . S
C91 C89 1.361 . S
C91 C92 1.393 . S
C91 N95 1.413 . S
C92 H85 0.930 . S
C92 C91 1.393 . S
C92 C93 1.399 . S
C93 C92 1.399 . S
C93 C94 1.381 . S
C94 H86 0.930 . S
C94 C90 1.390 . S
C94 C93 1.381 . S
N95 C88 1.286 . S
N95 C91 1.413 . S
La96 C98 2.928 . S
La96 O116 2.521 . S
La96 O117 2.628 . S
La96 O118 2.554 1_545 S
La96 O119 2.757 1_545 S
La96 O120 2.470 . S
La96 O125 2.482 1_455 S
La96 O127 2.503 1_445 S
La97 C107 2.927 . S
La97 O119 2.481 1_655 S
La97 O121 2.505 1_665 S
La97 O122 2.520 . S
La97 O123 2.626 . S
La97 O124 2.555 1_565 S
La97 O125 2.758 1_565 S
La97 O126 2.469 . S
C98 La96 2.928 . S
C98 C99 1.503 . S
C98 O116 1.261 . S
C98 O117 1.243 . S
C99 C98 1.503 . S
C99 C100 1.394 . S
C99 C104 1.373 . S
C100 C99 1.394 . S
C100 C101 1.380 . S
C100 H128 0.930 . S
C101 C100 1.380 . S
C101 C102 1.376 . S
C101 H129 0.930 . S
C102 C101 1.376 . S
C102 C103 1.370 . S
C103 C102 1.370 . S
C103 C104 1.396 . S
C103 H130 0.929 . S
C104 C99 1.373 . S
C104 C103 1.396 . S
C104 H131 0.929 . S
C105 O118 1.240 . S
C105 O119 1.289 . S
C106 O120 1.258 . S
C106 O121 1.256 . S
C107 La97 2.927 . S
C107 C108 1.503 . S
C107 O122 1.261 . S
C107 O123 1.243 . S
C108 C107 1.503 . S
C108 C109 1.394 . S
C108 C113 1.373 . S
C109 C108 1.394 . S
C109 C110 1.380 . S
C109 H132 0.930 . S
C110 C109 1.380 . S
C110 C111 1.376 . S
C110 H133 0.930 . S
C111 C110 1.376 . S
C111 C112 1.370 . S
C112 C111 1.370 . S
C112 C113 1.396 . S
C112 H134 0.929 . S
C113 C108 1.373 . S
C113 C112 1.396 . S
C113 H135 0.929 . S
C114 O124 1.240 . S
C114 O125 1.289 . S
C115 O126 1.258 . S
C115 O127 1.256 . S
O116 La96 2.521 . S
O116 C98 1.261 . S
O117 La96 2.628 . S
O117 C98 1.243 . S
O118 La96 2.554 1_565 S
O118 C105 1.240 . S
O119 La96 2.757 1_565 S
O119 La97 2.481 1_455 S
O119 C105 1.289 . S
O120 La96 2.470 . S
O120 C106 1.258 . S
O121 La97 2.505 1_445 S
O121 C106 1.256 . S
O122 La97 2.520 . S
O122 C107 1.261 . S
O123 La97 2.626 . S
O123 C107 1.243 . S
O124 La97 2.555 1_545 S
O124 C114 1.240 . S
O125 La96 2.482 1_655 S
O125 La97 2.758 1_545 S
O125 C114 1.289 . S
O126 La97 2.469 . S
O126 C115 1.258 . S
O127 La96 2.503 1_665 S
O127 C115 1.256 . S
H128 C100 0.930 . S
H129 C101 0.930 . S
H130 C103 0.929 . S
H131 C104 0.929 . S
H132 C109 0.930 . S
H133 C110 0.930 . S
H134 C112 0.929 . S
H135 C113 0.929 . S
La136 C138 2.928 . S
La136 O156 2.521 . S
La136 O157 2.628 . S
La136 O158 2.554 1_545 S
La136 O159 2.757 1_545 S
La136 O160 2.470 . S
La136 O165 2.488 . S
La136 O167 2.503 1_544 S
La137 C147 2.928 1_545 S
La137 O159 2.482 1_546 S
La137 O161 2.503 1_556 S
La137 O162 2.521 1_545 S
La137 O163 2.628 1_545 S
La137 O164 2.554 . S
La137 O165 2.754 1_556 S
La137 O166 2.470 1_545 S
C138 La136 2.928 . S
C138 C139 1.503 . S
C138 O156 1.261 . S
C138 O157 1.243 . S
C139 C138 1.503 . S
C139 C140 1.394 . S
C139 C144 1.373 . S
C140 C139 1.394 . S
C140 C141 1.380 . S
C140 H168 0.930 . S
C141 C140 1.380 . S
C141 C142 1.376 . S
C141 H169 0.930 . S
C142 C141 1.376 . S
C142 C143 1.370 . S
C143 C142 1.370 . S
C143 C144 1.396 . S
C143 H170 0.929 . S
C144 C139 1.373 . S
C144 C143 1.396 . S
C144 H171 0.929 . S
C145 O158 1.240 . S
C145 O159 1.289 . S
C146 O160 1.258 . S
C146 O161 1.256 . S
C147 La137 2.928 1_565 S
C147 C148 1.503 . S
C147 O162 1.261 . S
C147 O163 1.243 . S
C148 C147 1.503 . S
C148 C149 1.394 . S
C148 C153 1.373 . S
C149 C148 1.394 . S
C149 C150 1.380 . S
C149 H172 0.930 . S
C150 C149 1.380 . S
C150 C151 1.376 . S
C150 H173 0.930 . S
C151 C150 1.376 . S
C151 C152 1.370 . S
C152 C151 1.370 . S
C152 C153 1.396 . S
C152 H174 0.929 . S
C153 C148 1.373 . S
C153 C152 1.396 . S
C153 H175 0.929 . S
C154 O164 1.240 . S
C154 O165 1.282 1_556 S
C155 O166 1.258 . S
C155 O167 1.256 . S
O156 La136 2.521 . S
O156 C138 1.261 . S
O157 La136 2.628 . S
O157 C138 1.243 . S
O158 La136 2.554 1_565 S
O158 C145 1.240 . S
O159 La136 2.757 1_565 S
O159 La137 2.482 1_564 S
O159 C145 1.289 . S
O160 La136 2.470 . S
O160 C146 1.258 . S
O161 La137 2.503 1_554 S
O161 C146 1.256 . S
O162 La137 2.521 1_565 S
O162 C147 1.261 . S
O163 La137 2.628 1_565 S
O163 C147 1.243 . S
O164 La137 2.554 . S
O164 C154 1.240 . S
O165 La136 2.488 . S
O165 La137 2.754 1_554 S
O165 C154 1.282 1_554 S
O166 La137 2.470 1_565 S
O166 C155 1.258 . S
O167 La136 2.503 1_566 S
O167 C155 1.256 . S
H168 C140 0.930 . S
H169 C141 0.930 . S
H170 C143 0.929 . S
H171 C144 0.929 . S
H172 C149 0.930 . S
H173 C150 0.930 . S
H174 C152 0.929 . S
H175 C153 0.929 . S
La176 C178 2.928 . S
La176 O196 2.521 . S
La176 O197 2.628 . S
La176 O198 2.554 . S
La176 O199 2.757 . S
La176 O200 2.470 . S
La176 O205 2.482 . S
La176 O207 2.503 . S
La177 C187 2.928 . S
La177 O199 2.482 . S
La177 O201 2.503 . S
La177 O202 2.521 . S
La177 O203 2.628 . S
La177 O204 2.554 . S
La177 O205 2.757 . S
La177 O206 2.470 . S
C178 La176 2.928 . S
C178 C179 1.503 . S
C178 O196 1.261 . S
C178 O197 1.243 . S
C179 C178 1.503 . S
C179 C180 1.394 . S
C179 C184 1.373 . S
C180 C179 1.394 . S
C180 C181 1.380 . S
C180 H208 0.930 . S
C181 C180 1.380 . S
C181 C182 1.376 . S
C181 H209 0.930 . S
C182 C181 1.376 . S
C182 C183 1.370 . S
C183 C182 1.370 . S
C183 C184 1.396 . S
C183 H210 0.929 . S
C184 C179 1.373 . S
C184 C183 1.396 . S
C184 H211 0.929 . S
C185 O198 1.240 . S
C185 O199 1.289 . S
C186 O200 1.258 . S
C186 O201 1.256 . S
C187 La177 2.928 . S
C187 C188 1.503 . S
C187 O202 1.261 . S
C187 O203 1.243 . S
C188 C187 1.503 . S
C188 C189 1.394 . S
C188 C193 1.373 . S
C189 C188 1.394 . S
C189 C190 1.380 . S
C189 H212 0.930 . S
C190 C189 1.380 . S
C190 C191 1.376 . S
C190 H213 0.930 . S
C191 C190 1.376 . S
C191 C192 1.370 . S
C192 C191 1.370 . S
C192 C193 1.396 . S
C192 H214 0.929 . S
C193 C188 1.373 . S
C193 C192 1.396 . S
C193 H215 0.929 . S
C194 O204 1.240 . S
C194 O205 1.289 . S
C195 O206 1.258 . S
C195 O207 1.256 . S
O196 La176 2.521 . S
O196 C178 1.261 . S
O197 La176 2.628 . S
O197 C178 1.243 . S
O198 La176 2.554 . S
O198 C185 1.240 . S
O199 La176 2.757 . S
O199 La177 2.482 . S
O199 C185 1.289 . S
O200 La176 2.470 . S
O200 C186 1.258 . S
O201 La177 2.503 . S
O201 C186 1.256 . S
O202 La177 2.521 . S
O202 C187 1.261 . S
O203 La177 2.628 . S
O203 C187 1.243 . S
O204 La177 2.554 . S
O204 C194 1.240 . S
O205 La176 2.482 . S
O205 La177 2.757 . S
O205 C194 1.289 . S
O206 La177 2.470 . S
O206 C195 1.258 . S
O207 La176 2.503 . S
O207 C195 1.256 . S
H208 C180 0.930 . S
H209 C181 0.930 . S
H210 C183 0.929 . S
H211 C184 0.929 . S
H212 C189 0.930 . S
H213 C190 0.930 . S
H214 C192 0.929 . S
H215 C193 0.929 . S
La216 C218 2.928 . S
La216 O236 2.521 . S
La216 O237 2.628 . S
La216 O238 2.554 1_455 S
La216 O239 2.757 1_455 S
La216 O240 2.470 . S
La216 O245 2.482 1_554 S
La216 O247 2.503 1_454 S
La217 C227 2.928 1_455 S
La217 O239 2.482 1_456 S
La217 O241 2.503 1_556 S
La217 O242 2.521 1_455 S
La217 O243 2.628 1_455 S
La217 O244 2.554 . S
La217 O245 2.757 . S
La217 O246 2.470 1_455 S
C218 La216 2.928 . S
C218 C219 1.503 . S
C218 O236 1.261 . S
C218 O237 1.243 . S
C219 C218 1.503 . S
C219 C220 1.394 . S
C219 C224 1.373 . S
C220 C219 1.394 . S
C220 C221 1.380 . S
C220 H248 0.930 . S
C221 C220 1.380 . S
C221 C222 1.376 . S
C221 H249 0.930 . S
C222 C221 1.376 . S
C222 C223 1.370 . S
C223 C222 1.370 . S
C223 C224 1.396 . S
C223 H250 0.929 . S
C224 C219 1.373 . S
C224 C223 1.396 . S
C224 H251 0.929 . S
C225 O238 1.240 . S
C225 O239 1.289 . S
C226 O240 1.258 . S
C226 O241 1.256 . S
C227 La217 2.928 1_655 S
C227 C228 1.503 . S
C227 O242 1.261 . S
C227 O243 1.243 . S
C228 C227 1.503 . S
C228 C229 1.394 . S
C228 C233 1.373 . S
C229 C228 1.394 . S
C229 C230 1.380 . S
C229 H252 0.930 . S
C230 C229 1.380 . S
C230 C231 1.376 . S
C230 H253 0.930 . S
C231 C230 1.376 . S
C231 C232 1.370 . S
C232 C231 1.370 . S
C232 C233 1.396 . S
C232 H254 0.929 . S
C233 C228 1.373 . S
C233 C232 1.396 . S
C233 H255 0.929 . S
C234 O244 1.240 . S
C234 O245 1.289 . S
C235 O246 1.258 . S
C235 O247 1.256 . S
O236 La216 2.521 . S
O236 C218 1.261 . S
O237 La216 2.628 . S
O237 C218 1.243 . S
O238 La216 2.554 1_655 S
O238 C225 1.240 . S
O239 La216 2.757 1_655 S
O239 La217 2.482 1_654 S
O239 C225 1.289 . S
O240 La216 2.470 . S
O240 C226 1.258 . S
O241 La217 2.503 1_554 S
O241 C226 1.256 . S
O242 La217 2.521 1_655 S
O242 C227 1.261 . S
O243 La217 2.628 1_655 S
O243 C227 1.243 . S
O244 La217 2.554 . S
O244 C234 1.240 . S
O245 La216 2.482 1_556 S
O245 La217 2.757 . S
O245 C234 1.289 . S
O246 La217 2.470 1_655 S
O246 C235 1.258 . S
O247 La216 2.503 1_656 S
O247 C235 1.256 . S
H248 C220 0.930 . S
H249 C221 0.930 . S
H250 C223 0.929 . S
H251 C224 0.929 . S
H252 C229 0.930 . S
H253 C230 0.930 . S
H254 C232 0.929 . S
H255 C233 0.929 . S
H256 C262 0.930 . S
H257 C265 0.930 . S
H258 C266 0.930 . S
H259 C267 0.930 . S
H260 C270 0.930 . S
H261 C271 0.930 . S
C262 H256 0.930 . S
C262 C263 1.355 . S
C262 C264 1.415 . S
C263 C262 1.355 . S
C263 C265 1.419 . S
C264 C262 1.415 . S
C264 C269 1.425 . S
C264 C271 1.409 . S
C265 H257 0.930 . S
C265 C263 1.419 . S
C265 C266 1.362 . S
C266 H258 0.930 . S
C266 C265 1.362 . S
C266 C269 1.409 . S
C267 H259 0.930 . S
C267 C268 1.355 . S
C267 C269 1.415 . S
C268 C267 1.355 . S
C268 C270 1.419 . S
C269 C264 1.425 . S
C269 C266 1.409 . S
C269 C267 1.415 . S
C270 H260 0.930 . S
C270 C268 1.419 . S
C270 C271 1.362 . S
C271 H261 0.930 . S
C271 C264 1.409 . S
C271 C270 1.362 . S
H272 C278 0.930 . S
H273 C281 0.930 . S
H274 C282 0.930 . S
H275 C283 0.930 . S
H276 C286 0.930 . S
H277 C287 0.930 . S
C278 H272 0.930 . S
C278 C279 1.355 . S
C278 C280 1.415 . S
C279 C278 1.355 . S
C279 C281 1.419 . S
C280 C278 1.415 . S
C280 C285 1.425 . S
C280 C287 1.409 . S
C281 H273 0.930 . S
C281 C279 1.419 . S
C281 C282 1.362 . S
C282 H274 0.930 . S
C282 C281 1.362 . S
C282 C285 1.409 . S
C283 H275 0.930 . S
C283 C284 1.355 . S
C283 C285 1.415 . S
C284 C283 1.355 . S
C284 C286 1.419 . S
C285 C280 1.425 . S
C285 C282 1.409 . S
C285 C283 1.415 . S
C286 H276 0.930 . S
C286 C284 1.419 . S
C286 C287 1.362 . S
C287 H277 0.930 . S
C287 C280 1.409 . S
C287 C286 1.362 . S
H288 C294 0.930 . S
H289 C297 0.930 . S
H290 C298 0.930 . S
H291 C299 0.930 . S
H292 C302 0.930 . S
H293 C303 0.930 . S
C294 H288 0.930 . S
C294 C295 1.355 . S
C294 C296 1.415 . S
C295 C294 1.355 . S
C295 C297 1.419 . S
C296 C294 1.415 . S
C296 C301 1.425 . S
C296 C303 1.409 . S
C297 H289 0.930 . S
C297 C295 1.419 . S
C297 C298 1.362 . S
C298 H290 0.930 . S
C298 C297 1.362 . S
C298 C301 1.409 . S
C299 H291 0.930 . S
C299 C300 1.355 . S
C299 C301 1.415 . S
C300 C299 1.355 . S
C300 C302 1.419 . S
C301 C296 1.425 . S
C301 C298 1.409 . S
C301 C299 1.415 . S
C302 H292 0.930 . S
C302 C300 1.419 . S
C302 C303 1.362 . S
C303 H293 0.930 . S
C303 C296 1.409 . S
C303 C302 1.362 . S
H304 C310 0.930 . S
H305 C313 0.930 . S
H306 C314 0.930 . S
H307 C315 0.930 . S
H308 C318 0.930 . S
H309 C319 0.930 . S
C310 H304 0.930 . S
C310 C311 1.355 . S
C310 C312 1.415 . S
C311 C310 1.355 . S
C311 C313 1.419 . S
C312 C310 1.415 . S
C312 C317 1.425 . S
C312 C319 1.409 . S
C313 H305 0.930 . S
C313 C311 1.419 . S
C313 C314 1.362 . S
C314 H306 0.930 . S
C314 C313 1.362 . S
C314 C317 1.409 . S
C315 H307 0.930 . S
C315 C316 1.355 . S
C315 C317 1.415 . S
C316 C315 1.355 . S
C316 C318 1.419 . S
C317 C312 1.425 . S
C317 C314 1.409 . S
C317 C315 1.415 . S
C318 H308 0.930 . S
C318 C316 1.419 . S
C318 C319 1.362 . S
C319 H309 0.930 . S
C319 C312 1.409 . S
C319 C318 1.362 . S
H320 C326 0.930 . S
H321 C329 0.930 . S
H322 C330 0.930 . S
H323 C331 0.930 . S
H324 C334 0.930 . S
H325 C335 0.930 . S
C326 H320 0.930 . S
C326 C327 1.355 . S
C326 C328 1.415 . S
C327 C326 1.355 . S
C327 C329 1.419 . S
C328 C326 1.415 . S
C328 C333 1.425 . S
C328 C335 1.409 . S
C329 H321 0.930 . S
C329 C327 1.419 . S
C329 C330 1.362 . S
C330 H322 0.930 . S
C330 C329 1.362 . S
C330 C333 1.409 . S
C331 H323 0.930 . S
C331 C332 1.355 . S
C331 C333 1.415 . S
C332 C331 1.355 . S
C332 C334 1.419 . S
C333 C328 1.425 . S
C333 C330 1.409 . S
C333 C331 1.415 . S
C334 H324 0.930 . S
C334 C332 1.419 . S
C334 C335 1.362 . S
C335 H325 0.930 . S
C335 C328 1.409 . S
C335 C334 1.362 . S
H336 C342 0.930 . S
H337 C345 0.930 . S
H338 C346 0.930 . S
H339 C347 0.930 . S
H340 C350 0.930 1_545 S
H341 C351 0.930 . S
C342 H336 0.930 . S
C342 C343 1.355 . S
C342 C344 1.415 . S
C343 C342 1.355 . S
C343 C345 1.419 . S
C344 C342 1.415 . S
C344 C349 1.425 . S
C344 C351 1.409 . S
C345 H337 0.930 . S
C345 C343 1.419 . S
C345 C346 1.362 . S
C346 H338 0.930 . S
C346 C345 1.362 . S
C346 C349 1.409 . S
C347 H339 0.930 . S
C347 C348 1.355 . S
C347 C349 1.415 . S
C348 C347 1.355 . S
C348 C350 1.419 . S
C349 C344 1.425 . S
C349 C346 1.409 . S
C349 C347 1.415 . S
C350 H340 0.930 1_565 S
C350 C348 1.419 . S
C350 C351 1.362 . S
C351 H341 0.930 . S
C351 C344 1.409 . S
C351 C350 1.362 . S
H352 C358 0.930 . S
H353 C361 0.930 . S
H354 C362 0.930 . S
H355 C363 0.930 . S
H356 C366 0.930 . S
H357 C367 0.930 . S
C358 H352 0.930 . S
C358 C359 1.355 . S
C358 C360 1.415 . S
C359 C358 1.355 . S
C359 C361 1.419 . S
C360 C358 1.415 . S
C360 C365 1.425 . S
C360 C367 1.409 . S
C361 H353 0.930 . S
C361 C359 1.419 . S
C361 C362 1.362 . S
C362 H354 0.930 . S
C362 C361 1.362 . S
C362 C365 1.409 . S
C363 H355 0.930 . S
C363 C364 1.355 . S
C363 C365 1.415 . S
C364 C363 1.355 . S
C364 C366 1.419 . S
C365 C360 1.425 . S
C365 C362 1.409 . S
C365 C363 1.415 . S
C366 H356 0.930 . S
C366 C364 1.419 . S
C366 C367 1.362 . S
C367 H357 0.930 . S
C367 C360 1.409 . S
C367 C366 1.362 . S
H368 C374 0.930 . S
H369 C377 0.930 . S
H370 C378 0.930 . S
H371 C379 0.930 . S
H372 C382 0.930 . S
H373 C383 0.930 . S
C374 H368 0.930 . S
C374 C375 1.355 . S
C374 C376 1.415 . S
C375 C374 1.355 . S
C375 C377 1.419 . S
C376 C374 1.415 . S
C376 C381 1.425 . S
C376 C383 1.409 . S
C377 H369 0.930 . S
C377 C375 1.419 . S
C377 C378 1.362 . S
C378 H370 0.930 . S
C378 C377 1.362 . S
C378 C381 1.409 . S
C379 H371 0.930 . S
C379 C380 1.355 . S
C379 C381 1.415 . S
C380 C379 1.355 . S
C380 C382 1.419 . S
C381 C376 1.425 . S
C381 C378 1.409 . S
C381 C379 1.415 . S
C382 H372 0.930 . S
C382 C380 1.419 . S
C382 C383 1.362 . S
C383 H373 0.930 . S
C383 C376 1.409 . S
C383 C382 1.362 . S
H384 C390 0.930 . S
H385 C393 0.930 . S
H386 C394 0.930 . S
H387 C395 0.930 . S
H388 C398 0.930 . S
H389 C399 0.930 . S
C390 H384 0.930 . S
C390 C391 1.355 . S
C390 C392 1.415 . S
C391 C390 1.355 . S
C391 C393 1.419 . S
C392 C390 1.415 . S
C392 C397 1.425 . S
C392 C399 1.409 . S
C393 H385 0.930 . S
C393 C391 1.419 . S
C393 C394 1.362 . S
C394 H386 0.930 . S
C394 C393 1.362 . S
C394 C397 1.409 . S
C395 H387 0.930 . S
C395 C396 1.355 . S
C395 C397 1.415 . S
C396 C395 1.355 . S
C396 C398 1.419 . S
C397 C392 1.425 . S
C397 C394 1.409 . S
C397 C395 1.415 . S
C398 H388 0.930 . S
C398 C396 1.419 . S
C398 C399 1.362 . S
C399 H389 0.930 . S
C399 C392 1.409 . S
C399 C398 1.362 . S
H400 C406 0.930 . S
H401 C409 0.930 . S
H402 C410 0.930 . S
H403 C411 0.930 . S
H404 C414 0.930 . S
H405 C415 0.930 . S
C406 H400 0.930 . S
C406 C407 1.355 . S
C406 C408 1.415 . S
C407 C406 1.355 . S
C407 C409 1.419 . S
C408 C406 1.415 . S
C408 C413 1.425 . S
C408 C415 1.409 . S
C409 H401 0.930 . S
C409 C407 1.419 . S
C409 C410 1.362 . S
C410 H402 0.930 . S
C410 C409 1.362 . S
C410 C413 1.409 . S
C411 H403 0.930 . S
C411 C412 1.355 . S
C411 C413 1.415 . S
C412 C411 1.355 . S
C412 C414 1.419 . S
C413 C408 1.425 . S
C413 C410 1.409 . S
C413 C411 1.415 . S
C414 H404 0.930 . S
C414 C412 1.419 . S
C414 C415 1.362 . S
C415 H405 0.930 . S
C415 C408 1.409 . S
C415 C414 1.362 . S
H416 C422 0.930 . S
H417 C425 0.930 . S
H418 C426 0.930 . S
H419 C427 0.930 . S
H420 C430 0.930 . S
H421 C431 0.930 . S
C422 H416 0.930 . S
C422 C423 1.355 . S
C422 C424 1.415 . S
C423 C422 1.355 . S
C423 C425 1.419 . S
C424 C422 1.415 . S
C424 C429 1.425 . S
C424 C431 1.409 . S
C425 H417 0.930 . S
C425 C423 1.419 . S
C425 C426 1.362 . S
C426 H418 0.930 . S
C426 C425 1.362 . S
C426 C429 1.409 . S
C427 H419 0.930 . S
C427 C428 1.355 . S
C427 C429 1.415 . S
C428 C427 1.355 . S
C428 C430 1.419 . S
C429 C424 1.425 . S
C429 C426 1.409 . S
C429 C427 1.415 . S
C430 H420 0.930 . S
C430 C428 1.419 . S
C430 C431 1.362 . S
C431 H421 0.930 . S
C431 C424 1.409 . S
C431 C430 1.362 . S
H432 C438 0.930 . S
H433 C441 0.930 . S
H434 C442 0.930 . S
H435 C443 0.930 . S
H436 C446 0.930 . S
H437 C447 0.930 . S
C438 H432 0.930 . S
C438 C439 1.355 . S
C438 C440 1.415 . S
C439 C438 1.355 . S
C439 C441 1.419 . S
C440 C438 1.415 . S
C440 C445 1.425 . S
C440 C447 1.409 . S
C441 H433 0.930 . S
C441 C439 1.419 . S
C441 C442 1.362 . S
C442 H434 0.930 . S
C442 C441 1.362 . S
C442 C445 1.409 . S
C443 H435 0.930 . S
C443 C444 1.355 . S
C443 C445 1.415 . S
C444 C443 1.355 . S
C444 C446 1.419 . S
C445 C440 1.425 . S
C445 C442 1.409 . S
C445 C443 1.415 . S
C446 H436 0.930 . S
C446 C444 1.419 . S
C446 C447 1.362 . S
C447 H437 0.930 . S
C447 C440 1.409 . S
C447 C446 1.362 . S
H448 C454 0.930 . S
H449 C457 0.930 . S
H450 C458 0.930 . S
H451 C459 0.930 . S
H452 C462 0.930 . S
H453 C463 0.930 . S
C454 H448 0.930 . S
C454 C455 1.355 . S
C454 C456 1.415 . S
C455 C454 1.355 . S
C455 C457 1.419 . S
C456 C454 1.415 . S
C456 C461 1.425 . S
C456 C463 1.409 . S
C457 H449 0.930 . S
C457 C455 1.419 . S
C457 C458 1.362 . S
C458 H450 0.930 . S
C458 C457 1.362 . S
C458 C461 1.409 . S
C459 H451 0.930 . S
C459 C460 1.355 . S
C459 C461 1.415 . S
C460 C459 1.355 . S
C460 C462 1.419 . S
C461 C456 1.425 . S
C461 C458 1.409 . S
C461 C459 1.415 . S
C462 H452 0.930 . S
C462 C460 1.419 . S
C462 C463 1.362 . S
C463 H453 0.930 . S
C463 C456 1.409 . S
C463 C462 1.362 . S
H464 C470 0.930 . S
H465 C473 0.930 . S
H466 C474 0.930 . S
H467 C475 0.930 . S
H468 C478 0.930 . S
H469 C479 0.930 . S
C470 H464 0.930 . S
C470 C471 1.355 . S
C470 C472 1.415 . S
C471 C470 1.355 . S
C471 C473 1.419 . S
C472 C470 1.415 . S
C472 C477 1.425 . S
C472 C479 1.409 . S
C473 H465 0.930 . S
C473 C471 1.419 . S
C473 C474 1.362 . S
C474 H466 0.930 . S
C474 C473 1.362 . S
C474 C477 1.409 . S
C475 H467 0.930 . S
C475 C476 1.355 . S
C475 C477 1.415 . S
C476 C475 1.355 . S
C476 C478 1.419 . S
C477 C472 1.425 . S
C477 C474 1.409 . S
C477 C475 1.415 . S
C478 H468 0.930 . S
C478 C476 1.419 . S
C478 C479 1.362 . S
C479 H469 0.930 . S
C479 C472 1.409 . S
C479 C478 1.362 . S
H480 C486 0.930 . S
H481 C489 0.930 . S
H482 C490 0.930 . S
H483 C491 0.930 . S
H484 C494 0.930 . S
H485 C495 0.930 . S
C486 H480 0.930 . S
C486 C487 1.355 . S
C486 C488 1.415 . S
C487 C486 1.355 . S
C487 C489 1.419 . S
C488 C486 1.415 . S
C488 C493 1.425 . S
C488 C495 1.409 . S
C489 H481 0.930 . S
C489 C487 1.419 . S
C489 C490 1.362 . S
C490 H482 0.930 . S
C490 C489 1.362 . S
C490 C493 1.409 . S
C491 H483 0.930 . S
C491 C492 1.355 . S
C491 C493 1.415 . S
C492 C491 1.355 . S
C492 C494 1.419 . S
C493 C488 1.425 . S
C493 C490 1.409 . S
C493 C491 1.415 . S
C494 H484 0.930 . S
C494 C492 1.419 . S
C494 C495 1.362 . S
C495 H485 0.930 . S
C495 C488 1.409 . S
C495 C494 1.362 . S
H496 C502 0.930 . S
H497 C505 0.930 . S
H498 C506 0.930 . S
H499 C507 0.930 . S
H500 C510 0.930 . S
H501 C511 0.930 . S
C502 H496 0.930 . S
C502 C503 1.355 . S
C502 C504 1.415 . S
C503 C502 1.355 . S
C503 C505 1.419 . S
C504 C502 1.415 . S
C504 C509 1.425 . S
C504 C511 1.409 . S
C505 H497 0.930 . S
C505 C503 1.419 . S
C505 C506 1.362 . S
C506 H498 0.930 . S
C506 C505 1.362 . S
C506 C509 1.409 . S
C507 H499 0.930 . S
C507 C508 1.355 . S
C507 C509 1.415 . S
C508 C507 1.355 . S
C508 C510 1.419 . S
C509 C504 1.425 . S
C509 C506 1.409 . S
C509 C507 1.415 . S
C510 H500 0.930 . S
C510 C508 1.419 . S
C510 C511 1.362 . S
C511 H501 0.930 . S
C511 C504 1.409 . S
C511 C510 1.362 . S
H512 C518 0.930 . S
H513 C521 0.930 . S
H514 C522 0.930 . S
H515 C523 0.930 . S
H516 C526 0.930 . S
H517 C527 0.930 . S
C518 H512 0.930 . S
C518 C519 1.355 . S
C518 C520 1.415 . S
C519 C518 1.355 . S
C519 C521 1.419 . S
C520 C518 1.415 . S
C520 C525 1.425 . S
C520 C527 1.409 . S
C521 H513 0.930 . S
C521 C519 1.419 . S
C521 C522 1.362 . S
C522 H514 0.930 . S
C522 C521 1.362 . S
C522 C525 1.409 . S
C523 H515 0.930 . S
C523 C524 1.355 . S
C523 C525 1.415 . S
C524 C523 1.355 . S
C524 C526 1.419 . S
C525 C520 1.425 . S
C525 C522 1.409 . S
C525 C523 1.415 . S
C526 H516 0.930 . S
C526 C524 1.419 . S
C526 C527 1.362 . S
C527 H517 0.930 . S
C527 C520 1.409 . S
C527 C526 1.362 . S
H528 C534 0.930 . S
H529 C537 0.930 . S
H530 C538 0.930 . S
H531 C539 0.930 . S
H532 C542 0.930 . S
H533 C543 0.930 . S
C534 H528 0.930 . S
C534 C535 1.355 . S
C534 C536 1.415 . S
C535 C534 1.355 . S
C535 C537 1.419 . S
C536 C534 1.415 . S
C536 C541 1.425 . S
C536 C543 1.409 . S
C537 H529 0.930 . S
C537 C535 1.419 . S
C537 C538 1.362 . S
C538 H530 0.930 . S
C538 C537 1.362 . S
C538 C541 1.409 . S
C539 H531 0.930 . S
C539 C540 1.355 . S
C539 C541 1.415 . S
C540 C539 1.355 . S
C540 C542 1.419 . S
C541 C536 1.425 . S
C541 C538 1.409 . S
C541 C539 1.415 . S
C542 H532 0.930 . S
C542 C540 1.419 . S
C542 C543 1.362 . S
C543 H533 0.930 . S
C543 C536 1.409 . S
C543 C542 1.362 . S
H544 C550 0.930 . S
H545 C553 0.930 . S
H546 C554 0.930 . S
H547 C555 0.930 . S
H548 C558 0.930 . S
H549 C559 0.930 . S
C550 H544 0.930 . S
C550 C551 1.355 . S
C550 C552 1.415 . S
C551 C550 1.355 . S
C551 C553 1.419 . S
C552 C550 1.415 . S
C552 C557 1.425 . S
C552 C559 1.409 . S
C553 H545 0.930 . S
C553 C551 1.419 . S
C553 C554 1.362 . S
C554 H546 0.930 . S
C554 C553 1.362 . S
C554 C557 1.409 . S
C555 H547 0.930 . S
C555 C556 1.355 . S
C555 C557 1.415 . S
C556 C555 1.355 . S
C556 C558 1.419 . S
C557 C552 1.425 . S
C557 C554 1.409 . S
C557 C555 1.415 . S
C558 H548 0.930 . S
C558 C556 1.419 . S
C558 C559 1.362 . S
C559 H549 0.930 . S
C559 C552 1.409 . S
C559 C558 1.362 . S
H560 C566 0.930 . S
H561 C569 0.930 . S
H562 C570 0.930 . S
H563 C571 0.930 . S
H564 C574 0.930 . S
H565 C575 0.930 . S
C566 H560 0.930 . S
C566 C567 1.355 . S
C566 C568 1.415 . S
C567 C566 1.355 . S
C567 C569 1.419 . S
C568 C566 1.415 . S
C568 C573 1.425 . S
C568 C575 1.409 . S
C569 H561 0.930 . S
C569 C567 1.419 . S
C569 C570 1.362 . S
C570 H562 0.930 . S
C570 C569 1.362 . S
C570 C573 1.409 . S
C571 H563 0.930 . S
C571 C572 1.355 . S
C571 C573 1.415 . S
C572 C571 1.355 . S
C572 C574 1.419 . S
C573 C568 1.425 . S
C573 C570 1.409 . S
C573 C571 1.415 . S
C574 H564 0.930 . S
C574 C572 1.419 . S
C574 C575 1.362 . S
C575 H565 0.930 . S
C575 C568 1.409 . S
C575 C574 1.362 . S
H576 C582 0.930 . S
H577 C585 0.930 . S
H578 C586 0.930 . S
H579 C587 0.930 . S
H580 C590 0.930 . S
H581 C591 0.930 . S
C582 H576 0.930 . S
C582 C583 1.355 . S
C582 C584 1.415 . S
C583 C582 1.355 . S
C583 C585 1.419 . S
C584 C582 1.415 . S
C584 C589 1.425 . S
C584 C591 1.409 . S
C585 H577 0.930 . S
C585 C583 1.419 . S
C585 C586 1.362 . S
C586 H578 0.930 . S
C586 C585 1.362 . S
C586 C589 1.409 . S
C587 H579 0.930 . S
C587 C588 1.355 . S
C587 C589 1.415 . S
C588 C587 1.355 . S
C588 C590 1.419 . S
C589 C584 1.425 . S
C589 C586 1.409 . S
C589 C587 1.415 . S
C590 H580 0.930 . S
C590 C588 1.419 . S
C590 C591 1.362 . S
C591 H581 0.930 . S
C591 C584 1.409 . S
C591 C590 1.362 . S
H592 C598 0.930 . S
H593 C601 0.930 . S
H594 C602 0.930 . S
H595 C603 0.930 . S
H596 C606 0.930 . S
H597 C607 0.930 . S
C598 H592 0.930 . S
C598 C599 1.355 . S
C598 C600 1.415 . S
C599 C598 1.355 . S
C599 C601 1.419 . S
C600 C598 1.415 . S
C600 C605 1.425 . S
C600 C607 1.409 . S
C601 H593 0.930 . S
C601 C599 1.419 . S
C601 C602 1.362 . S
C602 H594 0.930 . S
C602 C601 1.362 . S
C602 C605 1.409 . S
C603 H595 0.930 . S
C603 C604 1.355 . S
C603 C605 1.415 . S
C604 C603 1.355 . S
C604 C606 1.419 . S
C605 C600 1.425 . S
C605 C602 1.409 . S
C605 C603 1.415 . S
C606 H596 0.930 . S
C606 C604 1.419 . S
C606 C607 1.362 . S
C607 H597 0.930 . S
C607 C600 1.409 . S
C607 C606 1.362 . S
H608 C614 0.930 . S
H609 C617 0.930 . S
H610 C618 0.930 . S
H611 C619 0.930 . S
H612 C622 0.930 . S
H613 C623 0.930 . S
C614 H608 0.930 . S
C614 C615 1.355 . S
C614 C616 1.415 . S
C615 C614 1.355 . S
C615 C617 1.419 . S
C616 C614 1.415 . S
C616 C621 1.425 . S
C616 C623 1.409 . S
C617 H609 0.930 . S
C617 C615 1.419 . S
C617 C618 1.362 . S
C618 H610 0.930 . S
C618 C617 1.362 . S
C618 C621 1.409 . S
C619 H611 0.930 . S
C619 C620 1.355 . S
C619 C621 1.415 . S
C620 C619 1.355 . S
C620 C622 1.419 . S
C621 C616 1.425 . S
C621 C618 1.409 . S
C621 C619 1.415 . S
C622 H612 0.930 . S
C622 C620 1.419 . S
C622 C623 1.362 . S
C623 H613 0.930 . S
C623 C616 1.409 . S
C623 C622 1.362 . S
H624 C630 0.930 . S
H625 C633 0.930 . S
H626 C634 0.930 . S
H627 C635 0.930 . S
H628 C638 0.930 . S
H629 C639 0.930 . S
C630 H624 0.930 . S
C630 C631 1.355 . S
C630 C632 1.415 . S
C631 C630 1.355 . S
C631 C633 1.419 . S
C632 C630 1.415 . S
C632 C637 1.425 . S
C632 C639 1.409 . S
C633 H625 0.930 . S
C633 C631 1.419 . S
C633 C634 1.362 . S
C634 H626 0.930 . S
C634 C633 1.362 . S
C634 C637 1.409 . S
C635 H627 0.930 . S
C635 C636 1.355 . S
C635 C637 1.415 . S
C636 C635 1.355 . S
C636 C638 1.419 . S
C637 C632 1.425 . S
C637 C634 1.409 . S
C637 C635 1.415 . S
C638 H628 0.930 . S
C638 C636 1.419 . S
C638 C639 1.362 . S
C639 H629 0.930 . S
C639 C632 1.409 . S
C639 C638 1.362 . S
C263 C6 1.073 . S
C268 C102 1.044 . S
C279 C18 1.241 . S
C284 C151 1.234 . S
C300 C186 2.579 . S
C295 C28 2.658 . S
C311 C40 1.886 . S
C316 C225 1.843 . S
C332 C146 2.249 . S
C327 C9 2.137 . S
C348 C105 0.847 . S
C343 C16 0.858 . S
C364 C235 1.887 . S
C359 C30 1.941 . S
C380 C194 1.376 . S
C375 C42 1.410 . S
C391 C4 1.488 . S
C396 C222 1.506 . S
C412 C154 2.496 . S
C407 C33 2.592 . S
C423 C45 2.099 . S
C428 C115 2.083 . S
C439 C21 1.049 . S
C444 C191 1.117 . S
C460 C111 1.041 . S
C455 C57 1.040 . S
C471 C66 1.267 . S
C476 C142 1.267 . S
C487 C76 2.702 . S
C492 C195 2.648 . S
C503 C88 1.834 . S
C508 C234 1.773 . S
C519 C54 2.149 . S
C524 C155 2.242 . S
C540 C114 0.872 . S
C535 C64 0.924 . S
C556 C226 1.842 . S
C551 C78 1.879 . S
C572 C185 1.451 . S
C567 C93 1.452 . S
C583 C52 1.445 . S
C588 C231 1.519 . S
C604 C145 2.519 . S
C599 C81 2.600 . S
C620 C106 2.058 . S
C615 C90 2.069 . S
C631 C69 1.017 . S
C636 C182 1.081 . S
