# Generated by pormake.
# Topology ssb, (4,4)-cn, num edge types: 1
# Building blocks:
#     Node 0, Type 0, BuildingBlock: AZAVOO_clean_linker_0, # of connection points: 4
#     Node 1, Type 0, BuildingBlock: AZAVOO_clean_linker_0, # of connection points: 4
#     Node 2, Type 0, BuildingBlock: AZAVOO_clean_linker_0, # of connection points: 4
#     Node 3, Type 0, BuildingBlock: AZAVOO_clean_linker_0, # of connection points: 4
#     Node 4, Type 0, BuildingBlock: AZAVOO_clean_linker_0, # of connection points: 4
#     Node 5, Type 0, BuildingBlock: AZAVOO_clean_linker_0, # of connection points: 4
#     Node 6, Type 0, BuildingBlock: AZAVOO_clean_linker_0, # of connection points: 4
#     Node 7, Type 0, BuildingBlock: AZAVOO_clean_linker_0, # of connection points: 4
#     Node 8, Type 1, BuildingBlock: NAWXER_clean_sbu_0, # of connection points: 4
#     Node 9, Type 1, BuildingBlock: NAWXER_clean_sbu_0, # of connection points: 4
#     Node 10, Type 1, BuildingBlock: NAWXER_clean_sbu_0, # of connection points: 4
#     Node 11, Type 1, BuildingBlock: NAWXER_clean_sbu_0, # of connection points: 4
#     Node 12, Type 1, BuildingBlock: NAWXER_clean_sbu_0, # of connection points: 4
#     Node 13, Type 1, BuildingBlock: NAWXER_clean_sbu_0, # of connection points: 4
#     Node 14, Type 1, BuildingBlock: NAWXER_clean_sbu_0, # of connection points: 4
#     Node 15, Type 1, BuildingBlock: NAWXER_clean_sbu_0, # of connection points: 4
#     Edge 16, Type (0, 1), BuildingBlock: UVAHIK_clean_linker_0, # of connection points: 2
#     Edge 17, Type (0, 1), BuildingBlock: UVAHIK_clean_linker_0, # of connection points: 2
#     Edge 18, Type (0, 1), BuildingBlock: UVAHIK_clean_linker_0, # of connection points: 2
#     Edge 19, Type (0, 1), BuildingBlock: UVAHIK_clean_linker_0, # of connection points: 2
#     Edge 20, Type (0, 1), BuildingBlock: UVAHIK_clean_linker_0, # of connection points: 2
#     Edge 21, Type (0, 1), BuildingBlock: UVAHIK_clean_linker_0, # of connection points: 2
#     Edge 22, Type (0, 1), BuildingBlock: UVAHIK_clean_linker_0, # of connection points: 2
#     Edge 23, Type (0, 1), BuildingBlock: UVAHIK_clean_linker_0, # of connection points: 2
#     Edge 24, Type (0, 1), BuildingBlock: UVAHIK_clean_linker_0, # of connection points: 2
#     Edge 25, Type (0, 1), BuildingBlock: UVAHIK_clean_linker_0, # of connection points: 2
#     Edge 26, Type (0, 1), BuildingBlock: UVAHIK_clean_linker_0, # of connection points: 2
#     Edge 27, Type (0, 1), BuildingBlock: UVAHIK_clean_linker_0, # of connection points: 2
#     Edge 28, Type (0, 1), BuildingBlock: UVAHIK_clean_linker_0, # of connection points: 2
#     Edge 29, Type (0, 1), BuildingBlock: UVAHIK_clean_linker_0, # of connection points: 2
#     Edge 30, Type (0, 1), BuildingBlock: UVAHIK_clean_linker_0, # of connection points: 2
#     Edge 31, Type (0, 1), BuildingBlock: UVAHIK_clean_linker_0, # of connection points: 2
#     Edge 32, Type (0, 1), BuildingBlock: UVAHIK_clean_linker_0, # of connection points: 2
#     Edge 33, Type (0, 1), BuildingBlock: UVAHIK_clean_linker_0, # of connection points: 2
#     Edge 34, Type (0, 1), BuildingBlock: UVAHIK_clean_linker_0, # of connection points: 2
#     Edge 35, Type (0, 1), BuildingBlock: UVAHIK_clean_linker_0, # of connection points: 2
#     Edge 36, Type (0, 1), BuildingBlock: UVAHIK_clean_linker_0, # of connection points: 2
#     Edge 37, Type (0, 1), BuildingBlock: UVAHIK_clean_linker_0, # of connection points: 2
#     Edge 38, Type (0, 1), BuildingBlock: UVAHIK_clean_linker_0, # of connection points: 2
#     Edge 39, Type (0, 1), BuildingBlock: UVAHIK_clean_linker_0, # of connection points: 2
#     Edge 40, Type (0, 1), BuildingBlock: UVAHIK_clean_linker_0, # of connection points: 2
#     Edge 41, Type (0, 1), BuildingBlock: UVAHIK_clean_linker_0, # of connection points: 2
#     Edge 42, Type (0, 1), BuildingBlock: UVAHIK_clean_linker_0, # of connection points: 2
#     Edge 43, Type (0, 1), BuildingBlock: UVAHIK_clean_linker_0, # of connection points: 2
#     Edge 44, Type (0, 1), BuildingBlock: UVAHIK_clean_linker_0, # of connection points: 2
#     Edge 45, Type (0, 1), BuildingBlock: UVAHIK_clean_linker_0, # of connection points: 2
#     Edge 46, Type (0, 1), BuildingBlock: UVAHIK_clean_linker_0, # of connection points: 2
#     Edge 47, Type (0, 1), BuildingBlock: UVAHIK_clean_linker_0, # of connection points: 2
# Relax obj value: 0.053
# Max RMSD: 0.285
# Mean RMSD: 0.111
data_MOF--net-ssb--node1-NAWXER_clean_sbu_0--node2-AZAVOO_clean_linker_0--edge1-UVAHIK_clean_linker_0
_symmetry_space_group_name_H-M    P1
_symmetry_Int_Tables_number       1
_symmetry_cell_setting            triclinic
loop_
_symmetry_equiv_pos_as_xyz
'x, y, z'
_cell_length_a     63.852415
_cell_length_b     66.047952
_cell_length_c     55.491327
_cell_angle_alpha  92.549246
_cell_angle_beta   89.968142
_cell_angle_gamma 90.007814
loop_
_atom_site_label
_atom_site_type_symbol
_atom_site_fract_x
_atom_site_fract_y
_atom_site_fract_z
_atom_type_partial_charge
H0 H 0.18608 0.50527 0.28926 0.0
H1 H 0.31809 0.411 0.08772 0.0
H2 H 0.25228 0.42102 0.30005 0.0
H3 H 0.2276 0.4167 0.33335 0.0
H4 H 0.2008 0.36469 0.29468 0.0
H5 H 0.22535 0.36917 0.26159 0.0
H6 H 0.25786 0.45473 0.26052 0.0
H7 H 0.23218 0.48026 0.27412 0.0
H8 H 0.18219 0.4376 0.25795 0.0
H9 H 0.20803 0.4123 0.24414 0.0
H10 H 0.29081 0.44782 0.21313 0.0
H11 H 0.28674 0.47705 0.18828 0.0
H12 H 0.22188 0.46069 0.17563 0.0
H13 H 0.22676 0.43053 0.19882 0.0
H14 H 0.31848 0.41013 0.20796 0.0
H15 H 0.33752 0.41312 0.17001 0.0
H16 H 0.27949 0.40501 0.13059 0.0
H17 H 0.26068 0.4018 0.16866 0.0
H18 H 0.31814 0.37844 0.24802 0.0
H19 H 0.34414 0.35367 0.23329 0.0
H20 H 0.30297 0.33575 0.17425 0.0
H21 H 0.27673 0.35992 0.1898 0.0
H22 H 0.28983 0.38714 0.29249 0.0
H23 H 0.30083 0.3593 0.31736 0.0
H24 H 0.27133 0.31638 0.26709 0.0
H25 H 0.2604 0.34437 0.24227 0.0
O26 O 0.19596 0.49497 0.28369 0.0
O27 O 0.17085 0.47244 0.27518 0.0
O28 O 0.34038 0.41386 0.12409 0.0
O29 O 0.31096 0.40984 0.10299 0.0
C30 C 0.25389 0.399 0.25714 0.0
C31 C 0.25048 0.41619 0.24333 0.0
C32 C 0.26211 0.41867 0.22196 0.0
C33 C 0.27671 0.40368 0.21411 0.0
C34 C 0.2803 0.38669 0.22816 0.0
C35 C 0.26921 0.38459 0.2499 0.0
C36 C 0.24053 0.39543 0.27841 0.0
C37 C 0.24117 0.40861 0.29894 0.0
C38 C 0.22706 0.40616 0.31785 0.0
C39 C 0.21225 0.39038 0.31658 0.0
C40 C 0.21219 0.37683 0.29633 0.0
C41 C 0.22617 0.37937 0.2774 0.0
C42 C 0.2348 0.43169 0.25138 0.0
C43 C 0.24135 0.45098 0.25985 0.0
C44 C 0.22665 0.4655 0.26765 0.0
C45 C 0.20513 0.46097 0.26716 0.0
C46 C 0.19864 0.44159 0.2586 0.0
C47 C 0.21336 0.4271 0.25074 0.0
C48 C 0.25912 0.437 0.20775 0.0
C49 C 0.27578 0.45049 0.2048 0.0
C50 C 0.27331 0.46736 0.19081 0.0
C51 C 0.25393 0.47138 0.17989 0.0
C52 C 0.23714 0.45797 0.18331 0.0
C53 C 0.23979 0.44083 0.19687 0.0
C54 C 0.28822 0.4057 0.19105 0.0
C55 C 0.30993 0.40892 0.1911 0.0
C56 C 0.32075 0.41067 0.16941 0.0
C57 C 0.31002 0.4093 0.14725 0.0
C58 C 0.28823 0.40614 0.14731 0.0
C59 C 0.27744 0.40434 0.16902 0.0
C60 C 0.29562 0.37099 0.21992 0.0
C61 C 0.31465 0.36891 0.23214 0.0
C62 C 0.32951 0.35486 0.22359 0.0
C63 C 0.32568 0.34279 0.20251 0.0
C64 C 0.30632 0.34459 0.1907 0.0
C65 C 0.2914 0.35852 0.19939 0.0
C66 C 0.27434 0.36772 0.26564 0.0
C67 C 0.2856 0.37173 0.28699 0.0
C68 C 0.29201 0.35585 0.30102 0.0
C69 C 0.28704 0.33571 0.29403 0.0
C70 C 0.27528 0.33178 0.27292 0.0
C71 C 0.26906 0.34768 0.25875 0.0
C72 C 0.18956 0.47641 0.27556 0.0
C73 C 0.32144 0.41115 0.12415 0.0
H74 H 0.64359 0.15809 0.29485 0.0
H75 H 0.80222 0.23991 0.4745 0.0
H76 H 0.71441 0.24096 0.27866 0.0
H77 H 0.69208 0.24611 0.24369 0.0
H78 H 0.66286 0.29725 0.28161 0.0
H79 H 0.68534 0.29196 0.31659 0.0
H80 H 0.71849 0.20698 0.31477 0.0
H81 H 0.69125 0.18213 0.30409 0.0
H82 H 0.64388 0.22512 0.32857 0.0
H83 H 0.67131 0.24976 0.3394 0.0
H84 H 0.75431 0.21002 0.35242 0.0
H85 H 0.75291 0.17991 0.37652 0.0
H86 H 0.69493 0.20139 0.40879 0.0
H87 H 0.69675 0.2317 0.38494 0.0
H88 H 0.78459 0.24733 0.35665 0.0
H89 H 0.80884 0.24127 0.3897 0.0
H90 H 0.75823 0.25041 0.44088 0.0
H91 H 0.73423 0.25667 0.40767 0.0
H92 H 0.77929 0.28207 0.31987 0.0
H93 H 0.80858 0.30455 0.33095 0.0
H94 H 0.77802 0.32074 0.39861 0.0
H95 H 0.7486 0.29859 0.3871 0.0
H96 H 0.74132 0.28026 0.27997 0.0
H97 H 0.74518 0.31113 0.25742 0.0
H98 H 0.73045 0.34745 0.3218 0.0
H99 H 0.72566 0.3165 0.34406 0.0
O100 O 0.65411 0.16812 0.29929 0.0
O101 O 0.63037 0.19079 0.31204 0.0
O102 O 0.8185 0.23787 0.43406 0.0
O103 O 0.793 0.24231 0.46109 0.0
C104 C 0.71536 0.26296 0.32112 0.0
C105 C 0.71344 0.24522 0.3343 0.0
C106 C 0.72732 0.24181 0.3535 0.0
C107 C 0.74302 0.25618 0.35968 0.0
C108 C 0.74488 0.27399 0.34664 0.0
C109 C 0.73102 0.27743 0.32739 0.0
C110 C 0.70142 0.26603 0.30018 0.0
C111 C 0.70307 0.25317 0.27947 0.0
C112 C 0.69029 0.25612 0.25954 0.0
C113 C 0.67568 0.27206 0.25992 0.0
C114 C 0.67411 0.28497 0.2807 0.0
C115 C 0.68684 0.28193 0.3007 0.0
C116 C 0.69686 0.23013 0.32792 0.0
C117 C 0.70222 0.21095 0.31793 0.0
C118 C 0.68663 0.19681 0.31179 0.0
C119 C 0.66538 0.20163 0.31548 0.0
C120 C 0.66009 0.22091 0.32549 0.0
C121 C 0.67571 0.23502 0.33166 0.0
C122 C 0.72568 0.22303 0.36705 0.0
C123 C 0.74128 0.20814 0.36464 0.0
C124 C 0.74037 0.19092 0.37828 0.0
C125 C 0.72382 0.1883 0.39458 0.0
C126 C 0.708 0.2031 0.39659 0.0
C127 C 0.70892 0.22032 0.3829 0.0
C128 C 0.75769 0.25247 0.37979 0.0
C129 C 0.77881 0.24809 0.37502 0.0
C130 C 0.7926 0.2446 0.39393 0.0
C131 C 0.78546 0.24535 0.41795 0.0
C132 C 0.76425 0.24971 0.42261 0.0
C133 C 0.75049 0.25326 0.40369 0.0
C134 C 0.76189 0.28867 0.35273 0.0
C135 C 0.77883 0.29069 0.33693 0.0
C136 C 0.79557 0.30342 0.34336 0.0
C137 C 0.79565 0.31435 0.3657 0.0
C138 C 0.77833 0.31271 0.38117 0.0
C139 C 0.7616 0.29996 0.37473 0.0
C140 C 0.73312 0.29612 0.31363 0.0
C141 C 0.73859 0.29485 0.28911 0.0
C142 C 0.7408 0.31244 0.27629 0.0
C143 C 0.73806 0.33156 0.28795 0.0
C144 C 0.73269 0.33284 0.3125 0.0
C145 C 0.73001 0.31523 0.32518 0.0
C146 C 0.64885 0.18659 0.30887 0.0
C147 C 0.80004 0.24161 0.4381 0.0
H148 H 0.64724 0.85937 0.31501 0.0
H149 H 0.71273 0.65856 0.19578 0.0
H150 H 0.74206 0.80963 0.33085 0.0
H151 H 0.7386 0.83401 0.3652 0.0
H152 H 0.731 0.78469 0.41295 0.0
H153 H 0.73363 0.76031 0.37833 0.0
H154 H 0.71443 0.80292 0.28709 0.0
H155 H 0.68812 0.8296 0.2929 0.0
H156 H 0.66399 0.79967 0.35487 0.0
H157 H 0.69022 0.77292 0.34865 0.0
H158 H 0.7268 0.76601 0.24759 0.0
H159 H 0.70112 0.77359 0.2166 0.0
H160 H 0.65094 0.76198 0.26628 0.0
H161 H 0.67678 0.75332 0.29702 0.0
H162 H 0.76039 0.73752 0.25135 0.0
H163 H 0.75842 0.7127 0.21739 0.0
H164 H 0.70349 0.6863 0.24911 0.0
H165 H 0.70585 0.71103 0.28319 0.0
H166 H 0.79059 0.74608 0.29017 0.0
H167 H 0.81589 0.72031 0.27583 0.0
H168 H 0.77471 0.67329 0.29958 0.0
H169 H 0.74943 0.69913 0.3137 0.0
H170 H 0.78265 0.78264 0.33182 0.0
H171 H 0.81413 0.78244 0.35682 0.0
H172 H 0.79597 0.7244 0.38323 0.0
H173 H 0.76439 0.72476 0.35807 0.0
O174 O 0.65741 0.84857 0.31294 0.0
O175 O 0.64566 0.83265 0.34474 0.0
O176 O 0.74233 0.68251 0.19364 0.0
O177 O 0.71391 0.66851 0.20905 0.0
C178 C 0.73692 0.76865 0.33081 0.0
C179 C 0.72036 0.76989 0.31399 0.0
C180 C 0.71951 0.75618 0.2937 0.0
C181 C 0.73477 0.7408 0.29069 0.0
C182 C 0.75143 0.73969 0.30734 0.0
C183 C 0.75267 0.75376 0.3272 0.0
C184 C 0.73777 0.7832 0.35203 0.0
C185 C 0.73968 0.80407 0.34872 0.0
C186 C 0.73768 0.81795 0.36828 0.0
C187 C 0.73431 0.81117 0.39159 0.0
C188 C 0.73358 0.79025 0.39512 0.0
C189 C 0.73514 0.77635 0.37543 0.0
C190 C 0.70416 0.78594 0.31738 0.0
C191 C 0.70335 0.80208 0.3018 0.0
C192 C 0.68835 0.81733 0.30521 0.0
C193 C 0.67395 0.81677 0.32436 0.0
C194 C 0.67484 0.80056 0.33995 0.0
C195 C 0.6898 0.78527 0.33645 0.0
C196 C 0.70368 0.75901 0.27453 0.0
C197 C 0.71028 0.76453 0.25161 0.0
C198 C 0.69564 0.76891 0.23399 0.0
C199 C 0.67416 0.76832 0.23917 0.0
C200 C 0.66748 0.76253 0.26197 0.0
C201 C 0.68216 0.75762 0.27945 0.0
C202 C 0.73339 0.72592 0.26984 0.0
C203 C 0.74805 0.72625 0.25103 0.0
C204 C 0.74683 0.71212 0.2316 0.0
C205 C 0.73081 0.69748 0.23055 0.0
C206 C 0.71604 0.69733 0.24937 0.0
C207 C 0.71733 0.71145 0.26883 0.0
C208 C 0.76819 0.72442 0.30287 0.0
C209 C 0.7873 0.73023 0.29282 0.0
C210 C 0.80165 0.71554 0.28456 0.0
C211 C 0.79719 0.69484 0.28654 0.0
C212 C 0.77862 0.68914 0.29805 0.0
C213 C 0.76416 0.70384 0.30604 0.0
C214 C 0.77122 0.75377 0.34324 0.0
C215 C 0.78537 0.76999 0.3432 0.0
C216 C 0.8033 0.76985 0.3575 0.0
C217 C 0.80747 0.75341 0.37202 0.0
C218 C 0.79324 0.73716 0.37205 0.0
C219 C 0.7752 0.73738 0.35781 0.0
C220 C 0.65813 0.83309 0.32804 0.0
C221 C 0.72944 0.68243 0.20994 0.0
H222 H 0.34924 0.00545 0.28589 0.0
H223 H 0.27002 0.84101 0.10917 0.0
H224 H 0.26912 0.93348 0.30745 0.0
H225 H 0.26488 0.96039 0.33867 0.0
H226 H 0.20954 0.98134 0.30243 0.0
H227 H 0.21437 0.95466 0.27078 0.0
H228 H 0.30393 0.92903 0.27025 0.0
H229 H 0.32765 0.95748 0.27915 0.0
H230 H 0.28066 0.99887 0.25438 0.0
H231 H 0.25719 0.97024 0.2453 0.0
H232 H 0.30176 0.89085 0.2349 0.0
H233 H 0.33477 0.89179 0.21276 0.0
H234 H 0.31379 0.94528 0.17762 0.0
H235 H 0.28077 0.94433 0.20028 0.0
H236 H 0.26552 0.86068 0.22809 0.0
H237 H 0.27134 0.83659 0.19397 0.0
H238 H 0.25968 0.88426 0.1447 0.0
H239 H 0.25354 0.9081 0.17901 0.0
H240 H 0.23072 0.86288 0.26384 0.0
H241 H 0.21315 0.83231 0.24737 0.0
H242 H 0.1929 0.86526 0.18594 0.0
H243 H 0.21001 0.89569 0.20282 0.0
H244 H 0.23631 0.90215 0.30819 0.0
H245 H 0.20842 0.89381 0.33631 0.0
H246 H 0.16246 0.90106 0.28035 0.0
H247 H 0.1904 0.91042 0.25245 0.0
O248 O 0.33964 0.99441 0.28215 0.0
O249 O 0.31491 0.01506 0.26936 0.0
O250 O 0.27341 0.82621 0.14909 0.0
O251 O 0.26789 0.85024 0.12299 0.0
C252 C 0.24648 0.92772 0.26626 0.0
C253 C 0.26447 0.93031 0.25178 0.0
C254 C 0.26883 0.91633 0.23248 0.0
C255 C 0.25462 0.90049 0.22676 0.0
C256 C 0.23643 0.89812 0.24093 0.0
C257 C 0.23271 0.91129 0.26124 0.0
C258 C 0.24221 0.94232 0.28674 0.0
C259 C 0.25597 0.94378 0.30641 0.0
C260 C 0.25339 0.95904 0.32434 0.0
C261 C 0.2369 0.97307 0.32298 0.0
C262 C 0.22254 0.97093 0.30381 0.0
C263 C 0.22518 0.95565 0.28583 0.0
C264 C 0.2789 0.94758 0.25703 0.0
C265 C 0.29886 0.94424 0.26662 0.0
C266 C 0.31234 0.96053 0.27175 0.0
C267 C 0.30606 0.98046 0.26746 0.0
C268 C 0.286 0.98372 0.25788 0.0
C269 C 0.27256 0.96741 0.25269 0.0
C270 C 0.28888 0.91745 0.21907 0.0
C271 C 0.3043 0.90275 0.2224 0.0
C272 C 0.3231 0.90328 0.20966 0.0
C273 C 0.32684 0.91852 0.19326 0.0
C274 C 0.31144 0.93344 0.19024 0.0
C275 C 0.29257 0.93289 0.20305 0.0
C276 C 0.25899 0.88608 0.206 0.0
C277 C 0.26417 0.86586 0.20991 0.0
C278 C 0.26753 0.85215 0.19039 0.0
C279 C 0.26593 0.8585 0.16658 0.0
C280 C 0.26101 0.87886 0.16278 0.0
C281 C 0.25755 0.89253 0.18233 0.0
C282 C 0.22176 0.88138 0.23437 0.0
C283 C 0.22181 0.86363 0.24729 0.0
C284 C 0.21191 0.84618 0.23777 0.0
C285 C 0.20187 0.8463 0.2152 0.0
C286 C 0.2003 0.86466 0.20345 0.0
C287 C 0.21016 0.88206 0.21299 0.0
C288 C 0.21543 0.90698 0.27826 0.0
C289 C 0.2202 0.90235 0.30208 0.0
C290 C 0.20431 0.89754 0.3181 0.0
C291 C 0.18337 0.89683 0.31043 0.0
C292 C 0.17853 0.90146 0.2866 0.0
C293 C 0.19444 0.90675 0.2707 0.0
C294 C 0.3204 0.99773 0.27301 0.0
C295 C 0.26933 0.84396 0.14578 0.0
H296 H 0.41787 0.96655 0.75619 0.0
H297 H 0.21783 0.91171 0.59378 0.0
H298 H 0.34099 0.86296 0.75052 0.0
H299 H 0.36352 0.86081 0.7859 0.0
H300 H 0.33621 0.91615 0.81635 0.0
H301 H 0.31389 0.91825 0.78063 0.0
H302 H 0.3614 0.90042 0.72611 0.0
H303 H 0.38968 0.9239 0.73766 0.0
H304 H 0.34427 0.97189 0.74959 0.0
H305 H 0.31612 0.94818 0.73828 0.0
H306 H 0.34428 0.91472 0.67649 0.0
H307 H 0.35455 0.94424 0.65397 0.0
H308 H 0.29485 0.97227 0.67099 0.0
H309 H 0.28505 0.94302 0.69403 0.0
H310 H 0.30679 0.8905 0.65058 0.0
H311 H 0.28747 0.8941 0.61293 0.0
H312 H 0.23194 0.91068 0.65389 0.0
H313 H 0.2515 0.90725 0.69137 0.0
H314 H 0.2871 0.85265 0.67527 0.0
H315 H 0.25836 0.83065 0.66151 0.0
H316 H 0.22035 0.85388 0.72108 0.0
H317 H 0.2488 0.87667 0.7338 0.0
H318 H 0.30265 0.83849 0.73131 0.0
H319 H 0.29306 0.81404 0.7614 0.0
H320 H 0.26731 0.8628 0.80686 0.0
H321 H 0.27746 0.88704 0.77699 0.0
O322 O 0.40645 0.95752 0.75166 0.0
O323 O 0.3825 0.98171 0.75733 0.0
O324 O 0.25486 0.9017 0.58815 0.0
O325 O 0.22587 0.91022 0.60838 0.0
C326 C 0.31397 0.89299 0.74047 0.0
C327 C 0.31959 0.90824 0.72466 0.0
C328 C 0.30866 0.91004 0.70276 0.0
C329 C 0.2923 0.89639 0.69651 0.0
C330 C 0.28682 0.88096 0.71229 0.0
C331 C 0.29741 0.87954 0.73449 0.0
C332 C 0.32593 0.89079 0.76305 0.0
C333 C 0.33969 0.87443 0.76502 0.0
C334 C 0.35247 0.87322 0.78526 0.0
C335 C 0.35169 0.88836 0.80388 0.0
C336 C 0.33737 0.90441 0.80215 0.0
C337 C 0.32456 0.90559 0.78188 0.0
C338 C 0.33675 0.92262 0.73134 0.0
C339 C 0.35762 0.91601 0.73126 0.0
C340 C 0.37373 0.92946 0.73784 0.0
C341 C 0.36924 0.94978 0.74455 0.0
C342 C 0.34827 0.95635 0.74452 0.0
C343 C 0.33218 0.94286 0.73801 0.0
C344 C 0.31395 0.9268 0.6869 0.0
C345 C 0.3334 0.9272 0.67515 0.0
C346 C 0.33919 0.94401 0.66225 0.0
C347 C 0.32559 0.96066 0.66091 0.0
C348 C 0.30583 0.95984 0.67206 0.0
C349 C 0.30009 0.94308 0.68499 0.0
C350 C 0.28054 0.89859 0.67368 0.0
C351 C 0.29048 0.89497 0.65136 0.0
C352 C 0.27939 0.897 0.6299 0.0
C353 C 0.25814 0.90266 0.63041 0.0
C354 C 0.24826 0.90628 0.65284 0.0
C355 C 0.25938 0.90429 0.67428 0.0
C356 C 0.26999 0.86632 0.70544 0.0
C357 C 0.27257 0.85289 0.68537 0.0
C358 C 0.25619 0.84018 0.6777 0.0
C359 C 0.23698 0.84051 0.69015 0.0
C360 C 0.23479 0.85346 0.71084 0.0
C361 C 0.25109 0.86635 0.7183 0.0
C362 C 0.29079 0.8645 0.75205 0.0
C363 C 0.29485 0.8438 0.74774 0.0
C364 C 0.28927 0.82988 0.76491 0.0
C365 C 0.27949 0.83646 0.78662 0.0
C366 C 0.27516 0.85723 0.79057 0.0
C367 C 0.28082 0.8711 0.77348 0.0
C368 C 0.38639 0.96402 0.75157 0.0
C369 C 0.24627 0.90481 0.60766 0.0
H370 H 0.2192 0.53036 0.80083 0.0
H371 H 0.247 0.33257 0.63061 0.0
H372 H 0.30677 0.45758 0.79069 0.0
H373 H 0.29845 0.48323 0.82216 0.0
H374 H 0.253 0.44251 0.85174 0.0
H375 H 0.2628 0.41656 0.82142 0.0
H376 H 0.27325 0.46873 0.75426 0.0
H377 H 0.25365 0.49855 0.76932 0.0
H378 H 0.211 0.45957 0.80623 0.0
H379 H 0.2308 0.42993 0.79113 0.0
H380 H 0.25994 0.43721 0.70038 0.0
H381 H 0.22817 0.44113 0.67597 0.0
H382 H 0.19208 0.41136 0.73003 0.0
H383 H 0.22381 0.40705 0.75373 0.0
H384 H 0.29872 0.40458 0.69441 0.0
H385 H 0.29394 0.38439 0.65674 0.0
H386 H 0.24188 0.35334 0.68868 0.0
H387 H 0.24704 0.37346 0.72632 0.0
H388 H 0.3318 0.39797 0.73032 0.0
H389 H 0.34991 0.3695 0.70935 0.0
H390 H 0.30235 0.32865 0.73387 0.0
H391 H 0.28442 0.35708 0.75453 0.0
H392 H 0.33187 0.42769 0.78884 0.0
H393 H 0.35787 0.41683 0.81782 0.0
H394 H 0.32421 0.3604 0.82409 0.0
H395 H 0.29745 0.37228 0.7969 0.0
O396 O 0.22617 0.51835 0.7942 0.0
O397 O 0.20433 0.49763 0.81228 0.0
O398 O 0.27615 0.35713 0.62974 0.0
O399 O 0.24916 0.34084 0.64523 0.0
C400 C 0.28334 0.42408 0.78019 0.0
C401 C 0.26681 0.42951 0.76474 0.0
C402 C 0.26317 0.41822 0.74307 0.0
C403 C 0.27673 0.40219 0.7361 0.0
C404 C 0.2934 0.39688 0.75139 0.0
C405 C 0.29653 0.40759 0.77372 0.0
C406 C 0.28529 0.43529 0.80375 0.0
C407 C 0.29601 0.4538 0.80491 0.0
C408 C 0.2908 0.46862 0.82259 0.0
C409 C 0.27436 0.46532 0.8389 0.0
C410 C 0.26567 0.44575 0.83954 0.0
C411 C 0.27132 0.43076 0.82222 0.0
C412 C 0.25334 0.44721 0.77147 0.0
C413 C 0.25946 0.46667 0.76527 0.0
C414 C 0.24831 0.48367 0.77401 0.0
C415 C 0.23079 0.48145 0.78905 0.0
C416 C 0.2244 0.46182 0.79468 0.0
C417 C 0.23558 0.44486 0.78594 0.0
C418 C 0.24407 0.42195 0.72883 0.0
C419 C 0.2451 0.4317 0.70693 0.0
C420 C 0.22697 0.434 0.69312 0.0
C421 C 0.20766 0.42646 0.70104 0.0
C422 C 0.20675 0.41708 0.72327 0.0
C423 C 0.2248 0.41478 0.73695 0.0
C424 C 0.27319 0.39049 0.713 0.0
C425 C 0.28627 0.39343 0.69318 0.0
C426 C 0.28351 0.38188 0.67171 0.0
C427 C 0.26751 0.36724 0.6697 0.0
C428 C 0.25433 0.36448 0.6896 0.0
C429 C 0.25718 0.37599 0.71109 0.0
C430 C 0.30689 0.3795 0.74394 0.0
C431 C 0.32575 0.38275 0.73179 0.0
C432 C 0.33596 0.36654 0.71973 0.0
C433 C 0.32749 0.34689 0.71993 0.0
C434 C 0.30941 0.34355 0.73366 0.0
C435 C 0.29913 0.35975 0.74544 0.0
C436 C 0.31273 0.40081 0.79078 0.0
C437 C 0.33001 0.41312 0.79678 0.0
C438 C 0.34503 0.40671 0.81312 0.0
C439 C 0.34328 0.38766 0.82344 0.0
C440 C 0.32599 0.37531 0.81703 0.0
C441 C 0.31078 0.38194 0.80114 0.0
C442 C 0.21954 0.49957 0.79919 0.0
C443 C 0.2646 0.35482 0.64699 0.0
H444 H 0.91715 0.33451 0.86838 0.0
H445 H 0.82011 0.21409 0.65731 0.0
H446 H 0.82918 0.26522 0.87422 0.0
H447 H 0.8299 0.28745 0.91071 0.0
H448 H 0.78098 0.32408 0.88099 0.0
H449 H 0.78021 0.30161 0.84483 0.0
H450 H 0.86491 0.26698 0.83233 0.0
H451 H 0.89134 0.29096 0.84801 0.0
H452 H 0.8472 0.34008 0.84154 0.0
H453 H 0.82104 0.31598 0.82559 0.0
H454 H 0.86206 0.24499 0.77975 0.0
H455 H 0.88799 0.25611 0.75045 0.0
H456 H 0.8544 0.31261 0.74521 0.0
H457 H 0.82907 0.30156 0.77471 0.0
H458 H 0.82224 0.21182 0.77745 0.0
H459 H 0.82604 0.1943 0.73788 0.0
H460 H 0.81179 0.25014 0.70348 0.0
H461 H 0.8078 0.26739 0.74315 0.0
H462 H 0.78503 0.20986 0.8168 0.0
H463 H 0.76116 0.18477 0.79794 0.0
H464 H 0.74348 0.22799 0.74534 0.0
H465 H 0.76754 0.25281 0.76415 0.0
H466 H 0.78356 0.23857 0.86589 0.0
H467 H 0.74947 0.2353 0.88601 0.0
H468 H 0.72036 0.26881 0.82983 0.0
H469 H 0.75433 0.27237 0.81036 0.0
O470 O 0.90652 0.32531 0.86199 0.0
O471 O 0.88319 0.35 0.85844 0.0
O472 O 0.82587 0.1923 0.69175 0.0
O473 O 0.81873 0.22064 0.67318 0.0
C474 C 0.80718 0.2709 0.83316 0.0
C475 C 0.82496 0.27502 0.81895 0.0
C476 C 0.82718 0.26563 0.79576 0.0
C477 C 0.81224 0.2513 0.78721 0.0
C478 C 0.79438 0.24731 0.80127 0.0
C479 C 0.79157 0.25753 0.82395 0.0
C480 C 0.8046 0.28178 0.85694 0.0
C481 C 0.81825 0.27775 0.87593 0.0
C482 C 0.81879 0.29058 0.89662 0.0
C483 C 0.80566 0.30768 0.89866 0.0
C484 C 0.79115 0.31095 0.88014 0.0
C485 C 0.79064 0.29811 0.85946 0.0
C486 C 0.84104 0.28973 0.82803 0.0
C487 C 0.86103 0.28294 0.83426 0.0
C488 C 0.87607 0.29666 0.84324 0.0
C489 C 0.87136 0.31743 0.84612 0.0
C490 C 0.85133 0.32419 0.83963 0.0
C491 C 0.83633 0.31045 0.83058 0.0
C492 C 0.8438 0.27253 0.77938 0.0
C493 C 0.86054 0.25984 0.77242 0.0
C494 C 0.87521 0.26618 0.7556 0.0
C495 C 0.8733 0.28528 0.7455 0.0
C496 C 0.85662 0.298 0.75293 0.0
C497 C 0.84206 0.29169 0.76972 0.0
C498 C 0.8149 0.24088 0.76313 0.0
C499 C 0.81998 0.22022 0.76133 0.0
C500 C 0.82214 0.21027 0.73872 0.0
C501 C 0.81926 0.22084 0.7175 0.0
C502 C 0.81416 0.24156 0.71943 0.0
C503 C 0.81195 0.25148 0.74206 0.0
C504 C 0.77819 0.23301 0.79161 0.0
C505 C 0.77575 0.21395 0.80142 0.0
C506 C 0.76205 0.1997 0.79069 0.0
C507 C 0.75058 0.20434 0.77 0.0
C508 C 0.75236 0.22384 0.761 0.0
C509 C 0.76603 0.23804 0.77173 0.0
C510 C 0.77133 0.2557 0.83672 0.0
C511 C 0.76978 0.24527 0.8581 0.0
C512 C 0.75033 0.24329 0.86942 0.0
C513 C 0.73225 0.25184 0.85952 0.0
C514 C 0.73402 0.26231 0.83811 0.0
C515 C 0.75337 0.26425 0.82687 0.0
C516 C 0.88731 0.33195 0.85587 0.0
C517 C 0.8215 0.21033 0.69343 0.0
H518 H 0.93577 0.6894 0.8325 0.0
H519 H 0.73469 0.73023 0.96689 0.0
H520 H 0.87485 0.78604 0.83082 0.0
H521 H 0.89663 0.79184 0.7953 0.0
H522 H 0.84678 0.76904 0.74898 0.0
H523 H 0.8251 0.76342 0.78457 0.0
H524 H 0.87485 0.74864 0.87088 0.0
H525 H 0.90379 0.72548 0.8608 0.0
H526 H 0.87104 0.70463 0.79615 0.0
H527 H 0.84212 0.72769 0.80659 0.0
H528 H 0.83708 0.74891 0.91303 0.0
H529 H 0.83783 0.71894 0.93759 0.0
H530 H 0.8231 0.68096 0.87456 0.0
H531 H 0.82145 0.71103 0.85026 0.0
H532 H 0.8069 0.78645 0.91412 0.0
H533 H 0.78452 0.78033 0.94887 0.0
H534 H 0.75907 0.72716 0.91115 0.0
H535 H 0.78131 0.7336 0.87642 0.0
H536 H 0.80916 0.82082 0.87323 0.0
H537 H 0.78084 0.84413 0.88492 0.0
H538 H 0.73577 0.7963 0.86984 0.0
H539 H 0.76409 0.77366 0.85667 0.0
H540 H 0.84162 0.81908 0.83495 0.0
H541 H 0.83502 0.84762 0.80917 0.0
H542 H 0.78005 0.81705 0.78032 0.0
H543 H 0.78685 0.78856 0.80607 0.0
O544 O 0.92415 0.69843 0.83616 0.0
O545 O 0.90669 0.68828 0.80312 0.0
O546 O 0.75702 0.76068 0.97186 0.0
O547 O 0.74361 0.73308 0.95334 0.0
C548 C 0.83527 0.77089 0.83158 0.0
C549 C 0.83894 0.75396 0.84564 0.0
C550 C 0.82596 0.75048 0.86568 0.0
C551 C 0.80949 0.76413 0.87179 0.0
C552 C 0.80599 0.78119 0.8578 0.0
C553 C 0.81883 0.78446 0.83762 0.0
C554 C 0.84847 0.7743 0.81017 0.0
C555 C 0.86869 0.78233 0.81298 0.0
C556 C 0.88101 0.78571 0.79274 0.0
C557 C 0.87336 0.78086 0.76944 0.0
C558 C 0.85311 0.77274 0.76674 0.0
C559 C 0.84071 0.7696 0.78697 0.0
C560 C 0.85646 0.7399 0.83941 0.0
C561 C 0.87396 0.73903 0.85457 0.0
C562 C 0.89047 0.7258 0.84875 0.0
C563 C 0.88975 0.71322 0.82764 0.0
C564 C 0.87212 0.71414 0.81251 0.0
C565 C 0.85562 0.72734 0.81838 0.0
C566 C 0.82909 0.73217 0.87989 0.0
C567 C 0.83413 0.73411 0.9045 0.0
C568 C 0.83456 0.71705 0.91846 0.0
C569 C 0.83048 0.69775 0.90788 0.0
C570 C 0.82645 0.6957 0.88303 0.0
C571 C 0.82556 0.71281 0.86918 0.0
C572 C 0.79574 0.76046 0.89278 0.0
C573 C 0.79641 0.77355 0.91337 0.0
C574 C 0.78365 0.76999 0.9332 0.0
C575 C 0.77002 0.75322 0.9328 0.0
C576 C 0.76938 0.74018 0.91208 0.0
C577 C 0.7821 0.7438 0.89223 0.0
C578 C 0.7887 0.79553 0.86415 0.0
C579 C 0.79312 0.81553 0.87209 0.0
C580 C 0.77691 0.82876 0.87903 0.0
C581 C 0.75594 0.82214 0.87846 0.0
C582 C 0.75162 0.80211 0.87016 0.0
C583 C 0.76782 0.78902 0.86288 0.0
C584 C 0.81469 0.80183 0.82231 0.0
C585 C 0.82817 0.81861 0.82305 0.0
C586 C 0.82432 0.83489 0.80845 0.0
C587 C 0.80704 0.83452 0.79275 0.0
C588 C 0.7936 0.81764 0.79208 0.0
C589 C 0.79737 0.80145 0.80682 0.0
C590 C 0.90732 0.69921 0.82149 0.0
C591 C 0.75653 0.7493 0.95388 0.0
C592 C 0.99165 0.35572 0.5451 0.0
C593 C 0.03993 0.37131 0.48106 0.0
O594 O 0.9911 0.3746 0.54051 0.0
Zn595 Zn 0.00557 0.39418 0.51496 0.0
O596 O 0.00319 0.34372 0.53248 0.0
Zn597 Zn 0.01486 0.36351 0.51221 0.0
O598 O 0.03228 0.38266 0.53748 0.0
O599 O 0.01976 0.41377 0.53603 0.0
O600 O 0.03591 0.35431 0.4898 0.0
O601 O 0.02975 0.38711 0.48862 0.0
O602 O 0.98214 0.40329 0.49618 0.0
O603 O 0.98908 0.37083 0.48965 0.0
C604 C 0.03264 0.40137 0.54474 0.0
C605 C 0.97803 0.38645 0.48531 0.0
C606 C 0.70782 0.03244 0.6253 0.0
C607 C 0.71417 0.97168 0.57255 0.0
O608 O 0.72642 0.02952 0.61719 0.0
Zn609 Zn 0.74303 0.00754 0.59505 0.0
O610 O 0.69345 0.0197 0.61995 0.0
Zn611 Zn 0.71052 0.00191 0.59919 0.0
O612 O 0.73064 0.98786 0.62479 0.0
O613 O 0.76314 0.99673 0.61672 0.0
O614 O 0.69752 0.97893 0.58207 0.0
O615 O 0.73165 0.98084 0.57613 0.0
O616 O 0.75325 0.02365 0.56963 0.0
O617 O 0.71879 0.02107 0.57012 0.0
C618 C 0.7503 0.98712 0.62947 0.0
C619 C 0.73556 0.02813 0.56086 0.0
C620 C 0.0049 0.80669 0.56228 0.0
C621 C 0.04821 0.82254 0.49353 0.0
O622 O 0.00916 0.82401 0.55443 0.0
Zn623 Zn 0.02677 0.81455 0.52831 0.0
O624 O 0.01279 0.79071 0.55182 0.0
Zn625 Zn 0.03344 0.78345 0.52153 0.0
O626 O 0.05731 0.77111 0.53676 0.0
O627 O 0.05302 0.8034 0.54744 0.0
O628 O 0.04742 0.80337 0.49635 0.0
O629 O 0.03865 0.83453 0.50825 0.0
O630 O 0.00483 0.79822 0.50539 0.0
O631 O 0.0156 0.76649 0.50118 0.0
C632 C 0.06302 0.78672 0.54926 0.0
C633 C 0.00225 0.78008 0.49663 0.0
C634 C 0.32189 0.19174 0.53596 0.0
C635 C 0.29797 0.1386 0.47923 0.0
O636 O 0.3371 0.18414 0.52342 0.0
Zn637 Zn 0.34097 0.16144 0.49454 0.0
O638 O 0.30336 0.18547 0.53197 0.0
Zn639 Zn 0.30981 0.16547 0.50716 0.0
O640 O 0.32821 0.14412 0.52584 0.0
O641 O 0.35939 0.14178 0.50857 0.0
O642 O 0.28721 0.14896 0.49458 0.0
O643 O 0.31773 0.14187 0.47748 0.0
O644 O 0.35112 0.17691 0.46805 0.0
O645 O 0.31796 0.1829 0.47702 0.0
C646 C 0.3466 0.13638 0.52464 0.0
C647 C 0.33403 0.18595 0.46382 0.0
C648 C 0.5131 0.8974 0.04981 0.0
C649 C 0.57268 0.89126 0.99495 0.0
O650 O 0.52606 0.91117 0.04462 0.0
Zn651 Zn 0.54296 0.89449 0.02273 0.0
O652 O 0.51515 0.8795 0.04012 0.0
Zn653 Zn 0.5358 0.86377 0.01486 0.0
O654 O 0.54739 0.84271 0.03319 0.0
O655 O 0.55664 0.87331 0.04684 0.0
O656 O 0.56224 0.87475 0.99585 0.0
O657 O 0.56717 0.90664 0.00797 0.0
O658 O 0.52124 0.88865 0.99313 0.0
O659 O 0.51717 0.85545 0.98963 0.0
C660 C 0.55708 0.854 0.04855 0.0
C661 C 0.51271 0.87298 0.98267 0.0
C662 C 0.19858 0.69105 0.02976 0.0
C663 C 0.20053 0.64052 0.96341 0.0
O664 O 0.21725 0.68585 0.02368 0.0
Zn665 Zn 0.23237 0.66652 0.99727 0.0
O666 O 0.18313 0.68382 0.01782 0.0
Zn667 Zn 0.19923 0.66652 0.99555 0.0
O668 O 0.21308 0.64467 0.01873 0.0
O669 O 0.24743 0.64852 0.01725 0.0
O670 O 0.18434 0.64851 0.97318 0.0
O671 O 0.21884 0.64603 0.97054 0.0
O672 O 0.24847 0.68449 0.97859 0.0
O673 O 0.21451 0.68757 0.97247 0.0
C674 C 0.23151 0.63946 0.02529 0.0
C675 C 0.23342 0.6928 0.96784 0.0
C676 C 0.53958 0.2671 0.98556 0.0
C677 C 0.48569 0.27751 0.04681 0.0
O678 O 0.53869 0.28551 0.99382 0.0
Zn679 Zn 0.52074 0.30315 0.01953 0.0
O680 O 0.52684 0.25412 0.99329 0.0
Zn681 Zn 0.51197 0.27227 0.01562 0.0
O682 O 0.49506 0.2924 0.99297 0.0
O683 O 0.50785 0.32311 0.00026 0.0
O684 O 0.48973 0.26125 0.03457 0.0
O685 O 0.49591 0.29375 0.04278 0.0
O686 O 0.54154 0.31229 0.04256 0.0
O687 O 0.53534 0.27942 0.04289 0.0
C688 C 0.49514 0.31139 0.98893 0.0
C689 C 0.54513 0.29518 0.05131 0.0
C690 C 0.83831 0.53206 0.12968 0.0
C691 C 0.82674 0.47483 0.07257 0.0
O692 O 0.85172 0.51888 0.12256 0.0
Zn693 Zn 0.83298 0.50335 0.10136 0.0
O694 O 0.81935 0.53078 0.1222 0.0
Zn695 Zn 0.80084 0.51114 0.09891 0.0
O696 O 0.78048 0.49998 0.12018 0.0
O697 O 0.81274 0.48965 0.12698 0.0
O698 O 0.8101 0.48515 0.07714 0.0
O699 O 0.84386 0.48014 0.08269 0.0
O700 O 0.82527 0.52446 0.07396 0.0
O701 O 0.79108 0.52954 0.07575 0.0
C702 C 0.79316 0.48957 0.13215 0.0
C703 C 0.80873 0.53318 0.06629 0.0
C704 C 0.18539 0.40584 0.3447 0.0
C705 C 0.19615 0.38858 0.33562 0.0
C706 C 0.16897 0.40397 0.36111 0.0
C707 C 0.13036 0.36679 0.38102 0.0
H708 H 0.12194 0.4057 0.43455 0.0
C709 C 0.06836 0.35592 0.4551 0.0
C710 C 0.05698 0.37311 0.46324 0.0
C711 C 0.08527 0.35779 0.43937 0.0
C712 C 0.12397 0.39484 0.41952 0.0
H713 H 0.19879 0.35596 0.33736 0.0
H714 H 0.17023 0.3527 0.36616 0.0
H715 H 0.15232 0.40895 0.40831 0.0
H716 H 0.0542 0.40572 0.46088 0.0
H717 H 0.0836 0.40893 0.43327 0.0
H718 H 0.10202 0.35269 0.39223 0.0
C719 C 0.17419 0.36762 0.36023 0.0
C720 C 0.14137 0.39669 0.40451 0.0
C721 C 0.19057 0.36949 0.3438 0.0
C722 C 0.06266 0.39217 0.45499 0.0
C723 C 0.0796 0.39404 0.43931 0.0
C724 C 0.11298 0.36493 0.39604 0.0
C725 C 0.163 0.38481 0.3688 0.0
C726 C 0.14476 0.38268 0.38508 0.0
C727 C 0.09119 0.3769 0.43149 0.0
C728 C 0.10958 0.37895 0.41543 0.0
H729 H 0.18914 0.42072 0.33847 0.0
H730 H 0.16052 0.41748 0.36714 0.0
H731 H 0.13231 0.35597 0.36594 0.0
H732 H 0.06444 0.34102 0.46114 0.0
H733 H 0.09402 0.34432 0.43384 0.0
C734 C 0.7184 0.17296 0.4346 0.0
C735 C 0.72349 0.17052 0.41001 0.0
C736 C 0.71889 0.15643 0.44941 0.0
C737 C 0.74206 0.10562 0.45379 0.0
H738 H 0.7002 0.10029 0.50375 0.0
C739 C 0.75199 0.05212 0.5326 0.0
C740 C 0.73409 0.0422 0.54091 0.0
C741 C 0.75027 0.06653 0.515 0.0
C742 C 0.71189 0.1014 0.48972 0.0
H743 H 0.73257 0.14874 0.38153 0.0
H744 H 0.73332 0.1198 0.4074 0.0
H745 H 0.69731 0.12765 0.47596 0.0
H746 H 0.70044 0.03907 0.53661 0.0
H747 H 0.69752 0.06394 0.50569 0.0
H748 H 0.75651 0.07921 0.46742 0.0
C749 C 0.72929 0.13458 0.4153 0.0
C750 C 0.71037 0.11724 0.47397 0.0
C751 C 0.72884 0.15114 0.40048 0.0
C752 C 0.71453 0.04655 0.53074 0.0
C753 C 0.71283 0.06089 0.51311 0.0
C754 C 0.74357 0.08974 0.46953 0.0
C755 C 0.72443 0.13706 0.43997 0.0
C756 C 0.72553 0.11965 0.45596 0.0
C757 C 0.73062 0.07127 0.50529 0.0
C758 C 0.72859 0.08754 0.4878 0.0
H759 H 0.71456 0.18777 0.44256 0.0
H760 H 0.7154 0.15894 0.46842 0.0
H761 H 0.75411 0.10715 0.44025 0.0
H762 H 0.76728 0.04915 0.54011 0.0
H763 H 0.76426 0.0744 0.50957 0.0
C764 C 0.83314 0.77099 0.39979 0.0
C765 C 0.82674 0.75329 0.38688 0.0
C766 C 0.85178 0.77131 0.41285 0.0
C767 C 0.90294 0.74629 0.41595 0.0
H768 H 0.90629 0.7767 0.47724 0.0
C769 C 0.97905 0.75516 0.47376 0.0
C770 C 0.98303 0.77503 0.48278 0.0
C771 C 0.96 0.75039 0.46236 0.0
C772 C 0.9056 0.7682 0.4601 0.0
H773 H 0.83472 0.72198 0.37775 0.0
H774 H 0.86733 0.72248 0.40093 0.0
H775 H 0.87242 0.77176 0.45769 0.0
H776 H 0.9704 0.80556 0.48622 0.0
H777 H 0.93744 0.79723 0.46642 0.0
H778 H 0.9363 0.74299 0.41837 0.0
C779 C 0.85794 0.73613 0.40073 0.0
C780 C 0.88622 0.76539 0.44891 0.0
C781 C 0.8392 0.73579 0.38768 0.0
C782 C 0.96784 0.79008 0.47963 0.0
C783 C 0.94886 0.78529 0.46843 0.0
C784 C 0.92239 0.74905 0.42724 0.0
C785 C 0.86447 0.75395 0.41335 0.0
C786 C 0.88473 0.75484 0.42643 0.0
C787 C 0.94459 0.76537 0.46001 0.0
C788 C 0.92393 0.76048 0.44913 0.0
H789 H 0.82375 0.78464 0.39971 0.0
H790 H 0.85649 0.78536 0.42212 0.0
H791 H 0.90231 0.7382 0.39856 0.0
H792 H 0.99045 0.74324 0.4759 0.0
H793 H 0.95708 0.7349 0.45601 0.0
C794 C 0.24082 0.98878 0.36478 0.0
C795 C 0.23593 0.99081 0.34032 0.0
C796 C 0.24293 0.0059 0.3803 0.0
C797 C 0.24047 0.04484 0.41173 0.0
H798 H 0.27393 0.08709 0.38426 0.0
C799 C 0.26681 0.11763 0.46619 0.0
C800 C 0.288 0.12282 0.46336 0.0
C801 C 0.25765 0.10253 0.45117 0.0
C802 C 0.26456 0.07543 0.39219 0.0
H803 H 0.22834 0.01238 0.31326 0.0
H804 H 0.23151 0.04217 0.34045 0.0
H805 H 0.26188 0.05868 0.35855 0.0
H806 H 0.31617 0.11623 0.44252 0.0
H807 H 0.30026 0.08998 0.41652 0.0
H808 H 0.24397 0.06134 0.44563 0.0
C809 C 0.23405 0.02736 0.34755 0.0
C810 C 0.25742 0.05927 0.3774 0.0
C811 C 0.23199 0.01025 0.33204 0.0
C812 C 0.2998 0.11266 0.44518 0.0
C813 C 0.29064 0.09769 0.43015 0.0
C814 C 0.24759 0.06109 0.42655 0.0
C815 C 0.24016 0.02541 0.37167 0.0
C816 C 0.24561 0.0436 0.38706 0.0
C817 C 0.26948 0.09247 0.43295 0.0
C818 C 0.26009 0.07632 0.417 0.0
H819 H 0.24367 0.97398 0.37178 0.0
H820 H 0.24776 0.00387 0.39874 0.0
H821 H 0.23124 0.03309 0.41964 0.0
H822 H 0.25731 0.12517 0.48005 0.0
H823 H 0.24128 0.09887 0.45365 0.0
C824 C 0.22168 0.8091 0.6695 0.0
C825 C 0.21887 0.82851 0.68056 0.0
C826 C 0.20483 0.79877 0.65853 0.0
C827 C 0.14691 0.79833 0.65472 0.0
H828 H 0.1555 0.78061 0.58785 0.0
C829 C 0.08275 0.80155 0.58438 0.0
C830 C 0.08056 0.78594 0.56653 0.0
C831 C 0.09929 0.80146 0.60067 0.0
C832 C 0.15292 0.78502 0.60666 0.0
H833 H 0.19597 0.85208 0.68899 0.0
H834 H 0.16671 0.83401 0.67033 0.0
H835 H 0.18563 0.79 0.61308 0.0
H836 H 0.09391 0.7578 0.55194 0.0
H837 H 0.12338 0.75788 0.58042 0.0
H838 H 0.11415 0.79433 0.64798 0.0
C839 C 0.18187 0.82664 0.67037 0.0
C840 C 0.17016 0.7904 0.62111 0.0
C841 C 0.19869 0.83701 0.68112 0.0
C842 C 0.09523 0.77004 0.56551 0.0
C843 C 0.11206 0.77009 0.58174 0.0
C844 C 0.12972 0.79296 0.64031 0.0
C845 C 0.1848 0.80756 0.65863 0.0
C846 C 0.16722 0.7979 0.64499 0.0
C847 C 0.1142 0.78584 0.59947 0.0
C848 C 0.1325 0.78707 0.61587 0.0
H849 H 0.23696 0.80198 0.66906 0.0
H850 H 0.20749 0.78402 0.64974 0.0
H851 H 0.14423 0.80367 0.6732 0.0
H852 H 0.07168 0.81398 0.58578 0.0
H853 H 0.10073 0.814 0.61384 0.0
C854 C 0.33716 0.31054 0.71106 0.0
C855 C 0.33552 0.33046 0.70341 0.0
C856 C 0.34074 0.29447 0.69434 0.0
C857 C 0.32874 0.26446 0.65412 0.0
H858 H 0.36096 0.26794 0.59519 0.0
C859 C 0.30939 0.2155 0.56926 0.0
C860 C 0.326 0.20722 0.55546 0.0
C861 C 0.31326 0.2296 0.5882 0.0
C862 C 0.35208 0.26661 0.61168 0.0
H863 H 0.33735 0.34932 0.67249 0.0
H864 H 0.34341 0.32137 0.64333 0.0
H865 H 0.36519 0.29393 0.62752 0.0
H866 H 0.35974 0.20737 0.55064 0.0
H867 H 0.36648 0.23197 0.58387 0.0
H868 H 0.31557 0.23723 0.63833 0.0
C869 C 0.3423 0.3181 0.66224 0.0
C870 C 0.35437 0.28158 0.63011 0.0
C871 C 0.33884 0.33416 0.67897 0.0
C872 C 0.34658 0.21351 0.56089 0.0
C873 C 0.35045 0.22764 0.57987 0.0
C874 C 0.32647 0.24952 0.63575 0.0
C875 C 0.34259 0.29801 0.66962 0.0
C876 C 0.34242 0.28088 0.65135 0.0
C877 C 0.33383 0.23573 0.59383 0.0
C878 C 0.33775 0.25066 0.61411 0.0
H879 H 0.33487 0.30731 0.72985 0.0
H880 H 0.34129 0.2792 0.70066 0.0
H881 H 0.31909 0.26354 0.67009 0.0
H882 H 0.29335 0.21106 0.56551 0.0
H883 H 0.30007 0.23585 0.59832 0.0
C884 C 0.89476 0.27792 0.70815 0.0
C885 C 0.88799 0.29174 0.72654 0.0
C886 C 0.90704 0.28445 0.68913 0.0
C887 C 0.91735 0.32962 0.65559 0.0
H888 H 0.96657 0.30073 0.63183 0.0
C889 C 0.97053 0.36178 0.58269 0.0
C890 C 0.97947 0.34814 0.56548 0.0
C891 C 0.95969 0.35468 0.60247 0.0
C892 C 0.95268 0.30882 0.638 0.0
H893 H 0.88978 0.32306 0.74 0.0
H894 H 0.91085 0.33448 0.70656 0.0
H895 H 0.94759 0.2885 0.66651 0.0
H896 H 0.98373 0.31632 0.55528 0.0
H897 H 0.96426 0.30391 0.58939 0.0
H898 H 0.92199 0.34967 0.6269 0.0
C899 C 0.90644 0.31865 0.70676 0.0
C900 C 0.9419 0.30185 0.65793 0.0
C901 C 0.89435 0.3121 0.72587 0.0
C902 C 0.97711 0.32723 0.56831 0.0
C903 C 0.96607 0.32011 0.58797 0.0
C904 C 0.92798 0.33647 0.63553 0.0
C905 C 0.91264 0.30496 0.68804 0.0
C906 C 0.9242 0.31225 0.66697 0.0
C907 C 0.95732 0.33375 0.60538 0.0
C908 C 0.94584 0.32622 0.62653 0.0
H909 H 0.88993 0.26219 0.70793 0.0
H910 H 0.91151 0.27361 0.67482 0.0
H911 H 0.90353 0.33774 0.66196 0.0
H912 H 0.97222 0.37799 0.58114 0.0
H913 H 0.95348 0.36563 0.61571 0.0
C914 C 0.80412 0.87174 0.78631 0.0
C915 C 0.80307 0.85163 0.77701 0.0
C916 C 0.79997 0.88784 0.7715 0.0
C917 C 0.77653 0.91674 0.73942 0.0
H918 H 0.79919 0.9163 0.67452 0.0
C919 C 0.74359 0.96541 0.66444 0.0
C920 C 0.7579 0.97435 0.64885 0.0
C921 C 0.75053 0.95217 0.68166 0.0
C922 C 0.79293 0.91676 0.69268 0.0
H923 H 0.7973 0.83257 0.74488 0.0
H924 H 0.79001 0.86068 0.71902 0.0
H925 H 0.809 0.88959 0.70137 0.0
H926 H 0.79079 0.97683 0.63957 0.0
H927 H 0.80287 0.95358 0.66964 0.0
H928 H 0.76024 0.94379 0.7306 0.0
C929 C 0.79408 0.86401 0.73773 0.0
C930 C 0.79838 0.90136 0.70795 0.0
C931 C 0.79804 0.84792 0.75257 0.0
C932 C 0.77936 0.97016 0.65128 0.0
C933 C 0.78628 0.95678 0.66839 0.0
C934 C 0.77094 0.93206 0.72407 0.0
C935 C 0.79491 0.88412 0.74706 0.0
C936 C 0.79006 0.90109 0.73138 0.0
C937 C 0.7719 0.94747 0.68357 0.0
C938 C 0.77894 0.93211 0.70047 0.0
H939 H 0.80782 0.87501 0.80513 0.0
H940 H 0.80083 0.9032 0.77913 0.0
H941 H 0.76978 0.91684 0.75734 0.0
H942 H 0.72696 0.96835 0.66309 0.0
H943 H 0.73906 0.94508 0.69295 0.0
C944 C 0.88858 0.76885 0.72977 0.0
C945 C 0.8865 0.78417 0.74797 0.0
C946 C 0.90105 0.77188 0.70957 0.0
C947 C 0.94365 0.80463 0.68752 0.0
H948 H 0.92678 0.78139 0.62511 0.0
C949 C 0.98582 0.82185 0.59824 0.0
C950 C 0.99089 0.80482 0.58328 0.0
C951 C 0.97277 0.81991 0.61824 0.0
C952 C 0.93172 0.78788 0.64246 0.0
H953 H 0.89546 0.81477 0.7592 0.0
H954 H 0.91684 0.82034 0.72363 0.0
H955 H 0.90438 0.77719 0.66011 0.0
H956 H 0.98606 0.77245 0.57741 0.0
H957 H 0.96308 0.76916 0.61215 0.0
H958 H 0.97086 0.81559 0.66959 0.0
C959 C 0.90931 0.80577 0.72519 0.0
C960 C 0.91895 0.78541 0.66256 0.0
C961 C 0.89702 0.80263 0.74554 0.0
C962 C 0.98249 0.78586 0.58861 0.0
C963 C 0.96924 0.78398 0.60841 0.0
C964 C 0.9563 0.80729 0.66735 0.0
C965 C 0.91153 0.79041 0.70696 0.0
C966 C 0.92483 0.79359 0.68541 0.0
C967 C 0.96432 0.80096 0.62347 0.0
C968 C 0.95054 0.7988 0.64468 0.0
H969 H 0.88083 0.75438 0.73137 0.0
H970 H 0.90271 0.75956 0.69618 0.0
H971 H 0.94888 0.81087 0.70486 0.0
H972 H 0.99207 0.83666 0.59462 0.0
H973 H 0.9691 0.83326 0.6295 0.0
C974 C 0.32741 0.99838 0.65887 0.0
C975 C 0.33209 0.97911 0.64853 0.0
C976 C 0.33252 0.01582 0.64688 0.0
C977 C 0.36499 0.03635 0.59877 0.0
H978 H 0.31965 0.07514 0.59546 0.0
C979 C 0.3629 0.10305 0.53351 0.0
C980 C 0.35194 0.12053 0.5414 0.0
C981 C 0.36388 0.08631 0.54812 0.0
C982 C 0.33267 0.06472 0.59656 0.0
H983 H 0.34645 0.96304 0.61785 0.0
H984 H 0.35542 0.99366 0.59682 0.0
H985 H 0.31485 0.04485 0.61789 0.0
H986 H 0.33524 0.13516 0.57135 0.0
H987 H 0.33777 0.10649 0.59722 0.0
H988 H 0.38278 0.05637 0.57722 0.0
C989 C 0.34788 0.99519 0.6143 0.0
C990 C 0.32986 0.04728 0.60937 0.0
C991 C 0.34271 0.97768 0.62631 0.0
C992 C 0.34353 0.1217 0.56476 0.0
C993 C 0.34484 0.10521 0.57947 0.0
C994 C 0.36788 0.05397 0.58599 0.0
C995 C 0.34248 0.01441 0.62429 0.0
C996 C 0.34596 0.03293 0.61069 0.0
C997 C 0.35413 0.08698 0.57092 0.0
C998 C 0.35175 0.0684 0.58484 0.0
H999 H 0.31972 2e-05 0.67625 0.0
H1000 H 0.32852 0.03045 0.65522 0.0
H1001 H 0.3777 0.02553 0.59957 0.0
H1002 H 0.36942 0.10181 0.51547 0.0
H1003 H 0.37114 0.0725 0.54097 0.0
C1004 C 0.17524 0.41063 0.68351 0.0
C1005 C 0.18857 0.42751 0.68592 0.0
C1006 C 0.15697 0.41147 0.6699 0.0
C1007 C 0.13179 0.43798 0.62095 0.0
H1008 H 0.08259 0.41025 0.64394 0.0
C1009 C 0.05438 0.4285 0.56583 0.0
C1010 C 0.04811 0.40812 0.56315 0.0
C1011 C 0.07002 0.43429 0.58246 0.0
C1012 C 0.09617 0.41815 0.63736 0.0
H1013 H 0.19332 0.45847 0.67567 0.0
H1014 H 0.16118 0.45993 0.65166 0.0
H1015 H 0.11317 0.41428 0.66998 0.0
H1016 H 0.05275 0.37798 0.57625 0.0
H1017 H 0.07962 0.3881 0.60535 0.0
H1018 H 0.11475 0.44142 0.58806 0.0
C1019 C 0.165 0.44604 0.66033 0.0
C1020 C 0.11371 0.42038 0.65219 0.0
C1021 C 0.18338 0.44519 0.67403 0.0
C1022 C 0.0573 0.39378 0.57781 0.0
C1023 C 0.07259 0.3996 0.59461 0.0
C1024 C 0.11412 0.43585 0.60611 0.0
C1025 C 0.15151 0.42921 0.65832 0.0
C1026 C 0.13197 0.42968 0.64386 0.0
C1027 C 0.07925 0.41984 0.59697 0.0
C1028 C 0.09643 0.42532 0.61393 0.0
H1029 H 0.17904 0.39663 0.69196 0.0
H1030 H 0.14724 0.39805 0.66817 0.0
H1031 H 0.14564 0.44518 0.61399 0.0
H1032 H 0.04759 0.43985 0.55469 0.0
H1033 H 0.07491 0.45 0.58399 0.0
C1034 C 0.73963 0.18645 0.73141 0.0
C1035 C 0.73821 0.18843 0.75666 0.0
C1036 C 0.72944 0.17066 0.7187 0.0
C1037 C 0.70987 0.11906 0.72637 0.0
H1038 H 0.69138 0.12529 0.66055 0.0
C1039 C 0.68989 0.05095 0.66007 0.0
C1040 C 0.70349 0.051 0.64016 0.0
C1041 C 0.68794 0.0683 0.67543 0.0
C1042 C 0.6962 0.12337 0.67902 0.0
H1043 H 0.7244 0.17575 0.78834 0.0
H1044 H 0.70642 0.14807 0.76603 0.0
H1045 H 0.69898 0.15531 0.68628 0.0
H1046 H 0.72477 0.0693 0.61986 0.0
H1047 H 0.72087 0.09962 0.64608 0.0
H1048 H 0.70759 0.08702 0.71869 0.0
C1049 C 0.71564 0.15866 0.75612 0.0
C1050 C 0.70072 0.14052 0.69371 0.0
C1051 C 0.72593 0.17449 0.76889 0.0
C1052 C 0.71426 0.06885 0.63517 0.0
C1053 C 0.71192 0.08623 0.65007 0.0
C1054 C 0.7051 0.10189 0.71172 0.0
C1055 C 0.71749 0.15642 0.73087 0.0
C1056 C 0.70853 0.13855 0.71719 0.0
C1057 C 0.69908 0.08603 0.67058 0.0
C1058 C 0.69908 0.10391 0.68762 0.0
H1059 H 0.74931 0.19665 0.72147 0.0
H1060 H 0.7317 0.16917 0.69936 0.0
H1061 H 0.71595 0.11694 0.7443 0.0
H1062 H 0.68151 0.03729 0.66431 0.0
H1063 H 0.67801 0.06781 0.69123 0.0
C1064 C 0.83447 0.31854 0.36982 0.0
C1065 C 0.81424 0.32645 0.37349 0.0
C1066 C 0.85198 0.32913 0.37859 0.0
C1067 C 0.86728 0.36721 0.42567 0.0
H1068 H 0.92062 0.36398 0.39226 0.0
C1069 C 0.94387 0.39865 0.4688 0.0
C1070 C 0.96016 0.38432 0.46845 0.0
C1071 C 0.92607 0.39534 0.45442 0.0
C1072 C 0.9058 0.36507 0.40176 0.0
H1073 H 0.79657 0.35206 0.38848 0.0
H1074 H 0.82725 0.37069 0.40373 0.0
H1075 H 0.88902 0.35143 0.3719 0.0
H1076 H 0.97103 0.35582 0.45196 0.0
H1077 H 0.94019 0.35018 0.42687 0.0
H1078 H 0.88421 0.38046 0.45572 0.0
C1079 C 0.82951 0.35612 0.39437 0.0
C1080 C 0.88772 0.35782 0.39015 0.0
C1081 C 0.81195 0.34547 0.38563 0.0
C1082 C 0.95871 0.36711 0.45273 0.0
C1083 C 0.9411 0.36394 0.4382 0.0
C1084 C 0.88536 0.37458 0.43723 0.0
C1085 C 0.84973 0.34795 0.39121 0.0
C1086 C 0.86834 0.35825 0.40222 0.0
C1087 C 0.92442 0.37782 0.43919 0.0
C1088 C 0.9049 0.37305 0.42563 0.0
H1089 H 0.83674 0.30378 0.36091 0.0
H1090 H 0.86724 0.32218 0.37624 0.0
H1091 H 0.85267 0.36761 0.4356 0.0
H1092 H 0.94455 0.41205 0.48075 0.0
H1093 H 0.91347 0.40632 0.45544 0.0
C1094 C 0.74289 0.82516 0.43309 0.0
C1095 C 0.73087 0.82596 0.41198 0.0
C1096 C 0.74002 0.83963 0.45197 0.0
C1097 C 0.70266 0.87541 0.47959 0.0
H1098 H 0.75158 0.90601 0.50076 0.0
C1099 C 0.6969 0.94811 0.54195 0.0
C1100 C 0.71386 0.95288 0.55722 0.0
C1101 C 0.698 0.9314 0.52553 0.0
C1102 C 0.73777 0.89738 0.49556 0.0
H1103 H 0.70601 0.84191 0.39424 0.0
H1104 H 0.70069 0.86701 0.42754 0.0
H1105 H 0.75529 0.87869 0.47028 0.0
H1106 H 0.74462 0.94332 0.56859 0.0
H1107 H 0.74611 0.91367 0.54116 0.0
H1108 H 0.68514 0.8937 0.50522 0.0
C1109 C 0.71243 0.85534 0.42935 0.0
C1110 C 0.73994 0.88179 0.47793 0.0
C1111 C 0.71557 0.84112 0.4103 0.0
C1112 C 0.73144 0.94013 0.55672 0.0
C1113 C 0.73235 0.92322 0.54079 0.0
C1114 C 0.70052 0.89079 0.49761 0.0
C1115 C 0.72479 0.85486 0.45023 0.0
C1116 C 0.72241 0.87075 0.46968 0.0
C1117 C 0.71593 0.91892 0.52445 0.0
C1118 C 0.71805 0.90207 0.50577 0.0
H1119 H 0.75479 0.81362 0.43475 0.0
H1120 H 0.74969 0.83895 0.46795 0.0
H1121 H 0.68892 0.86701 0.47355 0.0
H1122 H 0.68321 0.9578 0.54194 0.0
H1123 H 0.68511 0.92876 0.51312 0.0
C1124 C 0.16488 0.90033 0.3501 0.0
C1125 C 0.16683 0.8906 0.32719 0.0
C1126 C 0.1502 0.89356 0.3666 0.0
C1127 C 0.12417 0.84816 0.38441 0.0
H1128 H 0.08497 0.88423 0.41807 0.0
C1129 C 0.06522 0.81805 0.45301 0.0
C1130 C 0.06033 0.83056 0.47336 0.0
C1131 C 0.07683 0.82558 0.43401 0.0
C1132 C 0.09601 0.87397 0.40915 0.0
H1133 H 0.15504 0.86634 0.3034 0.0
H1134 H 0.12962 0.85413 0.3326 0.0
H1135 H 0.10781 0.89731 0.38712 0.0
H1136 H 0.06392 0.8607 0.48991 0.0
H1137 H 0.08496 0.87359 0.4574 0.0
H1138 H 0.11333 0.82502 0.407 0.0
C1139 C 0.13929 0.86713 0.33761 0.0
C1140 C 0.10896 0.88148 0.39129 0.0
C1141 C 0.15369 0.87415 0.32092 0.0
C1142 C 0.06731 0.85074 0.47435 0.0
C1143 C 0.07926 0.85817 0.45558 0.0
C1144 C 0.11152 0.84072 0.40257 0.0
C1145 C 0.13752 0.87671 0.36063 0.0
C1146 C 0.12317 0.86864 0.37881 0.0
C1147 C 0.08419 0.8457 0.43511 0.0
C1148 C 0.09728 0.85353 0.41527 0.0
H1149 H 0.17486 0.91306 0.35529 0.0
H1150 H 0.14921 0.90111 0.3843 0.0
H1151 H 0.13521 0.83803 0.37522 0.0
H1152 H 0.05987 0.80248 0.45164 0.0
H1153 H 0.07988 0.8156 0.4184 0.0
C1154 C 0.28031 0.30351 0.31491 0.0
C1155 C 0.29424 0.31887 0.30871 0.0
C1156 C 0.28695 0.28795 0.32935 0.0
C1157 C 0.32823 0.27552 0.37323 0.0
H1158 H 0.30464 0.22159 0.36449 0.0
C1159 C 0.34979 0.20866 0.43346 0.0
C1160 C 0.33213 0.19958 0.44355 0.0
C1161 C 0.34744 0.22217 0.41488 0.0
C1162 C 0.3114 0.23658 0.36706 0.0
H1163 H 0.32618 0.3297 0.31203 0.0
H1164 H 0.33797 0.3023 0.33681 0.0
H1165 H 0.29642 0.24718 0.33559 0.0
H1166 H 0.29827 0.19699 0.44166 0.0
H1167 H 0.29427 0.22019 0.40914 0.0
H1168 H 0.34318 0.26474 0.40479 0.0
C1169 C 0.32176 0.30251 0.33108 0.0
C1170 C 0.30659 0.25129 0.35063 0.0
C1171 C 0.31505 0.31818 0.31685 0.0
C1172 C 0.31218 0.20384 0.43436 0.0
C1173 C 0.30988 0.217 0.4156 0.0
C1174 C 0.33323 0.26071 0.38951 0.0
C1175 C 0.30776 0.28727 0.33768 0.0
C1176 C 0.31453 0.27109 0.35382 0.0
C1177 C 0.32743 0.22643 0.40581 0.0
C1178 C 0.32446 0.24125 0.38688 0.0
H1179 H 0.26413 0.3038 0.30908 0.0
H1180 H 0.2756 0.27674 0.33444 0.0
H1181 H 0.33445 0.29065 0.37645 0.0
H1182 H 0.36534 0.20565 0.44023 0.0
H1183 H 0.36121 0.22926 0.40756 0.0
C1184 C 0.71876 0.83462 0.87659 0.0
C1185 C 0.73868 0.83571 0.88736 0.0
C1186 C 0.70205 0.84594 0.8863 0.0
C1187 C 0.68515 0.87125 0.94396 0.0
H1188 H 0.63802 0.88711 0.90499 0.0
C1189 C 0.60879 0.90388 0.9861 0.0
C1190 C 0.59149 0.89171 0.97953 0.0
C1191 C 0.62759 0.90196 0.97319 0.0
C1192 C 0.65117 0.88293 0.91605 0.0
H1193 H 0.75672 0.85036 0.91636 0.0
H1194 H 0.72792 0.87082 0.93249 0.0
H1195 H 0.67017 0.87505 0.88532 0.0
H1196 H 0.57976 0.869 0.95354 0.0
H1197 H 0.61233 0.86606 0.93069 0.0
H1198 H 0.66596 0.87907 0.97466 0.0
C1199 C 0.72502 0.86073 0.91694 0.0
C1200 C 0.66953 0.87585 0.90483 0.0
C1201 C 0.74167 0.84919 0.90742 0.0
C1202 C 0.5929 0.8785 0.95906 0.0
C1203 C 0.61148 0.87691 0.94589 0.0
C1204 C 0.66692 0.87865 0.95515 0.0
C1205 C 0.70486 0.85892 0.90686 0.0
C1206 C 0.68653 0.86928 0.91863 0.0
C1207 C 0.62916 0.88821 0.95319 0.0
C1208 C 0.64955 0.88397 0.9413 0.0
H1209 H 0.71592 0.82475 0.86083 0.0
H1210 H 0.68677 0.84388 0.87813 0.0
H1211 H 0.6977 0.86611 0.95527 0.0
H1212 H 0.60812 0.91412 0.00188 0.0
H1213 H 0.64105 0.91084 0.97913 0.0
C1214 C 0.2663 0.80249 0.79882 0.0
C1215 C 0.27417 0.82185 0.80533 0.0
C1216 C 0.26146 0.78877 0.81649 0.0
C1217 C 0.27252 0.77808 0.88022 0.0
H1218 H 0.22391 0.74316 0.87313 0.0
C1219 C 0.25837 0.71199 0.94255 0.0
C1220 C 0.23771 0.70807 0.94972 0.0
C1221 C 0.26248 0.72604 0.92507 0.0
C1222 C 0.23743 0.75294 0.87552 0.0
H1223 H 0.28331 0.84185 0.8356 0.0
H1224 H 0.27427 0.81825 0.86634 0.0
H1225 H 0.23134 0.76758 0.8426 0.0
H1226 H 0.20514 0.71602 0.94431 0.0
H1227 H 0.21234 0.74087 0.91416 0.0
H1228 H 0.27831 0.76388 0.91343 0.0
C1229 C 0.2721 0.81352 0.84757 0.0
C1230 C 0.24185 0.76676 0.85784 0.0
C1231 C 0.27702 0.82717 0.82992 0.0
C1232 C 0.22124 0.71863 0.93913 0.0
C1233 C 0.22536 0.73278 0.92172 0.0
C1234 C 0.26805 0.76435 0.89793 0.0
C1235 C 0.26434 0.79411 0.84109 0.0
C1236 C 0.25949 0.77947 0.85994 0.0
C1237 C 0.24603 0.73663 0.91444 0.0
C1238 C 0.2505 0.75154 0.89577 0.0
H1239 H 0.2637 0.79796 0.78006 0.0
H1240 H 0.25574 0.77388 0.81082 0.0
H1241 H 0.28638 0.78745 0.88231 0.0
H1242 H 0.27143 0.70402 0.95022 0.0
H1243 H 0.27856 0.72835 0.91963 0.0
C1244 C 0.38053 0.38602 0.83848 0.0
C1245 C 0.35931 0.38067 0.8408 0.0
C1246 C 0.39549 0.37934 0.85472 0.0
C1247 C 0.4005 0.35601 0.91474 0.0
H1248 H 0.45686 0.34412 0.89217 0.0
C1249 C 0.46123 0.30942 0.96648 0.0
C1250 C 0.48016 0.31958 0.97158 0.0
C1251 C 0.44672 0.31743 0.95065 0.0
C1252 C 0.44119 0.34749 0.89867 0.0
H1253 H 0.33735 0.3642 0.86257 0.0
H1254 H 0.36344 0.35148 0.88959 0.0
H1255 H 0.43097 0.35671 0.8642 0.0
H1256 H 0.49897 0.34582 0.96376 0.0
H1257 H 0.47379 0.35946 0.93533 0.0
H1258 H 0.41071 0.34578 0.94894 0.0
C1259 C 0.36855 0.36138 0.87571 0.0
C1260 C 0.42634 0.35485 0.88274 0.0
C1261 C 0.35354 0.36839 0.8598 0.0
C1262 C 0.48447 0.33772 0.96021 0.0
C1263 C 0.47015 0.34547 0.94393 0.0
C1264 C 0.41522 0.34822 0.93047 0.0
C1265 C 0.38976 0.36679 0.87348 0.0
C1266 C 0.40575 0.35922 0.89053 0.0
C1267 C 0.4511 0.33548 0.93922 0.0
C1268 C 0.43566 0.34392 0.92257 0.0
H1269 H 0.38572 0.3952 0.82395 0.0
H1270 H 0.41156 0.38415 0.85255 0.0
H1271 H 0.38504 0.35963 0.92169 0.0
H1272 H 0.45746 0.29546 0.97506 0.0
H1273 H 0.43213 0.30944 0.94718 0.0
C1274 C 0.82826 0.32873 0.92705 0.0
C1275 C 0.80816 0.32289 0.91902 0.0
C1276 C 0.83077 0.34425 0.94476 0.0
C1277 C 0.80385 0.38947 0.9699 0.0
H1278 H 0.84409 0.38686 0.022 0.0
C1279 C 0.806 0.45011 0.047 0.0
C1280 C 0.82558 0.45683 0.05573 0.0
C1281 C 0.80451 0.43336 0.0309 0.0
C1282 C 0.83298 0.38792 0.00738 0.0
H1283 H 0.77491 0.32827 0.92404 0.0
H1284 H 0.7793 0.35546 0.95487 0.0
H1285 H 0.84005 0.35792 0.99334 0.0
H1286 H 0.859 0.45103 0.05451 0.0
H1287 H 0.85642 0.42182 0.02593 0.0
H1288 H 0.7969 0.41945 0.98359 0.0
C1289 C 0.79313 0.34817 0.9472 0.0
C1290 C 0.83062 0.37132 0.99102 0.0
C1291 C 0.79061 0.3326 0.92956 0.0
C1292 C 0.84368 0.44624 0.04812 0.0
C1293 C 0.84219 0.42945 0.03185 0.0
C1294 C 0.80627 0.40605 0.98614 0.0
C1295 C 0.81324 0.35437 0.95475 0.0
C1296 C 0.8159 0.37188 0.97221 0.0
C1297 C 0.82257 0.42292 0.02293 0.0
C1298 C 0.82072 0.40543 0.00521 0.0
H1299 H 0.84214 0.32182 0.91902 0.0
H1300 H 0.84647 0.34883 0.95 0.0
H1301 H 0.79271 0.39054 0.9553 0.0
H1302 H 0.79169 0.45776 0.05264 0.0
H1303 H 0.78911 0.42852 0.02483 0.0
C1304 C 0.65864 0.29468 0.23045 0.0
C1305 C 0.66215 0.27514 0.23865 0.0
C1306 C 0.64614 0.29746 0.21017 0.0
C1307 C 0.60484 0.27256 0.17302 0.0
H1308 H 0.62251 0.30941 0.12443 0.0
C1309 C 0.56387 0.27432 0.08103 0.0
C1310 C 0.55978 0.29339 0.07178 0.0
C1311 C 0.57672 0.27259 0.10117 0.0
C1312 C 0.61725 0.29924 0.13797 0.0
H1313 H 0.65507 0.24324 0.23227 0.0
H1314 H 0.63352 0.24805 0.19676 0.0
H1315 H 0.64396 0.30561 0.16038 0.0
H1316 H 0.56633 0.32557 0.07618 0.0
H1317 H 0.58868 0.32254 0.11153 0.0
H1318 H 0.57816 0.26616 0.15072 0.0
C1319 C 0.64029 0.26124 0.20606 0.0
C1320 C 0.62953 0.29707 0.15856 0.0
C1321 C 0.65282 0.25846 0.22625 0.0
C1322 C 0.5692 0.31066 0.08284 0.0
C1323 C 0.58207 0.30892 0.10304 0.0
C1324 C 0.59258 0.27474 0.15249 0.0
C1325 C 0.63682 0.28076 0.19777 0.0
C1326 C 0.62352 0.2836 0.17623 0.0
C1327 C 0.58578 0.28988 0.11259 0.0
C1328 C 0.5987 0.28798 0.13463 0.0
H1329 H 0.66578 0.30781 0.2395 0.0
H1330 H 0.64361 0.3127 0.20434 0.0
H1331 H 0.59959 0.26234 0.18651 0.0
H1332 H 0.55699 0.26069 0.07288 0.0
H1333 H 0.57958 0.25766 0.10779 0.0
C1334 C 0.81655 0.66171 0.28577 0.0
C1335 C 0.8105 0.67924 0.27417 0.0
C1336 C 0.827 0.64601 0.27296 0.0
C1337 C 0.85194 0.63248 0.21292 0.0
H1338 H 0.83161 0.57868 0.22571 0.0
C1339 C 0.83651 0.56846 0.14225 0.0
C1340 C 0.84404 0.54899 0.14647 0.0
C1341 C 0.83931 0.58427 0.15942 0.0
C1342 C 0.8378 0.59355 0.22224 0.0
H1343 H 0.81085 0.69429 0.24029 0.0
H1344 H 0.82827 0.66686 0.21778 0.0
H1345 H 0.82331 0.60693 0.25373 0.0
H1346 H 0.86074 0.53067 0.17154 0.0
H1347 H 0.86482 0.55839 0.20239 0.0
H1348 H 0.86477 0.61911 0.1802 0.0
C1349 C 0.82576 0.6653 0.2369 0.0
C1350 C 0.83311 0.6098 0.23833 0.0
C1351 C 0.81564 0.68107 0.24978 0.0
C1352 C 0.855 0.54566 0.16787 0.0
C1353 C 0.85727 0.56141 0.18545 0.0
C1354 C 0.85625 0.61629 0.1966 0.0
C1355 C 0.83126 0.64737 0.24817 0.0
C1356 C 0.8395 0.62963 0.23348 0.0
C1357 C 0.84919 0.58077 0.18143 0.0
C1358 C 0.8487 0.59682 0.20082 0.0
H1359 H 0.81286 0.66001 0.30463 0.0
H1360 H 0.83131 0.63263 0.2824 0.0
H1361 H 0.85767 0.64738 0.20888 0.0
H1362 H 0.82798 0.57132 0.12586 0.0
H1363 H 0.83273 0.599 0.15605 0.0
C1364 C 0.35495 0.90012 0.16968 0.0
C1365 C 0.34664 0.91849 0.17919 0.0
C1366 C 0.37392 0.89976 0.15723 0.0
C1367 C 0.41027 0.93093 0.12341 0.0
H1368 H 0.44908 0.8875 0.13606 0.0
C1369 C 0.49105 0.92156 0.07541 0.0
C1370 C 0.49551 0.90172 0.06665 0.0
C1371 C 0.47396 0.92534 0.09081 0.0
C1372 C 0.43838 0.89967 0.13225 0.0
H1373 H 0.35165 0.95096 0.18274 0.0
H1374 H 0.38489 0.95033 0.1607 0.0
H1375 H 0.41696 0.89098 0.15953 0.0
H1376 H 0.48561 0.87029 0.06739 0.0
H1377 H 0.45601 0.87688 0.09399 0.0
H1378 H 0.43164 0.93935 0.09576 0.0
C1379 C 0.37659 0.93623 0.1629 0.0
C1380 C 0.41997 0.90165 0.14568 0.0
C1381 C 0.35756 0.93658 0.17547 0.0
C1382 C 0.48268 0.88577 0.07379 0.0
C1383 C 0.46576 0.88952 0.08921 0.0
C1384 C 0.42876 0.92893 0.10992 0.0
C1385 C 0.38508 0.91776 0.1539 0.0
C1386 C 0.40548 0.91701 0.14105 0.0
C1387 C 0.46116 0.90932 0.09789 0.0
C1388 C 0.44276 0.91299 0.11385 0.0
H1389 H 0.3467 0.88596 0.17172 0.0
H1390 H 0.37979 0.88534 0.15001 0.0
H1391 H 0.39936 0.94287 0.11938 0.0
H1392 H 0.50063 0.93418 0.07021 0.0
H1393 H 0.47084 0.94075 0.09731 0.0
C1394 C 0.26223 0.50748 0.1704 0.0
C1395 C 0.25136 0.48932 0.16479 0.0
C1396 C 0.26026 0.52409 0.15583 0.0
C1397 C 0.22515 0.54868 0.11563 0.0
H1398 H 0.27462 0.57094 0.08609 0.0
C1399 C 0.21841 0.60787 0.04312 0.0
C1400 C 0.23404 0.62271 0.04177 0.0
C1401 C 0.22071 0.59185 0.05847 0.0
C1402 C 0.26065 0.56522 0.09452 0.0
H1403 H 0.2299 0.47459 0.13914 0.0
H1404 H 0.22576 0.50397 0.11451 0.0
H1405 H 0.27813 0.54289 0.11294 0.0
H1406 H 0.26419 0.63269 0.05563 0.0
H1407 H 0.26785 0.6053 0.08336 0.0
H1408 H 0.20762 0.57128 0.09815 0.0
C1409 C 0.23591 0.50514 0.13015 0.0
C1410 C 0.26271 0.54906 0.10977 0.0
C1411 C 0.2382 0.48838 0.14441 0.0
C1412 C 0.25197 0.62135 0.05621 0.0
C1413 C 0.25409 0.60555 0.07198 0.0
C1414 C 0.22311 0.5651 0.10081 0.0
C1415 C 0.24704 0.52304 0.13566 0.0
C1416 C 0.24495 0.54056 0.12023 0.0
C1417 C 0.23852 0.59052 0.07327 0.0
C1418 C 0.24081 0.57348 0.08981 0.0
H1419 H 0.27215 0.50901 0.18619 0.0
H1420 H 0.26885 0.53786 0.1605 0.0
H1421 H 0.21126 0.54244 0.12375 0.0
H1422 H 0.20452 0.60842 0.03196 0.0
H1423 H 0.20861 0.58038 0.05843 0.0
C1424 C 0.36315 0.33645 0.19139 0.0
C1425 C 0.34236 0.32953 0.19185 0.0
C1426 C 0.37862 0.32501 0.17942 0.0
C1427 C 0.38486 0.28834 0.12895 0.0
H1428 H 0.44261 0.2891 0.15059 0.0
C1429 C 0.45426 0.26285 0.06706 0.0
C1430 C 0.46971 0.27795 0.06606 0.0
C1431 C 0.43877 0.26408 0.08496 0.0
C1432 C 0.42652 0.28861 0.14439 0.0
H1433 H 0.32171 0.30468 0.18103 0.0
H1434 H 0.34883 0.28473 0.1598 0.0
H1435 H 0.41488 0.30017 0.17844 0.0
H1436 H 0.48153 0.30574 0.08344 0.0
H1437 H 0.45476 0.30778 0.11453 0.0
H1438 H 0.39668 0.27754 0.09459 0.0
C1439 C 0.35304 0.29911 0.16861 0.0
C1440 C 0.41067 0.29498 0.16029 0.0
C1441 C 0.33753 0.31056 0.1807 0.0
C1442 C 0.46976 0.29393 0.08361 0.0
C1443 C 0.45455 0.295 0.1016 0.0
C1444 C 0.40074 0.28188 0.11305 0.0
C1445 C 0.37369 0.30638 0.16754 0.0
C1446 C 0.38977 0.29571 0.15244 0.0
C1447 C 0.43879 0.28022 0.10236 0.0
C1448 C 0.42178 0.28275 0.12037 0.0
H1449 H 0.36736 0.35115 0.19936 0.0
H1450 H 0.39427 0.33127 0.17853 0.0
H1451 H 0.36893 0.28884 0.12231 0.0
H1452 H 0.45387 0.25035 0.05374 0.0
H1453 H 0.42675 0.25251 0.08517 0.0
C1454 C 0.73109 0.35294 0.25277 0.0
C1455 C 0.74152 0.35013 0.27464 0.0
C1456 C 0.73518 0.37006 0.23963 0.0
C1457 C 0.77673 0.4044 0.22649 0.0
H1458 H 0.73366 0.44027 0.20376 0.0
C1459 C 0.79891 0.47196 0.17035 0.0
C1460 C 0.78557 0.47672 0.15135 0.0
C1461 C 0.79249 0.45848 0.18755 0.0
C1462 C 0.74587 0.43027 0.20967 0.0
H1463 H 0.76421 0.36282 0.30008 0.0
H1464 H 0.77182 0.39257 0.27666 0.0
H1465 H 0.72409 0.41258 0.22941 0.0
H1466 H 0.75493 0.47149 0.13556 0.0
H1467 H 0.74402 0.44714 0.16481 0.0
H1468 H 0.79842 0.42104 0.20593 0.0
C1469 C 0.7603 0.38168 0.26993 0.0
C1470 C 0.74036 0.41452 0.22447 0.0
C1471 C 0.75591 0.36477 0.28331 0.0
C1472 C 0.76547 0.46815 0.15015 0.0
C1473 C 0.7592 0.45427 0.16704 0.0
C1474 C 0.78219 0.41984 0.21133 0.0
C1475 C 0.75006 0.38439 0.24793 0.0
C1476 C 0.75576 0.40149 0.23298 0.0
C1477 C 0.77277 0.44901 0.18579 0.0
C1478 C 0.76686 0.43301 0.20267 0.0
H1479 H 0.71989 0.34183 0.24582 0.0
H1480 H 0.72721 0.3718 0.22261 0.0
H1481 H 0.78883 0.39434 0.23259 0.0
H1482 H 0.8144 0.47859 0.17186 0.0
H1483 H 0.80316 0.45535 0.20208 0.0
C1484 C 0.65906 0.76633 0.19766 0.0
C1485 C 0.65898 0.77504 0.2212 0.0
C1486 C 0.64616 0.7741 0.17998 0.0
C1487 C 0.62392 0.82098 0.1621 0.0
H1488 H 0.58643 0.78811 0.12176 0.0
C1489 C 0.57224 0.85644 0.09004 0.0
C1490 C 0.56835 0.84497 0.06862 0.0
C1491 C 0.58227 0.8477 0.10937 0.0
C1492 C 0.59707 0.79747 0.13258 0.0
H1493 H 0.64543 0.79842 0.24496 0.0
H1494 H 0.62314 0.81237 0.21375 0.0
H1495 H 0.60552 0.7727 0.15433 0.0
H1496 H 0.57228 0.81556 0.0503 0.0
H1497 H 0.5907 0.80055 0.08348 0.0
H1498 H 0.61646 0.84554 0.1399 0.0
C1499 C 0.63296 0.7994 0.20915 0.0
C1500 C 0.60783 0.78864 0.15134 0.0
C1501 C 0.64555 0.79137 0.22695 0.0
C1502 C 0.57494 0.8247 0.06671 0.0
C1503 C 0.58534 0.81606 0.08585 0.0
C1504 C 0.61349 0.82974 0.14307 0.0
C1505 C 0.63334 0.79094 0.18549 0.0
C1506 C 0.62131 0.80034 0.16623 0.0
C1507 C 0.58902 0.82739 0.10752 0.0
C1508 C 0.59993 0.81811 0.12802 0.0
H1509 H 0.66937 0.75375 0.19289 0.0
H1510 H 0.64678 0.76743 0.1618 0.0
H1511 H 0.63449 0.83022 0.1732 0.0
H1512 H 0.56712 0.87206 0.09208 0.0
H1513 H 0.58443 0.85682 0.12587 0.0
C1514 C 0.21046 0.81079 0.20152 0.0
C1515 C 0.19623 0.82703 0.20202 0.0
C1516 C 0.20775 0.79428 0.18531 0.0
C1517 C 0.17209 0.76728 0.14295 0.0
H1518 H 0.22303 0.75831 0.1059 0.0
C1519 C 0.17695 0.71616 0.05449 0.0
C1520 C 0.19552 0.70499 0.05101 0.0
C1521 C 0.17505 0.73017 0.07411 0.0
C1522 C 0.20874 0.76034 0.11625 0.0
H1523 H 0.16707 0.83789 0.1873 0.0
H1524 H 0.16241 0.8089 0.15871 0.0
H1525 H 0.22274 0.78329 0.13924 0.0
H1526 H 0.22608 0.69874 0.06607 0.0
H1527 H 0.22256 0.7225 0.10034 0.0
H1528 H 0.15817 0.74408 0.11985 0.0
C1529 C 0.17564 0.80905 0.17092 0.0
C1530 C 0.20859 0.7747 0.13536 0.0
C1531 C 0.17839 0.82567 0.18716 0.0
C1532 C 0.21173 0.70743 0.06796 0.0
C1533 C 0.20974 0.72113 0.0876 0.0
C1534 C 0.17229 0.75267 0.12383 0.0
C1535 C 0.19077 0.79363 0.16922 0.0
C1536 C 0.19037 0.77819 0.14907 0.0
C1537 C 0.19162 0.73304 0.09063 0.0
C1538 C 0.19072 0.74891 0.11044 0.0
H1539 H 0.2245 0.81141 0.21248 0.0
H1540 H 0.2195 0.78244 0.18455 0.0
H1541 H 0.15782 0.76979 0.15321 0.0
H1542 H 0.16418 0.71452 0.04171 0.0
H1543 H 0.16091 0.73916 0.07591 0.0
C1544 C 0.37676 0.90567 0.83276 0.0
C1545 C 0.36653 0.88788 0.82437 0.0
C1546 C 0.39189 0.90499 0.85086 0.0
C1547 C 0.41202 0.87301 0.89881 0.0
H1548 H 0.46333 0.90337 0.89036 0.0
C1549 C 0.48617 0.85829 0.9538 0.0
C1550 C 0.49688 0.87533 0.96359 0.0
C1551 C 0.47017 0.86053 0.93704 0.0
C1552 C 0.449 0.89499 0.89308 0.0
H1553 H 0.36362 0.85556 0.82893 0.0
H1554 H 0.39035 0.85429 0.86012 0.0
H1555 H 0.43487 0.90616 0.86136 0.0
H1556 H 0.49954 0.90806 0.963 0.0
H1557 H 0.47156 0.91194 0.93358 0.0
H1558 H 0.4263 0.8616 0.93032 0.0
C1559 C 0.38655 0.86881 0.85291 0.0
C1560 C 0.43268 0.89661 0.87653 0.0
C1561 C 0.37139 0.86949 0.83485 0.0
C1562 C 0.49159 0.89463 0.95579 0.0
C1563 C 0.47562 0.89686 0.9389 0.0
C1564 C 0.42836 0.87132 0.91528 0.0
C1565 C 0.39714 0.88651 0.86092 0.0
C1566 C 0.41407 0.88553 0.87913 0.0
C1567 C 0.46458 0.87985 0.92961 0.0
C1568 C 0.44707 0.88216 0.91248 0.0
H1569 H 0.37352 0.92005 0.82487 0.0
H1570 H 0.39959 0.91894 0.85686 0.0
H1571 H 0.39775 0.86455 0.90155 0.0
H1572 H 0.48989 0.84319 0.95936 0.0
H1573 H 0.46215 0.84712 0.92988 0.0
C1574 C 0.25436 0.48041 0.87464 0.0
C1575 C 0.26415 0.48274 0.85222 0.0
C1576 C 0.24274 0.49627 0.88554 0.0
C1577 C 0.21825 0.54604 0.87187 0.0
H1578 H 0.22022 0.55514 0.94132 0.0
C1579 C 0.21242 0.62231 0.92589 0.0
C1580 C 0.19886 0.62337 0.9458 0.0
C1581 C 0.21464 0.60423 0.91218 0.0
C1582 C 0.21922 0.55253 0.92194 0.0
H1583 H 0.26916 0.50383 0.82376 0.0
H1584 H 0.25054 0.53164 0.84348 0.0
H1585 H 0.23685 0.52514 0.92282 0.0
H1586 H 0.1764 0.60687 0.96663 0.0
H1587 H 0.18095 0.57479 0.94305 0.0
H1588 H 0.20206 0.57448 0.87116 0.0
C1589 C 0.25114 0.5174 0.85238 0.0
C1590 C 0.22872 0.53532 0.91128 0.0
C1591 C 0.26239 0.50149 0.84131 0.0
C1592 C 0.1867 0.60643 0.95108 0.0
C1593 C 0.18937 0.58812 0.93775 0.0
C1594 C 0.20919 0.56348 0.88252 0.0
C1595 C 0.24087 0.51495 0.87447 0.0
C1596 C 0.2288 0.53208 0.88604 0.0
C1597 C 0.20377 0.58681 0.91862 0.0
C1598 C 0.20993 0.56699 0.90758 0.0
H1599 H 0.25546 0.46627 0.8837 0.0
H1600 H 0.23495 0.49371 0.90247 0.0
H1601 H 0.2174 0.54378 0.85245 0.0
H1602 H 0.22206 0.63519 0.92169 0.0
H1603 H 0.22598 0.60347 0.89763 0.0
C1604 C 0.69798 0.26684 0.8728 0.0
C1605 C 0.71153 0.25008 0.87134 0.0
C1606 C 0.67803 0.26513 0.88269 0.0
C1607 C 0.6464 0.23556 0.92354 0.0
H1608 H 0.60069 0.26363 0.8933 0.0
C1609 C 0.5632 0.24109 0.96537 0.0
C1610 C 0.5561 0.26121 0.96801 0.0
C1611 C 0.58052 0.23628 0.95071 0.0
C1612 C 0.61328 0.25564 0.90188 0.0
H1613 H 0.7149 0.21843 0.87946 0.0
H1614 H 0.67989 0.21549 0.89704 0.0
H1615 H 0.6348 0.2617 0.87359 0.0
H1616 H 0.56083 0.29185 0.95652 0.0
H1617 H 0.59072 0.28345 0.93089 0.0
H1618 H 0.6249 0.23004 0.95219 0.0
C1619 C 0.68481 0.22995 0.8905 0.0
C1620 C 0.63281 0.2546 0.89067 0.0
C1621 C 0.70485 0.23165 0.88052 0.0
C1622 C 0.56599 0.27622 0.95493 0.0
C1623 C 0.58303 0.27138 0.9401 0.0
C1624 C 0.62677 0.23656 0.93476 0.0
C1625 C 0.67112 0.24663 0.89141 0.0
C1626 C 0.64977 0.24514 0.90175 0.0
C1627 C 0.59073 0.25146 0.93816 0.0
C1628 C 0.61023 0.24718 0.92439 0.0
H1629 H 0.70282 0.28136 0.86637 0.0
H1630 H 0.66807 0.27842 0.88373 0.0
H1631 H 0.65918 0.22822 0.93254 0.0
H1632 H 0.55589 0.22924 0.97532 0.0
H1633 H 0.58612 0.22079 0.94944 0.0
C1634 C 0.8407 0.66235 0.91727 0.0
C1635 C 0.82908 0.67997 0.923 0.0
C1636 C 0.83884 0.64542 0.93138 0.0
C1637 C 0.80264 0.61975 0.96991 0.0
H1638 H 0.85143 0.59701 0.00025 0.0
C1639 C 0.79482 0.56283 0.0449 0.0
C1640 C 0.81044 0.54811 0.04737 0.0
C1641 C 0.79709 0.57785 0.02817 0.0
C1642 C 0.83766 0.60284 0.99155 0.0
H1643 H 0.80624 0.69374 0.9475 0.0
H1644 H 0.80263 0.66392 0.97187 0.0
H1645 H 0.85564 0.6251 0.97358 0.0
H1646 H 0.84031 0.53708 0.03366 0.0
H1647 H 0.84388 0.56272 0.00368 0.0
H1648 H 0.78461 0.59735 0.98718 0.0
C1649 C 0.81331 0.66332 0.95668 0.0
C1650 C 0.84011 0.61902 0.97639 0.0
C1651 C 0.81549 0.68036 0.9429 0.0
C1652 C 0.82809 0.54835 0.03229 0.0
C1653 C 0.8302 0.56316 0.01522 0.0
C1654 C 0.8002 0.60334 0.98467 0.0
C1655 C 0.82498 0.64573 0.95105 0.0
C1656 C 0.82259 0.62779 0.96577 0.0
C1657 C 0.81486 0.5783 0.01316 0.0
C1658 C 0.81763 0.59486 0.99604 0.0
H1659 H 0.85126 0.66176 0.90197 0.0
H1660 H 0.84794 0.63197 0.9267 0.0
H1661 H 0.78893 0.62616 0.96165 0.0
H1662 H 0.78112 0.56314 0.05644 0.0
H1663 H 0.78513 0.58943 0.02752 0.0
loop_
_geom_bond_atom_site_label_1
_geom_bond_atom_site_label_2
_geom_bond_distance
_geom_bond_site_symmetry_2
_ccdc_geom_bond_type
H0 O26 0.856 . S
H1 O29 0.854 . S
H2 C37 0.930 . S
H3 C38 0.930 . S
H4 C40 0.930 . S
H5 C41 0.930 . S
H6 C43 0.931 . S
H7 C44 0.930 . S
H8 C46 0.930 . S
H9 C47 0.929 . S
H10 C49 0.930 . S
H11 C50 0.931 . S
H12 C52 0.930 . S
H13 C53 0.929 . S
H14 C55 0.931 . S
H15 C56 0.930 . S
H16 C58 0.930 . S
H17 C59 0.932 . S
H18 C61 0.930 . S
H19 C62 0.929 . S
H20 C64 0.931 . S
H21 C65 0.930 . S
H22 C67 0.929 . S
H23 C68 0.931 . S
H24 C70 0.930 . S
H25 C71 0.929 . S
O26 H0 0.856 . S
O26 C72 1.300 . S
O27 C72 1.209 . S
O28 C73 1.199 . S
O29 H1 0.854 . S
O29 C73 1.297 . S
C30 C31 1.404 . S
C30 C35 1.397 . S
C30 C36 1.492 . S
C31 C30 1.404 . S
C31 C32 1.396 . S
C31 C42 1.492 . S
C32 C31 1.396 . S
C32 C33 1.397 . S
C32 C48 1.509 . S
C33 C32 1.397 . S
C33 C34 1.412 . S
C33 C54 1.485 . S
C34 C33 1.412 . S
C34 C35 1.388 . S
C34 C60 1.490 . S
C35 C30 1.397 . S
C35 C34 1.388 . S
C35 C66 1.519 . S
C36 C30 1.492 . S
C36 C37 1.363 . S
C36 C41 1.390 . S
C37 H2 0.930 . S
C37 C36 1.363 . S
C37 C38 1.372 . S
C38 H3 0.930 . S
C38 C37 1.372 . S
C38 C39 1.383 . S
C39 C38 1.383 . S
C39 C40 1.395 . S
C40 H4 0.930 . S
C40 C39 1.395 . S
C40 C41 1.362 . S
C41 H5 0.930 . S
C41 C36 1.390 . S
C41 C40 1.362 . S
C42 C31 1.492 . S
C42 C43 1.377 . S
C42 C47 1.397 . S
C43 H6 0.931 . S
C43 C42 1.377 . S
C43 C44 1.376 . S
C44 H7 0.930 . S
C44 C43 1.376 . S
C44 C45 1.376 . S
C45 C44 1.376 . S
C45 C46 1.378 . S
C45 C72 1.486 . S
C46 H8 0.930 . S
C46 C45 1.378 . S
C46 C47 1.376 . S
C47 H9 0.929 . S
C47 C42 1.397 . S
C47 C46 1.376 . S
C48 C32 1.509 . S
C48 C49 1.391 . S
C48 C53 1.386 . S
C49 H10 0.930 . S
C49 C48 1.391 . S
C49 C50 1.375 . S
C50 H11 0.931 . S
C50 C49 1.375 . S
C50 C51 1.375 . S
C51 C50 1.375 . S
C51 C52 1.361 . S
C52 H12 0.930 . S
C52 C51 1.361 . S
C52 C53 1.399 . S
C53 H13 0.929 . S
C53 C48 1.386 . S
C53 C52 1.399 . S
C54 C33 1.485 . S
C54 C55 1.394 . S
C54 C59 1.360 . S
C55 H14 0.931 . S
C55 C54 1.394 . S
C55 C56 1.372 . S
C56 H15 0.930 . S
C56 C55 1.372 . S
C56 C57 1.397 . S
C57 C56 1.397 . S
C57 C58 1.390 . S
C57 C73 1.476 . S
C58 H16 0.930 . S
C58 C57 1.390 . S
C58 C59 1.366 . S
C59 H17 0.932 . S
C59 C54 1.360 . S
C59 C58 1.366 . S
C60 C34 1.490 . S
C60 C61 1.380 . S
C60 C65 1.386 . S
C61 H18 0.930 . S
C61 C60 1.380 . S
C61 C62 1.381 . S
C62 H19 0.929 . S
C62 C61 1.381 . S
C62 C63 1.371 . S
C63 C62 1.371 . S
C63 C64 1.380 . S
C64 H20 0.931 . S
C64 C63 1.380 . S
C64 C65 1.387 . S
C65 H21 0.930 . S
C65 C60 1.386 . S
C65 C64 1.387 . S
C66 C35 1.519 . S
C66 C67 1.377 . S
C66 C71 1.361 . S
C67 H22 0.929 . S
C67 C66 1.377 . S
C67 C68 1.386 . S
C68 H23 0.931 . S
C68 C67 1.386 . S
C68 C69 1.363 . S
C69 C68 1.363 . S
C69 C70 1.385 . S
C70 H24 0.930 . S
C70 C69 1.385 . S
C70 C71 1.396 . S
C71 H25 0.929 . S
C71 C66 1.361 . S
C71 C70 1.396 . S
C72 O26 1.300 . S
C72 O27 1.209 . S
C72 C45 1.486 . S
C73 O28 1.199 . S
C73 O29 1.297 . S
C73 C57 1.476 . S
H74 O100 0.856 . S
H75 O103 0.854 . S
H76 C111 0.930 . S
H77 C112 0.930 . S
H78 C114 0.930 . S
H79 C115 0.930 . S
H80 C117 0.931 . S
H81 C118 0.930 . S
H82 C120 0.930 . S
H83 C121 0.929 . S
H84 C123 0.930 . S
H85 C124 0.931 . S
H86 C126 0.930 . S
H87 C127 0.929 . S
H88 C129 0.931 . S
H89 C130 0.930 . S
H90 C132 0.930 . S
H91 C133 0.932 . S
H92 C135 0.930 . S
H93 C136 0.929 . S
H94 C138 0.931 . S
H95 C139 0.930 . S
H96 C141 0.929 . S
H97 C142 0.931 . S
H98 C144 0.930 . S
H99 C145 0.929 . S
O100 H74 0.856 . S
O100 C146 1.300 . S
O101 C146 1.209 . S
O102 C147 1.199 . S
O103 H75 0.854 . S
O103 C147 1.297 . S
C104 C105 1.404 . S
C104 C109 1.397 . S
C104 C110 1.492 . S
C105 C104 1.404 . S
C105 C106 1.396 . S
C105 C116 1.492 . S
C106 C105 1.396 . S
C106 C107 1.397 . S
C106 C122 1.509 . S
C107 C106 1.397 . S
C107 C108 1.412 . S
C107 C128 1.485 . S
C108 C107 1.412 . S
C108 C109 1.388 . S
C108 C134 1.490 . S
C109 C104 1.397 . S
C109 C108 1.388 . S
C109 C140 1.519 . S
C110 C104 1.492 . S
C110 C111 1.363 . S
C110 C115 1.390 . S
C111 H76 0.930 . S
C111 C110 1.363 . S
C111 C112 1.372 . S
C112 H77 0.930 . S
C112 C111 1.372 . S
C112 C113 1.383 . S
C113 C112 1.383 . S
C113 C114 1.395 . S
C114 H78 0.930 . S
C114 C113 1.395 . S
C114 C115 1.362 . S
C115 H79 0.930 . S
C115 C110 1.390 . S
C115 C114 1.362 . S
C116 C105 1.492 . S
C116 C117 1.377 . S
C116 C121 1.397 . S
C117 H80 0.931 . S
C117 C116 1.377 . S
C117 C118 1.376 . S
C118 H81 0.930 . S
C118 C117 1.376 . S
C118 C119 1.376 . S
C119 C118 1.376 . S
C119 C120 1.378 . S
C119 C146 1.486 . S
C120 H82 0.930 . S
C120 C119 1.378 . S
C120 C121 1.376 . S
C121 H83 0.929 . S
C121 C116 1.397 . S
C121 C120 1.376 . S
C122 C106 1.509 . S
C122 C123 1.391 . S
C122 C127 1.386 . S
C123 H84 0.930 . S
C123 C122 1.391 . S
C123 C124 1.375 . S
C124 H85 0.931 . S
C124 C123 1.375 . S
C124 C125 1.375 . S
C125 C124 1.375 . S
C125 C126 1.361 . S
C126 H86 0.930 . S
C126 C125 1.361 . S
C126 C127 1.399 . S
C127 H87 0.929 . S
C127 C122 1.386 . S
C127 C126 1.399 . S
C128 C107 1.485 . S
C128 C129 1.394 . S
C128 C133 1.360 . S
C129 H88 0.931 . S
C129 C128 1.394 . S
C129 C130 1.372 . S
C130 H89 0.930 . S
C130 C129 1.372 . S
C130 C131 1.397 . S
C131 C130 1.397 . S
C131 C132 1.390 . S
C131 C147 1.476 . S
C132 H90 0.930 . S
C132 C131 1.390 . S
C132 C133 1.366 . S
C133 H91 0.932 . S
C133 C128 1.360 . S
C133 C132 1.366 . S
C134 C108 1.490 . S
C134 C135 1.380 . S
C134 C139 1.386 . S
C135 H92 0.930 . S
C135 C134 1.380 . S
C135 C136 1.381 . S
C136 H93 0.929 . S
C136 C135 1.381 . S
C136 C137 1.371 . S
C137 C136 1.371 . S
C137 C138 1.380 . S
C138 H94 0.931 . S
C138 C137 1.380 . S
C138 C139 1.387 . S
C139 H95 0.930 . S
C139 C134 1.386 . S
C139 C138 1.387 . S
C140 C109 1.519 . S
C140 C141 1.377 . S
C140 C145 1.361 . S
C141 H96 0.929 . S
C141 C140 1.377 . S
C141 C142 1.386 . S
C142 H97 0.931 . S
C142 C141 1.386 . S
C142 C143 1.363 . S
C143 C142 1.363 . S
C143 C144 1.385 . S
C144 H98 0.930 . S
C144 C143 1.385 . S
C144 C145 1.396 . S
C145 H99 0.929 . S
C145 C140 1.361 . S
C145 C144 1.396 . S
C146 O100 1.300 . S
C146 O101 1.209 . S
C146 C119 1.486 . S
C147 O102 1.199 . S
C147 O103 1.297 . S
C147 C131 1.476 . S
H148 O174 0.856 . S
H149 O177 0.854 . S
H150 C185 0.930 . S
H151 C186 0.930 . S
H152 C188 0.930 . S
H153 C189 0.930 . S
H154 C191 0.931 . S
H155 C192 0.930 . S
H156 C194 0.930 . S
H157 C195 0.929 . S
H158 C197 0.930 . S
H159 C198 0.931 . S
H160 C200 0.930 . S
H161 C201 0.929 . S
H162 C203 0.931 . S
H163 C204 0.930 . S
H164 C206 0.930 . S
H165 C207 0.932 . S
H166 C209 0.930 . S
H167 C210 0.929 . S
H168 C212 0.931 . S
H169 C213 0.930 . S
H170 C215 0.929 . S
H171 C216 0.931 . S
H172 C218 0.930 . S
H173 C219 0.929 . S
O174 H148 0.856 . S
O174 C220 1.300 . S
O175 C220 1.209 . S
O176 C221 1.199 . S
O177 H149 0.854 . S
O177 C221 1.297 . S
C178 C179 1.404 . S
C178 C183 1.397 . S
C178 C184 1.492 . S
C179 C178 1.404 . S
C179 C180 1.396 . S
C179 C190 1.492 . S
C180 C179 1.396 . S
C180 C181 1.397 . S
C180 C196 1.509 . S
C181 C180 1.397 . S
C181 C182 1.412 . S
C181 C202 1.485 . S
C182 C181 1.412 . S
C182 C183 1.388 . S
C182 C208 1.490 . S
C183 C178 1.397 . S
C183 C182 1.388 . S
C183 C214 1.519 . S
C184 C178 1.492 . S
C184 C185 1.363 . S
C184 C189 1.390 . S
C185 H150 0.930 . S
C185 C184 1.363 . S
C185 C186 1.372 . S
C186 H151 0.930 . S
C186 C185 1.372 . S
C186 C187 1.383 . S
C187 C186 1.383 . S
C187 C188 1.395 . S
C188 H152 0.930 . S
C188 C187 1.395 . S
C188 C189 1.362 . S
C189 H153 0.930 . S
C189 C184 1.390 . S
C189 C188 1.362 . S
C190 C179 1.492 . S
C190 C191 1.377 . S
C190 C195 1.397 . S
C191 H154 0.931 . S
C191 C190 1.377 . S
C191 C192 1.376 . S
C192 H155 0.930 . S
C192 C191 1.376 . S
C192 C193 1.376 . S
C193 C192 1.376 . S
C193 C194 1.378 . S
C193 C220 1.486 . S
C194 H156 0.930 . S
C194 C193 1.378 . S
C194 C195 1.376 . S
C195 H157 0.929 . S
C195 C190 1.397 . S
C195 C194 1.376 . S
C196 C180 1.509 . S
C196 C197 1.391 . S
C196 C201 1.386 . S
C197 H158 0.930 . S
C197 C196 1.391 . S
C197 C198 1.375 . S
C198 H159 0.931 . S
C198 C197 1.375 . S
C198 C199 1.375 . S
C199 C198 1.375 . S
C199 C200 1.361 . S
C200 H160 0.930 . S
C200 C199 1.361 . S
C200 C201 1.399 . S
C201 H161 0.929 . S
C201 C196 1.386 . S
C201 C200 1.399 . S
C202 C181 1.485 . S
C202 C203 1.394 . S
C202 C207 1.360 . S
C203 H162 0.931 . S
C203 C202 1.394 . S
C203 C204 1.372 . S
C204 H163 0.930 . S
C204 C203 1.372 . S
C204 C205 1.397 . S
C205 C204 1.397 . S
C205 C206 1.390 . S
C205 C221 1.476 . S
C206 H164 0.930 . S
C206 C205 1.390 . S
C206 C207 1.366 . S
C207 H165 0.932 . S
C207 C202 1.360 . S
C207 C206 1.366 . S
C208 C182 1.490 . S
C208 C209 1.380 . S
C208 C213 1.386 . S
C209 H166 0.930 . S
C209 C208 1.380 . S
C209 C210 1.381 . S
C210 H167 0.929 . S
C210 C209 1.381 . S
C210 C211 1.371 . S
C211 C210 1.371 . S
C211 C212 1.380 . S
C212 H168 0.931 . S
C212 C211 1.380 . S
C212 C213 1.387 . S
C213 H169 0.930 . S
C213 C208 1.386 . S
C213 C212 1.387 . S
C214 C183 1.519 . S
C214 C215 1.377 . S
C214 C219 1.361 . S
C215 H170 0.929 . S
C215 C214 1.377 . S
C215 C216 1.386 . S
C216 H171 0.931 . S
C216 C215 1.386 . S
C216 C217 1.363 . S
C217 C216 1.363 . S
C217 C218 1.385 . S
C218 H172 0.930 . S
C218 C217 1.385 . S
C218 C219 1.396 . S
C219 H173 0.929 . S
C219 C214 1.361 . S
C219 C218 1.396 . S
C220 O174 1.300 . S
C220 O175 1.209 . S
C220 C193 1.486 . S
C221 O176 1.199 . S
C221 O177 1.297 . S
C221 C205 1.476 . S
H222 O248 0.856 1_545 S
H223 O251 0.854 . S
H224 C259 0.930 . S
H225 C260 0.930 . S
H226 C262 0.930 . S
H227 C263 0.930 . S
H228 C265 0.931 . S
H229 C266 0.930 . S
H230 C268 0.930 . S
H231 C269 0.929 . S
H232 C271 0.930 . S
H233 C272 0.931 . S
H234 C274 0.930 . S
H235 C275 0.929 . S
H236 C277 0.931 . S
H237 C278 0.930 . S
H238 C280 0.930 . S
H239 C281 0.932 . S
H240 C283 0.930 . S
H241 C284 0.929 . S
H242 C286 0.931 . S
H243 C287 0.930 . S
H244 C289 0.929 . S
H245 C290 0.931 . S
H246 C292 0.930 . S
H247 C293 0.929 . S
O248 H222 0.856 1_565 S
O248 C294 1.294 1_565 S
O249 C294 1.251 . S
O250 C295 1.199 . S
O251 H223 0.854 . S
O251 C295 1.297 . S
C252 C253 1.404 . S
C252 C257 1.397 . S
C252 C258 1.492 . S
C253 C252 1.404 . S
C253 C254 1.396 . S
C253 C264 1.492 . S
C254 C253 1.396 . S
C254 C255 1.397 . S
C254 C270 1.509 . S
C255 C254 1.397 . S
C255 C256 1.412 . S
C255 C276 1.485 . S
C256 C255 1.412 . S
C256 C257 1.388 . S
C256 C282 1.490 . S
C257 C252 1.397 . S
C257 C256 1.388 . S
C257 C288 1.519 . S
C258 C252 1.492 . S
C258 C259 1.363 . S
C258 C263 1.390 . S
C259 H224 0.930 . S
C259 C258 1.363 . S
C259 C260 1.372 . S
C260 H225 0.930 . S
C260 C259 1.372 . S
C260 C261 1.383 . S
C261 C260 1.383 . S
C261 C262 1.395 . S
C262 H226 0.930 . S
C262 C261 1.395 . S
C262 C263 1.362 . S
C263 H227 0.930 . S
C263 C258 1.390 . S
C263 C262 1.362 . S
C264 C253 1.492 . S
C264 C265 1.377 . S
C264 C269 1.397 . S
C265 H228 0.931 . S
C265 C264 1.377 . S
C265 C266 1.376 . S
C266 H229 0.930 . S
C266 C265 1.376 . S
C266 C267 1.376 . S
C267 C266 1.376 . S
C267 C268 1.378 . S
C267 C294 1.448 1_565 S
C268 H230 0.930 . S
C268 C267 1.378 . S
C268 C269 1.376 . S
C269 H231 0.929 . S
C269 C264 1.397 . S
C269 C268 1.376 . S
C270 C254 1.509 . S
C270 C271 1.391 . S
C270 C275 1.386 . S
C271 H232 0.930 . S
C271 C270 1.391 . S
C271 C272 1.375 . S
C272 H233 0.931 . S
C272 C271 1.375 . S
C272 C273 1.375 . S
C273 C272 1.375 . S
C273 C274 1.361 . S
C274 H234 0.930 . S
C274 C273 1.361 . S
C274 C275 1.399 . S
C275 H235 0.929 . S
C275 C270 1.386 . S
C275 C274 1.399 . S
C276 C255 1.485 . S
C276 C277 1.394 . S
C276 C281 1.360 . S
C277 H236 0.931 . S
C277 C276 1.394 . S
C277 C278 1.372 . S
C278 H237 0.930 . S
C278 C277 1.372 . S
C278 C279 1.397 . S
C279 C278 1.397 . S
C279 C280 1.390 . S
C279 C295 1.476 . S
C280 H238 0.930 . S
C280 C279 1.390 . S
C280 C281 1.366 . S
C281 H239 0.932 . S
C281 C276 1.360 . S
C281 C280 1.366 . S
C282 C256 1.490 . S
C282 C283 1.380 . S
C282 C287 1.386 . S
C283 H240 0.930 . S
C283 C282 1.380 . S
C283 C284 1.381 . S
C284 H241 0.929 . S
C284 C283 1.381 . S
C284 C285 1.371 . S
C285 C284 1.371 . S
C285 C286 1.380 . S
C286 H242 0.931 . S
C286 C285 1.380 . S
C286 C287 1.387 . S
C287 H243 0.930 . S
C287 C282 1.386 . S
C287 C286 1.387 . S
C288 C257 1.519 . S
C288 C289 1.377 . S
C288 C293 1.361 . S
C289 H244 0.929 . S
C289 C288 1.377 . S
C289 C290 1.386 . S
C290 H245 0.931 . S
C290 C289 1.386 . S
C290 C291 1.363 . S
C291 C290 1.363 . S
C291 C292 1.385 . S
C292 H246 0.930 . S
C292 C291 1.385 . S
C292 C293 1.396 . S
C293 H247 0.929 . S
C293 C288 1.361 . S
C293 C292 1.396 . S
C294 O248 1.294 1_545 S
C294 O249 1.251 . S
C294 C267 1.448 1_545 S
C295 O250 1.199 . S
C295 O251 1.297 . S
C295 C279 1.476 . S
H296 O322 0.856 . S
H297 O325 0.854 . S
H298 C333 0.930 . S
H299 C334 0.930 . S
H300 C336 0.930 . S
H301 C337 0.930 . S
H302 C339 0.931 . S
H303 C340 0.930 . S
H304 C342 0.930 . S
H305 C343 0.929 . S
H306 C345 0.930 . S
H307 C346 0.931 . S
H308 C348 0.930 . S
H309 C349 0.929 . S
H310 C351 0.931 . S
H311 C352 0.930 . S
H312 C354 0.930 . S
H313 C355 0.932 . S
H314 C357 0.930 . S
H315 C358 0.929 . S
H316 C360 0.931 . S
H317 C361 0.930 . S
H318 C363 0.929 . S
H319 C364 0.931 . S
H320 C366 0.930 . S
H321 C367 0.929 . S
O322 H296 0.856 . S
O322 C368 1.300 . S
O323 C368 1.209 . S
O324 C369 1.199 . S
O325 H297 0.854 . S
O325 C369 1.297 . S
C326 C327 1.404 . S
C326 C331 1.397 . S
C326 C332 1.492 . S
C327 C326 1.404 . S
C327 C328 1.396 . S
C327 C338 1.492 . S
C328 C327 1.396 . S
C328 C329 1.397 . S
C328 C344 1.509 . S
C329 C328 1.397 . S
C329 C330 1.412 . S
C329 C350 1.485 . S
C330 C329 1.412 . S
C330 C331 1.388 . S
C330 C356 1.490 . S
C331 C326 1.397 . S
C331 C330 1.388 . S
C331 C362 1.519 . S
C332 C326 1.492 . S
C332 C333 1.363 . S
C332 C337 1.390 . S
C333 H298 0.930 . S
C333 C332 1.363 . S
C333 C334 1.372 . S
C334 H299 0.930 . S
C334 C333 1.372 . S
C334 C335 1.383 . S
C335 C334 1.383 . S
C335 C336 1.395 . S
C336 H300 0.930 . S
C336 C335 1.395 . S
C336 C337 1.362 . S
C337 H301 0.930 . S
C337 C332 1.390 . S
C337 C336 1.362 . S
C338 C327 1.492 . S
C338 C339 1.377 . S
C338 C343 1.397 . S
C339 H302 0.931 . S
C339 C338 1.377 . S
C339 C340 1.376 . S
C340 H303 0.930 . S
C340 C339 1.376 . S
C340 C341 1.376 . S
C341 C340 1.376 . S
C341 C342 1.378 . S
C341 C368 1.486 . S
C342 H304 0.930 . S
C342 C341 1.378 . S
C342 C343 1.376 . S
C343 H305 0.929 . S
C343 C338 1.397 . S
C343 C342 1.376 . S
C344 C328 1.509 . S
C344 C345 1.391 . S
C344 C349 1.386 . S
C345 H306 0.930 . S
C345 C344 1.391 . S
C345 C346 1.375 . S
C346 H307 0.931 . S
C346 C345 1.375 . S
C346 C347 1.375 . S
C347 C346 1.375 . S
C347 C348 1.361 . S
C348 H308 0.930 . S
C348 C347 1.361 . S
C348 C349 1.399 . S
C349 H309 0.929 . S
C349 C344 1.386 . S
C349 C348 1.399 . S
C350 C329 1.485 . S
C350 C351 1.394 . S
C350 C355 1.360 . S
C351 H310 0.931 . S
C351 C350 1.394 . S
C351 C352 1.372 . S
C352 H311 0.930 . S
C352 C351 1.372 . S
C352 C353 1.397 . S
C353 C352 1.397 . S
C353 C354 1.390 . S
C353 C369 1.476 . S
C354 H312 0.930 . S
C354 C353 1.390 . S
C354 C355 1.366 . S
C355 H313 0.932 . S
C355 C350 1.360 . S
C355 C354 1.366 . S
C356 C330 1.490 . S
C356 C357 1.380 . S
C356 C361 1.386 . S
C357 H314 0.930 . S
C357 C356 1.380 . S
C357 C358 1.381 . S
C358 H315 0.929 . S
C358 C357 1.381 . S
C358 C359 1.371 . S
C359 C358 1.371 . S
C359 C360 1.380 . S
C360 H316 0.931 . S
C360 C359 1.380 . S
C360 C361 1.387 . S
C361 H317 0.930 . S
C361 C356 1.386 . S
C361 C360 1.387 . S
C362 C331 1.519 . S
C362 C363 1.377 . S
C362 C367 1.361 . S
C363 H318 0.929 . S
C363 C362 1.377 . S
C363 C364 1.386 . S
C364 H319 0.931 . S
C364 C363 1.386 . S
C364 C365 1.363 . S
C365 C364 1.363 . S
C365 C366 1.385 . S
C366 H320 0.930 . S
C366 C365 1.385 . S
C366 C367 1.396 . S
C367 H321 0.929 . S
C367 C362 1.361 . S
C367 C366 1.396 . S
C368 O322 1.300 . S
C368 O323 1.209 . S
C368 C341 1.486 . S
C369 O324 1.199 . S
C369 O325 1.297 . S
C369 C353 1.476 . S
H370 O396 0.856 . S
H371 O399 0.854 . S
H372 C407 0.930 . S
H373 C408 0.930 . S
H374 C410 0.930 . S
H375 C411 0.930 . S
H376 C413 0.931 . S
H377 C414 0.930 . S
H378 C416 0.930 . S
H379 C417 0.929 . S
H380 C419 0.930 . S
H381 C420 0.931 . S
H382 C422 0.930 . S
H383 C423 0.929 . S
H384 C425 0.931 . S
H385 C426 0.930 . S
H386 C428 0.930 . S
H387 C429 0.932 . S
H388 C431 0.930 . S
H389 C432 0.929 . S
H390 C434 0.931 . S
H391 C435 0.930 . S
H392 C437 0.929 . S
H393 C438 0.931 . S
H394 C440 0.930 . S
H395 C441 0.929 . S
O396 H370 0.856 . S
O396 C442 1.300 . S
O397 C442 1.209 . S
O398 C443 1.199 . S
O399 H371 0.854 . S
O399 C443 1.297 . S
C400 C401 1.404 . S
C400 C405 1.397 . S
C400 C406 1.492 . S
C401 C400 1.404 . S
C401 C402 1.396 . S
C401 C412 1.492 . S
C402 C401 1.396 . S
C402 C403 1.397 . S
C402 C418 1.509 . S
C403 C402 1.397 . S
C403 C404 1.412 . S
C403 C424 1.485 . S
C404 C403 1.412 . S
C404 C405 1.388 . S
C404 C430 1.490 . S
C405 C400 1.397 . S
C405 C404 1.388 . S
C405 C436 1.519 . S
C406 C400 1.492 . S
C406 C407 1.363 . S
C406 C411 1.390 . S
C407 H372 0.930 . S
C407 C406 1.363 . S
C407 C408 1.372 . S
C408 H373 0.930 . S
C408 C407 1.372 . S
C408 C409 1.383 . S
C409 C408 1.383 . S
C409 C410 1.395 . S
C410 H374 0.930 . S
C410 C409 1.395 . S
C410 C411 1.362 . S
C411 H375 0.930 . S
C411 C406 1.390 . S
C411 C410 1.362 . S
C412 C401 1.492 . S
C412 C413 1.377 . S
C412 C417 1.397 . S
C413 H376 0.931 . S
C413 C412 1.377 . S
C413 C414 1.376 . S
C414 H377 0.930 . S
C414 C413 1.376 . S
C414 C415 1.376 . S
C415 C414 1.376 . S
C415 C416 1.378 . S
C415 C442 1.486 . S
C416 H378 0.930 . S
C416 C415 1.378 . S
C416 C417 1.376 . S
C417 H379 0.929 . S
C417 C412 1.397 . S
C417 C416 1.376 . S
C418 C402 1.509 . S
C418 C419 1.391 . S
C418 C423 1.386 . S
C419 H380 0.930 . S
C419 C418 1.391 . S
C419 C420 1.375 . S
C420 H381 0.931 . S
C420 C419 1.375 . S
C420 C421 1.375 . S
C421 C420 1.375 . S
C421 C422 1.361 . S
C422 H382 0.930 . S
C422 C421 1.361 . S
C422 C423 1.399 . S
C423 H383 0.929 . S
C423 C418 1.386 . S
C423 C422 1.399 . S
C424 C403 1.485 . S
C424 C425 1.394 . S
C424 C429 1.360 . S
C425 H384 0.931 . S
C425 C424 1.394 . S
C425 C426 1.372 . S
C426 H385 0.930 . S
C426 C425 1.372 . S
C426 C427 1.397 . S
C427 C426 1.397 . S
C427 C428 1.390 . S
C427 C443 1.476 . S
C428 H386 0.930 . S
C428 C427 1.390 . S
C428 C429 1.366 . S
C429 H387 0.932 . S
C429 C424 1.360 . S
C429 C428 1.366 . S
C430 C404 1.490 . S
C430 C431 1.380 . S
C430 C435 1.386 . S
C431 H388 0.930 . S
C431 C430 1.380 . S
C431 C432 1.381 . S
C432 H389 0.929 . S
C432 C431 1.381 . S
C432 C433 1.371 . S
C433 C432 1.371 . S
C433 C434 1.380 . S
C434 H390 0.931 . S
C434 C433 1.380 . S
C434 C435 1.387 . S
C435 H391 0.930 . S
C435 C430 1.386 . S
C435 C434 1.387 . S
C436 C405 1.519 . S
C436 C437 1.377 . S
C436 C441 1.361 . S
C437 H392 0.929 . S
C437 C436 1.377 . S
C437 C438 1.386 . S
C438 H393 0.931 . S
C438 C437 1.386 . S
C438 C439 1.363 . S
C439 C438 1.363 . S
C439 C440 1.385 . S
C440 H394 0.930 . S
C440 C439 1.385 . S
C440 C441 1.396 . S
C441 H395 0.929 . S
C441 C436 1.361 . S
C441 C440 1.396 . S
C442 O396 1.300 . S
C442 O397 1.209 . S
C442 C415 1.486 . S
C443 O398 1.199 . S
C443 O399 1.297 . S
C443 C427 1.476 . S
H444 O470 0.856 . S
H445 O473 0.854 . S
H446 C481 0.930 . S
H447 C482 0.930 . S
H448 C484 0.930 . S
H449 C485 0.930 . S
H450 C487 0.931 . S
H451 C488 0.930 . S
H452 C490 0.930 . S
H453 C491 0.929 . S
H454 C493 0.930 . S
H455 C494 0.931 . S
H456 C496 0.930 . S
H457 C497 0.929 . S
H458 C499 0.931 . S
H459 C500 0.930 . S
H460 C502 0.930 . S
H461 C503 0.932 . S
H462 C505 0.930 . S
H463 C506 0.929 . S
H464 C508 0.931 . S
H465 C509 0.930 . S
H466 C511 0.929 . S
H467 C512 0.931 . S
H468 C514 0.930 . S
H469 C515 0.929 . S
O470 H444 0.856 . S
O470 C516 1.300 . S
O471 C516 1.209 . S
O472 C517 1.199 . S
O473 H445 0.854 . S
O473 C517 1.297 . S
C474 C475 1.404 . S
C474 C479 1.397 . S
C474 C480 1.492 . S
C475 C474 1.404 . S
C475 C476 1.396 . S
C475 C486 1.492 . S
C476 C475 1.396 . S
C476 C477 1.397 . S
C476 C492 1.509 . S
C477 C476 1.397 . S
C477 C478 1.412 . S
C477 C498 1.485 . S
C478 C477 1.412 . S
C478 C479 1.388 . S
C478 C504 1.490 . S
C479 C474 1.397 . S
C479 C478 1.388 . S
C479 C510 1.519 . S
C480 C474 1.492 . S
C480 C481 1.363 . S
C480 C485 1.390 . S
C481 H446 0.930 . S
C481 C480 1.363 . S
C481 C482 1.372 . S
C482 H447 0.930 . S
C482 C481 1.372 . S
C482 C483 1.383 . S
C483 C482 1.383 . S
C483 C484 1.395 . S
C484 H448 0.930 . S
C484 C483 1.395 . S
C484 C485 1.362 . S
C485 H449 0.930 . S
C485 C480 1.390 . S
C485 C484 1.362 . S
C486 C475 1.492 . S
C486 C487 1.377 . S
C486 C491 1.397 . S
C487 H450 0.931 . S
C487 C486 1.377 . S
C487 C488 1.376 . S
C488 H451 0.930 . S
C488 C487 1.376 . S
C488 C489 1.376 . S
C489 C488 1.376 . S
C489 C490 1.378 . S
C489 C516 1.486 . S
C490 H452 0.930 . S
C490 C489 1.378 . S
C490 C491 1.376 . S
C491 H453 0.929 . S
C491 C486 1.397 . S
C491 C490 1.376 . S
C492 C476 1.509 . S
C492 C493 1.391 . S
C492 C497 1.386 . S
C493 H454 0.930 . S
C493 C492 1.391 . S
C493 C494 1.375 . S
C494 H455 0.931 . S
C494 C493 1.375 . S
C494 C495 1.375 . S
C495 C494 1.375 . S
C495 C496 1.361 . S
C496 H456 0.930 . S
C496 C495 1.361 . S
C496 C497 1.399 . S
C497 H457 0.929 . S
C497 C492 1.386 . S
C497 C496 1.399 . S
C498 C477 1.485 . S
C498 C499 1.394 . S
C498 C503 1.360 . S
C499 H458 0.931 . S
C499 C498 1.394 . S
C499 C500 1.372 . S
C500 H459 0.930 . S
C500 C499 1.372 . S
C500 C501 1.397 . S
C501 C500 1.397 . S
C501 C502 1.390 . S
C501 C517 1.476 . S
C502 H460 0.930 . S
C502 C501 1.390 . S
C502 C503 1.366 . S
C503 H461 0.932 . S
C503 C498 1.360 . S
C503 C502 1.366 . S
C504 C478 1.490 . S
C504 C505 1.380 . S
C504 C509 1.386 . S
C505 H462 0.930 . S
C505 C504 1.380 . S
C505 C506 1.381 . S
C506 H463 0.929 . S
C506 C505 1.381 . S
C506 C507 1.371 . S
C507 C506 1.371 . S
C507 C508 1.380 . S
C508 H464 0.931 . S
C508 C507 1.380 . S
C508 C509 1.387 . S
C509 H465 0.930 . S
C509 C504 1.386 . S
C509 C508 1.387 . S
C510 C479 1.519 . S
C510 C511 1.377 . S
C510 C515 1.361 . S
C511 H466 0.929 . S
C511 C510 1.377 . S
C511 C512 1.386 . S
C512 H467 0.931 . S
C512 C511 1.386 . S
C512 C513 1.363 . S
C513 C512 1.363 . S
C513 C514 1.385 . S
C514 H468 0.930 . S
C514 C513 1.385 . S
C514 C515 1.396 . S
C515 H469 0.929 . S
C515 C510 1.361 . S
C515 C514 1.396 . S
C516 O470 1.300 . S
C516 O471 1.209 . S
C516 C489 1.486 . S
C517 O472 1.199 . S
C517 O473 1.297 . S
C517 C501 1.476 . S
H518 O544 0.856 . S
H519 O547 0.854 . S
H520 C555 0.930 . S
H521 C556 0.930 . S
H522 C558 0.930 . S
H523 C559 0.930 . S
H524 C561 0.931 . S
H525 C562 0.930 . S
H526 C564 0.930 . S
H527 C565 0.929 . S
H528 C567 0.930 . S
H529 C568 0.931 . S
H530 C570 0.930 . S
H531 C571 0.929 . S
H532 C573 0.931 . S
H533 C574 0.930 . S
H534 C576 0.930 . S
H535 C577 0.932 . S
H536 C579 0.930 . S
H537 C580 0.929 . S
H538 C582 0.931 . S
H539 C583 0.930 . S
H540 C585 0.929 . S
H541 C586 0.931 . S
H542 C588 0.930 . S
H543 C589 0.929 . S
O544 H518 0.856 . S
O544 C590 1.300 . S
O545 C590 1.209 . S
O546 C591 1.199 . S
O547 H519 0.854 . S
O547 C591 1.297 . S
C548 C549 1.404 . S
C548 C553 1.397 . S
C548 C554 1.492 . S
C549 C548 1.404 . S
C549 C550 1.396 . S
C549 C560 1.492 . S
C550 C549 1.396 . S
C550 C551 1.397 . S
C550 C566 1.509 . S
C551 C550 1.397 . S
C551 C552 1.412 . S
C551 C572 1.485 . S
C552 C551 1.412 . S
C552 C553 1.388 . S
C552 C578 1.490 . S
C553 C548 1.397 . S
C553 C552 1.388 . S
C553 C584 1.519 . S
C554 C548 1.492 . S
C554 C555 1.363 . S
C554 C559 1.390 . S
C555 H520 0.930 . S
C555 C554 1.363 . S
C555 C556 1.372 . S
C556 H521 0.930 . S
C556 C555 1.372 . S
C556 C557 1.383 . S
C557 C556 1.383 . S
C557 C558 1.395 . S
C558 H522 0.930 . S
C558 C557 1.395 . S
C558 C559 1.362 . S
C559 H523 0.930 . S
C559 C554 1.390 . S
C559 C558 1.362 . S
C560 C549 1.492 . S
C560 C561 1.377 . S
C560 C565 1.397 . S
C561 H524 0.931 . S
C561 C560 1.377 . S
C561 C562 1.376 . S
C562 H525 0.930 . S
C562 C561 1.376 . S
C562 C563 1.376 . S
C563 C562 1.376 . S
C563 C564 1.378 . S
C563 C590 1.486 . S
C564 H526 0.930 . S
C564 C563 1.378 . S
C564 C565 1.376 . S
C565 H527 0.929 . S
C565 C560 1.397 . S
C565 C564 1.376 . S
C566 C550 1.509 . S
C566 C567 1.391 . S
C566 C571 1.386 . S
C567 H528 0.930 . S
C567 C566 1.391 . S
C567 C568 1.375 . S
C568 H529 0.931 . S
C568 C567 1.375 . S
C568 C569 1.375 . S
C569 C568 1.375 . S
C569 C570 1.361 . S
C570 H530 0.930 . S
C570 C569 1.361 . S
C570 C571 1.399 . S
C571 H531 0.929 . S
C571 C566 1.386 . S
C571 C570 1.399 . S
C572 C551 1.485 . S
C572 C573 1.394 . S
C572 C577 1.360 . S
C573 H532 0.931 . S
C573 C572 1.394 . S
C573 C574 1.372 . S
C574 H533 0.930 . S
C574 C573 1.372 . S
C574 C575 1.397 . S
C575 C574 1.397 . S
C575 C576 1.390 . S
C575 C591 1.476 . S
C576 H534 0.930 . S
C576 C575 1.390 . S
C576 C577 1.366 . S
C577 H535 0.932 . S
C577 C572 1.360 . S
C577 C576 1.366 . S
C578 C552 1.490 . S
C578 C579 1.380 . S
C578 C583 1.386 . S
C579 H536 0.930 . S
C579 C578 1.380 . S
C579 C580 1.381 . S
C580 H537 0.929 . S
C580 C579 1.381 . S
C580 C581 1.371 . S
C581 C580 1.371 . S
C581 C582 1.380 . S
C582 H538 0.931 . S
C582 C581 1.380 . S
C582 C583 1.387 . S
C583 H539 0.930 . S
C583 C578 1.386 . S
C583 C582 1.387 . S
C584 C553 1.519 . S
C584 C585 1.377 . S
C584 C589 1.361 . S
C585 H540 0.929 . S
C585 C584 1.377 . S
C585 C586 1.386 . S
C586 H541 0.931 . S
C586 C585 1.386 . S
C586 C587 1.363 . S
C587 C586 1.363 . S
C587 C588 1.385 . S
C588 H542 0.930 . S
C588 C587 1.385 . S
C588 C589 1.396 . S
C589 H543 0.929 . S
C589 C584 1.361 . S
C589 C588 1.396 . S
C590 O544 1.300 . S
C590 O545 1.209 . S
C590 C563 1.486 . S
C591 O546 1.199 . S
C591 O547 1.297 . S
C591 C575 1.476 . S
C592 O594 1.247 . S
C592 O596 1.258 . S
C593 O600 1.247 . S
C593 O601 1.258 . S
O594 C592 1.247 . S
O594 Zn595 2.028 . S
Zn595 O594 2.028 . S
Zn595 O599 2.035 1_655 S
Zn595 O601 2.035 1_655 S
Zn595 O602 2.028 . S
O596 C592 1.258 . S
O596 Zn597 2.035 1_655 S
Zn597 O596 2.035 1_455 S
Zn597 O598 2.028 . S
Zn597 O600 2.028 . S
Zn597 O603 2.035 1_455 S
O598 Zn597 2.028 . S
O598 C604 1.247 . S
O599 Zn595 2.035 1_455 S
O599 C604 1.258 . S
O600 C593 1.247 . S
O600 Zn597 2.028 . S
O601 C593 1.258 . S
O601 Zn595 2.035 1_455 S
O602 Zn595 2.028 . S
O602 C605 1.247 . S
O603 Zn597 2.035 1_655 S
O603 C605 1.258 . S
C604 O598 1.247 . S
C604 O599 1.258 . S
C605 O602 1.247 . S
C605 O603 1.258 . S
C606 O608 1.247 . S
C606 O610 1.258 . S
C607 O614 1.247 . S
C607 O615 1.258 . S
O608 C606 1.247 . S
O608 Zn609 2.028 . S
Zn609 O608 2.028 . S
Zn609 O613 2.035 1_545 S
Zn609 O615 2.035 1_545 S
Zn609 O616 2.028 . S
O610 C606 1.258 . S
O610 Zn611 2.035 . S
Zn611 O610 2.035 . S
Zn611 O612 2.028 1_545 S
Zn611 O614 2.028 1_545 S
Zn611 O617 2.035 . S
O612 Zn611 2.028 1_565 S
O612 C618 1.247 . S
O613 Zn609 2.035 1_565 S
O613 C618 1.258 . S
O614 C607 1.247 . S
O614 Zn611 2.028 1_565 S
O615 C607 1.258 . S
O615 Zn609 2.035 1_565 S
O616 Zn609 2.028 . S
O616 C619 1.247 . S
O617 Zn611 2.035 . S
O617 C619 1.258 . S
C618 O612 1.247 . S
C618 O613 1.258 . S
C619 O616 1.247 . S
C619 O617 1.258 . S
C620 O622 1.247 . S
C620 O624 1.258 . S
C621 O628 1.247 . S
C621 O629 1.258 . S
O622 C620 1.247 . S
O622 Zn623 2.028 . S
Zn623 O622 2.028 . S
Zn623 O627 2.035 . S
Zn623 O629 2.035 . S
Zn623 O630 2.028 . S
O624 C620 1.258 . S
O624 Zn625 2.035 . S
Zn625 O624 2.035 . S
Zn625 O626 2.028 . S
Zn625 O628 2.028 . S
Zn625 O631 2.035 . S
O626 Zn625 2.028 . S
O626 C632 1.247 . S
O627 Zn623 2.035 . S
O627 C632 1.258 . S
O628 C621 1.247 . S
O628 Zn625 2.028 . S
O629 C621 1.258 . S
O629 Zn623 2.035 . S
O630 Zn623 2.028 . S
O630 C633 1.247 . S
O631 Zn625 2.035 . S
O631 C633 1.258 . S
C632 O626 1.247 . S
C632 O627 1.258 . S
C633 O630 1.247 . S
C633 O631 1.258 . S
C634 O636 1.247 . S
C634 O638 1.258 . S
C635 O642 1.247 . S
C635 O643 1.258 . S
O636 C634 1.247 . S
O636 Zn637 2.028 . S
Zn637 O636 2.028 . S
Zn637 O641 2.035 . S
Zn637 O643 2.035 . S
Zn637 O644 2.028 . S
O638 C634 1.258 . S
O638 Zn639 2.035 . S
Zn639 O638 2.035 . S
Zn639 O640 2.028 . S
Zn639 O642 2.028 . S
Zn639 O645 2.035 . S
O640 Zn639 2.028 . S
O640 C646 1.247 . S
O641 Zn637 2.035 . S
O641 C646 1.258 . S
O642 C635 1.247 . S
O642 Zn639 2.028 . S
O643 C635 1.258 . S
O643 Zn637 2.035 . S
O644 Zn637 2.028 . S
O644 C647 1.247 . S
O645 Zn639 2.035 . S
O645 C647 1.258 . S
C646 O640 1.247 . S
C646 O641 1.258 . S
C647 O644 1.247 . S
C647 O645 1.258 . S
C648 O650 1.247 . S
C648 O652 1.258 . S
C649 O656 1.247 . S
C649 O657 1.258 . S
O650 C648 1.247 . S
O650 Zn651 2.028 . S
Zn651 O650 2.028 . S
Zn651 O655 2.035 . S
Zn651 O657 2.035 1_554 S
Zn651 O658 2.028 1_554 S
O652 C648 1.258 . S
O652 Zn653 2.035 . S
Zn653 O652 2.035 . S
Zn653 O654 2.028 . S
Zn653 O656 2.028 1_554 S
Zn653 O659 2.035 1_554 S
O654 Zn653 2.028 . S
O654 C660 1.247 . S
O655 Zn651 2.035 . S
O655 C660 1.258 . S
O656 C649 1.247 . S
O656 Zn653 2.028 1_556 S
O657 C649 1.258 . S
O657 Zn651 2.035 1_556 S
O658 Zn651 2.028 1_556 S
O658 C661 1.247 . S
O659 Zn653 2.035 1_556 S
O659 C661 1.258 . S
C660 O654 1.247 . S
C660 O655 1.258 . S
C661 O658 1.247 . S
C661 O659 1.258 . S
C662 O664 1.247 . S
C662 O666 1.258 . S
C663 O670 1.247 . S
C663 O671 1.258 . S
O664 C662 1.247 . S
O664 Zn665 2.028 . S
Zn665 O664 2.028 . S
Zn665 O669 2.035 . S
Zn665 O671 2.035 1_554 S
Zn665 O672 2.028 1_554 S
O666 C662 1.258 . S
O666 Zn667 2.035 . S
Zn667 O666 2.035 . S
Zn667 O668 2.028 . S
Zn667 O670 2.028 1_554 S
Zn667 O673 2.035 1_554 S
O668 Zn667 2.028 . S
O668 C674 1.247 . S
O669 Zn665 2.035 . S
O669 C674 1.258 . S
O670 C663 1.247 . S
O670 Zn667 2.028 1_556 S
O671 C663 1.258 . S
O671 Zn665 2.035 1_556 S
O672 Zn665 2.028 1_556 S
O672 C675 1.247 . S
O673 Zn667 2.035 1_556 S
O673 C675 1.258 . S
C674 O668 1.247 . S
C674 O669 1.258 . S
C675 O672 1.247 . S
C675 O673 1.258 . S
C676 O678 1.247 . S
C676 O680 1.258 . S
C677 O684 1.247 . S
C677 O685 1.258 . S
O678 C676 1.247 . S
O678 Zn679 2.028 . S
Zn679 O678 2.028 . S
Zn679 O683 2.035 . S
Zn679 O685 2.035 . S
Zn679 O686 2.028 . S
O680 C676 1.258 . S
O680 Zn681 2.035 . S
Zn681 O680 2.035 . S
Zn681 O682 2.028 . S
Zn681 O684 2.028 . S
Zn681 O687 2.035 . S
O682 Zn681 2.028 . S
O682 C688 1.247 1_554 S
O683 Zn679 2.035 . S
O683 C688 1.258 1_554 S
O684 C677 1.247 . S
O684 Zn681 2.028 . S
O685 C677 1.258 . S
O685 Zn679 2.035 . S
O686 Zn679 2.028 . S
O686 C689 1.247 . S
O687 Zn681 2.035 . S
O687 C689 1.258 . S
C688 O682 1.247 1_556 S
C688 O683 1.258 1_556 S
C689 O686 1.247 . S
C689 O687 1.258 . S
C690 O692 1.247 . S
C690 O694 1.258 . S
C691 O698 1.247 . S
C691 O699 1.258 . S
O692 C690 1.247 . S
O692 Zn693 2.028 . S
Zn693 O692 2.028 . S
Zn693 O697 2.035 . S
Zn693 O699 2.035 . S
Zn693 O700 2.028 . S
O694 C690 1.258 . S
O694 Zn695 2.035 . S
Zn695 O694 2.035 . S
Zn695 O696 2.028 . S
Zn695 O698 2.028 . S
Zn695 O701 2.035 . S
O696 Zn695 2.028 . S
O696 C702 1.247 . S
O697 Zn693 2.035 . S
O697 C702 1.258 . S
O698 C691 1.247 . S
O698 Zn695 2.028 . S
O699 C691 1.258 . S
O699 Zn693 2.035 . S
O700 Zn693 2.028 . S
O700 C703 1.247 . S
O701 Zn695 2.035 . S
O701 C703 1.258 . S
C702 O696 1.247 . S
C702 O697 1.258 . S
C703 O700 1.247 . S
C703 O701 1.258 . S
C704 C705 1.349 . S
C704 C706 1.327 . S
C704 H729 0.950 . S
C705 C704 1.349 . S
C705 C721 1.349 . S
C706 C704 1.327 . S
C706 C725 1.429 . S
C706 H730 0.950 . S
C707 C724 1.574 . S
C707 C726 1.368 . S
C707 H731 0.949 . S
H708 C712 0.949 . S
C709 C710 1.349 . S
C709 C711 1.327 . S
C709 H732 0.950 . S
C710 C709 1.349 . S
C710 C722 1.349 . S
C711 C709 1.327 . S
C711 C727 1.429 . S
C711 H733 0.950 . S
C712 H708 0.949 . S
C712 C720 1.574 . S
C712 C728 1.368 . S
H713 C721 0.950 . S
H714 C719 0.950 . S
H715 C720 0.949 . S
H716 C722 0.950 . S
H717 C723 0.950 . S
H718 C724 0.949 . S
C719 H714 0.950 . S
C719 C721 1.327 . S
C719 C725 1.429 . S
C720 C712 1.574 . S
C720 H715 0.949 . S
C720 C726 1.368 . S
C721 C705 1.349 . S
C721 H713 0.950 . S
C721 C719 1.327 . S
C722 C710 1.349 . S
C722 H716 0.950 . S
C722 C723 1.327 . S
C723 H717 0.950 . S
C723 C722 1.327 . S
C723 C727 1.429 . S
C724 C707 1.574 . S
C724 H718 0.949 . S
C724 C728 1.368 . S
C725 C706 1.429 . S
C725 C719 1.429 . S
C725 C726 1.523 . S
C726 C707 1.368 . S
C726 C720 1.368 . S
C726 C725 1.523 . S
C727 C711 1.429 . S
C727 C723 1.429 . S
C727 C728 1.523 . S
C728 C712 1.368 . S
C728 C724 1.368 . S
C728 C727 1.523 . S
H729 C704 0.950 . S
H730 C706 0.950 . S
H731 C707 0.949 . S
H732 C709 0.950 . S
H733 C711 0.950 . S
C734 C735 1.349 . S
C734 C736 1.327 . S
C734 H759 0.950 . S
C735 C734 1.349 . S
C735 C751 1.349 . S
C736 C734 1.327 . S
C736 C755 1.429 . S
C736 H760 0.950 . S
C737 C754 1.574 . S
C737 C756 1.368 . S
C737 H761 0.949 . S
H738 C742 0.949 . S
C739 C740 1.349 . S
C739 C741 1.327 . S
C739 H762 0.950 . S
C740 C739 1.349 . S
C740 C752 1.349 . S
C741 C739 1.327 . S
C741 C757 1.429 . S
C741 H763 0.950 . S
C742 H738 0.949 . S
C742 C750 1.574 . S
C742 C758 1.368 . S
H743 C751 0.950 . S
H744 C749 0.950 . S
H745 C750 0.949 . S
H746 C752 0.950 . S
H747 C753 0.950 . S
H748 C754 0.949 . S
C749 H744 0.950 . S
C749 C751 1.327 . S
C749 C755 1.429 . S
C750 C742 1.574 . S
C750 H745 0.949 . S
C750 C756 1.368 . S
C751 C735 1.349 . S
C751 H743 0.950 . S
C751 C749 1.327 . S
C752 C740 1.349 . S
C752 H746 0.950 . S
C752 C753 1.327 . S
C753 H747 0.950 . S
C753 C752 1.327 . S
C753 C757 1.429 . S
C754 C737 1.574 . S
C754 H748 0.949 . S
C754 C758 1.368 . S
C755 C736 1.429 . S
C755 C749 1.429 . S
C755 C756 1.523 . S
C756 C737 1.368 . S
C756 C750 1.368 . S
C756 C755 1.523 . S
C757 C741 1.429 . S
C757 C753 1.429 . S
C757 C758 1.523 . S
C758 C742 1.368 . S
C758 C754 1.368 . S
C758 C757 1.523 . S
H759 C734 0.950 . S
H760 C736 0.950 . S
H761 C737 0.949 . S
H762 C739 0.950 . S
H763 C741 0.950 . S
C764 C765 1.349 . S
C764 C766 1.327 . S
C764 H789 0.950 . S
C765 C764 1.349 . S
C765 C781 1.349 . S
C766 C764 1.327 . S
C766 C785 1.429 . S
C766 H790 0.950 . S
C767 C784 1.574 . S
C767 C786 1.368 . S
C767 H791 0.949 . S
H768 C772 0.949 . S
C769 C770 1.349 . S
C769 C771 1.327 . S
C769 H792 0.950 . S
C770 C769 1.349 . S
C770 C782 1.349 . S
C771 C769 1.327 . S
C771 C787 1.429 . S
C771 H793 0.950 . S
C772 H768 0.949 . S
C772 C780 1.574 . S
C772 C788 1.368 . S
H773 C781 0.950 . S
H774 C779 0.950 . S
H775 C780 0.949 . S
H776 C782 0.950 . S
H777 C783 0.950 . S
H778 C784 0.949 . S
C779 H774 0.950 . S
C779 C781 1.327 . S
C779 C785 1.429 . S
C780 C772 1.574 . S
C780 H775 0.949 . S
C780 C786 1.368 . S
C781 C765 1.349 . S
C781 H773 0.950 . S
C781 C779 1.327 . S
C782 C770 1.349 . S
C782 H776 0.950 . S
C782 C783 1.327 . S
C783 H777 0.950 . S
C783 C782 1.327 . S
C783 C787 1.429 . S
C784 C767 1.574 . S
C784 H778 0.949 . S
C784 C788 1.368 . S
C785 C766 1.429 . S
C785 C779 1.429 . S
C785 C786 1.523 . S
C786 C767 1.368 . S
C786 C780 1.368 . S
C786 C785 1.523 . S
C787 C771 1.429 . S
C787 C783 1.429 . S
C787 C788 1.523 . S
C788 C772 1.368 . S
C788 C784 1.368 . S
C788 C787 1.523 . S
H789 C764 0.950 . S
H790 C766 0.950 . S
H791 C767 0.949 . S
H792 C769 0.950 . S
H793 C771 0.950 . S
C794 C795 1.349 . S
C794 C796 1.327 . S
C794 H819 0.950 . S
C795 C794 1.349 . S
C795 C811 1.349 . S
C796 C794 1.327 . S
C796 C815 1.429 1_565 S
C796 H820 0.950 . S
C797 C814 1.574 . S
C797 C816 1.368 . S
C797 H821 0.949 . S
H798 C802 0.949 . S
C799 C800 1.349 . S
C799 C801 1.327 . S
C799 H822 0.950 . S
C800 C799 1.349 . S
C800 C812 1.349 . S
C801 C799 1.327 . S
C801 C817 1.429 . S
C801 H823 0.950 . S
C802 H798 0.949 . S
C802 C810 1.574 . S
C802 C818 1.368 . S
H803 C811 0.950 . S
H804 C809 0.950 . S
H805 C810 0.949 . S
H806 C812 0.950 . S
H807 C813 0.950 . S
H808 C814 0.949 . S
C809 H804 0.950 . S
C809 C811 1.327 1_545 S
C809 C815 1.429 . S
C810 C802 1.574 . S
C810 H805 0.949 . S
C810 C816 1.368 . S
C811 C795 1.349 . S
C811 H803 0.950 . S
C811 C809 1.327 1_565 S
C812 C800 1.349 . S
C812 H806 0.950 . S
C812 C813 1.327 . S
C813 H807 0.950 . S
C813 C812 1.327 . S
C813 C817 1.429 . S
C814 C797 1.574 . S
C814 H808 0.949 . S
C814 C818 1.368 . S
C815 C796 1.429 1_545 S
C815 C809 1.429 . S
C815 C816 1.523 . S
C816 C797 1.368 . S
C816 C810 1.368 . S
C816 C815 1.523 . S
C817 C801 1.429 . S
C817 C813 1.429 . S
C817 C818 1.523 . S
C818 C802 1.368 . S
C818 C814 1.368 . S
C818 C817 1.523 . S
H819 C794 0.950 . S
H820 C796 0.950 . S
H821 C797 0.949 . S
H822 C799 0.950 . S
H823 C801 0.950 . S
C824 C825 1.349 . S
C824 C826 1.327 . S
C824 H849 0.950 . S
C825 C824 1.349 . S
C825 C841 1.349 . S
C826 C824 1.327 . S
C826 C845 1.429 . S
C826 H850 0.950 . S
C827 C844 1.574 . S
C827 C846 1.368 . S
C827 H851 0.949 . S
H828 C832 0.949 . S
C829 C830 1.349 . S
C829 C831 1.327 . S
C829 H852 0.950 . S
C830 C829 1.349 . S
C830 C842 1.349 . S
C831 C829 1.327 . S
C831 C847 1.429 . S
C831 H853 0.950 . S
C832 H828 0.949 . S
C832 C840 1.574 . S
C832 C848 1.368 . S
H833 C841 0.950 . S
H834 C839 0.950 . S
H835 C840 0.949 . S
H836 C842 0.950 . S
H837 C843 0.950 . S
H838 C844 0.949 . S
C839 H834 0.950 . S
C839 C841 1.327 . S
C839 C845 1.429 . S
C840 C832 1.574 . S
C840 H835 0.949 . S
C840 C846 1.368 . S
C841 C825 1.349 . S
C841 H833 0.950 . S
C841 C839 1.327 . S
C842 C830 1.349 . S
C842 H836 0.950 . S
C842 C843 1.327 . S
C843 H837 0.950 . S
C843 C842 1.327 . S
C843 C847 1.429 . S
C844 C827 1.574 . S
C844 H838 0.949 . S
C844 C848 1.368 . S
C845 C826 1.429 . S
C845 C839 1.429 . S
C845 C846 1.523 . S
C846 C827 1.368 . S
C846 C840 1.368 . S
C846 C845 1.523 . S
C847 C831 1.429 . S
C847 C843 1.429 . S
C847 C848 1.523 . S
C848 C832 1.368 . S
C848 C844 1.368 . S
C848 C847 1.523 . S
H849 C824 0.950 . S
H850 C826 0.950 . S
H851 C827 0.949 . S
H852 C829 0.950 . S
H853 C831 0.950 . S
C854 C855 1.349 . S
C854 C856 1.327 . S
C854 H879 0.950 . S
C855 C854 1.349 . S
C855 C871 1.349 . S
C856 C854 1.327 . S
C856 C875 1.429 . S
C856 H880 0.950 . S
C857 C874 1.574 . S
C857 C876 1.368 . S
C857 H881 0.949 . S
H858 C862 0.949 . S
C859 C860 1.349 . S
C859 C861 1.327 . S
C859 H882 0.950 . S
C860 C859 1.349 . S
C860 C872 1.349 . S
C861 C859 1.327 . S
C861 C877 1.429 . S
C861 H883 0.950 . S
C862 H858 0.949 . S
C862 C870 1.574 . S
C862 C878 1.368 . S
H863 C871 0.950 . S
H864 C869 0.950 . S
H865 C870 0.949 . S
H866 C872 0.950 . S
H867 C873 0.950 . S
H868 C874 0.949 . S
C869 H864 0.950 . S
C869 C871 1.327 . S
C869 C875 1.429 . S
C870 C862 1.574 . S
C870 H865 0.949 . S
C870 C876 1.368 . S
C871 C855 1.349 . S
C871 H863 0.950 . S
C871 C869 1.327 . S
C872 C860 1.349 . S
C872 H866 0.950 . S
C872 C873 1.327 . S
C873 H867 0.950 . S
C873 C872 1.327 . S
C873 C877 1.429 . S
C874 C857 1.574 . S
C874 H868 0.949 . S
C874 C878 1.368 . S
C875 C856 1.429 . S
C875 C869 1.429 . S
C875 C876 1.523 . S
C876 C857 1.368 . S
C876 C870 1.368 . S
C876 C875 1.523 . S
C877 C861 1.429 . S
C877 C873 1.429 . S
C877 C878 1.523 . S
C878 C862 1.368 . S
C878 C874 1.368 . S
C878 C877 1.523 . S
H879 C854 0.950 . S
H880 C856 0.950 . S
H881 C857 0.949 . S
H882 C859 0.950 . S
H883 C861 0.950 . S
C884 C885 1.349 . S
C884 C886 1.327 . S
C884 H909 0.950 . S
C885 C884 1.349 . S
C885 C901 1.349 . S
C886 C884 1.327 . S
C886 C905 1.429 . S
C886 H910 0.950 . S
C887 C904 1.574 . S
C887 C906 1.368 . S
C887 H911 0.949 . S
H888 C892 0.949 . S
C889 C890 1.349 . S
C889 C891 1.327 . S
C889 H912 0.950 . S
C890 C889 1.349 . S
C890 C902 1.349 . S
C891 C889 1.327 . S
C891 C907 1.429 . S
C891 H913 0.950 . S
C892 H888 0.949 . S
C892 C900 1.574 . S
C892 C908 1.368 . S
H893 C901 0.950 . S
H894 C899 0.950 . S
H895 C900 0.949 . S
H896 C902 0.950 . S
H897 C903 0.950 . S
H898 C904 0.949 . S
C899 H894 0.950 . S
C899 C901 1.327 . S
C899 C905 1.429 . S
C900 C892 1.574 . S
C900 H895 0.949 . S
C900 C906 1.368 . S
C901 C885 1.349 . S
C901 H893 0.950 . S
C901 C899 1.327 . S
C902 C890 1.349 . S
C902 H896 0.950 . S
C902 C903 1.327 . S
C903 H897 0.950 . S
C903 C902 1.327 . S
C903 C907 1.429 . S
C904 C887 1.574 . S
C904 H898 0.949 . S
C904 C908 1.368 . S
C905 C886 1.429 . S
C905 C899 1.429 . S
C905 C906 1.523 . S
C906 C887 1.368 . S
C906 C900 1.368 . S
C906 C905 1.523 . S
C907 C891 1.429 . S
C907 C903 1.429 . S
C907 C908 1.523 . S
C908 C892 1.368 . S
C908 C904 1.368 . S
C908 C907 1.523 . S
H909 C884 0.950 . S
H910 C886 0.950 . S
H911 C887 0.949 . S
H912 C889 0.950 . S
H913 C891 0.950 . S
C914 C915 1.349 . S
C914 C916 1.327 . S
C914 H939 0.950 . S
C915 C914 1.349 . S
C915 C931 1.349 . S
C916 C914 1.327 . S
C916 C935 1.429 . S
C916 H940 0.950 . S
C917 C934 1.574 . S
C917 C936 1.368 . S
C917 H941 0.949 . S
H918 C922 0.949 . S
C919 C920 1.349 . S
C919 C921 1.327 . S
C919 H942 0.950 . S
C920 C919 1.349 . S
C920 C932 1.349 . S
C921 C919 1.327 . S
C921 C937 1.429 . S
C921 H943 0.950 . S
C922 H918 0.949 . S
C922 C930 1.574 . S
C922 C938 1.368 . S
H923 C931 0.950 . S
H924 C929 0.950 . S
H925 C930 0.949 . S
H926 C932 0.950 . S
H927 C933 0.950 . S
H928 C934 0.949 . S
C929 H924 0.950 . S
C929 C931 1.327 . S
C929 C935 1.429 . S
C930 C922 1.574 . S
C930 H925 0.949 . S
C930 C936 1.368 . S
C931 C915 1.349 . S
C931 H923 0.950 . S
C931 C929 1.327 . S
C932 C920 1.349 . S
C932 H926 0.950 . S
C932 C933 1.327 . S
C933 H927 0.950 . S
C933 C932 1.327 . S
C933 C937 1.429 . S
C934 C917 1.574 . S
C934 H928 0.949 . S
C934 C938 1.368 . S
C935 C916 1.429 . S
C935 C929 1.429 . S
C935 C936 1.523 . S
C936 C917 1.368 . S
C936 C930 1.368 . S
C936 C935 1.523 . S
C937 C921 1.429 . S
C937 C933 1.429 . S
C937 C938 1.523 . S
C938 C922 1.368 . S
C938 C934 1.368 . S
C938 C937 1.523 . S
H939 C914 0.950 . S
H940 C916 0.950 . S
H941 C917 0.949 . S
H942 C919 0.950 . S
H943 C921 0.950 . S
C944 C945 1.349 . S
C944 C946 1.327 . S
C944 H969 0.950 . S
C945 C944 1.349 . S
C945 C961 1.349 . S
C946 C944 1.327 . S
C946 C965 1.429 . S
C946 H970 0.950 . S
C947 C964 1.574 . S
C947 C966 1.368 . S
C947 H971 0.949 . S
H948 C952 0.949 . S
C949 C950 1.347 1_455 S
C949 C951 1.312 1_455 S
C949 H972 0.967 . S
C950 C949 1.347 1_655 S
C950 C962 1.349 . S
C951 C949 1.312 1_655 S
C951 C967 1.429 . S
C951 H973 0.950 . S
C952 H948 0.949 . S
C952 C960 1.574 . S
C952 C968 1.368 . S
H953 C961 0.950 . S
H954 C959 0.950 . S
H955 C960 0.949 . S
H956 C962 0.950 . S
H957 C963 0.950 . S
H958 C964 0.949 . S
C959 H954 0.950 . S
C959 C961 1.327 . S
C959 C965 1.429 . S
C960 C952 1.574 . S
C960 H955 0.949 . S
C960 C966 1.368 . S
C961 C945 1.349 . S
C961 H953 0.950 . S
C961 C959 1.327 . S
C962 C950 1.349 . S
C962 H956 0.950 . S
C962 C963 1.327 . S
C963 H957 0.950 . S
C963 C962 1.327 . S
C963 C967 1.429 . S
C964 C947 1.574 . S
C964 H958 0.949 . S
C964 C968 1.368 . S
C965 C946 1.429 . S
C965 C959 1.429 . S
C965 C966 1.523 . S
C966 C947 1.368 . S
C966 C960 1.368 . S
C966 C965 1.523 . S
C967 C951 1.429 . S
C967 C963 1.429 . S
C967 C968 1.523 . S
C968 C952 1.368 . S
C968 C964 1.368 . S
C968 C967 1.523 . S
H969 C944 0.950 . S
H970 C946 0.950 . S
H971 C947 0.949 . S
H972 C949 0.967 . S
H973 C951 0.950 . S
C974 C975 1.349 1_545 S
C974 C976 1.327 . S
C974 H999 0.950 . S
C975 C974 1.349 1_565 S
C975 C991 1.349 . S
C976 C974 1.327 . S
C976 C995 1.429 . S
C976 H1000 0.950 . S
C977 C994 1.574 . S
C977 C996 1.368 . S
C977 H1001 0.949 . S
H978 C982 0.949 . S
C979 C980 1.349 . S
C979 C981 1.327 . S
C979 H1002 0.950 . S
C980 C979 1.349 . S
C980 C992 1.349 . S
C981 C979 1.327 . S
C981 C997 1.429 . S
C981 H1003 0.950 . S
C982 H978 0.949 . S
C982 C990 1.574 . S
C982 C998 1.368 . S
H983 C991 0.950 . S
H984 C989 0.950 . S
H985 C990 0.949 . S
H986 C992 0.950 . S
H987 C993 0.950 . S
H988 C994 0.949 . S
C989 H984 0.950 . S
C989 C991 1.327 1_545 S
C989 C995 1.429 . S
C990 C982 1.574 . S
C990 H985 0.949 . S
C990 C996 1.368 . S
C991 C975 1.349 . S
C991 H983 0.950 . S
C991 C989 1.327 1_565 S
C992 C980 1.349 . S
C992 H986 0.950 . S
C992 C993 1.327 . S
C993 H987 0.950 . S
C993 C992 1.327 . S
C993 C997 1.429 . S
C994 C977 1.574 . S
C994 H988 0.949 . S
C994 C998 1.368 . S
C995 C976 1.429 . S
C995 C989 1.429 . S
C995 C996 1.523 . S
C996 C977 1.368 . S
C996 C990 1.368 . S
C996 C995 1.523 . S
C997 C981 1.429 . S
C997 C993 1.429 . S
C997 C998 1.523 . S
C998 C982 1.368 . S
C998 C994 1.368 . S
C998 C997 1.523 . S
H999 C974 0.950 . S
H1000 C976 0.950 . S
H1001 C977 0.949 . S
H1002 C979 0.950 . S
H1003 C981 0.950 . S
C1004 C1005 1.349 . S
C1004 C1006 1.327 . S
C1004 H1029 0.950 . S
C1005 C1004 1.349 . S
C1005 C1021 1.349 . S
C1006 C1004 1.327 . S
C1006 C1025 1.429 . S
C1006 H1030 0.950 . S
C1007 C1024 1.574 . S
C1007 C1026 1.368 . S
C1007 H1031 0.949 . S
H1008 C1012 0.949 . S
C1009 C1010 1.349 . S
C1009 C1011 1.327 . S
C1009 H1032 0.950 . S
C1010 C1009 1.349 . S
C1010 C1022 1.349 . S
C1011 C1009 1.327 . S
C1011 C1027 1.429 . S
C1011 H1033 0.950 . S
C1012 H1008 0.949 . S
C1012 C1020 1.574 . S
C1012 C1028 1.368 . S
H1013 C1021 0.950 . S
H1014 C1019 0.950 . S
H1015 C1020 0.949 . S
H1016 C1022 0.950 . S
H1017 C1023 0.950 . S
H1018 C1024 0.949 . S
C1019 H1014 0.950 . S
C1019 C1021 1.327 . S
C1019 C1025 1.429 . S
C1020 C1012 1.574 . S
C1020 H1015 0.949 . S
C1020 C1026 1.368 . S
C1021 C1005 1.349 . S
C1021 H1013 0.950 . S
C1021 C1019 1.327 . S
C1022 C1010 1.349 . S
C1022 H1016 0.950 . S
C1022 C1023 1.327 . S
C1023 H1017 0.950 . S
C1023 C1022 1.327 . S
C1023 C1027 1.429 . S
C1024 C1007 1.574 . S
C1024 H1018 0.949 . S
C1024 C1028 1.368 . S
C1025 C1006 1.429 . S
C1025 C1019 1.429 . S
C1025 C1026 1.523 . S
C1026 C1007 1.368 . S
C1026 C1020 1.368 . S
C1026 C1025 1.523 . S
C1027 C1011 1.429 . S
C1027 C1023 1.429 . S
C1027 C1028 1.523 . S
C1028 C1012 1.368 . S
C1028 C1024 1.368 . S
C1028 C1027 1.523 . S
H1029 C1004 0.950 . S
H1030 C1006 0.950 . S
H1031 C1007 0.949 . S
H1032 C1009 0.950 . S
H1033 C1011 0.950 . S
C1034 C1035 1.349 . S
C1034 C1036 1.327 . S
C1034 H1059 0.950 . S
C1035 C1034 1.349 . S
C1035 C1051 1.349 . S
C1036 C1034 1.327 . S
C1036 C1055 1.429 . S
C1036 H1060 0.950 . S
C1037 C1054 1.574 . S
C1037 C1056 1.368 . S
C1037 H1061 0.949 . S
H1038 C1042 0.949 . S
C1039 C1040 1.349 . S
C1039 C1041 1.327 . S
C1039 H1062 0.950 . S
C1040 C1039 1.349 . S
C1040 C1052 1.349 . S
C1041 C1039 1.327 . S
C1041 C1057 1.429 . S
C1041 H1063 0.950 . S
C1042 H1038 0.949 . S
C1042 C1050 1.574 . S
C1042 C1058 1.368 . S
H1043 C1051 0.950 . S
H1044 C1049 0.950 . S
H1045 C1050 0.949 . S
H1046 C1052 0.950 . S
H1047 C1053 0.950 . S
H1048 C1054 0.949 . S
C1049 H1044 0.950 . S
C1049 C1051 1.327 . S
C1049 C1055 1.429 . S
C1050 C1042 1.574 . S
C1050 H1045 0.949 . S
C1050 C1056 1.368 . S
C1051 C1035 1.349 . S
C1051 H1043 0.950 . S
C1051 C1049 1.327 . S
C1052 C1040 1.349 . S
C1052 H1046 0.950 . S
C1052 C1053 1.327 . S
C1053 H1047 0.950 . S
C1053 C1052 1.327 . S
C1053 C1057 1.429 . S
C1054 C1037 1.574 . S
C1054 H1048 0.949 . S
C1054 C1058 1.368 . S
C1055 C1036 1.429 . S
C1055 C1049 1.429 . S
C1055 C1056 1.523 . S
C1056 C1037 1.368 . S
C1056 C1050 1.368 . S
C1056 C1055 1.523 . S
C1057 C1041 1.429 . S
C1057 C1053 1.429 . S
C1057 C1058 1.523 . S
C1058 C1042 1.368 . S
C1058 C1054 1.368 . S
C1058 C1057 1.523 . S
H1059 C1034 0.950 . S
H1060 C1036 0.950 . S
H1061 C1037 0.949 . S
H1062 C1039 0.950 . S
H1063 C1041 0.950 . S
C1064 C1065 1.349 . S
C1064 C1066 1.327 . S
C1064 H1089 0.950 . S
C1065 C1064 1.349 . S
C1065 C1081 1.349 . S
C1066 C1064 1.327 . S
C1066 C1085 1.429 . S
C1066 H1090 0.950 . S
C1067 C1084 1.574 . S
C1067 C1086 1.368 . S
C1067 H1091 0.949 . S
H1068 C1072 0.949 . S
C1069 C1070 1.349 . S
C1069 C1071 1.327 . S
C1069 H1092 0.950 . S
C1070 C1069 1.349 . S
C1070 C1082 1.349 . S
C1071 C1069 1.327 . S
C1071 C1087 1.429 . S
C1071 H1093 0.950 . S
C1072 H1068 0.949 . S
C1072 C1080 1.574 . S
C1072 C1088 1.368 . S
H1073 C1081 0.950 . S
H1074 C1079 0.950 . S
H1075 C1080 0.949 . S
H1076 C1082 0.950 . S
H1077 C1083 0.950 . S
H1078 C1084 0.949 . S
C1079 H1074 0.950 . S
C1079 C1081 1.327 . S
C1079 C1085 1.429 . S
C1080 C1072 1.574 . S
C1080 H1075 0.949 . S
C1080 C1086 1.368 . S
C1081 C1065 1.349 . S
C1081 H1073 0.950 . S
C1081 C1079 1.327 . S
C1082 C1070 1.349 . S
C1082 H1076 0.950 . S
C1082 C1083 1.327 . S
C1083 H1077 0.950 . S
C1083 C1082 1.327 . S
C1083 C1087 1.429 . S
C1084 C1067 1.574 . S
C1084 H1078 0.949 . S
C1084 C1088 1.368 . S
C1085 C1066 1.429 . S
C1085 C1079 1.429 . S
C1085 C1086 1.523 . S
C1086 C1067 1.368 . S
C1086 C1080 1.368 . S
C1086 C1085 1.523 . S
C1087 C1071 1.429 . S
C1087 C1083 1.429 . S
C1087 C1088 1.523 . S
C1088 C1072 1.368 . S
C1088 C1084 1.368 . S
C1088 C1087 1.523 . S
H1089 C1064 0.950 . S
H1090 C1066 0.950 . S
H1091 C1067 0.949 . S
H1092 C1069 0.950 . S
H1093 C1071 0.950 . S
C1094 C1095 1.349 . S
C1094 C1096 1.327 . S
C1094 H1119 0.950 . S
C1095 C1094 1.349 . S
C1095 C1111 1.349 . S
C1096 C1094 1.327 . S
C1096 C1115 1.429 . S
C1096 H1120 0.950 . S
C1097 C1114 1.574 . S
C1097 C1116 1.368 . S
C1097 H1121 0.949 . S
H1098 C1102 0.949 . S
C1099 C1100 1.349 . S
C1099 C1101 1.327 . S
C1099 H1122 0.950 . S
C1100 C1099 1.349 . S
C1100 C1112 1.349 . S
C1101 C1099 1.327 . S
C1101 C1117 1.429 . S
C1101 H1123 0.950 . S
C1102 H1098 0.949 . S
C1102 C1110 1.574 . S
C1102 C1118 1.368 . S
H1103 C1111 0.950 . S
H1104 C1109 0.950 . S
H1105 C1110 0.949 . S
H1106 C1112 0.950 . S
H1107 C1113 0.950 . S
H1108 C1114 0.949 . S
C1109 H1104 0.950 . S
C1109 C1111 1.327 . S
C1109 C1115 1.429 . S
C1110 C1102 1.574 . S
C1110 H1105 0.949 . S
C1110 C1116 1.368 . S
C1111 C1095 1.349 . S
C1111 H1103 0.950 . S
C1111 C1109 1.327 . S
C1112 C1100 1.349 . S
C1112 H1106 0.950 . S
C1112 C1113 1.327 . S
C1113 H1107 0.950 . S
C1113 C1112 1.327 . S
C1113 C1117 1.429 . S
C1114 C1097 1.574 . S
C1114 H1108 0.949 . S
C1114 C1118 1.368 . S
C1115 C1096 1.429 . S
C1115 C1109 1.429 . S
C1115 C1116 1.523 . S
C1116 C1097 1.368 . S
C1116 C1110 1.368 . S
C1116 C1115 1.523 . S
C1117 C1101 1.429 . S
C1117 C1113 1.429 . S
C1117 C1118 1.523 . S
C1118 C1102 1.368 . S
C1118 C1114 1.368 . S
C1118 C1117 1.523 . S
H1119 C1094 0.950 . S
H1120 C1096 0.950 . S
H1121 C1097 0.949 . S
H1122 C1099 0.950 . S
H1123 C1101 0.950 . S
C1124 C1125 1.349 . S
C1124 C1126 1.327 . S
C1124 H1149 0.950 . S
C1125 C1124 1.349 . S
C1125 C1141 1.349 . S
C1126 C1124 1.327 . S
C1126 C1145 1.429 . S
C1126 H1150 0.950 . S
C1127 C1144 1.574 . S
C1127 C1146 1.368 . S
C1127 H1151 0.949 . S
H1128 C1132 0.949 . S
C1129 C1130 1.349 . S
C1129 C1131 1.327 . S
C1129 H1152 0.950 . S
C1130 C1129 1.349 . S
C1130 C1142 1.349 . S
C1131 C1129 1.327 . S
C1131 C1147 1.429 . S
C1131 H1153 0.950 . S
C1132 H1128 0.949 . S
C1132 C1140 1.574 . S
C1132 C1148 1.368 . S
H1133 C1141 0.950 . S
H1134 C1139 0.950 . S
H1135 C1140 0.949 . S
H1136 C1142 0.950 . S
H1137 C1143 0.950 . S
H1138 C1144 0.949 . S
C1139 H1134 0.950 . S
C1139 C1141 1.327 . S
C1139 C1145 1.429 . S
C1140 C1132 1.574 . S
C1140 H1135 0.949 . S
C1140 C1146 1.368 . S
C1141 C1125 1.349 . S
C1141 H1133 0.950 . S
C1141 C1139 1.327 . S
C1142 C1130 1.349 . S
C1142 H1136 0.950 . S
C1142 C1143 1.327 . S
C1143 H1137 0.950 . S
C1143 C1142 1.327 . S
C1143 C1147 1.429 . S
C1144 C1127 1.574 . S
C1144 H1138 0.949 . S
C1144 C1148 1.368 . S
C1145 C1126 1.429 . S
C1145 C1139 1.429 . S
C1145 C1146 1.523 . S
C1146 C1127 1.368 . S
C1146 C1140 1.368 . S
C1146 C1145 1.523 . S
C1147 C1131 1.429 . S
C1147 C1143 1.429 . S
C1147 C1148 1.523 . S
C1148 C1132 1.368 . S
C1148 C1144 1.368 . S
C1148 C1147 1.523 . S
H1149 C1124 0.950 . S
H1150 C1126 0.950 . S
H1151 C1127 0.949 . S
H1152 C1129 0.950 . S
H1153 C1131 0.950 . S
C1154 C1155 1.349 . S
C1154 C1156 1.327 . S
C1154 H1179 0.950 . S
C1155 C1154 1.349 . S
C1155 C1171 1.349 . S
C1156 C1154 1.327 . S
C1156 C1175 1.429 . S
C1156 H1180 0.950 . S
C1157 C1174 1.574 . S
C1157 C1176 1.368 . S
C1157 H1181 0.949 . S
H1158 C1162 0.949 . S
C1159 C1160 1.349 . S
C1159 C1161 1.327 . S
C1159 H1182 0.950 . S
C1160 C1159 1.349 . S
C1160 C1172 1.349 . S
C1161 C1159 1.327 . S
C1161 C1177 1.429 . S
C1161 H1183 0.950 . S
C1162 H1158 0.949 . S
C1162 C1170 1.574 . S
C1162 C1178 1.368 . S
H1163 C1171 0.950 . S
H1164 C1169 0.950 . S
H1165 C1170 0.949 . S
H1166 C1172 0.950 . S
H1167 C1173 0.950 . S
H1168 C1174 0.949 . S
C1169 H1164 0.950 . S
C1169 C1171 1.327 . S
C1169 C1175 1.429 . S
C1170 C1162 1.574 . S
C1170 H1165 0.949 . S
C1170 C1176 1.368 . S
C1171 C1155 1.349 . S
C1171 H1163 0.950 . S
C1171 C1169 1.327 . S
C1172 C1160 1.349 . S
C1172 H1166 0.950 . S
C1172 C1173 1.327 . S
C1173 H1167 0.950 . S
C1173 C1172 1.327 . S
C1173 C1177 1.429 . S
C1174 C1157 1.574 . S
C1174 H1168 0.949 . S
C1174 C1178 1.368 . S
C1175 C1156 1.429 . S
C1175 C1169 1.429 . S
C1175 C1176 1.523 . S
C1176 C1157 1.368 . S
C1176 C1170 1.368 . S
C1176 C1175 1.523 . S
C1177 C1161 1.429 . S
C1177 C1173 1.429 . S
C1177 C1178 1.523 . S
C1178 C1162 1.368 . S
C1178 C1174 1.368 . S
C1178 C1177 1.523 . S
H1179 C1154 0.950 . S
H1180 C1156 0.950 . S
H1181 C1157 0.949 . S
H1182 C1159 0.950 . S
H1183 C1161 0.950 . S
C1184 C1185 1.349 . S
C1184 C1186 1.327 . S
C1184 H1209 0.950 . S
C1185 C1184 1.349 . S
C1185 C1201 1.349 . S
C1186 C1184 1.327 . S
C1186 C1205 1.429 . S
C1186 H1210 0.950 . S
C1187 C1204 1.574 . S
C1187 C1206 1.368 . S
C1187 H1211 0.949 . S
H1188 C1192 0.949 . S
C1189 C1190 1.349 . S
C1189 C1191 1.327 . S
C1189 H1212 0.950 1_556 S
C1190 C1189 1.349 . S
C1190 C1202 1.349 . S
C1191 C1189 1.327 . S
C1191 C1207 1.429 . S
C1191 H1213 0.950 . S
C1192 H1188 0.949 . S
C1192 C1200 1.574 . S
C1192 C1208 1.368 . S
H1193 C1201 0.950 . S
H1194 C1199 0.950 . S
H1195 C1200 0.949 . S
H1196 C1202 0.950 . S
H1197 C1203 0.950 . S
H1198 C1204 0.949 . S
C1199 H1194 0.950 . S
C1199 C1201 1.327 . S
C1199 C1205 1.429 . S
C1200 C1192 1.574 . S
C1200 H1195 0.949 . S
C1200 C1206 1.368 . S
C1201 C1185 1.349 . S
C1201 H1193 0.950 . S
C1201 C1199 1.327 . S
C1202 C1190 1.349 . S
C1202 H1196 0.950 . S
C1202 C1203 1.327 . S
C1203 H1197 0.950 . S
C1203 C1202 1.327 . S
C1203 C1207 1.429 . S
C1204 C1187 1.574 . S
C1204 H1198 0.949 . S
C1204 C1208 1.368 . S
C1205 C1186 1.429 . S
C1205 C1199 1.429 . S
C1205 C1206 1.523 . S
C1206 C1187 1.368 . S
C1206 C1200 1.368 . S
C1206 C1205 1.523 . S
C1207 C1191 1.429 . S
C1207 C1203 1.429 . S
C1207 C1208 1.523 . S
C1208 C1192 1.368 . S
C1208 C1204 1.368 . S
C1208 C1207 1.523 . S
H1209 C1184 0.950 . S
H1210 C1186 0.950 . S
H1211 C1187 0.949 . S
H1212 C1189 0.950 1_554 S
H1213 C1191 0.950 . S
C1214 C1215 1.349 . S
C1214 C1216 1.327 . S
C1214 H1239 0.950 . S
C1215 C1214 1.349 . S
C1215 C1231 1.349 . S
C1216 C1214 1.327 . S
C1216 C1235 1.429 . S
C1216 H1240 0.950 . S
C1217 C1234 1.574 . S
C1217 C1236 1.368 . S
C1217 H1241 0.949 . S
H1218 C1222 0.949 . S
C1219 C1220 1.349 . S
C1219 C1221 1.327 . S
C1219 H1242 0.950 . S
C1220 C1219 1.349 . S
C1220 C1232 1.349 . S
C1221 C1219 1.327 . S
C1221 C1237 1.429 . S
C1221 H1243 0.950 . S
C1222 H1218 0.949 . S
C1222 C1230 1.574 . S
C1222 C1238 1.368 . S
H1223 C1231 0.950 . S
H1224 C1229 0.950 . S
H1225 C1230 0.949 . S
H1226 C1232 0.950 . S
H1227 C1233 0.950 . S
H1228 C1234 0.949 . S
C1229 H1224 0.950 . S
C1229 C1231 1.327 . S
C1229 C1235 1.429 . S
C1230 C1222 1.574 . S
C1230 H1225 0.949 . S
C1230 C1236 1.368 . S
C1231 C1215 1.349 . S
C1231 H1223 0.950 . S
C1231 C1229 1.327 . S
C1232 C1220 1.349 . S
C1232 H1226 0.950 . S
C1232 C1233 1.327 . S
C1233 H1227 0.950 . S
C1233 C1232 1.327 . S
C1233 C1237 1.429 . S
C1234 C1217 1.574 . S
C1234 H1228 0.949 . S
C1234 C1238 1.368 . S
C1235 C1216 1.429 . S
C1235 C1229 1.429 . S
C1235 C1236 1.523 . S
C1236 C1217 1.368 . S
C1236 C1230 1.368 . S
C1236 C1235 1.523 . S
C1237 C1221 1.429 . S
C1237 C1233 1.429 . S
C1237 C1238 1.523 . S
C1238 C1222 1.368 . S
C1238 C1234 1.368 . S
C1238 C1237 1.523 . S
H1239 C1214 0.950 . S
H1240 C1216 0.950 . S
H1241 C1217 0.949 . S
H1242 C1219 0.950 . S
H1243 C1221 0.950 . S
C1244 C1245 1.349 . S
C1244 C1246 1.327 . S
C1244 H1269 0.950 . S
C1245 C1244 1.349 . S
C1245 C1261 1.349 . S
C1246 C1244 1.327 . S
C1246 C1265 1.429 . S
C1246 H1270 0.950 . S
C1247 C1264 1.574 . S
C1247 C1266 1.368 . S
C1247 H1271 0.949 . S
H1248 C1252 0.949 . S
C1249 C1250 1.349 . S
C1249 C1251 1.327 . S
C1249 H1272 0.950 . S
C1250 C1249 1.349 . S
C1250 C1262 1.349 . S
C1251 C1249 1.327 . S
C1251 C1267 1.429 . S
C1251 H1273 0.950 . S
C1252 H1248 0.949 . S
C1252 C1260 1.574 . S
C1252 C1268 1.368 . S
H1253 C1261 0.950 . S
H1254 C1259 0.950 . S
H1255 C1260 0.949 . S
H1256 C1262 0.950 . S
H1257 C1263 0.950 . S
H1258 C1264 0.949 . S
C1259 H1254 0.950 . S
C1259 C1261 1.327 . S
C1259 C1265 1.429 . S
C1260 C1252 1.574 . S
C1260 H1255 0.949 . S
C1260 C1266 1.368 . S
C1261 C1245 1.349 . S
C1261 H1253 0.950 . S
C1261 C1259 1.327 . S
C1262 C1250 1.349 . S
C1262 H1256 0.950 . S
C1262 C1263 1.327 . S
C1263 H1257 0.950 . S
C1263 C1262 1.327 . S
C1263 C1267 1.429 . S
C1264 C1247 1.574 . S
C1264 H1258 0.949 . S
C1264 C1268 1.368 . S
C1265 C1246 1.429 . S
C1265 C1259 1.429 . S
C1265 C1266 1.523 . S
C1266 C1247 1.368 . S
C1266 C1260 1.368 . S
C1266 C1265 1.523 . S
C1267 C1251 1.429 . S
C1267 C1263 1.429 . S
C1267 C1268 1.523 . S
C1268 C1252 1.368 . S
C1268 C1264 1.368 . S
C1268 C1267 1.523 . S
H1269 C1244 0.950 . S
H1270 C1246 0.950 . S
H1271 C1247 0.949 . S
H1272 C1249 0.950 . S
H1273 C1251 0.950 . S
C1274 C1275 1.349 . S
C1274 C1276 1.327 . S
C1274 H1299 0.950 . S
C1275 C1274 1.349 . S
C1275 C1291 1.349 . S
C1276 C1274 1.327 . S
C1276 C1295 1.429 . S
C1276 H1300 0.950 . S
C1277 C1294 1.574 1_556 S
C1277 C1296 1.368 . S
C1277 H1301 0.949 . S
H1278 C1282 0.949 . S
C1279 C1280 1.349 . S
C1279 C1281 1.327 . S
C1279 H1302 0.950 . S
C1280 C1279 1.349 . S
C1280 C1292 1.349 . S
C1281 C1279 1.327 . S
C1281 C1297 1.429 . S
C1281 H1303 0.950 . S
C1282 H1278 0.949 . S
C1282 C1290 1.574 . S
C1282 C1298 1.368 1_556 S
H1283 C1291 0.950 . S
H1284 C1289 0.950 . S
H1285 C1290 0.949 . S
H1286 C1292 0.950 . S
H1287 C1293 0.950 . S
H1288 C1294 0.949 . S
C1289 H1284 0.950 . S
C1289 C1291 1.327 . S
C1289 C1295 1.429 . S
C1290 C1282 1.574 . S
C1290 H1285 0.949 . S
C1290 C1296 1.368 . S
C1291 C1275 1.349 . S
C1291 H1283 0.950 . S
C1291 C1289 1.327 . S
C1292 C1280 1.349 . S
C1292 H1286 0.950 . S
C1292 C1293 1.327 . S
C1293 H1287 0.950 . S
C1293 C1292 1.327 . S
C1293 C1297 1.429 . S
C1294 C1277 1.574 1_554 S
C1294 H1288 0.949 . S
C1294 C1298 1.368 . S
C1295 C1276 1.429 . S
C1295 C1289 1.429 . S
C1295 C1296 1.523 . S
C1296 C1277 1.368 . S
C1296 C1290 1.368 . S
C1296 C1295 1.523 . S
C1297 C1281 1.429 . S
C1297 C1293 1.429 . S
C1297 C1298 1.523 . S
C1298 C1282 1.368 1_554 S
C1298 C1294 1.368 . S
C1298 C1297 1.523 . S
H1299 C1274 0.950 . S
H1300 C1276 0.950 . S
H1301 C1277 0.949 . S
H1302 C1279 0.950 . S
H1303 C1281 0.950 . S
C1304 C1305 1.349 . S
C1304 C1306 1.327 . S
C1304 H1329 0.950 . S
C1305 C1304 1.349 . S
C1305 C1321 1.349 . S
C1306 C1304 1.327 . S
C1306 C1325 1.429 . S
C1306 H1330 0.950 . S
C1307 C1324 1.574 . S
C1307 C1326 1.368 . S
C1307 H1331 0.949 . S
H1308 C1312 0.949 . S
C1309 C1310 1.349 . S
C1309 C1311 1.327 . S
C1309 H1332 0.950 . S
C1310 C1309 1.349 . S
C1310 C1322 1.349 . S
C1311 C1309 1.327 . S
C1311 C1327 1.429 . S
C1311 H1333 0.950 . S
C1312 H1308 0.949 . S
C1312 C1320 1.574 . S
C1312 C1328 1.368 . S
H1313 C1321 0.950 . S
H1314 C1319 0.950 . S
H1315 C1320 0.949 . S
H1316 C1322 0.950 . S
H1317 C1323 0.950 . S
H1318 C1324 0.949 . S
C1319 H1314 0.950 . S
C1319 C1321 1.327 . S
C1319 C1325 1.429 . S
C1320 C1312 1.574 . S
C1320 H1315 0.949 . S
C1320 C1326 1.368 . S
C1321 C1305 1.349 . S
C1321 H1313 0.950 . S
C1321 C1319 1.327 . S
C1322 C1310 1.349 . S
C1322 H1316 0.950 . S
C1322 C1323 1.327 . S
C1323 H1317 0.950 . S
C1323 C1322 1.327 . S
C1323 C1327 1.429 . S
C1324 C1307 1.574 . S
C1324 H1318 0.949 . S
C1324 C1328 1.368 . S
C1325 C1306 1.429 . S
C1325 C1319 1.429 . S
C1325 C1326 1.523 . S
C1326 C1307 1.368 . S
C1326 C1320 1.368 . S
C1326 C1325 1.523 . S
C1327 C1311 1.429 . S
C1327 C1323 1.429 . S
C1327 C1328 1.523 . S
C1328 C1312 1.368 . S
C1328 C1324 1.368 . S
C1328 C1327 1.523 . S
H1329 C1304 0.950 . S
H1330 C1306 0.950 . S
H1331 C1307 0.949 . S
H1332 C1309 0.950 . S
H1333 C1311 0.950 . S
C1334 C1335 1.349 . S
C1334 C1336 1.327 . S
C1334 H1359 0.950 . S
C1335 C1334 1.349 . S
C1335 C1351 1.349 . S
C1336 C1334 1.327 . S
C1336 C1355 1.429 . S
C1336 H1360 0.950 . S
C1337 C1354 1.574 . S
C1337 C1356 1.368 . S
C1337 H1361 0.949 . S
H1338 C1342 0.949 . S
C1339 C1340 1.349 . S
C1339 C1341 1.327 . S
C1339 H1362 0.950 . S
C1340 C1339 1.349 . S
C1340 C1352 1.349 . S
C1341 C1339 1.327 . S
C1341 C1357 1.429 . S
C1341 H1363 0.950 . S
C1342 H1338 0.949 . S
C1342 C1350 1.574 . S
C1342 C1358 1.368 . S
H1343 C1351 0.950 . S
H1344 C1349 0.950 . S
H1345 C1350 0.949 . S
H1346 C1352 0.950 . S
H1347 C1353 0.950 . S
H1348 C1354 0.949 . S
C1349 H1344 0.950 . S
C1349 C1351 1.327 . S
C1349 C1355 1.429 . S
C1350 C1342 1.574 . S
C1350 H1345 0.949 . S
C1350 C1356 1.368 . S
C1351 C1335 1.349 . S
C1351 H1343 0.950 . S
C1351 C1349 1.327 . S
C1352 C1340 1.349 . S
C1352 H1346 0.950 . S
C1352 C1353 1.327 . S
C1353 H1347 0.950 . S
C1353 C1352 1.327 . S
C1353 C1357 1.429 . S
C1354 C1337 1.574 . S
C1354 H1348 0.949 . S
C1354 C1358 1.368 . S
C1355 C1336 1.429 . S
C1355 C1349 1.429 . S
C1355 C1356 1.523 . S
C1356 C1337 1.368 . S
C1356 C1350 1.368 . S
C1356 C1355 1.523 . S
C1357 C1341 1.429 . S
C1357 C1353 1.429 . S
C1357 C1358 1.523 . S
C1358 C1342 1.368 . S
C1358 C1354 1.368 . S
C1358 C1357 1.523 . S
H1359 C1334 0.950 . S
H1360 C1336 0.950 . S
H1361 C1337 0.949 . S
H1362 C1339 0.950 . S
H1363 C1341 0.950 . S
C1364 C1365 1.349 . S
C1364 C1366 1.327 . S
C1364 H1389 0.950 . S
C1365 C1364 1.349 . S
C1365 C1381 1.349 . S
C1366 C1364 1.327 . S
C1366 C1385 1.429 . S
C1366 H1390 0.950 . S
C1367 C1384 1.574 . S
C1367 C1386 1.368 . S
C1367 H1391 0.949 . S
H1368 C1372 0.949 . S
C1369 C1370 1.349 . S
C1369 C1371 1.327 . S
C1369 H1392 0.950 . S
C1370 C1369 1.349 . S
C1370 C1382 1.349 . S
C1371 C1369 1.327 . S
C1371 C1387 1.429 . S
C1371 H1393 0.950 . S
C1372 H1368 0.949 . S
C1372 C1380 1.574 . S
C1372 C1388 1.368 . S
H1373 C1381 0.950 . S
H1374 C1379 0.950 . S
H1375 C1380 0.949 . S
H1376 C1382 0.950 . S
H1377 C1383 0.950 . S
H1378 C1384 0.949 . S
C1379 H1374 0.950 . S
C1379 C1381 1.327 . S
C1379 C1385 1.429 . S
C1380 C1372 1.574 . S
C1380 H1375 0.949 . S
C1380 C1386 1.368 . S
C1381 C1365 1.349 . S
C1381 H1373 0.950 . S
C1381 C1379 1.327 . S
C1382 C1370 1.349 . S
C1382 H1376 0.950 . S
C1382 C1383 1.327 . S
C1383 H1377 0.950 . S
C1383 C1382 1.327 . S
C1383 C1387 1.429 . S
C1384 C1367 1.574 . S
C1384 H1378 0.949 . S
C1384 C1388 1.368 . S
C1385 C1366 1.429 . S
C1385 C1379 1.429 . S
C1385 C1386 1.523 . S
C1386 C1367 1.368 . S
C1386 C1380 1.368 . S
C1386 C1385 1.523 . S
C1387 C1371 1.429 . S
C1387 C1383 1.429 . S
C1387 C1388 1.523 . S
C1388 C1372 1.368 . S
C1388 C1384 1.368 . S
C1388 C1387 1.523 . S
H1389 C1364 0.950 . S
H1390 C1366 0.950 . S
H1391 C1367 0.949 . S
H1392 C1369 0.950 . S
H1393 C1371 0.950 . S
C1394 C1395 1.349 . S
C1394 C1396 1.327 . S
C1394 H1419 0.950 . S
C1395 C1394 1.349 . S
C1395 C1411 1.349 . S
C1396 C1394 1.327 . S
C1396 C1415 1.429 . S
C1396 H1420 0.950 . S
C1397 C1414 1.574 . S
C1397 C1416 1.368 . S
C1397 H1421 0.949 . S
H1398 C1402 0.949 . S
C1399 C1400 1.349 . S
C1399 C1401 1.327 . S
C1399 H1422 0.950 . S
C1400 C1399 1.349 . S
C1400 C1412 1.349 . S
C1401 C1399 1.327 . S
C1401 C1417 1.429 . S
C1401 H1423 0.950 . S
C1402 H1398 0.949 . S
C1402 C1410 1.574 . S
C1402 C1418 1.368 . S
H1403 C1411 0.950 . S
H1404 C1409 0.950 . S
H1405 C1410 0.949 . S
H1406 C1412 0.950 . S
H1407 C1413 0.950 . S
H1408 C1414 0.949 . S
C1409 H1404 0.950 . S
C1409 C1411 1.327 . S
C1409 C1415 1.429 . S
C1410 C1402 1.574 . S
C1410 H1405 0.949 . S
C1410 C1416 1.368 . S
C1411 C1395 1.349 . S
C1411 H1403 0.950 . S
C1411 C1409 1.327 . S
C1412 C1400 1.349 . S
C1412 H1406 0.950 . S
C1412 C1413 1.327 . S
C1413 H1407 0.950 . S
C1413 C1412 1.327 . S
C1413 C1417 1.429 . S
C1414 C1397 1.574 . S
C1414 H1408 0.949 . S
C1414 C1418 1.368 . S
C1415 C1396 1.429 . S
C1415 C1409 1.429 . S
C1415 C1416 1.523 . S
C1416 C1397 1.368 . S
C1416 C1410 1.368 . S
C1416 C1415 1.523 . S
C1417 C1401 1.429 . S
C1417 C1413 1.429 . S
C1417 C1418 1.523 . S
C1418 C1402 1.368 . S
C1418 C1414 1.368 . S
C1418 C1417 1.523 . S
H1419 C1394 0.950 . S
H1420 C1396 0.950 . S
H1421 C1397 0.949 . S
H1422 C1399 0.950 . S
H1423 C1401 0.950 . S
C1424 C1425 1.349 . S
C1424 C1426 1.327 . S
C1424 H1449 0.950 . S
C1425 C1424 1.349 . S
C1425 C1441 1.349 . S
C1426 C1424 1.327 . S
C1426 C1445 1.429 . S
C1426 H1450 0.950 . S
C1427 C1444 1.574 . S
C1427 C1446 1.368 . S
C1427 H1451 0.949 . S
H1428 C1432 0.949 . S
C1429 C1430 1.349 . S
C1429 C1431 1.327 . S
C1429 H1452 0.950 . S
C1430 C1429 1.349 . S
C1430 C1442 1.349 . S
C1431 C1429 1.327 . S
C1431 C1447 1.429 . S
C1431 H1453 0.950 . S
C1432 H1428 0.949 . S
C1432 C1440 1.574 . S
C1432 C1448 1.368 . S
H1433 C1441 0.950 . S
H1434 C1439 0.950 . S
H1435 C1440 0.949 . S
H1436 C1442 0.950 . S
H1437 C1443 0.950 . S
H1438 C1444 0.949 . S
C1439 H1434 0.950 . S
C1439 C1441 1.327 . S
C1439 C1445 1.429 . S
C1440 C1432 1.574 . S
C1440 H1435 0.949 . S
C1440 C1446 1.368 . S
C1441 C1425 1.349 . S
C1441 H1433 0.950 . S
C1441 C1439 1.327 . S
C1442 C1430 1.349 . S
C1442 H1436 0.950 . S
C1442 C1443 1.327 . S
C1443 H1437 0.950 . S
C1443 C1442 1.327 . S
C1443 C1447 1.429 . S
C1444 C1427 1.574 . S
C1444 H1438 0.949 . S
C1444 C1448 1.368 . S
C1445 C1426 1.429 . S
C1445 C1439 1.429 . S
C1445 C1446 1.523 . S
C1446 C1427 1.368 . S
C1446 C1440 1.368 . S
C1446 C1445 1.523 . S
C1447 C1431 1.429 . S
C1447 C1443 1.429 . S
C1447 C1448 1.523 . S
C1448 C1432 1.368 . S
C1448 C1444 1.368 . S
C1448 C1447 1.523 . S
H1449 C1424 0.950 . S
H1450 C1426 0.950 . S
H1451 C1427 0.949 . S
H1452 C1429 0.950 . S
H1453 C1431 0.950 . S
C1454 C1455 1.349 . S
C1454 C1456 1.327 . S
C1454 H1479 0.950 . S
C1455 C1454 1.349 . S
C1455 C1471 1.349 . S
C1456 C1454 1.327 . S
C1456 C1475 1.429 . S
C1456 H1480 0.950 . S
C1457 C1474 1.574 . S
C1457 C1476 1.368 . S
C1457 H1481 0.949 . S
H1458 C1462 0.949 . S
C1459 C1460 1.349 . S
C1459 C1461 1.327 . S
C1459 H1482 0.950 . S
C1460 C1459 1.349 . S
C1460 C1472 1.349 . S
C1461 C1459 1.327 . S
C1461 C1477 1.429 . S
C1461 H1483 0.950 . S
C1462 H1458 0.949 . S
C1462 C1470 1.574 . S
C1462 C1478 1.368 . S
H1463 C1471 0.950 . S
H1464 C1469 0.950 . S
H1465 C1470 0.949 . S
H1466 C1472 0.950 . S
H1467 C1473 0.950 . S
H1468 C1474 0.949 . S
C1469 H1464 0.950 . S
C1469 C1471 1.327 . S
C1469 C1475 1.429 . S
C1470 C1462 1.574 . S
C1470 H1465 0.949 . S
C1470 C1476 1.368 . S
C1471 C1455 1.349 . S
C1471 H1463 0.950 . S
C1471 C1469 1.327 . S
C1472 C1460 1.349 . S
C1472 H1466 0.950 . S
C1472 C1473 1.327 . S
C1473 H1467 0.950 . S
C1473 C1472 1.327 . S
C1473 C1477 1.429 . S
C1474 C1457 1.574 . S
C1474 H1468 0.949 . S
C1474 C1478 1.368 . S
C1475 C1456 1.429 . S
C1475 C1469 1.429 . S
C1475 C1476 1.523 . S
C1476 C1457 1.368 . S
C1476 C1470 1.368 . S
C1476 C1475 1.523 . S
C1477 C1461 1.429 . S
C1477 C1473 1.429 . S
C1477 C1478 1.523 . S
C1478 C1462 1.368 . S
C1478 C1474 1.368 . S
C1478 C1477 1.523 . S
H1479 C1454 0.950 . S
H1480 C1456 0.950 . S
H1481 C1457 0.949 . S
H1482 C1459 0.950 . S
H1483 C1461 0.950 . S
C1484 C1485 1.349 . S
C1484 C1486 1.327 . S
C1484 H1509 0.950 . S
C1485 C1484 1.349 . S
C1485 C1501 1.349 . S
C1486 C1484 1.327 . S
C1486 C1505 1.429 . S
C1486 H1510 0.950 . S
C1487 C1504 1.574 . S
C1487 C1506 1.368 . S
C1487 H1511 0.949 . S
H1488 C1492 0.949 . S
C1489 C1490 1.349 . S
C1489 C1491 1.327 . S
C1489 H1512 0.950 . S
C1490 C1489 1.349 . S
C1490 C1502 1.349 . S
C1491 C1489 1.327 . S
C1491 C1507 1.429 . S
C1491 H1513 0.950 . S
C1492 H1488 0.949 . S
C1492 C1500 1.574 . S
C1492 C1508 1.368 . S
H1493 C1501 0.950 . S
H1494 C1499 0.950 . S
H1495 C1500 0.949 . S
H1496 C1502 0.950 . S
H1497 C1503 0.950 . S
H1498 C1504 0.949 . S
C1499 H1494 0.950 . S
C1499 C1501 1.327 . S
C1499 C1505 1.429 . S
C1500 C1492 1.574 . S
C1500 H1495 0.949 . S
C1500 C1506 1.368 . S
C1501 C1485 1.349 . S
C1501 H1493 0.950 . S
C1501 C1499 1.327 . S
C1502 C1490 1.349 . S
C1502 H1496 0.950 . S
C1502 C1503 1.327 . S
C1503 H1497 0.950 . S
C1503 C1502 1.327 . S
C1503 C1507 1.429 . S
C1504 C1487 1.574 . S
C1504 H1498 0.949 . S
C1504 C1508 1.368 . S
C1505 C1486 1.429 . S
C1505 C1499 1.429 . S
C1505 C1506 1.523 . S
C1506 C1487 1.368 . S
C1506 C1500 1.368 . S
C1506 C1505 1.523 . S
C1507 C1491 1.429 . S
C1507 C1503 1.429 . S
C1507 C1508 1.523 . S
C1508 C1492 1.368 . S
C1508 C1504 1.368 . S
C1508 C1507 1.523 . S
H1509 C1484 0.950 . S
H1510 C1486 0.950 . S
H1511 C1487 0.949 . S
H1512 C1489 0.950 . S
H1513 C1491 0.950 . S
C1514 C1515 1.349 . S
C1514 C1516 1.327 . S
C1514 H1539 0.950 . S
C1515 C1514 1.349 . S
C1515 C1531 1.349 . S
C1516 C1514 1.327 . S
C1516 C1535 1.429 . S
C1516 H1540 0.950 . S
C1517 C1534 1.574 . S
C1517 C1536 1.368 . S
C1517 H1541 0.949 . S
H1518 C1522 0.949 . S
C1519 C1520 1.349 . S
C1519 C1521 1.327 . S
C1519 H1542 0.950 . S
C1520 C1519 1.349 . S
C1520 C1532 1.349 . S
C1521 C1519 1.327 . S
C1521 C1537 1.429 . S
C1521 H1543 0.950 . S
C1522 H1518 0.949 . S
C1522 C1530 1.574 . S
C1522 C1538 1.368 . S
H1523 C1531 0.950 . S
H1524 C1529 0.950 . S
H1525 C1530 0.949 . S
H1526 C1532 0.950 . S
H1527 C1533 0.950 . S
H1528 C1534 0.949 . S
C1529 H1524 0.950 . S
C1529 C1531 1.327 . S
C1529 C1535 1.429 . S
C1530 C1522 1.574 . S
C1530 H1525 0.949 . S
C1530 C1536 1.368 . S
C1531 C1515 1.349 . S
C1531 H1523 0.950 . S
C1531 C1529 1.327 . S
C1532 C1520 1.349 . S
C1532 H1526 0.950 . S
C1532 C1533 1.327 . S
C1533 H1527 0.950 . S
C1533 C1532 1.327 . S
C1533 C1537 1.429 . S
C1534 C1517 1.574 . S
C1534 H1528 0.949 . S
C1534 C1538 1.368 . S
C1535 C1516 1.429 . S
C1535 C1529 1.429 . S
C1535 C1536 1.523 . S
C1536 C1517 1.368 . S
C1536 C1530 1.368 . S
C1536 C1535 1.523 . S
C1537 C1521 1.429 . S
C1537 C1533 1.429 . S
C1537 C1538 1.523 . S
C1538 C1522 1.368 . S
C1538 C1534 1.368 . S
C1538 C1537 1.523 . S
H1539 C1514 0.950 . S
H1540 C1516 0.950 . S
H1541 C1517 0.949 . S
H1542 C1519 0.950 . S
H1543 C1521 0.950 . S
C1544 C1545 1.349 . S
C1544 C1546 1.327 . S
C1544 H1569 0.950 . S
C1545 C1544 1.349 . S
C1545 C1561 1.349 . S
C1546 C1544 1.327 . S
C1546 C1565 1.429 . S
C1546 H1570 0.950 . S
C1547 C1564 1.574 . S
C1547 C1566 1.368 . S
C1547 H1571 0.949 . S
H1548 C1552 0.949 . S
C1549 C1550 1.349 . S
C1549 C1551 1.327 . S
C1549 H1572 0.950 . S
C1550 C1549 1.349 . S
C1550 C1562 1.349 . S
C1551 C1549 1.327 . S
C1551 C1567 1.429 . S
C1551 H1573 0.950 . S
C1552 H1548 0.949 . S
C1552 C1560 1.574 . S
C1552 C1568 1.368 . S
H1553 C1561 0.950 . S
H1554 C1559 0.950 . S
H1555 C1560 0.949 . S
H1556 C1562 0.950 . S
H1557 C1563 0.950 . S
H1558 C1564 0.949 . S
C1559 H1554 0.950 . S
C1559 C1561 1.327 . S
C1559 C1565 1.429 . S
C1560 C1552 1.574 . S
C1560 H1555 0.949 . S
C1560 C1566 1.368 . S
C1561 C1545 1.349 . S
C1561 H1553 0.950 . S
C1561 C1559 1.327 . S
C1562 C1550 1.349 . S
C1562 H1556 0.950 . S
C1562 C1563 1.327 . S
C1563 H1557 0.950 . S
C1563 C1562 1.327 . S
C1563 C1567 1.429 . S
C1564 C1547 1.574 . S
C1564 H1558 0.949 . S
C1564 C1568 1.368 . S
C1565 C1546 1.429 . S
C1565 C1559 1.429 . S
C1565 C1566 1.523 . S
C1566 C1547 1.368 . S
C1566 C1560 1.368 . S
C1566 C1565 1.523 . S
C1567 C1551 1.429 . S
C1567 C1563 1.429 . S
C1567 C1568 1.523 . S
C1568 C1552 1.368 . S
C1568 C1564 1.368 . S
C1568 C1567 1.523 . S
H1569 C1544 0.950 . S
H1570 C1546 0.950 . S
H1571 C1547 0.949 . S
H1572 C1549 0.950 . S
H1573 C1551 0.950 . S
C1574 C1575 1.349 . S
C1574 C1576 1.327 . S
C1574 H1599 0.950 . S
C1575 C1574 1.349 . S
C1575 C1591 1.349 . S
C1576 C1574 1.327 . S
C1576 C1595 1.429 . S
C1576 H1600 0.950 . S
C1577 C1594 1.574 . S
C1577 C1596 1.368 . S
C1577 H1601 0.949 . S
H1578 C1582 0.949 . S
C1579 C1580 1.349 . S
C1579 C1581 1.327 . S
C1579 H1602 0.950 . S
C1580 C1579 1.349 . S
C1580 C1592 1.349 . S
C1581 C1579 1.327 . S
C1581 C1597 1.429 . S
C1581 H1603 0.950 . S
C1582 H1578 0.949 . S
C1582 C1590 1.574 . S
C1582 C1598 1.368 . S
H1583 C1591 0.950 . S
H1584 C1589 0.950 . S
H1585 C1590 0.949 . S
H1586 C1592 0.950 . S
H1587 C1593 0.950 . S
H1588 C1594 0.949 . S
C1589 H1584 0.950 . S
C1589 C1591 1.327 . S
C1589 C1595 1.429 . S
C1590 C1582 1.574 . S
C1590 H1585 0.949 . S
C1590 C1596 1.368 . S
C1591 C1575 1.349 . S
C1591 H1583 0.950 . S
C1591 C1589 1.327 . S
C1592 C1580 1.349 . S
C1592 H1586 0.950 . S
C1592 C1593 1.327 . S
C1593 H1587 0.950 . S
C1593 C1592 1.327 . S
C1593 C1597 1.429 . S
C1594 C1577 1.574 . S
C1594 H1588 0.949 . S
C1594 C1598 1.368 . S
C1595 C1576 1.429 . S
C1595 C1589 1.429 . S
C1595 C1596 1.523 . S
C1596 C1577 1.368 . S
C1596 C1590 1.368 . S
C1596 C1595 1.523 . S
C1597 C1581 1.429 . S
C1597 C1593 1.429 . S
C1597 C1598 1.523 . S
C1598 C1582 1.368 . S
C1598 C1594 1.368 . S
C1598 C1597 1.523 . S
H1599 C1574 0.950 . S
H1600 C1576 0.950 . S
H1601 C1577 0.949 . S
H1602 C1579 0.950 . S
H1603 C1581 0.950 . S
C1604 C1605 1.349 . S
C1604 C1606 1.327 . S
C1604 H1629 0.950 . S
C1605 C1604 1.349 . S
C1605 C1621 1.349 . S
C1606 C1604 1.327 . S
C1606 C1625 1.429 . S
C1606 H1630 0.950 . S
C1607 C1624 1.574 . S
C1607 C1626 1.368 . S
C1607 H1631 0.949 . S
H1608 C1612 0.949 . S
C1609 C1610 1.349 . S
C1609 C1611 1.327 . S
C1609 H1632 0.950 . S
C1610 C1609 1.349 . S
C1610 C1622 1.349 . S
C1611 C1609 1.327 . S
C1611 C1627 1.429 . S
C1611 H1633 0.950 . S
C1612 H1608 0.949 . S
C1612 C1620 1.574 . S
C1612 C1628 1.368 . S
H1613 C1621 0.950 . S
H1614 C1619 0.950 . S
H1615 C1620 0.949 . S
H1616 C1622 0.950 . S
H1617 C1623 0.950 . S
H1618 C1624 0.949 . S
C1619 H1614 0.950 . S
C1619 C1621 1.327 . S
C1619 C1625 1.429 . S
C1620 C1612 1.574 . S
C1620 H1615 0.949 . S
C1620 C1626 1.368 . S
C1621 C1605 1.349 . S
C1621 H1613 0.950 . S
C1621 C1619 1.327 . S
C1622 C1610 1.349 . S
C1622 H1616 0.950 . S
C1622 C1623 1.327 . S
C1623 H1617 0.950 . S
C1623 C1622 1.327 . S
C1623 C1627 1.429 . S
C1624 C1607 1.574 . S
C1624 H1618 0.949 . S
C1624 C1628 1.368 . S
C1625 C1606 1.429 . S
C1625 C1619 1.429 . S
C1625 C1626 1.523 . S
C1626 C1607 1.368 . S
C1626 C1620 1.368 . S
C1626 C1625 1.523 . S
C1627 C1611 1.429 . S
C1627 C1623 1.429 . S
C1627 C1628 1.523 . S
C1628 C1612 1.368 . S
C1628 C1624 1.368 . S
C1628 C1627 1.523 . S
H1629 C1604 0.950 . S
H1630 C1606 0.950 . S
H1631 C1607 0.949 . S
H1632 C1609 0.950 . S
H1633 C1611 0.950 . S
C1634 C1635 1.349 . S
C1634 C1636 1.327 . S
C1634 H1659 0.950 . S
C1635 C1634 1.349 . S
C1635 C1651 1.349 . S
C1636 C1634 1.327 . S
C1636 C1655 1.429 . S
C1636 H1660 0.950 . S
C1637 C1654 1.574 1_556 S
C1637 C1656 1.368 . S
C1637 H1661 0.949 . S
H1638 C1642 0.949 . S
C1639 C1640 1.349 . S
C1639 C1641 1.327 . S
C1639 H1662 0.950 . S
C1640 C1639 1.349 . S
C1640 C1652 1.349 . S
C1641 C1639 1.327 . S
C1641 C1657 1.429 . S
C1641 H1663 0.950 . S
C1642 H1638 0.949 . S
C1642 C1650 1.574 . S
C1642 C1658 1.368 1_556 S
H1643 C1651 0.950 . S
H1644 C1649 0.950 . S
H1645 C1650 0.949 . S
H1646 C1652 0.950 . S
H1647 C1653 0.950 . S
H1648 C1654 0.949 . S
C1649 H1644 0.950 . S
C1649 C1651 1.327 . S
C1649 C1655 1.429 . S
C1650 C1642 1.574 . S
C1650 H1645 0.949 . S
C1650 C1656 1.368 . S
C1651 C1635 1.349 . S
C1651 H1643 0.950 . S
C1651 C1649 1.327 . S
C1652 C1640 1.349 . S
C1652 H1646 0.950 . S
C1652 C1653 1.327 . S
C1653 H1647 0.950 . S
C1653 C1652 1.327 . S
C1653 C1657 1.429 . S
C1654 C1637 1.574 1_554 S
C1654 H1648 0.949 . S
C1654 C1658 1.368 . S
C1655 C1636 1.429 . S
C1655 C1649 1.429 . S
C1655 C1656 1.523 . S
C1656 C1637 1.368 . S
C1656 C1650 1.368 . S
C1656 C1655 1.523 . S
C1657 C1641 1.429 . S
C1657 C1653 1.429 . S
C1657 C1658 1.523 . S
C1658 C1642 1.368 1_554 S
C1658 C1654 1.368 . S
C1658 C1657 1.523 . S
H1659 C1634 0.950 . S
H1660 C1636 0.950 . S
H1661 C1637 0.949 . S
H1662 C1639 0.950 . S
H1663 C1641 0.950 . S
C710 C593 1.660 . S
C705 C39 1.625 . S
C740 C619 1.665 . S
C735 C125 1.660 . S
C770 C633 2.261 1_655 S
C765 C217 2.196 . S
C800 C635 1.923 . S
C795 C261 1.841 . S
C825 C359 1.457 . S
C830 C632 1.475 . S
C860 C634 1.445 . S
C855 C433 1.359 . S
C890 C592 1.506 . S
C885 C495 1.527 . S
C920 C618 1.700 . S
C915 C587 1.710 . S
C950 C620 1.763 1_655 S
C945 C557 1.762 . S
C980 C646 1.072 . S
C975 C347 1.078 . S
C1010 C604 1.038 . S
C1005 C421 1.039 . S
C1040 C606 1.653 . S
C1035 C507 1.625 . S
C1070 C605 1.498 . S
C1065 C137 1.493 . S
C1100 C607 1.553 . S
C1095 C187 1.525 . S
C1130 C621 2.689 . S
C1125 C291 2.650 . S
C1160 C647 2.157 . S
C1155 C69 2.164 . S
C1190 C649 1.450 . S
C1185 C581 1.453 . S
C1215 C365 2.122 . S
C1220 C675 2.102 . S
C1245 C439 2.557 . S
C1250 C688 2.547 . S
C1275 C483 1.489 . S
C1280 C691 1.511 . S
C1305 C113 1.777 . S
C1310 C689 1.792 . S
C1335 C211 1.633 . S
C1340 C690 1.671 . S
C1365 C273 1.219 . S
C1370 C648 1.251 . S
C1400 C674 1.105 . S
C1395 C51 1.104 . S
C1430 C677 1.551 . S
C1425 C63 1.516 . S
C1455 C143 1.745 . S
C1460 C702 1.740 . S
C1485 C199 1.730 . S
C1490 C660 1.738 . S
C1515 C285 1.337 . S
C1520 C662 1.404 . S
C1550 C661 1.604 . S
C1545 C335 1.588 . S
C1580 C663 1.967 . S
C1575 C409 1.874 . S
C1605 C513 2.078 . S
C1610 C676 2.078 1_556 S
C1640 C703 1.646 . S
C1635 C569 1.651 . S
