# Generated by pormake.
# Topology pyr, (3,6)-cn, num edge types: 1
# Building blocks:
#     Node 0, Type 0, BuildingBlock: CUQRIR_clean_linker_1, # of connection points: 3
#     Node 1, Type 0, BuildingBlock: CUQRIR_clean_linker_1, # of connection points: 3
#     Node 2, Type 0, BuildingBlock: CUQRIR_clean_linker_1, # of connection points: 3
#     Node 3, Type 0, BuildingBlock: CUQRIR_clean_linker_1, # of connection points: 3
#     Node 4, Type 0, BuildingBlock: CUQRIR_clean_linker_1, # of connection points: 3
#     Node 5, Type 0, BuildingBlock: CUQRIR_clean_linker_1, # of connection points: 3
#     Node 6, Type 0, BuildingBlock: CUQRIR_clean_linker_1, # of connection points: 3
#     Node 7, Type 0, BuildingBlock: CUQRIR_clean_linker_1, # of connection points: 3
#     Node 8, Type 1, BuildingBlock: BETGAK_clean_sbu_0, # of connection points: 6
#     Node 9, Type 1, BuildingBlock: BETGAK_clean_sbu_0, # of connection points: 6
#     Node 10, Type 1, BuildingBlock: BETGAK_clean_sbu_0, # of connection points: 6
#     Node 11, Type 1, BuildingBlock: BETGAK_clean_sbu_0, # of connection points: 6
#     Edge 12, Type (0, 1), None
#     Edge 13, Type (0, 1), None
#     Edge 14, Type (0, 1), None
#     Edge 15, Type (0, 1), None
#     Edge 16, Type (0, 1), None
#     Edge 17, Type (0, 1), None
#     Edge 18, Type (0, 1), None
#     Edge 19, Type (0, 1), None
#     Edge 20, Type (0, 1), None
#     Edge 21, Type (0, 1), None
#     Edge 22, Type (0, 1), None
#     Edge 23, Type (0, 1), None
#     Edge 24, Type (0, 1), None
#     Edge 25, Type (0, 1), None
#     Edge 26, Type (0, 1), None
#     Edge 27, Type (0, 1), None
#     Edge 28, Type (0, 1), None
#     Edge 29, Type (0, 1), None
#     Edge 30, Type (0, 1), None
#     Edge 31, Type (0, 1), None
#     Edge 32, Type (0, 1), None
#     Edge 33, Type (0, 1), None
#     Edge 34, Type (0, 1), None
#     Edge 35, Type (0, 1), None
# Relax obj value: 0.636
# Max RMSD: 0.309
# Mean RMSD: 0.203
data_MOF--net-pyr--node1-BETGAK_clean_sbu_0--node2-CUQRIR_clean_linker_1--edge1-none
_symmetry_space_group_name_H-M    P1
_symmetry_Int_Tables_number       1
_symmetry_cell_setting            triclinic
loop_
_symmetry_equiv_pos_as_xyz
'x, y, z'
_cell_length_a     15.022527
_cell_length_b     15.789354
_cell_length_c     14.046295
_cell_angle_alpha  88.677264
_cell_angle_beta   87.816398
_cell_angle_gamma 112.36795
loop_
_atom_site_label
_atom_site_type_symbol
_atom_site_fract_x
_atom_site_fract_y
_atom_site_fract_z
_atom_type_partial_charge
C0 C 0.44789 0.5251 0.40894 0.0
N1 N 0.50636 0.47623 0.40968 0.0
N2 N 0.40598 0.52152 0.32604 0.0
C3 C 0.47246 0.61369 0.45578 0.0
C4 C 0.45972 0.49153 0.26842 0.0
N5 N 0.52174 0.46466 0.31794 0.0
C6 C 0.46833 0.50826 0.16336 0.0
H7 H 0.44704 0.60101 0.53079 0.0
H8 H 0.43682 0.65621 0.42357 0.0
H9 H 0.5497 0.65436 0.4407 0.0
H10 H 0.46209 0.57433 0.14453 0.0
H11 H 0.41123 0.45138 1.12977 0.0
H12 H 0.54055 0.51438 0.13824 0.0
C13 C 0.21866 1.03282 0.64668 0.0
N14 N 0.21399 1.0911 0.71394 0.0
N15 N 0.21032 0.95418 0.68961 0.0
C16 C 0.26915 1.06108 0.54829 0.0
C17 C 0.16664 0.95594 0.77418 0.0
N18 N 0.17946 1.04285 0.79588 0.0
C19 C 0.12697 0.87266 0.84074 0.0
H20 H 0.28428 1.00382 0.51658 0.0
H21 H 0.33805 1.12093 0.55308 0.0
H22 H 0.2238 1.08029 0.49883 0.0
H23 H 0.05231 0.83071 0.82228 0.0
H24 H 0.12608 0.89214 0.91436 0.0
H25 H 0.16969 0.82907 0.8346 0.0
C26 C 0.63472 0.51798 0.9781 0.0
N27 N 0.69853 0.51352 1.04682 0.0
N28 N 0.66165 0.60252 0.92773 0.0
C29 C 0.54214 0.43858 0.96178 0.0
C30 C 0.75115 0.64609 0.96522 0.0
N31 N 0.77173 0.59756 1.04116 0.0
C32 C 0.8277 0.72641 0.91445 0.0
H33 H 0.55866 0.38498 0.92438 0.0
H34 H 0.492 0.45943 0.92026 0.0
H35 H 0.50552 0.40557 1.02984 0.0
H36 H 0.84793 0.78359 0.96315 0.0
H37 H 0.80482 0.74572 0.84629 0.0
H38 H 0.89242 0.71036 0.89884 0.0
C39 C 0.85421 0.83597 0.44936 0.0
N40 N 0.95259 0.88651 0.42697 0.0
N41 N 0.82547 0.85075 0.53932 0.0
C42 C 0.78863 0.76013 0.39195 0.0
C43 C 0.90877 0.90704 0.57274 0.0
N44 N 0.97943 0.94633 0.50427 0.0
C45 C 0.93346 0.89443 0.67207 0.0
H46 H 0.79776 0.7804 0.31589 0.0
H47 H 0.71215 0.74241 0.41342 0.0
H48 H 0.80486 0.69772 0.4027 0.0
H49 H 0.90566 0.8206 0.69427 0.0
H50 H 0.89731 0.92803 0.71604 0.0
H51 H 1.01189 0.9251 0.67975 0.0
C52 C 0.66436 1.01534 0.14102 0.0
N53 N 0.68626 0.95376 1.094 0.0
N54 N 0.59704 1.03547 1.09762 0.0
C55 C 0.7126 1.05646 0.22822 0.0
C56 C 0.56644 0.97198 1.03245 0.0
N57 N 0.63094 0.93176 1.01903 0.0
C58 C 0.48348 0.96199 0.97157 0.0
H59 H 0.705 1.00001 0.28049 0.0
H60 H 0.6824 1.1028 0.25978 0.0
H61 H 0.79029 1.09465 0.21047 0.0
H62 H 0.49652 1.02673 0.93055 0.0
H63 H 0.41782 0.94744 1.01803 0.0
H64 H 0.46949 0.90457 0.92476 0.0
C65 C 0.83894 0.35697 0.73214 0.0
N66 N 0.85894 0.304 0.66801 0.0
N67 N 0.82404 0.42549 0.68682 0.0
C68 C 0.83211 0.34142 0.83877 0.0
C69 C 0.82733 0.40837 0.59305 0.0
N70 N 0.84907 0.33432 0.58261 0.0
C71 C 0.79908 0.45742 0.51335 0.0
H72 H 0.78652 0.26898 0.85846 0.0
H73 H 0.80481 0.38778 0.8773 0.0
H74 H 0.90421 0.35465 0.86281 0.0
H75 H 0.8515 0.52933 0.50499 0.0
H76 H 0.72665 0.45813 0.53046 0.0
H77 H 0.79732 0.42476 0.44443 0.0
C78 C 0.35041 0.83451 0.41629 0.0
N79 N 0.44224 0.89724 0.43733 0.0
N80 N 0.3096 0.86307 0.34237 0.0
C81 C 0.29286 0.74814 0.47348 0.0
C82 C 0.37675 0.94655 0.31807 0.0
N83 N 0.45586 0.9745 0.37475 0.0
C84 C 0.37842 0.98532 0.22021 0.0
H85 H 0.30967 0.69262 0.44301 0.0
H86 H 0.21442 0.73119 0.46939 0.0
H87 H 0.30816 0.75155 0.54938 0.0
H88 H 0.36394 1.04898 0.22304 0.0
H89 H 0.33031 0.93843 0.17049 0.0
H90 H 0.44864 0.99409 0.18946 0.0
C91 C 0.13358 0.51883 0.90813 0.0
N92 N 0.19701 0.51428 0.83143 0.0
N93 N 0.16033 0.60327 0.95503 0.0
C94 C 0.05873 0.43557 0.95728 0.0
C95 C 0.25028 0.64691 0.90854 0.0
N96 N 0.27198 0.59836 0.83326 0.0
C97 C 0.31794 0.7395 0.9364 0.0
H98 H 0.99147 0.44772 0.97115 0.0
H99 H 0.08416 0.42612 1.0284 0.0
H100 H 1.04546 0.37182 0.91977 0.0
H101 H 0.39015 0.73859 0.94766 0.0
H102 H 0.29406 0.7621 1.00288 0.0
H103 H 0.32351 0.7904 0.87913 0.0
La104 La 0.10082 0.24525 0.64043 0.0
La105 La 0.05482 0.20532 0.70988 0.0
C106 C 0.19207 0.34082 0.50353 0.0
C107 C 0.29385 0.35559 0.49848 0.0
C108 C 0.32883 0.3018 0.44018 0.0
C109 C 0.42537 0.31332 0.44817 0.0
C110 C 0.48619 0.39919 0.47977 0.0
C111 C 0.44788 0.40867 0.56845 0.0
C112 C 0.35186 0.39897 0.57411 0.0
C113 C 0.23045 0.17954 0.69333 0.0
C114 C 0.19224 0.44051 0.76543 0.0
C115 C 0.96287 1.08562 0.83691 0.0
C116 C 0.86051 1.02811 0.84348 0.0
C117 C 0.79154 1.0662 0.83187 0.0
C118 C 0.70211 1.02432 0.87612 0.0
C119 C 0.67861 0.94049 0.9274 0.0
C120 C 0.73648 0.8904 0.91214 0.0
C121 C 0.83096 0.93727 0.87625 0.0
C122 C 0.91352 0.25583 0.68377 0.0
C123 C 1.03557 1.04516 0.51792 0.0
O124 O 0.13476 0.25683 0.49266 0.0
O125 O 0.16374 0.3773 0.57481 0.0
O126 O 0.2121 0.19512 0.60873 0.0
O127 O 0.19297 0.22099 0.74411 0.0
O128 O 0.12306 0.35443 0.76388 0.0
O129 O 0.11965 0.355 0.76953 0.0
O130 O 0.98447 0.17235 0.84578 0.0
O131 O 1.0137 1.07061 0.76863 0.0
O132 O 0.95104 0.25653 0.7635 0.0
O133 O 0.9574 0.2314 0.61911 0.0
O134 O 1.01357 1.0891 0.59443 0.0
O135 O 1.01767 1.09195 0.59308 0.0
H136 H 0.28198 0.2483 0.39744 0.0
H137 H 0.45345 0.2655 0.41798 0.0
H138 H 0.47736 0.39362 0.63162 0.0
H139 H 0.32195 0.41355 0.63989 0.0
H140 H 0.80807 1.13348 0.80268 0.0
H141 H 0.65814 1.06471 0.88161 0.0
H142 H 0.71711 0.825 0.94972 0.0
H143 H 0.8848 0.90822 0.88239 0.0
La144 La 0.64117 0.26005 0.23376 0.0
La145 La 0.52055 0.24059 0.17656 0.0
C146 C 0.80952 0.28419 0.27795 0.0
C147 C 0.87431 0.24358 0.31769 0.0
C148 C 0.83142 0.17584 0.39029 0.0
C149 C 0.81853 0.20529 0.47986 0.0
C150 C 0.86785 0.29813 0.49669 0.0
C151 C 0.94387 0.35173 0.43402 0.0
C152 C 0.95363 0.31804 0.34469 0.0
C153 C 0.53005 1.06845 0.35898 0.0
C154 C 0.54267 0.39334 0.28756 0.0
C155 C 0.36603 0.22402 1.10107 0.0
C156 C 0.28538 0.15515 1.05862 0.0
C157 C 0.22058 0.18488 1.01401 0.0
C158 C 0.18048 1.14489 0.93041 0.0
C159 C 0.20671 1.07676 0.88953 0.0
C160 C 0.26531 1.04285 0.94083 0.0
C161 C 0.29875 1.07766 1.02706 0.0
C162 C 0.67983 0.44389 1.1205 0.0
C163 C 0.59543 1.11957 1.08873 0.0
O164 O 0.7444 0.29539 0.33548 0.0
O165 O 0.77851 0.26122 0.19392 0.0
O166 O 0.52464 1.12884 0.29354 0.0
O167 O 0.52642 1.13186 0.29167 0.0
O168 O 0.62259 0.38033 0.30177 0.0
O169 O 0.47494 0.32713 0.25308 0.0
O170 O 0.44736 0.23711 1.0551 0.0
O171 O 0.37298 0.22168 0.19346 0.0
O172 O 0.64573 0.35502 1.10258 0.0
O173 O 0.6424 0.35471 1.10856 0.0
O174 O 0.51383 1.12646 1.09815 0.0
O175 O 0.6683 0.18939 1.11448 0.0
H176 H 0.80141 1.1039 0.37789 0.0
H177 H 0.77158 0.15782 0.53421 0.0
H178 H 0.98871 0.41924 0.45343 0.0
H179 H 1.00388 0.36198 0.29045 0.0
H180 H 0.2091 0.24505 1.03752 0.0
H181 H 0.13356 0.17155 0.8975 0.0
H182 H 0.28991 0.99205 0.9123 0.0
H183 H 0.34946 1.05457 1.05855 0.0
La184 La 0.53574 0.70982 0.67243 0.0
La185 La 0.56656 0.77525 0.6932 0.0
C186 C 0.57604 0.57518 0.634 0.0
C187 C 0.6485 0.55066 0.67816 0.0
C188 C 0.62047 0.47324 0.73918 0.0
C189 C 0.68815 0.43926 0.76455 0.0
C190 C 0.7825 0.483 0.72733 0.0
C191 C 0.81503 0.57263 0.69032 0.0
C192 C 0.7471 0.60516 0.66107 0.0
C193 C 0.35989 0.63409 0.77351 0.0
C194 C 0.60493 0.6273 0.85751 0.0
C195 C 0.56036 0.9206 0.74794 0.0
C196 C 0.4743 0.93498 0.73096 0.0
C197 C 0.47026 1.02021 0.73726 0.0
C198 C 0.38308 1.02707 0.72381 0.0
C199 C 0.3015 0.9488 0.6988 0.0
C200 C 0.30743 0.86527 0.69133 0.0
C201 C 0.39298 0.85863 0.70856 0.0
C202 C 0.73752 0.82007 0.59289 0.0
C203 C 0.50369 0.87608 0.50819 0.0
O204 O 0.49929 0.56675 0.68518 0.0
O205 O 0.60932 0.65074 0.58489 0.0
O206 O 0.37414 0.61784 0.68439 0.0
O207 O 0.44029 0.6963 0.79525 0.0
O208 O 0.62897 0.70624 0.80394 0.0
O209 O 0.63384 0.70861 0.80655 0.0
O210 O 0.6106 0.9192 0.67221 0.0
O211 O 0.54545 0.85017 0.80407 0.0
O212 O 0.72772 0.83122 0.68325 0.0
O213 O 0.65302 0.77938 0.56476 0.0
O214 O 0.48329 0.79394 0.55804 0.0
O215 O 0.4793 0.79114 0.55599 0.0
H216 H 0.54597 0.43553 0.7618 0.0
H217 H 0.66307 0.37055 0.79626 0.0
H218 H 0.88935 0.60752 0.66431 0.0
H219 H 0.77202 0.6677 0.6175 0.0
H220 H 0.53232 1.07954 0.75525 0.0
H221 H 0.37969 1.09339 0.73397 0.0
H222 H 0.24487 0.80522 0.67618 0.0
H223 H 0.39411 0.79253 0.70418 0.0
La224 La 1.03414 0.68828 0.22737 0.0
La225 La 0.05306 0.77817 0.15929 0.0
C226 C 1.03677 0.55276 0.31816 0.0
C227 C 0.12353 0.52976 0.31578 0.0
C228 C 0.166 0.52769 0.40149 0.0
C229 C 0.25664 0.52467 0.40245 0.0
C230 C 0.31065 0.52479 0.31803 0.0
C231 C 0.26717 0.52542 0.23089 0.0
C232 C 0.17477 0.52838 0.23002 0.0
C233 C 1.01066 0.85076 0.36261 0.0
C234 C 0.2229 0.81935 0.29524 0.0
C235 C 1.04536 0.91803 1.0775 0.0
C236 C 0.96286 0.94387 1.10231 0.0
C237 C 0.95452 1.02338 1.06584 0.0
C238 C 0.86364 1.0291 1.0671 0.0
C239 C 0.78087 0.95304 1.1 0.0
C240 C 0.7908 0.87914 0.14525 0.0
C241 C 0.88124 0.8764 0.1489 0.0
C242 C 0.10081 0.63116 1.02606 0.0
C243 C 0.85709 0.63484 1.0952 0.0
O244 O 0.98943 0.54418 0.24043 0.0
O245 O 1.05029 0.62988 0.35763 0.0
O246 O 0.9708 0.78093 0.30428 0.0
O247 O 0.97491 0.78041 0.30271 0.0
O248 O 0.177 0.7317 0.29354 0.0
O249 O 0.18158 0.86241 0.24204 0.0
O250 O 0.1062 0.92369 0.14314 0.0
O251 O 1.0172 0.83805 1.04088 0.0
O252 O 0.13517 0.70076 1.08536 0.0
O253 O 0.12889 0.70021 1.08708 0.0
O254 O 0.91712 0.71897 1.08122 0.0
O255 O 0.88906 0.59563 0.16263 0.0
H256 H 0.13152 0.53379 0.46873 0.0
H257 H 0.28512 0.52562 0.47185 0.0
H258 H 0.30297 0.52561 0.16313 0.0
H259 H 0.1448 0.53214 0.16226 0.0
H260 H 1.01574 1.07825 1.03264 0.0
H261 H 0.85651 1.0898 1.03689 0.0
H262 H 0.7281 0.82261 0.17522 0.0
H263 H 0.88445 0.81624 0.18075 0.0
loop_
_geom_bond_atom_site_label_1
_geom_bond_atom_site_label_2
_geom_bond_distance
_geom_bond_site_symmetry_2
_ccdc_geom_bond_type
C0 N1 1.317 . S
C0 N2 1.348 . S
C0 C3 1.485 . S
N1 C0 1.317 . S
N1 N5 1.370 . S
N2 C0 1.348 . S
N2 C4 1.346 . S
C3 C0 1.485 . S
C3 H7 0.960 . S
C3 H8 0.961 . S
C3 H9 0.960 . S
C4 N2 1.346 . S
C4 N5 1.307 . S
C4 C6 1.486 . S
N5 N1 1.370 . S
N5 C4 1.307 . S
C6 C4 1.486 . S
C6 H10 0.960 . S
C6 H11 0.960 . S
C6 H12 0.959 . S
H7 C3 0.960 . S
H8 C3 0.961 . S
H9 C3 0.960 . S
H10 C6 0.960 . S
H11 C6 0.960 . S
H12 C6 0.959 . S
C13 N14 1.317 . S
C13 N15 1.348 . S
C13 C16 1.485 . S
N14 C13 1.317 . S
N14 N18 1.370 . S
N15 C13 1.348 . S
N15 C17 1.346 . S
C16 C13 1.485 . S
C16 H20 0.960 1_455 S
C16 H21 0.961 . S
C16 H22 0.960 . S
C17 N15 1.346 . S
C17 N18 1.307 . S
C17 C19 1.486 . S
N18 N14 1.370 . S
N18 C17 1.307 . S
C19 C17 1.486 . S
C19 H23 0.960 . S
C19 H24 0.960 . S
C19 H25 0.959 . S
H20 C16 0.960 1_655 S
H21 C16 0.961 . S
H22 C16 0.960 . S
H23 C19 0.960 . S
H24 C19 0.960 . S
H25 C19 0.959 . S
C26 N27 1.317 . S
C26 N28 1.348 . S
C26 C29 1.485 . S
N27 C26 1.317 . S
N27 N31 1.370 . S
N28 C26 1.348 . S
N28 C30 1.346 . S
C29 C26 1.485 . S
C29 H33 0.960 . S
C29 H34 0.961 . S
C29 H35 0.960 . S
C30 N28 1.346 . S
C30 N31 1.307 . S
C30 C32 1.486 . S
N31 N27 1.370 . S
N31 C30 1.307 . S
C32 C30 1.486 . S
C32 H36 0.960 . S
C32 H37 0.960 . S
C32 H38 0.959 . S
H33 C29 0.960 . S
H34 C29 0.961 . S
H35 C29 0.960 . S
H36 C32 0.960 . S
H37 C32 0.960 . S
H38 C32 0.959 . S
C39 N40 1.317 . S
C39 N41 1.348 . S
C39 C42 1.485 . S
N40 C39 1.317 . S
N40 N44 1.370 . S
N41 C39 1.348 . S
N41 C43 1.346 . S
C42 C39 1.485 . S
C42 H46 0.960 . S
C42 H47 0.961 . S
C42 H48 0.960 . S
C43 N41 1.346 . S
C43 N44 1.307 . S
C43 C45 1.486 . S
N44 N40 1.370 . S
N44 C43 1.307 . S
C45 C43 1.486 . S
C45 H49 0.960 . S
C45 H50 0.960 . S
C45 H51 0.959 . S
H46 C42 0.960 . S
H47 C42 0.961 . S
H48 C42 0.960 . S
H49 C45 0.960 . S
H50 C45 0.960 . S
H51 C45 0.959 . S
C52 N53 1.317 . S
C52 N54 1.348 . S
C52 C55 1.485 1_556 S
N53 C52 1.317 . S
N53 N57 1.370 . S
N54 C52 1.348 . S
N54 C56 1.346 . S
C55 C52 1.485 1_554 S
C55 H59 0.960 . S
C55 H60 0.961 . S
C55 H61 0.960 . S
C56 N54 1.346 . S
C56 N57 1.307 . S
C56 C58 1.486 . S
N57 N53 1.370 . S
N57 C56 1.307 . S
C58 C56 1.486 . S
C58 H62 0.960 . S
C58 H63 0.960 . S
C58 H64 0.959 . S
H59 C55 0.960 . S
H60 C55 0.961 . S
H61 C55 0.960 . S
H62 C58 0.960 . S
H63 C58 0.960 . S
H64 C58 0.959 . S
C65 N66 1.317 . S
C65 N67 1.348 . S
C65 C68 1.485 1_655 S
N66 C65 1.317 . S
N66 N70 1.370 . S
N67 C65 1.348 . S
N67 C69 1.346 . S
C68 C65 1.485 1_455 S
C68 H72 0.960 1_455 S
C68 H73 0.961 . S
C68 H74 0.960 . S
C69 N67 1.346 . S
C69 N70 1.307 . S
C69 C71 1.486 . S
N70 N66 1.370 . S
N70 C69 1.307 . S
C71 C69 1.486 . S
C71 H75 0.960 . S
C71 H76 0.960 . S
C71 H77 0.959 . S
H72 C68 0.960 1_655 S
H73 C68 0.961 . S
H74 C68 0.960 . S
H75 C71 0.960 . S
H76 C71 0.960 . S
H77 C71 0.959 . S
C78 N79 1.317 . S
C78 N80 1.348 . S
C78 C81 1.485 . S
N79 C78 1.317 . S
N79 N83 1.370 . S
N80 C78 1.348 . S
N80 C82 1.346 . S
C81 C78 1.485 . S
C81 H85 0.960 . S
C81 H86 0.961 . S
C81 H87 0.960 . S
C82 N80 1.346 . S
C82 N83 1.307 . S
C82 C84 1.486 . S
N83 N79 1.370 . S
N83 C82 1.307 . S
C84 C82 1.486 . S
C84 H88 0.960 . S
C84 H89 0.960 . S
C84 H90 0.959 . S
H85 C81 0.960 . S
H86 C81 0.961 . S
H87 C81 0.960 . S
H88 C84 0.960 . S
H89 C84 0.960 . S
H90 C84 0.959 . S
C91 N92 1.317 . S
C91 N93 1.348 . S
C91 C94 1.485 . S
N92 C91 1.317 . S
N92 N96 1.370 . S
N93 C91 1.348 . S
N93 C95 1.346 . S
C94 C91 1.485 . S
C94 H98 0.960 1_455 S
C94 H99 0.961 . S
C94 H100 0.960 . S
C95 N93 1.346 . S
C95 N96 1.307 . S
C95 C97 1.486 . S
N96 N92 1.370 . S
N96 C95 1.307 . S
C97 C95 1.486 . S
C97 H101 0.960 . S
C97 H102 0.960 . S
C97 H103 0.959 . S
H98 C94 0.960 1_655 S
H99 C94 0.961 . S
H100 C94 0.960 . S
H101 C97 0.960 . S
H102 C97 0.960 . S
H103 C97 0.959 . S
La104 C106 2.928 . S
La104 O124 2.521 . S
La104 O125 2.628 . S
La104 O126 2.554 1_545 S
La104 O127 2.757 1_545 S
La104 O128 2.470 . S
La104 O133 2.482 . S
La104 O135 2.503 1_545 S
La105 C115 2.928 1_545 S
La105 O127 2.482 1_645 S
La105 O129 2.503 1_655 S
La105 O130 2.521 1_545 S
La105 O131 2.628 1_545 S
La105 O132 2.554 . S
La105 O133 2.757 1_655 S
La105 O134 2.470 1_545 S
C106 La104 2.928 . S
C106 C107 1.503 . S
C106 O124 1.261 . S
C106 O125 1.243 . S
C107 C106 1.503 . S
C107 C108 1.394 . S
C107 C112 1.373 . S
C108 C107 1.394 . S
C108 C109 1.380 . S
C108 H136 0.930 . S
C109 C108 1.380 . S
C109 C110 1.376 . S
C109 H137 0.930 . S
C110 C109 1.376 . S
C110 C111 1.370 . S
C111 C110 1.370 . S
C111 C112 1.396 . S
C111 H138 0.929 . S
C112 C107 1.373 . S
C112 C111 1.396 . S
C112 H139 0.929 . S
C113 O126 1.240 . S
C113 O127 1.289 . S
C114 O128 1.258 . S
C114 O129 1.256 . S
C115 La105 2.928 1_565 S
C115 C116 1.503 . S
C115 O130 1.261 . S
C115 O131 1.243 . S
C116 C115 1.503 . S
C116 C117 1.394 . S
C116 C121 1.373 . S
C117 C116 1.394 . S
C117 C118 1.380 . S
C117 H140 0.930 . S
C118 C117 1.380 . S
C118 C119 1.376 . S
C118 H141 0.930 . S
C119 C118 1.376 . S
C119 C120 1.370 . S
C120 C119 1.370 . S
C120 C121 1.396 . S
C120 H142 0.929 . S
C121 C116 1.373 . S
C121 C120 1.396 . S
C121 H143 0.929 . S
C122 O132 1.240 . S
C122 O133 1.289 1_655 S
C123 O134 1.258 . S
C123 O135 1.256 1_655 S
O124 La104 2.521 . S
O124 C106 1.261 . S
O125 La104 2.628 . S
O125 C106 1.243 . S
O126 La104 2.554 1_565 S
O126 C113 1.240 . S
O127 La104 2.757 1_565 S
O127 La105 2.482 1_465 S
O127 C113 1.289 . S
O128 La104 2.470 . S
O128 C114 1.258 . S
O129 La105 2.503 1_455 S
O129 C114 1.256 . S
O130 La105 2.521 1_565 S
O130 C115 1.261 . S
O131 La105 2.628 1_565 S
O131 C115 1.243 . S
O132 La105 2.554 . S
O132 C122 1.240 . S
O133 La104 2.482 . S
O133 La105 2.757 1_455 S
O133 C122 1.289 1_455 S
O134 La105 2.470 1_565 S
O134 C123 1.258 . S
O135 La104 2.503 1_565 S
O135 C123 1.256 1_455 S
H136 C108 0.930 . S
H137 C109 0.930 . S
H138 C111 0.929 . S
H139 C112 0.929 . S
H140 C117 0.930 . S
H141 C118 0.930 . S
H142 C120 0.929 . S
H143 C121 0.929 . S
La144 C146 2.928 . S
La144 O164 2.521 . S
La144 O165 2.628 . S
La144 O166 2.554 1_545 S
La144 O167 2.757 1_545 S
La144 O168 2.470 . S
La144 O173 2.482 . S
La144 O175 2.503 1_545 S
La145 C155 2.928 1_544 S
La145 O167 2.482 1_545 S
La145 O169 2.503 . S
La145 O170 2.521 1_554 S
La145 O171 2.628 1_544 S
La145 O172 2.554 1_554 S
La145 O173 2.757 . S
La145 O174 2.470 1_554 S
C146 La144 2.928 . S
C146 C147 1.503 . S
C146 O164 1.261 . S
C146 O165 1.243 . S
C147 C146 1.503 . S
C147 C148 1.394 . S
C147 C152 1.373 . S
C148 C147 1.394 . S
C148 C149 1.380 . S
C148 H176 0.930 . S
C149 C148 1.380 . S
C149 C150 1.376 . S
C149 H177 0.930 . S
C150 C149 1.376 . S
C150 C151 1.370 . S
C151 C150 1.370 . S
C151 C152 1.396 . S
C151 H178 0.929 . S
C152 C147 1.373 . S
C152 C151 1.396 . S
C152 H179 0.929 . S
C153 O166 1.240 . S
C153 O167 1.289 . S
C154 O168 1.258 . S
C154 O169 1.256 . S
C155 La145 2.928 1_566 S
C155 C156 1.503 . S
C155 O170 1.261 1_565 S
C155 O171 1.243 . S
C156 C155 1.503 . S
C156 C157 1.394 . S
C156 C161 1.373 . S
C157 C156 1.394 . S
C157 C158 1.380 . S
C157 H180 0.930 1_565 S
C158 C157 1.380 . S
C158 C159 1.376 . S
C158 H181 0.930 . S
C159 C158 1.376 . S
C159 C160 1.370 . S
C160 C159 1.370 . S
C160 C161 1.396 . S
C160 H182 0.929 . S
C161 C156 1.373 . S
C161 C160 1.396 . S
C161 H183 0.929 . S
C162 O172 1.240 1_554 S
C162 O173 1.289 . S
C163 O174 1.258 1_565 S
C163 O175 1.256 1_556 S
O164 La144 2.521 . S
O164 C146 1.261 . S
O165 La144 2.628 . S
O165 C146 1.243 . S
O166 La144 2.554 1_565 S
O166 C153 1.240 . S
O167 La144 2.757 1_565 S
O167 La145 2.482 1_565 S
O167 C153 1.289 . S
O168 La144 2.470 . S
O168 C154 1.258 . S
O169 La145 2.503 . S
O169 C154 1.256 . S
O170 La145 2.521 1_556 S
O170 C155 1.261 1_545 S
O171 La145 2.628 1_566 S
O171 C155 1.243 . S
O172 La145 2.554 1_556 S
O172 C162 1.240 1_556 S
O173 La144 2.482 . S
O173 La145 2.757 . S
O173 C162 1.289 . S
O174 La145 2.470 1_556 S
O174 C163 1.258 1_545 S
O175 La144 2.503 1_565 S
O175 C163 1.256 1_554 S
H176 C148 0.930 . S
H177 C149 0.930 . S
H178 C151 0.929 . S
H179 C152 0.929 . S
H180 C157 0.930 1_545 S
H181 C158 0.930 . S
H182 C160 0.929 . S
H183 C161 0.929 . S
La184 C186 2.928 . S
La184 O204 2.521 . S
La184 O205 2.628 . S
La184 O206 2.554 . S
La184 O207 2.757 . S
La184 O208 2.470 . S
La184 O213 2.482 . S
La184 O215 2.503 . S
La185 C195 2.928 . S
La185 O207 2.482 . S
La185 O209 2.503 . S
La185 O210 2.521 . S
La185 O211 2.628 . S
La185 O212 2.554 . S
La185 O213 2.757 . S
La185 O214 2.470 . S
C186 La184 2.928 . S
C186 C187 1.503 . S
C186 O204 1.261 . S
C186 O205 1.243 . S
C187 C186 1.503 . S
C187 C188 1.394 . S
C187 C192 1.373 . S
C188 C187 1.394 . S
C188 C189 1.380 . S
C188 H216 0.930 . S
C189 C188 1.380 . S
C189 C190 1.376 . S
C189 H217 0.930 . S
C190 C189 1.376 . S
C190 C191 1.370 . S
C191 C190 1.370 . S
C191 C192 1.396 . S
C191 H218 0.929 . S
C192 C187 1.373 . S
C192 C191 1.396 . S
C192 H219 0.929 . S
C193 O206 1.240 . S
C193 O207 1.289 . S
C194 O208 1.258 . S
C194 O209 1.256 . S
C195 La185 2.928 . S
C195 C196 1.503 . S
C195 O210 1.261 . S
C195 O211 1.243 . S
C196 C195 1.503 . S
C196 C197 1.394 . S
C196 C201 1.373 . S
C197 C196 1.394 . S
C197 C198 1.380 . S
C197 H220 0.930 . S
C198 C197 1.380 . S
C198 C199 1.376 . S
C198 H221 0.930 . S
C199 C198 1.376 . S
C199 C200 1.370 . S
C200 C199 1.370 . S
C200 C201 1.396 . S
C200 H222 0.929 . S
C201 C196 1.373 . S
C201 C200 1.396 . S
C201 H223 0.929 . S
C202 O212 1.240 . S
C202 O213 1.289 . S
C203 O214 1.258 . S
C203 O215 1.256 . S
O204 La184 2.521 . S
O204 C186 1.261 . S
O205 La184 2.628 . S
O205 C186 1.243 . S
O206 La184 2.554 . S
O206 C193 1.240 . S
O207 La184 2.757 . S
O207 La185 2.482 . S
O207 C193 1.289 . S
O208 La184 2.470 . S
O208 C194 1.258 . S
O209 La185 2.503 . S
O209 C194 1.256 . S
O210 La185 2.521 . S
O210 C195 1.261 . S
O211 La185 2.628 . S
O211 C195 1.243 . S
O212 La185 2.554 . S
O212 C202 1.240 . S
O213 La184 2.482 . S
O213 La185 2.757 . S
O213 C202 1.289 . S
O214 La185 2.470 . S
O214 C203 1.258 . S
O215 La184 2.503 . S
O215 C203 1.256 . S
H216 C188 0.930 . S
H217 C189 0.930 . S
H218 C191 0.929 . S
H219 C192 0.929 . S
H220 C197 0.930 . S
H221 C198 0.930 . S
H222 C200 0.929 . S
H223 C201 0.929 . S
La224 C226 2.928 . S
La224 O244 2.521 . S
La224 O245 2.628 . S
La224 O246 2.554 1_455 S
La224 O247 2.757 1_455 S
La224 O248 2.470 . S
La224 O253 2.482 1_554 S
La224 O255 2.503 1_455 S
La225 C235 2.928 . S
La225 O247 2.482 1_556 S
La225 O249 2.503 1_656 S
La225 O250 2.521 . S
La225 O251 2.628 . S
La225 O252 2.554 1_655 S
La225 O253 2.757 1_655 S
La225 O254 2.470 . S
C226 La224 2.928 . S
C226 C227 1.503 . S
C226 O244 1.261 . S
C226 O245 1.243 . S
C227 C226 1.503 . S
C227 C228 1.394 . S
C227 C232 1.373 . S
C228 C227 1.394 . S
C228 C229 1.380 . S
C228 H256 0.930 . S
C229 C228 1.380 . S
C229 C230 1.376 . S
C229 H257 0.930 . S
C230 C229 1.376 . S
C230 C231 1.370 . S
C231 C230 1.370 . S
C231 C232 1.396 . S
C231 H258 0.929 . S
C232 C227 1.373 . S
C232 C231 1.396 . S
C232 H259 0.929 . S
C233 O246 1.240 . S
C233 O247 1.289 . S
C234 O248 1.258 . S
C234 O249 1.256 . S
C235 La225 2.928 . S
C235 C236 1.503 . S
C235 O250 1.261 . S
C235 O251 1.243 . S
C236 C235 1.503 . S
C236 C237 1.394 . S
C236 C241 1.373 . S
C237 C236 1.394 . S
C237 C238 1.380 . S
C237 H260 0.930 . S
C238 C237 1.380 . S
C238 C239 1.376 . S
C238 H261 0.930 . S
C239 C238 1.376 . S
C239 C240 1.370 . S
C240 C239 1.370 . S
C240 C241 1.396 . S
C240 H262 0.929 . S
C241 C236 1.373 . S
C241 C240 1.396 . S
C241 H263 0.929 . S
C242 O252 1.240 . S
C242 O253 1.289 . S
C243 O254 1.258 . S
C243 O255 1.256 1_556 S
O244 La224 2.521 . S
O244 C226 1.261 . S
O245 La224 2.628 . S
O245 C226 1.243 . S
O246 La224 2.554 1_655 S
O246 C233 1.240 . S
O247 La224 2.757 1_655 S
O247 La225 2.482 1_554 S
O247 C233 1.289 . S
O248 La224 2.470 . S
O248 C234 1.258 . S
O249 La225 2.503 1_454 S
O249 C234 1.256 . S
O250 La225 2.521 . S
O250 C235 1.261 . S
O251 La225 2.628 . S
O251 C235 1.243 . S
O252 La225 2.554 1_455 S
O252 C242 1.240 . S
O253 La224 2.482 1_556 S
O253 La225 2.757 1_455 S
O253 C242 1.289 . S
O254 La225 2.470 . S
O254 C243 1.258 . S
O255 La224 2.503 1_655 S
O255 C243 1.256 1_554 S
H256 C228 0.930 . S
H257 C229 0.930 . S
H258 C231 0.929 . S
H259 C232 0.929 . S
H260 C237 0.930 . S
H261 C238 0.930 . S
H262 C240 0.929 . S
H263 C241 0.929 . S
N1 C110 1.437 . S
N18 C159 2.131 . S
C194 N28 3.248 . S
N40 C233 4.155 . S
C154 N5 3.219 . S
C113 N14 1.745 . S
C243 N31 2.703 . S
C202 N41 2.205 . S
N2 C230 1.592 . S
C162 N27 3.701 1_554 S
N44 C123 3.856 . S
N15 C199 1.814 . S
C119 N57 2.597 . S
N70 C150 1.423 . S
N79 C203 3.594 . S
N93 C242 3.897 . S
N54 C163 2.875 . S
C122 N66 1.408 . S
C234 N80 2.198 . S
C193 N96 2.584 . S
N53 C239 2.562 . S
C153 N83 3.357 . S
C114 N92 4.529 . S
N67 C190 2.370 . S
