# Generated by pormake.
# Topology cml, (3,6)-cn, num edge types: 1
# Building blocks:
#     Node 0, Type 0, BuildingBlock: VETTIZ_charged_linker_0, # of connection points: 3
#     Node 1, Type 0, BuildingBlock: VETTIZ_charged_linker_0, # of connection points: 3
#     Node 2, Type 0, BuildingBlock: VETTIZ_charged_linker_0, # of connection points: 3
#     Node 3, Type 0, BuildingBlock: VETTIZ_charged_linker_0, # of connection points: 3
#     Node 4, Type 0, BuildingBlock: VETTIZ_charged_linker_0, # of connection points: 3
#     Node 5, Type 0, BuildingBlock: VETTIZ_charged_linker_0, # of connection points: 3
#     Node 6, Type 0, BuildingBlock: VETTIZ_charged_linker_0, # of connection points: 3
#     Node 7, Type 0, BuildingBlock: VETTIZ_charged_linker_0, # of connection points: 3
#     Node 8, Type 1, BuildingBlock: OJICUG_clean_sbu_0, # of connection points: 6
#     Node 9, Type 1, BuildingBlock: OJICUG_clean_sbu_0, # of connection points: 6
#     Node 10, Type 1, BuildingBlock: OJICUG_clean_sbu_0, # of connection points: 6
#     Node 11, Type 1, BuildingBlock: OJICUG_clean_sbu_0, # of connection points: 6
#     Edge 12, Type (0, 1), BuildingBlock: AJUNOK_clean_linker_0, # of connection points: 2
#     Edge 13, Type (0, 1), BuildingBlock: AJUNOK_clean_linker_0, # of connection points: 2
#     Edge 14, Type (0, 1), BuildingBlock: AJUNOK_clean_linker_0, # of connection points: 2
#     Edge 15, Type (0, 1), BuildingBlock: AJUNOK_clean_linker_0, # of connection points: 2
#     Edge 16, Type (0, 1), BuildingBlock: AJUNOK_clean_linker_0, # of connection points: 2
#     Edge 17, Type (0, 1), BuildingBlock: AJUNOK_clean_linker_0, # of connection points: 2
#     Edge 18, Type (0, 1), BuildingBlock: AJUNOK_clean_linker_0, # of connection points: 2
#     Edge 19, Type (0, 1), BuildingBlock: AJUNOK_clean_linker_0, # of connection points: 2
#     Edge 20, Type (0, 1), BuildingBlock: AJUNOK_clean_linker_0, # of connection points: 2
#     Edge 21, Type (0, 1), BuildingBlock: AJUNOK_clean_linker_0, # of connection points: 2
#     Edge 22, Type (0, 1), BuildingBlock: AJUNOK_clean_linker_0, # of connection points: 2
#     Edge 23, Type (0, 1), BuildingBlock: AJUNOK_clean_linker_0, # of connection points: 2
#     Edge 24, Type (0, 1), BuildingBlock: AJUNOK_clean_linker_0, # of connection points: 2
#     Edge 25, Type (0, 1), BuildingBlock: AJUNOK_clean_linker_0, # of connection points: 2
#     Edge 26, Type (0, 1), BuildingBlock: AJUNOK_clean_linker_0, # of connection points: 2
#     Edge 27, Type (0, 1), BuildingBlock: AJUNOK_clean_linker_0, # of connection points: 2
#     Edge 28, Type (0, 1), BuildingBlock: AJUNOK_clean_linker_0, # of connection points: 2
#     Edge 29, Type (0, 1), BuildingBlock: AJUNOK_clean_linker_0, # of connection points: 2
#     Edge 30, Type (0, 1), BuildingBlock: AJUNOK_clean_linker_0, # of connection points: 2
#     Edge 31, Type (0, 1), BuildingBlock: AJUNOK_clean_linker_0, # of connection points: 2
#     Edge 32, Type (0, 1), BuildingBlock: AJUNOK_clean_linker_0, # of connection points: 2
#     Edge 33, Type (0, 1), BuildingBlock: AJUNOK_clean_linker_0, # of connection points: 2
#     Edge 34, Type (0, 1), BuildingBlock: AJUNOK_clean_linker_0, # of connection points: 2
#     Edge 35, Type (0, 1), BuildingBlock: AJUNOK_clean_linker_0, # of connection points: 2
# Relax obj value: 0.076
# Max RMSD: 0.088
# Mean RMSD: 0.083
data_MOF--net-cml--node1-OJICUG_clean_sbu_0--node2-VETTIZ_charged_linker_0--edge1-AJUNOK_clean_linker_0
_symmetry_space_group_name_H-M    P1
_symmetry_Int_Tables_number       1
_symmetry_cell_setting            triclinic
loop_
_symmetry_equiv_pos_as_xyz
'x, y, z'
_cell_length_a     37.145889
_cell_length_b     37.513478
_cell_length_c     35.579358
_cell_angle_alpha  90.05496
_cell_angle_beta   90.041611
_cell_angle_gamma 90.0282
loop_
_atom_site_label
_atom_site_type_symbol
_atom_site_fract_x
_atom_site_fract_y
_atom_site_fract_z
_atom_type_partial_charge
C0 C 0.32915 0.32844 0.10993 0.0
C1 C 0.35912 0.34286 0.12856 0.0
C2 C 0.3757 0.37377 0.11441 0.0
C3 C 0.3326 0.37595 0.06358 0.0
C4 C 0.31621 0.3456 0.07755 0.0
C5 C 0.28384 0.33503 0.05462 0.0
H6 H 0.18122 0.35964 0.8995 0.0
C7 C 0.31266 0.38748 0.02989 0.0
C8 C 0.28392 0.3638 0.02448 0.0
H9 H 0.16721 0.282 0.98817 0.0
H10 H 0.21782 0.30659 0.02151 0.0
H11 H 0.19253 0.425 0.95626 0.0
H12 H 0.26811 0.35879 0.89667 0.0
H13 H 0.2819 0.4035 0.8922 0.0
H14 H 0.23887 0.39007 0.8737 0.0
H15 H 0.20144 0.43107 0.90713 0.0
H16 H 0.22841 0.45262 0.9428 0.0
C17 C 0.25002 0.33726 0.08006 0.0
C18 C 0.29106 0.29757 0.03797 0.0
C19 C 0.35737 0.49395 0.95573 0.0
C20 C 0.34572 0.5104 0.92246 0.0
C21 C 0.3145 0.49757 0.90441 0.0
C22 C 0.29568 0.46821 0.9189 0.0
C23 C 0.30819 0.45156 0.95183 0.0
C24 C 0.33834 0.46477 0.96982 0.0
C25 C 0.34783 0.44396 0.00446 0.0
C26 C 0.31842 0.41593 0.00434 0.0
C27 C 0.29538 0.42039 0.97342 0.0
C28 C 0.34482 0.46927 0.03882 0.0
C29 C 0.38567 0.4274 -0.00146 0.0
C30 C 0.18869 0.34826 0.92634 0.0
C31 C 0.17026 0.31865 0.94103 0.0
C32 C 0.18132 0.30441 0.97588 0.0
C33 C 0.21065 0.31881 0.99533 0.0
C34 C 0.22913 0.34797 0.98001 0.0
C35 C 0.21766 0.36268 0.94647 0.0
C36 C 0.23957 0.39474 0.9355 0.0
C37 C 0.26648 0.39628 0.96759 0.0
C38 C 0.26051 0.36849 0.99329 0.0
C39 C 0.21438 0.42768 0.93506 0.0
C40 C 0.25803 0.38672 0.89741 0.0
H41 H 0.37652 0.41383 0.07277 0.0
H42 H 0.31578 0.30491 0.1207 0.0
H43 H 0.31906 0.29578 0.02703 0.0
H44 H 0.27355 0.29104 0.0139 0.0
H45 H 0.28776 0.27661 0.05975 0.0
H46 H 0.25363 0.35725 0.10288 0.0
H47 H 0.24418 0.3112 0.09354 0.0
H48 H 0.22586 0.3464 0.06464 0.0
H49 H 0.38141 0.50308 0.9701 0.0
H50 H 0.30468 0.51024 0.87905 0.0
H51 H 0.27231 0.45944 0.90375 0.0
H52 H 0.32337 0.48955 0.03446 0.0
H53 H 0.37046 0.48377 0.04378 0.0
H54 H 0.33689 0.45528 0.06486 0.0
H55 H 0.38967 0.41954 0.96867 0.0
H56 H 0.3898 0.40256 0.01459 0.0
H57 H 0.40724 0.44667 0.00598 0.0
H58 H 0.39881 0.38517 0.12865 0.0
C59 C 0.36268 0.39035 0.08203 0.0
C60 C 0.81224 0.64949 0.43064 0.0
C61 C 0.82902 0.68061 0.44413 0.0
C62 C 0.81549 0.69711 0.4768 0.0
C63 C 0.76919 0.65204 0.48189 0.0
C64 C 0.78228 0.63587 0.44976 0.0
C65 C 0.76038 0.60376 0.43866 0.0
H66 H 0.61404 0.49983 0.46953 0.0
C67 C 0.73776 0.63153 0.49493 0.0
C68 C 0.7323 0.60321 0.46966 0.0
H69 H 0.69122 0.49062 0.37943 0.0
H70 H 0.72611 0.53931 0.40592 0.0
H71 H 0.67125 0.50832 0.53367 0.0
H72 H 0.60953 0.58471 0.47117 0.0
H73 H 0.6083 0.59778 0.51862 0.0
H74 H 0.5905 0.55495 0.50529 0.0
H75 H 0.62568 0.51878 0.54601 0.0
H76 H 0.66328 0.54348 0.56509 0.0
C77 C 0.78505 0.57054 0.44002 0.0
C78 C 0.7435 0.61114 0.39962 0.0
C79 C 0.67192 0.66924 0.61398 0.0
C80 C 0.64264 0.65426 0.63315 0.0
C81 C 0.62565 0.62367 0.61874 0.0
C82 C 0.63763 0.60793 0.58546 0.0
C83 C 0.66704 0.62291 0.5664 0.0
C84 C 0.68383 0.65292 0.58073 0.0
C85 C 0.71531 0.66427 0.55699 0.0
C86 C 0.71458 0.63605 0.52628 0.0
C87 C 0.68609 0.61218 0.53188 0.0
C88 C 0.74978 0.66176 0.5814 0.0
C89 C 0.70728 0.70202 0.54137 0.0
C90 C 0.63847 0.50842 0.45558 0.0
C91 C 0.64991 0.49187 0.42235 0.0
C92 C 0.68208 0.50316 0.40514 0.0
C93 C 0.70206 0.5315 0.42044 0.0
C94 C 0.68968 0.54852 0.45326 0.0
C95 C 0.65872 0.53638 0.47056 0.0
C96 C 0.64992 0.55672 0.50569 0.0
C97 C 0.68003 0.58397 0.50608 0.0
C98 C 0.70318 0.57925 0.47529 0.0
C99 C 0.65235 0.53067 0.53948 0.0
C100 C 0.61254 0.5744 0.50032 0.0
H101 H 0.77682 0.69688 0.52036 0.0
H102 H 0.82229 0.63589 0.40592 0.0
H103 H 0.73486 0.63946 0.39731 0.0
H104 H 0.71892 0.59544 0.39427 0.0
H105 H 0.76317 0.60593 0.37677 0.0
H106 H 0.80431 0.57237 0.46392 0.0
H107 H 0.80103 0.56797 0.41378 0.0
H108 H 0.77002 0.54556 0.44479 0.0
H109 H 0.68544 0.69267 0.62486 0.0
H110 H 0.60301 0.61192 0.63343 0.0
H111 H 0.6235 0.5847 0.57593 0.0
H112 H 0.74851 0.6383 0.60049 0.0
H113 H 0.75312 0.68591 0.59915 0.0
H114 H 0.77447 0.6577 0.5647 0.0
H115 H 0.67795 0.70565 0.53623 0.0
H116 H 0.71996 0.70695 0.51379 0.0
H117 H 0.71595 0.72303 0.56145 0.0
H118 H 0.82771 0.7213 0.48752 0.0
C119 C 0.78579 0.68298 0.49575 0.0
C120 C 0.67487 0.50736 0.94124 0.0
C121 C 0.64711 0.52745 0.95778 0.0
C122 C 0.63418 0.51776 0.99353 0.0
C123 C 0.67418 0.46694 0.9944 0.0
C124 C 0.68809 0.47733 0.96012 0.0
C125 C 0.71668 0.45207 0.94627 0.0
H126 H 0.81011 0.29887 0.97079 0.0
C127 C 0.69106 0.43285 0.0049 0.0
C128 C 0.71617 0.424 0.97705 0.0
H129 H 0.82526 0.37886 0.8849 0.0
H130 H 0.77576 0.41312 0.91033 0.0
H131 H 0.80009 0.35412 0.03943 0.0
H132 H 0.72294 0.2996 0.96922 0.0
H133 H 0.70595 0.29986 0.01527 0.0
H134 H 0.74759 0.2769 0.00539 0.0
H135 H 0.79353 0.3067 0.0409 0.0
H136 H 0.76589 0.33642 0.06817 0.0
C137 C 0.75296 0.47249 0.94492 0.0
C138 C 0.7044 0.43664 0.90797 0.0
C139 C 0.64617 0.36827 0.12033 0.0
C140 C 0.65341 0.33476 0.13598 0.0
C141 C 0.67907 0.31246 0.1188 0.0
C142 C 0.69748 0.32375 0.08637 0.0
C143 C 0.68982 0.35753 0.07101 0.0
C144 C 0.66437 0.37896 0.08802 0.0
C145 C 0.65812 0.41316 0.06729 0.0
C146 C 0.68433 0.40911 0.03504 0.0
C147 C 0.70302 0.37668 0.03735 0.0
C148 C 0.66868 0.44447 0.09361 0.0
C149 C 0.61836 0.41359 0.05374 0.0
C150 C 0.80286 0.3239 0.95765 0.0
C151 C 0.82184 0.33657 0.92621 0.0
C152 C 0.81102 0.36871 0.9092 0.0
C153 C 0.78251 0.38863 0.92418 0.0
C154 C 0.76461 0.37621 0.95644 0.0
C155 C 0.77473 0.34421 0.97247 0.0
C156 C 0.75317 0.33547 0.00703 0.0
C157 C 0.72913 0.36801 0.00972 0.0
C158 C 0.73574 0.39162 0.97983 0.0
C159 C 0.77933 0.33276 0.04081 0.0
C160 C 0.73135 0.30105 -0.00079 0.0
H161 H 0.63605 0.48135 0.0387 0.0
H162 H 0.6853 0.51435 0.91379 0.0
H163 H 0.67524 0.42984 0.9087 0.0
H164 H 0.71827 0.41163 0.90045 0.0
H165 H 0.70858 0.45625 0.88501 0.0
H166 H 0.75382 0.49419 0.96626 0.0
H167 H 0.75733 0.48489 0.91696 0.0
H168 H 0.77624 0.45536 0.95186 0.0
H169 H 0.62605 0.38566 0.13261 0.0
H170 H 0.68499 0.2865 0.13058 0.0
H171 H 0.71683 0.30576 0.07447 0.0
H172 H 0.6918 0.43705 0.11192 0.0
H173 H 0.64594 0.45204 0.11223 0.0
H174 H 0.67798 0.46829 0.07814 0.0
H175 H 0.6085 0.38614 0.04775 0.0
H176 H 0.61457 0.428 0.02699 0.0
H177 H 0.60036 0.42531 0.07537 0.0
H178 H 0.61236 0.53244 0.0065 0.0
C179 C 0.64766 0.48775 0.01197 0.0
C180 C 0.19179 0.6478 0.43087 0.0
C181 C 0.17317 0.67702 0.44622 0.0
C182 C 0.1818 0.68854 0.48291 0.0
C183 C 0.22664 0.64218 0.48828 0.0
C184 C 0.21791 0.63048 0.45258 0.0
C185 C 0.23916 0.59802 0.44137 0.0
H186 H 0.36167 0.47241 0.48892 0.0
C187 C 0.25397 0.61797 0.50386 0.0
C188 C 0.26068 0.59136 0.47697 0.0
H189 H 0.3159 0.49221 0.37922 0.0
H190 H 0.27772 0.53821 0.40557 0.0
H191 H 0.38282 0.53995 0.50336 0.0
H192 H 0.28711 0.48984 0.54161 0.0
H193 H 0.30502 0.51465 0.57944 0.0
H194 H 0.33228 0.48098 0.55702 0.0
H195 H 0.38036 0.52287 0.5501 0.0
H196 H 0.36978 0.56872 0.53959 0.0
C197 C 0.26363 0.60808 0.40769 0.0
C198 C 0.21249 0.5673 0.43311 0.0
C199 C 0.32338 0.64998 0.6223 0.0
C200 C 0.35076 0.63166 0.64167 0.0
C201 C 0.35679 0.59536 0.63364 0.0
C202 C 0.33851 0.57844 0.60442 0.0
C203 C 0.31403 0.59801 0.58278 0.0
C204 C 0.3051 0.63243 0.59302 0.0
C205 C 0.27616 0.64757 0.56789 0.0
C206 C 0.27285 0.61807 0.53856 0.0
C207 C 0.29552 0.58945 0.54738 0.0
C208 C 0.29 0.68278 0.55048 0.0
C209 C 0.2412 0.65194 0.59132 0.0
C210 C 0.34341 0.4866 0.4705 0.0
C211 C 0.34237 0.47925 0.43183 0.0
C212 C 0.3174 0.49758 0.4091 0.0
C213 C 0.29559 0.52453 0.42437 0.0
C214 C 0.29924 0.53353 0.46259 0.0
C215 C 0.32281 0.51451 0.48492 0.0
C216 C 0.32668 0.5301 0.52358 0.0
C217 C 0.30174 0.562 0.52072 0.0
C218 C 0.28504 0.56336 0.48535 0.0
C219 C 0.36681 0.54087 0.52976 0.0
C220 C 0.31227 0.50249 0.55217 0.0
H221 H 0.21385 0.68127 0.53161 0.0
H222 H 0.18634 0.63867 0.40255 0.0
H223 H 0.19146 0.56591 0.45531 0.0
H224 H 0.2255 0.54087 0.43278 0.0
H225 H 0.19872 0.57141 0.40572 0.0
H226 H 0.27006 0.63706 0.40758 0.0
H227 H 0.25043 0.60173 0.38047 0.0
H228 H 0.29017 0.59477 0.40885 0.0
H229 H 0.31772 0.67768 0.62846 0.0
H230 H 0.37688 0.5804 0.6491 0.0
H231 H 0.34512 0.55117 0.59886 0.0
H232 H 0.31718 0.67887 0.53803 0.0
H233 H 0.292 0.70402 0.57215 0.0
H234 H 0.2725 0.69273 0.52774 0.0
H235 H 0.24231 0.63683 0.6182 0.0
H236 H 0.2173 0.64126 0.57636 0.0
H237 H 0.23625 0.68032 0.59861 0.0
H238 H 0.16759 0.71072 0.49556 0.0
C239 C 0.20841 0.6713 0.50396 0.0
C240 C 0.82947 0.82991 0.11112 0.0
C241 C 0.85812 0.84566 0.13082 0.0
C242 C 0.8726 0.87818 0.1183 0.0
C243 C 0.82977 0.87958 0.06723 0.0
C244 C 0.81555 0.84753 0.07945 0.0
C245 C 0.78416 0.83581 0.05562 0.0
H246 H 0.67155 0.86825 0.90932 0.0
C247 C 0.80913 0.89133 0.03411 0.0
C248 C 0.78226 0.86596 0.02709 0.0
H249 H 0.67006 0.77948 0.98663 0.0
H250 H 0.72222 0.80288 0.01862 0.0
H251 H 0.68887 0.92901 0.97121 0.0
H252 H 0.75767 0.86836 0.89759 0.0
H253 H 0.77469 0.91199 0.89915 0.0
H254 H 0.73011 0.90419 0.88066 0.0
H255 H 0.68944 0.93518 0.92117 0.0
H256 H 0.72063 0.95828 0.95139 0.0
C257 C 0.75025 0.83443 0.08094 0.0
C258 C 0.7941 0.79983 0.03695 0.0
C259 C 0.84615 0.00462 0.96735 0.0
C260 C 0.83406 0.02162 0.93459 0.0
C261 C 0.80412 0.00761 0.91524 0.0
C262 C 0.78663 0.97683 0.92831 0.0
C263 C 0.79953 0.95974 0.96083 0.0
C264 C 0.82869 0.97389 0.97981 0.0
C265 C 0.83971 0.95176 0.01296 0.0
C266 C 0.81256 0.92169 0.01068 0.0
C267 C 0.78899 0.92651 0.98027 0.0
C268 C 0.83464 0.97465 0.04891 0.0
C269 C 0.87875 0.93846 0.00622 0.0
C270 C 0.68266 0.85391 0.93306 0.0
C271 C 0.66651 0.82237 0.94594 0.0
C272 C 0.6817 0.80426 0.97679 0.0
C273 C 0.71205 0.8178 0.99521 0.0
C274 C 0.72749 0.84979 0.98263 0.0
C275 C 0.71295 0.86721 0.95191 0.0
C276 C 0.73307 0.90083 0.94255 0.0
C277 C 0.76162 0.90099 0.97309 0.0
C278 C 0.75828 0.87093 0.9964 0.0
C279 C 0.7068 0.93266 0.94646 0.0
C280 C 0.74966 0.8965 0.90285 0.0
H281 H 0.87087 0.91994 0.07869 0.0
H282 H 0.81781 0.80502 0.12056 0.0
H283 H 0.82294 0.79955 0.02849 0.0
H284 H 0.77902 0.7947 0.01076 0.0
H285 H 0.78976 0.77726 0.05663 0.0
H286 H 0.75118 0.85562 0.10284 0.0
H287 H 0.74807 0.80838 0.09556 0.0
H288 H 0.72506 0.83957 0.06536 0.0
H289 H 0.86976 0.01415 0.98217 0.0
H290 H 0.79459 0.02023 0.88973 0.0
H291 H 0.76414 0.96725 0.91227 0.0
H292 H 0.81157 0.99334 0.04581 0.0
H293 H 0.85899 0.99088 0.05491 0.0
H294 H 0.82792 0.95857 0.07395 0.0
H295 H 0.88375 0.9336 0.97581 0.0
H296 H 0.88443 0.91261 0.0198 0.0
H297 H 0.8988 0.9584 0.01599 0.0
H298 H 0.89474 0.89054 0.13332 0.0
C299 C 0.85866 0.89519 0.08664 0.0
C300 C 0.31122 0.1522 0.43523 0.0
C301 C 0.3293 0.18142 0.45138 0.0
C302 C 0.31798 0.19402 0.48684 0.0
C303 C 0.27115 0.14919 0.48903 0.0
C304 C 0.28272 0.13625 0.45472 0.0
C305 C 0.26168 0.10402 0.44234 0.0
H306 H 0.12305 0.99059 0.47309 0.0
C307 C 0.24064 0.12703 0.50163 0.0
C308 C 0.2353 0.10014 0.47463 0.0
H309 H 0.19816 0.9893 0.38039 0.0
H310 H 0.23007 0.0395 0.4074 0.0
H311 H 0.18137 0.00109 0.53657 0.0
H312 H 0.11311 0.07357 0.4765 0.0
H313 H 0.11301 0.08779 0.52346 0.0
H314 H 0.09678 0.04381 0.51207 0.0
H315 H 0.13486 0.00695 0.5485 0.0
H316 H 0.16978 0.03417 0.56924 0.0
C317 C 0.28786 0.07196 0.43981 0.0
C318 C 0.24243 0.11315 0.40496 0.0
C319 C 0.17074 0.16023 0.62 0.0
C320 C 0.14157 0.14375 0.63812 0.0
C321 C 0.12691 0.11221 0.6232 0.0
C322 C 0.14085 0.09715 0.59046 0.0
C323 C 0.16988 0.11375 0.57233 0.0
C324 C 0.18471 0.1445 0.58724 0.0
C325 C 0.21651 0.15723 0.56462 0.0
C326 C 0.21752 0.12952 0.53333 0.0
C327 C 0.18994 0.10442 0.53801 0.0
C328 C 0.25052 0.1556 0.58986 0.0
C329 C 0.20767 0.19488 0.54948 0.0
C330 C 0.14668 0.00076 0.45883 0.0
C331 C 0.1579 0.98622 0.42443 0.0
C332 C 0.1886 0.00049 0.40661 0.0
C333 C 0.20716 0.0295 0.42244 0.0
C334 C 0.19496 0.04427 0.45649 0.0
C335 C 0.16546 0.0295 0.47423 0.0
C336 C 0.15609 0.04829 0.51013 0.0
C337 C 0.18473 0.07703 0.51108 0.0
C338 C 0.20734 0.07475 0.47959 0.0
C339 C 0.16041 0.0214 0.54296 0.0
C340 C 0.11771 0.0641 0.50574 0.0
H341 H 0.28166 0.18909 0.53241 0.0
H342 H 0.3187 0.14214 0.4078 0.0
H343 H 0.23127 0.14066 0.4059 0.0
H344 H 0.2192 0.0957 0.39906 0.0
H345 H 0.26142 0.11169 0.3809 0.0
H346 H 0.30948 0.07403 0.46137 0.0
H347 H 0.30104 0.07071 0.41183 0.0
H348 H 0.27457 0.0462 0.44563 0.0
H349 H 0.18261 0.18433 0.63133 0.0
H350 H 0.10436 0.0993 0.63692 0.0
H351 H 0.12831 0.07319 0.58053 0.0
H352 H 0.2478 0.13493 0.6121 0.0
H353 H 0.25547 0.18151 0.6041 0.0
H354 H 0.27491 0.14775 0.57405 0.0
H355 H 0.17979 0.19569 0.53804 0.0
H356 H 0.22529 0.20318 0.52616 0.0
H357 H 0.20956 0.21511 0.57222 0.0
H358 H 0.3317 0.21614 0.50022 0.0
C359 C 0.28901 0.17817 0.50564 0.0
C360 C 0.16861 4e-05 0.93423 0.0
C361 C 0.14181 0.02065 0.95173 0.0
C362 C 0.13024 0.01161 0.98815 0.0
C363 C 0.16987 0.96055 0.98817 0.0
C364 C 0.18241 0.97023 0.95307 0.0
C365 C 0.21053 0.94474 0.93865 0.0
H366 H 0.30474 0.79205 0.96348 0.0
C367 C 0.18711 0.92667 -0.00131 0.0
C368 C 0.2111 0.91723 0.96999 0.0
H369 H 0.31894 0.87122 0.87659 0.0
H370 H 0.26915 0.90533 0.90182 0.0
H371 H 0.29711 0.84793 0.03041 0.0
H372 H 0.21754 0.79251 0.96421 0.0
H373 H 0.20152 0.79409 0.01061 0.0
H374 H 0.24279 0.77056 0.00044 0.0
H375 H 0.28996 0.80068 0.03351 0.0
H376 H 0.26377 0.8315 0.06094 0.0
C377 C 0.24674 0.96512 0.93549 0.0
C378 C 0.19701 0.9286 0.90115 0.0
C379 C 0.14788 0.86488 0.11804 0.0
C380 C 0.15589 0.8317 0.13405 0.0
C381 C 0.18002 0.80864 0.11567 0.0
C382 C 0.19662 0.81909 0.08193 0.0
C383 C 0.18855 0.85272 0.06644 0.0
C384 C 0.16427 0.87474 0.08443 0.0
C385 C 0.15712 0.90853 0.06325 0.0
C386 C 0.18159 0.90359 0.02965 0.0
C387 C 0.20014 0.87109 0.03173 0.0
C388 C 0.16923 0.9403 0.08817 0.0
C389 C 0.11671 0.90896 0.05198 0.0
C390 C 0.2972 0.81683 0.95 0.0
C391 C 0.31607 0.8294 0.91849 0.0
C392 C 0.30482 0.86118 0.90102 0.0
C393 C 0.27619 0.88104 0.9159 0.0
C394 C 0.25876 0.86896 0.94857 0.0
C395 C 0.2692 0.83719 0.96488 0.0
C396 C 0.24881 0.82912 0.00032 0.0
C397 C 0.22503 0.86178 0.00319 0.0
C398 C 0.23064 0.88482 0.9726 0.0
C399 C 0.27612 0.82692 0.03318 0.0
C400 C 0.2266 0.79467 0.99395 0.0
H401 H 0.13367 0.97592 0.03385 0.0
H402 H 0.178 0.00659 0.90626 0.0
H403 H 0.16813 0.921 0.90341 0.0
H404 H 0.21136 0.90399 0.89317 0.0
H405 H 0.19958 0.94812 0.87785 0.0
H406 H 0.24807 0.9877 0.95575 0.0
H407 H 0.25051 0.9763 0.90687 0.0
H408 H 0.27017 0.94827 0.94269 0.0
H409 H 0.12854 0.88263 0.13109 0.0
H410 H 0.18611 0.78275 0.12752 0.0
H411 H 0.21496 0.80059 0.06917 0.0
H412 H 0.19359 0.93329 0.10481 0.0
H413 H 0.14777 0.94802 0.10832 0.0
H414 H 0.17723 0.96395 0.07166 0.0
H415 H 0.10617 0.88145 0.04786 0.0
H416 H 0.11173 0.92229 0.0248 0.0
H417 H 0.10002 0.92187 0.07402 0.0
H418 H 0.10919 0.02679 0.00187 0.0
C419 C 0.14419 0.98178 0.00649 0.0
C420 C 0.6843 0.14161 0.43229 0.0
C421 C 0.66615 0.17088 0.4482 0.0
C422 C 0.67382 0.18065 0.48565 0.0
C423 C 0.72072 0.13625 0.4887 0.0
C424 C 0.71127 0.12451 0.4532 0.0
C425 C 0.73329 0.0928 0.44115 0.0
H426 H 0.87548 0.98432 0.47412 0.0
C427 C 0.75132 0.11477 0.50196 0.0
C428 C 0.75841 0.08866 0.47462 0.0
H429 H 0.80116 0.97978 0.38072 0.0
H430 H 0.76676 0.02839 0.40758 0.0
H431 H 0.88159 0.06744 0.47745 0.0
H432 H 0.81585 0.99266 0.53766 0.0
H433 H 0.82747 0.02585 0.57028 0.0
H434 H 0.86248 -0.00056 0.54867 0.0
H435 H 0.89904 0.03901 0.51365 0.0
H436 H 0.88046 0.08225 0.52417 0.0
C437 C 0.75392 0.10285 0.4049 0.0
C438 C 0.70773 0.06041 0.43672 0.0
C439 C 0.82003 0.15308 0.61917 0.0
C440 C 0.85037 0.13877 0.63712 0.0
C441 C 0.86638 0.10756 0.62304 0.0
C442 C 0.85271 0.09086 0.59099 0.0
C443 C 0.82265 0.10554 0.57277 0.0
C444 C 0.80646 0.13583 0.58713 0.0
C445 C 0.7739 0.14659 0.56463 0.0
C446 C 0.77407 0.11837 0.53382 0.0
C447 C 0.80284 0.09471 0.53871 0.0
C448 C 0.7808 0.18444 0.5489 0.0
C449 C 0.74017 0.14368 0.59017 0.0
C450 C 0.85149 0.9934 0.45969 0.0
C451 C 0.8412 0.97847 0.42514 0.0
C452 C 0.80999 0.99133 0.40707 0.0
C453 C 0.78998 0.01939 0.4228 0.0
C454 C 0.80131 0.03467 0.45695 0.0
C455 C 0.8313 0.0212 0.47498 0.0
C456 C 0.8396 0.04041 0.51094 0.0
C457 C 0.80953 0.06765 0.51177 0.0
C458 C 0.78733 0.06445 0.47997 0.0
C459 C 0.87716 0.0581 0.50677 0.0
C460 C 0.83652 0.01336 0.54375 0.0
H461 H 0.7062 0.17292 0.53383 0.0
H462 H 0.67834 0.13285 0.40395 0.0
H463 H 0.6845 0.06228 0.45635 0.0
H464 H 0.7209 0.03488 0.4439 0.0
H465 H 0.69675 0.05876 0.40772 0.0
H466 H 0.76578 0.12998 0.40751 0.0
H467 H 0.73563 0.10288 0.38018 0.0
H468 H 0.77671 0.08493 0.3989 0.0
H469 H 0.80707 0.1768 0.63004 0.0
H470 H 0.88971 0.09621 0.63688 0.0
H471 H 0.86626 0.06727 0.58156 0.0
H472 H 0.80801 0.18602 0.53595 0.0
H473 H 0.77946 0.20467 0.57168 0.0
H474 H 0.76167 0.19227 0.52673 0.0
H475 H 0.74485 0.12563 0.61449 0.0
H476 H 0.71685 0.13187 0.57522 0.0
H477 H 0.73234 0.17011 0.60166 0.0
H478 H 0.65895 0.20187 0.49926 0.0
C479 C 0.70112 0.16369 0.50583 0.0
Sc480 Sc 0.00222 0.76623 0.30492 0.0
Sc481 Sc 0.00239 0.86027 0.3009 0.0
Sc482 Sc 0.00347 0.81809 0.38824 0.0
O483 O 0.00268 0.81473 0.33132 0.0
C484 C 0.94975 0.7526 0.37379 0.0
C485 C 0.94792 0.8116 0.25459 0.0
C486 C 0.94783 0.87947 0.36717 0.0
C487 C 0.05688 0.81078 0.25495 0.0
C488 C 0.05749 0.75427 0.37301 0.0
C489 C 0.05643 0.88206 0.36598 0.0
O490 O 0.95936 0.74666 0.34008 0.0
O491 O 0.95989 0.84136 0.26595 0.0
O492 O 0.95959 0.85574 0.38957 0.0
O493 O 0.04516 0.78106 0.26702 0.0
O494 O 0.04709 0.78109 0.39188 0.0
O495 O 0.04485 0.88453 0.33258 0.0
O496 O 0.04288 0.74458 0.34226 0.0
O497 O 0.04317 0.84058 0.26394 0.0
O498 O 0.04324 0.86013 0.38945 0.0
O499 O 0.96138 0.78185 0.26441 0.0
O500 O 0.96434 0.77623 0.39442 0.0
O501 O 0.96161 0.88476 0.335 0.0
Sc502 Sc 0.99443 0.22978 0.80484 0.0
Sc503 Sc 0.99402 0.13573 0.81141 0.0
Sc504 Sc 0.99268 0.1866 0.89341 0.0
O505 O 0.99367 0.18419 0.83647 0.0
C506 C 0.04896 0.24702 0.87214 0.0
C507 C 0.04904 0.17965 0.76034 0.0
C508 C 0.04606 0.12103 0.88009 0.0
C509 C 0.94017 0.17975 0.75942 0.0
C510 C 0.94142 0.25172 0.87117 0.0
C511 C 0.93751 0.12362 0.8779 0.0
O512 O 0.03578 0.25386 0.83987 0.0
O513 O 0.03552 0.1511 0.77319 0.0
O514 O 0.03175 0.14485 0.90053 0.0
O515 O 0.95318 0.21044 0.76655 0.0
O516 O 0.95422 0.22906 0.894 0.0
O517 O 0.9524 0.11493 0.84709 0.0
O518 O 0.95204 0.25445 0.83733 0.0
O519 O 0.95244 0.15121 0.77356 0.0
O520 O 0.94838 0.14971 0.89771 0.0
O521 O 0.03704 0.21046 0.76849 0.0
O522 O 0.03673 0.22309 0.89386 0.0
O523 O 0.03579 0.11495 0.8467 0.0
Sc524 Sc 0.49925 0.2664 0.30734 0.0
Sc525 Sc 0.49734 0.36054 0.3025 0.0
Sc526 Sc 0.50339 0.31935 0.38976 0.0
O527 O 0.49996 0.31522 0.33314 0.0
C528 C 0.4474 0.25583 0.37828 0.0
C529 C 0.44456 0.30959 0.25607 0.0
C530 C 0.44714 0.38114 0.36976 0.0
C531 C 0.55247 0.31265 0.25615 0.0
C532 C 0.55511 0.25307 0.37366 0.0
C533 C 0.55359 0.38302 0.36628 0.0
O534 O 0.45964 0.24593 0.34647 0.0
O535 O 0.45819 0.33939 0.26486 0.0
O536 O 0.46481 0.36221 0.39292 0.0
O537 O 0.53906 0.28285 0.26624 0.0
O538 O 0.54271 0.27793 0.39402 0.0
O539 O 0.53574 0.38903 0.33653 0.0
O540 O 0.54277 0.24567 0.34127 0.0
O541 O 0.54096 0.3426 0.26792 0.0
O542 O 0.54753 0.35663 0.38766 0.0
O543 O 0.45559 0.28018 0.26951 0.0
O544 O 0.45965 0.28239 0.39653 0.0
O545 O 0.45335 0.38155 0.33472 0.0
Sc546 Sc 0.49777 0.73157 0.80437 0.0
Sc547 Sc 0.50474 0.638 0.80762 0.0
Sc548 Sc 0.49284 0.6858 0.89105 0.0
O549 O 0.49835 0.68522 0.83434 0.0
C550 C 0.54514 0.75203 0.8757 0.0
C551 C 0.5586 0.68643 0.76178 0.0
C552 C 0.55205 0.62539 0.8812 0.0
C553 C 0.45204 0.68058 0.75231 0.0
C554 C 0.43878 0.74715 0.86775 0.0
C555 C 0.4449 0.61833 0.86797 0.0
O556 O 0.53795 0.75534 0.84083 0.0
O557 O 0.54995 0.65697 0.77668 0.0
O558 O 0.53723 0.65008 0.90002 0.0
O559 O 0.45744 0.71153 0.76582 0.0
O560 O 0.44852 0.72195 0.88919 0.0
O561 O 0.45993 0.61412 0.83622 0.0
O562 O 0.45439 0.75439 0.83692 0.0
O563 O 0.46861 0.6529 0.76336 0.0
O564 O 0.45463 0.64242 0.89106 0.0
O565 O 0.54088 0.71504 0.76701 0.0
O566 O 0.53007 0.72909 0.89673 0.0
O567 O 0.54216 0.61736 0.84812 0.0
C568 C 0.13852 0.26417 0.91818 0.0
C569 C 0.14023 0.3016 0.92009 0.0
C570 C 0.10931 0.24692 0.90145 0.0
C571 C 0.081 0.26639 0.88525 0.0
H572 H 0.15971 0.24797 0.93024 0.0
H573 H 0.10862 0.21803 0.90161 0.0
S574 S 0.07238 0.36462 0.8819 0.0
N575 N 0.11081 0.35762 0.90409 0.0
N576 N 0.05642 0.32478 0.87116 0.0
C577 C 0.0828 0.30371 0.8855 0.0
C578 C 0.11234 0.32144 0.90324 0.0
C579 C 0.89042 0.70761 0.44591 0.0
C580 C 0.8606 0.69624 0.42468 0.0
C581 C 0.91941 0.72512 0.429 0.0
C582 C 0.91995 0.73161 0.39009 0.0
H583 H 0.8912 0.7033 0.47601 0.0
H584 H 0.94151 0.73385 0.44665 0.0
S585 S 0.8485 0.70731 0.3218 0.0
N586 N 0.83323 0.69289 0.36263 0.0
N587 N 0.88831 0.72508 0.33061 0.0
C588 C 0.8908 0.71954 0.36826 0.0
C589 C 0.861 0.702 0.3856 0.0
C590 C 0.85678 0.30849 0.87363 0.0
C591 C 0.85355 0.31678 0.91206 0.0
C592 C 0.88584 0.2882 0.86027 0.0
C593 C 0.91249 0.27544 0.88496 0.0
H594 H 0.83626 0.31697 0.85393 0.0
H595 H 0.88683 0.2816 0.83064 0.0
S596 S 0.91874 0.29405 0.9873 0.0
N597 N 0.88119 0.31382 0.9739 0.0
N598 N 0.93541 0.27536 0.94909 0.0
C599 C 0.91019 0.28477 0.92321 0.0
C600 C 0.88082 0.30551 0.93669 0.0
C601 C 0.14368 0.73328 0.42482 0.0
C602 C 0.1448 0.6958 0.42448 0.0
C603 C 0.11576 0.75186 0.40724 0.0
C604 C 0.08811 0.73375 0.38813 0.0
H605 H 0.16437 0.74844 0.43919 0.0
H606 H 0.11569 0.78071 0.40889 0.0
S607 S 0.07838 0.63583 0.37864 0.0
N608 N 0.11555 0.64118 0.40351 0.0
N609 N 0.06362 0.67639 0.3693 0.0
C610 C 0.08938 0.69637 0.38644 0.0
C611 C 0.1176 0.67732 0.40488 0.0
C612 C 0.63307 0.80211 0.88855 0.0
C613 C 0.63375 0.80818 0.92757 0.0
C614 C 0.60347 0.78542 0.8714 0.0
C615 C 0.57368 0.77425 0.89281 0.0
H616 H 0.65614 0.80904 0.87143 0.0
H617 H 0.60465 0.77981 0.84156 0.0
S618 S 0.56012 0.78944 0.99498 0.0
N619 N 0.60056 0.80569 0.9863 0.0
N620 N 0.54505 0.77426 0.95435 0.0
C621 C 0.57328 0.78213 0.9315 0.0
C622 C 0.6033 0.79909 0.94883 0.0
C623 C 0.36126 0.23695 0.43121 0.0
C624 C 0.35936 0.19946 0.43132 0.0
C625 C 0.38973 0.25486 0.41373 0.0
C626 C 0.41707 0.23604 0.39502 0.0
H627 H 0.34053 0.2527 0.44472 0.0
H628 H 0.3902 0.28373 0.41466 0.0
S629 S 0.42575 0.13787 0.388 0.0
N630 N 0.38838 0.14412 0.41225 0.0
N631 N 0.44108 0.17807 0.37793 0.0
C632 C 0.41541 0.19866 0.39433 0.0
C633 C 0.38674 0.1803 0.41279 0.0
C634 C 0.35283 0.80168 0.86702 0.0
C635 C 0.34846 0.81016 0.90529 0.0
C636 C 0.38262 0.78185 0.85468 0.0
C637 C 0.40867 0.7697 0.88033 0.0
H638 H 0.3327 0.80969 0.84667 0.0
H639 H 0.38474 0.77515 0.82514 0.0
S640 S 0.41219 0.78907 0.9825 0.0
N641 N 0.37471 0.80821 0.96793 0.0
N642 N 0.43 0.77023 0.94493 0.0
C643 C 0.40523 0.7791 0.91837 0.0
C644 C 0.37529 0.79953 0.93081 0.0
C645 C 0.61297 0.17506 0.4045 0.0
C646 C 0.63989 0.19198 0.426 0.0
C647 C 0.58627 0.195 0.38602 0.0
C648 C 0.58552 0.23238 0.38888 0.0
H649 H 0.61179 0.14624 0.40301 0.0
H650 H 0.56527 0.18105 0.37081 0.0
S651 S 0.65276 0.28954 0.43693 0.0
N652 N 0.66657 0.24846 0.44492 0.0
N653 N 0.61571 0.28565 0.41164 0.0
C654 C 0.61318 0.24959 0.40877 0.0
C655 C 0.64054 0.22946 0.42695 0.0
C656 C 0.37893 0.5679 0.92974 0.0
C657 C 0.3672 0.53998 0.90638 0.0
C658 C 0.40291 0.59384 0.91662 0.0
C659 C 0.41632 0.59282 0.87959 0.0
H660 H 0.37011 0.56926 0.95873 0.0
H661 H 0.41177 0.61419 0.93616 0.0
S662 S 0.39177 0.52619 0.80642 0.0
N663 N 0.36929 0.5135 0.8441 0.0
N664 N 0.4139 0.56247 0.81896 0.0
C665 C 0.40346 0.5658 0.85541 0.0
C666 C 0.37901 0.53937 0.8689 0.0
C667 C 0.59109 0.47192 0.39641 0.0
C668 C 0.62707 0.46397 0.40532 0.0
C669 C 0.56783 0.44556 0.38282 0.0
C670 C 0.57957 0.41021 0.37849 0.0
H671 H 0.5808 0.4987 0.4003 0.0
H672 H 0.54016 0.45265 0.37666 0.0
S673 S 0.67156 0.3761 0.39609 0.0
N674 N 0.67383 0.41879 0.4073 0.0
N675 N 0.62961 0.36878 0.38255 0.0
C676 C 0.61555 0.40195 0.38675 0.0
C677 C 0.63949 0.42901 0.39989 0.0
C678 C 0.61454 0.54765 0.90054 0.0
C679 C 0.62833 0.55559 0.93633 0.0
C680 C 0.59111 0.57112 0.88228 0.0
C681 C 0.58047 0.60343 0.89919 0.0
H682 H 0.62035 0.52224 0.88736 0.0
H683 H 0.5801 0.56301 0.8554 0.0
S684 S 0.61411 0.63902 0.99019 0.0
N685 N 0.63343 0.59957 0.98618 0.0
N686 N 0.58927 0.64394 0.95204 0.0
C687 C 0.59605 0.61271 0.93399 0.0
C688 C 0.61997 0.58872 0.95252 0.0
C689 C 0.35914 0.42886 0.38855 0.0
C690 C 0.36941 0.45478 0.41516 0.0
C691 C 0.38451 0.40511 0.3734 0.0
C692 C 0.42067 0.40631 0.38488 0.0
H693 H 0.33129 0.42658 0.37983 0.0
H694 H 0.37572 0.38531 0.35319 0.0
S695 S 0.46238 0.47161 0.44967 0.0
N696 N 0.41931 0.48244 0.44891 0.0
N697 N 0.46624 0.43662 0.4218 0.0
C698 C 0.43147 0.43244 0.41062 0.0
C699 C 0.40601 0.45701 0.42543 0.0
C700 C 0.86832 0.04923 0.88199 0.0
C701 C 0.8553 0.05148 0.91893 0.0
C702 C 0.8938 0.07357 0.86859 0.0
C703 C 0.90729 0.10115 0.89163 0.0
H704 H 0.86018 0.02741 0.8639 0.0
H705 H 0.90381 0.06988 0.84027 0.0
S706 S 0.87737 0.12134 0.98902 0.0
N707 N 0.85437 0.0854 0.97708 0.0
N708 N 0.90243 0.13128 0.95218 0.0
C709 C 0.89259 0.105 0.92793 0.0
C710 C 0.86663 0.0801 0.94152 0.0
C711 C 0.12412 0.92875 0.42923 0.0
C712 C 0.1362 0.95736 0.40703 0.0
C713 C 0.0993 0.90395 0.41531 0.0
C714 C 0.08546 0.9067 0.37856 0.0
H715 H 0.13326 0.92603 0.45801 0.0
H716 H 0.09027 0.88298 0.43397 0.0
S717 S 0.11062 0.97558 0.30812 0.0
N718 N 0.1339 0.98627 0.34601 0.0
N719 N 0.08784 0.93935 0.31932 0.0
C720 C 0.09874 0.93429 0.35541 0.0
C721 C 0.12397 0.95965 0.36974 0.0
C722 C 0.10663 0.0412 0.8963 0.0
C723 C 0.12282 0.0491 0.93101 0.0
C724 C 0.08295 0.06529 0.87927 0.0
C725 C 0.07452 0.09811 0.89642 0.0
H726 H 0.11078 0.01545 0.88318 0.0
H727 H 0.07 0.05734 0.8533 0.0
S728 S 0.11501 0.13364 0.98433 0.0
N729 N 0.13256 0.09344 0.97972 0.0
N730 N 0.08806 0.13897 0.94785 0.0
C731 C 0.09253 0.10725 0.92995 0.0
C732 C 0.11665 0.08267 0.94722 0.0
C733 C 0.87752 0.92261 0.42994 0.0
C734 C 0.86439 0.9508 0.40781 0.0
C735 C 0.90358 0.89906 0.41615 0.0
C736 C 0.91768 0.90275 0.37962 0.0
H737 H 0.86822 0.91926 0.45858 0.0
H738 H 0.91337 0.87841 0.43478 0.0
S739 S 0.89001 0.97087 0.30936 0.0
N740 N 0.86595 0.98023 0.34705 0.0
N741 N 0.91434 0.93565 0.32058 0.0
C742 C 0.90341 0.92991 0.35653 0.0
C743 C 0.87689 0.95395 0.37072 0.0
C744 C 0.37039 0.34746 0.19685 0.0
C745 C 0.37307 0.32739 0.1637 0.0
C746 C 0.39135 0.33912 0.22824 0.0
C747 C 0.41579 0.31048 0.22751 0.0
H748 H 0.35382 0.37123 0.19759 0.0
H749 H 0.3902 0.35671 0.2524 0.0
S750 S 0.42979 0.24753 0.14858 0.0
N751 N 0.39928 0.27588 0.13277 0.0
N752 N 0.43897 0.26004 0.19211 0.0
C753 C 0.41646 0.28836 0.19564 0.0
C754 C 0.39503 0.29695 0.16352 0.0
C755 C 0.60452 0.69754 0.66808 0.0
C756 C 0.62938 0.66936 0.66867 0.0
C757 C 0.58388 0.70562 0.7 0.0
C758 C 0.58735 0.6854 0.73313 0.0
H759 H 0.59911 0.71157 0.64208 0.0
H760 H 0.56304 0.72568 0.69761 0.0
S761 S 0.65344 0.61304 0.7502 0.0
N762 N 0.65983 0.62444 0.70588 0.0
N763 N 0.62134 0.63955 0.76603 0.0
C764 C 0.61462 0.65942 0.73487 0.0
C765 C 0.63553 0.65133 0.7025 0.0
C766 C 0.6316 0.34714 0.20061 0.0
C767 C 0.63306 0.32382 0.16975 0.0
C768 C 0.60667 0.34205 0.22946 0.0
C769 C 0.58227 0.31336 0.22864 0.0
H770 H 0.64873 0.37053 0.20152 0.0
H771 H 0.60562 0.36157 0.25192 0.0
S772 S 0.57725 0.24303 0.15546 0.0
N773 N 0.60982 0.26972 0.14105 0.0
N774 N 0.56293 0.25978 0.19573 0.0
C775 C 0.58508 0.28842 0.19922 0.0
C776 C 0.61052 0.29375 0.16963 0.0
C777 C 0.413 0.64494 0.66279 0.0
C778 C 0.37578 0.65016 0.6676 0.0
C779 C 0.43768 0.6571 0.68943 0.0
C780 C 0.42619 0.67555 0.72153 0.0
H781 H 0.42307 0.63005 0.63889 0.0
H782 H 0.46593 0.65081 0.68561 0.0
S783 S 0.33226 0.69903 0.74595 0.0
N784 N 0.32877 0.67701 0.70583 0.0
N785 N 0.37572 0.70071 0.75582 0.0
C786 C 0.38941 0.68317 0.72563 0.0
C787 C 0.36402 0.67033 0.69858 0.0
C788 C 0.89785 0.80155 0.1629 0.0
C789 C 0.87303 0.82974 0.16527 0.0
C790 C 0.92013 0.79307 0.19358 0.0
C791 C 0.91827 0.81291 0.22709 0.0
H792 H 0.90195 0.78788 0.13641 0.0
H793 H 0.94086 0.77306 0.18993 0.0
S794 S 0.85347 0.8852 0.24889 0.0
N795 N 0.84463 0.87423 0.20487 0.0
N796 N 0.88633 0.8585 0.26245 0.0
C797 C 0.89126 0.83892 0.23068 0.0
C798 C 0.86866 0.84735 0.1997 0.0
C799 C 0.10356 0.18885 0.67103 0.0
C800 C 0.12563 0.15846 0.67271 0.0
C801 C 0.08054 0.19755 0.701 0.0
C802 C 0.07886 0.17583 0.7332 0.0
H803 H 0.10223 0.20444 0.64544 0.0
H804 H 0.06215 0.21974 0.69777 0.0
S805 S 0.13612 0.09709 0.75338 0.0
N806 N 0.14795 0.10953 0.71062 0.0
N807 N 0.105 0.12573 0.76699 0.0
C808 C 0.10317 0.14723 0.7363 0.0
C809 C 0.12649 0.13854 0.70598 0.0
C810 C 0.11408 0.79174 0.16935 0.0
C811 C 0.13727 0.82139 0.169 0.0
C812 C 0.08949 0.78677 0.19885 0.0
C813 C 0.08736 0.81151 0.2285 0.0
H814 H 0.11323 0.77375 0.14553 0.0
H815 H 0.07046 0.76493 0.19711 0.0
S816 S 0.14705 0.8895 0.24381 0.0
N817 N 0.16024 0.87264 0.2032 0.0
N818 N 0.11398 0.86357 0.25843 0.0
C819 C 0.11255 0.83944 0.22991 0.0
C820 C 0.13757 0.84431 0.20017 0.0
C821 C 0.88924 0.18458 0.66766 0.0
C822 C 0.86579 0.15533 0.67098 0.0
C823 C 0.9114 0.19479 0.69784 0.0
C824 C 0.91079 0.1757 0.73184 0.0
H825 H 0.89224 0.19798 0.64088 0.0
H826 H 0.93097 0.21581 0.69353 0.0
S827 S 0.84966 0.10088 0.75597 0.0
N828 N 0.84002 0.11034 0.71176 0.0
N829 N 0.8813 0.12944 0.76858 0.0
C830 C 0.88515 0.14841 0.73628 0.0
C831 C 0.86274 0.13816 0.70573 0.0
loop_
_geom_bond_atom_site_label_1
_geom_bond_atom_site_label_2
_geom_bond_distance
_geom_bond_site_symmetry_2
_ccdc_geom_bond_type
C0 C1 1.391 . S
C0 C4 1.391 . S
C0 H42 0.948 . S
C1 C0 1.391 . S
C1 C2 1.391 . S
C2 C1 1.391 . S
C2 H58 0.947 . S
C2 C59 1.392 . S
C3 C4 1.391 . S
C3 C7 1.397 . S
C3 C59 1.419 . S
C4 C0 1.391 . S
C4 C3 1.391 . S
C4 C5 1.399 . S
C5 C4 1.399 . S
C5 C8 1.396 . S
C5 C17 1.453 . S
C5 C18 1.684 . S
H6 C30 0.948 . S
C7 C3 1.397 . S
C7 C8 1.394 . S
C7 C26 1.723 . S
C8 C5 1.396 . S
C8 C7 1.394 . S
C8 C38 1.723 . S
H9 C32 0.947 1_554 S
H10 C33 0.948 . S
H11 C39 0.982 . S
H12 C40 0.979 . S
H13 C40 0.980 . S
H14 C40 0.983 . S
H15 C39 0.979 . S
H16 C39 0.977 . S
C17 C5 1.453 . S
C17 H46 0.982 . S
C17 H47 0.979 . S
C17 H48 0.977 . S
C18 C5 1.684 . S
C18 H43 0.979 . S
C18 H44 0.980 . S
C18 H45 0.983 . S
C19 C20 1.391 . S
C19 C24 1.391 . S
C19 H49 0.948 . S
C20 C19 1.391 . S
C20 C21 1.391 . S
C21 C20 1.391 . S
C21 C22 1.392 . S
C21 H50 0.947 . S
C22 C21 1.392 . S
C22 C23 1.419 . S
C22 H51 0.948 . S
C23 C22 1.419 . S
C23 C24 1.391 . S
C23 C27 1.397 . S
C24 C19 1.391 . S
C24 C23 1.391 . S
C24 C25 1.399 1_556 S
C25 C24 1.399 1_554 S
C25 C26 1.396 . S
C25 C28 1.453 . S
C25 C29 1.684 . S
C26 C7 1.723 . S
C26 C25 1.396 . S
C26 C27 1.394 1_554 S
C27 C23 1.397 . S
C27 C26 1.394 1_556 S
C27 C37 1.723 . S
C28 C25 1.453 . S
C28 H52 0.982 . S
C28 H53 0.979 . S
C28 H54 0.977 . S
C29 C25 1.684 . S
C29 H55 0.979 . S
C29 H56 0.980 . S
C29 H57 0.983 . S
C30 H6 0.948 . S
C30 C31 1.391 . S
C30 C35 1.391 . S
C31 C30 1.391 . S
C31 C32 1.391 . S
C32 H9 0.947 1_556 S
C32 C31 1.391 . S
C32 C33 1.392 1_556 S
C33 H10 0.948 . S
C33 C32 1.392 1_554 S
C33 C34 1.419 1_554 S
C34 C33 1.419 1_556 S
C34 C35 1.391 . S
C34 C38 1.397 1_556 S
C35 C30 1.391 . S
C35 C34 1.391 . S
C35 C36 1.399 . S
C36 C35 1.399 . S
C36 C37 1.396 . S
C36 C39 1.453 . S
C36 C40 1.684 . S
C37 C27 1.723 . S
C37 C36 1.396 . S
C37 C38 1.394 1_556 S
C38 C8 1.723 . S
C38 C34 1.397 1_554 S
C38 C37 1.394 1_554 S
C39 H11 0.982 . S
C39 H15 0.979 . S
C39 H16 0.977 . S
C39 C36 1.453 . S
C40 H12 0.979 . S
C40 H13 0.980 . S
C40 H14 0.983 . S
C40 C36 1.684 . S
H41 C59 0.948 . S
H42 C0 0.948 . S
H43 C18 0.979 . S
H44 C18 0.980 . S
H45 C18 0.983 . S
H46 C17 0.982 . S
H47 C17 0.979 . S
H48 C17 0.977 . S
H49 C19 0.948 . S
H50 C21 0.947 . S
H51 C22 0.948 . S
H52 C28 0.982 . S
H53 C28 0.979 . S
H54 C28 0.977 . S
H55 C29 0.979 . S
H56 C29 0.980 . S
H57 C29 0.983 . S
H58 C2 0.947 . S
C59 C2 1.392 . S
C59 C3 1.419 . S
C59 H41 0.948 . S
C60 C61 1.391 . S
C60 C64 1.391 . S
C60 H102 0.948 . S
C61 C60 1.391 . S
C61 C62 1.391 . S
C62 C61 1.391 . S
C62 H118 0.947 . S
C62 C119 1.392 . S
C63 C64 1.391 . S
C63 C67 1.397 . S
C63 C119 1.419 . S
C64 C60 1.391 . S
C64 C63 1.391 . S
C64 C65 1.399 . S
C65 C64 1.399 . S
C65 C68 1.396 . S
C65 C77 1.453 . S
C65 C78 1.684 . S
H66 C90 0.948 . S
C67 C63 1.397 . S
C67 C68 1.394 . S
C67 C86 1.723 . S
C68 C65 1.396 . S
C68 C67 1.394 . S
C68 C98 1.723 . S
H69 C92 0.947 . S
H70 C93 0.948 . S
H71 C99 0.982 . S
H72 C100 0.979 . S
H73 C100 0.980 . S
H74 C100 0.983 . S
H75 C99 0.979 . S
H76 C99 0.977 . S
C77 C65 1.453 . S
C77 H106 0.982 . S
C77 H107 0.979 . S
C77 H108 0.977 . S
C78 C65 1.684 . S
C78 H103 0.979 . S
C78 H104 0.980 . S
C78 H105 0.983 . S
C79 C80 1.391 . S
C79 C84 1.391 . S
C79 H109 0.948 . S
C80 C79 1.391 . S
C80 C81 1.391 . S
C81 C80 1.391 . S
C81 C82 1.392 . S
C81 H110 0.947 . S
C82 C81 1.392 . S
C82 C83 1.419 . S
C82 H111 0.948 . S
C83 C82 1.419 . S
C83 C84 1.391 . S
C83 C87 1.397 . S
C84 C79 1.391 . S
C84 C83 1.391 . S
C84 C85 1.399 . S
C85 C84 1.399 . S
C85 C86 1.396 . S
C85 C88 1.453 . S
C85 C89 1.684 . S
C86 C67 1.723 . S
C86 C85 1.396 . S
C86 C87 1.394 . S
C87 C83 1.397 . S
C87 C86 1.394 . S
C87 C97 1.723 . S
C88 C85 1.453 . S
C88 H112 0.982 . S
C88 H113 0.979 . S
C88 H114 0.977 . S
C89 C85 1.684 . S
C89 H115 0.979 . S
C89 H116 0.980 . S
C89 H117 0.983 . S
C90 H66 0.948 . S
C90 C91 1.391 . S
C90 C95 1.391 . S
C91 C90 1.391 . S
C91 C92 1.391 . S
C92 H69 0.947 . S
C92 C91 1.391 . S
C92 C93 1.392 . S
C93 H70 0.948 . S
C93 C92 1.392 . S
C93 C94 1.419 . S
C94 C93 1.419 . S
C94 C95 1.391 . S
C94 C98 1.397 . S
C95 C90 1.391 . S
C95 C94 1.391 . S
C95 C96 1.399 . S
C96 C95 1.399 . S
C96 C97 1.396 . S
C96 C99 1.453 . S
C96 C100 1.684 . S
C97 C87 1.723 . S
C97 C96 1.396 . S
C97 C98 1.394 . S
C98 C68 1.723 . S
C98 C94 1.397 . S
C98 C97 1.394 . S
C99 H71 0.982 . S
C99 H75 0.979 . S
C99 H76 0.977 . S
C99 C96 1.453 . S
C100 H72 0.979 . S
C100 H73 0.980 . S
C100 H74 0.983 . S
C100 C96 1.684 . S
H101 C119 0.948 . S
H102 C60 0.948 . S
H103 C78 0.979 . S
H104 C78 0.980 . S
H105 C78 0.983 . S
H106 C77 0.982 . S
H107 C77 0.979 . S
H108 C77 0.977 . S
H109 C79 0.948 . S
H110 C81 0.947 . S
H111 C82 0.948 . S
H112 C88 0.982 . S
H113 C88 0.979 . S
H114 C88 0.977 . S
H115 C89 0.979 . S
H116 C89 0.980 . S
H117 C89 0.983 . S
H118 C62 0.947 . S
C119 C62 1.392 . S
C119 C63 1.419 . S
C119 H101 0.948 . S
C120 C121 1.391 . S
C120 C124 1.391 . S
C120 H162 0.948 . S
C121 C120 1.391 . S
C121 C122 1.391 . S
C122 C121 1.391 . S
C122 H178 0.947 . S
C122 C179 1.392 . S
C123 C124 1.391 . S
C123 C127 1.397 . S
C123 C179 1.419 . S
C124 C120 1.391 . S
C124 C123 1.391 . S
C124 C125 1.399 . S
C125 C124 1.399 . S
C125 C128 1.396 . S
C125 C137 1.453 . S
C125 C138 1.684 . S
H126 C150 0.948 . S
C127 C123 1.397 . S
C127 C128 1.394 . S
C127 C146 1.723 1_556 S
C128 C125 1.396 . S
C128 C127 1.394 . S
C128 C158 1.723 . S
H129 C152 0.947 . S
H130 C153 0.948 . S
H131 C159 0.982 . S
H132 C160 0.979 . S
H133 C160 0.980 . S
H134 C160 0.983 . S
H135 C159 0.979 . S
H136 C159 0.977 . S
C137 C125 1.453 . S
C137 H166 0.982 . S
C137 H167 0.979 . S
C137 H168 0.977 . S
C138 C125 1.684 . S
C138 H163 0.979 . S
C138 H164 0.980 . S
C138 H165 0.983 . S
C139 C140 1.391 . S
C139 C144 1.391 . S
C139 H169 0.948 . S
C140 C139 1.391 . S
C140 C141 1.391 . S
C141 C140 1.391 . S
C141 C142 1.392 . S
C141 H170 0.947 . S
C142 C141 1.392 . S
C142 C143 1.419 . S
C142 H171 0.948 . S
C143 C142 1.419 . S
C143 C144 1.391 . S
C143 C147 1.397 . S
C144 C139 1.391 . S
C144 C143 1.391 . S
C144 C145 1.399 . S
C145 C144 1.399 . S
C145 C146 1.396 . S
C145 C148 1.453 . S
C145 C149 1.684 . S
C146 C127 1.723 1_554 S
C146 C145 1.396 . S
C146 C147 1.394 . S
C147 C143 1.397 . S
C147 C146 1.394 . S
C147 C157 1.723 . S
C148 C145 1.453 . S
C148 H172 0.982 . S
C148 H173 0.979 . S
C148 H174 0.977 . S
C149 C145 1.684 . S
C149 H175 0.979 . S
C149 H176 0.980 . S
C149 H177 0.983 . S
C150 H126 0.948 . S
C150 C151 1.391 . S
C150 C155 1.391 . S
C151 C150 1.391 . S
C151 C152 1.391 . S
C152 H129 0.947 . S
C152 C151 1.391 . S
C152 C153 1.392 . S
C153 H130 0.948 . S
C153 C152 1.392 . S
C153 C154 1.419 . S
C154 C153 1.419 . S
C154 C155 1.391 . S
C154 C158 1.397 . S
C155 C150 1.391 . S
C155 C154 1.391 . S
C155 C156 1.399 1_556 S
C156 C155 1.399 1_554 S
C156 C157 1.396 . S
C156 C159 1.453 . S
C156 C160 1.684 . S
C157 C147 1.723 . S
C157 C156 1.396 . S
C157 C158 1.394 1_554 S
C158 C128 1.723 . S
C158 C154 1.397 . S
C158 C157 1.394 1_556 S
C159 H131 0.982 . S
C159 H135 0.979 . S
C159 H136 0.977 . S
C159 C156 1.453 . S
C160 H132 0.979 . S
C160 H133 0.980 . S
C160 H134 0.983 . S
C160 C156 1.684 . S
H161 C179 0.948 1_554 S
H162 C120 0.948 . S
H163 C138 0.979 . S
H164 C138 0.980 . S
H165 C138 0.983 . S
H166 C137 0.982 . S
H167 C137 0.979 . S
H168 C137 0.977 . S
H169 C139 0.948 . S
H170 C141 0.947 . S
H171 C142 0.948 . S
H172 C148 0.982 . S
H173 C148 0.979 . S
H174 C148 0.977 . S
H175 C149 0.979 . S
H176 C149 0.980 . S
H177 C149 0.983 . S
H178 C122 0.947 . S
C179 C122 1.392 . S
C179 C123 1.419 . S
C179 H161 0.948 1_556 S
C180 C181 1.391 . S
C180 C184 1.391 . S
C180 H222 0.948 . S
C181 C180 1.391 . S
C181 C182 1.391 . S
C182 C181 1.391 . S
C182 H238 0.947 . S
C182 C239 1.392 . S
C183 C184 1.391 . S
C183 C187 1.397 . S
C183 C239 1.419 . S
C184 C180 1.391 . S
C184 C183 1.391 . S
C184 C185 1.399 . S
C185 C184 1.399 . S
C185 C188 1.396 . S
C185 C197 1.453 . S
C185 C198 1.684 . S
H186 C210 0.948 . S
C187 C183 1.397 . S
C187 C188 1.394 . S
C187 C206 1.723 . S
C188 C185 1.396 . S
C188 C187 1.394 . S
C188 C218 1.723 . S
H189 C212 0.947 . S
H190 C213 0.948 . S
H191 C219 0.982 . S
H192 C220 0.979 . S
H193 C220 0.980 . S
H194 C220 0.983 . S
H195 C219 0.979 . S
H196 C219 0.977 . S
C197 C185 1.453 . S
C197 H226 0.982 . S
C197 H227 0.979 . S
C197 H228 0.977 . S
C198 C185 1.684 . S
C198 H223 0.979 . S
C198 H224 0.980 . S
C198 H225 0.983 . S
C199 C200 1.391 . S
C199 C204 1.391 . S
C199 H229 0.948 . S
C200 C199 1.391 . S
C200 C201 1.391 . S
C201 C200 1.391 . S
C201 C202 1.392 . S
C201 H230 0.947 . S
C202 C201 1.392 . S
C202 C203 1.419 . S
C202 H231 0.948 . S
C203 C202 1.419 . S
C203 C204 1.391 . S
C203 C207 1.397 . S
C204 C199 1.391 . S
C204 C203 1.391 . S
C204 C205 1.399 . S
C205 C204 1.399 . S
C205 C206 1.396 . S
C205 C208 1.453 . S
C205 C209 1.684 . S
C206 C187 1.723 . S
C206 C205 1.396 . S
C206 C207 1.394 . S
C207 C203 1.397 . S
C207 C206 1.394 . S
C207 C217 1.723 . S
C208 C205 1.453 . S
C208 H232 0.982 . S
C208 H233 0.979 . S
C208 H234 0.977 . S
C209 C205 1.684 . S
C209 H235 0.979 . S
C209 H236 0.980 . S
C209 H237 0.983 . S
C210 H186 0.948 . S
C210 C211 1.391 . S
C210 C215 1.391 . S
C211 C210 1.391 . S
C211 C212 1.391 . S
C212 H189 0.947 . S
C212 C211 1.391 . S
C212 C213 1.392 . S
C213 H190 0.948 . S
C213 C212 1.392 . S
C213 C214 1.419 . S
C214 C213 1.419 . S
C214 C215 1.391 . S
C214 C218 1.397 . S
C215 C210 1.391 . S
C215 C214 1.391 . S
C215 C216 1.399 . S
C216 C215 1.399 . S
C216 C217 1.396 . S
C216 C219 1.453 . S
C216 C220 1.684 . S
C217 C207 1.723 . S
C217 C216 1.396 . S
C217 C218 1.394 . S
C218 C188 1.723 . S
C218 C214 1.397 . S
C218 C217 1.394 . S
C219 H191 0.982 . S
C219 H195 0.979 . S
C219 H196 0.977 . S
C219 C216 1.453 . S
C220 H192 0.979 . S
C220 H193 0.980 . S
C220 H194 0.983 . S
C220 C216 1.684 . S
H221 C239 0.948 . S
H222 C180 0.948 . S
H223 C198 0.979 . S
H224 C198 0.980 . S
H225 C198 0.983 . S
H226 C197 0.982 . S
H227 C197 0.979 . S
H228 C197 0.977 . S
H229 C199 0.948 . S
H230 C201 0.947 . S
H231 C202 0.948 . S
H232 C208 0.982 . S
H233 C208 0.979 . S
H234 C208 0.977 . S
H235 C209 0.979 . S
H236 C209 0.980 . S
H237 C209 0.983 . S
H238 C182 0.947 . S
C239 C182 1.392 . S
C239 C183 1.419 . S
C239 H221 0.948 . S
C240 C241 1.391 . S
C240 C244 1.391 . S
C240 H282 0.948 . S
C241 C240 1.391 . S
C241 C242 1.391 . S
C242 C241 1.391 . S
C242 H298 0.947 . S
C242 C299 1.392 . S
C243 C244 1.391 . S
C243 C247 1.397 . S
C243 C299 1.419 . S
C244 C240 1.391 . S
C244 C243 1.391 . S
C244 C245 1.399 . S
C245 C244 1.399 . S
C245 C248 1.396 . S
C245 C257 1.453 . S
C245 C258 1.684 . S
H246 C270 0.948 . S
C247 C243 1.397 . S
C247 C248 1.394 . S
C247 C266 1.723 . S
C248 C245 1.396 . S
C248 C247 1.394 . S
C248 C278 1.723 . S
H249 C272 0.947 1_554 S
H250 C273 0.948 . S
H251 C279 0.982 . S
H252 C280 0.979 . S
H253 C280 0.980 . S
H254 C280 0.983 . S
H255 C279 0.979 . S
H256 C279 0.977 . S
C257 C245 1.453 . S
C257 H286 0.982 . S
C257 H287 0.979 . S
C257 H288 0.977 . S
C258 C245 1.684 . S
C258 H283 0.979 . S
C258 H284 0.980 . S
C258 H285 0.983 . S
C259 C260 1.391 . S
C259 C264 1.391 1_545 S
C259 H289 0.948 . S
C260 C259 1.391 . S
C260 C261 1.391 . S
C261 C260 1.391 . S
C261 C262 1.392 1_545 S
C261 H290 0.947 . S
C262 C261 1.392 1_565 S
C262 C263 1.419 . S
C262 H291 0.948 . S
C263 C262 1.419 . S
C263 C264 1.391 . S
C263 C267 1.397 . S
C264 C259 1.391 1_565 S
C264 C263 1.391 . S
C264 C265 1.399 1_556 S
C265 C264 1.399 1_554 S
C265 C266 1.396 . S
C265 C268 1.453 . S
C265 C269 1.684 . S
C266 C247 1.723 . S
C266 C265 1.396 . S
C266 C267 1.394 1_554 S
C267 C263 1.397 . S
C267 C266 1.394 1_556 S
C267 C277 1.723 . S
C268 C265 1.453 . S
C268 H292 0.982 . S
C268 H293 0.979 1_565 S
C268 H294 0.977 . S
C269 C265 1.684 . S
C269 H295 0.979 . S
C269 H296 0.980 . S
C269 H297 0.983 . S
C270 H246 0.948 . S
C270 C271 1.391 . S
C270 C275 1.391 . S
C271 C270 1.391 . S
C271 C272 1.391 . S
C272 H249 0.947 1_556 S
C272 C271 1.391 . S
C272 C273 1.392 1_556 S
C273 H250 0.948 . S
C273 C272 1.392 1_554 S
C273 C274 1.419 1_554 S
C274 C273 1.419 1_556 S
C274 C275 1.391 . S
C274 C278 1.397 1_556 S
C275 C270 1.391 . S
C275 C274 1.391 . S
C275 C276 1.399 . S
C276 C275 1.399 . S
C276 C277 1.396 . S
C276 C279 1.453 . S
C276 C280 1.684 . S
C277 C267 1.723 . S
C277 C276 1.396 . S
C277 C278 1.394 1_556 S
C278 C248 1.723 . S
C278 C274 1.397 1_554 S
C278 C277 1.394 1_554 S
C279 H251 0.982 . S
C279 H255 0.979 . S
C279 H256 0.977 . S
C279 C276 1.453 . S
C280 H252 0.979 . S
C280 H253 0.980 . S
C280 H254 0.983 . S
C280 C276 1.684 . S
H281 C299 0.948 . S
H282 C240 0.948 . S
H283 C258 0.979 . S
H284 C258 0.980 . S
H285 C258 0.983 . S
H286 C257 0.982 . S
H287 C257 0.979 . S
H288 C257 0.977 . S
H289 C259 0.948 . S
H290 C261 0.947 . S
H291 C262 0.948 . S
H292 C268 0.982 . S
H293 C268 0.979 1_545 S
H294 C268 0.977 . S
H295 C269 0.979 . S
H296 C269 0.980 . S
H297 C269 0.983 . S
H298 C242 0.947 . S
C299 C242 1.392 . S
C299 C243 1.419 . S
C299 H281 0.948 . S
C300 C301 1.391 . S
C300 C304 1.391 . S
C300 H342 0.948 . S
C301 C300 1.391 . S
C301 C302 1.391 . S
C302 C301 1.391 . S
C302 H358 0.947 . S
C302 C359 1.392 . S
C303 C304 1.391 . S
C303 C307 1.397 . S
C303 C359 1.419 . S
C304 C300 1.391 . S
C304 C303 1.391 . S
C304 C305 1.399 . S
C305 C304 1.399 . S
C305 C308 1.396 . S
C305 C317 1.453 . S
C305 C318 1.684 . S
H306 C330 0.948 . S
C307 C303 1.397 . S
C307 C308 1.394 . S
C307 C326 1.723 . S
C308 C305 1.396 . S
C308 C307 1.394 . S
C308 C338 1.723 . S
H309 C332 0.947 . S
H310 C333 0.948 . S
H311 C339 0.982 . S
H312 C340 0.979 . S
H313 C340 0.980 . S
H314 C340 0.983 . S
H315 C339 0.979 1_565 S
H316 C339 0.977 . S
C317 C305 1.453 . S
C317 H346 0.982 . S
C317 H347 0.979 . S
C317 H348 0.977 . S
C318 C305 1.684 . S
C318 H343 0.979 . S
C318 H344 0.980 . S
C318 H345 0.983 . S
C319 C320 1.391 . S
C319 C324 1.391 . S
C319 H349 0.948 . S
C320 C319 1.391 . S
C320 C321 1.391 . S
C321 C320 1.391 . S
C321 C322 1.392 . S
C321 H350 0.947 . S
C322 C321 1.392 . S
C322 C323 1.419 . S
C322 H351 0.948 . S
C323 C322 1.419 . S
C323 C324 1.391 . S
C323 C327 1.397 . S
C324 C319 1.391 . S
C324 C323 1.391 . S
C324 C325 1.399 . S
C325 C324 1.399 . S
C325 C326 1.396 . S
C325 C328 1.453 . S
C325 C329 1.684 . S
C326 C307 1.723 . S
C326 C325 1.396 . S
C326 C327 1.394 . S
C327 C323 1.397 . S
C327 C326 1.394 . S
C327 C337 1.723 . S
C328 C325 1.453 . S
C328 H352 0.982 . S
C328 H353 0.979 . S
C328 H354 0.977 . S
C329 C325 1.684 . S
C329 H355 0.979 . S
C329 H356 0.980 . S
C329 H357 0.983 . S
C330 H306 0.948 . S
C330 C331 1.391 . S
C330 C335 1.391 1_565 S
C331 C330 1.391 . S
C331 C332 1.391 . S
C332 H309 0.947 . S
C332 C331 1.391 . S
C332 C333 1.392 1_565 S
C333 H310 0.948 . S
C333 C332 1.392 1_545 S
C333 C334 1.419 . S
C334 C333 1.419 . S
C334 C335 1.391 . S
C334 C338 1.397 . S
C335 C330 1.391 1_545 S
C335 C334 1.391 . S
C335 C336 1.399 . S
C336 C335 1.399 . S
C336 C337 1.396 . S
C336 C339 1.453 . S
C336 C340 1.684 . S
C337 C327 1.723 . S
C337 C336 1.396 . S
C337 C338 1.394 . S
C338 C308 1.723 . S
C338 C334 1.397 . S
C338 C337 1.394 . S
C339 H311 0.982 . S
C339 H315 0.979 1_545 S
C339 H316 0.977 . S
C339 C336 1.453 . S
C340 H312 0.979 . S
C340 H313 0.980 . S
C340 H314 0.983 . S
C340 C336 1.684 . S
H341 C359 0.948 . S
H342 C300 0.948 . S
H343 C318 0.979 . S
H344 C318 0.980 . S
H345 C318 0.983 . S
H346 C317 0.982 . S
H347 C317 0.979 . S
H348 C317 0.977 . S
H349 C319 0.948 . S
H350 C321 0.947 . S
H351 C322 0.948 . S
H352 C328 0.982 . S
H353 C328 0.979 . S
H354 C328 0.977 . S
H355 C329 0.979 . S
H356 C329 0.980 . S
H357 C329 0.983 . S
H358 C302 0.947 . S
C359 C302 1.392 . S
C359 C303 1.419 . S
C359 H341 0.948 . S
C360 C361 1.382 1_565 S
C360 C364 1.404 . S
C360 H402 0.945 1_565 S
C361 C360 1.382 1_545 S
C361 C362 1.391 . S
C362 C361 1.391 . S
C362 H418 0.947 . S
C362 C419 1.392 1_545 S
C363 C364 1.391 . S
C363 C367 1.397 . S
C363 C419 1.419 . S
C364 C360 1.404 . S
C364 C363 1.391 . S
C364 C365 1.399 . S
C365 C364 1.399 . S
C365 C368 1.396 . S
C365 C377 1.453 . S
C365 C378 1.684 . S
H366 C390 0.948 . S
C367 C363 1.397 . S
C367 C368 1.394 . S
C367 C386 1.723 1_556 S
C368 C365 1.396 . S
C368 C367 1.394 . S
C368 C398 1.723 . S
H369 C392 0.947 . S
H370 C393 0.948 . S
H371 C399 0.982 . S
H372 C400 0.979 . S
H373 C400 0.980 . S
H374 C400 0.983 . S
H375 C399 0.979 . S
H376 C399 0.977 . S
C377 C365 1.453 . S
C377 H406 0.982 . S
C377 H407 0.979 . S
C377 H408 0.977 . S
C378 C365 1.684 . S
C378 H403 0.979 . S
C378 H404 0.980 . S
C378 H405 0.983 . S
C379 C380 1.391 . S
C379 C384 1.391 . S
C379 H409 0.948 . S
C380 C379 1.391 . S
C380 C381 1.391 . S
C381 C380 1.391 . S
C381 C382 1.392 . S
C381 H410 0.947 . S
C382 C381 1.392 . S
C382 C383 1.419 . S
C382 H411 0.948 . S
C383 C382 1.419 . S
C383 C384 1.391 . S
C383 C387 1.397 . S
C384 C379 1.391 . S
C384 C383 1.391 . S
C384 C385 1.399 . S
C385 C384 1.399 . S
C385 C386 1.396 . S
C385 C388 1.453 . S
C385 C389 1.684 . S
C386 C367 1.723 1_554 S
C386 C385 1.396 . S
C386 C387 1.394 . S
C387 C383 1.397 . S
C387 C386 1.394 . S
C387 C397 1.723 . S
C388 C385 1.453 . S
C388 H412 0.982 . S
C388 H413 0.979 . S
C388 H414 0.977 . S
C389 C385 1.684 . S
C389 H415 0.979 . S
C389 H416 0.980 . S
C389 H417 0.983 . S
C390 H366 0.948 . S
C390 C391 1.391 . S
C390 C395 1.391 . S
C391 C390 1.391 . S
C391 C392 1.391 . S
C392 H369 0.947 . S
C392 C391 1.391 . S
C392 C393 1.392 . S
C393 H370 0.948 . S
C393 C392 1.392 . S
C393 C394 1.419 . S
C394 C393 1.419 . S
C394 C395 1.391 . S
C394 C398 1.397 . S
C395 C390 1.391 . S
C395 C394 1.391 . S
C395 C396 1.399 1_556 S
C396 C395 1.399 1_554 S
C396 C397 1.396 . S
C396 C399 1.453 . S
C396 C400 1.684 . S
C397 C387 1.723 . S
C397 C396 1.396 . S
C397 C398 1.394 1_554 S
C398 C368 1.723 . S
C398 C394 1.397 . S
C398 C397 1.394 1_556 S
C399 H371 0.982 . S
C399 H375 0.979 . S
C399 H376 0.977 . S
C399 C396 1.453 . S
C400 H372 0.979 . S
C400 H373 0.980 . S
C400 H374 0.983 . S
C400 C396 1.684 . S
H401 C419 0.948 1_554 S
H402 C360 0.945 1_545 S
H403 C378 0.979 . S
H404 C378 0.980 . S
H405 C378 0.983 . S
H406 C377 0.982 . S
H407 C377 0.979 . S
H408 C377 0.977 . S
H409 C379 0.948 . S
H410 C381 0.947 . S
H411 C382 0.948 . S
H412 C388 0.982 . S
H413 C388 0.979 . S
H414 C388 0.977 . S
H415 C389 0.979 . S
H416 C389 0.980 . S
H417 C389 0.983 . S
H418 C362 0.947 . S
C419 C362 1.392 1_565 S
C419 C363 1.419 . S
C419 H401 0.948 1_556 S
C420 C421 1.391 . S
C420 C424 1.391 . S
C420 H462 0.948 . S
C421 C420 1.391 . S
C421 C422 1.391 . S
C422 C421 1.391 . S
C422 H478 0.947 . S
C422 C479 1.392 . S
C423 C424 1.391 . S
C423 C427 1.397 . S
C423 C479 1.419 . S
C424 C420 1.391 . S
C424 C423 1.391 . S
C424 C425 1.399 . S
C425 C424 1.399 . S
C425 C428 1.396 . S
C425 C437 1.453 . S
C425 C438 1.684 . S
H426 C450 0.948 . S
C427 C423 1.397 . S
C427 C428 1.394 . S
C427 C446 1.723 . S
C428 C425 1.396 . S
C428 C427 1.394 . S
C428 C458 1.723 . S
H429 C452 0.947 . S
H430 C453 0.948 . S
H431 C459 0.982 . S
H432 C460 0.979 1_565 S
H433 C460 0.980 . S
H434 C460 0.983 1_565 S
H435 C459 0.979 . S
H436 C459 0.977 . S
C437 C425 1.453 . S
C437 H466 0.982 . S
C437 H467 0.979 . S
C437 H468 0.977 . S
C438 C425 1.684 . S
C438 H463 0.979 . S
C438 H464 0.980 . S
C438 H465 0.983 . S
C439 C440 1.391 . S
C439 C444 1.391 . S
C439 H469 0.948 . S
C440 C439 1.391 . S
C440 C441 1.391 . S
C441 C440 1.391 . S
C441 C442 1.392 . S
C441 H470 0.947 . S
C442 C441 1.392 . S
C442 C443 1.419 . S
C442 H471 0.948 . S
C443 C442 1.419 . S
C443 C444 1.391 . S
C443 C447 1.397 . S
C444 C439 1.391 . S
C444 C443 1.391 . S
C444 C445 1.399 . S
C445 C444 1.399 . S
C445 C446 1.396 . S
C445 C448 1.453 . S
C445 C449 1.684 . S
C446 C427 1.723 . S
C446 C445 1.396 . S
C446 C447 1.394 . S
C447 C443 1.397 . S
C447 C446 1.394 . S
C447 C457 1.723 . S
C448 C445 1.453 . S
C448 H472 0.982 . S
C448 H473 0.979 . S
C448 H474 0.977 . S
C449 C445 1.684 . S
C449 H475 0.979 . S
C449 H476 0.980 . S
C449 H477 0.983 . S
C450 H426 0.948 . S
C450 C451 1.391 . S
C450 C455 1.391 1_565 S
C451 C450 1.391 . S
C451 C452 1.391 . S
C452 H429 0.947 . S
C452 C451 1.391 . S
C452 C453 1.392 1_565 S
C453 H430 0.948 . S
C453 C452 1.392 1_545 S
C453 C454 1.419 . S
C454 C453 1.419 . S
C454 C455 1.391 . S
C454 C458 1.397 . S
C455 C450 1.391 1_545 S
C455 C454 1.391 . S
C455 C456 1.399 . S
C456 C455 1.399 . S
C456 C457 1.396 . S
C456 C459 1.453 . S
C456 C460 1.684 . S
C457 C447 1.723 . S
C457 C456 1.396 . S
C457 C458 1.394 . S
C458 C428 1.723 . S
C458 C454 1.397 . S
C458 C457 1.394 . S
C459 H431 0.982 . S
C459 H435 0.979 . S
C459 H436 0.977 . S
C459 C456 1.453 . S
C460 H432 0.979 1_545 S
C460 H433 0.980 . S
C460 H434 0.983 1_545 S
C460 C456 1.684 . S
H461 C479 0.948 . S
H462 C420 0.948 . S
H463 C438 0.979 . S
H464 C438 0.980 . S
H465 C438 0.983 . S
H466 C437 0.982 . S
H467 C437 0.979 . S
H468 C437 0.977 . S
H469 C439 0.948 . S
H470 C441 0.947 . S
H471 C442 0.948 . S
H472 C448 0.982 . S
H473 C448 0.979 . S
H474 C448 0.977 . S
H475 C449 0.979 . S
H476 C449 0.980 . S
H477 C449 0.983 . S
H478 C422 0.947 . S
C479 C422 1.392 . S
C479 C423 1.419 . S
C479 H461 0.948 . S
Sc480 O483 2.025 . S
Sc480 O490 2.105 1_455 S
Sc480 O493 2.105 . S
Sc480 O496 2.105 . S
Sc480 O499 2.105 1_455 S
Sc481 O483 2.025 . S
Sc481 O491 2.105 1_455 S
Sc481 O495 2.105 . S
Sc481 O497 2.105 . S
Sc481 O501 2.105 1_455 S
Sc482 O483 2.025 . S
Sc482 O492 2.105 1_455 S
Sc482 O494 2.105 . S
Sc482 O498 2.105 . S
Sc482 O500 2.105 1_455 S
O483 Sc480 2.025 . S
O483 Sc481 2.025 . S
O483 Sc482 2.025 . S
C484 O490 1.268 . S
C484 O500 1.268 . S
C485 O491 1.268 . S
C485 O499 1.268 . S
C486 O492 1.268 . S
C486 O501 1.268 . S
C487 O493 1.268 . S
C487 O497 1.268 . S
C488 O494 1.268 . S
C488 O496 1.268 . S
C489 O495 1.268 . S
C489 O498 1.268 . S
O490 Sc480 2.105 1_655 S
O490 C484 1.268 . S
O491 Sc481 2.105 1_655 S
O491 C485 1.268 . S
O492 Sc482 2.105 1_655 S
O492 C486 1.268 . S
O493 Sc480 2.105 . S
O493 C487 1.268 . S
O494 Sc482 2.105 . S
O494 C488 1.268 . S
O495 Sc481 2.105 . S
O495 C489 1.268 . S
O496 Sc480 2.105 . S
O496 C488 1.268 . S
O497 Sc481 2.105 . S
O497 C487 1.268 . S
O498 Sc482 2.105 . S
O498 C489 1.268 . S
O499 Sc480 2.105 1_655 S
O499 C485 1.268 . S
O500 Sc482 2.105 1_655 S
O500 C484 1.268 . S
O501 Sc481 2.105 1_655 S
O501 C486 1.268 . S
Sc502 O505 2.025 . S
Sc502 O512 2.105 . S
Sc502 O515 2.105 1_455 S
Sc502 O518 2.105 1_455 S
Sc502 O521 2.105 . S
Sc503 O505 2.025 . S
Sc503 O513 2.105 . S
Sc503 O517 2.105 1_455 S
Sc503 O519 2.105 1_455 S
Sc503 O523 2.105 . S
Sc504 O505 2.025 . S
Sc504 O514 2.105 . S
Sc504 O516 2.105 1_455 S
Sc504 O520 2.105 1_455 S
Sc504 O522 2.105 . S
O505 Sc502 2.025 . S
O505 Sc503 2.025 . S
O505 Sc504 2.025 . S
C506 O512 1.268 . S
C506 O522 1.268 . S
C507 O513 1.268 . S
C507 O521 1.268 . S
C508 O514 1.268 . S
C508 O523 1.268 . S
C509 O515 1.268 . S
C509 O519 1.268 . S
C510 O516 1.268 . S
C510 O518 1.268 . S
C511 O517 1.268 . S
C511 O520 1.268 . S
O512 Sc502 2.105 . S
O512 C506 1.268 . S
O513 Sc503 2.105 . S
O513 C507 1.268 . S
O514 Sc504 2.105 . S
O514 C508 1.268 . S
O515 Sc502 2.105 1_655 S
O515 C509 1.268 . S
O516 Sc504 2.105 1_655 S
O516 C510 1.268 . S
O517 Sc503 2.105 1_655 S
O517 C511 1.268 . S
O518 Sc502 2.105 1_655 S
O518 C510 1.268 . S
O519 Sc503 2.105 1_655 S
O519 C509 1.268 . S
O520 Sc504 2.105 1_655 S
O520 C511 1.268 . S
O521 Sc502 2.105 . S
O521 C507 1.268 . S
O522 Sc504 2.105 . S
O522 C506 1.268 . S
O523 Sc503 2.105 . S
O523 C508 1.268 . S
Sc524 O527 2.025 . S
Sc524 O534 2.105 . S
Sc524 O537 2.105 . S
Sc524 O540 2.105 . S
Sc524 O543 2.105 . S
Sc525 O527 2.025 . S
Sc525 O535 2.105 . S
Sc525 O539 2.105 . S
Sc525 O541 2.105 . S
Sc525 O545 2.105 . S
Sc526 O527 2.025 . S
Sc526 O536 2.105 . S
Sc526 O538 2.105 . S
Sc526 O542 2.105 . S
Sc526 O544 2.105 . S
O527 Sc524 2.025 . S
O527 Sc525 2.025 . S
O527 Sc526 2.025 . S
C528 O534 1.268 . S
C528 O544 1.268 . S
C529 O535 1.268 . S
C529 O543 1.268 . S
C530 O536 1.268 . S
C530 O545 1.268 . S
C531 O537 1.268 . S
C531 O541 1.268 . S
C532 O538 1.268 . S
C532 O540 1.268 . S
C533 O539 1.268 . S
C533 O542 1.268 . S
O534 Sc524 2.105 . S
O534 C528 1.268 . S
O535 Sc525 2.105 . S
O535 C529 1.268 . S
O536 Sc526 2.105 . S
O536 C530 1.268 . S
O537 Sc524 2.105 . S
O537 C531 1.268 . S
O538 Sc526 2.105 . S
O538 C532 1.268 . S
O539 Sc525 2.105 . S
O539 C533 1.268 . S
O540 Sc524 2.105 . S
O540 C532 1.268 . S
O541 Sc525 2.105 . S
O541 C531 1.268 . S
O542 Sc526 2.105 . S
O542 C533 1.268 . S
O543 Sc524 2.105 . S
O543 C529 1.268 . S
O544 Sc526 2.105 . S
O544 C528 1.268 . S
O545 Sc525 2.105 . S
O545 C530 1.268 . S
Sc546 O549 2.025 . S
Sc546 O556 2.105 . S
Sc546 O559 2.105 . S
Sc546 O562 2.105 . S
Sc546 O565 2.105 . S
Sc547 O549 2.025 . S
Sc547 O557 2.105 . S
Sc547 O561 2.105 . S
Sc547 O563 2.105 . S
Sc547 O567 2.105 . S
Sc548 O549 2.025 . S
Sc548 O558 2.105 . S
Sc548 O560 2.105 . S
Sc548 O564 2.105 . S
Sc548 O566 2.105 . S
O549 Sc546 2.025 . S
O549 Sc547 2.025 . S
O549 Sc548 2.025 . S
C550 O556 1.268 . S
C550 O566 1.268 . S
C551 O557 1.268 . S
C551 O565 1.268 . S
C552 O558 1.268 . S
C552 O567 1.268 . S
C553 O559 1.268 . S
C553 O563 1.268 . S
C554 O560 1.268 . S
C554 O562 1.268 . S
C555 O561 1.268 . S
C555 O564 1.268 . S
O556 Sc546 2.105 . S
O556 C550 1.268 . S
O557 Sc547 2.105 . S
O557 C551 1.268 . S
O558 Sc548 2.105 . S
O558 C552 1.268 . S
O559 Sc546 2.105 . S
O559 C553 1.268 . S
O560 Sc548 2.105 . S
O560 C554 1.268 . S
O561 Sc547 2.105 . S
O561 C555 1.268 . S
O562 Sc546 2.105 . S
O562 C554 1.268 . S
O563 Sc547 2.105 . S
O563 C553 1.268 . S
O564 Sc548 2.105 . S
O564 C555 1.268 . S
O565 Sc546 2.105 . S
O565 C551 1.268 . S
O566 Sc548 2.105 . S
O566 C550 1.268 . S
O567 Sc547 2.105 . S
O567 C552 1.268 . S
C568 C569 1.369 . S
C568 C570 1.419 . S
C568 H572 0.930 . S
C569 C568 1.369 . S
C569 C578 1.429 . S
C570 C568 1.419 . S
C570 C571 1.363 . S
C570 H573 0.929 . S
C571 C570 1.363 . S
C571 C577 1.428 . S
H572 C568 0.930 . S
H573 C570 0.929 . S
S574 N575 1.613 . S
S574 N576 1.610 . S
N575 S574 1.613 . S
N575 C578 1.350 . S
N576 S574 1.610 . S
N576 C577 1.351 . S
C577 C571 1.428 . S
C577 N576 1.351 . S
C577 C578 1.434 . S
C578 C569 1.429 . S
C578 N575 1.350 . S
C578 C577 1.434 . S
C579 C580 1.369 . S
C579 C581 1.419 . S
C579 H583 0.930 . S
C580 C579 1.369 . S
C580 C589 1.429 . S
C581 C579 1.419 . S
C581 C582 1.363 . S
C581 H584 0.929 . S
C582 C581 1.363 . S
C582 C588 1.428 . S
H583 C579 0.930 . S
H584 C581 0.929 . S
S585 N586 1.613 . S
S585 N587 1.610 . S
N586 S585 1.613 . S
N586 C589 1.350 . S
N587 S585 1.610 . S
N587 C588 1.351 . S
C588 C582 1.428 . S
C588 N587 1.351 . S
C588 C589 1.434 . S
C589 C580 1.429 . S
C589 N586 1.350 . S
C589 C588 1.434 . S
C590 C591 1.369 . S
C590 C592 1.419 . S
C590 H594 0.930 . S
C591 C590 1.369 . S
C591 C600 1.429 . S
C592 C590 1.419 . S
C592 C593 1.363 . S
C592 H595 0.929 . S
C593 C592 1.363 . S
C593 C599 1.428 . S
H594 C590 0.930 . S
H595 C592 0.929 . S
S596 N597 1.613 . S
S596 N598 1.610 . S
N597 S596 1.613 . S
N597 C600 1.350 . S
N598 S596 1.610 . S
N598 C599 1.351 . S
C599 C593 1.428 . S
C599 N598 1.351 . S
C599 C600 1.434 . S
C600 C591 1.429 . S
C600 N597 1.350 . S
C600 C599 1.434 . S
C601 C602 1.369 . S
C601 C603 1.419 . S
C601 H605 0.930 . S
C602 C601 1.369 . S
C602 C611 1.429 . S
C603 C601 1.419 . S
C603 C604 1.363 . S
C603 H606 0.929 . S
C604 C603 1.363 . S
C604 C610 1.428 . S
H605 C601 0.930 . S
H606 C603 0.929 . S
S607 N608 1.613 . S
S607 N609 1.610 . S
N608 S607 1.613 . S
N608 C611 1.350 . S
N609 S607 1.610 . S
N609 C610 1.351 . S
C610 C604 1.428 . S
C610 N609 1.351 . S
C610 C611 1.434 . S
C611 C602 1.429 . S
C611 N608 1.350 . S
C611 C610 1.434 . S
C612 C613 1.369 . S
C612 C614 1.419 . S
C612 H616 0.930 . S
C613 C612 1.369 . S
C613 C622 1.429 . S
C614 C612 1.419 . S
C614 C615 1.363 . S
C614 H617 0.929 . S
C615 C614 1.363 . S
C615 C621 1.428 . S
H616 C612 0.930 . S
H617 C614 0.929 . S
S618 N619 1.613 . S
S618 N620 1.610 . S
N619 S618 1.613 . S
N619 C622 1.350 . S
N620 S618 1.610 . S
N620 C621 1.351 . S
C621 C615 1.428 . S
C621 N620 1.351 . S
C621 C622 1.434 . S
C622 C613 1.429 . S
C622 N619 1.350 . S
C622 C621 1.434 . S
C623 C624 1.369 . S
C623 C625 1.419 . S
C623 H627 0.930 . S
C624 C623 1.369 . S
C624 C633 1.429 . S
C625 C623 1.419 . S
C625 C626 1.363 . S
C625 H628 0.929 . S
C626 C625 1.363 . S
C626 C632 1.428 . S
H627 C623 0.930 . S
H628 C625 0.929 . S
S629 N630 1.613 . S
S629 N631 1.610 . S
N630 S629 1.613 . S
N630 C633 1.350 . S
N631 S629 1.610 . S
N631 C632 1.351 . S
C632 C626 1.428 . S
C632 N631 1.351 . S
C632 C633 1.434 . S
C633 C624 1.429 . S
C633 N630 1.350 . S
C633 C632 1.434 . S
C634 C635 1.369 . S
C634 C636 1.419 . S
C634 H638 0.930 . S
C635 C634 1.369 . S
C635 C644 1.429 . S
C636 C634 1.419 . S
C636 C637 1.363 . S
C636 H639 0.929 . S
C637 C636 1.363 . S
C637 C643 1.428 . S
H638 C634 0.930 . S
H639 C636 0.929 . S
S640 N641 1.613 . S
S640 N642 1.610 . S
N641 S640 1.613 . S
N641 C644 1.350 . S
N642 S640 1.610 . S
N642 C643 1.351 . S
C643 C637 1.428 . S
C643 N642 1.351 . S
C643 C644 1.434 . S
C644 C635 1.429 . S
C644 N641 1.350 . S
C644 C643 1.434 . S
C645 C646 1.369 . S
C645 C647 1.419 . S
C645 H649 0.930 . S
C646 C645 1.369 . S
C646 C655 1.429 . S
C647 C645 1.419 . S
C647 C648 1.363 . S
C647 H650 0.929 . S
C648 C647 1.363 . S
C648 C654 1.428 . S
H649 C645 0.930 . S
H650 C647 0.929 . S
S651 N652 1.613 . S
S651 N653 1.610 . S
N652 S651 1.613 . S
N652 C655 1.350 . S
N653 S651 1.610 . S
N653 C654 1.351 . S
C654 C648 1.428 . S
C654 N653 1.351 . S
C654 C655 1.434 . S
C655 C646 1.429 . S
C655 N652 1.350 . S
C655 C654 1.434 . S
C656 C657 1.369 . S
C656 C658 1.419 . S
C656 H660 0.930 . S
C657 C656 1.369 . S
C657 C666 1.429 . S
C658 C656 1.419 . S
C658 C659 1.363 . S
C658 H661 0.929 . S
C659 C658 1.363 . S
C659 C665 1.428 . S
H660 C656 0.930 . S
H661 C658 0.929 . S
S662 N663 1.613 . S
S662 N664 1.610 . S
N663 S662 1.613 . S
N663 C666 1.350 . S
N664 S662 1.610 . S
N664 C665 1.351 . S
C665 C659 1.428 . S
C665 N664 1.351 . S
C665 C666 1.434 . S
C666 C657 1.429 . S
C666 N663 1.350 . S
C666 C665 1.434 . S
C667 C668 1.369 . S
C667 C669 1.419 . S
C667 H671 0.930 . S
C668 C667 1.369 . S
C668 C677 1.429 . S
C669 C667 1.419 . S
C669 C670 1.363 . S
C669 H672 0.929 . S
C670 C669 1.363 . S
C670 C676 1.428 . S
H671 C667 0.930 . S
H672 C669 0.929 . S
S673 N674 1.613 . S
S673 N675 1.610 . S
N674 S673 1.613 . S
N674 C677 1.350 . S
N675 S673 1.610 . S
N675 C676 1.351 . S
C676 C670 1.428 . S
C676 N675 1.351 . S
C676 C677 1.434 . S
C677 C668 1.429 . S
C677 N674 1.350 . S
C677 C676 1.434 . S
C678 C679 1.369 . S
C678 C680 1.419 . S
C678 H682 0.930 . S
C679 C678 1.369 . S
C679 C688 1.429 . S
C680 C678 1.419 . S
C680 C681 1.363 . S
C680 H683 0.929 . S
C681 C680 1.363 . S
C681 C687 1.428 . S
H682 C678 0.930 . S
H683 C680 0.929 . S
S684 N685 1.613 . S
S684 N686 1.610 . S
N685 S684 1.613 . S
N685 C688 1.350 . S
N686 S684 1.610 . S
N686 C687 1.351 . S
C687 C681 1.428 . S
C687 N686 1.351 . S
C687 C688 1.434 . S
C688 C679 1.429 . S
C688 N685 1.350 . S
C688 C687 1.434 . S
C689 C690 1.369 . S
C689 C691 1.419 . S
C689 H693 0.930 . S
C690 C689 1.369 . S
C690 C699 1.429 . S
C691 C689 1.419 . S
C691 C692 1.363 . S
C691 H694 0.929 . S
C692 C691 1.363 . S
C692 C698 1.428 . S
H693 C689 0.930 . S
H694 C691 0.929 . S
S695 N696 1.613 . S
S695 N697 1.610 . S
N696 S695 1.613 . S
N696 C699 1.350 . S
N697 S695 1.610 . S
N697 C698 1.351 . S
C698 C692 1.428 . S
C698 N697 1.351 . S
C698 C699 1.434 . S
C699 C690 1.429 . S
C699 N696 1.350 . S
C699 C698 1.434 . S
C700 C701 1.369 . S
C700 C702 1.419 . S
C700 H704 0.930 . S
C701 C700 1.369 . S
C701 C710 1.429 . S
C702 C700 1.419 . S
C702 C703 1.363 . S
C702 H705 0.929 . S
C703 C702 1.363 . S
C703 C709 1.428 . S
H704 C700 0.930 . S
H705 C702 0.929 . S
S706 N707 1.613 . S
S706 N708 1.610 . S
N707 S706 1.613 . S
N707 C710 1.350 . S
N708 S706 1.610 . S
N708 C709 1.351 . S
C709 C703 1.428 . S
C709 N708 1.351 . S
C709 C710 1.434 . S
C710 C701 1.429 . S
C710 N707 1.350 . S
C710 C709 1.434 . S
C711 C712 1.369 . S
C711 C713 1.419 . S
C711 H715 0.930 . S
C712 C711 1.369 . S
C712 C721 1.429 . S
C713 C711 1.419 . S
C713 C714 1.363 . S
C713 H716 0.929 . S
C714 C713 1.363 . S
C714 C720 1.428 . S
H715 C711 0.930 . S
H716 C713 0.929 . S
S717 N718 1.613 . S
S717 N719 1.610 . S
N718 S717 1.613 . S
N718 C721 1.350 . S
N719 S717 1.610 . S
N719 C720 1.351 . S
C720 C714 1.428 . S
C720 N719 1.351 . S
C720 C721 1.434 . S
C721 C712 1.429 . S
C721 N718 1.350 . S
C721 C720 1.434 . S
C722 C723 1.369 . S
C722 C724 1.419 . S
C722 H726 0.930 . S
C723 C722 1.369 . S
C723 C732 1.429 . S
C724 C722 1.419 . S
C724 C725 1.363 . S
C724 H727 0.929 . S
C725 C724 1.363 . S
C725 C731 1.428 . S
H726 C722 0.930 . S
H727 C724 0.929 . S
S728 N729 1.613 . S
S728 N730 1.610 . S
N729 S728 1.613 . S
N729 C732 1.350 . S
N730 S728 1.610 . S
N730 C731 1.351 . S
C731 C725 1.428 . S
C731 N730 1.351 . S
C731 C732 1.434 . S
C732 C723 1.429 . S
C732 N729 1.350 . S
C732 C731 1.434 . S
C733 C734 1.369 . S
C733 C735 1.419 . S
C733 H737 0.930 . S
C734 C733 1.369 . S
C734 C743 1.429 . S
C735 C733 1.419 . S
C735 C736 1.363 . S
C735 H738 0.929 . S
C736 C735 1.363 . S
C736 C742 1.428 . S
H737 C733 0.930 . S
H738 C735 0.929 . S
S739 N740 1.613 . S
S739 N741 1.610 . S
N740 S739 1.613 . S
N740 C743 1.350 . S
N741 S739 1.610 . S
N741 C742 1.351 . S
C742 C736 1.428 . S
C742 N741 1.351 . S
C742 C743 1.434 . S
C743 C734 1.429 . S
C743 N740 1.350 . S
C743 C742 1.434 . S
C744 C745 1.369 . S
C744 C746 1.419 . S
C744 H748 0.930 . S
C745 C744 1.369 . S
C745 C754 1.429 . S
C746 C744 1.419 . S
C746 C747 1.363 . S
C746 H749 0.929 . S
C747 C746 1.363 . S
C747 C753 1.428 . S
H748 C744 0.930 . S
H749 C746 0.929 . S
S750 N751 1.613 . S
S750 N752 1.610 . S
N751 S750 1.613 . S
N751 C754 1.350 . S
N752 S750 1.610 . S
N752 C753 1.351 . S
C753 C747 1.428 . S
C753 N752 1.351 . S
C753 C754 1.434 . S
C754 C745 1.429 . S
C754 N751 1.350 . S
C754 C753 1.434 . S
C755 C756 1.369 . S
C755 C757 1.419 . S
C755 H759 0.930 . S
C756 C755 1.369 . S
C756 C765 1.429 . S
C757 C755 1.419 . S
C757 C758 1.363 . S
C757 H760 0.929 . S
C758 C757 1.363 . S
C758 C764 1.428 . S
H759 C755 0.930 . S
H760 C757 0.929 . S
S761 N762 1.613 . S
S761 N763 1.610 . S
N762 S761 1.613 . S
N762 C765 1.350 . S
N763 S761 1.610 . S
N763 C764 1.351 . S
C764 C758 1.428 . S
C764 N763 1.351 . S
C764 C765 1.434 . S
C765 C756 1.429 . S
C765 N762 1.350 . S
C765 C764 1.434 . S
C766 C767 1.369 . S
C766 C768 1.419 . S
C766 H770 0.930 . S
C767 C766 1.369 . S
C767 C776 1.429 . S
C768 C766 1.419 . S
C768 C769 1.363 . S
C768 H771 0.929 . S
C769 C768 1.363 . S
C769 C775 1.428 . S
H770 C766 0.930 . S
H771 C768 0.929 . S
S772 N773 1.613 . S
S772 N774 1.610 . S
N773 S772 1.613 . S
N773 C776 1.350 . S
N774 S772 1.610 . S
N774 C775 1.351 . S
C775 C769 1.428 . S
C775 N774 1.351 . S
C775 C776 1.434 . S
C776 C767 1.429 . S
C776 N773 1.350 . S
C776 C775 1.434 . S
C777 C778 1.369 . S
C777 C779 1.419 . S
C777 H781 0.930 . S
C778 C777 1.369 . S
C778 C787 1.429 . S
C779 C777 1.419 . S
C779 C780 1.363 . S
C779 H782 0.929 . S
C780 C779 1.363 . S
C780 C786 1.428 . S
H781 C777 0.930 . S
H782 C779 0.929 . S
S783 N784 1.613 . S
S783 N785 1.610 . S
N784 S783 1.613 . S
N784 C787 1.350 . S
N785 S783 1.610 . S
N785 C786 1.351 . S
C786 C780 1.428 . S
C786 N785 1.351 . S
C786 C787 1.434 . S
C787 C778 1.429 . S
C787 N784 1.350 . S
C787 C786 1.434 . S
C788 C789 1.369 . S
C788 C790 1.419 . S
C788 H792 0.930 . S
C789 C788 1.369 . S
C789 C798 1.429 . S
C790 C788 1.419 . S
C790 C791 1.363 . S
C790 H793 0.929 . S
C791 C790 1.363 . S
C791 C797 1.428 . S
H792 C788 0.930 . S
H793 C790 0.929 . S
S794 N795 1.613 . S
S794 N796 1.610 . S
N795 S794 1.613 . S
N795 C798 1.350 . S
N796 S794 1.610 . S
N796 C797 1.351 . S
C797 C791 1.428 . S
C797 N796 1.351 . S
C797 C798 1.434 . S
C798 C789 1.429 . S
C798 N795 1.350 . S
C798 C797 1.434 . S
C799 C800 1.369 . S
C799 C801 1.419 . S
C799 H803 0.930 . S
C800 C799 1.369 . S
C800 C809 1.429 . S
C801 C799 1.419 . S
C801 C802 1.363 . S
C801 H804 0.929 . S
C802 C801 1.363 . S
C802 C808 1.428 . S
H803 C799 0.930 . S
H804 C801 0.929 . S
S805 N806 1.613 . S
S805 N807 1.610 . S
N806 S805 1.613 . S
N806 C809 1.350 . S
N807 S805 1.610 . S
N807 C808 1.351 . S
C808 C802 1.428 . S
C808 N807 1.351 . S
C808 C809 1.434 . S
C809 C800 1.429 . S
C809 N806 1.350 . S
C809 C808 1.434 . S
C810 C811 1.369 . S
C810 C812 1.419 . S
C810 H814 0.930 . S
C811 C810 1.369 . S
C811 C820 1.429 . S
C812 C810 1.419 . S
C812 C813 1.363 . S
C812 H815 0.929 . S
C813 C812 1.363 . S
C813 C819 1.428 . S
H814 C810 0.930 . S
H815 C812 0.929 . S
S816 N817 1.613 . S
S816 N818 1.610 . S
N817 S816 1.613 . S
N817 C820 1.350 . S
N818 S816 1.610 . S
N818 C819 1.351 . S
C819 C813 1.428 . S
C819 N818 1.351 . S
C819 C820 1.434 . S
C820 C811 1.429 . S
C820 N817 1.350 . S
C820 C819 1.434 . S
C821 C822 1.369 . S
C821 C823 1.419 . S
C821 H825 0.930 . S
C822 C821 1.369 . S
C822 C831 1.429 . S
C823 C821 1.419 . S
C823 C824 1.363 . S
C823 H826 0.929 . S
C824 C823 1.363 . S
C824 C830 1.428 . S
H825 C821 0.930 . S
H826 C823 0.929 . S
S827 N828 1.613 . S
S827 N829 1.610 . S
N828 S827 1.613 . S
N828 C831 1.350 . S
N829 S827 1.610 . S
N829 C830 1.351 . S
C830 C824 1.428 . S
C830 N829 1.351 . S
C830 C831 1.434 . S
C831 C822 1.429 . S
C831 N828 1.350 . S
C831 C830 1.434 . S
C569 C31 1.539 . S
C571 C506 1.533 . S
C582 C484 1.538 . S
C580 C61 1.534 . S
C593 C510 1.531 . S
C591 C151 1.511 . S
C604 C488 1.537 . S
C602 C181 1.591 . S
C615 C550 1.531 . S
C613 C271 1.538 . S
C626 C528 1.532 . S
C624 C301 1.540 . S
C635 C391 1.510 . S
C637 C554 1.531 . S
C648 C532 1.536 . S
C646 C421 1.589 . S
C657 C20 1.575 . S
C659 C555 1.623 . S
C670 C533 1.625 . S
C668 C91 1.579 . S
C679 C121 1.489 . S
C681 C552 1.625 . S
C690 C211 1.623 . S
C692 C530 1.623 . S
C703 C511 1.625 . S
C701 C260 1.581 . S
C712 C331 1.576 . S
C714 C489 1.622 . S
C725 C508 1.625 . S
C723 C361 1.487 . S
C736 C486 1.624 . S
C734 C451 1.626 . S
C747 C529 1.612 . S
C745 C1 1.479 . S
C758 C551 1.610 . S
C756 C80 1.479 . S
C767 C140 1.549 . S
C769 C531 1.610 . S
C780 C553 1.612 . S
C778 C200 1.543 . S
C791 C485 1.609 . S
C789 C241 1.470 . S
C800 C320 1.482 . S
C802 C507 1.610 . S
C811 C380 1.556 . S
C813 C487 1.607 . S
C822 C440 1.541 . S
C824 C509 1.613 . S
