# Generated by pormake.
# Topology pyr, (3,6)-cn, num edge types: 1
# Building blocks:
#     Node 0, Type 0, BuildingBlock: ESEHIV_clean_linker_0, # of connection points: 3
#     Node 1, Type 0, BuildingBlock: ESEHIV_clean_linker_0, # of connection points: 3
#     Node 2, Type 0, BuildingBlock: ESEHIV_clean_linker_0, # of connection points: 3
#     Node 3, Type 0, BuildingBlock: ESEHIV_clean_linker_0, # of connection points: 3
#     Node 4, Type 0, BuildingBlock: ESEHIV_clean_linker_0, # of connection points: 3
#     Node 5, Type 0, BuildingBlock: ESEHIV_clean_linker_0, # of connection points: 3
#     Node 6, Type 0, BuildingBlock: ESEHIV_clean_linker_0, # of connection points: 3
#     Node 7, Type 0, BuildingBlock: ESEHIV_clean_linker_0, # of connection points: 3
#     Node 8, Type 1, BuildingBlock: BETDEL_clean_sbu_0, # of connection points: 6
#     Node 9, Type 1, BuildingBlock: BETDEL_clean_sbu_0, # of connection points: 6
#     Node 10, Type 1, BuildingBlock: BETDEL_clean_sbu_0, # of connection points: 6
#     Node 11, Type 1, BuildingBlock: BETDEL_clean_sbu_0, # of connection points: 6
#     Edge 12, Type (0, 1), BuildingBlock: CIFDUS_clean_linker_0, # of connection points: 2
#     Edge 13, Type (0, 1), BuildingBlock: CIFDUS_clean_linker_0, # of connection points: 2
#     Edge 14, Type (0, 1), BuildingBlock: CIFDUS_clean_linker_0, # of connection points: 2
#     Edge 15, Type (0, 1), BuildingBlock: CIFDUS_clean_linker_0, # of connection points: 2
#     Edge 16, Type (0, 1), BuildingBlock: CIFDUS_clean_linker_0, # of connection points: 2
#     Edge 17, Type (0, 1), BuildingBlock: CIFDUS_clean_linker_0, # of connection points: 2
#     Edge 18, Type (0, 1), BuildingBlock: CIFDUS_clean_linker_0, # of connection points: 2
#     Edge 19, Type (0, 1), BuildingBlock: CIFDUS_clean_linker_0, # of connection points: 2
#     Edge 20, Type (0, 1), BuildingBlock: CIFDUS_clean_linker_0, # of connection points: 2
#     Edge 21, Type (0, 1), BuildingBlock: CIFDUS_clean_linker_0, # of connection points: 2
#     Edge 22, Type (0, 1), BuildingBlock: CIFDUS_clean_linker_0, # of connection points: 2
#     Edge 23, Type (0, 1), BuildingBlock: CIFDUS_clean_linker_0, # of connection points: 2
#     Edge 24, Type (0, 1), BuildingBlock: CIFDUS_clean_linker_0, # of connection points: 2
#     Edge 25, Type (0, 1), BuildingBlock: CIFDUS_clean_linker_0, # of connection points: 2
#     Edge 26, Type (0, 1), BuildingBlock: CIFDUS_clean_linker_0, # of connection points: 2
#     Edge 27, Type (0, 1), BuildingBlock: CIFDUS_clean_linker_0, # of connection points: 2
#     Edge 28, Type (0, 1), BuildingBlock: CIFDUS_clean_linker_0, # of connection points: 2
#     Edge 29, Type (0, 1), BuildingBlock: CIFDUS_clean_linker_0, # of connection points: 2
#     Edge 30, Type (0, 1), BuildingBlock: CIFDUS_clean_linker_0, # of connection points: 2
#     Edge 31, Type (0, 1), BuildingBlock: CIFDUS_clean_linker_0, # of connection points: 2
#     Edge 32, Type (0, 1), BuildingBlock: CIFDUS_clean_linker_0, # of connection points: 2
#     Edge 33, Type (0, 1), BuildingBlock: CIFDUS_clean_linker_0, # of connection points: 2
#     Edge 34, Type (0, 1), BuildingBlock: CIFDUS_clean_linker_0, # of connection points: 2
#     Edge 35, Type (0, 1), BuildingBlock: CIFDUS_clean_linker_0, # of connection points: 2
# Relax obj value: 0.036
# Max RMSD: 0.094
# Mean RMSD: 0.040
data_MOF--net-pyr--node1-BETDEL_clean_sbu_0--node2-ESEHIV_clean_linker_0--edge1-CIFDUS_clean_linker_0
_symmetry_space_group_name_H-M    P1
_symmetry_Int_Tables_number       1
_symmetry_cell_setting            triclinic
loop_
_symmetry_equiv_pos_as_xyz
'x, y, z'
_cell_length_a     29.874719
_cell_length_b     31.231594
_cell_length_c     28.74454
_cell_angle_alpha  90.639775
_cell_angle_beta   88.178625
_cell_angle_gamma 96.867668
loop_
_atom_site_label
_atom_site_type_symbol
_atom_site_fract_x
_atom_site_fract_y
_atom_site_fract_z
_atom_type_partial_charge
H0 H 0.17875 0.26084 0.22154 0.0
H1 H 0.27715 0.17269 0.23719 0.0
H2 H 0.29211 0.26352 0.12541 0.0
C3 C 0.2104 0.24933 0.21098 0.0
C4 C 0.23373 0.26621 0.17092 0.0
C5 C 0.22533 0.2152 0.2349 0.0
C6 C 0.26618 0.20053 0.22067 0.0
C7 C 0.2909 0.21879 0.18206 0.0
C8 C 0.27491 0.25198 0.15748 0.0
H9 H 0.21501 0.85437 0.73378 0.0
H10 H 0.3109 0.76371 0.74607 0.0
H11 H 0.22686 0.75712 0.62774 0.0
C12 C 0.22918 0.82612 0.72075 0.0
C13 C 0.21591 0.80775 0.67756 0.0
C14 C 0.26292 0.81007 0.7461 0.0
C15 C 0.28335 0.77509 0.728 0.0
C16 C 0.27104 0.75648 0.68506 0.0
C17 C 0.23621 0.77181 0.66086 0.0
H18 H 0.69687 0.30946 0.89315 0.0
H19 H 0.70223 0.41621 0.79864 0.0
H20 H 0.60884 0.30291 0.77688 0.0
C21 C 0.68468 0.32408 0.86278 0.0
C22 C 0.65088 0.30055 0.8365 0.0
C23 C 0.70336 0.36609 0.84977 0.0
C24 C 0.68729 0.38458 0.81 0.0
C25 C 0.65355 0.36187 0.78327 0.0
C26 C 0.63553 0.32004 0.79691 0.0
H27 H 0.8355 0.71565 0.41066 0.0
H28 H 0.92725 0.71653 0.2921 0.0
H29 H 0.82394 0.60949 0.31393 0.0
C30 C 0.84705 0.70074 0.37908 0.0
C31 C 0.82471 0.66056 0.36525 0.0
C32 C 0.88406 0.72169 0.35326 0.0
C33 C 0.89885 0.70116 0.31252 0.0
C34 C 0.8778 0.66043 0.29817 0.0
C35 C 0.84046 0.64064 0.32467 0.0
H36 H 0.71029 0.82939 0.79926 0.0
H37 H 0.8175 0.75017 0.8068 0.0
H38 H 0.71806 0.74991 0.91867 0.0
C39 C 0.72534 0.80385 0.81599 0.0
C40 C 0.70782 0.78856 0.85922 0.0
C41 C 0.76574 0.79125 0.79782 0.0
C42 C 0.7864 0.76019 0.82125 0.0
C43 C 0.76969 0.7451 0.86503 0.0
C44 C 0.73002 0.75927 0.88382 0.0
H45 H 0.69494 0.23239 0.3073 0.0
H46 H 0.80707 0.15986 0.31882 0.0
H47 H 0.76922 0.24072 0.43274 0.0
C48 C 0.7234 0.22415 0.32638 0.0
C49 C 0.73116 0.24224 0.37065 0.0
C50 C 0.74968 0.19323 0.30823 0.0
C51 C 0.78553 0.1821 0.33409 0.0
C52 C 0.79257 0.19794 0.37971 0.0
C53 C 0.76511 0.22839 0.39759 0.0
H54 H 0.30934 0.74698 0.12802 0.0
H55 H 0.30409 0.63476 0.2152 0.0
H56 H 0.41016 0.7389 0.23022 0.0
C57 C 0.32346 0.72941 0.15514 0.0
C58 C 0.36235 0.74838 0.17749 0.0
C59 C 0.30216 0.68821 0.16808 0.0
C60 C 0.32074 0.66578 0.20381 0.0
C61 C 0.35923 0.68435 0.22692 0.0
C62 C 0.37993 0.72519 0.21303 0.0
H63 H 0.10997 0.33299 0.72702 0.0
H64 H 0.19851 0.32928 0.60736 0.0
H65 H 0.21278 0.44004 0.69716 0.0
C66 C 0.13773 0.34844 0.70585 0.0
C67 C 0.16036 0.38919 0.71907 0.0
C68 C 0.15028 0.32759 0.6645 0.0
C69 C 0.18742 0.34646 0.63776 0.0
C70 C 0.21041 0.3868 0.64928 0.0
C71 C 0.19633 0.40807 0.68967 0.0
Dy72 Dy 0.04182 0.02649 0.49869 0.0
C73 C 0.92962 0.95836 0.64806 0.0
C74 C 0.09721 0.06781 0.43265 0.0
Dy75 Dy 0.9783 1.00271 0.57895 0.0
O76 O 0.11036 0.05213 0.47072 0.0
O77 O 0.05361 0.06032 0.43005 0.0
O78 O 0.07561 0.96759 0.50806 0.0
O79 O 0.04984 0.99842 0.56691 0.0
C80 C 0.06783 0.96583 0.55269 0.0
C81 C 0.95046 0.06048 0.52172 0.0
O82 O 0.01759 0.05922 0.61326 0.0
O83 O 0.04861 0.08674 0.54352 0.0
O84 O 0.91262 0.97414 0.61201 0.0
O85 O 0.97307 0.96793 0.64711 0.0
O86 O 0.94268 0.06073 0.56651 0.0
O87 O 0.96984 0.02814 0.51008 0.0
O88 O 1.00124 0.97194 0.46248 0.0
O89 O 0.96556 0.94497 0.53078 0.0
C90 C 0.04052 0.09074 0.58892 0.0
C91 C 0.97481 0.94168 0.48545 0.0
Dy92 Dy 0.5487 0.03921 0.04868 0.0
C93 C 0.40894 0.96417 0.91775 0.0
C94 C 0.6143 0.08752 0.09618 0.0
Dy95 Dy 0.47725 1.00522 0.96724 0.0
O96 O 0.58346 0.10283 0.0727 0.0
O97 O 0.60936 0.0456 0.09375 0.0
O98 O 0.52022 0.98909 0.10246 0.0
O99 O 0.49316 0.99041 0.03755 0.0
C100 C 0.48989 0.96995 0.07515 0.0
C101 C 0.53542 0.07528 0.94099 0.0
O102 O 0.43571 0.0372 0.02022 0.0
O103 O 0.49189 0.07806 0.06261 0.0
O104 O 0.41452 1.00534 0.92651 0.0
O105 O 0.44085 0.9454 0.93574 0.0
O106 O 0.50539 0.05577 0.91383 0.0
O107 O 0.53269 0.05458 0.97839 0.0
O108 O 0.58817 0.99892 1.0015 0.0
O109 O 0.53007 0.9611 0.95878 0.0
C110 C 0.44933 0.06788 0.05081 0.0
C111 C 0.57216 0.96693 0.9733 0.0
Dy112 Dy 0.52414 0.4829 0.47238 0.0
C113 C 0.45467 0.61748 0.57375 0.0
C114 C 0.56935 0.42218 0.4287 0.0
Dy115 Dy 0.50466 0.56176 0.52847 0.0
O116 O 0.54047 0.41475 0.46319 0.0
O117 O 0.5725 0.46249 0.41712 0.0
O118 O 0.45062 0.45615 0.47798 0.0
O119 O 0.48053 0.49357 0.53235 0.0
C120 C 0.44377 0.47486 0.51791 0.0
C121 C 0.58587 0.57017 0.48437 0.0
O122 O 0.53108 0.52505 0.5856 0.0
O123 O 0.56617 0.47928 0.53636 0.0
O124 O 0.49846 0.62311 0.56895 0.0
O125 O 0.4386 0.58168 0.55394 0.0
O126 O 0.57774 0.58961 0.52353 0.0
O127 O 0.54947 0.55121 0.46916 0.0
O128 O 0.49029 0.51495 0.41586 0.0
O129 O 0.46981 0.57182 0.46152 0.0
C130 C 0.55891 0.49548 0.57853 0.0
C131 C 0.46965 0.55013 0.42145 0.0
Dy132 Dy 0.01989 0.46374 0.03601 0.0
C133 C 0.95225 0.6179 0.97811 0.0
C134 C 0.0645 0.39389 0.04228 0.0
Dy135 Dy 0.99718 0.54982 0.99726 0.0
O136 O 0.02241 0.39476 0.05511 0.0
O137 O 0.08165 0.43088 0.02554 0.0
O138 O 0.99463 0.46931 0.11056 0.0
O139 O 0.99057 0.51907 0.06437 0.0
C140 C 0.98255 0.50765 0.10605 0.0
C141 C 0.04635 0.5033 0.93907 0.0
O142 O 0.0546 0.57419 0.04312 0.0
O143 O 0.08353 0.50877 0.04459 0.0
O144 O 0.99287 0.61348 0.96285 0.0
O145 O 0.93678 0.58565 1.00428 0.0
O146 O 0.05033 0.54522 0.93972 0.0
O147 O 0.01453 0.4895 0.96668 0.0
O148 O 0.95653 0.43857 1.00063 0.0
O149 O 0.93484 0.50443 0.97859 0.0
C150 C 0.08756 0.55092 0.05242 0.0
C151 C 0.92713 0.46163 0.98216 0.0
H152 H 0.24831 0.17998 0.31565 0.0
H153 H 0.13429 0.19385 0.23068 0.0
H154 H 0.08464 0.14975 0.28456 0.0
H155 H 0.07369 0.10541 0.35456 0.0
H156 H 0.18775 0.08853 0.43788 0.0
H157 H 0.23752 0.13467 0.3852 0.0
C158 C 0.21263 0.17327 0.30893 0.0
C159 C 0.19507 0.19066 0.26955 0.0
C160 C 0.18435 0.14686 0.33935 0.0
C161 C 0.14863 0.18188 0.26141 0.0
C162 C 0.12021 0.15617 0.29186 0.0
C163 C 0.10948 0.11174 0.36096 0.0
C164 C 0.12721 0.0937 0.39968 0.0
C165 C 0.13775 0.13826 0.33071 0.0
C166 C 0.17351 0.10209 0.40797 0.0
C167 C 0.20191 0.12854 0.37804 0.0
H168 H 0.27826 0.89687 0.7604 0.0
H169 H 0.29087 0.77516 0.82565 0.0
H170 H 0.33588 0.81261 0.88643 0.0
H171 H 0.37816 0.87932 0.91606 0.0
H172 H 0.36162 1.00099 0.85338 0.0
H173 H 0.31052 0.96412 0.79698 0.0
C174 C 0.28949 0.87848 0.78864 0.0
C175 C 0.28178 0.83315 0.78793 0.0
C176 C 0.31501 0.90018 0.82364 0.0
C177 C 0.29722 0.81002 0.82472 0.0
C178 C 0.32289 0.83138 0.85955 0.0
C179 C 0.36285 0.89766 0.89033 0.0
C180 C 0.37397 0.94251 0.88809 0.0
C181 C 0.33321 0.87632 0.85845 0.0
C182 C 0.35358 0.96629 0.85537 0.0
C183 C 0.32451 0.94525 0.82312 0.0
H184 H 0.6304 0.44313 0.77254 0.0
H185 H 0.64172 0.32443 0.69745 0.0
H186 H 0.61616 0.35588 0.62691 0.0
H187 H 0.5889 0.41673 0.58674 0.0
H188 H 0.57417 0.53422 0.663 0.0
H189 H 0.60319 0.50397 0.73239 0.0
C190 C 0.62754 0.42427 0.74064 0.0
C191 C 0.63794 0.38143 0.74038 0.0
C192 C 0.61231 0.44244 0.70025 0.0
C193 C 0.63351 0.35729 0.69882 0.0
C194 C 0.6191 0.37535 0.65836 0.0
C195 C 0.59252 0.43589 0.61839 0.0
C196 C 0.57958 0.47783 0.61948 0.0
C197 C 0.60822 0.41785 0.65866 0.0
C198 C 0.58384 0.50189 0.66109 0.0
C199 C 0.6004 0.48458 0.70088 0.0
H200 H 0.89208 0.57601 0.28992 0.0
H201 H 0.90508 0.69445 0.21248 0.0
H202 H 0.93737 0.65825 0.14555 0.0
H203 H 0.96367 0.59238 0.10908 0.0
H204 H 0.95169 0.47527 0.18905 0.0
H205 H 0.91711 0.51113 0.25404 0.0
C206 C 0.90144 0.59386 0.25823 0.0
C207 C 0.89592 0.63796 0.25645 0.0
C208 C 0.9204 0.57293 0.22001 0.0
C209 C 0.90917 0.66059 0.21517 0.0
C210 C 0.92756 0.63983 0.17672 0.0
C211 C 0.95323 0.57479 0.14067 0.0
C212 C 0.96028 0.53108 0.144 0.0
C213 C 0.93365 0.59596 0.17872 0.0
C214 C 0.9468 0.50887 0.18538 0.0
C215 C 0.92694 0.52937 0.22274 0.0
H216 H 0.28178 0.13897 0.14765 0.0
H217 H 0.37961 0.24993 0.16829 0.0
H218 H 0.43847 0.21218 0.12982 0.0
H219 H 0.46085 0.14778 0.0894 0.0
H220 H 0.36073 0.0388 0.06524 0.0
H221 H 0.30348 0.07574 0.10601 0.0
C222 C 0.31619 0.15454 0.14405 0.0
C223 C 0.32708 0.19652 0.16112 0.0
C224 C 0.349 0.1332 0.12112 0.0
C225 C 0.37113 0.21728 0.15558 0.0
C226 C 0.40448 0.1958 0.13361 0.0
C227 C 0.42651 0.13215 0.09324 0.0
C228 C 0.4149 0.0907 0.07454 0.0
C229 C 0.39367 0.15379 0.11611 0.0
C230 C 0.3703 0.07087 0.07913 0.0
C231 C 0.33763 0.09183 0.10257 0.0
H232 H 0.14585 0.85343 0.70451 0.0
H233 H 0.21826 0.81292 0.58205 0.0
H234 H 0.17489 0.85407 0.53335 0.0
H235 H 0.12204 0.90696 0.52527 0.0
H236 H 0.05819 0.95706 0.64744 0.0
H237 H 0.09349 0.90776 0.69647 0.0
C238 C 0.15263 0.85375 0.66726 0.0
C239 C 0.18563 0.8296 0.64754 0.0
C240 C 0.12944 0.8798 0.63925 0.0
C241 C 0.19257 0.82989 0.59879 0.0
C242 C 0.16817 0.85412 0.57064 0.0
C243 C 0.11561 0.90696 0.56263 0.0
C244 C 0.08733 0.93536 0.58274 0.0
C245 C 0.13735 0.87989 0.59056 0.0
C246 C 0.07948 0.93516 0.63115 0.0
C247 C 0.09983 0.90711 0.65915 0.0
H248 H 0.7745 0.33407 0.88924 0.0
H249 H 0.71697 0.45281 0.87034 0.0
H250 H 0.78047 0.49286 0.90942 0.0
H251 H 0.8536 0.49454 0.94776 0.0
H252 H 0.90877 0.37478 0.96879 0.0
H253 H 0.84467 0.33511 0.93114 0.0
C254 C 0.77526 0.36859 0.8943 0.0
C255 C 0.74081 0.39019 0.87643 0.0
C256 C 0.81167 0.39148 0.91734 0.0
C257 C 0.74323 0.4352 0.88285 0.0
C258 C 0.77949 0.45821 0.9055 0.0
C259 C 0.85153 0.45976 0.94429 0.0
C260 C 0.88632 0.43793 0.96112 0.0
C261 C 0.81419 0.43676 0.92257 0.0
C262 C 0.88272 0.39271 0.95639 0.0
C263 C 0.84599 0.36983 0.93468 0.0
H264 H 0.74495 0.61667 0.33551 0.0
H265 H 0.81519 0.65767 0.46031 0.0
H266 H 0.74828 0.63311 0.50765 0.0
H267 H 0.66823 0.60356 0.51403 0.0
H268 H 0.59852 0.5585 0.39056 0.0
H269 H 0.66664 0.58023 0.34273 0.0
C270 C 0.74594 0.61959 0.37309 0.0
C271 C 0.78511 0.64008 0.39394 0.0
C272 C 0.70718 0.60476 0.40056 0.0
C273 C 0.78535 0.64338 0.44288 0.0
C274 C 0.74707 0.62905 0.4702 0.0
C275 C 0.66807 0.59825 0.47667 0.0
C276 C 0.62821 0.57988 0.45587 0.0
C277 C 0.70751 0.61047 0.44943 0.0
C278 C 0.6287 0.57271 0.40748 0.0
C279 C 0.66767 0.58524 0.38006 0.0
H280 H 0.14889 0.24876 0.14239 0.0
H281 H 0.2678 0.34106 0.12703 0.0
H282 H 0.22669 0.38583 0.07792 0.0
H283 H 0.15477 0.40195 0.04743 0.0
H284 H 0.03467 0.31216 0.06925 0.0
H285 H 0.0787 0.26233 0.10753 0.0
C286 C 0.16571 0.27885 0.12849 0.0
C287 C 0.21075 0.29247 0.13919 0.0
C288 C 0.14177 0.30443 0.1014 0.0
C289 C 0.23288 0.33048 0.11962 0.0
C290 C 0.20943 0.35592 0.09166 0.0
C291 C 0.13851 0.37102 0.05966 0.0
C292 C 0.09172 0.36051 0.05594 0.0
C293 C 0.16359 0.34365 0.08335 0.0
C294 C 0.07073 0.32067 0.07201 0.0
C295 C 0.09577 0.29245 0.09408 0.0
H296 H 0.63166 0.26658 0.92402 0.0
H297 H 0.62815 0.23197 0.77817 0.0
H298 H 0.59408 0.15945 0.79784 0.0
H299 H 0.56259 0.10608 0.85604 0.0
H300 H 0.56617 0.13962 1.00148 0.0
H301 H 0.60414 0.21148 0.98271 0.0
C302 C 0.62409 0.24309 0.89649 0.0
C303 C 0.63208 0.25538 0.84951 0.0
C304 C 0.60488 0.20087 0.90806 0.0
C305 C 0.62148 0.22418 0.81453 0.0
C306 C 0.60227 0.1824 0.82575 0.0
C307 C 0.5723 0.12897 0.88364 0.0
C308 C 0.56265 0.11713 0.9303 0.0
C309 C 0.59338 0.17048 0.87231 0.0
C310 C 0.57489 0.14726 0.96559 0.0
C311 C 0.59592 0.18867 0.95468 0.0
H312 H 0.84749 0.78685 0.40087 0.0
H313 H 0.9746 0.7533 0.34437 0.0
H314 H 0.01315 0.82 0.37603 0.0
H315 H 0.01192 0.88624 0.4249 0.0
H316 H 0.88613 0.91294 0.48984 0.0
H317 H 0.84643 0.85012 0.45114 0.0
C318 C 0.88376 0.79333 0.39594 0.0
C319 C 0.90769 0.76413 0.37022 0.0
C320 C 0.90625 0.83074 0.41631 0.0
C321 C 0.95463 0.77489 0.36318 0.0
C322 C 0.97701 0.81303 0.38183 0.0
C323 C 0.97578 0.8783 0.43016 0.0
C324 C 0.95186 0.90423 0.45998 0.0
C325 C 0.9533 0.84097 0.40906 0.0
C326 C 0.9052 0.89338 0.46712 0.0
C327 C 0.88249 0.85749 0.44495 0.0
H328 H 0.36194 0.76312 0.67815 0.0
H329 H 0.24211 0.68004 0.64161 0.0
H330 H 0.28877 0.6293 0.60412 0.0
H331 H 0.3637 0.60906 0.58177 0.0
H332 H 0.48318 0.69274 0.61824 0.0
H333 H 0.43645 0.74277 0.65653 0.0
C334 C 0.34602 0.73359 0.66255 0.0
C335 C 0.29869 0.72499 0.66307 0.0
C336 C 0.37296 0.70486 0.64115 0.0
C337 C 0.27849 0.68726 0.64161 0.0
C338 C 0.30513 0.65829 0.62033 0.0
C339 C 0.37945 0.63823 0.5982 0.0
C340 C 0.42672 0.64736 0.59732 0.0
C341 C 0.35238 0.66683 0.61986 0.0
C342 C 0.44683 0.68517 0.61856 0.0
C343 C 0.42015 0.71371 0.64039 0.0
H344 H 0.85225 0.82601 0.80102 0.0
H345 H 0.73571 0.81805 0.71508 0.0
H346 H 0.77608 0.87092 0.66152 0.0
H347 H 0.84384 0.92084 0.64105 0.0
H348 H 0.95999 0.92775 0.7275 0.0
H349 H 0.92013 0.87368 0.77957 0.0
C350 C 0.83603 0.83498 0.76993 0.0
C351 C 0.79137 0.81778 0.76149 0.0
C352 C 0.85903 0.86566 0.74009 0.0
C353 C 0.77024 0.83073 0.72194 0.0
C354 C 0.79318 0.86105 0.69159 0.0
C355 C 0.86018 0.91067 0.67152 0.0
C356 C 0.90445 0.92833 0.68094 0.0
C357 C 0.83734 0.87916 0.70076 0.0
C358 C 0.92571 0.91469 0.71999 0.0
C359 C 0.90309 0.88368 0.74951 0.0
H360 H 0.71812 0.22359 0.22828 0.0
H361 H 0.74877 0.10674 0.29279 0.0
H362 H 0.71471 0.06403 0.22901 0.0
H363 H 0.66761 0.05889 0.16039 0.0
H364 H 0.63147 0.17489 0.09911 0.0
H365 H 0.67593 0.21879 0.15611 0.0
C366 C 0.71762 0.18881 0.22821 0.0
C367 C 0.73578 0.16853 0.2655 0.0
C368 C 0.69646 0.16417 0.19223 0.0
C369 C 0.73561 0.12343 0.26436 0.0
C370 C 0.71565 0.09881 0.2281 0.0
C371 C 0.67014 0.0938 0.15912 0.0
C372 C 0.64612 0.11373 0.12608 0.0
C373 C 0.69476 0.11871 0.19265 0.0
C374 C 0.64951 0.15892 0.12461 0.0
C375 C 0.67482 0.184 0.15719 0.0
H376 H 0.38288 0.60213 0.23355 0.0
H377 H 0.3747 0.71935 0.31239 0.0
H378 H 0.40638 0.68788 0.37943 0.0
H379 H 0.43858 0.62834 0.41518 0.0
H380 H 0.45047 0.51151 0.3366 0.0
H381 H 0.41535 0.54137 0.27032 0.0
C382 C 0.38776 0.62052 0.26559 0.0
C383 C 0.37652 0.66312 0.26789 0.0
C384 C 0.40691 0.60238 0.30406 0.0
C385 C 0.38338 0.68669 0.30955 0.0
C386 C 0.40146 0.66868 0.34795 0.0
C387 C 0.43336 0.60914 0.38372 0.0
C388 C 0.44725 0.56756 0.38118 0.0
C389 C 0.41374 0.62674 0.34552 0.0
C390 C 0.44031 0.54358 0.33974 0.0
C391 C 0.42014 0.56067 0.30173 0.0
H392 H 0.07626 0.384 0.76436 0.0
H393 H 0.21241 0.44785 0.7741 0.0
H394 H 0.18904 0.48995 0.83995 0.0
H395 H 0.12974 0.50974 0.89578 0.0
H396 H 0.99715 0.43843 0.89298 0.0
H397 H 0.01977 0.39765 0.82485 0.0
C398 C 0.10143 0.40632 0.78105 0.0
C399 C 0.14616 0.41278 0.76245 0.0
C400 C 0.08834 0.42937 0.82083 0.0
C401 C 0.17734 0.44276 0.78546 0.0
C402 C 0.16415 0.46677 0.82392 0.0
C403 C 0.10596 0.48516 0.88024 0.0
C404 C 0.06173 0.47744 0.89917 0.0
C405 C 0.11966 0.46067 0.84177 0.0
C406 C 0.03141 0.44504 0.87911 0.0
C407 C 0.04431 0.42174 0.84001 0.0
H408 H 0.71984 0.84234 0.93176 0.0
H409 H 0.62055 0.78852 0.83526 0.0
H410 H 0.56866 0.83897 0.86343 0.0
H411 H 0.55477 0.9018 0.91072 0.0
H412 H 0.65657 0.95881 1.00375 0.0
H413 H 0.70483 0.9039 0.98115 0.0
C414 C 0.68628 0.84103 0.91801 0.0
C415 C 0.67324 0.81155 0.8824 0.0
C416 C 0.6578 0.87126 0.93283 0.0
C417 C 0.63052 0.81064 0.8634 0.0
C418 C 0.60127 0.8397 0.8791 0.0
C419 C 0.58747 0.90231 0.92619 0.0
C420 C 0.60214 0.93465 0.95862 0.0
C421 C 0.61508 0.87084 0.91294 0.0
C422 C 0.64461 0.93463 0.9783 0.0
C423 C 0.67213 0.90308 0.96566 0.0
H424 H 0.81741 0.11653 0.37693 0.0
H425 H 0.84307 0.23807 0.45055 0.0
H426 H 0.89346 0.20616 0.50172 0.0
H427 H 0.92957 0.14278 0.52637 0.0
H428 H 0.91062 0.02556 0.44491 0.0
H429 H 0.85966 0.05757 0.39459 0.0
C430 C 0.83488 0.13691 0.40299 0.0
C431 C 0.82599 0.17994 0.4094 0.0
C432 C 0.86533 0.11908 0.4309 0.0
C433 C 0.84818 0.20465 0.44502 0.0
C434 C 0.87746 0.18654 0.47416 0.0
C435 C 0.91447 0.1246 0.49728 0.0
C436 C 0.9234 0.08193 0.48936 0.0
C437 C 0.88603 0.14365 0.46762 0.0
C438 C 0.90425 0.05856 0.45147 0.0
C439 C 0.87496 0.07675 0.42286 0.0
H440 H 0.27822 0.60473 0.14048 0.0
H441 H 0.22972 0.72939 0.14509 0.0
H442 H 0.15991 0.69888 0.10906 0.0
H443 H 0.11145 0.63609 0.0772 0.0
H444 H 0.1609 0.51159 0.07382 0.0
H445 H 0.23057 0.54262 0.10851 0.0
C446 C 0.2523 0.62523 0.13391 0.0
C447 C 0.25957 0.6694 0.14554 0.0
C448 C 0.21199 0.60743 0.11332 0.0
C449 C 0.2256 0.69543 0.13601 0.0
C450 C 0.18539 0.67792 0.11561 0.0
C451 C 0.13749 0.61576 0.08392 0.0
C452 C 0.13044 0.57142 0.07274 0.0
C453 C 0.17808 0.63388 0.10414 0.0
C454 C 0.16487 0.54577 0.08188 0.0
C455 C 0.20501 0.56348 0.10186 0.0
H456 H 0.29081 0.43275 0.67385 0.0
H457 H 0.21616 0.38516 0.55394 0.0
H458 H 0.28095 0.40838 0.50304 0.0
H459 H 0.36055 0.43878 0.49232 0.0
H460 H 0.43415 0.49025 0.61108 0.0
H461 H 0.3682 0.46978 0.66212 0.0
C462 C 0.28838 0.42808 0.63654 0.0
C463 C 0.24867 0.4062 0.61819 0.0
C464 C 0.32585 0.44212 0.60701 0.0
C465 C 0.24653 0.40062 0.56952 0.0
C466 C 0.28358 0.41416 0.54016 0.0
C467 C 0.36201 0.44572 0.52933 0.0
C468 C 0.40239 0.46551 0.54788 0.0
C469 C 0.32373 0.4342 0.55853 0.0
C470 C 0.40357 0.47481 0.59587 0.0
C471 C 0.36583 0.46304 0.62515 0.0
H472 H 0.86007 0.75792 0.87496 0.0
H473 H 0.74056 0.67516 0.91937 0.0
H474 H 0.78689 0.63124 0.96331 0.0
H475 H 0.8617 0.61347 0.98379 0.0
H476 H 0.98115 0.69289 0.93352 0.0
H477 H 0.93435 0.74129 0.89676 0.0
C478 C 0.84412 0.72996 0.89379 0.0
C479 C 0.79705 0.71922 0.89318 0.0
C480 C 0.87093 0.70449 0.91787 0.0
C481 C 0.77676 0.68392 0.91919 0.0
C482 C 0.80322 0.65879 0.94415 0.0
C483 C 0.87739 0.64177 0.96536 0.0
C484 C 0.92462 0.64989 0.96124 0.0
C485 C 0.85035 0.66843 0.94309 0.0
C486 C 0.94477 0.68623 0.937 0.0
C487 C 0.91808 0.71371 0.91591 0.0
H488 H 0.37439 0.78648 0.091 0.0
H489 H 0.39894 0.81139 0.23667 0.0
H490 H 0.43933 0.88161 0.21784 0.0
H491 H 0.47044 0.93538 0.16018 0.0
H492 H 0.44392 0.91315 0.01513 0.0
H493 H 0.4008 0.84329 0.03347 0.0
C494 C 0.38799 0.80743 0.11875 0.0
C495 C 0.38417 0.79282 0.16523 0.0
C496 C 0.41081 0.84854 0.10777 0.0
C497 C 0.40234 0.82079 0.20047 0.0
C498 C 0.42522 0.86131 0.18981 0.0
C499 C 0.45487 0.91539 0.13262 0.0
C500 C 0.46028 0.92948 0.08626 0.0
C501 C 0.43019 0.87532 0.1436 0.0
C502 C 0.43982 0.90328 0.05101 0.0
C503 C 0.41543 0.86315 0.06157 0.0
H504 H 0.11962 0.25197 0.71108 0.0
H505 H 0.12177 0.31258 0.57671 0.0
H506 H 0.0879 0.24551 0.54211 0.0
H507 H 0.06144 0.16875 0.54827 0.0
H508 H 0.05591 0.10665 0.68185 0.0
H509 H 0.08678 0.17482 0.71833 0.0
C510 C 0.11203 0.25056 0.67443 0.0
C511 C 0.12408 0.28726 0.64645 0.0
C512 C 0.09223 0.21143 0.65439 0.0
C513 C 0.11382 0.28475 0.59894 0.0
C514 C 0.09432 0.24635 0.57904 0.0
C515 C 0.0669 0.17001 0.58542 0.0
C516 C 0.05684 0.13239 0.6121 0.0
C517 C 0.08422 0.20929 0.60614 0.0
C518 C 0.06345 0.13502 0.66036 0.0
C519 C 0.0812 0.17405 0.68125 0.0
H520 H 0.70873 0.3132 0.32803 0.0
H521 H 0.68613 0.24038 0.45491 0.0
H522 H 0.63216 0.28857 0.48315 0.0
H523 H 0.59057 0.35081 0.47106 0.0
H524 H 0.61609 0.42577 0.34592 0.0
H525 H 0.66918 0.37689 0.31712 0.0
C526 C 0.69198 0.30802 0.3619 0.0
C527 C 0.70127 0.27336 0.38938 0.0
C528 C 0.66117 0.33585 0.37784 0.0
C529 C 0.67981 0.26713 0.43339 0.0
C530 C 0.64871 0.29442 0.44933 0.0
C531 C 0.60747 0.3561 0.43729 0.0
C532 C 0.59912 0.39131 0.41022 0.0
C533 C 0.63887 0.32867 0.42169 0.0
C534 C 0.62184 0.39855 0.36705 0.0
C535 C 0.65227 0.37077 0.35072 0.0
loop_
_geom_bond_atom_site_label_1
_geom_bond_atom_site_label_2
_geom_bond_distance
_geom_bond_site_symmetry_2
_ccdc_geom_bond_type
H0 C3 0.931 . S
H1 C6 0.928 . S
H2 C8 0.930 . S
C3 H0 0.931 . S
C3 C4 1.413 . S
C3 C5 1.360 . S
C4 C3 1.413 . S
C4 C8 1.429 . S
C5 C3 1.360 . S
C5 C6 1.372 . S
C6 H1 0.928 . S
C6 C5 1.372 . S
C6 C7 1.404 . S
C7 C6 1.404 . S
C7 C8 1.391 . S
C8 H2 0.930 . S
C8 C4 1.429 . S
C8 C7 1.391 . S
H9 C12 0.931 . S
H10 C15 0.928 . S
H11 C17 0.930 . S
C12 H9 0.931 . S
C12 C13 1.413 . S
C12 C14 1.360 . S
C13 C12 1.413 . S
C13 C17 1.429 . S
C14 C12 1.360 . S
C14 C15 1.372 . S
C15 H10 0.928 . S
C15 C14 1.372 . S
C15 C16 1.404 . S
C16 C15 1.404 . S
C16 C17 1.391 . S
C17 H11 0.930 . S
C17 C13 1.429 . S
C17 C16 1.391 . S
H18 C21 0.931 . S
H19 C24 0.928 . S
H20 C26 0.930 . S
C21 H18 0.931 . S
C21 C22 1.413 . S
C21 C23 1.360 . S
C22 C21 1.413 . S
C22 C26 1.429 . S
C23 C21 1.360 . S
C23 C24 1.372 . S
C24 H19 0.928 . S
C24 C23 1.372 . S
C24 C25 1.404 . S
C25 C24 1.404 . S
C25 C26 1.391 . S
C26 H20 0.930 . S
C26 C22 1.429 . S
C26 C25 1.391 . S
H27 C30 0.931 . S
H28 C33 0.928 . S
H29 C35 0.930 . S
C30 H27 0.931 . S
C30 C31 1.413 . S
C30 C32 1.360 . S
C31 C30 1.413 . S
C31 C35 1.429 . S
C32 C30 1.360 . S
C32 C33 1.372 . S
C33 H28 0.928 . S
C33 C32 1.372 . S
C33 C34 1.404 . S
C34 C33 1.404 . S
C34 C35 1.391 . S
C35 H29 0.930 . S
C35 C31 1.429 . S
C35 C34 1.391 . S
H36 C39 0.931 . S
H37 C42 0.928 . S
H38 C44 0.930 . S
C39 H36 0.931 . S
C39 C40 1.413 . S
C39 C41 1.360 . S
C40 C39 1.413 . S
C40 C44 1.429 . S
C41 C39 1.360 . S
C41 C42 1.372 . S
C42 H37 0.928 . S
C42 C41 1.372 . S
C42 C43 1.404 . S
C43 C42 1.404 . S
C43 C44 1.391 . S
C44 H38 0.930 . S
C44 C40 1.429 . S
C44 C43 1.391 . S
H45 C48 0.931 . S
H46 C51 0.928 . S
H47 C53 0.930 . S
C48 H45 0.931 . S
C48 C49 1.413 . S
C48 C50 1.360 . S
C49 C48 1.413 . S
C49 C53 1.429 . S
C50 C48 1.360 . S
C50 C51 1.372 . S
C51 H46 0.928 . S
C51 C50 1.372 . S
C51 C52 1.404 . S
C52 C51 1.404 . S
C52 C53 1.391 . S
C53 H47 0.930 . S
C53 C49 1.429 . S
C53 C52 1.391 . S
H54 C57 0.931 . S
H55 C60 0.928 . S
H56 C62 0.930 . S
C57 H54 0.931 . S
C57 C58 1.413 . S
C57 C59 1.360 . S
C58 C57 1.413 . S
C58 C62 1.429 . S
C59 C57 1.360 . S
C59 C60 1.372 . S
C60 H55 0.928 . S
C60 C59 1.372 . S
C60 C61 1.404 . S
C61 C60 1.404 . S
C61 C62 1.391 . S
C62 H56 0.930 . S
C62 C58 1.429 . S
C62 C61 1.391 . S
H63 C66 0.931 . S
H64 C69 0.928 . S
H65 C71 0.930 . S
C66 H63 0.931 . S
C66 C67 1.413 . S
C66 C68 1.360 . S
C67 C66 1.413 . S
C67 C71 1.429 . S
C68 C66 1.360 . S
C68 C69 1.372 . S
C69 H64 0.928 . S
C69 C68 1.372 . S
C69 C70 1.404 . S
C70 C69 1.404 . S
C70 C71 1.391 . S
C71 H65 0.930 . S
C71 C67 1.429 . S
C71 C70 1.391 . S
Dy72 O76 2.398 . S
Dy72 O77 2.491 . S
Dy72 O78 2.403 1_545 S
Dy72 O79 2.664 1_545 S
Dy72 O83 2.326 . S
Dy72 O87 2.310 1_455 S
Dy72 O88 2.351 1_445 S
C73 O84 1.185 . S
C73 O85 1.355 . S
C74 O76 1.185 . S
C74 O77 1.355 . S
Dy75 O79 2.310 1_655 S
Dy75 O82 2.351 1_665 S
Dy75 O84 2.398 . S
Dy75 O85 2.491 . S
Dy75 O86 2.403 1_565 S
Dy75 O87 2.664 1_565 S
Dy75 O89 2.326 . S
O76 Dy72 2.398 . S
O76 C74 1.185 . S
O77 Dy72 2.491 . S
O77 C74 1.355 . S
O78 Dy72 2.403 1_565 S
O78 C80 1.254 . S
O79 Dy72 2.664 1_565 S
O79 Dy75 2.310 1_455 S
O79 C80 1.268 . S
C80 O78 1.254 . S
C80 O79 1.268 . S
C81 O86 1.254 . S
C81 O87 1.268 . S
O82 Dy75 2.351 1_445 S
O82 C90 1.249 . S
O83 Dy72 2.326 . S
O83 C90 1.267 . S
O84 C73 1.185 . S
O84 Dy75 2.398 . S
O85 C73 1.355 . S
O85 Dy75 2.491 . S
O86 Dy75 2.403 1_545 S
O86 C81 1.254 . S
O87 Dy72 2.310 1_655 S
O87 Dy75 2.664 1_545 S
O87 C81 1.268 . S
O88 Dy72 2.351 1_665 S
O88 C91 1.249 . S
O89 Dy75 2.326 . S
O89 C91 1.267 . S
C90 O82 1.249 . S
C90 O83 1.267 . S
C91 O88 1.249 . S
C91 O89 1.267 . S
Dy92 O96 2.398 . S
Dy92 O97 2.491 . S
Dy92 O98 2.403 1_545 S
Dy92 O99 2.664 1_545 S
Dy92 O103 2.326 . S
Dy92 O107 2.310 1_554 S
Dy92 O108 2.351 1_544 S
C93 O104 1.185 . S
C93 O105 1.355 . S
C94 O96 1.185 . S
C94 O97 1.355 . S
Dy95 O99 2.310 1_546 S
Dy95 O102 2.351 1_556 S
Dy95 O104 2.398 1_545 S
Dy95 O105 2.491 1_545 S
Dy95 O106 2.403 . S
Dy95 O107 2.664 . S
Dy95 O109 2.326 1_545 S
O96 Dy92 2.398 . S
O96 C94 1.185 . S
O97 Dy92 2.491 . S
O97 C94 1.355 . S
O98 Dy92 2.403 1_565 S
O98 C100 1.254 . S
O99 Dy92 2.664 1_565 S
O99 Dy95 2.310 1_564 S
O99 C100 1.268 . S
C100 O98 1.254 . S
C100 O99 1.268 . S
C101 O106 1.254 . S
C101 O107 1.268 . S
O102 Dy95 2.351 1_554 S
O102 C110 1.249 . S
O103 Dy92 2.326 . S
O103 C110 1.267 . S
O104 C93 1.185 . S
O104 Dy95 2.398 1_565 S
O105 C93 1.355 . S
O105 Dy95 2.491 1_565 S
O106 Dy95 2.403 . S
O106 C101 1.254 . S
O107 Dy92 2.310 1_556 S
O107 Dy95 2.664 . S
O107 C101 1.268 . S
O108 Dy92 2.351 1_566 S
O108 C111 1.249 . S
O109 Dy95 2.326 1_565 S
O109 C111 1.267 . S
C110 O102 1.249 . S
C110 O103 1.267 . S
C111 O108 1.249 . S
C111 O109 1.267 . S
Dy112 O116 2.398 . S
Dy112 O117 2.491 . S
Dy112 O118 2.403 . S
Dy112 O119 2.664 . S
Dy112 O123 2.326 . S
Dy112 O127 2.310 . S
Dy112 O128 2.351 . S
C113 O124 1.185 . S
C113 O125 1.355 . S
C114 O116 1.185 . S
C114 O117 1.355 . S
Dy115 O119 2.310 . S
Dy115 O122 2.351 . S
Dy115 O124 2.398 . S
Dy115 O125 2.491 . S
Dy115 O126 2.403 . S
Dy115 O127 2.664 . S
Dy115 O129 2.326 . S
O116 Dy112 2.398 . S
O116 C114 1.185 . S
O117 Dy112 2.491 . S
O117 C114 1.355 . S
O118 Dy112 2.403 . S
O118 C120 1.254 . S
O119 Dy112 2.664 . S
O119 Dy115 2.310 . S
O119 C120 1.268 . S
C120 O118 1.254 . S
C120 O119 1.268 . S
C121 O126 1.254 . S
C121 O127 1.268 . S
O122 Dy115 2.351 . S
O122 C130 1.249 . S
O123 Dy112 2.326 . S
O123 C130 1.267 . S
O124 C113 1.185 . S
O124 Dy115 2.398 . S
O125 C113 1.355 . S
O125 Dy115 2.491 . S
O126 Dy115 2.403 . S
O126 C121 1.254 . S
O127 Dy112 2.310 . S
O127 Dy115 2.664 . S
O127 C121 1.268 . S
O128 Dy112 2.351 . S
O128 C131 1.249 . S
O129 Dy115 2.326 . S
O129 C131 1.267 . S
C130 O122 1.249 . S
C130 O123 1.267 . S
C131 O128 1.249 . S
C131 O129 1.267 . S
Dy132 O136 2.398 . S
Dy132 O137 2.491 . S
Dy132 O138 2.403 1_455 S
Dy132 O139 2.664 1_455 S
Dy132 O143 2.326 . S
Dy132 O147 2.310 1_554 S
Dy132 O148 2.351 1_454 S
C133 O144 1.185 . S
C133 O145 1.355 . S
C134 O136 1.185 . S
C134 O137 1.355 . S
Dy135 O139 2.310 1_556 S
Dy135 O142 2.351 1_656 S
Dy135 O144 2.398 . S
Dy135 O145 2.491 . S
Dy135 O146 2.403 1_655 S
Dy135 O147 2.664 1_655 S
Dy135 O149 2.326 . S
O136 Dy132 2.398 . S
O136 C134 1.185 . S
O137 Dy132 2.491 . S
O137 C134 1.355 . S
O138 Dy132 2.403 1_655 S
O138 C140 1.254 . S
O139 Dy132 2.664 1_655 S
O139 Dy135 2.310 1_554 S
O139 C140 1.268 . S
C140 O138 1.254 . S
C140 O139 1.268 . S
C141 O146 1.254 . S
C141 O147 1.268 . S
O142 Dy135 2.351 1_454 S
O142 C150 1.249 . S
O143 Dy132 2.326 . S
O143 C150 1.267 . S
O144 C133 1.185 . S
O144 Dy135 2.398 . S
O145 C133 1.355 . S
O145 Dy135 2.491 . S
O146 Dy135 2.403 1_455 S
O146 C141 1.254 . S
O147 Dy132 2.310 1_556 S
O147 Dy135 2.664 1_455 S
O147 C141 1.268 . S
O148 Dy132 2.351 1_656 S
O148 C151 1.249 . S
O149 Dy135 2.326 . S
O149 C151 1.267 . S
C150 O142 1.249 . S
C150 O143 1.267 . S
C151 O148 1.249 . S
C151 O149 1.267 . S
H152 C158 0.930 . S
H153 C161 0.930 . S
H154 C162 0.930 . S
H155 C163 0.930 . S
H156 C166 0.930 . S
H157 C167 0.930 . S
C158 H152 0.930 . S
C158 C159 1.355 . S
C158 C160 1.415 . S
C159 C158 1.355 . S
C159 C161 1.419 . S
C160 C158 1.415 . S
C160 C165 1.425 . S
C160 C167 1.409 . S
C161 H153 0.930 . S
C161 C159 1.419 . S
C161 C162 1.362 . S
C162 H154 0.930 . S
C162 C161 1.362 . S
C162 C165 1.409 . S
C163 H155 0.930 . S
C163 C164 1.355 . S
C163 C165 1.415 . S
C164 C163 1.355 . S
C164 C166 1.419 . S
C165 C160 1.425 . S
C165 C162 1.409 . S
C165 C163 1.415 . S
C166 H156 0.930 . S
C166 C164 1.419 . S
C166 C167 1.362 . S
C167 H157 0.930 . S
C167 C160 1.409 . S
C167 C166 1.362 . S
H168 C174 0.930 . S
H169 C177 0.930 . S
H170 C178 0.930 . S
H171 C179 0.930 . S
H172 C182 0.930 1_545 S
H173 C183 0.930 . S
C174 H168 0.930 . S
C174 C175 1.355 . S
C174 C176 1.415 . S
C175 C174 1.355 . S
C175 C177 1.419 . S
C176 C174 1.415 . S
C176 C181 1.425 . S
C176 C183 1.409 . S
C177 H169 0.930 . S
C177 C175 1.419 . S
C177 C178 1.362 . S
C178 H170 0.930 . S
C178 C177 1.362 . S
C178 C181 1.409 . S
C179 H171 0.930 . S
C179 C180 1.355 . S
C179 C181 1.415 . S
C180 C179 1.355 . S
C180 C182 1.419 . S
C181 C176 1.425 . S
C181 C178 1.409 . S
C181 C179 1.415 . S
C182 H172 0.930 1_565 S
C182 C180 1.419 . S
C182 C183 1.362 . S
C183 H173 0.930 . S
C183 C176 1.409 . S
C183 C182 1.362 . S
H184 C190 0.930 . S
H185 C193 0.930 . S
H186 C194 0.930 . S
H187 C195 0.930 . S
H188 C198 0.930 . S
H189 C199 0.930 . S
C190 H184 0.930 . S
C190 C191 1.355 . S
C190 C192 1.415 . S
C191 C190 1.355 . S
C191 C193 1.419 . S
C192 C190 1.415 . S
C192 C197 1.425 . S
C192 C199 1.409 . S
C193 H185 0.930 . S
C193 C191 1.419 . S
C193 C194 1.362 . S
C194 H186 0.930 . S
C194 C193 1.362 . S
C194 C197 1.409 . S
C195 H187 0.930 . S
C195 C196 1.355 . S
C195 C197 1.415 . S
C196 C195 1.355 . S
C196 C198 1.419 . S
C197 C192 1.425 . S
C197 C194 1.409 . S
C197 C195 1.415 . S
C198 H188 0.930 . S
C198 C196 1.419 . S
C198 C199 1.362 . S
C199 H189 0.930 . S
C199 C192 1.409 . S
C199 C198 1.362 . S
H200 C206 0.930 . S
H201 C209 0.930 . S
H202 C210 0.930 . S
H203 C211 0.930 . S
H204 C214 0.930 . S
H205 C215 0.930 . S
C206 H200 0.930 . S
C206 C207 1.355 . S
C206 C208 1.415 . S
C207 C206 1.355 . S
C207 C209 1.419 . S
C208 C206 1.415 . S
C208 C213 1.425 . S
C208 C215 1.409 . S
C209 H201 0.930 . S
C209 C207 1.419 . S
C209 C210 1.362 . S
C210 H202 0.930 . S
C210 C209 1.362 . S
C210 C213 1.409 . S
C211 H203 0.930 . S
C211 C212 1.355 . S
C211 C213 1.415 . S
C212 C211 1.355 . S
C212 C214 1.419 . S
C213 C208 1.425 . S
C213 C210 1.409 . S
C213 C211 1.415 . S
C214 H204 0.930 . S
C214 C212 1.419 . S
C214 C215 1.362 . S
C215 H205 0.930 . S
C215 C208 1.409 . S
C215 C214 1.362 . S
H216 C222 0.930 . S
H217 C225 0.930 . S
H218 C226 0.930 . S
H219 C227 0.930 . S
H220 C230 0.930 . S
H221 C231 0.930 . S
C222 H216 0.930 . S
C222 C223 1.355 . S
C222 C224 1.415 . S
C223 C222 1.355 . S
C223 C225 1.419 . S
C224 C222 1.415 . S
C224 C229 1.425 . S
C224 C231 1.409 . S
C225 H217 0.930 . S
C225 C223 1.419 . S
C225 C226 1.362 . S
C226 H218 0.930 . S
C226 C225 1.362 . S
C226 C229 1.409 . S
C227 H219 0.930 . S
C227 C228 1.355 . S
C227 C229 1.415 . S
C228 C227 1.355 . S
C228 C230 1.419 . S
C229 C224 1.425 . S
C229 C226 1.409 . S
C229 C227 1.415 . S
C230 H220 0.930 . S
C230 C228 1.419 . S
C230 C231 1.362 . S
C231 H221 0.930 . S
C231 C224 1.409 . S
C231 C230 1.362 . S
H232 C238 0.930 . S
H233 C241 0.930 . S
H234 C242 0.930 . S
H235 C243 0.930 . S
H236 C246 0.930 . S
H237 C247 0.930 . S
C238 H232 0.930 . S
C238 C239 1.355 . S
C238 C240 1.415 . S
C239 C238 1.355 . S
C239 C241 1.419 . S
C240 C238 1.415 . S
C240 C245 1.425 . S
C240 C247 1.409 . S
C241 H233 0.930 . S
C241 C239 1.419 . S
C241 C242 1.362 . S
C242 H234 0.930 . S
C242 C241 1.362 . S
C242 C245 1.409 . S
C243 H235 0.930 . S
C243 C244 1.355 . S
C243 C245 1.415 . S
C244 C243 1.355 . S
C244 C246 1.419 . S
C245 C240 1.425 . S
C245 C242 1.409 . S
C245 C243 1.415 . S
C246 H236 0.930 . S
C246 C244 1.419 . S
C246 C247 1.362 . S
C247 H237 0.930 . S
C247 C240 1.409 . S
C247 C246 1.362 . S
H248 C254 0.930 . S
H249 C257 0.930 . S
H250 C258 0.930 . S
H251 C259 0.930 . S
H252 C262 0.930 . S
H253 C263 0.930 . S
C254 H248 0.930 . S
C254 C255 1.355 . S
C254 C256 1.415 . S
C255 C254 1.355 . S
C255 C257 1.419 . S
C256 C254 1.415 . S
C256 C261 1.425 . S
C256 C263 1.409 . S
C257 H249 0.930 . S
C257 C255 1.419 . S
C257 C258 1.362 . S
C258 H250 0.930 . S
C258 C257 1.362 . S
C258 C261 1.409 . S
C259 H251 0.930 . S
C259 C260 1.355 . S
C259 C261 1.415 . S
C260 C259 1.355 . S
C260 C262 1.419 . S
C261 C256 1.425 . S
C261 C258 1.409 . S
C261 C259 1.415 . S
C262 H252 0.930 . S
C262 C260 1.419 . S
C262 C263 1.362 . S
C263 H253 0.930 . S
C263 C256 1.409 . S
C263 C262 1.362 . S
H264 C270 0.930 . S
H265 C273 0.930 . S
H266 C274 0.930 . S
H267 C275 0.930 . S
H268 C278 0.930 . S
H269 C279 0.930 . S
C270 H264 0.930 . S
C270 C271 1.355 . S
C270 C272 1.415 . S
C271 C270 1.355 . S
C271 C273 1.419 . S
C272 C270 1.415 . S
C272 C277 1.425 . S
C272 C279 1.409 . S
C273 H265 0.930 . S
C273 C271 1.419 . S
C273 C274 1.362 . S
C274 H266 0.930 . S
C274 C273 1.362 . S
C274 C277 1.409 . S
C275 H267 0.930 . S
C275 C276 1.355 . S
C275 C277 1.415 . S
C276 C275 1.355 . S
C276 C278 1.419 . S
C277 C272 1.425 . S
C277 C274 1.409 . S
C277 C275 1.415 . S
C278 H268 0.930 . S
C278 C276 1.419 . S
C278 C279 1.362 . S
C279 H269 0.930 . S
C279 C272 1.409 . S
C279 C278 1.362 . S
H280 C286 0.930 . S
H281 C289 0.930 . S
H282 C290 0.930 . S
H283 C291 0.930 . S
H284 C294 0.930 . S
H285 C295 0.930 . S
C286 H280 0.930 . S
C286 C287 1.355 . S
C286 C288 1.415 . S
C287 C286 1.355 . S
C287 C289 1.419 . S
C288 C286 1.415 . S
C288 C293 1.425 . S
C288 C295 1.409 . S
C289 H281 0.930 . S
C289 C287 1.419 . S
C289 C290 1.362 . S
C290 H282 0.930 . S
C290 C289 1.362 . S
C290 C293 1.409 . S
C291 H283 0.930 . S
C291 C292 1.355 . S
C291 C293 1.415 . S
C292 C291 1.355 . S
C292 C294 1.419 . S
C293 C288 1.425 . S
C293 C290 1.409 . S
C293 C291 1.415 . S
C294 H284 0.930 . S
C294 C292 1.419 . S
C294 C295 1.362 . S
C295 H285 0.930 . S
C295 C288 1.409 . S
C295 C294 1.362 . S
H296 C302 0.930 . S
H297 C305 0.930 . S
H298 C306 0.930 . S
H299 C307 0.930 . S
H300 C310 0.930 . S
H301 C311 0.930 . S
C302 H296 0.930 . S
C302 C303 1.355 . S
C302 C304 1.415 . S
C303 C302 1.355 . S
C303 C305 1.419 . S
C304 C302 1.415 . S
C304 C309 1.425 . S
C304 C311 1.409 . S
C305 H297 0.930 . S
C305 C303 1.419 . S
C305 C306 1.362 . S
C306 H298 0.930 . S
C306 C305 1.362 . S
C306 C309 1.409 . S
C307 H299 0.930 . S
C307 C308 1.355 . S
C307 C309 1.415 . S
C308 C307 1.355 . S
C308 C310 1.419 . S
C309 C304 1.425 . S
C309 C306 1.409 . S
C309 C307 1.415 . S
C310 H300 0.930 . S
C310 C308 1.419 . S
C310 C311 1.362 . S
C311 H301 0.930 . S
C311 C304 1.409 . S
C311 C310 1.362 . S
H312 C318 0.930 . S
H313 C321 0.930 . S
H314 C322 0.930 . S
H315 C323 0.930 . S
H316 C326 0.930 . S
H317 C327 0.930 . S
C318 H312 0.930 . S
C318 C319 1.355 . S
C318 C320 1.415 . S
C319 C318 1.355 . S
C319 C321 1.419 . S
C320 C318 1.415 . S
C320 C325 1.425 . S
C320 C327 1.409 . S
C321 H313 0.930 . S
C321 C319 1.419 . S
C321 C322 1.362 . S
C322 H314 0.930 . S
C322 C321 1.362 . S
C322 C325 1.409 . S
C323 H315 0.930 . S
C323 C324 1.355 . S
C323 C325 1.415 . S
C324 C323 1.355 . S
C324 C326 1.419 . S
C325 C320 1.425 . S
C325 C322 1.409 . S
C325 C323 1.415 . S
C326 H316 0.930 . S
C326 C324 1.419 . S
C326 C327 1.362 . S
C327 H317 0.930 . S
C327 C320 1.409 . S
C327 C326 1.362 . S
H328 C334 0.930 . S
H329 C337 0.930 . S
H330 C338 0.930 . S
H331 C339 0.930 . S
H332 C342 0.930 . S
H333 C343 0.930 . S
C334 H328 0.930 . S
C334 C335 1.355 . S
C334 C336 1.415 . S
C335 C334 1.355 . S
C335 C337 1.419 . S
C336 C334 1.415 . S
C336 C341 1.425 . S
C336 C343 1.409 . S
C337 H329 0.930 . S
C337 C335 1.419 . S
C337 C338 1.362 . S
C338 H330 0.930 . S
C338 C337 1.362 . S
C338 C341 1.409 . S
C339 H331 0.930 . S
C339 C340 1.355 . S
C339 C341 1.415 . S
C340 C339 1.355 . S
C340 C342 1.419 . S
C341 C336 1.425 . S
C341 C338 1.409 . S
C341 C339 1.415 . S
C342 H332 0.930 . S
C342 C340 1.419 . S
C342 C343 1.362 . S
C343 H333 0.930 . S
C343 C336 1.409 . S
C343 C342 1.362 . S
H344 C350 0.930 . S
H345 C353 0.930 . S
H346 C354 0.930 . S
H347 C355 0.930 . S
H348 C358 0.930 . S
H349 C359 0.930 . S
C350 H344 0.930 . S
C350 C351 1.355 . S
C350 C352 1.415 . S
C351 C350 1.355 . S
C351 C353 1.419 . S
C352 C350 1.415 . S
C352 C357 1.425 . S
C352 C359 1.409 . S
C353 H345 0.930 . S
C353 C351 1.419 . S
C353 C354 1.362 . S
C354 H346 0.930 . S
C354 C353 1.362 . S
C354 C357 1.409 . S
C355 H347 0.930 . S
C355 C356 1.355 . S
C355 C357 1.415 . S
C356 C355 1.355 . S
C356 C358 1.419 . S
C357 C352 1.425 . S
C357 C354 1.409 . S
C357 C355 1.415 . S
C358 H348 0.930 . S
C358 C356 1.419 . S
C358 C359 1.362 . S
C359 H349 0.930 . S
C359 C352 1.409 . S
C359 C358 1.362 . S
H360 C366 0.930 . S
H361 C369 0.930 . S
H362 C370 0.930 . S
H363 C371 0.930 . S
H364 C374 0.930 . S
H365 C375 0.930 . S
C366 H360 0.930 . S
C366 C367 1.355 . S
C366 C368 1.415 . S
C367 C366 1.355 . S
C367 C369 1.419 . S
C368 C366 1.415 . S
C368 C373 1.425 . S
C368 C375 1.409 . S
C369 H361 0.930 . S
C369 C367 1.419 . S
C369 C370 1.362 . S
C370 H362 0.930 . S
C370 C369 1.362 . S
C370 C373 1.409 . S
C371 H363 0.930 . S
C371 C372 1.355 . S
C371 C373 1.415 . S
C372 C371 1.355 . S
C372 C374 1.419 . S
C373 C368 1.425 . S
C373 C370 1.409 . S
C373 C371 1.415 . S
C374 H364 0.930 . S
C374 C372 1.419 . S
C374 C375 1.362 . S
C375 H365 0.930 . S
C375 C368 1.409 . S
C375 C374 1.362 . S
H376 C382 0.930 . S
H377 C385 0.930 . S
H378 C386 0.930 . S
H379 C387 0.930 . S
H380 C390 0.930 . S
H381 C391 0.930 . S
C382 H376 0.930 . S
C382 C383 1.355 . S
C382 C384 1.415 . S
C383 C382 1.355 . S
C383 C385 1.419 . S
C384 C382 1.415 . S
C384 C389 1.425 . S
C384 C391 1.409 . S
C385 H377 0.930 . S
C385 C383 1.419 . S
C385 C386 1.362 . S
C386 H378 0.930 . S
C386 C385 1.362 . S
C386 C389 1.409 . S
C387 H379 0.930 . S
C387 C388 1.355 . S
C387 C389 1.415 . S
C388 C387 1.355 . S
C388 C390 1.419 . S
C389 C384 1.425 . S
C389 C386 1.409 . S
C389 C387 1.415 . S
C390 H380 0.930 . S
C390 C388 1.419 . S
C390 C391 1.362 . S
C391 H381 0.930 . S
C391 C384 1.409 . S
C391 C390 1.362 . S
H392 C398 0.930 . S
H393 C401 0.930 . S
H394 C402 0.930 . S
H395 C403 0.930 . S
H396 C406 0.930 1_655 S
H397 C407 0.930 . S
C398 H392 0.930 . S
C398 C399 1.355 . S
C398 C400 1.415 . S
C399 C398 1.355 . S
C399 C401 1.419 . S
C400 C398 1.415 . S
C400 C405 1.425 . S
C400 C407 1.409 . S
C401 H393 0.930 . S
C401 C399 1.419 . S
C401 C402 1.362 . S
C402 H394 0.930 . S
C402 C401 1.362 . S
C402 C405 1.409 . S
C403 H395 0.930 . S
C403 C404 1.355 . S
C403 C405 1.415 . S
C404 C403 1.355 . S
C404 C406 1.419 . S
C405 C400 1.425 . S
C405 C402 1.409 . S
C405 C403 1.415 . S
C406 H396 0.930 1_455 S
C406 C404 1.419 . S
C406 C407 1.362 . S
C407 H397 0.930 . S
C407 C400 1.409 . S
C407 C406 1.362 . S
H408 C414 0.930 . S
H409 C417 0.930 . S
H410 C418 0.930 . S
H411 C419 0.930 . S
H412 C422 0.930 . S
H413 C423 0.930 . S
C414 H408 0.930 . S
C414 C415 1.355 . S
C414 C416 1.415 . S
C415 C414 1.355 . S
C415 C417 1.419 . S
C416 C414 1.415 . S
C416 C421 1.425 . S
C416 C423 1.409 . S
C417 H409 0.930 . S
C417 C415 1.419 . S
C417 C418 1.362 . S
C418 H410 0.930 . S
C418 C417 1.362 . S
C418 C421 1.409 . S
C419 H411 0.930 . S
C419 C420 1.355 . S
C419 C421 1.415 . S
C420 C419 1.355 . S
C420 C422 1.419 . S
C421 C416 1.425 . S
C421 C418 1.409 . S
C421 C419 1.415 . S
C422 H412 0.930 . S
C422 C420 1.419 . S
C422 C423 1.362 . S
C423 H413 0.930 . S
C423 C416 1.409 . S
C423 C422 1.362 . S
H424 C430 0.930 . S
H425 C433 0.930 . S
H426 C434 0.930 . S
H427 C435 0.930 . S
H428 C438 0.930 1_565 S
H429 C439 0.930 . S
C430 H424 0.930 . S
C430 C431 1.355 . S
C430 C432 1.415 . S
C431 C430 1.355 . S
C431 C433 1.419 . S
C432 C430 1.415 . S
C432 C437 1.425 . S
C432 C439 1.409 . S
C433 H425 0.930 . S
C433 C431 1.419 . S
C433 C434 1.362 . S
C434 H426 0.930 . S
C434 C433 1.362 . S
C434 C437 1.409 . S
C435 H427 0.930 . S
C435 C436 1.355 . S
C435 C437 1.415 . S
C436 C435 1.355 . S
C436 C438 1.419 . S
C437 C432 1.425 . S
C437 C434 1.409 . S
C437 C435 1.415 . S
C438 H428 0.930 1_545 S
C438 C436 1.419 . S
C438 C439 1.362 . S
C439 H429 0.930 . S
C439 C432 1.409 . S
C439 C438 1.362 . S
H440 C446 0.930 . S
H441 C449 0.930 . S
H442 C450 0.930 . S
H443 C451 0.930 . S
H444 C454 0.930 . S
H445 C455 0.930 . S
C446 H440 0.930 . S
C446 C447 1.355 . S
C446 C448 1.415 . S
C447 C446 1.355 . S
C447 C449 1.419 . S
C448 C446 1.415 . S
C448 C453 1.425 . S
C448 C455 1.409 . S
C449 H441 0.930 . S
C449 C447 1.419 . S
C449 C450 1.362 . S
C450 H442 0.930 . S
C450 C449 1.362 . S
C450 C453 1.409 . S
C451 H443 0.930 . S
C451 C452 1.355 . S
C451 C453 1.415 . S
C452 C451 1.355 . S
C452 C454 1.419 . S
C453 C448 1.425 . S
C453 C450 1.409 . S
C453 C451 1.415 . S
C454 H444 0.930 . S
C454 C452 1.419 . S
C454 C455 1.362 . S
C455 H445 0.930 . S
C455 C448 1.409 . S
C455 C454 1.362 . S
H456 C462 0.930 . S
H457 C465 0.930 . S
H458 C466 0.930 . S
H459 C467 0.930 . S
H460 C470 0.930 . S
H461 C471 0.930 . S
C462 H456 0.930 . S
C462 C463 1.355 . S
C462 C464 1.415 . S
C463 C462 1.355 . S
C463 C465 1.419 . S
C464 C462 1.415 . S
C464 C469 1.425 . S
C464 C471 1.409 . S
C465 H457 0.930 . S
C465 C463 1.419 . S
C465 C466 1.362 . S
C466 H458 0.930 . S
C466 C465 1.362 . S
C466 C469 1.409 . S
C467 H459 0.930 . S
C467 C468 1.355 . S
C467 C469 1.415 . S
C468 C467 1.355 . S
C468 C470 1.419 . S
C469 C464 1.425 . S
C469 C466 1.409 . S
C469 C467 1.415 . S
C470 H460 0.930 . S
C470 C468 1.419 . S
C470 C471 1.362 . S
C471 H461 0.930 . S
C471 C464 1.409 . S
C471 C470 1.362 . S
H472 C478 0.930 . S
H473 C481 0.930 . S
H474 C482 0.930 . S
H475 C483 0.930 . S
H476 C486 0.930 . S
H477 C487 0.930 . S
C478 H472 0.930 . S
C478 C479 1.355 . S
C478 C480 1.415 . S
C479 C478 1.355 . S
C479 C481 1.419 . S
C480 C478 1.415 . S
C480 C485 1.425 . S
C480 C487 1.409 . S
C481 H473 0.930 . S
C481 C479 1.419 . S
C481 C482 1.362 . S
C482 H474 0.930 . S
C482 C481 1.362 . S
C482 C485 1.409 . S
C483 H475 0.930 . S
C483 C484 1.355 . S
C483 C485 1.415 . S
C484 C483 1.355 . S
C484 C486 1.419 . S
C485 C480 1.425 . S
C485 C482 1.409 . S
C485 C483 1.415 . S
C486 H476 0.930 . S
C486 C484 1.419 . S
C486 C487 1.362 . S
C487 H477 0.930 . S
C487 C480 1.409 . S
C487 C486 1.362 . S
H488 C494 0.930 . S
H489 C497 0.930 . S
H490 C498 0.930 . S
H491 C499 0.930 . S
H492 C502 0.930 1_556 S
H493 C503 0.930 . S
C494 H488 0.930 . S
C494 C495 1.355 . S
C494 C496 1.415 . S
C495 C494 1.355 . S
C495 C497 1.419 . S
C496 C494 1.415 . S
C496 C501 1.425 . S
C496 C503 1.409 . S
C497 H489 0.930 . S
C497 C495 1.419 . S
C497 C498 1.362 . S
C498 H490 0.930 . S
C498 C497 1.362 . S
C498 C501 1.409 . S
C499 H491 0.930 . S
C499 C500 1.355 . S
C499 C501 1.415 . S
C500 C499 1.355 . S
C500 C502 1.419 . S
C501 C496 1.425 . S
C501 C498 1.409 . S
C501 C499 1.415 . S
C502 H492 0.930 1_554 S
C502 C500 1.419 . S
C502 C503 1.362 . S
C503 H493 0.930 . S
C503 C496 1.409 . S
C503 C502 1.362 . S
H504 C510 0.930 . S
H505 C513 0.930 . S
H506 C514 0.930 . S
H507 C515 0.930 . S
H508 C518 0.930 . S
H509 C519 0.930 . S
C510 H504 0.930 . S
C510 C511 1.355 . S
C510 C512 1.415 . S
C511 C510 1.355 . S
C511 C513 1.419 . S
C512 C510 1.415 . S
C512 C517 1.425 . S
C512 C519 1.409 . S
C513 H505 0.930 . S
C513 C511 1.419 . S
C513 C514 1.362 . S
C514 H506 0.930 . S
C514 C513 1.362 . S
C514 C517 1.409 . S
C515 H507 0.930 . S
C515 C516 1.355 . S
C515 C517 1.415 . S
C516 C515 1.355 . S
C516 C518 1.419 . S
C517 C512 1.425 . S
C517 C514 1.409 . S
C517 C515 1.415 . S
C518 H508 0.930 . S
C518 C516 1.419 . S
C518 C519 1.362 . S
C519 H509 0.930 . S
C519 C512 1.409 . S
C519 C518 1.362 . S
H520 C526 0.930 . S
H521 C529 0.930 . S
H522 C530 0.930 . S
H523 C531 0.930 . S
H524 C534 0.930 . S
H525 C535 0.930 . S
C526 H520 0.930 . S
C526 C527 1.355 . S
C526 C528 1.415 . S
C527 C526 1.355 . S
C527 C529 1.419 . S
C528 C526 1.415 . S
C528 C533 1.425 . S
C528 C535 1.409 . S
C529 H521 0.930 . S
C529 C527 1.419 . S
C529 C530 1.362 . S
C530 H522 0.930 . S
C530 C529 1.362 . S
C530 C533 1.409 . S
C531 H523 0.930 . S
C531 C532 1.355 . S
C531 C533 1.415 . S
C532 C531 1.355 . S
C532 C534 1.419 . S
C533 C528 1.425 . S
C533 C530 1.409 . S
C533 C531 1.415 . S
C534 H524 0.930 . S
C534 C532 1.419 . S
C534 C535 1.362 . S
C535 H525 0.930 . S
C535 C528 1.409 . S
C535 C534 1.362 . S
C159 C5 1.341 . S
C164 C74 1.375 . S
C175 C14 1.289 . S
C180 C93 1.242 . S
C196 C130 1.771 . S
C191 C25 1.790 . S
C207 C34 1.734 . S
C212 C140 1.675 . S
C228 C110 1.735 . S
C223 C7 1.733 . S
C244 C80 1.384 . S
C239 C13 1.415 . S
C260 C151 1.505 . S
C255 C23 1.555 . S
C276 C121 1.474 . S
C271 C31 1.489 . S
C287 C4 1.555 . S
C292 C134 1.531 . S
C308 C101 1.676 . S
C303 C22 1.753 . S
C319 C32 1.742 . S
C324 C91 1.728 . S
C335 C16 1.226 . S
C340 C113 1.205 . S
C356 C73 1.384 . S
C351 C41 1.356 . S
C367 C50 1.301 . S
C372 C94 1.247 . S
C383 C61 1.773 . S
C388 C131 1.731 . S
C399 C67 1.742 . S
C404 C141 1.709 . S
C415 C40 1.750 . S
C420 C111 1.748 . S
C436 C81 1.324 . S
C431 C52 1.387 . S
C452 C150 1.557 . S
C447 C59 1.569 . S
C468 C120 1.454 . S
C463 C70 1.489 . S
C479 C43 1.557 . S
C484 C133 1.528 . S
C500 C100 1.732 . S
C495 C58 1.763 . S
C516 C90 1.712 . S
C511 C68 1.728 . S
C527 C49 1.219 . S
C532 C114 1.215 . S
