# Generated by pormake.
# Topology pyr, (3,6)-cn, num edge types: 1
# Building blocks:
#     Node 0, Type 0, BuildingBlock: BETDAH_clean_linker_0, # of connection points: 3
#     Node 1, Type 0, BuildingBlock: BETDAH_clean_linker_0, # of connection points: 3
#     Node 2, Type 0, BuildingBlock: BETDAH_clean_linker_0, # of connection points: 3
#     Node 3, Type 0, BuildingBlock: BETDAH_clean_linker_0, # of connection points: 3
#     Node 4, Type 0, BuildingBlock: BETDAH_clean_linker_0, # of connection points: 3
#     Node 5, Type 0, BuildingBlock: BETDAH_clean_linker_0, # of connection points: 3
#     Node 6, Type 0, BuildingBlock: BETDAH_clean_linker_0, # of connection points: 3
#     Node 7, Type 0, BuildingBlock: BETDAH_clean_linker_0, # of connection points: 3
#     Node 8, Type 1, BuildingBlock: BETFEN_clean_sbu_0, # of connection points: 6
#     Node 9, Type 1, BuildingBlock: BETFEN_clean_sbu_0, # of connection points: 6
#     Node 10, Type 1, BuildingBlock: BETFEN_clean_sbu_0, # of connection points: 6
#     Node 11, Type 1, BuildingBlock: BETFEN_clean_sbu_0, # of connection points: 6
#     Edge 12, Type (0, 1), BuildingBlock: CIFDUS_clean_linker_0, # of connection points: 2
#     Edge 13, Type (0, 1), BuildingBlock: CIFDUS_clean_linker_0, # of connection points: 2
#     Edge 14, Type (0, 1), BuildingBlock: CIFDUS_clean_linker_0, # of connection points: 2
#     Edge 15, Type (0, 1), BuildingBlock: CIFDUS_clean_linker_0, # of connection points: 2
#     Edge 16, Type (0, 1), BuildingBlock: CIFDUS_clean_linker_0, # of connection points: 2
#     Edge 17, Type (0, 1), BuildingBlock: CIFDUS_clean_linker_0, # of connection points: 2
#     Edge 18, Type (0, 1), BuildingBlock: CIFDUS_clean_linker_0, # of connection points: 2
#     Edge 19, Type (0, 1), BuildingBlock: CIFDUS_clean_linker_0, # of connection points: 2
#     Edge 20, Type (0, 1), BuildingBlock: CIFDUS_clean_linker_0, # of connection points: 2
#     Edge 21, Type (0, 1), BuildingBlock: CIFDUS_clean_linker_0, # of connection points: 2
#     Edge 22, Type (0, 1), BuildingBlock: CIFDUS_clean_linker_0, # of connection points: 2
#     Edge 23, Type (0, 1), BuildingBlock: CIFDUS_clean_linker_0, # of connection points: 2
#     Edge 24, Type (0, 1), BuildingBlock: CIFDUS_clean_linker_0, # of connection points: 2
#     Edge 25, Type (0, 1), BuildingBlock: CIFDUS_clean_linker_0, # of connection points: 2
#     Edge 26, Type (0, 1), BuildingBlock: CIFDUS_clean_linker_0, # of connection points: 2
#     Edge 27, Type (0, 1), BuildingBlock: CIFDUS_clean_linker_0, # of connection points: 2
#     Edge 28, Type (0, 1), BuildingBlock: CIFDUS_clean_linker_0, # of connection points: 2
#     Edge 29, Type (0, 1), BuildingBlock: CIFDUS_clean_linker_0, # of connection points: 2
#     Edge 30, Type (0, 1), BuildingBlock: CIFDUS_clean_linker_0, # of connection points: 2
#     Edge 31, Type (0, 1), BuildingBlock: CIFDUS_clean_linker_0, # of connection points: 2
#     Edge 32, Type (0, 1), BuildingBlock: CIFDUS_clean_linker_0, # of connection points: 2
#     Edge 33, Type (0, 1), BuildingBlock: CIFDUS_clean_linker_0, # of connection points: 2
#     Edge 34, Type (0, 1), BuildingBlock: CIFDUS_clean_linker_0, # of connection points: 2
#     Edge 35, Type (0, 1), BuildingBlock: CIFDUS_clean_linker_0, # of connection points: 2
# Relax obj value: 0.184
# Max RMSD: 0.308
# Mean RMSD: 0.135
data_MOF--net-pyr--node1-BETFEN_clean_sbu_0--node2-BETDAH_clean_linker_0--edge1-CIFDUS_clean_linker_0
_symmetry_space_group_name_H-M    P1
_symmetry_Int_Tables_number       1
_symmetry_cell_setting            triclinic
loop_
_symmetry_equiv_pos_as_xyz
'x, y, z'
_cell_length_a     31.335755
_cell_length_b     35.617156
_cell_length_c     33.812397
_cell_angle_alpha  91.457486
_cell_angle_beta   101.99487
_cell_angle_gamma 117.9152
loop_
_atom_site_label
_atom_site_type_symbol
_atom_site_fract_x
_atom_site_fract_y
_atom_site_fract_z
_atom_type_partial_charge
H0 H 0.45154 0.32982 0.3455 0.0
H1 H 0.52413 0.42867 0.27445 0.0
H2 H 0.45204 0.44983 0.36118 0.0
C3 C 0.46446 0.36242 0.33867 0.0
C4 C 0.45099 0.3889 0.35799 0.0
C5 C 0.49018 0.37614 0.30807 0.0
C6 C 0.50495 0.41786 0.29853 0.0
C7 C 0.49141 0.44452 0.31765 0.0
C8 C 0.46391 0.42981 0.3472 0.0
N9 N 0.50053 0.48392 0.3035 0.0
C10 C 0.46091 0.49172 0.29026 0.0
H11 H 0.37358 0.83459 0.80062 0.0
H12 H 0.27346 0.88273 0.7546 0.0
H13 H 0.28539 0.7925 0.67641 0.0
C14 C 0.34469 0.83397 0.77602 0.0
C15 C 0.33258 0.81063 0.73779 0.0
C16 C 0.32425 0.86043 0.78185 0.0
C17 C 0.28808 0.86118 0.75014 0.0
C18 C 0.27273 0.83539 0.71227 0.0
C19 C 0.29496 0.81007 0.70638 0.0
N20 N 0.23764 0.83628 0.67869 0.0
C21 C 0.2251 0.86893 0.67576 0.0
H22 H 0.71427 0.30978 0.91112 0.0
H23 H 0.6831 0.38528 0.82431 0.0
H24 H 0.56348 0.26691 0.84353 0.0
C25 C 0.68771 0.31379 0.88783 0.0
C26 C 0.63704 0.28359 0.87948 0.0
C27 C 0.70437 0.35049 0.86832 0.0
C28 C 0.67009 0.35676 0.83916 0.0
C29 C 0.61907 0.32605 0.82968 0.0
C30 C 0.60287 0.29005 0.85037 0.0
N31 N 0.58265 0.33033 0.8002 0.0
C32 C 0.59236 0.36108 0.77384 0.0
H33 H 0.86938 0.73741 0.43602 0.0
H34 H 0.93797 0.74008 0.33745 0.0
H35 H 0.81501 0.62244 0.35305 0.0
C36 C 0.87036 0.72101 0.40909 0.0
C37 C 0.83701 0.67703 0.39727 0.0
C38 C 0.90577 0.74454 0.38731 0.0
C39 C 0.91052 0.72258 0.3543 0.0
C40 C 0.87776 0.678 0.34238 0.0
C41 C 0.84099 0.65615 0.36354 0.0
N42 N 0.87739 0.65341 0.30819 0.0
C43 C 0.91358 0.6628 0.28632 0.0
H44 H 0.71294 0.70791 0.78186 0.0
H45 H 0.59874 0.64242 0.84532 0.0
H46 H 0.56942 0.70002 0.74031 0.0
C47 C 0.67496 0.6962 0.78431 0.0
C48 C 0.64272 0.70552 0.75632 0.0
C49 C 0.65994 0.67409 0.81683 0.0
C50 C 0.61071 0.65883 0.81991 0.0
C51 C 0.5781 0.66811 0.79215 0.0
C52 C 0.59429 0.69169 0.76065 0.0
N53 N 0.5317 0.65909 0.79944 0.0
C54 C 0.52469 0.69338 0.80961 0.0
H55 H 0.83717 0.18306 0.34328 0.0
H56 H 0.91188 0.27625 0.4522 0.0
H57 H 0.79063 0.27602 0.36514 0.0
C58 C 0.84176 0.21043 0.36211 0.0
C59 C 0.81 0.22793 0.34966 0.0
C60 C 0.87865 0.22753 0.39919 0.0
C61 C 0.88422 0.26308 0.42321 0.0
C62 C 0.85215 0.28016 0.41154 0.0
C63 C 0.81509 0.26251 0.3747 0.0
N64 N 0.85703 0.31428 0.43793 0.0
C65 C 0.81753 0.32207 0.43776 0.0
H66 H 0.37604 0.76471 0.20379 0.0
H67 H 0.40961 0.69561 0.29596 0.0
H68 H 0.52578 0.81735 0.27837 0.0
C69 C 0.40317 0.76275 0.22822 0.0
C70 C 0.45303 0.79506 0.2374 0.0
C71 C 0.38759 0.72676 0.2486 0.0
C72 C 0.42188 0.72368 0.28044 0.0
C73 C 0.47172 0.75725 0.29216 0.0
C74 C 0.48703 0.79263 0.27037 0.0
N75 N 0.50757 0.75614 0.32502 0.0
C76 C 0.49873 0.72123 0.34616 0.0
H77 H 0.23942 0.36043 0.69856 0.0
H78 H 0.2531 0.47683 0.75351 0.0
H79 H 0.13233 0.35531 0.76315 0.0
C80 C 0.22673 0.37643 0.71705 0.0
C81 C 0.18311 0.35181 0.73004 0.0
C82 C 0.25239 0.42148 0.72487 0.0
C83 C 0.23536 0.4421 0.74866 0.0
C84 C 0.19311 0.41845 0.76379 0.0
C85 C 0.16678 0.37327 0.75399 0.0
N86 N 0.17073 0.44084 0.77871 0.0
C87 C 0.16599 0.4454 0.81858 0.0
Pr88 Pr 1.00212 0.02972 0.57013 0.0
Pr89 Pr 0.08869 0.06934 0.53935 0.0
C90 C 0.92246 0.98507 0.60036 0.0
C91 C 0.89088 0.94461 0.61356 0.0
C92 C 0.87398 0.94657 0.6483 0.0
C93 C 0.84035 0.90919 0.6601 0.0
C94 C 0.82266 0.86907 0.63714 0.0
C95 C 0.84098 0.86694 0.60302 0.0
C96 C 0.87493 0.9046 0.59121 0.0
C97 C 0.06295 0.11645 0.60489 0.0
C98 C 0.09186 1.00616 0.60464 0.0
C99 C 0.16806 0.12044 0.51112 0.0
C100 C 0.18884 0.1601 0.49237 0.0
C101 C 0.17955 0.15787 0.44965 0.0
C102 C 0.20399 0.19439 0.43176 0.0
C103 C 0.23851 0.23377 0.45624 0.0
C104 C 0.2461 0.23647 0.49889 0.0
C105 C 0.22156 0.19995 0.51681 0.0
C106 C 1.02869 0.98326 0.50343 0.0
C107 C 0.99291 0.08344 0.49841 0.0
O108 O 0.91978 0.98557 0.56134 0.0
O109 O 0.96729 1.00918 0.62354 0.0
O110 O 0.07869 0.09015 0.60033 0.0
O111 O 1.01525 0.09857 0.59026 0.0
O112 O 0.12112 0.04154 0.59176 0.0
O113 O 0.04326 0.99133 0.59519 0.0
O114 O 0.16754 0.12401 0.54959 0.0
O115 O 0.12848 0.08708 0.48881 0.0
O116 O 1.01232 1.00894 0.50913 0.0
O117 O 0.07679 1.00186 0.51612 0.0
O118 O 0.96644 0.04808 0.5124 0.0
O119 O 0.042 0.1025 0.50976 0.0
H120 H 0.88615 0.97722 0.66595 0.0
H121 H 0.828 0.91175 0.68719 0.0
H122 H 0.82811 0.8364 0.58492 0.0
H123 H 0.88785 0.90253 0.56432 0.0
H124 H 0.15489 0.12756 0.42998 0.0
H125 H 0.198 0.1912 0.39884 0.0
H126 H 0.27238 0.26654 0.51842 0.0
H127 H 0.22962 0.20269 0.54982 0.0
Pr128 Pr 0.50597 0.05314 0.08595 0.0
Pr129 Pr 0.58589 0.04568 0.05545 0.0
C130 C 0.44913 0.05317 0.13492 0.0
C131 C 0.45047 0.0899 0.15659 0.0
C132 C 0.47066 0.12966 0.14218 0.0
C133 C 0.47938 0.16642 0.1654 0.0
C134 C 0.46798 0.16414 0.20355 0.0
C135 C 0.44665 0.12407 0.21759 0.0
C136 C 0.43813 0.08715 0.19426 0.0
C137 C 0.53756 0.11715 0.03553 0.0
C138 C 0.62688 0.11828 0.12994 0.0
C139 C 0.63833 0.02675 1.01292 0.0
C140 C 0.62393 0.98632 0.9874 0.0
C141 C 0.63471 0.95535 1.00481 0.0
C142 C 0.61521 0.91474 0.98291 0.0
C143 C 0.58502 0.90436 0.94298 0.0
C144 C 0.57572 0.93571 0.9249 0.0
C145 C 0.59489 0.9763 0.94693 0.0
C146 C 0.55502 0.99768 0.11774 0.0
C147 C 0.46616 0.98817 1.00302 0.0
O148 O 0.48897 0.04915 0.14783 0.0
O149 O 0.43403 0.0478 0.09501 0.0
O150 O 0.55488 0.0917 0.04257 0.0
O151 O 0.5028 0.10945 0.05405 0.0
O152 O 0.63727 0.11114 0.09577 0.0
O153 O 0.58139 0.09598 0.1352 0.0
O154 O 0.6153 0.04814 0.99924 0.0
O155 O 0.64347 0.0253 0.05209 0.0
O156 O 0.52624 0.99903 0.08626 0.0
O157 O 0.60139 0.02251 0.11847 0.0
O158 O 0.45138 0.99798 0.03339 0.0
O159 O 0.51373 1.00335 1.00411 0.0
H160 H 0.48135 0.13272 0.11358 0.0
H161 H 0.49658 0.19684 0.154 0.0
H162 H 0.43697 0.12132 0.24671 0.0
H163 H 0.42322 0.05679 0.20606 0.0
H164 H 0.65708 0.96205 0.03583 0.0
H165 H 0.62366 0.89135 0.99728 0.0
H166 H 0.55248 0.92843 0.89414 0.0
H167 H 0.58572 0.99933 0.93261 0.0
Pr168 Pr 0.57497 0.59532 0.6004 0.0
Pr169 Pr 0.53526 0.50443 0.54391 0.0
C170 C 0.58406 0.66652 0.63817 0.0
C171 C 0.54797 0.67754 0.64876 0.0
C172 C 0.5064 0.64684 0.66094 0.0
C173 C 0.47163 0.65745 0.67008 0.0
C174 C 0.47812 0.69894 0.66722 0.0
C175 C 0.51935 0.7293 0.65432 0.0
C176 C 0.5538 0.71853 0.64488 0.0
C177 C 0.60752 0.53991 0.63384 0.0
C178 C 0.46122 0.51133 0.59748 0.0
C179 C 0.53221 0.42989 0.52355 0.0
C180 C 0.55932 0.41538 0.50236 0.0
C181 C 0.5761 0.43348 0.46852 0.0
C182 C 0.60722 0.42279 0.45227 0.0
C183 C 0.62292 0.39464 0.47022 0.0
C184 C 0.60549 0.3765 0.50394 0.0
C185 C 0.57378 0.38655 0.5196 0.0
C186 C 0.50865 0.55864 0.49904 0.0
C187 C 0.63876 0.59194 0.53523 0.0
O188 O 0.58107 0.66101 0.59912 0.0
O189 O 0.59136 0.63809 0.65801 0.0
O190 O 0.56457 0.52965 0.61247 0.0
O191 O 0.63634 0.58142 0.63947 0.0
O192 O 0.4686 0.48559 0.57406 0.0
O193 O 0.49332 0.5529 0.6084 0.0
O194 O 0.55933 0.45506 0.5581 0.0
O195 O 0.50175 0.44167 0.50184 0.0
O196 O 0.53151 0.56526 0.53591 0.0
O197 O 0.49689 0.52031 0.48293 0.0
O198 O 0.6289 0.61653 0.55754 0.0
O199 O 0.6138 0.54939 0.53107 0.0
H200 H 0.50098 0.61481 0.66365 0.0
H201 H 0.44033 0.63358 0.68015 0.0
H202 H 0.52477 0.76135 0.65129 0.0
H203 H 0.58507 0.74222 0.63463 0.0
H204 H 0.5659 0.45637 0.45515 0.0
H205 H 0.61956 0.43706 0.42609 0.0
H206 H 0.61782 0.35574 0.51939 0.0
H207 H 0.56212 0.37311 0.54633 0.0
Pr208 Pr 0.04649 0.60185 0.02968 0.0
Pr209 Pr 0.05445 0.53476 0.07526 0.0
C210 C 1.02704 0.6499 0.97644 0.0
C211 C 0.98538 0.6591 0.96286 0.0
C212 C 0.98908 0.69778 0.97837 0.0
C213 C 0.9491 0.70595 0.96657 0.0
C214 C 0.90477 0.6757 0.93881 0.0
C215 C 0.90141 0.63724 0.92305 0.0
C216 C 0.94117 0.629 0.93496 0.0
C217 C 0.13189 0.63326 0.09369 0.0
C218 C 1.0023 0.58846 0.10892 0.0
C219 C 0.07636 0.4893 0.13046 0.0
C220 C 0.11977 0.48277 0.14222 0.0
C221 C 0.1233 0.45854 0.17342 0.0
C222 C 0.16687 0.45569 0.18683 0.0
C223 C 0.20738 0.47714 0.16917 0.0
C224 C 0.20293 0.50038 0.13706 0.0
C225 C 0.15945 0.50315 0.12371 0.0
C226 C 0.96638 0.50363 1.01371 0.0
C227 C 0.09383 0.54529 0.99249 0.0
O228 O 1.0182 0.61089 0.96563 0.0
O229 O 0.054 0.66569 1.01391 0.0
O230 O 0.11587 0.60005 0.06847 0.0
O231 O 0.10551 0.65242 0.08472 0.0
O232 O 1.02983 0.56967 0.11988 0.0
O233 O 0.99353 0.59647 0.07116 0.0
O234 O 0.08546 0.52859 0.13978 0.0
O235 O 0.04823 0.47202 0.0936 0.0
O236 O 0.98481 0.53743 0.03852 0.0
O237 O 0.99182 0.48351 1.02157 0.0
O238 O 0.07071 0.5682 0.98471 0.0
O239 O 0.10012 0.53304 0.02875 0.0
H240 H 1.0228 0.72165 0.99981 0.0
H241 H 0.95283 0.73585 0.97935 0.0
H242 H 0.86833 0.61371 0.90081 0.0
H243 H 0.93711 0.59897 0.92215 0.0
H244 H 0.09287 0.44261 0.18792 0.0
H245 H 0.16914 0.43715 0.2113 0.0
H246 H 0.23368 0.51766 0.12321 0.0
H247 H 0.15726 0.52214 0.09962 0.0
H248 H 0.35263 0.36222 0.34323 0.0
H249 H 0.47764 0.37171 0.43329 0.0
H250 H 0.42261 0.3297 0.47558 0.0
H251 H 0.33831 0.28213 0.48168 0.0
H252 H 0.21165 0.26521 0.38793 0.0
H253 H 0.26745 0.31769 0.3517 0.0
C254 C 0.36758 0.35604 0.37275 0.0
C255 C 0.41902 0.37102 0.38624 0.0
C256 C 0.33523 0.32971 0.3955 0.0
C257 C 0.43834 0.36168 0.42352 0.0
C258 C 0.40678 0.33716 0.44721 0.0
C259 C 0.32287 0.29087 0.45395 0.0
C260 C 0.27105 0.27009 0.43755 0.0
C261 C 0.35507 0.31997 0.43289 0.0
C262 C 0.25152 0.28081 0.40101 0.0
C263 C 0.28337 0.31074 0.38034 0.0
H264 H 0.29534 0.86108 0.8524 0.0
H265 H 0.41201 0.93085 0.79193 0.0
H266 H 0.46625 0.97716 0.85577 0.0
H267 H 0.48271 0.99383 0.92874 0.0
H268 H 0.36763 0.9269 0.9916 0.0
H269 H 0.30979 0.88348 0.92661 0.0
C270 C 0.33203 0.88739 0.85329 0.0
C271 C 0.34982 0.89333 0.81789 0.0
C272 C 0.36325 0.91369 0.89033 0.0
C273 C 0.39768 0.92661 0.81898 0.0
C274 C 0.42875 0.95267 0.85541 0.0
C275 C 0.44498 0.96968 0.92835 0.0
C276 C 0.42963 0.96268 0.96479 0.0
C277 C 0.41232 0.94575 0.89131 0.0
C278 C 0.38028 0.9323 0.96376 0.0
C279 C 0.34733 0.90762 0.92671 0.0
H280 H 0.66448 0.44169 0.77086 0.0
H281 H 0.51835 0.3407 0.70798 0.0
H282 H 0.51162 0.38635 0.65698 0.0
H283 H 0.54454 0.45606 0.63309 0.0
H284 H 0.6906 0.55832 0.69464 0.0
H285 H 0.70043 0.51126 0.74329 0.0
C286 C 0.63156 0.42982 0.74567 0.0
C287 C 0.59183 0.38816 0.74288 0.0
C288 C 0.62793 0.45644 0.71643 0.0
C289 C 0.54923 0.37278 0.71044 0.0
C290 C 0.54537 0.39883 0.68138 0.0
C291 C 0.57901 0.4679 0.6566 0.0
C292 C 0.61687 0.51058 0.66014 0.0
C293 C 0.58414 0.44086 0.6844 0.0
C294 C 0.66098 0.52551 0.69118 0.0
C295 C 0.66649 0.49866 0.7191 0.0
H296 H 0.871 0.61944 0.21109 0.0
H297 H 1.01355 0.69242 0.2972 0.0
H298 H 0.05412 0.67489 0.2502 0.0
H299 H 0.04801 0.63612 0.18489 0.0
H300 H 0.90505 0.56588 0.09839 0.0
H301 H 0.86542 0.58409 0.14525 0.0
C302 C 0.9111 0.63202 0.21923 0.0
C303 C 0.93945 0.65758 0.25723 0.0
C304 C 0.93383 0.6215 0.1922 0.0
C305 C 0.99115 0.67313 0.26786 0.0
C306 C 1.0142 0.6628 0.24109 0.0
C307 C 1.00817 0.62473 0.17657 0.0
C308 C 0.97925 0.5992 0.13846 0.0
C309 C 0.98581 0.63649 0.20334 0.0
C310 C 0.92791 0.58536 0.12758 0.0
C311 C 0.9053 0.59587 0.15433 0.0
H312 H 0.52042 0.31893 0.33342 0.0
H313 H 0.46576 0.36073 0.22513 0.0
H314 H 0.45547 0.29907 0.18285 0.0
H315 H 0.45402 0.22989 0.17762 0.0
H316 H 0.50796 0.18739 0.28582 0.0
H317 H 0.52501 0.25219 0.32749 0.0
C318 C 0.507 0.31478 0.30049 0.0
C319 C 0.49396 0.34423 0.28236 0.0
C320 C 0.49985 0.2787 0.27656 0.0
C321 C 0.47682 0.33881 0.23969 0.0
C322 C 0.47026 0.30328 0.21558 0.0
C323 C 0.47021 0.23508 0.21023 0.0
C324 C 0.47922 0.20372 0.2287 0.0
C325 C 0.48045 0.27251 0.23384 0.0
C326 C 0.49964 0.21065 0.27105 0.0
C327 C 0.50987 0.24785 0.29481 0.0
H328 H 0.1378 0.86403 0.67808 0.0
H329 H 0.28096 0.94655 0.65557 0.0
H330 H 0.25382 0.99898 0.63437 0.0
H331 H 0.18679 0.01823 0.61713 0.0
H332 H 0.04281 0.93421 0.63844 0.0
H333 H 0.07282 0.8858 0.66551 0.0
C334 C 0.1631 0.89386 0.66908 0.0
C335 C 0.21108 0.90181 0.66824 0.0
C336 C 0.14696 0.9234 0.6565 0.0
C337 C 0.2438 0.94016 0.65643 0.0
C338 C 0.22823 0.96996 0.64421 0.0
C339 C 0.16217 0.98966 0.62821 0.0
C340 C 0.11247 0.97984 0.62546 0.0
C341 C 0.1795 0.96152 0.64336 0.0
C342 C 0.08113 0.94255 0.63993 0.0
C343 C 0.09822 0.91472 0.6554 0.0
H344 H 0.74522 0.43003 0.91029 0.0
H345 H 0.78182 0.34073 0.85782 0.0
H346 H 0.86888 0.38356 0.89598 0.0
H347 H 0.93087 0.43977 0.9517 0.0
H348 H 0.89495 0.52854 1.00642 0.0
H349 H 0.81141 0.49292 0.95992 0.0
C350 C 0.77282 0.42102 0.90625 0.0
C351 C 0.75766 0.38261 0.88132 0.0
C352 C 0.82245 0.44506 0.92943 0.0
C353 C 0.79315 0.37048 0.87668 0.0
C354 C 0.84266 0.39466 0.8988 0.0
C355 C 0.90487 0.45154 0.95315 0.0
C356 C 0.91836 0.48592 0.98292 0.0
C357 C 0.85716 0.43089 0.92654 0.0
C358 C 0.88495 0.50162 0.98402 0.0
C359 C 0.83725 0.48129 0.95746 0.0
H360 H 0.78817 0.70804 0.4349 0.0
H361 H 0.79716 0.59244 0.41147 0.0
H362 H 0.73591 0.55555 0.4507 0.0
H363 H 0.68175 0.55681 0.49415 0.0
H364 H 0.68058 0.67535 0.52212 0.0
H365 H 0.7385 0.71057 0.48027 0.0
C366 C 0.77791 0.67507 0.43893 0.0
C367 C 0.79822 0.65355 0.42026 0.0
C368 C 0.74434 0.65451 0.46301 0.0
C369 C 0.78216 0.61009 0.42484 0.0
C370 C 0.74738 0.58895 0.44775 0.0
C371 C 0.69441 0.59041 0.4913 0.0
C372 C 0.67675 0.61327 0.51158 0.0
C373 C 0.72856 0.61097 0.46737 0.0
C374 C 0.69365 0.65684 0.50734 0.0
C375 C 0.72667 0.67709 0.48313 0.0
H376 H 0.41555 0.48101 0.21172 0.0
H377 H 0.404 0.50238 0.33405 0.0
H378 H 0.3229 0.49866 0.30715 0.0
H379 H 0.25568 0.48922 0.24866 0.0
H380 H 0.26652 0.46632 0.12613 0.0
H381 H 0.34767 0.47074 0.15308 0.0
C382 C 0.39529 0.48532 0.23225 0.0
C383 C 0.41539 0.49281 0.27452 0.0
C384 C 0.34867 0.48254 0.21653 0.0
C385 C 0.38908 0.49747 0.30129 0.0
C386 C 0.34276 0.49503 0.28594 0.0
C387 C 0.27555 0.48466 0.22791 0.0
C388 C 0.25516 0.47736 0.18551 0.0
C389 C 0.32214 0.48741 0.24361 0.0
C390 C 0.28168 0.47228 0.1589 0.0
C391 C 0.32798 0.47475 0.17427 0.0
H392 H 0.56304 0.25765 0.91889 0.0
H393 H 0.67509 0.22883 0.89475 0.0
H394 H 0.65437 0.17431 0.94066 0.0
H395 H 0.60637 0.13674 0.99016 0.0
H396 H 0.49618 0.16789 1.01515 0.0
H397 H 0.51408 0.21929 0.96664 0.0
C398 C 0.58227 0.23888 0.92315 0.0
C399 C 0.62039 0.24714 0.90341 0.0
C400 C 0.57086 0.20825 0.95018 0.0
C401 C 0.64565 0.2231 0.90976 0.0
C402 C 0.63391 0.192 0.93606 0.0
C403 C 0.5864 0.15484 0.98493 0.0
C404 C 0.55017 0.14861 1.00635 0.0
C405 C 0.59706 0.18472 0.95696 0.0
C406 C 0.52443 0.17219 0.9992 0.0
C407 C 0.53451 0.20156 0.97135 0.0
H408 H 0.873 0.80035 0.40284 0.0
H409 H 1.00766 0.79494 0.40324 0.0
H410 H 0.05771 0.86907 0.43839 0.0
H411 H 0.06271 0.93296 0.47447 0.0
H412 H 0.92738 0.937 0.47514 0.0
H413 H 0.87796 0.86547 0.43486 0.0
C414 C 0.91339 0.81557 0.4102 0.0
C415 C 0.93657 0.79193 0.40067 0.0
C416 C 0.94168 0.85764 0.43133 0.0
C417 C 0.98887 0.81235 0.40992 0.0
C418 C 1.01743 0.85458 0.43048 0.0
C419 C 1.02238 0.91827 0.46564 0.0
C420 C 0.99873 0.94029 0.47803 0.0
C421 C 0.9942 0.87711 0.44229 0.0
C422 C 0.9465 0.92083 0.46612 0.0
C423 C 0.91825 0.87994 0.44303 0.0
H424 H 0.30537 0.73351 0.69429 0.0
H425 H 0.43353 0.84976 0.76238 0.0
H426 H 0.48887 0.82388 0.74884 0.0
H427 H 0.50181 0.77061 0.71499 0.0
H428 H 0.37596 0.65468 0.64508 0.0
H429 H 0.31878 0.6781 0.66172 0.0
C430 C 0.34537 0.75305 0.70605 0.0
C431 C 0.36508 0.79322 0.72965 0.0
C432 C 0.37746 0.73826 0.69764 0.0
C433 C 0.41711 0.81824 0.7449 0.0
C434 C 0.44898 0.8037 0.73691 0.0
C435 C 0.46185 0.75044 0.70348 0.0
C436 C 0.44303 0.71129 0.67869 0.0
C437 C 0.42962 0.76408 0.713 0.0
C438 C 0.39119 0.68504 0.66436 0.0
C439 C 0.35859 0.69848 0.6737 0.0
H440 H 0.70141 0.70166 0.70938 0.0
H441 H 0.62915 0.77353 0.73588 0.0
H442 H 0.67371 0.82763 0.69536 0.0
H443 H 0.741 0.85903 0.66054 0.0
H444 H 0.82046 0.79154 0.64102 0.0
H445 H 0.76504 0.73092 0.67042 0.0
C446 C 0.69525 0.72908 0.70606 0.0
C447 C 0.66249 0.73385 0.72594 0.0
C448 C 0.72259 0.76094 0.6843 0.0
C449 C 0.65398 0.76899 0.72074 0.0
C450 C 0.6798 0.80014 0.6979 0.0
C451 C 0.74609 0.83097 0.66264 0.0
C452 C 0.78524 0.83 0.64937 0.0
C453 C 0.71543 0.79715 0.68086 0.0
C454 C 0.79057 0.79301 0.65107 0.0
C455 C 0.75914 0.75853 0.66812 0.0
H456 H 0.82018 0.2111 0.27448 0.0
H457 H 0.71179 0.20433 0.33852 0.0
H458 H 0.64612 0.17337 0.27507 0.0
H459 H 0.61897 0.14508 0.20241 0.0
H460 H 0.72712 0.15172 0.1379 0.0
H461 H 0.79358 0.18656 0.20039 0.0
C462 C 0.78211 0.2027 0.27442 0.0
C463 C 0.77063 0.2096 0.31101 0.0
C464 C 0.74467 0.18523 0.2378 0.0
C465 C 0.72142 0.19932 0.31061 0.0
C466 C 0.68392 0.18162 0.27441 0.0
C467 C 0.65716 0.15461 0.20185 0.0
C468 C 0.66797 0.14562 0.16559 0.0
C469 C 0.69506 0.17413 0.23793 0.0
C470 C 0.71772 0.15842 0.16535 0.0
C471 C 0.75575 0.17803 0.20116 0.0
H472 H 0.51202 0.72177 0.42727 0.0
H473 H 0.47331 0.64161 0.31408 0.0
H474 H 0.47004 0.58258 0.35144 0.0
H475 H 0.48238 0.55514 0.41669 0.0
H476 H 0.52094 0.63532 0.52985 0.0
H477 H 0.5198 0.69285 0.4925 0.0
C478 C 0.50234 0.69112 0.41096 0.0
C479 C 0.49291 0.68564 0.36823 0.0
C480 C 0.50072 0.6575 0.4327 0.0
C481 C 0.48058 0.64617 0.34709 0.0
C482 C 0.47873 0.61252 0.36842 0.0
C483 C 0.49004 0.58507 0.4331 0.0
C484 C 0.50265 0.59138 0.47606 0.0
C485 C 0.48931 0.61797 0.41127 0.0
C486 C 0.51231 0.63019 0.49691 0.0
C487 C 0.51139 0.66298 0.4755 0.0
H488 H 0.14633 0.5094 0.8292 0.0
H489 H 0.16513 0.41202 0.89096 0.0
H490 H 0.14678 0.43533 0.95165 0.0
H491 H 0.12254 0.48281 0.98634 0.0
H492 H 0.10298 0.5789 0.92166 0.0
H493 H 0.1245 0.55696 0.86354 0.0
C494 C 0.14663 0.49342 0.85608 0.0
C495 C 0.15705 0.45912 0.8557 0.0
C496 C 0.13579 0.50686 0.8905 0.0
C497 C 0.15723 0.43857 0.89059 0.0
C498 C 0.1467 0.45193 0.92525 0.0
C499 C 0.12349 0.4992 0.95969 0.0
C500 C 0.11101 0.53264 0.95876 0.0
C501 C 0.13559 0.48599 0.92555 0.0
C502 C 0.11213 0.55309 0.9236 0.0
C503 C 0.12447 0.54054 0.8901 0.0
H504 H 0.50363 0.71 0.87809 0.0
H505 H 0.55696 0.76556 0.77507 0.0
H506 H 0.5762 0.83659 0.80582 0.0
H507 H 0.58557 0.8835 0.86543 0.0
H508 H 0.53683 0.82798 0.97034 0.0
H509 H 0.50809 0.7562 0.93574 0.0
C510 C 0.5183 0.73763 0.86212 0.0
C511 C 0.52795 0.73304 0.82424 0.0
C512 C 0.5308 0.77829 0.88068 0.0
C513 C 0.54817 0.76872 0.8039 0.0
C514 C 0.55964 0.80923 0.82167 0.0
C515 C 0.56788 0.85557 0.88034 0.0
C516 C 0.56366 0.86088 0.92041 0.0
C517 C 0.55217 0.81452 0.8605 0.0
C518 C 0.54111 0.82458 0.93968 0.0
C519 C 0.52453 0.7836 0.91989 0.0
H520 H 0.84578 0.14252 0.40097 0.0
H521 H 0.97912 0.26569 0.43298 0.0
H522 H 1.02742 0.23161 0.46406 0.0
H523 H 1.03059 0.16712 0.4856 0.0
H524 H 0.89589 0.04465 0.45563 0.0
H525 H 0.84955 0.07799 0.41983 0.0
C526 C 0.8856 0.16179 0.41405 0.0
C527 C 0.90888 0.20652 0.41456 0.0
C528 C 0.91289 0.14209 0.43236 0.0
C529 C 0.96032 0.23119 0.43241 0.0
C530 C 0.98794 0.21172 0.45012 0.0
C531 C 0.99129 0.14767 0.47068 0.0
C532 C 0.96679 0.10346 0.47325 0.0
C533 C 0.96449 0.16724 0.45078 0.0
C534 C 0.91566 0.07877 0.45421 0.0
C535 C 0.88906 0.0978 0.43374 0.0
H536 H 0.30496 0.73095 0.25025 0.0
H537 H 0.35561 0.64732 0.20875 0.0
H538 H 0.27559 0.60579 0.1581 0.0
H539 H 0.19894 0.60387 0.11655 0.0
H540 H 0.15349 0.69265 0.15632 0.0
H541 H 0.2235 0.72179 0.2162 0.0
C542 C 0.29744 0.70244 0.23126 0.0
C543 C 0.33573 0.69211 0.23291 0.0
C544 C 0.25295 0.68075 0.20074 0.0
C545 C 0.32625 0.65549 0.2081 0.0
C546 C 0.28092 0.63236 0.17861 0.0
C547 C 0.20415 0.62914 0.1387 0.0
C548 C 0.17194 0.64688 0.13151 0.0
C549 C 0.24525 0.64639 0.17304 0.0
C550 C 0.17853 0.67921 0.16063 0.0
C551 C 0.21838 0.69574 0.19509 0.0
H552 H 0.26006 0.40214 0.64872 0.0
H553 H 0.33932 0.49759 0.7562 0.0
H554 H 0.40907 0.53565 0.7249 0.0
H555 H 0.44985 0.53905 0.66873 0.0
H556 H 0.37245 0.43953 0.56454 0.0
H557 H 0.30036 0.40503 0.59359 0.0
C558 C 0.29283 0.43083 0.66588 0.0
C559 C 0.29441 0.44632 0.70532 0.0
C560 C 0.33341 0.45171 0.64831 0.0
C561 C 0.33668 0.48474 0.72589 0.0
C562 C 0.37683 0.50641 0.70808 0.0
C563 C 0.41691 0.5102 0.65209 0.0
C564 C 0.41643 0.49218 0.61422 0.0
C565 C 0.37587 0.48987 0.6695 0.0
C566 C 0.37385 0.45416 0.5936 0.0
C567 C 0.33258 0.4344 0.61022 0.0
H568 H 0.7541 0.73566 0.85274 0.0
H569 H 0.64958 0.60249 0.85135 0.0
H570 H 0.71597 0.59284 0.89447 0.0
H571 H 0.80531 0.62018 0.92493 0.0
H572 H 0.91036 0.75176 0.9199 0.0
H573 H 0.84204 0.76427 0.88722 0.0
C574 C 0.74582 0.7045 0.86197 0.0
C575 C 0.69736 0.66952 0.84815 0.0
C576 C 0.78431 0.69893 0.88535 0.0
C577 C 0.68668 0.62978 0.86144 0.0
C578 C 0.72468 0.62422 0.88579 0.0
C579 C 0.81324 0.65162 0.91674 0.0
C580 C 0.86295 0.68478 0.92432 0.0
C581 C 0.77391 0.6582 0.89667 0.0
C582 C 0.87251 0.72569 0.91463 0.0
C583 C 0.83348 0.73279 0.89561 0.0
H584 H 0.52169 0.88126 0.25841 0.0
H585 H 0.42019 0.78532 0.15466 0.0
H586 H 0.43801 0.83998 0.10999 0.0
H587 H 0.48331 0.91484 0.09917 0.0
H588 H 0.59318 1.01011 0.19968 0.0
H589 H 0.57138 0.95637 0.24661 0.0
C590 C 0.50387 0.87226 0.22601 0.0
C591 C 0.46851 0.82917 0.21041 0.0
C592 C 0.51558 0.90391 0.19977 0.0
C593 C 0.44613 0.8183 0.16809 0.0
C594 C 0.45653 0.84955 0.14224 0.0
C595 C 0.50199 0.92379 0.13145 0.0
C596 C 0.53923 0.96618 0.14624 0.0
C597 C 0.49092 0.89243 0.1577 0.0
C598 C 0.56414 0.97746 0.18785 0.0
C599 C 0.55182 0.94677 0.21458 0.0
H600 H 0.21499 0.29333 0.71831 0.0
H601 H 0.08123 0.3045 0.70193 0.0
H602 H 0.03252 0.2326 0.6629 0.0
H603 H 1.02871 0.16886 0.62832 0.0
H604 H 0.163 0.15923 0.64158 0.0
H605 H 0.21086 0.22883 0.6855 0.0
C606 C 0.17514 0.28015 0.70629 0.0
C607 C 0.15217 0.30494 0.71306 0.0
C608 C 0.14753 0.2393 0.68243 0.0
C609 C 0.10018 0.28644 0.69791 0.0
C610 C 0.07228 0.2454 0.67496 0.0
C611 C 0.06846 0.18192 0.64088 0.0
C612 C 0.09225 0.15881 0.63151 0.0
C613 C 0.09573 0.22198 0.66618 0.0
C614 C 0.14375 0.17626 0.64819 0.0
C615 C 0.1711 0.21603 0.67342 0.0
H616 H 0.8082 0.39242 0.42632 0.0
H617 H 0.73272 0.26309 0.45323 0.0
H618 H 0.66253 0.27276 0.46173 0.0
H619 H 0.62537 0.3193 0.46527 0.0
H620 H 0.70352 0.45063 0.44308 0.0
H621 H 0.76887 0.43842 0.4272 0.0
C622 C 0.77603 0.36642 0.43367 0.0
C623 C 0.77511 0.32726 0.43943 0.0
C624 C 0.73628 0.37247 0.43898 0.0
C625 C 0.73372 0.2935 0.44883 0.0
C626 C 0.69378 0.29904 0.45367 0.0
C627 C 0.65677 0.34539 0.45715 0.0
C628 C 0.65963 0.38595 0.45588 0.0
C629 C 0.69509 0.33864 0.4495 0.0
C630 C 0.69994 0.41894 0.44403 0.0
C631 C 0.7377 0.41215 0.43535 0.0
loop_
_geom_bond_atom_site_label_1
_geom_bond_atom_site_label_2
_geom_bond_distance
_geom_bond_site_symmetry_2
_ccdc_geom_bond_type
H0 C3 0.929 . S
H1 C6 0.929 . S
H2 C8 0.930 . S
C3 H0 0.929 . S
C3 C4 1.398 . S
C3 C5 1.396 . S
C4 C3 1.398 . S
C4 C8 1.407 . S
C5 C3 1.396 . S
C5 C6 1.394 . S
C6 H1 0.929 . S
C6 C5 1.394 . S
C6 C7 1.382 . S
C7 C6 1.382 . S
C7 C8 1.392 . S
C7 N9 1.420 . S
C8 H2 0.930 . S
C8 C4 1.407 . S
C8 C7 1.392 . S
N9 C7 1.420 . S
N9 C10 1.244 . S
C10 N9 1.244 . S
H11 C14 0.929 . S
H12 C17 0.929 . S
H13 C19 0.930 . S
C14 H11 0.929 . S
C14 C15 1.398 . S
C14 C16 1.396 . S
C15 C14 1.398 . S
C15 C19 1.407 . S
C16 C14 1.396 . S
C16 C17 1.394 . S
C17 H12 0.929 . S
C17 C16 1.394 . S
C17 C18 1.382 . S
C18 C17 1.382 . S
C18 C19 1.392 . S
C18 N20 1.420 . S
C19 H13 0.930 . S
C19 C15 1.407 . S
C19 C18 1.392 . S
N20 C18 1.420 . S
N20 C21 1.244 . S
C21 N20 1.244 . S
H22 C25 0.929 . S
H23 C28 0.929 . S
H24 C30 0.930 . S
C25 H22 0.929 . S
C25 C26 1.398 . S
C25 C27 1.396 . S
C26 C25 1.398 . S
C26 C30 1.407 . S
C27 C25 1.396 . S
C27 C28 1.394 . S
C28 H23 0.929 . S
C28 C27 1.394 . S
C28 C29 1.382 . S
C29 C28 1.382 . S
C29 C30 1.392 . S
C29 N31 1.420 . S
C30 H24 0.930 . S
C30 C26 1.407 . S
C30 C29 1.392 . S
N31 C29 1.420 . S
N31 C32 1.244 . S
C32 N31 1.244 . S
H33 C36 0.929 . S
H34 C39 0.929 . S
H35 C41 0.930 . S
C36 H33 0.929 . S
C36 C37 1.398 . S
C36 C38 1.396 . S
C37 C36 1.398 . S
C37 C41 1.407 . S
C38 C36 1.396 . S
C38 C39 1.394 . S
C39 H34 0.929 . S
C39 C38 1.394 . S
C39 C40 1.382 . S
C40 C39 1.382 . S
C40 C41 1.392 . S
C40 N42 1.420 . S
C41 H35 0.930 . S
C41 C37 1.407 . S
C41 C40 1.392 . S
N42 C40 1.420 . S
N42 C43 1.244 . S
C43 N42 1.244 . S
H44 C47 0.929 . S
H45 C50 0.929 . S
H46 C52 0.930 . S
C47 H44 0.929 . S
C47 C48 1.398 . S
C47 C49 1.396 . S
C48 C47 1.398 . S
C48 C52 1.407 . S
C49 C47 1.396 . S
C49 C50 1.394 . S
C50 H45 0.929 . S
C50 C49 1.394 . S
C50 C51 1.382 . S
C51 C50 1.382 . S
C51 C52 1.392 . S
C51 N53 1.420 . S
C52 H46 0.930 . S
C52 C48 1.407 . S
C52 C51 1.392 . S
N53 C51 1.420 . S
N53 C54 1.244 . S
C54 N53 1.244 . S
H55 C58 0.929 . S
H56 C61 0.929 . S
H57 C63 0.930 . S
C58 H55 0.929 . S
C58 C59 1.398 . S
C58 C60 1.396 . S
C59 C58 1.398 . S
C59 C63 1.407 . S
C60 C58 1.396 . S
C60 C61 1.394 . S
C61 H56 0.929 . S
C61 C60 1.394 . S
C61 C62 1.382 . S
C62 C61 1.382 . S
C62 C63 1.392 . S
C62 N64 1.420 . S
C63 H57 0.930 . S
C63 C59 1.407 . S
C63 C62 1.392 . S
N64 C62 1.420 . S
N64 C65 1.244 . S
C65 N64 1.244 . S
H66 C69 0.929 . S
H67 C72 0.929 . S
H68 C74 0.930 . S
C69 H66 0.929 . S
C69 C70 1.398 . S
C69 C71 1.396 . S
C70 C69 1.398 . S
C70 C74 1.407 . S
C71 C69 1.396 . S
C71 C72 1.394 . S
C72 H67 0.929 . S
C72 C71 1.394 . S
C72 C73 1.382 . S
C73 C72 1.382 . S
C73 C74 1.392 . S
C73 N75 1.420 . S
C74 H68 0.930 . S
C74 C70 1.407 . S
C74 C73 1.392 . S
N75 C73 1.420 . S
N75 C76 1.244 . S
C76 N75 1.244 . S
H77 C80 0.929 . S
H78 C83 0.929 . S
H79 C85 0.930 . S
C80 H77 0.929 . S
C80 C81 1.398 . S
C80 C82 1.396 . S
C81 C80 1.398 . S
C81 C85 1.407 . S
C82 C80 1.396 . S
C82 C83 1.394 . S
C83 H78 0.929 . S
C83 C82 1.394 . S
C83 C84 1.382 . S
C84 C83 1.382 . S
C84 C85 1.392 . S
C84 N86 1.420 . S
C85 H79 0.930 . S
C85 C81 1.407 . S
C85 C84 1.392 . S
N86 C84 1.420 . S
N86 C87 1.244 . S
C87 N86 1.244 . S
Pr88 C90 2.881 . S
Pr88 O108 2.564 . S
Pr88 O109 2.490 . S
Pr88 O110 2.695 1_665 S
Pr88 O111 2.512 1_665 S
Pr88 O113 2.438 1_655 S
Pr88 O116 2.436 . S
Pr88 O118 2.437 1_565 S
Pr89 C99 2.880 . S
Pr89 O110 2.436 . S
Pr89 O112 2.438 1_545 S
Pr89 O114 2.562 . S
Pr89 O115 2.490 . S
Pr89 O116 2.695 1_445 S
Pr89 O117 2.512 1_545 S
Pr89 O119 2.437 . S
C90 Pr88 2.881 . S
C90 C91 1.491 . S
C90 O108 1.254 . S
C90 O109 1.225 . S
C91 C90 1.491 . S
C91 C92 1.392 . S
C91 C96 1.356 . S
C92 C91 1.392 . S
C92 C93 1.368 . S
C92 H120 0.929 . S
C93 C92 1.368 . S
C93 C94 1.386 . S
C93 H121 0.929 . S
C94 C93 1.386 . S
C94 C95 1.373 . S
C95 C94 1.373 . S
C95 C96 1.409 . S
C95 H122 0.931 . S
C96 C91 1.356 . S
C96 C95 1.409 . S
C96 H123 0.930 . S
C97 O110 1.270 . S
C97 O111 1.248 . S
C98 O112 1.267 . S
C98 O113 1.278 . S
C99 Pr89 2.880 . S
C99 C100 1.491 . S
C99 O114 1.254 . S
C99 O115 1.225 . S
C100 C99 1.491 . S
C100 C101 1.392 . S
C100 C105 1.356 . S
C101 C100 1.392 . S
C101 C102 1.368 . S
C101 H124 0.929 . S
C102 C101 1.368 . S
C102 C103 1.386 . S
C102 H125 0.929 . S
C103 C102 1.386 . S
C103 C104 1.373 . S
C104 C103 1.373 . S
C104 C105 1.409 . S
C104 H126 0.931 . S
C105 C100 1.356 . S
C105 C104 1.409 . S
C105 H127 0.930 . S
C106 O116 1.270 . S
C106 O117 1.248 1_655 S
C107 O118 1.267 . S
C107 O119 1.278 1_655 S
O108 Pr88 2.564 . S
O108 C90 1.254 . S
O109 Pr88 2.490 . S
O109 C90 1.225 . S
O110 Pr88 2.695 1_445 S
O110 Pr89 2.436 . S
O110 C97 1.270 . S
O111 Pr88 2.512 1_445 S
O111 C97 1.248 . S
O112 Pr89 2.438 1_565 S
O112 C98 1.267 . S
O113 Pr88 2.438 1_455 S
O113 C98 1.278 . S
O114 Pr89 2.562 . S
O114 C99 1.254 . S
O115 Pr89 2.490 . S
O115 C99 1.225 . S
O116 Pr88 2.436 . S
O116 Pr89 2.695 1_665 S
O116 C106 1.270 . S
O117 Pr89 2.512 1_565 S
O117 C106 1.248 1_455 S
O118 Pr88 2.437 1_545 S
O118 C107 1.267 . S
O119 Pr89 2.437 . S
O119 C107 1.278 1_455 S
H120 C92 0.929 . S
H121 C93 0.929 . S
H122 C95 0.931 . S
H123 C96 0.930 . S
H124 C101 0.929 . S
H125 C102 0.929 . S
H126 C104 0.931 . S
H127 C105 0.930 . S
Pr128 C130 2.880 . S
Pr128 O148 2.562 . S
Pr128 O149 2.490 . S
Pr128 O150 2.695 . S
Pr128 O151 2.512 . S
Pr128 O153 2.437 . S
Pr128 O156 2.436 1_545 S
Pr128 O158 2.438 1_544 S
Pr129 C139 2.880 1_554 S
Pr129 O150 2.436 1_565 S
Pr129 O152 2.438 1_565 S
Pr129 O154 2.562 1_554 S
Pr129 O155 2.490 . S
Pr129 O156 2.695 . S
Pr129 O157 2.512 . S
Pr129 O159 2.437 . S
C130 Pr128 2.880 . S
C130 C131 1.491 . S
C130 O148 1.254 . S
C130 O149 1.225 . S
C131 C130 1.491 . S
C131 C132 1.392 . S
C131 C136 1.356 . S
C132 C131 1.392 . S
C132 C133 1.368 . S
C132 H160 0.929 . S
C133 C132 1.368 . S
C133 C134 1.386 . S
C133 H161 0.929 . S
C134 C133 1.386 . S
C134 C135 1.373 . S
C135 C134 1.373 . S
C135 C136 1.409 . S
C135 H162 0.931 . S
C136 C131 1.356 . S
C136 C135 1.409 . S
C136 H163 0.930 . S
C137 O150 1.270 . S
C137 O151 1.248 . S
C138 O152 1.267 . S
C138 O153 1.278 . S
C139 Pr129 2.880 1_556 S
C139 C140 1.491 . S
C139 O154 1.254 . S
C139 O155 1.225 1_556 S
C140 C139 1.491 . S
C140 C141 1.392 . S
C140 C145 1.356 . S
C141 C140 1.392 . S
C141 C142 1.368 . S
C141 H164 0.907 1_556 S
C142 C141 1.368 . S
C142 C143 1.386 . S
C142 H165 0.929 . S
C143 C142 1.386 . S
C143 C144 1.373 . S
C144 C143 1.373 . S
C144 C145 1.409 . S
C144 H166 0.931 . S
C145 C140 1.356 . S
C145 C144 1.409 . S
C145 H167 0.930 . S
C146 O156 1.270 . S
C146 O157 1.248 . S
C147 O158 1.267 . S
C147 O159 1.278 1_556 S
O148 Pr128 2.562 . S
O148 C130 1.254 . S
O149 Pr128 2.490 . S
O149 C130 1.225 . S
O150 Pr128 2.695 . S
O150 Pr129 2.436 1_545 S
O150 C137 1.270 . S
O151 Pr128 2.512 . S
O151 C137 1.248 . S
O152 Pr129 2.438 1_545 S
O152 C138 1.267 . S
O153 Pr128 2.437 . S
O153 C138 1.278 . S
O154 Pr129 2.562 1_556 S
O154 C139 1.254 . S
O155 Pr129 2.490 . S
O155 C139 1.225 1_554 S
O156 Pr128 2.436 1_565 S
O156 Pr129 2.695 . S
O156 C146 1.270 . S
O157 Pr129 2.512 . S
O157 C146 1.248 . S
O158 Pr128 2.438 1_566 S
O158 C147 1.267 . S
O159 Pr129 2.437 . S
O159 C147 1.278 1_554 S
H160 C132 0.929 . S
H161 C133 0.929 . S
H162 C135 0.931 . S
H163 C136 0.930 . S
H164 C141 0.907 1_554 S
H165 C142 0.929 . S
H166 C144 0.931 . S
H167 C145 0.930 . S
Pr168 C170 2.880 . S
Pr168 O188 2.562 . S
Pr168 O189 2.490 . S
Pr168 O190 2.695 . S
Pr168 O191 2.512 . S
Pr168 O193 2.437 . S
Pr168 O196 2.436 . S
Pr168 O198 2.438 . S
Pr169 C179 2.880 . S
Pr169 O190 2.436 . S
Pr169 O192 2.438 . S
Pr169 O194 2.562 . S
Pr169 O195 2.490 . S
Pr169 O196 2.695 . S
Pr169 O197 2.512 . S
Pr169 O199 2.437 . S
C170 Pr168 2.880 . S
C170 C171 1.491 . S
C170 O188 1.254 . S
C170 O189 1.225 . S
C171 C170 1.491 . S
C171 C172 1.392 . S
C171 C176 1.356 . S
C172 C171 1.392 . S
C172 C173 1.368 . S
C172 H200 0.929 . S
C173 C172 1.368 . S
C173 C174 1.386 . S
C173 H201 0.929 . S
C174 C173 1.386 . S
C174 C175 1.373 . S
C175 C174 1.373 . S
C175 C176 1.409 . S
C175 H202 0.931 . S
C176 C171 1.356 . S
C176 C175 1.409 . S
C176 H203 0.930 . S
C177 O190 1.270 . S
C177 O191 1.248 . S
C178 O192 1.267 . S
C178 O193 1.278 . S
C179 Pr169 2.880 . S
C179 C180 1.491 . S
C179 O194 1.254 . S
C179 O195 1.225 . S
C180 C179 1.491 . S
C180 C181 1.392 . S
C180 C185 1.356 . S
C181 C180 1.392 . S
C181 C182 1.368 . S
C181 H204 0.929 . S
C182 C181 1.368 . S
C182 C183 1.386 . S
C182 H205 0.929 . S
C183 C182 1.386 . S
C183 C184 1.373 . S
C184 C183 1.373 . S
C184 C185 1.409 . S
C184 H206 0.931 . S
C185 C180 1.356 . S
C185 C184 1.409 . S
C185 H207 0.930 . S
C186 O196 1.270 . S
C186 O197 1.248 . S
C187 O198 1.267 . S
C187 O199 1.278 . S
O188 Pr168 2.562 . S
O188 C170 1.254 . S
O189 Pr168 2.490 . S
O189 C170 1.225 . S
O190 Pr168 2.695 . S
O190 Pr169 2.436 . S
O190 C177 1.270 . S
O191 Pr168 2.512 . S
O191 C177 1.248 . S
O192 Pr169 2.438 . S
O192 C178 1.267 . S
O193 Pr168 2.437 . S
O193 C178 1.278 . S
O194 Pr169 2.562 . S
O194 C179 1.254 . S
O195 Pr169 2.490 . S
O195 C179 1.225 . S
O196 Pr168 2.436 . S
O196 Pr169 2.695 . S
O196 C186 1.270 . S
O197 Pr169 2.512 . S
O197 C186 1.248 . S
O198 Pr168 2.438 . S
O198 C187 1.267 . S
O199 Pr169 2.437 . S
O199 C187 1.278 . S
H200 C172 0.929 . S
H201 C173 0.929 . S
H202 C175 0.931 . S
H203 C176 0.930 . S
H204 C181 0.929 . S
H205 C182 0.929 . S
H206 C184 0.931 . S
H207 C185 0.930 . S
Pr208 C210 2.880 1_455 S
Pr208 O228 2.562 1_455 S
Pr208 O229 2.490 . S
Pr208 O230 2.695 1_556 S
Pr208 O231 2.512 1_556 S
Pr208 O233 2.437 1_556 S
Pr208 O236 2.436 1_455 S
Pr208 O238 2.438 . S
Pr209 C219 2.880 . S
Pr209 O230 2.436 . S
Pr209 O232 2.444 . S
Pr209 O234 2.562 . S
Pr209 O235 2.490 . S
Pr209 O236 2.695 1_454 S
Pr209 O237 2.512 1_454 S
Pr209 O239 2.437 1_554 S
C210 Pr208 2.880 1_655 S
C210 C211 1.491 . S
C210 O228 1.254 . S
C210 O229 1.225 1_655 S
C211 C210 1.491 . S
C211 C212 1.392 . S
C211 C216 1.356 . S
C212 C211 1.392 . S
C212 C213 1.368 . S
C212 H240 0.929 1_655 S
C213 C212 1.368 . S
C213 C214 1.386 . S
C213 H241 0.929 . S
C214 C213 1.386 . S
C214 C215 1.373 . S
C215 C214 1.373 . S
C215 C216 1.409 . S
C215 H242 0.931 . S
C216 C211 1.356 . S
C216 C215 1.409 . S
C216 H243 0.930 . S
C217 O230 1.270 . S
C217 O231 1.248 . S
C218 O232 1.263 1_655 S
C218 O233 1.278 1_655 S
C219 Pr209 2.880 . S
C219 C220 1.491 . S
C219 O234 1.254 . S
C219 O235 1.225 . S
C220 C219 1.491 . S
C220 C221 1.392 . S
C220 C225 1.356 . S
C221 C220 1.392 . S
C221 C222 1.368 . S
C221 H244 0.929 . S
C222 C221 1.368 . S
C222 C223 1.386 . S
C222 H245 0.929 . S
C223 C222 1.386 . S
C223 C224 1.373 . S
C224 C223 1.373 . S
C224 C225 1.409 . S
C224 H246 0.931 . S
C225 C220 1.356 . S
C225 C224 1.409 . S
C225 H247 0.930 . S
C226 O236 1.270 . S
C226 O237 1.248 . S
C227 O238 1.267 . S
C227 O239 1.278 . S
O228 Pr208 2.562 1_655 S
O228 C210 1.254 . S
O229 Pr208 2.490 . S
O229 C210 1.225 1_455 S
O230 Pr208 2.695 1_554 S
O230 Pr209 2.436 . S
O230 C217 1.270 . S
O231 Pr208 2.512 1_554 S
O231 C217 1.248 . S
O232 Pr209 2.444 . S
O232 C218 1.263 1_455 S
O233 Pr208 2.437 1_554 S
O233 C218 1.278 1_455 S
O234 Pr209 2.562 . S
O234 C219 1.254 . S
O235 Pr209 2.490 . S
O235 C219 1.225 . S
O236 Pr208 2.436 1_655 S
O236 Pr209 2.695 1_656 S
O236 C226 1.270 . S
O237 Pr209 2.512 1_656 S
O237 C226 1.248 . S
O238 Pr208 2.438 . S
O238 C227 1.267 . S
O239 Pr209 2.437 1_556 S
O239 C227 1.278 . S
H240 C212 0.929 1_455 S
H241 C213 0.929 . S
H242 C215 0.931 . S
H243 C216 0.930 . S
H244 C221 0.929 . S
H245 C222 0.929 . S
H246 C224 0.931 . S
H247 C225 0.930 . S
H248 C254 0.930 . S
H249 C257 0.930 . S
H250 C258 0.930 . S
H251 C259 0.930 . S
H252 C262 0.930 . S
H253 C263 0.930 . S
C254 H248 0.930 . S
C254 C255 1.355 . S
C254 C256 1.415 . S
C255 C254 1.355 . S
C255 C257 1.419 . S
C256 C254 1.415 . S
C256 C261 1.425 . S
C256 C263 1.409 . S
C257 H249 0.930 . S
C257 C255 1.419 . S
C257 C258 1.362 . S
C258 H250 0.930 . S
C258 C257 1.362 . S
C258 C261 1.409 . S
C259 H251 0.930 . S
C259 C260 1.355 . S
C259 C261 1.415 . S
C260 C259 1.355 . S
C260 C262 1.419 . S
C261 C256 1.425 . S
C261 C258 1.409 . S
C261 C259 1.415 . S
C262 H252 0.930 . S
C262 C260 1.419 . S
C262 C263 1.362 . S
C263 H253 0.930 . S
C263 C256 1.409 . S
C263 C262 1.362 . S
H264 C270 0.930 . S
H265 C273 0.930 . S
H266 C274 0.930 . S
H267 C275 0.930 . S
H268 C278 0.930 . S
H269 C279 0.930 . S
C270 H264 0.930 . S
C270 C271 1.355 . S
C270 C272 1.415 . S
C271 C270 1.355 . S
C271 C273 1.419 . S
C272 C270 1.415 . S
C272 C277 1.425 . S
C272 C279 1.409 . S
C273 H265 0.930 . S
C273 C271 1.419 . S
C273 C274 1.362 . S
C274 H266 0.930 . S
C274 C273 1.362 . S
C274 C277 1.409 . S
C275 H267 0.930 . S
C275 C276 1.355 . S
C275 C277 1.415 . S
C276 C275 1.355 . S
C276 C278 1.419 . S
C277 C272 1.425 . S
C277 C274 1.409 . S
C277 C275 1.415 . S
C278 H268 0.930 . S
C278 C276 1.419 . S
C278 C279 1.362 . S
C279 H269 0.930 . S
C279 C272 1.409 . S
C279 C278 1.362 . S
H280 C286 0.930 . S
H281 C289 0.930 . S
H282 C290 0.930 . S
H283 C291 0.930 . S
H284 C294 0.930 . S
H285 C295 0.930 . S
C286 H280 0.930 . S
C286 C287 1.355 . S
C286 C288 1.415 . S
C287 C286 1.355 . S
C287 C289 1.419 . S
C288 C286 1.415 . S
C288 C293 1.425 . S
C288 C295 1.409 . S
C289 H281 0.930 . S
C289 C287 1.419 . S
C289 C290 1.362 . S
C290 H282 0.930 . S
C290 C289 1.362 . S
C290 C293 1.409 . S
C291 H283 0.930 . S
C291 C292 1.355 . S
C291 C293 1.415 . S
C292 C291 1.355 . S
C292 C294 1.419 . S
C293 C288 1.425 . S
C293 C290 1.409 . S
C293 C291 1.415 . S
C294 H284 0.930 . S
C294 C292 1.419 . S
C294 C295 1.362 . S
C295 H285 0.930 . S
C295 C288 1.409 . S
C295 C294 1.362 . S
H296 C302 0.930 . S
H297 C305 0.930 . S
H298 C306 0.930 . S
H299 C307 0.930 . S
H300 C310 0.930 . S
H301 C311 0.930 . S
C302 H296 0.930 . S
C302 C303 1.355 . S
C302 C304 1.415 . S
C303 C302 1.355 . S
C303 C305 1.419 . S
C304 C302 1.415 . S
C304 C309 1.425 . S
C304 C311 1.409 . S
C305 H297 0.930 . S
C305 C303 1.419 . S
C305 C306 1.362 . S
C306 H298 0.930 . S
C306 C305 1.362 . S
C306 C309 1.409 . S
C307 H299 0.930 . S
C307 C308 1.355 . S
C307 C309 1.415 . S
C308 C307 1.355 . S
C308 C310 1.419 . S
C309 C304 1.425 . S
C309 C306 1.409 . S
C309 C307 1.415 . S
C310 H300 0.930 . S
C310 C308 1.419 . S
C310 C311 1.362 . S
C311 H301 0.930 . S
C311 C304 1.409 . S
C311 C310 1.362 . S
H312 C318 0.930 . S
H313 C321 0.930 . S
H314 C322 0.930 . S
H315 C323 0.930 . S
H316 C326 0.930 . S
H317 C327 0.930 . S
C318 H312 0.930 . S
C318 C319 1.355 . S
C318 C320 1.415 . S
C319 C318 1.355 . S
C319 C321 1.419 . S
C320 C318 1.415 . S
C320 C325 1.425 . S
C320 C327 1.409 . S
C321 H313 0.930 . S
C321 C319 1.419 . S
C321 C322 1.362 . S
C322 H314 0.930 . S
C322 C321 1.362 . S
C322 C325 1.409 . S
C323 H315 0.930 . S
C323 C324 1.355 . S
C323 C325 1.415 . S
C324 C323 1.355 . S
C324 C326 1.419 . S
C325 C320 1.425 . S
C325 C322 1.409 . S
C325 C323 1.415 . S
C326 H316 0.930 . S
C326 C324 1.419 . S
C326 C327 1.362 . S
C327 H317 0.930 . S
C327 C320 1.409 . S
C327 C326 1.362 . S
H328 C334 0.930 . S
H329 C337 0.930 . S
H330 C338 0.930 . S
H331 C339 0.930 . S
H332 C342 0.930 . S
H333 C343 0.930 . S
C334 H328 0.930 . S
C334 C335 1.355 . S
C334 C336 1.415 . S
C335 C334 1.355 . S
C335 C337 1.419 . S
C336 C334 1.415 . S
C336 C341 1.425 . S
C336 C343 1.409 . S
C337 H329 0.930 . S
C337 C335 1.419 . S
C337 C338 1.362 . S
C338 H330 0.930 . S
C338 C337 1.362 . S
C338 C341 1.409 . S
C339 H331 0.930 . S
C339 C340 1.355 . S
C339 C341 1.415 . S
C340 C339 1.355 . S
C340 C342 1.419 . S
C341 C336 1.425 . S
C341 C338 1.409 . S
C341 C339 1.415 . S
C342 H332 0.930 . S
C342 C340 1.419 . S
C342 C343 1.362 . S
C343 H333 0.930 . S
C343 C336 1.409 . S
C343 C342 1.362 . S
H344 C350 0.930 . S
H345 C353 0.930 . S
H346 C354 0.930 . S
H347 C355 0.930 . S
H348 C358 0.930 . S
H349 C359 0.930 . S
C350 H344 0.930 . S
C350 C351 1.355 . S
C350 C352 1.415 . S
C351 C350 1.355 . S
C351 C353 1.419 . S
C352 C350 1.415 . S
C352 C357 1.425 . S
C352 C359 1.409 . S
C353 H345 0.930 . S
C353 C351 1.419 . S
C353 C354 1.362 . S
C354 H346 0.930 . S
C354 C353 1.362 . S
C354 C357 1.409 . S
C355 H347 0.930 . S
C355 C356 1.355 . S
C355 C357 1.415 . S
C356 C355 1.355 . S
C356 C358 1.419 . S
C357 C352 1.425 . S
C357 C354 1.409 . S
C357 C355 1.415 . S
C358 H348 0.930 . S
C358 C356 1.419 . S
C358 C359 1.362 . S
C359 H349 0.930 . S
C359 C352 1.409 . S
C359 C358 1.362 . S
H360 C366 0.930 . S
H361 C369 0.930 . S
H362 C370 0.930 . S
H363 C371 0.930 . S
H364 C374 0.930 . S
H365 C375 0.930 . S
C366 H360 0.930 . S
C366 C367 1.355 . S
C366 C368 1.415 . S
C367 C366 1.355 . S
C367 C369 1.419 . S
C368 C366 1.415 . S
C368 C373 1.425 . S
C368 C375 1.409 . S
C369 H361 0.930 . S
C369 C367 1.419 . S
C369 C370 1.362 . S
C370 H362 0.930 . S
C370 C369 1.362 . S
C370 C373 1.409 . S
C371 H363 0.930 . S
C371 C372 1.355 . S
C371 C373 1.415 . S
C372 C371 1.355 . S
C372 C374 1.419 . S
C373 C368 1.425 . S
C373 C370 1.409 . S
C373 C371 1.415 . S
C374 H364 0.930 . S
C374 C372 1.419 . S
C374 C375 1.362 . S
C375 H365 0.930 . S
C375 C368 1.409 . S
C375 C374 1.362 . S
H376 C382 0.930 . S
H377 C385 0.930 . S
H378 C386 0.930 . S
H379 C387 0.930 . S
H380 C390 0.930 . S
H381 C391 0.930 . S
C382 H376 0.930 . S
C382 C383 1.355 . S
C382 C384 1.415 . S
C383 C382 1.355 . S
C383 C385 1.419 . S
C384 C382 1.415 . S
C384 C389 1.425 . S
C384 C391 1.409 . S
C385 H377 0.930 . S
C385 C383 1.419 . S
C385 C386 1.362 . S
C386 H378 0.930 . S
C386 C385 1.362 . S
C386 C389 1.409 . S
C387 H379 0.930 . S
C387 C388 1.355 . S
C387 C389 1.415 . S
C388 C387 1.355 . S
C388 C390 1.419 . S
C389 C384 1.425 . S
C389 C386 1.409 . S
C389 C387 1.415 . S
C390 H380 0.930 . S
C390 C388 1.419 . S
C390 C391 1.362 . S
C391 H381 0.930 . S
C391 C384 1.409 . S
C391 C390 1.362 . S
H392 C398 0.930 . S
H393 C401 0.930 . S
H394 C402 0.930 . S
H395 C403 0.930 . S
H396 C406 0.930 . S
H397 C407 0.930 . S
C398 H392 0.930 . S
C398 C399 1.355 . S
C398 C400 1.415 . S
C399 C398 1.355 . S
C399 C401 1.419 . S
C400 C398 1.415 . S
C400 C405 1.425 . S
C400 C407 1.409 . S
C401 H393 0.930 . S
C401 C399 1.419 . S
C401 C402 1.362 . S
C402 H394 0.930 . S
C402 C401 1.362 . S
C402 C405 1.409 . S
C403 H395 0.930 . S
C403 C404 1.355 . S
C403 C405 1.415 . S
C404 C403 1.355 . S
C404 C406 1.419 . S
C405 C400 1.425 . S
C405 C402 1.409 . S
C405 C403 1.415 . S
C406 H396 0.930 . S
C406 C404 1.419 . S
C406 C407 1.362 . S
C407 H397 0.930 . S
C407 C400 1.409 . S
C407 C406 1.362 . S
H408 C414 0.930 . S
H409 C417 0.930 . S
H410 C418 0.930 . S
H411 C419 0.930 . S
H412 C422 0.930 . S
H413 C423 0.930 . S
C414 H408 0.930 . S
C414 C415 1.355 . S
C414 C416 1.415 . S
C415 C414 1.355 . S
C415 C417 1.419 . S
C416 C414 1.415 . S
C416 C421 1.425 . S
C416 C423 1.409 . S
C417 H409 0.930 . S
C417 C415 1.419 . S
C417 C418 1.362 . S
C418 H410 0.930 . S
C418 C417 1.362 . S
C418 C421 1.409 . S
C419 H411 0.930 . S
C419 C420 1.355 . S
C419 C421 1.415 . S
C420 C419 1.355 . S
C420 C422 1.419 . S
C421 C416 1.425 . S
C421 C418 1.409 . S
C421 C419 1.415 . S
C422 H412 0.930 . S
C422 C420 1.419 . S
C422 C423 1.362 . S
C423 H413 0.930 . S
C423 C416 1.409 . S
C423 C422 1.362 . S
H424 C430 0.930 . S
H425 C433 0.930 . S
H426 C434 0.930 . S
H427 C435 0.930 . S
H428 C438 0.930 . S
H429 C439 0.930 . S
C430 H424 0.930 . S
C430 C431 1.355 . S
C430 C432 1.415 . S
C431 C430 1.355 . S
C431 C433 1.419 . S
C432 C430 1.415 . S
C432 C437 1.425 . S
C432 C439 1.409 . S
C433 H425 0.930 . S
C433 C431 1.419 . S
C433 C434 1.362 . S
C434 H426 0.930 . S
C434 C433 1.362 . S
C434 C437 1.409 . S
C435 H427 0.930 . S
C435 C436 1.355 . S
C435 C437 1.415 . S
C436 C435 1.355 . S
C436 C438 1.419 . S
C437 C432 1.425 . S
C437 C434 1.409 . S
C437 C435 1.415 . S
C438 H428 0.930 . S
C438 C436 1.419 . S
C438 C439 1.362 . S
C439 H429 0.930 . S
C439 C432 1.409 . S
C439 C438 1.362 . S
H440 C446 0.930 . S
H441 C449 0.930 . S
H442 C450 0.930 . S
H443 C451 0.930 . S
H444 C454 0.930 . S
H445 C455 0.930 . S
C446 H440 0.930 . S
C446 C447 1.355 . S
C446 C448 1.415 . S
C447 C446 1.355 . S
C447 C449 1.419 . S
C448 C446 1.415 . S
C448 C453 1.425 . S
C448 C455 1.409 . S
C449 H441 0.930 . S
C449 C447 1.419 . S
C449 C450 1.362 . S
C450 H442 0.930 . S
C450 C449 1.362 . S
C450 C453 1.409 . S
C451 H443 0.930 . S
C451 C452 1.355 . S
C451 C453 1.415 . S
C452 C451 1.355 . S
C452 C454 1.419 . S
C453 C448 1.425 . S
C453 C450 1.409 . S
C453 C451 1.415 . S
C454 H444 0.930 . S
C454 C452 1.419 . S
C454 C455 1.362 . S
C455 H445 0.930 . S
C455 C448 1.409 . S
C455 C454 1.362 . S
H456 C462 0.930 . S
H457 C465 0.930 . S
H458 C466 0.930 . S
H459 C467 0.930 . S
H460 C470 0.930 . S
H461 C471 0.930 . S
C462 H456 0.930 . S
C462 C463 1.355 . S
C462 C464 1.415 . S
C463 C462 1.355 . S
C463 C465 1.419 . S
C464 C462 1.415 . S
C464 C469 1.425 . S
C464 C471 1.409 . S
C465 H457 0.930 . S
C465 C463 1.419 . S
C465 C466 1.362 . S
C466 H458 0.930 . S
C466 C465 1.362 . S
C466 C469 1.409 . S
C467 H459 0.930 . S
C467 C468 1.355 . S
C467 C469 1.415 . S
C468 C467 1.355 . S
C468 C470 1.419 . S
C469 C464 1.425 . S
C469 C466 1.409 . S
C469 C467 1.415 . S
C470 H460 0.930 . S
C470 C468 1.419 . S
C470 C471 1.362 . S
C471 H461 0.930 . S
C471 C464 1.409 . S
C471 C470 1.362 . S
H472 C478 0.930 . S
H473 C481 0.930 . S
H474 C482 0.930 . S
H475 C483 0.930 . S
H476 C486 0.930 . S
H477 C487 0.930 . S
C478 H472 0.930 . S
C478 C479 1.355 . S
C478 C480 1.415 . S
C479 C478 1.355 . S
C479 C481 1.419 . S
C480 C478 1.415 . S
C480 C485 1.425 . S
C480 C487 1.409 . S
C481 H473 0.930 . S
C481 C479 1.419 . S
C481 C482 1.362 . S
C482 H474 0.930 . S
C482 C481 1.362 . S
C482 C485 1.409 . S
C483 H475 0.930 . S
C483 C484 1.355 . S
C483 C485 1.415 . S
C484 C483 1.355 . S
C484 C486 1.419 . S
C485 C480 1.425 . S
C485 C482 1.409 . S
C485 C483 1.415 . S
C486 H476 0.930 . S
C486 C484 1.419 . S
C486 C487 1.362 . S
C487 H477 0.930 . S
C487 C480 1.409 . S
C487 C486 1.362 . S
H488 C494 0.930 . S
H489 C497 0.930 . S
H490 C498 0.930 . S
H491 C499 0.930 . S
H492 C502 0.930 . S
H493 C503 0.930 . S
C494 H488 0.930 . S
C494 C495 1.355 . S
C494 C496 1.415 . S
C495 C494 1.355 . S
C495 C497 1.419 . S
C496 C494 1.415 . S
C496 C501 1.425 . S
C496 C503 1.409 . S
C497 H489 0.930 . S
C497 C495 1.419 . S
C497 C498 1.362 . S
C498 H490 0.930 . S
C498 C497 1.362 . S
C498 C501 1.409 . S
C499 H491 0.930 . S
C499 C500 1.355 . S
C499 C501 1.415 . S
C500 C499 1.355 . S
C500 C502 1.419 . S
C501 C496 1.425 . S
C501 C498 1.409 . S
C501 C499 1.415 . S
C502 H492 0.930 . S
C502 C500 1.419 . S
C502 C503 1.362 . S
C503 H493 0.930 . S
C503 C496 1.409 . S
C503 C502 1.362 . S
H504 C510 0.930 . S
H505 C513 0.930 . S
H506 C514 0.930 . S
H507 C515 0.930 . S
H508 C518 0.930 . S
H509 C519 0.930 . S
C510 H504 0.930 . S
C510 C511 1.355 . S
C510 C512 1.415 . S
C511 C510 1.355 . S
C511 C513 1.419 . S
C512 C510 1.415 . S
C512 C517 1.425 . S
C512 C519 1.409 . S
C513 H505 0.930 . S
C513 C511 1.419 . S
C513 C514 1.362 . S
C514 H506 0.930 . S
C514 C513 1.362 . S
C514 C517 1.409 . S
C515 H507 0.930 . S
C515 C516 1.355 . S
C515 C517 1.415 . S
C516 C515 1.355 . S
C516 C518 1.419 . S
C517 C512 1.425 . S
C517 C514 1.409 . S
C517 C515 1.415 . S
C518 H508 0.930 . S
C518 C516 1.419 . S
C518 C519 1.362 . S
C519 H509 0.930 . S
C519 C512 1.409 . S
C519 C518 1.362 . S
H520 C526 0.930 . S
H521 C529 0.930 . S
H522 C530 0.930 1_455 S
H523 C531 0.930 1_455 S
H524 C534 0.930 . S
H525 C535 0.930 . S
C526 H520 0.930 . S
C526 C527 1.355 . S
C526 C528 1.415 . S
C527 C526 1.355 . S
C527 C529 1.419 . S
C528 C526 1.415 . S
C528 C533 1.425 . S
C528 C535 1.409 . S
C529 H521 0.930 . S
C529 C527 1.419 . S
C529 C530 1.362 . S
C530 H522 0.930 1_655 S
C530 C529 1.362 . S
C530 C533 1.409 . S
C531 H523 0.930 1_655 S
C531 C532 1.355 . S
C531 C533 1.415 . S
C532 C531 1.355 . S
C532 C534 1.419 . S
C533 C528 1.425 . S
C533 C530 1.409 . S
C533 C531 1.415 . S
C534 H524 0.930 . S
C534 C532 1.419 . S
C534 C535 1.362 . S
C535 H525 0.930 . S
C535 C528 1.409 . S
C535 C534 1.362 . S
H536 C542 0.930 . S
H537 C545 0.930 . S
H538 C546 0.930 . S
H539 C547 0.930 . S
H540 C550 0.930 . S
H541 C551 0.930 . S
C542 H536 0.930 . S
C542 C543 1.355 . S
C542 C544 1.415 . S
C543 C542 1.355 . S
C543 C545 1.419 . S
C544 C542 1.415 . S
C544 C549 1.425 . S
C544 C551 1.409 . S
C545 H537 0.930 . S
C545 C543 1.419 . S
C545 C546 1.362 . S
C546 H538 0.930 . S
C546 C545 1.362 . S
C546 C549 1.409 . S
C547 H539 0.930 . S
C547 C548 1.355 . S
C547 C549 1.415 . S
C548 C547 1.355 . S
C548 C550 1.419 . S
C549 C544 1.425 . S
C549 C546 1.409 . S
C549 C547 1.415 . S
C550 H540 0.930 . S
C550 C548 1.419 . S
C550 C551 1.362 . S
C551 H541 0.930 . S
C551 C544 1.409 . S
C551 C550 1.362 . S
H552 C558 0.930 . S
H553 C561 0.930 . S
H554 C562 0.930 . S
H555 C563 0.930 . S
H556 C566 0.930 . S
H557 C567 0.930 . S
C558 H552 0.930 . S
C558 C559 1.355 . S
C558 C560 1.415 . S
C559 C558 1.355 . S
C559 C561 1.419 . S
C560 C558 1.415 . S
C560 C565 1.425 . S
C560 C567 1.409 . S
C561 H553 0.930 . S
C561 C559 1.419 . S
C561 C562 1.362 . S
C562 H554 0.930 . S
C562 C561 1.362 . S
C562 C565 1.409 . S
C563 H555 0.930 . S
C563 C564 1.355 . S
C563 C565 1.415 . S
C564 C563 1.355 . S
C564 C566 1.419 . S
C565 C560 1.425 . S
C565 C562 1.409 . S
C565 C563 1.415 . S
C566 H556 0.930 . S
C566 C564 1.419 . S
C566 C567 1.362 . S
C567 H557 0.930 . S
C567 C560 1.409 . S
C567 C566 1.362 . S
H568 C574 0.930 . S
H569 C577 0.930 . S
H570 C578 0.930 . S
H571 C579 0.930 . S
H572 C582 0.930 . S
H573 C583 0.930 . S
C574 H568 0.930 . S
C574 C575 1.355 . S
C574 C576 1.415 . S
C575 C574 1.355 . S
C575 C577 1.419 . S
C576 C574 1.415 . S
C576 C581 1.425 . S
C576 C583 1.409 . S
C577 H569 0.930 . S
C577 C575 1.419 . S
C577 C578 1.362 . S
C578 H570 0.930 . S
C578 C577 1.362 . S
C578 C581 1.409 . S
C579 H571 0.930 . S
C579 C580 1.355 . S
C579 C581 1.415 . S
C580 C579 1.355 . S
C580 C582 1.419 . S
C581 C576 1.425 . S
C581 C578 1.409 . S
C581 C579 1.415 . S
C582 H572 0.930 . S
C582 C580 1.419 . S
C582 C583 1.362 . S
C583 H573 0.930 . S
C583 C576 1.409 . S
C583 C582 1.362 . S
H584 C590 0.930 . S
H585 C593 0.930 . S
H586 C594 0.930 . S
H587 C595 0.930 . S
H588 C598 0.930 . S
H589 C599 0.930 . S
C590 H584 0.930 . S
C590 C591 1.355 . S
C590 C592 1.415 . S
C591 C590 1.355 . S
C591 C593 1.419 . S
C592 C590 1.415 . S
C592 C597 1.425 . S
C592 C599 1.409 . S
C593 H585 0.930 . S
C593 C591 1.419 . S
C593 C594 1.362 . S
C594 H586 0.930 . S
C594 C593 1.362 . S
C594 C597 1.409 . S
C595 H587 0.930 . S
C595 C596 1.355 . S
C595 C597 1.415 . S
C596 C595 1.355 . S
C596 C598 1.419 . S
C597 C592 1.425 . S
C597 C594 1.409 . S
C597 C595 1.415 . S
C598 H588 0.930 . S
C598 C596 1.419 . S
C598 C599 1.362 . S
C599 H589 0.930 . S
C599 C592 1.409 . S
C599 C598 1.362 . S
H600 C606 0.930 . S
H601 C609 0.930 . S
H602 C610 0.930 . S
H603 C611 0.930 . S
H604 C614 0.930 . S
H605 C615 0.930 . S
C606 H600 0.930 . S
C606 C607 1.355 . S
C606 C608 1.415 . S
C607 C606 1.355 . S
C607 C609 1.419 . S
C608 C606 1.415 . S
C608 C613 1.425 . S
C608 C615 1.409 . S
C609 H601 0.930 . S
C609 C607 1.419 . S
C609 C610 1.362 . S
C610 H602 0.930 . S
C610 C609 1.362 . S
C610 C613 1.409 . S
C611 H603 0.930 . S
C611 C612 1.355 . S
C611 C613 1.415 . S
C612 C611 1.355 . S
C612 C614 1.419 . S
C613 C608 1.425 . S
C613 C610 1.409 . S
C613 C611 1.415 . S
C614 H604 0.930 . S
C614 C612 1.419 . S
C614 C615 1.362 . S
C615 H605 0.930 . S
C615 C608 1.409 . S
C615 C614 1.362 . S
H616 C622 0.930 . S
H617 C625 0.930 . S
H618 C626 0.930 . S
H619 C627 0.930 . S
H620 C630 0.930 . S
H621 C631 0.930 . S
C622 H616 0.930 . S
C622 C623 1.355 . S
C622 C624 1.415 . S
C623 C622 1.355 . S
C623 C625 1.419 . S
C624 C622 1.415 . S
C624 C629 1.425 . S
C624 C631 1.409 . S
C625 H617 0.930 . S
C625 C623 1.419 . S
C625 C626 1.362 . S
C626 H618 0.930 . S
C626 C625 1.362 . S
C626 C629 1.409 . S
C627 H619 0.930 . S
C627 C628 1.355 . S
C627 C629 1.415 . S
C628 C627 1.355 . S
C628 C630 1.419 . S
C629 C624 1.425 . S
C629 C626 1.409 . S
C629 C627 1.415 . S
C630 H620 0.930 . S
C630 C628 1.419 . S
C630 C631 1.362 . S
C631 H621 0.930 . S
C631 C624 1.409 . S
C631 C630 1.362 . S
C255 C4 1.124 . S
C260 C103 1.140 . S
C271 C16 1.577 . S
C276 C147 1.633 . S
C292 C177 2.036 . S
C287 C32 1.952 . S
C303 C43 2.626 . S
C308 C218 2.637 . S
C324 C134 1.257 . S
C319 C5 1.165 . S
C340 C98 2.081 . S
C335 C21 2.028 . S
C356 C226 1.122 . S
C351 C27 1.204 . S
C372 C187 2.234 . S
C367 C37 2.292 . S
C383 C10 1.191 . S
C388 C223 1.227 . S
C404 C137 2.213 1_556 S
C399 C26 2.271 . S
C415 C38 1.697 . S
C420 C106 1.708 . S
C431 C15 2.284 . S
C436 C174 2.251 . S
C452 C94 1.273 . S
C447 C48 1.212 . S
C463 C59 1.351 . S
C468 C138 1.348 . S
C479 C76 1.983 . S
C484 C186 2.009 . S
C495 C87 2.489 . S
C500 C227 2.433 . S
C511 C54 0.758 . S
C516 C143 0.765 . S
C532 C107 2.753 . S
C527 C60 2.737 . S
C548 C217 1.116 . S
C543 C71 1.007 . S
C564 C178 1.981 . S
C559 C82 1.992 . S
C575 C49 1.685 . S
C580 C214 1.742 . S
C596 C146 1.525 . S
C591 C70 1.540 . S
C612 C97 2.077 . S
C607 C81 2.111 . S
C623 C65 1.954 . S
C628 C183 1.957 . S
