# Generated by pormake.
# Topology zzz, (3,6)-cn, num edge types: 1
# Building blocks:
#     Node 0, Type 0, BuildingBlock: CUQRIR_clean_linker_1, # of connection points: 3
#     Node 1, Type 0, BuildingBlock: CUQRIR_clean_linker_1, # of connection points: 3
#     Node 2, Type 0, BuildingBlock: CUQRIR_clean_linker_1, # of connection points: 3
#     Node 3, Type 0, BuildingBlock: CUQRIR_clean_linker_1, # of connection points: 3
#     Node 4, Type 0, BuildingBlock: CUQRIR_clean_linker_1, # of connection points: 3
#     Node 5, Type 0, BuildingBlock: CUQRIR_clean_linker_1, # of connection points: 3
#     Node 6, Type 0, BuildingBlock: CUQRIR_clean_linker_1, # of connection points: 3
#     Node 7, Type 0, BuildingBlock: CUQRIR_clean_linker_1, # of connection points: 3
#     Node 8, Type 1, BuildingBlock: JUFBIX_clean_sbu_0, # of connection points: 6
#     Node 9, Type 1, BuildingBlock: JUFBIX_clean_sbu_0, # of connection points: 6
#     Node 10, Type 1, BuildingBlock: JUFBIX_clean_sbu_0, # of connection points: 6
#     Node 11, Type 1, BuildingBlock: JUFBIX_clean_sbu_0, # of connection points: 6
#     Edge 12, Type (0, 1), BuildingBlock: MIFKUJ_clean_linker_0, # of connection points: 2
#     Edge 13, Type (0, 1), BuildingBlock: MIFKUJ_clean_linker_0, # of connection points: 2
#     Edge 14, Type (0, 1), BuildingBlock: MIFKUJ_clean_linker_0, # of connection points: 2
#     Edge 15, Type (0, 1), BuildingBlock: MIFKUJ_clean_linker_0, # of connection points: 2
#     Edge 16, Type (0, 1), BuildingBlock: MIFKUJ_clean_linker_0, # of connection points: 2
#     Edge 17, Type (0, 1), BuildingBlock: MIFKUJ_clean_linker_0, # of connection points: 2
#     Edge 18, Type (0, 1), BuildingBlock: MIFKUJ_clean_linker_0, # of connection points: 2
#     Edge 19, Type (0, 1), BuildingBlock: MIFKUJ_clean_linker_0, # of connection points: 2
#     Edge 20, Type (0, 1), BuildingBlock: MIFKUJ_clean_linker_0, # of connection points: 2
#     Edge 21, Type (0, 1), BuildingBlock: MIFKUJ_clean_linker_0, # of connection points: 2
#     Edge 22, Type (0, 1), BuildingBlock: MIFKUJ_clean_linker_0, # of connection points: 2
#     Edge 23, Type (0, 1), BuildingBlock: MIFKUJ_clean_linker_0, # of connection points: 2
#     Edge 24, Type (0, 1), BuildingBlock: MIFKUJ_clean_linker_0, # of connection points: 2
#     Edge 25, Type (0, 1), BuildingBlock: MIFKUJ_clean_linker_0, # of connection points: 2
#     Edge 26, Type (0, 1), BuildingBlock: MIFKUJ_clean_linker_0, # of connection points: 2
#     Edge 27, Type (0, 1), BuildingBlock: MIFKUJ_clean_linker_0, # of connection points: 2
#     Edge 28, Type (0, 1), BuildingBlock: MIFKUJ_clean_linker_0, # of connection points: 2
#     Edge 29, Type (0, 1), BuildingBlock: MIFKUJ_clean_linker_0, # of connection points: 2
#     Edge 30, Type (0, 1), BuildingBlock: MIFKUJ_clean_linker_0, # of connection points: 2
#     Edge 31, Type (0, 1), BuildingBlock: MIFKUJ_clean_linker_0, # of connection points: 2
#     Edge 32, Type (0, 1), BuildingBlock: MIFKUJ_clean_linker_0, # of connection points: 2
#     Edge 33, Type (0, 1), BuildingBlock: MIFKUJ_clean_linker_0, # of connection points: 2
#     Edge 34, Type (0, 1), BuildingBlock: MIFKUJ_clean_linker_0, # of connection points: 2
#     Edge 35, Type (0, 1), BuildingBlock: MIFKUJ_clean_linker_0, # of connection points: 2
# Relax obj value: 0.138
# Max RMSD: 0.183
# Mean RMSD: 0.101
data_MOF--net-zzz--node1-JUFBIX_clean_sbu_0--node2-CUQRIR_clean_linker_1--edge1-MIFKUJ_clean_linker_0
_symmetry_space_group_name_H-M    P1
_symmetry_Int_Tables_number       1
_symmetry_cell_setting            triclinic
loop_
_symmetry_equiv_pos_as_xyz
'x, y, z'
_cell_length_a     63.989299
_cell_length_b     63.625283
_cell_length_c     20.723843
_cell_angle_alpha  82.680549
_cell_angle_beta   89.956405
_cell_angle_gamma 91.123237
loop_
_atom_site_label
_atom_site_type_symbol
_atom_site_fract_x
_atom_site_fract_y
_atom_site_fract_z
_atom_type_partial_charge
C0 C 0.77722 0.51304 0.29798 0.0
N1 N 0.79813 0.5098 0.29638 0.0
N2 N 0.76858 0.51142 0.23893 0.0
C3 C 0.76527 0.51758 0.35678 0.0
C4 C 0.78484 0.50689 0.2018 0.0
N5 N 0.80269 0.50583 0.23662 0.0
C6 C 0.78322 0.50415 0.13091 0.0
H7 H 0.74857 0.5128 0.3535 0.0
H8 H 0.76615 0.53487 0.35969 0.0
H9 H 0.77222 0.50924 0.40174 0.0
H10 H 0.7819 0.52 0.10205 0.0
H11 H 0.76889 0.49482 0.12223 0.0
H12 H 0.79706 0.49625 0.11361 0.0
C13 C 0.98169 0.74405 0.29383 0.0
N14 N 0.98266 0.76554 0.2871 0.0
N15 N 0.97773 0.73709 0.2357 0.0
C16 C 0.98606 0.73001 0.35594 0.0
C17 C 0.97656 0.75508 0.19355 0.0
N18 N 0.97971 0.77235 0.22445 0.0
C19 C 0.97344 0.75561 0.12141 0.0
H20 H 1.00101 0.73508 0.37688 0.0
H21 H 0.98682 0.71311 0.34813 0.0
H22 H 0.97351 0.73178 0.39167 0.0
H23 H 0.96289 0.74247 0.11071 0.0
H24 H 0.98878 0.75356 0.09837 0.0
H25 H 0.96684 0.7709 0.09979 0.0
C26 C 0.76883 0.99413 0.20739 0.0
N27 N 0.74776 0.99598 0.20392 0.0
N28 N 0.77727 0.99535 0.14674 0.0
C29 C 0.78095 0.99012 0.26953 0.0
C30 C 0.76057 0.99819 0.10661 0.0
N31 N 0.74275 0.99841 0.14135 0.0
C32 C 0.7618 0.0022 0.03352 0.0
H33 H 0.78565 0.00558 0.2851 0.0
H34 H 0.79529 0.98116 0.26236 0.0
H35 H 0.77121 0.98129 0.30866 0.0
H36 H 0.76051 0.98683 0.01374 0.0
H37 H 0.77691 0.00998 0.01731 0.0
H38 H 0.7488 0.0123 0.01335 0.0
C39 C 0.52288 0.74004 0.22424 0.0
N40 N 0.52086 0.71878 0.22414 0.0
N41 N 0.51974 0.75033 0.16362 0.0
C42 C 0.52691 0.75074 0.28363 0.0
C43 C 0.51589 0.73459 0.12675 0.0
N44 N 0.51647 0.71548 0.16356 0.0
C45 C 0.51299 0.73785 0.05411 0.0
H46 H 0.51968 0.74148 0.32726 0.0
H47 H 0.52079 0.76707 0.2773 0.0
H48 H 0.54403 0.75167 0.29162 0.0
H49 H 0.52086 0.75274 0.03195 0.0
H50 H 0.49605 0.73895 0.04327 0.0
H51 H 0.51923 0.72434 0.03159 0.0
C52 C 0.24655 0.4954 0.25217 0.0
N53 N 0.22537 0.49433 0.25186 0.0
N54 N 0.25373 0.4967 0.31334 0.0
C55 C 0.26015 0.49556 0.19308 0.0
C56 C 0.23608 0.4963 0.34983 0.0
N57 N 0.21898 0.49485 0.31246 0.0
C58 C 0.23545 0.49771 0.42176 0.0
H59 H 0.27427 0.50573 0.19696 0.0
H60 H 0.25151 0.5012 0.14802 0.0
H61 H 0.26531 0.47918 0.18991 0.0
H62 H 0.24976 0.49108 0.44601 0.0
H63 H 0.22157 0.48914 0.44483 0.0
H64 H 0.23438 0.5146 0.42941 0.0
C65 C 0.03264 0.26195 0.24273 0.0
N66 N 0.03467 0.2406 0.24773 0.0
N67 N 0.03475 0.26872 0.30194 0.0
C68 C 0.0292 0.27622 0.18041 0.0
C69 C 0.03783 0.25078 0.34308 0.0
N70 N 0.03793 0.23377 0.31018 0.0
C71 C 0.03882 0.24969 0.41606 0.0
H72 H 0.03525 0.29249 0.18414 0.0
H73 H 0.01217 0.27705 0.17062 0.0
H74 H 0.03689 0.26989 0.13912 0.0
H75 H 0.03061 0.26313 0.43335 0.0
H76 H 0.05545 0.25046 0.43092 0.0
H77 H 0.03179 0.23463 0.44007 0.0
C78 C 0.2571 0.00292 0.34754 0.0
N79 N 0.27795 0.99933 0.35282 0.0
N80 N 0.24769 0.99918 0.4068 0.0
C81 C 0.246 0.01041 0.28531 0.0
C82 C 0.26344 0.99306 0.44798 0.0
N83 N 0.28168 0.99302 0.41533 0.0
C84 C 0.26119 0.98824 0.5207 0.0
H85 H 0.24631 0.028 0.27792 0.0
H86 H 0.22942 0.00494 0.28749 0.0
H87 H 0.25385 0.00469 0.24328 0.0
H88 H 0.2727 0.97639 0.54098 0.0
H89 H 0.24519 0.98224 0.53439 0.0
H90 H 0.26414 0.00302 0.54274 0.0
C91 C 0.49363 0.26072 0.33429 0.0
N92 N 0.49424 0.28204 0.33385 0.0
N93 N 0.49369 0.25078 0.39636 0.0
C94 C 0.49204 0.2497 0.27455 0.0
C95 C 0.49452 0.26689 0.43335 0.0
N96 N 0.49472 0.2858 0.39536 0.0
C97 C 0.49682 0.26417 0.50621 0.0
H98 H 0.48386 0.25968 0.23496 0.0
H99 H 0.48369 0.2342 0.28548 0.0
H100 H 0.50803 0.24683 0.25739 0.0
H101 H 0.50482 0.2492 0.52363 0.0
H102 H 0.48106 0.2636 0.52878 0.0
H103 H 0.50576 0.27766 0.52236 0.0
Co104 Co 0.01779 0.01359 0.804 0.0
C105 C 0.97537 0.00602 0.81957 0.0
Co106 Co 0.00531 0.99222 0.73578 0.0
C107 C 0.0231 0.05129 0.86908 0.0
C108 C 0.04533 0.02746 0.90027 0.0
N109 N 0.02899 0.03154 0.86008 0.0
N110 N 0.03515 0.05976 0.91338 0.0
C111 C 0.04909 0.04461 0.93307 0.0
H112 H 0.01035 0.05931 0.84279 0.0
H113 H 0.05401 0.01293 0.9053 0.0
C114 C 0.04779 0.99963 0.72072 0.0
N115 N 0.99398 0.9745 0.6794 0.0
C116 C 1.00045 0.95542 0.6657 0.0
C117 C 0.97693 0.9786 0.64211 0.0
N118 N 0.98818 0.9476 0.62087 0.0
C119 C 0.97337 0.9622 0.60608 0.0
C120 C 0.00577 0.03465 0.68586 0.0
O121 O 0.04497 0.01085 0.76664 0.0
O122 O 0.03231 0.98956 0.70018 0.0
O123 O 1.00109 0.01619 0.67269 0.0
O124 O 0.013 0.03711 0.74139 0.0
O125 O 0.97813 0.99504 0.77307 0.0
H126 H 0.96765 0.99267 0.6412 0.0
H127 H 0.01409 0.9476 0.68743 0.0
O128 O 0.99085 0.0161 0.84004 0.0
O129 O 0.02222 0.98959 0.86675 0.0
O130 O 0.00996 0.96866 0.79848 0.0
C131 C 0.01738 0.97111 0.85391 0.0
H132 H 0.06117 0.04557 0.96907 0.0
H133 H 0.96067 0.96099 0.5722 0.0
Co134 Co 0.50445 0.00551 0.82228 0.0
C135 C 0.51835 0.96377 0.84089 0.0
Co136 Co 0.52236 0.99643 0.73835 0.0
C137 C 0.46869 0.01428 0.9034 0.0
C138 C 0.49767 0.01207 0.95506 0.0
N139 N 0.48956 0.01223 0.89486 0.0
N140 N 0.46363 0.01503 0.96646 0.0
C141 C 0.48188 0.01378 0.99882 0.0
H142 H 0.45726 0.01372 0.86515 0.0
H143 H 0.51391 0.00948 0.96746 0.0
C144 C 0.50876 0.03817 0.72029 0.0
N145 N 0.5374 0.98878 0.66758 0.0
C146 C 0.55645 0.99569 0.64427 0.0
C147 C 0.53174 0.97355 0.63104 0.0
N148 N 0.56296 0.98527 0.59499 0.0
C149 C 0.54723 0.97145 0.58651 0.0
C150 C 0.4795 0.98921 0.73099 0.0
O151 O 0.50032 0.03313 0.77611 0.0
O152 O 0.51938 0.02448 0.6953 0.0
O153 O 0.4967 0.98839 0.70078 0.0
O154 O 0.47949 0.9957 0.78644 0.0
O155 O 0.52525 0.96833 0.78304 0.0
H156 H 0.51744 0.96417 0.63715 0.0
H157 H 0.56563 0.00771 0.66448 0.0
O158 O 0.50885 0.97786 0.86724 0.0
O159 O 0.52986 0.01533 0.85669 0.0
O160 O 0.54749 0.00479 0.77642 0.0
C161 C 0.54722 0.01323 0.82869 0.0
H162 H 0.48358 0.01321 0.05098 0.0
H163 H 0.54682 0.96042 0.5509 0.0
Co164 Co 0.52783 0.49928 0.78437 0.0
C165 C 0.50447 0.46892 0.86703 0.0
Co166 Co 0.49334 0.5014 0.77384 0.0
C167 C 0.5694 0.5058 0.83976 0.0
C168 C 0.56805 0.47957 0.78472 0.0
N169 N 0.55671 0.49597 0.79992 0.0
N170 N 0.58782 0.49592 0.85049 0.0
C171 C 0.58701 0.47947 0.81577 0.0
H172 H 0.56473 0.5189 0.86464 0.0
H173 H 0.56247 0.46737 0.75683 0.0
C174 C 0.51684 0.53168 0.69086 0.0
N175 N 0.46473 0.50383 0.75905 0.0
C176 C 0.45467 0.50329 0.70185 0.0
C177 C 0.44951 0.5064 0.80221 0.0
N178 N 0.43382 0.50543 0.70751 0.0
C179 C 0.43053 0.50748 0.77065 0.0
C180 C 0.50905 0.52621 0.86274 0.0
O181 O 0.53269 0.52312 0.71993 0.0
O182 O 0.49863 0.52417 0.70604 0.0
O183 O 0.49239 0.52119 0.83457 0.0
O184 O 0.52617 0.51792 0.84918 0.0
O185 O 0.48856 0.4785 0.84201 0.0
H186 H 0.45204 0.50732 0.85338 0.0
H187 H 0.46256 0.50158 0.65662 0.0
O188 O 0.52263 0.47557 0.84833 0.0
O189 O 0.52857 0.48062 0.71854 0.0
O190 O 0.49443 0.48166 0.71393 0.0
C191 C 0.51143 0.47439 0.69571 0.0
H192 H 0.59887 0.46756 0.8157 0.0
H193 H 0.41543 0.50922 0.79275 0.0
Co194 Co 0.01274 0.51939 0.77317 0.0
C195 C 0.04487 0.49721 0.84311 0.0
Co196 Co 0.01135 0.48454 0.77303 0.0
C197 C 0.00453 0.5593 0.8234 0.0
C198 C 0.02946 0.56229 0.75397 0.0
N199 N 0.01463 0.54849 0.7809 0.0
N200 N 0.01276 0.57894 0.82504 0.0
C201 C 0.02834 0.58091 0.78088 0.0
H202 H 0.99231 0.5525 0.85599 0.0
H203 H 0.04129 0.55873 0.71994 0.0
C204 C 0.97911 0.5069 0.70361 0.0
N205 N 0.01014 0.4558 0.76489 0.0
C206 C 0.00981 0.44739 0.70824 0.0
C207 C 0.01025 0.43899 0.81145 0.0
N208 N 0.00993 0.42597 0.71705 0.0
C209 C 0.0101 0.42066 0.7823 0.0
C210 C 0.98901 0.49648 0.8737 0.0
O211 O 0.98783 0.52318 0.72279 0.0
O212 O 0.98725 0.48883 0.71865 0.0
O213 O 0.9937 0.48035 0.84677 0.0
O214 O 0.9962 0.5146 0.85014 0.0
O215 O 0.03549 0.48072 0.82778 0.0
H216 H 0.01069 0.43999 0.86315 0.0
H217 H 0.01004 0.45699 0.66129 0.0
O218 O 0.0375 0.51533 0.82363 0.0
O219 O 0.0293 0.52335 0.69528 0.0
O220 O 0.02898 0.48883 0.69985 0.0
C221 C 0.0351 0.5068 0.67234 0.0
H222 H 0.0388 0.59452 0.77069 0.0
H223 H 0.01019 0.40472 0.80764 0.0
H224 H 0.21375 0.97624 0.37915 0.0
H225 H 0.17868 0.97752 0.4272 0.0
H226 H 0.19913 0.02981 0.52679 0.0
H227 H 0.23407 0.02835 0.47869 0.0
H228 H 0.18063 0.99914 0.60938 0.0
H229 H 0.1645 0.03684 0.40019 0.0
H230 H 0.16268 0.04237 0.2804 0.0
H231 H 0.12353 0.98668 0.28288 0.0
H232 H 0.12536 0.98065 0.40271 0.0
H233 H 0.0826 0.02407 0.73801 0.0
H234 H 0.11595 0.0249 0.68004 0.0
H235 H 0.09344 0.97518 0.57306 0.0
H236 H 0.05986 0.97465 0.62963 0.0
H237 H 0.11288 0.00445 0.49302 0.0
H238 H 0.12924 0.96602 0.70018 0.0
H239 H 0.13117 0.95955 0.81989 0.0
H240 H 0.1701 0.01524 0.82125 0.0
H241 H 0.16817 0.0222 0.70154 0.0
C242 C 0.21043 0.98835 0.40976 0.0
C243 C 0.22636 0.00238 0.42478 0.0
C244 C 0.19049 0.98905 0.43745 0.0
C245 C 0.1862 0.0038 0.48064 0.0
C246 C 0.20202 0.01828 0.49378 0.0
C247 C 0.22188 0.01758 0.46602 0.0
C248 C 0.16578 0.0033 0.51552 0.0
C249 C 0.16583 1.00063 0.58387 0.0
C250 C 0.1464 0.00456 0.48245 0.0
C251 C 0.14524 0.00818 0.41041 0.0
C252 C 0.15565 0.02567 0.37518 0.0
C253 C 0.15459 0.02892 0.30727 0.0
C254 C 0.14304 0.01485 0.27404 0.0
C255 C 0.13249 0.99755 0.30868 0.0
C256 C 0.13352 0.99422 0.37659 0.0
C257 C 0.08479 0.01318 0.70254 0.0
C258 C 0.06855 0.99922 0.68876 0.0
C259 C 0.10392 0.01364 0.66943 0.0
C260 C 0.10738 0.99994 0.62249 0.0
C261 C 0.0912 0.98593 0.60891 0.0
C262 C 0.07202 0.98557 0.64161 0.0
C263 C 0.12773 1.0004 0.58697 0.0
C264 C 0.12767 0.003 0.51856 0.0
C265 C 0.14713 0.99893 0.61996 0.0
C266 C 0.14839 0.99474 0.69194 0.0
C267 C 0.13809 0.97697 0.72604 0.0
C268 C 0.1392 0.9732 0.79389 0.0
C269 C 0.15071 0.98701 0.82816 0.0
C270 C 0.16117 0.00458 0.79464 0.0
C271 C 0.16009 0.00843 0.72679 0.0
H272 H 0.15155 0.98406 0.88069 0.0
H273 H 0.14224 0.01739 0.22147 0.0
H274 H 0.4663 0.23022 0.48181 0.0
H275 H 0.46773 0.19321 0.53183 0.0
H276 H 0.5212 0.18376 0.41268 0.0
H277 H 0.51981 0.22099 0.36308 0.0
H278 H 0.49272 0.14908 0.42593 0.0
H279 H 0.52895 0.19333 0.56292 0.0
H280 H 0.53227 0.22367 0.62553 0.0
H281 H 0.48113 0.19888 0.74834 0.0
H282 H 0.47725 0.16857 0.68565 0.0
H283 H 0.52965 0.05582 0.61087 0.0
H284 H 0.52608 0.09131 0.5521 0.0
H285 H 0.47872 0.10487 0.68839 0.0
H286 H 0.4827 0.06952 0.74873 0.0
H287 H 0.50388 0.1376 0.66469 0.0
H288 H 0.46702 0.09367 0.52999 0.0
H289 H 0.46208 0.06379 0.46615 0.0
H290 H 0.51249 0.08786 0.33922 0.0
H291 H 0.51793 0.11774 0.40286 0.0
C292 C 0.47821 0.22013 0.46607 0.0
C293 C 0.49304 0.22839 0.41915 0.0
C294 C 0.47904 0.19904 0.49454 0.0
C295 C 0.49476 0.18579 0.47668 0.0
C296 C 0.50895 0.1937 0.42727 0.0
C297 C 0.50814 0.21489 0.39887 0.0
C298 C 0.49705 0.16412 0.51234 0.0
C299 C 0.49542 0.14654 0.47799 0.0
C300 C 0.50008 0.1608 0.58054 0.0
C301 C 0.50269 0.17877 0.61921 0.0
C302 C 0.51832 0.19441 0.60302 0.0
C303 C 0.52031 0.21161 0.63853 0.0
C304 C 0.50689 0.21323 0.69079 0.0
C305 C 0.4915 0.19761 0.70779 0.0
C306 C 0.4894 0.18042 0.6723 0.0
C307 C 0.51843 0.06632 0.62836 0.0
C308 C 0.5064 0.05976 0.68447 0.0
C309 C 0.51631 0.08662 0.59439 0.0
C310 C 0.50186 0.10075 0.61496 0.0
C311 C 0.48995 0.09429 0.67131 0.0
C312 C 0.49221 0.07404 0.70575 0.0
C313 C 0.49946 0.12236 0.57846 0.0
C314 C 0.50113 0.14002 0.61265 0.0
C315 C 0.49631 0.12572 0.51017 0.0
C316 C 0.493 0.10783 0.47157 0.0
C317 C 0.47715 0.09251 0.48874 0.0
C318 C 0.47424 0.07559 0.45254 0.0
C319 C 0.48699 0.0739 0.39876 0.0
C320 C 0.50264 0.08917 0.38094 0.0
C321 C 0.50563 0.10611 0.41701 0.0
H322 H 0.48472 0.06079 0.3708 0.0
H323 H 0.50845 0.22656 0.71821 0.0
H324 H 0.26893 0.52753 0.37869 0.0
H325 H 0.30304 0.52897 0.43056 0.0
H326 H 0.32119 0.47317 0.3473 0.0
H327 H 0.28624 0.47108 0.29874 0.0
H328 H 0.33275 0.4684 0.46524 0.0
H329 H 0.34314 0.52479 0.29723 0.0
H330 H 0.33568 0.55737 0.22383 0.0
H331 H 0.3349 0.59293 0.38651 0.0
H332 H 0.34206 0.5605 0.4611 0.0
H333 H 0.43462 0.48338 0.60364 0.0
H334 H 0.40749 0.48217 0.52047 0.0
H335 H 0.37067 0.5257 0.614 0.0
H336 H 0.3977 0.52696 0.69707 0.0
H337 H 0.3731 0.53529 0.47511 0.0
H338 H 0.35821 0.47464 0.64107 0.0
H339 H 0.36839 0.44149 0.70765 0.0
H340 H 0.38176 0.41363 0.53439 0.0
H341 H 0.37182 0.4467 0.46683 0.0
C342 C 0.28027 0.51567 0.37129 0.0
C343 C 0.27495 0.49912 0.33523 0.0
C344 C 0.29991 0.51661 0.40028 0.0
C345 C 0.31499 0.50134 0.3924 0.0
C346 C 0.30992 0.48518 0.35422 0.0
C347 C 0.29007 0.48408 0.3259 0.0
C348 C 0.33534 0.50161 0.42786 0.0
C349 C 0.34176 0.48298 0.46601 0.0
C350 C 0.34733 0.52054 0.42942 0.0
C351 C 0.34301 0.54015 0.38485 0.0
C352 C 0.34123 0.53952 0.31746 0.0
C353 C 0.33708 0.55797 0.27561 0.0
C354 C 0.33478 0.5772 0.3005 0.0
C355 C 0.33668 0.57802 0.3673 0.0
C356 C 0.34082 0.55961 0.40939 0.0
C357 C 0.42084 0.49285 0.60606 0.0
C358 C 0.41826 0.50521 0.65713 0.0
C359 C 0.40531 0.49207 0.55869 0.0
C360 C 0.38701 0.5038 0.56116 0.0
C361 C 0.38466 0.51654 0.61112 0.0
C362 C 0.40003 0.51711 0.65886 0.0
C363 C 0.36989 0.50235 0.51331 0.0
C364 C 0.36416 0.52073 0.47304 0.0
C365 C 0.35889 0.48313 0.50844 0.0
C366 C 0.36442 0.46315 0.549 0.0
C367 C 0.3634 0.46146 0.61724 0.0
C368 C 0.36911 0.44269 0.65513 0.0
C369 C 0.37575 0.42548 0.62527 0.0
C370 C 0.37662 0.42697 0.55745 0.0
C371 C 0.37091 0.4457 0.51934 0.0
H372 H 0.3802 0.41097 0.65469 0.0
H373 H 0.33156 0.59146 0.26802 0.0
H374 H 0.99981 0.29174 0.29354 0.0
H375 H 0.99366 0.32336 0.3476 0.0
H376 H 0.05806 0.32334 0.40922 0.0
H377 H 0.064 0.29178 0.35534 0.0
H378 H 0.9971 0.3231 0.47761 0.0
H379 H 0.07301 0.3751 0.43089 0.0
H380 H 0.09821 0.3859 0.34227 0.0
H381 H 0.05197 0.37362 0.20106 0.0
H382 H 0.02635 0.36314 0.28869 0.0
H383 H 0.01997 0.38412 0.73196 0.0
H384 H 0.02208 0.36094 0.64746 0.0
H385 H 0.00486 0.41245 0.50297 0.0
H386 H 0.00209 0.43571 0.58703 0.0
H387 H 0.03828 0.39042 0.46361 0.0
H388 H 0.96949 0.37524 0.54912 0.0
H389 H 0.943 0.36588 0.63496 0.0
H390 H 0.97261 0.30636 0.69088 0.0
H391 H 0.99947 0.3155 0.60594 0.0
C392 C 0.01273 0.29904 0.31677 0.0
C393 C 0.03239 0.28962 0.32009 0.0
C394 C 0.00922 0.31692 0.34805 0.0
C395 C 0.02541 0.32577 0.38241 0.0
C396 C 0.0454 0.31701 0.38237 0.0
C397 C 0.04882 0.29905 0.35162 0.0
C398 C 0.02098 0.34246 0.42443 0.0
C399 C 0.00603 0.33787 0.47417 0.0
C400 C 0.03249 0.36184 0.41976 0.0
C401 C 0.04781 0.36809 0.36657 0.0
C402 C 0.06818 0.37476 0.38095 0.0
C403 C 0.08255 0.38084 0.33085 0.0
C404 C 0.07672 0.38037 0.26609 0.0
C405 C 0.05649 0.37388 0.25127 0.0
C406 C 0.04205 0.36783 0.30117 0.0
C407 C 0.01634 0.3906 0.68258 0.0
C408 C 0.01083 0.41198 0.66709 0.0
C409 C 0.01766 0.37726 0.6341 0.0
C410 C 0.01354 0.38493 0.56892 0.0
C411 C 0.00817 0.40621 0.55295 0.0
C412 C 0.00667 0.41953 0.60143 0.0
C413 C 0.0149 0.37068 0.51759 0.0
C414 C 0.02927 0.3757 0.46647 0.0
C415 C 0.00278 0.35175 0.52058 0.0
C416 C 0.98658 0.34613 0.57147 0.0
C417 C 0.97044 0.36022 0.58002 0.0
C418 C 0.95534 0.35494 0.62847 0.0
C419 C 0.95614 0.33555 0.66843 0.0
C420 C 0.97202 0.32138 0.65992 0.0
C421 C 0.98717 0.32659 0.61158 0.0
H422 H 0.94444 0.3315 0.70592 0.0
H423 H 0.08787 0.38507 0.22738 0.0
H424 H 0.81009 0.01945 0.1779 0.0
H425 H 0.84551 0.0202 0.13119 0.0
H426 H 0.82782 0.96907 0.02286 0.0
H427 H 0.79275 0.96804 0.07101 0.0
H428 H 0.86718 0.96446 0.0636 0.0
H429 H 0.82641 0.02074 0.95424 0.0
H430 H 0.80448 0.05238 0.94701 0.0
H431 H 0.8544 0.08728 0.02566 0.0
H432 H 0.87652 0.05571 0.03436 0.0
H433 H 0.94092 0.9809 0.80359 0.0
H434 H 0.90838 0.97822 0.86661 0.0
H435 H 0.93097 0.02723 0.97613 0.0
H436 H 0.96351 0.03004 0.91336 0.0
H437 H 0.89029 0.03293 0.94004 0.0
H438 H 0.93214 0.97597 0.04003 0.0
H439 H 0.95329 0.94384 0.04334 0.0
H440 H 0.90063 0.90959 0.97773 0.0
H441 H 0.87926 0.94161 0.97269 0.0
C442 C 0.81404 0.00809 0.14537 0.0
C443 C 0.79879 0.99379 0.12754 0.0
C444 C 0.83416 0.00862 0.11822 0.0
C445 C 0.83926 0.99494 0.07246 0.0
C446 C 0.8243 0.97983 0.05773 0.0
C447 C 0.80427 0.97929 0.08496 0.0
C448 C 0.85955 0.99721 0.03655 0.0
C449 C 0.87217 0.97939 0.03621 0.0
C450 C 0.86624 0.01675 1.00131 0.0
C451 C 0.85304 0.0358 0.99562 0.0
C452 C 0.83266 0.03512 0.97044 0.0
C453 C 0.8202 0.05304 0.96603 0.0
C454 C 0.82802 0.07182 0.98602 0.0
C455 C 0.84835 0.07272 0.01031 0.0
C456 C 0.86085 0.05481 0.01499 0.0
C457 C 0.9389 0.99125 0.84067 0.0
C458 C 0.95487 0.00567 0.85342 0.0
C459 C 0.92034 0.98959 0.87702 0.0
C460 C 0.91734 0.00231 0.9268 0.0
C461 C 0.93297 0.01717 0.93822 0.0
C462 C 0.95157 0.01876 0.90221 0.0
C463 C 0.89791 1.00018 0.96692 0.0
C464 C 0.88542 0.01803 0.96787 0.0
C465 C 0.89129 0.98061 1.00215 0.0
C466 C 0.90414 0.9613 0.00529 0.0
C467 C 0.92511 0.96165 0.02569 0.0
C468 C 0.93713 0.94345 0.02796 0.0
C469 C 0.92832 0.92472 0.01051 0.0
C470 C 0.90744 0.92413 0.99104 0.0
C471 C 0.89537 0.94231 0.98846 0.0
H472 H 0.93763 0.91066 0.0121 0.0
H473 H 0.81836 0.08569 0.98255 0.0
H474 H 0.4881 0.77356 0.1105 0.0
H475 H 0.48988 0.81066 0.06071 0.0
H476 H 0.5549 0.81427 0.11447 0.0
H477 H 0.55272 0.77725 0.16618 0.0
H478 H 0.53792 0.85024 0.12697 0.0
H479 H 0.53934 0.80592 0.9594 0.0
H480 H 0.52738 0.77719 0.89815 0.0
H481 H 0.47004 0.8096 0.8517 0.0
H482 H 0.4815 0.83836 0.91376 0.0
H483 H 0.5372 0.92947 0.79926 0.0
H484 H 0.54093 0.89399 0.85881 0.0
H485 H 0.50955 0.9139 0.02441 0.0
H486 H 0.50613 0.94943 0.96573 0.0
H487 H 0.51339 0.86562 0.89913 0.0
H488 H 0.52298 0.88748 0.16086 0.0
H489 H 0.54226 0.91281 0.22082 0.0
H490 H 0.58856 0.92209 0.06922 0.0
H491 H 0.56926 0.89725 0.00771 0.0
C492 C 0.50261 0.7825 0.1124 0.0
C493 C 0.52027 0.77275 0.14184 0.0
C494 C 0.50371 0.80359 0.08361 0.0
C495 C 0.52266 0.81521 0.08241 0.0
C496 C 0.54012 0.80568 0.11446 0.0
C497 C 0.53891 0.78461 0.14404 0.0
C498 C 0.52441 0.83695 0.04573 0.0
C499 C 0.53249 0.85359 0.07722 0.0
C500 C 0.51805 0.84132 0.97992 0.0
C501 C 0.51121 0.82421 0.94173 0.0
C502 C 0.52412 0.80686 0.93647 0.0
C503 C 0.51744 0.79057 0.9016 0.0
C504 C 0.49795 0.79155 0.87115 0.0
C505 C 0.48513 0.80885 0.87538 0.0
C506 C 0.49171 0.82516 0.91039 0.0
C507 C 0.53123 0.92635 0.84855 0.0
C508 C 0.52125 0.94232 0.87747 0.0
C509 C 0.53337 0.90602 0.88262 0.0
C510 C 0.52569 0.90117 0.94651 0.0
C511 C 0.51599 0.91721 0.97576 0.0
C512 C 0.51386 0.93754 0.94178 0.0
C513 C 0.52648 0.87907 0.98086 0.0
C514 C 0.5188 0.86232 0.94891 0.0
C515 C 0.53393 0.87446 0.04538 0.0
C516 C 0.54459 0.89068 0.07954 0.0
C517 C 0.53716 0.89511 0.14009 0.0
C518 C 0.54807 0.90939 0.17428 0.0
C519 C 0.56661 0.91907 0.14881 0.0
C520 C 0.57413 0.91467 0.08872 0.0
C521 C 0.56311 0.90067 0.05387 0.0
H522 H 0.57513 0.92999 0.17558 0.0
H523 H 0.49279 0.77892 0.84417 0.0
H524 H 0.75169 0.54385 0.16228 0.0
H525 H 0.71773 0.54342 0.10696 0.0
H526 H 0.70408 0.48134 0.20963 0.0
H527 H 0.73807 0.48201 0.26494 0.0
H528 H 0.7009 0.4829 0.07661 0.0
H529 H 0.67616 0.52326 0.24133 0.0
H530 H 0.67673 0.55297 0.30702 0.0
H531 H 0.67044 0.59721 0.13387 0.0
H532 H 0.67013 0.56779 0.06701 0.0
H533 H 0.60241 0.46689 0.94416 0.0
H534 H 0.63041 0.47167 0.02144 0.0
H535 H 0.63716 0.53741 0.94036 0.0
H536 H 0.6081 0.53272 0.86522 0.0
H537 H 0.64374 0.5348 0.06417 0.0
H538 H 0.67054 0.49688 0.89838 0.0
H539 H 0.67161 0.46863 0.82732 0.0
H540 H 0.67658 0.42174 0.99471 0.0
H541 H 0.67527 0.44969 0.06685 0.0
C542 C 0.74102 0.53052 0.17449 0.0
C543 C 0.74714 0.51313 0.21847 0.0
C544 C 0.7217 0.53021 0.14285 0.0
C545 C 0.70827 0.51237 0.15427 0.0
C546 C 0.71411 0.49531 0.20025 0.0
C547 C 0.73336 0.49573 0.23224 0.0
C548 C 0.6893 0.51056 0.11352 0.0
C549 C 0.68822 0.49403 0.07481 0.0
C550 C 0.67318 0.52562 0.10894 0.0
C551 C 0.67331 0.54332 0.14911 0.0
C552 C 0.67508 0.53934 0.2172 0.0
C553 C 0.67532 0.55612 0.25466 0.0
C554 C 0.67368 0.57697 0.22463 0.0
C555 C 0.67173 0.58106 0.15707 0.0
C556 C 0.6715 0.56433 0.11937 0.0
C557 C 0.60983 0.48237 0.94327 0.0
C558 C 0.60338 0.49938 0.89835 0.0
C559 C 0.62591 0.4851 0.98717 0.0
C560 C 0.63647 0.50475 0.98565 0.0
C561 C 0.62945 0.52204 0.94235 0.0
C562 C 0.61292 0.5194 0.89936 0.0
C563 C 0.65519 0.50692 0.02771 0.0
C564 C 0.65634 0.52358 0.06622 0.0
C565 C 0.67166 0.49221 0.03129 0.0
C566 C 0.67262 0.47536 0.98802 0.0
C567 C 0.67174 0.48053 0.92004 0.0
C568 C 0.6724 0.46457 0.87958 0.0
C569 C 0.67411 0.4434 0.90649 0.0
C570 C 0.67523 0.43814 0.97394 0.0
C571 C 0.67455 0.45404 0.01464 0.0
H572 H 0.67462 0.43107 0.87508 0.0
H573 H 0.67387 0.58994 0.25372 0.0
H574 H 0.0139 0.71803 0.2192 0.0
H575 H 0.01872 0.68757 0.1592 0.0
H576 H 0.95183 0.67994 0.14466 0.0
H577 H 0.94718 0.7105 0.20491 0.0
H578 H 0.97329 0.64056 0.16086 0.0
H579 H 0.97449 0.70691 0.01898 0.0
H580 H 0.98576 0.74375 0.98157 0.0
H581 H 0.04951 0.72427 0.97479 0.0
H582 H 0.03855 0.68724 0.01145 0.0
H583 H 0.97516 0.58531 0.87924 0.0
H584 H 0.96771 0.60956 0.95903 0.0
H585 H 0.03286 0.62852 0.95806 0.0
H586 H 0.04015 0.60482 0.8776 0.0
H587 H 0.0104 0.66181 0.95168 0.0
H588 H 0.00794 0.59388 0.08588 0.0
H589 H 0.99525 0.55714 0.11742 0.0
H590 H 0.93295 0.57932 0.13833 0.0
H591 H 0.94521 0.61611 0.10607 0.0
C592 C 1.00032 0.70925 0.20531 0.0
C593 C 0.98021 0.71627 0.21704 0.0
C594 C 0.00303 0.69204 0.17057 0.0
C595 C 0.98563 0.68164 0.14676 0.0
C596 C 0.96546 0.68769 0.16268 0.0
C597 C 0.96278 0.705 0.19728 0.0
C598 C 0.98858 0.66616 0.09962 0.0
C599 C 0.98125 0.64517 0.11485 0.0
C600 C 0.99905 0.67215 0.03979 0.0
C601 C 0.00574 0.69439 0.01849 0.0
C602 C 0.99092 0.71052 0.00985 0.0
C603 C 0.99724 0.7314 0.98854 0.0
C604 C 0.01835 0.73637 0.97622 0.0
C605 C 0.03317 0.72041 0.98455 0.0
C606 C 0.02691 0.69946 0.00526 0.0
C607 C 0.98785 0.59464 0.89628 0.0
C608 C 0.0082 0.59328 0.87166 0.0
C609 C 0.98362 0.60842 0.94217 0.0
C610 C 0.99977 0.62076 0.96537 0.0
C611 C 0.02009 0.61927 0.94093 0.0
C612 C 0.02425 0.60577 0.89457 0.0
C613 C 0.99559 0.63586 0.01314 0.0
C614 C 0.00258 0.65697 0.9978 0.0
C615 C 0.98475 0.62988 0.07263 0.0
C616 C 0.97746 0.60774 0.09294 0.0
C617 C 0.99151 0.5909 0.09682 0.0
C618 C 0.9844 0.57005 0.11489 0.0
C619 C 0.9633 0.56586 0.12974 0.0
C620 C 0.94929 0.58253 0.12679 0.0
C621 C 0.95631 0.60339 0.10866 0.0
H622 H 0.95782 0.54971 0.14362 0.0
H623 H 0.02322 0.75257 0.96001 0.0
H624 H 0.06764 0.21435 0.38682 0.0
H625 H 0.06638 0.17763 0.44115 0.0
H626 H 0.00671 0.16779 0.35185 0.0
H627 H 0.00806 0.20437 0.29773 0.0
H628 H 0.04047 0.16004 0.52859 0.0
H629 H 1.00104 0.11567 0.32228 0.0
H630 H 0.00555 0.11405 0.20485 0.0
H631 H 0.06596 0.14429 0.20966 0.0
H632 H 0.0622 0.14548 0.32733 0.0
H633 H 0.98855 0.07308 0.68925 0.0
H634 H 0.99563 0.10518 0.61336 0.0
H635 H 0.03391 0.06923 0.49688 0.0
H636 H 0.02523 0.03689 0.56974 0.0
H637 H 0.01876 0.09789 0.4206 0.0
H638 H 0.05455 0.09809 0.61832 0.0
H639 H 0.05852 0.09402 0.73759 0.0
H640 H 0.02004 0.148 0.748 0.0
H641 H 0.01547 0.15216 0.6288 0.0
C642 C 0.05441 0.20415 0.37868 0.0
C643 C 0.03794 0.21193 0.33846 0.0
C644 C 0.05369 0.18329 0.40943 0.0
C645 C 0.03651 0.16995 0.39995 0.0
C646 C 0.02028 0.17769 0.35863 0.0
C647 C 0.021 0.19851 0.32803 0.0
C648 C 0.03453 0.14848 0.43682 0.0
C649 C 0.03587 0.14642 0.50493 0.0
C650 C 0.0294 0.13049 0.40577 0.0
C651 C 0.03124 0.13079 0.33399 0.0
C652 C 0.01533 0.12191 0.29848 0.0
C653 C 0.01781 0.12096 0.23184 0.0
C654 C 0.03609 0.12894 0.19999 0.0
C655 C 0.05183 0.13809 0.23447 0.0
C656 C 0.04952 0.13891 0.30117 0.0
C657 C 0.99787 0.07204 0.64613 0.0
C658 C 0.00629 0.05272 0.63468 0.0
C659 C 0.00217 0.09036 0.60332 0.0
C660 C 0.01594 0.08979 0.55063 0.0
C661 C 0.02335 0.07016 0.53726 0.0
C662 C 0.01836 0.05169 0.57872 0.0
C663 C 0.02361 0.10978 0.51232 0.0
C664 C 0.02345 0.11151 0.44409 0.0
C665 C 0.0311 0.12712 0.54305 0.0
C666 C 0.03452 0.12533 0.61455 0.0
C667 C 0.04688 0.10907 0.64602 0.0
C668 C 0.04921 0.10672 0.71362 0.0
C669 C 0.03945 0.12067 0.75034 0.0
C670 C 0.02753 0.13715 0.71945 0.0
C671 C 0.02508 0.13953 0.65183 0.0
H672 H 0.04117 0.11873 0.80269 0.0
H673 H 0.0381 0.12801 0.14863 0.0
H674 H 0.29928 0.9564 0.46337 0.0
H675 H 0.33304 0.95222 0.51986 0.0
H676 H 0.34243 0.02018 0.49133 0.0
H677 H 0.30901 0.02405 0.43356 0.0
H678 H 0.37189 0.96072 0.48738 0.0
H679 H 0.3678 0.03645 0.61849 0.0
H680 H 0.34131 0.05774 0.66561 0.0
H681 H 0.299 0.00408 0.68908 0.0
H682 H 0.32535 0.98238 0.64318 0.0
H683 H 0.47182 0.98857 0.60173 0.0
H684 H 0.43783 0.98541 0.54988 0.0
H685 H 0.40811 0.97546 0.73877 0.0
H686 H 0.44194 0.97962 0.79054 0.0
H687 H 0.38757 0.00252 0.66841 0.0
H688 H 0.41321 0.93546 0.63718 0.0
H689 H 0.43783 0.90934 0.60499 0.0
H690 H 0.43341 0.93689 0.40542 0.0
H691 H 0.40899 0.96334 0.43644 0.0
C692 C 0.30886 0.97028 0.46875 0.0
C693 C 0.30193 0.9905 0.44451 0.0
C694 C 0.32804 0.96795 0.50072 0.0
C695 C 0.34032 0.98588 0.5098 0.0
C696 C 0.33333 0.0061 0.48476 0.0
C697 C 0.31433 0.00837 0.45191 0.0
C698 C 0.36024 0.9835 0.54634 0.0
C699 C 0.37535 0.96982 0.52705 0.0
C700 C 0.3645 0.99488 0.59938 0.0
C701 C 0.34849 0.00787 0.62671 0.0
C702 C 0.35287 0.02919 0.63387 0.0
C703 C 0.33787 0.04132 0.6604 0.0
C704 C 0.31846 0.03228 0.68016 0.0
C705 C 0.31401 0.01108 0.67355 0.0
C706 C 0.32896 0.99886 0.6472 0.0
C707 C 0.45806 0.98538 0.63218 0.0
C708 C 0.4595 0.9844 0.70014 0.0
C709 C 0.43863 0.98348 0.6025 0.0
C710 C 0.42035 0.98005 0.64034 0.0
C711 C 0.42194 0.97822 0.70844 0.0
C712 C 0.44129 0.98052 0.73802 0.0
C713 C 0.39947 0.97995 0.60899 0.0
C714 C 0.38417 0.99329 0.629 0.0
C715 C 0.39477 0.96757 0.55849 0.0
C716 C 0.40945 0.95162 0.53935 0.0
C717 C 0.41763 0.93609 0.5865 0.0
C718 C 0.43153 0.92118 0.56843 0.0
C719 C 0.43725 0.92151 0.50324 0.0
C720 C 0.42902 0.9367 0.45594 0.0
C721 C 0.41513 0.95166 0.47376 0.0
H722 H 0.44801 0.90995 0.48934 0.0
H723 H 0.30688 0.0417 0.70069 0.0
H724 H 0.52583 0.31438 0.36573 0.0
H725 H 0.52966 0.34935 0.40358 0.0
H726 H 0.47166 0.33831 0.51005 0.0
H727 H 0.46793 0.30336 0.47183 0.0
H728 H 0.4761 0.37974 0.44075 0.0
H729 H 0.5147 0.33017 0.58948 0.0
H730 H 0.54113 0.30285 0.61759 0.0
H731 H 0.58941 0.34606 0.53594 0.0
H732 H 0.56318 0.37354 0.50631 0.0
H733 H 0.47823 0.44908 0.67555 0.0
H734 H 0.47689 0.41946 0.61267 0.0
H735 H 0.54123 0.43185 0.55459 0.0
H736 H 0.54303 0.46104 0.62154 0.0
H737 H 0.53574 0.3919 0.58533 0.0
H738 H 0.49734 0.44318 0.44676 0.0
H739 H 0.47072 0.47049 0.42121 0.0
H740 H 0.42211 0.42482 0.48255 0.0
H741 H 0.44844 0.39727 0.50914 0.0
C742 C 0.5139 0.31963 0.39679 0.0
C743 C 0.49666 0.30641 0.41642 0.0
C744 C 0.51608 0.33947 0.41838 0.0
C745 C 0.50097 0.34632 0.45976 0.0
C746 C 0.48344 0.33329 0.47802 0.0
C747 C 0.48138 0.31338 0.45678 0.0
C748 C 0.50391 0.36661 0.48673 0.0
C749 C 0.48907 0.38245 0.47257 0.0
C750 C 0.52116 0.37026 0.52669 0.0
C751 C 0.53696 0.35382 0.54499 0.0
C752 C 0.53093 0.33378 0.577 0.0
C753 C 0.54587 0.31828 0.59329 0.0
C754 C 0.56693 0.3227 0.5784 0.0
C755 C 0.57309 0.34265 0.54733 0.0
C756 C 0.55819 0.3582 0.53078 0.0
C757 C 0.49208 0.4457 0.64888 0.0
C758 C 0.51072 0.4575 0.65306 0.0
C759 C 0.49123 0.4288 0.61238 0.0
C760 C 0.50877 0.4237 0.57722 0.0
C761 C 0.52743 0.43557 0.58085 0.0
C762 C 0.52844 0.45227 0.61888 0.0
C763 C 0.50777 0.40517 0.54017 0.0
C764 C 0.52296 0.38954 0.55247 0.0
C765 C 0.49086 0.40179 0.49819 0.0
C766 C 0.47491 0.41817 0.48021 0.0
C767 C 0.48098 0.43896 0.45492 0.0
C768 C 0.46594 0.45449 0.44028 0.0
C769 C 0.44474 0.4494 0.45036 0.0
C770 C 0.43854 0.42873 0.47474 0.0
C771 C 0.45351 0.41314 0.48944 0.0
H772 H 0.43313 0.46146 0.43922 0.0
H773 H 0.57848 0.31068 0.59108 0.0
H774 H 0.1954 0.52906 0.28424 0.0
H775 H 0.15963 0.53378 0.32295 0.0
H776 H 0.15926 0.46986 0.42228 0.0
H777 H 0.19497 0.46528 0.38277 0.0
H778 H 0.12102 0.48111 0.36253 0.0
H779 H 0.17228 0.50929 0.50307 0.0
H780 H 0.20207 0.53249 0.52488 0.0
H781 H 0.16689 0.58738 0.45364 0.0
H782 H 0.137 0.56444 0.43028 0.0
H783 H 0.05542 0.47389 0.63173 0.0
H784 H 0.08248 0.47499 0.54981 0.0
H785 H 0.07567 0.54264 0.50462 0.0
H786 H 0.04894 0.54179 0.59017 0.0
H787 H 0.11452 0.53434 0.51647 0.0
H788 H 0.06027 0.5052 0.39593 0.0
H789 H 0.03083 0.48122 0.37666 0.0
H790 H 0.07098 0.42767 0.41054 0.0
H791 H 0.1006 0.45127 0.43101 0.0
C792 C 0.18743 0.51606 0.31373 0.0
C793 C 0.19768 0.49696 0.3317 0.0
C794 C 0.16713 0.5187 0.33566 0.0
C795 C 0.15692 0.50222 0.37591 0.0
C796 C 0.16688 0.48274 0.39121 0.0
C797 C 0.1872 0.48016 0.36931 0.0
C798 C 0.13669 0.50577 0.40695 0.0
C799 C 0.11948 0.49271 0.39625 0.0
C800 C 0.13466 0.52137 0.44931 0.0
C801 C 0.15251 0.53516 0.4642 0.0
C802 C 0.17096 0.5263 0.49159 0.0
C803 C 0.18785 0.5394 0.50428 0.0
C804 C 0.1864 0.5614 0.4905 0.0
C805 C 0.16801 0.57034 0.46416 0.0
C806 C 0.15109 0.5573 0.45116 0.0
C807 C 0.0594 0.48904 0.60395 0.0
C808 C 0.05001 0.50779 0.61752 0.0
C809 C 0.07481 0.48959 0.55637 0.0
C810 C 0.08084 0.50881 0.51968 0.0
C811 C 0.07115 0.52758 0.53195 0.0
C812 C 0.05589 0.52709 0.58072 0.0
C813 C 0.09869 0.50928 0.47358 0.0
C814 C 0.11562 0.52309 0.48147 0.0
C815 C 0.10041 0.49432 0.42867 0.0
C816 C 0.08268 0.48006 0.41525 0.0
C817 C 0.06282 0.48831 0.39957 0.0
C818 C 0.04609 0.47477 0.38844 0.0
C819 C 0.04903 0.45293 0.39248 0.0
C820 C 0.06873 0.44459 0.40742 0.0
C821 C 0.0855 0.45806 0.41865 0.0
H822 H 0.03605 0.44248 0.38399 0.0
H823 H 0.19949 0.57152 0.50037 0.0
H824 H 0.96116 0.80759 0.25489 0.0
H825 H 0.96962 0.84433 0.20932 0.0
H826 H 0.01346 0.82154 0.07712 0.0
H827 H 0.00674 0.78538 0.12772 0.0
H828 H 0.03033 0.85247 0.11561 0.0
H829 H 0.95923 0.84202 0.03873 0.0
H830 H 0.92144 0.83402 0.0514 0.0
H831 H 0.91514 0.88497 0.16701 0.0
H832 H 0.95293 0.89311 0.15557 0.0
H833 H 0.02423 0.93022 0.83716 0.0
H834 H 0.0205 0.89904 0.91906 0.0
H835 H 0.00703 0.93934 0.06552 0.0
H836 H 0.01146 0.97075 0.9841 0.0
H837 H 0.97579 0.90421 0.04081 0.0
H838 H 0.04707 0.91768 0.09511 0.0
H839 H 0.08433 0.92578 0.0714 0.0
H840 H 0.0895 0.86824 0.985 0.0
H841 H 0.05217 0.85994 0.00729 0.0
C842 C 0.97263 0.81064 0.21628 0.0
C843 C 0.98313 0.79378 0.1941 0.0
C844 C 0.97733 0.83153 0.18987 0.0
C845 C 0.99196 0.83582 0.13902 0.0
C846 C 0.00215 0.81881 0.11634 0.0
C847 C 0.99803 0.79808 0.14433 0.0
C848 C 0.99712 0.85787 0.10961 0.0
C849 C 0.0183 0.86363 0.09883 0.0
C850 C 0.98159 0.87296 0.08992 0.0
C851 C 0.95891 0.868 0.09692 0.0
C852 C 0.94979 0.85141 0.0672 0.0
C853 C 0.92838 0.84687 0.07412 0.0
C854 C 0.91591 0.85894 0.11018 0.0
C855 C 0.92482 0.8756 0.13928 0.0
C856 C 0.94623 0.88018 0.13261 0.0
C857 C 0.02097 0.93243 0.88715 0.0
C858 C 0.01821 0.95279 0.90461 0.0
C859 C 0.01885 0.91468 0.93372 0.0
C860 C 0.01354 0.91703 0.998 0.0
C861 C 0.01126 0.93735 0.01607 0.0
C862 C 0.0139 0.95519 0.96975 0.0
C863 C 0.0087 0.89801 0.0442 0.0
C864 C 0.98766 0.89297 0.05848 0.0
C865 C 0.02427 0.8834 0.06567 0.0
C866 C 0.04677 0.88827 0.05249 0.0
C867 C 0.0561 0.90684 0.07055 0.0
C868 C 0.07725 0.91145 0.05747 0.0
C869 C 0.08926 0.89756 0.02661 0.0
C870 C 0.08017 0.87899 0.00889 0.0
C871 C 0.05902 0.87432 0.02182 0.0
H872 H 0.10563 0.90115 0.01652 0.0
H873 H 0.89934 0.8554 0.11544 0.0
H874 H 0.72126 0.97319 0.06951 0.0
H875 H 0.68619 0.97939 0.02305 0.0
H876 H 0.68293 0.03733 0.11018 0.0
H877 H 0.71789 0.03086 0.15724 0.0
H878 H 0.64583 0.98713 0.08407 0.0
H879 H 0.66369 0.07353 0.98131 0.0
H880 H 0.69411 0.09703 0.94942 0.0
H881 H 0.72852 0.04389 0.90091 0.0
H882 H 0.69819 0.02019 0.93133 0.0
H883 H 0.55265 0.02755 0.94662 0.0
H884 H 0.58575 0.03169 0.003 0.0
H885 H 0.61953 0.01638 0.83557 0.0
H886 H 0.5866 0.01233 0.77856 0.0
H887 H 0.64043 0.04748 0.90757 0.0
H888 H 0.60788 0.97621 0.93775 0.0
H889 H 0.57452 0.95635 0.95865 0.0
H890 H 0.56937 0.97907 0.14411 0.0
H891 H 0.60262 0.99932 0.12403 0.0
C892 C 0.71286 0.98711 0.0788 0.0
C893 C 0.72203 1.00168 0.11607 0.0
C894 C 0.6929 0.99056 0.05298 0.0
C895 C 0.68207 0.00881 0.06331 0.0
C896 C 0.69108 0.02316 0.10183 0.0
C897 C 0.71094 0.01953 0.12839 0.0
C898 C 0.66213 0.01363 0.02939 0.0
C899 C 0.64462 1.0004 0.04592 0.0
C900 C 0.6606 0.03092 0.97946 0.0
C901 C 0.67876 0.04508 0.9594 0.0
C902 C 0.67772 0.0669 0.96357 0.0
C903 C 0.69495 0.08025 0.94574 0.0
C904 C 0.71327 0.07195 0.92339 0.0
C905 C 0.71436 0.0503 0.91847 0.0
C906 C 0.69716 0.0369 0.93605 0.0
C907 C 0.56713 0.02555 0.92118 0.0
C908 C 0.56702 0.01918 0.85867 0.0
C909 C 0.586 0.02805 0.95334 0.0
C910 C 0.60498 0.02416 0.92349 0.0
C911 C 0.60501 0.01953 0.85919 0.0
C912 C 0.58616 0.017 0.82701 0.0
C913 C 0.62423 0.0211 0.9625 0.0
C914 C 0.64159 0.03449 0.94666 0.0
C915 C 0.62572 0.00389 0.01264 0.0
C916 C 0.60767 0.98926 0.02937 0.0
C917 C 0.59975 0.97674 0.98337 0.0
C918 C 0.5808 0.96559 0.9948 0.0
C919 C 0.56976 0.96666 0.05242 0.0
C920 C 0.57794 0.97839 0.09947 0.0
C921 C 0.59686 0.98965 0.08819 0.0
H922 H 0.55492 0.9583 0.06074 0.0
H923 H 0.72659 0.0823 0.90974 0.0
H924 H 0.54549 0.68536 0.17586 0.0
H925 H 0.54345 0.65081 0.13499 0.0
H926 H 0.48183 0.66529 0.05952 0.0
H927 H 0.48392 0.69983 0.10115 0.0
H928 H 0.48536 0.62328 0.12209 0.0
H929 H 0.5209 0.67182 0.95899 0.0
H930 H 0.54795 0.69841 0.91873 0.0
H931 H 0.59593 0.65367 0.97651 0.0
H932 H 0.56915 0.6269 0.01816 0.0
H933 H 0.47646 0.55109 0.88797 0.0
H934 H 0.47729 0.58113 0.95035 0.0
H935 H 0.5418 0.56888 0.99974 0.0
H936 H 0.54123 0.53906 0.93618 0.0
H937 H 0.53726 0.60906 0.95577 0.0
H938 H 0.50201 0.55972 0.11426 0.0
H939 H 0.47521 0.53311 0.15637 0.0
H940 H 0.4271 0.57862 0.1096 0.0
H941 H 0.4536 0.60544 0.06635 0.0
C942 C 0.5315 0.68097 0.151 0.0
C943 C 0.5149 0.69506 0.14099 0.0
C944 C 0.53034 0.66136 0.12764 0.0
C945 C 0.51254 0.6556 0.09388 0.0
C946 C 0.49568 0.66947 0.08547 0.0
C947 C 0.49691 0.68915 0.10862 0.0
C948 C 0.51197 0.63555 0.0647 0.0
C949 C 0.49654 0.62018 0.08524 0.0
C950 C 0.52691 0.63142 0.01787 0.0
C951 C 0.54303 0.64743 0.99231 0.0
C952 C 0.53723 0.6677 0.96361 0.0
C953 C 0.55251 0.6828 0.94046 0.0
C954 C 0.57365 0.67775 0.9452 0.0
C955 C 0.57955 0.65757 0.97296 0.0
C956 C 0.56432 0.64242 0.99633 0.0
C957 C 0.49075 0.55458 0.91287 0.0
C958 C 0.50882 0.54274 0.90683 0.0
C959 C 0.49117 0.57173 0.94879 0.0
C960 C 0.50957 0.5772 0.98011 0.0
C961 C 0.52744 0.56497 0.97589 0.0
C962 C 0.52707 0.5479 0.93964 0.0
C963 C 0.51063 0.59657 0.01309 0.0
C964 C 0.52613 0.61194 0.99303 0.0
C965 C 0.49579 0.60063 0.06051 0.0
C966 C 0.4798 0.58454 0.08652 0.0
C967 C 0.48571 0.56401 0.11246 0.0
C968 C 0.47057 0.5489 0.13663 0.0
C969 C 0.44946 0.55415 0.13552 0.0
C970 C 0.44346 0.57456 0.11037 0.0
C971 C 0.45853 0.58973 0.08608 0.0
H972 H 0.43776 0.54243 0.15427 0.0
H973 H 0.58546 0.68945 0.92723 0.0
H974 H 0.81911 0.46922 0.21224 0.0
H975 H 0.85371 0.46446 0.16494 0.0
H976 H 0.86606 0.5318 0.15497 0.0
H977 H 0.83186 0.53612 0.20499 0.0
H978 H 0.86811 0.47965 0.04938 0.0
H979 H 0.91691 0.54289 0.15597 0.0
H980 H 0.91827 0.56131 0.25371 0.0
H981 H 0.89103 0.50647 0.36765 0.0
H982 H 0.88972 0.48768 0.2707 0.0
H983 H 0.97477 0.52821 0.93814 0.0
H984 H 0.94526 0.52653 0.01278 0.0
H985 H 0.93905 0.45911 0.00724 0.0
H986 H 0.96828 0.46078 0.93051 0.0
H987 H 0.93492 0.50796 0.12774 0.0
H988 H 0.88722 0.44545 0.00659 0.0
H989 H 0.8846 0.432 0.90023 0.0
H990 H 0.90803 0.49165 0.80454 0.0
H991 H 0.91049 0.50554 0.91015 0.0
C992 C 0.82952 0.4828 0.20067 0.0
C993 C 0.82324 0.50296 0.21212 0.0
C994 C 0.84914 0.48016 0.17363 0.0
C995 C 0.86264 0.49772 0.15722 0.0
C996 C 0.8562 0.51793 0.16878 0.0
C997 C 0.83672 0.52046 0.1968 0.0
C998 C 0.8829 0.49506 0.12467 0.0
C999 C 0.88279 0.48541 0.06737 0.0
C1000 C 0.90196 0.50325 0.14673 0.0
C1001 C 0.90317 0.51396 0.20607 0.0
C1002 C 0.9114 0.53473 0.20205 0.0
C1003 C 0.91209 0.54525 0.25716 0.0
C1004 C 0.90463 0.53512 0.31663 0.0
C1005 C 0.89667 0.51436 0.3214 0.0
C1006 C 0.89595 0.50376 0.26635 0.0
C1007 C 0.9673 0.51296 0.95316 0.0
C1008 C 0.97362 0.49469 0.92735 0.0
C1009 C 0.95047 0.51202 0.99619 0.0
C1010 C 0.93967 0.49278 0.01445 0.0
C1011 C 0.94689 0.47421 0.99258 0.0
C1012 C 0.96366 0.47517 0.94903 0.0
C1013 C 0.92007 0.49262 0.05259 0.0
C1014 C 0.9203 0.50176 0.11065 0.0
C1015 C 0.901 0.48451 0.03029 0.0
C1016 C 0.89929 0.47641 0.96639 0.0
C1017 C 0.89175 0.4557 0.96282 0.0
C1018 C 0.89029 0.44801 0.90267 0.0
C1019 C 0.89622 0.46094 0.8457 0.0
C1020 C 0.90352 0.48163 0.84872 0.0
C1021 C 0.90496 0.48941 0.90871 0.0
H1022 H 0.89511 0.45494 0.79921 0.0
H1023 H 0.90502 0.54345 0.35876 0.0
H1024 H 0.00456 0.23741 0.15699 0.0
H1025 H 0.00235 0.21074 0.08083 0.0
H1026 H 0.06143 0.18574 0.15188 0.0
H1027 H 0.06401 0.21296 0.22487 0.0
H1028 H 0.05952 0.18564 0.02572 0.0
H1029 H 0.01094 0.1676 0.20664 0.0
H1030 H 0.9797 0.17189 0.27302 0.0
H1031 H 0.94055 0.16991 0.10599 0.0
H1032 H 0.9715 0.16581 0.03815 0.0
H1033 H 0.06388 0.07944 0.98378 0.0
H1034 H 0.0611 0.11337 0.02364 0.0
H1035 H 1.00114 0.12269 0.93085 0.0
H1036 H 0.00319 0.08794 0.89315 0.0
H1037 H 0.99957 0.13462 0.04789 0.0
H1038 H 0.0453 0.15157 0.86797 0.0
H1039 H 0.07513 0.14731 0.79556 0.0
H1040 H 0.11778 0.15278 0.95265 0.0
H1041 H 0.08821 0.15689 0.02615 0.0
C1042 C 0.01729 0.22657 0.15465 0.0
C1043 C 0.03447 0.22717 0.19657 0.0
C1044 C 0.01591 0.21116 0.1119 0.0
C1045 C 0.03155 0.19592 0.11132 0.0
C1046 C 0.04912 0.19722 0.15132 0.0
C1047 C 0.05059 0.21271 0.19317 0.0
C1048 C 0.02963 0.17803 0.0715 0.0
C1049 C 0.04642 0.17445 0.03086 0.0
C1050 C 0.01212 0.16386 0.07574 0.0
C1051 C 0.99362 0.16655 0.11702 0.0
C1052 C 0.99572 0.16818 0.18382 0.0
C1053 C 0.97806 0.17056 0.2218 0.0
C1054 C 0.95821 0.1712 0.19377 0.0
C1055 C 0.95595 0.16943 0.12765 0.0
C1056 C 0.97354 0.16707 0.08941 0.0
C1057 C 0.04994 0.0884 0.97186 0.0
C1058 C 0.03373 0.08053 0.93505 0.0
C1059 C 0.04853 0.10813 0.99418 0.0
C1060 C 0.03109 0.12089 0.97937 0.0
C1061 C 0.01483 0.11323 0.94269 0.0
C1062 C 0.01613 0.09331 0.92072 0.0
C1063 C 0.02984 0.14185 0.00428 0.0
C1064 C 0.01246 0.14603 0.04179 0.0
C1065 C 0.04665 0.15677 0.99667 0.0
C1066 C 0.06452 0.15441 0.95264 0.0
C1067 C 0.06104 0.15173 0.88716 0.0
C1068 C 0.07789 0.14936 0.84591 0.0
C1069 C 0.09832 0.14971 0.86955 0.0
C1070 C 0.10194 0.1525 0.93442 0.0
C1071 C 0.08515 0.15491 0.97586 0.0
H1072 H 0.11135 0.14785 0.83756 0.0
H1073 H 0.94457 0.17304 0.22331 0.0
H1074 H 0.30663 0.97081 0.32934 0.0
H1075 H 0.3365 0.97649 0.25464 0.0
H1076 H 0.31477 0.03897 0.18527 0.0
H1077 H 0.28546 0.03378 0.26322 0.0
H1078 H 0.33041 0.00719 0.08541 0.0
H1079 H 0.34894 0.04498 0.26588 0.0
H1080 H 0.35472 0.05069 0.38 0.0
H1081 H 0.39651 0.99841 0.40554 0.0
H1082 H 0.39061 0.992 0.2919 0.0
H1083 H 0.42911 0.03644 0.92219 0.0
H1084 H 0.39505 0.03618 0.97771 0.0
H1085 H 0.41781 0.98992 0.13082 0.0
H1086 H 0.45173 0.9909 0.07696 0.0
H1087 H 0.39975 0.01838 0.18354 0.0
H1088 H 0.38105 0.9793 0.00591 0.0
H1089 H 0.3774 0.97409 0.8905 0.0
H1090 H 0.33698 0.02746 0.85858 0.0
H1091 H 0.34064 0.03319 0.97368 0.0
C1092 C 0.30826 0.98577 0.29827 0.0
C1093 C 0.2938 0.00189 0.30238 0.0
C1094 C 0.32522 0.98894 0.25535 0.0
C1095 C 0.32786 0.00815 0.21454 0.0
C1096 C 0.31294 0.02399 0.21619 0.0
C1097 C 0.29615 0.02096 0.26033 0.0
C1098 C 0.34689 0.01182 0.17314 0.0
C1099 C 0.34558 0.00997 0.10642 0.0
C1100 C 0.36667 0.01502 0.20092 0.0
C1101 C 0.36913 0.01787 0.2705 0.0
C1102 C 0.35904 0.03442 0.29612 0.0
C1103 C 0.36245 0.03787 0.36061 0.0
C1104 C 0.37605 0.02494 0.39984 0.0
C1105 C 0.386 0.00836 0.375 0.0
C1106 C 0.38261 0.00481 0.3106 0.0
C1107 C 0.42665 0.02616 0.96746 0.0
C1108 C 0.4431 0.01389 0.9957 0.0
C1109 C 0.40719 0.02592 0.99911 0.0
C1110 C 0.4037 0.01297 0.05869 0.0
C1111 C 0.42003 1.00024 0.08544 0.0
C1112 C 0.43946 1.0008 0.05464 0.0
C1113 C 0.3836 0.01313 0.09556 0.0
C1114 C 0.38465 0.0157 0.16187 0.0
C1115 C 0.36369 0.01039 0.0673 0.0
C1116 C 0.36132 0.00682 0.99827 0.0
C1117 C 0.37151 0.99002 0.97419 0.0
C1118 C 0.36942 0.98696 0.90884 0.0
C1119 C 0.35702 1.00048 0.86718 0.0
C1120 C 0.34662 0.01703 0.89088 0.0
C1121 C 0.34869 0.02019 0.95617 0.0
H1122 H 0.35543 0.9981 0.81658 0.0
H1123 H 0.37885 0.02774 0.44957 0.0
H1124 H 0.46348 0.30974 0.30624 0.0
H1125 H 0.46392 0.34069 0.22203 0.0
H1126 H 0.52419 0.32259 0.15645 0.0
H1127 H 0.52344 0.2914 0.24037 0.0
H1128 H 0.52177 0.36565 0.18407 0.0
H1129 H 0.48481 0.31702 0.06275 0.0
H1130 H 0.45686 0.29122 0.04468 0.0
H1131 H 0.41056 0.33812 0.06221 0.0
H1132 H 0.43824 0.36413 0.08139 0.0
H1133 H 0.53467 0.44069 0.90718 0.0
H1134 H 0.53146 0.40838 0.98332 0.0
H1135 H 0.46636 0.42085 0.01333 0.0
H1136 H 0.46931 0.45305 0.93457 0.0
H1137 H 0.47037 0.3806 0.00576 0.0
H1138 H 0.50532 0.42907 0.1283 0.0
H1139 H 0.53196 0.4556 0.15142 0.0
H1140 H 0.58027 0.41034 0.13947 0.0
H1141 H 0.55393 0.38361 0.11542 0.0
C1142 C 0.47653 0.31221 0.27265 0.0
C1143 C 0.49331 0.29824 0.27874 0.0
C1144 C 0.47683 0.32984 0.22486 0.0
C1145 C 0.49407 0.33391 0.18288 0.0
C1146 C 0.51071 0.31969 0.18823 0.0
C1147 C 0.51024 0.30186 0.23551 0.0
C1148 C 0.49517 0.3536 0.13591 0.0
C1149 C 0.51075 0.36881 0.14439 0.0
C1150 C 0.48025 0.35805 0.08594 0.0
C1151 C 0.46359 0.34246 0.07416 0.0
C1152 C 0.46866 0.32178 0.06335 0.0
C1153 C 0.45287 0.30713 0.05278 0.0
C1154 C 0.43194 0.31301 0.05246 0.0
C1155 C 0.42677 0.33358 0.06255 0.0
C1156 C 0.44251 0.34829 0.07321 0.0
C1157 C 0.51965 0.43668 0.93013 0.0
C1158 C 0.50227 0.4496 0.91513 0.0
C1159 C 0.51786 0.41818 0.97403 0.0
C1160 C 0.49878 0.41229 0.00537 0.0
C1161 C 0.4813 0.42505 0.9901 0.0
C1162 C 0.48301 0.4435 0.94526 0.0
C1163 C 0.49717 0.3927 0.05326 0.0
C1164 C 0.48144 0.37752 0.04529 0.0
C1165 C 0.51176 0.38841 0.10454 0.0
C1166 C 0.52765 0.40439 0.11947 0.0
C1167 C 0.52163 0.42482 0.13017 0.0
C1168 C 0.53668 0.43988 0.14351 0.0
C1169 C 0.5578 0.43468 0.14674 0.0
C1170 C 0.5639 0.41436 0.13687 0.0
C1171 C 0.54892 0.39923 0.12346 0.0
H1172 H 0.56943 0.44637 0.15703 0.0
H1173 H 0.41974 0.30164 0.04425 0.0
H1174 H 0.20212 0.46044 0.23103 0.0
H1175 H 0.17293 0.45976 0.1543 0.0
H1176 H 0.18653 0.52504 0.07981 0.0
H1177 H 0.21585 0.52548 0.15667 0.0
H1178 H 0.14503 0.51748 0.11709 0.0
H1179 H 0.19564 0.48696 0.98635 0.0
H1180 H 0.22239 0.46135 0.96473 0.0
H1181 H 0.17775 0.41014 0.00643 0.0
H1182 H 0.15079 0.43542 0.02922 0.0
H1183 H 0.07191 0.52937 0.86307 0.0
H1184 H 0.10385 0.52753 0.92711 0.0
H1185 H 0.09405 0.46015 0.97735 0.0
H1186 H 0.0622 0.46178 0.91106 0.0
H1187 H 0.13381 0.46798 0.95318 0.0
H1188 H 0.08366 0.49642 0.08668 0.0
H1189 H 0.05619 0.52049 0.11401 0.0
H1190 H 0.09881 0.57359 0.07559 0.0
H1191 H 0.12647 0.54987 0.04718 0.0
C1192 C 0.19923 0.47433 0.19652 0.0
C1193 C 0.2114 0.49283 0.19815 0.0
C1194 C 0.18253 0.47402 0.15307 0.0
C1195 C 0.17759 0.49232 0.11095 0.0
C1196 C 0.19012 0.5107 0.11155 0.0
C1197 C 0.20696 0.51092 0.15468 0.0
C1198 C 0.15848 0.49268 0.06991 0.0
C1199 C 0.14272 0.50692 0.08042 0.0
C1200 C 0.15508 0.47828 0.02407 0.0
C1201 C 0.17124 0.46307 0.01006 0.0
C1202 C 0.19157 0.47022 0.99143 0.0
C1203 C 0.20676 0.45577 0.97886 0.0
C1204 C 0.20179 0.43413 0.98435 0.0
C1205 C 0.18159 0.42691 0.00226 0.0
C1206 C 0.16634 0.44129 0.01494 0.0
C1207 C 0.07647 0.51411 0.88775 0.0
C1208 C 0.06436 0.49573 0.88228 0.0
C1209 C 0.09476 0.51311 0.92472 0.0
C1210 C 0.10124 0.49377 0.95836 0.0
C1211 C 0.08937 0.47529 0.95216 0.0
C1212 C 0.07113 0.47624 0.9144 0.0
C1213 C 0.12039 0.493 0.99969 0.0
C1214 C 0.13611 0.47862 0.98962 0.0
C1215 C 0.12364 0.50705 0.04682 0.0
C1216 C 0.10708 0.52138 0.06419 0.0
C1217 C 0.08713 0.51325 0.0836 0.0
C1218 C 0.07153 0.52683 0.09936 0.0
C1219 C 0.07574 0.54857 0.09636 0.0
C1220 C 0.09557 0.55676 0.0778 0.0
C1221 C 0.11122 0.54325 0.06193 0.0
H1222 H 0.06364 0.55906 0.10854 0.0
H1223 H 0.21357 0.42297 0.9746 0.0
H1224 H 0.95883 0.76914 0.39213 0.0
H1225 H 0.96177 0.79697 0.46375 0.0
H1226 H 0.01759 0.8215 0.36114 0.0
H1227 H 0.01517 0.79291 0.29248 0.0
H1228 H 0.02189 0.82754 0.48037 0.0
H1229 H 0.96667 0.84413 0.32366 0.0
H1230 H 0.93387 0.83798 0.26497 0.0
H1231 H 0.90043 0.82823 0.44635 0.0
H1232 H 0.933 0.83444 0.50563 0.0
H1233 H 0.97771 0.94026 0.49943 0.0
H1234 H 0.97903 0.90677 0.45428 0.0
H1235 H 0.00401 0.87645 0.63522 0.0
H1236 H 0.00302 0.91029 0.68033 0.0
H1237 H 0.959 0.87161 0.48578 0.0
H1238 H 0.03312 0.83358 0.6041 0.0
H1239 H 0.06718 0.84443 0.64637 0.0
H1240 H 0.06563 0.90302 0.51838 0.0
H1241 H 0.03171 0.8924 0.4748 0.0
C1242 C 0.97207 0.78009 0.38666 0.0
C1243 C 0.98671 0.77904 0.33684 0.0
C1244 C 0.97359 0.7962 0.42676 0.0
C1245 C 0.98959 0.8118 0.41688 0.0
C1246 C 0.00503 0.80982 0.36981 0.0
C1247 C 0.00366 0.79351 0.33049 0.0
C1248 C 0.98959 0.83088 0.45222 0.0
C1249 C 0.00808 0.83708 0.48192 0.0
C1250 C 0.97173 0.84365 0.45383 0.0
C1251 C 0.95225 0.83942 0.41883 0.0
C1252 C 0.95231 0.84047 0.35075 0.0
C1253 C 0.93379 0.83707 0.31747 0.0
C1254 C 0.91513 0.83258 0.35196 0.0
C1255 C 0.91492 0.83163 0.41972 0.0
C1256 C 0.93338 0.83515 0.45313 0.0
C1257 C 0.98349 0.92648 0.52968 0.0
C1258 C 0.99015 0.92793 0.59361 0.0
C1259 C 0.98425 0.9073 0.50379 0.0
C1260 C 0.9916 0.88897 0.54116 0.0
C1261 C 0.99852 0.89038 0.60495 0.0
C1262 C 0.99796 0.90972 0.63075 0.0
C1263 C 0.99137 0.86847 0.51315 0.0
C1264 C 0.97276 0.86193 0.48514 0.0
C1265 C 0.0093 0.85582 0.51145 0.0
C1266 C 0.02977 0.86229 0.53684 0.0
C1267 C 0.04008 0.84875 0.58491 0.0
C1268 C 0.05936 0.85486 0.60909 0.0
C1269 C 0.06852 0.87444 0.58526 0.0
C1270 C 0.05847 0.88791 0.537 0.0
C1271 C 0.03921 0.88186 0.51261 0.0
H1272 H 0.08343 0.87914 0.60407 0.0
H1273 H 0.90081 0.82993 0.32615 0.0
H1274 H 0.7424 0.0222 0.29518 0.0
H1275 H 0.71235 0.02183 0.3698 0.0
H1276 H 0.68871 0.9646 0.30164 0.0
H1277 H 0.71849 0.96535 0.22693 0.0
H1278 H 0.65908 0.99262 0.29718 0.0
H1279 H 0.70965 0.9655 0.4567 0.0
H1280 H 0.74265 0.96577 0.51795 0.0
H1281 H 0.72579 0.02397 0.58712 0.0
H1282 H 0.6928 0.02421 0.52548 0.0
H1283 H 0.58037 0.9571 0.52307 0.0
H1284 H 0.61301 0.96106 0.46271 0.0
H1285 H 0.62448 0.02175 0.52875 0.0
H1286 H 0.59131 0.01826 0.58861 0.0
H1287 H 0.66025 0.99586 0.53507 0.0
H1288 H 0.6087 0.0216 0.37938 0.0
H1289 H 0.57547 0.02052 0.31972 0.0
H1290 H 0.59436 0.96411 0.24363 0.0
H1291 H 0.62762 0.9647 0.30352 0.0
C1292 C 0.73101 0.0093 0.29787 0.0
C1293 C 0.73268 0.9937 0.25613 0.0
C1294 C 0.71383 0.0091 0.34014 0.0
C1295 C 0.69819 0.99316 0.3415 0.0
C1296 C 0.70045 0.97711 0.30145 0.0
C1297 C 0.7175 0.97741 0.25923 0.0
C1298 C 0.67876 0.99377 0.38106 0.0
C1299 C 0.65941 0.99308 0.34933 0.0
C1300 C 0.67905 0.99512 0.4488 0.0
C1301 C 0.69887 0.995 0.48587 0.0
C1302 C 0.71306 0.97846 0.4845 0.0
C1303 C 0.73175 0.9785 0.51938 0.0
C1304 C 0.73635 0.99491 0.55624 0.0
C1305 C 0.72223 0.01129 0.55844 0.0
C1306 C 0.70353 0.01134 0.52357 0.0
C1307 C 0.58952 0.97148 0.52453 0.0
C1308 C 0.5828 0.98748 0.56052 0.0
C1309 C 0.60837 0.97363 0.49006 0.0
C1310 C 0.62112 0.99179 0.49059 0.0
C1311 C 0.61488 0.00759 0.52762 0.0
C1312 C 0.59586 0.00553 0.56195 0.0
C1313 C 0.64072 0.99417 0.45127 0.0
C1314 C 0.66002 0.99552 0.48287 0.0
C1315 C 0.64045 0.99335 0.38333 0.0
C1316 C 0.62057 0.99308 0.34651 0.0
C1317 C 0.60571 0.00888 0.3503 0.0
C1318 C 0.58688 0.00838 0.31635 0.0
C1319 C 0.58277 0.99223 0.27809 0.0
C1320 C 0.59755 0.9766 0.27337 0.0
C1321 C 0.61641 0.97703 0.30723 0.0
H1322 H 0.56814 0.99185 0.25213 0.0
H1323 H 0.75082 0.99491 0.58323 0.0
H1324 H 0.48985 0.69108 0.26276 0.0
H1325 H 0.49132 0.66057 0.3476 0.0
H1326 H 0.5545 0.67852 0.39281 0.0
H1327 H 0.55294 0.70907 0.30685 0.0
H1328 H 0.55033 0.63584 0.38059 0.0
H1329 H 0.51584 0.68555 0.49653 0.0
H1330 H 0.48943 0.71196 0.5141 0.0
H1331 H 0.44048 0.66541 0.50359 0.0
H1332 H 0.46658 0.63878 0.48499 0.0
H1333 H 0.55201 0.55658 0.66084 0.0
H1334 H 0.55473 0.58959 0.58594 0.0
H1335 H 0.48974 0.58305 0.53547 0.0
H1336 H 0.4868 0.55045 0.61103 0.0
H1337 H 0.4975 0.62194 0.55689 0.0
H1338 H 0.53094 0.57326 0.43193 0.0
H1339 H 0.55669 0.54665 0.41027 0.0
H1340 H 0.60684 0.59078 0.43447 0.0
H1341 H 0.58138 0.61757 0.45711 0.0
C1342 C 0.50391 0.68859 0.29154 0.0
C1343 C 0.52122 0.70238 0.27901 0.0
C1344 C 0.50477 0.67122 0.33996 0.0
C1345 C 0.52297 0.66731 0.37704 0.0
C1346 C 0.54027 0.68125 0.36498 0.0
C1347 C 0.53934 0.69876 0.31654 0.0
C1348 C 0.52395 0.64827 0.42678 0.0
C1349 C 0.53904 0.63296 0.41996 0.0
C1350 C 0.50892 0.64427 0.47723 0.0
C1351 C 0.49318 0.66021 0.4889 0.0
C1352 C 0.49944 0.68098 0.49751 0.0
C1353 C 0.48452 0.69599 0.50772 0.0
C1354 C 0.46329 0.69038 0.50984 0.0
C1355 C 0.45693 0.66973 0.50191 0.0
C1356 C 0.47178 0.65467 0.49161 0.0
C1357 C 0.53835 0.56208 0.63333 0.0
C1358 C 0.51919 0.55084 0.64203 0.0
C1359 C 0.53994 0.58096 0.59036 0.0
C1360 C 0.52247 0.58884 0.55459 0.0
C1361 C 0.50343 0.57742 0.5626 0.0
C1362 C 0.5018 0.55869 0.60575 0.0
C1363 C 0.52365 0.60924 0.51013 0.0
C1364 C 0.50895 0.62485 0.51798 0.0
C1365 C 0.53895 0.61342 0.46041 0.0
C1366 C 0.55427 0.59732 0.44698 0.0
C1367 C 0.54747 0.57722 0.43319 0.0
C1368 C 0.562 0.56212 0.42063 0.0
C1369 C 0.58339 0.567 0.4212 0.0
C1370 C 0.59027 0.58701 0.43417 0.0
C1371 C 0.5758 0.60216 0.44684 0.0
H1372 H 0.59462 0.55529 0.41143 0.0
H1373 H 0.45176 0.70202 0.51775 0.0
H1374 H 0.82399 0.47847 0.34108 0.0
H1375 H 0.85229 0.47996 0.41972 0.0
H1376 H 0.83448 0.54317 0.44865 0.0
H1377 H 0.80659 0.54187 0.3673 0.0
H1378 H 0.87533 0.5418 0.43551 0.0
H1379 H 0.82557 0.50011 0.5673 0.0
H1380 H 0.79968 0.47132 0.59719 0.0
H1381 H 0.84696 0.42506 0.58427 0.0
H1382 H 0.87309 0.45357 0.55334 0.0
H1383 H 0.95302 0.54086 0.68331 0.0
H1384 H 0.91971 0.54296 0.62502 0.0
H1385 H 0.92707 0.47908 0.58055 0.0
H1386 H 0.95998 0.47668 0.64033 0.0
H1387 H 0.88837 0.48386 0.61373 0.0
H1388 H 0.93692 0.52448 0.46856 0.0
H1389 H 0.96287 0.55271 0.43274 0.0
H1390 H 0.91845 0.59999 0.46544 0.0
H1391 H 0.89229 0.572 0.50229 0.0
C1392 C 0.8261 0.49262 0.36453 0.0
C1393 C 0.81314 0.51003 0.34837 0.0
C1394 C 0.84214 0.49342 0.40997 0.0
C1395 C 0.84541 0.51157 0.4412 0.0
C1396 C 0.83224 0.52893 0.42568 0.0
C1397 C 0.8162 0.52814 0.37977 0.0
C1398 C 0.86327 0.51262 0.48724 0.0
C1399 C 0.878 0.52931 0.47519 0.0
C1400 C 0.86693 0.49624 0.53878 0.0
C1401 C 0.85127 0.47901 0.55755 0.0
C1402 C 0.83043 0.4838 0.57037 0.0
C1403 C 0.8157 0.46752 0.58757 0.0
C1404 C 0.82166 0.44637 0.59252 0.0
C1405 C 0.84236 0.44145 0.58039 0.0
C1406 C 0.85715 0.45767 0.5631 0.0
C1407 C 0.94758 0.52729 0.66086 0.0
C1408 C 0.95927 0.50865 0.66617 0.0
C1409 C 0.92851 0.52852 0.62743 0.0
C1410 C 0.92088 0.51126 0.59757 0.0
C1411 C 0.93251 0.49261 0.60317 0.0
C1412 C 0.95143 0.4913 0.63713 0.0
C1413 C 0.90092 0.51252 0.55993 0.0
C1414 C 0.88568 0.49639 0.57416 0.0
C1415 C 0.89692 0.52929 0.50987 0.0
C1416 C 0.91276 0.54614 0.48924 0.0
C1417 C 0.93278 0.54089 0.46901 0.0
C1418 C 0.9475 0.55685 0.44825 0.0
C1419 C 0.94235 0.57813 0.4471 0.0
C1420 C 0.92244 0.58349 0.46656 0.0
C1421 C 0.90766 0.56759 0.48737 0.0
H1422 H 0.95375 0.59046 0.43091 0.0
H1423 H 0.81024 0.43379 0.60585 0.0
loop_
_geom_bond_atom_site_label_1
_geom_bond_atom_site_label_2
_geom_bond_distance
_geom_bond_site_symmetry_2
_ccdc_geom_bond_type
C0 N1 1.317 . S
C0 N2 1.348 . S
C0 C3 1.485 . S
N1 C0 1.317 . S
N1 N5 1.370 . S
N2 C0 1.348 . S
N2 C4 1.346 . S
C3 C0 1.485 . S
C3 H7 0.960 . S
C3 H8 0.961 . S
C3 H9 0.960 . S
C4 N2 1.346 . S
C4 N5 1.307 . S
C4 C6 1.486 . S
N5 N1 1.370 . S
N5 C4 1.307 . S
C6 C4 1.486 . S
C6 H10 0.960 . S
C6 H11 0.960 . S
C6 H12 0.959 . S
H7 C3 0.960 . S
H8 C3 0.961 . S
H9 C3 0.960 . S
H10 C6 0.960 . S
H11 C6 0.960 . S
H12 C6 0.959 . S
C13 N14 1.317 . S
C13 N15 1.348 . S
C13 C16 1.485 . S
N14 C13 1.317 . S
N14 N18 1.370 . S
N15 C13 1.348 . S
N15 C17 1.346 . S
C16 C13 1.485 . S
C16 H20 0.960 . S
C16 H21 0.961 . S
C16 H22 0.960 . S
C17 N15 1.346 . S
C17 N18 1.307 . S
C17 C19 1.486 1_554 S
N18 N14 1.370 . S
N18 C17 1.307 . S
C19 C17 1.486 1_556 S
C19 H23 0.960 . S
C19 H24 0.960 . S
C19 H25 0.959 . S
H20 C16 0.960 . S
H21 C16 0.961 . S
H22 C16 0.960 . S
H23 C19 0.960 . S
H24 C19 0.960 . S
H25 C19 0.959 . S
C26 N27 1.317 . S
C26 N28 1.345 . S
C26 C29 1.485 . S
N27 C26 1.317 . S
N27 N31 1.369 . S
N28 C26 1.345 . S
N28 C30 1.348 1_565 S
C29 C26 1.485 . S
C29 H33 0.960 1_565 S
C29 H34 0.961 . S
C29 H35 0.960 . S
C30 N28 1.348 1_545 S
C30 N31 1.308 1_545 S
C30 C32 1.491 1_554 S
N31 N27 1.369 . S
N31 C30 1.308 1_565 S
C32 C30 1.491 1_556 S
C32 H36 0.922 1_545 S
C32 H37 0.988 . S
C32 H38 0.966 . S
H33 C29 0.960 1_545 S
H34 C29 0.961 . S
H35 C29 0.960 . S
H36 C32 0.922 1_565 S
H37 C32 0.988 . S
H38 C32 0.966 . S
C39 N40 1.317 . S
C39 N41 1.348 . S
C39 C42 1.485 . S
N40 C39 1.317 . S
N40 N44 1.370 . S
N41 C39 1.348 . S
N41 C43 1.346 . S
C42 C39 1.485 . S
C42 H46 0.960 . S
C42 H47 0.961 . S
C42 H48 0.960 . S
C43 N41 1.346 . S
C43 N44 1.307 . S
C43 C45 1.486 1_554 S
N44 N40 1.370 . S
N44 C43 1.307 . S
C45 C43 1.486 1_556 S
C45 H49 0.960 . S
C45 H50 0.960 . S
C45 H51 0.959 . S
H46 C42 0.960 . S
H47 C42 0.961 . S
H48 C42 0.960 . S
H49 C45 0.960 . S
H50 C45 0.960 . S
H51 C45 0.959 . S
C52 N53 1.317 . S
C52 N54 1.348 . S
C52 C55 1.485 . S
N53 C52 1.317 . S
N53 N57 1.370 . S
N54 C52 1.348 . S
N54 C56 1.346 . S
C55 C52 1.485 . S
C55 H59 0.960 . S
C55 H60 0.961 . S
C55 H61 0.960 . S
C56 N54 1.346 . S
C56 N57 1.307 . S
C56 C58 1.486 . S
N57 N53 1.370 . S
N57 C56 1.307 . S
C58 C56 1.486 . S
C58 H62 0.960 . S
C58 H63 0.960 . S
C58 H64 0.959 . S
H59 C55 0.960 . S
H60 C55 0.961 . S
H61 C55 0.960 . S
H62 C58 0.960 . S
H63 C58 0.960 . S
H64 C58 0.959 . S
C65 N66 1.317 . S
C65 N67 1.348 . S
C65 C68 1.485 . S
N66 C65 1.317 . S
N66 N70 1.370 . S
N67 C65 1.348 . S
N67 C69 1.346 . S
C68 C65 1.485 . S
C68 H72 0.960 . S
C68 H73 0.961 . S
C68 H74 0.960 . S
C69 N67 1.346 . S
C69 N70 1.307 . S
C69 C71 1.486 . S
N70 N66 1.370 . S
N70 C69 1.307 . S
C71 C69 1.486 . S
C71 H75 0.960 . S
C71 H76 0.960 . S
C71 H77 0.959 . S
H72 C68 0.960 . S
H73 C68 0.961 . S
H74 C68 0.960 . S
H75 C71 0.960 . S
H76 C71 0.960 . S
H77 C71 0.959 . S
C78 N79 1.317 . S
C78 N80 1.353 . S
C78 C81 1.485 . S
N79 C78 1.317 . S
N79 N83 1.370 . S
N80 C78 1.353 . S
N80 C82 1.343 1_565 S
C81 C78 1.485 . S
C81 H85 0.960 1_565 S
C81 H86 0.961 . S
C81 H87 0.960 . S
C82 N80 1.343 1_545 S
C82 N83 1.306 1_545 S
C82 C84 1.480 . S
N83 N79 1.370 . S
N83 C82 1.306 1_565 S
C84 C82 1.480 . S
C84 H88 0.916 1_545 S
C84 H89 1.001 . S
C84 H90 0.972 . S
H85 C81 0.960 1_545 S
H86 C81 0.961 . S
H87 C81 0.960 . S
H88 C84 0.916 1_565 S
H89 C84 1.001 . S
H90 C84 0.972 . S
C91 N92 1.317 . S
C91 N93 1.348 . S
C91 C94 1.485 . S
N92 C91 1.317 . S
N92 N96 1.370 . S
N93 C91 1.348 . S
N93 C95 1.346 . S
C94 C91 1.485 . S
C94 H98 0.960 . S
C94 H99 0.961 . S
C94 H100 0.960 . S
C95 N93 1.346 . S
C95 N96 1.307 . S
C95 C97 1.486 . S
N96 N92 1.370 . S
N96 C95 1.307 . S
C97 C95 1.486 . S
C97 H101 0.960 . S
C97 H102 0.960 . S
C97 H103 0.959 . S
H98 C94 0.960 . S
H99 C94 0.961 . S
H100 C94 0.960 . S
H101 C97 0.960 . S
H102 C97 0.960 . S
H103 C97 0.959 . S
Co104 N109 2.057 . S
Co104 O121 2.021 . S
Co104 O124 2.062 . S
Co104 O128 2.117 1_455 S
Co104 O129 2.020 1_545 S
C105 O125 1.259 1_545 S
C105 O128 1.258 . S
Co106 N115 2.057 . S
Co106 O122 2.117 . S
Co106 O123 2.020 1_565 S
Co106 O125 2.021 1_455 S
Co106 O130 2.062 . S
C107 N109 1.316 . S
C107 N110 1.347 . S
C107 H112 0.931 . S
C108 N109 1.357 1_655 S
C108 C111 1.344 1_655 S
C108 H113 0.951 . S
N109 Co104 2.057 . S
N109 C107 1.316 . S
N109 C108 1.357 1_455 S
N110 C107 1.347 . S
N110 C111 1.373 . S
C111 C108 1.344 1_455 S
C111 N110 1.373 . S
C111 H132 0.931 1_456 S
H112 C107 0.931 . S
H113 C108 0.951 . S
C114 O121 1.259 1_565 S
C114 O122 1.258 . S
N115 Co106 2.057 . S
N115 C116 1.316 1_455 S
N115 C117 1.375 . S
C116 N115 1.316 1_655 S
C116 N118 1.347 . S
C116 H127 0.931 . S
C117 N115 1.375 . S
C117 C119 1.350 . S
C117 H126 0.930 . S
N118 C116 1.347 . S
N118 C119 1.373 1_655 S
C119 C117 1.350 . S
C119 N118 1.373 1_455 S
C119 H133 0.931 . S
C120 O123 1.256 . S
C120 O124 1.255 . S
O121 Co104 2.021 . S
O121 C114 1.259 1_545 S
O122 Co106 2.117 . S
O122 C114 1.258 . S
O123 Co106 2.020 1_545 S
O123 C120 1.256 . S
O124 Co104 2.062 . S
O124 C120 1.255 . S
O125 C105 1.259 1_565 S
O125 Co106 2.021 1_655 S
H126 C117 0.930 . S
H127 C116 0.931 . S
O128 Co104 2.117 1_655 S
O128 C105 1.258 . S
O129 Co104 2.020 1_565 S
O129 C131 1.256 . S
O130 Co106 2.062 . S
O130 C131 1.255 . S
C131 O129 1.256 . S
C131 O130 1.255 . S
H132 C111 0.931 1_654 S
H133 C119 0.931 . S
Co134 N139 2.057 1_545 S
Co134 O151 2.021 . S
Co134 O154 2.067 . S
Co134 O158 2.117 1_545 S
Co134 O159 2.020 . S
C135 O155 1.259 . S
C135 O158 1.258 . S
Co136 N145 2.056 1_565 S
Co136 O152 2.117 1_565 S
Co136 O153 2.020 . S
Co136 O155 2.021 . S
Co136 O160 2.064 . S
C137 N139 1.309 1_545 S
C137 N140 1.347 . S
C137 H142 0.931 . S
C138 N139 1.382 . S
C138 C141 1.362 . S
C138 H143 0.930 . S
N139 Co134 2.057 1_565 S
N139 C137 1.309 1_565 S
N139 C138 1.382 . S
N140 C137 1.347 . S
N140 C141 1.375 1_545 S
C141 C138 1.362 . S
C141 N140 1.375 1_565 S
C141 H162 0.920 1_556 S
H142 C137 0.931 . S
H143 C138 0.930 . S
C144 O151 1.259 . S
C144 O152 1.258 . S
N145 Co136 2.056 1_545 S
N145 C146 1.300 1_545 S
N145 C147 1.392 . S
C146 N145 1.300 1_565 S
C146 N148 1.347 . S
C146 H157 0.931 . S
C147 N145 1.392 . S
C147 C149 1.350 . S
C147 H156 0.930 . S
N148 C146 1.347 . S
N148 C149 1.373 1_565 S
C149 C147 1.350 . S
C149 N148 1.373 1_545 S
C149 H163 0.931 . S
C150 O153 1.256 . S
C150 O154 1.246 1_565 S
O151 Co134 2.021 . S
O151 C144 1.259 . S
O152 Co136 2.117 1_545 S
O152 C144 1.258 . S
O153 Co136 2.020 . S
O153 C150 1.256 . S
O154 Co134 2.067 . S
O154 C150 1.246 1_545 S
O155 C135 1.259 . S
O155 Co136 2.021 . S
H156 C147 0.930 . S
H157 C146 0.931 . S
O158 Co134 2.117 1_565 S
O158 C135 1.258 . S
O159 Co134 2.020 . S
O159 C161 1.256 . S
O160 Co136 2.064 . S
O160 C161 1.250 1_565 S
C161 O159 1.256 . S
C161 O160 1.250 1_545 S
H162 C141 0.920 1_554 S
H163 C149 0.931 . S
Co164 N169 2.057 . S
Co164 O181 2.021 . S
Co164 O184 2.062 . S
Co164 O188 2.117 . S
Co164 O189 2.020 . S
C165 O185 1.259 . S
C165 O188 1.258 . S
Co166 N175 2.057 . S
Co166 O182 2.117 . S
Co166 O183 2.020 . S
Co166 O185 2.021 . S
Co166 O190 2.062 . S
C167 N169 1.316 . S
C167 N170 1.347 . S
C167 H172 0.931 . S
C168 N169 1.375 . S
C168 C171 1.350 . S
C168 H173 0.930 . S
N169 Co164 2.057 . S
N169 C167 1.316 . S
N169 C168 1.375 . S
N170 C167 1.347 . S
N170 C171 1.373 . S
C171 C168 1.350 . S
C171 N170 1.373 . S
C171 H192 0.931 . S
H172 C167 0.931 . S
H173 C168 0.930 . S
C174 O181 1.259 . S
C174 O182 1.258 . S
N175 Co166 2.057 . S
N175 C176 1.316 . S
N175 C177 1.375 . S
C176 N175 1.316 . S
C176 N178 1.347 . S
C176 H187 0.931 . S
C177 N175 1.375 . S
C177 C179 1.350 . S
C177 H186 0.930 . S
N178 C176 1.347 . S
N178 C179 1.373 . S
C179 C177 1.350 . S
C179 N178 1.373 . S
C179 H193 0.931 . S
C180 O183 1.256 . S
C180 O184 1.255 . S
O181 Co164 2.021 . S
O181 C174 1.259 . S
O182 Co166 2.117 . S
O182 C174 1.258 . S
O183 Co166 2.020 . S
O183 C180 1.256 . S
O184 Co164 2.062 . S
O184 C180 1.255 . S
O185 C165 1.259 . S
O185 Co166 2.021 . S
H186 C177 0.930 . S
H187 C176 0.931 . S
O188 Co164 2.117 . S
O188 C165 1.258 . S
O189 Co164 2.020 . S
O189 C191 1.256 . S
O190 Co166 2.062 . S
O190 C191 1.255 . S
C191 O189 1.256 . S
C191 O190 1.255 . S
H192 C171 0.931 . S
H193 C179 0.931 . S
Co194 N199 2.057 . S
Co194 O211 2.021 1_455 S
Co194 O214 2.062 1_455 S
Co194 O218 2.117 . S
Co194 O219 2.020 . S
C195 O215 1.259 . S
C195 O218 1.258 . S
Co196 N205 2.057 . S
Co196 O212 2.117 1_455 S
Co196 O213 2.020 1_455 S
Co196 O215 2.021 . S
Co196 O220 2.062 . S
C197 N199 1.320 1_655 S
C197 N200 1.348 1_655 S
C197 H202 0.926 . S
C198 N199 1.375 . S
C198 C201 1.350 . S
C198 H203 0.930 . S
N199 Co194 2.057 . S
N199 C197 1.320 1_455 S
N199 C198 1.375 . S
N200 C197 1.348 1_455 S
N200 C201 1.373 . S
C201 C198 1.350 . S
C201 N200 1.373 . S
C201 H222 0.931 . S
H202 C197 0.926 . S
H203 C198 0.930 . S
C204 O211 1.259 . S
C204 O212 1.258 . S
N205 Co196 2.057 . S
N205 C206 1.316 . S
N205 C207 1.375 1_455 S
C206 N205 1.316 . S
C206 N208 1.347 . S
C206 H217 0.931 . S
C207 N205 1.375 1_655 S
C207 C209 1.350 . S
C207 H216 0.930 . S
N208 C206 1.347 . S
N208 C209 1.373 1_455 S
C209 C207 1.350 . S
C209 N208 1.373 1_655 S
C209 H223 0.931 . S
C210 O213 1.256 . S
C210 O214 1.255 . S
O211 Co194 2.021 1_655 S
O211 C204 1.259 . S
O212 Co196 2.117 1_655 S
O212 C204 1.258 . S
O213 Co196 2.020 1_655 S
O213 C210 1.256 . S
O214 Co194 2.062 1_655 S
O214 C210 1.255 . S
O215 C195 1.259 . S
O215 Co196 2.021 . S
H216 C207 0.930 . S
H217 C206 0.931 . S
O218 Co194 2.117 . S
O218 C195 1.258 . S
O219 Co194 2.020 . S
O219 C221 1.256 . S
O220 Co196 2.062 . S
O220 C221 1.255 . S
C221 O219 1.256 . S
C221 O220 1.255 . S
H222 C201 0.931 . S
H223 C209 0.931 . S
H224 C242 0.951 . S
H225 C244 0.951 . S
H226 C246 0.950 . S
H227 C247 0.950 . S
H228 C249 0.947 . S
H229 C252 0.950 . S
H230 C253 0.950 . S
H231 C255 0.950 . S
H232 C256 0.950 . S
H233 C257 0.951 . S
H234 C259 0.951 . S
H235 C261 0.950 . S
H236 C262 0.950 . S
H237 C264 0.950 . S
H238 C267 0.950 . S
H239 C268 0.950 . S
H240 C270 0.950 . S
H241 C271 0.950 . S
C242 H224 0.951 . S
C242 C243 1.370 . S
C242 C244 1.388 . S
C243 C242 1.370 . S
C243 C247 1.380 1_565 S
C244 H225 0.951 . S
C244 C242 1.388 . S
C244 C245 1.372 . S
C245 C244 1.372 . S
C245 C246 1.408 1_565 S
C245 C248 1.498 . S
C246 H226 0.950 . S
C246 C245 1.408 1_545 S
C246 C247 1.374 . S
C247 H227 0.950 . S
C247 C243 1.380 1_545 S
C247 C246 1.374 . S
C248 C245 1.498 . S
C248 C249 1.379 . S
C248 C250 1.386 . S
C249 H228 0.947 . S
C249 C248 1.379 . S
C249 C265 1.379 . S
C250 C248 1.386 . S
C250 C251 1.526 1_565 S
C250 C264 1.378 . S
C251 C250 1.526 1_545 S
C251 C252 1.397 . S
C251 C256 1.363 1_545 S
C252 H229 0.950 . S
C252 C251 1.397 . S
C252 C253 1.334 . S
C253 H230 0.950 . S
C253 C252 1.334 . S
C253 C254 1.287 . S
C254 C253 1.287 . S
C254 C255 1.524 1_545 S
C254 H273 0.913 . S
C255 H231 0.950 . S
C255 C254 1.524 1_565 S
C255 C256 1.415 . S
C256 H232 0.950 . S
C256 C251 1.363 1_565 S
C256 C255 1.415 . S
C257 H233 0.951 . S
C257 C258 1.366 1_545 S
C257 C259 1.388 . S
C258 C257 1.366 1_565 S
C258 C262 1.385 . S
C259 H234 0.951 . S
C259 C257 1.388 . S
C259 C260 1.366 1_545 S
C260 C259 1.366 1_565 S
C260 C261 1.414 . S
C260 C263 1.499 . S
C261 H235 0.950 . S
C261 C260 1.414 . S
C261 C262 1.374 . S
C262 H236 0.950 . S
C262 C258 1.385 . S
C262 C261 1.374 . S
C263 C260 1.499 . S
C263 C264 1.373 . S
C263 C265 1.389 . S
C264 H237 0.950 . S
C264 C250 1.378 . S
C264 C263 1.373 . S
C265 C249 1.379 . S
C265 C263 1.389 . S
C265 C266 1.524 . S
C266 C265 1.524 . S
C266 C267 1.397 . S
C266 C271 1.363 1_565 S
C267 H238 0.950 . S
C267 C266 1.397 . S
C267 C268 1.334 . S
C268 H239 0.950 . S
C268 C267 1.334 . S
C268 C269 1.287 . S
C269 C268 1.287 . S
C269 C270 1.524 1_565 S
C269 H272 0.999 . S
C270 H240 0.950 . S
C270 C269 1.524 1_545 S
C270 C271 1.415 . S
C271 H241 0.950 . S
C271 C266 1.363 1_545 S
C271 C270 1.415 . S
H272 C269 0.999 . S
H273 C254 0.913 . S
H274 C292 0.951 . S
H275 C294 0.951 . S
H276 C296 0.950 . S
H277 C297 0.950 . S
H278 C299 0.950 . S
H279 C302 0.950 . S
H280 C303 0.950 . S
H281 C305 0.950 . S
H282 C306 0.950 . S
H283 C307 0.951 . S
H284 C309 0.951 . S
H285 C311 0.950 . S
H286 C312 0.950 . S
H287 C314 0.950 . S
H288 C317 0.950 . S
H289 C318 0.950 . S
H290 C320 0.950 . S
H291 C321 0.950 . S
C292 H274 0.951 . S
C292 C293 1.366 . S
C292 C294 1.388 . S
C293 C292 1.366 . S
C293 C297 1.385 . S
C294 H275 0.951 . S
C294 C292 1.388 . S
C294 C295 1.366 . S
C295 C294 1.366 . S
C295 C296 1.414 . S
C295 C298 1.499 . S
C296 H276 0.950 . S
C296 C295 1.414 . S
C296 C297 1.374 . S
C297 H277 0.950 . S
C297 C293 1.385 . S
C297 C296 1.374 . S
C298 C295 1.499 . S
C298 C299 1.373 . S
C298 C300 1.389 . S
C299 H278 0.950 . S
C299 C298 1.373 . S
C299 C315 1.377 . S
C300 C298 1.389 . S
C300 C301 1.524 . S
C300 C314 1.377 . S
C301 C300 1.524 . S
C301 C302 1.397 . S
C301 C306 1.363 . S
C302 H279 0.950 . S
C302 C301 1.397 . S
C302 C303 1.334 . S
C303 H280 0.950 . S
C303 C302 1.334 . S
C303 C304 1.287 . S
C304 C303 1.287 . S
C304 C305 1.524 . S
C304 H323 0.913 . S
C305 H281 0.950 . S
C305 C304 1.524 . S
C305 C306 1.415 . S
C306 H282 0.950 . S
C306 C301 1.363 . S
C306 C305 1.415 . S
C307 H283 0.951 . S
C307 C308 1.366 . S
C307 C309 1.388 . S
C308 C307 1.366 . S
C308 C312 1.385 . S
C309 H284 0.951 . S
C309 C307 1.388 . S
C309 C310 1.366 . S
C310 C309 1.366 . S
C310 C311 1.414 . S
C310 C313 1.499 . S
C311 H285 0.950 . S
C311 C310 1.414 . S
C311 C312 1.374 . S
C312 H286 0.950 . S
C312 C308 1.385 . S
C312 C311 1.374 . S
C313 C310 1.499 . S
C313 C314 1.373 . S
C313 C315 1.389 . S
C314 H287 0.950 . S
C314 C300 1.377 . S
C314 C313 1.373 . S
C315 C299 1.377 . S
C315 C313 1.389 . S
C315 C316 1.524 . S
C316 C315 1.524 . S
C316 C317 1.397 . S
C316 C321 1.363 . S
C317 H288 0.950 . S
C317 C316 1.397 . S
C317 C318 1.334 . S
C318 H289 0.950 . S
C318 C317 1.334 . S
C318 C319 1.287 . S
C319 C318 1.287 . S
C319 C320 1.524 . S
C319 H322 0.999 . S
C320 H290 0.950 . S
C320 C319 1.524 . S
C320 C321 1.415 . S
C321 H291 0.950 . S
C321 C316 1.363 . S
C321 C320 1.415 . S
H322 C319 0.999 . S
H323 C304 0.913 . S
H324 C342 0.951 . S
H325 C344 0.951 . S
H326 C346 0.950 . S
H327 C347 0.950 . S
H328 C349 0.950 . S
H329 C352 0.950 . S
H330 C353 0.950 . S
H331 C355 0.950 . S
H332 C356 0.950 . S
H333 C357 0.951 . S
H334 C359 0.951 . S
H335 C361 0.950 . S
H336 C362 0.950 . S
H337 C364 0.950 . S
H338 C367 0.950 . S
H339 C368 0.950 . S
H340 C370 0.950 . S
H341 C371 0.950 . S
C342 H324 0.951 . S
C342 C343 1.366 . S
C342 C344 1.388 . S
C343 C342 1.366 . S
C343 C347 1.385 . S
C344 H325 0.951 . S
C344 C342 1.388 . S
C344 C345 1.366 . S
C345 C344 1.366 . S
C345 C346 1.414 . S
C345 C348 1.499 . S
C346 H326 0.950 . S
C346 C345 1.414 . S
C346 C347 1.374 . S
C347 H327 0.950 . S
C347 C343 1.385 . S
C347 C346 1.374 . S
C348 C345 1.499 . S
C348 C349 1.373 . S
C348 C350 1.389 . S
C349 H328 0.950 . S
C349 C348 1.373 . S
C349 C365 1.377 . S
C350 C348 1.389 . S
C350 C351 1.524 . S
C350 C364 1.377 . S
C351 C350 1.524 . S
C351 C352 1.397 . S
C351 C356 1.363 . S
C352 H329 0.950 . S
C352 C351 1.397 . S
C352 C353 1.334 . S
C353 H330 0.950 . S
C353 C352 1.334 . S
C353 C354 1.287 . S
C354 C353 1.287 . S
C354 C355 1.524 . S
C354 H373 0.913 . S
C355 H331 0.950 . S
C355 C354 1.524 . S
C355 C356 1.415 . S
C356 H332 0.950 . S
C356 C351 1.363 . S
C356 C355 1.415 . S
C357 H333 0.951 . S
C357 C358 1.366 . S
C357 C359 1.388 . S
C358 C357 1.366 . S
C358 C362 1.385 . S
C359 H334 0.951 . S
C359 C357 1.388 . S
C359 C360 1.366 . S
C360 C359 1.366 . S
C360 C361 1.414 . S
C360 C363 1.499 . S
C361 H335 0.950 . S
C361 C360 1.414 . S
C361 C362 1.374 . S
C362 H336 0.950 . S
C362 C358 1.385 . S
C362 C361 1.374 . S
C363 C360 1.499 . S
C363 C364 1.373 . S
C363 C365 1.389 . S
C364 H337 0.950 . S
C364 C350 1.377 . S
C364 C363 1.373 . S
C365 C349 1.377 . S
C365 C363 1.389 . S
C365 C366 1.524 . S
C366 C365 1.524 . S
C366 C367 1.397 . S
C366 C371 1.363 . S
C367 H338 0.950 . S
C367 C366 1.397 . S
C367 C368 1.334 . S
C368 H339 0.950 . S
C368 C367 1.334 . S
C368 C369 1.287 . S
C369 C368 1.287 . S
C369 C370 1.524 . S
C369 H372 0.999 . S
C370 H340 0.950 . S
C370 C369 1.524 . S
C370 C371 1.415 . S
C371 H341 0.950 . S
C371 C366 1.363 . S
C371 C370 1.415 . S
H372 C369 0.999 . S
H373 C354 0.913 . S
H374 C392 0.951 . S
H375 C394 0.951 . S
H376 C396 0.950 . S
H377 C397 0.950 . S
H378 C399 0.950 . S
H379 C402 0.950 . S
H380 C403 0.950 . S
H381 C405 0.950 . S
H382 C406 0.950 . S
H383 C407 0.951 . S
H384 C409 0.951 . S
H385 C411 0.950 . S
H386 C412 0.950 . S
H387 C414 0.950 . S
H388 C417 0.950 . S
H389 C418 0.950 . S
H390 C420 0.950 . S
H391 C421 0.950 . S
C392 H374 0.951 . S
C392 C393 1.366 . S
C392 C394 1.388 . S
C393 C392 1.366 . S
C393 C397 1.385 . S
C394 H375 0.951 . S
C394 C392 1.388 . S
C394 C395 1.366 . S
C395 C394 1.366 . S
C395 C396 1.414 . S
C395 C398 1.499 . S
C396 H376 0.950 . S
C396 C395 1.414 . S
C396 C397 1.374 . S
C397 H377 0.950 . S
C397 C393 1.385 . S
C397 C396 1.374 . S
C398 C395 1.499 . S
C398 C399 1.373 . S
C398 C400 1.389 . S
C399 H378 0.950 . S
C399 C398 1.373 . S
C399 C415 1.377 . S
C400 C398 1.389 . S
C400 C401 1.524 . S
C400 C414 1.377 . S
C401 C400 1.524 . S
C401 C402 1.397 . S
C401 C406 1.363 . S
C402 H379 0.950 . S
C402 C401 1.397 . S
C402 C403 1.334 . S
C403 H380 0.950 . S
C403 C402 1.334 . S
C403 C404 1.287 . S
C404 C403 1.287 . S
C404 C405 1.524 . S
C404 H423 0.913 . S
C405 H381 0.950 . S
C405 C404 1.524 . S
C405 C406 1.415 . S
C406 H382 0.950 . S
C406 C401 1.363 . S
C406 C405 1.415 . S
C407 H383 0.951 . S
C407 C408 1.366 . S
C407 C409 1.388 . S
C408 C407 1.366 . S
C408 C412 1.385 . S
C409 H384 0.951 . S
C409 C407 1.388 . S
C409 C410 1.366 . S
C410 C409 1.366 . S
C410 C411 1.414 . S
C410 C413 1.499 . S
C411 H385 0.950 . S
C411 C410 1.414 . S
C411 C412 1.374 . S
C412 H386 0.950 . S
C412 C408 1.385 . S
C412 C411 1.374 . S
C413 C410 1.499 . S
C413 C414 1.373 . S
C413 C415 1.389 . S
C414 H387 0.950 . S
C414 C400 1.377 . S
C414 C413 1.373 . S
C415 C399 1.377 . S
C415 C413 1.389 . S
C415 C416 1.524 . S
C416 C415 1.524 . S
C416 C417 1.397 1_455 S
C416 C421 1.363 . S
C417 H388 0.950 . S
C417 C416 1.397 1_655 S
C417 C418 1.334 . S
C418 H389 0.950 . S
C418 C417 1.334 . S
C418 C419 1.287 . S
C419 C418 1.287 . S
C419 C420 1.524 . S
C419 H422 0.999 . S
C420 H390 0.950 . S
C420 C419 1.524 . S
C420 C421 1.415 1_655 S
C421 H391 0.950 . S
C421 C416 1.363 . S
C421 C420 1.415 1_455 S
H422 C419 0.999 . S
H423 C404 0.913 . S
H424 C442 0.951 . S
H425 C444 0.951 . S
H426 C446 0.950 . S
H427 C447 0.950 . S
H428 C449 0.950 . S
H429 C452 0.950 1_556 S
H430 C453 0.950 . S
H431 C455 0.950 . S
H432 C456 0.950 . S
H433 C457 0.951 . S
H434 C459 0.951 . S
H435 C461 0.950 . S
H436 C462 0.955 . S
H437 C464 0.950 . S
H438 C467 0.950 . S
H439 C468 0.950 . S
H440 C470 0.950 . S
H441 C471 0.950 . S
C442 H424 0.951 . S
C442 C443 1.364 1_565 S
C442 C444 1.388 . S
C443 C442 1.364 1_545 S
C443 C447 1.386 1_554 S
C444 H425 0.951 . S
C444 C442 1.388 . S
C444 C445 1.366 1_564 S
C445 C444 1.366 1_546 S
C445 C446 1.414 . S
C445 C448 1.499 . S
C446 H426 0.950 . S
C446 C445 1.414 . S
C446 C447 1.374 . S
C447 H427 0.950 . S
C447 C443 1.386 1_556 S
C447 C446 1.374 . S
C448 C445 1.499 . S
C448 C449 1.373 1_545 S
C448 C450 1.389 . S
C449 H428 0.950 . S
C449 C448 1.373 1_565 S
C449 C465 1.377 . S
C450 C448 1.389 . S
C450 C451 1.524 1_556 S
C450 C464 1.377 . S
C451 C450 1.524 1_554 S
C451 C452 1.397 . S
C451 C456 1.363 . S
C452 H429 0.950 1_554 S
C452 C451 1.397 . S
C452 C453 1.334 . S
C453 H430 0.950 . S
C453 C452 1.334 . S
C453 C454 1.287 . S
C454 C453 1.287 . S
C454 C455 1.524 . S
C454 H473 0.913 . S
C455 H431 0.950 . S
C455 C454 1.524 . S
C455 C456 1.415 . S
C456 H432 0.950 . S
C456 C451 1.363 . S
C456 C455 1.415 . S
C457 H433 0.951 . S
C457 C458 1.366 . S
C457 C459 1.388 . S
C458 C457 1.366 . S
C458 C462 1.382 1_545 S
C459 H434 0.951 . S
C459 C457 1.388 . S
C459 C460 1.366 . S
C460 C459 1.366 . S
C460 C461 1.414 1_545 S
C460 C463 1.499 . S
C461 H435 0.950 . S
C461 C460 1.414 1_565 S
C461 C462 1.373 . S
C462 H436 0.955 . S
C462 C458 1.382 1_565 S
C462 C461 1.373 . S
C463 C460 1.499 . S
C463 C464 1.373 . S
C463 C465 1.389 1_545 S
C464 H437 0.950 . S
C464 C450 1.377 . S
C464 C463 1.373 . S
C465 C449 1.377 . S
C465 C463 1.389 1_565 S
C465 C466 1.524 . S
C466 C465 1.524 . S
C466 C467 1.397 . S
C466 C471 1.363 . S
C467 H438 0.950 . S
C467 C466 1.397 . S
C467 C468 1.334 . S
C468 H439 0.950 . S
C468 C467 1.334 . S
C468 C469 1.287 . S
C469 C468 1.287 . S
C469 C470 1.524 . S
C469 H472 0.999 . S
C470 H440 0.950 . S
C470 C469 1.524 . S
C470 C471 1.415 . S
C471 H441 0.950 . S
C471 C466 1.363 . S
C471 C470 1.415 . S
H472 C469 0.999 . S
H473 C454 0.913 . S
H474 C492 0.951 . S
H475 C494 0.951 1_556 S
H476 C496 0.950 . S
H477 C497 0.950 . S
H478 C499 0.950 . S
H479 C502 0.950 . S
H480 C503 0.950 . S
H481 C505 0.950 . S
H482 C506 0.950 . S
H483 C507 0.951 . S
H484 C509 0.951 . S
H485 C511 0.950 . S
H486 C512 0.950 . S
H487 C514 0.950 . S
H488 C517 0.950 . S
H489 C518 0.950 . S
H490 C520 0.950 . S
H491 C521 0.950 . S
C492 H474 0.951 . S
C492 C493 1.366 . S
C492 C494 1.388 . S
C493 C492 1.366 . S
C493 C497 1.385 . S
C494 H475 0.951 1_554 S
C494 C492 1.388 . S
C494 C495 1.366 . S
C495 C494 1.366 . S
C495 C496 1.414 . S
C495 C498 1.499 1_554 S
C496 H476 0.950 . S
C496 C495 1.414 . S
C496 C497 1.374 . S
C497 H477 0.950 . S
C497 C493 1.385 . S
C497 C496 1.374 . S
C498 C495 1.499 1_556 S
C498 C499 1.373 1_556 S
C498 C500 1.389 . S
C499 H478 0.950 . S
C499 C498 1.373 1_554 S
C499 C515 1.377 1_554 S
C500 C498 1.389 . S
C500 C501 1.524 . S
C500 C514 1.377 . S
C501 C500 1.524 . S
C501 C502 1.397 . S
C501 C506 1.363 . S
C502 H479 0.950 . S
C502 C501 1.397 . S
C502 C503 1.334 . S
C503 H480 0.950 . S
C503 C502 1.334 . S
C503 C504 1.287 . S
C504 C503 1.287 . S
C504 C505 1.524 . S
C504 H523 0.913 . S
C505 H481 0.950 . S
C505 C504 1.524 . S
C505 C506 1.415 . S
C506 H482 0.950 . S
C506 C501 1.363 . S
C506 C505 1.415 . S
C507 H483 0.951 . S
C507 C508 1.366 . S
C507 C509 1.388 . S
C508 C507 1.366 . S
C508 C512 1.385 . S
C509 H484 0.951 . S
C509 C507 1.388 . S
C509 C510 1.366 . S
C510 C509 1.366 . S
C510 C511 1.414 . S
C510 C513 1.499 . S
C511 H485 0.950 . S
C511 C510 1.414 . S
C511 C512 1.374 . S
C512 H486 0.950 . S
C512 C508 1.385 . S
C512 C511 1.374 . S
C513 C510 1.499 . S
C513 C514 1.373 . S
C513 C515 1.389 . S
C514 H487 0.950 . S
C514 C500 1.377 . S
C514 C513 1.373 . S
C515 C499 1.377 1_556 S
C515 C513 1.389 . S
C515 C516 1.524 1_556 S
C516 C515 1.524 1_554 S
C516 C517 1.397 . S
C516 C521 1.363 . S
C517 H488 0.950 . S
C517 C516 1.397 . S
C517 C518 1.334 . S
C518 H489 0.950 . S
C518 C517 1.334 . S
C518 C519 1.287 . S
C519 C518 1.287 . S
C519 C520 1.524 . S
C519 H522 0.999 . S
C520 H490 0.950 . S
C520 C519 1.524 . S
C520 C521 1.415 . S
C521 H491 0.950 . S
C521 C516 1.363 . S
C521 C520 1.415 . S
H522 C519 0.999 . S
H523 C504 0.913 . S
H524 C542 0.951 . S
H525 C544 0.951 1_556 S
H526 C546 0.950 . S
H527 C547 0.950 . S
H528 C549 0.950 . S
H529 C552 0.950 . S
H530 C553 0.950 . S
H531 C555 0.950 . S
H532 C556 0.950 . S
H533 C557 0.951 . S
H534 C559 0.935 1_554 S
H535 C561 0.950 . S
H536 C562 0.950 . S
H537 C564 0.950 . S
H538 C567 0.950 . S
H539 C568 0.950 . S
H540 C570 0.950 . S
H541 C571 0.950 . S
C542 H524 0.951 . S
C542 C543 1.366 . S
C542 C544 1.388 . S
C543 C542 1.366 . S
C543 C547 1.385 . S
C544 H525 0.951 1_554 S
C544 C542 1.388 . S
C544 C545 1.366 . S
C545 C544 1.366 . S
C545 C546 1.414 . S
C545 C548 1.499 . S
C546 H526 0.950 . S
C546 C545 1.414 . S
C546 C547 1.374 . S
C547 H527 0.950 . S
C547 C543 1.385 . S
C547 C546 1.374 . S
C548 C545 1.499 . S
C548 C549 1.373 . S
C548 C550 1.389 1_554 S
C549 H528 0.950 . S
C549 C548 1.373 . S
C549 C565 1.377 1_554 S
C550 C548 1.389 1_556 S
C550 C551 1.524 . S
C550 C564 1.377 . S
C551 C550 1.524 . S
C551 C552 1.397 1_556 S
C551 C556 1.363 . S
C552 H529 0.950 . S
C552 C551 1.397 1_554 S
C552 C553 1.334 . S
C553 H530 0.950 . S
C553 C552 1.334 . S
C553 C554 1.287 1_554 S
C554 C553 1.287 1_556 S
C554 C555 1.524 . S
C554 H573 0.913 . S
C555 H531 0.950 . S
C555 C554 1.524 . S
C555 C556 1.415 . S
C556 H532 0.950 . S
C556 C551 1.363 . S
C556 C555 1.415 . S
C557 H533 0.951 . S
C557 C558 1.366 . S
C557 C559 1.388 . S
C558 C557 1.366 . S
C558 C562 1.385 . S
C559 H534 0.935 1_556 S
C559 C557 1.388 . S
C559 C560 1.366 . S
C560 C559 1.366 . S
C560 C561 1.414 . S
C560 C563 1.499 . S
C561 H535 0.950 . S
C561 C560 1.414 . S
C561 C562 1.374 . S
C562 H536 0.950 . S
C562 C558 1.385 . S
C562 C561 1.374 . S
C563 C560 1.499 . S
C563 C564 1.373 . S
C563 C565 1.389 . S
C564 H537 0.950 . S
C564 C550 1.377 . S
C564 C563 1.373 . S
C565 C549 1.377 1_556 S
C565 C563 1.389 . S
C565 C566 1.524 . S
C566 C565 1.524 . S
C566 C567 1.399 . S
C566 C571 1.361 1_556 S
C567 H538 0.950 . S
C567 C566 1.399 . S
C567 C568 1.334 . S
C568 H539 0.950 . S
C568 C567 1.334 . S
C568 C569 1.287 . S
C569 C568 1.287 . S
C569 C570 1.524 1_556 S
C569 H572 0.999 . S
C570 H540 0.950 . S
C570 C569 1.524 1_554 S
C570 C571 1.415 . S
C571 H541 0.950 . S
C571 C566 1.361 1_554 S
C571 C570 1.415 . S
H572 C569 0.999 . S
H573 C554 0.913 . S
H574 C592 0.951 . S
H575 C594 0.951 . S
H576 C596 0.950 . S
H577 C597 0.950 . S
H578 C599 0.950 . S
H579 C602 0.950 . S
H580 C603 0.950 . S
H581 C605 0.950 . S
H582 C606 0.950 . S
H583 C607 0.951 . S
H584 C609 0.951 . S
H585 C611 0.950 . S
H586 C612 0.950 . S
H587 C614 0.950 1_455 S
H588 C617 0.950 . S
H589 C618 0.950 . S
H590 C620 0.950 . S
H591 C621 0.950 . S
C592 H574 0.951 . S
C592 C593 1.366 . S
C592 C594 1.388 . S
C593 C592 1.366 . S
C593 C597 1.385 . S
C594 H575 0.951 . S
C594 C592 1.388 . S
C594 C595 1.366 . S
C595 C594 1.366 . S
C595 C596 1.414 1_554 S
C595 C598 1.499 1_554 S
C596 H576 0.950 . S
C596 C595 1.414 1_556 S
C596 C597 1.374 1_556 S
C597 H577 0.950 . S
C597 C593 1.385 . S
C597 C596 1.374 1_554 S
C598 C595 1.499 1_556 S
C598 C599 1.373 . S
C598 C600 1.389 . S
C599 H578 0.950 . S
C599 C598 1.373 . S
C599 C615 1.377 . S
C600 C598 1.389 . S
C600 C601 1.524 1_655 S
C600 C614 1.377 . S
C601 C600 1.524 1_455 S
C601 C602 1.397 . S
C601 C606 1.363 1_556 S
C602 H579 0.950 . S
C602 C601 1.397 . S
C602 C603 1.334 . S
C603 H580 0.950 . S
C603 C602 1.334 . S
C603 C604 1.285 1_556 S
C604 C603 1.285 1_554 S
C604 C605 1.525 . S
C604 H623 0.914 . S
C605 H581 0.950 . S
C605 C604 1.525 . S
C605 C606 1.415 . S
C606 H582 0.950 . S
C606 C601 1.363 1_554 S
C606 C605 1.415 . S
C607 H583 0.951 . S
C607 C608 1.366 . S
C607 C609 1.388 . S
C608 C607 1.366 . S
C608 C612 1.385 1_655 S
C609 H584 0.951 . S
C609 C607 1.388 . S
C609 C610 1.366 . S
C610 C609 1.366 . S
C610 C611 1.414 1_655 S
C610 C613 1.499 . S
C611 H585 0.950 . S
C611 C610 1.414 1_455 S
C611 C612 1.374 . S
C612 H586 0.950 . S
C612 C608 1.385 1_455 S
C612 C611 1.374 . S
C613 C610 1.499 . S
C613 C614 1.373 . S
C613 C615 1.389 . S
C614 H587 0.950 1_655 S
C614 C600 1.377 . S
C614 C613 1.373 . S
C615 C599 1.377 . S
C615 C613 1.389 . S
C615 C616 1.524 . S
C616 C615 1.524 . S
C616 C617 1.397 . S
C616 C621 1.363 . S
C617 H588 0.950 . S
C617 C616 1.397 . S
C617 C618 1.334 . S
C618 H589 0.950 . S
C618 C617 1.334 . S
C618 C619 1.287 . S
C619 C618 1.287 . S
C619 C620 1.524 . S
C619 H622 0.999 . S
C620 H590 0.950 . S
C620 C619 1.524 . S
C620 C621 1.415 . S
C621 H591 0.950 . S
C621 C616 1.363 . S
C621 C620 1.415 . S
H622 C619 0.999 . S
H623 C604 0.914 . S
H624 C642 0.951 . S
H625 C644 0.951 . S
H626 C646 0.950 . S
H627 C647 0.950 . S
H628 C649 0.950 . S
H629 C652 0.950 . S
H630 C653 0.950 . S
H631 C655 0.950 . S
H632 C656 0.950 . S
H633 C657 0.951 . S
H634 C659 0.951 1_655 S
H635 C661 0.950 . S
H636 C662 0.950 . S
H637 C664 0.950 . S
H638 C667 0.950 . S
H639 C668 0.950 . S
H640 C670 0.950 . S
H641 C671 0.950 . S
C642 H624 0.951 . S
C642 C643 1.366 . S
C642 C644 1.388 . S
C643 C642 1.366 . S
C643 C647 1.385 . S
C644 H625 0.951 . S
C644 C642 1.388 . S
C644 C645 1.366 . S
C645 C644 1.366 . S
C645 C646 1.414 . S
C645 C648 1.499 . S
C646 H626 0.950 . S
C646 C645 1.414 . S
C646 C647 1.374 . S
C647 H627 0.950 . S
C647 C643 1.385 . S
C647 C646 1.374 . S
C648 C645 1.499 . S
C648 C649 1.373 . S
C648 C650 1.389 . S
C649 H628 0.950 . S
C649 C648 1.373 . S
C649 C665 1.377 . S
C650 C648 1.389 . S
C650 C651 1.524 . S
C650 C664 1.377 . S
C651 C650 1.524 . S
C651 C652 1.397 . S
C651 C656 1.363 . S
C652 H629 0.950 . S
C652 C651 1.397 . S
C652 C653 1.334 . S
C653 H630 0.950 . S
C653 C652 1.334 . S
C653 C654 1.287 . S
C654 C653 1.287 . S
C654 C655 1.524 . S
C654 H673 0.913 . S
C655 H631 0.950 . S
C655 C654 1.524 . S
C655 C656 1.415 . S
C656 H632 0.950 . S
C656 C651 1.363 . S
C656 C655 1.415 . S
C657 H633 0.951 . S
C657 C658 1.366 1_655 S
C657 C659 1.388 1_655 S
C658 C657 1.366 1_455 S
C658 C662 1.385 . S
C659 H634 0.951 1_455 S
C659 C657 1.388 1_455 S
C659 C660 1.366 . S
C660 C659 1.366 . S
C660 C661 1.414 . S
C660 C663 1.499 . S
C661 H635 0.950 . S
C661 C660 1.414 . S
C661 C662 1.374 . S
C662 H636 0.950 . S
C662 C658 1.385 . S
C662 C661 1.374 . S
C663 C660 1.499 . S
C663 C664 1.373 . S
C663 C665 1.389 . S
C664 H637 0.950 . S
C664 C650 1.377 . S
C664 C663 1.373 . S
C665 C649 1.377 . S
C665 C663 1.389 . S
C665 C666 1.524 . S
C666 C665 1.524 . S
C666 C667 1.397 . S
C666 C671 1.363 1_455 S
C667 H638 0.950 . S
C667 C666 1.397 . S
C667 C668 1.334 . S
C668 H639 0.950 . S
C668 C667 1.334 . S
C668 C669 1.287 1_455 S
C669 C668 1.287 1_655 S
C669 C670 1.524 . S
C669 H672 0.999 . S
C670 H640 0.950 . S
C670 C669 1.524 . S
C670 C671 1.415 . S
C671 H641 0.950 . S
C671 C666 1.363 1_655 S
C671 C670 1.415 . S
H672 C669 0.999 . S
H673 C654 0.913 . S
H674 C692 0.951 . S
H675 C694 0.951 . S
H676 C696 0.950 . S
H677 C697 0.950 . S
H678 C699 0.950 . S
H679 C702 0.950 . S
H680 C703 0.950 . S
H681 C705 0.950 . S
H682 C706 0.950 1_565 S
H683 C707 0.951 . S
H684 C709 0.951 . S
H685 C711 0.950 . S
H686 C712 0.950 . S
H687 C714 0.950 . S
H688 C717 0.950 . S
H689 C718 0.950 . S
H690 C720 0.950 . S
H691 C721 0.950 . S
C692 H674 0.951 . S
C692 C693 1.363 1_565 S
C692 C694 1.388 . S
C693 C692 1.363 1_545 S
C693 C697 1.387 . S
C694 H675 0.951 . S
C694 C692 1.388 . S
C694 C695 1.367 . S
C695 C694 1.367 . S
C695 C696 1.413 1_565 S
C695 C698 1.499 . S
C696 H676 0.950 . S
C696 C695 1.413 1_545 S
C696 C697 1.374 . S
C697 H677 0.950 . S
C697 C693 1.387 . S
C697 C696 1.374 . S
C698 C695 1.499 . S
C698 C699 1.388 . S
C698 C700 1.377 1_565 S
C699 H678 0.950 . S
C699 C698 1.388 . S
C699 C715 1.377 . S
C700 C698 1.377 1_545 S
C700 C701 1.524 . S
C700 C714 1.377 . S
C701 C700 1.524 . S
C701 C702 1.397 . S
C701 C706 1.363 . S
C702 H679 0.950 . S
C702 C701 1.397 . S
C702 C703 1.334 . S
C703 H680 0.950 . S
C703 C702 1.334 . S
C703 C704 1.287 . S
C704 C703 1.287 . S
C704 C705 1.524 . S
C704 H723 0.913 . S
C705 H681 0.950 . S
C705 C704 1.524 . S
C705 C706 1.415 . S
C706 H682 0.950 1_545 S
C706 C701 1.363 . S
C706 C705 1.415 . S
C707 H683 0.951 . S
C707 C708 1.366 1_545 S
C707 C709 1.388 . S
C708 C707 1.366 1_565 S
C708 C712 1.385 . S
C709 H684 0.951 . S
C709 C707 1.388 . S
C709 C710 1.366 1_545 S
C710 C709 1.366 1_565 S
C710 C711 1.414 . S
C710 C713 1.499 . S
C711 H685 0.950 . S
C711 C710 1.414 . S
C711 C712 1.374 . S
C712 H686 0.950 . S
C712 C708 1.385 . S
C712 C711 1.374 . S
C713 C710 1.499 . S
C713 C714 1.373 1_565 S
C713 C715 1.389 . S
C714 H687 0.950 . S
C714 C700 1.377 . S
C714 C713 1.373 1_545 S
C715 C699 1.377 . S
C715 C713 1.389 . S
C715 C716 1.524 . S
C716 C715 1.524 . S
C716 C717 1.397 . S
C716 C721 1.363 . S
C717 H688 0.950 . S
C717 C716 1.397 . S
C717 C718 1.334 . S
C718 H689 0.950 . S
C718 C717 1.334 . S
C718 C719 1.287 . S
C719 C718 1.287 . S
C719 C720 1.524 . S
C719 H722 0.999 . S
C720 H690 0.950 . S
C720 C719 1.524 . S
C720 C721 1.415 . S
C721 H691 0.950 . S
C721 C716 1.363 . S
C721 C720 1.415 . S
H722 C719 0.999 . S
H723 C704 0.913 . S
H724 C742 0.951 . S
H725 C744 0.951 . S
H726 C746 0.950 . S
H727 C747 0.950 . S
H728 C749 0.950 . S
H729 C752 0.950 . S
H730 C753 0.950 . S
H731 C755 0.950 . S
H732 C756 0.950 . S
H733 C757 0.951 . S
H734 C759 0.951 . S
H735 C761 0.950 . S
H736 C762 0.950 . S
H737 C764 0.950 . S
H738 C767 0.950 . S
H739 C768 0.950 . S
H740 C770 0.950 . S
H741 C771 0.950 . S
C742 H724 0.951 . S
C742 C743 1.366 . S
C742 C744 1.388 . S
C743 C742 1.366 . S
C743 C747 1.385 . S
C744 H725 0.951 . S
C744 C742 1.388 . S
C744 C745 1.366 . S
C745 C744 1.366 . S
C745 C746 1.414 . S
C745 C748 1.499 . S
C746 H726 0.950 . S
C746 C745 1.414 . S
C746 C747 1.374 . S
C747 H727 0.950 . S
C747 C743 1.385 . S
C747 C746 1.374 . S
C748 C745 1.499 . S
C748 C749 1.373 . S
C748 C750 1.389 . S
C749 H728 0.950 . S
C749 C748 1.373 . S
C749 C765 1.377 . S
C750 C748 1.389 . S
C750 C751 1.524 . S
C750 C764 1.377 . S
C751 C750 1.524 . S
C751 C752 1.397 . S
C751 C756 1.363 . S
C752 H729 0.950 . S
C752 C751 1.397 . S
C752 C753 1.334 . S
C753 H730 0.950 . S
C753 C752 1.334 . S
C753 C754 1.287 . S
C754 C753 1.287 . S
C754 C755 1.524 . S
C754 H773 0.913 . S
C755 H731 0.950 . S
C755 C754 1.524 . S
C755 C756 1.415 . S
C756 H732 0.950 . S
C756 C751 1.363 . S
C756 C755 1.415 . S
C757 H733 0.951 . S
C757 C758 1.366 . S
C757 C759 1.388 . S
C758 C757 1.366 . S
C758 C762 1.385 . S
C759 H734 0.951 . S
C759 C757 1.388 . S
C759 C760 1.366 . S
C760 C759 1.366 . S
C760 C761 1.414 . S
C760 C763 1.499 . S
C761 H735 0.950 . S
C761 C760 1.414 . S
C761 C762 1.374 . S
C762 H736 0.950 . S
C762 C758 1.385 . S
C762 C761 1.374 . S
C763 C760 1.499 . S
C763 C764 1.373 . S
C763 C765 1.389 . S
C764 H737 0.950 . S
C764 C750 1.377 . S
C764 C763 1.373 . S
C765 C749 1.377 . S
C765 C763 1.389 . S
C765 C766 1.524 . S
C766 C765 1.524 . S
C766 C767 1.397 . S
C766 C771 1.363 . S
C767 H738 0.950 . S
C767 C766 1.397 . S
C767 C768 1.334 . S
C768 H739 0.950 . S
C768 C767 1.334 . S
C768 C769 1.287 . S
C769 C768 1.287 . S
C769 C770 1.524 . S
C769 H772 0.999 . S
C770 H740 0.950 . S
C770 C769 1.524 . S
C770 C771 1.415 . S
C771 H741 0.950 . S
C771 C766 1.363 . S
C771 C770 1.415 . S
H772 C769 0.999 . S
H773 C754 0.913 . S
H774 C792 0.951 . S
H775 C794 0.951 . S
H776 C796 0.950 . S
H777 C797 0.950 . S
H778 C799 0.950 . S
H779 C802 0.950 . S
H780 C803 0.950 . S
H781 C805 0.950 . S
H782 C806 0.950 . S
H783 C807 0.951 . S
H784 C809 0.951 . S
H785 C811 0.950 . S
H786 C812 0.950 . S
H787 C814 0.950 . S
H788 C817 0.950 . S
H789 C818 0.950 . S
H790 C820 0.950 . S
H791 C821 0.950 . S
C792 H774 0.951 . S
C792 C793 1.366 . S
C792 C794 1.388 . S
C793 C792 1.366 . S
C793 C797 1.385 . S
C794 H775 0.951 . S
C794 C792 1.388 . S
C794 C795 1.366 . S
C795 C794 1.366 . S
C795 C796 1.414 . S
C795 C798 1.499 . S
C796 H776 0.950 . S
C796 C795 1.414 . S
C796 C797 1.374 . S
C797 H777 0.950 . S
C797 C793 1.385 . S
C797 C796 1.374 . S
C798 C795 1.499 . S
C798 C799 1.373 . S
C798 C800 1.389 . S
C799 H778 0.950 . S
C799 C798 1.373 . S
C799 C815 1.377 . S
C800 C798 1.389 . S
C800 C801 1.524 . S
C800 C814 1.377 . S
C801 C800 1.524 . S
C801 C802 1.397 . S
C801 C806 1.363 . S
C802 H779 0.950 . S
C802 C801 1.397 . S
C802 C803 1.334 . S
C803 H780 0.950 . S
C803 C802 1.334 . S
C803 C804 1.287 . S
C804 C803 1.287 . S
C804 C805 1.524 . S
C804 H823 0.913 . S
C805 H781 0.950 . S
C805 C804 1.524 . S
C805 C806 1.415 . S
C806 H782 0.950 . S
C806 C801 1.363 . S
C806 C805 1.415 . S
C807 H783 0.951 . S
C807 C808 1.366 . S
C807 C809 1.388 . S
C808 C807 1.366 . S
C808 C812 1.385 . S
C809 H784 0.951 . S
C809 C807 1.388 . S
C809 C810 1.366 . S
C810 C809 1.366 . S
C810 C811 1.414 . S
C810 C813 1.499 . S
C811 H785 0.950 . S
C811 C810 1.414 . S
C811 C812 1.374 . S
C812 H786 0.950 . S
C812 C808 1.385 . S
C812 C811 1.374 . S
C813 C810 1.499 . S
C813 C814 1.373 . S
C813 C815 1.389 . S
C814 H787 0.950 . S
C814 C800 1.377 . S
C814 C813 1.373 . S
C815 C799 1.377 . S
C815 C813 1.389 . S
C815 C816 1.524 . S
C816 C815 1.524 . S
C816 C817 1.397 . S
C816 C821 1.363 . S
C817 H788 0.950 . S
C817 C816 1.397 . S
C817 C818 1.334 . S
C818 H789 0.950 . S
C818 C817 1.334 . S
C818 C819 1.287 . S
C819 C818 1.287 . S
C819 C820 1.524 . S
C819 H822 0.999 . S
C820 H790 0.950 . S
C820 C819 1.524 . S
C820 C821 1.415 . S
C821 H791 0.950 . S
C821 C816 1.363 . S
C821 C820 1.415 . S
H822 C819 0.999 . S
H823 C804 0.913 . S
H824 C842 0.951 . S
H825 C844 0.951 . S
H826 C846 0.950 . S
H827 C847 0.950 . S
H828 C849 0.950 1_455 S
H829 C852 0.950 1_556 S
H830 C853 0.950 . S
H831 C855 0.950 . S
H832 C856 0.950 . S
H833 C857 0.951 . S
H834 C859 0.951 . S
H835 C861 0.950 . S
H836 C862 0.950 . S
H837 C864 0.950 . S
H838 C867 0.950 . S
H839 C868 0.950 . S
H840 C870 0.950 . S
H841 C871 0.950 . S
C842 H824 0.951 . S
C842 C843 1.366 . S
C842 C844 1.388 . S
C843 C842 1.366 . S
C843 C847 1.385 . S
C844 H825 0.951 . S
C844 C842 1.388 . S
C844 C845 1.366 . S
C845 C844 1.366 . S
C845 C846 1.414 1_554 S
C845 C848 1.499 1_554 S
C846 H826 0.950 . S
C846 C845 1.414 1_556 S
C846 C847 1.374 1_556 S
C847 H827 0.950 . S
C847 C843 1.385 . S
C847 C846 1.374 1_554 S
C848 C845 1.499 1_556 S
C848 C849 1.373 . S
C848 C850 1.389 . S
C849 H828 0.950 1_655 S
C849 C848 1.373 . S
C849 C865 1.377 1_655 S
C850 C848 1.389 . S
C850 C851 1.524 1_556 S
C850 C864 1.377 . S
C851 C850 1.524 1_554 S
C851 C852 1.397 . S
C851 C856 1.363 . S
C852 H829 0.950 1_554 S
C852 C851 1.397 . S
C852 C853 1.334 . S
C853 H830 0.950 . S
C853 C852 1.334 . S
C853 C854 1.287 . S
C854 C853 1.287 . S
C854 C855 1.524 . S
C854 H873 0.913 . S
C855 H831 0.950 . S
C855 C854 1.524 . S
C855 C856 1.415 . S
C856 H832 0.950 . S
C856 C851 1.363 . S
C856 C855 1.415 . S
C857 H833 0.951 . S
C857 C858 1.366 . S
C857 C859 1.388 . S
C858 C857 1.366 . S
C858 C862 1.385 . S
C859 H834 0.951 . S
C859 C857 1.388 . S
C859 C860 1.366 1_455 S
C860 C859 1.366 1_655 S
C860 C861 1.414 . S
C860 C863 1.499 . S
C861 H835 0.950 . S
C861 C860 1.414 . S
C861 C862 1.374 1_655 S
C862 H836 0.950 . S
C862 C858 1.385 . S
C862 C861 1.374 1_455 S
C863 C860 1.499 . S
C863 C864 1.373 . S
C863 C865 1.389 1_655 S
C864 H837 0.950 . S
C864 C850 1.377 . S
C864 C863 1.373 . S
C865 C849 1.377 1_455 S
C865 C863 1.389 1_455 S
C865 C866 1.524 . S
C866 C865 1.524 . S
C866 C867 1.397 . S
C866 C871 1.363 . S
C867 H838 0.950 . S
C867 C866 1.397 . S
C867 C868 1.334 . S
C868 H839 0.950 . S
C868 C867 1.334 . S
C868 C869 1.287 . S
C869 C868 1.287 . S
C869 C870 1.524 . S
C869 H872 0.999 . S
C870 H840 0.950 . S
C870 C869 1.524 . S
C870 C871 1.415 . S
C871 H841 0.950 . S
C871 C866 1.363 . S
C871 C870 1.415 . S
H872 C869 0.999 . S
H873 C854 0.913 . S
H874 C892 0.951 . S
H875 C894 0.944 1_565 S
H876 C896 0.950 . S
H877 C897 0.950 . S
H878 C899 0.950 1_554 S
H879 C902 0.950 . S
H880 C903 0.950 . S
H881 C905 0.950 . S
H882 C906 0.950 . S
H883 C907 0.951 . S
H884 C909 0.951 . S
H885 C911 0.950 . S
H886 C912 0.950 . S
H887 C914 0.950 . S
H888 C917 0.950 . S
H889 C918 0.950 . S
H890 C920 0.950 . S
H891 C921 0.950 . S
C892 H874 0.951 . S
C892 C893 1.366 1_556 S
C892 C894 1.388 1_565 S
C893 C892 1.366 1_554 S
C893 C897 1.385 1_565 S
C894 H875 0.944 1_545 S
C894 C892 1.388 1_545 S
C894 C895 1.366 . S
C895 C894 1.366 . S
C895 C896 1.414 1_556 S
C895 C898 1.499 . S
C896 H876 0.950 . S
C896 C895 1.414 1_554 S
C896 C897 1.374 . S
C897 H877 0.950 . S
C897 C893 1.385 1_545 S
C897 C896 1.374 . S
C898 C895 1.499 . S
C898 C899 1.373 1_545 S
C898 C900 1.389 . S
C899 H878 0.950 1_556 S
C899 C898 1.373 1_565 S
C899 C915 1.377 . S
C900 C898 1.389 . S
C900 C901 1.524 . S
C900 C914 1.377 . S
C901 C900 1.524 . S
C901 C902 1.397 . S
C901 C906 1.363 . S
C902 H879 0.950 . S
C902 C901 1.397 . S
C902 C903 1.334 . S
C903 H880 0.950 . S
C903 C902 1.334 . S
C903 C904 1.287 . S
C904 C903 1.287 . S
C904 C905 1.524 . S
C904 H923 0.913 . S
C905 H881 0.950 . S
C905 C904 1.524 . S
C905 C906 1.415 . S
C906 H882 0.950 . S
C906 C901 1.363 . S
C906 C905 1.415 . S
C907 H883 0.951 . S
C907 C908 1.366 . S
C907 C909 1.388 . S
C908 C907 1.366 . S
C908 C912 1.385 . S
C909 H884 0.951 . S
C909 C907 1.388 . S
C909 C910 1.366 . S
C910 C909 1.366 . S
C910 C911 1.414 . S
C910 C913 1.499 . S
C911 H885 0.950 . S
C911 C910 1.414 . S
C911 C912 1.374 . S
C912 H886 0.950 . S
C912 C908 1.385 . S
C912 C911 1.374 . S
C913 C910 1.499 . S
C913 C914 1.373 . S
C913 C915 1.389 1_545 S
C914 H887 0.950 . S
C914 C900 1.377 . S
C914 C913 1.373 . S
C915 C899 1.377 . S
C915 C913 1.389 1_565 S
C915 C916 1.524 1_556 S
C916 C915 1.524 1_554 S
C916 C917 1.397 1_554 S
C916 C921 1.363 . S
C917 H888 0.950 . S
C917 C916 1.397 1_556 S
C917 C918 1.334 . S
C918 H889 0.950 . S
C918 C917 1.334 . S
C918 C919 1.287 1_556 S
C919 C918 1.287 1_554 S
C919 C920 1.524 . S
C919 H922 0.999 . S
C920 H890 0.950 . S
C920 C919 1.524 . S
C920 C921 1.415 . S
C921 H891 0.950 . S
C921 C916 1.363 . S
C921 C920 1.415 . S
H922 C919 0.999 . S
H923 C904 0.913 . S
H924 C942 0.951 . S
H925 C944 0.951 1_556 S
H926 C946 0.950 . S
H927 C947 0.950 . S
H928 C949 0.950 . S
H929 C952 0.950 . S
H930 C953 0.950 . S
H931 C955 0.950 . S
H932 C956 0.950 . S
H933 C957 0.951 . S
H934 C959 0.951 . S
H935 C961 0.950 . S
H936 C962 0.950 . S
H937 C964 0.950 . S
H938 C967 0.950 . S
H939 C968 0.950 . S
H940 C970 0.950 . S
H941 C971 0.950 . S
C942 H924 0.951 . S
C942 C943 1.366 . S
C942 C944 1.388 . S
C943 C942 1.366 . S
C943 C947 1.385 . S
C944 H925 0.951 1_554 S
C944 C942 1.388 . S
C944 C945 1.366 . S
C945 C944 1.366 . S
C945 C946 1.414 . S
C945 C948 1.499 1_554 S
C946 H926 0.950 . S
C946 C945 1.414 . S
C946 C947 1.374 . S
C947 H927 0.950 . S
C947 C943 1.385 . S
C947 C946 1.374 . S
C948 C945 1.499 1_556 S
C948 C949 1.373 1_556 S
C948 C950 1.389 . S
C949 H928 0.950 . S
C949 C948 1.373 1_554 S
C949 C965 1.377 . S
C950 C948 1.389 . S
C950 C951 1.524 . S
C950 C964 1.377 . S
C951 C950 1.524 . S
C951 C952 1.397 . S
C951 C956 1.363 . S
C952 H929 0.950 . S
C952 C951 1.397 . S
C952 C953 1.334 . S
C953 H930 0.950 . S
C953 C952 1.334 . S
C953 C954 1.287 . S
C954 C953 1.287 . S
C954 C955 1.524 . S
C954 H973 0.913 . S
C955 H931 0.950 . S
C955 C954 1.524 . S
C955 C956 1.415 . S
C956 H932 0.950 . S
C956 C951 1.363 . S
C956 C955 1.415 . S
C957 H933 0.951 . S
C957 C958 1.366 . S
C957 C959 1.388 . S
C958 C957 1.366 . S
C958 C962 1.385 . S
C959 H934 0.951 . S
C959 C957 1.388 . S
C959 C960 1.366 . S
C960 C959 1.366 . S
C960 C961 1.414 . S
C960 C963 1.499 . S
C961 H935 0.950 . S
C961 C960 1.414 . S
C961 C962 1.374 . S
C962 H936 0.950 . S
C962 C958 1.385 . S
C962 C961 1.374 . S
C963 C960 1.499 . S
C963 C964 1.373 . S
C963 C965 1.389 1_556 S
C964 H937 0.950 . S
C964 C950 1.377 . S
C964 C963 1.373 . S
C965 C949 1.377 . S
C965 C963 1.389 1_554 S
C965 C966 1.524 . S
C966 C965 1.524 . S
C966 C967 1.397 . S
C966 C971 1.363 . S
C967 H938 0.950 . S
C967 C966 1.397 . S
C967 C968 1.334 . S
C968 H939 0.950 . S
C968 C967 1.334 . S
C968 C969 1.287 . S
C969 C968 1.287 . S
C969 C970 1.524 . S
C969 H972 0.999 . S
C970 H940 0.950 . S
C970 C969 1.524 . S
C970 C971 1.415 . S
C971 H941 0.950 . S
C971 C966 1.363 . S
C971 C970 1.415 . S
H972 C969 0.999 . S
H973 C954 0.913 . S
H974 C992 0.951 . S
H975 C994 0.951 . S
H976 C996 0.950 1_556 S
H977 C997 0.950 . S
H978 C999 0.950 . S
H979 C1002 0.950 . S
H980 C1003 0.950 . S
H981 C1005 0.950 . S
H982 C1006 0.950 . S
H983 C1007 0.951 . S
H984 C1009 0.951 . S
H985 C1011 0.950 1_554 S
H986 C1012 0.950 . S
H987 C1014 0.950 . S
H988 C1017 0.950 . S
H989 C1018 0.950 . S
H990 C1020 0.950 . S
H991 C1021 0.950 . S
C992 H974 0.951 . S
C992 C993 1.366 . S
C992 C994 1.388 . S
C993 C992 1.366 . S
C993 C997 1.385 . S
C994 H975 0.951 . S
C994 C992 1.388 . S
C994 C995 1.366 . S
C995 C994 1.366 . S
C995 C996 1.414 . S
C995 C998 1.499 . S
C996 H976 0.950 1_554 S
C996 C995 1.414 . S
C996 C997 1.374 . S
C997 H977 0.950 . S
C997 C993 1.385 . S
C997 C996 1.374 . S
C998 C995 1.499 . S
C998 C999 1.373 1_554 S
C998 C1000 1.389 . S
C999 H978 0.950 . S
C999 C998 1.373 1_556 S
C999 C1015 1.377 . S
C1000 C998 1.389 . S
C1000 C1001 1.524 . S
C1000 C1014 1.377 . S
C1001 C1000 1.524 . S
C1001 C1002 1.397 . S
C1001 C1006 1.363 . S
C1002 H979 0.950 . S
C1002 C1001 1.397 . S
C1002 C1003 1.334 . S
C1003 H980 0.950 . S
C1003 C1002 1.334 . S
C1003 C1004 1.287 . S
C1004 C1003 1.287 . S
C1004 C1005 1.524 . S
C1004 H1023 0.913 . S
C1005 H981 0.950 . S
C1005 C1004 1.524 . S
C1005 C1006 1.415 . S
C1006 H982 0.950 . S
C1006 C1001 1.363 . S
C1006 C1005 1.415 . S
C1007 H983 0.951 . S
C1007 C1008 1.366 . S
C1007 C1009 1.388 . S
C1008 C1007 1.366 . S
C1008 C1012 1.385 . S
C1009 H984 0.951 . S
C1009 C1007 1.388 . S
C1009 C1010 1.366 . S
C1010 C1009 1.366 . S
C1010 C1011 1.414 . S
C1010 C1013 1.499 . S
C1011 H985 0.950 1_556 S
C1011 C1010 1.414 . S
C1011 C1012 1.374 . S
C1012 H986 0.950 . S
C1012 C1008 1.385 . S
C1012 C1011 1.374 . S
C1013 C1010 1.499 . S
C1013 C1014 1.373 1_556 S
C1013 C1015 1.389 . S
C1014 H987 0.950 . S
C1014 C1000 1.377 . S
C1014 C1013 1.373 1_554 S
C1015 C999 1.377 . S
C1015 C1013 1.389 . S
C1015 C1016 1.524 . S
C1016 C1015 1.524 . S
C1016 C1017 1.397 . S
C1016 C1021 1.363 . S
C1017 H988 0.950 . S
C1017 C1016 1.397 . S
C1017 C1018 1.334 . S
C1018 H989 0.950 . S
C1018 C1017 1.334 . S
C1018 C1019 1.287 . S
C1019 C1018 1.287 . S
C1019 C1020 1.524 . S
C1019 H1022 0.999 . S
C1020 H990 0.950 . S
C1020 C1019 1.524 . S
C1020 C1021 1.415 . S
C1021 H991 0.950 . S
C1021 C1016 1.363 . S
C1021 C1020 1.415 . S
H1022 C1019 0.999 . S
H1023 C1004 0.913 . S
H1024 C1042 0.951 . S
H1025 C1044 0.951 . S
H1026 C1046 0.950 . S
H1027 C1047 0.950 . S
H1028 C1049 0.950 . S
H1029 C1052 0.950 . S
H1030 C1053 0.950 . S
H1031 C1055 0.950 . S
H1032 C1056 0.950 . S
H1033 C1057 0.951 . S
H1034 C1059 0.951 . S
H1035 C1061 0.950 . S
H1036 C1062 0.950 . S
H1037 C1064 0.950 . S
H1038 C1067 0.950 . S
H1039 C1068 0.950 . S
H1040 C1070 0.950 . S
H1041 C1071 0.950 . S
C1042 H1024 0.951 . S
C1042 C1043 1.366 . S
C1042 C1044 1.388 . S
C1043 C1042 1.366 . S
C1043 C1047 1.385 . S
C1044 H1025 0.951 . S
C1044 C1042 1.388 . S
C1044 C1045 1.366 . S
C1045 C1044 1.366 . S
C1045 C1046 1.414 . S
C1045 C1048 1.499 . S
C1046 H1026 0.950 . S
C1046 C1045 1.414 . S
C1046 C1047 1.374 . S
C1047 H1027 0.950 . S
C1047 C1043 1.385 . S
C1047 C1046 1.374 . S
C1048 C1045 1.499 . S
C1048 C1049 1.373 . S
C1048 C1050 1.389 . S
C1049 H1028 0.950 . S
C1049 C1048 1.373 . S
C1049 C1065 1.377 . S
C1050 C1048 1.389 . S
C1050 C1051 1.524 . S
C1050 C1064 1.377 . S
C1051 C1050 1.524 . S
C1051 C1052 1.397 . S
C1051 C1056 1.363 1_455 S
C1052 H1029 0.950 . S
C1052 C1051 1.397 . S
C1052 C1053 1.334 . S
C1053 H1030 0.950 . S
C1053 C1052 1.334 . S
C1053 C1054 1.287 1_455 S
C1054 C1053 1.287 1_655 S
C1054 C1055 1.524 . S
C1054 H1073 0.913 . S
C1055 H1031 0.950 . S
C1055 C1054 1.524 . S
C1055 C1056 1.415 . S
C1056 H1032 0.950 . S
C1056 C1051 1.363 1_655 S
C1056 C1055 1.415 . S
C1057 H1033 0.951 . S
C1057 C1058 1.366 . S
C1057 C1059 1.388 . S
C1058 C1057 1.366 . S
C1058 C1062 1.385 . S
C1059 H1034 0.951 . S
C1059 C1057 1.388 . S
C1059 C1060 1.366 . S
C1060 C1059 1.366 . S
C1060 C1061 1.414 . S
C1060 C1063 1.499 . S
C1061 H1035 0.950 . S
C1061 C1060 1.414 . S
C1061 C1062 1.374 . S
C1062 H1036 0.950 . S
C1062 C1058 1.385 . S
C1062 C1061 1.374 . S
C1063 C1060 1.499 . S
C1063 C1064 1.373 . S
C1063 C1065 1.389 . S
C1064 H1037 0.950 . S
C1064 C1050 1.377 . S
C1064 C1063 1.373 . S
C1065 C1049 1.377 . S
C1065 C1063 1.389 . S
C1065 C1066 1.524 . S
C1066 C1065 1.524 . S
C1066 C1067 1.397 . S
C1066 C1071 1.363 . S
C1067 H1038 0.950 . S
C1067 C1066 1.397 . S
C1067 C1068 1.334 1_554 S
C1068 H1039 0.950 . S
C1068 C1067 1.334 1_556 S
C1068 C1069 1.287 . S
C1069 C1068 1.287 . S
C1069 C1070 1.524 1_556 S
C1069 H1072 0.999 . S
C1070 H1040 0.950 . S
C1070 C1069 1.524 1_554 S
C1070 C1071 1.415 . S
C1071 H1041 0.950 . S
C1071 C1066 1.363 . S
C1071 C1070 1.415 . S
H1072 C1069 0.999 . S
H1073 C1054 0.913 . S
H1074 C1092 0.951 . S
H1075 C1094 0.951 . S
H1076 C1096 0.950 . S
H1077 C1097 0.950 . S
H1078 C1099 0.950 . S
H1079 C1102 0.950 . S
H1080 C1103 0.950 . S
H1081 C1105 0.950 . S
H1082 C1106 0.950 . S
H1083 C1107 0.951 1_556 S
H1084 C1109 0.951 . S
H1085 C1111 0.950 . S
H1086 C1112 0.950 1_565 S
H1087 C1114 0.950 . S
H1088 C1117 0.950 . S
H1089 C1118 0.950 . S
H1090 C1120 0.950 1_556 S
H1091 C1121 0.948 . S
C1092 H1074 0.951 . S
C1092 C1093 1.357 1_565 S
C1092 C1094 1.388 . S
C1093 C1092 1.357 1_545 S
C1093 C1097 1.393 . S
C1094 H1075 0.951 . S
C1094 C1092 1.388 . S
C1094 C1095 1.366 1_565 S
C1095 C1094 1.366 1_545 S
C1095 C1096 1.414 . S
C1095 C1098 1.499 . S
C1096 H1076 0.950 . S
C1096 C1095 1.414 . S
C1096 C1097 1.374 . S
C1097 H1077 0.950 . S
C1097 C1093 1.393 . S
C1097 C1096 1.374 . S
C1098 C1095 1.499 . S
C1098 C1099 1.373 1_545 S
C1098 C1100 1.389 . S
C1099 H1078 0.950 . S
C1099 C1098 1.373 1_565 S
C1099 C1115 1.377 . S
C1100 C1098 1.389 . S
C1100 C1101 1.524 . S
C1100 C1114 1.377 . S
C1101 C1100 1.524 . S
C1101 C1102 1.397 . S
C1101 C1106 1.363 . S
C1102 H1079 0.950 . S
C1102 C1101 1.397 . S
C1102 C1103 1.334 . S
C1103 H1080 0.950 . S
C1103 C1102 1.334 . S
C1103 C1104 1.287 . S
C1104 C1103 1.287 . S
C1104 C1105 1.524 . S
C1104 H1123 0.913 . S
C1105 H1081 0.950 . S
C1105 C1104 1.524 . S
C1105 C1106 1.415 . S
C1106 H1082 0.950 . S
C1106 C1101 1.363 . S
C1106 C1105 1.415 . S
C1107 H1083 0.951 1_554 S
C1107 C1108 1.366 . S
C1107 C1109 1.388 . S
C1108 C1107 1.366 . S
C1108 C1112 1.385 . S
C1109 H1084 0.951 . S
C1109 C1107 1.388 . S
C1109 C1110 1.366 . S
C1110 C1109 1.366 . S
C1110 C1111 1.414 1_545 S
C1110 C1113 1.499 . S
C1111 H1085 0.950 . S
C1111 C1110 1.414 1_565 S
C1111 C1112 1.374 1_565 S
C1112 H1086 0.950 1_545 S
C1112 C1108 1.385 . S
C1112 C1111 1.374 1_545 S
C1113 C1110 1.499 . S
C1113 C1114 1.373 . S
C1113 C1115 1.389 1_545 S
C1114 H1087 0.950 . S
C1114 C1100 1.377 . S
C1114 C1113 1.373 . S
C1115 C1099 1.377 . S
C1115 C1113 1.389 1_565 S
C1115 C1116 1.524 . S
C1116 C1115 1.524 . S
C1116 C1117 1.397 . S
C1116 C1121 1.363 . S
C1117 H1088 0.950 . S
C1117 C1116 1.397 . S
C1117 C1118 1.334 . S
C1118 H1089 0.950 . S
C1118 C1117 1.334 . S
C1118 C1119 1.287 . S
C1119 C1118 1.287 . S
C1119 C1120 1.524 . S
C1119 H1122 0.999 1_554 S
C1120 H1090 0.950 1_554 S
C1120 C1119 1.524 . S
C1120 C1121 1.415 . S
C1121 H1091 0.948 . S
C1121 C1116 1.363 . S
C1121 C1120 1.415 . S
H1122 C1119 0.999 1_556 S
H1123 C1104 0.913 . S
H1124 C1142 0.951 . S
H1125 C1144 0.951 . S
H1126 C1146 0.950 . S
H1127 C1147 0.950 . S
H1128 C1149 0.950 . S
H1129 C1152 0.950 . S
H1130 C1153 0.950 . S
H1131 C1155 0.950 . S
H1132 C1156 0.950 . S
H1133 C1157 0.951 . S
H1134 C1159 0.951 . S
H1135 C1161 0.950 . S
H1136 C1162 0.950 . S
H1137 C1164 0.950 . S
H1138 C1167 0.950 . S
H1139 C1168 0.950 . S
H1140 C1170 0.950 . S
H1141 C1171 0.950 . S
C1142 H1124 0.951 . S
C1142 C1143 1.366 . S
C1142 C1144 1.388 . S
C1143 C1142 1.366 . S
C1143 C1147 1.385 . S
C1144 H1125 0.951 . S
C1144 C1142 1.388 . S
C1144 C1145 1.366 . S
C1145 C1144 1.366 . S
C1145 C1146 1.414 . S
C1145 C1148 1.499 . S
C1146 H1126 0.950 . S
C1146 C1145 1.414 . S
C1146 C1147 1.374 . S
C1147 H1127 0.950 . S
C1147 C1143 1.385 . S
C1147 C1146 1.374 . S
C1148 C1145 1.499 . S
C1148 C1149 1.373 . S
C1148 C1150 1.389 . S
C1149 H1128 0.950 . S
C1149 C1148 1.373 . S
C1149 C1165 1.377 . S
C1150 C1148 1.389 . S
C1150 C1151 1.524 . S
C1150 C1164 1.377 . S
C1151 C1150 1.524 . S
C1151 C1152 1.397 . S
C1151 C1156 1.363 . S
C1152 H1129 0.950 . S
C1152 C1151 1.397 . S
C1152 C1153 1.334 . S
C1153 H1130 0.950 . S
C1153 C1152 1.334 . S
C1153 C1154 1.287 . S
C1154 C1153 1.287 . S
C1154 C1155 1.524 . S
C1154 H1173 0.913 . S
C1155 H1131 0.950 . S
C1155 C1154 1.524 . S
C1155 C1156 1.415 . S
C1156 H1132 0.950 . S
C1156 C1151 1.363 . S
C1156 C1155 1.415 . S
C1157 H1133 0.951 . S
C1157 C1158 1.366 . S
C1157 C1159 1.388 1_556 S
C1158 C1157 1.366 . S
C1158 C1162 1.385 . S
C1159 H1134 0.951 . S
C1159 C1157 1.388 1_554 S
C1159 C1160 1.366 . S
C1160 C1159 1.366 . S
C1160 C1161 1.414 . S
C1160 C1163 1.499 . S
C1161 H1135 0.950 . S
C1161 C1160 1.414 . S
C1161 C1162 1.374 1_554 S
C1162 H1136 0.950 . S
C1162 C1158 1.385 . S
C1162 C1161 1.374 1_556 S
C1163 C1160 1.499 . S
C1163 C1164 1.373 . S
C1163 C1165 1.389 . S
C1164 H1137 0.950 . S
C1164 C1150 1.377 . S
C1164 C1163 1.373 . S
C1165 C1149 1.377 . S
C1165 C1163 1.389 . S
C1165 C1166 1.524 . S
C1166 C1165 1.524 . S
C1166 C1167 1.397 . S
C1166 C1171 1.363 . S
C1167 H1138 0.950 . S
C1167 C1166 1.397 . S
C1167 C1168 1.334 . S
C1168 H1139 0.950 . S
C1168 C1167 1.334 . S
C1168 C1169 1.287 . S
C1169 C1168 1.287 . S
C1169 C1170 1.524 . S
C1169 H1172 0.999 . S
C1170 H1140 0.950 . S
C1170 C1169 1.524 . S
C1170 C1171 1.415 . S
C1171 H1141 0.950 . S
C1171 C1166 1.363 . S
C1171 C1170 1.415 . S
H1172 C1169 0.999 . S
H1173 C1154 0.913 . S
H1174 C1192 0.951 . S
H1175 C1194 0.951 . S
H1176 C1196 0.950 . S
H1177 C1197 0.950 . S
H1178 C1199 0.950 . S
H1179 C1202 0.950 . S
H1180 C1203 0.950 . S
H1181 C1205 0.950 . S
H1182 C1206 0.950 . S
H1183 C1207 0.951 . S
H1184 C1209 0.951 . S
H1185 C1211 0.950 . S
H1186 C1212 0.950 . S
H1187 C1214 0.950 . S
H1188 C1217 0.950 . S
H1189 C1218 0.950 . S
H1190 C1220 0.950 . S
H1191 C1221 0.950 . S
C1192 H1174 0.951 . S
C1192 C1193 1.366 . S
C1192 C1194 1.388 . S
C1193 C1192 1.366 . S
C1193 C1197 1.385 . S
C1194 H1175 0.951 . S
C1194 C1192 1.388 . S
C1194 C1195 1.366 . S
C1195 C1194 1.366 . S
C1195 C1196 1.414 . S
C1195 C1198 1.499 . S
C1196 H1176 0.950 . S
C1196 C1195 1.414 . S
C1196 C1197 1.374 . S
C1197 H1177 0.950 . S
C1197 C1193 1.385 . S
C1197 C1196 1.374 . S
C1198 C1195 1.499 . S
C1198 C1199 1.373 . S
C1198 C1200 1.389 . S
C1199 H1178 0.950 . S
C1199 C1198 1.373 . S
C1199 C1215 1.377 . S
C1200 C1198 1.389 . S
C1200 C1201 1.524 . S
C1200 C1214 1.377 . S
C1201 C1200 1.524 . S
C1201 C1202 1.397 . S
C1201 C1206 1.363 . S
C1202 H1179 0.950 . S
C1202 C1201 1.397 . S
C1202 C1203 1.334 . S
C1203 H1180 0.950 . S
C1203 C1202 1.334 . S
C1203 C1204 1.287 . S
C1204 C1203 1.287 . S
C1204 C1205 1.524 . S
C1204 H1223 0.913 . S
C1205 H1181 0.950 . S
C1205 C1204 1.524 . S
C1205 C1206 1.415 . S
C1206 H1182 0.950 . S
C1206 C1201 1.363 . S
C1206 C1205 1.415 . S
C1207 H1183 0.951 . S
C1207 C1208 1.366 . S
C1207 C1209 1.388 . S
C1208 C1207 1.366 . S
C1208 C1212 1.385 . S
C1209 H1184 0.951 . S
C1209 C1207 1.388 . S
C1209 C1210 1.366 1_556 S
C1210 C1209 1.366 1_554 S
C1210 C1211 1.414 . S
C1210 C1213 1.499 . S
C1211 H1185 0.950 . S
C1211 C1210 1.414 . S
C1211 C1212 1.374 1_554 S
C1212 H1186 0.950 . S
C1212 C1208 1.385 . S
C1212 C1211 1.374 1_556 S
C1213 C1210 1.499 . S
C1213 C1214 1.373 . S
C1213 C1215 1.389 . S
C1214 H1187 0.950 . S
C1214 C1200 1.377 . S
C1214 C1213 1.373 . S
C1215 C1199 1.377 . S
C1215 C1213 1.389 . S
C1215 C1216 1.524 . S
C1216 C1215 1.524 . S
C1216 C1217 1.397 . S
C1216 C1221 1.363 . S
C1217 H1188 0.950 . S
C1217 C1216 1.397 . S
C1217 C1218 1.334 . S
C1218 H1189 0.950 . S
C1218 C1217 1.334 . S
C1218 C1219 1.287 . S
C1219 C1218 1.287 . S
C1219 C1220 1.524 . S
C1219 H1222 0.999 . S
C1220 H1190 0.950 . S
C1220 C1219 1.524 . S
C1220 C1221 1.415 . S
C1221 H1191 0.950 . S
C1221 C1216 1.363 . S
C1221 C1220 1.415 . S
H1222 C1219 0.999 . S
H1223 C1204 0.913 . S
H1224 C1242 0.951 . S
H1225 C1244 0.951 . S
H1226 C1246 0.950 . S
H1227 C1247 0.950 . S
H1228 C1249 0.968 . S
H1229 C1252 0.950 . S
H1230 C1253 0.950 . S
H1231 C1255 0.950 . S
H1232 C1256 0.950 . S
H1233 C1257 0.951 1_455 S
H1234 C1259 0.947 . S
H1235 C1261 0.950 . S
H1236 C1262 0.950 . S
H1237 C1264 0.950 . S
H1238 C1267 0.950 . S
H1239 C1268 0.950 . S
H1240 C1270 0.950 . S
H1241 C1271 0.950 . S
C1242 H1224 0.951 . S
C1242 C1243 1.366 . S
C1242 C1244 1.388 . S
C1243 C1242 1.366 . S
C1243 C1247 1.385 . S
C1244 H1225 0.951 . S
C1244 C1242 1.388 . S
C1244 C1245 1.366 . S
C1245 C1244 1.366 . S
C1245 C1246 1.414 . S
C1245 C1248 1.499 . S
C1246 H1226 0.950 . S
C1246 C1245 1.414 . S
C1246 C1247 1.374 . S
C1247 H1227 0.950 . S
C1247 C1243 1.385 . S
C1247 C1246 1.374 . S
C1248 C1245 1.499 . S
C1248 C1249 1.373 . S
C1248 C1250 1.389 . S
C1249 H1228 0.968 . S
C1249 C1248 1.373 . S
C1249 C1265 1.377 . S
C1250 C1248 1.389 . S
C1250 C1251 1.524 . S
C1250 C1264 1.377 . S
C1251 C1250 1.524 . S
C1251 C1252 1.397 . S
C1251 C1256 1.363 . S
C1252 H1229 0.950 . S
C1252 C1251 1.397 . S
C1252 C1253 1.334 . S
C1253 H1230 0.950 . S
C1253 C1252 1.334 . S
C1253 C1254 1.287 . S
C1254 C1253 1.287 . S
C1254 C1255 1.524 . S
C1254 H1273 0.913 . S
C1255 H1231 0.950 . S
C1255 C1254 1.524 . S
C1255 C1256 1.415 . S
C1256 H1232 0.950 . S
C1256 C1251 1.363 . S
C1256 C1255 1.415 . S
C1257 H1233 0.951 1_655 S
C1257 C1258 1.366 . S
C1257 C1259 1.388 . S
C1258 C1257 1.366 . S
C1258 C1262 1.385 . S
C1259 H1234 0.947 . S
C1259 C1257 1.388 . S
C1259 C1260 1.366 . S
C1260 C1259 1.366 . S
C1260 C1261 1.414 . S
C1260 C1263 1.499 . S
C1261 H1235 0.950 . S
C1261 C1260 1.414 . S
C1261 C1262 1.374 . S
C1262 H1236 0.950 . S
C1262 C1258 1.385 . S
C1262 C1261 1.374 . S
C1263 C1260 1.499 . S
C1263 C1264 1.373 . S
C1263 C1265 1.389 . S
C1264 H1237 0.950 . S
C1264 C1250 1.377 . S
C1264 C1263 1.373 . S
C1265 C1249 1.377 . S
C1265 C1263 1.389 . S
C1265 C1266 1.524 1_655 S
C1266 C1265 1.524 1_455 S
C1266 C1267 1.397 . S
C1266 C1271 1.363 . S
C1267 H1238 0.950 . S
C1267 C1266 1.397 . S
C1267 C1268 1.334 . S
C1268 H1239 0.950 . S
C1268 C1267 1.334 . S
C1268 C1269 1.287 . S
C1269 C1268 1.287 . S
C1269 C1270 1.524 . S
C1269 H1272 0.999 . S
C1270 H1240 0.950 . S
C1270 C1269 1.524 . S
C1270 C1271 1.415 . S
C1271 H1241 0.950 . S
C1271 C1266 1.363 . S
C1271 C1270 1.415 . S
H1272 C1269 0.999 . S
H1273 C1254 0.913 . S
H1274 C1292 0.951 . S
H1275 C1294 0.951 . S
H1276 C1296 0.950 . S
H1277 C1297 0.950 . S
H1278 C1299 0.950 . S
H1279 C1302 0.950 . S
H1280 C1303 0.950 . S
H1281 C1305 0.950 . S
H1282 C1306 0.950 . S
H1283 C1307 0.951 . S
H1284 C1309 0.951 . S
H1285 C1311 0.950 . S
H1286 C1312 0.950 . S
H1287 C1314 0.950 . S
H1288 C1317 0.950 . S
H1289 C1318 0.950 . S
H1290 C1320 0.950 . S
H1291 C1321 0.950 . S
C1292 H1274 0.951 . S
C1292 C1293 1.351 1_545 S
C1292 C1294 1.388 . S
C1293 C1292 1.351 1_565 S
C1293 C1297 1.399 . S
C1294 H1275 0.951 . S
C1294 C1292 1.388 . S
C1294 C1295 1.366 1_545 S
C1295 C1294 1.366 1_565 S
C1295 C1296 1.414 . S
C1295 C1298 1.499 . S
C1296 H1276 0.950 . S
C1296 C1295 1.414 . S
C1296 C1297 1.374 . S
C1297 H1277 0.950 . S
C1297 C1293 1.399 . S
C1297 C1296 1.374 . S
C1298 C1295 1.499 . S
C1298 C1299 1.373 . S
C1298 C1300 1.389 . S
C1299 H1278 0.950 . S
C1299 C1298 1.373 . S
C1299 C1315 1.377 . S
C1300 C1298 1.389 . S
C1300 C1301 1.524 . S
C1300 C1314 1.377 . S
C1301 C1300 1.524 . S
C1301 C1302 1.397 . S
C1301 C1306 1.363 1_565 S
C1302 H1279 0.950 . S
C1302 C1301 1.397 . S
C1302 C1303 1.334 . S
C1303 H1280 0.950 . S
C1303 C1302 1.334 . S
C1303 C1304 1.287 . S
C1304 C1303 1.287 . S
C1304 C1305 1.524 1_565 S
C1304 H1323 0.913 . S
C1305 H1281 0.950 . S
C1305 C1304 1.524 1_545 S
C1305 C1306 1.415 . S
C1306 H1282 0.950 . S
C1306 C1301 1.363 1_545 S
C1306 C1305 1.415 . S
C1307 H1283 0.951 . S
C1307 C1308 1.366 . S
C1307 C1309 1.388 . S
C1308 C1307 1.366 . S
C1308 C1312 1.385 1_565 S
C1309 H1284 0.951 . S
C1309 C1307 1.388 . S
C1309 C1310 1.366 . S
C1310 C1309 1.366 . S
C1310 C1311 1.414 1_565 S
C1310 C1313 1.499 . S
C1311 H1285 0.950 . S
C1311 C1310 1.414 1_545 S
C1311 C1312 1.374 . S
C1312 H1286 0.950 . S
C1312 C1308 1.385 1_545 S
C1312 C1311 1.374 . S
C1313 C1310 1.499 . S
C1313 C1314 1.373 . S
C1313 C1315 1.389 . S
C1314 H1287 0.950 . S
C1314 C1300 1.377 . S
C1314 C1313 1.373 . S
C1315 C1299 1.377 . S
C1315 C1313 1.389 . S
C1315 C1316 1.524 . S
C1316 C1315 1.524 . S
C1316 C1317 1.397 1_565 S
C1316 C1321 1.363 . S
C1317 H1288 0.950 . S
C1317 C1316 1.397 1_545 S
C1317 C1318 1.334 . S
C1318 H1289 0.950 . S
C1318 C1317 1.334 . S
C1318 C1319 1.287 . S
C1319 C1318 1.287 . S
C1319 C1320 1.524 1_545 S
C1319 H1322 0.999 . S
C1320 H1290 0.950 . S
C1320 C1319 1.524 1_565 S
C1320 C1321 1.415 . S
C1321 H1291 0.950 . S
C1321 C1316 1.363 . S
C1321 C1320 1.415 . S
H1322 C1319 0.999 . S
H1323 C1304 0.913 . S
H1324 C1342 0.951 . S
H1325 C1344 0.951 . S
H1326 C1346 0.950 . S
H1327 C1347 0.950 . S
H1328 C1349 0.950 . S
H1329 C1352 0.950 . S
H1330 C1353 0.950 . S
H1331 C1355 0.950 . S
H1332 C1356 0.950 . S
H1333 C1357 0.951 . S
H1334 C1359 0.951 . S
H1335 C1361 0.950 . S
H1336 C1362 0.950 . S
H1337 C1364 0.950 . S
H1338 C1367 0.950 . S
H1339 C1368 0.950 . S
H1340 C1370 0.950 . S
H1341 C1371 0.950 . S
C1342 H1324 0.951 . S
C1342 C1343 1.366 . S
C1342 C1344 1.388 . S
C1343 C1342 1.366 . S
C1343 C1347 1.385 . S
C1344 H1325 0.951 . S
C1344 C1342 1.388 . S
C1344 C1345 1.366 . S
C1345 C1344 1.366 . S
C1345 C1346 1.414 . S
C1345 C1348 1.499 . S
C1346 H1326 0.950 . S
C1346 C1345 1.414 . S
C1346 C1347 1.374 . S
C1347 H1327 0.950 . S
C1347 C1343 1.385 . S
C1347 C1346 1.374 . S
C1348 C1345 1.499 . S
C1348 C1349 1.373 . S
C1348 C1350 1.389 . S
C1349 H1328 0.950 . S
C1349 C1348 1.373 . S
C1349 C1365 1.377 . S
C1350 C1348 1.389 . S
C1350 C1351 1.524 . S
C1350 C1364 1.377 . S
C1351 C1350 1.524 . S
C1351 C1352 1.397 . S
C1351 C1356 1.363 . S
C1352 H1329 0.950 . S
C1352 C1351 1.397 . S
C1352 C1353 1.334 . S
C1353 H1330 0.950 . S
C1353 C1352 1.334 . S
C1353 C1354 1.287 . S
C1354 C1353 1.287 . S
C1354 C1355 1.524 . S
C1354 H1373 0.913 . S
C1355 H1331 0.950 . S
C1355 C1354 1.524 . S
C1355 C1356 1.415 . S
C1356 H1332 0.950 . S
C1356 C1351 1.363 . S
C1356 C1355 1.415 . S
C1357 H1333 0.951 . S
C1357 C1358 1.366 . S
C1357 C1359 1.388 . S
C1358 C1357 1.366 . S
C1358 C1362 1.385 . S
C1359 H1334 0.951 . S
C1359 C1357 1.388 . S
C1359 C1360 1.366 . S
C1360 C1359 1.366 . S
C1360 C1361 1.414 . S
C1360 C1363 1.499 . S
C1361 H1335 0.950 . S
C1361 C1360 1.414 . S
C1361 C1362 1.374 . S
C1362 H1336 0.950 . S
C1362 C1358 1.385 . S
C1362 C1361 1.374 . S
C1363 C1360 1.499 . S
C1363 C1364 1.373 . S
C1363 C1365 1.389 . S
C1364 H1337 0.950 . S
C1364 C1350 1.377 . S
C1364 C1363 1.373 . S
C1365 C1349 1.377 . S
C1365 C1363 1.389 . S
C1365 C1366 1.524 . S
C1366 C1365 1.524 . S
C1366 C1367 1.397 . S
C1366 C1371 1.363 . S
C1367 H1338 0.950 . S
C1367 C1366 1.397 . S
C1367 C1368 1.334 . S
C1368 H1339 0.950 . S
C1368 C1367 1.334 . S
C1368 C1369 1.287 . S
C1369 C1368 1.287 . S
C1369 C1370 1.524 . S
C1369 H1372 0.999 . S
C1370 H1340 0.950 . S
C1370 C1369 1.524 . S
C1370 C1371 1.415 . S
C1371 H1341 0.950 . S
C1371 C1366 1.363 . S
C1371 C1370 1.415 . S
H1372 C1369 0.999 . S
H1373 C1354 0.913 . S
H1374 C1392 0.951 . S
H1375 C1394 0.951 . S
H1376 C1396 0.950 . S
H1377 C1397 0.950 . S
H1378 C1399 0.950 . S
H1379 C1402 0.950 . S
H1380 C1403 0.950 . S
H1381 C1405 0.950 . S
H1382 C1406 0.950 . S
H1383 C1407 0.951 . S
H1384 C1409 0.951 . S
H1385 C1411 0.950 . S
H1386 C1412 0.950 . S
H1387 C1414 0.950 . S
H1388 C1417 0.950 . S
H1389 C1418 0.950 . S
H1390 C1420 0.950 . S
H1391 C1421 0.950 . S
C1392 H1374 0.951 . S
C1392 C1393 1.366 . S
C1392 C1394 1.388 . S
C1393 C1392 1.366 . S
C1393 C1397 1.385 . S
C1394 H1375 0.951 . S
C1394 C1392 1.388 . S
C1394 C1395 1.366 . S
C1395 C1394 1.366 . S
C1395 C1396 1.414 . S
C1395 C1398 1.499 . S
C1396 H1376 0.950 . S
C1396 C1395 1.414 . S
C1396 C1397 1.374 . S
C1397 H1377 0.950 . S
C1397 C1393 1.385 . S
C1397 C1396 1.374 . S
C1398 C1395 1.499 . S
C1398 C1399 1.373 . S
C1398 C1400 1.389 . S
C1399 H1378 0.950 . S
C1399 C1398 1.373 . S
C1399 C1415 1.377 . S
C1400 C1398 1.389 . S
C1400 C1401 1.524 . S
C1400 C1414 1.377 . S
C1401 C1400 1.524 . S
C1401 C1402 1.397 . S
C1401 C1406 1.363 . S
C1402 H1379 0.950 . S
C1402 C1401 1.397 . S
C1402 C1403 1.334 . S
C1403 H1380 0.950 . S
C1403 C1402 1.334 . S
C1403 C1404 1.287 . S
C1404 C1403 1.287 . S
C1404 C1405 1.524 . S
C1404 H1423 0.913 . S
C1405 H1381 0.950 . S
C1405 C1404 1.524 . S
C1405 C1406 1.415 . S
C1406 H1382 0.950 . S
C1406 C1401 1.363 . S
C1406 C1405 1.415 . S
C1407 H1383 0.951 . S
C1407 C1408 1.366 . S
C1407 C1409 1.388 . S
C1408 C1407 1.366 . S
C1408 C1412 1.385 . S
C1409 H1384 0.951 . S
C1409 C1407 1.388 . S
C1409 C1410 1.366 . S
C1410 C1409 1.366 . S
C1410 C1411 1.414 . S
C1410 C1413 1.499 . S
C1411 H1385 0.950 . S
C1411 C1410 1.414 . S
C1411 C1412 1.374 . S
C1412 H1386 0.950 . S
C1412 C1408 1.385 . S
C1412 C1411 1.374 . S
C1413 C1410 1.499 . S
C1413 C1414 1.373 . S
C1413 C1415 1.389 . S
C1414 H1387 0.950 . S
C1414 C1400 1.377 . S
C1414 C1413 1.373 . S
C1415 C1399 1.377 . S
C1415 C1413 1.389 . S
C1415 C1416 1.524 . S
C1416 C1415 1.524 . S
C1416 C1417 1.397 . S
C1416 C1421 1.363 . S
C1417 H1388 0.950 . S
C1417 C1416 1.397 . S
C1417 C1418 1.334 . S
C1418 H1389 0.950 . S
C1418 C1417 1.334 . S
C1418 C1419 1.287 . S
C1419 C1418 1.287 . S
C1419 C1420 1.524 . S
C1419 H1422 0.999 . S
C1420 H1390 0.950 . S
C1420 C1419 1.524 . S
C1420 C1421 1.415 . S
C1421 H1391 0.950 . S
C1421 C1416 1.363 . S
C1421 C1420 1.415 . S
H1422 C1419 0.999 . S
H1423 C1404 0.913 . S
C243 N80 1.663 . S
C258 C114 1.667 . S
C308 C144 1.820 . S
C293 N93 1.803 . S
C358 N178 1.370 . S
C343 N54 1.409 . S
C408 N208 1.350 . S
C393 N67 1.377 . S
C458 C105 1.667 . S
C443 N28 1.667 1_545 S
C493 N41 1.816 . S
C508 C135 1.826 . S
C543 N2 1.411 . S
C558 N170 1.371 . S
C593 N15 1.386 . S
C608 N200 1.350 1_655 S
C658 C120 0.223 . S
C643 N70 0.242 . S
C708 C150 0.458 . S
C693 N83 0.447 1_545 S
C758 C191 0.726 . S
C743 N96 0.726 . S
C793 N57 0.312 . S
C808 C221 0.330 . S
C843 N18 0.220 . S
C858 C131 0.222 . S
C908 C161 0.459 . S
C893 N31 0.447 . S
C958 C180 0.725 . S
C943 N44 0.725 . S
C993 N5 0.305 . S
C1008 C210 0.329 . S
C1043 N66 1.490 . S
C1058 N110 1.454 1_554 S
C1093 N79 1.467 1_545 S
C1108 N140 1.426 1_554 S
C1158 C165 1.645 . S
C1143 N92 1.637 . S
C1208 C195 1.594 . S
C1193 N53 1.589 . S
C1243 N14 1.500 . S
C1258 N118 1.465 . S
C1308 N148 1.426 . S
C1293 N27 1.467 . S
C1358 C174 1.644 . S
C1343 N40 1.645 . S
C1393 N1 1.592 . S
C1408 C204 1.595 . S
