# Generated by pormake.
# Topology pth, (4,4)-cn, num edge types: 1
# Building blocks:
#     Node 0, Type 0, BuildingBlock: CEKHIL_clean_sbu_0, # of connection points: 4
#     Node 1, Type 0, BuildingBlock: CEKHIL_clean_sbu_0, # of connection points: 4
#     Node 2, Type 0, BuildingBlock: CEKHIL_clean_sbu_0, # of connection points: 4
#     Node 3, Type 1, BuildingBlock: NAHDIM_clean_linker_0, # of connection points: 4
#     Node 4, Type 1, BuildingBlock: NAHDIM_clean_linker_0, # of connection points: 4
#     Node 5, Type 1, BuildingBlock: NAHDIM_clean_linker_0, # of connection points: 4
#     Edge 6, Type (0, 1), BuildingBlock: FUNLAD_clean_linker_1, # of connection points: 2
#     Edge 7, Type (0, 1), BuildingBlock: FUNLAD_clean_linker_1, # of connection points: 2
#     Edge 8, Type (0, 1), BuildingBlock: FUNLAD_clean_linker_1, # of connection points: 2
#     Edge 9, Type (0, 1), BuildingBlock: FUNLAD_clean_linker_1, # of connection points: 2
#     Edge 10, Type (0, 1), BuildingBlock: FUNLAD_clean_linker_1, # of connection points: 2
#     Edge 11, Type (0, 1), BuildingBlock: FUNLAD_clean_linker_1, # of connection points: 2
#     Edge 12, Type (0, 1), BuildingBlock: FUNLAD_clean_linker_1, # of connection points: 2
#     Edge 13, Type (0, 1), BuildingBlock: FUNLAD_clean_linker_1, # of connection points: 2
#     Edge 14, Type (0, 1), BuildingBlock: FUNLAD_clean_linker_1, # of connection points: 2
#     Edge 15, Type (0, 1), BuildingBlock: FUNLAD_clean_linker_1, # of connection points: 2
#     Edge 16, Type (0, 1), BuildingBlock: FUNLAD_clean_linker_1, # of connection points: 2
#     Edge 17, Type (0, 1), BuildingBlock: FUNLAD_clean_linker_1, # of connection points: 2
# Relax obj value: 0.007
# Max RMSD: 0.047
# Mean RMSD: 0.045
data_MOF--net-pth--node1-CEKHIL_clean_sbu_0--node2-NAHDIM_clean_linker_0--edge1-FUNLAD_clean_linker_1
_symmetry_space_group_name_H-M    P1
_symmetry_Int_Tables_number       1
_symmetry_cell_setting            triclinic
loop_
_symmetry_equiv_pos_as_xyz
'x, y, z'
_cell_length_a     32.426039
_cell_length_b     32.496513
_cell_length_c     84.367058
_cell_angle_alpha  90.702724
_cell_angle_beta   90.595065
_cell_angle_gamma 120.3238
loop_
_atom_site_label
_atom_site_type_symbol
_atom_site_fract_x
_atom_site_fract_y
_atom_site_fract_z
_atom_type_partial_charge
Co0 Co 0.04316 0.06679 0.05293 0.0
O1 O 0.01506 0.01652 0.06806 0.0
O2 O 0.07822 0.03317 0.05363 0.0
C3 C 0.04364 0.12323 0.06877 0.0
O4 O 0.08353 0.11676 0.03674 0.0
Co5 Co 0.9887 0.11501 0.04 0.0
O6 O 0.0517 0.16281 0.03165 0.0
C7 C 0.9641 0.01973 0.02771 0.0
C8 C 0.04846 0.0074 0.0645 0.0
C9 C 0.08515 0.15338 0.03039 0.0
O10 O 0.9993 0.02218 0.03569 0.0
O11 O 0.95193 0.05155 0.02858 0.0
O12 O 0.07754 0.11321 0.06991 0.0
O13 O 0.00876 0.09661 0.05906 0.0
Co14 Co 0.03695 0.08908 0.38019 0.0
O15 O 0.01717 0.11711 0.36412 0.0
O16 O 0.07579 0.15785 0.38171 0.0
C17 C 0.03879 0.03379 0.36452 0.0
O18 O 0.06861 0.07227 0.39796 0.0
Co19 Co 0.9691 0.98454 0.38976 0.0
O20 O 0.02436 0.99378 0.40285 0.0
C21 C 0.95092 0.05911 0.40154 0.0
C22 C 0.05049 0.15812 0.36969 0.0
C23 C 0.06157 0.03451 0.40511 0.0
O24 O 0.99008 0.0906 0.39534 0.0
O25 O 0.93405 0.01418 0.39981 0.0
O26 O 0.07443 0.07728 0.36497 0.0
O27 O 0.00116 0.02614 0.37214 0.0
Co28 Co 0.0514 0.05754 0.71848 0.0
O29 O 0.10615 0.07688 0.70534 0.0
O30 O 0.07124 0.01057 0.71918 0.0
C31 C 0.00866 0.07303 0.70089 0.0
O32 O 0.99317 0.02445 0.7326 0.0
Co33 Co 0.02108 0.13007 0.72937 0.0
O34 O 0.96247 0.0723 0.73641 0.0
C35 C 0.10367 0.13137 0.74492 0.0
C36 C 0.10437 0.03762 0.7094 0.0
C37 C 0.96049 0.03237 0.73776 0.0
O38 O 0.09431 0.09296 0.73732 0.0
O39 O 0.08107 0.15368 0.74251 0.0
O40 O 0.00906 0.0333 0.69982 0.0
O41 O 0.03714 0.10349 0.71144 0.0
C42 C 0.04258 0.72477 0.3135 0.0
C43 C 0.04873 0.76373 0.30204 0.0
C44 C 0.03061 0.71815 0.27693 0.0
C45 C 0.07461 0.71975 0.27561 0.0
C46 C 0.08007 0.68998 0.26469 0.0
C47 C 0.04071 0.65769 0.25502 0.0
C48 C 0.99709 0.65763 0.2558 0.0
C49 C 0.99292 0.68842 0.26662 0.0
C50 C 0.12739 0.6917 0.26393 0.0
C51 C 0.9541 0.62334 0.24581 0.0
C52 C 0.98048 0.41593 0.31356 0.0
C53 C 0.98394 0.38163 0.30172 0.0
C54 C 0.02174 0.43534 0.27944 0.0
C55 C 0.98084 0.43595 0.27404 0.0
C56 C 0.98434 0.46862 0.26265 0.0
C57 C 0.02959 0.50157 0.25662 0.0
C58 C 0.0705 0.49983 0.26156 0.0
C59 C 0.06587 0.46632 0.2728 0.0
C60 C 0.93986 0.46896 0.25742 0.0
C61 C 0.11937 0.53462 0.25546 0.0
C62 C 0.0119 0.41087 0.15319 0.0
C63 C 0.97474 0.41753 0.15862 0.0
C64 C 0.98472 0.45906 0.1671 0.0
C65 C 0.03277 0.49451 0.17037 0.0
C66 C 0.07025 0.48816 0.16485 0.0
C67 C 0.05925 0.44645 0.15626 0.0
C68 C 0.94385 0.46503 0.17261 0.0
C69 C 0.12185 0.52527 0.16813 0.0
C70 C 0.17247 0.85333 0.15075 0.0
C71 C 0.14947 0.81714 0.13697 0.0
C72 C 0.0961 0.74199 0.15039 0.0
C73 C 0.04842 0.70895 0.15355 0.0
C74 C 0.03621 0.66921 0.16297 0.0
C75 C 0.07277 0.66251 0.16942 0.0
C76 C 0.12113 0.69572 0.16629 0.0
C77 C 0.13235 0.73507 0.15679 0.0
C78 C 0.98428 0.63432 0.16603 0.0
C79 C 0.16096 0.68946 0.17295 0.0
C80 C 0.04291 0.61961 0.24584 0.0
C81 C 0.03705 0.58034 0.25426 0.0
C82 C 0.03486 0.54103 0.24656 0.0
C83 C 0.03744 0.54006 0.22986 0.0
C84 C 0.03258 0.49994 0.22164 0.0
C85 C 0.03453 0.49917 0.20517 0.0
C86 C 0.04206 0.53876 0.19634 0.0
C87 C 0.04352 0.53812 0.17959 0.0
C88 C 0.05328 0.57882 0.17123 0.0
C89 C 0.06058 0.62014 0.1791 0.0
C90 C 0.05692 0.62072 0.19579 0.0
C91 C 0.06183 0.66088 0.20405 0.0
C92 C 0.05719 0.66066 0.22045 0.0
C93 C 0.04836 0.6206 0.22922 0.0
C94 C 0.04476 0.58027 0.22118 0.0
C95 C 0.04803 0.57996 0.20443 0.0
C96 C 0.94258 0.29956 0.15687 0.0
C97 C 0.96033 0.32995 0.142 0.0
O98 O 0.02245 0.74344 0.28818 0.0
O99 O 0.10521 0.77976 0.14121 0.0
O100 O 0.00394 0.37095 0.14508 0.0
O101 O 0.02057 0.40647 0.29119 0.0
H102 H 0.08715 0.78714 0.2993 0.0
H103 H 0.0564 0.70273 0.30824 0.0
H104 H 0.00422 0.70109 0.31621 0.0
H105 H 0.06286 0.74099 0.32474 0.0
H106 H 0.10457 0.74334 0.28324 0.0
H107 H 0.95931 0.68782 0.26759 0.0
H108 H 0.12426 0.65978 0.26973 0.0
H109 H 0.15653 0.72401 0.27003 0.0
H110 H 0.13728 0.69102 0.25141 0.0
H111 H 0.92238 0.62689 0.24818 0.0
H112 H 0.9448 0.5861 0.24817 0.0
H113 H 0.96261 0.62979 0.23306 0.0
H114 H 0.94936 0.36046 0.29518 0.0
H115 H 0.9522 0.39562 0.3223 0.0
H116 H 0.01509 0.43806 0.32 0.0
H117 H 0.97111 0.44006 0.30732 0.0
H118 H 0.94618 0.41169 0.27879 0.0
H119 H 0.09713 0.46532 0.27691 0.0
H120 H 0.93836 0.47053 0.24429 0.0
H121 H 0.94088 0.50125 0.2624 0.0
H122 H 0.90676 0.43704 0.26142 0.0
H123 H 0.14766 0.52868 0.26053 0.0
H124 H 0.12835 0.57165 0.25843 0.0
H125 H 0.11934 0.53131 0.24235 0.0
H126 H 0.93342 0.33929 0.13793 0.0
H127 H 0.93783 0.39062 0.15636 0.0
H128 H 0.08771 0.44117 0.15201 0.0
H129 H 0.94336 0.46531 0.18577 0.0
H130 H 0.90865 0.43598 0.16808 0.0
H131 H 0.94887 0.49971 0.16866 0.0
H132 H 0.14681 0.51389 0.16375 0.0
H133 H 0.12804 0.53287 0.18108 0.0
H134 H 0.13019 0.55903 0.16232 0.0
H135 H 0.1734 0.80346 0.13349 0.0
H136 H 0.20762 0.88349 0.14721 0.0
H137 H 0.17849 0.83647 0.16119 0.0
H138 H 0.14905 0.86751 0.15433 0.0
H139 H 0.02067 0.71445 0.14858 0.0
H140 H 0.16948 0.76005 0.15449 0.0
H141 H 0.97809 0.63155 0.17899 0.0
H142 H 0.97487 0.59838 0.16145 0.0
H143 H 0.96008 0.64492 0.16033 0.0
H144 H 0.19685 0.71874 0.16961 0.0
H145 H 0.15658 0.65506 0.1686 0.0
H146 H 0.15911 0.68811 0.18609 0.0
H147 H 0.0336 0.58016 0.26705 0.0
H148 H 0.02674 0.46853 0.22785 0.0
H149 H 0.03028 0.46722 0.19945 0.0
H150 H 0.05499 0.57826 0.15839 0.0
H151 H 0.06871 0.69272 0.19789 0.0
H152 H 0.06082 0.69231 0.22622 0.0
H153 H 0.90804 0.26637 0.15427 0.0
H154 H 0.93683 0.31941 0.16656 0.0
H155 H 0.96912 0.28989 0.16108 0.0
C156 C 0.33182 0.93196 0.64803 0.0
C157 C 0.33972 0.97954 0.64191 0.0
C158 C 0.37332 0.99219 0.61573 0.0
C159 C 0.4103 0.03984 0.61614 0.0
C160 C 0.44966 0.05531 0.60619 0.0
C161 C 0.4523 0.0221 0.59582 0.0
C162 C 0.41452 0.97403 0.59527 0.0
C163 C 0.37496 0.95995 0.60503 0.0
C164 C 0.48878 0.10696 0.60696 0.0
C165 C 0.41647 0.93727 0.5847 0.0
C166 C 0.81277 0.1432 0.60789 0.0
C167 C 0.78413 0.11153 0.62164 0.0
C168 C 0.70292 0.06801 0.6099 0.0
C169 C 0.6685 0.02453 0.60304 0.0
C170 C 0.62697 0.01932 0.59578 0.0
C171 C 0.61978 0.05875 0.59541 0.0
C172 C 0.65354 0.10242 0.60283 0.0
C173 C 0.69475 0.10663 0.61004 0.0
C174 C 0.59142 0.97212 0.5881 0.0
C175 C 0.64665 0.145 0.60274 0.0
C176 C 0.71964 0.1327 0.49682 0.0
C177 C 0.68717 0.08464 0.49977 0.0
C178 C 0.6434 0.07107 0.50698 0.0
C179 C 0.63247 0.10653 0.51156 0.0
C180 C 0.66442 0.15483 0.50799 0.0
C181 C 0.7074 0.16719 0.50042 0.0
C182 C 0.60932 0.01899 0.50997 0.0
C183 C 0.6538 0.19352 0.51257 0.0
C184 C 0.28582 0.04069 0.50041 0.0
C185 C 0.31916 0.07281 0.48747 0.0
C186 C 0.3885 0.06347 0.49281 0.0
C187 C 0.40093 0.0282 0.4918 0.0
C188 C 0.43847 0.03106 0.50108 0.0
C189 C 0.46532 0.07123 0.51123 0.0
C190 C 0.45395 0.10794 0.51191 0.0
C191 C 0.41516 0.10335 0.50287 0.0
C192 C 0.44938 0.99113 0.50003 0.0
C193 C 0.48311 0.15233 0.52203 0.0
C194 C 0.49597 0.03702 0.58639 0.0
C195 C 0.53607 0.04113 0.5943 0.0
C196 C 0.5786 0.05524 0.58636 0.0
C197 C 0.58159 0.06555 0.57005 0.0
C198 C 0.6241 0.08031 0.56178 0.0
C199 C 0.62668 0.0899 0.5457 0.0
C200 C 0.58675 0.08474 0.53721 0.0
C201 C 0.5888 0.09333 0.52076 0.0
C202 C 0.5488 0.08888 0.51275 0.0
C203 C 0.50628 0.0755 0.52067 0.0
C204 C 0.50328 0.066 0.53708 0.0
C205 C 0.46094 0.0518 0.54542 0.0
C206 C 0.45859 0.04295 0.56161 0.0
C207 C 0.49814 0.04687 0.57001 0.0
C208 C 0.54114 0.06104 0.56182 0.0
C209 C 0.54373 0.07067 0.54536 0.0
C210 C 0.83921 0.1747 0.50287 0.0
C211 C 0.79401 0.13188 0.49585 0.0
O212 O 0.33565 0.97674 0.62551 0.0
O213 O 0.35118 0.05797 0.48369 0.0
O214 O 0.76303 0.14671 0.49058 0.0
O215 O 0.74351 0.07109 0.61594 0.0
H216 H 0.37594 0.00836 0.64587 0.0
H217 H 0.35849 0.92411 0.64281 0.0
H218 H 0.29542 0.9025 0.64466 0.0
H219 H 0.33624 0.93338 0.66113 0.0
H220 H 0.40819 0.06485 0.62423 0.0
H221 H 0.34587 0.92327 0.60477 0.0
H222 H 0.52099 0.10988 0.61281 0.0
H223 H 0.47807 0.12948 0.61374 0.0
H224 H 0.49877 0.12116 0.59482 0.0
H225 H 0.38655 0.90062 0.58684 0.0
H226 H 0.45079 0.93804 0.58664 0.0
H227 H 0.41472 0.94571 0.5721 0.0
H228 H 0.77427 0.13217 0.62982 0.0
H229 H 0.84616 0.17481 0.61248 0.0
H230 H 0.7918 0.15622 0.60139 0.0
H231 H 0.82222 0.123 0.59939 0.0
H232 H 0.67484 0.99482 0.6031 0.0
H233 H 0.72052 0.1404 0.6155 0.0
H234 H 0.58976 0.97656 0.57513 0.0
H235 H 0.55521 0.95982 0.59277 0.0
H236 H 0.60087 0.94416 0.59018 0.0
H237 H 0.67534 0.17602 0.60949 0.0
H238 H 0.61166 0.13536 0.60793 0.0
H239 H 0.64613 0.15574 0.59033 0.0
H240 H 0.77784 0.10539 0.50544 0.0
H241 H 0.69612 0.05781 0.49645 0.0
H242 H 0.73254 0.20412 0.49784 0.0
H243 H 0.60893 0.0124 0.52286 0.0
H244 H 0.61966 0.99552 0.5036 0.0
H245 H 0.57243 0.00898 0.50621 0.0
H246 H 0.68347 0.22963 0.50967 0.0
H247 H 0.64716 0.19243 0.52549 0.0
H248 H 0.62087 0.18728 0.50625 0.0
H249 H 0.33815 0.11053 0.4917 0.0
H250 H 0.26172 0.05343 0.50451 0.0
H251 H 0.30714 0.04121 0.51088 0.0
H252 H 0.26401 0.0033 0.49591 0.0
H253 H 0.38038 0.99777 0.48391 0.0
H254 H 0.40681 0.13159 0.50345 0.0
H255 H 0.45283 0.97974 0.51209 0.0
H256 H 0.48401 0.004 0.49406 0.0
H257 H 0.42136 0.9597 0.49324 0.0
H258 H 0.47365 0.18015 0.51967 0.0
H259 H 0.52182 0.16743 0.51989 0.0
H260 H 0.47697 0.14313 0.53474 0.0
H261 H 0.53416 0.03326 0.60682 0.0
H262 H 0.65596 0.08462 0.56762 0.0
H263 H 0.66043 0.10126 0.54001 0.0
H264 H 0.55072 0.09571 0.50014 0.0
H265 H 0.42914 0.04752 0.53953 0.0
H266 H 0.42524 0.0326 0.56743 0.0
H267 H 0.86442 0.16349 0.50725 0.0
H268 H 0.82973 0.19027 0.51301 0.0
H269 H 0.85726 0.20263 0.49385 0.0
C270 C 0.63473 0.72916 0.77993 0.0
C271 C 0.67467 0.74731 0.7926 0.0
C272 C 0.64312 0.68016 0.81101 0.0
C273 C 0.60811 0.688 0.8178 0.0
C274 C 0.57623 0.65641 0.82892 0.0
C275 C 0.5792 0.6161 0.83332 0.0
C276 C 0.61457 0.60832 0.82662 0.0
C277 C 0.6462 0.64063 0.81562 0.0
C278 C 0.53916 0.66594 0.83594 0.0
C279 C 0.61861 0.56557 0.83097 0.0
C280 C 0.20492 0.31416 0.81882 0.0
C281 C 0.2585 0.33355 0.82149 0.0
C282 C 0.32348 0.40975 0.8327 0.0
C283 C 0.36164 0.40318 0.82846 0.0
C284 C 0.40879 0.43664 0.8332 0.0
C285 C 0.41793 0.47787 0.842 0.0
C286 C 0.37984 0.48585 0.8454 0.0
C287 C 0.33309 0.45133 0.84088 0.0
C288 C 0.44861 0.42727 0.82924 0.0
C289 C 0.38823 0.53023 0.85421 0.0
C290 C 0.41252 0.40197 0.94383 0.0
C291 C 0.45246 0.40188 0.93749 0.0
C292 C 0.48478 0.43924 0.92799 0.0
C293 C 0.47744 0.47777 0.92489 0.0
C294 C 0.43826 0.47881 0.93167 0.0
C295 C 0.40625 0.44077 0.94102 0.0
C296 C 0.52638 0.43718 0.921 0.0
C297 C 0.42973 0.51967 0.92878 0.0
C298 C 0.80754 0.80707 0.91984 0.0
C299 C 0.76904 0.79667 0.93203 0.0
C300 C 0.70904 0.71204 0.93124 0.0
C301 C 0.70873 0.6695 0.92829 0.0
C302 C 0.6682 0.62949 0.92167 0.0
C303 C 0.62673 0.63204 0.91826 0.0
C304 C 0.62612 0.67435 0.92194 0.0
C305 C 0.66732 0.71394 0.9284 0.0
C306 C 0.66986 0.58477 0.91807 0.0
C307 C 0.58198 0.67776 0.91895 0.0
C308 C 0.54469 0.58144 0.84465 0.0
C309 C 0.50021 0.54583 0.83867 0.0
C310 C 0.4665 0.51131 0.84857 0.0
C311 C 0.47788 0.51117 0.86479 0.0
C312 C 0.44603 0.47517 0.87486 0.0
C313 C 0.4567 0.47621 0.89092 0.0
C314 C 0.49927 0.51373 0.89761 0.0
C315 C 0.50972 0.51592 0.91402 0.0
C316 C 0.55164 0.55456 0.92035 0.0
C317 C 0.58416 0.59082 0.91065 0.0
C318 C 0.57519 0.58828 0.89411 0.0
C319 C 0.60797 0.62314 0.88391 0.0
C320 C 0.59839 0.62071 0.86768 0.0
C321 C 0.55537 0.5837 0.86106 0.0
C322 C 0.52192 0.54817 0.87113 0.0
C323 C 0.53221 0.54999 0.88762 0.0
C324 C 0.35864 0.28936 0.94088 0.0
C325 C 0.37621 0.32235 0.95563 0.0
O326 O 0.67421 0.70916 0.79994 0.0
O327 O 0.74971 0.7502 0.93713 0.0
O328 O 0.379 0.36549 0.95249 0.0
O329 O 0.27689 0.37668 0.82966 0.0
H330 H 0.67012 0.77013 0.80153 0.0
H331 H 0.59926 0.70742 0.78536 0.0
H332 H 0.63938 0.70675 0.77087 0.0
H333 H 0.63506 0.75963 0.77397 0.0
H334 H 0.60513 0.71842 0.81448 0.0
H335 H 0.67327 0.63483 0.81039 0.0
H336 H 0.50292 0.63683 0.83231 0.0
H337 H 0.54338 0.70042 0.83211 0.0
H338 H 0.54152 0.66625 0.84909 0.0
H339 H 0.64699 0.56368 0.82429 0.0
H340 H 0.58398 0.53235 0.82855 0.0
H341 H 0.62672 0.56708 0.84385 0.0
H342 H 0.27549 0.33995 0.80972 0.0
H343 H 0.18959 0.28513 0.80974 0.0
H344 H 0.19909 0.3429 0.81437 0.0
H345 H 0.18529 0.30098 0.83007 0.0
H346 H 0.35485 0.37162 0.82183 0.0
H347 H 0.30352 0.45637 0.84392 0.0
H348 H 0.46756 0.42734 0.84029 0.0
H349 H 0.47501 0.45623 0.82173 0.0
H350 H 0.4354 0.39263 0.82285 0.0
H351 H 0.35667 0.53499 0.85345 0.0
H352 H 0.41964 0.56233 0.84944 0.0
H353 H 0.39586 0.52776 0.86691 0.0
H354 H 0.41179 0.32849 0.95951 0.0
H355 H 0.45852 0.37264 0.93971 0.0
H356 H 0.37564 0.44085 0.94603 0.0
H357 H 0.52456 0.43803 0.90787 0.0
H358 H 0.52702 0.4046 0.92442 0.0
H359 H 0.56042 0.46896 0.92502 0.0
H360 H 0.39955 0.51678 0.93576 0.0
H361 H 0.42173 0.52044 0.916 0.0
H362 H 0.46248 0.55403 0.93189 0.0
H363 H 0.74158 0.80251 0.9262 0.0
H364 H 0.82357 0.84431 0.91571 0.0
H365 H 0.79141 0.78255 0.90941 0.0
H366 H 0.8362 0.80185 0.92501 0.0
H367 H 0.74087 0.66816 0.93082 0.0
H368 H 0.66661 0.74605 0.93141 0.0
H369 H 0.66086 0.57451 0.90536 0.0
H370 H 0.6427 0.55503 0.92515 0.0
H371 H 0.7055 0.5892 0.92078 0.0
H372 H 0.58601 0.71176 0.92361 0.0
H373 H 0.55066 0.64756 0.92456 0.0
H374 H 0.57431 0.67518 0.90601 0.0
H375 H 0.49147 0.5454 0.8262 0.0
H376 H 0.4125 0.44565 0.87043 0.0
H377 H 0.43079 0.44752 0.89807 0.0
H378 H 0.55899 0.55652 0.933 0.0
H379 H 0.64149 0.65267 0.88835 0.0
H380 H 0.62487 0.64857 0.86042 0.0
H381 H 0.35463 0.25421 0.94369 0.0
H382 H 0.38453 0.30488 0.93115 0.0
H383 H 0.32368 0.28381 0.93655 0.0
H384 H 0.07443 0.1811 0.0868 0.0
C385 C 0.04394 0.16066 0.07885 0.0
H386 H 0.97506 0.14614 0.07189 0.0
H387 H 0.94139 0.21218 0.13917 0.0
H388 H 0.88987 0.12648 0.14045 0.0
H389 H 0.89008 0.07352 0.11929 0.0
H390 H 0.94197 0.10599 0.09676 0.0
C391 C 0.00668 0.16784 0.07926 0.0
C392 C 0.00483 0.2004 0.0914 0.0
C393 C 0.97345 0.18085 0.1043 0.0
C394 C 0.9729 0.21139 0.1164 0.0
C395 C 0.94249 0.19078 0.12945 0.0
C396 C 0.9129 0.14157 0.13039 0.0
C397 C 0.91306 0.11176 0.11848 0.0
C398 C 0.94299 0.13092 0.1056 0.0
H399 H 0.93557 0.28354 0.12017 0.0
C400 C 0.96508 0.30135 0.12868 0.0
H401 H 0.03164 0.31073 0.13633 0.0
H402 H 0.06679 0.24957 0.06773 0.0
H403 H 0.11858 0.3354 0.06651 0.0
H404 H 0.11828 0.38832 0.08768 0.0
H405 H 0.06601 0.35572 0.11017 0.0
C406 C 0.00194 0.29355 0.12788 0.0
C407 C 0.00314 0.26148 0.11541 0.0
C408 C 0.03445 0.28104 0.10252 0.0
C409 C 0.03506 0.25049 0.09042 0.0
C410 C 0.06565 0.27106 0.07742 0.0
C411 C 0.09537 0.32029 0.07653 0.0
C412 C 0.09516 0.35009 0.08844 0.0
C413 C 0.06504 0.33092 0.10129 0.0
H414 H 0.94222 0.11506 0.41332 0.0
C415 C 0.92673 0.07667 0.41203 0.0
H416 H 0.87309 0.00929 0.41997 0.0
H417 H 0.90368 0.15776 0.47974 0.0
H418 H 0.98031 0.16287 0.4835 0.0
H419 H 0.00726 0.1229 0.46472 0.0
H420 H 0.95811 0.07838 0.44194 0.0
C421 C 0.88968 0.04779 0.42109 0.0
C422 C 0.87141 0.06787 0.43325 0.0
C423 C 0.89982 0.09209 0.44689 0.0
C424 C 0.88335 0.11327 0.45811 0.0
C425 C 0.91356 0.13943 0.47116 0.0
C426 C 0.95783 0.14291 0.47342 0.0
C427 C 0.97307 0.12056 0.46282 0.0
C428 C 0.94457 0.09537 0.44971 0.0
H429 H 0.80893 0.0776 0.48522 0.0
C430 C 0.80636 0.10888 0.48253 0.0
H431 H 0.81732 0.15993 0.4653 0.0
H432 H 0.80785 0.02306 0.40867 0.0
H433 H 0.72981 0.01559 0.40542 0.0
H434 H 0.70018 0.0502 0.42534 0.0
H435 H 0.74847 0.09271 0.44861 0.0
C436 C 0.81934 0.12851 0.46819 0.0
C437 C 0.83753 0.10826 0.45608 0.0
C438 C 0.80888 0.08351 0.44259 0.0
C439 C 0.82583 0.06324 0.43116 0.0
C440 C 0.79657 0.0389 0.41775 0.0
C441 C 0.75175 0.03438 0.41574 0.0
C442 C 0.73507 0.05389 0.42695 0.0
C443 C 0.76313 0.0782 0.44024 0.0
H444 H 0.89349 0.00362 0.75088 0.0
C445 C 0.91923 0.99476 0.74618 0.0
H446 H 0.93657 0.94039 0.74352 0.0
H447 H 0.79036 0.87413 0.80502 0.0
H448 H 0.85866 0.93776 0.8193 0.0
H449 H 0.9332 0.99098 0.80544 0.0
H450 H 0.93983 0.98103 0.7772 0.0
C451 C 0.91238 0.95092 0.74847 0.0
C452 C 0.86992 0.91516 0.75723 0.0
C453 C 0.86692 0.92092 0.77379 0.0
C454 C 0.82413 0.88991 0.78181 0.0
C455 C 0.82195 0.89679 0.79833 0.0
C456 C 0.86094 0.93308 0.80668 0.0
C457 C 0.90289 0.96306 0.79887 0.0
C458 C 0.90611 0.95715 0.78264 0.0
H459 H 0.74209 0.76008 0.78096 0.0
C460 C 0.72238 0.77714 0.78487 0.0
H461 H 0.71922 0.84033 0.78549 0.0
H462 H 0.86557 0.8921 0.72575 0.0
H463 H 0.79771 0.82795 0.71146 0.0
H464 H 0.72293 0.77493 0.72522 0.0
H465 H 0.71553 0.78551 0.75332 0.0
C466 C 0.73879 0.82315 0.78158 0.0
C467 C 0.78466 0.85274 0.77332 0.0
C468 C 0.78829 0.84588 0.75685 0.0
C469 C 0.83119 0.87689 0.74884 0.0
C470 C 0.83378 0.86963 0.73239 0.0
C471 C 0.79511 0.83298 0.72404 0.0
C472 C 0.75302 0.8031 0.73179 0.0
C473 C 0.74935 0.80942 0.74797 0.0
H474 H 0.02714 0.95204 0.08238 0.0
C475 C 0.05345 0.97141 0.07339 0.0
H476 H 0.11869 0.98554 0.06345 0.0
H477 H 0.18211 0.93601 0.12866 0.0
H478 H 0.23852 0.02056 0.12677 0.0
H479 H 0.23204 0.06707 0.105 0.0
H480 H 0.16895 0.02928 0.08503 0.0
C481 C 0.0909 0.96485 0.07186 0.0
C482 C 0.09877 0.93509 0.08343 0.0
C483 C 0.13682 0.9575 0.09473 0.0
C484 C 0.14091 0.93055 0.10717 0.0
C485 C 0.17789 0.95436 0.11873 0.0
C486 C 0.21042 0.00303 0.11785 0.0
C487 C 0.20674 0.02922 0.1056 0.0
C488 C 0.17034 0.007 0.0942 0.0
H489 H 0.17075 0.85284 0.11354 0.0
C490 C 0.14391 0.84143 0.12266 0.0
H491 H 0.08282 0.84224 0.13065 0.0
H492 H 0.02604 0.88002 0.06241 0.0
H493 H 0.97018 0.79497 0.06404 0.0
H494 H 0.97652 0.74845 0.08585 0.0
H495 H 0.03891 0.78662 0.10612 0.0
C496 C 0.10981 0.85325 0.1216 0.0
C497 C 0.10746 0.88105 0.10811 0.0
C498 C 0.07053 0.85833 0.09648 0.0
C499 C 0.06643 0.88528 0.08403 0.0
C500 C 0.02995 0.86144 0.07234 0.0
C501 C 0.99789 0.8126 0.07308 0.0
C502 C 0.00149 0.7864 0.08535 0.0
C503 C 0.03739 0.80876 0.09692 0.0
H504 H 0.08393 0.00999 0.42586 0.0
C505 C 0.09644 0.03795 0.41714 0.0
H506 H 0.15523 0.1011 0.40888 0.0
H507 H 0.27142 0.16372 0.47367 0.0
H508 H 0.26301 0.23174 0.46753 0.0
H509 H 0.21359 0.22908 0.44469 0.0
H510 H 0.17304 0.15877 0.42769 0.0
C511 C 0.14241 0.07305 0.41756 0.0
C512 C 0.17556 0.07602 0.43054 0.0
C513 C 0.19834 0.11721 0.44055 0.0
C514 C 0.22558 0.11816 0.45404 0.0
C515 C 0.24917 0.16039 0.46353 0.0
C516 C 0.24483 0.19987 0.46011 0.0
C517 C 0.21709 0.19841 0.44723 0.0
C518 C 0.19402 0.15771 0.43754 0.0
H519 H 0.30326 0.0633 0.46131 0.0
C520 C 0.2916 0.07024 0.47256 0.0
H521 H 0.24453 0.08783 0.48368 0.0
H522 H 0.14875 0.99724 0.41149 0.0
H523 H 0.15275 0.92701 0.4183 0.0
H524 H 0.18754 0.92295 0.44398 0.0
H525 H 0.22032 0.98965 0.46259 0.0
C526 C 0.25457 0.07798 0.47265 0.0
C527 C 0.22866 0.07734 0.45784 0.0
C528 C 0.20608 0.03619 0.44773 0.0
C529 C 0.18193 0.03669 0.43363 0.0
C530 C 0.16435 0.99731 0.42289 0.0
C531 C 0.16685 0.95698 0.42658 0.0
C532 C 0.18672 0.95482 0.44098 0.0
C533 C 0.20601 0.99376 0.45149 0.0
H534 H 0.15681 0.12779 0.76066 0.0
C535 C 0.14009 0.14863 0.75782 0.0
H536 H 0.13312 0.20786 0.76438 0.0
H537 H 0.1792 0.19077 0.83644 0.0
H538 H 0.09491 0.13084 0.83646 0.0
H539 H 0.04847 0.10141 0.81139 0.0
H540 H 0.08604 0.13175 0.78614 0.0
C541 C 0.15005 0.18702 0.76685 0.0
C542 C 0.17968 0.19938 0.78158 0.0
C543 C 0.15729 0.18065 0.79619 0.0
C544 C 0.18405 0.19752 0.81063 0.0
C545 C 0.1606 0.17903 0.8251 0.0
C546 C 0.11222 0.14464 0.82529 0.0
C547 C 0.08607 0.12809 0.81118 0.0
C548 C 0.1081 0.14583 0.79676 0.0
H549 H 0.28344 0.31044 0.84271 0.0
C550 C 0.26761 0.29916 0.8309 0.0
H551 H 0.26641 0.23458 0.83348 0.0
H552 H 0.234 0.23906 0.75549 0.0
H553 H 0.31937 0.29611 0.7554 0.0
H554 H 0.36623 0.32374 0.78046 0.0
H555 H 0.32789 0.2949 0.80579 0.0
C556 C 0.25854 0.25602 0.8256 0.0
C557 C 0.2329 0.23357 0.81039 0.0
C558 C 0.25611 0.24945 0.79572 0.0
C559 C 0.22928 0.23279 0.78128 0.0
C560 C 0.25288 0.25045 0.76679 0.0
C561 C 0.3018 0.28306 0.76658 0.0
C562 C 0.32819 0.29865 0.7807 0.0
C563 C 0.30581 0.28204 0.79514 0.0
H564 H 0.9787 0.11696 0.69302 0.0
C565 C 0.97687 0.0829 0.69118 0.0
H566 H 0.9431 0.01708 0.67854 0.0
H567 H 0.76032 0.03292 0.66166 0.0
H568 H 0.72734 0.96738 0.68002 0.0
H569 H 0.77974 0.9453 0.69443 0.0
H570 H 0.86538 0.98837 0.6905 0.0
C571 C 0.94651 0.05189 0.68019 0.0
C572 C 0.91479 0.06342 0.67075 0.0
C573 C 0.86485 0.03787 0.67321 0.0
C574 C 0.83471 0.05096 0.66505 0.0
C575 C 0.7849 0.02474 0.66767 0.0
C576 C 0.76549 0.98702 0.67816 0.0
C577 C 0.79499 0.97456 0.68626 0.0
C578 C 0.8441 0.99958 0.68388 0.0
H579 H 0.83052 0.07905 0.62377 0.0
C580 C 0.81456 0.09615 0.63046 0.0
H581 H 0.80589 0.11881 0.65311 0.0
H582 H 0.00802 0.11519 0.66156 0.0
H583 H 0.04133 0.18189 0.64372 0.0
H584 H 0.98999 0.20838 0.63106 0.0
H585 H 0.90501 0.16781 0.63593 0.0
C586 C 0.82298 0.10346 0.64614 0.0
C587 C 0.85461 0.08956 0.65447 0.0
C588 C 0.90457 0.11492 0.65192 0.0
C589 C 0.93452 0.10109 0.65978 0.0
C590 C 0.98391 0.12542 0.6564 0.0
C591 C 0.00347 0.16358 0.6461 0.0
C592 C 0.97454 0.17837 0.63892 0.0
C593 C 0.92569 0.15452 0.64176 0.0
H594 H 0.94831 0.95187 0.01608 0.0
C595 C 0.93796 0.9789 0.01656 0.0
H596 H 0.89464 0.00327 0.00625 0.0
H597 H 0.88111 0.90015 0.94052 0.0
H598 H 0.94041 0.98155 0.93449 0.0
H599 H 0.97397 0.04395 0.95552 0.0
H600 H 0.94859 0.02517 0.98271 0.0
C601 C 0.90405 0.97557 0.00645 0.0
C602 C 0.88297 0.93767 0.99389 0.0
C603 C 0.89734 0.94949 0.97798 0.0
C604 C 0.87734 0.91371 0.96582 0.0
C605 C 0.89392 0.92614 0.95015 0.0
C606 C 0.92827 0.97272 0.94654 0.0
C607 C 0.9472 0.00783 0.95838 0.0
C608 C 0.9322 0.99655 0.97394 0.0
H609 H 0.78261 0.86062 0.94641 0.0
C610 C 0.78965 0.83127 0.94589 0.0
H611 H 0.82645 0.80011 0.95643 0.0
H612 H 0.8469 0.90339 0.02309 0.0
H613 H 0.78784 0.82177 0.02917 0.0
H614 H 0.75301 0.75968 0.00806 0.0
H615 H 0.77695 0.77884 0.98072 0.0
C616 C 0.81925 0.82933 0.95674 0.0
C617 C 0.84206 0.86639 0.96953 0.0
C618 C 0.82824 0.85442 0.98547 0.0
C619 C 0.84857 0.89016 0.99766 0.0
C620 C 0.83316 0.8775 0.01341 0.0
C621 C 0.79915 0.83082 0.01706 0.0
C622 C 0.77951 0.79587 0.00517 0.0
C623 C 0.79363 0.80733 0.98953 0.0
H624 H 0.07527 0.00703 0.3495 0.0
C625 C 0.04219 0.99647 0.35566 0.0
H626 H 0.97391 0.93905 0.36121 0.0
H627 H 0.0521 0.877 0.29692 0.0
H628 H 0.03565 0.93235 0.2832 0.0
H629 H 0.00703 0.97921 0.29772 0.0
H630 H 0.99547 0.97145 0.32615 0.0
C631 C 0.00673 0.95088 0.35476 0.0
C632 C 0.01351 0.9154 0.3456 0.0
C633 C 0.01779 0.91857 0.32889 0.0
C634 C 0.03235 0.89007 0.32043 0.0
C635 C 0.0394 0.89634 0.30389 0.0
C636 C 0.03035 0.92826 0.29586 0.0
C637 C 0.0144 0.95476 0.30404 0.0
C638 C 0.00818 0.95017 0.32036 0.0
H639 H 0.99472 0.78573 0.30725 0.0
C640 C 0.03116 0.79402 0.3097 0.0
H641 H 0.09398 0.83546 0.32337 0.0
H642 H 0.00422 0.89766 0.37737 0.0
H643 H 0.01625 0.83907 0.391 0.0
H644 H 0.03866 0.78747 0.37624 0.0
H645 H 0.0496 0.79439 0.34778 0.0
C646 C 0.05859 0.82899 0.32017 0.0
C647 C 0.04059 0.857 0.32866 0.0
C648 C 0.03352 0.85188 0.34525 0.0
C649 C 0.01999 0.88116 0.35373 0.0
C650 C 0.01421 0.87608 0.37034 0.0
C651 C 0.02096 0.84258 0.37831 0.0
C652 C 0.03362 0.81356 0.37 0.0
C653 C 0.0399 0.81798 0.35367 0.0
H654 H 0.13878 0.99378 0.70811 0.0
C655 C 0.13789 0.02382 0.70296 0.0
H656 H 0.16533 0.07693 0.68562 0.0
H657 H 0.35973 0.08717 0.67308 0.0
H658 H 0.38582 0.16447 0.68535 0.0
H659 H 0.32783 0.18268 0.69748 0.0
H660 H 0.24335 0.12389 0.69727 0.0
C661 C 0.16586 0.04656 0.69065 0.0
C662 C 0.20061 0.03384 0.68409 0.0
C663 C 0.25008 0.06832 0.68459 0.0
C664 C 0.28366 0.05744 0.67792 0.0
C665 C 0.33269 0.0931 0.67822 0.0
C666 C 0.34821 0.13773 0.6852 0.0
C667 C 0.31555 0.14802 0.692 0.0
C668 C 0.26707 0.11391 0.69174 0.0
H669 H 0.27535 0.98842 0.6408 0.0
C670 C 0.30322 0.99043 0.64862 0.0
H671 H 0.3321 0.00396 0.67184 0.0
H672 H 0.10798 0.96158 0.67897 0.0
H673 H 0.08232 0.88275 0.66816 0.0
H674 H 0.14124 0.86088 0.65944 0.0
H675 H 0.22604 0.91821 0.66104 0.0
C676 C 0.3036 0.0009 0.66412 0.0
C677 C 0.2679 0.01177 0.67099 0.0
C678 C 0.21854 0.97677 0.67088 0.0
C679 C 0.18472 0.98836 0.67692 0.0
C680 C 0.13543 0.954 0.67542 0.0
C681 C 0.12013 0.90865 0.6691 0.0
C682 C 0.15328 0.89642 0.66411 0.0
C683 C 0.20191 0.92988 0.66497 0.0
H684 H 0.12727 0.2167 0.01585 0.0
C685 C 0.12596 0.18496 0.02047 0.0
H686 H 0.15764 0.14186 0.01994 0.0
H687 H 0.24447 0.21758 0.95216 0.0
H688 H 0.17846 0.13894 0.94509 0.0
H689 H 0.11969 0.0893 0.96501 0.0
H690 H 0.12673 0.11792 0.99215 0.0
C691 C 0.15947 0.17456 0.01614 0.0
C692 C 0.19607 0.20421 0.00438 0.0
C693 C 0.19152 0.18688 0.98858 0.0
C694 C 0.22513 0.2157 0.97706 0.0
C695 C 0.21975 0.19742 0.96137 0.0
C696 C 0.18204 0.15228 0.95714 0.0
C697 C 0.14899 0.12432 0.96836 0.0
C698 C 0.15348 0.1412 0.98391 0.0
H699 H 0.35424 0.28392 0.97859 0.0
C700 C 0.34272 0.29856 0.96915 0.0
H701 H 0.28542 0.30368 0.95935 0.0
H702 H 0.21694 0.24668 0.03386 0.0
H703 H 0.28204 0.32603 0.04085 0.0
H704 H 0.33864 0.37721 0.02067 0.0
H705 H 0.3308 0.34923 0.9934 0.0
C706 C 0.29815 0.29147 0.96918 0.0
C707 C 0.26335 0.26171 0.98138 0.0
C708 C 0.26799 0.27902 0.9972 0.0
C709 C 0.23457 0.25002 0.00875 0.0
C710 C 0.24068 0.26766 0.02454 0.0
C711 C 0.27798 0.31305 0.02873 0.0
C712 C 0.30992 0.34183 0.01737 0.0
C713 C 0.30513 0.32524 0.00177 0.0
H714 H 0.08551 0.2367 0.36817 0.0
C715 C 0.05872 0.20301 0.36276 0.0
H716 H 0.00746 0.16902 0.34429 0.0
H717 H 0.00522 0.36897 0.34408 0.0
H718 H 0.97162 0.34777 0.37033 0.0
H719 H 0.96805 0.27959 0.38415 0.0
H720 H 0.99844 0.23258 0.37191 0.0
C721 C 0.03316 0.20257 0.35006 0.0
C722 C 0.03998 0.24689 0.34277 0.0
C723 C 0.02163 0.27365 0.35012 0.0
C724 C 0.0225 0.31216 0.342 0.0
C725 C 0.00448 0.33875 0.34961 0.0
C726 C 0.98526 0.32707 0.36469 0.0
C727 C 0.98335 0.28874 0.37248 0.0
C728 C 0.00111 0.26212 0.36533 0.0
H729 H 0.96203 0.31115 0.31238 0.0
C730 C 0.99252 0.34653 0.31053 0.0
H731 H 0.06607 0.39353 0.31549 0.0
H732 H 0.0819 0.20558 0.32601 0.0
H733 H 0.11614 0.22756 0.29985 0.0
H734 H 0.11651 0.2937 0.28566 0.0
H735 H 0.08268 0.33833 0.29754 0.0
C736 C 0.03512 0.35835 0.31709 0.0
C737 C 0.04065 0.323 0.32646 0.0
C738 C 0.06119 0.29791 0.31946 0.0
C739 C 0.06073 0.25968 0.32761 0.0
C740 C 0.08093 0.23468 0.32026 0.0
C741 C 0.1008 0.24702 0.30528 0.0
C742 C 0.10104 0.28428 0.29729 0.0
C743 C 0.08147 0.30954 0.30423 0.0
loop_
_geom_bond_atom_site_label_1
_geom_bond_atom_site_label_2
_geom_bond_distance
_geom_bond_site_symmetry_2
_ccdc_geom_bond_type
Co0 O1 2.203 1_545 S
Co0 O2 2.091 . S
Co0 O4 2.004 . S
Co0 O10 2.021 . S
Co0 O12 2.137 . S
Co0 O13 2.244 . S
O1 Co0 2.203 1_565 S
O1 C8 1.262 . S
O2 Co0 2.091 . S
O2 C8 1.261 1_545 S
C3 O12 1.247 . S
C3 O13 1.272 . S
O4 Co0 2.004 . S
O4 C9 1.259 . S
Co5 O6 2.061 1_655 S
Co5 O11 2.052 . S
Co5 O13 2.135 1_655 S
O6 Co5 2.061 1_455 S
O6 C9 1.235 . S
C7 O10 1.238 1_655 S
C7 O11 1.241 . S
C8 O1 1.262 . S
C8 O2 1.261 1_565 S
C9 O4 1.259 . S
C9 O6 1.235 . S
O10 Co0 2.021 . S
O10 C7 1.238 1_455 S
O11 Co5 2.052 . S
O11 C7 1.241 . S
O12 Co0 2.137 . S
O12 C3 1.247 . S
O13 Co0 2.244 . S
O13 C3 1.272 . S
O13 Co5 2.135 1_455 S
Co14 O15 2.216 . S
Co14 O16 2.091 . S
Co14 O18 2.004 . S
Co14 O24 2.021 . S
Co14 O26 2.137 . S
Co14 O27 2.244 . S
O15 Co14 2.216 . S
O15 C22 1.247 . S
O16 Co14 2.091 . S
O16 C22 1.261 . S
C17 O26 1.247 . S
C17 O27 1.272 . S
O18 Co14 2.004 . S
O18 C23 1.259 . S
Co19 O20 2.061 1_565 S
Co19 O25 2.052 1_465 S
Co19 O27 2.135 1_565 S
O20 Co19 2.061 1_545 S
O20 C23 1.235 . S
C21 O24 1.238 1_655 S
C21 O25 1.241 . S
C22 O15 1.247 . S
C22 O16 1.261 . S
C23 O18 1.259 . S
C23 O20 1.235 . S
O24 Co14 2.021 . S
O24 C21 1.238 1_455 S
O25 Co19 2.052 1_645 S
O25 C21 1.241 . S
O26 Co14 2.137 . S
O26 C17 1.247 . S
O27 Co14 2.244 . S
O27 C17 1.272 . S
O27 Co19 2.135 1_545 S
Co28 O29 2.216 . S
Co28 O30 2.091 . S
Co28 O32 2.004 1_445 S
Co28 O38 2.021 . S
Co28 O40 2.137 1_455 S
Co28 O41 2.244 1_455 S
O29 Co28 2.216 . S
O29 C36 1.247 . S
O30 Co28 2.091 . S
O30 C36 1.261 . S
C31 O40 1.247 . S
C31 O41 1.272 . S
O32 Co28 2.004 1_665 S
O32 C37 1.259 . S
Co33 O34 2.061 . S
Co33 O39 2.052 1_655 S
Co33 O41 2.135 . S
O34 Co33 2.061 . S
O34 C37 1.235 1_545 S
C35 O38 1.238 . S
C35 O39 1.241 . S
C36 O29 1.247 . S
C36 O30 1.261 . S
C37 O32 1.259 . S
C37 O34 1.235 1_565 S
O38 Co28 2.021 . S
O38 C35 1.238 . S
O39 Co33 2.052 1_455 S
O39 C35 1.241 . S
O40 Co28 2.137 1_655 S
O40 C31 1.247 . S
O41 Co28 2.244 1_655 S
O41 C31 1.272 . S
O41 Co33 2.135 . S
C42 C43 1.560 1_655 S
C42 H103 0.959 . S
C42 H104 0.959 . S
C42 H105 0.960 . S
C43 C42 1.560 1_455 S
C43 O98 1.426 1_455 S
C43 H102 0.980 . S
C44 C45 1.407 . S
C44 C49 1.418 1_455 S
C44 O98 1.334 1_455 S
C45 C44 1.407 . S
C45 C46 1.360 . S
C45 H106 0.929 . S
C46 C45 1.360 . S
C46 C47 1.401 . S
C46 C50 1.527 . S
C47 C46 1.401 . S
C47 C48 1.405 1_455 S
C47 C80 1.587 . S
C48 C47 1.405 1_655 S
C48 C49 1.332 . S
C48 C51 1.496 . S
C49 C44 1.418 1_655 S
C49 C48 1.332 . S
C49 H107 0.929 . S
C50 C46 1.527 . S
C50 H108 0.959 . S
C50 H109 0.961 . S
C50 H110 0.961 . S
C51 C48 1.496 . S
C51 H111 0.960 . S
C51 H112 0.960 . S
C51 H113 0.961 . S
C52 C53 1.517 . S
C52 H115 0.961 . S
C52 H116 0.960 . S
C52 H117 0.959 . S
C53 C52 1.517 . S
C53 O101 1.468 . S
C53 H114 0.980 . S
C54 C55 1.349 . S
C54 C59 1.367 . S
C54 O101 1.408 . S
C55 C54 1.349 . S
C55 C56 1.407 . S
C55 H118 0.930 . S
C56 C55 1.407 . S
C56 C57 1.449 . S
C56 C60 1.535 1_455 S
C57 C56 1.449 . S
C57 C58 1.384 . S
C57 C82 1.553 . S
C58 C57 1.384 . S
C58 C59 1.364 . S
C58 C61 1.450 . S
C59 C54 1.367 . S
C59 C58 1.364 . S
C59 H119 0.931 . S
C60 C56 1.535 1_655 S
C60 H120 0.959 . S
C60 H121 0.961 . S
C60 H122 0.959 . S
C61 C58 1.450 . S
C61 H123 0.960 . S
C61 H124 0.960 . S
C61 H125 0.960 . S
C62 C63 1.309 . S
C62 C67 1.304 . S
C62 O100 1.435 . S
C63 C62 1.309 . S
C63 C64 1.476 . S
C63 H127 0.930 . S
C64 C63 1.476 . S
C64 C65 1.400 . S
C64 C68 1.567 1_455 S
C65 C64 1.400 . S
C65 C66 1.373 . S
C65 C87 1.432 . S
C66 C65 1.373 . S
C66 C67 1.339 . S
C66 C69 1.530 . S
C67 C62 1.304 . S
C67 C66 1.339 . S
C67 H128 0.930 . S
C68 C64 1.567 1_655 S
C68 H129 0.961 . S
C68 H130 0.960 . S
C68 H131 0.958 . S
C69 C66 1.530 . S
C69 H132 0.961 . S
C69 H133 0.960 . S
C69 H134 0.960 . S
C70 C71 1.530 1_655 S
C70 H136 0.961 1_655 S
C70 H137 0.961 . S
C70 H138 0.959 . S
C71 C70 1.530 1_455 S
C71 O99 1.412 1_455 S
C71 H135 0.980 . S
C72 C73 1.294 . S
C72 C77 1.357 1_655 S
C72 O99 1.407 . S
C73 C72 1.294 . S
C73 C74 1.369 . S
C73 H139 0.932 . S
C74 C73 1.369 . S
C74 C75 1.398 1_655 S
C74 C78 1.527 . S
C75 C74 1.398 1_455 S
C75 C76 1.380 . S
C75 C89 1.497 . S
C76 C75 1.380 . S
C76 C77 1.383 . S
C76 C79 1.603 . S
C77 C72 1.357 1_455 S
C77 C76 1.383 . S
C77 H140 0.929 . S
C78 C74 1.527 . S
C78 H141 0.961 . S
C78 H142 0.959 . S
C78 H143 0.959 . S
C79 C76 1.603 . S
C79 H144 0.960 . S
C79 H145 0.962 . S
C79 H146 0.961 . S
C80 C47 1.587 . S
C80 C81 1.360 . S
C80 C93 1.412 . S
C81 C80 1.360 . S
C81 C82 1.365 . S
C81 H147 0.929 . S
C82 C57 1.553 . S
C82 C81 1.365 . S
C82 C83 1.404 . S
C83 C82 1.404 . S
C83 C84 1.395 . S
C83 C94 1.451 . S
C84 C83 1.395 . S
C84 C85 1.322 . S
C84 H148 0.930 . S
C85 C84 1.322 . S
C85 C86 1.459 . S
C85 H149 0.929 . S
C86 C85 1.459 . S
C86 C87 1.445 . S
C86 C95 1.395 . S
C87 C65 1.432 . S
C87 C86 1.445 . S
C87 C88 1.370 . S
C88 C87 1.370 . S
C88 C89 1.438 . S
C88 H150 0.930 . S
C89 C75 1.497 . S
C89 C88 1.438 . S
C89 C90 1.360 . S
C90 C89 1.360 . S
C90 C91 1.401 . S
C90 C95 1.446 . S
C91 C90 1.401 . S
C91 C92 1.347 . S
C91 H151 0.929 . S
C92 C91 1.347 . S
C92 C93 1.455 . S
C92 H152 0.930 . S
C93 C80 1.412 . S
C93 C92 1.455 . S
C93 C94 1.331 . S
C94 C83 1.451 . S
C94 C93 1.331 . S
C94 C95 1.497 . S
C95 C86 1.395 . S
C95 C90 1.446 . S
C95 C94 1.497 . S
C96 C97 1.582 . S
C96 H153 0.962 . S
C96 H154 0.959 . S
C96 H155 0.958 . S
C97 C96 1.582 . S
C97 O100 1.458 . S
C97 H126 0.980 . S
O98 C43 1.426 1_655 S
O98 C44 1.334 1_655 S
O99 C71 1.412 1_655 S
O99 C72 1.407 . S
O100 C62 1.435 . S
O100 C97 1.458 . S
O101 C53 1.468 . S
O101 C54 1.408 . S
H102 C43 0.980 . S
H103 C42 0.959 . S
H104 C42 0.959 . S
H105 C42 0.960 . S
H106 C45 0.929 . S
H107 C49 0.929 . S
H108 C50 0.959 . S
H109 C50 0.961 . S
H110 C50 0.961 . S
H111 C51 0.960 . S
H112 C51 0.960 . S
H113 C51 0.961 . S
H114 C53 0.980 . S
H115 C52 0.961 . S
H116 C52 0.960 . S
H117 C52 0.959 . S
H118 C55 0.930 . S
H119 C59 0.931 . S
H120 C60 0.959 . S
H121 C60 0.961 . S
H122 C60 0.959 . S
H123 C61 0.960 . S
H124 C61 0.960 . S
H125 C61 0.960 . S
H126 C97 0.980 . S
H127 C63 0.930 . S
H128 C67 0.930 . S
H129 C68 0.961 . S
H130 C68 0.960 . S
H131 C68 0.958 . S
H132 C69 0.961 . S
H133 C69 0.960 . S
H134 C69 0.960 . S
H135 C71 0.980 . S
H136 C70 0.961 1_455 S
H137 C70 0.961 . S
H138 C70 0.959 . S
H139 C73 0.932 . S
H140 C77 0.929 . S
H141 C78 0.961 . S
H142 C78 0.959 . S
H143 C78 0.959 . S
H144 C79 0.960 . S
H145 C79 0.962 . S
H146 C79 0.961 . S
H147 C81 0.929 . S
H148 C84 0.930 . S
H149 C85 0.929 . S
H150 C88 0.930 . S
H151 C91 0.929 . S
H152 C92 0.930 . S
H153 C96 0.962 . S
H154 C96 0.959 . S
H155 C96 0.958 . S
C156 C157 1.560 1_565 S
C156 H217 0.959 . S
C156 H218 0.959 . S
C156 H219 0.960 1_565 S
C157 C156 1.560 1_545 S
C157 O212 1.426 . S
C157 H216 0.980 . S
C158 C159 1.407 . S
C158 C163 1.418 1_545 S
C158 O212 1.334 . S
C159 C158 1.407 . S
C159 C160 1.360 . S
C159 H220 0.929 . S
C160 C159 1.360 . S
C160 C161 1.401 . S
C160 C164 1.527 . S
C161 C160 1.401 . S
C161 C162 1.405 . S
C161 C194 1.587 . S
C162 C161 1.405 . S
C162 C163 1.332 1_545 S
C162 C165 1.496 1_545 S
C163 C158 1.418 1_565 S
C163 C162 1.332 1_565 S
C163 H221 0.929 . S
C164 C160 1.527 . S
C164 H222 0.959 . S
C164 H223 0.961 . S
C164 H224 0.961 . S
C165 C162 1.496 1_565 S
C165 H225 0.960 . S
C165 H226 0.960 . S
C165 H227 0.961 . S
C166 C167 1.517 . S
C166 H229 0.961 . S
C166 H230 0.960 . S
C166 H231 0.959 . S
C167 C166 1.517 . S
C167 O215 1.468 . S
C167 H228 0.980 . S
C168 C169 1.349 . S
C168 C173 1.367 . S
C168 O215 1.408 . S
C169 C168 1.349 . S
C169 C170 1.407 . S
C169 H232 0.930 . S
C170 C169 1.407 . S
C170 C171 1.449 . S
C170 C174 1.535 . S
C171 C170 1.449 . S
C171 C172 1.384 . S
C171 C196 1.553 . S
C172 C171 1.384 . S
C172 C173 1.364 . S
C172 C175 1.450 . S
C173 C168 1.367 . S
C173 C172 1.364 . S
C173 H233 0.931 . S
C174 C170 1.535 . S
C174 H234 0.959 . S
C174 H235 0.961 1_545 S
C174 H236 0.959 1_545 S
C175 C172 1.450 . S
C175 H237 0.960 . S
C175 H238 0.960 . S
C175 H239 0.960 . S
C176 C177 1.309 . S
C176 C181 1.304 . S
C176 O214 1.435 . S
C177 C176 1.309 . S
C177 C178 1.476 . S
C177 H241 0.930 . S
C178 C177 1.476 . S
C178 C179 1.400 . S
C178 C182 1.567 . S
C179 C178 1.400 . S
C179 C180 1.373 . S
C179 C201 1.432 . S
C180 C179 1.373 . S
C180 C181 1.339 . S
C180 C183 1.530 . S
C181 C176 1.304 . S
C181 C180 1.339 . S
C181 H242 0.930 . S
C182 C178 1.567 . S
C182 H243 0.961 . S
C182 H244 0.960 1_545 S
C182 H245 0.958 1_545 S
C183 C180 1.530 . S
C183 H246 0.961 . S
C183 H247 0.960 . S
C183 H248 0.960 . S
C184 C185 1.530 . S
C184 H250 0.961 . S
C184 H251 0.961 . S
C184 H252 0.959 . S
C185 C184 1.530 . S
C185 O213 1.412 . S
C185 H249 0.980 . S
C186 C187 1.288 . S
C186 C191 1.377 . S
C186 O213 1.393 . S
C187 C186 1.288 . S
C187 C188 1.369 . S
C187 H253 0.932 1_545 S
C188 C187 1.369 . S
C188 C189 1.398 . S
C188 C192 1.527 1_545 S
C189 C188 1.398 . S
C189 C190 1.380 . S
C189 C203 1.497 . S
C190 C189 1.380 . S
C190 C191 1.383 . S
C190 C193 1.603 . S
C191 C186 1.377 . S
C191 C190 1.383 . S
C191 H254 0.929 . S
C192 C188 1.527 1_565 S
C192 H255 0.961 . S
C192 H256 0.959 . S
C192 H257 0.959 . S
C193 C190 1.603 . S
C193 H258 0.960 . S
C193 H259 0.962 . S
C193 H260 0.961 . S
C194 C161 1.587 . S
C194 C195 1.360 . S
C194 C207 1.412 . S
C195 C194 1.360 . S
C195 C196 1.365 . S
C195 H261 0.929 . S
C196 C171 1.553 . S
C196 C195 1.365 . S
C196 C197 1.404 . S
C197 C196 1.404 . S
C197 C198 1.395 . S
C197 C208 1.451 . S
C198 C197 1.395 . S
C198 C199 1.322 . S
C198 H262 0.930 . S
C199 C198 1.322 . S
C199 C200 1.459 . S
C199 H263 0.929 . S
C200 C199 1.459 . S
C200 C201 1.445 . S
C200 C209 1.395 . S
C201 C179 1.432 . S
C201 C200 1.445 . S
C201 C202 1.370 . S
C202 C201 1.370 . S
C202 C203 1.438 . S
C202 H264 0.930 . S
C203 C189 1.497 . S
C203 C202 1.438 . S
C203 C204 1.360 . S
C204 C203 1.360 . S
C204 C205 1.401 . S
C204 C209 1.446 . S
C205 C204 1.401 . S
C205 C206 1.347 . S
C205 H265 0.929 . S
C206 C205 1.347 . S
C206 C207 1.455 . S
C206 H266 0.930 . S
C207 C194 1.412 . S
C207 C206 1.455 . S
C207 C208 1.331 . S
C208 C197 1.451 . S
C208 C207 1.331 . S
C208 C209 1.497 . S
C209 C200 1.395 . S
C209 C204 1.446 . S
C209 C208 1.497 . S
C210 C211 1.582 . S
C210 H267 0.962 . S
C210 H268 0.959 . S
C210 H269 0.958 . S
C211 C210 1.582 . S
C211 O214 1.458 . S
C211 H240 0.980 . S
O212 C157 1.426 . S
O212 C158 1.334 . S
O213 C185 1.412 . S
O213 C186 1.393 . S
O214 C176 1.435 . S
O214 C211 1.458 . S
O215 C167 1.468 . S
O215 C168 1.408 . S
H216 C157 0.980 . S
H217 C156 0.959 . S
H218 C156 0.959 . S
H219 C156 0.960 1_545 S
H220 C159 0.929 . S
H221 C163 0.929 . S
H222 C164 0.959 . S
H223 C164 0.961 . S
H224 C164 0.961 . S
H225 C165 0.960 . S
H226 C165 0.960 . S
H227 C165 0.961 . S
H228 C167 0.980 . S
H229 C166 0.961 . S
H230 C166 0.960 . S
H231 C166 0.959 . S
H232 C169 0.930 . S
H233 C173 0.931 . S
H234 C174 0.959 . S
H235 C174 0.961 1_565 S
H236 C174 0.959 1_565 S
H237 C175 0.960 . S
H238 C175 0.960 . S
H239 C175 0.960 . S
H240 C211 0.980 . S
H241 C177 0.930 . S
H242 C181 0.930 . S
H243 C182 0.961 . S
H244 C182 0.960 1_565 S
H245 C182 0.958 1_565 S
H246 C183 0.961 . S
H247 C183 0.960 . S
H248 C183 0.960 . S
H249 C185 0.980 . S
H250 C184 0.961 . S
H251 C184 0.961 . S
H252 C184 0.959 . S
H253 C187 0.932 1_565 S
H254 C191 0.929 . S
H255 C192 0.961 . S
H256 C192 0.959 . S
H257 C192 0.959 . S
H258 C193 0.960 . S
H259 C193 0.962 . S
H260 C193 0.961 . S
H261 C195 0.929 . S
H262 C198 0.930 . S
H263 C199 0.929 . S
H264 C202 0.930 . S
H265 C205 0.929 . S
H266 C206 0.930 . S
H267 C210 0.962 . S
H268 C210 0.959 . S
H269 C210 0.958 . S
C270 C271 1.560 . S
C270 H331 0.959 . S
C270 H332 0.959 . S
C270 H333 0.960 . S
C271 C270 1.560 . S
C271 O326 1.426 . S
C271 H330 0.980 . S
C272 C273 1.407 . S
C272 C277 1.418 . S
C272 O326 1.334 . S
C273 C272 1.407 . S
C273 C274 1.360 . S
C273 H334 0.929 . S
C274 C273 1.360 . S
C274 C275 1.401 . S
C274 C278 1.527 . S
C275 C274 1.401 . S
C275 C276 1.405 . S
C275 C308 1.587 . S
C276 C275 1.405 . S
C276 C277 1.332 . S
C276 C279 1.496 . S
C277 C272 1.418 . S
C277 C276 1.332 . S
C277 H335 0.929 . S
C278 C274 1.527 . S
C278 H336 0.959 . S
C278 H337 0.961 . S
C278 H338 0.961 . S
C279 C276 1.496 . S
C279 H339 0.960 . S
C279 H340 0.960 . S
C279 H341 0.961 . S
C280 C281 1.517 . S
C280 H343 0.961 . S
C280 H344 0.960 . S
C280 H345 0.959 . S
C281 C280 1.517 . S
C281 O329 1.468 . S
C281 H342 0.980 . S
C282 C283 1.349 . S
C282 C287 1.367 . S
C282 O329 1.408 . S
C283 C282 1.349 . S
C283 C284 1.407 . S
C283 H346 0.930 . S
C284 C283 1.407 . S
C284 C285 1.449 . S
C284 C288 1.535 . S
C285 C284 1.449 . S
C285 C286 1.384 . S
C285 C310 1.553 . S
C286 C285 1.384 . S
C286 C287 1.364 . S
C286 C289 1.450 . S
C287 C282 1.367 . S
C287 C286 1.364 . S
C287 H347 0.931 . S
C288 C284 1.535 . S
C288 H348 0.959 . S
C288 H349 0.961 . S
C288 H350 0.959 . S
C289 C286 1.450 . S
C289 H351 0.960 . S
C289 H352 0.960 . S
C289 H353 0.960 . S
C290 C291 1.309 . S
C290 C295 1.304 . S
C290 O328 1.435 . S
C291 C290 1.309 . S
C291 C292 1.476 . S
C291 H355 0.930 . S
C292 C291 1.476 . S
C292 C293 1.400 . S
C292 C296 1.567 . S
C293 C292 1.400 . S
C293 C294 1.373 . S
C293 C315 1.432 . S
C294 C293 1.373 . S
C294 C295 1.339 . S
C294 C297 1.530 . S
C295 C290 1.304 . S
C295 C294 1.339 . S
C295 H356 0.930 . S
C296 C292 1.567 . S
C296 H357 0.961 . S
C296 H358 0.960 . S
C296 H359 0.958 . S
C297 C294 1.530 . S
C297 H360 0.961 . S
C297 H361 0.960 . S
C297 H362 0.960 . S
C298 C299 1.530 . S
C298 H364 0.961 . S
C298 H365 0.961 . S
C298 H366 0.959 . S
C299 C298 1.530 . S
C299 O327 1.412 . S
C299 H363 0.980 . S
C300 C301 1.288 . S
C300 C305 1.377 . S
C300 O327 1.393 . S
C301 C300 1.288 . S
C301 C302 1.369 . S
C301 H367 0.932 . S
C302 C301 1.369 . S
C302 C303 1.398 . S
C302 C306 1.527 . S
C303 C302 1.398 . S
C303 C304 1.380 . S
C303 C317 1.497 . S
C304 C303 1.380 . S
C304 C305 1.383 . S
C304 C307 1.603 . S
C305 C300 1.377 . S
C305 C304 1.383 . S
C305 H368 0.929 . S
C306 C302 1.527 . S
C306 H369 0.961 . S
C306 H370 0.959 . S
C306 H371 0.959 . S
C307 C304 1.603 . S
C307 H372 0.960 . S
C307 H373 0.962 . S
C307 H374 0.961 . S
C308 C275 1.587 . S
C308 C309 1.360 . S
C308 C321 1.412 . S
C309 C308 1.360 . S
C309 C310 1.365 . S
C309 H375 0.929 . S
C310 C285 1.553 . S
C310 C309 1.365 . S
C310 C311 1.404 . S
C311 C310 1.404 . S
C311 C312 1.395 . S
C311 C322 1.451 . S
C312 C311 1.395 . S
C312 C313 1.322 . S
C312 H376 0.930 . S
C313 C312 1.322 . S
C313 C314 1.459 . S
C313 H377 0.929 . S
C314 C313 1.459 . S
C314 C315 1.445 . S
C314 C323 1.395 . S
C315 C293 1.432 . S
C315 C314 1.445 . S
C315 C316 1.370 . S
C316 C315 1.370 . S
C316 C317 1.438 . S
C316 H378 0.930 . S
C317 C303 1.497 . S
C317 C316 1.438 . S
C317 C318 1.360 . S
C318 C317 1.360 . S
C318 C319 1.401 . S
C318 C323 1.446 . S
C319 C318 1.401 . S
C319 C320 1.347 . S
C319 H379 0.929 . S
C320 C319 1.347 . S
C320 C321 1.455 . S
C320 H380 0.930 . S
C321 C308 1.412 . S
C321 C320 1.455 . S
C321 C322 1.331 . S
C322 C311 1.451 . S
C322 C321 1.331 . S
C322 C323 1.497 . S
C323 C314 1.395 . S
C323 C318 1.446 . S
C323 C322 1.497 . S
C324 C325 1.582 . S
C324 H381 0.962 . S
C324 H382 0.959 . S
C324 H383 0.958 . S
C325 C324 1.582 . S
C325 O328 1.458 . S
C325 H354 0.980 . S
O326 C271 1.426 . S
O326 C272 1.334 . S
O327 C299 1.412 . S
O327 C300 1.393 . S
O328 C290 1.435 . S
O328 C325 1.458 . S
O329 C281 1.468 . S
O329 C282 1.408 . S
H330 C271 0.980 . S
H331 C270 0.959 . S
H332 C270 0.959 . S
H333 C270 0.960 . S
H334 C273 0.929 . S
H335 C277 0.929 . S
H336 C278 0.959 . S
H337 C278 0.961 . S
H338 C278 0.961 . S
H339 C279 0.960 . S
H340 C279 0.960 . S
H341 C279 0.961 . S
H342 C281 0.980 . S
H343 C280 0.961 . S
H344 C280 0.960 . S
H345 C280 0.959 . S
H346 C283 0.930 . S
H347 C287 0.931 . S
H348 C288 0.959 . S
H349 C288 0.961 . S
H350 C288 0.959 . S
H351 C289 0.960 . S
H352 C289 0.960 . S
H353 C289 0.960 . S
H354 C325 0.980 . S
H355 C291 0.930 . S
H356 C295 0.930 . S
H357 C296 0.961 . S
H358 C296 0.960 . S
H359 C296 0.958 . S
H360 C297 0.961 . S
H361 C297 0.960 . S
H362 C297 0.960 . S
H363 C299 0.980 . S
H364 C298 0.961 . S
H365 C298 0.961 . S
H366 C298 0.959 . S
H367 C301 0.932 . S
H368 C305 0.929 . S
H369 C306 0.961 . S
H370 C306 0.959 . S
H371 C306 0.959 . S
H372 C307 0.960 . S
H373 C307 0.962 . S
H374 C307 0.961 . S
H375 C309 0.929 . S
H376 C312 0.930 . S
H377 C313 0.929 . S
H378 C316 0.930 . S
H379 C319 0.929 . S
H380 C320 0.930 . S
H381 C324 0.962 . S
H382 C324 0.959 . S
H383 C324 0.958 . S
H384 C385 0.951 . S
C385 H384 0.951 . S
C385 C391 1.265 . S
H386 C391 0.950 1_655 S
H387 C395 0.949 . S
H388 C396 0.950 . S
H389 C397 0.951 . S
H390 C398 0.951 . S
C391 C385 1.265 . S
C391 H386 0.950 1_455 S
C391 C392 1.478 . S
C392 C391 1.478 . S
C392 C393 1.397 1_455 S
C392 C409 1.394 . S
C393 C392 1.397 1_655 S
C393 C394 1.438 . S
C393 C398 1.429 . S
C394 C393 1.438 . S
C394 C395 1.428 . S
C394 C407 1.394 1_655 S
C395 H387 0.949 . S
C395 C394 1.428 . S
C395 C396 1.345 . S
C396 H388 0.950 . S
C396 C395 1.345 . S
C396 C397 1.424 . S
C397 H389 0.951 . S
C397 C396 1.424 . S
C397 C398 1.347 . S
C398 H390 0.951 . S
C398 C393 1.429 . S
C398 C397 1.347 . S
H399 C400 0.951 1_655 S
C400 H399 0.951 1_455 S
C400 C406 1.265 . S
H401 C406 0.950 . S
H402 C410 0.949 . S
H403 C411 0.950 . S
H404 C412 0.951 . S
H405 C413 0.951 . S
C406 C400 1.265 . S
C406 H401 0.950 . S
C406 C407 1.478 . S
C407 C394 1.394 1_455 S
C407 C406 1.478 . S
C407 C408 1.397 . S
C408 C407 1.397 . S
C408 C409 1.438 . S
C408 C413 1.429 . S
C409 C392 1.394 . S
C409 C408 1.438 . S
C409 C410 1.428 . S
C410 H402 0.949 . S
C410 C409 1.428 . S
C410 C411 1.345 . S
C411 H403 0.950 . S
C411 C410 1.345 . S
C411 C412 1.424 . S
C412 H404 0.951 . S
C412 C411 1.424 . S
C412 C413 1.347 . S
C413 H405 0.951 . S
C413 C408 1.429 . S
C413 C412 1.347 . S
H414 C415 0.951 . S
C415 H414 0.951 . S
C415 C421 1.265 . S
H416 C421 0.950 . S
H417 C425 0.949 . S
H418 C426 0.950 . S
H419 C427 0.945 1_455 S
H420 C428 0.951 . S
C421 C415 1.265 . S
C421 H416 0.950 . S
C421 C422 1.478 . S
C422 C421 1.478 . S
C422 C423 1.397 . S
C422 C439 1.394 . S
C423 C422 1.397 . S
C423 C424 1.438 . S
C423 C428 1.429 . S
C424 C423 1.438 . S
C424 C425 1.428 . S
C424 C437 1.394 . S
C425 H417 0.949 . S
C425 C424 1.428 . S
C425 C426 1.345 . S
C426 H418 0.950 . S
C426 C425 1.345 . S
C426 C427 1.424 . S
C427 H419 0.945 1_655 S
C427 C426 1.424 . S
C427 C428 1.347 . S
C428 H420 0.951 . S
C428 C423 1.429 . S
C428 C427 1.347 . S
H429 C430 0.951 . S
C430 H429 0.951 . S
C430 C436 1.265 . S
H431 C436 0.950 . S
H432 C440 0.949 . S
H433 C441 0.950 . S
H434 C442 0.951 . S
H435 C443 0.951 . S
C436 C430 1.265 . S
C436 H431 0.950 . S
C436 C437 1.478 . S
C437 C424 1.394 . S
C437 C436 1.478 . S
C437 C438 1.397 . S
C438 C437 1.397 . S
C438 C439 1.438 . S
C438 C443 1.429 1_545 S
C439 C422 1.394 . S
C439 C438 1.438 . S
C439 C440 1.428 1_545 S
C440 H432 0.949 . S
C440 C439 1.428 1_565 S
C440 C441 1.345 . S
C441 H433 0.950 . S
C441 C440 1.345 . S
C441 C442 1.424 . S
C442 H434 0.951 . S
C442 C441 1.424 . S
C442 C443 1.347 . S
C443 H435 0.951 . S
C443 C438 1.429 1_565 S
C443 C442 1.347 . S
H444 C445 0.951 . S
C445 H444 0.951 . S
C445 C451 1.265 . S
H446 C451 0.950 . S
H447 C455 0.949 . S
H448 C456 0.950 . S
H449 C457 0.951 . S
H450 C458 0.951 . S
C451 C445 1.265 . S
C451 H446 0.950 . S
C451 C452 1.478 . S
C452 C451 1.478 . S
C452 C453 1.397 . S
C452 C469 1.394 . S
C453 C452 1.397 . S
C453 C454 1.438 . S
C453 C458 1.429 . S
C454 C453 1.438 . S
C454 C455 1.428 . S
C454 C467 1.394 . S
C455 H447 0.949 . S
C455 C454 1.428 . S
C455 C456 1.345 . S
C456 H448 0.950 . S
C456 C455 1.345 . S
C456 C457 1.424 . S
C457 H449 0.951 . S
C457 C456 1.424 . S
C457 C458 1.347 . S
C458 H450 0.951 . S
C458 C453 1.429 . S
C458 C457 1.347 . S
H459 C460 0.951 . S
C460 H459 0.951 . S
C460 C466 1.265 . S
H461 C466 0.950 . S
H462 C470 0.949 . S
H463 C471 0.950 . S
H464 C472 0.951 . S
H465 C473 0.951 . S
C466 C460 1.265 . S
C466 H461 0.950 . S
C466 C467 1.478 . S
C467 C454 1.394 . S
C467 C466 1.478 . S
C467 C468 1.397 . S
C468 C467 1.397 . S
C468 C469 1.438 . S
C468 C473 1.429 . S
C469 C452 1.394 . S
C469 C468 1.438 . S
C469 C470 1.428 . S
C470 H462 0.949 . S
C470 C469 1.428 . S
C470 C471 1.345 . S
C471 H463 0.950 . S
C471 C470 1.345 . S
C471 C472 1.424 . S
C472 H464 0.951 . S
C472 C471 1.424 . S
C472 C473 1.347 . S
C473 H465 0.951 . S
C473 C468 1.429 . S
C473 C472 1.347 . S
H474 C475 0.951 1_655 S
C475 H474 0.951 1_455 S
C475 C481 1.265 . S
H476 C481 0.950 . S
H477 C485 0.949 . S
H478 C486 0.950 . S
H479 C487 0.951 1_545 S
H480 C488 0.951 . S
C481 C475 1.265 . S
C481 H476 0.950 . S
C481 C482 1.478 . S
C482 C481 1.478 . S
C482 C483 1.397 . S
C482 C499 1.394 . S
C483 C482 1.397 . S
C483 C484 1.438 . S
C483 C488 1.429 . S
C484 C483 1.438 . S
C484 C485 1.428 . S
C484 C497 1.394 . S
C485 H477 0.949 . S
C485 C484 1.428 . S
C485 C486 1.345 . S
C486 H478 0.950 . S
C486 C485 1.345 . S
C486 C487 1.424 . S
C487 H479 0.951 1_565 S
C487 C486 1.424 . S
C487 C488 1.347 . S
C488 H480 0.951 . S
C488 C483 1.429 . S
C488 C487 1.347 . S
H489 C490 0.951 . S
C490 H489 0.951 . S
C490 C496 1.265 . S
H491 C496 0.950 1_655 S
H492 C500 0.949 . S
H493 C501 0.950 . S
H494 C502 0.951 . S
H495 C503 0.951 . S
C496 C490 1.265 . S
C496 H491 0.950 1_455 S
C496 C497 1.478 . S
C497 C484 1.394 . S
C497 C496 1.478 . S
C497 C498 1.386 1_455 S
C498 C497 1.386 1_655 S
C498 C499 1.442 1_655 S
C498 C503 1.435 . S
C499 C482 1.394 . S
C499 C498 1.442 1_455 S
C499 C500 1.428 1_455 S
C500 H492 0.949 . S
C500 C499 1.428 1_655 S
C500 C501 1.345 . S
C501 H493 0.950 . S
C501 C500 1.345 . S
C501 C502 1.424 . S
C502 H494 0.951 . S
C502 C501 1.424 . S
C502 C503 1.347 . S
C503 H495 0.951 . S
C503 C498 1.435 . S
C503 C502 1.347 . S
H504 C505 0.951 . S
C505 H504 0.951 . S
C505 C511 1.265 . S
H506 C511 0.950 . S
H507 C515 0.949 . S
H508 C516 0.950 . S
H509 C517 0.951 . S
H510 C518 0.951 . S
C511 C505 1.265 . S
C511 H506 0.950 . S
C511 C512 1.478 . S
C512 C511 1.478 . S
C512 C513 1.397 . S
C512 C529 1.394 . S
C513 C512 1.397 . S
C513 C514 1.438 . S
C513 C518 1.429 . S
C514 C513 1.438 . S
C514 C515 1.428 . S
C514 C527 1.394 . S
C515 H507 0.949 . S
C515 C514 1.428 . S
C515 C516 1.345 . S
C516 H508 0.950 . S
C516 C515 1.345 . S
C516 C517 1.424 . S
C517 H509 0.951 . S
C517 C516 1.424 . S
C517 C518 1.347 . S
C518 H510 0.951 . S
C518 C513 1.429 . S
C518 C517 1.347 . S
H519 C520 0.951 . S
C520 H519 0.951 . S
C520 C526 1.265 . S
H521 C526 0.950 . S
H522 C530 0.949 . S
H523 C531 0.950 . S
H524 C532 0.951 . S
H525 C533 0.951 . S
C526 C520 1.265 . S
C526 H521 0.950 . S
C526 C527 1.478 . S
C527 C514 1.394 . S
C527 C526 1.478 . S
C527 C528 1.397 . S
C528 C527 1.397 . S
C528 C529 1.438 . S
C528 C533 1.429 1_545 S
C529 C512 1.394 . S
C529 C528 1.438 . S
C529 C530 1.428 1_545 S
C530 H522 0.949 . S
C530 C529 1.428 1_565 S
C530 C531 1.345 . S
C531 H523 0.950 . S
C531 C530 1.345 . S
C531 C532 1.424 . S
C532 H524 0.951 . S
C532 C531 1.424 . S
C532 C533 1.347 . S
C533 H525 0.951 . S
C533 C528 1.429 1_565 S
C533 C532 1.347 . S
H534 C535 0.951 . S
C535 H534 0.951 . S
C535 C541 1.265 . S
H536 C541 0.950 . S
H537 C545 0.949 . S
H538 C546 0.950 . S
H539 C547 0.951 . S
H540 C548 0.951 . S
C541 C535 1.265 . S
C541 H536 0.950 . S
C541 C542 1.478 . S
C542 C541 1.478 . S
C542 C543 1.397 . S
C542 C559 1.394 . S
C543 C542 1.397 . S
C543 C544 1.438 . S
C543 C548 1.429 . S
C544 C543 1.438 . S
C544 C545 1.428 . S
C544 C557 1.394 . S
C545 H537 0.949 . S
C545 C544 1.428 . S
C545 C546 1.345 . S
C546 H538 0.950 . S
C546 C545 1.345 . S
C546 C547 1.424 . S
C547 H539 0.951 . S
C547 C546 1.424 . S
C547 C548 1.347 . S
C548 H540 0.951 . S
C548 C543 1.429 . S
C548 C547 1.347 . S
H549 C550 0.951 . S
C550 H549 0.951 . S
C550 C556 1.265 . S
H551 C556 0.950 . S
H552 C560 0.949 . S
H553 C561 0.950 . S
H554 C562 0.951 . S
H555 C563 0.951 . S
C556 C550 1.265 . S
C556 H551 0.950 . S
C556 C557 1.478 . S
C557 C544 1.394 . S
C557 C556 1.478 . S
C557 C558 1.397 . S
C558 C557 1.397 . S
C558 C559 1.438 . S
C558 C563 1.429 . S
C559 C542 1.394 . S
C559 C558 1.438 . S
C559 C560 1.428 . S
C560 H552 0.949 . S
C560 C559 1.428 . S
C560 C561 1.345 . S
C561 H553 0.950 . S
C561 C560 1.345 . S
C561 C562 1.424 . S
C562 H554 0.951 . S
C562 C561 1.424 . S
C562 C563 1.347 . S
C563 H555 0.951 . S
C563 C558 1.429 . S
C563 C562 1.347 . S
H564 C565 0.951 . S
C565 H564 0.951 . S
C565 C571 1.265 . S
H566 C571 0.950 . S
H567 C575 0.949 . S
H568 C576 0.950 . S
H569 C577 0.951 . S
H570 C578 0.951 . S
C571 C565 1.265 . S
C571 H566 0.950 . S
C571 C572 1.478 . S
C572 C571 1.478 . S
C572 C573 1.397 . S
C572 C589 1.394 . S
C573 C572 1.397 . S
C573 C574 1.438 . S
C573 C578 1.429 1_545 S
C574 C573 1.438 . S
C574 C575 1.428 1_545 S
C574 C587 1.394 . S
C575 H567 0.949 . S
C575 C574 1.428 1_565 S
C575 C576 1.345 . S
C576 H568 0.950 . S
C576 C575 1.345 . S
C576 C577 1.424 . S
C577 H569 0.951 . S
C577 C576 1.424 . S
C577 C578 1.347 . S
C578 H570 0.951 . S
C578 C573 1.429 1_565 S
C578 C577 1.347 . S
H579 C580 0.951 . S
C580 H579 0.951 . S
C580 C586 1.265 . S
H581 C586 0.950 . S
H582 C590 0.949 . S
H583 C591 0.950 . S
H584 C592 0.951 . S
H585 C593 0.951 . S
C586 C580 1.265 . S
C586 H581 0.950 . S
C586 C587 1.478 . S
C587 C574 1.394 . S
C587 C586 1.478 . S
C587 C588 1.397 . S
C588 C587 1.397 . S
C588 C589 1.438 . S
C588 C593 1.429 . S
C589 C572 1.394 . S
C589 C588 1.438 . S
C589 C590 1.428 . S
C590 H582 0.949 . S
C590 C589 1.428 . S
C590 C591 1.345 . S
C591 H583 0.950 . S
C591 C590 1.345 . S
C591 C592 1.424 . S
C592 H584 0.951 . S
C592 C591 1.424 . S
C592 C593 1.347 . S
C593 H585 0.951 . S
C593 C588 1.429 . S
C593 C592 1.347 . S
H594 C595 0.951 . S
C595 H594 0.951 . S
C595 C601 1.265 . S
H596 C601 0.950 . S
H597 C605 0.949 . S
H598 C606 0.950 . S
H599 C607 0.951 1_545 S
H600 C608 0.946 1_545 S
C601 C595 1.265 . S
C601 H596 0.950 . S
C601 C602 1.478 . S
C602 C601 1.478 . S
C602 C603 1.397 1_554 S
C602 C619 1.394 . S
C603 C602 1.397 1_556 S
C603 C604 1.438 . S
C603 C608 1.429 . S
C604 C603 1.438 . S
C604 C605 1.428 . S
C604 C617 1.394 . S
C605 H597 0.949 . S
C605 C604 1.428 . S
C605 C606 1.345 . S
C606 H598 0.950 . S
C606 C605 1.345 . S
C606 C607 1.424 . S
C607 H599 0.951 1_565 S
C607 C606 1.424 . S
C607 C608 1.347 . S
C608 H600 0.946 1_565 S
C608 C603 1.429 . S
C608 C607 1.347 . S
H609 C610 0.951 . S
C610 H609 0.951 . S
C610 C616 1.265 . S
H611 C616 0.950 . S
H612 C620 0.949 . S
H613 C621 0.950 . S
H614 C622 0.951 . S
H615 C623 0.951 1_556 S
C616 C610 1.265 . S
C616 H611 0.950 . S
C616 C617 1.478 . S
C617 C604 1.394 . S
C617 C616 1.478 . S
C617 C618 1.397 . S
C618 C617 1.397 . S
C618 C619 1.438 1_556 S
C618 C623 1.429 1_556 S
C619 C602 1.394 . S
C619 C618 1.438 1_554 S
C619 C620 1.428 . S
C620 H612 0.949 . S
C620 C619 1.428 . S
C620 C621 1.345 . S
C621 H613 0.950 . S
C621 C620 1.345 . S
C621 C622 1.424 . S
C622 H614 0.951 . S
C622 C621 1.424 . S
C622 C623 1.347 . S
C623 H615 0.951 1_554 S
C623 C618 1.429 1_554 S
C623 C622 1.347 . S
H624 C625 0.951 . S
C625 H624 0.951 . S
C625 C631 1.265 . S
H626 C631 0.950 1_655 S
H627 C635 0.949 . S
H628 C636 0.950 . S
H629 C637 0.951 . S
H630 C638 0.951 . S
C631 C625 1.265 . S
C631 H626 0.950 1_455 S
C631 C632 1.478 . S
C632 C631 1.478 . S
C632 C633 1.397 . S
C632 C649 1.394 . S
C633 C632 1.397 . S
C633 C634 1.438 . S
C633 C638 1.429 . S
C634 C633 1.438 . S
C634 C635 1.428 . S
C634 C647 1.394 . S
C635 H627 0.949 . S
C635 C634 1.428 . S
C635 C636 1.345 . S
C636 H628 0.950 . S
C636 C635 1.345 . S
C636 C637 1.424 . S
C637 H629 0.951 . S
C637 C636 1.424 . S
C637 C638 1.347 . S
C638 H630 0.951 . S
C638 C633 1.429 . S
C638 C637 1.347 . S
H639 C640 0.951 1_655 S
C640 H639 0.951 1_455 S
C640 C646 1.265 . S
H641 C646 0.950 . S
H642 C650 0.949 . S
H643 C651 0.950 . S
H644 C652 0.951 . S
H645 C653 0.951 . S
C646 C640 1.265 . S
C646 H641 0.950 . S
C646 C647 1.478 . S
C647 C634 1.394 . S
C647 C646 1.478 . S
C647 C648 1.397 . S
C648 C647 1.397 . S
C648 C649 1.438 . S
C648 C653 1.429 . S
C649 C632 1.394 . S
C649 C648 1.438 . S
C649 C650 1.428 . S
C650 H642 0.949 . S
C650 C649 1.428 . S
C650 C651 1.345 . S
C651 H643 0.950 . S
C651 C650 1.345 . S
C651 C652 1.424 . S
C652 H644 0.951 . S
C652 C651 1.424 . S
C652 C653 1.347 . S
C653 H645 0.951 . S
C653 C648 1.429 . S
C653 C652 1.347 . S
H654 C655 0.951 . S
C655 H654 0.951 . S
C655 C661 1.265 . S
H656 C661 0.950 . S
H657 C665 0.949 . S
H658 C666 0.950 . S
H659 C667 0.951 . S
H660 C668 0.951 . S
C661 C655 1.265 . S
C661 H656 0.950 . S
C661 C662 1.478 . S
C662 C661 1.478 . S
C662 C663 1.397 . S
C662 C679 1.394 . S
C663 C662 1.397 . S
C663 C664 1.438 . S
C663 C668 1.429 . S
C664 C663 1.438 . S
C664 C665 1.428 . S
C664 C677 1.394 . S
C665 H657 0.949 . S
C665 C664 1.428 . S
C665 C666 1.345 . S
C666 H658 0.950 . S
C666 C665 1.345 . S
C666 C667 1.424 . S
C667 H659 0.951 . S
C667 C666 1.424 . S
C667 C668 1.347 . S
C668 H660 0.951 . S
C668 C663 1.429 . S
C668 C667 1.347 . S
H669 C670 0.951 . S
C670 H669 0.951 . S
C670 C676 1.265 . S
H671 C676 0.950 . S
H672 C680 0.949 . S
H673 C681 0.950 . S
H674 C682 0.951 . S
H675 C683 0.951 . S
C676 C670 1.265 . S
C676 H671 0.950 . S
C676 C677 1.478 . S
C677 C664 1.394 . S
C677 C676 1.478 . S
C677 C678 1.397 . S
C678 C677 1.397 . S
C678 C679 1.438 . S
C678 C683 1.429 1_545 S
C679 C662 1.394 . S
C679 C678 1.438 . S
C679 C680 1.428 1_545 S
C680 H672 0.949 . S
C680 C679 1.428 1_565 S
C680 C681 1.345 . S
C681 H673 0.950 . S
C681 C680 1.345 . S
C681 C682 1.424 . S
C682 H674 0.951 . S
C682 C681 1.424 . S
C682 C683 1.347 . S
C683 H675 0.951 . S
C683 C678 1.429 1_565 S
C683 C682 1.347 . S
H684 C685 0.951 . S
C685 H684 0.951 . S
C685 C691 1.265 . S
H686 C691 0.950 . S
H687 C695 0.949 . S
H688 C696 0.950 . S
H689 C697 0.951 . S
H690 C698 0.951 . S
C691 C685 1.265 . S
C691 H686 0.950 . S
C691 C692 1.478 1_554 S
C692 C691 1.478 1_556 S
C692 C693 1.397 . S
C692 C709 1.394 1_556 S
C693 C692 1.397 . S
C693 C694 1.438 . S
C693 C698 1.429 . S
C694 C693 1.438 . S
C694 C695 1.428 . S
C694 C707 1.394 . S
C695 H687 0.949 . S
C695 C694 1.428 . S
C695 C696 1.345 . S
C696 H688 0.950 . S
C696 C695 1.345 . S
C696 C697 1.424 . S
C697 H689 0.951 . S
C697 C696 1.424 . S
C697 C698 1.347 . S
C698 H690 0.951 . S
C698 C693 1.429 . S
C698 C697 1.347 . S
H699 C700 0.951 . S
C700 H699 0.951 . S
C700 C706 1.265 . S
H701 C706 0.950 . S
H702 C710 0.949 . S
H703 C711 0.950 . S
H704 C712 0.951 . S
H705 C713 0.951 1_556 S
C706 C700 1.265 . S
C706 H701 0.950 . S
C706 C707 1.478 . S
C707 C694 1.394 . S
C707 C706 1.478 . S
C707 C708 1.397 . S
C708 C707 1.397 . S
C708 C709 1.438 1_556 S
C708 C713 1.429 1_556 S
C709 C692 1.394 1_554 S
C709 C708 1.438 1_554 S
C709 C710 1.428 . S
C710 H702 0.949 . S
C710 C709 1.428 . S
C710 C711 1.345 . S
C711 H703 0.950 . S
C711 C710 1.345 . S
C711 C712 1.424 . S
C712 H704 0.951 . S
C712 C711 1.424 . S
C712 C713 1.347 . S
C713 H705 0.951 1_554 S
C713 C708 1.429 1_554 S
C713 C712 1.347 . S
H714 C715 0.951 . S
C715 H714 0.951 . S
C715 C721 1.265 . S
H716 C721 0.950 . S
H717 C725 0.949 . S
H718 C726 0.950 . S
H719 C727 0.951 . S
H720 C728 0.951 . S
C721 C715 1.265 . S
C721 H716 0.950 . S
C721 C722 1.478 . S
C722 C721 1.478 . S
C722 C723 1.397 . S
C722 C739 1.394 . S
C723 C722 1.397 . S
C723 C724 1.438 . S
C723 C728 1.429 . S
C724 C723 1.438 . S
C724 C725 1.428 . S
C724 C737 1.394 . S
C725 H717 0.949 . S
C725 C724 1.428 . S
C725 C726 1.345 . S
C726 H718 0.950 . S
C726 C725 1.345 . S
C726 C727 1.424 . S
C727 H719 0.951 . S
C727 C726 1.424 . S
C727 C728 1.347 . S
C728 H720 0.951 . S
C728 C723 1.429 . S
C728 C727 1.347 . S
H729 C730 0.951 . S
C730 H729 0.951 . S
C730 C736 1.265 . S
H731 C736 0.950 . S
H732 C740 0.949 . S
H733 C741 0.950 . S
H734 C742 0.951 . S
H735 C743 0.951 . S
C736 C730 1.265 . S
C736 H731 0.950 . S
C736 C737 1.478 . S
C737 C724 1.394 . S
C737 C736 1.478 . S
C737 C738 1.397 . S
C738 C737 1.397 . S
C738 C739 1.438 . S
C738 C743 1.429 1_455 S
C739 C722 1.394 . S
C739 C738 1.438 . S
C739 C740 1.428 1_455 S
C740 H732 0.949 . S
C740 C739 1.428 1_655 S
C740 C741 1.345 . S
C741 H733 0.950 . S
C741 C740 1.345 . S
C741 C742 1.424 . S
C742 H734 0.951 . S
C742 C741 1.424 . S
C742 C743 1.347 . S
C743 H735 0.951 . S
C743 C738 1.429 1_655 S
C743 C742 1.347 . S
C400 C97 1.255 . S
C385 C3 1.556 . S
C415 C21 1.603 . S
C430 C211 1.128 . S
C445 C37 1.294 . S
C460 C271 1.019 . S
C475 C8 1.414 . S
C490 C71 1.240 . S
C520 C185 1.230 . S
C505 C23 1.412 . S
C535 C35 1.498 . S
C550 C281 0.828 . S
C580 C167 1.007 . S
C565 C31 1.498 . S
C595 C7 1.443 1_565 S
C610 C299 1.218 . S
C640 C43 1.047 . S
C625 C17 1.329 1_565 S
C670 C157 1.151 . S
C655 C36 1.310 . S
C700 C325 1.225 . S
C685 C9 1.534 . S
C715 C22 1.471 . S
C730 C53 0.821 . S
