# Generated by pormake.
# Topology tsx, (6,3)-cn, num edge types: 1
# Building blocks:
#     Node 0, Type 0, BuildingBlock: JUFBIX_clean_sbu_0, # of connection points: 6
#     Node 1, Type 0, BuildingBlock: JUFBIX_clean_sbu_0, # of connection points: 6
#     Node 2, Type 1, BuildingBlock: VETTIZ_charged_linker_0, # of connection points: 3
#     Node 3, Type 1, BuildingBlock: VETTIZ_charged_linker_0, # of connection points: 3
#     Node 4, Type 1, BuildingBlock: VETTIZ_charged_linker_0, # of connection points: 3
#     Node 5, Type 1, BuildingBlock: VETTIZ_charged_linker_0, # of connection points: 3
#     Edge 6, Type (0, 1), None
#     Edge 7, Type (0, 1), None
#     Edge 8, Type (0, 1), None
#     Edge 9, Type (0, 1), None
#     Edge 10, Type (0, 1), None
#     Edge 11, Type (0, 1), None
#     Edge 12, Type (0, 1), None
#     Edge 13, Type (0, 1), None
#     Edge 14, Type (0, 1), None
#     Edge 15, Type (0, 1), None
#     Edge 16, Type (0, 1), None
#     Edge 17, Type (0, 1), None
# Relax obj value: 0.167
# Max RMSD: 0.176
# Mean RMSD: 0.146
data_MOF--net-tsx--node1-JUFBIX_clean_sbu_0--node2-VETTIZ_charged_linker_0--edge1-none
_symmetry_space_group_name_H-M    P1
_symmetry_Int_Tables_number       1
_symmetry_cell_setting            triclinic
loop_
_symmetry_equiv_pos_as_xyz
'x, y, z'
_cell_length_a     13.106221
_cell_length_b     14.542662
_cell_length_c     26.884262
_cell_angle_alpha  90.42915
_cell_angle_beta   88.046564
_cell_angle_gamma 106.33577
loop_
_atom_site_label
_atom_site_type_symbol
_atom_site_fract_x
_atom_site_fract_y
_atom_site_fract_z
_atom_type_partial_charge
Co0 Co 0.09794 1.03075 -0.04051 0.0
C1 C 1.03413 1.05217 0.86436 0.0
Co2 Co 0.9687 0.10084 -0.04187 0.0
C3 C 0.21364 0.89249 0.93385 0.0
C4 C 0.30243 1.00359 -0.01891 0.0
N5 N 0.20718 0.97108 -0.0402 0.0
N6 N 0.30944 0.87596 0.93761 0.0
C7 C 0.36567 0.94576 -0.03286 0.0
H8 H 0.15136 0.85112 0.91059 0.0
H9 H 0.32589 0.06736 0.00376 0.0
C10 C 1.03689 0.08251 0.05129 0.0
N11 N 0.86105 0.15952 -0.04378 0.0
C12 C 0.85327 0.22429 0.92211 0.0
C13 C 0.7747 0.14835 -0.01317 0.0
N14 N 0.76541 0.25395 0.92978 0.0
C15 C 0.71566 0.20664 -0.02932 0.0
C16 C 0.89492 0.90355 -0.02718 0.0
O17 O 0.09653 1.03929 0.0287 0.0
O18 O 0.97275 0.11469 0.02717 0.0
O19 O 0.86562 0.9789 -0.03304 0.0
O20 O 0.99311 0.90836 -0.03429 0.0
O21 O 0.96654 0.08602 0.88747 0.0
H22 H 0.75547 0.10031 0.01847 0.0
H23 H 0.91176 0.24957 0.89222 0.0
O24 O 0.1006 1.02388 0.88881 0.0
O25 O 0.19928 0.1547 -0.04214 0.0
O26 O 0.07151 0.22396 -0.04672 0.0
C27 C 0.1688 0.23062 -0.03997 0.0
H28 H 0.44741 0.95524 -0.02298 0.0
H29 H 0.64084 0.21191 -0.01303 0.0
Co30 Co 0.59819 0.53109 0.45949 0.0
C31 C 0.5342 0.55236 0.36437 0.0
Co32 Co 0.46894 0.60117 0.45815 0.0
C33 C 0.71385 0.39281 0.43385 0.0
C34 C 0.80276 0.50403 0.481 0.0
N35 N 0.70744 0.47145 0.45978 0.0
N36 N 0.80969 0.37632 0.43757 0.0
C37 C 0.86599 0.44619 0.46704 0.0
H38 H 0.65151 0.35137 0.41064 0.0
H39 H 0.82628 0.56785 0.50363 0.0
C40 C 0.53731 0.58295 0.5513 0.0
N41 N 0.36129 0.65985 0.45627 0.0
C42 C 0.35345 0.72456 0.42213 0.0
C43 C 0.27505 0.6488 0.48693 0.0
N44 N 0.26564 0.75429 0.42985 0.0
C45 C 0.21601 0.70711 0.4708 0.0
C46 C 0.39518 0.4039 0.4729 0.0
O47 O 0.5969 0.53971 0.5287 0.0
O48 O 0.47312 0.61511 0.5272 0.0
O49 O 0.36588 0.47925 0.46704 0.0
O50 O 0.49337 0.4087 0.46578 0.0
O51 O 0.46666 0.58626 0.38749 0.0
H52 H 0.25591 0.60085 0.51861 0.0
H53 H 0.41183 0.74973 0.3922 0.0
O54 O 0.60072 0.52412 0.38881 0.0
O55 O 0.69951 0.65505 0.4578 0.0
O56 O 0.57173 0.72429 0.45323 0.0
C57 C 0.66904 0.73098 0.45996 0.0
H58 H 0.94777 0.45572 0.47686 0.0
H59 H 0.14125 0.71246 0.48713 0.0
C60 C 0.16794 0.87548 0.4191 0.0
C61 C 0.2304 0.81897 0.39892 0.0
C62 C 0.25849 0.82655 0.34769 0.0
C63 C 0.15976 0.9422 0.33739 0.0
C64 C 0.13351 0.93641 0.38762 0.0
C65 C 0.07019 1.00455 0.4024 0.0
H66 H 0.9698 0.40984 0.36864 0.0
C67 C 0.11147 1.01147 0.31522 0.0
C68 C 0.05152 1.04319 0.35228 0.0
H69 H 0.72788 0.18279 0.44113 0.0
H70 H 0.80875 0.06369 0.40223 0.0
H71 H 0.17568 0.39662 0.33443 0.0
H72 H 1.02065 0.40715 0.28318 0.0
H73 H 0.92548 0.30037 0.26288 0.0
H74 H 0.06055 0.33826 0.23551 0.0
H75 H 0.21649 0.32402 0.28709 0.0
H76 H 0.19336 0.28223 0.35046 0.0
C77 C 0.13951 0.08489 0.43462 0.0
C78 C 0.96678 0.9492 0.42882 0.0
C79 C 0.11194 1.05815 0.13151 0.0
C80 C 1.04721 0.10036 0.10454 0.0
C81 C 0.99157 0.15839 0.12907 0.0
C82 C 1.00188 0.17505 0.18004 0.0
C83 C 0.07265 0.13808 0.20564 0.0
C84 C 0.12117 0.07574 0.18229 0.0
C85 C 0.16065 1.01693 0.21878 0.0
C86 C 0.12119 1.05119 0.26707 0.0
C87 C 0.08129 0.12914 0.25883 0.0
C88 C 0.28352 1.04583 0.21426 0.0
C89 C 0.10604 0.90918 0.20869 0.0
C90 C 0.93823 0.33505 0.37874 0.0
C91 C 0.84933 0.30582 0.41163 0.0
C92 C 0.80086 0.20694 0.41886 0.0
C93 C 0.84948 0.13909 0.3989 0.0
C94 C 0.94787 0.17107 0.37297 0.0
C95 C 0.98148 0.26549 0.35723 0.0
C96 C 1.04822 0.27425 0.30973 0.0
C97 C 1.03203 0.16819 0.29749 0.0
C98 C 1.00044 0.11499 0.34087 0.0
C99 C 0.16542 0.32212 0.32112 0.0
C100 C 1.01101 0.33255 0.27026 0.0
H101 H 0.24819 0.89067 0.27836 0.0
H102 H 0.1478 0.87328 0.45854 0.0
H103 H 0.92002 0.89063 0.40498 0.0
H104 H 0.91959 0.99857 0.43704 0.0
H105 H 0.9822 0.918 0.46441 0.0
H106 H 0.11164 0.14984 0.43411 0.0
H107 H 0.22321 0.10768 0.41989 0.0
H108 H 0.13996 1.0605 0.47365 0.0
H109 H 0.15061 1.00883 0.11408 0.0
H110 H 0.93756 0.18821 0.10929 0.0
H111 H 0.9491 0.20955 0.19875 0.0
H112 H 0.31622 0.12446 0.20845 0.0
H113 H 0.31102 1.00951 0.18212 0.0
H114 H 0.32032 1.03013 0.24833 0.0
H115 H 1.02267 0.89816 0.19721 0.0
H116 H 0.09871 0.86301 0.24167 0.0
H117 H 0.14908 0.88146 0.17844 0.0
H118 H 0.30566 0.78343 0.33104 0.0
C119 C 0.22436 0.88837 0.31699 0.0
C120 C 0.21164 0.30966 0.50606 0.0
C121 C 0.32237 0.32019 0.49999 0.0
C122 C 0.36631 0.25736 0.52639 0.0
C123 C 0.19623 0.18445 0.5674 0.0
C124 C 0.14921 0.23863 0.53876 0.0
C125 C 1.02898 0.20509 0.54731 0.0
H126 H 0.78197 0.72373 0.5406 0.0
C127 C 0.11266 0.11026 0.59299 0.0
C128 C 1.01576 0.10702 0.57117 0.0
H129 H 0.68022 0.92463 0.45147 0.0
H130 H 0.78084 1.057 0.50422 0.0
H131 H 0.93781 0.73687 0.59131 0.0
H132 H 0.75572 0.74022 0.63279 0.0
H133 H 0.73771 0.85233 0.65399 0.0
H134 H 0.83154 0.80065 0.68316 0.0
H135 H 1.00985 0.80874 0.64019 0.0
H136 H 1.03522 0.84903 0.5765 0.0
C137 C 0.96783 0.20198 0.50003 0.0
C138 C 0.99625 0.2725 0.58541 0.0
C139 C 0.11815 0.06717 0.7779 0.0
C140 C 1.02779 1.03617 0.81029 0.0
C141 C 0.92839 0.98996 0.79066 0.0
C142 C 0.91883 0.97033 0.73983 0.0
C143 C 1.00984 0.99707 0.70874 0.0
C144 C 0.10636 1.04991 0.72648 0.0
C145 C 0.18368 0.09319 0.6837 0.0
C146 C 0.11105 0.06422 0.63933 0.0
C147 C 1.01579 0.99971 0.65492 0.0
C148 C 0.27455 1.04536 0.68179 0.0
C149 C 0.22635 0.20269 0.6898 0.0
C150 C 0.78637 0.79654 0.53008 0.0
C151 C 0.73348 0.81478 0.48816 0.0
C152 C 0.72831 0.90957 0.4806 0.0
C153 C 0.78718 0.98593 0.51037 0.0
C154 C 0.85082 0.96674 0.54778 0.0
C155 C 0.83947 0.87246 0.56039 0.0
C156 C 0.88521 0.86449 0.60986 0.0
C157 C 0.93083 0.96964 0.62292 0.0
C158 C 0.9225 1.03022 0.5835 0.0
C159 C 0.97216 0.81175 0.60405 0.0
C160 C 0.79735 0.8119 0.64728 0.0
H161 H 0.33778 0.1397 0.57784 0.0
H162 H 0.17551 0.35603 0.48604 0.0
H163 H 0.91041 0.24481 0.59616 0.0
H164 H 1.01061 0.34546 0.56933 0.0
H165 H 1.04227 0.27884 0.61989 0.0
H166 H 0.96573 0.13625 0.47922 0.0
H167 H 1.00364 0.26525 0.47607 0.0
H168 H 0.88517 0.20292 0.50947 0.0
H169 H 0.19411 0.10721 0.7921 0.0
H170 H 0.85823 0.96987 0.8149 0.0
H171 H 0.84095 0.93997 0.72517 0.0
H172 H 0.24327 0.96696 0.67535 0.0
H173 H 0.31667 1.05629 0.71749 0.0
H174 H 0.33393 0.07607 0.65183 0.0
H175 H 0.16007 0.23647 0.68998 0.0
H176 H 0.28402 0.23479 0.65928 0.0
H177 H 0.26868 0.22095 0.72521 0.0
H178 H 0.45022 0.26246 0.52227 0.0
C179 C 0.30344 0.18921 0.55976 0.0
C180 C 0.66758 0.37505 0.91903 0.0
C181 C 0.73021 0.31867 0.89886 0.0
C182 C 0.75854 0.32645 0.84766 0.0
C183 C 0.65971 0.44203 0.83735 0.0
C184 C 0.63323 0.43604 0.88756 0.0
C185 C 0.56986 0.50415 0.90235 0.0
H186 H 0.46979 0.90964 0.86881 0.0
C187 C 0.61152 0.51139 0.81519 0.0
C188 C 0.55142 0.54298 0.85224 0.0
H189 H 0.22758 0.68242 -0.05898 0.0
H190 H 0.30852 0.56339 0.9021 0.0
H191 H 0.67586 0.89637 0.83482 0.0
H192 H 0.52124 0.90731 0.78339 0.0
H193 H 0.426 0.8007 0.76296 0.0
H194 H 0.56118 0.83847 0.7357 0.0
H195 H 0.71681 0.82395 0.78743 0.0
H196 H 0.69331 0.78185 0.85074 0.0
C197 C 0.63909 0.58437 0.93467 0.0
C198 C 0.46634 0.44875 0.92866 0.0
C199 C 0.61233 0.55849 0.63152 0.0
C200 C 0.54765 0.60078 0.60455 0.0
C201 C 0.49207 0.65883 0.62911 0.0
C202 C 0.50234 0.67541 0.68008 0.0
C203 C 0.57303 0.63833 0.70568 0.0
C204 C 0.62154 0.57599 0.68231 0.0
C205 C 0.66096 0.51711 0.71877 0.0
C206 C 0.62143 0.55127 0.76707 0.0
C207 C 0.58159 0.62927 0.75887 0.0
C208 C 0.78384 0.54602 0.71429 0.0
C209 C 0.60639 0.40939 0.70862 0.0
C210 C 0.43816 0.83482 0.87884 0.0
C211 C 0.34914 0.80551 0.91166 0.0
C212 C 0.30063 0.70662 0.9188 0.0
C213 C 0.34928 0.6388 0.89882 0.0
C214 C 0.44774 0.67083 0.87296 0.0
C215 C 0.48146 0.7653 0.85731 0.0
C216 C 0.54843 0.77421 0.80987 0.0
C217 C 0.53219 0.66819 0.79753 0.0
C218 C 0.5004 0.61484 0.84084 0.0
C219 C 0.66559 0.82193 0.82142 0.0
C220 C 0.51152 0.83274 0.77042 0.0
H221 H 0.74852 0.39083 0.77836 0.0
H222 H 0.64728 0.37272 -0.04154 0.0
H223 H 0.41961 0.39032 0.90473 0.0
H224 H 0.41919 0.49814 0.93694 0.0
H225 H 0.48162 0.41735 -0.03578 0.0
H226 H 0.61132 0.64938 0.93414 0.0
H227 H 0.72287 0.60712 0.92005 0.0
H228 H 0.63928 0.55988 -0.0263 0.0
H229 H 0.65096 0.50916 0.61407 0.0
H230 H 0.43811 0.68872 0.60933 0.0
H231 H 0.44961 0.70995 0.6988 0.0
H232 H 0.81653 0.62466 0.7085 0.0
H233 H 0.81139 0.50972 0.68217 0.0
H234 H 0.82059 0.53032 0.74838 0.0
H235 H 0.52298 0.39837 0.6972 0.0
H236 H 0.59919 0.36311 0.74154 0.0
H237 H 0.64937 0.38178 0.6783 0.0
H238 H 0.80585 0.28345 0.83102 0.0
C239 C 0.72449 0.38835 0.81697 0.0
C240 C 0.71139 0.80931 0.00598 0.0
C241 C 0.82211 0.81983 -0.0001 0.0
C242 C 0.86606 0.75702 0.02631 0.0
C243 C 0.69601 0.68415 0.06734 0.0
C244 C 0.64897 0.73829 0.0387 0.0
C245 C 0.52874 0.70476 0.04727 0.0
H246 H 0.28172 0.22341 0.04069 0.0
C247 C 0.61247 0.60999 0.09296 0.0
C248 C 0.51555 0.60672 0.07116 0.0
H249 H 0.18004 0.42427 -0.0485 0.0
H250 H 0.28066 0.55666 0.00422 0.0
H251 H 0.43762 0.2366 0.09139 0.0
H252 H 0.25556 0.23997 0.13289 0.0
H253 H 0.23756 0.3521 0.15406 0.0
H254 H 0.33141 0.30047 0.18324 0.0
H255 H 0.50969 0.30851 0.14025 0.0
H256 H 0.53502 0.34875 0.07655 0.0
C257 C 0.46757 0.70159 -1e-05 0.0
C258 C 0.49604 0.77222 0.08535 0.0
C259 C 0.6181 0.56724 0.27789 0.0
C260 C 0.52778 0.53627 0.3103 0.0
C261 C 0.42838 0.48997 0.29071 0.0
C262 C 0.41877 0.47025 0.23989 0.0
C263 C 0.50975 0.49697 0.20877 0.0
C264 C 0.60627 0.54987 0.22648 0.0
C265 C 0.68355 0.59308 0.18367 0.0
C266 C 0.6109 0.56401 0.13932 0.0
C267 C 0.51565 0.49951 0.15494 0.0
C268 C 0.77445 0.54528 0.18178 0.0
C269 C 0.7262 0.7026 0.18972 0.0
C270 C 0.28613 0.29621 0.03016 0.0
C271 C 0.23325 0.31443 -0.01178 0.0
C272 C 0.2281 0.40922 -0.01936 0.0
C273 C 0.28699 0.48559 0.01039 0.0
C274 C 0.35061 0.46643 0.04781 0.0
C275 C 0.33925 0.37216 0.06045 0.0
C276 C 0.38503 0.36423 0.10992 0.0
C277 C 0.43066 0.46939 0.12295 0.0
C278 C 0.4223 0.52993 0.08352 0.0
C279 C 0.47198 0.31149 0.10411 0.0
C280 C 0.29719 0.31167 0.14736 0.0
H281 H 0.83756 0.63939 0.07777 0.0
H282 H 0.67524 0.85567 -0.01404 0.0
H283 H 0.41021 0.74453 0.09612 0.0
H284 H 0.51038 0.84515 0.06924 0.0
H285 H 0.54209 0.77861 0.11982 0.0
H286 H 0.46538 0.6358 -0.02078 0.0
H287 H 0.50341 0.7648 -0.024 0.0
H288 H 0.38493 0.7026 0.00943 0.0
H289 H 0.69408 0.60733 0.29206 0.0
H290 H 0.35825 0.46987 0.31496 0.0
H291 H 0.34089 0.43982 0.22524 0.0
H292 H 0.74319 0.46687 0.17538 0.0
H293 H 0.8166 0.55629 0.21748 0.0
H294 H 0.8338 0.57595 0.15181 0.0
H295 H 0.6599 0.73636 0.18988 0.0
H296 H 0.78385 0.73465 0.15918 0.0
H297 H 0.76855 0.72093 0.22511 0.0
H298 H 0.94997 0.76211 0.02218 0.0
C299 C 0.80321 0.68889 0.05969 0.0
loop_
_geom_bond_atom_site_label_1
_geom_bond_atom_site_label_2
_geom_bond_distance
_geom_bond_site_symmetry_2
_ccdc_geom_bond_type
Co0 N5 2.057 . S
Co0 O17 2.021 . S
Co0 O20 2.062 1_455 S
Co0 O24 2.117 1_554 S
Co0 O25 2.020 1_565 S
C1 O21 1.259 1_455 S
C1 O24 1.258 1_545 S
Co2 N11 2.057 . S
Co2 O18 2.117 . S
Co2 O19 2.020 1_545 S
Co2 O21 2.021 1_554 S
Co2 O26 2.062 1_655 S
C3 N5 1.316 . S
C3 N6 1.347 . S
C3 H8 0.931 . S
C4 N5 1.375 1_556 S
C4 C7 1.350 . S
C4 H9 0.930 . S
N5 Co0 2.057 . S
N5 C3 1.316 . S
N5 C4 1.375 1_554 S
N6 C3 1.347 . S
N6 C7 1.373 1_554 S
C7 C4 1.350 . S
C7 N6 1.373 1_556 S
C7 H28 0.931 . S
H8 C3 0.931 . S
H9 C4 0.930 . S
C10 O17 1.259 1_545 S
C10 O18 1.258 1_455 S
N11 Co2 2.057 . S
N11 C12 1.316 . S
N11 C13 1.375 . S
C12 N11 1.316 . S
C12 N14 1.347 . S
C12 H23 0.931 1_554 S
C13 N11 1.375 . S
C13 C15 1.350 . S
C13 H22 0.930 . S
N14 C12 1.347 . S
N14 C15 1.373 . S
C15 C13 1.350 . S
C15 N14 1.373 . S
C15 H29 0.931 . S
C16 O19 1.256 . S
C16 O20 1.255 . S
O17 Co0 2.021 . S
O17 C10 1.259 1_565 S
O18 Co2 2.117 . S
O18 C10 1.258 1_655 S
O19 Co2 2.020 1_565 S
O19 C16 1.256 . S
O20 Co0 2.062 1_655 S
O20 C16 1.255 . S
O21 C1 1.259 1_655 S
O21 Co2 2.021 1_556 S
H22 C13 0.930 . S
H23 C12 0.931 1_556 S
O24 Co0 2.117 1_556 S
O24 C1 1.258 1_565 S
O25 Co0 2.020 1_545 S
O25 C27 1.256 . S
O26 Co2 2.062 1_455 S
O26 C27 1.255 . S
C27 O25 1.256 . S
C27 O26 1.255 . S
H28 C7 0.931 . S
H29 C15 0.931 . S
Co30 N35 2.057 . S
Co30 O47 2.021 . S
Co30 O50 2.062 . S
Co30 O54 2.117 . S
Co30 O55 2.020 . S
C31 O51 1.259 . S
C31 O54 1.258 . S
Co32 N41 2.057 . S
Co32 O48 2.117 . S
Co32 O49 2.020 . S
Co32 O51 2.021 . S
Co32 O56 2.062 . S
C33 N35 1.316 . S
C33 N36 1.347 . S
C33 H38 0.931 . S
C34 N35 1.375 . S
C34 C37 1.350 . S
C34 H39 0.930 . S
N35 Co30 2.057 . S
N35 C33 1.316 . S
N35 C34 1.375 . S
N36 C33 1.347 . S
N36 C37 1.373 . S
C37 C34 1.350 . S
C37 N36 1.373 . S
C37 H58 0.931 . S
H38 C33 0.931 . S
H39 C34 0.930 . S
C40 O47 1.259 . S
C40 O48 1.258 . S
N41 Co32 2.057 . S
N41 C42 1.316 . S
N41 C43 1.375 . S
C42 N41 1.316 . S
C42 N44 1.347 . S
C42 H53 0.931 . S
C43 N41 1.375 . S
C43 C45 1.350 . S
C43 H52 0.930 . S
N44 C42 1.347 . S
N44 C45 1.373 . S
C45 C43 1.350 . S
C45 N44 1.373 . S
C45 H59 0.931 . S
C46 O49 1.256 . S
C46 O50 1.255 . S
O47 Co30 2.021 . S
O47 C40 1.259 . S
O48 Co32 2.117 . S
O48 C40 1.258 . S
O49 Co32 2.020 . S
O49 C46 1.256 . S
O50 Co30 2.062 . S
O50 C46 1.255 . S
O51 C31 1.259 . S
O51 Co32 2.021 . S
H52 C43 0.930 . S
H53 C42 0.931 . S
O54 Co30 2.117 . S
O54 C31 1.258 . S
O55 Co30 2.020 . S
O55 C57 1.256 . S
O56 Co32 2.062 . S
O56 C57 1.255 . S
C57 O55 1.256 . S
C57 O56 1.255 . S
H58 C37 0.931 . S
H59 C45 0.931 . S
C60 C61 1.391 . S
C60 C64 1.391 . S
C60 H102 0.948 . S
C61 C60 1.391 . S
C61 C62 1.391 . S
C62 C61 1.391 . S
C62 H118 0.947 . S
C62 C119 1.392 . S
C63 C64 1.391 . S
C63 C67 1.397 . S
C63 C119 1.419 . S
C64 C60 1.391 . S
C64 C63 1.391 . S
C64 C65 1.399 . S
C65 C64 1.399 . S
C65 C68 1.396 . S
C65 C77 1.453 1_565 S
C65 C78 1.684 1_455 S
H66 C90 0.948 . S
C67 C63 1.397 . S
C67 C68 1.394 . S
C67 C86 1.723 . S
C68 C65 1.396 . S
C68 C67 1.394 . S
C68 C98 1.723 1_465 S
H69 C92 0.947 . S
H70 C93 0.948 . S
H71 C99 0.982 . S
H72 C100 0.979 . S
H73 C100 0.980 . S
H74 C100 0.983 . S
H75 C99 0.979 . S
H76 C99 0.977 . S
C77 C65 1.453 1_545 S
C77 H106 0.982 . S
C77 H107 0.979 1_545 S
C77 H108 0.977 . S
C78 C65 1.684 1_655 S
C78 H103 0.979 . S
C78 H104 0.980 . S
C78 H105 0.983 . S
C79 C80 1.391 1_465 S
C79 C84 1.391 . S
C79 H109 0.948 . S
C80 C79 1.391 1_645 S
C80 C81 1.391 . S
C81 C80 1.391 . S
C81 C82 1.392 . S
C81 H110 0.947 . S
C82 C81 1.392 . S
C82 C83 1.419 . S
C82 H111 0.948 . S
C83 C82 1.419 . S
C83 C84 1.391 1_645 S
C83 C87 1.397 . S
C84 C79 1.391 . S
C84 C83 1.391 1_465 S
C84 C85 1.399 . S
C85 C84 1.399 . S
C85 C86 1.396 . S
C85 C88 1.453 . S
C85 C89 1.684 . S
C86 C67 1.723 . S
C86 C85 1.396 . S
C86 C87 1.394 1_465 S
C87 C83 1.397 . S
C87 C86 1.394 1_645 S
C87 C97 1.723 . S
C88 C85 1.453 . S
C88 H112 0.982 . S
C88 H113 0.979 . S
C88 H114 0.977 . S
C89 C85 1.684 . S
C89 H115 0.979 1_455 S
C89 H116 0.980 . S
C89 H117 0.983 . S
C90 H66 0.948 . S
C90 C91 1.391 . S
C90 C95 1.391 . S
C91 C90 1.391 . S
C91 C92 1.391 . S
C92 H69 0.947 . S
C92 C91 1.391 . S
C92 C93 1.392 . S
C93 H70 0.948 . S
C93 C92 1.392 . S
C93 C94 1.419 . S
C94 C93 1.419 . S
C94 C95 1.391 . S
C94 C98 1.397 . S
C95 C90 1.391 . S
C95 C94 1.391 . S
C95 C96 1.399 . S
C96 C95 1.399 . S
C96 C97 1.396 . S
C96 C99 1.453 . S
C96 C100 1.684 . S
C97 C87 1.723 . S
C97 C96 1.396 . S
C97 C98 1.394 . S
C98 C68 1.723 1_645 S
C98 C94 1.397 . S
C98 C97 1.394 . S
C99 H71 0.982 . S
C99 H75 0.979 . S
C99 H76 0.977 . S
C99 C96 1.453 . S
C100 H72 0.979 . S
C100 H73 0.980 . S
C100 H74 0.983 . S
C100 C96 1.684 . S
H101 C119 0.948 . S
H102 C60 0.948 . S
H103 C78 0.979 . S
H104 C78 0.980 . S
H105 C78 0.983 . S
H106 C77 0.982 . S
H107 C77 0.979 1_565 S
H108 C77 0.977 . S
H109 C79 0.948 . S
H110 C81 0.947 . S
H111 C82 0.948 . S
H112 C88 0.982 . S
H113 C88 0.979 . S
H114 C88 0.977 . S
H115 C89 0.979 1_655 S
H116 C89 0.980 . S
H117 C89 0.983 . S
H118 C62 0.947 . S
C119 C62 1.392 . S
C119 C63 1.419 . S
C119 H101 0.948 . S
C120 C121 1.391 . S
C120 C124 1.391 . S
C120 H162 0.948 . S
C121 C120 1.391 . S
C121 C122 1.391 . S
C122 C121 1.391 . S
C122 H178 0.947 . S
C122 C179 1.392 . S
C123 C124 1.391 . S
C123 C127 1.397 . S
C123 C179 1.419 . S
C124 C120 1.391 . S
C124 C123 1.391 . S
C124 C125 1.399 . S
C125 C124 1.399 . S
C125 C128 1.396 . S
C125 C137 1.453 . S
C125 C138 1.684 1_455 S
H126 C150 0.948 . S
C127 C123 1.397 . S
C127 C128 1.394 . S
C127 C146 1.723 . S
C128 C125 1.396 . S
C128 C127 1.394 . S
C128 C158 1.723 1_445 S
H129 C152 0.947 . S
H130 C153 0.948 . S
H131 C159 0.982 . S
H132 C160 0.979 . S
H133 C160 0.980 . S
H134 C160 0.983 . S
H135 C159 0.979 . S
H136 C159 0.977 . S
C137 C125 1.453 . S
C137 H166 0.982 . S
C137 H167 0.979 . S
C137 H168 0.977 1_545 S
C138 C125 1.684 1_655 S
C138 H163 0.979 . S
C138 H164 0.980 . S
C138 H165 0.983 1_655 S
C139 C140 1.391 1_455 S
C139 C144 1.391 . S
C139 H169 0.948 . S
C140 C139 1.391 1_655 S
C140 C141 1.391 1_545 S
C141 C140 1.391 1_565 S
C141 C142 1.392 . S
C141 H170 0.947 . S
C142 C141 1.392 . S
C142 C143 1.420 . S
C142 H171 0.948 . S
C143 C142 1.420 . S
C143 C144 1.390 1_665 S
C143 C147 1.397 1_565 S
C144 C139 1.391 . S
C144 C143 1.390 1_445 S
C144 C145 1.399 . S
C145 C144 1.399 . S
C145 C146 1.396 . S
C145 C148 1.453 . S
C145 C149 1.684 . S
C146 C127 1.723 . S
C146 C145 1.396 . S
C146 C147 1.394 1_455 S
C147 C143 1.397 1_545 S
C147 C146 1.394 1_655 S
C147 C157 1.723 1_545 S
C148 C145 1.453 . S
C148 H172 0.982 . S
C148 H173 0.979 . S
C148 H174 0.977 . S
C149 C145 1.684 . S
C149 H175 0.979 . S
C149 H176 0.980 . S
C149 H177 0.983 . S
C150 H126 0.948 . S
C150 C151 1.391 . S
C150 C155 1.391 . S
C151 C150 1.391 . S
C151 C152 1.391 . S
C152 H129 0.947 . S
C152 C151 1.391 . S
C152 C153 1.392 . S
C153 H130 0.948 . S
C153 C152 1.392 . S
C153 C154 1.419 . S
C154 C153 1.419 . S
C154 C155 1.391 . S
C154 C158 1.397 . S
C155 C150 1.391 . S
C155 C154 1.391 . S
C155 C156 1.399 . S
C156 C155 1.399 . S
C156 C157 1.396 . S
C156 C159 1.453 . S
C156 C160 1.684 . S
C157 C147 1.723 1_565 S
C157 C156 1.396 . S
C157 C158 1.394 . S
C158 C128 1.723 1_665 S
C158 C154 1.397 . S
C158 C157 1.394 . S
C159 H131 0.982 . S
C159 H135 0.979 . S
C159 H136 0.977 . S
C159 C156 1.453 . S
C160 H132 0.979 . S
C160 H133 0.980 . S
C160 H134 0.983 . S
C160 C156 1.684 . S
H161 C179 0.948 . S
H162 C120 0.948 . S
H163 C138 0.979 . S
H164 C138 0.980 . S
H165 C138 0.983 1_455 S
H166 C137 0.982 . S
H167 C137 0.979 . S
H168 C137 0.977 1_565 S
H169 C139 0.948 . S
H170 C141 0.947 . S
H171 C142 0.948 . S
H172 C148 0.982 . S
H173 C148 0.979 . S
H174 C148 0.977 . S
H175 C149 0.979 . S
H176 C149 0.980 . S
H177 C149 0.983 . S
H178 C122 0.947 . S
C179 C122 1.392 . S
C179 C123 1.419 . S
C179 H161 0.948 . S
C180 C181 1.391 . S
C180 C184 1.391 . S
C180 H222 0.948 . S
C181 C180 1.391 . S
C181 C182 1.391 1_554 S
C182 C181 1.391 1_556 S
C182 H238 0.947 . S
C182 C239 1.392 . S
C183 C184 1.391 1_556 S
C183 C187 1.397 . S
C183 C239 1.419 . S
C184 C180 1.391 . S
C184 C183 1.391 1_554 S
C184 C185 1.399 . S
C185 C184 1.399 . S
C185 C188 1.396 1_554 S
C185 C197 1.453 . S
C185 C198 1.684 . S
H186 C210 0.948 . S
C187 C183 1.397 . S
C187 C188 1.394 . S
C187 C206 1.723 . S
C188 C185 1.396 1_556 S
C188 C187 1.394 . S
C188 C218 1.723 . S
H189 C212 0.947 . S
H190 C213 0.948 . S
H191 C219 0.982 . S
H192 C220 0.979 . S
H193 C220 0.980 . S
H194 C220 0.983 . S
H195 C219 0.979 . S
H196 C219 0.977 . S
C197 C185 1.453 . S
C197 H226 0.982 . S
C197 H227 0.979 . S
C197 H228 0.977 . S
C198 C185 1.684 . S
C198 H223 0.979 . S
C198 H224 0.980 . S
C198 H225 0.983 . S
C199 C200 1.391 . S
C199 C204 1.391 . S
C199 H229 0.948 . S
C200 C199 1.391 . S
C200 C201 1.391 . S
C201 C200 1.391 . S
C201 C202 1.392 . S
C201 H230 0.947 . S
C202 C201 1.392 . S
C202 C203 1.419 . S
C202 H231 0.948 . S
C203 C202 1.419 . S
C203 C204 1.391 . S
C203 C207 1.397 . S
C204 C199 1.391 . S
C204 C203 1.391 . S
C204 C205 1.399 . S
C205 C204 1.399 . S
C205 C206 1.396 . S
C205 C208 1.453 . S
C205 C209 1.684 . S
C206 C187 1.723 . S
C206 C205 1.396 . S
C206 C207 1.394 . S
C207 C203 1.397 . S
C207 C206 1.394 . S
C207 C217 1.723 . S
C208 C205 1.453 . S
C208 H232 0.982 . S
C208 H233 0.979 . S
C208 H234 0.977 . S
C209 C205 1.684 . S
C209 H235 0.979 . S
C209 H236 0.980 . S
C209 H237 0.983 . S
C210 H186 0.948 . S
C210 C211 1.391 1_556 S
C210 C215 1.391 . S
C211 C210 1.391 1_554 S
C211 C212 1.391 . S
C212 H189 0.947 . S
C212 C211 1.391 . S
C212 C213 1.392 . S
C213 H190 0.948 . S
C213 C212 1.392 . S
C213 C214 1.419 1_554 S
C214 C213 1.419 1_556 S
C214 C215 1.391 . S
C214 C218 1.397 . S
C215 C210 1.391 . S
C215 C214 1.391 . S
C215 C216 1.399 . S
C216 C215 1.399 . S
C216 C217 1.396 . S
C216 C219 1.453 . S
C216 C220 1.684 . S
C217 C207 1.723 . S
C217 C216 1.396 . S
C217 C218 1.394 . S
C218 C188 1.723 . S
C218 C214 1.397 . S
C218 C217 1.394 . S
C219 H191 0.982 . S
C219 H195 0.979 . S
C219 H196 0.977 . S
C219 C216 1.453 . S
C220 H192 0.979 . S
C220 H193 0.980 . S
C220 H194 0.983 . S
C220 C216 1.684 . S
H221 C239 0.948 . S
H222 C180 0.948 . S
H223 C198 0.979 . S
H224 C198 0.980 . S
H225 C198 0.983 . S
H226 C197 0.982 . S
H227 C197 0.979 . S
H228 C197 0.977 . S
H229 C199 0.948 . S
H230 C201 0.947 . S
H231 C202 0.948 . S
H232 C208 0.982 . S
H233 C208 0.979 . S
H234 C208 0.977 . S
H235 C209 0.979 . S
H236 C209 0.980 . S
H237 C209 0.983 . S
H238 C182 0.947 . S
C239 C182 1.392 . S
C239 C183 1.419 . S
C239 H221 0.948 . S
C240 C241 1.391 1_556 S
C240 C244 1.391 1_556 S
C240 H282 0.948 . S
C241 C240 1.391 1_554 S
C241 C242 1.391 . S
C242 C241 1.391 . S
C242 H298 0.947 . S
C242 C299 1.392 . S
C243 C244 1.391 . S
C243 C247 1.397 . S
C243 C299 1.419 . S
C244 C240 1.391 1_554 S
C244 C243 1.391 . S
C244 C245 1.399 1_554 S
C245 C244 1.399 1_556 S
C245 C248 1.396 1_556 S
C245 C257 1.453 . S
C245 C258 1.684 . S
H246 C270 0.948 . S
C247 C243 1.397 . S
C247 C248 1.394 . S
C247 C266 1.723 . S
C248 C245 1.396 1_554 S
C248 C247 1.394 . S
C248 C278 1.723 . S
H249 C272 0.947 . S
H250 C273 0.948 . S
H251 C279 0.982 . S
H252 C280 0.979 . S
H253 C280 0.980 . S
H254 C280 0.983 . S
H255 C279 0.979 . S
H256 C279 0.977 . S
C257 C245 1.453 . S
C257 H286 0.982 . S
C257 H287 0.979 . S
C257 H288 0.977 . S
C258 C245 1.684 . S
C258 H283 0.979 . S
C258 H284 0.980 . S
C258 H285 0.983 . S
C259 C260 1.391 . S
C259 C264 1.391 . S
C259 H289 0.948 . S
C260 C259 1.391 . S
C260 C261 1.391 . S
C261 C260 1.391 . S
C261 C262 1.392 . S
C261 H290 0.947 . S
C262 C261 1.392 . S
C262 C263 1.419 . S
C262 H291 0.948 . S
C263 C262 1.419 . S
C263 C264 1.391 . S
C263 C267 1.397 . S
C264 C259 1.391 . S
C264 C263 1.391 . S
C264 C265 1.399 . S
C265 C264 1.399 . S
C265 C266 1.396 . S
C265 C268 1.453 . S
C265 C269 1.684 . S
C266 C247 1.723 . S
C266 C265 1.396 . S
C266 C267 1.394 . S
C267 C263 1.397 . S
C267 C266 1.394 . S
C267 C277 1.723 . S
C268 C265 1.453 . S
C268 H292 0.982 . S
C268 H293 0.979 . S
C268 H294 0.977 . S
C269 C265 1.684 . S
C269 H295 0.979 . S
C269 H296 0.980 . S
C269 H297 0.983 . S
C270 H246 0.948 . S
C270 C271 1.391 1_554 S
C270 C275 1.391 . S
C271 C270 1.391 1_556 S
C271 C272 1.391 . S
C272 H249 0.947 . S
C272 C271 1.391 . S
C272 C273 1.392 . S
C273 H250 0.948 . S
C273 C272 1.392 . S
C273 C274 1.419 1_556 S
C274 C273 1.419 1_554 S
C274 C275 1.391 . S
C274 C278 1.397 . S
C275 C270 1.391 . S
C275 C274 1.391 . S
C275 C276 1.399 . S
C276 C275 1.399 . S
C276 C277 1.396 . S
C276 C279 1.453 . S
C276 C280 1.684 . S
C277 C267 1.723 . S
C277 C276 1.396 . S
C277 C278 1.394 . S
C278 C248 1.723 . S
C278 C274 1.397 . S
C278 C277 1.394 . S
C279 H251 0.982 . S
C279 H255 0.979 . S
C279 H256 0.977 . S
C279 C276 1.453 . S
C280 H252 0.979 . S
C280 H253 0.980 . S
C280 H254 0.983 . S
C280 C276 1.684 . S
H281 C299 0.948 . S
H282 C240 0.948 . S
H283 C258 0.979 . S
H284 C258 0.980 . S
H285 C258 0.983 . S
H286 C257 0.982 . S
H287 C257 0.979 . S
H288 C257 0.977 . S
H289 C259 0.948 . S
H290 C261 0.947 . S
H291 C262 0.948 . S
H292 C268 0.982 . S
H293 C268 0.979 . S
H294 C268 0.977 . S
H295 C269 0.979 . S
H296 C269 0.980 . S
H297 C269 0.983 . S
H298 C242 0.947 . S
C299 C242 1.392 . S
C299 C243 1.419 . S
C299 H281 0.948 . S
C271 C27 2.091 1_556 S
N6 C211 1.940 . S
C16 C241 1.662 . S
N14 C181 1.393 . S
C57 C151 2.091 . S
N36 C91 1.940 . S
C121 C46 1.662 . S
C61 N44 1.392 . S
C10 C80 1.291 1_455 S
C1 C140 1.545 1_455 S
C200 C40 1.291 . S
C31 C260 1.545 . S
