# Generated by pormake.
# Topology dag, (6,3)-cn, num edge types: 1
# Building blocks:
#     Node 0, Type 0, BuildingBlock: IZENUY_clean_sbu_0, # of connection points: 6
#     Node 1, Type 0, BuildingBlock: IZENUY_clean_sbu_0, # of connection points: 6
#     Node 2, Type 0, BuildingBlock: IZENUY_clean_sbu_0, # of connection points: 6
#     Node 3, Type 0, BuildingBlock: IZENUY_clean_sbu_0, # of connection points: 6
#     Node 4, Type 1, BuildingBlock: QEWDON_clean_linker_0, # of connection points: 3
#     Node 5, Type 1, BuildingBlock: QEWDON_clean_linker_0, # of connection points: 3
#     Node 6, Type 1, BuildingBlock: QEWDON_clean_linker_0, # of connection points: 3
#     Node 7, Type 1, BuildingBlock: QEWDON_clean_linker_0, # of connection points: 3
#     Node 8, Type 1, BuildingBlock: QEWDON_clean_linker_0, # of connection points: 3
#     Node 9, Type 1, BuildingBlock: QEWDON_clean_linker_0, # of connection points: 3
#     Node 10, Type 1, BuildingBlock: QEWDON_clean_linker_0, # of connection points: 3
#     Node 11, Type 1, BuildingBlock: QEWDON_clean_linker_0, # of connection points: 3
#     Edge 12, Type (0, 1), BuildingBlock: UVAHIK_clean_linker_0, # of connection points: 2
#     Edge 13, Type (0, 1), BuildingBlock: UVAHIK_clean_linker_0, # of connection points: 2
#     Edge 14, Type (0, 1), BuildingBlock: UVAHIK_clean_linker_0, # of connection points: 2
#     Edge 15, Type (0, 1), BuildingBlock: UVAHIK_clean_linker_0, # of connection points: 2
#     Edge 16, Type (0, 1), BuildingBlock: UVAHIK_clean_linker_0, # of connection points: 2
#     Edge 17, Type (0, 1), BuildingBlock: UVAHIK_clean_linker_0, # of connection points: 2
#     Edge 18, Type (0, 1), BuildingBlock: UVAHIK_clean_linker_0, # of connection points: 2
#     Edge 19, Type (0, 1), BuildingBlock: UVAHIK_clean_linker_0, # of connection points: 2
#     Edge 20, Type (0, 1), BuildingBlock: UVAHIK_clean_linker_0, # of connection points: 2
#     Edge 21, Type (0, 1), BuildingBlock: UVAHIK_clean_linker_0, # of connection points: 2
#     Edge 22, Type (0, 1), BuildingBlock: UVAHIK_clean_linker_0, # of connection points: 2
#     Edge 23, Type (0, 1), BuildingBlock: UVAHIK_clean_linker_0, # of connection points: 2
#     Edge 24, Type (0, 1), BuildingBlock: UVAHIK_clean_linker_0, # of connection points: 2
#     Edge 25, Type (0, 1), BuildingBlock: UVAHIK_clean_linker_0, # of connection points: 2
#     Edge 26, Type (0, 1), BuildingBlock: UVAHIK_clean_linker_0, # of connection points: 2
#     Edge 27, Type (0, 1), BuildingBlock: UVAHIK_clean_linker_0, # of connection points: 2
#     Edge 28, Type (0, 1), BuildingBlock: UVAHIK_clean_linker_0, # of connection points: 2
#     Edge 29, Type (0, 1), BuildingBlock: UVAHIK_clean_linker_0, # of connection points: 2
#     Edge 30, Type (0, 1), BuildingBlock: UVAHIK_clean_linker_0, # of connection points: 2
#     Edge 31, Type (0, 1), BuildingBlock: UVAHIK_clean_linker_0, # of connection points: 2
#     Edge 32, Type (0, 1), BuildingBlock: UVAHIK_clean_linker_0, # of connection points: 2
#     Edge 33, Type (0, 1), BuildingBlock: UVAHIK_clean_linker_0, # of connection points: 2
#     Edge 34, Type (0, 1), BuildingBlock: UVAHIK_clean_linker_0, # of connection points: 2
#     Edge 35, Type (0, 1), BuildingBlock: UVAHIK_clean_linker_0, # of connection points: 2
# Relax obj value: 0.042
# Max RMSD: 0.063
# Mean RMSD: 0.056
data_MOF--net-dag--node1-IZENUY_clean_sbu_0--node2-QEWDON_clean_linker_0--edge1-UVAHIK_clean_linker_0
_symmetry_space_group_name_H-M    P1
_symmetry_Int_Tables_number       1
_symmetry_cell_setting            triclinic
loop_
_symmetry_equiv_pos_as_xyz
'x, y, z'
_cell_length_a     53.180261
_cell_length_b     53.472816
_cell_length_c     48.462908
_cell_angle_alpha  91.331937
_cell_angle_beta   89.810413
_cell_angle_gamma 89.899865
loop_
_atom_site_label
_atom_site_type_symbol
_atom_site_fract_x
_atom_site_fract_y
_atom_site_fract_z
_atom_type_partial_charge
Fe0 Fe 0.17834 0.86819 0.03629 0.0
Fe1 Fe 0.12294 0.88102 0.02747 0.0
O2 O 0.14681 0.85843 0.03153 0.0
Fe3 Fe 0.13911 0.82618 0.03078 0.0
O4 O 0.16364 0.81739 0.0555 0.0
O5 O 0.17984 0.85331 0.06943 0.0
O6 O 0.17019 0.89731 0.0553 0.0
C7 C 0.15039 0.90359 0.0684 0.0
C8 C 0.18289 0.82529 0.00097 0.0
O9 O 0.12929 0.89495 0.06118 0.0
C10 C 0.10836 0.84625 0.98887 0.0
O11 O 0.17884 0.8838 0.00332 0.0
O12 O 0.14312 0.90358 0.01025 0.0
O13 O 0.15973 0.82017 0.00141 0.0
O14 O 0.19215 0.84078 0.01831 0.0
C15 C 0.09934 0.84473 0.06052 0.0
O16 O 0.11524 0.86849 0.99352 0.0
O17 O 0.1131 0.82926 0.00594 0.0
C18 C 0.16335 0.90054 0.99678 0.0
O19 O 0.09822 0.8626 0.04389 0.0
O20 O 0.11791 0.83 0.06013 0.0
C21 C 0.17544 0.83049 0.07333 0.0
Fe22 Fe 0.66893 0.63552 0.50531 0.0
Fe23 Fe 0.62821 0.67673 0.50803 0.0
O24 O 0.6368 0.64455 0.50717 0.0
Fe25 Fe 0.61307 0.6214 0.50803 0.0
O26 O 0.62538 0.60867 0.53945 0.0
O27 O 0.66502 0.60748 0.52633 0.0
O28 O 0.67614 0.65252 0.53707 0.0
C29 C 0.67185 0.67545 0.54162 0.0
C30 C 0.64821 0.60073 0.46981 0.0
O31 O 0.65627 0.68722 0.52704 0.0
C32 C 0.59136 0.65439 0.4732 0.0
O33 O 0.67845 0.66184 0.48393 0.0
O34 O 0.64319 0.68177 0.47501 0.0
O35 O 0.63014 0.59837 0.48657 0.0
O36 O 0.66427 0.6178 0.4733 0.0
C37 C 0.59541 0.65849 0.54607 0.0
O38 O 0.59844 0.67216 0.4891 0.0
O39 O 0.5993 0.63247 0.47651 0.0
C40 C 0.66573 0.67644 0.46914 0.0
O41 O 0.61267 0.67392 0.5412 0.0
O42 O 0.59146 0.64003 0.52982 0.0
C43 C 0.64754 0.6008 0.54243 0.0
Fe44 Fe 0.86232 0.1705 0.99789 0.0
Fe45 Fe 0.87617 0.11516 0.00198 0.0
O46 O 0.85306 0.1387 0.99905 0.0
Fe47 Fe 0.82077 0.13049 0.99732 0.0
O48 O 0.81223 0.15621 0.97439 0.0
O49 O 0.84844 0.17361 0.96412 0.0
O50 O 0.8925 0.16421 0.98022 0.0
C51 C 0.89968 0.14553 0.96564 0.0
C52 C 0.81829 0.17215 0.03105 0.0
O53 O 0.89108 0.12404 0.97003 0.0
C54 C 0.84042 0.0976 0.0371 0.0
O55 O 0.87685 0.16929 0.03169 0.0
O56 O 0.89765 0.13443 0.02297 0.0
O57 O 0.81369 0.1491 0.0282 0.0
O58 O 0.8339 0.18269 0.0153 0.0
C59 C 0.84136 0.09364 0.96423 0.0
O60 O 0.86277 0.10482 0.03408 0.0
O61 O 0.82362 0.10325 0.0198 0.0
C62 C 0.89359 0.15371 0.03801 0.0
O63 O 0.85891 0.09155 0.98162 0.0
O64 O 0.82561 0.11126 0.96637 0.0
C65 C 0.82573 0.16911 0.95844 0.0
Fe66 Fe 0.38182 0.37352 0.52236 0.0
Fe67 Fe 0.32619 0.36075 0.5294 0.0
O68 O 0.35782 0.35092 0.52505 0.0
Fe69 Fe 0.36555 0.31861 0.52358 0.0
O70 O 0.38601 0.32169 0.5535 0.0
O71 O 0.40603 0.35464 0.53878 0.0
O72 O 0.37459 0.38647 0.55628 0.0
C73 C 0.35336 0.39494 0.56346 0.0
C74 C 0.39742 0.33973 0.48295 0.0
O75 O 0.33386 0.3893 0.54969 0.0
C76 C 0.32255 0.31872 0.49269 0.0
O77 O 0.36214 0.39669 0.5054 0.0
O78 O 0.32654 0.37736 0.49708 0.0
O79 O 0.39205 0.32222 0.49922 0.0
O80 O 0.39049 0.36188 0.48833 0.0
C81 C 0.32813 0.32209 0.56538 0.0
O82 O 0.31284 0.33396 0.51011 0.0
O83 O 0.34562 0.31328 0.49371 0.0
C84 C 0.34211 0.39431 0.49159 0.0
O85 O 0.32376 0.34497 0.56189 0.0
O86 O 0.34047 0.3093 0.54759 0.0
C87 C 0.40418 0.33677 0.5553 0.0
H88 H 0.14171 0.12126 0.275 0.0
C89 C 0.12732 0.13037 0.26302 0.0
C90 C 0.12263 0.12232 0.23568 0.0
C91 C 0.11262 0.14942 0.27537 0.0
H92 H 0.09909 0.12727 0.20007 0.0
C93 C 0.10355 0.13409 0.22072 0.0
C94 C 0.08865 0.15304 0.23287 0.0
C95 C 0.09325 0.16057 0.2603 0.0
C96 C 0.11564 0.1561 0.30487 0.0
H97 H 0.08157 0.17486 0.27011 0.0
C98 C 0.13674 0.16957 0.31432 0.0
C99 C 0.13841 0.1773 0.34226 0.0
C100 C 0.09659 0.14979 0.32353 0.0
H101 H 0.08021 0.13945 0.31653 0.0
C102 C 0.0985 0.1568 0.35132 0.0
H103 H 0.15121 0.17486 0.29979 0.0
C104 C 0.11918 0.17054 0.36065 0.0
H105 H 0.12016 0.17591 0.38232 0.0
H106 H 0.08379 0.15177 0.36564 0.0
H107 H 0.4015 0.6687 0.77657 0.0
C108 C 0.39351 0.65239 0.76621 0.0
C109 C 0.4009 0.64608 0.73906 0.0
C110 C 0.37693 0.63684 0.78056 0.0
H111 H 0.39774 0.61873 0.70586 0.0
C112 C 0.39139 0.62422 0.72642 0.0
C113 C 0.37523 0.60834 0.74069 0.0
C114 C 0.36776 0.61489 0.76767 0.0
C115 C 0.37239 0.64134 0.81029 0.0
H116 H 0.35596 0.60227 0.77916 0.0
C117 C 0.35678 0.66098 0.81989 0.0
C118 C 0.35327 0.66518 0.84845 0.0
C119 C 0.38427 0.62588 0.82929 0.0
H120 H 0.39634 0.61068 0.8222 0.0
C121 C 0.38094 0.63009 0.85756 0.0
H122 H 0.34754 0.67292 0.80525 0.0
C123 C 0.36561 0.64964 0.86713 0.0
H124 H 0.36307 0.65238 0.88919 0.0
H125 H 0.39024 0.61814 0.8721 0.0
H126 H 0.8496 0.80601 0.20193 0.0
C127 C 0.84542 0.82569 0.19948 0.0
C128 C 0.86495 0.84261 0.1943 0.0
C129 C 0.82031 0.83383 0.20014 0.0
H130 H 0.87386 0.88083 0.18521 0.0
C131 C 0.85902 0.86792 0.19054 0.0
C132 C 0.83397 0.87632 0.19097 0.0
C133 C 0.81463 0.85906 0.19575 0.0
C134 C 0.79993 0.81532 0.20196 0.0
H135 H 0.79516 0.86509 0.19548 0.0
C136 C 0.79263 0.80569 0.2275 0.0
C137 C 0.77414 0.78696 0.22859 0.0
C138 C 0.78841 0.80647 0.17765 0.0
H139 H 0.79389 0.81372 0.15782 0.0
C140 C 0.77006 0.78789 0.17871 0.0
H141 H 0.80152 0.81246 0.24633 0.0
C142 C 0.76305 0.77804 0.20402 0.0
H143 H 0.74876 0.76363 0.20448 0.0
H144 H 0.76133 0.78103 0.15987 0.0
H145 H 0.70372 0.35916 0.67935 0.0
C146 C 0.68453 0.35305 0.68271 0.0
C147 C 0.66478 0.37037 0.68143 0.0
C148 C 0.67962 0.32783 0.68807 0.0
H149 H 0.62465 0.3754 0.68288 0.0
C150 C 0.63999 0.36224 0.68525 0.0
C151 C 0.6347 0.33686 0.68938 0.0
C152 C 0.65468 0.31975 0.69123 0.0
C153 C 0.70056 0.30971 0.68839 0.0
H154 H 0.6508 0.30008 0.69409 0.0
C155 C 0.70719 0.2978 0.71288 0.0
C156 C 0.72822 0.28176 0.71346 0.0
C157 C 0.71464 0.30509 0.66428 0.0
H158 H 0.70978 0.31417 0.64526 0.0
C159 C 0.73505 0.28869 0.66454 0.0
H160 H 0.69663 0.30186 0.73163 0.0
C161 C 0.7419 0.27716 0.68895 0.0
H162 H 0.75792 0.26462 0.68865 0.0
H163 H 0.74576 0.28509 0.64583 0.0
H164 H 0.65374 0.38885 0.25766 0.0
C165 C 0.64018 0.37848 0.2696 0.0
C166 C 0.6347 0.38603 0.29691 0.0
C167 C 0.62747 0.35818 0.25722 0.0
H168 H 0.61128 0.3795 0.33228 0.0
C169 C 0.61648 0.37285 0.31174 0.0
C170 C 0.60332 0.35269 0.29954 0.0
C171 C 0.60908 0.34537 0.27217 0.0
C172 C 0.63094 0.35266 0.22753 0.0
H173 H 0.59884 0.33018 0.2622 0.0
C174 C 0.65015 0.33654 0.21792 0.0
C175 C 0.65376 0.33244 0.18935 0.0
C176 C 0.61517 0.36434 0.20859 0.0
H177 H 0.60031 0.37681 0.21574 0.0
C178 C 0.6186 0.36021 0.18032 0.0
H179 H 0.66243 0.32762 0.23255 0.0
C180 C 0.63782 0.34446 0.1707 0.0
H181 H 0.64006 0.34144 0.14865 0.0
H182 H 0.60638 0.3693 0.1658 0.0
H183 H 0.21188 0.13164 0.83977 0.0
C184 C 0.19181 0.13496 0.83841 0.0
C185 C 0.17497 0.115 0.84089 0.0
C186 C 0.18276 0.15933 0.83483 0.0
H187 H 0.13612 0.10435 0.84365 0.0
C188 C 0.14901 0.11965 0.84013 0.0
C189 C 0.13963 0.14407 0.83749 0.0
C190 C 0.15675 0.16385 0.8344 0.0
C191 C 0.20048 0.18043 0.83443 0.0
H192 H 0.14993 0.18284 0.83252 0.0
C193 C 0.20837 0.19053 0.80935 0.0
C194 C 0.22519 0.21085 0.80923 0.0
C195 C 0.20949 0.19055 0.85942 0.0
H196 H 0.20358 0.18289 0.8789 0.0
C197 C 0.22611 0.2107 0.85944 0.0
H198 H 0.20126 0.18271 0.79007 0.0
C199 C 0.23391 0.22084 0.83455 0.0
H200 H 0.24708 0.23627 0.83511 0.0
H201 H 0.23303 0.21845 0.8788 0.0
H202 H 0.34089 0.68734 0.3399 0.0
C203 C 0.33562 0.66789 0.34186 0.0
C204 C 0.35432 0.64946 0.34433 0.0
C205 C 0.31006 0.66141 0.34311 0.0
H206 H 0.36123 0.61009 0.34986 0.0
C207 C 0.34704 0.62438 0.347 0.0
C208 C 0.32157 0.61774 0.3485 0.0
C209 C 0.30312 0.63639 0.34684 0.0
C210 C 0.2906 0.68104 0.34262 0.0
H211 H 0.28341 0.6315 0.34859 0.0
C212 C 0.28534 0.6936 0.31816 0.0
C213 C 0.26668 0.71229 0.31781 0.0
C214 C 0.27717 0.6872 0.36678 0.0
H215 H 0.28099 0.67763 0.38578 0.0
C216 C 0.25889 0.70595 0.36664 0.0
H217 H 0.2957 0.68875 0.29947 0.0
C218 C 0.25367 0.71848 0.34235 0.0
H219 H 0.23908 0.73265 0.34262 0.0
H220 H 0.24864 0.7107 0.38537 0.0
H221 H 0.91115 0.82779 0.76719 0.0
C222 C 0.89801 0.84124 0.77615 0.0
C223 C 0.90172 0.85029 0.80318 0.0
C224 C 0.87765 0.84969 0.76045 0.0
H225 H 0.88863 0.87589 0.8349 0.0
C226 C 0.88495 0.86799 0.8145 0.0
C227 C 0.86498 0.87734 0.79881 0.0
C228 C 0.86116 0.86777 0.77183 0.0
C229 C 0.87513 0.84088 0.73143 0.0
H230 H 0.84606 0.87508 0.75938 0.0
C231 C 0.85342 0.82819 0.72226 0.0
C232 C 0.85251 0.81774 0.69533 0.0
C233 C 0.89541 0.8439 0.71316 0.0
H234 H 0.91224 0.85368 0.71981 0.0
C235 C 0.89423 0.8342 0.68625 0.0
H236 H 0.83788 0.82543 0.73638 0.0
C237 C 0.87303 0.82101 0.67742 0.0
H238 H 0.87265 0.8133 0.65655 0.0
H239 H 0.90994 0.83661 0.67231 0.0
C240 C 0.17492 0.93384 0.09814 0.0
C241 C 0.15165 0.92353 0.09015 0.0
C242 C 0.17601 0.95365 0.11746 0.0
C243 C 0.1384 0.98777 0.17116 0.0
H244 H 0.18259 0.04305 0.15447 0.0
C245 C 0.14242 0.09937 0.19544 0.0
C246 C 0.13525 0.09986 0.22339 0.0
C247 C 0.14948 0.07693 0.18224 0.0
C248 C 0.17017 0.02776 0.15947 0.0
H249 H 0.11133 0.92562 0.09686 0.0
H250 H 0.11321 0.96032 0.13013 0.0
H251 H 0.18375 0.00516 0.12558 0.0
H252 H 0.13154 0.07745 0.25988 0.0
H253 H 0.14451 0.03834 0.23701 0.0
H254 H 0.12389 0.01083 0.20414 0.0
C255 C 0.13067 0.95291 0.12176 0.0
C256 C 0.17102 0.00591 0.14306 0.0
C257 C 0.12957 0.93308 0.1025 0.0
C258 C 0.13706 0.07773 0.23836 0.0
C259 C 0.14416 0.05525 0.22515 0.0
C260 C 0.13752 0.00964 0.18751 0.0
C261 C 0.15388 0.96363 0.12927 0.0
C262 C 0.15476 0.98584 0.14836 0.0
C263 C 0.14962 0.05443 0.19671 0.0
C264 C 0.15303 0.03011 0.18154 0.0
H265 H 0.19232 0.92682 0.08923 0.0
H266 H 0.19422 0.96121 0.12307 0.0
H267 H 0.1259 0.97254 0.17609 0.0
H268 H 0.14145 0.11618 0.18343 0.0
H269 H 0.15341 0.07705 0.16031 0.0
C270 C 0.57508 0.68666 0.58203 0.0
C271 C 0.57826 0.66273 0.56983 0.0
C272 C 0.55799 0.69043 0.60383 0.0
C273 C 0.52522 0.65763 0.65898 0.0
H274 H 0.472 0.70669 0.65148 0.0
C275 C 0.4447 0.66288 0.73747 0.0
C276 C 0.42115 0.65982 0.72482 0.0
C277 C 0.46565 0.66985 0.7219 0.0
C278 C 0.48692 0.69312 0.65401 0.0
H279 H 0.56663 0.62392 0.57141 0.0
H280 H 0.53729 0.63044 0.60963 0.0
H281 H 0.50641 0.70485 0.61768 0.0
H282 H 0.40049 0.6637 0.68674 0.0
H283 H 0.43694 0.67614 0.65959 0.0
H284 H 0.50544 0.64521 0.69459 0.0
C285 C 0.54783 0.64629 0.60227 0.0
C286 C 0.50664 0.69216 0.63478 0.0
C287 C 0.5645 0.64261 0.58025 0.0
C288 C 0.41847 0.66592 0.69694 0.0
C289 C 0.43933 0.67313 0.68146 0.0
C290 C 0.50574 0.65879 0.67835 0.0
C291 C 0.54425 0.67024 0.61415 0.0
C292 C 0.52555 0.6739 0.63665 0.0
C293 C 0.46334 0.67412 0.69349 0.0
C294 C 0.486 0.67608 0.67567 0.0
H295 H 0.5854 0.70253 0.5744 0.0
H296 H 0.55557 0.70907 0.61269 0.0
H297 H 0.53966 0.64348 0.66099 0.0
H298 H 0.44733 0.65809 0.75887 0.0
H299 H 0.48389 0.67069 0.73176 0.0
C300 C 0.85132 0.07722 0.08139 0.0
C301 C 0.83493 0.07944 0.05891 0.0
C302 C 0.84793 0.05834 0.10046 0.0
C303 C 0.80347 0.00894 0.12363 0.0
H304 H 0.86533 0.976 0.14449 0.0
C305 C 0.80986 0.90765 0.16364 0.0
C306 C 0.82836 0.90252 0.1834 0.0
C307 C 0.80766 0.93162 0.15288 0.0
C308 C 0.84787 0.9852 0.13931 0.0
H309 H 0.80145 0.06425 0.03945 0.0
H310 H 0.79593 0.03076 0.07225 0.0
H311 H 0.86721 0.01341 0.11729 0.0
H312 H 0.85758 0.91894 0.20905 0.0
H313 H 0.85372 0.96074 0.19032 0.0
H314 H 0.78422 0.97983 0.14494 0.0
C315 C 0.81117 0.04389 0.0755 0.0
C316 C 0.84893 0.00676 0.12369 0.0
C317 C 0.81439 0.06304 0.05658 0.0
C318 C 0.84344 0.92223 0.1935 0.0
C319 C 0.84126 0.94614 0.18275 0.0
C320 C 0.80241 0.98718 0.13915 0.0
C321 C 0.82826 0.04094 0.09731 0.0
C322 C 0.82677 0.01886 0.11546 0.0
C323 C 0.82393 0.9509 0.16166 0.0
C324 C 0.82463 0.975 0.14701 0.0
H325 H 0.86712 0.08983 0.08399 0.0
H326 H 0.86108 0.05708 0.11739 0.0
H327 H 0.78603 0.01792 0.11796 0.0
H328 H 0.79811 0.89282 0.15525 0.0
H329 H 0.79423 0.93464 0.13653 0.0
C330 C 0.4441 0.35066 0.5777 0.0
C331 C 0.42464 0.33298 0.57552 0.0
C332 C 0.46357 0.34766 0.59647 0.0
C333 C 0.49792 0.30088 0.63555 0.0
H334 H 0.52536 0.36052 0.67097 0.0
C335 C 0.6015 0.31037 0.66727 0.0
C336 C 0.60829 0.32825 0.68754 0.0
C337 C 0.57622 0.3066 0.66056 0.0
C338 C 0.51778 0.34347 0.66188 0.0
H339 H 0.41038 0.29824 0.59165 0.0
H340 H 0.44474 0.29297 0.62471 0.0
H341 H 0.48599 0.36301 0.64627 0.0
H342 H 0.5941 0.35442 0.71858 0.0
H343 H 0.54986 0.34713 0.70779 0.0
H344 H 0.52993 0.28137 0.6511 0.0
C345 C 0.4448 0.30911 0.61163 0.0
C346 C 0.49529 0.34502 0.64731 0.0
C347 C 0.42512 0.31217 0.59277 0.0
C348 C 0.58931 0.34067 0.7027 0.0
C349 C 0.564 0.33663 0.69631 0.0
C350 C 0.52044 0.29927 0.65035 0.0
C351 C 0.46419 0.32693 0.61374 0.0
C352 C 0.48558 0.32399 0.63309 0.0
C353 C 0.55718 0.32048 0.67421 0.0
C354 C 0.53111 0.32076 0.66293 0.0
H355 H 0.44443 0.36694 0.56481 0.0
H356 H 0.47845 0.36147 0.5971 0.0
H357 H 0.4909 0.28432 0.62487 0.0
H358 H 0.6158 0.30073 0.65509 0.0
H359 H 0.57185 0.29418 0.64329 0.0
C360 C 0.67467 0.57749 0.43441 0.0
C361 C 0.65123 0.58187 0.44717 0.0
C362 C 0.67738 0.55851 0.41415 0.0
C363 C 0.64129 0.51965 0.36453 0.0
H364 H 0.69292 0.4694 0.37459 0.0
C365 C 0.65355 0.40992 0.33688 0.0
C366 C 0.64558 0.40927 0.30925 0.0
C367 C 0.65967 0.43264 0.35003 0.0
C368 C 0.67853 0.48339 0.37139 0.0
H369 H 0.61211 0.57045 0.44799 0.0
H370 H 0.61677 0.53775 0.41259 0.0
H371 H 0.69227 0.50704 0.40437 0.0
H372 H 0.63905 0.43174 0.27331 0.0
H373 H 0.64986 0.47144 0.29626 0.0
H374 H 0.6269 0.49573 0.33237 0.0
C375 C 0.63308 0.54883 0.41825 0.0
C376 C 0.67828 0.505 0.38828 0.0
C377 C 0.63046 0.56745 0.4387 0.0
C378 C 0.64528 0.43162 0.29457 0.0
C379 C 0.65124 0.45438 0.30778 0.0
C380 C 0.64167 0.49822 0.34752 0.0
C381 C 0.65658 0.54396 0.40595 0.0
C382 C 0.65921 0.523 0.38552 0.0
C383 C 0.65778 0.45522 0.33588 0.0
C384 C 0.6599 0.47953 0.35121 0.0
H385 H 0.69102 0.58829 0.44053 0.0
H386 H 0.69569 0.55518 0.40492 0.0
H387 H 0.6265 0.53332 0.36179 0.0
H388 H 0.65411 0.39295 0.34864 0.0
H389 H 0.66447 0.43263 0.37173 0.0
C390 C 0.9264 0.12893 0.92663 0.0
C391 C 0.92085 0.14816 0.94597 0.0
C392 C 0.94755 0.13045 0.90955 0.0
C393 C 0.99773 0.17397 0.88561 0.0
H394 H 0.0356 0.11237 0.8758 0.0
C395 C 0.10386 0.16871 0.8586 0.0
C396 C 0.11224 0.14885 0.84135 0.0
C397 C 0.07853 0.17062 0.86627 0.0
C398 C 0.02507 0.12967 0.87791 0.0
H399 H 0.93278 0.18444 0.96193 0.0
H400 H 0.97006 0.18676 0.93284 0.0
H401 H 0.99516 0.11168 0.89911 0.0
H402 H 0.10015 0.11666 0.81683 0.0
H403 H 0.05601 0.11988 0.83043 0.0
H404 H 0.02846 0.19201 0.86534 0.0
C405 C 0.95782 0.17071 0.93036 0.0
C406 C 0.00178 0.12929 0.89126 0.0
C407 C 0.93649 0.16932 0.94722 0.0
C408 C 0.09441 0.1319 0.83055 0.0
C409 C 0.06913 0.13373 0.83834 0.0
C410 C 0.0212 0.17437 0.87244 0.0
C411 C 0.96388 0.1511 0.91162 0.0
C412 C 0.98787 0.15146 0.89557 0.0
C413 C 0.06106 0.15266 0.85695 0.0
C414 C 0.03522 0.15224 0.86868 0.0
H415 H 0.91454 0.11252 0.92489 0.0
H416 H 0.95124 0.11525 0.89494 0.0
H417 H 0.9874 0.19134 0.88813 0.0
H418 H 0.11709 0.18194 0.86756 0.0
H419 H 0.07294 0.18531 0.88079 0.0
C420 C 0.31262 0.41409 0.45766 0.0
C421 C 0.33614 0.41335 0.47083 0.0
C422 C 0.30716 0.43295 0.43894 0.0
C423 C 0.33826 0.48084 0.39618 0.0
H424 H 0.27516 0.51682 0.4033 0.0
C425 C 0.30097 0.58634 0.37846 0.0
C426 C 0.31484 0.59162 0.35464 0.0
C427 C 0.29885 0.56173 0.38735 0.0
C428 C 0.29288 0.50697 0.40103 0.0
H429 H 0.3725 0.4316 0.47416 0.0
H430 H 0.36294 0.4643 0.44218 0.0
H431 H 0.28173 0.47885 0.42939 0.0
H432 H 0.33555 0.57542 0.3201 0.0
H433 H 0.33098 0.53232 0.33483 0.0
H434 H 0.35024 0.50958 0.36946 0.0
C435 C 0.34876 0.45024 0.44587 0.0
C436 C 0.29652 0.48502 0.41574 0.0
C437 C 0.35416 0.43155 0.46449 0.0
C438 C 0.32494 0.57177 0.3387 0.0
C439 C 0.32247 0.54714 0.34731 0.0
C440 C 0.33472 0.50279 0.3817 0.0
C441 C 0.3252 0.45128 0.43291 0.0
C442 C 0.31958 0.47216 0.41413 0.0
C443 C 0.31033 0.54188 0.37237 0.0
C444 C 0.31225 0.51656 0.38448 0.0
H445 H 0.29833 0.40031 0.46204 0.0
H446 H 0.28888 0.43318 0.42917 0.0
H447 H 0.35607 0.47112 0.39405 0.0
H448 H 0.29319 0.60138 0.39121 0.0
H449 H 0.28958 0.55856 0.40688 0.0
C450 C 0.07094 0.82423 0.96896 0.0
C451 C 0.09077 0.84124 0.96591 0.0
C452 C 0.05235 0.82193 0.94872 0.0
C453 C 0.02585 0.85722 0.88991 0.0
H454 H 0.98619 0.79697 0.87931 0.0
C455 C 0.94844 0.84761 0.80723 0.0
C456 C 0.92456 0.84348 0.81869 0.0
C457 C 0.97008 0.84435 0.82305 0.0
C458 C 0.99722 0.81385 0.88207 0.0
H459 H 0.10769 0.86802 0.9387 0.0
H460 H 0.0763 0.86292 0.90256 0.0
H461 H 0.02267 0.7965 0.90984 0.0
H462 H 0.90446 0.83171 0.85506 0.0
H463 H 0.94252 0.8252 0.88256 0.0
H464 H 0.00062 0.87424 0.86149 0.0
C465 C 0.07422 0.85217 0.92107 0.0
C466 C 0.01801 0.81372 0.89971 0.0
C467 C 0.09243 0.85494 0.94164 0.0
C468 C 0.92271 0.83495 0.84581 0.0
C469 C 0.94439 0.83116 0.86144 0.0
C470 C 0.00546 0.85714 0.87183 0.0
C471 C 0.05347 0.83619 0.92464 0.0
C472 C 0.03244 0.83553 0.90423 0.0
C473 C 0.9682 0.8364 0.85038 0.0
C474 C 0.99079 0.83559 0.86804 0.0
H475 H 0.06908 0.81362 0.98763 0.0
H476 H 0.03659 0.80972 0.95261 0.0
H477 H 0.0359 0.8746 0.8932 0.0
H478 H 0.95031 0.85444 0.78645 0.0
H479 H 0.98826 0.84851 0.81414 0.0
C480 C 0.85948 0.0594 0.93452 0.0
C481 C 0.83857 0.074 0.94244 0.0
C482 C 0.85714 0.04026 0.91466 0.0
C483 C 0.81302 0.99525 0.886 0.0
H484 H 0.8641 0.98642 0.82928 0.0
C485 C 0.8491 0.9211 0.794 0.0
C486 C 0.85077 0.89939 0.80967 0.0
C487 C 0.84131 0.94375 0.80633 0.0
C488 C 0.84938 0.98878 0.84464 0.0
H489 H 0.79877 0.08008 0.93557 0.0
H490 H 0.79457 0.04596 0.90107 0.0
H491 H 0.86363 0.02447 0.85795 0.0
H492 H 0.84347 0.8838 0.84976 0.0
H493 H 0.82979 0.92325 0.87127 0.0
H494 H 0.79945 0.95899 0.8734 0.0
C495 C 0.81279 0.04962 0.91022 0.0
C496 C 0.84928 0.01048 0.86122 0.0
C497 C 0.81523 0.06916 0.92984 0.0
C498 C 0.84248 0.9003 0.83725 0.0
C499 C 0.83451 0.92288 0.84951 0.0
C500 C 0.81328 0.97335 0.86957 0.0
C501 C 0.83376 0.035 0.90247 0.0
C502 C 0.83149 0.01368 0.88249 0.0
C503 C 0.83486 0.94506 0.8345 0.0
C504 C 0.83182 0.96965 0.8491 0.0
H505 H 0.87774 0.06275 0.94372 0.0
H506 H 0.87357 0.02913 0.90931 0.0
H507 H 0.79915 0.99721 0.90234 0.0
H508 H 0.85552 0.92102 0.77276 0.0
H509 H 0.8415 0.96049 0.79416 0.0
C510 C 0.42605 0.31145 0.45485 0.0
C511 C 0.41503 0.33511 0.45955 0.0
C512 C 0.44433 0.3079 0.43423 0.0
C513 C 0.47223 0.33769 0.37239 0.0
H514 H 0.53207 0.30084 0.39226 0.0
C515 C 0.58338 0.33776 0.34325 0.0
C516 C 0.58188 0.3414 0.31466 0.0
C517 C 0.56205 0.33127 0.35837 0.0
C518 C 0.5155 0.3112 0.38636 0.0
H519 H 0.41399 0.37335 0.44548 0.0
H520 H 0.44591 0.36731 0.41013 0.0
H521 H 0.49582 0.30141 0.42315 0.0
H522 H 0.55698 0.33946 0.27931 0.0
H523 H 0.51999 0.32726 0.30552 0.0
H524 H 0.49234 0.34878 0.3365 0.0
C525 C 0.4403 0.35134 0.42203 0.0
C526 C 0.49456 0.31127 0.40393 0.0
C527 C 0.42207 0.35487 0.44253 0.0
C528 C 0.55888 0.33672 0.30127 0.0
C529 C 0.53756 0.33006 0.31639 0.0
C530 C 0.49318 0.33775 0.35492 0.0
C531 C 0.45194 0.32792 0.41783 0.0
C532 C 0.47289 0.32505 0.3975 0.0
C533 C 0.53867 0.32805 0.34526 0.0
C534 C 0.51533 0.325 0.36199 0.0
H535 H 0.42099 0.29578 0.46748 0.0
H536 H 0.45267 0.28954 0.43133 0.0
H537 H 0.4557 0.34813 0.36652 0.0
H538 H 0.60089 0.34085 0.35414 0.0
H539 H 0.5637 0.33008 0.38056 0.0
C540 C 0.15098 0.93561 0.96667 0.0
C541 C 0.16937 0.91838 0.97476 0.0
C542 C 0.1562 0.95304 0.94657 0.0
C543 C 0.20763 0.98725 0.91442 0.0
H544 H 0.15386 0.00649 0.86541 0.0
C545 C 0.19796 0.08609 0.87168 0.0
C546 C 0.18389 0.08967 0.84766 0.0
C547 C 0.20173 0.062 0.88153 0.0
C548 C 0.16943 0.00117 0.87836 0.0
H549 H 0.20768 0.90575 0.96764 0.0
H550 H 0.21686 0.93651 0.93218 0.0
H551 H 0.14935 0.96938 0.89261 0.0
H552 H 0.16469 0.0711 0.81369 0.0
H553 H 0.17224 0.02891 0.83004 0.0
H554 H 0.22768 0.01921 0.90017 0.0
C555 C 0.19841 0.93646 0.9417 0.0
C556 C 0.16664 0.97999 0.89433 0.0
C557 C 0.19312 0.91882 0.96191 0.0
C558 C 0.17543 0.06874 0.83241 0.0
C559 C 0.1796 0.04463 0.84195 0.0
C560 C 0.21054 0.00842 0.89821 0.0
C561 C 0.17995 0.95376 0.93384 0.0
C562 C 0.18523 0.97335 0.91334 0.0
C563 C 0.19177 0.041 0.86732 0.0
C564 C 0.19108 0.01616 0.88069 0.0
H565 H 0.13245 0.93585 0.97603 0.0
H566 H 0.1417 0.96639 0.94147 0.0
H567 H 0.22234 0.98261 0.92884 0.0
H568 H 0.20446 0.102 0.88391 0.0
H569 H 0.21096 0.0601 0.90124 0.0
C570 C 0.56688 0.64072 0.4316 0.0
C571 C 0.57094 0.65834 0.45307 0.0
C572 C 0.54614 0.64286 0.41421 0.0
C573 C 0.49381 0.68542 0.39393 0.0
H574 H 0.45981 0.62261 0.37836 0.0
C575 C 0.38835 0.67585 0.36577 0.0
C576 C 0.38127 0.65624 0.34758 0.0
C577 C 0.41354 0.67903 0.37328 0.0
C578 C 0.46926 0.6403 0.38203 0.0
H579 H 0.55699 0.6926 0.47244 0.0
H580 H 0.52031 0.69593 0.44267 0.0
H581 H 0.49993 0.62247 0.4019 0.0
H582 H 0.39532 0.62611 0.32107 0.0
H583 H 0.43927 0.63166 0.33418 0.0
H584 H 0.46226 0.70319 0.37496 0.0
C585 C 0.5334 0.6807 0.43885 0.0
C586 C 0.49237 0.64024 0.39555 0.0
C587 C 0.55438 0.67874 0.45605 0.0
C588 C 0.40014 0.64111 0.3355 0.0
C589 C 0.42528 0.64426 0.34304 0.0
C590 C 0.47049 0.68548 0.38055 0.0
C591 C 0.52871 0.66246 0.41809 0.0
C592 C 0.5049 0.66278 0.40192 0.0
C593 C 0.43214 0.66265 0.36279 0.0
C594 C 0.45788 0.66291 0.37466 0.0
H595 H 0.57952 0.62498 0.4285 0.0
H596 H 0.54354 0.62882 0.39801 0.0
H597 H 0.50305 0.70311 0.39816 0.0
H598 H 0.37426 0.68768 0.37564 0.0
H599 H 0.41818 0.69328 0.38867 0.0
C600 C 0.37358 0.42126 0.60059 0.0
C601 C 0.35177 0.41376 0.58637 0.0
C602 C 0.37243 0.43981 0.6213 0.0
C603 C 0.33418 0.49366 0.64495 0.0
H604 H 0.37884 0.49156 0.70796 0.0
C605 C 0.3438 0.57613 0.72462 0.0
C606 C 0.36888 0.58362 0.72831 0.0
C607 C 0.33832 0.55337 0.71099 0.0
C608 C 0.36618 0.49236 0.69052 0.0
H609 H 0.31145 0.41941 0.58344 0.0
H610 H 0.30944 0.4517 0.61987 0.0
H611 H 0.37525 0.45501 0.67719 0.0
H612 H 0.40783 0.57301 0.72198 0.0
H613 H 0.39837 0.53334 0.69858 0.0
H614 H 0.32555 0.53127 0.65814 0.0
C615 C 0.3275 0.44344 0.61465 0.0
C616 C 0.3642 0.47148 0.67282 0.0
C617 C 0.32865 0.42486 0.59385 0.0
C618 C 0.38833 0.56769 0.71917 0.0
C619 C 0.38291 0.54491 0.706 0.0
C620 C 0.33605 0.51452 0.6628 0.0
C621 C 0.34943 0.45128 0.62847 0.0
C622 C 0.34878 0.47214 0.64934 0.0
C623 C 0.35788 0.53762 0.70143 0.0
C624 C 0.35265 0.51431 0.68528 0.0
H625 H 0.39171 0.41313 0.59542 0.0
H626 H 0.38977 0.44564 0.63116 0.0
H627 H 0.32226 0.49489 0.62696 0.0
H628 H 0.32853 0.58817 0.73154 0.0
H629 H 0.31887 0.54814 0.70778 0.0
C630 C 0.07819 0.82251 0.09964 0.0
C631 C 0.07706 0.83944 0.07787 0.0
C632 C 0.05668 0.81757 0.11546 0.0
C633 C 0.98782 0.81924 0.11151 0.0
H634 H 0.98788 0.82674 0.19128 0.0
C635 C 0.91172 0.84801 0.19846 0.0
C636 C 0.89111 0.83379 0.18905 0.0
C637 C 0.936 0.8427 0.18884 0.0
C638 C 0.98763 0.82439 0.16903 0.0
H639 H 0.05244 0.86442 0.05573 0.0
H640 H 0.01525 0.85559 0.08293 0.0
H641 H 0.02757 0.82949 0.16561 0.0
H642 H 0.88013 0.80169 0.16373 0.0
H643 H 0.92255 0.79218 0.14731 0.0
H644 H 0.94799 0.8152 0.11451 0.0
C645 C 0.03265 0.84611 0.08778 0.0
C646 C 0.01034 0.82578 0.15439 0.0
C647 C 0.05406 0.85129 0.07232 0.0
C648 C 0.89558 0.81295 0.17149 0.0
C649 C 0.91986 0.80766 0.16184 0.0
C650 C 0.96524 0.81764 0.12608 0.0
C651 C 0.03365 0.82914 0.10941 0.0
C652 C 0.0105 0.82396 0.12542 0.0
C653 C 0.94019 0.82306 0.16956 0.0
C654 C 0.96476 0.82084 0.15495 0.0
H655 H 0.09565 0.81316 0.10449 0.0
H656 H 0.05794 0.80442 0.13207 0.0
H657 H 0.98745 0.81754 0.08919 0.0
H658 H 0.90888 0.86401 0.21225 0.0
H659 H 0.95119 0.855 0.19514 0.0
C660 C 0.67685 0.57452 0.57024 0.0
C661 C 0.65226 0.5808 0.56242 0.0
C662 C 0.68119 0.55443 0.58766 0.0
C663 C 0.64789 0.50977 0.63386 0.0
H664 H 0.70594 0.46792 0.61808 0.0
C665 C 0.66025 0.4166 0.68915 0.0
C666 C 0.66945 0.39639 0.67312 0.0
C667 C 0.66196 0.441 0.67955 0.0
C668 C 0.68948 0.47923 0.62266 0.0
H669 H 0.6129 0.57106 0.56703 0.0
H670 H 0.62041 0.53568 0.59616 0.0
H671 H 0.70061 0.50667 0.59371 0.0
H672 H 0.68799 0.38564 0.63486 0.0
H673 H 0.68998 0.42787 0.61739 0.0
H674 H 0.63567 0.48151 0.66111 0.0
C675 C 0.63644 0.5466 0.58977 0.0
C676 C 0.68664 0.50181 0.60897 0.0
C677 C 0.63209 0.56688 0.5728 0.0
C678 C 0.68104 0.40101 0.64772 0.0
C679 C 0.68227 0.42532 0.63782 0.0
C680 C 0.65046 0.487 0.64712 0.0
C681 C 0.66105 0.53991 0.59731 0.0
C682 C 0.66553 0.51718 0.61397 0.0
C683 C 0.67232 0.44566 0.65336 0.0
C684 C 0.67107 0.47114 0.64137 0.0
H685 H 0.69277 0.58503 0.56275 0.0
H686 H 0.70037 0.55024 0.59338 0.0
H687 H 0.63169 0.52132 0.63887 0.0
H688 H 0.65133 0.41343 0.70889 0.0
H689 H 0.65468 0.45613 0.6925 0.0
C690 C 0.91307 0.18284 0.07345 0.0
C691 C 0.91012 0.1586 0.06202 0.0
C692 C 0.92972 0.18715 0.09541 0.0
C693 C 0.96254 0.1553 0.15148 0.0
H694 H 0.01434 0.20559 0.14347 0.0
C695 C 0.06925 0.16883 0.18952 0.0
C696 C 0.0668 0.16289 0.2175 0.0
C697 C 0.04803 0.17414 0.17377 0.0
C698 C 0.99986 0.19162 0.1461 0.0
H699 H 0.92162 0.11983 0.06522 0.0
H700 H 0.95027 0.12731 0.10352 0.0
H701 H 0.98013 0.20276 0.10985 0.0
H702 H 0.04036 0.15919 0.25128 0.0
H703 H 0.00324 0.1686 0.22376 0.0
H704 H 0.98266 0.14339 0.18696 0.0
C705 C 0.93986 0.14298 0.09553 0.0
C706 C 0.98021 0.19013 0.127 0.0
C707 C 0.92359 0.13874 0.07343 0.0
C708 C 0.04285 0.16383 0.22981 0.0
C709 C 0.02159 0.16899 0.214 0.0
C710 C 0.98201 0.15691 0.17067 0.0
C711 C 0.94327 0.16723 0.10662 0.0
C712 C 0.96178 0.17146 0.12906 0.0
C713 C 0.02389 0.17349 0.18563 0.0
C714 C 0.00128 0.17463 0.16778 0.0
H715 H 0.90294 0.19851 0.06507 0.0
H716 H 0.93198 0.20601 0.10365 0.0
H717 H 0.94844 0.14087 0.1537 0.0
H718 H 0.08752 0.16843 0.17957 0.0
H719 H 0.05045 0.17734 0.15194 0.0
C720 C 0.19507 0.83319 0.12026 0.0
C721 C 0.18585 0.81851 0.09808 0.0
C722 C 0.20474 0.82192 0.14371 0.0
C723 C 0.23276 0.7637 0.16795 0.0
H724 H 0.21113 0.78769 0.24032 0.0
C725 C 0.25588 0.71077 0.26748 0.0
C726 C 0.26012 0.72487 0.29183 0.0
C727 C 0.24795 0.72244 0.24348 0.0
C728 C 0.21774 0.78099 0.22033 0.0
H729 H 0.17971 0.78045 0.08312 0.0
H730 H 0.19684 0.76082 0.12401 0.0
H731 H 0.19517 0.80765 0.19924 0.0
H732 H 0.26041 0.76229 0.30991 0.0
H733 H 0.24727 0.7828 0.26791 0.0
H734 H 0.25563 0.73728 0.18892 0.0
C735 C 0.19659 0.78104 0.12317 0.0
C736 C 0.20848 0.7924 0.19678 0.0
C737 C 0.18664 0.7923 0.09983 0.0
C738 C 0.25696 0.75093 0.29151 0.0
C739 C 0.2493 0.76264 0.26746 0.0
C740 C 0.24225 0.75243 0.19152 0.0
C741 C 0.20565 0.79574 0.14538 0.0
C742 C 0.21581 0.78381 0.17035 0.0
C743 C 0.24433 0.74852 0.24322 0.0
C744 C 0.23478 0.76087 0.21804 0.0
H745 H 0.19467 0.85342 0.11962 0.0
H746 H 0.21176 0.83371 0.16045 0.0
H747 H 0.23897 0.75688 0.14783 0.0
H748 H 0.2579 0.6906 0.26723 0.0
H749 H 0.24398 0.71089 0.22539 0.0
C750 C 0.70935 0.67901 0.57275 0.0
C751 C 0.68711 0.6894 0.56237 0.0
C752 C 0.72454 0.69278 0.59102 0.0
C753 C 0.73761 0.75823 0.61405 0.0
H754 H 0.77801 0.72533 0.66897 0.0
C755 C 0.80628 0.81213 0.68674 0.0
C756 C 0.83084 0.80246 0.68589 0.0
C757 C 0.78633 0.79833 0.67529 0.0
C758 C 0.76678 0.73476 0.65376 0.0
H759 H 0.66285 0.72204 0.56399 0.0
H760 H 0.6889 0.74576 0.59649 0.0
H761 H 0.74714 0.70122 0.64247 0.0
H762 H 0.85375 0.77052 0.67371 0.0
H763 H 0.81894 0.74627 0.65423 0.0
H764 H 0.75736 0.79178 0.62554 0.0
C765 C 0.69506 0.72726 0.5899 0.0
C766 C 0.74919 0.72094 0.63841 0.0
C767 C 0.68002 0.71359 0.57136 0.0
C768 C 0.83498 0.77842 0.67447 0.0
C769 C 0.81505 0.7645 0.6635 0.0
C770 C 0.75498 0.7721 0.62967 0.0
C771 C 0.71773 0.71719 0.5997 0.0
C772 C 0.73474 0.73236 0.6179 0.0
C773 C 0.7906 0.77446 0.66335 0.0
C774 C 0.7701 0.7604 0.64927 0.0
H775 H 0.71543 0.66046 0.56618 0.0
H776 H 0.74202 0.68448 0.59766 0.0
H777 H 0.72717 0.76767 0.59823 0.0
H778 H 0.80268 0.83067 0.69537 0.0
H779 H 0.76763 0.80639 0.67553 0.0
C780 C 0.78839 0.17636 0.07122 0.0
C781 C 0.80355 0.18758 0.05117 0.0
C782 C 0.77418 0.19106 0.08981 0.0
C783 C 0.76741 0.25652 0.11756 0.0
H784 H 0.69971 0.23526 0.13534 0.0
C785 C 0.68994 0.32375 0.15741 0.0
C786 C 0.674 0.31572 0.1786 0.0
C787 C 0.70767 0.30747 0.14551 0.0
C788 C 0.71871 0.24128 0.1309 0.0
H789 H 0.81568 0.22312 0.03506 0.0
H790 H 0.7905 0.24861 0.06675 0.0
H791 H 0.72678 0.20792 0.10728 0.0
H792 H 0.66442 0.28456 0.20437 0.0
H793 H 0.69537 0.25584 0.18322 0.0
H794 H 0.75883 0.29034 0.14029 0.0
C795 C 0.78997 0.22849 0.06868 0.0
C796 C 0.73429 0.22559 0.11484 0.0
C797 C 0.80431 0.21382 0.0503 0.0
C798 C 0.67657 0.29124 0.18815 0.0
C799 C 0.69411 0.27479 0.17594 0.0
C800 C 0.75174 0.27229 0.13335 0.0
C801 C 0.77465 0.21735 0.08867 0.0
C802 C 0.75873 0.23317 0.10758 0.0
C803 C 0.70968 0.2827 0.15431 0.0
C804 C 0.72711 0.26499 0.13986 0.0
H805 H 0.78752 0.15619 0.07262 0.0
H806 H 0.76292 0.1818 0.10515 0.0
H807 H 0.78629 0.26278 0.11298 0.0
H808 H 0.68843 0.34257 0.14978 0.0
H809 H 0.71925 0.31404 0.12874 0.0
C810 C 0.30605 0.32431 0.61111 0.0
C811 C 0.31727 0.30982 0.58981 0.0
C812 C 0.29594 0.31296 0.6343 0.0
C813 C 0.2709 0.25351 0.65916 0.0
H814 H 0.28471 0.28281 0.73145 0.0
C815 C 0.24197 0.20596 0.76086 0.0
C816 C 0.23396 0.22158 0.78291 0.0
C817 C 0.25171 0.2162 0.73676 0.0
C818 C 0.28035 0.27456 0.71142 0.0
H819 H 0.32654 0.27196 0.57623 0.0
H820 H 0.30875 0.25213 0.61682 0.0
H821 H 0.30269 0.30155 0.69058 0.0
H822 H 0.22881 0.26015 0.79651 0.0
H823 H 0.24533 0.27802 0.7544 0.0
H824 H 0.24829 0.22669 0.67999 0.0
C825 C 0.30773 0.27229 0.6154 0.0
C826 C 0.29074 0.28528 0.68799 0.0
C827 C 0.31803 0.28367 0.59224 0.0
C828 C 0.23524 0.24763 0.78005 0.0
C829 C 0.2448 0.25786 0.75594 0.0
C830 C 0.26035 0.24285 0.68263 0.0
C831 C 0.29667 0.28684 0.63674 0.0
C832 C 0.28605 0.27496 0.6616 0.0
C833 C 0.2535 0.24229 0.73413 0.0
C834 C 0.26485 0.25333 0.70905 0.0
H835 H 0.30515 0.3445 0.60997 0.0
H836 H 0.28731 0.32466 0.65025 0.0
H837 H 0.26674 0.24529 0.63906 0.0
H838 H 0.24143 0.1858 0.76258 0.0
H839 H 0.25848 0.20364 0.72052 0.0
C840 C 0.66931 0.71153 0.4359 0.0
C841 C 0.67803 0.68847 0.44548 0.0
C842 C 0.68104 0.72279 0.4135 0.0
C843 C 0.71516 0.7087 0.35061 0.0
H844 H 0.74121 0.77629 0.35624 0.0
C845 C 0.76919 0.75097 0.25993 0.0
C846 C 0.76618 0.77655 0.25518 0.0
C847 C 0.76 0.74062 0.28417 0.0
C848 C 0.7337 0.75755 0.35408 0.0
H849 H 0.70559 0.65897 0.43891 0.0
H850 H 0.72554 0.67835 0.39917 0.0
H851 H 0.72119 0.7577 0.39626 0.0
H852 H 0.75146 0.81152 0.2717 0.0
H853 H 0.73427 0.79342 0.31352 0.0
H854 H 0.72637 0.70863 0.30832 0.0
C855 C 0.7099 0.68781 0.40932 0.0
C856 C 0.72238 0.7469 0.3771 0.0
C857 C 0.69856 0.67682 0.43208 0.0
C858 C 0.75416 0.79175 0.27515 0.0
C859 C 0.74445 0.78132 0.29916 0.0
C860 C 0.72597 0.71949 0.32744 0.0
C861 C 0.70129 0.71092 0.3999 0.0
C862 C 0.71314 0.72235 0.37557 0.0
C863 C 0.747 0.75552 0.30392 0.0
C864 C 0.73556 0.74405 0.32882 0.0
H865 H 0.65357 0.72098 0.44587 0.0
H866 H 0.674 0.74057 0.40647 0.0
H867 H 0.70789 0.68982 0.34887 0.0
H868 H 0.77857 0.73896 0.24479 0.0
H869 H 0.76303 0.72087 0.28728 0.0
C870 C 0.78836 0.17891 0.92889 0.0
C871 C 0.81432 0.18078 0.93399 0.0
C872 C 0.77771 0.19024 0.90593 0.0
C873 C 0.79022 0.23944 0.85499 0.0
H874 H 0.73906 0.2051 0.81177 0.0
C875 C 0.7623 0.27056 0.74653 0.0
C876 C 0.73664 0.27065 0.73969 0.0
C877 C 0.77049 0.26017 0.77108 0.0
C878 C 0.75311 0.21506 0.82384 0.0
H879 H 0.84949 0.19568 0.91859 0.0
H880 H 0.83104 0.21501 0.87851 0.0
H881 H 0.75586 0.18565 0.85294 0.0
H882 H 0.69942 0.25984 0.75328 0.0
H883 H 0.71377 0.24165 0.79641 0.0
H884 H 0.78778 0.26864 0.82566 0.0
C885 C 0.81877 0.20527 0.89253 0.0
C886 C 0.76273 0.20393 0.84744 0.0
C887 C 0.82939 0.19403 0.91547 0.0
C888 C 0.7193 0.26015 0.75806 0.0
C889 C 0.72753 0.24957 0.78261 0.0
C890 C 0.78069 0.25049 0.83138 0.0
C891 C 0.79279 0.20364 0.88753 0.0
C892 C 0.78162 0.21587 0.86314 0.0
C893 C 0.75323 0.24953 0.7894 0.0
C894 C 0.76223 0.23832 0.81536 0.0
H895 H 0.77619 0.16886 0.94274 0.0
H896 H 0.7576 0.18881 0.90285 0.0
H897 H 0.80434 0.24944 0.86691 0.0
H898 H 0.7761 0.27877 0.73298 0.0
H899 H 0.79043 0.2602 0.77556 0.0
C900 C 0.31558 0.28676 0.45448 0.0
C901 C 0.30601 0.30546 0.47256 0.0
C902 C 0.2996 0.27378 0.43627 0.0
C903 C 0.2364 0.27704 0.40405 0.0
H904 H 0.24225 0.20481 0.3981 0.0
C905 C 0.15457 0.21414 0.36947 0.0
C906 C 0.15952 0.19316 0.35231 0.0
C907 C 0.17422 0.22859 0.38018 0.0
C908 C 0.24062 0.225 0.39916 0.0
H909 H 0.27215 0.32541 0.48522 0.0
H910 H 0.24443 0.30269 0.45386 0.0
H911 H 0.27354 0.22878 0.42425 0.0
H912 H 0.18895 0.1711 0.3325 0.0
H913 H 0.22354 0.19644 0.3514 0.0
H914 H 0.2031 0.2732 0.37966 0.0
C915 C 0.2643 0.29822 0.45345 0.0
C916 C 0.25855 0.23876 0.41414 0.0
C917 C 0.28021 0.31114 0.47164 0.0
C918 C 0.1846 0.18722 0.34562 0.0
C919 C 0.20436 0.2016 0.35658 0.0
C920 C 0.21847 0.2633 0.38918 0.0
C921 C 0.27374 0.27928 0.43564 0.0
C922 C 0.25633 0.26489 0.41728 0.0
C923 C 0.19935 0.22237 0.3741 0.0
C924 C 0.22005 0.23709 0.38707 0.0
H925 H 0.33538 0.28198 0.45455 0.0
H926 H 0.30752 0.25947 0.42263 0.0
H927 H 0.23443 0.29719 0.40554 0.0
H928 H 0.13543 0.21936 0.37474 0.0
H929 H 0.16972 0.24429 0.39384 0.0
C930 C 0.1905 0.79454 0.96165 0.0
C931 C 0.19999 0.81105 0.9821 0.0
C932 C 0.20688 0.78038 0.94479 0.0
C933 C 0.27045 0.75393 0.94498 0.0
H934 H 0.26224 0.74593 0.86579 0.0
C935 C 0.34484 0.70169 0.88026 0.0
C936 C 0.33645 0.68529 0.85925 0.0
C937 C 0.32829 0.71869 0.89298 0.0
C938 C 0.26465 0.74774 0.88792 0.0
H939 H 0.23422 0.82606 1.00027 0.0
H940 H 0.26258 0.80132 0.97109 0.0
H941 H 0.23263 0.77205 0.89243 0.0
H942 H 0.30443 0.67428 0.83436 0.0
H943 H 0.27517 0.7036 0.85704 0.0
H944 H 0.3019 0.7293 0.94093 0.0
C945 C 0.2425 0.79919 0.96823 0.0
C946 C 0.2477 0.76274 0.90314 0.0
C947 C 0.2262 0.81345 0.98488 0.0
C948 C 0.31138 0.68687 0.85041 0.0
C949 C 0.29467 0.7037 0.8634 0.0
C950 C 0.28719 0.73882 0.92988 0.0
C951 C 0.23305 0.7823 0.94821 0.0
C952 C 0.25057 0.76613 0.93181 0.0
C953 C 0.3028 0.71945 0.8853 0.0
C954 C 0.28469 0.73566 0.90111 0.0
H955 H 0.17042 0.79232 0.95886 0.0
H956 H 0.19906 0.76743 0.92961 0.0
H957 H 0.27286 0.75578 0.96712 0.0
H958 H 0.36417 0.70106 0.8872 0.0
H959 H 0.33544 0.73098 0.90919 0.0
loop_
_geom_bond_atom_site_label_1
_geom_bond_atom_site_label_2
_geom_bond_distance
_geom_bond_site_symmetry_2
_ccdc_geom_bond_type
Fe0 O2 1.918 . S
Fe0 O5 1.997 . S
Fe0 O6 2.002 . S
Fe0 O11 1.976 1_554 S
Fe0 O14 1.996 1_554 S
Fe1 O2 1.918 . S
Fe1 O9 1.997 . S
Fe1 O12 1.996 1_554 S
Fe1 O16 1.976 1_554 S
Fe1 O19 2.002 . S
O2 Fe0 1.918 . S
O2 Fe1 1.918 . S
O2 Fe3 1.918 . S
Fe3 O2 1.918 . S
Fe3 O4 2.002 . S
Fe3 O13 1.976 1_554 S
Fe3 O17 1.996 1_554 S
Fe3 O20 1.997 . S
O4 Fe3 2.002 . S
O4 C21 1.295 . S
O5 Fe0 1.997 . S
O5 C21 1.235 . S
O6 Fe0 2.002 . S
O6 C7 1.295 . S
C7 O6 1.295 . S
C7 O9 1.235 . S
C8 O13 1.287 . S
C8 O14 1.255 . S
O9 Fe1 1.997 . S
O9 C7 1.235 . S
C10 O16 1.287 . S
C10 O17 1.255 . S
O11 Fe0 1.976 1_556 S
O11 C18 1.287 . S
O12 Fe1 1.996 1_556 S
O12 C18 1.255 . S
O13 Fe3 1.976 1_556 S
O13 C8 1.287 . S
O14 Fe0 1.996 1_556 S
O14 C8 1.255 . S
C15 O19 1.295 . S
C15 O20 1.235 . S
O16 Fe1 1.976 1_556 S
O16 C10 1.287 . S
O17 Fe3 1.996 1_556 S
O17 C10 1.255 . S
C18 O11 1.287 . S
C18 O12 1.255 . S
O19 Fe1 2.002 . S
O19 C15 1.295 . S
O20 Fe3 1.997 . S
O20 C15 1.235 . S
C21 O4 1.295 . S
C21 O5 1.235 . S
Fe22 O24 1.918 . S
Fe22 O27 1.997 . S
Fe22 O28 2.002 . S
Fe22 O33 1.976 . S
Fe22 O36 1.996 . S
Fe23 O24 1.918 . S
Fe23 O31 1.997 . S
Fe23 O34 1.996 . S
Fe23 O38 1.976 . S
Fe23 O41 2.002 . S
O24 Fe22 1.918 . S
O24 Fe23 1.918 . S
O24 Fe25 1.918 . S
Fe25 O24 1.918 . S
Fe25 O26 2.002 . S
Fe25 O35 1.976 . S
Fe25 O39 1.996 . S
Fe25 O42 1.997 . S
O26 Fe25 2.002 . S
O26 C43 1.295 . S
O27 Fe22 1.997 . S
O27 C43 1.235 . S
O28 Fe22 2.002 . S
O28 C29 1.295 . S
C29 O28 1.295 . S
C29 O31 1.235 . S
C30 O35 1.287 . S
C30 O36 1.255 . S
O31 Fe23 1.997 . S
O31 C29 1.235 . S
C32 O38 1.287 . S
C32 O39 1.255 . S
O33 Fe22 1.976 . S
O33 C40 1.287 . S
O34 Fe23 1.996 . S
O34 C40 1.255 . S
O35 Fe25 1.976 . S
O35 C30 1.287 . S
O36 Fe22 1.996 . S
O36 C30 1.255 . S
C37 O41 1.295 . S
C37 O42 1.235 . S
O38 Fe23 1.976 . S
O38 C32 1.287 . S
O39 Fe25 1.996 . S
O39 C32 1.255 . S
C40 O33 1.287 . S
C40 O34 1.255 . S
O41 Fe23 2.002 . S
O41 C37 1.295 . S
O42 Fe25 1.997 . S
O42 C37 1.235 . S
C43 O26 1.295 . S
C43 O27 1.235 . S
Fe44 O46 1.918 . S
Fe44 O49 1.997 1_554 S
Fe44 O50 2.002 1_554 S
Fe44 O55 1.976 . S
Fe44 O58 1.996 . S
Fe45 O46 1.918 . S
Fe45 O53 1.997 1_554 S
Fe45 O56 1.996 . S
Fe45 O60 1.976 . S
Fe45 O63 2.002 1_554 S
O46 Fe44 1.918 . S
O46 Fe45 1.918 . S
O46 Fe47 1.918 . S
Fe47 O46 1.918 . S
Fe47 O48 2.002 1_554 S
Fe47 O57 1.976 . S
Fe47 O61 1.996 . S
Fe47 O64 1.997 1_554 S
O48 Fe47 2.002 1_556 S
O48 C65 1.295 . S
O49 Fe44 1.997 1_556 S
O49 C65 1.235 . S
O50 Fe44 2.002 1_556 S
O50 C51 1.295 . S
C51 O50 1.295 . S
C51 O53 1.235 . S
C52 O57 1.287 . S
C52 O58 1.255 . S
O53 Fe45 1.997 1_556 S
O53 C51 1.235 . S
C54 O60 1.287 . S
C54 O61 1.255 . S
O55 Fe44 1.976 . S
O55 C62 1.287 . S
O56 Fe45 1.996 . S
O56 C62 1.255 . S
O57 Fe47 1.976 . S
O57 C52 1.287 . S
O58 Fe44 1.996 . S
O58 C52 1.255 . S
C59 O63 1.295 . S
C59 O64 1.235 . S
O60 Fe45 1.976 . S
O60 C54 1.287 . S
O61 Fe47 1.996 . S
O61 C54 1.255 . S
C62 O55 1.287 . S
C62 O56 1.255 . S
O63 Fe45 2.002 1_556 S
O63 C59 1.295 . S
O64 Fe47 1.997 1_556 S
O64 C59 1.235 . S
C65 O48 1.295 . S
C65 O49 1.235 . S
Fe66 O68 1.918 . S
Fe66 O71 1.997 . S
Fe66 O72 2.002 . S
Fe66 O77 1.976 . S
Fe66 O80 1.996 . S
Fe67 O68 1.918 . S
Fe67 O75 1.997 . S
Fe67 O78 1.996 . S
Fe67 O82 1.976 . S
Fe67 O85 2.002 . S
O68 Fe66 1.918 . S
O68 Fe67 1.918 . S
O68 Fe69 1.918 . S
Fe69 O68 1.918 . S
Fe69 O70 2.002 . S
Fe69 O79 1.976 . S
Fe69 O83 1.996 . S
Fe69 O86 1.997 . S
O70 Fe69 2.002 . S
O70 C87 1.295 . S
O71 Fe66 1.997 . S
O71 C87 1.235 . S
O72 Fe66 2.002 . S
O72 C73 1.295 . S
C73 O72 1.295 . S
C73 O75 1.235 . S
C74 O79 1.287 . S
C74 O80 1.255 . S
O75 Fe67 1.997 . S
O75 C73 1.235 . S
C76 O82 1.287 . S
C76 O83 1.255 . S
O77 Fe66 1.976 . S
O77 C84 1.287 . S
O78 Fe67 1.996 . S
O78 C84 1.255 . S
O79 Fe69 1.976 . S
O79 C74 1.287 . S
O80 Fe66 1.996 . S
O80 C74 1.255 . S
C81 O85 1.295 . S
C81 O86 1.235 . S
O82 Fe67 1.976 . S
O82 C76 1.287 . S
O83 Fe69 1.996 . S
O83 C76 1.255 . S
C84 O77 1.287 . S
C84 O78 1.255 . S
O85 Fe67 2.002 . S
O85 C81 1.295 . S
O86 Fe69 1.997 . S
O86 C81 1.235 . S
C87 O70 1.295 . S
C87 O71 1.235 . S
H88 C89 0.949 . S
C89 H88 0.949 . S
C89 C90 1.395 . S
C89 C91 1.391 . S
C90 C89 1.395 . S
C90 C93 1.390 . S
C91 C89 1.391 . S
C91 C95 1.387 . S
C91 C96 1.491 . S
H92 C93 0.950 . S
C93 C90 1.390 . S
C93 H92 0.950 . S
C93 C94 1.378 . S
C94 C93 1.378 . S
C94 C95 1.409 . S
C95 C91 1.387 . S
C95 C94 1.409 . S
C95 H97 0.951 . S
C96 C91 1.491 . S
C96 C98 1.382 . S
C96 C100 1.404 . S
H97 C95 0.951 . S
C98 C96 1.382 . S
C98 C99 1.390 . S
C98 H103 0.949 . S
C99 C98 1.390 . S
C99 C104 1.399 . S
C100 C96 1.404 . S
C100 H101 0.950 . S
C100 C102 1.375 . S
H101 C100 0.950 . S
C102 C100 1.375 . S
C102 C104 1.382 . S
C102 H106 0.950 . S
H103 C98 0.949 . S
C104 C99 1.399 . S
C104 C102 1.382 . S
C104 H105 0.952 . S
H105 C104 0.952 . S
H106 C102 0.950 . S
H107 C108 0.949 . S
C108 H107 0.949 . S
C108 C109 1.395 . S
C108 C110 1.391 . S
C109 C108 1.395 . S
C109 C112 1.390 . S
C110 C108 1.391 . S
C110 C114 1.387 . S
C110 C115 1.491 . S
H111 C112 0.950 . S
C112 C109 1.390 . S
C112 H111 0.950 . S
C112 C113 1.378 . S
C113 C112 1.378 . S
C113 C114 1.409 . S
C114 C110 1.387 . S
C114 C113 1.409 . S
C114 H116 0.951 . S
C115 C110 1.491 . S
C115 C117 1.382 . S
C115 C119 1.404 . S
H116 C114 0.951 . S
C117 C115 1.382 . S
C117 C118 1.390 . S
C117 H122 0.949 . S
C118 C117 1.390 . S
C118 C123 1.399 . S
C119 C115 1.404 . S
C119 H120 0.950 . S
C119 C121 1.375 . S
H120 C119 0.950 . S
C121 C119 1.375 . S
C121 C123 1.382 . S
C121 H125 0.950 . S
H122 C117 0.949 . S
C123 C118 1.399 . S
C123 C121 1.382 . S
C123 H124 0.952 . S
H124 C123 0.952 . S
H125 C121 0.950 . S
H126 C127 0.949 . S
C127 H126 0.949 . S
C127 C128 1.395 . S
C127 C129 1.391 . S
C128 C127 1.395 . S
C128 C131 1.390 . S
C129 C127 1.391 . S
C129 C133 1.387 . S
C129 C134 1.491 . S
H130 C131 0.950 . S
C131 C128 1.390 . S
C131 H130 0.950 . S
C131 C132 1.378 . S
C132 C131 1.378 . S
C132 C133 1.409 . S
C133 C129 1.387 . S
C133 C132 1.409 . S
C133 H135 0.951 . S
C134 C129 1.491 . S
C134 C136 1.382 . S
C134 C138 1.404 . S
H135 C133 0.951 . S
C136 C134 1.382 . S
C136 C137 1.390 . S
C136 H141 0.949 . S
C137 C136 1.390 . S
C137 C142 1.399 . S
C138 C134 1.404 . S
C138 H139 0.950 . S
C138 C140 1.375 . S
H139 C138 0.950 . S
C140 C138 1.375 . S
C140 C142 1.382 . S
C140 H144 0.950 . S
H141 C136 0.949 . S
C142 C137 1.399 . S
C142 C140 1.382 . S
C142 H143 0.952 . S
H143 C142 0.952 . S
H144 C140 0.950 . S
H145 C146 0.949 . S
C146 H145 0.949 . S
C146 C147 1.395 . S
C146 C148 1.391 . S
C147 C146 1.395 . S
C147 C150 1.390 . S
C148 C146 1.391 . S
C148 C152 1.387 . S
C148 C153 1.491 . S
H149 C150 0.950 . S
C150 C147 1.390 . S
C150 H149 0.950 . S
C150 C151 1.378 . S
C151 C150 1.378 . S
C151 C152 1.409 . S
C152 C148 1.387 . S
C152 C151 1.409 . S
C152 H154 0.951 . S
C153 C148 1.491 . S
C153 C155 1.382 . S
C153 C157 1.404 . S
H154 C152 0.951 . S
C155 C153 1.382 . S
C155 C156 1.390 . S
C155 H160 0.949 . S
C156 C155 1.390 . S
C156 C161 1.399 . S
C157 C153 1.404 . S
C157 H158 0.950 . S
C157 C159 1.375 . S
H158 C157 0.950 . S
C159 C157 1.375 . S
C159 C161 1.382 . S
C159 H163 0.950 . S
H160 C155 0.949 . S
C161 C156 1.399 . S
C161 C159 1.382 . S
C161 H162 0.952 . S
H162 C161 0.952 . S
H163 C159 0.950 . S
H164 C165 0.949 . S
C165 H164 0.949 . S
C165 C166 1.395 . S
C165 C167 1.391 . S
C166 C165 1.395 . S
C166 C169 1.390 . S
C167 C165 1.391 . S
C167 C171 1.387 . S
C167 C172 1.491 . S
H168 C169 0.950 . S
C169 C166 1.390 . S
C169 H168 0.950 . S
C169 C170 1.378 . S
C170 C169 1.378 . S
C170 C171 1.409 . S
C171 C167 1.387 . S
C171 C170 1.409 . S
C171 H173 0.951 . S
C172 C167 1.491 . S
C172 C174 1.382 . S
C172 C176 1.404 . S
H173 C171 0.951 . S
C174 C172 1.382 . S
C174 C175 1.390 . S
C174 H179 0.949 . S
C175 C174 1.390 . S
C175 C180 1.399 . S
C176 C172 1.404 . S
C176 H177 0.950 . S
C176 C178 1.375 . S
H177 C176 0.950 . S
C178 C176 1.375 . S
C178 C180 1.382 . S
C178 H182 0.950 . S
H179 C174 0.949 . S
C180 C175 1.399 . S
C180 C178 1.382 . S
C180 H181 0.952 . S
H181 C180 0.952 . S
H182 C178 0.950 . S
H183 C184 0.949 . S
C184 H183 0.949 . S
C184 C185 1.395 . S
C184 C186 1.391 . S
C185 C184 1.395 . S
C185 C188 1.390 . S
C186 C184 1.391 . S
C186 C190 1.387 . S
C186 C191 1.491 . S
H187 C188 0.950 . S
C188 C185 1.390 . S
C188 H187 0.950 . S
C188 C189 1.378 . S
C189 C188 1.378 . S
C189 C190 1.409 . S
C190 C186 1.387 . S
C190 C189 1.409 . S
C190 H192 0.951 . S
C191 C186 1.491 . S
C191 C193 1.382 . S
C191 C195 1.404 . S
H192 C190 0.951 . S
C193 C191 1.382 . S
C193 C194 1.390 . S
C193 H198 0.949 . S
C194 C193 1.390 . S
C194 C199 1.399 . S
C195 C191 1.404 . S
C195 H196 0.950 . S
C195 C197 1.375 . S
H196 C195 0.950 . S
C197 C195 1.375 . S
C197 C199 1.382 . S
C197 H201 0.950 . S
H198 C193 0.949 . S
C199 C194 1.399 . S
C199 C197 1.382 . S
C199 H200 0.952 . S
H200 C199 0.952 . S
H201 C197 0.950 . S
H202 C203 0.949 . S
C203 H202 0.949 . S
C203 C204 1.395 . S
C203 C205 1.391 . S
C204 C203 1.395 . S
C204 C207 1.390 . S
C205 C203 1.391 . S
C205 C209 1.387 . S
C205 C210 1.491 . S
H206 C207 0.950 . S
C207 C204 1.390 . S
C207 H206 0.950 . S
C207 C208 1.378 . S
C208 C207 1.378 . S
C208 C209 1.409 . S
C209 C205 1.387 . S
C209 C208 1.409 . S
C209 H211 0.951 . S
C210 C205 1.491 . S
C210 C212 1.382 . S
C210 C214 1.404 . S
H211 C209 0.951 . S
C212 C210 1.382 . S
C212 C213 1.390 . S
C212 H217 0.949 . S
C213 C212 1.390 . S
C213 C218 1.399 . S
C214 C210 1.404 . S
C214 H215 0.950 . S
C214 C216 1.375 . S
H215 C214 0.950 . S
C216 C214 1.375 . S
C216 C218 1.382 . S
C216 H220 0.950 . S
H217 C212 0.949 . S
C218 C213 1.399 . S
C218 C216 1.382 . S
C218 H219 0.952 . S
H219 C218 0.952 . S
H220 C216 0.950 . S
H221 C222 0.949 . S
C222 H221 0.949 . S
C222 C223 1.395 . S
C222 C224 1.391 . S
C223 C222 1.395 . S
C223 C226 1.390 . S
C224 C222 1.391 . S
C224 C228 1.387 . S
C224 C229 1.491 . S
H225 C226 0.950 . S
C226 C223 1.390 . S
C226 H225 0.950 . S
C226 C227 1.378 . S
C227 C226 1.378 . S
C227 C228 1.409 . S
C228 C224 1.387 . S
C228 C227 1.409 . S
C228 H230 0.951 . S
C229 C224 1.491 . S
C229 C231 1.382 . S
C229 C233 1.404 . S
H230 C228 0.951 . S
C231 C229 1.382 . S
C231 C232 1.390 . S
C231 H236 0.949 . S
C232 C231 1.390 . S
C232 C237 1.399 . S
C233 C229 1.404 . S
C233 H234 0.950 . S
C233 C235 1.375 . S
H234 C233 0.950 . S
C235 C233 1.375 . S
C235 C237 1.382 . S
C235 H239 0.950 . S
H236 C231 0.949 . S
C237 C232 1.399 . S
C237 C235 1.382 . S
C237 H238 0.952 . S
H238 C237 0.952 . S
H239 C235 0.950 . S
C240 C241 1.349 . S
C240 C242 1.327 . S
C240 H265 0.950 . S
C241 C240 1.349 . S
C241 C257 1.349 . S
C242 C240 1.327 . S
C242 C261 1.429 . S
C242 H266 0.950 . S
C243 C260 1.574 . S
C243 C262 1.368 . S
C243 H267 0.949 . S
H244 C248 0.949 . S
C245 C246 1.349 . S
C245 C247 1.327 . S
C245 H268 0.950 . S
C246 C245 1.349 . S
C246 C258 1.349 . S
C247 C245 1.327 . S
C247 C263 1.429 . S
C247 H269 0.950 . S
C248 H244 0.949 . S
C248 C256 1.586 . S
C248 C264 1.368 . S
H249 C257 0.950 . S
H250 C255 0.919 1_545 S
H251 C256 0.934 1_565 S
H252 C258 0.950 . S
H253 C259 0.950 . S
H254 C260 0.949 . S
C255 H250 0.919 1_565 S
C255 C257 1.327 . S
C255 C261 1.429 . S
C256 C248 1.586 . S
C256 H251 0.934 1_545 S
C256 C262 1.372 . S
C257 C241 1.349 . S
C257 H249 0.950 . S
C257 C255 1.327 . S
C258 C246 1.349 . S
C258 H252 0.950 . S
C258 C259 1.327 . S
C259 H253 0.950 . S
C259 C258 1.327 . S
C259 C263 1.429 . S
C260 C243 1.574 . S
C260 H254 0.949 . S
C260 C264 1.368 . S
C261 C242 1.429 . S
C261 C255 1.429 . S
C261 C262 1.523 1_565 S
C262 C243 1.368 . S
C262 C256 1.372 . S
C262 C261 1.523 1_545 S
C263 C247 1.429 . S
C263 C259 1.429 . S
C263 C264 1.523 . S
C264 C248 1.368 . S
C264 C260 1.368 . S
C264 C263 1.523 . S
H265 C240 0.950 . S
H266 C242 0.950 . S
H267 C243 0.949 . S
H268 C245 0.950 . S
H269 C247 0.950 . S
C270 C271 1.349 . S
C270 C272 1.327 . S
C270 H295 0.950 . S
C271 C270 1.349 . S
C271 C287 1.349 . S
C272 C270 1.327 . S
C272 C291 1.429 . S
C272 H296 0.950 . S
C273 C290 1.574 . S
C273 C292 1.368 . S
C273 H297 0.949 . S
H274 C278 0.949 . S
C275 C276 1.349 . S
C275 C277 1.327 . S
C275 H298 0.950 . S
C276 C275 1.349 . S
C276 C288 1.349 . S
C277 C275 1.327 . S
C277 C293 1.429 . S
C277 H299 0.950 . S
C278 H274 0.949 . S
C278 C286 1.574 . S
C278 C294 1.368 . S
H279 C287 0.950 . S
H280 C285 0.950 . S
H281 C286 0.949 . S
H282 C288 0.950 . S
H283 C289 0.950 . S
H284 C290 0.949 . S
C285 H280 0.950 . S
C285 C287 1.327 . S
C285 C291 1.429 . S
C286 C278 1.574 . S
C286 H281 0.949 . S
C286 C292 1.368 . S
C287 C271 1.349 . S
C287 H279 0.950 . S
C287 C285 1.327 . S
C288 C276 1.349 . S
C288 H282 0.950 . S
C288 C289 1.327 . S
C289 H283 0.950 . S
C289 C288 1.327 . S
C289 C293 1.429 . S
C290 C273 1.574 . S
C290 H284 0.949 . S
C290 C294 1.368 . S
C291 C272 1.429 . S
C291 C285 1.429 . S
C291 C292 1.523 . S
C292 C273 1.368 . S
C292 C286 1.368 . S
C292 C291 1.523 . S
C293 C277 1.429 . S
C293 C289 1.429 . S
C293 C294 1.523 . S
C294 C278 1.368 . S
C294 C290 1.368 . S
C294 C293 1.523 . S
H295 C270 0.950 . S
H296 C272 0.950 . S
H297 C273 0.949 . S
H298 C275 0.950 . S
H299 C277 0.950 . S
C300 C301 1.349 . S
C300 C302 1.327 . S
C300 H325 0.950 . S
C301 C300 1.349 . S
C301 C317 1.349 . S
C302 C300 1.327 . S
C302 C321 1.429 . S
C302 H326 0.950 . S
C303 C320 1.574 . S
C303 C322 1.368 . S
C303 H327 0.949 1_565 S
H304 C308 0.949 . S
C305 C306 1.349 . S
C305 C307 1.327 . S
C305 H328 0.950 . S
C306 C305 1.349 . S
C306 C318 1.349 . S
C307 C305 1.327 . S
C307 C323 1.429 . S
C307 H329 0.950 . S
C308 H304 0.949 . S
C308 C316 1.574 . S
C308 C324 1.368 . S
H309 C317 0.950 . S
H310 C315 0.950 . S
H311 C316 0.949 . S
H312 C318 0.950 . S
H313 C319 0.950 . S
H314 C320 0.949 . S
C315 H310 0.950 . S
C315 C317 1.327 . S
C315 C321 1.429 . S
C316 C308 1.574 . S
C316 H311 0.949 . S
C316 C322 1.368 . S
C317 C301 1.349 . S
C317 H309 0.950 . S
C317 C315 1.327 . S
C318 C306 1.349 . S
C318 H312 0.950 . S
C318 C319 1.327 . S
C319 H313 0.950 . S
C319 C318 1.327 . S
C319 C323 1.429 . S
C320 C303 1.574 . S
C320 H314 0.949 . S
C320 C324 1.368 . S
C321 C302 1.429 . S
C321 C315 1.429 . S
C321 C322 1.523 1_545 S
C322 C303 1.368 . S
C322 C316 1.368 . S
C322 C321 1.523 1_565 S
C323 C307 1.429 . S
C323 C319 1.429 . S
C323 C324 1.523 . S
C324 C308 1.368 . S
C324 C320 1.368 . S
C324 C323 1.523 . S
H325 C300 0.950 . S
H326 C302 0.950 . S
H327 C303 0.949 1_545 S
H328 C305 0.950 . S
H329 C307 0.950 . S
C330 C331 1.349 . S
C330 C332 1.327 . S
C330 H355 0.950 . S
C331 C330 1.349 . S
C331 C347 1.349 . S
C332 C330 1.327 . S
C332 C351 1.429 . S
C332 H356 0.950 . S
C333 C350 1.574 . S
C333 C352 1.368 . S
C333 H357 0.949 . S
H334 C338 0.949 . S
C335 C336 1.349 . S
C335 C337 1.327 . S
C335 H358 0.950 . S
C336 C335 1.349 . S
C336 C348 1.349 . S
C337 C335 1.327 . S
C337 C353 1.429 . S
C337 H359 0.950 . S
C338 H334 0.949 . S
C338 C346 1.574 . S
C338 C354 1.368 . S
H339 C347 0.950 . S
H340 C345 0.950 . S
H341 C346 0.949 . S
H342 C348 0.950 . S
H343 C349 0.950 . S
H344 C350 0.949 . S
C345 H340 0.950 . S
C345 C347 1.327 . S
C345 C351 1.429 . S
C346 C338 1.574 . S
C346 H341 0.949 . S
C346 C352 1.368 . S
C347 C331 1.349 . S
C347 H339 0.950 . S
C347 C345 1.327 . S
C348 C336 1.349 . S
C348 H342 0.950 . S
C348 C349 1.327 . S
C349 H343 0.950 . S
C349 C348 1.327 . S
C349 C353 1.429 . S
C350 C333 1.574 . S
C350 H344 0.949 . S
C350 C354 1.368 . S
C351 C332 1.429 . S
C351 C345 1.429 . S
C351 C352 1.523 . S
C352 C333 1.368 . S
C352 C346 1.368 . S
C352 C351 1.523 . S
C353 C337 1.429 . S
C353 C349 1.429 . S
C353 C354 1.523 . S
C354 C338 1.368 . S
C354 C350 1.368 . S
C354 C353 1.523 . S
H355 C330 0.950 . S
H356 C332 0.950 . S
H357 C333 0.949 . S
H358 C335 0.950 . S
H359 C337 0.950 . S
C360 C361 1.349 . S
C360 C362 1.327 . S
C360 H385 0.950 . S
C361 C360 1.349 . S
C361 C377 1.349 . S
C362 C360 1.327 . S
C362 C381 1.429 . S
C362 H386 0.950 . S
C363 C380 1.574 . S
C363 C382 1.368 . S
C363 H387 0.949 . S
H364 C368 0.949 . S
C365 C366 1.349 . S
C365 C367 1.327 . S
C365 H388 0.950 . S
C366 C365 1.349 . S
C366 C378 1.349 . S
C367 C365 1.327 . S
C367 C383 1.429 . S
C367 H389 0.950 . S
C368 H364 0.949 . S
C368 C376 1.574 . S
C368 C384 1.368 . S
H369 C377 0.950 . S
H370 C375 0.950 . S
H371 C376 0.949 . S
H372 C378 0.950 . S
H373 C379 0.950 . S
H374 C380 0.949 . S
C375 H370 0.950 . S
C375 C377 1.327 . S
C375 C381 1.429 . S
C376 C368 1.574 . S
C376 H371 0.949 . S
C376 C382 1.368 . S
C377 C361 1.349 . S
C377 H369 0.950 . S
C377 C375 1.327 . S
C378 C366 1.349 . S
C378 H372 0.950 . S
C378 C379 1.327 . S
C379 H373 0.950 . S
C379 C378 1.327 . S
C379 C383 1.429 . S
C380 C363 1.574 . S
C380 H374 0.949 . S
C380 C384 1.368 . S
C381 C362 1.429 . S
C381 C375 1.429 . S
C381 C382 1.523 . S
C382 C363 1.368 . S
C382 C376 1.368 . S
C382 C381 1.523 . S
C383 C367 1.429 . S
C383 C379 1.429 . S
C383 C384 1.523 . S
C384 C368 1.368 . S
C384 C380 1.368 . S
C384 C383 1.523 . S
H385 C360 0.950 . S
H386 C362 0.950 . S
H387 C363 0.949 . S
H388 C365 0.950 . S
H389 C367 0.950 . S
C390 C391 1.349 . S
C390 C392 1.327 . S
C390 H415 0.950 . S
C391 C390 1.349 . S
C391 C407 1.349 . S
C392 C390 1.327 . S
C392 C411 1.429 . S
C392 H416 0.950 . S
C393 C410 1.574 . S
C393 C412 1.368 . S
C393 H417 0.949 . S
H394 C398 0.949 . S
C395 C396 1.349 . S
C395 C397 1.327 . S
C395 H418 0.950 . S
C396 C395 1.349 . S
C396 C408 1.349 . S
C397 C395 1.327 . S
C397 C413 1.429 . S
C397 H419 0.950 . S
C398 H394 0.949 . S
C398 C406 1.574 . S
C398 C414 1.368 . S
H399 C407 0.950 . S
H400 C405 0.950 . S
H401 C406 0.949 . S
H402 C408 0.950 . S
H403 C409 0.950 . S
H404 C410 0.949 . S
C405 H400 0.950 . S
C405 C407 1.327 . S
C405 C411 1.429 . S
C406 C398 1.574 . S
C406 H401 0.949 . S
C406 C412 1.368 . S
C407 C391 1.349 . S
C407 H399 0.950 . S
C407 C405 1.327 . S
C408 C396 1.349 . S
C408 H402 0.950 . S
C408 C409 1.327 . S
C409 H403 0.950 . S
C409 C408 1.327 . S
C409 C413 1.429 . S
C410 C393 1.574 . S
C410 H404 0.949 . S
C410 C414 1.368 . S
C411 C392 1.429 . S
C411 C405 1.429 . S
C411 C412 1.523 1_655 S
C412 C393 1.368 . S
C412 C406 1.368 . S
C412 C411 1.523 1_455 S
C413 C397 1.429 . S
C413 C409 1.429 . S
C413 C414 1.523 . S
C414 C398 1.368 . S
C414 C410 1.368 . S
C414 C413 1.523 . S
H415 C390 0.950 . S
H416 C392 0.950 . S
H417 C393 0.949 . S
H418 C395 0.950 . S
H419 C397 0.950 . S
C420 C421 1.349 . S
C420 C422 1.327 . S
C420 H445 0.950 . S
C421 C420 1.349 . S
C421 C437 1.349 . S
C422 C420 1.327 . S
C422 C441 1.429 . S
C422 H446 0.950 . S
C423 C440 1.574 . S
C423 C442 1.368 . S
C423 H447 0.949 . S
H424 C428 0.949 . S
C425 C426 1.349 . S
C425 C427 1.327 . S
C425 H448 0.950 . S
C426 C425 1.349 . S
C426 C438 1.349 . S
C427 C425 1.327 . S
C427 C443 1.429 . S
C427 H449 0.950 . S
C428 H424 0.949 . S
C428 C436 1.574 . S
C428 C444 1.368 . S
H429 C437 0.950 . S
H430 C435 0.950 . S
H431 C436 0.949 . S
H432 C438 0.950 . S
H433 C439 0.950 . S
H434 C440 0.949 . S
C435 H430 0.950 . S
C435 C437 1.327 . S
C435 C441 1.429 . S
C436 C428 1.574 . S
C436 H431 0.949 . S
C436 C442 1.368 . S
C437 C421 1.349 . S
C437 H429 0.950 . S
C437 C435 1.327 . S
C438 C426 1.349 . S
C438 H432 0.950 . S
C438 C439 1.327 . S
C439 H433 0.950 . S
C439 C438 1.327 . S
C439 C443 1.429 . S
C440 C423 1.574 . S
C440 H434 0.949 . S
C440 C444 1.368 . S
C441 C422 1.429 . S
C441 C435 1.429 . S
C441 C442 1.523 . S
C442 C423 1.368 . S
C442 C436 1.368 . S
C442 C441 1.523 . S
C443 C427 1.429 . S
C443 C439 1.429 . S
C443 C444 1.523 . S
C444 C428 1.368 . S
C444 C440 1.368 . S
C444 C443 1.523 . S
H445 C420 0.950 . S
H446 C422 0.950 . S
H447 C423 0.949 . S
H448 C425 0.950 . S
H449 C427 0.950 . S
C450 C451 1.349 . S
C450 C452 1.327 . S
C450 H475 0.950 . S
C451 C450 1.349 . S
C451 C467 1.349 . S
C452 C450 1.327 . S
C452 C471 1.429 . S
C452 H476 0.950 . S
C453 C470 1.574 1_455 S
C453 C472 1.368 . S
C453 H477 0.949 . S
H454 C458 0.949 . S
C455 C456 1.349 . S
C455 C457 1.327 . S
C455 H478 0.950 . S
C456 C455 1.349 . S
C456 C468 1.349 . S
C457 C455 1.327 . S
C457 C473 1.429 . S
C457 H479 0.950 . S
C458 H454 0.949 . S
C458 C466 1.574 . S
C458 C474 1.368 . S
H459 C467 0.950 . S
H460 C465 0.950 . S
H461 C466 0.949 . S
H462 C468 0.950 . S
H463 C469 0.950 . S
H464 C470 0.949 . S
C465 H460 0.950 . S
C465 C467 1.327 . S
C465 C471 1.429 . S
C466 C458 1.574 . S
C466 H461 0.949 . S
C466 C472 1.368 1_655 S
C467 C451 1.349 . S
C467 H459 0.950 . S
C467 C465 1.327 . S
C468 C456 1.349 . S
C468 H462 0.950 . S
C468 C469 1.327 . S
C469 H463 0.950 . S
C469 C468 1.327 . S
C469 C473 1.429 . S
C470 C453 1.574 1_655 S
C470 H464 0.949 . S
C470 C474 1.368 . S
C471 C452 1.429 . S
C471 C465 1.429 . S
C471 C472 1.523 . S
C472 C453 1.368 . S
C472 C466 1.368 1_455 S
C472 C471 1.523 . S
C473 C457 1.429 . S
C473 C469 1.429 . S
C473 C474 1.523 . S
C474 C458 1.368 . S
C474 C470 1.368 . S
C474 C473 1.523 . S
H475 C450 0.950 . S
H476 C452 0.950 . S
H477 C453 0.949 . S
H478 C455 0.950 . S
H479 C457 0.950 . S
C480 C481 1.349 . S
C480 C482 1.327 . S
C480 H505 0.950 . S
C481 C480 1.349 . S
C481 C497 1.349 . S
C482 C480 1.327 . S
C482 C501 1.429 . S
C482 H506 0.950 . S
C483 C500 1.574 . S
C483 C502 1.368 . S
C483 H507 0.949 1_565 S
H484 C488 0.949 . S
C485 C486 1.349 . S
C485 C487 1.327 . S
C485 H508 0.950 . S
C486 C485 1.349 . S
C486 C498 1.349 . S
C487 C485 1.327 . S
C487 C503 1.429 . S
C487 H509 0.950 . S
C488 H484 0.949 . S
C488 C496 1.574 . S
C488 C504 1.368 . S
H489 C497 0.950 . S
H490 C495 0.950 . S
H491 C496 0.949 . S
H492 C498 0.950 . S
H493 C499 0.950 . S
H494 C500 0.949 . S
C495 H490 0.950 . S
C495 C497 1.327 . S
C495 C501 1.429 . S
C496 C488 1.574 . S
C496 H491 0.949 . S
C496 C502 1.368 . S
C497 C481 1.349 . S
C497 H489 0.950 . S
C497 C495 1.327 . S
C498 C486 1.349 . S
C498 H492 0.950 . S
C498 C499 1.327 . S
C499 H493 0.950 . S
C499 C498 1.327 . S
C499 C503 1.429 . S
C500 C483 1.574 . S
C500 H494 0.949 . S
C500 C504 1.368 . S
C501 C482 1.429 . S
C501 C495 1.429 . S
C501 C502 1.523 1_545 S
C502 C483 1.368 . S
C502 C496 1.368 . S
C502 C501 1.523 1_565 S
C503 C487 1.429 . S
C503 C499 1.429 . S
C503 C504 1.523 . S
C504 C488 1.368 . S
C504 C500 1.368 . S
C504 C503 1.523 . S
H505 C480 0.950 . S
H506 C482 0.950 . S
H507 C483 0.949 1_545 S
H508 C485 0.950 . S
H509 C487 0.950 . S
C510 C511 1.349 . S
C510 C512 1.327 . S
C510 H535 0.950 . S
C511 C510 1.349 . S
C511 C527 1.349 . S
C512 C510 1.327 . S
C512 C531 1.429 . S
C512 H536 0.950 . S
C513 C530 1.574 . S
C513 C532 1.368 . S
C513 H537 0.949 . S
H514 C518 0.949 . S
C515 C516 1.349 . S
C515 C517 1.327 . S
C515 H538 0.950 . S
C516 C515 1.349 . S
C516 C528 1.349 . S
C517 C515 1.327 . S
C517 C533 1.429 . S
C517 H539 0.950 . S
C518 H514 0.949 . S
C518 C526 1.574 . S
C518 C534 1.368 . S
H519 C527 0.950 . S
H520 C525 0.950 . S
H521 C526 0.949 . S
H522 C528 0.950 . S
H523 C529 0.950 . S
H524 C530 0.949 . S
C525 H520 0.950 . S
C525 C527 1.327 . S
C525 C531 1.429 . S
C526 C518 1.574 . S
C526 H521 0.949 . S
C526 C532 1.368 . S
C527 C511 1.349 . S
C527 H519 0.950 . S
C527 C525 1.327 . S
C528 C516 1.349 . S
C528 H522 0.950 . S
C528 C529 1.327 . S
C529 H523 0.950 . S
C529 C528 1.327 . S
C529 C533 1.429 . S
C530 C513 1.574 . S
C530 H524 0.949 . S
C530 C534 1.368 . S
C531 C512 1.429 . S
C531 C525 1.429 . S
C531 C532 1.523 . S
C532 C513 1.368 . S
C532 C526 1.368 . S
C532 C531 1.523 . S
C533 C517 1.429 . S
C533 C529 1.429 . S
C533 C534 1.523 . S
C534 C518 1.368 . S
C534 C530 1.368 . S
C534 C533 1.523 . S
H535 C510 0.950 . S
H536 C512 0.950 . S
H537 C513 0.949 . S
H538 C515 0.950 . S
H539 C517 0.950 . S
C540 C541 1.349 . S
C540 C542 1.327 . S
C540 H565 0.950 . S
C541 C540 1.349 . S
C541 C557 1.349 . S
C542 C540 1.327 . S
C542 C561 1.429 . S
C542 H566 0.950 . S
C543 C560 1.574 . S
C543 C562 1.368 . S
C543 H567 0.949 . S
H544 C548 0.949 . S
C545 C546 1.349 . S
C545 C547 1.327 . S
C545 H568 0.950 . S
C546 C545 1.349 . S
C546 C558 1.349 . S
C547 C545 1.327 . S
C547 C563 1.429 . S
C547 H569 0.950 . S
C548 H544 0.949 . S
C548 C556 1.574 . S
C548 C564 1.368 . S
H549 C557 0.950 . S
H550 C555 0.950 . S
H551 C556 0.949 1_565 S
H552 C558 0.950 . S
H553 C559 0.950 . S
H554 C560 0.949 . S
C555 H550 0.950 . S
C555 C557 1.327 . S
C555 C561 1.429 . S
C556 C548 1.574 . S
C556 H551 0.949 1_545 S
C556 C562 1.368 . S
C557 C541 1.349 . S
C557 H549 0.950 . S
C557 C555 1.327 . S
C558 C546 1.349 . S
C558 H552 0.950 . S
C558 C559 1.327 . S
C559 H553 0.950 . S
C559 C558 1.327 . S
C559 C563 1.429 . S
C560 C543 1.574 . S
C560 H554 0.949 . S
C560 C564 1.368 . S
C561 C542 1.429 . S
C561 C555 1.429 . S
C561 C562 1.523 1_565 S
C562 C543 1.368 . S
C562 C556 1.368 . S
C562 C561 1.523 1_545 S
C563 C547 1.429 . S
C563 C559 1.429 . S
C563 C564 1.523 . S
C564 C548 1.368 . S
C564 C560 1.368 . S
C564 C563 1.523 . S
H565 C540 0.950 . S
H566 C542 0.950 . S
H567 C543 0.949 . S
H568 C545 0.950 . S
H569 C547 0.950 . S
C570 C571 1.349 . S
C570 C572 1.327 . S
C570 H595 0.950 . S
C571 C570 1.349 . S
C571 C587 1.349 . S
C572 C570 1.327 . S
C572 C591 1.429 . S
C572 H596 0.950 . S
C573 C590 1.574 . S
C573 C592 1.368 . S
C573 H597 0.949 . S
H574 C578 0.949 . S
C575 C576 1.349 . S
C575 C577 1.327 . S
C575 H598 0.950 . S
C576 C575 1.349 . S
C576 C588 1.349 . S
C577 C575 1.327 . S
C577 C593 1.429 . S
C577 H599 0.950 . S
C578 H574 0.949 . S
C578 C586 1.574 . S
C578 C594 1.368 . S
H579 C587 0.950 . S
H580 C585 0.950 . S
H581 C586 0.949 . S
H582 C588 0.950 . S
H583 C589 0.950 . S
H584 C590 0.949 . S
C585 H580 0.950 . S
C585 C587 1.327 . S
C585 C591 1.429 . S
C586 C578 1.574 . S
C586 H581 0.949 . S
C586 C592 1.368 . S
C587 C571 1.349 . S
C587 H579 0.950 . S
C587 C585 1.327 . S
C588 C576 1.349 . S
C588 H582 0.950 . S
C588 C589 1.327 . S
C589 H583 0.950 . S
C589 C588 1.327 . S
C589 C593 1.429 . S
C590 C573 1.574 . S
C590 H584 0.949 . S
C590 C594 1.368 . S
C591 C572 1.429 . S
C591 C585 1.429 . S
C591 C592 1.523 . S
C592 C573 1.368 . S
C592 C586 1.368 . S
C592 C591 1.523 . S
C593 C577 1.429 . S
C593 C589 1.429 . S
C593 C594 1.523 . S
C594 C578 1.368 . S
C594 C590 1.368 . S
C594 C593 1.523 . S
H595 C570 0.950 . S
H596 C572 0.950 . S
H597 C573 0.949 . S
H598 C575 0.950 . S
H599 C577 0.950 . S
C600 C601 1.349 . S
C600 C602 1.327 . S
C600 H625 0.950 . S
C601 C600 1.349 . S
C601 C617 1.349 . S
C602 C600 1.327 . S
C602 C621 1.429 . S
C602 H626 0.950 . S
C603 C620 1.574 . S
C603 C622 1.368 . S
C603 H627 0.949 . S
H604 C608 0.949 . S
C605 C606 1.349 . S
C605 C607 1.327 . S
C605 H628 0.950 . S
C606 C605 1.349 . S
C606 C618 1.349 . S
C607 C605 1.327 . S
C607 C623 1.429 . S
C607 H629 0.950 . S
C608 H604 0.949 . S
C608 C616 1.574 . S
C608 C624 1.368 . S
H609 C617 0.950 . S
H610 C615 0.950 . S
H611 C616 0.949 . S
H612 C618 0.950 . S
H613 C619 0.950 . S
H614 C620 0.949 . S
C615 H610 0.950 . S
C615 C617 1.327 . S
C615 C621 1.429 . S
C616 C608 1.574 . S
C616 H611 0.949 . S
C616 C622 1.368 . S
C617 C601 1.349 . S
C617 H609 0.950 . S
C617 C615 1.327 . S
C618 C606 1.349 . S
C618 H612 0.950 . S
C618 C619 1.327 . S
C619 H613 0.950 . S
C619 C618 1.327 . S
C619 C623 1.429 . S
C620 C603 1.574 . S
C620 H614 0.949 . S
C620 C624 1.368 . S
C621 C602 1.429 . S
C621 C615 1.429 . S
C621 C622 1.523 . S
C622 C603 1.368 . S
C622 C616 1.368 . S
C622 C621 1.523 . S
C623 C607 1.429 . S
C623 C619 1.429 . S
C623 C624 1.523 . S
C624 C608 1.368 . S
C624 C620 1.368 . S
C624 C623 1.523 . S
H625 C600 0.950 . S
H626 C602 0.950 . S
H627 C603 0.949 . S
H628 C605 0.950 . S
H629 C607 0.950 . S
C630 C631 1.349 . S
C630 C632 1.327 . S
C630 H655 0.950 . S
C631 C630 1.349 . S
C631 C647 1.349 . S
C632 C630 1.327 . S
C632 C651 1.429 . S
C632 H656 0.950 . S
C633 C650 1.574 . S
C633 C652 1.368 . S
C633 H657 0.949 . S
H634 C638 0.949 . S
C635 C636 1.349 . S
C635 C637 1.327 . S
C635 H658 0.950 . S
C636 C635 1.349 . S
C636 C648 1.349 . S
C637 C635 1.327 . S
C637 C653 1.429 . S
C637 H659 0.950 . S
C638 H634 0.949 . S
C638 C646 1.574 . S
C638 C654 1.368 . S
H639 C647 0.950 . S
H640 C645 0.950 . S
H641 C646 0.949 . S
H642 C648 0.950 . S
H643 C649 0.950 . S
H644 C650 0.949 . S
C645 H640 0.950 . S
C645 C647 1.327 . S
C645 C651 1.429 . S
C646 C638 1.574 . S
C646 H641 0.949 . S
C646 C652 1.368 . S
C647 C631 1.349 . S
C647 H639 0.950 . S
C647 C645 1.327 . S
C648 C636 1.349 . S
C648 H642 0.950 . S
C648 C649 1.327 . S
C649 H643 0.950 . S
C649 C648 1.327 . S
C649 C653 1.429 . S
C650 C633 1.574 . S
C650 H644 0.949 . S
C650 C654 1.368 . S
C651 C632 1.429 . S
C651 C645 1.429 . S
C651 C652 1.523 1_455 S
C652 C633 1.368 . S
C652 C646 1.368 . S
C652 C651 1.523 1_655 S
C653 C637 1.429 . S
C653 C649 1.429 . S
C653 C654 1.523 . S
C654 C638 1.368 . S
C654 C650 1.368 . S
C654 C653 1.523 . S
H655 C630 0.950 . S
H656 C632 0.950 . S
H657 C633 0.949 . S
H658 C635 0.950 . S
H659 C637 0.950 . S
C660 C661 1.349 . S
C660 C662 1.327 . S
C660 H685 0.950 . S
C661 C660 1.349 . S
C661 C677 1.349 . S
C662 C660 1.327 . S
C662 C681 1.429 . S
C662 H686 0.950 . S
C663 C680 1.574 . S
C663 C682 1.368 . S
C663 H687 0.949 . S
H664 C668 0.949 . S
C665 C666 1.349 . S
C665 C667 1.327 . S
C665 H688 0.950 . S
C666 C665 1.349 . S
C666 C678 1.349 . S
C667 C665 1.327 . S
C667 C683 1.429 . S
C667 H689 0.950 . S
C668 H664 0.949 . S
C668 C676 1.574 . S
C668 C684 1.368 . S
H669 C677 0.950 . S
H670 C675 0.950 . S
H671 C676 0.949 . S
H672 C678 0.950 . S
H673 C679 0.950 . S
H674 C680 0.949 . S
C675 H670 0.950 . S
C675 C677 1.327 . S
C675 C681 1.429 . S
C676 C668 1.574 . S
C676 H671 0.949 . S
C676 C682 1.368 . S
C677 C661 1.349 . S
C677 H669 0.950 . S
C677 C675 1.327 . S
C678 C666 1.349 . S
C678 H672 0.950 . S
C678 C679 1.327 . S
C679 H673 0.950 . S
C679 C678 1.327 . S
C679 C683 1.429 . S
C680 C663 1.574 . S
C680 H674 0.949 . S
C680 C684 1.368 . S
C681 C662 1.429 . S
C681 C675 1.429 . S
C681 C682 1.523 . S
C682 C663 1.368 . S
C682 C676 1.368 . S
C682 C681 1.523 . S
C683 C667 1.429 . S
C683 C679 1.429 . S
C683 C684 1.523 . S
C684 C668 1.368 . S
C684 C680 1.368 . S
C684 C683 1.523 . S
H685 C660 0.950 . S
H686 C662 0.950 . S
H687 C663 0.949 . S
H688 C665 0.950 . S
H689 C667 0.950 . S
C690 C691 1.349 . S
C690 C692 1.327 . S
C690 H715 0.950 . S
C691 C690 1.349 . S
C691 C707 1.349 . S
C692 C690 1.327 . S
C692 C711 1.429 . S
C692 H716 0.950 . S
C693 C710 1.574 . S
C693 C712 1.368 1_455 S
C693 H717 0.949 . S
H694 C698 0.949 . S
C695 C696 1.349 . S
C695 C697 1.327 . S
C695 H718 0.950 . S
C696 C695 1.349 . S
C696 C708 1.349 . S
C697 C695 1.327 . S
C697 C713 1.429 . S
C697 H719 0.950 . S
C698 H694 0.949 . S
C698 C706 1.574 1_455 S
C698 C714 1.368 . S
H699 C707 0.950 . S
H700 C705 0.950 . S
H701 C706 0.949 . S
H702 C708 0.950 . S
H703 C709 0.950 . S
H704 C710 0.949 . S
C705 H700 0.950 . S
C705 C707 1.327 . S
C705 C711 1.429 . S
C706 C698 1.574 1_655 S
C706 H701 0.949 . S
C706 C712 1.368 . S
C707 C691 1.349 . S
C707 H699 0.950 . S
C707 C705 1.327 . S
C708 C696 1.349 . S
C708 H702 0.950 . S
C708 C709 1.327 . S
C709 H703 0.950 . S
C709 C708 1.327 . S
C709 C713 1.429 . S
C710 C693 1.574 . S
C710 H704 0.949 . S
C710 C714 1.368 . S
C711 C692 1.429 . S
C711 C705 1.429 . S
C711 C712 1.523 . S
C712 C693 1.368 1_655 S
C712 C706 1.368 . S
C712 C711 1.523 . S
C713 C697 1.429 . S
C713 C709 1.429 . S
C713 C714 1.523 . S
C714 C698 1.368 . S
C714 C710 1.368 . S
C714 C713 1.523 . S
H715 C690 0.950 . S
H716 C692 0.950 . S
H717 C693 0.949 . S
H718 C695 0.950 . S
H719 C697 0.950 . S
C720 C721 1.349 . S
C720 C722 1.327 . S
C720 H745 0.950 . S
C721 C720 1.349 . S
C721 C737 1.349 . S
C722 C720 1.327 . S
C722 C741 1.429 . S
C722 H746 0.950 . S
C723 C740 1.574 . S
C723 C742 1.368 . S
C723 H747 0.949 . S
H724 C728 0.949 . S
C725 C726 1.349 . S
C725 C727 1.327 . S
C725 H748 0.950 . S
C726 C725 1.349 . S
C726 C738 1.349 . S
C727 C725 1.327 . S
C727 C743 1.429 . S
C727 H749 0.950 . S
C728 H724 0.949 . S
C728 C736 1.574 . S
C728 C744 1.368 . S
H729 C737 0.950 . S
H730 C735 0.950 . S
H731 C736 0.949 . S
H732 C738 0.950 . S
H733 C739 0.950 . S
H734 C740 0.949 . S
C735 H730 0.950 . S
C735 C737 1.327 . S
C735 C741 1.429 . S
C736 C728 1.574 . S
C736 H731 0.949 . S
C736 C742 1.368 . S
C737 C721 1.349 . S
C737 H729 0.950 . S
C737 C735 1.327 . S
C738 C726 1.349 . S
C738 H732 0.950 . S
C738 C739 1.327 . S
C739 H733 0.950 . S
C739 C738 1.327 . S
C739 C743 1.429 . S
C740 C723 1.574 . S
C740 H734 0.949 . S
C740 C744 1.368 . S
C741 C722 1.429 . S
C741 C735 1.429 . S
C741 C742 1.523 . S
C742 C723 1.368 . S
C742 C736 1.368 . S
C742 C741 1.523 . S
C743 C727 1.429 . S
C743 C739 1.429 . S
C743 C744 1.523 . S
C744 C728 1.368 . S
C744 C740 1.368 . S
C744 C743 1.523 . S
H745 C720 0.950 . S
H746 C722 0.950 . S
H747 C723 0.949 . S
H748 C725 0.950 . S
H749 C727 0.950 . S
C750 C751 1.349 . S
C750 C752 1.327 . S
C750 H775 0.950 . S
C751 C750 1.349 . S
C751 C767 1.349 . S
C752 C750 1.327 . S
C752 C771 1.429 . S
C752 H776 0.950 . S
C753 C770 1.574 . S
C753 C772 1.368 . S
C753 H777 0.949 . S
H754 C758 0.949 . S
C755 C756 1.349 . S
C755 C757 1.327 . S
C755 H778 0.950 . S
C756 C755 1.349 . S
C756 C768 1.349 . S
C757 C755 1.327 . S
C757 C773 1.429 . S
C757 H779 0.950 . S
C758 H754 0.949 . S
C758 C766 1.574 . S
C758 C774 1.368 . S
H759 C767 0.950 . S
H760 C765 0.950 . S
H761 C766 0.949 . S
H762 C768 0.950 . S
H763 C769 0.950 . S
H764 C770 0.949 . S
C765 H760 0.950 . S
C765 C767 1.327 . S
C765 C771 1.429 . S
C766 C758 1.574 . S
C766 H761 0.949 . S
C766 C772 1.368 . S
C767 C751 1.349 . S
C767 H759 0.950 . S
C767 C765 1.327 . S
C768 C756 1.349 . S
C768 H762 0.950 . S
C768 C769 1.327 . S
C769 H763 0.950 . S
C769 C768 1.327 . S
C769 C773 1.429 . S
C770 C753 1.574 . S
C770 H764 0.949 . S
C770 C774 1.368 . S
C771 C752 1.429 . S
C771 C765 1.429 . S
C771 C772 1.523 . S
C772 C753 1.368 . S
C772 C766 1.368 . S
C772 C771 1.523 . S
C773 C757 1.429 . S
C773 C769 1.429 . S
C773 C774 1.523 . S
C774 C758 1.368 . S
C774 C770 1.368 . S
C774 C773 1.523 . S
H775 C750 0.950 . S
H776 C752 0.950 . S
H777 C753 0.949 . S
H778 C755 0.950 . S
H779 C757 0.950 . S
C780 C781 1.349 . S
C780 C782 1.327 . S
C780 H805 0.950 . S
C781 C780 1.349 . S
C781 C797 1.349 . S
C782 C780 1.327 . S
C782 C801 1.429 . S
C782 H806 0.950 . S
C783 C800 1.574 . S
C783 C802 1.368 . S
C783 H807 0.949 . S
H784 C788 0.949 . S
C785 C786 1.349 . S
C785 C787 1.327 . S
C785 H808 0.950 . S
C786 C785 1.349 . S
C786 C798 1.349 . S
C787 C785 1.327 . S
C787 C803 1.429 . S
C787 H809 0.950 . S
C788 H784 0.949 . S
C788 C796 1.574 . S
C788 C804 1.368 . S
H789 C797 0.950 . S
H790 C795 0.950 . S
H791 C796 0.949 . S
H792 C798 0.950 . S
H793 C799 0.950 . S
H794 C800 0.949 . S
C795 H790 0.950 . S
C795 C797 1.327 . S
C795 C801 1.429 . S
C796 C788 1.574 . S
C796 H791 0.949 . S
C796 C802 1.368 . S
C797 C781 1.349 . S
C797 H789 0.950 . S
C797 C795 1.327 . S
C798 C786 1.349 . S
C798 H792 0.950 . S
C798 C799 1.327 . S
C799 H793 0.950 . S
C799 C798 1.327 . S
C799 C803 1.429 . S
C800 C783 1.574 . S
C800 H794 0.949 . S
C800 C804 1.368 . S
C801 C782 1.429 . S
C801 C795 1.429 . S
C801 C802 1.523 . S
C802 C783 1.368 . S
C802 C796 1.368 . S
C802 C801 1.523 . S
C803 C787 1.429 . S
C803 C799 1.429 . S
C803 C804 1.523 . S
C804 C788 1.368 . S
C804 C800 1.368 . S
C804 C803 1.523 . S
H805 C780 0.950 . S
H806 C782 0.950 . S
H807 C783 0.949 . S
H808 C785 0.950 . S
H809 C787 0.950 . S
C810 C811 1.349 . S
C810 C812 1.327 . S
C810 H835 0.950 . S
C811 C810 1.349 . S
C811 C827 1.349 . S
C812 C810 1.327 . S
C812 C831 1.429 . S
C812 H836 0.950 . S
C813 C830 1.574 . S
C813 C832 1.368 . S
C813 H837 0.949 . S
H814 C818 0.949 . S
C815 C816 1.349 . S
C815 C817 1.327 . S
C815 H838 0.950 . S
C816 C815 1.349 . S
C816 C828 1.349 . S
C817 C815 1.327 . S
C817 C833 1.429 . S
C817 H839 0.950 . S
C818 H814 0.949 . S
C818 C826 1.574 . S
C818 C834 1.368 . S
H819 C827 0.950 . S
H820 C825 0.950 . S
H821 C826 0.949 . S
H822 C828 0.950 . S
H823 C829 0.950 . S
H824 C830 0.949 . S
C825 H820 0.950 . S
C825 C827 1.327 . S
C825 C831 1.429 . S
C826 C818 1.574 . S
C826 H821 0.949 . S
C826 C832 1.368 . S
C827 C811 1.349 . S
C827 H819 0.950 . S
C827 C825 1.327 . S
C828 C816 1.349 . S
C828 H822 0.950 . S
C828 C829 1.327 . S
C829 H823 0.950 . S
C829 C828 1.327 . S
C829 C833 1.429 . S
C830 C813 1.574 . S
C830 H824 0.949 . S
C830 C834 1.368 . S
C831 C812 1.429 . S
C831 C825 1.429 . S
C831 C832 1.523 . S
C832 C813 1.368 . S
C832 C826 1.368 . S
C832 C831 1.523 . S
C833 C817 1.429 . S
C833 C829 1.429 . S
C833 C834 1.523 . S
C834 C818 1.368 . S
C834 C830 1.368 . S
C834 C833 1.523 . S
H835 C810 0.950 . S
H836 C812 0.950 . S
H837 C813 0.949 . S
H838 C815 0.950 . S
H839 C817 0.950 . S
C840 C841 1.349 . S
C840 C842 1.327 . S
C840 H865 0.950 . S
C841 C840 1.349 . S
C841 C857 1.349 . S
C842 C840 1.327 . S
C842 C861 1.429 . S
C842 H866 0.950 . S
C843 C860 1.574 . S
C843 C862 1.368 . S
C843 H867 0.949 . S
H844 C848 0.949 . S
C845 C846 1.349 . S
C845 C847 1.327 . S
C845 H868 0.950 . S
C846 C845 1.349 . S
C846 C858 1.349 . S
C847 C845 1.327 . S
C847 C863 1.429 . S
C847 H869 0.950 . S
C848 H844 0.949 . S
C848 C856 1.574 . S
C848 C864 1.368 . S
H849 C857 0.950 . S
H850 C855 0.950 . S
H851 C856 0.949 . S
H852 C858 0.950 . S
H853 C859 0.950 . S
H854 C860 0.949 . S
C855 H850 0.950 . S
C855 C857 1.327 . S
C855 C861 1.429 . S
C856 C848 1.574 . S
C856 H851 0.949 . S
C856 C862 1.368 . S
C857 C841 1.349 . S
C857 H849 0.950 . S
C857 C855 1.327 . S
C858 C846 1.349 . S
C858 H852 0.950 . S
C858 C859 1.327 . S
C859 H853 0.950 . S
C859 C858 1.327 . S
C859 C863 1.429 . S
C860 C843 1.574 . S
C860 H854 0.949 . S
C860 C864 1.368 . S
C861 C842 1.429 . S
C861 C855 1.429 . S
C861 C862 1.523 . S
C862 C843 1.368 . S
C862 C856 1.368 . S
C862 C861 1.523 . S
C863 C847 1.429 . S
C863 C859 1.429 . S
C863 C864 1.523 . S
C864 C848 1.368 . S
C864 C860 1.368 . S
C864 C863 1.523 . S
H865 C840 0.950 . S
H866 C842 0.950 . S
H867 C843 0.949 . S
H868 C845 0.950 . S
H869 C847 0.950 . S
C870 C871 1.349 . S
C870 C872 1.327 . S
C870 H895 0.950 . S
C871 C870 1.349 . S
C871 C887 1.349 . S
C872 C870 1.327 . S
C872 C891 1.429 . S
C872 H896 0.950 . S
C873 C890 1.574 . S
C873 C892 1.368 . S
C873 H897 0.949 . S
H874 C878 0.949 . S
C875 C876 1.349 . S
C875 C877 1.327 . S
C875 H898 0.950 . S
C876 C875 1.349 . S
C876 C888 1.349 . S
C877 C875 1.327 . S
C877 C893 1.429 . S
C877 H899 0.950 . S
C878 H874 0.949 . S
C878 C886 1.574 . S
C878 C894 1.368 . S
H879 C887 0.950 . S
H880 C885 0.950 . S
H881 C886 0.949 . S
H882 C888 0.950 . S
H883 C889 0.950 . S
H884 C890 0.949 . S
C885 H880 0.950 . S
C885 C887 1.327 . S
C885 C891 1.429 . S
C886 C878 1.574 . S
C886 H881 0.949 . S
C886 C892 1.368 . S
C887 C871 1.349 . S
C887 H879 0.950 . S
C887 C885 1.327 . S
C888 C876 1.349 . S
C888 H882 0.950 . S
C888 C889 1.327 . S
C889 H883 0.950 . S
C889 C888 1.327 . S
C889 C893 1.429 . S
C890 C873 1.574 . S
C890 H884 0.949 . S
C890 C894 1.368 . S
C891 C872 1.429 . S
C891 C885 1.429 . S
C891 C892 1.523 . S
C892 C873 1.368 . S
C892 C886 1.368 . S
C892 C891 1.523 . S
C893 C877 1.429 . S
C893 C889 1.429 . S
C893 C894 1.523 . S
C894 C878 1.368 . S
C894 C890 1.368 . S
C894 C893 1.523 . S
H895 C870 0.950 . S
H896 C872 0.950 . S
H897 C873 0.949 . S
H898 C875 0.950 . S
H899 C877 0.950 . S
C900 C901 1.349 . S
C900 C902 1.327 . S
C900 H925 0.950 . S
C901 C900 1.349 . S
C901 C917 1.349 . S
C902 C900 1.327 . S
C902 C921 1.429 . S
C902 H926 0.950 . S
C903 C920 1.574 . S
C903 C922 1.368 . S
C903 H927 0.949 . S
H904 C908 0.949 . S
C905 C906 1.349 . S
C905 C907 1.327 . S
C905 H928 0.950 . S
C906 C905 1.349 . S
C906 C918 1.349 . S
C907 C905 1.327 . S
C907 C923 1.429 . S
C907 H929 0.950 . S
C908 H904 0.949 . S
C908 C916 1.574 . S
C908 C924 1.368 . S
H909 C917 0.950 . S
H910 C915 0.950 . S
H911 C916 0.949 . S
H912 C918 0.950 . S
H913 C919 0.950 . S
H914 C920 0.949 . S
C915 H910 0.950 . S
C915 C917 1.327 . S
C915 C921 1.429 . S
C916 C908 1.574 . S
C916 H911 0.949 . S
C916 C922 1.368 . S
C917 C901 1.349 . S
C917 H909 0.950 . S
C917 C915 1.327 . S
C918 C906 1.349 . S
C918 H912 0.950 . S
C918 C919 1.327 . S
C919 H913 0.950 . S
C919 C918 1.327 . S
C919 C923 1.429 . S
C920 C903 1.574 . S
C920 H914 0.949 . S
C920 C924 1.368 . S
C921 C902 1.429 . S
C921 C915 1.429 . S
C921 C922 1.523 . S
C922 C903 1.368 . S
C922 C916 1.368 . S
C922 C921 1.523 . S
C923 C907 1.429 . S
C923 C919 1.429 . S
C923 C924 1.523 . S
C924 C908 1.368 . S
C924 C920 1.368 . S
C924 C923 1.523 . S
H925 C900 0.950 . S
H926 C902 0.950 . S
H927 C903 0.949 . S
H928 C905 0.950 . S
H929 C907 0.950 . S
C930 C931 1.349 . S
C930 C932 1.327 . S
C930 H955 0.950 . S
C931 C930 1.349 . S
C931 C947 1.349 . S
C932 C930 1.327 . S
C932 C951 1.429 . S
C932 H956 0.950 . S
C933 C950 1.574 . S
C933 C952 1.368 . S
C933 H957 0.949 . S
H934 C938 0.949 . S
C935 C936 1.349 . S
C935 C937 1.327 . S
C935 H958 0.950 . S
C936 C935 1.349 . S
C936 C948 1.349 . S
C937 C935 1.327 . S
C937 C953 1.429 . S
C937 H959 0.950 . S
C938 H934 0.949 . S
C938 C946 1.574 . S
C938 C954 1.368 . S
H939 C947 0.950 . S
H940 C945 0.950 . S
H941 C946 0.949 . S
H942 C948 0.950 . S
H943 C949 0.950 . S
H944 C950 0.949 . S
C945 H940 0.950 . S
C945 C947 1.327 . S
C945 C951 1.429 . S
C946 C938 1.574 . S
C946 H941 0.949 . S
C946 C952 1.368 . S
C947 C931 1.349 . S
C947 H939 0.950 . S
C947 C945 1.327 . S
C948 C936 1.349 . S
C948 H942 0.950 . S
C948 C949 1.327 . S
C949 H943 0.950 . S
C949 C948 1.327 . S
C949 C953 1.429 . S
C950 C933 1.574 . S
C950 H944 0.949 . S
C950 C954 1.368 . S
C951 C932 1.429 . S
C951 C945 1.429 . S
C951 C952 1.523 . S
C952 C933 1.368 . S
C952 C946 1.368 . S
C952 C951 1.523 . S
C953 C937 1.429 . S
C953 C949 1.429 . S
C953 C954 1.523 . S
C954 C938 1.368 . S
C954 C950 1.368 . S
C954 C953 1.523 . S
H955 C930 0.950 . S
H956 C932 0.950 . S
H957 C933 0.949 . S
H958 C935 0.950 . S
H959 C937 0.950 . S
C241 C7 1.429 . S
C246 C90 1.358 . S
C271 C37 1.444 . S
C276 C109 1.354 . S
C301 C54 1.149 . S
C306 C132 1.126 . S
C336 C151 1.184 . S
C331 C87 1.188 . S
C366 C166 1.312 . S
C361 C30 1.392 . S
C391 C51 1.198 . S
C396 C189 1.195 . S
C421 C84 1.203 . S
C426 C208 1.179 . S
C451 C10 1.403 . S
C456 C223 1.306 . S
C481 C59 1.268 . S
C486 C227 1.262 . S
C516 C170 1.094 . S
C511 C74 1.112 . S
C546 C185 1.277 . S
C541 C18 1.369 . S
C571 C32 1.497 . S
C576 C204 1.415 . S
C606 C113 1.242 . S
C601 C73 1.252 . S
C631 C15 1.503 . S
C636 C128 1.435 . S
C666 C147 1.337 . S
C661 C43 1.419 . S
C696 C94 1.071 . S
C691 C62 1.089 . S
C726 C213 1.341 . S
C721 C21 1.426 . S
C756 C232 1.323 . S
C751 C29 1.429 . S
C781 C52 1.291 . S
C786 C175 1.212 . S
C816 C194 1.220 . S
C811 C81 1.327 . S
C846 C137 1.299 . S
C841 C40 1.391 . S
C871 C65 1.347 . S
C876 C156 1.245 . S
C906 C99 1.206 . S
C901 C76 1.286 . S
C936 C118 1.345 . S
C931 C8 1.449 . S
