# Generated by pormake.
# Topology pyr, (3,6)-cn, num edge types: 1
# Building blocks:
#     Node 0, Type 0, BuildingBlock: ESEHIV_clean_linker_0, # of connection points: 3
#     Node 1, Type 0, BuildingBlock: ESEHIV_clean_linker_0, # of connection points: 3
#     Node 2, Type 0, BuildingBlock: ESEHIV_clean_linker_0, # of connection points: 3
#     Node 3, Type 0, BuildingBlock: ESEHIV_clean_linker_0, # of connection points: 3
#     Node 4, Type 0, BuildingBlock: ESEHIV_clean_linker_0, # of connection points: 3
#     Node 5, Type 0, BuildingBlock: ESEHIV_clean_linker_0, # of connection points: 3
#     Node 6, Type 0, BuildingBlock: ESEHIV_clean_linker_0, # of connection points: 3
#     Node 7, Type 0, BuildingBlock: ESEHIV_clean_linker_0, # of connection points: 3
#     Node 8, Type 1, BuildingBlock: VOLQOD_clean_sbu_1, # of connection points: 6
#     Node 9, Type 1, BuildingBlock: VOLQOD_clean_sbu_1, # of connection points: 6
#     Node 10, Type 1, BuildingBlock: VOLQOD_clean_sbu_1, # of connection points: 6
#     Node 11, Type 1, BuildingBlock: VOLQOD_clean_sbu_1, # of connection points: 6
#     Edge 12, Type (0, 1), BuildingBlock: UVAHIK_clean_linker_0, # of connection points: 2
#     Edge 13, Type (0, 1), BuildingBlock: UVAHIK_clean_linker_0, # of connection points: 2
#     Edge 14, Type (0, 1), BuildingBlock: UVAHIK_clean_linker_0, # of connection points: 2
#     Edge 15, Type (0, 1), BuildingBlock: UVAHIK_clean_linker_0, # of connection points: 2
#     Edge 16, Type (0, 1), BuildingBlock: UVAHIK_clean_linker_0, # of connection points: 2
#     Edge 17, Type (0, 1), BuildingBlock: UVAHIK_clean_linker_0, # of connection points: 2
#     Edge 18, Type (0, 1), BuildingBlock: UVAHIK_clean_linker_0, # of connection points: 2
#     Edge 19, Type (0, 1), BuildingBlock: UVAHIK_clean_linker_0, # of connection points: 2
#     Edge 20, Type (0, 1), BuildingBlock: UVAHIK_clean_linker_0, # of connection points: 2
#     Edge 21, Type (0, 1), BuildingBlock: UVAHIK_clean_linker_0, # of connection points: 2
#     Edge 22, Type (0, 1), BuildingBlock: UVAHIK_clean_linker_0, # of connection points: 2
#     Edge 23, Type (0, 1), BuildingBlock: UVAHIK_clean_linker_0, # of connection points: 2
#     Edge 24, Type (0, 1), BuildingBlock: UVAHIK_clean_linker_0, # of connection points: 2
#     Edge 25, Type (0, 1), BuildingBlock: UVAHIK_clean_linker_0, # of connection points: 2
#     Edge 26, Type (0, 1), BuildingBlock: UVAHIK_clean_linker_0, # of connection points: 2
#     Edge 27, Type (0, 1), BuildingBlock: UVAHIK_clean_linker_0, # of connection points: 2
#     Edge 28, Type (0, 1), BuildingBlock: UVAHIK_clean_linker_0, # of connection points: 2
#     Edge 29, Type (0, 1), BuildingBlock: UVAHIK_clean_linker_0, # of connection points: 2
#     Edge 30, Type (0, 1), BuildingBlock: UVAHIK_clean_linker_0, # of connection points: 2
#     Edge 31, Type (0, 1), BuildingBlock: UVAHIK_clean_linker_0, # of connection points: 2
#     Edge 32, Type (0, 1), BuildingBlock: UVAHIK_clean_linker_0, # of connection points: 2
#     Edge 33, Type (0, 1), BuildingBlock: UVAHIK_clean_linker_0, # of connection points: 2
#     Edge 34, Type (0, 1), BuildingBlock: UVAHIK_clean_linker_0, # of connection points: 2
#     Edge 35, Type (0, 1), BuildingBlock: UVAHIK_clean_linker_0, # of connection points: 2
# Relax obj value: 0.035
# Max RMSD: 0.119
# Mean RMSD: 0.043
data_MOF--net-pry--node1-VOLQOD_clean_sbu_1--node2-ESEHIV_clean_linker_0--edge1-UVAHIK_clean_linker_0
_symmetry_space_group_name_H-M    P1
_symmetry_Int_Tables_number       1
_symmetry_cell_setting            triclinic
loop_
_symmetry_equiv_pos_as_xyz
'x, y, z'
_cell_length_a     45.76212
_cell_length_b     45.755741
_cell_length_c     45.99694
_cell_angle_alpha  90.106465
_cell_angle_beta   90.042656
_cell_angle_gamma 90.257259
loop_
_atom_site_label
_atom_site_type_symbol
_atom_site_fract_x
_atom_site_fract_y
_atom_site_fract_z
_atom_type_partial_charge
H0 H 0.07866 0.15035 0.1452 0.0
H1 H 0.14083 0.08066 0.14641 0.0
H2 H 0.14848 0.149 0.08259 0.0
C3 C 0.0979 0.14015 0.13602 0.0
C4 C 0.11182 0.15262 0.11178 0.0
C5 C 0.10858 0.11456 0.14881 0.0
C6 C 0.13281 0.10055 0.13654 0.0
C7 C 0.14733 0.11269 0.11244 0.0
C8 C 0.13667 0.13878 0.10028 0.0
H9 H 0.37082 0.9332 0.64489 0.0
H10 H 0.43715 0.86684 0.6423 0.0
H11 H 0.36858 0.86745 0.57835 0.0
C12 C 0.3809 0.91464 0.63428 0.0
C13 C 0.36713 0.90205 0.61001 0.0
C14 C 0.40626 0.90214 0.64615 0.0
C15 C 0.41792 0.87692 0.63305 0.0
C16 C 0.40424 0.86387 0.60889 0.0
C17 C 0.37915 0.87699 0.59723 0.0
H18 H 0.64519 0.37279 0.94493 0.0
H19 H 0.64572 0.4374 0.87749 0.0
H20 H 0.5802 0.36958 0.87744 0.0
C21 C 0.63557 0.38173 0.92534 0.0
C22 C 0.61129 0.36788 0.91257 0.0
C23 C 0.64793 0.40686 0.91289 0.0
C24 C 0.63537 0.41873 0.88773 0.0
C25 C 0.61087 0.40544 0.87469 0.0
C26 C 0.59882 0.38021 0.88752 0.0
H27 H 0.86809 0.63929 0.43615 0.0
H28 H 0.94097 0.63949 0.37769 0.0
H29 H 0.87701 0.57046 0.3729 0.0
C30 C 0.88047 0.62858 0.41915 0.0
C31 C 0.86985 0.60262 0.40647 0.0
C32 C 0.90588 0.64207 0.40856 0.0
C33 C 0.92116 0.62912 0.38553 0.0
C34 C 0.91082 0.60343 0.37222 0.0
C35 C 0.88535 0.59011 0.38316 0.0
H36 H 0.88643 0.95434 0.88812 0.0
H37 H 0.95994 0.89637 0.89321 0.0
H38 H 0.89158 0.89137 0.95705 0.0
C39 C 0.89858 0.93756 0.89943 0.0
C40 C 0.88675 0.92512 0.92475 0.0
C41 C 0.92487 0.92719 0.88766 0.0
C42 C 0.93962 0.90459 0.90204 0.0
C43 C 0.92763 0.89124 0.9268 0.0
C44 C 0.90155 0.90217 0.93856 0.0
H45 H 0.56023 0.11952 0.38755 0.0
H46 H 0.62083 0.04839 0.39108 0.0
H47 H 0.62478 0.11727 0.45518 0.0
C48 C 0.57808 0.10845 0.39839 0.0
C49 C 0.59061 0.12087 0.42334 0.0
C50 C 0.58906 0.08253 0.38654 0.0
C51 C 0.61217 0.06824 0.40053 0.0
C52 C 0.62541 0.08058 0.42539 0.0
C53 C 0.61409 0.10673 0.43691 0.0
H54 H 0.39803 0.62499 0.06441 0.0
H55 H 0.38568 0.55752 0.12836 0.0
H56 H 0.45466 0.62068 0.13887 0.0
C57 C 0.40516 0.61391 0.08397 0.0
C58 C 0.42871 0.6253 0.09999 0.0
C59 C 0.38943 0.58951 0.09406 0.0
C60 C 0.39832 0.57567 0.11981 0.0
C61 C 0.42172 0.58699 0.13612 0.0
C62 C 0.43688 0.61167 0.12603 0.0
H63 H 0.04905 0.396 0.6274 0.0
H64 H 0.12288 0.3827 0.57092 0.0
H65 H 0.12625 0.44929 0.63634 0.0
C66 C 0.07085 0.4019 0.62034 0.0
C67 C 0.08592 0.42454 0.63474 0.0
C68 C 0.084 0.38629 0.59746 0.0
C69 C 0.11192 0.39492 0.58787 0.0
C70 C 0.12694 0.41788 0.60157 0.0
C71 C 0.11397 0.43242 0.62506 0.0
O72 O 0.99082 0.0778 0.53714 0.0
Zn73 Zn 0.97669 0.03597 0.53644 0.0
O74 O 0.00164 0.01167 0.51166 0.0
Zn75 Zn 0.97971 0.99792 0.47781 0.0
Zn76 Zn 0.03533 0.0346 0.49865 0.0
Zn77 Zn 0.01482 0.97788 0.53379 0.0
O78 O 0.97809 0.95408 0.47638 0.0
O79 O 0.0001 0.93989 0.51691 0.0
O80 O 0.93511 0.03545 0.52181 0.0
O81 O 0.93804 0.01149 0.47987 0.0
O82 O 0.99764 0.01173 0.44027 0.0
O83 O 0.0369 0.03637 0.45499 0.0
O84 O 0.07334 0.01747 0.51329 0.0
O85 O 0.97629 0.02147 0.57779 0.0
O86 O 0.05857 0.97652 0.53473 0.0
O87 O 0.00132 0.98012 0.57522 0.0
C88 C 0.01328 0.0904 0.52656 0.0
C89 C 0.98635 0.93397 0.49355 0.0
C90 C 0.0205 0.02668 0.43475 0.0
C91 C 0.92323 0.02536 0.4988 0.0
C92 C 0.07892 0.99374 0.52662 0.0
C93 C 0.9867 0.9987 0.58975 0.0
O94 O 0.03218 0.07631 0.51193 0.0
O95 O 0.5012 0.06574 0.98596 0.0
Zn96 Zn 0.48509 0.02456 0.98743 0.0
O97 O 0.50975 -0.00068 0.0116 0.0
Zn98 Zn 0.52554 0.96773 0.98778 0.0
Zn99 Zn 0.54194 0.02214 0.02814 0.0
Zn100 Zn 0.4867 0.98262 0.04328 0.0
O101 O 0.51429 0.92823 0.00357 0.0
O102 O 0.48679 0.93874 0.04188 0.0
O103 O 0.48276 0.00957 0.94608 0.0
O104 O 0.51044 0.96986 0.94692 0.0
O105 O 0.56946 0.96967 0.98622 0.0
O106 O 0.58098 0.00535 0.01702 0.0
O107 O 0.53987 0.02365 0.07181 0.0
O108 O 0.44403 0.02626 0.00332 0.0
O109 O 0.50275 0.99414 0.08234 0.0
O110 O 0.44517 0.99685 0.04168 0.0
C111 C 0.52379 0.0777 0.99711 0.0
C112 C 0.49882 0.92018 0.02513 0.0
C113 C 0.58845 0.98512 -0.00046 0.0
C114 C 0.4939 0.98751 0.93337 0.0
C115 C 0.52352 0.01091 0.09029 0.0
C116 C 0.43144 0.01412 0.02487 0.0
O117 O 0.54111 0.06336 0.01334 0.0
O118 O 0.53327 0.50683 0.57264 0.0
Zn119 Zn 0.52887 0.52123 0.53126 0.0
O120 O 0.50326 0.49535 0.50839 0.0
Zn121 Zn 0.52452 0.47943 0.4751 0.0
Zn122 Zn 0.4896 0.46328 0.53293 0.0
Zn123 Zn 0.46969 0.51725 0.49409 0.0
O124 O 0.50565 0.4903 0.43703 0.0
O125 O 0.46891 0.5188 0.45041 0.0
O126 O 0.56907 0.52347 0.51336 0.0
O127 O 0.56573 0.49496 0.47432 0.0
O128 O 0.52626 0.43557 0.47681 0.0
O129 O 0.50212 0.42428 0.51713 0.0
O130 O 0.44572 0.46304 0.53629 0.0
O131 O 0.51247 0.56212 0.53328 0.0
O132 O 0.43181 0.49917 0.50731 0.0
O133 O 0.47068 0.55851 0.50893 0.0
C134 C 0.52289 0.48469 0.58592 0.0
C135 C 0.48408 0.50657 0.43069 0.0
C136 C 0.51651 0.41669 0.4947 0.0
C137 C 0.58039 0.51201 0.49077 0.0
C138 C 0.42572 0.4782 0.52445 0.0
C139 C 0.48894 0.57342 0.52376 0.0
O140 O 0.50607 0.46655 0.57313 0.0
O141 O 0.98953 0.50616 0.07236 0.0
Zn142 Zn 0.98923 0.49233 0.03084 0.0
O143 O 0.01363 0.51731 0.00618 0.0
Zn144 Zn 0.98978 0.53479 0.97557 0.0
Zn145 Zn 0.03116 0.54834 0.02992 0.0
Zn146 Zn 0.04437 0.49375 0.98826 0.0
O147 O 0.00416 0.52371 0.93578 0.0
O148 O 0.04252 0.49557 0.94456 0.0
O149 O 0.9474 0.49187 0.01686 0.0
O150 O 0.9481 0.52105 0.97832 0.0
O151 O 0.99031 0.57875 0.97822 0.0
O152 O 0.01846 0.58814 0.0165 0.0
O153 O 0.07516 0.54681 0.02806 0.0
O154 O 0.004 0.45094 0.03107 0.0
O155 O 0.08416 0.50795 0.0005 0.0
O156 O 0.04124 0.45154 0.00015 0.0
C157 C 0.00242 0.5271 0.08544 0.0
C158 C 0.02533 0.50816 0.92683 0.0
C159 C 0.0024 0.59679 0.99564 0.0
C160 C 0.93443 0.50422 0.9957 0.0
C161 C 0.09304 0.52935 0.01593 0.0
C162 C 0.02451 0.43792 0.01764 0.0
O163 O 0.01905 0.54478 0.07185 0.0
C164 C 0.08776 0.07462 0.18005 0.0
C165 C 0.09594 0.10399 0.17646 0.0
C166 C 0.07669 0.06486 0.2067 0.0
C167 C 0.04717 0.09258 0.27737 0.0
H168 H 0.06874 0.0157 0.30528 0.0
C169 C 0.04451 0.05869 0.39784 0.0
C170 C 0.02776 0.03372 0.40427 0.0
C171 C 0.05064 0.06605 0.36905 0.0
C172 C 0.06238 0.03711 0.29756 0.0
H173 H 0.09966 0.14604 0.19783 0.0
H174 H 0.08155 0.12903 0.24445 0.0
H175 H 0.08349 0.03099 0.25657 0.0
H176 H 0.00483 0.99652 0.38569 0.0
H177 H 0.01651 0.00902 0.33515 0.0
H178 H 0.02745 0.09908 0.31911 0.0
C179 C 0.08244 0.11359 0.22661 0.0
C180 C 0.07065 0.04586 0.26962 0.0
C181 C 0.09301 0.12338 0.19992 0.0
C182 C 0.0177 0.01595 0.38134 0.0
C183 C 0.02442 0.02299 0.35252 0.0
C184 C 0.03946 0.08403 0.30544 0.0
C185 C 0.07406 0.08421 0.23041 0.0
C186 C 0.06348 0.0739 0.25928 0.0
C187 C 0.04068 0.04826 0.34619 0.0
C188 C 0.04726 0.05637 0.31584 0.0
H189 H 0.08976 0.0593 0.16219 0.0
H190 H 0.07009 0.0422 0.20863 0.0
H191 H 0.04052 0.114 0.26998 0.0
H192 H 0.05244 0.07287 0.41503 0.0
H193 H 0.06338 0.08556 0.36461 0.0
C194 C 0.42998 0.89496 0.69492 0.0
C195 C 0.4191 0.91401 0.67353 0.0
C196 C 0.44079 0.90584 0.72118 0.0
C197 C 0.43279 0.96593 0.77181 0.0
H198 H 0.50575 0.9379 0.80408 0.0
C199 C 0.47422 0.00336 0.88492 0.0
C200 C 0.48731 0.98187 0.90234 0.0
C201 C 0.46795 0.9977 0.85566 0.0
C202 C 0.48517 0.94573 0.79555 0.0
H203 H 0.41168 0.95963 0.66303 0.0
H204 H 0.42973 0.97849 0.7095 0.0
H205 H 0.49117 0.92302 0.75524 0.0
H206 H 0.50384 0.93749 0.90274 0.0
H207 H 0.49212 0.92734 0.85229 0.0
H208 H 0.42601 0.98759 0.81247 0.0
C209 C 0.42992 0.95513 0.70564 0.0
C210 C 0.47695 0.93733 0.76751 0.0
C211 C 0.41949 0.94428 0.67912 0.0
C212 C 0.49397 0.95464 0.8899 0.0
C213 C 0.48743 0.94888 0.86082 0.0
C214 C 0.44081 0.97406 0.80004 0.0
C215 C 0.44059 0.93597 0.72691 0.0
C216 C 0.45051 0.94702 0.75554 0.0
C217 C 0.47439 0.97033 0.84327 0.0
C218 C 0.4669 0.96367 0.81244 0.0
H219 H 0.42939 0.87151 0.69183 0.0
H220 H 0.44848 0.89057 0.73742 0.0
H221 H 0.41214 0.97349 0.76315 0.0
H222 H 0.46898 0.02464 0.89381 0.0
H223 H 0.45825 0.01486 0.84272 0.0
C224 C 0.59855 0.44682 0.84068 0.0
C225 C 0.59919 0.41664 0.8466 0.0
C226 C 0.58869 0.45706 0.81377 0.0
C227 C 0.54257 0.43732 0.75183 0.0
H228 H 0.59279 0.48807 0.70629 0.0
C229 C 0.52471 0.45228 0.62953 0.0
C230 C 0.53054 0.47956 0.61676 0.0
C231 C 0.53182 0.44709 0.65853 0.0
C232 C 0.57821 0.47437 0.71888 0.0
H233 H 0.59027 0.37365 0.82837 0.0
H234 H 0.57209 0.39163 0.78212 0.0
H235 H 0.60686 0.47502 0.75582 0.0
H236 H 0.54824 0.52292 0.62459 0.0
H237 H 0.56 0.51409 0.67561 0.0
H238 H 0.51376 0.4367 0.71531 0.0
C239 C 0.57913 0.4073 0.7984 0.0
C240 C 0.58634 0.46685 0.74721 0.0
C241 C 0.5894 0.39704 0.82504 0.0
C242 C 0.54359 0.50161 0.63375 0.0
C243 C 0.55045 0.4965 0.66297 0.0
C244 C 0.53424 0.44511 0.72372 0.0
C245 C 0.57884 0.43735 0.79245 0.0
C246 C 0.56888 0.44777 0.76368 0.0
C247 C 0.54463 0.46914 0.67572 0.0
C248 C 0.55227 0.46318 0.70661 0.0
H249 H 0.60557 0.46258 0.85685 0.0
H250 H 0.5885 0.48037 0.8097 0.0
H251 H 0.52854 0.42289 0.76427 0.0
H252 H 0.51494 0.4347 0.61701 0.0
H253 H 0.52765 0.42553 0.66732 0.0
C254 C 0.93648 0.61154 0.32467 0.0
C255 C 0.92522 0.59201 0.3455 0.0
C256 C 0.94864 0.60121 0.29886 0.0
C257 C 0.94307 0.54182 0.24749 0.0
H258 H 0.01605 0.57248 0.21715 0.0
C259 C 0.98484 0.50902 0.13379 0.0
C260 C 0.9974 0.53136 0.11693 0.0
C261 C 0.97915 0.51346 0.16331 0.0
C262 C 0.9955 0.56389 0.22515 0.0
H263 H 0.91862 0.54609 0.35553 0.0
H264 H 0.93896 0.52815 0.3097 0.0
H265 H 0.00049 0.58573 0.26613 0.0
H266 H 0.01403 0.57581 0.11787 0.0
H267 H 0.00322 0.58393 0.16895 0.0
H268 H 0.93714 0.52121 0.2062 0.0
C269 C 0.93845 0.55148 0.31373 0.0
C270 C 0.98673 0.57134 0.25327 0.0
C271 C 0.92667 0.56179 0.33985 0.0
C272 C 0.0045 0.55809 0.13029 0.0
C273 C 0.99847 0.56266 0.1597 0.0
C274 C 0.95162 0.53468 0.21922 0.0
C275 C 0.94942 0.57114 0.29299 0.0
C276 C 0.96024 0.56072 0.26452 0.0
C277 C 0.98556 0.54047 0.17658 0.0
C278 C 0.97772 0.54601 0.2075 0.0
H279 H 0.93512 0.63495 0.32779 0.0
H280 H 0.95651 0.61684 0.283 0.0
H281 H 0.92238 0.53362 0.25558 0.0
H282 H 0.97937 0.48806 0.12419 0.0
H283 H 0.96968 0.49569 0.1757 0.0
C284 C 0.18082 0.09928 0.07108 0.0
C285 C 0.17458 0.09917 0.10105 0.0
C286 C 0.20711 0.08788 0.06066 0.0
C287 C 0.26659 0.03762 0.07862 0.0
H288 H 0.31401 0.08664 0.02853 0.0
C289 C 0.3883 0.01402 0.05832 0.0
C290 C 0.40048 0.02095 0.03115 0.0
C291 C 0.35956 0.0217 0.06488 0.0
C292 C 0.30088 0.07237 0.04203 0.0
H293 H 0.19143 0.08692 0.14348 0.0
H294 H 0.23673 0.06628 0.12511 0.0
H295 H 0.26557 0.10295 0.04316 0.0
H296 H 0.39167 0.04062 0.98919 0.0
H297 H 0.34122 0.05325 0.0003 0.0
H298 H 0.3016 0.00688 0.07741 0.0
C299 C 0.22115 0.07511 0.10975 0.0
C300 C 0.27314 0.0818 0.05047 0.0
C301 C 0.19509 0.08684 0.12022 0.0
C302 C 0.38302 0.03517 0.01043 0.0
C303 C 0.35413 0.04256 0.01687 0.0
C304 C 0.29416 0.02799 0.0699 0.0
C305 C 0.22754 0.07577 0.07992 0.0
C306 C 0.25594 0.06472 0.0692 0.0
C307 C 0.34211 0.03621 0.04431 0.0
C308 C 0.31188 0.04546 0.05187 0.0
H309 H 0.16537 0.10816 0.05563 0.0
H310 H 0.21143 0.08842 0.03751 0.0
H311 H 0.25358 0.02387 0.0928 0.0
H312 H 0.4012 0.00325 0.07487 0.0
H313 H 0.35131 0.01691 0.08642 0.0
C314 C 0.33436 0.94348 0.5954 0.0
C315 C 0.33868 0.9134 0.59968 0.0
C316 C 0.30701 0.95396 0.58675 0.0
C317 C 0.22946 0.93526 0.59017 0.0
H318 H 0.21972 0.9883 0.52525 0.0
C319 C 0.11628 0.95745 0.54242 0.0
C320 C 0.10953 0.98595 0.53341 0.0
C321 C 0.1448 0.95006 0.55002 0.0
C322 C 0.22209 0.97384 0.54371 0.0
H323 H 0.31785 0.87075 0.5985 0.0
H324 H 0.27019 0.88903 0.58357 0.0
H325 H 0.26883 0.97315 0.53977 0.0
H326 H 0.12759 0.02901 0.52496 0.0
H327 H 0.17745 0.01626 0.53892 0.0
H328 H 0.18306 0.93608 0.5946 0.0
C329 C 0.28791 0.90448 0.58678 0.0
C330 C 0.25019 0.96514 0.55194 0.0
C331 C 0.31524 0.89401 0.59506 0.0
C332 C 0.1321 0.00683 0.53174 0.0
C333 C 0.1607 -0.00052 0.53964 0.0
C334 C 0.20149 0.94415 0.58218 0.0
C335 C 0.28346 0.93455 0.58272 0.0
C336 C 0.25405 0.94539 0.57495 0.0
C337 C 0.16731 0.97105 0.54915 0.0
C338 C 0.19737 0.96314 0.55852 0.0
H339 H 0.35212 0.95885 0.59877 0.0
H340 H 0.30408 0.97725 0.58387 0.0
H341 H 0.23187 0.92044 0.60835 0.0
H342 H 0.09951 0.94072 0.54362 0.0
H343 H 0.14918 0.92777 0.55651 0.0
C344 C 0.6786 0.44939 0.9295 0.0
C345 C 0.6754 0.41921 0.92487 0.0
C346 C 0.7049 0.46081 0.94024 0.0
C347 C 0.77432 0.43846 0.97635 0.0
H348 H 0.8034 0.51154 0.94496 0.0
C349 C 0.88564 0.48551 0.01229 0.0
C350 C 0.90307 0.49815 0.99051 0.0
C351 C 0.85634 0.47867 0.00685 0.0
C352 C 0.79572 0.49099 0.95381 0.0
H353 H 0.69725 0.37737 0.92718 0.0
H354 H 0.74323 0.39718 0.94505 0.0
H355 H 0.75555 0.49356 0.93023 0.0
H356 H 0.90334 0.51377 0.94601 0.0
H357 H 0.85276 0.5009 0.93617 0.0
H358 H 0.81512 0.43494 0.99855 0.0
C359 C 0.72528 0.41207 0.94143 0.0
C360 C 0.76802 0.48088 0.94569 0.0
C361 C 0.69895 0.40068 0.93105 0.0
C362 C 0.89047 0.5042 0.96333 0.0
C363 C 0.86132 0.49699 0.95776 0.0
C364 C 0.80213 0.44837 0.98417 0.0
C365 C 0.72864 0.44228 0.9462 0.0
C366 C 0.75713 0.45426 0.95653 0.0
C367 C 0.8439 0.48391 0.97936 0.0
C368 C 0.81339 0.47458 0.97272 0.0
H369 H 0.66067 0.46411 0.92503 0.0
H370 H 0.70654 0.48413 0.944 0.0
H371 H 0.76646 0.41816 0.98561 0.0
H372 H 0.89464 0.48085 0.03357 0.0
H373 H 0.84349 0.46916 0.02421 0.0
C374 C 0.82155 0.57864 0.39552 0.0
C375 C 0.84139 0.59001 0.41603 0.0
C376 C 0.79418 0.56829 0.40418 0.0
C377 C 0.75102 0.54553 0.46894 0.0
H378 H 0.68542 0.56211 0.41824 0.0
C379 C 0.62957 0.53312 0.50317 0.0
C380 C 0.61104 0.51906 0.48309 0.0
C381 C 0.65829 0.54032 0.49557 0.0
C382 C 0.70358 0.55711 0.43249 0.0
H383 H 0.84809 0.59866 0.46196 0.0
H384 H 0.79987 0.58176 0.47691 0.0
H385 H 0.73434 0.57746 0.40405 0.0
H386 H 0.60825 0.50136 0.43934 0.0
H387 H 0.65822 0.5143 0.42605 0.0
H388 H 0.71978 0.52589 0.49773 0.0
C389 C 0.8057 0.5803 0.45415 0.0
C390 C 0.73167 0.56578 0.42433 0.0
C391 C 0.83325 0.59037 0.44552 0.0
C392 C 0.62192 0.51218 0.45534 0.0
C393 C 0.65049 0.5197 0.44765 0.0
C394 C 0.72281 0.53715 0.47725 0.0
C395 C 0.78569 0.5694 0.43353 0.0
C396 C 0.7558 0.56 0.44238 0.0
C397 C 0.66891 0.53394 0.46763 0.0
C398 C 0.69885 0.54277 0.45903 0.0
H399 H 0.82677 0.57839 0.37257 0.0
H400 H 0.77959 0.55957 0.38773 0.0
H401 H 0.7691 0.54035 0.4832 0.0
H402 H 0.6219 0.53863 0.52476 0.0
H403 H 0.672 0.55147 0.51132 0.0
C404 C 0.10247 0.18599 0.0692 0.0
C405 C 0.10109 0.18065 0.09932 0.0
C406 C 0.09263 0.21247 0.05771 0.0
C407 C 0.0425 0.27236 0.0711 0.0
H408 H 0.09558 0.32026 0.02577 0.0
C409 C 0.01961 0.39384 0.04934 0.0
C410 C 0.02997 0.40667 0.0236 0.0
C411 C 0.02657 0.36497 0.05612 0.0
C412 C 0.08017 0.30698 0.03783 0.0
H413 H 0.08873 0.19957 0.14091 0.0
H414 H 0.07048 0.24503 0.1206 0.0
H415 H 0.1108 0.27186 0.04165 0.0
H416 H 0.0547 0.39894 0.98417 0.0
H417 H 0.06584 0.34817 0.99536 0.0
H418 H 0.0116 0.30695 0.067 0.0
C419 C 0.07916 0.22861 0.106 0.0
C420 C 0.08902 0.27931 0.04703 0.0
C421 C 0.08948 0.20244 0.11756 0.0
C422 C 0.04663 0.38973 0.00432 0.0
C423 C 0.05318 0.36066 0.01086 0.0
C424 C 0.03342 0.29979 0.06147 0.0
C425 C 0.08073 0.23388 0.07603 0.0
C426 C 0.07046 0.26203 0.06417 0.0
C427 C 0.04363 0.34801 0.03708 0.0
C428 C 0.05234 0.31775 0.04519 0.0
H429 H 0.11086 0.16962 0.05441 0.0
H430 H 0.09393 0.21607 0.03448 0.0
H431 H 0.02769 0.25922 0.08405 0.0
H432 H 0.00692 0.4064 0.06477 0.0
H433 H 0.01925 0.3563 0.07677 0.0
C434 C 0.62044 0.31841 0.93411 0.0
C435 C 0.6005 0.33937 0.924 0.0
C436 C 0.6108 0.29097 0.94323 0.0
C437 C 0.54468 0.24885 0.96498 0.0
H438 H 0.59388 0.18285 0.94551 0.0
C439 C 0.51005 0.12674 0.97688 0.0
C440 C 0.53074 0.10858 0.99036 0.0
C441 C 0.51724 0.15559 0.96965 0.0
C442 C 0.58002 0.2011 0.95125 0.0
H443 H 0.55453 0.34797 0.91639 0.0
H444 H 0.53782 0.29957 0.93115 0.0
H445 H 0.60869 0.2318 0.93102 0.0
H446 H 0.57506 0.10663 0.00712 0.0
H447 H 0.58759 0.15672 0.99415 0.0
H448 H 0.51569 0.21761 0.98461 0.0
C449 C 0.56092 0.3046 0.93251 0.0
C450 C 0.58854 0.22921 0.94309 0.0
C451 C 0.57056 0.33226 0.92368 0.0
C452 C 0.55859 0.11999 0.99675 0.0
C453 C 0.56585 0.14862 0.98921 0.0
C454 C 0.53598 0.22059 0.97285 0.0
C455 C 0.58099 0.28349 0.94208 0.0
C456 C 0.5712 0.25352 0.95015 0.0
C457 C 0.54535 0.16663 0.9754 0.0
C458 C 0.55376 0.19652 0.96632 0.0
H459 H 0.6437 0.32283 0.9343 0.0
H460 H 0.62686 0.27553 0.95102 0.0
H461 H 0.53092 0.26705 0.97104 0.0
H462 H 0.48837 0.11865 0.97176 0.0
H463 H 0.50108 0.16902 0.95891 0.0
C464 C 0.92046 0.69386 0.3997 0.0
C465 C 0.91493 0.67117 0.4195 0.0
C466 C 0.92791 0.72172 0.40961 0.0
C467 C 0.96032 0.76197 0.46969 0.0
H468 H 0.91819 0.82775 0.43744 0.0
C469 C 0.98059 0.88131 0.50771 0.0
C470 C 0.9792 0.90323 0.48638 0.0
C471 C 0.9725 0.85255 0.50106 0.0
C472 C 0.93048 0.8097 0.44639 0.0
H473 H 0.91317 0.65961 0.46511 0.0
H474 H 0.92679 0.70861 0.48257 0.0
H475 H 0.90474 0.77824 0.42314 0.0
H476 H 0.96917 0.91197 0.44113 0.0
H477 H 0.95604 0.86186 0.42932 0.0
H478 H 0.98673 0.79341 0.49223 0.0
C479 C 0.9252 0.70467 0.45939 0.0
C480 C 0.92262 0.78135 0.43831 0.0
C481 C 0.91731 0.67679 0.44945 0.0
C482 C 0.97018 0.89567 0.45815 0.0
C483 C 0.96244 0.86692 0.45144 0.0
C484 C 0.96847 0.79043 0.47753 0.0
C485 C 0.93027 0.72742 0.43951 0.0
C486 C 0.93764 0.75725 0.44963 0.0
C487 C 0.96312 0.84504 0.47287 0.0
C488 C 0.95384 0.81466 0.4657 0.0
H489 H 0.91848 0.69019 0.3765 0.0
H490 H 0.93192 0.73883 0.39384 0.0
H491 H 0.97235 0.7437 0.47857 0.0
H492 H 0.98733 0.88648 0.52971 0.0
H493 H 0.97301 0.83635 0.51819 0.0
C494 C 0.39431 0.81373 0.58894 0.0
C495 C 0.41461 0.83527 0.59743 0.0
C496 C 0.40363 0.78622 0.57985 0.0
C497 C 0.46864 0.7447 0.55499 0.0
H498 H 0.42134 0.67836 0.57871 0.0
C499 C 0.50348 0.62302 0.54253 0.0
C500 C 0.4821 0.60424 0.53075 0.0
C501 C 0.49651 0.65184 0.5499 0.0
C502 C 0.43465 0.6967 0.57178 0.0
H503 H 0.46086 0.8448 0.60225 0.0
H504 H 0.47711 0.7963 0.58752 0.0
H505 H 0.40707 0.72739 0.59322 0.0
H506 H 0.43672 0.60117 0.51719 0.0
H507 H 0.4246 0.65123 0.53039 0.0
H508 H 0.49656 0.71351 0.53409 0.0
C509 C 0.45393 0.80093 0.5874 0.0
C510 C 0.42643 0.72484 0.57996 0.0
C511 C 0.44458 0.82864 0.5962 0.0
C512 C 0.45373 0.615 0.52623 0.0
C513 C 0.44671 0.64363 0.53391 0.0
C514 C 0.47705 0.71641 0.54708 0.0
C515 C 0.43352 0.77926 0.57943 0.0
C516 C 0.44308 0.74927 0.57137 0.0
C517 C 0.46796 0.66226 0.54599 0.0
C518 C 0.45992 0.69221 0.55514 0.0
H519 H 0.37104 0.81777 0.58999 0.0
H520 H 0.38729 0.77033 0.57333 0.0
H521 H 0.48183 0.76299 0.54776 0.0
H522 H 0.52556 0.61543 0.54619 0.0
H523 H 0.51325 0.66577 0.5593 0.0
C524 C 0.94556 0.91678 0.83834 0.0
C525 C 0.9348 0.93718 0.85852 0.0
C526 C 0.95241 0.92523 0.81007 0.0
C527 C 0.96651 0.98908 0.76263 0.0
H528 H 0.94389 0.93425 0.70215 0.0
C529 C 0.9692 0.01519 0.63885 0.0
C530 C 0.98154 0.99344 0.62107 0.0
C531 C 0.96401 0.00983 0.66833 0.0
C532 C 0.95052 0.94969 0.71881 0.0
H533 H 0.92378 0.98281 0.8649 0.0
H534 H 0.9349 0.99742 0.81504 0.0
H535 H 0.93414 0.92245 0.75273 0.0
H536 H 0.99836 0.94914 0.62046 0.0
H537 H 0.98908 0.93984 0.6717 0.0
H538 H 0.98249 0.01647 0.72826 0.0
C539 C 0.9384 0.97491 0.82134 0.0
C540 C 0.94504 0.94291 0.74782 0.0
C541 C 0.93175 0.96648 0.84983 0.0
C542 C 0.98877 0.96636 0.63347 0.0
C543 C 0.98334 0.96095 0.6628 0.0
C544 C 0.9718 0.99597 0.73347 0.0
C545 C 0.9483 0.95422 0.801 0.0
C546 C 0.95333 0.9623 0.77013 0.0
C547 C 0.97076 0.98255 0.68048 0.0
C548 C 0.96417 0.97614 0.71134 0.0
H549 H 0.94777 0.89393 0.84398 0.0
H550 H 0.96055 0.90884 0.79515 0.0
H551 H 0.97333 0.00441 0.7793 0.0
H552 H 0.96348 0.03632 0.63 0.0
H553 H 0.95414 0.02679 0.68148 0.0
C554 C 0.57812 0.09305 0.33466 0.0
C555 C 0.57899 0.0728 0.35751 0.0
C556 C 0.5696 0.08438 0.30689 0.0
C557 C 0.56124 0.01928 0.25971 0.0
H558 H 0.52024 0.07482 0.211 0.0
C559 C 0.51834 0.99581 0.14236 0.0
C560 C 0.52848 0.016 0.12162 0.0
C561 C 0.52284 0.00086 0.17202 0.0
C562 C 0.53167 0.05913 0.22441 0.0
H563 H 0.57172 0.0276 0.36938 0.0
H564 H 0.55584 0.01239 0.32071 0.0
H565 H 0.52952 0.08665 0.26183 0.0
H566 H 0.55111 0.05731 0.11564 0.0
H567 H 0.55823 0.06644 0.16752 0.0
H568 H 0.56274 0.99162 0.22198 0.0
C569 C 0.56224 0.03493 0.3242 0.0
C570 C 0.53716 0.06591 0.25347 0.0
C571 C 0.57118 0.0436 0.35206 0.0
C572 C 0.54313 0.04133 0.1311 0.0
C573 C 0.54708 0.04663 0.16073 0.0
C574 C 0.55526 0.0123 0.23068 0.0
C575 C 0.56136 0.05527 0.30126 0.0
C576 C 0.55271 0.04643 0.27131 0.0
C577 C 0.53697 0.02646 0.1814 0.0
C578 C 0.54104 0.03249 0.21268 0.0
H579 H 0.58469 0.11557 0.33812 0.0
H580 H 0.57008 0.1005 0.28969 0.0
H581 H 0.57347 0.00386 0.27268 0.0
H582 H 0.5071 0.97602 0.13566 0.0
H583 H 0.51483 0.98505 0.18765 0.0
C584 C 0.43413 0.54571 0.16973 0.0
C585 C 0.42798 0.57543 0.16542 0.0
C586 C 0.43964 0.53516 0.19776 0.0
C587 C 0.4228 0.54851 0.27343 0.0
H588 H 0.49689 0.51257 0.29264 0.0
C589 C 0.45949 0.53577 0.39194 0.0
C590 C 0.47662 0.51167 0.39983 0.0
C591 C 0.45275 0.54098 0.36283 0.0
C592 C 0.47582 0.522 0.28763 0.0
H593 H 0.42209 0.61729 0.18665 0.0
H594 H 0.43098 0.59871 0.23565 0.0
H595 H 0.48615 0.52543 0.24222 0.0
H596 H 0.49968 0.47378 0.38341 0.0
H597 H 0.48701 0.48224 0.33262 0.0
H598 H 0.41196 0.54478 0.31839 0.0
C599 C 0.43194 0.58371 0.21742 0.0
C600 C 0.4698 0.52944 0.25876 0.0
C601 C 0.42706 0.59434 0.18946 0.0
C602 C 0.48661 0.49268 0.37797 0.0
C603 C 0.47945 0.49764 0.34883 0.0
C604 C 0.42855 0.54062 0.30215 0.0
C605 C 0.4383 0.55408 0.22181 0.0
C606 C 0.4435 0.5433 0.25159 0.0
C607 C 0.46251 0.52194 0.34085 0.0
C608 C 0.45543 0.52789 0.30979 0.0
H609 H 0.43488 0.53079 0.15144 0.0
H610 H 0.44447 0.5122 0.20074 0.0
H611 H 0.40221 0.55891 0.26828 0.0
H612 H 0.4517 0.55097 0.40824 0.0
H613 H 0.44027 0.56032 0.35758 0.0
C614 C 0.07849 0.46778 0.66784 0.0
C615 C 0.07372 0.43803 0.66154 0.0
C616 C 0.07006 0.47947 0.69463 0.0
C617 C 0.07201 0.48837 0.76049 0.0
H618 H 0.99866 0.46906 0.79822 0.0
C619 C 0.05579 0.49209 0.88456 0.0
C620 C 0.02976 0.50429 0.89519 0.0
C621 C 0.05972 0.48778 0.85476 0.0
C622 C 0.0191 0.47489 0.78784 0.0
H623 H 0.0555 0.39752 0.67834 0.0
H624 H 0.04023 0.41813 0.72461 0.0
H625 H 0.00644 0.45509 0.74746 0.0
H626 H 0.9875 0.52171 0.8828 0.0
H627 H 0.99431 0.51377 0.83071 0.0
H628 H 0.085 0.50744 0.80108 0.0
C629 C 0.0504 0.43239 0.70876 0.0
C630 C 0.02361 0.46675 0.75891 0.0
C631 C 0.05909 0.42062 0.68215 0.0
C632 C 0.00783 0.51229 0.87532 0.0
C633 C 0.01164 0.50765 0.84553 0.0
C634 C 0.06763 0.49622 0.7895 0.0
C635 C 0.05637 0.46175 0.71552 0.0
C636 C 0.05027 0.47305 0.74509 0.0
C637 C 0.03759 0.49528 0.83498 0.0
C638 C 0.0413 0.48918 0.80358 0.0
H639 H 0.08924 0.48193 0.65228 0.0
H640 H 0.07462 0.50228 0.6992 0.0
H641 H 0.09287 0.49327 0.75045 0.0
H642 H 0.07315 0.48576 0.89925 0.0
H643 H 0.07982 0.47791 0.84724 0.0
C644 C 0.83409 0.9338 0.91427 0.0
C645 C 0.85713 0.93356 0.9344 0.0
C646 C 0.8059 0.94111 0.923 0.0
C647 C 0.75863 0.94767 0.98818 0.0
H648 H 0.70834 0.988 0.93359 0.0
C649 C 0.64117 0.98952 0.01392 0.0
C650 C 0.61981 0.97992 0.99401 0.0
C651 C 0.67084 0.98497 0.0083 0.0
C652 C 0.72218 0.97671 0.94901 0.0
H653 H 0.86894 0.94067 0.97943 0.0
H654 H 0.81962 0.95449 0.99474 0.0
H655 H 0.75927 0.97941 0.92107 0.0
H656 H 0.61281 0.95815 0.95263 0.0
H657 H 0.66465 0.95089 0.94257 0.0
H658 H 0.72125 0.9457 0.0163 0.0
C659 C 0.82322 0.94846 0.97226 0.0
C660 C 0.75131 0.9716 0.94182 0.0
C661 C 0.85146 0.94072 0.96353 0.0
C662 C 0.62872 0.96571 0.96842 0.0
C663 C 0.65835 0.96169 0.96258 0.0
C664 C 0.72952 0.95325 0.99556 0.0
C665 C 0.80006 0.94875 0.95205 0.0
C666 C 0.76978 0.95642 0.96101 0.0
C667 C 0.67964 0.97131 0.98243 0.0
C668 C 0.71095 0.9673 0.97577 0.0
H669 H 0.83777 0.92775 0.89179 0.0
H670 H 0.78859 0.94023 0.90696 0.0
H671 H 0.77205 0.93567 0.00339 0.0
H672 H 0.63495 0.00044 0.03388 0.0
H673 H 0.68693 0.99262 0.02387 0.0
C674 C 0.65966 0.06956 0.4669 0.0
C675 C 0.6532 0.06842 0.43699 0.0
C676 C 0.68721 0.0613 0.47715 0.0
C677 C 0.75364 0.02038 0.45771 0.0
H678 H 0.7944 0.07797 0.50478 0.0
C679 C 0.8786 0.0213 0.46754 0.0
C680 C 0.89141 0.02899 0.49427 0.0
C681 C 0.84852 0.02394 0.46337 0.0
C682 C 0.78323 0.06137 0.49211 0.0
H683 H 0.67078 0.05715 0.39456 0.0
H684 H 0.71816 0.042 0.41254 0.0
H685 H 0.74283 0.08481 0.49337 0.0
H686 H 0.88256 0.04541 0.53766 0.0
H687 H 0.82995 0.04958 0.5305 0.0
H688 H 0.79394 0.997 0.45618 0.0
C689 C 0.70188 0.04913 0.42806 0.0
C690 C 0.75367 0.06531 0.48559 0.0
C691 C 0.67457 0.05771 0.41779 0.0
C692 C 0.87342 0.03946 0.51673 0.0
C693 C 0.84325 0.04193 0.51261 0.0
C694 C 0.78309 0.0163 0.46442 0.0
C695 C 0.70868 0.05136 0.45774 0.0
C696 C 0.73878 0.04519 0.46779 0.0
C697 C 0.83043 0.03413 0.48589 0.0
C698 C 0.79844 0.0371 0.48111 0.0
H699 H 0.64362 0.07731 0.48236 0.0
H700 H 0.69184 0.06298 0.50019 0.0
H701 H 0.74256 0.00433 0.44425 0.0
H702 H 0.8918 0.01332 0.4497 0.0
H703 H 0.83951 0.01834 0.4423 0.0
C704 C 0.35431 0.55175 0.07473 0.0
C705 C 0.36146 0.58116 0.08001 0.0
C706 C 0.3269 0.54418 0.0634 0.0
C707 C 0.26072 0.57642 0.02834 0.0
H708 H 0.22148 0.50894 0.06136 0.0
C709 C 0.13569 0.56121 0.02896 0.0
C710 C 0.12479 0.5339 0.01996 0.0
C711 C 0.16568 0.56547 0.03287 0.0
C712 C 0.23233 0.52764 0.05173 0.0
H713 H 0.34551 0.62565 0.07793 0.0
H714 H 0.29778 0.61258 0.05894 0.0
H715 H 0.27236 0.51889 0.07398 0.0
H716 H 0.13675 0.48959 0.00816 0.0
H717 H 0.18919 0.49696 0.01573 0.0
H718 H 0.22008 0.58583 0.00726 0.0
C719 C 0.31346 0.5953 0.0625 0.0
C720 C 0.26153 0.53331 0.05881 0.0
C721 C 0.34086 0.60283 0.07349 0.0
C722 C 0.1445 0.51091 0.01502 0.0
C723 C 0.17446 0.51506 0.01944 0.0
C724 C 0.23144 0.57099 0.02164 0.0
C725 C 0.30598 0.56587 0.05748 0.0
C726 C 0.27596 0.55807 0.0476 0.0
C727 C 0.18529 0.54239 0.02833 0.0
C728 C 0.21688 0.54681 0.03361 0.0
H729 H 0.36987 0.53464 0.0795 0.0
H730 H 0.32205 0.52133 0.05944 0.0
H731 H 0.27129 0.59528 0.01873 0.0
H732 H 0.12108 0.57937 0.03284 0.0
H733 H 0.17351 0.58669 0.03999 0.0
C734 C 0.16391 0.43146 0.56381 0.0
C735 C 0.1572 0.4251 0.59287 0.0
C736 C 0.19263 0.43809 0.5557 0.0
C737 C 0.26497 0.45925 0.58717 0.0
H738 H 0.29389 0.43404 0.512 0.0
C739 C 0.38735 0.45685 0.55688 0.0
C740 C 0.39481 0.47171 0.53121 0.0
C741 C 0.35808 0.45163 0.56382 0.0
C742 C 0.28598 0.44132 0.53298 0.0
H743 H 0.17502 0.41983 0.63613 0.0
H744 H 0.22524 0.43016 0.62199 0.0
H745 H 0.24327 0.42381 0.52539 0.0
H746 H 0.37752 0.49216 0.49234 0.0
H747 H 0.32628 0.48227 0.50421 0.0
H748 H 0.30818 0.4757 0.59501 0.0
C749 C 0.20839 0.43122 0.6055 0.0
C750 C 0.25694 0.43565 0.54064 0.0
C751 C 0.17964 0.42512 0.61365 0.0
C752 C 0.37243 0.48076 0.51234 0.0
C753 C 0.34317 0.47502 0.51902 0.0
C754 C 0.29409 0.46441 0.57969 0.0
C755 C 0.2153 0.43794 0.57644 0.0
C756 C 0.24605 0.44449 0.56789 0.0
C757 C 0.33578 0.46067 0.54495 0.0
C758 C 0.30483 0.45545 0.55258 0.0
H759 H 0.14686 0.43168 0.54746 0.0
H760 H 0.19693 0.44362 0.53323 0.0
H761 H 0.25729 0.46705 0.60803 0.0
H762 H 0.4041 0.4497 0.57189 0.0
H763 H 0.35286 0.44037 0.58386 0.0
C764 C 0.9471 0.84143 0.91714 0.0
C765 C 0.94 0.86331 0.93735 0.0
C766 C 0.95737 0.81441 0.92639 0.0
C767 C 0.95834 0.76517 0.98976 0.0
H768 H 0.01329 0.72299 0.94127 0.0
C769 C 0.00209 0.64823 0.01453 0.0
C770 C 0.99783 0.62846 0.99144 0.0
C771 C 0.99751 0.67815 0.01049 0.0
C772 C 0.99799 0.73458 0.95503 0.0
H773 H 0.93813 0.87409 0.98317 0.0
H774 H 0.95678 0.82671 -0.00045 0.0
H775 H 0.00223 0.77385 0.93039 0.0
H776 H 0.98578 0.62455 0.94597 0.0
H777 H 0.97848 0.67687 0.9388 0.0
H778 H 0.95445 0.72558 0.01445 0.0
C779 C 0.95405 0.83046 0.97647 0.0
C780 C 0.99152 0.76364 0.94877 0.0
C781 C 0.94349 0.85759 0.96715 0.0
C782 C 0.98916 0.63921 0.96419 0.0
C783 C 0.98514 0.66913 0.96003 0.0
C784 C 0.9652 0.73614 0.99628 0.0
C785 C 0.96103 0.80851 0.95614 0.0
C786 C 0.97092 0.77905 0.96548 0.0
C787 C 0.98921 0.68884 0.98314 0.0
C788 C 0.98447 0.72041 0.97847 0.0
H789 H 0.94391 0.84487 0.89406 0.0
H790 H 0.96164 0.79785 0.91011 0.0
H791 H 0.94223 0.77625 0.00296 0.0
H792 H 0.00865 0.64055 0.03581 0.0
H793 H 0.0008 0.69299 0.02859 0.0
C794 C 0.45029 0.6584 0.06211 0.0
C795 C 0.44246 0.65328 0.09119 0.0
C796 C 0.46097 0.68575 0.05358 0.0
C797 C 0.48975 0.75626 0.08305 0.0
H798 H 0.45985 0.78786 0.01077 0.0
C799 C 0.48531 0.87933 0.05864 0.0
C800 C 0.49519 0.88865 0.03124 0.0
C801 C 0.48228 0.84961 0.0647 0.0
C802 C 0.46866 0.77917 0.03082 0.0
H803 H 0.43965 0.67267 0.13411 0.0
H804 H 0.45765 0.72037 0.11928 0.0
H805 H 0.44901 0.73729 0.02371 0.0
H806 H 0.50941 0.87408 0.98863 0.0
H807 H 0.50349 0.82198 -0.00083 0.0
H808 H 0.50828 0.79867 0.09064 0.0
C809 C 0.45642 0.70318 0.10311 0.0
C810 C 0.46258 0.75016 0.03822 0.0
C811 C 0.44602 0.67582 0.11165 0.0
C812 C 0.5018 0.86758 0.00996 0.0
C813 C 0.49834 0.83781 0.01592 0.0
C814 C 0.49551 0.78533 0.07581 0.0
C815 C 0.46374 0.70862 0.07392 0.0
C816 C 0.47264 0.73849 0.06467 0.0
C817 C 0.48869 0.82858 0.0434 0.0
C818 C 0.48464 0.79716 0.04985 0.0
H819 H 0.44793 0.6413 0.04595 0.0
H820 H 0.46683 0.68902 0.03101 0.0
H821 H 0.49841 0.74784 0.10327 0.0
H822 H 0.48013 0.895 0.07553 0.0
H823 H 0.47448 0.84306 0.08596 0.0
C824 C 0.05493 0.34011 0.6045 0.0
C825 C 0.07012 0.35917 0.58578 0.0
C826 C 0.04482 0.31306 0.59457 0.0
C827 C 0.06444 0.25638 0.54418 0.0
H828 H 0.98762 0.2242 0.56025 0.0
C829 C 0.03511 0.13828 0.51177 0.0
C830 C 0.01734 0.12218 0.53086 0.0
C831 C 0.03903 0.16831 0.51569 0.0
C832 C 0.0093 0.2327 0.5559 0.0
H833 H 0.08504 0.36511 0.54135 0.0
H834 H 0.06835 0.3172 0.52442 0.0
H835 H 0.9981 0.27529 0.57185 0.0
H836 H 0.98978 0.12485 0.56905 0.0
H837 H 0.99764 0.17696 0.57676 0.0
H838 H 0.07641 0.21376 0.52976 0.0
C839 C 0.0643 0.32349 0.54678 0.0
C840 C 0.01515 0.26202 0.56232 0.0
C841 C 0.07398 0.35082 0.55656 0.0
C842 C 0.0035 0.13673 0.55391 0.0
C843 C 0.00784 0.16669 0.55816 0.0
C844 C 0.05878 0.22698 0.53821 0.0
C845 C 0.05007 0.30421 0.56585 0.0
C846 C 0.04284 0.27403 0.5567 0.0
C847 C 0.02573 0.1829 0.53913 0.0
C848 C 0.0312 0.21463 0.5442 0.0
H849 H 0.052 0.34536 0.62726 0.0
H850 H 0.0342 0.29842 0.60979 0.0
H851 H 0.08612 0.26504 0.54007 0.0
H852 H 0.04576 0.12774 0.49356 0.0
H853 H 0.05243 0.18006 0.5002 0.0
C854 C 0.57802 0.17268 0.41259 0.0
C855 C 0.58117 0.15021 0.43307 0.0
C856 C 0.56909 0.20042 0.42122 0.0
C857 C 0.56377 0.24923 0.48495 0.0
H858 H 0.51324 0.29294 0.43325 0.0
C859 C 0.51811 0.3646 0.51149 0.0
C860 C 0.52204 0.38534 0.48927 0.0
C861 C 0.52367 0.33502 0.50631 0.0
C862 C 0.5274 0.28099 0.44785 0.0
H863 H 0.57781 0.13911 0.47869 0.0
H864 H 0.56158 0.18777 0.49391 0.0
H865 H 0.52537 0.24248 0.42164 0.0
H866 H 0.53463 0.39126 0.44418 0.0
H867 H 0.54393 0.33963 0.43512 0.0
H868 H 0.56551 0.28798 0.51121 0.0
C869 C 0.56635 0.18395 0.47117 0.0
C870 C 0.53446 0.25214 0.44119 0.0
C871 C 0.57554 0.15612 0.4625 0.0
C872 C 0.53143 0.37586 0.46176 0.0
C873 C 0.53659 0.34629 0.45651 0.0
C874 C 0.55643 0.27808 0.49178 0.0
C875 C 0.56288 0.20638 0.45055 0.0
C876 C 0.55326 0.2361 0.45929 0.0
C877 C 0.53281 0.32562 0.47873 0.0
C878 C 0.53866 0.29437 0.47296 0.0
H879 H 0.58287 0.16892 0.38984 0.0
H880 H 0.56746 0.21733 0.40486 0.0
H881 H 0.57849 0.23761 0.49925 0.0
H882 H 0.51098 0.37123 0.53295 0.0
H883 H 0.52049 0.31946 0.52376 0.0
loop_
_geom_bond_atom_site_label_1
_geom_bond_atom_site_label_2
_geom_bond_distance
_geom_bond_site_symmetry_2
_ccdc_geom_bond_type
H0 C3 0.931 . S
H1 C6 0.928 . S
H2 C8 0.930 . S
C3 H0 0.931 . S
C3 C4 1.413 . S
C3 C5 1.360 . S
C4 C3 1.413 . S
C4 C8 1.429 . S
C5 C3 1.360 . S
C5 C6 1.372 . S
C6 H1 0.928 . S
C6 C5 1.372 . S
C6 C7 1.404 . S
C7 C6 1.404 . S
C7 C8 1.391 . S
C8 H2 0.930 . S
C8 C4 1.429 . S
C8 C7 1.391 . S
H9 C12 0.931 . S
H10 C15 0.928 . S
H11 C17 0.930 . S
C12 H9 0.931 . S
C12 C13 1.413 . S
C12 C14 1.360 . S
C13 C12 1.413 . S
C13 C17 1.429 . S
C14 C12 1.360 . S
C14 C15 1.372 . S
C15 H10 0.928 . S
C15 C14 1.372 . S
C15 C16 1.404 . S
C16 C15 1.404 . S
C16 C17 1.391 . S
C17 H11 0.930 . S
C17 C13 1.429 . S
C17 C16 1.391 . S
H18 C21 0.931 . S
H19 C24 0.928 . S
H20 C26 0.930 . S
C21 H18 0.931 . S
C21 C22 1.413 . S
C21 C23 1.360 . S
C22 C21 1.413 . S
C22 C26 1.429 . S
C23 C21 1.360 . S
C23 C24 1.372 . S
C24 H19 0.928 . S
C24 C23 1.372 . S
C24 C25 1.404 . S
C25 C24 1.404 . S
C25 C26 1.391 . S
C26 H20 0.930 . S
C26 C22 1.429 . S
C26 C25 1.391 . S
H27 C30 0.931 . S
H28 C33 0.928 . S
H29 C35 0.930 . S
C30 H27 0.931 . S
C30 C31 1.413 . S
C30 C32 1.360 . S
C31 C30 1.413 . S
C31 C35 1.429 . S
C32 C30 1.360 . S
C32 C33 1.372 . S
C33 H28 0.928 . S
C33 C32 1.372 . S
C33 C34 1.404 . S
C34 C33 1.404 . S
C34 C35 1.391 . S
C35 H29 0.930 . S
C35 C31 1.429 . S
C35 C34 1.391 . S
H36 C39 0.931 . S
H37 C42 0.928 . S
H38 C44 0.930 . S
C39 H36 0.931 . S
C39 C40 1.413 . S
C39 C41 1.360 . S
C40 C39 1.413 . S
C40 C44 1.429 . S
C41 C39 1.360 . S
C41 C42 1.372 . S
C42 H37 0.928 . S
C42 C41 1.372 . S
C42 C43 1.404 . S
C43 C42 1.404 . S
C43 C44 1.391 . S
C44 H38 0.930 . S
C44 C40 1.429 . S
C44 C43 1.391 . S
H45 C48 0.931 . S
H46 C51 0.928 . S
H47 C53 0.930 . S
C48 H45 0.931 . S
C48 C49 1.413 . S
C48 C50 1.360 . S
C49 C48 1.413 . S
C49 C53 1.429 . S
C50 C48 1.360 . S
C50 C51 1.372 . S
C51 H46 0.928 . S
C51 C50 1.372 . S
C51 C52 1.404 . S
C52 C51 1.404 . S
C52 C53 1.391 . S
C53 H47 0.930 . S
C53 C49 1.429 . S
C53 C52 1.391 . S
H54 C57 0.931 . S
H55 C60 0.928 . S
H56 C62 0.930 . S
C57 H54 0.931 . S
C57 C58 1.413 . S
C57 C59 1.360 . S
C58 C57 1.413 . S
C58 C62 1.429 . S
C59 C57 1.360 . S
C59 C60 1.372 . S
C60 H55 0.928 . S
C60 C59 1.372 . S
C60 C61 1.404 . S
C61 C60 1.404 . S
C61 C62 1.391 . S
C62 H56 0.930 . S
C62 C58 1.429 . S
C62 C61 1.391 . S
H63 C66 0.931 . S
H64 C69 0.928 . S
H65 C71 0.930 . S
C66 H63 0.931 . S
C66 C67 1.413 . S
C66 C68 1.360 . S
C67 C66 1.413 . S
C67 C71 1.429 . S
C68 C66 1.360 . S
C68 C69 1.372 . S
C69 H64 0.928 . S
C69 C68 1.372 . S
C69 C70 1.404 . S
C70 C69 1.404 . S
C70 C71 1.391 . S
C71 H65 0.930 . S
C71 C67 1.429 . S
C71 C70 1.391 . S
O72 Zn73 1.953 . S
O72 C88 1.225 1_655 S
Zn73 O72 1.953 . S
Zn73 O74 1.949 1_655 S
Zn73 O80 1.919 . S
Zn73 O85 1.924 . S
O74 Zn73 1.949 1_455 S
O74 Zn75 1.923 1_445 S
O74 Zn76 1.950 . S
O74 Zn77 1.945 1_545 S
Zn75 O74 1.923 1_665 S
Zn75 O78 1.933 . S
Zn75 O81 1.941 1_565 S
Zn75 O82 1.965 1_665 S
Zn76 O74 1.950 . S
Zn76 O83 1.938 . S
Zn76 O84 1.888 1_545 S
Zn76 O94 1.953 . S
Zn77 O74 1.945 1_565 S
Zn77 O79 1.932 1_455 S
Zn77 O86 1.977 . S
Zn77 O87 1.910 1_455 S
O78 Zn75 1.933 . S
O78 C89 1.226 . S
O79 Zn77 1.932 1_655 S
O79 C89 1.307 . S
O80 Zn73 1.919 . S
O80 C91 1.253 . S
O81 Zn75 1.941 1_545 S
O81 C91 1.283 . S
O82 Zn75 1.965 1_445 S
O82 C90 1.303 . S
O83 Zn76 1.938 . S
O83 C90 1.247 . S
O84 Zn76 1.888 1_565 S
O84 C92 1.330 . S
O85 Zn73 1.924 . S
O85 C93 1.311 1_545 S
O86 Zn77 1.977 . S
O86 C92 1.272 . S
O87 Zn77 1.910 1_655 S
O87 C93 1.231 . S
C88 O72 1.225 1_455 S
C88 O94 1.298 . S
C89 O78 1.226 . S
C89 O79 1.307 . S
C90 O82 1.303 . S
C90 O83 1.247 . S
C91 O80 1.253 . S
C91 O81 1.283 . S
C92 O84 1.330 . S
C92 O86 1.272 . S
C93 O85 1.311 1_565 S
C93 O87 1.231 . S
O94 Zn76 1.953 . S
O94 C88 1.298 . S
O95 Zn96 1.953 . S
O95 C111 1.225 . S
Zn96 O95 1.953 . S
Zn96 O97 1.949 1_556 S
Zn96 O103 1.919 . S
Zn96 O108 1.924 1_556 S
O97 Zn96 1.949 1_554 S
O97 Zn98 1.923 1_545 S
O97 Zn99 1.950 . S
O97 Zn100 1.945 1_545 S
Zn98 O97 1.923 1_565 S
Zn98 O101 1.933 . S
Zn98 O104 1.941 1_554 S
Zn98 O105 1.965 1_554 S
Zn99 O97 1.950 . S
Zn99 O106 1.938 . S
Zn99 O107 1.906 . S
Zn99 O117 1.953 . S
Zn100 O97 1.945 1_565 S
Zn100 O102 1.932 . S
Zn100 O109 1.977 1_565 S
Zn100 O110 1.910 1_565 S
O101 Zn98 1.933 . S
O101 C112 1.226 . S
O102 Zn100 1.932 . S
O102 C112 1.307 . S
O103 Zn96 1.919 . S
O103 C114 1.253 1_545 S
O104 Zn98 1.941 1_556 S
O104 C114 1.283 . S
O105 Zn98 1.965 1_556 S
O105 C113 1.303 . S
O106 Zn99 1.938 . S
O106 C113 1.247 1_544 S
O107 Zn99 1.906 . S
O107 C115 1.304 . S
O108 Zn96 1.924 1_554 S
O108 C116 1.311 . S
O109 Zn100 1.977 1_545 S
O109 C115 1.272 . S
O110 Zn100 1.910 1_545 S
O110 C116 1.231 . S
C111 O95 1.225 . S
C111 O117 1.298 1_556 S
C112 O101 1.226 . S
C112 O102 1.307 . S
C113 O105 1.303 . S
C113 O106 1.247 1_566 S
C114 O103 1.253 1_565 S
C114 O104 1.283 . S
C115 O107 1.304 . S
C115 O109 1.272 . S
C116 O108 1.311 . S
C116 O110 1.231 . S
O117 Zn99 1.953 . S
O117 C111 1.298 1_554 S
O118 Zn119 1.953 . S
O118 C134 1.225 . S
Zn119 O118 1.953 . S
Zn119 O120 1.949 . S
Zn119 O126 1.919 . S
Zn119 O131 1.924 . S
O120 Zn119 1.949 . S
O120 Zn121 1.923 . S
O120 Zn122 1.950 . S
O120 Zn123 1.945 . S
Zn121 O120 1.923 . S
Zn121 O124 1.933 . S
Zn121 O127 1.941 . S
Zn121 O128 1.965 . S
Zn122 O120 1.950 . S
Zn122 O129 1.938 . S
Zn122 O130 1.906 . S
Zn122 O140 1.953 . S
Zn123 O120 1.945 . S
Zn123 O125 1.932 . S
Zn123 O132 1.977 . S
Zn123 O133 1.910 . S
O124 Zn121 1.933 . S
O124 C135 1.226 . S
O125 Zn123 1.932 . S
O125 C135 1.307 . S
O126 Zn119 1.919 . S
O126 C137 1.253 . S
O127 Zn121 1.941 . S
O127 C137 1.283 . S
O128 Zn121 1.965 . S
O128 C136 1.303 . S
O129 Zn122 1.938 . S
O129 C136 1.247 . S
O130 Zn122 1.906 . S
O130 C138 1.304 . S
O131 Zn119 1.924 . S
O131 C139 1.311 . S
O132 Zn123 1.977 . S
O132 C138 1.272 . S
O133 Zn123 1.910 . S
O133 C139 1.231 . S
C134 O118 1.225 . S
C134 O140 1.298 . S
C135 O124 1.226 . S
C135 O125 1.307 . S
C136 O128 1.303 . S
C136 O129 1.247 . S
C137 O126 1.253 . S
C137 O127 1.283 . S
C138 O130 1.304 . S
C138 O132 1.272 . S
C139 O131 1.311 . S
C139 O133 1.231 . S
O140 Zn122 1.953 . S
O140 C134 1.298 . S
O141 Zn142 1.953 . S
O141 C157 1.225 . S
Zn142 O141 1.953 . S
Zn142 O143 1.949 1_655 S
Zn142 O149 1.919 . S
Zn142 O154 1.924 . S
O143 Zn142 1.949 1_455 S
O143 Zn144 1.923 1_454 S
O143 Zn145 1.950 . S
O143 Zn146 1.945 1_554 S
Zn144 O143 1.923 1_656 S
Zn144 O147 1.933 1_655 S
Zn144 O150 1.941 . S
Zn144 O151 1.965 . S
Zn145 O143 1.950 . S
Zn145 O152 1.938 . S
Zn145 O153 1.906 . S
Zn145 O163 1.953 . S
Zn146 O143 1.945 1_556 S
Zn146 O148 1.932 . S
Zn146 O155 1.977 1_556 S
Zn146 O156 1.910 1_556 S
O147 Zn144 1.933 1_455 S
O147 C158 1.226 . S
O148 Zn146 1.932 . S
O148 C158 1.307 . S
O149 Zn142 1.919 . S
O149 C160 1.253 1_554 S
O150 Zn144 1.941 . S
O150 C160 1.283 . S
O151 Zn144 1.965 . S
O151 C159 1.303 . S
O152 Zn145 1.938 . S
O152 C159 1.247 1_454 S
O153 Zn145 1.906 . S
O153 C161 1.304 . S
O154 Zn142 1.924 . S
O154 C162 1.311 1_655 S
O155 Zn146 1.977 1_554 S
O155 C161 1.272 . S
O156 Zn146 1.910 1_554 S
O156 C162 1.231 . S
C157 O141 1.225 . S
C157 O163 1.298 1_655 S
C158 O147 1.226 . S
C158 O148 1.307 . S
C159 O151 1.303 . S
C159 O152 1.247 1_656 S
C160 O149 1.253 1_556 S
C160 O150 1.283 . S
C161 O153 1.304 . S
C161 O155 1.272 . S
C162 O154 1.311 1_455 S
C162 O156 1.231 . S
O163 Zn145 1.953 . S
O163 C157 1.298 1_455 S
C164 C165 1.349 . S
C164 C166 1.327 . S
C164 H189 0.950 . S
C165 C164 1.349 . S
C165 C181 1.349 . S
C166 C164 1.327 . S
C166 C185 1.429 . S
C166 H190 0.950 . S
C167 C184 1.574 . S
C167 C186 1.368 . S
C167 H191 0.949 . S
H168 C172 0.949 . S
C169 C170 1.349 . S
C169 C171 1.327 . S
C169 H192 0.950 . S
C170 C169 1.349 . S
C170 C182 1.349 . S
C171 C169 1.327 . S
C171 C187 1.429 . S
C171 H193 0.950 . S
C172 H168 0.949 . S
C172 C180 1.574 . S
C172 C188 1.368 . S
H173 C181 0.950 . S
H174 C179 0.950 . S
H175 C180 0.949 . S
H176 C182 0.950 . S
H177 C183 0.950 . S
H178 C184 0.949 . S
C179 H174 0.950 . S
C179 C181 1.327 . S
C179 C185 1.429 . S
C180 C172 1.574 . S
C180 H175 0.949 . S
C180 C186 1.368 . S
C181 C165 1.349 . S
C181 H173 0.950 . S
C181 C179 1.327 . S
C182 C170 1.349 . S
C182 H176 0.950 . S
C182 C183 1.327 . S
C183 H177 0.950 . S
C183 C182 1.327 . S
C183 C187 1.429 . S
C184 C167 1.574 . S
C184 H178 0.949 . S
C184 C188 1.368 . S
C185 C166 1.429 . S
C185 C179 1.429 . S
C185 C186 1.523 . S
C186 C167 1.368 . S
C186 C180 1.368 . S
C186 C185 1.523 . S
C187 C171 1.429 . S
C187 C183 1.429 . S
C187 C188 1.523 . S
C188 C172 1.368 . S
C188 C184 1.368 . S
C188 C187 1.523 . S
H189 C164 0.950 . S
H190 C166 0.950 . S
H191 C167 0.949 . S
H192 C169 0.950 . S
H193 C171 0.950 . S
C194 C195 1.349 . S
C194 C196 1.327 . S
C194 H219 0.950 . S
C195 C194 1.349 . S
C195 C211 1.349 . S
C196 C194 1.327 . S
C196 C215 1.429 . S
C196 H220 0.950 . S
C197 C214 1.574 . S
C197 C216 1.368 . S
C197 H221 0.949 . S
H198 C202 0.949 . S
C199 C200 1.349 . S
C199 C201 1.327 . S
C199 H222 0.950 . S
C200 C199 1.349 . S
C200 C212 1.349 . S
C201 C199 1.327 . S
C201 C217 1.429 . S
C201 H223 0.950 . S
C202 H198 0.949 . S
C202 C210 1.574 . S
C202 C218 1.368 . S
H203 C211 0.950 . S
H204 C209 0.950 . S
H205 C210 0.949 . S
H206 C212 0.950 . S
H207 C213 0.950 . S
H208 C214 0.949 . S
C209 H204 0.950 . S
C209 C211 1.327 . S
C209 C215 1.429 . S
C210 C202 1.574 . S
C210 H205 0.949 . S
C210 C216 1.368 . S
C211 C195 1.349 . S
C211 H203 0.950 . S
C211 C209 1.327 . S
C212 C200 1.349 . S
C212 H206 0.950 . S
C212 C213 1.327 . S
C213 H207 0.950 . S
C213 C212 1.327 . S
C213 C217 1.429 . S
C214 C197 1.574 . S
C214 H208 0.949 . S
C214 C218 1.368 . S
C215 C196 1.429 . S
C215 C209 1.429 . S
C215 C216 1.523 . S
C216 C197 1.368 . S
C216 C210 1.368 . S
C216 C215 1.523 . S
C217 C201 1.429 . S
C217 C213 1.429 . S
C217 C218 1.523 . S
C218 C202 1.368 . S
C218 C214 1.368 . S
C218 C217 1.523 . S
H219 C194 0.950 . S
H220 C196 0.950 . S
H221 C197 0.949 . S
H222 C199 0.950 . S
H223 C201 0.950 . S
C224 C225 1.349 . S
C224 C226 1.327 . S
C224 H249 0.950 . S
C225 C224 1.349 . S
C225 C241 1.349 . S
C226 C224 1.327 . S
C226 C245 1.429 . S
C226 H250 0.950 . S
C227 C244 1.574 . S
C227 C246 1.368 . S
C227 H251 0.949 . S
H228 C232 0.949 . S
C229 C230 1.349 . S
C229 C231 1.327 . S
C229 H252 0.950 . S
C230 C229 1.349 . S
C230 C242 1.349 . S
C231 C229 1.327 . S
C231 C247 1.429 . S
C231 H253 0.950 . S
C232 H228 0.949 . S
C232 C240 1.574 . S
C232 C248 1.368 . S
H233 C241 0.950 . S
H234 C239 0.950 . S
H235 C240 0.949 . S
H236 C242 0.950 . S
H237 C243 0.950 . S
H238 C244 0.949 . S
C239 H234 0.950 . S
C239 C241 1.327 . S
C239 C245 1.429 . S
C240 C232 1.574 . S
C240 H235 0.949 . S
C240 C246 1.368 . S
C241 C225 1.349 . S
C241 H233 0.950 . S
C241 C239 1.327 . S
C242 C230 1.349 . S
C242 H236 0.950 . S
C242 C243 1.327 . S
C243 H237 0.950 . S
C243 C242 1.327 . S
C243 C247 1.429 . S
C244 C227 1.574 . S
C244 H238 0.949 . S
C244 C248 1.368 . S
C245 C226 1.429 . S
C245 C239 1.429 . S
C245 C246 1.523 . S
C246 C227 1.368 . S
C246 C240 1.368 . S
C246 C245 1.523 . S
C247 C231 1.429 . S
C247 C243 1.429 . S
C247 C248 1.523 . S
C248 C232 1.368 . S
C248 C244 1.368 . S
C248 C247 1.523 . S
H249 C224 0.950 . S
H250 C226 0.950 . S
H251 C227 0.949 . S
H252 C229 0.950 . S
H253 C231 0.950 . S
C254 C255 1.349 . S
C254 C256 1.327 . S
C254 H279 0.950 . S
C255 C254 1.349 . S
C255 C271 1.349 . S
C256 C254 1.327 . S
C256 C275 1.429 . S
C256 H280 0.950 . S
C257 C274 1.574 . S
C257 C276 1.368 . S
C257 H281 0.949 . S
H258 C262 0.949 . S
C259 C260 1.349 . S
C259 C261 1.327 . S
C259 H282 0.950 . S
C260 C259 1.349 . S
C260 C272 1.349 . S
C261 C259 1.327 . S
C261 C277 1.429 . S
C261 H283 0.950 . S
C262 H258 0.949 . S
C262 C270 1.574 . S
C262 C278 1.368 . S
H263 C271 0.950 . S
H264 C269 0.950 . S
H265 C270 0.949 . S
H266 C272 0.950 . S
H267 C273 0.950 . S
H268 C274 0.949 . S
C269 H264 0.950 . S
C269 C271 1.327 . S
C269 C275 1.429 . S
C270 C262 1.574 . S
C270 H265 0.949 . S
C270 C276 1.368 . S
C271 C255 1.349 . S
C271 H263 0.950 . S
C271 C269 1.327 . S
C272 C260 1.349 . S
C272 H266 0.950 . S
C272 C273 1.327 . S
C273 H267 0.950 . S
C273 C272 1.327 . S
C273 C277 1.429 . S
C274 C257 1.574 . S
C274 H268 0.949 . S
C274 C278 1.368 . S
C275 C256 1.429 . S
C275 C269 1.429 . S
C275 C276 1.523 . S
C276 C257 1.368 . S
C276 C270 1.368 . S
C276 C275 1.523 . S
C277 C261 1.429 . S
C277 C273 1.429 . S
C277 C278 1.523 . S
C278 C262 1.368 . S
C278 C274 1.368 . S
C278 C277 1.523 . S
H279 C254 0.950 . S
H280 C256 0.950 . S
H281 C257 0.949 . S
H282 C259 0.950 . S
H283 C261 0.950 . S
C284 C285 1.349 . S
C284 C286 1.327 . S
C284 H309 0.950 . S
C285 C284 1.349 . S
C285 C301 1.349 . S
C286 C284 1.327 . S
C286 C305 1.429 . S
C286 H310 0.950 . S
C287 C304 1.574 . S
C287 C306 1.368 . S
C287 H311 0.949 . S
H288 C292 0.949 . S
C289 C290 1.349 . S
C289 C291 1.327 . S
C289 H312 0.950 . S
C290 C289 1.349 . S
C290 C302 1.349 . S
C291 C289 1.327 . S
C291 C307 1.429 . S
C291 H313 0.950 . S
C292 H288 0.949 . S
C292 C300 1.574 . S
C292 C308 1.368 . S
H293 C301 0.950 . S
H294 C299 0.950 . S
H295 C300 0.949 . S
H296 C302 0.950 . S
H297 C303 0.950 . S
H298 C304 0.949 . S
C299 H294 0.950 . S
C299 C301 1.327 . S
C299 C305 1.429 . S
C300 C292 1.574 . S
C300 H295 0.949 . S
C300 C306 1.368 . S
C301 C285 1.349 . S
C301 H293 0.950 . S
C301 C299 1.327 . S
C302 C290 1.349 . S
C302 H296 0.950 . S
C302 C303 1.327 . S
C303 H297 0.950 . S
C303 C302 1.327 . S
C303 C307 1.429 . S
C304 C287 1.574 . S
C304 H298 0.949 . S
C304 C308 1.368 . S
C305 C286 1.429 . S
C305 C299 1.429 . S
C305 C306 1.523 . S
C306 C287 1.368 . S
C306 C300 1.368 . S
C306 C305 1.523 . S
C307 C291 1.429 . S
C307 C303 1.429 . S
C307 C308 1.523 . S
C308 C292 1.368 . S
C308 C304 1.368 . S
C308 C307 1.523 . S
H309 C284 0.950 . S
H310 C286 0.950 . S
H311 C287 0.949 . S
H312 C289 0.950 . S
H313 C291 0.950 . S
C314 C315 1.349 . S
C314 C316 1.327 . S
C314 H339 0.950 . S
C315 C314 1.349 . S
C315 C331 1.349 . S
C316 C314 1.327 . S
C316 C335 1.429 . S
C316 H340 0.950 . S
C317 C334 1.574 . S
C317 C336 1.368 . S
C317 H341 0.949 . S
H318 C322 0.949 . S
C319 C320 1.349 . S
C319 C321 1.327 . S
C319 H342 0.950 . S
C320 C319 1.349 . S
C320 C332 1.349 . S
C321 C319 1.327 . S
C321 C337 1.429 . S
C321 H343 0.950 . S
C322 H318 0.949 . S
C322 C330 1.574 . S
C322 C338 1.368 . S
H323 C331 0.950 . S
H324 C329 0.950 . S
H325 C330 0.949 . S
H326 C332 0.950 . S
H327 C333 0.950 . S
H328 C334 0.949 . S
C329 H324 0.950 . S
C329 C331 1.327 . S
C329 C335 1.429 . S
C330 C322 1.574 . S
C330 H325 0.949 . S
C330 C336 1.368 . S
C331 C315 1.349 . S
C331 H323 0.950 . S
C331 C329 1.327 . S
C332 C320 1.349 . S
C332 H326 0.950 . S
C332 C333 1.327 . S
C333 H327 0.950 . S
C333 C332 1.327 . S
C333 C337 1.429 . S
C334 C317 1.574 . S
C334 H328 0.949 . S
C334 C338 1.368 . S
C335 C316 1.429 . S
C335 C329 1.429 . S
C335 C336 1.523 . S
C336 C317 1.368 . S
C336 C330 1.368 . S
C336 C335 1.523 . S
C337 C321 1.429 . S
C337 C333 1.429 . S
C337 C338 1.523 . S
C338 C322 1.368 . S
C338 C334 1.368 . S
C338 C337 1.523 . S
H339 C314 0.950 . S
H340 C316 0.950 . S
H341 C317 0.949 . S
H342 C319 0.950 . S
H343 C321 0.950 . S
C344 C345 1.349 . S
C344 C346 1.327 . S
C344 H369 0.950 . S
C345 C344 1.349 . S
C345 C361 1.349 . S
C346 C344 1.327 . S
C346 C365 1.429 . S
C346 H370 0.950 . S
C347 C364 1.574 . S
C347 C366 1.368 . S
C347 H371 0.949 . S
H348 C352 0.949 . S
C349 C350 1.349 . S
C349 C351 1.327 . S
C349 H372 0.950 . S
C350 C349 1.349 . S
C350 C362 1.349 . S
C351 C349 1.327 . S
C351 C367 1.429 . S
C351 H373 0.950 . S
C352 H348 0.949 . S
C352 C360 1.574 . S
C352 C368 1.368 . S
H353 C361 0.950 . S
H354 C359 0.950 . S
H355 C360 0.949 . S
H356 C362 0.950 . S
H357 C363 0.950 . S
H358 C364 0.949 . S
C359 H354 0.950 . S
C359 C361 1.327 . S
C359 C365 1.429 . S
C360 C352 1.574 . S
C360 H355 0.949 . S
C360 C366 1.368 . S
C361 C345 1.349 . S
C361 H353 0.950 . S
C361 C359 1.327 . S
C362 C350 1.349 . S
C362 H356 0.950 . S
C362 C363 1.327 . S
C363 H357 0.950 . S
C363 C362 1.327 . S
C363 C367 1.429 . S
C364 C347 1.574 . S
C364 H358 0.949 . S
C364 C368 1.368 . S
C365 C346 1.429 . S
C365 C359 1.429 . S
C365 C366 1.523 . S
C366 C347 1.368 . S
C366 C360 1.368 . S
C366 C365 1.523 . S
C367 C351 1.429 . S
C367 C363 1.429 . S
C367 C368 1.523 . S
C368 C352 1.368 . S
C368 C364 1.368 . S
C368 C367 1.523 . S
H369 C344 0.950 . S
H370 C346 0.950 . S
H371 C347 0.949 . S
H372 C349 0.950 . S
H373 C351 0.950 . S
C374 C375 1.349 . S
C374 C376 1.327 . S
C374 H399 0.950 . S
C375 C374 1.349 . S
C375 C391 1.349 . S
C376 C374 1.327 . S
C376 C395 1.429 . S
C376 H400 0.950 . S
C377 C394 1.574 . S
C377 C396 1.368 . S
C377 H401 0.949 . S
H378 C382 0.949 . S
C379 C380 1.349 . S
C379 C381 1.327 . S
C379 H402 0.950 . S
C380 C379 1.349 . S
C380 C392 1.349 . S
C381 C379 1.327 . S
C381 C397 1.429 . S
C381 H403 0.950 . S
C382 H378 0.949 . S
C382 C390 1.574 . S
C382 C398 1.368 . S
H383 C391 0.950 . S
H384 C389 0.950 . S
H385 C390 0.949 . S
H386 C392 0.950 . S
H387 C393 0.950 . S
H388 C394 0.949 . S
C389 H384 0.950 . S
C389 C391 1.327 . S
C389 C395 1.429 . S
C390 C382 1.574 . S
C390 H385 0.949 . S
C390 C396 1.368 . S
C391 C375 1.349 . S
C391 H383 0.950 . S
C391 C389 1.327 . S
C392 C380 1.349 . S
C392 H386 0.950 . S
C392 C393 1.327 . S
C393 H387 0.950 . S
C393 C392 1.327 . S
C393 C397 1.429 . S
C394 C377 1.574 . S
C394 H388 0.949 . S
C394 C398 1.368 . S
C395 C376 1.429 . S
C395 C389 1.429 . S
C395 C396 1.523 . S
C396 C377 1.368 . S
C396 C390 1.368 . S
C396 C395 1.523 . S
C397 C381 1.429 . S
C397 C393 1.429 . S
C397 C398 1.523 . S
C398 C382 1.368 . S
C398 C394 1.368 . S
C398 C397 1.523 . S
H399 C374 0.950 . S
H400 C376 0.950 . S
H401 C377 0.949 . S
H402 C379 0.950 . S
H403 C381 0.950 . S
C404 C405 1.349 . S
C404 C406 1.327 . S
C404 H429 0.950 . S
C405 C404 1.349 . S
C405 C421 1.349 . S
C406 C404 1.327 . S
C406 C425 1.429 . S
C406 H430 0.950 . S
C407 C424 1.574 . S
C407 C426 1.368 . S
C407 H431 0.949 . S
H408 C412 0.949 . S
C409 C410 1.349 . S
C409 C411 1.327 . S
C409 H432 0.950 . S
C410 C409 1.349 . S
C410 C422 1.349 . S
C411 C409 1.327 . S
C411 C427 1.429 . S
C411 H433 0.950 . S
C412 H408 0.949 . S
C412 C420 1.574 . S
C412 C428 1.368 . S
H413 C421 0.950 . S
H414 C419 0.950 . S
H415 C420 0.949 . S
H416 C422 0.950 . S
H417 C423 0.950 . S
H418 C424 0.949 . S
C419 H414 0.950 . S
C419 C421 1.327 . S
C419 C425 1.429 . S
C420 C412 1.574 . S
C420 H415 0.949 . S
C420 C426 1.368 . S
C421 C405 1.349 . S
C421 H413 0.950 . S
C421 C419 1.327 . S
C422 C410 1.349 . S
C422 H416 0.950 . S
C422 C423 1.327 . S
C423 H417 0.950 . S
C423 C422 1.327 . S
C423 C427 1.429 . S
C424 C407 1.574 . S
C424 H418 0.949 . S
C424 C428 1.368 . S
C425 C406 1.429 . S
C425 C419 1.429 . S
C425 C426 1.523 . S
C426 C407 1.368 . S
C426 C420 1.368 . S
C426 C425 1.523 . S
C427 C411 1.429 . S
C427 C423 1.429 . S
C427 C428 1.523 . S
C428 C412 1.368 . S
C428 C424 1.368 . S
C428 C427 1.523 . S
H429 C404 0.950 . S
H430 C406 0.950 . S
H431 C407 0.949 . S
H432 C409 0.950 . S
H433 C411 0.950 . S
C434 C435 1.349 . S
C434 C436 1.327 . S
C434 H459 0.950 . S
C435 C434 1.349 . S
C435 C451 1.349 . S
C436 C434 1.327 . S
C436 C455 1.429 . S
C436 H460 0.950 . S
C437 C454 1.574 . S
C437 C456 1.368 . S
C437 H461 0.949 . S
H438 C442 0.949 . S
C439 C440 1.349 . S
C439 C441 1.327 . S
C439 H462 0.950 1_556 S
C440 C439 1.349 . S
C440 C452 1.349 . S
C441 C439 1.327 . S
C441 C457 1.429 . S
C441 H463 0.950 . S
C442 H438 0.949 . S
C442 C450 1.574 . S
C442 C458 1.368 . S
H443 C451 0.950 . S
H444 C449 0.950 . S
H445 C450 0.949 . S
H446 C452 0.950 . S
H447 C453 0.950 . S
H448 C454 0.949 . S
C449 H444 0.950 . S
C449 C451 1.327 . S
C449 C455 1.429 . S
C450 C442 1.574 . S
C450 H445 0.949 . S
C450 C456 1.368 . S
C451 C435 1.349 . S
C451 H443 0.950 . S
C451 C449 1.327 . S
C452 C440 1.349 . S
C452 H446 0.950 . S
C452 C453 1.327 . S
C453 H447 0.950 . S
C453 C452 1.327 . S
C453 C457 1.429 . S
C454 C437 1.574 . S
C454 H448 0.949 . S
C454 C458 1.368 . S
C455 C436 1.429 . S
C455 C449 1.429 . S
C455 C456 1.523 . S
C456 C437 1.368 . S
C456 C450 1.368 . S
C456 C455 1.523 . S
C457 C441 1.429 . S
C457 C453 1.429 . S
C457 C458 1.523 . S
C458 C442 1.368 . S
C458 C454 1.368 . S
C458 C457 1.523 . S
H459 C434 0.950 . S
H460 C436 0.950 . S
H461 C437 0.949 . S
H462 C439 0.950 1_554 S
H463 C441 0.950 . S
C464 C465 1.349 . S
C464 C466 1.327 . S
C464 H489 0.950 . S
C465 C464 1.349 . S
C465 C481 1.349 . S
C466 C464 1.327 . S
C466 C485 1.429 . S
C466 H490 0.950 . S
C467 C484 1.574 . S
C467 C486 1.368 . S
C467 H491 0.949 . S
H468 C472 0.949 . S
C469 C470 1.349 . S
C469 C471 1.327 . S
C469 H492 0.950 1_655 S
C470 C469 1.349 . S
C470 C482 1.349 . S
C471 C469 1.327 . S
C471 C487 1.429 . S
C471 H493 0.950 . S
C472 H468 0.949 . S
C472 C480 1.574 . S
C472 C488 1.368 . S
H473 C481 0.950 . S
H474 C479 0.950 . S
H475 C480 0.949 . S
H476 C482 0.950 . S
H477 C483 0.950 . S
H478 C484 0.949 . S
C479 H474 0.950 . S
C479 C481 1.327 . S
C479 C485 1.429 . S
C480 C472 1.574 . S
C480 H475 0.949 . S
C480 C486 1.368 . S
C481 C465 1.349 . S
C481 H473 0.950 . S
C481 C479 1.327 . S
C482 C470 1.349 . S
C482 H476 0.950 . S
C482 C483 1.327 . S
C483 H477 0.950 . S
C483 C482 1.327 . S
C483 C487 1.429 . S
C484 C467 1.574 . S
C484 H478 0.949 . S
C484 C488 1.368 . S
C485 C466 1.429 . S
C485 C479 1.429 . S
C485 C486 1.523 . S
C486 C467 1.368 . S
C486 C480 1.368 . S
C486 C485 1.523 . S
C487 C471 1.429 . S
C487 C483 1.429 . S
C487 C488 1.523 . S
C488 C472 1.368 . S
C488 C484 1.368 . S
C488 C487 1.523 . S
H489 C464 0.950 . S
H490 C466 0.950 . S
H491 C467 0.949 . S
H492 C469 0.950 1_455 S
H493 C471 0.950 . S
C494 C495 1.349 . S
C494 C496 1.327 . S
C494 H519 0.950 . S
C495 C494 1.349 . S
C495 C511 1.349 . S
C496 C494 1.327 . S
C496 C515 1.429 . S
C496 H520 0.950 . S
C497 C514 1.574 . S
C497 C516 1.368 . S
C497 H521 0.949 . S
H498 C502 0.949 . S
C499 C500 1.349 . S
C499 C501 1.327 . S
C499 H522 0.950 . S
C500 C499 1.349 . S
C500 C512 1.349 . S
C501 C499 1.327 . S
C501 C517 1.429 . S
C501 H523 0.950 . S
C502 H498 0.949 . S
C502 C510 1.574 . S
C502 C518 1.368 . S
H503 C511 0.950 . S
H504 C509 0.950 . S
H505 C510 0.949 . S
H506 C512 0.950 . S
H507 C513 0.950 . S
H508 C514 0.949 . S
C509 H504 0.950 . S
C509 C511 1.327 . S
C509 C515 1.429 . S
C510 C502 1.574 . S
C510 H505 0.949 . S
C510 C516 1.368 . S
C511 C495 1.349 . S
C511 H503 0.950 . S
C511 C509 1.327 . S
C512 C500 1.349 . S
C512 H506 0.950 . S
C512 C513 1.327 . S
C513 H507 0.950 . S
C513 C512 1.327 . S
C513 C517 1.429 . S
C514 C497 1.574 . S
C514 H508 0.949 . S
C514 C518 1.368 . S
C515 C496 1.429 . S
C515 C509 1.429 . S
C515 C516 1.523 . S
C516 C497 1.368 . S
C516 C510 1.368 . S
C516 C515 1.523 . S
C517 C501 1.429 . S
C517 C513 1.429 . S
C517 C518 1.523 . S
C518 C502 1.368 . S
C518 C514 1.368 . S
C518 C517 1.523 . S
H519 C494 0.950 . S
H520 C496 0.950 . S
H521 C497 0.949 . S
H522 C499 0.950 . S
H523 C501 0.950 . S
C524 C525 1.349 . S
C524 C526 1.327 . S
C524 H549 0.950 . S
C525 C524 1.349 . S
C525 C541 1.349 . S
C526 C524 1.327 . S
C526 C545 1.429 . S
C526 H550 0.950 . S
C527 C544 1.574 . S
C527 C546 1.368 . S
C527 H551 0.949 1_565 S
H528 C532 0.949 . S
C529 C530 1.349 1_545 S
C529 C531 1.327 . S
C529 H552 0.950 1_655 S
C530 C529 1.349 1_565 S
C530 C542 1.349 . S
C531 C529 1.327 . S
C531 C547 1.429 1_545 S
C531 H553 0.950 . S
C532 H528 0.949 . S
C532 C540 1.574 . S
C532 C548 1.368 . S
H533 C541 0.950 . S
H534 C539 0.950 . S
H535 C540 0.949 . S
H536 C542 0.950 . S
H537 C543 0.950 . S
H538 C544 0.949 1_545 S
C539 H534 0.950 . S
C539 C541 1.327 . S
C539 C545 1.429 . S
C540 C532 1.574 . S
C540 H535 0.949 . S
C540 C546 1.368 . S
C541 C525 1.349 . S
C541 H533 0.950 . S
C541 C539 1.327 . S
C542 C530 1.349 . S
C542 H536 0.950 . S
C542 C543 1.327 . S
C543 H537 0.950 . S
C543 C542 1.327 . S
C543 C547 1.429 . S
C544 C527 1.574 . S
C544 H538 0.949 1_565 S
C544 C548 1.368 . S
C545 C526 1.429 . S
C545 C539 1.429 . S
C545 C546 1.523 . S
C546 C527 1.368 . S
C546 C540 1.368 . S
C546 C545 1.523 . S
C547 C531 1.429 1_565 S
C547 C543 1.429 . S
C547 C548 1.523 . S
C548 C532 1.368 . S
C548 C544 1.368 . S
C548 C547 1.523 . S
H549 C524 0.950 . S
H550 C526 0.950 . S
H551 C527 0.949 1_545 S
H552 C529 0.950 1_455 S
H553 C531 0.950 . S
C554 C555 1.349 . S
C554 C556 1.327 . S
C554 H579 0.950 . S
C555 C554 1.349 . S
C555 C571 1.349 . S
C556 C554 1.327 . S
C556 C575 1.429 . S
C556 H580 0.950 . S
C557 C574 1.574 . S
C557 C576 1.368 . S
C557 H581 0.949 . S
H558 C562 0.949 . S
C559 C560 1.349 1_565 S
C559 C561 1.327 1_565 S
C559 H582 0.950 . S
C560 C559 1.349 1_545 S
C560 C572 1.349 . S
C561 C559 1.327 1_545 S
C561 C577 1.429 . S
C561 H583 0.950 1_545 S
C562 H558 0.949 . S
C562 C570 1.574 . S
C562 C578 1.368 . S
H563 C571 0.950 . S
H564 C569 0.950 . S
H565 C570 0.949 . S
H566 C572 0.950 . S
H567 C573 0.950 . S
H568 C574 0.949 1_565 S
C569 H564 0.950 . S
C569 C571 1.327 . S
C569 C575 1.429 . S
C570 C562 1.574 . S
C570 H565 0.949 . S
C570 C576 1.368 . S
C571 C555 1.349 . S
C571 H563 0.950 . S
C571 C569 1.327 . S
C572 C560 1.349 . S
C572 H566 0.950 . S
C572 C573 1.327 . S
C573 H567 0.950 . S
C573 C572 1.327 . S
C573 C577 1.429 . S
C574 C557 1.574 . S
C574 H568 0.949 1_545 S
C574 C578 1.368 . S
C575 C556 1.429 . S
C575 C569 1.429 . S
C575 C576 1.523 . S
C576 C557 1.368 . S
C576 C570 1.368 . S
C576 C575 1.523 . S
C577 C561 1.429 . S
C577 C573 1.429 . S
C577 C578 1.523 . S
C578 C562 1.368 . S
C578 C574 1.368 . S
C578 C577 1.523 . S
H579 C554 0.950 . S
H580 C556 0.950 . S
H581 C557 0.949 . S
H582 C559 0.950 . S
H583 C561 0.950 1_565 S
C584 C585 1.349 . S
C584 C586 1.327 . S
C584 H609 0.950 . S
C585 C584 1.349 . S
C585 C601 1.349 . S
C586 C584 1.327 . S
C586 C605 1.429 . S
C586 H610 0.950 . S
C587 C604 1.574 . S
C587 C606 1.368 . S
C587 H611 0.949 . S
H588 C592 0.949 . S
C589 C590 1.349 . S
C589 C591 1.327 . S
C589 H612 0.950 . S
C590 C589 1.349 . S
C590 C602 1.349 . S
C591 C589 1.327 . S
C591 C607 1.429 . S
C591 H613 0.950 . S
C592 H588 0.949 . S
C592 C600 1.574 . S
C592 C608 1.368 . S
H593 C601 0.950 . S
H594 C599 0.950 . S
H595 C600 0.949 . S
H596 C602 0.950 . S
H597 C603 0.950 . S
H598 C604 0.949 . S
C599 H594 0.950 . S
C599 C601 1.327 . S
C599 C605 1.429 . S
C600 C592 1.574 . S
C600 H595 0.949 . S
C600 C606 1.368 . S
C601 C585 1.349 . S
C601 H593 0.950 . S
C601 C599 1.327 . S
C602 C590 1.349 . S
C602 H596 0.950 . S
C602 C603 1.327 . S
C603 H597 0.950 . S
C603 C602 1.327 . S
C603 C607 1.429 . S
C604 C587 1.574 . S
C604 H598 0.949 . S
C604 C608 1.368 . S
C605 C586 1.429 . S
C605 C599 1.429 . S
C605 C606 1.523 . S
C606 C587 1.368 . S
C606 C600 1.368 . S
C606 C605 1.523 . S
C607 C591 1.429 . S
C607 C603 1.429 . S
C607 C608 1.523 . S
C608 C592 1.368 . S
C608 C604 1.368 . S
C608 C607 1.523 . S
H609 C584 0.950 . S
H610 C586 0.950 . S
H611 C587 0.949 . S
H612 C589 0.950 . S
H613 C591 0.950 . S
C614 C615 1.349 . S
C614 C616 1.327 . S
C614 H639 0.950 . S
C615 C614 1.349 . S
C615 C631 1.349 . S
C616 C614 1.327 . S
C616 C635 1.429 . S
C616 H640 0.950 . S
C617 C634 1.574 . S
C617 C636 1.368 . S
C617 H641 0.949 . S
H618 C622 0.949 . S
C619 C620 1.349 . S
C619 C621 1.327 . S
C619 H642 0.950 . S
C620 C619 1.349 . S
C620 C632 1.349 . S
C621 C619 1.327 . S
C621 C637 1.429 . S
C621 H643 0.950 . S
C622 H618 0.949 . S
C622 C630 1.574 . S
C622 C638 1.368 . S
H623 C631 0.950 . S
H624 C629 0.950 . S
H625 C630 0.949 . S
H626 C632 0.950 . S
H627 C633 0.950 . S
H628 C634 0.949 . S
C629 H624 0.950 . S
C629 C631 1.327 . S
C629 C635 1.429 . S
C630 C622 1.574 . S
C630 H625 0.949 . S
C630 C636 1.368 . S
C631 C615 1.349 . S
C631 H623 0.950 . S
C631 C629 1.327 . S
C632 C620 1.349 . S
C632 H626 0.950 . S
C632 C633 1.327 . S
C633 H627 0.950 . S
C633 C632 1.327 . S
C633 C637 1.429 . S
C634 C617 1.574 . S
C634 H628 0.949 . S
C634 C638 1.368 . S
C635 C616 1.429 . S
C635 C629 1.429 . S
C635 C636 1.523 . S
C636 C617 1.368 . S
C636 C630 1.368 . S
C636 C635 1.523 . S
C637 C621 1.429 . S
C637 C633 1.429 . S
C637 C638 1.523 . S
C638 C622 1.368 . S
C638 C634 1.368 . S
C638 C637 1.523 . S
H639 C614 0.950 . S
H640 C616 0.950 . S
H641 C617 0.949 . S
H642 C619 0.950 . S
H643 C621 0.950 . S
C644 C645 1.349 . S
C644 C646 1.327 . S
C644 H669 0.950 . S
C645 C644 1.349 . S
C645 C661 1.349 . S
C646 C644 1.327 . S
C646 C665 1.429 . S
C646 H670 0.950 . S
C647 C664 1.574 . S
C647 C666 1.368 . S
C647 H671 0.949 . S
H648 C652 0.949 . S
C649 C650 1.349 1_554 S
C649 C651 1.327 . S
C649 H672 0.951 . S
C650 C649 1.349 1_556 S
C650 C662 1.349 . S
C651 C649 1.327 . S
C651 C667 1.429 1_554 S
C651 H673 0.950 . S
C652 H648 0.949 . S
C652 C660 1.574 . S
C652 C668 1.368 . S
H653 C661 0.950 . S
H654 C659 0.950 . S
H655 C660 0.949 . S
H656 C662 0.950 . S
H657 C663 0.950 . S
H658 C664 0.949 1_554 S
C659 H654 0.950 . S
C659 C661 1.327 . S
C659 C665 1.429 . S
C660 C652 1.574 . S
C660 H655 0.949 . S
C660 C666 1.368 . S
C661 C645 1.349 . S
C661 H653 0.950 . S
C661 C659 1.327 . S
C662 C650 1.349 . S
C662 H656 0.950 . S
C662 C663 1.327 . S
C663 H657 0.950 . S
C663 C662 1.327 . S
C663 C667 1.429 . S
C664 C647 1.574 . S
C664 H658 0.949 1_556 S
C664 C668 1.368 . S
C665 C646 1.429 . S
C665 C659 1.429 . S
C665 C666 1.523 . S
C666 C647 1.368 . S
C666 C660 1.368 . S
C666 C665 1.523 . S
C667 C651 1.429 1_556 S
C667 C663 1.429 . S
C667 C668 1.523 . S
C668 C652 1.368 . S
C668 C664 1.368 . S
C668 C667 1.523 . S
H669 C644 0.950 . S
H670 C646 0.950 . S
H671 C647 0.949 . S
H672 C649 0.951 . S
H673 C651 0.950 . S
C674 C675 1.349 . S
C674 C676 1.327 . S
C674 H699 0.950 . S
C675 C674 1.349 . S
C675 C691 1.349 . S
C676 C674 1.327 . S
C676 C695 1.429 . S
C676 H700 0.950 . S
C677 C694 1.574 . S
C677 C696 1.368 . S
C677 H701 0.949 . S
H678 C682 0.949 . S
C679 C680 1.349 . S
C679 C681 1.327 . S
C679 H702 0.950 . S
C680 C679 1.349 . S
C680 C692 1.349 . S
C681 C679 1.327 . S
C681 C697 1.429 . S
C681 H703 0.950 . S
C682 H678 0.949 . S
C682 C690 1.574 . S
C682 C698 1.368 . S
H683 C691 0.950 . S
H684 C689 0.950 . S
H685 C690 0.949 . S
H686 C692 0.950 . S
H687 C693 0.950 . S
H688 C694 0.949 . S
C689 H684 0.950 . S
C689 C691 1.327 . S
C689 C695 1.429 . S
C690 C682 1.574 . S
C690 H685 0.949 . S
C690 C696 1.368 . S
C691 C675 1.349 . S
C691 H683 0.950 . S
C691 C689 1.327 . S
C692 C680 1.349 . S
C692 H686 0.950 . S
C692 C693 1.327 . S
C693 H687 0.950 . S
C693 C692 1.327 . S
C693 C697 1.429 . S
C694 C677 1.574 . S
C694 H688 0.949 . S
C694 C698 1.368 . S
C695 C676 1.429 . S
C695 C689 1.429 . S
C695 C696 1.523 . S
C696 C677 1.368 . S
C696 C690 1.368 . S
C696 C695 1.523 . S
C697 C681 1.429 . S
C697 C693 1.429 . S
C697 C698 1.523 . S
C698 C682 1.368 . S
C698 C694 1.368 . S
C698 C697 1.523 . S
H699 C674 0.950 . S
H700 C676 0.950 . S
H701 C677 0.949 . S
H702 C679 0.950 . S
H703 C681 0.950 . S
C704 C705 1.349 . S
C704 C706 1.327 . S
C704 H729 0.950 . S
C705 C704 1.349 . S
C705 C721 1.349 . S
C706 C704 1.327 . S
C706 C725 1.429 . S
C706 H730 0.950 . S
C707 C724 1.574 . S
C707 C726 1.368 . S
C707 H731 0.949 . S
H708 C712 0.949 . S
C709 C710 1.349 . S
C709 C711 1.327 . S
C709 H732 0.950 1_554 S
C710 C709 1.349 . S
C710 C722 1.349 . S
C711 C709 1.327 . S
C711 C727 1.429 . S
C711 H733 0.950 . S
C712 H708 0.949 . S
C712 C720 1.574 . S
C712 C728 1.368 . S
H713 C721 0.950 . S
H714 C719 0.950 . S
H715 C720 0.949 . S
H716 C722 0.950 . S
H717 C723 0.950 . S
H718 C724 0.949 . S
C719 H714 0.950 . S
C719 C721 1.327 . S
C719 C725 1.429 . S
C720 C712 1.574 . S
C720 H715 0.949 . S
C720 C726 1.368 . S
C721 C705 1.349 . S
C721 H713 0.950 . S
C721 C719 1.327 . S
C722 C710 1.349 . S
C722 H716 0.950 . S
C722 C723 1.327 . S
C723 H717 0.950 . S
C723 C722 1.327 . S
C723 C727 1.429 . S
C724 C707 1.574 . S
C724 H718 0.949 . S
C724 C728 1.368 . S
C725 C706 1.429 . S
C725 C719 1.429 . S
C725 C726 1.523 . S
C726 C707 1.368 . S
C726 C720 1.368 . S
C726 C725 1.523 . S
C727 C711 1.429 . S
C727 C723 1.429 . S
C727 C728 1.523 . S
C728 C712 1.368 . S
C728 C724 1.368 . S
C728 C727 1.523 . S
H729 C704 0.950 . S
H730 C706 0.950 . S
H731 C707 0.949 . S
H732 C709 0.950 1_556 S
H733 C711 0.950 . S
C734 C735 1.349 . S
C734 C736 1.327 . S
C734 H759 0.950 . S
C735 C734 1.349 . S
C735 C751 1.349 . S
C736 C734 1.327 . S
C736 C755 1.429 . S
C736 H760 0.950 . S
C737 C754 1.574 . S
C737 C756 1.368 . S
C737 H761 0.949 . S
H738 C742 0.949 . S
C739 C740 1.349 . S
C739 C741 1.327 . S
C739 H762 0.950 . S
C740 C739 1.349 . S
C740 C752 1.349 . S
C741 C739 1.327 . S
C741 C757 1.429 . S
C741 H763 0.950 . S
C742 H738 0.949 . S
C742 C750 1.574 . S
C742 C758 1.368 . S
H743 C751 0.950 . S
H744 C749 0.950 . S
H745 C750 0.949 . S
H746 C752 0.950 . S
H747 C753 0.950 . S
H748 C754 0.949 . S
C749 H744 0.950 . S
C749 C751 1.327 . S
C749 C755 1.429 . S
C750 C742 1.574 . S
C750 H745 0.949 . S
C750 C756 1.368 . S
C751 C735 1.349 . S
C751 H743 0.950 . S
C751 C749 1.327 . S
C752 C740 1.349 . S
C752 H746 0.950 . S
C752 C753 1.327 . S
C753 H747 0.950 . S
C753 C752 1.327 . S
C753 C757 1.429 . S
C754 C737 1.574 . S
C754 H748 0.949 . S
C754 C758 1.368 . S
C755 C736 1.429 . S
C755 C749 1.429 . S
C755 C756 1.523 . S
C756 C737 1.368 . S
C756 C750 1.368 . S
C756 C755 1.523 . S
C757 C741 1.429 . S
C757 C753 1.429 . S
C757 C758 1.523 . S
C758 C742 1.368 . S
C758 C754 1.368 . S
C758 C757 1.523 . S
H759 C734 0.950 . S
H760 C736 0.950 . S
H761 C737 0.949 . S
H762 C739 0.950 . S
H763 C741 0.950 . S
C764 C765 1.349 . S
C764 C766 1.327 . S
C764 H789 0.950 . S
C765 C764 1.349 . S
C765 C781 1.349 . S
C766 C764 1.327 . S
C766 C785 1.429 . S
C766 H790 0.950 . S
C767 C784 1.574 . S
C767 C786 1.368 . S
C767 H791 0.949 . S
H768 C772 0.949 . S
C769 C770 1.349 1_554 S
C769 C771 1.327 . S
C769 H792 0.950 . S
C770 C769 1.349 1_556 S
C770 C782 1.349 . S
C771 C769 1.327 . S
C771 C787 1.429 1_554 S
C771 H793 0.950 . S
C772 H768 0.949 . S
C772 C780 1.574 . S
C772 C788 1.368 . S
H773 C781 0.950 . S
H774 C779 0.950 . S
H775 C780 0.949 . S
H776 C782 0.950 . S
H777 C783 0.950 . S
H778 C784 0.949 1_554 S
C779 H774 0.950 . S
C779 C781 1.327 . S
C779 C785 1.429 . S
C780 C772 1.574 . S
C780 H775 0.949 . S
C780 C786 1.368 . S
C781 C765 1.349 . S
C781 H773 0.950 . S
C781 C779 1.327 . S
C782 C770 1.349 . S
C782 H776 0.950 . S
C782 C783 1.327 . S
C783 H777 0.950 . S
C783 C782 1.327 . S
C783 C787 1.429 . S
C784 C767 1.574 . S
C784 H778 0.949 1_556 S
C784 C788 1.368 . S
C785 C766 1.429 . S
C785 C779 1.429 . S
C785 C786 1.523 . S
C786 C767 1.368 . S
C786 C780 1.368 . S
C786 C785 1.523 . S
C787 C771 1.429 1_556 S
C787 C783 1.429 . S
C787 C788 1.523 . S
C788 C772 1.368 . S
C788 C784 1.368 . S
C788 C787 1.523 . S
H789 C764 0.950 . S
H790 C766 0.950 . S
H791 C767 0.949 . S
H792 C769 0.950 . S
H793 C771 0.950 . S
C794 C795 1.349 . S
C794 C796 1.327 . S
C794 H819 0.950 . S
C795 C794 1.349 . S
C795 C811 1.349 . S
C796 C794 1.327 . S
C796 C815 1.429 . S
C796 H820 0.950 . S
C797 C814 1.574 . S
C797 C816 1.368 . S
C797 H821 0.949 . S
H798 C802 0.949 . S
C799 C800 1.349 . S
C799 C801 1.327 . S
C799 H822 0.950 . S
C800 C799 1.349 . S
C800 C812 1.349 . S
C801 C799 1.327 . S
C801 C817 1.429 . S
C801 H823 0.950 . S
C802 H798 0.949 . S
C802 C810 1.574 . S
C802 C818 1.368 . S
H803 C811 0.950 . S
H804 C809 0.950 . S
H805 C810 0.949 . S
H806 C812 0.950 . S
H807 C813 0.950 . S
H808 C814 0.949 . S
C809 H804 0.950 . S
C809 C811 1.327 . S
C809 C815 1.429 . S
C810 C802 1.574 . S
C810 H805 0.949 . S
C810 C816 1.368 . S
C811 C795 1.349 . S
C811 H803 0.950 . S
C811 C809 1.327 . S
C812 C800 1.349 . S
C812 H806 0.950 . S
C812 C813 1.327 . S
C813 H807 0.950 . S
C813 C812 1.327 . S
C813 C817 1.429 . S
C814 C797 1.574 . S
C814 H808 0.949 . S
C814 C818 1.368 . S
C815 C796 1.429 . S
C815 C809 1.429 . S
C815 C816 1.523 . S
C816 C797 1.368 . S
C816 C810 1.368 . S
C816 C815 1.523 . S
C817 C801 1.429 . S
C817 C813 1.429 . S
C817 C818 1.523 . S
C818 C802 1.368 . S
C818 C814 1.368 . S
C818 C817 1.523 . S
H819 C794 0.950 . S
H820 C796 0.950 . S
H821 C797 0.949 . S
H822 C799 0.950 . S
H823 C801 0.950 . S
C824 C825 1.349 . S
C824 C826 1.327 . S
C824 H849 0.950 . S
C825 C824 1.349 . S
C825 C841 1.349 . S
C826 C824 1.327 . S
C826 C845 1.429 . S
C826 H850 0.950 . S
C827 C844 1.574 . S
C827 C846 1.368 . S
C827 H851 0.949 . S
H828 C832 0.949 . S
C829 C830 1.349 . S
C829 C831 1.327 . S
C829 H852 0.950 . S
C830 C829 1.349 . S
C830 C842 1.349 . S
C831 C829 1.327 . S
C831 C847 1.429 . S
C831 H853 0.950 . S
C832 H828 0.949 . S
C832 C840 1.574 . S
C832 C848 1.368 . S
H833 C841 0.950 . S
H834 C839 0.950 . S
H835 C840 0.949 . S
H836 C842 0.950 . S
H837 C843 0.950 . S
H838 C844 0.949 . S
C839 H834 0.950 . S
C839 C841 1.327 . S
C839 C845 1.429 . S
C840 C832 1.574 . S
C840 H835 0.949 . S
C840 C846 1.368 . S
C841 C825 1.349 . S
C841 H833 0.950 . S
C841 C839 1.327 . S
C842 C830 1.349 . S
C842 H836 0.950 . S
C842 C843 1.327 . S
C843 H837 0.950 . S
C843 C842 1.327 . S
C843 C847 1.429 . S
C844 C827 1.574 . S
C844 H838 0.949 . S
C844 C848 1.368 . S
C845 C826 1.429 . S
C845 C839 1.429 . S
C845 C846 1.523 . S
C846 C827 1.368 . S
C846 C840 1.368 . S
C846 C845 1.523 . S
C847 C831 1.429 . S
C847 C843 1.429 . S
C847 C848 1.523 . S
C848 C832 1.368 . S
C848 C844 1.368 . S
C848 C847 1.523 . S
H849 C824 0.950 . S
H850 C826 0.950 . S
H851 C827 0.949 . S
H852 C829 0.950 . S
H853 C831 0.950 . S
C854 C855 1.349 . S
C854 C856 1.327 . S
C854 H879 0.950 . S
C855 C854 1.349 . S
C855 C871 1.349 . S
C856 C854 1.327 . S
C856 C875 1.429 . S
C856 H880 0.950 . S
C857 C874 1.574 . S
C857 C876 1.368 . S
C857 H881 0.949 . S
H858 C862 0.949 . S
C859 C860 1.349 . S
C859 C861 1.327 . S
C859 H882 0.950 . S
C860 C859 1.349 . S
C860 C872 1.349 . S
C861 C859 1.327 . S
C861 C877 1.429 . S
C861 H883 0.950 . S
C862 H858 0.949 . S
C862 C870 1.574 . S
C862 C878 1.368 . S
H863 C871 0.950 . S
H864 C869 0.950 . S
H865 C870 0.949 . S
H866 C872 0.950 . S
H867 C873 0.950 . S
H868 C874 0.949 . S
C869 H864 0.950 . S
C869 C871 1.327 . S
C869 C875 1.429 . S
C870 C862 1.574 . S
C870 H865 0.949 . S
C870 C876 1.368 . S
C871 C855 1.349 . S
C871 H863 0.950 . S
C871 C869 1.327 . S
C872 C860 1.349 . S
C872 H866 0.950 . S
C872 C873 1.327 . S
C873 H867 0.950 . S
C873 C872 1.327 . S
C873 C877 1.429 . S
C874 C857 1.574 . S
C874 H868 0.949 . S
C874 C878 1.368 . S
C875 C856 1.429 . S
C875 C869 1.429 . S
C875 C876 1.523 . S
C876 C857 1.368 . S
C876 C870 1.368 . S
C876 C875 1.523 . S
C877 C861 1.429 . S
C877 C873 1.429 . S
C877 C878 1.523 . S
C878 C862 1.368 . S
C878 C874 1.368 . S
C878 C877 1.523 . S
H879 C854 0.950 . S
H880 C856 0.950 . S
H881 C857 0.949 . S
H882 C859 0.950 . S
H883 C861 0.950 . S
C165 C5 1.589 . S
C170 C90 1.568 . S
C195 C14 1.570 . S
C200 C114 1.544 . S
C230 C134 1.371 . S
C225 C25 1.365 . S
C255 C34 1.372 . S
C260 C157 1.381 . S
C290 C116 1.647 . S
C285 C7 1.682 . S
C320 C92 1.648 . S
C315 C13 1.692 . S
C350 C160 1.523 . S
C345 C23 1.556 . S
C380 C137 1.505 . S
C375 C31 1.534 . S
C405 C4 1.379 . S
C410 C162 1.349 . S
C440 C111 1.598 . S
C435 C22 1.592 . S
C465 C32 1.589 . S
C470 C89 1.598 . S
C495 C16 1.354 . S
C500 C139 1.324 . S
C530 C93 1.553 . S
C525 C41 1.558 . S
C555 C50 1.541 . S
C560 C115 1.524 . S
C585 C61 1.680 . S
C590 C135 1.699 . S
C615 C67 1.693 . S
C620 C158 1.712 . S
C645 C40 1.475 . S
C650 C113 1.457 . S
C680 C91 1.449 . S
C675 C52 1.452 . S
C710 C161 1.414 . S
C705 C59 1.446 . S
C740 C138 1.433 . S
C735 C70 1.466 . S
C765 C43 1.797 . S
C770 C159 1.774 . S
C800 C112 1.484 . S
C795 C58 1.467 . S
C830 C88 1.478 . S
C825 C68 1.460 . S
C855 C49 1.782 . S
C860 C136 1.755 . S
