# Generated by pormake.
# Topology dag, (6,3)-cn, num edge types: 1
# Building blocks:
#     Node 0, Type 0, BuildingBlock: IZENUY_clean_sbu_0, # of connection points: 6
#     Node 1, Type 0, BuildingBlock: IZENUY_clean_sbu_0, # of connection points: 6
#     Node 2, Type 0, BuildingBlock: IZENUY_clean_sbu_0, # of connection points: 6
#     Node 3, Type 0, BuildingBlock: IZENUY_clean_sbu_0, # of connection points: 6
#     Node 4, Type 1, BuildingBlock: ESEHIV_clean_linker_0, # of connection points: 3
#     Node 5, Type 1, BuildingBlock: ESEHIV_clean_linker_0, # of connection points: 3
#     Node 6, Type 1, BuildingBlock: ESEHIV_clean_linker_0, # of connection points: 3
#     Node 7, Type 1, BuildingBlock: ESEHIV_clean_linker_0, # of connection points: 3
#     Node 8, Type 1, BuildingBlock: ESEHIV_clean_linker_0, # of connection points: 3
#     Node 9, Type 1, BuildingBlock: ESEHIV_clean_linker_0, # of connection points: 3
#     Node 10, Type 1, BuildingBlock: ESEHIV_clean_linker_0, # of connection points: 3
#     Node 11, Type 1, BuildingBlock: ESEHIV_clean_linker_0, # of connection points: 3
#     Edge 12, Type (0, 1), BuildingBlock: AJUNOK_clean_linker_0, # of connection points: 2
#     Edge 13, Type (0, 1), BuildingBlock: AJUNOK_clean_linker_0, # of connection points: 2
#     Edge 14, Type (0, 1), BuildingBlock: AJUNOK_clean_linker_0, # of connection points: 2
#     Edge 15, Type (0, 1), BuildingBlock: AJUNOK_clean_linker_0, # of connection points: 2
#     Edge 16, Type (0, 1), BuildingBlock: AJUNOK_clean_linker_0, # of connection points: 2
#     Edge 17, Type (0, 1), BuildingBlock: AJUNOK_clean_linker_0, # of connection points: 2
#     Edge 18, Type (0, 1), BuildingBlock: AJUNOK_clean_linker_0, # of connection points: 2
#     Edge 19, Type (0, 1), BuildingBlock: AJUNOK_clean_linker_0, # of connection points: 2
#     Edge 20, Type (0, 1), BuildingBlock: AJUNOK_clean_linker_0, # of connection points: 2
#     Edge 21, Type (0, 1), BuildingBlock: AJUNOK_clean_linker_0, # of connection points: 2
#     Edge 22, Type (0, 1), BuildingBlock: AJUNOK_clean_linker_0, # of connection points: 2
#     Edge 23, Type (0, 1), BuildingBlock: AJUNOK_clean_linker_0, # of connection points: 2
#     Edge 24, Type (0, 1), BuildingBlock: AJUNOK_clean_linker_0, # of connection points: 2
#     Edge 25, Type (0, 1), BuildingBlock: AJUNOK_clean_linker_0, # of connection points: 2
#     Edge 26, Type (0, 1), BuildingBlock: AJUNOK_clean_linker_0, # of connection points: 2
#     Edge 27, Type (0, 1), BuildingBlock: AJUNOK_clean_linker_0, # of connection points: 2
#     Edge 28, Type (0, 1), BuildingBlock: AJUNOK_clean_linker_0, # of connection points: 2
#     Edge 29, Type (0, 1), BuildingBlock: AJUNOK_clean_linker_0, # of connection points: 2
#     Edge 30, Type (0, 1), BuildingBlock: AJUNOK_clean_linker_0, # of connection points: 2
#     Edge 31, Type (0, 1), BuildingBlock: AJUNOK_clean_linker_0, # of connection points: 2
#     Edge 32, Type (0, 1), BuildingBlock: AJUNOK_clean_linker_0, # of connection points: 2
#     Edge 33, Type (0, 1), BuildingBlock: AJUNOK_clean_linker_0, # of connection points: 2
#     Edge 34, Type (0, 1), BuildingBlock: AJUNOK_clean_linker_0, # of connection points: 2
#     Edge 35, Type (0, 1), BuildingBlock: AJUNOK_clean_linker_0, # of connection points: 2
# Relax obj value: 0.254
# Max RMSD: 0.192
# Mean RMSD: 0.159
data_MOF--net-dag--node1-IZENUY_clean_sbu_0--node2-ESEHIV_clean_linker_0--edge1-AJUNOK_clean_linker_0
_symmetry_space_group_name_H-M    P1
_symmetry_Int_Tables_number       1
_symmetry_cell_setting            triclinic
loop_
_symmetry_equiv_pos_as_xyz
'x, y, z'
_cell_length_a     26.151794
_cell_length_b     27.290286
_cell_length_c     23.067296
_cell_angle_alpha  94.699772
_cell_angle_beta   90.097311
_cell_angle_gamma 90.021693
loop_
_atom_site_label
_atom_site_type_symbol
_atom_site_fract_x
_atom_site_fract_y
_atom_site_fract_z
_atom_type_partial_charge
Fe0 Fe 0.23736 0.86857 0.09384 0.0
Fe1 Fe 0.13516 0.89893 0.04519 0.0
O2 O 0.17611 0.85212 0.06559 0.0
Fe3 Fe 0.15606 0.78976 0.05801 0.0
O4 O 0.16595 0.78286 0.13459 0.0
O5 O 0.24162 0.81782 0.14074 0.0
O6 O 0.20931 0.9048 0.15531 0.0
C7 C 0.17937 0.94006 0.14884 0.0
C8 C 0.25937 0.78805 0.02028 0.0
O9 O 0.15907 0.94558 0.10007 0.0
C10 C 0.1164 0.82224 0.9583 0.0
O11 O 0.24487 0.92301 0.05188 0.0
O12 O 0.18038 0.91635 0.99123 0.0
O13 O 0.22045 0.76624 0.03882 0.0
O14 O 0.26782 0.83299 0.03428 0.0
C15 C 0.0685 0.84211 0.10186 0.0
O16 O 0.10318 0.86135 0.98721 0.0
O17 O 0.14414 0.79096 0.98036 0.0
C18 C 0.2242 0.93295 0.00448 0.0
O19 O 0.08813 0.88388 0.09785 0.0
O20 O 0.08853 0.80374 0.07636 0.0
C21 C 0.20705 0.79219 0.16168 0.0
Fe22 Fe 0.73431 0.6287 0.48993 0.0
Fe23 Fe 0.65555 0.71035 0.52663 0.0
O24 O 0.67334 0.6475 0.51739 0.0
Fe25 Fe 0.62956 0.60216 0.53575 0.0
O26 O 0.67197 0.5842 0.59222 0.0
O27 O 0.73878 0.57545 0.53454 0.0
O28 O 0.76683 0.66403 0.54852 0.0
C29 C 0.75878 0.70849 0.56522 0.0
C30 C 0.67548 0.55687 0.43569 0.0
O31 O 0.71947 0.73135 0.5498 0.0
C32 C 0.56806 0.6614 0.47655 0.0
O33 O 0.74088 0.67861 0.44187 0.0
O34 O 0.66847 0.71952 0.4513 0.0
O35 O 0.65381 0.55377 0.48395 0.0
O36 O 0.70567 0.59184 0.42849 0.0
C37 C 0.60926 0.6782 0.62225 0.0
O38 O 0.58842 0.69864 0.50437 0.0
O39 O 0.58591 0.61874 0.48006 0.0
C40 C 0.70936 0.7093 0.42428 0.0
O41 O 0.641 0.7077 0.60367 0.0
O42 O 0.59547 0.6407 0.59089 0.0
C43 C 0.71631 0.56745 0.58173 0.0
Fe44 Fe 0.84568 0.20773 0.03693 0.0
Fe45 Fe 0.87077 0.09867 0.03644 0.0
O46 O 0.82798 0.14541 0.02033 0.0
Fe47 Fe 0.76829 0.12928 0.98748 0.0
O48 O 0.78243 0.16373 0.92598 0.0
O49 O 0.81113 0.23069 0.97484 0.0
O50 O 0.90233 0.20137 0.99032 0.0
C51 C 0.93644 0.16938 0.99613 0.0
C52 C 0.74509 0.20844 0.07 0.0
O53 O 0.92857 0.13476 0.02798 0.0
C54 C 0.77543 0.05779 0.06242 0.0
O55 O 0.88273 0.19546 0.10264 0.0
O56 O 0.86731 0.11755 0.11329 0.0
O57 O 0.73366 0.18108 0.02489 0.0
O58 O 0.79085 0.21804 0.08404 0.0
C59 C 0.83884 0.06438 0.92835 0.0
O60 O 0.82167 0.05294 0.04775 0.0
O61 O 0.74929 0.09318 0.04702 0.0
C62 C 0.88072 0.15968 0.13465 0.0
O63 O 0.8761 0.07821 0.96033 0.0
O64 O 0.79328 0.07476 0.94383 0.0
C65 C 0.79387 0.20866 0.92829 0.0
Fe66 Fe 0.37148 0.39264 0.54692 0.0
Fe67 Fe 0.26544 0.36724 0.59072 0.0
O68 O 0.32644 0.34791 0.56366 0.0
Fe69 Fe 0.34242 0.28459 0.55353 0.0
O70 O 0.41025 0.2936 0.57321 0.0
O71 O 0.41628 0.37276 0.60034 0.0
O72 O 0.34934 0.43934 0.6022 0.0
C73 C 0.32614 0.43529 0.64947 0.0
C74 C 0.3868 0.318 0.45693 0.0
O75 O 0.29398 0.40137 0.65417 0.0
C76 C 0.24005 0.28978 0.5136 0.0
O77 O 0.3291 0.41457 0.49244 0.0
O78 O 0.2625 0.42257 0.55006 0.0
O79 O 0.35621 0.28768 0.47638 0.0
O80 O 0.40236 0.35489 0.48846 0.0
C81 C 0.28844 0.2863 0.65532 0.0
O82 O 0.2334 0.33458 0.52967 0.0
O83 O 0.27744 0.26549 0.53147 0.0
C84 C 0.28502 0.43162 0.50353 0.0
O85 O 0.25674 0.31546 0.63521 0.0
O86 O 0.33014 0.27614 0.62971 0.0
C87 C 0.43298 0.32941 0.6007 0.0
H88 H 0.03219 0.07381 0.26244 0.0
H89 H 0.16525 0.11426 0.36262 0.0
H90 H 0.03701 0.21362 0.36337 0.0
C91 C 0.05049 0.09871 0.29528 0.0
C92 C 0.02684 0.14344 0.3139 0.0
C93 C 0.10031 0.08859 0.31236 0.0
C94 C 0.12611 0.12205 0.35072 0.0
C95 C 0.10371 0.16737 0.36922 0.0
C96 C 0.05371 0.17792 0.35118 0.0
H97 H 0.45919 0.59335 0.73861 0.0
H98 H 0.33746 0.61323 0.86206 0.0
H99 H 0.45703 0.72225 0.85832 0.0
C100 C 0.44274 0.61374 0.77645 0.0
C101 C 0.46405 0.659 0.79693 0.0
C102 C 0.3976 0.59688 0.80048 0.0
C103 C 0.37414 0.62499 0.84626 0.0
C104 C 0.39514 0.67046 0.86758 0.0
C105 C 0.44093 0.68686 0.84337 0.0
H106 H 0.85144 0.90258 0.12992 0.0
H107 H 0.85902 0.78862 0.24664 0.0
H108 H 0.71636 0.86473 0.22189 0.0
C109 C 0.83245 0.87977 0.15975 0.0
C110 C 0.78065 0.88742 0.17265 0.0
C111 C 0.86057 0.84413 0.18594 0.0
C112 C 0.83656 0.81532 0.22534 0.0
C113 C 0.78447 0.82264 0.23942 0.0
C114 C 0.75653 0.85881 0.21237 0.0
H115 H 0.64799 0.39472 0.62886 0.0
H116 H 0.64564 0.27497 0.73844 0.0
H117 H 0.77451 0.37426 0.7433 0.0
C118 C 0.66691 0.37303 0.65998 0.0
C119 C 0.71443 0.38828 0.68283 0.0
C120 C 0.64174 0.33254 0.68003 0.0
C121 C 0.6654 0.30595 0.72213 0.0
C122 C 0.71405 0.31999 0.74413 0.0
C123 C 0.73801 0.36196 0.7251 0.0
H124 H 0.53831 0.40155 0.34239 0.0
H125 H 0.66382 0.37786 0.22449 0.0
H126 H 0.5415 0.27164 0.22334 0.0
C127 C 0.55575 0.38013 0.30592 0.0
C128 C 0.53313 0.33579 0.2839 0.0
C129 C 0.60269 0.39531 0.28463 0.0
C130 C 0.62648 0.36698 0.23934 0.0
C131 C 0.60437 0.32253 0.21658 0.0
C132 C 0.55789 0.30662 0.23948 0.0
H133 H 0.16027 0.11131 0.97431 0.0
H134 H 0.14564 0.22468 0.85721 0.0
H135 H 0.27884 0.13075 0.85047 0.0
C136 C 0.17648 0.1324 0.94089 0.0
C137 C 0.22353 0.1181 0.91637 0.0
C138 C 0.14685 0.16868 0.91741 0.0
C139 C 0.16822 0.19597 0.8746 0.0
C140 C 0.21707 0.18393 0.85141 0.0
C141 C 0.24378 0.14371 0.87148 0.0
H142 H 0.35557 0.59677 0.44478 0.0
H143 H 0.35347 0.72183 0.34433 0.0
H144 H 0.21772 0.63256 0.35642 0.0
C145 C 0.33451 0.6214 0.41878 0.0
C146 C 0.28373 0.61081 0.40377 0.0
C147 C 0.35958 0.66132 0.39757 0.0
C148 C 0.33296 0.69229 0.36274 0.0
C149 C 0.28124 0.68286 0.3482 0.0
C150 C 0.25681 0.64157 0.36881 0.0
H151 H 0.97299 0.90619 0.83339 0.0
H152 H 0.95531 0.7679 0.73228 0.0
H153 H 0.84532 0.8843 0.71786 0.0
C154 C 0.95296 0.88359 0.79972 0.0
C155 C 0.90689 0.9004 0.77775 0.0
C156 C 0.97122 0.83626 0.78271 0.0
C157 C 0.94279 0.80539 0.74294 0.0
C158 C 0.89714 0.82258 0.71908 0.0
C159 C 0.88037 0.8706 0.7358 0.0
C160 C 0.14815 0.96503 0.24862 0.0
C161 C 0.17009 0.97785 0.19633 0.0
C162 C 0.12742 0.00134 0.28845 0.0
C163 C 0.12941 0.05109 0.27718 0.0
H164 H 0.14377 0.9267 0.25675 0.0
H165 H 0.10788 0.99043 0.32671 0.0
S166 S 0.18654 0.10332 0.14898 0.0
N167 N 0.19497 0.04338 0.13704 0.0
N168 N 0.15755 0.1116 0.21258 0.0
C169 C 0.154 0.06434 0.22684 0.0
C170 C 0.17408 0.02762 0.18613 0.0
C171 C 0.52587 0.70199 0.66415 0.0
C172 C 0.57777 0.692 0.67356 0.0
C173 C 0.48951 0.69621 0.70742 0.0
C174 C 0.50395 0.6801 0.76136 0.0
H175 H 0.51269 0.70983 0.62128 0.0
H176 H 0.4494 0.7002 0.69689 0.0
S177 S 0.63583 0.65761 0.81089 0.0
N178 N 0.64271 0.67176 0.74299 0.0
N179 N 0.57387 0.66073 0.82483 0.0
C180 C 0.55612 0.67473 0.77337 0.0
C181 C 0.5933 0.68076 0.72919 0.0
C182 C 0.75173 0.97049 0.05719 0.0
C183 C 0.75177 0.0165 0.0893 0.0
C184 C 0.75305 0.92694 0.08519 0.0
C185 C 0.75477 0.92821 0.14618 0.0
H186 H 0.75661 0.96824 0.01044 0.0
H187 H 0.75886 0.89252 0.05913 0.0
S188 S 0.74454 0.03902 0.24939 0.0
N189 N 0.74491 0.06071 0.18454 0.0
N190 N 0.74765 0.97853 0.23761 0.0
C191 C 0.74798 0.9736 0.17854 0.0
C192 C 0.74652 0.01803 0.14989 0.0
C193 C 0.49717 0.32993 0.68087 0.0
C194 C 0.48545 0.3226 0.62137 0.0
C195 C 0.54811 0.32918 0.7002 0.0
C196 C 0.58868 0.32214 0.66038 0.0
H197 H 0.46693 0.3376 0.71238 0.0
H198 H 0.55599 0.33695 0.74616 0.0
S199 S 0.57745 0.30082 0.50011 0.0
N200 N 0.51779 0.30666 0.52306 0.0
N201 N 0.61356 0.30653 0.55913 0.0
C202 C 0.57712 0.31346 0.60094 0.0
C203 C 0.5254 0.3134 0.58147 0.0
C204 C 0.65015 0.52298 0.33578 0.0
C205 C 0.66897 0.51537 0.39149 0.0
C206 C 0.63093 0.48339 0.29916 0.0
C207 C 0.63051 0.43549 0.31748 0.0
H208 H 0.64693 0.55994 0.32221 0.0
H209 H 0.61395 0.49057 0.25784 0.0
S210 S 0.68043 0.39599 0.45652 0.0
N211 N 0.68964 0.45604 0.46096 0.0
N212 N 0.65411 0.38203 0.39214 0.0
C213 C 0.65218 0.42722 0.37136 0.0
C214 C 0.67134 0.46714 0.40842 0.0
C215 C 0.01518 0.21572 0.9681 0.0
C216 C 0.98731 0.17157 0.96849 0.0
C217 C 0.06668 0.2154 0.94976 0.0
C218 C 0.09127 0.171 0.93085 0.0
H219 H 0.998 0.25015 0.98468 0.0
H220 H 0.08785 0.24962 0.95247 0.0
S221 S 0.03207 0.04694 0.91469 0.0
N222 N 0.98685 0.0833 0.94351 0.0
N223 N 0.08146 0.08315 0.90592 0.0
C224 C 0.06233 0.12743 0.92707 0.0
C225 C 0.01094 0.1276 0.9468 0.0
C226 C 0.24516 0.51442 0.50045 0.0
C227 C 0.26726 0.47259 0.47063 0.0
C228 C 0.24412 0.55954 0.47538 0.0
C229 C 0.26337 0.5634 0.41918 0.0
H230 H 0.23337 0.51362 0.54532 0.0
H231 H 0.23278 0.5923 0.50197 0.0
S232 S 0.31266 0.46215 0.31809 0.0
N233 N 0.29964 0.43595 0.37842 0.0
N234 N 0.29664 0.52056 0.33098 0.0
C235 C 0.27882 0.52052 0.3863 0.0
C236 C 0.2809 0.47498 0.4121 0.0
C237 C 0.09773 0.84428 0.85912 0.0
C238 C 0.09114 0.81112 0.90193 0.0
C239 C 0.0613 0.84787 0.81517 0.0
C240 C 0.01676 0.81887 0.81321 0.0
H241 H 0.12879 0.87065 0.86273 0.0
H242 H 0.06552 0.87678 0.786 0.0
S243 S 0.98485 0.72266 0.91165 0.0
N244 N 0.04005 0.74528 0.93641 0.0
N245 N 0.97083 0.75242 0.85411 0.0
C246 C 0.01231 0.78224 0.85234 0.0
C247 C 0.04975 0.77835 0.89688 0.0
C248 C 0.89607 0.02919 0.84984 0.0
C249 C 0.84919 0.02755 0.87942 0.0
C250 C 0.91317 0.98902 0.81349 0.0
C251 C 0.88364 0.94604 0.80499 0.0
H252 H 0.92075 0.06095 0.85689 0.0
H253 H 0.95078 0.99069 0.79411 0.0
S254 S 0.75519 0.92555 0.86683 0.0
N255 N 0.77113 0.98158 0.89311 0.0
N256 N 0.8033 0.90571 0.82502 0.0
C257 C 0.83479 0.94547 0.83048 0.0
C258 C 0.81742 0.98646 0.86754 0.0
C259 C 0.40773 0.34703 0.36184 0.0
C260 C 0.41079 0.30923 0.39947 0.0
C261 C 0.44461 0.35193 0.3189 0.0
C262 C 0.48624 0.31942 0.31261 0.0
H263 H 0.37951 0.37577 0.36938 0.0
H264 H 0.44324 0.38405 0.29424 0.0
S265 S 0.50756 0.2101 0.39485 0.0
N266 N 0.45479 0.23521 0.4232 0.0
N267 N 0.52505 0.24464 0.34271 0.0
C268 C 0.48685 0.27846 0.34587 0.0
C269 C 0.44883 0.27333 0.38945 0.0
C270 C 0.26137 0.01728 0.00835 0.0
C271 C 0.2419 0.97591 0.97493 0.0
C272 C 0.26143 0.06378 0.9865 0.0
C273 C 0.24365 0.06988 0.93004 0.0
H274 H 0.27155 0.01485 0.05355 0.0
H275 H 0.27103 0.09567 0.01558 0.0
S276 S 0.19872 0.97167 0.82154 0.0
N277 N 0.21166 0.94284 0.88005 0.0
N278 N 0.21304 0.03004 0.83861 0.0
C279 C 0.23016 0.02791 0.89401 0.0
C280 C 0.22908 0.98084 0.91654 0.0
C281 C 0.48472 0.7051 0.46557 0.0
C282 C 0.5179 0.66604 0.44781 0.0
C283 C 0.43385 0.70537 0.44602 0.0
C284 C 0.41495 0.66674 0.40805 0.0
H285 H 0.49714 0.73417 0.49726 0.0
H286 H 0.40846 0.73437 0.46319 0.0
S287 S 0.48789 0.56022 0.34156 0.0
N288 N 0.52951 0.59098 0.38442 0.0
N289 N 0.43394 0.59157 0.3484 0.0
C290 C 0.44854 0.62949 0.3868 0.0
C291 C 0.50008 0.62913 0.40648 0.0
C292 C 0.35355 0.46815 0.74896 0.0
C293 C 0.33175 0.47605 0.69473 0.0
C294 C 0.37252 0.5079 0.78555 0.0
C295 C 0.36974 0.55618 0.76862 0.0
H296 H 0.35929 0.43105 0.76115 0.0
H297 H 0.39186 0.50066 0.82552 0.0
S298 S 0.31175 0.59613 0.63382 0.0
N299 N 0.30523 0.53575 0.62823 0.0
N300 N 0.3401 0.61005 0.69705 0.0
C301 C 0.34505 0.56455 0.71645 0.0
C302 C 0.32619 0.52449 0.67942 0.0
C303 C 0.98532 0.79901 0.11785 0.0
C304 C 0.01799 0.83957 0.1307 0.0
C305 C 0.93491 0.79918 0.13889 0.0
C306 C 0.91578 0.8398 0.17346 0.0
H307 H 0.99789 0.76792 0.08921 0.0
H308 H 0.91002 0.76851 0.12571 0.0
S309 S 0.98711 0.95204 0.22629 0.0
N310 N 0.02862 0.91915 0.18574 0.0
N311 N 0.93389 0.91934 0.22408 0.0
C312 C 0.9487 0.87918 0.18939 0.0
C313 C 0.99985 0.87907 0.16836 0.0
C314 C 0.75462 0.48422 0.58566 0.0
C315 C 0.73333 0.52657 0.61521 0.0
C316 C 0.75423 0.43913 0.61077 0.0
C317 C 0.73433 0.43569 0.66678 0.0
H318 H 0.76666 0.48463 0.54081 0.0
H319 H 0.76526 0.40615 0.58441 0.0
S320 S 0.68507 0.53758 0.76665 0.0
N321 N 0.69949 0.56364 0.70661 0.0
N322 N 0.70047 0.47901 0.75424 0.0
C323 C 0.71924 0.4788 0.69933 0.0
C324 C 0.71846 0.52438 0.67345 0.0
C325 C 0.94389 0.20049 0.20471 0.0
C326 C 0.9072 0.16333 0.19184 0.0
C327 C 0.97948 0.19701 0.24978 0.0
C328 C 0.97927 0.15647 0.28368 0.0
H329 H 0.94818 0.23024 0.17676 0.0
H330 H 0.01021 0.22369 0.25431 0.0
S331 S 0.88383 0.05579 0.27696 0.0
N332 N 0.86732 0.08949 0.22367 0.0
N333 N 0.93404 0.0834 0.30845 0.0
C334 C 0.93901 0.12247 0.27594 0.0
C335 C 0.90301 0.12577 0.22996 0.0
C336 C 0.21014 0.71567 0.21326 0.0
C337 C 0.21889 0.76644 0.21355 0.0
C338 C 0.22839 0.68914 0.25848 0.0
C339 C 0.25526 0.7127 0.3059 0.0
H340 H 0.19163 0.69588 0.17634 0.0
H341 H 0.22365 0.64957 0.25466 0.0
S342 S 0.27954 0.84677 0.33134 0.0
N343 N 0.25097 0.84029 0.26727 0.0
N344 N 0.28332 0.79094 0.35381 0.0
C345 C 0.2608 0.76414 0.30848 0.0
C346 C 0.24311 0.7909 0.26189 0.0
C347 C 0.77711 0.76422 0.65261 0.0
C348 C 0.79556 0.73483 0.60451 0.0
C349 C 0.81058 0.79075 0.69044 0.0
C350 C 0.86378 0.79002 0.68073 0.0
H351 H 0.73642 0.76646 0.66131 0.0
H352 H 0.79448 0.81245 0.7274 0.0
S353 S 0.93095 0.71853 0.5601 0.0
N354 N 0.8699 0.70498 0.5494 0.0
N355 N 0.93322 0.75706 0.61916 0.0
C356 C 0.8828 0.76006 0.63307 0.0
C357 C 0.84855 0.73204 0.59516 0.0
C358 C 0.68479 0.21648 0.15306 0.0
C359 C 0.70446 0.23494 0.10266 0.0
C360 C 0.64955 0.24387 0.18808 0.0
C361 C 0.63361 0.29064 0.17382 0.0
H362 H 0.69787 0.1814 0.1663 0.0
H363 H 0.63669 0.22953 0.22799 0.0
S364 S 0.67169 0.35304 0.04374 0.0
N365 N 0.70371 0.30069 0.038 0.0
N366 N 0.63782 0.3527 0.10413 0.0
C367 C 0.65171 0.30845 0.12222 0.0
C368 C 0.68717 0.28041 0.08648 0.0
C369 C 0.2211 0.24502 0.70939 0.0
C370 C 0.27255 0.25906 0.70493 0.0
C371 C 0.20387 0.22041 0.75644 0.0
C372 C 0.23716 0.20967 0.8017 0.0
H373 H 0.19388 0.25265 0.67581 0.0
H374 H 0.1641 0.20938 0.75694 0.0
S375 S 0.37542 0.24062 0.81152 0.0
N376 N 0.35681 0.26091 0.74934 0.0
N377 N 0.32414 0.21626 0.83951 0.0
C378 C 0.28888 0.22363 0.79778 0.0
C379 C 0.30663 0.24797 0.74904 0.0
C380 C 0.75326 0.71568 0.32915 0.0
C381 C 0.72367 0.73774 0.3749 0.0
C382 C 0.77098 0.74299 0.28438 0.0
C383 C 0.7606 0.79364 0.28416 0.0
H384 H 0.76315 0.67707 0.3282 0.0
H385 H 0.79372 0.72438 0.25008 0.0
S386 S 0.68621 0.86913 0.39561 0.0
N387 N 0.68456 0.81307 0.41751 0.0
N388 N 0.71959 0.86486 0.33475 0.0
C389 C 0.73051 0.81601 0.32946 0.0
C390 C 0.7117 0.78796 0.37451 0.0
C391 C 0.77369 0.28858 0.88665 0.0
C392 C 0.77916 0.2371 0.87865 0.0
C393 C 0.75389 0.31543 0.84236 0.0
C394 C 0.73872 0.29176 0.78865 0.0
H395 H 0.78302 0.30818 0.92805 0.0
H396 H 0.7488 0.35476 0.8509 0.0
S397 S 0.7512 0.15903 0.74258 0.0
N398 N 0.77222 0.16436 0.81033 0.0
N399 N 0.73469 0.21504 0.72774 0.0
C400 C 0.74606 0.24083 0.77907 0.0
C401 C 0.76642 0.21347 0.82386 0.0
C402 C 0.15286 0.25574 0.49224 0.0
C403 C 0.20312 0.26428 0.47407 0.0
C404 C 0.11942 0.22616 0.45677 0.0
C405 C 0.13549 0.20482 0.40227 0.0
H406 H 0.14019 0.27017 0.53497 0.0
H407 H 0.08178 0.21813 0.4731 0.0
S408 S 0.26087 0.22325 0.33202 0.0
N409 N 0.26572 0.25368 0.39667 0.0
N410 N 0.20269 0.19962 0.32908 0.0
C411 C 0.18459 0.21617 0.38236 0.0
C412 C 0.21857 0.24547 0.41864 0.0
C413 C 0.30785 0.7109 0.99354 0.0
C414 C 0.29689 0.7599 0.9837 0.0
C415 C 0.34175 0.68296 0.95743 0.0
C416 C 0.36519 0.70282 0.90967 0.0
H417 H 0.28997 0.69399 0.02927 0.0
H418 H 0.34888 0.64518 0.96624 0.0
S419 S 0.34661 0.829 0.86398 0.0
N420 N 0.31143 0.82727 0.92311 0.0
N421 N 0.37347 0.77426 0.8536 0.0
C422 C 0.35466 0.75203 0.8997 0.0
C423 C 0.32084 0.78067 0.9371 0.0
loop_
_geom_bond_atom_site_label_1
_geom_bond_atom_site_label_2
_geom_bond_distance
_geom_bond_site_symmetry_2
_ccdc_geom_bond_type
Fe0 O2 1.918 . S
Fe0 O5 1.997 . S
Fe0 O6 2.002 . S
Fe0 O11 1.976 . S
Fe0 O14 1.996 . S
Fe1 O2 1.918 . S
Fe1 O9 1.997 . S
Fe1 O12 1.996 . S
Fe1 O16 1.976 1_554 S
Fe1 O19 2.002 . S
O2 Fe0 1.918 . S
O2 Fe1 1.918 . S
O2 Fe3 1.918 . S
Fe3 O2 1.918 . S
Fe3 O4 2.002 . S
Fe3 O13 1.976 . S
Fe3 O17 1.996 1_554 S
Fe3 O20 1.997 . S
O4 Fe3 2.002 . S
O4 C21 1.295 . S
O5 Fe0 1.997 . S
O5 C21 1.235 . S
O6 Fe0 2.002 . S
O6 C7 1.295 . S
C7 O6 1.295 . S
C7 O9 1.235 . S
C8 O13 1.287 . S
C8 O14 1.255 . S
O9 Fe1 1.997 . S
O9 C7 1.235 . S
C10 O16 1.287 . S
C10 O17 1.255 . S
O11 Fe0 1.976 . S
O11 C18 1.287 . S
O12 Fe1 1.996 . S
O12 C18 1.255 . S
O13 Fe3 1.976 . S
O13 C8 1.287 . S
O14 Fe0 1.996 . S
O14 C8 1.255 . S
C15 O19 1.295 . S
C15 O20 1.235 . S
O16 Fe1 1.976 1_556 S
O16 C10 1.287 . S
O17 Fe3 1.996 1_556 S
O17 C10 1.255 . S
C18 O11 1.287 . S
C18 O12 1.255 . S
O19 Fe1 2.002 . S
O19 C15 1.295 . S
O20 Fe3 1.997 . S
O20 C15 1.235 . S
C21 O4 1.295 . S
C21 O5 1.235 . S
Fe22 O24 1.918 . S
Fe22 O27 1.997 . S
Fe22 O28 2.002 . S
Fe22 O33 1.976 . S
Fe22 O36 1.996 . S
Fe23 O24 1.918 . S
Fe23 O31 1.997 . S
Fe23 O34 1.996 . S
Fe23 O38 1.976 . S
Fe23 O41 2.002 . S
O24 Fe22 1.918 . S
O24 Fe23 1.918 . S
O24 Fe25 1.918 . S
Fe25 O24 1.918 . S
Fe25 O26 2.002 . S
Fe25 O35 1.976 . S
Fe25 O39 1.996 . S
Fe25 O42 1.997 . S
O26 Fe25 2.002 . S
O26 C43 1.295 . S
O27 Fe22 1.997 . S
O27 C43 1.235 . S
O28 Fe22 2.002 . S
O28 C29 1.295 . S
C29 O28 1.295 . S
C29 O31 1.235 . S
C30 O35 1.287 . S
C30 O36 1.255 . S
O31 Fe23 1.997 . S
O31 C29 1.235 . S
C32 O38 1.287 . S
C32 O39 1.255 . S
O33 Fe22 1.976 . S
O33 C40 1.287 . S
O34 Fe23 1.996 . S
O34 C40 1.255 . S
O35 Fe25 1.976 . S
O35 C30 1.287 . S
O36 Fe22 1.996 . S
O36 C30 1.255 . S
C37 O41 1.295 . S
C37 O42 1.235 . S
O38 Fe23 1.976 . S
O38 C32 1.287 . S
O39 Fe25 1.996 . S
O39 C32 1.255 . S
C40 O33 1.287 . S
C40 O34 1.255 . S
O41 Fe23 2.002 . S
O41 C37 1.295 . S
O42 Fe25 1.997 . S
O42 C37 1.235 . S
C43 O26 1.295 . S
C43 O27 1.235 . S
Fe44 O46 1.918 . S
Fe44 O49 1.997 1_554 S
Fe44 O50 2.002 1_554 S
Fe44 O55 1.976 . S
Fe44 O58 1.996 . S
Fe45 O46 1.918 . S
Fe45 O53 1.997 1_554 S
Fe45 O56 1.996 . S
Fe45 O60 1.976 . S
Fe45 O63 2.002 1_554 S
O46 Fe44 1.918 . S
O46 Fe45 1.918 . S
O46 Fe47 1.918 1_554 S
Fe47 O46 1.918 1_556 S
Fe47 O48 2.002 . S
Fe47 O57 1.976 1_556 S
Fe47 O61 1.996 1_556 S
Fe47 O64 1.997 . S
O48 Fe47 2.002 . S
O48 C65 1.295 . S
O49 Fe44 1.997 1_556 S
O49 C65 1.235 . S
O50 Fe44 2.002 1_556 S
O50 C51 1.295 . S
C51 O50 1.295 . S
C51 O53 1.235 . S
C52 O57 1.287 . S
C52 O58 1.255 . S
O53 Fe45 1.997 1_556 S
O53 C51 1.235 . S
C54 O60 1.287 . S
C54 O61 1.255 . S
O55 Fe44 1.976 . S
O55 C62 1.287 . S
O56 Fe45 1.996 . S
O56 C62 1.255 . S
O57 Fe47 1.976 1_554 S
O57 C52 1.287 . S
O58 Fe44 1.996 . S
O58 C52 1.255 . S
C59 O63 1.295 . S
C59 O64 1.235 . S
O60 Fe45 1.976 . S
O60 C54 1.287 . S
O61 Fe47 1.996 1_554 S
O61 C54 1.255 . S
C62 O55 1.287 . S
C62 O56 1.255 . S
O63 Fe45 2.002 1_556 S
O63 C59 1.295 . S
O64 Fe47 1.997 . S
O64 C59 1.235 . S
C65 O48 1.295 . S
C65 O49 1.235 . S
Fe66 O68 1.918 . S
Fe66 O71 1.997 . S
Fe66 O72 2.002 . S
Fe66 O77 1.976 . S
Fe66 O80 1.996 . S
Fe67 O68 1.918 . S
Fe67 O75 1.997 . S
Fe67 O78 1.996 . S
Fe67 O82 1.976 . S
Fe67 O85 2.002 . S
O68 Fe66 1.918 . S
O68 Fe67 1.918 . S
O68 Fe69 1.918 . S
Fe69 O68 1.918 . S
Fe69 O70 2.002 . S
Fe69 O79 1.976 . S
Fe69 O83 1.996 . S
Fe69 O86 1.997 . S
O70 Fe69 2.002 . S
O70 C87 1.295 . S
O71 Fe66 1.997 . S
O71 C87 1.235 . S
O72 Fe66 2.002 . S
O72 C73 1.295 . S
C73 O72 1.295 . S
C73 O75 1.235 . S
C74 O79 1.287 . S
C74 O80 1.255 . S
O75 Fe67 1.997 . S
O75 C73 1.235 . S
C76 O82 1.287 . S
C76 O83 1.255 . S
O77 Fe66 1.976 . S
O77 C84 1.287 . S
O78 Fe67 1.996 . S
O78 C84 1.255 . S
O79 Fe69 1.976 . S
O79 C74 1.287 . S
O80 Fe66 1.996 . S
O80 C74 1.255 . S
C81 O85 1.295 . S
C81 O86 1.235 . S
O82 Fe67 1.976 . S
O82 C76 1.287 . S
O83 Fe69 1.996 . S
O83 C76 1.255 . S
C84 O77 1.287 . S
C84 O78 1.255 . S
O85 Fe67 2.002 . S
O85 C81 1.295 . S
O86 Fe69 1.997 . S
O86 C81 1.235 . S
C87 O70 1.295 . S
C87 O71 1.235 . S
H88 C91 0.931 . S
H89 C94 0.928 . S
H90 C96 0.930 . S
C91 H88 0.931 . S
C91 C92 1.413 . S
C91 C93 1.360 . S
C92 C91 1.413 . S
C92 C96 1.429 . S
C93 C91 1.360 . S
C93 C94 1.372 . S
C94 H89 0.928 . S
C94 C93 1.372 . S
C94 C95 1.404 . S
C95 C94 1.404 . S
C95 C96 1.391 . S
C96 H90 0.930 . S
C96 C92 1.429 . S
C96 C95 1.391 . S
H97 C100 0.931 . S
H98 C103 0.928 . S
H99 C105 0.930 . S
C100 H97 0.931 . S
C100 C101 1.413 . S
C100 C102 1.360 . S
C101 C100 1.413 . S
C101 C105 1.429 . S
C102 C100 1.360 . S
C102 C103 1.372 . S
C103 H98 0.928 . S
C103 C102 1.372 . S
C103 C104 1.404 . S
C104 C103 1.404 . S
C104 C105 1.391 . S
C105 H99 0.930 . S
C105 C101 1.429 . S
C105 C104 1.391 . S
H106 C109 0.931 . S
H107 C112 0.928 . S
H108 C114 0.930 . S
C109 H106 0.931 . S
C109 C110 1.413 . S
C109 C111 1.360 . S
C110 C109 1.413 . S
C110 C114 1.429 . S
C111 C109 1.360 . S
C111 C112 1.372 . S
C112 H107 0.928 . S
C112 C111 1.372 . S
C112 C113 1.404 . S
C113 C112 1.404 . S
C113 C114 1.391 . S
C114 H108 0.930 . S
C114 C110 1.429 . S
C114 C113 1.391 . S
H115 C118 0.931 . S
H116 C121 0.928 . S
H117 C123 0.930 . S
C118 H115 0.931 . S
C118 C119 1.413 . S
C118 C120 1.360 . S
C119 C118 1.413 . S
C119 C123 1.429 . S
C120 C118 1.360 . S
C120 C121 1.372 . S
C121 H116 0.928 . S
C121 C120 1.372 . S
C121 C122 1.404 . S
C122 C121 1.404 . S
C122 C123 1.391 . S
C123 H117 0.930 . S
C123 C119 1.429 . S
C123 C122 1.391 . S
H124 C127 0.931 . S
H125 C130 0.928 . S
H126 C132 0.930 . S
C127 H124 0.931 . S
C127 C128 1.413 . S
C127 C129 1.360 . S
C128 C127 1.413 . S
C128 C132 1.429 . S
C129 C127 1.360 . S
C129 C130 1.372 . S
C130 H125 0.928 . S
C130 C129 1.372 . S
C130 C131 1.404 . S
C131 C130 1.404 . S
C131 C132 1.391 . S
C132 H126 0.930 . S
C132 C128 1.429 . S
C132 C131 1.391 . S
H133 C136 0.931 . S
H134 C139 0.928 . S
H135 C141 0.930 . S
C136 H133 0.931 . S
C136 C137 1.413 . S
C136 C138 1.360 . S
C137 C136 1.413 . S
C137 C141 1.429 . S
C138 C136 1.360 . S
C138 C139 1.372 . S
C139 H134 0.928 . S
C139 C138 1.372 . S
C139 C140 1.404 . S
C140 C139 1.404 . S
C140 C141 1.391 . S
C141 H135 0.930 . S
C141 C137 1.429 . S
C141 C140 1.391 . S
H142 C145 0.931 . S
H143 C148 0.928 . S
H144 C150 0.930 . S
C145 H142 0.931 . S
C145 C146 1.413 . S
C145 C147 1.360 . S
C146 C145 1.413 . S
C146 C150 1.429 . S
C147 C145 1.360 . S
C147 C148 1.372 . S
C148 H143 0.928 . S
C148 C147 1.372 . S
C148 C149 1.404 . S
C149 C148 1.404 . S
C149 C150 1.391 . S
C150 H144 0.930 . S
C150 C146 1.429 . S
C150 C149 1.391 . S
H151 C154 0.931 . S
H152 C157 0.928 . S
H153 C159 0.930 . S
C154 H151 0.931 . S
C154 C155 1.413 . S
C154 C156 1.360 . S
C155 C154 1.413 . S
C155 C159 1.429 . S
C156 C154 1.360 . S
C156 C157 1.372 . S
C157 H152 0.928 . S
C157 C156 1.372 . S
C157 C158 1.404 . S
C158 C157 1.404 . S
C158 C159 1.391 . S
C159 H153 0.930 . S
C159 C155 1.429 . S
C159 C158 1.391 . S
C160 C161 1.369 . S
C160 C162 1.419 1_565 S
C160 H164 0.930 . S
C161 C160 1.369 . S
C161 C170 1.429 . S
C162 C160 1.419 1_545 S
C162 C163 1.363 . S
C162 H165 0.929 . S
C163 C162 1.363 . S
C163 C169 1.428 . S
H164 C160 0.930 . S
H165 C162 0.929 . S
S166 N167 1.613 1_545 S
S166 N168 1.610 . S
N167 S166 1.613 1_565 S
N167 C170 1.350 . S
N168 S166 1.610 . S
N168 C169 1.351 . S
C169 C163 1.428 . S
C169 N168 1.351 . S
C169 C170 1.434 1_545 S
C170 C161 1.429 . S
C170 N167 1.350 . S
C170 C169 1.434 1_565 S
C171 C172 1.369 . S
C171 C173 1.419 . S
C171 H175 0.930 . S
C172 C171 1.369 . S
C172 C181 1.429 . S
C173 C171 1.419 . S
C173 C174 1.363 . S
C173 H176 0.929 . S
C174 C173 1.363 . S
C174 C180 1.428 . S
H175 C171 0.930 . S
H176 C173 0.929 . S
S177 N178 1.613 . S
S177 N179 1.610 . S
N178 S177 1.613 . S
N178 C181 1.350 . S
N179 S177 1.610 . S
N179 C180 1.351 . S
C180 C174 1.428 . S
C180 N179 1.351 . S
C180 C181 1.434 . S
C181 C172 1.429 . S
C181 N178 1.350 . S
C181 C180 1.434 . S
C182 C183 1.369 1_565 S
C182 C184 1.419 . S
C182 H186 0.930 1_565 S
C183 C182 1.369 1_545 S
C183 C192 1.429 1_545 S
C184 C182 1.419 . S
C184 C185 1.363 . S
C184 H187 0.929 . S
C185 C184 1.363 . S
C185 C191 1.428 . S
H186 C182 0.930 1_545 S
H187 C184 0.929 . S
S188 N189 1.613 1_565 S
S188 N190 1.610 . S
N189 S188 1.613 1_545 S
N189 C192 1.350 1_545 S
N190 S188 1.610 . S
N190 C191 1.351 . S
C191 C185 1.428 . S
C191 N190 1.351 . S
C191 C192 1.434 . S
C192 C183 1.429 1_565 S
C192 N189 1.350 1_565 S
C192 C191 1.434 . S
C193 C194 1.369 . S
C193 C195 1.419 . S
C193 H197 0.930 . S
C194 C193 1.369 . S
C194 C203 1.429 . S
C195 C193 1.419 . S
C195 C196 1.363 . S
C195 H198 0.929 . S
C196 C195 1.363 . S
C196 C202 1.428 . S
H197 C193 0.930 . S
H198 C195 0.929 . S
S199 N200 1.613 . S
S199 N201 1.610 . S
N200 S199 1.613 . S
N200 C203 1.350 . S
N201 S199 1.610 . S
N201 C202 1.351 . S
C202 C196 1.428 . S
C202 N201 1.351 . S
C202 C203 1.434 . S
C203 C194 1.429 . S
C203 N200 1.350 . S
C203 C202 1.434 . S
C204 C205 1.369 . S
C204 C206 1.419 . S
C204 H208 0.930 . S
C205 C204 1.369 . S
C205 C214 1.429 . S
C206 C204 1.419 . S
C206 C207 1.363 . S
C206 H209 0.929 . S
C207 C206 1.363 . S
C207 C213 1.428 . S
H208 C204 0.930 . S
H209 C206 0.929 . S
S210 N211 1.613 . S
S210 N212 1.610 . S
N211 S210 1.613 . S
N211 C214 1.350 . S
N212 S210 1.610 . S
N212 C213 1.351 . S
C213 C207 1.428 . S
C213 N212 1.351 . S
C213 C214 1.434 . S
C214 C205 1.429 . S
C214 N211 1.350 . S
C214 C213 1.434 . S
C215 C216 1.369 . S
C215 C217 1.419 . S
C215 H219 0.930 . S
C216 C215 1.369 . S
C216 C225 1.429 . S
C217 C215 1.419 . S
C217 C218 1.363 . S
C217 H220 0.929 . S
C218 C217 1.363 . S
C218 C224 1.428 . S
H219 C215 0.930 . S
H220 C217 0.929 . S
S221 N222 1.613 . S
S221 N223 1.610 . S
N222 S221 1.613 . S
N222 C225 1.350 . S
N223 S221 1.610 . S
N223 C224 1.351 . S
C224 C218 1.428 . S
C224 N223 1.351 . S
C224 C225 1.434 . S
C225 C216 1.429 . S
C225 N222 1.350 . S
C225 C224 1.434 . S
C226 C227 1.369 . S
C226 C228 1.419 . S
C226 H230 0.930 . S
C227 C226 1.369 . S
C227 C236 1.429 . S
C228 C226 1.419 . S
C228 C229 1.363 . S
C228 H231 0.929 . S
C229 C228 1.363 . S
C229 C235 1.428 . S
H230 C226 0.930 . S
H231 C228 0.929 . S
S232 N233 1.613 . S
S232 N234 1.610 . S
N233 S232 1.613 . S
N233 C236 1.350 . S
N234 S232 1.610 . S
N234 C235 1.351 . S
C235 C229 1.428 . S
C235 N234 1.351 . S
C235 C236 1.434 . S
C236 C227 1.429 . S
C236 N233 1.350 . S
C236 C235 1.434 . S
C237 C238 1.369 . S
C237 C239 1.419 . S
C237 H241 0.930 . S
C238 C237 1.369 . S
C238 C247 1.429 . S
C239 C237 1.419 . S
C239 C240 1.363 . S
C239 H242 0.929 . S
C240 C239 1.363 . S
C240 C246 1.428 1_455 S
H241 C237 0.930 . S
H242 C239 0.929 . S
S243 N244 1.613 . S
S243 N245 1.610 . S
N244 S243 1.613 . S
N244 C247 1.350 1_655 S
N245 S243 1.610 . S
N245 C246 1.351 . S
C246 C240 1.428 1_655 S
C246 N245 1.351 . S
C246 C247 1.434 1_655 S
C247 C238 1.429 . S
C247 N244 1.350 1_455 S
C247 C246 1.434 1_455 S
C248 C249 1.369 . S
C248 C250 1.419 . S
C248 H252 0.930 . S
C249 C248 1.369 . S
C249 C258 1.429 1_545 S
C250 C248 1.419 . S
C250 C251 1.362 1_545 S
C250 H253 0.929 . S
C251 C250 1.362 1_565 S
C251 C257 1.428 . S
H252 C248 0.930 . S
H253 C250 0.929 . S
S254 N255 1.613 . S
S254 N256 1.610 . S
N255 S254 1.613 . S
N255 C258 1.350 . S
N256 S254 1.610 . S
N256 C257 1.351 . S
C257 C251 1.428 . S
C257 N256 1.351 . S
C257 C258 1.434 . S
C258 C249 1.429 1_565 S
C258 N255 1.350 . S
C258 C257 1.434 . S
C259 C260 1.369 . S
C259 C261 1.419 . S
C259 H263 0.930 . S
C260 C259 1.369 . S
C260 C269 1.429 . S
C261 C259 1.419 . S
C261 C262 1.363 . S
C261 H264 0.929 . S
C262 C261 1.363 . S
C262 C268 1.428 . S
H263 C259 0.930 . S
H264 C261 0.929 . S
S265 N266 1.613 . S
S265 N267 1.610 . S
N266 S265 1.613 . S
N266 C269 1.350 . S
N267 S265 1.610 . S
N267 C268 1.351 . S
C268 C262 1.428 . S
C268 N267 1.351 . S
C268 C269 1.434 . S
C269 C260 1.429 . S
C269 N266 1.350 . S
C269 C268 1.434 . S
C270 C271 1.369 1_544 S
C270 C272 1.419 . S
C270 H274 0.930 1_545 S
C271 C270 1.369 1_566 S
C271 C280 1.429 1_565 S
C272 C270 1.419 . S
C272 C273 1.363 1_554 S
C272 H275 0.929 . S
C273 C272 1.363 1_556 S
C273 C279 1.428 . S
H274 C270 0.930 1_565 S
H275 C272 0.929 . S
S276 N277 1.613 1_545 S
S276 N278 1.610 . S
N277 S276 1.613 1_565 S
N277 C280 1.350 1_565 S
N278 S276 1.610 . S
N278 C279 1.351 . S
C279 C273 1.428 . S
C279 N278 1.351 . S
C279 C280 1.434 . S
C280 C271 1.429 1_545 S
C280 N277 1.350 1_545 S
C280 C279 1.434 . S
C281 C282 1.369 . S
C281 C283 1.419 . S
C281 H285 0.930 . S
C282 C281 1.369 . S
C282 C291 1.429 . S
C283 C281 1.419 . S
C283 C284 1.363 . S
C283 H286 0.929 . S
C284 C283 1.363 . S
C284 C290 1.428 . S
H285 C281 0.930 . S
H286 C283 0.929 . S
S287 N288 1.613 . S
S287 N289 1.610 . S
N288 S287 1.613 . S
N288 C291 1.350 . S
N289 S287 1.610 . S
N289 C290 1.351 . S
C290 C284 1.428 . S
C290 N289 1.351 . S
C290 C291 1.434 . S
C291 C282 1.429 . S
C291 N288 1.350 . S
C291 C290 1.434 . S
C292 C293 1.369 . S
C292 C294 1.419 . S
C292 H296 0.930 . S
C293 C292 1.369 . S
C293 C302 1.429 . S
C294 C292 1.419 . S
C294 C295 1.363 . S
C294 H297 0.929 . S
C295 C294 1.363 . S
C295 C301 1.428 . S
H296 C292 0.930 . S
H297 C294 0.929 . S
S298 N299 1.613 . S
S298 N300 1.610 . S
N299 S298 1.613 . S
N299 C302 1.350 . S
N300 S298 1.610 . S
N300 C301 1.351 . S
C301 C295 1.428 . S
C301 N300 1.351 . S
C301 C302 1.434 . S
C302 C293 1.429 . S
C302 N299 1.350 . S
C302 C301 1.434 . S
C303 C304 1.369 . S
C303 C305 1.419 . S
C303 H307 0.930 . S
C304 C303 1.369 . S
C304 C313 1.429 . S
C305 C303 1.419 . S
C305 C306 1.363 . S
C305 H308 0.929 . S
C306 C305 1.363 . S
C306 C312 1.428 . S
H307 C303 0.930 . S
H308 C305 0.929 . S
S309 N310 1.613 . S
S309 N311 1.610 . S
N310 S309 1.613 . S
N310 C313 1.350 . S
N311 S309 1.610 . S
N311 C312 1.351 . S
C312 C306 1.428 . S
C312 N311 1.351 . S
C312 C313 1.434 . S
C313 C304 1.429 . S
C313 N310 1.350 . S
C313 C312 1.434 . S
C314 C315 1.369 . S
C314 C316 1.419 . S
C314 H318 0.930 . S
C315 C314 1.369 . S
C315 C324 1.429 . S
C316 C314 1.419 . S
C316 C317 1.363 . S
C316 H319 0.929 . S
C317 C316 1.363 . S
C317 C323 1.428 . S
H318 C314 0.930 . S
H319 C316 0.929 . S
S320 N321 1.613 . S
S320 N322 1.610 . S
N321 S320 1.613 . S
N321 C324 1.350 . S
N322 S320 1.610 . S
N322 C323 1.351 . S
C323 C317 1.428 . S
C323 N322 1.351 . S
C323 C324 1.434 . S
C324 C315 1.429 . S
C324 N321 1.350 . S
C324 C323 1.434 . S
C325 C326 1.369 . S
C325 C327 1.419 . S
C325 H329 0.930 . S
C326 C325 1.369 . S
C326 C335 1.429 . S
C327 C325 1.419 . S
C327 C328 1.363 . S
C327 H330 0.929 1_655 S
C328 C327 1.363 . S
C328 C334 1.428 . S
H329 C325 0.930 . S
H330 C327 0.929 1_455 S
S331 N332 1.613 . S
S331 N333 1.610 . S
N332 S331 1.613 . S
N332 C335 1.350 . S
N333 S331 1.610 . S
N333 C334 1.351 . S
C334 C328 1.428 . S
C334 N333 1.351 . S
C334 C335 1.434 . S
C335 C326 1.429 . S
C335 N332 1.350 . S
C335 C334 1.434 . S
C336 C337 1.369 . S
C336 C338 1.419 . S
C336 H340 0.930 . S
C337 C336 1.369 . S
C337 C346 1.429 . S
C338 C336 1.419 . S
C338 C339 1.363 . S
C338 H341 0.929 . S
C339 C338 1.363 . S
C339 C345 1.428 . S
H340 C336 0.930 . S
H341 C338 0.929 . S
S342 N343 1.613 . S
S342 N344 1.610 . S
N343 S342 1.613 . S
N343 C346 1.350 . S
N344 S342 1.610 . S
N344 C345 1.351 . S
C345 C339 1.428 . S
C345 N344 1.351 . S
C345 C346 1.434 . S
C346 C337 1.429 . S
C346 N343 1.350 . S
C346 C345 1.434 . S
C347 C348 1.369 . S
C347 C349 1.419 . S
C347 H351 0.930 . S
C348 C347 1.369 . S
C348 C357 1.429 . S
C349 C347 1.419 . S
C349 C350 1.363 . S
C349 H352 0.929 . S
C350 C349 1.363 . S
C350 C356 1.428 . S
H351 C347 0.930 . S
H352 C349 0.929 . S
S353 N354 1.613 . S
S353 N355 1.610 . S
N354 S353 1.613 . S
N354 C357 1.350 . S
N355 S353 1.610 . S
N355 C356 1.351 . S
C356 C350 1.428 . S
C356 N355 1.351 . S
C356 C357 1.434 . S
C357 C348 1.429 . S
C357 N354 1.350 . S
C357 C356 1.434 . S
C358 C359 1.369 . S
C358 C360 1.419 . S
C358 H362 0.930 . S
C359 C358 1.369 . S
C359 C368 1.429 . S
C360 C358 1.419 . S
C360 C361 1.363 . S
C360 H363 0.929 . S
C361 C360 1.363 . S
C361 C367 1.428 . S
H362 C358 0.930 . S
H363 C360 0.929 . S
S364 N365 1.613 . S
S364 N366 1.610 . S
N365 S364 1.613 . S
N365 C368 1.350 . S
N366 S364 1.610 . S
N366 C367 1.351 . S
C367 C361 1.428 . S
C367 N366 1.351 . S
C367 C368 1.434 . S
C368 C359 1.429 . S
C368 N365 1.350 . S
C368 C367 1.434 . S
C369 C370 1.369 . S
C369 C371 1.419 . S
C369 H373 0.930 . S
C370 C369 1.369 . S
C370 C379 1.429 . S
C371 C369 1.419 . S
C371 C372 1.363 . S
C371 H374 0.929 . S
C372 C371 1.363 . S
C372 C378 1.428 . S
H373 C369 0.930 . S
H374 C371 0.929 . S
S375 N376 1.613 . S
S375 N377 1.610 . S
N376 S375 1.613 . S
N376 C379 1.350 . S
N377 S375 1.610 . S
N377 C378 1.351 . S
C378 C372 1.428 . S
C378 N377 1.351 . S
C378 C379 1.434 . S
C379 C370 1.429 . S
C379 N376 1.350 . S
C379 C378 1.434 . S
C380 C381 1.369 . S
C380 C382 1.419 . S
C380 H384 0.930 . S
C381 C380 1.369 . S
C381 C390 1.429 . S
C382 C380 1.419 . S
C382 C383 1.363 . S
C382 H385 0.929 . S
C383 C382 1.363 . S
C383 C389 1.428 . S
H384 C380 0.930 . S
H385 C382 0.929 . S
S386 N387 1.613 . S
S386 N388 1.610 . S
N387 S386 1.613 . S
N387 C390 1.350 . S
N388 S386 1.610 . S
N388 C389 1.351 . S
C389 C383 1.428 . S
C389 N388 1.351 . S
C389 C390 1.434 . S
C390 C381 1.429 . S
C390 N387 1.350 . S
C390 C389 1.434 . S
C391 C392 1.369 . S
C391 C393 1.419 . S
C391 H395 0.930 . S
C392 C391 1.369 . S
C392 C401 1.429 . S
C393 C391 1.419 . S
C393 C394 1.363 . S
C393 H396 0.929 . S
C394 C393 1.363 . S
C394 C400 1.428 . S
H395 C391 0.930 . S
H396 C393 0.929 . S
S397 N398 1.613 . S
S397 N399 1.610 . S
N398 S397 1.613 . S
N398 C401 1.350 . S
N399 S397 1.610 . S
N399 C400 1.351 . S
C400 C394 1.428 . S
C400 N399 1.351 . S
C400 C401 1.434 . S
C401 C392 1.429 . S
C401 N398 1.350 . S
C401 C400 1.434 . S
C402 C403 1.369 . S
C402 C404 1.419 . S
C402 H406 0.930 . S
C403 C402 1.369 . S
C403 C412 1.429 . S
C404 C402 1.419 . S
C404 C405 1.363 . S
C404 H407 0.929 . S
C405 C404 1.363 . S
C405 C411 1.428 . S
H406 C402 0.930 . S
H407 C404 0.929 . S
S408 N409 1.613 . S
S408 N410 1.610 . S
N409 S408 1.613 . S
N409 C412 1.350 . S
N410 S408 1.610 . S
N410 C411 1.351 . S
C411 C405 1.428 . S
C411 N410 1.351 . S
C411 C412 1.434 . S
C412 C403 1.429 . S
C412 N409 1.350 . S
C412 C411 1.434 . S
C413 C414 1.364 1_554 S
C413 C415 1.413 1_554 S
C413 H417 0.942 . S
C414 C413 1.364 1_556 S
C414 C423 1.429 . S
C415 C413 1.413 1_556 S
C415 C416 1.363 . S
C415 H418 0.929 . S
C416 C415 1.363 . S
C416 C422 1.428 . S
H417 C413 0.942 . S
H418 C415 0.929 . S
S419 N420 1.613 . S
S419 N421 1.610 . S
N420 S419 1.613 . S
N420 C423 1.350 . S
N421 S419 1.610 . S
N421 C422 1.351 . S
C422 C416 1.428 . S
C422 N421 1.351 . S
C422 C423 1.434 . S
C423 C414 1.429 . S
C423 N420 1.350 . S
C423 C422 1.434 . S
C161 C7 1.456 . S
C163 C93 1.442 . S
C172 C37 1.376 . S
C174 C101 1.352 . S
C183 C54 1.443 . S
C185 C110 1.399 . S
C196 C120 1.454 . S
C194 C87 1.433 . S
C207 C129 1.412 . S
C205 C30 1.434 . S
C216 C51 1.443 1_455 S
C218 C138 1.458 . S
C227 C84 1.470 . S
C229 C146 1.420 . S
C238 C10 1.354 . S
C240 C156 1.327 1_455 S
C249 C59 1.460 . S
C251 C155 1.454 . S
C262 C128 1.316 . S
C260 C74 1.340 . S
C273 C137 1.423 . S
C271 C18 1.469 1_556 S
C282 C32 1.425 . S
C284 C147 1.434 . S
C295 C102 1.446 . S
C293 C73 1.459 . S
C304 C15 1.430 1_655 S
C306 C111 1.453 . S
C317 C119 1.446 . S
C315 C43 1.474 . S
C328 C92 1.327 1_655 S
C326 C62 1.345 . S
C339 C149 1.452 . S
C337 C21 1.496 . S
C350 C158 1.351 . S
C348 C29 1.361 . S
C359 C52 1.341 . S
C361 C131 1.321 . S
C372 C140 1.439 . S
C370 C81 1.483 . S
C383 C113 1.434 . S
C381 C40 1.473 . S
C392 C65 1.471 . S
C394 C122 1.429 . S
C405 C95 1.325 . S
C403 C76 1.345 . S
C416 C104 1.343 . S
C414 C8 1.370 1_556 S
