# Generated by pormake.
# Topology zzz, (3,6)-cn, num edge types: 1
# Building blocks:
#     Node 0, Type 0, BuildingBlock: QEWDON_clean_linker_0, # of connection points: 3
#     Node 1, Type 0, BuildingBlock: QEWDON_clean_linker_0, # of connection points: 3
#     Node 2, Type 0, BuildingBlock: QEWDON_clean_linker_0, # of connection points: 3
#     Node 3, Type 0, BuildingBlock: QEWDON_clean_linker_0, # of connection points: 3
#     Node 4, Type 0, BuildingBlock: QEWDON_clean_linker_0, # of connection points: 3
#     Node 5, Type 0, BuildingBlock: QEWDON_clean_linker_0, # of connection points: 3
#     Node 6, Type 0, BuildingBlock: QEWDON_clean_linker_0, # of connection points: 3
#     Node 7, Type 0, BuildingBlock: QEWDON_clean_linker_0, # of connection points: 3
#     Node 8, Type 1, BuildingBlock: KUMBOL_clean_sbu_0, # of connection points: 6
#     Node 9, Type 1, BuildingBlock: KUMBOL_clean_sbu_0, # of connection points: 6
#     Node 10, Type 1, BuildingBlock: KUMBOL_clean_sbu_0, # of connection points: 6
#     Node 11, Type 1, BuildingBlock: KUMBOL_clean_sbu_0, # of connection points: 6
#     Edge 12, Type (0, 1), BuildingBlock: CIFDUS_clean_linker_0, # of connection points: 2
#     Edge 13, Type (0, 1), BuildingBlock: CIFDUS_clean_linker_0, # of connection points: 2
#     Edge 14, Type (0, 1), BuildingBlock: CIFDUS_clean_linker_0, # of connection points: 2
#     Edge 15, Type (0, 1), BuildingBlock: CIFDUS_clean_linker_0, # of connection points: 2
#     Edge 16, Type (0, 1), BuildingBlock: CIFDUS_clean_linker_0, # of connection points: 2
#     Edge 17, Type (0, 1), BuildingBlock: CIFDUS_clean_linker_0, # of connection points: 2
#     Edge 18, Type (0, 1), BuildingBlock: CIFDUS_clean_linker_0, # of connection points: 2
#     Edge 19, Type (0, 1), BuildingBlock: CIFDUS_clean_linker_0, # of connection points: 2
#     Edge 20, Type (0, 1), BuildingBlock: CIFDUS_clean_linker_0, # of connection points: 2
#     Edge 21, Type (0, 1), BuildingBlock: CIFDUS_clean_linker_0, # of connection points: 2
#     Edge 22, Type (0, 1), BuildingBlock: CIFDUS_clean_linker_0, # of connection points: 2
#     Edge 23, Type (0, 1), BuildingBlock: CIFDUS_clean_linker_0, # of connection points: 2
#     Edge 24, Type (0, 1), BuildingBlock: CIFDUS_clean_linker_0, # of connection points: 2
#     Edge 25, Type (0, 1), BuildingBlock: CIFDUS_clean_linker_0, # of connection points: 2
#     Edge 26, Type (0, 1), BuildingBlock: CIFDUS_clean_linker_0, # of connection points: 2
#     Edge 27, Type (0, 1), BuildingBlock: CIFDUS_clean_linker_0, # of connection points: 2
#     Edge 28, Type (0, 1), BuildingBlock: CIFDUS_clean_linker_0, # of connection points: 2
#     Edge 29, Type (0, 1), BuildingBlock: CIFDUS_clean_linker_0, # of connection points: 2
#     Edge 30, Type (0, 1), BuildingBlock: CIFDUS_clean_linker_0, # of connection points: 2
#     Edge 31, Type (0, 1), BuildingBlock: CIFDUS_clean_linker_0, # of connection points: 2
#     Edge 32, Type (0, 1), BuildingBlock: CIFDUS_clean_linker_0, # of connection points: 2
#     Edge 33, Type (0, 1), BuildingBlock: CIFDUS_clean_linker_0, # of connection points: 2
#     Edge 34, Type (0, 1), BuildingBlock: CIFDUS_clean_linker_0, # of connection points: 2
#     Edge 35, Type (0, 1), BuildingBlock: CIFDUS_clean_linker_0, # of connection points: 2
# Relax obj value: 0.128
# Max RMSD: 0.156
# Mean RMSD: 0.077
data_MOF--net-zzz--node1-KUMBOL_clean_sbu_0--node2-QEWDON_clean_linker_0--edge1-CIFDUS_clean_linker_0
_symmetry_space_group_name_H-M    P1
_symmetry_Int_Tables_number       1
_symmetry_cell_setting            triclinic
loop_
_symmetry_equiv_pos_as_xyz
'x, y, z'
_cell_length_a     47.777412
_cell_length_b     47.699739
_cell_length_c     12.642974
_cell_angle_alpha  91.747517
_cell_angle_beta   90.038704
_cell_angle_gamma 90.051107
loop_
_atom_site_label
_atom_site_type_symbol
_atom_site_fract_x
_atom_site_fract_y
_atom_site_fract_z
_atom_type_partial_charge
H0 H 0.76879 0.56538 0.09056 0.0
C1 C 0.78295 0.56145 0.15489 0.0
C2 C 0.81071 0.56998 0.1425 0.0
C3 C 0.77386 0.54853 0.24795 0.0
H4 H 0.85178 0.57241 0.21238 0.0
C5 C 0.83016 0.56616 0.22386 0.0
C6 C 0.82285 0.55362 0.31823 0.0
C7 C 0.79464 0.54434 0.3296 0.0
C8 C 0.74283 0.5406 0.25904 0.0
H9 H 0.78935 0.53424 0.40213 0.0
C10 C 0.72316 0.54003 0.17201 0.0
C11 C 0.69416 0.53386 0.18657 0.0
C12 C 0.73211 0.53438 0.35945 0.0
H13 H 0.74506 0.53502 0.42938 0.0
C14 C 0.70398 0.52778 0.37359 0.0
H15 H 0.72995 0.54377 0.09235 0.0
C16 C 0.68523 0.52784 0.28929 0.0
H17 H 0.66341 0.52359 0.30563 0.0
H18 H 0.69653 0.52288 0.45162 0.0
H19 H 0.04949 0.77959 0.08734 0.0
C20 C 0.04699 0.79399 0.1545 0.0
C21 C 0.06133 0.81937 0.15284 0.0
C22 C 0.0288 0.78774 0.23796 0.0
H23 H 0.06799 0.85967 0.22608 0.0
C24 C 0.05732 0.83971 0.23286 0.0
C25 C 0.03945 0.83543 0.31893 0.0
C26 C 0.02486 0.80908 0.32095 0.0
C27 C 1.01292 0.75989 0.22964 0.0
H28 H 1.01114 0.80514 0.38689 0.0
C29 C 0.02336 0.73566 0.17091 0.0
C30 C 1.00635 0.71146 0.1493 0.0
C31 C 0.98573 0.75819 0.27103 0.0
H32 H 0.97656 0.77577 0.31455 0.0
C33 C 0.96929 0.73425 0.25297 0.0
H34 H 0.04446 0.73565 0.13998 0.0
C35 C 0.97924 0.71142 0.19206 0.0
H36 H 0.9657 0.69337 0.1798 0.0
H37 H 0.94831 0.73357 0.28514 0.0
H38 H 0.77804 0.97602 0.15094 0.0
C39 C 0.76182 0.98529 0.20034 0.0
C40 C 0.73405 0.97652 0.18449 0.0
C41 C 0.76882 1.00603 0.27725 0.0
H42 H 0.69152 0.98103 0.24065 0.0
C43 C 0.71301 0.98756 0.25205 0.0
C44 C 0.71867 1.00778 0.33195 0.0
C45 C 0.74692 1.01698 0.34426 0.0
C46 C 0.79921 1.01502 0.28798 0.0
H47 H 0.75163 0.03303 0.40398 0.0
C48 C 0.8182 1.01504 0.19994 0.0
C49 C 0.84734 0.02102 0.21357 0.0
C50 C 0.80995 0.02187 0.3888 0.0
H51 H 0.79669 0.02164 0.45814 0.0
C52 C 0.83827 0.02789 0.40299 0.0
H53 H 0.81028 1.01069 0.12099 0.0
C54 C 0.85673 0.0271 0.31751 0.0
H55 H 0.87865 0.03073 0.33441 0.0
H56 H 0.84614 0.03262 0.48182 0.0
H57 H 0.57666 0.79779 0.18255 0.0
C58 C 0.56887 0.78278 0.23784 0.0
C59 C 0.58093 0.75613 0.23607 0.0
C60 C 0.54741 0.78994 0.31052 0.0
H61 H 0.58061 0.7152 0.30139 0.0
C62 C 0.57199 0.73621 0.3078 0.0
C63 C 0.55101 0.74197 0.38228 0.0
C64 C 0.53827 0.76892 0.38197 0.0
C65 C 0.5358 0.81956 0.31338 0.0
H66 H 0.52144 0.77332 0.43712 0.0
C67 C 0.53667 0.83713 0.22361 0.0
C68 C 0.52794 0.86563 0.23044 0.0
C69 C 0.52533 0.83128 0.40888 0.0
H70 H 0.5249 0.81938 0.48029 0.0
C71 C 0.51621 0.85906 0.41556 0.0
H72 H 0.54382 0.82879 0.14791 0.0
C73 C 0.51765 0.87609 0.32802 0.0
H74 H 0.51129 0.8978 0.33793 0.0
H75 H 0.50852 0.86769 0.49021 0.0
H76 H 0.28433 0.50064 0.23299 0.0
C77 C 0.27135 0.50608 0.16638 0.0
C78 C 0.24745 0.48991 0.14387 0.0
C79 C 0.27701 0.53054 0.1104 0.0
H80 H 0.20991 0.48613 0.05124 0.0
C81 C 0.22925 0.49774 0.06273 0.0
C82 C 0.23321 0.52207 1.0057 0.0
C83 C 0.25739 0.53858 0.03016 0.0
C84 C 0.30104 0.5493 0.14728 0.0
H85 H 0.26069 0.55766 0.98769 0.0
C86 C 0.32683 0.53881 0.18959 0.0
C87 C 0.34789 0.55751 0.23005 0.0
C88 C 0.29719 0.57853 0.1478 0.0
H89 H 0.27785 0.58755 0.12015 0.0
C90 C 0.31769 0.59675 0.18769 0.0
H91 H 0.33072 0.51645 0.1893 0.0
C92 C 0.34264 0.58645 0.22813 0.0
H93 H 0.35817 0.60131 0.25769 0.0
H94 H 0.31415 0.61916 0.18769 0.0
H95 H 0.06797 0.29088 0.20464 0.0
C96 C 0.05967 0.27453 0.15224 0.0
C97 C 0.06851 0.24671 0.16471 0.0
C98 C 0.03984 0.28146 0.07523 0.0
H99 H 0.06469 0.20395 0.10212 0.0
C100 C 0.059 0.22568 0.09208 0.0
C101 C 0.03964 0.23122 0.01252 0.0
C102 C 0.0296 0.25928 1.00554 0.0
C103 C 0.03116 0.31203 0.06643 0.0
H104 H 1.01373 0.26365 0.94722 0.0
C105 C 0.02932 0.33168 0.1555 0.0
C106 C 0.02251 0.36056 0.14114 0.0
C107 C 0.02615 0.32221 0.96513 0.0
H108 H 0.0278 0.30855 0.89547 0.0
C109 C 0.01984 0.35033 0.95088 0.0
H110 H 0.03234 0.32449 0.23508 0.0
C111 C 1.01832 0.36921 0.03689 0.0
H112 H 1.01332 0.39088 0.02163 0.0
H113 H 1.01598 0.35757 0.87195 0.0
H114 H 0.28374 0.03316 0.26938 0.0
C115 C 0.29771 0.03599 0.20335 0.0
C116 C 0.32641 0.03685 0.22472 0.0
C117 C 0.28733 0.03706 0.0992 0.0
H118 H 0.36786 0.03762 0.15915 0.0
C119 C 0.34562 0.03838 0.14166 0.0
C120 C 0.3369 0.03792 0.03598 0.0
C121 C 0.30757 0.03788 0.01473 0.0
C122 C 0.25575 0.03444 0.08157 0.0
H123 H 0.30096 0.03766 0.93298 0.0
C124 C 0.2356 0.04038 0.16382 0.0
C125 C 0.20643 0.03497 0.1495 0.0
C126 C 0.2454 0.02402 0.98381 0.0
H127 H 0.25927 1.0184 0.91917 0.0
C128 C 0.21682 1.01946 0.96814 0.0
H129 H 0.24227 0.04938 0.23909 0.0
C130 C 0.19766 0.02455 0.04965 0.0
H131 H 0.17591 1.01945 0.03462 0.0
H132 H 0.20949 1.01112 0.89247 0.0
H133 H 0.47413 0.27507 0.21358 0.0
C134 C 0.47988 0.28967 0.15399 0.0
C135 C 0.47023 0.31715 0.16908 0.0
C136 C 0.49717 0.28187 0.06708 0.0
H137 H 0.47 0.35877 0.10925 0.0
C138 C 0.47637 0.33722 0.09385 0.0
C139 C 0.49303 0.33103 1.00544 0.0
C140 C 0.50395 0.30339 0.9937 0.0
C141 C 0.50863 0.25192 0.05632 0.0
H142 H 0.51789 0.29928 0.92802 0.0
C143 C 0.50666 0.23204 0.13917 0.0
C144 C 0.51781 0.20437 0.12861 0.0
C145 C 0.52177 0.24265 0.9618 0.0
H146 H 0.52318 0.25566 0.89374 0.0
C147 C 0.53355 0.216 0.9518 0.0
H148 H 0.49644 0.23767 0.21232 0.0
C149 C 0.5319 0.19725 0.03378 0.0
H150 H 0.54214 0.17721 0.02195 0.0
H151 H 0.5442 0.2098 0.87925 0.0
Gd152 Gd 1.00055 0.03741 0.57361 0.0
Gd153 Gd 0.05002 0.02398 0.77797 0.0
C154 C 0.03588 0.05972 0.11287 0.0
C155 C 0.05972 0.10469 0.10747 0.0
C156 C 0.06053 0.07258 0.95436 0.0
C157 C 0.0445 0.05369 1.00817 0.0
C158 C 0.06955 0.0977 1.00528 0.0
C159 C 0.04261 0.08584 0.16077 0.0
C160 C 0.0212 0.03909 0.16645 0.0
C161 C 1.01687 1.01278 0.11778 0.0
N162 N 0.03835 0.02876 0.95922 0.0
C163 C 0.02647 1.00758 0.0148 0.0
H164 H 0.02249 0.98741 0.97633 0.0
C165 C 0.08889 0.08093 0.80592 0.0
N166 N 0.06892 0.06545 0.8547 0.0
C167 C 0.09926 0.10559 0.85463 0.0
C168 C 0.08892 0.11446 0.95344 0.0
H169 H 0.09652 0.07472 0.72842 0.0
H170 H 0.03564 0.09119 0.24036 0.0
H171 H 0.04464 0.99761 0.41937 0.0
H172 H 1.0136 0.04297 0.24579 0.0
H173 H 1.00559 0.99673 0.15844 0.0
H174 H 0.06583 0.12423 0.14689 0.0
H175 H 0.93397 0.04838 0.65076 0.0
H176 H 0.9968 0.93578 0.25025 0.0
H177 H 0.04219 0.95827 0.29233 0.0
H178 H 0.90316 0.95206 0.37035 0.0
H179 H 0.1147 0.11807 0.81475 0.0
H180 H 0.09656 0.13382 0.99007 0.0
H181 H 0.94507 0.93377 0.27915 0.0
H182 H 0.88717 0.02778 0.62043 0.0
N183 N 1.00073 0.99851 0.45195 0.0
C184 C 0.99762 0.9534 0.3063 0.0
C185 C 0.02325 0.96605 0.3298 0.0
C186 C 0.97338 0.96354 0.35591 0.0
C187 C 0.97563 0.98631 0.42966 0.0
C188 C 0.02441 0.98881 0.40194 0.0
N189 N 0.95508 1.01801 0.55272 0.0
C190 C 0.95215 0.99623 0.4822 0.0
C191 C 0.90526 1.01855 0.5815 0.0
C192 C 0.90217 0.99532 0.51293 0.0
C193 C 0.93183 0.03003 0.59887 0.0
C194 C 0.92565 0.98414 0.46094 0.0
H195 H 0.88153 0.98652 0.49905 0.0
O196 O 0.97069 0.06669 0.5101 0.0
O197 O 0.03074 0.05879 0.68777 0.0
O198 O 1.00709 0.03309 0.85096 0.0
O199 O 0.97647 0.02106 0.71603 0.0
O200 O 0.99044 0.07416 0.6861 0.0
O201 O 1.01016 0.05989 0.43178 0.0
O202 O 0.09514 1.01847 0.76337 0.0
O203 O 0.02865 1.00458 0.63507 0.0
O204 O 0.04371 0.04239 0.4996 0.0
O205 O 0.07606 0.03401 0.63252 0.0
O206 O 0.02994 0.9806 0.76583 0.0
O207 O 0.07101 0.99082 0.8597 0.0
C208 C 1.01499 0.07829 0.72554 0.0
C209 C 0.92332 0.96159 0.38756 0.0
C210 C 0.94714 0.95127 0.33531 0.0
C211 C 0.98821 0.07586 0.44115 0.0
C212 C 0.99289 0.10628 0.4474 0.0
C213 C 0.9697 0.12424 0.4478 0.0
C214 C 0.01994 0.1175 0.46108 0.0
C215 C 0.024 0.14663 0.4714 0.0
C216 C 0.97337 0.15304 0.46172 0.0
C217 C 1.0002 0.16422 0.47271 0.0
C218 C 0.98162 0.0265 0.81732 0.0
C219 C 0.02147 0.9808 0.66928 0.0
C220 C 0.09508 0.99536 0.81527 0.0
C221 C 0.1092 0.97076 0.76515 0.0
C222 C 0.13284 0.97397 0.70042 0.0
C223 C 0.09963 0.94362 0.78496 0.0
C224 C 0.11346 0.91997 0.74248 0.0
C225 C 0.14653 0.95038 0.65682 0.0
C226 C 0.13708 0.92339 0.67859 0.0
C227 C 0.06989 0.04001 0.5336 0.0
H228 H 0.94869 0.11592 0.43873 0.0
H229 H 0.03785 0.10361 0.46249 0.0
H230 H 0.95539 0.16684 0.46178 0.0
H231 H 1.00214 0.18683 0.47698 0.0
H232 H 0.14091 0.99464 0.68452 0.0
H233 H 0.0818 0.94064 0.83648 0.0
H234 H 0.16478 0.95304 0.60744 0.0
H235 H 0.14821 0.90528 0.64649 0.0
Gd236 Gd 0.51727 1.0036 0.5685 0.0
Gd237 Gd 0.52988 0.05859 0.77289 0.0
C238 C 0.45946 0.11114 0.92694 0.0
C239 C 0.46878 0.15746 0.86055 0.0
C240 C 0.4987 0.11803 0.80997 0.0
C241 C 0.48253 0.1004 0.86881 0.0
C242 C 0.49253 0.14694 0.80751 0.0
C243 C 0.45223 0.13956 0.92006 0.0
C244 C 0.44506 0.09332 0.99369 0.0
C245 C 0.45454 0.06597 1.00488 0.0
N246 N 0.49066 0.07326 0.87585 0.0
C247 C 0.47774 0.05642 0.94684 0.0
H248 H 0.48483 0.03547 0.95986 0.0
C249 C 0.54101 0.12481 0.71798 0.0
N250 N 0.52179 0.10729 0.76194 0.0
C251 C 0.53576 0.15358 0.71289 0.0
C252 C 0.51108 0.16461 0.75582 0.0
H253 H 0.56009 0.11643 0.68403 0.0
H254 H 0.43446 0.14809 0.96342 0.0
H255 H 0.47742 0.02388 0.36815 0.0
H256 H 0.42721 0.10071 0.03934 0.0
H257 H 0.44402 0.0522 0.05857 0.0
H258 H 0.4636 0.17956 0.859 0.0
H259 H 0.57783 0.97291 0.64375 0.0
H260 H 0.52193 1.00886 0.07845 0.0
H261 H 0.4798 0.02615 0.17331 0.0
H262 H 0.60441 0.96076 0.18918 0.0
H263 H 0.55066 0.16717 0.67534 0.0
H264 H 0.50702 0.18689 0.75178 0.0
H265 H 0.5674 0.98268 0.08398 0.0
H266 H 0.61897 0.95094 0.56129 0.0
N267 N 0.51779 1.00557 0.38266 0.0
C268 C 0.52057 1.00706 0.16333 0.0
C269 C 0.49691 1.01711 0.21671 0.0
C270 C 0.54211 0.99456 0.22009 0.0
C271 C 0.54003 0.99409 0.33129 0.0
C272 C 0.49566 1.01581 0.32693 0.0
N273 N 0.55855 0.98323 0.49756 0.0
C274 C 0.56084 0.98208 0.39044 0.0
C275 C 0.60269 0.95948 0.51218 0.0
C276 C 0.60538 0.9584 0.4023 0.0
C277 C 0.57902 0.97191 0.55872 0.0
C278 C 0.58437 0.96985 0.33988 0.0
H279 H 0.62388 0.94901 0.36657 0.0
O280 O 0.5091 0.96175 0.62742 0.0
O281 O 0.4985 0.02966 0.70156 0.0
O282 O 0.51632 1.01665 0.84024 0.0
O283 O 0.5346 0.98487 0.71855 0.0
O284 O 0.47365 0.02352 0.57239 0.0
O285 O 0.48574 0.97675 0.49551 0.0
O286 O 0.55863 0.08272 0.87311 0.0
O287 O 0.54927 0.02962 0.65141 0.0
O288 O 0.5224 0.04509 0.48614 0.0
O289 O 0.51671 0.07981 0.61967 0.0
O290 O 0.5715 0.06511 0.68771 0.0
O291 O 0.54925 0.04014 0.9099 0.0
C292 C 0.47472 0.03553 0.66478 0.0
C293 C 0.5865 0.97002 0.2291 0.0
C294 C 0.56549 0.98253 0.16931 0.0
C295 C 0.48704 0.95822 0.56856 0.0
C296 C 0.46049 0.95192 0.6233 0.0
C297 C 0.45983 0.93466 0.71135 0.0
C298 C 0.43556 0.96442 0.59022 0.0
C299 C 0.41036 0.96059 0.64465 0.0
C300 C 0.43457 0.93011 0.76453 0.0
C301 C 0.40983 0.94289 0.73111 0.0
C302 C 0.52558 0.9911 0.81506 0.0
C303 C 0.5714 0.04293 0.62784 0.0
C304 C 0.56619 0.06107 0.92561 0.0
C305 C 0.59634 0.05478 0.92427 0.0
C306 C 0.61557 0.07697 0.93304 0.0
C307 C 0.60615 0.02715 0.90716 0.0
C308 C 0.63499 0.02168 0.89964 0.0
C309 C 0.64412 0.07182 0.9237 0.0
C310 C 0.65382 0.0445 0.90757 0.0
C311 C 0.51868 0.07167 0.51812 0.0
H312 H 0.47879 0.92488 0.73931 0.0
H313 H 0.43562 0.97743 0.52138 0.0
H314 H 0.43422 0.9168 0.83233 0.0
H315 H 0.39052 0.93937 0.77353 0.0
H316 H 0.60847 0.09837 0.94576 0.0
H317 H 0.59145 1.00989 0.89984 0.0
H318 H 0.65885 0.08904 0.93061 0.0
H319 H 0.67624 0.04132 0.90587 0.0
Gd320 Gd 0.49833 0.55035 0.79847 0.0
Gd321 Gd 0.54742 0.52471 0.59885 0.0
C322 C 0.6411 0.52116 0.67022 0.0
C323 C 0.65911 0.55973 0.56901 0.0
C324 C 0.60957 0.54806 0.56307 0.0
C325 C 0.61384 0.52695 0.63374 0.0
C326 C 0.63231 0.56405 0.52697 0.0
C327 C 0.6635 0.5383 0.64057 0.0
C328 C 0.64518 0.49771 0.73215 0.0
C329 C 0.62262 0.48007 0.75237 0.0
N330 N 0.59172 0.51078 0.66079 0.0
C331 C 0.59599 0.4867 0.71442 0.0
H332 H 0.57891 0.4728 0.73109 0.0
C333 C 0.57904 0.56912 0.44147 0.0
N334 N 0.58344 0.55169 0.52413 0.0
C335 C 0.60094 0.58534 0.40276 0.0
C336 C 0.62761 0.58317 0.44701 0.0
H337 H 0.55831 0.57117 0.40818 0.0
H338 H 0.68449 0.53448 0.66929 0.0
H339 H 0.46788 0.59498 0.62298 0.0
H340 H 0.66576 0.49257 0.76187 0.0
H341 H 0.62567 0.46144 0.79774 0.0
H342 H 0.67676 0.5721 0.54363 0.0
H343 H 0.48717 0.5058 0.99123 0.0
H344 H 0.3798 0.59335 0.66649 0.0
H345 H 0.42163 0.61142 0.57646 0.0
H346 H 0.36654 0.52857 0.94351 0.0
H347 H 0.5972 0.5996 0.33926 0.0
H348 H 0.64456 0.59572 0.41682 0.0
H349 H 0.35948 0.56252 0.80342 0.0
H350 H 0.4479 0.48645 0.09254 0.0
N351 N 0.45387 0.56721 0.74212 0.0
C352 C 0.40037 0.58599 0.6886 0.0
C353 C 0.42392 0.59628 0.63795 0.0
C354 C 0.40366 0.56638 0.76735 0.0
C355 C 0.43096 0.55729 0.79261 0.0
C356 C 0.45052 0.58687 0.6662 0.0
N357 N 0.46121 0.52986 0.89212 0.0
C358 C 0.43479 0.53798 0.86999 0.0
C359 C 0.4439 0.50077 0.02972 0.0
C360 C 0.41652 0.50851 1.00626 0.0
C361 C 0.46608 0.51181 0.97211 0.0
C362 C 0.41166 0.52743 0.92598 0.0
H363 H 0.39936 0.50007 0.05142 0.0
O364 O 0.50118 0.56241 0.96529 0.0
O365 O 0.54381 0.54103 0.76411 0.0
O366 O 0.53243 0.48806 0.70003 0.0
O367 O 0.49013 0.50368 0.77255 0.0
O368 O 0.52796 0.52703 0.90424 0.0
O369 O 0.50471 0.59401 0.84734 0.0
O370 O 0.55269 0.51491 0.43222 0.0
O371 O 0.50214 0.53173 0.63568 0.0
O372 O 0.51096 0.58559 0.68918 0.0
O373 O 0.55464 0.57139 0.63054 0.0
O374 O 0.51481 0.54252 0.48795 0.0
O375 O 0.54785 0.48122 0.54218 0.0
C376 C 0.55038 0.52899 0.84883 0.0
C377 C 0.38453 0.53637 0.90123 0.0
C378 C 0.38053 0.55574 0.82172 0.0
C379 C 0.50976 0.58759 0.94504 0.0
C380 C 0.53768 0.59577 0.98705 0.0
C381 C 0.55268 0.57798 0.05304 0.0
C382 C 0.55049 0.62048 0.95365 0.0
C383 C 0.57863 0.62701 0.97992 0.0
C384 C 0.58052 0.58371 0.07798 0.0
C385 C 0.5937 0.60735 0.03897 0.0
C386 C 0.50826 0.48329 0.74899 0.0
C387 C 0.49326 0.54056 0.54823 0.0
C388 C 0.54799 0.48832 0.44319 0.0
C389 C 0.52622 0.47641 0.3728 0.0
C390 C 0.5272 0.48234 0.26481 0.0
C391 C 0.50433 0.45979 0.41133 0.0
C392 C 0.48388 0.44871 0.34178 0.0
C393 C 0.50672 0.4719 0.19605 0.0
C394 C 0.48524 0.4552 0.23386 0.0
C395 C 0.53551 0.59114 0.64619 0.0
H396 H 0.54332 0.55904 0.08232 0.0
H397 H 0.53783 0.63464 0.90885 0.0
H398 H 0.59215 0.5694 0.12623 0.0
H399 H 0.61557 0.61012 0.05792 0.0
H400 H 0.54394 0.495 0.23348 0.0
H401 H 0.50356 0.45478 0.49434 0.0
H402 H 0.50803 0.47599 0.11258 0.0
H403 H 0.47062 0.44604 0.17713 0.0
Gd404 Gd 0.02039 0.50648 0.78069 0.0
Gd405 Gd 0.03293 0.55463 0.57108 0.0
C406 C 0.02809 0.64987 0.63744 0.0
C407 C 0.98759 0.66273 0.53352 0.0
C408 C 1.00409 0.61445 0.53098 0.0
C409 C 0.0251 0.6217 0.60121 0.0
C410 C 0.98547 0.63497 0.49425 0.0
C411 C 1.00885 0.67016 0.60526 0.0
C412 C 0.05077 0.65702 0.70255 0.0
C413 C 0.07039 0.6366 0.72621 0.0
N414 N 0.04343 0.60153 0.62981 0.0
C415 C 0.06664 0.60903 0.68805 0.0
H416 H 0.08251 0.5942 0.70788 0.0
C417 C 0.98446 0.58012 0.41477 0.0
N418 N 1.00277 0.58755 0.49414 0.0
C419 C 0.96539 0.59961 0.37668 0.0
C420 C 0.96569 0.62711 0.41733 0.0
H421 H 0.98388 0.55873 0.38428 0.0
H422 H 1.01068 0.69179 0.63318 0.0
H423 H 0.97699 0.46147 0.65114 0.0
H424 H 0.05374 0.67835 0.73238 0.0
H425 H 0.08846 0.64205 0.77435 0.0
H426 H 0.97333 0.67872 0.50703 0.0
H427 H 0.07074 0.51229 0.96637 0.0
H428 H 1.01308 0.3796 0.65365 0.0
H429 H 0.97525 0.41144 0.59906 0.0
H430 H 0.09246 0.39172 0.88201 0.0
H431 H 0.95032 0.59342 0.3168 0.0
H432 H 0.95096 0.64221 0.38738 0.0
H433 H 0.05723 0.37259 0.75748 0.0
H434 H 0.10668 0.48256 0.04732 0.0
N435 N 1.01602 0.45862 0.7313 0.0
C436 C 1.01401 0.40165 0.67663 0.0
C437 C 0.99259 0.41954 0.64596 0.0
C438 C 0.03583 0.41225 0.73994 0.0
C439 C 0.03607 0.44114 0.76745 0.0
C440 C 0.9937 0.44801 0.67565 0.0
N441 N 0.05488 0.47953 0.86481 0.0
C442 C 0.056 0.45187 0.83694 0.0
C443 C 0.09265 0.47369 0.9879 0.0
C444 C 0.0949 0.44549 0.95632 0.0
C445 C 0.0722 0.49043 0.94219 0.0
C446 C 0.07626 0.43415 0.88092 0.0
H447 H 0.11073 0.43255 0.99206 0.0
O448 O 1.01322 0.50572 0.94919 0.0
O449 O 1.01838 0.55156 0.73671 0.0
O450 O 0.07265 0.54847 0.67338 0.0
O451 O 0.06631 0.50415 0.73769 0.0
O452 O 0.03503 0.54436 0.88178 0.0
O453 O 0.97918 0.49605 0.83997 0.0
O454 O 0.03991 0.55489 0.4012 0.0
O455 O 0.03285 0.50919 0.61248 0.0
O456 O 0.97998 0.51132 0.68076 0.0
O457 O 0.98569 0.55395 0.59889 0.0
O458 O 1.01382 0.51858 0.47269 0.0
O459 O 0.07523 0.55463 0.50738 0.0
C460 C 0.02819 0.56387 0.8189 0.0
C461 C 0.0769 0.40564 0.84996 0.0
C462 C 0.05683 0.39475 0.77908 0.0
C463 C 0.98644 0.50194 0.93783 0.0
C464 C 0.96936 0.52238 0.99702 0.0
C465 C 0.96876 0.5214 0.10763 0.0
C466 C 0.95512 0.54383 0.94528 0.0
C467 C 0.93978 0.56387 1.00412 0.0
C468 C 0.95377 0.54141 0.16643 0.0
C469 C 0.93935 0.56247 0.11531 0.0
C470 C 0.08269 0.52566 0.71782 0.0
C471 C 0.021 0.4982 0.53136 0.0
C472 C 0.06644 0.54949 0.41104 0.0
C473 C 0.07659 0.52303 0.35934 0.0
C474 C 0.05882 0.50644 0.29452 0.0
C475 C 0.10327 0.51276 0.38402 0.0
C476 C 0.11183 0.48545 0.35128 0.0
C477 C 0.06685 0.47949 0.26165 0.0
C478 C 0.09274 0.46878 0.29171 0.0
C479 C 0.96973 0.53263 0.62663 0.0
H480 H 0.97988 0.50512 0.14838 0.0
H481 H 0.95529 0.54456 0.85968 0.0
H482 H 0.95264 0.54011 0.25157 0.0
H483 H 0.92646 0.5767 0.1625 0.0
H484 H 0.03825 0.51378 0.27243 0.0
H485 H 0.11721 0.52656 0.42839 0.0
H486 H 0.05267 0.46657 0.21441 0.0
H487 H 0.09749 0.44742 0.26729 0.0
H488 H 0.15106 0.05178 0.13738 0.0
H489 H 0.21275 0.02558 0.36339 0.0
H490 H 0.177 0.02618 0.50207 0.0
H491 H 0.12716 0.03139 0.55828 0.0
H492 H 0.0658 0.05531 0.32795 0.0
H493 H 0.10212 0.05792 0.19333 0.0
C494 C 0.1569 0.04604 0.21667 0.0
C495 C 0.18502 0.03843 0.23807 0.0
C496 C 0.13599 0.04583 0.2962 0.0
C497 C 0.19169 0.03184 0.34315 0.0
C498 C 0.17105 0.03192 0.4229 0.0
C499 C 0.12169 0.03732 0.47889 0.0
C500 C 0.09332 0.0431 0.45433 0.0
C501 C 0.14297 0.03848 0.40028 0.0
C502 C 0.0871 0.05076 0.35021 0.0
C503 C 0.10801 0.05223 0.27265 0.0
H504 H 0.51891 0.14612 0.10999 0.0
H505 H 0.51088 0.21304 0.34702 0.0
H506 H 0.50754 0.17849 0.48393 0.0
H507 H 0.50831 0.12891 0.53902 0.0
H508 H 0.52698 0.06404 0.30467 0.0
H509 H 0.52472 0.09799 0.16593 0.0
C510 C 0.51721 0.1537 0.19128 0.0
C511 C 0.51534 0.18292 0.21523 0.0
C512 C 0.51702 0.13372 0.27161 0.0
C513 C 0.51185 0.19114 0.32282 0.0
C514 C 0.51025 0.17122 0.40252 0.0
C515 C 0.51251 0.12219 0.45826 0.0
C516 C 0.5175 0.09345 0.43406 0.0
C517 C 0.51308 0.14241 0.37817 0.0
C518 C 0.52218 0.08552 0.32718 0.0
C519 C 0.52128 0.10515 0.2471 0.0
H520 H 0.36369 0.53072 0.41458 0.0
H521 H 0.39705 0.5669 0.13291 0.0
H522 H 0.44424 0.56503 0.20608 0.0
H523 H 0.47582 0.55761 0.35621 0.0
H524 H 0.44505 0.51672 0.63177 0.0
H525 H 0.39748 0.51646 0.55714 0.0
C526 C 0.38139 0.5374 0.36807 0.0
C527 C 0.37657 0.54877 0.26721 0.0
C528 C 0.40897 0.53639 0.41155 0.0
C529 C 0.39995 0.5578 0.20965 0.0
C530 C 0.42703 0.55704 0.25218 0.0
C531 C 0.45876 0.54859 0.40038 0.0
C532 C 0.46398 0.53873 0.50296 0.0
C533 C 0.43173 0.5472 0.35423 0.0
C534 C 0.4416 0.52597 0.55578 0.0
C535 C 0.41436 0.52544 0.51203 0.0
H536 H 0.05701 0.3808 0.30921 0.0
H537 H 0.9753 0.39081 0.16998 0.0
H538 H 0.96745 0.43296 0.27884 0.0
H539 H 0.98488 0.47002 0.40121 0.0
H540 H 0.06476 0.46035 0.55293 0.0
H541 H 0.07192 0.41553 0.45467 0.0
C542 C 0.03719 0.39173 0.30487 0.0
C543 C 1.01685 0.38228 0.22948 0.0
C544 C 0.0325 0.41649 0.3698 0.0
C545 C 0.99146 0.3973 0.22573 0.0
C546 C 0.98694 0.42167 0.28801 0.0
C547 C 1.00371 0.45791 0.4142 0.0
C548 C 0.02415 0.46876 0.48515 0.0
C549 C 1.00751 0.43195 0.35817 0.0
C550 C 0.04842 0.45257 0.5003 0.0
C551 C 0.05258 0.42688 0.44326 0.0
H552 H 0.89649 0.05139 0.19423 0.0
H553 H 0.84674 0.98916 0.02469 0.0
H554 H 0.88245 0.9861 0.88606 0.0
H555 H 0.92966 0.99942 0.81551 0.0
H556 H 0.97957 0.05912 0.99659 0.0
H557 H 0.94275 0.06367 0.12859 0.0
C558 C 0.89332 0.03662 0.12856 0.0
C559 C 0.86847 1.02029 0.12289 0.0
C560 C 0.9145 0.03415 0.05052 0.0
C561 C 0.8651 1.00233 0.03286 0.0
C562 C 0.88583 1.00032 0.95331 0.0
C563 C 0.93243 1.01345 0.88376 0.0
C564 C 0.95785 0.02864 0.89574 0.0
C565 C 0.91087 1.0159 0.96156 0.0
C566 C 0.96076 0.0467 0.98529 0.0
C567 C 0.93949 0.04951 0.06099 0.0
H568 H 0.49135 0.90672 0.17084 0.0
H569 H 0.5705 0.86924 0.08386 0.0
H570 H 0.57656 0.90378 0.94623 0.0
H571 H 0.56025 0.94642 0.85445 0.0
H572 H 0.48145 0.98372 0.94636 0.0
H573 H 0.47461 0.94789 0.0776 0.0
C574 C 0.51001 0.90601 0.12213 0.0
C575 C 0.53045 0.88516 0.13897 0.0
C576 C 0.51354 0.92621 0.04375 0.0
C577 C 0.55418 0.88461 0.07278 0.0
C578 C 0.55778 0.90459 0.99426 0.0
C579 C 0.54154 0.94656 0.90297 0.0
C580 C 0.52163 0.96815 0.89165 0.0
C581 C 0.53773 0.92572 0.97947 0.0
C582 C 0.49739 0.96781 0.9546 0.0
C583 C 0.49339 0.94719 0.02961 0.0
H584 H 0.65014 0.49764 0.15192 0.0
H585 H 0.68829 0.57081 0.02157 0.0
H586 H 0.64904 0.57464 0.89687 0.0
H587 H 0.6006 0.55985 0.83698 0.0
H588 H 0.56309 0.48783 0.9789 0.0
H589 H 0.60466 0.48141 0.08667 0.0
C590 C 0.65009 0.51451 0.09638 0.0
C591 C 0.67241 0.53409 0.09837 0.0
C592 C 0.6271 0.51698 0.02658 0.0
C593 C 0.67178 0.55526 0.02281 0.0
C594 C 0.64907 0.5576 0.95164 0.0
C595 C 0.60191 0.54232 0.88933 0.0
C596 C 0.57861 0.52403 0.89796 0.0
C597 C 0.62617 0.53893 0.95409 0.0
C598 C 0.58055 0.50206 0.96938 0.0
C599 C 0.60441 0.49839 0.03164 0.0
H600 H 0.97882 0.68156 0.98882 0.0
H601 H 0.05595 0.68243 0.16597 0.0
H602 H 0.06959 0.63785 0.07912 0.0
H603 H 0.05853 0.59669 0.95968 0.0
H604 H 0.98267 0.59705 0.77551 0.0
H605 H 0.9697 0.64248 0.85762 0.0
C606 C 0.99877 0.67218 1.008 0.0
C607 C 1.01624 0.68574 0.08521 0.0
C608 C 1.00668 0.64641 0.9564 0.0
C609 C 0.04209 0.673 0.10712 0.0
C610 C 0.04983 0.64724 0.05769 0.0
C611 C 0.03931 0.60689 0.93648 0.0
C612 C 0.02178 0.5933 0.86005 0.0
C613 C 0.03217 0.63348 0.98322 0.0
C614 C 0.99685 0.60694 0.83219 0.0
C615 C 0.98935 0.63298 0.87989 0.0
H616 H 0.10479 0.20284 0.1975 0.0
H617 H 0.06412 0.27145 0.36569 0.0
H618 H 0.05828 0.24289 0.51838 0.0
H619 H 0.04398 0.19548 0.56258 0.0
H620 H 0.06961 0.12584 0.35945 0.0
H621 H 0.10183 0.15587 0.26839 0.0
C622 C 0.09518 0.21172 0.26865 0.0
C623 C 0.08215 0.23816 0.26539 0.0
C624 C 0.08792 0.19389 0.35028 0.0
C625 C 0.07277 0.2505 0.3618 0.0
C626 C 0.06892 0.2339 0.44967 0.0
C627 C 0.05713 0.18676 0.49989 0.0
C628 C 0.05247 0.15914 0.46184 0.0
C629 C 0.07292 0.20488 0.43851 0.0
C630 C 0.07146 0.14741 0.38755 0.0
C631 C 0.08984 0.16477 0.33398 0.0
H632 H 0.31398 0.99294 0.34621 0.0
H633 H 0.36328 0.06862 0.34028 0.0
H634 H 0.38982 0.05384 0.49441 0.0
H635 H 0.40519 1.01521 0.60134 0.0
H636 H 0.35944 0.93736 0.59596 0.0
H637 H 0.32452 0.95737 0.47801 0.0
C638 C 0.32987 1.00658 0.38126 0.0
C639 C 0.33698 0.03166 0.33212 0.0
C640 C 0.34577 0.99735 0.46677 0.0
C641 C 0.35774 0.04914 0.37691 0.0
C642 C 0.37291 0.04064 0.4645 0.0
C643 C 0.38702 1.003 0.57757 0.0
C644 C 0.38504 0.97479 0.60565 0.0
C645 C 0.36806 1.01415 0.50606 0.0
C646 C 0.3614 0.95911 0.57486 0.0
C647 C 0.34166 0.97045 0.50645 0.0
H648 H 0.42256 0.34678 0.21136 0.0
H649 H 0.49482 0.31182 0.36129 0.0
H650 H 0.49946 0.35361 0.47476 0.0
H651 H 0.49637 0.40461 0.46332 0.0
H652 H 0.42832 0.44138 0.29196 0.0
H653 H 0.40821 0.39502 0.25708 0.0
C654 C 0.43813 0.34768 0.27394 0.0
C655 C 0.45954 0.32747 0.27318 0.0
C656 C 0.44225 0.37297 0.33134 0.0
C657 C 0.4788 0.32783 0.35724 0.0
C658 C 0.48185 0.35209 0.42077 0.0
C659 C 0.47629 0.40269 0.42369 0.0
C660 C 0.46472 0.42604 0.37434 0.0
C661 C 0.46586 0.37584 0.39849 0.0
C662 C 0.43823 0.42339 0.32643 0.0
C663 C 0.42683 0.39683 0.30587 0.0
H664 H 0.23819 0.49805 0.35405 0.0
H665 H 0.23049 0.43571 0.10264 0.0
H666 H 0.1841 0.42311 0.16513 0.0
H667 H 0.14201 0.44396 0.24301 0.0
H668 H 0.14978 0.50331 0.50743 0.0
H669 H 0.20023 0.50309 0.48646 0.0
C670 C 0.22721 0.48038 0.31726 0.0
C671 C 0.23648 0.46934 0.21904 0.0
C672 C 0.20002 0.4741 0.35139 0.0
C673 C 0.223 0.44536 0.17596 0.0
C674 C 0.1961 0.43865 0.21013 0.0
C675 C 0.15423 0.45614 0.29981 0.0
C676 C 0.14143 0.47599 0.36947 0.0
C677 C 0.18346 0.45515 0.2904 0.0
C678 C 0.1586 0.49004 0.44515 0.0
C679 C 0.18769 0.48953 0.43494 0.0
H680 H 0.04263 0.83045 0.95962 0.0
H681 H 0.11774 0.82632 0.1464 0.0
H682 H 0.14359 0.85206 0.01292 0.0
H683 H 0.1414 0.88465 0.86602 0.0
H684 H 0.06337 0.89552 0.70288 0.0
H685 H 0.04223 0.85767 0.79928 0.0
C686 C 0.06492 0.83429 0.96838 0.0
C687 C 0.07847 0.82667 0.0613 0.0
C688 C 0.079 0.85053 0.89499 0.0
C689 C 0.10715 0.83205 0.07439 0.0
C690 C 0.12178 0.84691 0.99868 0.0
C691 C 0.12019 0.87774 0.84883 0.0
C692 C 0.10409 0.89219 0.77546 0.0
C693 C 0.10751 0.85759 0.9117 0.0
C694 C 0.07635 0.88391 0.75573 0.0
C695 C 0.06412 0.86264 0.81271 0.0
H696 H 0.69108 0.93843 0.15228 0.0
H697 H 0.75845 0.97774 0.98568 0.0
H698 H 0.72849 0.98378 0.83434 0.0
H699 H 0.68136 1.00048 0.7995 0.0
H700 H 0.61343 0.97584 1.00007 0.0
H701 H 0.64345 0.94173 0.08255 0.0
C702 C 0.69937 0.94755 0.08121 0.0
C703 C 0.72575 0.96076 0.08526 0.0
C704 C 0.68079 0.95504 1.00113 0.0
C705 C 0.73745 0.9693 0.9891 0.0
C706 C 0.72005 0.97329 0.90219 0.0
C707 C 0.67283 0.98696 0.85852 0.0
C708 C 0.64604 0.99248 0.90003 0.0
C709 C 0.6911 0.97003 0.91463 0.0
C710 C 0.63452 0.9733 0.97049 0.0
C711 C 0.65186 0.95389 0.01888 0.0
H712 H 0.56958 0.7516 0.02686 0.0
H713 H 0.63444 0.73714 0.25494 0.0
H714 H 0.64669 0.6932 0.16378 0.0
H715 H 0.62512 0.65352 0.07155 0.0
H716 H 0.56131 0.66729 0.83573 0.0
H717 H 0.56286 0.71723 0.87735 0.0
C718 C 0.58766 0.73978 0.05216 0.0
C719 C 0.59997 0.74636 0.15075 0.0
C720 C 0.59356 0.71377 1.00226 0.0
C721 C 0.62409 0.73176 0.18075 0.0
C722 C 0.63068 0.70627 0.12986 0.0
C723 C 0.61194 0.66693 0.02567 0.0
C724 C 0.59024 0.65581 0.96091 0.0
C725 C 0.6133 0.69582 0.04836 0.0
C726 C 0.57574 0.67464 0.89636 0.0
C727 C 0.57697 0.70349 0.9184 0.0
H728 H 0.8372 0.61874 0.10208 0.0
H729 H 0.80924 0.54139 0.95358 0.0
H730 H 0.8508 0.53985 0.84232 0.0
H731 H 0.90113 0.54808 0.85895 0.0
H732 H 0.93129 0.62049 0.03558 0.0
H733 H 0.88354 0.63745 0.05909 0.0
C734 C 0.83948 0.60261 0.04025 0.0
C735 C 0.82139 0.57936 0.03973 0.0
C736 C 0.8647 0.60057 0.98414 0.0
C737 C 0.82357 0.55902 0.9576 0.0
C738 C 0.84766 0.55789 0.8952 0.0
C739 C 0.89733 0.56847 0.8967 0.0
C740 C 0.91913 0.58207 0.95251 0.0
C741 C 0.86968 0.57659 0.91808 0.0
C742 C 0.91441 0.60907 0.99639 0.0
C743 C 0.88702 0.61852 0.01134 0.0
H744 H 0.06347 0.201 0.84441 0.0
H745 H 0.99163 0.2023 0.04973 0.0
H746 H 0.97856 0.15511 0.9849 0.0
H747 H 0.98876 0.11179 0.87593 0.0
H748 H 0.05801 0.11192 0.65883 0.0
H749 H 0.0706 0.15958 0.72027 0.0
C750 C 0.04442 0.19136 0.87244 0.0
C751 C 0.02815 0.20594 0.95044 0.0
C752 C 0.03691 0.16388 0.83411 0.0
C753 C 1.00409 0.19233 0.98773 0.0
C754 C 0.99683 0.165 0.95155 0.0
C755 C 1.00682 0.12213 0.84286 0.0
C756 C 0.02348 0.10724 0.76714 0.0
C757 C 1.01333 0.15025 0.87619 0.0
C758 C 0.04578 0.12188 0.72147 0.0
C759 C 0.05274 0.14948 0.75567 0.0
H760 H 0.36035 0.07397 0.88959 0.0
H761 H 0.36619 0.9902 1.0057 0.0
H762 H 0.40998 0.98276 0.90992 0.0
H763 H 0.44801 1.00014 0.7967 0.0
H764 H 0.44164 0.08241 0.66884 0.0
H765 H 0.39716 0.09022 0.76309 0.0
C766 C 0.3707 0.05378 0.89085 0.0
C767 C 0.35941 0.03247 0.95392 0.0
C768 C 0.39623 0.04945 0.83402 0.0
C769 C 0.37386 1.00676 0.95652 0.0
C770 C 0.39916 1.00254 0.90225 0.0
C771 C 0.43696 1.01986 0.79021 0.0
C772 C 0.44864 0.041 0.72811 0.0
C773 C 0.41084 0.0238 0.84198 0.0
C774 C 0.43351 0.06604 0.71783 0.0
C775 C 0.40789 0.07041 0.77124 0.0
H776 H 0.458 0.37183 0.93511 0.0
H777 H 0.54409 0.34523 0.91639 0.0
H778 H 0.55633 0.3889 0.82906 0.0
H779 H 0.54316 0.43708 0.77273 0.0
H780 H 0.45704 0.46341 0.80438 0.0
H781 H 0.44463 0.41806 0.87356 0.0
C782 C 0.47951 0.37537 0.91162 0.0
C783 C 0.50006 0.35497 0.93377 0.0
C784 C 0.48656 0.40098 0.86499 0.0
C785 C 0.52765 0.36011 0.90019 0.0
C786 C 0.53474 0.38538 0.85119 0.0
C787 C 0.52163 0.43282 0.79362 0.0
C788 C 0.50117 0.45414 0.78334 0.0
C789 C 0.51448 0.40635 0.83535 0.0
C790 C 0.47341 0.44789 0.81175 0.0
C791 C 0.46619 0.42176 0.85131 0.0
H792 H 0.20377 0.48835 0.86518 0.0
H793 H 0.20779 0.57397 0.98299 0.0
H794 H 0.16288 0.58375 0.89649 0.0
H795 H 0.11919 0.56624 0.80394 0.0
H796 H 0.11496 0.47915 0.70291 0.0
H797 H 0.1624 0.47174 0.76715 0.0
C798 C 0.19511 0.50935 0.87127 0.0
C799 C 0.20957 0.53031 0.93191 0.0
C800 C 0.1686 0.51445 0.82533 0.0
C801 C 0.19773 0.55737 0.9366 0.0
C802 C 0.17166 0.56287 0.88808 0.0
C803 C 0.12887 0.5458 0.79413 0.0
C804 C 0.11321 0.5233 0.74745 0.0
C805 C 0.15641 0.54137 0.8346 0.0
C806 C 0.12619 0.49687 0.73796 0.0
C807 C 0.15347 0.49258 0.77495 0.0
H808 H 0.99373 0.86467 0.4154 0.0
H809 H 0.084 0.86159 0.41075 0.0
H810 H 0.08642 0.90682 0.50338 0.0
H811 H 0.06372 0.94867 0.58415 0.0
H812 H 0.97428 0.94975 0.61942 0.0
H813 H 0.97078 0.90462 0.5204 0.0
C814 C 1.01393 0.87342 0.43729 0.0
C815 C 0.03869 0.85928 0.40287 0.0
C816 C 1.0154 0.89971 0.49571 0.0
C817 C 0.06449 0.87167 0.43334 0.0
C818 C 0.066 0.89789 0.48609 0.0
C819 C 0.04341 0.93918 0.56926 0.0
C820 C 1.01918 0.95353 0.60511 0.0
C821 C 0.04168 0.91244 0.51642 0.0
C822 C 0.99324 0.93993 0.5895 0.0
C823 C 0.99127 0.91384 0.53344 0.0
H824 H 0.6644 0.02099 0.27213 0.0
H825 H 0.7175 1.01845 0.54796 0.0
H826 H 0.67692 0.02888 0.66088 0.0
H827 H 0.62543 0.03395 0.68423 0.0
H828 H 0.57329 0.04088 0.4094 0.0
H829 H 0.61383 0.03181 0.29448 0.0
C830 C 0.66725 0.02233 0.3572 0.0
C831 C 0.69441 1.01821 0.40066 0.0
C832 C 0.64356 0.02765 0.42264 0.0
C833 C 0.69726 0.02128 0.51119 0.0
C834 C 0.67383 0.02668 0.57638 0.0
C835 C 0.62283 0.0328 0.59919 0.0
C836 C 0.59561 0.03553 0.55603 0.0
C837 C 0.64674 0.02897 0.53349 0.0
C838 C 0.59327 0.03646 0.4454 0.0
C839 C 0.61672 0.03185 0.37951 0.0
H840 H 0.5852 0.70558 0.48431 0.0
H841 H 0.49786 0.72424 0.43848 0.0
H842 H 0.4851 0.68031 0.52315 0.0
H843 H 0.4991 0.63393 0.59384 0.0
H844 H 0.58695 0.61503 0.62598 0.0
H845 H 0.59901 0.66114 0.5615 0.0
C846 C 0.56328 0.70024 0.49321 0.0
C847 C 0.54257 0.71841 0.45342 0.0
C848 C 0.55617 0.67442 0.53807 0.0
C849 C 0.51433 0.71107 0.46839 0.0
C850 C 0.50705 0.68565 0.51583 0.0
C851 C 0.52088 0.63996 0.58768 0.0
C852 C 0.54207 0.62054 0.61389 0.0
C853 C 0.5278 0.66673 0.54842 0.0
C854 C 0.57015 0.62907 0.60515 0.0
C855 C 0.5771 0.65561 0.56854 0.0
H856 H 0.85174 0.50777 0.39869 0.0
H857 H 0.8474 0.59796 0.41933 0.0
H858 H 0.89151 0.59982 0.51695 0.0
H859 H 0.93391 0.57637 0.58428 0.0
H860 H 0.9381 0.48614 0.57174 0.0
H861 H 0.89218 0.48382 0.48568 0.0
C862 C 0.85991 0.52776 0.42781 0.0
C863 C 0.84558 0.55272 0.40235 0.0
C864 C 0.88586 0.52875 0.48456 0.0
C865 C 0.85737 0.57838 0.43878 0.0
C866 C 0.88292 0.57949 0.49395 0.0
C867 C 0.92468 0.55613 0.56402 0.0
C868 C 0.93992 0.53145 0.58511 0.0
C869 C 0.89778 0.55491 0.51532 0.0
C870 C 0.92716 0.50554 0.55803 0.0
C871 C 0.90074 0.5042 0.5079 0.0
loop_
_geom_bond_atom_site_label_1
_geom_bond_atom_site_label_2
_geom_bond_distance
_geom_bond_site_symmetry_2
_ccdc_geom_bond_type
H0 C1 0.949 . S
C1 H0 0.949 . S
C1 C2 1.395 . S
C1 C3 1.391 . S
C2 C1 1.395 . S
C2 C5 1.390 . S
C3 C1 1.391 . S
C3 C7 1.387 . S
C3 C8 1.491 . S
H4 C5 0.950 . S
C5 C2 1.390 . S
C5 H4 0.950 . S
C5 C6 1.378 . S
C6 C5 1.378 . S
C6 C7 1.409 . S
C7 C3 1.387 . S
C7 C6 1.409 . S
C7 H9 0.951 . S
C8 C3 1.491 . S
C8 C10 1.382 . S
C8 C12 1.404 . S
H9 C7 0.951 . S
C10 C8 1.382 . S
C10 C11 1.390 . S
C10 H15 0.949 . S
C11 C10 1.390 . S
C11 C16 1.399 . S
C12 C8 1.404 . S
C12 H13 0.950 . S
C12 C14 1.375 . S
H13 C12 0.950 . S
C14 C12 1.375 . S
C14 C16 1.382 . S
C14 H18 0.950 . S
H15 C10 0.949 . S
C16 C11 1.399 . S
C16 C14 1.382 . S
C16 H17 0.952 . S
H17 C16 0.952 . S
H18 C14 0.950 . S
H19 C20 0.949 . S
C20 H19 0.949 . S
C20 C21 1.395 . S
C20 C22 1.391 . S
C21 C20 1.395 . S
C21 C24 1.390 . S
C22 C20 1.391 . S
C22 C26 1.387 . S
C22 C27 1.491 . S
H23 C24 0.950 . S
C24 C21 1.390 . S
C24 H23 0.950 . S
C24 C25 1.378 . S
C25 C24 1.378 . S
C25 C26 1.409 . S
C26 C22 1.387 . S
C26 C25 1.409 . S
C26 H28 0.951 . S
C27 C22 1.491 . S
C27 C29 1.382 . S
C27 C31 1.404 . S
H28 C26 0.951 . S
C29 C27 1.382 . S
C29 C30 1.390 . S
C29 H34 0.949 . S
C30 C29 1.390 . S
C30 C35 1.399 . S
C31 C27 1.404 . S
C31 H32 0.950 . S
C31 C33 1.375 . S
H32 C31 0.950 . S
C33 C31 1.375 . S
C33 C35 1.382 . S
C33 H37 0.950 . S
H34 C29 0.949 . S
C35 C30 1.399 . S
C35 C33 1.382 . S
C35 H36 0.952 . S
H36 C35 0.952 . S
H37 C33 0.950 . S
H38 C39 0.949 . S
C39 H38 0.949 . S
C39 C40 1.395 . S
C39 C41 1.391 . S
C40 C39 1.395 . S
C40 C43 1.390 . S
C41 C39 1.391 . S
C41 C45 1.387 . S
C41 C46 1.491 . S
H42 C43 0.950 . S
C43 C40 1.390 . S
C43 H42 0.950 . S
C43 C44 1.378 . S
C44 C43 1.378 . S
C44 C45 1.409 . S
C45 C41 1.387 . S
C45 C44 1.409 . S
C45 H47 0.951 . S
C46 C41 1.491 . S
C46 C48 1.382 . S
C46 C50 1.404 . S
H47 C45 0.951 . S
C48 C46 1.382 . S
C48 C49 1.390 . S
C48 H53 0.949 . S
C49 C48 1.390 . S
C49 C54 1.399 . S
C50 C46 1.404 . S
C50 H51 0.950 . S
C50 C52 1.375 . S
H51 C50 0.950 . S
C52 C50 1.375 . S
C52 C54 1.382 . S
C52 H56 0.950 . S
H53 C48 0.949 . S
C54 C49 1.399 . S
C54 C52 1.382 . S
C54 H55 0.952 . S
H55 C54 0.952 . S
H56 C52 0.950 . S
H57 C58 0.949 . S
C58 H57 0.949 . S
C58 C59 1.395 . S
C58 C60 1.391 . S
C59 C58 1.395 . S
C59 C62 1.390 . S
C60 C58 1.391 . S
C60 C64 1.387 . S
C60 C65 1.491 . S
H61 C62 0.950 . S
C62 C59 1.390 . S
C62 H61 0.950 . S
C62 C63 1.378 . S
C63 C62 1.378 . S
C63 C64 1.409 . S
C64 C60 1.387 . S
C64 C63 1.409 . S
C64 H66 0.951 . S
C65 C60 1.491 . S
C65 C67 1.382 . S
C65 C69 1.404 . S
H66 C64 0.951 . S
C67 C65 1.382 . S
C67 C68 1.390 . S
C67 H72 0.949 . S
C68 C67 1.390 . S
C68 C73 1.399 . S
C69 C65 1.404 . S
C69 H70 0.950 . S
C69 C71 1.375 . S
H70 C69 0.950 . S
C71 C69 1.375 . S
C71 C73 1.382 . S
C71 H75 0.950 . S
H72 C67 0.949 . S
C73 C68 1.399 . S
C73 C71 1.382 . S
C73 H74 0.952 . S
H74 C73 0.952 . S
H75 C71 0.950 . S
H76 C77 0.949 . S
C77 H76 0.949 . S
C77 C78 1.395 . S
C77 C79 1.391 1_554 S
C78 C77 1.395 . S
C78 C81 1.390 1_554 S
C79 C77 1.391 1_556 S
C79 C83 1.387 . S
C79 C84 1.491 . S
H80 C81 0.950 . S
C81 C78 1.390 1_556 S
C81 H80 0.950 . S
C81 C82 1.378 . S
C82 C81 1.378 . S
C82 C83 1.409 . S
C83 C79 1.387 . S
C83 C82 1.409 . S
C83 H85 0.951 . S
C84 C79 1.491 . S
C84 C86 1.382 1_556 S
C84 C88 1.404 . S
H85 C83 0.951 . S
C86 C84 1.382 1_554 S
C86 C87 1.390 . S
C86 H91 0.949 . S
C87 C86 1.390 . S
C87 C92 1.399 1_554 S
C88 C84 1.404 . S
C88 H89 0.950 . S
C88 C90 1.375 . S
H89 C88 0.950 . S
C90 C88 1.375 . S
C90 C92 1.382 . S
C90 H94 0.950 . S
H91 C86 0.949 . S
C92 C87 1.399 1_556 S
C92 C90 1.382 . S
C92 H93 0.952 . S
H93 C92 0.952 . S
H94 C90 0.950 . S
H95 C96 0.949 . S
C96 H95 0.949 . S
C96 C97 1.395 . S
C96 C98 1.391 1_554 S
C97 C96 1.395 . S
C97 C100 1.390 1_554 S
C98 C96 1.391 1_556 S
C98 C102 1.387 . S
C98 C103 1.491 . S
H99 C100 0.950 . S
C100 C97 1.390 1_556 S
C100 H99 0.950 . S
C100 C101 1.378 . S
C101 C100 1.378 . S
C101 C102 1.409 . S
C102 C98 1.387 . S
C102 C101 1.409 . S
C102 H104 0.951 . S
C103 C98 1.491 . S
C103 C105 1.382 1_556 S
C103 C107 1.404 . S
H104 C102 0.951 . S
C105 C103 1.382 1_554 S
C105 C106 1.390 . S
C105 H110 0.949 . S
C106 C105 1.390 . S
C106 C111 1.399 1_554 S
C107 C103 1.404 . S
C107 H108 0.950 . S
C107 C109 1.375 . S
H108 C107 0.950 . S
C109 C107 1.375 . S
C109 C111 1.382 . S
C109 H113 0.950 . S
H110 C105 0.949 . S
C111 C106 1.399 1_556 S
C111 C109 1.382 . S
C111 H112 0.952 . S
H112 C111 0.952 . S
H113 C109 0.950 . S
H114 C115 0.949 . S
C115 H114 0.949 . S
C115 C116 1.395 . S
C115 C117 1.391 1_554 S
C116 C115 1.395 . S
C116 C119 1.390 1_554 S
C117 C115 1.391 1_556 S
C117 C121 1.387 . S
C117 C122 1.491 . S
H118 C119 0.950 . S
C119 C116 1.390 1_556 S
C119 H118 0.950 . S
C119 C120 1.378 . S
C120 C119 1.378 . S
C120 C121 1.409 . S
C121 C117 1.387 . S
C121 C120 1.409 . S
C121 H123 0.951 . S
C122 C117 1.491 . S
C122 C124 1.382 1_556 S
C122 C126 1.404 . S
H123 C121 0.951 . S
C124 C122 1.382 1_554 S
C124 C125 1.390 . S
C124 H129 0.949 . S
C125 C124 1.390 . S
C125 C130 1.399 1_554 S
C126 C122 1.404 . S
C126 H127 0.950 . S
C126 C128 1.375 . S
H127 C126 0.950 . S
C128 C126 1.375 . S
C128 C130 1.382 . S
C128 H132 0.950 . S
H129 C124 0.949 . S
C130 C125 1.399 1_556 S
C130 C128 1.382 . S
C130 H131 0.952 . S
H131 C130 0.952 . S
H132 C128 0.950 . S
H133 C134 0.949 . S
C134 H133 0.949 . S
C134 C135 1.395 . S
C134 C136 1.391 1_554 S
C135 C134 1.395 . S
C135 C138 1.390 1_554 S
C136 C134 1.391 1_556 S
C136 C140 1.387 . S
C136 C141 1.491 . S
H137 C138 0.950 . S
C138 C135 1.390 1_556 S
C138 H137 0.950 . S
C138 C139 1.378 . S
C139 C138 1.378 . S
C139 C140 1.409 . S
C140 C136 1.387 . S
C140 C139 1.409 . S
C140 H142 0.951 . S
C141 C136 1.491 . S
C141 C143 1.382 1_556 S
C141 C145 1.404 . S
H142 C140 0.951 . S
C143 C141 1.382 1_554 S
C143 C144 1.390 . S
C143 H148 0.949 . S
C144 C143 1.390 . S
C144 C149 1.399 1_554 S
C145 C141 1.404 . S
C145 H146 0.950 . S
C145 C147 1.375 . S
H146 C145 0.950 . S
C147 C145 1.375 . S
C147 C149 1.382 . S
C147 H151 0.950 . S
H148 C143 0.949 . S
C149 C144 1.399 1_556 S
C149 C147 1.382 . S
C149 H150 0.952 . S
H150 C149 0.952 . S
H151 C147 0.950 . S
Gd152 N183 2.654 1_545 S
Gd152 N189 2.601 . S
Gd152 O196 2.545 . S
Gd152 O197 2.606 1_655 S
Gd152 O199 2.429 . S
Gd152 O200 2.545 1_655 S
Gd152 O201 2.412 . S
Gd152 O203 2.362 1_545 S
Gd152 O204 2.324 1_655 S
Gd152 C211 2.828 . S
Gd153 N162 2.661 1_565 S
Gd153 N166 2.601 1_565 S
Gd153 O197 2.362 1_565 S
Gd153 O198 2.326 1_455 S
Gd153 O202 2.545 . S
Gd153 O203 2.606 1_455 S
Gd153 O205 2.429 . S
Gd153 O206 2.545 . S
Gd153 O207 2.412 . S
Gd153 C220 2.828 . S
C154 C157 1.417 1_554 S
C154 C159 1.431 . S
C154 C160 1.412 . S
C155 C158 1.437 . S
C155 C159 1.317 . S
C155 H174 0.929 . S
C156 C157 1.426 . S
C156 C158 1.413 1_556 S
C156 N166 1.359 . S
C157 C154 1.417 1_556 S
C157 C156 1.426 . S
C157 N162 1.350 . S
C158 C155 1.437 . S
C158 C156 1.413 1_554 S
C158 C168 1.391 1_554 S
C159 C154 1.431 . S
C159 C155 1.317 . S
C159 H170 0.930 . S
C160 C154 1.412 . S
C160 C161 1.355 . S
C160 H172 0.930 . S
C161 C160 1.355 . S
C161 C163 1.402 1_554 S
C161 H173 0.930 1_455 S
N162 Gd153 2.661 1_545 S
N162 C157 1.350 . S
N162 C163 1.307 . S
C163 C161 1.402 1_556 S
C163 N162 1.307 . S
C163 H164 0.930 1_455 S
H164 C163 0.930 1_655 S
C165 N166 1.334 1_565 S
C165 C167 1.394 . S
C165 H169 0.930 . S
N166 Gd153 2.601 1_545 S
N166 C156 1.359 . S
N166 C165 1.334 1_545 S
C167 C165 1.394 . S
C167 C168 1.359 1_565 S
C167 H179 0.930 . S
C168 C158 1.391 1_556 S
C168 C167 1.359 1_545 S
C168 H180 0.929 . S
H169 C165 0.930 . S
H170 C159 0.930 . S
H171 C188 0.930 . S
H172 C160 0.930 . S
H173 C161 0.930 1_655 S
H174 C155 0.929 . S
H175 C193 0.930 . S
H176 C184 0.930 . S
H177 C185 0.930 . S
H178 C209 0.929 . S
H179 C167 0.930 . S
H180 C168 0.929 . S
H181 C210 0.930 . S
H182 C191 0.930 . S
N183 Gd152 2.654 1_565 S
N183 C187 1.353 . S
N183 C188 1.312 1_655 S
C184 H176 0.930 . S
C184 C185 1.355 1_655 S
C184 C186 1.412 . S
C185 H177 0.930 . S
C185 C184 1.355 1_455 S
C185 C188 1.402 . S
C186 C184 1.412 . S
C186 C187 1.417 . S
C186 C210 1.431 . S
C187 N183 1.353 . S
C187 C186 1.417 . S
C187 C190 1.426 1_565 S
C188 H171 0.930 . S
C188 N183 1.312 1_455 S
C188 C185 1.402 . S
N189 Gd152 2.601 . S
N189 C190 1.359 . S
N189 C193 1.334 . S
C190 C187 1.426 1_545 S
C190 N189 1.359 . S
C190 C194 1.413 1_545 S
C191 H182 0.930 . S
C191 C192 1.359 . S
C191 C193 1.394 . S
C192 C191 1.359 . S
C192 C194 1.391 1_545 S
C192 H195 0.929 . S
C193 H175 0.930 . S
C193 N189 1.334 . S
C193 C191 1.394 . S
C194 C190 1.413 1_565 S
C194 C192 1.391 1_565 S
C194 C209 1.437 . S
H195 C192 0.929 . S
O196 Gd152 2.545 . S
O196 C211 1.258 . S
O197 Gd152 2.606 1_455 S
O197 Gd153 2.362 1_545 S
O197 C208 1.284 . S
O198 Gd153 2.326 1_655 S
O198 C218 1.251 1_565 S
O199 Gd152 2.429 . S
O199 C218 1.268 . S
O200 Gd152 2.545 1_455 S
O200 C208 1.250 . S
O201 Gd152 2.412 . S
O201 C211 1.252 . S
O202 Gd153 2.545 . S
O202 C220 1.258 . S
O203 Gd152 2.362 1_565 S
O203 Gd153 2.606 1_655 S
O203 C219 1.284 . S
O204 Gd152 2.324 1_455 S
O204 C227 1.254 . S
O205 Gd153 2.429 . S
O205 C227 1.268 1_565 S
O206 Gd153 2.545 . S
O206 C219 1.250 1_455 S
O207 Gd153 2.412 . S
O207 C220 1.252 . S
C208 O197 1.284 . S
C208 O200 1.250 . S
C209 H178 0.929 . S
C209 C194 1.437 . S
C209 C210 1.317 . S
C210 H181 0.930 . S
C210 C186 1.431 . S
C210 C209 1.317 . S
C211 Gd152 2.828 . S
C211 O196 1.258 . S
C211 O201 1.252 . S
C211 C212 1.497 . S
C212 C211 1.497 . S
C212 C213 1.395 . S
C212 C214 1.380 . S
C213 C212 1.395 . S
C213 C216 1.398 . S
C213 H228 0.930 . S
C214 C212 1.380 . S
C214 C215 1.391 . S
C214 H229 0.930 1_655 S
C215 C214 1.391 . S
C215 C217 1.387 . S
C216 C213 1.398 . S
C216 C217 1.380 . S
C216 H230 0.930 . S
C217 C215 1.387 . S
C217 C216 1.380 . S
C217 H231 0.930 . S
C218 O198 1.251 1_545 S
C218 O199 1.268 . S
C219 O203 1.284 . S
C219 O206 1.250 1_655 S
C220 Gd153 2.828 . S
C220 O202 1.258 . S
C220 O207 1.252 . S
C220 C221 1.497 . S
C221 C220 1.497 . S
C221 C222 1.395 . S
C221 C223 1.380 1_556 S
C222 C221 1.395 . S
C222 C225 1.398 1_556 S
C222 H232 0.930 . S
C223 C221 1.380 1_554 S
C223 C224 1.391 . S
C223 H233 0.943 1_554 S
C224 C223 1.391 . S
C224 C226 1.387 . S
C225 C222 1.398 1_554 S
C225 C226 1.380 . S
C225 H234 0.930 . S
C226 C224 1.387 . S
C226 C225 1.380 . S
C226 H235 0.930 . S
C227 O204 1.254 . S
C227 O205 1.268 1_545 S
H228 C213 0.930 . S
H229 C214 0.930 1_455 S
H230 C216 0.930 . S
H231 C217 0.930 . S
H232 C222 0.930 . S
H233 C223 0.943 1_556 S
H234 C225 0.930 . S
H235 C226 0.930 . S
Gd236 N267 2.661 . S
Gd236 N273 2.601 . S
Gd236 O280 2.545 . S
Gd236 O281 2.606 1_565 S
Gd236 O283 2.429 . S
Gd236 O284 2.545 1_565 S
Gd236 O285 2.412 1_565 S
Gd236 O287 2.362 1_565 S
Gd236 O288 2.324 1_565 S
Gd236 C295 2.828 . S
Gd237 N246 2.661 . S
Gd237 N250 2.601 . S
Gd237 O281 2.362 . S
Gd237 O282 2.324 1_545 S
Gd237 O286 2.545 . S
Gd237 O287 2.605 . S
Gd237 O289 2.429 . S
Gd237 O290 2.545 . S
Gd237 O291 2.412 . S
Gd237 C304 2.828 . S
C238 C241 1.417 1_554 S
C238 C243 1.431 . S
C238 C244 1.412 . S
C239 C242 1.437 . S
C239 C243 1.317 . S
C239 H258 0.929 . S
C240 C241 1.426 . S
C240 C242 1.413 1_556 S
C240 N250 1.359 . S
C241 C238 1.417 1_556 S
C241 C240 1.426 . S
C241 N246 1.350 . S
C242 C239 1.437 . S
C242 C240 1.413 1_554 S
C242 C252 1.391 1_554 S
C243 C238 1.431 . S
C243 C239 1.317 . S
C243 H254 0.930 . S
C244 C238 1.412 . S
C244 C245 1.355 . S
C244 H256 0.930 . S
C245 C244 1.355 . S
C245 C247 1.402 1_554 S
C245 H257 0.930 1_545 S
N246 Gd237 2.661 . S
N246 C241 1.350 . S
N246 C247 1.307 . S
C247 C245 1.402 1_556 S
C247 N246 1.307 . S
C247 H248 0.930 1_545 S
H248 C247 0.930 1_565 S
C249 N250 1.334 . S
C249 C251 1.394 . S
C249 H253 0.930 . S
N250 Gd237 2.601 . S
N250 C240 1.359 . S
N250 C249 1.334 . S
C251 C249 1.394 . S
C251 C252 1.359 . S
C251 H263 0.930 . S
C252 C242 1.391 1_556 S
C252 C251 1.359 . S
C252 H264 0.931 . S
H253 C249 0.930 . S
H254 C243 0.930 . S
H255 C272 0.930 . S
H256 C244 0.930 . S
H257 C245 0.930 1_565 S
H258 C239 0.929 . S
H259 C277 0.930 . S
H260 C268 0.930 . S
H261 C269 0.930 . S
H262 C293 0.929 . S
H263 C251 0.930 . S
H264 C252 0.931 . S
H265 C294 0.930 . S
H266 C275 0.930 . S
N267 Gd236 2.661 . S
N267 C271 1.350 . S
N267 C272 1.307 1_565 S
C268 H260 0.930 . S
C268 C269 1.355 1_565 S
C268 C270 1.412 . S
C269 H261 0.930 . S
C269 C268 1.355 1_545 S
C269 C272 1.402 . S
C270 C268 1.412 . S
C270 C271 1.417 . S
C270 C294 1.431 . S
C271 N267 1.350 . S
C271 C270 1.417 . S
C271 C274 1.426 . S
C272 H255 0.930 . S
C272 N267 1.307 1_545 S
C272 C269 1.402 . S
N273 Gd236 2.601 . S
N273 C274 1.359 . S
N273 C277 1.334 . S
C274 C271 1.426 . S
C274 N273 1.359 . S
C274 C278 1.413 . S
C275 H266 0.930 . S
C275 C276 1.359 . S
C275 C277 1.394 . S
C276 C275 1.359 . S
C276 C278 1.391 . S
C276 H279 0.929 . S
C277 H259 0.930 . S
C277 N273 1.334 . S
C277 C275 1.394 . S
C278 C274 1.413 . S
C278 C276 1.391 . S
C278 C293 1.437 . S
H279 C276 0.929 . S
O280 Gd236 2.545 . S
O280 C295 1.258 . S
O281 Gd236 2.606 1_545 S
O281 Gd237 2.362 . S
O281 C292 1.284 . S
O282 Gd237 2.324 1_565 S
O282 C302 1.254 . S
O283 Gd236 2.429 . S
O283 C302 1.268 . S
O284 Gd236 2.545 1_545 S
O284 C292 1.250 . S
O285 Gd236 2.412 1_545 S
O285 C295 1.252 1_545 S
O286 Gd237 2.545 . S
O286 C304 1.258 . S
O287 Gd236 2.362 1_545 S
O287 Gd237 2.605 . S
O287 C303 1.284 . S
O288 Gd236 2.324 1_545 S
O288 C311 1.254 . S
O289 Gd237 2.429 . S
O289 C311 1.268 . S
O290 Gd237 2.545 . S
O290 C303 1.250 . S
O291 Gd237 2.412 . S
O291 C304 1.252 . S
C292 O281 1.284 . S
C292 O284 1.250 . S
C293 H262 0.929 . S
C293 C278 1.437 . S
C293 C294 1.317 . S
C294 H265 0.930 . S
C294 C270 1.431 . S
C294 C293 1.317 . S
C295 Gd236 2.828 . S
C295 O280 1.258 . S
C295 O285 1.252 1_565 S
C295 C296 1.497 . S
C296 C295 1.497 . S
C296 C297 1.395 . S
C296 C298 1.377 1_565 S
C297 C296 1.395 . S
C297 C300 1.398 . S
C297 H312 0.930 . S
C298 C296 1.377 1_545 S
C298 C299 1.391 1_545 S
C298 H313 0.934 . S
C299 C298 1.391 1_565 S
C299 C301 1.387 . S
C300 C297 1.398 . S
C300 C301 1.380 . S
C300 H314 0.930 . S
C301 C299 1.387 . S
C301 C300 1.380 . S
C301 H315 0.930 . S
C302 O282 1.254 . S
C302 O283 1.268 . S
C303 O287 1.284 . S
C303 O290 1.250 . S
C304 Gd237 2.828 . S
C304 O286 1.258 . S
C304 O291 1.252 . S
C304 C305 1.497 . S
C305 C304 1.497 . S
C305 C306 1.397 . S
C305 C307 1.380 1_556 S
C306 C305 1.397 . S
C306 C309 1.392 1_556 S
C306 H316 0.934 . S
C307 C305 1.380 1_554 S
C307 C308 1.391 . S
C307 H317 0.930 1_554 S
C308 C307 1.391 . S
C308 C310 1.387 . S
C309 C306 1.392 1_554 S
C309 C310 1.380 . S
C309 H318 0.930 . S
C310 C308 1.387 . S
C310 C309 1.380 . S
C310 H319 0.930 . S
C311 O288 1.254 . S
C311 O289 1.268 . S
H312 C297 0.930 . S
H313 C298 0.934 . S
H314 C300 0.930 . S
H315 C301 0.930 . S
H316 C306 0.934 . S
H317 C307 0.930 1_556 S
H318 C309 0.930 . S
H319 C310 0.930 . S
Gd320 N351 2.661 . S
Gd320 N357 2.601 . S
Gd320 O364 2.545 . S
Gd320 O365 2.606 . S
Gd320 O367 2.429 . S
Gd320 O368 2.545 . S
Gd320 O369 2.412 . S
Gd320 O371 2.362 . S
Gd320 O372 2.324 . S
Gd320 C379 2.828 . S
Gd321 N330 2.661 . S
Gd321 N334 2.601 . S
Gd321 O365 2.362 . S
Gd321 O366 2.324 . S
Gd321 O370 2.545 . S
Gd321 O371 2.606 . S
Gd321 O373 2.429 . S
Gd321 O374 2.545 . S
Gd321 O375 2.412 . S
Gd321 C388 2.828 . S
C322 C325 1.417 . S
C322 C327 1.431 . S
C322 C328 1.412 . S
C323 C326 1.437 . S
C323 C327 1.317 . S
C323 H342 0.929 . S
C324 C325 1.426 . S
C324 C326 1.413 . S
C324 N334 1.359 . S
C325 C322 1.417 . S
C325 C324 1.426 . S
C325 N330 1.350 . S
C326 C323 1.437 . S
C326 C324 1.413 . S
C326 C336 1.391 . S
C327 C322 1.431 . S
C327 C323 1.317 . S
C327 H338 0.930 . S
C328 C322 1.412 . S
C328 C329 1.355 . S
C328 H340 0.930 . S
C329 C328 1.355 . S
C329 C331 1.402 . S
C329 H341 0.930 . S
N330 Gd321 2.661 . S
N330 C325 1.350 . S
N330 C331 1.307 . S
C331 C329 1.402 . S
C331 N330 1.307 . S
C331 H332 0.930 . S
H332 C331 0.930 . S
C333 N334 1.334 . S
C333 C335 1.394 . S
C333 H337 0.930 . S
N334 Gd321 2.601 . S
N334 C324 1.359 . S
N334 C333 1.334 . S
C335 C333 1.394 . S
C335 C336 1.359 . S
C335 H347 0.930 . S
C336 C326 1.391 . S
C336 C335 1.359 . S
C336 H348 0.929 . S
H337 C333 0.930 . S
H338 C327 0.930 . S
H339 C356 0.930 . S
H340 C328 0.930 . S
H341 C329 0.930 . S
H342 C323 0.929 . S
H343 C361 0.930 . S
H344 C352 0.930 . S
H345 C353 0.930 . S
H346 C377 0.929 . S
H347 C335 0.930 . S
H348 C336 0.929 . S
H349 C378 0.930 . S
H350 C359 0.930 . S
N351 Gd320 2.661 . S
N351 C355 1.350 . S
N351 C356 1.307 . S
C352 H344 0.930 . S
C352 C353 1.355 . S
C352 C354 1.412 . S
C353 H345 0.930 . S
C353 C352 1.355 . S
C353 C356 1.402 . S
C354 C352 1.412 . S
C354 C355 1.417 . S
C354 C378 1.431 . S
C355 N351 1.350 . S
C355 C354 1.417 . S
C355 C358 1.426 . S
C356 H339 0.930 . S
C356 N351 1.307 . S
C356 C353 1.402 . S
N357 Gd320 2.601 . S
N357 C358 1.359 . S
N357 C361 1.334 . S
C358 C355 1.426 . S
C358 N357 1.359 . S
C358 C362 1.413 . S
C359 H350 0.930 . S
C359 C360 1.359 1_554 S
C359 C361 1.394 1_554 S
C360 C359 1.359 1_556 S
C360 C362 1.391 . S
C360 H363 0.929 1_556 S
C361 H343 0.930 . S
C361 N357 1.334 . S
C361 C359 1.394 1_556 S
C362 C358 1.413 . S
C362 C360 1.391 . S
C362 C377 1.437 . S
H363 C360 0.929 1_554 S
O364 Gd320 2.545 . S
O364 C379 1.258 . S
O365 Gd320 2.606 . S
O365 Gd321 2.362 . S
O365 C376 1.284 . S
O366 Gd321 2.324 . S
O366 C386 1.254 . S
O367 Gd320 2.429 . S
O367 C386 1.268 . S
O368 Gd320 2.545 . S
O368 C376 1.250 . S
O369 Gd320 2.412 . S
O369 C379 1.252 . S
O370 Gd321 2.545 . S
O370 C388 1.258 . S
O371 Gd320 2.362 . S
O371 Gd321 2.606 . S
O371 C387 1.284 . S
O372 Gd320 2.324 . S
O372 C395 1.254 . S
O373 Gd321 2.429 . S
O373 C395 1.268 . S
O374 Gd321 2.545 . S
O374 C387 1.250 . S
O375 Gd321 2.412 . S
O375 C388 1.252 . S
C376 O365 1.284 . S
C376 O368 1.250 . S
C377 H346 0.929 . S
C377 C362 1.437 . S
C377 C378 1.317 . S
C378 H349 0.930 . S
C378 C354 1.431 . S
C378 C377 1.317 . S
C379 Gd320 2.828 . S
C379 O364 1.258 . S
C379 O369 1.252 . S
C379 C380 1.497 1_556 S
C380 C379 1.497 1_554 S
C380 C381 1.395 . S
C380 C382 1.380 . S
C381 C380 1.395 . S
C381 C384 1.398 . S
C381 H396 0.930 . S
C382 C380 1.380 . S
C382 C383 1.391 . S
C382 H397 0.930 1_554 S
C383 C382 1.391 . S
C383 C385 1.387 . S
C384 C381 1.398 . S
C384 C385 1.380 . S
C384 H398 0.930 . S
C385 C383 1.387 . S
C385 C384 1.380 . S
C385 H399 0.930 . S
C386 O366 1.254 . S
C386 O367 1.268 . S
C387 O371 1.284 . S
C387 O374 1.250 . S
C388 Gd321 2.828 . S
C388 O370 1.258 . S
C388 O375 1.252 . S
C388 C389 1.497 . S
C389 C388 1.497 . S
C389 C390 1.395 . S
C389 C391 1.380 . S
C390 C389 1.395 . S
C390 C393 1.398 . S
C390 H400 0.930 . S
C391 C389 1.380 . S
C391 C392 1.391 . S
C391 H401 0.930 . S
C392 C391 1.391 . S
C392 C394 1.387 . S
C393 C390 1.398 . S
C393 C394 1.380 . S
C393 H402 0.930 . S
C394 C392 1.387 . S
C394 C393 1.380 . S
C394 H403 0.930 . S
C395 O372 1.254 . S
C395 O373 1.268 . S
H396 C381 0.930 . S
H397 C382 0.930 1_556 S
H398 C384 0.930 . S
H399 C385 0.930 . S
H400 C390 0.930 . S
H401 C391 0.930 . S
H402 C393 0.930 . S
H403 C394 0.930 . S
Gd404 N435 2.661 . S
Gd404 N441 2.611 . S
Gd404 O448 2.545 . S
Gd404 O449 2.606 1_655 S
Gd404 O451 2.429 1_655 S
Gd404 O452 2.545 . S
Gd404 O453 2.412 . S
Gd404 O455 2.362 1_655 S
Gd404 O456 2.324 . S
Gd404 C463 2.828 . S
Gd405 N414 2.661 . S
Gd405 N418 2.601 . S
Gd405 O449 2.362 . S
Gd405 O450 2.324 . S
Gd405 O454 2.545 . S
Gd405 O455 2.606 . S
Gd405 O457 2.429 1_455 S
Gd405 O458 2.545 . S
Gd405 O459 2.412 . S
Gd405 C472 2.828 . S
C406 C409 1.417 . S
C406 C411 1.431 . S
C406 C412 1.412 . S
C407 C410 1.437 . S
C407 C411 1.317 . S
C407 H426 0.929 . S
C408 C409 1.426 . S
C408 C410 1.413 . S
C408 N418 1.359 . S
C409 C406 1.417 . S
C409 C408 1.426 . S
C409 N414 1.350 . S
C410 C407 1.437 . S
C410 C408 1.413 . S
C410 C420 1.391 . S
C411 C406 1.431 . S
C411 C407 1.317 . S
C411 H422 0.930 . S
C412 C406 1.412 . S
C412 C413 1.355 . S
C412 H424 0.930 . S
C413 C412 1.355 . S
C413 C415 1.402 . S
C413 H425 0.930 . S
N414 Gd405 2.661 . S
N414 C409 1.350 . S
N414 C415 1.307 . S
C415 C413 1.402 . S
C415 N414 1.307 . S
C415 H416 0.930 . S
H416 C415 0.930 . S
C417 N418 1.337 . S
C417 C419 1.394 1_455 S
C417 H421 0.928 1_455 S
N418 Gd405 2.601 . S
N418 C408 1.359 . S
N418 C417 1.337 . S
C419 C417 1.394 1_655 S
C419 C420 1.359 1_655 S
C419 H431 0.930 . S
C420 C410 1.391 . S
C420 C419 1.359 1_455 S
C420 H432 0.929 . S
H421 C417 0.928 1_655 S
H422 C411 0.930 . S
H423 C440 0.930 . S
H424 C412 0.930 . S
H425 C413 0.930 . S
H426 C407 0.929 . S
H427 C445 0.930 . S
H428 C436 0.930 . S
H429 C437 0.930 . S
H430 C461 0.929 . S
H431 C419 0.930 . S
H432 C420 0.929 . S
H433 C462 0.930 . S
H434 C443 0.930 . S
N435 Gd404 2.661 . S
N435 C439 1.350 . S
N435 C440 1.307 . S
C436 H428 0.930 . S
C436 C437 1.355 . S
C436 C438 1.412 . S
C437 H429 0.930 . S
C437 C436 1.355 . S
C437 C440 1.402 . S
C438 C436 1.412 . S
C438 C439 1.417 . S
C438 C462 1.431 . S
C439 N435 1.350 . S
C439 C438 1.417 . S
C439 C442 1.426 . S
C440 H423 0.930 . S
C440 N435 1.307 . S
C440 C437 1.402 . S
N441 Gd404 2.611 . S
N441 C442 1.379 . S
N441 C445 1.309 1_655 S
C442 C439 1.426 . S
C442 N441 1.379 . S
C442 C446 1.413 . S
C443 H434 0.930 . S
C443 C444 1.359 1_554 S
C443 C445 1.394 1_554 S
C444 C443 1.359 1_556 S
C444 C446 1.391 1_455 S
C444 H447 0.928 1_556 S
C445 H427 0.930 . S
C445 N441 1.309 1_455 S
C445 C443 1.394 1_556 S
C446 C442 1.413 . S
C446 C444 1.391 1_655 S
C446 C461 1.437 . S
H447 C444 0.928 1_554 S
O448 Gd404 2.545 . S
O448 C463 1.258 . S
O449 Gd404 2.606 1_455 S
O449 Gd405 2.362 . S
O449 C460 1.284 1_455 S
O450 Gd405 2.324 . S
O450 C470 1.254 . S
O451 Gd404 2.429 1_455 S
O451 C470 1.268 . S
O452 Gd404 2.545 . S
O452 C460 1.250 . S
O453 Gd404 2.412 . S
O453 C463 1.252 . S
O454 Gd405 2.545 . S
O454 C472 1.258 . S
O455 Gd404 2.362 1_455 S
O455 Gd405 2.606 . S
O455 C471 1.284 . S
O456 Gd404 2.324 . S
O456 C479 1.254 . S
O457 Gd405 2.429 1_655 S
O457 C479 1.268 . S
O458 Gd405 2.545 . S
O458 C471 1.250 . S
O459 Gd405 2.412 . S
O459 C472 1.252 . S
C460 O449 1.284 1_655 S
C460 O452 1.250 . S
C461 H430 0.929 . S
C461 C446 1.437 . S
C461 C462 1.317 . S
C462 H433 0.930 . S
C462 C438 1.431 . S
C462 C461 1.317 . S
C463 Gd404 2.828 . S
C463 O448 1.258 . S
C463 O453 1.252 . S
C463 C464 1.497 1_556 S
C464 C463 1.497 1_554 S
C464 C465 1.395 . S
C464 C466 1.380 . S
C465 C464 1.395 . S
C465 C468 1.398 . S
C465 H480 0.930 . S
C466 C464 1.380 . S
C466 C467 1.391 . S
C466 H481 0.930 1_554 S
C467 C466 1.391 . S
C467 C469 1.387 . S
C468 C465 1.398 . S
C468 C469 1.380 . S
C468 H482 0.930 . S
C469 C467 1.387 . S
C469 C468 1.380 . S
C469 H483 0.930 . S
C470 O450 1.254 . S
C470 O451 1.268 . S
C471 O455 1.284 . S
C471 O458 1.250 . S
C472 Gd405 2.828 . S
C472 O454 1.258 . S
C472 O459 1.252 . S
C472 C473 1.497 . S
C473 C472 1.497 . S
C473 C474 1.395 . S
C473 C475 1.380 . S
C474 C473 1.395 . S
C474 C477 1.398 . S
C474 H484 0.930 . S
C475 C473 1.380 . S
C475 C476 1.391 . S
C475 H485 0.930 . S
C476 C475 1.391 . S
C476 C478 1.387 . S
C477 C474 1.398 . S
C477 C478 1.380 . S
C477 H486 0.930 . S
C478 C476 1.387 . S
C478 C477 1.380 . S
C478 H487 0.930 . S
C479 O456 1.254 . S
C479 O457 1.268 . S
H480 C465 0.930 . S
H481 C466 0.930 1_556 S
H482 C468 0.930 . S
H483 C469 0.930 . S
H484 C474 0.930 . S
H485 C475 0.930 . S
H486 C477 0.930 . S
H487 C478 0.930 . S
H488 C494 0.930 . S
H489 C497 0.930 . S
H490 C498 0.930 . S
H491 C499 0.930 . S
H492 C502 0.930 . S
H493 C503 0.930 . S
C494 H488 0.930 . S
C494 C495 1.355 . S
C494 C496 1.415 . S
C495 C494 1.355 . S
C495 C497 1.419 . S
C496 C494 1.415 . S
C496 C501 1.425 . S
C496 C503 1.409 . S
C497 H489 0.930 . S
C497 C495 1.419 . S
C497 C498 1.362 . S
C498 H490 0.930 . S
C498 C497 1.362 . S
C498 C501 1.409 . S
C499 H491 0.930 . S
C499 C500 1.355 . S
C499 C501 1.415 . S
C500 C499 1.355 . S
C500 C502 1.419 . S
C501 C496 1.425 . S
C501 C498 1.409 . S
C501 C499 1.415 . S
C502 H492 0.930 . S
C502 C500 1.419 . S
C502 C503 1.362 . S
C503 H493 0.930 . S
C503 C496 1.409 . S
C503 C502 1.362 . S
H504 C510 0.930 . S
H505 C513 0.930 . S
H506 C514 0.930 . S
H507 C515 0.930 . S
H508 C518 0.930 . S
H509 C519 0.930 . S
C510 H504 0.930 . S
C510 C511 1.355 . S
C510 C512 1.415 . S
C511 C510 1.355 . S
C511 C513 1.419 . S
C512 C510 1.415 . S
C512 C517 1.425 . S
C512 C519 1.409 . S
C513 H505 0.930 . S
C513 C511 1.419 . S
C513 C514 1.362 . S
C514 H506 0.930 . S
C514 C513 1.362 . S
C514 C517 1.409 . S
C515 H507 0.930 . S
C515 C516 1.355 . S
C515 C517 1.415 . S
C516 C515 1.355 . S
C516 C518 1.419 . S
C517 C512 1.425 . S
C517 C514 1.409 . S
C517 C515 1.415 . S
C518 H508 0.930 . S
C518 C516 1.419 . S
C518 C519 1.362 . S
C519 H509 0.930 . S
C519 C512 1.409 . S
C519 C518 1.362 . S
H520 C526 0.930 . S
H521 C529 0.930 . S
H522 C530 0.930 . S
H523 C531 0.930 . S
H524 C534 0.930 . S
H525 C535 0.930 . S
C526 H520 0.930 . S
C526 C527 1.355 . S
C526 C528 1.415 . S
C527 C526 1.355 . S
C527 C529 1.419 . S
C528 C526 1.415 . S
C528 C533 1.425 . S
C528 C535 1.409 . S
C529 H521 0.930 . S
C529 C527 1.419 . S
C529 C530 1.362 . S
C530 H522 0.930 . S
C530 C529 1.362 . S
C530 C533 1.409 . S
C531 H523 0.930 . S
C531 C532 1.355 . S
C531 C533 1.415 . S
C532 C531 1.355 . S
C532 C534 1.419 . S
C533 C528 1.425 . S
C533 C530 1.409 . S
C533 C531 1.415 . S
C534 H524 0.930 . S
C534 C532 1.419 . S
C534 C535 1.362 . S
C535 H525 0.930 . S
C535 C528 1.409 . S
C535 C534 1.362 . S
H536 C542 0.930 . S
H537 C545 0.930 . S
H538 C546 0.930 1_655 S
H539 C547 0.930 1_655 S
H540 C550 0.930 . S
H541 C551 0.930 . S
C542 H536 0.930 . S
C542 C543 1.355 . S
C542 C544 1.415 . S
C543 C542 1.355 . S
C543 C545 1.419 . S
C544 C542 1.415 . S
C544 C549 1.425 . S
C544 C551 1.409 . S
C545 H537 0.930 . S
C545 C543 1.419 . S
C545 C546 1.362 . S
C546 H538 0.930 1_455 S
C546 C545 1.362 . S
C546 C549 1.409 . S
C547 H539 0.930 1_455 S
C547 C548 1.355 . S
C547 C549 1.415 . S
C548 C547 1.355 . S
C548 C550 1.419 . S
C549 C544 1.425 . S
C549 C546 1.409 . S
C549 C547 1.415 . S
C550 H540 0.930 . S
C550 C548 1.419 . S
C550 C551 1.362 . S
C551 H541 0.930 . S
C551 C544 1.409 . S
C551 C550 1.362 . S
H552 C558 0.930 1_545 S
H553 C561 0.930 . S
H554 C562 0.930 1_556 S
H555 C563 0.930 . S
H556 C566 0.930 . S
H557 C567 0.930 . S
C558 H552 0.930 1_565 S
C558 C559 1.355 . S
C558 C560 1.415 . S
C559 C558 1.355 . S
C559 C561 1.419 . S
C560 C558 1.415 . S
C560 C565 1.425 1_554 S
C560 C567 1.409 1_565 S
C561 H553 0.930 . S
C561 C559 1.419 . S
C561 C562 1.362 . S
C562 H554 0.930 1_554 S
C562 C561 1.362 . S
C562 C565 1.409 1_554 S
C563 H555 0.930 . S
C563 C564 1.355 . S
C563 C565 1.415 . S
C564 C563 1.355 . S
C564 C566 1.419 1_565 S
C565 C560 1.425 1_556 S
C565 C562 1.409 1_556 S
C565 C563 1.415 . S
C566 H556 0.930 . S
C566 C564 1.419 1_545 S
C566 C567 1.362 1_556 S
C567 H557 0.930 . S
C567 C560 1.409 1_545 S
C567 C566 1.362 1_554 S
H568 C574 0.930 . S
H569 C577 0.930 . S
H570 C578 0.930 . S
H571 C579 0.930 . S
H572 C582 0.930 . S
H573 C583 0.930 1_554 S
C574 H568 0.930 . S
C574 C575 1.355 . S
C574 C576 1.415 . S
C575 C574 1.355 . S
C575 C577 1.419 . S
C576 C574 1.415 . S
C576 C581 1.425 1_554 S
C576 C583 1.409 1_554 S
C577 H569 0.930 . S
C577 C575 1.419 . S
C577 C578 1.362 . S
C578 H570 0.930 . S
C578 C577 1.362 . S
C578 C581 1.409 1_554 S
C579 H571 0.930 . S
C579 C580 1.355 . S
C579 C581 1.415 . S
C580 C579 1.355 . S
C580 C582 1.419 . S
C581 C576 1.425 1_556 S
C581 C578 1.409 1_556 S
C581 C579 1.415 . S
C582 H572 0.930 . S
C582 C580 1.419 . S
C582 C583 1.362 . S
C583 H573 0.930 1_556 S
C583 C576 1.409 1_556 S
C583 C582 1.362 . S
H584 C590 0.930 . S
H585 C593 0.930 . S
H586 C594 0.930 . S
H587 C595 0.930 . S
H588 C598 0.930 . S
H589 C599 0.930 . S
C590 H584 0.930 . S
C590 C591 1.355 . S
C590 C592 1.415 . S
C591 C590 1.355 . S
C591 C593 1.419 . S
C592 C590 1.415 . S
C592 C597 1.425 1_554 S
C592 C599 1.409 . S
C593 H585 0.930 . S
C593 C591 1.419 . S
C593 C594 1.362 1_554 S
C594 H586 0.930 . S
C594 C593 1.362 1_556 S
C594 C597 1.409 . S
C595 H587 0.930 . S
C595 C596 1.355 . S
C595 C597 1.415 . S
C596 C595 1.355 . S
C596 C598 1.419 . S
C597 C592 1.425 1_556 S
C597 C594 1.409 . S
C597 C595 1.415 . S
C598 H588 0.930 . S
C598 C596 1.419 . S
C598 C599 1.362 1_556 S
C599 H589 0.930 . S
C599 C592 1.409 . S
C599 C598 1.362 1_554 S
H600 C606 0.930 . S
H601 C609 0.930 . S
H602 C610 0.930 . S
H603 C611 0.930 . S
H604 C614 0.930 . S
H605 C615 0.930 . S
C606 H600 0.930 . S
C606 C607 1.355 . S
C606 C608 1.415 1_554 S
C607 C606 1.355 . S
C607 C609 1.419 . S
C608 C606 1.415 1_556 S
C608 C613 1.425 1_556 S
C608 C615 1.409 . S
C609 H601 0.930 . S
C609 C607 1.419 . S
C609 C610 1.362 . S
C610 H602 0.930 . S
C610 C609 1.362 . S
C610 C613 1.409 . S
C611 H603 0.930 . S
C611 C612 1.355 . S
C611 C613 1.415 1_556 S
C612 C611 1.355 . S
C612 C614 1.419 . S
C613 C608 1.425 1_554 S
C613 C610 1.409 . S
C613 C611 1.415 1_554 S
C614 H604 0.930 . S
C614 C612 1.419 . S
C614 C615 1.362 . S
C615 H605 0.930 . S
C615 C608 1.409 . S
C615 C614 1.362 . S
H616 C622 0.930 . S
H617 C625 0.930 . S
H618 C626 0.930 . S
H619 C627 0.930 1_655 S
H620 C630 0.930 . S
H621 C631 0.930 . S
C622 H616 0.930 . S
C622 C623 1.355 . S
C622 C624 1.415 . S
C623 C622 1.355 . S
C623 C625 1.419 . S
C624 C622 1.415 . S
C624 C629 1.425 . S
C624 C631 1.409 . S
C625 H617 0.930 . S
C625 C623 1.419 . S
C625 C626 1.362 . S
C626 H618 0.930 . S
C626 C625 1.362 . S
C626 C629 1.409 . S
C627 H619 0.930 1_455 S
C627 C628 1.355 . S
C627 C629 1.415 . S
C628 C627 1.355 . S
C628 C630 1.419 . S
C629 C624 1.425 . S
C629 C626 1.409 . S
C629 C627 1.415 . S
C630 H620 0.930 . S
C630 C628 1.419 . S
C630 C631 1.362 . S
C631 H621 0.930 . S
C631 C624 1.409 . S
C631 C630 1.362 . S
H632 C638 0.930 . S
H633 C641 0.930 . S
H634 C642 0.930 . S
H635 C643 0.930 . S
H636 C646 0.930 . S
H637 C647 0.930 . S
C638 H632 0.930 . S
C638 C639 1.355 . S
C638 C640 1.415 . S
C639 C638 1.355 . S
C639 C641 1.419 . S
C640 C638 1.415 . S
C640 C645 1.425 . S
C640 C647 1.409 1_545 S
C641 H633 0.930 . S
C641 C639 1.419 . S
C641 C642 1.362 . S
C642 H634 0.930 . S
C642 C641 1.362 . S
C642 C645 1.409 . S
C643 H635 0.930 . S
C643 C644 1.355 . S
C643 C645 1.415 . S
C644 C643 1.355 . S
C644 C646 1.419 1_545 S
C645 C640 1.425 . S
C645 C642 1.409 . S
C645 C643 1.415 . S
C646 H636 0.930 . S
C646 C644 1.419 1_565 S
C646 C647 1.362 . S
C647 H637 0.930 . S
C647 C640 1.409 1_565 S
C647 C646 1.362 . S
H648 C654 0.930 . S
H649 C657 0.930 . S
H650 C658 0.930 . S
H651 C659 0.930 . S
H652 C662 0.930 . S
H653 C663 0.930 . S
C654 H648 0.930 . S
C654 C655 1.355 . S
C654 C656 1.415 . S
C655 C654 1.355 . S
C655 C657 1.419 . S
C656 C654 1.415 . S
C656 C661 1.425 . S
C656 C663 1.409 . S
C657 H649 0.930 . S
C657 C655 1.419 . S
C657 C658 1.362 . S
C658 H650 0.930 . S
C658 C657 1.362 . S
C658 C661 1.409 . S
C659 H651 0.930 . S
C659 C660 1.355 . S
C659 C661 1.415 . S
C660 C659 1.355 . S
C660 C662 1.419 . S
C661 C656 1.425 . S
C661 C658 1.409 . S
C661 C659 1.415 . S
C662 H652 0.930 . S
C662 C660 1.419 . S
C662 C663 1.362 . S
C663 H653 0.930 . S
C663 C656 1.409 . S
C663 C662 1.362 . S
H664 C670 0.930 . S
H665 C673 0.930 . S
H666 C674 0.930 . S
H667 C675 0.930 . S
H668 C678 0.930 . S
H669 C679 0.930 . S
C670 H664 0.930 . S
C670 C671 1.355 . S
C670 C672 1.415 . S
C671 C670 1.355 . S
C671 C673 1.419 . S
C672 C670 1.415 . S
C672 C677 1.425 . S
C672 C679 1.409 . S
C673 H665 0.930 . S
C673 C671 1.419 . S
C673 C674 1.362 . S
C674 H666 0.930 . S
C674 C673 1.362 . S
C674 C677 1.409 . S
C675 H667 0.930 . S
C675 C676 1.355 . S
C675 C677 1.415 . S
C676 C675 1.355 . S
C676 C678 1.419 . S
C677 C672 1.425 . S
C677 C674 1.409 . S
C677 C675 1.415 . S
C678 H668 0.930 . S
C678 C676 1.419 . S
C678 C679 1.362 . S
C679 H669 0.930 . S
C679 C672 1.409 . S
C679 C678 1.362 . S
H680 C686 0.930 . S
H681 C689 0.930 . S
H682 C690 0.947 . S
H683 C691 0.930 . S
H684 C694 0.930 . S
H685 C695 0.930 1_556 S
C686 H680 0.930 . S
C686 C687 1.355 . S
C686 C688 1.415 . S
C687 C686 1.355 . S
C687 C689 1.419 . S
C688 C686 1.415 . S
C688 C693 1.425 . S
C688 C695 1.409 . S
C689 H681 0.930 . S
C689 C687 1.419 . S
C689 C690 1.362 . S
C690 H682 0.947 . S
C690 C689 1.362 . S
C690 C693 1.409 . S
C691 H683 0.930 . S
C691 C692 1.355 . S
C691 C693 1.415 1_455 S
C692 C691 1.355 . S
C692 C694 1.419 1_454 S
C693 C688 1.425 . S
C693 C690 1.409 . S
C693 C691 1.415 1_655 S
C694 H684 0.930 . S
C694 C692 1.419 1_656 S
C694 C695 1.362 1_556 S
C695 H685 0.930 1_554 S
C695 C688 1.409 . S
C695 C694 1.362 1_554 S
H696 C702 0.930 . S
H697 C705 0.930 . S
H698 C706 0.930 . S
H699 C707 0.930 . S
H700 C710 0.930 . S
H701 C711 0.930 . S
C702 H696 0.930 . S
C702 C703 1.355 . S
C702 C704 1.415 . S
C703 C702 1.355 . S
C703 C705 1.419 . S
C704 C702 1.415 . S
C704 C709 1.425 1_565 S
C704 C711 1.409 . S
C705 H697 0.930 . S
C705 C703 1.419 . S
C705 C706 1.362 1_565 S
C706 H698 0.930 . S
C706 C705 1.362 1_545 S
C706 C709 1.409 . S
C707 H699 0.930 . S
C707 C708 1.355 . S
C707 C709 1.415 . S
C708 C707 1.355 . S
C708 C710 1.419 1_545 S
C709 C704 1.425 1_545 S
C709 C706 1.409 . S
C709 C707 1.415 . S
C710 H700 0.930 . S
C710 C708 1.419 1_565 S
C710 C711 1.362 . S
C711 H701 0.930 . S
C711 C704 1.409 . S
C711 C710 1.362 . S
H712 C718 0.930 . S
H713 C721 0.930 . S
H714 C722 0.930 . S
H715 C723 0.930 . S
H716 C726 0.930 . S
H717 C727 0.930 . S
C718 H712 0.930 . S
C718 C719 1.355 . S
C718 C720 1.415 . S
C719 C718 1.355 . S
C719 C721 1.419 . S
C720 C718 1.415 . S
C720 C725 1.425 . S
C720 C727 1.409 . S
C721 H713 0.930 . S
C721 C719 1.419 . S
C721 C722 1.362 . S
C722 H714 0.930 . S
C722 C721 1.362 . S
C722 C725 1.409 . S
C723 H715 0.930 . S
C723 C724 1.355 . S
C723 C725 1.415 . S
C724 C723 1.355 . S
C724 C726 1.419 . S
C725 C720 1.425 . S
C725 C722 1.409 . S
C725 C723 1.415 . S
C726 H716 0.930 . S
C726 C724 1.419 . S
C726 C727 1.362 . S
C727 H717 0.930 . S
C727 C720 1.409 . S
C727 C726 1.362 . S
H728 C734 0.930 . S
H729 C737 0.930 . S
H730 C738 0.930 . S
H731 C739 0.930 . S
H732 C742 0.930 . S
H733 C743 0.930 . S
C734 H728 0.930 . S
C734 C735 1.355 . S
C734 C736 1.415 . S
C735 C734 1.355 . S
C735 C737 1.419 . S
C736 C734 1.415 . S
C736 C741 1.425 . S
C736 C743 1.409 . S
C737 H729 0.930 . S
C737 C735 1.419 . S
C737 C738 1.362 . S
C738 H730 0.930 . S
C738 C737 1.362 . S
C738 C741 1.409 . S
C739 H731 0.930 . S
C739 C740 1.355 . S
C739 C741 1.415 . S
C740 C739 1.355 . S
C740 C742 1.419 . S
C741 C736 1.425 . S
C741 C738 1.409 . S
C741 C739 1.415 . S
C742 H732 0.930 . S
C742 C740 1.419 . S
C742 C743 1.362 . S
C743 H733 0.930 . S
C743 C736 1.409 . S
C743 C742 1.362 . S
H744 C750 0.930 . S
H745 C753 0.930 . S
H746 C754 0.930 . S
H747 C755 0.930 . S
H748 C758 0.930 . S
H749 C759 0.930 . S
C750 H744 0.930 . S
C750 C751 1.355 . S
C750 C752 1.415 . S
C751 C750 1.355 . S
C751 C753 1.419 . S
C752 C750 1.415 . S
C752 C757 1.425 . S
C752 C759 1.409 . S
C753 H745 0.930 . S
C753 C751 1.419 . S
C753 C754 1.362 . S
C754 H746 0.930 . S
C754 C753 1.362 . S
C754 C757 1.409 . S
C755 H747 0.930 . S
C755 C756 1.355 . S
C755 C757 1.415 . S
C756 C755 1.355 . S
C756 C758 1.419 . S
C757 C752 1.425 . S
C757 C754 1.409 . S
C757 C755 1.415 . S
C758 H748 0.930 . S
C758 C756 1.419 . S
C758 C759 1.362 . S
C759 H749 0.930 . S
C759 C752 1.409 . S
C759 C758 1.362 . S
H760 C766 0.930 . S
H761 C769 0.930 . S
H762 C770 0.930 . S
H763 C771 0.930 . S
H764 C774 0.930 . S
H765 C775 0.930 . S
C766 H760 0.930 . S
C766 C767 1.355 . S
C766 C768 1.415 . S
C767 C766 1.355 . S
C767 C769 1.419 . S
C768 C766 1.415 . S
C768 C773 1.425 . S
C768 C775 1.409 . S
C769 H761 0.930 . S
C769 C767 1.419 . S
C769 C770 1.362 . S
C770 H762 0.930 . S
C770 C769 1.362 . S
C770 C773 1.409 . S
C771 H763 0.930 . S
C771 C772 1.355 . S
C771 C773 1.415 . S
C772 C771 1.355 . S
C772 C774 1.419 . S
C773 C768 1.425 . S
C773 C770 1.409 . S
C773 C771 1.415 . S
C774 H764 0.930 . S
C774 C772 1.419 . S
C774 C775 1.362 . S
C775 H765 0.930 . S
C775 C768 1.409 . S
C775 C774 1.362 . S
H776 C782 0.930 . S
H777 C785 0.930 . S
H778 C786 0.930 . S
H779 C787 0.930 . S
H780 C790 0.930 . S
H781 C791 0.930 . S
C782 H776 0.930 . S
C782 C783 1.355 . S
C782 C784 1.415 . S
C783 C782 1.355 . S
C783 C785 1.419 . S
C784 C782 1.415 . S
C784 C789 1.425 . S
C784 C791 1.409 . S
C785 H777 0.930 . S
C785 C783 1.419 . S
C785 C786 1.362 . S
C786 H778 0.930 . S
C786 C785 1.362 . S
C786 C789 1.409 . S
C787 H779 0.930 . S
C787 C788 1.355 . S
C787 C789 1.415 . S
C788 C787 1.355 . S
C788 C790 1.419 . S
C789 C784 1.425 . S
C789 C786 1.409 . S
C789 C787 1.415 . S
C790 H780 0.930 . S
C790 C788 1.419 . S
C790 C791 1.362 . S
C791 H781 0.930 . S
C791 C784 1.409 . S
C791 C790 1.362 . S
H792 C798 0.930 . S
H793 C801 0.930 . S
H794 C802 0.930 . S
H795 C803 0.930 . S
H796 C806 0.930 . S
H797 C807 0.930 . S
C798 H792 0.930 . S
C798 C799 1.355 . S
C798 C800 1.415 . S
C799 C798 1.355 . S
C799 C801 1.419 . S
C800 C798 1.415 . S
C800 C805 1.425 . S
C800 C807 1.409 . S
C801 H793 0.930 . S
C801 C799 1.419 . S
C801 C802 1.362 . S
C802 H794 0.930 . S
C802 C801 1.362 . S
C802 C805 1.409 . S
C803 H795 0.930 . S
C803 C804 1.355 . S
C803 C805 1.415 . S
C804 C803 1.355 . S
C804 C806 1.419 . S
C805 C800 1.425 . S
C805 C802 1.409 . S
C805 C803 1.415 . S
C806 H796 0.930 . S
C806 C804 1.419 . S
C806 C807 1.362 . S
C807 H797 0.930 . S
C807 C800 1.409 . S
C807 C806 1.362 . S
H808 C814 0.930 . S
H809 C817 0.930 1_455 S
H810 C818 0.930 . S
H811 C819 0.930 1_455 S
H812 C822 0.930 . S
H813 C823 0.930 . S
C814 H808 0.930 . S
C814 C815 1.355 . S
C814 C816 1.415 . S
C815 C814 1.355 . S
C815 C817 1.419 . S
C816 C814 1.415 . S
C816 C821 1.425 . S
C816 C823 1.409 . S
C817 H809 0.930 1_655 S
C817 C815 1.419 . S
C817 C818 1.362 1_655 S
C818 H810 0.930 . S
C818 C817 1.362 1_455 S
C818 C821 1.409 1_455 S
C819 H811 0.930 1_655 S
C819 C820 1.355 . S
C819 C821 1.415 . S
C820 C819 1.355 . S
C820 C822 1.419 . S
C821 C816 1.425 . S
C821 C818 1.409 1_655 S
C821 C819 1.415 . S
C822 H812 0.930 . S
C822 C820 1.419 . S
C822 C823 1.362 . S
C823 H813 0.930 . S
C823 C816 1.409 . S
C823 C822 1.362 . S
H824 C830 0.930 . S
H825 C833 0.930 . S
H826 C834 0.930 . S
H827 C835 0.930 . S
H828 C838 0.930 . S
H829 C839 0.930 . S
C830 H824 0.930 . S
C830 C831 1.355 . S
C830 C832 1.415 . S
C831 C830 1.355 . S
C831 C833 1.419 . S
C832 C830 1.415 . S
C832 C837 1.425 . S
C832 C839 1.409 1_565 S
C833 H825 0.930 . S
C833 C831 1.419 . S
C833 C834 1.362 . S
C834 H826 0.930 . S
C834 C833 1.362 . S
C834 C837 1.409 . S
C835 H827 0.930 . S
C835 C836 1.355 . S
C835 C837 1.415 . S
C836 C835 1.355 . S
C836 C838 1.419 1_565 S
C837 C832 1.425 . S
C837 C834 1.409 . S
C837 C835 1.415 . S
C838 H828 0.930 . S
C838 C836 1.419 1_545 S
C838 C839 1.362 . S
C839 H829 0.930 . S
C839 C832 1.409 1_545 S
C839 C838 1.362 . S
H840 C846 0.930 . S
H841 C849 0.930 . S
H842 C850 0.930 . S
H843 C851 0.930 . S
H844 C854 0.930 . S
H845 C855 0.930 . S
C846 H840 0.930 . S
C846 C847 1.355 . S
C846 C848 1.415 . S
C847 C846 1.355 . S
C847 C849 1.419 . S
C848 C846 1.415 . S
C848 C853 1.425 . S
C848 C855 1.409 . S
C849 H841 0.930 . S
C849 C847 1.419 . S
C849 C850 1.362 . S
C850 H842 0.930 . S
C850 C849 1.362 . S
C850 C853 1.409 . S
C851 H843 0.930 . S
C851 C852 1.355 . S
C851 C853 1.415 . S
C852 C851 1.355 . S
C852 C854 1.419 . S
C853 C848 1.425 . S
C853 C850 1.409 . S
C853 C851 1.415 . S
C854 H844 0.930 . S
C854 C852 1.419 . S
C854 C855 1.362 . S
C855 H845 0.930 . S
C855 C848 1.409 . S
C855 C854 1.362 . S
H856 C862 0.930 . S
H857 C865 0.930 . S
H858 C866 0.930 . S
H859 C867 0.930 . S
H860 C870 0.930 . S
H861 C871 0.930 . S
C862 H856 0.930 . S
C862 C863 1.355 . S
C862 C864 1.415 . S
C863 C862 1.355 . S
C863 C865 1.419 . S
C864 C862 1.415 . S
C864 C869 1.425 . S
C864 C871 1.409 . S
C865 H857 0.930 . S
C865 C863 1.419 . S
C865 C866 1.362 . S
C866 H858 0.930 . S
C866 C865 1.362 . S
C866 C869 1.409 . S
C867 H859 0.930 . S
C867 C868 1.355 . S
C867 C869 1.415 . S
C868 C867 1.355 . S
C868 C870 1.419 . S
C869 C864 1.425 . S
C869 C866 1.409 . S
C869 C867 1.415 . S
C870 H860 0.930 . S
C870 C868 1.419 . S
C870 C871 1.362 . S
C871 H861 0.930 . S
C871 C864 1.409 . S
C871 C870 1.362 . S
C495 C125 1.928 . S
C500 C227 2.005 . S
C516 C311 2.011 . S
C511 C144 1.927 . S
C532 C387 1.985 . S
C527 C87 2.032 . S
C548 C471 1.894 . S
C543 C106 2.010 . S
C564 C218 1.951 1_565 S
C559 C49 2.037 . S
C575 C68 2.053 . S
C580 C302 1.973 . S
C591 C11 2.142 . S
C596 C376 1.916 . S
C607 C30 2.133 . S
C612 C460 1.974 . S
C628 C215 0.827 1_455 S
C623 C97 0.766 . S
C644 C299 0.692 1_545 S
C639 C116 0.829 . S
C660 C392 0.784 . S
C655 C135 0.645 . S
C671 C78 0.805 . S
C676 C476 0.739 . S
C687 C21 0.686 . S
C692 C224 0.819 . S
C708 C308 0.785 . S
C703 C40 0.771 . S
C724 C383 0.739 . S
C719 C59 0.734 . S
C735 C2 0.809 . S
C740 C467 0.724 . S
C751 C101 2.093 . S
C756 C208 2.131 . S
C767 C120 2.067 . S
C772 C292 2.098 . S
C788 C386 2.138 . S
C783 C139 1.976 . S
C804 C470 2.184 . S
C799 C82 2.013 . S
C815 C25 2.043 . S
C820 C219 2.123 . S
C836 C303 2.045 1_565 S
C831 C44 2.015 . S
C852 C395 2.150 . S
C847 C63 1.913 . S
C863 C6 1.993 . S
C868 C479 2.162 . S
