# Generated by pormake.
# Topology zzz, (3,6)-cn, num edge types: 1
# Building blocks:
#     Node 0, Type 0, BuildingBlock: QEWDON_clean_linker_0, # of connection points: 3
#     Node 1, Type 0, BuildingBlock: QEWDON_clean_linker_0, # of connection points: 3
#     Node 2, Type 0, BuildingBlock: QEWDON_clean_linker_0, # of connection points: 3
#     Node 3, Type 0, BuildingBlock: QEWDON_clean_linker_0, # of connection points: 3
#     Node 4, Type 0, BuildingBlock: QEWDON_clean_linker_0, # of connection points: 3
#     Node 5, Type 0, BuildingBlock: QEWDON_clean_linker_0, # of connection points: 3
#     Node 6, Type 0, BuildingBlock: QEWDON_clean_linker_0, # of connection points: 3
#     Node 7, Type 0, BuildingBlock: QEWDON_clean_linker_0, # of connection points: 3
#     Node 8, Type 1, BuildingBlock: BETDEL_clean_sbu_0, # of connection points: 6
#     Node 9, Type 1, BuildingBlock: BETDEL_clean_sbu_0, # of connection points: 6
#     Node 10, Type 1, BuildingBlock: BETDEL_clean_sbu_0, # of connection points: 6
#     Node 11, Type 1, BuildingBlock: BETDEL_clean_sbu_0, # of connection points: 6
#     Edge 12, Type (0, 1), BuildingBlock: XUDNAN_clean_linker_2, # of connection points: 2
#     Edge 13, Type (0, 1), BuildingBlock: XUDNAN_clean_linker_2, # of connection points: 2
#     Edge 14, Type (0, 1), BuildingBlock: XUDNAN_clean_linker_2, # of connection points: 2
#     Edge 15, Type (0, 1), BuildingBlock: XUDNAN_clean_linker_2, # of connection points: 2
#     Edge 16, Type (0, 1), BuildingBlock: XUDNAN_clean_linker_2, # of connection points: 2
#     Edge 17, Type (0, 1), BuildingBlock: XUDNAN_clean_linker_2, # of connection points: 2
#     Edge 18, Type (0, 1), BuildingBlock: XUDNAN_clean_linker_2, # of connection points: 2
#     Edge 19, Type (0, 1), BuildingBlock: XUDNAN_clean_linker_2, # of connection points: 2
#     Edge 20, Type (0, 1), BuildingBlock: XUDNAN_clean_linker_2, # of connection points: 2
#     Edge 21, Type (0, 1), BuildingBlock: XUDNAN_clean_linker_2, # of connection points: 2
#     Edge 22, Type (0, 1), BuildingBlock: XUDNAN_clean_linker_2, # of connection points: 2
#     Edge 23, Type (0, 1), BuildingBlock: XUDNAN_clean_linker_2, # of connection points: 2
#     Edge 24, Type (0, 1), BuildingBlock: XUDNAN_clean_linker_2, # of connection points: 2
#     Edge 25, Type (0, 1), BuildingBlock: XUDNAN_clean_linker_2, # of connection points: 2
#     Edge 26, Type (0, 1), BuildingBlock: XUDNAN_clean_linker_2, # of connection points: 2
#     Edge 27, Type (0, 1), BuildingBlock: XUDNAN_clean_linker_2, # of connection points: 2
#     Edge 28, Type (0, 1), BuildingBlock: XUDNAN_clean_linker_2, # of connection points: 2
#     Edge 29, Type (0, 1), BuildingBlock: XUDNAN_clean_linker_2, # of connection points: 2
#     Edge 30, Type (0, 1), BuildingBlock: XUDNAN_clean_linker_2, # of connection points: 2
#     Edge 31, Type (0, 1), BuildingBlock: XUDNAN_clean_linker_2, # of connection points: 2
#     Edge 32, Type (0, 1), BuildingBlock: XUDNAN_clean_linker_2, # of connection points: 2
#     Edge 33, Type (0, 1), BuildingBlock: XUDNAN_clean_linker_2, # of connection points: 2
#     Edge 34, Type (0, 1), BuildingBlock: XUDNAN_clean_linker_2, # of connection points: 2
#     Edge 35, Type (0, 1), BuildingBlock: XUDNAN_clean_linker_2, # of connection points: 2
# Relax obj value: 0.092
# Max RMSD: 0.192
# Mean RMSD: 0.071
data_MOF--net-zzz--node1-BETDEL_clean_sbu_0--node2-QEWDON_clean_linker_0--edge1-XUDNAN_clean_linker_2
_symmetry_space_group_name_H-M    P1
_symmetry_Int_Tables_number       1
_symmetry_cell_setting            triclinic
loop_
_symmetry_equiv_pos_as_xyz
'x, y, z'
_cell_length_a     53.11636
_cell_length_b     54.305336
_cell_length_c     14.475804
_cell_angle_alpha  92.072626
_cell_angle_beta   88.213786
_cell_angle_gamma 94.588735
loop_
_atom_site_label
_atom_site_type_symbol
_atom_site_fract_x
_atom_site_fract_y
_atom_site_fract_z
_atom_type_partial_charge
H0 H 0.76758 0.51425 0.94539 0.0
C1 C 0.77781 0.51281 0.00824 0.0
C2 C 0.80192 0.50405 0.00122 0.0
C3 C 0.76764 0.52074 0.09486 0.0
H4 H 0.8352 0.4975 0.07348 0.0
C5 C 0.81634 0.50384 0.08003 0.0
C6 C 0.80846 0.51439 0.16414 0.0
C7 C 0.78354 0.52169 0.17298 0.0
C8 C 0.74131 0.52947 0.10146 0.0
H9 H 0.77704 0.5286 0.23976 0.0
C10 C 0.72233 0.52053 0.03864 0.0
C11 C 0.69774 0.52911 0.04373 0.0
C12 C 0.73501 0.54729 0.16953 0.0
H13 H 0.74883 0.55549 0.2171 0.0
C14 C 0.71073 0.55535 0.1766 0.0
H15 H 0.72672 0.507 0.98528 0.0
C16 C 0.69226 0.54633 0.11502 0.0
H17 H 0.67358 0.55282 0.1242 0.0
H18 H 0.70621 0.56886 0.23016 0.0
H19 H 0.98634 0.76052 0.94395 0.0
C20 C 0.99336 0.7732 -0.00153 0.0
C21 C 0.99859 0.7983 0.98016 0.0
C22 C 0.99639 0.7648 0.08853 0.0
H23 H 1.00974 0.8344 0.03684 0.0
C24 C 1.00661 0.81486 0.05107 0.0
C25 C 1.00992 0.80722 0.14028 0.0
C26 C 1.00461 0.78212 0.15965 0.0
C27 C 0.98948 0.73837 0.10986 0.0
H28 H 1.00708 0.77612 0.22913 0.0
C29 C 0.99655 0.71864 0.05016 0.0
C30 C 0.99014 0.69381 0.07365 0.0
C31 C 0.97533 0.73284 0.19121 0.0
H32 H 0.96916 0.74746 0.23734 0.0
C33 C 0.96855 0.70842 0.21345 0.0
H34 H 1.00769 0.72253 0.98766 0.0
C35 C 0.97592 0.68908 0.15558 0.0
H36 H 0.97039 0.67028 0.17488 0.0
H37 H 0.95753 0.70445 0.27609 0.0
H38 H 0.76105 1.00784 0.98204 0.0
C39 C 0.74896 1.00646 0.04338 0.0
C40 C 0.72437 0.01381 0.03826 0.0
C41 C 0.75755 0.9971 0.12572 0.0
H42 H 0.6881 0.01485 0.10825 0.0
C43 C 0.70753 0.0103 0.11347 0.0
C44 C 0.71496 1.00071 0.19523 0.0
C45 C 0.74016 0.9947 0.20272 0.0
C46 C 0.78417 0.98924 0.12904 0.0
H47 H 0.74593 0.98823 0.26799 0.0
C48 C 0.80387 0.99921 0.06922 0.0
C49 C 0.82844 0.99073 0.06806 0.0
C50 C 0.78994 0.97085 0.18932 0.0
H51 H 0.77562 0.96201 0.23446 0.0
C52 C 0.81429 0.96297 0.1909 0.0
H53 H 0.80012 0.0134 0.02243 0.0
C54 C 0.83334 0.97274 0.13115 0.0
H55 H 0.85199 0.9662 0.13511 0.0
H56 H 0.81837 0.94893 0.23826 0.0
H57 H 0.52014 0.75269 0.95816 0.0
C58 C 0.51791 0.74278 0.02191 0.0
C59 C 0.50783 0.71813 0.01841 0.0
C60 C 0.52693 0.75388 0.10558 0.0
H61 H 0.49878 0.68551 0.09573 0.0
C62 C 0.50629 0.7047 0.09905 0.0
C63 C 0.51807 0.71387 0.17937 0.0
C64 C 0.52738 0.73894 0.18431 0.0
C65 C 0.53867 0.77997 0.10587 0.0
H66 H 0.5358 0.74634 0.24761 0.0
C67 C 0.5293 0.79796 0.05013 0.0
C68 C 0.54195 0.82183 0.04237 0.0
C69 C 0.56041 0.78663 0.15681 0.0
H70 H 0.56861 0.77339 0.19861 0.0
C71 C 0.57266 0.81024 0.1514 0.0
H72 H 0.51215 0.79328 0.01278 0.0
C73 C 0.56377 0.82757 0.09421 0.0
H74 H 0.57458 0.84524 0.08901 0.0
H75 H 0.5896 0.81494 0.19 0.0
H76 H 0.2654 0.52565 0.16864 0.0
C77 C 0.25361 0.51877 0.11218 0.0
C78 C 0.22751 0.52055 0.121 0.0
C79 C 0.26428 0.5087 0.0298 0.0
H80 H 0.19186 0.51526 0.05542 0.0
C81 C 0.21192 0.51277 0.04815 0.0
C82 C 0.22152 0.50267 0.96595 0.0
C83 C 0.24783 0.50066 0.95662 0.0
C84 C 0.29246 0.50753 0.01906 0.0
H85 H 0.25528 0.49267 0.89289 0.0
C86 C 0.30783 0.50416 0.09561 0.0
C87 C 0.33446 0.50385 0.08473 0.0
C88 C 0.30438 0.51057 0.93157 0.0
H89 H 0.29368 0.51398 0.87158 0.0
C90 C 0.33045 0.5098 0.92003 0.0
H91 H 0.29915 0.50191 0.16366 0.0
C92 C 0.34535 0.50639 0.99539 0.0
H93 H 0.36547 0.50552 0.98307 0.0
H94 H 0.33923 0.51197 0.852 0.0
H95 H 1.00749 0.25964 0.21109 0.0
C96 C 0.01447 0.24788 0.15551 0.0
C97 C 0.02137 0.22429 0.17536 0.0
C98 C 0.01468 0.25541 0.06317 0.0
H99 H 0.03373 0.19005 0.11895 0.0
C100 C 0.02888 0.20845 0.10321 0.0
C101 C 0.02664 0.21421 0.011 0.0
C102 C 0.02054 0.23818 0.99073 0.0
C103 C 1.00545 0.27987 0.0424 0.0
H104 H 0.01925 0.24296 0.91913 0.0
C105 C 1.01227 0.30163 0.09629 0.0
C106 C 1.00283 0.32443 0.07599 0.0
C107 C 0.98871 0.28127 0.96978 0.0
H108 H 0.9825 0.26496 0.92883 0.0
C109 C 0.97908 0.30357 0.95056 0.0
H110 H 0.02527 0.30093 0.15215 0.0
C111 C 0.98601 0.3249 0.00295 0.0
H112 H 0.97788 0.34184 0.98668 0.0
H113 H 0.96601 0.30429 0.895 0.0
H114 H 0.27192 1.00217 0.1765 0.0
C115 C 0.28266 1.00448 0.1121 0.0
C116 C 0.3043 0.99157 0.09741 0.0
C117 C 0.27617 0.02178 0.04838 0.0
H118 H 0.33718 0.98688 0.01113 0.0
C119 C 0.31953 0.99564 0.01801 0.0
C120 C 0.31448 0.01346 0.95513 0.0
C121 C 0.29244 0.02623 0.9698 0.0
C122 C 0.25425 0.03705 0.07072 0.0
H123 H 0.28843 0.04 0.92125 0.0
C124 C 0.23233 0.02727 0.11972 0.0
C125 C 0.21284 0.04244 0.1482 0.0
C126 C 0.25588 0.06219 0.04899 0.0
H127 H 0.27247 0.07069 0.01395 0.0
C128 C 0.23649 0.07709 0.0752 0.0
H129 H 0.23057 1.00797 0.13714 0.0
C130 C 0.21524 0.06741 0.12465 0.0
H131 H 0.20052 0.07949 0.14371 0.0
H132 H 0.23809 0.0964 0.05803 0.0
H133 H 0.52538 0.26828 0.15505 0.0
C134 C 0.51812 0.27838 0.09994 0.0
C135 C 0.51912 0.30417 0.10845 0.0
C136 C 0.50854 0.26601 0.01904 0.0
H137 H 0.51328 0.33784 0.04356 0.0
C138 C 0.51111 0.3178 0.03682 0.0
C139 C 0.50156 0.30648 0.95608 0.0
C140 C 0.50022 0.28045 0.94713 0.0
C141 C 0.50852 0.23835 0.00809 0.0
H142 H 0.49265 0.27165 0.88457 0.0
C143 C 0.50596 0.22287 0.08539 0.0
C144 C 0.50747 0.197 0.07477 0.0
C145 C 0.51219 0.22721 0.91985 0.0
H146 H 0.51505 0.23818 0.85896 0.0
C147 C 0.51309 0.20168 0.90873 0.0
H148 H 0.50262 0.23083 0.15386 0.0
C149 C 0.51088 0.18671 0.98519 0.0
H150 H 0.51263 0.16709 0.9741 0.0
H151 H 0.51611 0.19349 0.84039 0.0
Dy152 Dy 0.01878 0.99562 0.64765 0.0
C153 C 1.00991 0.06304 0.35255 0.0
C154 C 1.01178 0.95676 0.76213 0.0
Dy155 Dy 1.00564 0.02634 0.4755 0.0
O156 O 0.03296 0.96365 0.71955 0.0
O157 O 0.99535 0.97268 0.74908 0.0
O158 O 0.05991 1.00864 0.62707 0.0
O159 O 0.03627 1.00431 0.51322 0.0
C160 C 0.05823 0.01178 0.53848 0.0
C161 C 0.96552 0.02025 0.59636 0.0
O162 O 1.00588 0.98922 0.40315 0.0
O163 O 1.00614 0.9667 0.53773 0.0
O164 O 0.99114 0.04606 0.35695 0.0
O165 O 0.02725 0.05821 0.40915 0.0
O166 O 0.96491 0.03209 0.5204 0.0
O167 O 0.98702 0.01238 0.59852 0.0
O168 O 0.01945 0.0336 0.71664 0.0
O169 O 0.02375 0.05385 0.57698 0.0
C170 C 1.00453 0.96792 0.44642 0.0
C171 C 0.02419 0.05401 0.66847 0.0
Dy172 Dy 0.49467 0.99959 0.51005 0.0
C173 C 0.5822 0.02894 0.70103 0.0
C174 C 0.44926 0.98608 0.43434 0.0
Dy175 Dy 0.53376 0.02422 0.64622 0.0
O176 O 0.46995 0.97547 0.41439 0.0
O177 O 0.45365 1.00451 0.49268 0.0
O178 O 0.52657 0.98299 0.42471 0.0
O179 O 0.53278 0.01617 0.49979 0.0
C180 C 0.54356 1.00005 0.45271 0.0
C181 C 0.48589 0.02801 0.70031 0.0
O182 O 0.52986 0.05621 0.55463 0.0
O183 O 0.49513 0.0398 0.47126 0.0
O184 O 0.56525 0.04398 0.72887 0.0
O185 O 0.57226 0.01136 0.64788 0.0
O186 O 0.50434 0.04363 0.72843 0.0
O187 O 0.49459 0.00968 0.65711 0.0
O188 O 0.49803 0.96771 0.6022 0.0
O189 O 0.5303 0.98489 0.69501 0.0
C190 C 0.51156 0.05862 0.49549 0.0
C191 C 0.51468 0.96587 0.66757 0.0
Dy192 Dy 0.50413 0.51956 0.66507 0.0
C193 C 0.52185 0.4674 0.32132 0.0
C194 C 0.50438 0.5534 0.80855 0.0
Dy195 Dy 0.52317 0.4992 0.47046 0.0
O196 O 0.48463 0.54554 0.76188 0.0
O197 O 0.52303 0.54032 0.78337 0.0
O198 O 0.46534 0.50225 0.63738 0.0
O199 O 0.48888 0.51504 0.52594 0.0
C200 C 0.46784 0.50369 0.54769 0.0
C201 C 0.56137 0.50413 0.59123 0.0
O202 O 0.52361 0.53901 0.43284 0.0
O203 O 0.51522 0.55356 0.58355 0.0
O204 O 0.54008 0.48439 0.33778 0.0
O205 O 0.50336 0.47005 0.38091 0.0
O206 O 0.56419 0.49615 0.50624 0.0
O207 O 0.53878 0.50915 0.60245 0.0
O208 O 0.50751 0.48053 0.70475 0.0
O209 O 0.51057 0.46562 0.55195 0.0
C210 C 0.52092 0.55741 0.4949 0.0
C211 C 0.50812 0.46204 0.64215 0.0
Dy212 Dy 1.00385 0.4995 0.65182 0.0
C213 C 0.06357 0.53457 0.35086 0.0
C214 C 0.96789 0.49597 0.79056 0.0
Dy215 Dy 0.02736 0.52495 0.48529 0.0
O216 O 0.97377 0.47786 0.73487 0.0
O217 O 0.98422 0.51468 0.77739 0.0
O218 O 0.01498 0.46242 0.59992 0.0
O219 O 1.00668 0.48912 0.50503 0.0
C220 C 0.0149 0.46801 0.51303 0.0
C221 C 0.01582 0.55574 0.6264 0.0
O222 O 0.98785 0.5223 0.43301 0.0
O223 O 0.97113 0.5136 0.57873 0.0
O224 O 0.05174 0.55127 0.39722 0.0
O225 O 0.05362 0.51284 0.37204 0.0
O226 O 0.01445 0.56129 0.54014 0.0
O227 O 0.02486 0.53501 0.6317 0.0
O228 O 0.04351 0.49909 0.70046 0.0
O229 O 0.06038 0.51158 0.55851 0.0
C230 C 0.96819 0.51928 0.49159 0.0
C231 C 0.06318 0.50375 0.6431 0.0
H232 H 0.18883 0.06439 0.29795 0.0
H233 H 0.18457 0.99833 0.11947 0.0
H234 H 0.14514 0.98323 0.20168 0.0
H235 H 0.16494 0.03471 0.50767 0.0
H236 H 0.1475 0.06041 0.54722 0.0
H237 H 0.17572 0.06568 0.47608 0.0
H238 H 0.15054 0.08812 0.35881 0.0
H239 H 0.12222 0.08284 0.42938 0.0
H240 H 0.12261 0.07245 0.30973 0.0
H241 H 0.10484 0.97635 0.29781 0.0
H242 H 0.06822 0.97696 0.40743 0.0
H243 H 0.09861 0.04696 0.52616 0.0
C244 C 0.17963 0.04672 0.27608 0.0
C245 C 0.18989 0.03256 0.20179 0.0
C246 C 0.17734 0.0094 0.17651 0.0
C247 C 0.15481 1.00075 0.22251 0.0
C248 C 0.14508 0.01534 0.29437 0.0
C249 C 0.15721 0.03773 0.32168 0.0
C250 C 0.14274 0.04984 0.40102 0.0
C251 C 0.15868 0.05283 0.48816 0.0
C252 C 0.13401 0.07479 0.37303 0.0
C253 C 0.12045 0.03085 0.41376 0.0
C254 C 0.12212 0.01117 0.35099 0.0
C255 C 0.10343 0.99165 0.34721 0.0
C256 C 0.08257 0.99224 0.409 0.0
C257 C 0.08049 0.01207 0.47414 0.0
C258 C 0.09981 0.03154 0.47708 0.0
H259 H 0.4852 0.14943 0.09122 0.0
H260 H 0.52957 0.20725 0.24255 0.0
H261 H 0.53288 0.179 0.37065 0.0
H262 H 0.45159 0.12154 0.29225 0.0
H263 H 0.45283 0.09051 0.24463 0.0
H264 H 0.4519 0.11598 0.16869 0.0
H265 H 0.49287 0.10336 0.08439 0.0
H266 H 0.49398 0.07793 0.16017 0.0
H267 H 0.52067 0.10046 0.15027 0.0
H268 H 0.53485 0.14325 0.47604 0.0
H269 H 0.53381 0.10344 0.55345 0.0
H270 H 0.48816 0.06854 0.33432 0.0
C271 C 0.49546 0.15628 0.15155 0.0
C272 C 0.50706 0.18075 0.15641 0.0
C273 C 0.52013 0.18885 0.2373 0.0
C274 C 0.52227 0.17283 0.31035 0.0
C275 C 0.51113 0.14873 0.30215 0.0
C276 C 0.49778 0.14054 0.22512 0.0
C277 C 0.48851 0.11344 0.23177 0.0
C278 C 0.45948 0.11019 0.23452 0.0
C279 C 0.49968 0.09789 0.15192 0.0
C280 C 0.49912 0.10752 0.32383 0.0
C281 C 0.51205 0.12817 0.36334 0.0
C282 C 0.52454 0.12705 0.44617 0.0
C283 C 0.5239 0.10427 0.48952 0.0
C284 C 0.51081 0.08279 0.45048 0.0
C285 C 0.49806 0.08463 0.3668 0.0
H286 H 0.38297 0.525 0.11395 0.0
H287 H 0.32418 0.47551 0.23843 0.0
H288 H 0.35212 0.46959 0.36752 0.0
H289 H 0.4351 0.48983 0.17063 0.0
H290 H 0.45637 0.51684 0.19227 0.0
H291 H 0.43152 0.51784 0.11087 0.0
H292 H 0.41491 0.55555 0.20134 0.0
H293 H 0.43976 0.55472 0.28272 0.0
H294 H 0.40725 0.55337 0.32314 0.0
H295 H 0.38657 0.46928 0.48463 0.0
H296 H 0.42446 0.4749 0.58039 0.0
H297 H 0.4619 0.52244 0.37526 0.0
C298 C 0.37591 0.51266 0.16756 0.0
C299 C 0.3511 0.50074 0.16507 0.0
C300 C 0.34277 0.48523 0.23859 0.0
C301 C 0.35866 0.48155 0.31207 0.0
C302 C 0.383 0.49333 0.31132 0.0
C303 C 0.39161 0.50855 0.24084 0.0
C304 C 0.41865 0.51896 0.25616 0.0
C305 C 0.43646 0.51035 0.17781 0.0
C306 C 0.42022 0.54733 0.26647 0.0
C307 C 0.4239 0.50733 0.34668 0.0
C308 C 0.40305 0.49265 0.37738 0.0
C309 C 0.40302 0.48061 0.46083 0.0
C310 C 0.42465 0.48389 0.51476 0.0
C311 C 0.44619 0.49894 0.48511 0.0
C312 C 0.44586 0.51055 0.39922 0.0
H313 H 1.00666 0.33283 0.26609 0.0
H314 H 0.01526 0.3698 0.00479 0.0
H315 H 0.02124 0.41003 0.0882 0.0
H316 H 0.97216 0.37699 0.38558 0.0
H317 H 0.9872 0.37536 0.49487 0.0
H318 H 0.98557 0.34899 0.41569 0.0
H319 H 0.03421 0.34798 0.41748 0.0
H320 H 0.03596 0.37426 0.49741 0.0
H321 H 0.05407 0.37538 0.39003 0.0
H322 H 0.02097 0.4466 0.19797 0.0
H323 H 0.01889 0.47696 0.32866 0.0
H324 H 0.01397 0.41728 0.52114 0.0
C325 C 1.01043 0.34934 0.22655 0.0
C326 C 1.01017 0.34805 0.12856 0.0
C327 C 0.01489 0.37022 0.07968 0.0
C328 C 0.01844 0.39323 0.12647 0.0
C329 C 0.01767 0.39396 0.22269 0.0
C330 C 0.01424 0.37263 0.27247 0.0
C331 C 0.01355 0.37889 0.37576 0.0
C332 C 0.98811 0.3695 0.42058 0.0
C333 C 0.03578 0.36851 0.42295 0.0
C334 C 0.0165 0.40699 0.3758 0.0
C335 C 0.01876 0.41525 0.28659 0.0
C336 C 0.01982 0.44037 0.26825 0.0
C337 C 0.01865 0.45752 0.34295 0.0
C338 C 0.01686 0.4496 0.43514 0.0
C339 C 0.0159 0.42395 0.45149 0.0
H340 H 0.86745 0.96577 0.98474 0.0
H341 H 0.83632 0.03753 -0.00243 0.0
H342 H 0.86834 0.05248 0.88217 0.0
H343 H 0.9333 0.9913 0.96799 0.0
H344 H 0.9432 0.96673 0.89188 0.0
H345 H 0.91756 0.96071 0.97452 0.0
H346 H 0.888 0.94406 0.84428 0.0
H347 H 0.91351 0.94937 0.76077 0.0
H348 H 0.88402 0.96291 0.74657 0.0
H349 H 0.90203 0.05912 0.75838 0.0
H350 H 0.93673 0.05774 0.6414 0.0
H351 H 0.94899 0.98323 0.71697 0.0
C352 C 0.86747 0.98479 0.96493 0.0
C353 C 0.84879 1.00025 0.00061 0.0
C354 C 0.84968 0.0249 0.9704 0.0
C355 C 0.86807 0.03373 0.90525 0.0
C356 C 0.88593 0.01795 0.87154 0.0
C357 C 0.88602 0.99409 0.90112 0.0
C358 C 0.90764 0.98107 0.85466 0.0
C359 C 0.92654 0.97456 0.92654 0.0
C360 C 0.89769 0.95799 0.79821 0.0
C361 C 0.91921 1.00112 0.79218 0.0
C362 C 0.90632 0.02223 0.80331 0.0
C363 C 0.91246 0.04283 0.75012 0.0
C364 C 0.93217 0.04184 0.68365 0.0
C365 C 0.94584 0.02058 0.6713 0.0
C366 C 0.93938 0.99998 0.72686 0.0
H367 H 0.54669 0.87325 0.05903 0.0
H368 H 0.51831 0.81287 0.87545 0.0
H369 H 0.50643 0.84306 0.76522 0.0
H370 H 0.5013 0.91692 0.00925 0.0
H371 H 0.52435 0.94315 0.01167 0.0
H372 H 0.52849 0.91691 0.08074 0.0
H373 H 0.57268 0.91281 0.00379 0.0
H374 H 0.56868 0.939 0.93438 0.0
H375 H 0.57574 0.90992 0.87954 0.0
H376 H 0.49849 0.87993 0.67183 0.0
H377 H 0.49688 0.92031 0.60025 0.0
H378 H 0.5339 0.95662 0.8373 0.0
C379 C 0.5381 0.86615 0.99568 0.0
C380 C 0.53338 0.84033 0.97739 0.0
C381 C 0.52167 0.83234 0.89343 0.0
C382 C 0.51501 0.84942 0.8295 0.0
C383 C 0.52037 0.87458 0.84936 0.0
C384 C 0.53178 0.88293 0.93021 0.0
C385 C 0.53669 0.9109 0.93273 0.0
C386 C 0.52182 0.92266 0.01339 0.0
C387 C 0.56514 0.9186 0.93789 0.0
C388 C 0.52646 0.91696 0.84018 0.0
C389 C 0.51682 0.89575 0.7938 0.0
C390 C 0.50604 0.89663 0.70754 0.0
C391 C 0.50516 0.91972 0.66747 0.0
C392 C 0.51533 0.94171 0.71277 0.0
C393 C 0.52612 0.94018 0.80044 0.0
H394 H 0.65866 0.55464 0.97919 0.0
H395 H 0.69078 0.48342 0.95252 0.0
H396 H 0.65881 0.4695 0.83879 0.0
H397 H 0.59277 0.52905 0.96795 0.0
H398 H 0.58309 0.55459 0.90511 0.0
H399 H 0.60877 0.55939 0.98395 0.0
H400 H 0.63794 0.57756 0.85249 0.0
H401 H 0.61235 0.57285 0.77348 0.0
H402 H 0.64189 0.55966 0.74643 0.0
H403 H 0.62499 0.46393 0.72093 0.0
H404 H 0.59023 0.46638 0.61306 0.0
H405 H 0.57655 0.53917 0.72682 0.0
C406 C 0.65888 0.53592 0.95121 0.0
C407 C 0.67778 0.52032 0.97554 0.0
C408 C 0.67723 0.49616 0.9344 0.0
C409 C 0.65885 0.4879 0.87013 0.0
C410 C 0.64067 0.50374 0.8483 0.0
C411 C 0.64031 0.52714 0.88836 0.0
C412 C 0.61849 0.54042 0.85309 0.0
C413 C 0.59967 0.5462 0.93225 0.0
C414 C 0.62826 0.56402 0.80341 0.0
C415 C 0.60691 0.52095 0.78562 0.0
C416 C 0.62016 0.49999 0.78381 0.0
C417 C 0.61425 0.48006 0.72293 0.0
C418 C 0.59449 0.48163 0.66188 0.0
C419 C 0.58047 0.50273 0.66286 0.0
C420 C 0.58656 0.52256 0.72639 0.0
H421 H 0.98594 0.68435 0.88473 0.0
H422 H 0.0129 0.65449 0.13398 0.0
H423 H 0.0225 0.61639 0.04672 0.0
H424 H 0.95586 0.62797 0.79569 0.0
H425 H 0.96448 0.6333 0.67625 0.0
H426 H 0.96107 0.65911 0.75611 0.0
H427 H 1.0066 0.67673 0.71447 0.0
H428 H 1.01004 0.6511 0.63372 0.0
H429 H 0.03247 0.65751 0.72406 0.0
H430 H 0.02689 0.58047 0.93597 0.0
H431 H 0.02834 0.55 0.80539 0.0
H432 H 0.99901 0.60246 0.62547 0.0
C433 C 0.99433 0.66997 0.92027 0.0
C434 C 0.99861 0.67241 0.01639 0.0
C435 C 1.00927 0.65298 0.06068 0.0
C436 C 0.01482 0.63126 0.01167 0.0
C437 C 1.00972 0.62909 0.91786 0.0
C438 C 0.99995 0.64797 0.87213 0.0
C439 C 0.99572 0.64045 0.77124 0.0
C440 C 0.96761 0.6402 0.74853 0.0
C441 C 1.0122 0.65746 0.70708 0.0
C442 C 1.00447 0.61443 0.7679 0.0
C443 C 1.01242 0.60829 0.85343 0.0
C444 C 0.02087 0.58513 0.86848 0.0
C445 C 0.02153 0.56789 0.79396 0.0
C446 C 0.01384 0.57383 0.70525 0.0
C447 C 1.00509 0.59741 0.69245 0.0
H448 H 0.05219 0.20412 0.29283 0.0
H449 H 0.97402 0.21452 0.2434 0.0
H450 H 0.96152 0.17285 0.29742 0.0
H451 H 0.05354 0.15141 0.19535 0.0
H452 H 0.07311 0.13597 0.27063 0.0
H453 H 0.07598 0.16907 0.2676 0.0
H454 H 0.06647 0.17343 0.44383 0.0
H455 H 0.0652 0.14023 0.44914 0.0
H456 H 0.03902 0.15663 0.49375 0.0
H457 H 0.95969 0.12691 0.29897 0.0
H458 H 0.96664 0.0825 0.30262 0.0
H459 H 0.04624 0.10133 0.34914 0.0
C460 C 0.03229 0.1984 0.30184 0.0
C461 C 0.0141 0.21222 0.2629 0.0
C462 C 0.98821 0.20419 0.2732 0.0
C463 C 0.98099 0.18024 0.30197 0.0
C464 C 0.99989 0.16527 0.32431 0.0
C465 C 0.02494 0.17438 0.32953 0.0
C466 C 0.04196 0.15369 0.34222 0.0
C467 C 0.06232 0.1525 0.26429 0.0
C468 C 0.05386 0.15614 0.43793 0.0
C469 C 0.02289 0.13154 0.33599 0.0
C470 C 0.99873 0.13857 0.32617 0.0
C471 C 0.97839 0.12122 0.31008 0.0
C472 C 0.98261 0.09604 0.31018 0.0
C473 C 1.00697 0.08854 0.32617 0.0
C474 C 0.02741 0.10656 0.33684 0.0
H475 H 0.31622 0.01123 0.26486 0.0
H476 H 0.31963 0.94471 0.0931 0.0
H477 H 0.35331 0.93133 0.18879 0.0
H478 H 0.37567 0.02528 0.26537 0.0
H479 H 0.37933 0.03765 0.38184 0.0
H480 H 0.34944 0.03782 0.32798 0.0
H481 H 0.32633 0.01233 0.45919 0.0
H482 H 0.35606 0.01471 0.51637 0.0
H483 H 0.33953 0.98479 0.49546 0.0
H484 H 0.3941 0.93199 0.26589 0.0
H485 H 0.43574 0.94402 0.33267 0.0
H486 H 0.4066 0.01038 0.45507 0.0
C487 C 0.3228 0.99302 0.25202 0.0
C488 C 0.31516 0.97874 0.17311 0.0
C489 C 0.32497 0.95557 0.15467 0.0
C490 C 0.3442 0.94794 0.20846 0.0
C491 C 0.35313 0.9636 0.28076 0.0
C492 C 0.34227 0.98541 0.30435 0.0
C493 C 0.35819 1.00122 0.37234 0.0
C494 C 0.36611 0.02698 0.33451 0.0
C495 C 0.34421 1.00335 0.46647 0.0
C496 C 0.3806 0.98586 0.37763 0.0
C497 C 0.37712 0.964 0.32588 0.0
C498 C 0.39669 0.94858 0.30934 0.0
C499 C 0.42034 0.95568 0.34651 0.0
C500 C 0.42419 0.97803 0.39902 0.0
C501 C 0.40395 0.99299 0.41623 0.0
H502 H 0.49165 0.32371 0.24632 0.0
H503 H 0.56791 0.32029 0.13698 0.0
H504 H 0.57813 0.36356 0.18876 0.0
H505 H 0.48178 0.37408 0.15715 0.0
H506 H 0.46349 0.38917 0.24623 0.0
H507 H 0.46338 0.35607 0.24086 0.0
H508 H 0.47895 0.35419 0.40586 0.0
H509 H 0.4775 0.38721 0.41906 0.0
H510 H 0.50639 0.37343 0.44104 0.0
H511 H 0.57619 0.40952 0.20999 0.0
H512 H 0.5654 0.45274 0.23721 0.0
H513 H 0.4891 0.4263 0.32024 0.0
C514 C 0.51106 0.33146 0.24109 0.0
C515 C 0.52906 0.31879 0.18857 0.0
C516 C 0.55407 0.32962 0.17883 0.0
C517 C 0.55983 0.35443 0.20619 0.0
C518 C 0.54048 0.36768 0.24511 0.0
C519 C 0.5168 0.35633 0.26602 0.0
C520 C 0.49823 0.37517 0.29443 0.0
C521 C 0.47539 0.37352 0.23086 0.0
C522 C 0.48975 0.37235 0.39618 0.0
C523 C 0.51472 0.39884 0.28118 0.0
C524 C 0.53908 0.39421 0.2538 0.0
C525 C 0.55732 0.41334 0.23354 0.0
C526 C 0.55089 0.43783 0.2474 0.0
C527 C 0.5264 0.44286 0.28036 0.0
C528 C 0.50795 0.42305 0.29436 0.0
H529 H 0.20061 0.49377 0.24498 0.0
H530 H 0.22258 0.5688 0.16967 0.0
H531 H 0.18269 0.58228 0.23919 0.0
H532 H 0.14603 0.4937 0.15881 0.0
H533 H 0.12722 0.47442 0.23792 0.0
H534 H 0.1605 0.47116 0.2234 0.0
H535 H 0.16788 0.47914 0.39533 0.0
H536 H 0.13463 0.48205 0.41777 0.0
H537 H 0.1576 0.50657 0.45307 0.0
H538 H 0.13628 0.58529 0.2795 0.0
H539 H 0.08987 0.57837 0.30589 0.0
H540 H 0.0975 0.50002 0.33106 0.0
C541 C 0.19786 0.51333 0.25054 0.0
C542 C 0.21472 0.53037 0.20428 0.0
C543 C 0.21015 0.55567 0.20746 0.0
C544 C 0.18728 0.56336 0.24531 0.0
C545 C 0.16942 0.54543 0.27939 0.0
C546 C 0.17472 0.52093 0.284 0.0
C547 C 0.15112 0.50436 0.30467 0.0
C548 C 0.14591 0.48475 0.22658 0.0
C549 C 0.15287 0.4923 0.39833 0.0
C550 C 0.1316 0.52312 0.30791 0.0
C551 C 0.14242 0.54677 0.29493 0.0
C552 C 0.1277 0.56688 0.29115 0.0
C553 C 0.10137 0.56276 0.30458 0.0
C554 C 0.09013 0.53865 0.31893 0.0
C555 C 0.1055 0.51864 0.31891 0.0
H556 H 0.03379 0.81823 0.86188 0.0
H557 H 0.95324 0.80668 0.91242 0.0
H558 H 0.94728 0.84617 0.84065 0.0
H559 H 0.03879 0.87345 0.94436 0.0
H560 H 0.06268 0.88763 0.86782 0.0
H561 H 0.06104 0.85491 0.88333 0.0
H562 H 0.05647 0.84565 0.70825 0.0
H563 H 0.05948 0.87843 0.68973 0.0
H564 H 0.0326 0.85959 0.64673 0.0
H565 H 0.95137 0.89136 0.81343 0.0
H566 H 0.96429 0.93574 0.7981 0.0
H567 H 0.04282 0.91924 0.77492 0.0
C568 C 0.01479 0.82306 0.85 0.0
C569 C 0.99395 0.80944 0.89157 0.0
C570 C 0.96934 0.81663 0.87918 0.0
C571 C 0.96588 0.83935 0.84005 0.0
C572 C 0.98723 0.85421 0.81228 0.0
C573 C 1.01124 0.84602 0.81369 0.0
C574 C 0.03135 0.86694 0.79664 0.0
C575 C 0.0495 0.87094 0.87788 0.0
C576 C 0.04583 0.86239 0.70485 0.0
C577 C 0.01505 0.88839 0.79089 0.0
C578 C 0.98967 0.88065 0.79901 0.0
C579 C 0.97115 0.89749 0.80441 0.0
C580 C 0.97871 0.92273 0.79757 0.0
C581 C 1.00458 0.93093 0.78626 0.0
C582 C 0.02292 0.91349 0.78373 0.0
H583 H 0.69618 0.05295 0.0248 0.0
H584 H 0.72951 0.99487 0.86173 0.0
H585 H 0.70167 1.00166 0.73393 0.0
H586 H 0.63904 0.0329 0.99194 0.0
H587 H 0.62433 0.06154 0.98487 0.0
H588 H 0.6531 0.06096 0.04572 0.0
H589 H 0.67505 0.0948 0.94304 0.0
H590 H 0.64597 0.09618 0.88294 0.0
H591 H 0.67477 0.09077 0.81891 0.0
H592 H 0.66287 1.00377 0.65201 0.0
H593 H 0.61812 1.00328 0.61536 0.0
H594 H 0.607 0.05911 0.83121 0.0
C595 C 0.69839 0.04259 0.96011 0.0
C596 C 0.71482 0.02337 0.95279 0.0
C597 C 0.71727 0.0099 0.86817 0.0
C598 C 0.70143 0.01363 0.79529 0.0
C599 C 0.68348 0.03096 0.80832 0.0
C600 C 0.6822 0.04567 0.88811 0.0
C601 C 0.65804 0.05885 0.89423 0.0
C602 C 0.64275 0.05319 0.98444 0.0
C603 C 0.66381 0.08682 0.88413 0.0
C604 C 0.64478 0.04734 0.81049 0.0
C605 C 0.66019 0.03201 0.76019 0.0
C606 C 0.65099 0.01642 0.68854 0.0
C607 C 0.62544 0.01614 0.66872 0.0
C608 C 0.6093 0.03145 0.71986 0.0
C609 C 0.61919 0.0477 0.78998 0.0
H610 H 0.4679 0.68792 0.95706 0.0
H611 H 0.54572 0.71266 0.89302 0.0
H612 H 0.55248 0.67208 0.82031 0.0
H613 H 0.47821 0.63594 0.03721 0.0
H614 H 0.45228 0.61604 0.99261 0.0
H615 H 0.44931 0.64866 0.00754 0.0
H616 H 0.43927 0.65273 0.83538 0.0
H617 H 0.44026 0.61972 0.82025 0.0
H618 H 0.45964 0.64011 0.74686 0.0
H619 H 0.55494 0.62679 0.80871 0.0
H620 H 0.54914 0.58134 0.80424 0.0
H621 H 0.46924 0.58493 0.87059 0.0
C622 C 0.48567 0.68536 0.92064 0.0
C623 C 0.50633 0.70325 0.93102 0.0
C624 C 0.52961 0.69928 0.88509 0.0
C625 C 0.53376 0.67604 0.84514 0.0
C626 C 0.51409 0.6575 0.84879 0.0
C627 C 0.49007 0.66216 0.88094 0.0
C628 C 0.47318 0.63835 0.8879 0.0
C629 C 0.46265 0.63455 0.9872 0.0
C630 C 0.45182 0.63768 0.81843 0.0
C631 C 0.4919 0.61959 0.86086 0.0
C632 C 0.51539 0.63104 0.83893 0.0
C633 C 0.53641 0.61762 0.82213 0.0
C634 C 0.53301 0.59179 0.82179 0.0
C635 C 0.50869 0.57965 0.83693 0.0
C636 C 0.48801 0.59377 0.85865 0.0
H637 H 0.82473 0.4635 0.937 0.0
H638 H 0.81275 0.5389 0.87502 0.0
H639 H 0.85437 0.54327 0.79596 0.0
H640 H 0.8802 0.4737 0.01037 0.0
H641 H 0.89545 0.44723 0.96438 0.0
H642 H 0.86176 0.44522 0.98216 0.0
H643 H 0.85442 0.43255 0.81055 0.0
H644 H 0.88819 0.43282 0.79257 0.0
H645 H 0.87002 0.45081 0.72087 0.0
H646 H 0.90061 0.54482 0.78269 0.0
H647 H 0.94599 0.5391 0.78166 0.0
H648 H 0.92951 0.46181 0.84422 0.0
C649 C 0.83007 0.48012 0.89962 0.0
C650 C 0.81572 0.50089 0.91207 0.0
C651 C 0.82336 0.52273 0.86524 0.0
C652 C 0.84724 0.52549 0.82155 0.0
C653 C 0.86264 0.50589 0.82276 0.0
C654 C 0.854 0.48312 0.85628 0.0
C655 C 0.87545 0.46635 0.86146 0.0
C656 C 0.87836 0.45764 0.96046 0.0
C657 C 0.87181 0.44433 0.7922 0.0
C658 C 0.89767 0.48387 0.83274 0.0
C659 C 0.8898 0.50657 0.81102 0.0
C660 C 0.90693 0.52684 0.79556 0.0
C661 C 0.93273 0.5235 0.79724 0.0
C662 C 0.94125 0.49995 0.81279 0.0
C663 C 0.92346 0.47994 0.83165 0.0
H664 H 1.00356 0.16759 0.02175 0.0
H665 H 0.05239 0.21376 0.84163 0.0
H666 H 0.05819 0.17714 0.7373 0.0
H667 H 0.03968 0.1153 0.00614 0.0
H668 H 0.01266 0.09301 0.00921 0.0
H669 H 1.01083 0.12301 0.06511 0.0
H670 H 0.97194 0.13054 0.9695 0.0
H671 H 0.97334 0.10041 0.91425 0.0
H672 H 0.97395 0.12741 0.84511 0.0
H673 H 0.05973 0.13499 0.65703 0.0
H674 H 0.05469 0.09174 0.59938 0.0
H675 H 1.00624 0.07257 0.83714 0.0
C676 C 0.01548 0.17011 0.96017 0.0
C677 C 0.02779 0.19357 0.94024 0.0
C678 C 0.04274 0.19607 0.85809 0.0
C679 C 0.04629 0.17531 0.7991 0.0
C680 C 0.03474 0.15228 0.82346 0.0
C681 C 0.01944 0.14966 0.90172 0.0
C682 C 1.00946 0.12293 0.91375 0.0
C683 C 0.01871 0.11298 0.00388 0.0
C684 C 0.98045 0.12017 0.91041 0.0
C685 C 0.0215 0.11068 0.82953 0.0
C686 C 0.03601 0.128 0.77852 0.0
C687 C 0.04848 0.12137 0.6966 0.0
C688 C 0.04552 0.09666 0.66462 0.0
C689 C 0.03023 0.07864 0.71414 0.0
C690 C 0.01846 0.08574 0.79879 0.0
H691 H 0.34378 0.98385 0.84484 0.0
H692 H 0.33316 0.06059 0.91711 0.0
H693 H 0.37433 0.07301 0.842 0.0
H694 H 0.40522 0.98588 0.90155 0.0
H695 H 0.41599 0.96555 0.81004 0.0
H696 H 0.38345 0.96271 0.84902 0.0
H697 H 0.36868 0.96868 0.68224 0.0
H698 H 0.40134 0.97048 0.64307 0.0
H699 H 0.38186 0.995 0.61964 0.0
H700 H 0.41989 0.07632 0.78887 0.0
H701 H 0.46451 0.07073 0.74584 0.0
H702 H 0.44621 0.99193 0.70566 0.0
C703 C 0.34967 1.00337 0.8416 0.0
C704 C 0.33501 0.02126 0.88652 0.0
C705 C 0.34363 0.04656 0.88181 0.0
C706 C 0.36719 0.05377 0.8399 0.0
C707 C 0.38184 0.03553 0.80165 0.0
C708 C 0.37317 0.01084 0.8001 0.0
C709 C 0.39361 0.99469 0.76316 0.0
C710 C 0.39993 0.97612 0.83526 0.0
C711 C 0.38589 0.98141 0.67161 0.0
C712 C 0.41543 0.01403 0.74776 0.0
C713 C 0.40817 0.03748 0.76984 0.0
C714 C 0.42558 0.05812 0.76925 0.0
C715 C 0.45093 0.05475 0.74532 0.0
C716 C 0.45876 0.03096 0.72168 0.0
C717 C 0.44066 0.01039 0.72186 0.0
H718 H 0.476 0.34833 0.97263 0.0
H719 H 0.51604 0.30345 0.77238 0.0
H720 H 0.51858 0.33782 0.66388 0.0
H721 H 0.44309 0.38586 0.80854 0.0
H722 H 0.44841 0.41342 0.88075 0.0
H723 H 0.44441 0.38357 0.93222 0.0
H724 H 0.48701 0.39305 0.01252 0.0
H725 H 0.49177 0.42252 0.95954 0.0
H726 H 0.51529 0.40045 0.94389 0.0
H727 H 0.52344 0.37917 0.59008 0.0
H728 H 0.52606 0.42275 0.54655 0.0
H729 H 0.48637 0.44213 0.80232 0.0
C730 C 0.4845 0.34539 0.90453 0.0
C731 C 0.49576 0.32308 0.88084 0.0
C732 C 0.5069 0.32009 0.79151 0.0
C733 C 0.50869 0.33968 0.72994 0.0
C734 C 0.49925 0.36209 0.75885 0.0
C735 C 0.48706 0.36492 0.84369 0.0
C736 C 0.48124 0.3916 0.86311 0.0
C737 C 0.45258 0.39373 0.87162 0.0
C738 C 0.49464 0.40253 0.94987 0.0
C739 C 0.49243 0.40352 0.77656 0.0
C740 C 0.5025 0.38611 0.71704 0.0
C741 C 0.51493 0.39279 0.63468 0.0
C742 C 0.51649 0.4177 0.61112 0.0
C743 C 0.5063 0.43594 0.67085 0.0
C744 C 0.49428 0.42867 0.75511 0.0
H745 H 0.17467 0.4774 0.97825 0.0
H746 H 0.2263 0.5163 0.78533 0.0
H747 H 0.1916 0.51729 0.67568 0.0
H748 H 0.13385 0.44211 0.8009 0.0
H749 H 0.10566 0.4457 0.8711 0.0
H750 H 0.13549 0.44358 0.9252 0.0
H751 H 0.12906 0.4844 0.01416 0.0
H752 H 0.09996 0.48795 0.95815 0.0
H753 H 0.12534 0.51204 0.95221 0.0
H754 H 0.15025 0.52117 0.60236 0.0
H755 H 0.1064 0.52203 0.55485 0.0
H756 H 0.08031 0.48196 0.79868 0.0
C757 C 0.1789 0.48533 0.9114 0.0
C758 C 0.20335 0.49666 0.89008 0.0
C759 C 0.20799 0.50712 0.80252 0.0
C760 C 0.18827 0.50799 0.74029 0.0
C761 C 0.16407 0.49811 0.76628 0.0
C762 C 0.1594 0.4865 0.84897 0.0
C763 C 0.13132 0.47922 0.86371 0.0
C764 C 0.12629 0.45097 0.86529 0.0
C765 C 0.12082 0.49169 0.95228 0.0
C766 C 0.12075 0.48938 0.77802 0.0
C767 C 0.14005 0.49998 0.72259 0.0
C768 C 0.13509 0.51199 0.64285 0.0
C769 C 0.10993 0.51258 0.61722 0.0
C770 C 0.08964 0.50181 0.67242 0.0
C771 C 0.09527 0.49011 0.7543 0.0
H772 H 0.98441 0.82416 0.29648 0.0
H773 H 0.05343 0.83616 0.1311 0.0
H774 H 0.05912 0.87893 0.19316 0.0
H775 H 0.96079 0.87875 0.27652 0.0
H776 H 0.94991 0.88444 0.39398 0.0
H777 H 0.95274 0.85324 0.35111 0.0
H778 H 0.98248 0.84522 0.48318 0.0
H779 H 0.97904 0.87613 0.52904 0.0
H780 H 1.01005 0.86612 0.50256 0.0
H781 H 0.05028 0.92223 0.23427 0.0
H782 H 0.03733 0.96168 0.30257 0.0
H783 H 0.97911 0.92186 0.4678 0.0
C784 C 1.00152 0.83531 0.27818 0.0
C785 C 0.0185 0.82686 0.20889 0.0
C786 C 0.04037 0.84223 0.18463 0.0
C787 C 0.04357 0.86667 0.21853 0.0
C788 C 0.02539 0.87517 0.28036 0.0
C789 C 1.00563 0.85968 0.3147 0.0
C790 C 0.98887 0.87399 0.38099 0.0
C791 C 0.96146 0.8725 0.34865 0.0
C792 C 0.99018 0.86482 0.47983 0.0
C793 C 1.00143 0.90003 0.37335 0.0
C794 C 0.02213 0.90024 0.31317 0.0
C795 C 0.03486 0.92225 0.28492 0.0
C796 C 0.02719 0.94459 0.32327 0.0
C797 C 1.00764 0.94477 0.3918 0.0
C798 C 0.99437 0.92218 0.41638 0.0
H799 H 0.67509 0.96591 0.20977 0.0
H800 H 0.70911 0.03286 0.34045 0.0
H801 H 0.6689 0.03876 0.42621 0.0
H802 H 0.61789 0.98655 0.17104 0.0
H803 H 0.59841 0.95876 0.19646 0.0
H804 H 0.63074 0.95684 0.15784 0.0
H805 H 0.64018 0.93331 0.30355 0.0
H806 H 0.60762 0.93441 0.34151 0.0
H807 H 0.63257 0.94625 0.41648 0.0
H808 H 0.62325 0.04256 0.46657 0.0
H809 H 0.57722 0.03882 0.49415 0.0
H810 H 0.57219 0.96714 0.35074 0.0
C811 C 0.67443 0.98096 0.26074 0.0
C812 C 0.69546 0.99855 0.27088 0.0
C813 C 0.69357 0.01877 0.33432 0.0
C814 C 0.67066 0.02243 0.38212 0.0
C815 C 0.64988 1.00552 0.36663 0.0
C816 C 0.65174 0.98466 0.3101 0.0
C817 C 0.62613 0.9701 0.3019 0.0
C818 C 0.61782 0.96795 0.20081 0.0
C819 C 0.62666 0.9445 0.34336 0.0
C820 C 0.60943 0.98644 0.36016 0.0
C821 C 0.62357 1.00694 0.39549 0.0
C822 C 0.61218 0.02611 0.44246 0.0
C823 C 0.58593 0.02379 0.45768 0.0
C824 C 0.57111 1.00222 0.42816 0.0
C825 C 0.58306 0.98347 0.37699 0.0
H826 H 0.53584 0.66865 0.14614 0.0
H827 H 0.51103 0.71696 0.37021 0.0
H828 H 0.51276 0.68271 0.47884 0.0
H829 H 0.49679 0.61738 0.20911 0.0
H830 H 0.51866 0.59489 0.17371 0.0
H831 H 0.51998 0.62405 0.11799 0.0
H832 H 0.56699 0.63281 0.15829 0.0
H833 H 0.56612 0.60347 0.21309 0.0
H834 H 0.57626 0.63149 0.27666 0.0
H835 H 0.51352 0.64168 0.55861 0.0
H836 H 0.51262 0.59847 0.60376 0.0
H837 H 0.53352 0.57623 0.32212 0.0
C838 C 0.53105 0.67223 0.21841 0.0
C839 C 0.52309 0.69552 0.24969 0.0
C840 C 0.51732 0.69941 0.34485 0.0
C841 C 0.51813 0.67999 0.40669 0.0
C842 C 0.52476 0.6569 0.37202 0.0
C843 C 0.5312 0.65305 0.27991 0.0
C844 C 0.53537 0.62615 0.25731 0.0
C845 C 0.51658 0.61497 0.18532 0.0
C846 C 0.56282 0.62332 0.22442 0.0
C847 C 0.52995 0.61514 0.35113 0.0
C848 C 0.52424 0.63324 0.41661 0.0
C849 C 0.51809 0.62748 0.50784 0.0
C850 C 0.51762 0.6027 0.53265 0.0
C851 C 0.52297 0.58367 0.46646 0.0
C852 C 0.52938 0.59018 0.37453 0.0
H853 H 0.85749 0.53274 0.13884 0.0
H854 H 0.80398 0.50644 0.35267 0.0
H855 H 0.83892 0.50829 0.46363 0.0
H856 H 0.90467 0.49519 0.19439 0.0
H857 H 0.93065 0.51733 0.16625 0.0
H858 H 0.9011 0.51797 0.10922 0.0
H859 H 0.89838 0.56376 0.16202 0.0
H860 H 0.92808 0.56342 0.21865 0.0
H861 H 0.90053 0.57246 0.28307 0.0
H862 H 0.88073 0.50952 0.54621 0.0
H863 H 0.92465 0.50946 0.59406 0.0
H864 H 0.95131 0.5319 0.32071 0.0
C865 C 0.85294 0.52757 0.20934 0.0
C866 C 0.82788 0.51922 0.23683 0.0
C867 C 0.82286 0.51305 0.33007 0.0
C868 C 0.84267 0.51392 0.39325 0.0
C869 C 0.86732 0.52101 0.36199 0.0
C870 C 0.87242 0.5278 0.27206 0.0
C871 C 0.90061 0.53261 0.25259 0.0
C872 C 0.90979 0.51471 0.17612 0.0
C873 C 0.90729 0.55968 0.22763 0.0
C874 C 0.91086 0.52724 0.34563 0.0
C875 C 0.89131 0.52089 0.40808 0.0
C876 C 0.89606 0.51462 0.49786 0.0
C877 C 0.92126 0.51468 0.52433 0.0
C878 C 0.94172 0.52077 0.46135 0.0
C879 C 0.93626 0.52726 0.37078 0.0
loop_
_geom_bond_atom_site_label_1
_geom_bond_atom_site_label_2
_geom_bond_distance
_geom_bond_site_symmetry_2
_ccdc_geom_bond_type
H0 C1 0.949 1_556 S
C1 H0 0.949 1_554 S
C1 C2 1.395 . S
C1 C3 1.391 . S
C2 C1 1.395 . S
C2 C5 1.390 . S
C3 C1 1.391 . S
C3 C7 1.387 . S
C3 C8 1.491 . S
H4 C5 0.950 . S
C5 C2 1.390 . S
C5 H4 0.950 . S
C5 C6 1.378 . S
C6 C5 1.378 . S
C6 C7 1.409 . S
C7 C3 1.387 . S
C7 C6 1.409 . S
C7 H9 0.951 . S
C8 C3 1.491 . S
C8 C10 1.382 . S
C8 C12 1.404 . S
H9 C7 0.951 . S
C10 C8 1.382 . S
C10 C11 1.390 . S
C10 H15 0.949 1_554 S
C11 C10 1.390 . S
C11 C16 1.399 . S
C12 C8 1.404 . S
C12 H13 0.950 . S
C12 C14 1.375 . S
H13 C12 0.950 . S
C14 C12 1.375 . S
C14 C16 1.382 . S
C14 H18 0.950 . S
H15 C10 0.949 1_556 S
C16 C11 1.399 . S
C16 C14 1.382 . S
C16 H17 0.952 . S
H17 C16 0.952 . S
H18 C14 0.950 . S
H19 C20 0.949 . S
C20 H19 0.949 . S
C20 C21 1.395 . S
C20 C22 1.391 1_556 S
C21 C20 1.395 . S
C21 C24 1.390 1_556 S
C22 C20 1.391 1_554 S
C22 C26 1.387 . S
C22 C27 1.491 . S
H23 C24 0.950 1_455 S
C24 C21 1.390 1_554 S
C24 H23 0.950 1_655 S
C24 C25 1.378 . S
C25 C24 1.378 . S
C25 C26 1.409 . S
C26 C22 1.387 . S
C26 C25 1.409 . S
C26 H28 0.951 . S
C27 C22 1.491 . S
C27 C29 1.382 1_554 S
C27 C31 1.404 . S
H28 C26 0.951 . S
C29 C27 1.382 1_556 S
C29 C30 1.390 . S
C29 H34 0.949 1_655 S
C30 C29 1.390 . S
C30 C35 1.399 1_556 S
C31 C27 1.404 . S
C31 H32 0.950 . S
C31 C33 1.375 . S
H32 C31 0.950 . S
C33 C31 1.375 . S
C33 C35 1.382 . S
C33 H37 0.950 . S
H34 C29 0.949 1_455 S
C35 C30 1.399 1_554 S
C35 C33 1.382 . S
C35 H36 0.952 . S
H36 C35 0.952 . S
H37 C33 0.950 . S
H38 C39 0.949 . S
C39 H38 0.949 . S
C39 C40 1.395 . S
C39 C41 1.391 1_556 S
C40 C39 1.395 . S
C40 C43 1.390 1_556 S
C41 C39 1.391 1_554 S
C41 C45 1.387 . S
C41 C46 1.491 . S
H42 C43 0.950 . S
C43 C40 1.390 1_554 S
C43 H42 0.950 . S
C43 C44 1.378 . S
C44 C43 1.378 . S
C44 C45 1.409 . S
C45 C41 1.387 . S
C45 C44 1.409 . S
C45 H47 0.951 . S
C46 C41 1.491 . S
C46 C48 1.382 1_554 S
C46 C50 1.404 . S
H47 C45 0.951 . S
C48 C46 1.382 1_556 S
C48 C49 1.390 . S
C48 H53 0.949 . S
C49 C48 1.390 . S
C49 C54 1.399 1_556 S
C50 C46 1.404 . S
C50 H51 0.950 . S
C50 C52 1.375 . S
H51 C50 0.950 . S
C52 C50 1.375 . S
C52 C54 1.382 . S
C52 H56 0.950 . S
H53 C48 0.949 . S
C54 C49 1.399 1_554 S
C54 C52 1.382 . S
C54 H55 0.952 . S
H55 C54 0.952 . S
H56 C52 0.950 . S
H57 C58 0.949 1_556 S
C58 H57 0.949 1_554 S
C58 C59 1.395 . S
C58 C60 1.391 . S
C59 C58 1.395 . S
C59 C62 1.390 . S
C60 C58 1.391 . S
C60 C64 1.387 . S
C60 C65 1.491 . S
H61 C62 0.950 . S
C62 C59 1.390 . S
C62 H61 0.950 . S
C62 C63 1.378 . S
C63 C62 1.378 . S
C63 C64 1.409 . S
C64 C60 1.387 . S
C64 C63 1.409 . S
C64 H66 0.951 . S
C65 C60 1.491 . S
C65 C67 1.382 . S
C65 C69 1.404 . S
H66 C64 0.951 . S
C67 C65 1.382 . S
C67 C68 1.390 . S
C67 H72 0.949 . S
C68 C67 1.390 . S
C68 C73 1.399 . S
C69 C65 1.404 . S
C69 H70 0.950 . S
C69 C71 1.375 . S
H70 C69 0.950 . S
C71 C69 1.375 . S
C71 C73 1.382 . S
C71 H75 0.950 . S
H72 C67 0.949 . S
C73 C68 1.399 . S
C73 C71 1.382 . S
C73 H74 0.952 . S
H74 C73 0.952 . S
H75 C71 0.950 . S
H76 C77 0.949 . S
C77 H76 0.949 . S
C77 C78 1.395 . S
C77 C79 1.391 . S
C78 C77 1.395 . S
C78 C81 1.390 . S
C79 C77 1.391 . S
C79 C83 1.387 1_554 S
C79 C84 1.491 . S
H80 C81 0.950 . S
C81 C78 1.390 . S
C81 H80 0.950 . S
C81 C82 1.378 1_554 S
C82 C81 1.378 1_556 S
C82 C83 1.409 . S
C83 C79 1.387 1_556 S
C83 C82 1.409 . S
C83 H85 0.951 . S
C84 C79 1.491 . S
C84 C86 1.382 . S
C84 C88 1.404 . S
H85 C83 0.951 . S
C86 C84 1.382 . S
C86 C87 1.390 . S
C86 H91 0.949 . S
C87 C86 1.390 . S
C87 C92 1.399 . S
C88 C84 1.404 . S
C88 H89 0.950 1_554 S
C88 C90 1.375 . S
H89 C88 0.950 1_556 S
C90 C88 1.375 . S
C90 C92 1.382 . S
C90 H94 0.950 1_554 S
H91 C86 0.949 . S
C92 C87 1.399 . S
C92 C90 1.382 . S
C92 H93 0.952 . S
H93 C92 0.952 . S
H94 C90 0.950 1_556 S
H95 C96 0.951 . S
C96 H95 0.951 . S
C96 C97 1.395 . S
C96 C98 1.391 1_455 S
C97 C96 1.395 . S
C97 C100 1.390 . S
C98 C96 1.391 1_655 S
C98 C102 1.385 1_654 S
C98 C103 1.491 . S
H99 C100 0.950 . S
C100 C97 1.390 . S
C100 H99 0.950 . S
C100 C101 1.378 1_554 S
C101 C100 1.378 1_556 S
C101 C102 1.416 . S
C102 C98 1.385 1_456 S
C102 C101 1.416 . S
C102 H104 0.943 1_455 S
C103 C98 1.491 . S
C103 C105 1.382 1_655 S
C103 C107 1.404 . S
H104 C102 0.943 1_655 S
C105 C103 1.382 1_455 S
C105 C106 1.390 1_455 S
C105 H110 0.949 . S
C106 C105 1.390 1_655 S
C106 C111 1.399 . S
C107 C103 1.404 . S
C107 H108 0.950 1_554 S
C107 C109 1.375 . S
H108 C107 0.950 1_556 S
C109 C107 1.375 . S
C109 C111 1.382 . S
C109 H113 0.950 1_554 S
H110 C105 0.949 . S
C111 C106 1.399 . S
C111 C109 1.382 . S
C111 H112 0.952 . S
H112 C111 0.952 . S
H113 C109 0.950 1_556 S
H114 C115 0.949 . S
C115 H114 0.949 . S
C115 C116 1.395 . S
C115 C117 1.391 . S
C116 C115 1.395 . S
C116 C119 1.390 . S
C117 C115 1.391 . S
C117 C121 1.387 . S
C117 C122 1.491 . S
H118 C119 0.950 . S
C119 C116 1.390 . S
C119 H118 0.950 . S
C119 C120 1.378 . S
C120 C119 1.378 . S
C120 C121 1.409 . S
C121 C117 1.387 . S
C121 C120 1.409 . S
C121 H123 0.951 1_554 S
C122 C117 1.491 . S
C122 C124 1.382 . S
C122 C126 1.404 . S
H123 C121 0.951 1_556 S
C124 C122 1.382 . S
C124 C125 1.390 . S
C124 H129 0.949 . S
C125 C124 1.390 . S
C125 C130 1.399 . S
C126 C122 1.404 . S
C126 H127 0.950 1_554 S
C126 C128 1.375 . S
H127 C126 0.950 1_556 S
C128 C126 1.375 . S
C128 C130 1.382 . S
C128 H132 0.950 1_545 S
H129 C124 0.949 . S
C130 C125 1.399 . S
C130 C128 1.382 . S
C130 H131 0.952 . S
H131 C130 0.952 . S
H132 C128 0.950 1_565 S
H133 C134 0.949 . S
C134 H133 0.949 . S
C134 C135 1.395 . S
C134 C136 1.391 . S
C135 C134 1.395 . S
C135 C138 1.390 . S
C136 C134 1.391 . S
C136 C140 1.387 1_554 S
C136 C141 1.491 . S
H137 C138 0.950 . S
C138 C135 1.390 . S
C138 H137 0.950 . S
C138 C139 1.378 1_554 S
C139 C138 1.378 1_556 S
C139 C140 1.409 . S
C140 C136 1.387 1_556 S
C140 C139 1.409 . S
C140 H142 0.951 . S
C141 C136 1.491 . S
C141 C143 1.382 . S
C141 C145 1.404 1_554 S
H142 C140 0.951 . S
C143 C141 1.382 . S
C143 C144 1.390 . S
C143 H148 0.949 . S
C144 C143 1.390 . S
C144 C149 1.399 . S
C145 C141 1.404 1_556 S
C145 H146 0.950 . S
C145 C147 1.375 . S
H146 C145 0.950 . S
C147 C145 1.375 . S
C147 C149 1.382 1_556 S
C147 H151 0.950 . S
H148 C143 0.949 . S
C149 C144 1.399 . S
C149 C147 1.382 1_554 S
C149 H150 0.952 . S
H150 C149 0.952 . S
H151 C147 0.950 . S
Dy152 O156 2.398 . S
Dy152 O157 2.491 1_455 S
Dy152 O158 2.403 . S
Dy152 O159 2.664 1_565 S
Dy152 O163 2.326 . S
Dy152 O167 2.310 1_455 S
Dy152 O168 2.351 1_565 S
C153 O164 1.185 . S
C153 O165 1.355 1_655 S
C154 O156 1.185 . S
C154 O157 1.355 1_455 S
Dy155 O159 2.310 1_655 S
Dy155 O162 2.351 1_545 S
Dy155 O164 2.398 . S
Dy155 O165 2.491 1_655 S
Dy155 O166 2.403 . S
Dy155 O167 2.664 1_545 S
Dy155 O169 2.326 . S
O156 Dy152 2.398 . S
O156 C154 1.185 . S
O157 Dy152 2.491 1_655 S
O157 C154 1.355 1_655 S
O158 Dy152 2.403 . S
O158 C160 1.254 1_565 S
O159 Dy152 2.664 1_545 S
O159 Dy155 2.310 1_455 S
O159 C160 1.268 . S
C160 O158 1.254 1_545 S
C160 O159 1.268 . S
C161 O166 1.254 1_565 S
C161 O167 1.268 . S
O162 Dy155 2.351 1_565 S
O162 C170 1.249 . S
O163 Dy152 2.326 . S
O163 C170 1.267 1_455 S
O164 C153 1.185 . S
O164 Dy155 2.398 . S
O165 C153 1.355 1_455 S
O165 Dy155 2.491 1_455 S
O166 Dy155 2.403 . S
O166 C161 1.254 1_545 S
O167 Dy152 2.310 1_655 S
O167 Dy155 2.664 1_565 S
O167 C161 1.268 . S
O168 Dy152 2.351 1_545 S
O168 C171 1.249 . S
O169 Dy155 2.326 . S
O169 C171 1.267 1_655 S
C170 O162 1.249 . S
C170 O163 1.267 1_655 S
C171 O168 1.249 . S
C171 O169 1.267 1_455 S
Dy172 O176 2.398 . S
Dy172 O177 2.491 1_565 S
Dy172 O178 2.403 . S
Dy172 O179 2.664 . S
Dy172 O183 2.326 1_565 S
Dy172 O187 2.310 1_565 S
Dy172 O188 2.351 . S
C173 O184 1.184 1_565 S
C173 O185 1.356 . S
C174 O176 1.185 1_545 S
C174 O177 1.355 . S
Dy175 O179 2.310 1_545 S
Dy175 O182 2.351 . S
Dy175 O184 2.398 . S
Dy175 O185 2.491 1_545 S
Dy175 O186 2.403 . S
Dy175 O187 2.664 . S
Dy175 O189 2.326 1_545 S
O176 Dy172 2.398 . S
O176 C174 1.185 1_565 S
O177 Dy172 2.491 1_545 S
O177 C174 1.355 . S
O178 Dy172 2.403 . S
O178 C180 1.254 . S
O179 Dy172 2.664 . S
O179 Dy175 2.310 1_565 S
O179 C180 1.268 . S
C180 O178 1.254 . S
C180 O179 1.268 . S
C181 O186 1.254 . S
C181 O187 1.268 . S
O182 Dy175 2.351 . S
O182 C190 1.249 . S
O183 Dy172 2.326 1_545 S
O183 C190 1.267 . S
O184 C173 1.184 1_545 S
O184 Dy175 2.398 . S
O185 C173 1.356 . S
O185 Dy175 2.491 1_565 S
O186 Dy175 2.403 . S
O186 C181 1.254 . S
O187 Dy172 2.310 1_545 S
O187 Dy175 2.664 . S
O187 C181 1.268 . S
O188 Dy172 2.351 . S
O188 C191 1.249 . S
O189 Dy175 2.326 1_565 S
O189 C191 1.267 . S
C190 O182 1.249 . S
C190 O183 1.267 . S
C191 O188 1.249 . S
C191 O189 1.267 . S
Dy192 O196 2.398 . S
Dy192 O197 2.491 . S
Dy192 O198 2.403 . S
Dy192 O199 2.664 . S
Dy192 O203 2.326 . S
Dy192 O207 2.310 . S
Dy192 O208 2.351 . S
C193 O204 1.185 . S
C193 O205 1.355 . S
C194 O196 1.185 . S
C194 O197 1.355 . S
Dy195 O199 2.310 . S
Dy195 O202 2.351 . S
Dy195 O204 2.398 . S
Dy195 O205 2.491 . S
Dy195 O206 2.403 . S
Dy195 O207 2.664 . S
Dy195 O209 2.326 . S
O196 Dy192 2.398 . S
O196 C194 1.185 . S
O197 Dy192 2.491 . S
O197 C194 1.355 . S
O198 Dy192 2.403 . S
O198 C200 1.254 . S
O199 Dy192 2.664 . S
O199 Dy195 2.310 . S
O199 C200 1.268 . S
C200 O198 1.254 . S
C200 O199 1.268 . S
C201 O206 1.254 . S
C201 O207 1.268 . S
O202 Dy195 2.351 . S
O202 C210 1.249 . S
O203 Dy192 2.326 . S
O203 C210 1.267 . S
O204 C193 1.185 . S
O204 Dy195 2.398 . S
O205 C193 1.355 . S
O205 Dy195 2.491 . S
O206 Dy195 2.403 . S
O206 C201 1.254 . S
O207 Dy192 2.310 . S
O207 Dy195 2.664 . S
O207 C201 1.268 . S
O208 Dy192 2.351 . S
O208 C211 1.249 . S
O209 Dy195 2.326 . S
O209 C211 1.267 . S
C210 O202 1.249 . S
C210 O203 1.267 . S
C211 O208 1.249 . S
C211 O209 1.267 . S
Dy212 O216 2.398 . S
Dy212 O217 2.491 . S
Dy212 O218 2.403 . S
Dy212 O219 2.664 1_655 S
Dy212 O223 2.326 . S
Dy212 O227 2.310 . S
Dy212 O228 2.351 1_655 S
C213 O224 1.185 . S
C213 O225 1.355 . S
C214 O216 1.185 . S
C214 O217 1.355 . S
Dy215 O219 2.310 . S
Dy215 O222 2.351 1_455 S
Dy215 O224 2.398 . S
Dy215 O225 2.491 . S
Dy215 O226 2.403 . S
Dy215 O227 2.664 1_455 S
Dy215 O229 2.326 . S
O216 Dy212 2.398 . S
O216 C214 1.185 . S
O217 Dy212 2.491 . S
O217 C214 1.355 . S
O218 Dy212 2.403 . S
O218 C220 1.254 . S
O219 Dy212 2.664 1_455 S
O219 Dy215 2.310 . S
O219 C220 1.268 1_455 S
C220 O218 1.254 . S
C220 O219 1.268 1_655 S
C221 O226 1.254 . S
C221 O227 1.268 1_455 S
O222 Dy215 2.351 1_655 S
O222 C230 1.249 . S
O223 Dy212 2.326 . S
O223 C230 1.267 . S
O224 C213 1.185 . S
O224 Dy215 2.398 . S
O225 C213 1.355 . S
O225 Dy215 2.491 . S
O226 Dy215 2.403 . S
O226 C221 1.254 . S
O227 Dy212 2.310 . S
O227 Dy215 2.664 1_655 S
O227 C221 1.268 1_655 S
O228 Dy212 2.351 1_455 S
O228 C231 1.249 . S
O229 Dy215 2.326 . S
O229 C231 1.267 . S
C230 O222 1.249 . S
C230 O223 1.267 . S
C231 O228 1.249 . S
C231 O229 1.267 . S
H232 C244 0.930 . S
H233 C246 0.930 . S
H234 C247 0.930 1_565 S
H235 C251 0.959 . S
H236 C251 0.959 . S
H237 C251 0.961 . S
H238 C252 0.960 . S
H239 C252 0.961 . S
H240 C252 0.959 . S
H241 C255 0.929 . S
H242 C256 0.931 . S
H243 C258 0.930 . S
C244 H232 0.930 . S
C244 C245 1.399 . S
C244 C249 1.399 . S
C245 C244 1.399 . S
C245 C246 1.376 . S
C246 H233 0.930 . S
C246 C245 1.376 . S
C246 C247 1.388 . S
C247 H234 0.930 1_545 S
C247 C246 1.388 . S
C247 C248 1.390 . S
C248 C247 1.390 . S
C248 C249 1.394 . S
C248 C254 1.465 . S
C249 C244 1.399 . S
C249 C248 1.394 . S
C249 C250 1.516 . S
C250 C249 1.516 . S
C250 C251 1.502 . S
C250 C252 1.561 . S
C250 C253 1.526 . S
C251 H235 0.959 . S
C251 H236 0.959 . S
C251 H237 0.961 . S
C251 C250 1.502 . S
C252 H238 0.960 . S
C252 H239 0.961 . S
C252 H240 0.959 . S
C252 C250 1.561 . S
C253 C250 1.526 . S
C253 C254 1.396 . S
C253 C258 1.390 . S
C254 C248 1.465 . S
C254 C253 1.396 . S
C254 C255 1.399 1_545 S
C255 H241 0.929 . S
C255 C254 1.399 1_565 S
C255 C256 1.385 . S
C256 H242 0.931 . S
C256 C255 1.385 . S
C256 C257 1.389 1_565 S
C257 C256 1.389 1_545 S
C257 C258 1.387 . S
C258 H243 0.930 . S
C258 C253 1.390 . S
C258 C257 1.387 . S
H259 C271 0.930 . S
H260 C273 0.930 . S
H261 C274 0.930 . S
H262 C278 0.959 . S
H263 C278 0.959 . S
H264 C278 0.961 . S
H265 C279 0.960 . S
H266 C279 0.961 . S
H267 C279 0.959 . S
H268 C282 0.929 . S
H269 C283 0.931 . S
H270 C285 0.930 . S
C271 H259 0.930 . S
C271 C272 1.399 . S
C271 C276 1.399 . S
C272 C271 1.399 . S
C272 C273 1.376 . S
C273 H260 0.930 . S
C273 C272 1.376 . S
C273 C274 1.388 . S
C274 H261 0.930 . S
C274 C273 1.388 . S
C274 C275 1.390 . S
C275 C274 1.390 . S
C275 C276 1.394 . S
C275 C281 1.465 . S
C276 C271 1.399 . S
C276 C275 1.394 . S
C276 C277 1.516 . S
C277 C276 1.516 . S
C277 C278 1.502 . S
C277 C279 1.561 . S
C277 C280 1.526 . S
C278 H262 0.959 . S
C278 H263 0.959 . S
C278 H264 0.961 . S
C278 C277 1.502 . S
C279 H265 0.960 . S
C279 H266 0.961 . S
C279 H267 0.959 . S
C279 C277 1.561 . S
C280 C277 1.526 . S
C280 C281 1.396 . S
C280 C285 1.390 . S
C281 C275 1.465 . S
C281 C280 1.396 . S
C281 C282 1.399 . S
C282 H268 0.929 . S
C282 C281 1.399 . S
C282 C283 1.385 . S
C283 H269 0.931 . S
C283 C282 1.385 . S
C283 C284 1.389 . S
C284 C283 1.389 . S
C284 C285 1.387 . S
C285 H270 0.930 . S
C285 C280 1.390 . S
C285 C284 1.387 . S
H286 C298 0.930 . S
H287 C300 0.930 . S
H288 C301 0.930 . S
H289 C305 0.959 . S
H290 C305 0.959 . S
H291 C305 0.961 . S
H292 C306 0.960 . S
H293 C306 0.961 . S
H294 C306 0.959 . S
H295 C309 0.929 . S
H296 C310 0.931 . S
H297 C312 0.930 . S
C298 H286 0.930 . S
C298 C299 1.399 . S
C298 C303 1.399 . S
C299 C298 1.399 . S
C299 C300 1.376 . S
C300 H287 0.930 . S
C300 C299 1.376 . S
C300 C301 1.388 . S
C301 H288 0.930 . S
C301 C300 1.388 . S
C301 C302 1.390 . S
C302 C301 1.390 . S
C302 C303 1.394 . S
C302 C308 1.465 . S
C303 C298 1.399 . S
C303 C302 1.394 . S
C303 C304 1.516 . S
C304 C303 1.516 . S
C304 C305 1.502 . S
C304 C306 1.561 . S
C304 C307 1.526 . S
C305 H289 0.959 . S
C305 H290 0.959 . S
C305 H291 0.961 . S
C305 C304 1.502 . S
C306 H292 0.960 . S
C306 H293 0.961 . S
C306 H294 0.959 . S
C306 C304 1.561 . S
C307 C304 1.526 . S
C307 C308 1.396 . S
C307 C312 1.390 . S
C308 C302 1.465 . S
C308 C307 1.396 . S
C308 C309 1.399 . S
C309 H295 0.929 . S
C309 C308 1.399 . S
C309 C310 1.385 . S
C310 H296 0.931 . S
C310 C309 1.385 . S
C310 C311 1.389 . S
C311 C310 1.389 . S
C311 C312 1.387 . S
C312 H297 0.930 . S
C312 C307 1.390 . S
C312 C311 1.387 . S
H313 C325 0.930 . S
H314 C327 0.930 . S
H315 C328 0.930 . S
H316 C332 0.959 . S
H317 C332 0.959 . S
H318 C332 0.961 . S
H319 C333 0.960 . S
H320 C333 0.961 . S
H321 C333 0.959 . S
H322 C336 0.929 . S
H323 C337 0.931 . S
H324 C339 0.930 . S
C325 H313 0.930 . S
C325 C326 1.399 1_655 S
C325 C330 1.399 1_655 S
C326 C325 1.399 1_455 S
C326 C327 1.376 . S
C327 H314 0.930 . S
C327 C326 1.376 . S
C327 C328 1.388 . S
C328 H315 0.930 . S
C328 C327 1.388 . S
C328 C329 1.390 . S
C329 C328 1.390 . S
C329 C330 1.393 . S
C329 C335 1.465 . S
C330 C325 1.399 1_455 S
C330 C329 1.393 . S
C330 C331 1.517 1_455 S
C331 C330 1.517 1_655 S
C331 C332 1.502 . S
C331 C333 1.561 1_655 S
C331 C334 1.534 . S
C332 H316 0.959 . S
C332 H317 0.959 . S
C332 H318 0.961 . S
C332 C331 1.502 . S
C333 H319 0.960 . S
C333 H320 0.961 . S
C333 H321 0.959 . S
C333 C331 1.561 1_455 S
C334 C331 1.534 . S
C334 C335 1.377 1_655 S
C334 C339 1.399 . S
C335 C329 1.465 . S
C335 C334 1.377 1_455 S
C335 C336 1.399 . S
C336 H322 0.929 . S
C336 C335 1.399 . S
C336 C337 1.385 . S
C337 H323 0.931 . S
C337 C336 1.385 . S
C337 C338 1.389 . S
C338 C337 1.389 . S
C338 C339 1.387 1_455 S
C339 H324 0.930 . S
C339 C334 1.399 . S
C339 C338 1.387 1_655 S
H340 C352 0.930 . S
H341 C354 0.930 1_545 S
H342 C355 0.930 . S
H343 C359 0.959 . S
H344 C359 0.959 . S
H345 C359 0.961 . S
H346 C360 0.960 . S
H347 C360 0.961 . S
H348 C360 0.959 . S
H349 C363 0.929 . S
H350 C364 0.931 . S
H351 C366 0.930 . S
C352 H340 0.930 . S
C352 C353 1.399 . S
C352 C357 1.399 . S
C353 C352 1.399 . S
C353 C354 1.376 . S
C354 H341 0.930 1_565 S
C354 C353 1.376 . S
C354 C355 1.388 1_565 S
C355 H342 0.930 . S
C355 C354 1.388 1_545 S
C355 C356 1.390 1_545 S
C356 C355 1.390 1_565 S
C356 C357 1.394 . S
C356 C362 1.465 . S
C357 C352 1.399 . S
C357 C356 1.394 . S
C357 C358 1.516 . S
C358 C357 1.516 . S
C358 C359 1.502 . S
C358 C360 1.561 . S
C358 C361 1.526 . S
C359 H343 0.959 . S
C359 H344 0.959 . S
C359 H345 0.961 . S
C359 C358 1.502 . S
C360 H346 0.960 . S
C360 H347 0.961 . S
C360 H348 0.959 . S
C360 C358 1.561 . S
C361 C358 1.526 . S
C361 C362 1.396 . S
C361 C366 1.390 . S
C362 C356 1.465 . S
C362 C361 1.396 . S
C362 C363 1.399 1_565 S
C363 H349 0.929 . S
C363 C362 1.399 1_545 S
C363 C364 1.385 . S
C364 H350 0.931 . S
C364 C363 1.385 . S
C364 C365 1.389 1_545 S
C365 C364 1.389 1_565 S
C365 C366 1.387 . S
C366 H351 0.930 . S
C366 C361 1.390 . S
C366 C365 1.387 . S
H367 C379 0.930 1_554 S
H368 C381 0.930 . S
H369 C382 0.930 . S
H370 C386 0.963 . S
H371 C386 0.959 1_554 S
H372 C386 0.953 1_554 S
H373 C387 0.960 1_554 S
H374 C387 0.961 . S
H375 C387 0.959 . S
H376 C390 0.929 . S
H377 C391 0.931 . S
H378 C393 0.930 . S
C379 H367 0.930 1_556 S
C379 C380 1.399 . S
C379 C384 1.399 . S
C380 C379 1.399 . S
C380 C381 1.376 . S
C381 H368 0.930 . S
C381 C380 1.376 . S
C381 C382 1.388 . S
C382 H369 0.930 . S
C382 C381 1.388 . S
C382 C383 1.390 . S
C383 C382 1.390 . S
C383 C384 1.394 . S
C383 C389 1.465 . S
C384 C379 1.399 . S
C384 C383 1.394 . S
C384 C385 1.516 . S
C385 C384 1.516 . S
C385 C386 1.507 . S
C385 C387 1.561 . S
C385 C388 1.526 . S
C386 H370 0.963 . S
C386 H371 0.959 1_556 S
C386 H372 0.953 1_556 S
C386 C385 1.507 . S
C387 H373 0.960 1_556 S
C387 H374 0.961 . S
C387 H375 0.959 . S
C387 C385 1.561 . S
C388 C385 1.526 . S
C388 C389 1.396 . S
C388 C393 1.390 . S
C389 C383 1.465 . S
C389 C388 1.396 . S
C389 C390 1.399 . S
C390 H376 0.929 . S
C390 C389 1.399 . S
C390 C391 1.385 . S
C391 H377 0.931 . S
C391 C390 1.385 . S
C391 C392 1.389 . S
C392 C391 1.389 . S
C392 C393 1.387 . S
C393 H378 0.930 . S
C393 C388 1.390 . S
C393 C392 1.387 . S
H394 C406 0.930 . S
H395 C408 0.930 . S
H396 C409 0.930 . S
H397 C413 0.959 . S
H398 C413 0.959 . S
H399 C413 0.961 . S
H400 C414 0.960 . S
H401 C414 0.961 . S
H402 C414 0.959 . S
H403 C417 0.929 . S
H404 C418 0.931 . S
H405 C420 0.930 . S
C406 H394 0.930 . S
C406 C407 1.399 . S
C406 C411 1.399 . S
C407 C406 1.399 . S
C407 C408 1.376 . S
C408 H395 0.930 . S
C408 C407 1.376 . S
C408 C409 1.388 . S
C409 H396 0.930 . S
C409 C408 1.388 . S
C409 C410 1.390 . S
C410 C409 1.390 . S
C410 C411 1.394 . S
C410 C416 1.465 . S
C411 C406 1.399 . S
C411 C410 1.394 . S
C411 C412 1.516 . S
C412 C411 1.516 . S
C412 C413 1.502 . S
C412 C414 1.561 . S
C412 C415 1.526 . S
C413 H397 0.959 . S
C413 H398 0.959 . S
C413 H399 0.961 . S
C413 C412 1.502 . S
C414 H400 0.960 . S
C414 H401 0.961 . S
C414 H402 0.959 . S
C414 C412 1.561 . S
C415 C412 1.526 . S
C415 C416 1.396 . S
C415 C420 1.390 . S
C416 C410 1.465 . S
C416 C415 1.396 . S
C416 C417 1.399 . S
C417 H403 0.929 . S
C417 C416 1.399 . S
C417 C418 1.385 . S
C418 H404 0.931 . S
C418 C417 1.385 . S
C418 C419 1.389 . S
C419 C418 1.389 . S
C419 C420 1.387 . S
C420 H405 0.930 . S
C420 C415 1.390 . S
C420 C419 1.387 . S
H421 C433 0.930 . S
H422 C435 0.930 1_554 S
H423 C436 0.930 . S
H424 C440 0.959 . S
H425 C440 0.959 . S
H426 C440 0.961 . S
H427 C441 0.960 . S
H428 C441 0.961 . S
H429 C441 0.959 . S
H430 C444 0.929 . S
H431 C445 0.931 . S
H432 C447 0.930 . S
C433 H421 0.930 . S
C433 C434 1.390 1_655 S
C433 C438 1.399 . S
C434 C433 1.390 1_455 S
C434 C435 1.393 . S
C435 H422 0.930 1_556 S
C435 C434 1.393 . S
C435 C436 1.388 . S
C436 H423 0.930 . S
C436 C435 1.388 . S
C436 C437 1.390 . S
C437 C436 1.390 . S
C437 C438 1.394 1_455 S
C437 C443 1.465 . S
C438 C433 1.399 . S
C438 C437 1.394 1_655 S
C438 C439 1.516 . S
C439 C438 1.516 . S
C439 C440 1.502 . S
C439 C441 1.561 1_655 S
C439 C442 1.526 . S
C440 H424 0.959 . S
C440 H425 0.959 . S
C440 H426 0.961 . S
C440 C439 1.502 . S
C441 H427 0.960 . S
C441 H428 0.961 . S
C441 H429 0.959 . S
C441 C439 1.561 1_455 S
C442 C439 1.526 . S
C442 C443 1.396 1_655 S
C442 C447 1.390 . S
C443 C437 1.465 . S
C443 C442 1.396 1_455 S
C443 C444 1.399 . S
C444 H430 0.929 . S
C444 C443 1.399 . S
C444 C445 1.385 . S
C445 H431 0.931 . S
C445 C444 1.385 . S
C445 C446 1.389 . S
C446 C445 1.389 . S
C446 C447 1.387 1_455 S
C447 H432 0.930 . S
C447 C442 1.390 . S
C447 C446 1.387 1_655 S
H448 C460 0.930 . S
H449 C462 0.930 . S
H450 C463 0.930 . S
H451 C467 0.959 . S
H452 C467 0.959 . S
H453 C467 0.961 . S
H454 C468 0.960 . S
H455 C468 0.961 . S
H456 C468 0.959 . S
H457 C471 0.929 . S
H458 C472 0.931 . S
H459 C474 0.930 . S
C460 H448 0.930 . S
C460 C461 1.399 . S
C460 C465 1.399 1_455 S
C461 C460 1.399 . S
C461 C462 1.376 . S
C462 H449 0.930 . S
C462 C461 1.376 . S
C462 C463 1.388 1_455 S
C463 H450 0.930 . S
C463 C462 1.388 1_655 S
C463 C464 1.390 . S
C464 C463 1.390 . S
C464 C465 1.394 . S
C464 C470 1.465 . S
C465 C460 1.399 1_655 S
C465 C464 1.394 . S
C465 C466 1.516 . S
C466 C465 1.516 . S
C466 C467 1.502 1_655 S
C466 C468 1.561 . S
C466 C469 1.526 . S
C467 H451 0.959 . S
C467 H452 0.959 . S
C467 H453 0.961 . S
C467 C466 1.502 1_455 S
C468 H454 0.960 . S
C468 H455 0.961 . S
C468 H456 0.959 . S
C468 C466 1.561 . S
C469 C466 1.526 . S
C469 C470 1.396 . S
C469 C474 1.390 . S
C470 C464 1.465 . S
C470 C469 1.396 . S
C470 C471 1.399 . S
C471 H457 0.929 . S
C471 C470 1.399 . S
C471 C472 1.385 . S
C472 H458 0.931 . S
C472 C471 1.385 . S
C472 C473 1.389 . S
C473 C472 1.389 . S
C473 C474 1.387 . S
C474 H459 0.930 . S
C474 C469 1.390 . S
C474 C473 1.387 . S
H475 C487 0.930 . S
H476 C489 0.930 . S
H477 C490 0.930 . S
H478 C494 0.959 . S
H479 C494 0.959 . S
H480 C494 0.961 . S
H481 C495 0.960 . S
H482 C495 0.961 . S
H483 C495 0.959 . S
H484 C498 0.929 . S
H485 C499 0.931 . S
H486 C501 0.930 . S
C487 H475 0.930 . S
C487 C488 1.399 . S
C487 C492 1.399 . S
C488 C487 1.399 . S
C488 C489 1.376 . S
C489 H476 0.930 . S
C489 C488 1.376 . S
C489 C490 1.388 . S
C490 H477 0.930 . S
C490 C489 1.388 . S
C490 C491 1.390 . S
C491 C490 1.390 . S
C491 C492 1.394 . S
C491 C497 1.465 . S
C492 C487 1.399 . S
C492 C491 1.394 . S
C492 C493 1.516 . S
C493 C492 1.516 . S
C493 C494 1.502 . S
C493 C495 1.561 . S
C493 C496 1.526 . S
C494 H478 0.959 . S
C494 H479 0.959 . S
C494 H480 0.961 . S
C494 C493 1.502 . S
C495 H481 0.960 . S
C495 H482 0.961 . S
C495 H483 0.959 . S
C495 C493 1.561 . S
C496 C493 1.526 . S
C496 C497 1.396 . S
C496 C501 1.390 . S
C497 C491 1.465 . S
C497 C496 1.396 . S
C497 C498 1.399 1_545 S
C498 H484 0.929 . S
C498 C497 1.399 1_565 S
C498 C499 1.385 . S
C499 H485 0.931 . S
C499 C498 1.385 . S
C499 C500 1.389 1_565 S
C500 C499 1.389 1_545 S
C500 C501 1.387 . S
C501 H486 0.930 . S
C501 C496 1.390 . S
C501 C500 1.387 . S
H502 C514 0.930 . S
H503 C516 0.930 . S
H504 C517 0.930 . S
H505 C521 0.959 . S
H506 C521 0.959 . S
H507 C521 0.961 . S
H508 C522 0.960 . S
H509 C522 0.961 . S
H510 C522 0.959 . S
H511 C525 0.929 . S
H512 C526 0.931 . S
H513 C528 0.930 . S
C514 H502 0.930 . S
C514 C515 1.399 . S
C514 C519 1.399 . S
C515 C514 1.399 . S
C515 C516 1.376 . S
C516 H503 0.930 . S
C516 C515 1.376 . S
C516 C517 1.388 . S
C517 H504 0.930 . S
C517 C516 1.388 . S
C517 C518 1.390 . S
C518 C517 1.390 . S
C518 C519 1.394 . S
C518 C524 1.465 . S
C519 C514 1.399 . S
C519 C518 1.394 . S
C519 C520 1.516 . S
C520 C519 1.516 . S
C520 C521 1.502 . S
C520 C522 1.561 . S
C520 C523 1.526 . S
C521 H505 0.959 . S
C521 H506 0.959 . S
C521 H507 0.961 . S
C521 C520 1.502 . S
C522 H508 0.960 . S
C522 H509 0.961 . S
C522 H510 0.959 . S
C522 C520 1.561 . S
C523 C520 1.526 . S
C523 C524 1.396 . S
C523 C528 1.390 . S
C524 C518 1.465 . S
C524 C523 1.396 . S
C524 C525 1.399 . S
C525 H511 0.929 . S
C525 C524 1.399 . S
C525 C526 1.385 . S
C526 H512 0.931 . S
C526 C525 1.385 . S
C526 C527 1.389 . S
C527 C526 1.389 . S
C527 C528 1.387 . S
C528 H513 0.930 . S
C528 C523 1.390 . S
C528 C527 1.387 . S
H529 C541 0.930 . S
H530 C543 0.930 . S
H531 C544 0.930 . S
H532 C548 0.959 . S
H533 C548 0.959 . S
H534 C548 0.961 . S
H535 C549 0.960 . S
H536 C549 0.961 . S
H537 C549 0.959 . S
H538 C552 0.929 . S
H539 C553 0.931 . S
H540 C555 0.930 . S
C541 H529 0.930 . S
C541 C542 1.399 . S
C541 C546 1.399 . S
C542 C541 1.399 . S
C542 C543 1.376 . S
C543 H530 0.930 . S
C543 C542 1.376 . S
C543 C544 1.388 . S
C544 H531 0.930 . S
C544 C543 1.388 . S
C544 C545 1.390 . S
C545 C544 1.390 . S
C545 C546 1.394 . S
C545 C551 1.465 . S
C546 C541 1.399 . S
C546 C545 1.394 . S
C546 C547 1.516 . S
C547 C546 1.516 . S
C547 C548 1.502 . S
C547 C549 1.561 . S
C547 C550 1.526 . S
C548 H532 0.959 . S
C548 H533 0.959 . S
C548 H534 0.961 . S
C548 C547 1.502 . S
C549 H535 0.960 . S
C549 H536 0.961 . S
C549 H537 0.959 . S
C549 C547 1.561 . S
C550 C547 1.526 . S
C550 C551 1.396 . S
C550 C555 1.390 . S
C551 C545 1.465 . S
C551 C550 1.396 . S
C551 C552 1.399 . S
C552 H538 0.929 . S
C552 C551 1.399 . S
C552 C553 1.385 . S
C553 H539 0.931 . S
C553 C552 1.385 . S
C553 C554 1.389 . S
C554 C553 1.389 . S
C554 C555 1.387 . S
C555 H540 0.930 . S
C555 C550 1.390 . S
C555 C554 1.387 . S
H556 C568 0.930 . S
H557 C570 0.930 . S
H558 C571 0.930 . S
H559 C575 0.963 . S
H560 C575 0.959 . S
H561 C575 0.961 1_554 S
H562 C576 0.960 . S
H563 C576 0.961 . S
H564 C576 0.959 . S
H565 C579 0.929 . S
H566 C580 0.931 . S
H567 C582 0.930 . S
C568 H556 0.930 . S
C568 C569 1.399 1_455 S
C568 C573 1.399 . S
C569 C568 1.399 1_655 S
C569 C570 1.376 . S
C570 H557 0.930 . S
C570 C569 1.376 . S
C570 C571 1.388 . S
C571 H558 0.930 . S
C571 C570 1.388 . S
C571 C572 1.390 . S
C572 C571 1.390 . S
C572 C573 1.394 1_655 S
C572 C578 1.465 . S
C573 C568 1.399 . S
C573 C572 1.394 1_455 S
C573 C574 1.516 . S
C574 C573 1.516 . S
C574 C575 1.502 . S
C574 C576 1.561 . S
C574 C577 1.526 . S
C575 H559 0.963 . S
C575 H560 0.959 . S
C575 H561 0.961 1_556 S
C575 C574 1.502 . S
C576 H562 0.960 . S
C576 H563 0.961 . S
C576 H564 0.959 . S
C576 C574 1.561 . S
C577 C574 1.526 . S
C577 C578 1.396 1_455 S
C577 C582 1.390 . S
C578 C572 1.465 . S
C578 C577 1.396 1_655 S
C578 C579 1.399 . S
C579 H565 0.929 . S
C579 C578 1.399 . S
C579 C580 1.385 . S
C580 H566 0.931 . S
C580 C579 1.385 . S
C580 C581 1.389 1_655 S
C581 C580 1.389 1_455 S
C581 C582 1.387 . S
C582 H567 0.930 . S
C582 C577 1.390 . S
C582 C581 1.387 . S
H583 C595 0.930 1_554 S
H584 C597 0.930 . S
H585 C598 0.930 . S
H586 C602 0.959 . S
H587 C602 0.959 . S
H588 C602 0.961 . S
H589 C603 0.960 . S
H590 C603 0.961 . S
H591 C603 0.959 1_556 S
H592 C606 0.929 . S
H593 C607 0.931 . S
H594 C609 0.931 1_545 S
C595 H583 0.930 1_556 S
C595 C596 1.399 . S
C595 C600 1.399 . S
C596 C595 1.399 . S
C596 C597 1.376 . S
C597 H584 0.930 . S
C597 C596 1.376 . S
C597 C598 1.388 . S
C598 H585 0.930 . S
C598 C597 1.388 . S
C598 C599 1.390 . S
C599 C598 1.390 . S
C599 C600 1.394 . S
C599 C605 1.465 . S
C600 C595 1.399 . S
C600 C599 1.394 . S
C600 C601 1.516 . S
C601 C600 1.516 . S
C601 C602 1.502 1_556 S
C601 C603 1.561 1_566 S
C601 C604 1.526 . S
C602 H586 0.959 . S
C602 H587 0.959 . S
C602 H588 0.961 . S
C602 C601 1.502 1_554 S
C603 H589 0.960 . S
C603 H590 0.961 . S
C603 H591 0.959 1_554 S
C603 C601 1.561 1_544 S
C604 C601 1.526 . S
C604 C605 1.396 . S
C604 C609 1.390 . S
C605 C599 1.465 . S
C605 C604 1.396 . S
C605 C606 1.399 . S
C606 H592 0.929 . S
C606 C605 1.399 . S
C606 C607 1.385 . S
C607 H593 0.931 . S
C607 C606 1.385 . S
C607 C608 1.389 . S
C608 C607 1.389 . S
C608 C609 1.387 . S
C609 H594 0.931 1_565 S
C609 C604 1.390 . S
C609 C608 1.387 . S
H610 C622 0.930 . S
H611 C624 0.930 . S
H612 C625 0.930 1_554 S
H613 C629 0.959 . S
H614 C629 0.959 . S
H615 C629 0.961 . S
H616 C630 0.960 . S
H617 C630 0.961 . S
H618 C630 0.959 . S
H619 C633 0.929 . S
H620 C634 0.931 . S
H621 C636 0.930 . S
C622 H610 0.930 . S
C622 C623 1.399 1_556 S
C622 C627 1.399 . S
C623 C622 1.399 1_554 S
C623 C624 1.376 . S
C624 H611 0.930 . S
C624 C623 1.376 . S
C624 C625 1.388 1_554 S
C625 H612 0.930 1_556 S
C625 C624 1.388 1_556 S
C625 C626 1.390 . S
C626 C625 1.390 . S
C626 C627 1.394 . S
C626 C632 1.465 . S
C627 C622 1.399 . S
C627 C626 1.394 . S
C627 C628 1.516 . S
C628 C627 1.516 . S
C628 C629 1.502 . S
C628 C630 1.561 . S
C628 C631 1.526 . S
C629 H613 0.959 . S
C629 H614 0.959 . S
C629 H615 0.961 . S
C629 C628 1.502 . S
C630 H616 0.960 . S
C630 H617 0.961 . S
C630 H618 0.959 . S
C630 C628 1.561 . S
C631 C628 1.526 . S
C631 C632 1.396 . S
C631 C636 1.390 . S
C632 C626 1.465 . S
C632 C631 1.396 . S
C632 C633 1.399 . S
C633 H619 0.929 . S
C633 C632 1.399 . S
C633 C634 1.385 . S
C634 H620 0.931 . S
C634 C633 1.385 . S
C634 C635 1.389 . S
C635 C634 1.389 . S
C635 C636 1.387 . S
C636 H621 0.930 . S
C636 C631 1.390 . S
C636 C635 1.387 . S
H637 C649 0.930 . S
H638 C651 0.930 . S
H639 C652 0.930 . S
H640 C656 0.959 . S
H641 C656 0.959 . S
H642 C656 0.961 . S
H643 C657 0.960 . S
H644 C657 0.961 . S
H645 C657 0.959 . S
H646 C660 0.929 . S
H647 C661 0.931 . S
H648 C663 0.930 . S
C649 H637 0.930 . S
C649 C650 1.399 . S
C649 C654 1.399 . S
C650 C649 1.399 . S
C650 C651 1.376 . S
C651 H638 0.930 . S
C651 C650 1.376 . S
C651 C652 1.388 . S
C652 H639 0.930 . S
C652 C651 1.388 . S
C652 C653 1.390 . S
C653 C652 1.390 . S
C653 C654 1.394 . S
C653 C659 1.465 . S
C654 C649 1.399 . S
C654 C653 1.394 . S
C654 C655 1.516 . S
C655 C654 1.516 . S
C655 C656 1.502 . S
C655 C657 1.561 . S
C655 C658 1.526 . S
C656 H640 0.959 . S
C656 H641 0.959 . S
C656 H642 0.961 . S
C656 C655 1.502 . S
C657 H643 0.960 . S
C657 H644 0.961 . S
C657 H645 0.959 . S
C657 C655 1.561 . S
C658 C655 1.526 . S
C658 C659 1.396 . S
C658 C663 1.390 . S
C659 C653 1.465 . S
C659 C658 1.396 . S
C659 C660 1.399 . S
C660 H646 0.929 . S
C660 C659 1.399 . S
C660 C661 1.385 . S
C661 H647 0.931 . S
C661 C660 1.385 . S
C661 C662 1.389 . S
C662 C661 1.389 . S
C662 C663 1.387 . S
C663 H648 0.930 . S
C663 C658 1.390 . S
C663 C662 1.387 . S
H664 C676 0.930 . S
H665 C678 0.930 . S
H666 C679 0.930 . S
H667 C683 0.959 . S
H668 C683 0.959 . S
H669 C683 0.961 . S
H670 C684 0.960 . S
H671 C684 0.961 . S
H672 C684 0.959 . S
H673 C687 0.929 . S
H674 C688 0.931 . S
H675 C690 0.930 . S
C676 H664 0.930 . S
C676 C677 1.399 1_655 S
C676 C681 1.399 . S
C677 C676 1.399 1_455 S
C677 C678 1.376 . S
C678 H665 0.930 . S
C678 C677 1.376 . S
C678 C679 1.388 . S
C679 H666 0.930 . S
C679 C678 1.388 . S
C679 C680 1.390 . S
C680 C679 1.390 . S
C680 C681 1.394 1_455 S
C680 C686 1.465 . S
C681 C676 1.399 . S
C681 C680 1.394 1_655 S
C681 C682 1.516 . S
C682 C681 1.516 . S
C682 C683 1.502 . S
C682 C684 1.561 . S
C682 C685 1.526 . S
C683 H667 0.959 . S
C683 H668 0.959 . S
C683 H669 0.961 . S
C683 C682 1.502 . S
C684 H670 0.960 . S
C684 H671 0.961 . S
C684 H672 0.959 . S
C684 C682 1.561 . S
C685 C682 1.526 . S
C685 C686 1.396 1_655 S
C685 C690 1.390 . S
C686 C680 1.465 . S
C686 C685 1.396 1_455 S
C686 C687 1.399 . S
C687 H673 0.929 . S
C687 C686 1.399 . S
C687 C688 1.385 . S
C688 H674 0.931 . S
C688 C687 1.385 . S
C688 C689 1.389 . S
C689 C688 1.389 . S
C689 C690 1.387 1_455 S
C690 H675 0.930 . S
C690 C685 1.390 . S
C690 C689 1.387 1_655 S
H691 C703 0.930 . S
H692 C705 0.930 . S
H693 C706 0.930 . S
H694 C710 0.959 . S
H695 C710 0.959 . S
H696 C710 0.961 . S
H697 C711 0.960 . S
H698 C711 0.961 . S
H699 C711 0.959 . S
H700 C714 0.929 . S
H701 C715 0.931 . S
H702 C717 0.930 1_565 S
C703 H691 0.930 . S
C703 C704 1.399 . S
C703 C708 1.399 . S
C704 C703 1.399 . S
C704 C705 1.376 . S
C705 H692 0.930 . S
C705 C704 1.376 . S
C705 C706 1.388 . S
C706 H693 0.930 . S
C706 C705 1.388 . S
C706 C707 1.390 . S
C707 C706 1.390 . S
C707 C708 1.394 . S
C707 C713 1.465 . S
C708 C703 1.399 . S
C708 C707 1.394 . S
C708 C709 1.488 1_545 S
C709 C708 1.488 1_565 S
C709 C710 1.521 . S
C709 C711 1.583 . S
C709 C712 1.511 1_565 S
C710 H694 0.959 . S
C710 H695 0.959 . S
C710 H696 0.961 . S
C710 C709 1.521 . S
C711 H697 0.960 . S
C711 H698 0.961 . S
C711 H699 0.959 . S
C711 C709 1.583 . S
C712 C709 1.511 1_545 S
C712 C713 1.396 . S
C712 C717 1.390 . S
C713 C707 1.465 . S
C713 C712 1.396 . S
C713 C714 1.399 . S
C714 H700 0.929 . S
C714 C713 1.399 . S
C714 C715 1.385 . S
C715 H701 0.931 . S
C715 C714 1.385 . S
C715 C716 1.389 . S
C716 C715 1.389 . S
C716 C717 1.387 . S
C717 H702 0.930 1_545 S
C717 C712 1.390 . S
C717 C716 1.387 . S
H718 C730 0.930 . S
H719 C732 0.930 . S
H720 C733 0.930 . S
H721 C737 0.959 . S
H722 C737 0.959 . S
H723 C737 0.961 . S
H724 C738 0.960 . S
H725 C738 0.961 . S
H726 C738 0.959 . S
H727 C741 0.929 . S
H728 C742 0.931 . S
H729 C744 0.930 . S
C730 H718 0.930 . S
C730 C731 1.399 . S
C730 C735 1.399 . S
C731 C730 1.399 . S
C731 C732 1.376 . S
C732 H719 0.930 . S
C732 C731 1.376 . S
C732 C733 1.388 . S
C733 H720 0.930 . S
C733 C732 1.388 . S
C733 C734 1.390 . S
C734 C733 1.390 . S
C734 C735 1.394 . S
C734 C740 1.465 . S
C735 C730 1.399 . S
C735 C734 1.394 . S
C735 C736 1.516 . S
C736 C735 1.516 . S
C736 C737 1.502 . S
C736 C738 1.561 . S
C736 C739 1.526 . S
C737 H721 0.959 . S
C737 H722 0.959 . S
C737 H723 0.961 . S
C737 C736 1.502 . S
C738 H724 0.960 . S
C738 H725 0.961 . S
C738 H726 0.959 . S
C738 C736 1.561 . S
C739 C736 1.526 . S
C739 C740 1.396 . S
C739 C744 1.390 . S
C740 C734 1.465 . S
C740 C739 1.396 . S
C740 C741 1.399 . S
C741 H727 0.929 . S
C741 C740 1.399 . S
C741 C742 1.385 . S
C742 H728 0.931 . S
C742 C741 1.385 . S
C742 C743 1.389 . S
C743 C742 1.389 . S
C743 C744 1.387 . S
C744 H729 0.930 . S
C744 C739 1.390 . S
C744 C743 1.387 . S
H745 C757 0.930 . S
H746 C759 0.930 . S
H747 C760 0.930 . S
H748 C764 0.959 . S
H749 C764 0.959 . S
H750 C764 0.961 . S
H751 C765 0.960 . S
H752 C765 0.961 . S
H753 C765 0.959 . S
H754 C768 0.929 . S
H755 C769 0.931 . S
H756 C771 0.930 . S
C757 H745 0.930 . S
C757 C758 1.399 . S
C757 C762 1.399 . S
C758 C757 1.399 . S
C758 C759 1.376 . S
C759 H746 0.930 . S
C759 C758 1.376 . S
C759 C760 1.388 . S
C760 H747 0.930 . S
C760 C759 1.388 . S
C760 C761 1.390 . S
C761 C760 1.390 . S
C761 C762 1.394 . S
C761 C767 1.465 . S
C762 C757 1.399 . S
C762 C761 1.394 . S
C762 C763 1.516 . S
C763 C762 1.516 . S
C763 C764 1.502 . S
C763 C765 1.561 . S
C763 C766 1.526 . S
C764 H748 0.959 . S
C764 H749 0.959 . S
C764 H750 0.961 . S
C764 C763 1.502 . S
C765 H751 0.960 . S
C765 H752 0.961 . S
C765 H753 0.959 . S
C765 C763 1.561 . S
C766 C763 1.526 . S
C766 C767 1.396 . S
C766 C771 1.390 . S
C767 C761 1.465 . S
C767 C766 1.396 . S
C767 C768 1.399 . S
C768 H754 0.929 . S
C768 C767 1.399 . S
C768 C769 1.385 . S
C769 H755 0.931 . S
C769 C768 1.385 . S
C769 C770 1.389 . S
C770 C769 1.389 . S
C770 C771 1.387 . S
C771 H756 0.930 . S
C771 C766 1.390 . S
C771 C770 1.387 . S
H772 C784 0.930 . S
H773 C786 0.930 . S
H774 C787 0.930 . S
H775 C791 0.959 . S
H776 C791 0.959 . S
H777 C791 0.961 . S
H778 C792 0.960 . S
H779 C792 0.961 . S
H780 C792 0.959 1_455 S
H781 C795 0.929 . S
H782 C796 0.931 . S
H783 C798 0.930 . S
C784 H772 0.930 . S
C784 C785 1.393 1_655 S
C784 C789 1.399 . S
C785 C784 1.393 1_455 S
C785 C786 1.383 . S
C786 H773 0.930 . S
C786 C785 1.383 . S
C786 C787 1.388 . S
C787 H774 0.930 . S
C787 C786 1.388 . S
C787 C788 1.390 . S
C788 C787 1.390 . S
C788 C789 1.394 1_455 S
C788 C794 1.465 . S
C789 C784 1.399 . S
C789 C788 1.394 1_655 S
C789 C790 1.516 . S
C790 C789 1.516 . S
C790 C791 1.502 . S
C790 C792 1.561 . S
C790 C793 1.526 . S
C791 H775 0.959 . S
C791 H776 0.959 . S
C791 H777 0.961 . S
C791 C790 1.502 . S
C792 H778 0.960 . S
C792 H779 0.961 . S
C792 H780 0.959 1_655 S
C792 C790 1.561 . S
C793 C790 1.526 . S
C793 C794 1.396 1_655 S
C793 C798 1.390 . S
C794 C788 1.465 . S
C794 C793 1.396 1_455 S
C794 C795 1.399 . S
C795 H781 0.929 . S
C795 C794 1.399 . S
C795 C796 1.385 . S
C796 H782 0.931 . S
C796 C795 1.385 . S
C796 C797 1.389 1_455 S
C797 C796 1.389 1_655 S
C797 C798 1.387 . S
C798 H783 0.930 . S
C798 C793 1.390 . S
C798 C797 1.387 . S
H799 C811 0.930 . S
H800 C813 0.930 . S
H801 C814 0.930 1_545 S
H802 C818 0.959 . S
H803 C818 0.959 . S
H804 C818 0.961 . S
H805 C819 0.960 . S
H806 C819 0.961 . S
H807 C819 0.959 . S
H808 C822 0.929 . S
H809 C823 0.931 . S
H810 C825 0.930 . S
C811 H799 0.930 . S
C811 C812 1.399 . S
C811 C816 1.399 . S
C812 C811 1.399 . S
C812 C813 1.376 . S
C813 H800 0.930 . S
C813 C812 1.376 . S
C813 C814 1.388 . S
C814 H801 0.930 1_565 S
C814 C813 1.388 . S
C814 C815 1.390 . S
C815 C814 1.390 . S
C815 C816 1.394 . S
C815 C821 1.465 . S
C816 C811 1.399 . S
C816 C815 1.394 . S
C816 C817 1.516 . S
C817 C816 1.516 . S
C817 C818 1.502 . S
C817 C819 1.561 . S
C817 C820 1.526 . S
C818 H802 0.959 . S
C818 H803 0.959 . S
C818 H804 0.961 . S
C818 C817 1.502 . S
C819 H805 0.960 . S
C819 H806 0.961 . S
C819 H807 0.959 . S
C819 C817 1.561 . S
C820 C817 1.526 . S
C820 C821 1.396 . S
C820 C825 1.390 . S
C821 C815 1.465 . S
C821 C820 1.396 . S
C821 C822 1.399 1_565 S
C822 H808 0.929 . S
C822 C821 1.399 1_545 S
C822 C823 1.385 . S
C823 H809 0.931 . S
C823 C822 1.385 . S
C823 C824 1.389 1_545 S
C824 C823 1.389 1_565 S
C824 C825 1.387 . S
C825 H810 0.930 . S
C825 C820 1.390 . S
C825 C824 1.387 . S
H826 C838 0.930 . S
H827 C840 0.930 . S
H828 C841 0.930 . S
H829 C845 0.959 . S
H830 C845 0.959 . S
H831 C845 0.961 . S
H832 C846 0.960 . S
H833 C846 0.961 . S
H834 C846 0.959 . S
H835 C849 0.929 . S
H836 C850 0.931 . S
H837 C852 0.930 . S
C838 H826 0.930 . S
C838 C839 1.399 . S
C838 C843 1.399 . S
C839 C838 1.399 . S
C839 C840 1.376 . S
C840 H827 0.930 . S
C840 C839 1.376 . S
C840 C841 1.388 . S
C841 H828 0.930 . S
C841 C840 1.388 . S
C841 C842 1.390 . S
C842 C841 1.390 . S
C842 C843 1.394 . S
C842 C848 1.465 . S
C843 C838 1.399 . S
C843 C842 1.394 . S
C843 C844 1.516 . S
C844 C843 1.516 . S
C844 C845 1.502 . S
C844 C846 1.561 . S
C844 C847 1.526 . S
C845 H829 0.959 . S
C845 H830 0.959 . S
C845 H831 0.961 . S
C845 C844 1.502 . S
C846 H832 0.960 . S
C846 H833 0.961 . S
C846 H834 0.959 . S
C846 C844 1.561 . S
C847 C844 1.526 . S
C847 C848 1.396 . S
C847 C852 1.390 . S
C848 C842 1.465 . S
C848 C847 1.396 . S
C848 C849 1.399 . S
C849 H835 0.929 . S
C849 C848 1.399 . S
C849 C850 1.385 . S
C850 H836 0.931 . S
C850 C849 1.385 . S
C850 C851 1.389 . S
C851 C850 1.389 . S
C851 C852 1.387 . S
C852 H837 0.930 . S
C852 C847 1.390 . S
C852 C851 1.387 . S
H853 C865 0.930 . S
H854 C867 0.930 . S
H855 C868 0.930 . S
H856 C872 0.959 . S
H857 C872 0.959 . S
H858 C872 0.961 . S
H859 C873 0.960 . S
H860 C873 0.961 . S
H861 C873 0.959 . S
H862 C876 0.929 . S
H863 C877 0.931 . S
H864 C879 0.930 . S
C865 H853 0.930 . S
C865 C866 1.399 . S
C865 C870 1.399 . S
C866 C865 1.399 . S
C866 C867 1.376 . S
C867 H854 0.930 . S
C867 C866 1.376 . S
C867 C868 1.388 . S
C868 H855 0.930 . S
C868 C867 1.388 . S
C868 C869 1.390 . S
C869 C868 1.390 . S
C869 C870 1.394 . S
C869 C875 1.465 . S
C870 C865 1.399 . S
C870 C869 1.394 . S
C870 C871 1.516 . S
C871 C870 1.516 . S
C871 C872 1.502 . S
C871 C873 1.561 . S
C871 C874 1.526 . S
C872 H856 0.959 . S
C872 H857 0.959 . S
C872 H858 0.961 . S
C872 C871 1.502 . S
C873 H859 0.960 . S
C873 H860 0.961 . S
C873 H861 0.959 . S
C873 C871 1.561 . S
C874 C871 1.526 . S
C874 C875 1.396 . S
C874 C879 1.390 . S
C875 C869 1.465 . S
C875 C874 1.396 . S
C875 C876 1.399 . S
C876 H862 0.929 . S
C876 C875 1.399 . S
C876 C877 1.385 . S
C877 H863 0.931 . S
C877 C876 1.385 . S
C877 C878 1.389 . S
C878 C877 1.389 . S
C878 C879 1.387 . S
C879 H864 0.930 . S
C879 C874 1.390 . S
C879 C878 1.387 . S
C245 C125 1.558 . S
C257 C160 1.712 . S
C284 C190 1.836 . S
C272 C144 1.754 . S
C311 C200 1.530 . S
C299 C87 1.509 . S
C338 C220 1.419 1_455 S
C326 C106 1.370 1_455 S
C365 C161 1.704 . S
C353 C49 1.710 . S
C380 C68 1.815 1_556 S
C392 C191 1.836 . S
C407 C11 1.519 1_556 S
C419 C201 1.508 . S
C434 C30 1.360 1_455 S
C446 C221 1.403 . S
C473 C153 0.891 . S
C461 C97 0.833 . S
C500 C174 0.694 . S
C488 C116 0.604 . S
C527 C193 1.109 . S
C515 C135 1.104 . S
C542 C78 0.796 . S
C554 C213 0.809 . S
C569 C21 0.956 . S
C581 C154 0.927 . S
C608 C173 0.606 . S
C596 C40 0.779 . S
C635 C194 1.058 . S
C623 C59 1.065 . S
C650 C2 0.849 1_556 S
C662 C214 0.801 . S
C677 C101 1.549 . S
C689 C171 1.596 . S
C704 C120 1.441 1_556 S
C716 C181 1.469 . S
C743 C211 1.775 . S
C731 C139 1.643 . S
C770 C231 1.757 . S
C758 C82 1.662 . S
C785 C25 1.495 1_455 S
C797 C170 1.561 . S
C824 C180 1.497 . S
C812 C44 1.382 . S
C851 C210 1.791 . S
C839 C63 1.730 . S
C866 C6 1.733 . S
C878 C230 1.760 . S
