# Generated by pormake.
# Topology tsx, (6,3)-cn, num edge types: 1
# Building blocks:
#     Node 0, Type 0, BuildingBlock: FUNLAD_clean_sbu_0, # of connection points: 6
#     Node 1, Type 0, BuildingBlock: FUNLAD_clean_sbu_0, # of connection points: 6
#     Node 2, Type 1, BuildingBlock: QEWDON_clean_linker_0, # of connection points: 3
#     Node 3, Type 1, BuildingBlock: QEWDON_clean_linker_0, # of connection points: 3
#     Node 4, Type 1, BuildingBlock: QEWDON_clean_linker_0, # of connection points: 3
#     Node 5, Type 1, BuildingBlock: QEWDON_clean_linker_0, # of connection points: 3
#     Edge 6, Type (0, 1), BuildingBlock: OJICUG_clean_linker_0, # of connection points: 2
#     Edge 7, Type (0, 1), BuildingBlock: OJICUG_clean_linker_0, # of connection points: 2
#     Edge 8, Type (0, 1), BuildingBlock: OJICUG_clean_linker_0, # of connection points: 2
#     Edge 9, Type (0, 1), BuildingBlock: OJICUG_clean_linker_0, # of connection points: 2
#     Edge 10, Type (0, 1), BuildingBlock: OJICUG_clean_linker_0, # of connection points: 2
#     Edge 11, Type (0, 1), BuildingBlock: OJICUG_clean_linker_0, # of connection points: 2
#     Edge 12, Type (0, 1), BuildingBlock: OJICUG_clean_linker_0, # of connection points: 2
#     Edge 13, Type (0, 1), BuildingBlock: OJICUG_clean_linker_0, # of connection points: 2
#     Edge 14, Type (0, 1), BuildingBlock: OJICUG_clean_linker_0, # of connection points: 2
#     Edge 15, Type (0, 1), BuildingBlock: OJICUG_clean_linker_0, # of connection points: 2
#     Edge 16, Type (0, 1), BuildingBlock: OJICUG_clean_linker_0, # of connection points: 2
#     Edge 17, Type (0, 1), BuildingBlock: OJICUG_clean_linker_0, # of connection points: 2
# Relax obj value: 0.127
# Max RMSD: 0.180
# Mean RMSD: 0.156
data_MOF--net-tsx--node1-FUNLAD_clean_sbu_0--node2-QEWDON_clean_linker_0--edge1-OJICUG_clean_linker_0
_symmetry_space_group_name_H-M    P1
_symmetry_Int_Tables_number       1
_symmetry_cell_setting            triclinic
loop_
_symmetry_equiv_pos_as_xyz
'x, y, z'
_cell_length_a     13.714689
_cell_length_b     16.740458
_cell_length_c     27.563484
_cell_angle_alpha  90.362497
_cell_angle_beta   110.64162
_cell_angle_gamma 89.531593
loop_
_atom_site_label
_atom_site_type_symbol
_atom_site_fract_x
_atom_site_fract_y
_atom_site_fract_z
_atom_type_partial_charge
C0 C 0.94459 0.8669 1.0275 0.0
N1 N 0.1336 0.97913 0.17349 0.0
C2 C 1.04694 0.97803 0.18678 0.0
C3 C 1.05521 0.98474 0.23869 0.0
C4 C 0.15374 0.99213 0.27787 0.0
C5 C 0.24198 0.9924 0.263 0.0
C6 C 0.23009 0.98603 0.21048 0.0
Zn7 Zn 0.11532 0.98026 0.09564 0.0
C8 C 0.26148 0.86977 0.07318 0.0
N9 N 1.0606 0.99527 0.9322 0.0
C10 C 0.96183 0.99588 0.89678 0.0
C11 C 0.14314 0.01261 0.91767 0.0
C12 C 0.12784 0.0334 0.8664 0.0
C13 C 1.02666 0.03463 0.82873 0.0
C14 C 0.94321 0.01455 0.84478 0.0
Zn15 Zn 1.08265 0.98323 1.0103 0.0
O16 O 0.98887 0.89045 0.07464 0.0
C17 C 0.94771 0.09632 1.04493 0.0
O18 O 0.9768 0.89275 0.99299 0.0
H19 H 0.22111 0.01283 0.94623 0.0
H20 H 0.97073 0.97352 0.15692 0.0
H21 H 0.89678 0.98323 0.90899 0.0
O22 O 1.00756 0.06756 0.08705 0.0
O23 O 0.95558 0.07121 1.00248 0.0
H24 H 0.29809 0.98731 0.19925 0.0
O25 O 0.18302 0.07404 1.02369 0.0
O26 O 0.23556 0.07361 0.10837 0.0
O27 O 0.21691 0.89664 1.0268 0.0
O28 O 0.22763 0.8923 0.10821 0.0
C29 C 0.23989 0.10281 0.06639 0.0
H30 H 0.98467 0.9852 0.24787 0.0
H31 H 0.31974 0.99643 0.29164 0.0
H32 H 0.19512 0.0496 0.85684 0.0
H33 H 0.86398 0.01263 0.81753 0.0
C34 C 0.52839 0.36542 0.54726 0.0
N35 N 0.73442 0.4849 0.68757 0.0
C36 C 0.65531 0.47879 0.70627 0.0
C37 C 0.67305 0.49288 0.75875 0.0
C38 C 0.77296 0.51482 0.79264 0.0
C39 C 0.85364 0.51865 0.77238 0.0
C40 C 0.83272 0.50306 0.71972 0.0
Zn41 Zn 0.70234 0.48015 0.60856 0.0
C42 C 0.84845 0.37063 0.58476 0.0
N43 N 0.63219 0.48576 0.4439 0.0
C44 C 0.52991 0.48457 0.41288 0.0
C45 C 0.70703 0.5044 0.42408 0.0
C46 C 0.67983 0.5247 0.37173 0.0
C47 C 0.5745 0.52411 0.33861 0.0
C48 C 0.49951 0.50236 0.3601 0.0
Zn49 Zn 0.66727 0.47859 0.52328 0.0
O50 O 0.57423 0.39069 0.59386 0.0
C51 C 0.53522 0.5913 0.55907 0.0
O52 O 0.56301 0.38634 0.5124 0.0
H53 H 0.78783 0.50672 0.44929 0.0
H54 H 0.57753 0.46496 0.6802 0.0
H55 H 0.47095 0.47217 0.42933 0.0
O56 O 0.59748 0.56658 0.60176 0.0
O57 O 0.54039 0.56344 0.51683 0.0
H58 H 0.89479 0.50775 0.70429 0.0
O59 O 0.76387 0.57138 0.53014 0.0
O60 O 0.81953 0.57444 0.61469 0.0
O61 O 0.80329 0.39566 0.53806 0.0
O62 O 0.81351 0.39257 0.6195 0.0
C63 C 0.82134 0.60246 0.57193 0.0
H64 H 0.6086 0.48663 0.77243 0.0
H65 H 0.93181 0.53548 0.79656 0.0
H66 H 0.74113 0.54227 0.3579 0.0
H67 H 0.41768 0.49888 0.33661 0.0
H68 H 0.25465 0.08595 0.52624 0.0
C69 C 0.25638 0.02491 0.53683 0.0
C70 C 0.22942 0.96725 0.49731 0.0
C71 C 0.28922 0.00358 0.58964 0.0
H72 H 0.23156 0.8434 0.4804 0.0
C73 C 0.24375 0.88717 0.51109 0.0
C74 C 0.28985 0.86413 0.56301 0.0
C75 C 0.30842 0.92243 0.60261 0.0
C76 C 0.30763 0.06753 0.63005 0.0
H77 H 0.34236 0.90528 0.64299 0.0
C78 C 0.22266 0.112 0.63321 0.0
C79 C 0.23535 0.18853 0.65653 0.0
C80 C 0.40846 0.09436 0.65817 0.0
H81 H 0.47576 0.06168 0.65659 0.0
C82 C 0.42273 0.16654 0.68601 0.0
H83 H 0.14658 0.09009 0.61245 0.0
C84 C 0.33692 0.21475 0.68375 0.0
H85 H 0.34989 0.27323 0.70184 0.0
H86 H 0.50086 0.18761 0.70675 0.0
H87 H 0.96617 0.15406 0.5774 0.0
C88 C 0.95508 0.0907 0.5711 0.0
C89 C 0.93902 0.04277 0.60955 0.0
C90 C 0.96825 0.05516 0.52693 0.0
H91 H 0.90574 0.92631 0.62962 0.0
C92 C 0.92279 0.96159 0.60067 0.0
C93 C 0.94116 0.92363 0.55963 0.0
C94 C 0.96177 0.97055 0.52191 0.0
C95 C 1.00027 0.10415 0.48921 0.0
H96 H 0.97714 0.94116 0.49019 0.0
C97 C 1.07957 0.1626 0.50625 0.0
C98 C 0.12569 0.19742 0.4726 0.0
C99 C 0.95805 0.0877 0.43595 0.0
H100 H 0.89644 0.04426 0.42101 0.0
C101 C 0.99597 0.12604 0.40141 0.0
H102 H 0.11041 0.17626 0.54638 0.0
C103 C 1.07995 0.17871 0.4194 0.0
H104 H 0.11117 0.20131 0.39131 0.0
H105 H 0.96325 0.11187 0.36047 0.0
H106 H 0.84032 0.62216 1.04587 0.0
C107 C 0.81505 0.5618 1.04643 0.0
C108 C 0.80792 0.51178 1.00436 0.0
C109 C 0.78808 0.53386 0.08845 0.0
H110 H 0.78752 0.39339 0.9751 0.0
C111 C 0.78644 0.43156 1.00686 0.0
C112 C 0.77164 0.39903 1.05033 0.0
C113 C 0.76827 0.45118 0.09063 0.0
C114 C 0.77557 0.59325 0.12717 0.0
H115 H 0.7535 0.42748 0.12384 0.0
C116 C 0.67532 0.62143 0.12297 0.0
C117 C 0.6604 0.69592 0.14452 0.0
C118 C 0.86222 0.63484 0.16007 0.0
H119 H 0.94024 0.61592 0.1638 0.0
C120 C 0.84876 0.70331 0.18669 0.0
H121 H 0.6101 0.58959 0.09807 0.0
C122 C 0.74893 0.73471 0.17809 0.0
H123 H 0.74123 0.79121 0.19582 0.0
H124 H 0.91645 0.73501 0.21173 0.0
H125 H 0.4183 0.63627 0.07967 0.0
C126 C 0.42089 0.57289 0.07487 0.0
C127 C 0.43404 0.52276 0.11735 0.0
C128 C 0.42367 0.54119 1.02775 0.0
H129 H 0.42988 0.40352 0.14204 0.0
C130 C 0.42751 0.44089 0.10962 0.0
C131 C 0.41835 0.40682 0.06188 0.0
C132 C 0.41965 0.45723 1.02091 0.0
C133 C 0.43809 0.59708 0.98849 0.0
H134 H 0.41707 0.43162 0.98429 0.0
C135 C 0.53857 0.62391 0.99284 0.0
C136 C 0.55293 0.69079 0.96474 0.0
C137 C 0.35137 0.63328 0.95158 0.0
H138 H 0.27336 0.61494 0.94762 0.0
C139 C 0.36456 0.69514 0.9205 0.0
H140 H 0.60584 0.59409 1.01898 0.0
C141 C 0.46405 0.72453 0.92746 0.0
H142 H 0.4708 0.77582 0.90515 0.0
H143 H 0.2968 0.72288 0.8923 0.0
C144 C 0.26108 0.22244 1.01847 0.0
C145 C 0.2993 0.17471 0.06346 0.0
H146 H 0.27084 0.33291 0.98208 0.0
C147 C 0.39215 0.19642 0.10262 0.0
H148 H 0.1903 0.20669 0.98691 0.0
C149 C 0.44146 0.26763 0.0983 0.0
C150 C 0.39571 0.31999 0.05602 0.0
H151 H 0.42514 0.15957 0.13676 0.0
H152 H 0.51081 0.28508 0.13017 0.0
C153 C 0.30837 0.29433 1.0149 0.0
C154 C 0.4003 0.78796 0.14045 0.0
C155 C 0.35898 0.81992 0.08965 0.0
H156 H 0.52715 0.7255 0.19766 0.0
C157 C 0.41837 0.81157 0.0579 0.0
H158 H 0.3578 0.79422 0.16676 0.0
C159 C 0.5157 0.77325 0.07621 0.0
C160 C 0.55675 0.73926 0.12625 0.0
H161 H 0.39146 0.83704 1.01934 0.0
H162 H 0.55776 0.77259 1.05051 0.0
C163 C 0.49794 0.74876 0.15855 0.0
C164 C 0.78836 0.80725 0.95735 0.0
C165 C 0.84912 0.81708 1.01057 0.0
H166 H 0.64776 0.76045 0.90077 0.0
C167 C 0.81353 0.78325 1.04705 0.0
H168 H 0.81294 0.83335 0.92771 0.0
C169 C 0.72081 0.74068 1.031 0.0
C170 C 0.6576 0.73131 0.97879 0.0
H171 H 0.85744 0.78904 0.08814 0.0
H172 H 0.69954 0.71423 0.06021 0.0
C173 C 0.69308 0.76575 0.94169 0.0
C174 C 0.79471 0.1904 1.0064 0.0
C175 C 0.88018 0.16413 1.04861 0.0
H176 H 0.68227 0.28361 0.97589 0.0
C177 C 0.90592 0.20615 0.09609 0.0
H178 H 0.77065 0.15805 0.96996 0.0
C179 C 0.85756 0.27866 0.09925 0.0
C180 C 0.78136 0.31044 0.05516 0.0
H181 H 0.96986 0.18666 0.1301 0.0
H182 H 0.88853 0.31376 0.13446 0.0
C183 C 0.74348 0.26176 1.01023 0.0
C184 C 0.84655 0.71558 0.51896 0.0
C185 C 0.87532 0.67712 0.56768 0.0
H186 H 0.84509 0.82432 0.478 0.0
C187 C 0.94639 0.71485 0.61097 0.0
H188 H 0.79329 0.68774 0.48425 0.0
C189 C 0.97984 0.79232 0.60646 0.0
C190 C 0.9389 0.83476 0.55919 0.0
H191 H 0.97196 0.68634 0.6486 0.0
H192 H 1.03081 0.82175 0.64116 0.0
C193 C 0.8772 0.79384 0.51486 0.0
C194 C 0.9733 0.27654 0.64752 0.0
C195 C 0.94794 0.32414 0.60251 0.0
H196 H 1.08658 0.2002 0.70176 0.0
C197 C 1.02561 0.33707 0.58135 0.0
H198 H 0.91753 0.26878 0.6668 0.0
C199 C 0.12368 0.29997 0.60303 0.0
C200 C 0.14411 0.24467 0.64388 0.0
H201 H 1.01166 0.3774 0.54899 0.0
H202 H 0.18178 0.31227 0.58619 0.0
C203 C 1.07008 0.23724 0.66781 0.0
C204 C 0.39437 0.27586 0.56299 0.0
C205 C 0.42608 0.32305 0.52983 0.0
H206 H 0.27972 0.19964 0.5711 0.0
C207 C 0.35632 0.3325 0.47834 0.0
H208 H 0.44507 0.26752 0.60286 0.0
C209 C 0.25846 0.29537 0.46053 0.0
C210 C 0.22699 0.24504 0.49302 0.0
H211 H 0.37649 0.36992 0.4515 0.0
H212 H 0.20811 0.30693 0.42108 0.0
C213 C 0.29774 0.23695 0.54451 0.0
C214 C 0.50944 0.71848 0.59783 0.0
C215 C 0.46681 0.65736 0.56153 0.0
H216 H 0.48555 0.83123 0.62807 0.0
C217 C 0.35976 0.65671 0.53355 0.0
H218 H 0.59188 0.71883 0.62089 0.0
C219 C 0.29719 0.71949 0.53979 0.0
C220 C 0.342 0.78504 0.57241 0.0
H221 H 0.32491 0.60819 0.50708 0.0
H222 H 0.21507 0.71974 0.51627 0.0
C223 C 0.44793 0.78182 0.60311 0.0
C224 C 0.24296 0.04162 0.37006 0.0
C225 C 0.16459 0.99567 0.33383 0.0
H226 H 0.32381 0.07019 0.45041 0.0
C227 C 0.0994 0.94949 0.35198 0.0
H228 H 0.29324 0.0793 0.35749 0.0
C229 C 0.11584 0.94556 0.40488 0.0
C230 C 0.19811 0.98739 0.44131 0.0
H231 H 1.03865 0.9129 0.32568 0.0
H232 H 1.06695 0.90666 0.41766 0.0
C233 C 0.25958 0.03748 0.42327 0.0
C234 C 1.0851 0.03038 0.75173 0.0
C235 C 1.00923 0.05242 0.7729 0.0
H236 H 0.12214 0.01279 0.68355 0.0
C237 C 0.91477 0.08605 0.73928 0.0
H238 H 0.15766 0.00249 0.77525 0.0
C239 C 0.89424 0.09165 0.68565 0.0
C240 C 0.96887 0.06594 0.6648 0.0
H241 H 0.85484 0.10528 0.75395 0.0
H242 H 0.81813 0.11156 0.66024 0.0
C243 C 1.06522 0.0371 0.69873 0.0
C244 C 0.88677 0.50878 0.88758 0.0
C245 C 0.79243 0.53161 0.84871 0.0
H246 H 0.96758 0.48825 0.9688 0.0
C247 C 0.71344 0.5651 0.86418 0.0
H248 H 0.94935 0.48215 0.87755 0.0
C249 C 0.72408 0.56765 0.91648 0.0
C250 C 0.81511 0.53975 0.9549 0.0
H251 H 0.64058 0.58523 0.83574 0.0
H252 H 0.65702 0.58403 0.92625 0.0
C253 C 0.89794 0.51296 0.9401 0.0
C254 C 0.44341 0.57166 0.25243 0.0
C255 C 0.54354 0.54162 0.28177 0.0
H256 H 0.32937 0.59107 0.17621 0.0
C257 C 0.61146 0.52199 0.25534 0.0
H258 H 0.38941 0.58975 0.27116 0.0
C259 C 0.57808 0.52611 0.20148 0.0
C260 C 0.47567 0.5494 0.17209 0.0
H261 H 0.68819 0.49737 0.27553 0.0
H262 H 0.62952 0.50327 0.18243 0.0
C263 C 0.40931 0.57444 0.19801 0.0
loop_
_geom_bond_atom_site_label_1
_geom_bond_atom_site_label_2
_geom_bond_distance
_geom_bond_site_symmetry_2
_ccdc_geom_bond_type
C0 O16 1.251 1_556 S
C0 O18 1.254 . S
N1 C2 1.333 1_545 S
N1 C6 1.307 . S
N1 Zn7 2.020 . S
C2 N1 1.333 1_565 S
C2 C3 1.379 . S
C2 H20 0.952 1_455 S
C3 C2 1.379 . S
C3 C4 1.390 1_565 S
C3 H30 0.949 1_455 S
C4 C3 1.390 1_545 S
C4 C5 1.357 . S
C5 C4 1.357 . S
C5 C6 1.370 . S
C5 H31 0.950 . S
C6 N1 1.307 . S
C6 C5 1.370 . S
C6 H24 0.948 . S
Zn7 N1 2.020 . S
Zn7 O16 2.039 1_445 S
Zn7 O22 2.034 1_455 S
Zn7 O26 2.025 . S
Zn7 O28 2.024 1_545 S
C8 O27 1.246 1_554 S
C8 O28 1.249 . S
N9 C10 1.307 1_445 S
N9 C11 1.333 . S
N9 Zn15 2.020 . S
C10 N9 1.307 1_665 S
C10 C14 1.370 . S
C10 H21 0.948 . S
C11 N9 1.333 . S
C11 C12 1.379 . S
C11 H19 0.952 . S
C12 C11 1.379 . S
C12 C13 1.390 1_455 S
C12 H32 0.949 . S
C13 C12 1.390 1_655 S
C13 C14 1.357 1_545 S
C14 C10 1.370 . S
C14 C13 1.357 1_565 S
C14 H33 0.950 . S
Zn15 N9 2.020 . S
Zn15 O18 2.025 1_445 S
Zn15 O23 2.024 1_455 S
Zn15 O25 2.039 . S
Zn15 O27 2.034 1_545 S
O16 C0 1.251 1_554 S
O16 Zn7 2.039 1_665 S
C17 O22 1.246 1_556 S
C17 O23 1.249 . S
O18 C0 1.254 . S
O18 Zn15 2.025 1_665 S
H19 C11 0.952 . S
H20 C2 0.952 1_655 S
H21 C10 0.948 . S
O22 Zn7 2.034 1_655 S
O22 C17 1.246 1_554 S
O23 Zn15 2.024 1_655 S
O23 C17 1.249 . S
H24 C6 0.948 . S
O25 Zn15 2.039 . S
O25 C29 1.251 1_556 S
O26 Zn7 2.025 . S
O26 C29 1.254 . S
O27 C8 1.246 1_556 S
O27 Zn15 2.034 1_565 S
O28 Zn7 2.024 1_565 S
O28 C8 1.249 . S
C29 O25 1.251 1_554 S
C29 O26 1.254 . S
H30 C3 0.949 1_655 S
H31 C5 0.950 . S
H32 C12 0.949 . S
H33 C14 0.950 . S
C34 O50 1.251 . S
C34 O52 1.254 . S
N35 C36 1.333 . S
N35 C40 1.307 . S
N35 Zn41 2.020 . S
C36 N35 1.333 . S
C36 C37 1.379 . S
C36 H54 0.952 . S
C37 C36 1.379 . S
C37 C38 1.390 . S
C37 H64 0.949 . S
C38 C37 1.390 . S
C38 C39 1.357 . S
C39 C38 1.357 . S
C39 C40 1.370 . S
C39 H65 0.950 . S
C40 N35 1.307 . S
C40 C39 1.370 . S
C40 H58 0.948 . S
Zn41 N35 2.020 . S
Zn41 O50 2.039 . S
Zn41 O56 2.034 . S
Zn41 O60 2.025 . S
Zn41 O62 2.024 . S
C42 O61 1.246 . S
C42 O62 1.249 . S
N43 C44 1.307 . S
N43 C45 1.333 . S
N43 Zn49 2.020 . S
C44 N43 1.307 . S
C44 C48 1.370 . S
C44 H55 0.948 . S
C45 N43 1.333 . S
C45 C46 1.379 . S
C45 H53 0.952 . S
C46 C45 1.379 . S
C46 C47 1.390 . S
C46 H66 0.949 . S
C47 C46 1.390 . S
C47 C48 1.357 . S
C48 C44 1.370 . S
C48 C47 1.357 . S
C48 H67 0.950 . S
Zn49 N43 2.020 . S
Zn49 O52 2.025 . S
Zn49 O57 2.024 . S
Zn49 O59 2.039 . S
Zn49 O61 2.034 . S
O50 C34 1.251 . S
O50 Zn41 2.039 . S
C51 O56 1.246 . S
C51 O57 1.249 . S
O52 C34 1.254 . S
O52 Zn49 2.025 . S
H53 C45 0.952 . S
H54 C36 0.952 . S
H55 C44 0.948 . S
O56 Zn41 2.034 . S
O56 C51 1.246 . S
O57 Zn49 2.024 . S
O57 C51 1.249 . S
H58 C40 0.948 . S
O59 Zn49 2.039 . S
O59 C63 1.251 . S
O60 Zn41 2.025 . S
O60 C63 1.254 . S
O61 C42 1.246 . S
O61 Zn49 2.034 . S
O62 Zn41 2.024 . S
O62 C42 1.249 . S
C63 O59 1.251 . S
C63 O60 1.254 . S
H64 C37 0.949 . S
H65 C39 0.950 . S
H66 C46 0.949 . S
H67 C48 0.950 . S
H68 C69 0.949 . S
C69 H68 0.949 . S
C69 C70 1.395 1_545 S
C69 C71 1.391 . S
C70 C69 1.395 1_565 S
C70 C73 1.390 . S
C71 C69 1.391 . S
C71 C75 1.387 1_545 S
C71 C76 1.491 . S
H72 C73 0.950 . S
C73 C70 1.390 . S
C73 H72 0.950 . S
C73 C74 1.378 . S
C74 C73 1.378 . S
C74 C75 1.409 . S
C75 C71 1.387 1_565 S
C75 C74 1.409 . S
C75 H77 0.951 . S
C76 C71 1.491 . S
C76 C78 1.382 1_455 S
C76 C80 1.404 . S
H77 C75 0.951 . S
C78 C76 1.382 1_655 S
C78 C79 1.390 . S
C78 H83 0.949 . S
C79 C78 1.390 . S
C79 C84 1.399 1_655 S
C80 C76 1.404 . S
C80 H81 0.950 . S
C80 C82 1.375 . S
H81 C80 0.950 . S
C82 C80 1.375 . S
C82 C84 1.382 . S
C82 H86 0.950 . S
H83 C78 0.949 . S
C84 C79 1.399 1_455 S
C84 C82 1.382 . S
C84 H85 0.952 . S
H85 C84 0.952 . S
H86 C82 0.950 . S
H87 C88 0.944 1_455 S
C88 H87 0.944 1_655 S
C88 C89 1.400 1_545 S
C88 C90 1.391 . S
C89 C88 1.400 1_565 S
C89 C92 1.390 . S
C90 C88 1.391 . S
C90 C94 1.387 1_545 S
C90 C95 1.491 1_655 S
H91 C92 0.950 . S
C92 C89 1.390 . S
C92 H91 0.950 . S
C92 C93 1.378 . S
C93 C92 1.378 . S
C93 C94 1.409 . S
C94 C90 1.387 1_565 S
C94 C93 1.409 . S
C94 H96 0.951 . S
C95 C90 1.491 1_455 S
C95 C97 1.382 . S
C95 C99 1.404 1_455 S
H96 C94 0.951 . S
C97 C95 1.382 . S
C97 C98 1.390 . S
C97 H102 0.949 . S
C98 C97 1.390 . S
C98 C103 1.399 . S
C99 C95 1.404 1_655 S
C99 H100 0.950 . S
C99 C101 1.375 . S
H100 C99 0.950 . S
C101 C99 1.375 . S
C101 C103 1.382 1_655 S
C101 H105 0.950 . S
H102 C97 0.949 . S
C103 C98 1.399 . S
C103 C101 1.382 1_455 S
C103 H104 0.952 . S
H104 C103 0.952 . S
H105 C101 0.950 . S
H106 C107 0.949 . S
C107 H106 0.949 . S
C107 C108 1.395 . S
C107 C109 1.391 . S
C108 C107 1.395 . S
C108 C111 1.390 . S
C109 C107 1.391 . S
C109 C113 1.387 1_556 S
C109 C114 1.491 1_556 S
H110 C111 0.950 . S
C111 C108 1.390 . S
C111 H110 0.950 . S
C111 C112 1.378 . S
C112 C111 1.378 . S
C112 C113 1.409 1_556 S
C113 C109 1.387 1_554 S
C113 C112 1.409 1_554 S
C113 H115 0.951 . S
C114 C109 1.491 1_554 S
C114 C116 1.382 . S
C114 C118 1.404 . S
H115 C113 0.951 . S
C116 C114 1.382 . S
C116 C117 1.390 . S
C116 H121 0.949 1_554 S
C117 C116 1.390 . S
C117 C122 1.399 . S
C118 C114 1.404 . S
C118 H119 0.950 . S
C118 C120 1.375 . S
H119 C118 0.950 . S
C120 C118 1.375 . S
C120 C122 1.382 . S
C120 H124 0.950 . S
H121 C116 0.949 1_556 S
C122 C117 1.399 . S
C122 C120 1.382 . S
C122 H123 0.952 . S
H123 C122 0.952 . S
H124 C120 0.950 . S
H125 C126 0.949 . S
C126 H125 0.949 . S
C126 C127 1.395 . S
C126 C128 1.391 . S
C127 C126 1.395 . S
C127 C130 1.390 . S
C128 C126 1.391 . S
C128 C132 1.387 1_554 S
C128 C133 1.491 1_554 S
H129 C130 0.950 . S
C130 C127 1.390 . S
C130 H129 0.950 . S
C130 C131 1.378 . S
C131 C130 1.378 . S
C131 C132 1.409 1_554 S
C132 C128 1.387 1_556 S
C132 C131 1.409 1_556 S
C132 H134 0.951 . S
C133 C128 1.491 1_556 S
C133 C135 1.382 1_556 S
C133 C137 1.404 . S
H134 C132 0.951 . S
C135 C133 1.382 1_554 S
C135 C136 1.390 1_554 S
C135 H140 0.949 . S
C136 C135 1.390 1_556 S
C136 C141 1.399 . S
C137 C133 1.404 . S
C137 H138 0.950 . S
C137 C139 1.375 . S
H138 C137 0.950 . S
C139 C137 1.375 . S
C139 C141 1.382 . S
C139 H143 0.950 . S
H140 C135 0.949 . S
C141 C136 1.399 . S
C141 C139 1.382 . S
C141 H142 0.952 . S
H142 C141 0.952 . S
H143 C139 0.950 . S
C144 C145 1.387 . S
C144 H148 0.950 . S
C144 C153 1.390 . S
C145 C144 1.387 . S
C145 C147 1.387 1_554 S
H146 C153 0.950 . S
C147 C145 1.387 1_556 S
C147 C149 1.390 . S
C147 H151 0.950 . S
H148 C144 0.950 . S
C149 C147 1.390 . S
C149 C150 1.387 1_556 S
C149 H152 0.950 . S
C150 C149 1.387 1_554 S
C150 C153 1.387 . S
H151 C147 0.950 . S
H152 C149 0.950 . S
C153 C144 1.390 . S
C153 H146 0.950 . S
C153 C150 1.387 . S
C154 C155 1.387 . S
C154 H158 0.950 . S
C154 C163 1.390 . S
C155 C154 1.387 . S
C155 C157 1.387 1_554 S
H156 C163 0.950 . S
C157 C155 1.387 1_556 S
C157 C159 1.390 . S
C157 H161 0.950 . S
H158 C154 0.950 . S
C159 C157 1.390 . S
C159 C160 1.387 1_556 S
C159 H162 0.950 . S
C160 C159 1.387 1_554 S
C160 C163 1.387 . S
H161 C157 0.950 . S
H162 C159 0.950 . S
C163 C154 1.390 . S
C163 H156 0.950 . S
C163 C160 1.387 . S
C164 C165 1.387 . S
C164 H168 0.950 . S
C164 C173 1.390 . S
C165 C164 1.387 . S
C165 C167 1.387 1_556 S
H166 C173 0.950 . S
C167 C165 1.387 1_554 S
C167 C169 1.390 . S
C167 H171 0.950 . S
H168 C164 0.950 . S
C169 C167 1.390 . S
C169 C170 1.387 1_554 S
C169 H172 0.950 . S
C170 C169 1.387 1_556 S
C170 C173 1.387 . S
H171 C167 0.950 . S
H172 C169 0.950 . S
C173 C164 1.390 . S
C173 H166 0.950 . S
C173 C170 1.387 . S
C174 C175 1.387 . S
C174 H178 0.950 . S
C174 C183 1.390 . S
C175 C174 1.387 . S
C175 C177 1.387 1_556 S
H176 C183 0.950 . S
C177 C175 1.387 1_554 S
C177 C179 1.390 . S
C177 H181 0.950 . S
H178 C174 0.950 . S
C179 C177 1.390 . S
C179 C180 1.387 1_554 S
C179 H182 0.950 . S
C180 C179 1.387 1_556 S
C180 C183 1.387 . S
H181 C177 0.950 . S
H182 C179 0.950 . S
C183 C174 1.390 . S
C183 H176 0.950 . S
C183 C180 1.387 . S
C184 C185 1.387 . S
C184 H188 0.950 . S
C184 C193 1.390 . S
C185 C184 1.387 . S
C185 C187 1.387 . S
H186 C193 0.950 . S
C187 C185 1.387 . S
C187 C189 1.390 . S
C187 H191 0.950 . S
H188 C184 0.950 . S
C189 C187 1.390 . S
C189 C190 1.387 . S
C189 H192 0.950 . S
C190 C189 1.387 . S
C190 C193 1.387 . S
H191 C187 0.950 . S
H192 C189 0.950 . S
C193 C184 1.390 . S
C193 H186 0.950 . S
C193 C190 1.387 . S
C194 C195 1.387 . S
C194 H198 0.950 . S
C194 C203 1.390 . S
C195 C194 1.387 . S
C195 C197 1.387 . S
H196 C203 0.950 . S
C197 C195 1.387 . S
C197 C199 1.390 . S
C197 H201 0.950 . S
H198 C194 0.950 . S
C199 C197 1.390 . S
C199 C200 1.387 . S
C199 H202 0.950 . S
C200 C199 1.387 . S
C200 C203 1.387 . S
H201 C197 0.950 . S
H202 C199 0.950 . S
C203 C194 1.390 . S
C203 H196 0.950 . S
C203 C200 1.387 . S
C204 C205 1.387 . S
C204 H208 0.950 . S
C204 C213 1.390 . S
C205 C204 1.387 . S
C205 C207 1.387 . S
H206 C213 0.950 . S
C207 C205 1.387 . S
C207 C209 1.390 . S
C207 H211 0.950 . S
H208 C204 0.950 . S
C209 C207 1.390 . S
C209 C210 1.387 . S
C209 H212 0.950 . S
C210 C209 1.387 . S
C210 C213 1.387 . S
H211 C207 0.950 . S
H212 C209 0.950 . S
C213 C204 1.390 . S
C213 H206 0.950 . S
C213 C210 1.387 . S
C214 C215 1.387 . S
C214 H218 0.950 . S
C214 C223 1.390 . S
C215 C214 1.387 . S
C215 C217 1.387 . S
H216 C223 0.950 . S
C217 C215 1.387 . S
C217 C219 1.390 . S
C217 H221 0.950 . S
H218 C214 0.950 . S
C219 C217 1.390 . S
C219 C220 1.387 . S
C219 H222 0.950 . S
C220 C219 1.387 . S
C220 C223 1.387 . S
H221 C217 0.950 . S
H222 C219 0.950 . S
C223 C214 1.390 . S
C223 H216 0.950 . S
C223 C220 1.387 . S
C224 C225 1.387 . S
C224 H228 0.950 . S
C224 C233 1.390 . S
C225 C224 1.387 . S
C225 C227 1.387 1_545 S
H226 C233 0.950 . S
C227 C225 1.387 1_565 S
C227 C229 1.390 . S
C227 H231 0.950 . S
H228 C224 0.950 . S
C229 C227 1.390 . S
C229 C230 1.399 . S
C229 H232 0.950 . S
C230 C229 1.399 . S
C230 C233 1.375 1_565 S
H231 C227 0.950 . S
H232 C229 0.950 . S
C233 C224 1.390 . S
C233 H226 0.950 . S
C233 C230 1.375 1_545 S
C234 C235 1.387 1_565 S
C234 H238 0.950 . S
C234 C243 1.390 . S
C235 C234 1.387 1_545 S
C235 C237 1.387 . S
H236 C243 0.950 . S
C237 C235 1.387 . S
C237 C239 1.390 . S
C237 H241 0.950 . S
H238 C234 0.950 . S
C239 C237 1.390 . S
C239 C240 1.387 . S
C239 H242 0.950 . S
C240 C239 1.387 . S
C240 C243 1.387 1_545 S
H241 C237 0.950 . S
H242 C239 0.950 . S
C243 C234 1.390 . S
C243 H236 0.950 . S
C243 C240 1.387 1_565 S
C244 C245 1.387 . S
C244 H248 0.950 . S
C244 C253 1.390 . S
C245 C244 1.387 . S
C245 C247 1.387 . S
H246 C253 0.950 . S
C247 C245 1.387 . S
C247 C249 1.390 . S
C247 H251 0.950 . S
H248 C244 0.950 . S
C249 C247 1.390 . S
C249 C250 1.387 . S
C249 H252 0.950 . S
C250 C249 1.387 . S
C250 C253 1.387 . S
H251 C247 0.950 . S
H252 C249 0.950 . S
C253 C244 1.390 . S
C253 H246 0.950 . S
C253 C250 1.387 . S
C254 C255 1.387 . S
C254 H258 0.950 . S
C254 C263 1.390 . S
C255 C254 1.387 . S
C255 C257 1.387 . S
H256 C263 0.950 . S
C257 C255 1.387 . S
C257 C259 1.390 . S
C257 H261 0.950 . S
H258 C254 0.950 . S
C259 C257 1.390 . S
C259 C260 1.387 . S
C259 H262 0.950 . S
C260 C259 1.387 . S
C260 C263 1.387 . S
H261 C257 0.950 . S
H262 C259 0.950 . S
C263 C254 1.390 . S
C263 H256 0.950 . S
C263 C260 1.387 . S
C150 C131 1.535 . S
C145 C29 1.572 . S
C155 C8 1.480 . S
C160 C117 1.463 . S
C165 C0 1.487 . S
C170 C136 1.466 . S
C175 C17 1.576 . S
C180 C112 1.538 . S
C185 C63 1.573 . S
C190 C93 1.536 . S
C195 C42 1.480 . S
C200 C79 1.463 . S
C210 C98 1.464 . S
C205 C34 1.487 . S
C220 C74 1.538 . S
C215 C51 1.576 . S
C225 C4 1.560 . S
C230 C70 1.552 . S
C235 C13 1.547 . S
C240 C89 1.538 1_545 S
C250 C108 1.551 . S
C245 C38 1.560 . S
C255 C47 1.547 . S
C260 C127 1.539 . S
