# Generated by pormake.
# Topology pto, (3,4)-cn, num edge types: 1
# Building blocks:
#     Node 0, Type 0, BuildingBlock: OLANEW_clean_sbu_2, # of connection points: 3
#     Node 1, Type 0, BuildingBlock: OLANEW_clean_sbu_2, # of connection points: 3
#     Node 2, Type 0, BuildingBlock: OLANEW_clean_sbu_2, # of connection points: 3
#     Node 3, Type 0, BuildingBlock: OLANEW_clean_sbu_2, # of connection points: 3
#     Node 4, Type 0, BuildingBlock: OLANEW_clean_sbu_2, # of connection points: 3
#     Node 5, Type 0, BuildingBlock: OLANEW_clean_sbu_2, # of connection points: 3
#     Node 6, Type 0, BuildingBlock: OLANEW_clean_sbu_2, # of connection points: 3
#     Node 7, Type 0, BuildingBlock: OLANEW_clean_sbu_2, # of connection points: 3
#     Node 8, Type 1, BuildingBlock: KUFVIS_clean_linker_0, # of connection points: 4
#     Node 9, Type 1, BuildingBlock: KUFVIS_clean_linker_0, # of connection points: 4
#     Node 10, Type 1, BuildingBlock: KUFVIS_clean_linker_0, # of connection points: 4
#     Node 11, Type 1, BuildingBlock: KUFVIS_clean_linker_0, # of connection points: 4
#     Node 12, Type 1, BuildingBlock: KUFVIS_clean_linker_0, # of connection points: 4
#     Node 13, Type 1, BuildingBlock: KUFVIS_clean_linker_0, # of connection points: 4
#     Edge 14, Type (0, 1), BuildingBlock: OJICUG_clean_linker_0, # of connection points: 2
#     Edge 15, Type (0, 1), BuildingBlock: OJICUG_clean_linker_0, # of connection points: 2
#     Edge 16, Type (0, 1), BuildingBlock: OJICUG_clean_linker_0, # of connection points: 2
#     Edge 17, Type (0, 1), BuildingBlock: OJICUG_clean_linker_0, # of connection points: 2
#     Edge 18, Type (0, 1), BuildingBlock: OJICUG_clean_linker_0, # of connection points: 2
#     Edge 19, Type (0, 1), BuildingBlock: OJICUG_clean_linker_0, # of connection points: 2
#     Edge 20, Type (0, 1), BuildingBlock: OJICUG_clean_linker_0, # of connection points: 2
#     Edge 21, Type (0, 1), BuildingBlock: OJICUG_clean_linker_0, # of connection points: 2
#     Edge 22, Type (0, 1), BuildingBlock: OJICUG_clean_linker_0, # of connection points: 2
#     Edge 23, Type (0, 1), BuildingBlock: OJICUG_clean_linker_0, # of connection points: 2
#     Edge 24, Type (0, 1), BuildingBlock: OJICUG_clean_linker_0, # of connection points: 2
#     Edge 25, Type (0, 1), BuildingBlock: OJICUG_clean_linker_0, # of connection points: 2
#     Edge 26, Type (0, 1), BuildingBlock: OJICUG_clean_linker_0, # of connection points: 2
#     Edge 27, Type (0, 1), BuildingBlock: OJICUG_clean_linker_0, # of connection points: 2
#     Edge 28, Type (0, 1), BuildingBlock: OJICUG_clean_linker_0, # of connection points: 2
#     Edge 29, Type (0, 1), BuildingBlock: OJICUG_clean_linker_0, # of connection points: 2
#     Edge 30, Type (0, 1), BuildingBlock: OJICUG_clean_linker_0, # of connection points: 2
#     Edge 31, Type (0, 1), BuildingBlock: OJICUG_clean_linker_0, # of connection points: 2
#     Edge 32, Type (0, 1), BuildingBlock: OJICUG_clean_linker_0, # of connection points: 2
#     Edge 33, Type (0, 1), BuildingBlock: OJICUG_clean_linker_0, # of connection points: 2
#     Edge 34, Type (0, 1), BuildingBlock: OJICUG_clean_linker_0, # of connection points: 2
#     Edge 35, Type (0, 1), BuildingBlock: OJICUG_clean_linker_0, # of connection points: 2
#     Edge 36, Type (0, 1), BuildingBlock: OJICUG_clean_linker_0, # of connection points: 2
#     Edge 37, Type (0, 1), BuildingBlock: OJICUG_clean_linker_0, # of connection points: 2
# Relax obj value: 0.010
# Max RMSD: 0.114
# Mean RMSD: 0.066
data_MOF--net-pto--node1-OLANEW_clean_sbu_2--node2-KUFVIS_clean_linker_0--edge1-OJICUG_clean_linker_0
_symmetry_space_group_name_H-M    P1
_symmetry_Int_Tables_number       1
_symmetry_cell_setting            triclinic
loop_
_symmetry_equiv_pos_as_xyz
'x, y, z'
_cell_length_a     23.38231
_cell_length_b     39.896767
_cell_length_c     32.01811
_cell_angle_alpha  92.337567
_cell_angle_beta   89.361303
_cell_angle_gamma 107.19339
loop_
_atom_site_label
_atom_site_type_symbol
_atom_site_fract_x
_atom_site_fract_y
_atom_site_fract_z
_atom_type_partial_charge
O0 O 0.35741 0.36172 0.26507 0.0
Cd1 Cd 0.30331 0.37011 0.32801 0.0
O2 O 0.42549 0.41353 0.26661 0.0
Cd3 Cd 0.38605 0.43211 0.32162 0.0
O4 O 0.32778 0.45542 0.35867 0.0
C5 C 0.33108 0.48735 0.35348 0.0
O6 O 0.37242 0.50571 0.32842 0.0
C7 C 0.40329 0.38321 0.24941 0.0
C8 C 0.29674 0.31555 0.38134 0.0
O9 O 0.25675 0.31245 0.3532 0.0
O10 O 0.3392 0.34449 0.38437 0.0
O11 O 0.28648 0.90126 0.78373 0.0
Cd12 Cd 0.20267 0.90397 0.73955 0.0
O13 O 0.3181 0.86412 0.74348 0.0
Cd14 Cd 0.25168 0.8521 0.69369 0.0
O15 O 0.19768 0.80583 0.65825 0.0
C16 C 0.21081 0.77749 0.66332 0.0
O17 O 0.25625 0.77836 0.68756 0.0
C18 C 0.32265 0.88331 0.77672 0.0
C19 C 0.22637 0.95523 0.67924 0.0
O20 O 0.21935 0.96329 0.71772 0.0
O21 O 0.22401 0.92335 0.66954 0.0
O22 O 0.77565 0.80059 0.3639 0.0
Cd23 Cd 0.7227 0.74013 0.33844 0.0
O24 O 0.71989 0.82397 0.32654 0.0
Cd25 Cd 0.67766 0.77704 0.28778 0.0
O26 O 0.62602 0.76273 0.23011 0.0
C27 C 0.65273 0.7729 0.19605 0.0
O28 O 0.71104 0.7874 0.19675 0.0
C29 C 0.76022 0.82731 0.35396 0.0
C30 C 0.78848 0.69157 0.33763 0.0
O31 O 0.76279 0.69822 0.3712 0.0
O32 O 0.78393 0.70825 0.30504 0.0
O33 O 0.7983 0.32883 0.62112 0.0
Cd34 Cd 0.7531 0.27181 0.65437 0.0
O35 O 0.72173 0.34783 0.63846 0.0
Cd36 Cd 0.67912 0.30343 0.67647 0.0
O37 O 0.65546 0.30371 0.74234 0.0
C38 C 0.6745 0.33404 0.76011 0.0
O39 O 0.70674 0.36014 0.73822 0.0
C40 C 0.77244 0.35288 0.62099 0.0
C41 C 0.76731 0.20987 0.61675 0.0
O42 O 0.72284 0.22089 0.60772 0.0
O43 O 0.8063 0.22869 0.64267 0.0
O44 O 0.77907 0.84128 0.67258 0.0
Cd45 Cd 0.74712 0.78916 0.71653 0.0
O46 O 0.87089 0.86668 0.69528 0.0
Cd47 Cd 0.85336 0.83184 0.74765 0.0
O48 O 0.80055 0.8307 0.80438 0.0
C49 C 0.79786 0.86092 0.8166 0.0
O50 O 0.8294 0.88836 0.79646 0.0
C51 C 0.82825 0.86588 0.6706 0.0
C52 C 0.78666 0.73044 0.6956 0.0
O53 O 0.74382 0.73617 0.67523 0.0
O54 O 0.81173 0.7528 0.72471 0.0
O55 O 0.90705 0.31554 0.30801 0.0
Cd56 Cd 0.89331 0.25718 0.27276 0.0
O57 O 0.88256 0.33587 0.25017 0.0
Cd58 Cd 0.84777 0.28501 0.21719 0.0
O59 O 0.77188 0.26236 0.17579 0.0
C60 C 0.77729 0.27187 0.13821 0.0
O61 O 0.83047 0.28996 0.12505 0.0
C62 C 0.90107 0.34116 0.28772 0.0
C63 C 0.88114 0.19898 0.32229 0.0
O64 O 0.93308 0.21882 0.31247 0.0
O65 O 0.83535 0.2072 0.3097 0.0
O66 O 0.21363 0.38331 0.86308 0.0
Cd67 Cd 0.13037 0.37241 0.81394 0.0
O68 O 0.27427 0.37392 0.81365 0.0
Cd69 Cd 0.20796 0.34691 0.76688 0.0
O70 O 0.19455 0.30354 0.72031 0.0
C71 C 0.22641 0.28279 0.72347 0.0
O72 O 0.26369 0.28757 0.75509 0.0
C73 C 0.26566 0.38368 0.85085 0.0
C74 C 0.11902 0.43184 0.77503 0.0
O75 O 0.09453 0.42294 0.81052 0.0
O76 O 0.15035 0.41327 0.75855 0.0
O77 O 0.31414 0.94869 0.19074 0.0
Cd78 Cd 0.24565 0.96529 0.24048 0.0
O79 O 0.28445 0.89887 0.22198 0.0
Cd80 Cd 0.27589 0.84468 0.2385 0.0
O81 O 0.23839 0.79366 0.26642 0.0
C82 C 0.23862 0.76413 0.24996 0.0
O83 O 0.2649 0.76307 0.21366 0.0
C84 C 0.31413 0.91693 0.19273 0.0
C85 C 0.28911 1.00635 0.31265 0.0
O86 O 0.2835 0.97337 0.31083 0.0
O87 O 0.2772 0.02024 0.27968 0.0
H88 H 0.07566 0.45988 0.3682 0.0
H89 H 0.95243 0.51335 0.32868 0.0
H90 H 0.12877 0.57212 0.37346 0.0
H91 H 0.12122 0.60422 0.31835 0.0
H92 H 0.00955 0.6714 0.31118 0.0
H93 H 0.93424 0.56688 0.3541 0.0
C94 C 0.06429 0.48416 0.36562 0.0
C95 C 0.10867 0.51615 0.37271 0.0
C96 C 0.00754 0.48271 0.3506 0.0
C97 C -0.00495 0.51438 0.34243 0.0
C98 C 0.03876 0.54715 0.35028 0.0
C99 C 0.09472 0.54745 0.36671 0.0
C100 C 0.02904 0.58107 0.33844 0.0
C101 C 0.07772 0.6082 0.32313 0.0
C102 C 0.07114 0.64098 0.31451 0.0
C103 C 0.01494 0.64619 0.31863 0.0
C104 C 0.96537 0.61952 0.33185 0.0
C105 C 0.97241 0.58707 0.34258 0.0
H106 H 0.96891 0.68735 0.63978 0.0
H107 H 0.06136 0.60908 0.62965 0.0
H108 H 0.87253 0.57963 0.65897 0.0
H109 H 0.88948 0.52896 0.60793 0.0
H110 H 0.97828 0.45762 0.65425 0.0
H111 H 0.04406 0.56694 0.68885 0.0
C112 C 0.96811 0.65999 0.6389 0.0
C113 C 0.91473 0.63463 0.64858 0.0
C114 C 0.02135 0.6513 0.6326 0.0
C115 C 0.02018 0.61597 0.63432 0.0
C116 C 0.96644 0.58957 0.64286 0.0
C117 C 0.91349 0.5992 0.65026 0.0
C118 C 0.96767 0.55264 0.64675 0.0
C119 C 0.9252 0.52426 0.62585 0.0
C120 C 0.92975 0.48984 0.62759 0.0
C121 C 0.97605 0.48418 0.65099 0.0
C122 C 0.01671 0.51154 0.6733 0.0
C123 C 0.01265 0.54578 0.6712 0.0
H124 H 0.25742 0.24865 0.5479 0.0
H125 H 0.25927 0.15206 0.59969 0.0
H126 H 0.27934 0.16703 0.46571 0.0
H127 H 0.31423 0.12456 0.46212 0.0
H128 H 0.28489 0.02093 0.50401 0.0
H129 H 0.24312 0.09765 0.58578 0.0
C130 C 0.26065 0.22215 0.54347 0.0
C131 C 0.27182 0.21019 0.50369 0.0
C132 C 0.25373 0.20067 0.5776 0.0
C133 C 0.26148 0.16709 0.57214 0.0
C134 C 0.27111 0.15353 0.53171 0.0
C135 C 0.2743 0.17568 0.4975 0.0
C136 C 0.27716 0.11679 0.52492 0.0
C137 C 0.29781 0.10614 0.48629 0.0
C138 C 0.2976 0.07127 0.47763 0.0
C139 C 0.28336 0.04751 0.50993 0.0
C140 C 0.2659 0.05734 0.54955 0.0
C141 C 0.26102 0.09154 0.55624 0.0
H142 H 0.46743 0.82756 0.13031 0.0
H143 H 0.5596 0.8142 0.01715 0.0
H144 H 0.44831 0.88363 0.02262 0.0
H145 H 0.43434 0.86197 0.95228 0.0
H146 H 0.5667 0.88299 0.85489 0.0
H147 H 0.61378 0.85772 0.97583 0.0
C148 C 0.47664 0.83269 0.09753 0.0
C149 C 0.45152 0.85592 0.07837 0.0
C150 C 0.51679 0.81823 0.076 0.0
C151 C 0.52988 0.82623 0.03401 0.0
C152 C 0.50539 0.84977 0.01403 0.0
C153 C 0.46647 0.86478 0.03682 0.0
C154 C 0.52216 0.85943 0.97001 0.0
C155 C 0.47998 0.86531 0.94214 0.0
C156 C 0.4956 0.87354 0.90041 0.0
C157 C 0.55415 0.8767 0.887 0.0
C158 C 0.59617 0.87034 0.91385 0.0
C159 C 0.58032 0.86193 0.95524 0.0
H160 H 0.82263 0.13962 0.47539 0.0
H161 H 0.80255 0.05192 0.55259 0.0
H162 H 0.868 0.04987 0.42507 0.0
H163 H 0.82401 0.99233 0.4285 0.0
H164 H 0.84135 0.9118 0.50754 0.0
H165 H 0.85033 1.01253 0.56229 0.0
C166 C 0.82631 0.11342 0.47938 0.0
C167 C 0.84558 0.09607 0.44604 0.0
C168 C 0.81193 0.09791 0.51777 0.0
C169 C 0.81614 0.06386 0.52296 0.0
C170 C 0.83577 0.04531 0.48957 0.0
C171 C 0.85142 0.0624 0.45113 0.0
C172 C 0.83879 1.00828 0.49444 0.0
C173 C 0.83239 0.98452 0.45924 0.0
C174 C 0.83522 0.95 0.46356 0.0
C175 C 0.84255 0.93887 0.5034 0.0
C176 C 0.84666 0.96098 0.5387 0.0
C177 C 0.84591 0.99576 0.53438 0.0
H178 H 0.55516 0.31084 0.14035 0.0
H179 H 0.5871 0.30494 0.00869 0.0
H180 H 0.48312 0.37062 0.0595 0.0
H181 H 0.44339 0.3629 -0.00298 0.0
H182 H 0.50802 0.37815 0.8713 0.0
H183 H 0.60918 0.34257 0.95994 0.0
C184 C 0.54803 0.31769 0.10881 0.0
C185 C 0.51302 0.34007 0.10287 0.0
C186 C 0.57704 0.30626 0.07505 0.0
C187 C 0.56745 0.31583 0.0346 0.0
C188 C 0.5339 0.33937 0.02786 0.0
C189 C 0.50772 0.35179 0.06284 0.0
C190 C 0.52734 0.35133 0.98479 0.0
C191 C 0.47786 0.36294 0.97425 0.0
C192 C 0.47149 0.3739 0.9338 0.0
C193 C 0.51417 0.37212 0.90336 0.0
C194 C 0.56259 0.36005 0.91275 0.0
C195 C 0.56993 0.35053 0.95341 0.0
C196 C 0.27183 0.52992 0.34884 0.0
C197 C 0.28144 0.50088 0.36778 0.0
H198 H 0.20916 0.55762 0.33558 0.0
C199 C 0.23856 0.48205 0.39595 0.0
H200 H 0.30427 0.5452 0.32727 0.0
C201 C 0.18435 0.48972 0.4015 0.0
C202 C 0.17162 0.51592 0.37841 0.0
H203 H 0.24524 0.45997 0.41168 0.0
H204 H 0.15062 0.47336 0.42144 0.0
C205 C 0.21729 0.53726 0.35392 0.0
C206 C 0.17176 0.71202 0.66561 0.0
C207 C 0.17024 0.7434 0.64779 0.0
H208 H 0.12552 0.65786 0.67456 0.0
C209 C 0.12575 0.74219 0.61823 0.0
H210 H 0.20585 0.71202 0.68824 0.0
C211 C 0.08056 0.7109 0.60958 0.0
C212 C 0.07826 0.68038 0.63097 0.0
H213 H 0.12409 0.76579 0.60335 0.0
H214 H 0.04498 0.71119 0.58834 0.0
C215 C 0.126 0.68081 0.65744 0.0
C216 C 0.84372 0.65545 0.37376 0.0
C217 C 0.82445 0.66651 0.33662 0.0
H218 H 0.9036 0.63071 0.40135 0.0
C219 C 0.84338 0.65534 0.29813 0.0
H220 H 0.82967 0.66349 0.40391 0.0
C221 C 0.88437 0.63601 0.29679 0.0
C222 C 0.90757 0.62756 0.33386 0.0
H223 H 0.82879 0.66297 0.26896 0.0
H224 H 0.90159 0.63002 0.26674 0.0
C225 C 0.88534 0.63627 0.37238 0.0
C226 C 0.86305 0.39601 0.59099 0.0
C227 C 0.80565 0.38896 0.60857 0.0
H228 H 0.94721 0.43466 0.58114 0.0
C229 C 0.78488 0.41755 0.62148 0.0
H230 H 0.88015 0.37477 0.58009 0.0
C231 C 0.82362 0.45189 0.62255 0.0
C232 C 0.88353 0.45824 0.61032 0.0
H233 H 0.74055 0.41319 0.63469 0.0
H234 H 0.80846 0.47272 0.63715 0.0
C235 C 0.9014 0.43039 0.59147 0.0
C236 C 0.24983 0.25411 0.405 0.0
C237 C 0.29329 0.28704 0.41031 0.0
H238 H 0.20955 0.2034 0.43034 0.0
C239 C 0.3326 0.293 0.4445 0.0
H240 H 0.21914 0.24865 0.37878 0.0
C241 C 0.3269 0.26728 0.47376 0.0
C242 C 0.28223 0.23491 0.46928 0.0
H243 H 0.36675 0.31795 0.44941 0.0
H244 H 0.35655 0.27299 0.50059 0.0
C245 C 0.24455 0.22814 0.4342 0.0
C246 C 0.40806 0.86288 0.79958 0.0
C247 C 0.36798 0.88243 0.80839 0.0
H248 H 0.47813 0.84411 0.82185 0.0
C249 C 0.36965 0.89901 0.84824 0.0
H250 H 0.40784 0.84948 0.76945 0.0
C251 C 0.41049 0.89592 0.87857 0.0
C252 C 0.45057 0.87641 0.86944 0.0
H253 H 0.33906 0.91404 0.85616 0.0
H254 H 0.41121 0.90908 0.9089 0.0
C255 C 0.44859 0.85985 0.82967 0.0
C256 C 0.83787 0.86832 0.40043 0.0
C257 C 0.78579 0.86181 0.37625 0.0
H258 H 0.89631 0.90247 0.44532 0.0
C259 C 0.75599 0.88777 0.37575 0.0
H260 H 0.86251 0.84922 0.40092 0.0
C261 C 0.77492 0.91818 0.40166 0.0
C262 C 0.8244 0.92338 0.42823 0.0
H263 H 0.71589 0.8837 0.35719 0.0
H264 H 0.74838 0.93632 0.40297 0.0
C265 C 0.85731 0.89892 0.42575 0.0
C266 C 0.62704 0.31333 0.82868 0.0
C267 C 0.65436 0.34104 0.80257 0.0
H268 H 0.57771 0.29805 0.8852 0.0
C269 C 0.65816 0.37563 0.81605 0.0
H270 H 0.62383 0.28646 0.8192 0.0
C271 C 0.63132 0.38212 0.85342 0.0
C272 C 0.60147 0.35425 0.87838 0.0
H273 H 0.67902 0.39757 0.79669 0.0
H274 H 0.63166 0.40874 0.862 0.0
C275 C 0.60116 0.31995 0.86651 0.0
C276 C 0.21849 0.97078 0.6052 0.0
C277 C 0.23512 0.9816 0.64669 0.0
H278 H 0.21147 0.9859 0.54281 0.0
C279 C 0.25914 0.01764 0.65667 0.0
H280 H 0.19874 0.94322 0.59671 0.0
C281 C 0.26827 0.04228 0.6254 0.0
C282 C 0.25241 0.03147 0.58358 0.0
H283 H 0.27225 0.02674 0.68847 0.0
H284 H 0.28915 0.06971 0.6339 0.0
C285 C 0.22619 0.99537 0.57421 0.0
C286 C 0.55472 0.76461 0.16006 0.0
C287 C 0.6176 0.77641 0.15916 0.0
H288 H 0.47303 0.7678 0.13339 0.0
C289 C 0.64619 0.79627 0.12549 0.0
H290 H 0.53125 0.74878 0.18518 0.0
C291 C 0.6128 0.80738 0.09599 0.0
C292 C 0.5502 0.79867 0.09951 0.0
H293 H 0.69457 0.80551 0.1236 0.0
H294 H 0.63645 0.82514 0.07256 0.0
C295 C 0.52134 0.77558 0.13046 0.0
C296 C 0.82512 0.16615 0.60435 0.0
C297 C 0.7741 0.17694 0.59687 0.0
H298 H 0.87632 0.13133 0.58556 0.0
C299 C 0.73069 0.15678 0.56856 0.0
H300 H 0.85922 0.18092 0.62618 0.0
C301 C 0.74019 0.12818 0.54595 0.0
C302 C 0.79304 0.11895 0.55131 0.0
H303 H 0.69061 0.16407 0.56233 0.0
H304 H 0.70815 0.11475 0.52208 0.0
C305 C 0.83457 0.13743 0.58165 0.0
C306 C 0.46862 0.39781 0.18603 0.0
C307 C 0.43068 0.37257 0.2113 0.0
H308 H 0.52376 0.40718 0.13109 0.0
C309 C 0.41881 0.3368 0.19984 0.0
H310 H 0.47827 0.42557 0.194 0.0
C311 C 0.44525 0.32641 0.16434 0.0
C312 C 0.48319 0.35158 0.1392 0.0
H313 H 0.38983 0.31673 0.21869 0.0
H314 H 0.43612 0.29865 0.15647 0.0
C315 C 0.49426 0.38738 0.14999 0.0
C316 C 0.80146 0.68392 0.64476 0.0
C317 C 0.80801 0.69957 0.6853 0.0
H318 H 0.83005 0.64972 0.60113 0.0
C319 C 0.83906 0.68703 0.71538 0.0
H320 H 0.77768 0.69299 0.62094 0.0
C321 C 0.86687 0.66134 0.7044 0.0
C322 C 0.86506 0.64808 0.66298 0.0
H323 H 0.8443 0.69827 0.74699 0.0
H324 H 0.89461 0.65431 0.72735 0.0
C325 C 0.83052 0.65872 0.63354 0.0
C326 C 0.93722 0.3843 0.34823 0.0
C327 C 0.91841 0.37751 0.30643 0.0
H328 H 0.97778 0.42324 0.39564 0.0
C329 C 0.91946 0.40616 0.28172 0.0
H330 H 0.93612 0.36295 0.36836 0.0
C331 C 0.94342 0.44076 0.29735 0.0
C332 C 0.96662 0.44747 0.33809 0.0
H333 H 0.90465 0.40195 0.24949 0.0
H334 H 0.94773 0.46211 0.27655 0.0
C335 C 0.96073 0.41887 0.36393 0.0
C336 C 0.06971 0.47955 0.76944 0.0
C337 C 0.10594 0.46013 0.75169 0.0
H338 H 0.0142 0.51254 0.75806 0.0
C339 C 0.12303 0.4648 0.70957 0.0
H340 H 0.05609 0.47676 0.80187 0.0
C341 C 0.09919 0.48539 0.68468 0.0
C342 C 0.05853 0.50206 0.70156 0.0
H343 H 0.15115 0.45045 0.69495 0.0
H344 H 0.10855 0.48592 0.65145 0.0
C345 C 0.04627 0.50041 0.74454 0.0
C346 C 0.17359 0.73323 0.30751 0.0
C347 C 0.20332 0.73136 0.26948 0.0
H348 H 0.10911 0.70579 0.35169 0.0
C349 C 0.19498 0.69829 0.2491 0.0
H350 H 0.17942 0.75812 0.32434 0.0
C351 C 0.15472 0.66812 0.26513 0.0
C352 C 0.12216 0.67068 0.3016 0.0
H353 H 0.21748 0.69592 0.21988 0.0
H354 H 0.14657 0.64325 0.24782 0.0
C355 C 0.13339 0.70326 0.32328 0.0
C356 C 0.78277 0.90022 0.62439 0.0
C357 C 0.8343 0.89418 0.64068 0.0
H358 H 0.74701 0.92784 0.58042 0.0
C359 C 0.89085 0.91518 0.6278 0.0
H360 H 0.73855 0.88488 0.63406 0.0
C361 C 0.89551 0.9399 0.59701 0.0
C362 C 0.84377 0.94467 0.57955 0.0
H363 H 0.93137 0.91128 0.63994 0.0
H364 H 0.9393 0.9538 0.58511 0.0
C365 C 0.78751 0.92529 0.59431 0.0
C366 C 0.66593 0.25679 0.13127 0.0
C367 C 0.72323 0.27168 0.11449 0.0
H368 H 0.5736 0.25516 0.13094 0.0
C369 C 0.72885 0.29167 0.07872 0.0
H370 H 0.65988 0.24073 0.15839 0.0
C371 C 0.67956 0.30027 0.06332 0.0
C372 C 0.62361 0.28878 0.0832 0.0
H373 H 0.77223 0.30321 0.06469 0.0
H374 H 0.68675 0.31845 0.03822 0.0
C375 C 0.61651 0.2652 0.11569 0.0
C376 C 0.27078 0.23865 0.68849 0.0
C377 C 0.22691 0.25647 0.68953 0.0
H378 H 0.31347 0.20643 0.65199 0.0
C379 C 0.18652 0.25102 0.65606 0.0
H380 H 0.30237 0.2421 0.71394 0.0
C381 C 0.1926 0.23038 0.62104 0.0
C382 C 0.23929 0.21483 0.61858 0.0
H383 H 0.15175 0.26392 0.65606 0.0
H384 H 0.16262 0.22806 0.59479 0.0
C385 C 0.27696 0.21799 0.65323 0.0
C386 C 0.39545 0.92327 0.13913 0.0
C387 C 0.34735 0.90158 0.16145 0.0
H388 H 0.46599 0.92569 0.09467 0.0
C389 C 0.33034 0.86518 0.15272 0.0
H390 H 0.40907 0.95148 0.14466 0.0
C391 C 0.36299 0.85054 0.12448 0.0
C392 C 0.41245 0.87206 0.10351 0.0
H393 H 0.29148 0.84788 0.16728 0.0
H394 H 0.35003 0.82228 0.11931 0.0
C395 C 0.42771 0.90861 0.11032 0.0
C396 C 0.92344 0.16256 0.3686 0.0
C397 C 0.87396 0.1681 0.34844 0.0
H398 H 0.95318 0.13415 0.41523 0.0
C399 C 0.81673 0.14484 0.35532 0.0
H400 H 0.96817 0.17991 0.36384 0.0
C401 C 0.80857 0.11832 0.38396 0.0
C402 C 0.85739 0.11443 0.40629 0.0
H403 H 0.77774 0.1481 0.34003 0.0
H404 H 0.76347 0.10247 0.39099 0.0
C405 C 0.91513 0.13606 0.39752 0.0
C406 C 0.30921 0.36781 0.91462 0.0
C407 C 0.31518 0.3897 0.88065 0.0
H408 H 0.35438 0.34491 0.95782 0.0
C409 C 0.37197 0.41127 0.86993 0.0
H410 H 0.26568 0.35061 0.92298 0.0
C411 C 0.42269 0.40885 0.89061 0.0
C412 C 0.41766 0.38373 0.92118 0.0
H413 H 0.37742 0.42835 0.84378 0.0
H414 H 0.46619 0.42486 0.88047 0.0
C415 C 0.36015 0.36458 0.93455 0.0
C416 C 0.28232 0.05653 0.35969 0.0
C417 C 0.30206 0.02677 0.35289 0.0
H418 H 0.26391 0.09324 0.40414 0.0
C419 C 0.32785 0.0146 0.38627 0.0
H420 H 0.262 0.06648 0.33462 0.0
C421 C 0.33075 0.03068 0.42621 0.0
C422 C 0.30635 0.05871 0.43395 0.0
H423 H 0.34415 0.99196 0.38182 0.0
H424 H 0.35027 0.02026 0.45125 0.0
C425 C 0.28384 0.07207 0.39975 0.0
C426 C 0.71921 0.83597 0.87025 0.0
C427 C 0.75308 0.86483 0.84795 0.0
H428 H 0.64306 0.81553 0.90976 0.0
C429 C 0.73978 0.89693 0.85273 0.0
H430 H 0.72858 0.81097 0.86737 0.0
C431 C 0.69078 0.89936 0.87659 0.0
C432 C 0.65485 0.86996 0.89674 0.0
H433 H 0.7651 0.91972 0.83617 0.0
H434 H 0.67923 0.92376 0.87775 0.0
C435 C 0.67061 0.83861 0.8947 0.0
loop_
_geom_bond_atom_site_label_1
_geom_bond_atom_site_label_2
_geom_bond_distance
_geom_bond_site_symmetry_2
_ccdc_geom_bond_type
O0 Cd1 2.300 . S
O0 C7 1.275 . S
Cd1 O0 2.300 . S
Cd1 O9 2.381 . S
Cd1 O10 2.378 . S
O2 Cd3 2.385 . S
O2 C7 1.255 . S
Cd3 O2 2.385 . S
Cd3 O4 2.317 . S
O4 Cd3 2.317 . S
O4 C5 1.232 . S
C5 O4 1.232 . S
C5 O6 1.218 . S
O6 C5 1.218 . S
C7 O0 1.275 . S
C7 O2 1.255 . S
C8 O9 1.258 . S
C8 O10 1.256 . S
O9 Cd1 2.381 . S
O9 C8 1.258 . S
O10 Cd1 2.378 . S
O10 C8 1.256 . S
O11 Cd12 2.300 . S
O11 C18 1.275 . S
Cd12 O11 2.300 . S
Cd12 O20 2.381 . S
Cd12 O21 2.378 . S
O13 Cd14 2.385 . S
O13 C18 1.255 . S
Cd14 O13 2.385 . S
Cd14 O15 2.317 . S
O15 Cd14 2.317 . S
O15 C16 1.232 . S
C16 O15 1.232 . S
C16 O17 1.218 . S
O17 C16 1.218 . S
C18 O11 1.275 . S
C18 O13 1.255 . S
C19 O20 1.258 . S
C19 O21 1.256 . S
O20 Cd12 2.381 . S
O20 C19 1.258 . S
O21 Cd12 2.378 . S
O21 C19 1.256 . S
O22 Cd23 2.300 . S
O22 C29 1.275 . S
Cd23 O22 2.300 . S
Cd23 O31 2.381 . S
Cd23 O32 2.378 . S
O24 Cd25 2.385 . S
O24 C29 1.255 . S
Cd25 O24 2.385 . S
Cd25 O26 2.317 . S
O26 Cd25 2.317 . S
O26 C27 1.232 . S
C27 O26 1.232 . S
C27 O28 1.218 . S
O28 C27 1.218 . S
C29 O22 1.275 . S
C29 O24 1.255 . S
C30 O31 1.258 . S
C30 O32 1.256 . S
O31 Cd23 2.381 . S
O31 C30 1.258 . S
O32 Cd23 2.378 . S
O32 C30 1.256 . S
O33 Cd34 2.300 . S
O33 C40 1.275 . S
Cd34 O33 2.300 . S
Cd34 O42 2.381 . S
Cd34 O43 2.378 . S
O35 Cd36 2.385 . S
O35 C40 1.255 . S
Cd36 O35 2.385 . S
Cd36 O37 2.317 . S
O37 Cd36 2.317 . S
O37 C38 1.232 . S
C38 O37 1.232 . S
C38 O39 1.218 . S
O39 C38 1.218 . S
C40 O33 1.275 . S
C40 O35 1.255 . S
C41 O42 1.258 . S
C41 O43 1.256 . S
O42 Cd34 2.381 . S
O42 C41 1.258 . S
O43 Cd34 2.378 . S
O43 C41 1.256 . S
O44 Cd45 2.300 . S
O44 C51 1.275 . S
Cd45 O44 2.300 . S
Cd45 O53 2.381 . S
Cd45 O54 2.378 . S
O46 Cd47 2.385 . S
O46 C51 1.255 . S
Cd47 O46 2.385 . S
Cd47 O48 2.317 . S
O48 Cd47 2.317 . S
O48 C49 1.232 . S
C49 O48 1.232 . S
C49 O50 1.218 . S
O50 C49 1.218 . S
C51 O44 1.275 . S
C51 O46 1.255 . S
C52 O53 1.258 . S
C52 O54 1.256 . S
O53 Cd45 2.381 . S
O53 C52 1.258 . S
O54 Cd45 2.378 . S
O54 C52 1.256 . S
O55 Cd56 2.300 . S
O55 C62 1.275 . S
Cd56 O55 2.300 . S
Cd56 O64 2.381 . S
Cd56 O65 2.378 . S
O57 Cd58 2.385 . S
O57 C62 1.255 . S
Cd58 O57 2.385 . S
Cd58 O59 2.317 . S
O59 Cd58 2.317 . S
O59 C60 1.232 . S
C60 O59 1.232 . S
C60 O61 1.218 . S
O61 C60 1.218 . S
C62 O55 1.275 . S
C62 O57 1.255 . S
C63 O64 1.258 . S
C63 O65 1.256 . S
O64 Cd56 2.381 . S
O64 C63 1.258 . S
O65 Cd56 2.378 . S
O65 C63 1.256 . S
O66 Cd67 2.300 . S
O66 C73 1.275 . S
Cd67 O66 2.300 . S
Cd67 O75 2.381 . S
Cd67 O76 2.378 . S
O68 Cd69 2.385 . S
O68 C73 1.255 . S
Cd69 O68 2.385 . S
Cd69 O70 2.317 . S
O70 Cd69 2.317 . S
O70 C71 1.232 . S
C71 O70 1.232 . S
C71 O72 1.218 . S
O72 C71 1.218 . S
C73 O66 1.275 . S
C73 O68 1.255 . S
C74 O75 1.258 . S
C74 O76 1.256 . S
O75 Cd67 2.381 . S
O75 C74 1.258 . S
O76 Cd67 2.378 . S
O76 C74 1.256 . S
O77 Cd78 2.300 . S
O77 C84 1.275 . S
Cd78 O77 2.300 . S
Cd78 O86 2.381 . S
Cd78 O87 2.378 . S
O79 Cd80 2.385 . S
O79 C84 1.255 . S
Cd80 O79 2.385 . S
Cd80 O81 2.317 . S
O81 Cd80 2.317 . S
O81 C82 1.232 . S
C82 O81 1.232 . S
C82 O83 1.218 . S
O83 C82 1.218 . S
C84 O77 1.275 . S
C84 O79 1.255 . S
C85 O86 1.258 . S
C85 O87 1.256 . S
O86 Cd78 2.381 . S
O86 C85 1.258 . S
O87 Cd78 2.378 . S
O87 C85 1.256 . S
H88 C94 0.930 . S
H89 C97 0.931 . S
H90 C99 0.931 . S
H91 C101 0.930 . S
H92 C103 0.930 . S
H93 C105 0.931 . S
C94 H88 0.930 . S
C94 C95 1.380 . S
C94 C96 1.394 1_455 S
C95 C94 1.380 . S
C95 C99 1.382 . S
C96 C94 1.394 1_655 S
C96 C97 1.400 . S
C97 H89 0.931 . S
C97 C96 1.400 . S
C97 C98 1.375 1_655 S
C98 C97 1.375 1_455 S
C98 C99 1.415 . S
C98 C100 1.501 . S
C99 H90 0.931 . S
C99 C95 1.382 . S
C99 C98 1.415 . S
C100 C98 1.501 . S
C100 C101 1.384 . S
C100 C105 1.408 1_455 S
C101 H91 0.930 . S
C101 C100 1.384 . S
C101 C102 1.389 . S
C102 C101 1.389 . S
C102 C103 1.405 . S
C103 H92 0.930 . S
C103 C102 1.405 . S
C103 C104 1.370 . S
C104 C103 1.370 . S
C104 C105 1.403 1_455 S
C105 H93 0.931 . S
C105 C100 1.408 1_655 S
C105 C104 1.403 1_655 S
H106 C112 0.930 . S
H107 C115 0.931 . S
H108 C117 0.931 . S
H109 C119 0.930 . S
H110 C121 0.930 . S
H111 C123 0.931 . S
C112 H106 0.930 . S
C112 C113 1.380 1_455 S
C112 C114 1.394 . S
C113 C112 1.380 1_655 S
C113 C117 1.382 . S
C114 C112 1.394 . S
C114 C115 1.400 . S
C115 H107 0.931 . S
C115 C114 1.400 . S
C115 C116 1.375 . S
C116 C115 1.375 . S
C116 C117 1.415 1_455 S
C116 C118 1.501 1_455 S
C117 H108 0.931 . S
C117 C113 1.382 . S
C117 C116 1.415 1_655 S
C118 C116 1.501 1_655 S
C118 C119 1.384 . S
C118 C123 1.408 1_655 S
C119 H109 0.930 . S
C119 C118 1.384 . S
C119 C120 1.389 . S
C120 C119 1.389 . S
C120 C121 1.405 . S
C121 H110 0.930 . S
C121 C120 1.405 . S
C121 C122 1.364 1_655 S
C122 C121 1.364 1_455 S
C122 C123 1.400 . S
C123 H111 0.931 . S
C123 C118 1.408 1_455 S
C123 C122 1.400 . S
H124 C130 0.930 . S
H125 C133 0.931 . S
H126 C135 0.931 . S
H127 C137 0.930 . S
H128 C139 0.930 . S
H129 C141 0.931 . S
C130 H124 0.930 . S
C130 C131 1.380 . S
C130 C132 1.394 . S
C131 C130 1.380 . S
C131 C135 1.382 . S
C132 C130 1.394 . S
C132 C133 1.400 . S
C133 H125 0.931 . S
C133 C132 1.400 . S
C133 C134 1.375 . S
C134 C133 1.375 . S
C134 C135 1.415 . S
C134 C136 1.501 . S
C135 H126 0.931 . S
C135 C131 1.382 . S
C135 C134 1.415 . S
C136 C134 1.501 . S
C136 C137 1.384 . S
C136 C141 1.408 . S
C137 H127 0.930 . S
C137 C136 1.384 . S
C137 C138 1.389 . S
C138 C137 1.389 . S
C138 C139 1.405 . S
C139 H128 0.930 . S
C139 C138 1.405 . S
C139 C140 1.364 . S
C140 C139 1.364 . S
C140 C141 1.400 . S
C141 H129 0.931 . S
C141 C136 1.408 . S
C141 C140 1.400 . S
H142 C148 0.930 . S
H143 C151 0.931 . S
H144 C153 0.931 . S
H145 C155 0.930 . S
H146 C157 0.930 . S
H147 C159 0.931 . S
C148 H142 0.930 . S
C148 C149 1.380 . S
C148 C150 1.394 . S
C149 C148 1.380 . S
C149 C153 1.382 . S
C150 C148 1.394 . S
C150 C151 1.400 . S
C151 H143 0.931 . S
C151 C150 1.400 . S
C151 C152 1.375 . S
C152 C151 1.375 . S
C152 C153 1.415 . S
C152 C154 1.501 1_554 S
C153 H144 0.931 . S
C153 C149 1.382 . S
C153 C152 1.415 . S
C154 C152 1.501 1_556 S
C154 C155 1.384 . S
C154 C159 1.408 . S
C155 H145 0.930 . S
C155 C154 1.384 . S
C155 C156 1.389 . S
C156 C155 1.389 . S
C156 C157 1.405 . S
C157 H146 0.930 . S
C157 C156 1.405 . S
C157 C158 1.364 . S
C158 C157 1.364 . S
C158 C159 1.400 . S
C159 H147 0.931 . S
C159 C154 1.408 . S
C159 C158 1.400 . S
H160 C166 0.930 . S
H161 C169 0.931 . S
H162 C171 0.931 . S
H163 C173 0.930 . S
H164 C175 0.930 . S
H165 C177 0.931 1_545 S
C166 H160 0.930 . S
C166 C167 1.380 . S
C166 C168 1.394 . S
C167 C166 1.380 . S
C167 C171 1.382 . S
C168 C166 1.394 . S
C168 C169 1.400 . S
C169 H161 0.931 . S
C169 C168 1.400 . S
C169 C170 1.375 . S
C170 C169 1.375 . S
C170 C171 1.415 . S
C170 C172 1.501 . S
C171 H162 0.931 . S
C171 C167 1.382 . S
C171 C170 1.415 . S
C172 C170 1.501 . S
C172 C173 1.384 1_545 S
C172 C177 1.408 1_545 S
C173 H163 0.930 . S
C173 C172 1.384 1_565 S
C173 C174 1.389 . S
C174 C173 1.389 . S
C174 C175 1.405 . S
C175 H164 0.930 . S
C175 C174 1.405 . S
C175 C176 1.364 . S
C176 C175 1.364 . S
C176 C177 1.400 . S
C177 H165 0.931 1_565 S
C177 C172 1.408 1_565 S
C177 C176 1.400 . S
H178 C184 0.930 . S
H179 C187 0.931 . S
H180 C189 0.931 . S
H181 C191 0.930 . S
H182 C193 0.930 . S
H183 C195 0.931 . S
C184 H178 0.930 . S
C184 C185 1.380 . S
C184 C186 1.394 . S
C185 C184 1.380 . S
C185 C189 1.382 . S
C186 C184 1.394 . S
C186 C187 1.400 . S
C187 H179 0.931 . S
C187 C186 1.400 . S
C187 C188 1.375 . S
C188 C187 1.375 . S
C188 C189 1.415 . S
C188 C190 1.501 1_554 S
C189 H180 0.931 . S
C189 C185 1.382 . S
C189 C188 1.415 . S
C190 C188 1.501 1_556 S
C190 C191 1.384 . S
C190 C195 1.408 . S
C191 H181 0.930 . S
C191 C190 1.384 . S
C191 C192 1.389 . S
C192 C191 1.389 . S
C192 C193 1.405 . S
C193 H182 0.930 . S
C193 C192 1.405 . S
C193 C194 1.364 . S
C194 C193 1.364 . S
C194 C195 1.400 . S
C195 H183 0.931 . S
C195 C190 1.408 . S
C195 C194 1.400 . S
C196 C197 1.387 . S
C196 H200 0.950 . S
C196 C205 1.390 . S
C197 C196 1.387 . S
C197 C199 1.387 . S
H198 C205 0.950 . S
C199 C197 1.387 . S
C199 C201 1.390 . S
C199 H203 0.950 . S
H200 C196 0.950 . S
C201 C199 1.390 . S
C201 C202 1.387 . S
C201 H204 0.950 . S
C202 C201 1.387 . S
C202 C205 1.387 . S
H203 C199 0.950 . S
H204 C201 0.950 . S
C205 C196 1.390 . S
C205 H198 0.950 . S
C205 C202 1.387 . S
C206 C207 1.387 . S
C206 H210 0.950 . S
C206 C215 1.390 . S
C207 C206 1.387 . S
C207 C209 1.387 . S
H208 C215 0.950 . S
C209 C207 1.387 . S
C209 C211 1.390 . S
C209 H213 0.950 . S
H210 C206 0.950 . S
C211 C209 1.390 . S
C211 C212 1.387 . S
C211 H214 0.950 . S
C212 C211 1.387 . S
C212 C215 1.387 . S
H213 C209 0.950 . S
H214 C211 0.950 . S
C215 C206 1.390 . S
C215 H208 0.950 . S
C215 C212 1.387 . S
C216 C217 1.387 . S
C216 H220 0.950 . S
C216 C225 1.390 . S
C217 C216 1.387 . S
C217 C219 1.387 . S
H218 C225 0.950 . S
C219 C217 1.387 . S
C219 C221 1.390 . S
C219 H223 0.950 . S
H220 C216 0.950 . S
C221 C219 1.390 . S
C221 C222 1.387 . S
C221 H224 0.950 . S
C222 C221 1.387 . S
C222 C225 1.387 . S
H223 C219 0.950 . S
H224 C221 0.950 . S
C225 C216 1.390 . S
C225 H218 0.950 . S
C225 C222 1.387 . S
C226 C227 1.387 . S
C226 H230 0.950 . S
C226 C235 1.390 . S
C227 C226 1.387 . S
C227 C229 1.387 . S
H228 C235 0.950 . S
C229 C227 1.387 . S
C229 C231 1.390 . S
C229 H233 0.950 . S
H230 C226 0.950 . S
C231 C229 1.390 . S
C231 C232 1.387 . S
C231 H234 0.950 . S
C232 C231 1.387 . S
C232 C235 1.387 . S
H233 C229 0.950 . S
H234 C231 0.950 . S
C235 C226 1.390 . S
C235 H228 0.950 . S
C235 C232 1.387 . S
C236 C237 1.387 . S
C236 H240 0.950 . S
C236 C245 1.390 . S
C237 C236 1.387 . S
C237 C239 1.387 . S
H238 C245 0.950 . S
C239 C237 1.387 . S
C239 C241 1.390 . S
C239 H243 0.950 . S
H240 C236 0.950 . S
C241 C239 1.390 . S
C241 C242 1.387 . S
C241 H244 0.950 . S
C242 C241 1.387 . S
C242 C245 1.387 . S
H243 C239 0.950 . S
H244 C241 0.950 . S
C245 C236 1.390 . S
C245 H238 0.950 . S
C245 C242 1.387 . S
C246 C247 1.387 . S
C246 H250 0.950 . S
C246 C255 1.390 . S
C247 C246 1.387 . S
C247 C249 1.387 . S
H248 C255 0.950 . S
C249 C247 1.387 . S
C249 C251 1.390 . S
C249 H253 0.950 . S
H250 C246 0.950 . S
C251 C249 1.390 . S
C251 C252 1.387 . S
C251 H254 0.950 . S
C252 C251 1.387 . S
C252 C255 1.387 . S
H253 C249 0.950 . S
H254 C251 0.950 . S
C255 C246 1.390 . S
C255 H248 0.950 . S
C255 C252 1.387 . S
C256 C257 1.387 . S
C256 H260 0.950 . S
C256 C265 1.390 . S
C257 C256 1.387 . S
C257 C259 1.387 . S
H258 C265 0.950 . S
C259 C257 1.387 . S
C259 C261 1.390 . S
C259 H263 0.950 . S
H260 C256 0.950 . S
C261 C259 1.390 . S
C261 C262 1.387 . S
C261 H264 0.950 . S
C262 C261 1.387 . S
C262 C265 1.387 . S
H263 C259 0.950 . S
H264 C261 0.950 . S
C265 C256 1.390 . S
C265 H258 0.950 . S
C265 C262 1.387 . S
C266 C267 1.387 . S
C266 H270 0.950 . S
C266 C275 1.390 . S
C267 C266 1.387 . S
C267 C269 1.387 . S
H268 C275 0.950 . S
C269 C267 1.387 . S
C269 C271 1.390 . S
C269 H273 0.950 . S
H270 C266 0.950 . S
C271 C269 1.390 . S
C271 C272 1.387 . S
C271 H274 0.950 . S
C272 C271 1.387 . S
C272 C275 1.387 . S
H273 C269 0.950 . S
H274 C271 0.950 . S
C275 C266 1.390 . S
C275 H268 0.950 . S
C275 C272 1.387 . S
C276 C277 1.387 . S
C276 H280 0.950 . S
C276 C285 1.390 . S
C277 C276 1.387 . S
C277 C279 1.387 . S
H278 C285 0.950 . S
C279 C277 1.387 . S
C279 C281 1.390 1_565 S
C279 H283 0.950 . S
H280 C276 0.950 . S
C281 C279 1.390 1_545 S
C281 C282 1.387 . S
C281 H284 0.950 . S
C282 C281 1.387 . S
C282 C285 1.387 1_545 S
H283 C279 0.950 . S
H284 C281 0.950 . S
C285 C276 1.390 . S
C285 H278 0.950 . S
C285 C282 1.387 1_565 S
C286 C287 1.387 . S
C286 H290 0.950 . S
C286 C295 1.390 . S
C287 C286 1.387 . S
C287 C289 1.387 . S
H288 C295 0.950 . S
C289 C287 1.387 . S
C289 C291 1.390 . S
C289 H293 0.950 . S
H290 C286 0.950 . S
C291 C289 1.390 . S
C291 C292 1.387 . S
C291 H294 0.950 . S
C292 C291 1.387 . S
C292 C295 1.387 . S
H293 C289 0.950 . S
H294 C291 0.950 . S
C295 C286 1.390 . S
C295 H288 0.950 . S
C295 C292 1.387 . S
C296 C297 1.387 . S
C296 H300 0.950 . S
C296 C305 1.390 . S
C297 C296 1.387 . S
C297 C299 1.387 . S
H298 C305 0.950 . S
C299 C297 1.387 . S
C299 C301 1.390 . S
C299 H303 0.950 . S
H300 C296 0.950 . S
C301 C299 1.390 . S
C301 C302 1.387 . S
C301 H304 0.950 . S
C302 C301 1.387 . S
C302 C305 1.387 . S
H303 C299 0.950 . S
H304 C301 0.950 . S
C305 C296 1.390 . S
C305 H298 0.950 . S
C305 C302 1.387 . S
C306 C307 1.387 . S
C306 H310 0.950 . S
C306 C315 1.390 . S
C307 C306 1.387 . S
C307 C309 1.387 . S
H308 C315 0.950 . S
C309 C307 1.387 . S
C309 C311 1.390 . S
C309 H313 0.950 . S
H310 C306 0.950 . S
C311 C309 1.390 . S
C311 C312 1.387 . S
C311 H314 0.950 . S
C312 C311 1.387 . S
C312 C315 1.387 . S
H313 C309 0.950 . S
H314 C311 0.950 . S
C315 C306 1.390 . S
C315 H308 0.950 . S
C315 C312 1.387 . S
C316 C317 1.387 . S
C316 H320 0.950 . S
C316 C325 1.390 . S
C317 C316 1.387 . S
C317 C319 1.387 . S
H318 C325 0.950 . S
C319 C317 1.387 . S
C319 C321 1.390 . S
C319 H323 0.950 . S
H320 C316 0.950 . S
C321 C319 1.390 . S
C321 C322 1.387 . S
C321 H324 0.950 . S
C322 C321 1.387 . S
C322 C325 1.387 . S
H323 C319 0.950 . S
H324 C321 0.950 . S
C325 C316 1.390 . S
C325 H318 0.950 . S
C325 C322 1.387 . S
C326 C327 1.387 . S
C326 H330 0.950 . S
C326 C335 1.390 . S
C327 C326 1.387 . S
C327 C329 1.387 . S
H328 C335 0.950 . S
C329 C327 1.387 . S
C329 C331 1.390 . S
C329 H333 0.950 . S
H330 C326 0.950 . S
C331 C329 1.390 . S
C331 C332 1.387 . S
C331 H334 0.950 . S
C332 C331 1.387 . S
C332 C335 1.387 . S
H333 C329 0.950 . S
H334 C331 0.950 . S
C335 C326 1.390 . S
C335 H328 0.950 . S
C335 C332 1.387 . S
C336 C337 1.387 . S
C336 H340 0.950 . S
C336 C345 1.390 . S
C337 C336 1.387 . S
C337 C339 1.387 . S
H338 C345 0.950 . S
C339 C337 1.387 . S
C339 C341 1.390 . S
C339 H343 0.950 . S
H340 C336 0.950 . S
C341 C339 1.390 . S
C341 C342 1.387 . S
C341 H344 0.950 . S
C342 C341 1.387 . S
C342 C345 1.387 . S
H343 C339 0.950 . S
H344 C341 0.950 . S
C345 C336 1.390 . S
C345 H338 0.950 . S
C345 C342 1.387 . S
C346 C347 1.387 . S
C346 H350 0.950 . S
C346 C355 1.390 . S
C347 C346 1.387 . S
C347 C349 1.387 . S
H348 C355 0.950 . S
C349 C347 1.387 . S
C349 C351 1.390 . S
C349 H353 0.950 . S
H350 C346 0.950 . S
C351 C349 1.390 . S
C351 C352 1.387 . S
C351 H354 0.950 . S
C352 C351 1.387 . S
C352 C355 1.387 . S
H353 C349 0.950 . S
H354 C351 0.950 . S
C355 C346 1.390 . S
C355 H348 0.950 . S
C355 C352 1.387 . S
C356 C357 1.387 . S
C356 H360 0.950 . S
C356 C365 1.390 . S
C357 C356 1.387 . S
C357 C359 1.387 . S
H358 C365 0.950 . S
C359 C357 1.387 . S
C359 C361 1.390 . S
C359 H363 0.950 . S
H360 C356 0.950 . S
C361 C359 1.390 . S
C361 C362 1.387 . S
C361 H364 0.950 . S
C362 C361 1.387 . S
C362 C365 1.387 . S
H363 C359 0.950 . S
H364 C361 0.950 . S
C365 C356 1.390 . S
C365 H358 0.950 . S
C365 C362 1.387 . S
C366 C367 1.387 . S
C366 H370 0.950 . S
C366 C375 1.390 . S
C367 C366 1.387 . S
C367 C369 1.387 . S
H368 C375 0.950 . S
C369 C367 1.387 . S
C369 C371 1.390 . S
C369 H373 0.950 . S
H370 C366 0.950 . S
C371 C369 1.390 . S
C371 C372 1.387 . S
C371 H374 0.950 . S
C372 C371 1.387 . S
C372 C375 1.387 . S
H373 C369 0.950 . S
H374 C371 0.950 . S
C375 C366 1.390 . S
C375 H368 0.950 . S
C375 C372 1.387 . S
C376 C377 1.387 . S
C376 H380 0.950 . S
C376 C385 1.390 . S
C377 C376 1.387 . S
C377 C379 1.387 . S
H378 C385 0.950 . S
C379 C377 1.387 . S
C379 C381 1.390 . S
C379 H383 0.950 . S
H380 C376 0.950 . S
C381 C379 1.390 . S
C381 C382 1.387 . S
C381 H384 0.950 . S
C382 C381 1.387 . S
C382 C385 1.387 . S
H383 C379 0.950 . S
H384 C381 0.950 . S
C385 C376 1.390 . S
C385 H378 0.950 . S
C385 C382 1.387 . S
C386 C387 1.387 . S
C386 H390 0.950 . S
C386 C395 1.390 . S
C387 C386 1.387 . S
C387 C389 1.387 . S
H388 C395 0.950 . S
C389 C387 1.387 . S
C389 C391 1.390 . S
C389 H393 0.950 . S
H390 C386 0.950 . S
C391 C389 1.390 . S
C391 C392 1.387 . S
C391 H394 0.950 . S
C392 C391 1.387 . S
C392 C395 1.387 . S
H393 C389 0.950 . S
H394 C391 0.950 . S
C395 C386 1.390 . S
C395 H388 0.950 . S
C395 C392 1.387 . S
C396 C397 1.387 . S
C396 H400 0.950 . S
C396 C405 1.390 . S
C397 C396 1.387 . S
C397 C399 1.387 . S
H398 C405 0.950 . S
C399 C397 1.387 . S
C399 C401 1.390 . S
C399 H403 0.950 . S
H400 C396 0.950 . S
C401 C399 1.390 . S
C401 C402 1.387 . S
C401 H404 0.950 . S
C402 C401 1.387 . S
C402 C405 1.387 . S
H403 C399 0.950 . S
H404 C401 0.950 . S
C405 C396 1.390 . S
C405 H398 0.950 . S
C405 C402 1.387 . S
C406 C407 1.387 . S
C406 H410 0.950 . S
C406 C415 1.390 . S
C407 C406 1.387 . S
C407 C409 1.387 . S
H408 C415 0.950 . S
C409 C407 1.387 . S
C409 C411 1.390 . S
C409 H413 0.950 . S
H410 C406 0.950 . S
C411 C409 1.390 . S
C411 C412 1.387 . S
C411 H414 0.950 . S
C412 C411 1.387 . S
C412 C415 1.387 . S
H413 C409 0.950 . S
H414 C411 0.950 . S
C415 C406 1.390 . S
C415 H408 0.950 . S
C415 C412 1.387 . S
C416 C417 1.387 . S
C416 H420 0.950 . S
C416 C425 1.390 1_565 S
C417 C416 1.387 . S
C417 C419 1.387 . S
H418 C425 0.950 . S
C419 C417 1.387 . S
C419 C421 1.390 1_565 S
C419 H423 0.950 . S
H420 C416 0.950 . S
C421 C419 1.390 1_545 S
C421 C422 1.387 . S
C421 H424 0.950 . S
C422 C421 1.387 . S
C422 C425 1.387 . S
H423 C419 0.950 . S
H424 C421 0.950 . S
C425 C416 1.390 1_545 S
C425 H418 0.950 . S
C425 C422 1.387 . S
C426 C427 1.387 . S
C426 H430 0.950 . S
C426 C435 1.390 . S
C427 C426 1.387 . S
C427 C429 1.387 . S
H428 C435 0.950 . S
C429 C427 1.387 . S
C429 C431 1.390 . S
C429 H433 0.950 . S
H430 C426 0.950 . S
C431 C429 1.390 . S
C431 C432 1.387 . S
C431 H434 0.950 . S
C432 C431 1.387 . S
C432 C435 1.387 . S
H433 C429 0.950 . S
H434 C431 0.950 . S
C435 C426 1.390 . S
C435 H428 0.950 . S
C435 C432 1.387 . S
C202 C95 1.500 . S
C197 C5 1.393 . S
C212 C114 1.478 . S
C207 C16 1.298 . S
C222 C104 1.605 1_655 S
C217 C30 1.670 . S
C232 C120 1.641 . S
C227 C40 1.616 . S
C242 C131 1.414 . S
C237 C8 1.480 . S
C252 C156 1.409 . S
C247 C18 1.413 . S
C257 C29 1.700 . S
C262 C174 1.645 . S
C272 C194 1.516 . S
C267 C38 1.272 . S
C282 C140 1.402 . S
C277 C19 1.453 . S
C287 C27 1.423 . S
C292 C150 1.512 . S
C302 C168 1.546 . S
C297 C41 1.598 . S
C312 C185 1.455 . S
C307 C7 1.506 . S
C317 C52 1.656 . S
C322 C113 1.628 . S
C332 C96 1.573 . S
C327 C62 1.590 . S
C337 C74 1.527 . S
C342 C122 1.440 . S
C347 C82 1.294 . S
C352 C102 1.418 . S
C362 C176 1.735 . S
C357 C51 1.711 . S
C372 C186 1.529 . S
C367 C60 1.337 . S
C382 C132 1.436 . S
C377 C71 1.206 . S
C387 C84 1.452 . S
C392 C149 1.416 . S
C402 C167 1.583 . S
C397 C63 1.696 . S
C412 C192 1.417 . S
C407 C73 1.441 . S
C422 C138 1.439 . S
C417 C85 1.492 . S
C427 C49 1.318 . S
C432 C158 1.564 . S
