# Generated by pormake.
# Topology eea, (3,6)-cn, num edge types: 1
# Building blocks:
#     Node 0, Type 0, BuildingBlock: ESEHIV_clean_linker_0, # of connection points: 3
#     Node 1, Type 0, BuildingBlock: ESEHIV_clean_linker_0, # of connection points: 3
#     Node 2, Type 0, BuildingBlock: ESEHIV_clean_linker_0, # of connection points: 3
#     Node 3, Type 0, BuildingBlock: ESEHIV_clean_linker_0, # of connection points: 3
#     Node 4, Type 0, BuildingBlock: ESEHIV_clean_linker_0, # of connection points: 3
#     Node 5, Type 0, BuildingBlock: ESEHIV_clean_linker_0, # of connection points: 3
#     Node 6, Type 0, BuildingBlock: ESEHIV_clean_linker_0, # of connection points: 3
#     Node 7, Type 0, BuildingBlock: ESEHIV_clean_linker_0, # of connection points: 3
#     Node 8, Type 0, BuildingBlock: ESEHIV_clean_linker_0, # of connection points: 3
#     Node 9, Type 0, BuildingBlock: ESEHIV_clean_linker_0, # of connection points: 3
#     Node 10, Type 0, BuildingBlock: ESEHIV_clean_linker_0, # of connection points: 3
#     Node 11, Type 0, BuildingBlock: ESEHIV_clean_linker_0, # of connection points: 3
#     Node 12, Type 0, BuildingBlock: ESEHIV_clean_linker_0, # of connection points: 3
#     Node 13, Type 0, BuildingBlock: ESEHIV_clean_linker_0, # of connection points: 3
#     Node 14, Type 0, BuildingBlock: ESEHIV_clean_linker_0, # of connection points: 3
#     Node 15, Type 0, BuildingBlock: ESEHIV_clean_linker_0, # of connection points: 3
#     Node 16, Type 0, BuildingBlock: ESEHIV_clean_linker_0, # of connection points: 3
#     Node 17, Type 0, BuildingBlock: ESEHIV_clean_linker_0, # of connection points: 3
#     Node 18, Type 1, BuildingBlock: NUHQIS_clean_sbu_0, # of connection points: 6
#     Node 19, Type 1, BuildingBlock: NUHQIS_clean_sbu_0, # of connection points: 6
#     Node 20, Type 1, BuildingBlock: NUHQIS_clean_sbu_0, # of connection points: 6
#     Node 21, Type 1, BuildingBlock: NUHQIS_clean_sbu_0, # of connection points: 6
#     Node 22, Type 1, BuildingBlock: NUHQIS_clean_sbu_0, # of connection points: 6
#     Node 23, Type 1, BuildingBlock: NUHQIS_clean_sbu_0, # of connection points: 6
#     Node 24, Type 1, BuildingBlock: NUHQIS_clean_sbu_0, # of connection points: 6
#     Node 25, Type 1, BuildingBlock: NUHQIS_clean_sbu_0, # of connection points: 6
#     Node 26, Type 1, BuildingBlock: NUHQIS_clean_sbu_0, # of connection points: 6
#     Edge 27, Type (0, 1), BuildingBlock: MIFKUJ_clean_linker_0, # of connection points: 2
#     Edge 28, Type (0, 1), BuildingBlock: MIFKUJ_clean_linker_0, # of connection points: 2
#     Edge 29, Type (0, 1), BuildingBlock: MIFKUJ_clean_linker_0, # of connection points: 2
#     Edge 30, Type (0, 1), BuildingBlock: MIFKUJ_clean_linker_0, # of connection points: 2
#     Edge 31, Type (0, 1), BuildingBlock: MIFKUJ_clean_linker_0, # of connection points: 2
#     Edge 32, Type (0, 1), BuildingBlock: MIFKUJ_clean_linker_0, # of connection points: 2
#     Edge 33, Type (0, 1), BuildingBlock: MIFKUJ_clean_linker_0, # of connection points: 2
#     Edge 34, Type (0, 1), BuildingBlock: MIFKUJ_clean_linker_0, # of connection points: 2
#     Edge 35, Type (0, 1), BuildingBlock: MIFKUJ_clean_linker_0, # of connection points: 2
#     Edge 36, Type (0, 1), BuildingBlock: MIFKUJ_clean_linker_0, # of connection points: 2
#     Edge 37, Type (0, 1), BuildingBlock: MIFKUJ_clean_linker_0, # of connection points: 2
#     Edge 38, Type (0, 1), BuildingBlock: MIFKUJ_clean_linker_0, # of connection points: 2
#     Edge 39, Type (0, 1), BuildingBlock: MIFKUJ_clean_linker_0, # of connection points: 2
#     Edge 40, Type (0, 1), BuildingBlock: MIFKUJ_clean_linker_0, # of connection points: 2
#     Edge 41, Type (0, 1), BuildingBlock: MIFKUJ_clean_linker_0, # of connection points: 2
#     Edge 42, Type (0, 1), BuildingBlock: MIFKUJ_clean_linker_0, # of connection points: 2
#     Edge 43, Type (0, 1), BuildingBlock: MIFKUJ_clean_linker_0, # of connection points: 2
#     Edge 44, Type (0, 1), BuildingBlock: MIFKUJ_clean_linker_0, # of connection points: 2
#     Edge 45, Type (0, 1), BuildingBlock: MIFKUJ_clean_linker_0, # of connection points: 2
#     Edge 46, Type (0, 1), BuildingBlock: MIFKUJ_clean_linker_0, # of connection points: 2
#     Edge 47, Type (0, 1), BuildingBlock: MIFKUJ_clean_linker_0, # of connection points: 2
#     Edge 48, Type (0, 1), BuildingBlock: MIFKUJ_clean_linker_0, # of connection points: 2
#     Edge 49, Type (0, 1), BuildingBlock: MIFKUJ_clean_linker_0, # of connection points: 2
#     Edge 50, Type (0, 1), BuildingBlock: MIFKUJ_clean_linker_0, # of connection points: 2
#     Edge 51, Type (0, 1), BuildingBlock: MIFKUJ_clean_linker_0, # of connection points: 2
#     Edge 52, Type (0, 1), BuildingBlock: MIFKUJ_clean_linker_0, # of connection points: 2
#     Edge 53, Type (0, 1), BuildingBlock: MIFKUJ_clean_linker_0, # of connection points: 2
#     Edge 54, Type (0, 1), BuildingBlock: MIFKUJ_clean_linker_0, # of connection points: 2
#     Edge 55, Type (0, 1), BuildingBlock: MIFKUJ_clean_linker_0, # of connection points: 2
#     Edge 56, Type (0, 1), BuildingBlock: MIFKUJ_clean_linker_0, # of connection points: 2
#     Edge 57, Type (0, 1), BuildingBlock: MIFKUJ_clean_linker_0, # of connection points: 2
#     Edge 58, Type (0, 1), BuildingBlock: MIFKUJ_clean_linker_0, # of connection points: 2
#     Edge 59, Type (0, 1), BuildingBlock: MIFKUJ_clean_linker_0, # of connection points: 2
#     Edge 60, Type (0, 1), BuildingBlock: MIFKUJ_clean_linker_0, # of connection points: 2
#     Edge 61, Type (0, 1), BuildingBlock: MIFKUJ_clean_linker_0, # of connection points: 2
#     Edge 62, Type (0, 1), BuildingBlock: MIFKUJ_clean_linker_0, # of connection points: 2
#     Edge 63, Type (0, 1), BuildingBlock: MIFKUJ_clean_linker_0, # of connection points: 2
#     Edge 64, Type (0, 1), BuildingBlock: MIFKUJ_clean_linker_0, # of connection points: 2
#     Edge 65, Type (0, 1), BuildingBlock: MIFKUJ_clean_linker_0, # of connection points: 2
#     Edge 66, Type (0, 1), BuildingBlock: MIFKUJ_clean_linker_0, # of connection points: 2
#     Edge 67, Type (0, 1), BuildingBlock: MIFKUJ_clean_linker_0, # of connection points: 2
#     Edge 68, Type (0, 1), BuildingBlock: MIFKUJ_clean_linker_0, # of connection points: 2
#     Edge 69, Type (0, 1), BuildingBlock: MIFKUJ_clean_linker_0, # of connection points: 2
#     Edge 70, Type (0, 1), BuildingBlock: MIFKUJ_clean_linker_0, # of connection points: 2
#     Edge 71, Type (0, 1), BuildingBlock: MIFKUJ_clean_linker_0, # of connection points: 2
#     Edge 72, Type (0, 1), BuildingBlock: MIFKUJ_clean_linker_0, # of connection points: 2
#     Edge 73, Type (0, 1), BuildingBlock: MIFKUJ_clean_linker_0, # of connection points: 2
#     Edge 74, Type (0, 1), BuildingBlock: MIFKUJ_clean_linker_0, # of connection points: 2
#     Edge 75, Type (0, 1), BuildingBlock: MIFKUJ_clean_linker_0, # of connection points: 2
#     Edge 76, Type (0, 1), BuildingBlock: MIFKUJ_clean_linker_0, # of connection points: 2
#     Edge 77, Type (0, 1), BuildingBlock: MIFKUJ_clean_linker_0, # of connection points: 2
#     Edge 78, Type (0, 1), BuildingBlock: MIFKUJ_clean_linker_0, # of connection points: 2
#     Edge 79, Type (0, 1), BuildingBlock: MIFKUJ_clean_linker_0, # of connection points: 2
#     Edge 80, Type (0, 1), BuildingBlock: MIFKUJ_clean_linker_0, # of connection points: 2
# Relax obj value: 0.035
# Max RMSD: 0.132
# Mean RMSD: 0.075
data_MOF--net-eea--node1-NUHQIS_clean_sbu_0--node2-ESEHIV_clean_linker_0--edge1-MIFKUJ_clean_linker_0
_symmetry_space_group_name_H-M    P1
_symmetry_Int_Tables_number       1
_symmetry_cell_setting            triclinic
loop_
_symmetry_equiv_pos_as_xyz
'x, y, z'
_cell_length_a     63.59344
_cell_length_b     63.843781
_cell_length_c     90.705434
_cell_angle_alpha  93.226364
_cell_angle_beta   93.646184
_cell_angle_gamma 119.69932
loop_
_atom_site_label
_atom_site_type_symbol
_atom_site_fract_x
_atom_site_fract_y
_atom_site_fract_z
_atom_type_partial_charge
H0 H 0.30212 0.18767 0.43479 0.0
H1 H 0.29882 0.11884 0.43371 0.0
H2 H 0.27678 0.14038 0.39419 0.0
C3 C 0.29827 0.17088 0.42864 0.0
C4 C 0.28879 0.16589 0.41366 0.0
C5 C 0.30235 0.15415 0.43585 0.0
C6 C 0.29703 0.13231 0.42788 0.0
C7 C 0.28776 0.12705 0.41281 0.0
C8 C 0.28418 0.14426 0.40573 0.0
H9 H 0.85108 0.10372 0.44522 0.0
H10 H 0.91674 0.17187 0.44459 0.0
H11 H 0.89018 0.11818 0.40672 0.0
C12 C 0.86627 0.11581 0.43944 0.0
C13 C 0.86828 0.10839 0.42501 0.0
C14 C 0.88371 0.13856 0.4466 0.0
C15 C 0.90339 0.15422 0.4391 0.0
C16 C 0.90607 0.14701 0.42468 0.0
C17 C 0.88833 0.12403 0.41776 0.0
H18 H 0.85111 0.75034 0.44795 0.0
H19 H 0.92187 0.75724 0.44939 0.0
H20 H 0.89414 0.77766 0.41158 0.0
C21 C 0.86749 0.75496 0.44269 0.0
C22 C 0.87044 0.76452 0.42891 0.0
C23 C 0.88588 0.75219 0.45008 0.0
C24 C 0.90757 0.75912 0.44358 0.0
C25 C 0.91081 0.76838 0.42965 0.0
C26 C 0.8921 0.77103 0.42243 0.0
H27 H 0.07513 0.23705 0.57319 0.0
H28 H 0.14539 0.24277 0.57415 0.0
H29 H 0.10163 0.21371 0.60999 0.0
C30 C 0.08934 0.23481 0.5788 0.0
C31 C 0.08602 0.22525 0.59264 0.0
C32 C 0.11051 0.24072 0.57191 0.0
C33 C 0.12859 0.23722 0.57911 0.0
C34 C 0.12551 0.22714 0.59273 0.0
C35 C 0.10416 0.22132 0.59944 0.0
H36 H 0.7115 0.87692 0.5873 0.0
H37 H 0.71833 0.81325 0.58299 0.0
H38 H 0.74634 0.86098 0.62356 0.0
C39 C 0.71674 0.86484 0.59217 0.0
C40 C 0.72906 0.87124 0.60652 0.0
C41 C 0.71276 0.84395 0.58363 0.0
C42 C 0.72095 0.82915 0.58966 0.0
C43 C 0.73325 0.83524 0.60402 0.0
C44 C 0.73703 0.85622 0.61242 0.0
H45 H 0.08059 0.82171 0.57516 0.0
H46 H 0.14991 0.88708 0.57674 0.0
H47 H 0.10989 0.8715 0.61488 0.0
C48 C 0.09507 0.83824 0.58126 0.0
C49 C 0.09281 0.84461 0.59595 0.0
C50 C 0.11548 0.85369 0.57418 0.0
C51 C 0.13387 0.87542 0.58203 0.0
C52 C 0.13199 0.88204 0.59669 0.0
C53 C 0.11147 0.86646 0.60357 0.0
H54 H 0.94609 0.51361 0.77145 0.0
H55 H 0.94311 0.44494 0.77283 0.0
H56 H 0.91284 0.45991 0.73384 0.0
C57 C 0.94114 0.49591 0.76615 0.0
C58 C 0.92851 0.48838 0.75187 0.0
C59 C 0.94672 0.48042 0.77378 0.0
C60 C 0.93987 0.45741 0.76679 0.0
C61 C 0.92767 0.44981 0.75239 0.0
C62 C 0.92211 0.46547 0.745 0.0
H63 H 0.52029 0.44329 0.77468 0.0
H64 H 0.58819 0.51039 0.77829 0.0
H65 H 0.56267 0.46295 0.73756 0.0
C66 C 0.5363 0.45597 0.76974 0.0
C67 C 0.53942 0.45042 0.75514 0.0
C68 C 0.55366 0.47762 0.77811 0.0
C69 C 0.57448 0.49394 0.77173 0.0
C70 C 0.57811 0.48865 0.75715 0.0
C71 C 0.56038 0.46689 0.74892 0.0
H72 H 0.52456 0.09613 0.78684 0.0
H73 H 0.58932 0.09101 0.786 0.0
H74 H 0.56348 0.11288 0.74816 0.0
C75 C 0.53964 0.09785 0.78106 0.0
C76 C 0.54175 0.10495 0.76658 0.0
C77 C 0.55665 0.09273 0.78815 0.0
C78 C 0.57622 0.09502 0.7806 0.0
C79 C 0.579 0.10246 0.76618 0.0
C80 C 0.56158 0.10728 0.75927 0.0
H81 H 0.74554 0.57561 0.91059 0.0
H82 H 0.8133 0.57589 0.91199 0.0
H83 H 0.76852 0.54985 0.94772 0.0
C84 C 0.75856 0.57163 0.91615 0.0
C85 C 0.7542 0.5618 0.9299 0.0
C86 C 0.78008 0.57717 0.90978 0.0
C87 C 0.79714 0.57246 0.91717 0.0
C88 C 0.79324 0.56269 0.93088 0.0
C89 C 0.7717 0.55743 0.93716 0.0
H90 H 0.36874 0.20489 0.9131 0.0
H91 H 0.37481 0.14133 0.91773 0.0
H92 H 0.40869 0.20083 0.95189 0.0
C93 C 0.37512 0.19494 0.9195 0.0
C94 C 0.38884 0.20552 0.93336 0.0
C95 C 0.37019 0.17188 0.91367 0.0
C96 C 0.37856 0.15915 0.92207 0.0
C97 C 0.39248 0.16955 0.93582 0.0
C98 C 0.39757 0.19269 0.94137 0.0
H99 H 0.73966 0.15978 0.9062 0.0
H100 H 0.81013 0.22355 0.90789 0.0
H101 H 0.77111 0.20849 0.94639 0.0
C102 C 0.75457 0.17586 0.91241 0.0
C103 C 0.75287 0.18196 0.92729 0.0
C104 C 0.77509 0.19088 0.90529 0.0
C105 C 0.79397 0.2122 0.91317 0.0
C106 C 0.79252 0.21887 0.9279 0.0
C107 C 0.77209 0.2035 0.93495 0.0
H108 H 0.61211 0.84493 0.10395 0.0
H109 H 0.61711 0.78054 0.10598 0.0
H110 H 0.58337 0.79053 0.06647 0.0
C111 C 0.60884 0.82778 0.09865 0.0
C112 C 0.59738 0.81974 0.08407 0.0
C113 C 0.61602 0.81373 0.10653 0.0
C114 C 0.61192 0.79159 0.09976 0.0
C115 C 0.60016 0.78309 0.08531 0.0
C116 C 0.59321 0.7974 0.07745 0.0
H117 H 0.18385 0.78134 0.11133 0.0
H118 H 0.24919 0.84973 0.11003 0.0
H119 H 0.22475 0.7939 0.07371 0.0
C120 C 0.19905 0.79337 0.10554 0.0
C121 C 0.20184 0.78513 0.09152 0.0
C122 C 0.21609 0.81658 0.11239 0.0
C123 C 0.23631 0.83158 0.10502 0.0
C124 C 0.23976 0.82353 0.09109 0.0
C125 C 0.22232 0.80029 0.08443 0.0
H126 H 0.18949 0.42421 0.12059 0.0
H127 H 0.2547 0.41996 0.1184 0.0
H128 H 0.22964 0.44643 0.08263 0.0
C129 C 0.20499 0.42712 0.11481 0.0
C130 C 0.20752 0.43593 0.10082 0.0
C131 C 0.22177 0.42105 0.12113 0.0
C132 C 0.24152 0.42427 0.11343 0.0
C133 C 0.24479 0.43392 0.09964 0.0
C134 C 0.22751 0.4394 0.09337 0.0
H135 H 0.41181 0.90873 0.2388 0.0
H136 H 0.47931 0.90842 0.23929 0.0
H137 H 0.43543 0.88274 0.27548 0.0
C138 C 0.42506 0.90491 0.24422 0.0
C139 C 0.42102 0.89509 0.25796 0.0
C140 C 0.44607 0.90978 0.23741 0.0
C141 C 0.46314 0.90477 0.24452 0.0
C142 C 0.45953 0.89504 0.25826 0.0
C143 C 0.4384 0.89028 0.2649 0.0
H144 H 0.04278 0.54607 0.25615 0.0
H145 H 0.04461 0.47971 0.25668 0.0
H146 H 0.06713 0.52863 0.29647 0.0
C147 C 0.04579 0.53348 0.26222 0.0
C148 C 0.05513 0.53981 0.27724 0.0
C149 C 0.0418 0.51176 0.25472 0.0
C150 C 0.04719 0.49626 0.26246 0.0
C151 C 0.05668 0.50239 0.27747 0.0
C152 C 0.0602 0.524 0.28482 0.0
H153 H 0.4099 0.47767 0.24266 0.0
H154 H 0.47966 0.5422 0.2439 0.0
H155 H 0.43699 0.53099 0.28068 0.0
C156 C 0.42392 0.49481 0.24842 0.0
C157 C 0.42113 0.50231 0.26269 0.0
C158 C 0.44512 0.5091 0.24171 0.0
C159 C 0.46336 0.53118 0.24917 0.0
C160 C 0.46055 0.53936 0.26318 0.0
C161 C 0.4395 0.52466 0.26995 0.0
Tb162 Tb 0.48955 0.98471 0.99595 0.0
Eu163 Eu 0.51155 0.01726 0.02893 0.0
C164 C 0.51383 0.96921 0.02113 0.0
C165 C 0.45802 0.96953 0.02269 0.0
C166 C 0.47966 0.97399 0.95534 0.0
C167 C 0.47942 0.96828 0.92863 0.0
C168 C 0.47362 0.95861 0.94224 0.0
C169 C 0.49127 -0.00085 0.95468 0.0
C170 C 0.49713 0.00884 0.94111 0.0
C171 C 0.49148 0.99354 0.92792 0.0
C172 C 0.47539 0.96401 0.96978 0.0
O173 O 0.47401 0.00813 0.99852 0.0
O174 O 0.50448 0.04007 0.01371 0.0
O175 O 0.54333 0.03013 0.0153 0.0
O176 O 0.52164 0.01822 0.99216 0.0
C177 C 0.48551 0.03106 1.00377 0.0
O178 O 0.50819 0.03877 0.04722 0.0
O179 O 0.53796 0.03131 0.04861 0.0
O180 O 0.50955 0.98165 0.03125 0.0
O181 O 0.51167 0.9717 1.00694 0.0
O182 O 0.46403 0.96179 0.0108 0.0
O183 O 0.47148 0.99164 0.02931 0.0
C184 C 0.54218 0.03057 1.00081 0.0
O185 O 0.49475 0.96697 0.97755 0.0
O186 O 0.46221 0.96934 0.97792 0.0
C187 C 0.51924 0.03014 0.07032 0.0
C188 C 0.50629 0.01217 0.09804 0.0
C189 C 0.52069 0.03725 0.09705 0.0
C190 C 0.52714 0.04615 0.08329 0.0
C191 C 0.50471 0.00515 0.07121 0.0
C192 C 0.49832 0.99624 0.08493 0.0
C193 C 0.52576 0.0393 0.0558 0.0
H194 H 0.47454 0.95598 0.91867 0.0
H195 H 0.46474 0.93916 0.94257 0.0
H196 H 0.49623 0.01134 0.96472 0.0
H197 H 0.50673 0.02835 0.94102 0.0
H198 H 0.5273 0.04996 0.10695 0.0
H199 H 0.53832 0.0655 0.08279 0.0
H200 H 0.49828 0.99252 0.06128 0.0
H201 H 0.48692 0.97688 0.08525 0.0
Tb202 Tb 0.01679 0.5045 0.99894 0.0
Eu203 Eu 0.98501 0.49064 0.02755 0.0
C204 C 0.03053 0.5434 0.02576 0.0
C205 C 0.034 0.48913 0.02777 0.0
C206 C 0.03434 0.51343 0.96027 0.0
C207 C 0.03211 0.53322 0.93854 0.0
C208 C 0.0375 0.53418 0.95382 0.0
C209 C 0.0261 0.49179 0.95106 0.0
C210 C 0.02081 0.49086 0.93578 0.0
C211 C 0.02371 0.51155 0.92937 0.0
C212 C 0.04018 0.51464 0.97645 0.0
O213 O 0.98331 0.47087 0.99154 0.0
O214 O 0.97652 0.45614 0.01413 0.0
O215 O 0.9609 0.4918 0.00892 0.0
O216 O 0.99111 0.51766 0.99559 0.0
C217 C 0.97308 0.45263 0.9996 0.0
O218 O 0.96574 0.46438 0.04301 0.0
O219 O 0.96606 0.4985 0.04436 0.0
O220 O 0.00819 0.53138 0.02939 0.0
O221 O 0.03875 0.53342 0.01643 0.0
O222 O 0.0307 0.48653 0.01316 0.0
O223 O 0.02134 0.49566 0.03573 0.0
C224 C 0.96844 0.50717 0.99885 0.0
O225 O 0.03763 0.53035 0.98483 0.0
O226 O 0.03206 0.49408 0.98222 0.0
C227 C 0.96633 0.48141 0.06663 0.0
C228 C 0.97747 0.48427 0.09742 0.0
C229 C 0.9534 0.47583 0.09135 0.0
C230 C 0.94788 0.47438 0.07605 0.0
C231 C 0.99043 0.49013 0.0726 0.0
C232 C 0.99596 0.49152 0.08789 0.0
C233 C 0.96022 0.47865 0.05055 0.0
H234 H 0.03484 0.54953 0.93388 0.0
H235 H 0.04417 0.55122 0.96058 0.0
H236 H 0.02366 0.47552 0.95564 0.0
H237 H 0.01414 0.47385 0.929 0.0
H238 H 0.93875 0.46988 0.0984 0.0
H239 H 0.92918 0.46748 0.07155 0.0
H240 H 0.00488 0.49563 0.06543 0.0
H241 H 0.01471 0.49839 0.09226 0.0
Tb242 Tb 0.50126 0.48797 0.0231 0.0
Eu243 Eu 0.48276 0.50233 0.99237 0.0
C244 C 0.47553 0.44926 0.99559 0.0
C245 C 0.53308 0.50267 0.99587 0.0
C246 C 0.50975 0.48144 0.06312 0.0
C247 C 0.50499 0.46722 0.08762 0.0
C248 C 0.50996 0.4654 0.07296 0.0
C249 C 0.50448 0.49939 0.06811 0.0
C250 C 0.49969 0.50135 0.08281 0.0
C251 C 0.49979 0.48523 0.09274 0.0
C252 C 0.51446 0.47886 0.04763 0.0
O253 O 0.50152 0.52162 0.02871 0.0
O254 O 0.51029 0.53639 1.00629 0.0
O255 O 0.45718 0.50009 0.00906 0.0
O256 O 0.46219 0.47373 0.02305 0.0
C257 C 0.51069 0.53995 0.02067 0.0
O258 O 0.48987 0.52874 0.97642 0.0
O259 O 0.45603 0.49454 0.97346 0.0
O260 O 0.46622 0.46186 0.9901 0.0
O261 O 0.49289 0.45817 1.00668 0.0
O262 O 0.53287 0.50434 0.01041 0.0
O263 O 0.51372 0.49704 0.98682 0.0
C264 C 0.44963 0.48401 0.01875 0.0
O265 O 0.49579 0.46295 0.03863 0.0
O266 O 0.52721 0.49891 0.04162 0.0
C267 C 0.47493 0.5106 0.95213 0.0
C268 C 0.48661 0.50635 0.92308 0.0
C269 C 0.47438 0.51907 0.92641 0.0
C270 C 0.46862 0.5212 0.94085 0.0
C271 C 0.48684 0.49767 0.94885 0.0
C272 C 0.49266 0.49557 0.93446 0.0
C273 C 0.47045 0.51414 0.96749 0.0
H274 H 0.50481 0.45424 0.09487 0.0
H275 H 0.51377 0.4513 0.06926 0.0
H276 H 0.50405 0.51188 0.06065 0.0
H277 H 0.49603 0.51559 0.0864 0.0
H278 H 0.46921 0.52733 0.91786 0.0
H279 H 0.45949 0.53132 0.94324 0.0
H280 H 0.49201 0.48952 0.95748 0.0
H281 H 0.5024 0.48598 0.93235 0.0
Tb282 Tb 0.15505 0.3116 0.329 0.0
Eu283 Eu 0.17529 0.34317 0.36212 0.0
C284 C 0.18095 0.29775 0.35413 0.0
C285 C 0.12274 0.29447 0.35542 0.0
C286 C 0.14762 0.29995 0.28799 0.0
C287 C 0.16356 0.30022 0.26429 0.0
C288 C 0.15767 0.2908 0.27794 0.0
C289 C 0.14323 0.31854 0.28408 0.0
C290 C 0.14888 0.3278 0.27034 0.0
C291 C 0.15933 0.31892 0.2603 0.0
C292 C 0.14345 0.29097 0.3028 0.0
O293 O 0.13759 0.33338 0.33108 0.0
O294 O 0.16604 0.36515 0.3474 0.0
O295 O 0.20714 0.35649 0.34848 0.0
O296 O 0.18506 0.34703 0.32575 0.0
C297 C 0.14739 0.3558 0.33716 0.0
O298 O 0.17126 0.36404 0.38051 0.0
O299 O 0.20169 0.35758 0.38181 0.0
O300 O 0.17414 0.30792 0.36421 0.0
O301 O 0.17973 0.30159 0.34012 0.0
O302 O 0.12932 0.28757 0.34344 0.0
O303 O 0.13562 0.31637 0.36239 0.0
C304 C 0.20584 0.35884 0.33421 0.0
O305 O 0.16293 0.29531 0.31106 0.0
O306 O 0.12885 0.29496 0.31042 0.0
C307 C 0.18284 0.35587 0.4036 0.0
C308 C 0.16919 0.33793 0.43123 0.0
C309 C 0.17933 0.36283 0.42971 0.0
C310 C 0.18614 0.37172 0.416 0.0
C311 C 0.17254 0.331 0.40504 0.0
C312 C 0.16588 0.32213 0.41874 0.0
C313 C 0.18909 0.365 0.38905 0.0
H314 H 0.17198 0.29319 0.25703 0.0
H315 H 0.16148 0.27667 0.28079 0.0
H316 H 0.13569 0.32612 0.29168 0.0
H317 H 0.145 0.34193 0.26762 0.0
H318 H 0.18225 0.37546 0.43916 0.0
H319 H 0.19389 0.39094 0.41505 0.0
H320 H 0.16948 0.3184 0.39553 0.0
H321 H 0.15779 0.30283 0.41949 0.0
Tb322 Tb 0.67599 0.83008 0.33138 0.0
Eu323 Eu 0.64316 0.81829 0.3594 0.0
C324 C 0.69144 0.86927 0.35824 0.0
C325 C 0.6903 0.81287 0.36046 0.0
C326 C 0.69368 0.8363 0.2933 0.0
C327 C 0.70549 0.84769 0.26886 0.0
C328 C 0.71164 0.84947 0.28411 0.0
C329 C 0.66947 0.82129 0.28717 0.0
C330 C 0.66332 0.81937 0.27192 0.0
C331 C 0.68125 0.8326 0.2626 0.0
C332 C 0.70017 0.83875 0.30931 0.0
O333 O 0.64213 0.79683 0.32386 0.0
O334 O 0.63287 0.78287 0.34656 0.0
O335 O 0.62052 0.8197 0.33988 0.0
O336 O 0.65215 0.84517 0.3274 0.0
C337 C 0.63067 0.77899 0.33205 0.0
O338 O 0.62394 0.79457 0.37608 0.0
O339 O 0.62265 0.82759 0.37422 0.0
O340 O 0.66888 0.85862 0.36154 0.0
O341 O 0.69882 0.85835 0.34899 0.0
O342 O 0.68786 0.81097 0.34586 0.0
O343 O 0.67787 0.81999 0.36826 0.0
C344 C 0.62918 0.83511 0.32989 0.0
O345 O 0.69757 0.85501 0.31702 0.0
O346 O 0.6915 0.81851 0.31546 0.0
C347 C 0.62366 0.81528 0.39802 0.0
C348 C 0.63604 0.82319 0.4289 0.0
C349 C 0.61156 0.80902 0.42292 0.0
C350 C 0.60543 0.80505 0.40756 0.0
C351 C 0.64802 0.83001 0.40392 0.0
C352 C 0.65417 0.83397 0.41926 0.0
C353 C 0.61749 0.80935 0.38197 0.0
H354 H 0.71964 0.85844 0.26202 0.0
H355 H 0.73036 0.8613 0.28873 0.0
H356 H 0.65534 0.81109 0.29417 0.0
H357 H 0.64456 0.80739 0.26744 0.0
H358 H 0.59726 0.80032 0.43008 0.0
H359 H 0.58656 0.79353 0.40311 0.0
H360 H 0.6623 0.83802 0.39665 0.0
H361 H 0.67314 0.84524 0.42357 0.0
Tb362 Tb 0.17733 0.82823 0.35843 0.0
Eu363 Eu 0.15353 0.8373 0.32774 0.0
C364 C 0.14467 0.78588 0.33458 0.0
C365 C 0.20549 0.84 0.32973 0.0
C366 C 0.18754 0.82333 0.39806 0.0
C367 C 0.18821 0.81424 0.42366 0.0
C368 C 0.19445 0.813 0.40924 0.0
C369 C 0.17438 0.83497 0.40142 0.0
C370 C 0.16825 0.83632 0.41582 0.0
C371 C 0.17502 0.82589 0.4271 0.0
C372 C 0.19303 0.82101 0.38277 0.0
O373 O 0.1797 0.86321 0.36235 0.0
O374 O 0.18344 0.87328 0.33853 0.0
O375 O 0.13048 0.83809 0.34537 0.0
O376 O 0.13964 0.8169 0.36184 0.0
C377 C 0.18687 0.87956 0.35286 0.0
O378 O 0.14855 0.86103 0.31317 0.0
O379 O 0.13126 0.82262 0.30645 0.0
O380 O 0.13349 0.7977 0.33092 0.0
O381 O 0.16605 0.7971 0.34239 0.0
O382 O 0.20707 0.84281 0.34434 0.0
O383 O 0.1851 0.83336 0.32142 0.0
C384 C 0.12596 0.82575 0.35703 0.0
O385 O 0.17497 0.80403 0.37386 0.0
O386 O 0.20425 0.84116 0.37659 0.0
C387 C 0.14606 0.84869 0.28782 0.0
C388 C 0.16216 0.8541 0.25928 0.0
C389 C 0.14062 0.85424 0.26189 0.0
C390 C 0.13262 0.85149 0.27604 0.0
C391 C 0.16788 0.84924 0.28541 0.0
C392 C 0.17585 0.85187 0.27127 0.0
C393 C 0.13667 0.84381 0.30237 0.0
H394 H 0.19382 0.80619 0.43213 0.0
H395 H 0.20449 0.80383 0.4068 0.0
H396 H 0.16862 0.84279 0.39286 0.0
H397 H 0.15778 0.8451 0.41806 0.0
H398 H 0.12983 0.85627 0.25297 0.0
H399 H 0.11574 0.85114 0.27774 0.0
H400 H 0.17846 0.84705 0.29438 0.0
H401 H 0.19232 0.85134 0.26966 0.0
Tb402 Tb 0.82792 0.66177 0.6655 0.0
Eu403 Eu 0.8532 0.69365 0.70241 0.0
C404 C 0.84677 0.63956 0.68894 0.0
C405 C 0.79585 0.64815 0.69282 0.0
C406 C 0.81821 0.66172 0.62424 0.0
C407 C 0.82771 0.65292 0.59987 0.0
C408 C 0.82095 0.64614 0.61398 0.0
C409 C 0.82226 0.68422 0.62004 0.0
C410 C 0.82894 0.69093 0.60592 0.0
C411 C 0.83175 0.67539 0.59568 0.0
C412 C 0.8098 0.65381 0.63888 0.0
O413 O 0.83409 0.69169 0.67941 0.0
O414 O 0.84523 0.72248 0.69411 0.0
O415 O 0.88232 0.70941 0.68642 0.0
O416 O 0.86662 0.684 0.66393 0.0
C417 C 0.83435 0.71197 0.68118 0.0
O418 O 0.85312 0.71039 0.72399 0.0
O419 O 0.88101 0.70102 0.72052 0.0
O420 O 0.85013 0.65646 0.69955 0.0
O421 O 0.84003 0.63888 0.67477 0.0
O422 O 0.79866 0.64221 0.67914 0.0
O423 O 0.81266 0.66681 0.70195 0.0
C424 C 0.88432 0.70222 0.67282 0.0
O425 O 0.81699 0.64005 0.64509 0.0
O426 O 0.81032 0.6701 0.64853 0.0
C427 C 0.86584 0.69618 0.74397 0.0
C428 C 0.85217 0.67381 0.7704 0.0
C429 C 0.86618 0.69921 0.77077 0.0
C430 C 0.87292 0.71027 0.75767 0.0
C431 C 0.85234 0.67082 0.7435 0.0
C432 C 0.8456 0.65971 0.75661 0.0
C433 C 0.87086 0.70811 0.73019 0.0
H434 H 0.8299 0.64062 0.59225 0.0
H435 H 0.8177 0.62859 0.61681 0.0
H436 H 0.81997 0.69655 0.62757 0.0
H437 H 0.83137 0.70808 0.60286 0.0
H438 H 0.87125 0.71063 0.78115 0.0
H439 H 0.88312 0.72987 0.75821 0.0
H440 H 0.84658 0.65964 0.73298 0.0
H441 H 0.83508 0.64012 0.75594 0.0
Tb442 Tb 0.34909 0.16953 0.66368 0.0
Eu443 Eu 0.31827 0.16084 0.69284 0.0
C444 C 0.36434 0.21111 0.68854 0.0
C445 C 0.36461 0.15325 0.69316 0.0
C446 C 0.36608 0.1745 0.6248 0.0
C447 C 0.35547 0.18967 0.60324 0.0
C448 C 0.36002 0.19076 0.61861 0.0
C449 C 0.36734 0.15708 0.61535 0.0
C450 C 0.3626 0.15586 0.59999 0.0
C451 C 0.35674 0.17223 0.59374 0.0
C452 C 0.37163 0.17568 0.64098 0.0
O453 O 0.31428 0.13649 0.6583 0.0
O454 O 0.30896 0.12451 0.68162 0.0
O455 O 0.29588 0.16507 0.67448 0.0
O456 O 0.32499 0.184 0.65849 0.0
C457 C 0.30463 0.11934 0.66717 0.0
O458 O 0.28622 0.1386 0.70417 0.0
O459 O 0.31382 0.17421 0.71429 0.0
O460 O 0.3416 0.20095 0.69141 0.0
O461 O 0.37198 0.19886 0.68068 0.0
O462 O 0.36343 0.15283 0.67858 0.0
O463 O 0.35123 0.15893 0.70108 0.0
C464 C 0.30352 0.17751 0.66303 0.0
O465 O 0.37187 0.19321 0.64925 0.0
O466 O 0.36093 0.15517 0.64684 0.0
C467 C 0.29314 0.14462 0.73034 0.0
C468 C 0.29322 0.1314 0.7594 0.0
C469 C 0.27247 0.13064 0.75234 0.0
C470 C 0.27249 0.13728 0.73792 0.0
C471 C 0.31344 0.14426 0.73702 0.0
C472 C 0.31352 0.13779 0.75146 0.0
C473 C 0.29393 0.15417 0.71594 0.0
H474 H 0.35135 0.20278 0.5988 0.0
H475 H 0.35896 0.20447 0.6256 0.0
H476 H 0.37201 0.14437 0.61986 0.0
H477 H 0.36337 0.14196 0.59303 0.0
H478 H 0.25643 0.12546 0.75807 0.0
H479 H 0.25663 0.13735 0.73286 0.0
H480 H 0.32955 0.14983 0.73128 0.0
H481 H 0.32992 0.13889 0.75661 0.0
Tb482 Tb 0.84146 0.15639 0.69246 0.0
Eu483 Eu 0.81898 0.16692 0.66188 0.0
C484 C 0.81438 0.11599 0.66573 0.0
C485 C 0.87218 0.17259 0.66553 0.0
C486 C 0.8529 0.15331 0.73215 0.0
C487 C 0.8508 0.1435 0.75767 0.0
C488 C 0.85695 0.14114 0.74338 0.0
C489 C 0.84303 0.1682 0.73539 0.0
C490 C 0.83691 0.1706 0.74965 0.0
C491 C 0.84047 0.15806 0.76091 0.0
C492 C 0.85667 0.14863 0.7168 0.0
O493 O 0.85655 0.19548 0.69321 0.0
O494 O 0.8259 0.19654 0.67925 0.0
O495 O 0.78764 0.1482 0.67575 0.0
O496 O 0.81006 0.15865 0.69852 0.0
C497 C 0.84488 0.20677 0.68921 0.0
O498 O 0.82127 0.19233 0.64612 0.0
O499 O 0.7927 0.15472 0.6422 0.0
O500 O 0.81965 0.13259 0.65655 0.0
O501 O 0.81687 0.12138 0.68014 0.0
O502 O 0.86529 0.15761 0.6759 0.0
O503 O 0.85929 0.18236 0.66096 0.0
C504 C 0.78919 0.15051 0.69035 0.0
O505 O 0.83704 0.13262 0.70858 0.0
O506 O 0.86944 0.16762 0.70988 0.0
C507 C 0.81096 0.17441 0.62158 0.0
C508 C 0.82504 0.17308 0.59286 0.0
C509 C 0.80912 0.18185 0.59571 0.0
C510 C 0.80212 0.18247 0.60997 0.0
C511 C 0.82697 0.16583 0.61883 0.0
C512 C 0.83392 0.16513 0.6046 0.0
C513 C 0.80412 0.17547 0.63663 0.0
H514 H 0.85398 0.13381 0.76615 0.0
H515 H 0.86436 0.1294 0.74101 0.0
H516 H 0.83945 0.17746 0.72678 0.0
H517 H 0.82865 0.18165 0.75171 0.0
H518 H 0.8018 0.18787 0.58686 0.0
H519 H 0.78982 0.18924 0.61195 0.0
H520 H 0.83416 0.15975 0.62773 0.0
H521 H 0.84646 0.15861 0.60283 0.0
H522 H 0.24294 0.82897 0.0613 0.0
H523 H 0.27948 0.85297 0.04905 0.0
H524 H 0.32275 0.87816 0.09154 0.0
H525 H 0.28654 0.8535 0.10389 0.0
H526 H 0.33205 0.91523 0.07247 0.0
H527 H 0.3247 0.83597 0.07121 0.0
H528 H 0.30303 0.79159 0.06529 0.0
H529 H 0.29469 0.79995 0.019 0.0
H530 H 0.31601 0.84439 0.02468 0.0
H531 H 0.45029 0.96903 0.05174 0.0
H532 H 0.41285 0.94336 0.0626 0.0
H533 H 0.37714 0.90788 0.01906 0.0
H534 H 0.41524 0.93278 1.00822 0.0
H535 H 0.36223 0.8759 0.03762 0.0
H536 H 0.36921 0.95388 0.03766 0.0
H537 H 0.38931 -0.00165 0.04255 0.0
H538 H 0.39594 0.99303 0.08941 0.0
H539 H 0.37617 0.94854 0.08479 0.0
C540 C 0.26024 0.83937 0.06806 0.0
C541 C 0.26174 0.83913 0.08361 0.0
C542 C 0.28108 0.85319 0.06103 0.0
C543 C 0.3038 0.86719 0.06939 0.0
C544 C 0.30534 0.8675 0.0849 0.0
C545 C 0.28457 0.85348 0.09194 0.0
C546 C 0.32605 0.88138 0.06198 0.0
C547 C 0.33884 0.90667 0.06496 0.0
C548 C 0.33435 0.87019 0.05182 0.0
C549 C 0.32172 0.84349 0.04839 0.0
C550 C 0.31807 0.82833 0.05978 0.0
C551 C 0.30588 0.80317 0.05647 0.0
C552 C 0.29742 0.79295 0.04178 0.0
C553 C 0.30121 0.80788 0.03037 0.0
C554 C 0.31336 0.83306 0.03363 0.0
C555 C 0.43447 0.95569 0.04448 0.0
C556 C 0.43554 0.95304 0.02912 0.0
C557 C 0.413 0.94112 0.05069 0.0
C558 C 0.39187 0.92414 0.04162 0.0
C559 C 0.39312 0.92096 0.02629 0.0
C560 C 0.41485 0.93519 0.0201 0.0
C561 C 0.36855 0.90993 0.04818 0.0
C562 C 0.35547 0.88459 0.04504 0.0
C563 C 0.35972 0.92113 0.05802 0.0
C564 C 0.37137 0.94788 0.06086 0.0
C565 C 0.37507 0.96221 0.049 0.0
C566 C 0.3864 0.98742 0.05173 0.0
C567 C 0.39394 -0.00149 0.06628 0.0
C568 C 0.3901 0.98441 0.07814 0.0
C569 C 0.37881 0.95919 0.07548 0.0
H570 H 0.40272 0.01804 0.06837 0.0
H571 H 0.28799 0.77346 0.03924 0.0
H572 H 0.18562 0.42237 0.0724 0.0
H573 H 0.1561 0.43184 0.06063 0.0
H574 H 0.15858 0.47115 0.10161 0.0
H575 H 0.18781 0.46126 0.11353 0.0
H576 H 0.11316 0.44508 0.08917 0.0
H577 H 0.18942 0.50066 0.07235 0.0
H578 H 0.22775 0.51249 0.06133 0.0
H579 H 0.1874 0.47035 0.02039 0.0
H580 H 0.14882 0.45798 0.03124 0.0
H581 H 0.05396 0.50315 0.05663 0.0
H582 H 0.08394 0.49531 0.06941 0.0
H583 H 0.08478 0.45609 0.02932 0.0
H584 H 0.05548 0.46472 0.01629 0.0
H585 H 0.12924 0.48358 0.04202 0.0
H586 H 0.05271 0.42719 0.05958 0.0
H587 H 0.01479 0.41649 0.07085 0.0
H588 H 0.05629 0.46168 0.11072 0.0
H589 H 0.09447 0.47283 0.09963 0.0
C590 C 0.17993 0.43311 0.07888 0.0
C591 C 0.18917 0.44127 0.09384 0.0
C592 C 0.16308 0.43853 0.07214 0.0
C593 C 0.15545 0.45261 0.08015 0.0
C594 C 0.16424 0.46033 0.0952 0.0
C595 C 0.18093 0.45468 0.102 0.0
C596 C 0.13845 0.45938 0.07274 0.0
C597 C 0.11683 0.45378 0.07896 0.0
C598 C 0.14305 0.47045 0.05931 0.0
C599 C 0.16623 0.47824 0.05266 0.0
C600 C 0.18872 0.49382 0.06102 0.0
C601 C 0.21049 0.50062 0.05481 0.0
C602 C 0.21001 0.49213 0.04018 0.0
C603 C 0.18775 0.47689 0.03172 0.0
C604 C 0.16592 0.47 0.03789 0.0
C605 C 0.06051 0.49284 0.05053 0.0
C606 C 0.05224 0.48442 0.03546 0.0
C607 C 0.07759 0.48827 0.05787 0.0
C608 C 0.0863 0.47469 0.05042 0.0
C609 C 0.07829 0.46655 0.03532 0.0
C610 C 0.0615 0.47145 0.0279 0.0
C611 C 0.10378 0.46897 0.05832 0.0
C612 C 0.12556 0.47486 0.05222 0.0
C613 C 0.09936 0.45828 0.07189 0.0
C614 C 0.07643 0.45098 0.07873 0.0
C615 C 0.05374 0.43489 0.07074 0.0
C616 C 0.0322 0.42875 0.07709 0.0
C617 C 0.03313 0.43845 0.09148 0.0
C618 C 0.0556 0.45419 0.09958 0.0
C619 C 0.0772 0.46039 0.09327 0.0
H620 H 0.01644 0.43374 0.09636 0.0
H621 H 0.22689 0.49738 0.03539 0.0
H622 H 0.58002 0.74153 0.09898 0.0
H623 H 0.56693 0.70052 0.08822 0.0
H624 H 0.59126 0.72771 0.0464 0.0
H625 H 0.60436 0.76895 0.05713 0.0
H626 H 0.54628 0.68873 0.04278 0.0
H627 H 0.62334 0.70971 0.06901 0.0
H628 H 0.65383 0.72472 0.09091 0.0
H629 H 0.60406 0.66671 0.11447 0.0
H630 H 0.57313 0.65153 0.09277 0.0
H631 H 0.53467 0.58196 1.00771 0.0
H632 H 0.55155 0.62327 0.01919 0.0
H633 H 0.52747 0.59609 0.06105 0.0
H634 H 0.51087 0.55452 0.04969 0.0
H635 H 0.5728 0.63508 0.0648 0.0
H636 H 0.49564 0.61457 0.03943 0.0
H637 H 0.464 0.59974 0.01816 0.0
H638 H 0.51279 0.65686 0.99367 0.0
H639 H 0.54486 0.67183 0.01472 0.0
C640 C 0.58296 0.73884 0.08756 0.0
C641 C 0.59337 0.75845 0.0789 0.0
C642 C 0.57545 0.71539 0.08143 0.0
C643 C 0.57841 0.71113 0.06657 0.0
C644 C 0.58886 0.73066 0.0579 0.0
C645 C 0.5963 0.75415 0.06402 0.0
C646 C 0.56966 0.68614 0.05994 0.0
C647 C 0.55239 0.67712 0.04743 0.0
C648 C 0.57708 0.67081 0.06634 0.0
C649 C 0.59585 0.6796 0.07929 0.0
C650 C 0.61885 0.70023 0.07888 0.0
C651 C 0.63621 0.70876 0.09127 0.0
C652 C 0.63086 0.69672 0.10409 0.0
C653 C 0.60817 0.67604 0.10453 0.0
C654 C 0.59073 0.66744 0.09219 0.0
C655 C 0.53295 0.5847 0.01936 0.0
C656 C 0.52124 0.56494 0.02777 0.0
C657 C 0.54258 0.60835 0.0259 0.0
C658 C 0.54043 0.6127 0.0409 0.0
C659 C 0.52924 0.59307 0.04943 0.0
C660 C 0.5197 0.56936 0.04291 0.0
C661 C 0.54956 0.63776 0.04758 0.0
C662 C 0.56681 0.64674 0.06011 0.0
C663 C 0.54202 0.65306 0.04126 0.0
C664 C 0.52273 0.64417 0.0286 0.0
C665 C 0.49968 0.62385 0.02947 0.0
C666 C 0.48166 0.61544 0.01746 0.0
C667 C 0.4864 0.62731 1.00456 0.0
C668 C 0.50916 0.64766 1.00366 0.0
C669 C 0.52726 0.65613 0.01563 0.0
H670 H 0.47242 0.62078 0.99527 0.0
H671 H 0.64431 0.70338 0.11368 0.0
H672 H 0.81359 0.22795 0.95665 0.0
H673 H 0.84579 0.26676 0.9693 0.0
H674 H 0.84817 0.30124 0.9294 0.0
H675 H 0.81591 0.2627 0.91676 0.0
H676 H 0.89359 0.31511 0.94206 0.0
H677 H 0.81928 0.30761 0.95768 0.0
H678 H 0.7803 0.28735 0.96861 0.0
H679 H 0.81768 0.28799 0.00991 0.0
H680 H 0.85687 0.30796 0.99914 0.0
H681 H 0.95563 0.43908 0.97023 0.0
H682 H 0.92659 0.39842 0.95854 0.0
H683 H 0.92424 0.36949 1.00065 0.0
H684 H 0.95278 0.41017 0.0125 0.0
H685 H 0.87993 0.35155 0.9876 0.0
H686 H 0.95464 0.36088 0.97247 0.0
H687 H 0.99366 0.38122 0.96159 0.0
H688 H 0.95598 0.37712 0.91957 0.0
H689 H 0.91675 0.35702 0.93026 0.0
C690 C 0.82086 0.24384 0.95062 0.0
C691 C 0.81218 0.24224 0.9357 0.0
C692 C 0.8393 0.26597 0.95784 0.0
C693 C 0.84928 0.2869 0.9503 0.0
C694 C 0.84082 0.28529 0.93539 0.0
C695 C 0.82242 0.26323 0.92818 0.0
C696 C 0.86826 0.31064 0.95795 0.0
C697 C 0.89056 0.3232 0.95195 0.0
C698 C 0.86449 0.3209 0.97104 0.0
C699 C 0.84096 0.30904 0.97755 0.0
C700 C 0.81916 0.30326 0.96905 0.0
C701 C 0.79704 0.29186 0.97522 0.0
C702 C 0.7965 0.28632 0.98993 0.0
C703 C 0.81811 0.29225 0.99851 0.0
C704 C 0.84029 0.30362 0.99238 0.0
C705 C 0.94908 0.42405 0.97699 0.0
C706 C 0.95652 0.42788 0.9923 0.0
C707 C 0.93254 0.40078 0.97027 0.0
C708 C 0.92343 0.38083 0.97868 0.0
C709 C 0.93102 0.38459 0.99394 0.0
C710 C 0.94739 0.40787 1.00069 0.0
C711 C 0.9053 0.35618 0.97169 0.0
C712 C 0.88311 0.34342 0.97779 0.0
C713 C 0.90922 0.34574 0.95871 0.0
C714 C 0.93277 0.35762 0.95221 0.0
C715 C 0.95469 0.36445 0.96094 0.0
C716 C 0.97684 0.37592 0.9548 0.0
C717 C 0.9773 0.38051 0.93991 0.0
C718 C 0.9556 0.37357 0.93111 0.0
C719 C 0.93339 0.36211 0.9372 0.0
H720 H 0.99448 0.3894 0.93518 0.0
H721 H 0.77935 0.27749 0.99469 0.0
H722 H 0.70771 0.5414 0.91611 0.0
H723 H 0.67045 0.53164 0.92747 0.0
H724 H 0.71179 0.55909 0.97053 0.0
H725 H 0.74917 0.56929 0.95925 0.0
H726 H 0.67039 0.51542 0.97125 0.0
H727 H 0.69201 0.59195 0.95268 0.0
H728 H 0.7028 0.62071 0.93365 0.0
H729 H 0.63459 0.57305 0.90769 0.0
H730 H 0.62352 0.54383 0.92647 0.0
H731 H 0.57865 0.51962 0.01038 0.0
H732 H 0.61619 0.52947 0.99933 0.0
H733 H 0.57649 0.50706 0.95568 0.0
H734 H 0.53909 0.49764 0.96655 0.0
H735 H 0.61736 0.54834 0.95536 0.0
H736 H 0.59543 0.47162 0.97302 0.0
H737 H 0.58396 0.44178 0.99141 0.0
H738 H 0.65166 0.48812 0.01823 0.0
H739 H 0.6634 0.5184 1.00008 0.0
C740 C 0.70894 0.54565 0.92797 0.0
C741 C 0.73149 0.55615 0.93675 0.0
C742 C 0.6876 0.53997 0.93446 0.0
C743 C 0.68834 0.54475 0.94985 0.0
C744 C 0.71076 0.55514 0.95865 0.0
C745 C 0.73212 0.56088 0.95217 0.0
C746 C 0.66572 0.53878 0.9568 0.0
C747 C 0.65895 0.52287 0.96793 0.0
C748 C 0.65047 0.548 0.95219 0.0
C749 C 0.65704 0.5656 0.94092 0.0
C750 C 0.67939 0.58751 0.94286 0.0
C751 C 0.68554 0.60391 0.93213 0.0
C752 C 0.66942 0.59868 0.91945 0.0
C753 C 0.64708 0.57706 0.9175 0.0
C754 C 0.64085 0.56059 0.92819 0.0
C755 C 0.57788 0.51668 0.99844 0.0
C756 C 0.55581 0.50782 0.98938 0.0
C757 C 0.59936 0.52225 0.99213 0.0
C758 C 0.59917 0.51882 0.97666 0.0
C759 C 0.57715 0.50991 0.96762 0.0
C760 C 0.55572 0.50445 0.9739 0.0
C761 C 0.62195 0.52493 0.96982 0.0
C762 C 0.62877 0.54088 0.95871 0.0
C763 C 0.63713 0.51558 0.97436 0.0
C764 C 0.63018 0.49738 0.98527 0.0
C765 C 0.60779 0.47553 0.9829 0.0
C766 C 0.60125 0.45852 0.99327 0.0
C767 C 0.61704 0.46308 1.006 0.0
C768 C 0.63943 0.48463 0.00837 0.0
C769 C 0.64605 0.50171 0.99804 0.0
H770 H 0.61196 0.44989 0.01402 0.0
H771 H 0.67422 0.6114 0.91115 0.0
H772 H 0.36888 0.12218 0.94156 0.0
H773 H 0.38608 0.10066 0.95462 0.0
H774 H 0.456 0.1663 0.96178 0.0
H775 H 0.43902 0.18781 0.9485 0.0
H776 H 0.45929 0.12679 0.95154 0.0
H777 H 0.42254 0.14759 0.98997 0.0
H778 H 0.38954 0.1501 1.00132 0.0
H779 H 0.34604 0.07244 0.99667 0.0
H780 H 0.37865 0.06947 0.98508 0.0
H781 H 0.51065 0.08036 1.00403 0.0
H782 H 0.49581 0.10588 0.99362 0.0
H783 H 0.42528 0.04266 0.98106 0.0
H784 H 0.43998 0.01704 0.99119 0.0
H785 H 0.42422 0.08324 0.99525 0.0
H786 H 0.45867 0.06214 0.95534 0.0
H787 H 0.49061 0.05855 0.94335 0.0
H788 H 0.53755 0.13576 0.95037 0.0
H789 H 0.50595 0.13977 0.9626 0.0
C790 C 0.38792 0.13198 0.94591 0.0
C791 C 0.40261 0.15666 0.94409 0.0
C792 C 0.39767 0.11974 0.95343 0.0
C793 C 0.42224 0.132 0.95926 0.0
C794 C 0.43697 0.1566 0.9574 0.0
C795 C 0.42721 0.16887 0.94993 0.0
C796 C 0.43262 0.11894 0.96705 0.0
C797 C 0.45193 0.11764 0.96126 0.0
C798 C 0.4226 0.1066 0.97952 0.0
C799 C 0.40297 0.10832 0.98653 0.0
C800 C 0.40586 0.13105 0.99125 0.0
C801 C 0.38724 0.13256 0.99775 0.0
C802 C 0.36569 0.11145 0.99968 0.0
C803 C 0.36274 0.08878 0.99515 0.0
C804 C 0.3813 0.08717 0.98863 0.0
C805 C 0.49194 0.07197 0.99915 0.0
C806 C 0.47647 0.04675 0.99836 0.0
C807 C 0.48355 0.08651 0.99318 0.0
C808 C 0.45953 0.07604 0.98656 0.0
C809 C 0.44388 0.05099 0.98615 0.0
C810 C 0.45234 0.03641 0.99187 0.0
C811 C 0.45075 0.09105 0.97969 0.0
C812 C 0.43173 0.09266 0.98563 0.0
C813 C 0.46095 0.10357 0.96733 0.0
C814 C 0.48006 0.10123 0.96007 0.0
C815 C 0.4759 0.07833 0.95448 0.0
C816 C 0.49392 0.07622 0.9476 0.0
C817 C 0.51614 0.0969 0.94614 0.0
C818 C 0.52035 0.11975 0.95154 0.0
C819 C 0.50238 0.12195 0.95844 0.0
H820 H 0.53005 0.09524 0.94079 0.0
H821 H 0.3513 0.11265 1.00472 0.0
H822 H 0.72557 0.13215 0.92419 0.0
H823 H 0.68958 0.10636 0.93645 0.0
H824 H 0.69505 0.16958 0.96012 0.0
H825 H 0.73021 0.19567 0.94739 0.0
H826 H 0.68984 0.12848 0.97775 0.0
H827 H 0.65145 0.14611 0.93495 0.0
H828 H 0.64464 0.14759 0.90802 0.0
H829 H 0.62164 0.07197 0.90013 0.0
H830 H 0.62829 0.07008 0.92703 0.0
H831 H 0.5798 0.0756 0.01116 0.0
H832 H 0.61546 0.1014 0.9986 0.0
H833 H 0.59079 0.0447 0.96249 0.0
H834 H 0.55426 0.01987 0.97448 0.0
H835 H 0.60694 0.08249 0.95078 0.0
H836 H 0.64087 0.06102 0.99159 0.0
H837 H 0.64947 0.05612 0.01767 0.0
H838 H 0.68408 0.13307 0.02876 0.0
H839 H 0.6754 0.1384 1.00278 0.0
C840 C 0.71896 0.14068 0.93181 0.0
C841 C 0.73096 0.16609 0.93478 0.0
C842 C 0.69848 0.12586 0.93888 0.0
C843 C 0.68978 0.13613 0.94918 0.0
C844 C 0.70166 0.16137 0.95226 0.0
C845 C 0.72189 0.17622 0.94503 0.0
C846 C 0.66828 0.12051 0.9568 0.0
C847 C 0.67161 0.11858 0.97197 0.0
C848 C 0.6448 0.10694 0.94905 0.0
C849 C 0.64048 0.108 0.93295 0.0
C850 C 0.64502 0.12984 0.92745 0.0
C851 C 0.64117 0.13074 0.91221 0.0
C852 C 0.63281 0.10991 0.90237 0.0
C853 C 0.62821 0.08811 0.90776 0.0
C854 C 0.63191 0.08709 0.923 0.0
C855 C 0.58214 0.06872 1.00057 0.0
C856 C 0.56444 0.04577 0.9938 0.0
C857 C 0.60261 0.08337 0.99342 0.0
C858 C 0.60627 0.07491 0.97967 0.0
C859 C 0.58853 0.05181 0.97303 0.0
C860 C 0.5677 0.03754 0.97992 0.0
C861 C 0.62818 0.09024 0.97201 0.0
C862 C 0.62503 0.09219 0.95674 0.0
C863 C 0.652 0.1032 0.97962 0.0
C864 C 0.65727 0.10008 0.99526 0.0
C865 C 0.65016 0.07688 0.99961 0.0
C866 C 0.65507 0.07403 0.01437 0.0
C867 C 0.66725 0.09427 0.02487 0.0
C868 C 0.67461 0.11741 0.02062 0.0
C869 C 0.66972 0.12036 1.00587 0.0
H870 H 0.67104 0.09202 0.0363 0.0
H871 H 0.62979 0.11063 0.89057 0.0
H872 H 0.84299 0.59055 0.93286 0.0
H873 H 0.87315 0.58158 0.94419 0.0
H874 H 0.81571 0.51551 0.9579 0.0
H875 H 0.78529 0.52387 0.94616 0.0
H876 H 0.85457 0.54318 0.9803 0.0
H877 H 0.84194 0.51168 0.92896 0.0
H878 H 0.83984 0.51409 0.90192 0.0
H879 H 0.91491 0.57024 0.90629 0.0
H880 H 0.91735 0.56842 0.93341 0.0
H881 H 0.91921 0.48416 0.9996 0.0
H882 H 0.89046 0.49458 0.98798 0.0
H883 H 0.9491 0.55418 0.96959 0.0
H884 H 0.97805 0.54347 0.98092 0.0
H885 H 0.91058 0.53149 0.94964 0.0
H886 H 0.92439 0.56347 1.00035 0.0
H887 H 0.92744 0.56287 0.02754 0.0
H888 H 0.85181 0.50857 0.02475 0.0
H889 H 0.84839 0.50859 0.9975 0.0
C890 C 0.8367 0.57397 0.93814 0.0
C891 C 0.81164 0.55784 0.93848 0.0
C892 C 0.85399 0.56895 0.94468 0.0
C893 C 0.84663 0.54779 0.95176 0.0
C894 C 0.82173 0.53196 0.95249 0.0
C895 C 0.80439 0.53685 0.94583 0.0
C896 C 0.86493 0.54205 0.95827 0.0
C897 C 0.86663 0.54031 0.97359 0.0
C898 C 0.88114 0.5391 0.94955 0.0
C899 C 0.87975 0.54009 0.93324 0.0
C900 C 0.85794 0.52469 0.92418 0.0
C901 C 0.8567 0.52592 0.90883 0.0
C902 C 0.87721 0.54236 0.9024 0.0
C903 C 0.89903 0.55754 0.91129 0.0
C904 C 0.90035 0.55641 0.92665 0.0
C905 C 0.92606 0.49949 0.99308 0.0
C906 C 0.95099 0.51312 0.9913 0.0
C907 C 0.90957 0.50549 0.98648 0.0
C908 C 0.91766 0.52547 0.97815 0.0
C909 C 0.94245 0.53876 0.97603 0.0
C910 C 0.95898 0.53264 0.98254 0.0
C911 C 0.90016 0.5324 0.97171 0.0
C912 C 0.89861 0.53441 0.95639 0.0
C913 C 0.88425 0.53587 0.98047 0.0
C914 C 0.88619 0.53588 0.99687 0.0
C915 C 0.90845 0.55127 1.00552 0.0
C916 C 0.91024 0.55105 0.02095 0.0
C917 C 0.88985 0.53565 0.02787 0.0
C918 C 0.8676 0.52047 0.01937 0.0
C919 C 0.86572 0.52059 1.00394 0.0
H920 H 0.89127 0.53551 0.03981 0.0
H921 H 0.87622 0.54328 0.89051 0.0
H922 H 0.39124 0.22237 0.96223 0.0
H923 H 0.40488 0.26379 0.97219 0.0
H924 H 0.41268 0.28614 0.92789 0.0
H925 H 0.40088 0.24508 0.91793 0.0
H926 H 0.45008 0.31749 0.94499 0.0
H927 H 0.36473 0.28004 0.9484 0.0
H928 H 0.3245 0.24959 0.95499 0.0
H929 H 0.35132 0.26738 1.00124 0.0
H930 H 0.39183 0.29771 0.99492 0.0
H931 H 0.45537 0.43047 0.96722 0.0
H932 H 0.43962 0.38877 0.95627 0.0
H933 H 0.45828 0.36998 0.9981 0.0
H934 H 0.47467 0.41181 0.00906 0.0
H935 H 0.40667 0.33781 0.9817 0.0
H936 H 0.49322 0.37467 0.97677 0.0
H937 H 0.53188 0.40647 0.96911 0.0
H938 H 0.49982 0.39063 0.92387 0.0
H939 H 0.46082 0.35898 0.93133 0.0
C940 C 0.39603 0.2361 0.95459 0.0
C941 C 0.39503 0.23033 0.93926 0.0
C942 C 0.40348 0.25975 0.96029 0.0
C943 C 0.40948 0.27806 0.95078 0.0
C944 C 0.40808 0.27231 0.93545 0.0
C945 C 0.40102 0.24871 0.92975 0.0
C946 C 0.41824 0.3034 0.95691 0.0
C947 C 0.44032 0.32189 0.95283 0.0
C948 C 0.40574 0.30923 0.96731 0.0
C949 C 0.38139 0.29101 0.97117 0.0
C950 C 0.36211 0.27733 0.95997 0.0
C951 C 0.33924 0.26011 0.96366 0.0
C952 C 0.33537 0.25651 0.97852 0.0
C953 C 0.35435 0.27017 0.98973 0.0
C954 C 0.37726 0.2874 0.9861 0.0
C955 C 0.45612 0.41744 0.97407 0.0
C956 C 0.46624 0.42429 0.98897 0.0
C957 C 0.44717 0.39373 0.96781 0.0
C958 C 0.44783 0.37648 0.97643 0.0
C959 C 0.45765 0.38316 0.99134 0.0
C960 C 0.46709 0.407 0.99752 0.0
C961 C 0.43835 0.35145 0.96982 0.0
C962 C 0.4162 0.33318 0.9738 0.0
C963 C 0.45051 0.34587 0.95916 0.0
C964 C 0.47403 0.36466 0.95464 0.0
C965 C 0.49434 0.37813 0.96522 0.0
C966 C 0.51634 0.39609 0.9609 0.0
C967 C 0.51829 0.40062 0.94602 0.0
C968 C 0.49827 0.38713 0.9354 0.0
C969 C 0.47622 0.36917 0.93966 0.0
H970 H 0.53532 0.41454 0.9427 0.0
H971 H 0.31765 0.24317 0.98135 0.0
H972 H 0.1522 0.76268 0.09089 0.0
H973 H 0.12202 0.72205 0.07962 0.0
H974 H 0.17936 0.71163 0.06437 0.0
H975 H 0.20973 0.75201 0.07591 0.0
H976 H 0.14053 0.69699 0.04266 0.0
H977 H 0.15351 0.686 0.09399 0.0
H978 H 0.15546 0.69453 0.12105 0.0
H979 H 0.08017 0.67511 0.11666 0.0
H980 H 0.07787 0.6668 0.08953 0.0
H981 H 0.07946 0.57083 0.02425 0.0
H982 H 0.10695 0.61223 0.0352 0.0
H983 H 0.04699 0.6146 0.05335 0.0
H984 H 0.01933 0.57277 0.04271 0.0
H985 H 0.08542 0.63426 0.0733 0.0
H986 H 0.07114 0.6436 0.0225 0.0
H987 H 0.0684 0.63557 0.99533 0.0
H988 H 0.14463 0.65882 0.99834 0.0
H989 H 0.14777 0.66666 0.02556 0.0
C990 C 0.15843 0.75167 0.08527 0.0
C991 C 0.18343 0.7606 0.08437 0.0
C992 C 0.14114 0.7285 0.07878 0.0
C993 C 0.14848 0.71379 0.07125 0.0
C994 C 0.17333 0.72274 0.0701 0.0
C995 C 0.19065 0.74587 0.07665 0.0
C996 C 0.13027 0.68895 0.06469 0.0
C997 C 0.12864 0.68316 0.04936 0.0
C998 C 0.11427 0.6712 0.0734 0.0
C999 C 0.11559 0.67603 0.08971 0.0
C1000 C 0.13742 0.68374 0.09878 0.0
C1001 C 0.13859 0.6885 0.11413 0.0
C1002 C 0.11797 0.68543 0.12057 0.0
C1003 C 0.09614 0.67752 0.11166 0.0
C1004 C 0.09489 0.67277 0.0963 0.0
C1005 C 0.07204 0.58012 0.03055 0.0
C1006 C 0.04714 0.56851 0.03254 0.0
C1007 C 0.0878 0.60387 0.03675 0.0
C1008 C 0.07898 0.61671 0.04488 0.0
C1009 C 0.05419 0.60508 0.04707 0.0
C1010 C 0.0384 0.58119 0.04096 0.0
C1011 C 0.09579 0.64213 0.05124 0.0
C1012 C 0.09717 0.64806 0.06655 0.0
C1013 C 0.11141 0.66009 0.04248 0.0
C1014 C 0.10964 0.65552 0.02609 0.0
C1015 C 0.08729 0.64684 0.01738 0.0
C1016 C 0.08567 0.64234 1.00197 0.0
C1017 C 0.10631 0.64663 0.99512 0.0
C1018 C 0.12865 0.65548 1.00366 0.0
C1019 C 0.13036 0.65998 0.01908 0.0
H1020 H 0.10502 0.64313 0.98318 0.0
H1021 H 0.11891 0.68912 0.13246 0.0
H1022 H 0.27397 0.47426 0.0863 0.0
H1023 H 0.30774 0.48134 0.07198 0.0
H1024 H 0.29802 0.41148 0.08061 0.0
H1025 H 0.26419 0.40436 0.09511 0.0
H1026 H 0.34549 0.4452 0.08313 0.0
H1027 H 0.27679 0.42009 0.04707 0.0
H1028 H 0.24152 0.42142 0.03526 0.0
H1029 H 0.28852 0.49445 0.02554 0.0
H1030 H 0.32406 0.49367 0.03749 0.0
H1031 H 0.42037 0.44199 0.03046 0.0
H1032 H 0.38376 0.43159 0.04264 0.0
H1033 H 0.39044 0.50039 0.03427 0.0
H1034 H 0.4266 0.51046 0.02145 0.0
H1035 H 0.34369 0.46587 0.03129 0.0
H1036 H 0.41253 0.49059 0.06718 0.0
H1037 H 0.44783 0.48796 0.07731 0.0
H1038 H 0.40044 0.41543 0.08772 0.0
H1039 H 0.36481 0.41719 0.07692 0.0
C1040 C 0.27896 0.46036 0.08511 0.0
C1041 C 0.26623 0.43862 0.09169 0.0
C1042 C 0.29827 0.46443 0.07692 0.0
C1043 C 0.30513 0.44675 0.07496 0.0
C1044 C 0.29298 0.42534 0.08191 0.0
C1045 C 0.2737 0.42131 0.09021 0.0
C1046 C 0.32482 0.4506 0.06554 0.0
C1047 C 0.34492 0.44937 0.07174 0.0
C1048 C 0.32434 0.45652 0.05074 0.0
C1049 C 0.30306 0.45688 0.04329 0.0
C1050 C 0.27959 0.43648 0.04249 0.0
C1051 C 0.25955 0.43713 0.03577 0.0
C1052 C 0.26277 0.45803 0.02969 0.0
C1053 C 0.28605 0.47828 0.03027 0.0
C1054 C 0.30616 0.47774 0.037 0.0
C1055 C 0.41394 0.45484 0.0311 0.0
C1056 C 0.42653 0.47719 0.02517 0.0
C1057 C 0.393 0.44887 0.03808 0.0
C1058 C 0.38463 0.46544 0.0397 0.0
C1059 C 0.39659 0.48736 0.03323 0.0
C1060 C 0.4173 0.49313 0.02595 0.0
C1061 C 0.36438 0.46053 0.04889 0.0
C1062 C 0.34421 0.46162 0.04267 0.0
C1063 C 0.36479 0.45448 0.06368 0.0
C1064 C 0.386 0.45394 0.07109 0.0
C1065 C 0.40961 0.47404 0.07158 0.0
C1066 C 0.42971 0.47266 0.07739 0.0
C1067 C 0.42642 0.45154 0.08319 0.0
C1068 C 0.40297 0.43177 0.0832 0.0
C1069 C 0.38281 0.4329 0.07717 0.0
H1070 H 0.44201 0.45048 0.08766 0.0
H1071 H 0.24722 0.45852 0.02451 0.0
H1072 H 0.59938 0.82823 0.05477 0.0
H1073 H 0.58365 0.85094 0.04168 0.0
H1074 H 0.5601 0.86646 0.08239 0.0
H1075 H 0.57474 0.84297 0.09535 0.0
H1076 H 0.52583 0.85333 0.05998 0.0
H1077 H 0.6125 0.90871 0.06886 0.0
H1078 H 0.65581 0.92171 0.06745 0.0
H1079 H 0.64405 0.91266 0.01982 0.0
H1080 H 0.60057 0.89929 0.02095 0.0
H1081 H 0.51557 0.95592 0.04903 0.0
H1082 H 0.52838 0.92784 0.0571 0.0
H1083 H 0.5419 0.91525 0.01238 0.0
H1084 H 0.5292 0.94355 1.00412 0.0
H1085 H 0.57948 0.92368 0.03355 0.0
H1086 H 0.49308 0.87257 0.02521 0.0
H1087 H 0.45034 0.86123 0.02729 0.0
H1088 H 0.46201 0.8635 0.07464 0.0
H1089 H 0.50494 0.87522 0.07287 0.0
C1090 C 0.59068 0.83634 0.06089 0.0
C1091 C 0.58846 0.83395 0.07612 0.0
C1092 C 0.58189 0.84946 0.05343 0.0
C1093 C 0.57094 0.86058 0.06111 0.0
C1094 C 0.56854 0.85806 0.07627 0.0
C1095 C 0.57718 0.84487 0.0837 0.0
C1096 C 0.56191 0.87491 0.05347 0.0
C1097 C 0.5376 0.86881 0.05428 0.0
C1098 C 0.57711 0.89467 0.04568 0.0
C1099 C 0.60323 0.90272 0.04499 0.0
C1100 C 0.61911 0.90929 0.05808 0.0
C1101 C 0.64369 0.91677 0.05734 0.0
C1102 C 0.65266 0.91793 0.04356 0.0
C1103 C 0.63707 0.9117 0.03049 0.0
C1104 C 0.61246 0.90418 0.03117 0.0
C1105 C 0.52122 0.94719 0.04086 0.0
C1106 C 0.52132 0.95194 0.02591 0.0
C1107 C 0.52842 0.93106 0.0455 0.0
C1108 C 0.53581 0.91931 0.03529 0.0
C1109 C 0.53615 0.92411 0.02038 0.0
C1110 C 0.52883 0.94021 0.0157 0.0
C1111 C 0.5436 0.90242 0.04039 0.0
C1112 C 0.56763 0.90799 0.03907 0.0
C1113 C 0.5282 0.88227 0.04781 0.0
C1114 C 0.50229 0.87493 0.04891 0.0
C1115 C 0.48658 0.87081 0.03608 0.0
C1116 C 0.46231 0.86429 0.0372 0.0
C1117 C 0.45347 0.86169 0.05109 0.0
C1118 C 0.46888 0.86553 0.06388 0.0
C1119 C 0.49318 0.87208 0.06283 0.0
H1120 H 0.43468 0.85666 0.05193 0.0
H1121 H 0.6717 0.92373 0.043 0.0
H1122 H 0.95336 0.17672 0.43688 0.0
H1123 H 0.98888 0.20175 0.4241 0.0
H1124 H 0.94385 0.17774 0.38225 0.0
H1125 H 0.90794 0.15355 0.39496 0.0
H1126 H 0.98773 0.17446 0.38263 0.0
H1127 H 0.96128 0.23109 0.39558 0.0
H1128 H 0.94902 0.25384 0.41243 0.0
H1129 H 0.0188 0.28655 0.4381 0.0
H1130 H 0.03132 0.26355 0.42159 0.0
H1131 H 0.08025 0.25743 0.34073 0.0
H1132 H 0.04229 0.23175 0.35147 0.0
H1133 H 0.07761 0.26675 0.39518 0.0
H1134 H 0.11492 0.29305 0.38442 0.0
H1135 H 0.03647 0.26397 0.39268 0.0
H1136 H 0.06281 0.20655 0.38184 0.0
H1137 H 0.07602 0.18329 0.36617 0.0
H1138 H 0.00848 0.15172 0.33811 0.0
H1139 H 0.99499 0.17504 0.35352 0.0
C1140 C 0.95082 0.17708 0.42501 0.0
C1141 C 0.92766 0.16301 0.41699 0.0
C1142 C 0.97122 0.19126 0.41771 0.0
C1143 C 0.96895 0.19151 0.40224 0.0
C1144 C 0.94596 0.17762 0.39419 0.0
C1145 C 0.92549 0.16371 0.40149 0.0
C1146 C 0.99067 0.20612 0.39449 0.0
C1147 C -0.00173 0.19408 0.38464 0.0
C1148 C 0.00464 0.2316 0.39744 0.0
C1149 C 0.99713 0.24537 0.40744 0.0
C1150 C 0.97392 0.2429 0.40492 0.0
C1151 C 0.96694 0.25587 0.4144 0.0
C1152 C 0.98309 0.27154 0.42636 0.0
C1153 C 0.00628 0.27432 0.42886 0.0
C1154 C 0.01332 0.26132 0.41944 0.0
C1155 C 0.07986 0.25941 0.35263 0.0
C1156 C 0.10042 0.27726 0.36173 0.0
C1157 C 0.05821 0.24469 0.35879 0.0
C1158 C 0.05704 0.24715 0.3742 0.0
C1159 C 0.07789 0.26458 0.38328 0.0
C1160 C 0.09926 0.27957 0.37711 0.0
C1161 C 0.03402 0.23236 0.38094 0.0
C1162 C 0.02605 0.24436 0.3906 0.0
C1163 C 0.01995 0.2068 0.378 0.0
C1164 C 0.02801 0.19274 0.36874 0.0
C1165 C 0.05085 0.19479 0.37226 0.0
C1166 C 0.05837 0.18157 0.36344 0.0
C1167 C 0.04313 0.16609 0.35113 0.0
C1168 C 0.02029 0.16375 0.34764 0.0
C1169 C 0.01269 0.17695 0.35642 0.0
H1170 H 0.04898 0.15587 0.34431 0.0
H1171 H 0.97767 0.2816 0.43367 0.0
H1172 H 0.87593 0.80328 0.41453 0.0
H1173 H 0.84397 0.81 0.40345 0.0
H1174 H 0.7892 0.74127 0.41602 0.0
H1175 H 0.82105 0.734 0.42662 0.0
H1176 H 0.77659 0.74724 0.38899 0.0
H1177 H 0.80351 0.79438 0.43611 0.0
H1178 H 0.83331 0.82443 0.45593 0.0
H1179 H 0.85385 0.88045 0.42665 0.0
H1180 H 0.8244 0.85066 0.40657 0.0
H1181 H 0.69926 0.81214 0.39041 0.0
H1182 H 0.7281 0.80222 0.40281 0.0
H1183 H 0.74992 0.79099 0.36038 0.0
H1184 H 0.72097 0.80037 0.34791 0.0
H1185 H 0.77621 0.82289 0.40436 0.0
H1186 H 0.764 0.74669 0.36054 0.0
H1187 H 0.73176 0.7149 0.34246 0.0
H1188 H 0.67709 0.71346 0.36852 0.0
H1189 H 0.70899 0.74498 0.38686 0.0
C1190 C 0.85709 0.78942 0.41475 0.0
C1191 C 0.85106 0.76815 0.42154 0.0
C1192 C 0.83883 0.79342 0.40855 0.0
C1193 C 0.81417 0.77632 0.40912 0.0
C1194 C 0.80809 0.75479 0.41553 0.0
C1195 C 0.82633 0.75075 0.42169 0.0
C1196 C 0.79472 0.78094 0.4031 0.0
C1197 C 0.77652 0.76378 0.39235 0.0
C1198 C 0.79424 0.80224 0.40774 0.0
C1199 C 0.8119 0.82024 0.4198 0.0
C1200 C 0.81451 0.81307 0.43386 0.0
C1201 C 0.83131 0.83006 0.44515 0.0
C1202 C 0.8455 0.85432 0.44254 0.0
C1203 C 0.84286 0.86165 0.42865 0.0
C1204 C 0.8261 0.84472 0.41731 0.0
C1205 C 0.71012 0.80746 0.38371 0.0
C1206 C 0.70766 0.8069 0.36815 0.0
C1207 C 0.72665 0.80187 0.39083 0.0
C1208 C 0.74096 0.79556 0.38252 0.0
C1209 C 0.73875 0.79533 0.36701 0.0
C1210 C 0.72221 0.8008 0.3599 0.0
C1211 C 0.75843 0.78946 0.38999 0.0
C1212 C 0.77626 0.80633 0.40101 0.0
C1213 C 0.75824 0.76763 0.38585 0.0
C1214 C 0.73891 0.74836 0.375 0.0
C1215 C 0.7451 0.7395 0.36245 0.0
C1216 C 0.72689 0.72155 0.35215 0.0
C1217 C 0.70239 0.71222 0.35432 0.0
C1218 C 0.69606 0.72076 0.36682 0.0
C1219 C 0.71421 0.73869 0.37717 0.0
H1220 H 0.68832 0.69835 0.34632 0.0
H1221 H 0.8585 0.86745 0.4513 0.0
H1222 H 0.24826 0.10005 0.3921 0.0
H1223 H 0.23353 0.05929 0.38062 0.0
H1224 H 0.29247 0.05678 0.4052 0.0
H1225 H 0.30875 0.09856 0.41573 0.0
H1226 H 0.28457 0.03396 0.37959 0.0
H1227 H 0.23312 0.03088 0.41647 0.0
H1228 H 0.20645 0.04173 0.42951 0.0
H1229 H 0.15562 0.01685 0.39029 0.0
H1230 H 0.18215 0.00615 0.37695 0.0
H1231 H 0.20828 0.90061 0.38079 0.0
H1232 H 0.22733 0.9436 0.38995 0.0
H1233 H 0.21001 0.95966 0.34684 0.0
H1234 H 0.19149 0.91686 0.33744 0.0
H1235 H 0.19727 0.97457 0.38209 0.0
H1236 H 0.25607 0.98304 0.34526 0.0
H1237 H 0.28322 0.96988 0.3351 0.0
H1238 H 0.32031 0.98187 0.37866 0.0
H1239 H 0.29307 0.99474 0.38908 0.0
C1240 C 0.25861 0.09124 0.39479 0.0
C1241 C 0.27972 0.10273 0.40496 0.0
C1242 C 0.24984 0.06765 0.38838 0.0
C1243 C 0.26146 0.05467 0.39236 0.0
C1244 C 0.28303 0.06633 0.40206 0.0
C1245 C 0.29216 0.09016 0.40822 0.0
C1246 C 0.25069 0.02875 0.38675 0.0
C1247 C 0.2655 0.02106 0.38022 0.0
C1248 C 0.22584 0.01167 0.38765 0.0
C1249 C 0.20974 0.01792 0.39567 0.0
C1250 C 0.21633 0.02786 0.4106 0.0
C1251 C 0.20123 0.03397 0.41804 0.0
C1252 C 0.17938 0.03004 0.41072 0.0
C1253 C 0.17256 0.01992 0.39595 0.0
C1254 C 0.18761 0.01381 0.38844 0.0
C1255 C 0.20862 0.91331 0.37325 0.0
C1256 C 0.19847 0.90542 0.35839 0.0
C1257 C 0.21953 0.9378 0.37848 0.0
C1258 C 0.22019 0.95463 0.369 0.0
C1259 C 0.20987 0.94684 0.35423 0.0
C1260 C 0.19932 0.92244 0.3489 0.0
C1261 C 0.231 0.9803 0.37468 0.0
C1262 C 0.21625 0.98774 0.38138 0.0
C1263 C 0.25592 -0.00302 0.37424 0.0
C1264 C 0.27239 0.98953 0.36795 0.0
C1265 C 0.26985 0.98261 0.35268 0.0
C1266 C 0.28529 0.97527 0.34687 0.0
C1267 C 0.30343 0.97495 0.35624 0.0
C1268 C 0.30622 0.98206 0.37142 0.0
C1269 C 0.2908 0.98939 0.37728 0.0
H1270 H 0.31536 0.96926 0.35173 0.0
H1271 H 0.16772 0.03479 0.4165 0.0
H1272 H 0.47893 0.55215 0.29251 0.0
H1273 H 0.50891 0.59255 0.30436 0.0
H1274 H 0.51422 0.6217 0.26211 0.0
H1275 H 0.48416 0.58154 0.25023 0.0
H1276 H 0.55885 0.63891 0.27737 0.0
H1277 H 0.48108 0.62934 0.28704 0.0
H1278 H 0.44056 0.60878 0.29612 0.0
H1279 H 0.47354 0.61507 0.34016 0.0
H1280 H 0.51426 0.63535 0.33129 0.0
H1281 H 0.61628 0.76431 0.30239 0.0
H1282 H 0.58842 0.72317 0.29084 0.0
H1283 H 0.58079 0.69627 0.33391 0.0
H1284 H 0.60812 0.73732 0.34557 0.0
H1285 H 0.53781 0.67741 0.3185 0.0
H1286 H 0.61556 0.68757 0.30926 0.0
H1287 H 0.65625 0.70793 0.3004 0.0
H1288 H 0.62386 0.70033 0.25599 0.0
H1289 H 0.58297 0.6802 0.26462 0.0
C1290 C 0.4864 0.5672 0.28577 0.0
C1291 C 0.47916 0.56364 0.27043 0.0
C1292 C 0.50356 0.59023 0.29254 0.0
C1293 C 0.51365 0.61013 0.28412 0.0
C1294 C 0.50674 0.60657 0.26879 0.0
C1295 C 0.4896 0.58358 0.26202 0.0
C1296 C 0.53109 0.63479 0.29129 0.0
C1297 C 0.5542 0.64746 0.28626 0.0
C1298 C 0.52516 0.64567 0.3031 0.0
C1299 C 0.5007 0.63364 0.30847 0.0
C1300 C 0.47968 0.62617 0.29863 0.0
C1301 C 0.45668 0.61459 0.30375 0.0
C1302 C 0.45447 0.61056 0.3187 0.0
C1303 C 0.47527 0.61817 0.32858 0.0
C1304 C 0.49832 0.62972 0.32352 0.0
C1305 C 0.60874 0.74963 0.3094 0.0
C1306 C 0.61441 0.7541 0.3249 0.0
C1307 C 0.5929 0.7261 0.30277 0.0
C1308 C 0.58271 0.7066 0.31151 0.0
C1309 C 0.58841 0.71104 0.32696 0.0
C1310 C 0.60409 0.73453 0.3336 0.0
C1311 C 0.56564 0.68162 0.3046 0.0
C1312 C 0.54256 0.66887 0.30966 0.0
C1313 C 0.57165 0.67065 0.29286 0.0
C1314 C 0.59621 0.68258 0.28762 0.0
C1315 C 0.61712 0.69039 0.29762 0.0
C1316 C 0.64022 0.70186 0.29264 0.0
C1317 C 0.64264 0.70547 0.27765 0.0
C1318 C 0.62196 0.69755 0.2676 0.0
C1319 C 0.59881 0.68608 0.27253 0.0
H1320 H 0.66054 0.71437 0.27381 0.0
H1321 H 0.43665 0.6016 0.32263 0.0
H1322 H 0.37404 0.87262 0.24485 0.0
H1323 H 0.33713 0.86287 0.25665 0.0
H1324 H 0.38036 0.89559 0.2988 0.0
H1325 H 0.41726 0.90507 0.28709 0.0
H1326 H 0.34169 0.85397 0.30228 0.0
H1327 H 0.3556 0.92366 0.27708 0.0
H1328 H 0.36178 0.94723 0.25553 0.0
H1329 H 0.29223 0.8923 0.23399 0.0
H1330 H 0.2858 0.86818 0.25531 0.0
H1331 H 0.25278 0.86107 0.34225 0.0
H1332 H 0.28883 0.86997 0.32977 0.0
H1333 H 0.24392 0.83839 0.28803 0.0
H1334 H 0.2079 0.83 0.30034 0.0
H1335 H 0.28278 0.87853 0.28388 0.0
H1336 H 0.26822 0.80864 0.30806 0.0
H1337 H 0.26102 0.78371 0.329 0.0
H1338 H 0.33038 0.83704 0.35162 0.0
H1339 H 0.33786 0.86246 0.33089 0.0
C1340 C 0.37569 0.87794 0.25661 0.0
C1341 C 0.39859 0.88966 0.26503 0.0
C1342 C 0.35456 0.87237 0.26335 0.0
C1343 C 0.35592 0.87874 0.27861 0.0
C1344 C 0.37879 0.89045 0.28703 0.0
C1345 C 0.39988 0.89584 0.28032 0.0
C1346 C 0.33354 0.87282 0.28591 0.0
C1347 C 0.32899 0.85964 0.29837 0.0
C1348 C 0.31648 0.87948 0.28055 0.0
C1349 C 0.32035 0.89398 0.26773 0.0
C1350 C 0.34172 0.9165 0.26769 0.0
C1351 C 0.34525 0.92997 0.25552 0.0
C1352 C 0.32745 0.92122 0.24338 0.0
C1353 C 0.30604 0.89901 0.24339 0.0
C1354 C 0.30244 0.88543 0.25551 0.0
C1355 C 0.25053 0.8559 0.33043 0.0
C1356 C 0.22739 0.84475 0.32232 0.0
C1357 C 0.27119 0.86093 0.3233 0.0
C1358 C 0.26913 0.85458 0.30796 0.0
C1359 C 0.24604 0.84348 0.29986 0.0
C1360 C 0.22541 0.83863 0.30694 0.0
C1361 C 0.29105 0.85986 0.30032 0.0
C1362 C 0.29548 0.87285 0.28779 0.0
C1363 C 0.30789 0.85283 0.30551 0.0
C1364 C 0.30349 0.83756 0.31798 0.0
C1365 C 0.28186 0.81514 0.31755 0.0
C1366 C 0.27774 0.80091 0.32937 0.0
C1367 C 0.2952 0.80882 0.34165 0.0
C1368 C 0.31685 0.83095 0.34211 0.0
C1369 C 0.32105 0.84527 0.33032 0.0
H1370 H 0.29198 0.79777 0.3508 0.0
H1371 H 0.33022 0.93169 0.23398 0.0
H1372 H 0.03323 0.45279 0.27609 0.0
H1373 H 0.04791 0.42793 0.28745 0.0
H1374 H 0.11219 0.4926 0.30779 0.0
H1375 H 0.09818 0.51753 0.29598 0.0
H1376 H 0.12394 0.46205 0.29503 0.0
H1377 H 0.066 0.45665 0.32818 0.0
H1378 H 0.02601 0.44874 0.33508 0.0
H1379 H 0.99349 0.37459 0.3167 0.0
H1380 H 0.03325 0.38215 0.3095 0.0
H1381 H 0.16622 0.40455 0.34377 0.0
H1382 H 0.14966 0.42939 0.33475 0.0
H1383 H 0.08896 0.36596 0.31039 0.0
H1384 H 0.10529 0.34096 0.31931 0.0
H1385 H 0.0754 0.39595 0.32578 0.0
H1386 H 0.13312 0.40181 0.29212 0.0
H1387 H 0.1732 0.40956 0.2855 0.0
H1388 H 0.20615 0.48308 0.30516 0.0
H1389 H 0.16629 0.47564 0.31211 0.0
C1390 C 0.0505 0.46169 0.28297 0.0
C1391 C 0.06451 0.48712 0.28516 0.0
C1392 C 0.05875 0.44748 0.28957 0.0
C1393 C 0.08103 0.45844 0.29858 0.0
C1394 C 0.09491 0.48379 0.30091 0.0
C1395 C 0.08675 0.498 0.29427 0.0
C1396 C 0.0904 0.44354 0.3051 0.0
C1397 C 0.11347 0.44786 0.30195 0.0
C1398 C 0.07649 0.42465 0.31382 0.0
C1399 C 0.05257 0.42003 0.31818 0.0
C1400 C 0.05029 0.43871 0.3255 0.0
C1401 C 0.02767 0.43428 0.32949 0.0
C1402 C 0.00721 0.41119 0.3263 0.0
C1403 C 0.00935 0.39247 0.31915 0.0
C1404 C 0.03193 0.39681 0.31513 0.0
C1405 C 0.14928 0.39585 0.33656 0.0
C1406 C 0.13713 0.37081 0.3322 0.0
C1407 C 0.1399 0.41007 0.3314 0.0
C1408 C 0.1182 0.39947 0.32185 0.0
C1409 C 0.10572 0.37442 0.31777 0.0
C1410 C 0.11516 0.36022 0.32282 0.0
C1411 C 0.10888 0.4146 0.31575 0.0
C1412 C 0.08585 0.41026 0.31893 0.0
C1413 C 0.12282 0.4335 0.30707 0.0
C1414 C 0.14676 0.43809 0.30277 0.0
C1415 C 0.14894 0.41957 0.29514 0.0
C1416 C 0.17162 0.42392 0.29131 0.0
C1417 C 0.19222 0.44678 0.29495 0.0
C1418 C 0.19018 0.46537 0.30238 0.0
C1419 C 0.16755 0.4611 0.30625 0.0
H1420 H 0.20976 0.45011 0.29198 0.0
H1421 H 0.98971 0.4078 0.32939 0.0
H1422 H 0.37361 0.47892 0.25054 0.0
H1423 H 0.33718 0.45481 0.26298 0.0
H1424 H 0.38223 0.46747 0.30382 0.0
H1425 H 0.41872 0.4913 0.29141 0.0
H1426 H 0.34546 0.41975 0.29793 0.0
H1427 H 0.3541 0.49912 0.29954 0.0
H1428 H 0.35875 0.53572 0.28894 0.0
H1429 H 0.29072 0.49279 0.26176 0.0
H1430 H 0.28584 0.45585 0.27205 0.0
H1431 H 0.25317 0.38202 0.34683 0.0
H1432 H 0.28988 0.4069 0.33487 0.0
H1433 H 0.24564 0.39683 0.29413 0.0
H1434 H 0.20891 0.37212 0.30596 0.0
H1435 H 0.2822 0.44351 0.30014 0.0
H1436 H 0.27322 0.36449 0.29766 0.0
H1437 H 0.26795 0.32705 0.30733 0.0
H1438 H 0.33568 0.3681 0.33505 0.0
H1439 H 0.34117 0.40589 0.32571 0.0
C1440 C 0.37574 0.47637 0.26213 0.0
C1441 C 0.39901 0.48707 0.27002 0.0
C1442 C 0.35493 0.46275 0.26925 0.0
C1443 C 0.35702 0.45957 0.28436 0.0
C1444 C 0.38023 0.46978 0.29217 0.0
C1445 C 0.40102 0.48351 0.2851 0.0
C1446 C 0.33499 0.44578 0.29207 0.0
C1447 C 0.33178 0.42513 0.29861 0.0
C1448 C 0.31689 0.45249 0.29261 0.0
C1449 C 0.31973 0.47469 0.28646 0.0
C1450 C 0.34023 0.49745 0.29121 0.0
C1451 C 0.34289 0.51827 0.28528 0.0
C1452 C 0.32507 0.51657 0.27465 0.0
C1453 C 0.30452 0.49407 0.26997 0.0
C1454 C 0.30179 0.47319 0.27586 0.0
C1455 C 0.25124 0.38524 0.33536 0.0
C1456 C 0.22811 0.375 0.32735 0.0
C1457 C 0.27224 0.39936 0.32852 0.0
C1458 C 0.27048 0.4035 0.31356 0.0
C1459 C 0.24741 0.39385 0.30567 0.0
C1460 C 0.22643 0.37965 0.31246 0.0
C1461 C 0.29268 0.41749 0.30603 0.0
C1462 C 0.29591 0.43817 0.29951 0.0
C1463 C 0.31071 0.41071 0.30541 0.0
C1464 C 0.30748 0.38806 0.3111 0.0
C1465 C 0.28688 0.36558 0.30592 0.0
C1466 C 0.28387 0.34429 0.31133 0.0
C1467 C 0.30144 0.34521 0.32182 0.0
C1468 C 0.32207 0.36743 0.32693 0.0
C1469 C 0.32514 0.38879 0.32159 0.0
H1470 H 0.2991 0.32868 0.32593 0.0
H1471 H 0.32716 0.53271 0.27007 0.0
H1472 H 0.45107 0.8551 0.27233 0.0
H1473 H 0.48105 0.8461 0.28396 0.0
H1474 H 0.53922 0.91345 0.27208 0.0
H1475 H 0.50934 0.92271 0.26054 0.0
H1476 H 0.54803 0.87655 0.26631 0.0
H1477 H 0.52504 0.90827 0.30738 0.0
H1478 H 0.4966 0.9114 0.32339 0.0
H1479 H 0.47001 0.83808 0.33345 0.0
H1480 H 0.49806 0.83439 0.31732 0.0
H1481 H 0.64141 0.87343 0.31331 0.0
H1482 H 0.61391 0.88454 0.30042 0.0
H1483 H 0.55219 0.82162 0.31407 0.0
H1484 H 0.57954 0.81096 0.32737 0.0
H1485 H 0.54665 0.8586 0.31883 0.0
H1486 H 0.57061 0.82728 0.27736 0.0
H1487 H 0.59892 0.8249 0.26088 0.0
H1488 H 0.62424 0.89825 0.25135 0.0
H1489 H 0.59643 0.90125 0.26799 0.0
C1490 C 0.47023 0.86814 0.27234 0.0
C1491 C 0.47777 0.88967 0.26554 0.0
C1492 C 0.48737 0.86293 0.27894 0.0
C1493 C 0.51241 0.87919 0.279 0.0
C1494 C 0.52001 0.9006 0.27213 0.0
C1495 C 0.50288 0.90584 0.26552 0.0
C1496 C 0.53062 0.87386 0.28627 0.0
C1497 C 0.54797 0.87291 0.27785 0.0
C1498 C 0.53031 0.8688 0.30126 0.0
C1499 C 0.51349 0.87099 0.31103 0.0
C1500 C 0.51299 0.89275 0.31291 0.0
C1501 C 0.49697 0.89463 0.32203 0.0
C1502 C 0.48146 0.87493 0.3294 0.0
C1503 C 0.48201 0.85332 0.32771 0.0
C1504 C 0.49798 0.85133 0.3186 0.0
C1505 C 0.62197 0.8619 0.31349 0.0
C1506 C 0.61268 0.84137 0.32143 0.0
C1507 C 0.60623 0.8682 0.30603 0.0
C1508 C 0.58089 0.8538 0.30612 0.0
C1509 C 0.57164 0.83309 0.31386 0.0
C1510 C 0.58733 0.82699 0.32146 0.0
C1511 C 0.56389 0.86074 0.29882 0.0
C1512 C 0.54678 0.86216 0.30727 0.0
C1513 C 0.56454 0.86629 0.28387 0.0
C1514 C 0.58159 0.86457 0.27406 0.0
C1515 C 0.5824 0.843 0.27188 0.0
C1516 C 0.59834 0.84152 0.26249 0.0
C1517 C 0.6134 0.86143 0.25509 0.0
C1518 C 0.61259 0.88286 0.2571 0.0
C1519 C 0.59676 0.88446 0.26652 0.0
H1520 H 0.62563 0.86025 0.24776 0.0
H1521 H 0.46907 0.87643 0.33646 0.0
H1522 H 0.02848 0.56281 0.27551 0.0
H1523 H 0.0404 0.6036 0.28645 0.0
H1524 H 0.10755 0.61151 0.30664 0.0
H1525 H 0.09596 0.57101 0.29565 0.0
H1526 H 0.08689 0.629 0.32564 0.0
H1527 H 0.10685 0.63563 0.275 0.0
H1528 H 0.09795 0.62568 0.24785 0.0
H1529 H 0.04529 0.64918 0.24756 0.0
H1530 H 0.05363 0.65894 0.27477 0.0
H1531 H 0.16327 0.75598 0.33906 0.0
H1532 H 0.14456 0.71301 0.33044 0.0
H1533 H 0.08148 0.71365 0.31048 0.0
H1534 H 0.1002 0.75675 0.31885 0.0
H1535 H 0.09643 0.69093 0.29184 0.0
H1536 H 0.07898 0.68749 0.34242 0.0
H1537 H 0.08831 0.69768 0.36954 0.0
H1538 H 0.13631 0.66846 0.37007 0.0
H1539 H 0.12754 0.6584 0.34291 0.0
C1540 C 0.04577 0.57326 0.28229 0.0
C1541 C 0.06131 0.56373 0.28469 0.0
C1542 C 0.0525 0.59649 0.28856 0.0
C1543 C 0.07493 0.61059 0.29724 0.0
C1544 C 0.09012 0.60085 0.30002 0.0
C1545 C 0.08342 0.57767 0.29377 0.0
C1546 C 0.08319 0.63591 0.30293 0.0
C1547 C 0.08914 0.64261 0.31827 0.0
C1548 C 0.08558 0.65346 0.2933 0.0
C1549 C 0.08066 0.64775 0.27694 0.0
C1550 C 0.09323 0.63849 0.26916 0.0
C1551 C 0.08831 0.63291 0.25376 0.0
C1552 C 0.07101 0.63672 0.24599 0.0
C1553 C 0.05865 0.64619 0.2536 0.0
C1554 C 0.06347 0.65176 0.26901 0.0
C1555 C 0.14538 0.74698 0.33288 0.0
C1556 C 0.13321 0.75977 0.32965 0.0
C1557 C 0.13466 0.72239 0.32803 0.0
C1558 C 0.11151 0.71009 0.31998 0.0
C1559 C 0.09934 0.72281 0.31671 0.0
C1560 C 0.11006 0.74742 0.32153 0.0
C1561 C 0.10037 0.68414 0.31457 0.0
C1562 C 0.09391 0.67731 0.29927 0.0
C1563 C 0.09754 0.66648 0.32424 0.0
C1564 C 0.10274 0.67236 0.3406 0.0
C1565 C 0.09166 0.68339 0.3483 0.0
C1566 C 0.09683 0.68912 0.36369 0.0
C1567 C 0.11293 0.68377 0.37152 0.0
C1568 C 0.12385 0.67261 0.36399 0.0
C1569 C 0.11877 0.66686 0.3486 0.0
H1570 H 0.11691 0.68822 0.38343 0.0
H1571 H 0.06723 0.6324 0.23407 0.0
H1572 H 0.87527 0.07604 0.40779 0.0
H1573 H 0.84441 0.03581 0.39631 0.0
H1574 H 0.78827 0.04504 0.41463 0.0
H1575 H 0.81884 0.08561 0.42575 0.0
H1576 H 0.78492 6e-05 0.41903 0.0
H1577 H 0.79335 0.05005 0.37953 0.0
H1578 H 0.81593 0.0803 0.3624 0.0
H1579 H 0.84201 0.03489 0.34426 0.0
H1580 H 0.81986 0.0045 0.36144 0.0
H1581 H 0.68318 0.89854 0.37743 0.0
H1582 H 0.71274 0.93929 0.38887 0.0
H1583 H 0.76937 0.93615 0.36676 0.0
H1584 H 0.73995 0.8957 0.35508 0.0
H1585 H 0.77193 0.97849 0.3645 0.0
H1586 H 0.76471 0.92878 0.40363 0.0
H1587 H 0.74317 0.89818 0.42079 0.0
H1588 H 0.71637 0.94231 0.43991 0.0
H1589 H 0.73745 0.97304 0.42268 0.0
C1590 C 0.85633 0.06971 0.4092 0.0
C1591 C 0.84956 0.08411 0.4177 0.0
C1592 C 0.83875 0.04665 0.40271 0.0
C1593 C 0.81409 0.03751 0.40463 0.0
C1594 C 0.80724 0.05174 0.41311 0.0
C1595 C 0.82476 0.07488 0.41949 0.0
C1596 C 0.79545 0.01307 0.3978 0.0
C1597 C 0.78179 0.99537 0.4071 0.0
C1598 C 0.79189 0.00692 0.38227 0.0
C1599 C 0.80514 0.02511 0.37188 0.0
C1600 C 0.80407 0.0466 0.37198 0.0
C1601 C 0.81676 0.06376 0.36224 0.0
C1602 C 0.83045 0.05955 0.35228 0.0
C1603 C 0.83142 0.03814 0.352 0.0
C1604 C 0.81879 0.02094 0.36173 0.0
C1605 C 0.70193 0.90651 0.37501 0.0
C1606 C 0.70919 0.89384 0.36534 0.0
C1607 C 0.71882 0.92976 0.38161 0.0
C1608 C 0.74331 0.94066 0.37878 0.0
C1609 C 0.75056 0.92809 0.3691 0.0
C1610 C 0.7337 0.90492 0.36246 0.0
C1611 C 0.76139 0.96532 0.38572 0.0
C1612 C 0.77497 0.9831 0.37644 0.0
C1613 C 0.76502 0.97146 0.40128 0.0
C1614 C 0.75244 0.95309 0.41173 0.0
C1615 C 0.75406 0.93188 0.4114 0.0
C1616 C 0.74196 0.91453 0.42116 0.0
C1617 C 0.72834 0.91826 0.4314 0.0
C1618 C 0.72688 0.93942 0.43195 0.0
C1619 C 0.73891 0.95682 0.42219 0.0
H1620 H 0.71895 0.90477 0.43891 0.0
H1621 H 0.84025 0.07284 0.34474 0.0
H1622 H 0.93657 0.80752 0.41415 0.0
H1623 H 0.9732 0.8178 0.40196 0.0
H1624 H 0.97355 0.75512 0.41706 0.0
H1625 H 0.93665 0.74443 0.42906 0.0
H1626 H 0.01876 0.79539 0.42124 0.0
H1627 H 0.95424 0.75428 0.38154 0.0
H1628 H 0.91786 0.74678 0.36557 0.0
H1629 H 0.95747 0.81808 0.35136 0.0
H1630 H 0.99401 0.82613 0.36743 0.0
H1631 H 0.10388 0.79166 0.37624 0.0
H1632 H 0.06805 0.78292 0.38877 0.0
H1633 H 0.06367 0.84037 0.36845 0.0
H1634 H 0.09905 0.84853 0.35535 0.0
H1635 H 0.02056 0.80365 0.36722 0.0
H1636 H 0.08557 0.84473 0.40674 0.0
H1637 H 0.12141 0.85264 0.42349 0.0
H1638 H 0.08099 0.78204 0.43847 0.0
H1639 H 0.04499 0.77357 0.4217 0.0
C1640 C 0.94427 0.79576 0.41477 0.0
C1641 C 0.93354 0.77507 0.42255 0.0
C1642 C 0.96527 0.80172 0.40782 0.0
C1643 C 0.976 0.7871 0.40848 0.0
C1644 C 0.96561 0.76668 0.41643 0.0
C1645 C 0.94455 0.76066 0.42334 0.0
C1646 C -0.00191 0.79313 0.4009 0.0
C1647 C 0.01911 0.79693 0.4094 0.0
C1648 C -0.0013 0.79574 0.38552 0.0
C1649 C 0.97678 0.79089 0.3758 0.0
C1650 C 0.95513 0.76843 0.37511 0.0
C1651 C 0.93449 0.76407 0.36602 0.0
C1652 C 0.93533 0.78197 0.35749 0.0
C1653 C 0.95684 0.80425 0.35799 0.0
C1654 C 0.97752 0.80871 0.36708 0.0
C1655 C 0.09537 0.80252 0.37446 0.0
C1656 C 0.10439 0.82085 0.3648 0.0
C1657 C 0.07492 0.7976 0.38173 0.0
C1658 C 0.06332 0.81128 0.37983 0.0
C1659 C 0.07228 0.82957 0.37016 0.0
C1660 C 0.09254 0.83425 0.36268 0.0
C1661 C 0.04145 0.806 0.38756 0.0
C1662 C 0.02037 0.80227 0.37909 0.0
C1663 C 0.04083 0.80353 0.40299 0.0
C1664 C 0.06264 0.80845 0.41287 0.0
C1665 C 0.08439 0.83081 0.4135 0.0
C1666 C 0.10472 0.8354 0.42302 0.0
C1667 C 0.10345 0.81783 0.43201 0.0
C1668 C 0.08191 0.79561 0.43149 0.0
C1669 C 0.06155 0.79092 0.422 0.0
H1670 H 0.11907 0.82143 0.43943 0.0
H1671 H 0.91933 0.77856 0.35046 0.0
H1672 H 0.26438 0.18626 0.42595 0.0
H1673 H 0.2478 0.20898 0.41398 0.0
H1674 H 0.27796 0.20349 0.37364 0.0
H1675 H 0.29523 0.18109 0.38572 0.0
H1676 H 0.28263 0.24932 0.3805 0.0
H1677 H 0.2207 0.16581 0.37538 0.0
H1678 H 0.1948 0.12576 0.38399 0.0
H1679 H 0.16407 0.15641 0.41299 0.0
H1680 H 0.1901 0.19676 0.40474 0.0
H1681 H 0.20597 0.28169 0.33791 0.0
H1682 H 0.22553 0.25909 0.34635 0.0
H1683 H 0.1999 0.2581 0.38935 0.0
H1684 H 0.18034 0.28064 0.38106 0.0
H1685 H 0.19304 0.21368 0.37849 0.0
H1686 H 0.25659 0.29744 0.3847 0.0
H1687 H 0.28307 0.33775 0.37659 0.0
H1688 H 0.31105 0.30675 0.34569 0.0
H1689 H 0.28431 0.26613 0.35338 0.0
C1690 C 0.268 0.19034 0.41464 0.0
C1691 C 0.28109 0.18186 0.40676 0.0
C1692 C 0.25831 0.20312 0.40778 0.0
C1693 C 0.26137 0.20755 0.39288 0.0
C1694 C 0.27532 0.2001 0.38514 0.0
C1695 C 0.28503 0.18722 0.39201 0.0
C1696 C 0.24895 0.21899 0.38533 0.0
C1697 C 0.26301 0.24136 0.37979 0.0
C1698 C 0.22338 0.20866 0.38463 0.0
C1699 C 0.2075 0.18436 0.38952 0.0
C1700 C 0.20855 0.16405 0.38367 0.0
C1701 C 0.19383 0.14129 0.38848 0.0
C1702 C 0.17783 0.13855 0.39905 0.0
C1703 C 0.17648 0.15857 0.40481 0.0
C1704 C 0.1912 0.18139 0.40006 0.0
C1705 C 0.20436 0.27651 0.34913 0.0
C1706 C 0.19167 0.283 0.35884 0.0
C1707 C 0.21564 0.26372 0.35394 0.0
C1708 C 0.21429 0.25714 0.3685 0.0
C1709 C 0.20114 0.26306 0.37808 0.0
C1710 C 0.19005 0.27599 0.37333 0.0
C1711 C 0.22674 0.24426 0.3739 0.0
C1712 C 0.21264 0.22153 0.37902 0.0
C1713 C 0.25224 0.25429 0.37419 0.0
C1714 C 0.2682 0.27868 0.36948 0.0
C1715 C 0.26817 0.29916 0.37604 0.0
C1716 C 0.28325 0.32207 0.37154 0.0
C1717 C 0.29866 0.3248 0.36059 0.0
C1718 C 0.29903 0.3046 0.35413 0.0
C1719 C 0.2839 0.28163 0.35855 0.0
H1720 H 0.31038 0.34257 0.35716 0.0
H1721 H 0.16644 0.12091 0.40276 0.0
H1722 H 0.60135 0.53832 0.75945 0.0
H1723 H 0.63824 0.56602 0.7486 0.0
H1724 H 0.64202 0.50514 0.72871 0.0
H1725 H 0.60575 0.47739 0.74002 0.0
H1726 H 0.68593 0.53981 0.74035 0.0
H1727 H 0.62082 0.53586 0.70824 0.0
H1728 H 0.58397 0.5385 0.70194 0.0
H1729 H 0.62207 0.61353 0.71919 0.0
H1730 H 0.65908 0.61124 0.72579 0.0
H1731 H 0.76463 0.59981 0.68525 0.0
H1732 H 0.72722 0.57351 0.69628 0.0
H1733 H 0.73658 0.63495 0.72433 0.0
H1734 H 0.77429 0.66128 0.71363 0.0
H1735 H 0.68655 0.60097 0.70864 0.0
H1736 H 0.75141 0.6043 0.74107 0.0
H1737 H 0.78854 0.60174 0.74638 0.0
H1738 H 0.7506 0.52749 0.72753 0.0
H1739 H 0.71332 0.52975 0.72191 0.0
C1740 C 0.61016 0.53083 0.75289 0.0
C1741 C 0.60051 0.50561 0.75055 0.0
C1742 C 0.63112 0.54668 0.74657 0.0
C1743 C 0.64272 0.53765 0.73767 0.0
C1744 C 0.63332 0.51252 0.73548 0.0
C1745 C 0.61244 0.49667 0.74184 0.0
C1746 C 0.66465 0.55435 0.73064 0.0
C1747 C 0.68592 0.55297 0.73328 0.0
C1748 C 0.66486 0.57187 0.72163 0.0
C1749 C 0.64264 0.57331 0.71765 0.0
C1750 C 0.62129 0.55287 0.7108 0.0
C1751 C 0.60038 0.55431 0.70716 0.0
C1752 C 0.60066 0.57615 0.7102 0.0
C1753 C 0.62187 0.59661 0.71686 0.0
C1754 C 0.64282 0.59526 0.72055 0.0
C1755 C 0.75859 0.60775 0.69366 0.0
C1756 C 0.77238 0.63257 0.69861 0.0
C1757 C 0.7373 0.59272 0.69996 0.0
C1758 C 0.72928 0.60236 0.71111 0.0
C1759 C 0.74253 0.62725 0.71572 0.0
C1760 C 0.76408 0.6422 0.70965 0.0
C1761 C 0.70754 0.58625 0.71835 0.0
C1762 C 0.68641 0.58778 0.71574 0.0
C1763 C 0.70741 0.56883 0.72733 0.0
C1764 C 0.72966 0.56727 0.73092 0.0
C1765 C 0.75104 0.58749 0.73794 0.0
C1766 C 0.77211 0.58609 0.74103 0.0
C1767 C 0.77195 0.56449 0.73725 0.0
C1768 C 0.7507 0.54422 0.73043 0.0
C1769 C 0.72959 0.54554 0.7273 0.0
H1770 H 0.78829 0.56344 0.73963 0.0
H1771 H 0.58446 0.57724 0.70737 0.0
H1772 H 0.49233 0.08088 0.76821 0.0
H1773 H 0.46215 0.08925 0.75648 0.0
H1774 H 0.51814 0.14703 0.73534 0.0
H1775 H 0.54881 0.14002 0.74797 0.0
H1776 H 0.48942 0.16133 0.74408 0.0
H1777 H 0.4763 0.08905 0.71659 0.0
H1778 H 0.46883 0.04728 0.71268 0.0
H1779 H 0.40097 0.02062 0.73155 0.0
H1780 H 0.40818 0.06229 0.73575 0.0
H1781 H 0.40606 0.15716 0.68351 0.0
H1782 H 0.43547 0.14869 0.69668 0.0
H1783 H 0.3916 0.12709 0.73325 0.0
H1784 H 0.36239 0.13621 0.72037 0.0
H1785 H 0.41332 0.09457 0.71658 0.0
H1786 H 0.43003 0.17003 0.74497 0.0
H1787 H 0.4381 0.21211 0.7462 0.0
H1788 H 0.50065 0.23259 0.72241 0.0
H1789 H 0.49266 0.19049 0.72083 0.0
C1790 C 0.49839 0.09565 0.76127 0.0
C1791 C 0.52315 0.10975 0.75908 0.0
C1792 C 0.48097 0.10017 0.75435 0.0
C1793 C 0.48771 0.11849 0.74476 0.0
C1794 C 0.5124 0.13271 0.74262 0.0
C1795 C 0.52992 0.12845 0.74972 0.0
C1796 C 0.46906 0.12294 0.73707 0.0
C1797 C 0.47291 0.14667 0.73799 0.0
C1798 C 0.44732 0.10391 0.72915 0.0
C1799 C 0.4429 0.07882 0.72662 0.0
C1800 C 0.45987 0.0743 0.72 0.0
C1801 C 0.45567 0.05064 0.71772 0.0
C1802 C 0.43447 0.03131 0.7219 0.0
C1803 C 0.4174 0.03561 0.72834 0.0
C1804 C 0.42152 0.05924 0.73066 0.0
C1805 C 0.40262 0.15054 0.69434 0.0
C1806 C 0.38193 0.14737 0.70092 0.0
C1807 C 0.41944 0.14577 0.70184 0.0
C1808 C 0.41565 0.13734 0.71591 0.0
C1809 C 0.39479 0.13364 0.7224 0.0
C1810 C 0.3782 0.13892 0.71505 0.0
C1811 C 0.43372 0.13267 0.72384 0.0
C1812 C 0.4298 0.10901 0.72282 0.0
C1813 C 0.45552 0.15174 0.73146 0.0
C1814 C 0.46057 0.17709 0.73262 0.0
C1815 C 0.44535 0.18346 0.73987 0.0
C1816 C 0.44994 0.20732 0.74066 0.0
C1817 C 0.46982 0.225 0.73434 0.0
C1818 C 0.48522 0.21887 0.72728 0.0
C1819 C 0.48068 0.19502 0.72643 0.0
H1820 H 0.47334 0.24346 0.73496 0.0
H1821 H 0.43125 0.01301 0.72012 0.0
H1822 H 0.88471 0.41834 0.73561 0.0
H1823 H 0.87157 0.37746 0.7246 0.0
H1824 H 0.93912 0.38395 0.74286 0.0
H1825 H 0.95298 0.42541 0.75324 0.0
H1826 H 0.92723 0.36247 0.71552 0.0
H1827 H 0.88595 0.35235 0.75919 0.0
H1828 H 0.86031 0.35827 0.77632 0.0
H1829 H 0.79994 0.32609 0.74232 0.0
H1830 H 0.82532 0.32028 0.72492 0.0
H1831 H 0.88651 0.23601 0.70768 0.0
H1832 H 0.90105 0.27751 0.71833 0.0
H1833 H 0.83764 0.27541 0.69655 0.0
H1834 H 0.8229 0.23393 0.68586 0.0
H1835 H 0.84785 0.29434 0.72602 0.0
H1836 H 0.89018 0.30479 0.6824 0.0
H1837 H 0.91618 0.29831 0.66586 0.0
H1838 H 0.97519 0.32928 0.70074 0.0
H1839 H 0.94941 0.33562 0.71757 0.0
C1840 C 0.89697 0.41126 0.73709 0.0
C1841 C 0.91989 0.42515 0.74536 0.0
C1842 C 0.88929 0.38775 0.73094 0.0
C1843 C 0.90418 0.3775 0.73315 0.0
C1844 C 0.92727 0.39146 0.74111 0.0
C1845 C 0.93507 0.41507 0.74715 0.0
C1846 C 0.89558 0.35215 0.72722 0.0
C1847 C 0.91003 0.34754 0.71799 0.0
C1848 C 0.87295 0.33271 0.73025 0.0
C1849 C 0.85761 0.33609 0.74071 0.0
C1850 C 0.86726 0.3467 0.75533 0.0
C1851 C 0.85276 0.35001 0.7651 0.0
C1852 C 0.82853 0.34262 0.7604 0.0
C1853 C 0.81872 0.33184 0.74594 0.0
C1854 C 0.83315 0.32851 0.73612 0.0
C1855 C 0.87564 0.24435 0.70515 0.0
C1856 C 0.8536 0.23171 0.69586 0.0
C1857 C 0.88402 0.26808 0.71121 0.0
C1858 C 0.8705 0.27953 0.7081 0.0
C1859 C 0.84833 0.26685 0.69904 0.0
C1860 C 0.84 0.24319 0.69291 0.0
C1861 C 0.87944 0.30476 0.7143 0.0
C1862 C 0.86506 0.30931 0.72359 0.0
C1863 C 0.9022 0.32409 0.71143 0.0
C1864 C 0.91778 0.32045 0.70129 0.0
C1865 C 0.90864 0.31004 0.68658 0.0
C1866 C 0.92335 0.30642 0.67715 0.0
C1867 C 0.9473 0.31332 0.68226 0.0
C1868 C 0.95662 0.32391 0.69681 0.0
C1869 C 0.94197 0.32754 0.70629 0.0
H1870 H 0.95866 0.3105 0.67494 0.0
H1871 H 0.81734 0.34519 0.76798 0.0
H1872 H 0.15578 0.92603 0.58566 0.0
H1873 H 0.18683 0.96474 0.59878 0.0
H1874 H 0.18219 0.9303 0.63896 0.0
H1875 H 0.15136 0.89128 0.62583 0.0
H1876 H 0.18134 0.97287 0.64362 0.0
H1877 H 0.23026 0.94586 0.62022 0.0
H1878 H 0.24321 0.93001 0.5994 0.0
H1879 H 0.25885 0.99264 0.57675 0.0
H1880 H 0.24565 0.00871 0.59735 0.0
H1881 H 0.28413 0.07826 0.68165 0.0
H1882 H 0.25637 0.03664 0.67077 0.0
H1883 H 0.25945 0.06174 0.62734 0.0
H1884 H 0.28758 0.10318 0.63803 0.0
H1885 H 0.26239 0.02195 0.62581 0.0
H1886 H 0.2106 0.04741 0.64777 0.0
H1887 H 0.1968 0.06339 0.66807 0.0
H1888 H 0.18581 0.00402 0.69283 0.0
H1889 H 0.19987 0.98784 0.67276 0.0
C1890 C 0.1616 0.92657 0.59723 0.0
C1891 C 0.15116 0.90551 0.60467 0.0
C1892 C 0.1793 0.94874 0.60472 0.0
C1893 C 0.18696 0.95033 0.6198 0.0
C1894 C 0.1765 0.92943 0.62732 0.0
C1895 C 0.15884 0.90719 0.61981 0.0
C1896 C 0.20554 0.97398 0.62773 0.0
C1897 C 0.19924 0.98345 0.63991 0.0
C1898 C 0.22867 0.98793 0.62266 0.0
C1899 C 0.23678 0.97839 0.61029 0.0
C1900 C 0.23629 0.95617 0.61075 0.0
C1901 C 0.2437 0.94716 0.599 0.0
C1902 C 0.2518 0.96029 0.58675 0.0
C1903 C 0.25256 0.98248 0.58625 0.0
C1904 C 0.24514 0.99156 0.59797 0.0
C1905 C 0.27892 0.07491 0.66978 0.0
C1906 C 0.288 0.09406 0.66072 0.0
C1907 C 0.26298 0.05112 0.66359 0.0
C1908 C 0.2556 0.0461 0.64826 0.0
C1909 C 0.2649 0.06516 0.63919 0.0
C1910 C 0.28094 0.08888 0.64534 0.0
C1911 C 0.23808 0.02107 0.64158 0.0
C1912 C 0.24459 0.01131 0.62963 0.0
C1913 C 0.21508 0.00692 0.64679 0.0
C1914 C 0.20655 0.01657 0.65884 0.0
C1915 C 0.20542 0.03786 0.6576 0.0
C1916 C 0.19752 0.04694 0.66905 0.0
C1917 C 0.1905 0.03477 0.68175 0.0
C1918 C 0.19129 0.01345 0.683 0.0
C1919 C 0.19921 0.00431 0.67159 0.0
H1920 H 0.18439 0.04182 0.6906 0.0
H1921 H 0.25753 0.95328 0.57765 0.0
H1922 H 0.06197 0.25095 0.59391 0.0
H1923 H 0.02564 0.24156 0.60615 0.0
H1924 H 0.02353 0.17752 0.62085 0.0
H1925 H 0.05917 0.18613 0.608 0.0
H1926 H 0.97912 0.16762 0.61173 0.0
H1927 H 0.0453 0.23049 0.64446 0.0
H1928 H 0.08205 0.27035 0.65151 0.0
H1929 H 0.04234 0.30591 0.63892 0.0
H1930 H 0.00542 0.26624 0.6316 0.0
H1931 H 0.89896 0.1497 0.66755 0.0
H1932 H 0.93524 0.15849 0.65523 0.0
H1933 H 0.93246 0.21697 0.63536 0.0
H1934 H 0.89616 0.20826 0.64751 0.0
H1935 H 0.97931 0.22946 0.6475 0.0
H1936 H 0.91321 0.16616 0.61467 0.0
H1937 H 0.87641 0.12614 0.60826 0.0
H1938 H 0.91629 0.0912 0.62182 0.0
H1939 H 0.95327 0.13107 0.62853 0.0
C1940 C 0.05363 0.23469 0.59958 0.0
C1941 C 0.06365 0.21937 0.6 0.0
C1942 C 0.03298 0.22949 0.60674 0.0
C1943 C 0.02203 0.20904 0.61466 0.0
C1944 C 0.03171 0.19349 0.6149 0.0
C1945 C 0.05227 0.19858 0.60766 0.0
C1946 C 0.0005 0.20388 0.6227 0.0
C1947 C 0.97932 0.18105 0.61971 0.0
C1948 C 0.0005 0.22151 0.63292 0.0
C1949 C 0.02266 0.24539 0.63735 0.0
C1950 C 0.04445 0.24681 0.64309 0.0
C1951 C 0.0653 0.26937 0.64715 0.0
C1952 C 0.06455 0.29065 0.64562 0.0
C1953 C 0.04291 0.28941 0.64007 0.0
C1954 C 0.02201 0.2669 0.63598 0.0
C1955 C 0.90611 0.1645 0.66061 0.0
C1956 C 0.89461 0.17825 0.65851 0.0
C1957 C 0.92679 0.16943 0.65353 0.0
C1958 C 0.93646 0.1883 0.64432 0.0
C1959 C 0.92531 0.20234 0.64243 0.0
C1960 C 0.90449 0.19726 0.64935 0.0
C1961 C 0.95808 0.19329 0.63651 0.0
C1962 C 0.97921 0.21606 0.63955 0.0
C1963 C 0.95809 0.17559 0.6264 0.0
C1964 C 0.93594 0.1516 0.62225 0.0
C1965 C 0.91409 0.14995 0.6164 0.0
C1966 C 0.8932 0.12729 0.61269 0.0
C1967 C 0.89399 0.10614 0.61467 0.0
C1968 C 0.9157 0.1076 0.62032 0.0
C1969 C 0.93663 0.13022 0.62407 0.0
H1970 H 0.87781 0.08861 0.61179 0.0
H1971 H 0.08071 0.3081 0.64877 0.0
H1972 H 0.71154 0.78571 0.60204 0.0
H1973 H 0.7284 0.76159 0.61193 0.0
H1974 H 0.79416 0.8272 0.62951 0.0
H1975 H 0.77785 0.85136 0.6192 0.0
H1976 H 0.80446 0.79454 0.61715 0.0
H1977 H 0.74957 0.79514 0.65152 0.0
H1978 H 0.71008 0.78821 0.65881 0.0
H1979 H 0.67716 0.71249 0.64403 0.0
H1980 H 0.71642 0.71904 0.63647 0.0
H1981 H 0.85473 0.75885 0.67559 0.0
H1982 H 0.83698 0.77674 0.6594 0.0
H1983 H 0.77411 0.70593 0.64687 0.0
H1984 H 0.79119 0.68844 0.66392 0.0
H1985 H 0.76053 0.73711 0.65365 0.0
H1986 H 0.819 0.73668 0.62314 0.0
H1987 H 0.85989 0.74506 0.61778 0.0
H1988 H 0.88722 0.82147 0.62593 0.0
H1989 H 0.84683 0.81366 0.63187 0.0
C1990 C 0.72969 0.79497 0.60788 0.0
C1991 C 0.74327 0.82044 0.60997 0.0
C1992 C 0.73924 0.78118 0.61359 0.0
C1993 C 0.76244 0.79262 0.62157 0.0
C1994 C 0.77621 0.81801 0.6234 0.0
C1995 C 0.76673 0.83179 0.61766 0.0
C1996 C 0.77217 0.7783 0.62853 0.0
C1997 C 0.79496 0.78203 0.62518 0.0
C1998 C 0.75943 0.76158 0.63872 0.0
C1999 C 0.73584 0.75763 0.64327 0.0
C2000 C 0.73386 0.77705 0.64971 0.0
C2001 C 0.71153 0.77319 0.65391 0.0
C2002 C 0.69111 0.74994 0.65184 0.0
C2003 C 0.69299 0.73049 0.6456 0.0
C2004 C 0.71527 0.73427 0.64136 0.0
C2005 C 0.8373 0.74714 0.66918 0.0
C2006 C 0.82472 0.72216 0.6704 0.0
C2007 C 0.82725 0.7573 0.65987 0.0
C2008 C 0.8045 0.74257 0.65159 0.0
C2009 C 0.79188 0.71756 0.65292 0.0
C2010 C 0.80183 0.70749 0.66239 0.0
C2011 C 0.7931 0.75358 0.64249 0.0
C2012 C 0.76994 0.74924 0.64542 0.0
C2013 C 0.80562 0.76983 0.63199 0.0
C2014 C 0.82983 0.77455 0.62804 0.0
C2015 C 0.83374 0.75527 0.62389 0.0
C2016 C 0.85683 0.75991 0.62074 0.0
C2017 C 0.87607 0.78374 0.62146 0.0
C2018 C 0.87229 0.80301 0.62535 0.0
C2019 C 0.84931 0.79849 0.62864 0.0
H2020 H 0.89391 0.78727 0.61901 0.0
H2021 H 0.67384 0.74698 0.6551 0.0
H2022 H 0.06765 0.85862 0.61352 0.0
H2023 H 0.03332 0.8332 0.62702 0.0
H2024 H 0.03333 0.76951 0.60848 0.0
H2025 H 0.06816 0.79494 0.59511 0.0
H2026 H 0.9868 0.7637 0.60802 0.0
H2027 H 0.05726 0.79108 0.64305 0.0
H2028 H 0.09605 0.82152 0.65722 0.0
H2029 H 0.06019 0.85592 0.67748 0.0
H2030 H 0.02124 0.82588 0.66324 0.0
H2031 H 0.90531 0.68456 0.6545 0.0
H2032 H 0.94223 0.7076 0.6424 0.0
H2033 H 0.95236 0.77419 0.66441 0.0
H2034 H 0.91608 0.75097 0.67719 0.0
H2035 H 0.99458 0.77759 0.66299 0.0
H2036 H 0.92407 0.75069 0.62765 0.0
H2037 H 0.88503 0.71951 0.6141 0.0
H2038 H 0.92073 0.68475 0.59408 0.0
H2039 H 0.95988 0.71532 0.60785 0.0
C2040 C 0.06053 0.83923 0.61239 0.0
C2041 C 0.07089 0.82885 0.60338 0.0
C2042 C 0.04083 0.82472 0.62008 0.0
C2043 C 0.03101 0.79953 0.61891 0.0
C2044 C 0.04071 0.78895 0.60955 0.0
C2045 C 0.06054 0.80349 0.60189 0.0
C2046 C 0.0108 0.78436 0.62764 0.0
C2047 C 0.98856 0.76648 0.62005 0.0
C2048 C 0.01301 0.78838 0.64331 0.0
C2049 C 0.03637 0.80635 0.65198 0.0
C2050 C 0.05768 0.80524 0.65044 0.0
C2051 C 0.07969 0.82241 0.6585 0.0
C2052 C 0.0806 0.84067 0.66822 0.0
C2053 C 0.05947 0.84177 0.66993 0.0
C2054 C 0.03741 0.82467 0.66188 0.0
C2055 C 0.9156 0.70411 0.65687 0.0
C2056 C 0.90779 0.71605 0.66667 0.0
C2057 C 0.93662 0.71727 0.64989 0.0
C2058 C 0.94973 0.74271 0.65214 0.0
C2059 C 0.94248 0.75459 0.66241 0.0
C2060 C 0.92177 0.74134 0.66971 0.0
C2061 C 0.97039 0.75695 0.64339 0.0
C2062 C 0.99275 0.77472 0.65096 0.0
C2063 C 0.96823 0.75292 0.62768 0.0
C2064 C 0.94487 0.73517 0.6189 0.0
C2065 C 0.92358 0.73635 0.6204 0.0
C2066 C 0.90142 0.71875 0.61269 0.0
C2067 C 0.90041 0.70014 0.60325 0.0
C2068 C 0.92156 0.69916 0.60142 0.0
C2069 C 0.94373 0.71659 0.60919 0.0
H2070 H 0.88327 0.68643 0.59734 0.0
H2071 H 0.09766 0.85395 0.67445 0.0
H2072 H 0.1536 0.21207 0.57892 0.0
H2073 H 0.18558 0.20588 0.59015 0.0
H2074 H 0.17167 0.22366 0.6337 0.0
H2075 H 0.14089 0.23185 0.62247 0.0
H2076 H 0.21786 0.24332 0.63327 0.0
H2077 H 0.15142 0.16341 0.61838 0.0
H2078 H 0.11889 0.12996 0.6013 0.0
H2079 H 0.17198 0.13193 0.57356 0.0
H2080 H 0.20481 0.16563 0.59037 0.0
H2081 H 0.2677 0.18298 0.67426 0.0
H2082 H 0.23976 0.19345 0.6614 0.0
H2083 H 0.27381 0.19791 0.62119 0.0
H2084 H 0.30238 0.18789 0.63412 0.0
H2085 H 0.21932 0.16785 0.61919 0.0
H2086 H 0.28603 0.24755 0.63641 0.0
H2087 H 0.3169 0.27895 0.65524 0.0
H2088 H 0.2605 0.27455 0.68077 0.0
H2089 H 0.22929 0.24282 0.6622 0.0
C2090 C 0.15753 0.21508 0.59088 0.0
C2091 C 0.14456 0.22255 0.59975 0.0
C2092 C 0.17564 0.21113 0.59732 0.0
C2093 C 0.18082 0.21384 0.61281 0.0
C2094 C 0.16798 0.22133 0.62172 0.0
C2095 C 0.15012 0.22571 0.61527 0.0
C2096 C 0.19973 0.20903 0.6197 0.0
C2097 C 0.21795 0.22668 0.63028 0.0
C2098 C 0.20024 0.1875 0.61567 0.0
C2099 C 0.18055 0.16721 0.60555 0.0
C2100 C 0.15614 0.15683 0.60857 0.0
C2101 C 0.13765 0.13781 0.59895 0.0
C2102 C 0.14336 0.12887 0.58633 0.0
C2103 C 0.16758 0.1389 0.58333 0.0
C2104 C 0.18614 0.15795 0.5929 0.0
C2105 C 0.26934 0.18625 0.66269 0.0
C2106 C 0.28722 0.18457 0.65518 0.0
C2107 C 0.2534 0.19231 0.65538 0.0
C2108 C 0.25478 0.19648 0.64038 0.0
C2109 C 0.27253 0.19477 0.63279 0.0
C2110 C 0.28886 0.18915 0.64019 0.0
C2111 C 0.23718 0.20207 0.63267 0.0
C2112 C 0.21921 0.18453 0.62202 0.0
C2113 C 0.23661 0.22343 0.63684 0.0
C2114 C 0.25533 0.24264 0.64797 0.0
C2115 C 0.28022 0.25312 0.6461 0.0
C2116 C 0.29777 0.27101 0.65672 0.0
C2117 C 0.29067 0.2787 0.66921 0.0
C2118 C 0.26598 0.26855 0.6711 0.0
C2119 C 0.24835 0.25064 0.66052 0.0
H2120 H 0.30429 0.29255 0.67742 0.0
H2121 H 0.12902 0.11414 0.5789 0.0
H2122 H 0.70011 0.8914 0.6096 0.0
H2123 H 0.71262 0.93251 0.62029 0.0
H2124 H 0.78494 0.94514 0.63252 0.0
H2125 H 0.77278 0.90441 0.62158 0.0
H2126 H 0.73184 0.95804 0.64785 0.0
H2127 H 0.82528 0.00185 0.62415 0.0
H2128 H 0.8441 0.99413 0.6031 0.0
H2129 H 0.77405 0.95398 0.57771 0.0
H2130 H 0.75488 0.96179 0.59849 0.0
H2131 H 0.80754 0.07801 0.6812 0.0
H2132 H 0.79097 0.03581 0.67145 0.0
H2133 H 0.78215 0.05395 0.62723 0.0
H2134 H 0.79933 0.09638 0.63684 0.0
H2135 H 0.80043 0.02532 0.62657 0.0
H2136 H 0.73335 0.02492 0.64791 0.0
H2137 H 0.71236 0.03281 0.66757 0.0
H2138 H 0.725 0.98657 0.69492 0.0
H2139 H 0.74642 0.97871 0.67553 0.0
C2140 C 0.71862 0.90292 0.61467 0.0
C2141 C 0.73551 0.89477 0.61467 0.0
C2142 C 0.72568 0.92628 0.62085 0.0
C2143 C 0.74976 0.94189 0.62701 0.0
C2144 C 0.76633 0.93341 0.62767 0.0
C2145 C 0.75929 0.91007 0.62153 0.0
C2146 C 0.75804 0.96751 0.63193 0.0
C2147 C 0.74684 0.97279 0.64324 0.0
C2148 C 0.77721 0.98667 0.62561 0.0
C2149 C 0.78863 0.9822 0.61295 0.0
C2150 C 0.81391 0.99146 0.61405 0.0
C2151 C 0.82464 0.98706 0.60217 0.0
C2152 C 0.81027 0.9735 0.5891 0.0
C2153 C 0.78515 0.9644 0.58786 0.0
C2154 C 0.77434 0.96879 0.59969 0.0
C2155 C 0.80206 0.07304 0.6694 0.0
C2156 C 0.80467 0.09053 0.65979 0.0
C2157 C 0.79247 0.04888 0.66386 0.0
C2158 C 0.78494 0.04166 0.64866 0.0
C2159 C 0.78777 0.05912 0.63902 0.0
C2160 C 0.79758 0.08335 0.64453 0.0
C2161 C 0.7746 0.01598 0.64276 0.0
C2162 C 0.78541 0.01064 0.63122 0.0
C2163 C 0.75473 0.99683 0.64867 0.0
C2164 C 0.74166 0.00138 0.6603 0.0
C2165 C 0.7318 0.01656 0.65816 0.0
C2166 C 0.7198 0.02102 0.66925 0.0
C2167 C 0.71738 0.01023 0.68249 0.0
C2168 C 0.7269 0.99493 0.68466 0.0
C2169 C 0.73896 0.99046 0.67362 0.0
H2170 H 0.70808 0.01367 0.69107 0.0
H2171 H 0.81861 0.97009 0.57992 0.0
H2172 H 0.5472 0.41964 0.73702 0.0
H2173 H 0.51675 0.38007 0.7244 0.0
H2174 H 0.45955 0.3886 0.74174 0.0
H2175 H 0.48977 0.4284 0.75408 0.0
H2176 H 0.45588 0.34445 0.74643 0.0
H2177 H 0.4672 0.39362 0.70606 0.0
H2178 H 0.49105 0.42321 0.68892 0.0
H2179 H 0.51707 0.3766 0.67275 0.0
H2180 H 0.49364 0.34687 0.68996 0.0
H2181 H 0.35546 0.24244 0.70528 0.0
H2182 H 0.38484 0.28396 0.71556 0.0
H2183 H 0.44211 0.27845 0.69586 0.0
H2184 H 0.41289 0.23712 0.68537 0.0
H2185 H 0.44554 0.3214 0.69218 0.0
H2186 H 0.43676 0.27331 0.73241 0.0
H2187 H 0.41449 0.24326 0.74972 0.0
H2188 H 0.38578 0.28719 0.76643 0.0
H2189 H 0.40766 0.31738 0.74907 0.0
C2190 C 0.52812 0.41331 0.73792 0.0
C2191 C 0.52094 0.42715 0.74662 0.0
C2192 C 0.51076 0.39066 0.73075 0.0
C2193 C 0.48592 0.38145 0.73215 0.0
C2194 C 0.47865 0.39535 0.7406 0.0
C2195 C 0.49596 0.41804 0.74769 0.0
C2196 C 0.46756 0.35691 0.72525 0.0
C2197 C 0.45333 0.3395 0.73454 0.0
C2198 C 0.46482 0.35031 0.70981 0.0
C2199 C 0.47884 0.36812 0.69941 0.0
C2200 C 0.47817 0.38977 0.69894 0.0
C2201 C 0.49158 0.40655 0.68919 0.0
C2202 C 0.50562 0.40182 0.67978 0.0
C2203 C 0.50622 0.38026 0.68007 0.0
C2204 C 0.49285 0.36342 0.68981 0.0
C2205 C 0.37429 0.25007 0.7031 0.0
C2206 C 0.38184 0.23642 0.69456 0.0
C2207 C 0.39107 0.27377 0.70902 0.0
C2208 C 0.4157 0.28419 0.7066 0.0
C2209 C 0.42319 0.27076 0.69786 0.0
C2210 C 0.40645 0.2471 0.69192 0.0
C2211 C 0.43377 0.30897 0.71335 0.0
C2212 C 0.44799 0.32638 0.70406 0.0
C2213 C 0.43673 0.31552 0.72882 0.0
C2214 C 0.42364 0.29748 0.73933 0.0
C2215 C 0.42555 0.27647 0.73969 0.0
C2216 C 0.41302 0.25943 0.74953 0.0
C2217 C 0.39867 0.26328 0.75914 0.0
C2218 C 0.39688 0.28422 0.75896 0.0
C2219 C 0.40935 0.30131 0.74914 0.0
H2220 H 0.38898 0.25007 0.76674 0.0
H2221 H 0.51599 0.41483 0.67224 0.0
H2222 H 0.62632 0.12061 0.77807 0.0
H2223 H 0.66115 0.12666 0.76521 0.0
H2224 H 0.61523 0.09876 0.72365 0.0
H2225 H 0.57995 0.09121 0.73657 0.0
H2226 H 0.64609 0.08268 0.72473 0.0
H2227 H 0.65392 0.16148 0.7337 0.0
H2228 H 0.65601 0.19577 0.74902 0.0
H2229 H 0.71853 0.20447 0.77578 0.0
H2230 H 0.71658 0.17 0.76069 0.0
H2231 H 0.74215 0.13207 0.6778 0.0
H2232 H 0.70614 0.12263 0.69056 0.0
H2233 H 0.75026 0.14599 0.73278 0.0
H2234 H 0.78629 0.15567 0.72018 0.0
H2235 H 0.72017 0.16415 0.73112 0.0
H2236 H 0.7131 0.08611 0.72126 0.0
H2237 H 0.71112 0.0522 0.70561 0.0
H2238 H 0.64692 0.04205 0.68014 0.0
H2239 H 0.64875 0.07618 0.69549 0.0
C2240 C 0.62347 0.11534 0.76623 0.0
C2241 C 0.60023 0.10556 0.75838 0.0
C2242 C 0.64353 0.11913 0.75885 0.0
C2243 C 0.64099 0.11367 0.74338 0.0
C2244 C 0.61774 0.10331 0.73556 0.0
C2245 C 0.5976 0.09926 0.74296 0.0
C2246 C 0.6626 0.11912 0.73535 0.0
C2247 C 0.66215 0.10058 0.72597 0.0
C2248 C 0.68381 0.14235 0.73714 0.0
C2249 C 0.68506 0.16314 0.74613 0.0
C2250 C 0.66805 0.17065 0.74289 0.0
C2251 C 0.6692 0.19011 0.75152 0.0
C2252 C 0.68739 0.20228 0.76337 0.0
C2253 C 0.70448 0.19504 0.76659 0.0
C2254 C 0.70339 0.17559 0.75799 0.0
C2255 C 0.74421 0.13519 0.6898 0.0
C2256 C 0.76716 0.14463 0.69794 0.0
C2257 C 0.72357 0.12968 0.69709 0.0
C2258 C 0.72544 0.13339 0.71265 0.0
C2259 C 0.74835 0.14295 0.72077 0.0
C2260 C 0.76895 0.14843 0.71352 0.0
C2261 C 0.70366 0.12772 0.72051 0.0
C2262 C 0.70409 0.14624 0.72985 0.0
C2263 C 0.68243 0.10452 0.71861 0.0
C2264 C 0.68121 0.08387 0.70943 0.0
C2265 C 0.69867 0.07677 0.71224 0.0
C2266 C 0.69756 0.05749 0.70344 0.0
C2267 C 0.67894 0.04501 0.69186 0.0
C2268 C 0.66135 0.05176 0.6891 0.0
C2269 C 0.66241 0.07106 0.69785 0.0
H2270 H 0.67807 0.03007 0.68506 0.0
H2271 H 0.68824 0.21733 0.77005 0.0
H2272 H 0.88343 0.475 0.73881 0.0
H2273 H 0.8701 0.50036 0.72683 0.0
H2274 H 0.94279 0.56188 0.73593 0.0
H2275 H 0.95605 0.53658 0.74831 0.0
H2276 H 0.91145 0.57522 0.74179 0.0
H2277 H 0.91981 0.53135 0.70053 0.0
H2278 H 0.91396 0.49535 0.68521 0.0
H2279 H 0.83677 0.46739 0.67967 0.0
H2280 H 0.84212 0.50306 0.69515 0.0
H2281 H 0.86872 0.61902 0.67381 0.0
H2282 H 0.88294 0.59251 0.68331 0.0
H2283 H 0.84941 0.59031 0.72356 0.0
H2284 H 0.83645 0.61787 0.71446 0.0
H2285 H 0.86515 0.54964 0.69175 0.0
H2286 H 0.88221 0.5901 0.75291 0.0
H2287 H 0.89026 0.62823 0.7667 0.0
H2288 H 0.92386 0.66757 0.73008 0.0
H2289 H 0.91625 0.62974 0.71614 0.0
C2290 C 0.8966 0.4939 0.73813 0.0
C2291 C 0.9208 0.50383 0.74437 0.0
C2292 C 0.88899 0.50835 0.73126 0.0
C2293 C 0.90554 0.53293 0.73025 0.0
C2294 C 0.92972 0.54295 0.73656 0.0
C2295 C 0.93728 0.52852 0.74361 0.0
C2296 C 0.89735 0.54823 0.72291 0.0
C2297 C 0.90144 0.56966 0.73082 0.0
C2298 C 0.88465 0.54125 0.70848 0.0
C2299 C 0.88136 0.5198 0.6991 0.0
C2300 C 0.90157 0.51744 0.69613 0.0
C2301 C 0.89835 0.49711 0.68741 0.0
C2302 C 0.87501 0.47907 0.6815 0.0
C2303 C 0.85484 0.48136 0.68427 0.0
C2304 C 0.85796 0.50165 0.693 0.0
C2305 C 0.86418 0.61259 0.68461 0.0
C2306 C 0.85183 0.62065 0.69352 0.0
C2307 C 0.87229 0.59748 0.69002 0.0
C2308 C 0.86781 0.58995 0.70431 0.0
C2309 C 0.85378 0.59652 0.71271 0.0
C2310 C 0.84626 0.61212 0.70748 0.0
C2311 C 0.87882 0.57631 0.71075 0.0
C2312 C 0.87528 0.55522 0.70268 0.0
C2313 C 0.89267 0.584 0.72485 0.0
C2314 C 0.89851 0.60705 0.73345 0.0
C2315 C 0.89152 0.60692 0.74786 0.0
C2316 C 0.89594 0.62847 0.75568 0.0
C2317 C 0.9075 0.65029 0.74925 0.0
C2318 C 0.91485 0.65065 0.73503 0.0
C2319 C 0.91049 0.62916 0.72717 0.0
H2320 H 0.91077 0.66692 0.75529 0.0
H2321 H 0.87255 0.46334 0.67474 0.0
H2322 H 0.4408 0.94752 0.22873 0.0
H2323 H 0.45019 0.96585 0.20528 0.0
H2324 H 0.4705 0.9138 0.1899 0.0
H2325 H 0.46137 0.8956 0.21333 0.0
H2326 H 0.50357 0.95767 0.18461 0.0
H2327 H 0.41613 0.91027 0.17682 0.0
H2328 H 0.37427 0.89663 0.18282 0.0
H2329 H 0.3865 0.96889 0.18126 0.0
H2330 H 0.42857 0.98303 0.17544 0.0
H2331 H 0.50627 0.97259 0.10812 0.0
H2332 H 0.49528 0.95645 0.13198 0.0
H2333 H 0.48103 0.01386 0.14506 0.0
H2334 H 0.4915 0.02985 0.121 0.0
H2335 H 0.4455 0.96974 0.1521 0.0
H2336 H 0.53251 0.01668 0.15897 0.0
H2337 H 0.57427 0.0301 0.15286 0.0
H2338 H 0.56264 0.95835 0.15609 0.0
H2339 H 0.52067 0.9444 0.16201 0.0
C2340 C 0.44699 0.93982 0.22027 0.0
C2341 C 0.4504 0.92015 0.22289 0.0
C2342 C 0.45235 0.95031 0.20687 0.0
C2343 C 0.46093 0.94113 0.19576 0.0
C2344 C 0.46404 0.9213 0.19831 0.0
C2345 C 0.45883 0.91092 0.21172 0.0
C2346 C 0.46735 0.9525 0.18162 0.0
C2347 C 0.49073 0.96002 0.17742 0.0
C2348 C 0.4509 0.95625 0.17243 0.0
C2349 C 0.42558 0.94776 0.17585 0.0
C2350 C 0.40996 0.92329 0.17787 0.0
C2351 C 0.38618 0.91546 0.18122 0.0
C2352 C 0.37776 0.93189 0.18246 0.0
C2353 C 0.39307 0.95618 0.18031 0.0
C2354 C 0.41687 0.96411 0.17698 0.0
C2355 C 0.50062 0.98169 0.11601 0.0
C2356 C 0.49979 0.00253 0.11265 0.0
C2357 C 0.49453 0.97256 0.12971 0.0
C2358 C 0.48757 0.98409 0.14037 0.0
C2359 C 0.48643 0.00472 0.13701 0.0
C2360 C 0.49261 0.01394 0.12331 0.0
C2361 C 0.48154 0.97452 0.15502 0.0
C2362 C 0.45831 0.96743 0.15933 0.0
C2363 C 0.49809 0.9711 0.16432 0.0
C2364 C 0.52337 0.97945 0.16081 0.0
C2365 C 0.53879 0.00372 0.15827 0.0
C2366 C 0.56251 0.01143 0.15485 0.0
C2367 C 0.57108 0.99508 0.15405 0.0
C2368 C 0.55597 0.97099 0.1567 0.0
C2369 C 0.53222 0.96318 0.1601 0.0
H2370 H 0.58945 0.00108 0.15141 0.0
H2371 H 0.35935 0.9258 0.18506 0.0
H2372 H 0.00679 0.51773 0.23962 0.0
H2373 H 0.99499 0.51071 0.21285 0.0
H2374 H 0.04573 0.48543 0.20665 0.0
H2375 H 0.0584 0.49343 0.23331 0.0
H2376 H 0.04993 0.51618 0.18724 0.0
H2377 H 0.98392 0.44589 0.20367 0.0
H2378 H 0.95026 0.42314 0.21876 0.0
H2379 H 0.91295 0.45868 0.20168 0.0
H2380 H 0.94657 0.48191 0.18664 0.0
H2381 H 0.00741 0.47071 0.11159 0.0
H2382 H 0.01735 0.47312 0.13835 0.0
H2383 H 0.97046 0.50245 0.14657 0.0
H2384 H 0.96048 0.50017 0.11983 0.0
H2385 H 0.96417 0.46785 0.16479 0.0
H2386 H 0.03153 0.53933 0.14921 0.0
H2387 H 0.06509 0.56136 0.1339 0.0
H2388 H 0.09974 0.52238 0.14932 0.0
H2389 H 0.06621 0.49989 0.16459 0.0
C2390 C 0.01547 0.51072 0.23255 0.0
C2391 C 0.03348 0.50608 0.2386 0.0
C2392 C 0.00853 0.50648 0.21727 0.0
C2393 C 0.01928 0.49727 0.20778 0.0
C2394 C 0.03713 0.49244 0.21379 0.0
C2395 C 0.04417 0.49679 0.22905 0.0
C2396 C 0.01263 0.4936 0.19151 0.0
C2397 C 0.03121 0.50528 0.18232 0.0
C2398 C 0.98815 0.47978 0.18512 0.0
C2399 C 0.96788 0.4658 0.19413 0.0
C2400 C 0.96863 0.449 0.20322 0.0
C2401 C 0.94954 0.43599 0.21175 0.0
C2402 C 0.92951 0.4395 0.2112 0.0
C2403 C 0.9285 0.45599 0.2021 0.0
C2404 C 0.94755 0.46907 0.19356 0.0
C2405 C -0.00064 0.47784 0.1191 0.0
C2406 C 0.98327 0.48539 0.11362 0.0
C2407 C 0.00499 0.47913 0.13437 0.0
C2408 C 0.99481 0.48818 0.14441 0.0
C2409 C 0.97845 0.49536 0.13899 0.0
C2410 C 0.97276 0.49402 0.12373 0.0
C2411 C 0.00145 0.49052 0.16059 0.0
C2412 C 0.98288 0.47862 0.16975 0.0
C2413 C 0.02594 0.50405 0.16696 0.0
C2414 C 0.04625 0.51778 0.15793 0.0
C2415 C 0.04623 0.53535 0.14926 0.0
C2416 C 0.06525 0.54794 0.1406 0.0
C2417 C 0.0845 0.54323 0.14061 0.0
C2418 C 0.0848 0.52599 0.14932 0.0
C2419 C 0.06581 0.51334 0.15799 0.0
H2420 H 0.09921 0.55298 0.13389 0.0
H2421 H 0.91474 0.42941 0.21781 0.0
H2422 H 0.41587 0.49979 0.21613 0.0
H2423 H 0.42417 0.493 0.19084 0.0
H2424 H 0.48978 0.49459 0.20835 0.0
H2425 H 0.48201 0.50259 0.23356 0.0
H2426 H 0.50002 0.5213 0.18723 0.0
H2427 H 0.43597 0.44082 0.1919 0.0
H2428 H 0.39532 0.40928 0.19722 0.0
H2429 H 0.36191 0.42973 0.16261 0.0
H2430 H 0.40236 0.46161 0.1572 0.0
H2431 H 0.52137 0.4793 0.11811 0.0
H2432 H 0.51103 0.48078 0.14353 0.0
H2433 H 0.45528 0.49648 0.12809 0.0
H2434 H 0.46555 0.49523 0.10274 0.0
H2435 H 0.44006 0.45947 0.14792 0.0
H2436 H 0.50515 0.54086 0.14422 0.0
H2437 H 0.54624 0.57152 0.13896 0.0
H2438 H 0.5781 0.54727 0.17218 0.0
H2439 H 0.53717 0.51621 0.17748 0.0
C2440 C 0.4318 0.49825 0.21452 0.0
C2441 C 0.44829 0.50162 0.22669 0.0
C2442 C 0.43653 0.49429 0.20009 0.0
C2443 C 0.45751 0.49301 0.19764 0.0
C2444 C 0.47352 0.49557 0.20991 0.0
C2445 C 0.46905 0.50001 0.2243 0.0
C2446 C 0.46366 0.49068 0.1823 0.0
C2447 C 0.48698 0.50744 0.17874 0.0
C2448 C 0.44656 0.473 0.17106 0.0
C2449 C 0.4222 0.45375 0.17423 0.0
C2450 C 0.41995 0.4387 0.18549 0.0
C2451 C 0.39694 0.42075 0.18851 0.0
C2452 C 0.37605 0.41755 0.18028 0.0
C2453 C 0.37812 0.43225 0.16898 0.0
C2454 C 0.40108 0.45025 0.16592 0.0
C2455 C 0.50678 0.48289 0.12009 0.0
C2456 C 0.49409 0.48685 0.10829 0.0
C2457 C 0.50099 0.48385 0.13463 0.0
C2458 C 0.48234 0.48865 0.13765 0.0
C2459 C 0.46964 0.4926 0.12596 0.0
C2460 C 0.47564 0.49198 0.11146 0.0
C2461 C 0.47629 0.48995 0.15303 0.0
C2462 C 0.45303 0.47309 0.15653 0.0
C2463 C 0.49349 0.50733 0.16427 0.0
C2464 C 0.51811 0.52604 0.16113 0.0
C2465 C 0.52092 0.54192 0.1503 0.0
C2466 C 0.54418 0.5594 0.14734 0.0
C2467 C 0.56477 0.56129 0.1552 0.0
C2468 C 0.56214 0.54575 0.16608 0.0
C2469 C 0.53891 0.52822 0.16908 0.0
H2470 H 0.58276 0.57484 0.15289 0.0
H2471 H 0.35825 0.40364 0.18264 0.0
H2472 H 0.93791 0.50462 0.7963 0.0
H2473 H 0.95454 0.51308 0.82235 0.0
H2474 H 0.99743 0.47968 0.81281 0.0
H2475 H 0.98154 0.47183 0.78661 0.0
H2476 H 0.96923 0.46168 0.83641 0.0
H2477 H 0.02565 0.53844 0.82039 0.0
H2478 H 0.03776 0.57592 0.80838 0.0
H2479 H 0.00076 0.59674 0.83881 0.0
H2480 H 0.98812 0.5592 0.85088 0.0
H2481 H 0.03571 0.49027 0.907 0.0
H2482 H 0.02506 0.48741 0.88031 0.0
H2483 H 0.98797 0.52745 0.88841 0.0
H2484 H -0.0013 0.53048 0.91515 0.0
H2485 H 0.01412 0.54262 0.8653 0.0
H2486 H 0.95619 0.46632 0.88073 0.0
H2487 H 0.9425 0.42868 0.89281 0.0
H2488 H 0.97992 0.40652 0.86352 0.0
H2489 H 0.99415 0.44423 0.8514 0.0
C2490 C 0.95133 0.49959 0.79964 0.0
C2491 C 0.95834 0.48747 0.78935 0.0
C2492 C 0.96072 0.50434 0.81455 0.0
C2493 C 0.97719 0.49699 0.81946 0.0
C2494 C 0.98464 0.48539 0.80921 0.0
C2495 C 0.97545 0.48083 0.79428 0.0
C2496 C 0.98556 0.50019 0.83544 0.0
C2497 C 0.9794 0.47939 0.8427 0.0
C2498 C -0.00188 0.52326 0.84366 0.0
C2499 C 0.00574 0.54588 0.83644 0.0
C2500 C 0.01991 0.5509 0.82444 0.0
C2501 C 0.02691 0.57218 0.81764 0.0
C2502 C 0.01998 0.58867 0.8228 0.0
C2503 C 0.00609 0.58394 0.83481 0.0
C2504 C -0.00098 0.56267 0.84164 0.0
C2505 C 0.0252 0.49837 0.90309 0.0
C2506 C 0.01789 0.51045 0.91316 0.0
C2507 C 0.01917 0.49677 0.88785 0.0
C2508 C 0.00546 0.50695 0.8824 0.0
C2509 C -0.00142 0.51949 0.89239 0.0
C2510 C 0.00473 0.52121 0.90765 0.0
C2511 C 0.99787 0.50409 0.86628 0.0
C2512 C 0.00406 0.52491 0.85901 0.0
C2513 C 0.98508 0.48099 0.85805 0.0
C2514 C 0.97645 0.45823 0.86526 0.0
C2515 C 0.96166 0.45351 0.87694 0.0
C2516 C 0.95378 0.43215 0.88378 0.0
C2517 C 0.96039 0.41525 0.87897 0.0
C2518 C 0.97485 0.41965 0.86726 0.0
C2519 C 0.98282 0.44101 0.86039 0.0
H2520 H 0.95427 0.39872 0.88428 0.0
H2521 H 0.02542 0.60514 0.81753 0.0
H2522 H 0.55953 0.52013 0.79128 0.0
H2523 H 0.54957 0.52731 0.81606 0.0
H2524 H 0.52893 0.45403 0.82438 0.0
H2525 H 0.53886 0.4468 0.79973 0.0
H2526 H 0.49454 0.46462 0.83093 0.0
H2527 H 0.58168 0.50244 0.8411 0.0
H2528 H 0.62439 0.53091 0.83744 0.0
H2529 H 0.61293 0.59107 0.84636 0.0
H2530 H 0.57004 0.56293 0.84987 0.0
H2531 H 0.48424 0.46698 0.9077 0.0
H2532 H 0.49683 0.46449 0.88312 0.0
H2533 H 0.51634 0.53885 0.87919 0.0
H2534 H 0.50467 0.5418 0.90409 0.0
H2535 H 0.55069 0.52999 0.86987 0.0
H2536 H 0.46414 0.49254 0.86062 0.0
H2537 H 0.4214 0.46427 0.86432 0.0
H2538 H 0.4315 0.40373 0.85344 0.0
H2539 H 0.47442 0.43164 0.84988 0.0
C2540 C 0.55324 0.50571 0.79851 0.0
C2541 C 0.54979 0.48285 0.79354 0.0
C2542 C 0.54752 0.50981 0.81264 0.0
C2543 C 0.5385 0.49119 0.82206 0.0
C2544 C 0.53569 0.46859 0.81725 0.0
C2545 C 0.54133 0.46448 0.80316 0.0
C2546 C 0.5309 0.49471 0.83669 0.0
C2547 C 0.50691 0.47875 0.83951 0.0
C2548 C 0.5468 0.51363 0.84769 0.0
C2549 C 0.57258 0.53056 0.84558 0.0
C2550 C 0.58821 0.52173 0.84215 0.0
C2551 C 0.61246 0.53781 0.84013 0.0
C2552 C 0.62135 0.56278 0.84162 0.0
C2553 C 0.60602 0.57173 0.84518 0.0
C2554 C 0.58174 0.55572 0.8472 0.0
C2555 C 0.49137 0.48288 0.90167 0.0
C2556 C 0.49341 0.50459 0.90787 0.0
C2557 C 0.49834 0.48136 0.88755 0.0
C2558 C 0.50724 0.5014 0.87924 0.0
C2559 C 0.50942 0.52314 0.88539 0.0
C2560 C 0.50251 0.52471 0.89956 0.0
C2561 C 0.51446 0.49962 0.86419 0.0
C2562 C 0.5383 0.51594 0.86126 0.0
C2563 C 0.49841 0.48105 0.85305 0.0
C2564 C 0.47256 0.4642 0.8551 0.0
C2565 C 0.4573 0.4732 0.85912 0.0
C2566 C 0.43303 0.45724 0.86118 0.0
C2567 C 0.42376 0.43222 0.85915 0.0
C2568 C 0.43872 0.42311 0.85502 0.0
C2569 C 0.46301 0.439 0.85297 0.0
H2570 H 0.40497 0.41989 0.86074 0.0
H2571 H 0.64013 0.5752 0.84005 0.0
H2572 H 0.56267 0.05642 0.79874 0.0
H2573 H 0.55469 0.04112 0.82308 0.0
H2574 H 0.53464 0.09436 0.83606 0.0
H2575 H 0.54346 0.11035 0.81195 0.0
H2576 H 0.5602 0.08905 0.8589 0.0
H2577 H 0.49138 0.03637 0.82363 0.0
H2578 H 0.47047 0.0095 0.80054 0.0
H2579 H 0.49555 0.96135 0.81367 0.0
H2580 H 0.5169 0.98813 0.83676 0.0
H2581 H 0.48922 0.03191 0.91737 0.0
H2582 H 0.50253 0.04968 0.89415 0.0
H2583 H 0.52359 0.99662 0.88283 0.0
H2584 H 0.51047 0.97884 0.90604 0.0
H2585 H 0.49902 0.00207 0.85943 0.0
H2586 H 0.56428 0.05387 0.89667 0.0
H2587 H 0.58178 0.08 0.92029 0.0
H2588 H 0.56267 0.13067 0.90371 0.0
H2589 H 0.54388 0.10424 0.88024 0.0
C2590 C 0.55699 0.06518 0.80686 0.0
C2591 C 0.55348 0.08448 0.80332 0.0
C2592 C 0.55223 0.05627 0.82074 0.0
C2593 C 0.54368 0.06633 0.83133 0.0
C2594 C 0.5411 0.08622 0.82806 0.0
C2595 C 0.54592 0.09518 0.8142 0.0
C2596 C 0.53624 0.0554 0.84551 0.0
C2597 C 0.54668 0.07009 0.85903 0.0
C2598 C 0.51885 0.03056 0.8457 0.0
C2599 C 0.50595 0.01439 0.83185 0.0
C2600 C 0.49259 0.02015 0.82154 0.0
C2601 C 0.48063 0.00492 0.80846 0.0
C2602 C 0.48174 0.98376 0.80562 0.0
C2603 C 0.49475 0.97776 0.81587 0.0
C2604 C 0.50677 0.99295 0.82896 0.0
C2605 C 0.49682 0.0241 0.90999 0.0
C2606 C 0.4988 0.00395 0.91359 0.0
C2607 C 0.50439 0.03427 0.89671 0.0
C2608 C 0.51431 0.02465 0.88682 0.0
C2609 C 0.51597 0.00433 0.89028 0.0
C2610 C 0.50836 0.99412 0.90353 0.0
C2611 C 0.52292 0.03568 0.87285 0.0
C2612 C 0.51268 0.021 0.85934 0.0
C2613 C 0.54036 0.06056 0.87273 0.0
C2614 C 0.55238 0.07687 0.8867 0.0
C2615 C 0.56354 0.07044 0.89809 0.0
C2616 C 0.57366 0.08529 0.91148 0.0
C2617 C 0.57341 0.10701 0.91348 0.0
C2618 C 0.56287 0.11384 0.90213 0.0
C2619 C 0.55236 0.09886 0.88881 0.0
H2620 H 0.5814 0.11854 0.92382 0.0
H2621 H 0.47246 0.97199 0.79548 0.0
H2622 H 0.12944 0.229 0.54871 0.0
H2623 H 0.13796 0.24671 0.52516 0.0
H2624 H 0.10733 0.29129 0.53762 0.0
H2625 H 0.09919 0.27401 0.5615 0.0
H2626 H 0.09306 0.26995 0.50773 0.0
H2627 H 0.16627 0.31689 0.54068 0.0
H2628 H 0.19984 0.32315 0.55889 0.0
H2629 H 0.22306 0.28855 0.52709 0.0
H2630 H 0.18937 0.28174 0.50875 0.0
H2631 H 0.14454 0.34918 0.451 0.0
H2632 H 0.13292 0.33321 0.47495 0.0
H2633 H 0.166 0.28904 0.46818 0.0
H2634 H 0.17793 0.30514 0.44437 0.0
H2635 H 0.17878 0.31249 0.49596 0.0
H2636 H 0.10552 0.26385 0.46346 0.0
H2637 H 0.07115 0.25536 0.44519 0.0
H2638 H 0.0476 0.29141 0.47571 0.0
H2639 H 0.08208 0.30046 0.4941 0.0
C2640 C 0.12464 0.24269 0.54653 0.0
C2641 C 0.11395 0.25033 0.55712 0.0
C2642 C 0.12942 0.2527 0.53302 0.0
C2643 C 0.12357 0.27054 0.52973 0.0
C2644 C 0.11202 0.27757 0.53997 0.0
C2645 C 0.10733 0.26763 0.55358 0.0
C2646 C 0.1303 0.28222 0.51577 0.0
C2647 C 0.11182 0.27965 0.50523 0.0
C2648 C 0.15475 0.29437 0.51242 0.0
C2649 C 0.17516 0.29862 0.52338 0.0
C2650 C 0.17842 0.31044 0.5376 0.0
C2651 C 0.19749 0.31412 0.54794 0.0
C2652 C 0.21354 0.3062 0.54416 0.0
C2653 C 0.21059 0.29465 0.53001 0.0
C2654 C 0.19153 0.2909 0.51963 0.0
C2655 C 0.14945 0.33617 0.45467 0.0
C2656 C 0.16213 0.32839 0.44579 0.0
C2657 C 0.14262 0.32691 0.46828 0.0
C2658 C 0.14843 0.30979 0.47329 0.0
C2659 C 0.16128 0.30219 0.46451 0.0
C2660 C 0.16795 0.31129 0.45087 0.0
C2661 C 0.14152 0.30004 0.48779 0.0
C2662 C 0.16001 0.303 0.49846 0.0
C2663 C 0.11708 0.28815 0.4912 0.0
C2664 C 0.09656 0.28309 0.48009 0.0
C2665 C 0.09319 0.27022 0.46621 0.0
C2666 C 0.07365 0.26525 0.45585 0.0
C2667 C 0.05725 0.27289 0.45928 0.0
C2668 C 0.06036 0.28554 0.47307 0.0
C2669 C 0.07989 0.29059 0.48347 0.0
H2670 H 0.04207 0.26889 0.45129 0.0
H2671 H 0.22829 0.30906 0.55218 0.0
H2672 H 0.67298 0.84614 0.57252 0.0
H2673 H 0.65796 0.84196 0.54636 0.0
H2674 H 0.71332 0.82646 0.53335 0.0
H2675 H 0.72876 0.83117 0.55941 0.0
H2676 H 0.71182 0.8614 0.51814 0.0
H2677 H 0.65474 0.78193 0.53111 0.0
H2678 H 0.62381 0.75289 0.5458 0.0
H2679 H 0.57701 0.78155 0.53474 0.0
H2680 H 0.60782 0.81101 0.52014 0.0
H2681 H 0.67305 0.81942 0.4428 0.0
H2682 H 0.68412 0.82294 0.46944 0.0
H2683 H 0.6253 0.8357 0.47826 0.0
H2684 H 0.61403 0.83211 0.45149 0.0
H2685 H 0.62737 0.80391 0.49594 0.0
H2686 H 0.68304 0.88238 0.48253 0.0
H2687 H 0.71333 0.91156 0.46759 0.0
H2688 H 0.76232 0.88581 0.47957 0.0
H2689 H 0.73219 0.85626 0.49446 0.0
C2690 C 0.68183 0.8417 0.56406 0.0
C2691 C 0.70201 0.83894 0.56798 0.0
C2692 C 0.67316 0.83918 0.54916 0.0
C2693 C 0.6845 0.83382 0.53796 0.0
C2694 C 0.70433 0.83059 0.54186 0.0
C2695 C 0.71297 0.83304 0.55674 0.0
C2696 C 0.67646 0.83266 0.52213 0.0
C2697 C 0.69344 0.84864 0.51324 0.0
C2698 C 0.65225 0.81659 0.51591 0.0
C2699 C 0.6337 0.79885 0.52466 0.0
C2700 C 0.63794 0.78219 0.53191 0.0
C2701 C 0.62042 0.76562 0.5402 0.0
C2702 C 0.59849 0.76542 0.54124 0.0
C2703 C 0.59402 0.78175 0.53395 0.0
C2704 C 0.6115 0.79837 0.52566 0.0
C2705 C 0.66265 0.82327 0.4504 0.0
C2706 C 0.64283 0.82573 0.44508 0.0
C2707 C 0.66895 0.82521 0.46561 0.0
C2708 C 0.65573 0.82991 0.4758 0.0
C2709 C 0.63574 0.8321 0.47055 0.0
C2710 C 0.62933 0.83004 0.4553 0.0
C2711 C 0.66285 0.83238 0.49192 0.0
C2712 C 0.64572 0.81675 0.50087 0.0
C2713 C 0.68688 0.84891 0.49824 0.0
C2714 C 0.70527 0.86697 0.48953 0.0
C2715 C 0.70022 0.88285 0.48192 0.0
C2716 C 0.71736 0.89947 0.47346 0.0
C2717 C 0.73971 0.90049 0.47259 0.0
C2718 C 0.74499 0.88498 0.48025 0.0
C2719 C 0.7279 0.86832 0.48872 0.0
H2720 H 0.75293 0.91333 0.46601 0.0
H2721 H 0.58494 0.75258 0.54766 0.0
H2722 H 0.12903 0.88364 0.55211 0.0
H2723 H 0.1355 0.87486 0.5268 0.0
H2724 H 0.11321 0.80131 0.53533 0.0
H2725 H 0.10711 0.81018 0.56089 0.0
H2726 H 0.15509 0.82181 0.52201 0.0
H2727 H 0.07624 0.81243 0.51316 0.0
H2728 H 0.04417 0.82325 0.51473 0.0
H2729 H 0.08582 0.88671 0.49257 0.0
H2730 H 0.11832 0.87648 0.49104 0.0
H2731 H 0.15646 0.78937 0.44524 0.0
H2732 H 0.14352 0.79074 0.46996 0.0
H2733 H 0.16423 0.86579 0.4679 0.0
H2734 H 0.17734 0.86459 0.44324 0.0
H2735 H 0.11939 0.8397 0.47758 0.0
H2736 H 0.19966 0.8505 0.48857 0.0
H2737 H 0.23157 0.83943 0.48704 0.0
H2738 H 0.18645 0.7725 0.50517 0.0
H2739 H 0.15412 0.78304 0.50662 0.0
C2740 C 0.12548 0.86558 0.5486 0.0
C2741 C 0.11768 0.84762 0.55851 0.0
C2742 C 0.12898 0.86052 0.53409 0.0
C2743 C 0.12465 0.83737 0.52912 0.0
C2744 C 0.11658 0.81928 0.53892 0.0
C2745 C 0.11296 0.82431 0.55347 0.0
C2746 C 0.12967 0.83262 0.5139 0.0
C2747 C 0.14691 0.82525 0.51226 0.0
C2748 C 0.11933 0.83752 0.50121 0.0
C2749 C 0.09982 0.84378 0.5021 0.0
C2750 C 0.07866 0.82881 0.50873 0.0
C2751 C 0.06038 0.83481 0.50959 0.0
C2752 C 0.06298 0.85568 0.50378 0.0
C2753 C 0.08384 0.87056 0.49707 0.0
C2754 C 0.10219 0.86465 0.49619 0.0
C2755 C 0.15854 0.80625 0.45014 0.0
C2756 C 0.16797 0.8269 0.44231 0.0
C2757 C 0.15105 0.80697 0.46424 0.0
C2758 C 0.15301 0.8284 0.4708 0.0
C2759 C 0.16248 0.84904 0.46302 0.0
C2760 C 0.16997 0.84834 0.44894 0.0
C2761 C 0.14515 0.82939 0.48576 0.0
C2762 C 0.12735 0.83602 0.48733 0.0
C2763 C 0.15493 0.82375 0.49837 0.0
C2764 C 0.17437 0.81743 0.49754 0.0
C2765 C 0.19646 0.83333 0.49211 0.0
C2766 C 0.21464 0.82717 0.49128 0.0
C2767 C 0.21101 0.80524 0.49596 0.0
C2768 C 0.18922 0.78946 0.50152 0.0
C2769 C 0.17097 0.79552 0.50236 0.0
H2770 H 0.2251 0.80051 0.49531 0.0
H2771 H 0.0488 0.8603 0.50446 0.0
H2772 H 0.65783 0.81807 0.11975 0.0
H2773 H 0.67085 0.82461 0.14642 0.0
H2774 H 0.60796 0.83039 0.15543 0.0
H2775 H 0.59553 0.82488 0.12875 0.0
H2776 H 0.64472 0.86036 0.17446 0.0
H2777 H 0.60843 0.77655 0.15667 0.0
H2778 H 0.60297 0.74167 0.14029 0.0
H2779 H 0.67549 0.75811 0.15513 0.0
H2780 H 0.68153 0.79336 0.17142 0.0
H2781 H 0.64069 0.8305 0.24874 0.0
H2782 H 0.63028 0.82857 0.22213 0.0
H2783 H 0.69675 0.82981 0.21334 0.0
H2784 H 0.70684 0.83077 0.23991 0.0
H2785 H 0.65802 0.79654 0.19442 0.0
H2786 H 0.69255 0.88135 0.21276 0.0
H2787 H 0.69464 0.91392 0.22988 0.0
H2788 H 0.62064 0.89215 0.21477 0.0
H2789 H 0.61807 0.85934 0.19763 0.0
C2790 C 0.6471 0.82117 0.12746 0.0
C2791 C 0.62567 0.82087 0.12231 0.0
C2792 C 0.65443 0.82478 0.14265 0.0
C2793 C 0.64004 0.82739 0.15292 0.0
C2794 C 0.61929 0.82834 0.14772 0.0
C2795 C 0.61221 0.82519 0.13251 0.0
C2796 C 0.64569 0.82755 0.16903 0.0
C2797 C 0.64744 0.8463 0.17882 0.0
C2798 C 0.64924 0.80919 0.17474 0.0
C2799 C 0.64552 0.78774 0.16516 0.0
C2800 C 0.62326 0.77281 0.15638 0.0
C2801 C 0.62006 0.75297 0.14711 0.0
C2802 C 0.6389 0.74771 0.14664 0.0
C2803 C 0.66094 0.76223 0.15549 0.0
C2804 C 0.66426 0.78214 0.16474 0.0
C2805 C 0.65297 0.8301 0.24114 0.0
C2806 C 0.67468 0.83098 0.24644 0.0
C2807 C 0.6471 0.82922 0.22595 0.0
C2808 C 0.66295 0.82944 0.21582 0.0
C2809 C 0.68437 0.82979 0.22102 0.0
C2810 C 0.69021 0.83057 0.2362 0.0
C2811 C 0.65734 0.82948 0.19976 0.0
C2812 C 0.65547 0.81067 0.19 0.0
C2813 C 0.65322 0.8475 0.19413 0.0
C2814 C 0.65509 0.86784 0.20397 0.0
C2815 C 0.67673 0.88352 0.2131 0.0
C2816 C 0.67799 0.902 0.2228 0.0
C2817 C 0.65778 0.90508 0.22342 0.0
C2818 C 0.63629 0.88976 0.21427 0.0
C2819 C 0.63494 0.87126 0.20453 0.0
H2820 H 0.65876 0.91934 0.23098 0.0
H2821 H 0.63639 0.73236 0.13945 0.0
H2822 H 0.17361 0.80862 0.12304 0.0
H2823 H 0.16787 0.81984 0.14794 0.0
H2824 H 0.24536 0.85565 0.16037 0.0
H2825 H 0.25111 0.84318 0.13568 0.0
H2826 H 0.22313 0.83048 0.18146 0.0
H2827 H 0.21473 0.88788 0.15447 0.0
H2828 H 0.19964 0.9029 0.13429 0.0
H2829 H 0.12678 0.86112 0.14608 0.0
H2830 H 0.14137 0.84557 0.16622 0.0
H2831 H 0.20839 0.87829 0.25073 0.0
H2832 H 0.22074 0.87705 0.22583 0.0
H2833 H 0.14554 0.83096 0.20841 0.0
H2834 H 0.13306 0.83174 0.23322 0.0
H2835 H 0.17118 0.86671 0.19036 0.0
H2836 H 0.18142 0.80719 0.21633 0.0
H2837 H 0.19836 0.79455 0.23695 0.0
H2838 H 0.27088 0.84408 0.2272 0.0
H2839 H 0.25438 0.85738 0.2067 0.0
C2840 C 0.18946 0.81874 0.13108 0.0
C2841 C 0.21283 0.8249 0.12732 0.0
C2842 C 0.18618 0.82547 0.14528 0.0
C2843 C 0.20622 0.83895 0.15601 0.0
C2844 C 0.22962 0.84536 0.15228 0.0
C2845 C 0.2329 0.83841 0.13809 0.0
C2846 C 0.2025 0.84534 0.17128 0.0
C2847 C 0.21217 0.83885 0.1834 0.0
C2848 C 0.18804 0.85609 0.17388 0.0
C2849 C 0.17914 0.86541 0.16179 0.0
C2850 C 0.19546 0.88175 0.1527 0.0
C2851 C 0.187 0.89039 0.14128 0.0
C2852 C 0.16226 0.88293 0.13889 0.0
C2853 C 0.14593 0.86687 0.14794 0.0
C2854 C 0.1543 0.85816 0.15937 0.0
C2855 C 0.19447 0.86786 0.2416 0.0
C2856 C 0.16972 0.85502 0.24401 0.0
C2857 C 0.20157 0.86724 0.22738 0.0
C2858 C 0.18407 0.85373 0.2153 0.0
C2859 C 0.15934 0.84156 0.21757 0.0
C2860 C 0.15223 0.84212 0.23178 0.0
C2861 C 0.19139 0.85139 0.20037 0.0
C2862 C 0.1824 0.85864 0.18836 0.0
C2863 C 0.20677 0.84169 0.19789 0.0
C2864 C 0.21667 0.83346 0.21009 0.0
C2865 C 0.20099 0.81552 0.21866 0.0
C2866 C 0.21051 0.80825 0.23033 0.0
C2867 C 0.23569 0.8186 0.23343 0.0
C2868 C 0.25139 0.83617 0.22482 0.0
C2869 C 0.24196 0.84358 0.21318 0.0
H2870 H 0.24303 0.81296 0.24247 0.0
H2871 H 0.15575 0.88964 0.13004 0.0
H2872 H 0.21619 0.44081 0.14693 0.0
H2873 H 0.20784 0.42327 0.17073 0.0
H2874 H 0.21017 0.36103 0.15185 0.0
H2875 H 0.2191 0.37882 0.12809 0.0
H2876 H 0.16687 0.35155 0.16719 0.0
H2877 H 0.25441 0.39534 0.17438 0.0
H2878 H 0.29525 0.43128 0.17495 0.0
H2879 H 0.27761 0.46904 0.20816 0.0
H2880 H 0.23649 0.43343 0.20762 0.0
H2881 H 0.15661 0.29522 0.23334 0.0
H2882 H 0.16919 0.31251 0.21003 0.0
H2883 H 0.18888 0.38319 0.23075 0.0
H2884 H 0.17792 0.36636 0.25441 0.0
H2885 H 0.22191 0.38795 0.21399 0.0
H2886 H 0.13494 0.34693 0.20668 0.0
H2887 H 0.09304 0.31269 0.20611 0.0
H2888 H 0.10774 0.27188 0.17326 0.0
H2889 H 0.14985 0.30578 0.17377 0.0
C2890 C 0.21514 0.4235 0.14793 0.0
C2891 C 0.2183 0.41115 0.13573 0.0
C2892 C 0.21043 0.41354 0.1615 0.0
C2893 C 0.20842 0.39089 0.16302 0.0
C2894 C 0.2117 0.37855 0.15088 0.0
C2895 C 0.2169 0.38875 0.13738 0.0
C2896 C 0.202 0.37977 0.17716 0.0
C2897 C 0.17902 0.35922 0.1774 0.0
C2898 C 0.21758 0.39035 0.19052 0.0
C2899 C 0.24227 0.4118 0.19084 0.0
C2900 C 0.25914 0.4114 0.18169 0.0
C2901 C 0.28236 0.43169 0.18203 0.0
C2902 C 0.289 0.45245 0.19155 0.0
C2903 C 0.27243 0.45295 0.20078 0.0
C2904 C 0.24917 0.43271 0.20046 0.0
C2905 C 0.16389 0.31451 0.23305 0.0
C2906 C 0.16616 0.32932 0.24585 0.0
C2907 C 0.17078 0.32434 0.2196 0.0
C2908 C 0.17963 0.34913 0.21851 0.0
C2909 C 0.18201 0.364 0.23126 0.0
C2910 C 0.17542 0.35424 0.24477 0.0
C2911 C 0.18661 0.3596 0.20413 0.0
C2912 C 0.2097 0.38012 0.20382 0.0
C2913 C 0.17095 0.34922 0.19073 0.0
C2914 C 0.14563 0.3288 0.19038 0.0
C2915 C 0.1293 0.33058 0.19942 0.0
C2916 C 0.1055 0.31125 0.19909 0.0
C2917 C 0.09775 0.29009 0.18969 0.0
C2918 C 0.11377 0.28826 0.18056 0.0
C2919 C 0.13761 0.30753 0.18085 0.0
H2920 H 0.07932 0.27515 0.18945 0.0
H2921 H 0.307 0.46814 0.19181 0.0
H2922 H 0.74911 0.56323 0.88414 0.0
H2923 H 0.7587 0.57926 0.85998 0.0
H2924 H 0.83192 0.6309 0.8788 0.0
H2925 H 0.82236 0.61525 0.90293 0.0
H2926 H 0.813 0.65143 0.86067 0.0
H2927 H 0.82028 0.57964 0.85892 0.0
H2928 H 0.80578 0.53629 0.86077 0.0
H2929 H 0.7484 0.51699 0.82597 0.0
H2930 H 0.76237 0.56027 0.82406 0.0
H2931 H 0.87774 0.68573 0.79793 0.0
H2932 H 0.86283 0.66875 0.82107 0.0
H2933 H 0.79255 0.6188 0.79753 0.0
H2934 H 0.80727 0.63582 0.77432 0.0
H2935 H 0.80652 0.59669 0.81737 0.0
H2936 H 0.80079 0.66857 0.81796 0.0
H2937 H 0.81534 0.71191 0.81608 0.0
H2938 H 0.86941 0.73112 0.85299 0.0
H2939 H 0.85542 0.68788 0.85497 0.0
C2940 C 0.76714 0.57821 0.88314 0.0
C2941 C 0.78505 0.58786 0.89539 0.0
C2942 C 0.77264 0.58723 0.86933 0.0
C2943 C 0.79612 0.60609 0.86755 0.0
C2944 C 0.81372 0.6163 0.8799 0.0
C2945 C 0.80829 0.60723 0.89365 0.0
C2946 C 0.80273 0.61485 0.85279 0.0
C2947 C 0.81177 0.63951 0.85123 0.0
C2948 C 0.80056 0.59917 0.84038 0.0
C2949 C 0.7922 0.57317 0.84147 0.0
C2950 C 0.80445 0.56615 0.85175 0.0
C2951 C 0.79635 0.5416 0.85279 0.0
C2952 C 0.77614 0.5239 0.84352 0.0
C2953 C 0.76402 0.53072 0.83316 0.0
C2954 C 0.77203 0.55526 0.83209 0.0
C2955 C 0.85908 0.67119 0.79767 0.0
C2956 C 0.84366 0.66228 0.78428 0.0
C2957 C 0.85058 0.66149 0.81091 0.0
C2958 C 0.82644 0.64277 0.81108 0.0
C2959 C 0.81122 0.63327 0.79767 0.0
C2960 C 0.81971 0.64297 0.7844 0.0
C2961 C 0.81712 0.63337 0.8253 0.0
C2962 C 0.80756 0.60859 0.82676 0.0
C2963 C 0.81877 0.64894 0.83763 0.0
C2964 C 0.82718 0.67498 0.83653 0.0
C2965 C 0.81591 0.68204 0.82561 0.0
C2966 C 0.82403 0.70659 0.82453 0.0
C2967 C 0.84332 0.72426 0.83439 0.0
C2968 C 0.85449 0.71741 0.84536 0.0
C2969 C 0.84645 0.69288 0.84647 0.0
H2970 H 0.84959 0.74326 0.83354 0.0
H2971 H 0.76989 0.5049 0.84434 0.0
H2972 H 0.33145 0.17382 0.89998 0.0
H2973 H 0.31403 0.16059 0.8741 0.0
H2974 H 0.36292 0.13324 0.86712 0.0
H2975 H 0.38134 0.14762 0.89264 0.0
H2976 H 0.36411 0.15961 0.84616 0.0
H2977 H 0.30051 0.09504 0.86838 0.0
H2978 H 0.26937 0.07647 0.88571 0.0
H2979 H 0.23133 0.11057 0.8675 0.0
H2980 H 0.26243 0.12963 0.85019 0.0
H2981 H 0.3139 0.10778 0.77315 0.0
H2982 H 0.3221 0.1079 0.79989 0.0
H2983 H 0.28394 0.14664 0.8085 0.0
H2984 H 0.27616 0.14716 0.78187 0.0
H2985 H 0.27608 0.1112 0.82845 0.0
H2986 H 0.34195 0.17843 0.80811 0.0
H2987 H 0.37288 0.19672 0.79061 0.0
H2988 H 0.40661 0.15669 0.80564 0.0
H2989 H 0.3756 0.13787 0.82307 0.0
C2990 C 0.3385 0.165 0.89293 0.0
C2991 C 0.35783 0.16183 0.8984 0.0
C2992 C 0.32829 0.15714 0.87819 0.0
C2993 C 0.33699 0.14568 0.8687 0.0
C2994 C 0.35585 0.14195 0.87425 0.0
C2995 C 0.36621 0.14999 0.88891 0.0
C2996 C 0.32784 0.13928 0.85272 0.0
C2997 C 0.34488 0.1486 0.84233 0.0
C2998 C 0.30271 0.12541 0.84769 0.0
C2999 C 0.28393 0.11393 0.85807 0.0
C3000 C 0.28561 0.09874 0.86814 0.0
C3001 C 0.26795 0.08809 0.87795 0.0
C3002 C 0.24842 0.09238 0.87773 0.0
C3003 C 0.24648 0.10728 0.86767 0.0
C3004 C 0.26411 0.11799 0.85784 0.0
C3005 C 0.30705 0.11612 0.78073 0.0
C3006 C 0.29465 0.12773 0.77537 0.0
C3007 C 0.3116 0.11602 0.79598 0.0
C3008 C 0.30381 0.12749 0.8061 0.0
C3009 C 0.29 0.13761 0.80082 0.0
C3010 C 0.28554 0.13784 0.78558 0.0
C3011 C 0.31238 0.13141 0.82208 0.0
C3012 C 0.29529 0.12185 0.83239 0.0
C3013 C 0.33748 0.14501 0.8271 0.0
C3014 C 0.3563 0.15654 0.81676 0.0
C3015 C 0.35585 0.17339 0.8076 0.0
C3016 C 0.37341 0.18387 0.7977 0.0
C3017 C 0.39166 0.17781 0.79698 0.0
C3018 C 0.39243 0.16132 0.80619 0.0
C3019 C 0.37487 0.15075 0.81608 0.0
H3020 H 0.40524 0.18594 0.78931 0.0
H3021 H 0.23476 0.08412 0.88534 0.0
H3022 H 0.76315 0.14632 0.89166 0.0
H3023 H 0.76981 0.137 0.8664 0.0
H3024 H 0.79911 0.212 0.85853 0.0
H3025 H 0.79155 0.22118 0.88343 0.0
H3026 H 0.77199 0.18379 0.83461 0.0
H3027 H 0.83609 0.18844 0.86864 0.0
H3028 H 0.853 0.17724 0.89002 0.0
H3029 H 0.81892 0.10383 0.86998 0.0
H3030 H 0.80154 0.11455 0.84855 0.0
H3031 H 0.84648 0.19831 0.77728 0.0
H3032 H 0.83165 0.20037 0.80122 0.0
H3033 H 0.80177 0.12335 0.80218 0.0
H3034 H 0.81652 0.12113 0.77819 0.0
H3035 H 0.8252 0.14813 0.82887 0.0
H3036 H 0.76487 0.14594 0.79318 0.0
H3037 H 0.75098 0.15937 0.77155 0.0
H3038 H 0.7801 0.2302 0.79473 0.0
H3039 H 0.79452 0.21732 0.81642 0.0
C3040 C 0.77059 0.16071 0.88445 0.0
C3041 C 0.77711 0.18456 0.88962 0.0
C3042 C 0.7746 0.15542 0.87007 0.0
C3043 C 0.78537 0.1739 0.86066 0.0
C3044 C 0.7909 0.19746 0.8656 0.0
C3045 C 0.78679 0.20273 0.8799 0.0
C3046 C 0.79191 0.16915 0.84591 0.0
C3047 C 0.78372 0.1761 0.83337 0.0
C3048 C 0.80683 0.15868 0.84422 0.0
C3049 C 0.81727 0.15223 0.85709 0.0
C3050 C 0.83204 0.16987 0.86885 0.0
C3051 C 0.84174 0.16362 0.88097 0.0
C3052 C 0.83697 0.13982 0.88138 0.0
C3053 C 0.82255 0.12224 0.86966 0.0
C3054 C 0.81278 0.1284 0.85752 0.0
C3055 C 0.83665 0.18179 0.78255 0.0
C3056 C 0.83257 0.15954 0.77581 0.0
C3057 C 0.82819 0.18299 0.79623 0.0
C3058 C 0.81526 0.16194 0.80336 0.0
C3059 C 0.81165 0.13979 0.79684 0.0
C3060 C 0.82018 0.13858 0.78317 0.0
C3061 C 0.80561 0.16314 0.81765 0.0
C3062 C 0.81319 0.1555 0.83008 0.0
C3063 C 0.7903 0.17317 0.81925 0.0
C3064 C 0.78096 0.18071 0.80639 0.0
C3065 C 0.76841 0.16441 0.79365 0.0
C3066 C 0.76044 0.17193 0.78137 0.0
C3067 C 0.76476 0.19565 0.78175 0.0
C3068 C 0.77683 0.21184 0.79445 0.0
C3069 C 0.78488 0.20444 0.80674 0.0
H3070 H 0.75877 0.20152 0.77221 0.0
H3071 H 0.8445 0.13502 0.89077 0.0
H3072 H 0.33703 0.14709 0.45029 0.0
H3073 H 0.3481 0.1518 0.47711 0.0
H3074 H 0.29631 0.1753 0.48458 0.0
H3075 H 0.28532 0.1708 0.45781 0.0
H3076 H 0.33735 0.20219 0.50249 0.0
H3077 H 0.28259 0.11744 0.48884 0.0
H3078 H 0.26752 0.07774 0.4746 0.0
H3079 H 0.33256 0.07752 0.49027 0.0
H3080 H 0.34819 0.11743 0.50443 0.0
H3081 H 0.32249 0.1788 0.57808 0.0
H3082 H 0.31544 0.17764 0.55117 0.0
H3083 H 0.37292 0.16156 0.5454 0.0
H3084 H 0.38064 0.16339 0.57231 0.0
H3085 H 0.33018 0.13146 0.52672 0.0
H3086 H 0.38384 0.21651 0.54122 0.0
H3087 H 0.39732 0.2557 0.55569 0.0
H3088 H 0.33206 0.25445 0.53874 0.0
H3089 H 0.31801 0.21505 0.52433 0.0
C3090 C 0.32807 0.15332 0.45767 0.0
C3091 C 0.31028 0.15852 0.45198 0.0
C3092 C 0.33439 0.15599 0.47297 0.0
C3093 C 0.32278 0.16359 0.48284 0.0
C3094 C 0.30551 0.16945 0.47716 0.0
C3095 C 0.29929 0.16692 0.46187 0.0
C3096 C 0.32811 0.1648 0.4991 0.0
C3097 C 0.33554 0.18666 0.5078 0.0
C3098 C 0.32608 0.14461 0.50599 0.0
C3099 C 0.31667 0.12054 0.49756 0.0
C3100 C 0.29377 0.10902 0.48915 0.0
C3101 C 0.28511 0.08646 0.48111 0.0
C3102 C 0.29911 0.07514 0.4815 0.0
C3103 C 0.32176 0.08633 0.48996 0.0
C3104 C 0.33052 0.10891 0.498 0.0
C3105 C 0.33386 0.17533 0.57112 0.0
C3106 C 0.35218 0.17124 0.57738 0.0
C3107 C 0.32973 0.17457 0.55574 0.0
C3108 C 0.34378 0.16966 0.54635 0.0
C3109 C 0.36187 0.16532 0.5525 0.0
C3110 C 0.36615 0.16625 0.56787 0.0
C3111 C 0.33941 0.16882 0.53006 0.0
C3112 C 0.3321 0.14701 0.52137 0.0
C3113 C 0.34131 0.18896 0.52321 0.0
C3114 C 0.34977 0.21271 0.5318 0.0
C3115 C 0.37226 0.22449 0.54067 0.0
C3116 C 0.38003 0.24676 0.54884 0.0
C3117 C 0.36553 0.25753 0.54816 0.0
C3118 C 0.34326 0.24607 0.53927 0.0
C3119 C 0.3354 0.22378 0.53109 0.0
H3120 H 0.37157 0.27477 0.55449 0.0
H3121 H 0.29238 0.05768 0.47526 0.0
H3122 H 0.88831 0.18149 0.45813 0.0
H3123 H 0.88017 0.19089 0.48302 0.0
H3124 H 0.86516 0.12048 0.49455 0.0
H3125 H 0.87327 0.11108 0.46984 0.0
H3126 H 0.82955 0.12924 0.50113 0.0
H3127 H 0.91738 0.17204 0.50851 0.0
H3128 H 0.9587 0.20174 0.50305 0.0
H3129 H 0.94307 0.25941 0.51055 0.0
H3130 H 0.9015 0.22999 0.51586 0.0
H3131 H 0.82809 0.13615 0.57841 0.0
H3132 H 0.83959 0.1339 0.55345 0.0
H3133 H 0.84909 0.20461 0.54781 0.0
H3134 H 0.83806 0.20724 0.57301 0.0
H3135 H 0.88627 0.19894 0.53748 0.0
H3136 H 0.79939 0.15659 0.5315 0.0
H3137 H 0.75806 0.12703 0.537 0.0
H3138 H 0.77173 0.06869 0.52661 0.0
H3139 H 0.8133 0.09794 0.52125 0.0
C3140 C 0.88366 0.16822 0.46608 0.0
C3141 C 0.88119 0.14547 0.46201 0.0
C3142 C 0.87898 0.17358 0.48027 0.0
C3143 C 0.87199 0.15634 0.49063 0.0
C3144 C 0.87031 0.13396 0.4867 0.0
C3145 C 0.87491 0.1286 0.47257 0.0
C3146 C 0.86525 0.1609 0.50534 0.0
C3147 C 0.84206 0.14436 0.50912 0.0
C3148 C 0.88125 0.18109 0.51557 0.0
C3149 C 0.90624 0.19878 0.51241 0.0
C3150 C 0.92268 0.19103 0.50887 0.0
C3151 C 0.94616 0.20781 0.50583 0.0
C3152 C 0.95348 0.23243 0.5064 0.0
C3153 C 0.93736 0.24033 0.51007 0.0
C3154 C 0.91384 0.22361 0.51311 0.0
C3155 C 0.83284 0.15134 0.57193 0.0
C3156 C 0.83212 0.17186 0.57768 0.0
C3157 C 0.83924 0.14995 0.55763 0.0
C3158 C 0.84495 0.16898 0.54873 0.0
C3159 C 0.84466 0.18969 0.55449 0.0
C3160 C 0.83817 0.19107 0.56882 0.0
C3161 C 0.85084 0.1669 0.53336 0.0
C3162 C 0.87375 0.18393 0.52942 0.0
C3163 C 0.83458 0.14717 0.52293 0.0
C3164 C 0.80954 0.12949 0.52609 0.0
C3165 C 0.79365 0.13747 0.5305 0.0
C3166 C 0.77017 0.12077 0.53357 0.0
C3167 C 0.76229 0.096 0.53219 0.0
C3168 C 0.77787 0.08788 0.52769 0.0
C3169 C 0.80138 0.10452 0.52462 0.0
H3170 H 0.7441 0.08309 0.53458 0.0
H3171 H 0.97167 0.2454 0.50405 0.0
H3172 H 0.91625 0.77173 0.47586 0.0
H3173 H 0.90848 0.75735 0.50048 0.0
H3174 H 0.83985 0.69595 0.48179 0.0
H3175 H 0.84723 0.71085 0.45731 0.0
H3176 H 0.83262 0.71378 0.50536 0.0
H3177 H 0.89176 0.69173 0.4941 0.0
H3178 H 0.93067 0.69749 0.48648 0.0
H3179 H 0.96957 0.75052 0.52389 0.0
H3180 H 0.9309 0.74532 0.53163 0.0
H3181 H 0.81205 0.64764 0.56904 0.0
H3182 H 0.8229 0.6597 0.54422 0.0
H3183 H 0.87788 0.73109 0.56346 0.0
H3184 H 0.86685 0.71935 0.58829 0.0
H3185 H 0.89224 0.70716 0.53994 0.0
H3186 H 0.83085 0.72839 0.55014 0.0
H3187 H 0.79086 0.71969 0.5575 0.0
H3188 H 0.75501 0.66387 0.52115 0.0
H3189 H 0.79483 0.672 0.51371 0.0
C3190 C 0.89968 0.755 0.47702 0.0
C3191 C 0.88233 0.74239 0.46472 0.0
C3192 C 0.89526 0.74673 0.49108 0.0
C3193 C 0.87365 0.72538 0.49304 0.0
C3194 C 0.8566 0.71249 0.48063 0.0
C3195 C 0.86084 0.72097 0.46664 0.0
C3196 C 0.86816 0.71713 0.50808 0.0
C3197 C 0.84559 0.712 0.51278 0.0
C3198 C 0.88513 0.71512 0.51796 0.0
C3199 C 0.90843 0.71831 0.51336 0.0
C3200 C 0.90862 0.70476 0.50063 0.0
C3201 C 0.93063 0.7079 0.49631 0.0
C3202 C 0.95258 0.72441 0.50467 0.0
C3203 C 0.95256 0.73777 0.51741 0.0
C3204 C 0.93059 0.73471 0.52178 0.0
C3205 C 0.82659 0.66584 0.568 0.0
C3206 C 0.83865 0.68251 0.58064 0.0
C3207 C 0.83271 0.6727 0.55382 0.0
C3208 C 0.85121 0.69624 0.55205 0.0
C3209 C 0.86363 0.7128 0.56463 0.0
C3210 C 0.8572 0.7061 0.57879 0.0
C3211 C 0.85686 0.70388 0.537 0.0
C3212 C 0.87939 0.7089 0.53239 0.0
C3213 C 0.83974 0.70539 0.52708 0.0
C3214 C 0.81581 0.70063 0.53147 0.0
C3215 C 0.81444 0.71411 0.5438 0.0
C3216 C 0.79181 0.70931 0.54797 0.0
C3217 C 0.77041 0.69119 0.53983 0.0
C3218 C 0.7716 0.67788 0.52746 0.0
C3219 C 0.79419 0.68259 0.52326 0.0
H3220 H 0.7529 0.6875 0.54307 0.0
H3221 H 0.9696 0.72681 0.5013 0.0
loop_
_geom_bond_atom_site_label_1
_geom_bond_atom_site_label_2
_geom_bond_distance
_geom_bond_site_symmetry_2
_ccdc_geom_bond_type
H0 C3 0.931 . S
H1 C6 0.928 . S
H2 C8 0.930 . S
C3 H0 0.931 . S
C3 C4 1.413 . S
C3 C5 1.360 . S
C4 C3 1.413 . S
C4 C8 1.429 . S
C5 C3 1.360 . S
C5 C6 1.372 . S
C6 H1 0.928 . S
C6 C5 1.372 . S
C6 C7 1.404 . S
C7 C6 1.404 . S
C7 C8 1.391 . S
C8 H2 0.930 . S
C8 C4 1.429 . S
C8 C7 1.391 . S
H9 C12 0.931 . S
H10 C15 0.928 . S
H11 C17 0.930 . S
C12 H9 0.931 . S
C12 C13 1.413 . S
C12 C14 1.360 . S
C13 C12 1.413 . S
C13 C17 1.429 . S
C14 C12 1.360 . S
C14 C15 1.372 . S
C15 H10 0.928 . S
C15 C14 1.372 . S
C15 C16 1.404 . S
C16 C15 1.404 . S
C16 C17 1.391 . S
C17 H11 0.930 . S
C17 C13 1.429 . S
C17 C16 1.391 . S
H18 C21 0.931 . S
H19 C24 0.928 . S
H20 C26 0.930 . S
C21 H18 0.931 . S
C21 C22 1.413 . S
C21 C23 1.360 . S
C22 C21 1.413 . S
C22 C26 1.429 . S
C23 C21 1.360 . S
C23 C24 1.372 . S
C24 H19 0.928 . S
C24 C23 1.372 . S
C24 C25 1.404 . S
C25 C24 1.404 . S
C25 C26 1.391 . S
C26 H20 0.930 . S
C26 C22 1.429 . S
C26 C25 1.391 . S
H27 C30 0.931 . S
H28 C33 0.928 . S
H29 C35 0.930 . S
C30 H27 0.931 . S
C30 C31 1.413 . S
C30 C32 1.360 . S
C31 C30 1.413 . S
C31 C35 1.429 . S
C32 C30 1.360 . S
C32 C33 1.372 . S
C33 H28 0.928 . S
C33 C32 1.372 . S
C33 C34 1.404 . S
C34 C33 1.404 . S
C34 C35 1.391 . S
C35 H29 0.930 . S
C35 C31 1.429 . S
C35 C34 1.391 . S
H36 C39 0.931 . S
H37 C42 0.928 . S
H38 C44 0.930 . S
C39 H36 0.931 . S
C39 C40 1.413 . S
C39 C41 1.360 . S
C40 C39 1.413 . S
C40 C44 1.429 . S
C41 C39 1.360 . S
C41 C42 1.372 . S
C42 H37 0.928 . S
C42 C41 1.372 . S
C42 C43 1.404 . S
C43 C42 1.404 . S
C43 C44 1.391 . S
C44 H38 0.930 . S
C44 C40 1.429 . S
C44 C43 1.391 . S
H45 C48 0.931 . S
H46 C51 0.928 . S
H47 C53 0.930 . S
C48 H45 0.931 . S
C48 C49 1.413 . S
C48 C50 1.360 . S
C49 C48 1.413 . S
C49 C53 1.429 . S
C50 C48 1.360 . S
C50 C51 1.372 . S
C51 H46 0.928 . S
C51 C50 1.372 . S
C51 C52 1.404 . S
C52 C51 1.404 . S
C52 C53 1.391 . S
C53 H47 0.930 . S
C53 C49 1.429 . S
C53 C52 1.391 . S
H54 C57 0.931 . S
H55 C60 0.928 . S
H56 C62 0.930 . S
C57 H54 0.931 . S
C57 C58 1.413 . S
C57 C59 1.360 . S
C58 C57 1.413 . S
C58 C62 1.429 . S
C59 C57 1.360 . S
C59 C60 1.372 . S
C60 H55 0.928 . S
C60 C59 1.372 . S
C60 C61 1.404 . S
C61 C60 1.404 . S
C61 C62 1.391 . S
C62 H56 0.930 . S
C62 C58 1.429 . S
C62 C61 1.391 . S
H63 C66 0.931 . S
H64 C69 0.928 . S
H65 C71 0.930 . S
C66 H63 0.931 . S
C66 C67 1.413 . S
C66 C68 1.360 . S
C67 C66 1.413 . S
C67 C71 1.429 . S
C68 C66 1.360 . S
C68 C69 1.372 . S
C69 H64 0.928 . S
C69 C68 1.372 . S
C69 C70 1.404 . S
C70 C69 1.404 . S
C70 C71 1.391 . S
C71 H65 0.930 . S
C71 C67 1.429 . S
C71 C70 1.391 . S
H72 C75 0.931 . S
H73 C78 0.928 . S
H74 C80 0.930 . S
C75 H72 0.931 . S
C75 C76 1.413 . S
C75 C77 1.360 . S
C76 C75 1.413 . S
C76 C80 1.429 . S
C77 C75 1.360 . S
C77 C78 1.372 . S
C78 H73 0.928 . S
C78 C77 1.372 . S
C78 C79 1.404 . S
C79 C78 1.404 . S
C79 C80 1.391 . S
C80 H74 0.930 . S
C80 C76 1.429 . S
C80 C79 1.391 . S
H81 C84 0.931 . S
H82 C87 0.928 . S
H83 C89 0.930 . S
C84 H81 0.931 . S
C84 C85 1.413 . S
C84 C86 1.360 . S
C85 C84 1.413 . S
C85 C89 1.429 . S
C86 C84 1.360 . S
C86 C87 1.372 . S
C87 H82 0.928 . S
C87 C86 1.372 . S
C87 C88 1.404 . S
C88 C87 1.404 . S
C88 C89 1.391 . S
C89 H83 0.930 . S
C89 C85 1.429 . S
C89 C88 1.391 . S
H90 C93 0.931 . S
H91 C96 0.928 . S
H92 C98 0.930 . S
C93 H90 0.931 . S
C93 C94 1.413 . S
C93 C95 1.360 . S
C94 C93 1.413 . S
C94 C98 1.429 . S
C95 C93 1.360 . S
C95 C96 1.372 . S
C96 H91 0.928 . S
C96 C95 1.372 . S
C96 C97 1.404 . S
C97 C96 1.404 . S
C97 C98 1.391 . S
C98 H92 0.930 . S
C98 C94 1.429 . S
C98 C97 1.391 . S
H99 C102 0.931 . S
H100 C105 0.928 . S
H101 C107 0.930 . S
C102 H99 0.931 . S
C102 C103 1.413 . S
C102 C104 1.360 . S
C103 C102 1.413 . S
C103 C107 1.429 . S
C104 C102 1.360 . S
C104 C105 1.372 . S
C105 H100 0.928 . S
C105 C104 1.372 . S
C105 C106 1.404 . S
C106 C105 1.404 . S
C106 C107 1.391 . S
C107 H101 0.930 . S
C107 C103 1.429 . S
C107 C106 1.391 . S
H108 C111 0.931 . S
H109 C114 0.928 . S
H110 C116 0.930 . S
C111 H108 0.931 . S
C111 C112 1.413 . S
C111 C113 1.360 . S
C112 C111 1.413 . S
C112 C116 1.429 . S
C113 C111 1.360 . S
C113 C114 1.372 . S
C114 H109 0.928 . S
C114 C113 1.372 . S
C114 C115 1.404 . S
C115 C114 1.404 . S
C115 C116 1.391 . S
C116 H110 0.930 . S
C116 C112 1.429 . S
C116 C115 1.391 . S
H117 C120 0.931 . S
H118 C123 0.928 . S
H119 C125 0.930 . S
C120 H117 0.931 . S
C120 C121 1.413 . S
C120 C122 1.360 . S
C121 C120 1.413 . S
C121 C125 1.429 . S
C122 C120 1.360 . S
C122 C123 1.372 . S
C123 H118 0.928 . S
C123 C122 1.372 . S
C123 C124 1.404 . S
C124 C123 1.404 . S
C124 C125 1.391 . S
C125 H119 0.930 . S
C125 C121 1.429 . S
C125 C124 1.391 . S
H126 C129 0.931 . S
H127 C132 0.928 . S
H128 C134 0.930 . S
C129 H126 0.931 . S
C129 C130 1.413 . S
C129 C131 1.360 . S
C130 C129 1.413 . S
C130 C134 1.429 . S
C131 C129 1.360 . S
C131 C132 1.372 . S
C132 H127 0.928 . S
C132 C131 1.372 . S
C132 C133 1.404 . S
C133 C132 1.404 . S
C133 C134 1.391 . S
C134 H128 0.930 . S
C134 C130 1.429 . S
C134 C133 1.391 . S
H135 C138 0.931 . S
H136 C141 0.928 . S
H137 C143 0.930 . S
C138 H135 0.931 . S
C138 C139 1.413 . S
C138 C140 1.360 . S
C139 C138 1.413 . S
C139 C143 1.429 . S
C140 C138 1.360 . S
C140 C141 1.372 . S
C141 H136 0.928 . S
C141 C140 1.372 . S
C141 C142 1.404 . S
C142 C141 1.404 . S
C142 C143 1.391 . S
C143 H137 0.930 . S
C143 C139 1.429 . S
C143 C142 1.391 . S
H144 C147 0.931 . S
H145 C150 0.928 . S
H146 C152 0.930 . S
C147 H144 0.931 . S
C147 C148 1.413 . S
C147 C149 1.360 . S
C148 C147 1.413 . S
C148 C152 1.429 . S
C149 C147 1.360 . S
C149 C150 1.372 . S
C150 H145 0.928 . S
C150 C149 1.372 . S
C150 C151 1.404 . S
C151 C150 1.404 . S
C151 C152 1.391 . S
C152 H146 0.930 . S
C152 C148 1.429 . S
C152 C151 1.391 . S
H153 C156 0.931 . S
H154 C159 0.928 . S
H155 C161 0.930 . S
C156 H153 0.931 . S
C156 C157 1.413 . S
C156 C158 1.360 . S
C157 C156 1.413 . S
C157 C161 1.429 . S
C158 C156 1.360 . S
C158 C159 1.372 . S
C159 H154 0.928 . S
C159 C158 1.372 . S
C159 C160 1.404 . S
C160 C159 1.404 . S
C160 C161 1.391 . S
C161 H155 0.930 . S
C161 C157 1.429 . S
C161 C160 1.391 . S
Tb162 C172 2.825 . S
Tb162 O173 2.347 1_565 S
Tb162 O176 2.366 1_565 S
Tb162 O181 2.418 . S
Tb162 O182 2.330 1_556 S
Tb162 O185 2.479 . S
Tb162 O186 2.471 1_565 S
Eu163 O174 2.418 . S
Eu163 O175 2.384 . S
Eu163 O178 2.479 . S
Eu163 O179 2.463 1_545 S
Eu163 O180 2.347 1_545 S
Eu163 O183 2.366 1_545 S
Eu163 C193 2.825 . S
C164 O180 1.259 . S
C164 O181 1.265 1_554 S
C165 O182 1.320 . S
C165 O183 1.265 . S
C166 C168 1.380 . S
C166 C169 1.374 1_565 S
C166 C172 1.507 . S
C167 C168 1.384 . S
C167 C171 1.387 1_565 S
C167 H194 0.930 . S
C168 C166 1.380 . S
C168 C167 1.384 . S
C168 H195 0.931 . S
C169 C166 1.374 1_545 S
C169 C170 1.390 . S
C169 H196 0.930 . S
C170 C169 1.390 . S
C170 C171 1.391 . S
C170 H197 0.930 . S
C171 C167 1.387 1_545 S
C171 C170 1.391 . S
C172 Tb162 2.825 . S
C172 C166 1.507 . S
C172 O185 1.238 . S
C172 O186 1.247 1_565 S
O173 Tb162 2.347 1_545 S
O173 C177 1.253 1_556 S
O174 Eu163 2.418 . S
O174 C177 1.279 . S
O175 Eu163 2.384 . S
O175 C184 1.255 1_554 S
O176 Tb162 2.366 1_545 S
O176 C184 1.265 . S
C177 O173 1.253 1_554 S
C177 O174 1.279 . S
O178 Eu163 2.479 . S
O178 C193 1.238 . S
O179 Eu163 2.463 1_565 S
O179 C193 1.234 1_565 S
O180 Eu163 2.347 1_565 S
O180 C164 1.259 . S
O181 Tb162 2.418 . S
O181 C164 1.265 1_556 S
O182 Tb162 2.330 1_554 S
O182 C165 1.320 . S
O183 Eu163 2.366 1_565 S
O183 C165 1.265 . S
C184 O175 1.255 1_556 S
C184 O176 1.265 . S
O185 Tb162 2.479 . S
O185 C172 1.238 . S
O186 Tb162 2.471 1_545 S
O186 C172 1.247 1_545 S
C187 C190 1.380 . S
C187 C191 1.374 1_545 S
C187 C193 1.507 . S
C188 C189 1.387 1_565 S
C188 C192 1.391 . S
C189 C188 1.387 1_545 S
C189 C190 1.384 . S
C189 H198 0.930 . S
C190 C187 1.380 . S
C190 C189 1.384 . S
C190 H199 0.931 . S
C191 C187 1.374 1_565 S
C191 C192 1.390 . S
C191 H200 0.930 . S
C192 C188 1.391 . S
C192 C191 1.390 . S
C192 H201 0.930 . S
C193 Eu163 2.825 . S
C193 O178 1.238 . S
C193 O179 1.234 1_545 S
C193 C187 1.507 . S
H194 C167 0.930 . S
H195 C168 0.931 . S
H196 C169 0.930 . S
H197 C170 0.930 . S
H198 C189 0.930 . S
H199 C190 0.931 . S
H200 C191 0.930 . S
H201 C192 0.930 . S
Tb202 C212 2.825 . S
Tb202 O213 2.347 1_455 S
Tb202 O216 2.366 1_455 S
Tb202 O221 2.418 . S
Tb202 O222 2.384 1_556 S
Tb202 O225 2.479 . S
Tb202 O226 2.471 1_455 S
Eu203 O214 2.418 . S
Eu203 O215 2.384 . S
Eu203 O218 2.479 . S
Eu203 O219 2.471 1_655 S
Eu203 O220 2.347 1_655 S
Eu203 O223 2.366 1_655 S
Eu203 C233 2.825 . S
C204 O220 1.259 . S
C204 O221 1.265 1_554 S
C205 O222 1.255 . S
C205 O223 1.265 . S
C206 C208 1.380 . S
C206 C209 1.374 1_455 S
C206 C212 1.507 . S
C207 C208 1.384 . S
C207 C211 1.387 1_455 S
C207 H234 0.930 . S
C208 C206 1.380 . S
C208 C207 1.384 . S
C208 H235 0.931 . S
C209 C206 1.374 1_655 S
C209 C210 1.390 . S
C209 H236 0.930 . S
C210 C209 1.390 . S
C210 C211 1.391 . S
C210 H237 0.930 . S
C211 C207 1.387 1_655 S
C211 C210 1.391 . S
C212 Tb202 2.825 . S
C212 C206 1.507 . S
C212 O225 1.238 . S
C212 O226 1.247 1_455 S
O213 Tb202 2.347 1_655 S
O213 C217 1.259 . S
O214 Eu203 2.418 . S
O214 C217 1.265 1_554 S
O215 Eu203 2.384 . S
O215 C224 1.255 1_554 S
O216 Tb202 2.366 1_655 S
O216 C224 1.265 . S
C217 O213 1.259 . S
C217 O214 1.265 1_556 S
O218 Eu203 2.479 . S
O218 C233 1.238 . S
O219 Eu203 2.471 1_455 S
O219 C233 1.247 1_455 S
O220 Eu203 2.347 1_455 S
O220 C204 1.259 . S
O221 Tb202 2.418 . S
O221 C204 1.265 1_556 S
O222 Tb202 2.384 1_554 S
O222 C205 1.255 . S
O223 Eu203 2.366 1_455 S
O223 C205 1.265 . S
C224 O215 1.255 1_556 S
C224 O216 1.265 . S
O225 Tb202 2.479 . S
O225 C212 1.238 . S
O226 Tb202 2.471 1_655 S
O226 C212 1.247 1_655 S
C227 C230 1.396 . S
C227 C231 1.346 1_655 S
C227 C233 1.520 . S
C228 C229 1.387 1_455 S
C228 C232 1.391 . S
C229 C228 1.387 1_655 S
C229 C230 1.384 . S
C229 H238 0.930 . S
C230 C227 1.396 . S
C230 C229 1.384 . S
C230 H239 0.931 . S
C231 C227 1.346 1_455 S
C231 C232 1.390 . S
C231 H240 0.930 . S
C232 C228 1.391 . S
C232 C231 1.390 . S
C232 H241 0.930 . S
C233 Eu203 2.825 . S
C233 O218 1.238 . S
C233 O219 1.247 1_655 S
C233 C227 1.520 . S
H234 C207 0.930 . S
H235 C208 0.931 . S
H236 C209 0.930 . S
H237 C210 0.930 . S
H238 C229 0.930 . S
H239 C230 0.931 . S
H240 C231 0.930 . S
H241 C232 0.930 . S
Tb242 C252 2.825 . S
Tb242 O253 2.347 . S
Tb242 O256 2.366 . S
Tb242 O261 2.418 . S
Tb242 O262 2.384 . S
Tb242 O265 2.479 . S
Tb242 O266 2.471 . S
Eu243 O254 2.418 . S
Eu243 O255 2.384 1_556 S
Eu243 O258 2.479 . S
Eu243 O259 2.471 . S
Eu243 O260 2.347 . S
Eu243 O263 2.366 . S
Eu243 C273 2.825 . S
C244 O260 1.259 . S
C244 O261 1.265 1_556 S
C245 O262 1.255 1_556 S
C245 O263 1.265 . S
C246 C248 1.380 . S
C246 C249 1.374 . S
C246 C252 1.507 . S
C247 C248 1.384 . S
C247 C251 1.387 . S
C247 H274 0.930 . S
C248 C246 1.380 . S
C248 C247 1.384 . S
C248 H275 0.931 . S
C249 C246 1.374 . S
C249 C250 1.390 . S
C249 H276 0.930 . S
C250 C249 1.390 . S
C250 C251 1.391 . S
C250 H277 0.930 . S
C251 C247 1.387 . S
C251 C250 1.391 . S
C252 Tb242 2.825 . S
C252 C246 1.507 . S
C252 O265 1.238 . S
C252 O266 1.247 . S
O253 Tb242 2.347 . S
O253 C257 1.259 . S
O254 Eu243 2.418 . S
O254 C257 1.265 1_556 S
O255 Eu243 2.384 1_554 S
O255 C264 1.255 . S
O256 Tb242 2.366 . S
O256 C264 1.265 . S
C257 O253 1.259 . S
C257 O254 1.265 1_554 S
O258 Eu243 2.479 . S
O258 C273 1.238 . S
O259 Eu243 2.471 . S
O259 C273 1.247 . S
O260 Eu243 2.347 . S
O260 C244 1.259 . S
O261 Tb242 2.418 . S
O261 C244 1.265 1_554 S
O262 Tb242 2.384 . S
O262 C245 1.255 1_554 S
O263 Eu243 2.366 . S
O263 C245 1.265 . S
C264 O255 1.255 . S
C264 O256 1.265 . S
O265 Tb242 2.479 . S
O265 C252 1.238 . S
O266 Tb242 2.471 . S
O266 C252 1.247 . S
C267 C270 1.380 . S
C267 C271 1.374 . S
C267 C273 1.507 . S
C268 C269 1.387 . S
C268 C272 1.391 . S
C269 C268 1.387 . S
C269 C270 1.384 . S
C269 H278 0.930 . S
C270 C267 1.380 . S
C270 C269 1.384 . S
C270 H279 0.931 . S
C271 C267 1.374 . S
C271 C272 1.390 . S
C271 H280 0.930 . S
C272 C268 1.391 . S
C272 C271 1.390 . S
C272 H281 0.930 . S
C273 Eu243 2.825 . S
C273 O258 1.238 . S
C273 O259 1.247 . S
C273 C267 1.507 . S
H274 C247 0.930 . S
H275 C248 0.931 . S
H276 C249 0.930 . S
H277 C250 0.930 . S
H278 C269 0.930 . S
H279 C270 0.931 . S
H280 C271 0.930 . S
H281 C272 0.930 . S
Tb282 C292 2.825 . S
Tb282 O293 2.347 . S
Tb282 O296 2.366 . S
Tb282 O301 2.418 . S
Tb282 O302 2.384 . S
Tb282 O305 2.479 . S
Tb282 O306 2.471 . S
Eu283 O294 2.418 . S
Eu283 O295 2.384 . S
Eu283 O298 2.479 . S
Eu283 O299 2.471 . S
Eu283 O300 2.347 . S
Eu283 O303 2.366 . S
Eu283 C313 2.825 . S
C284 O300 1.259 . S
C284 O301 1.265 . S
C285 O302 1.255 . S
C285 O303 1.265 . S
C286 C288 1.380 . S
C286 C289 1.374 . S
C286 C292 1.507 . S
C287 C288 1.384 . S
C287 C291 1.387 . S
C287 H314 0.930 . S
C288 C286 1.380 . S
C288 C287 1.384 . S
C288 H315 0.931 . S
C289 C286 1.374 . S
C289 C290 1.390 . S
C289 H316 0.930 . S
C290 C289 1.390 . S
C290 C291 1.391 . S
C290 H317 0.930 . S
C291 C287 1.387 . S
C291 C290 1.391 . S
C292 Tb282 2.825 . S
C292 C286 1.507 . S
C292 O305 1.238 . S
C292 O306 1.247 . S
O293 Tb282 2.347 . S
O293 C297 1.259 . S
O294 Eu283 2.418 . S
O294 C297 1.265 . S
O295 Eu283 2.384 . S
O295 C304 1.255 . S
O296 Tb282 2.366 . S
O296 C304 1.265 . S
C297 O293 1.259 . S
C297 O294 1.265 . S
O298 Eu283 2.479 . S
O298 C313 1.238 . S
O299 Eu283 2.471 . S
O299 C313 1.247 . S
O300 Eu283 2.347 . S
O300 C284 1.259 . S
O301 Tb282 2.418 . S
O301 C284 1.265 . S
O302 Tb282 2.384 . S
O302 C285 1.255 . S
O303 Eu283 2.366 . S
O303 C285 1.265 . S
C304 O295 1.255 . S
C304 O296 1.265 . S
O305 Tb282 2.479 . S
O305 C292 1.238 . S
O306 Tb282 2.471 . S
O306 C292 1.247 . S
C307 C310 1.380 . S
C307 C311 1.374 . S
C307 C313 1.507 . S
C308 C309 1.387 . S
C308 C312 1.391 . S
C309 C308 1.387 . S
C309 C310 1.384 . S
C309 H318 0.930 . S
C310 C307 1.380 . S
C310 C309 1.384 . S
C310 H319 0.931 . S
C311 C307 1.374 . S
C311 C312 1.390 . S
C311 H320 0.930 . S
C312 C308 1.391 . S
C312 C311 1.390 . S
C312 H321 0.930 . S
C313 Eu283 2.825 . S
C313 O298 1.238 . S
C313 O299 1.247 . S
C313 C307 1.507 . S
H314 C287 0.930 . S
H315 C288 0.931 . S
H316 C289 0.930 . S
H317 C290 0.930 . S
H318 C309 0.930 . S
H319 C310 0.931 . S
H320 C311 0.930 . S
H321 C312 0.930 . S
Tb322 C332 2.825 . S
Tb322 O333 2.347 . S
Tb322 O336 2.366 . S
Tb322 O341 2.418 . S
Tb322 O342 2.384 . S
Tb322 O345 2.479 . S
Tb322 O346 2.471 . S
Eu323 O334 2.418 . S
Eu323 O335 2.384 . S
Eu323 O338 2.479 . S
Eu323 O339 2.471 . S
Eu323 O340 2.347 . S
Eu323 O343 2.366 . S
Eu323 C353 2.825 . S
C324 O340 1.259 . S
C324 O341 1.265 . S
C325 O342 1.255 . S
C325 O343 1.265 . S
C326 C328 1.380 . S
C326 C329 1.374 . S
C326 C332 1.507 . S
C327 C328 1.384 . S
C327 C331 1.387 . S
C327 H354 0.930 . S
C328 C326 1.380 . S
C328 C327 1.384 . S
C328 H355 0.931 . S
C329 C326 1.374 . S
C329 C330 1.390 . S
C329 H356 0.930 . S
C330 C329 1.390 . S
C330 C331 1.391 . S
C330 H357 0.930 . S
C331 C327 1.387 . S
C331 C330 1.391 . S
C332 Tb322 2.825 . S
C332 C326 1.507 . S
C332 O345 1.238 . S
C332 O346 1.247 . S
O333 Tb322 2.347 . S
O333 C337 1.259 . S
O334 Eu323 2.418 . S
O334 C337 1.265 . S
O335 Eu323 2.384 . S
O335 C344 1.255 . S
O336 Tb322 2.366 . S
O336 C344 1.265 . S
C337 O333 1.259 . S
C337 O334 1.265 . S
O338 Eu323 2.479 . S
O338 C353 1.238 . S
O339 Eu323 2.471 . S
O339 C353 1.247 . S
O340 Eu323 2.347 . S
O340 C324 1.259 . S
O341 Tb322 2.418 . S
O341 C324 1.265 . S
O342 Tb322 2.384 . S
O342 C325 1.255 . S
O343 Eu323 2.366 . S
O343 C325 1.265 . S
C344 O335 1.255 . S
C344 O336 1.265 . S
O345 Tb322 2.479 . S
O345 C332 1.238 . S
O346 Tb322 2.471 . S
O346 C332 1.247 . S
C347 C350 1.380 . S
C347 C351 1.374 . S
C347 C353 1.507 . S
C348 C349 1.387 . S
C348 C352 1.391 . S
C349 C348 1.387 . S
C349 C350 1.384 . S
C349 H358 0.930 . S
C350 C347 1.380 . S
C350 C349 1.384 . S
C350 H359 0.931 . S
C351 C347 1.374 . S
C351 C352 1.390 . S
C351 H360 0.930 . S
C352 C348 1.391 . S
C352 C351 1.390 . S
C352 H361 0.930 . S
C353 Eu323 2.825 . S
C353 O338 1.238 . S
C353 O339 1.247 . S
C353 C347 1.507 . S
H354 C327 0.930 . S
H355 C328 0.931 . S
H356 C329 0.930 . S
H357 C330 0.930 . S
H358 C349 0.930 . S
H359 C350 0.931 . S
H360 C351 0.930 . S
H361 C352 0.930 . S
Tb362 C372 2.825 . S
Tb362 O373 2.347 . S
Tb362 O376 2.366 . S
Tb362 O381 2.418 . S
Tb362 O382 2.384 . S
Tb362 O385 2.479 . S
Tb362 O386 2.471 . S
Eu363 O374 2.418 . S
Eu363 O375 2.384 . S
Eu363 O378 2.479 . S
Eu363 O379 2.471 . S
Eu363 O380 2.347 . S
Eu363 O383 2.366 . S
Eu363 C393 2.825 . S
C364 O380 1.259 . S
C364 O381 1.265 . S
C365 O382 1.255 . S
C365 O383 1.265 . S
C366 C368 1.380 . S
C366 C369 1.374 . S
C366 C372 1.507 . S
C367 C368 1.384 . S
C367 C371 1.387 . S
C367 H394 0.930 . S
C368 C366 1.380 . S
C368 C367 1.384 . S
C368 H395 0.931 . S
C369 C366 1.374 . S
C369 C370 1.390 . S
C369 H396 0.930 . S
C370 C369 1.390 . S
C370 C371 1.391 . S
C370 H397 0.930 . S
C371 C367 1.387 . S
C371 C370 1.391 . S
C372 Tb362 2.825 . S
C372 C366 1.507 . S
C372 O385 1.238 . S
C372 O386 1.247 . S
O373 Tb362 2.347 . S
O373 C377 1.259 . S
O374 Eu363 2.418 . S
O374 C377 1.265 . S
O375 Eu363 2.384 . S
O375 C384 1.255 . S
O376 Tb362 2.366 . S
O376 C384 1.265 . S
C377 O373 1.259 . S
C377 O374 1.265 . S
O378 Eu363 2.479 . S
O378 C393 1.238 . S
O379 Eu363 2.471 . S
O379 C393 1.247 . S
O380 Eu363 2.347 . S
O380 C364 1.259 . S
O381 Tb362 2.418 . S
O381 C364 1.265 . S
O382 Tb362 2.384 . S
O382 C365 1.255 . S
O383 Eu363 2.366 . S
O383 C365 1.265 . S
C384 O375 1.255 . S
C384 O376 1.265 . S
O385 Tb362 2.479 . S
O385 C372 1.238 . S
O386 Tb362 2.471 . S
O386 C372 1.247 . S
C387 C390 1.380 . S
C387 C391 1.374 . S
C387 C393 1.507 . S
C388 C389 1.387 . S
C388 C392 1.391 . S
C389 C388 1.387 . S
C389 C390 1.384 . S
C389 H398 0.930 . S
C390 C387 1.380 . S
C390 C389 1.384 . S
C390 H399 0.931 . S
C391 C387 1.374 . S
C391 C392 1.390 . S
C391 H400 0.930 . S
C392 C388 1.391 . S
C392 C391 1.390 . S
C392 H401 0.930 . S
C393 Eu363 2.825 . S
C393 O378 1.238 . S
C393 O379 1.247 . S
C393 C387 1.507 . S
H394 C367 0.930 . S
H395 C368 0.931 . S
H396 C369 0.930 . S
H397 C370 0.930 . S
H398 C389 0.930 . S
H399 C390 0.931 . S
H400 C391 0.930 . S
H401 C392 0.930 . S
Tb402 C412 2.825 . S
Tb402 O413 2.347 . S
Tb402 O416 2.366 . S
Tb402 O421 2.418 . S
Tb402 O422 2.384 . S
Tb402 O425 2.479 . S
Tb402 O426 2.471 . S
Eu403 O414 2.418 . S
Eu403 O415 2.384 . S
Eu403 O418 2.479 . S
Eu403 O419 2.471 . S
Eu403 O420 2.347 . S
Eu403 O423 2.366 . S
Eu403 C433 2.825 . S
C404 O420 1.259 . S
C404 O421 1.265 . S
C405 O422 1.255 . S
C405 O423 1.265 . S
C406 C408 1.380 . S
C406 C409 1.374 . S
C406 C412 1.507 . S
C407 C408 1.384 . S
C407 C411 1.387 . S
C407 H434 0.930 . S
C408 C406 1.380 . S
C408 C407 1.384 . S
C408 H435 0.931 . S
C409 C406 1.374 . S
C409 C410 1.390 . S
C409 H436 0.930 . S
C410 C409 1.390 . S
C410 C411 1.391 . S
C410 H437 0.930 . S
C411 C407 1.387 . S
C411 C410 1.391 . S
C412 Tb402 2.825 . S
C412 C406 1.507 . S
C412 O425 1.238 . S
C412 O426 1.247 . S
O413 Tb402 2.347 . S
O413 C417 1.259 . S
O414 Eu403 2.418 . S
O414 C417 1.265 . S
O415 Eu403 2.384 . S
O415 C424 1.255 . S
O416 Tb402 2.366 . S
O416 C424 1.265 . S
C417 O413 1.259 . S
C417 O414 1.265 . S
O418 Eu403 2.479 . S
O418 C433 1.238 . S
O419 Eu403 2.471 . S
O419 C433 1.247 . S
O420 Eu403 2.347 . S
O420 C404 1.259 . S
O421 Tb402 2.418 . S
O421 C404 1.265 . S
O422 Tb402 2.384 . S
O422 C405 1.255 . S
O423 Eu403 2.366 . S
O423 C405 1.265 . S
C424 O415 1.255 . S
C424 O416 1.265 . S
O425 Tb402 2.479 . S
O425 C412 1.238 . S
O426 Tb402 2.471 . S
O426 C412 1.247 . S
C427 C430 1.380 . S
C427 C431 1.374 . S
C427 C433 1.507 . S
C428 C429 1.387 . S
C428 C432 1.391 . S
C429 C428 1.387 . S
C429 C430 1.384 . S
C429 H438 0.930 . S
C430 C427 1.380 . S
C430 C429 1.384 . S
C430 H439 0.931 . S
C431 C427 1.374 . S
C431 C432 1.390 . S
C431 H440 0.930 . S
C432 C428 1.391 . S
C432 C431 1.390 . S
C432 H441 0.930 . S
C433 Eu403 2.825 . S
C433 O418 1.238 . S
C433 O419 1.247 . S
C433 C427 1.507 . S
H434 C407 0.930 . S
H435 C408 0.931 . S
H436 C409 0.930 . S
H437 C410 0.930 . S
H438 C429 0.930 . S
H439 C430 0.931 . S
H440 C431 0.930 . S
H441 C432 0.930 . S
Tb442 C452 2.825 . S
Tb442 O453 2.347 . S
Tb442 O456 2.366 . S
Tb442 O461 2.418 . S
Tb442 O462 2.384 . S
Tb442 O465 2.479 . S
Tb442 O466 2.471 . S
Eu443 O454 2.418 . S
Eu443 O455 2.384 . S
Eu443 O458 2.479 . S
Eu443 O459 2.471 . S
Eu443 O460 2.347 . S
Eu443 O463 2.366 . S
Eu443 C473 2.825 . S
C444 O460 1.259 . S
C444 O461 1.265 . S
C445 O462 1.255 . S
C445 O463 1.265 . S
C446 C448 1.380 . S
C446 C449 1.374 . S
C446 C452 1.507 . S
C447 C448 1.384 . S
C447 C451 1.387 . S
C447 H474 0.930 . S
C448 C446 1.380 . S
C448 C447 1.384 . S
C448 H475 0.931 . S
C449 C446 1.374 . S
C449 C450 1.390 . S
C449 H476 0.930 . S
C450 C449 1.390 . S
C450 C451 1.391 . S
C450 H477 0.930 . S
C451 C447 1.387 . S
C451 C450 1.391 . S
C452 Tb442 2.825 . S
C452 C446 1.507 . S
C452 O465 1.238 . S
C452 O466 1.247 . S
O453 Tb442 2.347 . S
O453 C457 1.259 . S
O454 Eu443 2.418 . S
O454 C457 1.265 . S
O455 Eu443 2.384 . S
O455 C464 1.255 . S
O456 Tb442 2.366 . S
O456 C464 1.265 . S
C457 O453 1.259 . S
C457 O454 1.265 . S
O458 Eu443 2.479 . S
O458 C473 1.238 . S
O459 Eu443 2.471 . S
O459 C473 1.247 . S
O460 Eu443 2.347 . S
O460 C444 1.259 . S
O461 Tb442 2.418 . S
O461 C444 1.265 . S
O462 Tb442 2.384 . S
O462 C445 1.255 . S
O463 Eu443 2.366 . S
O463 C445 1.265 . S
C464 O455 1.255 . S
C464 O456 1.265 . S
O465 Tb442 2.479 . S
O465 C452 1.238 . S
O466 Tb442 2.471 . S
O466 C452 1.247 . S
C467 C470 1.380 . S
C467 C471 1.374 . S
C467 C473 1.507 . S
C468 C469 1.387 . S
C468 C472 1.391 . S
C469 C468 1.387 . S
C469 C470 1.384 . S
C469 H478 0.930 . S
C470 C467 1.380 . S
C470 C469 1.384 . S
C470 H479 0.931 . S
C471 C467 1.374 . S
C471 C472 1.390 . S
C471 H480 0.930 . S
C472 C468 1.391 . S
C472 C471 1.390 . S
C472 H481 0.930 . S
C473 Eu443 2.825 . S
C473 O458 1.238 . S
C473 O459 1.247 . S
C473 C467 1.507 . S
H474 C447 0.930 . S
H475 C448 0.931 . S
H476 C449 0.930 . S
H477 C450 0.930 . S
H478 C469 0.930 . S
H479 C470 0.931 . S
H480 C471 0.930 . S
H481 C472 0.930 . S
Tb482 C492 2.825 . S
Tb482 O493 2.347 . S
Tb482 O496 2.366 . S
Tb482 O501 2.418 . S
Tb482 O502 2.384 . S
Tb482 O505 2.479 . S
Tb482 O506 2.471 . S
Eu483 O494 2.418 . S
Eu483 O495 2.384 . S
Eu483 O498 2.479 . S
Eu483 O499 2.471 . S
Eu483 O500 2.347 . S
Eu483 O503 2.366 . S
Eu483 C513 2.825 . S
C484 O500 1.259 . S
C484 O501 1.265 . S
C485 O502 1.255 . S
C485 O503 1.265 . S
C486 C488 1.380 . S
C486 C489 1.374 . S
C486 C492 1.507 . S
C487 C488 1.384 . S
C487 C491 1.387 . S
C487 H514 0.930 . S
C488 C486 1.380 . S
C488 C487 1.384 . S
C488 H515 0.931 . S
C489 C486 1.374 . S
C489 C490 1.390 . S
C489 H516 0.930 . S
C490 C489 1.390 . S
C490 C491 1.391 . S
C490 H517 0.930 . S
C491 C487 1.387 . S
C491 C490 1.391 . S
C492 Tb482 2.825 . S
C492 C486 1.507 . S
C492 O505 1.238 . S
C492 O506 1.247 . S
O493 Tb482 2.347 . S
O493 C497 1.259 . S
O494 Eu483 2.418 . S
O494 C497 1.265 . S
O495 Eu483 2.384 . S
O495 C504 1.255 . S
O496 Tb482 2.366 . S
O496 C504 1.265 . S
C497 O493 1.259 . S
C497 O494 1.265 . S
O498 Eu483 2.479 . S
O498 C513 1.238 . S
O499 Eu483 2.471 . S
O499 C513 1.247 . S
O500 Eu483 2.347 . S
O500 C484 1.259 . S
O501 Tb482 2.418 . S
O501 C484 1.265 . S
O502 Tb482 2.384 . S
O502 C485 1.255 . S
O503 Eu483 2.366 . S
O503 C485 1.265 . S
C504 O495 1.255 . S
C504 O496 1.265 . S
O505 Tb482 2.479 . S
O505 C492 1.238 . S
O506 Tb482 2.471 . S
O506 C492 1.247 . S
C507 C510 1.380 . S
C507 C511 1.374 . S
C507 C513 1.507 . S
C508 C509 1.387 . S
C508 C512 1.391 . S
C509 C508 1.387 . S
C509 C510 1.384 . S
C509 H518 0.930 . S
C510 C507 1.380 . S
C510 C509 1.384 . S
C510 H519 0.931 . S
C511 C507 1.374 . S
C511 C512 1.390 . S
C511 H520 0.930 . S
C512 C508 1.391 . S
C512 C511 1.390 . S
C512 H521 0.930 . S
C513 Eu483 2.825 . S
C513 O498 1.238 . S
C513 O499 1.247 . S
C513 C507 1.507 . S
H514 C487 0.930 . S
H515 C488 0.931 . S
H516 C489 0.930 . S
H517 C490 0.930 . S
H518 C509 0.930 . S
H519 C510 0.931 . S
H520 C511 0.930 . S
H521 C512 0.930 . S
H522 C540 0.951 . S
H523 C542 0.951 . S
H524 C544 0.950 . S
H525 C545 0.950 . S
H526 C547 0.950 . S
H527 C550 0.950 . S
H528 C551 0.950 . S
H529 C553 0.950 . S
H530 C554 0.950 . S
H531 C555 0.951 . S
H532 C557 0.951 . S
H533 C559 0.950 . S
H534 C560 0.949 1_556 S
H535 C562 0.950 . S
H536 C565 0.950 . S
H537 C566 0.950 1_545 S
H538 C568 0.933 1_545 S
H539 C569 0.950 . S
C540 H522 0.951 . S
C540 C541 1.366 . S
C540 C542 1.388 . S
C541 C540 1.366 . S
C541 C545 1.385 . S
C542 H523 0.951 . S
C542 C540 1.388 . S
C542 C543 1.366 . S
C543 C542 1.366 . S
C543 C544 1.414 . S
C543 C546 1.499 . S
C544 H524 0.950 . S
C544 C543 1.414 . S
C544 C545 1.374 . S
C545 H525 0.950 . S
C545 C541 1.385 . S
C545 C544 1.374 . S
C546 C543 1.499 . S
C546 C547 1.373 . S
C546 C548 1.389 . S
C547 H526 0.950 . S
C547 C546 1.373 . S
C547 C563 1.377 . S
C548 C546 1.389 . S
C548 C549 1.524 . S
C548 C562 1.377 . S
C549 C548 1.524 . S
C549 C550 1.397 . S
C549 C554 1.363 . S
C550 H527 0.950 . S
C550 C549 1.397 . S
C550 C551 1.334 . S
C551 H528 0.950 . S
C551 C550 1.334 . S
C551 C552 1.287 . S
C552 C551 1.287 . S
C552 C553 1.524 . S
C552 H571 0.913 . S
C553 H529 0.950 . S
C553 C552 1.524 . S
C553 C554 1.415 . S
C554 H530 0.950 . S
C554 C549 1.363 . S
C554 C553 1.415 . S
C555 H531 0.951 . S
C555 C556 1.366 . S
C555 C557 1.388 . S
C556 C555 1.366 . S
C556 C560 1.385 . S
C557 H532 0.951 . S
C557 C555 1.388 . S
C557 C558 1.366 . S
C558 C557 1.366 . S
C558 C559 1.414 . S
C558 C561 1.499 . S
C559 H533 0.950 . S
C559 C558 1.414 . S
C559 C560 1.374 . S
C560 H534 0.949 1_554 S
C560 C556 1.385 . S
C560 C559 1.374 . S
C561 C558 1.499 . S
C561 C562 1.373 . S
C561 C563 1.389 . S
C562 H535 0.950 . S
C562 C548 1.377 . S
C562 C561 1.373 . S
C563 C547 1.377 . S
C563 C561 1.389 . S
C563 C564 1.524 . S
C564 C563 1.524 . S
C564 C565 1.397 . S
C564 C569 1.363 . S
C565 H536 0.950 . S
C565 C564 1.397 . S
C565 C566 1.334 . S
C566 H537 0.950 1_565 S
C566 C565 1.334 . S
C566 C567 1.287 1_565 S
C567 C566 1.287 1_545 S
C567 C568 1.524 1_545 S
C567 H570 0.999 . S
C568 H538 0.933 1_565 S
C568 C567 1.524 1_565 S
C568 C569 1.415 . S
C569 H539 0.950 . S
C569 C564 1.363 . S
C569 C568 1.415 . S
H570 C567 0.999 . S
H571 C552 0.913 . S
H572 C590 0.951 . S
H573 C592 0.951 . S
H574 C594 0.950 . S
H575 C595 0.950 . S
H576 C597 0.950 . S
H577 C600 0.950 . S
H578 C601 0.950 . S
H579 C603 0.950 . S
H580 C604 0.950 . S
H581 C605 0.951 . S
H582 C607 0.951 . S
H583 C609 0.950 . S
H584 C610 0.950 . S
H585 C612 0.950 . S
H586 C615 0.950 . S
H587 C616 0.950 . S
H588 C618 0.950 . S
H589 C619 0.950 . S
C590 H572 0.951 . S
C590 C591 1.366 . S
C590 C592 1.388 . S
C591 C590 1.366 . S
C591 C595 1.385 . S
C592 H573 0.951 . S
C592 C590 1.388 . S
C592 C593 1.366 . S
C593 C592 1.366 . S
C593 C594 1.414 . S
C593 C596 1.499 . S
C594 H574 0.950 . S
C594 C593 1.414 . S
C594 C595 1.374 . S
C595 H575 0.950 . S
C595 C591 1.385 . S
C595 C594 1.374 . S
C596 C593 1.499 . S
C596 C597 1.373 . S
C596 C598 1.389 . S
C597 H576 0.950 . S
C597 C596 1.373 . S
C597 C613 1.377 . S
C598 C596 1.389 . S
C598 C599 1.524 . S
C598 C612 1.377 . S
C599 C598 1.524 . S
C599 C600 1.397 . S
C599 C604 1.363 . S
C600 H577 0.950 . S
C600 C599 1.397 . S
C600 C601 1.334 . S
C601 H578 0.950 . S
C601 C600 1.334 . S
C601 C602 1.287 . S
C602 C601 1.287 . S
C602 C603 1.524 . S
C602 H621 0.913 . S
C603 H579 0.950 . S
C603 C602 1.524 . S
C603 C604 1.415 . S
C604 H580 0.950 . S
C604 C599 1.363 . S
C604 C603 1.415 . S
C605 H581 0.951 . S
C605 C606 1.366 . S
C605 C607 1.388 . S
C606 C605 1.366 . S
C606 C610 1.385 . S
C607 H582 0.951 . S
C607 C605 1.388 . S
C607 C608 1.366 . S
C608 C607 1.366 . S
C608 C609 1.414 . S
C608 C611 1.499 . S
C609 H583 0.950 . S
C609 C608 1.414 . S
C609 C610 1.374 . S
C610 H584 0.950 . S
C610 C606 1.385 . S
C610 C609 1.374 . S
C611 C608 1.499 . S
C611 C612 1.373 . S
C611 C613 1.389 . S
C612 H585 0.950 . S
C612 C598 1.377 . S
C612 C611 1.373 . S
C613 C597 1.377 . S
C613 C611 1.389 . S
C613 C614 1.524 . S
C614 C613 1.524 . S
C614 C615 1.397 . S
C614 C619 1.363 . S
C615 H586 0.950 . S
C615 C614 1.397 . S
C615 C616 1.334 . S
C616 H587 0.950 . S
C616 C615 1.334 . S
C616 C617 1.287 . S
C617 C616 1.287 . S
C617 C618 1.524 . S
C617 H620 0.999 . S
C618 H588 0.950 . S
C618 C617 1.524 . S
C618 C619 1.415 . S
C619 H589 0.950 . S
C619 C614 1.363 . S
C619 C618 1.415 . S
H620 C617 0.999 . S
H621 C602 0.913 . S
H622 C640 0.951 . S
H623 C642 0.951 . S
H624 C644 0.950 . S
H625 C645 0.950 . S
H626 C647 0.950 . S
H627 C650 0.950 . S
H628 C651 0.950 . S
H629 C653 0.950 . S
H630 C654 0.950 . S
H631 C655 0.951 1_556 S
H632 C657 0.951 . S
H633 C659 0.950 . S
H634 C660 0.950 . S
H635 C662 0.950 . S
H636 C665 0.950 . S
H637 C666 0.949 . S
H638 C668 0.950 . S
H639 C669 0.950 . S
C640 H622 0.951 . S
C640 C641 1.366 . S
C640 C642 1.388 . S
C641 C640 1.366 . S
C641 C645 1.385 . S
C642 H623 0.951 . S
C642 C640 1.388 . S
C642 C643 1.366 . S
C643 C642 1.366 . S
C643 C644 1.414 . S
C643 C646 1.499 . S
C644 H624 0.950 . S
C644 C643 1.414 . S
C644 C645 1.374 . S
C645 H625 0.950 . S
C645 C641 1.385 . S
C645 C644 1.374 . S
C646 C643 1.499 . S
C646 C647 1.373 . S
C646 C648 1.389 . S
C647 H626 0.950 . S
C647 C646 1.373 . S
C647 C663 1.377 . S
C648 C646 1.389 . S
C648 C649 1.524 . S
C648 C662 1.377 . S
C649 C648 1.524 . S
C649 C650 1.397 . S
C649 C654 1.363 . S
C650 H627 0.950 . S
C650 C649 1.397 . S
C650 C651 1.334 . S
C651 H628 0.950 . S
C651 C650 1.334 . S
C651 C652 1.287 . S
C652 C651 1.287 . S
C652 C653 1.524 . S
C652 H671 0.913 . S
C653 H629 0.950 . S
C653 C652 1.524 . S
C653 C654 1.415 . S
C654 H630 0.950 . S
C654 C649 1.363 . S
C654 C653 1.415 . S
C655 H631 0.951 1_554 S
C655 C656 1.366 . S
C655 C657 1.388 . S
C656 C655 1.366 . S
C656 C660 1.385 . S
C657 H632 0.951 . S
C657 C655 1.388 . S
C657 C658 1.366 . S
C658 C657 1.366 . S
C658 C659 1.414 . S
C658 C661 1.499 . S
C659 H633 0.950 . S
C659 C658 1.414 . S
C659 C660 1.374 . S
C660 H634 0.950 . S
C660 C656 1.385 . S
C660 C659 1.374 . S
C661 C658 1.499 . S
C661 C662 1.373 . S
C661 C663 1.389 . S
C662 H635 0.950 . S
C662 C648 1.377 . S
C662 C661 1.373 . S
C663 C647 1.377 . S
C663 C661 1.389 . S
C663 C664 1.524 . S
C664 C663 1.524 . S
C664 C665 1.397 . S
C664 C669 1.363 1_554 S
C665 H636 0.950 . S
C665 C664 1.397 . S
C665 C666 1.334 1_554 S
C666 H637 0.949 . S
C666 C665 1.334 1_556 S
C666 C667 1.287 . S
C667 C666 1.287 . S
C667 C668 1.524 . S
C667 H670 0.999 . S
C668 H638 0.950 . S
C668 C667 1.524 . S
C668 C669 1.415 . S
C669 H639 0.950 . S
C669 C664 1.363 1_556 S
C669 C668 1.415 . S
H670 C667 0.999 . S
H671 C652 0.913 . S
H672 C690 0.951 . S
H673 C692 0.951 . S
H674 C694 0.950 . S
H675 C695 0.950 . S
H676 C697 0.950 . S
H677 C700 0.950 . S
H678 C701 0.950 . S
H679 C703 0.950 . S
H680 C704 0.950 . S
H681 C705 0.951 . S
H682 C707 0.951 . S
H683 C709 0.939 1_554 S
H684 C710 0.874 1_554 S
H685 C712 0.950 . S
H686 C715 0.950 . S
H687 C716 0.950 . S
H688 C718 0.950 . S
H689 C719 0.950 . S
C690 H672 0.951 . S
C690 C691 1.366 . S
C690 C692 1.388 . S
C691 C690 1.366 . S
C691 C695 1.385 . S
C692 H673 0.951 . S
C692 C690 1.388 . S
C692 C693 1.366 . S
C693 C692 1.366 . S
C693 C694 1.414 . S
C693 C696 1.499 . S
C694 H674 0.950 . S
C694 C693 1.414 . S
C694 C695 1.374 . S
C695 H675 0.950 . S
C695 C691 1.385 . S
C695 C694 1.374 . S
C696 C693 1.499 . S
C696 C697 1.373 . S
C696 C698 1.389 . S
C697 H676 0.950 . S
C697 C696 1.373 . S
C697 C713 1.377 . S
C698 C696 1.389 . S
C698 C699 1.524 . S
C698 C712 1.377 . S
C699 C698 1.524 . S
C699 C700 1.397 . S
C699 C704 1.363 . S
C700 H677 0.950 . S
C700 C699 1.397 . S
C700 C701 1.334 . S
C701 H678 0.950 . S
C701 C700 1.334 . S
C701 C702 1.287 . S
C702 C701 1.287 . S
C702 C703 1.524 . S
C702 H721 0.913 . S
C703 H679 0.950 . S
C703 C702 1.524 . S
C703 C704 1.415 . S
C704 H680 0.950 . S
C704 C699 1.363 . S
C704 C703 1.415 . S
C705 H681 0.951 . S
C705 C706 1.366 . S
C705 C707 1.388 . S
C706 C705 1.366 . S
C706 C710 1.444 . S
C707 H682 0.951 . S
C707 C705 1.388 . S
C707 C708 1.366 . S
C708 C707 1.366 . S
C708 C709 1.414 . S
C708 C711 1.499 . S
C709 H683 0.939 1_556 S
C709 C708 1.414 . S
C709 C710 1.395 . S
C710 H684 0.874 1_556 S
C710 C706 1.444 . S
C710 C709 1.395 . S
C711 C708 1.499 . S
C711 C712 1.373 . S
C711 C713 1.389 . S
C712 H685 0.950 . S
C712 C698 1.377 . S
C712 C711 1.373 . S
C713 C697 1.377 . S
C713 C711 1.389 . S
C713 C714 1.524 . S
C714 C713 1.524 . S
C714 C715 1.397 . S
C714 C719 1.363 . S
C715 H686 0.950 . S
C715 C714 1.397 . S
C715 C716 1.334 . S
C716 H687 0.950 . S
C716 C715 1.334 . S
C716 C717 1.287 . S
C717 C716 1.287 . S
C717 C718 1.524 . S
C717 H720 0.999 1_655 S
C718 H688 0.950 . S
C718 C717 1.524 . S
C718 C719 1.415 . S
C719 H689 0.950 . S
C719 C714 1.363 . S
C719 C718 1.415 . S
H720 C717 0.999 1_455 S
H721 C702 0.913 . S
H722 C740 0.951 . S
H723 C742 0.951 . S
H724 C744 0.950 . S
H725 C745 0.950 . S
H726 C747 0.950 . S
H727 C750 0.950 . S
H728 C751 0.950 . S
H729 C753 0.950 . S
H730 C754 0.950 . S
H731 C755 0.951 1_554 S
H732 C757 0.951 . S
H733 C759 0.950 . S
H734 C760 0.950 . S
H735 C762 0.950 . S
H736 C765 0.950 . S
H737 C766 0.950 . S
H738 C768 0.950 . S
H739 C769 0.950 . S
C740 H722 0.951 . S
C740 C741 1.366 . S
C740 C742 1.388 . S
C741 C740 1.366 . S
C741 C745 1.385 . S
C742 H723 0.951 . S
C742 C740 1.388 . S
C742 C743 1.366 . S
C743 C742 1.366 . S
C743 C744 1.414 . S
C743 C746 1.499 . S
C744 H724 0.950 . S
C744 C743 1.414 . S
C744 C745 1.374 . S
C745 H725 0.950 . S
C745 C741 1.385 . S
C745 C744 1.374 . S
C746 C743 1.499 . S
C746 C747 1.373 . S
C746 C748 1.389 . S
C747 H726 0.950 . S
C747 C746 1.373 . S
C747 C763 1.377 . S
C748 C746 1.389 . S
C748 C749 1.524 . S
C748 C762 1.377 . S
C749 C748 1.524 . S
C749 C750 1.397 . S
C749 C754 1.363 . S
C750 H727 0.950 . S
C750 C749 1.397 . S
C750 C751 1.334 . S
C751 H728 0.950 . S
C751 C750 1.334 . S
C751 C752 1.287 . S
C752 C751 1.287 . S
C752 C753 1.524 . S
C752 H771 0.913 . S
C753 H729 0.950 . S
C753 C752 1.524 . S
C753 C754 1.415 . S
C754 H730 0.950 . S
C754 C749 1.363 . S
C754 C753 1.415 . S
C755 H731 0.951 1_556 S
C755 C756 1.366 . S
C755 C757 1.388 . S
C756 C755 1.366 . S
C756 C760 1.385 . S
C757 H732 0.951 . S
C757 C755 1.388 . S
C757 C758 1.366 . S
C758 C757 1.366 . S
C758 C759 1.414 . S
C758 C761 1.499 . S
C759 H733 0.950 . S
C759 C758 1.414 . S
C759 C760 1.374 . S
C760 H734 0.950 . S
C760 C756 1.385 . S
C760 C759 1.374 . S
C761 C758 1.499 . S
C761 C762 1.373 . S
C761 C763 1.389 . S
C762 H735 0.950 . S
C762 C748 1.377 . S
C762 C761 1.373 . S
C763 C747 1.377 . S
C763 C761 1.389 . S
C763 C764 1.524 . S
C764 C763 1.524 . S
C764 C765 1.397 . S
C764 C769 1.363 . S
C765 H736 0.950 . S
C765 C764 1.397 . S
C765 C766 1.334 . S
C766 H737 0.950 . S
C766 C765 1.334 . S
C766 C767 1.287 1_556 S
C767 C766 1.287 1_554 S
C767 C768 1.524 . S
C767 H770 0.999 . S
C768 H738 0.950 . S
C768 C767 1.524 . S
C768 C769 1.415 1_554 S
C769 H739 0.950 . S
C769 C764 1.363 . S
C769 C768 1.415 1_556 S
H770 C767 0.999 . S
H771 C752 0.913 . S
H772 C790 0.951 . S
H773 C792 0.951 . S
H774 C794 0.950 . S
H775 C795 0.950 . S
H776 C797 0.950 . S
H777 C800 0.950 . S
H778 C801 0.950 . S
H779 C803 0.950 . S
H780 C804 0.950 . S
H781 C805 0.951 . S
H782 C807 0.951 . S
H783 C809 0.950 . S
H784 C810 0.950 . S
H785 C812 0.950 . S
H786 C815 0.950 . S
H787 C816 0.950 . S
H788 C818 0.950 . S
H789 C819 0.950 . S
C790 H772 0.951 . S
C790 C791 1.366 . S
C790 C792 1.388 . S
C791 C790 1.366 . S
C791 C795 1.385 . S
C792 H773 0.951 . S
C792 C790 1.388 . S
C792 C793 1.366 . S
C793 C792 1.366 . S
C793 C794 1.414 . S
C793 C796 1.499 . S
C794 H774 0.950 . S
C794 C793 1.414 . S
C794 C795 1.374 . S
C795 H775 0.950 . S
C795 C791 1.385 . S
C795 C794 1.374 . S
C796 C793 1.499 . S
C796 C797 1.373 . S
C796 C798 1.389 . S
C797 H776 0.950 . S
C797 C796 1.373 . S
C797 C813 1.377 . S
C798 C796 1.389 . S
C798 C799 1.524 . S
C798 C812 1.377 . S
C799 C798 1.524 . S
C799 C800 1.397 . S
C799 C804 1.363 . S
C800 H777 0.950 . S
C800 C799 1.397 . S
C800 C801 1.334 1_556 S
C801 H778 0.950 . S
C801 C800 1.334 1_554 S
C801 C802 1.287 . S
C802 C801 1.287 . S
C802 C803 1.524 . S
C802 H821 0.913 . S
C803 H779 0.950 . S
C803 C802 1.524 . S
C803 C804 1.415 1_554 S
C804 H780 0.950 . S
C804 C799 1.363 . S
C804 C803 1.415 1_556 S
C805 H781 0.951 . S
C805 C806 1.366 . S
C805 C807 1.388 . S
C806 C805 1.366 . S
C806 C810 1.385 . S
C807 H782 0.951 . S
C807 C805 1.388 . S
C807 C808 1.366 . S
C808 C807 1.366 . S
C808 C809 1.414 . S
C808 C811 1.499 . S
C809 H783 0.950 . S
C809 C808 1.414 . S
C809 C810 1.374 . S
C810 H784 0.950 . S
C810 C806 1.385 . S
C810 C809 1.374 . S
C811 C808 1.499 . S
C811 C812 1.373 . S
C811 C813 1.389 . S
C812 H785 0.950 . S
C812 C798 1.377 . S
C812 C811 1.373 . S
C813 C797 1.377 . S
C813 C811 1.389 . S
C813 C814 1.524 . S
C814 C813 1.524 . S
C814 C815 1.397 . S
C814 C819 1.363 . S
C815 H786 0.950 . S
C815 C814 1.397 . S
C815 C816 1.334 . S
C816 H787 0.950 . S
C816 C815 1.334 . S
C816 C817 1.287 . S
C817 C816 1.287 . S
C817 C818 1.524 . S
C817 H820 0.999 . S
C818 H788 0.950 . S
C818 C817 1.524 . S
C818 C819 1.415 . S
C819 H789 0.950 . S
C819 C814 1.363 . S
C819 C818 1.415 . S
H820 C817 0.999 . S
H821 C802 0.913 . S
H822 C840 0.951 . S
H823 C842 0.951 . S
H824 C844 0.950 . S
H825 C845 0.950 . S
H826 C847 0.950 . S
H827 C850 0.950 . S
H828 C851 0.950 . S
H829 C853 0.950 . S
H830 C854 0.950 . S
H831 C855 0.951 . S
H832 C857 0.951 . S
H833 C859 0.950 . S
H834 C860 0.950 . S
H835 C862 0.950 . S
H836 C865 0.950 . S
H837 C866 0.950 . S
H838 C868 0.950 . S
H839 C869 0.950 . S
C840 H822 0.951 . S
C840 C841 1.366 . S
C840 C842 1.388 . S
C841 C840 1.366 . S
C841 C845 1.385 . S
C842 H823 0.951 . S
C842 C840 1.388 . S
C842 C843 1.366 . S
C843 C842 1.366 . S
C843 C844 1.414 . S
C843 C846 1.499 . S
C844 H824 0.950 . S
C844 C843 1.414 . S
C844 C845 1.374 . S
C845 H825 0.950 . S
C845 C841 1.385 . S
C845 C844 1.374 . S
C846 C843 1.499 . S
C846 C847 1.373 . S
C846 C848 1.389 . S
C847 H826 0.950 . S
C847 C846 1.373 . S
C847 C863 1.377 . S
C848 C846 1.389 . S
C848 C849 1.524 . S
C848 C862 1.377 . S
C849 C848 1.524 . S
C849 C850 1.397 . S
C849 C854 1.363 . S
C850 H827 0.950 . S
C850 C849 1.397 . S
C850 C851 1.334 . S
C851 H828 0.950 . S
C851 C850 1.334 . S
C851 C852 1.287 . S
C852 C851 1.287 . S
C852 C853 1.524 . S
C852 H871 0.913 . S
C853 H829 0.950 . S
C853 C852 1.524 . S
C853 C854 1.415 . S
C854 H830 0.950 . S
C854 C849 1.363 . S
C854 C853 1.415 . S
C855 H831 0.951 . S
C855 C856 1.366 . S
C855 C857 1.388 . S
C856 C855 1.366 . S
C856 C860 1.385 . S
C857 H832 0.951 . S
C857 C855 1.388 . S
C857 C858 1.366 . S
C858 C857 1.366 . S
C858 C859 1.414 . S
C858 C861 1.499 . S
C859 H833 0.950 . S
C859 C858 1.414 . S
C859 C860 1.374 . S
C860 H834 0.950 . S
C860 C856 1.385 . S
C860 C859 1.374 . S
C861 C858 1.499 . S
C861 C862 1.373 . S
C861 C863 1.389 . S
C862 H835 0.950 . S
C862 C848 1.377 . S
C862 C861 1.373 . S
C863 C847 1.377 . S
C863 C861 1.389 . S
C863 C864 1.524 . S
C864 C863 1.524 . S
C864 C865 1.397 1_556 S
C864 C869 1.363 . S
C865 H836 0.950 . S
C865 C864 1.397 1_554 S
C865 C866 1.334 . S
C866 H837 0.950 . S
C866 C865 1.334 . S
C866 C867 1.287 . S
C867 C866 1.287 . S
C867 C868 1.524 . S
C867 H870 0.999 . S
C868 H838 0.950 . S
C868 C867 1.524 . S
C868 C869 1.415 1_554 S
C869 H839 0.950 . S
C869 C864 1.363 . S
C869 C868 1.415 1_556 S
H870 C867 0.999 . S
H871 C852 0.913 . S
H872 C890 0.951 . S
H873 C892 0.951 . S
H874 C894 0.950 . S
H875 C895 0.950 . S
H876 C897 0.950 . S
H877 C900 0.950 . S
H878 C901 0.950 . S
H879 C903 0.950 . S
H880 C904 0.950 . S
H881 C905 0.951 . S
H882 C907 0.951 . S
H883 C909 0.950 . S
H884 C910 0.950 . S
H885 C912 0.950 . S
H886 C915 0.950 . S
H887 C916 0.950 . S
H888 C918 0.950 . S
H889 C919 0.950 . S
C890 H872 0.951 . S
C890 C891 1.366 . S
C890 C892 1.388 . S
C891 C890 1.366 . S
C891 C895 1.385 . S
C892 H873 0.951 . S
C892 C890 1.388 . S
C892 C893 1.366 . S
C893 C892 1.366 . S
C893 C894 1.414 . S
C893 C896 1.499 . S
C894 H874 0.950 . S
C894 C893 1.414 . S
C894 C895 1.374 . S
C895 H875 0.950 . S
C895 C891 1.385 . S
C895 C894 1.374 . S
C896 C893 1.499 . S
C896 C897 1.373 . S
C896 C898 1.389 . S
C897 H876 0.950 . S
C897 C896 1.373 . S
C897 C913 1.377 . S
C898 C896 1.389 . S
C898 C899 1.524 . S
C898 C912 1.377 . S
C899 C898 1.524 . S
C899 C900 1.397 . S
C899 C904 1.363 . S
C900 H877 0.950 . S
C900 C899 1.397 . S
C900 C901 1.334 . S
C901 H878 0.950 . S
C901 C900 1.334 . S
C901 C902 1.287 . S
C902 C901 1.287 . S
C902 C903 1.524 . S
C902 H921 0.913 . S
C903 H879 0.950 . S
C903 C902 1.524 . S
C903 C904 1.415 . S
C904 H880 0.950 . S
C904 C899 1.363 . S
C904 C903 1.415 . S
C905 H881 0.951 . S
C905 C906 1.366 . S
C905 C907 1.388 . S
C906 C905 1.366 . S
C906 C910 1.385 . S
C907 H882 0.951 . S
C907 C905 1.388 . S
C907 C908 1.366 . S
C908 C907 1.366 . S
C908 C909 1.414 . S
C908 C911 1.499 . S
C909 H883 0.950 . S
C909 C908 1.414 . S
C909 C910 1.374 . S
C910 H884 0.950 . S
C910 C906 1.385 . S
C910 C909 1.374 . S
C911 C908 1.499 . S
C911 C912 1.373 . S
C911 C913 1.389 . S
C912 H885 0.950 . S
C912 C898 1.377 . S
C912 C911 1.373 . S
C913 C897 1.377 . S
C913 C911 1.389 . S
C913 C914 1.524 . S
C914 C913 1.524 . S
C914 C915 1.397 . S
C914 C919 1.363 . S
C915 H886 0.950 . S
C915 C914 1.397 . S
C915 C916 1.334 1_556 S
C916 H887 0.950 . S
C916 C915 1.334 1_554 S
C916 C917 1.287 . S
C917 C916 1.287 . S
C917 C918 1.524 . S
C917 H920 0.999 . S
C918 H888 0.950 . S
C918 C917 1.524 . S
C918 C919 1.415 1_554 S
C919 H889 0.950 . S
C919 C914 1.363 . S
C919 C918 1.415 1_556 S
H920 C917 0.999 . S
H921 C902 0.913 . S
H922 C940 0.951 . S
H923 C942 0.951 . S
H924 C944 0.950 . S
H925 C945 0.950 . S
H926 C947 0.950 . S
H927 C950 0.950 . S
H928 C951 0.950 . S
H929 C953 0.950 1_554 S
H930 C954 0.950 1_554 S
H931 C955 0.951 . S
H932 C957 0.951 . S
H933 C959 0.950 1_554 S
H934 C960 1.014 . S
H935 C962 0.950 . S
H936 C965 0.950 . S
H937 C966 0.950 . S
H938 C968 0.950 . S
H939 C969 0.950 . S
C940 H922 0.951 . S
C940 C941 1.366 . S
C940 C942 1.388 . S
C941 C940 1.366 . S
C941 C945 1.385 . S
C942 H923 0.951 . S
C942 C940 1.388 . S
C942 C943 1.366 . S
C943 C942 1.366 . S
C943 C944 1.414 . S
C943 C946 1.499 . S
C944 H924 0.950 . S
C944 C943 1.414 . S
C944 C945 1.374 . S
C945 H925 0.950 . S
C945 C941 1.385 . S
C945 C944 1.374 . S
C946 C943 1.499 . S
C946 C947 1.373 . S
C946 C948 1.389 . S
C947 H926 0.950 . S
C947 C946 1.373 . S
C947 C963 1.377 . S
C948 C946 1.389 . S
C948 C949 1.524 . S
C948 C962 1.377 . S
C949 C948 1.524 . S
C949 C950 1.397 . S
C949 C954 1.363 . S
C950 H927 0.950 . S
C950 C949 1.397 . S
C950 C951 1.334 . S
C951 H928 0.950 . S
C951 C950 1.334 . S
C951 C952 1.287 . S
C952 C951 1.287 . S
C952 C953 1.524 . S
C952 H971 0.913 . S
C953 H929 0.950 1_556 S
C953 C952 1.524 . S
C953 C954 1.415 . S
C954 H930 0.950 1_556 S
C954 C949 1.363 . S
C954 C953 1.415 . S
C955 H931 0.951 . S
C955 C956 1.366 . S
C955 C957 1.388 . S
C956 C955 1.366 . S
C956 C960 1.334 1_556 S
C957 H932 0.951 . S
C957 C955 1.388 . S
C957 C958 1.366 . S
C958 C957 1.366 . S
C958 C959 1.414 . S
C958 C961 1.499 . S
C959 H933 0.950 1_556 S
C959 C958 1.414 . S
C959 C960 1.363 1_556 S
C960 H934 1.014 . S
C960 C956 1.334 1_554 S
C960 C959 1.363 1_554 S
C961 C958 1.499 . S
C961 C962 1.373 . S
C961 C963 1.389 . S
C962 H935 0.950 . S
C962 C948 1.377 . S
C962 C961 1.373 . S
C963 C947 1.377 . S
C963 C961 1.389 . S
C963 C964 1.524 . S
C964 C963 1.524 . S
C964 C965 1.397 . S
C964 C969 1.363 . S
C965 H936 0.950 . S
C965 C964 1.397 . S
C965 C966 1.334 . S
C966 H937 0.950 . S
C966 C965 1.334 . S
C966 C967 1.287 . S
C967 C966 1.287 . S
C967 C968 1.524 . S
C967 H970 0.999 . S
C968 H938 0.950 . S
C968 C967 1.524 . S
C968 C969 1.415 . S
C969 H939 0.950 . S
C969 C964 1.363 . S
C969 C968 1.415 . S
H970 C967 0.999 . S
H971 C952 0.913 . S
H972 C990 0.951 . S
H973 C992 0.951 . S
H974 C994 0.950 . S
H975 C995 0.950 . S
H976 C997 0.950 . S
H977 C1000 0.950 . S
H978 C1001 0.950 . S
H979 C1003 0.950 . S
H980 C1004 0.950 . S
H981 C1005 0.951 . S
H982 C1007 0.951 . S
H983 C1009 0.950 . S
H984 C1010 0.950 . S
H985 C1012 0.950 . S
H986 C1015 0.953 1_554 S
H987 C1016 0.950 . S
H988 C1018 0.950 . S
H989 C1019 0.954 . S
C990 H972 0.951 . S
C990 C991 1.366 . S
C990 C992 1.388 . S
C991 C990 1.366 . S
C991 C995 1.385 . S
C992 H973 0.951 . S
C992 C990 1.388 . S
C992 C993 1.366 . S
C993 C992 1.366 . S
C993 C994 1.414 . S
C993 C996 1.499 . S
C994 H974 0.950 . S
C994 C993 1.414 . S
C994 C995 1.374 . S
C995 H975 0.950 . S
C995 C991 1.385 . S
C995 C994 1.374 . S
C996 C993 1.499 . S
C996 C997 1.373 . S
C996 C998 1.389 . S
C997 H976 0.950 . S
C997 C996 1.373 . S
C997 C1013 1.377 . S
C998 C996 1.389 . S
C998 C999 1.524 . S
C998 C1012 1.377 . S
C999 C998 1.524 . S
C999 C1000 1.397 . S
C999 C1004 1.363 . S
C1000 H977 0.950 . S
C1000 C999 1.397 . S
C1000 C1001 1.334 . S
C1001 H978 0.950 . S
C1001 C1000 1.334 . S
C1001 C1002 1.287 . S
C1002 C1001 1.287 . S
C1002 C1003 1.524 . S
C1002 H1021 0.913 . S
C1003 H979 0.950 . S
C1003 C1002 1.524 . S
C1003 C1004 1.415 . S
C1004 H980 0.950 . S
C1004 C999 1.363 . S
C1004 C1003 1.415 . S
C1005 H981 0.951 . S
C1005 C1006 1.366 . S
C1005 C1007 1.388 . S
C1006 C1005 1.366 . S
C1006 C1010 1.385 . S
C1007 H982 0.951 . S
C1007 C1005 1.388 . S
C1007 C1008 1.366 . S
C1008 C1007 1.366 . S
C1008 C1009 1.414 . S
C1008 C1011 1.499 . S
C1009 H983 0.950 . S
C1009 C1008 1.414 . S
C1009 C1010 1.374 . S
C1010 H984 0.950 . S
C1010 C1006 1.385 . S
C1010 C1009 1.374 . S
C1011 C1008 1.499 . S
C1011 C1012 1.373 . S
C1011 C1013 1.389 . S
C1012 H985 0.950 . S
C1012 C998 1.377 . S
C1012 C1011 1.373 . S
C1013 C997 1.377 . S
C1013 C1011 1.389 . S
C1013 C1014 1.524 . S
C1014 C1013 1.524 . S
C1014 C1015 1.399 1_554 S
C1014 C1019 1.367 . S
C1015 H986 0.953 1_556 S
C1015 C1014 1.399 1_556 S
C1015 C1016 1.328 . S
C1016 H987 0.950 . S
C1016 C1015 1.328 . S
C1016 C1017 1.287 . S
C1017 C1016 1.287 . S
C1017 C1018 1.524 . S
C1017 H1020 0.999 . S
C1018 H988 0.950 . S
C1018 C1017 1.524 . S
C1018 C1019 1.407 1_556 S
C1019 H989 0.954 . S
C1019 C1014 1.367 . S
C1019 C1018 1.407 1_554 S
H1020 C1017 0.999 . S
H1021 C1002 0.913 . S
H1022 C1040 0.951 . S
H1023 C1042 0.951 . S
H1024 C1044 0.950 . S
H1025 C1045 0.950 . S
H1026 C1047 0.950 . S
H1027 C1050 0.950 . S
H1028 C1051 0.950 . S
H1029 C1053 0.950 . S
H1030 C1054 0.950 . S
H1031 C1055 0.951 . S
H1032 C1057 0.951 . S
H1033 C1059 0.950 . S
H1034 C1060 0.950 . S
H1035 C1062 0.950 . S
H1036 C1065 0.950 . S
H1037 C1066 0.950 . S
H1038 C1068 0.950 . S
H1039 C1069 0.950 . S
C1040 H1022 0.951 . S
C1040 C1041 1.366 . S
C1040 C1042 1.388 . S
C1041 C1040 1.366 . S
C1041 C1045 1.385 . S
C1042 H1023 0.951 . S
C1042 C1040 1.388 . S
C1042 C1043 1.366 . S
C1043 C1042 1.366 . S
C1043 C1044 1.414 . S
C1043 C1046 1.499 . S
C1044 H1024 0.950 . S
C1044 C1043 1.414 . S
C1044 C1045 1.374 . S
C1045 H1025 0.950 . S
C1045 C1041 1.385 . S
C1045 C1044 1.374 . S
C1046 C1043 1.499 . S
C1046 C1047 1.373 . S
C1046 C1048 1.389 . S
C1047 H1026 0.950 . S
C1047 C1046 1.373 . S
C1047 C1063 1.377 . S
C1048 C1046 1.389 . S
C1048 C1049 1.524 . S
C1048 C1062 1.377 . S
C1049 C1048 1.524 . S
C1049 C1050 1.397 . S
C1049 C1054 1.363 . S
C1050 H1027 0.950 . S
C1050 C1049 1.397 . S
C1050 C1051 1.334 . S
C1051 H1028 0.950 . S
C1051 C1050 1.334 . S
C1051 C1052 1.287 . S
C1052 C1051 1.287 . S
C1052 C1053 1.524 . S
C1052 H1071 0.913 . S
C1053 H1029 0.950 . S
C1053 C1052 1.524 . S
C1053 C1054 1.415 . S
C1054 H1030 0.950 . S
C1054 C1049 1.363 . S
C1054 C1053 1.415 . S
C1055 H1031 0.951 . S
C1055 C1056 1.366 . S
C1055 C1057 1.388 . S
C1056 C1055 1.366 . S
C1056 C1060 1.385 . S
C1057 H1032 0.951 . S
C1057 C1055 1.388 . S
C1057 C1058 1.366 . S
C1058 C1057 1.366 . S
C1058 C1059 1.414 . S
C1058 C1061 1.499 . S
C1059 H1033 0.950 . S
C1059 C1058 1.414 . S
C1059 C1060 1.374 . S
C1060 H1034 0.950 . S
C1060 C1056 1.385 . S
C1060 C1059 1.374 . S
C1061 C1058 1.499 . S
C1061 C1062 1.373 . S
C1061 C1063 1.389 . S
C1062 H1035 0.950 . S
C1062 C1048 1.377 . S
C1062 C1061 1.373 . S
C1063 C1047 1.377 . S
C1063 C1061 1.389 . S
C1063 C1064 1.524 . S
C1064 C1063 1.524 . S
C1064 C1065 1.397 . S
C1064 C1069 1.363 . S
C1065 H1036 0.950 . S
C1065 C1064 1.397 . S
C1065 C1066 1.334 . S
C1066 H1037 0.950 . S
C1066 C1065 1.334 . S
C1066 C1067 1.287 . S
C1067 C1066 1.287 . S
C1067 C1068 1.524 . S
C1067 H1070 0.999 . S
C1068 H1038 0.950 . S
C1068 C1067 1.524 . S
C1068 C1069 1.415 . S
C1069 H1039 0.950 . S
C1069 C1064 1.363 . S
C1069 C1068 1.415 . S
H1070 C1067 0.999 . S
H1071 C1052 0.913 . S
H1072 C1090 0.951 . S
H1073 C1092 0.951 . S
H1074 C1094 0.950 . S
H1075 C1095 0.950 . S
H1076 C1097 0.950 . S
H1077 C1100 0.950 . S
H1078 C1101 0.950 . S
H1079 C1103 0.926 1_556 S
H1080 C1104 0.950 . S
H1081 C1105 0.951 . S
H1082 C1107 0.951 . S
H1083 C1109 1.004 . S
H1084 C1110 0.950 1_556 S
H1085 C1112 0.950 . S
H1086 C1115 0.950 . S
H1087 C1116 0.950 . S
H1088 C1118 0.950 . S
H1089 C1119 0.950 . S
C1090 H1072 0.951 . S
C1090 C1091 1.366 . S
C1090 C1092 1.388 . S
C1091 C1090 1.366 . S
C1091 C1095 1.385 . S
C1092 H1073 0.951 . S
C1092 C1090 1.388 . S
C1092 C1093 1.366 . S
C1093 C1092 1.366 . S
C1093 C1094 1.414 . S
C1093 C1096 1.499 . S
C1094 H1074 0.950 . S
C1094 C1093 1.414 . S
C1094 C1095 1.374 . S
C1095 H1075 0.950 . S
C1095 C1091 1.385 . S
C1095 C1094 1.374 . S
C1096 C1093 1.499 . S
C1096 C1097 1.373 . S
C1096 C1098 1.389 . S
C1097 H1076 0.950 . S
C1097 C1096 1.373 . S
C1097 C1113 1.377 . S
C1098 C1096 1.389 . S
C1098 C1099 1.524 . S
C1098 C1112 1.377 . S
C1099 C1098 1.524 . S
C1099 C1100 1.397 . S
C1099 C1104 1.363 . S
C1100 H1077 0.950 . S
C1100 C1099 1.397 . S
C1100 C1101 1.334 . S
C1101 H1078 0.950 . S
C1101 C1100 1.334 . S
C1101 C1102 1.287 . S
C1102 C1101 1.287 . S
C1102 C1103 1.524 . S
C1102 H1121 0.913 . S
C1103 H1079 0.926 1_554 S
C1103 C1102 1.524 . S
C1103 C1104 1.415 . S
C1104 H1080 0.950 . S
C1104 C1099 1.363 . S
C1104 C1103 1.415 . S
C1105 H1081 0.951 . S
C1105 C1106 1.366 . S
C1105 C1107 1.388 . S
C1106 C1105 1.366 . S
C1106 C1110 1.385 . S
C1107 H1082 0.951 . S
C1107 C1105 1.388 . S
C1107 C1108 1.366 . S
C1108 C1107 1.366 . S
C1108 C1109 1.414 . S
C1108 C1111 1.499 . S
C1109 H1083 1.004 . S
C1109 C1108 1.414 . S
C1109 C1110 1.374 . S
C1110 H1084 0.950 1_554 S
C1110 C1106 1.385 . S
C1110 C1109 1.374 . S
C1111 C1108 1.499 . S
C1111 C1112 1.373 . S
C1111 C1113 1.389 . S
C1112 H1085 0.950 . S
C1112 C1098 1.377 . S
C1112 C1111 1.373 . S
C1113 C1097 1.377 . S
C1113 C1111 1.389 . S
C1113 C1114 1.524 . S
C1114 C1113 1.524 . S
C1114 C1115 1.397 . S
C1114 C1119 1.363 . S
C1115 H1086 0.950 . S
C1115 C1114 1.397 . S
C1115 C1116 1.334 . S
C1116 H1087 0.950 . S
C1116 C1115 1.334 . S
C1116 C1117 1.287 . S
C1117 C1116 1.287 . S
C1117 C1118 1.524 . S
C1117 H1120 0.999 . S
C1118 H1088 0.950 . S
C1118 C1117 1.524 . S
C1118 C1119 1.415 . S
C1119 H1089 0.950 . S
C1119 C1114 1.363 . S
C1119 C1118 1.415 . S
H1120 C1117 0.999 . S
H1121 C1102 0.913 . S
H1122 C1140 0.951 . S
H1123 C1142 0.951 . S
H1124 C1144 0.950 . S
H1125 C1145 0.950 . S
H1126 C1147 0.950 . S
H1127 C1150 0.950 . S
H1128 C1151 0.950 . S
H1129 C1153 0.950 . S
H1130 C1154 0.950 . S
H1131 C1155 0.951 . S
H1132 C1157 0.951 . S
H1133 C1159 0.950 . S
H1134 C1160 0.950 . S
H1135 C1162 0.950 . S
H1136 C1165 0.950 . S
H1137 C1166 0.950 . S
H1138 C1168 0.950 1_655 S
H1139 C1169 0.926 1_655 S
C1140 H1122 0.951 . S
C1140 C1141 1.366 . S
C1140 C1142 1.388 . S
C1141 C1140 1.366 . S
C1141 C1145 1.385 . S
C1142 H1123 0.951 . S
C1142 C1140 1.388 . S
C1142 C1143 1.366 . S
C1143 C1142 1.366 . S
C1143 C1144 1.414 . S
C1143 C1146 1.499 . S
C1144 H1124 0.950 . S
C1144 C1143 1.414 . S
C1144 C1145 1.374 . S
C1145 H1125 0.950 . S
C1145 C1141 1.385 . S
C1145 C1144 1.374 . S
C1146 C1143 1.499 . S
C1146 C1147 1.373 . S
C1146 C1148 1.386 1_655 S
C1147 H1126 0.950 . S
C1147 C1146 1.373 . S
C1147 C1163 1.377 1_655 S
C1148 C1146 1.386 1_455 S
C1148 C1149 1.517 1_455 S
C1148 C1162 1.386 . S
C1149 C1148 1.517 1_655 S
C1149 C1150 1.397 . S
C1149 C1154 1.363 1_655 S
C1150 H1127 0.950 . S
C1150 C1149 1.397 . S
C1150 C1151 1.334 . S
C1151 H1128 0.950 . S
C1151 C1150 1.334 . S
C1151 C1152 1.287 . S
C1152 C1151 1.287 . S
C1152 C1153 1.524 1_655 S
C1152 H1171 0.913 . S
C1153 H1129 0.950 . S
C1153 C1152 1.524 1_455 S
C1153 C1154 1.415 . S
C1154 H1130 0.950 . S
C1154 C1149 1.363 1_455 S
C1154 C1153 1.415 . S
C1155 H1131 0.951 . S
C1155 C1156 1.366 . S
C1155 C1157 1.388 . S
C1156 C1155 1.366 . S
C1156 C1160 1.385 . S
C1157 H1132 0.951 . S
C1157 C1155 1.388 . S
C1157 C1158 1.366 . S
C1158 C1157 1.366 . S
C1158 C1159 1.414 . S
C1158 C1161 1.499 . S
C1159 H1133 0.950 . S
C1159 C1158 1.414 . S
C1159 C1160 1.374 . S
C1160 H1134 0.950 . S
C1160 C1156 1.385 . S
C1160 C1159 1.374 . S
C1161 C1158 1.499 . S
C1161 C1162 1.373 . S
C1161 C1163 1.389 . S
C1162 H1135 0.950 . S
C1162 C1148 1.386 . S
C1162 C1161 1.373 . S
C1163 C1147 1.377 1_455 S
C1163 C1161 1.389 . S
C1163 C1164 1.524 . S
C1164 C1163 1.524 . S
C1164 C1165 1.397 . S
C1164 C1169 1.373 . S
C1165 H1136 0.950 . S
C1165 C1164 1.397 . S
C1165 C1166 1.334 . S
C1166 H1137 0.950 . S
C1166 C1165 1.334 . S
C1166 C1167 1.287 . S
C1167 C1166 1.287 . S
C1167 C1168 1.524 . S
C1167 H1170 0.999 . S
C1168 H1138 0.950 1_455 S
C1168 C1167 1.524 . S
C1168 C1169 1.429 . S
C1169 H1139 0.926 1_455 S
C1169 C1164 1.373 . S
C1169 C1168 1.429 . S
H1170 C1167 0.999 . S
H1171 C1152 0.913 . S
H1172 C1190 0.951 . S
H1173 C1192 0.951 . S
H1174 C1194 0.950 . S
H1175 C1195 0.950 . S
H1176 C1197 0.950 . S
H1177 C1200 0.950 . S
H1178 C1201 0.950 . S
H1179 C1203 0.950 . S
H1180 C1204 0.950 . S
H1181 C1205 0.951 . S
H1182 C1207 0.951 . S
H1183 C1209 0.950 . S
H1184 C1210 0.950 . S
H1185 C1212 0.950 . S
H1186 C1215 0.950 . S
H1187 C1216 0.950 . S
H1188 C1218 0.950 . S
H1189 C1219 0.950 . S
C1190 H1172 0.951 . S
C1190 C1191 1.366 . S
C1190 C1192 1.388 . S
C1191 C1190 1.366 . S
C1191 C1195 1.385 . S
C1192 H1173 0.951 . S
C1192 C1190 1.388 . S
C1192 C1193 1.366 . S
C1193 C1192 1.366 . S
C1193 C1194 1.414 . S
C1193 C1196 1.499 . S
C1194 H1174 0.950 . S
C1194 C1193 1.414 . S
C1194 C1195 1.374 . S
C1195 H1175 0.950 . S
C1195 C1191 1.385 . S
C1195 C1194 1.374 . S
C1196 C1193 1.499 . S
C1196 C1197 1.373 . S
C1196 C1198 1.389 . S
C1197 H1176 0.950 . S
C1197 C1196 1.373 . S
C1197 C1213 1.377 . S
C1198 C1196 1.389 . S
C1198 C1199 1.524 . S
C1198 C1212 1.377 . S
C1199 C1198 1.524 . S
C1199 C1200 1.397 . S
C1199 C1204 1.363 . S
C1200 H1177 0.950 . S
C1200 C1199 1.397 . S
C1200 C1201 1.334 . S
C1201 H1178 0.950 . S
C1201 C1200 1.334 . S
C1201 C1202 1.287 . S
C1202 C1201 1.287 . S
C1202 C1203 1.524 . S
C1202 H1221 0.913 . S
C1203 H1179 0.950 . S
C1203 C1202 1.524 . S
C1203 C1204 1.415 . S
C1204 H1180 0.950 . S
C1204 C1199 1.363 . S
C1204 C1203 1.415 . S
C1205 H1181 0.951 . S
C1205 C1206 1.366 . S
C1205 C1207 1.388 . S
C1206 C1205 1.366 . S
C1206 C1210 1.385 . S
C1207 H1182 0.951 . S
C1207 C1205 1.388 . S
C1207 C1208 1.366 . S
C1208 C1207 1.366 . S
C1208 C1209 1.414 . S
C1208 C1211 1.499 . S
C1209 H1183 0.950 . S
C1209 C1208 1.414 . S
C1209 C1210 1.374 . S
C1210 H1184 0.950 . S
C1210 C1206 1.385 . S
C1210 C1209 1.374 . S
C1211 C1208 1.499 . S
C1211 C1212 1.373 . S
C1211 C1213 1.389 . S
C1212 H1185 0.950 . S
C1212 C1198 1.377 . S
C1212 C1211 1.373 . S
C1213 C1197 1.377 . S
C1213 C1211 1.389 . S
C1213 C1214 1.524 . S
C1214 C1213 1.524 . S
C1214 C1215 1.397 . S
C1214 C1219 1.363 . S
C1215 H1186 0.950 . S
C1215 C1214 1.397 . S
C1215 C1216 1.334 . S
C1216 H1187 0.950 . S
C1216 C1215 1.334 . S
C1216 C1217 1.287 . S
C1217 C1216 1.287 . S
C1217 C1218 1.524 . S
C1217 H1220 0.999 . S
C1218 H1188 0.950 . S
C1218 C1217 1.524 . S
C1218 C1219 1.415 . S
C1219 H1189 0.950 . S
C1219 C1214 1.363 . S
C1219 C1218 1.415 . S
H1220 C1217 0.999 . S
H1221 C1202 0.913 . S
H1222 C1240 0.951 . S
H1223 C1242 0.951 . S
H1224 C1244 0.950 . S
H1225 C1245 0.950 . S
H1226 C1247 0.950 . S
H1227 C1250 0.950 . S
H1228 C1251 0.950 . S
H1229 C1253 0.950 . S
H1230 C1254 0.950 . S
H1231 C1255 0.951 . S
H1232 C1257 0.951 . S
H1233 C1259 0.950 . S
H1234 C1260 0.950 . S
H1235 C1262 0.950 . S
H1236 C1265 0.950 . S
H1237 C1266 0.950 . S
H1238 C1268 0.950 . S
H1239 C1269 0.950 1_545 S
C1240 H1222 0.951 . S
C1240 C1241 1.366 . S
C1240 C1242 1.388 . S
C1241 C1240 1.366 . S
C1241 C1245 1.385 . S
C1242 H1223 0.951 . S
C1242 C1240 1.388 . S
C1242 C1243 1.366 . S
C1243 C1242 1.366 . S
C1243 C1244 1.414 . S
C1243 C1246 1.499 . S
C1244 H1224 0.950 . S
C1244 C1243 1.414 . S
C1244 C1245 1.374 . S
C1245 H1225 0.950 . S
C1245 C1241 1.385 . S
C1245 C1244 1.374 . S
C1246 C1243 1.499 . S
C1246 C1247 1.373 . S
C1246 C1248 1.389 . S
C1247 H1226 0.950 . S
C1247 C1246 1.373 . S
C1247 C1263 1.380 . S
C1248 C1246 1.389 . S
C1248 C1249 1.524 . S
C1248 C1262 1.377 1_545 S
C1249 C1248 1.524 . S
C1249 C1250 1.397 . S
C1249 C1254 1.363 . S
C1250 H1227 0.950 . S
C1250 C1249 1.397 . S
C1250 C1251 1.334 . S
C1251 H1228 0.950 . S
C1251 C1250 1.334 . S
C1251 C1252 1.287 . S
C1252 C1251 1.287 . S
C1252 C1253 1.524 . S
C1252 H1271 0.913 . S
C1253 H1229 0.950 . S
C1253 C1252 1.524 . S
C1253 C1254 1.415 . S
C1254 H1230 0.950 . S
C1254 C1249 1.363 . S
C1254 C1253 1.415 . S
C1255 H1231 0.951 . S
C1255 C1256 1.366 . S
C1255 C1257 1.388 . S
C1256 C1255 1.366 . S
C1256 C1260 1.385 . S
C1257 H1232 0.951 . S
C1257 C1255 1.388 . S
C1257 C1258 1.366 . S
C1258 C1257 1.366 . S
C1258 C1259 1.414 . S
C1258 C1261 1.499 . S
C1259 H1233 0.950 . S
C1259 C1258 1.414 . S
C1259 C1260 1.374 . S
C1260 H1234 0.950 . S
C1260 C1256 1.385 . S
C1260 C1259 1.374 . S
C1261 C1258 1.499 . S
C1261 C1262 1.373 . S
C1261 C1263 1.389 1_565 S
C1262 H1235 0.950 . S
C1262 C1248 1.377 1_565 S
C1262 C1261 1.373 . S
C1263 C1247 1.380 . S
C1263 C1261 1.389 1_545 S
C1263 C1264 1.522 1_545 S
C1264 C1263 1.522 1_565 S
C1264 C1265 1.397 . S
C1264 C1269 1.363 . S
C1265 H1236 0.950 . S
C1265 C1264 1.397 . S
C1265 C1266 1.334 . S
C1266 H1237 0.950 . S
C1266 C1265 1.334 . S
C1266 C1267 1.287 . S
C1267 C1266 1.287 . S
C1267 C1268 1.524 . S
C1267 H1270 0.999 . S
C1268 H1238 0.950 . S
C1268 C1267 1.524 . S
C1268 C1269 1.415 . S
C1269 H1239 0.950 1_565 S
C1269 C1264 1.363 . S
C1269 C1268 1.415 . S
H1270 C1267 0.999 . S
H1271 C1252 0.913 . S
H1272 C1290 0.951 . S
H1273 C1292 0.951 . S
H1274 C1294 0.950 . S
H1275 C1295 0.950 . S
H1276 C1297 0.950 . S
H1277 C1300 0.950 . S
H1278 C1301 0.950 . S
H1279 C1303 0.950 . S
H1280 C1304 0.950 . S
H1281 C1305 0.951 . S
H1282 C1307 0.951 . S
H1283 C1309 0.950 . S
H1284 C1310 0.950 . S
H1285 C1312 0.950 . S
H1286 C1315 0.950 . S
H1287 C1316 0.950 . S
H1288 C1318 0.950 . S
H1289 C1319 0.950 . S
C1290 H1272 0.951 . S
C1290 C1291 1.366 . S
C1290 C1292 1.388 . S
C1291 C1290 1.366 . S
C1291 C1295 1.385 . S
C1292 H1273 0.951 . S
C1292 C1290 1.388 . S
C1292 C1293 1.366 . S
C1293 C1292 1.366 . S
C1293 C1294 1.414 . S
C1293 C1296 1.499 . S
C1294 H1274 0.950 . S
C1294 C1293 1.414 . S
C1294 C1295 1.374 . S
C1295 H1275 0.950 . S
C1295 C1291 1.385 . S
C1295 C1294 1.374 . S
C1296 C1293 1.499 . S
C1296 C1297 1.373 . S
C1296 C1298 1.389 . S
C1297 H1276 0.950 . S
C1297 C1296 1.373 . S
C1297 C1313 1.377 . S
C1298 C1296 1.389 . S
C1298 C1299 1.524 . S
C1298 C1312 1.377 . S
C1299 C1298 1.524 . S
C1299 C1300 1.397 . S
C1299 C1304 1.363 . S
C1300 H1277 0.950 . S
C1300 C1299 1.397 . S
C1300 C1301 1.334 . S
C1301 H1278 0.950 . S
C1301 C1300 1.334 . S
C1301 C1302 1.287 . S
C1302 C1301 1.287 . S
C1302 C1303 1.524 . S
C1302 H1321 0.913 . S
C1303 H1279 0.950 . S
C1303 C1302 1.524 . S
C1303 C1304 1.415 . S
C1304 H1280 0.950 . S
C1304 C1299 1.363 . S
C1304 C1303 1.415 . S
C1305 H1281 0.951 . S
C1305 C1306 1.366 . S
C1305 C1307 1.388 . S
C1306 C1305 1.366 . S
C1306 C1310 1.385 . S
C1307 H1282 0.951 . S
C1307 C1305 1.388 . S
C1307 C1308 1.366 . S
C1308 C1307 1.366 . S
C1308 C1309 1.414 . S
C1308 C1311 1.499 . S
C1309 H1283 0.950 . S
C1309 C1308 1.414 . S
C1309 C1310 1.374 . S
C1310 H1284 0.950 . S
C1310 C1306 1.385 . S
C1310 C1309 1.374 . S
C1311 C1308 1.499 . S
C1311 C1312 1.373 . S
C1311 C1313 1.389 . S
C1312 H1285 0.950 . S
C1312 C1298 1.377 . S
C1312 C1311 1.373 . S
C1313 C1297 1.377 . S
C1313 C1311 1.389 . S
C1313 C1314 1.524 . S
C1314 C1313 1.524 . S
C1314 C1315 1.397 . S
C1314 C1319 1.363 . S
C1315 H1286 0.950 . S
C1315 C1314 1.397 . S
C1315 C1316 1.334 . S
C1316 H1287 0.950 . S
C1316 C1315 1.334 . S
C1316 C1317 1.287 . S
C1317 C1316 1.287 . S
C1317 C1318 1.524 . S
C1317 H1320 0.999 . S
C1318 H1288 0.950 . S
C1318 C1317 1.524 . S
C1318 C1319 1.415 . S
C1319 H1289 0.950 . S
C1319 C1314 1.363 . S
C1319 C1318 1.415 . S
H1320 C1317 0.999 . S
H1321 C1302 0.913 . S
H1322 C1340 0.951 . S
H1323 C1342 0.951 . S
H1324 C1344 0.950 . S
H1325 C1345 0.950 . S
H1326 C1347 0.950 . S
H1327 C1350 0.950 . S
H1328 C1351 0.950 . S
H1329 C1353 0.950 . S
H1330 C1354 0.950 . S
H1331 C1355 0.951 . S
H1332 C1357 0.951 . S
H1333 C1359 0.950 . S
H1334 C1360 0.950 . S
H1335 C1362 0.950 . S
H1336 C1365 0.950 . S
H1337 C1366 0.950 . S
H1338 C1368 0.950 . S
H1339 C1369 0.950 . S
C1340 H1322 0.951 . S
C1340 C1341 1.366 . S
C1340 C1342 1.388 . S
C1341 C1340 1.366 . S
C1341 C1345 1.385 . S
C1342 H1323 0.951 . S
C1342 C1340 1.388 . S
C1342 C1343 1.366 . S
C1343 C1342 1.366 . S
C1343 C1344 1.414 . S
C1343 C1346 1.499 . S
C1344 H1324 0.950 . S
C1344 C1343 1.414 . S
C1344 C1345 1.374 . S
C1345 H1325 0.950 . S
C1345 C1341 1.385 . S
C1345 C1344 1.374 . S
C1346 C1343 1.499 . S
C1346 C1347 1.373 . S
C1346 C1348 1.389 . S
C1347 H1326 0.950 . S
C1347 C1346 1.373 . S
C1347 C1363 1.377 . S
C1348 C1346 1.389 . S
C1348 C1349 1.524 . S
C1348 C1362 1.377 . S
C1349 C1348 1.524 . S
C1349 C1350 1.397 . S
C1349 C1354 1.363 . S
C1350 H1327 0.950 . S
C1350 C1349 1.397 . S
C1350 C1351 1.334 . S
C1351 H1328 0.950 . S
C1351 C1350 1.334 . S
C1351 C1352 1.287 . S
C1352 C1351 1.287 . S
C1352 C1353 1.524 . S
C1352 H1371 0.913 . S
C1353 H1329 0.950 . S
C1353 C1352 1.524 . S
C1353 C1354 1.415 . S
C1354 H1330 0.950 . S
C1354 C1349 1.363 . S
C1354 C1353 1.415 . S
C1355 H1331 0.951 . S
C1355 C1356 1.366 . S
C1355 C1357 1.388 . S
C1356 C1355 1.366 . S
C1356 C1360 1.385 . S
C1357 H1332 0.951 . S
C1357 C1355 1.388 . S
C1357 C1358 1.366 . S
C1358 C1357 1.366 . S
C1358 C1359 1.414 . S
C1358 C1361 1.499 . S
C1359 H1333 0.950 . S
C1359 C1358 1.414 . S
C1359 C1360 1.374 . S
C1360 H1334 0.950 . S
C1360 C1356 1.385 . S
C1360 C1359 1.374 . S
C1361 C1358 1.499 . S
C1361 C1362 1.373 . S
C1361 C1363 1.389 . S
C1362 H1335 0.950 . S
C1362 C1348 1.377 . S
C1362 C1361 1.373 . S
C1363 C1347 1.377 . S
C1363 C1361 1.389 . S
C1363 C1364 1.524 . S
C1364 C1363 1.524 . S
C1364 C1365 1.397 . S
C1364 C1369 1.363 . S
C1365 H1336 0.950 . S
C1365 C1364 1.397 . S
C1365 C1366 1.334 . S
C1366 H1337 0.950 . S
C1366 C1365 1.334 . S
C1366 C1367 1.287 . S
C1367 C1366 1.287 . S
C1367 C1368 1.524 . S
C1367 H1370 0.999 . S
C1368 H1338 0.950 . S
C1368 C1367 1.524 . S
C1368 C1369 1.415 . S
C1369 H1339 0.950 . S
C1369 C1364 1.363 . S
C1369 C1368 1.415 . S
H1370 C1367 0.999 . S
H1371 C1352 0.913 . S
H1372 C1390 0.951 . S
H1373 C1392 0.951 . S
H1374 C1394 0.950 . S
H1375 C1395 0.950 . S
H1376 C1397 0.950 . S
H1377 C1400 0.950 . S
H1378 C1401 0.950 . S
H1379 C1403 0.950 1_655 S
H1380 C1404 0.950 . S
H1381 C1405 0.951 . S
H1382 C1407 0.951 . S
H1383 C1409 0.950 . S
H1384 C1410 0.950 . S
H1385 C1412 0.950 . S
H1386 C1415 0.950 . S
H1387 C1416 0.950 . S
H1388 C1418 0.950 . S
H1389 C1419 0.950 . S
C1390 H1372 0.951 . S
C1390 C1391 1.366 . S
C1390 C1392 1.388 . S
C1391 C1390 1.366 . S
C1391 C1395 1.385 . S
C1392 H1373 0.951 . S
C1392 C1390 1.388 . S
C1392 C1393 1.366 . S
C1393 C1392 1.366 . S
C1393 C1394 1.414 . S
C1393 C1396 1.499 . S
C1394 H1374 0.950 . S
C1394 C1393 1.414 . S
C1394 C1395 1.374 . S
C1395 H1375 0.950 . S
C1395 C1391 1.385 . S
C1395 C1394 1.374 . S
C1396 C1393 1.499 . S
C1396 C1397 1.373 . S
C1396 C1398 1.389 . S
C1397 H1376 0.950 . S
C1397 C1396 1.373 . S
C1397 C1413 1.377 . S
C1398 C1396 1.389 . S
C1398 C1399 1.524 . S
C1398 C1412 1.377 . S
C1399 C1398 1.524 . S
C1399 C1400 1.397 . S
C1399 C1404 1.363 . S
C1400 H1377 0.950 . S
C1400 C1399 1.397 . S
C1400 C1401 1.334 . S
C1401 H1378 0.950 . S
C1401 C1400 1.334 . S
C1401 C1402 1.287 1_455 S
C1402 C1401 1.287 1_655 S
C1402 C1403 1.524 1_655 S
C1402 H1421 0.913 . S
C1403 H1379 0.950 1_455 S
C1403 C1402 1.524 1_455 S
C1403 C1404 1.415 . S
C1404 H1380 0.950 . S
C1404 C1399 1.363 . S
C1404 C1403 1.415 . S
C1405 H1381 0.951 . S
C1405 C1406 1.366 . S
C1405 C1407 1.388 . S
C1406 C1405 1.366 . S
C1406 C1410 1.385 . S
C1407 H1382 0.951 . S
C1407 C1405 1.388 . S
C1407 C1408 1.366 . S
C1408 C1407 1.366 . S
C1408 C1409 1.414 . S
C1408 C1411 1.499 . S
C1409 H1383 0.950 . S
C1409 C1408 1.414 . S
C1409 C1410 1.374 . S
C1410 H1384 0.950 . S
C1410 C1406 1.385 . S
C1410 C1409 1.374 . S
C1411 C1408 1.499 . S
C1411 C1412 1.373 . S
C1411 C1413 1.389 . S
C1412 H1385 0.950 . S
C1412 C1398 1.377 . S
C1412 C1411 1.373 . S
C1413 C1397 1.377 . S
C1413 C1411 1.389 . S
C1413 C1414 1.524 . S
C1414 C1413 1.524 . S
C1414 C1415 1.397 . S
C1414 C1419 1.363 . S
C1415 H1386 0.950 . S
C1415 C1414 1.397 . S
C1415 C1416 1.334 . S
C1416 H1387 0.950 . S
C1416 C1415 1.334 . S
C1416 C1417 1.287 . S
C1417 C1416 1.287 . S
C1417 C1418 1.524 . S
C1417 H1420 0.999 . S
C1418 H1388 0.950 . S
C1418 C1417 1.524 . S
C1418 C1419 1.415 . S
C1419 H1389 0.950 . S
C1419 C1414 1.363 . S
C1419 C1418 1.415 . S
H1420 C1417 0.999 . S
H1421 C1402 0.913 . S
H1422 C1440 0.951 . S
H1423 C1442 0.951 . S
H1424 C1444 0.950 . S
H1425 C1445 0.950 . S
H1426 C1447 0.950 . S
H1427 C1450 0.950 . S
H1428 C1451 0.950 . S
H1429 C1453 0.950 . S
H1430 C1454 0.950 . S
H1431 C1455 0.951 . S
H1432 C1457 0.951 . S
H1433 C1459 0.950 . S
H1434 C1460 0.950 . S
H1435 C1462 0.950 . S
H1436 C1465 0.950 . S
H1437 C1466 0.950 . S
H1438 C1468 0.950 . S
H1439 C1469 0.950 . S
C1440 H1422 0.951 . S
C1440 C1441 1.366 . S
C1440 C1442 1.388 . S
C1441 C1440 1.366 . S
C1441 C1445 1.385 . S
C1442 H1423 0.951 . S
C1442 C1440 1.388 . S
C1442 C1443 1.366 . S
C1443 C1442 1.366 . S
C1443 C1444 1.414 . S
C1443 C1446 1.499 . S
C1444 H1424 0.950 . S
C1444 C1443 1.414 . S
C1444 C1445 1.374 . S
C1445 H1425 0.950 . S
C1445 C1441 1.385 . S
C1445 C1444 1.374 . S
C1446 C1443 1.499 . S
C1446 C1447 1.373 . S
C1446 C1448 1.389 . S
C1447 H1426 0.950 . S
C1447 C1446 1.373 . S
C1447 C1463 1.377 . S
C1448 C1446 1.389 . S
C1448 C1449 1.524 . S
C1448 C1462 1.377 . S
C1449 C1448 1.524 . S
C1449 C1450 1.397 . S
C1449 C1454 1.363 . S
C1450 H1427 0.950 . S
C1450 C1449 1.397 . S
C1450 C1451 1.334 . S
C1451 H1428 0.950 . S
C1451 C1450 1.334 . S
C1451 C1452 1.287 . S
C1452 C1451 1.287 . S
C1452 C1453 1.524 . S
C1452 H1471 0.913 . S
C1453 H1429 0.950 . S
C1453 C1452 1.524 . S
C1453 C1454 1.415 . S
C1454 H1430 0.950 . S
C1454 C1449 1.363 . S
C1454 C1453 1.415 . S
C1455 H1431 0.951 . S
C1455 C1456 1.366 . S
C1455 C1457 1.388 . S
C1456 C1455 1.366 . S
C1456 C1460 1.385 . S
C1457 H1432 0.951 . S
C1457 C1455 1.388 . S
C1457 C1458 1.366 . S
C1458 C1457 1.366 . S
C1458 C1459 1.414 . S
C1458 C1461 1.499 . S
C1459 H1433 0.950 . S
C1459 C1458 1.414 . S
C1459 C1460 1.374 . S
C1460 H1434 0.950 . S
C1460 C1456 1.385 . S
C1460 C1459 1.374 . S
C1461 C1458 1.499 . S
C1461 C1462 1.373 . S
C1461 C1463 1.389 . S
C1462 H1435 0.950 . S
C1462 C1448 1.377 . S
C1462 C1461 1.373 . S
C1463 C1447 1.377 . S
C1463 C1461 1.389 . S
C1463 C1464 1.524 . S
C1464 C1463 1.524 . S
C1464 C1465 1.397 . S
C1464 C1469 1.363 . S
C1465 H1436 0.950 . S
C1465 C1464 1.397 . S
C1465 C1466 1.334 . S
C1466 H1437 0.950 . S
C1466 C1465 1.334 . S
C1466 C1467 1.287 . S
C1467 C1466 1.287 . S
C1467 C1468 1.524 . S
C1467 H1470 0.999 . S
C1468 H1438 0.950 . S
C1468 C1467 1.524 . S
C1468 C1469 1.415 . S
C1469 H1439 0.950 . S
C1469 C1464 1.363 . S
C1469 C1468 1.415 . S
H1470 C1467 0.999 . S
H1471 C1452 0.913 . S
H1472 C1490 0.951 . S
H1473 C1492 0.951 . S
H1474 C1494 0.950 . S
H1475 C1495 0.950 . S
H1476 C1497 0.950 . S
H1477 C1500 0.950 . S
H1478 C1501 0.950 . S
H1479 C1503 0.950 . S
H1480 C1504 0.950 . S
H1481 C1505 0.951 . S
H1482 C1507 0.951 . S
H1483 C1509 0.950 . S
H1484 C1510 0.950 . S
H1485 C1512 0.950 . S
H1486 C1515 0.950 . S
H1487 C1516 0.950 . S
H1488 C1518 0.950 . S
H1489 C1519 0.950 . S
C1490 H1472 0.951 . S
C1490 C1491 1.366 . S
C1490 C1492 1.388 . S
C1491 C1490 1.366 . S
C1491 C1495 1.385 . S
C1492 H1473 0.951 . S
C1492 C1490 1.388 . S
C1492 C1493 1.366 . S
C1493 C1492 1.366 . S
C1493 C1494 1.414 . S
C1493 C1496 1.499 . S
C1494 H1474 0.950 . S
C1494 C1493 1.414 . S
C1494 C1495 1.374 . S
C1495 H1475 0.950 . S
C1495 C1491 1.385 . S
C1495 C1494 1.374 . S
C1496 C1493 1.499 . S
C1496 C1497 1.373 . S
C1496 C1498 1.389 . S
C1497 H1476 0.950 . S
C1497 C1496 1.373 . S
C1497 C1513 1.377 . S
C1498 C1496 1.389 . S
C1498 C1499 1.524 . S
C1498 C1512 1.377 . S
C1499 C1498 1.524 . S
C1499 C1500 1.397 . S
C1499 C1504 1.363 . S
C1500 H1477 0.950 . S
C1500 C1499 1.397 . S
C1500 C1501 1.334 . S
C1501 H1478 0.950 . S
C1501 C1500 1.334 . S
C1501 C1502 1.287 . S
C1502 C1501 1.287 . S
C1502 C1503 1.524 . S
C1502 H1521 0.913 . S
C1503 H1479 0.950 . S
C1503 C1502 1.524 . S
C1503 C1504 1.415 . S
C1504 H1480 0.950 . S
C1504 C1499 1.363 . S
C1504 C1503 1.415 . S
C1505 H1481 0.951 . S
C1505 C1506 1.366 . S
C1505 C1507 1.388 . S
C1506 C1505 1.366 . S
C1506 C1510 1.385 . S
C1507 H1482 0.951 . S
C1507 C1505 1.388 . S
C1507 C1508 1.366 . S
C1508 C1507 1.366 . S
C1508 C1509 1.414 . S
C1508 C1511 1.499 . S
C1509 H1483 0.950 . S
C1509 C1508 1.414 . S
C1509 C1510 1.374 . S
C1510 H1484 0.950 . S
C1510 C1506 1.385 . S
C1510 C1509 1.374 . S
C1511 C1508 1.499 . S
C1511 C1512 1.373 . S
C1511 C1513 1.389 . S
C1512 H1485 0.950 . S
C1512 C1498 1.377 . S
C1512 C1511 1.373 . S
C1513 C1497 1.377 . S
C1513 C1511 1.389 . S
C1513 C1514 1.524 . S
C1514 C1513 1.524 . S
C1514 C1515 1.397 . S
C1514 C1519 1.363 . S
C1515 H1486 0.950 . S
C1515 C1514 1.397 . S
C1515 C1516 1.334 . S
C1516 H1487 0.950 . S
C1516 C1515 1.334 . S
C1516 C1517 1.287 . S
C1517 C1516 1.287 . S
C1517 C1518 1.524 . S
C1517 H1520 0.999 . S
C1518 H1488 0.950 . S
C1518 C1517 1.524 . S
C1518 C1519 1.415 . S
C1519 H1489 0.950 . S
C1519 C1514 1.363 . S
C1519 C1518 1.415 . S
H1520 C1517 0.999 . S
H1521 C1502 0.913 . S
H1522 C1540 0.951 . S
H1523 C1542 0.951 . S
H1524 C1544 0.950 . S
H1525 C1545 0.950 . S
H1526 C1547 0.950 . S
H1527 C1550 0.950 . S
H1528 C1551 0.950 . S
H1529 C1553 0.950 . S
H1530 C1554 0.950 . S
H1531 C1555 0.951 . S
H1532 C1557 0.951 . S
H1533 C1559 0.950 . S
H1534 C1560 0.950 . S
H1535 C1562 0.950 . S
H1536 C1565 0.950 . S
H1537 C1566 0.950 . S
H1538 C1568 0.950 . S
H1539 C1569 0.950 . S
C1540 H1522 0.951 . S
C1540 C1541 1.366 . S
C1540 C1542 1.388 . S
C1541 C1540 1.366 . S
C1541 C1545 1.385 . S
C1542 H1523 0.951 . S
C1542 C1540 1.388 . S
C1542 C1543 1.366 . S
C1543 C1542 1.366 . S
C1543 C1544 1.414 . S
C1543 C1546 1.499 . S
C1544 H1524 0.950 . S
C1544 C1543 1.414 . S
C1544 C1545 1.374 . S
C1545 H1525 0.950 . S
C1545 C1541 1.385 . S
C1545 C1544 1.374 . S
C1546 C1543 1.499 . S
C1546 C1547 1.373 . S
C1546 C1548 1.389 . S
C1547 H1526 0.950 . S
C1547 C1546 1.373 . S
C1547 C1563 1.377 . S
C1548 C1546 1.389 . S
C1548 C1549 1.524 . S
C1548 C1562 1.377 . S
C1549 C1548 1.524 . S
C1549 C1550 1.397 . S
C1549 C1554 1.363 . S
C1550 H1527 0.950 . S
C1550 C1549 1.397 . S
C1550 C1551 1.334 . S
C1551 H1528 0.950 . S
C1551 C1550 1.334 . S
C1551 C1552 1.287 . S
C1552 C1551 1.287 . S
C1552 C1553 1.524 . S
C1552 H1571 0.913 . S
C1553 H1529 0.950 . S
C1553 C1552 1.524 . S
C1553 C1554 1.415 . S
C1554 H1530 0.950 . S
C1554 C1549 1.363 . S
C1554 C1553 1.415 . S
C1555 H1531 0.951 . S
C1555 C1556 1.366 . S
C1555 C1557 1.388 . S
C1556 C1555 1.366 . S
C1556 C1560 1.385 . S
C1557 H1532 0.951 . S
C1557 C1555 1.388 . S
C1557 C1558 1.366 . S
C1558 C1557 1.366 . S
C1558 C1559 1.414 . S
C1558 C1561 1.499 . S
C1559 H1533 0.950 . S
C1559 C1558 1.414 . S
C1559 C1560 1.374 . S
C1560 H1534 0.950 . S
C1560 C1556 1.385 . S
C1560 C1559 1.374 . S
C1561 C1558 1.499 . S
C1561 C1562 1.373 . S
C1561 C1563 1.389 . S
C1562 H1535 0.950 . S
C1562 C1548 1.377 . S
C1562 C1561 1.373 . S
C1563 C1547 1.377 . S
C1563 C1561 1.389 . S
C1563 C1564 1.524 . S
C1564 C1563 1.524 . S
C1564 C1565 1.397 . S
C1564 C1569 1.363 . S
C1565 H1536 0.950 . S
C1565 C1564 1.397 . S
C1565 C1566 1.334 . S
C1566 H1537 0.950 . S
C1566 C1565 1.334 . S
C1566 C1567 1.287 . S
C1567 C1566 1.287 . S
C1567 C1568 1.524 . S
C1567 H1570 0.999 . S
C1568 H1538 0.950 . S
C1568 C1567 1.524 . S
C1568 C1569 1.415 . S
C1569 H1539 0.950 . S
C1569 C1564 1.363 . S
C1569 C1568 1.415 . S
H1570 C1567 0.999 . S
H1571 C1552 0.913 . S
H1572 C1590 0.951 . S
H1573 C1592 0.951 . S
H1574 C1594 0.950 . S
H1575 C1595 0.950 . S
H1576 C1597 0.950 . S
H1577 C1600 0.950 . S
H1578 C1601 0.950 . S
H1579 C1603 0.950 . S
H1580 C1604 0.950 . S
H1581 C1605 0.951 . S
H1582 C1607 0.951 . S
H1583 C1609 0.950 . S
H1584 C1610 0.950 . S
H1585 C1612 0.950 . S
H1586 C1615 0.950 . S
H1587 C1616 0.950 . S
H1588 C1618 0.950 . S
H1589 C1619 0.950 . S
C1590 H1572 0.951 . S
C1590 C1591 1.366 . S
C1590 C1592 1.388 . S
C1591 C1590 1.366 . S
C1591 C1595 1.385 . S
C1592 H1573 0.951 . S
C1592 C1590 1.388 . S
C1592 C1593 1.366 . S
C1593 C1592 1.366 . S
C1593 C1594 1.414 . S
C1593 C1596 1.499 . S
C1594 H1574 0.950 . S
C1594 C1593 1.414 . S
C1594 C1595 1.374 . S
C1595 H1575 0.950 . S
C1595 C1591 1.385 . S
C1595 C1594 1.374 . S
C1596 C1593 1.499 . S
C1596 C1597 1.373 . S
C1596 C1598 1.389 . S
C1597 H1576 0.950 . S
C1597 C1596 1.373 . S
C1597 C1613 1.377 1_545 S
C1598 C1596 1.389 . S
C1598 C1599 1.524 . S
C1598 C1612 1.377 1_545 S
C1599 C1598 1.524 . S
C1599 C1600 1.397 . S
C1599 C1604 1.363 . S
C1600 H1577 0.950 . S
C1600 C1599 1.397 . S
C1600 C1601 1.334 . S
C1601 H1578 0.950 . S
C1601 C1600 1.334 . S
C1601 C1602 1.287 . S
C1602 C1601 1.287 . S
C1602 C1603 1.524 . S
C1602 H1621 0.913 . S
C1603 H1579 0.950 . S
C1603 C1602 1.524 . S
C1603 C1604 1.415 . S
C1604 H1580 0.950 . S
C1604 C1599 1.363 . S
C1604 C1603 1.415 . S
C1605 H1581 0.951 . S
C1605 C1606 1.366 . S
C1605 C1607 1.388 . S
C1606 C1605 1.366 . S
C1606 C1610 1.385 . S
C1607 H1582 0.951 . S
C1607 C1605 1.388 . S
C1607 C1608 1.366 . S
C1608 C1607 1.366 . S
C1608 C1609 1.414 . S
C1608 C1611 1.499 . S
C1609 H1583 0.950 . S
C1609 C1608 1.414 . S
C1609 C1610 1.374 . S
C1610 H1584 0.950 . S
C1610 C1606 1.385 . S
C1610 C1609 1.374 . S
C1611 C1608 1.499 . S
C1611 C1612 1.373 . S
C1611 C1613 1.389 . S
C1612 H1585 0.950 . S
C1612 C1598 1.377 1_565 S
C1612 C1611 1.373 . S
C1613 C1597 1.377 1_565 S
C1613 C1611 1.389 . S
C1613 C1614 1.524 . S
C1614 C1613 1.524 . S
C1614 C1615 1.397 . S
C1614 C1619 1.363 . S
C1615 H1586 0.950 . S
C1615 C1614 1.397 . S
C1615 C1616 1.334 . S
C1616 H1587 0.950 . S
C1616 C1615 1.334 . S
C1616 C1617 1.287 . S
C1617 C1616 1.287 . S
C1617 C1618 1.524 . S
C1617 H1620 0.999 . S
C1618 H1588 0.950 . S
C1618 C1617 1.524 . S
C1618 C1619 1.415 . S
C1619 H1589 0.950 . S
C1619 C1614 1.363 . S
C1619 C1618 1.415 . S
H1620 C1617 0.999 . S
H1621 C1602 0.913 . S
H1622 C1640 0.951 . S
H1623 C1642 0.951 . S
H1624 C1644 0.950 . S
H1625 C1645 0.950 . S
H1626 C1647 0.950 . S
H1627 C1650 0.950 . S
H1628 C1651 0.950 . S
H1629 C1653 0.950 . S
H1630 C1654 0.950 . S
H1631 C1655 0.951 . S
H1632 C1657 0.951 . S
H1633 C1659 0.950 . S
H1634 C1660 0.950 . S
H1635 C1662 0.950 . S
H1636 C1665 0.950 . S
H1637 C1666 0.950 . S
H1638 C1668 0.950 . S
H1639 C1669 0.950 . S
C1640 H1622 0.951 . S
C1640 C1641 1.366 . S
C1640 C1642 1.388 . S
C1641 C1640 1.366 . S
C1641 C1645 1.385 . S
C1642 H1623 0.951 . S
C1642 C1640 1.388 . S
C1642 C1643 1.366 . S
C1643 C1642 1.366 . S
C1643 C1644 1.414 . S
C1643 C1646 1.499 . S
C1644 H1624 0.950 . S
C1644 C1643 1.414 . S
C1644 C1645 1.374 . S
C1645 H1625 0.950 . S
C1645 C1641 1.385 . S
C1645 C1644 1.374 . S
C1646 C1643 1.499 . S
C1646 C1647 1.373 1_655 S
C1646 C1648 1.389 . S
C1647 H1626 0.950 . S
C1647 C1646 1.373 1_455 S
C1647 C1663 1.377 . S
C1648 C1646 1.389 . S
C1648 C1649 1.524 . S
C1648 C1662 1.377 1_655 S
C1649 C1648 1.524 . S
C1649 C1650 1.397 . S
C1649 C1654 1.363 . S
C1650 H1627 0.950 . S
C1650 C1649 1.397 . S
C1650 C1651 1.334 . S
C1651 H1628 0.950 . S
C1651 C1650 1.334 . S
C1651 C1652 1.287 . S
C1652 C1651 1.287 . S
C1652 C1653 1.524 . S
C1652 H1671 0.913 . S
C1653 H1629 0.950 . S
C1653 C1652 1.524 . S
C1653 C1654 1.415 . S
C1654 H1630 0.950 . S
C1654 C1649 1.363 . S
C1654 C1653 1.415 . S
C1655 H1631 0.951 . S
C1655 C1656 1.366 . S
C1655 C1657 1.388 . S
C1656 C1655 1.366 . S
C1656 C1660 1.385 . S
C1657 H1632 0.951 . S
C1657 C1655 1.388 . S
C1657 C1658 1.366 . S
C1658 C1657 1.366 . S
C1658 C1659 1.414 . S
C1658 C1661 1.499 . S
C1659 H1633 0.950 . S
C1659 C1658 1.414 . S
C1659 C1660 1.374 . S
C1660 H1634 0.950 . S
C1660 C1656 1.385 . S
C1660 C1659 1.374 . S
C1661 C1658 1.499 . S
C1661 C1662 1.373 . S
C1661 C1663 1.389 . S
C1662 H1635 0.950 . S
C1662 C1648 1.377 1_455 S
C1662 C1661 1.373 . S
C1663 C1647 1.377 . S
C1663 C1661 1.389 . S
C1663 C1664 1.524 . S
C1664 C1663 1.524 . S
C1664 C1665 1.397 . S
C1664 C1669 1.363 . S
C1665 H1636 0.950 . S
C1665 C1664 1.397 . S
C1665 C1666 1.334 . S
C1666 H1637 0.950 . S
C1666 C1665 1.334 . S
C1666 C1667 1.287 . S
C1667 C1666 1.287 . S
C1667 C1668 1.524 . S
C1667 H1670 0.999 . S
C1668 H1638 0.950 . S
C1668 C1667 1.524 . S
C1668 C1669 1.415 . S
C1669 H1639 0.950 . S
C1669 C1664 1.363 . S
C1669 C1668 1.415 . S
H1670 C1667 0.999 . S
H1671 C1652 0.913 . S
H1672 C1690 0.951 . S
H1673 C1692 0.951 . S
H1674 C1694 0.950 . S
H1675 C1695 0.950 . S
H1676 C1697 0.950 . S
H1677 C1700 0.950 . S
H1678 C1701 0.950 . S
H1679 C1703 0.950 . S
H1680 C1704 0.950 . S
H1681 C1705 0.951 . S
H1682 C1707 0.951 . S
H1683 C1709 0.950 . S
H1684 C1710 0.950 . S
H1685 C1712 0.950 . S
H1686 C1715 0.950 . S
H1687 C1716 0.950 . S
H1688 C1718 0.950 . S
H1689 C1719 0.950 . S
C1690 H1672 0.951 . S
C1690 C1691 1.366 . S
C1690 C1692 1.388 . S
C1691 C1690 1.366 . S
C1691 C1695 1.385 . S
C1692 H1673 0.951 . S
C1692 C1690 1.388 . S
C1692 C1693 1.366 . S
C1693 C1692 1.366 . S
C1693 C1694 1.414 . S
C1693 C1696 1.499 . S
C1694 H1674 0.950 . S
C1694 C1693 1.414 . S
C1694 C1695 1.374 . S
C1695 H1675 0.950 . S
C1695 C1691 1.385 . S
C1695 C1694 1.374 . S
C1696 C1693 1.499 . S
C1696 C1697 1.373 . S
C1696 C1698 1.389 . S
C1697 H1676 0.950 . S
C1697 C1696 1.373 . S
C1697 C1713 1.377 . S
C1698 C1696 1.389 . S
C1698 C1699 1.524 . S
C1698 C1712 1.377 . S
C1699 C1698 1.524 . S
C1699 C1700 1.397 . S
C1699 C1704 1.363 . S
C1700 H1677 0.950 . S
C1700 C1699 1.397 . S
C1700 C1701 1.334 . S
C1701 H1678 0.950 . S
C1701 C1700 1.334 . S
C1701 C1702 1.287 . S
C1702 C1701 1.287 . S
C1702 C1703 1.524 . S
C1702 H1721 0.913 . S
C1703 H1679 0.950 . S
C1703 C1702 1.524 . S
C1703 C1704 1.415 . S
C1704 H1680 0.950 . S
C1704 C1699 1.363 . S
C1704 C1703 1.415 . S
C1705 H1681 0.951 . S
C1705 C1706 1.366 . S
C1705 C1707 1.388 . S
C1706 C1705 1.366 . S
C1706 C1710 1.385 . S
C1707 H1682 0.951 . S
C1707 C1705 1.388 . S
C1707 C1708 1.366 . S
C1708 C1707 1.366 . S
C1708 C1709 1.414 . S
C1708 C1711 1.499 . S
C1709 H1683 0.950 . S
C1709 C1708 1.414 . S
C1709 C1710 1.374 . S
C1710 H1684 0.950 . S
C1710 C1706 1.385 . S
C1710 C1709 1.374 . S
C1711 C1708 1.499 . S
C1711 C1712 1.373 . S
C1711 C1713 1.389 . S
C1712 H1685 0.950 . S
C1712 C1698 1.377 . S
C1712 C1711 1.373 . S
C1713 C1697 1.377 . S
C1713 C1711 1.389 . S
C1713 C1714 1.524 . S
C1714 C1713 1.524 . S
C1714 C1715 1.397 . S
C1714 C1719 1.363 . S
C1715 H1686 0.950 . S
C1715 C1714 1.397 . S
C1715 C1716 1.334 . S
C1716 H1687 0.950 . S
C1716 C1715 1.334 . S
C1716 C1717 1.287 . S
C1717 C1716 1.287 . S
C1717 C1718 1.524 . S
C1717 H1720 0.999 . S
C1718 H1688 0.950 . S
C1718 C1717 1.524 . S
C1718 C1719 1.415 . S
C1719 H1689 0.950 . S
C1719 C1714 1.363 . S
C1719 C1718 1.415 . S
H1720 C1717 0.999 . S
H1721 C1702 0.913 . S
H1722 C1740 0.951 . S
H1723 C1742 0.951 . S
H1724 C1744 0.950 . S
H1725 C1745 0.950 . S
H1726 C1747 0.950 . S
H1727 C1750 0.950 . S
H1728 C1751 0.950 . S
H1729 C1753 0.950 . S
H1730 C1754 0.950 . S
H1731 C1755 0.951 . S
H1732 C1757 0.951 . S
H1733 C1759 0.950 . S
H1734 C1760 0.950 . S
H1735 C1762 0.950 . S
H1736 C1765 0.950 . S
H1737 C1766 0.950 . S
H1738 C1768 0.950 . S
H1739 C1769 0.950 . S
C1740 H1722 0.951 . S
C1740 C1741 1.366 . S
C1740 C1742 1.388 . S
C1741 C1740 1.366 . S
C1741 C1745 1.385 . S
C1742 H1723 0.951 . S
C1742 C1740 1.388 . S
C1742 C1743 1.366 . S
C1743 C1742 1.366 . S
C1743 C1744 1.414 . S
C1743 C1746 1.499 . S
C1744 H1724 0.950 . S
C1744 C1743 1.414 . S
C1744 C1745 1.374 . S
C1745 H1725 0.950 . S
C1745 C1741 1.385 . S
C1745 C1744 1.374 . S
C1746 C1743 1.499 . S
C1746 C1747 1.373 . S
C1746 C1748 1.389 . S
C1747 H1726 0.950 . S
C1747 C1746 1.373 . S
C1747 C1763 1.377 . S
C1748 C1746 1.389 . S
C1748 C1749 1.524 . S
C1748 C1762 1.377 . S
C1749 C1748 1.524 . S
C1749 C1750 1.397 . S
C1749 C1754 1.363 . S
C1750 H1727 0.950 . S
C1750 C1749 1.397 . S
C1750 C1751 1.334 . S
C1751 H1728 0.950 . S
C1751 C1750 1.334 . S
C1751 C1752 1.287 . S
C1752 C1751 1.287 . S
C1752 C1753 1.524 . S
C1752 H1771 0.913 . S
C1753 H1729 0.950 . S
C1753 C1752 1.524 . S
C1753 C1754 1.415 . S
C1754 H1730 0.950 . S
C1754 C1749 1.363 . S
C1754 C1753 1.415 . S
C1755 H1731 0.951 . S
C1755 C1756 1.366 . S
C1755 C1757 1.388 . S
C1756 C1755 1.366 . S
C1756 C1760 1.385 . S
C1757 H1732 0.951 . S
C1757 C1755 1.388 . S
C1757 C1758 1.366 . S
C1758 C1757 1.366 . S
C1758 C1759 1.414 . S
C1758 C1761 1.499 . S
C1759 H1733 0.950 . S
C1759 C1758 1.414 . S
C1759 C1760 1.374 . S
C1760 H1734 0.950 . S
C1760 C1756 1.385 . S
C1760 C1759 1.374 . S
C1761 C1758 1.499 . S
C1761 C1762 1.373 . S
C1761 C1763 1.389 . S
C1762 H1735 0.950 . S
C1762 C1748 1.377 . S
C1762 C1761 1.373 . S
C1763 C1747 1.377 . S
C1763 C1761 1.389 . S
C1763 C1764 1.524 . S
C1764 C1763 1.524 . S
C1764 C1765 1.397 . S
C1764 C1769 1.363 . S
C1765 H1736 0.950 . S
C1765 C1764 1.397 . S
C1765 C1766 1.334 . S
C1766 H1737 0.950 . S
C1766 C1765 1.334 . S
C1766 C1767 1.287 . S
C1767 C1766 1.287 . S
C1767 C1768 1.524 . S
C1767 H1770 0.999 . S
C1768 H1738 0.950 . S
C1768 C1767 1.524 . S
C1768 C1769 1.415 . S
C1769 H1739 0.950 . S
C1769 C1764 1.363 . S
C1769 C1768 1.415 . S
H1770 C1767 0.999 . S
H1771 C1752 0.913 . S
H1772 C1790 0.951 . S
H1773 C1792 0.951 . S
H1774 C1794 0.950 . S
H1775 C1795 0.950 . S
H1776 C1797 0.950 . S
H1777 C1800 0.950 . S
H1778 C1801 0.950 . S
H1779 C1803 0.950 . S
H1780 C1804 0.950 . S
H1781 C1805 0.951 . S
H1782 C1807 0.951 . S
H1783 C1809 0.950 . S
H1784 C1810 0.950 . S
H1785 C1812 0.950 . S
H1786 C1815 0.950 . S
H1787 C1816 0.950 . S
H1788 C1818 0.950 . S
H1789 C1819 0.950 . S
C1790 H1772 0.951 . S
C1790 C1791 1.366 . S
C1790 C1792 1.388 . S
C1791 C1790 1.366 . S
C1791 C1795 1.385 . S
C1792 H1773 0.951 . S
C1792 C1790 1.388 . S
C1792 C1793 1.366 . S
C1793 C1792 1.366 . S
C1793 C1794 1.414 . S
C1793 C1796 1.499 . S
C1794 H1774 0.950 . S
C1794 C1793 1.414 . S
C1794 C1795 1.374 . S
C1795 H1775 0.950 . S
C1795 C1791 1.385 . S
C1795 C1794 1.374 . S
C1796 C1793 1.499 . S
C1796 C1797 1.373 . S
C1796 C1798 1.389 . S
C1797 H1776 0.950 . S
C1797 C1796 1.373 . S
C1797 C1813 1.377 . S
C1798 C1796 1.389 . S
C1798 C1799 1.524 . S
C1798 C1812 1.377 . S
C1799 C1798 1.524 . S
C1799 C1800 1.397 . S
C1799 C1804 1.363 . S
C1800 H1777 0.950 . S
C1800 C1799 1.397 . S
C1800 C1801 1.334 . S
C1801 H1778 0.950 . S
C1801 C1800 1.334 . S
C1801 C1802 1.287 . S
C1802 C1801 1.287 . S
C1802 C1803 1.524 . S
C1802 H1821 0.893 1_545 S
C1803 H1779 0.950 . S
C1803 C1802 1.524 . S
C1803 C1804 1.415 . S
C1804 H1780 0.950 . S
C1804 C1799 1.363 . S
C1804 C1803 1.415 . S
C1805 H1781 0.951 . S
C1805 C1806 1.366 . S
C1805 C1807 1.388 . S
C1806 C1805 1.366 . S
C1806 C1810 1.385 . S
C1807 H1782 0.951 . S
C1807 C1805 1.388 . S
C1807 C1808 1.366 . S
C1808 C1807 1.366 . S
C1808 C1809 1.414 . S
C1808 C1811 1.499 . S
C1809 H1783 0.950 . S
C1809 C1808 1.414 . S
C1809 C1810 1.374 . S
C1810 H1784 0.950 . S
C1810 C1806 1.385 . S
C1810 C1809 1.374 . S
C1811 C1808 1.499 . S
C1811 C1812 1.373 . S
C1811 C1813 1.389 . S
C1812 H1785 0.950 . S
C1812 C1798 1.377 . S
C1812 C1811 1.373 . S
C1813 C1797 1.377 . S
C1813 C1811 1.389 . S
C1813 C1814 1.524 . S
C1814 C1813 1.524 . S
C1814 C1815 1.397 . S
C1814 C1819 1.363 . S
C1815 H1786 0.950 . S
C1815 C1814 1.397 . S
C1815 C1816 1.334 . S
C1816 H1787 0.950 . S
C1816 C1815 1.334 . S
C1816 C1817 1.287 . S
C1817 C1816 1.287 . S
C1817 C1818 1.524 . S
C1817 H1820 0.999 . S
C1818 H1788 0.950 . S
C1818 C1817 1.524 . S
C1818 C1819 1.415 . S
C1819 H1789 0.950 . S
C1819 C1814 1.363 . S
C1819 C1818 1.415 . S
H1820 C1817 0.999 . S
H1821 C1802 0.893 1_565 S
H1822 C1840 0.951 . S
H1823 C1842 0.951 . S
H1824 C1844 0.950 . S
H1825 C1845 0.950 . S
H1826 C1847 0.950 . S
H1827 C1850 0.950 . S
H1828 C1851 0.950 . S
H1829 C1853 0.950 . S
H1830 C1854 0.950 . S
H1831 C1855 0.951 . S
H1832 C1857 0.951 . S
H1833 C1859 0.950 . S
H1834 C1860 0.950 . S
H1835 C1862 0.950 . S
H1836 C1865 0.950 . S
H1837 C1866 0.950 . S
H1838 C1868 0.950 . S
H1839 C1869 0.950 . S
C1840 H1822 0.951 . S
C1840 C1841 1.366 . S
C1840 C1842 1.388 . S
C1841 C1840 1.366 . S
C1841 C1845 1.385 . S
C1842 H1823 0.951 . S
C1842 C1840 1.388 . S
C1842 C1843 1.366 . S
C1843 C1842 1.366 . S
C1843 C1844 1.414 . S
C1843 C1846 1.499 . S
C1844 H1824 0.950 . S
C1844 C1843 1.414 . S
C1844 C1845 1.374 . S
C1845 H1825 0.950 . S
C1845 C1841 1.385 . S
C1845 C1844 1.374 . S
C1846 C1843 1.499 . S
C1846 C1847 1.373 . S
C1846 C1848 1.389 . S
C1847 H1826 0.950 . S
C1847 C1846 1.373 . S
C1847 C1863 1.377 . S
C1848 C1846 1.389 . S
C1848 C1849 1.524 . S
C1848 C1862 1.377 . S
C1849 C1848 1.524 . S
C1849 C1850 1.397 . S
C1849 C1854 1.363 . S
C1850 H1827 0.950 . S
C1850 C1849 1.397 . S
C1850 C1851 1.334 . S
C1851 H1828 0.950 . S
C1851 C1850 1.334 . S
C1851 C1852 1.287 . S
C1852 C1851 1.287 . S
C1852 C1853 1.524 . S
C1852 H1871 0.913 . S
C1853 H1829 0.950 . S
C1853 C1852 1.524 . S
C1853 C1854 1.415 . S
C1854 H1830 0.950 . S
C1854 C1849 1.363 . S
C1854 C1853 1.415 . S
C1855 H1831 0.951 . S
C1855 C1856 1.366 . S
C1855 C1857 1.388 . S
C1856 C1855 1.366 . S
C1856 C1860 1.385 . S
C1857 H1832 0.951 . S
C1857 C1855 1.388 . S
C1857 C1858 1.366 . S
C1858 C1857 1.366 . S
C1858 C1859 1.414 . S
C1858 C1861 1.499 . S
C1859 H1833 0.950 . S
C1859 C1858 1.414 . S
C1859 C1860 1.374 . S
C1860 H1834 0.950 . S
C1860 C1856 1.385 . S
C1860 C1859 1.374 . S
C1861 C1858 1.499 . S
C1861 C1862 1.373 . S
C1861 C1863 1.389 . S
C1862 H1835 0.950 . S
C1862 C1848 1.377 . S
C1862 C1861 1.373 . S
C1863 C1847 1.377 . S
C1863 C1861 1.389 . S
C1863 C1864 1.524 . S
C1864 C1863 1.524 . S
C1864 C1865 1.397 . S
C1864 C1869 1.363 . S
C1865 H1836 0.950 . S
C1865 C1864 1.397 . S
C1865 C1866 1.334 . S
C1866 H1837 0.950 . S
C1866 C1865 1.334 . S
C1866 C1867 1.287 . S
C1867 C1866 1.287 . S
C1867 C1868 1.524 . S
C1867 H1870 0.999 . S
C1868 H1838 0.950 . S
C1868 C1867 1.524 . S
C1868 C1869 1.415 . S
C1869 H1839 0.950 . S
C1869 C1864 1.363 . S
C1869 C1868 1.415 . S
H1870 C1867 0.999 . S
H1871 C1852 0.913 . S
H1872 C1890 0.951 . S
H1873 C1892 0.951 . S
H1874 C1894 0.950 . S
H1875 C1895 0.950 . S
H1876 C1897 0.950 . S
H1877 C1900 0.950 . S
H1878 C1901 0.950 . S
H1879 C1903 0.950 . S
H1880 C1904 0.950 1_545 S
H1881 C1905 0.951 . S
H1882 C1907 0.951 . S
H1883 C1909 0.950 . S
H1884 C1910 0.950 . S
H1885 C1912 0.950 . S
H1886 C1915 0.950 . S
H1887 C1916 0.950 . S
H1888 C1918 0.950 1_565 S
H1889 C1919 0.950 . S
C1890 H1872 0.951 . S
C1890 C1891 1.366 . S
C1890 C1892 1.388 . S
C1891 C1890 1.366 . S
C1891 C1895 1.385 . S
C1892 H1873 0.951 . S
C1892 C1890 1.388 . S
C1892 C1893 1.366 . S
C1893 C1892 1.366 . S
C1893 C1894 1.414 . S
C1893 C1896 1.499 . S
C1894 H1874 0.950 . S
C1894 C1893 1.414 . S
C1894 C1895 1.374 . S
C1895 H1875 0.950 . S
C1895 C1891 1.385 . S
C1895 C1894 1.374 . S
C1896 C1893 1.499 . S
C1896 C1897 1.373 . S
C1896 C1898 1.389 . S
C1897 H1876 0.950 . S
C1897 C1896 1.373 . S
C1897 C1913 1.377 1_565 S
C1898 C1896 1.389 . S
C1898 C1899 1.524 . S
C1898 C1912 1.377 1_565 S
C1899 C1898 1.524 . S
C1899 C1900 1.397 . S
C1899 C1904 1.363 . S
C1900 H1877 0.950 . S
C1900 C1899 1.397 . S
C1900 C1901 1.334 . S
C1901 H1878 0.950 . S
C1901 C1900 1.334 . S
C1901 C1902 1.287 . S
C1902 C1901 1.287 . S
C1902 C1903 1.524 . S
C1902 H1921 0.913 . S
C1903 H1879 0.950 . S
C1903 C1902 1.524 . S
C1903 C1904 1.415 . S
C1904 H1880 0.950 1_565 S
C1904 C1899 1.363 . S
C1904 C1903 1.415 . S
C1905 H1881 0.951 . S
C1905 C1906 1.366 . S
C1905 C1907 1.388 . S
C1906 C1905 1.366 . S
C1906 C1910 1.385 . S
C1907 H1882 0.951 . S
C1907 C1905 1.388 . S
C1907 C1908 1.366 . S
C1908 C1907 1.366 . S
C1908 C1909 1.414 . S
C1908 C1911 1.499 . S
C1909 H1883 0.950 . S
C1909 C1908 1.414 . S
C1909 C1910 1.374 . S
C1910 H1884 0.950 . S
C1910 C1906 1.385 . S
C1910 C1909 1.374 . S
C1911 C1908 1.499 . S
C1911 C1912 1.373 . S
C1911 C1913 1.389 . S
C1912 H1885 0.950 . S
C1912 C1898 1.377 1_545 S
C1912 C1911 1.373 . S
C1913 C1897 1.377 1_545 S
C1913 C1911 1.389 . S
C1913 C1914 1.524 . S
C1914 C1913 1.524 . S
C1914 C1915 1.397 . S
C1914 C1919 1.363 1_545 S
C1915 H1886 0.950 . S
C1915 C1914 1.397 . S
C1915 C1916 1.334 . S
C1916 H1887 0.950 . S
C1916 C1915 1.334 . S
C1916 C1917 1.287 . S
C1917 C1916 1.287 . S
C1917 C1918 1.524 . S
C1917 H1920 0.999 . S
C1918 H1888 0.950 1_545 S
C1918 C1917 1.524 . S
C1918 C1919 1.415 1_545 S
C1919 H1889 0.950 . S
C1919 C1914 1.363 1_565 S
C1919 C1918 1.415 1_565 S
H1920 C1917 0.999 . S
H1921 C1902 0.913 . S
H1922 C1940 0.951 . S
H1923 C1942 0.951 . S
H1924 C1944 0.950 . S
H1925 C1945 0.950 . S
H1926 C1947 0.950 . S
H1927 C1950 0.950 . S
H1928 C1951 0.950 . S
H1929 C1953 0.950 . S
H1930 C1954 0.950 1_655 S
H1931 C1955 0.951 . S
H1932 C1957 0.951 . S
H1933 C1959 0.950 . S
H1934 C1960 0.950 . S
H1935 C1962 0.950 . S
H1936 C1965 0.950 . S
H1937 C1966 0.950 . S
H1938 C1968 0.950 . S
H1939 C1969 0.950 . S
C1940 H1922 0.951 . S
C1940 C1941 1.366 . S
C1940 C1942 1.388 . S
C1941 C1940 1.366 . S
C1941 C1945 1.385 . S
C1942 H1923 0.951 . S
C1942 C1940 1.388 . S
C1942 C1943 1.366 . S
C1943 C1942 1.366 . S
C1943 C1944 1.414 . S
C1943 C1946 1.499 . S
C1944 H1924 0.950 . S
C1944 C1943 1.414 . S
C1944 C1945 1.374 . S
C1945 H1925 0.950 . S
C1945 C1941 1.385 . S
C1945 C1944 1.374 . S
C1946 C1943 1.499 . S
C1946 C1947 1.373 1_455 S
C1946 C1948 1.423 . S
C1947 H1926 0.950 . S
C1947 C1946 1.373 1_655 S
C1947 C1963 1.377 . S
C1948 C1946 1.423 . S
C1948 C1949 1.529 . S
C1948 C1962 1.338 1_455 S
C1949 C1948 1.529 . S
C1949 C1950 1.397 . S
C1949 C1954 1.363 . S
C1950 H1927 0.950 . S
C1950 C1949 1.397 . S
C1950 C1951 1.334 . S
C1951 H1928 0.950 . S
C1951 C1950 1.334 . S
C1951 C1952 1.287 . S
C1952 C1951 1.287 . S
C1952 C1953 1.524 . S
C1952 H1971 0.913 . S
C1953 H1929 0.950 . S
C1953 C1952 1.524 . S
C1953 C1954 1.415 . S
C1954 H1930 0.950 1_455 S
C1954 C1949 1.363 . S
C1954 C1953 1.415 . S
C1955 H1931 0.951 . S
C1955 C1956 1.366 . S
C1955 C1957 1.388 . S
C1956 C1955 1.366 . S
C1956 C1960 1.385 . S
C1957 H1932 0.951 . S
C1957 C1955 1.388 . S
C1957 C1958 1.366 . S
C1958 C1957 1.366 . S
C1958 C1959 1.414 . S
C1958 C1961 1.499 . S
C1959 H1933 0.950 . S
C1959 C1958 1.414 . S
C1959 C1960 1.374 . S
C1960 H1934 0.950 . S
C1960 C1956 1.385 . S
C1960 C1959 1.374 . S
C1961 C1958 1.499 . S
C1961 C1962 1.373 . S
C1961 C1963 1.389 . S
C1962 H1935 0.950 . S
C1962 C1948 1.338 1_655 S
C1962 C1961 1.373 . S
C1963 C1947 1.377 . S
C1963 C1961 1.389 . S
C1963 C1964 1.524 . S
C1964 C1963 1.524 . S
C1964 C1965 1.397 . S
C1964 C1969 1.363 . S
C1965 H1936 0.950 . S
C1965 C1964 1.397 . S
C1965 C1966 1.334 . S
C1966 H1937 0.950 . S
C1966 C1965 1.334 . S
C1966 C1967 1.287 . S
C1967 C1966 1.287 . S
C1967 C1968 1.524 . S
C1967 H1970 0.999 . S
C1968 H1938 0.950 . S
C1968 C1967 1.524 . S
C1968 C1969 1.415 . S
C1969 H1939 0.950 . S
C1969 C1964 1.363 . S
C1969 C1968 1.415 . S
H1970 C1967 0.999 . S
H1971 C1952 0.913 . S
H1972 C1990 0.951 . S
H1973 C1992 0.951 . S
H1974 C1994 0.950 . S
H1975 C1995 0.950 . S
H1976 C1997 0.950 . S
H1977 C2000 0.950 . S
H1978 C2001 0.950 . S
H1979 C2003 0.950 . S
H1980 C2004 0.950 . S
H1981 C2005 0.951 . S
H1982 C2007 0.951 . S
H1983 C2009 0.950 . S
H1984 C2010 0.950 . S
H1985 C2012 0.950 . S
H1986 C2015 0.950 . S
H1987 C2016 0.950 . S
H1988 C2018 0.950 . S
H1989 C2019 0.950 . S
C1990 H1972 0.951 . S
C1990 C1991 1.366 . S
C1990 C1992 1.388 . S
C1991 C1990 1.366 . S
C1991 C1995 1.385 . S
C1992 H1973 0.951 . S
C1992 C1990 1.388 . S
C1992 C1993 1.366 . S
C1993 C1992 1.366 . S
C1993 C1994 1.414 . S
C1993 C1996 1.499 . S
C1994 H1974 0.950 . S
C1994 C1993 1.414 . S
C1994 C1995 1.374 . S
C1995 H1975 0.950 . S
C1995 C1991 1.385 . S
C1995 C1994 1.374 . S
C1996 C1993 1.499 . S
C1996 C1997 1.373 . S
C1996 C1998 1.389 . S
C1997 H1976 0.950 . S
C1997 C1996 1.373 . S
C1997 C2013 1.377 . S
C1998 C1996 1.389 . S
C1998 C1999 1.524 . S
C1998 C2012 1.377 . S
C1999 C1998 1.524 . S
C1999 C2000 1.397 . S
C1999 C2004 1.363 . S
C2000 H1977 0.950 . S
C2000 C1999 1.397 . S
C2000 C2001 1.334 . S
C2001 H1978 0.950 . S
C2001 C2000 1.334 . S
C2001 C2002 1.287 . S
C2002 C2001 1.287 . S
C2002 C2003 1.524 . S
C2002 H2021 0.913 . S
C2003 H1979 0.950 . S
C2003 C2002 1.524 . S
C2003 C2004 1.415 . S
C2004 H1980 0.950 . S
C2004 C1999 1.363 . S
C2004 C2003 1.415 . S
C2005 H1981 0.951 . S
C2005 C2006 1.366 . S
C2005 C2007 1.388 . S
C2006 C2005 1.366 . S
C2006 C2010 1.385 . S
C2007 H1982 0.951 . S
C2007 C2005 1.388 . S
C2007 C2008 1.366 . S
C2008 C2007 1.366 . S
C2008 C2009 1.414 . S
C2008 C2011 1.499 . S
C2009 H1983 0.950 . S
C2009 C2008 1.414 . S
C2009 C2010 1.374 . S
C2010 H1984 0.950 . S
C2010 C2006 1.385 . S
C2010 C2009 1.374 . S
C2011 C2008 1.499 . S
C2011 C2012 1.373 . S
C2011 C2013 1.389 . S
C2012 H1985 0.950 . S
C2012 C1998 1.377 . S
C2012 C2011 1.373 . S
C2013 C1997 1.377 . S
C2013 C2011 1.389 . S
C2013 C2014 1.524 . S
C2014 C2013 1.524 . S
C2014 C2015 1.397 . S
C2014 C2019 1.363 . S
C2015 H1986 0.950 . S
C2015 C2014 1.397 . S
C2015 C2016 1.334 . S
C2016 H1987 0.950 . S
C2016 C2015 1.334 . S
C2016 C2017 1.287 . S
C2017 C2016 1.287 . S
C2017 C2018 1.524 . S
C2017 H2020 0.999 . S
C2018 H1988 0.950 . S
C2018 C2017 1.524 . S
C2018 C2019 1.415 . S
C2019 H1989 0.950 . S
C2019 C2014 1.363 . S
C2019 C2018 1.415 . S
H2020 C2017 0.999 . S
H2021 C2002 0.913 . S
H2022 C2040 0.951 . S
H2023 C2042 0.951 . S
H2024 C2044 0.950 . S
H2025 C2045 0.950 . S
H2026 C2047 0.976 . S
H2027 C2050 0.950 . S
H2028 C2051 0.950 . S
H2029 C2053 0.950 . S
H2030 C2054 0.950 . S
H2031 C2055 0.951 . S
H2032 C2057 0.951 . S
H2033 C2059 0.950 . S
H2034 C2060 0.950 . S
H2035 C2062 0.950 . S
H2036 C2065 0.950 . S
H2037 C2066 0.950 . S
H2038 C2068 0.950 . S
H2039 C2069 0.950 . S
C2040 H2022 0.951 . S
C2040 C2041 1.366 . S
C2040 C2042 1.388 . S
C2041 C2040 1.366 . S
C2041 C2045 1.385 . S
C2042 H2023 0.951 . S
C2042 C2040 1.388 . S
C2042 C2043 1.366 . S
C2043 C2042 1.366 . S
C2043 C2044 1.414 . S
C2043 C2046 1.499 . S
C2044 H2024 0.950 . S
C2044 C2043 1.414 . S
C2044 C2045 1.374 . S
C2045 H2025 0.950 . S
C2045 C2041 1.385 . S
C2045 C2044 1.374 . S
C2046 C2043 1.499 . S
C2046 C2047 1.392 . S
C2046 C2048 1.389 . S
C2047 H2026 0.976 . S
C2047 C2046 1.392 . S
C2047 C2063 1.335 1_455 S
C2048 C2046 1.389 . S
C2048 C2049 1.524 . S
C2048 C2062 1.377 1_455 S
C2049 C2048 1.524 . S
C2049 C2050 1.397 . S
C2049 C2054 1.363 . S
C2050 H2027 0.950 . S
C2050 C2049 1.397 . S
C2050 C2051 1.334 . S
C2051 H2028 0.950 . S
C2051 C2050 1.334 . S
C2051 C2052 1.287 . S
C2052 C2051 1.287 . S
C2052 C2053 1.524 . S
C2052 H2071 0.913 . S
C2053 H2029 0.950 . S
C2053 C2052 1.524 . S
C2053 C2054 1.415 . S
C2054 H2030 0.950 . S
C2054 C2049 1.363 . S
C2054 C2053 1.415 . S
C2055 H2031 0.951 . S
C2055 C2056 1.366 . S
C2055 C2057 1.388 . S
C2056 C2055 1.366 . S
C2056 C2060 1.385 . S
C2057 H2032 0.951 . S
C2057 C2055 1.388 . S
C2057 C2058 1.366 . S
C2058 C2057 1.366 . S
C2058 C2059 1.414 . S
C2058 C2061 1.499 . S
C2059 H2033 0.950 . S
C2059 C2058 1.414 . S
C2059 C2060 1.374 . S
C2060 H2034 0.950 . S
C2060 C2056 1.385 . S
C2060 C2059 1.374 . S
C2061 C2058 1.499 . S
C2061 C2062 1.373 . S
C2061 C2063 1.389 . S
C2062 H2035 0.950 . S
C2062 C2048 1.377 1_655 S
C2062 C2061 1.373 . S
C2063 C2047 1.335 1_655 S
C2063 C2061 1.389 . S
C2063 C2064 1.524 . S
C2064 C2063 1.524 . S
C2064 C2065 1.397 . S
C2064 C2069 1.363 . S
C2065 H2036 0.950 . S
C2065 C2064 1.397 . S
C2065 C2066 1.334 . S
C2066 H2037 0.950 . S
C2066 C2065 1.334 . S
C2066 C2067 1.287 . S
C2067 C2066 1.287 . S
C2067 C2068 1.524 . S
C2067 H2070 0.999 . S
C2068 H2038 0.950 . S
C2068 C2067 1.524 . S
C2068 C2069 1.415 . S
C2069 H2039 0.950 . S
C2069 C2064 1.363 . S
C2069 C2068 1.415 . S
H2070 C2067 0.999 . S
H2071 C2052 0.913 . S
H2072 C2090 0.951 . S
H2073 C2092 0.951 . S
H2074 C2094 0.950 . S
H2075 C2095 0.950 . S
H2076 C2097 0.950 . S
H2077 C2100 0.950 . S
H2078 C2101 0.950 . S
H2079 C2103 0.950 . S
H2080 C2104 0.950 . S
H2081 C2105 0.951 . S
H2082 C2107 0.951 . S
H2083 C2109 0.950 . S
H2084 C2110 0.950 . S
H2085 C2112 0.950 . S
H2086 C2115 0.950 . S
H2087 C2116 0.950 . S
H2088 C2118 0.950 . S
H2089 C2119 0.950 . S
C2090 H2072 0.951 . S
C2090 C2091 1.366 . S
C2090 C2092 1.388 . S
C2091 C2090 1.366 . S
C2091 C2095 1.385 . S
C2092 H2073 0.951 . S
C2092 C2090 1.388 . S
C2092 C2093 1.366 . S
C2093 C2092 1.366 . S
C2093 C2094 1.414 . S
C2093 C2096 1.499 . S
C2094 H2074 0.950 . S
C2094 C2093 1.414 . S
C2094 C2095 1.374 . S
C2095 H2075 0.950 . S
C2095 C2091 1.385 . S
C2095 C2094 1.374 . S
C2096 C2093 1.499 . S
C2096 C2097 1.373 . S
C2096 C2098 1.389 . S
C2097 H2076 0.950 . S
C2097 C2096 1.373 . S
C2097 C2113 1.377 . S
C2098 C2096 1.389 . S
C2098 C2099 1.524 . S
C2098 C2112 1.377 . S
C2099 C2098 1.524 . S
C2099 C2100 1.397 . S
C2099 C2104 1.363 . S
C2100 H2077 0.950 . S
C2100 C2099 1.397 . S
C2100 C2101 1.334 . S
C2101 H2078 0.950 . S
C2101 C2100 1.334 . S
C2101 C2102 1.287 . S
C2102 C2101 1.287 . S
C2102 C2103 1.524 . S
C2102 H2121 0.913 . S
C2103 H2079 0.950 . S
C2103 C2102 1.524 . S
C2103 C2104 1.415 . S
C2104 H2080 0.950 . S
C2104 C2099 1.363 . S
C2104 C2103 1.415 . S
C2105 H2081 0.951 . S
C2105 C2106 1.366 . S
C2105 C2107 1.388 . S
C2106 C2105 1.366 . S
C2106 C2110 1.385 . S
C2107 H2082 0.951 . S
C2107 C2105 1.388 . S
C2107 C2108 1.366 . S
C2108 C2107 1.366 . S
C2108 C2109 1.414 . S
C2108 C2111 1.499 . S
C2109 H2083 0.950 . S
C2109 C2108 1.414 . S
C2109 C2110 1.374 . S
C2110 H2084 0.950 . S
C2110 C2106 1.385 . S
C2110 C2109 1.374 . S
C2111 C2108 1.499 . S
C2111 C2112 1.373 . S
C2111 C2113 1.389 . S
C2112 H2085 0.950 . S
C2112 C2098 1.377 . S
C2112 C2111 1.373 . S
C2113 C2097 1.377 . S
C2113 C2111 1.389 . S
C2113 C2114 1.524 . S
C2114 C2113 1.524 . S
C2114 C2115 1.397 . S
C2114 C2119 1.363 . S
C2115 H2086 0.950 . S
C2115 C2114 1.397 . S
C2115 C2116 1.334 . S
C2116 H2087 0.950 . S
C2116 C2115 1.334 . S
C2116 C2117 1.287 . S
C2117 C2116 1.287 . S
C2117 C2118 1.524 . S
C2117 H2120 0.999 . S
C2118 H2088 0.950 . S
C2118 C2117 1.524 . S
C2118 C2119 1.415 . S
C2119 H2089 0.950 . S
C2119 C2114 1.363 . S
C2119 C2118 1.415 . S
H2120 C2117 0.999 . S
H2121 C2102 0.913 . S
H2122 C2140 0.951 . S
H2123 C2142 0.951 . S
H2124 C2144 0.950 . S
H2125 C2145 0.950 . S
H2126 C2147 0.950 . S
H2127 C2150 0.950 . S
H2128 C2151 0.950 . S
H2129 C2153 0.950 . S
H2130 C2154 0.950 . S
H2131 C2155 0.951 . S
H2132 C2157 0.951 . S
H2133 C2159 0.950 . S
H2134 C2160 0.950 . S
H2135 C2162 0.950 . S
H2136 C2165 0.950 . S
H2137 C2166 0.950 . S
H2138 C2168 0.978 . S
H2139 C2169 0.950 . S
C2140 H2122 0.951 . S
C2140 C2141 1.366 . S
C2140 C2142 1.388 . S
C2141 C2140 1.366 . S
C2141 C2145 1.385 . S
C2142 H2123 0.951 . S
C2142 C2140 1.388 . S
C2142 C2143 1.366 . S
C2143 C2142 1.366 . S
C2143 C2144 1.414 . S
C2143 C2146 1.499 . S
C2144 H2124 0.950 . S
C2144 C2143 1.414 . S
C2144 C2145 1.374 . S
C2145 H2125 0.950 . S
C2145 C2141 1.385 . S
C2145 C2144 1.374 . S
C2146 C2143 1.499 . S
C2146 C2147 1.373 . S
C2146 C2148 1.389 . S
C2147 H2126 0.950 . S
C2147 C2146 1.373 . S
C2147 C2163 1.377 . S
C2148 C2146 1.389 . S
C2148 C2149 1.524 . S
C2148 C2162 1.377 1_565 S
C2149 C2148 1.524 . S
C2149 C2150 1.397 . S
C2149 C2154 1.363 . S
C2150 H2127 0.950 . S
C2150 C2149 1.397 . S
C2150 C2151 1.334 . S
C2151 H2128 0.950 . S
C2151 C2150 1.334 . S
C2151 C2152 1.287 . S
C2152 C2151 1.287 . S
C2152 C2153 1.524 . S
C2152 H2171 0.913 . S
C2153 H2129 0.950 . S
C2153 C2152 1.524 . S
C2153 C2154 1.415 . S
C2154 H2130 0.950 . S
C2154 C2149 1.363 . S
C2154 C2153 1.415 . S
C2155 H2131 0.951 . S
C2155 C2156 1.366 . S
C2155 C2157 1.388 . S
C2156 C2155 1.366 . S
C2156 C2160 1.385 . S
C2157 H2132 0.951 . S
C2157 C2155 1.388 . S
C2157 C2158 1.366 . S
C2158 C2157 1.366 . S
C2158 C2159 1.414 . S
C2158 C2161 1.499 . S
C2159 H2133 0.950 . S
C2159 C2158 1.414 . S
C2159 C2160 1.374 . S
C2160 H2134 0.950 . S
C2160 C2156 1.385 . S
C2160 C2159 1.374 . S
C2161 C2158 1.499 . S
C2161 C2162 1.373 . S
C2161 C2163 1.389 1_545 S
C2162 H2135 0.950 . S
C2162 C2148 1.377 1_545 S
C2162 C2161 1.373 . S
C2163 C2147 1.377 . S
C2163 C2161 1.389 1_565 S
C2163 C2164 1.524 1_565 S
C2164 C2163 1.524 1_545 S
C2164 C2165 1.397 . S
C2164 C2169 1.363 1_545 S
C2165 H2136 0.950 . S
C2165 C2164 1.397 . S
C2165 C2166 1.334 . S
C2166 H2137 0.950 . S
C2166 C2165 1.334 . S
C2166 C2167 1.287 . S
C2167 C2166 1.287 . S
C2167 C2168 1.475 1_545 S
C2167 H2170 0.999 . S
C2168 H2138 0.978 . S
C2168 C2167 1.475 1_565 S
C2168 C2169 1.433 . S
C2169 H2139 0.950 . S
C2169 C2164 1.363 1_565 S
C2169 C2168 1.433 . S
H2170 C2167 0.999 . S
H2171 C2152 0.913 . S
H2172 C2190 0.951 . S
H2173 C2192 0.951 . S
H2174 C2194 0.950 . S
H2175 C2195 0.950 . S
H2176 C2197 0.950 . S
H2177 C2200 0.950 . S
H2178 C2201 0.950 . S
H2179 C2203 0.950 . S
H2180 C2204 0.950 . S
H2181 C2205 0.951 . S
H2182 C2207 0.951 . S
H2183 C2209 0.950 . S
H2184 C2210 0.950 . S
H2185 C2212 0.950 . S
H2186 C2215 0.950 . S
H2187 C2216 0.950 . S
H2188 C2218 0.950 . S
H2189 C2219 0.950 . S
C2190 H2172 0.951 . S
C2190 C2191 1.366 . S
C2190 C2192 1.388 . S
C2191 C2190 1.366 . S
C2191 C2195 1.385 . S
C2192 H2173 0.951 . S
C2192 C2190 1.388 . S
C2192 C2193 1.366 . S
C2193 C2192 1.366 . S
C2193 C2194 1.414 . S
C2193 C2196 1.499 . S
C2194 H2174 0.950 . S
C2194 C2193 1.414 . S
C2194 C2195 1.374 . S
C2195 H2175 0.950 . S
C2195 C2191 1.385 . S
C2195 C2194 1.374 . S
C2196 C2193 1.499 . S
C2196 C2197 1.373 . S
C2196 C2198 1.389 . S
C2197 H2176 0.950 . S
C2197 C2196 1.373 . S
C2197 C2213 1.377 . S
C2198 C2196 1.389 . S
C2198 C2199 1.524 . S
C2198 C2212 1.377 . S
C2199 C2198 1.524 . S
C2199 C2200 1.397 . S
C2199 C2204 1.363 . S
C2200 H2177 0.950 . S
C2200 C2199 1.397 . S
C2200 C2201 1.334 . S
C2201 H2178 0.950 . S
C2201 C2200 1.334 . S
C2201 C2202 1.287 . S
C2202 C2201 1.287 . S
C2202 C2203 1.524 . S
C2202 H2221 0.913 . S
C2203 H2179 0.950 . S
C2203 C2202 1.524 . S
C2203 C2204 1.415 . S
C2204 H2180 0.950 . S
C2204 C2199 1.363 . S
C2204 C2203 1.415 . S
C2205 H2181 0.951 . S
C2205 C2206 1.366 . S
C2205 C2207 1.388 . S
C2206 C2205 1.366 . S
C2206 C2210 1.385 . S
C2207 H2182 0.951 . S
C2207 C2205 1.388 . S
C2207 C2208 1.366 . S
C2208 C2207 1.366 . S
C2208 C2209 1.414 . S
C2208 C2211 1.499 . S
C2209 H2183 0.950 . S
C2209 C2208 1.414 . S
C2209 C2210 1.374 . S
C2210 H2184 0.950 . S
C2210 C2206 1.385 . S
C2210 C2209 1.374 . S
C2211 C2208 1.499 . S
C2211 C2212 1.373 . S
C2211 C2213 1.389 . S
C2212 H2185 0.950 . S
C2212 C2198 1.377 . S
C2212 C2211 1.373 . S
C2213 C2197 1.377 . S
C2213 C2211 1.389 . S
C2213 C2214 1.524 . S
C2214 C2213 1.524 . S
C2214 C2215 1.397 . S
C2214 C2219 1.363 . S
C2215 H2186 0.950 . S
C2215 C2214 1.397 . S
C2215 C2216 1.334 . S
C2216 H2187 0.950 . S
C2216 C2215 1.334 . S
C2216 C2217 1.287 . S
C2217 C2216 1.287 . S
C2217 C2218 1.524 . S
C2217 H2220 0.999 . S
C2218 H2188 0.950 . S
C2218 C2217 1.524 . S
C2218 C2219 1.415 . S
C2219 H2189 0.950 . S
C2219 C2214 1.363 . S
C2219 C2218 1.415 . S
H2220 C2217 0.999 . S
H2221 C2202 0.913 . S
H2222 C2240 0.951 . S
H2223 C2242 0.951 . S
H2224 C2244 0.950 . S
H2225 C2245 0.950 . S
H2226 C2247 0.950 . S
H2227 C2250 0.950 . S
H2228 C2251 0.950 . S
H2229 C2253 0.950 . S
H2230 C2254 0.950 . S
H2231 C2255 0.951 . S
H2232 C2257 0.951 . S
H2233 C2259 0.950 . S
H2234 C2260 0.950 . S
H2235 C2262 0.950 . S
H2236 C2265 0.950 . S
H2237 C2266 0.950 . S
H2238 C2268 0.950 . S
H2239 C2269 0.950 . S
C2240 H2222 0.951 . S
C2240 C2241 1.366 . S
C2240 C2242 1.388 . S
C2241 C2240 1.366 . S
C2241 C2245 1.385 . S
C2242 H2223 0.951 . S
C2242 C2240 1.388 . S
C2242 C2243 1.366 . S
C2243 C2242 1.366 . S
C2243 C2244 1.414 . S
C2243 C2246 1.499 . S
C2244 H2224 0.950 . S
C2244 C2243 1.414 . S
C2244 C2245 1.374 . S
C2245 H2225 0.950 . S
C2245 C2241 1.385 . S
C2245 C2244 1.374 . S
C2246 C2243 1.499 . S
C2246 C2247 1.373 . S
C2246 C2248 1.389 . S
C2247 H2226 0.950 . S
C2247 C2246 1.373 . S
C2247 C2263 1.377 . S
C2248 C2246 1.389 . S
C2248 C2249 1.524 . S
C2248 C2262 1.377 . S
C2249 C2248 1.524 . S
C2249 C2250 1.397 . S
C2249 C2254 1.363 . S
C2250 H2227 0.950 . S
C2250 C2249 1.397 . S
C2250 C2251 1.334 . S
C2251 H2228 0.950 . S
C2251 C2250 1.334 . S
C2251 C2252 1.287 . S
C2252 C2251 1.287 . S
C2252 C2253 1.524 . S
C2252 H2271 0.913 . S
C2253 H2229 0.950 . S
C2253 C2252 1.524 . S
C2253 C2254 1.415 . S
C2254 H2230 0.950 . S
C2254 C2249 1.363 . S
C2254 C2253 1.415 . S
C2255 H2231 0.951 . S
C2255 C2256 1.366 . S
C2255 C2257 1.388 . S
C2256 C2255 1.366 . S
C2256 C2260 1.385 . S
C2257 H2232 0.951 . S
C2257 C2255 1.388 . S
C2257 C2258 1.366 . S
C2258 C2257 1.366 . S
C2258 C2259 1.414 . S
C2258 C2261 1.499 . S
C2259 H2233 0.950 . S
C2259 C2258 1.414 . S
C2259 C2260 1.374 . S
C2260 H2234 0.950 . S
C2260 C2256 1.385 . S
C2260 C2259 1.374 . S
C2261 C2258 1.499 . S
C2261 C2262 1.373 . S
C2261 C2263 1.389 . S
C2262 H2235 0.950 . S
C2262 C2248 1.377 . S
C2262 C2261 1.373 . S
C2263 C2247 1.377 . S
C2263 C2261 1.389 . S
C2263 C2264 1.524 . S
C2264 C2263 1.524 . S
C2264 C2265 1.397 . S
C2264 C2269 1.363 . S
C2265 H2236 0.950 . S
C2265 C2264 1.397 . S
C2265 C2266 1.334 . S
C2266 H2237 0.950 . S
C2266 C2265 1.334 . S
C2266 C2267 1.287 . S
C2267 C2266 1.287 . S
C2267 C2268 1.524 . S
C2267 H2270 0.999 . S
C2268 H2238 0.950 . S
C2268 C2267 1.524 . S
C2268 C2269 1.415 . S
C2269 H2239 0.950 . S
C2269 C2264 1.363 . S
C2269 C2268 1.415 . S
H2270 C2267 0.999 . S
H2271 C2252 0.913 . S
H2272 C2290 0.951 . S
H2273 C2292 0.951 . S
H2274 C2294 0.950 . S
H2275 C2295 0.950 . S
H2276 C2297 0.950 . S
H2277 C2300 0.950 . S
H2278 C2301 0.950 . S
H2279 C2303 0.950 . S
H2280 C2304 0.950 . S
H2281 C2305 0.951 . S
H2282 C2307 0.951 . S
H2283 C2309 0.950 . S
H2284 C2310 0.950 . S
H2285 C2312 0.950 . S
H2286 C2315 0.950 . S
H2287 C2316 0.950 . S
H2288 C2318 0.950 . S
H2289 C2319 0.950 . S
C2290 H2272 0.951 . S
C2290 C2291 1.366 . S
C2290 C2292 1.388 . S
C2291 C2290 1.366 . S
C2291 C2295 1.385 . S
C2292 H2273 0.951 . S
C2292 C2290 1.388 . S
C2292 C2293 1.366 . S
C2293 C2292 1.366 . S
C2293 C2294 1.414 . S
C2293 C2296 1.499 . S
C2294 H2274 0.950 . S
C2294 C2293 1.414 . S
C2294 C2295 1.374 . S
C2295 H2275 0.950 . S
C2295 C2291 1.385 . S
C2295 C2294 1.374 . S
C2296 C2293 1.499 . S
C2296 C2297 1.373 . S
C2296 C2298 1.389 . S
C2297 H2276 0.950 . S
C2297 C2296 1.373 . S
C2297 C2313 1.377 . S
C2298 C2296 1.389 . S
C2298 C2299 1.524 . S
C2298 C2312 1.377 . S
C2299 C2298 1.524 . S
C2299 C2300 1.397 . S
C2299 C2304 1.363 . S
C2300 H2277 0.950 . S
C2300 C2299 1.397 . S
C2300 C2301 1.334 . S
C2301 H2278 0.950 . S
C2301 C2300 1.334 . S
C2301 C2302 1.287 . S
C2302 C2301 1.287 . S
C2302 C2303 1.524 . S
C2302 H2321 0.913 . S
C2303 H2279 0.950 . S
C2303 C2302 1.524 . S
C2303 C2304 1.415 . S
C2304 H2280 0.950 . S
C2304 C2299 1.363 . S
C2304 C2303 1.415 . S
C2305 H2281 0.951 . S
C2305 C2306 1.366 . S
C2305 C2307 1.388 . S
C2306 C2305 1.366 . S
C2306 C2310 1.385 . S
C2307 H2282 0.951 . S
C2307 C2305 1.388 . S
C2307 C2308 1.366 . S
C2308 C2307 1.366 . S
C2308 C2309 1.414 . S
C2308 C2311 1.499 . S
C2309 H2283 0.950 . S
C2309 C2308 1.414 . S
C2309 C2310 1.374 . S
C2310 H2284 0.950 . S
C2310 C2306 1.385 . S
C2310 C2309 1.374 . S
C2311 C2308 1.499 . S
C2311 C2312 1.373 . S
C2311 C2313 1.389 . S
C2312 H2285 0.950 . S
C2312 C2298 1.377 . S
C2312 C2311 1.373 . S
C2313 C2297 1.377 . S
C2313 C2311 1.389 . S
C2313 C2314 1.524 . S
C2314 C2313 1.524 . S
C2314 C2315 1.397 . S
C2314 C2319 1.363 . S
C2315 H2286 0.950 . S
C2315 C2314 1.397 . S
C2315 C2316 1.334 . S
C2316 H2287 0.950 . S
C2316 C2315 1.334 . S
C2316 C2317 1.287 . S
C2317 C2316 1.287 . S
C2317 C2318 1.524 . S
C2317 H2320 0.999 . S
C2318 H2288 0.950 . S
C2318 C2317 1.524 . S
C2318 C2319 1.415 . S
C2319 H2289 0.950 . S
C2319 C2314 1.363 . S
C2319 C2318 1.415 . S
H2320 C2317 0.999 . S
H2321 C2302 0.913 . S
H2322 C2340 0.951 . S
H2323 C2342 0.951 . S
H2324 C2344 0.950 . S
H2325 C2345 0.950 . S
H2326 C2347 0.950 . S
H2327 C2350 0.950 . S
H2328 C2351 0.950 . S
H2329 C2353 0.950 . S
H2330 C2354 0.950 . S
H2331 C2355 0.951 . S
H2332 C2357 0.951 . S
H2333 C2359 0.950 . S
H2334 C2360 0.950 1_545 S
H2335 C2362 0.950 . S
H2336 C2365 0.950 . S
H2337 C2366 0.950 . S
H2338 C2368 0.950 . S
H2339 C2369 0.950 . S
C2340 H2322 0.951 . S
C2340 C2341 1.366 . S
C2340 C2342 1.388 . S
C2341 C2340 1.366 . S
C2341 C2345 1.385 . S
C2342 H2323 0.951 . S
C2342 C2340 1.388 . S
C2342 C2343 1.366 . S
C2343 C2342 1.366 . S
C2343 C2344 1.414 . S
C2343 C2346 1.499 . S
C2344 H2324 0.950 . S
C2344 C2343 1.414 . S
C2344 C2345 1.374 . S
C2345 H2325 0.950 . S
C2345 C2341 1.385 . S
C2345 C2344 1.374 . S
C2346 C2343 1.499 . S
C2346 C2347 1.373 . S
C2346 C2348 1.389 . S
C2347 H2326 0.950 . S
C2347 C2346 1.373 . S
C2347 C2363 1.377 . S
C2348 C2346 1.389 . S
C2348 C2349 1.524 . S
C2348 C2362 1.377 . S
C2349 C2348 1.524 . S
C2349 C2350 1.397 . S
C2349 C2354 1.363 . S
C2350 H2327 0.950 . S
C2350 C2349 1.397 . S
C2350 C2351 1.334 . S
C2351 H2328 0.950 . S
C2351 C2350 1.334 . S
C2351 C2352 1.287 . S
C2352 C2351 1.287 . S
C2352 C2353 1.524 . S
C2352 H2371 0.913 . S
C2353 H2329 0.950 . S
C2353 C2352 1.524 . S
C2353 C2354 1.415 . S
C2354 H2330 0.950 . S
C2354 C2349 1.363 . S
C2354 C2353 1.415 . S
C2355 H2331 0.951 . S
C2355 C2356 1.366 . S
C2355 C2357 1.388 . S
C2356 C2355 1.366 . S
C2356 C2360 1.385 . S
C2357 H2332 0.951 . S
C2357 C2355 1.388 . S
C2357 C2358 1.366 . S
C2358 C2357 1.366 . S
C2358 C2359 1.414 . S
C2358 C2361 1.499 . S
C2359 H2333 0.950 . S
C2359 C2358 1.414 . S
C2359 C2360 1.374 . S
C2360 H2334 0.950 1_565 S
C2360 C2356 1.385 . S
C2360 C2359 1.374 . S
C2361 C2358 1.499 . S
C2361 C2362 1.373 . S
C2361 C2363 1.389 . S
C2362 H2335 0.950 . S
C2362 C2348 1.377 . S
C2362 C2361 1.373 . S
C2363 C2347 1.377 . S
C2363 C2361 1.389 . S
C2363 C2364 1.524 . S
C2364 C2363 1.524 . S
C2364 C2365 1.397 1_565 S
C2364 C2369 1.363 . S
C2365 H2336 0.950 . S
C2365 C2364 1.397 1_545 S
C2365 C2366 1.334 . S
C2366 H2337 0.950 . S
C2366 C2365 1.334 . S
C2366 C2367 1.287 . S
C2367 C2366 1.287 . S
C2367 C2368 1.524 1_545 S
C2367 H2370 0.999 . S
C2368 H2338 0.950 . S
C2368 C2367 1.524 1_565 S
C2368 C2369 1.415 . S
C2369 H2339 0.950 . S
C2369 C2364 1.363 . S
C2369 C2368 1.415 . S
H2370 C2367 0.999 . S
H2371 C2352 0.913 . S
H2372 C2390 0.951 . S
H2373 C2392 0.951 1_655 S
H2374 C2394 0.950 . S
H2375 C2395 0.950 . S
H2376 C2397 0.950 . S
H2377 C2400 0.950 . S
H2378 C2401 0.950 . S
H2379 C2403 0.950 . S
H2380 C2404 0.950 . S
H2381 C2405 0.951 . S
H2382 C2407 0.951 . S
H2383 C2409 0.950 1_655 S
H2384 C2410 0.950 1_655 S
H2385 C2412 0.960 . S
H2386 C2415 0.950 . S
H2387 C2416 0.950 . S
H2388 C2418 0.950 . S
H2389 C2419 0.950 . S
C2390 H2372 0.951 . S
C2390 C2391 1.366 . S
C2390 C2392 1.388 . S
C2391 C2390 1.366 . S
C2391 C2395 1.385 . S
C2392 H2373 0.951 1_455 S
C2392 C2390 1.388 . S
C2392 C2393 1.366 . S
C2393 C2392 1.366 . S
C2393 C2394 1.414 . S
C2393 C2396 1.499 . S
C2394 H2374 0.950 . S
C2394 C2393 1.414 . S
C2394 C2395 1.374 . S
C2395 H2375 0.950 . S
C2395 C2391 1.385 . S
C2395 C2394 1.374 . S
C2396 C2393 1.499 . S
C2396 C2397 1.373 . S
C2396 C2398 1.412 . S
C2397 H2376 0.950 . S
C2397 C2396 1.373 . S
C2397 C2413 1.377 . S
C2398 C2396 1.412 . S
C2398 C2399 1.502 1_455 S
C2398 C2412 1.378 1_455 S
C2399 C2398 1.502 1_655 S
C2399 C2400 1.397 . S
C2399 C2404 1.363 . S
C2400 H2377 0.950 . S
C2400 C2399 1.397 . S
C2400 C2401 1.334 . S
C2401 H2378 0.950 . S
C2401 C2400 1.334 . S
C2401 C2402 1.287 . S
C2402 C2401 1.287 . S
C2402 C2403 1.524 . S
C2402 H2421 0.913 . S
C2403 H2379 0.950 . S
C2403 C2402 1.524 . S
C2403 C2404 1.415 . S
C2404 H2380 0.950 . S
C2404 C2399 1.363 . S
C2404 C2403 1.415 . S
C2405 H2381 0.951 . S
C2405 C2406 1.366 . S
C2405 C2407 1.388 . S
C2406 C2405 1.366 . S
C2406 C2410 1.385 . S
C2407 H2382 0.951 . S
C2407 C2405 1.388 . S
C2407 C2408 1.366 . S
C2408 C2407 1.366 . S
C2408 C2409 1.414 . S
C2408 C2411 1.499 . S
C2409 H2383 0.950 1_455 S
C2409 C2408 1.414 . S
C2409 C2410 1.374 . S
C2410 H2384 0.950 1_455 S
C2410 C2406 1.385 . S
C2410 C2409 1.374 . S
C2411 C2408 1.499 . S
C2411 C2412 1.364 1_455 S
C2411 C2413 1.389 . S
C2412 H2385 0.960 . S
C2412 C2398 1.378 1_655 S
C2412 C2411 1.364 1_655 S
C2413 C2397 1.377 . S
C2413 C2411 1.389 . S
C2413 C2414 1.524 . S
C2414 C2413 1.524 . S
C2414 C2415 1.397 . S
C2414 C2419 1.363 . S
C2415 H2386 0.950 . S
C2415 C2414 1.397 . S
C2415 C2416 1.334 . S
C2416 H2387 0.950 . S
C2416 C2415 1.334 . S
C2416 C2417 1.287 . S
C2417 C2416 1.287 . S
C2417 C2418 1.524 . S
C2417 H2420 0.999 . S
C2418 H2388 0.950 . S
C2418 C2417 1.524 . S
C2418 C2419 1.415 . S
C2419 H2389 0.950 . S
C2419 C2414 1.363 . S
C2419 C2418 1.415 . S
H2420 C2417 0.999 . S
H2421 C2402 0.913 . S
H2422 C2440 0.951 . S
H2423 C2442 0.951 . S
H2424 C2444 0.950 . S
H2425 C2445 0.950 . S
H2426 C2447 0.950 . S
H2427 C2450 0.950 . S
H2428 C2451 0.950 . S
H2429 C2453 0.950 . S
H2430 C2454 0.950 . S
H2431 C2455 0.951 . S
H2432 C2457 0.951 . S
H2433 C2459 0.950 . S
H2434 C2460 0.950 . S
H2435 C2462 0.950 . S
H2436 C2465 0.950 . S
H2437 C2466 0.950 . S
H2438 C2468 0.950 . S
H2439 C2469 0.950 . S
C2440 H2422 0.951 . S
C2440 C2441 1.366 . S
C2440 C2442 1.388 . S
C2441 C2440 1.366 . S
C2441 C2445 1.385 . S
C2442 H2423 0.951 . S
C2442 C2440 1.388 . S
C2442 C2443 1.366 . S
C2443 C2442 1.366 . S
C2443 C2444 1.414 . S
C2443 C2446 1.499 . S
C2444 H2424 0.950 . S
C2444 C2443 1.414 . S
C2444 C2445 1.374 . S
C2445 H2425 0.950 . S
C2445 C2441 1.385 . S
C2445 C2444 1.374 . S
C2446 C2443 1.499 . S
C2446 C2447 1.373 . S
C2446 C2448 1.389 . S
C2447 H2426 0.950 . S
C2447 C2446 1.373 . S
C2447 C2463 1.377 . S
C2448 C2446 1.389 . S
C2448 C2449 1.524 . S
C2448 C2462 1.377 . S
C2449 C2448 1.524 . S
C2449 C2450 1.397 . S
C2449 C2454 1.363 . S
C2450 H2427 0.950 . S
C2450 C2449 1.397 . S
C2450 C2451 1.334 . S
C2451 H2428 0.950 . S
C2451 C2450 1.334 . S
C2451 C2452 1.287 . S
C2452 C2451 1.287 . S
C2452 C2453 1.524 . S
C2452 H2471 0.913 . S
C2453 H2429 0.950 . S
C2453 C2452 1.524 . S
C2453 C2454 1.415 . S
C2454 H2430 0.950 . S
C2454 C2449 1.363 . S
C2454 C2453 1.415 . S
C2455 H2431 0.951 . S
C2455 C2456 1.366 . S
C2455 C2457 1.388 . S
C2456 C2455 1.366 . S
C2456 C2460 1.385 . S
C2457 H2432 0.951 . S
C2457 C2455 1.388 . S
C2457 C2458 1.366 . S
C2458 C2457 1.366 . S
C2458 C2459 1.414 . S
C2458 C2461 1.499 . S
C2459 H2433 0.950 . S
C2459 C2458 1.414 . S
C2459 C2460 1.374 . S
C2460 H2434 0.950 . S
C2460 C2456 1.385 . S
C2460 C2459 1.374 . S
C2461 C2458 1.499 . S
C2461 C2462 1.373 . S
C2461 C2463 1.389 . S
C2462 H2435 0.950 . S
C2462 C2448 1.377 . S
C2462 C2461 1.373 . S
C2463 C2447 1.377 . S
C2463 C2461 1.389 . S
C2463 C2464 1.524 . S
C2464 C2463 1.524 . S
C2464 C2465 1.397 . S
C2464 C2469 1.363 . S
C2465 H2436 0.950 . S
C2465 C2464 1.397 . S
C2465 C2466 1.334 . S
C2466 H2437 0.950 . S
C2466 C2465 1.334 . S
C2466 C2467 1.287 . S
C2467 C2466 1.287 . S
C2467 C2468 1.524 . S
C2467 H2470 0.999 . S
C2468 H2438 0.950 . S
C2468 C2467 1.524 . S
C2468 C2469 1.415 . S
C2469 H2439 0.950 . S
C2469 C2464 1.363 . S
C2469 C2468 1.415 . S
H2470 C2467 0.999 . S
H2471 C2452 0.913 . S
H2472 C2490 0.951 . S
H2473 C2492 0.951 . S
H2474 C2494 0.950 . S
H2475 C2495 0.950 . S
H2476 C2497 0.950 . S
H2477 C2500 0.950 . S
H2478 C2501 0.950 . S
H2479 C2503 0.950 . S
H2480 C2504 0.950 1_655 S
H2481 C2505 0.951 . S
H2482 C2507 0.951 . S
H2483 C2509 0.950 . S
H2484 C2510 0.950 . S
H2485 C2512 0.950 1_455 S
H2486 C2515 0.950 . S
H2487 C2516 0.950 . S
H2488 C2518 0.950 . S
H2489 C2519 0.950 . S
C2490 H2472 0.951 . S
C2490 C2491 1.366 . S
C2490 C2492 1.388 . S
C2491 C2490 1.366 . S
C2491 C2495 1.385 . S
C2492 H2473 0.951 . S
C2492 C2490 1.388 . S
C2492 C2493 1.366 . S
C2493 C2492 1.366 . S
C2493 C2494 1.414 . S
C2493 C2496 1.499 . S
C2494 H2474 0.950 . S
C2494 C2493 1.414 . S
C2494 C2495 1.374 . S
C2495 H2475 0.950 . S
C2495 C2491 1.385 . S
C2495 C2494 1.374 . S
C2496 C2493 1.499 . S
C2496 C2497 1.373 . S
C2496 C2498 1.389 . S
C2497 H2476 0.950 . S
C2497 C2496 1.373 . S
C2497 C2513 1.377 . S
C2498 C2496 1.389 . S
C2498 C2499 1.524 1_655 S
C2498 C2512 1.377 . S
C2499 C2498 1.524 1_455 S
C2499 C2500 1.397 . S
C2499 C2504 1.363 . S
C2500 H2477 0.950 . S
C2500 C2499 1.397 . S
C2500 C2501 1.334 . S
C2501 H2478 0.950 . S
C2501 C2500 1.334 . S
C2501 C2502 1.287 . S
C2502 C2501 1.287 . S
C2502 C2503 1.524 . S
C2502 H2521 0.913 . S
C2503 H2479 0.950 . S
C2503 C2502 1.524 . S
C2503 C2504 1.415 . S
C2504 H2480 0.950 1_455 S
C2504 C2499 1.363 . S
C2504 C2503 1.415 . S
C2505 H2481 0.951 . S
C2505 C2506 1.366 . S
C2505 C2507 1.388 . S
C2506 C2505 1.366 . S
C2506 C2510 1.385 . S
C2507 H2482 0.951 . S
C2507 C2505 1.388 . S
C2507 C2508 1.366 . S
C2508 C2507 1.366 . S
C2508 C2509 1.414 . S
C2508 C2511 1.499 . S
C2509 H2483 0.950 . S
C2509 C2508 1.414 . S
C2509 C2510 1.374 . S
C2510 H2484 0.950 . S
C2510 C2506 1.385 . S
C2510 C2509 1.374 . S
C2511 C2508 1.499 . S
C2511 C2512 1.373 . S
C2511 C2513 1.389 . S
C2512 H2485 0.950 1_655 S
C2512 C2498 1.377 . S
C2512 C2511 1.373 . S
C2513 C2497 1.377 . S
C2513 C2511 1.389 . S
C2513 C2514 1.524 . S
C2514 C2513 1.524 . S
C2514 C2515 1.397 . S
C2514 C2519 1.363 . S
C2515 H2486 0.950 . S
C2515 C2514 1.397 . S
C2515 C2516 1.334 . S
C2516 H2487 0.950 . S
C2516 C2515 1.334 . S
C2516 C2517 1.287 . S
C2517 C2516 1.287 . S
C2517 C2518 1.524 . S
C2517 H2520 0.999 . S
C2518 H2488 0.950 . S
C2518 C2517 1.524 . S
C2518 C2519 1.415 . S
C2519 H2489 0.950 . S
C2519 C2514 1.363 . S
C2519 C2518 1.415 . S
H2520 C2517 0.999 . S
H2521 C2502 0.913 . S
H2522 C2540 0.951 . S
H2523 C2542 0.951 . S
H2524 C2544 0.950 . S
H2525 C2545 0.950 . S
H2526 C2547 0.950 . S
H2527 C2550 0.950 . S
H2528 C2551 0.950 . S
H2529 C2553 0.950 . S
H2530 C2554 0.950 . S
H2531 C2555 0.951 . S
H2532 C2557 0.951 . S
H2533 C2559 0.950 . S
H2534 C2560 0.950 . S
H2535 C2562 0.950 . S
H2536 C2565 0.950 . S
H2537 C2566 0.950 . S
H2538 C2568 0.950 . S
H2539 C2569 0.950 . S
C2540 H2522 0.951 . S
C2540 C2541 1.366 . S
C2540 C2542 1.388 . S
C2541 C2540 1.366 . S
C2541 C2545 1.385 . S
C2542 H2523 0.951 . S
C2542 C2540 1.388 . S
C2542 C2543 1.366 . S
C2543 C2542 1.366 . S
C2543 C2544 1.414 . S
C2543 C2546 1.499 . S
C2544 H2524 0.950 . S
C2544 C2543 1.414 . S
C2544 C2545 1.374 . S
C2545 H2525 0.950 . S
C2545 C2541 1.385 . S
C2545 C2544 1.374 . S
C2546 C2543 1.499 . S
C2546 C2547 1.373 . S
C2546 C2548 1.389 . S
C2547 H2526 0.950 . S
C2547 C2546 1.373 . S
C2547 C2563 1.377 . S
C2548 C2546 1.389 . S
C2548 C2549 1.524 . S
C2548 C2562 1.377 . S
C2549 C2548 1.524 . S
C2549 C2550 1.397 . S
C2549 C2554 1.363 . S
C2550 H2527 0.950 . S
C2550 C2549 1.397 . S
C2550 C2551 1.334 . S
C2551 H2528 0.950 . S
C2551 C2550 1.334 . S
C2551 C2552 1.287 . S
C2552 C2551 1.287 . S
C2552 C2553 1.524 . S
C2552 H2571 0.913 . S
C2553 H2529 0.950 . S
C2553 C2552 1.524 . S
C2553 C2554 1.415 . S
C2554 H2530 0.950 . S
C2554 C2549 1.363 . S
C2554 C2553 1.415 . S
C2555 H2531 0.951 . S
C2555 C2556 1.366 . S
C2555 C2557 1.388 . S
C2556 C2555 1.366 . S
C2556 C2560 1.385 . S
C2557 H2532 0.951 . S
C2557 C2555 1.388 . S
C2557 C2558 1.366 . S
C2558 C2557 1.366 . S
C2558 C2559 1.414 . S
C2558 C2561 1.499 . S
C2559 H2533 0.950 . S
C2559 C2558 1.414 . S
C2559 C2560 1.374 . S
C2560 H2534 0.950 . S
C2560 C2556 1.385 . S
C2560 C2559 1.374 . S
C2561 C2558 1.499 . S
C2561 C2562 1.373 . S
C2561 C2563 1.389 . S
C2562 H2535 0.950 . S
C2562 C2548 1.377 . S
C2562 C2561 1.373 . S
C2563 C2547 1.377 . S
C2563 C2561 1.389 . S
C2563 C2564 1.524 . S
C2564 C2563 1.524 . S
C2564 C2565 1.397 . S
C2564 C2569 1.363 . S
C2565 H2536 0.950 . S
C2565 C2564 1.397 . S
C2565 C2566 1.334 . S
C2566 H2537 0.950 . S
C2566 C2565 1.334 . S
C2566 C2567 1.287 . S
C2567 C2566 1.287 . S
C2567 C2568 1.524 . S
C2567 H2570 0.999 . S
C2568 H2538 0.950 . S
C2568 C2567 1.524 . S
C2568 C2569 1.415 . S
C2569 H2539 0.950 . S
C2569 C2564 1.363 . S
C2569 C2568 1.415 . S
H2570 C2567 0.999 . S
H2571 C2552 0.913 . S
H2572 C2590 0.951 . S
H2573 C2592 0.951 . S
H2574 C2594 0.950 . S
H2575 C2595 0.950 . S
H2576 C2597 0.950 . S
H2577 C2600 0.950 . S
H2578 C2601 0.950 . S
H2579 C2603 0.950 . S
H2580 C2604 0.950 . S
H2581 C2605 0.951 . S
H2582 C2607 0.951 . S
H2583 C2609 0.950 . S
H2584 C2610 0.950 . S
H2585 C2612 0.903 1_565 S
H2586 C2615 0.950 . S
H2587 C2616 0.950 . S
H2588 C2618 0.950 . S
H2589 C2619 0.950 . S
C2590 H2572 0.951 . S
C2590 C2591 1.366 . S
C2590 C2592 1.388 . S
C2591 C2590 1.366 . S
C2591 C2595 1.385 . S
C2592 H2573 0.951 . S
C2592 C2590 1.388 . S
C2592 C2593 1.366 . S
C2593 C2592 1.366 . S
C2593 C2594 1.414 . S
C2593 C2596 1.499 . S
C2594 H2574 0.950 . S
C2594 C2593 1.414 . S
C2594 C2595 1.374 . S
C2595 H2575 0.950 . S
C2595 C2591 1.385 . S
C2595 C2594 1.374 . S
C2596 C2593 1.499 . S
C2596 C2597 1.373 . S
C2596 C2598 1.389 . S
C2597 H2576 0.950 . S
C2597 C2596 1.373 . S
C2597 C2613 1.377 . S
C2598 C2596 1.389 . S
C2598 C2599 1.524 1_545 S
C2598 C2612 1.377 . S
C2599 C2598 1.524 1_565 S
C2599 C2600 1.397 . S
C2599 C2604 1.363 . S
C2600 H2577 0.950 . S
C2600 C2599 1.397 . S
C2600 C2601 1.334 . S
C2601 H2578 0.950 . S
C2601 C2600 1.334 . S
C2601 C2602 1.287 . S
C2602 C2601 1.287 . S
C2602 C2603 1.524 . S
C2602 H2621 0.913 . S
C2603 H2579 0.950 . S
C2603 C2602 1.524 . S
C2603 C2604 1.415 . S
C2604 H2580 0.950 . S
C2604 C2599 1.363 . S
C2604 C2603 1.415 . S
C2605 H2581 0.951 . S
C2605 C2606 1.366 . S
C2605 C2607 1.388 . S
C2606 C2605 1.366 . S
C2606 C2610 1.385 . S
C2607 H2582 0.951 . S
C2607 C2605 1.388 . S
C2607 C2608 1.366 . S
C2608 C2607 1.366 . S
C2608 C2609 1.414 . S
C2608 C2611 1.499 . S
C2609 H2583 0.950 . S
C2609 C2608 1.414 . S
C2609 C2610 1.374 . S
C2610 H2584 0.950 . S
C2610 C2606 1.385 . S
C2610 C2609 1.374 . S
C2611 C2608 1.499 . S
C2611 C2612 1.373 . S
C2611 C2613 1.389 . S
C2612 H2585 0.903 1_545 S
C2612 C2598 1.377 . S
C2612 C2611 1.373 . S
C2613 C2597 1.377 . S
C2613 C2611 1.389 . S
C2613 C2614 1.524 . S
C2614 C2613 1.524 . S
C2614 C2615 1.397 . S
C2614 C2619 1.363 . S
C2615 H2586 0.950 . S
C2615 C2614 1.397 . S
C2615 C2616 1.334 . S
C2616 H2587 0.950 . S
C2616 C2615 1.334 . S
C2616 C2617 1.287 . S
C2617 C2616 1.287 . S
C2617 C2618 1.524 . S
C2617 H2620 0.999 . S
C2618 H2588 0.950 . S
C2618 C2617 1.524 . S
C2618 C2619 1.415 . S
C2619 H2589 0.950 . S
C2619 C2614 1.363 . S
C2619 C2618 1.415 . S
H2620 C2617 0.999 . S
H2621 C2602 0.913 . S
H2622 C2640 0.951 . S
H2623 C2642 0.951 . S
H2624 C2644 0.950 . S
H2625 C2645 0.950 . S
H2626 C2647 0.950 . S
H2627 C2650 0.950 . S
H2628 C2651 0.950 . S
H2629 C2653 0.950 . S
H2630 C2654 0.950 . S
H2631 C2655 0.951 . S
H2632 C2657 0.951 . S
H2633 C2659 0.950 . S
H2634 C2660 0.950 . S
H2635 C2662 0.950 . S
H2636 C2665 0.950 . S
H2637 C2666 0.950 . S
H2638 C2668 0.950 . S
H2639 C2669 0.950 . S
C2640 H2622 0.951 . S
C2640 C2641 1.366 . S
C2640 C2642 1.388 . S
C2641 C2640 1.366 . S
C2641 C2645 1.385 . S
C2642 H2623 0.951 . S
C2642 C2640 1.388 . S
C2642 C2643 1.366 . S
C2643 C2642 1.366 . S
C2643 C2644 1.414 . S
C2643 C2646 1.499 . S
C2644 H2624 0.950 . S
C2644 C2643 1.414 . S
C2644 C2645 1.374 . S
C2645 H2625 0.950 . S
C2645 C2641 1.385 . S
C2645 C2644 1.374 . S
C2646 C2643 1.499 . S
C2646 C2647 1.373 . S
C2646 C2648 1.389 . S
C2647 H2626 0.950 . S
C2647 C2646 1.373 . S
C2647 C2663 1.377 . S
C2648 C2646 1.389 . S
C2648 C2649 1.524 . S
C2648 C2662 1.377 . S
C2649 C2648 1.524 . S
C2649 C2650 1.397 . S
C2649 C2654 1.363 . S
C2650 H2627 0.950 . S
C2650 C2649 1.397 . S
C2650 C2651 1.334 . S
C2651 H2628 0.950 . S
C2651 C2650 1.334 . S
C2651 C2652 1.287 . S
C2652 C2651 1.287 . S
C2652 C2653 1.524 . S
C2652 H2671 0.913 . S
C2653 H2629 0.950 . S
C2653 C2652 1.524 . S
C2653 C2654 1.415 . S
C2654 H2630 0.950 . S
C2654 C2649 1.363 . S
C2654 C2653 1.415 . S
C2655 H2631 0.951 . S
C2655 C2656 1.366 . S
C2655 C2657 1.388 . S
C2656 C2655 1.366 . S
C2656 C2660 1.385 . S
C2657 H2632 0.951 . S
C2657 C2655 1.388 . S
C2657 C2658 1.366 . S
C2658 C2657 1.366 . S
C2658 C2659 1.414 . S
C2658 C2661 1.499 . S
C2659 H2633 0.950 . S
C2659 C2658 1.414 . S
C2659 C2660 1.374 . S
C2660 H2634 0.950 . S
C2660 C2656 1.385 . S
C2660 C2659 1.374 . S
C2661 C2658 1.499 . S
C2661 C2662 1.373 . S
C2661 C2663 1.389 . S
C2662 H2635 0.950 . S
C2662 C2648 1.377 . S
C2662 C2661 1.373 . S
C2663 C2647 1.377 . S
C2663 C2661 1.389 . S
C2663 C2664 1.524 . S
C2664 C2663 1.524 . S
C2664 C2665 1.397 . S
C2664 C2669 1.363 . S
C2665 H2636 0.950 . S
C2665 C2664 1.397 . S
C2665 C2666 1.334 . S
C2666 H2637 0.950 . S
C2666 C2665 1.334 . S
C2666 C2667 1.287 . S
C2667 C2666 1.287 . S
C2667 C2668 1.524 . S
C2667 H2670 0.999 . S
C2668 H2638 0.950 . S
C2668 C2667 1.524 . S
C2668 C2669 1.415 . S
C2669 H2639 0.950 . S
C2669 C2664 1.363 . S
C2669 C2668 1.415 . S
H2670 C2667 0.999 . S
H2671 C2652 0.913 . S
H2672 C2690 0.951 . S
H2673 C2692 0.951 . S
H2674 C2694 0.950 . S
H2675 C2695 0.950 . S
H2676 C2697 0.950 . S
H2677 C2700 0.950 . S
H2678 C2701 0.950 . S
H2679 C2703 0.950 . S
H2680 C2704 0.950 . S
H2681 C2705 0.951 . S
H2682 C2707 0.951 . S
H2683 C2709 0.950 . S
H2684 C2710 0.950 . S
H2685 C2712 0.950 . S
H2686 C2715 0.950 . S
H2687 C2716 0.950 . S
H2688 C2718 0.950 . S
H2689 C2719 0.950 . S
C2690 H2672 0.951 . S
C2690 C2691 1.366 . S
C2690 C2692 1.388 . S
C2691 C2690 1.366 . S
C2691 C2695 1.385 . S
C2692 H2673 0.951 . S
C2692 C2690 1.388 . S
C2692 C2693 1.366 . S
C2693 C2692 1.366 . S
C2693 C2694 1.414 . S
C2693 C2696 1.499 . S
C2694 H2674 0.950 . S
C2694 C2693 1.414 . S
C2694 C2695 1.374 . S
C2695 H2675 0.950 . S
C2695 C2691 1.385 . S
C2695 C2694 1.374 . S
C2696 C2693 1.499 . S
C2696 C2697 1.373 . S
C2696 C2698 1.389 . S
C2697 H2676 0.950 . S
C2697 C2696 1.373 . S
C2697 C2713 1.377 . S
C2698 C2696 1.389 . S
C2698 C2699 1.524 . S
C2698 C2712 1.377 . S
C2699 C2698 1.524 . S
C2699 C2700 1.397 . S
C2699 C2704 1.363 . S
C2700 H2677 0.950 . S
C2700 C2699 1.397 . S
C2700 C2701 1.334 . S
C2701 H2678 0.950 . S
C2701 C2700 1.334 . S
C2701 C2702 1.287 . S
C2702 C2701 1.287 . S
C2702 C2703 1.524 . S
C2702 H2721 0.913 . S
C2703 H2679 0.950 . S
C2703 C2702 1.524 . S
C2703 C2704 1.415 . S
C2704 H2680 0.950 . S
C2704 C2699 1.363 . S
C2704 C2703 1.415 . S
C2705 H2681 0.951 . S
C2705 C2706 1.366 . S
C2705 C2707 1.388 . S
C2706 C2705 1.366 . S
C2706 C2710 1.385 . S
C2707 H2682 0.951 . S
C2707 C2705 1.388 . S
C2707 C2708 1.366 . S
C2708 C2707 1.366 . S
C2708 C2709 1.414 . S
C2708 C2711 1.499 . S
C2709 H2683 0.950 . S
C2709 C2708 1.414 . S
C2709 C2710 1.374 . S
C2710 H2684 0.950 . S
C2710 C2706 1.385 . S
C2710 C2709 1.374 . S
C2711 C2708 1.499 . S
C2711 C2712 1.373 . S
C2711 C2713 1.389 . S
C2712 H2685 0.950 . S
C2712 C2698 1.377 . S
C2712 C2711 1.373 . S
C2713 C2697 1.377 . S
C2713 C2711 1.389 . S
C2713 C2714 1.524 . S
C2714 C2713 1.524 . S
C2714 C2715 1.397 . S
C2714 C2719 1.363 . S
C2715 H2686 0.950 . S
C2715 C2714 1.397 . S
C2715 C2716 1.334 . S
C2716 H2687 0.950 . S
C2716 C2715 1.334 . S
C2716 C2717 1.287 . S
C2717 C2716 1.287 . S
C2717 C2718 1.524 . S
C2717 H2720 0.999 . S
C2718 H2688 0.950 . S
C2718 C2717 1.524 . S
C2718 C2719 1.415 . S
C2719 H2689 0.950 . S
C2719 C2714 1.363 . S
C2719 C2718 1.415 . S
H2720 C2717 0.999 . S
H2721 C2702 0.913 . S
H2722 C2740 0.951 . S
H2723 C2742 0.951 . S
H2724 C2744 0.950 . S
H2725 C2745 0.950 . S
H2726 C2747 0.950 . S
H2727 C2750 0.950 . S
H2728 C2751 0.950 . S
H2729 C2753 0.950 . S
H2730 C2754 0.950 . S
H2731 C2755 0.951 . S
H2732 C2757 0.951 . S
H2733 C2759 0.950 . S
H2734 C2760 0.950 . S
H2735 C2762 0.950 . S
H2736 C2765 0.950 . S
H2737 C2766 0.950 . S
H2738 C2768 0.950 . S
H2739 C2769 0.950 . S
C2740 H2722 0.951 . S
C2740 C2741 1.366 . S
C2740 C2742 1.388 . S
C2741 C2740 1.366 . S
C2741 C2745 1.385 . S
C2742 H2723 0.951 . S
C2742 C2740 1.388 . S
C2742 C2743 1.366 . S
C2743 C2742 1.366 . S
C2743 C2744 1.414 . S
C2743 C2746 1.499 . S
C2744 H2724 0.950 . S
C2744 C2743 1.414 . S
C2744 C2745 1.374 . S
C2745 H2725 0.950 . S
C2745 C2741 1.385 . S
C2745 C2744 1.374 . S
C2746 C2743 1.499 . S
C2746 C2747 1.373 . S
C2746 C2748 1.389 . S
C2747 H2726 0.950 . S
C2747 C2746 1.373 . S
C2747 C2763 1.377 . S
C2748 C2746 1.389 . S
C2748 C2749 1.524 . S
C2748 C2762 1.377 . S
C2749 C2748 1.524 . S
C2749 C2750 1.397 . S
C2749 C2754 1.363 . S
C2750 H2727 0.950 . S
C2750 C2749 1.397 . S
C2750 C2751 1.334 . S
C2751 H2728 0.950 . S
C2751 C2750 1.334 . S
C2751 C2752 1.287 . S
C2752 C2751 1.287 . S
C2752 C2753 1.524 . S
C2752 H2771 0.913 . S
C2753 H2729 0.950 . S
C2753 C2752 1.524 . S
C2753 C2754 1.415 . S
C2754 H2730 0.950 . S
C2754 C2749 1.363 . S
C2754 C2753 1.415 . S
C2755 H2731 0.951 . S
C2755 C2756 1.366 . S
C2755 C2757 1.388 . S
C2756 C2755 1.366 . S
C2756 C2760 1.385 . S
C2757 H2732 0.951 . S
C2757 C2755 1.388 . S
C2757 C2758 1.366 . S
C2758 C2757 1.366 . S
C2758 C2759 1.414 . S
C2758 C2761 1.499 . S
C2759 H2733 0.950 . S
C2759 C2758 1.414 . S
C2759 C2760 1.374 . S
C2760 H2734 0.950 . S
C2760 C2756 1.385 . S
C2760 C2759 1.374 . S
C2761 C2758 1.499 . S
C2761 C2762 1.373 . S
C2761 C2763 1.389 . S
C2762 H2735 0.950 . S
C2762 C2748 1.377 . S
C2762 C2761 1.373 . S
C2763 C2747 1.377 . S
C2763 C2761 1.389 . S
C2763 C2764 1.524 . S
C2764 C2763 1.524 . S
C2764 C2765 1.397 . S
C2764 C2769 1.363 . S
C2765 H2736 0.950 . S
C2765 C2764 1.397 . S
C2765 C2766 1.334 . S
C2766 H2737 0.950 . S
C2766 C2765 1.334 . S
C2766 C2767 1.287 . S
C2767 C2766 1.287 . S
C2767 C2768 1.524 . S
C2767 H2770 0.999 . S
C2768 H2738 0.950 . S
C2768 C2767 1.524 . S
C2768 C2769 1.415 . S
C2769 H2739 0.950 . S
C2769 C2764 1.363 . S
C2769 C2768 1.415 . S
H2770 C2767 0.999 . S
H2771 C2752 0.913 . S
H2772 C2790 0.951 . S
H2773 C2792 0.951 . S
H2774 C2794 0.950 . S
H2775 C2795 0.950 . S
H2776 C2797 0.950 . S
H2777 C2800 0.950 . S
H2778 C2801 0.950 . S
H2779 C2803 0.950 . S
H2780 C2804 0.950 . S
H2781 C2805 0.951 . S
H2782 C2807 0.951 . S
H2783 C2809 0.950 . S
H2784 C2810 0.950 . S
H2785 C2812 0.950 . S
H2786 C2815 0.950 . S
H2787 C2816 0.950 . S
H2788 C2818 0.950 . S
H2789 C2819 0.950 . S
C2790 H2772 0.951 . S
C2790 C2791 1.366 . S
C2790 C2792 1.388 . S
C2791 C2790 1.366 . S
C2791 C2795 1.385 . S
C2792 H2773 0.951 . S
C2792 C2790 1.388 . S
C2792 C2793 1.366 . S
C2793 C2792 1.366 . S
C2793 C2794 1.414 . S
C2793 C2796 1.499 . S
C2794 H2774 0.950 . S
C2794 C2793 1.414 . S
C2794 C2795 1.374 . S
C2795 H2775 0.950 . S
C2795 C2791 1.385 . S
C2795 C2794 1.374 . S
C2796 C2793 1.499 . S
C2796 C2797 1.373 . S
C2796 C2798 1.389 . S
C2797 H2776 0.950 . S
C2797 C2796 1.373 . S
C2797 C2813 1.377 . S
C2798 C2796 1.389 . S
C2798 C2799 1.524 . S
C2798 C2812 1.377 . S
C2799 C2798 1.524 . S
C2799 C2800 1.397 . S
C2799 C2804 1.363 . S
C2800 H2777 0.950 . S
C2800 C2799 1.397 . S
C2800 C2801 1.334 . S
C2801 H2778 0.950 . S
C2801 C2800 1.334 . S
C2801 C2802 1.287 . S
C2802 C2801 1.287 . S
C2802 C2803 1.524 . S
C2802 H2821 0.913 . S
C2803 H2779 0.950 . S
C2803 C2802 1.524 . S
C2803 C2804 1.415 . S
C2804 H2780 0.950 . S
C2804 C2799 1.363 . S
C2804 C2803 1.415 . S
C2805 H2781 0.951 . S
C2805 C2806 1.366 . S
C2805 C2807 1.388 . S
C2806 C2805 1.366 . S
C2806 C2810 1.385 . S
C2807 H2782 0.951 . S
C2807 C2805 1.388 . S
C2807 C2808 1.366 . S
C2808 C2807 1.366 . S
C2808 C2809 1.414 . S
C2808 C2811 1.499 . S
C2809 H2783 0.950 . S
C2809 C2808 1.414 . S
C2809 C2810 1.374 . S
C2810 H2784 0.950 . S
C2810 C2806 1.385 . S
C2810 C2809 1.374 . S
C2811 C2808 1.499 . S
C2811 C2812 1.373 . S
C2811 C2813 1.389 . S
C2812 H2785 0.950 . S
C2812 C2798 1.377 . S
C2812 C2811 1.373 . S
C2813 C2797 1.377 . S
C2813 C2811 1.389 . S
C2813 C2814 1.524 . S
C2814 C2813 1.524 . S
C2814 C2815 1.397 . S
C2814 C2819 1.363 . S
C2815 H2786 0.950 . S
C2815 C2814 1.397 . S
C2815 C2816 1.334 . S
C2816 H2787 0.950 . S
C2816 C2815 1.334 . S
C2816 C2817 1.287 . S
C2817 C2816 1.287 . S
C2817 C2818 1.524 . S
C2817 H2820 0.999 . S
C2818 H2788 0.950 . S
C2818 C2817 1.524 . S
C2818 C2819 1.415 . S
C2819 H2789 0.950 . S
C2819 C2814 1.363 . S
C2819 C2818 1.415 . S
H2820 C2817 0.999 . S
H2821 C2802 0.913 . S
H2822 C2840 0.951 . S
H2823 C2842 0.951 . S
H2824 C2844 0.950 . S
H2825 C2845 0.950 . S
H2826 C2847 0.950 . S
H2827 C2850 0.950 . S
H2828 C2851 0.950 . S
H2829 C2853 0.950 . S
H2830 C2854 0.950 . S
H2831 C2855 0.951 . S
H2832 C2857 0.951 . S
H2833 C2859 0.950 . S
H2834 C2860 0.950 . S
H2835 C2862 0.950 . S
H2836 C2865 0.950 . S
H2837 C2866 0.950 . S
H2838 C2868 0.950 . S
H2839 C2869 0.950 . S
C2840 H2822 0.951 . S
C2840 C2841 1.366 . S
C2840 C2842 1.388 . S
C2841 C2840 1.366 . S
C2841 C2845 1.385 . S
C2842 H2823 0.951 . S
C2842 C2840 1.388 . S
C2842 C2843 1.366 . S
C2843 C2842 1.366 . S
C2843 C2844 1.414 . S
C2843 C2846 1.499 . S
C2844 H2824 0.950 . S
C2844 C2843 1.414 . S
C2844 C2845 1.374 . S
C2845 H2825 0.950 . S
C2845 C2841 1.385 . S
C2845 C2844 1.374 . S
C2846 C2843 1.499 . S
C2846 C2847 1.373 . S
C2846 C2848 1.389 . S
C2847 H2826 0.950 . S
C2847 C2846 1.373 . S
C2847 C2863 1.377 . S
C2848 C2846 1.389 . S
C2848 C2849 1.524 . S
C2848 C2862 1.377 . S
C2849 C2848 1.524 . S
C2849 C2850 1.397 . S
C2849 C2854 1.363 . S
C2850 H2827 0.950 . S
C2850 C2849 1.397 . S
C2850 C2851 1.334 . S
C2851 H2828 0.950 . S
C2851 C2850 1.334 . S
C2851 C2852 1.287 . S
C2852 C2851 1.287 . S
C2852 C2853 1.524 . S
C2852 H2871 0.913 . S
C2853 H2829 0.950 . S
C2853 C2852 1.524 . S
C2853 C2854 1.415 . S
C2854 H2830 0.950 . S
C2854 C2849 1.363 . S
C2854 C2853 1.415 . S
C2855 H2831 0.951 . S
C2855 C2856 1.366 . S
C2855 C2857 1.388 . S
C2856 C2855 1.366 . S
C2856 C2860 1.385 . S
C2857 H2832 0.951 . S
C2857 C2855 1.388 . S
C2857 C2858 1.366 . S
C2858 C2857 1.366 . S
C2858 C2859 1.414 . S
C2858 C2861 1.499 . S
C2859 H2833 0.950 . S
C2859 C2858 1.414 . S
C2859 C2860 1.374 . S
C2860 H2834 0.950 . S
C2860 C2856 1.385 . S
C2860 C2859 1.374 . S
C2861 C2858 1.499 . S
C2861 C2862 1.373 . S
C2861 C2863 1.389 . S
C2862 H2835 0.950 . S
C2862 C2848 1.377 . S
C2862 C2861 1.373 . S
C2863 C2847 1.377 . S
C2863 C2861 1.389 . S
C2863 C2864 1.524 . S
C2864 C2863 1.524 . S
C2864 C2865 1.397 . S
C2864 C2869 1.363 . S
C2865 H2836 0.950 . S
C2865 C2864 1.397 . S
C2865 C2866 1.334 . S
C2866 H2837 0.950 . S
C2866 C2865 1.334 . S
C2866 C2867 1.287 . S
C2867 C2866 1.287 . S
C2867 C2868 1.524 . S
C2867 H2870 0.999 . S
C2868 H2838 0.950 . S
C2868 C2867 1.524 . S
C2868 C2869 1.415 . S
C2869 H2839 0.950 . S
C2869 C2864 1.363 . S
C2869 C2868 1.415 . S
H2870 C2867 0.999 . S
H2871 C2852 0.913 . S
H2872 C2890 0.951 . S
H2873 C2892 0.951 . S
H2874 C2894 0.950 . S
H2875 C2895 0.950 . S
H2876 C2897 0.950 . S
H2877 C2900 0.950 . S
H2878 C2901 0.950 . S
H2879 C2903 0.950 . S
H2880 C2904 0.950 . S
H2881 C2905 0.951 . S
H2882 C2907 0.951 . S
H2883 C2909 0.950 . S
H2884 C2910 0.950 . S
H2885 C2912 0.950 . S
H2886 C2915 0.950 . S
H2887 C2916 0.950 . S
H2888 C2918 0.950 . S
H2889 C2919 0.950 . S
C2890 H2872 0.951 . S
C2890 C2891 1.366 . S
C2890 C2892 1.388 . S
C2891 C2890 1.366 . S
C2891 C2895 1.385 . S
C2892 H2873 0.951 . S
C2892 C2890 1.388 . S
C2892 C2893 1.366 . S
C2893 C2892 1.366 . S
C2893 C2894 1.414 . S
C2893 C2896 1.499 . S
C2894 H2874 0.950 . S
C2894 C2893 1.414 . S
C2894 C2895 1.374 . S
C2895 H2875 0.950 . S
C2895 C2891 1.385 . S
C2895 C2894 1.374 . S
C2896 C2893 1.499 . S
C2896 C2897 1.373 . S
C2896 C2898 1.389 . S
C2897 H2876 0.950 . S
C2897 C2896 1.373 . S
C2897 C2913 1.377 . S
C2898 C2896 1.389 . S
C2898 C2899 1.524 . S
C2898 C2912 1.377 . S
C2899 C2898 1.524 . S
C2899 C2900 1.397 . S
C2899 C2904 1.363 . S
C2900 H2877 0.950 . S
C2900 C2899 1.397 . S
C2900 C2901 1.334 . S
C2901 H2878 0.950 . S
C2901 C2900 1.334 . S
C2901 C2902 1.287 . S
C2902 C2901 1.287 . S
C2902 C2903 1.524 . S
C2902 H2921 0.913 . S
C2903 H2879 0.950 . S
C2903 C2902 1.524 . S
C2903 C2904 1.415 . S
C2904 H2880 0.950 . S
C2904 C2899 1.363 . S
C2904 C2903 1.415 . S
C2905 H2881 0.951 . S
C2905 C2906 1.366 . S
C2905 C2907 1.388 . S
C2906 C2905 1.366 . S
C2906 C2910 1.385 . S
C2907 H2882 0.951 . S
C2907 C2905 1.388 . S
C2907 C2908 1.366 . S
C2908 C2907 1.366 . S
C2908 C2909 1.414 . S
C2908 C2911 1.499 . S
C2909 H2883 0.950 . S
C2909 C2908 1.414 . S
C2909 C2910 1.374 . S
C2910 H2884 0.950 . S
C2910 C2906 1.385 . S
C2910 C2909 1.374 . S
C2911 C2908 1.499 . S
C2911 C2912 1.373 . S
C2911 C2913 1.389 . S
C2912 H2885 0.950 . S
C2912 C2898 1.377 . S
C2912 C2911 1.373 . S
C2913 C2897 1.377 . S
C2913 C2911 1.389 . S
C2913 C2914 1.524 . S
C2914 C2913 1.524 . S
C2914 C2915 1.397 . S
C2914 C2919 1.363 . S
C2915 H2886 0.950 . S
C2915 C2914 1.397 . S
C2915 C2916 1.334 . S
C2916 H2887 0.950 . S
C2916 C2915 1.334 . S
C2916 C2917 1.287 . S
C2917 C2916 1.287 . S
C2917 C2918 1.524 . S
C2917 H2920 0.999 . S
C2918 H2888 0.950 . S
C2918 C2917 1.524 . S
C2918 C2919 1.415 . S
C2919 H2889 0.950 . S
C2919 C2914 1.363 . S
C2919 C2918 1.415 . S
H2920 C2917 0.999 . S
H2921 C2902 0.913 . S
H2922 C2940 0.951 . S
H2923 C2942 0.951 . S
H2924 C2944 0.950 . S
H2925 C2945 0.950 . S
H2926 C2947 0.950 . S
H2927 C2950 0.950 . S
H2928 C2951 0.950 . S
H2929 C2953 0.950 . S
H2930 C2954 0.950 . S
H2931 C2955 0.951 . S
H2932 C2957 0.951 . S
H2933 C2959 0.950 . S
H2934 C2960 0.950 . S
H2935 C2962 0.950 . S
H2936 C2965 0.950 . S
H2937 C2966 0.950 . S
H2938 C2968 0.950 . S
H2939 C2969 0.950 . S
C2940 H2922 0.951 . S
C2940 C2941 1.366 . S
C2940 C2942 1.388 . S
C2941 C2940 1.366 . S
C2941 C2945 1.385 . S
C2942 H2923 0.951 . S
C2942 C2940 1.388 . S
C2942 C2943 1.366 . S
C2943 C2942 1.366 . S
C2943 C2944 1.414 . S
C2943 C2946 1.499 . S
C2944 H2924 0.950 . S
C2944 C2943 1.414 . S
C2944 C2945 1.374 . S
C2945 H2925 0.950 . S
C2945 C2941 1.385 . S
C2945 C2944 1.374 . S
C2946 C2943 1.499 . S
C2946 C2947 1.373 . S
C2946 C2948 1.389 . S
C2947 H2926 0.950 . S
C2947 C2946 1.373 . S
C2947 C2963 1.377 . S
C2948 C2946 1.389 . S
C2948 C2949 1.524 . S
C2948 C2962 1.377 . S
C2949 C2948 1.524 . S
C2949 C2950 1.397 . S
C2949 C2954 1.363 . S
C2950 H2927 0.950 . S
C2950 C2949 1.397 . S
C2950 C2951 1.334 . S
C2951 H2928 0.950 . S
C2951 C2950 1.334 . S
C2951 C2952 1.287 . S
C2952 C2951 1.287 . S
C2952 C2953 1.524 . S
C2952 H2971 0.913 . S
C2953 H2929 0.950 . S
C2953 C2952 1.524 . S
C2953 C2954 1.415 . S
C2954 H2930 0.950 . S
C2954 C2949 1.363 . S
C2954 C2953 1.415 . S
C2955 H2931 0.951 . S
C2955 C2956 1.366 . S
C2955 C2957 1.388 . S
C2956 C2955 1.366 . S
C2956 C2960 1.385 . S
C2957 H2932 0.951 . S
C2957 C2955 1.388 . S
C2957 C2958 1.366 . S
C2958 C2957 1.366 . S
C2958 C2959 1.414 . S
C2958 C2961 1.499 . S
C2959 H2933 0.950 . S
C2959 C2958 1.414 . S
C2959 C2960 1.374 . S
C2960 H2934 0.950 . S
C2960 C2956 1.385 . S
C2960 C2959 1.374 . S
C2961 C2958 1.499 . S
C2961 C2962 1.373 . S
C2961 C2963 1.389 . S
C2962 H2935 0.950 . S
C2962 C2948 1.377 . S
C2962 C2961 1.373 . S
C2963 C2947 1.377 . S
C2963 C2961 1.389 . S
C2963 C2964 1.524 . S
C2964 C2963 1.524 . S
C2964 C2965 1.397 . S
C2964 C2969 1.363 . S
C2965 H2936 0.950 . S
C2965 C2964 1.397 . S
C2965 C2966 1.334 . S
C2966 H2937 0.950 . S
C2966 C2965 1.334 . S
C2966 C2967 1.287 . S
C2967 C2966 1.287 . S
C2967 C2968 1.524 . S
C2967 H2970 0.999 . S
C2968 H2938 0.950 . S
C2968 C2967 1.524 . S
C2968 C2969 1.415 . S
C2969 H2939 0.950 . S
C2969 C2964 1.363 . S
C2969 C2968 1.415 . S
H2970 C2967 0.999 . S
H2971 C2952 0.913 . S
H2972 C2990 0.951 . S
H2973 C2992 0.951 . S
H2974 C2994 0.950 . S
H2975 C2995 0.950 . S
H2976 C2997 0.950 . S
H2977 C3000 0.950 . S
H2978 C3001 0.950 . S
H2979 C3003 0.950 . S
H2980 C3004 0.950 . S
H2981 C3005 0.951 . S
H2982 C3007 0.951 . S
H2983 C3009 0.950 . S
H2984 C3010 0.950 . S
H2985 C3012 0.950 . S
H2986 C3015 0.950 . S
H2987 C3016 0.950 . S
H2988 C3018 0.950 . S
H2989 C3019 0.950 . S
C2990 H2972 0.951 . S
C2990 C2991 1.366 . S
C2990 C2992 1.388 . S
C2991 C2990 1.366 . S
C2991 C2995 1.385 . S
C2992 H2973 0.951 . S
C2992 C2990 1.388 . S
C2992 C2993 1.366 . S
C2993 C2992 1.366 . S
C2993 C2994 1.414 . S
C2993 C2996 1.499 . S
C2994 H2974 0.950 . S
C2994 C2993 1.414 . S
C2994 C2995 1.374 . S
C2995 H2975 0.950 . S
C2995 C2991 1.385 . S
C2995 C2994 1.374 . S
C2996 C2993 1.499 . S
C2996 C2997 1.373 . S
C2996 C2998 1.389 . S
C2997 H2976 0.950 . S
C2997 C2996 1.373 . S
C2997 C3013 1.377 . S
C2998 C2996 1.389 . S
C2998 C2999 1.524 . S
C2998 C3012 1.377 . S
C2999 C2998 1.524 . S
C2999 C3000 1.397 . S
C2999 C3004 1.363 . S
C3000 H2977 0.950 . S
C3000 C2999 1.397 . S
C3000 C3001 1.334 . S
C3001 H2978 0.950 . S
C3001 C3000 1.334 . S
C3001 C3002 1.287 . S
C3002 C3001 1.287 . S
C3002 C3003 1.524 . S
C3002 H3021 0.913 . S
C3003 H2979 0.950 . S
C3003 C3002 1.524 . S
C3003 C3004 1.415 . S
C3004 H2980 0.950 . S
C3004 C2999 1.363 . S
C3004 C3003 1.415 . S
C3005 H2981 0.951 . S
C3005 C3006 1.366 . S
C3005 C3007 1.388 . S
C3006 C3005 1.366 . S
C3006 C3010 1.385 . S
C3007 H2982 0.951 . S
C3007 C3005 1.388 . S
C3007 C3008 1.366 . S
C3008 C3007 1.366 . S
C3008 C3009 1.414 . S
C3008 C3011 1.499 . S
C3009 H2983 0.950 . S
C3009 C3008 1.414 . S
C3009 C3010 1.374 . S
C3010 H2984 0.950 . S
C3010 C3006 1.385 . S
C3010 C3009 1.374 . S
C3011 C3008 1.499 . S
C3011 C3012 1.373 . S
C3011 C3013 1.389 . S
C3012 H2985 0.950 . S
C3012 C2998 1.377 . S
C3012 C3011 1.373 . S
C3013 C2997 1.377 . S
C3013 C3011 1.389 . S
C3013 C3014 1.524 . S
C3014 C3013 1.524 . S
C3014 C3015 1.397 . S
C3014 C3019 1.363 . S
C3015 H2986 0.950 . S
C3015 C3014 1.397 . S
C3015 C3016 1.334 . S
C3016 H2987 0.950 . S
C3016 C3015 1.334 . S
C3016 C3017 1.287 . S
C3017 C3016 1.287 . S
C3017 C3018 1.524 . S
C3017 H3020 0.999 . S
C3018 H2988 0.950 . S
C3018 C3017 1.524 . S
C3018 C3019 1.415 . S
C3019 H2989 0.950 . S
C3019 C3014 1.363 . S
C3019 C3018 1.415 . S
H3020 C3017 0.999 . S
H3021 C3002 0.913 . S
H3022 C3040 0.951 . S
H3023 C3042 0.951 . S
H3024 C3044 0.950 . S
H3025 C3045 0.950 . S
H3026 C3047 0.950 . S
H3027 C3050 0.950 . S
H3028 C3051 0.950 . S
H3029 C3053 0.950 . S
H3030 C3054 0.950 . S
H3031 C3055 0.951 . S
H3032 C3057 0.951 . S
H3033 C3059 0.950 . S
H3034 C3060 0.950 . S
H3035 C3062 0.950 . S
H3036 C3065 0.950 . S
H3037 C3066 0.950 . S
H3038 C3068 0.950 . S
H3039 C3069 0.950 . S
C3040 H3022 0.951 . S
C3040 C3041 1.366 . S
C3040 C3042 1.388 . S
C3041 C3040 1.366 . S
C3041 C3045 1.385 . S
C3042 H3023 0.951 . S
C3042 C3040 1.388 . S
C3042 C3043 1.366 . S
C3043 C3042 1.366 . S
C3043 C3044 1.414 . S
C3043 C3046 1.499 . S
C3044 H3024 0.950 . S
C3044 C3043 1.414 . S
C3044 C3045 1.374 . S
C3045 H3025 0.950 . S
C3045 C3041 1.385 . S
C3045 C3044 1.374 . S
C3046 C3043 1.499 . S
C3046 C3047 1.373 . S
C3046 C3048 1.389 . S
C3047 H3026 0.950 . S
C3047 C3046 1.373 . S
C3047 C3063 1.377 . S
C3048 C3046 1.389 . S
C3048 C3049 1.524 . S
C3048 C3062 1.377 . S
C3049 C3048 1.524 . S
C3049 C3050 1.397 . S
C3049 C3054 1.363 . S
C3050 H3027 0.950 . S
C3050 C3049 1.397 . S
C3050 C3051 1.334 . S
C3051 H3028 0.950 . S
C3051 C3050 1.334 . S
C3051 C3052 1.287 . S
C3052 C3051 1.287 . S
C3052 C3053 1.524 . S
C3052 H3071 0.913 . S
C3053 H3029 0.950 . S
C3053 C3052 1.524 . S
C3053 C3054 1.415 . S
C3054 H3030 0.950 . S
C3054 C3049 1.363 . S
C3054 C3053 1.415 . S
C3055 H3031 0.951 . S
C3055 C3056 1.366 . S
C3055 C3057 1.388 . S
C3056 C3055 1.366 . S
C3056 C3060 1.385 . S
C3057 H3032 0.951 . S
C3057 C3055 1.388 . S
C3057 C3058 1.366 . S
C3058 C3057 1.366 . S
C3058 C3059 1.414 . S
C3058 C3061 1.499 . S
C3059 H3033 0.950 . S
C3059 C3058 1.414 . S
C3059 C3060 1.374 . S
C3060 H3034 0.950 . S
C3060 C3056 1.385 . S
C3060 C3059 1.374 . S
C3061 C3058 1.499 . S
C3061 C3062 1.373 . S
C3061 C3063 1.389 . S
C3062 H3035 0.950 . S
C3062 C3048 1.377 . S
C3062 C3061 1.373 . S
C3063 C3047 1.377 . S
C3063 C3061 1.389 . S
C3063 C3064 1.524 . S
C3064 C3063 1.524 . S
C3064 C3065 1.397 . S
C3064 C3069 1.363 . S
C3065 H3036 0.950 . S
C3065 C3064 1.397 . S
C3065 C3066 1.334 . S
C3066 H3037 0.950 . S
C3066 C3065 1.334 . S
C3066 C3067 1.287 . S
C3067 C3066 1.287 . S
C3067 C3068 1.524 . S
C3067 H3070 0.999 . S
C3068 H3038 0.950 . S
C3068 C3067 1.524 . S
C3068 C3069 1.415 . S
C3069 H3039 0.950 . S
C3069 C3064 1.363 . S
C3069 C3068 1.415 . S
H3070 C3067 0.999 . S
H3071 C3052 0.913 . S
H3072 C3090 0.951 . S
H3073 C3092 0.951 . S
H3074 C3094 0.950 . S
H3075 C3095 0.950 . S
H3076 C3097 0.950 . S
H3077 C3100 0.950 . S
H3078 C3101 0.950 . S
H3079 C3103 0.950 . S
H3080 C3104 0.950 . S
H3081 C3105 0.951 . S
H3082 C3107 0.951 . S
H3083 C3109 0.950 . S
H3084 C3110 0.950 . S
H3085 C3112 0.950 . S
H3086 C3115 0.950 . S
H3087 C3116 0.950 . S
H3088 C3118 0.950 . S
H3089 C3119 0.950 . S
C3090 H3072 0.951 . S
C3090 C3091 1.366 . S
C3090 C3092 1.388 . S
C3091 C3090 1.366 . S
C3091 C3095 1.385 . S
C3092 H3073 0.951 . S
C3092 C3090 1.388 . S
C3092 C3093 1.366 . S
C3093 C3092 1.366 . S
C3093 C3094 1.414 . S
C3093 C3096 1.499 . S
C3094 H3074 0.950 . S
C3094 C3093 1.414 . S
C3094 C3095 1.374 . S
C3095 H3075 0.950 . S
C3095 C3091 1.385 . S
C3095 C3094 1.374 . S
C3096 C3093 1.499 . S
C3096 C3097 1.373 . S
C3096 C3098 1.389 . S
C3097 H3076 0.950 . S
C3097 C3096 1.373 . S
C3097 C3113 1.377 . S
C3098 C3096 1.389 . S
C3098 C3099 1.524 . S
C3098 C3112 1.377 . S
C3099 C3098 1.524 . S
C3099 C3100 1.397 . S
C3099 C3104 1.363 . S
C3100 H3077 0.950 . S
C3100 C3099 1.397 . S
C3100 C3101 1.334 . S
C3101 H3078 0.950 . S
C3101 C3100 1.334 . S
C3101 C3102 1.287 . S
C3102 C3101 1.287 . S
C3102 C3103 1.524 . S
C3102 H3121 0.913 . S
C3103 H3079 0.950 . S
C3103 C3102 1.524 . S
C3103 C3104 1.415 . S
C3104 H3080 0.950 . S
C3104 C3099 1.363 . S
C3104 C3103 1.415 . S
C3105 H3081 0.951 . S
C3105 C3106 1.366 . S
C3105 C3107 1.388 . S
C3106 C3105 1.366 . S
C3106 C3110 1.385 . S
C3107 H3082 0.951 . S
C3107 C3105 1.388 . S
C3107 C3108 1.366 . S
C3108 C3107 1.366 . S
C3108 C3109 1.414 . S
C3108 C3111 1.499 . S
C3109 H3083 0.950 . S
C3109 C3108 1.414 . S
C3109 C3110 1.374 . S
C3110 H3084 0.950 . S
C3110 C3106 1.385 . S
C3110 C3109 1.374 . S
C3111 C3108 1.499 . S
C3111 C3112 1.373 . S
C3111 C3113 1.389 . S
C3112 H3085 0.950 . S
C3112 C3098 1.377 . S
C3112 C3111 1.373 . S
C3113 C3097 1.377 . S
C3113 C3111 1.389 . S
C3113 C3114 1.524 . S
C3114 C3113 1.524 . S
C3114 C3115 1.397 . S
C3114 C3119 1.363 . S
C3115 H3086 0.950 . S
C3115 C3114 1.397 . S
C3115 C3116 1.334 . S
C3116 H3087 0.950 . S
C3116 C3115 1.334 . S
C3116 C3117 1.287 . S
C3117 C3116 1.287 . S
C3117 C3118 1.524 . S
C3117 H3120 0.999 . S
C3118 H3088 0.950 . S
C3118 C3117 1.524 . S
C3118 C3119 1.415 . S
C3119 H3089 0.950 . S
C3119 C3114 1.363 . S
C3119 C3118 1.415 . S
H3120 C3117 0.999 . S
H3121 C3102 0.913 . S
H3122 C3140 0.951 . S
H3123 C3142 0.951 . S
H3124 C3144 0.950 . S
H3125 C3145 0.950 . S
H3126 C3147 0.950 . S
H3127 C3150 0.950 . S
H3128 C3151 0.950 . S
H3129 C3153 0.950 . S
H3130 C3154 0.950 . S
H3131 C3155 0.951 . S
H3132 C3157 0.951 . S
H3133 C3159 0.950 . S
H3134 C3160 0.950 . S
H3135 C3162 0.950 . S
H3136 C3165 0.950 . S
H3137 C3166 0.950 . S
H3138 C3168 0.950 . S
H3139 C3169 0.950 . S
C3140 H3122 0.951 . S
C3140 C3141 1.366 . S
C3140 C3142 1.388 . S
C3141 C3140 1.366 . S
C3141 C3145 1.385 . S
C3142 H3123 0.951 . S
C3142 C3140 1.388 . S
C3142 C3143 1.366 . S
C3143 C3142 1.366 . S
C3143 C3144 1.414 . S
C3143 C3146 1.499 . S
C3144 H3124 0.950 . S
C3144 C3143 1.414 . S
C3144 C3145 1.374 . S
C3145 H3125 0.950 . S
C3145 C3141 1.385 . S
C3145 C3144 1.374 . S
C3146 C3143 1.499 . S
C3146 C3147 1.373 . S
C3146 C3148 1.389 . S
C3147 H3126 0.950 . S
C3147 C3146 1.373 . S
C3147 C3163 1.377 . S
C3148 C3146 1.389 . S
C3148 C3149 1.524 . S
C3148 C3162 1.377 . S
C3149 C3148 1.524 . S
C3149 C3150 1.397 . S
C3149 C3154 1.363 . S
C3150 H3127 0.950 . S
C3150 C3149 1.397 . S
C3150 C3151 1.334 . S
C3151 H3128 0.950 . S
C3151 C3150 1.334 . S
C3151 C3152 1.287 . S
C3152 C3151 1.287 . S
C3152 C3153 1.524 . S
C3152 H3171 0.913 . S
C3153 H3129 0.950 . S
C3153 C3152 1.524 . S
C3153 C3154 1.415 . S
C3154 H3130 0.950 . S
C3154 C3149 1.363 . S
C3154 C3153 1.415 . S
C3155 H3131 0.951 . S
C3155 C3156 1.366 . S
C3155 C3157 1.388 . S
C3156 C3155 1.366 . S
C3156 C3160 1.385 . S
C3157 H3132 0.951 . S
C3157 C3155 1.388 . S
C3157 C3158 1.366 . S
C3158 C3157 1.366 . S
C3158 C3159 1.414 . S
C3158 C3161 1.499 . S
C3159 H3133 0.950 . S
C3159 C3158 1.414 . S
C3159 C3160 1.374 . S
C3160 H3134 0.950 . S
C3160 C3156 1.385 . S
C3160 C3159 1.374 . S
C3161 C3158 1.499 . S
C3161 C3162 1.373 . S
C3161 C3163 1.389 . S
C3162 H3135 0.950 . S
C3162 C3148 1.377 . S
C3162 C3161 1.373 . S
C3163 C3147 1.377 . S
C3163 C3161 1.389 . S
C3163 C3164 1.524 . S
C3164 C3163 1.524 . S
C3164 C3165 1.397 . S
C3164 C3169 1.363 . S
C3165 H3136 0.950 . S
C3165 C3164 1.397 . S
C3165 C3166 1.334 . S
C3166 H3137 0.950 . S
C3166 C3165 1.334 . S
C3166 C3167 1.287 . S
C3167 C3166 1.287 . S
C3167 C3168 1.524 . S
C3167 H3170 0.999 . S
C3168 H3138 0.950 . S
C3168 C3167 1.524 . S
C3168 C3169 1.415 . S
C3169 H3139 0.950 . S
C3169 C3164 1.363 . S
C3169 C3168 1.415 . S
H3170 C3167 0.999 . S
H3171 C3152 0.913 . S
H3172 C3190 0.951 . S
H3173 C3192 0.951 . S
H3174 C3194 0.950 . S
H3175 C3195 0.950 . S
H3176 C3197 0.950 . S
H3177 C3200 0.950 . S
H3178 C3201 0.950 . S
H3179 C3203 0.950 . S
H3180 C3204 0.950 . S
H3181 C3205 0.951 . S
H3182 C3207 0.951 . S
H3183 C3209 0.950 . S
H3184 C3210 0.950 . S
H3185 C3212 0.950 . S
H3186 C3215 0.950 . S
H3187 C3216 0.950 . S
H3188 C3218 0.950 . S
H3189 C3219 0.950 . S
C3190 H3172 0.951 . S
C3190 C3191 1.366 . S
C3190 C3192 1.388 . S
C3191 C3190 1.366 . S
C3191 C3195 1.385 . S
C3192 H3173 0.951 . S
C3192 C3190 1.388 . S
C3192 C3193 1.366 . S
C3193 C3192 1.366 . S
C3193 C3194 1.414 . S
C3193 C3196 1.499 . S
C3194 H3174 0.950 . S
C3194 C3193 1.414 . S
C3194 C3195 1.374 . S
C3195 H3175 0.950 . S
C3195 C3191 1.385 . S
C3195 C3194 1.374 . S
C3196 C3193 1.499 . S
C3196 C3197 1.373 . S
C3196 C3198 1.389 . S
C3197 H3176 0.950 . S
C3197 C3196 1.373 . S
C3197 C3213 1.377 . S
C3198 C3196 1.389 . S
C3198 C3199 1.524 . S
C3198 C3212 1.377 . S
C3199 C3198 1.524 . S
C3199 C3200 1.397 . S
C3199 C3204 1.363 . S
C3200 H3177 0.950 . S
C3200 C3199 1.397 . S
C3200 C3201 1.334 . S
C3201 H3178 0.950 . S
C3201 C3200 1.334 . S
C3201 C3202 1.287 . S
C3202 C3201 1.287 . S
C3202 C3203 1.524 . S
C3202 H3221 0.913 . S
C3203 H3179 0.950 . S
C3203 C3202 1.524 . S
C3203 C3204 1.415 . S
C3204 H3180 0.950 . S
C3204 C3199 1.363 . S
C3204 C3203 1.415 . S
C3205 H3181 0.951 . S
C3205 C3206 1.366 . S
C3205 C3207 1.388 . S
C3206 C3205 1.366 . S
C3206 C3210 1.385 . S
C3207 H3182 0.951 . S
C3207 C3205 1.388 . S
C3207 C3208 1.366 . S
C3208 C3207 1.366 . S
C3208 C3209 1.414 . S
C3208 C3211 1.499 . S
C3209 H3183 0.950 . S
C3209 C3208 1.414 . S
C3209 C3210 1.374 . S
C3210 H3184 0.950 . S
C3210 C3206 1.385 . S
C3210 C3209 1.374 . S
C3211 C3208 1.499 . S
C3211 C3212 1.373 . S
C3211 C3213 1.389 . S
C3212 H3185 0.950 . S
C3212 C3198 1.377 . S
C3212 C3211 1.373 . S
C3213 C3197 1.377 . S
C3213 C3211 1.389 . S
C3213 C3214 1.524 . S
C3214 C3213 1.524 . S
C3214 C3215 1.397 . S
C3214 C3219 1.363 . S
C3215 H3186 0.950 . S
C3215 C3214 1.397 . S
C3215 C3216 1.334 . S
C3216 H3187 0.950 . S
C3216 C3215 1.334 . S
C3216 C3217 1.287 . S
C3217 C3216 1.287 . S
C3217 C3218 1.524 . S
C3217 H3220 0.999 . S
C3218 H3188 0.950 . S
C3218 C3217 1.524 . S
C3218 C3219 1.415 . S
C3219 H3189 0.950 . S
C3219 C3214 1.363 . S
C3219 C3218 1.415 . S
H3220 C3217 0.999 . S
H3221 C3202 0.913 . S
C541 C124 1.555 . S
C556 C165 1.564 . S
C591 C130 1.769 . S
C606 C205 1.772 . S
C641 C115 1.572 . S
C656 C257 1.574 . S
C691 C106 1.460 . S
C706 C217 1.453 . S
C756 C245 1.434 . S
C741 C85 1.427 . S
C791 C97 1.241 . S
C806 C177 1.241 1_556 S
C856 C184 1.592 . S
C841 C103 1.581 . S
C906 C224 1.746 . S
C891 C88 1.741 . S
C941 C94 1.572 . S
C956 C244 1.572 . S
C991 C121 1.460 . S
C1006 C204 1.452 . S
C1041 C133 1.399 . S
C1056 C264 1.405 . S
C1106 C164 1.274 . S
C1091 C112 1.267 . S
C1156 C285 1.564 . S
C1141 C16 1.555 . S
C1191 C22 1.769 . S
C1206 C325 1.772 . S
C1241 C7 1.572 . S
C1256 C377 1.574 . S
C1291 C160 1.460 . S
C1306 C337 1.452 . S
C1341 C139 1.427 . S
C1356 C365 1.434 . S
C1391 C151 1.241 . S
C1406 C297 1.248 . S
C1441 C157 1.581 . S
C1456 C304 1.592 . S
C1491 C142 1.741 . S
C1506 C344 1.746 . S
C1556 C364 1.572 . S
C1541 C148 1.572 . S
C1591 C13 1.459 . S
C1606 C324 1.451 . S
C1656 C384 1.406 . S
C1641 C25 1.400 . S
C1691 C4 1.267 . S
C1706 C284 1.274 . S
C1756 C405 1.564 . S
C1741 C70 1.555 . S
C1791 C76 1.769 . S
C1806 C445 1.772 . S
C1856 C497 1.574 . S
C1841 C61 1.572 . S
C1906 C457 1.453 . S
C1891 C52 1.460 . S
C1956 C485 1.434 . S
C1941 C31 1.427 . S
C1991 C43 1.241 . S
C2006 C417 1.248 . S
C2041 C49 1.581 . S
C2056 C424 1.592 . S
C2091 C34 1.741 . S
C2106 C464 1.746 . S
C2156 C484 1.572 . S
C2141 C40 1.573 . S
C2191 C67 1.459 . S
C2206 C444 1.450 . S
C2241 C79 1.399 . S
C2256 C504 1.405 . S
C2291 C58 1.267 . S
C2306 C404 1.274 . S
C2341 C140 1.318 . S
C2356 C188 1.310 . S
C2406 C228 1.775 . S
C2391 C149 1.784 . S
C2441 C158 1.549 . S
C2456 C251 1.548 . S
C2491 C59 1.808 . S
C2506 C211 1.798 . S
C2541 C68 1.525 . S
C2556 C268 1.524 . S
C2606 C171 1.308 . S
C2591 C77 1.317 . S
C2641 C32 1.318 . S
C2656 C308 1.309 . S
C2691 C41 1.784 . S
C2706 C348 1.775 . S
C2741 C50 1.549 . S
C2756 C371 1.548 . S
C2791 C113 1.808 . S
C2806 C331 1.798 . S
C2856 C388 1.524 . S
C2841 C122 1.525 . S
C2891 C131 1.317 . S
C2906 C291 1.308 . S
C2941 C86 1.318 . S
C2956 C428 1.309 . S
C2991 C95 1.784 . S
C3006 C468 1.775 . S
C3056 C491 1.548 . S
C3041 C104 1.549 . S
C3091 C5 1.808 . S
C3106 C451 1.798 . S
C3141 C14 1.525 . S
C3156 C508 1.524 . S
C3191 C23 1.317 . S
C3206 C411 1.308 . S
