# Generated by pormake.
# Topology pto, (3,4)-cn, num edge types: 1
# Building blocks:
#     Node 0, Type 0, BuildingBlock: BELTOD_clean_linker_0, # of connection points: 3
#     Node 1, Type 0, BuildingBlock: BELTOD_clean_linker_0, # of connection points: 3
#     Node 2, Type 0, BuildingBlock: BELTOD_clean_linker_0, # of connection points: 3
#     Node 3, Type 0, BuildingBlock: BELTOD_clean_linker_0, # of connection points: 3
#     Node 4, Type 0, BuildingBlock: BELTOD_clean_linker_0, # of connection points: 3
#     Node 5, Type 0, BuildingBlock: BELTOD_clean_linker_0, # of connection points: 3
#     Node 6, Type 0, BuildingBlock: BELTOD_clean_linker_0, # of connection points: 3
#     Node 7, Type 0, BuildingBlock: BELTOD_clean_linker_0, # of connection points: 3
#     Node 8, Type 1, BuildingBlock: NAWXER_clean_sbu_0, # of connection points: 4
#     Node 9, Type 1, BuildingBlock: NAWXER_clean_sbu_0, # of connection points: 4
#     Node 10, Type 1, BuildingBlock: NAWXER_clean_sbu_0, # of connection points: 4
#     Node 11, Type 1, BuildingBlock: NAWXER_clean_sbu_0, # of connection points: 4
#     Node 12, Type 1, BuildingBlock: NAWXER_clean_sbu_0, # of connection points: 4
#     Node 13, Type 1, BuildingBlock: NAWXER_clean_sbu_0, # of connection points: 4
#     Edge 14, Type (0, 1), BuildingBlock: XUDNAN_clean_linker_2, # of connection points: 2
#     Edge 15, Type (0, 1), BuildingBlock: XUDNAN_clean_linker_2, # of connection points: 2
#     Edge 16, Type (0, 1), BuildingBlock: XUDNAN_clean_linker_2, # of connection points: 2
#     Edge 17, Type (0, 1), BuildingBlock: XUDNAN_clean_linker_2, # of connection points: 2
#     Edge 18, Type (0, 1), BuildingBlock: XUDNAN_clean_linker_2, # of connection points: 2
#     Edge 19, Type (0, 1), BuildingBlock: XUDNAN_clean_linker_2, # of connection points: 2
#     Edge 20, Type (0, 1), BuildingBlock: XUDNAN_clean_linker_2, # of connection points: 2
#     Edge 21, Type (0, 1), BuildingBlock: XUDNAN_clean_linker_2, # of connection points: 2
#     Edge 22, Type (0, 1), BuildingBlock: XUDNAN_clean_linker_2, # of connection points: 2
#     Edge 23, Type (0, 1), BuildingBlock: XUDNAN_clean_linker_2, # of connection points: 2
#     Edge 24, Type (0, 1), BuildingBlock: XUDNAN_clean_linker_2, # of connection points: 2
#     Edge 25, Type (0, 1), BuildingBlock: XUDNAN_clean_linker_2, # of connection points: 2
#     Edge 26, Type (0, 1), BuildingBlock: XUDNAN_clean_linker_2, # of connection points: 2
#     Edge 27, Type (0, 1), BuildingBlock: XUDNAN_clean_linker_2, # of connection points: 2
#     Edge 28, Type (0, 1), BuildingBlock: XUDNAN_clean_linker_2, # of connection points: 2
#     Edge 29, Type (0, 1), BuildingBlock: XUDNAN_clean_linker_2, # of connection points: 2
#     Edge 30, Type (0, 1), BuildingBlock: XUDNAN_clean_linker_2, # of connection points: 2
#     Edge 31, Type (0, 1), BuildingBlock: XUDNAN_clean_linker_2, # of connection points: 2
#     Edge 32, Type (0, 1), BuildingBlock: XUDNAN_clean_linker_2, # of connection points: 2
#     Edge 33, Type (0, 1), BuildingBlock: XUDNAN_clean_linker_2, # of connection points: 2
#     Edge 34, Type (0, 1), BuildingBlock: XUDNAN_clean_linker_2, # of connection points: 2
#     Edge 35, Type (0, 1), BuildingBlock: XUDNAN_clean_linker_2, # of connection points: 2
#     Edge 36, Type (0, 1), BuildingBlock: XUDNAN_clean_linker_2, # of connection points: 2
#     Edge 37, Type (0, 1), BuildingBlock: XUDNAN_clean_linker_2, # of connection points: 2
# Relax obj value: 0.000
# Max RMSD: 0.008
# Mean RMSD: 0.005
data_MOF--net-pto--node1-NAWXER_clean_sbu_0--node2-BELTOD_clean_linker_0--edge1-XUDNAN_clean_linker_2
_symmetry_space_group_name_H-M    P1
_symmetry_Int_Tables_number       1
_symmetry_cell_setting            triclinic
loop_
_symmetry_equiv_pos_as_xyz
'x, y, z'
_cell_length_a     49.618045
_cell_length_b     46.76412
_cell_length_c     43.632832
_cell_angle_alpha  89.174624
_cell_angle_beta   91.52616
_cell_angle_gamma 92.005805
loop_
_atom_site_label
_atom_site_type_symbol
_atom_site_fract_x
_atom_site_fract_y
_atom_site_fract_z
_atom_type_partial_charge
P0 P 0.25191 0.29002 0.25341 0.0
H1 H 0.27375 0.32623 0.20463 0.0
H2 H 0.30198 0.31615 0.16128 0.0
H3 H 0.2933 0.22558 0.18172 0.0
H4 H 0.26406 0.23574 0.22363 0.0
H5 H 0.22368 0.32233 0.29744 0.0
H6 H 0.18289 0.34996 0.29449 0.0
H7 H 0.17407 0.33224 0.19779 0.0
H8 H 0.21522 0.30431 0.20096 0.0
H9 H 0.28618 0.24934 0.28496 0.0
H10 H 0.20088 0.25963 0.26929 0.0
O11 O 0.27505 0.30902 0.27365 0.0
H12 H 0.27686 0.20529 0.3139 0.0
H13 H 0.19121 0.21663 0.2998 0.0
C14 C 0.26702 0.28184 0.21761 0.0
C15 C 0.27738 0.30418 0.19921 0.0
C16 C 0.29379 0.29836 0.17465 0.0
C17 C 0.30045 0.27005 0.16832 0.0
C18 C 0.28859 0.24763 0.18572 0.0
C19 C 0.27195 0.25348 0.21003 0.0
C20 C 0.22258 0.31153 0.24942 0.0
C21 C 0.21311 0.32454 0.27553 0.0
C22 C 0.1897 0.34017 0.27385 0.0
C23 C 0.1752 0.34312 0.24593 0.0
C24 C 0.18495 0.33044 0.21955 0.0
C25 C 0.2084 0.31448 0.22135 0.0
C26 C 0.24427 0.25792 0.27529 0.0
C27 C 0.2654 0.24228 0.28815 0.0
C28 C 0.25999 0.21715 0.3049 0.0
C29 C 0.23323 0.20735 0.30954 0.0
C30 C 0.21208 0.22319 0.29645 0.0
C31 C 0.21757 0.24807 0.27923 0.0
P32 P 0.24391 0.74309 0.75695 0.0
H33 H 0.1919 0.72954 0.72794 0.0
H34 H 0.15323 0.69983 0.74344 0.0
H35 H 0.1914 0.68642 0.83243 0.0
H36 H 0.22948 0.71743 0.81724 0.0
H37 H 0.26843 0.76496 0.70098 0.0
H38 H 0.25829 0.80489 0.66642 0.0
H39 H 0.19252 0.82697 0.7236 0.0
H40 H 0.20267 0.7866 0.75795 0.0
H41 H 0.27679 0.71183 0.80131 0.0
H42 H 0.26543 0.80012 0.77576 0.0
O43 O 0.25869 0.71857 0.73634 0.0
H44 H 0.3134 0.72642 0.8366 0.0
H45 H 0.30323 0.81476 0.80925 0.0
C46 C 0.21358 0.72597 0.77142 0.0
C47 C 0.19166 0.72089 0.7511 0.0
C48 C 0.16967 0.70354 0.75989 0.0
C49 C 0.16935 0.69029 0.78904 0.0
C50 C 0.19086 0.69638 0.80988 0.0
C51 C 0.21282 0.71404 0.8011 0.0
C52 C 0.23586 0.77243 0.73154 0.0
C53 C 0.2517 0.77826 0.70595 0.0
C54 C 0.24604 0.80127 0.68637 0.0
C55 C 0.22452 0.81905 0.69219 0.0
C56 C 0.20895 0.8134 0.71822 0.0
C57 C 0.21472 0.79037 0.73787 0.0
C58 C 0.26822 0.75479 0.78599 0.0
C59 C 0.28201 0.73441 0.80351 0.0
C60 C 0.30329 0.74281 0.82335 0.0
C61 C 0.31174 0.77181 0.82548 0.0
C62 C 0.29725 0.79229 0.80852 0.0
C63 C 0.27561 0.78387 0.7891 0.0
P64 P 0.79369 0.80048 0.20937 0.0
H65 H 0.81948 0.80293 0.27092 0.0
H66 H 0.80415 0.82096 0.31986 0.0
H67 H 0.7269 0.83889 0.27717 0.0
H68 H 0.74214 0.82103 0.22892 0.0
H69 H 0.8382 0.78944 0.17 0.0
H70 H 0.86799 0.74938 0.16592 0.0
H71 H 0.82996 0.70786 0.24345 0.0
H72 H 0.80021 0.74846 0.24756 0.0
H73 H 0.77234 0.82101 0.14987 0.0
H74 H 0.75232 0.75557 0.21688 0.0
O75 O 0.80827 0.82995 0.19431 0.0
H76 H 0.73179 0.80767 0.11965 0.0
H77 H 0.71128 0.74268 0.18746 0.0
C78 C 0.78172 0.80976 0.24647 0.0
C79 C 0.79905 0.81014 0.27237 0.0
C80 C 0.79033 0.82064 0.30023 0.0
C81 C 0.76418 0.83108 0.3025 0.0
C82 C 0.74688 0.83036 0.27649 0.0
C83 C 0.75565 0.82008 0.24876 0.0
C84 C 0.81745 0.77224 0.20953 0.0
C85 C 0.83655 0.77197 0.18648 0.0
C86 C 0.85339 0.74887 0.18395 0.0
C87 C 0.85129 0.72536 0.20428 0.0
C88 C 0.83228 0.7258 0.22766 0.0
C89 C 0.8153 0.74897 0.23006 0.0
C90 C 0.76523 0.78926 0.18559 0.0
C91 C 0.75924 0.8037 0.15803 0.0
C92 C 0.7359 0.79621 0.14091 0.0
C93 C 0.71814 0.77421 0.15118 0.0
C94 C 0.72463 0.75946 0.1786 0.0
C95 C 0.74804 0.76684 0.19553 0.0
P96 P 0.77787 0.2142 0.81054 0.0
H97 H 0.74615 0.18889 0.8601 0.0
H98 H 0.70692 0.20482 0.88697 0.0
H99 H 0.70594 0.28098 0.82957 0.0
H100 H 0.74574 0.26538 0.80375 0.0
H101 H 0.8018 0.16877 0.77657 0.0
H102 H 0.78653 0.14115 0.73192 0.0
H103 H 0.71491 0.19107 0.72417 0.0
H104 H 0.73011 0.21822 0.76916 0.0
H105 H 0.82313 0.24144 0.84428 0.0
H106 H 0.78109 0.25351 0.7576 0.0
O107 O 0.79452 0.19168 0.83355 0.0
H108 H 0.85404 0.28165 0.83233 0.0
H109 H 0.81128 0.29434 0.74583 0.0
C110 C 0.74921 0.22629 0.83046 0.0
C111 C 0.73763 0.20916 0.85355 0.0
C112 C 0.71499 0.21815 0.86865 0.0
C113 C 0.70331 0.24428 0.86058 0.0
C114 C 0.71473 0.26105 0.83688 0.0
C115 C 0.7375 0.25214 0.82202 0.0
C116 C 0.76688 0.19515 0.77659 0.0
C117 C 0.78281 0.17375 0.76527 0.0
C118 C 0.77412 0.15811 0.73958 0.0
C119 C 0.74938 0.16377 0.72454 0.0
C120 C 0.7338 0.1858 0.73554 0.0
C121 C 0.74255 0.20143 0.76125 0.0
C122 C 0.80029 0.24406 0.80148 0.0
C123 C 0.82057 0.25277 0.82265 0.0
C124 C 0.83805 0.276 0.81592 0.0
C125 C 0.83534 0.29117 0.78799 0.0
C126 C 0.81437 0.2828 0.76725 0.0
C127 C 0.79702 0.25947 0.77395 0.0
P128 P 0.77363 0.7432 0.77276 0.0
H129 H 0.7267 0.7784 0.77892 0.0
H130 H 0.68218 0.76851 0.79983 0.0
H131 H 0.70048 0.67912 0.81001 0.0
H132 H 0.74428 0.68898 0.78771 0.0
H133 H 0.7934 0.69216 0.80371 0.0
H134 H 0.8217 0.65386 0.78771 0.0
H135 H 0.82445 0.6915 0.69664 0.0
H136 H 0.79463 0.72848 0.71232 0.0
H137 H 0.74281 0.76053 0.71739 0.0
H138 H 0.81359 0.79013 0.7686 0.0
O139 O 0.78836 0.75321 0.80591 0.0
H140 H 0.75031 0.79886 0.67934 0.0
H141 H 0.82086 0.8288 0.73136 0.0
C142 C 0.73882 0.73443 0.78122 0.0
C143 C 0.72081 0.75651 0.78473 0.0
C144 C 0.69543 0.75086 0.79717 0.0
C145 C 0.6877 0.72302 0.80706 0.0
C146 C 0.70546 0.70075 0.80241 0.0
C147 C 0.73075 0.70642 0.78968 0.0
C148 C 0.79189 0.71328 0.75934 0.0
C149 C 0.79966 0.69182 0.78013 0.0
C150 C 0.8162 0.6701 0.77098 0.0
C151 C 0.8259 0.66971 0.74093 0.0
C152 C 0.81729 0.69082 0.71987 0.0
C153 C 0.80031 0.71225 0.72893 0.0
C154 C 0.77729 0.77289 0.74615 0.0
C155 C 0.75966 0.77561 0.72072 0.0
C156 C 0.764 0.79755 0.69901 0.0
C157 C 0.78621 0.81701 0.70226 0.0
C158 C 0.80377 0.81407 0.72787 0.0
C159 C 0.79943 0.79214 0.74944 0.0
P160 P 0.77299 0.27734 0.24623 0.0
H161 H 0.81911 0.28171 0.28918 0.0
H162 H 0.848 0.32211 0.3062 0.0
H163 H 0.79815 0.3799 0.25383 0.0
H164 H 0.76886 0.33943 0.23741 0.0
H165 H 0.76573 0.21641 0.23578 0.0
H166 H 0.76049 0.17482 0.26997 0.0
H167 H 0.76689 0.23011 0.34839 0.0
H168 H 0.77146 0.27191 0.31393 0.0
H169 H 0.75398 0.29714 0.18585 0.0
H170 H 0.71946 0.2774 0.27359 0.0
O171 O 0.79114 0.26694 0.217 0.0
H172 H 0.70894 0.3037 0.16343 0.0
H173 H 0.67425 0.28435 0.25146 0.0
C174 C 0.79124 0.30759 0.26286 0.0
C175 C 0.81378 0.30315 0.28221 0.0
C176 C 0.83038 0.32625 0.29185 0.0
C177 C 0.82522 0.35416 0.2815 0.0
C178 C 0.80254 0.3586 0.26222 0.0
C179 C 0.78569 0.3355 0.253 0.0
C180 C 0.76972 0.24717 0.2723 0.0
C181 C 0.76619 0.21962 0.26033 0.0
C182 C 0.76311 0.19588 0.27987 0.0
C183 C 0.76356 0.19925 0.31183 0.0
C184 C 0.76694 0.22691 0.32385 0.0
C185 C 0.76958 0.25076 0.30419 0.0
C186 C 0.74001 0.28614 0.2312 0.0
C187 C 0.7367 0.29455 0.20039 0.0
C188 C 0.7109 0.29853 0.18765 0.0
C189 C 0.6879 0.29425 0.20554 0.0
C190 C 0.69149 0.2873 0.23688 0.0
C191 C 0.71733 0.28341 0.24961 0.0
P192 P 0.29142 0.31709 0.70933 0.0
H193 H 0.25475 0.29828 0.66061 0.0
H194 H 0.24423 0.25202 0.63722 0.0
H195 H 0.30368 0.21292 0.69678 0.0
H196 H 0.31378 0.2594 0.72083 0.0
H197 H 0.27103 0.37482 0.69919 0.0
H198 H 0.22753 0.3957 0.70885 0.0
H199 H 0.19772 0.31391 0.74369 0.0
H200 H 0.24137 0.29347 0.73457 0.0
H201 H 0.34754 0.3029 0.7223 0.0
H202 H 0.28098 0.3331 0.7731 0.0
O203 O 0.30764 0.33717 0.68331 0.0
H204 H 0.37711 0.30831 0.76796 0.0
H205 H 0.31041 0.33885 0.81834 0.0
C206 C 0.28476 0.2823 0.69278 0.0
C207 C 0.26543 0.27976 0.66887 0.0
C208 C 0.25942 0.25331 0.6555 0.0
C209 C 0.27299 0.22885 0.66536 0.0
C210 C 0.29295 0.23148 0.68876 0.0
C211 C 0.29868 0.25803 0.70254 0.0
C212 C 0.25927 0.33252 0.71581 0.0
C213 C 0.25506 0.36138 0.70875 0.0
C214 C 0.23013 0.37325 0.71413 0.0
C215 C 0.20909 0.35646 0.72695 0.0
C216 C 0.21354 0.32753 0.73407 0.0
C217 C 0.23842 0.31574 0.72868 0.0
C218 C 0.31197 0.31733 0.74419 0.0
C219 C 0.33917 0.31022 0.74335 0.0
C220 C 0.35605 0.31337 0.76943 0.0
C221 C 0.34611 0.3242 0.79666 0.0
C222 C 0.31872 0.33077 0.79758 0.0
C223 C 0.3018 0.32728 0.77166 0.0
P224 P 0.30285 0.72276 0.29524 0.0
H225 H 0.35525 0.70302 0.27601 0.0
H226 H 0.37914 0.7074 0.22781 0.0
H227 H 0.31138 0.75056 0.18647 0.0
H228 H 0.28798 0.74676 0.23496 0.0
H229 H 0.27027 0.74486 0.34364 0.0
H230 H 0.27113 0.79035 0.37052 0.0
H231 H 0.33508 0.82242 0.31266 0.0
H232 H 0.33442 0.77664 0.28628 0.0
H233 H 0.27967 0.66491 0.30431 0.0
H234 H 0.25198 0.74717 0.2737 0.0
O235 O 0.31984 0.70172 0.31956 0.0
H236 H 0.23418 0.644 0.29614 0.0
H237 H 0.20647 0.72635 0.26528 0.0
C238 C 0.31972 0.72439 0.25906 0.0
C239 C 0.34543 0.71322 0.25651 0.0
C240 C 0.35903 0.71557 0.22882 0.0
C241 C 0.34722 0.72932 0.20318 0.0
C242 C 0.32124 0.74012 0.20581 0.0
C243 C 0.3077 0.73779 0.2335 0.0
C244 C 0.30187 0.75752 0.31253 0.0
C245 C 0.28419 0.76184 0.33642 0.0
C246 C 0.28467 0.78793 0.35175 0.0
C247 C 0.30311 0.81016 0.34371 0.0
C248 C 0.32077 0.80572 0.31962 0.0
C249 C 0.32023 0.7796 0.30429 0.0
C250 C 0.26916 0.70763 0.2898 0.0
C251 C 0.26376 0.67852 0.29603 0.0
C252 C 0.23773 0.66661 0.29149 0.0
C253 C 0.21672 0.68354 0.28017 0.0
C254 C 0.22227 0.71271 0.27384 0.0
C255 C 0.24825 0.72464 0.27866 0.0
C256 C 0.96983 0.50227 0.2803 0.0
C257 C 0.04735 0.56838 0.26536 0.0
O258 O 0.98296 0.51633 0.30091 0.0
Zn259 Zn 0.00877 0.535 0.27392 0.0
O260 O 0.97691 0.50462 0.25227 0.0
Zn261 Zn 0.00725 0.52713 0.22585 0.0
O262 O 0.02794 0.49629 0.20951 0.0
O263 O 0.03056 0.49898 0.25997 0.0
O264 O 0.03788 0.55753 0.24035 0.0
O265 O 0.03703 0.56078 0.29068 0.0
O266 O 0.98332 0.56274 0.24694 0.0
O267 O 0.98529 0.55003 0.19854 0.0
C268 C 0.03645 0.48653 0.23518 0.0
C269 C 0.97605 0.56618 0.2187 0.0
C270 C 0.96688 0.45362 0.77262 0.0
C271 C 0.03164 0.534 0.79031 0.0
O272 O 0.97297 0.46492 0.79837 0.0
Zn273 Zn 0.99879 0.494 0.78317 0.0
O274 O 0.97787 0.46371 0.74832 0.0
Zn275 Zn 0.0059 0.49669 0.73463 0.0
O276 O 0.03473 0.47512 0.71755 0.0
O277 O 0.03061 0.46861 0.76747 0.0
O278 O 0.02839 0.52686 0.76217 0.0
O279 O 0.01824 0.52056 0.81079 0.0
O280 O 0.9735 0.52218 0.75768 0.0
O281 O 0.98342 0.52105 0.70871 0.0
C282 C 0.04245 0.4632 0.74254 0.0
C283 C 0.96937 0.53071 0.72997 0.0
C284 C 0.22199 0.97484 0.53874 0.0
C285 C 0.22584 0.0453 0.45582 0.0
O286 O 0.20308 0.98325 0.52101 0.0
Zn287 Zn 0.22432 0.00976 0.49706 0.0
O288 O 0.24599 0.98551 0.53566 0.0
Zn289 Zn 0.26583 0.01699 0.50616 0.0
O290 O 0.27892 0.04584 0.53481 0.0
O291 O 0.23459 0.04322 0.52951 0.0
O292 O 0.24895 0.04277 0.46934 0.0
O293 O 0.20592 0.02969 0.46439 0.0
O294 O 0.25011 0.9821 0.4729 0.0
O295 O 0.29201 0.99474 0.4858 0.0
C296 C 0.25602 0.05477 0.54183 0.0
C297 C 0.27551 0.97868 0.47065 0.0
C298 C 0.54933 0.76178 0.02772 0.0
C299 C 0.47707 0.77956 0.95215 0.0
O300 O 0.53617 0.73913 0.01904 0.0
Zn301 Zn 0.50322 0.72687 0.98923 0.0
O302 O 0.54251 0.78606 0.01715 0.0
Zn303 Zn 0.51324 0.77213 0.99016 0.0
O304 O 0.48313 0.75788 0.0212 0.0
O305 O 0.47644 0.71113 0.01797 0.0
O306 O 0.4928 0.7984 0.96451 0.0
O307 O 0.47937 0.75309 0.95945 0.0
O308 O 0.52094 0.70297 0.95991 0.0
O309 O 0.53451 0.74839 0.95759 0.0
C310 C 0.47069 0.73482 0.0298 0.0
C311 C 0.53599 0.72265 0.94821 0.0
C312 C 0.77988 0.97136 0.54666 0.0
C313 C 0.76261 0.04275 0.46539 0.0
O314 O 0.75486 0.97429 0.53975 0.0
Zn315 Zn 0.73002 0.99877 0.50941 0.0
O316 O 0.7976 0.98673 0.53289 0.0
Zn317 Zn 0.77265 0.00791 0.50651 0.0
O318 O 0.75249 0.03267 0.53889 0.0
O319 O 0.70918 0.02032 0.53773 0.0
O320 O 0.78552 0.03712 0.47737 0.0
O321 O 0.7413 0.02991 0.47541 0.0
O322 O 0.71289 0.96885 0.48456 0.0
O323 O 0.75661 0.97472 0.47717 0.0
C324 C 0.72868 0.03561 0.54881 0.0
C325 C 0.73397 0.96173 0.47095 0.0
C326 C 0.53205 0.30402 0.06396 0.0
C327 C 0.47332 0.32007 0.97341 0.0
O328 O 0.52433 0.28091 0.05035 0.0
Zn329 Zn 0.50095 0.2682 0.01034 0.0
O330 O 0.52464 0.32805 0.05333 0.0
Zn331 Zn 0.50287 0.31324 0.01889 0.0
O332 O 0.47068 0.28958 0.04046 0.0
O333 O 0.47229 0.2442 0.02749 0.0
O334 O 0.48314 0.33894 0.99167 0.0
O335 O 0.47872 0.29374 0.97808 0.0
O336 O 0.52783 0.25172 0.98481 0.0
O337 O 0.53332 0.2984 0.99017 0.0
C338 C 0.46098 0.26382 0.04182 0.0
C339 C 0.54093 0.27494 0.97895 0.0
H340 H 0.15893 0.38486 0.20471 0.0
H341 H 0.13409 0.33703 0.28573 0.0
H342 H 0.09373 0.366 0.28845 0.0
H343 H 0.14032 0.45192 0.22939 0.0
H344 H 0.12808 0.46478 0.19263 0.0
H345 H 0.15355 0.43831 0.1946 0.0
H346 H 0.12344 0.40452 0.16066 0.0
H347 H 0.09787 0.43099 0.15845 0.0
H348 H 0.08953 0.39526 0.17202 0.0
H349 H 0.05957 0.40296 0.28651 0.0
H350 H 0.03182 0.44525 0.2787 0.0
H351 H 0.07662 0.4691 0.19767 0.0
C352 C 0.1446 0.38009 0.22252 0.0
C353 C 0.14965 0.35876 0.24509 0.0
C354 C 0.13074 0.35345 0.26842 0.0
C355 C 0.10768 0.36967 0.27004 0.0
C356 C 0.10362 0.39101 0.24801 0.0
C357 C 0.12134 0.39618 0.2245 0.0
C358 C 0.11289 0.4217 0.20502 0.0
C359 C 0.13503 0.44559 0.20545 0.0
C360 C 0.10549 0.41256 0.17208 0.0
C361 C 0.08814 0.43049 0.22183 0.0
C362 C 0.08319 0.4123 0.24646 0.0
C363 C 0.06289 0.41706 0.26699 0.0
C364 C 0.04733 0.44119 0.26245 0.0
C365 C 0.05194 0.46018 0.23745 0.0
C366 C 0.07234 0.45452 0.21656 0.0
H367 H 0.14661 0.64973 0.75106 0.0
H368 H 0.14359 0.68105 0.84399 0.0
H369 H 0.10838 0.64384 0.85563 0.0
H370 H 0.07562 0.63532 0.74055 0.0
H371 H 0.08017 0.60389 0.71808 0.0
H372 H 0.10525 0.63265 0.71787 0.0
H373 H 0.14196 0.59708 0.73466 0.0
H374 H 0.11697 0.56824 0.73507 0.0
H375 H 0.1375 0.57561 0.76892 0.0
H376 H 0.07272 0.60219 0.85636 0.0
H377 H 0.0403 0.56164 0.84566 0.0
H378 H 0.06736 0.56009 0.75194 0.0
C379 C 0.13835 0.64917 0.77379 0.0
C380 C 0.14776 0.66855 0.79652 0.0
C381 C 0.13682 0.66637 0.8262 0.0
C382 C 0.11674 0.64537 0.83299 0.0
C383 C 0.10788 0.62669 0.80987 0.0
C384 C 0.1184 0.62855 0.78086 0.0
C385 C 0.10566 0.60627 0.75982 0.0
C386 C 0.09079 0.62038 0.73248 0.0
C387 C 0.12679 0.58558 0.749 0.0
C388 C 0.08616 0.59154 0.78138 0.0
C389 C 0.08767 0.60337 0.81023 0.0
C390 C 0.0714 0.59285 0.83381 0.0
C391 C 0.05309 0.5698 0.82756 0.0
C392 C 0.05117 0.55772 0.79795 0.0
C393 C 0.06811 0.56884 0.77481 0.0
H394 H 0.8785 0.69476 0.24899 0.0
H395 H 0.86297 0.69927 0.15072 0.0
H396 H 0.89276 0.65884 0.14362 0.0
H397 H 0.94807 0.6786 0.24562 0.0
H398 H 0.94752 0.65434 0.27809 0.0
H399 H 0.92432 0.68309 0.2756 0.0
H400 H 0.88407 0.64669 0.28101 0.0
H401 H 0.90717 0.61783 0.28365 0.0
H402 H 0.88041 0.61721 0.25488 0.0
H403 H 0.92493 0.61832 0.14708 0.0
H404 H 0.95701 0.58071 0.16104 0.0
H405 H 0.95148 0.60268 0.25698 0.0
C406 C 0.88113 0.68702 0.22602 0.0
C407 C 0.86847 0.70028 0.20039 0.0
C408 C 0.87273 0.68973 0.17066 0.0
C409 C 0.8895 0.66667 0.1664 0.0
C410 C 0.9019 0.6543 0.19209 0.0
C411 C 0.8979 0.66406 0.22133 0.0
C412 C 0.91404 0.64735 0.245 0.0
C413 C 0.93471 0.66703 0.26207 0.0
C414 C 0.8953 0.63132 0.26746 0.0
C415 C 0.92781 0.62679 0.22449 0.0
C416 C 0.92049 0.63107 0.19406 0.0
C417 C 0.93077 0.61473 0.17086 0.0
C418 C 0.949 0.59343 0.179 0.0
C419 C 0.95683 0.5887 0.21008 0.0
C420 C 0.94598 0.6057 0.233 0.0
H421 H 0.85827 0.3328 0.82598 0.0
H422 H 0.85697 0.30313 0.73202 0.0
H423 H 0.88951 0.34184 0.71838 0.0
H424 H 0.8644 0.40846 0.80834 0.0
H425 H 0.88711 0.41634 0.84027 0.0
H426 H 0.86297 0.38677 0.84279 0.0
H427 H 0.90161 0.35244 0.85586 0.0
H428 H 0.92587 0.3819 0.85338 0.0
H429 H 0.92947 0.35064 0.83034 0.0
H430 H 0.9223 0.38274 0.71468 0.0
H431 H 0.95403 0.42379 0.72089 0.0
H432 H 0.93585 0.42715 0.81766 0.0
C433 C 0.86491 0.33434 0.80256 0.0
C434 C 0.85479 0.31494 0.78001 0.0
C435 C 0.86389 0.31797 0.74958 0.0
C436 C 0.88256 0.3398 0.74163 0.0
C437 C 0.89208 0.35844 0.76435 0.0
C438 C 0.88366 0.35601 0.7942 0.0
C439 C 0.89747 0.37879 0.81418 0.0
C440 C 0.87675 0.39877 0.82715 0.0
C441 C 0.91463 0.36512 0.83996 0.0
C442 C 0.91506 0.39428 0.79086 0.0
C443 C 0.91147 0.38213 0.76229 0.0
C444 C 0.9253 0.39247 0.73693 0.0
C445 C 0.94331 0.41588 0.74076 0.0
C446 C 0.94753 0.42882 0.7698 0.0
C447 C 0.93315 0.41776 0.7952 0.0
H448 H 0.26127 0.18757 0.3605 0.0
H449 H 0.19225 0.16673 0.30053 0.0
H450 H 0.18248 0.1234 0.33171 0.0
H451 H 0.28268 0.1149 0.36989 0.0
H452 H 0.29361 0.11976 0.40925 0.0
H453 H 0.29457 0.14967 0.38279 0.0
H454 H 0.26517 0.17819 0.41897 0.0
H455 H 0.26406 0.14835 0.44551 0.0
H456 H 0.23312 0.16297 0.43069 0.0
H457 H 0.17967 0.0827 0.37032 0.0
H458 H 0.18549 0.04664 0.41179 0.0
H459 H 0.2582 0.09247 0.4438 0.0
C460 C 0.24428 0.1738 0.35354 0.0
C461 C 0.22747 0.18085 0.32801 0.0
C462 C 0.20516 0.16228 0.32029 0.0
C463 C 0.19954 0.13744 0.33773 0.0
C464 C 0.21656 0.13123 0.36267 0.0
C465 C 0.2386 0.14876 0.37039 0.0
C466 C 0.25405 0.13702 0.3979 0.0
C467 C 0.28294 0.12991 0.38944 0.0
C468 C 0.25409 0.15787 0.42486 0.0
C469 C 0.2372 0.11017 0.40454 0.0
C470 C 0.21554 0.1073 0.38412 0.0
C471 C 0.19668 0.08461 0.38629 0.0
C472 C 0.20011 0.06429 0.40994 0.0
C473 C 0.2224 0.06665 0.43084 0.0
C474 C 0.24116 0.08989 0.42793 0.0
H475 H 0.35809 0.74197 0.83415 0.0
H476 H 0.32127 0.82094 0.85923 0.0
H477 H 0.36224 0.83449 0.88982 0.0
H478 H 0.3862 0.72753 0.90762 0.0
H479 H 0.41603 0.71201 0.89321 0.0
H480 H 0.38507 0.71042 0.87082 0.0
H481 H 0.40962 0.73497 0.8252 0.0
H482 H 0.44062 0.73693 0.84765 0.0
H483 H 0.42718 0.76898 0.83071 0.0
H484 H 0.4071 0.8382 0.9199 0.0
H485 H 0.44918 0.82939 0.95006 0.0
H486 H 0.45419 0.74678 0.90712 0.0
C487 C 0.35838 0.76207 0.84616 0.0
C488 C 0.33628 0.78034 0.84413 0.0
C489 C 0.33802 0.8067 0.85992 0.0
C490 C 0.36121 0.81458 0.87744 0.0
C491 C 0.3825 0.79588 0.87904 0.0
C492 C 0.38111 0.77006 0.86398 0.0
C493 C 0.40568 0.75269 0.87101 0.0
C494 C 0.39777 0.72398 0.8866 0.0
C495 C 0.42172 0.74814 0.84191 0.0
C496 C 0.42096 0.77249 0.89291 0.0
C497 C 0.40762 0.79757 0.89689 0.0
C498 C 0.41775 0.81869 0.91682 0.0
C499 C 0.44171 0.81361 0.93371 0.0
C500 C 0.45485 0.78744 0.93085 0.0
C501 C 0.44456 0.76701 0.90972 0.0
H502 H 0.79338 0.86852 0.33916 0.0
H503 H 0.71483 0.82538 0.32948 0.0
H504 H 0.69863 0.85274 0.373 0.0
H505 H 0.79462 0.87232 0.42351 0.0
H506 H 0.81137 0.90715 0.4233 0.0
H507 H 0.81714 0.88236 0.39312 0.0
H508 H 0.80277 0.92048 0.35274 0.0
H509 H 0.79667 0.94524 0.38276 0.0
H510 H 0.77019 0.93607 0.35519 0.0
H511 H 0.69013 0.88781 0.41532 0.0
H512 H 0.69081 0.92609 0.45404 0.0
H513 H 0.77516 0.94522 0.43572 0.0
C514 C 0.773 0.86423 0.3467 0.0
C515 C 0.75541 0.84474 0.33096 0.0
C516 C 0.72863 0.84035 0.34108 0.0
C517 C 0.71927 0.85571 0.36584 0.0
C518 C 0.73697 0.87528 0.38035 0.0
C519 C 0.76335 0.87936 0.37131 0.0
C520 C 0.77797 0.90256 0.3897 0.0
C521 C 0.80167 0.89036 0.40853 0.0
C522 C 0.78745 0.92756 0.36885 0.0
C523 C 0.75561 0.91123 0.41017 0.0
C524 C 0.73211 0.89525 0.40459 0.0
C525 C 0.70852 0.90026 0.42009 0.0
C526 C 0.70905 0.9221 0.44195 0.0
C527 C 0.73302 0.93863 0.44802 0.0
C528 C 0.75652 0.93292 0.43185 0.0
H529 H 0.65958 0.21228 0.88163 0.0
H530 H 0.69374 0.29905 0.87762 0.0
H531 H 0.65494 0.31606 0.90531 0.0
H532 H 0.58947 0.23036 0.87298 0.0
H533 H 0.57782 0.20333 0.89985 0.0
H534 H 0.60765 0.19788 0.87832 0.0
H535 H 0.63505 0.18968 0.92888 0.0
H536 H 0.6053 0.19503 0.95056 0.0
H537 H 0.63554 0.21653 0.95814 0.0
H538 H 0.61358 0.32373 0.93417 0.0
H539 H 0.57223 0.32175 0.96389 0.0
H540 H 0.56493 0.22974 0.95126 0.0
C541 C 0.65899 0.23484 0.88667 0.0
C542 C 0.67969 0.25435 0.87715 0.0
C543 C 0.67793 0.28375 0.88403 0.0
C544 C 0.65604 0.29362 0.89994 0.0
C545 C 0.63609 0.27384 0.90896 0.0
C546 C 0.63733 0.24507 0.90271 0.0
C547 C 0.61348 0.22829 0.91585 0.0
C548 C 0.59608 0.21414 0.89022 0.0
C549 C 0.62291 0.20607 0.93978 0.0
C550 C 0.59879 0.25216 0.93067 0.0
C551 C 0.61218 0.27823 0.92619 0.0
C552 C 0.60287 0.30346 0.93782 0.0
C553 C 0.5793 0.30205 0.95471 0.0
C554 C 0.56526 0.27556 0.95998 0.0
C555 C 0.57514 0.2503 0.94761 0.0
H556 H 0.26024 0.85703 0.66498 0.0
H557 H 0.17476 0.83536 0.67103 0.0
H558 H 0.16456 0.87413 0.63387 0.0
H559 H 0.25392 0.93392 0.65752 0.0
H560 H 0.28085 0.93798 0.63071 0.0
H561 H 0.28122 0.90944 0.65888 0.0
H562 H 0.28482 0.87241 0.61566 0.0
H563 H 0.28443 0.90082 0.58738 0.0
H564 H 0.25991 0.87153 0.58481 0.0
H565 H 0.16396 0.91362 0.59393 0.0
H566 H 0.17288 0.95167 0.55529 0.0
H567 H 0.25881 0.94733 0.57555 0.0
C568 C 0.23936 0.86042 0.6585 0.0
C569 C 0.21828 0.84316 0.67092 0.0
C570 C 0.19121 0.84854 0.66211 0.0
C571 C 0.18524 0.87041 0.6409 0.0
C572 C 0.20654 0.8868 0.62886 0.0
C573 C 0.23305 0.88216 0.63746 0.0
C574 C 0.25227 0.90238 0.62071 0.0
C575 C 0.26799 0.9221 0.64331 0.0
C576 C 0.27148 0.88579 0.60097 0.0
C577 C 0.23246 0.9189 0.60103 0.0
C578 C 0.20618 0.90964 0.60609 0.0
C579 C 0.18445 0.92119 0.58993 0.0
C580 C 0.18973 0.94275 0.56799 0.0
C581 C 0.21653 0.95257 0.56244 0.0
C582 C 0.23808 0.94048 0.57938 0.0
H583 H 0.68366 0.81092 0.12122 0.0
H584 H 0.69516 0.72084 0.14139 0.0
H585 H 0.65234 0.70859 0.11403 0.0
H586 H 0.61169 0.80972 0.12833 0.0
H587 H 0.60606 0.83423 0.09673 0.0
H588 H 0.63737 0.83629 0.1186 0.0
H589 H 0.66407 0.83083 0.06891 0.0
H590 H 0.63287 0.82896 0.04686 0.0
H591 H 0.65645 0.80067 0.0445 0.0
H592 H 0.60876 0.70589 0.0848 0.0
H593 H 0.56785 0.71236 0.05291 0.0
H594 H 0.58486 0.80414 0.04959 0.0
C595 C 0.67735 0.78858 0.11965 0.0
C596 C 0.69277 0.76685 0.13371 0.0
C597 C 0.68352 0.73792 0.13137 0.0
C598 C 0.65927 0.73073 0.11573 0.0
C599 C 0.64454 0.75266 0.1024 0.0
C600 C 0.65325 0.78097 0.10396 0.0
C601 C 0.63377 0.80029 0.08699 0.0
C602 C 0.6215 0.82137 0.10898 0.0
C603 C 0.64762 0.81611 0.06022 0.0
C604 C 0.61281 0.77834 0.07555 0.0
C605 C 0.61941 0.75105 0.08494 0.0
C606 C 0.60337 0.72713 0.07726 0.0
C607 C 0.58011 0.7311 0.05912 0.0
C608 C 0.57308 0.75879 0.04866 0.0
C609 C 0.58961 0.78274 0.05727 0.0
H610 H 0.77924 0.14518 0.6772 0.0
H611 H 0.69793 0.1428 0.71161 0.0
H612 H 0.68267 0.11199 0.66849 0.0
H613 H 0.76076 0.14556 0.596 0.0
H614 H 0.78783 0.12289 0.58634 0.0
H615 H 0.79168 0.14635 0.61867 0.0
H616 H 0.80279 0.10307 0.65404 0.0
H617 H 0.79898 0.07951 0.62186 0.0
H618 H 0.7794 0.07273 0.65557 0.0
H619 H 0.6771 0.07866 0.62283 0.0
H620 H 0.68191 0.04631 0.57894 0.0
H621 H 0.767 0.07087 0.57573 0.0
C622 C 0.75821 0.13824 0.6757 0.0
C623 C 0.7398 0.14645 0.69781 0.0
C624 C 0.71236 0.13712 0.69474 0.0
C625 C 0.70352 0.1195 0.67039 0.0
C626 C 0.72233 0.11152 0.64923 0.0
C627 C 0.74908 0.12072 0.65164 0.0
C628 C 0.76554 0.10839 0.62667 0.0
C629 C 0.77712 0.13222 0.60568 0.0
C630 C 0.78799 0.08982 0.64036 0.0
C631 C 0.744 0.09041 0.6101 0.0
C632 C 0.71914 0.09254 0.62323 0.0
C633 C 0.69645 0.07702 0.61223 0.0
C634 C 0.69935 0.0587 0.58731 0.0
C635 C 0.72479 0.05605 0.57382 0.0
C636 C 0.74721 0.07241 0.58535 0.0
H637 H 0.34675 0.30175 0.15705 0.0
H638 H 0.30224 0.22456 0.12872 0.0
H639 H 0.33921 0.21322 0.0945 0.0
H640 H 0.37247 0.32025 0.08234 0.0
H641 H 0.40426 0.33399 0.09793 0.0
H642 H 0.37426 0.33552 0.12008 0.0
H643 H 0.3981 0.30812 0.16459 0.0
H644 H 0.42805 0.30617 0.14242 0.0
H645 H 0.41212 0.27388 0.1574 0.0
H646 H 0.38234 0.20992 0.06415 0.0
H647 H 0.42572 0.2171 0.03767 0.0
H648 H 0.43996 0.29742 0.08498 0.0
C649 C 0.34437 0.28272 0.14326 0.0
C650 C 0.32144 0.2641 0.14566 0.0
C651 C 0.3197 0.23905 0.12763 0.0
C652 C 0.34057 0.23245 0.10803 0.0
C653 C 0.363 0.25118 0.10658 0.0
C654 C 0.36482 0.27596 0.12351 0.0
C655 C 0.3908 0.29278 0.11775 0.0
C656 C 0.3851 0.32238 0.10368 0.0
C657 C 0.40829 0.29537 0.1473 0.0
C658 C 0.40338 0.27365 0.09489 0.0
C659 C 0.38725 0.2496 0.08885 0.0
C660 C 0.39506 0.22876 0.06862 0.0
C661 C 0.41976 0.23292 0.05382 0.0
C662 C 0.43615 0.25785 0.05917 0.0
C663 C 0.42783 0.27821 0.08022 0.0
H664 H 0.86651 0.64749 0.77704 0.0
H665 H 0.83111 0.64345 0.68501 0.0
H666 H 0.8654 0.60927 0.67086 0.0
H667 H 0.93536 0.64202 0.75735 0.0
H668 H 0.94363 0.61964 0.78999 0.0
H669 H 0.91705 0.6447 0.79227 0.0
H670 H 0.88352 0.6036 0.80789 0.0
H671 H 0.91005 0.57846 0.80593 0.0
H672 H 0.87918 0.57268 0.78383 0.0
H673 H 0.9045 0.57503 0.66706 0.0
H674 H 0.94209 0.54184 0.67536 0.0
H675 H 0.94885 0.56702 0.77063 0.0
C676 C 0.86555 0.63923 0.75398 0.0
C677 C 0.84593 0.64834 0.73221 0.0
C678 C 0.84609 0.63726 0.70209 0.0
C679 C 0.86545 0.61769 0.69384 0.0
C680 C 0.88444 0.60923 0.71598 0.0
C681 C 0.8844 0.61951 0.74551 0.0
C682 C 0.90624 0.6065 0.76548 0.0
C683 C 0.92678 0.6296 0.77693 0.0
C684 C 0.89401 0.58929 0.79236 0.0
C685 C 0.91857 0.58714 0.74266 0.0
C686 C 0.90603 0.58914 0.71409 0.0
C687 C 0.91436 0.57325 0.6894 0.0
C688 C 0.93576 0.55456 0.69425 0.0
C689 C 0.94824 0.55172 0.72365 0.0
C690 C 0.93957 0.56849 0.74793 0.0
H691 H 0.84756 0.39306 0.24157 0.0
H692 H 0.84757 0.36836 0.3377 0.0
H693 H 0.88262 0.4061 0.34892 0.0
H694 H 0.91764 0.40422 0.23721 0.0
H695 H 0.91597 0.43415 0.21082 0.0
H696 H 0.88908 0.40734 0.21111 0.0
H697 H 0.85447 0.44646 0.21998 0.0
H698 H 0.88128 0.47345 0.21961 0.0
H699 H 0.85948 0.47022 0.25196 0.0
H700 H 0.91935 0.44554 0.34889 0.0
H701 H 0.95583 0.48128 0.33722 0.0
H702 H 0.93219 0.47837 0.2408 0.0
C703 C 0.85449 0.39605 0.26509 0.0
C704 C 0.84465 0.37809 0.28886 0.0
C705 C 0.85482 0.38202 0.31921 0.0
C706 C 0.87462 0.40344 0.32578 0.0
C707 C 0.88414 0.4206 0.30171 0.0
C708 C 0.87442 0.41704 0.27196 0.0
C709 C 0.88925 0.43676 0.24983 0.0
C710 C 0.90385 0.41959 0.22584 0.0
C711 C 0.86997 0.45798 0.23444 0.0
C712 C 0.90907 0.45176 0.27166 0.0
C713 C 0.90566 0.44248 0.30155 0.0
C714 C 0.92211 0.45304 0.32557 0.0
C715 C 0.94274 0.47335 0.31874 0.0
C716 C 0.94691 0.48258 0.28812 0.0
C717 C 0.9296 0.47174 0.26446 0.0
H718 H 0.17986 0.39445 0.69148 0.0
H719 H 0.17912 0.34751 0.77809 0.0
H720 H 0.13564 0.36813 0.78987 0.0
H721 H 0.15229 0.45868 0.71986 0.0
H722 H 0.13242 0.46578 0.68558 0.0
H723 H 0.16314 0.4466 0.68327 0.0
H724 H 0.13677 0.40475 0.65649 0.0
H725 H 0.10594 0.42376 0.65883 0.0
H726 H 0.10798 0.38813 0.67483 0.0
H727 H 0.09342 0.39455 0.79331 0.0
H728 H 0.0546 0.42571 0.78858 0.0
H729 H 0.08185 0.45618 0.69974 0.0
C730 C 0.17059 0.38859 0.71297 0.0
C731 C 0.18286 0.36915 0.73377 0.0
C732 C 0.16994 0.36191 0.76154 0.0
C733 C 0.14528 0.37362 0.76852 0.0
C734 C 0.13373 0.39257 0.74751 0.0
C735 C 0.14588 0.40007 0.72031 0.0
C736 C 0.12923 0.42135 0.70206 0.0
C737 C 0.14523 0.44979 0.69743 0.0
C738 C 0.1194 0.40874 0.67122 0.0
C739 C 0.10596 0.42478 0.72342 0.0
C740 C 0.10905 0.40789 0.74945 0.0
C741 C 0.0907 0.40779 0.773 0.0
C742 C 0.06872 0.42564 0.77008 0.0
C743 C 0.06511 0.44338 0.74376 0.0
C744 C 0.0839 0.44267 0.71998 0.0
H745 H 0.18726 0.64622 0.31676 0.0
H746 H 0.18462 0.69127 0.22913 0.0
H747 H 0.13999 0.66853 0.21731 0.0
H748 H 0.15702 0.58056 0.29079 0.0
H749 H 0.13794 0.57362 0.32485 0.0
H750 H 0.16914 0.59443 0.32716 0.0
H751 H 0.14441 0.63594 0.35164 0.0
H752 H 0.1131 0.61525 0.34939 0.0
H753 H 0.11539 0.65045 0.33206 0.0
H754 H 0.09761 0.63853 0.21323 0.0
H755 H 0.05877 0.60456 0.21797 0.0
H756 H 0.08736 0.57991 0.30909 0.0
C757 C 0.17722 0.65134 0.29514 0.0
C758 C 0.18938 0.67059 0.27387 0.0
C759 C 0.17555 0.67689 0.24591 0.0
C760 C 0.15024 0.66399 0.23895 0.0
C761 C 0.13889 0.64503 0.2603 0.0
C762 C 0.15177 0.63886 0.28794 0.0
C763 C 0.13521 0.61735 0.30661 0.0
C764 C 0.15076 0.58987 0.3127 0.0
C765 C 0.12651 0.63055 0.33671 0.0
C766 C 0.11124 0.61202 0.28489 0.0
C767 C 0.11388 0.62822 0.2583 0.0
C768 C 0.09515 0.62599 0.23407 0.0
C769 C 0.07321 0.60657 0.23695 0.0
C770 C 0.06997 0.58978 0.26397 0.0
C771 C 0.0891 0.59283 0.28839 0.0
H772 H 0.74889 0.85006 0.67207 0.0
H773 H 0.83489 0.83634 0.67966 0.0
H774 H 0.84319 0.87523 0.64182 0.0
H775 H 0.74669 0.8636 0.59078 0.0
H776 H 0.72157 0.89038 0.59295 0.0
H777 H 0.72271 0.86192 0.62114 0.0
H778 H 0.7266 0.89931 0.66448 0.0
H779 H 0.7256 0.92788 0.6364 0.0
H780 H 0.75334 0.92642 0.66384 0.0
H781 H 0.84189 0.91599 0.60236 0.0
H782 H 0.8307 0.95386 0.5642 0.0
H783 H 0.74567 0.93943 0.58241 0.0
C784 C 0.76947 0.85501 0.66563 0.0
C785 C 0.79122 0.84014 0.67902 0.0
C786 C 0.81788 0.84768 0.67015 0.0
C787 C 0.82281 0.86966 0.64853 0.0
C788 C 0.80089 0.88393 0.63588 0.0
C789 C 0.77475 0.87681 0.64408 0.0
C790 C 0.75465 0.89512 0.62697 0.0
C791 C 0.73527 0.87665 0.60676 0.0
C792 C 0.73914 0.91326 0.64926 0.0
C793 C 0.77353 0.91359 0.60777 0.0
C794 C 0.80014 0.90698 0.61322 0.0
C795 C 0.82109 0.92133 0.59792 0.0
C796 C 0.81457 0.94284 0.57633 0.0
C797 C 0.78734 0.94964 0.57022 0.0
C798 C 0.76672 0.9348 0.5864 0.0
H799 H 0.66839 0.33192 0.16149 0.0
H800 H 0.64535 0.25696 0.21586 0.0
H801 H 0.60111 0.25456 0.18888 0.0
H802 H 0.60064 0.36289 0.15647 0.0
H803 H 0.60487 0.37512 0.11747 0.0
H804 H 0.6338 0.37285 0.14317 0.0
H805 H 0.65677 0.34035 0.10478 0.0
H806 H 0.62796 0.3425 0.07902 0.0
H807 H 0.63932 0.30806 0.09192 0.0
H808 H 0.56196 0.25637 0.15207 0.0
H809 H 0.52935 0.26381 0.10919 0.0
H810 H 0.57616 0.33864 0.07937 0.0
C811 C 0.6539 0.31522 0.16798 0.0
C812 C 0.66036 0.29475 0.19104 0.0
C813 C 0.64078 0.27323 0.19877 0.0
C814 C 0.6156 0.27159 0.18344 0.0
C815 C 0.61007 0.29179 0.16057 0.0
C816 C 0.62852 0.31338 0.15302 0.0
C817 C 0.61793 0.3315 0.12646 0.0
C818 C 0.61408 0.36243 0.1365 0.0
C819 C 0.6366 0.33053 0.09892 0.0
C820 C 0.591 0.31618 0.11971 0.0
C821 C 0.5869 0.29336 0.13976 0.0
C822 C 0.56466 0.27451 0.13664 0.0
C823 C 0.54629 0.27886 0.11221 0.0
C824 C 0.55003 0.30206 0.09139 0.0
C825 C 0.57245 0.32123 0.09552 0.0
H826 H 0.30692 0.1902 0.64105 0.0
H827 H 0.22266 0.20478 0.6572 0.0
H828 H 0.20958 0.16027 0.63002 0.0
H829 H 0.29706 0.16486 0.56562 0.0
H830 H 0.32246 0.13825 0.5685 0.0
H831 H 0.3256 0.16977 0.5917 0.0
H832 H 0.3288 0.1381 0.64078 0.0
H833 H 0.3258 0.10645 0.61769 0.0
H834 H 0.30261 0.11137 0.64813 0.0
H835 H 0.20528 0.1163 0.59856 0.0
H836 H 0.20985 0.0753 0.56454 0.0
H837 H 0.29694 0.08878 0.56782 0.0
C838 C 0.28579 0.18363 0.63936 0.0
C839 C 0.26576 0.20082 0.65129 0.0
C840 C 0.23827 0.19193 0.64812 0.0
C841 C 0.23067 0.16665 0.63283 0.0
C842 C 0.2508 0.15046 0.6208 0.0
C843 C 0.27781 0.15849 0.62389 0.0
C844 C 0.2952 0.138 0.6072 0.0
C845 C 0.311 0.15366 0.58175 0.0
C846 C 0.31423 0.12256 0.62981 0.0
C847 C 0.27371 0.11751 0.59391 0.0
C848 C 0.24828 0.12503 0.60227 0.0
C849 C 0.2251 0.11004 0.59205 0.0
C850 C 0.22793 0.08678 0.57264 0.0
C851 C 0.25375 0.0787 0.56349 0.0
C852 C 0.27693 0.09424 0.57454 0.0
H853 H 0.3802 0.69181 0.17452 0.0
H854 H 0.34938 0.77752 0.16709 0.0
H855 H 0.37541 0.78637 0.1205 0.0
H856 H 0.44704 0.71067 0.15158 0.0
H857 H 0.45142 0.67856 0.13015 0.0
H858 H 0.42904 0.67795 0.162 0.0
H859 H 0.38995 0.6587 0.12668 0.0
H860 H 0.41221 0.65928 0.09468 0.0
H861 H 0.38119 0.67823 0.09211 0.0
H862 H 0.40639 0.78753 0.07719 0.0
H863 H 0.44058 0.78087 0.03846 0.0
H864 H 0.45209 0.69423 0.07222 0.0
C865 C 0.37887 0.71241 0.16303 0.0
C866 C 0.36245 0.73388 0.17442 0.0
C867 C 0.36128 0.7605 0.15858 0.0
C868 C 0.37614 0.76582 0.13215 0.0
C869 C 0.3921 0.7443 0.12164 0.0
C870 C 0.39357 0.71809 0.13642 0.0
C871 C 0.41302 0.69907 0.12056 0.0
C872 C 0.43652 0.6911 0.14238 0.0
C873 C 0.3982 0.67223 0.10775 0.0
C874 C 0.42255 0.71895 0.0949 0.0
C875 C 0.41007 0.74487 0.09607 0.0
C876 C 0.41615 0.76727 0.07586 0.0
C877 C 0.43571 0.76327 0.054 0.0
C878 C 0.449 0.73702 0.05226 0.0
C879 C 0.44203 0.71439 0.07277 0.0
H880 H 0.79426 0.18314 0.36237 0.0
H881 H 0.72353 0.15824 0.30715 0.0
H882 H 0.71644 0.11537 0.34 0.0
H883 H 0.81795 0.11146 0.37466 0.0
H884 H 0.82974 0.11769 0.4135 0.0
H885 H 0.82917 0.1469 0.38613 0.0
H886 H 0.79984 0.17549 0.42225 0.0
H887 H 0.80041 0.14643 0.44979 0.0
H888 H 0.76863 0.15954 0.43563 0.0
H889 H 0.71608 0.07634 0.379 0.0
H890 H 0.72308 0.04193 0.42143 0.0
H891 H 0.79541 0.08995 0.45089 0.0
C892 C 0.77722 0.16868 0.3574 0.0
C893 C 0.75939 0.17394 0.33225 0.0
C894 C 0.73749 0.15446 0.32617 0.0
C895 C 0.73328 0.13012 0.34473 0.0
C896 C 0.75129 0.1254 0.36915 0.0
C897 C 0.77292 0.14398 0.37551 0.0
C898 C 0.78944 0.13341 0.40295 0.0
C899 C 0.81829 0.12698 0.39375 0.0
C900 C 0.78958 0.155 0.42921 0.0
C901 C 0.77357 0.10612 0.4111 0.0
C902 C 0.75158 0.10212 0.39131 0.0
C903 C 0.7333 0.07912 0.39455 0.0
C904 C 0.73744 0.05973 0.41878 0.0
C905 C 0.75984 0.06319 0.43938 0.0
C906 C 0.77831 0.08658 0.43527 0.0
H907 H 0.38328 0.28833 0.82261 0.0
H908 H 0.35005 0.37223 0.8318 0.0
H909 H 0.38028 0.38143 0.87683 0.0
H910 H 0.38878 0.27261 0.90289 0.0
H911 H 0.4198 0.25398 0.9002 0.0
H912 H 0.39635 0.25465 0.86802 0.0
H913 H 0.43409 0.27573 0.83354 0.0
H914 H 0.45764 0.27519 0.86567 0.0
H915 H 0.45225 0.30813 0.84478 0.0
H916 H 0.41446 0.38135 0.92118 0.0
H917 H 0.44756 0.37064 0.96294 0.0
H918 H 0.45726 0.28638 0.92514 0.0
C919 C 0.38255 0.30873 0.83396 0.0
C920 C 0.36436 0.3296 0.82369 0.0
C921 C 0.3637 0.35586 0.83944 0.0
C922 C 0.38091 0.36134 0.86491 0.0
C923 C 0.39858 0.34029 0.87448 0.0
C924 C 0.39939 0.31443 0.8596 0.0
C925 C 0.41943 0.29494 0.87518 0.0
C926 C 0.40523 0.26743 0.88729 0.0
C927 C 0.4422 0.2881 0.8535 0.0
C928 C 0.42972 0.31381 0.90119 0.0
C929 C 0.41768 0.34 0.90029 0.0
C930 C 0.42401 0.36089 0.92211 0.0
C931 C 0.44289 0.35467 0.94569 0.0
C932 C 0.45497 0.32768 0.94739 0.0
C933 C 0.44835 0.3072 0.9246 0.0
H934 H 0.26104 0.84058 0.36497 0.0
H935 H 0.34846 0.84116 0.36247 0.0
H936 H 0.35099 0.88522 0.39307 0.0
H937 H 0.25415 0.91748 0.36013 0.0
H938 H 0.22649 0.91731 0.3861 0.0
H939 H 0.23158 0.88654 0.36284 0.0
H940 H 0.23327 0.85435 0.41166 0.0
H941 H 0.22821 0.88501 0.43506 0.0
H942 H 0.25704 0.86327 0.44231 0.0
H943 H 0.344 0.92822 0.42606 0.0
H944 H 0.32795 0.96712 0.45792 0.0
H945 H 0.24516 0.93813 0.43901 0.0
C946 C 0.28074 0.84993 0.37085 0.0
C947 C 0.30455 0.83737 0.36116 0.0
C948 C 0.3299 0.85055 0.36915 0.0
C949 C 0.33156 0.87551 0.38671 0.0
C950 C 0.3077 0.88716 0.39607 0.0
C951 C 0.28276 0.87485 0.38832 0.0
C952 C 0.26019 0.8913 0.4017 0.0
C953 C 0.24204 0.9039 0.37617 0.0
C954 C 0.24371 0.87235 0.42401 0.0
C955 C 0.27632 0.9146 0.41849 0.0
C956 C 0.30369 0.91189 0.41492 0.0
C957 C 0.3226 0.93062 0.42887 0.0
C958 C 0.31328 0.95265 0.44696 0.0
C959 C 0.28529 0.95579 0.45096 0.0
C960 C 0.26668 0.93647 0.43634 0.0
H961 H 0.66525 0.75799 0.84878 0.0
H962 H 0.65266 0.67571 0.80487 0.0
H963 H 0.61232 0.66608 0.83601 0.0
H964 H 0.64576 0.7362 0.92302 0.0
H965 H 0.62925 0.76891 0.93095 0.0
H966 H 0.65676 0.7693 0.90486 0.0
H967 H 0.62645 0.79208 0.86249 0.0
H968 H 0.59889 0.79195 0.88853 0.0
H969 H 0.5946 0.77473 0.85195 0.0
H970 H 0.57369 0.66504 0.8742 0.0
H971 H 0.53987 0.67392 0.9136 0.0
H972 H 0.57766 0.75763 0.92971 0.0
C973 C 0.65381 0.73815 0.84511 0.0
C974 C 0.66226 0.71768 0.82418 0.0
C975 C 0.64688 0.69167 0.82094 0.0
C976 C 0.62382 0.68604 0.83844 0.0
C977 C 0.61625 0.70667 0.85902 0.0
C978 C 0.63074 0.73229 0.86217 0.0
C979 C 0.6187 0.75096 0.88591 0.0
C980 C 0.63882 0.75666 0.91277 0.0
C981 C 0.60909 0.77909 0.87134 0.0
C982 C 0.59517 0.73187 0.89574 0.0
C983 C 0.59405 0.70632 0.88019 0.0
C984 C 0.57431 0.6851 0.88631 0.0
C985 C 0.55522 0.69027 0.90876 0.0
C986 C 0.55593 0.71653 0.9246 0.0
C987 C 0.57626 0.73744 0.91783 0.0
loop_
_geom_bond_atom_site_label_1
_geom_bond_atom_site_label_2
_geom_bond_distance
_geom_bond_site_symmetry_2
_ccdc_geom_bond_type
P0 O11 1.490 . S
P0 C14 1.812 . S
P0 C20 1.803 . S
P0 C26 1.819 . S
H1 C15 0.941 . S
H2 C16 0.939 . S
H3 C18 0.940 . S
H4 C19 0.940 . S
H5 C21 0.939 . S
H6 C22 0.942 . S
H7 C24 0.940 . S
H8 C25 0.939 . S
H9 C27 0.941 . S
H10 C31 0.939 . S
O11 P0 1.490 . S
H12 C28 0.939 . S
H13 C30 0.940 . S
C14 P0 1.812 . S
C14 C15 1.389 . S
C14 C19 1.391 . S
C15 H1 0.941 . S
C15 C14 1.389 . S
C15 C16 1.397 . S
C16 H2 0.939 . S
C16 C15 1.397 . S
C16 C17 1.378 . S
C17 C16 1.378 . S
C17 C18 1.378 . S
C18 H3 0.940 . S
C18 C17 1.378 . S
C18 C19 1.396 . S
C19 H4 0.940 . S
C19 C14 1.391 . S
C19 C18 1.396 . S
C20 P0 1.803 . S
C20 C21 1.378 . S
C20 C25 1.400 . S
C21 H5 0.939 . S
C21 C20 1.378 . S
C21 C22 1.361 . S
C22 H6 0.942 . S
C22 C21 1.361 . S
C22 C23 1.369 . S
C23 C22 1.369 . S
C23 C24 1.404 . S
C24 H7 0.940 . S
C24 C23 1.404 . S
C24 C25 1.389 . S
C25 H8 0.939 . S
C25 C20 1.400 . S
C25 C24 1.389 . S
C26 P0 1.819 . S
C26 C27 1.391 . S
C26 C31 1.391 . S
C27 H9 0.941 . S
C27 C26 1.391 . S
C27 C28 1.396 . S
C28 H12 0.939 . S
C28 C27 1.396 . S
C28 C29 1.397 . S
C29 C28 1.397 . S
C29 C30 1.385 . S
C30 H13 0.940 . S
C30 C29 1.385 . S
C30 C31 1.388 . S
C31 H10 0.939 . S
C31 C26 1.391 . S
C31 C30 1.388 . S
P32 O43 1.490 . S
P32 C46 1.812 . S
P32 C52 1.803 . S
P32 C58 1.819 . S
H33 C47 0.941 . S
H34 C48 0.939 . S
H35 C50 0.940 . S
H36 C51 0.940 . S
H37 C53 0.939 . S
H38 C54 0.942 . S
H39 C56 0.940 . S
H40 C57 0.939 . S
H41 C59 0.941 . S
H42 C63 0.939 . S
O43 P32 1.490 . S
H44 C60 0.939 . S
H45 C62 0.940 . S
C46 P32 1.812 . S
C46 C47 1.389 . S
C46 C51 1.391 . S
C47 H33 0.941 . S
C47 C46 1.389 . S
C47 C48 1.397 . S
C48 H34 0.939 . S
C48 C47 1.397 . S
C48 C49 1.378 . S
C49 C48 1.378 . S
C49 C50 1.378 . S
C50 H35 0.940 . S
C50 C49 1.378 . S
C50 C51 1.396 . S
C51 H36 0.940 . S
C51 C46 1.391 . S
C51 C50 1.396 . S
C52 P32 1.803 . S
C52 C53 1.378 . S
C52 C57 1.400 . S
C53 H37 0.939 . S
C53 C52 1.378 . S
C53 C54 1.361 . S
C54 H38 0.942 . S
C54 C53 1.361 . S
C54 C55 1.369 . S
C55 C54 1.369 . S
C55 C56 1.404 . S
C56 H39 0.940 . S
C56 C55 1.404 . S
C56 C57 1.389 . S
C57 H40 0.939 . S
C57 C52 1.400 . S
C57 C56 1.389 . S
C58 P32 1.819 . S
C58 C59 1.391 . S
C58 C63 1.391 . S
C59 H41 0.941 . S
C59 C58 1.391 . S
C59 C60 1.396 . S
C60 H44 0.939 . S
C60 C59 1.396 . S
C60 C61 1.397 . S
C61 C60 1.397 . S
C61 C62 1.385 . S
C62 H45 0.940 . S
C62 C61 1.385 . S
C62 C63 1.388 . S
C63 H42 0.939 . S
C63 C58 1.391 . S
C63 C62 1.388 . S
P64 O75 1.490 . S
P64 C78 1.812 . S
P64 C84 1.803 . S
P64 C90 1.819 . S
H65 C79 0.941 . S
H66 C80 0.939 . S
H67 C82 0.940 . S
H68 C83 0.940 . S
H69 C85 0.939 . S
H70 C86 0.942 . S
H71 C88 0.940 . S
H72 C89 0.939 . S
H73 C91 0.941 . S
H74 C95 0.939 . S
O75 P64 1.490 . S
H76 C92 0.939 . S
H77 C94 0.940 . S
C78 P64 1.812 . S
C78 C79 1.389 . S
C78 C83 1.391 . S
C79 H65 0.941 . S
C79 C78 1.389 . S
C79 C80 1.397 . S
C80 H66 0.939 . S
C80 C79 1.397 . S
C80 C81 1.378 . S
C81 C80 1.378 . S
C81 C82 1.378 . S
C82 H67 0.940 . S
C82 C81 1.378 . S
C82 C83 1.396 . S
C83 H68 0.940 . S
C83 C78 1.391 . S
C83 C82 1.396 . S
C84 P64 1.803 . S
C84 C85 1.378 . S
C84 C89 1.400 . S
C85 H69 0.939 . S
C85 C84 1.378 . S
C85 C86 1.361 . S
C86 H70 0.942 . S
C86 C85 1.361 . S
C86 C87 1.369 . S
C87 C86 1.369 . S
C87 C88 1.404 . S
C88 H71 0.940 . S
C88 C87 1.404 . S
C88 C89 1.389 . S
C89 H72 0.939 . S
C89 C84 1.400 . S
C89 C88 1.389 . S
C90 P64 1.819 . S
C90 C91 1.391 . S
C90 C95 1.391 . S
C91 H73 0.941 . S
C91 C90 1.391 . S
C91 C92 1.396 . S
C92 H76 0.939 . S
C92 C91 1.396 . S
C92 C93 1.397 . S
C93 C92 1.397 . S
C93 C94 1.385 . S
C94 H77 0.940 . S
C94 C93 1.385 . S
C94 C95 1.388 . S
C95 H74 0.939 . S
C95 C90 1.391 . S
C95 C94 1.388 . S
P96 O107 1.490 . S
P96 C110 1.812 . S
P96 C116 1.803 . S
P96 C122 1.819 . S
H97 C111 0.941 . S
H98 C112 0.939 . S
H99 C114 0.940 . S
H100 C115 0.940 . S
H101 C117 0.939 . S
H102 C118 0.942 . S
H103 C120 0.940 . S
H104 C121 0.939 . S
H105 C123 0.941 . S
H106 C127 0.939 . S
O107 P96 1.490 . S
H108 C124 0.939 . S
H109 C126 0.940 . S
C110 P96 1.812 . S
C110 C111 1.389 . S
C110 C115 1.391 . S
C111 H97 0.941 . S
C111 C110 1.389 . S
C111 C112 1.397 . S
C112 H98 0.939 . S
C112 C111 1.397 . S
C112 C113 1.378 . S
C113 C112 1.378 . S
C113 C114 1.378 . S
C114 H99 0.940 . S
C114 C113 1.378 . S
C114 C115 1.396 . S
C115 H100 0.940 . S
C115 C110 1.391 . S
C115 C114 1.396 . S
C116 P96 1.803 . S
C116 C117 1.378 . S
C116 C121 1.400 . S
C117 H101 0.939 . S
C117 C116 1.378 . S
C117 C118 1.361 . S
C118 H102 0.942 . S
C118 C117 1.361 . S
C118 C119 1.369 . S
C119 C118 1.369 . S
C119 C120 1.404 . S
C120 H103 0.940 . S
C120 C119 1.404 . S
C120 C121 1.389 . S
C121 H104 0.939 . S
C121 C116 1.400 . S
C121 C120 1.389 . S
C122 P96 1.819 . S
C122 C123 1.391 . S
C122 C127 1.391 . S
C123 H105 0.941 . S
C123 C122 1.391 . S
C123 C124 1.396 . S
C124 H108 0.939 . S
C124 C123 1.396 . S
C124 C125 1.397 . S
C125 C124 1.397 . S
C125 C126 1.385 . S
C126 H109 0.940 . S
C126 C125 1.385 . S
C126 C127 1.388 . S
C127 H106 0.939 . S
C127 C122 1.391 . S
C127 C126 1.388 . S
P128 O139 1.490 . S
P128 C142 1.812 . S
P128 C148 1.803 . S
P128 C154 1.819 . S
H129 C143 0.941 . S
H130 C144 0.939 . S
H131 C146 0.940 . S
H132 C147 0.940 . S
H133 C149 0.939 . S
H134 C150 0.942 . S
H135 C152 0.940 . S
H136 C153 0.939 . S
H137 C155 0.941 . S
H138 C159 0.939 . S
O139 P128 1.490 . S
H140 C156 0.939 . S
H141 C158 0.940 . S
C142 P128 1.812 . S
C142 C143 1.389 . S
C142 C147 1.391 . S
C143 H129 0.941 . S
C143 C142 1.389 . S
C143 C144 1.397 . S
C144 H130 0.939 . S
C144 C143 1.397 . S
C144 C145 1.378 . S
C145 C144 1.378 . S
C145 C146 1.378 . S
C146 H131 0.940 . S
C146 C145 1.378 . S
C146 C147 1.396 . S
C147 H132 0.940 . S
C147 C142 1.391 . S
C147 C146 1.396 . S
C148 P128 1.803 . S
C148 C149 1.378 . S
C148 C153 1.400 . S
C149 H133 0.939 . S
C149 C148 1.378 . S
C149 C150 1.361 . S
C150 H134 0.942 . S
C150 C149 1.361 . S
C150 C151 1.369 . S
C151 C150 1.369 . S
C151 C152 1.404 . S
C152 H135 0.940 . S
C152 C151 1.404 . S
C152 C153 1.389 . S
C153 H136 0.939 . S
C153 C148 1.400 . S
C153 C152 1.389 . S
C154 P128 1.819 . S
C154 C155 1.391 . S
C154 C159 1.391 . S
C155 H137 0.941 . S
C155 C154 1.391 . S
C155 C156 1.396 . S
C156 H140 0.939 . S
C156 C155 1.396 . S
C156 C157 1.397 . S
C157 C156 1.397 . S
C157 C158 1.385 . S
C158 H141 0.940 . S
C158 C157 1.385 . S
C158 C159 1.388 . S
C159 H138 0.939 . S
C159 C154 1.391 . S
C159 C158 1.388 . S
P160 O171 1.490 . S
P160 C174 1.812 . S
P160 C180 1.803 . S
P160 C186 1.819 . S
H161 C175 0.941 . S
H162 C176 0.939 . S
H163 C178 0.940 . S
H164 C179 0.940 . S
H165 C181 0.939 . S
H166 C182 0.942 . S
H167 C184 0.940 . S
H168 C185 0.939 . S
H169 C187 0.941 . S
H170 C191 0.939 . S
O171 P160 1.490 . S
H172 C188 0.939 . S
H173 C190 0.940 . S
C174 P160 1.812 . S
C174 C175 1.389 . S
C174 C179 1.391 . S
C175 H161 0.941 . S
C175 C174 1.389 . S
C175 C176 1.397 . S
C176 H162 0.939 . S
C176 C175 1.397 . S
C176 C177 1.378 . S
C177 C176 1.378 . S
C177 C178 1.378 . S
C178 H163 0.940 . S
C178 C177 1.378 . S
C178 C179 1.396 . S
C179 H164 0.940 . S
C179 C174 1.391 . S
C179 C178 1.396 . S
C180 P160 1.803 . S
C180 C181 1.378 . S
C180 C185 1.400 . S
C181 H165 0.939 . S
C181 C180 1.378 . S
C181 C182 1.361 . S
C182 H166 0.942 . S
C182 C181 1.361 . S
C182 C183 1.369 . S
C183 C182 1.369 . S
C183 C184 1.404 . S
C184 H167 0.940 . S
C184 C183 1.404 . S
C184 C185 1.389 . S
C185 H168 0.939 . S
C185 C180 1.400 . S
C185 C184 1.389 . S
C186 P160 1.819 . S
C186 C187 1.391 . S
C186 C191 1.391 . S
C187 H169 0.941 . S
C187 C186 1.391 . S
C187 C188 1.396 . S
C188 H172 0.939 . S
C188 C187 1.396 . S
C188 C189 1.397 . S
C189 C188 1.397 . S
C189 C190 1.385 . S
C190 H173 0.940 . S
C190 C189 1.385 . S
C190 C191 1.388 . S
C191 H170 0.939 . S
C191 C186 1.391 . S
C191 C190 1.388 . S
P192 O203 1.490 . S
P192 C206 1.812 . S
P192 C212 1.803 . S
P192 C218 1.819 . S
H193 C207 0.941 . S
H194 C208 0.939 . S
H195 C210 0.940 . S
H196 C211 0.940 . S
H197 C213 0.939 . S
H198 C214 0.942 . S
H199 C216 0.940 . S
H200 C217 0.939 . S
H201 C219 0.941 . S
H202 C223 0.939 . S
O203 P192 1.490 . S
H204 C220 0.939 . S
H205 C222 0.940 . S
C206 P192 1.812 . S
C206 C207 1.389 . S
C206 C211 1.391 . S
C207 H193 0.941 . S
C207 C206 1.389 . S
C207 C208 1.397 . S
C208 H194 0.939 . S
C208 C207 1.397 . S
C208 C209 1.378 . S
C209 C208 1.378 . S
C209 C210 1.378 . S
C210 H195 0.940 . S
C210 C209 1.378 . S
C210 C211 1.396 . S
C211 H196 0.940 . S
C211 C206 1.391 . S
C211 C210 1.396 . S
C212 P192 1.803 . S
C212 C213 1.378 . S
C212 C217 1.400 . S
C213 H197 0.939 . S
C213 C212 1.378 . S
C213 C214 1.361 . S
C214 H198 0.942 . S
C214 C213 1.361 . S
C214 C215 1.369 . S
C215 C214 1.369 . S
C215 C216 1.404 . S
C216 H199 0.940 . S
C216 C215 1.404 . S
C216 C217 1.389 . S
C217 H200 0.939 . S
C217 C212 1.400 . S
C217 C216 1.389 . S
C218 P192 1.819 . S
C218 C219 1.391 . S
C218 C223 1.391 . S
C219 H201 0.941 . S
C219 C218 1.391 . S
C219 C220 1.396 . S
C220 H204 0.939 . S
C220 C219 1.396 . S
C220 C221 1.397 . S
C221 C220 1.397 . S
C221 C222 1.385 . S
C222 H205 0.940 . S
C222 C221 1.385 . S
C222 C223 1.388 . S
C223 H202 0.939 . S
C223 C218 1.391 . S
C223 C222 1.388 . S
P224 O235 1.490 . S
P224 C238 1.812 . S
P224 C244 1.803 . S
P224 C250 1.819 . S
H225 C239 0.941 . S
H226 C240 0.939 . S
H227 C242 0.940 . S
H228 C243 0.940 . S
H229 C245 0.939 . S
H230 C246 0.942 . S
H231 C248 0.940 . S
H232 C249 0.939 . S
H233 C251 0.941 . S
H234 C255 0.939 . S
O235 P224 1.490 . S
H236 C252 0.939 . S
H237 C254 0.940 . S
C238 P224 1.812 . S
C238 C239 1.389 . S
C238 C243 1.391 . S
C239 H225 0.941 . S
C239 C238 1.389 . S
C239 C240 1.397 . S
C240 H226 0.939 . S
C240 C239 1.397 . S
C240 C241 1.378 . S
C241 C240 1.378 . S
C241 C242 1.378 . S
C242 H227 0.940 . S
C242 C241 1.378 . S
C242 C243 1.396 . S
C243 H228 0.940 . S
C243 C238 1.391 . S
C243 C242 1.396 . S
C244 P224 1.803 . S
C244 C245 1.378 . S
C244 C249 1.400 . S
C245 H229 0.939 . S
C245 C244 1.378 . S
C245 C246 1.361 . S
C246 H230 0.942 . S
C246 C245 1.361 . S
C246 C247 1.369 . S
C247 C246 1.369 . S
C247 C248 1.404 . S
C248 H231 0.940 . S
C248 C247 1.404 . S
C248 C249 1.389 . S
C249 H232 0.939 . S
C249 C244 1.400 . S
C249 C248 1.389 . S
C250 P224 1.819 . S
C250 C251 1.391 . S
C250 C255 1.391 . S
C251 H233 0.941 . S
C251 C250 1.391 . S
C251 C252 1.396 . S
C252 H236 0.939 . S
C252 C251 1.396 . S
C252 C253 1.397 . S
C253 C252 1.397 . S
C253 C254 1.385 . S
C254 H237 0.940 . S
C254 C253 1.385 . S
C254 C255 1.388 . S
C255 H234 0.939 . S
C255 C250 1.391 . S
C255 C254 1.388 . S
C256 O258 1.247 . S
C256 O260 1.258 . S
C257 O264 1.247 . S
C257 O265 1.258 . S
O258 C256 1.247 . S
O258 Zn259 2.028 1_655 S
Zn259 O258 2.028 1_455 S
Zn259 O263 2.035 . S
Zn259 O265 2.035 . S
Zn259 O266 2.028 1_455 S
O260 C256 1.258 . S
O260 Zn261 2.035 1_655 S
Zn261 O260 2.035 1_455 S
Zn261 O262 2.028 . S
Zn261 O264 2.028 . S
Zn261 O267 2.035 1_455 S
O262 Zn261 2.028 . S
O262 C268 1.247 . S
O263 Zn259 2.035 . S
O263 C268 1.258 . S
O264 C257 1.247 . S
O264 Zn261 2.028 . S
O265 C257 1.258 . S
O265 Zn259 2.035 . S
O266 Zn259 2.028 1_655 S
O266 C269 1.247 . S
O267 Zn261 2.035 1_655 S
O267 C269 1.258 . S
C268 O262 1.247 . S
C268 O263 1.258 . S
C269 O266 1.247 . S
C269 O267 1.258 . S
C270 O272 1.247 . S
C270 O274 1.258 . S
C271 O278 1.247 . S
C271 O279 1.258 . S
O272 C270 1.247 . S
O272 Zn273 2.028 1_655 S
Zn273 O272 2.028 1_455 S
Zn273 O277 2.035 . S
Zn273 O279 2.035 . S
Zn273 O280 2.028 1_455 S
O274 C270 1.258 . S
O274 Zn275 2.045 . S
Zn275 O274 2.045 . S
Zn275 O276 2.017 1_655 S
Zn275 O278 2.018 1_655 S
Zn275 O281 2.046 . S
O276 Zn275 2.017 1_455 S
O276 C282 1.247 . S
O277 Zn273 2.035 . S
O277 C282 1.258 . S
O278 C271 1.247 . S
O278 Zn275 2.018 1_455 S
O279 C271 1.258 . S
O279 Zn273 2.035 . S
O280 Zn273 2.028 1_655 S
O280 C283 1.247 . S
O281 Zn275 2.046 . S
O281 C283 1.258 . S
C282 O276 1.247 . S
C282 O277 1.258 . S
C283 O280 1.247 . S
C283 O281 1.258 . S
C284 O286 1.247 . S
C284 O288 1.258 . S
C285 O292 1.247 . S
C285 O293 1.258 . S
O286 C284 1.247 . S
O286 Zn287 2.028 1_565 S
Zn287 O286 2.028 1_545 S
Zn287 O291 2.035 . S
Zn287 O293 2.035 . S
Zn287 O294 2.028 1_545 S
O288 C284 1.258 . S
O288 Zn289 2.035 1_565 S
Zn289 O288 2.035 1_545 S
Zn289 O290 2.028 . S
Zn289 O292 2.028 . S
Zn289 O295 2.035 1_545 S
O290 Zn289 2.028 . S
O290 C296 1.247 . S
O291 Zn287 2.035 . S
O291 C296 1.258 . S
O292 C285 1.247 . S
O292 Zn289 2.028 . S
O293 C285 1.258 . S
O293 Zn287 2.035 . S
O294 Zn287 2.028 1_565 S
O294 C297 1.247 . S
O295 Zn289 2.035 1_565 S
O295 C297 1.258 . S
C296 O290 1.247 . S
C296 O291 1.258 . S
C297 O294 1.247 . S
C297 O295 1.258 . S
C298 O300 1.247 . S
C298 O302 1.258 . S
C299 O306 1.247 . S
C299 O307 1.258 . S
O300 C298 1.247 . S
O300 Zn301 2.028 . S
Zn301 O300 2.028 . S
Zn301 O305 2.035 . S
Zn301 O307 2.035 1_554 S
Zn301 O308 2.028 1_554 S
O302 C298 1.258 . S
O302 Zn303 2.062 . S
Zn303 O302 2.062 . S
Zn303 O304 2.056 . S
Zn303 O306 2.001 1_554 S
Zn303 O309 2.008 1_554 S
O304 Zn303 2.056 . S
O304 C310 1.247 . S
O305 Zn301 2.035 . S
O305 C310 1.258 . S
O306 C299 1.247 . S
O306 Zn303 2.001 1_556 S
O307 C299 1.258 . S
O307 Zn301 2.035 1_556 S
O308 Zn301 2.028 1_556 S
O308 C311 1.247 . S
O309 Zn303 2.008 1_556 S
O309 C311 1.258 . S
C310 O304 1.247 . S
C310 O305 1.258 . S
C311 O308 1.247 . S
C311 O309 1.258 . S
C312 O314 1.247 . S
C312 O316 1.258 . S
C313 O320 1.247 . S
C313 O321 1.258 . S
O314 C312 1.247 . S
O314 Zn315 2.028 . S
Zn315 O314 2.028 . S
Zn315 O319 2.035 1_565 S
Zn315 O321 2.035 1_565 S
Zn315 O322 2.028 . S
O316 C312 1.258 . S
O316 Zn317 2.035 1_565 S
Zn317 O316 2.035 1_545 S
Zn317 O318 2.028 . S
Zn317 O320 2.028 . S
Zn317 O323 2.035 1_545 S
O318 Zn317 2.028 . S
O318 C324 1.247 . S
O319 Zn315 2.035 1_545 S
O319 C324 1.258 . S
O320 C313 1.247 . S
O320 Zn317 2.028 . S
O321 C313 1.258 . S
O321 Zn315 2.035 1_545 S
O322 Zn315 2.028 . S
O322 C325 1.247 . S
O323 Zn317 2.035 1_565 S
O323 C325 1.258 . S
C324 O318 1.247 . S
C324 O319 1.258 . S
C325 O322 1.247 . S
C325 O323 1.258 . S
C326 O328 1.247 . S
C326 O330 1.258 . S
C327 O334 1.247 . S
C327 O335 1.258 . S
O328 C326 1.247 . S
O328 Zn329 2.028 . S
Zn329 O328 2.028 . S
Zn329 O333 2.035 . S
Zn329 O335 2.035 1_554 S
Zn329 O336 2.028 1_554 S
O330 C326 1.258 . S
O330 Zn331 2.031 1_554 S
Zn331 O330 2.031 1_556 S
Zn331 O332 2.024 1_556 S
Zn331 O334 2.032 . S
Zn331 O337 2.039 . S
O332 Zn331 2.024 1_554 S
O332 C338 1.247 . S
O333 Zn329 2.035 . S
O333 C338 1.258 . S
O334 C327 1.247 . S
O334 Zn331 2.032 . S
O335 C327 1.258 . S
O335 Zn329 2.035 1_556 S
O336 Zn329 2.028 1_556 S
O336 C339 1.247 . S
O337 Zn331 2.039 . S
O337 C339 1.258 . S
C338 O332 1.247 . S
C338 O333 1.258 . S
C339 O336 1.247 . S
C339 O337 1.258 . S
H340 C352 0.930 . S
H341 C354 0.930 . S
H342 C355 0.930 . S
H343 C359 0.959 . S
H344 C359 0.959 . S
H345 C359 0.961 . S
H346 C360 0.960 . S
H347 C360 0.961 . S
H348 C360 0.959 . S
H349 C363 0.929 . S
H350 C364 0.931 . S
H351 C366 0.930 . S
C352 H340 0.930 . S
C352 C353 1.399 . S
C352 C357 1.399 . S
C353 C352 1.399 . S
C353 C354 1.376 . S
C354 H341 0.930 . S
C354 C353 1.376 . S
C354 C355 1.388 . S
C355 H342 0.930 . S
C355 C354 1.388 . S
C355 C356 1.390 . S
C356 C355 1.390 . S
C356 C357 1.394 . S
C356 C362 1.465 . S
C357 C352 1.399 . S
C357 C356 1.394 . S
C357 C358 1.516 . S
C358 C357 1.516 . S
C358 C359 1.502 . S
C358 C360 1.561 . S
C358 C361 1.526 . S
C359 H343 0.959 . S
C359 H344 0.959 . S
C359 H345 0.961 . S
C359 C358 1.502 . S
C360 H346 0.960 . S
C360 H347 0.961 . S
C360 H348 0.959 . S
C360 C358 1.561 . S
C361 C358 1.526 . S
C361 C362 1.396 . S
C361 C366 1.390 . S
C362 C356 1.465 . S
C362 C361 1.396 . S
C362 C363 1.399 . S
C363 H349 0.929 . S
C363 C362 1.399 . S
C363 C364 1.385 . S
C364 H350 0.931 . S
C364 C363 1.385 . S
C364 C365 1.389 . S
C365 C364 1.389 . S
C365 C366 1.387 . S
C366 H351 0.930 . S
C366 C361 1.390 . S
C366 C365 1.387 . S
H367 C379 0.930 . S
H368 C381 0.930 . S
H369 C382 0.930 . S
H370 C386 0.959 . S
H371 C386 0.959 . S
H372 C386 0.961 . S
H373 C387 0.960 . S
H374 C387 0.961 . S
H375 C387 0.959 . S
H376 C390 0.929 . S
H377 C391 0.931 . S
H378 C393 0.930 . S
C379 H367 0.930 . S
C379 C380 1.399 . S
C379 C384 1.399 . S
C380 C379 1.399 . S
C380 C381 1.376 . S
C381 H368 0.930 . S
C381 C380 1.376 . S
C381 C382 1.388 . S
C382 H369 0.930 . S
C382 C381 1.388 . S
C382 C383 1.390 . S
C383 C382 1.390 . S
C383 C384 1.394 . S
C383 C389 1.465 . S
C384 C379 1.399 . S
C384 C383 1.394 . S
C384 C385 1.516 . S
C385 C384 1.516 . S
C385 C386 1.502 . S
C385 C387 1.561 . S
C385 C388 1.526 . S
C386 H370 0.959 . S
C386 H371 0.959 . S
C386 H372 0.961 . S
C386 C385 1.502 . S
C387 H373 0.960 . S
C387 H374 0.961 . S
C387 H375 0.959 . S
C387 C385 1.561 . S
C388 C385 1.526 . S
C388 C389 1.396 . S
C388 C393 1.390 . S
C389 C383 1.465 . S
C389 C388 1.396 . S
C389 C390 1.399 . S
C390 H376 0.929 . S
C390 C389 1.399 . S
C390 C391 1.385 . S
C391 H377 0.931 . S
C391 C390 1.385 . S
C391 C392 1.389 . S
C392 C391 1.389 . S
C392 C393 1.387 . S
C393 H378 0.930 . S
C393 C388 1.390 . S
C393 C392 1.387 . S
H394 C406 0.930 . S
H395 C408 0.930 . S
H396 C409 0.930 . S
H397 C413 0.959 . S
H398 C413 0.959 . S
H399 C413 0.961 . S
H400 C414 0.960 . S
H401 C414 0.961 . S
H402 C414 0.959 . S
H403 C417 0.929 . S
H404 C418 0.931 . S
H405 C420 0.930 . S
C406 H394 0.930 . S
C406 C407 1.399 . S
C406 C411 1.399 . S
C407 C406 1.399 . S
C407 C408 1.376 . S
C408 H395 0.930 . S
C408 C407 1.376 . S
C408 C409 1.388 . S
C409 H396 0.930 . S
C409 C408 1.388 . S
C409 C410 1.390 . S
C410 C409 1.390 . S
C410 C411 1.394 . S
C410 C416 1.465 . S
C411 C406 1.399 . S
C411 C410 1.394 . S
C411 C412 1.516 . S
C412 C411 1.516 . S
C412 C413 1.502 . S
C412 C414 1.561 . S
C412 C415 1.526 . S
C413 H397 0.959 . S
C413 H398 0.959 . S
C413 H399 0.961 . S
C413 C412 1.502 . S
C414 H400 0.960 . S
C414 H401 0.961 . S
C414 H402 0.959 . S
C414 C412 1.561 . S
C415 C412 1.526 . S
C415 C416 1.396 . S
C415 C420 1.390 . S
C416 C410 1.465 . S
C416 C415 1.396 . S
C416 C417 1.399 . S
C417 H403 0.929 . S
C417 C416 1.399 . S
C417 C418 1.385 . S
C418 H404 0.931 . S
C418 C417 1.385 . S
C418 C419 1.389 . S
C419 C418 1.389 . S
C419 C420 1.387 . S
C420 H405 0.930 . S
C420 C415 1.390 . S
C420 C419 1.387 . S
H421 C433 0.930 . S
H422 C435 0.930 . S
H423 C436 0.930 . S
H424 C440 0.959 . S
H425 C440 0.959 . S
H426 C440 0.961 . S
H427 C441 0.960 . S
H428 C441 0.961 . S
H429 C441 0.959 . S
H430 C444 0.929 . S
H431 C445 0.931 . S
H432 C447 0.930 . S
C433 H421 0.930 . S
C433 C434 1.399 . S
C433 C438 1.399 . S
C434 C433 1.399 . S
C434 C435 1.376 . S
C435 H422 0.930 . S
C435 C434 1.376 . S
C435 C436 1.388 . S
C436 H423 0.930 . S
C436 C435 1.388 . S
C436 C437 1.390 . S
C437 C436 1.390 . S
C437 C438 1.394 . S
C437 C443 1.465 . S
C438 C433 1.399 . S
C438 C437 1.394 . S
C438 C439 1.516 . S
C439 C438 1.516 . S
C439 C440 1.502 . S
C439 C441 1.561 . S
C439 C442 1.526 . S
C440 H424 0.959 . S
C440 H425 0.959 . S
C440 H426 0.961 . S
C440 C439 1.502 . S
C441 H427 0.960 . S
C441 H428 0.961 . S
C441 H429 0.959 . S
C441 C439 1.561 . S
C442 C439 1.526 . S
C442 C443 1.396 . S
C442 C447 1.390 . S
C443 C437 1.465 . S
C443 C442 1.396 . S
C443 C444 1.399 . S
C444 H430 0.929 . S
C444 C443 1.399 . S
C444 C445 1.385 . S
C445 H431 0.931 . S
C445 C444 1.385 . S
C445 C446 1.389 . S
C446 C445 1.389 . S
C446 C447 1.387 . S
C447 H432 0.930 . S
C447 C442 1.390 . S
C447 C446 1.387 . S
H448 C460 0.930 . S
H449 C462 0.930 . S
H450 C463 0.930 . S
H451 C467 0.959 . S
H452 C467 0.959 . S
H453 C467 0.961 . S
H454 C468 0.960 . S
H455 C468 0.961 . S
H456 C468 0.959 . S
H457 C471 0.929 . S
H458 C472 0.931 . S
H459 C474 0.930 . S
C460 H448 0.930 . S
C460 C461 1.399 . S
C460 C465 1.399 . S
C461 C460 1.399 . S
C461 C462 1.376 . S
C462 H449 0.930 . S
C462 C461 1.376 . S
C462 C463 1.388 . S
C463 H450 0.930 . S
C463 C462 1.388 . S
C463 C464 1.390 . S
C464 C463 1.390 . S
C464 C465 1.394 . S
C464 C470 1.465 . S
C465 C460 1.399 . S
C465 C464 1.394 . S
C465 C466 1.516 . S
C466 C465 1.516 . S
C466 C467 1.502 . S
C466 C468 1.561 . S
C466 C469 1.526 . S
C467 H451 0.959 . S
C467 H452 0.959 . S
C467 H453 0.961 . S
C467 C466 1.502 . S
C468 H454 0.960 . S
C468 H455 0.961 . S
C468 H456 0.959 . S
C468 C466 1.561 . S
C469 C466 1.526 . S
C469 C470 1.396 . S
C469 C474 1.390 . S
C470 C464 1.465 . S
C470 C469 1.396 . S
C470 C471 1.399 . S
C471 H457 0.929 . S
C471 C470 1.399 . S
C471 C472 1.385 . S
C472 H458 0.931 . S
C472 C471 1.385 . S
C472 C473 1.389 . S
C473 C472 1.389 . S
C473 C474 1.387 . S
C474 H459 0.930 . S
C474 C469 1.390 . S
C474 C473 1.387 . S
H475 C487 0.930 . S
H476 C489 0.930 . S
H477 C490 0.930 . S
H478 C494 0.959 . S
H479 C494 0.959 . S
H480 C494 0.961 . S
H481 C495 0.960 . S
H482 C495 0.961 . S
H483 C495 0.959 . S
H484 C498 0.929 . S
H485 C499 0.931 . S
H486 C501 0.930 . S
C487 H475 0.930 . S
C487 C488 1.399 . S
C487 C492 1.399 . S
C488 C487 1.399 . S
C488 C489 1.376 . S
C489 H476 0.930 . S
C489 C488 1.376 . S
C489 C490 1.388 . S
C490 H477 0.930 . S
C490 C489 1.388 . S
C490 C491 1.390 . S
C491 C490 1.390 . S
C491 C492 1.394 . S
C491 C497 1.465 . S
C492 C487 1.399 . S
C492 C491 1.394 . S
C492 C493 1.516 . S
C493 C492 1.516 . S
C493 C494 1.502 . S
C493 C495 1.561 . S
C493 C496 1.526 . S
C494 H478 0.959 . S
C494 H479 0.959 . S
C494 H480 0.961 . S
C494 C493 1.502 . S
C495 H481 0.960 . S
C495 H482 0.961 . S
C495 H483 0.959 . S
C495 C493 1.561 . S
C496 C493 1.526 . S
C496 C497 1.396 . S
C496 C501 1.390 . S
C497 C491 1.465 . S
C497 C496 1.396 . S
C497 C498 1.399 . S
C498 H484 0.929 . S
C498 C497 1.399 . S
C498 C499 1.385 . S
C499 H485 0.931 . S
C499 C498 1.385 . S
C499 C500 1.389 . S
C500 C499 1.389 . S
C500 C501 1.387 . S
C501 H486 0.930 . S
C501 C496 1.390 . S
C501 C500 1.387 . S
H502 C514 0.930 . S
H503 C516 0.930 . S
H504 C517 0.930 . S
H505 C521 0.959 . S
H506 C521 0.959 . S
H507 C521 0.961 . S
H508 C522 0.960 . S
H509 C522 0.961 . S
H510 C522 0.959 . S
H511 C525 0.929 . S
H512 C526 0.931 . S
H513 C528 0.930 . S
C514 H502 0.930 . S
C514 C515 1.399 . S
C514 C519 1.399 . S
C515 C514 1.399 . S
C515 C516 1.376 . S
C516 H503 0.930 . S
C516 C515 1.376 . S
C516 C517 1.388 . S
C517 H504 0.930 . S
C517 C516 1.388 . S
C517 C518 1.390 . S
C518 C517 1.390 . S
C518 C519 1.394 . S
C518 C524 1.465 . S
C519 C514 1.399 . S
C519 C518 1.394 . S
C519 C520 1.516 . S
C520 C519 1.516 . S
C520 C521 1.502 . S
C520 C522 1.561 . S
C520 C523 1.526 . S
C521 H505 0.959 . S
C521 H506 0.959 . S
C521 H507 0.961 . S
C521 C520 1.502 . S
C522 H508 0.960 . S
C522 H509 0.961 . S
C522 H510 0.959 . S
C522 C520 1.561 . S
C523 C520 1.526 . S
C523 C524 1.396 . S
C523 C528 1.390 . S
C524 C518 1.465 . S
C524 C523 1.396 . S
C524 C525 1.399 . S
C525 H511 0.929 . S
C525 C524 1.399 . S
C525 C526 1.385 . S
C526 H512 0.931 . S
C526 C525 1.385 . S
C526 C527 1.389 . S
C527 C526 1.389 . S
C527 C528 1.387 . S
C528 H513 0.930 . S
C528 C523 1.390 . S
C528 C527 1.387 . S
H529 C541 0.930 . S
H530 C543 0.930 . S
H531 C544 0.930 . S
H532 C548 0.959 . S
H533 C548 0.959 . S
H534 C548 0.961 . S
H535 C549 0.960 . S
H536 C549 0.961 . S
H537 C549 0.959 . S
H538 C552 0.929 . S
H539 C553 0.931 . S
H540 C555 0.930 . S
C541 H529 0.930 . S
C541 C542 1.399 . S
C541 C546 1.399 . S
C542 C541 1.399 . S
C542 C543 1.376 . S
C543 H530 0.930 . S
C543 C542 1.376 . S
C543 C544 1.388 . S
C544 H531 0.930 . S
C544 C543 1.388 . S
C544 C545 1.390 . S
C545 C544 1.390 . S
C545 C546 1.394 . S
C545 C551 1.465 . S
C546 C541 1.399 . S
C546 C545 1.394 . S
C546 C547 1.516 . S
C547 C546 1.516 . S
C547 C548 1.502 . S
C547 C549 1.561 . S
C547 C550 1.526 . S
C548 H532 0.959 . S
C548 H533 0.959 . S
C548 H534 0.961 . S
C548 C547 1.502 . S
C549 H535 0.960 . S
C549 H536 0.961 . S
C549 H537 0.959 . S
C549 C547 1.561 . S
C550 C547 1.526 . S
C550 C551 1.396 . S
C550 C555 1.390 . S
C551 C545 1.465 . S
C551 C550 1.396 . S
C551 C552 1.399 . S
C552 H538 0.929 . S
C552 C551 1.399 . S
C552 C553 1.385 . S
C553 H539 0.931 . S
C553 C552 1.385 . S
C553 C554 1.389 . S
C554 C553 1.389 . S
C554 C555 1.387 . S
C555 H540 0.930 . S
C555 C550 1.390 . S
C555 C554 1.387 . S
H556 C568 0.930 . S
H557 C570 0.930 . S
H558 C571 0.930 . S
H559 C575 0.959 . S
H560 C575 0.959 . S
H561 C575 0.961 . S
H562 C576 0.960 . S
H563 C576 0.961 . S
H564 C576 0.959 . S
H565 C579 0.929 . S
H566 C580 0.931 . S
H567 C582 0.930 . S
C568 H556 0.930 . S
C568 C569 1.399 . S
C568 C573 1.399 . S
C569 C568 1.399 . S
C569 C570 1.376 . S
C570 H557 0.930 . S
C570 C569 1.376 . S
C570 C571 1.388 . S
C571 H558 0.930 . S
C571 C570 1.388 . S
C571 C572 1.390 . S
C572 C571 1.390 . S
C572 C573 1.394 . S
C572 C578 1.465 . S
C573 C568 1.399 . S
C573 C572 1.394 . S
C573 C574 1.516 . S
C574 C573 1.516 . S
C574 C575 1.502 . S
C574 C576 1.561 . S
C574 C577 1.526 . S
C575 H559 0.959 . S
C575 H560 0.959 . S
C575 H561 0.961 . S
C575 C574 1.502 . S
C576 H562 0.960 . S
C576 H563 0.961 . S
C576 H564 0.959 . S
C576 C574 1.561 . S
C577 C574 1.526 . S
C577 C578 1.396 . S
C577 C582 1.390 . S
C578 C572 1.465 . S
C578 C577 1.396 . S
C578 C579 1.399 . S
C579 H565 0.929 . S
C579 C578 1.399 . S
C579 C580 1.385 . S
C580 H566 0.931 . S
C580 C579 1.385 . S
C580 C581 1.389 . S
C581 C580 1.389 . S
C581 C582 1.387 . S
C582 H567 0.930 . S
C582 C577 1.390 . S
C582 C581 1.387 . S
H583 C595 0.930 . S
H584 C597 0.930 . S
H585 C598 0.930 . S
H586 C602 0.959 . S
H587 C602 0.959 . S
H588 C602 0.961 . S
H589 C603 0.960 . S
H590 C603 0.961 . S
H591 C603 0.959 . S
H592 C606 0.929 . S
H593 C607 0.931 . S
H594 C609 0.930 . S
C595 H583 0.930 . S
C595 C596 1.399 . S
C595 C600 1.399 . S
C596 C595 1.399 . S
C596 C597 1.376 . S
C597 H584 0.930 . S
C597 C596 1.376 . S
C597 C598 1.388 . S
C598 H585 0.930 . S
C598 C597 1.388 . S
C598 C599 1.390 . S
C599 C598 1.390 . S
C599 C600 1.394 . S
C599 C605 1.465 . S
C600 C595 1.399 . S
C600 C599 1.394 . S
C600 C601 1.516 . S
C601 C600 1.516 . S
C601 C602 1.502 . S
C601 C603 1.561 . S
C601 C604 1.526 . S
C602 H586 0.959 . S
C602 H587 0.959 . S
C602 H588 0.961 . S
C602 C601 1.502 . S
C603 H589 0.960 . S
C603 H590 0.961 . S
C603 H591 0.959 . S
C603 C601 1.561 . S
C604 C601 1.526 . S
C604 C605 1.396 . S
C604 C609 1.390 . S
C605 C599 1.465 . S
C605 C604 1.396 . S
C605 C606 1.399 . S
C606 H592 0.929 . S
C606 C605 1.399 . S
C606 C607 1.385 . S
C607 H593 0.931 . S
C607 C606 1.385 . S
C607 C608 1.389 . S
C608 C607 1.389 . S
C608 C609 1.387 . S
C609 H594 0.930 . S
C609 C604 1.390 . S
C609 C608 1.387 . S
H610 C622 0.930 . S
H611 C624 0.930 . S
H612 C625 0.930 . S
H613 C629 0.959 . S
H614 C629 0.959 . S
H615 C629 0.961 . S
H616 C630 0.960 . S
H617 C630 0.961 . S
H618 C630 0.959 . S
H619 C633 0.929 . S
H620 C634 0.931 . S
H621 C636 0.930 . S
C622 H610 0.930 . S
C622 C623 1.399 . S
C622 C627 1.399 . S
C623 C622 1.399 . S
C623 C624 1.376 . S
C624 H611 0.930 . S
C624 C623 1.376 . S
C624 C625 1.388 . S
C625 H612 0.930 . S
C625 C624 1.388 . S
C625 C626 1.390 . S
C626 C625 1.390 . S
C626 C627 1.394 . S
C626 C632 1.465 . S
C627 C622 1.399 . S
C627 C626 1.394 . S
C627 C628 1.516 . S
C628 C627 1.516 . S
C628 C629 1.502 . S
C628 C630 1.561 . S
C628 C631 1.526 . S
C629 H613 0.959 . S
C629 H614 0.959 . S
C629 H615 0.961 . S
C629 C628 1.502 . S
C630 H616 0.960 . S
C630 H617 0.961 . S
C630 H618 0.959 . S
C630 C628 1.561 . S
C631 C628 1.526 . S
C631 C632 1.396 . S
C631 C636 1.390 . S
C632 C626 1.465 . S
C632 C631 1.396 . S
C632 C633 1.399 . S
C633 H619 0.929 . S
C633 C632 1.399 . S
C633 C634 1.385 . S
C634 H620 0.931 . S
C634 C633 1.385 . S
C634 C635 1.389 . S
C635 C634 1.389 . S
C635 C636 1.387 . S
C636 H621 0.930 . S
C636 C631 1.390 . S
C636 C635 1.387 . S
H637 C649 0.930 . S
H638 C651 0.930 . S
H639 C652 0.930 . S
H640 C656 0.959 . S
H641 C656 0.959 . S
H642 C656 0.961 . S
H643 C657 0.960 . S
H644 C657 0.961 . S
H645 C657 0.959 . S
H646 C660 0.929 . S
H647 C661 0.931 . S
H648 C663 0.930 . S
C649 H637 0.930 . S
C649 C650 1.399 . S
C649 C654 1.399 . S
C650 C649 1.399 . S
C650 C651 1.376 . S
C651 H638 0.930 . S
C651 C650 1.376 . S
C651 C652 1.388 . S
C652 H639 0.930 . S
C652 C651 1.388 . S
C652 C653 1.390 . S
C653 C652 1.390 . S
C653 C654 1.394 . S
C653 C659 1.465 . S
C654 C649 1.399 . S
C654 C653 1.394 . S
C654 C655 1.516 . S
C655 C654 1.516 . S
C655 C656 1.502 . S
C655 C657 1.561 . S
C655 C658 1.526 . S
C656 H640 0.959 . S
C656 H641 0.959 . S
C656 H642 0.961 . S
C656 C655 1.502 . S
C657 H643 0.960 . S
C657 H644 0.961 . S
C657 H645 0.959 . S
C657 C655 1.561 . S
C658 C655 1.526 . S
C658 C659 1.396 . S
C658 C663 1.390 . S
C659 C653 1.465 . S
C659 C658 1.396 . S
C659 C660 1.399 . S
C660 H646 0.929 . S
C660 C659 1.399 . S
C660 C661 1.385 . S
C661 H647 0.931 . S
C661 C660 1.385 . S
C661 C662 1.389 . S
C662 C661 1.389 . S
C662 C663 1.387 . S
C663 H648 0.930 . S
C663 C658 1.390 . S
C663 C662 1.387 . S
H664 C676 0.930 . S
H665 C678 0.930 . S
H666 C679 0.930 . S
H667 C683 0.959 . S
H668 C683 0.959 . S
H669 C683 0.961 . S
H670 C684 0.960 . S
H671 C684 0.961 . S
H672 C684 0.959 . S
H673 C687 0.929 . S
H674 C688 0.931 . S
H675 C690 0.930 . S
C676 H664 0.930 . S
C676 C677 1.399 . S
C676 C681 1.399 . S
C677 C676 1.399 . S
C677 C678 1.376 . S
C678 H665 0.930 . S
C678 C677 1.376 . S
C678 C679 1.388 . S
C679 H666 0.930 . S
C679 C678 1.388 . S
C679 C680 1.390 . S
C680 C679 1.390 . S
C680 C681 1.394 . S
C680 C686 1.465 . S
C681 C676 1.399 . S
C681 C680 1.394 . S
C681 C682 1.516 . S
C682 C681 1.516 . S
C682 C683 1.502 . S
C682 C684 1.561 . S
C682 C685 1.526 . S
C683 H667 0.959 . S
C683 H668 0.959 . S
C683 H669 0.961 . S
C683 C682 1.502 . S
C684 H670 0.960 . S
C684 H671 0.961 . S
C684 H672 0.959 . S
C684 C682 1.561 . S
C685 C682 1.526 . S
C685 C686 1.396 . S
C685 C690 1.390 . S
C686 C680 1.465 . S
C686 C685 1.396 . S
C686 C687 1.399 . S
C687 H673 0.929 . S
C687 C686 1.399 . S
C687 C688 1.385 . S
C688 H674 0.931 . S
C688 C687 1.385 . S
C688 C689 1.389 . S
C689 C688 1.389 . S
C689 C690 1.387 . S
C690 H675 0.930 . S
C690 C685 1.390 . S
C690 C689 1.387 . S
H691 C703 0.930 . S
H692 C705 0.930 . S
H693 C706 0.930 . S
H694 C710 0.959 . S
H695 C710 0.959 . S
H696 C710 0.961 . S
H697 C711 0.960 . S
H698 C711 0.961 . S
H699 C711 0.959 . S
H700 C714 0.929 . S
H701 C715 0.931 . S
H702 C717 0.930 . S
C703 H691 0.930 . S
C703 C704 1.399 . S
C703 C708 1.399 . S
C704 C703 1.399 . S
C704 C705 1.376 . S
C705 H692 0.930 . S
C705 C704 1.376 . S
C705 C706 1.388 . S
C706 H693 0.930 . S
C706 C705 1.388 . S
C706 C707 1.390 . S
C707 C706 1.390 . S
C707 C708 1.394 . S
C707 C713 1.465 . S
C708 C703 1.399 . S
C708 C707 1.394 . S
C708 C709 1.516 . S
C709 C708 1.516 . S
C709 C710 1.502 . S
C709 C711 1.561 . S
C709 C712 1.526 . S
C710 H694 0.959 . S
C710 H695 0.959 . S
C710 H696 0.961 . S
C710 C709 1.502 . S
C711 H697 0.960 . S
C711 H698 0.961 . S
C711 H699 0.959 . S
C711 C709 1.561 . S
C712 C709 1.526 . S
C712 C713 1.396 . S
C712 C717 1.390 . S
C713 C707 1.465 . S
C713 C712 1.396 . S
C713 C714 1.399 . S
C714 H700 0.929 . S
C714 C713 1.399 . S
C714 C715 1.385 . S
C715 H701 0.931 . S
C715 C714 1.385 . S
C715 C716 1.389 . S
C716 C715 1.389 . S
C716 C717 1.387 . S
C717 H702 0.930 . S
C717 C712 1.390 . S
C717 C716 1.387 . S
H718 C730 0.930 . S
H719 C732 0.930 . S
H720 C733 0.930 . S
H721 C737 0.959 . S
H722 C737 0.959 . S
H723 C737 0.961 . S
H724 C738 0.960 . S
H725 C738 0.961 . S
H726 C738 0.959 . S
H727 C741 0.929 . S
H728 C742 0.931 . S
H729 C744 0.930 . S
C730 H718 0.930 . S
C730 C731 1.399 . S
C730 C735 1.399 . S
C731 C730 1.399 . S
C731 C732 1.376 . S
C732 H719 0.930 . S
C732 C731 1.376 . S
C732 C733 1.388 . S
C733 H720 0.930 . S
C733 C732 1.388 . S
C733 C734 1.390 . S
C734 C733 1.390 . S
C734 C735 1.394 . S
C734 C740 1.465 . S
C735 C730 1.399 . S
C735 C734 1.394 . S
C735 C736 1.516 . S
C736 C735 1.516 . S
C736 C737 1.502 . S
C736 C738 1.561 . S
C736 C739 1.526 . S
C737 H721 0.959 . S
C737 H722 0.959 . S
C737 H723 0.961 . S
C737 C736 1.502 . S
C738 H724 0.960 . S
C738 H725 0.961 . S
C738 H726 0.959 . S
C738 C736 1.561 . S
C739 C736 1.526 . S
C739 C740 1.396 . S
C739 C744 1.390 . S
C740 C734 1.465 . S
C740 C739 1.396 . S
C740 C741 1.399 . S
C741 H727 0.929 . S
C741 C740 1.399 . S
C741 C742 1.385 . S
C742 H728 0.931 . S
C742 C741 1.385 . S
C742 C743 1.389 . S
C743 C742 1.389 . S
C743 C744 1.387 . S
C744 H729 0.930 . S
C744 C739 1.390 . S
C744 C743 1.387 . S
H745 C757 0.930 . S
H746 C759 0.930 . S
H747 C760 0.930 . S
H748 C764 0.959 . S
H749 C764 0.959 . S
H750 C764 0.961 . S
H751 C765 0.960 . S
H752 C765 0.961 . S
H753 C765 0.959 . S
H754 C768 0.929 . S
H755 C769 0.931 . S
H756 C771 0.930 . S
C757 H745 0.930 . S
C757 C758 1.399 . S
C757 C762 1.399 . S
C758 C757 1.399 . S
C758 C759 1.376 . S
C759 H746 0.930 . S
C759 C758 1.376 . S
C759 C760 1.388 . S
C760 H747 0.930 . S
C760 C759 1.388 . S
C760 C761 1.390 . S
C761 C760 1.390 . S
C761 C762 1.394 . S
C761 C767 1.465 . S
C762 C757 1.399 . S
C762 C761 1.394 . S
C762 C763 1.516 . S
C763 C762 1.516 . S
C763 C764 1.502 . S
C763 C765 1.561 . S
C763 C766 1.526 . S
C764 H748 0.959 . S
C764 H749 0.959 . S
C764 H750 0.961 . S
C764 C763 1.502 . S
C765 H751 0.960 . S
C765 H752 0.961 . S
C765 H753 0.959 . S
C765 C763 1.561 . S
C766 C763 1.526 . S
C766 C767 1.396 . S
C766 C771 1.390 . S
C767 C761 1.465 . S
C767 C766 1.396 . S
C767 C768 1.399 . S
C768 H754 0.929 . S
C768 C767 1.399 . S
C768 C769 1.385 . S
C769 H755 0.931 . S
C769 C768 1.385 . S
C769 C770 1.389 . S
C770 C769 1.389 . S
C770 C771 1.387 . S
C771 H756 0.930 . S
C771 C766 1.390 . S
C771 C770 1.387 . S
H772 C784 0.930 . S
H773 C786 0.930 . S
H774 C787 0.930 . S
H775 C791 0.959 . S
H776 C791 0.959 . S
H777 C791 0.961 . S
H778 C792 0.960 . S
H779 C792 0.961 . S
H780 C792 0.959 . S
H781 C795 0.929 . S
H782 C796 0.931 . S
H783 C798 0.930 . S
C784 H772 0.930 . S
C784 C785 1.399 . S
C784 C789 1.399 . S
C785 C784 1.399 . S
C785 C786 1.376 . S
C786 H773 0.930 . S
C786 C785 1.376 . S
C786 C787 1.388 . S
C787 H774 0.930 . S
C787 C786 1.388 . S
C787 C788 1.390 . S
C788 C787 1.390 . S
C788 C789 1.394 . S
C788 C794 1.465 . S
C789 C784 1.399 . S
C789 C788 1.394 . S
C789 C790 1.516 . S
C790 C789 1.516 . S
C790 C791 1.502 . S
C790 C792 1.561 . S
C790 C793 1.526 . S
C791 H775 0.959 . S
C791 H776 0.959 . S
C791 H777 0.961 . S
C791 C790 1.502 . S
C792 H778 0.960 . S
C792 H779 0.961 . S
C792 H780 0.959 . S
C792 C790 1.561 . S
C793 C790 1.526 . S
C793 C794 1.396 . S
C793 C798 1.390 . S
C794 C788 1.465 . S
C794 C793 1.396 . S
C794 C795 1.399 . S
C795 H781 0.929 . S
C795 C794 1.399 . S
C795 C796 1.385 . S
C796 H782 0.931 . S
C796 C795 1.385 . S
C796 C797 1.389 . S
C797 C796 1.389 . S
C797 C798 1.387 . S
C798 H783 0.930 . S
C798 C793 1.390 . S
C798 C797 1.387 . S
H799 C811 0.930 . S
H800 C813 0.930 . S
H801 C814 0.930 . S
H802 C818 0.959 . S
H803 C818 0.959 . S
H804 C818 0.961 . S
H805 C819 0.960 . S
H806 C819 0.961 . S
H807 C819 0.959 . S
H808 C822 0.929 . S
H809 C823 0.931 . S
H810 C825 0.930 . S
C811 H799 0.930 . S
C811 C812 1.399 . S
C811 C816 1.399 . S
C812 C811 1.399 . S
C812 C813 1.376 . S
C813 H800 0.930 . S
C813 C812 1.376 . S
C813 C814 1.388 . S
C814 H801 0.930 . S
C814 C813 1.388 . S
C814 C815 1.390 . S
C815 C814 1.390 . S
C815 C816 1.394 . S
C815 C821 1.465 . S
C816 C811 1.399 . S
C816 C815 1.394 . S
C816 C817 1.516 . S
C817 C816 1.516 . S
C817 C818 1.502 . S
C817 C819 1.561 . S
C817 C820 1.526 . S
C818 H802 0.959 . S
C818 H803 0.959 . S
C818 H804 0.961 . S
C818 C817 1.502 . S
C819 H805 0.960 . S
C819 H806 0.961 . S
C819 H807 0.959 . S
C819 C817 1.561 . S
C820 C817 1.526 . S
C820 C821 1.396 . S
C820 C825 1.390 . S
C821 C815 1.465 . S
C821 C820 1.396 . S
C821 C822 1.399 . S
C822 H808 0.929 . S
C822 C821 1.399 . S
C822 C823 1.385 . S
C823 H809 0.931 . S
C823 C822 1.385 . S
C823 C824 1.389 . S
C824 C823 1.389 . S
C824 C825 1.387 . S
C825 H810 0.930 . S
C825 C820 1.390 . S
C825 C824 1.387 . S
H826 C838 0.930 . S
H827 C840 0.930 . S
H828 C841 0.930 . S
H829 C845 0.959 . S
H830 C845 0.959 . S
H831 C845 0.961 . S
H832 C846 0.960 . S
H833 C846 0.961 . S
H834 C846 0.959 . S
H835 C849 0.929 . S
H836 C850 0.931 . S
H837 C852 0.930 . S
C838 H826 0.930 . S
C838 C839 1.399 . S
C838 C843 1.399 . S
C839 C838 1.399 . S
C839 C840 1.376 . S
C840 H827 0.930 . S
C840 C839 1.376 . S
C840 C841 1.388 . S
C841 H828 0.930 . S
C841 C840 1.388 . S
C841 C842 1.390 . S
C842 C841 1.390 . S
C842 C843 1.394 . S
C842 C848 1.465 . S
C843 C838 1.399 . S
C843 C842 1.394 . S
C843 C844 1.516 . S
C844 C843 1.516 . S
C844 C845 1.502 . S
C844 C846 1.561 . S
C844 C847 1.526 . S
C845 H829 0.959 . S
C845 H830 0.959 . S
C845 H831 0.961 . S
C845 C844 1.502 . S
C846 H832 0.960 . S
C846 H833 0.961 . S
C846 H834 0.959 . S
C846 C844 1.561 . S
C847 C844 1.526 . S
C847 C848 1.396 . S
C847 C852 1.390 . S
C848 C842 1.465 . S
C848 C847 1.396 . S
C848 C849 1.399 . S
C849 H835 0.929 . S
C849 C848 1.399 . S
C849 C850 1.385 . S
C850 H836 0.931 . S
C850 C849 1.385 . S
C850 C851 1.389 . S
C851 C850 1.389 . S
C851 C852 1.387 . S
C852 H837 0.930 . S
C852 C847 1.390 . S
C852 C851 1.387 . S
H853 C865 0.930 . S
H854 C867 0.930 . S
H855 C868 0.930 . S
H856 C872 0.959 . S
H857 C872 0.959 . S
H858 C872 0.961 . S
H859 C873 0.960 . S
H860 C873 0.961 . S
H861 C873 0.959 . S
H862 C876 0.929 . S
H863 C877 0.931 . S
H864 C879 0.930 . S
C865 H853 0.930 . S
C865 C866 1.399 . S
C865 C870 1.399 . S
C866 C865 1.399 . S
C866 C867 1.376 . S
C867 H854 0.930 . S
C867 C866 1.376 . S
C867 C868 1.388 . S
C868 H855 0.930 . S
C868 C867 1.388 . S
C868 C869 1.390 . S
C869 C868 1.390 . S
C869 C870 1.394 . S
C869 C875 1.465 . S
C870 C865 1.399 . S
C870 C869 1.394 . S
C870 C871 1.516 . S
C871 C870 1.516 . S
C871 C872 1.502 . S
C871 C873 1.561 . S
C871 C874 1.526 . S
C872 H856 0.959 . S
C872 H857 0.959 . S
C872 H858 0.961 . S
C872 C871 1.502 . S
C873 H859 0.960 . S
C873 H860 0.961 . S
C873 H861 0.959 . S
C873 C871 1.561 . S
C874 C871 1.526 . S
C874 C875 1.396 . S
C874 C879 1.390 . S
C875 C869 1.465 . S
C875 C874 1.396 . S
C875 C876 1.399 . S
C876 H862 0.929 . S
C876 C875 1.399 . S
C876 C877 1.385 . S
C877 H863 0.931 . S
C877 C876 1.385 . S
C877 C878 1.389 . S
C878 C877 1.389 . S
C878 C879 1.387 . S
C879 H864 0.930 . S
C879 C874 1.390 . S
C879 C878 1.387 . S
H880 C892 0.930 . S
H881 C894 0.930 . S
H882 C895 0.930 . S
H883 C899 0.959 . S
H884 C899 0.959 . S
H885 C899 0.961 . S
H886 C900 0.960 . S
H887 C900 0.961 . S
H888 C900 0.959 . S
H889 C903 0.929 . S
H890 C904 0.931 . S
H891 C906 0.930 . S
C892 H880 0.930 . S
C892 C893 1.399 . S
C892 C897 1.399 . S
C893 C892 1.399 . S
C893 C894 1.376 . S
C894 H881 0.930 . S
C894 C893 1.376 . S
C894 C895 1.388 . S
C895 H882 0.930 . S
C895 C894 1.388 . S
C895 C896 1.390 . S
C896 C895 1.390 . S
C896 C897 1.394 . S
C896 C902 1.465 . S
C897 C892 1.399 . S
C897 C896 1.394 . S
C897 C898 1.516 . S
C898 C897 1.516 . S
C898 C899 1.502 . S
C898 C900 1.561 . S
C898 C901 1.526 . S
C899 H883 0.959 . S
C899 H884 0.959 . S
C899 H885 0.961 . S
C899 C898 1.502 . S
C900 H886 0.960 . S
C900 H887 0.961 . S
C900 H888 0.959 . S
C900 C898 1.561 . S
C901 C898 1.526 . S
C901 C902 1.396 . S
C901 C906 1.390 . S
C902 C896 1.465 . S
C902 C901 1.396 . S
C902 C903 1.399 . S
C903 H889 0.929 . S
C903 C902 1.399 . S
C903 C904 1.385 . S
C904 H890 0.931 . S
C904 C903 1.385 . S
C904 C905 1.389 . S
C905 C904 1.389 . S
C905 C906 1.387 . S
C906 H891 0.930 . S
C906 C901 1.390 . S
C906 C905 1.387 . S
H907 C919 0.930 . S
H908 C921 0.930 . S
H909 C922 0.930 . S
H910 C926 0.959 . S
H911 C926 0.959 . S
H912 C926 0.961 . S
H913 C927 0.960 . S
H914 C927 0.961 . S
H915 C927 0.959 . S
H916 C930 0.929 . S
H917 C931 0.931 . S
H918 C933 0.930 . S
C919 H907 0.930 . S
C919 C920 1.399 . S
C919 C924 1.399 . S
C920 C919 1.399 . S
C920 C921 1.376 . S
C921 H908 0.930 . S
C921 C920 1.376 . S
C921 C922 1.388 . S
C922 H909 0.930 . S
C922 C921 1.388 . S
C922 C923 1.390 . S
C923 C922 1.390 . S
C923 C924 1.394 . S
C923 C929 1.465 . S
C924 C919 1.399 . S
C924 C923 1.394 . S
C924 C925 1.516 . S
C925 C924 1.516 . S
C925 C926 1.502 . S
C925 C927 1.561 . S
C925 C928 1.526 . S
C926 H910 0.959 . S
C926 H911 0.959 . S
C926 H912 0.961 . S
C926 C925 1.502 . S
C927 H913 0.960 . S
C927 H914 0.961 . S
C927 H915 0.959 . S
C927 C925 1.561 . S
C928 C925 1.526 . S
C928 C929 1.396 . S
C928 C933 1.390 . S
C929 C923 1.465 . S
C929 C928 1.396 . S
C929 C930 1.399 . S
C930 H916 0.929 . S
C930 C929 1.399 . S
C930 C931 1.385 . S
C931 H917 0.931 . S
C931 C930 1.385 . S
C931 C932 1.389 . S
C932 C931 1.389 . S
C932 C933 1.387 . S
C933 H918 0.930 . S
C933 C928 1.390 . S
C933 C932 1.387 . S
H934 C946 0.930 . S
H935 C948 0.930 . S
H936 C949 0.930 . S
H937 C953 0.959 . S
H938 C953 0.959 . S
H939 C953 0.961 . S
H940 C954 0.960 . S
H941 C954 0.961 . S
H942 C954 0.959 . S
H943 C957 0.929 . S
H944 C958 0.931 . S
H945 C960 0.930 . S
C946 H934 0.930 . S
C946 C947 1.399 . S
C946 C951 1.399 . S
C947 C946 1.399 . S
C947 C948 1.376 . S
C948 H935 0.930 . S
C948 C947 1.376 . S
C948 C949 1.388 . S
C949 H936 0.930 . S
C949 C948 1.388 . S
C949 C950 1.390 . S
C950 C949 1.390 . S
C950 C951 1.394 . S
C950 C956 1.465 . S
C951 C946 1.399 . S
C951 C950 1.394 . S
C951 C952 1.516 . S
C952 C951 1.516 . S
C952 C953 1.502 . S
C952 C954 1.561 . S
C952 C955 1.526 . S
C953 H937 0.959 . S
C953 H938 0.959 . S
C953 H939 0.961 . S
C953 C952 1.502 . S
C954 H940 0.960 . S
C954 H941 0.961 . S
C954 H942 0.959 . S
C954 C952 1.561 . S
C955 C952 1.526 . S
C955 C956 1.396 . S
C955 C960 1.390 . S
C956 C950 1.465 . S
C956 C955 1.396 . S
C956 C957 1.399 . S
C957 H943 0.929 . S
C957 C956 1.399 . S
C957 C958 1.385 . S
C958 H944 0.931 . S
C958 C957 1.385 . S
C958 C959 1.389 . S
C959 C958 1.389 . S
C959 C960 1.387 . S
C960 H945 0.930 . S
C960 C955 1.390 . S
C960 C959 1.387 . S
H961 C973 0.930 . S
H962 C975 0.930 . S
H963 C976 0.930 . S
H964 C980 0.959 . S
H965 C980 0.959 . S
H966 C980 0.961 . S
H967 C981 0.960 . S
H968 C981 0.961 . S
H969 C981 0.959 . S
H970 C984 0.929 . S
H971 C985 0.931 . S
H972 C987 0.930 . S
C973 H961 0.930 . S
C973 C974 1.399 . S
C973 C978 1.399 . S
C974 C973 1.399 . S
C974 C975 1.376 . S
C975 H962 0.930 . S
C975 C974 1.376 . S
C975 C976 1.388 . S
C976 H963 0.930 . S
C976 C975 1.388 . S
C976 C977 1.390 . S
C977 C976 1.390 . S
C977 C978 1.394 . S
C977 C983 1.465 . S
C978 C973 1.399 . S
C978 C977 1.394 . S
C978 C979 1.516 . S
C979 C978 1.516 . S
C979 C980 1.502 . S
C979 C981 1.561 . S
C979 C982 1.526 . S
C980 H964 0.959 . S
C980 H965 0.959 . S
C980 H966 0.961 . S
C980 C979 1.502 . S
C981 H967 0.960 . S
C981 H968 0.961 . S
C981 H969 0.959 . S
C981 C979 1.561 . S
C982 C979 1.526 . S
C982 C983 1.396 . S
C982 C987 1.390 . S
C983 C977 1.465 . S
C983 C982 1.396 . S
C983 C984 1.399 . S
C984 H970 0.929 . S
C984 C983 1.399 . S
C984 C985 1.385 . S
C985 H971 0.931 . S
C985 C984 1.385 . S
C985 C986 1.389 . S
C986 C985 1.389 . S
C986 C987 1.387 . S
C987 H972 0.930 . S
C987 C982 1.390 . S
C987 C986 1.387 . S
C365 C268 1.497 . S
C353 C23 1.498 . S
C392 C271 1.487 . S
C380 C49 1.468 . S
C419 C269 1.509 . S
C407 C87 1.486 . S
C446 C270 1.498 . S
C434 C125 1.468 . S
C473 C285 1.498 . S
C461 C29 1.507 . S
C500 C299 1.501 . S
C488 C61 1.470 . S
C515 C81 1.495 . S
C527 C325 1.501 . S
C554 C339 1.505 . S
C542 C113 1.475 . S
C581 C284 1.491 . S
C569 C55 1.443 . S
C596 C93 1.471 . S
C608 C298 1.513 . S
C635 C324 1.486 . S
C623 C119 1.435 . S
C662 C338 1.511 . S
C650 C17 1.483 . S
C677 C151 1.447 . S
C689 C283 1.513 . S
C716 C256 1.488 . S
C704 C177 1.449 . S
C731 C215 1.507 . S
C743 C282 1.502 . S
C758 C253 1.507 . S
C770 C257 1.507 . S
C797 C312 1.504 . S
C785 C157 1.497 . S
C824 C326 1.491 . S
C812 C189 1.431 . S
C851 C296 1.502 . S
C839 C209 1.471 . S
C866 C241 1.501 . S
C878 C310 1.496 . S
C905 C313 1.481 . S
C893 C183 1.464 . S
C932 C327 1.512 . S
C920 C221 1.454 . S
C959 C297 1.486 . S
C947 C247 1.478 . S
C974 C145 1.450 . S
C986 C311 1.502 . S
