# Generated by pormake.
# Topology rtl, (3,6)-cn, num edge types: 1
# Building blocks:
#     Node 0, Type 0, BuildingBlock: QEWDON_clean_linker_0, # of connection points: 3
#     Node 1, Type 0, BuildingBlock: QEWDON_clean_linker_0, # of connection points: 3
#     Node 2, Type 0, BuildingBlock: QEWDON_clean_linker_0, # of connection points: 3
#     Node 3, Type 0, BuildingBlock: QEWDON_clean_linker_0, # of connection points: 3
#     Node 4, Type 1, BuildingBlock: KUMBOL_clean_sbu_1, # of connection points: 6
#     Node 5, Type 1, BuildingBlock: KUMBOL_clean_sbu_1, # of connection points: 6
#     Edge 6, Type (0, 1), BuildingBlock: AJUNOK_clean_linker_0, # of connection points: 2
#     Edge 7, Type (0, 1), BuildingBlock: AJUNOK_clean_linker_0, # of connection points: 2
#     Edge 8, Type (0, 1), BuildingBlock: AJUNOK_clean_linker_0, # of connection points: 2
#     Edge 9, Type (0, 1), BuildingBlock: AJUNOK_clean_linker_0, # of connection points: 2
#     Edge 10, Type (0, 1), BuildingBlock: AJUNOK_clean_linker_0, # of connection points: 2
#     Edge 11, Type (0, 1), BuildingBlock: AJUNOK_clean_linker_0, # of connection points: 2
#     Edge 12, Type (0, 1), BuildingBlock: AJUNOK_clean_linker_0, # of connection points: 2
#     Edge 13, Type (0, 1), BuildingBlock: AJUNOK_clean_linker_0, # of connection points: 2
#     Edge 14, Type (0, 1), BuildingBlock: AJUNOK_clean_linker_0, # of connection points: 2
#     Edge 15, Type (0, 1), BuildingBlock: AJUNOK_clean_linker_0, # of connection points: 2
#     Edge 16, Type (0, 1), BuildingBlock: AJUNOK_clean_linker_0, # of connection points: 2
#     Edge 17, Type (0, 1), BuildingBlock: AJUNOK_clean_linker_0, # of connection points: 2
# Relax obj value: 0.087
# Max RMSD: 0.289
# Mean RMSD: 0.218
data_MOF--net-rtl--node1-KUMBOL_clean_sbu_1--node2-QEWDON_clean_linker_0--edge1-AJUNOK_clean_linker_0
_symmetry_space_group_name_H-M    P1
_symmetry_Int_Tables_number       1
_symmetry_cell_setting            triclinic
loop_
_symmetry_equiv_pos_as_xyz
'x, y, z'
_cell_length_a     28.23635
_cell_length_b     28.500523
_cell_length_c     20.261592
_cell_angle_alpha  75.268989
_cell_angle_beta   99.686612
_cell_angle_gamma 91.048035
loop_
_atom_site_label
_atom_site_type_symbol
_atom_site_fract_x
_atom_site_fract_y
_atom_site_fract_z
_atom_type_partial_charge
H0 H 0.25324 0.84915 0.12673 0.0
C1 C 0.23426 0.85847 0.07378 0.0
C2 C 0.18878 0.88153 0.05838 0.0
C3 C 0.25641 0.84983 0.02034 0.0
H4 H 0.13041 0.9138 0.97773 0.0
C5 C 0.16516 0.8951 0.98975 0.0
C6 C 0.18655 0.88705 0.93603 0.0
C7 C 0.23233 0.86436 0.95127 0.0
C8 C 0.3073 0.83256 0.03607 0.0
H9 H 0.24977 0.85966 0.90954 0.0
C10 C 0.32122 0.78738 0.02748 0.0
C11 C 0.36996 0.77181 0.04585 0.0
C12 C 0.34248 0.86196 0.06154 0.0
H13 H 0.33257 0.89679 0.06829 0.0
C14 C 0.39067 0.84691 0.07831 0.0
H15 H 0.29435 0.76408 1.00869 0.0
C16 C 0.40435 0.80206 0.07086 0.0
H17 H 0.44189 0.79063 0.08531 0.0
H18 H 0.41748 0.86991 0.09782 0.0
H19 H 0.76125 0.70876 0.61979 0.0
C20 C 0.73652 0.69728 0.65598 0.0
C21 C 0.69737 0.66833 0.63979 0.0
C22 C 0.7457 0.70858 0.72067 0.0
H23 H 0.63818 0.62753 0.67833 0.0
C24 C 0.66717 0.6514 0.68899 0.0
C25 C 0.67584 0.66203 0.75389 0.0
C26 C 0.71437 0.69161 0.76854 0.0
C27 C 0.79127 0.73203 0.74273 0.0
H28 H 0.72154 0.69923 0.81902 0.0
C29 C 0.80853 0.77372 0.69961 0.0
C30 C 0.85147 0.79513 0.72353 0.0
C31 C 0.81833 0.71157 0.80859 0.0
H32 H 0.80685 0.67899 0.84224 0.0
C33 C 0.86089 0.73226 0.83171 0.0
H34 H 0.78809 0.7901 0.64888 0.0
C35 C 0.87727 0.77375 0.7898 0.0
H36 H 0.91056 0.78906 0.80907 0.0
H37 H 0.88132 0.71602 0.88244 0.0
H38 H 0.80914 0.19649 0.21335 0.0
C39 C 0.82753 0.19176 0.17254 0.0
C40 C 0.87425 0.17121 0.18936 0.0
C41 C 0.80357 0.20335 0.1034 0.0
H42 H 0.93268 0.14623 0.15056 0.0
C43 C 0.89698 0.16302 0.13697 0.0
C44 C 0.87325 0.17248 0.06841 0.0
C45 C 0.82658 0.19326 0.05157 0.0
C46 C 0.75206 0.21859 0.08675 0.0
H47 H 0.80728 0.19948 0.99901 0.0
C48 C 0.73591 0.26295 0.09557 0.0
C49 C 0.68672 0.27681 0.0761 0.0
C50 C 0.71856 0.18795 0.06072 0.0
H51 H 0.73013 0.15364 0.0541 0.0
C52 C 0.66991 0.20102 0.04336 0.0
H53 H 0.76153 0.28717 0.11475 0.0
C54 C 0.65409 0.24518 0.05057 0.0
H55 H 0.61617 0.25494 0.03557 0.0
H56 H 0.64439 0.17706 0.0235 0.0
H57 H 0.32307 0.29665 0.53968 0.0
C58 C 0.34047 0.31687 0.49782 0.0
C59 C 0.36337 0.36052 0.50288 0.0
C60 C 0.34169 0.29783 0.44068 0.0
H61 H 0.40677 0.41778 0.45325 0.0
C62 C 0.38705 0.38549 0.44863 0.0
C63 C 0.38758 0.36775 0.38983 0.0
C64 C 0.36413 0.32427 0.38615 0.0
C65 C 0.32457 0.24793 0.44115 0.0
H66 H 0.36377 0.31048 0.34091 0.0
C67 C 0.28006 0.23145 0.46068 0.0
C68 C 0.26553 0.18381 0.46031 0.0
C69 C 0.35439 0.21569 0.4234 0.0
H70 H 0.38909 0.22683 0.40964 0.0
C71 C 0.34041 0.16844 0.42448 0.0
H72 H 0.25638 0.25581 0.47396 0.0
C73 C 0.29633 0.1526 0.44261 0.0
H74 H 0.28599 0.11581 0.44239 0.0
H75 H 0.36382 0.14399 0.41098 0.0
C76 C 0.9676 0.17075 0.49187 0.0
C77 C 0.88261 0.16776 0.44729 0.0
C78 C 0.92495 0.14609 0.49098 0.0
C79 C 0.88442 0.21386 0.40196 0.0
C80 C 0.969 0.21814 0.44914 0.0
C81 C 0.92757 0.23899 0.40283 0.0
N82 N 1.00693 0.14955 0.53742 0.0
C83 C 0.0469 0.1761 0.54855 0.0
C84 C 1.0116 0.24367 0.45573 0.0
C85 C 0.05039 0.2229 0.50669 0.0
Gd86 Gd 0.05594 0.97148 0.51732 0.0
Gd87 Gd 0.99848 0.06877 0.60056 0.0
N88 N 0.92462 0.10116 0.53419 0.0
C89 C 0.83965 0.14265 0.45122 0.0
C90 C 0.88247 0.07765 0.54134 0.0
C91 C 0.83947 0.0977 0.49922 0.0
H92 H 0.88247 0.0428 0.57829 0.0
H93 H 0.8063 0.07844 0.50362 0.0
H94 H 0.15664 0.02545 0.46745 0.0
H95 H 0.07615 0.16153 0.59013 0.0
H96 H 0.24291 0.0251 0.51536 0.0
H97 H 0.80636 0.15801 0.41842 0.0
H98 H 0.85247 0.23079 0.36707 0.0
H99 H 1.0143 0.86535 0.59556 0.0
H100 H 1.01423 0.28007 0.42373 0.0
H101 H 0.08275 0.24316 0.51444 0.0
H102 H 0.2637 0.88829 0.71408 0.0
H103 H 0.92819 0.27503 0.3688 0.0
H104 H 0.12762 0.78754 0.75071 0.0
H105 H 0.04314 0.79313 0.69067 0.0
N106 N 0.08142 0.90004 0.6029 0.0
C107 C 0.12855 0.89632 0.63215 0.0
C108 C 0.05118 0.86291 0.62136 0.0
C109 C 0.11521 0.819 0.70872 0.0
C110 C 0.06747 0.82203 0.67499 0.0
C111 C 0.14659 0.85616 0.6869 0.0
H112 H 0.20965 0.82409 0.76039 0.0
N113 N 0.14022 0.96961 0.5515 0.0
C114 C 0.15872 0.93271 0.60645 0.0
C115 C 0.23836 0.96452 0.60274 0.0
C116 C 0.20814 0.92958 0.63435 0.0
C117 C 0.17031 1.00048 0.5163 0.0
C118 C 0.21951 0.99944 0.5424 0.0
O119 O 0.96308 0.04842 0.5038 0.0
O120 O 0.02287 0.0413 0.44457 0.0
O121 O 0.09208 0.94041 0.45107 0.0
O122 O 1.01532 0.93425 0.44591 0.0
O123 O 0.96663 0.99341 0.62259 0.0
O124 O 0.98017 0.95367 0.53927 0.0
O125 O 0.05316 0.95956 0.63099 0.0
O126 O 0.06933 0.03194 0.65685 0.0
O127 O 0.97194 0.04446 0.6977 0.0
O128 O 0.98818 0.11987 0.66075 0.0
O129 O 0.07894 0.04971 0.48766 0.0
O130 O 0.07658 0.07848 0.58389 0.0
C131 C 0.98101 0.05949 0.44673 0.0
C132 C 0.95765 0.95859 0.58966 0.0
C133 C 0.0463 0.94516 0.34137 0.0
C134 C 0.07428 0.94412 0.23392 0.0
C135 C 1.00677 0.99675 0.23189 0.0
C136 C 1.01081 0.98019 0.30362 0.0
C137 C 0.03818 0.97891 0.19718 0.0
C138 C 0.07801 0.92735 0.30627 0.0
C139 C 0.05222 0.92863 0.41749 0.0
C140 C 0.22597 0.89089 0.69123 0.0
C141 C 0.19524 0.85423 0.71744 0.0
H142 H 0.27654 0.96348 0.62257 0.0
C143 C 0.07685 0.98493 0.67053 0.0
C144 C 0.09408 0.07916 0.52712 0.0
C145 C 0.99435 0.08846 0.78126 0.0
C146 C 0.98316 0.10676 0.88882 0.0
C147 C 0.05846 0.07013 0.88055 0.0
C148 C 0.04087 0.07024 0.81182 0.0
C149 C 0.02976 0.08803 0.91904 0.0
C150 C 0.96575 0.10693 0.81964 0.0
C151 C 0.97414 0.087 0.71035 0.0
H152 H 0.97934 0.0237 0.20309 0.0
H153 H 0.98641 0.99506 0.32947 0.0
H154 H 0.03416 0.99225 0.14142 0.0
H155 H 0.10626 0.90138 0.33557 0.0
H156 H 0.09427 0.05579 0.90423 0.0
H157 H 0.06326 0.05574 0.78282 0.0
H158 H 0.04394 0.08732 0.97242 0.0
H159 H 0.92948 0.12021 0.79622 0.0
C160 C 0.65185 0.61818 0.07251 0.0
C161 C 0.6299 0.70054 0.07099 0.0
C162 C 0.62106 0.6504 0.08699 0.0
C163 C 0.67005 0.71783 0.0404 0.0
C164 C 0.6922 0.63549 0.04183 0.0
C165 C 0.70108 0.68541 0.02583 0.0
N166 N 0.64129 0.57017 0.08615 0.0
C167 C 0.67174 0.53731 0.07531 0.0
C168 C 0.72222 0.60213 0.02756 0.0
C169 C 0.71219 0.5528 0.04503 0.0
Gd170 Gd 0.47638 0.49405 1.0031 0.0
Gd171 Gd 0.57144 0.549 0.13507 0.0
N172 N 0.58184 0.63283 0.11512 0.0
C173 C 0.59781 0.73189 0.08562 0.0
C174 C 0.55092 0.66304 0.13064 0.0
C175 C 0.55825 0.71301 0.11582 0.0
H176 H 0.52105 0.64844 0.15559 0.0
H177 H 0.53349 0.7369 0.12789 0.0
H178 H 0.51665 0.3811 0.02532 0.0
H179 H 0.66561 0.49906 0.09044 0.0
H180 H 0.49343 0.29724 0.07634 0.0
H181 H 0.60333 0.77066 0.07403 0.0
H182 H 0.67734 0.75625 0.02756 0.0
H183 H 0.38123 0.56645 1.00125 0.0
H184 H 0.75347 0.614 1.00379 0.0
H185 H 0.73577 0.52662 0.03555 0.0
H186 H 0.34794 0.31799 0.16029 0.0
H187 H 0.73179 0.69935 1.00197 0.0
H188 H 0.28401 0.47943 0.11759 0.0
H189 H 0.30789 0.55954 0.05265 0.0
N190 N 0.4031 0.49235 0.04487 0.0
C191 C 0.38839 0.44734 0.07502 0.0
C192 C 0.37337 0.53188 0.03336 0.0
C193 C 0.31723 0.48249 0.09689 0.0
C194 C 0.33076 0.52782 0.0607 0.0
C195 C 0.34549 0.44134 0.10294 0.0
H196 H 0.29901 0.38935 0.15684 0.0
N197 N 0.457 0.41363 0.04955 0.0
C198 C 0.41561 0.40683 0.07629 0.0
C199 C 0.42961 0.31999 0.10633 0.0
C200 C 0.40121 0.35975 0.10645 0.0
C201 C 0.48455 0.37514 0.04837 0.0
C202 C 0.47135 0.32774 0.07688 0.0
O203 O 0.56393 0.58725 0.02048 0.0
O204 O 0.54086 0.52944 0.96078 0.0
O205 O 0.47098 0.45751 0.9203 0.0
O206 O 0.42474 0.51947 0.90792 0.0
O207 O 0.49338 0.57223 0.11755 0.0
O208 O 0.46694 0.57341 1.00317 0.0
O209 O 0.49413 0.45493 0.1179 0.0
O210 O 0.50345 0.5171 0.17072 0.0
O211 O 0.59137 0.57539 0.22872 0.0
O212 O 0.61866 0.50511 0.22379 0.0
O213 O 0.553 0.46878 0.01556 0.0
O214 O 0.58833 0.47289 0.12571 0.0
C215 C 0.56375 0.56902 0.96711 0.0
C216 C 0.46778 0.5923 0.05651 0.0
C217 C 0.39579 0.45942 0.84944 0.0
C218 C 0.36211 0.42131 0.75719 0.0
C219 C 0.32085 0.41668 0.85464 0.0
C220 C 0.35679 0.4435 0.88334 0.0
C221 C 0.32361 0.4053 0.79222 0.0
C222 C 0.3981 0.44862 0.78593 0.0
C223 C 0.43562 0.48489 0.8812 0.0
C224 C 0.35933 0.35386 0.1362 0.0
C225 C 0.33158 0.39453 0.1345 0.0
H226 H 0.41971 0.28323 0.12894 0.0
C227 C 0.48881 0.47336 0.16947 0.0
C228 C 0.58435 0.45307 0.07271 0.0
C229 C 0.645 0.52816 0.33166 0.0
C230 C 0.67593 0.55549 0.43592 0.0
C231 C 0.69326 0.47324 0.43089 0.0
C232 C 0.66723 0.48249 0.36396 0.0
C233 C 0.69764 0.50931 0.46662 0.0
C234 C 0.64936 0.56472 0.36805 0.0
C235 C 0.61798 0.5368 0.26013 0.0
H236 H 0.29097 0.40428 0.88121 0.0
H237 H 0.35433 0.45139 0.93214 0.0
H238 H 0.29564 0.38405 0.77112 0.0
H239 H 0.42839 0.46039 0.7598 0.0
H240 H 0.71006 0.43785 0.45532 0.0
H241 H 0.66448 0.45369 0.33753 0.0
H242 H 0.71763 0.50085 0.51894 0.0
H243 H 0.63285 0.60025 0.34341 0.0
C244 C 0.20642 0.15565 0.54177 0.0
C245 C 0.21757 0.16584 0.47453 0.0
C246 C 0.16528 0.12935 0.55807 0.0
C247 C 0.13397 0.11231 0.50767 0.0
H248 H 0.23092 0.16582 0.58273 0.0
H249 H 0.15928 0.12038 0.6112 0.0
S250 S 0.14596 0.13353 0.32238 0.0
N251 N 0.19279 0.16008 0.3565 0.0
N252 N 0.11616 0.1109 0.38626 0.0
C253 C 0.14385 0.12468 0.43944 0.0
C254 C 0.18545 0.1513 0.42314 0.0
C255 C 0.39702 0.68674 0.10571 0.0
C256 C 0.3862 0.72316 0.0436 0.0
C257 C 0.42172 0.6438 0.10859 0.0
C258 C 0.43712 0.63583 0.04959 0.0
H259 H 0.38799 0.69238 0.15307 0.0
H260 H 0.43007 0.61726 0.15805 0.0
S261 S 0.41598 0.71969 0.87373 0.0
N262 N 0.39104 0.74817 0.92131 0.0
N263 N 0.43767 0.66751 0.92634 0.0
C264 C 0.42473 0.67124 0.98645 0.0
C265 C 0.39941 0.71499 0.98361 0.0
C266 C 0.88319 0.87872 0.71206 0.0
C267 C 0.87049 0.84003 0.68171 0.0
C268 C 0.9091 0.91788 0.68008 0.0
C269 C 0.92388 0.92011 0.6163 0.0
H270 H 0.87452 0.87782 0.76247 0.0
H271 H 0.91933 0.94552 0.7075 0.0
S272 S 0.89533 0.83004 0.51187 0.0
N273 N 0.87144 0.80777 0.58206 0.0
N274 N 0.91962 0.88168 0.5209 0.0
C275 C 0.90889 0.88292 0.58334 0.0
C276 C 0.88232 0.84291 0.6162 0.0
C277 C 0.64426 0.35554 0.01492 0.0
C278 C 0.66827 0.32517 0.07703 0.0
C279 C 0.61907 0.39754 1.01425 0.0
C280 C 0.6164 0.41114 0.07579 0.0
H281 H 0.64362 0.34582 0.96644 0.0
H282 H 0.60024 0.41863 0.96487 0.0
S283 S 0.67536 0.34486 0.25226 0.0
N284 N 0.68987 0.31223 0.20151 0.0
N285 N 0.64236 0.3914 0.20076 0.0
C286 C 0.6421 0.38211 0.1382 0.0
C287 C 0.66803 0.33911 0.1387 0.0
C288 C 0.15742 0.94544 0.10451 0.0
C289 C 0.16649 0.89593 0.11161 0.0
C290 C 0.1291 0.96056 0.1461 0.0
C291 C 0.10837 0.92673 0.19612 0.0
H292 H 0.17109 0.97268 0.06481 0.0
H293 H 0.12247 0.99911 0.13788 0.0
S294 S 0.12227 0.79267 0.23572 0.0
N295 N 0.15406 0.81306 0.17334 0.0
N296 N 0.10005 0.84123 0.25136 0.0
C297 C 0.11864 0.87703 0.20542 0.0
C298 C 0.14785 0.86169 0.16312 0.0
C299 C 0.62715 0.66523 0.84654 0.0
C300 C 0.64765 0.63809 0.80878 0.0
C301 C 0.60008 0.64282 0.89781 0.0
C302 C 0.59256 0.59247 0.91317 0.0
H303 H 0.63156 0.70413 0.83577 0.0
H304 H 0.58451 0.66517 0.92504 0.0
S305 S 0.64435 0.50434 0.83611 0.0
N306 N 0.66256 0.55757 0.79544 0.0
N307 N 0.61154 0.51577 0.89061 0.0
C308 C 0.61414 0.56487 0.87722 0.0
C309 C 0.64175 0.58756 0.82545 0.0
C310 C 0.87727 0.11069 0.3029 0.0
C311 C 0.89783 0.15043 0.26161 0.0
C312 C 0.90438 0.08159 0.36345 0.0
C313 C 0.95289 0.09114 0.384 0.0
H314 H 0.84096 0.10042 0.28625 0.0
H315 H 0.88779 0.05055 0.39318 0.0
S316 S 1.02072 0.19531 0.29995 0.0
N317 N 0.96758 0.20097 0.24961 0.0
N318 N 1.01838 0.14625 0.36352 0.0
C319 C 0.9729 0.13223 0.34536 0.0
C320 C 0.9453 0.16204 0.28426 0.0
C321 C 0.37288 0.34421 0.6326 0.0
C322 C 0.36488 0.37786 0.56708 0.0
C323 C 0.37259 0.35874 0.6937 0.0
C324 C 0.3652 0.40762 0.69209 0.0
H325 H 0.37944 0.30614 0.63691 0.0
H326 H 0.37811 0.33149 0.74272 0.0
S327 S 0.3422 0.51039 0.53553 0.0
N328 N 0.34839 0.46266 0.50519 0.0
N329 N 0.34981 0.48986 0.62064 0.0
C330 C 0.35813 0.4419 0.62765 0.0
C331 C 0.35761 0.42708 0.56508 0.0
C332 C 0.73205 0.62711 0.56253 0.0
C333 C 0.69205 0.64891 0.57709 0.0
C334 C 0.72675 0.59961 0.51346 0.0
C335 C 0.68125 0.59266 0.47678 0.0
H336 H 0.76744 0.62873 0.59227 0.0
H337 H 0.7584 0.58179 0.50636 0.0
S338 S 0.56585 0.64738 0.48885 0.0
N339 N 0.60604 0.66633 0.54499 0.0
N340 N 0.59597 0.61357 0.45402 0.0
C341 C 0.64139 0.61701 0.48724 0.0
C342 C 0.6468 0.64523 0.53718 0.0
C343 C 0.9179 0.10875 0.03685 0.0
C344 C 0.89664 0.15571 0.0176 0.0
C345 C 0.94531 0.09326 0.99457 0.0
C346 C 0.9521 0.1238 0.93076 0.0
H347 H 0.91402 0.08392 0.08583 0.0
H348 H 0.96152 0.0571 1.01215 0.0
S349 S 0.9031 0.24942 0.85494 0.0
N350 N 0.88352 0.23223 0.92963 0.0
N351 N 0.93446 0.20267 0.84912 0.0
C352 C 0.92973 0.17019 0.90948 0.0
C353 C 0.90205 0.1862 0.95304 0.0
C354 C 0.40856 0.44464 0.30735 0.0
C355 C 0.41382 0.39387 0.33328 0.0
C356 C 0.43305 0.47001 0.25465 0.0
C357 C 0.46359 0.44565 0.22536 0.0
H358 H 0.38492 0.46494 0.32751 0.0
H359 H 0.42748 0.50898 0.23601 0.0
S360 S 0.49327 0.31381 0.27812 0.0
N361 N 0.45457 0.32073 0.32784 0.0
N362 N 0.4998 0.36843 0.22843 0.0
C363 C 0.46959 0.39511 0.25097 0.0
C364 C 0.44492 0.36925 0.3049 0.0
C365 C 0.17968 0.94774 0.82141 0.0
C366 C 0.16152 0.90702 0.86426 0.0
C367 C 0.15174 0.97357 0.759 0.0
C368 C 0.10514 0.95899 0.73739 0.0
H369 H 0.21489 0.9608 0.83762 0.0
H370 H 0.16669 1.00491 0.72731 0.0
S371 S 0.04141 0.85475 0.83084 0.0
N372 N 0.09439 0.85329 0.88061 0.0
N373 N 0.04213 0.90142 0.76325 0.0
C374 C 0.08703 0.91784 0.77913 0.0
C375 C 0.11521 0.8919 0.84259 0.0
loop_
_geom_bond_atom_site_label_1
_geom_bond_atom_site_label_2
_geom_bond_distance
_geom_bond_site_symmetry_2
_ccdc_geom_bond_type
H0 C1 0.949 . S
C1 H0 0.949 . S
C1 C2 1.395 . S
C1 C3 1.391 . S
C2 C1 1.395 . S
C2 C5 1.390 . S
C3 C1 1.391 . S
C3 C7 1.387 1_554 S
C3 C8 1.491 . S
H4 C5 0.950 . S
C5 C2 1.390 . S
C5 H4 0.950 . S
C5 C6 1.378 1_554 S
C6 C5 1.378 1_556 S
C6 C7 1.409 . S
C7 C3 1.387 1_556 S
C7 C6 1.409 . S
C7 H9 0.951 . S
C8 C3 1.491 . S
C8 C10 1.382 . S
C8 C12 1.404 1_554 S
H9 C7 0.951 . S
C10 C8 1.382 . S
C10 C11 1.390 . S
C10 H15 0.949 . S
C11 C10 1.390 . S
C11 C16 1.399 . S
C12 C8 1.404 1_556 S
C12 H13 0.950 . S
C12 C14 1.375 . S
H13 C12 0.950 . S
C14 C12 1.375 . S
C14 C16 1.382 1_556 S
C14 H18 0.950 . S
H15 C10 0.949 . S
C16 C11 1.399 . S
C16 C14 1.382 1_554 S
C16 H17 0.952 . S
H17 C16 0.952 . S
H18 C14 0.950 . S
H19 C20 0.949 . S
C20 H19 0.949 . S
C20 C21 1.395 . S
C20 C22 1.391 . S
C21 C20 1.395 . S
C21 C24 1.390 . S
C22 C20 1.391 . S
C22 C26 1.387 . S
C22 C27 1.491 . S
H23 C24 0.950 . S
C24 C21 1.390 . S
C24 H23 0.950 . S
C24 C25 1.378 . S
C25 C24 1.378 . S
C25 C26 1.409 . S
C26 C22 1.387 . S
C26 C25 1.409 . S
C26 H28 0.951 . S
C27 C22 1.491 . S
C27 C29 1.382 . S
C27 C31 1.404 . S
H28 C26 0.951 . S
C29 C27 1.382 . S
C29 C30 1.390 . S
C29 H34 0.949 . S
C30 C29 1.390 . S
C30 C35 1.399 . S
C31 C27 1.404 . S
C31 H32 0.950 . S
C31 C33 1.375 . S
H32 C31 0.950 . S
C33 C31 1.375 . S
C33 C35 1.382 . S
C33 H37 0.950 . S
H34 C29 0.949 . S
C35 C30 1.399 . S
C35 C33 1.382 . S
C35 H36 0.952 . S
H36 C35 0.952 . S
H37 C33 0.950 . S
H38 C39 0.949 . S
C39 H38 0.949 . S
C39 C40 1.395 . S
C39 C41 1.391 . S
C40 C39 1.395 . S
C40 C43 1.390 . S
C41 C39 1.391 . S
C41 C45 1.387 . S
C41 C46 1.491 . S
H42 C43 0.950 . S
C43 C40 1.390 . S
C43 H42 0.950 . S
C43 C44 1.378 . S
C44 C43 1.378 . S
C44 C45 1.409 . S
C45 C41 1.387 . S
C45 C44 1.409 . S
C45 H47 0.951 1_554 S
C46 C41 1.491 . S
C46 C48 1.382 . S
C46 C50 1.404 1_554 S
H47 C45 0.951 1_556 S
C48 C46 1.382 . S
C48 C49 1.390 . S
C48 H53 0.949 . S
C49 C48 1.390 . S
C49 C54 1.399 . S
C50 C46 1.404 1_556 S
C50 H51 0.950 . S
C50 C52 1.375 . S
H51 C50 0.950 . S
C52 C50 1.375 . S
C52 C54 1.382 1_556 S
C52 H56 0.950 . S
H53 C48 0.949 . S
C54 C49 1.399 . S
C54 C52 1.382 1_554 S
C54 H55 0.952 1_554 S
H55 C54 0.952 1_556 S
H56 C52 0.950 . S
H57 C58 0.949 . S
C58 H57 0.949 . S
C58 C59 1.395 . S
C58 C60 1.391 . S
C59 C58 1.395 . S
C59 C62 1.390 . S
C60 C58 1.391 . S
C60 C64 1.387 . S
C60 C65 1.491 . S
H61 C62 0.950 . S
C62 C59 1.390 . S
C62 H61 0.950 . S
C62 C63 1.378 . S
C63 C62 1.378 . S
C63 C64 1.409 . S
C64 C60 1.387 . S
C64 C63 1.409 . S
C64 H66 0.951 . S
C65 C60 1.491 . S
C65 C67 1.382 . S
C65 C69 1.404 . S
H66 C64 0.951 . S
C67 C65 1.382 . S
C67 C68 1.390 . S
C67 H72 0.949 . S
C68 C67 1.390 . S
C68 C73 1.399 . S
C69 C65 1.404 . S
C69 H70 0.950 . S
C69 C71 1.375 . S
H70 C69 0.950 . S
C71 C69 1.375 . S
C71 C73 1.382 . S
C71 H75 0.950 . S
H72 C67 0.949 . S
C73 C68 1.399 . S
C73 C71 1.382 . S
C73 H74 0.952 . S
H74 C73 0.952 . S
H75 C71 0.950 . S
C76 C78 1.422 . S
C76 C80 1.415 . S
C76 N82 1.369 . S
C77 C78 1.421 . S
C77 C79 1.417 . S
C77 C89 1.422 . S
C78 C76 1.422 . S
C78 C77 1.421 . S
C78 N88 1.359 . S
C79 C77 1.417 . S
C79 C81 1.329 . S
C79 H98 0.930 . S
C80 C76 1.415 . S
C80 C81 1.437 . S
C80 C84 1.413 . S
C81 C79 1.329 . S
C81 C80 1.437 . S
C81 H103 0.929 . S
N82 C76 1.369 . S
N82 C83 1.338 1_655 S
N82 Gd87 2.622 . S
C83 N82 1.338 1_455 S
C83 C85 1.378 . S
C83 H95 0.929 . S
C84 C80 1.413 . S
C84 C85 1.348 1_655 S
C84 H100 0.931 . S
C85 C83 1.378 . S
C85 C84 1.348 1_455 S
C85 H101 0.930 . S
Gd86 N106 2.622 . S
Gd86 N113 2.570 . S
Gd86 O120 2.353 1_465 S
Gd86 O121 2.468 . S
Gd86 O122 2.427 . S
Gd86 O124 2.388 1_455 S
Gd86 O125 2.386 . S
Gd86 O129 2.307 1_565 S
Gd86 C139 2.805 . S
Gd87 N82 2.622 . S
Gd87 N88 2.570 . S
Gd87 O119 2.386 . S
Gd87 O123 2.307 1_545 S
Gd87 O126 2.353 1_655 S
Gd87 O127 2.468 . S
Gd87 O128 2.427 . S
Gd87 O130 2.388 1_655 S
Gd87 C151 2.805 . S
N88 C78 1.359 . S
N88 Gd87 2.570 . S
N88 C90 1.343 . S
C89 C77 1.422 . S
C89 C91 1.321 . S
C89 H97 0.931 . S
C90 N88 1.343 . S
C90 C91 1.390 . S
C90 H92 0.931 . S
C91 C89 1.321 . S
C91 C90 1.390 . S
C91 H93 0.930 . S
H92 C90 0.931 . S
H93 C91 0.930 . S
H94 C117 0.931 . S
H95 C83 0.929 . S
H96 C118 0.930 . S
H97 C89 0.931 . S
H98 C79 0.930 . S
H99 C108 0.929 1_655 S
H100 C84 0.931 . S
H101 C85 0.930 . S
H102 C140 0.930 . S
H103 C81 0.929 . S
H104 C109 0.931 . S
H105 C110 0.930 1_655 S
N106 Gd86 2.622 . S
N106 C107 1.369 . S
N106 C108 1.338 . S
C107 N106 1.369 . S
C107 C111 1.415 . S
C107 C114 1.422 . S
C108 H99 0.929 1_455 S
C108 N106 1.338 . S
C108 C110 1.378 . S
C109 H104 0.931 . S
C109 C110 1.348 . S
C109 C111 1.413 . S
C110 H105 0.930 1_455 S
C110 C108 1.378 . S
C110 C109 1.348 . S
C111 C107 1.415 . S
C111 C109 1.413 . S
C111 C141 1.437 . S
H112 C141 0.929 . S
N113 Gd86 2.570 . S
N113 C114 1.359 . S
N113 C117 1.343 . S
C114 C107 1.422 . S
C114 N113 1.359 . S
C114 C116 1.421 . S
C115 C116 1.422 . S
C115 C118 1.321 . S
C115 H142 0.931 . S
C116 C114 1.421 . S
C116 C115 1.422 . S
C116 C140 1.417 . S
C117 H94 0.931 . S
C117 N113 1.343 . S
C117 C118 1.390 . S
C118 H96 0.930 . S
C118 C115 1.321 . S
C118 C117 1.390 . S
O119 Gd87 2.386 . S
O119 C131 1.265 . S
O120 Gd86 2.353 1_645 S
O120 C131 1.242 . S
O121 Gd86 2.468 . S
O121 C139 1.263 . S
O122 Gd86 2.427 . S
O122 C139 1.252 . S
O123 Gd87 2.307 1_565 S
O123 C132 1.261 . S
O124 Gd86 2.388 1_655 S
O124 C132 1.252 . S
O125 Gd86 2.386 . S
O125 C143 1.265 . S
O126 Gd87 2.353 1_455 S
O126 C143 1.242 1_545 S
O127 Gd87 2.468 . S
O127 C151 1.263 . S
O128 Gd87 2.427 . S
O128 C151 1.252 . S
O129 Gd86 2.307 1_545 S
O129 C144 1.261 . S
O130 Gd87 2.388 1_455 S
O130 C144 1.252 . S
C131 O119 1.265 . S
C131 O120 1.242 . S
C132 O123 1.261 . S
C132 O124 1.252 . S
C133 C136 1.394 . S
C133 C138 1.370 . S
C133 C139 1.500 . S
C134 C137 1.383 . S
C134 C138 1.395 . S
C135 C136 1.396 . S
C135 C137 1.365 . S
C135 H152 0.929 . S
C136 C133 1.394 . S
C136 C135 1.396 . S
C136 H153 0.930 . S
C137 C134 1.383 . S
C137 C135 1.365 . S
C137 H154 0.931 . S
C138 C133 1.370 . S
C138 C134 1.395 . S
C138 H155 0.930 . S
C139 Gd86 2.805 . S
C139 O121 1.263 . S
C139 O122 1.252 . S
C139 C133 1.500 . S
C140 H102 0.930 . S
C140 C116 1.417 . S
C140 C141 1.329 . S
C141 C111 1.437 . S
C141 H112 0.929 . S
C141 C140 1.329 . S
H142 C115 0.931 . S
C143 O125 1.265 . S
C143 O126 1.242 1_565 S
C144 O129 1.261 . S
C144 O130 1.252 . S
C145 C148 1.394 . S
C145 C150 1.370 . S
C145 C151 1.500 . S
C146 C149 1.383 . S
C146 C150 1.395 . S
C147 C148 1.396 . S
C147 C149 1.365 . S
C147 H156 0.929 . S
C148 C145 1.394 . S
C148 C147 1.396 . S
C148 H157 0.930 . S
C149 C146 1.383 . S
C149 C147 1.365 . S
C149 H158 0.931 . S
C150 C145 1.370 . S
C150 C146 1.395 . S
C150 H159 0.930 . S
C151 Gd87 2.805 . S
C151 O127 1.263 . S
C151 O128 1.252 . S
C151 C145 1.500 . S
H152 C135 0.929 . S
H153 C136 0.930 . S
H154 C137 0.931 . S
H155 C138 0.930 . S
H156 C147 0.929 . S
H157 C148 0.930 . S
H158 C149 0.931 . S
H159 C150 0.930 . S
C160 C162 1.422 . S
C160 C164 1.415 . S
C160 N166 1.369 . S
C161 C162 1.421 . S
C161 C163 1.417 . S
C161 C173 1.422 . S
C162 C160 1.422 . S
C162 C161 1.421 . S
C162 N172 1.359 . S
C163 C161 1.417 . S
C163 C165 1.329 . S
C163 H182 0.930 . S
C164 C160 1.415 . S
C164 C165 1.437 . S
C164 C168 1.413 . S
C165 C163 1.329 . S
C165 C164 1.437 . S
C165 H187 0.929 . S
N166 C160 1.369 . S
N166 C167 1.338 . S
N166 Gd171 2.622 . S
C167 N166 1.338 . S
C167 C169 1.378 . S
C167 H179 0.929 . S
C168 C164 1.413 . S
C168 C169 1.348 . S
C168 H184 0.931 . S
C169 C167 1.378 . S
C169 C168 1.348 . S
C169 H185 0.930 . S
Gd170 N190 2.622 . S
Gd170 N197 2.570 . S
Gd170 O204 2.353 1_554 S
Gd170 O205 2.468 1_554 S
Gd170 O206 2.427 1_554 S
Gd170 O208 2.388 . S
Gd170 O209 2.386 . S
Gd170 O213 2.307 . S
Gd170 C223 2.805 1_554 S
Gd171 N166 2.622 . S
Gd171 N172 2.570 . S
Gd171 O203 2.386 . S
Gd171 O207 2.307 . S
Gd171 O210 2.353 . S
Gd171 O211 2.468 . S
Gd171 O212 2.427 . S
Gd171 O214 2.388 . S
Gd171 C235 2.805 . S
N172 C162 1.359 . S
N172 Gd171 2.570 . S
N172 C174 1.343 . S
C173 C161 1.422 . S
C173 C175 1.321 . S
C173 H181 0.931 . S
C174 N172 1.343 . S
C174 C175 1.390 . S
C174 H176 0.931 . S
C175 C173 1.321 . S
C175 C174 1.390 . S
C175 H177 0.930 . S
H176 C174 0.931 . S
H177 C175 0.930 . S
H178 C201 0.931 . S
H179 C167 0.929 . S
H180 C202 0.930 . S
H181 C173 0.931 . S
H182 C163 0.930 . S
H183 C192 0.929 . S
H184 C168 0.931 . S
H185 C169 0.930 . S
H186 C224 0.930 . S
H187 C165 0.929 . S
H188 C193 0.931 . S
H189 C194 0.930 . S
N190 Gd170 2.622 . S
N190 C191 1.369 . S
N190 C192 1.338 1_554 S
C191 N190 1.369 . S
C191 C195 1.415 . S
C191 C198 1.422 . S
C192 H183 0.929 . S
C192 N190 1.338 1_556 S
C192 C194 1.378 . S
C193 H188 0.931 . S
C193 C194 1.348 1_554 S
C193 C195 1.413 . S
C194 H189 0.930 . S
C194 C192 1.378 . S
C194 C193 1.348 1_556 S
C195 C191 1.415 . S
C195 C193 1.413 . S
C195 C225 1.437 . S
H196 C225 0.929 . S
N197 Gd170 2.570 . S
N197 C198 1.359 . S
N197 C201 1.343 . S
C198 C191 1.422 . S
C198 N197 1.359 . S
C198 C200 1.421 . S
C199 C200 1.422 . S
C199 C202 1.321 . S
C199 H226 0.931 . S
C200 C198 1.421 . S
C200 C199 1.422 . S
C200 C224 1.417 . S
C201 H178 0.931 . S
C201 N197 1.343 . S
C201 C202 1.390 . S
C202 H180 0.930 . S
C202 C199 1.321 . S
C202 C201 1.390 . S
O203 Gd171 2.386 . S
O203 C215 1.265 1_554 S
O204 Gd170 2.353 1_556 S
O204 C215 1.242 . S
O205 Gd170 2.468 1_556 S
O205 C223 1.263 . S
O206 Gd170 2.427 1_556 S
O206 C223 1.252 . S
O207 Gd171 2.307 . S
O207 C216 1.261 . S
O208 Gd170 2.388 . S
O208 C216 1.252 . S
O209 Gd170 2.386 . S
O209 C227 1.265 . S
O210 Gd171 2.353 . S
O210 C227 1.242 . S
O211 Gd171 2.468 . S
O211 C235 1.263 . S
O212 Gd171 2.427 . S
O212 C235 1.252 . S
O213 Gd170 2.307 . S
O213 C228 1.261 . S
O214 Gd171 2.388 . S
O214 C228 1.252 . S
C215 O203 1.265 1_556 S
C215 O204 1.242 . S
C216 O207 1.261 . S
C216 O208 1.252 . S
C217 C220 1.394 . S
C217 C222 1.370 . S
C217 C223 1.500 . S
C218 C221 1.383 . S
C218 C222 1.395 . S
C219 C220 1.396 . S
C219 C221 1.365 . S
C219 H236 0.929 . S
C220 C217 1.394 . S
C220 C219 1.396 . S
C220 H237 0.930 . S
C221 C218 1.383 . S
C221 C219 1.365 . S
C221 H238 0.931 . S
C222 C217 1.370 . S
C222 C218 1.395 . S
C222 H239 0.930 . S
C223 Gd170 2.805 1_556 S
C223 O205 1.263 . S
C223 O206 1.252 . S
C223 C217 1.500 . S
C224 H186 0.930 . S
C224 C200 1.417 . S
C224 C225 1.329 . S
C225 C195 1.437 . S
C225 H196 0.929 . S
C225 C224 1.329 . S
H226 C199 0.931 . S
C227 O209 1.265 . S
C227 O210 1.242 . S
C228 O213 1.261 . S
C228 O214 1.252 . S
C229 C232 1.394 . S
C229 C234 1.370 . S
C229 C235 1.500 . S
C230 C233 1.383 . S
C230 C234 1.395 . S
C231 C232 1.396 . S
C231 C233 1.365 . S
C231 H240 0.929 . S
C232 C229 1.394 . S
C232 C231 1.396 . S
C232 H241 0.930 . S
C233 C230 1.383 . S
C233 C231 1.365 . S
C233 H242 0.931 . S
C234 C229 1.370 . S
C234 C230 1.395 . S
C234 H243 0.930 . S
C235 Gd171 2.805 . S
C235 O211 1.263 . S
C235 O212 1.252 . S
C235 C229 1.500 . S
H236 C219 0.929 . S
H237 C220 0.930 . S
H238 C221 0.931 . S
H239 C222 0.930 . S
H240 C231 0.929 . S
H241 C232 0.930 . S
H242 C233 0.931 . S
H243 C234 0.930 . S
C244 C245 1.369 . S
C244 C246 1.419 . S
C244 H248 0.930 . S
C245 C244 1.369 . S
C245 C254 1.429 . S
C246 C244 1.419 . S
C246 C247 1.363 . S
C246 H249 0.929 . S
C247 C246 1.363 . S
C247 C253 1.428 . S
H248 C244 0.930 . S
H249 C246 0.929 . S
S250 N251 1.613 . S
S250 N252 1.610 . S
N251 S250 1.613 . S
N251 C254 1.350 . S
N252 S250 1.610 . S
N252 C253 1.351 . S
C253 C247 1.428 . S
C253 N252 1.351 . S
C253 C254 1.434 . S
C254 C245 1.429 . S
C254 N251 1.350 . S
C254 C253 1.434 . S
C255 C256 1.369 . S
C255 C257 1.419 . S
C255 H259 0.930 . S
C256 C255 1.369 . S
C256 C265 1.429 . S
C257 C255 1.419 . S
C257 C258 1.363 . S
C257 H260 0.929 . S
C258 C257 1.363 . S
C258 C264 1.428 . S
H259 C255 0.930 . S
H260 C257 0.929 . S
S261 N262 1.613 . S
S261 N263 1.610 . S
N262 S261 1.613 . S
N262 C265 1.350 1_556 S
N263 S261 1.610 . S
N263 C264 1.351 1_556 S
C264 C258 1.428 . S
C264 N263 1.351 1_554 S
C264 C265 1.434 . S
C265 C256 1.429 . S
C265 N262 1.350 1_554 S
C265 C264 1.434 . S
C266 C267 1.369 . S
C266 C268 1.419 . S
C266 H270 0.930 . S
C267 C266 1.369 . S
C267 C276 1.429 . S
C268 C266 1.419 . S
C268 C269 1.363 . S
C268 H271 0.929 . S
C269 C268 1.363 . S
C269 C275 1.428 . S
H270 C266 0.930 . S
H271 C268 0.929 . S
S272 N273 1.613 . S
S272 N274 1.610 . S
N273 S272 1.613 . S
N273 C276 1.350 . S
N274 S272 1.610 . S
N274 C275 1.351 . S
C275 C269 1.428 . S
C275 N274 1.351 . S
C275 C276 1.434 . S
C276 C267 1.429 . S
C276 N273 1.350 . S
C276 C275 1.434 . S
C277 C278 1.369 . S
C277 C279 1.419 . S
C277 H281 0.930 . S
C278 C277 1.369 . S
C278 C287 1.429 . S
C279 C277 1.419 . S
C279 C280 1.363 . S
C279 H282 0.929 . S
C280 C279 1.363 . S
C280 C286 1.428 . S
H281 C277 0.930 . S
H282 C279 0.929 . S
S283 N284 1.613 . S
S283 N285 1.610 . S
N284 S283 1.613 . S
N284 C287 1.350 . S
N285 S283 1.610 . S
N285 C286 1.351 . S
C286 C280 1.428 . S
C286 N285 1.351 . S
C286 C287 1.434 . S
C287 C278 1.429 . S
C287 N284 1.350 . S
C287 C286 1.434 . S
C288 C289 1.369 . S
C288 C290 1.419 . S
C288 H292 0.930 . S
C289 C288 1.369 . S
C289 C298 1.429 . S
C290 C288 1.419 . S
C290 C291 1.363 . S
C290 H293 0.929 . S
C291 C290 1.363 . S
C291 C297 1.428 . S
H292 C288 0.930 . S
H293 C290 0.929 . S
S294 N295 1.613 . S
S294 N296 1.610 . S
N295 S294 1.613 . S
N295 C298 1.350 . S
N296 S294 1.610 . S
N296 C297 1.351 . S
C297 C291 1.428 . S
C297 N296 1.351 . S
C297 C298 1.434 . S
C298 C289 1.429 . S
C298 N295 1.350 . S
C298 C297 1.434 . S
C299 C300 1.369 . S
C299 C301 1.419 . S
C299 H303 0.930 . S
C300 C299 1.369 . S
C300 C309 1.429 . S
C301 C299 1.419 . S
C301 C302 1.363 . S
C301 H304 0.929 . S
C302 C301 1.363 . S
C302 C308 1.428 . S
H303 C299 0.930 . S
H304 C301 0.929 . S
S305 N306 1.613 . S
S305 N307 1.610 . S
N306 S305 1.613 . S
N306 C309 1.350 . S
N307 S305 1.610 . S
N307 C308 1.351 . S
C308 C302 1.428 . S
C308 N307 1.351 . S
C308 C309 1.434 . S
C309 C300 1.429 . S
C309 N306 1.350 . S
C309 C308 1.434 . S
C310 C311 1.369 . S
C310 C312 1.419 . S
C310 H314 0.930 . S
C311 C310 1.369 . S
C311 C320 1.429 . S
C312 C310 1.419 . S
C312 C313 1.363 . S
C312 H315 0.929 . S
C313 C312 1.363 . S
C313 C319 1.428 . S
H314 C310 0.930 . S
H315 C312 0.929 . S
S316 N317 1.613 . S
S316 N318 1.610 . S
N317 S316 1.613 . S
N317 C320 1.350 . S
N318 S316 1.610 . S
N318 C319 1.351 . S
C319 C313 1.428 . S
C319 N318 1.351 . S
C319 C320 1.434 . S
C320 C311 1.429 . S
C320 N317 1.350 . S
C320 C319 1.434 . S
C321 C322 1.369 . S
C321 C323 1.419 . S
C321 H325 0.930 . S
C322 C321 1.369 . S
C322 C331 1.429 . S
C323 C321 1.419 . S
C323 C324 1.363 . S
C323 H326 0.929 . S
C324 C323 1.363 . S
C324 C330 1.428 . S
H325 C321 0.930 . S
H326 C323 0.929 . S
S327 N328 1.613 . S
S327 N329 1.610 . S
N328 S327 1.613 . S
N328 C331 1.350 . S
N329 S327 1.610 . S
N329 C330 1.351 . S
C330 C324 1.428 . S
C330 N329 1.351 . S
C330 C331 1.434 . S
C331 C322 1.429 . S
C331 N328 1.350 . S
C331 C330 1.434 . S
C332 C333 1.369 . S
C332 C334 1.419 . S
C332 H336 0.930 . S
C333 C332 1.369 . S
C333 C342 1.429 . S
C334 C332 1.419 . S
C334 C335 1.363 . S
C334 H337 0.929 . S
C335 C334 1.363 . S
C335 C341 1.428 . S
H336 C332 0.930 . S
H337 C334 0.929 . S
S338 N339 1.613 . S
S338 N340 1.610 . S
N339 S338 1.613 . S
N339 C342 1.350 . S
N340 S338 1.610 . S
N340 C341 1.351 . S
C341 C335 1.428 . S
C341 N340 1.351 . S
C341 C342 1.434 . S
C342 C333 1.429 . S
C342 N339 1.350 . S
C342 C341 1.434 . S
C343 C344 1.369 . S
C343 C345 1.419 . S
C343 H347 0.930 1_556 S
C344 C343 1.369 . S
C344 C353 1.429 . S
C345 C343 1.419 . S
C345 C346 1.363 . S
C345 H348 0.929 . S
C346 C345 1.363 . S
C346 C352 1.428 . S
H347 C343 0.930 1_554 S
H348 C345 0.929 . S
S349 N350 1.613 . S
S349 N351 1.610 . S
N350 S349 1.613 . S
N350 C353 1.350 . S
N351 S349 1.610 . S
N351 C352 1.351 . S
C352 C346 1.428 . S
C352 N351 1.351 . S
C352 C353 1.434 . S
C353 C344 1.429 . S
C353 N350 1.350 . S
C353 C352 1.434 . S
C354 C355 1.369 . S
C354 C356 1.419 . S
C354 H358 0.930 . S
C355 C354 1.369 . S
C355 C364 1.429 . S
C356 C354 1.419 . S
C356 C357 1.363 . S
C356 H359 0.929 . S
C357 C356 1.363 . S
C357 C363 1.428 . S
H358 C354 0.930 . S
H359 C356 0.929 . S
S360 N361 1.613 . S
S360 N362 1.610 . S
N361 S360 1.613 . S
N361 C364 1.350 . S
N362 S360 1.610 . S
N362 C363 1.351 . S
C363 C357 1.428 . S
C363 N362 1.351 . S
C363 C364 1.434 . S
C364 C355 1.429 . S
C364 N361 1.350 . S
C364 C363 1.434 . S
C365 C366 1.369 . S
C365 C367 1.419 . S
C365 H369 0.930 . S
C366 C365 1.369 . S
C366 C375 1.429 . S
C367 C365 1.419 . S
C367 C368 1.363 . S
C367 H370 0.929 1_565 S
C368 C367 1.363 . S
C368 C374 1.428 . S
H369 C365 0.930 . S
H370 C367 0.929 1_545 S
S371 N372 1.613 . S
S371 N373 1.610 . S
N372 S371 1.613 . S
N372 C375 1.350 . S
N373 S371 1.610 . S
N373 C374 1.351 . S
C374 C368 1.428 . S
C374 N373 1.351 . S
C374 C375 1.434 . S
C375 C366 1.429 . S
C375 N372 1.350 . S
C375 C374 1.434 . S
C247 C144 1.664 . S
C245 C68 1.632 . S
C256 C11 1.533 . S
C258 C216 1.698 . S
C267 C30 1.599 . S
C269 C132 1.692 . S
C278 C49 1.597 . S
C280 C228 1.639 . S
C291 C134 1.467 . S
C289 C2 1.648 . S
C302 C215 1.762 . S
C300 C25 1.754 . S
C311 C40 1.675 . S
C313 C131 1.707 . S
C322 C59 1.649 . S
C324 C218 1.483 . S
C335 C230 1.441 . S
C333 C21 1.598 . S
C346 C146 1.383 . S
C344 C44 1.591 1_556 S
C357 C227 1.662 . S
C355 C63 1.660 . S
C366 C6 1.632 . S
C368 C143 1.648 . S
