# Generated by pormake.
# Topology pth, (4,4)-cn, num edge types: 1
# Building blocks:
#     Node 0, Type 0, BuildingBlock: CEKHIL_clean_sbu_0, # of connection points: 4
#     Node 1, Type 0, BuildingBlock: CEKHIL_clean_sbu_0, # of connection points: 4
#     Node 2, Type 0, BuildingBlock: CEKHIL_clean_sbu_0, # of connection points: 4
#     Node 3, Type 1, BuildingBlock: MIFKUJ_clean_linker_1, # of connection points: 4
#     Node 4, Type 1, BuildingBlock: MIFKUJ_clean_linker_1, # of connection points: 4
#     Node 5, Type 1, BuildingBlock: MIFKUJ_clean_linker_1, # of connection points: 4
#     Edge 6, Type (0, 1), BuildingBlock: XUDNAN_clean_linker_2, # of connection points: 2
#     Edge 7, Type (0, 1), BuildingBlock: XUDNAN_clean_linker_2, # of connection points: 2
#     Edge 8, Type (0, 1), BuildingBlock: XUDNAN_clean_linker_2, # of connection points: 2
#     Edge 9, Type (0, 1), BuildingBlock: XUDNAN_clean_linker_2, # of connection points: 2
#     Edge 10, Type (0, 1), BuildingBlock: XUDNAN_clean_linker_2, # of connection points: 2
#     Edge 11, Type (0, 1), BuildingBlock: XUDNAN_clean_linker_2, # of connection points: 2
#     Edge 12, Type (0, 1), BuildingBlock: XUDNAN_clean_linker_2, # of connection points: 2
#     Edge 13, Type (0, 1), BuildingBlock: XUDNAN_clean_linker_2, # of connection points: 2
#     Edge 14, Type (0, 1), BuildingBlock: XUDNAN_clean_linker_2, # of connection points: 2
#     Edge 15, Type (0, 1), BuildingBlock: XUDNAN_clean_linker_2, # of connection points: 2
#     Edge 16, Type (0, 1), BuildingBlock: XUDNAN_clean_linker_2, # of connection points: 2
#     Edge 17, Type (0, 1), BuildingBlock: XUDNAN_clean_linker_2, # of connection points: 2
# Relax obj value: 0.014
# Max RMSD: 0.063
# Mean RMSD: 0.055
data_MOF--net-pth--node1-CEKHIL_clean_sbu_0--node2-MIFKUJ_clean_linker_1--edge1-XUDNAN_clean_linker_2
_symmetry_space_group_name_H-M    P1
_symmetry_Int_Tables_number       1
_symmetry_cell_setting            triclinic
loop_
_symmetry_equiv_pos_as_xyz
'x, y, z'
_cell_length_a     29.074071
_cell_length_b     29.164173
_cell_length_c     63.968935
_cell_angle_alpha  90.643853
_cell_angle_beta   90.260502
_cell_angle_gamma 120.28528
loop_
_atom_site_label
_atom_site_type_symbol
_atom_site_fract_x
_atom_site_fract_y
_atom_site_fract_z
_atom_type_partial_charge
Co0 Co 0.01703 0.02892 0.06586 0.0
O1 O 0.97661 0.98147 0.08778 0.0
O2 O 0.04663 0.98413 0.07315 0.0
C3 C 0.02321 0.1018 0.0812 0.0
O4 O 0.07001 0.07535 0.04345 0.0
Co5 Co 0.96763 0.08449 0.04076 0.0
O6 O 0.04078 0.12717 0.02995 0.0
C7 C 0.93175 0.97205 0.03179 0.0
C8 C 0.00965 0.964 0.08724 0.0
C9 C 0.07613 0.11382 0.03173 0.0
O10 O 0.96864 0.97527 0.04403 0.0
O11 O 0.92221 0.01006 0.02961 0.0
O12 O 0.05561 0.08552 0.08659 0.0
O13 O 0.98541 0.07118 0.06833 0.0
Co14 Co 0.02872 0.04156 0.3821 0.0
O15 O 0.00458 0.07298 0.3616 0.0
O16 O 0.07933 0.11707 0.3801 0.0
C17 C 0.01384 0.97144 0.36166 0.0
O18 O 0.06822 0.02223 0.40381 0.0
Co19 Co 0.95218 0.9295 0.39934 0.0
O20 O 0.0194 0.93425 0.40889 0.0
C21 C 0.94242 0.0211 0.41359 0.0
C22 C 0.04795 0.11742 0.36562 0.0
C23 C 0.06258 0.97859 0.41106 0.0
O24 O 0.98646 0.05354 0.40453 0.0
O25 O 0.92062 0.97054 0.4119 0.0
O26 O 0.05758 0.01676 0.35992 0.0
O27 O 0.97945 0.9711 0.37443 0.0
Co28 Co 0.01543 0.02627 0.71378 0.0
O29 O 0.07191 0.05823 0.69343 0.0
O30 O 0.06181 0.99729 0.71618 0.0
C31 C 0.9489 0.0099 0.691 0.0
O32 O 0.96271 0.9809 0.73616 0.0
Co33 Co 0.94121 0.0686 0.72618 0.0
O34 O 0.89811 1.00037 0.7408 0.0
C35 C 0.05346 0.1239 0.74139 0.0
C36 C 0.08766 0.02671 0.70048 0.0
C37 C 0.91844 0.97142 0.74433 0.0
O38 O 0.05937 0.0853 0.73473 0.0
O39 O 0.01118 0.12611 0.73793 0.0
O40 O 0.96725 0.97759 0.69223 0.0
O41 O 0.97264 0.05203 0.70273 0.0
H42 H 0.12074 0.52451 0.182 0.0
H43 H 0.12042 0.46107 0.15659 0.0
H44 H 0.98502 0.33338 0.18716 0.0
H45 H 0.98453 0.39705 0.21226 0.0
H46 H 0.04799 0.54933 0.18582 0.0
H47 H 0.12966 0.48669 0.23564 0.0
H48 H 0.14137 0.42357 0.25636 0.0
H49 H 0.98167 0.35945 0.2801 0.0
H50 H 0.97177 0.4249 0.26014 0.0
H51 H 0.95879 0.55503 0.26637 0.0
H52 H 0.94585 0.61555 0.28864 0.0
H53 H 0.07403 0.74924 0.25724 0.0
H54 H 0.08963 0.68827 0.2362 0.0
H55 H 0.03356 0.53505 0.26292 0.0
H56 H 0.95234 0.5985 0.2136 0.0
H57 H 0.94201 0.66428 0.19412 0.0
H58 H 0.09909 0.7247 0.16835 0.0
H59 H 0.10846 0.6577 0.18757 0.0
C60 C 0.05288 0.46569 0.19917 0.0
C61 C 0.09128 0.4828 0.18339 0.0
C62 C 0.09099 0.44658 0.16884 0.0
C63 C 0.05249 0.3924 0.16984 0.0
C64 C 0.01544 0.37487 0.18614 0.0
C65 C 0.01535 0.41124 0.20057 0.0
C66 C 0.04867 0.50536 0.21259 0.0
C67 C 0.04589 0.54677 0.20273 0.0
C68 C 0.04408 0.5011 0.2346 0.0
C69 C 0.04978 0.46038 0.24626 0.0
C70 C 0.09714 0.45882 0.24525 0.0
C71 C 0.10358 0.42232 0.25709 0.0
C72 C 0.06245 0.38587 0.27002 0.0
C73 C 0.01474 0.3873 0.27074 0.0
C74 C 0.00873 0.42445 0.25916 0.0
C75 C 0.02471 0.61681 0.24932 0.0
C76 C 0.98447 0.59738 0.26437 0.0
C77 C 0.97664 0.63224 0.27696 0.0
C78 C 0.0084 0.68759 0.27466 0.0
C79 C 0.04901 0.70701 0.25966 0.0
C80 C 0.05744 0.67204 0.24731 0.0
C81 C 0.03278 0.57903 0.23614 0.0
C82 C 0.03606 0.53786 0.24603 0.0
C83 C 0.03764 0.58338 0.21411 0.0
C84 C 0.03148 0.62365 0.2023 0.0
C85 C 0.98464 0.62608 0.20383 0.0
C86 C 0.97891 0.6639 0.19269 0.0
C87 C 0.01994 0.70032 0.17976 0.0
C88 C 0.06646 0.69709 0.17797 0.0
C89 C 0.07204 0.65901 0.18906 0.0
H90 H 0.63918 0.14253 0.519 0.0
H91 H 0.71127 0.1504 0.49697 0.0
H92 H 0.68214 0.99812 0.51851 0.0
H93 H 0.60846 0.98933 0.53951 0.0
H94 H 0.53337 0.06819 0.51728 0.0
H95 H 0.67847 0.11838 0.57093 0.0
H96 H 0.74198 0.1014 0.58993 0.0
H97 H 0.61382 0.94485 0.60522 0.0
H98 H 0.55109 0.96174 0.58618 0.0
H99 H 0.43516 0.97075 0.59688 0.0
H100 H 0.36618 0.95948 0.62058 0.0
H101 H 0.35329 0.08313 0.58899 0.0
H102 H 0.42761 0.09858 0.56679 0.0
H103 H 0.5257 0.03873 0.59358 0.0
H104 H 0.38499 0.9677 0.54505 0.0
H105 H 0.3103 0.94993 0.52226 0.0
H106 H 0.40691 0.1008 0.49243 0.0
H107 H 0.48129 0.11945 0.516 0.0
C108 C 0.6188 0.06573 0.53118 0.0
C109 C 0.64834 0.11083 0.51893 0.0
C110 C 0.68993 0.11548 0.50648 0.0
C111 C 0.70285 0.075 0.50596 0.0
C112 C 0.67309 0.02986 0.51828 0.0
C113 C 0.63129 0.02508 0.53058 0.0
C114 C 0.57395 0.06057 0.54406 0.0
C115 C 0.53187 0.06275 0.53406 0.0
C116 C 0.57062 0.05018 0.56571 0.0
C117 C 0.61007 0.04125 0.57707 0.0
C118 C 0.66423 0.0804 0.57833 0.0
C119 C 0.70035 0.07075 0.58927 0.0
C120 C 0.68291 0.02166 0.59899 0.0
C121 C 0.62866 0.98275 0.59768 0.0
C122 C 0.59269 0.99253 0.58693 0.0
C123 C 0.4372 0.03566 0.5799 0.0
C124 C 0.41811 0.99606 0.59512 0.0
C125 C 0.37745 0.9889 0.60854 0.0
C126 C 0.35292 0.01982 0.60678 0.0
C127 C 0.37127 0.05884 0.59119 0.0
C128 C 0.41335 0.06712 0.57811 0.0
C129 C 0.48369 0.04511 0.56686 0.0
C130 C 0.52669 0.04461 0.57684 0.0
C131 C 0.48583 0.05315 0.54494 0.0
C132 C 0.43884 0.0452 0.53246 0.0
C133 C 0.38986 0.99769 0.53402 0.0
C134 C 0.34728 0.98724 0.52073 0.0
C135 C 0.35273 0.02366 0.5053 0.0
C136 C 0.40119 0.07204 0.5042 0.0
C137 C 0.44387 0.08259 0.51759 0.0
H138 H 0.47337 0.41259 0.84426 0.0
H139 H 0.39775 0.35451 0.82132 0.0
H140 H 0.29612 0.3919 0.8579 0.0
H141 H 0.37171 0.45066 0.88036 0.0
H142 H 0.51724 0.51616 0.84837 0.0
H143 H 0.44433 0.37303 0.89662 0.0
H144 H 0.3808 0.30247 0.91928 0.0
H145 H 0.35282 0.41626 0.95207 0.0
H146 H 0.41579 0.48639 0.92925 0.0
H147 H 0.55491 0.63041 0.92601 0.0
H148 H 0.62607 0.69672 0.94861 0.0
H149 H 0.73747 0.65847 0.92031 0.0
H150 H 0.66587 0.59169 0.89789 0.0
H151 H 0.51936 0.52334 0.92585 0.0
H152 H 0.59462 0.66669 0.87575 0.0
H153 H 0.66494 0.73554 0.85445 0.0
H154 H 0.69273 0.61701 0.82574 0.0
H155 H 0.6231 0.54872 0.84723 0.0
C156 C 0.42831 0.43593 0.86411 0.0
C157 C 0.43461 0.4077 0.84748 0.0
C158 C 0.39133 0.37427 0.83446 0.0
C159 C 0.34108 0.36896 0.8377 0.0
C160 C 0.33447 0.39564 0.85485 0.0
C161 C 0.3776 0.42884 0.86786 0.0
C162 C 0.47525 0.4766 0.87628 0.0
C163 C 0.5181 0.51713 0.86534 0.0
C164 C 0.47599 0.4786 0.89842 0.0
C165 C 0.43465 0.435 0.91114 0.0
C166 C 0.42396 0.38262 0.9085 0.0
C167 C 0.38806 0.34243 0.9216 0.0
C168 C 0.36187 0.35377 0.93752 0.0
C169 C 0.37193 0.40608 0.93985 0.0
C170 C 0.40813 0.44628 0.92688 0.0
C171 C 0.60512 0.60629 0.9102 0.0
C172 C 0.59478 0.63669 0.92454 0.0
C173 C 0.63554 0.67475 0.93736 0.0
C174 C 0.68737 0.68273 0.93628 0.0
C175 C 0.69784 0.65287 0.92164 0.0
C176 C 0.6571 0.61506 0.90869 0.0
C177 C 0.56073 0.56296 0.89794 0.0
C178 C 0.51842 0.52207 0.90889 0.0
C179 C 0.56082 0.56033 0.87584 0.0
C180 C 0.60394 0.60258 0.86325 0.0
C181 C 0.6162 0.65567 0.865 0.0
C182 C 0.65605 0.69489 0.85267 0.0
C183 C 0.68457 0.68179 0.83844 0.0
C184 C 0.67204 0.62857 0.83674 0.0
C185 C 0.63202 0.58941 0.84893 0.0
H186 H 0.02861 0.12613 0.12252 0.0
H187 H 0.02512 0.18443 0.06088 0.0
H188 H 0.03406 0.26647 0.07687 0.0
H189 H 0.94718 0.17479 0.14616 0.0
H190 H 0.98142 0.18946 0.17104 0.0
H191 H 0.97678 0.13663 0.15464 0.0
H192 H 0.07958 0.18038 0.15562 0.0
H193 H 0.08456 0.23339 0.17197 0.0
H194 H 0.12028 0.2484 0.1477 0.0
H195 H 0.04738 0.34341 0.09971 0.0
H196 H 0.05485 0.40611 0.12765 0.0
H197 H 0.04225 0.29413 0.17454 0.0
C198 C 0.02996 0.15642 0.11246 0.0
C199 C 0.02699 0.14982 0.09053 0.0
C200 C 0.02761 0.18927 0.07773 0.0
C201 C 0.03276 0.23585 0.08667 0.0
C202 C 0.03576 0.24137 0.10841 0.0
C203 C 0.03336 0.20226 0.12115 0.0
C204 C 0.03433 0.21656 0.14406 0.0
C205 C 0.98181 0.17701 0.15459 0.0
C206 C 0.08258 0.2199 0.1555 0.0
C207 C 0.03955 0.2707 0.14225 0.0
C208 C 0.04049 0.28434 0.12156 0.0
C209 C 0.0463 0.33299 0.11596 0.0
C210 C 0.05085 0.36844 0.13192 0.0
C211 C 0.04914 0.35492 0.15322 0.0
C212 C 0.04328 0.3053 0.15838 0.0
H213 H 0.84318 0.96462 0.43042 0.0
H214 H 0.97896 0.1246 0.42691 0.0
H215 H 0.93259 0.15681 0.45001 0.0
H216 H 0.74189 1.00075 0.42969 0.0
H217 H 0.69978 0.94936 0.44754 0.0
H218 H 0.74378 0.93996 0.43062 0.0
H219 H 0.78613 0.92157 0.46285 0.0
H220 H 0.74247 0.93118 0.47988 0.0
H221 H 0.81357 0.97 0.48387 0.0
H222 H 0.87083 0.17017 0.4747 0.0
H223 H 0.79963 0.16402 0.49756 0.0
H224 H 0.70462 0.99527 0.48329 0.0
C225 C 0.86348 0.00655 0.43442 0.0
C226 C 0.91501 0.04202 0.42686 0.0
C227 C 0.93956 0.09659 0.43246 0.0
C228 C 0.91353 0.11521 0.44561 0.0
C229 C 0.86289 0.07884 0.45289 0.0
C230 C 0.83815 0.02569 0.44735 0.0
C231 C 0.7838 0.99436 0.45712 0.0
C232 C 0.73972 0.96968 0.44023 0.0
C233 C 0.78139 0.95178 0.4718 0.0
C234 C 0.78167 0.03804 0.46922 0.0
C235 C 0.82756 0.08652 0.46666 0.0
C236 C 0.83463 0.13241 0.47666 0.0
C237 C 0.79376 0.12855 0.48953 0.0
C238 C 0.74626 0.07914 0.4923 0.0
C239 C 0.74053 0.03353 0.48186 0.0
H240 H 0.81897 0.93077 0.76195 0.0
H241 H 0.95596 0.90877 0.75949 0.0
H242 H 0.91171 0.83384 0.7836 0.0
H243 H 0.78967 0.90049 0.81637 0.0
H244 H 0.71845 0.86548 0.81249 0.0
H245 H 0.76082 0.9178 0.79505 0.0
H246 H 0.7195 0.85317 0.76337 0.0
H247 H 0.67688 0.8007 0.7807 0.0
H248 H 0.71987 0.79153 0.76307 0.0
H249 H 0.85289 0.76109 0.8079 0.0
H250 H 0.78266 0.69456 0.83037 0.0
H251 H 0.68323 0.76265 0.81699 0.0
C252 C 0.83979 0.91033 0.76649 0.0
C253 C 0.89114 0.92596 0.75877 0.0
C254 C 0.91666 0.89773 0.76509 0.0
C255 C 0.89188 0.85508 0.77884 0.0
C256 C 0.84142 0.84083 0.78615 0.0
C257 C 0.81553 0.86744 0.78017 0.0
C258 C 0.76105 0.84345 0.79011 0.0
C259 C 0.75731 0.88424 0.80435 0.0
C260 C 0.71671 0.82087 0.77331 0.0
C261 C 0.76059 0.79947 0.80271 0.0
C262 C 0.80733 0.79865 0.80016 0.0
C263 C 0.81606 0.76127 0.80998 0.0
C264 C 0.77582 0.72348 0.82264 0.0
C265 C 0.72736 0.72323 0.82542 0.0
C266 C 0.72001 0.76211 0.81537 0.0
H267 H 0.05025 0.89571 0.08593 0.0
H268 H 0.96261 0.94754 0.12491 0.0
H269 H 0.95755 0.88743 0.15257 0.0
H270 H 0.97395 0.75722 0.10108 0.0
H271 H 0.03025 0.7472 0.10066 0.0
H272 H 0.02868 0.7955 0.08381 0.0
H273 H 0.11913 0.8683 0.09935 0.0
H274 H 0.12088 0.82024 0.11628 0.0
H275 H 0.1262 0.87998 0.12722 0.0
H276 H 0.96313 0.82422 0.1764 0.0
H277 H 0.97463 0.7567 0.19452 0.0
H278 H 0.05376 0.73977 0.13998 0.0
C279 C 0.03015 0.89434 0.10032 0.0
C280 C 0.00688 0.92641 0.10326 0.0
C281 C 0.98046 0.92319 0.12222 0.0
C282 C 0.97753 0.8893 0.13811 0.0
C283 C 1.00063 0.85817 0.13478 0.0
C284 C 0.02599 0.85977 0.11633 0.0
C285 C 0.04567 0.82039 0.11674 0.0
C286 C 0.01798 0.77754 0.09955 0.0
C287 C 0.10659 0.84896 0.11478 0.0
C288 C 0.028 0.79722 0.13837 0.0
C289 C 1.00228 0.81987 0.14845 0.0
C290 C 0.9827 0.80569 0.1686 0.0
C291 C 0.98909 0.76691 0.17872 0.0
C292 C 0.01449 0.74216 0.16868 0.0
C293 C 0.03443 0.75797 0.14821 0.0
H294 H 0.14702 0.06156 0.43289 0.0
H295 H 0.0781 0.89497 0.41573 0.0
H296 H 0.14673 0.89043 0.43664 0.0
H297 H 0.28722 0.09388 0.43346 0.0
H298 H 0.30495 0.13769 0.45591 0.0
H299 H 0.25268 0.12969 0.43833 0.0
H300 H 0.18768 0.10301 0.46938 0.0
H301 H 0.23966 0.11072 0.48702 0.0
H302 H 0.17745 0.04864 0.48565 0.0
H303 H 0.21894 0.90139 0.46031 0.0
H304 H 0.2921 0.92768 0.4857 0.0
H305 H 0.31529 0.08686 0.48903 0.0
C306 C 0.14697 0.02443 0.43331 0.0
C307 C 0.10701 0.97859 0.42264 0.0
C308 C 0.10794 0.93054 0.42383 0.0
C309 C 0.14693 0.92755 0.43562 0.0
C310 C 0.18499 0.97291 0.44626 0.0
C311 C 0.18564 0.02055 0.44525 0.0
C312 C 0.23001 0.06249 0.45906 0.0
C313 C 0.27115 0.10867 0.4459 0.0
C314 C 0.20732 0.08237 0.4763 0.0
C315 C 0.25342 0.03059 0.46813 0.0
C316 C 0.22687 0.97913 0.46035 0.0
C317 C 0.24009 0.94158 0.46654 0.0
C318 C 0.28147 0.95683 0.48114 0.0
C319 C 0.30922 0.00918 0.48961 0.0
C320 C 0.29512 0.04663 0.4828 0.0
H321 H 0.13946 0.1273 0.76208 0.0
H322 H 0.06461 0.22091 0.74921 0.0
H323 H 0.13119 0.29326 0.77148 0.0
H324 H 0.16955 0.16603 0.81575 0.0
H325 H 0.2331 0.16922 0.8159 0.0
H326 H 0.18143 0.12494 0.7979 0.0
H327 H 0.24514 0.16838 0.76683 0.0
H328 H 0.29711 0.21266 0.78475 0.0
H329 H 0.27716 0.23921 0.76352 0.0
H330 H 0.20189 0.35391 0.79607 0.0
H331 H 0.2757 0.40125 0.82137 0.0
H332 H 0.30676 0.27044 0.81918 0.0
C333 C 0.13754 0.16329 0.76375 0.0
C334 C 0.09652 0.16815 0.75387 0.0
C335 C 0.09523 0.21582 0.75666 0.0
C336 C 0.13303 0.25738 0.76926 0.0
C337 C 0.17219 0.25103 0.77904 0.0
C338 C 0.1751 0.20546 0.77644 0.0
C339 C 0.22069 0.20883 0.78939 0.0
C340 C 0.19993 0.16463 0.8057 0.0
C341 C 0.2625 0.20718 0.77528 0.0
C342 C 0.24236 0.26313 0.79975 0.0
C343 C 0.21364 0.28659 0.79346 0.0
C344 C 0.22483 0.33606 0.80111 0.0
C345 C 0.26657 0.36246 0.81561 0.0
C346 C 0.29676 0.33944 0.82239 0.0
C347 C 0.28459 0.28916 0.8142 0.0
H348 H 0.9133 0.07827 0.68178 0.0
H349 H 0.8864 0.92089 0.66711 0.0
H350 H 0.81591 0.90703 0.64172 0.0
H351 H 0.77613 0.04571 0.67812 0.0
H352 H 0.79211 0.10785 0.66637 0.0
H353 H 0.83937 0.10457 0.68367 0.0
H354 H 0.91071 0.14329 0.65477 0.0
H355 H 0.86358 0.14634 0.63732 0.0
H356 H 0.89647 0.11059 0.62952 0.0
H357 H 0.74873 0.91073 0.6178 0.0
H358 H 0.68939 0.93128 0.59726 0.0
H359 H 0.76125 0.0869 0.62716 0.0
C360 C 0.89234 0.04072 0.67334 0.0
C361 C 0.90516 1.00052 0.67646 0.0
C362 C 0.87714 0.95217 0.66498 0.0
C363 C 0.83711 0.94397 0.65052 0.0
C364 C 0.82582 0.98464 0.64766 0.0
C365 C 0.8526 0.03206 0.65875 0.0
C366 C 0.83341 0.06968 0.65255 0.0
C367 C 0.80878 0.0827 0.67129 0.0
C368 C 0.87875 0.12047 0.64297 0.0
C369 C 0.79151 0.036 0.63626 0.0
C370 C 0.78769 0.98706 0.6337 0.0
C371 C 0.75135 0.9489 0.6197 0.0
C372 C 0.71771 0.96088 0.60815 0.0
C373 C 0.72066 0.01067 0.6106 0.0
C374 C 0.75846 0.04876 0.62475 0.0
H375 H 0.8512 0.9503 1.00367 0.0
H376 H 0.93974 0.88194 0.03104 0.0
H377 H 0.88797 0.80119 0.00918 0.0
H378 H 0.72449 0.82989 1.00072 0.0
H379 H 0.70594 0.84593 0.97612 0.0
H380 H 0.75015 0.8983 0.99388 0.0
H381 H 0.82038 0.93961 0.96466 0.0
H382 H 0.77645 0.88727 0.94683 0.0
H383 H 0.84289 0.89951 0.9516 0.0
H384 H 0.82698 0.72809 0.98393 0.0
H385 H 0.75907 0.667 0.95833 0.0
H386 H 0.71071 0.78342 0.94768 0.0
C387 C 0.85979 0.91842 1.00517 0.0
C388 C 0.89975 0.92271 0.01913 0.0
C389 C 0.90945 0.8798 0.02049 0.0
C390 C 0.88029 0.83374 0.00811 0.0
C391 C 0.84151 0.83111 0.99444 0.0
C392 C 0.83111 0.87223 0.99297 0.0
C393 C 0.7872 0.85947 0.97713 0.0
C394 C 0.7391 0.85832 0.9876 0.0
C395 C 0.80799 0.8988 0.95898 0.0
C396 C 0.77423 0.80453 0.97 0.0
C397 C 0.80622 0.78899 0.98006 0.0
C398 C 0.80177 0.73988 0.97594 0.0
C399 C 0.76333 0.70561 0.96128 0.0
C400 C 0.72965 0.72046 0.95098 0.0
C401 C 0.73554 0.77075 0.95542 0.0
H402 H 0.08553 0.9534 0.34045 0.0
H403 H 0.9182 0.88092 0.35595 0.0
H404 H 0.89873 0.80131 0.3351 0.0
H405 H 0.06789 0.9034 0.28777 0.0
H406 H 0.12278 0.89123 0.28888 0.0
H407 H 0.12396 0.943 0.30491 0.0
H408 H 0.13744 0.90066 0.33806 0.0
H409 H 0.13665 0.84896 0.32212 0.0
H410 H 0.09087 0.83196 0.34347 0.0
H411 H 0.89655 0.73162 0.31137 0.0
H412 H 0.9125 0.67276 0.28854 0.0
H413 H 0.08241 0.78699 0.2905 0.0
C414 C 0.04483 0.92073 0.33944 0.0
C415 C 1.00327 0.92339 0.3497 0.0
C416 C 0.95062 0.87969 0.34821 0.0
C417 C 0.93913 0.83437 0.33635 0.0
C418 C 0.98085 0.83308 0.3263 0.0
C419 C 0.03274 0.87475 0.3279 0.0
C420 C 0.07027 0.86244 0.31595 0.0
C421 C 0.09784 0.9024 0.29833 0.0
C422 C 0.11122 0.8609 0.33079 0.0
C423 C 0.03123 0.80761 0.30722 0.0
C424 C 0.97986 0.79169 0.31328 0.0
C425 C 0.93672 0.74327 0.30677 0.0
C426 C 0.94634 0.70987 0.2939 0.0
C427 C 0.99886 0.72453 0.28784 0.0
C428 C 0.04172 0.7744 0.29462 0.0
H429 H 0.16936 0.09715 0.67535 0.0
H430 H 0.09553 0.93794 0.7002 0.0
H431 H 0.15423 0.91904 0.67863 0.0
H432 H 0.18847 0.06653 0.62353 0.0
H433 H 0.25336 0.12444 0.62042 0.0
H434 H 0.20643 0.12671 0.63806 0.0
H435 H 0.27511 0.15589 0.66849 0.0
H436 H 0.32254 0.15447 0.65085 0.0
H437 H 0.305 0.11633 0.67445 0.0
H438 H 0.21285 0.91379 0.65164 0.0
H439 H 0.27916 0.9266 0.62538 0.0
H440 H 0.32502 0.09316 0.62113 0.0
C441 C 0.16614 0.0586 0.67641 0.0
C442 C 0.12781 0.01892 0.6894 0.0
C443 C 0.12482 0.96902 0.69046 0.0
C444 C 0.15774 0.95776 0.67816 0.0
C445 C 0.19433 0.99723 0.66521 0.0
C446 C 0.19984 0.0471 0.66462 0.0
C447 C 0.24373 0.08266 0.64975 0.0
C448 C 0.22166 0.10116 0.63188 0.0
C449 C 0.2893 0.13015 0.66159 0.0
C450 C 0.26104 0.04451 0.64177 0.0
C451 C 0.23141 0.99532 0.65072 0.0
C452 C 0.23751 0.95259 0.64498 0.0
C453 C 0.27592 0.96058 0.6301 0.0
C454 C 0.3092 0.01142 0.62139 0.0
C455 C 0.30082 0.05372 0.62728 0.0
H456 H 0.10087 0.19708 1.0059 0.0
H457 H 0.16257 0.0986 0.02872 0.0
H458 H 0.24245 0.14842 1.00676 0.0
H459 H 0.1447 0.20601 0.95319 0.0
H460 H 0.16017 0.27375 0.95044 0.0
H461 H 0.10856 0.23038 0.96798 0.0
H462 H 0.15609 0.29752 0.99851 0.0
H463 H 0.20779 0.34114 0.98107 0.0
H464 H 0.22475 0.31913 1.00457 0.0
H465 H 0.31563 0.20971 0.98158 0.0
H466 H 0.37596 0.27786 0.95675 0.0
H467 H 0.26437 0.33457 0.95098 0.0
C468 C 0.13101 0.18571 1.00642 0.0
C469 C 0.12519 0.14367 0.01912 0.0
C470 C 0.16597 0.13057 0.01917 0.0
C471 C 0.21145 0.15862 1.00672 0.0
C472 C 0.21552 0.19962 0.99431 0.0
C473 C 0.1763 0.21307 0.99417 0.0
C474 C 0.18969 0.25858 0.9796 0.0
C475 C 0.14832 0.24111 0.96175 0.0
C476 C 0.1949 0.30695 0.99167 0.0
C477 C 0.24295 0.26916 0.97161 0.0
C478 C 0.25718 0.23463 0.98013 0.0
C479 C 0.30474 0.23684 0.97485 0.0
C480 C 0.33861 0.27548 0.96063 0.0
C481 C 0.32494 0.31162 0.95193 0.0
C482 C 0.27628 0.30798 0.95752 0.0
H483 H 0.01185 0.18816 0.36504 0.0
H484 H 0.11784 0.14581 0.33419 0.0
H485 H 0.13506 0.2115 0.3067 0.0
H486 H 0.95325 0.2062 0.3205 0.0
H487 H 0.95134 0.26357 0.33008 0.0
H488 H 0.95011 0.21622 0.34821 0.0
H489 H 0.03304 0.29086 0.3676 0.0
H490 H 0.03403 0.33867 0.34972 0.0
H491 H 0.09242 0.3328 0.35308 0.0
H492 H 0.13237 0.27376 0.28067 0.0
H493 H 0.11881 0.3362 0.2597 0.0
H494 H 0.02102 0.34525 0.30898 0.0
C495 C 0.03973 0.19396 0.35276 0.0
C496 C 0.06432 0.16284 0.35175 0.0
C497 C 0.09963 0.17027 0.33532 0.0
C498 C 0.10932 0.20717 0.31962 0.0
C499 C 0.08393 0.23685 0.32079 0.0
C500 C 0.05078 0.23159 0.33717 0.0
C501 C 0.02835 0.26826 0.33455 0.0
C502 C 0.96713 0.23665 0.33326 0.0
C503 C 0.04815 0.31014 0.35229 0.0
C504 C 0.05247 0.29339 0.31379 0.0
C505 C 0.08431 0.27462 0.30614 0.0
C506 C 0.10861 0.28978 0.28675 0.0
C507 C 0.10085 0.32569 0.27498 0.0
C508 C 0.06949 0.34681 0.28266 0.0
C509 C 0.04503 0.33004 0.30242 0.0
loop_
_geom_bond_atom_site_label_1
_geom_bond_atom_site_label_2
_geom_bond_distance
_geom_bond_site_symmetry_2
_ccdc_geom_bond_type
Co0 O1 2.216 1_445 S
Co0 O2 2.091 1_545 S
Co0 O4 2.004 . S
Co0 O10 2.021 1_445 S
Co0 O12 2.137 . S
Co0 O13 2.244 1_455 S
O1 Co0 2.216 1_665 S
O1 C8 1.247 1_655 S
O2 Co0 2.091 1_565 S
O2 C8 1.261 . S
C3 O12 1.247 . S
C3 O13 1.272 1_455 S
O4 Co0 2.004 . S
O4 C9 1.259 . S
Co5 O6 2.061 1_655 S
Co5 O11 2.052 . S
Co5 O13 2.135 . S
O6 Co5 2.061 1_455 S
O6 C9 1.235 . S
C7 O10 1.238 . S
C7 O11 1.241 1_565 S
C8 O1 1.247 1_455 S
C8 O2 1.261 . S
C9 O4 1.259 . S
C9 O6 1.235 . S
O10 Co0 2.021 1_665 S
O10 C7 1.238 . S
O11 Co5 2.052 . S
O11 C7 1.241 1_545 S
O12 Co0 2.137 . S
O12 C3 1.247 . S
O13 Co0 2.244 1_655 S
O13 C3 1.272 1_655 S
O13 Co5 2.135 . S
Co14 O15 2.216 1_455 S
Co14 O16 2.091 . S
Co14 O18 2.004 . S
Co14 O24 2.021 1_455 S
Co14 O26 2.137 . S
Co14 O27 2.244 1_445 S
O15 Co14 2.216 1_655 S
O15 C22 1.247 1_655 S
O16 Co14 2.091 . S
O16 C22 1.261 . S
C17 O26 1.247 1_565 S
C17 O27 1.272 1_455 S
O18 Co14 2.004 . S
O18 C23 1.259 . S
Co19 O20 2.061 1_655 S
Co19 O25 2.052 . S
Co19 O27 2.135 . S
O20 Co19 2.061 1_455 S
O20 C23 1.235 1_565 S
C21 O24 1.238 . S
C21 O25 1.241 1_545 S
C22 O15 1.247 1_455 S
C22 O16 1.261 . S
C23 O18 1.259 . S
C23 O20 1.235 1_545 S
O24 Co14 2.021 1_655 S
O24 C21 1.238 . S
O25 Co19 2.052 . S
O25 C21 1.241 1_565 S
O26 Co14 2.137 . S
O26 C17 1.247 1_545 S
O27 Co14 2.244 1_665 S
O27 C17 1.272 1_655 S
O27 Co19 2.135 . S
Co28 O29 2.216 . S
Co28 O30 2.091 1_545 S
Co28 O32 2.004 1_445 S
Co28 O38 2.021 . S
Co28 O40 2.137 1_445 S
Co28 O41 2.244 1_455 S
O29 Co28 2.216 . S
O29 C36 1.247 . S
O30 Co28 2.091 1_565 S
O30 C36 1.261 1_565 S
C31 O40 1.247 1_545 S
C31 O41 1.272 . S
O32 Co28 2.004 1_665 S
O32 C37 1.259 . S
Co33 O34 2.061 1_545 S
Co33 O39 2.052 1_655 S
Co33 O41 2.135 . S
O34 Co33 2.061 1_565 S
O34 C37 1.235 . S
C35 O38 1.238 . S
C35 O39 1.241 . S
C36 O29 1.247 . S
C36 O30 1.261 1_545 S
C37 O32 1.259 . S
C37 O34 1.235 . S
O38 Co28 2.021 . S
O38 C35 1.238 . S
O39 Co33 2.052 1_455 S
O39 C35 1.241 . S
O40 Co28 2.137 1_665 S
O40 C31 1.247 1_565 S
O41 Co28 2.244 1_655 S
O41 C31 1.272 . S
O41 Co33 2.135 . S
H42 C61 0.949 . S
H43 C62 0.950 . S
H44 C64 0.950 . S
H45 C65 0.950 . S
H46 C67 0.950 . S
H47 C70 0.950 . S
H48 C71 0.950 . S
H49 C73 0.951 . S
H50 C74 0.949 . S
H51 C76 0.949 . S
H52 C77 0.950 . S
H53 C79 0.950 . S
H54 C80 0.950 . S
H55 C82 0.950 1_655 S
H56 C85 0.950 . S
H57 C86 0.950 . S
H58 C88 0.951 . S
H59 C89 0.949 . S
C60 C61 1.376 . S
C60 C65 1.386 1_455 S
C60 C66 1.483 . S
C61 H42 0.949 . S
C61 C60 1.376 . S
C61 C62 1.397 . S
C62 H43 0.950 . S
C62 C61 1.397 . S
C62 C63 1.391 . S
C63 C62 1.391 . S
C63 C64 1.405 1_455 S
C64 H44 0.950 . S
C64 C63 1.405 1_655 S
C64 C65 1.367 . S
C65 H45 0.950 . S
C65 C60 1.386 1_655 S
C65 C64 1.367 . S
C66 C60 1.483 . S
C66 C67 1.382 . S
C66 C68 1.403 . S
C67 H46 0.950 . S
C67 C66 1.382 . S
C67 C83 1.411 . S
C68 C66 1.403 . S
C68 C69 1.489 . S
C68 C82 1.411 . S
C69 C68 1.489 . S
C69 C70 1.383 . S
C69 C74 1.382 1_455 S
C70 H47 0.950 . S
C70 C69 1.383 . S
C70 C71 1.395 . S
C71 H48 0.950 . S
C71 C70 1.395 . S
C71 C72 1.288 . S
C72 C71 1.288 . S
C72 C73 1.392 1_455 S
C73 H49 0.951 . S
C73 C72 1.392 1_655 S
C73 C74 1.392 . S
C74 H50 0.949 . S
C74 C69 1.382 1_655 S
C74 C73 1.392 . S
C75 C76 1.376 1_455 S
C75 C80 1.386 . S
C75 C81 1.483 . S
C76 H51 0.949 . S
C76 C75 1.376 1_655 S
C76 C77 1.397 . S
C77 H52 0.950 . S
C77 C76 1.397 . S
C77 C78 1.391 1_655 S
C78 C77 1.391 1_455 S
C78 C79 1.405 . S
C79 H53 0.950 . S
C79 C78 1.405 . S
C79 C80 1.367 . S
C80 H54 0.950 . S
C80 C75 1.386 . S
C80 C79 1.367 . S
C81 C75 1.483 . S
C81 C82 1.382 . S
C81 C83 1.403 . S
C82 H55 0.950 1_455 S
C82 C68 1.411 . S
C82 C81 1.382 . S
C83 C67 1.411 . S
C83 C81 1.403 . S
C83 C84 1.489 . S
C84 C83 1.489 . S
C84 C85 1.383 1_455 S
C84 C89 1.382 . S
C85 H56 0.950 . S
C85 C84 1.383 1_655 S
C85 C86 1.395 . S
C86 H57 0.950 . S
C86 C85 1.395 . S
C86 C87 1.288 1_655 S
C87 C86 1.288 1_455 S
C87 C88 1.392 . S
C88 H58 0.951 . S
C88 C87 1.392 . S
C88 C89 1.392 . S
C89 H59 0.949 . S
C89 C84 1.382 . S
C89 C88 1.392 . S
H90 C109 0.949 . S
H91 C110 0.950 . S
H92 C112 0.950 . S
H93 C113 0.950 . S
H94 C115 0.950 . S
H95 C118 0.950 . S
H96 C119 0.950 . S
H97 C121 0.951 . S
H98 C122 0.949 . S
H99 C124 0.949 . S
H100 C125 0.950 . S
H101 C127 0.950 . S
H102 C128 0.950 . S
H103 C130 0.950 . S
H104 C133 0.950 . S
H105 C134 0.950 . S
H106 C136 0.951 . S
H107 C137 0.949 . S
C108 C109 1.376 . S
C108 C113 1.386 1_545 S
C108 C114 1.483 . S
C109 H90 0.949 . S
C109 C108 1.376 . S
C109 C110 1.397 . S
C110 H91 0.950 . S
C110 C109 1.397 . S
C110 C111 1.391 . S
C111 C110 1.391 . S
C111 C112 1.405 1_545 S
C112 H92 0.950 . S
C112 C111 1.405 1_565 S
C112 C113 1.367 . S
C113 H93 0.950 . S
C113 C108 1.386 1_565 S
C113 C112 1.367 . S
C114 C108 1.483 . S
C114 C115 1.382 . S
C114 C116 1.403 . S
C115 H94 0.950 . S
C115 C114 1.382 . S
C115 C131 1.411 . S
C116 C114 1.403 . S
C116 C117 1.489 . S
C116 C130 1.411 . S
C117 C116 1.489 . S
C117 C118 1.383 . S
C117 C122 1.382 1_545 S
C118 H95 0.950 . S
C118 C117 1.383 . S
C118 C119 1.395 . S
C119 H96 0.950 . S
C119 C118 1.395 . S
C119 C120 1.288 . S
C120 C119 1.288 . S
C120 C121 1.392 1_545 S
C121 H97 0.951 . S
C121 C120 1.392 1_565 S
C121 C122 1.392 . S
C122 H98 0.949 . S
C122 C117 1.382 1_565 S
C122 C121 1.392 . S
C123 C124 1.376 1_545 S
C123 C128 1.386 . S
C123 C129 1.483 . S
C124 H99 0.949 . S
C124 C123 1.376 1_565 S
C124 C125 1.397 . S
C125 H100 0.950 . S
C125 C124 1.397 . S
C125 C126 1.391 1_565 S
C126 C125 1.391 1_545 S
C126 C127 1.405 . S
C127 H101 0.950 . S
C127 C126 1.405 . S
C127 C128 1.367 . S
C128 H102 0.950 . S
C128 C123 1.386 . S
C128 C127 1.367 . S
C129 C123 1.483 . S
C129 C130 1.382 . S
C129 C131 1.403 . S
C130 H103 0.950 . S
C130 C116 1.411 . S
C130 C129 1.382 . S
C131 C115 1.411 . S
C131 C129 1.403 . S
C131 C132 1.489 . S
C132 C131 1.489 . S
C132 C133 1.383 1_545 S
C132 C137 1.382 . S
C133 H104 0.950 . S
C133 C132 1.383 1_565 S
C133 C134 1.395 . S
C134 H105 0.950 . S
C134 C133 1.395 . S
C134 C135 1.288 1_565 S
C135 C134 1.288 1_545 S
C135 C136 1.392 . S
C136 H106 0.951 . S
C136 C135 1.392 . S
C136 C137 1.392 . S
C137 H107 0.949 . S
C137 C132 1.382 . S
C137 C136 1.392 . S
H138 C157 0.949 . S
H139 C158 0.950 . S
H140 C160 0.950 . S
H141 C161 0.950 . S
H142 C163 0.950 . S
H143 C166 0.950 . S
H144 C167 0.950 . S
H145 C169 0.951 . S
H146 C170 0.949 . S
H147 C172 0.949 . S
H148 C173 0.950 . S
H149 C175 0.950 . S
H150 C176 0.950 . S
H151 C178 0.950 . S
H152 C181 0.950 . S
H153 C182 0.950 . S
H154 C184 0.951 . S
H155 C185 0.949 . S
C156 C157 1.376 . S
C156 C161 1.386 . S
C156 C162 1.483 . S
C157 H138 0.949 . S
C157 C156 1.376 . S
C157 C158 1.397 . S
C158 H139 0.950 . S
C158 C157 1.397 . S
C158 C159 1.391 . S
C159 C158 1.391 . S
C159 C160 1.405 . S
C160 H140 0.950 . S
C160 C159 1.405 . S
C160 C161 1.367 . S
C161 H141 0.950 . S
C161 C156 1.386 . S
C161 C160 1.367 . S
C162 C156 1.483 . S
C162 C163 1.382 . S
C162 C164 1.403 . S
C163 H142 0.950 . S
C163 C162 1.382 . S
C163 C179 1.411 . S
C164 C162 1.403 . S
C164 C165 1.489 . S
C164 C178 1.411 . S
C165 C164 1.489 . S
C165 C166 1.383 . S
C165 C170 1.382 . S
C166 H143 0.950 . S
C166 C165 1.383 . S
C166 C167 1.395 . S
C167 H144 0.950 . S
C167 C166 1.395 . S
C167 C168 1.288 . S
C168 C167 1.288 . S
C168 C169 1.392 . S
C169 H145 0.951 . S
C169 C168 1.392 . S
C169 C170 1.392 . S
C170 H146 0.949 . S
C170 C165 1.382 . S
C170 C169 1.392 . S
C171 C172 1.376 . S
C171 C176 1.386 . S
C171 C177 1.483 . S
C172 H147 0.949 . S
C172 C171 1.376 . S
C172 C173 1.397 . S
C173 H148 0.950 . S
C173 C172 1.397 . S
C173 C174 1.391 . S
C174 C173 1.391 . S
C174 C175 1.405 . S
C175 H149 0.950 . S
C175 C174 1.405 . S
C175 C176 1.367 . S
C176 H150 0.950 . S
C176 C171 1.386 . S
C176 C175 1.367 . S
C177 C171 1.483 . S
C177 C178 1.382 . S
C177 C179 1.403 . S
C178 H151 0.950 . S
C178 C164 1.411 . S
C178 C177 1.382 . S
C179 C163 1.411 . S
C179 C177 1.403 . S
C179 C180 1.489 . S
C180 C179 1.489 . S
C180 C181 1.383 . S
C180 C185 1.382 . S
C181 H152 0.950 . S
C181 C180 1.383 . S
C181 C182 1.395 . S
C182 H153 0.950 . S
C182 C181 1.395 . S
C182 C183 1.288 . S
C183 C182 1.288 . S
C183 C184 1.392 . S
C184 H154 0.951 . S
C184 C183 1.392 . S
C184 C185 1.392 . S
C185 H155 0.949 . S
C185 C180 1.382 . S
C185 C184 1.392 . S
H186 C198 0.930 . S
H187 C200 0.930 . S
H188 C201 0.930 . S
H189 C205 0.959 . S
H190 C205 0.959 . S
H191 C205 0.961 . S
H192 C206 0.960 . S
H193 C206 0.961 . S
H194 C206 0.959 1_455 S
H195 C209 0.929 . S
H196 C210 0.931 . S
H197 C212 0.930 . S
C198 H186 0.930 . S
C198 C199 1.399 1_655 S
C198 C203 1.399 . S
C199 C198 1.399 1_455 S
C199 C200 1.376 . S
C200 H187 0.930 . S
C200 C199 1.376 . S
C200 C201 1.388 . S
C201 H188 0.930 . S
C201 C200 1.388 . S
C201 C202 1.390 . S
C202 C201 1.390 . S
C202 C203 1.394 1_455 S
C202 C208 1.465 . S
C203 C198 1.399 . S
C203 C202 1.394 1_655 S
C203 C204 1.516 . S
C204 C203 1.516 . S
C204 C205 1.502 . S
C204 C206 1.561 . S
C204 C207 1.526 . S
C205 H189 0.959 . S
C205 H190 0.959 . S
C205 H191 0.961 . S
C205 C204 1.502 . S
C206 H192 0.960 . S
C206 H193 0.961 . S
C206 H194 0.959 1_655 S
C206 C204 1.561 . S
C207 C204 1.526 . S
C207 C208 1.396 1_655 S
C207 C212 1.390 . S
C208 C202 1.465 . S
C208 C207 1.396 1_455 S
C208 C209 1.399 . S
C209 H195 0.929 . S
C209 C208 1.399 . S
C209 C210 1.385 . S
C210 H196 0.931 . S
C210 C209 1.385 . S
C210 C211 1.389 . S
C211 C210 1.389 . S
C211 C212 1.387 1_455 S
C212 H197 0.930 . S
C212 C207 1.390 . S
C212 C211 1.387 1_655 S
H213 C225 0.930 . S
H214 C227 0.930 . S
H215 C228 0.930 . S
H216 C232 0.959 . S
H217 C232 0.959 . S
H218 C232 0.961 . S
H219 C233 0.960 . S
H220 C233 0.961 . S
H221 C233 0.959 . S
H222 C236 0.929 . S
H223 C237 0.931 . S
H224 C239 0.930 . S
C225 H213 0.930 . S
C225 C226 1.399 1_565 S
C225 C230 1.399 1_565 S
C226 C225 1.399 1_545 S
C226 C227 1.376 . S
C227 H214 0.930 . S
C227 C226 1.376 . S
C227 C228 1.388 . S
C228 H215 0.930 . S
C228 C227 1.388 . S
C228 C229 1.390 . S
C229 C228 1.390 . S
C229 C230 1.394 . S
C229 C235 1.465 . S
C230 C225 1.399 1_545 S
C230 C229 1.394 . S
C230 C231 1.516 1_545 S
C231 C230 1.516 1_565 S
C231 C232 1.502 . S
C231 C233 1.561 . S
C231 C234 1.522 1_565 S
C232 H216 0.959 . S
C232 H217 0.959 . S
C232 H218 0.961 . S
C232 C231 1.502 . S
C233 H219 0.960 . S
C233 H220 0.961 . S
C233 H221 0.959 . S
C233 C231 1.561 . S
C234 C231 1.522 1_545 S
C234 C235 1.398 . S
C234 C239 1.391 1_545 S
C235 C229 1.465 . S
C235 C234 1.398 . S
C235 C236 1.399 . S
C236 H222 0.929 . S
C236 C235 1.399 . S
C236 C237 1.385 . S
C237 H223 0.931 . S
C237 C236 1.385 . S
C237 C238 1.389 . S
C238 C237 1.389 . S
C238 C239 1.387 1_545 S
C239 H224 0.930 . S
C239 C234 1.391 1_565 S
C239 C238 1.387 1_565 S
H240 C252 0.930 . S
H241 C254 0.930 . S
H242 C255 0.930 . S
H243 C259 0.959 . S
H244 C259 0.959 . S
H245 C259 0.961 . S
H246 C260 0.960 . S
H247 C260 0.961 . S
H248 C260 0.959 . S
H249 C263 0.929 . S
H250 C264 0.931 . S
H251 C266 0.930 . S
C252 H240 0.930 . S
C252 C253 1.399 . S
C252 C257 1.399 . S
C253 C252 1.399 . S
C253 C254 1.376 . S
C254 H241 0.930 . S
C254 C253 1.376 . S
C254 C255 1.388 . S
C255 H242 0.930 . S
C255 C254 1.388 . S
C255 C256 1.390 . S
C256 C255 1.390 . S
C256 C257 1.394 . S
C256 C262 1.465 . S
C257 C252 1.399 . S
C257 C256 1.394 . S
C257 C258 1.516 . S
C258 C257 1.516 . S
C258 C259 1.502 . S
C258 C260 1.561 . S
C258 C261 1.526 . S
C259 H243 0.959 . S
C259 H244 0.959 . S
C259 H245 0.961 . S
C259 C258 1.502 . S
C260 H246 0.960 . S
C260 H247 0.961 . S
C260 H248 0.959 . S
C260 C258 1.561 . S
C261 C258 1.526 . S
C261 C262 1.396 . S
C261 C266 1.390 . S
C262 C256 1.465 . S
C262 C261 1.396 . S
C262 C263 1.399 . S
C263 H249 0.929 . S
C263 C262 1.399 . S
C263 C264 1.385 . S
C264 H250 0.931 . S
C264 C263 1.385 . S
C264 C265 1.389 . S
C265 C264 1.389 . S
C265 C266 1.387 . S
C266 H251 0.930 . S
C266 C261 1.390 . S
C266 C265 1.387 . S
H267 C279 0.930 1_655 S
H268 C281 0.930 . S
H269 C282 0.930 . S
H270 C286 0.959 . S
H271 C286 0.959 . S
H272 C286 0.961 . S
H273 C287 0.960 . S
H274 C287 0.961 . S
H275 C287 0.959 . S
H276 C290 0.929 . S
H277 C291 0.931 . S
H278 C293 0.930 1_655 S
C279 H267 0.930 1_455 S
C279 C280 1.399 . S
C279 C284 1.399 . S
C280 C279 1.399 . S
C280 C281 1.376 . S
C281 H268 0.930 . S
C281 C280 1.376 . S
C281 C282 1.388 . S
C282 H269 0.930 . S
C282 C281 1.388 . S
C282 C283 1.390 . S
C283 C282 1.390 . S
C283 C284 1.394 . S
C283 C289 1.465 . S
C284 C279 1.399 . S
C284 C283 1.394 . S
C284 C285 1.515 . S
C285 C284 1.515 . S
C285 C286 1.500 1_455 S
C285 C287 1.564 . S
C285 C288 1.526 . S
C286 H270 0.959 . S
C286 H271 0.959 . S
C286 H272 0.961 . S
C286 C285 1.500 1_655 S
C287 H273 0.960 . S
C287 H274 0.961 . S
C287 H275 0.959 . S
C287 C285 1.564 . S
C288 C285 1.526 . S
C288 C289 1.396 . S
C288 C293 1.390 . S
C289 C283 1.465 . S
C289 C288 1.396 . S
C289 C290 1.399 . S
C290 H276 0.929 . S
C290 C289 1.399 . S
C290 C291 1.385 . S
C291 H277 0.931 . S
C291 C290 1.385 . S
C291 C292 1.389 . S
C292 C291 1.389 . S
C292 C293 1.387 . S
C293 H278 0.930 1_455 S
C293 C288 1.390 . S
C293 C292 1.387 . S
H294 C306 0.930 . S
H295 C308 0.930 . S
H296 C309 0.930 . S
H297 C313 0.959 . S
H298 C313 0.959 . S
H299 C313 0.961 . S
H300 C314 0.960 . S
H301 C314 0.961 . S
H302 C314 0.959 . S
H303 C317 0.929 . S
H304 C318 0.931 . S
H305 C320 0.930 . S
C306 H294 0.930 . S
C306 C307 1.399 . S
C306 C311 1.399 . S
C307 C306 1.399 . S
C307 C308 1.376 1_545 S
C308 H295 0.930 . S
C308 C307 1.376 1_565 S
C308 C309 1.388 . S
C309 H296 0.930 . S
C309 C308 1.388 . S
C309 C310 1.390 1_565 S
C310 C309 1.390 1_545 S
C310 C311 1.394 . S
C310 C316 1.465 . S
C311 C306 1.399 . S
C311 C310 1.394 . S
C311 C312 1.516 . S
C312 C311 1.516 . S
C312 C313 1.502 . S
C312 C314 1.561 . S
C312 C315 1.526 . S
C313 H297 0.959 . S
C313 H298 0.959 . S
C313 H299 0.961 . S
C313 C312 1.502 . S
C314 H300 0.960 . S
C314 H301 0.961 . S
C314 H302 0.959 . S
C314 C312 1.561 . S
C315 C312 1.526 . S
C315 C316 1.396 . S
C315 C320 1.390 . S
C316 C310 1.465 . S
C316 C315 1.396 . S
C316 C317 1.399 1_545 S
C317 H303 0.929 . S
C317 C316 1.399 1_565 S
C317 C318 1.385 . S
C318 H304 0.931 . S
C318 C317 1.385 . S
C318 C319 1.389 1_565 S
C319 C318 1.389 1_545 S
C319 C320 1.387 . S
C320 H305 0.930 . S
C320 C315 1.390 . S
C320 C319 1.387 . S
H321 C333 0.930 . S
H322 C335 0.930 . S
H323 C336 0.930 . S
H324 C340 0.959 . S
H325 C340 0.959 . S
H326 C340 0.961 . S
H327 C341 0.960 . S
H328 C341 0.961 . S
H329 C341 0.959 . S
H330 C344 0.929 . S
H331 C345 0.931 . S
H332 C347 0.930 . S
C333 H321 0.930 . S
C333 C334 1.399 . S
C333 C338 1.399 . S
C334 C333 1.399 . S
C334 C335 1.376 . S
C335 H322 0.930 . S
C335 C334 1.376 . S
C335 C336 1.388 . S
C336 H323 0.930 . S
C336 C335 1.388 . S
C336 C337 1.390 . S
C337 C336 1.390 . S
C337 C338 1.394 . S
C337 C343 1.465 . S
C338 C333 1.399 . S
C338 C337 1.394 . S
C338 C339 1.516 . S
C339 C338 1.516 . S
C339 C340 1.502 . S
C339 C341 1.561 . S
C339 C342 1.526 . S
C340 H324 0.959 . S
C340 H325 0.959 . S
C340 H326 0.961 . S
C340 C339 1.502 . S
C341 H327 0.960 . S
C341 H328 0.961 . S
C341 H329 0.959 . S
C341 C339 1.561 . S
C342 C339 1.526 . S
C342 C343 1.396 . S
C342 C347 1.390 . S
C343 C337 1.465 . S
C343 C342 1.396 . S
C343 C344 1.399 . S
C344 H330 0.929 . S
C344 C343 1.399 . S
C344 C345 1.385 . S
C345 H331 0.931 . S
C345 C344 1.385 . S
C345 C346 1.389 . S
C346 C345 1.389 . S
C346 C347 1.387 . S
C347 H332 0.930 . S
C347 C342 1.390 . S
C347 C346 1.387 . S
H348 C360 0.930 . S
H349 C362 0.930 . S
H350 C363 0.930 . S
H351 C367 0.959 . S
H352 C367 0.959 . S
H353 C367 0.961 . S
H354 C368 0.960 . S
H355 C368 0.961 . S
H356 C368 0.959 . S
H357 C371 0.929 . S
H358 C372 0.931 . S
H359 C374 0.930 . S
C360 H348 0.930 . S
C360 C361 1.399 . S
C360 C365 1.399 . S
C361 C360 1.399 . S
C361 C362 1.376 1_545 S
C362 H349 0.930 . S
C362 C361 1.376 1_565 S
C362 C363 1.388 . S
C363 H350 0.930 . S
C363 C362 1.388 . S
C363 C364 1.408 . S
C364 C363 1.408 . S
C364 C365 1.379 1_565 S
C364 C370 1.458 . S
C365 C360 1.399 . S
C365 C364 1.379 1_545 S
C365 C366 1.516 . S
C366 C365 1.516 . S
C366 C367 1.502 . S
C366 C368 1.561 . S
C366 C369 1.526 . S
C367 H351 0.959 . S
C367 H352 0.959 . S
C367 H353 0.961 . S
C367 C366 1.502 . S
C368 H354 0.960 . S
C368 H355 0.961 . S
C368 H356 0.959 . S
C368 C366 1.561 . S
C369 C366 1.526 . S
C369 C370 1.396 1_545 S
C369 C374 1.390 . S
C370 C364 1.458 . S
C370 C369 1.396 1_565 S
C370 C371 1.399 . S
C371 H357 0.929 . S
C371 C370 1.399 . S
C371 C372 1.385 . S
C372 H358 0.931 . S
C372 C371 1.385 . S
C372 C373 1.389 1_565 S
C373 C372 1.389 1_545 S
C373 C374 1.387 . S
C374 H359 0.930 . S
C374 C369 1.390 . S
C374 C373 1.387 . S
H375 C387 0.930 . S
H376 C389 0.930 . S
H377 C390 0.930 . S
H378 C394 0.959 . S
H379 C394 0.959 . S
H380 C394 0.961 . S
H381 C395 0.960 . S
H382 C395 0.961 . S
H383 C395 0.959 . S
H384 C398 0.929 . S
H385 C399 0.931 . S
H386 C401 0.930 . S
C387 H375 0.930 . S
C387 C388 1.399 1_556 S
C387 C392 1.399 . S
C388 C387 1.399 1_554 S
C388 C389 1.376 . S
C389 H376 0.930 . S
C389 C388 1.376 . S
C389 C390 1.388 . S
C390 H377 0.930 . S
C390 C389 1.388 . S
C390 C391 1.390 1_554 S
C391 C390 1.390 1_556 S
C391 C392 1.394 . S
C391 C397 1.465 . S
C392 C387 1.399 . S
C392 C391 1.394 . S
C392 C393 1.516 . S
C393 C392 1.516 . S
C393 C394 1.502 . S
C393 C395 1.561 . S
C393 C396 1.526 . S
C394 H378 0.959 . S
C394 H379 0.959 . S
C394 H380 0.961 . S
C394 C393 1.502 . S
C395 H381 0.960 . S
C395 H382 0.961 . S
C395 H383 0.959 . S
C395 C393 1.561 . S
C396 C393 1.526 . S
C396 C397 1.396 . S
C396 C401 1.390 . S
C397 C391 1.465 . S
C397 C396 1.396 . S
C397 C398 1.399 . S
C398 H384 0.929 . S
C398 C397 1.399 . S
C398 C399 1.385 . S
C399 H385 0.931 . S
C399 C398 1.385 . S
C399 C400 1.389 . S
C400 C399 1.389 . S
C400 C401 1.387 . S
C401 H386 0.930 . S
C401 C396 1.390 . S
C401 C400 1.387 . S
H402 C414 0.930 . S
H403 C416 0.930 . S
H404 C417 0.930 . S
H405 C421 0.959 . S
H406 C421 0.959 . S
H407 C421 0.961 . S
H408 C422 0.960 . S
H409 C422 0.961 . S
H410 C422 0.959 . S
H411 C425 0.929 . S
H412 C426 0.931 . S
H413 C428 0.930 . S
C414 H402 0.930 . S
C414 C415 1.399 . S
C414 C419 1.399 . S
C415 C414 1.399 . S
C415 C416 1.376 1_455 S
C416 H403 0.930 . S
C416 C415 1.376 1_655 S
C416 C417 1.388 . S
C417 H404 0.930 . S
C417 C416 1.388 . S
C417 C418 1.390 . S
C418 C417 1.390 . S
C418 C419 1.394 1_655 S
C418 C424 1.465 . S
C419 C414 1.399 . S
C419 C418 1.394 1_455 S
C419 C420 1.516 . S
C420 C419 1.516 . S
C420 C421 1.502 . S
C420 C422 1.561 . S
C420 C423 1.526 . S
C421 H405 0.959 . S
C421 H406 0.959 . S
C421 H407 0.961 . S
C421 C420 1.502 . S
C422 H408 0.960 . S
C422 H409 0.961 . S
C422 H410 0.959 . S
C422 C420 1.561 . S
C423 C420 1.526 . S
C423 C424 1.396 1_455 S
C423 C428 1.390 . S
C424 C418 1.465 . S
C424 C423 1.396 1_655 S
C424 C425 1.399 . S
C425 H411 0.929 . S
C425 C424 1.399 . S
C425 C426 1.385 . S
C426 H412 0.931 . S
C426 C425 1.385 . S
C426 C427 1.389 1_655 S
C427 C426 1.389 1_455 S
C427 C428 1.387 . S
C428 H413 0.930 . S
C428 C423 1.390 . S
C428 C427 1.387 . S
H429 C441 0.930 . S
H430 C443 0.930 . S
H431 C444 0.930 . S
H432 C448 0.959 . S
H433 C448 0.959 . S
H434 C448 0.961 . S
H435 C449 0.960 . S
H436 C449 0.961 . S
H437 C449 0.959 . S
H438 C452 0.929 . S
H439 C453 0.931 . S
H440 C455 0.930 . S
C441 H429 0.930 . S
C441 C442 1.399 . S
C441 C446 1.399 . S
C442 C441 1.399 . S
C442 C443 1.376 1_545 S
C443 H430 0.930 . S
C443 C442 1.376 1_565 S
C443 C444 1.388 . S
C444 H431 0.930 . S
C444 C443 1.388 . S
C444 C445 1.390 . S
C445 C444 1.390 . S
C445 C446 1.394 1_565 S
C445 C451 1.465 . S
C446 C441 1.399 . S
C446 C445 1.394 1_545 S
C446 C447 1.516 . S
C447 C446 1.516 . S
C447 C448 1.502 . S
C447 C449 1.561 . S
C447 C450 1.526 . S
C448 H432 0.959 . S
C448 H433 0.959 . S
C448 H434 0.961 . S
C448 C447 1.502 . S
C449 H435 0.960 . S
C449 H436 0.961 . S
C449 H437 0.959 . S
C449 C447 1.561 . S
C450 C447 1.526 . S
C450 C451 1.396 1_545 S
C450 C455 1.390 . S
C451 C445 1.465 . S
C451 C450 1.396 1_565 S
C451 C452 1.399 . S
C452 H438 0.929 . S
C452 C451 1.399 . S
C452 C453 1.385 . S
C453 H439 0.931 . S
C453 C452 1.385 . S
C453 C454 1.389 1_565 S
C454 C453 1.389 1_545 S
C454 C455 1.387 . S
C455 H440 0.930 . S
C455 C450 1.390 . S
C455 C454 1.387 . S
H456 C468 0.930 . S
H457 C470 0.930 . S
H458 C471 0.930 . S
H459 C475 0.959 . S
H460 C475 0.959 . S
H461 C475 0.961 . S
H462 C476 0.960 . S
H463 C476 0.961 . S
H464 C476 0.959 . S
H465 C479 0.929 . S
H466 C480 0.931 . S
H467 C482 0.930 . S
C468 H456 0.930 . S
C468 C469 1.399 1_556 S
C468 C473 1.399 . S
C469 C468 1.399 1_554 S
C469 C470 1.376 . S
C470 H457 0.930 . S
C470 C469 1.376 . S
C470 C471 1.388 . S
C471 H458 0.930 . S
C471 C470 1.388 . S
C471 C472 1.390 1_554 S
C472 C471 1.390 1_556 S
C472 C473 1.394 . S
C472 C478 1.465 . S
C473 C468 1.399 . S
C473 C472 1.394 . S
C473 C474 1.516 . S
C474 C473 1.516 . S
C474 C475 1.502 . S
C474 C476 1.561 . S
C474 C477 1.526 . S
C475 H459 0.959 . S
C475 H460 0.959 . S
C475 H461 0.961 . S
C475 C474 1.502 . S
C476 H462 0.960 . S
C476 H463 0.961 . S
C476 H464 0.959 . S
C476 C474 1.561 . S
C477 C474 1.526 . S
C477 C478 1.396 . S
C477 C482 1.390 . S
C478 C472 1.465 . S
C478 C477 1.396 . S
C478 C479 1.399 . S
C479 H465 0.929 . S
C479 C478 1.399 . S
C479 C480 1.385 . S
C480 H466 0.931 . S
C480 C479 1.385 . S
C480 C481 1.389 . S
C481 C480 1.389 . S
C481 C482 1.387 . S
C482 H467 0.930 . S
C482 C477 1.390 . S
C482 C481 1.387 . S
H483 C495 0.930 . S
H484 C497 0.930 . S
H485 C498 0.930 . S
H486 C502 0.959 . S
H487 C502 0.959 . S
H488 C502 0.961 . S
H489 C503 0.960 . S
H490 C503 0.961 . S
H491 C503 0.959 . S
H492 C506 0.929 . S
H493 C507 0.931 . S
H494 C509 0.930 . S
C495 H483 0.930 . S
C495 C496 1.399 . S
C495 C500 1.399 . S
C496 C495 1.399 . S
C496 C497 1.376 . S
C497 H484 0.930 . S
C497 C496 1.376 . S
C497 C498 1.388 . S
C498 H485 0.930 . S
C498 C497 1.388 . S
C498 C499 1.390 . S
C499 C498 1.390 . S
C499 C500 1.394 . S
C499 C505 1.465 . S
C500 C495 1.399 . S
C500 C499 1.394 . S
C500 C501 1.516 . S
C501 C500 1.516 . S
C501 C502 1.502 1_455 S
C501 C503 1.561 . S
C501 C504 1.526 . S
C502 H486 0.959 . S
C502 H487 0.959 . S
C502 H488 0.961 . S
C502 C501 1.502 1_655 S
C503 H489 0.960 . S
C503 H490 0.961 . S
C503 H491 0.959 . S
C503 C501 1.561 . S
C504 C501 1.526 . S
C504 C505 1.396 . S
C504 C509 1.390 . S
C505 C499 1.465 . S
C505 C504 1.396 . S
C505 C506 1.399 . S
C506 H492 0.929 . S
C506 C505 1.399 . S
C506 C507 1.385 . S
C507 H493 0.931 . S
C507 C506 1.385 . S
C507 C508 1.389 . S
C508 C507 1.389 . S
C508 C509 1.387 . S
C509 H494 0.930 . S
C509 C504 1.390 . S
C509 C508 1.387 . S
C211 C63 1.501 . S
C199 C3 1.495 . S
C226 C21 1.523 . S
C238 C111 1.534 . S
C253 C37 1.520 . S
C265 C183 1.502 . S
C280 C8 1.509 . S
C292 C87 1.502 . S
C319 C135 1.533 . S
C307 C23 1.488 . S
C334 C35 1.487 . S
C346 C159 1.528 . S
C373 C120 1.484 . S
C361 C31 1.481 . S
C388 C7 1.524 . S
C400 C174 1.523 . S
C427 C78 1.503 . S
C415 C17 1.512 . S
C454 C126 1.486 . S
C442 C36 1.487 . S
C481 C168 1.517 . S
C469 C9 1.505 . S
C496 C22 1.510 . S
C508 C72 1.516 . S
