# Generated by pormake.
# Topology anh, (6,3)-cn, num edge types: 1
# Building blocks:
#     Node 0, Type 0, BuildingBlock: BETFEN_clean_sbu_0, # of connection points: 6
#     Node 1, Type 0, BuildingBlock: BETFEN_clean_sbu_0, # of connection points: 6
#     Node 2, Type 0, BuildingBlock: BETFEN_clean_sbu_0, # of connection points: 6
#     Node 3, Type 1, BuildingBlock: BETDAH_clean_linker_0, # of connection points: 3
#     Node 4, Type 1, BuildingBlock: BETDAH_clean_linker_0, # of connection points: 3
#     Node 5, Type 1, BuildingBlock: BETDAH_clean_linker_0, # of connection points: 3
#     Node 6, Type 1, BuildingBlock: BETDAH_clean_linker_0, # of connection points: 3
#     Node 7, Type 1, BuildingBlock: BETDAH_clean_linker_0, # of connection points: 3
#     Node 8, Type 1, BuildingBlock: BETDAH_clean_linker_0, # of connection points: 3
#     Edge 9, Type (0, 1), BuildingBlock: UVAHIK_clean_linker_0, # of connection points: 2
#     Edge 10, Type (0, 1), BuildingBlock: UVAHIK_clean_linker_0, # of connection points: 2
#     Edge 11, Type (0, 1), BuildingBlock: UVAHIK_clean_linker_0, # of connection points: 2
#     Edge 12, Type (0, 1), BuildingBlock: UVAHIK_clean_linker_0, # of connection points: 2
#     Edge 13, Type (0, 1), BuildingBlock: UVAHIK_clean_linker_0, # of connection points: 2
#     Edge 14, Type (0, 1), BuildingBlock: UVAHIK_clean_linker_0, # of connection points: 2
#     Edge 15, Type (0, 1), BuildingBlock: UVAHIK_clean_linker_0, # of connection points: 2
#     Edge 16, Type (0, 1), BuildingBlock: UVAHIK_clean_linker_0, # of connection points: 2
#     Edge 17, Type (0, 1), BuildingBlock: UVAHIK_clean_linker_0, # of connection points: 2
#     Edge 18, Type (0, 1), BuildingBlock: UVAHIK_clean_linker_0, # of connection points: 2
#     Edge 19, Type (0, 1), BuildingBlock: UVAHIK_clean_linker_0, # of connection points: 2
#     Edge 20, Type (0, 1), BuildingBlock: UVAHIK_clean_linker_0, # of connection points: 2
#     Edge 21, Type (0, 1), BuildingBlock: UVAHIK_clean_linker_0, # of connection points: 2
#     Edge 22, Type (0, 1), BuildingBlock: UVAHIK_clean_linker_0, # of connection points: 2
#     Edge 23, Type (0, 1), BuildingBlock: UVAHIK_clean_linker_0, # of connection points: 2
#     Edge 24, Type (0, 1), BuildingBlock: UVAHIK_clean_linker_0, # of connection points: 2
#     Edge 25, Type (0, 1), BuildingBlock: UVAHIK_clean_linker_0, # of connection points: 2
#     Edge 26, Type (0, 1), BuildingBlock: UVAHIK_clean_linker_0, # of connection points: 2
# Relax obj value: 0.121
# Max RMSD: 0.169
# Mean RMSD: 0.107
data_MOF--net-anh--node1-BETFEN_clean_sbu_0--node2-BETDAH_clean_linker_0--edge1-UVAHIK_clean_linker_0
_symmetry_space_group_name_H-M    P1
_symmetry_Int_Tables_number       1
_symmetry_cell_setting            triclinic
loop_
_symmetry_equiv_pos_as_xyz
'x, y, z'
_cell_length_a     39.310504
_cell_length_b     41.56181
_cell_length_c     64.135979
_cell_angle_alpha  92.863634
_cell_angle_beta   95.053353
_cell_angle_gamma 107.98505
loop_
_atom_site_label
_atom_site_type_symbol
_atom_site_fract_x
_atom_site_fract_y
_atom_site_fract_z
_atom_type_partial_charge
Pr0 Pr 0.03414 0.5345 0.14916 0.0
Pr1 Pr 0.05615 0.60752 0.13882 0.0
C2 C 1.00585 0.47422 0.16511 0.0
C3 C 0.97127 0.45272 0.17099 0.0
C4 C 0.9388 0.45803 0.16385 0.0
C5 C 0.9061 0.43676 0.16925 0.0
C6 C 0.90538 0.4099 0.18194 0.0
C7 C 0.93815 0.40507 0.18924 0.0
C8 C 0.97075 0.4263 0.1838 0.0
C9 C 0.04066 0.54286 0.10666 0.0
C10 C 0.97094 0.5714 0.13866 0.0
C11 C 0.0857 0.66915 0.12496 0.0
C12 C 0.11902 0.69748 0.13082 0.0
C13 C 0.13966 0.69914 0.15006 0.0
C14 C 0.17104 0.72637 0.15577 0.0
C15 C 0.18254 0.75237 0.14226 0.0
C16 C 0.16189 0.75027 0.12285 0.0
C17 C 0.13038 0.72306 0.1172 0.0
C18 C 0.0508 0.59915 0.18149 0.0
C19 C 0.11975 0.56921 0.14599 0.0
O20 O 0.02145 0.50254 0.1768 0.0
O21 O 1.00809 0.47756 0.14508 0.0
O22 O 0.02585 0.55885 0.11821 0.0
O23 O 0.0516 0.52093 0.11677 0.0
O24 O 0.99462 0.59342 0.12882 0.0
O25 O 0.98083 0.54957 0.15013 0.0
O26 O 0.0895 0.64135 0.1165 0.0
O27 O 0.06237 0.6634 0.13875 0.0
O28 O 0.06515 0.58317 0.16968 0.0
O29 O 0.04032 0.62145 0.17162 0.0
O30 O 0.09623 0.54386 0.15372 0.0
O31 O 0.1102 0.59436 0.1382 0.0
H32 H 0.93873 0.47847 0.15402 0.0
H33 H 0.88142 0.44143 0.16357 0.0
H34 H 0.93856 0.38441 0.19879 0.0
H35 H 0.99559 0.42185 0.18944 0.0
H36 H 0.13131 0.67949 0.16075 0.0
H37 H 0.18592 0.72732 0.17094 0.0
H38 H 0.17019 0.76952 0.11192 0.0
H39 H 0.11486 0.72202 0.10222 0.0
Pr40 Pr 0.57977 0.08541 0.50498 0.0
Pr41 Pr 0.50487 0.06498 0.51537 0.0
C42 C 0.64095 0.11169 0.48699 0.0
C43 C 0.66496 0.14485 0.48232 0.0
C44 C 0.66304 0.17524 0.49193 0.0
C45 C 0.68645 0.2065 0.48744 0.0
C46 C 0.71212 0.20791 0.4732 0.0
C47 C 0.71359 0.17729 0.46352 0.0
C48 C 0.69024 0.1461 0.46804 0.0
C49 C 0.57552 0.07985 0.54758 0.0
C50 C 0.54153 0.149 0.51419 0.0
C51 C 0.44017 0.03517 0.5287 0.0
C52 C 0.41196 1.00231 0.52288 0.0
C53 C 0.40831 0.98597 0.50274 0.0
C54 C 0.38163 0.95484 0.49715 0.0
C55 C 0.35821 0.93904 0.51166 0.0
C56 C 0.36221 0.95543 0.53193 0.0
C57 C 0.38883 0.98679 0.53746 0.0
C58 C 0.51132 0.06752 0.47244 0.0
C59 C 0.54442 1.00159 0.50992 0.0
O60 O 0.60902 0.10112 0.47639 0.0
O61 O 0.64049 0.10549 0.50676 0.0
O62 O 0.55694 0.09376 0.53624 0.0
O63 O 0.59776 0.06973 0.53719 0.0
O64 O 0.51545 0.1251 0.52168 0.0
O65 O 0.56726 0.13965 0.5057 0.0
O66 O 0.47032 0.0339 0.53845 0.0
O67 O 0.44517 0.05683 0.5143 0.0
O68 O 0.52829 0.05426 0.48507 0.0
O69 O 0.48943 0.07963 0.48174 0.0
O70 O 0.57142 1.02509 0.50278 0.0
O71 O 0.51738 1.01108 0.51649 0.0
H72 H 0.64354 0.17477 0.50293 0.0
H73 H 0.68426 0.22956 0.49499 0.0
H74 H 0.73328 0.17734 0.45271 0.0
H75 H 0.6921 0.12289 0.46048 0.0
H76 H 0.42604 0.99739 0.49126 0.0
H77 H 0.3791 0.94341 0.48132 0.0
H78 H 0.34508 0.94386 0.54363 0.0
H79 H 0.39143 0.99886 0.55314 0.0
Pr80 Pr 0.50414 0.53514 0.81165 0.0
Pr81 Pr 0.53686 0.61754 0.83099 0.0
C82 C 0.48364 0.47596 0.78826 0.0
C83 C 0.48627 0.44269 0.79342 0.0
C84 C 0.48106 0.43211 0.81369 0.0
C85 C 0.48845 0.40294 0.81963 0.0
C86 C 0.5015 0.38395 0.80548 0.0
C87 C 0.50573 0.39403 0.78499 0.0
C88 C 0.49817 0.42321 0.77901 0.0
C89 C 0.51011 0.54312 0.85571 0.0
C90 C 0.59392 0.57318 0.82361 0.0
C91 C 0.55873 0.67313 0.85792 0.0
C92 C 0.54646 0.68937 0.87545 0.0
C93 C 0.51351 0.69607 0.87308 0.0
C94 C 0.50551 0.71734 0.88809 0.0
C95 C 0.53018 0.73215 0.90586 0.0
C96 C 0.56136 0.72239 0.90921 0.0
C97 C 0.56954 0.70138 0.89405 0.0
C98 C 0.53289 0.60886 0.78676 0.0
C99 C 0.44803 0.57923 0.8204 0.0
O100 O 0.51452 0.49938 0.78707 0.0
O101 O 0.46111 0.48698 0.79823 0.0
O102 O 0.51713 0.56542 0.84291 0.0
O103 O 0.49951 0.5134 0.84534 0.0
O104 O 0.58924 0.60174 0.83103 0.0
O105 O 0.5671 0.54617 0.81524 0.0
O106 O 0.56768 0.64582 0.86146 0.0
O107 O 0.54203 0.67214 0.83912 0.0
O108 O 0.52299 0.587 0.79961 0.0
O109 O 0.54616 0.63854 0.79717 0.0
O110 O 0.45377 0.55466 0.80852 0.0
O111 O 0.47435 0.60298 0.83208 0.0
H112 H 0.47244 0.44699 0.82524 0.0
H113 H 0.48535 0.39606 0.83559 0.0
H114 H 0.51538 0.37963 0.77368 0.0
H115 H 0.50268 0.43116 0.76338 0.0
H116 H 0.49486 0.68662 0.85904 0.0
H117 H 0.48133 0.72429 0.8848 0.0
H118 H 0.58057 0.73268 0.92293 0.0
H119 H 0.59486 0.69607 0.89633 0.0
H120 H 0.48491 0.02676 0.25037 0.0
H121 H 0.56024 0.1254 0.24521 0.0
H122 H 0.49473 0.06815 0.19022 0.0
C123 C 0.49786 0.04672 0.24072 0.0
C124 C 0.48675 0.0436 0.21911 0.0
C125 C 0.52405 0.07622 0.25025 0.0
C126 C 0.54011 0.10258 0.23787 0.0
C127 C 0.52973 0.09944 0.21609 0.0
C128 C 0.50278 0.07024 0.20696 0.0
N129 N 0.54512 0.12524 0.20286 0.0
C130 C 0.57714 0.15154 0.20817 0.0
H131 H 0.54212 0.50251 0.56498 0.0
H132 H 0.53795 0.60327 0.55558 0.0
H133 H 0.54255 0.53674 0.50262 0.0
C134 C 0.54131 0.52179 0.55434 0.0
C135 C 0.54222 0.51432 0.5328 0.0
C136 C 0.5395 0.55332 0.56263 0.0
C137 C 0.53953 0.57923 0.54917 0.0
C138 C 0.54082 0.57438 0.52749 0.0
C139 C 0.54167 0.54123 0.5193 0.0
N140 N 0.54117 0.60188 0.51392 0.0
C141 C 0.54148 0.63637 0.51875 0.0
H142 H 0.94968 0.55464 0.88713 0.0
H143 H 0.05857 0.5681 0.87403 0.0
H144 H 0.97973 0.57666 0.82536 0.0
C145 C 0.9698 0.55917 0.87615 0.0
C146 C 0.96029 0.56502 0.85543 0.0
C147 C 1.00524 0.56067 0.88311 0.0
C148 C 0.03133 0.56729 0.86882 0.0
C149 C 0.02216 0.57276 0.84786 0.0
C150 C 0.98677 0.57216 0.84143 0.0
N151 N 0.04764 0.57908 0.83285 0.0
C152 C 0.08257 0.57721 0.83609 0.0
H153 H 0.0869 0.63844 0.40396 0.0
H154 H 1.00626 0.54345 0.41071 0.0
H155 H 0.06623 0.60624 0.46556 0.0
C156 C 0.07223 0.61995 0.41398 0.0
C157 C 0.08005 0.62592 0.43585 0.0
C158 C 0.04566 0.59039 0.40482 0.0
C159 C 0.02668 0.5663 0.41777 0.0
C160 C 0.03389 0.57226 0.4398 0.0
C161 C 0.06048 0.60202 0.44863 0.0
N162 N 0.01531 0.54913 0.45371 0.0
C163 C 0.98694 0.51945 0.44787 0.0
H164 H 0.59158 0.11214 0.77608 0.0
H165 H 0.58211 1.00615 0.77145 0.0
H166 H 0.5803 0.05697 0.83128 0.0
C167 C 0.58978 0.08892 0.78354 0.0
C168 C 0.58718 0.08823 0.80522 0.0
C169 C 0.58774 0.0595 0.77116 0.0
C170 C 0.58359 0.02913 0.78077 0.0
C171 C 0.58081 0.02794 0.80236 0.0
C172 C 0.58254 0.05759 0.81459 0.0
N173 N 0.57574 0.99638 0.81113 0.0
C174 C 0.56763 0.99061 0.83152 0.0
H175 H 0.60767 0.57045 0.07471 0.0
H176 H 0.50476 0.57309 0.09089 0.0
H177 H 0.58923 0.57763 0.13969 0.0
C178 C 0.59019 0.57204 0.08663 0.0
C179 C 0.60315 0.57452 0.10795 0.0
C180 C 0.5549 0.57155 0.08042 0.0
C181 C 0.532 0.57348 0.09574 0.0
C182 C 0.54422 0.57523 0.11722 0.0
C183 C 0.57975 0.57577 0.12315 0.0
N184 N 0.52181 0.57656 0.13331 0.0
C185 C 0.48558 0.57439 0.13008 0.0
C186 C 0.18297 0.59716 0.13778 0.0
C187 C 0.15763 0.56945 0.1453 0.0
C188 C 0.21825 0.59717 0.13619 0.0
C189 C 0.27379 0.53974 0.13264 0.0
H190 H 0.35322 0.623 0.14623 0.0
C191 C 0.42332 0.54383 0.13661 0.0
C192 C 0.44799 0.57222 0.12952 0.0
C193 C 0.38761 0.54282 0.13796 0.0
C194 C 0.33136 0.5996 0.14208 0.0
H195 H 0.14997 0.5201 0.15724 0.0
H196 H 0.21171 0.52025 0.15464 0.0
H197 H 0.29214 0.62257 0.15052 0.0
H198 H 0.4552 0.62163 0.11803 0.0
H199 H 0.39266 0.61988 0.12001 0.0
H200 H 0.31308 0.51679 0.12421 0.0
C201 C 0.20408 0.54185 0.14974 0.0
C202 C 0.29624 0.59934 0.14459 0.0
C203 C 0.1687 0.54187 0.15138 0.0
C204 C 0.43646 0.5994 0.12346 0.0
C205 C 0.40075 0.59847 0.1248 0.0
C206 C 0.30895 0.54001 0.13013 0.0
C207 C 0.22932 0.56947 0.14204 0.0
C208 C 0.26691 0.56943 0.13985 0.0
C209 C 0.37589 0.57031 0.13231 0.0
C210 C 0.33826 0.56998 0.13476 0.0
H211 H 0.17554 0.61887 0.13289 0.0
H212 H 0.23667 0.61869 0.12993 0.0
H213 H 0.25189 0.51636 0.12852 0.0
H214 H 0.43183 0.52271 0.14158 0.0
H215 H 0.36949 0.52092 0.14405 0.0
C216 C 0.75391 0.26663 0.48495 0.0
C217 C 0.73771 0.24102 0.46871 0.0
C218 C 0.77902 0.29718 0.48087 0.0
C219 C 0.84202 0.33465 0.44242 0.0
H220 H 0.84496 0.41973 0.47141 0.0
C221 C 0.964 0.45697 0.44563 0.0
C222 C 0.95729 0.48815 0.44541 0.0
C223 C 0.93567 0.42686 0.44627 0.0
C224 C 0.84431 0.39628 0.46297 0.0
H225 H 0.73448 0.22807 0.43525 0.0
H226 H 0.77816 0.28132 0.42813 0.0
H227 H 0.79792 0.36773 0.47687 0.0
H228 H 0.91629 0.51285 0.44524 0.0
H229 H 0.86647 0.46021 0.44598 0.0
H230 H 0.88827 0.36328 0.42839 0.0
C231 C 0.77196 0.27754 0.44412 0.0
C232 C 0.81757 0.36634 0.46632 0.0
C233 C 0.74687 0.24698 0.44821 0.0
C234 C 0.92189 0.48891 0.44524 0.0
C235 C 0.89352 0.45883 0.44589 0.0
C236 C 0.8688 0.3646 0.43907 0.0
C237 C 0.78856 0.30296 0.46042 0.0
C238 C 0.81622 0.33508 0.45622 0.0
C239 C 0.90012 0.42745 0.44681 0.0
C240 C 0.87047 0.39578 0.44942 0.0
H241 H 0.74791 0.26275 0.50097 0.0
H242 H 0.79163 0.31594 0.49387 0.0
H243 H 0.84206 0.31102 0.43451 0.0
H244 H 0.99128 0.456 0.44605 0.0
H245 H 0.94187 0.4033 0.44723 0.0
C246 C 0.55733 0.79106 0.92287 0.0
C247 C 0.5268 0.7623 0.91801 0.0
C248 C 0.5536 0.82286 0.92739 0.0
C249 C 0.49012 0.86212 0.90639 0.0
H250 H 0.56909 0.94258 0.92719 0.0
C251 C 0.52282 0.97326 0.85661 0.0
C252 C 0.55841 0.98058 0.85194 0.0
C253 C 0.51223 0.95669 0.87455 0.0
C254 C 0.54645 0.9205 0.92147 0.0
H255 H 0.46881 0.74352 0.9179 0.0
H256 H 0.46227 0.79931 0.92558 0.0
H257 H 0.56086 0.89021 0.9446 0.0
H258 H 0.61157 0.97915 0.86257 0.0
H259 H 0.59333 0.9497 0.89361 0.0
H260 H 0.47739 0.89119 0.88224 0.0
C261 C 0.48906 0.79732 0.92535 0.0
C262 C 0.54168 0.89051 0.93146 0.0
C263 C 0.49281 0.76536 0.92086 0.0
C264 C 0.58397 0.9737 0.86605 0.0
C265 C 0.57347 0.95711 0.88393 0.0
C266 C 0.49482 0.89203 0.89645 0.0
C267 C 0.51925 0.82669 0.92707 0.0
C268 C 0.51521 0.86032 0.92297 0.0
C269 C 0.53712 0.94697 0.88788 0.0
C270 C 0.52468 0.92078 0.9029 0.0
H271 H 0.58402 0.78992 0.92088 0.0
H272 H 0.57758 0.84475 0.92862 0.0
H273 H 0.46933 0.83952 0.89935 0.0
H274 H 0.50279 0.97854 0.8458 0.0
H275 H 0.48416 0.9496 0.87725 0.0
C276 C 0.92177 0.59332 0.1239 0.0
C277 C 0.9329 0.57132 0.13686 0.0
C278 C 0.8862 0.59381 0.1224 0.0
C279 C 0.79354 0.54335 0.13187 0.0
H280 H 0.77562 0.62946 0.12699 0.0
C281 C 0.64979 0.55597 0.12941 0.0
C282 C 0.64115 0.57593 0.11399 0.0
C283 C 0.68535 0.55582 0.1339 0.0
C284 C 0.7801 0.60516 0.12821 0.0
H285 H 0.91502 0.53247 0.15842 0.0
H286 H 0.85308 0.53361 0.15598 0.0
H287 H 0.83728 0.62801 0.13143 0.0
H288 H 0.6634 0.61233 0.09179 0.0
H289 H 0.72506 0.61201 0.09952 0.0
H290 H 0.7362 0.52057 0.12859 0.0
C291 C 0.87179 0.55022 0.14674 0.0
C292 C 0.81553 0.60429 0.1307 0.0
C293 C 0.90742 0.54967 0.14822 0.0
C294 C 0.66904 0.59639 0.1036 0.0
C295 C 0.7045 0.59645 0.10819 0.0
C296 C 0.75804 0.54424 0.12945 0.0
C297 C 0.8607 0.57242 0.13387 0.0
C298 C 0.82281 0.57334 0.13228 0.0
C299 C 0.71313 0.57594 0.12325 0.0
C300 C 0.75086 0.57512 0.12731 0.0
H301 H 0.94053 0.61023 0.11483 0.0
H302 H 0.87863 0.61079 0.112 0.0
H303 H 0.79799 0.519 0.1328 0.0
H304 H 0.62892 0.53979 0.13762 0.0
H305 H 0.69109 0.53996 0.14573 0.0
C306 C 0.33636 0.88107 0.49206 0.0
C307 C 0.32973 0.90576 0.50552 0.0
C308 C 0.30929 0.85056 0.48544 0.0
C309 C 0.22372 0.79225 0.49836 0.0
H310 H 0.20947 0.76278 0.43903 0.0
C311 C 0.10302 0.67733 0.46179 0.0
C312 C 0.10887 0.65704 0.44517 0.0
C313 C 0.12976 0.70744 0.46982 0.0
C314 C 0.21335 0.77025 0.45571 0.0
H315 H 0.28915 0.91711 0.52276 0.0
H316 H 0.24216 0.86345 0.51153 0.0
H317 H 0.25658 0.81515 0.45201 0.0
H318 H 0.1478 0.65164 0.42449 0.0
H319 H 0.19469 0.70344 0.43874 0.0
H320 H 0.18092 0.74704 0.50217 0.0
C321 C 0.26846 0.86789 0.50614 0.0
C322 C 0.24033 0.80041 0.46312 0.0
C323 C 0.29547 0.89862 0.51262 0.0
C324 C 0.14229 0.66705 0.43708 0.0
C325 C 0.16912 0.69688 0.44521 0.0
C326 C 0.1969 0.76183 0.49098 0.0
C327 C 0.27495 0.84371 0.49227 0.0
C328 C 0.24592 0.81173 0.48453 0.0
C329 C 0.16313 0.71777 0.46152 0.0
C330 C 0.19141 0.75033 0.46954 0.0
H331 H 0.36258 0.88521 0.48665 0.0
H332 H 0.31531 0.83219 0.47504 0.0
H333 H 0.22758 0.80019 0.51498 0.0
H334 H 0.0774 0.67039 0.46823 0.0
H335 H 0.12392 0.72298 0.48218 0.0
C336 C 0.49068 0.33131 0.82482 0.0
C337 C 0.51221 0.35469 0.81246 0.0
C338 C 0.50108 0.30395 0.83153 0.0
C339 C 0.51698 0.23689 0.8285 0.0
H340 H 0.61703 0.24485 0.84406 0.0
C341 C 0.6101 0.15094 0.8139 0.0
C342 C 0.58629 0.11916 0.81733 0.0
C343 C 0.60427 0.1807 0.82129 0.0
C344 C 0.58895 0.24223 0.83987 0.0
H345 H 0.56203 0.36837 0.79801 0.0
H346 H 0.57979 0.32022 0.8093 0.0
H347 H 0.5995 0.29606 0.84089 0.0
H348 H 0.5399 0.0935 0.83297 0.0
H349 H 0.53006 0.14563 0.84629 0.0
H350 H 0.50653 0.18327 0.82629 0.0
C351 C 0.55507 0.32321 0.81401 0.0
C352 C 0.57894 0.27151 0.83801 0.0
C353 C 0.54461 0.35047 0.80724 0.0
C354 C 0.55863 0.11768 0.83005 0.0
C355 C 0.55281 0.14751 0.8375 0.0
C356 C 0.52697 0.20765 0.83028 0.0
C357 C 0.53331 0.29954 0.8261 0.0
C358 C 0.54306 0.26907 0.83159 0.0
C359 C 0.57454 0.17926 0.83232 0.0
C360 C 0.56326 0.20998 0.83524 0.0
H361 H 0.46551 0.33388 0.82903 0.0
H362 H 0.48383 0.28614 0.84088 0.0
H363 H 0.48916 0.23416 0.82337 0.0
H364 H 0.63199 0.15276 0.8044 0.0
H365 H 0.62148 0.20464 0.81691 0.0
C366 C 0.51526 0.93837 0.51779 0.0
C367 C 0.54418 0.96396 0.51076 0.0
C368 C 0.51498 0.9039 0.51882 0.0
C369 C 0.56517 0.84016 0.5025 0.0
H370 H 0.50384 0.78173 0.53847 0.0
C371 C 0.57172 0.69931 0.51306 0.0
C372 C 0.54233 0.67346 0.51934 0.0
C373 C 0.57198 0.7338 0.51225 0.0
C374 C 0.52109 0.79705 0.52803 0.0
H375 H 0.59593 0.97075 0.49936 0.0
H376 H 0.59584 0.91208 0.50131 0.0
H377 H 0.50425 0.84019 0.53665 0.0
H378 H 0.48959 0.66571 0.52948 0.0
H379 H 0.48977 0.72468 0.52814 0.0
H380 H 0.58204 0.79702 0.49391 0.0
C381 C 0.57259 0.9182 0.50586 0.0
C382 C 0.52134 0.83154 0.52695 0.0
C383 C 0.57281 0.95269 0.50481 0.0
C384 C 0.51315 0.68422 0.52479 0.0
C385 C 0.51339 0.71878 0.52403 0.0
C386 C 0.56496 0.8057 0.50361 0.0
C387 C 0.54366 0.89241 0.51293 0.0
C388 C 0.54339 0.85449 0.51414 0.0
C389 C 0.54277 0.7449 0.51762 0.0
C390 C 0.54293 0.78277 0.51643 0.0
H391 H 0.49233 0.94494 0.52255 0.0
H392 H 0.49156 0.88611 0.5241 0.0
H393 H 0.58239 0.8554 0.49203 0.0
H394 H 0.59483 0.69282 0.50854 0.0
H395 H 0.59571 0.75188 0.50748 0.0
C396 C 0.661 0.60118 0.82662 0.0
C397 C 0.6313 0.57135 0.82494 0.0
C398 C 0.69624 0.5996 0.82821 0.0
C399 C 0.75061 0.54743 0.84645 0.0
H400 H 0.82038 0.59735 0.81109 0.0
C401 C 0.8937 0.53556 0.85208 0.0
C402 C 0.92266 0.56401 0.84885 0.0
C403 C 0.85813 0.53542 0.84761 0.0
C404 C 0.80156 0.58363 0.82138 0.0
H405 H 0.6156 0.51643 0.82373 0.0
H406 H 0.67722 0.51378 0.82711 0.0
H407 H 0.75891 0.59966 0.8067 0.0
H408 H 0.93713 0.61461 0.83831 0.0
H409 H 0.87525 0.61519 0.83131 0.0
H410 H 0.79308 0.53252 0.86186 0.0
C411 C 0.67308 0.53836 0.82695 0.0
C412 C 0.76617 0.58484 0.81873 0.0
C413 C 0.63779 0.53989 0.82492 0.0
C414 C 0.91528 0.59219 0.84073 0.0
C415 C 0.87966 0.59237 0.83665 0.0
C416 C 0.78612 0.54673 0.8494 0.0
C417 C 0.70272 0.5682 0.8286 0.0
C418 C 0.74026 0.56666 0.83119 0.0
C419 C 0.85042 0.56409 0.84023 0.0
C420 C 0.81226 0.56472 0.83687 0.0
H421 H 0.65704 0.62584 0.8266 0.0
H422 H 0.7185 0.62303 0.82959 0.0
H423 H 0.73139 0.53352 0.8565 0.0
H424 H 0.89863 0.51338 0.85819 0.0
H425 H 0.83672 0.51272 0.85004 0.0
C426 C 0.24602 0.7771 0.1597 0.0
C427 C 0.2156 0.78174 0.14859 0.0
C428 C 0.27654 0.80482 0.16631 0.0
C429 C 0.32316 0.89354 0.15644 0.0
H430 H 0.36737 0.89982 0.2136 0.0
C431 C 0.4295 1.01619 0.19545 0.0
C432 C 0.45763 1.01299 0.20946 0.0
C433 C 0.40114 0.98752 0.18718 0.0
C434 C 0.35577 0.89827 0.19749 0.0
H435 H 0.1937 0.81943 0.13573 0.0
H436 H 0.24714 0.86766 0.14703 0.0
H437 H 0.31607 0.85062 0.20061 0.0
H438 H 0.47869 0.97713 0.22523 0.0
H439 H 0.42958 0.92703 0.21057 0.0
H440 H 0.36293 0.9411 0.15326 0.0
C441 C 0.2474 0.84248 0.15046 0.0
C442 C 0.32627 0.87005 0.19006 0.0
C443 C 0.21678 0.81478 0.14396 0.0
C444 C 0.45713 0.98043 0.21469 0.0
C445 C 0.42891 0.95174 0.20633 0.0
C446 C 0.35282 0.92168 0.16382 0.0
C447 C 0.27752 0.83785 0.16186 0.0
C448 C 0.30951 0.86744 0.16949 0.0
C449 C 0.40033 0.95492 0.19263 0.0
C450 C 0.36941 0.9245 0.18449 0.0
H451 H 0.24637 0.75198 0.1632 0.0
H452 H 0.29953 0.80037 0.17479 0.0
H453 H 0.3111 0.89205 0.14042 0.0
H454 H 0.42888 0.04097 0.19133 0.0
H455 H 0.37937 0.99104 0.17695 0.0
C456 C 0.57092 0.21355 0.50927 0.0
C457 C 0.54192 0.1868 0.51522 0.0
C458 C 0.57118 0.2482 0.51016 0.0
C459 C 0.51055 0.30593 0.51574 0.0
H460 H 0.60108 0.3787 0.52424 0.0
C461 C 0.51667 0.45281 0.51374 0.0
C462 C 0.5446 0.47839 0.52621 0.0
C463 C 0.51625 0.41804 0.51151 0.0
C464 C 0.57519 0.35913 0.52194 0.0
H465 H 0.48998 0.17808 0.52679 0.0
H466 H 0.49023 0.23719 0.52821 0.0
H467 H 0.60047 0.31977 0.52274 0.0
H468 H 0.59394 0.48495 0.54619 0.0
H469 H 0.59386 0.42622 0.542 0.0
H470 H 0.48531 0.34543 0.51504 0.0
C471 C 0.51318 0.23161 0.52269 0.0
C472 C 0.57485 0.32448 0.52083 0.0
C473 C 0.5131 0.19703 0.522 0.0
C474 C 0.5722 0.46703 0.53598 0.0
C475 C 0.57205 0.4326 0.53358 0.0
C476 C 0.5109 0.34063 0.51661 0.0
C477 C 0.54227 0.25854 0.51686 0.0
C478 C 0.54253 0.29655 0.5178 0.0
C479 C 0.54384 0.40664 0.52152 0.0
C480 C 0.54325 0.36854 0.51987 0.0
H481 H 0.59386 0.20778 0.50385 0.0
H482 H 0.59425 0.26692 0.50519 0.0
H483 H 0.4847 0.2863 0.51316 0.0
H484 H 0.49417 0.45934 0.50628 0.0
H485 H 0.49383 0.39996 0.5019 0.0
C486 C 0.38094 0.55366 0.8107 0.0
C487 C 0.41032 0.57956 0.8214 0.0
C488 C 0.34548 0.55318 0.81257 0.0
C489 C 0.29122 0.60797 0.82824 0.0
H490 H 0.21807 0.52215 0.83311 0.0
C491 C 0.14791 0.60162 0.84748 0.0
C492 C 0.11903 0.57571 0.83662 0.0
C493 C 0.18342 0.60161 0.84637 0.0
C494 C 0.23802 0.54633 0.83155 0.0
H495 H 0.42498 0.62553 0.84235 0.0
H496 H 0.36348 0.62457 0.84563 0.0
H497 H 0.27955 0.52336 0.82907 0.0
H498 H 0.10408 0.52945 0.81621 0.0
H499 H 0.16589 0.52932 0.81409 0.0
H500 H 0.24972 0.63095 0.83063 0.0
C501 C 0.36778 0.60475 0.83561 0.0
C502 C 0.27338 0.54702 0.82921 0.0
C503 C 0.40319 0.60519 0.83379 0.0
C504 C 0.12601 0.54952 0.8249 0.0
C505 C 0.16145 0.54945 0.82376 0.0
C506 C 0.25587 0.60728 0.83056 0.0
C507 C 0.33837 0.57864 0.82514 0.0
C508 C 0.30052 0.57785 0.8275 0.0
C509 C 0.19076 0.5757 0.8343 0.0
C510 C 0.2287 0.57645 0.83225 0.0
H511 H 0.38524 0.53347 0.80102 0.0
H512 H 0.32361 0.53291 0.80403 0.0
H513 H 0.31117 0.63215 0.82665 0.0
H514 H 0.14309 0.62217 0.85656 0.0
H515 H 0.20513 0.62198 0.85495 0.0
C516 C 0.86732 0.37473 0.2073 0.0
C517 C 0.87065 0.38639 0.18713 0.0
C518 C 0.83526 0.35133 0.21186 0.0
C519 C 0.73818 0.31417 0.19276 0.0
H520 H 0.74452 0.23965 0.2253 0.0
C521 C 0.61075 0.21264 0.21341 0.0
C522 C 0.61066 0.17898 0.21065 0.0
C523 C 0.6427 0.23942 0.21309 0.0
C524 C 0.74226 0.26025 0.21615 0.0
H525 H 0.84268 0.3826 0.15597 0.0
H526 H 0.78685 0.34178 0.16389 0.0
H527 H 0.79936 0.28373 0.21915 0.0
H528 H 0.64315 0.14632 0.20576 0.0
H529 H 0.69907 0.19294 0.20508 0.0
H530 H 0.68119 0.29007 0.18911 0.0
C531 C 0.80884 0.35111 0.1763 0.0
C532 C 0.77371 0.28575 0.21281 0.0
C533 C 0.84089 0.37454 0.17175 0.0
C534 C 0.64288 0.17223 0.20815 0.0
C535 C 0.67484 0.19895 0.20782 0.0
C536 C 0.70675 0.28868 0.1961 0.0
C537 C 0.8057 0.33898 0.19637 0.0
C538 C 0.7721 0.31285 0.20088 0.0
C539 C 0.67505 0.2329 0.20992 0.0
C540 C 0.70839 0.26119 0.20764 0.0
H541 H 0.88953 0.38376 0.21961 0.0
H542 H 0.83359 0.34298 0.22758 0.0
H543 H 0.7359 0.33487 0.18372 0.0
H544 H 0.58598 0.21825 0.21523 0.0
H545 H 0.64197 0.26522 0.21504 0.0
C546 C 0.0276 0.56888 0.07374 0.0
C547 C 0.04168 0.54582 0.08385 0.0
C548 C 0.02765 0.57085 0.05202 0.0
C549 C 0.04758 0.58173 0.00744 0.0
H550 H 0.02008 0.4973 0.97214 0.0
C551 C 0.04571 0.57923 0.91704 0.0
C552 C 1.0148 0.55649 0.90555 0.0
C553 C 0.05255 0.57741 0.93868 0.0
C554 C 0.02777 0.52111 0.98177 0.0
H555 H 0.06764 0.50735 0.07933 0.0
H556 H 0.06792 0.51087 0.04146 0.0
H557 H 0.02465 0.49607 0.01022 0.0
H558 H 0.9678 0.51302 0.90755 0.0
H559 H 0.97952 0.50998 0.94522 0.0
H560 H 0.04965 0.60668 0.97894 0.0
C561 C 0.05637 0.5271 0.05021 0.0
C562 C 0.03074 0.52043 0.00361 0.0
C563 C 0.05637 0.52519 0.07192 0.0
C564 C 0.99166 0.53111 0.91601 0.0
C565 C 0.99856 0.52919 0.93757 0.0
C566 C 0.04471 0.58241 0.98558 0.0
C567 C 0.04177 0.54976 0.03996 0.0
C568 C 0.04031 0.55071 0.01673 0.0
C569 C 0.02877 0.55266 0.94925 0.0
C570 C 0.03437 0.55207 0.97247 0.0
H571 H 0.01617 0.58515 0.08256 0.0
H572 H 0.01585 0.58833 0.0446 0.0
H573 H 0.0554 0.60553 0.01708 0.0
H574 H 0.06394 0.5992 0.90946 0.0
H575 H 0.07628 0.59562 0.94717 0.0
C576 C 0.50276 0.09135 0.43809 0.0
C577 C 0.51649 0.06978 0.44999 0.0
C578 C 0.50815 0.09396 0.4169 0.0
C579 C 0.52219 0.04657 0.3711 0.0
H580 H 0.55713 0.13413 0.34845 0.0
C581 C 0.54237 0.0545 0.28366 0.0
C582 C 0.5325 0.0798 0.27336 0.0
C583 C 0.54549 0.05529 0.30556 0.0
C584 C 0.54693 0.10945 0.35442 0.0
H585 H 0.54662 0.03407 0.44918 0.0
H586 H 0.55519 0.03795 0.41191 0.0
H587 H 0.55137 0.1313 0.38597 0.0
H588 H 0.51894 0.12614 0.27771 0.0
H589 H 0.52303 0.12706 0.31592 0.0
H590 H 0.51601 1.02451 0.33969 0.0
C591 C 0.54051 0.05298 0.41904 0.0
C592 C 0.54381 0.10789 0.37594 0.0
C593 C 0.53564 0.05081 0.44033 0.0
C594 C 0.527 0.10656 0.28535 0.0
C595 C 0.52945 0.10705 0.30727 0.0
C596 C 0.52472 0.0481 0.34956 0.0
C597 C 0.52687 0.07464 0.40714 0.0
C598 C 0.53131 0.07643 0.38446 0.0
C599 C 0.53801 0.08101 0.31768 0.0
C600 C 0.53704 0.07957 0.34086 0.0
H601 H 0.48805 0.10638 0.44519 0.0
H602 H 0.49711 0.11063 0.40802 0.0
H603 H 0.51206 1.02198 0.37724 0.0
H604 H 0.54694 0.0337 0.2747 0.0
H605 H 0.55312 0.03531 0.31294 0.0
C606 C 0.54958 0.62875 0.75186 0.0
C607 C 0.53249 0.60227 0.76382 0.0
C608 C 0.54952 0.623 0.73018 0.0
C609 C 0.53492 0.55421 0.68765 0.0
H610 H 0.52811 0.62471 0.65165 0.0
C611 C 0.51663 0.53301 0.59675 0.0
C612 C 0.53756 0.55905 0.58566 0.0
C613 C 0.51534 0.538 0.61838 0.0
C614 C 0.53036 0.60488 0.66149 0.0
H615 H 0.50155 0.54903 0.76248 0.0
H616 H 0.50079 0.53892 0.7245 0.0
H617 H 0.52644 0.63348 0.68934 0.0
H618 H 0.57362 0.61085 0.58891 0.0
H619 H 0.5709 0.61967 0.62656 0.0
H620 H 0.53841 0.52552 0.65965 0.0
C621 C 0.51492 0.56408 0.73189 0.0
C622 C 0.52948 0.60991 0.68316 0.0
C623 C 0.51519 0.56985 0.75366 0.0
C624 C 0.55681 0.59036 0.59681 0.0
C625 C 0.55531 0.59542 0.61843 0.0
C626 C 0.53555 0.54911 0.66594 0.0
C627 C 0.53209 0.59062 0.71982 0.0
C628 C 0.53199 0.58475 0.6966 0.0
C629 C 0.5347 0.56924 0.62952 0.0
C630 C 0.53348 0.57445 0.6526 0.0
H631 H 0.5633 0.65399 0.75929 0.0
H632 H 0.56362 0.64395 0.72159 0.0
H633 H 0.53748 0.53444 0.69745 0.0
H634 H 0.50086 0.50878 0.58868 0.0
H635 H 0.49875 0.51747 0.62635 0.0
C636 C 0.55238 0.09087 0.58161 0.0
C637 C 0.5753 0.07817 0.57046 0.0
C638 C 0.55311 0.08922 0.6034 0.0
C639 C 0.61208 0.08136 0.64961 0.0
H640 H 0.52419 0.05322 0.67647 0.0
C641 C 0.56265 0.03513 0.7344 0.0
C642 C 0.58795 0.06046 0.74808 0.0
C643 C 0.56097 0.03754 0.7127 0.0
C644 C 0.54895 0.06091 0.66915 0.0
H645 H 0.61631 0.0532 0.57315 0.0
H646 H 0.61742 0.0502 0.61091 0.0
H647 H 0.52085 0.05732 0.63849 0.0
H648 H 0.63198 0.10762 0.74976 0.0
H649 H 0.62888 0.11198 0.71192 0.0
H650 H 0.64021 0.08433 0.68009 0.0
C651 C 0.59934 0.06192 0.60302 0.0
C652 C 0.54704 0.06365 0.64747 0.0
C653 C 0.59856 0.0635 0.58136 0.0
C654 C 0.61203 0.08784 0.7396 0.0
C655 C 0.61042 0.0902 0.71793 0.0
C656 C 0.614 0.0787 0.67124 0.0
C657 C 0.57686 0.07497 0.61433 0.0
C658 C 0.5786 0.07363 0.63745 0.0
C659 C 0.58465 0.06526 0.70425 0.0
C660 C 0.58246 0.06827 0.68125 0.0
H661 H 0.5341 0.10219 0.57353 0.0
H662 H 0.53557 0.09961 0.61174 0.0
H663 H 0.63691 0.08949 0.64237 0.0
H664 H 0.5435 1.01391 0.74049 0.0
H665 H 0.54112 1.0177 0.70254 0.0
C666 C 0.51493 0.5803 0.88863 0.0
C667 C 0.51324 0.54884 0.87877 0.0
C668 C 0.5158 0.58449 0.91053 0.0
C669 C 0.49601 0.53365 0.95692 0.0
H670 H 0.55594 0.61653 0.98879 0.0
C671 C 0.54428 0.54117 0.04479 0.0
C672 C 0.54247 0.56867 0.05775 0.0
C673 C 0.53609 0.53975 0.02308 0.0
C674 C 0.5387 0.59342 0.98005 0.0
H675 H 0.51192 0.49739 0.88388 0.0
H676 H 0.5147 0.50482 0.92187 0.0
H677 H 0.5519 0.61271 0.95043 0.0
H678 H 0.53043 0.6161 0.05841 0.0
H679 H 0.51667 0.614 0.02009 0.0
H680 H 0.48412 0.51393 0.98659 0.0
C681 C 0.51425 0.5261 0.91289 0.0
C682 C 0.53632 0.59121 0.95807 0.0
C683 C 0.51301 0.52187 0.8911 0.0
C684 C 0.5317 0.59452 0.04868 0.0
C685 C 0.52412 0.59343 0.02684 0.0
C686 C 0.49876 0.53573 0.97883 0.0
C687 C 0.51515 0.55729 0.92293 0.0
C688 C 0.51549 0.56101 0.94622 0.0
C689 C 0.5265 0.56612 0.01384 0.0
C690 C 0.52058 0.56541 0.99063 0.0
H691 H 0.51457 0.60133 0.87941 0.0
H692 H 0.51616 0.60879 0.91766 0.0
H693 H 0.47886 0.51033 0.94837 0.0
H694 H 0.55265 0.52102 0.05147 0.0
H695 H 0.53845 0.51856 0.01343 0.0
C696 C 0.05958 0.57009 0.21406 0.0
C697 C 0.0485 0.59515 0.20415 0.0
C698 C 0.05711 0.56671 0.23557 0.0
C699 C 0.05509 0.61613 0.28418 0.0
H700 H 1.01437 0.52924 0.30665 0.0
C701 C 0.02983 0.61068 0.37052 0.0
C702 C 0.03837 0.58549 0.38165 0.0
C703 C 0.02815 0.60911 0.34866 0.0
C704 C 0.02619 0.55366 0.30067 0.0
H705 H 0.02589 0.63604 0.20886 0.0
H706 H 0.02207 0.63048 0.24629 0.0
H707 H 0.0186 0.53182 0.26886 0.0
H708 H 0.05059 0.53827 0.37876 0.0
H709 H 0.04855 0.53578 0.34039 0.0
H710 H 0.06354 0.63813 0.31573 0.0
C711 C 0.03272 0.61349 0.23753 0.0
C712 C 0.02857 0.55511 0.27903 0.0
C713 C 0.03483 0.61662 0.21608 0.0
C714 C 0.04369 0.55785 0.37046 0.0
C715 C 0.04249 0.55649 0.3485 0.0
C716 C 0.05304 0.61469 0.30574 0.0
C717 C 0.04397 0.58864 0.24756 0.0
C718 C 0.04268 0.58644 0.27055 0.0
C719 C 0.03563 0.58262 0.33737 0.0
C720 C 0.03814 0.58352 0.3143 0.0
H721 H 0.07027 0.55322 0.20523 0.0
H722 H 0.06619 0.54747 0.24291 0.0
H723 H 0.06674 0.64059 0.27818 0.0
H724 H 0.02534 0.6321 0.37884 0.0
H725 H 0.02171 0.62916 0.34064 0.0
loop_
_geom_bond_atom_site_label_1
_geom_bond_atom_site_label_2
_geom_bond_distance
_geom_bond_site_symmetry_2
_ccdc_geom_bond_type
Pr0 C2 2.880 1_455 S
Pr0 O20 2.562 1_455 S
Pr0 O21 2.490 1_455 S
Pr0 O22 2.695 . S
Pr0 O23 2.512 . S
Pr0 O25 2.437 1_455 S
Pr0 O28 2.436 . S
Pr0 O30 2.438 . S
Pr1 C11 2.880 . S
Pr1 O22 2.436 . S
Pr1 O24 2.438 1_455 S
Pr1 O26 2.562 . S
Pr1 O27 2.490 . S
Pr1 O28 2.695 . S
Pr1 O29 2.512 . S
Pr1 O31 2.437 . S
C2 Pr0 2.880 1_655 S
C2 C3 1.491 . S
C2 O20 1.254 . S
C2 O21 1.225 . S
C3 C2 1.491 . S
C3 C4 1.392 . S
C3 C8 1.356 . S
C4 C3 1.392 . S
C4 C5 1.368 . S
C4 H32 0.929 . S
C5 C4 1.368 . S
C5 C6 1.386 . S
C5 H33 0.929 . S
C6 C5 1.386 . S
C6 C7 1.373 . S
C7 C6 1.373 . S
C7 C8 1.409 . S
C7 H34 0.931 . S
C8 C3 1.356 . S
C8 C7 1.409 . S
C8 H35 0.930 . S
C9 O22 1.270 . S
C9 O23 1.251 . S
C10 O24 1.267 . S
C10 O25 1.278 . S
C11 Pr1 2.880 . S
C11 C12 1.491 . S
C11 O26 1.254 . S
C11 O27 1.225 . S
C12 C11 1.491 . S
C12 C13 1.392 . S
C12 C17 1.356 . S
C13 C12 1.392 . S
C13 C14 1.368 . S
C13 H36 0.929 . S
C14 C13 1.368 . S
C14 C15 1.386 . S
C14 H37 0.929 . S
C15 C14 1.386 . S
C15 C16 1.373 . S
C16 C15 1.373 . S
C16 C17 1.409 . S
C16 H38 0.931 . S
C17 C12 1.356 . S
C17 C16 1.409 . S
C17 H39 0.930 . S
C18 O28 1.270 . S
C18 O29 1.248 . S
C19 O30 1.267 . S
C19 O31 1.278 . S
O20 Pr0 2.562 1_655 S
O20 C2 1.254 . S
O21 Pr0 2.490 1_655 S
O21 C2 1.225 . S
O22 Pr0 2.695 . S
O22 Pr1 2.436 . S
O22 C9 1.270 . S
O23 Pr0 2.512 . S
O23 C9 1.251 . S
O24 Pr1 2.438 1_655 S
O24 C10 1.267 . S
O25 Pr0 2.437 1_655 S
O25 C10 1.278 . S
O26 Pr1 2.562 . S
O26 C11 1.254 . S
O27 Pr1 2.490 . S
O27 C11 1.225 . S
O28 Pr0 2.436 . S
O28 Pr1 2.695 . S
O28 C18 1.270 . S
O29 Pr1 2.512 . S
O29 C18 1.248 . S
O30 Pr0 2.438 . S
O30 C19 1.267 . S
O31 Pr1 2.437 . S
O31 C19 1.278 . S
H32 C4 0.929 . S
H33 C5 0.929 . S
H34 C7 0.931 . S
H35 C8 0.930 . S
H36 C13 0.929 . S
H37 C14 0.929 . S
H38 C16 0.931 . S
H39 C17 0.930 . S
Pr40 C42 2.880 . S
Pr40 O60 2.562 . S
Pr40 O61 2.490 . S
Pr40 O62 2.695 . S
Pr40 O63 2.512 . S
Pr40 O65 2.437 . S
Pr40 O68 2.436 . S
Pr40 O70 2.438 . S
Pr41 C51 2.880 1_545 S
Pr41 O62 2.436 . S
Pr41 O64 2.438 . S
Pr41 O66 2.562 1_545 S
Pr41 O67 2.490 1_545 S
Pr41 O68 2.695 . S
Pr41 O69 2.512 . S
Pr41 O71 2.437 1_545 S
C42 Pr40 2.880 . S
C42 C43 1.491 . S
C42 O60 1.254 . S
C42 O61 1.225 . S
C43 C42 1.491 . S
C43 C44 1.392 . S
C43 C48 1.356 . S
C44 C43 1.392 . S
C44 C45 1.368 . S
C44 H72 0.929 . S
C45 C44 1.368 . S
C45 C46 1.386 . S
C45 H73 0.929 . S
C46 C45 1.386 . S
C46 C47 1.373 . S
C47 C46 1.373 . S
C47 C48 1.409 . S
C47 H74 0.931 . S
C48 C43 1.356 . S
C48 C47 1.409 . S
C48 H75 0.930 . S
C49 O62 1.270 . S
C49 O63 1.248 . S
C50 O64 1.267 . S
C50 O65 1.278 . S
C51 Pr41 2.880 1_565 S
C51 C52 1.491 . S
C51 O66 1.254 . S
C51 O67 1.225 . S
C52 C51 1.491 . S
C52 C53 1.392 . S
C52 C57 1.356 . S
C53 C52 1.392 . S
C53 C54 1.368 . S
C53 H76 0.929 . S
C54 C53 1.368 . S
C54 C55 1.386 . S
C54 H77 0.929 . S
C55 C54 1.386 . S
C55 C56 1.373 . S
C56 C55 1.373 . S
C56 C57 1.409 . S
C56 H78 0.931 . S
C57 C52 1.356 . S
C57 C56 1.409 . S
C57 H79 0.930 . S
C58 O68 1.270 . S
C58 O69 1.248 . S
C59 O70 1.267 1_565 S
C59 O71 1.278 . S
O60 Pr40 2.562 . S
O60 C42 1.254 . S
O61 Pr40 2.490 . S
O61 C42 1.225 . S
O62 Pr40 2.695 . S
O62 Pr41 2.436 . S
O62 C49 1.270 . S
O63 Pr40 2.512 . S
O63 C49 1.248 . S
O64 Pr41 2.438 . S
O64 C50 1.267 . S
O65 Pr40 2.437 . S
O65 C50 1.278 . S
O66 Pr41 2.562 1_565 S
O66 C51 1.254 . S
O67 Pr41 2.490 1_565 S
O67 C51 1.225 . S
O68 Pr40 2.436 . S
O68 Pr41 2.695 . S
O68 C58 1.270 . S
O69 Pr41 2.512 . S
O69 C58 1.248 . S
O70 Pr40 2.438 . S
O70 C59 1.267 1_545 S
O71 Pr41 2.437 1_565 S
O71 C59 1.278 . S
H72 C44 0.929 . S
H73 C45 0.929 . S
H74 C47 0.931 . S
H75 C48 0.930 . S
H76 C53 0.929 . S
H77 C54 0.929 . S
H78 C56 0.931 . S
H79 C57 0.930 . S
Pr80 C82 2.880 . S
Pr80 O100 2.562 . S
Pr80 O101 2.490 . S
Pr80 O102 2.695 . S
Pr80 O103 2.512 . S
Pr80 O105 2.437 . S
Pr80 O108 2.436 . S
Pr80 O110 2.438 . S
Pr81 C91 2.880 . S
Pr81 O102 2.436 . S
Pr81 O104 2.438 . S
Pr81 O106 2.562 . S
Pr81 O107 2.490 . S
Pr81 O108 2.695 . S
Pr81 O109 2.512 . S
Pr81 O111 2.437 . S
C82 Pr80 2.880 . S
C82 C83 1.491 . S
C82 O100 1.254 . S
C82 O101 1.225 . S
C83 C82 1.491 . S
C83 C84 1.392 . S
C83 C88 1.356 . S
C84 C83 1.392 . S
C84 C85 1.368 . S
C84 H112 0.929 . S
C85 C84 1.368 . S
C85 C86 1.386 . S
C85 H113 0.929 . S
C86 C85 1.386 . S
C86 C87 1.373 . S
C87 C86 1.373 . S
C87 C88 1.409 . S
C87 H114 0.931 . S
C88 C83 1.356 . S
C88 C87 1.409 . S
C88 H115 0.930 . S
C89 O102 1.270 . S
C89 O103 1.248 . S
C90 O104 1.267 . S
C90 O105 1.278 . S
C91 Pr81 2.880 . S
C91 C92 1.491 . S
C91 O106 1.254 . S
C91 O107 1.225 . S
C92 C91 1.491 . S
C92 C93 1.392 . S
C92 C97 1.356 . S
C93 C92 1.392 . S
C93 C94 1.368 . S
C93 H116 0.929 . S
C94 C93 1.368 . S
C94 C95 1.386 . S
C94 H117 0.929 . S
C95 C94 1.386 . S
C95 C96 1.373 . S
C96 C95 1.373 . S
C96 C97 1.409 . S
C96 H118 0.931 . S
C97 C92 1.356 . S
C97 C96 1.409 . S
C97 H119 0.930 . S
C98 O108 1.270 . S
C98 O109 1.248 . S
C99 O110 1.267 . S
C99 O111 1.278 . S
O100 Pr80 2.562 . S
O100 C82 1.254 . S
O101 Pr80 2.490 . S
O101 C82 1.225 . S
O102 Pr80 2.695 . S
O102 Pr81 2.436 . S
O102 C89 1.270 . S
O103 Pr80 2.512 . S
O103 C89 1.248 . S
O104 Pr81 2.438 . S
O104 C90 1.267 . S
O105 Pr80 2.437 . S
O105 C90 1.278 . S
O106 Pr81 2.562 . S
O106 C91 1.254 . S
O107 Pr81 2.490 . S
O107 C91 1.225 . S
O108 Pr80 2.436 . S
O108 Pr81 2.695 . S
O108 C98 1.270 . S
O109 Pr81 2.512 . S
O109 C98 1.248 . S
O110 Pr80 2.438 . S
O110 C99 1.267 . S
O111 Pr81 2.437 . S
O111 C99 1.278 . S
H112 C84 0.929 . S
H113 C85 0.929 . S
H114 C87 0.931 . S
H115 C88 0.930 . S
H116 C93 0.929 . S
H117 C94 0.929 . S
H118 C96 0.931 . S
H119 C97 0.930 . S
H120 C123 0.929 . S
H121 C126 0.929 . S
H122 C128 0.930 . S
C123 H120 0.929 . S
C123 C124 1.398 . S
C123 C125 1.396 . S
C124 C123 1.398 . S
C124 C128 1.407 . S
C125 C123 1.396 . S
C125 C126 1.394 . S
C126 H121 0.929 . S
C126 C125 1.394 . S
C126 C127 1.382 . S
C127 C126 1.382 . S
C127 C128 1.392 . S
C127 N129 1.420 . S
C128 H122 0.930 . S
C128 C124 1.407 . S
C128 C127 1.392 . S
N129 C127 1.420 . S
N129 C130 1.244 . S
C130 N129 1.244 . S
H131 C134 0.929 . S
H132 C137 0.929 . S
H133 C139 0.930 . S
C134 H131 0.929 . S
C134 C135 1.398 . S
C134 C136 1.396 . S
C135 C134 1.398 . S
C135 C139 1.407 . S
C136 C134 1.396 . S
C136 C137 1.394 . S
C137 H132 0.929 . S
C137 C136 1.394 . S
C137 C138 1.382 . S
C138 C137 1.382 . S
C138 C139 1.392 . S
C138 N140 1.420 . S
C139 H133 0.930 . S
C139 C135 1.407 . S
C139 C138 1.392 . S
N140 C138 1.420 . S
N140 C141 1.244 . S
C141 N140 1.244 . S
H142 C145 0.929 1_655 S
H143 C148 0.929 . S
H144 C150 0.930 . S
C145 H142 0.929 1_455 S
C145 C146 1.398 1_455 S
C145 C147 1.396 . S
C146 C145 1.398 1_655 S
C146 C150 1.407 1_655 S
C147 C145 1.396 . S
C147 C148 1.394 . S
C148 H143 0.929 . S
C148 C147 1.394 . S
C148 C149 1.382 . S
C149 C148 1.382 . S
C149 C150 1.392 . S
C149 N151 1.420 . S
C150 H144 0.930 . S
C150 C146 1.407 1_455 S
C150 C149 1.392 . S
N151 C149 1.420 . S
N151 C152 1.244 . S
C152 N151 1.244 . S
H153 C156 0.929 . S
H154 C159 0.929 . S
H155 C161 0.930 . S
C156 H153 0.929 . S
C156 C157 1.398 . S
C156 C158 1.396 . S
C157 C156 1.398 . S
C157 C161 1.407 . S
C158 C156 1.396 . S
C158 C159 1.394 1_455 S
C159 H154 0.929 . S
C159 C158 1.394 1_655 S
C159 C160 1.382 1_655 S
C160 C159 1.382 1_455 S
C160 C161 1.392 . S
C160 N162 1.420 1_455 S
C161 H155 0.930 . S
C161 C157 1.407 . S
C161 C160 1.392 . S
N162 C160 1.420 1_655 S
N162 C163 1.244 . S
C163 N162 1.244 . S
H164 C167 0.929 . S
H165 C170 0.929 1_565 S
H166 C172 0.930 . S
C167 H164 0.929 . S
C167 C168 1.398 . S
C167 C169 1.396 . S
C168 C167 1.398 . S
C168 C172 1.407 . S
C169 C167 1.396 . S
C169 C170 1.394 . S
C170 H165 0.929 1_545 S
C170 C169 1.394 . S
C170 C171 1.382 . S
C171 C170 1.382 . S
C171 C172 1.392 . S
C171 N173 1.420 1_545 S
C172 H166 0.930 . S
C172 C168 1.407 . S
C172 C171 1.392 . S
N173 C171 1.420 1_565 S
N173 C174 1.244 . S
C174 N173 1.244 . S
H175 C178 0.929 . S
H176 C181 0.929 . S
H177 C183 0.930 . S
C178 H175 0.929 . S
C178 C179 1.398 . S
C178 C180 1.396 . S
C179 C178 1.398 . S
C179 C183 1.407 . S
C180 C178 1.396 . S
C180 C181 1.394 . S
C181 H176 0.929 . S
C181 C180 1.394 . S
C181 C182 1.382 . S
C182 C181 1.382 . S
C182 C183 1.392 . S
C182 N184 1.420 . S
C183 H177 0.930 . S
C183 C179 1.407 . S
C183 C182 1.392 . S
N184 C182 1.420 . S
N184 C185 1.244 . S
C185 N184 1.244 . S
C186 C187 1.349 . S
C186 C188 1.327 . S
C186 H211 0.950 . S
C187 C186 1.349 . S
C187 C203 1.349 . S
C188 C186 1.327 . S
C188 C207 1.429 . S
C188 H212 0.950 . S
C189 C206 1.574 . S
C189 C208 1.368 . S
C189 H213 0.949 . S
H190 C194 0.949 . S
C191 C192 1.349 . S
C191 C193 1.327 . S
C191 H214 0.950 . S
C192 C191 1.349 . S
C192 C204 1.349 . S
C193 C191 1.327 . S
C193 C209 1.429 . S
C193 H215 0.950 . S
C194 H190 0.949 . S
C194 C202 1.574 . S
C194 C210 1.368 . S
H195 C203 0.950 . S
H196 C201 0.950 . S
H197 C202 0.949 . S
H198 C204 0.950 . S
H199 C205 0.950 . S
H200 C206 0.949 . S
C201 H196 0.950 . S
C201 C203 1.327 . S
C201 C207 1.429 . S
C202 C194 1.574 . S
C202 H197 0.949 . S
C202 C208 1.368 . S
C203 C187 1.349 . S
C203 H195 0.950 . S
C203 C201 1.327 . S
C204 C192 1.349 . S
C204 H198 0.950 . S
C204 C205 1.327 . S
C205 H199 0.950 . S
C205 C204 1.327 . S
C205 C209 1.429 . S
C206 C189 1.574 . S
C206 H200 0.949 . S
C206 C210 1.368 . S
C207 C188 1.429 . S
C207 C201 1.429 . S
C207 C208 1.523 . S
C208 C189 1.368 . S
C208 C202 1.368 . S
C208 C207 1.523 . S
C209 C193 1.429 . S
C209 C205 1.429 . S
C209 C210 1.523 . S
C210 C194 1.368 . S
C210 C206 1.368 . S
C210 C209 1.523 . S
H211 C186 0.950 . S
H212 C188 0.950 . S
H213 C189 0.949 . S
H214 C191 0.950 . S
H215 C193 0.950 . S
C216 C217 1.349 . S
C216 C218 1.327 . S
C216 H241 0.950 . S
C217 C216 1.349 . S
C217 C233 1.349 . S
C218 C216 1.327 . S
C218 C237 1.429 . S
C218 H242 0.950 . S
C219 C236 1.574 . S
C219 C238 1.368 . S
C219 H243 0.949 . S
H220 C224 0.949 . S
C221 C222 1.349 . S
C221 C223 1.327 . S
C221 H244 0.950 . S
C222 C221 1.349 . S
C222 C234 1.349 . S
C223 C221 1.327 . S
C223 C239 1.429 . S
C223 H245 0.950 . S
C224 H220 0.949 . S
C224 C232 1.574 . S
C224 C240 1.368 . S
H225 C233 0.950 . S
H226 C231 0.950 . S
H227 C232 0.949 . S
H228 C234 0.950 . S
H229 C235 0.950 . S
H230 C236 0.949 . S
C231 H226 0.950 . S
C231 C233 1.327 . S
C231 C237 1.429 . S
C232 C224 1.574 . S
C232 H227 0.949 . S
C232 C238 1.368 . S
C233 C217 1.349 . S
C233 H225 0.950 . S
C233 C231 1.327 . S
C234 C222 1.349 . S
C234 H228 0.950 . S
C234 C235 1.327 . S
C235 H229 0.950 . S
C235 C234 1.327 . S
C235 C239 1.429 . S
C236 C219 1.574 . S
C236 H230 0.949 . S
C236 C240 1.368 . S
C237 C218 1.429 . S
C237 C231 1.429 . S
C237 C238 1.523 . S
C238 C219 1.368 . S
C238 C232 1.368 . S
C238 C237 1.523 . S
C239 C223 1.429 . S
C239 C235 1.429 . S
C239 C240 1.523 . S
C240 C224 1.368 . S
C240 C236 1.368 . S
C240 C239 1.523 . S
H241 C216 0.950 . S
H242 C218 0.950 . S
H243 C219 0.949 . S
H244 C221 0.950 . S
H245 C223 0.950 . S
C246 C247 1.349 . S
C246 C248 1.327 . S
C246 H271 0.950 . S
C247 C246 1.349 . S
C247 C263 1.349 . S
C248 C246 1.327 . S
C248 C267 1.429 . S
C248 H272 0.950 . S
C249 C266 1.574 . S
C249 C268 1.368 . S
C249 H273 0.949 . S
H250 C254 0.949 . S
C251 C252 1.349 . S
C251 C253 1.327 . S
C251 H274 0.950 . S
C252 C251 1.349 . S
C252 C264 1.349 . S
C253 C251 1.327 . S
C253 C269 1.429 . S
C253 H275 0.950 . S
C254 H250 0.949 . S
C254 C262 1.574 . S
C254 C270 1.368 . S
H255 C263 0.950 . S
H256 C261 0.950 . S
H257 C262 0.949 . S
H258 C264 0.950 . S
H259 C265 0.950 . S
H260 C266 0.949 . S
C261 H256 0.950 . S
C261 C263 1.327 . S
C261 C267 1.429 . S
C262 C254 1.574 . S
C262 H257 0.949 . S
C262 C268 1.368 . S
C263 C247 1.349 . S
C263 H255 0.950 . S
C263 C261 1.327 . S
C264 C252 1.349 . S
C264 H258 0.950 . S
C264 C265 1.327 . S
C265 H259 0.950 . S
C265 C264 1.327 . S
C265 C269 1.429 . S
C266 C249 1.574 . S
C266 H260 0.949 . S
C266 C270 1.368 . S
C267 C248 1.429 . S
C267 C261 1.429 . S
C267 C268 1.523 . S
C268 C249 1.368 . S
C268 C262 1.368 . S
C268 C267 1.523 . S
C269 C253 1.429 . S
C269 C265 1.429 . S
C269 C270 1.523 . S
C270 C254 1.368 . S
C270 C266 1.368 . S
C270 C269 1.523 . S
H271 C246 0.950 . S
H272 C248 0.950 . S
H273 C249 0.949 . S
H274 C251 0.950 . S
H275 C253 0.950 . S
C276 C277 1.349 . S
C276 C278 1.327 . S
C276 H301 0.950 . S
C277 C276 1.349 . S
C277 C293 1.349 . S
C278 C276 1.327 . S
C278 C297 1.429 . S
C278 H302 0.950 . S
C279 C296 1.574 . S
C279 C298 1.368 . S
C279 H303 0.949 . S
H280 C284 0.949 . S
C281 C282 1.349 . S
C281 C283 1.327 . S
C281 H304 0.950 . S
C282 C281 1.349 . S
C282 C294 1.349 . S
C283 C281 1.327 . S
C283 C299 1.429 . S
C283 H305 0.950 . S
C284 H280 0.949 . S
C284 C292 1.574 . S
C284 C300 1.368 . S
H285 C293 0.950 . S
H286 C291 0.950 . S
H287 C292 0.949 . S
H288 C294 0.950 . S
H289 C295 0.950 . S
H290 C296 0.949 . S
C291 H286 0.950 . S
C291 C293 1.327 . S
C291 C297 1.429 . S
C292 C284 1.574 . S
C292 H287 0.949 . S
C292 C298 1.368 . S
C293 C277 1.349 . S
C293 H285 0.950 . S
C293 C291 1.327 . S
C294 C282 1.349 . S
C294 H288 0.950 . S
C294 C295 1.327 . S
C295 H289 0.950 . S
C295 C294 1.327 . S
C295 C299 1.429 . S
C296 C279 1.574 . S
C296 H290 0.949 . S
C296 C300 1.368 . S
C297 C278 1.429 . S
C297 C291 1.429 . S
C297 C298 1.523 . S
C298 C279 1.368 . S
C298 C292 1.368 . S
C298 C297 1.523 . S
C299 C283 1.429 . S
C299 C295 1.429 . S
C299 C300 1.523 . S
C300 C284 1.368 . S
C300 C296 1.368 . S
C300 C299 1.523 . S
H301 C276 0.950 . S
H302 C278 0.950 . S
H303 C279 0.949 . S
H304 C281 0.950 . S
H305 C283 0.950 . S
C306 C307 1.349 . S
C306 C308 1.327 . S
C306 H331 0.950 . S
C307 C306 1.349 . S
C307 C323 1.349 . S
C308 C306 1.327 . S
C308 C327 1.429 . S
C308 H332 0.950 . S
C309 C326 1.574 . S
C309 C328 1.368 . S
C309 H333 0.949 . S
H310 C314 0.949 . S
C311 C312 1.349 . S
C311 C313 1.327 . S
C311 H334 0.950 . S
C312 C311 1.349 . S
C312 C324 1.349 . S
C313 C311 1.327 . S
C313 C329 1.429 . S
C313 H335 0.950 . S
C314 H310 0.949 . S
C314 C322 1.574 . S
C314 C330 1.368 . S
H315 C323 0.950 . S
H316 C321 0.950 . S
H317 C322 0.949 . S
H318 C324 0.950 . S
H319 C325 0.950 . S
H320 C326 0.949 . S
C321 H316 0.950 . S
C321 C323 1.327 . S
C321 C327 1.429 . S
C322 C314 1.574 . S
C322 H317 0.949 . S
C322 C328 1.368 . S
C323 C307 1.349 . S
C323 H315 0.950 . S
C323 C321 1.327 . S
C324 C312 1.349 . S
C324 H318 0.950 . S
C324 C325 1.327 . S
C325 H319 0.950 . S
C325 C324 1.327 . S
C325 C329 1.429 . S
C326 C309 1.574 . S
C326 H320 0.949 . S
C326 C330 1.368 . S
C327 C308 1.429 . S
C327 C321 1.429 . S
C327 C328 1.523 . S
C328 C309 1.368 . S
C328 C322 1.368 . S
C328 C327 1.523 . S
C329 C313 1.429 . S
C329 C325 1.429 . S
C329 C330 1.523 . S
C330 C314 1.368 . S
C330 C326 1.368 . S
C330 C329 1.523 . S
H331 C306 0.950 . S
H332 C308 0.950 . S
H333 C309 0.949 . S
H334 C311 0.950 . S
H335 C313 0.950 . S
C336 C337 1.349 . S
C336 C338 1.327 . S
C336 H361 0.950 . S
C337 C336 1.349 . S
C337 C353 1.349 . S
C338 C336 1.327 . S
C338 C357 1.429 . S
C338 H362 0.950 . S
C339 C356 1.574 . S
C339 C358 1.368 . S
C339 H363 0.949 . S
H340 C344 0.949 . S
C341 C342 1.349 . S
C341 C343 1.327 . S
C341 H364 0.950 . S
C342 C341 1.349 . S
C342 C354 1.349 . S
C343 C341 1.327 . S
C343 C359 1.429 . S
C343 H365 0.950 . S
C344 H340 0.949 . S
C344 C352 1.574 . S
C344 C360 1.368 . S
H345 C353 0.950 . S
H346 C351 0.950 . S
H347 C352 0.949 . S
H348 C354 0.950 . S
H349 C355 0.950 . S
H350 C356 0.949 . S
C351 H346 0.950 . S
C351 C353 1.327 . S
C351 C357 1.429 . S
C352 C344 1.574 . S
C352 H347 0.949 . S
C352 C358 1.368 . S
C353 C337 1.349 . S
C353 H345 0.950 . S
C353 C351 1.327 . S
C354 C342 1.349 . S
C354 H348 0.950 . S
C354 C355 1.327 . S
C355 H349 0.950 . S
C355 C354 1.327 . S
C355 C359 1.429 . S
C356 C339 1.574 . S
C356 H350 0.949 . S
C356 C360 1.368 . S
C357 C338 1.429 . S
C357 C351 1.429 . S
C357 C358 1.523 . S
C358 C339 1.368 . S
C358 C352 1.368 . S
C358 C357 1.523 . S
C359 C343 1.429 . S
C359 C355 1.429 . S
C359 C360 1.523 . S
C360 C344 1.368 . S
C360 C356 1.368 . S
C360 C359 1.523 . S
H361 C336 0.950 . S
H362 C338 0.950 . S
H363 C339 0.949 . S
H364 C341 0.950 . S
H365 C343 0.950 . S
C366 C367 1.349 . S
C366 C368 1.327 . S
C366 H391 0.950 . S
C367 C366 1.349 . S
C367 C383 1.349 . S
C368 C366 1.327 . S
C368 C387 1.429 . S
C368 H392 0.950 . S
C369 C386 1.574 . S
C369 C388 1.368 . S
C369 H393 0.949 . S
H370 C374 0.949 . S
C371 C372 1.349 . S
C371 C373 1.327 . S
C371 H394 0.950 . S
C372 C371 1.349 . S
C372 C384 1.349 . S
C373 C371 1.327 . S
C373 C389 1.429 . S
C373 H395 0.950 . S
C374 H370 0.949 . S
C374 C382 1.574 . S
C374 C390 1.368 . S
H375 C383 0.950 . S
H376 C381 0.950 . S
H377 C382 0.949 . S
H378 C384 0.950 . S
H379 C385 0.950 . S
H380 C386 0.949 . S
C381 H376 0.950 . S
C381 C383 1.327 . S
C381 C387 1.429 . S
C382 C374 1.574 . S
C382 H377 0.949 . S
C382 C388 1.368 . S
C383 C367 1.349 . S
C383 H375 0.950 . S
C383 C381 1.327 . S
C384 C372 1.349 . S
C384 H378 0.950 . S
C384 C385 1.327 . S
C385 H379 0.950 . S
C385 C384 1.327 . S
C385 C389 1.429 . S
C386 C369 1.574 . S
C386 H380 0.949 . S
C386 C390 1.368 . S
C387 C368 1.429 . S
C387 C381 1.429 . S
C387 C388 1.523 . S
C388 C369 1.368 . S
C388 C382 1.368 . S
C388 C387 1.523 . S
C389 C373 1.429 . S
C389 C385 1.429 . S
C389 C390 1.523 . S
C390 C374 1.368 . S
C390 C386 1.368 . S
C390 C389 1.523 . S
H391 C366 0.950 . S
H392 C368 0.950 . S
H393 C369 0.949 . S
H394 C371 0.950 . S
H395 C373 0.950 . S
C396 C397 1.349 . S
C396 C398 1.327 . S
C396 H421 0.950 . S
C397 C396 1.349 . S
C397 C413 1.349 . S
C398 C396 1.327 . S
C398 C417 1.429 . S
C398 H422 0.950 . S
C399 C416 1.574 . S
C399 C418 1.368 . S
C399 H423 0.949 . S
H400 C404 0.949 . S
C401 C402 1.349 . S
C401 C403 1.327 . S
C401 H424 0.950 . S
C402 C401 1.349 . S
C402 C414 1.349 . S
C403 C401 1.327 . S
C403 C419 1.429 . S
C403 H425 0.950 . S
C404 H400 0.949 . S
C404 C412 1.574 . S
C404 C420 1.368 . S
H405 C413 0.950 . S
H406 C411 0.950 . S
H407 C412 0.949 . S
H408 C414 0.950 . S
H409 C415 0.950 . S
H410 C416 0.949 . S
C411 H406 0.950 . S
C411 C413 1.327 . S
C411 C417 1.429 . S
C412 C404 1.574 . S
C412 H407 0.949 . S
C412 C418 1.368 . S
C413 C397 1.349 . S
C413 H405 0.950 . S
C413 C411 1.327 . S
C414 C402 1.349 . S
C414 H408 0.950 . S
C414 C415 1.327 . S
C415 H409 0.950 . S
C415 C414 1.327 . S
C415 C419 1.429 . S
C416 C399 1.574 . S
C416 H410 0.949 . S
C416 C420 1.368 . S
C417 C398 1.429 . S
C417 C411 1.429 . S
C417 C418 1.523 . S
C418 C399 1.368 . S
C418 C412 1.368 . S
C418 C417 1.523 . S
C419 C403 1.429 . S
C419 C415 1.429 . S
C419 C420 1.523 . S
C420 C404 1.368 . S
C420 C416 1.368 . S
C420 C419 1.523 . S
H421 C396 0.950 . S
H422 C398 0.950 . S
H423 C399 0.949 . S
H424 C401 0.950 . S
H425 C403 0.950 . S
C426 C427 1.349 . S
C426 C428 1.327 . S
C426 H451 0.950 . S
C427 C426 1.349 . S
C427 C443 1.349 . S
C428 C426 1.327 . S
C428 C447 1.429 . S
C428 H452 0.950 . S
C429 C446 1.574 . S
C429 C448 1.368 . S
C429 H453 0.949 . S
H430 C434 0.949 . S
C431 C432 1.349 1_565 S
C431 C433 1.327 . S
C431 H454 0.950 1_565 S
C432 C431 1.349 1_545 S
C432 C444 1.349 1_545 S
C433 C431 1.327 . S
C433 C449 1.429 . S
C433 H455 0.950 . S
C434 H430 0.949 . S
C434 C442 1.574 . S
C434 C450 1.368 . S
H435 C443 0.950 . S
H436 C441 0.950 . S
H437 C442 0.949 . S
H438 C444 0.950 . S
H439 C445 0.950 . S
H440 C446 0.949 . S
C441 H436 0.950 . S
C441 C443 1.327 . S
C441 C447 1.429 . S
C442 C434 1.574 . S
C442 H437 0.949 . S
C442 C448 1.368 . S
C443 C427 1.349 . S
C443 H435 0.950 . S
C443 C441 1.327 . S
C444 C432 1.349 1_565 S
C444 H438 0.950 . S
C444 C445 1.327 . S
C445 H439 0.950 . S
C445 C444 1.327 . S
C445 C449 1.429 . S
C446 C429 1.574 . S
C446 H440 0.949 . S
C446 C450 1.368 . S
C447 C428 1.429 . S
C447 C441 1.429 . S
C447 C448 1.523 . S
C448 C429 1.368 . S
C448 C442 1.368 . S
C448 C447 1.523 . S
C449 C433 1.429 . S
C449 C445 1.429 . S
C449 C450 1.523 . S
C450 C434 1.368 . S
C450 C446 1.368 . S
C450 C449 1.523 . S
H451 C426 0.950 . S
H452 C428 0.950 . S
H453 C429 0.949 . S
H454 C431 0.950 1_545 S
H455 C433 0.950 . S
C456 C457 1.349 . S
C456 C458 1.327 . S
C456 H481 0.950 . S
C457 C456 1.349 . S
C457 C473 1.349 . S
C458 C456 1.327 . S
C458 C477 1.429 . S
C458 H482 0.950 . S
C459 C476 1.574 . S
C459 C478 1.368 . S
C459 H483 0.949 . S
H460 C464 0.949 . S
C461 C462 1.349 . S
C461 C463 1.327 . S
C461 H484 0.950 . S
C462 C461 1.349 . S
C462 C474 1.349 . S
C463 C461 1.327 . S
C463 C479 1.429 . S
C463 H485 0.950 . S
C464 H460 0.949 . S
C464 C472 1.574 . S
C464 C480 1.368 . S
H465 C473 0.950 . S
H466 C471 0.950 . S
H467 C472 0.949 . S
H468 C474 0.950 . S
H469 C475 0.950 . S
H470 C476 0.949 . S
C471 H466 0.950 . S
C471 C473 1.327 . S
C471 C477 1.429 . S
C472 C464 1.574 . S
C472 H467 0.949 . S
C472 C478 1.368 . S
C473 C457 1.349 . S
C473 H465 0.950 . S
C473 C471 1.327 . S
C474 C462 1.349 . S
C474 H468 0.950 . S
C474 C475 1.327 . S
C475 H469 0.950 . S
C475 C474 1.327 . S
C475 C479 1.429 . S
C476 C459 1.574 . S
C476 H470 0.949 . S
C476 C480 1.368 . S
C477 C458 1.429 . S
C477 C471 1.429 . S
C477 C478 1.523 . S
C478 C459 1.368 . S
C478 C472 1.368 . S
C478 C477 1.523 . S
C479 C463 1.429 . S
C479 C475 1.429 . S
C479 C480 1.523 . S
C480 C464 1.368 . S
C480 C476 1.368 . S
C480 C479 1.523 . S
H481 C456 0.950 . S
H482 C458 0.950 . S
H483 C459 0.949 . S
H484 C461 0.950 . S
H485 C463 0.950 . S
C486 C487 1.349 . S
C486 C488 1.327 . S
C486 H511 0.950 . S
C487 C486 1.349 . S
C487 C503 1.349 . S
C488 C486 1.327 . S
C488 C507 1.429 . S
C488 H512 0.950 . S
C489 C506 1.574 . S
C489 C508 1.368 . S
C489 H513 0.949 . S
H490 C494 0.949 . S
C491 C492 1.349 . S
C491 C493 1.327 . S
C491 H514 0.950 . S
C492 C491 1.349 . S
C492 C504 1.349 . S
C493 C491 1.327 . S
C493 C509 1.429 . S
C493 H515 0.950 . S
C494 H490 0.949 . S
C494 C502 1.574 . S
C494 C510 1.368 . S
H495 C503 0.950 . S
H496 C501 0.950 . S
H497 C502 0.949 . S
H498 C504 0.950 . S
H499 C505 0.950 . S
H500 C506 0.949 . S
C501 H496 0.950 . S
C501 C503 1.327 . S
C501 C507 1.429 . S
C502 C494 1.574 . S
C502 H497 0.949 . S
C502 C508 1.368 . S
C503 C487 1.349 . S
C503 H495 0.950 . S
C503 C501 1.327 . S
C504 C492 1.349 . S
C504 H498 0.950 . S
C504 C505 1.327 . S
C505 H499 0.950 . S
C505 C504 1.327 . S
C505 C509 1.429 . S
C506 C489 1.574 . S
C506 H500 0.949 . S
C506 C510 1.368 . S
C507 C488 1.429 . S
C507 C501 1.429 . S
C507 C508 1.523 . S
C508 C489 1.368 . S
C508 C502 1.368 . S
C508 C507 1.523 . S
C509 C493 1.429 . S
C509 C505 1.429 . S
C509 C510 1.523 . S
C510 C494 1.368 . S
C510 C506 1.368 . S
C510 C509 1.523 . S
H511 C486 0.950 . S
H512 C488 0.950 . S
H513 C489 0.949 . S
H514 C491 0.950 . S
H515 C493 0.950 . S
C516 C517 1.349 . S
C516 C518 1.327 . S
C516 H541 0.950 . S
C517 C516 1.349 . S
C517 C533 1.349 . S
C518 C516 1.327 . S
C518 C537 1.429 . S
C518 H542 0.950 . S
C519 C536 1.574 . S
C519 C538 1.368 . S
C519 H543 0.949 . S
H520 C524 0.949 . S
C521 C522 1.349 . S
C521 C523 1.327 . S
C521 H544 0.950 . S
C522 C521 1.349 . S
C522 C534 1.349 . S
C523 C521 1.327 . S
C523 C539 1.429 . S
C523 H545 0.950 . S
C524 H520 0.949 . S
C524 C532 1.574 . S
C524 C540 1.368 . S
H525 C533 0.950 . S
H526 C531 0.950 . S
H527 C532 0.949 . S
H528 C534 0.950 . S
H529 C535 0.950 . S
H530 C536 0.949 . S
C531 H526 0.950 . S
C531 C533 1.327 . S
C531 C537 1.429 . S
C532 C524 1.574 . S
C532 H527 0.949 . S
C532 C538 1.368 . S
C533 C517 1.349 . S
C533 H525 0.950 . S
C533 C531 1.327 . S
C534 C522 1.349 . S
C534 H528 0.950 . S
C534 C535 1.327 . S
C535 H529 0.950 . S
C535 C534 1.327 . S
C535 C539 1.429 . S
C536 C519 1.574 . S
C536 H530 0.949 . S
C536 C540 1.368 . S
C537 C518 1.429 . S
C537 C531 1.429 . S
C537 C538 1.523 . S
C538 C519 1.368 . S
C538 C532 1.368 . S
C538 C537 1.523 . S
C539 C523 1.429 . S
C539 C535 1.429 . S
C539 C540 1.523 . S
C540 C524 1.368 . S
C540 C536 1.368 . S
C540 C539 1.523 . S
H541 C516 0.950 . S
H542 C518 0.950 . S
H543 C519 0.949 . S
H544 C521 0.950 . S
H545 C523 0.950 . S
C546 C547 1.349 1_655 S
C546 C548 1.327 . S
C546 H571 0.950 . S
C547 C546 1.349 1_455 S
C547 C563 1.349 . S
C548 C546 1.327 . S
C548 C567 1.429 1_655 S
C548 H572 0.950 . S
C549 C566 1.574 . S
C549 C568 1.368 . S
C549 H573 0.949 . S
H550 C554 0.958 . S
C551 C552 1.349 . S
C551 C553 1.327 . S
C551 H574 0.950 . S
C552 C551 1.349 . S
C552 C564 1.349 . S
C553 C551 1.327 . S
C553 C569 1.429 . S
C553 H575 0.950 . S
C554 H550 0.958 . S
C554 C562 1.578 1_556 S
C554 C570 1.355 1_655 S
H555 C563 0.950 . S
H556 C561 0.950 . S
H557 C562 0.949 . S
H558 C564 0.950 1_655 S
H559 C565 0.950 1_655 S
H560 C566 0.949 1_556 S
C561 H556 0.950 . S
C561 C563 1.327 . S
C561 C567 1.429 . S
C562 C554 1.578 1_554 S
C562 H557 0.949 . S
C562 C568 1.368 1_655 S
C563 C547 1.349 . S
C563 H555 0.950 . S
C563 C561 1.327 . S
C564 C552 1.349 . S
C564 H558 0.950 1_455 S
C564 C565 1.327 . S
C565 H559 0.950 1_455 S
C565 C564 1.327 . S
C565 C569 1.429 . S
C566 C549 1.574 . S
C566 H560 0.949 1_554 S
C566 C570 1.368 1_554 S
C567 C548 1.429 1_455 S
C567 C561 1.429 . S
C567 C568 1.523 . S
C568 C549 1.368 . S
C568 C562 1.368 1_455 S
C568 C567 1.523 . S
C569 C553 1.429 . S
C569 C565 1.429 . S
C569 C570 1.523 . S
C570 C554 1.355 1_455 S
C570 C566 1.368 1_556 S
C570 C569 1.523 . S
H571 C546 0.950 . S
H572 C548 0.950 . S
H573 C549 0.949 . S
H574 C551 0.950 . S
H575 C553 0.950 . S
C576 C577 1.349 . S
C576 C578 1.327 . S
C576 H601 0.950 . S
C577 C576 1.349 . S
C577 C593 1.349 . S
C578 C576 1.327 . S
C578 C597 1.429 . S
C578 H602 0.950 . S
C579 C596 1.574 . S
C579 C598 1.368 . S
C579 H603 0.949 . S
H580 C584 0.949 . S
C581 C582 1.349 . S
C581 C583 1.327 . S
C581 H604 0.950 . S
C582 C581 1.349 . S
C582 C594 1.349 . S
C583 C581 1.327 . S
C583 C599 1.429 . S
C583 H605 0.950 . S
C584 H580 0.949 . S
C584 C592 1.574 . S
C584 C600 1.368 . S
H585 C593 0.950 . S
H586 C591 0.950 . S
H587 C592 0.949 . S
H588 C594 0.950 . S
H589 C595 0.950 . S
H590 C596 0.949 . S
C591 H586 0.950 . S
C591 C593 1.327 . S
C591 C597 1.429 . S
C592 C584 1.574 . S
C592 H587 0.949 . S
C592 C598 1.368 . S
C593 C577 1.349 . S
C593 H585 0.950 . S
C593 C591 1.327 . S
C594 C582 1.349 . S
C594 H588 0.950 . S
C594 C595 1.327 . S
C595 H589 0.950 . S
C595 C594 1.327 . S
C595 C599 1.429 . S
C596 C579 1.574 . S
C596 H590 0.949 . S
C596 C600 1.368 . S
C597 C578 1.429 . S
C597 C591 1.429 . S
C597 C598 1.523 . S
C598 C579 1.368 . S
C598 C592 1.368 . S
C598 C597 1.523 . S
C599 C583 1.429 . S
C599 C595 1.429 . S
C599 C600 1.523 . S
C600 C584 1.368 . S
C600 C596 1.368 . S
C600 C599 1.523 . S
H601 C576 0.950 . S
H602 C578 0.950 . S
H603 C579 0.949 . S
H604 C581 0.950 . S
H605 C583 0.950 . S
C606 C607 1.349 . S
C606 C608 1.327 . S
C606 H631 0.950 . S
C607 C606 1.349 . S
C607 C623 1.349 . S
C608 C606 1.327 . S
C608 C627 1.429 . S
C608 H632 0.950 . S
C609 C626 1.574 . S
C609 C628 1.368 . S
C609 H633 0.949 . S
H610 C614 0.949 . S
C611 C612 1.349 . S
C611 C613 1.327 . S
C611 H634 0.950 . S
C612 C611 1.349 . S
C612 C624 1.349 . S
C613 C611 1.327 . S
C613 C629 1.429 . S
C613 H635 0.950 . S
C614 H610 0.949 . S
C614 C622 1.574 . S
C614 C630 1.368 . S
H615 C623 0.950 . S
H616 C621 0.950 . S
H617 C622 0.949 . S
H618 C624 0.950 . S
H619 C625 0.950 . S
H620 C626 0.949 . S
C621 H616 0.950 . S
C621 C623 1.327 . S
C621 C627 1.429 . S
C622 C614 1.574 . S
C622 H617 0.949 . S
C622 C628 1.368 . S
C623 C607 1.349 . S
C623 H615 0.950 . S
C623 C621 1.327 . S
C624 C612 1.349 . S
C624 H618 0.950 . S
C624 C625 1.327 . S
C625 H619 0.950 . S
C625 C624 1.327 . S
C625 C629 1.429 . S
C626 C609 1.574 . S
C626 H620 0.949 . S
C626 C630 1.368 . S
C627 C608 1.429 . S
C627 C621 1.429 . S
C627 C628 1.523 . S
C628 C609 1.368 . S
C628 C622 1.368 . S
C628 C627 1.523 . S
C629 C613 1.429 . S
C629 C625 1.429 . S
C629 C630 1.523 . S
C630 C614 1.368 . S
C630 C626 1.368 . S
C630 C629 1.523 . S
H631 C606 0.950 . S
H632 C608 0.950 . S
H633 C609 0.949 . S
H634 C611 0.950 . S
H635 C613 0.950 . S
C636 C637 1.349 . S
C636 C638 1.327 . S
C636 H661 0.950 . S
C637 C636 1.349 . S
C637 C653 1.349 . S
C638 C636 1.327 . S
C638 C657 1.429 . S
C638 H662 0.950 . S
C639 C656 1.574 . S
C639 C658 1.368 . S
C639 H663 0.949 1_545 S
H640 C644 0.949 . S
C641 C642 1.349 . S
C641 C643 1.327 . S
C641 H664 0.950 1_545 S
C642 C641 1.349 . S
C642 C654 1.349 . S
C643 C641 1.327 . S
C643 C659 1.429 . S
C643 H665 0.950 1_545 S
C644 H640 0.949 . S
C644 C652 1.574 . S
C644 C660 1.368 . S
H645 C653 0.950 . S
H646 C651 0.950 1_565 S
H647 C652 0.949 . S
H648 C654 0.950 . S
H649 C655 0.950 . S
H650 C656 0.949 1_565 S
C651 H646 0.950 1_545 S
C651 C653 1.327 . S
C651 C657 1.429 . S
C652 C644 1.574 . S
C652 H647 0.949 . S
C652 C658 1.368 . S
C653 C637 1.349 . S
C653 H645 0.950 . S
C653 C651 1.327 . S
C654 C642 1.349 . S
C654 H648 0.950 . S
C654 C655 1.327 . S
C655 H649 0.950 . S
C655 C654 1.327 . S
C655 C659 1.429 . S
C656 C639 1.574 . S
C656 H650 0.949 1_545 S
C656 C660 1.368 . S
C657 C638 1.429 . S
C657 C651 1.429 . S
C657 C658 1.523 . S
C658 C639 1.368 . S
C658 C652 1.368 . S
C658 C657 1.523 . S
C659 C643 1.429 . S
C659 C655 1.429 . S
C659 C660 1.523 . S
C660 C644 1.368 . S
C660 C656 1.368 . S
C660 C659 1.523 . S
H661 C636 0.950 . S
H662 C638 0.950 . S
H663 C639 0.949 1_565 S
H664 C641 0.950 1_565 S
H665 C643 0.950 1_565 S
C666 C667 1.349 . S
C666 C668 1.327 . S
C666 H691 0.950 . S
C667 C666 1.349 . S
C667 C683 1.349 . S
C668 C666 1.327 . S
C668 C687 1.429 . S
C668 H692 0.950 . S
C669 C686 1.574 1_556 S
C669 C688 1.368 . S
C669 H693 0.949 . S
H670 C674 0.949 . S
C671 C672 1.349 . S
C671 C673 1.327 . S
C671 H694 0.950 . S
C672 C671 1.349 . S
C672 C684 1.349 . S
C673 C671 1.327 . S
C673 C689 1.429 . S
C673 H695 0.950 . S
C674 H670 0.949 . S
C674 C682 1.574 1_554 S
C674 C690 1.368 . S
H675 C683 0.950 . S
H676 C681 0.950 . S
H677 C682 0.949 . S
H678 C684 0.950 . S
H679 C685 0.950 . S
H680 C686 0.949 . S
C681 H676 0.950 . S
C681 C683 1.327 . S
C681 C687 1.429 . S
C682 C674 1.574 1_556 S
C682 H677 0.949 . S
C682 C688 1.368 . S
C683 C667 1.349 . S
C683 H675 0.950 . S
C683 C681 1.327 . S
C684 C672 1.349 . S
C684 H678 0.950 . S
C684 C685 1.327 . S
C685 H679 0.950 . S
C685 C684 1.327 . S
C685 C689 1.429 . S
C686 C669 1.574 1_554 S
C686 H680 0.949 . S
C686 C690 1.368 . S
C687 C668 1.429 . S
C687 C681 1.429 . S
C687 C688 1.523 . S
C688 C669 1.368 . S
C688 C682 1.368 . S
C688 C687 1.523 . S
C689 C673 1.429 . S
C689 C685 1.429 . S
C689 C690 1.523 . S
C690 C674 1.368 . S
C690 C686 1.368 . S
C690 C689 1.523 . S
H691 C666 0.950 . S
H692 C668 0.950 . S
H693 C669 0.949 . S
H694 C671 0.950 . S
H695 C673 0.950 . S
C696 C697 1.349 . S
C696 C698 1.327 . S
C696 H721 0.950 . S
C697 C696 1.349 . S
C697 C713 1.349 . S
C698 C696 1.327 . S
C698 C717 1.429 . S
C698 H722 0.950 . S
C699 C716 1.574 . S
C699 C718 1.368 . S
C699 H723 0.949 . S
H700 C704 0.949 . S
C701 C702 1.349 . S
C701 C703 1.327 . S
C701 H724 0.950 . S
C702 C701 1.349 . S
C702 C714 1.349 . S
C703 C701 1.327 . S
C703 C719 1.429 . S
C703 H725 0.950 . S
C704 H700 0.949 . S
C704 C712 1.574 . S
C704 C720 1.368 . S
H705 C713 0.950 . S
H706 C711 0.950 . S
H707 C712 0.949 . S
H708 C714 0.950 . S
H709 C715 0.950 . S
H710 C716 0.949 . S
C711 H706 0.950 . S
C711 C713 1.327 . S
C711 C717 1.429 . S
C712 C704 1.574 . S
C712 H707 0.949 . S
C712 C718 1.368 . S
C713 C697 1.349 . S
C713 H705 0.950 . S
C713 C711 1.327 . S
C714 C702 1.349 . S
C714 H708 0.950 . S
C714 C715 1.327 . S
C715 H709 0.950 . S
C715 C714 1.327 . S
C715 C719 1.429 . S
C716 C699 1.574 . S
C716 H710 0.949 . S
C716 C720 1.368 . S
C717 C698 1.429 . S
C717 C711 1.429 . S
C717 C718 1.523 . S
C718 C699 1.368 . S
C718 C712 1.368 . S
C718 C717 1.523 . S
C719 C703 1.429 . S
C719 C715 1.429 . S
C719 C720 1.523 . S
C720 C704 1.368 . S
C720 C716 1.368 . S
C720 C719 1.523 . S
H721 C696 0.950 . S
H722 C698 0.950 . S
H723 C699 0.949 . S
H724 C701 0.950 . S
H725 C703 0.950 . S
C187 C19 1.933 . S
C192 C185 1.886 . S
C217 C46 1.242 . S
C222 C163 1.231 . S
C247 C95 0.373 . S
C252 C174 0.337 . S
C277 C10 1.830 . S
C282 C179 1.807 . S
C312 C157 1.103 . S
C307 C55 1.110 . S
C342 C168 0.337 . S
C337 C86 0.344 . S
C367 C59 3.159 . S
C372 C141 3.091 . S
C397 C90 1.857 . S
C402 C146 1.848 . S
C427 C15 1.107 . S
C432 C124 1.103 . S
C462 C135 2.851 . S
C457 C50 2.872 . S
C492 C152 1.882 . S
C487 C99 1.921 . S
C517 C6 1.253 . S
C522 C130 1.241 . S
C552 C147 1.483 . S
C547 C9 1.420 . S
C577 C58 1.516 . S
C582 C125 1.537 . S
C607 C98 1.663 . S
C612 C136 1.745 . S
C642 C169 1.270 . S
C637 C49 1.226 . S
C672 C180 1.469 . S
C667 C89 1.434 . S
C697 C18 1.514 . S
C702 C158 1.531 . S
