# Generated by pormake.
# Topology eea, (3,6)-cn, num edge types: 1
# Building blocks:
#     Node 0, Type 0, BuildingBlock: VETTIZ_charged_linker_0, # of connection points: 3
#     Node 1, Type 0, BuildingBlock: VETTIZ_charged_linker_0, # of connection points: 3
#     Node 2, Type 0, BuildingBlock: VETTIZ_charged_linker_0, # of connection points: 3
#     Node 3, Type 0, BuildingBlock: VETTIZ_charged_linker_0, # of connection points: 3
#     Node 4, Type 0, BuildingBlock: VETTIZ_charged_linker_0, # of connection points: 3
#     Node 5, Type 0, BuildingBlock: VETTIZ_charged_linker_0, # of connection points: 3
#     Node 6, Type 0, BuildingBlock: VETTIZ_charged_linker_0, # of connection points: 3
#     Node 7, Type 0, BuildingBlock: VETTIZ_charged_linker_0, # of connection points: 3
#     Node 8, Type 0, BuildingBlock: VETTIZ_charged_linker_0, # of connection points: 3
#     Node 9, Type 0, BuildingBlock: VETTIZ_charged_linker_0, # of connection points: 3
#     Node 10, Type 0, BuildingBlock: VETTIZ_charged_linker_0, # of connection points: 3
#     Node 11, Type 0, BuildingBlock: VETTIZ_charged_linker_0, # of connection points: 3
#     Node 12, Type 0, BuildingBlock: VETTIZ_charged_linker_0, # of connection points: 3
#     Node 13, Type 0, BuildingBlock: VETTIZ_charged_linker_0, # of connection points: 3
#     Node 14, Type 0, BuildingBlock: VETTIZ_charged_linker_0, # of connection points: 3
#     Node 15, Type 0, BuildingBlock: VETTIZ_charged_linker_0, # of connection points: 3
#     Node 16, Type 0, BuildingBlock: VETTIZ_charged_linker_0, # of connection points: 3
#     Node 17, Type 0, BuildingBlock: VETTIZ_charged_linker_0, # of connection points: 3
#     Node 18, Type 1, BuildingBlock: CUKXOW_clean_sbu_0, # of connection points: 6
#     Node 19, Type 1, BuildingBlock: CUKXOW_clean_sbu_0, # of connection points: 6
#     Node 20, Type 1, BuildingBlock: CUKXOW_clean_sbu_0, # of connection points: 6
#     Node 21, Type 1, BuildingBlock: CUKXOW_clean_sbu_0, # of connection points: 6
#     Node 22, Type 1, BuildingBlock: CUKXOW_clean_sbu_0, # of connection points: 6
#     Node 23, Type 1, BuildingBlock: CUKXOW_clean_sbu_0, # of connection points: 6
#     Node 24, Type 1, BuildingBlock: CUKXOW_clean_sbu_0, # of connection points: 6
#     Node 25, Type 1, BuildingBlock: CUKXOW_clean_sbu_0, # of connection points: 6
#     Node 26, Type 1, BuildingBlock: CUKXOW_clean_sbu_0, # of connection points: 6
#     Edge 27, Type (0, 1), None
#     Edge 28, Type (0, 1), None
#     Edge 29, Type (0, 1), None
#     Edge 30, Type (0, 1), None
#     Edge 31, Type (0, 1), None
#     Edge 32, Type (0, 1), None
#     Edge 33, Type (0, 1), None
#     Edge 34, Type (0, 1), None
#     Edge 35, Type (0, 1), None
#     Edge 36, Type (0, 1), None
#     Edge 37, Type (0, 1), None
#     Edge 38, Type (0, 1), None
#     Edge 39, Type (0, 1), None
#     Edge 40, Type (0, 1), None
#     Edge 41, Type (0, 1), None
#     Edge 42, Type (0, 1), None
#     Edge 43, Type (0, 1), None
#     Edge 44, Type (0, 1), None
#     Edge 45, Type (0, 1), None
#     Edge 46, Type (0, 1), None
#     Edge 47, Type (0, 1), None
#     Edge 48, Type (0, 1), None
#     Edge 49, Type (0, 1), None
#     Edge 50, Type (0, 1), None
#     Edge 51, Type (0, 1), None
#     Edge 52, Type (0, 1), None
#     Edge 53, Type (0, 1), None
#     Edge 54, Type (0, 1), None
#     Edge 55, Type (0, 1), None
#     Edge 56, Type (0, 1), None
#     Edge 57, Type (0, 1), None
#     Edge 58, Type (0, 1), None
#     Edge 59, Type (0, 1), None
#     Edge 60, Type (0, 1), None
#     Edge 61, Type (0, 1), None
#     Edge 62, Type (0, 1), None
#     Edge 63, Type (0, 1), None
#     Edge 64, Type (0, 1), None
#     Edge 65, Type (0, 1), None
#     Edge 66, Type (0, 1), None
#     Edge 67, Type (0, 1), None
#     Edge 68, Type (0, 1), None
#     Edge 69, Type (0, 1), None
#     Edge 70, Type (0, 1), None
#     Edge 71, Type (0, 1), None
#     Edge 72, Type (0, 1), None
#     Edge 73, Type (0, 1), None
#     Edge 74, Type (0, 1), None
#     Edge 75, Type (0, 1), None
#     Edge 76, Type (0, 1), None
#     Edge 77, Type (0, 1), None
#     Edge 78, Type (0, 1), None
#     Edge 79, Type (0, 1), None
#     Edge 80, Type (0, 1), None
# Relax obj value: 0.018
# Max RMSD: 0.123
# Mean RMSD: 0.067
data_MOF--net-eea--node1-CUKXOW_clean_sbu_0--node2-VETTIZ_charged_linker_0--edge1-none
_symmetry_space_group_name_H-M    P1
_symmetry_Int_Tables_number       1
_symmetry_cell_setting            triclinic
loop_
_symmetry_equiv_pos_as_xyz
'x, y, z'
_cell_length_a     38.216682
_cell_length_b     34.715763
_cell_length_c     37.870408
_cell_angle_alpha  92.388248
_cell_angle_beta   92.287052
_cell_angle_gamma 120.0732
loop_
_atom_site_label
_atom_site_type_symbol
_atom_site_fract_x
_atom_site_fract_y
_atom_site_fract_z
_atom_type_partial_charge
C0 C 0.19401 0.20877 0.38668 0.0
C1 C 0.20793 0.25324 0.39831 0.0
C2 C 0.23543 0.27229 0.42845 0.0
C3 C 0.23393 0.20228 0.43537 0.0
C4 C 0.20806 0.18436 0.40503 0.0
C5 C 0.19801 0.13751 0.39485 0.0
H6 H 0.22976 0.96602 0.42123 0.0
C7 C 0.24222 0.16773 0.44837 0.0
C8 C 0.22186 0.13011 0.4241 0.0
H9 H 0.14863 0.97106 0.3415 0.0
H10 H 0.16685 0.04547 0.36509 0.0
H11 H 0.3053 0.07207 0.42609 0.0
H12 H 0.19652 0.9967 0.47977 0.0
H13 H 0.23101 0.03817 0.51116 0.0
H14 H 0.24252 0.99731 0.49202 0.0
H15 H 0.29659 0.02783 0.45388 0.0
H16 H 0.31712 0.08426 0.47225 0.0
C17 C 0.21416 0.13715 0.35803 0.0
C18 C 0.15168 0.10615 0.39632 0.0
C19 C 0.31697 0.18919 0.5695 0.0
C20 C 0.32647 0.16078 0.58808 0.0
C21 C 0.31871 0.12026 0.571 0.0
C22 C 0.30077 0.1073 0.53641 0.0
C23 C 0.2899 0.13486 0.51853 0.0
C24 C 0.29881 0.1756 0.5346 0.0
C25 C 0.28646 0.20096 0.51018 0.0
C26 C 0.2646 0.16648 0.479 0.0
C27 C 0.26781 0.12845 0.48377 0.0
C28 C 0.32568 0.24146 0.49897 0.0
C29 C 0.2581 0.2139 0.52884 0.0
C30 C 0.21679 0.98382 0.40841 0.0
C31 C 0.18874 0.96381 0.37908 0.0
C32 C 0.17075 0.98653 0.36393 0.0
C33 C 0.18143 0.02956 0.37766 0.0
C34 C 0.20981 0.04941 0.40716 0.0
C35 C 0.22633 0.0261 0.42232 0.0
C36 C 0.25113 0.04909 0.4563 0.0
C37 C 0.24908 0.09158 0.4581 0.0
C38 C 0.22551 0.09199 0.42889 0.0
C39 C 0.29489 0.05874 0.45224 0.0
C40 C 0.22959 0.01897 0.48658 0.0
H41 H 0.26784 0.26239 0.47087 0.0
H42 H 0.173 0.19349 0.36351 0.0
H43 H 0.1393 0.11894 0.41688 0.0
H44 H 0.14372 0.07248 0.404 0.0
H45 H 0.13527 0.1031 0.37053 0.0
H46 H 0.24457 0.16716 0.3563 0.0
H47 H 0.19357 0.13737 0.3366 0.0
H48 H 0.21848 0.10847 0.35239 0.0
H49 H 0.32306 0.22081 0.58192 0.0
H50 H 0.32595 0.09812 0.5848 0.0
H51 H 0.29582 0.07603 0.52502 0.0
H52 H 0.34806 0.23138 0.49182 0.0
H53 H 0.34005 0.26797 0.52095 0.0
H54 H 0.32047 0.25587 0.47529 0.0
H55 H 0.2425 0.19141 0.55009 0.0
H56 H 0.23354 0.2112 0.51055 0.0
H57 H 0.27536 0.24861 0.54088 0.0
H58 H 0.24612 0.30649 0.438 0.0
C59 C 0.24806 0.24683 0.44737 0.0
C60 C 0.97944 0.19287 0.39228 0.0
C61 C 0.01235 0.23276 0.40705 0.0
C62 C 0.0089 0.25158 0.43962 0.0
C63 C 0.93984 0.19057 0.44177 0.0
C64 C 0.94365 0.17282 0.40971 0.0
C65 C 0.90581 0.13104 0.39648 0.0
H66 H 0.71319 0.97526 0.41625 0.0
C67 C 0.89782 0.1618 0.45195 0.0
C68 C 0.87781 0.1277 0.42482 0.0
H69 H 0.79408 0.97456 0.34018 0.0
H70 H 0.84525 0.04887 0.36186 0.0
H71 H 0.76547 0.99891 0.47516 0.0
H72 H 0.74561 0.09018 0.41733 0.0
H73 H 0.74572 0.10234 0.46315 0.0
H74 H 0.70953 0.04767 0.44319 0.0
H75 H 0.72886 0.0137 0.48784 0.0
H76 H 0.781 0.04473 0.50561 0.0
C77 C 0.91498 0.09212 0.39616 0.0
C78 C 0.89152 0.13883 0.3599 0.0
C79 C 0.85275 0.18104 0.57373 0.0
C80 C 0.81487 0.1591 0.58861 0.0
C81 C 0.78049 0.12782 0.56706 0.0
C82 C 0.78385 0.11701 0.53178 0.0
C83 C 0.82201 0.13767 0.51768 0.0
C84 C 0.85555 0.1702 0.53805 0.0
C85 C 0.89294 0.19059 0.51714 0.0
C86 C 0.87669 0.16268 0.48195 0.0
C87 C 0.8352 0.13125 0.48284 0.0
C88 C 0.92562 0.1834 0.53586 0.0
C89 C 0.90658 0.24029 0.51315 0.0
C90 C 0.74167 0.99197 0.40378 0.0
C91 C 0.75001 0.96986 0.37643 0.0
C92 C 0.7875 0.99138 0.3614 0.0
C93 C 0.81716 0.03433 0.37429 0.0
C94 C 0.80961 0.05518 0.40327 0.0
C95 C 0.77224 0.03426 0.41735 0.0
C96 C 0.77148 0.05894 0.45068 0.0
C97 C 0.81495 0.09754 0.45475 0.0
C98 C 0.83649 0.09552 0.42636 0.0
C99 C 0.76093 0.02763 0.48145 0.0
C100 C 0.74134 0.07559 0.44351 0.0
H101 H 0.97164 0.24584 0.48193 0.0
H102 H 0.98123 0.1777 0.36733 0.0
H103 H 0.89607 0.1731 0.35982 0.0
H104 H 0.85885 0.11634 0.35289 0.0
H105 H 0.90887 0.13506 0.33851 0.0
H106 H 0.94183 0.10014 0.41419 0.0
H107 H 0.92125 0.08431 0.36921 0.0
H108 H 0.89005 0.0614 0.40599 0.0
H109 H 0.87944 0.20611 0.58934 0.0
H110 H 0.75106 0.11057 0.5779 0.0
H111 H 0.75672 0.09224 0.51696 0.0
H112 H 0.91271 0.14782 0.54163 0.0
H113 H 0.93748 0.20397 0.56137 0.0
H114 H 0.95131 0.19168 0.51937 0.0
H115 H 0.8807 0.24636 0.51466 0.0
H116 H 0.91837 0.25129 0.48701 0.0
H117 H 0.92996 0.26227 0.53437 0.0
H118 H 0.03413 0.28248 0.45153 0.0
C119 C 0.97277 0.23051 0.45716 0.0
C120 C 0.97551 0.75193 0.38653 0.0
C121 C 0.00775 0.74829 0.40121 0.0
C122 C 0.00269 0.72574 0.43248 0.0
C123 C 0.93495 0.71485 0.43545 0.0
C124 C 0.93978 0.73534 0.404 0.0
C125 C 0.90463 0.74095 0.3932 0.0
H126 H 0.74422 0.75451 0.43918 0.0
C127 C 0.89536 0.70529 0.44825 0.0
C128 C 0.87768 0.72056 0.42334 0.0
H129 H 0.80113 0.7843 0.33989 0.0
H130 H 0.84299 0.75407 0.3584 0.0
H131 H 0.72853 0.66594 0.44174 0.0
H132 H 0.83574 0.77568 0.49868 0.0
H133 H 0.79567 0.73661 0.52357 0.0
H134 H 0.78729 0.77086 0.49477 0.0
H135 H 0.72927 0.68103 0.48757 0.0
H136 H 0.74789 0.64445 0.47332 0.0
C137 C 0.88487 0.71375 0.35727 0.0
C138 C 0.9208 0.79184 0.39251 0.0
C139 C 0.85425 0.64843 0.57148 0.0
C140 C 0.82012 0.63994 0.59023 0.0
C141 C 0.78945 0.64532 0.57362 0.0
C142 C 0.79294 0.66038 0.53958 0.0
C143 C 0.82742 0.6701 0.52147 0.0
C144 C 0.8569 0.66278 0.53674 0.0
C145 C 0.89016 0.67283 0.51185 0.0
C146 C 0.876 0.68833 0.48005 0.0
C147 C 0.83939 0.68696 0.48617 0.0
C148 C 0.88972 0.62898 0.50196 0.0
C149 C 0.93137 0.71028 0.52932 0.0
C150 C 0.76632 0.75523 0.4218 0.0
C151 C 0.77021 0.77271 0.38844 0.0
C152 C 0.79809 0.7716 0.36592 0.0
C153 C 0.82233 0.75402 0.37673 0.0
C154 C 0.81939 0.73836 0.41076 0.0
C155 C 0.79118 0.73816 0.43239 0.0
C156 C 0.78976 0.71609 0.46617 0.0
C157 C 0.82237 0.70376 0.46136 0.0
C158 C 0.84088 0.71919 0.42971 0.0
C159 C 0.74671 0.67486 0.46754 0.0
C160 C 0.80264 0.75134 0.49769 0.0
H161 H 0.96454 0.69366 0.47417 0.0
H162 H 0.97847 0.76887 0.36249 0.0
H163 H 0.94262 0.81044 0.41572 0.0
H164 H 0.89727 0.80109 0.39419 0.0
H165 H 0.93684 0.805 0.36817 0.0
H166 H 0.89136 0.68608 0.35304 0.0
H167 H 0.89626 0.73517 0.33467 0.0
H168 H 0.85134 0.69701 0.35595 0.0
H169 H 0.87843 0.64477 0.58369 0.0
H170 H 0.76317 0.63921 0.58763 0.0
H171 H 0.76884 0.66451 0.52895 0.0
H172 H 0.85834 0.6017 0.49384 0.0
H173 H 0.9011 0.61848 0.52495 0.0
H174 H 0.90818 0.63189 0.47942 0.0
H175 H 0.92739 0.72807 0.55253 0.0
H176 H 0.94859 0.73657 0.51112 0.0
H177 H 0.95067 0.69659 0.53829 0.0
H178 H 0.02717 0.72212 0.44405 0.0
C179 C 0.96644 0.70918 0.44983 0.0
C180 C 0.20318 0.23426 0.65584 0.0
C181 C 0.23783 0.23688 0.6425 0.0
C182 C 0.25363 0.26071 0.61239 0.0
C183 C 0.19811 0.27522 0.60724 0.0
C184 C 0.184 0.25383 0.63789 0.0
C185 C 0.14627 0.2532 0.648 0.0
H186 H 0.98248 0.26809 0.60338 0.0
C187 C 0.16934 0.28866 0.59365 0.0
C188 C 0.13905 0.27607 0.61746 0.0
H189 H 0.01453 0.22725 0.7001 0.0
H190 H 0.08013 0.24996 0.6809 0.0
H191 H 0.0803 0.36361 0.60236 0.0
H192 H 0.02415 0.23199 0.54765 0.0
H193 H 0.04865 0.27464 0.51839 0.0
H194 H 0.00591 0.26999 0.54013 0.0
H195 H 0.03717 0.3438 0.57109 0.0
H196 H 0.08761 0.36639 0.55651 0.0
C197 C 0.15621 0.28119 0.68392 0.0
C198 C 0.11247 0.20356 0.64847 0.0
C199 C 0.18778 0.35108 0.47301 0.0
C200 C 0.16448 0.36183 0.45047 0.0
C201 C 0.12886 0.35898 0.46255 0.0
C202 C 0.11609 0.34426 0.4964 0.0
C203 C 0.13909 0.33201 0.51827 0.0
C204 C 0.17471 0.33642 0.50647 0.0
C205 C 0.19561 0.32187 0.5325 0.0
C206 C 0.16661 0.30734 0.56176 0.0
C207 C 0.1333 0.31323 0.55372 0.0
C208 C 0.23704 0.36318 0.5452 0.0
C209 C 0.19858 0.28251 0.5147 0.0
C210 C 0.00392 0.26417 0.62017 0.0
C211 C 0.99286 0.24446 0.65291 0.0
C212 C 0.02185 0.24132 0.67459 0.0
C213 C 0.06018 0.25458 0.66332 0.0
C214 C 0.06997 0.27084 0.62973 0.0
C215 C 0.04312 0.27757 0.60919 0.0
C216 C 0.06132 0.29834 0.57516 0.0
C217 C 0.1021 0.29995 0.57806 0.0
C218 C 0.10606 0.28292 0.61009 0.0
C219 C 0.06681 0.34554 0.57601 0.0
C220 C 0.03358 0.26731 0.54344 0.0
H221 H 0.24675 0.29632 0.5712 0.0
H222 H 0.1909 0.21684 0.67937 0.0
H223 H 0.11409 0.18327 0.62573 0.0
H224 H 0.08152 0.19818 0.6457 0.0
H225 H 0.11573 0.18916 0.67319 0.0
H226 H 0.18934 0.30444 0.68942 0.0
H227 H 0.14556 0.25945 0.7064 0.0
H228 H 0.14293 0.3032 0.68425 0.0
H229 H 0.21491 0.35229 0.46416 0.0
H230 H 0.11025 0.36678 0.44537 0.0
H231 H 0.08838 0.34196 0.50397 0.0
H232 H 0.23409 0.39333 0.54937 0.0
H233 H 0.25973 0.37033 0.52529 0.0
H234 H 0.24926 0.35957 0.57099 0.0
H235 H 0.1763 0.26588 0.49145 0.0
H236 H 0.19156 0.25552 0.5326 0.0
H237 H 0.2292 0.29416 0.50528 0.0
H238 H 0.28117 0.26423 0.60241 0.0
C239 C 0.23383 0.27962 0.5945 0.0
C240 C 0.80075 0.79055 0.65296 0.0
C241 C 0.78386 0.74483 0.64418 0.0
C242 C 0.75189 0.72371 0.61751 0.0
C243 C 0.75574 0.7944 0.60755 0.0
C244 C 0.78553 0.81423 0.63513 0.0
C245 C 0.79683 0.86162 0.64443 0.0
H246 H 0.76267 0.03188 0.62275 0.0
C247 C 0.74674 0.82864 0.59476 0.0
C248 C 0.7699 0.8675 0.61736 0.0
H249 H 0.84924 0.02843 0.69729 0.0
H250 H 0.83002 0.95392 0.67324 0.0
H251 H 0.7915 0.00351 0.56235 0.0
H252 H 0.68679 0.92472 0.61924 0.0
H253 H 0.67346 0.91519 0.57299 0.0
H254 H 0.69526 0.97071 0.59361 0.0
H255 H 0.74289 0.99549 0.54861 0.0
H256 H 0.75979 0.95805 0.5324 0.0
C257 C 0.84236 0.89209 0.63855 0.0
C258 C 0.78543 0.86468 0.6829 0.0
C259 C 0.6713 0.80824 0.47437 0.0
C260 C 0.66397 0.83787 0.45541 0.0
C261 C 0.67179 0.87834 0.47264 0.0
C262 C 0.68832 0.89027 0.50772 0.0
C263 C 0.69777 0.86176 0.52583 0.0
C264 C 0.68804 0.82079 0.50974 0.0
C265 C 0.69936 0.79473 0.53419 0.0
C266 C 0.72257 0.8293 0.56515 0.0
C267 C 0.72017 0.86788 0.56035 0.0
C268 C 0.7261 0.7805 0.51485 0.0
C269 C 0.65982 0.75499 0.54559 0.0
C270 C 0.77665 0.01441 0.63439 0.0
C271 C 0.80645 0.03485 0.66248 0.0
C272 C 0.82576 0.01262 0.6759 0.0
C273 C 0.81445 0.9695 0.66193 0.0
C274 C 0.78406 0.94905 0.63393 0.0
C275 C 0.76647 0.97203 0.62018 0.0
C276 C 0.7396 0.94847 0.58721 0.0
C277 C 0.74111 0.90563 0.58501 0.0
C278 C 0.76655 0.90583 0.6128 0.0
C279 C 0.75914 0.97769 0.55591 0.0
C280 C 0.69639 0.93934 0.59334 0.0
H281 H 0.71363 0.73054 0.57894 0.0
H282 H 0.82456 0.80731 0.674 0.0
H283 H 0.75728 0.83367 0.68853 0.0
H284 H 0.77854 0.89159 0.68806 0.0
H285 H 0.80989 0.86929 0.70248 0.0
H286 H 0.8512 0.87885 0.61541 0.0
H287 H 0.86181 0.89438 0.66207 0.0
H288 H 0.84995 0.92609 0.63219 0.0
H289 H 0.66481 0.77657 0.46174 0.0
H290 H 0.66576 0.90123 0.45863 0.0
H291 H 0.69342 0.92149 0.5193 0.0
H292 H 0.75112 0.80965 0.50311 0.0
H293 H 0.70818 0.7544 0.4932 0.0
H294 H 0.74013 0.76712 0.53271 0.0
H295 H 0.63726 0.76537 0.55121 0.0
H296 H 0.66452 0.74194 0.5703 0.0
H297 H 0.64596 0.72746 0.52437 0.0
H298 H 0.73819 0.68829 0.61055 0.0
C299 C 0.73789 0.74829 0.59901 0.0
C300 C 0.01432 0.80617 0.65179 0.0
C301 C 0.98265 0.76435 0.63873 0.0
C302 C 0.98813 0.74274 0.60887 0.0
C303 C 0.05539 0.80617 0.60418 0.0
C304 C 0.05042 0.8258 0.63471 0.0
C305 C 0.08782 0.86841 0.64733 0.0
H306 H 0.28062 0.02473 0.62845 0.0
C307 C 0.09721 0.83544 0.5937 0.0
C308 C 0.11642 0.87098 0.61983 0.0
H309 H 0.19933 0.02498 0.70425 0.0
H310 H 0.14789 0.95111 0.68177 0.0
H311 H 0.24937 0.91073 0.62581 0.0
H312 H 0.22877 0.00225 0.56966 0.0
H313 H 0.20984 0.95555 0.53933 0.0
H314 H 0.26296 0.98527 0.55434 0.0
H315 H 0.28484 0.95458 0.6005 0.0
H316 H 0.2497 0.90006 0.57972 0.0
C317 C 0.10181 0.86257 0.6848 0.0
C318 C 0.07803 0.90671 0.6455 0.0
C319 C 0.1419 0.81609 0.47164 0.0
C320 C 0.17914 0.83975 0.45588 0.0
C321 C 0.2131 0.87321 0.4766 0.0
C322 C 0.20992 0.88419 0.51191 0.0
C323 C 0.17231 0.86166 0.52689 0.0
C324 C 0.13918 0.82743 0.50726 0.0
C325 C 0.10253 0.80536 0.52906 0.0
C326 C 0.11843 0.8346 0.56372 0.0
C327 C 0.15935 0.86763 0.562 0.0
C328 C 0.09228 0.75684 0.53405 0.0
C329 C 0.06732 0.80842 0.51067 0.0
C330 C 0.25208 0.0079 0.64081 0.0
C331 C 0.24378 0.02969 0.66844 0.0
C332 C 0.20604 0.00822 0.68306 0.0
C333 C 0.17624 0.9655 0.66973 0.0
C334 C 0.18397 0.94476 0.64078 0.0
C335 C 0.22142 0.96582 0.62685 0.0
C336 C 0.22229 0.94146 0.59335 0.0
C337 C 0.17914 0.9021 0.58963 0.0
C338 C 0.15743 0.90402 0.6179 0.0
C339 C 0.25334 0.92594 0.59992 0.0
C340 C 0.23167 0.9726 0.56256 0.0
H341 H 0.02642 0.74626 0.56808 0.0
H342 H 0.01143 0.82308 0.67524 0.0
H343 H 0.05315 0.89849 0.62499 0.0
H344 H 0.10381 0.93808 0.6375 0.0
H345 H 0.06836 0.91337 0.67121 0.0
H346 H 0.0958 0.82792 0.68694 0.0
H347 H 0.08545 0.86923 0.7056 0.0
H348 H 0.13476 0.88392 0.6912 0.0
H349 H 0.11566 0.78923 0.45681 0.0
H350 H 0.24204 0.89174 0.46514 0.0
H351 H 0.23677 0.91027 0.52615 0.0
H352 H 0.11952 0.75327 0.53231 0.0
H353 H 0.06903 0.73313 0.51343 0.0
H354 H 0.08167 0.7462 0.56057 0.0
H355 H 0.07645 0.84384 0.50732 0.0
H356 H 0.04001 0.79389 0.52584 0.0
H357 H 0.05868 0.79056 0.48403 0.0
H358 H 0.96447 0.70956 0.59937 0.0
C359 C 0.02409 0.76374 0.59109 0.0
C360 C 0.86068 0.54211 0.72002 0.0
C361 C 0.8746 0.58657 0.73165 0.0
C362 C 0.9021 0.60563 0.76178 0.0
C363 C 0.9006 0.53561 0.76871 0.0
C364 C 0.87472 0.51769 0.73837 0.0
C365 C 0.86468 0.47084 0.72819 0.0
H366 H 0.89643 0.29936 0.75456 0.0
C367 C 0.90889 0.50106 0.7817 0.0
C368 C 0.88853 0.46345 0.75744 0.0
H369 H 0.8153 0.30439 0.67484 0.0
H370 H 0.83351 0.3788 0.69843 0.0
H371 H 0.97197 0.40541 0.75942 0.0
H372 H 0.86319 0.33004 0.8131 0.0
H373 H 0.89768 0.3715 0.84449 0.0
H374 H 0.90919 0.33065 0.82536 0.0
H375 H 0.96326 0.36117 0.78721 0.0
H376 H 0.98379 0.41759 0.80558 0.0
C377 C 0.88083 0.47049 0.69137 0.0
C378 C 0.81835 0.43948 0.72965 0.0
C379 C 0.98364 0.52252 0.90284 0.0
C380 C 0.99314 0.49411 0.92141 0.0
C381 C 0.98538 0.4536 0.90434 0.0
C382 C 0.96744 0.44063 0.86974 0.0
C383 C 0.95657 0.4682 0.85186 0.0
C384 C 0.96548 0.50894 0.86794 0.0
C385 C 0.95313 0.53429 0.84352 0.0
C386 C 0.93127 0.49981 0.81233 0.0
C387 C 0.93448 0.46178 0.8171 0.0
C388 C 0.99234 0.57479 0.8323 0.0
C389 C 0.92476 0.54723 0.86217 0.0
C390 C 0.88345 0.31715 0.74174 0.0
C391 C 0.8554 0.29715 0.71242 0.0
C392 C 0.83741 0.31986 0.69726 0.0
C393 C 0.8481 0.3629 0.711 0.0
C394 C 0.87648 0.38275 0.74049 0.0
C395 C 0.893 0.35943 0.75565 0.0
C396 C 0.9178 0.38243 0.78963 0.0
C397 C 0.91575 0.42491 0.79143 0.0
C398 C 0.89218 0.42532 0.76222 0.0
C399 C 0.96156 0.39208 0.78557 0.0
C400 C 0.89626 0.35231 0.81991 0.0
H401 H 0.9345 0.59572 0.8042 0.0
H402 H 0.83967 0.52682 0.69685 0.0
H403 H 0.80597 0.45227 0.75021 0.0
H404 H 0.81039 0.40581 0.73734 0.0
H405 H 0.80194 0.43643 0.70387 0.0
H406 H 0.91124 0.50049 0.68963 0.0
H407 H 0.86024 0.4707 0.66993 0.0
H408 H 0.88515 0.4418 0.68572 0.0
H409 H 0.98973 0.55414 0.91526 0.0
H410 H 0.99262 0.43145 0.91813 0.0
H411 H 0.96249 0.40936 0.85835 0.0
H412 H 0.01473 0.56472 0.82515 0.0
H413 H 0.00672 0.6013 0.85429 0.0
H414 H 0.98714 0.58921 0.80862 0.0
H415 H 0.90917 0.52475 0.88343 0.0
H416 H 0.90021 0.54453 0.84388 0.0
H417 H 0.94203 0.58195 0.87421 0.0
H418 H 0.91279 0.63982 0.77134 0.0
C419 C 0.91473 0.58016 0.7807 0.0
C420 C 0.64611 0.5262 0.72561 0.0
C421 C 0.67902 0.5661 0.74039 0.0
C422 C 0.67556 0.58491 0.77295 0.0
C423 C 0.60651 0.5239 0.77511 0.0
C424 C 0.61032 0.50616 0.74305 0.0
C425 C 0.57248 0.46437 0.72981 0.0
H426 H 0.37986 0.30859 0.74958 0.0
C427 C 0.56449 0.49514 0.78528 0.0
C428 C 0.54448 0.46103 0.75815 0.0
H429 H 0.46075 0.30789 0.67351 0.0
H430 H 0.51191 0.3822 0.69519 0.0
H431 H 0.43213 0.33224 0.80849 0.0
H432 H 0.41228 0.42352 0.75066 0.0
H433 H 0.41239 0.43568 0.79648 0.0
H434 H 0.3762 0.381 0.77652 0.0
H435 H 0.39553 0.34705 0.82117 0.0
H436 H 0.44767 0.37806 0.83894 0.0
C437 C 0.58164 0.42546 0.72949 0.0
C438 C 0.55819 0.47216 0.69324 0.0
C439 C 0.51942 0.51438 0.90706 0.0
C440 C 0.48153 0.49244 0.92194 0.0
C441 C 0.44716 0.46115 0.9004 0.0
C442 C 0.45051 0.45034 0.86511 0.0
C443 C 0.48868 0.471 0.85101 0.0
C444 C 0.52222 0.50353 0.87138 0.0
C445 C 0.55961 0.52392 0.85048 0.0
C446 C 0.54335 0.49601 0.81528 0.0
C447 C 0.50187 0.46458 0.81617 0.0
C448 C 0.59229 0.51674 0.86919 0.0
C449 C 0.57325 0.57363 0.84648 0.0
C450 C 0.40834 0.3253 0.73711 0.0
C451 C 0.41668 0.30319 0.70976 0.0
C452 C 0.45416 0.32472 0.69473 0.0
C453 C 0.48383 0.36767 0.70762 0.0
C454 C 0.47628 0.38851 0.7366 0.0
C455 C 0.43891 0.36759 0.75068 0.0
C456 C 0.43815 0.39228 0.78401 0.0
C457 C 0.48162 0.43087 0.78808 0.0
C458 C 0.50316 0.42885 0.7597 0.0
C459 C 0.4276 0.36097 0.81478 0.0
C460 C 0.40801 0.40893 0.77684 0.0
H461 H 0.63831 0.57918 0.81526 0.0
H462 H 0.6479 0.51103 0.70066 0.0
H463 H 0.56274 0.50643 0.69315 0.0
H464 H 0.52552 0.44967 0.68622 0.0
H465 H 0.57554 0.46839 0.67185 0.0
H466 H 0.6085 0.43347 0.74752 0.0
H467 H 0.58792 0.41764 0.70255 0.0
H468 H 0.55672 0.39473 0.73932 0.0
H469 H 0.5461 0.53945 0.92267 0.0
H470 H 0.41773 0.44391 0.91123 0.0
H471 H 0.42339 0.42557 0.85029 0.0
H472 H 0.57938 0.48116 0.87496 0.0
H473 H 0.60415 0.53731 0.8947 0.0
H474 H 0.61797 0.52502 0.8527 0.0
H475 H 0.54737 0.5797 0.84799 0.0
H476 H 0.58504 0.58463 0.82034 0.0
H477 H 0.59663 0.5956 0.8677 0.0
H478 H 0.7008 0.61581 0.78486 0.0
C479 C 0.63944 0.56384 0.79049 0.0
C480 C 0.64217 0.08526 0.71987 0.0
C481 C 0.67442 0.08162 0.73455 0.0
C482 C 0.66935 0.05908 0.76581 0.0
C483 C 0.60162 0.04819 0.76879 0.0
C484 C 0.60645 0.06868 0.73734 0.0
C485 C 0.5713 0.07429 0.72653 0.0
H486 H 0.41088 0.08784 0.77251 0.0
C487 C 0.56203 0.03863 0.78158 0.0
C488 C 0.54435 0.0539 0.75667 0.0
H489 H 0.4678 0.11764 0.67322 0.0
H490 H 0.50966 0.08741 0.69174 0.0
H491 H 0.3952 0.99927 0.77507 0.0
H492 H 0.5024 0.10901 0.83202 0.0
H493 H 0.46233 0.06994 0.8569 0.0
H494 H 0.45396 0.10419 0.8281 0.0
H495 H 0.39593 0.01436 0.8209 0.0
H496 H 0.41455 0.97778 0.80666 0.0
C497 C 0.55154 0.04708 0.6906 0.0
C498 C 0.58747 0.12517 0.72585 0.0
C499 C 0.52092 0.98176 0.90481 0.0
C500 C 0.48679 0.97328 0.92357 0.0
C501 C 0.45612 0.97866 0.90696 0.0
C502 C 0.45961 0.99372 0.87291 0.0
C503 C 0.49408 0.00343 0.8548 0.0
C504 C 0.52357 0.99612 0.87007 0.0
C505 C 0.55683 0.00617 0.84519 0.0
C506 C 0.54267 0.02166 0.81339 0.0
C507 C 0.50606 0.0203 0.8195 0.0
C508 C 0.55639 0.96231 0.8353 0.0
C509 C 0.59803 0.04362 0.86266 0.0
C510 C 0.43299 0.08856 0.75514 0.0
C511 C 0.43688 0.10604 0.72177 0.0
C512 C 0.46475 0.10494 0.69925 0.0
C513 C 0.489 0.08735 0.71007 0.0
C514 C 0.48606 0.07169 0.74409 0.0
C515 C 0.45785 0.07149 0.76572 0.0
C516 C 0.45643 0.04943 0.7995 0.0
C517 C 0.48904 0.03709 0.79469 0.0
C518 C 0.50755 0.05253 0.76304 0.0
C519 C 0.41337 0.0082 0.80087 0.0
C520 C 0.46931 0.08467 0.83102 0.0
H521 H 0.63121 0.027 0.80751 0.0
H522 H 0.64514 0.10221 0.69582 0.0
H523 H 0.60929 0.14377 0.74905 0.0
H524 H 0.56394 0.13442 0.72753 0.0
H525 H 0.60351 0.13833 0.7015 0.0
H526 H 0.55802 0.01941 0.68638 0.0
H527 H 0.56293 0.0685 0.668 0.0
H528 H 0.51801 0.03034 0.68928 0.0
H529 H 0.5451 0.97811 0.91703 0.0
H530 H 0.42983 0.97255 0.92096 0.0
H531 H 0.43551 0.99784 0.86229 0.0
H532 H 0.52501 0.93503 0.82717 0.0
H533 H 0.56777 0.95181 0.85829 0.0
H534 H 0.57484 0.96523 0.81276 0.0
H535 H 0.59405 0.0614 0.88587 0.0
H536 H 0.61526 0.0699 0.84446 0.0
H537 H 0.61734 0.02993 0.87162 0.0
H538 H 0.69384 0.05546 0.77739 0.0
C539 C 0.63311 0.04251 0.78316 0.0
C540 C 0.86984 0.56759 0.98917 0.0
C541 C 0.90449 0.57021 0.97583 0.0
C542 C 0.9203 0.59404 0.94572 0.0
C543 C 0.86478 0.60855 0.94057 0.0
C544 C 0.85066 0.58716 0.97122 0.0
C545 C 0.81294 0.58653 0.98133 0.0
H546 H 0.64915 0.60143 0.93672 0.0
C547 C 0.836 0.62199 0.92698 0.0
C548 C 0.80572 0.6094 0.9508 0.0
H549 H 0.68119 0.56059 0.03344 0.0
H550 H 0.74679 0.5833 1.01423 0.0
H551 H 0.74697 0.69695 0.93569 0.0
H552 H 0.69081 0.56532 0.88098 0.0
H553 H 0.71531 0.60798 0.85172 0.0
H554 H 0.67258 0.60332 0.87346 0.0
H555 H 0.70384 0.67714 0.90443 0.0
H556 H 0.75428 0.69972 0.88985 0.0
C557 C 0.82288 0.61452 1.01725 0.0
C558 C 0.77914 0.53689 0.9818 0.0
C559 C 0.85444 0.68441 0.80634 0.0
C560 C 0.83115 0.69517 0.7838 0.0
C561 C 0.79553 0.69232 0.79588 0.0
C562 C 0.78275 0.6776 0.82973 0.0
C563 C 0.80575 0.66534 0.85161 0.0
C564 C 0.84138 0.66975 0.83981 0.0
C565 C 0.86227 0.65521 0.86583 0.0
C566 C 0.83328 0.64068 0.8951 0.0
C567 C 0.79997 0.64657 0.88706 0.0
C568 C 0.9037 0.69651 0.87853 0.0
C569 C 0.86525 0.61585 0.84803 0.0
C570 C 0.67059 0.59751 0.95351 0.0
C571 C 0.65953 0.57779 0.98625 0.0
C572 C 0.68851 0.57466 1.00792 0.0
C573 C 0.72684 0.58792 0.99665 0.0
C574 C 0.73664 0.60418 0.96306 0.0
C575 C 0.70979 0.6109 0.94252 0.0
C576 C 0.72799 0.63168 0.90849 0.0
C577 C 0.76876 0.63329 0.9114 0.0
C578 C 0.77273 0.61626 0.94342 0.0
C579 C 0.73348 0.67888 0.90935 0.0
C580 C 0.70025 0.60065 0.87677 0.0
H581 H 0.91342 0.62965 0.90453 0.0
H582 H 0.85756 0.55017 1.0127 0.0
H583 H 0.78075 0.5166 0.95906 0.0
H584 H 0.74819 0.53151 0.97904 0.0
H585 H 0.78239 0.52249 1.00653 0.0
H586 H 0.85601 0.63777 0.02275 0.0
H587 H 0.81222 0.59278 0.03974 0.0
H588 H 0.8096 0.63653 1.01758 0.0
H589 H 0.88158 0.68562 0.7975 0.0
H590 H 0.77692 0.70011 0.7787 0.0
H591 H 0.75504 0.6753 0.8373 0.0
H592 H 0.90076 0.72666 0.88271 0.0
H593 H 0.92639 0.70367 0.85862 0.0
H594 H 0.91593 0.6929 0.90432 0.0
H595 H 0.84297 0.59922 0.82479 0.0
H596 H 0.85823 0.58886 0.86593 0.0
H597 H 0.89587 0.6275 0.83861 0.0
H598 H 0.94784 0.59756 0.93574 0.0
C599 C 0.90049 0.61295 0.92783 0.0
C600 C 0.46741 0.12389 0.9863 0.0
C601 C 0.45053 0.07817 0.97752 0.0
C602 C 0.41856 0.05705 0.95085 0.0
C603 C 0.4224 0.12774 0.94088 0.0
C604 C 0.4522 0.14756 0.96846 0.0
C605 C 0.4635 0.19495 0.97776 0.0
H606 H 0.42934 0.36522 0.95608 0.0
C607 C 0.41341 0.16197 0.92809 0.0
C608 C 0.43657 0.20084 0.9507 0.0
H609 H 0.5159 0.36176 0.03062 0.0
H610 H 0.49669 0.28726 1.00658 0.0
H611 H 0.45817 0.33684 0.89568 0.0
H612 H 0.35346 0.25806 0.95257 0.0
H613 H 0.34013 0.24853 0.90632 0.0
H614 H 0.36193 0.30405 0.92694 0.0
H615 H 0.40956 0.32883 0.88195 0.0
H616 H 0.42646 0.29139 0.86574 0.0
C617 C 0.50903 0.22543 0.97189 0.0
C618 C 0.4521 0.19802 1.01623 0.0
C619 C 0.33797 0.14157 0.8077 0.0
C620 C 0.33064 0.17121 0.78874 0.0
C621 C 0.33846 0.21168 0.80597 0.0
C622 C 0.35499 0.22361 0.84105 0.0
C623 C 0.36444 0.1951 0.85916 0.0
C624 C 0.35471 0.15413 0.84308 0.0
C625 C 0.36603 0.12806 0.86752 0.0
C626 C 0.38924 0.16263 0.89848 0.0
C627 C 0.38684 0.20122 0.89369 0.0
C628 C 0.39277 0.11383 0.84818 0.0
C629 C 0.32649 0.08833 0.87893 0.0
C630 C 0.44332 0.34774 0.96772 0.0
C631 C 0.47312 0.36819 0.99581 0.0
C632 C 0.49243 0.34596 1.00923 0.0
C633 C 0.48112 0.30284 0.99526 0.0
C634 C 0.45073 0.28239 0.96727 0.0
C635 C 0.43314 0.30537 0.95351 0.0
C636 C 0.40627 0.28181 0.92055 0.0
C637 C 0.40778 0.23897 0.91834 0.0
C638 C 0.43322 0.23917 0.94614 0.0
C639 C 0.42581 0.31103 0.88925 0.0
C640 C 0.36306 0.27267 0.92667 0.0
H641 H 0.3803 0.06388 0.91227 0.0
H642 H 0.49123 0.14064 1.00734 0.0
H643 H 0.42394 0.16701 0.02186 0.0
H644 H 0.44521 0.22493 0.02139 0.0
H645 H 0.47655 0.20262 0.03581 0.0
H646 H 0.51787 0.21219 0.94875 0.0
H647 H 0.52847 0.22772 0.99541 0.0
H648 H 0.51662 0.25942 0.96553 0.0
H649 H 0.33148 0.1099 0.79508 0.0
H650 H 0.33243 0.23457 0.79196 0.0
H651 H 0.36009 0.25483 0.85263 0.0
H652 H 0.41779 0.14298 0.83645 0.0
H653 H 0.37485 0.08774 0.82653 0.0
H654 H 0.4068 0.10046 0.86604 0.0
H655 H 0.30393 0.0987 0.88454 0.0
H656 H 0.33119 0.07528 0.90363 0.0
H657 H 0.31263 0.0608 0.8577 0.0
H658 H 0.40486 0.02163 0.94389 0.0
C659 C 0.40456 0.08163 0.93235 0.0
C660 C 0.68099 0.1395 0.98513 0.0
C661 C 0.64932 0.09769 0.97206 0.0
C662 C 0.65479 0.07608 0.9422 0.0
C663 C 0.72206 0.1395 0.93752 0.0
C664 C 0.71709 0.15913 0.96805 0.0
C665 C 0.75449 0.20175 0.98067 0.0
H666 H 0.94729 0.35806 0.96178 0.0
C667 C 0.76388 0.16877 0.92704 0.0
C668 C 0.78309 0.20432 0.95316 0.0
H669 H 0.86599 0.35831 0.03758 0.0
H670 H 0.81455 0.28444 1.0151 0.0
H671 H 0.91603 0.24406 0.95915 0.0
H672 H 0.89543 0.33558 0.90299 0.0
H673 H 0.8765 0.28889 0.87267 0.0
H674 H 0.92963 0.3186 0.88768 0.0
H675 H 0.95151 0.28791 0.93384 0.0
H676 H 0.91637 0.23339 0.91305 0.0
C677 C 0.76847 0.1959 1.01813 0.0
C678 C 0.7447 0.24005 0.97883 0.0
C679 C 0.80856 0.14943 0.80497 0.0
C680 C 0.84581 0.17308 0.78921 0.0
C681 C 0.87976 0.20654 0.80993 0.0
C682 C 0.87658 0.21752 0.84524 0.0
C683 C 0.83898 0.19499 0.86022 0.0
C684 C 0.80585 0.16076 0.84059 0.0
C685 C 0.7692 0.13869 0.8624 0.0
C686 C 0.7851 0.16794 0.89705 0.0
C687 C 0.82602 0.20096 0.89533 0.0
C688 C 0.75894 0.09018 0.86738 0.0
C689 C 0.73399 0.14175 0.84401 0.0
C690 C 0.91874 0.34123 0.97414 0.0
C691 C 0.91044 0.36302 1.00177 0.0
C692 C 0.8727 0.34155 1.0164 0.0
C693 C 0.84291 0.29883 1.00307 0.0
C694 C 0.85064 0.2781 0.97411 0.0
C695 C 0.88809 0.29916 0.96018 0.0
C696 C 0.88895 0.27479 0.92668 0.0
C697 C 0.84581 0.23543 0.92296 0.0
C698 C 0.82409 0.23736 0.95123 0.0
C699 C 0.92001 0.25927 0.93325 0.0
C700 C 0.89834 0.30594 0.89589 0.0
H701 H 0.69308 0.07959 0.90142 0.0
H702 H 0.6781 0.15641 1.00857 0.0
H703 H 0.71982 0.23182 0.95833 0.0
H704 H 0.77048 0.27141 0.97084 0.0
H705 H 0.73503 0.24671 1.00454 0.0
H706 H 0.76247 0.16125 1.02027 0.0
H707 H 0.75212 0.20257 0.03893 0.0
H708 H 0.80143 0.21725 0.02453 0.0
H709 H 0.78232 0.12256 0.79014 0.0
H710 H 0.90871 0.22507 0.79847 0.0
H711 H 0.90344 0.24361 0.85948 0.0
H712 H 0.78619 0.0866 0.86565 0.0
H713 H 0.7357 0.06646 0.84676 0.0
H714 H 0.74833 0.07953 0.89391 0.0
H715 H 0.74312 0.17718 0.84065 0.0
H716 H 0.70668 0.12722 0.85918 0.0
H717 H 0.72535 0.12389 0.81736 0.0
H718 H 0.63113 0.04289 0.93271 0.0
C719 C 0.69076 0.09708 0.92442 0.0
C720 C 0.52734 0.87544 0.05335 0.0
C721 C 0.54126 0.91991 0.06498 0.0
C722 C 0.56877 0.93896 0.09512 0.0
C723 C 0.56726 0.86895 0.10204 0.0
C724 C 0.54139 0.85103 0.0717 0.0
C725 C 0.53135 0.80418 0.06152 0.0
H726 H 0.56309 0.63269 0.0879 0.0
C727 C 0.57556 0.8344 0.11503 0.0
C728 C 0.5552 0.79678 0.09077 0.0
H729 H 0.48196 0.63773 1.00817 0.0
H730 H 0.50018 0.71214 0.03176 0.0
H731 H 0.63863 0.73874 0.09276 0.0
H732 H 0.52985 0.66337 0.14644 0.0
H733 H 0.56435 0.70484 0.17782 0.0
H734 H 0.57585 0.66397 0.15869 0.0
H735 H 0.62992 0.6945 0.12055 0.0
H736 H 0.65045 0.75092 0.13892 0.0
C737 C 0.5475 0.80382 0.0247 0.0
C738 C 0.48501 0.77282 0.06298 0.0
C739 C 0.6503 0.85585 0.23617 0.0
C740 C 0.6598 0.82745 0.25474 0.0
C741 C 0.65204 0.78693 0.23767 0.0
C742 C 0.63411 0.77396 0.20307 0.0
C743 C 0.62324 0.80153 0.18519 0.0
C744 C 0.63214 0.84227 0.20127 0.0
C745 C 0.61979 0.86762 0.17685 0.0
C746 C 0.59793 0.83315 0.14567 0.0
C747 C 0.60114 0.79512 0.15043 0.0
C748 C 0.65901 0.90812 0.16564 0.0
C749 C 0.59143 0.88057 0.19551 0.0
C750 C 0.55012 0.65048 0.07508 0.0
C751 C 0.52207 0.63048 0.04575 0.0
C752 C 0.50408 0.6532 0.03059 0.0
C753 C 0.51476 0.69623 0.04433 0.0
C754 C 0.54315 0.71608 0.07382 0.0
C755 C 0.55966 0.69276 0.08899 0.0
C756 C 0.58447 0.71576 0.12297 0.0
C757 C 0.58241 0.75825 0.12477 0.0
C758 C 0.55885 0.75866 0.09556 0.0
C759 C 0.62822 0.72541 0.11891 0.0
C760 C 0.56292 0.68564 0.15324 0.0
H761 H 0.60117 0.92906 0.13754 0.0
H762 H 0.50633 0.86016 0.03018 0.0
H763 H 0.47263 0.78561 0.08355 0.0
H764 H 0.47705 0.73915 0.07067 0.0
H765 H 0.46861 0.76977 0.0372 0.0
H766 H 0.57791 0.83383 0.02297 0.0
H767 H 0.5269 0.80404 1.00326 0.0
H768 H 0.55182 0.77514 1.01906 0.0
H769 H 0.6564 0.88747 0.24859 0.0
H770 H 0.65928 0.76478 0.25146 0.0
H771 H 0.62915 0.74269 0.19169 0.0
H772 H 0.6814 0.89805 0.15849 0.0
H773 H 0.67338 0.93463 0.18762 0.0
H774 H 0.6538 0.92254 0.14196 0.0
H775 H 0.57584 0.85808 0.21676 0.0
H776 H 0.56688 0.87787 0.17722 0.0
H777 H 0.6087 0.91528 0.20755 0.0
H778 H 0.57945 0.97316 0.10467 0.0
C779 C 0.58139 0.9135 0.11404 0.0
C780 C 0.31278 0.85954 0.05894 0.0
C781 C 0.34569 0.89943 0.07372 0.0
C782 C 0.34223 0.91825 0.10629 0.0
C783 C 0.27317 0.85723 0.10844 0.0
C784 C 0.27699 0.83949 0.07638 0.0
C785 C 0.23915 0.79771 0.06314 0.0
H786 H 0.04652 0.64192 0.08291 0.0
C787 C 0.23116 0.82847 0.11862 0.0
C788 C 0.21114 0.79436 0.09149 0.0
H789 H 0.12742 0.64122 1.00684 0.0
H790 H 0.17858 0.71554 0.02853 0.0
H791 H 0.0988 0.66558 0.14183 0.0
H792 H 0.07894 0.75685 0.08399 0.0
H793 H 0.07906 0.76901 0.12982 0.0
H794 H 0.04286 0.71433 0.10985 0.0
H795 H 0.06219 0.68037 0.1545 0.0
H796 H 0.11434 0.7114 0.17227 0.0
C797 C 0.24831 0.75879 0.06282 0.0
C798 C 0.22486 0.8055 0.02657 0.0
C799 C 0.18608 0.84771 0.24039 0.0
C800 C 0.1482 0.82577 0.25528 0.0
C801 C 0.11382 0.79448 0.23373 0.0
C802 C 0.11718 0.78367 0.19845 0.0
C803 C 0.15535 0.80433 0.18434 0.0
C804 C 0.18888 0.83686 0.20472 0.0
C805 C 0.22627 0.85725 0.18381 0.0
C806 C 0.21002 0.82935 0.14861 0.0
C807 C 0.16854 0.79791 0.1495 0.0
C808 C 0.25896 0.85007 0.20253 0.0
C809 C 0.23991 0.90696 0.17982 0.0
C810 C 0.075 0.65864 0.07044 0.0
C811 C 0.08334 0.63653 0.0431 0.0
C812 C 0.12083 0.65805 0.02806 0.0
C813 C 0.1505 0.701 0.04096 0.0
C814 C 0.14294 0.72185 0.06994 0.0
C815 C 0.10557 0.70093 0.08401 0.0
C816 C 0.10482 0.72561 0.11735 0.0
C817 C 0.14828 0.76421 0.12142 0.0
C818 C 0.16982 0.76219 0.09303 0.0
C819 C 0.09426 0.6943 0.14812 0.0
C820 C 0.07468 0.74226 0.11018 0.0
H821 H 0.30498 0.91251 0.14859 0.0
H822 H 0.31456 0.84437 0.034 0.0
H823 H 0.2294 0.83977 0.02649 0.0
H824 H 0.19218 0.78301 1.01955 0.0
H825 H 0.24221 0.80173 1.00518 0.0
H826 H 0.27517 0.76681 0.08085 0.0
H827 H 0.25458 0.75098 0.03588 0.0
H828 H 0.22338 0.72807 0.07265 0.0
H829 H 0.21277 0.87278 0.256 0.0
H830 H 0.08439 0.77724 0.24457 0.0
H831 H 0.09005 0.7589 0.18363 0.0
H832 H 0.24605 0.81449 0.2083 0.0
H833 H 0.27082 0.87064 0.22803 0.0
H834 H 0.28464 0.85835 0.18604 0.0
H835 H 0.21404 0.91303 0.18133 0.0
H836 H 0.2517 0.91796 0.15368 0.0
H837 H 0.26329 0.92893 0.20104 0.0
H838 H 0.36747 0.94915 0.1182 0.0
C839 C 0.30611 0.89718 0.12383 0.0
C840 C 0.30884 0.41859 0.0532 0.0
C841 C 0.34108 0.41496 0.06788 0.0
C842 C 0.33602 0.39241 0.09914 0.0
C843 C 0.26828 0.38152 0.10212 0.0
C844 C 0.27311 0.40201 0.07067 0.0
C845 C 0.23797 0.40762 0.05986 0.0
H846 H 0.07755 0.42118 0.10584 0.0
C847 C 0.22869 0.37196 0.11491 0.0
C848 C 0.21101 0.38723 0.09 0.0
H849 H 0.13446 0.45097 1.00655 0.0
H850 H 0.17632 0.42074 0.02507 0.0
H851 H 0.06187 0.33261 0.10841 0.0
H852 H 0.16907 0.44234 0.16535 0.0
H853 H 0.129 0.40328 0.19023 0.0
H854 H 0.12063 0.43752 0.16144 0.0
H855 H 0.0626 0.3477 0.15424 0.0
H856 H 0.08122 0.31112 0.13999 0.0
C857 C 0.2182 0.38041 0.02394 0.0
C858 C 0.25414 0.45851 0.05918 0.0
C859 C 0.18758 0.3151 0.23814 0.0
C860 C 0.15346 0.30661 0.2569 0.0
C861 C 0.12279 0.31199 0.24029 0.0
C862 C 0.12628 0.32705 0.20624 0.0
C863 C 0.16075 0.33676 0.18813 0.0
C864 C 0.19024 0.32945 0.2034 0.0
C865 C 0.2235 0.3395 0.17852 0.0
C866 C 0.20934 0.355 0.14672 0.0
C867 C 0.17272 0.35363 0.15284 0.0
C868 C 0.22305 0.29564 0.16863 0.0
C869 C 0.2647 0.37695 0.19599 0.0
C870 C 0.09966 0.4219 0.08847 0.0
C871 C 0.10355 0.43938 0.0551 0.0
C872 C 0.13142 0.43827 0.03258 0.0
C873 C 0.15566 0.42068 0.0434 0.0
C874 C 0.15273 0.40502 0.07742 0.0
C875 C 0.12451 0.40483 0.09905 0.0
C876 C 0.1231 0.38276 0.13284 0.0
C877 C 0.15571 0.37042 0.12802 0.0
C878 C 0.17422 0.38586 0.09638 0.0
C879 C 0.08004 0.34153 0.1342 0.0
C880 C 0.13598 0.41801 0.16436 0.0
H881 H 0.29788 0.36033 0.14084 0.0
H882 H 0.31181 0.43554 0.02916 0.0
H883 H 0.27595 0.4771 0.08238 0.0
H884 H 0.2306 0.46775 0.06086 0.0
H885 H 0.27018 0.47167 0.03484 0.0
H886 H 0.22469 0.35275 1.01971 0.0
H887 H 0.2296 0.40183 1.00133 0.0
H888 H 0.18468 0.36367 0.02261 0.0
H889 H 0.21176 0.31144 0.25036 0.0
H890 H 0.0965 0.30588 0.25429 0.0
H891 H 0.10217 0.33117 0.19562 0.0
H892 H 0.19167 0.26837 0.1605 0.0
H893 H 0.23444 0.28514 0.19162 0.0
H894 H 0.24151 0.29856 0.14609 0.0
H895 H 0.26072 0.39473 0.2192 0.0
H896 H 0.28193 0.40324 0.17779 0.0
H897 H 0.28401 0.36326 0.20495 0.0
H898 H 0.3605 0.38879 0.11072 0.0
C899 C 0.29978 0.37584 0.11649 0.0
C900 C 0.53651 0.90092 0.32251 0.0
C901 C 0.57116 0.90354 0.30916 0.0
C902 C 0.58697 0.92737 0.27905 0.0
C903 C 0.53145 0.94189 0.27391 0.0
C904 C 0.51733 0.92049 0.30455 0.0
C905 C 0.4796 0.91987 0.31467 0.0
H906 H 0.31581 0.93476 0.27005 0.0
C907 C 0.50267 0.95533 0.26032 0.0
C908 C 0.47239 0.94274 0.28413 0.0
H909 H 0.34786 0.89392 0.36677 0.0
H910 H 0.41346 0.91663 0.34756 0.0
H911 H 0.41364 0.03028 0.26903 0.0
H912 H 0.35748 0.89866 0.21432 0.0
H913 H 0.38198 0.94131 0.18505 0.0
H914 H 0.33924 0.93666 0.20679 0.0
H915 H 0.3705 0.01047 0.23776 0.0
H916 H 0.42094 0.03306 0.22318 0.0
C917 C 0.48954 0.94786 0.35059 0.0
C918 C 0.44581 0.87023 0.31514 0.0
C919 C 0.52111 0.01775 0.13968 0.0
C920 C 0.49782 0.02851 0.11714 0.0
C921 C 0.4622 0.02565 0.12922 0.0
C922 C 0.44942 0.01093 0.16307 0.0
C923 C 0.47242 0.99868 0.18494 0.0
C924 C 0.50805 0.00309 0.17314 0.0
C925 C 0.52894 0.98854 0.19917 0.0
C926 C 0.49995 0.97401 0.22843 0.0
C927 C 0.46664 0.9799 0.22039 0.0
C928 C 0.57037 0.02985 0.21187 0.0
C929 C 0.53192 0.94918 0.18137 0.0
C930 C 0.33725 0.93084 0.28684 0.0
C931 C 0.32619 0.91112 0.31958 0.0
C932 C 0.35518 0.90799 0.34125 0.0
C933 C 0.39351 0.92125 0.32999 0.0
C934 C 0.40331 0.93751 0.2964 0.0
C935 C 0.37646 0.94424 0.27586 0.0
C936 C 0.39465 0.96501 0.24183 0.0
C937 C 0.43543 0.96662 0.24473 0.0
C938 C 0.4394 0.94959 0.27676 0.0
C939 C 0.40014 0.01221 0.24268 0.0
C940 C 0.36692 0.93398 0.2101 0.0
H941 H 0.58008 0.96299 0.23787 0.0
H942 H 0.52423 0.8835 0.34604 0.0
H943 H 0.44742 0.84993 0.2924 0.0
H944 H 0.41485 0.86485 0.31237 0.0
H945 H 0.44906 0.85583 0.33986 0.0
H946 H 0.52268 0.9711 0.35609 0.0
H947 H 0.47889 0.92612 0.37307 0.0
H948 H 0.47626 0.96986 0.35092 0.0
H949 H 0.54825 0.01896 0.13083 0.0
H950 H 0.44358 0.03345 0.11204 0.0
H951 H 0.42171 0.00863 0.17064 0.0
H952 H 0.56743 0.06 0.21604 0.0
H953 H 0.59306 0.037 0.19196 0.0
H954 H 0.5826 0.02624 0.23766 0.0
H955 H 0.50964 0.93256 0.15812 0.0
H956 H 0.5249 0.92219 0.19926 0.0
H957 H 0.56254 0.96083 0.17195 0.0
H958 H 0.6145 0.93089 0.26908 0.0
C959 C 0.56716 0.94629 0.26117 0.0
C960 C 0.13408 0.45722 0.31963 0.0
C961 C 0.11719 0.4115 0.31085 0.0
C962 C 0.08523 0.39038 0.28418 0.0
C963 C 0.08907 0.46106 0.27421 0.0
C964 C 0.11886 0.48089 0.30179 0.0
C965 C 0.13016 0.52828 0.3111 0.0
H966 H 0.09601 0.69855 0.28942 0.0
C967 C 0.08007 0.4953 0.26142 0.0
C968 C 0.10323 0.53417 0.28403 0.0
H969 H 0.18257 0.69509 0.36395 0.0
H970 H 0.16335 0.62058 0.33991 0.0
H971 H 0.12484 0.67017 0.22902 0.0
H972 H 0.02013 0.59138 0.2859 0.0
H973 H 0.00679 0.58186 0.23965 0.0
H974 H 0.02859 0.63738 0.26028 0.0
H975 H 0.07622 0.66216 0.21528 0.0
H976 H 0.09313 0.62472 0.19907 0.0
C977 C 0.1757 0.55876 0.30522 0.0
C978 C 0.11876 0.53135 0.34957 0.0
C979 C 0.00464 0.4749 0.14103 0.0
C980 C 0.9973 0.50454 0.12207 0.0
C981 C 0.00512 0.54501 0.13931 0.0
C982 C 0.02165 0.55694 0.17439 0.0
C983 C 0.0311 0.52843 0.19249 0.0
C984 C 0.02138 0.48746 0.17641 0.0
C985 C 0.0327 0.46139 0.20085 0.0
C986 C 0.0559 0.49596 0.23182 0.0
C987 C 0.05351 0.53455 0.22702 0.0
C988 C 0.05943 0.44717 0.18151 0.0
C989 C 0.99316 0.42166 0.21226 0.0
C990 C 0.10998 0.68107 0.30106 0.0
C991 C 0.13978 0.70152 0.32914 0.0
C992 C 0.1591 0.67929 0.34256 0.0
C993 C 0.14778 0.63617 0.3286 0.0
C994 C 0.11739 0.61572 0.3006 0.0
C995 C 0.0998 0.6387 0.28685 0.0
C996 C 0.07293 0.61514 0.25388 0.0
C997 C 0.07444 0.5723 0.25167 0.0
C998 C 0.09989 0.5725 0.27947 0.0
C999 C 0.09248 0.64435 0.22258 0.0
C1000 C 0.02972 0.606 0.26 0.0
H1001 H 0.04696 0.39721 0.2456 0.0
H1002 H 0.15789 0.47397 0.34067 0.0
H1003 H 0.09061 0.50033 0.3552 0.0
H1004 H 0.11187 0.55825 0.35473 0.0
H1005 H 0.14322 0.53595 0.36914 0.0
H1006 H 0.18453 0.54552 0.28208 0.0
H1007 H 0.19514 0.56105 0.32874 0.0
H1008 H 0.18329 0.59275 0.29886 0.0
H1009 H -0.00185 0.44323 0.12841 0.0
H1010 H -0.00091 0.5679 0.12529 0.0
H1011 H 0.02675 0.58816 0.18597 0.0
H1012 H 0.08445 0.47632 0.16978 0.0
H1013 H 0.04151 0.42107 0.15986 0.0
H1014 H 0.07346 0.43379 0.19937 0.0
H1015 H 0.97059 0.43203 0.21787 0.0
H1016 H 0.99785 0.4086 0.23697 0.0
H1017 H 0.97929 0.39413 0.19103 0.0
H1018 H 0.07153 0.35496 0.27722 0.0
C1019 C 0.07123 0.41495 0.26568 0.0
C1020 C 0.34766 0.47283 0.31846 0.0
C1021 C 0.31599 0.43102 0.30539 0.0
C1022 C 0.32146 0.40941 0.27553 0.0
C1023 C 0.38872 0.47283 0.27085 0.0
C1024 C 0.38376 0.49246 0.30138 0.0
C1025 C 0.42115 0.53508 0.314 0.0
H1026 H 0.61395 0.69139 0.29512 0.0
C1027 C 0.43055 0.50211 0.26037 0.0
C1028 C 0.44975 0.53765 0.28649 0.0
H1029 H 0.53266 0.69164 0.37091 0.0
H1030 H 0.48122 0.61777 0.34843 0.0
H1031 H 0.5827 0.57739 0.29248 0.0
H1032 H 0.5621 0.66891 0.23633 0.0
H1033 H 0.54317 0.62222 0.206 0.0
H1034 H 0.59629 0.65193 0.22101 0.0
H1035 H 0.61818 0.62124 0.26717 0.0
H1036 H 0.58303 0.56672 0.24639 0.0
C1037 C 0.43514 0.52923 0.35147 0.0
C1038 C 0.41136 0.57338 0.31217 0.0
C1039 C 0.47523 0.48276 0.1383 0.0
C1040 C 0.51248 0.50642 0.12255 0.0
C1041 C 0.54643 0.53988 0.14327 0.0
C1042 C 0.54325 0.55086 0.17858 0.0
C1043 C 0.50565 0.52833 0.19355 0.0
C1044 C 0.47251 0.4941 0.17392 0.0
C1045 C 0.43586 0.47203 0.19573 0.0
C1046 C 0.45176 0.50127 0.23038 0.0
C1047 C 0.49268 0.5343 0.22867 0.0
C1048 C 0.42561 0.42351 0.20071 0.0
C1049 C 0.40065 0.47508 0.17734 0.0
C1050 C 0.58541 0.67456 0.30748 0.0
C1051 C 0.57711 0.69635 0.33511 0.0
C1052 C 0.53937 0.67489 0.34973 0.0
C1053 C 0.50957 0.63217 0.3364 0.0
C1054 C 0.5173 0.61143 0.30744 0.0
C1055 C 0.55475 0.63249 0.29351 0.0
C1056 C 0.55562 0.60813 0.26002 0.0
C1057 C 0.51248 0.56877 0.2563 0.0
C1058 C 0.49076 0.57069 0.28457 0.0
C1059 C 0.58667 0.59261 0.26659 0.0
C1060 C 0.56501 0.63927 0.22923 0.0
H1061 H 0.35975 0.41292 0.23475 0.0
H1062 H 0.34477 0.48974 0.3419 0.0
H1063 H 0.38648 0.56516 0.29166 0.0
H1064 H 0.43715 0.60474 0.30417 0.0
H1065 H 0.4017 0.58004 0.33788 0.0
H1066 H 0.42914 0.49459 0.35361 0.0
H1067 H 0.41878 0.5359 0.37226 0.0
H1068 H 0.46809 0.55059 0.35787 0.0
H1069 H 0.44899 0.4559 0.12347 0.0
H1070 H 0.57538 0.55841 0.1318 0.0
H1071 H 0.5701 0.57694 0.19281 0.0
H1072 H 0.45285 0.41994 0.19898 0.0
H1073 H 0.40236 0.39979 0.18009 0.0
H1074 H 0.415 0.41287 0.22724 0.0
H1075 H 0.40979 0.51051 0.17398 0.0
H1076 H 0.37334 0.46056 0.19251 0.0
H1077 H 0.39201 0.45723 0.1507 0.0
H1078 H 0.2978 0.37622 0.26604 0.0
C1079 C 0.35743 0.43041 0.25775 0.0
Tb1080 Tb 0.54011 0.03848 1.01906 0.0
C1081 C 0.52534 0.94552 0.0472 0.0
Tb1082 Tb 0.45279 0.96053 0.02376 0.0
O1083 O 0.53812 0.0719 0.06923 0.0
O1084 O 0.50246 0.00368 0.05882 0.0
O1085 O 0.55159 0.98636 0.03813 0.0
C1086 C 0.38329 0.92111 0.05512 0.0
O1087 O 0.48543 0.92891 0.04513 0.0
C1088 C 0.48427 0.96485 0.96166 0.0
C1089 C 0.4669 0.05292 0.99533 0.0
O1090 O 0.39159 0.90377 0.02774 0.0
O1091 O 0.41365 0.96053 0.06408 0.0
O1092 O 0.45431 0.92849 0.97273 0.0
O1093 O 0.49025 0.99579 0.98395 0.0
O1094 O 0.44083 0.0126 1.00552 0.0
O1095 O 0.50684 0.0691 0.99647 0.0
C1096 C 0.61084 0.07676 0.98951 0.0
O1097 O 0.60152 0.09506 1.01552 0.0
O1098 O 0.58049 0.03726 0.98047 0.0
C1099 C 0.50773 0.03552 0.07972 0.0
Tb1100 Tb 0.96311 0.5102 0.02097 0.0
C1101 C 0.05464 0.58965 0.03309 0.0
Tb1102 Tb 0.03066 0.48946 0.02209 0.0
O1103 O 0.94713 0.48947 0.07442 0.0
O1104 O 0.00608 0.51407 0.06018 0.0
O1105 O 0.01587 0.57733 0.02796 0.0
C1106 C 0.07819 0.45793 0.04351 0.0
O1107 O 0.0677 0.56084 0.03473 0.0
C1108 C 0.00918 0.50443 0.95894 0.0
C1109 C 0.93907 0.40995 1.01183 0.0
O1110 O 0.07923 0.47481 1.01333 0.0
O1111 O 0.05071 0.4592 0.06166 0.0
O1112 O 0.04517 0.5115 0.96832 0.0
O1113 O 0.98693 0.48473 0.98346 0.0
O1114 O 0.97771 0.42219 1.01861 0.0
O1115 O 0.92632 0.43886 1.0081 0.0
C1116 C 0.92426 0.54795 0.99241 0.0
O1117 O 0.91399 0.52571 0.02074 0.0
O1118 O 0.95537 0.5479 0.98029 0.0
C1119 C 0.98252 0.4949 0.08427 0.0
Tb1120 Tb 0.45276 0.48142 0.02474 0.0
C1121 C 0.48417 0.4132 1.00949 0.0
Tb1122 Tb 0.54248 0.51692 1.01973 0.0
O1123 O 0.44517 0.49865 0.97113 0.0
O1124 O 0.49051 0.48466 0.98381 0.0
O1125 O 0.45418 0.41928 1.01907 0.0
C1126 C 0.61803 0.55806 0.99822 0.0
O1127 O 0.52077 0.44684 1.00437 0.0
C1128 C 0.51641 0.4985 0.08445 0.0
C1129 C 0.51102 0.58522 0.03284 0.0
O1130 O 0.60638 0.5365 0.02662 0.0
O1131 O 0.58695 0.55641 0.98164 0.0
O1132 O 0.54796 0.49795 0.07346 0.0
O1133 O 0.5046 0.51423 0.06044 0.0
O1134 O 0.54083 0.57904 0.02281 0.0
O1135 O 0.47484 0.55173 0.03936 0.0
C1136 C 0.38031 0.43714 0.05159 0.0
O1137 O 0.38855 0.46182 0.02475 0.0
O1138 O 0.41283 0.43765 0.06322 0.0
C1139 C 0.47737 0.49953 0.96004 0.0
Tb1140 Tb 0.20678 0.37181 0.35239 0.0
C1141 C 0.19201 0.27885 0.38053 0.0
Tb1142 Tb 0.11946 0.29386 0.35709 0.0
O1143 O 0.20478 0.40523 0.40257 0.0
O1144 O 0.16912 0.33701 0.39215 0.0
O1145 O 0.21825 0.31969 0.37146 0.0
C1146 C 0.04995 0.25444 0.38845 0.0
O1147 O 0.1521 0.26224 0.37846 0.0
C1148 C 0.15093 0.29818 0.29499 0.0
C1149 C 0.13357 0.38625 0.32867 0.0
O1150 O 0.05825 0.2371 0.36107 0.0
O1151 O 0.08031 0.29386 0.39742 0.0
O1152 O 0.12097 0.26182 0.30606 0.0
O1153 O 0.15691 0.32912 0.31728 0.0
O1154 O 0.10749 0.34592 0.33885 0.0
O1155 O 0.17351 0.40243 0.3298 0.0
C1156 C 0.27751 0.41009 0.32284 0.0
O1157 O 0.26819 0.42839 0.34885 0.0
O1158 O 0.24716 0.37059 0.3138 0.0
C1159 C 0.17439 0.36885 0.41305 0.0
Tb1160 Tb 0.62977 0.84354 0.3543 0.0
C1161 C 0.72131 0.92298 0.36643 0.0
Tb1162 Tb 0.69733 0.82279 0.35542 0.0
O1163 O 0.6138 0.82281 0.40776 0.0
O1164 O 0.67275 0.84741 0.39351 0.0
O1165 O 0.68253 0.91066 0.3613 0.0
C1166 C 0.74485 0.79126 0.37684 0.0
O1167 O 0.73436 0.89417 0.36807 0.0
C1168 C 0.67584 0.83776 0.29227 0.0
C1169 C 0.60573 0.74328 0.34516 0.0
O1170 O 0.7459 0.80814 0.34667 0.0
O1171 O 0.71738 0.79254 0.39499 0.0
O1172 O 0.71183 0.84483 0.30165 0.0
O1173 O 0.65359 0.81806 0.3168 0.0
O1174 O 0.64437 0.75552 0.35194 0.0
O1175 O 0.59299 0.77219 0.34143 0.0
C1176 C 0.59093 0.88129 0.32574 0.0
O1177 O 0.58065 0.85904 0.35407 0.0
O1178 O 0.62204 0.88123 0.31362 0.0
C1179 C 0.64918 0.82823 0.41761 0.0
Tb1180 Tb 0.11942 0.81475 0.35808 0.0
C1181 C 0.15083 0.74653 0.34282 0.0
Tb1182 Tb 0.20914 0.85025 0.35306 0.0
O1183 O 0.11184 0.83198 0.30446 0.0
O1184 O 0.15717 0.81799 0.31714 0.0
O1185 O 0.12084 0.75261 0.35241 0.0
C1186 C 0.2847 0.89138 0.33156 0.0
O1187 O 0.18744 0.78017 0.3377 0.0
C1188 C 0.18308 0.83183 0.41779 0.0
C1189 C 0.17769 0.91855 0.36618 0.0
O1190 O 0.27305 0.86983 0.35995 0.0
O1191 O 0.25361 0.88974 0.31497 0.0
O1192 O 0.21462 0.83128 0.4068 0.0
O1193 O 0.17127 0.84756 0.39378 0.0
O1194 O 0.2075 0.91237 0.35614 0.0
O1195 O 0.14151 0.88506 0.37269 0.0
C1196 C 0.04697 0.77047 0.38492 0.0
O1197 O 0.05521 0.79515 0.35808 0.0
O1198 O 0.0795 0.77098 0.39655 0.0
C1199 C 0.14404 0.83286 0.29338 0.0
Tb1200 Tb 0.87344 0.70515 0.68572 0.0
C1201 C 0.85867 0.61219 0.71387 0.0
Tb1202 Tb 0.78612 0.62719 0.69042 0.0
O1203 O 0.87145 0.73857 0.7359 0.0
O1204 O 0.83579 0.67035 0.72548 0.0
O1205 O 0.88492 0.65302 0.7048 0.0
C1206 C 0.71662 0.58777 0.72179 0.0
O1207 O 0.81876 0.59558 0.7118 0.0
C1208 C 0.8176 0.63151 0.62833 0.0
C1209 C 0.80023 0.71958 0.662 0.0
O1210 O 0.72492 0.57043 0.6944 0.0
O1211 O 0.74698 0.62719 0.73075 0.0
O1212 O 0.78764 0.59515 0.63939 0.0
O1213 O 0.82358 0.66246 0.65061 0.0
O1214 O 0.77416 0.67926 0.67218 0.0
O1215 O 0.84018 0.73576 0.66313 0.0
C1216 C 0.94418 0.74342 0.65617 0.0
O1217 O 0.93486 0.76172 0.68219 0.0
O1218 O 0.91382 0.70392 0.64714 0.0
C1219 C 0.84106 0.70219 0.74638 0.0
Tb1220 Tb 0.29644 0.17687 0.68763 0.0
C1221 C 0.38797 0.25631 0.69976 0.0
Tb1222 Tb 0.36399 0.15613 0.68875 0.0
O1223 O 0.28047 0.15614 0.74109 0.0
O1224 O 0.33942 0.18074 0.72685 0.0
O1225 O 0.3492 0.244 0.69463 0.0
C1226 C 0.41152 0.12459 0.71017 0.0
O1227 O 0.40103 0.2275 0.7014 0.0
C1228 C 0.34251 0.1711 0.6256 0.0
C1229 C 0.2724 0.07661 0.67849 0.0
O1230 O 0.41257 0.14147 0.68 0.0
O1231 O 0.38404 0.12587 0.72832 0.0
O1232 O 0.3785 0.17817 0.63498 0.0
O1233 O 0.32026 0.15139 0.65013 0.0
O1234 O 0.31104 0.08885 0.68527 0.0
O1235 O 0.25966 0.10553 0.67476 0.0
C1236 C 0.2576 0.21462 0.65907 0.0
O1237 O 0.24732 0.19237 0.68741 0.0
O1238 O 0.28871 0.21456 0.64696 0.0
C1239 C 0.31585 0.16157 0.75094 0.0
Tb1240 Tb 0.78609 0.14808 0.69141 0.0
C1241 C 0.8175 0.07987 0.67615 0.0
Tb1242 Tb 0.87581 0.18358 0.6864 0.0
O1243 O 0.7785 0.16531 0.6378 0.0
O1244 O 0.82384 0.15132 0.65047 0.0
O1245 O 0.78751 0.08594 0.68574 0.0
C1246 C 0.95136 0.22472 0.66489 0.0
O1247 O 0.85411 0.1135 0.67103 0.0
C1248 C 0.84975 0.16516 0.75112 0.0
C1249 C 0.84435 0.25188 0.69951 0.0
O1250 O 0.93972 0.20316 0.69328 0.0
O1251 O 0.92028 0.22308 0.64831 0.0
O1252 O 0.88129 0.16461 0.74013 0.0
O1253 O 0.83794 0.18089 0.72711 0.0
O1254 O 0.87417 0.24571 0.68948 0.0
O1255 O 0.80818 0.2184 0.70603 0.0
C1256 C 0.71364 0.1038 0.71825 0.0
O1257 O 0.72188 0.12848 0.69141 0.0
O1258 O 0.74616 0.10431 0.72989 0.0
C1259 C 0.81071 0.16619 0.62671 0.0
loop_
_geom_bond_atom_site_label_1
_geom_bond_atom_site_label_2
_geom_bond_distance
_geom_bond_site_symmetry_2
_ccdc_geom_bond_type
C0 C1 1.391 . S
C0 C4 1.391 . S
C0 H42 0.948 . S
C1 C0 1.391 . S
C1 C2 1.391 . S
C2 C1 1.391 . S
C2 H58 0.947 . S
C2 C59 1.392 . S
C3 C4 1.391 . S
C3 C7 1.397 . S
C3 C59 1.419 . S
C4 C0 1.391 . S
C4 C3 1.391 . S
C4 C5 1.399 . S
C5 C4 1.399 . S
C5 C8 1.396 . S
C5 C17 1.453 . S
C5 C18 1.684 . S
H6 C30 0.948 . S
C7 C3 1.397 . S
C7 C8 1.394 . S
C7 C26 1.723 . S
C8 C5 1.396 . S
C8 C7 1.394 . S
C8 C38 1.723 . S
H9 C32 0.947 1_565 S
H10 C33 0.948 . S
H11 C39 0.982 . S
H12 C40 0.979 . S
H13 C40 0.980 . S
H14 C40 0.983 1_565 S
H15 C39 0.979 . S
H16 C39 0.977 . S
C17 C5 1.453 . S
C17 H46 0.982 . S
C17 H47 0.979 . S
C17 H48 0.977 . S
C18 C5 1.684 . S
C18 H43 0.979 . S
C18 H44 0.980 . S
C18 H45 0.983 . S
C19 C20 1.391 . S
C19 C24 1.391 . S
C19 H49 0.948 . S
C20 C19 1.391 . S
C20 C21 1.391 . S
C21 C20 1.391 . S
C21 C22 1.392 . S
C21 H50 0.947 . S
C22 C21 1.392 . S
C22 C23 1.419 . S
C22 H51 0.948 . S
C23 C22 1.419 . S
C23 C24 1.391 . S
C23 C27 1.397 . S
C24 C19 1.391 . S
C24 C23 1.391 . S
C24 C25 1.399 . S
C25 C24 1.399 . S
C25 C26 1.396 . S
C25 C28 1.453 . S
C25 C29 1.684 . S
C26 C7 1.723 . S
C26 C25 1.396 . S
C26 C27 1.394 . S
C27 C23 1.397 . S
C27 C26 1.394 . S
C27 C37 1.723 . S
C28 C25 1.453 . S
C28 H52 0.982 . S
C28 H53 0.979 . S
C28 H54 0.977 . S
C29 C25 1.684 . S
C29 H55 0.979 . S
C29 H56 0.980 . S
C29 H57 0.983 . S
C30 H6 0.948 . S
C30 C31 1.391 . S
C30 C35 1.391 1_565 S
C31 C30 1.391 . S
C31 C32 1.391 1_565 S
C32 H9 0.947 1_545 S
C32 C31 1.391 1_545 S
C32 C33 1.392 . S
C33 H10 0.948 . S
C33 C32 1.392 . S
C33 C34 1.419 . S
C34 C33 1.419 . S
C34 C35 1.391 . S
C34 C38 1.397 . S
C35 C30 1.391 1_545 S
C35 C34 1.391 . S
C35 C36 1.399 . S
C36 C35 1.399 . S
C36 C37 1.396 . S
C36 C39 1.453 . S
C36 C40 1.684 . S
C37 C27 1.723 . S
C37 C36 1.396 . S
C37 C38 1.394 . S
C38 C8 1.723 . S
C38 C34 1.397 . S
C38 C37 1.394 . S
C39 H11 0.982 . S
C39 H15 0.979 . S
C39 H16 0.977 . S
C39 C36 1.453 . S
C40 H12 0.979 . S
C40 H13 0.980 . S
C40 H14 0.983 1_545 S
C40 C36 1.684 . S
H41 C59 0.948 . S
H42 C0 0.948 . S
H43 C18 0.979 . S
H44 C18 0.980 . S
H45 C18 0.983 . S
H46 C17 0.982 . S
H47 C17 0.979 . S
H48 C17 0.977 . S
H49 C19 0.948 . S
H50 C21 0.947 . S
H51 C22 0.948 . S
H52 C28 0.982 . S
H53 C28 0.979 . S
H54 C28 0.977 . S
H55 C29 0.979 . S
H56 C29 0.980 . S
H57 C29 0.983 . S
H58 C2 0.947 . S
C59 C2 1.392 . S
C59 C3 1.419 . S
C59 H41 0.948 . S
C60 C61 1.391 1_655 S
C60 C64 1.391 . S
C60 H102 0.948 . S
C61 C60 1.391 1_455 S
C61 C62 1.391 . S
C62 C61 1.391 . S
C62 H118 0.947 . S
C62 C119 1.392 1_455 S
C63 C64 1.391 . S
C63 C67 1.397 . S
C63 C119 1.419 . S
C64 C60 1.391 . S
C64 C63 1.391 . S
C64 C65 1.399 . S
C65 C64 1.399 . S
C65 C68 1.396 . S
C65 C77 1.453 . S
C65 C78 1.684 . S
H66 C90 0.948 . S
C67 C63 1.397 . S
C67 C68 1.394 . S
C67 C86 1.723 . S
C68 C65 1.396 . S
C68 C67 1.394 . S
C68 C98 1.723 . S
H69 C92 0.947 1_565 S
H70 C93 0.948 . S
H71 C99 0.982 . S
H72 C100 0.979 . S
H73 C100 0.980 . S
H74 C100 0.983 . S
H75 C99 0.979 . S
H76 C99 0.977 . S
C77 C65 1.453 . S
C77 H106 0.982 . S
C77 H107 0.979 . S
C77 H108 0.977 . S
C78 C65 1.684 . S
C78 H103 0.979 . S
C78 H104 0.980 . S
C78 H105 0.983 . S
C79 C80 1.391 . S
C79 C84 1.391 . S
C79 H109 0.948 . S
C80 C79 1.391 . S
C80 C81 1.391 . S
C81 C80 1.391 . S
C81 C82 1.392 . S
C81 H110 0.947 . S
C82 C81 1.392 . S
C82 C83 1.419 . S
C82 H111 0.948 . S
C83 C82 1.419 . S
C83 C84 1.391 . S
C83 C87 1.397 . S
C84 C79 1.391 . S
C84 C83 1.391 . S
C84 C85 1.399 . S
C85 C84 1.399 . S
C85 C86 1.396 . S
C85 C88 1.453 . S
C85 C89 1.684 . S
C86 C67 1.723 . S
C86 C85 1.396 . S
C86 C87 1.394 . S
C87 C83 1.397 . S
C87 C86 1.394 . S
C87 C97 1.723 . S
C88 C85 1.453 . S
C88 H112 0.982 . S
C88 H113 0.979 . S
C88 H114 0.977 . S
C89 C85 1.684 . S
C89 H115 0.979 . S
C89 H116 0.980 . S
C89 H117 0.983 . S
C90 H66 0.948 . S
C90 C91 1.391 . S
C90 C95 1.391 1_565 S
C91 C90 1.391 . S
C91 C92 1.391 1_565 S
C92 H69 0.947 1_545 S
C92 C91 1.391 1_545 S
C92 C93 1.392 . S
C93 H70 0.948 . S
C93 C92 1.392 . S
C93 C94 1.419 . S
C94 C93 1.419 . S
C94 C95 1.391 . S
C94 C98 1.397 . S
C95 C90 1.391 1_545 S
C95 C94 1.391 . S
C95 C96 1.399 . S
C96 C95 1.399 . S
C96 C97 1.396 . S
C96 C99 1.453 . S
C96 C100 1.684 . S
C97 C87 1.723 . S
C97 C96 1.396 . S
C97 C98 1.394 . S
C98 C68 1.723 . S
C98 C94 1.397 . S
C98 C97 1.394 . S
C99 H71 0.982 . S
C99 H75 0.979 . S
C99 H76 0.977 . S
C99 C96 1.453 . S
C100 H72 0.979 . S
C100 H73 0.980 . S
C100 H74 0.983 . S
C100 C96 1.684 . S
H101 C119 0.948 . S
H102 C60 0.948 . S
H103 C78 0.979 . S
H104 C78 0.980 . S
H105 C78 0.983 . S
H106 C77 0.982 . S
H107 C77 0.979 . S
H108 C77 0.977 . S
H109 C79 0.948 . S
H110 C81 0.947 . S
H111 C82 0.948 . S
H112 C88 0.982 . S
H113 C88 0.979 . S
H114 C88 0.977 . S
H115 C89 0.979 . S
H116 C89 0.980 . S
H117 C89 0.983 . S
H118 C62 0.947 . S
C119 C62 1.392 1_655 S
C119 C63 1.419 . S
C119 H101 0.948 . S
C120 C121 1.391 1_655 S
C120 C124 1.391 . S
C120 H162 0.948 . S
C121 C120 1.391 1_455 S
C121 C122 1.391 . S
C122 C121 1.391 . S
C122 H178 0.947 . S
C122 C179 1.392 1_455 S
C123 C124 1.391 . S
C123 C127 1.397 . S
C123 C179 1.419 . S
C124 C120 1.391 . S
C124 C123 1.391 . S
C124 C125 1.399 . S
C125 C124 1.399 . S
C125 C128 1.396 . S
C125 C137 1.453 . S
C125 C138 1.684 . S
H126 C150 0.948 . S
C127 C123 1.397 . S
C127 C128 1.394 . S
C127 C146 1.723 . S
C128 C125 1.396 . S
C128 C127 1.394 . S
C128 C158 1.723 . S
H129 C152 0.947 . S
H130 C153 0.948 . S
H131 C159 0.982 . S
H132 C160 0.979 . S
H133 C160 0.980 . S
H134 C160 0.983 . S
H135 C159 0.979 . S
H136 C159 0.977 . S
C137 C125 1.453 . S
C137 H166 0.982 . S
C137 H167 0.979 . S
C137 H168 0.977 . S
C138 C125 1.684 . S
C138 H163 0.979 . S
C138 H164 0.980 . S
C138 H165 0.983 . S
C139 C140 1.391 . S
C139 C144 1.391 . S
C139 H169 0.948 . S
C140 C139 1.391 . S
C140 C141 1.391 . S
C141 C140 1.391 . S
C141 C142 1.392 . S
C141 H170 0.947 . S
C142 C141 1.392 . S
C142 C143 1.419 . S
C142 H171 0.948 . S
C143 C142 1.419 . S
C143 C144 1.391 . S
C143 C147 1.397 . S
C144 C139 1.391 . S
C144 C143 1.391 . S
C144 C145 1.399 . S
C145 C144 1.399 . S
C145 C146 1.396 . S
C145 C148 1.453 . S
C145 C149 1.684 . S
C146 C127 1.723 . S
C146 C145 1.396 . S
C146 C147 1.394 . S
C147 C143 1.397 . S
C147 C146 1.394 . S
C147 C157 1.723 . S
C148 C145 1.453 . S
C148 H172 0.982 . S
C148 H173 0.979 . S
C148 H174 0.977 . S
C149 C145 1.684 . S
C149 H175 0.979 . S
C149 H176 0.980 . S
C149 H177 0.983 . S
C150 H126 0.948 . S
C150 C151 1.391 . S
C150 C155 1.391 . S
C151 C150 1.391 . S
C151 C152 1.391 . S
C152 H129 0.947 . S
C152 C151 1.391 . S
C152 C153 1.392 . S
C153 H130 0.948 . S
C153 C152 1.392 . S
C153 C154 1.419 . S
C154 C153 1.419 . S
C154 C155 1.391 . S
C154 C158 1.397 . S
C155 C150 1.391 . S
C155 C154 1.391 . S
C155 C156 1.399 . S
C156 C155 1.399 . S
C156 C157 1.396 . S
C156 C159 1.453 . S
C156 C160 1.684 . S
C157 C147 1.723 . S
C157 C156 1.396 . S
C157 C158 1.394 . S
C158 C128 1.723 . S
C158 C154 1.397 . S
C158 C157 1.394 . S
C159 H131 0.982 . S
C159 H135 0.979 . S
C159 H136 0.977 . S
C159 C156 1.453 . S
C160 H132 0.979 . S
C160 H133 0.980 . S
C160 H134 0.983 . S
C160 C156 1.684 . S
H161 C179 0.948 . S
H162 C120 0.948 . S
H163 C138 0.979 . S
H164 C138 0.980 . S
H165 C138 0.983 . S
H166 C137 0.982 . S
H167 C137 0.979 . S
H168 C137 0.977 . S
H169 C139 0.948 . S
H170 C141 0.947 . S
H171 C142 0.948 . S
H172 C148 0.982 . S
H173 C148 0.979 . S
H174 C148 0.977 . S
H175 C149 0.979 . S
H176 C149 0.980 . S
H177 C149 0.983 . S
H178 C122 0.947 . S
C179 C122 1.392 1_655 S
C179 C123 1.419 . S
C179 H161 0.948 . S
C180 C181 1.391 . S
C180 C184 1.391 . S
C180 H222 0.948 . S
C181 C180 1.391 . S
C181 C182 1.391 . S
C182 C181 1.391 . S
C182 H238 0.947 . S
C182 C239 1.392 . S
C183 C184 1.391 . S
C183 C187 1.397 . S
C183 C239 1.419 . S
C184 C180 1.391 . S
C184 C183 1.391 . S
C184 C185 1.399 . S
C185 C184 1.399 . S
C185 C188 1.396 . S
C185 C197 1.453 . S
C185 C198 1.684 . S
H186 C210 0.948 . S
C187 C183 1.397 . S
C187 C188 1.394 . S
C187 C206 1.723 . S
C188 C185 1.396 . S
C188 C187 1.394 . S
C188 C218 1.723 . S
H189 C212 0.947 . S
H190 C213 0.948 . S
H191 C219 0.982 . S
H192 C220 0.974 . S
H193 C220 0.980 . S
H194 C220 0.983 1_655 S
H195 C219 0.979 . S
H196 C219 0.977 . S
C197 C185 1.453 . S
C197 H226 0.982 . S
C197 H227 0.979 . S
C197 H228 0.977 . S
C198 C185 1.684 . S
C198 H223 0.979 . S
C198 H224 0.980 . S
C198 H225 0.983 . S
C199 C200 1.391 . S
C199 C204 1.391 . S
C199 H229 0.948 . S
C200 C199 1.391 . S
C200 C201 1.391 . S
C201 C200 1.391 . S
C201 C202 1.392 . S
C201 H230 0.947 . S
C202 C201 1.392 . S
C202 C203 1.419 . S
C202 H231 0.948 . S
C203 C202 1.419 . S
C203 C204 1.391 . S
C203 C207 1.397 . S
C204 C199 1.391 . S
C204 C203 1.391 . S
C204 C205 1.399 . S
C205 C204 1.399 . S
C205 C206 1.396 . S
C205 C208 1.453 . S
C205 C209 1.684 . S
C206 C187 1.723 . S
C206 C205 1.396 . S
C206 C207 1.394 . S
C207 C203 1.397 . S
C207 C206 1.394 . S
C207 C217 1.723 . S
C208 C205 1.453 . S
C208 H232 0.982 . S
C208 H233 0.979 . S
C208 H234 0.977 . S
C209 C205 1.684 . S
C209 H235 0.979 . S
C209 H236 0.980 . S
C209 H237 0.983 . S
C210 H186 0.948 . S
C210 C211 1.391 . S
C210 C215 1.391 1_655 S
C211 C210 1.391 . S
C211 C212 1.391 1_655 S
C212 H189 0.947 . S
C212 C211 1.391 1_455 S
C212 C213 1.392 . S
C213 H190 0.948 . S
C213 C212 1.392 . S
C213 C214 1.419 . S
C214 C213 1.419 . S
C214 C215 1.391 . S
C214 C218 1.397 . S
C215 C210 1.391 1_455 S
C215 C214 1.391 . S
C215 C216 1.399 . S
C216 C215 1.399 . S
C216 C217 1.396 . S
C216 C219 1.453 . S
C216 C220 1.684 . S
C217 C207 1.723 . S
C217 C216 1.396 . S
C217 C218 1.394 . S
C218 C188 1.723 . S
C218 C214 1.397 . S
C218 C217 1.394 . S
C219 H191 0.982 . S
C219 H195 0.979 . S
C219 H196 0.977 . S
C219 C216 1.453 . S
C220 H192 0.974 . S
C220 H193 0.980 . S
C220 H194 0.983 1_455 S
C220 C216 1.684 . S
H221 C239 0.948 . S
H222 C180 0.948 . S
H223 C198 0.979 . S
H224 C198 0.980 . S
H225 C198 0.983 . S
H226 C197 0.982 . S
H227 C197 0.979 . S
H228 C197 0.977 . S
H229 C199 0.948 . S
H230 C201 0.947 . S
H231 C202 0.948 . S
H232 C208 0.982 . S
H233 C208 0.979 . S
H234 C208 0.977 . S
H235 C209 0.979 . S
H236 C209 0.980 . S
H237 C209 0.983 . S
H238 C182 0.947 . S
C239 C182 1.392 . S
C239 C183 1.419 . S
C239 H221 0.948 . S
C240 C241 1.391 . S
C240 C244 1.391 . S
C240 H282 0.948 . S
C241 C240 1.391 . S
C241 C242 1.391 . S
C242 C241 1.391 . S
C242 H298 0.947 . S
C242 C299 1.392 . S
C243 C244 1.391 . S
C243 C247 1.397 . S
C243 C299 1.419 . S
C244 C240 1.391 . S
C244 C243 1.391 . S
C244 C245 1.399 . S
C245 C244 1.399 . S
C245 C248 1.396 . S
C245 C257 1.453 . S
C245 C258 1.684 . S
H246 C270 0.948 . S
C247 C243 1.397 . S
C247 C248 1.394 . S
C247 C266 1.723 . S
C248 C245 1.396 . S
C248 C247 1.394 . S
C248 C278 1.723 . S
H249 C272 0.946 1_545 S
H250 C273 0.948 . S
H251 C279 0.982 . S
H252 C280 0.979 . S
H253 C280 0.980 . S
H254 C280 0.983 . S
H255 C279 0.979 . S
H256 C279 0.977 . S
C257 C245 1.453 . S
C257 H286 0.982 . S
C257 H287 0.979 . S
C257 H288 0.977 . S
C258 C245 1.684 . S
C258 H283 0.979 . S
C258 H284 0.980 . S
C258 H285 0.983 . S
C259 C260 1.391 . S
C259 C264 1.391 . S
C259 H289 0.948 . S
C260 C259 1.391 . S
C260 C261 1.391 . S
C261 C260 1.391 . S
C261 C262 1.392 . S
C261 H290 0.947 . S
C262 C261 1.392 . S
C262 C263 1.419 . S
C262 H291 0.948 . S
C263 C262 1.419 . S
C263 C264 1.391 . S
C263 C267 1.397 . S
C264 C259 1.391 . S
C264 C263 1.391 . S
C264 C265 1.399 . S
C265 C264 1.399 . S
C265 C266 1.396 . S
C265 C268 1.453 . S
C265 C269 1.684 . S
C266 C247 1.723 . S
C266 C265 1.396 . S
C266 C267 1.394 . S
C267 C263 1.397 . S
C267 C266 1.394 . S
C267 C277 1.723 . S
C268 C265 1.453 . S
C268 H292 0.982 . S
C268 H293 0.979 . S
C268 H294 0.977 . S
C269 C265 1.684 . S
C269 H295 0.979 . S
C269 H296 0.980 . S
C269 H297 0.983 . S
C270 H246 0.948 . S
C270 C271 1.391 . S
C270 C275 1.391 1_545 S
C271 C270 1.391 . S
C271 C272 1.391 1_545 S
C272 H249 0.946 1_565 S
C272 C271 1.391 1_565 S
C272 C273 1.392 . S
C273 H250 0.948 . S
C273 C272 1.392 . S
C273 C274 1.419 . S
C274 C273 1.419 . S
C274 C275 1.391 . S
C274 C278 1.397 . S
C275 C270 1.391 1_565 S
C275 C274 1.391 . S
C275 C276 1.399 . S
C276 C275 1.399 . S
C276 C277 1.396 . S
C276 C279 1.453 . S
C276 C280 1.684 . S
C277 C267 1.723 . S
C277 C276 1.396 . S
C277 C278 1.394 . S
C278 C248 1.723 . S
C278 C274 1.397 . S
C278 C277 1.394 . S
C279 H251 0.982 . S
C279 H255 0.979 . S
C279 H256 0.977 . S
C279 C276 1.453 . S
C280 H252 0.979 . S
C280 H253 0.980 . S
C280 H254 0.983 . S
C280 C276 1.684 . S
H281 C299 0.948 . S
H282 C240 0.948 . S
H283 C258 0.979 . S
H284 C258 0.980 . S
H285 C258 0.983 . S
H286 C257 0.982 . S
H287 C257 0.979 . S
H288 C257 0.977 . S
H289 C259 0.948 . S
H290 C261 0.947 . S
H291 C262 0.948 . S
H292 C268 0.982 . S
H293 C268 0.979 . S
H294 C268 0.977 . S
H295 C269 0.979 . S
H296 C269 0.980 . S
H297 C269 0.983 . S
H298 C242 0.947 . S
C299 C242 1.392 . S
C299 C243 1.419 . S
C299 H281 0.948 . S
C300 C301 1.391 1_455 S
C300 C304 1.391 . S
C300 H342 0.948 . S
C301 C300 1.391 1_655 S
C301 C302 1.391 . S
C302 C301 1.391 . S
C302 H358 0.947 . S
C302 C359 1.392 1_655 S
C303 C304 1.391 . S
C303 C307 1.397 . S
C303 C359 1.419 . S
C304 C300 1.391 . S
C304 C303 1.391 . S
C304 C305 1.399 . S
C305 C304 1.399 . S
C305 C308 1.396 . S
C305 C317 1.453 . S
C305 C318 1.684 . S
H306 C330 0.948 . S
C307 C303 1.397 . S
C307 C308 1.394 . S
C307 C326 1.723 . S
C308 C305 1.396 . S
C308 C307 1.394 . S
C308 C338 1.723 . S
H309 C332 0.947 . S
H310 C333 0.948 . S
H311 C339 0.982 . S
H312 C340 0.979 . S
H313 C340 0.980 . S
H314 C340 0.983 1_545 S
H315 C339 0.979 . S
H316 C339 0.977 . S
C317 C305 1.453 . S
C317 H346 0.982 . S
C317 H347 0.979 . S
C317 H348 0.977 . S
C318 C305 1.684 . S
C318 H343 0.979 . S
C318 H344 0.980 . S
C318 H345 0.983 . S
C319 C320 1.391 . S
C319 C324 1.391 . S
C319 H349 0.948 . S
C320 C319 1.391 . S
C320 C321 1.391 . S
C321 C320 1.391 . S
C321 C322 1.392 . S
C321 H350 0.947 . S
C322 C321 1.392 . S
C322 C323 1.419 . S
C322 H351 0.948 . S
C323 C322 1.419 . S
C323 C324 1.391 . S
C323 C327 1.397 . S
C324 C319 1.391 . S
C324 C323 1.391 . S
C324 C325 1.399 . S
C325 C324 1.399 . S
C325 C326 1.396 . S
C325 C328 1.453 . S
C325 C329 1.684 . S
C326 C307 1.723 . S
C326 C325 1.396 . S
C326 C327 1.394 . S
C327 C323 1.397 . S
C327 C326 1.394 . S
C327 C337 1.723 . S
C328 C325 1.453 . S
C328 H352 0.982 . S
C328 H353 0.979 . S
C328 H354 0.977 . S
C329 C325 1.684 . S
C329 H355 0.979 . S
C329 H356 0.980 . S
C329 H357 0.983 . S
C330 H306 0.948 . S
C330 C331 1.391 . S
C330 C335 1.391 1_545 S
C331 C330 1.391 . S
C331 C332 1.391 . S
C332 H309 0.947 . S
C332 C331 1.391 . S
C332 C333 1.392 1_545 S
C333 H310 0.948 . S
C333 C332 1.392 1_565 S
C333 C334 1.419 . S
C334 C333 1.419 . S
C334 C335 1.391 . S
C334 C338 1.397 . S
C335 C330 1.391 1_565 S
C335 C334 1.391 . S
C335 C336 1.399 . S
C336 C335 1.399 . S
C336 C337 1.396 . S
C336 C339 1.453 . S
C336 C340 1.684 . S
C337 C327 1.723 . S
C337 C336 1.396 . S
C337 C338 1.394 . S
C338 C308 1.723 . S
C338 C334 1.397 . S
C338 C337 1.394 . S
C339 H311 0.982 . S
C339 H315 0.979 . S
C339 H316 0.977 . S
C339 C336 1.453 . S
C340 H312 0.979 . S
C340 H313 0.980 . S
C340 H314 0.983 1_565 S
C340 C336 1.684 . S
H341 C359 0.948 . S
H342 C300 0.948 . S
H343 C318 0.979 . S
H344 C318 0.980 . S
H345 C318 0.983 . S
H346 C317 0.982 . S
H347 C317 0.979 . S
H348 C317 0.977 . S
H349 C319 0.948 . S
H350 C321 0.947 . S
H351 C322 0.948 . S
H352 C328 0.982 . S
H353 C328 0.979 . S
H354 C328 0.977 . S
H355 C329 0.979 . S
H356 C329 0.980 . S
H357 C329 0.983 . S
H358 C302 0.947 . S
C359 C302 1.392 1_455 S
C359 C303 1.419 . S
C359 H341 0.948 . S
C360 C361 1.391 . S
C360 C364 1.391 . S
C360 H402 0.948 . S
C361 C360 1.391 . S
C361 C362 1.391 . S
C362 C361 1.391 . S
C362 H418 0.947 . S
C362 C419 1.392 . S
C363 C364 1.391 . S
C363 C367 1.397 . S
C363 C419 1.419 . S
C364 C360 1.391 . S
C364 C363 1.391 . S
C364 C365 1.399 . S
C365 C364 1.399 . S
C365 C368 1.396 . S
C365 C377 1.453 . S
C365 C378 1.684 . S
H366 C390 0.948 . S
C367 C363 1.397 . S
C367 C368 1.394 . S
C367 C386 1.723 . S
C368 C365 1.396 . S
C368 C367 1.394 . S
C368 C398 1.723 . S
H369 C392 0.947 . S
H370 C393 0.948 . S
H371 C399 0.982 . S
H372 C400 0.979 . S
H373 C400 0.980 . S
H374 C400 0.983 . S
H375 C399 0.979 . S
H376 C399 0.977 . S
C377 C365 1.453 . S
C377 H406 0.982 . S
C377 H407 0.979 . S
C377 H408 0.977 . S
C378 C365 1.684 . S
C378 H403 0.979 . S
C378 H404 0.980 . S
C378 H405 0.983 . S
C379 C380 1.391 . S
C379 C384 1.391 . S
C379 H409 0.948 . S
C380 C379 1.391 . S
C380 C381 1.391 . S
C381 C380 1.391 . S
C381 C382 1.392 . S
C381 H410 0.947 . S
C382 C381 1.392 . S
C382 C383 1.419 . S
C382 H411 0.948 . S
C383 C382 1.419 . S
C383 C384 1.391 . S
C383 C387 1.397 . S
C384 C379 1.391 . S
C384 C383 1.391 . S
C384 C385 1.399 . S
C385 C384 1.399 . S
C385 C386 1.396 . S
C385 C388 1.453 . S
C385 C389 1.684 . S
C386 C367 1.723 . S
C386 C385 1.396 . S
C386 C387 1.394 . S
C387 C383 1.397 . S
C387 C386 1.394 . S
C387 C397 1.723 . S
C388 C385 1.453 . S
C388 H412 0.982 1_655 S
C388 H413 0.979 . S
C388 H414 0.977 . S
C389 C385 1.684 . S
C389 H415 0.979 . S
C389 H416 0.980 . S
C389 H417 0.983 . S
C390 H366 0.948 . S
C390 C391 1.391 . S
C390 C395 1.391 . S
C391 C390 1.391 . S
C391 C392 1.391 . S
C392 H369 0.947 . S
C392 C391 1.391 . S
C392 C393 1.392 . S
C393 H370 0.948 . S
C393 C392 1.392 . S
C393 C394 1.419 . S
C394 C393 1.419 . S
C394 C395 1.391 . S
C394 C398 1.397 . S
C395 C390 1.391 . S
C395 C394 1.391 . S
C395 C396 1.399 . S
C396 C395 1.399 . S
C396 C397 1.396 . S
C396 C399 1.453 . S
C396 C400 1.684 . S
C397 C387 1.723 . S
C397 C396 1.396 . S
C397 C398 1.394 . S
C398 C368 1.723 . S
C398 C394 1.397 . S
C398 C397 1.394 . S
C399 H371 0.982 . S
C399 H375 0.979 . S
C399 H376 0.977 . S
C399 C396 1.453 . S
C400 H372 0.979 . S
C400 H373 0.980 . S
C400 H374 0.983 . S
C400 C396 1.684 . S
H401 C419 0.948 . S
H402 C360 0.948 . S
H403 C378 0.979 . S
H404 C378 0.980 . S
H405 C378 0.983 . S
H406 C377 0.982 . S
H407 C377 0.979 . S
H408 C377 0.977 . S
H409 C379 0.948 . S
H410 C381 0.947 . S
H411 C382 0.948 . S
H412 C388 0.982 1_455 S
H413 C388 0.979 . S
H414 C388 0.977 . S
H415 C389 0.979 . S
H416 C389 0.980 . S
H417 C389 0.983 . S
H418 C362 0.947 . S
C419 C362 1.392 . S
C419 C363 1.419 . S
C419 H401 0.948 . S
C420 C421 1.391 . S
C420 C424 1.391 . S
C420 H462 0.948 . S
C421 C420 1.391 . S
C421 C422 1.391 . S
C422 C421 1.391 . S
C422 H478 0.947 . S
C422 C479 1.392 . S
C423 C424 1.391 . S
C423 C427 1.397 . S
C423 C479 1.419 . S
C424 C420 1.391 . S
C424 C423 1.391 . S
C424 C425 1.399 . S
C425 C424 1.399 . S
C425 C428 1.396 . S
C425 C437 1.453 . S
C425 C438 1.684 . S
H426 C450 0.948 . S
C427 C423 1.397 . S
C427 C428 1.394 . S
C427 C446 1.723 . S
C428 C425 1.396 . S
C428 C427 1.394 . S
C428 C458 1.723 . S
H429 C452 0.947 . S
H430 C453 0.948 . S
H431 C459 0.982 . S
H432 C460 0.979 . S
H433 C460 0.980 . S
H434 C460 0.983 . S
H435 C459 0.979 . S
H436 C459 0.977 . S
C437 C425 1.453 . S
C437 H466 0.982 . S
C437 H467 0.979 . S
C437 H468 0.977 . S
C438 C425 1.684 . S
C438 H463 0.979 . S
C438 H464 0.980 . S
C438 H465 0.983 . S
C439 C440 1.391 . S
C439 C444 1.391 . S
C439 H469 0.948 . S
C440 C439 1.391 . S
C440 C441 1.391 . S
C441 C440 1.391 . S
C441 C442 1.392 . S
C441 H470 0.947 . S
C442 C441 1.392 . S
C442 C443 1.419 . S
C442 H471 0.948 . S
C443 C442 1.419 . S
C443 C444 1.391 . S
C443 C447 1.397 . S
C444 C439 1.391 . S
C444 C443 1.391 . S
C444 C445 1.399 . S
C445 C444 1.399 . S
C445 C446 1.396 . S
C445 C448 1.453 . S
C445 C449 1.684 . S
C446 C427 1.723 . S
C446 C445 1.396 . S
C446 C447 1.394 . S
C447 C443 1.397 . S
C447 C446 1.394 . S
C447 C457 1.723 . S
C448 C445 1.453 . S
C448 H472 0.982 . S
C448 H473 0.979 . S
C448 H474 0.977 . S
C449 C445 1.684 . S
C449 H475 0.979 . S
C449 H476 0.980 . S
C449 H477 0.983 . S
C450 H426 0.948 . S
C450 C451 1.391 . S
C450 C455 1.391 . S
C451 C450 1.391 . S
C451 C452 1.391 . S
C452 H429 0.947 . S
C452 C451 1.391 . S
C452 C453 1.392 . S
C453 H430 0.948 . S
C453 C452 1.392 . S
C453 C454 1.419 . S
C454 C453 1.419 . S
C454 C455 1.391 . S
C454 C458 1.397 . S
C455 C450 1.391 . S
C455 C454 1.391 . S
C455 C456 1.399 . S
C456 C455 1.399 . S
C456 C457 1.396 . S
C456 C459 1.453 . S
C456 C460 1.684 . S
C457 C447 1.723 . S
C457 C456 1.396 . S
C457 C458 1.394 . S
C458 C428 1.723 . S
C458 C454 1.397 . S
C458 C457 1.394 . S
C459 H431 0.982 . S
C459 H435 0.979 . S
C459 H436 0.977 . S
C459 C456 1.453 . S
C460 H432 0.979 . S
C460 H433 0.980 . S
C460 H434 0.983 . S
C460 C456 1.684 . S
H461 C479 0.948 . S
H462 C420 0.948 . S
H463 C438 0.979 . S
H464 C438 0.980 . S
H465 C438 0.983 . S
H466 C437 0.982 . S
H467 C437 0.979 . S
H468 C437 0.977 . S
H469 C439 0.948 . S
H470 C441 0.947 . S
H471 C442 0.948 . S
H472 C448 0.982 . S
H473 C448 0.979 . S
H474 C448 0.977 . S
H475 C449 0.979 . S
H476 C449 0.980 . S
H477 C449 0.983 . S
H478 C422 0.947 . S
C479 C422 1.392 . S
C479 C423 1.419 . S
C479 H461 0.948 . S
C480 C481 1.391 . S
C480 C484 1.391 . S
C480 H522 0.948 . S
C481 C480 1.391 . S
C481 C482 1.391 . S
C482 C481 1.391 . S
C482 H538 0.947 . S
C482 C539 1.392 . S
C483 C484 1.391 . S
C483 C487 1.397 . S
C483 C539 1.419 . S
C484 C480 1.391 . S
C484 C483 1.391 . S
C484 C485 1.399 . S
C485 C484 1.399 . S
C485 C488 1.396 . S
C485 C497 1.453 . S
C485 C498 1.684 . S
H486 C510 0.948 . S
C487 C483 1.397 . S
C487 C488 1.394 . S
C487 C506 1.723 . S
C488 C485 1.396 . S
C488 C487 1.394 . S
C488 C518 1.723 . S
H489 C512 0.947 . S
H490 C513 0.948 . S
H491 C519 0.984 1_565 S
H492 C520 0.979 . S
H493 C520 0.980 . S
H494 C520 0.983 . S
H495 C519 0.979 . S
H496 C519 0.977 . S
C497 C485 1.453 . S
C497 H526 0.982 . S
C497 H527 0.979 . S
C497 H528 0.977 . S
C498 C485 1.684 . S
C498 H523 0.979 . S
C498 H524 0.980 . S
C498 H525 0.983 . S
C499 C500 1.391 . S
C499 C504 1.391 . S
C499 H529 0.948 . S
C500 C499 1.391 . S
C500 C501 1.391 . S
C501 C500 1.391 . S
C501 C502 1.392 . S
C501 H530 0.947 . S
C502 C501 1.392 . S
C502 C503 1.419 . S
C502 H531 0.948 . S
C503 C502 1.419 . S
C503 C504 1.391 . S
C503 C507 1.397 . S
C504 C499 1.391 . S
C504 C503 1.391 . S
C504 C505 1.399 . S
C505 C504 1.399 . S
C505 C506 1.396 . S
C505 C508 1.453 . S
C505 C509 1.684 . S
C506 C487 1.723 . S
C506 C505 1.396 . S
C506 C507 1.394 . S
C507 C503 1.397 . S
C507 C506 1.394 . S
C507 C517 1.723 . S
C508 C505 1.453 . S
C508 H532 0.982 1_545 S
C508 H533 0.979 1_545 S
C508 H534 0.977 . S
C509 C505 1.684 . S
C509 H535 0.979 . S
C509 H536 0.980 . S
C509 H537 0.983 . S
C510 H486 0.948 . S
C510 C511 1.391 . S
C510 C515 1.391 . S
C511 C510 1.391 . S
C511 C512 1.391 . S
C512 H489 0.947 . S
C512 C511 1.391 . S
C512 C513 1.392 . S
C513 H490 0.948 . S
C513 C512 1.392 . S
C513 C514 1.419 . S
C514 C513 1.419 . S
C514 C515 1.391 . S
C514 C518 1.397 . S
C515 C510 1.391 . S
C515 C514 1.391 . S
C515 C516 1.399 . S
C516 C515 1.399 . S
C516 C517 1.396 . S
C516 C519 1.453 . S
C516 C520 1.684 . S
C517 C507 1.723 . S
C517 C516 1.396 . S
C517 C518 1.394 . S
C518 C488 1.723 . S
C518 C514 1.397 . S
C518 C517 1.394 . S
C519 H491 0.984 1_545 S
C519 H495 0.979 . S
C519 H496 0.977 . S
C519 C516 1.453 . S
C520 H492 0.979 . S
C520 H493 0.980 . S
C520 H494 0.983 . S
C520 C516 1.684 . S
H521 C539 0.948 . S
H522 C480 0.948 . S
H523 C498 0.979 . S
H524 C498 0.980 . S
H525 C498 0.983 . S
H526 C497 0.982 . S
H527 C497 0.979 . S
H528 C497 0.977 . S
H529 C499 0.948 . S
H530 C501 0.947 . S
H531 C502 0.948 . S
H532 C508 0.982 1_565 S
H533 C508 0.979 1_565 S
H534 C508 0.977 . S
H535 C509 0.979 . S
H536 C509 0.980 . S
H537 C509 0.983 . S
H538 C482 0.947 . S
C539 C482 1.392 . S
C539 C483 1.419 . S
C539 H521 0.948 . S
C540 C541 1.391 . S
C540 C544 1.391 . S
C540 H582 0.948 . S
C541 C540 1.391 . S
C541 C542 1.391 . S
C542 C541 1.391 . S
C542 H598 0.947 . S
C542 C599 1.392 . S
C543 C544 1.391 . S
C543 C547 1.397 . S
C543 C599 1.419 . S
C544 C540 1.391 . S
C544 C543 1.391 . S
C544 C545 1.399 . S
C545 C544 1.399 . S
C545 C548 1.396 . S
C545 C557 1.453 . S
C545 C558 1.684 . S
H546 C570 0.948 . S
C547 C543 1.397 . S
C547 C548 1.394 . S
C547 C566 1.723 . S
C548 C545 1.396 . S
C548 C547 1.394 . S
C548 C578 1.723 . S
H549 C572 0.947 . S
H550 C573 0.948 . S
H551 C579 0.982 . S
H552 C580 0.979 . S
H553 C580 0.980 . S
H554 C580 0.983 . S
H555 C579 0.979 . S
H556 C579 0.977 . S
C557 C545 1.453 . S
C557 H586 0.982 . S
C557 H587 0.976 1_556 S
C557 H588 0.977 . S
C558 C545 1.684 . S
C558 H583 0.979 . S
C558 H584 0.980 . S
C558 H585 0.983 . S
C559 C560 1.391 . S
C559 C564 1.391 . S
C559 H589 0.948 . S
C560 C559 1.391 . S
C560 C561 1.391 . S
C561 C560 1.391 . S
C561 C562 1.392 . S
C561 H590 0.947 . S
C562 C561 1.392 . S
C562 C563 1.419 . S
C562 H591 0.948 . S
C563 C562 1.419 . S
C563 C564 1.391 . S
C563 C567 1.397 . S
C564 C559 1.391 . S
C564 C563 1.391 . S
C564 C565 1.399 . S
C565 C564 1.399 . S
C565 C566 1.396 . S
C565 C568 1.453 . S
C565 C569 1.684 . S
C566 C547 1.723 . S
C566 C565 1.396 . S
C566 C567 1.394 . S
C567 C563 1.397 . S
C567 C566 1.394 . S
C567 C577 1.723 . S
C568 C565 1.453 . S
C568 H592 0.982 . S
C568 H593 0.979 . S
C568 H594 0.977 . S
C569 C565 1.684 . S
C569 H595 0.979 . S
C569 H596 0.980 . S
C569 H597 0.983 . S
C570 H546 0.948 . S
C570 C571 1.391 . S
C570 C575 1.391 . S
C571 C570 1.391 . S
C571 C572 1.391 . S
C572 H549 0.947 . S
C572 C571 1.391 . S
C572 C573 1.392 . S
C573 H550 0.948 . S
C573 C572 1.392 . S
C573 C574 1.419 . S
C574 C573 1.419 . S
C574 C575 1.391 . S
C574 C578 1.397 . S
C575 C570 1.391 . S
C575 C574 1.391 . S
C575 C576 1.399 . S
C576 C575 1.399 . S
C576 C577 1.396 . S
C576 C579 1.453 . S
C576 C580 1.684 . S
C577 C567 1.723 . S
C577 C576 1.396 . S
C577 C578 1.394 . S
C578 C548 1.723 . S
C578 C574 1.397 . S
C578 C577 1.394 . S
C579 H551 0.982 . S
C579 H555 0.979 . S
C579 H556 0.977 . S
C579 C576 1.453 . S
C580 H552 0.979 . S
C580 H553 0.980 . S
C580 H554 0.983 . S
C580 C576 1.684 . S
H581 C599 0.948 . S
H582 C540 0.948 . S
H583 C558 0.979 . S
H584 C558 0.980 . S
H585 C558 0.983 . S
H586 C557 0.982 . S
H587 C557 0.976 1_554 S
H588 C557 0.977 . S
H589 C559 0.948 . S
H590 C561 0.947 . S
H591 C562 0.948 . S
H592 C568 0.982 . S
H593 C568 0.979 . S
H594 C568 0.977 . S
H595 C569 0.979 . S
H596 C569 0.980 . S
H597 C569 0.983 . S
H598 C542 0.947 . S
C599 C542 1.392 . S
C599 C543 1.419 . S
C599 H581 0.948 . S
C600 C601 1.391 . S
C600 C604 1.391 . S
C600 H642 0.948 1_556 S
C601 C600 1.391 . S
C601 C602 1.391 . S
C602 C601 1.391 . S
C602 H658 0.947 . S
C602 C659 1.392 . S
C603 C604 1.391 . S
C603 C607 1.397 . S
C603 C659 1.419 . S
C604 C600 1.391 . S
C604 C603 1.391 . S
C604 C605 1.399 . S
C605 C604 1.399 . S
C605 C608 1.396 . S
C605 C617 1.453 . S
C605 C618 1.684 1_556 S
H606 C630 0.948 . S
C607 C603 1.397 . S
C607 C608 1.394 . S
C607 C626 1.723 . S
C608 C605 1.396 . S
C608 C607 1.394 . S
C608 C638 1.723 . S
H609 C632 0.947 . S
H610 C633 0.948 1_554 S
H611 C639 0.982 . S
H612 C640 0.979 . S
H613 C640 0.980 . S
H614 C640 0.983 . S
H615 C639 0.979 . S
H616 C639 0.977 . S
C617 C605 1.453 . S
C617 H646 0.982 . S
C617 H647 0.979 1_556 S
C617 H648 0.977 . S
C618 C605 1.684 1_554 S
C618 H643 0.979 . S
C618 H644 0.980 . S
C618 H645 0.983 . S
C619 C620 1.391 . S
C619 C624 1.391 . S
C619 H649 0.948 . S
C620 C619 1.391 . S
C620 C621 1.391 . S
C621 C620 1.391 . S
C621 C622 1.392 . S
C621 H650 0.947 . S
C622 C621 1.392 . S
C622 C623 1.419 . S
C622 H651 0.948 . S
C623 C622 1.419 . S
C623 C624 1.391 . S
C623 C627 1.397 . S
C624 C619 1.391 . S
C624 C623 1.391 . S
C624 C625 1.399 . S
C625 C624 1.399 . S
C625 C626 1.396 . S
C625 C628 1.453 . S
C625 C629 1.684 . S
C626 C607 1.723 . S
C626 C625 1.396 . S
C626 C627 1.394 . S
C627 C623 1.397 . S
C627 C626 1.394 . S
C627 C637 1.723 . S
C628 C625 1.453 . S
C628 H652 0.982 . S
C628 H653 0.979 . S
C628 H654 0.977 . S
C629 C625 1.684 . S
C629 H655 0.979 . S
C629 H656 0.980 . S
C629 H657 0.983 . S
C630 H606 0.948 . S
C630 C631 1.391 . S
C630 C635 1.391 . S
C631 C630 1.391 . S
C631 C632 1.391 1_556 S
C632 H609 0.947 . S
C632 C631 1.391 1_554 S
C632 C633 1.392 1_554 S
C633 H610 0.948 1_556 S
C633 C632 1.392 1_556 S
C633 C634 1.419 . S
C634 C633 1.419 . S
C634 C635 1.391 . S
C634 C638 1.397 . S
C635 C630 1.391 . S
C635 C634 1.391 . S
C635 C636 1.399 . S
C636 C635 1.399 . S
C636 C637 1.396 . S
C636 C639 1.453 . S
C636 C640 1.684 . S
C637 C627 1.723 . S
C637 C636 1.396 . S
C637 C638 1.394 . S
C638 C608 1.723 . S
C638 C634 1.397 . S
C638 C637 1.394 . S
C639 H611 0.982 . S
C639 H615 0.979 . S
C639 H616 0.977 . S
C639 C636 1.453 . S
C640 H612 0.979 . S
C640 H613 0.980 . S
C640 H614 0.983 . S
C640 C636 1.684 . S
H641 C659 0.948 . S
H642 C600 0.948 1_554 S
H643 C618 0.979 . S
H644 C618 0.980 . S
H645 C618 0.983 . S
H646 C617 0.982 . S
H647 C617 0.979 1_554 S
H648 C617 0.977 . S
H649 C619 0.948 . S
H650 C621 0.947 . S
H651 C622 0.948 . S
H652 C628 0.982 . S
H653 C628 0.979 . S
H654 C628 0.977 . S
H655 C629 0.979 . S
H656 C629 0.980 . S
H657 C629 0.983 . S
H658 C602 0.947 . S
C659 C602 1.392 . S
C659 C603 1.419 . S
C659 H641 0.948 . S
C660 C661 1.391 . S
C660 C664 1.391 . S
C660 H702 0.948 . S
C661 C660 1.391 . S
C661 C662 1.391 . S
C662 C661 1.391 . S
C662 H718 0.947 . S
C662 C719 1.392 . S
C663 C664 1.391 . S
C663 C667 1.397 . S
C663 C719 1.419 . S
C664 C660 1.391 . S
C664 C663 1.391 . S
C664 C665 1.399 . S
C665 C664 1.399 . S
C665 C668 1.396 . S
C665 C677 1.453 . S
C665 C678 1.684 . S
H666 C690 0.948 . S
C667 C663 1.397 . S
C667 C668 1.394 . S
C667 C686 1.723 . S
C668 C665 1.396 . S
C668 C667 1.394 . S
C668 C698 1.723 . S
H669 C692 0.947 1_554 S
H670 C693 0.948 . S
H671 C699 0.982 . S
H672 C700 0.979 . S
H673 C700 0.980 . S
H674 C700 0.983 . S
H675 C699 0.979 . S
H676 C699 0.977 . S
C677 C665 1.453 . S
C677 H706 0.982 . S
C677 H707 0.979 1_556 S
C677 H708 0.977 . S
C678 C665 1.684 . S
C678 H703 0.979 . S
C678 H704 0.980 . S
C678 H705 0.983 1_556 S
C679 C680 1.391 . S
C679 C684 1.391 . S
C679 H709 0.948 . S
C680 C679 1.391 . S
C680 C681 1.391 . S
C681 C680 1.391 . S
C681 C682 1.392 . S
C681 H710 0.947 . S
C682 C681 1.392 . S
C682 C683 1.419 . S
C682 H711 0.948 . S
C683 C682 1.419 . S
C683 C684 1.391 . S
C683 C687 1.397 . S
C684 C679 1.391 . S
C684 C683 1.391 . S
C684 C685 1.399 . S
C685 C684 1.399 . S
C685 C686 1.396 . S
C685 C688 1.453 . S
C685 C689 1.684 . S
C686 C667 1.723 . S
C686 C685 1.396 . S
C686 C687 1.394 . S
C687 C683 1.397 . S
C687 C686 1.394 . S
C687 C697 1.723 . S
C688 C685 1.453 . S
C688 H712 0.982 . S
C688 H713 0.979 . S
C688 H714 0.977 . S
C689 C685 1.684 . S
C689 H715 0.979 . S
C689 H716 0.980 . S
C689 H717 0.983 . S
C690 H666 0.948 . S
C690 C691 1.391 . S
C690 C695 1.391 . S
C691 C690 1.391 . S
C691 C692 1.391 . S
C692 H669 0.947 1_556 S
C692 C691 1.391 . S
C692 C693 1.392 . S
C693 H670 0.948 . S
C693 C692 1.392 . S
C693 C694 1.419 . S
C694 C693 1.419 . S
C694 C695 1.391 . S
C694 C698 1.397 . S
C695 C690 1.391 . S
C695 C694 1.391 . S
C695 C696 1.399 . S
C696 C695 1.399 . S
C696 C697 1.396 . S
C696 C699 1.453 . S
C696 C700 1.684 . S
C697 C687 1.723 . S
C697 C696 1.396 . S
C697 C698 1.394 . S
C698 C668 1.723 . S
C698 C694 1.397 . S
C698 C697 1.394 . S
C699 H671 0.982 . S
C699 H675 0.979 . S
C699 H676 0.977 . S
C699 C696 1.453 . S
C700 H672 0.979 . S
C700 H673 0.980 . S
C700 H674 0.983 . S
C700 C696 1.684 . S
H701 C719 0.948 . S
H702 C660 0.948 . S
H703 C678 0.979 . S
H704 C678 0.980 . S
H705 C678 0.983 1_554 S
H706 C677 0.982 . S
H707 C677 0.979 1_554 S
H708 C677 0.977 . S
H709 C679 0.948 . S
H710 C681 0.947 . S
H711 C682 0.948 . S
H712 C688 0.982 . S
H713 C688 0.979 . S
H714 C688 0.977 . S
H715 C689 0.979 . S
H716 C689 0.980 . S
H717 C689 0.983 . S
H718 C662 0.947 . S
C719 C662 1.392 . S
C719 C663 1.419 . S
C719 H701 0.948 . S
C720 C721 1.391 . S
C720 C724 1.391 . S
C720 H762 0.948 1_554 S
C721 C720 1.391 . S
C721 C722 1.391 . S
C722 C721 1.391 . S
C722 H778 0.947 . S
C722 C779 1.392 . S
C723 C724 1.391 . S
C723 C727 1.397 . S
C723 C779 1.419 . S
C724 C720 1.391 . S
C724 C723 1.391 . S
C724 C725 1.399 . S
C725 C724 1.399 . S
C725 C728 1.396 . S
C725 C737 1.473 . S
C725 C738 1.684 . S
H726 C750 0.948 . S
C727 C723 1.397 . S
C727 C728 1.394 . S
C727 C746 1.723 . S
C728 C725 1.396 . S
C728 C727 1.394 . S
C728 C758 1.723 . S
H729 C752 0.961 . S
H730 C753 0.948 . S
H731 C759 0.982 . S
H732 C760 0.979 . S
H733 C760 0.980 . S
H734 C760 0.983 . S
H735 C759 0.979 . S
H736 C759 0.977 . S
C737 C725 1.473 . S
C737 H766 0.984 . S
C737 H767 0.960 1_554 S
C737 H768 0.975 1_554 S
C738 C725 1.684 . S
C738 H763 0.979 . S
C738 H764 0.981 . S
C738 H765 0.983 1_554 S
C739 C740 1.391 . S
C739 C744 1.391 . S
C739 H769 0.948 . S
C740 C739 1.391 . S
C740 C741 1.391 . S
C741 C740 1.391 . S
C741 C742 1.392 . S
C741 H770 0.947 . S
C742 C741 1.392 . S
C742 C743 1.419 . S
C742 H771 0.948 . S
C743 C742 1.419 . S
C743 C744 1.391 . S
C743 C747 1.397 . S
C744 C739 1.391 . S
C744 C743 1.391 . S
C744 C745 1.399 . S
C745 C744 1.399 . S
C745 C746 1.396 . S
C745 C748 1.453 . S
C745 C749 1.684 . S
C746 C727 1.723 . S
C746 C745 1.396 . S
C746 C747 1.394 . S
C747 C743 1.397 . S
C747 C746 1.394 . S
C747 C757 1.723 . S
C748 C745 1.453 . S
C748 H772 0.982 . S
C748 H773 0.979 . S
C748 H774 0.977 . S
C749 C745 1.684 . S
C749 H775 0.979 . S
C749 H776 0.980 . S
C749 H777 0.983 . S
C750 H726 0.948 . S
C750 C751 1.391 . S
C750 C755 1.391 . S
C751 C750 1.391 . S
C751 C752 1.383 1_554 S
C752 H729 0.961 . S
C752 C751 1.383 1_556 S
C752 C753 1.386 1_556 S
C753 H730 0.948 . S
C753 C752 1.386 1_554 S
C753 C754 1.419 . S
C754 C753 1.419 . S
C754 C755 1.391 . S
C754 C758 1.397 . S
C755 C750 1.391 . S
C755 C754 1.391 . S
C755 C756 1.399 . S
C756 C755 1.399 . S
C756 C757 1.396 . S
C756 C759 1.453 . S
C756 C760 1.684 . S
C757 C747 1.723 . S
C757 C756 1.396 . S
C757 C758 1.394 . S
C758 C728 1.723 . S
C758 C754 1.397 . S
C758 C757 1.394 . S
C759 H731 0.982 . S
C759 H735 0.979 . S
C759 H736 0.977 . S
C759 C756 1.453 . S
C760 H732 0.979 . S
C760 H733 0.980 . S
C760 H734 0.983 . S
C760 C756 1.684 . S
H761 C779 0.948 . S
H762 C720 0.948 1_556 S
H763 C738 0.979 . S
H764 C738 0.981 . S
H765 C738 0.983 1_556 S
H766 C737 0.984 . S
H767 C737 0.960 1_556 S
H768 C737 0.975 1_556 S
H769 C739 0.948 . S
H770 C741 0.947 . S
H771 C742 0.948 . S
H772 C748 0.982 . S
H773 C748 0.979 . S
H774 C748 0.977 . S
H775 C749 0.979 . S
H776 C749 0.980 . S
H777 C749 0.983 . S
H778 C722 0.947 . S
C779 C722 1.392 . S
C779 C723 1.419 . S
C779 H761 0.948 . S
C780 C781 1.391 . S
C780 C784 1.391 . S
C780 H822 0.948 . S
C781 C780 1.391 . S
C781 C782 1.391 . S
C782 C781 1.391 . S
C782 H838 0.947 . S
C782 C839 1.392 . S
C783 C784 1.391 . S
C783 C787 1.397 . S
C783 C839 1.419 . S
C784 C780 1.391 . S
C784 C783 1.391 . S
C784 C785 1.399 . S
C785 C784 1.399 . S
C785 C788 1.396 . S
C785 C797 1.453 . S
C785 C798 1.684 1_554 S
H786 C810 0.948 . S
C787 C783 1.397 . S
C787 C788 1.394 . S
C787 C806 1.723 . S
C788 C785 1.396 . S
C788 C787 1.394 . S
C788 C818 1.723 . S
H789 C812 0.947 1_556 S
H790 C813 0.948 . S
H791 C819 0.982 . S
H792 C820 0.979 . S
H793 C820 0.980 . S
H794 C820 0.983 . S
H795 C819 0.979 . S
H796 C819 0.977 . S
C797 C785 1.453 . S
C797 H826 0.982 . S
C797 H827 0.979 . S
C797 H828 0.977 . S
C798 C785 1.684 1_556 S
C798 H823 0.979 . S
C798 H824 0.980 . S
C798 H825 0.983 . S
C799 C800 1.391 . S
C799 C804 1.391 . S
C799 H829 0.948 . S
C800 C799 1.391 . S
C800 C801 1.391 . S
C801 C800 1.391 . S
C801 C802 1.392 . S
C801 H830 0.947 . S
C802 C801 1.392 . S
C802 C803 1.419 . S
C802 H831 0.948 . S
C803 C802 1.419 . S
C803 C804 1.391 . S
C803 C807 1.397 . S
C804 C799 1.391 . S
C804 C803 1.391 . S
C804 C805 1.399 . S
C805 C804 1.399 . S
C805 C806 1.396 . S
C805 C808 1.453 . S
C805 C809 1.684 . S
C806 C787 1.723 . S
C806 C805 1.396 . S
C806 C807 1.394 . S
C807 C803 1.397 . S
C807 C806 1.394 . S
C807 C817 1.723 . S
C808 C805 1.453 . S
C808 H832 0.982 . S
C808 H833 0.979 . S
C808 H834 0.977 . S
C809 C805 1.684 . S
C809 H835 0.979 . S
C809 H836 0.980 . S
C809 H837 0.983 . S
C810 H786 0.948 . S
C810 C811 1.391 . S
C810 C815 1.391 . S
C811 C810 1.391 . S
C811 C812 1.391 . S
C812 H789 0.947 1_554 S
C812 C811 1.391 . S
C812 C813 1.392 . S
C813 H790 0.948 . S
C813 C812 1.392 . S
C813 C814 1.419 . S
C814 C813 1.419 . S
C814 C815 1.391 . S
C814 C818 1.397 . S
C815 C810 1.391 . S
C815 C814 1.391 . S
C815 C816 1.399 . S
C816 C815 1.399 . S
C816 C817 1.396 . S
C816 C819 1.453 . S
C816 C820 1.684 . S
C817 C807 1.723 . S
C817 C816 1.396 . S
C817 C818 1.394 . S
C818 C788 1.723 . S
C818 C814 1.397 . S
C818 C817 1.394 . S
C819 H791 0.982 . S
C819 H795 0.979 . S
C819 H796 0.977 . S
C819 C816 1.453 . S
C820 H792 0.979 . S
C820 H793 0.980 . S
C820 H794 0.983 . S
C820 C816 1.684 . S
H821 C839 0.948 . S
H822 C780 0.948 . S
H823 C798 0.979 . S
H824 C798 0.980 . S
H825 C798 0.983 . S
H826 C797 0.982 . S
H827 C797 0.979 . S
H828 C797 0.977 . S
H829 C799 0.948 . S
H830 C801 0.947 . S
H831 C802 0.948 . S
H832 C808 0.982 . S
H833 C808 0.979 . S
H834 C808 0.977 . S
H835 C809 0.979 . S
H836 C809 0.980 . S
H837 C809 0.983 . S
H838 C782 0.947 . S
C839 C782 1.392 . S
C839 C783 1.419 . S
C839 H821 0.948 . S
C840 C841 1.391 . S
C840 C844 1.391 . S
C840 H882 0.948 . S
C841 C840 1.391 . S
C841 C842 1.391 . S
C842 C841 1.391 . S
C842 H898 0.947 . S
C842 C899 1.392 . S
C843 C844 1.391 . S
C843 C847 1.397 . S
C843 C899 1.419 . S
C844 C840 1.391 . S
C844 C843 1.391 . S
C844 C845 1.399 . S
C845 C844 1.399 . S
C845 C848 1.396 . S
C845 C857 1.453 . S
C845 C858 1.684 . S
H846 C870 0.948 . S
C847 C843 1.397 . S
C847 C848 1.394 . S
C847 C866 1.723 . S
C848 C845 1.396 . S
C848 C847 1.394 . S
C848 C878 1.723 . S
H849 C872 0.947 . S
H850 C873 0.948 . S
H851 C879 0.982 . S
H852 C880 0.979 . S
H853 C880 0.980 . S
H854 C880 0.983 . S
H855 C879 0.979 . S
H856 C879 0.977 . S
C857 C845 1.453 . S
C857 H886 0.982 . S
C857 H887 0.979 . S
C857 H888 0.977 . S
C858 C845 1.684 . S
C858 H883 0.979 . S
C858 H884 0.980 . S
C858 H885 0.983 . S
C859 C860 1.391 . S
C859 C864 1.391 . S
C859 H889 0.948 . S
C860 C859 1.391 . S
C860 C861 1.391 . S
C861 C860 1.391 . S
C861 C862 1.392 . S
C861 H890 0.947 . S
C862 C861 1.392 . S
C862 C863 1.419 . S
C862 H891 0.948 . S
C863 C862 1.419 . S
C863 C864 1.391 . S
C863 C867 1.397 . S
C864 C859 1.391 . S
C864 C863 1.391 . S
C864 C865 1.399 . S
C865 C864 1.399 . S
C865 C866 1.396 . S
C865 C868 1.453 . S
C865 C869 1.684 . S
C866 C847 1.723 . S
C866 C865 1.396 . S
C866 C867 1.394 . S
C867 C863 1.397 . S
C867 C866 1.394 . S
C867 C877 1.723 . S
C868 C865 1.453 . S
C868 H892 0.982 . S
C868 H893 0.979 . S
C868 H894 0.977 . S
C869 C865 1.684 . S
C869 H895 0.979 . S
C869 H896 0.980 . S
C869 H897 0.983 . S
C870 H846 0.948 . S
C870 C871 1.391 . S
C870 C875 1.391 . S
C871 C870 1.391 . S
C871 C872 1.391 . S
C872 H849 0.947 . S
C872 C871 1.391 . S
C872 C873 1.392 . S
C873 H850 0.948 . S
C873 C872 1.392 . S
C873 C874 1.419 . S
C874 C873 1.419 . S
C874 C875 1.391 . S
C874 C878 1.397 . S
C875 C870 1.391 . S
C875 C874 1.391 . S
C875 C876 1.399 . S
C876 C875 1.399 . S
C876 C877 1.396 . S
C876 C879 1.453 . S
C876 C880 1.684 . S
C877 C867 1.723 . S
C877 C876 1.396 . S
C877 C878 1.394 . S
C878 C848 1.723 . S
C878 C874 1.397 . S
C878 C877 1.394 . S
C879 H851 0.982 . S
C879 H855 0.979 . S
C879 H856 0.977 . S
C879 C876 1.453 . S
C880 H852 0.979 . S
C880 H853 0.980 . S
C880 H854 0.983 . S
C880 C876 1.684 . S
H881 C899 0.948 . S
H882 C840 0.948 . S
H883 C858 0.979 . S
H884 C858 0.980 . S
H885 C858 0.983 . S
H886 C857 0.982 . S
H887 C857 0.979 . S
H888 C857 0.977 . S
H889 C859 0.948 . S
H890 C861 0.947 . S
H891 C862 0.948 . S
H892 C868 0.982 . S
H893 C868 0.979 . S
H894 C868 0.977 . S
H895 C869 0.979 . S
H896 C869 0.980 . S
H897 C869 0.983 . S
H898 C842 0.947 . S
C899 C842 1.392 . S
C899 C843 1.419 . S
C899 H881 0.948 . S
C900 C901 1.391 . S
C900 C904 1.391 . S
C900 H942 0.948 . S
C901 C900 1.391 . S
C901 C902 1.391 . S
C902 C901 1.391 . S
C902 H958 0.947 . S
C902 C959 1.392 . S
C903 C904 1.391 . S
C903 C907 1.397 . S
C903 C959 1.419 . S
C904 C900 1.391 . S
C904 C903 1.391 . S
C904 C905 1.399 . S
C905 C904 1.399 . S
C905 C908 1.396 . S
C905 C917 1.453 . S
C905 C918 1.684 . S
H906 C930 0.948 . S
C907 C903 1.397 . S
C907 C908 1.394 . S
C907 C926 1.723 . S
C908 C905 1.396 . S
C908 C907 1.394 . S
C908 C938 1.723 . S
H909 C932 0.947 . S
H910 C933 0.948 . S
H911 C939 0.982 1_545 S
H912 C940 0.979 . S
H913 C940 0.980 . S
H914 C940 0.983 . S
H915 C939 0.979 . S
H916 C939 0.977 . S
C917 C905 1.453 . S
C917 H946 0.982 . S
C917 H947 0.979 . S
C917 H948 0.977 . S
C918 C905 1.684 . S
C918 H943 0.979 . S
C918 H944 0.980 . S
C918 H945 0.983 . S
C919 C920 1.391 . S
C919 C924 1.391 . S
C919 H949 0.948 . S
C920 C919 1.391 . S
C920 C921 1.391 . S
C921 C920 1.391 . S
C921 C922 1.392 . S
C921 H950 0.947 . S
C922 C921 1.392 . S
C922 C923 1.419 . S
C922 H951 0.948 . S
C923 C922 1.419 . S
C923 C924 1.391 . S
C923 C927 1.397 . S
C924 C919 1.391 . S
C924 C923 1.391 . S
C924 C925 1.399 . S
C925 C924 1.399 . S
C925 C926 1.396 . S
C925 C928 1.453 . S
C925 C929 1.684 . S
C926 C907 1.723 . S
C926 C925 1.396 . S
C926 C927 1.394 . S
C927 C923 1.397 . S
C927 C926 1.394 . S
C927 C937 1.723 . S
C928 C925 1.453 . S
C928 H952 0.982 1_565 S
C928 H953 0.979 1_565 S
C928 H954 0.977 . S
C929 C925 1.684 . S
C929 H955 0.979 . S
C929 H956 0.980 . S
C929 H957 0.983 . S
C930 H906 0.948 . S
C930 C931 1.391 . S
C930 C935 1.391 . S
C931 C930 1.391 . S
C931 C932 1.391 . S
C932 H909 0.947 . S
C932 C931 1.391 . S
C932 C933 1.392 . S
C933 H910 0.948 . S
C933 C932 1.392 . S
C933 C934 1.419 . S
C934 C933 1.419 . S
C934 C935 1.391 . S
C934 C938 1.397 . S
C935 C930 1.391 . S
C935 C934 1.391 . S
C935 C936 1.399 . S
C936 C935 1.399 . S
C936 C937 1.396 . S
C936 C939 1.453 . S
C936 C940 1.684 . S
C937 C927 1.723 . S
C937 C936 1.396 . S
C937 C938 1.394 . S
C938 C908 1.723 . S
C938 C934 1.397 . S
C938 C937 1.394 . S
C939 H911 0.982 1_565 S
C939 H915 0.979 . S
C939 H916 0.977 . S
C939 C936 1.453 . S
C940 H912 0.979 . S
C940 H913 0.980 . S
C940 H914 0.983 . S
C940 C936 1.684 . S
H941 C959 0.948 . S
H942 C900 0.948 . S
H943 C918 0.979 . S
H944 C918 0.980 . S
H945 C918 0.983 . S
H946 C917 0.982 . S
H947 C917 0.979 . S
H948 C917 0.977 . S
H949 C919 0.948 . S
H950 C921 0.947 . S
H951 C922 0.948 . S
H952 C928 0.982 1_545 S
H953 C928 0.979 1_545 S
H954 C928 0.977 . S
H955 C929 0.979 . S
H956 C929 0.980 . S
H957 C929 0.983 . S
H958 C902 0.947 . S
C959 C902 1.392 . S
C959 C903 1.419 . S
C959 H941 0.948 . S
C960 C961 1.391 . S
C960 C964 1.391 . S
C960 H1002 0.948 . S
C961 C960 1.391 . S
C961 C962 1.391 . S
C962 C961 1.391 . S
C962 H1018 0.947 . S
C962 C1019 1.392 . S
C963 C964 1.391 . S
C963 C967 1.397 . S
C963 C1019 1.419 . S
C964 C960 1.391 . S
C964 C963 1.391 . S
C964 C965 1.399 . S
C965 C964 1.399 . S
C965 C968 1.396 . S
C965 C977 1.453 . S
C965 C978 1.684 . S
H966 C990 0.948 . S
C967 C963 1.397 . S
C967 C968 1.394 . S
C967 C986 1.723 . S
C968 C965 1.396 . S
C968 C967 1.394 . S
C968 C998 1.723 . S
H969 C992 0.947 . S
H970 C993 0.948 . S
H971 C999 0.982 . S
H972 C1000 0.979 . S
H973 C1000 0.980 . S
H974 C1000 0.983 . S
H975 C999 0.979 . S
H976 C999 0.977 . S
C977 C965 1.453 . S
C977 H1006 0.982 . S
C977 H1007 0.979 . S
C977 H1008 0.977 . S
C978 C965 1.684 . S
C978 H1003 0.979 . S
C978 H1004 0.980 . S
C978 H1005 0.983 . S
C979 C980 1.391 . S
C979 C984 1.391 . S
C979 H1009 0.948 . S
C980 C979 1.391 . S
C980 C981 1.391 . S
C981 C980 1.391 . S
C981 C982 1.392 . S
C981 H1010 0.947 . S
C982 C981 1.392 . S
C982 C983 1.419 . S
C982 H1011 0.948 . S
C983 C982 1.419 . S
C983 C984 1.391 . S
C983 C987 1.397 . S
C984 C979 1.391 . S
C984 C983 1.391 . S
C984 C985 1.399 . S
C985 C984 1.399 . S
C985 C986 1.396 . S
C985 C988 1.453 . S
C985 C989 1.684 . S
C986 C967 1.723 . S
C986 C985 1.396 . S
C986 C987 1.394 . S
C987 C983 1.397 . S
C987 C986 1.394 . S
C987 C997 1.723 . S
C988 C985 1.453 . S
C988 H1012 0.982 . S
C988 H1013 0.979 . S
C988 H1014 0.977 . S
C989 C985 1.684 . S
C989 H1015 0.979 1_455 S
C989 H1016 0.980 . S
C989 H1017 0.983 . S
C990 H966 0.948 . S
C990 C991 1.391 . S
C990 C995 1.391 . S
C991 C990 1.391 . S
C991 C992 1.391 . S
C992 H969 0.947 . S
C992 C991 1.391 . S
C992 C993 1.392 . S
C993 H970 0.948 . S
C993 C992 1.392 . S
C993 C994 1.419 . S
C994 C993 1.419 . S
C994 C995 1.391 . S
C994 C998 1.397 . S
C995 C990 1.391 . S
C995 C994 1.391 . S
C995 C996 1.399 . S
C996 C995 1.399 . S
C996 C997 1.396 . S
C996 C999 1.453 . S
C996 C1000 1.684 . S
C997 C987 1.723 . S
C997 C996 1.396 . S
C997 C998 1.394 . S
C998 C968 1.723 . S
C998 C994 1.397 . S
C998 C997 1.394 . S
C999 H971 0.982 . S
C999 H975 0.979 . S
C999 H976 0.977 . S
C999 C996 1.453 . S
C1000 H972 0.979 . S
C1000 H973 0.980 . S
C1000 H974 0.983 . S
C1000 C996 1.684 . S
H1001 C1019 0.948 . S
H1002 C960 0.948 . S
H1003 C978 0.979 . S
H1004 C978 0.980 . S
H1005 C978 0.983 . S
H1006 C977 0.982 . S
H1007 C977 0.979 . S
H1008 C977 0.977 . S
H1009 C979 0.948 . S
H1010 C981 0.947 . S
H1011 C982 0.948 . S
H1012 C988 0.982 . S
H1013 C988 0.979 . S
H1014 C988 0.977 . S
H1015 C989 0.979 1_655 S
H1016 C989 0.980 . S
H1017 C989 0.983 . S
H1018 C962 0.947 . S
C1019 C962 1.392 . S
C1019 C963 1.419 . S
C1019 H1001 0.948 . S
C1020 C1021 1.391 . S
C1020 C1024 1.391 . S
C1020 H1062 0.948 . S
C1021 C1020 1.391 . S
C1021 C1022 1.391 . S
C1022 C1021 1.391 . S
C1022 H1078 0.947 . S
C1022 C1079 1.392 . S
C1023 C1024 1.391 . S
C1023 C1027 1.397 . S
C1023 C1079 1.419 . S
C1024 C1020 1.391 . S
C1024 C1023 1.391 . S
C1024 C1025 1.399 . S
C1025 C1024 1.399 . S
C1025 C1028 1.396 . S
C1025 C1037 1.453 . S
C1025 C1038 1.684 . S
H1026 C1050 0.948 . S
C1027 C1023 1.397 . S
C1027 C1028 1.394 . S
C1027 C1046 1.723 . S
C1028 C1025 1.396 . S
C1028 C1027 1.394 . S
C1028 C1058 1.723 . S
H1029 C1052 0.947 . S
H1030 C1053 0.948 . S
H1031 C1059 0.982 . S
H1032 C1060 0.979 . S
H1033 C1060 0.980 . S
H1034 C1060 0.983 . S
H1035 C1059 0.979 . S
H1036 C1059 0.977 . S
C1037 C1025 1.453 . S
C1037 H1066 0.982 . S
C1037 H1067 0.979 . S
C1037 H1068 0.977 . S
C1038 C1025 1.684 . S
C1038 H1063 0.979 . S
C1038 H1064 0.980 . S
C1038 H1065 0.983 . S
C1039 C1040 1.391 . S
C1039 C1044 1.391 . S
C1039 H1069 0.948 . S
C1040 C1039 1.391 . S
C1040 C1041 1.391 . S
C1041 C1040 1.391 . S
C1041 C1042 1.392 . S
C1041 H1070 0.947 . S
C1042 C1041 1.392 . S
C1042 C1043 1.419 . S
C1042 H1071 0.948 . S
C1043 C1042 1.419 . S
C1043 C1044 1.391 . S
C1043 C1047 1.397 . S
C1044 C1039 1.391 . S
C1044 C1043 1.391 . S
C1044 C1045 1.399 . S
C1045 C1044 1.399 . S
C1045 C1046 1.396 . S
C1045 C1048 1.453 . S
C1045 C1049 1.684 . S
C1046 C1027 1.723 . S
C1046 C1045 1.396 . S
C1046 C1047 1.394 . S
C1047 C1043 1.397 . S
C1047 C1046 1.394 . S
C1047 C1057 1.723 . S
C1048 C1045 1.453 . S
C1048 H1072 0.982 . S
C1048 H1073 0.979 . S
C1048 H1074 0.977 . S
C1049 C1045 1.684 . S
C1049 H1075 0.979 . S
C1049 H1076 0.980 . S
C1049 H1077 0.983 . S
C1050 H1026 0.948 . S
C1050 C1051 1.391 . S
C1050 C1055 1.391 . S
C1051 C1050 1.391 . S
C1051 C1052 1.391 . S
C1052 H1029 0.947 . S
C1052 C1051 1.391 . S
C1052 C1053 1.392 . S
C1053 H1030 0.948 . S
C1053 C1052 1.392 . S
C1053 C1054 1.419 . S
C1054 C1053 1.419 . S
C1054 C1055 1.391 . S
C1054 C1058 1.397 . S
C1055 C1050 1.391 . S
C1055 C1054 1.391 . S
C1055 C1056 1.399 . S
C1056 C1055 1.399 . S
C1056 C1057 1.396 . S
C1056 C1059 1.453 . S
C1056 C1060 1.684 . S
C1057 C1047 1.723 . S
C1057 C1056 1.396 . S
C1057 C1058 1.394 . S
C1058 C1028 1.723 . S
C1058 C1054 1.397 . S
C1058 C1057 1.394 . S
C1059 H1031 0.982 . S
C1059 H1035 0.979 . S
C1059 H1036 0.977 . S
C1059 C1056 1.453 . S
C1060 H1032 0.979 . S
C1060 H1033 0.980 . S
C1060 H1034 0.983 . S
C1060 C1056 1.684 . S
H1061 C1079 0.948 . S
H1062 C1020 0.948 . S
H1063 C1038 0.979 . S
H1064 C1038 0.980 . S
H1065 C1038 0.983 . S
H1066 C1037 0.982 . S
H1067 C1037 0.979 . S
H1068 C1037 0.977 . S
H1069 C1039 0.948 . S
H1070 C1041 0.947 . S
H1071 C1042 0.948 . S
H1072 C1048 0.982 . S
H1073 C1048 0.979 . S
H1074 C1048 0.977 . S
H1075 C1049 0.979 . S
H1076 C1049 0.980 . S
H1077 C1049 0.983 . S
H1078 C1022 0.947 . S
C1079 C1022 1.392 . S
C1079 C1023 1.419 . S
C1079 H1061 0.948 . S
Tb1080 O1083 2.453 . S
Tb1080 O1084 2.596 1_545 S
Tb1080 O1085 2.374 1_545 S
Tb1080 O1093 2.343 1_554 S
Tb1080 O1095 2.353 . S
Tb1080 O1097 2.427 1_554 S
Tb1080 O1098 2.513 1_554 S
C1081 O1085 1.251 . S
C1081 O1087 1.263 1_554 S
Tb1082 O1084 2.343 1_556 S
Tb1082 O1087 2.353 . S
Tb1082 O1090 2.427 1_556 S
Tb1082 O1091 2.513 1_556 S
Tb1082 O1092 2.453 . S
Tb1082 O1093 2.596 1_565 S
Tb1082 O1094 2.374 1_565 S
O1083 Tb1080 2.453 . S
O1083 C1099 1.245 . S
O1084 Tb1080 2.596 1_565 S
O1084 Tb1082 2.343 1_554 S
O1084 C1099 1.259 1_565 S
O1085 Tb1080 2.374 1_565 S
O1085 C1081 1.251 . S
C1086 O1090 1.275 . S
C1086 O1091 1.246 . S
O1087 C1081 1.263 1_556 S
O1087 Tb1082 2.353 . S
C1088 O1092 1.245 . S
C1088 O1093 1.259 1_565 S
C1089 O1094 1.250 . S
C1089 O1095 1.263 1_556 S
O1090 Tb1082 2.427 1_554 S
O1090 C1086 1.275 . S
O1091 Tb1082 2.513 1_554 S
O1091 C1086 1.246 . S
O1092 Tb1082 2.453 . S
O1092 C1088 1.245 . S
O1093 Tb1080 2.343 1_556 S
O1093 Tb1082 2.596 1_545 S
O1093 C1088 1.259 1_545 S
O1094 Tb1082 2.374 1_545 S
O1094 C1089 1.250 . S
O1095 Tb1080 2.353 . S
O1095 C1089 1.263 1_554 S
C1096 O1097 1.275 . S
C1096 O1098 1.246 . S
O1097 Tb1080 2.427 1_556 S
O1097 C1096 1.275 . S
O1098 Tb1080 2.513 1_556 S
O1098 C1096 1.246 . S
C1099 O1083 1.245 . S
C1099 O1084 1.259 1_545 S
Tb1100 O1103 2.453 . S
Tb1100 O1104 2.596 1_655 S
Tb1100 O1105 2.374 1_655 S
Tb1100 O1113 2.343 1_554 S
Tb1100 O1115 2.353 1_554 S
Tb1100 O1117 2.427 1_554 S
Tb1100 O1118 2.513 1_554 S
C1101 O1105 1.251 . S
C1101 O1107 1.263 . S
Tb1102 O1104 2.343 1_556 S
Tb1102 O1107 2.353 1_556 S
Tb1102 O1110 2.427 1_556 S
Tb1102 O1111 2.513 1_556 S
Tb1102 O1112 2.453 . S
Tb1102 O1113 2.596 1_455 S
Tb1102 O1114 2.374 1_455 S
O1103 Tb1100 2.453 . S
O1103 C1119 1.245 1_655 S
O1104 Tb1100 2.596 1_455 S
O1104 Tb1102 2.343 1_554 S
O1104 C1119 1.259 . S
O1105 Tb1100 2.374 1_455 S
O1105 C1101 1.251 . S
C1106 O1110 1.275 . S
C1106 O1111 1.246 . S
O1107 C1101 1.263 . S
O1107 Tb1102 2.353 1_554 S
C1108 O1112 1.245 1_655 S
C1108 O1113 1.259 . S
C1109 O1114 1.250 . S
C1109 O1115 1.263 . S
O1110 Tb1102 2.427 1_554 S
O1110 C1106 1.275 . S
O1111 Tb1102 2.513 1_554 S
O1111 C1106 1.246 . S
O1112 Tb1102 2.453 . S
O1112 C1108 1.245 1_455 S
O1113 Tb1100 2.343 1_556 S
O1113 Tb1102 2.596 1_655 S
O1113 C1108 1.259 . S
O1114 Tb1102 2.374 1_655 S
O1114 C1109 1.250 . S
O1115 Tb1100 2.353 1_556 S
O1115 C1109 1.263 . S
C1116 O1117 1.275 . S
C1116 O1118 1.246 . S
O1117 Tb1100 2.427 1_556 S
O1117 C1116 1.275 . S
O1118 Tb1100 2.513 1_556 S
O1118 C1116 1.246 . S
C1119 O1103 1.245 1_455 S
C1119 O1104 1.259 . S
Tb1120 O1123 2.453 . S
Tb1120 O1124 2.596 . S
Tb1120 O1125 2.374 . S
Tb1120 O1133 2.343 1_556 S
Tb1120 O1135 2.353 1_556 S
Tb1120 O1137 2.427 1_556 S
Tb1120 O1138 2.513 1_556 S
C1121 O1125 1.251 . S
C1121 O1127 1.263 1_556 S
Tb1122 O1124 2.343 1_554 S
Tb1122 O1127 2.353 . S
Tb1122 O1130 2.427 1_554 S
Tb1122 O1131 2.513 1_554 S
Tb1122 O1132 2.453 . S
Tb1122 O1133 2.596 . S
Tb1122 O1134 2.374 . S
O1123 Tb1120 2.453 . S
O1123 C1139 1.245 . S
O1124 Tb1120 2.596 . S
O1124 Tb1122 2.343 1_556 S
O1124 C1139 1.259 . S
O1125 Tb1120 2.374 . S
O1125 C1121 1.251 . S
C1126 O1130 1.275 . S
C1126 O1131 1.246 . S
O1127 C1121 1.263 1_554 S
O1127 Tb1122 2.353 . S
C1128 O1132 1.245 . S
C1128 O1133 1.259 . S
C1129 O1134 1.250 . S
C1129 O1135 1.263 . S
O1130 Tb1122 2.427 1_556 S
O1130 C1126 1.275 . S
O1131 Tb1122 2.513 1_556 S
O1131 C1126 1.246 . S
O1132 Tb1122 2.453 . S
O1132 C1128 1.245 . S
O1133 Tb1120 2.343 1_554 S
O1133 Tb1122 2.596 . S
O1133 C1128 1.259 . S
O1134 Tb1122 2.374 . S
O1134 C1129 1.250 . S
O1135 Tb1120 2.353 1_554 S
O1135 C1129 1.263 . S
C1136 O1137 1.275 . S
C1136 O1138 1.246 . S
O1137 Tb1120 2.427 1_554 S
O1137 C1136 1.275 . S
O1138 Tb1120 2.513 1_554 S
O1138 C1136 1.246 . S
C1139 O1123 1.245 . S
C1139 O1124 1.259 . S
Tb1140 O1143 2.453 . S
Tb1140 O1144 2.596 . S
Tb1140 O1145 2.374 . S
Tb1140 O1153 2.343 . S
Tb1140 O1155 2.353 . S
Tb1140 O1157 2.427 . S
Tb1140 O1158 2.513 . S
C1141 O1145 1.251 . S
C1141 O1147 1.263 . S
Tb1142 O1144 2.343 . S
Tb1142 O1147 2.353 . S
Tb1142 O1150 2.427 . S
Tb1142 O1151 2.513 . S
Tb1142 O1152 2.453 . S
Tb1142 O1153 2.596 . S
Tb1142 O1154 2.374 . S
O1143 Tb1140 2.453 . S
O1143 C1159 1.245 . S
O1144 Tb1140 2.596 . S
O1144 Tb1142 2.343 . S
O1144 C1159 1.259 . S
O1145 Tb1140 2.374 . S
O1145 C1141 1.251 . S
C1146 O1150 1.275 . S
C1146 O1151 1.246 . S
O1147 C1141 1.263 . S
O1147 Tb1142 2.353 . S
C1148 O1152 1.245 . S
C1148 O1153 1.259 . S
C1149 O1154 1.250 . S
C1149 O1155 1.263 . S
O1150 Tb1142 2.427 . S
O1150 C1146 1.275 . S
O1151 Tb1142 2.513 . S
O1151 C1146 1.246 . S
O1152 Tb1142 2.453 . S
O1152 C1148 1.245 . S
O1153 Tb1140 2.343 . S
O1153 Tb1142 2.596 . S
O1153 C1148 1.259 . S
O1154 Tb1142 2.374 . S
O1154 C1149 1.250 . S
O1155 Tb1140 2.353 . S
O1155 C1149 1.263 . S
C1156 O1157 1.275 . S
C1156 O1158 1.246 . S
O1157 Tb1140 2.427 . S
O1157 C1156 1.275 . S
O1158 Tb1140 2.513 . S
O1158 C1156 1.246 . S
C1159 O1143 1.245 . S
C1159 O1144 1.259 . S
Tb1160 O1163 2.453 . S
Tb1160 O1164 2.596 . S
Tb1160 O1165 2.374 . S
Tb1160 O1173 2.343 . S
Tb1160 O1175 2.353 . S
Tb1160 O1177 2.427 . S
Tb1160 O1178 2.513 . S
C1161 O1165 1.251 . S
C1161 O1167 1.263 . S
Tb1162 O1164 2.343 . S
Tb1162 O1167 2.353 . S
Tb1162 O1170 2.427 . S
Tb1162 O1171 2.513 . S
Tb1162 O1172 2.453 . S
Tb1162 O1173 2.596 . S
Tb1162 O1174 2.374 . S
O1163 Tb1160 2.453 . S
O1163 C1179 1.245 . S
O1164 Tb1160 2.596 . S
O1164 Tb1162 2.343 . S
O1164 C1179 1.259 . S
O1165 Tb1160 2.374 . S
O1165 C1161 1.251 . S
C1166 O1170 1.275 . S
C1166 O1171 1.246 . S
O1167 C1161 1.263 . S
O1167 Tb1162 2.353 . S
C1168 O1172 1.245 . S
C1168 O1173 1.259 . S
C1169 O1174 1.250 . S
C1169 O1175 1.263 . S
O1170 Tb1162 2.427 . S
O1170 C1166 1.275 . S
O1171 Tb1162 2.513 . S
O1171 C1166 1.246 . S
O1172 Tb1162 2.453 . S
O1172 C1168 1.245 . S
O1173 Tb1160 2.343 . S
O1173 Tb1162 2.596 . S
O1173 C1168 1.259 . S
O1174 Tb1162 2.374 . S
O1174 C1169 1.250 . S
O1175 Tb1160 2.353 . S
O1175 C1169 1.263 . S
C1176 O1177 1.275 . S
C1176 O1178 1.246 . S
O1177 Tb1160 2.427 . S
O1177 C1176 1.275 . S
O1178 Tb1160 2.513 . S
O1178 C1176 1.246 . S
C1179 O1163 1.245 . S
C1179 O1164 1.259 . S
Tb1180 O1183 2.453 . S
Tb1180 O1184 2.596 . S
Tb1180 O1185 2.374 . S
Tb1180 O1193 2.343 . S
Tb1180 O1195 2.353 . S
Tb1180 O1197 2.427 . S
Tb1180 O1198 2.513 . S
C1181 O1185 1.251 . S
C1181 O1187 1.263 . S
Tb1182 O1184 2.343 . S
Tb1182 O1187 2.353 . S
Tb1182 O1190 2.427 . S
Tb1182 O1191 2.513 . S
Tb1182 O1192 2.453 . S
Tb1182 O1193 2.596 . S
Tb1182 O1194 2.374 . S
O1183 Tb1180 2.453 . S
O1183 C1199 1.245 . S
O1184 Tb1180 2.596 . S
O1184 Tb1182 2.343 . S
O1184 C1199 1.259 . S
O1185 Tb1180 2.374 . S
O1185 C1181 1.251 . S
C1186 O1190 1.275 . S
C1186 O1191 1.246 . S
O1187 C1181 1.263 . S
O1187 Tb1182 2.353 . S
C1188 O1192 1.245 . S
C1188 O1193 1.259 . S
C1189 O1194 1.250 . S
C1189 O1195 1.263 . S
O1190 Tb1182 2.427 . S
O1190 C1186 1.275 . S
O1191 Tb1182 2.513 . S
O1191 C1186 1.246 . S
O1192 Tb1182 2.453 . S
O1192 C1188 1.245 . S
O1193 Tb1180 2.343 . S
O1193 Tb1182 2.596 . S
O1193 C1188 1.259 . S
O1194 Tb1182 2.374 . S
O1194 C1189 1.250 . S
O1195 Tb1180 2.353 . S
O1195 C1189 1.263 . S
C1196 O1197 1.275 . S
C1196 O1198 1.246 . S
O1197 Tb1180 2.427 . S
O1197 C1196 1.275 . S
O1198 Tb1180 2.513 . S
O1198 C1196 1.246 . S
C1199 O1183 1.245 . S
C1199 O1184 1.259 . S
Tb1200 O1203 2.453 . S
Tb1200 O1204 2.596 . S
Tb1200 O1205 2.374 . S
Tb1200 O1213 2.343 . S
Tb1200 O1215 2.353 . S
Tb1200 O1217 2.427 . S
Tb1200 O1218 2.513 . S
C1201 O1205 1.251 . S
C1201 O1207 1.263 . S
Tb1202 O1204 2.343 . S
Tb1202 O1207 2.353 . S
Tb1202 O1210 2.427 . S
Tb1202 O1211 2.513 . S
Tb1202 O1212 2.453 . S
Tb1202 O1213 2.596 . S
Tb1202 O1214 2.374 . S
O1203 Tb1200 2.453 . S
O1203 C1219 1.245 . S
O1204 Tb1200 2.596 . S
O1204 Tb1202 2.343 . S
O1204 C1219 1.259 . S
O1205 Tb1200 2.374 . S
O1205 C1201 1.251 . S
C1206 O1210 1.275 . S
C1206 O1211 1.246 . S
O1207 C1201 1.263 . S
O1207 Tb1202 2.353 . S
C1208 O1212 1.245 . S
C1208 O1213 1.259 . S
C1209 O1214 1.250 . S
C1209 O1215 1.263 . S
O1210 Tb1202 2.427 . S
O1210 C1206 1.275 . S
O1211 Tb1202 2.513 . S
O1211 C1206 1.246 . S
O1212 Tb1202 2.453 . S
O1212 C1208 1.245 . S
O1213 Tb1200 2.343 . S
O1213 Tb1202 2.596 . S
O1213 C1208 1.259 . S
O1214 Tb1202 2.374 . S
O1214 C1209 1.250 . S
O1215 Tb1200 2.353 . S
O1215 C1209 1.263 . S
C1216 O1217 1.275 . S
C1216 O1218 1.246 . S
O1217 Tb1200 2.427 . S
O1217 C1216 1.275 . S
O1218 Tb1200 2.513 . S
O1218 C1216 1.246 . S
C1219 O1203 1.245 . S
C1219 O1204 1.259 . S
Tb1220 O1223 2.453 . S
Tb1220 O1224 2.596 . S
Tb1220 O1225 2.374 . S
Tb1220 O1233 2.343 . S
Tb1220 O1235 2.353 . S
Tb1220 O1237 2.427 . S
Tb1220 O1238 2.513 . S
C1221 O1225 1.251 . S
C1221 O1227 1.263 . S
Tb1222 O1224 2.343 . S
Tb1222 O1227 2.353 . S
Tb1222 O1230 2.427 . S
Tb1222 O1231 2.513 . S
Tb1222 O1232 2.453 . S
Tb1222 O1233 2.596 . S
Tb1222 O1234 2.374 . S
O1223 Tb1220 2.453 . S
O1223 C1239 1.245 . S
O1224 Tb1220 2.596 . S
O1224 Tb1222 2.343 . S
O1224 C1239 1.259 . S
O1225 Tb1220 2.374 . S
O1225 C1221 1.251 . S
C1226 O1230 1.275 . S
C1226 O1231 1.246 . S
O1227 C1221 1.263 . S
O1227 Tb1222 2.353 . S
C1228 O1232 1.245 . S
C1228 O1233 1.259 . S
C1229 O1234 1.250 . S
C1229 O1235 1.263 . S
O1230 Tb1222 2.427 . S
O1230 C1226 1.275 . S
O1231 Tb1222 2.513 . S
O1231 C1226 1.246 . S
O1232 Tb1222 2.453 . S
O1232 C1228 1.245 . S
O1233 Tb1220 2.343 . S
O1233 Tb1222 2.596 . S
O1233 C1228 1.259 . S
O1234 Tb1222 2.374 . S
O1234 C1229 1.250 . S
O1235 Tb1220 2.353 . S
O1235 C1229 1.263 . S
C1236 O1237 1.275 . S
C1236 O1238 1.246 . S
O1237 Tb1220 2.427 . S
O1237 C1236 1.275 . S
O1238 Tb1220 2.513 . S
O1238 C1236 1.246 . S
C1239 O1223 1.245 . S
C1239 O1224 1.259 . S
Tb1240 O1243 2.453 . S
Tb1240 O1244 2.596 . S
Tb1240 O1245 2.374 . S
Tb1240 O1253 2.343 . S
Tb1240 O1255 2.353 . S
Tb1240 O1257 2.427 . S
Tb1240 O1258 2.513 . S
C1241 O1245 1.251 . S
C1241 O1247 1.263 . S
Tb1242 O1244 2.343 . S
Tb1242 O1247 2.353 . S
Tb1242 O1250 2.427 . S
Tb1242 O1251 2.513 . S
Tb1242 O1252 2.453 . S
Tb1242 O1253 2.596 . S
Tb1242 O1254 2.374 . S
O1243 Tb1240 2.453 . S
O1243 C1259 1.245 . S
O1244 Tb1240 2.596 . S
O1244 Tb1242 2.343 . S
O1244 C1259 1.259 . S
O1245 Tb1240 2.374 . S
O1245 C1241 1.251 . S
C1246 O1250 1.275 . S
C1246 O1251 1.246 . S
O1247 C1241 1.263 . S
O1247 Tb1242 2.353 . S
C1248 O1252 1.245 . S
C1248 O1253 1.259 . S
C1249 O1254 1.250 . S
C1249 O1255 1.263 . S
O1250 Tb1242 2.427 . S
O1250 C1246 1.275 . S
O1251 Tb1242 2.513 . S
O1251 C1246 1.246 . S
O1252 Tb1242 2.453 . S
O1252 C1248 1.245 . S
O1253 Tb1240 2.343 . S
O1253 Tb1242 2.596 . S
O1253 C1248 1.259 . S
O1254 Tb1242 2.374 . S
O1254 C1249 1.250 . S
O1255 Tb1240 2.353 . S
O1255 C1249 1.263 . S
C1256 O1257 1.275 . S
C1256 O1258 1.246 . S
O1257 Tb1240 2.427 . S
O1257 C1256 1.275 . S
O1258 Tb1240 2.513 . S
O1258 C1256 1.246 . S
C1259 O1243 1.245 . S
C1259 O1244 1.259 . S
C781 C1086 2.006 . S
C871 C1106 1.465 . S
C751 C1129 1.670 . S
C691 C1109 1.541 . S
C1126 C571 1.516 . S
C601 C1089 1.796 . S
C1096 C661 1.844 . S
C1116 C541 1.494 . S
C631 C1121 1.812 . S
C811 C1101 1.691 . S
C841 C1136 1.720 . S
C1081 C721 1.652 . S
C1146 C61 2.006 . S
C151 C1166 1.466 . S
C31 C1189 1.670 . S
C1051 C1169 1.541 . S
C931 C1186 1.516 . S
C961 C1149 1.796 . S
C1021 C1156 1.844 . S
C901 C1176 1.494 . S
C1181 C991 1.811 . S
C91 C1161 1.691 . S
C1196 C121 1.720 . S
C1 C1141 1.652 . S
C1206 C421 2.007 . S
C511 C1226 1.465 . S
C1249 C391 1.671 . S
C1229 C331 1.541 . S
C1246 C211 1.516 . S
C241 C1209 1.796 . S
C301 C1216 1.844 . S
C181 C1236 1.494 . S
C1241 C271 1.811 . S
C451 C1221 1.691 . S
C481 C1256 1.720 . S
C361 C1201 1.653 . S
C920 C1099 1.346 1_565 S
C1119 C980 1.637 . S
C1040 C1128 1.392 . S
C380 C1108 1.550 . S
C440 C1139 1.488 . S
C1088 C500 1.154 1_565 S
C200 C1159 1.346 . S
C260 C1179 1.637 . S
C320 C1188 1.392 . S
C740 C1168 1.550 . S
C1199 C800 1.488 . S
C860 C1148 1.154 . S
C560 C1219 1.346 . S
C620 C1239 1.637 . S
C1248 C680 1.392 . S
C20 C1228 1.550 . S
C80 C1259 1.488 . S
C140 C1208 1.154 . S
