# Generated by pormake.
# Topology tsx, (6,3)-cn, num edge types: 1
# Building blocks:
#     Node 0, Type 0, BuildingBlock: VOLQOD_clean_sbu_1, # of connection points: 6
#     Node 1, Type 0, BuildingBlock: VOLQOD_clean_sbu_1, # of connection points: 6
#     Node 2, Type 1, BuildingBlock: PAMTOO_clean_linker_0, # of connection points: 3
#     Node 3, Type 1, BuildingBlock: PAMTOO_clean_linker_0, # of connection points: 3
#     Node 4, Type 1, BuildingBlock: PAMTOO_clean_linker_0, # of connection points: 3
#     Node 5, Type 1, BuildingBlock: PAMTOO_clean_linker_0, # of connection points: 3
#     Edge 6, Type (0, 1), BuildingBlock: XIVTED_clean_linker_0, # of connection points: 2
#     Edge 7, Type (0, 1), BuildingBlock: XIVTED_clean_linker_0, # of connection points: 2
#     Edge 8, Type (0, 1), BuildingBlock: XIVTED_clean_linker_0, # of connection points: 2
#     Edge 9, Type (0, 1), BuildingBlock: XIVTED_clean_linker_0, # of connection points: 2
#     Edge 10, Type (0, 1), BuildingBlock: XIVTED_clean_linker_0, # of connection points: 2
#     Edge 11, Type (0, 1), BuildingBlock: XIVTED_clean_linker_0, # of connection points: 2
#     Edge 12, Type (0, 1), BuildingBlock: XIVTED_clean_linker_0, # of connection points: 2
#     Edge 13, Type (0, 1), BuildingBlock: XIVTED_clean_linker_0, # of connection points: 2
#     Edge 14, Type (0, 1), BuildingBlock: XIVTED_clean_linker_0, # of connection points: 2
#     Edge 15, Type (0, 1), BuildingBlock: XIVTED_clean_linker_0, # of connection points: 2
#     Edge 16, Type (0, 1), BuildingBlock: XIVTED_clean_linker_0, # of connection points: 2
#     Edge 17, Type (0, 1), BuildingBlock: XIVTED_clean_linker_0, # of connection points: 2
# Relax obj value: 0.055
# Max RMSD: 0.113
# Mean RMSD: 0.101
data_MOF--net-tsx--node1-VOLQOD_clean_sbu_1--node2-PAMTOO_clean_linker_0--edge1-XIVTED_clean_linker_0
_symmetry_space_group_name_H-M    P1
_symmetry_Int_Tables_number       1
_symmetry_cell_setting            triclinic
loop_
_symmetry_equiv_pos_as_xyz
'x, y, z'
_cell_length_a     21.319506
_cell_length_b     21.884658
_cell_length_c     37.68755
_cell_angle_alpha  82.753451
_cell_angle_beta   90.093549
_cell_angle_gamma 90.015098
loop_
_atom_site_label
_atom_site_type_symbol
_atom_site_fract_x
_atom_site_fract_y
_atom_site_fract_z
_atom_type_partial_charge
O0 O 0.08213 0.99717 0.0874 0.0
Zn1 Zn 0.10296 0.99804 0.03503 0.0
O2 O 0.029 0.01739 0.00492 0.0
Zn3 Zn 0.01089 0.94938 0.97806 0.0
Zn4 Zn 0.95699 0.03029 0.03533 0.0
Zn5 Zn 0.04496 0.09029 0.97051 0.0
O6 O 0.00334 0.97637 0.92552 0.0
O7 O 0.04343 0.07067 0.91932 0.0
O8 O 0.14359 0.91785 0.0255 0.0
O9 O 0.08038 0.88763 0.9842 0.0
O10 O 0.9319 0.90597 0.99448 0.0
O11 O 0.89437 0.96042 0.0356 0.0
O12 O 0.91431 0.11135 0.01834 0.0
O13 O 0.16736 0.06474 0.02485 0.0
O14 O 0.97608 0.15207 0.97399 0.0
O15 O 0.12808 0.12968 0.98031 0.0
C16 C 0.03403 0.01477 0.10344 0.0
C17 C 0.0216 0.02451 0.90582 0.0
C18 C 0.89075 0.91493 0.01764 0.0
C19 C 0.12923 0.87998 0.0037 0.0
C20 C 0.92787 0.15473 0.99369 0.0
C21 C 0.17145 0.11382 0.00294 0.0
O22 O 0.98394 0.03131 0.08644 0.0
O23 O 0.54974 0.4846 0.5792 0.0
Zn24 Zn 0.57338 0.48966 0.52725 0.0
O25 O 0.49931 0.50478 0.49683 0.0
Zn26 Zn 0.48507 0.43323 0.47196 0.0
Zn27 Zn 0.42596 0.51802 0.52616 0.0
Zn28 Zn 0.51314 0.57745 0.46183 0.0
O29 O 0.48348 0.45713 0.41898 0.0
O30 O 0.50764 0.55662 0.41116 0.0
O31 O 0.61815 0.41139 0.51894 0.0
O32 O 0.55385 0.37081 0.48191 0.0
O33 O 0.40283 0.39266 0.48566 0.0
O34 O 0.35984 0.45317 0.52196 0.0
O35 O 0.38708 0.60112 0.51161 0.0
O36 O 0.63427 0.56017 0.5179 0.0
O37 O 0.44765 0.64156 0.46689 0.0
O38 O 0.59568 0.61835 0.47037 0.0
C39 C 0.50008 0.4984 0.59518 0.0
C40 C 0.49395 0.50689 0.39855 0.0
C41 C 0.35752 0.40618 0.50517 0.0
C42 C 0.60396 0.36851 0.50043 0.0
C43 C 0.4012 0.64529 0.48767 0.0
C44 C 0.63768 0.6073 0.49441 0.0
O45 O 0.44994 0.51429 0.57807 0.0
H46 H 0.13915 0.97909 0.3692 0.0
H47 H 0.97499 0.09179 0.37569 0.0
H48 H 0.07243 0.0189 0.47143 0.0
H49 H 0.94141 0.02083 0.48515 0.0
C50 C 0.92581 0.05035 0.46059 0.0
O51 O 0.9762 0.08357 0.44551 0.0
H52 H 0.90685 0.01962 0.4417 0.0
C53 C 0.10683 0.00311 0.38477 0.0
C54 C 0.11272 0.99594 0.42217 0.0
C55 C 0.0576 0.03764 0.36745 0.0
C56 C 0.01361 0.06508 0.38827 0.0
C57 C 0.01927 0.05822 0.42564 0.0
C58 C 0.06889 0.02416 0.44251 0.0
H59 H 0.0565 0.12479 0.63119 0.0
H60 H 0.95372 0.95431 0.63608 0.0
H61 H 0.00454 0.05245 0.53447 0.0
H62 H 0.87414 0.00697 0.53871 0.0
C63 C 0.88062 0.96502 0.55831 0.0
O64 O 0.94337 0.95779 0.56678 0.0
H65 H 0.85317 0.97113 0.58271 0.0
C66 C 0.03387 0.08941 0.61804 0.0
C67 C 0.03395 0.09477 0.58053 0.0
C68 C 0.00613 0.03861 0.63867 0.0
C69 C 0.97584 0.99392 0.621 0.0
C70 C 0.97443 0.9997 0.58352 0.0
C71 C 0.0047 0.04918 0.56338 0.0
H72 H 0.62503 0.4543 0.8573 0.0
H73 H 0.46712 0.57242 0.86857 0.0
H74 H 0.57633 0.50405 0.96058 0.0
H75 H 0.44506 0.51991 0.97931 0.0
C76 C 0.43032 0.54794 0.95422 0.0
O77 O 0.48245 0.57461 0.93702 0.0
H78 H 0.40639 0.51661 0.93736 0.0
C79 C 0.59425 0.47749 0.87412 0.0
C80 C 0.60515 0.47149 0.91118 0.0
C81 C 0.54383 0.5122 0.85834 0.0
C82 C 0.50678 0.54571 0.87984 0.0
C83 C 0.51938 0.54331 0.91649 0.0
C84 C 0.56848 0.50652 0.9321 0.0
H85 H 0.58624 0.59012 0.14089 0.0
H86 H 0.49492 0.42118 0.12357 0.0
H87 H 0.6171 0.5117 0.04317 0.0
H88 H 0.52278 0.45 0.00718 0.0
C89 C 0.49672 0.43269 0.03182 0.0
O90 O 0.53978 0.41973 0.05912 0.0
H91 H 0.46323 0.46905 0.0379 0.0
C92 C 0.57762 0.5543 0.12412 0.0
C93 C 0.60689 0.55751 0.09058 0.0
C94 C 0.53809 0.50501 0.13667 0.0
C95 C 0.5262 0.45905 0.11471 0.0
C96 C 0.55427 0.46211 0.08097 0.0
C97 C 0.59523 0.51058 0.06917 0.0
H98 H 0.25912 0.10843 0.05632 0.0
H99 H 0.45014 0.40352 0.96869 0.0
H100 H 0.20876 0.2124 0.9552 0.0
H101 H 0.45359 0.33856 0.08156 0.0
H102 H 0.37605 0.3213 0.95963 0.0
H103 H 0.34514 0.18024 0.06203 0.0
C104 C 0.26641 0.14602 0.03513 0.0
C105 C 0.22629 0.15463 0.00531 0.0
C106 C 0.39369 0.32456 0.98629 0.0
C107 C 0.32493 0.2368 0.01175 0.0
C108 C 0.43616 0.37112 0.99144 0.0
C109 C 0.45884 0.37698 0.0258 0.0
C110 C 0.37366 0.28364 0.01576 0.0
C111 C 0.43824 0.33479 0.05453 0.0
C112 C 0.31543 0.18709 0.03852 0.0
C113 C 0.23816 0.20425 0.97876 0.0
N114 N 0.39685 0.28976 0.04886 0.0
N115 N 0.2864 0.24354 0.98263 0.0
H116 H 0.11279 0.79148 0.95951 0.0
H117 H 0.44001 0.62146 0.00767 0.0
H118 H 0.24226 0.84957 0.03696 0.0
H119 H 0.32096 0.58604 0.92004 0.0
H120 H 0.36595 0.7009 0.02195 0.0
H121 H 0.18538 0.71036 0.94857 0.0
C122 C 0.15638 0.78707 0.97441 0.0
C123 C 0.17148 0.82781 -0.0009 0.0
C124 C 0.35601 0.67569 -0.00036 0.0
C125 C 0.25534 0.73462 0.98644 0.0
C126 C 0.39813 0.63055 0.99155 0.0
C127 C 0.3859 0.59705 0.96295 0.0
C128 C 0.30144 0.6872 0.97891 0.0
C129 C 0.33158 0.61057 0.94253 0.0
C130 C 0.19799 0.74071 0.96802 0.0
C131 C 0.22869 0.81938 0.01763 0.0
N132 N 0.29122 0.65443 0.951 0.0
N133 N 0.26868 0.7738 0.01084 0.0
H134 H 0.84356 0.83602 0.97358 0.0
H135 H 0.68963 0.61596 0.1308 0.0
H136 H 0.82635 0.88661 0.08019 0.0
H137 H 0.62086 0.61959 0.02261 0.0
H138 H 0.75149 0.70768 0.11189 0.0
H139 H 0.77117 0.75006 0.98997 0.0
C140 C 0.82402 0.8294 0.00031 0.0
C141 C 0.84108 0.86829 0.02565 0.0
C142 C 0.7226 0.6885 0.09236 0.0
C143 C 0.75976 0.76965 0.0446 0.0
C144 C 0.68705 0.63615 0.10309 0.0
C145 C 0.6489 0.61031 0.07842 0.0
C146 C 0.72145 0.71467 0.05649 0.0
C147 C 0.64974 0.63752 0.04257 0.0
C148 C 0.78276 0.78049 0.00956 0.0
C149 C 0.81429 0.85784 0.05983 0.0
N150 N 0.68564 0.68821 0.03262 0.0
N151 N 0.77566 0.80889 0.06849 0.0
H152 H 0.84451 0.20188 0.03893 0.0
H153 H 0.63416 0.35998 0.88977 0.0
H154 H 0.91152 0.22628 0.93002 0.0
H155 H 0.68196 0.47588 0.9707 0.0
H156 H 0.71643 0.28885 0.9124 0.0
H157 H 0.76662 0.28407 0.02244 0.0
C158 C 0.84319 0.22479 0.01173 0.0
C159 C 0.88432 0.20718 0.98573 0.0
C160 C 0.70868 0.32995 0.92511 0.0
C161 C 0.79554 0.2993 0.96696 0.0
C162 C 0.66219 0.37116 0.91205 0.0
C163 C 0.65224 0.42571 0.92739 0.0
C164 C 0.74439 0.34175 0.95457 0.0
C165 C 0.6881 0.43494 0.95771 0.0
C166 C 0.79921 0.27166 0.00252 0.0
C167 C 0.88088 0.23843 0.95091 0.0
N168 N 0.73284 0.39321 0.97042 0.0
N169 N 0.83642 0.28213 0.94238 0.0
H170 H 0.73307 0.60229 0.5436 0.0
H171 H 0.82123 0.95789 0.49403 0.0
H172 H 0.65466 0.71909 0.45349 0.0
H173 H 0.88373 0.84544 0.58968 0.0
H174 H 0.77331 0.86686 0.47346 0.0
H175 H 0.80269 0.68612 0.55499 0.0
C176 C 0.73102 0.64523 0.52587 0.0
C177 C 0.68715 0.65383 0.49783 0.0
C178 C 0.79811 0.86187 0.49876 0.0
C179 C 0.76655 0.75037 0.51102 0.0
C180 C 0.8255 0.91377 0.51044 0.0
C181 C 0.85638 0.90886 0.54355 0.0
C182 C 0.80135 0.80482 0.52048 0.0
C183 C 0.86035 0.85084 0.56395 0.0
C184 C 0.77073 0.69321 0.53249 0.0
C185 C 0.68721 0.71045 0.47562 0.0
N186 N 0.83282 0.80111 0.55219 0.0
N187 N 0.72573 0.75678 0.48295 0.0
H188 H 0.58806 0.26781 0.46503 0.0
H189 H 0.93461 0.13712 0.50676 0.0
H190 H 0.72018 0.3506 0.53173 0.0
H191 H 0.80446 0.06211 0.43603 0.0
H192 H 0.85406 0.21052 0.52052 0.0
H193 H 0.66384 0.18673 0.45857 0.0
C194 C 0.63287 0.26883 0.47852 0.0
C195 C 0.64786 0.31652 0.49874 0.0
C196 C 0.84299 0.17785 0.50211 0.0
C197 C 0.73523 0.22358 0.49126 0.0
C198 C 0.88887 0.13604 0.49433 0.0
C199 C 0.87603 0.09396 0.47014 0.0
C200 C 0.78394 0.17748 0.48551 0.0
C201 C 0.81622 0.09416 0.45467 0.0
C202 C 0.67622 0.22243 0.47477 0.0
C203 C 0.70664 0.31498 0.51574 0.0
N204 N 0.77245 0.13545 0.46252 0.0
N205 N 0.74833 0.26949 0.51143 0.0
H206 H 0.33722 0.29996 0.47525 0.0
H207 H 0.02651 0.21668 0.58862 0.0
H208 H 0.25061 0.41951 0.54383 0.0
H209 H 0.11873 0.09083 0.52638 0.0
H210 H 0.09756 0.29835 0.56354 0.0
H211 H 0.24844 0.22956 0.4856 0.0
C212 C 0.29939 0.31169 0.4923 0.0
C213 C 0.30189 0.36542 0.50911 0.0
C214 C 0.10186 0.25313 0.55497 0.0
C215 C 0.19999 0.28491 0.52096 0.0
C216 C 0.0613 0.20657 0.56926 0.0
C217 C 0.06772 0.14677 0.56006 0.0
C218 C 0.14951 0.23969 0.53148 0.0
C219 C 0.11257 0.1363 0.53432 0.0
C220 C 0.24862 0.27146 0.49812 0.0
C221 C 0.25114 0.37836 0.53063 0.0
N222 N 0.15254 0.18212 0.52134 0.0
N223 N 0.20257 0.33814 0.53616 0.0
H224 H 0.29343 0.66858 0.52349 0.0
H225 H 0.23662 0.99237 0.40442 0.0
H226 H 0.42192 0.75182 0.44297 0.0
H227 H 0.10017 0.90501 0.4786 0.0
H228 H 0.3122 0.91221 0.42568 0.0
H229 H 0.22857 0.76135 0.51405 0.0
C230 C 0.30821 0.70641 0.50396 0.0
C231 C 0.36284 0.70204 0.48366 0.0
C232 C 0.26601 0.91087 0.43765 0.0
C233 C 0.28897 0.80834 0.47289 0.0
C234 C 0.22294 0.95664 0.42555 0.0
C235 C 0.16191 0.9547 0.43944 0.0
C236 C 0.24777 0.8625 0.46368 0.0
C237 C 0.14679 0.90809 0.46717 0.0
C238 C 0.2712 0.7594 0.49865 0.0
C239 C 0.37987 0.75274 0.45895 0.0
N240 N 0.18921 0.86323 0.47805 0.0
N241 N 0.34288 0.80355 0.45413 0.0
H242 H 0.13788 0.00551 0.14668 0.0
H243 H 0.95026 0.03159 0.32731 0.0
H244 H 0.93746 0.03334 0.14895 0.0
H245 H 0.15107 0.05264 0.31732 0.0
H246 H 0.94336 0.0283 0.26271 0.0
H247 H 0.1426 0.01579 0.21036 0.0
C248 C 0.09478 0.01349 0.16057 0.0
C249 C 0.03717 0.01852 0.14238 0.0
C250 C 0.98884 0.03401 0.27469 0.0
C251 C 0.04232 0.03054 0.21541 0.0
C252 C 0.99279 0.03635 0.31153 0.0
C253 C 0.05141 0.04185 0.32789 0.0
C254 C 0.04393 0.03675 0.25413 0.0
C255 C 0.105 0.04704 0.30605 0.0
C256 C 0.09758 0.01974 0.19692 0.0
C257 C 0.98294 0.02924 0.16184 0.0
N258 N 0.1 0.04386 0.27043 0.0
N259 N 0.98681 0.03469 0.19733 0.0
H260 H 0.94813 0.95349 0.86781 0.0
H261 H 0.10419 0.06941 0.68027 0.0
H262 H 0.08637 0.09872 0.85441 0.0
H263 H 0.91659 0.9942 0.68817 0.0
H264 H 0.10676 0.06695 0.74504 0.0
H265 H 0.94404 0.95489 0.80279 0.0
C266 C 0.97766 0.98565 0.8512 0.0
C267 C 0.01771 0.02609 0.86654 0.0
C268 C 0.06503 0.05111 0.73255 0.0
C269 C 0.01366 0.02726 0.79232 0.0
C270 C 0.06327 0.05272 0.6955 0.0
C271 C 0.00958 0.03295 0.67844 0.0
C272 C 0.01328 0.02846 0.75298 0.0
C273 C 0.9591 0.00964 0.69999 0.0
C274 C 0.97508 0.98651 0.81414 0.0
C275 C 0.05467 0.06695 0.84372 0.0
N276 N 0.96219 0.00801 0.73617 0.0
N277 N 0.05212 0.06615 0.80774 0.0
H278 H 0.57491 0.4292 0.64329 0.0
H279 H 0.50042 0.60589 0.80818 0.0
H280 H 0.42937 0.56731 0.63589 0.0
H281 H 0.55267 0.41359 0.82065 0.0
H282 H 0.48371 0.60129 0.74406 0.0
H283 H 0.57979 0.4319 0.70792 0.0
C284 C 0.54392 0.45999 0.65531 0.0
C285 C 0.50155 0.49793 0.63433 0.0
C286 C 0.49861 0.56025 0.76108 0.0
C287 C 0.5076 0.50193 0.70795 0.0
C288 C 0.50798 0.56271 0.79763 0.0
C289 C 0.52927 0.5104 0.81985 0.0
C290 C 0.51152 0.50543 0.74674 0.0
C291 C 0.53842 0.45574 0.80451 0.0
C292 C 0.54656 0.46134 0.69213 0.0
C293 C 0.46236 0.53697 0.65125 0.0
N294 N 0.53032 0.45493 0.76891 0.0
N295 N 0.46678 0.53852 0.68713 0.0
H296 H 0.4916 0.60571 0.34602 0.0
H297 H 0.5327 0.40343 0.18711 0.0
H298 H 0.48718 0.40682 0.36189 0.0
H299 H 0.4878 0.59723 0.17056 0.0
H300 H 0.5109 0.40218 0.25088 0.0
H301 H 0.4881 0.60315 0.28144 0.0
C302 C 0.4898 0.56151 0.33595 0.0
C303 C 0.49021 0.50641 0.35941 0.0
C304 C 0.50498 0.44478 0.2332 0.0
C305 C 0.48617 0.50312 0.28553 0.0
C306 C 0.51694 0.4454 0.19675 0.0
C307 C 0.51314 0.50075 0.17361 0.0
C308 C 0.48968 0.50003 0.24656 0.0
C309 C 0.49289 0.55387 0.18763 0.0
C310 C 0.48739 0.56008 0.29907 0.0
C311 C 0.48719 0.45047 0.34482 0.0
N312 N 0.48286 0.55241 0.22327 0.0
N313 N 0.48591 0.45026 0.30881 0.0
loop_
_geom_bond_atom_site_label_1
_geom_bond_atom_site_label_2
_geom_bond_distance
_geom_bond_site_symmetry_2
_ccdc_geom_bond_type
O0 Zn1 1.953 . S
O0 C16 1.225 1_565 S
Zn1 O0 1.953 . S
Zn1 O2 1.949 1_565 S
Zn1 O8 1.919 . S
Zn1 O13 1.924 1_565 S
O2 Zn1 1.949 1_545 S
O2 Zn3 1.923 1_544 S
O2 Zn4 1.950 1_455 S
O2 Zn5 1.945 1_554 S
Zn3 O2 1.923 1_566 S
Zn3 O6 1.933 . S
Zn3 O9 1.941 . S
Zn3 O10 1.965 1_455 S
Zn4 O2 1.950 1_655 S
Zn4 O11 1.938 1_545 S
Zn4 O12 1.906 . S
Zn4 O22 1.953 . S
Zn5 O2 1.945 1_556 S
Zn5 O7 1.932 . S
Zn5 O14 1.977 1_455 S
Zn5 O15 1.910 . S
O6 Zn3 1.933 . S
O6 C17 1.226 1_565 S
O7 Zn5 1.932 . S
O7 C17 1.307 . S
O8 Zn1 1.919 . S
O8 C19 1.238 1_554 S
O9 Zn3 1.941 . S
O9 C19 1.291 . S
O10 Zn3 1.965 1_655 S
O10 C18 1.303 1_556 S
O11 Zn4 1.938 1_565 S
O11 C18 1.247 . S
O12 Zn4 1.906 . S
O12 C20 1.304 1_554 S
O13 Zn1 1.924 1_545 S
O13 C21 1.311 . S
O14 Zn5 1.977 1_655 S
O14 C20 1.272 . S
O15 Zn5 1.910 . S
O15 C21 1.231 1_556 S
C16 O0 1.225 1_545 S
C16 O22 1.298 1_455 S
C17 O6 1.226 1_545 S
C17 O7 1.307 . S
C18 O10 1.303 1_554 S
C18 O11 1.247 . S
C19 O8 1.238 1_556 S
C19 O9 1.291 . S
C20 O12 1.304 1_556 S
C20 O14 1.272 . S
C21 O13 1.311 . S
C21 O15 1.231 1_554 S
O22 Zn4 1.953 . S
O22 C16 1.298 1_655 S
O23 Zn24 1.953 . S
O23 C39 1.225 . S
Zn24 O23 1.953 . S
Zn24 O25 1.949 . S
Zn24 O31 1.919 . S
Zn24 O36 1.924 . S
O25 Zn24 1.949 . S
O25 Zn26 1.923 . S
O25 Zn27 1.950 . S
O25 Zn28 1.945 . S
Zn26 O25 1.923 . S
Zn26 O29 1.933 . S
Zn26 O32 1.941 . S
Zn26 O33 1.965 . S
Zn27 O25 1.950 . S
Zn27 O34 1.938 . S
Zn27 O35 1.906 . S
Zn27 O45 1.953 . S
Zn28 O25 1.945 . S
Zn28 O30 1.932 . S
Zn28 O37 1.977 . S
Zn28 O38 1.910 . S
O29 Zn26 1.933 . S
O29 C40 1.226 . S
O30 Zn28 1.932 . S
O30 C40 1.307 . S
O31 Zn24 1.919 . S
O31 C42 1.253 . S
O32 Zn26 1.941 . S
O32 C42 1.283 . S
O33 Zn26 1.965 . S
O33 C41 1.303 . S
O34 Zn27 1.938 . S
O34 C41 1.247 . S
O35 Zn27 1.906 . S
O35 C43 1.304 . S
O36 Zn24 1.924 . S
O36 C44 1.311 . S
O37 Zn28 1.977 . S
O37 C43 1.272 . S
O38 Zn28 1.910 . S
O38 C44 1.231 . S
C39 O23 1.225 . S
C39 O45 1.298 . S
C40 O29 1.226 . S
C40 O30 1.307 . S
C41 O33 1.303 . S
C41 O34 1.247 . S
C42 O31 1.253 . S
C42 O32 1.283 . S
C43 O35 1.304 . S
C43 O37 1.272 . S
C44 O36 1.311 . S
C44 O38 1.231 . S
O45 Zn27 1.953 . S
O45 C39 1.298 . S
H46 C53 0.929 . S
H47 C56 0.930 . S
H48 C58 0.929 . S
H49 C50 0.969 . S
C50 H49 0.969 . S
C50 O51 1.550 . S
C50 H52 0.973 . S
O51 C50 1.550 . S
O51 C57 1.412 . S
H52 C50 0.973 . S
C53 H46 0.929 . S
C53 C54 1.400 . S
C53 C55 1.364 . S
C54 C53 1.400 . S
C54 C58 1.377 . S
C55 C53 1.364 . S
C55 C56 1.374 1_465 S
C56 H47 0.930 . S
C56 C55 1.374 1_645 S
C56 C57 1.383 . S
C57 O51 1.412 . S
C57 C56 1.383 . S
C57 C58 1.394 1_645 S
C58 H48 0.929 . S
C58 C54 1.377 . S
C58 C57 1.394 1_465 S
H59 C66 0.929 . S
H60 C69 0.930 1_655 S
H61 C71 0.929 . S
H62 C63 0.969 . S
C63 H62 0.969 . S
C63 O64 1.550 . S
C63 H65 0.973 . S
O64 C63 1.550 . S
O64 C70 1.412 1_665 S
H65 C63 0.973 . S
C66 H59 0.929 . S
C66 C67 1.400 . S
C66 C68 1.364 . S
C67 C66 1.400 . S
C67 C71 1.377 . S
C68 C66 1.364 . S
C68 C69 1.374 1_545 S
C69 H60 0.930 1_455 S
C69 C68 1.374 1_565 S
C69 C70 1.383 1_565 S
C70 O64 1.412 1_445 S
C70 C69 1.383 1_545 S
C70 C71 1.394 . S
C71 H61 0.929 . S
C71 C67 1.377 . S
C71 C70 1.394 . S
H72 C79 0.929 . S
H73 C82 0.930 . S
H74 C84 0.929 . S
H75 C76 0.969 . S
C76 H75 0.969 . S
C76 O77 1.550 . S
C76 H78 0.973 . S
O77 C76 1.550 . S
O77 C83 1.412 . S
H78 C76 0.973 . S
C79 H72 0.929 . S
C79 C80 1.400 . S
C79 C81 1.364 . S
C80 C79 1.400 . S
C80 C84 1.377 . S
C81 C79 1.364 . S
C81 C82 1.374 . S
C82 H73 0.930 . S
C82 C81 1.374 . S
C82 C83 1.383 . S
C83 O77 1.412 . S
C83 C82 1.383 . S
C83 C84 1.394 . S
C84 H74 0.929 . S
C84 C80 1.377 . S
C84 C83 1.394 . S
H85 C92 0.929 . S
H86 C95 0.930 . S
H87 C97 0.929 . S
H88 C89 0.969 . S
C89 H88 0.969 . S
C89 O90 1.550 . S
C89 H91 0.973 . S
O90 C89 1.550 . S
O90 C96 1.412 . S
H91 C89 0.973 . S
C92 H85 0.929 . S
C92 C93 1.400 . S
C92 C94 1.364 . S
C93 C92 1.400 . S
C93 C97 1.377 . S
C94 C92 1.364 . S
C94 C95 1.374 . S
C95 H86 0.930 . S
C95 C94 1.374 . S
C95 C96 1.383 . S
C96 O90 1.412 . S
C96 C95 1.383 . S
C96 C97 1.394 . S
C97 H87 0.929 . S
C97 C93 1.377 . S
C97 C96 1.394 . S
H98 C104 0.930 . S
H99 C108 0.930 . S
H100 C113 0.929 . S
H101 C111 0.929 . S
H102 C106 0.929 1_556 S
H103 C112 0.929 . S
C104 H98 0.930 . S
C104 C105 1.367 . S
C104 C112 1.378 . S
C105 C104 1.367 . S
C105 C113 1.433 1_554 S
C106 H102 0.929 1_554 S
C106 C108 1.378 . S
C106 C110 1.350 . S
C107 C110 1.463 . S
C107 C112 1.350 . S
C107 N115 1.427 . S
C108 H99 0.930 . S
C108 C106 1.378 . S
C108 C109 1.367 . S
C109 C108 1.367 . S
C109 C111 1.433 . S
C110 C106 1.350 . S
C110 C107 1.463 . S
C110 N114 1.427 . S
C111 H101 0.929 . S
C111 C109 1.433 . S
C111 N114 1.384 . S
C112 H103 0.929 . S
C112 C104 1.378 . S
C112 C107 1.350 . S
C113 H100 0.929 . S
C113 C105 1.433 1_556 S
C113 N115 1.384 1_556 S
N114 C110 1.427 . S
N114 C111 1.384 . S
N115 C107 1.427 . S
N115 C113 1.384 1_554 S
H116 C122 0.930 . S
H117 C126 0.930 . S
H118 C131 0.929 . S
H119 C129 0.929 . S
H120 C124 0.929 1_554 S
H121 C130 0.929 . S
C122 H116 0.930 . S
C122 C123 1.367 . S
C122 C130 1.378 . S
C123 C122 1.367 . S
C123 C131 1.433 1_556 S
C124 H120 0.929 1_556 S
C124 C126 1.378 . S
C124 C128 1.350 . S
C125 C128 1.463 . S
C125 C130 1.350 . S
C125 N133 1.427 1_556 S
C126 H117 0.930 . S
C126 C124 1.378 . S
C126 C127 1.367 . S
C127 C126 1.367 . S
C127 C129 1.433 . S
C128 C124 1.350 . S
C128 C125 1.463 . S
C128 N132 1.427 . S
C129 H119 0.929 . S
C129 C127 1.433 . S
C129 N132 1.384 . S
C130 H121 0.929 . S
C130 C122 1.378 . S
C130 C125 1.350 . S
C131 H118 0.929 . S
C131 C123 1.433 1_554 S
C131 N133 1.384 . S
N132 C128 1.427 . S
N132 C129 1.384 . S
N133 C125 1.427 1_554 S
N133 C131 1.384 . S
H134 C140 0.930 1_556 S
H135 C144 0.930 . S
H136 C149 0.929 . S
H137 C147 0.929 . S
H138 C142 0.929 . S
H139 C148 0.929 1_556 S
C140 H134 0.930 1_554 S
C140 C141 1.367 . S
C140 C148 1.378 . S
C141 C140 1.367 . S
C141 C149 1.433 . S
C142 H138 0.929 . S
C142 C144 1.378 . S
C142 C146 1.350 . S
C143 C146 1.463 . S
C143 C148 1.350 . S
C143 N151 1.427 . S
C144 H135 0.930 . S
C144 C142 1.378 . S
C144 C145 1.367 . S
C145 C144 1.367 . S
C145 C147 1.433 . S
C146 C142 1.350 . S
C146 C143 1.463 . S
C146 N150 1.427 . S
C147 H137 0.929 . S
C147 C145 1.433 . S
C147 N150 1.384 . S
C148 H139 0.929 1_554 S
C148 C140 1.378 . S
C148 C143 1.350 . S
C149 H136 0.929 . S
C149 C141 1.433 . S
C149 N151 1.384 . S
N150 C146 1.427 . S
N150 C147 1.384 . S
N151 C143 1.427 . S
N151 C149 1.384 . S
H152 C158 0.930 1_554 S
H153 C162 0.930 . S
H154 C167 0.929 . S
H155 C165 0.929 . S
H156 C160 0.929 . S
H157 C166 0.935 . S
C158 H152 0.930 1_556 S
C158 C159 1.367 . S
C158 C166 1.378 . S
C159 C158 1.367 . S
C159 C167 1.433 . S
C160 H156 0.929 . S
C160 C162 1.378 . S
C160 C164 1.350 . S
C161 C164 1.463 . S
C161 C166 1.350 . S
C161 N169 1.427 . S
C162 H153 0.930 . S
C162 C160 1.378 . S
C162 C163 1.367 . S
C163 C162 1.367 . S
C163 C165 1.433 . S
C164 C160 1.350 . S
C164 C161 1.463 . S
C164 N168 1.427 . S
C165 H155 0.929 . S
C165 C163 1.433 . S
C165 N168 1.384 . S
C166 H157 0.935 . S
C166 C158 1.378 . S
C166 C161 1.350 . S
C167 H154 0.929 . S
C167 C159 1.433 . S
C167 N169 1.384 . S
N168 C164 1.427 . S
N168 C165 1.384 . S
N169 C161 1.427 . S
N169 C167 1.384 . S
H170 C176 0.930 . S
H171 C180 0.930 . S
H172 C185 0.929 . S
H173 C183 0.929 . S
H174 C178 0.929 . S
H175 C184 0.929 . S
C176 H170 0.930 . S
C176 C177 1.367 . S
C176 C184 1.378 . S
C177 C176 1.367 . S
C177 C185 1.433 . S
C178 H174 0.929 . S
C178 C180 1.378 . S
C178 C182 1.350 . S
C179 C182 1.463 . S
C179 C184 1.350 . S
C179 N187 1.427 . S
C180 H171 0.930 . S
C180 C178 1.378 . S
C180 C181 1.367 . S
C181 C180 1.367 . S
C181 C183 1.433 . S
C182 C178 1.350 . S
C182 C179 1.463 . S
C182 N186 1.427 . S
C183 H173 0.929 . S
C183 C181 1.433 . S
C183 N186 1.384 . S
C184 H175 0.929 . S
C184 C176 1.378 . S
C184 C179 1.350 . S
C185 H172 0.929 . S
C185 C177 1.433 . S
C185 N187 1.384 . S
N186 C182 1.427 . S
N186 C183 1.384 . S
N187 C179 1.427 . S
N187 C185 1.384 . S
H188 C194 0.930 . S
H189 C198 0.930 . S
H190 C203 0.929 . S
H191 C201 0.929 . S
H192 C196 0.929 . S
H193 C202 0.929 . S
C194 H188 0.930 . S
C194 C195 1.367 . S
C194 C202 1.378 . S
C195 C194 1.367 . S
C195 C203 1.433 . S
C196 H192 0.929 . S
C196 C198 1.378 . S
C196 C200 1.350 . S
C197 C200 1.463 . S
C197 C202 1.350 . S
C197 N205 1.427 . S
C198 H189 0.930 . S
C198 C196 1.378 . S
C198 C199 1.367 . S
C199 C198 1.367 . S
C199 C201 1.433 . S
C200 C196 1.350 . S
C200 C197 1.463 . S
C200 N204 1.427 . S
C201 H191 0.929 . S
C201 C199 1.433 . S
C201 N204 1.384 . S
C202 H193 0.929 . S
C202 C194 1.378 . S
C202 C197 1.350 . S
C203 H190 0.929 . S
C203 C195 1.433 . S
C203 N205 1.384 . S
N204 C200 1.427 . S
N204 C201 1.384 . S
N205 C197 1.427 . S
N205 C203 1.384 . S
H206 C212 0.930 . S
H207 C216 0.930 . S
H208 C221 0.929 . S
H209 C219 0.929 . S
H210 C214 0.929 . S
H211 C220 0.929 . S
C212 H206 0.930 . S
C212 C213 1.367 . S
C212 C220 1.378 . S
C213 C212 1.367 . S
C213 C221 1.433 . S
C214 H210 0.929 . S
C214 C216 1.378 . S
C214 C218 1.350 . S
C215 C218 1.463 . S
C215 C220 1.350 . S
C215 N223 1.427 . S
C216 H207 0.930 . S
C216 C214 1.378 . S
C216 C217 1.367 . S
C217 C216 1.367 . S
C217 C219 1.433 . S
C218 C214 1.350 . S
C218 C215 1.463 . S
C218 N222 1.427 . S
C219 H209 0.929 . S
C219 C217 1.433 . S
C219 N222 1.384 . S
C220 H211 0.929 . S
C220 C212 1.378 . S
C220 C215 1.350 . S
C221 H208 0.929 . S
C221 C213 1.433 . S
C221 N223 1.384 . S
N222 C218 1.427 . S
N222 C219 1.384 . S
N223 C215 1.427 . S
N223 C221 1.384 . S
H224 C230 0.930 . S
H225 C234 0.930 . S
H226 C239 0.929 . S
H227 C237 0.929 . S
H228 C232 0.929 . S
H229 C238 0.929 . S
C230 H224 0.930 . S
C230 C231 1.367 . S
C230 C238 1.378 . S
C231 C230 1.367 . S
C231 C239 1.433 . S
C232 H228 0.929 . S
C232 C234 1.378 . S
C232 C236 1.350 . S
C233 C236 1.463 . S
C233 C238 1.350 . S
C233 N241 1.427 . S
C234 H225 0.930 . S
C234 C232 1.378 . S
C234 C235 1.367 . S
C235 C234 1.367 . S
C235 C237 1.433 . S
C236 C232 1.350 . S
C236 C233 1.463 . S
C236 N240 1.427 . S
C237 H227 0.929 . S
C237 C235 1.433 . S
C237 N240 1.384 . S
C238 H229 0.929 . S
C238 C230 1.378 . S
C238 C233 1.350 . S
C239 H226 0.929 . S
C239 C231 1.433 . S
C239 N241 1.384 . S
N240 C236 1.427 . S
N240 C237 1.384 . S
N241 C233 1.427 . S
N241 C239 1.384 . S
H242 C248 0.930 . S
H243 C252 0.930 . S
H244 C257 0.929 . S
H245 C255 0.929 . S
H246 C250 0.929 . S
H247 C256 0.929 . S
C248 H242 0.930 . S
C248 C249 1.367 . S
C248 C256 1.378 . S
C249 C248 1.367 . S
C249 C257 1.433 1_465 S
C250 H246 0.929 . S
C250 C252 1.378 . S
C250 C254 1.350 1_645 S
C251 C254 1.463 . S
C251 C256 1.350 . S
C251 N259 1.427 1_465 S
C252 H243 0.930 . S
C252 C250 1.378 . S
C252 C253 1.367 1_645 S
C253 C252 1.367 1_465 S
C253 C255 1.433 . S
C254 C250 1.350 1_465 S
C254 C251 1.463 . S
C254 N258 1.427 . S
C255 H245 0.929 . S
C255 C253 1.433 . S
C255 N258 1.384 . S
C256 H247 0.929 . S
C256 C248 1.378 . S
C256 C251 1.350 . S
C257 H244 0.929 . S
C257 C249 1.433 1_645 S
C257 N259 1.384 . S
N258 C254 1.427 . S
N258 C255 1.384 . S
N259 C251 1.427 1_645 S
N259 C257 1.384 . S
H260 C266 0.930 . S
H261 C270 0.930 . S
H262 C275 0.929 . S
H263 C273 0.928 1_565 S
H264 C268 0.929 . S
H265 C274 0.934 . S
C266 H260 0.930 . S
C266 C267 1.367 1_655 S
C266 C274 1.378 . S
C267 C266 1.367 1_455 S
C267 C275 1.433 . S
C268 H264 0.929 . S
C268 C270 1.378 . S
C268 C272 1.350 . S
C269 C272 1.463 . S
C269 C274 1.350 1_455 S
C269 N277 1.427 . S
C270 H261 0.930 . S
C270 C268 1.378 . S
C270 C271 1.367 . S
C271 C270 1.367 . S
C271 C273 1.433 1_455 S
C272 C268 1.350 . S
C272 C269 1.463 . S
C272 N276 1.427 1_455 S
C273 H263 0.928 1_545 S
C273 C271 1.433 1_655 S
C273 N276 1.384 . S
C274 H265 0.934 . S
C274 C266 1.378 . S
C274 C269 1.350 1_655 S
C275 H262 0.929 . S
C275 C267 1.433 . S
C275 N277 1.384 . S
N276 C272 1.427 1_655 S
N276 C273 1.384 . S
N277 C269 1.427 . S
N277 C275 1.384 . S
H278 C284 0.930 . S
H279 C288 0.930 . S
H280 C293 0.929 . S
H281 C291 0.929 . S
H282 C286 0.929 . S
H283 C292 0.929 . S
C284 H278 0.930 . S
C284 C285 1.367 . S
C284 C292 1.378 . S
C285 C284 1.367 . S
C285 C293 1.433 . S
C286 H282 0.929 . S
C286 C288 1.378 . S
C286 C290 1.350 . S
C287 C290 1.463 . S
C287 C292 1.350 . S
C287 N295 1.427 . S
C288 H279 0.930 . S
C288 C286 1.378 . S
C288 C289 1.367 . S
C289 C288 1.367 . S
C289 C291 1.433 . S
C290 C286 1.350 . S
C290 C287 1.463 . S
C290 N294 1.427 . S
C291 H281 0.929 . S
C291 C289 1.433 . S
C291 N294 1.384 . S
C292 H283 0.929 . S
C292 C284 1.378 . S
C292 C287 1.350 . S
C293 H280 0.929 . S
C293 C285 1.433 . S
C293 N295 1.384 . S
N294 C290 1.427 . S
N294 C291 1.384 . S
N295 C287 1.427 . S
N295 C293 1.384 . S
H296 C302 0.930 . S
H297 C306 0.930 . S
H298 C311 0.929 . S
H299 C309 0.929 . S
H300 C304 0.929 . S
H301 C310 0.929 . S
C302 H296 0.930 . S
C302 C303 1.367 . S
C302 C310 1.378 . S
C303 C302 1.367 . S
C303 C311 1.433 . S
C304 H300 0.929 . S
C304 C306 1.378 . S
C304 C308 1.350 . S
C305 C308 1.463 . S
C305 C310 1.350 . S
C305 N313 1.427 . S
C306 H297 0.930 . S
C306 C304 1.378 . S
C306 C307 1.367 . S
C307 C306 1.367 . S
C307 C309 1.433 . S
C308 C304 1.350 . S
C308 C305 1.463 . S
C308 N312 1.427 . S
C309 H299 0.929 . S
C309 C307 1.433 . S
C309 N312 1.384 . S
C310 H301 0.929 . S
C310 C302 1.378 . S
C310 C305 1.350 . S
C311 H298 0.929 . S
C311 C303 1.433 . S
C311 N313 1.384 . S
N312 C308 1.427 . S
N312 C309 1.384 . S
N313 C305 1.427 . S
N313 C311 1.384 . S
C109 C89 1.337 . S
C105 C21 1.417 . S
C123 C19 1.422 . S
C127 C76 1.338 . S
C141 C18 1.478 . S
C145 C93 1.497 . S
C159 C20 1.509 . S
C163 C80 1.509 . S
C177 C44 1.414 . S
C181 C63 1.324 . S
C195 C42 1.414 . S
C199 C50 1.338 . S
C217 C67 1.500 . S
C213 C41 1.485 . S
C235 C54 1.508 . S
C231 C43 1.510 . S
C249 C16 1.528 1_565 S
C253 C55 1.526 . S
C267 C17 1.493 . S
C271 C68 1.491 . S
C289 C81 1.526 . S
C285 C39 1.528 . S
C303 C40 1.495 . S
C307 C94 1.494 . S
