# Generated by pormake.
# Topology rtl, (3,6)-cn, num edge types: 1
# Building blocks:
#     Node 0, Type 0, BuildingBlock: INOVEN_clean_linker_0, # of connection points: 3
#     Node 1, Type 0, BuildingBlock: INOVEN_clean_linker_0, # of connection points: 3
#     Node 2, Type 0, BuildingBlock: INOVEN_clean_linker_0, # of connection points: 3
#     Node 3, Type 0, BuildingBlock: INOVEN_clean_linker_0, # of connection points: 3
#     Node 4, Type 1, BuildingBlock: KUMJIN_clean_sbu_1, # of connection points: 6
#     Node 5, Type 1, BuildingBlock: KUMJIN_clean_sbu_1, # of connection points: 6
#     Edge 6, Type (0, 1), BuildingBlock: OJICUG_clean_linker_0, # of connection points: 2
#     Edge 7, Type (0, 1), BuildingBlock: OJICUG_clean_linker_0, # of connection points: 2
#     Edge 8, Type (0, 1), BuildingBlock: OJICUG_clean_linker_0, # of connection points: 2
#     Edge 9, Type (0, 1), BuildingBlock: OJICUG_clean_linker_0, # of connection points: 2
#     Edge 10, Type (0, 1), BuildingBlock: OJICUG_clean_linker_0, # of connection points: 2
#     Edge 11, Type (0, 1), BuildingBlock: OJICUG_clean_linker_0, # of connection points: 2
#     Edge 12, Type (0, 1), BuildingBlock: OJICUG_clean_linker_0, # of connection points: 2
#     Edge 13, Type (0, 1), BuildingBlock: OJICUG_clean_linker_0, # of connection points: 2
#     Edge 14, Type (0, 1), BuildingBlock: OJICUG_clean_linker_0, # of connection points: 2
#     Edge 15, Type (0, 1), BuildingBlock: OJICUG_clean_linker_0, # of connection points: 2
#     Edge 16, Type (0, 1), BuildingBlock: OJICUG_clean_linker_0, # of connection points: 2
#     Edge 17, Type (0, 1), BuildingBlock: OJICUG_clean_linker_0, # of connection points: 2
# Relax obj value: 0.048
# Max RMSD: 0.240
# Mean RMSD: 0.166
data_MOF--net-rtl--node1-KUMJIN_clean_sbu_1--node2-INOVEN_clean_linker_0--edge1-OJICUG_clean_linker_0
_symmetry_space_group_name_H-M    P1
_symmetry_Int_Tables_number       1
_symmetry_cell_setting            triclinic
loop_
_symmetry_equiv_pos_as_xyz
'x, y, z'
_cell_length_a     25.873184
_cell_length_b     26.297952
_cell_length_c     20.670672
_cell_angle_alpha  74.258797
_cell_angle_beta   100.08653
_cell_angle_gamma 91.535174
loop_
_atom_site_label
_atom_site_type_symbol
_atom_site_fract_x
_atom_site_fract_y
_atom_site_fract_z
_atom_type_partial_charge
H0 H 0.25106 0.84774 0.90009 0.0
H1 H 0.16316 0.9357 0.99238 0.0
H2 H 0.28827 0.82844 0.11623 0.0
N3 N 0.31031 0.794 0.01019 0.0
N4 N 0.33452 0.76445 0.0642 0.0
C5 C 0.24422 0.85881 0.94481 0.0
C6 C 0.2043 0.89546 0.93879 0.0
C7 C 0.27428 0.83439 0.00812 0.0
C8 C 0.26531 0.84778 0.06695 0.0
C9 C 0.2257 0.88539 0.06189 0.0
C10 C 0.19572 0.90911 0.99711 0.0
H11 H 0.70508 0.73999 0.79242 0.0
H12 H 0.59917 0.65272 0.67934 0.0
H13 H 0.68811 0.77778 0.5738 0.0
N14 N 0.74597 0.7974 0.68412 0.0
N15 N 0.76641 0.81258 0.63172 0.0
C16 C 0.68624 0.73357 0.74428 0.0
C17 C 0.64792 0.69409 0.74315 0.0
C18 C 0.70226 0.76279 0.68326 0.0
C19 C 0.67764 0.75393 0.62101 0.0
C20 C 0.64241 0.71281 0.61887 0.0
C21 C 0.62676 0.68423 0.68011 0.0
H22 H 0.73895 0.18103 0.99274 0.0
H23 H 0.86602 0.08163 0.12723 0.0
H24 H 0.77155 0.1742 0.20448 0.0
N25 N 0.71705 0.22668 0.08202 0.0
N26 N 0.7105 0.24759 0.12752 0.0
C27 C 0.76242 0.16418 0.04229 0.0
C28 C 0.80275 0.12621 0.05189 0.0
C29 C 0.75272 0.18311 0.09625 0.0
C30 C 0.78065 0.16101 0.16245 0.0
C31 C 0.8208 0.12297 0.17433 0.0
C32 C 0.83197 0.10689 0.11854 0.0
H33 H 0.33409 0.28854 0.35126 0.0
H34 H 0.43792 0.372 0.47252 0.0
H35 H 0.33779 0.25334 0.56716 0.0
N36 N 0.28879 0.23132 0.45281 0.0
N37 N 0.26938 0.20963 0.50447 0.0
C38 C 0.35095 0.29503 0.40005 0.0
C39 C 0.39052 0.33281 0.40441 0.0
C40 C 0.33143 0.26652 0.45842 0.0
C41 C 0.35192 0.27591 0.52185 0.0
C42 C 0.38832 0.31571 0.52722 0.0
C43 C 0.40873 0.34241 0.46856 0.0
Eu44 Eu 0.04862 0.95867 0.5215 0.0
C45 C 0.93635 0.17816 0.50561 0.0
N46 N 0.9847 0.15627 0.53493 0.0
C47 C 0.02402 0.24097 0.50258 0.0
C48 C 0.93016 0.23276 0.47297 0.0
C49 C 0.02821 0.18682 0.53487 0.0
C50 C 0.9748 0.26406 0.47138 0.0
C51 C 0.84216 0.16768 0.47816 0.0
C52 C 0.89277 0.14586 0.50813 0.0
C53 C 0.83593 0.22209 0.44607 0.0
C54 C 0.87978 0.25449 0.44341 0.0
Eu55 Eu 0.98615 0.06585 0.59408 0.0
N56 N 0.89991 0.0931 0.53859 0.0
C57 C 0.79923 0.13414 0.48129 0.0
C58 C 0.85808 0.06052 0.54337 0.0
C59 C 0.80724 0.08038 0.51417 0.0
H60 H 0.06594 0.17007 0.56201 0.0
H61 H 0.77416 0.05431 0.51789 0.0
H62 H 0.97111 0.85242 0.54522 0.0
H63 H 0.25622 0.97676 0.62194 0.0
H64 H 0.8634 0.01953 0.57102 0.0
H65 H 0.75974 0.14942 0.45902 0.0
H66 H 0.16928 0.00819 0.55562 0.0
H67 H 0.05864 0.265 0.50283 0.0
H68 H 0.79732 0.2395 0.423 0.0
H69 H 0.87429 0.29638 0.41842 0.0
H70 H 0.9786 0.758 0.60786 0.0
H71 H 0.97163 0.30615 0.4469 0.0
H72 H 0.27017 0.88301 0.68762 0.0
N73 N 0.05005 0.86867 0.5818 0.0
C74 C 0.09751 0.84863 0.61841 0.0
C75 C 0.01219 0.78312 0.61176 0.0
C76 C 0.10387 0.79452 0.65358 0.0
C77 C 1.00775 0.83687 0.57735 0.0
C78 C 0.06042 0.76183 0.65008 0.0
N79 N 0.13255 0.93488 0.58832 0.0
C80 C 0.17386 0.96817 0.58667 0.0
C81 C 0.18949 0.86235 0.65872 0.0
C82 C 0.1399 0.88244 0.62132 0.0
C83 C 0.23144 0.89699 0.65976 0.0
C84 C 0.22364 0.95002 0.62315 0.0
H85 H 0.0638 0.72005 0.67631 0.0
H86 H 0.15884 0.73315 0.71797 0.0
H87 H 0.23373 0.79236 0.72219 0.0
O88 O 0.0912 0.97318 0.43459 0.0
O89 O 0.05803 0.94347 0.63716 0.0
O90 O 0.06342 0.02669 0.65108 0.0
O91 O 0.05033 0.90021 0.46543 0.0
O92 O 0.07792 0.04344 0.4901 0.0
O93 O 0.07124 0.07302 0.58304 0.0
O94 O 0.94905 0.05164 0.6867 0.0
O95 O 0.96811 0.07933 0.47823 0.0
O96 O 0.97236 0.9971 0.45796 0.0
O97 O 0.99822 0.12016 0.6564 0.0
O98 O 0.9551 0.98191 0.62177 0.0
O99 O 0.96243 0.94867 0.53071 0.0
C100 C 0.07166 0.9757 0.6755 0.0
C101 C 0.0711 0.921 0.35435 0.0
C102 C 0.10837 0.90792 0.2593 0.0
C103 C 0.05923 0.89171 0.23193 0.0
C104 C 0.02203 0.90537 0.32552 0.0
C105 C 0.0163 0.89075 0.26468 0.0
C106 C 0.11425 0.92283 0.32051 0.0
C107 C 0.09114 0.0763 0.52789 0.0
C108 C 0.07988 0.92712 0.42416 0.0
C109 C 0.15322 0.77466 0.69091 0.0
C110 C 0.19587 0.80841 0.69337 0.0
C111 C 0.95655 0.047 0.43907 0.0
C112 C 0.96504 0.11305 0.75957 0.0
C113 C 0.91934 0.11857 0.85075 0.0
C114 C 0.95732 0.15334 0.86988 0.0
C115 C 1.00285 0.14774 0.77988 0.0
C116 C 0.92311 0.0982 0.7955 0.0
C117 C 0.9989 0.16771 0.83468 0.0
C118 C 0.94069 0.9492 0.58384 0.0
C119 C 0.96975 0.09439 0.69982 0.0
H120 H 0.05423 0.87943 0.18526 0.0
H121 H 0.98855 0.9028 0.35116 0.0
H122 H 0.9787 0.87768 0.24346 0.0
H123 H 0.15252 0.93386 0.3429 0.0
H124 H 0.95462 0.1695 0.9122 0.0
H125 H 0.0356 0.15962 0.75327 0.0
H126 H 0.8935 0.07179 0.78023 0.0
H127 H 0.02804 0.19454 0.84975 0.0
Eu128 Eu 0.46748 0.48909 1.00115 0.0
C129 C 0.68294 0.57784 0.10197 0.0
N130 N 0.66067 0.53065 0.12706 0.0
C131 C 0.74331 0.48568 0.14247 0.0
C132 C 0.73614 0.58021 0.09404 0.0
C133 C 0.69082 0.48536 0.15058 0.0
C134 C 0.76589 0.53319 0.11316 0.0
C135 C 0.67681 0.67392 0.067 0.0
C136 C 0.65372 0.6244 0.0887 0.0
C137 C 0.7291 0.67613 0.0567 0.0
C138 C 0.75865 0.62944 0.07014 0.0
Eu139 Eu 0.57281 0.53618 0.14331 0.0
N140 N 0.60308 0.62138 0.09893 0.0
C141 C 0.64699 0.71983 0.0579 0.0
C142 C 0.57479 0.66577 0.0939 0.0
C143 C 0.59594 0.7157 0.07209 0.0
H144 H 0.67558 0.44923 0.17857 0.0
H145 H 0.57311 0.75091 0.0669 0.0
H146 H 0.36771 0.57877 0.96172 0.0
H147 H 0.46393 0.27348 0.08892 0.0
H148 H 0.53596 0.66241 0.1068 0.0
H149 H 0.6634 0.75857 0.04141 0.0
H150 H 0.50412 0.35988 0.0501 0.0
H151 H 0.76672 0.44947 0.16065 0.0
H152 H 0.74743 0.71381 0.03977 0.0
H153 H 0.79939 0.63188 0.06363 0.0
H154 H 0.27477 0.581 0.97261 0.0
H155 H 0.80691 0.53343 0.10819 0.0
H156 H 0.37065 0.2689 0.10227 0.0
N157 N 0.37828 0.49633 0.00936 0.0
C158 C 0.35422 0.44981 0.03196 0.0
C159 C 0.29681 0.54395 0.99047 0.0
C160 C 0.30041 0.44906 0.03669 0.0
C161 C 0.34998 0.54272 0.98587 0.0
C162 C 0.27202 0.497 0.0167 0.0
N163 N 0.43513 0.40412 0.04434 0.0
C164 C 0.46389 0.35863 0.05741 0.0
C165 C 0.35858 0.35384 0.07098 0.0
C166 C 0.38317 0.40254 0.04922 0.0
C167 C 0.38821 0.30706 0.08575 0.0
C168 C 0.44096 0.30949 0.07852 0.0
H169 H 0.23066 0.49803 0.01958 0.0
H170 H 0.2351 0.39939 0.06392 0.0
H171 H 0.28588 0.31615 0.0937 0.0
O172 O 0.45226 0.44505 0.92371 0.0
O173 O 0.45153 0.46773 0.11076 0.0
O174 O 0.53221 0.45937 0.18286 0.0
O175 O 0.43205 0.52952 0.89577 0.0
O176 O 0.54702 0.44707 0.02822 0.0
O177 O 0.58395 0.45182 0.13764 0.0
O178 O 0.55296 0.56635 0.22694 0.0
O179 O 0.56238 0.58412 0.03155 0.0
O180 O 0.54706 0.51918 0.97727 0.0
O181 O 0.63011 0.53233 0.23398 0.0
O182 O 0.48784 0.56237 0.12322 0.0
O183 O 0.46039 0.57391 0.00796 0.0
C184 C 0.48189 0.44918 0.17058 0.0
C185 C 0.41188 0.48467 0.80511 0.0
C186 C 0.39919 0.43917 0.71491 0.0
C187 C 0.36778 0.48196 0.67199 0.0
C188 C 0.38045 0.52699 0.76082 0.0
C189 C 0.35858 0.52551 0.69479 0.0
C190 C 0.42138 0.44044 0.78177 0.0
C191 C 0.57969 0.42988 0.0865 0.0
C192 C 0.432 0.48631 0.87609 0.0
C193 C 0.27633 0.40063 0.05984 0.0
C194 C 0.30526 0.35321 0.07674 0.0
C195 C 0.56527 0.56583 0.97924 0.0
C196 C 0.6139 0.55011 0.33566 0.0
C197 C 0.62442 0.59075 0.42992 0.0
C198 C 0.6553 0.54708 0.47145 0.0
C199 C 0.64449 0.50644 0.37838 0.0
C200 C 0.60354 0.59223 0.36193 0.0
C201 C 0.66503 0.50509 0.44589 0.0
C202 C 0.46085 0.58869 0.06431 0.0
C203 C 0.60039 0.5561 0.26169 0.0
H204 H 0.35006 0.48145 0.62061 0.0
H205 H 0.37199 0.56101 0.77757 0.0
H206 H 0.33401 0.5581 0.66128 0.0
H207 H 0.44505 0.40712 0.81537 0.0
H208 H 0.67258 0.54596 0.52355 0.0
H209 H 0.65399 0.47414 0.35898 0.0
H210 H 0.58147 0.62688 0.32894 0.0
H211 H 0.68951 0.47194 0.4781 0.0
C212 C 0.19826 0.16154 0.44857 0.0
C213 C 0.22601 0.17535 0.50616 0.0
H214 H 0.13314 0.11851 0.41024 0.0
C215 C 0.20984 0.1558 0.56907 0.0
H216 H 0.21004 0.17632 0.39923 0.0
C217 C 0.16651 0.12364 0.57535 0.0
C218 C 0.13782 0.10991 0.51845 0.0
H219 H 0.23086 0.16605 0.61379 0.0
H220 H 0.15558 0.10949 0.62533 0.0
C221 C 0.15444 0.12858 0.45491 0.0
C222 C 0.39234 0.68875 0.12441 0.0
C223 C 0.36788 0.72276 0.06279 0.0
H224 H 0.44045 0.61963 0.17346 0.0
C225 C 0.37508 0.71337 1.0009 0.0
H226 H 0.38727 0.69533 0.17245 0.0
C227 C 0.40562 0.67019 1.00109 0.0
C228 C 0.42914 0.63526 0.06301 0.0
H229 H 0.35678 0.73904 0.95229 0.0
H230 H 0.41062 0.66416 0.95275 0.0
C231 C 0.42261 0.64543 0.12467 0.0
C232 C 0.83462 0.87048 0.67395 0.0
C233 C 0.80997 0.84647 0.62391 0.0
H234 H 0.89572 0.92223 0.70038 0.0
C235 C 0.82838 0.85642 0.56201 0.0
H236 H 0.821 0.86358 0.72216 0.0
C237 C 0.87054 0.88956 0.54937 0.0
C238 C 0.89586 0.9137 0.59877 0.0
H239 H 0.80964 0.83834 0.52288 0.0
H240 H 0.88295 0.89652 0.50036 0.0
C241 C 0.87726 0.90404 0.66127 0.0
C242 C 0.65187 0.31972 0.04911 0.0
C243 C 0.67675 0.29219 0.11509 0.0
H244 H 0.60174 0.38522 0.9883 0.0
C245 C 0.66911 0.30976 0.17085 0.0
H246 H 0.65732 0.30713 0.005 0.0
C247 C 0.63706 0.35388 0.16161 0.0
C248 C 0.61266 0.38223 0.09588 0.0
H249 H 0.68806 0.28899 0.22191 0.0
H250 H 0.63145 0.36572 0.2062 0.0
C251 C 0.62008 0.36441 0.03965 0.0
C252 C 0.18935 0.94521 0.12076 0.0
C253 C 0.21004 0.89538 0.12373 0.0
H254 H 0.14069 0.98828 0.16268 0.0
C255 C 0.20718 0.85321 0.18187 0.0
H256 H 0.19211 0.979 0.07783 0.0
C257 C 0.1786 0.85907 0.23112 0.0
C258 C 0.15272 0.90714 0.22325 0.0
H259 H 0.2227 0.81435 0.18638 0.0
H260 H 0.17294 0.82481 0.27213 0.0
C261 C 0.16047 0.95086 0.16972 0.0
C262 C 0.62062 0.68305 0.85825 0.0
C263 C 0.631 0.66079 0.80704 0.0
H264 H 0.59022 0.67135 0.95115 0.0
C265 C 0.62158 0.60652 0.81502 0.0
H266 H 0.62692 0.72465 0.85381 0.0
C267 C 0.60065 0.57601 0.87079 0.0
C268 C 0.58898 0.59848 0.92104 0.0
H269 H 0.63009 0.58737 0.77772 0.0
H270 H 0.59342 0.53468 0.87425 0.0
C271 C 0.59957 0.65236 0.91426 0.0
C272 C 0.86496 0.13517 0.28833 0.0
C273 C 0.85382 0.10271 0.24369 0.0
H274 H 0.90694 0.14416 0.38278 0.0
C275 C 0.87659 0.05146 0.26478 0.0
H276 H 0.84937 0.1752 0.27412 0.0
C277 C 0.91001 0.03371 0.32773 0.0
C278 C 0.92129 0.06638 0.37196 0.0
H279 H 0.86865 0.02468 0.23281 0.0
H280 H 0.92718 0.99429 0.34142 0.0
C281 C 0.89838 0.11735 0.35123 0.0
C282 C 0.44527 0.36107 0.60773 0.0
C283 C 0.39882 0.33456 0.59073 0.0
H284 H 0.48226 0.41518 0.66218 0.0
C285 C 0.3587 0.33303 0.62953 0.0
H286 H 0.47802 0.36173 0.58137 0.0
C287 C 0.3623 0.36195 0.67761 0.0
C288 C 0.40571 0.39357 0.68783 0.0
H289 H 0.32203 0.31369 0.61886 0.0
H290 H 0.32877 0.36374 0.70189 0.0
C291 C 0.44838 0.39086 0.65523 0.0
C292 C 0.66633 0.69807 0.5121 0.0
C293 C 0.62901 0.69431 0.55548 0.0
H294 H 0.69258 0.66919 0.43574 0.0
C295 C 0.58314 0.6657 0.54314 0.0
H296 H 0.70245 0.71911 0.51915 0.0
C297 C 0.57838 0.63593 0.49562 0.0
C298 C 0.61864 0.63551 0.45837 0.0
H299 H 0.55245 0.66328 0.57326 0.0
H300 H 0.54539 0.61 0.492 0.0
C301 C 0.66095 0.66922 0.46388 0.0
C302 C 0.80585 0.14489 0.92486 0.0
C303 C 0.81955 0.11213 0.99229 0.0
H304 H 0.82618 0.17071 0.82503 0.0
C305 C 0.85567 0.06991 1.00298 0.0
H306 H 0.77708 0.1766 0.91138 0.0
C307 C 0.88477 0.06777 0.95284 0.0
C308 C 0.87612 0.1057 0.88966 0.0
H309 H 0.86475 0.04037 0.05142 0.0
H310 H 0.91706 0.03937 0.96553 0.0
C311 C 0.83384 0.14149 0.87413 0.0
C312 C 0.4152 0.34131 0.28822 0.0
C313 C 0.41198 0.36353 0.34236 0.0
H314 H 0.4403 0.3508 0.19219 0.0
C315 C 0.431 0.41512 0.33736 0.0
H316 H 0.40193 0.30169 0.28979 0.0
C317 C 0.45414 0.44243 0.2819 0.0
C318 C 0.45738 0.41983 0.22873 0.0
H319 H 0.42791 0.43507 0.37594 0.0
H320 H 0.46899 0.48163 0.28015 0.0
C321 C 0.43733 0.36934 0.23199 0.0
C322 C 0.1566 0.97042 0.84671 0.0
C323 C 0.16916 0.91626 0.87229 0.0
H324 H 0.11631 0.03183 0.76415 0.0
C325 C 0.14773 0.88158 0.83408 0.0
H326 H 0.17246 0.99795 0.87532 0.0
C327 C 0.11496 0.90069 0.77114 0.0
C328 C 0.10384 0.95507 0.74414 0.0
H329 H 0.15584 0.83944 0.85325 0.0
H330 H 0.09845 0.87269 0.74382 0.0
C331 C 0.1245 0.98971 0.78304 0.0
loop_
_geom_bond_atom_site_label_1
_geom_bond_atom_site_label_2
_geom_bond_distance
_geom_bond_site_symmetry_2
_ccdc_geom_bond_type
H0 C5 0.929 . S
H1 C10 0.931 . S
H2 C8 0.930 . S
N3 N4 1.234 . S
N3 C7 1.453 . S
N4 N3 1.234 . S
C5 H0 0.929 . S
C5 C6 1.373 . S
C5 C7 1.368 1_556 S
C6 C5 1.373 . S
C6 C10 1.397 1_556 S
C7 N3 1.453 . S
C7 C5 1.368 1_554 S
C7 C8 1.373 . S
C8 H2 0.930 . S
C8 C7 1.373 . S
C8 C9 1.371 . S
C9 C8 1.371 . S
C9 C10 1.383 . S
C10 H1 0.931 . S
C10 C6 1.397 1_554 S
C10 C9 1.383 . S
H11 C16 0.929 . S
H12 C21 0.931 . S
H13 C19 0.930 . S
N14 N15 1.234 . S
N14 C18 1.453 . S
N15 N14 1.234 . S
C16 H11 0.929 . S
C16 C17 1.373 . S
C16 C18 1.368 . S
C17 C16 1.373 . S
C17 C21 1.397 . S
C18 N14 1.453 . S
C18 C16 1.368 . S
C18 C19 1.373 . S
C19 H13 0.930 . S
C19 C18 1.373 . S
C19 C20 1.371 . S
C20 C19 1.371 . S
C20 C21 1.383 . S
C21 H12 0.931 . S
C21 C17 1.397 . S
C21 C20 1.383 . S
H22 C27 0.929 1_556 S
H23 C32 0.931 . S
H24 C30 0.930 . S
N25 N26 1.234 . S
N25 C29 1.453 . S
N26 N25 1.234 . S
C27 H22 0.929 1_554 S
C27 C28 1.373 . S
C27 C29 1.368 . S
C28 C27 1.373 . S
C28 C32 1.397 . S
C29 N25 1.453 . S
C29 C27 1.368 . S
C29 C30 1.373 . S
C30 H24 0.930 . S
C30 C29 1.373 . S
C30 C31 1.371 . S
C31 C30 1.371 . S
C31 C32 1.383 . S
C32 H23 0.931 . S
C32 C28 1.397 . S
C32 C31 1.383 . S
H33 C38 0.929 . S
H34 C43 0.931 . S
H35 C41 0.930 . S
N36 N37 1.234 . S
N36 C40 1.453 . S
N37 N36 1.234 . S
C38 H33 0.929 . S
C38 C39 1.373 . S
C38 C40 1.368 . S
C39 C38 1.373 . S
C39 C43 1.397 . S
C40 N36 1.453 . S
C40 C38 1.368 . S
C40 C41 1.373 . S
C41 H35 0.930 . S
C41 C40 1.373 . S
C41 C42 1.371 . S
C42 C41 1.371 . S
C42 C43 1.383 . S
C43 H34 0.931 . S
C43 C39 1.397 . S
C43 C42 1.383 . S
Eu44 N73 2.600 . S
Eu44 N79 2.562 . S
Eu44 O88 2.462 . S
Eu44 O89 2.373 . S
Eu44 O91 2.432 . S
Eu44 O92 2.291 1_565 S
Eu44 O96 2.335 1_465 S
Eu44 O99 2.372 1_455 S
Eu44 C108 2.787 . S
C45 N46 1.365 . S
C45 C48 1.405 . S
C45 C52 1.448 . S
N46 C45 1.365 . S
N46 C49 1.319 1_655 S
N46 Eu55 2.600 . S
C47 C49 1.397 . S
C47 C50 1.367 1_455 S
C47 H67 0.931 . S
C48 C45 1.405 . S
C48 C50 1.403 . S
C48 C54 1.439 . S
C49 N46 1.319 1_455 S
C49 C47 1.397 . S
C49 H60 0.930 . S
C50 C47 1.367 1_655 S
C50 C48 1.403 . S
C50 H71 0.929 . S
C51 C52 1.430 . S
C51 C53 1.387 . S
C51 C57 1.404 . S
C52 C45 1.448 . S
C52 C51 1.430 . S
C52 N56 1.351 . S
C53 C51 1.387 . S
C53 C54 1.374 . S
C53 H68 0.931 . S
C54 C48 1.439 . S
C54 C53 1.374 . S
C54 H69 0.931 . S
Eu55 N46 2.600 . S
Eu55 N56 2.562 . S
Eu55 O90 2.335 1_655 S
Eu55 O93 2.372 1_655 S
Eu55 O94 2.462 . S
Eu55 O95 2.373 . S
Eu55 O97 2.432 . S
Eu55 O98 2.291 1_545 S
Eu55 C119 2.787 . S
N56 C52 1.351 . S
N56 Eu55 2.562 . S
N56 C58 1.325 . S
C57 C51 1.404 . S
C57 C59 1.366 . S
C57 H65 0.930 . S
C58 N56 1.325 . S
C58 C59 1.416 . S
C58 H64 0.929 . S
C59 C57 1.366 . S
C59 C58 1.416 . S
C59 H61 0.930 . S
H60 C49 0.930 . S
H61 C59 0.930 . S
H62 C77 0.930 1_655 S
H63 C84 0.930 . S
H64 C58 0.929 . S
H65 C57 0.930 . S
H66 C80 0.929 . S
H67 C47 0.931 . S
H68 C53 0.931 . S
H69 C54 0.931 . S
H70 C75 0.931 1_655 S
H71 C50 0.929 . S
H72 C83 0.930 . S
N73 Eu44 2.600 . S
N73 C74 1.365 . S
N73 C77 1.319 . S
C74 N73 1.365 . S
C74 C76 1.405 . S
C74 C82 1.448 . S
C75 H70 0.931 1_455 S
C75 C77 1.397 . S
C75 C78 1.367 . S
C76 C74 1.405 . S
C76 C78 1.403 . S
C76 C109 1.439 . S
C77 H62 0.930 1_455 S
C77 N73 1.319 . S
C77 C75 1.397 . S
C78 C75 1.367 . S
C78 C76 1.403 . S
C78 H85 0.929 . S
N79 Eu44 2.562 . S
N79 C80 1.325 . S
N79 C82 1.351 . S
C80 H66 0.929 . S
C80 N79 1.325 . S
C80 C84 1.416 . S
C81 C82 1.430 . S
C81 C83 1.404 . S
C81 C110 1.387 . S
C82 C74 1.448 . S
C82 N79 1.351 . S
C82 C81 1.430 . S
C83 H72 0.930 . S
C83 C81 1.404 . S
C83 C84 1.366 . S
C84 H63 0.930 . S
C84 C80 1.416 . S
C84 C83 1.366 . S
H85 C78 0.929 . S
H86 C109 0.931 . S
H87 C110 0.931 . S
O88 Eu44 2.462 . S
O88 C108 1.252 . S
O89 Eu44 2.373 . S
O89 C100 1.249 . S
O90 Eu55 2.335 1_455 S
O90 C100 1.264 1_545 S
O91 Eu44 2.432 . S
O91 C108 1.268 . S
O92 Eu44 2.291 1_545 S
O92 C107 1.255 . S
O93 Eu55 2.372 1_455 S
O93 C107 1.257 . S
O94 Eu55 2.462 . S
O94 C119 1.252 . S
O95 Eu55 2.373 . S
O95 C111 1.249 . S
O96 Eu44 2.335 1_645 S
O96 C111 1.264 . S
O97 Eu55 2.432 . S
O97 C119 1.268 . S
O98 Eu55 2.291 1_565 S
O98 C118 1.255 . S
O99 Eu44 2.372 1_655 S
O99 C118 1.257 . S
C100 O89 1.249 . S
C100 O90 1.264 1_565 S
C101 C104 1.382 . S
C101 C106 1.390 . S
C101 C108 1.506 . S
C102 C103 1.398 . S
C102 C106 1.392 . S
C103 C102 1.398 . S
C103 C105 1.372 . S
C103 H120 0.931 . S
C104 C101 1.382 . S
C104 C105 1.390 . S
C104 H121 0.931 . S
C105 C103 1.372 . S
C105 C104 1.390 . S
C105 H122 0.929 . S
C106 C101 1.390 . S
C106 C102 1.392 . S
C106 H123 0.930 . S
C107 O92 1.255 . S
C107 O93 1.257 . S
C108 Eu44 2.787 . S
C108 O88 1.252 . S
C108 O91 1.268 . S
C108 C101 1.506 . S
C109 C76 1.439 . S
C109 H86 0.931 . S
C109 C110 1.374 . S
C110 C81 1.387 . S
C110 H87 0.931 . S
C110 C109 1.374 . S
C111 O95 1.249 . S
C111 O96 1.264 . S
C112 C115 1.382 . S
C112 C116 1.390 . S
C112 C119 1.506 . S
C113 C114 1.398 . S
C113 C116 1.392 . S
C114 C113 1.398 . S
C114 C117 1.372 . S
C114 H124 0.931 . S
C115 C112 1.382 . S
C115 C117 1.390 . S
C115 H125 0.931 . S
C116 C112 1.390 . S
C116 C113 1.392 . S
C116 H126 0.930 . S
C117 C114 1.372 . S
C117 C115 1.390 . S
C117 H127 0.929 . S
C118 O98 1.255 . S
C118 O99 1.257 . S
C119 Eu55 2.787 . S
C119 O94 1.252 . S
C119 O97 1.268 . S
C119 C112 1.506 . S
H120 C103 0.931 . S
H121 C104 0.931 . S
H122 C105 0.929 . S
H123 C106 0.930 . S
H124 C114 0.931 . S
H125 C115 0.931 . S
H126 C116 0.930 . S
H127 C117 0.929 . S
Eu128 N157 2.600 . S
Eu128 N163 2.562 . S
Eu128 O172 2.462 1_554 S
Eu128 O173 2.373 . S
Eu128 O175 2.432 1_554 S
Eu128 O176 2.291 . S
Eu128 O180 2.335 1_554 S
Eu128 O183 2.372 . S
Eu128 C192 2.787 1_554 S
C129 N130 1.365 . S
C129 C132 1.405 . S
C129 C136 1.448 . S
N130 C129 1.365 . S
N130 C133 1.319 . S
N130 Eu139 2.600 . S
C131 C133 1.397 . S
C131 C134 1.367 . S
C131 H151 0.931 . S
C132 C129 1.405 . S
C132 C134 1.403 . S
C132 C138 1.439 . S
C133 N130 1.319 . S
C133 C131 1.397 . S
C133 H144 0.930 . S
C134 C131 1.367 . S
C134 C132 1.403 . S
C134 H155 0.929 . S
C135 C136 1.430 . S
C135 C137 1.387 . S
C135 C141 1.404 . S
C136 C129 1.448 . S
C136 C135 1.430 . S
C136 N140 1.351 . S
C137 C135 1.387 . S
C137 C138 1.374 . S
C137 H152 0.931 . S
C138 C132 1.439 . S
C138 C137 1.374 . S
C138 H153 0.931 . S
Eu139 N130 2.600 . S
Eu139 N140 2.562 . S
Eu139 O174 2.335 . S
Eu139 O177 2.372 . S
Eu139 O178 2.462 . S
Eu139 O179 2.373 . S
Eu139 O181 2.432 . S
Eu139 O182 2.291 . S
Eu139 C203 2.787 . S
N140 C136 1.351 . S
N140 Eu139 2.562 . S
N140 C142 1.325 . S
C141 C135 1.404 . S
C141 C143 1.366 . S
C141 H149 0.930 . S
C142 N140 1.325 . S
C142 C143 1.416 . S
C142 H148 0.929 . S
C143 C141 1.366 . S
C143 C142 1.416 . S
C143 H145 0.930 . S
H144 C133 0.930 . S
H145 C143 0.930 . S
H146 C161 0.930 . S
H147 C168 0.930 . S
H148 C142 0.929 . S
H149 C141 0.930 . S
H150 C164 0.929 . S
H151 C131 0.931 . S
H152 C137 0.931 . S
H153 C138 0.931 . S
H154 C159 0.931 . S
H155 C134 0.929 . S
H156 C167 0.930 . S
N157 Eu128 2.600 . S
N157 C158 1.365 . S
N157 C161 1.319 1_554 S
C158 N157 1.365 . S
C158 C160 1.405 . S
C158 C166 1.448 . S
C159 H154 0.931 . S
C159 C161 1.397 . S
C159 C162 1.367 1_556 S
C160 C158 1.405 . S
C160 C162 1.403 . S
C160 C193 1.439 . S
C161 H146 0.930 . S
C161 N157 1.319 1_556 S
C161 C159 1.397 . S
C162 C159 1.367 1_554 S
C162 C160 1.403 . S
C162 H169 0.929 . S
N163 Eu128 2.562 . S
N163 C164 1.325 . S
N163 C166 1.351 . S
C164 H150 0.929 . S
C164 N163 1.325 . S
C164 C168 1.416 . S
C165 C166 1.430 . S
C165 C167 1.404 . S
C165 C194 1.387 . S
C166 C158 1.448 . S
C166 N163 1.351 . S
C166 C165 1.430 . S
C167 H156 0.930 . S
C167 C165 1.404 . S
C167 C168 1.366 . S
C168 H147 0.930 . S
C168 C164 1.416 . S
C168 C167 1.366 . S
H169 C162 0.929 . S
H170 C193 0.931 . S
H171 C194 0.931 . S
O172 Eu128 2.462 1_556 S
O172 C192 1.252 . S
O173 Eu128 2.373 . S
O173 C184 1.249 . S
O174 Eu139 2.335 . S
O174 C184 1.264 . S
O175 Eu128 2.432 1_556 S
O175 C192 1.268 . S
O176 Eu128 2.291 . S
O176 C191 1.255 . S
O177 Eu139 2.372 . S
O177 C191 1.257 . S
O178 Eu139 2.462 . S
O178 C203 1.252 . S
O179 Eu139 2.373 . S
O179 C195 1.249 1_554 S
O180 Eu128 2.335 1_556 S
O180 C195 1.264 . S
O181 Eu139 2.432 . S
O181 C203 1.268 . S
O182 Eu139 2.291 . S
O182 C202 1.255 . S
O183 Eu128 2.372 . S
O183 C202 1.257 . S
C184 O173 1.249 . S
C184 O174 1.264 . S
C185 C188 1.382 . S
C185 C190 1.390 . S
C185 C192 1.506 . S
C186 C187 1.398 . S
C186 C190 1.392 . S
C187 C186 1.398 . S
C187 C189 1.372 . S
C187 H204 0.931 . S
C188 C185 1.382 . S
C188 C189 1.390 . S
C188 H205 0.931 . S
C189 C187 1.372 . S
C189 C188 1.390 . S
C189 H206 0.929 . S
C190 C185 1.390 . S
C190 C186 1.392 . S
C190 H207 0.930 . S
C191 O176 1.255 . S
C191 O177 1.257 . S
C192 Eu128 2.787 1_556 S
C192 O172 1.252 . S
C192 O175 1.268 . S
C192 C185 1.506 . S
C193 C160 1.439 . S
C193 H170 0.931 . S
C193 C194 1.374 . S
C194 C165 1.387 . S
C194 H171 0.931 . S
C194 C193 1.374 . S
C195 O179 1.249 1_556 S
C195 O180 1.264 . S
C196 C199 1.382 . S
C196 C200 1.390 . S
C196 C203 1.506 . S
C197 C198 1.398 . S
C197 C200 1.392 . S
C198 C197 1.398 . S
C198 C201 1.372 . S
C198 H208 0.931 . S
C199 C196 1.382 . S
C199 C201 1.390 . S
C199 H209 0.931 . S
C200 C196 1.390 . S
C200 C197 1.392 . S
C200 H210 0.930 . S
C201 C198 1.372 . S
C201 C199 1.390 . S
C201 H211 0.929 . S
C202 O182 1.255 . S
C202 O183 1.257 . S
C203 Eu139 2.787 . S
C203 O178 1.252 . S
C203 O181 1.268 . S
C203 C196 1.506 . S
H204 C187 0.931 . S
H205 C188 0.931 . S
H206 C189 0.929 . S
H207 C190 0.930 . S
H208 C198 0.931 . S
H209 C199 0.931 . S
H210 C200 0.930 . S
H211 C201 0.929 . S
C212 C213 1.387 . S
C212 H216 0.950 . S
C212 C221 1.390 . S
C213 C212 1.387 . S
C213 C215 1.387 . S
H214 C221 0.950 . S
C215 C213 1.387 . S
C215 C217 1.390 . S
C215 H219 0.950 . S
H216 C212 0.950 . S
C217 C215 1.390 . S
C217 C218 1.387 . S
C217 H220 0.950 . S
C218 C217 1.387 . S
C218 C221 1.387 . S
H219 C215 0.950 . S
H220 C217 0.950 . S
C221 C212 1.390 . S
C221 H214 0.950 . S
C221 C218 1.387 . S
C222 C223 1.387 . S
C222 H226 0.950 . S
C222 C231 1.390 . S
C223 C222 1.387 . S
C223 C225 1.387 . S
H224 C231 0.950 . S
C225 C223 1.387 . S
C225 C227 1.390 . S
C225 H229 0.950 1_554 S
H226 C222 0.950 . S
C227 C225 1.390 . S
C227 C228 1.387 . S
C227 H230 0.950 1_554 S
C228 C227 1.387 . S
C228 C231 1.387 . S
H229 C225 0.950 1_556 S
H230 C227 0.950 1_556 S
C231 C222 1.390 . S
C231 H224 0.950 . S
C231 C228 1.387 . S
C232 C233 1.387 . S
C232 H236 0.950 . S
C232 C241 1.390 . S
C233 C232 1.387 . S
C233 C235 1.387 . S
H234 C241 0.950 . S
C235 C233 1.387 . S
C235 C237 1.390 . S
C235 H239 0.950 . S
H236 C232 0.950 . S
C237 C235 1.390 . S
C237 C238 1.387 . S
C237 H240 0.950 . S
C238 C237 1.387 . S
C238 C241 1.387 . S
H239 C235 0.950 . S
H240 C237 0.950 . S
C241 C232 1.390 . S
C241 H234 0.950 . S
C241 C238 1.387 . S
C242 C243 1.387 . S
C242 H246 0.939 1_554 S
C242 C251 1.390 . S
C243 C242 1.387 . S
C243 C245 1.387 . S
H244 C251 0.950 1_556 S
C245 C243 1.387 . S
C245 C247 1.390 . S
C245 H249 0.950 . S
H246 C242 0.939 1_556 S
C247 C245 1.390 . S
C247 C248 1.387 . S
C247 H250 0.950 . S
C248 C247 1.387 . S
C248 C251 1.387 . S
H249 C245 0.950 . S
H250 C247 0.950 . S
C251 C242 1.390 . S
C251 H244 0.950 1_554 S
C251 C248 1.387 . S
C252 C253 1.387 . S
C252 H256 0.950 . S
C252 C261 1.390 . S
C253 C252 1.387 . S
C253 C255 1.387 . S
H254 C261 0.950 1_545 S
C255 C253 1.387 . S
C255 C257 1.390 . S
C255 H259 0.950 . S
H256 C252 0.950 . S
C257 C255 1.390 . S
C257 C258 1.387 . S
C257 H260 0.950 . S
C258 C257 1.387 . S
C258 C261 1.387 . S
H259 C255 0.950 . S
H260 C257 0.950 . S
C261 C252 1.390 . S
C261 H254 0.950 1_565 S
C261 C258 1.387 . S
C262 C263 1.387 . S
C262 H266 0.950 . S
C262 C271 1.390 . S
C263 C262 1.387 . S
C263 C265 1.387 . S
H264 C271 0.950 . S
C265 C263 1.387 . S
C265 C267 1.390 . S
C265 H269 0.950 . S
H266 C262 0.950 . S
C267 C265 1.390 . S
C267 C268 1.387 . S
C267 H270 0.950 . S
C268 C267 1.387 . S
C268 C271 1.387 . S
H269 C265 0.950 . S
H270 C267 0.950 . S
C271 C262 1.390 . S
C271 H264 0.950 . S
C271 C268 1.387 . S
C272 C273 1.387 . S
C272 H276 0.950 . S
C272 C281 1.390 . S
C273 C272 1.387 . S
C273 C275 1.387 . S
H274 C281 0.950 . S
C275 C273 1.387 . S
C275 C277 1.390 . S
C275 H279 0.950 . S
H276 C272 0.950 . S
C277 C275 1.390 . S
C277 C278 1.387 . S
C277 H280 0.950 . S
C278 C277 1.387 . S
C278 C281 1.387 . S
H279 C275 0.950 . S
H280 C277 0.950 . S
C281 C272 1.390 . S
C281 H274 0.950 . S
C281 C278 1.387 . S
C282 C283 1.387 . S
C282 H286 0.950 . S
C282 C291 1.390 . S
C283 C282 1.387 . S
C283 C285 1.387 . S
H284 C291 0.950 . S
C285 C283 1.387 . S
C285 C287 1.390 . S
C285 H289 0.950 . S
H286 C282 0.950 . S
C287 C285 1.390 . S
C287 C288 1.387 . S
C287 H290 0.950 . S
C288 C287 1.387 . S
C288 C291 1.387 . S
H289 C285 0.950 . S
H290 C287 0.950 . S
C291 C282 1.390 . S
C291 H284 0.950 . S
C291 C288 1.387 . S
C292 C293 1.387 . S
C292 H296 0.950 . S
C292 C301 1.390 . S
C293 C292 1.387 . S
C293 C295 1.387 . S
H294 C301 0.950 . S
C295 C293 1.387 . S
C295 C297 1.390 . S
C295 H299 0.950 . S
H296 C292 0.950 . S
C297 C295 1.390 . S
C297 C298 1.387 . S
C297 H300 0.950 . S
C298 C297 1.387 . S
C298 C301 1.387 . S
H299 C295 0.950 . S
H300 C297 0.950 . S
C301 C292 1.390 . S
C301 H294 0.950 . S
C301 C298 1.387 . S
C302 C303 1.387 . S
C302 H306 0.950 . S
C302 C311 1.390 . S
C303 C302 1.387 . S
C303 C305 1.387 1_556 S
H304 C311 0.950 . S
C305 C303 1.387 1_554 S
C305 C307 1.390 1_554 S
C305 H309 0.950 . S
H306 C302 0.950 . S
C307 C305 1.390 1_556 S
C307 C308 1.387 . S
C307 H310 0.950 . S
C308 C307 1.387 . S
C308 C311 1.387 . S
H309 C305 0.950 . S
H310 C307 0.950 . S
C311 C302 1.390 . S
C311 H304 0.950 . S
C311 C308 1.387 . S
C312 C313 1.387 . S
C312 H316 0.950 . S
C312 C321 1.390 . S
C313 C312 1.387 . S
C313 C315 1.387 . S
H314 C321 0.950 . S
C315 C313 1.387 . S
C315 C317 1.390 . S
C315 H319 0.950 . S
H316 C312 0.950 . S
C317 C315 1.390 . S
C317 C318 1.387 . S
C317 H320 0.950 . S
C318 C317 1.387 . S
C318 C321 1.387 . S
H319 C315 0.950 . S
H320 C317 0.950 . S
C321 C312 1.390 . S
C321 H314 0.950 . S
C321 C318 1.387 . S
C322 C323 1.387 . S
C322 H326 0.959 . S
C322 C331 1.390 . S
C323 C322 1.387 . S
C323 C325 1.387 . S
H324 C331 0.950 1_545 S
C325 C323 1.387 . S
C325 C327 1.390 . S
C325 H329 0.950 . S
H326 C322 0.959 . S
C327 C325 1.390 . S
C327 C328 1.387 . S
C327 H330 0.950 . S
C328 C327 1.387 . S
C328 C331 1.387 . S
H329 C325 0.950 . S
H330 C327 0.950 . S
C331 C322 1.390 . S
C331 H324 0.950 1_565 S
C331 C328 1.387 . S
C218 C107 1.622 . S
C213 N37 1.628 . S
C223 N4 1.640 . S
C228 C202 1.635 . S
C233 N15 1.624 . S
C238 C118 1.646 . S
C243 N26 1.596 . S
C248 C191 1.601 . S
C258 C102 1.411 . S
C253 C9 1.585 . S
C268 C195 1.688 . S
C263 C17 1.684 . S
C273 C31 1.621 . S
C278 C111 1.650 . S
C283 C42 1.585 . S
C288 C186 1.422 . S
C298 C197 1.382 . S
C293 C20 1.547 . S
C308 C113 1.351 . S
C303 C28 1.536 1_556 S
C318 C184 1.609 . S
C313 C39 1.597 . S
C323 C6 1.556 . S
C328 C100 1.584 . S
