# Generated by pormake.
# Topology pyr, (3,6)-cn, num edge types: 1
# Building blocks:
#     Node 0, Type 0, BuildingBlock: QEWDON_clean_linker_0, # of connection points: 3
#     Node 1, Type 0, BuildingBlock: QEWDON_clean_linker_0, # of connection points: 3
#     Node 2, Type 0, BuildingBlock: QEWDON_clean_linker_0, # of connection points: 3
#     Node 3, Type 0, BuildingBlock: QEWDON_clean_linker_0, # of connection points: 3
#     Node 4, Type 0, BuildingBlock: QEWDON_clean_linker_0, # of connection points: 3
#     Node 5, Type 0, BuildingBlock: QEWDON_clean_linker_0, # of connection points: 3
#     Node 6, Type 0, BuildingBlock: QEWDON_clean_linker_0, # of connection points: 3
#     Node 7, Type 0, BuildingBlock: QEWDON_clean_linker_0, # of connection points: 3
#     Node 8, Type 1, BuildingBlock: BETDIP_clean_sbu_0, # of connection points: 6
#     Node 9, Type 1, BuildingBlock: BETDIP_clean_sbu_0, # of connection points: 6
#     Node 10, Type 1, BuildingBlock: BETDIP_clean_sbu_0, # of connection points: 6
#     Node 11, Type 1, BuildingBlock: BETDIP_clean_sbu_0, # of connection points: 6
#     Edge 12, Type (0, 1), BuildingBlock: EZIPEK_clean_linker_0, # of connection points: 2
#     Edge 13, Type (0, 1), BuildingBlock: EZIPEK_clean_linker_0, # of connection points: 2
#     Edge 14, Type (0, 1), BuildingBlock: EZIPEK_clean_linker_0, # of connection points: 2
#     Edge 15, Type (0, 1), BuildingBlock: EZIPEK_clean_linker_0, # of connection points: 2
#     Edge 16, Type (0, 1), BuildingBlock: EZIPEK_clean_linker_0, # of connection points: 2
#     Edge 17, Type (0, 1), BuildingBlock: EZIPEK_clean_linker_0, # of connection points: 2
#     Edge 18, Type (0, 1), BuildingBlock: EZIPEK_clean_linker_0, # of connection points: 2
#     Edge 19, Type (0, 1), BuildingBlock: EZIPEK_clean_linker_0, # of connection points: 2
#     Edge 20, Type (0, 1), BuildingBlock: EZIPEK_clean_linker_0, # of connection points: 2
#     Edge 21, Type (0, 1), BuildingBlock: EZIPEK_clean_linker_0, # of connection points: 2
#     Edge 22, Type (0, 1), BuildingBlock: EZIPEK_clean_linker_0, # of connection points: 2
#     Edge 23, Type (0, 1), BuildingBlock: EZIPEK_clean_linker_0, # of connection points: 2
#     Edge 24, Type (0, 1), BuildingBlock: EZIPEK_clean_linker_0, # of connection points: 2
#     Edge 25, Type (0, 1), BuildingBlock: EZIPEK_clean_linker_0, # of connection points: 2
#     Edge 26, Type (0, 1), BuildingBlock: EZIPEK_clean_linker_0, # of connection points: 2
#     Edge 27, Type (0, 1), BuildingBlock: EZIPEK_clean_linker_0, # of connection points: 2
#     Edge 28, Type (0, 1), BuildingBlock: EZIPEK_clean_linker_0, # of connection points: 2
#     Edge 29, Type (0, 1), BuildingBlock: EZIPEK_clean_linker_0, # of connection points: 2
#     Edge 30, Type (0, 1), BuildingBlock: EZIPEK_clean_linker_0, # of connection points: 2
#     Edge 31, Type (0, 1), BuildingBlock: EZIPEK_clean_linker_0, # of connection points: 2
#     Edge 32, Type (0, 1), BuildingBlock: EZIPEK_clean_linker_0, # of connection points: 2
#     Edge 33, Type (0, 1), BuildingBlock: EZIPEK_clean_linker_0, # of connection points: 2
#     Edge 34, Type (0, 1), BuildingBlock: EZIPEK_clean_linker_0, # of connection points: 2
#     Edge 35, Type (0, 1), BuildingBlock: EZIPEK_clean_linker_0, # of connection points: 2
# Relax obj value: 0.219
# Max RMSD: 0.273
# Mean RMSD: 0.185
data_MOF--net-pyr--node1-BETDIP_clean_sbu_0--node2-QEWDON_clean_linker_0--edge1-EZIPEK_clean_linker_0
_symmetry_space_group_name_H-M    P1
_symmetry_Int_Tables_number       1
_symmetry_cell_setting            triclinic
loop_
_symmetry_equiv_pos_as_xyz
'x, y, z'
_cell_length_a     26.117531
_cell_length_b     29.884052
_cell_length_c     31.344798
_cell_angle_alpha  88.328381
_cell_angle_beta   93.541527
_cell_angle_gamma 115.31456
loop_
_atom_site_label
_atom_site_type_symbol
_atom_site_fract_x
_atom_site_fract_y
_atom_site_fract_z
_atom_type_partial_charge
H0 H 0.53088 0.36914 0.22192 0.0
C1 C 0.51623 0.35935 0.25397 0.0
C2 C 0.51157 0.3142 0.27193 0.0
C3 C 0.49667 0.38927 0.27541 0.0
H4 H 0.48438 0.26459 0.32565 0.0
C5 C 0.49006 0.30028 0.31246 0.0
C6 C 0.47015 0.32967 0.33401 0.0
C7 C 0.4737 0.37413 0.3155 0.0
C8 C 0.49516 0.43371 0.25415 0.0
H9 H 0.45684 0.39604 0.33176 0.0
C10 C 0.44467 0.44016 0.25135 0.0
C11 C 0.44253 0.48125 0.2298 0.0
C12 C 0.54352 0.4691 0.23537 0.0
H13 H 0.58281 0.46493 0.23709 0.0
C14 C 0.54163 0.51038 0.2145 0.0
H15 H 0.40663 0.41263 0.26486 0.0
C16 C 0.49137 0.51645 0.2116 0.0
H17 H 0.49033 0.54828 0.19481 0.0
H18 H 0.57913 0.53757 0.20024 0.0
H19 H 0.1221 0.82536 0.81925 0.0
C20 C 0.14951 0.81035 0.80712 0.0
C21 C 0.19642 0.81253 0.83262 0.0
C22 C 0.1414 0.79384 0.76465 0.0
H23 H 0.2718 0.79996 0.83548 0.0
C24 C 0.23394 0.79591 0.81646 0.0
C25 C 0.22589 0.77866 0.77439 0.0
C26 C 0.17916 0.77698 0.74868 0.0
C27 C 0.10066 0.80319 0.73506 0.0
H28 H 0.17511 0.76661 0.71536 0.0
C29 C 0.10158 0.85055 0.73367 0.0
C30 C 0.0678 0.86222 0.70304 0.0
C31 C 0.06427 0.76701 0.70603 0.0
H32 H 0.06314 0.73034 0.70637 0.0
C33 C 0.02924 0.77816 0.6762 0.0
H34 H 0.13064 0.87931 0.75505 0.0
C35 C 0.03118 0.82568 0.67446 0.0
H36 H 1.00488 0.83419 0.65053 0.0
H37 H 1.00122 0.75014 0.65391 0.0
H38 H 0.73697 0.49544 0.92535 0.0
C39 C 0.71848 0.45715 0.93568 0.0
C40 C 0.74618 0.44178 0.96958 0.0
C41 C 0.66533 0.42356 0.91712 0.0
H42 H 0.73991 0.38134 1.01176 0.0
C43 C 0.7202 0.39264 0.98471 0.0
C44 C 0.66802 0.35847 0.96662 0.0
C45 C 0.64216 0.37379 0.93216 0.0
C46 C 0.62867 0.44006 0.88711 0.0
H47 H 0.6017 0.34712 0.91872 0.0
C48 C 0.64877 0.47429 0.85234 0.0
C49 C 0.60974 0.48535 0.82477 0.0
C50 C 0.57021 0.4199 0.89419 0.0
H51 H 0.55301 0.39578 0.92121 0.0
C52 C 0.5325 0.4303 0.86712 0.0
H53 H 0.69356 0.49165 0.84659 0.0
C54 C 0.55182 0.4621 0.83265 0.0
H55 H 0.52123 0.46962 0.81236 0.0
H56 H 0.48778 0.41376 0.87314 0.0
H57 H 0.96951 0.85159 0.39889 0.0
C58 C 0.93799 0.82671 0.41975 0.0
C59 C 0.93159 0.84423 0.46023 0.0
C60 C 0.90113 0.77794 0.4054 0.0
H61 H 0.88041 0.82623 0.51521 0.0
C62 C 0.88718 0.8127 0.48531 0.0
C63 C 0.85039 0.76456 0.47207 0.0
C64 C 0.85892 0.7472 0.433 0.0
C65 C 0.89333 0.76215 0.3588 0.0
H66 H 0.82907 0.71061 0.42228 0.0
C67 C 0.93085 0.74893 0.33564 0.0
C68 C 0.91341 0.72663 0.29377 0.0
C69 C 0.84085 0.75488 0.33851 0.0
H70 H 0.81162 0.76492 0.35446 0.0
C71 C 0.82366 0.73272 0.29866 0.0
H72 H 0.97199 0.75496 0.35009 0.0
C73 C 0.85864 0.71788 0.27713 0.0
H74 H 0.84294 0.70011 0.24637 0.0
H75 H 0.78231 0.72642 0.28444 0.0
H76 H 0.65807 0.78264 0.96808 0.0
C77 C 0.67165 0.79967 0.9373 0.0
C78 C 0.72177 0.8017 0.92141 0.0
C79 C 0.64007 0.82093 0.91374 0.0
H80 H 0.77821 0.82605 0.86955 0.0
C81 C 0.73928 0.82402 0.88172 0.0
C82 C 0.70775 0.84508 0.85823 0.0
C83 C 0.6583 0.84363 0.87431 0.0
C84 C 0.58879 0.82118 0.93033 0.0
H85 H 0.63441 0.86069 0.85638 0.0
C86 C 0.59129 0.8643 0.94887 0.0
C87 C 0.54165 0.86604 0.96178 0.0
C88 C 0.53659 0.77966 0.92488 0.0
H89 H 0.53408 0.74635 0.9102 0.0
C90 C 0.48709 0.78136 0.93753 0.0
H91 H 0.63167 0.89642 0.9532 0.0
C92 C 0.48946 0.82437 0.95577 0.0
H93 H 0.45079 0.82504 0.96569 0.0
H94 H 0.44679 0.74933 0.93308 0.0
H95 H 0.98236 0.31979 0.50159 0.0
C96 C 0.96497 0.32128 0.46964 0.0
C97 C 0.9773 0.29696 0.43697 0.0
C98 C 0.9267 0.34287 0.462 0.0
H99 H 0.96516 0.27914 0.36999 0.0
C100 C 0.95714 0.29928 0.395 0.0
C101 C 0.92036 0.32175 0.38642 0.0
C102 C 0.90583 0.34392 0.41953 0.0
C103 C 0.90115 0.35605 0.49848 0.0
H104 H 0.87364 0.3571 0.41214 0.0
C105 C 0.87263 0.38677 0.49202 0.0
C106 C 0.83787 0.3898 0.52309 0.0
C107 C 0.89852 0.33295 0.53888 0.0
H108 H 0.91771 0.30773 0.54574 0.0
C109 C 0.86783 0.33962 0.57101 0.0
H110 H 0.87418 0.40619 0.46211 0.0
C111 C 0.83678 0.36718 0.56298 0.0
H112 H 0.81048 0.36962 0.58741 0.0
H113 H 0.86596 0.32137 0.60161 0.0
H114 H 0.49333 0.85194 0.28838 0.0
C115 C 0.45289 0.8276 0.27309 0.0
C116 C 0.42924 0.84625 0.23909 0.0
C117 C 0.42698 0.77707 0.2855 0.0
H118 H 0.36027 0.82729 0.19147 0.0
C119 C 0.37827 0.81372 0.21808 0.0
C120 C 0.35127 0.76348 0.22981 0.0
C121 C 0.37577 0.74532 0.26357 0.0
C122 C 0.46078 0.75609 0.31308 0.0
H123 H 0.35663 0.70615 0.27113 0.0
C124 C 0.44683 0.73586 0.35496 0.0
C125 C 0.48253 0.71761 0.37877 0.0
C126 C 0.50962 0.757 0.29591 0.0
H127 H 0.52127 0.77191 0.26419 0.0
C128 C 0.54387 0.73863 0.3189 0.0
H129 H 0.40963 0.73511 0.36902 0.0
C130 C 0.53062 0.71928 0.35979 0.0
H131 H 0.55848 0.70573 0.377 0.0
H132 H 0.58126 0.73964 0.30497 0.0
H133 H 0.24717 0.48321 0.80093 0.0
C134 C 0.22373 0.44904 0.78347 0.0
C135 C 0.24345 0.44213 0.74403 0.0
C136 C 0.17628 0.41057 0.80165 0.0
H137 H 0.23183 0.39045 0.69356 0.0
C138 C 0.2155 0.3963 0.72284 0.0
C139 C 0.16817 0.35731 0.73957 0.0
C140 C 0.14821 0.36532 0.77833 0.0
C141 C 0.16117 0.41305 0.84755 0.0
H142 H 0.11197 0.33508 0.79134 0.0
C143 C 0.15748 0.45473 0.86676 0.0
C144 C 0.1419 0.45238 0.91036 0.0
C145 C 0.15088 0.37102 0.87339 0.0
H146 H 0.15498 0.33925 0.86115 0.0
C147 C 0.13604 0.36894 0.9155 0.0
H148 H 0.16576 0.48795 0.84813 0.0
C149 C 0.13129 0.40877 0.93363 0.0
H150 H 0.11942 0.4056 0.9665 0.0
H151 H 0.12823 0.33597 0.9344 0.0
Tb152 Tb 0.9987 0.08793 0.60379 0.0
Tb153 Tb 0.12381 0.12535 0.58274 0.0
C154 C 0.89274 0.04576 0.60525 0.0
C155 C 0.85563 1.00873 0.63491 0.0
C156 C 0.86787 0.9693 0.64981 0.0
C157 C 0.83809 0.93899 0.68293 0.0
C158 C 0.79622 0.94805 0.70182 0.0
C159 C 0.78218 0.98593 0.68585 0.0
C160 C 0.81165 1.01604 0.65243 0.0
C161 C 0.07188 0.16327 0.65187 0.0
C162 C 0.07339 0.04756 0.65722 0.0
C163 C 0.22876 0.17861 0.58269 0.0
C164 C 0.26812 0.20617 0.54975 0.0
C165 C 0.25191 0.23116 0.51681 0.0
C166 C 0.28827 0.25444 0.4842 0.0
C167 C 0.341 0.2526 0.48383 0.0
C168 C 0.35783 0.22859 0.51714 0.0
C169 C 0.32159 0.20562 0.55003 0.0
C170 C 0.06095 0.04069 0.54007 0.0
C171 C 0.04727 0.16197 0.52506 0.0
O172 O 0.92192 0.03114 0.58115 0.0
O173 O 0.92349 0.0894 0.62196 0.0
O174 O 0.07366 0.15611 0.61239 0.0
O175 O 1.02625 0.12731 0.66519 0.0
O176 O 1.02182 0.03694 0.64077 0.0
O177 O 0.11808 0.0861 0.64362 0.0
O178 O 0.19168 0.19508 0.59189 0.0
O179 O 0.20615 0.13038 0.57931 0.0
O180 O 0.046 0.06457 0.56536 0.0
O181 O 0.11508 0.06644 0.53701 0.0
O182 O 0.0976 0.16129 0.53033 0.0
O183 O 1.00422 0.13627 0.54919 0.0
H184 H 0.90206 0.96319 0.63724 0.0
H185 H 0.84963 0.91011 0.69529 0.0
H186 H 0.75017 0.99346 0.70047 0.0
H187 H 0.80195 0.04647 0.64162 0.0
H188 H 0.21071 0.23179 0.5157 0.0
H189 H 0.27459 0.27252 0.45848 0.0
H190 H 0.39826 0.22657 0.51702 0.0
H191 H 0.33466 0.18637 0.57512 0.0
Tb192 Tb 0.59859 0.12279 0.1117 0.0
Tb193 Tb 0.47702 0.08547 0.09635 0.0
C194 C 0.70338 0.17764 0.11945 0.0
C195 C 0.74093 0.21529 0.14994 0.0
C196 C 0.79456 0.21711 0.16105 0.0
C197 C 0.82643 0.24465 0.19626 0.0
C198 C 0.80483 0.27057 0.22064 0.0
C199 C 0.75332 0.2722 0.20749 0.0
C200 C 0.72135 0.24452 0.17225 0.0
C201 C 0.54228 0.04196 0.15821 0.0
C202 C 0.52806 0.16494 0.16573 0.0
C203 C 0.37212 0.03295 0.08388 0.0
C204 C 0.33744 0.99365 0.05335 0.0
C205 C 0.35359 0.95614 0.04312 0.0
C206 C 0.32392 0.92259 1.01052 0.0
C207 C 0.2779 0.92617 0.9878 0.0
C208 C 0.26004 0.96204 0.99925 0.0
C209 C 0.28964 0.99557 1.03193 0.0
C210 C 0.53782 0.16788 0.05248 0.0
C211 C 0.54328 0.03597 0.04815 0.0
O212 O 0.6677 0.18865 0.09534 0.0
O213 O 0.67956 0.13296 0.13521 0.0
O214 O 0.52823 0.07738 0.15026 0.0
O215 O 0.58905 0.05251 0.1398 0.0
O216 O 0.57771 0.17234 0.15117 0.0
O217 O 0.48158 0.12642 0.15317 0.0
O218 O 0.40452 1.02237 0.11183 0.0
O219 O 0.39862 0.07705 0.06747 0.0
O220 O 0.54853 0.13061 0.05893 0.0
O221 O 0.48971 0.15778 0.06855 0.0
O222 O 0.49434 0.03247 0.06034 0.0
O223 O 0.59136 0.07401 0.05929 0.0
H224 H 0.81017 0.19471 0.14418 0.0
H225 H 0.86598 0.2429 0.20629 0.0
H226 H 0.73605 0.29181 0.2263 0.0
H227 H 0.68014 0.24379 0.16407 0.0
H228 H 0.39025 0.95373 0.05918 0.0
H229 H 0.33846 0.89536 1.00166 0.0
H230 H 0.22487 0.96544 0.9816 0.0
H231 H 0.27658 1.0242 0.03938 0.0
Tb232 Tb 0.56211 0.66064 0.63404 0.0
Tb233 Tb 0.5343 0.56248 0.59023 0.0
C234 C 0.55401 0.73609 0.65958 0.0
C235 C 0.50733 0.74356 0.67767 0.0
C236 C 0.47702 0.76443 0.65203 0.0
C237 C 0.43032 0.76871 0.66743 0.0
C238 C 0.41356 0.75275 0.70891 0.0
C239 C 0.44423 0.73277 0.73499 0.0
C240 C 0.49076 0.72811 0.71949 0.0
C241 C 0.60493 0.60383 0.67507 0.0
C242 C 0.44457 0.56515 0.65217 0.0
C243 C 0.53613 0.48113 0.57581 0.0
C244 C 0.56988 0.46603 0.5491 0.0
C245 C 0.60701 0.4999 0.52065 0.0
C246 C 0.65087 0.49116 0.50496 0.0
C247 C 0.6579 0.44875 0.51803 0.0
C248 C 0.61764 0.41294 0.54326 0.0
C249 C 0.57388 0.42161 0.55881 0.0
C250 C 0.50365 0.61982 0.53598 0.0
C251 C 0.6509 0.65687 0.57217 0.0
O252 O 0.54558 0.72226 0.61957 0.0
O253 O 0.57684 0.71174 0.68305 0.0
O254 O 0.55699 0.59007 0.65476 0.0
O255 O 0.62976 0.65193 0.67308 0.0
O256 O 0.47705 0.6133 0.65772 0.0
O257 O 0.45891 0.5376 0.62747 0.0
O258 O 0.56614 0.51097 0.60675 0.0
O259 O 0.49963 0.49529 0.55637 0.0
O260 O 0.52597 0.62899 0.57376 0.0
O261 O 0.49692 0.57518 0.52836 0.0
O262 O 0.62109 0.60808 0.5702 0.0
O263 O 0.63494 0.68567 0.59391 0.0
H264 H 0.489 0.77686 0.6198 0.0
H265 H 0.40729 0.7846 0.64708 0.0
H266 H 0.43202 0.72071 0.76724 0.0
H267 H 0.51328 0.71199 0.74013 0.0
H268 H 0.6046 0.53456 0.51307 0.0
H269 H 0.68156 0.51897 0.48533 0.0
H270 H 0.62244 0.37988 0.55334 0.0
H271 H 0.54579 0.39535 0.58096 0.0
Tb272 Tb 0.05688 0.65163 0.0697 0.0
Tb273 Tb 0.044 0.56406 0.12981 0.0
C274 C 0.03351 0.70942 1.02099 0.0
C275 C 0.98619 0.72355 1.01455 0.0
C276 C 0.93286 0.69333 1.02994 0.0
C277 C 0.88649 0.70424 1.02015 0.0
C278 C 0.89291 0.74529 0.99437 0.0
C279 C 0.94662 0.7763 0.97997 0.0
C280 C 0.99303 0.76548 0.99003 0.0
C281 C 0.15168 0.66267 0.11448 0.0
C282 C 1.00396 0.64294 0.16343 0.0
C283 C 0.07573 0.51614 0.18407 0.0
C284 C 0.12979 0.51241 0.19343 0.0
C285 C 0.18191 0.55295 0.18663 0.0
C286 C 0.23287 0.54847 0.19403 0.0
C287 C 0.23233 0.50322 0.20793 0.0
C288 C 0.18036 0.46273 0.21486 0.0
C289 C 0.12939 0.46735 0.20774 0.0
C290 C 0.94908 0.54044 0.08039 0.0
C291 C 0.09109 0.57004 1.03515 0.0
O292 O 1.02108 0.66339 1.01156 0.0
O293 O 0.06475 0.72371 0.05668 0.0
O294 O 0.10111 0.64078 0.12544 0.0
O295 O 0.14995 0.68237 0.07715 0.0
O296 O 1.01958 0.6671 0.12641 0.0
O297 O 1.00654 0.59976 0.17072 0.0
O298 O 0.07572 0.55892 0.19192 0.0
O299 O 0.04948 0.49779 0.14739 0.0
O300 O 0.99391 0.58021 0.08193 0.0
O301 O 0.95596 0.51187 0.11001 0.0
O302 O 0.08744 0.55242 0.07503 0.0
O303 O 0.07903 0.60805 1.0254 0.0
H304 H 0.92695 0.66058 0.04843 0.0
H305 H 0.84535 0.67996 1.03152 0.0
H306 H 0.95223 0.80817 0.9601 0.0
H307 H 0.03385 0.78903 0.9777 0.0
H308 H 0.18316 0.58788 0.17521 0.0
H309 H 0.27262 0.57999 0.1883 0.0
H310 H 0.17931 0.42752 0.22539 0.0
H311 H 0.08963 0.4356 0.2129 0.0
C312 C 0.46032 0.33326 0.41317 0.0
C313 C 0.43802 0.31029 0.37298 0.0
C314 C 0.35692 0.24628 0.40703 0.0
C315 C 0.37601 0.27195 0.44634 0.0
N316 N 0.44138 0.34343 0.48626 0.0
N317 N 0.35874 0.25184 0.33012 0.0
C318 C 0.42659 0.31649 0.44934 0.0
C319 C 0.38452 0.26867 0.36945 0.0
N320 N 0.51414 0.37017 0.41695 0.0
N321 N 0.31322 0.19989 0.40574 0.0
H322 H 0.37651 0.26827 0.30162 0.0
H323 H 0.31717 0.22493 0.32581 0.0
H324 H 0.2921 0.18182 0.43274 0.0
H325 H 0.30162 0.17743 0.37874 0.0
H326 H 0.53463 0.38526 0.44613 0.0
H327 H 0.54007 0.38316 0.39114 0.0
H328 H 0.47424 0.37886 0.48893 0.0
H329 H 0.41792 0.33195 0.51346 0.0
C330 C 0.19396 0.81873 0.91228 0.0
C331 C 0.21311 0.84178 0.87252 0.0
C332 C 0.27491 0.91934 0.90855 0.0
C333 C 0.25388 0.89717 0.94821 0.0
N334 N 0.18792 0.82903 0.98818 0.0
N335 N 0.26204 0.91614 0.83146 0.0
C336 C 0.21163 0.84773 0.95021 0.0
C337 C 0.2506 0.89279 0.87026 0.0
N338 N 0.16007 0.76902 0.91374 0.0
N339 N 0.31965 0.96513 0.90757 0.0
H340 H 0.2454 0.89803 0.80246 0.0
H341 H 0.28384 0.95434 0.82799 0.0
H342 H 0.33831 0.98645 0.93482 0.0
H343 H 0.34137 0.9805 0.88018 0.0
H344 H 0.1493 0.74879 0.942 0.0
H345 H 0.14518 0.74722 0.88632 0.0
H346 H 0.15305 0.79505 0.99116 0.0
H347 H 0.20069 0.84924 1.01654 0.0
C348 C 0.63709 0.51111 0.74767 0.0
C349 C 0.6256 0.52284 0.78863 0.0
C350 C 0.6015 0.58771 0.75527 0.0
C351 C 0.61429 0.57701 0.71432 0.0
N352 N 0.66019 0.5383 0.67446 0.0
N353 N 0.61398 0.58216 0.83239 0.0
C354 C 0.63712 0.54172 0.71143 0.0
C355 C 0.61385 0.5647 0.79258 0.0
N356 N 0.64565 0.46962 0.74293 0.0
N357 N 0.57458 0.61778 0.75858 0.0
H358 H 0.62334 0.56618 0.86008 0.0
H359 H 0.61092 0.61519 0.83761 0.0
H360 H 0.56284 0.63405 0.73225 0.0
H361 H 0.55884 0.62266 0.78695 0.0
H362 H 0.64762 0.45581 0.71324 0.0
H363 H 0.64759 0.44751 0.76877 0.0
H364 H 0.68176 0.51632 0.67136 0.0
H365 H 0.66252 0.56127 0.64821 0.0
C366 C 0.95144 0.7281 0.22071 0.0
C367 C 0.94892 0.71239 0.26423 0.0
C368 C 0.99536 0.65972 0.24333 0.0
C369 C 0.98512 0.66678 0.19864 0.0
N370 N 0.93768 0.70082 0.14752 0.0
N371 N 0.96262 0.65563 0.31493 0.0
C372 C 0.95921 0.69943 0.18807 0.0
C373 C 0.96938 0.67609 0.27504 0.0
N374 N 0.94539 0.77029 0.21026 0.0
N375 N 0.03241 0.64017 0.2562 0.0
H376 H 0.94369 0.66595 0.33871 0.0
H377 H 0.97161 0.62553 0.32296 0.0
H378 H 0.05726 0.63294 0.23518 0.0
H379 H 0.04423 0.63782 0.28827 0.0
H380 H 0.95097 0.78536 0.17953 0.0
H381 H 0.94127 0.79282 0.23339 0.0
H382 H 0.91498 0.72154 0.13926 0.0
H383 H 0.93497 0.67604 0.12393 0.0
C384 C 0.56428 0.26506 0.25084 0.0
C385 C 0.51706 0.27665 0.24485 0.0
C386 C 0.47933 0.21813 0.18553 0.0
C387 C 0.52365 0.20257 0.19389 0.0
N388 N 0.60151 0.20458 0.24101 0.0
N389 N 0.42311 0.25602 0.21313 0.0
C390 C 0.56451 0.22436 0.22829 0.0
C391 C 0.47265 0.25063 0.21429 0.0
N392 N 0.60912 0.29327 0.27769 0.0
N393 N 0.44528 0.20468 0.14885 0.0
H394 H 0.41643 0.28045 0.23264 0.0
H395 H 0.38667 0.23293 0.19539 0.0
H396 H 0.44825 0.18221 0.12551 0.0
H397 H 0.41773 0.22042 0.13911 0.0
H398 H 0.64739 0.29009 0.27996 0.0
H399 H 0.60966 0.32272 0.29511 0.0
H400 H 0.62891 0.21623 0.26812 0.0
H401 H 0.60081 0.17299 0.22723 0.0
C402 C 0.12378 0.95162 0.68447 0.0
C403 C 0.07338 0.91374 0.69978 0.0
C404 C 0.03328 0.97389 0.70596 0.0
C405 C 0.08101 1.00966 0.68579 0.0
N406 N 0.18207 0.03973 0.68111 0.0
N407 N 0.98487 0.88977 0.73343 0.0
C408 C 0.12982 1.00099 0.68306 0.0
C409 C 0.02957 0.9253 0.71352 0.0
N410 N 0.16472 0.9403 0.66922 0.0
N411 N 0.99259 0.98738 0.7183 0.0
H412 H 0.98213 0.85445 0.74021 0.0
H413 H 0.95103 0.89495 0.74433 0.0
H414 H 0.99823 1.02416 0.71669 0.0
H415 H 0.95491 0.96361 0.73148 0.0
H416 H 0.19921 0.96601 0.65348 0.0
H417 H 0.16175 0.90439 0.66873 0.0
H418 H 0.21952 0.0352 0.68172 0.0
H419 H 0.18854 0.07618 0.68591 0.0
C420 C 0.80322 0.50952 1.02388 0.0
C421 C 0.80172 0.4764 0.99153 0.0
C422 C 0.89894 0.48943 1.01491 0.0
C423 C 0.90131 0.52353 0.04659 0.0
N424 N 0.85868 0.57081 0.07812 0.0
N425 N 0.85276 0.44453 0.94972 0.0
C426 C 0.85451 0.53548 0.04967 0.0
C427 C 0.85125 0.46967 0.98498 0.0
N428 N 0.75466 0.51398 1.03153 0.0
N429 N 0.94107 0.47382 1.01466 0.0
H430 H 0.81861 0.42975 0.92727 0.0
H431 H 0.8894 0.44257 0.94053 0.0
H432 H 0.97754 0.48828 1.03492 0.0
H433 H 0.93849 0.44453 0.99608 0.0
H434 H 0.75049 0.53285 0.05749 0.0
H435 H 0.71701 0.49637 1.01296 0.0
H436 H 0.82889 0.58519 0.07941 0.0
H437 H 0.8945 0.58857 0.09856 0.0
C438 C 0.80592 0.71711 0.53929 0.0
C439 C 0.79925 0.73427 0.49735 0.0
C440 C 0.69542 0.69291 0.50254 0.0
C441 C 0.70221 0.68088 0.54607 0.0
N442 N 0.76418 0.68485 0.60734 0.0
N443 N 0.73719 0.74671 0.44273 0.0
C444 C 0.75764 0.69398 0.56487 0.0
C445 C 0.74381 0.7242 0.47991 0.0
N446 N 0.85817 0.72155 0.55416 0.0
N447 N 0.64263 0.6738 0.48241 0.0
H448 H 0.77122 0.77117 0.42579 0.0
H449 H 0.69828 0.74514 0.43095 0.0
H450 H 0.6064 0.65046 0.49771 0.0
H451 H 0.63547 0.6771 0.44965 0.0
H452 H 0.86521 0.70566 0.5826 0.0
H453 H 0.89404 0.73771 0.53625 0.0
H454 H 0.80331 0.69833 0.62433 0.0
H455 H 0.72984 0.66618 0.62634 0.0
C456 C 0.37024 0.50567 0.25856 0.0
C457 C 0.38832 0.48644 0.22461 0.0
C458 C 0.30647 0.48186 0.17888 0.0
C459 C 0.28624 0.49768 0.21377 0.0
N460 N 0.29425 0.51926 0.28815 0.0
N461 N 0.37026 0.44922 0.1548 0.0
C462 C 0.31684 0.50805 0.25405 0.0
C463 C 0.35549 0.47262 0.18537 0.0
N464 N 0.40497 0.52304 0.29456 0.0
N465 N 0.27945 0.47671 0.13929 0.0
H466 H 0.40612 0.44217 0.15822 0.0
H467 H 0.34479 0.43325 0.12752 0.0
H468 H 0.24251 0.48177 0.13349 0.0
H469 H 0.29574 0.47102 0.11152 0.0
H470 H 0.3974 0.54249 0.31852 0.0
H471 H 0.44389 0.52113 0.29921 0.0
H472 H 0.31112 0.52188 0.31943 0.0
H473 H 0.2561 0.52274 0.28568 0.0
C474 C 0.63535 0.26474 0.97292 0.0
C475 C 0.63596 0.30927 0.98829 0.0
C476 C 0.57985 0.2624 0.04818 0.0
C477 C 0.57391 0.21664 1.03075 0.0
N478 N 0.58768 0.17488 0.97083 0.0
N479 N 0.59934 0.34858 1.0363 0.0
C480 C 0.59985 0.21802 0.99168 0.0
C481 C 0.60536 0.3074 1.02461 0.0
N482 N 0.66905 0.26708 0.94053 0.0
N483 N 0.56386 0.26378 0.08852 0.0
H484 H 0.61811 0.38261 1.02069 0.0
H485 H 0.57157 0.34789 0.05905 0.0
H486 H 0.5467 0.23258 0.10746 0.0
H487 H 0.57332 0.29644 0.10492 0.0
H488 H 0.67542 0.23689 0.93083 0.0
H489 H 0.69422 0.30031 0.92562 0.0
H490 H 0.60077 0.17349 0.94038 0.0
H491 H 0.55937 0.14053 0.98194 0.0
C492 C 0.9662 0.93885 0.45925 0.0
C493 C 0.96902 0.89577 0.47772 0.0
C494 C 1.02687 0.94703 0.53914 0.0
C495 C 1.02652 0.99049 0.51952 0.0
N496 N 1.00838 1.02876 0.45538 0.0
N497 N 1.01166 0.86133 0.5316 0.0
C498 C 0.99978 0.98662 0.47795 0.0
C499 C 1.00212 0.90072 0.51672 0.0
N500 N 0.92968 0.93417 0.42477 0.0
N501 N 0.0509 0.94992 0.57952 0.0
H502 H 0.99562 0.82754 0.51559 0.0
H503 H 0.03961 0.86327 0.55739 0.0
H504 H 0.07243 0.98335 0.59561 0.0
H505 H 0.04652 0.91915 0.59806 0.0
H506 H 0.92095 0.96323 0.41287 0.0
H507 H 0.90452 0.90029 0.41018 0.0
H508 H 0.99492 1.02872 0.42339 0.0
H509 H 0.03387 0.06398 0.46749 0.0
C510 C 0.26756 0.72268 0.74927 0.0
C511 C 0.27216 0.77112 0.75531 0.0
C512 C 0.37063 0.8068 0.73466 0.0
C513 C 0.36482 0.75867 0.72539 0.0
N514 N 0.30553 0.67124 0.71696 0.0
N515 N 0.32313 0.85931 0.74491 0.0
C516 C 0.31259 0.71661 0.73075 0.0
C517 C 0.32228 0.81322 0.74534 0.0
N518 N 0.22088 0.68267 0.76225 0.0
N519 N 0.42281 0.8462 0.73476 0.0
H520 H 0.28816 0.86548 0.75184 0.0
H521 H 0.35647 0.89072 0.7336 0.0
H522 H 0.45955 0.843 0.72753 0.0
H523 H 0.43064 0.88118 0.74584 0.0
H524 H 0.21772 0.64673 0.76311 0.0
H525 H 0.18666 0.68586 0.77506 0.0
H526 H 0.26671 0.64017 0.71594 0.0
H527 H 0.33757 0.66541 0.70325 0.0
C528 C 0.77452 0.91959 0.81982 0.0
C529 C 0.72886 0.87172 0.81791 0.0
C530 C 0.7233 0.87595 0.73965 0.0
C531 C 0.77215 0.92181 0.74163 0.0
N532 N 0.84948 0.98459 0.78265 0.0
N533 N 0.66332 0.80121 0.77701 0.0
C534 C 0.79925 0.94292 0.78148 0.0
C535 C 0.704 0.84901 0.77806 0.0
N536 N 0.79304 0.94338 0.85823 0.0
N537 N 0.69499 0.85869 0.70115 0.0
H538 H 0.64783 0.78059 0.80457 0.0
H539 H 0.64769 0.78069 0.74907 0.0
H540 H 0.7089 0.87702 0.67234 0.0
H541 H 0.65574 0.82827 0.69792 0.0
H542 H 0.82181 0.98041 0.86117 0.0
H543 H 0.77612 0.92745 0.88715 0.0
H544 H 0.87474 0.99822 0.81052 0.0
H545 H 0.86838 1.00372 0.7553 0.0
C546 C 0.91222 0.34299 0.30892 0.0
C547 C 0.888 0.31275 0.34467 0.0
C548 C 0.80771 0.25683 0.29935 0.0
C549 C 0.83103 0.28776 0.26373 0.0
N550 N 0.89936 0.36379 0.23467 0.0
N551 N 0.80801 0.24662 0.37612 0.0
C552 C 0.8815 0.33208 0.26857 0.0
C553 C 0.83409 0.27163 0.34058 0.0
N554 N 0.96507 0.38129 0.3135 0.0
N555 N 0.76219 0.21183 0.29346 0.0
H556 H 0.82675 0.25424 0.40695 0.0
H557 H 0.76582 0.22064 0.37558 0.0
H558 H 0.74083 0.19934 0.26392 0.0
H559 H 0.74802 0.18491 0.31723 0.0
H560 H 0.98798 0.40146 0.28799 0.0
H561 H 0.98754 0.39139 0.34301 0.0
H562 H 0.93297 0.39884 0.23678 0.0
H563 H 0.87761 0.35643 0.20476 0.0
C564 C 0.51293 0.72623 0.45729 0.0
C565 C 0.47394 0.69793 0.42416 0.0
C566 C 0.44061 0.62653 0.47361 0.0
C567 C 0.48804 0.6513 0.50288 0.0
N568 N 0.56988 0.72724 0.52131 0.0
N569 N 0.40056 0.61969 0.40063 0.0
C570 C 0.52361 0.70223 0.49484 0.0
C571 C 0.43712 0.64783 0.43255 0.0
N572 N 0.54029 0.77641 0.45249 0.0
N573 N 0.39791 0.58287 0.48557 0.0
H574 H 0.3956 0.63441 0.3709 0.0
H575 H 0.37774 0.58142 0.40284 0.0
H576 H 0.39758 0.5678 0.51607 0.0
H577 H 0.36011 0.5649 0.46732 0.0
H578 H 0.5653 0.8002 0.47678 0.0
H579 H 0.53312 0.79457 0.42541 0.0
H580 H 0.602 0.76164 0.51409 0.0
H581 H 0.57753 0.71215 0.54962 0.0
C582 C 0.08535 0.50031 0.93 0.0
C583 C 0.13595 0.49337 0.93464 0.0
C584 C 0.15793 0.5368 1.00453 0.0
C585 C 0.10797 0.54535 0.99961 0.0
N586 N 0.02907 0.5415 0.95215 0.0
N587 N 0.22684 0.51599 0.97118 0.0
C588 C 0.07375 0.5296 0.96044 0.0
C589 C 0.17417 0.51535 0.9703 0.0
N590 N 0.04622 0.47617 0.89781 0.0
N591 N 0.18971 0.54797 0.04228 0.0
H592 H 0.23978 0.50103 0.94657 0.0
H593 H 0.25936 0.53556 0.99364 0.0
H594 H 0.18176 0.56538 0.06756 0.0
H595 H 0.22184 0.53675 0.04987 0.0
H596 H 1.00495 0.47324 0.8959 0.0
H597 H 0.05397 0.45627 0.87424 0.0
H598 H 1.00809 0.53744 0.92216 0.0
H599 H 1.01403 0.55754 0.97429 0.0
C600 C 0.53285 0.90717 1.02749 0.0
C601 C 0.54443 0.91055 0.98371 0.0
C602 C 0.56244 0.99828 0.98327 0.0
C603 C 0.54412 0.99312 1.02562 0.0
N604 N 0.5025 0.93917 0.08563 0.0
N605 N 0.56247 0.95691 0.91774 0.0
C606 C 0.52635 0.94651 0.04695 0.0
C607 C 0.55739 0.95555 0.96096 0.0
N608 N 0.53029 0.86708 0.05109 0.0
N609 N 0.5845 0.04385 0.96426 0.0
H610 H 0.55863 0.92632 0.90033 0.0
H611 H 0.56576 0.98698 0.89859 0.0
H612 H 0.58674 0.07552 0.97885 0.0
H613 H 0.60429 0.0509 0.93538 0.0
H614 H 0.52852 0.86522 0.08425 0.0
H615 H 0.53583 0.83774 0.03825 0.0
H616 H 0.48259 0.90442 0.09978 0.0
H617 H 0.49801 0.9667 0.10217 0.0
C618 C 0.96635 0.2098 0.44857 0.0
C619 C 1.0018 0.26151 0.44912 0.0
C620 C 0.07295 0.24768 0.49488 0.0
C621 C 0.03821 0.19577 0.4932 0.0
N622 N 0.96019 0.12722 0.45863 0.0
N623 N 0.09449 0.32786 0.46214 0.0
C624 C 0.98799 0.17687 0.46635 0.0
C625 C 0.05733 0.27969 0.46839 0.0
N626 N 0.91057 0.19207 0.43455 0.0
N627 N 0.1176 0.26712 0.52435 0.0
H628 H 0.08367 0.35199 0.44294 0.0
H629 H 0.13721 0.34213 0.47236 0.0
H630 H 0.12929 0.24585 0.54622 0.0
H631 H 0.13993 0.30499 0.52987 0.0
H632 H 0.88158 0.15536 0.43849 0.0
H633 H 0.89151 0.21438 0.42248 0.0
H634 H 0.92669 0.11196 0.4358 0.0
H635 H 0.9741 0.10188 0.4722 0.0
C636 C 0.24524 0.72484 0.21516 0.0
C637 C 0.29916 0.73013 0.20377 0.0
C638 C 0.25545 0.68626 0.13608 0.0
C639 C 0.20245 0.6855 0.14561 0.0
N640 N 0.15289 0.71759 0.18966 0.0
N641 N 0.35722 0.71842 0.15257 0.0
C642 C 0.19862 0.70783 0.1842 0.0
C643 C 0.30457 0.71111 0.1641 0.0
N644 N 0.2387 0.73691 0.25553 0.0
N645 N 0.25883 0.66298 0.10022 0.0
H646 H 0.39338 0.73403 0.17309 0.0
H647 H 0.3658 0.71132 0.12215 0.0
H648 H 0.22542 0.64816 0.07731 0.0
H649 H 0.29357 0.6562 0.09406 0.0
H650 H 0.19924 0.7289 0.26728 0.0
H651 H 0.27221 0.75051 0.27859 0.0
H652 H 0.14996 0.73743 0.21543 0.0
H653 H 0.12144 0.71225 0.16575 0.0
C654 C 0.29608 0.51758 0.69766 0.0
C655 C 0.29745 0.4801 0.72618 0.0
C656 C 0.39827 0.50618 0.71233 0.0
C657 C 0.39485 0.53911 0.6797 0.0
N658 N 0.34091 0.5766 0.64085 0.0
N659 N 0.34924 0.43744 0.76004 0.0
C660 C 0.34402 0.54544 0.67267 0.0
C661 C 0.34861 0.47443 0.73356 0.0
N662 N 0.24877 0.52638 0.6946 0.0
N663 N 0.4497 0.50643 0.72405 0.0
H664 H 0.31513 0.4155 0.77818 0.0
H665 H 0.38229 0.42664 0.76245 0.0
H666 H 0.48683 0.52895 0.70939 0.0
H667 H 0.45682 0.48778 0.75066 0.0
H668 H 0.24596 0.55566 0.67747 0.0
H669 H 0.21313 0.50617 0.71192 0.0
H670 H 0.30387 0.57971 0.63075 0.0
H671 H 0.37531 0.5979 0.62272 0.0
C672 C 0.79749 0.81169 0.97871 0.0
C673 C 0.75808 0.78221 0.9463 0.0
C674 C 0.80408 0.72586 0.94782 0.0
C675 C 0.84311 0.75499 0.98064 0.0
N676 N 0.86921 0.81812 1.03432 0.0
N677 N 0.71491 0.70577 0.90708 0.0
C678 C 0.83721 0.79553 0.99838 0.0
C679 C 0.75843 0.73734 0.93329 0.0
N680 N 0.79879 0.85627 0.98918 0.0
N681 N 0.81234 0.68893 0.92899 0.0
H682 H 0.68101 0.71342 0.89587 0.0
H683 H 0.70963 0.67027 0.89963 0.0
H684 H 0.84516 0.67922 0.93868 0.0
H685 H 0.78924 0.67021 0.9017 0.0
H686 H 0.83084 0.88216 1.00869 0.0
H687 H 0.76967 0.86895 0.97615 0.0
H688 H 0.86308 0.84471 0.0513 0.0
H689 H 0.89868 0.80707 0.04943 0.0
C690 C 0.43428 0.93268 0.22414 0.0
C691 C 0.45956 0.89891 0.22297 0.0
C692 C 0.54472 0.96642 0.19603 0.0
C693 C 0.51552 0.99691 0.18762 0.0
N694 N 0.43282 1.01026 0.20084 0.0
N695 N 0.53634 0.88279 0.19939 0.0
C696 C 0.46029 0.9804 0.20377 0.0
C697 C 0.51402 0.91556 0.2065 0.0
N698 N 0.38671 0.92004 0.24653 0.0
N699 N 0.60259 0.98657 0.19742 0.0
H700 H 0.51481 0.84488 0.20506 0.0
H701 H 0.57367 0.89281 0.18354 0.0
H702 H 0.62741 1.02469 0.19739 0.0
H703 H 0.62558 0.96617 0.20598 0.0
H704 H 0.36906 0.94436 0.25262 0.0
H705 H 0.36754 0.88628 0.26248 0.0
H706 H 0.38959 0.99768 0.20492 0.0
H707 H 0.45333 0.04787 0.19461 0.0
C708 C 0.10847 0.3 0.67855 0.0
C709 C 0.14232 0.30712 0.7174 0.0
C710 C 0.13454 0.22172 0.7107 0.0
C711 C 0.09787 0.21364 0.67334 0.0
N712 N 0.04235 0.24284 0.62584 0.0
N713 N 0.18453 0.27333 0.77223 0.0
C714 C 0.08312 0.25234 0.65824 0.0
C715 C 0.15428 0.26742 0.73396 0.0
N716 N 0.10069 0.33911 0.66075 0.0
N717 N 0.15215 0.1861 0.72318 0.0
H718 H 0.20282 0.30678 0.78874 0.0
H719 H 0.18908 0.2446 0.78902 0.0
H720 H 0.13799 0.15224 0.70755 0.0
H721 H 0.18362 0.19101 0.74699 0.0
H722 H 0.08331 0.33881 0.62991 0.0
H723 H 0.11488 0.37329 0.67586 0.0
H724 H 1.02489 0.26722 0.6163 0.0
H725 H 1.02206 0.2087 0.6106 0.0
C726 C 0.74901 0.38814 0.48579 0.0
C727 C 0.79828 0.41281 0.51313 0.0
C728 C 0.75992 0.46872 0.53732 0.0
C729 C 0.71049 0.44368 0.51034 0.0
N730 N 0.6652 0.39075 0.45008 0.0
N731 N 0.85791 0.4845 0.5549 0.0
C732 C 0.70771 0.40723 0.4814 0.0
C733 C 0.8062 0.45599 0.53544 0.0
N734 N 0.73965 0.34472 0.46637 0.0
N735 N 0.76134 0.50233 0.56659 0.0
H736 H 0.89255 0.47587 0.5538 0.0
H737 H 0.86794 0.51886 0.56843 0.0
H738 H 0.72867 0.51325 0.56883 0.0
H739 H 0.79335 0.51709 0.59056 0.0
H740 H 0.7015 0.32242 0.45017 0.0
H741 H 0.7682 0.32876 0.46903 0.0
H742 H 0.66342 0.36723 0.42558 0.0
H743 H 0.635 0.40494 0.4462 0.0
loop_
_geom_bond_atom_site_label_1
_geom_bond_atom_site_label_2
_geom_bond_distance
_geom_bond_site_symmetry_2
_ccdc_geom_bond_type
H0 C1 0.949 . S
C1 H0 0.949 . S
C1 C2 1.395 . S
C1 C3 1.391 . S
C2 C1 1.395 . S
C2 C5 1.390 . S
C3 C1 1.391 . S
C3 C7 1.387 . S
C3 C8 1.491 . S
H4 C5 0.950 . S
C5 C2 1.390 . S
C5 H4 0.950 . S
C5 C6 1.378 . S
C6 C5 1.378 . S
C6 C7 1.409 . S
C7 C3 1.387 . S
C7 C6 1.409 . S
C7 H9 0.951 . S
C8 C3 1.491 . S
C8 C10 1.382 . S
C8 C12 1.404 . S
H9 C7 0.951 . S
C10 C8 1.382 . S
C10 C11 1.390 . S
C10 H15 0.949 . S
C11 C10 1.390 . S
C11 C16 1.399 . S
C12 C8 1.404 . S
C12 H13 0.950 . S
C12 C14 1.375 . S
H13 C12 0.950 . S
C14 C12 1.375 . S
C14 C16 1.382 . S
C14 H18 0.950 . S
H15 C10 0.949 . S
C16 C11 1.399 . S
C16 C14 1.382 . S
C16 H17 0.952 . S
H17 C16 0.952 . S
H18 C14 0.950 . S
H19 C20 0.949 . S
C20 H19 0.949 . S
C20 C21 1.395 . S
C20 C22 1.391 . S
C21 C20 1.395 . S
C21 C24 1.390 . S
C22 C20 1.391 . S
C22 C26 1.387 . S
C22 C27 1.491 . S
H23 C24 0.950 . S
C24 C21 1.390 . S
C24 H23 0.950 . S
C24 C25 1.378 . S
C25 C24 1.378 . S
C25 C26 1.409 . S
C26 C22 1.387 . S
C26 C25 1.409 . S
C26 H28 0.951 . S
C27 C22 1.491 . S
C27 C29 1.370 1_455 S
C27 C31 1.404 1_455 S
H28 C26 0.951 . S
C29 C27 1.370 1_655 S
C29 C30 1.407 . S
C29 H34 0.943 1_655 S
C30 C29 1.407 . S
C30 C35 1.399 . S
C31 C27 1.404 1_655 S
C31 H32 0.950 . S
C31 C33 1.375 . S
H32 C31 0.950 . S
C33 C31 1.375 . S
C33 C35 1.382 . S
C33 H37 0.950 . S
H34 C29 0.943 1_455 S
C35 C30 1.399 . S
C35 C33 1.382 . S
C35 H36 0.952 . S
H36 C35 0.952 . S
H37 C33 0.950 . S
H38 C39 0.949 . S
C39 H38 0.949 . S
C39 C40 1.395 . S
C39 C41 1.391 . S
C40 C39 1.395 . S
C40 C43 1.390 . S
C41 C39 1.391 . S
C41 C45 1.387 . S
C41 C46 1.491 . S
H42 C43 0.950 . S
C43 C40 1.390 . S
C43 H42 0.950 . S
C43 C44 1.378 . S
C44 C43 1.378 . S
C44 C45 1.409 . S
C45 C41 1.387 . S
C45 C44 1.409 . S
C45 H47 0.951 . S
C46 C41 1.491 . S
C46 C48 1.382 . S
C46 C50 1.404 . S
H47 C45 0.951 . S
C48 C46 1.382 . S
C48 C49 1.390 . S
C48 H53 0.949 . S
C49 C48 1.390 . S
C49 C54 1.399 . S
C50 C46 1.404 . S
C50 H51 0.950 . S
C50 C52 1.375 . S
H51 C50 0.950 . S
C52 C50 1.375 . S
C52 C54 1.382 . S
C52 H56 0.950 . S
H53 C48 0.949 . S
C54 C49 1.399 . S
C54 C52 1.382 . S
C54 H55 0.952 . S
H55 C54 0.952 . S
H56 C52 0.950 . S
H57 C58 0.949 . S
C58 H57 0.949 . S
C58 C59 1.395 . S
C58 C60 1.391 . S
C59 C58 1.395 . S
C59 C62 1.390 . S
C60 C58 1.391 . S
C60 C64 1.387 . S
C60 C65 1.491 . S
H61 C62 0.950 . S
C62 C59 1.390 . S
C62 H61 0.950 . S
C62 C63 1.378 . S
C63 C62 1.378 . S
C63 C64 1.409 . S
C64 C60 1.387 . S
C64 C63 1.409 . S
C64 H66 0.951 . S
C65 C60 1.491 . S
C65 C67 1.382 . S
C65 C69 1.404 . S
H66 C64 0.951 . S
C67 C65 1.382 . S
C67 C68 1.390 . S
C67 H72 0.949 . S
C68 C67 1.390 . S
C68 C73 1.399 . S
C69 C65 1.404 . S
C69 H70 0.950 . S
C69 C71 1.375 . S
H70 C69 0.950 . S
C71 C69 1.375 . S
C71 C73 1.382 . S
C71 H75 0.950 . S
H72 C67 0.949 . S
C73 C68 1.399 . S
C73 C71 1.382 . S
C73 H74 0.952 . S
H74 C73 0.952 . S
H75 C71 0.950 . S
H76 C77 0.949 . S
C77 H76 0.949 . S
C77 C78 1.395 . S
C77 C79 1.391 . S
C78 C77 1.395 . S
C78 C81 1.390 . S
C79 C77 1.391 . S
C79 C83 1.387 . S
C79 C84 1.491 . S
H80 C81 0.950 . S
C81 C78 1.390 . S
C81 H80 0.950 . S
C81 C82 1.378 . S
C82 C81 1.378 . S
C82 C83 1.409 . S
C83 C79 1.387 . S
C83 C82 1.409 . S
C83 H85 0.951 . S
C84 C79 1.491 . S
C84 C86 1.382 . S
C84 C88 1.404 . S
H85 C83 0.951 . S
C86 C84 1.382 . S
C86 C87 1.390 . S
C86 H91 0.949 . S
C87 C86 1.390 . S
C87 C92 1.399 . S
C88 C84 1.404 . S
C88 H89 0.950 . S
C88 C90 1.375 . S
H89 C88 0.950 . S
C90 C88 1.375 . S
C90 C92 1.382 . S
C90 H94 0.950 . S
H91 C86 0.949 . S
C92 C87 1.399 . S
C92 C90 1.382 . S
C92 H93 0.952 . S
H93 C92 0.952 . S
H94 C90 0.950 . S
H95 C96 0.949 . S
C96 H95 0.949 . S
C96 C97 1.395 . S
C96 C98 1.391 . S
C97 C96 1.395 . S
C97 C100 1.390 . S
C98 C96 1.391 . S
C98 C102 1.387 . S
C98 C103 1.491 . S
H99 C100 0.950 . S
C100 C97 1.390 . S
C100 H99 0.950 . S
C100 C101 1.378 . S
C101 C100 1.378 . S
C101 C102 1.409 . S
C102 C98 1.387 . S
C102 C101 1.409 . S
C102 H104 0.951 . S
C103 C98 1.491 . S
C103 C105 1.382 . S
C103 C107 1.404 . S
H104 C102 0.951 . S
C105 C103 1.382 . S
C105 C106 1.390 . S
C105 H110 0.949 . S
C106 C105 1.390 . S
C106 C111 1.399 . S
C107 C103 1.404 . S
C107 H108 0.950 . S
C107 C109 1.375 . S
H108 C107 0.950 . S
C109 C107 1.375 . S
C109 C111 1.382 . S
C109 H113 0.950 . S
H110 C105 0.949 . S
C111 C106 1.399 . S
C111 C109 1.382 . S
C111 H112 0.952 . S
H112 C111 0.952 . S
H113 C109 0.950 . S
H114 C115 0.949 . S
C115 H114 0.949 . S
C115 C116 1.395 . S
C115 C117 1.391 . S
C116 C115 1.395 . S
C116 C119 1.390 . S
C117 C115 1.391 . S
C117 C121 1.387 . S
C117 C122 1.491 . S
H118 C119 0.950 . S
C119 C116 1.390 . S
C119 H118 0.950 . S
C119 C120 1.378 . S
C120 C119 1.378 . S
C120 C121 1.409 . S
C121 C117 1.387 . S
C121 C120 1.409 . S
C121 H123 0.951 . S
C122 C117 1.491 . S
C122 C124 1.382 . S
C122 C126 1.404 . S
H123 C121 0.951 . S
C124 C122 1.382 . S
C124 C125 1.390 . S
C124 H129 0.949 . S
C125 C124 1.390 . S
C125 C130 1.399 . S
C126 C122 1.404 . S
C126 H127 0.950 . S
C126 C128 1.375 . S
H127 C126 0.950 . S
C128 C126 1.375 . S
C128 C130 1.382 . S
C128 H132 0.950 . S
H129 C124 0.949 . S
C130 C125 1.399 . S
C130 C128 1.382 . S
C130 H131 0.952 . S
H131 C130 0.952 . S
H132 C128 0.950 . S
H133 C134 0.949 . S
C134 H133 0.949 . S
C134 C135 1.395 . S
C134 C136 1.391 . S
C135 C134 1.395 . S
C135 C138 1.390 . S
C136 C134 1.391 . S
C136 C140 1.387 . S
C136 C141 1.491 . S
H137 C138 0.950 . S
C138 C135 1.390 . S
C138 H137 0.950 . S
C138 C139 1.378 . S
C139 C138 1.378 . S
C139 C140 1.409 . S
C140 C136 1.387 . S
C140 C139 1.409 . S
C140 H142 0.951 . S
C141 C136 1.491 . S
C141 C143 1.382 . S
C141 C145 1.404 . S
H142 C140 0.951 . S
C143 C141 1.382 . S
C143 C144 1.390 . S
C143 H148 0.949 . S
C144 C143 1.390 . S
C144 C149 1.399 . S
C145 C141 1.404 . S
C145 H146 0.950 . S
C145 C147 1.375 . S
H146 C145 0.950 . S
C147 C145 1.375 . S
C147 C149 1.382 . S
C147 H151 0.950 . S
H148 C143 0.949 . S
C149 C144 1.399 . S
C149 C147 1.382 . S
C149 H150 0.952 . S
H150 C149 0.952 . S
H151 C147 0.950 . S
Tb152 C154 2.809 1_545 S
Tb152 O172 2.484 1_545 S
Tb152 O173 2.440 . S
Tb152 O174 2.658 1_655 S
Tb152 O175 2.409 1_655 S
Tb152 O176 2.378 1_655 S
Tb152 O180 2.325 1_545 S
Tb152 O183 2.341 . S
Tb153 C163 2.809 . S
Tb153 O174 2.325 . S
Tb153 O177 2.341 . S
Tb153 O178 2.484 . S
Tb153 O179 2.440 . S
Tb153 O180 2.658 1_445 S
Tb153 O181 2.409 1_545 S
Tb153 O182 2.378 . S
C154 Tb152 2.809 1_565 S
C154 C155 1.514 . S
C154 O172 1.248 . S
C154 O173 1.266 1_565 S
C155 C154 1.514 . S
C155 C156 1.359 . S
C155 C160 1.348 . S
C156 C155 1.359 . S
C156 C157 1.380 . S
C156 H184 0.929 . S
C157 C156 1.380 . S
C157 C158 1.347 . S
C157 H185 0.931 . S
C158 C157 1.347 . S
C158 C159 1.369 . S
C159 C158 1.369 . S
C159 C160 1.408 . S
C159 H186 0.930 . S
C160 C155 1.348 . S
C160 C159 1.408 . S
C160 H187 0.930 . S
C161 O174 1.281 . S
C161 O175 1.254 . S
C162 O176 1.236 1_565 S
C162 O177 1.266 1_565 S
C163 Tb153 2.809 . S
C163 C164 1.514 . S
C163 O178 1.248 . S
C163 O179 1.266 . S
C164 C163 1.514 . S
C164 C165 1.359 . S
C164 C169 1.348 . S
C165 C164 1.359 . S
C165 C166 1.380 . S
C165 H188 0.929 . S
C166 C165 1.380 . S
C166 C167 1.347 . S
C166 H189 0.931 . S
C167 C166 1.347 . S
C167 C168 1.369 . S
C168 C167 1.369 . S
C168 C169 1.408 . S
C168 H190 0.930 . S
C169 C164 1.348 . S
C169 C168 1.408 . S
C169 H191 0.930 . S
C170 O180 1.281 . S
C170 O181 1.254 1_655 S
C171 O182 1.236 1_655 S
C171 O183 1.266 . S
O172 Tb152 2.484 1_565 S
O172 C154 1.248 . S
O173 Tb152 2.440 . S
O173 C154 1.266 1_545 S
O174 Tb152 2.658 1_455 S
O174 Tb153 2.325 . S
O174 C161 1.281 . S
O175 Tb152 2.409 1_455 S
O175 C161 1.254 . S
O176 Tb152 2.378 1_455 S
O176 C162 1.236 1_545 S
O177 Tb153 2.341 . S
O177 C162 1.266 1_545 S
O178 Tb153 2.484 . S
O178 C163 1.248 . S
O179 Tb153 2.440 . S
O179 C163 1.266 . S
O180 Tb152 2.325 1_565 S
O180 Tb153 2.658 1_665 S
O180 C170 1.281 . S
O181 Tb153 2.409 1_565 S
O181 C170 1.254 1_455 S
O182 Tb153 2.378 . S
O182 C171 1.236 1_455 S
O183 Tb152 2.341 . S
O183 C171 1.266 . S
H184 C156 0.929 . S
H185 C157 0.931 . S
H186 C159 0.930 . S
H187 C160 0.930 . S
H188 C165 0.929 . S
H189 C166 0.931 . S
H190 C168 0.930 . S
H191 C169 0.930 . S
Tb192 C194 2.809 . S
Tb192 O212 2.484 . S
Tb192 O213 2.440 . S
Tb192 O214 2.658 1_545 S
Tb192 O215 2.409 1_545 S
Tb192 O216 2.378 . S
Tb192 O220 2.325 . S
Tb192 O223 2.333 1_545 S
Tb193 C203 2.823 1_545 S
Tb193 O214 2.325 1_545 S
Tb193 O217 2.341 . S
Tb193 O218 2.484 1_545 S
Tb193 O219 2.440 1_544 S
Tb193 O220 2.658 . S
Tb193 O221 2.409 . S
Tb193 O222 2.378 1_545 S
C194 Tb192 2.809 . S
C194 C195 1.514 . S
C194 O212 1.248 . S
C194 O213 1.266 . S
C195 C194 1.514 . S
C195 C196 1.359 . S
C195 C200 1.348 . S
C196 C195 1.359 . S
C196 C197 1.380 . S
C196 H224 0.929 . S
C197 C196 1.380 . S
C197 C198 1.347 . S
C197 H225 0.931 . S
C198 C197 1.347 . S
C198 C199 1.369 . S
C199 C198 1.369 . S
C199 C200 1.408 . S
C199 H226 0.930 . S
C200 C195 1.348 . S
C200 C199 1.408 . S
C200 H227 0.930 . S
C201 O214 1.281 . S
C201 O215 1.254 . S
C202 O216 1.236 . S
C202 O217 1.266 . S
C203 Tb193 2.823 1_565 S
C203 C204 1.498 1_554 S
C203 O218 1.268 . S
C203 O219 1.260 1_554 S
C204 C203 1.498 1_556 S
C204 C205 1.359 . S
C204 C209 1.348 . S
C205 C204 1.359 . S
C205 C206 1.380 . S
C205 H228 0.929 1_556 S
C206 C205 1.380 . S
C206 C207 1.347 . S
C206 H229 0.931 . S
C207 C206 1.347 . S
C207 C208 1.369 . S
C208 C207 1.369 . S
C208 C209 1.408 . S
C208 H230 0.930 . S
C209 C204 1.348 . S
C209 C208 1.408 . S
C209 H231 0.930 . S
C210 O220 1.281 . S
C210 O221 1.254 . S
C211 O222 1.236 . S
C211 O223 1.268 . S
O212 Tb192 2.484 . S
O212 C194 1.248 . S
O213 Tb192 2.440 . S
O213 C194 1.266 . S
O214 Tb192 2.658 1_565 S
O214 Tb193 2.325 1_565 S
O214 C201 1.281 . S
O215 Tb192 2.409 1_565 S
O215 C201 1.254 . S
O216 Tb192 2.378 . S
O216 C202 1.236 . S
O217 Tb193 2.341 . S
O217 C202 1.266 . S
O218 Tb193 2.484 1_565 S
O218 C203 1.268 . S
O219 Tb193 2.440 1_566 S
O219 C203 1.260 1_556 S
O220 Tb192 2.325 . S
O220 Tb193 2.658 . S
O220 C210 1.281 . S
O221 Tb193 2.409 . S
O221 C210 1.254 . S
O222 Tb193 2.378 1_565 S
O222 C211 1.236 . S
O223 Tb192 2.333 1_565 S
O223 C211 1.268 . S
H224 C196 0.929 . S
H225 C197 0.931 . S
H226 C199 0.930 . S
H227 C200 0.930 . S
H228 C205 0.929 1_554 S
H229 C206 0.931 . S
H230 C208 0.930 . S
H231 C209 0.930 . S
Tb232 C234 2.809 . S
Tb232 O252 2.484 . S
Tb232 O253 2.440 . S
Tb232 O254 2.658 . S
Tb232 O255 2.409 . S
Tb232 O256 2.378 . S
Tb232 O260 2.325 . S
Tb232 O263 2.341 . S
Tb233 C243 2.809 . S
Tb233 O254 2.325 . S
Tb233 O257 2.341 . S
Tb233 O258 2.484 . S
Tb233 O259 2.440 . S
Tb233 O260 2.658 . S
Tb233 O261 2.409 . S
Tb233 O262 2.378 . S
C234 Tb232 2.809 . S
C234 C235 1.514 . S
C234 O252 1.248 . S
C234 O253 1.266 . S
C235 C234 1.514 . S
C235 C236 1.359 . S
C235 C240 1.348 . S
C236 C235 1.359 . S
C236 C237 1.380 . S
C236 H264 0.929 . S
C237 C236 1.380 . S
C237 C238 1.347 . S
C237 H265 0.931 . S
C238 C237 1.347 . S
C238 C239 1.369 . S
C239 C238 1.369 . S
C239 C240 1.408 . S
C239 H266 0.930 . S
C240 C235 1.348 . S
C240 C239 1.408 . S
C240 H267 0.930 . S
C241 O254 1.281 . S
C241 O255 1.254 . S
C242 O256 1.236 . S
C242 O257 1.266 . S
C243 Tb233 2.809 . S
C243 C244 1.514 . S
C243 O258 1.248 . S
C243 O259 1.266 . S
C244 C243 1.514 . S
C244 C245 1.359 . S
C244 C249 1.348 . S
C245 C244 1.359 . S
C245 C246 1.380 . S
C245 H268 0.929 . S
C246 C245 1.380 . S
C246 C247 1.347 . S
C246 H269 0.931 . S
C247 C246 1.347 . S
C247 C248 1.369 . S
C248 C247 1.369 . S
C248 C249 1.408 . S
C248 H270 0.930 . S
C249 C244 1.348 . S
C249 C248 1.408 . S
C249 H271 0.930 . S
C250 O260 1.281 . S
C250 O261 1.254 . S
C251 O262 1.236 . S
C251 O263 1.266 . S
O252 Tb232 2.484 . S
O252 C234 1.248 . S
O253 Tb232 2.440 . S
O253 C234 1.266 . S
O254 Tb232 2.658 . S
O254 Tb233 2.325 . S
O254 C241 1.281 . S
O255 Tb232 2.409 . S
O255 C241 1.254 . S
O256 Tb232 2.378 . S
O256 C242 1.236 . S
O257 Tb233 2.341 . S
O257 C242 1.266 . S
O258 Tb233 2.484 . S
O258 C243 1.248 . S
O259 Tb233 2.440 . S
O259 C243 1.266 . S
O260 Tb232 2.325 . S
O260 Tb233 2.658 . S
O260 C250 1.281 . S
O261 Tb233 2.409 . S
O261 C250 1.254 . S
O262 Tb233 2.378 . S
O262 C251 1.236 . S
O263 Tb232 2.341 . S
O263 C251 1.266 . S
H264 C236 0.929 . S
H265 C237 0.931 . S
H266 C239 0.930 . S
H267 C240 0.930 . S
H268 C245 0.929 . S
H269 C246 0.931 . S
H270 C248 0.930 . S
H271 C249 0.930 . S
Tb272 C274 2.809 . S
Tb272 O292 2.484 1_455 S
Tb272 O293 2.440 . S
Tb272 O294 2.658 1_556 S
Tb272 O295 2.409 1_556 S
Tb272 O296 2.378 1_556 S
Tb272 O300 2.325 1_556 S
Tb272 O303 2.341 . S
Tb273 C283 2.809 . S
Tb273 O294 2.325 . S
Tb273 O297 2.341 . S
Tb273 O298 2.484 . S
Tb273 O299 2.440 . S
Tb273 O300 2.658 . S
Tb273 O301 2.409 1_455 S
Tb273 O302 2.378 1_554 S
C274 Tb272 2.809 . S
C274 C275 1.514 1_455 S
C274 O292 1.248 1_455 S
C274 O293 1.266 . S
C275 C274 1.514 1_655 S
C275 C276 1.359 . S
C275 C280 1.348 . S
C276 C275 1.359 . S
C276 C277 1.380 . S
C276 H304 0.929 . S
C277 C276 1.380 . S
C277 C278 1.347 . S
C277 H305 0.931 . S
C278 C277 1.347 . S
C278 C279 1.369 . S
C279 C278 1.369 . S
C279 C280 1.408 . S
C279 H306 0.930 . S
C280 C275 1.348 . S
C280 C279 1.408 . S
C280 H307 0.930 1_655 S
C281 O294 1.281 . S
C281 O295 1.254 . S
C282 O296 1.236 . S
C282 O297 1.266 . S
C283 Tb273 2.809 . S
C283 C284 1.514 . S
C283 O298 1.248 . S
C283 O299 1.266 . S
C284 C283 1.514 . S
C284 C285 1.359 . S
C284 C289 1.348 . S
C285 C284 1.359 . S
C285 C286 1.380 . S
C285 H308 0.929 . S
C286 C285 1.380 . S
C286 C287 1.347 . S
C286 H309 0.931 . S
C287 C286 1.347 . S
C287 C288 1.369 . S
C288 C287 1.369 . S
C288 C289 1.408 . S
C288 H310 0.930 . S
C289 C284 1.348 . S
C289 C288 1.408 . S
C289 H311 0.930 . S
C290 O300 1.281 1_656 S
C290 O301 1.254 1_556 S
C291 O302 1.236 . S
C291 O303 1.266 . S
O292 Tb272 2.484 1_655 S
O292 C274 1.248 1_655 S
O293 Tb272 2.440 . S
O293 C274 1.266 . S
O294 Tb272 2.658 1_554 S
O294 Tb273 2.325 . S
O294 C281 1.281 . S
O295 Tb272 2.409 1_554 S
O295 C281 1.254 . S
O296 Tb272 2.378 1_554 S
O296 C282 1.236 . S
O297 Tb273 2.341 . S
O297 C282 1.266 . S
O298 Tb273 2.484 . S
O298 C283 1.248 . S
O299 Tb273 2.440 . S
O299 C283 1.266 . S
O300 Tb272 2.325 1_554 S
O300 Tb273 2.658 . S
O300 C290 1.281 1_454 S
O301 Tb273 2.409 1_655 S
O301 C290 1.254 1_554 S
O302 Tb273 2.378 1_556 S
O302 C291 1.236 . S
O303 Tb272 2.341 . S
O303 C291 1.266 . S
H304 C276 0.929 . S
H305 C277 0.931 . S
H306 C279 0.930 . S
H307 C280 0.930 1_455 S
H308 C285 0.929 . S
H309 C286 0.931 . S
H310 C288 0.930 . S
H311 C289 0.930 . S
C312 C313 1.363 . S
C312 C318 1.379 . S
C312 N320 1.356 . S
C313 C312 1.363 . S
C313 C319 1.363 . S
C314 C315 1.363 . S
C314 C319 1.379 . S
C314 N321 1.356 . S
C315 C314 1.363 . S
C315 C318 1.363 . S
N316 C318 1.356 . S
N316 H328 0.984 . S
N316 H329 0.985 . S
N317 C319 1.356 . S
N317 H322 0.984 . S
N317 H323 0.985 . S
C318 C312 1.379 . S
C318 C315 1.363 . S
C318 N316 1.356 . S
C319 C313 1.363 . S
C319 C314 1.379 . S
C319 N317 1.356 . S
N320 C312 1.356 . S
N320 H326 0.984 . S
N320 H327 0.984 . S
N321 C314 1.356 . S
N321 H324 0.984 . S
N321 H325 0.985 . S
H322 N317 0.984 . S
H323 N317 0.985 . S
H324 N321 0.984 . S
H325 N321 0.985 . S
H326 N320 0.984 . S
H327 N320 0.984 . S
H328 N316 0.984 . S
H329 N316 0.985 . S
C330 C331 1.363 . S
C330 C336 1.379 . S
C330 N338 1.356 . S
C331 C330 1.363 . S
C331 C337 1.363 . S
C332 C333 1.363 . S
C332 C337 1.379 . S
C332 N339 1.356 . S
C333 C332 1.363 . S
C333 C336 1.363 . S
N334 C336 1.356 . S
N334 H346 0.984 . S
N334 H347 0.985 . S
N335 C337 1.356 . S
N335 H340 0.984 . S
N335 H341 0.985 . S
C336 C330 1.379 . S
C336 C333 1.363 . S
C336 N334 1.356 . S
C337 C331 1.363 . S
C337 C332 1.379 . S
C337 N335 1.356 . S
N338 C330 1.356 . S
N338 H344 0.984 . S
N338 H345 0.984 . S
N339 C332 1.356 . S
N339 H342 0.984 . S
N339 H343 0.985 . S
H340 N335 0.984 . S
H341 N335 0.985 . S
H342 N339 0.984 . S
H343 N339 0.985 . S
H344 N338 0.984 . S
H345 N338 0.984 . S
H346 N334 0.984 . S
H347 N334 0.985 . S
C348 C349 1.363 . S
C348 C354 1.379 . S
C348 N356 1.356 . S
C349 C348 1.363 . S
C349 C355 1.363 . S
C350 C351 1.363 . S
C350 C355 1.379 . S
C350 N357 1.356 . S
C351 C350 1.363 . S
C351 C354 1.363 . S
N352 C354 1.356 . S
N352 H364 0.984 . S
N352 H365 0.985 . S
N353 C355 1.356 . S
N353 H358 0.984 . S
N353 H359 0.985 . S
C354 C348 1.379 . S
C354 C351 1.363 . S
C354 N352 1.356 . S
C355 C349 1.363 . S
C355 C350 1.379 . S
C355 N353 1.356 . S
N356 C348 1.356 . S
N356 H362 0.984 . S
N356 H363 0.984 . S
N357 C350 1.356 . S
N357 H360 0.984 . S
N357 H361 0.985 . S
H358 N353 0.984 . S
H359 N353 0.985 . S
H360 N357 0.984 . S
H361 N357 0.985 . S
H362 N356 0.984 . S
H363 N356 0.984 . S
H364 N352 0.984 . S
H365 N352 0.985 . S
C366 C367 1.363 . S
C366 C372 1.379 . S
C366 N374 1.356 . S
C367 C366 1.363 . S
C367 C373 1.363 . S
C368 C369 1.363 . S
C368 C373 1.379 . S
C368 N375 1.356 . S
C369 C368 1.363 . S
C369 C372 1.363 . S
N370 C372 1.356 . S
N370 H382 0.984 . S
N370 H383 0.985 . S
N371 C373 1.356 . S
N371 H376 0.984 . S
N371 H377 0.985 . S
C372 C366 1.379 . S
C372 C369 1.363 . S
C372 N370 1.356 . S
C373 C367 1.363 . S
C373 C368 1.379 . S
C373 N371 1.356 . S
N374 C366 1.356 . S
N374 H380 0.984 . S
N374 H381 0.984 . S
N375 C368 1.356 . S
N375 H378 0.984 . S
N375 H379 0.985 . S
H376 N371 0.984 . S
H377 N371 0.985 . S
H378 N375 0.984 . S
H379 N375 0.985 . S
H380 N374 0.984 . S
H381 N374 0.984 . S
H382 N370 0.984 . S
H383 N370 0.985 . S
C384 C385 1.363 . S
C384 C390 1.379 . S
C384 N392 1.356 . S
C385 C384 1.363 . S
C385 C391 1.363 . S
C386 C387 1.363 . S
C386 C391 1.379 . S
C386 N393 1.356 . S
C387 C386 1.363 . S
C387 C390 1.363 . S
N388 C390 1.356 . S
N388 H400 0.984 . S
N388 H401 0.985 . S
N389 C391 1.356 . S
N389 H394 0.984 . S
N389 H395 0.985 . S
C390 C384 1.379 . S
C390 C387 1.363 . S
C390 N388 1.356 . S
C391 C385 1.363 . S
C391 C386 1.379 . S
C391 N389 1.356 . S
N392 C384 1.356 . S
N392 H398 0.984 . S
N392 H399 0.984 . S
N393 C386 1.356 . S
N393 H396 0.984 . S
N393 H397 0.985 . S
H394 N389 0.984 . S
H395 N389 0.985 . S
H396 N393 0.984 . S
H397 N393 0.985 . S
H398 N392 0.984 . S
H399 N392 0.984 . S
H400 N388 0.984 . S
H401 N388 0.985 . S
C402 C403 1.363 1_455 S
C402 C408 1.379 . S
C402 N410 1.356 . S
C403 C402 1.363 1_655 S
C403 C409 1.363 . S
C404 C405 1.363 1_655 S
C404 C409 1.379 . S
C404 N411 1.356 . S
C405 C404 1.363 1_455 S
C405 C408 1.363 . S
N406 C408 1.356 . S
N406 H418 0.984 . S
N406 H419 0.985 . S
N407 C409 1.356 . S
N407 H412 0.984 . S
N407 H413 0.985 . S
C408 C402 1.379 . S
C408 C405 1.363 . S
C408 N406 1.356 . S
C409 C403 1.363 . S
C409 C404 1.379 . S
C409 N407 1.356 . S
N410 C402 1.356 . S
N410 H416 0.984 . S
N410 H417 0.984 . S
N411 C404 1.356 . S
N411 H414 0.984 . S
N411 H415 0.985 . S
H412 N407 0.984 . S
H413 N407 0.985 . S
H414 N411 0.984 . S
H415 N411 0.985 . S
H416 N410 0.984 . S
H417 N410 0.984 . S
H418 N406 0.984 . S
H419 N406 0.985 . S
C420 C421 1.363 . S
C420 C426 1.379 . S
C420 N428 1.356 . S
C421 C420 1.363 . S
C421 C427 1.363 . S
C422 C423 1.363 . S
C422 C427 1.379 . S
C422 N429 1.356 . S
C423 C422 1.363 . S
C423 C426 1.363 . S
N424 C426 1.356 1_554 S
N424 H436 0.984 . S
N424 H437 0.985 . S
N425 C427 1.356 . S
N425 H430 0.984 . S
N425 H431 0.985 . S
C426 C420 1.379 . S
C426 C423 1.363 . S
C426 N424 1.356 1_556 S
C427 C421 1.363 . S
C427 C422 1.379 . S
C427 N425 1.356 . S
N428 C420 1.356 . S
N428 H434 0.984 . S
N428 H435 0.984 . S
N429 C422 1.356 . S
N429 H432 0.984 . S
N429 H433 0.985 . S
H430 N425 0.984 . S
H431 N425 0.985 . S
H432 N429 0.984 . S
H433 N429 0.985 . S
H434 N428 0.984 . S
H435 N428 0.984 . S
H436 N424 0.984 . S
H437 N424 0.985 . S
C438 C439 1.363 . S
C438 C444 1.379 . S
C438 N446 1.356 . S
C439 C438 1.363 . S
C439 C445 1.363 . S
C440 C441 1.363 . S
C440 C445 1.379 . S
C440 N447 1.356 . S
C441 C440 1.363 . S
C441 C444 1.363 . S
N442 C444 1.356 . S
N442 H454 0.984 . S
N442 H455 0.985 . S
N443 C445 1.356 . S
N443 H448 0.984 . S
N443 H449 0.985 . S
C444 C438 1.379 . S
C444 C441 1.363 . S
C444 N442 1.356 . S
C445 C439 1.363 . S
C445 C440 1.379 . S
C445 N443 1.356 . S
N446 C438 1.356 . S
N446 H452 0.984 . S
N446 H453 0.984 . S
N447 C440 1.356 . S
N447 H450 0.984 . S
N447 H451 0.985 . S
H448 N443 0.984 . S
H449 N443 0.985 . S
H450 N447 0.984 . S
H451 N447 0.985 . S
H452 N446 0.984 . S
H453 N446 0.984 . S
H454 N442 0.984 . S
H455 N442 0.985 . S
C456 C457 1.363 . S
C456 C462 1.379 . S
C456 N464 1.356 . S
C457 C456 1.363 . S
C457 C463 1.363 . S
C458 C459 1.363 . S
C458 C463 1.379 . S
C458 N465 1.356 . S
C459 C458 1.363 . S
C459 C462 1.363 . S
N460 C462 1.356 . S
N460 H472 0.984 . S
N460 H473 0.985 . S
N461 C463 1.356 . S
N461 H466 0.984 . S
N461 H467 0.985 . S
C462 C456 1.379 . S
C462 C459 1.363 . S
C462 N460 1.356 . S
C463 C457 1.363 . S
C463 C458 1.379 . S
C463 N461 1.356 . S
N464 C456 1.356 . S
N464 H470 0.984 . S
N464 H471 0.984 . S
N465 C458 1.356 . S
N465 H468 0.984 . S
N465 H469 0.985 . S
H466 N461 0.984 . S
H467 N461 0.985 . S
H468 N465 0.984 . S
H469 N465 0.985 . S
H470 N464 0.984 . S
H471 N464 0.984 . S
H472 N460 0.984 . S
H473 N460 0.985 . S
C474 C475 1.363 . S
C474 C480 1.379 . S
C474 N482 1.356 . S
C475 C474 1.363 . S
C475 C481 1.363 1_556 S
C476 C477 1.363 . S
C476 C481 1.379 . S
C476 N483 1.356 . S
C477 C476 1.363 . S
C477 C480 1.363 1_554 S
N478 C480 1.356 . S
N478 H490 0.984 . S
N478 H491 0.985 . S
N479 C481 1.356 . S
N479 H484 0.984 1_554 S
N479 H485 0.985 . S
C480 C474 1.379 . S
C480 C477 1.363 1_556 S
C480 N478 1.356 . S
C481 C475 1.363 1_554 S
C481 C476 1.379 . S
C481 N479 1.356 . S
N482 C474 1.356 . S
N482 H488 0.984 . S
N482 H489 0.984 . S
N483 C476 1.356 . S
N483 H486 0.984 . S
N483 H487 0.985 . S
H484 N479 0.984 1_556 S
H485 N479 0.985 . S
H486 N483 0.984 . S
H487 N483 0.985 . S
H488 N482 0.984 . S
H489 N482 0.984 . S
H490 N478 0.984 . S
H491 N478 0.985 . S
C492 C493 1.363 . S
C492 C498 1.379 . S
C492 N500 1.356 . S
C493 C492 1.363 . S
C493 C499 1.363 . S
C494 C495 1.363 . S
C494 C499 1.379 . S
C494 N501 1.356 . S
C495 C494 1.363 . S
C495 C498 1.363 . S
N496 C498 1.356 . S
N496 H508 0.984 . S
N496 H509 0.985 . S
N497 C499 1.356 . S
N497 H502 0.984 . S
N497 H503 0.985 . S
C498 C492 1.379 . S
C498 C495 1.363 . S
C498 N496 1.356 . S
C499 C493 1.363 . S
C499 C494 1.379 . S
C499 N497 1.356 . S
N500 C492 1.356 . S
N500 H506 0.984 . S
N500 H507 0.984 . S
N501 C494 1.356 . S
N501 H504 0.984 . S
N501 H505 0.985 . S
H502 N497 0.984 . S
H503 N497 0.985 . S
H504 N501 0.984 . S
H505 N501 0.985 . S
H506 N500 0.984 . S
H507 N500 0.984 . S
H508 N496 0.984 . S
H509 N496 0.985 . S
C510 C511 1.363 . S
C510 C516 1.379 . S
C510 N518 1.356 . S
C511 C510 1.363 . S
C511 C517 1.363 . S
C512 C513 1.363 . S
C512 C517 1.379 . S
C512 N519 1.356 . S
C513 C512 1.363 . S
C513 C516 1.363 . S
N514 C516 1.356 . S
N514 H526 0.984 . S
N514 H527 0.985 . S
N515 C517 1.356 . S
N515 H520 0.984 . S
N515 H521 0.985 . S
C516 C510 1.379 . S
C516 C513 1.363 . S
C516 N514 1.356 . S
C517 C511 1.363 . S
C517 C512 1.379 . S
C517 N515 1.356 . S
N518 C510 1.356 . S
N518 H524 0.984 . S
N518 H525 0.984 . S
N519 C512 1.356 . S
N519 H522 0.984 . S
N519 H523 0.985 . S
H520 N515 0.984 . S
H521 N515 0.985 . S
H522 N519 0.984 . S
H523 N519 0.985 . S
H524 N518 0.984 . S
H525 N518 0.984 . S
H526 N514 0.984 . S
H527 N514 0.985 . S
C528 C529 1.363 . S
C528 C534 1.379 . S
C528 N536 1.356 . S
C529 C528 1.363 . S
C529 C535 1.363 . S
C530 C531 1.363 . S
C530 C535 1.379 . S
C530 N537 1.356 . S
C531 C530 1.363 . S
C531 C534 1.363 . S
N532 C534 1.356 . S
N532 H544 0.984 . S
N532 H545 0.985 . S
N533 C535 1.356 . S
N533 H538 0.984 . S
N533 H539 0.985 . S
C534 C528 1.379 . S
C534 C531 1.363 . S
C534 N532 1.356 . S
C535 C529 1.363 . S
C535 C530 1.379 . S
C535 N533 1.356 . S
N536 C528 1.356 . S
N536 H542 0.984 . S
N536 H543 0.984 . S
N537 C530 1.356 . S
N537 H540 0.984 . S
N537 H541 0.985 . S
H538 N533 0.984 . S
H539 N533 0.985 . S
H540 N537 0.984 . S
H541 N537 0.985 . S
H542 N536 0.984 . S
H543 N536 0.984 . S
H544 N532 0.984 . S
H545 N532 0.985 . S
C546 C547 1.363 . S
C546 C552 1.379 . S
C546 N554 1.356 . S
C547 C546 1.363 . S
C547 C553 1.363 . S
C548 C549 1.363 . S
C548 C553 1.379 . S
C548 N555 1.356 . S
C549 C548 1.363 . S
C549 C552 1.363 . S
N550 C552 1.356 . S
N550 H562 0.984 . S
N550 H563 0.985 . S
N551 C553 1.356 . S
N551 H556 0.984 . S
N551 H557 0.985 . S
C552 C546 1.379 . S
C552 C549 1.363 . S
C552 N550 1.356 . S
C553 C547 1.363 . S
C553 C548 1.379 . S
C553 N551 1.356 . S
N554 C546 1.356 . S
N554 H560 0.984 . S
N554 H561 0.984 . S
N555 C548 1.356 . S
N555 H558 0.984 . S
N555 H559 0.985 . S
H556 N551 0.984 . S
H557 N551 0.985 . S
H558 N555 0.984 . S
H559 N555 0.985 . S
H560 N554 0.984 . S
H561 N554 0.984 . S
H562 N550 0.984 . S
H563 N550 0.985 . S
C564 C565 1.363 . S
C564 C570 1.379 . S
C564 N572 1.356 . S
C565 C564 1.363 . S
C565 C571 1.363 . S
C566 C567 1.363 . S
C566 C571 1.379 . S
C566 N573 1.356 . S
C567 C566 1.363 . S
C567 C570 1.363 . S
N568 C570 1.356 . S
N568 H580 0.984 . S
N568 H581 0.985 . S
N569 C571 1.356 . S
N569 H574 0.984 . S
N569 H575 0.985 . S
C570 C564 1.379 . S
C570 C567 1.363 . S
C570 N568 1.356 . S
C571 C565 1.363 . S
C571 C566 1.379 . S
C571 N569 1.356 . S
N572 C564 1.356 . S
N572 H578 0.984 . S
N572 H579 0.984 . S
N573 C566 1.356 . S
N573 H576 0.984 . S
N573 H577 0.985 . S
H574 N569 0.984 . S
H575 N569 0.985 . S
H576 N573 0.984 . S
H577 N573 0.985 . S
H578 N572 0.984 . S
H579 N572 0.984 . S
H580 N568 0.984 . S
H581 N568 0.985 . S
C582 C583 1.363 . S
C582 C588 1.379 . S
C582 N590 1.356 . S
C583 C582 1.363 . S
C583 C589 1.363 . S
C584 C585 1.363 . S
C584 C589 1.379 . S
C584 N591 1.356 . S
C585 C584 1.363 . S
C585 C588 1.363 . S
N586 C588 1.356 . S
N586 H598 0.984 . S
N586 H599 0.985 . S
N587 C589 1.356 . S
N587 H592 0.984 . S
N587 H593 0.985 . S
C588 C582 1.379 . S
C588 C585 1.363 . S
C588 N586 1.356 . S
C589 C583 1.363 . S
C589 C584 1.379 . S
C589 N587 1.356 . S
N590 C582 1.356 . S
N590 H596 0.984 . S
N590 H597 0.984 . S
N591 C584 1.356 . S
N591 H594 0.984 . S
N591 H595 0.985 . S
H592 N587 0.984 . S
H593 N587 0.985 . S
H594 N591 0.984 . S
H595 N591 0.985 . S
H596 N590 0.984 . S
H597 N590 0.984 . S
H598 N586 0.984 . S
H599 N586 0.985 . S
C600 C601 1.363 1_554 S
C600 C606 1.379 . S
C600 N608 1.356 . S
C601 C600 1.363 1_556 S
C601 C607 1.363 . S
C602 C603 1.363 1_556 S
C602 C607 1.379 . S
C602 N609 1.356 . S
C603 C602 1.363 1_554 S
C603 C606 1.363 . S
N604 C606 1.356 . S
N604 H616 0.984 . S
N604 H617 0.985 . S
N605 C607 1.356 . S
N605 H610 0.984 . S
N605 H611 0.985 . S
C606 C600 1.379 . S
C606 C603 1.363 . S
C606 N604 1.356 . S
C607 C601 1.363 . S
C607 C602 1.379 . S
C607 N605 1.356 . S
N608 C600 1.356 . S
N608 H614 0.984 . S
N608 H615 0.984 1_554 S
N609 C602 1.356 . S
N609 H612 0.984 1_556 S
N609 H613 0.985 . S
H610 N605 0.984 . S
H611 N605 0.985 . S
H612 N609 0.984 1_554 S
H613 N609 0.985 . S
H614 N608 0.984 . S
H615 N608 0.984 1_556 S
H616 N604 0.984 . S
H617 N604 0.985 . S
C618 C619 1.363 . S
C618 C624 1.379 . S
C618 N626 1.356 . S
C619 C618 1.363 . S
C619 C625 1.363 1_655 S
C620 C621 1.363 1_455 S
C620 C625 1.379 . S
C620 N627 1.356 . S
C621 C620 1.363 1_655 S
C621 C624 1.363 . S
N622 C624 1.356 . S
N622 H634 0.984 . S
N622 H635 0.985 . S
N623 C625 1.356 . S
N623 H628 0.984 . S
N623 H629 0.985 . S
C624 C618 1.379 . S
C624 C621 1.363 . S
C624 N622 1.356 . S
C625 C619 1.363 1_455 S
C625 C620 1.379 . S
C625 N623 1.356 . S
N626 C618 1.356 . S
N626 H632 0.984 . S
N626 H633 0.984 . S
N627 C620 1.356 . S
N627 H630 0.984 . S
N627 H631 0.985 . S
H628 N623 0.984 . S
H629 N623 0.985 . S
H630 N627 0.984 . S
H631 N627 0.985 . S
H632 N626 0.984 . S
H633 N626 0.984 . S
H634 N622 0.984 . S
H635 N622 0.985 . S
C636 C637 1.363 . S
C636 C642 1.379 . S
C636 N644 1.356 . S
C637 C636 1.363 . S
C637 C643 1.363 . S
C638 C639 1.363 . S
C638 C643 1.379 . S
C638 N645 1.356 . S
C639 C638 1.363 . S
C639 C642 1.363 . S
N640 C642 1.356 . S
N640 H652 0.984 . S
N640 H653 0.985 . S
N641 C643 1.356 . S
N641 H646 0.984 . S
N641 H647 0.985 . S
C642 C636 1.379 . S
C642 C639 1.363 . S
C642 N640 1.356 . S
C643 C637 1.363 . S
C643 C638 1.379 . S
C643 N641 1.356 . S
N644 C636 1.356 . S
N644 H650 0.984 . S
N644 H651 0.984 . S
N645 C638 1.356 . S
N645 H648 0.984 . S
N645 H649 0.985 . S
H646 N641 0.984 . S
H647 N641 0.985 . S
H648 N645 0.984 . S
H649 N645 0.985 . S
H650 N644 0.984 . S
H651 N644 0.984 . S
H652 N640 0.984 . S
H653 N640 0.985 . S
C654 C655 1.363 . S
C654 C660 1.379 . S
C654 N662 1.356 . S
C655 C654 1.363 . S
C655 C661 1.363 . S
C656 C657 1.363 . S
C656 C661 1.379 . S
C656 N663 1.356 . S
C657 C656 1.363 . S
C657 C660 1.363 . S
N658 C660 1.356 . S
N658 H670 0.984 . S
N658 H671 0.985 . S
N659 C661 1.356 . S
N659 H664 0.984 . S
N659 H665 0.985 . S
C660 C654 1.379 . S
C660 C657 1.363 . S
C660 N658 1.356 . S
C661 C655 1.363 . S
C661 C656 1.379 . S
C661 N659 1.356 . S
N662 C654 1.356 . S
N662 H668 0.984 . S
N662 H669 0.984 . S
N663 C656 1.356 . S
N663 H666 0.984 . S
N663 H667 0.985 . S
H664 N659 0.984 . S
H665 N659 0.985 . S
H666 N663 0.984 . S
H667 N663 0.985 . S
H668 N662 0.984 . S
H669 N662 0.984 . S
H670 N658 0.984 . S
H671 N658 0.985 . S
C672 C673 1.363 . S
C672 C678 1.379 . S
C672 N680 1.356 . S
C673 C672 1.363 . S
C673 C679 1.363 . S
C674 C675 1.363 . S
C674 C679 1.379 . S
C674 N681 1.356 . S
C675 C674 1.363 . S
C675 C678 1.363 . S
N676 C678 1.356 1_554 S
N676 H688 0.984 . S
N676 H689 0.985 . S
N677 C679 1.356 . S
N677 H682 0.984 . S
N677 H683 0.985 . S
C678 C672 1.379 . S
C678 C675 1.363 . S
C678 N676 1.356 1_556 S
C679 C673 1.363 . S
C679 C674 1.379 . S
C679 N677 1.356 . S
N680 C672 1.356 . S
N680 H686 0.984 1_556 S
N680 H687 0.984 . S
N681 C674 1.356 . S
N681 H684 0.984 . S
N681 H685 0.985 . S
H682 N677 0.984 . S
H683 N677 0.985 . S
H684 N681 0.984 . S
H685 N681 0.985 . S
H686 N680 0.984 1_554 S
H687 N680 0.984 . S
H688 N676 0.984 . S
H689 N676 0.985 . S
C690 C691 1.363 . S
C690 C696 1.379 . S
C690 N698 1.356 . S
C691 C690 1.363 . S
C691 C697 1.363 . S
C692 C693 1.363 . S
C692 C697 1.379 . S
C692 N699 1.356 . S
C693 C692 1.363 . S
C693 C696 1.363 . S
N694 C696 1.356 . S
N694 H706 0.984 . S
N694 H707 0.985 . S
N695 C697 1.356 . S
N695 H700 0.984 . S
N695 H701 0.985 . S
C696 C690 1.379 . S
C696 C693 1.363 . S
C696 N694 1.356 . S
C697 C691 1.363 . S
C697 C692 1.379 . S
C697 N695 1.356 . S
N698 C690 1.356 . S
N698 H704 0.984 . S
N698 H705 0.984 . S
N699 C692 1.356 . S
N699 H702 0.984 . S
N699 H703 0.985 . S
H700 N695 0.984 . S
H701 N695 0.985 . S
H702 N699 0.984 . S
H703 N699 0.985 . S
H704 N698 0.984 . S
H705 N698 0.984 . S
H706 N694 0.984 . S
H707 N694 0.985 . S
C708 C709 1.363 . S
C708 C714 1.379 . S
C708 N716 1.356 . S
C709 C708 1.363 . S
C709 C715 1.363 . S
C710 C711 1.363 . S
C710 C715 1.379 . S
C710 N717 1.356 . S
C711 C710 1.363 . S
C711 C714 1.363 . S
N712 C714 1.356 . S
N712 H724 0.984 . S
N712 H725 0.985 . S
N713 C715 1.356 . S
N713 H718 0.984 . S
N713 H719 0.985 . S
C714 C708 1.379 . S
C714 C711 1.363 . S
C714 N712 1.356 . S
C715 C709 1.363 . S
C715 C710 1.379 . S
C715 N713 1.356 . S
N716 C708 1.356 . S
N716 H722 0.984 . S
N716 H723 0.984 . S
N717 C710 1.356 . S
N717 H720 0.984 . S
N717 H721 0.985 . S
H718 N713 0.984 . S
H719 N713 0.985 . S
H720 N717 0.984 . S
H721 N717 0.985 . S
H722 N716 0.984 . S
H723 N716 0.984 . S
H724 N712 0.984 . S
H725 N712 0.985 . S
C726 C727 1.363 . S
C726 C732 1.379 . S
C726 N734 1.356 . S
C727 C726 1.363 . S
C727 C733 1.363 . S
C728 C729 1.363 . S
C728 C733 1.379 . S
C728 N735 1.356 . S
C729 C728 1.363 . S
C729 C732 1.363 . S
N730 C732 1.356 . S
N730 H742 0.984 . S
N730 H743 0.985 . S
N731 C733 1.356 . S
N731 H736 0.984 . S
N731 H737 0.985 . S
C732 C726 1.379 . S
C732 C729 1.363 . S
C732 N730 1.356 . S
C733 C727 1.363 . S
C733 C728 1.379 . S
C733 N731 1.356 . S
N734 C726 1.356 . S
N734 H740 0.984 . S
N734 H741 0.984 . S
N735 C728 1.356 . S
N735 H738 0.984 . S
N735 H739 0.985 . S
H736 N731 0.984 . S
H737 N731 0.985 . S
H738 N735 0.984 . S
H739 N735 0.985 . S
H740 N734 0.984 . S
H741 N734 0.984 . S
H742 N730 0.984 . S
H743 N730 0.985 . S
C313 C6 1.483 . S
C315 C167 1.505 . S
C331 C21 1.316 . S
C333 C207 1.386 . S
C351 C241 2.089 . S
C349 C49 2.018 . S
C367 C68 2.415 . S
C369 C282 2.476 1_655 S
C387 C202 2.207 . S
C385 C2 2.090 . S
C405 C162 1.946 . S
C403 C30 1.881 . S
C423 C290 1.637 . S
C421 C40 1.742 . S
C441 C251 1.863 . S
C439 C63 2.004 . S
C457 C11 1.434 . S
C459 C287 1.488 . S
C477 C210 2.318 . S
C475 C44 2.394 . S
C493 C59 2.009 . S
C495 C170 1.976 . S
C511 C25 2.153 . S
C513 C238 2.189 . S
C531 C158 1.502 . S
C529 C82 1.510 . S
C547 C101 1.153 . S
C549 C198 1.210 . S
C565 C125 2.051 . S
C567 C250 2.181 . S
C583 C144 2.304 . S
C585 C291 2.196 . S
C601 C87 1.394 . S
C603 C211 1.507 . S
C621 C171 2.626 . S
C619 C97 2.450 . S
C639 C281 1.780 . S
C637 C120 1.721 . S
C657 C242 1.812 . S
C655 C135 1.871 . S
C673 C78 2.202 . S
C675 C278 2.253 . S
C693 C201 1.673 . S
C691 C116 1.691 . S
C711 C161 2.514 . S
C709 C139 2.624 . S
C727 C106 1.149 . S
C729 C247 1.593 . S
