# Generated by pormake.
# Topology eea, (3,6)-cn, num edge types: 1
# Building blocks:
#     Node 0, Type 0, BuildingBlock: INOVEN_clean_linker_0, # of connection points: 3
#     Node 1, Type 0, BuildingBlock: INOVEN_clean_linker_0, # of connection points: 3
#     Node 2, Type 0, BuildingBlock: INOVEN_clean_linker_0, # of connection points: 3
#     Node 3, Type 0, BuildingBlock: INOVEN_clean_linker_0, # of connection points: 3
#     Node 4, Type 0, BuildingBlock: INOVEN_clean_linker_0, # of connection points: 3
#     Node 5, Type 0, BuildingBlock: INOVEN_clean_linker_0, # of connection points: 3
#     Node 6, Type 0, BuildingBlock: INOVEN_clean_linker_0, # of connection points: 3
#     Node 7, Type 0, BuildingBlock: INOVEN_clean_linker_0, # of connection points: 3
#     Node 8, Type 0, BuildingBlock: INOVEN_clean_linker_0, # of connection points: 3
#     Node 9, Type 0, BuildingBlock: INOVEN_clean_linker_0, # of connection points: 3
#     Node 10, Type 0, BuildingBlock: INOVEN_clean_linker_0, # of connection points: 3
#     Node 11, Type 0, BuildingBlock: INOVEN_clean_linker_0, # of connection points: 3
#     Node 12, Type 0, BuildingBlock: INOVEN_clean_linker_0, # of connection points: 3
#     Node 13, Type 0, BuildingBlock: INOVEN_clean_linker_0, # of connection points: 3
#     Node 14, Type 0, BuildingBlock: INOVEN_clean_linker_0, # of connection points: 3
#     Node 15, Type 0, BuildingBlock: INOVEN_clean_linker_0, # of connection points: 3
#     Node 16, Type 0, BuildingBlock: INOVEN_clean_linker_0, # of connection points: 3
#     Node 17, Type 0, BuildingBlock: INOVEN_clean_linker_0, # of connection points: 3
#     Node 18, Type 1, BuildingBlock: CIFDUS_clean_sbu_1, # of connection points: 6
#     Node 19, Type 1, BuildingBlock: CIFDUS_clean_sbu_1, # of connection points: 6
#     Node 20, Type 1, BuildingBlock: CIFDUS_clean_sbu_1, # of connection points: 6
#     Node 21, Type 1, BuildingBlock: CIFDUS_clean_sbu_1, # of connection points: 6
#     Node 22, Type 1, BuildingBlock: CIFDUS_clean_sbu_1, # of connection points: 6
#     Node 23, Type 1, BuildingBlock: CIFDUS_clean_sbu_1, # of connection points: 6
#     Node 24, Type 1, BuildingBlock: CIFDUS_clean_sbu_1, # of connection points: 6
#     Node 25, Type 1, BuildingBlock: CIFDUS_clean_sbu_1, # of connection points: 6
#     Node 26, Type 1, BuildingBlock: CIFDUS_clean_sbu_1, # of connection points: 6
#     Edge 27, Type (0, 1), None
#     Edge 28, Type (0, 1), None
#     Edge 29, Type (0, 1), None
#     Edge 30, Type (0, 1), None
#     Edge 31, Type (0, 1), None
#     Edge 32, Type (0, 1), None
#     Edge 33, Type (0, 1), None
#     Edge 34, Type (0, 1), None
#     Edge 35, Type (0, 1), None
#     Edge 36, Type (0, 1), None
#     Edge 37, Type (0, 1), None
#     Edge 38, Type (0, 1), None
#     Edge 39, Type (0, 1), None
#     Edge 40, Type (0, 1), None
#     Edge 41, Type (0, 1), None
#     Edge 42, Type (0, 1), None
#     Edge 43, Type (0, 1), None
#     Edge 44, Type (0, 1), None
#     Edge 45, Type (0, 1), None
#     Edge 46, Type (0, 1), None
#     Edge 47, Type (0, 1), None
#     Edge 48, Type (0, 1), None
#     Edge 49, Type (0, 1), None
#     Edge 50, Type (0, 1), None
#     Edge 51, Type (0, 1), None
#     Edge 52, Type (0, 1), None
#     Edge 53, Type (0, 1), None
#     Edge 54, Type (0, 1), None
#     Edge 55, Type (0, 1), None
#     Edge 56, Type (0, 1), None
#     Edge 57, Type (0, 1), None
#     Edge 58, Type (0, 1), None
#     Edge 59, Type (0, 1), None
#     Edge 60, Type (0, 1), None
#     Edge 61, Type (0, 1), None
#     Edge 62, Type (0, 1), None
#     Edge 63, Type (0, 1), None
#     Edge 64, Type (0, 1), None
#     Edge 65, Type (0, 1), None
#     Edge 66, Type (0, 1), None
#     Edge 67, Type (0, 1), None
#     Edge 68, Type (0, 1), None
#     Edge 69, Type (0, 1), None
#     Edge 70, Type (0, 1), None
#     Edge 71, Type (0, 1), None
#     Edge 72, Type (0, 1), None
#     Edge 73, Type (0, 1), None
#     Edge 74, Type (0, 1), None
#     Edge 75, Type (0, 1), None
#     Edge 76, Type (0, 1), None
#     Edge 77, Type (0, 1), None
#     Edge 78, Type (0, 1), None
#     Edge 79, Type (0, 1), None
#     Edge 80, Type (0, 1), None
# Relax obj value: 0.095
# Max RMSD: 0.133
# Mean RMSD: 0.098
data_MOF--net-eea--node1-CIFDUS_clean_sbu_1--node2-INOVEN_clean_linker_0--edge1-none
_symmetry_space_group_name_H-M    P1
_symmetry_Int_Tables_number       1
_symmetry_cell_setting            triclinic
loop_
_symmetry_equiv_pos_as_xyz
'x, y, z'
_cell_length_a     26.149774
_cell_length_b     24.469418
_cell_length_c     18.766556
_cell_angle_alpha  96.374359
_cell_angle_beta   92.078739
_cell_angle_gamma 119.83812
loop_
_atom_site_label
_atom_site_type_symbol
_atom_site_fract_x
_atom_site_fract_y
_atom_site_fract_z
_atom_type_partial_charge
H0 H 0.17393 0.03849 0.29037 0.0
H1 H 0.29081 0.05495 0.46811 0.0
H2 H 0.23113 0.18983 0.46512 0.0
N3 N 0.19145 0.15151 0.32533 0.0
N4 N 0.19139 0.20197 0.34352 0.0
C5 C 0.19329 0.05828 0.34582 0.0
C6 C 0.22796 0.03727 0.37829 0.0
C7 C 0.19639 0.1147 0.37528 0.0
C8 C 0.22767 0.14504 0.44353 0.0
C9 C 0.26224 0.12394 0.47801 0.0
C10 C 0.26062 0.06853 0.44584 0.0
H11 H 0.88533 0.05147 0.26397 0.0
H12 H 0.80452 0.06204 0.45842 0.0
H13 H 0.97337 0.21707 0.4229 0.0
N14 N 0.98072 0.17238 0.29816 0.0
N15 N 0.98416 0.22271 0.28413 0.0
C16 C 0.88813 0.07483 0.31772 0.0
C17 C 0.84068 0.04684 0.36065 0.0
C18 C 0.93553 0.13659 0.34112 0.0
C19 C 0.93606 0.16933 0.40695 0.0
C20 C 0.88951 0.1442 0.44979 0.0
C21 C 0.84236 0.08147 0.42754 0.0
H22 H 0.87962 0.82101 0.27297 0.0
H23 H 0.80278 0.75573 0.46887 0.0
H24 H 0.96853 0.77108 0.42754 0.0
N25 N 0.97526 0.80641 0.30317 0.0
N26 N 0.02866 0.84199 0.32626 0.0
C27 C 0.8828 0.80797 0.32556 0.0
C28 C 0.83683 0.79355 0.37037 0.0
C29 C 0.93155 0.80205 0.34843 0.0
C30 C 0.93214 0.77851 0.41306 0.0
C31 C 0.8849 0.75915 0.45534 0.0
C32 C 0.8393 0.7704 0.43594 0.0
H33 H 0.10283 0.22916 0.73347 0.0
H34 H 0.02206 0.24789 0.54145 0.0
H35 H 0.20269 0.29656 0.55354 0.0
N36 N 0.20919 0.26451 0.67844 0.0
N37 N 0.21619 0.22122 0.69797 0.0
C38 C 0.1033 0.23631 0.67752 0.0
C39 C 0.05383 0.23385 0.64062 0.0
C40 C 0.15578 0.25471 0.64315 0.0
C41 C 0.1604 0.27624 0.57572 0.0
C42 C 0.1126 0.2758 0.5395 0.0
C43 C 0.05859 0.24832 0.56946 0.0
H44 H 0.88289 1.00902 0.75598 0.0
H45 H 0.7531 0.96764 0.57957 0.0
H46 H 0.82333 0.84325 0.59737 0.0
N47 N 0.89646 0.9096 0.71768 0.0
N48 N 0.88376 0.85561 0.7318 0.0
C49 C 0.85634 0.97965 0.70631 0.0
C50 C 0.81939 0.99568 0.66929 0.0
C51 C 0.85643 0.92357 0.68169 0.0
C52 C 0.82069 0.88473 0.61841 0.0
C53 C 0.78301 0.90007 0.58113 0.0
C54 C 0.78328 0.95623 0.60646 0.0
H55 H 0.16951 0.96487 0.76854 0.0
H56 H 0.25874 0.98847 0.57569 0.0
H57 H 0.07797 0.83757 0.57617 0.0
N58 N 0.07673 0.85211 0.71152 0.0
N59 N 0.02392 0.83774 0.70427 0.0
C60 C 0.16759 0.95348 0.7106 0.0
C61 C 0.2171 0.98857 0.67405 0.0
C62 C 0.11824 0.89936 0.67442 0.0
C63 C 0.11732 0.88094 0.60137 0.0
C64 C 0.16824 0.91009 0.56477 0.0
C65 C 0.21805 0.96614 0.60109 0.0
H66 H 0.84059 0.37181 0.62372 0.0
H67 H 0.95748 0.38828 0.80144 0.0
H68 H 0.89779 0.52317 0.79845 0.0
N69 N 0.85811 0.48483 0.65866 0.0
N70 N 0.85805 0.53529 0.67685 0.0
C71 C 0.85995 0.39161 0.67916 0.0
C72 C 0.89462 0.37059 0.71163 0.0
C73 C 0.86305 0.44803 0.70862 0.0
C74 C 0.89433 0.47837 0.77687 0.0
C75 C 0.92891 0.45727 0.81134 0.0
C76 C 0.92728 0.40186 0.77918 0.0
H77 H 0.55197 0.3848 0.5973 0.0
H78 H 0.47118 0.39537 0.79176 0.0
H79 H 0.64002 0.5504 0.75622 0.0
N80 N 0.64737 0.50571 0.63148 0.0
N81 N 0.65082 0.55604 0.61745 0.0
C82 C 0.55478 0.40815 0.65105 0.0
C83 C 0.50733 0.38017 0.69398 0.0
C84 C 0.60218 0.46992 0.67444 0.0
C85 C 0.60271 0.50266 0.74027 0.0
C86 C 0.55617 0.47753 0.78311 0.0
C87 C 0.50902 0.41481 0.76087 0.0
H88 H 0.54629 0.15433 0.6063 0.0
H89 H 0.46945 0.08907 0.80221 0.0
H90 H 0.6352 0.10441 0.76088 0.0
N91 N 0.64193 0.13974 0.6365 0.0
N92 N 0.69532 0.17532 0.65959 0.0
C93 C 0.54946 0.1413 0.65889 0.0
C94 C 0.5035 0.12688 0.70371 0.0
C95 C 0.59822 0.13538 0.68177 0.0
C96 C 0.59881 0.11185 0.7464 0.0
C97 C 0.55157 0.09248 0.78868 0.0
C98 C 0.50597 0.10373 0.76928 0.0
H99 H 0.7695 0.56249 0.0668 0.0
H100 H 0.68872 0.58121 0.87478 0.0
H101 H 0.86935 0.62988 0.88687 0.0
N102 N 0.87586 0.59784 0.01176 0.0
N103 N 0.88285 0.55455 0.0313 0.0
C104 C 0.76996 0.56963 0.01085 0.0
C105 C 0.72049 0.56718 0.97394 0.0
C106 C 0.82244 0.58803 0.97648 0.0
C107 C 0.82706 0.60957 0.90905 0.0
C108 C 0.77926 0.60913 0.87282 0.0
C109 C 0.72525 0.58164 0.90279 0.0
H110 H 0.54955 0.34235 0.08932 0.0
H111 H 0.41976 0.30097 0.9129 0.0
H112 H 0.48999 0.17658 0.93071 0.0
N113 N 0.56312 0.24293 0.05102 0.0
N114 N 0.55042 0.18895 0.06514 0.0
C115 C 0.523 0.31298 0.03965 0.0
C116 C 0.48604 0.32901 0.00263 0.0
C117 C 0.52309 0.2569 0.01503 0.0
C118 C 0.48735 0.21806 0.95175 0.0
C119 C 0.44967 0.2334 0.91447 0.0
C120 C 0.44994 0.28956 0.9398 0.0
H121 H 0.83618 0.29821 0.10187 0.0
H122 H 0.92541 0.3218 0.90902 0.0
H123 H 0.74463 0.17091 0.90951 0.0
N124 N 0.7434 0.18545 0.04486 0.0
N125 N 0.69059 0.17108 0.0376 0.0
C126 C 0.83425 0.28682 0.04393 0.0
C127 C 0.88376 0.3219 0.00738 0.0
C128 C 0.7849 0.2327 0.00775 0.0
C129 C 0.78398 0.21427 0.93471 0.0
C130 C 0.83491 0.24342 0.89811 0.0
C131 C 0.88471 0.29947 0.93443 0.0
H132 H 0.50726 0.70515 0.95704 0.0
H133 H 0.62415 0.72162 0.13477 0.0
H134 H 0.56447 0.8565 0.13178 0.0
N135 N 0.52478 0.81816 0.99199 0.0
N136 N 0.52472 0.86863 0.01018 0.0
C137 C 0.52662 0.72494 0.01249 0.0
C138 C 0.56129 0.70393 0.04495 0.0
C139 C 0.52973 0.78137 0.04195 0.0
C140 C 0.56101 0.81171 0.1102 0.0
C141 C 0.59558 0.79061 0.14467 0.0
C142 C 0.59396 0.7352 0.1125 0.0
H143 H 0.21864 0.71813 0.93063 0.0
H144 H 0.13785 0.72871 0.12509 0.0
H145 H 0.30669 0.88373 0.08955 0.0
N146 N 0.31404 0.83904 0.96481 0.0
N147 N 0.31748 0.88937 0.95078 0.0
C148 C 0.22145 0.74149 0.98438 0.0
C149 C 0.174 0.7135 0.02731 0.0
C150 C 0.26885 0.80325 0.00777 0.0
C151 C 0.26938 0.836 0.0736 0.0
C152 C 0.22283 0.81087 0.11645 0.0
C153 C 0.17569 0.74814 0.0942 0.0
H154 H 0.21295 0.48767 0.93964 0.0
H155 H 0.13612 0.42241 0.13555 0.0
H156 H 0.30187 0.43776 0.09422 0.0
N157 N 0.30859 0.47308 0.96984 0.0
N158 N 0.36199 0.50866 0.99293 0.0
C159 C 0.21613 0.47463 0.99223 0.0
C160 C 0.17016 0.46022 0.03705 0.0
C161 C 0.26489 0.46872 0.0151 0.0
C162 C 0.26548 0.44519 0.07973 0.0
C163 C 0.21824 0.42582 0.12202 0.0
C164 C 0.17264 0.43707 0.10262 0.0
H165 H 0.43617 0.89584 0.40014 0.0
H166 H 0.35538 0.91453 0.20811 0.0
H167 H 0.53602 0.96322 0.22021 0.0
N168 N 0.54253 0.93118 0.3451 0.0
N169 N 0.54953 0.8879 0.36463 0.0
C170 C 0.43663 0.90298 0.34419 0.0
C171 C 0.38716 0.90051 0.30728 0.0
C172 C 0.48911 0.92138 0.30982 0.0
C173 C 0.49373 0.94291 0.24238 0.0
C174 C 0.44593 0.94246 0.20616 0.0
C175 C 0.39192 0.91497 0.23612 0.0
H176 H 0.21622 0.67569 0.42265 0.0
H177 H 0.08642 0.6343 0.24624 0.0
H178 H 0.15666 0.50991 0.26405 0.0
N179 N 0.22979 0.57627 0.38435 0.0
N180 N 0.2171 0.52229 0.39847 0.0
C181 C 0.18967 0.64632 0.37298 0.0
C182 C 0.15271 0.66235 0.33596 0.0
C183 C 0.18976 0.59024 0.34836 0.0
C184 C 0.15402 0.5514 0.28508 0.0
C185 C 0.11634 0.56674 0.2478 0.0
C186 C 0.11661 0.62289 0.27313 0.0
H187 H 0.50285 0.63156 0.4352 0.0
H188 H 0.59207 0.65514 0.24235 0.0
H189 H 0.4113 0.50425 0.24284 0.0
N190 N 0.41007 0.5188 0.37819 0.0
N191 N 0.35726 0.50442 0.37094 0.0
C192 C 0.50092 0.62017 0.37726 0.0
C193 C 0.55044 0.65525 0.34071 0.0
C194 C 0.45157 0.56604 0.34108 0.0
C195 C 0.45065 0.54761 0.26804 0.0
C196 C 0.50158 0.57676 0.23144 0.0
C197 C 0.55138 0.63281 0.26776 0.0
O198 O 0.42073 0.94686 0.96555 0.0
Mn199 Mn 0.50782 0.02044 0.00194 0.0
O200 O 0.36871 0.99645 0.97624 0.0
Mn201 Mn 0.41065 0.04555 0.06389 0.0
O202 O 0.59286 0.09501 0.03774 0.0
O203 O 0.53737 0.96215 0.96852 0.0
Mn204 Mn 0.60122 1.00164 0.92438 0.0
O205 O 0.51883 0.05524 0.90195 0.0
O206 O 0.6563 0.06689 0.99399 0.0
O207 O 0.494 0.98695 0.10178 0.0
O208 O 0.4161 0.99768 0.13348 0.0
O209 O 0.58679 0.91966 0.92362 0.0
O210 O 0.58149 0.03082 0.84709 0.0
C211 C 0.49219 0.13514 0.05755 0.0
C212 C 0.37191 0.94709 0.95475 0.0
C213 C 0.64559 0.10667 0.03031 0.0
C214 C 0.54474 0.91377 0.96225 0.0
C215 C 0.54966 0.05692 0.8492 0.0
C216 C 0.45257 0.97739 0.14296 0.0
O217 O 0.48085 0.07901 0.03581 0.0
O218 O 0.44764 0.13601 0.08366 0.0
O219 O 0.10556 0.50195 0.01508 0.0
Mn220 Mn 0.02925 0.51297 0.02579 0.0
O221 O 0.06974 0.40006 0.02203 0.0
Mn222 Mn 0.02626 0.40568 0.09334 0.0
O223 O 0.95219 0.5212 0.03964 0.0
O224 O 0.08387 0.60686 0.00644 0.0
Mn225 Mn 0.0265 0.61544 0.96584 0.0
O226 O 0.99541 0.47781 0.91724 0.0
O227 O 0.98269 0.62191 0.03638 0.0
O228 O 0.06113 0.5469 0.13413 0.0
O229 O 0.06688 0.46674 0.17398 0.0
O230 O 0.0896 0.68727 0.95144 0.0
O231 O 0.98133 0.55544 0.88709 0.0
C232 C 0.93945 0.36252 0.05303 0.0
C233 C 0.11233 0.45289 0.01222 0.0
C234 C 0.94209 0.56779 0.0464 0.0
C235 C 0.11517 0.66546 0.99084 0.0
C236 C 0.97154 0.49881 0.87503 0.0
C237 C 0.07812 0.52418 0.18222 0.0
O238 O 0.97728 0.42143 0.04594 0.0
O239 O 0.95632 0.33505 0.09595 0.0
O240 O 0.62285 0.53198 0.015 0.0
Mn241 Mn 0.53832 0.52848 0.01027 0.0
O242 O 0.68494 0.63328 0.00483 0.0
Mn243 Mn 0.63369 0.63893 0.93956 0.0
O244 O 0.45896 0.53159 -0.00249 0.0
O245 O 0.49824 0.43471 0.02666 0.0
Mn246 Mn 0.43332 0.42933 0.05848 0.0
O247 O 0.54418 0.56177 0.12091 0.0
O248 O 0.38811 0.43282 0.98349 0.0
O249 O 0.53004 0.49414 0.90161 0.0
O250 O 0.59948 0.57845 0.85605 0.0
O251 O 0.42316 0.35284 0.06855 0.0
O252 O 0.45221 0.48905 0.13955 0.0
C253 C 0.58587 0.67527 0.99579 0.0
C254 C 0.67628 0.57847 0.01148 0.0
C255 C 0.40437 0.49 0.97907 0.0
C256 C 0.4719 0.37524 0.03796 0.0
C257 C 0.50029 0.54169 0.15974 0.0
C258 C 0.56007 0.51917 0.84998 0.0
O259 O 0.57555 0.61805 0.99181 0.0
O260 O 0.62615 0.71013 0.95686 0.0
O261 O 0.0874 0.2802 0.29889 0.0
Mn262 Mn 0.1745 0.35378 0.33528 0.0
O263 O 0.03538 0.32979 0.30958 0.0
Mn264 Mn 0.07733 0.37889 0.39722 0.0
O265 O 0.25954 0.42835 0.37108 0.0
O266 O 0.20405 0.29549 0.30186 0.0
Mn267 Mn 0.2679 0.33499 0.25772 0.0
O268 O 0.18551 0.38858 0.23529 0.0
O269 O 0.32297 0.40023 0.32733 0.0
O270 O 0.16068 0.3203 0.43512 0.0
O271 O 0.08278 0.33102 0.46682 0.0
O272 O 0.25347 0.253 0.25696 0.0
O273 O 0.24817 0.36417 0.18044 0.0
C274 C 0.15887 0.46848 0.39089 0.0
C275 C 0.03858 0.28043 0.28809 0.0
C276 C 0.31226 0.44001 0.36366 0.0
C277 C 0.21142 0.24711 0.29559 0.0
C278 C 0.21633 0.39027 0.18254 0.0
C279 C 0.11924 0.31073 0.4763 0.0
O280 O 0.14753 0.41235 0.36915 0.0
O281 O 0.11431 0.46935 0.417 0.0
O282 O 0.77223 0.83529 0.34841 0.0
Mn283 Mn 0.69593 0.84631 0.35912 0.0
O284 O 0.73641 0.73339 0.35535 0.0
Mn285 Mn 0.69293 0.73902 0.42666 0.0
O286 O 0.61887 0.85455 0.37297 0.0
O287 O 0.75054 0.94019 0.33976 0.0
Mn288 Mn 0.69319 0.94878 0.29915 0.0
O289 O 0.66208 0.81115 0.25057 0.0
O290 O 0.64937 0.95525 0.36969 0.0
O291 O 0.7278 0.88024 0.46746 0.0
O292 O 0.73355 0.80007 0.50731 0.0
O293 O 0.75629 0.02061 0.28476 0.0
O294 O 0.64802 0.88878 0.22041 0.0
C295 C 0.60612 0.69586 0.38635 0.0
C296 C 0.779 0.78623 0.34554 0.0
C297 C 0.60877 0.90113 0.37972 0.0
C298 C 0.78185 0.9988 0.32417 0.0
C299 C 0.63822 0.83215 0.20835 0.0
C300 C 0.7448 0.85751 0.51555 0.0
O301 O 0.64396 0.75477 0.37927 0.0
O302 O 0.62299 0.66839 0.42927 0.0
O303 O 0.28952 0.86532 0.34833 0.0
Mn304 Mn 0.20499 0.86182 0.34361 0.0
O305 O 0.35161 0.96662 0.33816 0.0
Mn306 Mn 0.30035 0.97226 0.27289 0.0
O307 O 0.12563 0.86492 0.33085 0.0
O308 O 0.16491 0.76804 0.35999 0.0
Mn309 Mn 0.09999 0.76267 0.3918 0.0
O310 O 0.21084 0.8951 0.45424 0.0
O311 O 0.05478 0.76616 0.31682 0.0
O312 O 0.19671 0.82748 0.23495 0.0
O313 O 0.26615 0.91178 0.18939 0.0
O314 O 0.08983 0.68617 0.40188 0.0
O315 O 0.11888 0.82239 0.47288 0.0
C316 C 0.25254 1.00861 0.32913 0.0
C317 C 0.34295 0.9118 0.34481 0.0
C318 C 0.07104 0.82334 0.3124 0.0
C319 C 0.13857 0.70858 0.37129 0.0
C320 C 0.16696 0.87502 0.49307 0.0
C321 C 0.22674 0.85251 0.18331 0.0
O322 O 0.24222 0.95139 0.32515 0.0
O323 O 0.29282 0.04347 0.29019 0.0
O324 O 0.75406 0.61353 0.63221 0.0
Mn325 Mn 0.84116 0.6871 0.6686 0.0
O326 O 0.70204 0.66311 0.6429 0.0
Mn327 Mn 0.74399 0.71222 0.73055 0.0
O328 O 0.9262 0.76167 0.7044 0.0
O329 O 0.8707 0.62881 0.63519 0.0
Mn330 Mn 0.93456 0.6683 0.59105 0.0
O331 O 0.85217 0.7219 0.56861 0.0
O332 O 0.98963 0.73355 0.66065 0.0
O333 O 0.82734 0.65362 0.76844 0.0
O334 O 0.74944 0.66435 0.80014 0.0
O335 O 0.92012 0.58632 0.59029 0.0
O336 O 0.91483 0.69748 0.51376 0.0
C337 C 0.82553 0.80181 0.72421 0.0
C338 C 0.70524 0.61376 0.62141 0.0
C339 C 0.97892 0.77333 0.69698 0.0
C340 C 0.87807 0.58043 0.62892 0.0
C341 C 0.88299 0.72359 0.51586 0.0
C342 C 0.78591 0.64406 0.80962 0.0
O343 O 0.81419 0.74568 0.70247 0.0
O344 O 0.78098 0.80268 0.75032 0.0
O345 O 0.43889 0.16862 0.68174 0.0
Mn346 Mn 0.36259 0.17964 0.69246 0.0
O347 O 0.40307 0.06672 0.68869 0.0
Mn348 Mn 0.35959 0.07235 0.76 0.0
O349 O 0.28553 0.18787 0.70631 0.0
O350 O 0.4172 0.27352 0.6731 0.0
Mn351 Mn 0.35984 0.28211 0.6325 0.0
O352 O 0.32874 0.14448 0.58391 0.0
O353 O 0.31602 0.28858 0.70305 0.0
O354 O 0.39446 0.21357 0.8008 0.0
O355 O 0.40022 0.1334 0.84064 0.0
O356 O 0.42294 0.35394 0.61811 0.0
O357 O 0.31467 0.22211 0.55376 0.0
C358 C 0.27278 0.02919 0.71969 0.0
C359 C 0.44566 0.11956 0.67888 0.0
C360 C 0.27542 0.23445 0.71307 0.0
C361 C 0.4485 0.33212 0.65751 0.0
C362 C 0.30487 0.16547 0.5417 0.0
C363 C 0.41146 0.19084 0.84889 0.0
O364 O 0.31062 0.08809 0.71261 0.0
O365 O 0.28965 1.00172 0.76261 0.0
O366 O 0.95619 0.19865 0.68167 0.0
Mn367 Mn 0.87166 0.19515 0.67694 0.0
O368 O 1.01828 0.29995 0.67151 0.0
Mn369 Mn 0.96702 0.3056 0.60623 0.0
O370 O 0.79229 0.19825 0.66418 0.0
O371 O 0.83158 0.10137 0.69333 0.0
Mn372 Mn 0.76666 0.09599 0.72515 0.0
O373 O 0.87751 0.22843 0.78758 0.0
O374 O 0.72144 0.09948 0.65016 0.0
O375 O 0.86337 0.16081 0.56829 0.0
O376 O 0.93281 0.24511 0.52272 0.0
O377 O 0.7565 0.0195 0.73521 0.0
O378 O 0.78555 0.15571 0.80622 0.0
C379 C 0.9192 0.34194 0.66246 0.0
C380 C 1.00961 0.24514 0.67815 0.0
C381 C 0.7377 0.15666 0.64574 0.0
C382 C 0.80524 0.04191 0.70463 0.0
C383 C 0.83363 0.20835 0.82641 0.0
C384 C 0.89341 0.18584 0.51665 0.0
O385 O 0.90888 0.28472 0.65849 0.0
O386 O 0.95948 0.3768 0.62353 0.0
loop_
_geom_bond_atom_site_label_1
_geom_bond_atom_site_label_2
_geom_bond_distance
_geom_bond_site_symmetry_2
_ccdc_geom_bond_type
H0 C5 0.929 . S
H1 C10 0.931 . S
H2 C8 0.930 . S
N3 N4 1.234 . S
N3 C7 1.453 . S
N4 N3 1.234 . S
C5 H0 0.929 . S
C5 C6 1.373 . S
C5 C7 1.368 . S
C6 C5 1.373 . S
C6 C10 1.397 . S
C7 N3 1.453 . S
C7 C5 1.368 . S
C7 C8 1.373 . S
C8 H2 0.930 . S
C8 C7 1.373 . S
C8 C9 1.371 . S
C9 C8 1.371 . S
C9 C10 1.383 . S
C10 H1 0.931 . S
C10 C6 1.397 . S
C10 C9 1.383 . S
H11 C16 0.929 . S
H12 C21 0.931 . S
H13 C19 0.930 . S
N14 N15 1.234 . S
N14 C18 1.453 . S
N15 N14 1.234 . S
C16 H11 0.929 . S
C16 C17 1.373 . S
C16 C18 1.368 . S
C17 C16 1.373 . S
C17 C21 1.397 . S
C18 N14 1.453 . S
C18 C16 1.368 . S
C18 C19 1.373 . S
C19 H13 0.930 . S
C19 C18 1.373 . S
C19 C20 1.371 . S
C20 C19 1.371 . S
C20 C21 1.383 . S
C21 H12 0.931 . S
C21 C17 1.397 . S
C21 C20 1.383 . S
H22 C27 0.929 . S
H23 C32 0.931 . S
H24 C30 0.930 . S
N25 N26 1.234 . S
N25 C29 1.453 . S
N26 N25 1.234 . S
C27 H22 0.929 . S
C27 C28 1.373 . S
C27 C29 1.368 . S
C28 C27 1.373 . S
C28 C32 1.397 . S
C29 N25 1.453 . S
C29 C27 1.368 . S
C29 C30 1.373 . S
C30 H24 0.930 . S
C30 C29 1.373 . S
C30 C31 1.371 . S
C31 C30 1.371 . S
C31 C32 1.383 . S
C32 H23 0.931 . S
C32 C28 1.397 . S
C32 C31 1.383 . S
H33 C38 0.929 . S
H34 C43 0.931 . S
H35 C41 0.930 . S
N36 N37 1.234 . S
N36 C40 1.453 . S
N37 N36 1.234 . S
C38 H33 0.929 . S
C38 C39 1.373 . S
C38 C40 1.368 . S
C39 C38 1.373 . S
C39 C43 1.397 . S
C40 N36 1.453 . S
C40 C38 1.368 . S
C40 C41 1.373 . S
C41 H35 0.930 . S
C41 C40 1.373 . S
C41 C42 1.371 . S
C42 C41 1.371 . S
C42 C43 1.383 . S
C43 H34 0.931 . S
C43 C39 1.397 . S
C43 C42 1.383 . S
H44 C49 0.929 . S
H45 C54 0.931 . S
H46 C52 0.930 . S
N47 N48 1.234 . S
N47 C51 1.453 . S
N48 N47 1.234 . S
C49 H44 0.929 . S
C49 C50 1.373 . S
C49 C51 1.368 . S
C50 C49 1.373 . S
C50 C54 1.397 . S
C51 N47 1.453 . S
C51 C49 1.368 . S
C51 C52 1.373 . S
C52 H46 0.930 . S
C52 C51 1.373 . S
C52 C53 1.371 . S
C53 C52 1.371 . S
C53 C54 1.383 . S
C54 H45 0.931 . S
C54 C50 1.397 . S
C54 C53 1.383 . S
H55 C60 0.929 . S
H56 C65 0.931 . S
H57 C63 0.930 . S
N58 N59 1.234 . S
N58 C62 1.453 . S
N59 N58 1.234 . S
C60 H55 0.929 . S
C60 C61 1.373 . S
C60 C62 1.368 . S
C61 C60 1.373 . S
C61 C65 1.397 . S
C62 N58 1.453 . S
C62 C60 1.368 . S
C62 C63 1.373 . S
C63 H57 0.930 . S
C63 C62 1.373 . S
C63 C64 1.371 . S
C64 C63 1.371 . S
C64 C65 1.383 . S
C65 H56 0.931 . S
C65 C61 1.397 . S
C65 C64 1.383 . S
H66 C71 0.929 . S
H67 C76 0.931 . S
H68 C74 0.930 . S
N69 N70 1.234 . S
N69 C73 1.453 . S
N70 N69 1.234 . S
C71 H66 0.929 . S
C71 C72 1.373 . S
C71 C73 1.368 . S
C72 C71 1.373 . S
C72 C76 1.397 . S
C73 N69 1.453 . S
C73 C71 1.368 . S
C73 C74 1.373 . S
C74 H68 0.930 . S
C74 C73 1.373 . S
C74 C75 1.371 . S
C75 C74 1.371 . S
C75 C76 1.383 . S
C76 H67 0.931 . S
C76 C72 1.397 . S
C76 C75 1.383 . S
H77 C82 0.929 . S
H78 C87 0.931 . S
H79 C85 0.930 . S
N80 N81 1.234 . S
N80 C84 1.453 . S
N81 N80 1.234 . S
C82 H77 0.929 . S
C82 C83 1.373 . S
C82 C84 1.368 . S
C83 C82 1.373 . S
C83 C87 1.397 . S
C84 N80 1.453 . S
C84 C82 1.368 . S
C84 C85 1.373 . S
C85 H79 0.930 . S
C85 C84 1.373 . S
C85 C86 1.371 . S
C86 C85 1.371 . S
C86 C87 1.383 . S
C87 H78 0.931 . S
C87 C83 1.397 . S
C87 C86 1.383 . S
H88 C93 0.929 . S
H89 C98 0.931 . S
H90 C96 0.930 . S
N91 N92 1.234 . S
N91 C95 1.453 . S
N92 N91 1.234 . S
C93 H88 0.929 . S
C93 C94 1.373 . S
C93 C95 1.368 . S
C94 C93 1.373 . S
C94 C98 1.397 . S
C95 N91 1.453 . S
C95 C93 1.368 . S
C95 C96 1.373 . S
C96 H90 0.930 . S
C96 C95 1.373 . S
C96 C97 1.371 . S
C97 C96 1.371 . S
C97 C98 1.383 . S
C98 H89 0.931 . S
C98 C94 1.397 . S
C98 C97 1.383 . S
H99 C104 0.929 . S
H100 C109 0.931 . S
H101 C107 0.930 . S
N102 N103 1.234 . S
N102 C106 1.453 . S
N103 N102 1.234 . S
C104 H99 0.929 . S
C104 C105 1.373 . S
C104 C106 1.368 . S
C105 C104 1.373 . S
C105 C109 1.397 1_554 S
C106 N102 1.453 . S
C106 C104 1.368 . S
C106 C107 1.373 1_554 S
C107 H101 0.930 . S
C107 C106 1.373 1_556 S
C107 C108 1.371 . S
C108 C107 1.371 . S
C108 C109 1.383 . S
C109 H100 0.931 . S
C109 C105 1.397 1_556 S
C109 C108 1.383 . S
H110 C115 0.929 . S
H111 C120 0.931 . S
H112 C118 0.930 . S
N113 N114 1.234 . S
N113 C117 1.453 . S
N114 N113 1.234 . S
C115 H110 0.929 . S
C115 C116 1.373 . S
C115 C117 1.368 . S
C116 C115 1.373 . S
C116 C120 1.397 1_554 S
C117 N113 1.453 . S
C117 C115 1.368 . S
C117 C118 1.373 1_554 S
C118 H112 0.930 . S
C118 C117 1.373 1_556 S
C118 C119 1.371 . S
C119 C118 1.371 . S
C119 C120 1.383 . S
C120 H111 0.931 . S
C120 C116 1.397 1_556 S
C120 C119 1.383 . S
H121 C126 0.929 . S
H122 C131 0.931 . S
H123 C129 0.930 . S
N124 N125 1.234 . S
N124 C128 1.453 . S
N125 N124 1.234 . S
C126 H121 0.929 . S
C126 C127 1.373 . S
C126 C128 1.368 . S
C127 C126 1.373 . S
C127 C131 1.397 1_554 S
C128 N124 1.453 . S
C128 C126 1.368 . S
C128 C129 1.373 1_554 S
C129 H123 0.930 . S
C129 C128 1.373 1_556 S
C129 C130 1.371 . S
C130 C129 1.371 . S
C130 C131 1.383 . S
C131 H122 0.931 . S
C131 C127 1.397 1_556 S
C131 C130 1.383 . S
H132 C137 0.929 . S
H133 C142 0.931 . S
H134 C140 0.930 . S
N135 N136 1.234 1_556 S
N135 C139 1.453 1_556 S
N136 N135 1.234 1_554 S
C137 H132 0.929 . S
C137 C138 1.373 1_556 S
C137 C139 1.368 1_556 S
C138 C137 1.373 1_554 S
C138 C142 1.397 . S
C139 N135 1.453 1_554 S
C139 C137 1.368 1_554 S
C139 C140 1.373 . S
C140 H134 0.930 . S
C140 C139 1.373 . S
C140 C141 1.371 . S
C141 C140 1.371 . S
C141 C142 1.383 . S
C142 H133 0.931 . S
C142 C138 1.397 . S
C142 C141 1.383 . S
H143 C148 0.929 . S
H144 C153 0.931 . S
H145 C151 0.930 . S
N146 N147 1.234 . S
N146 C150 1.453 1_556 S
N147 N146 1.234 . S
C148 H143 0.929 . S
C148 C149 1.373 1_556 S
C148 C150 1.368 1_556 S
C149 C148 1.373 1_554 S
C149 C153 1.397 . S
C150 N146 1.453 1_554 S
C150 C148 1.368 1_554 S
C150 C151 1.373 . S
C151 H145 0.930 . S
C151 C150 1.373 . S
C151 C152 1.371 . S
C152 C151 1.371 . S
C152 C153 1.383 . S
C153 H144 0.931 . S
C153 C149 1.397 . S
C153 C152 1.383 . S
H154 C159 0.929 . S
H155 C164 0.931 . S
H156 C162 0.930 . S
N157 N158 1.234 . S
N157 C161 1.453 1_556 S
N158 N157 1.234 . S
C159 H154 0.929 . S
C159 C160 1.373 1_556 S
C159 C161 1.368 1_556 S
C160 C159 1.373 1_554 S
C160 C164 1.397 . S
C161 N157 1.453 1_554 S
C161 C159 1.368 1_554 S
C161 C162 1.373 . S
C162 H156 0.930 . S
C162 C161 1.373 . S
C162 C163 1.371 . S
C163 C162 1.371 . S
C163 C164 1.383 . S
C164 H155 0.931 . S
C164 C160 1.397 . S
C164 C163 1.383 . S
H165 C170 0.929 . S
H166 C175 0.931 . S
H167 C173 0.930 . S
N168 N169 1.234 . S
N168 C172 1.453 . S
N169 N168 1.234 . S
C170 H165 0.929 . S
C170 C171 1.373 . S
C170 C172 1.368 . S
C171 C170 1.373 . S
C171 C175 1.397 . S
C172 N168 1.453 . S
C172 C170 1.368 . S
C172 C173 1.373 . S
C173 H167 0.930 . S
C173 C172 1.373 . S
C173 C174 1.371 . S
C174 C173 1.371 . S
C174 C175 1.383 . S
C175 H166 0.931 . S
C175 C171 1.397 . S
C175 C174 1.383 . S
H176 C181 0.929 . S
H177 C186 0.931 . S
H178 C184 0.930 . S
N179 N180 1.234 . S
N179 C183 1.453 . S
N180 N179 1.234 . S
C181 H176 0.929 . S
C181 C182 1.373 . S
C181 C183 1.368 . S
C182 C181 1.373 . S
C182 C186 1.397 . S
C183 N179 1.453 . S
C183 C181 1.368 . S
C183 C184 1.373 . S
C184 H178 0.930 . S
C184 C183 1.373 . S
C184 C185 1.371 . S
C185 C184 1.371 . S
C185 C186 1.383 . S
C186 H177 0.931 . S
C186 C182 1.397 . S
C186 C185 1.383 . S
H187 C192 0.929 . S
H188 C197 0.931 . S
H189 C195 0.930 . S
N190 N191 1.234 . S
N190 C194 1.453 . S
N191 N190 1.234 . S
C192 H187 0.929 . S
C192 C193 1.373 . S
C192 C194 1.368 . S
C193 C192 1.373 . S
C193 C197 1.397 . S
C194 N190 1.453 . S
C194 C192 1.368 . S
C194 C195 1.373 . S
C195 H189 0.930 . S
C195 C194 1.373 . S
C195 C196 1.371 . S
C196 C195 1.371 . S
C196 C197 1.383 . S
C197 H188 0.931 . S
C197 C193 1.397 . S
C197 C196 1.383 . S
O198 Mn199 2.163 1_565 S
O198 C212 1.244 . S
Mn199 O198 2.163 1_545 S
Mn199 O202 2.160 . S
Mn199 O203 2.221 1_544 S
Mn199 O205 2.163 1_554 S
Mn199 O207 2.160 . S
Mn199 O217 2.221 . S
O200 Mn201 2.087 1_565 S
O200 C212 1.256 . S
Mn201 O200 2.087 1_545 S
Mn201 O208 2.089 1_545 S
Mn201 O217 2.290 . S
Mn201 O218 2.251 . S
O202 Mn199 2.160 . S
O202 C213 1.239 . S
O203 Mn199 2.221 1_566 S
O203 Mn204 2.292 . S
O203 C214 1.278 . S
Mn204 O203 2.292 . S
Mn204 O206 2.089 1_565 S
Mn204 O209 2.251 . S
Mn204 O210 2.087 . S
O205 Mn199 2.163 1_556 S
O205 C215 1.244 . S
O206 Mn204 2.089 1_545 S
O206 C213 1.256 1_556 S
O207 Mn199 2.160 . S
O207 C216 1.239 1_545 S
O208 Mn201 2.089 1_565 S
O208 C216 1.256 . S
O209 Mn204 2.251 . S
O209 C214 1.241 . S
O210 Mn204 2.087 . S
O210 C215 1.256 1_565 S
C211 O217 1.278 . S
C211 O218 1.241 . S
C212 O198 1.244 . S
C212 O200 1.256 . S
C213 O202 1.239 . S
C213 O206 1.256 1_554 S
C214 O203 1.278 . S
C214 O209 1.241 . S
C215 O205 1.244 . S
C215 O210 1.256 1_545 S
C216 O207 1.239 1_565 S
C216 O208 1.256 . S
O217 Mn199 2.221 . S
O217 Mn201 2.290 . S
O217 C211 1.278 . S
O218 Mn201 2.251 . S
O218 C211 1.241 . S
O219 Mn220 2.163 . S
O219 C233 1.244 . S
Mn220 O219 2.163 . S
Mn220 O223 2.160 1_455 S
Mn220 O224 2.221 . S
Mn220 O226 2.163 1_454 S
Mn220 O228 2.160 . S
Mn220 O238 2.221 1_455 S
O221 Mn222 2.087 1_455 S
O221 C233 1.256 . S
Mn222 O221 2.087 1_655 S
Mn222 O229 2.089 1_655 S
Mn222 O238 2.290 . S
Mn222 O239 2.251 . S
O223 Mn220 2.160 1_655 S
O223 C234 1.239 . S
O224 Mn220 2.221 . S
O224 Mn225 2.290 1_554 S
O224 C235 1.278 1_554 S
Mn225 O224 2.290 1_556 S
Mn225 O227 2.089 1_455 S
Mn225 O230 2.251 . S
Mn225 O231 2.087 1_455 S
O226 Mn220 2.163 1_656 S
O226 C236 1.244 . S
O227 Mn225 2.089 1_655 S
O227 C234 1.256 1_556 S
O228 Mn220 2.160 . S
O228 C237 1.239 . S
O229 Mn222 2.089 1_455 S
O229 C237 1.256 . S
O230 Mn225 2.251 . S
O230 C235 1.241 . S
O231 Mn225 2.087 1_655 S
O231 C236 1.256 . S
C232 O238 1.278 . S
C232 O239 1.241 . S
C233 O219 1.244 . S
C233 O221 1.256 . S
C234 O223 1.239 . S
C234 O227 1.256 1_554 S
C235 O224 1.278 1_556 S
C235 O230 1.241 . S
C236 O226 1.244 . S
C236 O231 1.256 . S
C237 O228 1.239 . S
C237 O229 1.256 . S
O238 Mn220 2.221 1_655 S
O238 Mn222 2.290 . S
O238 C232 1.278 . S
O239 Mn222 2.251 . S
O239 C232 1.241 . S
O240 Mn241 2.163 1_554 S
O240 C254 1.240 1_554 S
Mn241 O240 2.163 1_556 S
Mn241 O244 2.160 . S
Mn241 O245 2.221 1_556 S
Mn241 O247 2.163 1_556 S
Mn241 O249 2.160 . S
Mn241 O259 2.221 . S
O242 Mn243 2.087 . S
O242 C254 1.262 . S
Mn243 O242 2.087 . S
Mn243 O250 2.089 . S
Mn243 O259 2.290 . S
Mn243 O260 2.251 . S
O244 Mn241 2.160 . S
O244 C255 1.239 1_556 S
O245 Mn241 2.221 1_554 S
O245 Mn246 2.290 . S
O245 C256 1.278 . S
Mn246 O245 2.290 . S
Mn246 O248 2.089 . S
Mn246 O251 2.251 . S
Mn246 O252 2.087 . S
O247 Mn241 2.163 1_554 S
O247 C257 1.244 . S
O248 Mn246 2.089 . S
O248 C255 1.256 . S
O249 Mn241 2.160 . S
O249 C258 1.239 . S
O250 Mn243 2.089 . S
O250 C258 1.256 . S
O251 Mn246 2.251 . S
O251 C256 1.241 . S
O252 Mn246 2.087 . S
O252 C257 1.256 . S
C253 O259 1.278 1_554 S
C253 O260 1.241 1_554 S
C254 O240 1.240 1_556 S
C254 O242 1.262 . S
C255 O244 1.239 1_554 S
C255 O248 1.256 . S
C256 O245 1.278 . S
C256 O251 1.241 . S
C257 O247 1.244 . S
C257 O252 1.256 . S
C258 O249 1.239 . S
C258 O250 1.256 . S
O259 Mn241 2.221 . S
O259 Mn243 2.290 . S
O259 C253 1.278 1_556 S
O260 Mn243 2.251 . S
O260 C253 1.241 1_556 S
O261 Mn262 2.163 . S
O261 C275 1.244 . S
Mn262 O261 2.163 . S
Mn262 O265 2.160 . S
Mn262 O266 2.221 . S
Mn262 O268 2.163 . S
Mn262 O270 2.160 . S
Mn262 O280 2.221 . S
O263 Mn264 2.087 . S
O263 C275 1.256 . S
Mn264 O263 2.087 . S
Mn264 O271 2.089 . S
Mn264 O280 2.290 . S
Mn264 O281 2.251 . S
O265 Mn262 2.160 . S
O265 C276 1.239 . S
O266 Mn262 2.221 . S
O266 Mn267 2.290 . S
O266 C277 1.278 . S
Mn267 O266 2.290 . S
Mn267 O269 2.089 . S
Mn267 O272 2.251 . S
Mn267 O273 2.087 . S
O268 Mn262 2.163 . S
O268 C278 1.244 . S
O269 Mn267 2.089 . S
O269 C276 1.256 . S
O270 Mn262 2.160 . S
O270 C279 1.239 . S
O271 Mn264 2.089 . S
O271 C279 1.256 . S
O272 Mn267 2.251 . S
O272 C277 1.241 . S
O273 Mn267 2.087 . S
O273 C278 1.256 . S
C274 O280 1.278 . S
C274 O281 1.241 . S
C275 O261 1.244 . S
C275 O263 1.256 . S
C276 O265 1.239 . S
C276 O269 1.256 . S
C277 O266 1.278 . S
C277 O272 1.241 . S
C278 O268 1.244 . S
C278 O273 1.256 . S
C279 O270 1.239 . S
C279 O271 1.256 . S
O280 Mn262 2.221 . S
O280 Mn264 2.290 . S
O280 C274 1.278 . S
O281 Mn264 2.251 . S
O281 C274 1.241 . S
O282 Mn283 2.163 . S
O282 C296 1.244 . S
Mn283 O282 2.163 . S
Mn283 O286 2.160 . S
Mn283 O287 2.221 . S
Mn283 O289 2.163 . S
Mn283 O291 2.160 . S
Mn283 O301 2.221 . S
O284 Mn285 2.087 . S
O284 C296 1.256 . S
Mn285 O284 2.087 . S
Mn285 O292 2.089 . S
Mn285 O301 2.290 . S
Mn285 O302 2.251 . S
O286 Mn283 2.160 . S
O286 C297 1.239 . S
O287 Mn283 2.221 . S
O287 Mn288 2.290 . S
O287 C298 1.278 . S
Mn288 O287 2.290 . S
Mn288 O290 2.089 . S
Mn288 O293 2.251 . S
Mn288 O294 2.087 . S
O289 Mn283 2.163 . S
O289 C299 1.244 . S
O290 Mn288 2.089 . S
O290 C297 1.256 . S
O291 Mn283 2.160 . S
O291 C300 1.239 . S
O292 Mn285 2.089 . S
O292 C300 1.256 . S
O293 Mn288 2.251 . S
O293 C298 1.241 . S
O294 Mn288 2.087 . S
O294 C299 1.256 . S
C295 O301 1.278 . S
C295 O302 1.241 . S
C296 O282 1.244 . S
C296 O284 1.256 . S
C297 O286 1.239 . S
C297 O290 1.256 . S
C298 O287 1.278 . S
C298 O293 1.241 . S
C299 O289 1.244 . S
C299 O294 1.256 . S
C300 O291 1.239 . S
C300 O292 1.256 . S
O301 Mn283 2.221 . S
O301 Mn285 2.290 . S
O301 C295 1.278 . S
O302 Mn285 2.251 . S
O302 C295 1.241 . S
O303 Mn304 2.163 . S
O303 C317 1.244 . S
Mn304 O303 2.163 . S
Mn304 O307 2.160 . S
Mn304 O308 2.221 . S
Mn304 O310 2.163 . S
Mn304 O312 2.160 . S
Mn304 O322 2.221 . S
O305 Mn306 2.087 . S
O305 C317 1.256 . S
Mn306 O305 2.087 . S
Mn306 O313 2.089 . S
Mn306 O322 2.290 . S
Mn306 O323 2.251 1_565 S
O307 Mn304 2.160 . S
O307 C318 1.239 . S
O308 Mn304 2.221 . S
O308 Mn309 2.290 . S
O308 C319 1.278 . S
Mn309 O308 2.290 . S
Mn309 O311 2.089 . S
Mn309 O314 2.251 . S
Mn309 O315 2.087 . S
O310 Mn304 2.163 . S
O310 C320 1.244 . S
O311 Mn309 2.089 . S
O311 C318 1.256 . S
O312 Mn304 2.160 . S
O312 C321 1.239 . S
O313 Mn306 2.089 . S
O313 C321 1.256 . S
O314 Mn309 2.251 . S
O314 C319 1.241 . S
O315 Mn309 2.087 . S
O315 C320 1.256 . S
C316 O322 1.278 . S
C316 O323 1.241 1_565 S
C317 O303 1.244 . S
C317 O305 1.256 . S
C318 O307 1.239 . S
C318 O311 1.256 . S
C319 O308 1.278 . S
C319 O314 1.241 . S
C320 O310 1.244 . S
C320 O315 1.256 . S
C321 O312 1.239 . S
C321 O313 1.256 . S
O322 Mn304 2.221 . S
O322 Mn306 2.290 . S
O322 C316 1.278 . S
O323 Mn306 2.251 1_545 S
O323 C316 1.241 1_545 S
O324 Mn325 2.163 . S
O324 C338 1.244 . S
Mn325 O324 2.163 . S
Mn325 O328 2.160 . S
Mn325 O329 2.221 . S
Mn325 O331 2.163 . S
Mn325 O333 2.160 . S
Mn325 O343 2.221 . S
O326 Mn327 2.087 . S
O326 C338 1.256 . S
Mn327 O326 2.087 . S
Mn327 O334 2.089 . S
Mn327 O343 2.290 . S
Mn327 O344 2.251 . S
O328 Mn325 2.160 . S
O328 C339 1.239 . S
O329 Mn325 2.221 . S
O329 Mn330 2.290 . S
O329 C340 1.278 . S
Mn330 O329 2.290 . S
Mn330 O332 2.089 . S
Mn330 O335 2.251 . S
Mn330 O336 2.087 . S
O331 Mn325 2.163 . S
O331 C341 1.244 . S
O332 Mn330 2.089 . S
O332 C339 1.256 . S
O333 Mn325 2.160 . S
O333 C342 1.239 . S
O334 Mn327 2.089 . S
O334 C342 1.256 . S
O335 Mn330 2.251 . S
O335 C340 1.241 . S
O336 Mn330 2.087 . S
O336 C341 1.256 . S
C337 O343 1.278 . S
C337 O344 1.241 . S
C338 O324 1.244 . S
C338 O326 1.256 . S
C339 O328 1.239 . S
C339 O332 1.256 . S
C340 O329 1.278 . S
C340 O335 1.241 . S
C341 O331 1.244 . S
C341 O336 1.256 . S
C342 O333 1.239 . S
C342 O334 1.256 . S
O343 Mn325 2.221 . S
O343 Mn327 2.290 . S
O343 C337 1.278 . S
O344 Mn327 2.251 . S
O344 C337 1.241 . S
O345 Mn346 2.163 . S
O345 C359 1.244 . S
Mn346 O345 2.163 . S
Mn346 O349 2.160 . S
Mn346 O350 2.221 . S
Mn346 O352 2.163 . S
Mn346 O354 2.160 . S
Mn346 O364 2.221 . S
O347 Mn348 2.087 . S
O347 C359 1.256 . S
Mn348 O347 2.087 . S
Mn348 O355 2.089 . S
Mn348 O364 2.290 . S
Mn348 O365 2.251 1_545 S
O349 Mn346 2.160 . S
O349 C360 1.239 . S
O350 Mn346 2.221 . S
O350 Mn351 2.290 . S
O350 C361 1.278 . S
Mn351 O350 2.290 . S
Mn351 O353 2.089 . S
Mn351 O356 2.251 . S
Mn351 O357 2.087 . S
O352 Mn346 2.163 . S
O352 C362 1.244 . S
O353 Mn351 2.089 . S
O353 C360 1.256 . S
O354 Mn346 2.160 . S
O354 C363 1.239 . S
O355 Mn348 2.089 . S
O355 C363 1.256 . S
O356 Mn351 2.251 . S
O356 C361 1.241 . S
O357 Mn351 2.087 . S
O357 C362 1.256 . S
C358 O364 1.278 . S
C358 O365 1.241 1_545 S
C359 O345 1.244 . S
C359 O347 1.256 . S
C360 O349 1.239 . S
C360 O353 1.256 . S
C361 O350 1.278 . S
C361 O356 1.241 . S
C362 O352 1.244 . S
C362 O357 1.256 . S
C363 O354 1.239 . S
C363 O355 1.256 . S
O364 Mn346 2.221 . S
O364 Mn348 2.290 . S
O364 C358 1.278 . S
O365 Mn348 2.251 1_565 S
O365 C358 1.241 1_565 S
O366 Mn367 2.163 . S
O366 C380 1.244 . S
Mn367 O366 2.163 . S
Mn367 O370 2.160 . S
Mn367 O371 2.221 . S
Mn367 O373 2.163 . S
Mn367 O375 2.160 . S
Mn367 O385 2.221 . S
O368 Mn369 2.087 . S
O368 C380 1.256 . S
Mn369 O368 2.087 . S
Mn369 O376 2.089 . S
Mn369 O385 2.290 . S
Mn369 O386 2.251 . S
O370 Mn367 2.160 . S
O370 C381 1.239 . S
O371 Mn367 2.221 . S
O371 Mn372 2.290 . S
O371 C382 1.278 . S
Mn372 O371 2.290 . S
Mn372 O374 2.089 . S
Mn372 O377 2.251 . S
Mn372 O378 2.087 . S
O373 Mn367 2.163 . S
O373 C383 1.244 . S
O374 Mn372 2.089 . S
O374 C381 1.256 . S
O375 Mn367 2.160 . S
O375 C384 1.239 . S
O376 Mn369 2.089 . S
O376 C384 1.256 . S
O377 Mn372 2.251 . S
O377 C382 1.241 . S
O378 Mn372 2.087 . S
O378 C383 1.256 . S
C379 O385 1.278 . S
C379 O386 1.241 . S
C380 O366 1.244 . S
C380 O368 1.256 . S
C381 O370 1.239 . S
C381 O374 1.256 . S
C382 O371 1.278 . S
C382 O377 1.241 . S
C383 O373 1.244 . S
C383 O378 1.256 . S
C384 O375 1.239 . S
C384 O376 1.256 . S
O385 Mn367 2.221 . S
O385 Mn369 2.290 . S
O385 C379 1.278 . S
O386 Mn369 2.251 . S
O386 C379 1.241 . S
N147 C212 1.418 1_556 S
C160 C233 1.794 . S
C138 C253 1.057 . S
C127 C232 1.011 . S
C254 C105 1.851 1_556 S
N114 C211 1.145 . S
C213 N125 1.306 . S
C234 N103 1.455 . S
C116 C256 1.059 . S
C149 C235 1.024 1_554 S
N158 C255 1.438 1_556 S
C214 N136 1.266 1_556 S
C275 N15 1.418 1_455 S
C28 C296 1.794 . S
C6 C316 1.057 1_545 S
C193 C295 1.011 . S
C171 C317 1.852 . S
N180 C274 1.145 . S
N191 C276 1.306 . S
N169 C297 1.454 . S
C319 C182 1.059 . S
C17 C298 1.023 1_545 S
C318 N26 1.438 1_455 S
N4 C277 1.266 . S
C338 N81 1.418 . S
C94 C359 1.794 . S
C379 C72 1.057 . S
C358 C61 1.011 1_545 S
C380 C39 1.852 1_655 S
N48 C337 1.145 . S
N59 C339 1.306 1_455 S
N37 C360 1.455 . S
C382 C50 1.059 1_545 S
C83 C361 1.023 . S
N92 C381 1.438 . S
N70 C340 1.266 . S
C174 C216 1.639 . S
C237 C185 1.481 . S
C196 C257 1.589 . S
C75 C236 1.665 . S
C86 C258 1.531 . S
C215 C97 1.913 . S
C42 C279 1.639 . S
C53 C300 1.481 . S
C64 C320 1.589 . S
C141 C299 1.665 . S
C321 C152 1.531 . S
C163 C278 1.913 . S
C108 C342 1.639 . S
C119 C363 1.481 . S
C383 C130 1.589 . S
C9 C362 1.665 . S
C20 C384 1.531 . S
C31 C341 1.913 . S
