# Generated by pormake.
# Topology ctn, (3,4)-cn, num edge types: 1
# Building blocks:
#     Node 0, Type 0, BuildingBlock: QEWDON_clean_linker_0, # of connection points: 3
#     Node 1, Type 0, BuildingBlock: QEWDON_clean_linker_0, # of connection points: 3
#     Node 2, Type 0, BuildingBlock: QEWDON_clean_linker_0, # of connection points: 3
#     Node 3, Type 0, BuildingBlock: QEWDON_clean_linker_0, # of connection points: 3
#     Node 4, Type 0, BuildingBlock: QEWDON_clean_linker_0, # of connection points: 3
#     Node 5, Type 0, BuildingBlock: QEWDON_clean_linker_0, # of connection points: 3
#     Node 6, Type 0, BuildingBlock: QEWDON_clean_linker_0, # of connection points: 3
#     Node 7, Type 0, BuildingBlock: QEWDON_clean_linker_0, # of connection points: 3
#     Node 8, Type 0, BuildingBlock: QEWDON_clean_linker_0, # of connection points: 3
#     Node 9, Type 0, BuildingBlock: QEWDON_clean_linker_0, # of connection points: 3
#     Node 10, Type 0, BuildingBlock: QEWDON_clean_linker_0, # of connection points: 3
#     Node 11, Type 0, BuildingBlock: QEWDON_clean_linker_0, # of connection points: 3
#     Node 12, Type 0, BuildingBlock: QEWDON_clean_linker_0, # of connection points: 3
#     Node 13, Type 0, BuildingBlock: QEWDON_clean_linker_0, # of connection points: 3
#     Node 14, Type 0, BuildingBlock: QEWDON_clean_linker_0, # of connection points: 3
#     Node 15, Type 0, BuildingBlock: QEWDON_clean_linker_0, # of connection points: 3
#     Node 16, Type 1, BuildingBlock: TATPOV_clean_sbu_0, # of connection points: 4
#     Node 17, Type 1, BuildingBlock: TATPOV_clean_sbu_0, # of connection points: 4
#     Node 18, Type 1, BuildingBlock: TATPOV_clean_sbu_0, # of connection points: 4
#     Node 19, Type 1, BuildingBlock: TATPOV_clean_sbu_0, # of connection points: 4
#     Node 20, Type 1, BuildingBlock: TATPOV_clean_sbu_0, # of connection points: 4
#     Node 21, Type 1, BuildingBlock: TATPOV_clean_sbu_0, # of connection points: 4
#     Node 22, Type 1, BuildingBlock: TATPOV_clean_sbu_0, # of connection points: 4
#     Node 23, Type 1, BuildingBlock: TATPOV_clean_sbu_0, # of connection points: 4
#     Node 24, Type 1, BuildingBlock: TATPOV_clean_sbu_0, # of connection points: 4
#     Node 25, Type 1, BuildingBlock: TATPOV_clean_sbu_0, # of connection points: 4
#     Node 26, Type 1, BuildingBlock: TATPOV_clean_sbu_0, # of connection points: 4
#     Node 27, Type 1, BuildingBlock: TATPOV_clean_sbu_0, # of connection points: 4
#     Edge 28, Type (0, 1), BuildingBlock: XIVTED_clean_linker_0, # of connection points: 2
#     Edge 29, Type (0, 1), BuildingBlock: XIVTED_clean_linker_0, # of connection points: 2
#     Edge 30, Type (0, 1), BuildingBlock: XIVTED_clean_linker_0, # of connection points: 2
#     Edge 31, Type (0, 1), BuildingBlock: XIVTED_clean_linker_0, # of connection points: 2
#     Edge 32, Type (0, 1), BuildingBlock: XIVTED_clean_linker_0, # of connection points: 2
#     Edge 33, Type (0, 1), BuildingBlock: XIVTED_clean_linker_0, # of connection points: 2
#     Edge 34, Type (0, 1), BuildingBlock: XIVTED_clean_linker_0, # of connection points: 2
#     Edge 35, Type (0, 1), BuildingBlock: XIVTED_clean_linker_0, # of connection points: 2
#     Edge 36, Type (0, 1), BuildingBlock: XIVTED_clean_linker_0, # of connection points: 2
#     Edge 37, Type (0, 1), BuildingBlock: XIVTED_clean_linker_0, # of connection points: 2
#     Edge 38, Type (0, 1), BuildingBlock: XIVTED_clean_linker_0, # of connection points: 2
#     Edge 39, Type (0, 1), BuildingBlock: XIVTED_clean_linker_0, # of connection points: 2
#     Edge 40, Type (0, 1), BuildingBlock: XIVTED_clean_linker_0, # of connection points: 2
#     Edge 41, Type (0, 1), BuildingBlock: XIVTED_clean_linker_0, # of connection points: 2
#     Edge 42, Type (0, 1), BuildingBlock: XIVTED_clean_linker_0, # of connection points: 2
#     Edge 43, Type (0, 1), BuildingBlock: XIVTED_clean_linker_0, # of connection points: 2
#     Edge 44, Type (0, 1), BuildingBlock: XIVTED_clean_linker_0, # of connection points: 2
#     Edge 45, Type (0, 1), BuildingBlock: XIVTED_clean_linker_0, # of connection points: 2
#     Edge 46, Type (0, 1), BuildingBlock: XIVTED_clean_linker_0, # of connection points: 2
#     Edge 47, Type (0, 1), BuildingBlock: XIVTED_clean_linker_0, # of connection points: 2
#     Edge 48, Type (0, 1), BuildingBlock: XIVTED_clean_linker_0, # of connection points: 2
#     Edge 49, Type (0, 1), BuildingBlock: XIVTED_clean_linker_0, # of connection points: 2
#     Edge 50, Type (0, 1), BuildingBlock: XIVTED_clean_linker_0, # of connection points: 2
#     Edge 51, Type (0, 1), BuildingBlock: XIVTED_clean_linker_0, # of connection points: 2
#     Edge 52, Type (0, 1), BuildingBlock: XIVTED_clean_linker_0, # of connection points: 2
#     Edge 53, Type (0, 1), BuildingBlock: XIVTED_clean_linker_0, # of connection points: 2
#     Edge 54, Type (0, 1), BuildingBlock: XIVTED_clean_linker_0, # of connection points: 2
#     Edge 55, Type (0, 1), BuildingBlock: XIVTED_clean_linker_0, # of connection points: 2
#     Edge 56, Type (0, 1), BuildingBlock: XIVTED_clean_linker_0, # of connection points: 2
#     Edge 57, Type (0, 1), BuildingBlock: XIVTED_clean_linker_0, # of connection points: 2
#     Edge 58, Type (0, 1), BuildingBlock: XIVTED_clean_linker_0, # of connection points: 2
#     Edge 59, Type (0, 1), BuildingBlock: XIVTED_clean_linker_0, # of connection points: 2
#     Edge 60, Type (0, 1), BuildingBlock: XIVTED_clean_linker_0, # of connection points: 2
#     Edge 61, Type (0, 1), BuildingBlock: XIVTED_clean_linker_0, # of connection points: 2
#     Edge 62, Type (0, 1), BuildingBlock: XIVTED_clean_linker_0, # of connection points: 2
#     Edge 63, Type (0, 1), BuildingBlock: XIVTED_clean_linker_0, # of connection points: 2
#     Edge 64, Type (0, 1), BuildingBlock: XIVTED_clean_linker_0, # of connection points: 2
#     Edge 65, Type (0, 1), BuildingBlock: XIVTED_clean_linker_0, # of connection points: 2
#     Edge 66, Type (0, 1), BuildingBlock: XIVTED_clean_linker_0, # of connection points: 2
#     Edge 67, Type (0, 1), BuildingBlock: XIVTED_clean_linker_0, # of connection points: 2
#     Edge 68, Type (0, 1), BuildingBlock: XIVTED_clean_linker_0, # of connection points: 2
#     Edge 69, Type (0, 1), BuildingBlock: XIVTED_clean_linker_0, # of connection points: 2
#     Edge 70, Type (0, 1), BuildingBlock: XIVTED_clean_linker_0, # of connection points: 2
#     Edge 71, Type (0, 1), BuildingBlock: XIVTED_clean_linker_0, # of connection points: 2
#     Edge 72, Type (0, 1), BuildingBlock: XIVTED_clean_linker_0, # of connection points: 2
#     Edge 73, Type (0, 1), BuildingBlock: XIVTED_clean_linker_0, # of connection points: 2
#     Edge 74, Type (0, 1), BuildingBlock: XIVTED_clean_linker_0, # of connection points: 2
#     Edge 75, Type (0, 1), BuildingBlock: XIVTED_clean_linker_0, # of connection points: 2
# Relax obj value: 0.114
# Max RMSD: 0.278
# Mean RMSD: 0.152
data_MOF--net-ctn--node1-TATPOV_clean_sbu_0--node2-QEWDON_clean_linker_0--edge1-XIVTED_clean_linker_0
_symmetry_space_group_name_H-M    P1
_symmetry_Int_Tables_number       1
_symmetry_cell_setting            triclinic
loop_
_symmetry_equiv_pos_as_xyz
'x, y, z'
_cell_length_a     52.709219
_cell_length_b     55.301306
_cell_length_c     58.864336
_cell_angle_alpha  99.533224
_cell_angle_beta   92.610293
_cell_angle_gamma 96.963508
loop_
_atom_site_label
_atom_site_type_symbol
_atom_site_fract_x
_atom_site_fract_y
_atom_site_fract_z
_atom_type_partial_charge
H0 H 0.10042 0.01508 0.037 0.0
C1 C 0.08613 0.01254 0.04937 0.0
C2 C 0.08361 0.99099 0.05939 0.0
C3 C 0.07117 0.03152 0.05588 0.0
H4 H 0.06315 0.97226 0.08392 0.0
C5 C 0.06511 0.98852 0.07578 0.0
C6 C 0.04963 0.00733 0.08227 0.0
C7 C 0.05291 0.02876 0.07216 0.0
C8 C 0.07829 0.05598 0.04925 0.0
H9 H 0.0422 0.04396 0.07785 0.0
C10 C 0.06851 0.06211 0.02851 0.0
C11 C 0.07715 0.08521 0.02237 0.0
C12 C 0.09619 0.07313 0.06385 0.0
H13 H 0.1039 0.06868 0.07982 0.0
C14 C 0.10457 0.09597 0.05789 0.0
H15 H 0.05475 0.04891 0.01711 0.0
C16 C 0.09525 0.10195 0.03727 0.0
H17 H 0.10204 0.11984 0.033 0.0
H18 H 0.11844 0.10906 0.06924 0.0
H19 H 0.33955 0.74931 0.25605 0.0
C20 C 0.32522 0.73317 0.254 0.0
C21 C 0.33038 0.71232 0.26336 0.0
C22 C 0.30159 0.73352 0.24207 0.0
H23 H 0.31478 0.67613 0.26883 0.0
C24 C 0.31142 0.69171 0.26063 0.0
C25 C 0.2876 0.69167 0.24875 0.0
C26 C 0.28302 0.7126 0.2392 0.0
C27 C 0.29555 0.75669 0.23469 0.0
H28 H 0.26471 0.713 0.2302 0.0
C29 C 0.28776 0.7574 0.21159 0.0
C30 C 0.28249 0.77983 0.20498 0.0
C31 C 0.29766 0.77844 0.25117 0.0
H32 H 0.30346 0.7783 0.26904 0.0
C33 C 0.29207 0.8005 0.24484 0.0
H34 H 0.28615 0.74065 0.19883 0.0
C35 C 0.28463 0.80126 0.22197 0.0
H36 H 0.2812 0.81886 0.21749 0.0
H37 H 0.29379 0.81716 0.25768 0.0
H38 H 0.0598 0.46129 0.05636 0.0
C39 C 0.04593 0.47319 0.05231 0.0
C40 C 0.03347 0.48615 0.07013 0.0
C41 C 0.04198 0.47676 0.02951 0.0
H42 H 0.007 0.51271 0.07857 0.0
C43 C 0.01639 0.50245 0.06482 0.0
C44 C 0.01179 0.50579 0.04184 0.0
C45 C 0.02471 0.49275 0.02437 0.0
C46 C 0.05726 0.46524 0.01124 0.0
H47 H 0.02126 0.49485 0.00655 0.0
C48 C 0.05852 0.43962 0.00747 0.0
C49 C 0.07316 0.42894 0.99 0.0
C50 C 0.07089 0.48014 0.99756 0.0
H51 H 0.07033 0.49992 0.00029 0.0
C52 C 0.08564 0.46971 0.98044 0.0
H53 H 0.04796 0.42806 0.01795 0.0
C54 C 0.08677 0.44431 0.97662 0.0
H55 H 0.09783 0.43664 0.96277 0.0
H56 H 0.09608 0.48131 0.96997 0.0
H57 H 0.80106 0.7719 0.23868 0.0
C58 C 0.80216 0.76392 0.22071 0.0
C59 C 0.81137 0.77893 0.20491 0.0
C60 C 0.79573 0.73828 0.21367 0.0
H61 H 0.81946 0.77936 0.16933 0.0
C62 C 0.8132 0.76792 0.18181 0.0
C63 C 0.80685 0.74231 0.17457 0.0
C64 C 0.79819 0.72763 0.19067 0.0
C65 C 0.78807 0.72211 0.23051 0.0
H66 H 0.79381 0.70776 0.18546 0.0
C67 C 0.76513 0.72384 0.24164 0.0
C68 C 0.75716 0.7072 0.25651 0.0
C69 C 0.80332 0.70399 0.23465 0.0
H70 H 0.82101 0.70233 0.22618 0.0
C71 C 0.79586 0.68784 0.24969 0.0
H72 H 0.75339 0.73786 0.2384 0.0
C73 C 0.77293 0.68931 0.26047 0.0
H74 H 0.76727 0.67599 0.27147 0.0
H75 H 0.80772 0.67388 0.25274 0.0
H76 H 0.1319 0.95819 0.45981 0.0
C77 C 0.11747 0.96353 0.44858 0.0
C78 C 0.12185 0.98626 0.44071 0.0
C79 C 0.09516 0.94707 0.44103 0.0
H80 H 0.10652 0.01008 0.41945 0.0
C81 C 0.10308 0.99283 0.42596 0.0
C82 C 0.08084 0.97636 0.41804 0.0
C83 C 0.07711 0.95342 0.42551 0.0
C84 C 0.09202 0.92216 0.44739 0.0
H85 H 0.06017 0.94044 0.4192 0.0
C86 C 0.08897 0.91894 0.4704 0.0
C87 C 0.0862 0.895 0.47612 0.0
C88 C 0.09235 0.9014 0.43017 0.0
H89 H 0.09471 0.90355 0.41239 0.0
C90 C 0.08998 0.87775 0.43578 0.0
H91 H 0.08859 0.93496 0.48371 0.0
C92 C 0.08694 0.87452 0.45855 0.0
H93 H 0.08452 0.85588 0.4623 0.0
H94 H 0.09032 0.86183 0.42239 0.0
H95 H 0.27917 0.68649 0.74694 0.0
C96 C 0.27339 0.69509 0.76348 0.0
C97 C 0.27916 0.68546 0.78344 0.0
C98 C 0.25982 0.71554 0.76448 0.0
H99 H 0.2768 0.6903 0.82031 0.0
C100 C 0.27136 0.69692 0.80471 0.0
C101 C 0.25762 0.71747 0.80614 0.0
C102 C 0.25164 0.72639 0.78572 0.0
C103 C 0.25572 0.72631 0.74337 0.0
H104 H 0.24111 0.74212 0.78633 0.0
C105 C 0.231 0.72939 0.73509 0.0
C106 C 0.22749 0.73834 0.71421 0.0
C107 C 0.2769 0.7329 0.731 0.0
H108 H 0.29608 0.73081 0.73712 0.0
C109 C 0.27358 0.74235 0.71071 0.0
H110 H 0.21456 0.72393 0.74437 0.0
C111 C 0.2491 0.74499 0.7023 0.0
H112 H 0.24708 0.75236 0.68647 0.0
H113 H 0.29004 0.74751 0.70137 0.0
H114 H 0.94587 0.61237 0.46913 0.0
C115 C 0.93741 0.59493 0.47337 0.0
C116 C 0.93051 0.59376 0.49592 0.0
C117 C 0.93373 0.57378 0.45622 0.0
H118 H 0.91358 0.57028 0.5185 0.0
C119 C 0.91934 0.57115 0.50117 0.0
C120 C 0.91502 0.54981 0.48401 0.0
C121 C 0.92281 0.55118 0.46162 0.0
C122 C 0.93983 0.57603 0.43237 0.0
H123 H 0.91925 0.53503 0.44813 0.0
C124 C 0.95946 0.56415 0.42178 0.0
C125 C 0.96661 0.56834 0.39983 0.0
C126 C 0.92689 0.59153 0.42066 0.0
H127 H 0.91177 0.60087 0.4286 0.0
C128 C 0.93341 0.59517 0.39868 0.0
H129 H 0.96982 0.55259 0.43102 0.0
C130 C 0.9532 0.58379 0.38835 0.0
H131 H 0.958 0.58702 0.37131 0.0
H132 H 0.92327 0.60707 0.38971 0.0
H133 H 0.86147 0.84105 0.81413 0.0
C134 C 0.862 0.82606 0.8238 0.0
C135 C 0.87723 0.80718 0.81707 0.0
C136 C 0.84761 0.82607 0.84328 0.0
H137 H 0.88917 0.77345 0.82549 0.0
C138 C 0.87707 0.78778 0.82992 0.0
C139 C 0.86191 0.78697 0.84893 0.0
C140 C 0.8475 0.80641 0.8556 0.0
C141 C 0.83349 0.84714 0.85142 0.0
H142 H 0.83565 0.80607 0.87015 0.0
C143 C 0.81679 0.85588 0.83622 0.0
C144 C 0.80384 0.87618 0.84415 0.0
C145 C 0.83707 0.85884 0.87462 0.0
H146 H 0.84995 0.85255 0.8866 0.0
C147 C 0.82443 0.87904 0.8825 0.0
H148 H 0.81384 0.84688 0.81832 0.0
C149 C 0.80796 0.88771 0.86741 0.0
H150 H 0.79804 0.90317 0.87406 0.0
H151 H 0.82737 0.88798 0.90039 0.0
H152 H 0.37402 0.35421 0.31346 0.0
C153 C 0.37204 0.33899 0.32301 0.0
C154 C 0.38151 0.3169 0.31441 0.0
C155 C 0.36009 0.34153 0.34391 0.0
H156 H 0.38522 0.27986 0.31938 0.0
C157 C 0.37849 0.29708 0.32659 0.0
C158 C 0.36708 0.29945 0.34792 0.0
C159 C 0.35812 0.32198 0.35648 0.0
C160 C 0.3497 0.36469 0.35273 0.0
H161 H 0.34954 0.32445 0.37295 0.0
C162 C 0.33063 0.37303 0.33959 0.0
C163 C 0.32026 0.39477 0.34822 0.0
C164 C 0.35849 0.37828 0.37452 0.0
H165 H 0.37313 0.37212 0.3849 0.0
C166 C 0.34861 0.40006 0.383 0.0
H167 H 0.32373 0.36245 0.32281 0.0
C168 C 0.32963 0.40829 0.36999 0.0
H169 H 0.32187 0.42493 0.37722 0.0
H170 H 0.35552 0.4105 0.3998 0.0
H171 H 0.56205 0.96566 0.54581 0.0
C172 C 0.54819 0.97774 0.5422 0.0
C173 C 0.53588 0.99023 0.56041 0.0
C174 C 0.54397 0.98188 0.5196 0.0
H175 H 0.50958 0.0167 0.56979 0.0
C176 C 0.51883 0.0068 0.55572 0.0
C177 C 0.51399 0.0108 0.533 0.0
C178 C 0.52662 0.99809 0.5151 0.0
C179 C 0.55883 0.97051 0.50085 0.0
H180 H 0.52285 0.00059 0.49744 0.0
C181 C 0.56111 0.94507 0.49745 0.0
C182 C 0.57544 0.93455 0.47964 0.0
C183 C 0.57113 0.98537 0.48638 0.0
H184 H 0.56988 0.00503 0.4888 0.0
C185 C 0.58547 0.97509 0.46885 0.0
H186 H 0.55163 0.93351 0.50854 0.0
C187 C 0.58761 0.94989 0.46544 0.0
H188 H 0.59836 0.94233 0.45131 0.0
H189 H 0.59486 0.98668 0.45777 0.0
H190 H 0.2897 0.26668 0.74159 0.0
C191 C 0.29339 0.25794 0.72441 0.0
C192 C 0.30512 0.27212 0.70894 0.0
C193 C 0.28726 0.2322 0.71814 0.0
H194 H 0.31934 0.27043 0.67486 0.0
C195 C 0.30959 0.26006 0.68671 0.0
C196 C 0.30292 0.23437 0.68006 0.0
C197 C 0.2918 0.22068 0.69595 0.0
C198 C 0.27807 0.21674 0.73515 0.0
H199 H 0.28661 0.20084 0.6911 0.0
C200 C 0.25506 0.21979 0.74587 0.0
C201 C 0.24587 0.20379 0.76093 0.0
C202 C 0.29216 0.198 0.73996 0.0
H203 H 0.30994 0.19536 0.73191 0.0
C204 C 0.28346 0.18246 0.75512 0.0
H205 H 0.24423 0.23429 0.74217 0.0
C206 C 0.26045 0.18519 0.76544 0.0
H207 H 0.25381 0.1723 0.77654 0.0
H208 H 0.29441 0.168 0.75863 0.0
H209 H 0.82733 0.24865 0.75397 0.0
C210 C 0.81372 0.23193 0.75125 0.0
C211 C 0.81971 0.211 0.76007 0.0
C212 C 0.79011 0.23161 0.73904 0.0
H213 H 0.80546 0.17403 0.76438 0.0
C214 C 0.80155 0.18971 0.75657 0.0
C215 C 0.77776 0.18904 0.74442 0.0
C216 C 0.77236 0.21006 0.73541 0.0
C217 C 0.78301 0.25474 0.73245 0.0
H218 H 0.75404 0.21 0.72625 0.0
C219 C 0.77854 0.25705 0.70916 0.0
C220 C 0.77227 0.27953 0.70337 0.0
C221 C 0.78086 0.27486 0.7499 0.0
H222 H 0.78419 0.27342 0.7679 0.0
C223 C 0.77423 0.2969 0.74432 0.0
H224 H 0.78025 0.24153 0.69568 0.0
C225 C 0.77003 0.2993 0.72129 0.0
H226 H 0.76571 0.31693 0.71752 0.0
H227 H 0.77264 0.31232 0.75792 0.0
H228 H 0.59825 0.51649 0.53601 0.0
C229 C 0.58495 0.51299 0.54895 0.0
C230 C 0.58364 0.4907 0.55782 0.0
C231 C 0.57017 0.53149 0.55755 0.0
H232 H 0.56597 0.47043 0.58265 0.0
C233 C 0.56644 0.48699 0.57503 0.0
C234 C 0.55108 0.50522 0.58361 0.0
C235 C 0.55315 0.52737 0.57459 0.0
C236 C 0.57571 0.5567 0.55195 0.0
H237 H 0.54188 0.54183 0.5811 0.0
C238 C 0.57043 0.56198 0.52967 0.0
C239 C 0.57676 0.58626 0.52517 0.0
C240 C 0.58706 0.57578 0.56954 0.0
H241 H 0.5913 0.5721 0.58673 0.0
C242 C 0.59342 0.59965 0.56509 0.0
H243 H 0.56157 0.5474 0.51601 0.0
C244 C 0.5884 0.60487 0.5431 0.0
H245 H 0.59326 0.62367 0.54017 0.0
H246 H 0.60225 0.61419 0.57876 0.0
H247 H 0.62647 0.44426 0.95253 0.0
C248 C 0.61281 0.45018 0.94095 0.0
C249 C 0.6184 0.47299 0.93346 0.0
C250 C 0.59025 0.4344 0.93269 0.0
H251 H 0.60494 0.49767 0.91213 0.0
C252 C 0.60058 0.48033 0.91833 0.0
C253 C 0.57804 0.4646 0.90974 0.0
C254 C 0.57312 0.44154 0.91687 0.0
C255 C 0.5858 0.40944 0.93884 0.0
H256 H 0.55591 0.42915 0.91014 0.0
C257 C 0.5822 0.4062 0.96177 0.0
C258 C 0.57842 0.38223 0.96733 0.0
C259 C 0.58558 0.38864 0.92154 0.0
H260 H 0.58836 0.39079 0.90382 0.0
C261 C 0.58218 0.36493 0.92702 0.0
H262 H 0.58221 0.42224 0.97515 0.0
C263 C 0.57867 0.3617 0.94973 0.0
H264 H 0.57553 0.34306 0.95342 0.0
H265 H 0.58213 0.34898 0.91359 0.0
H266 H 0.78299 0.19441 0.24479 0.0
C267 C 0.77858 0.20243 0.26201 0.0
C268 C 0.78462 0.19108 0.28083 0.0
C269 C 0.76666 0.22401 0.26516 0.0
H270 H 0.78351 0.1932 0.31758 0.0
C271 C 0.77877 0.20188 0.30303 0.0
C272 C 0.7677 0.2241 0.30673 0.0
C273 C 0.76122 0.23474 0.28745 0.0
C274 C 0.76215 0.23647 0.24525 0.0
H275 H 0.75322 0.25207 0.28977 0.0
C276 C 0.73716 0.23817 0.23665 0.0
C277 C 0.73334 0.24871 0.2167 0.0
C278 C 0.78325 0.24592 0.23423 0.0
H279 H 0.80259 0.24475 0.24062 0.0
C280 C 0.77959 0.25699 0.21494 0.0
H281 H 0.72085 0.23044 0.24489 0.0
C282 C 0.75487 0.25833 0.20616 0.0
H283 H 0.75259 0.26694 0.19108 0.0
H284 H 0.79597 0.26438 0.20662 0.0
H285 H 0.46263 0.09204 0.97732 0.0
C286 C 0.45212 0.07479 0.98014 0.0
C287 C 0.44495 0.07218 0.00234 0.0
C288 C 0.44474 0.05584 0.96127 0.0
H289 H 0.42433 0.04828 0.02263 0.0
C290 C 0.43011 0.05027 0.00553 0.0
C291 C 0.42284 0.03089 0.98677 0.0
C292 C 0.43051 0.03375 0.96466 0.0
C293 C 0.44951 0.06056 0.9378 0.0
H294 H 0.42432 0.01938 0.9499 0.0
C295 C 0.46777 0.04896 0.92482 0.0
C296 C 0.4735 0.05529 0.90322 0.0
C297 C 0.43655 0.07802 0.9289 0.0
H298 H 0.42249 0.08717 0.93874 0.0
C299 C 0.4417 0.08389 0.9073 0.0
H300 H 0.47812 0.03583 0.93191 0.0
C301 C 0.46012 0.07272 0.89456 0.0
H302 H 0.46382 0.07764 0.87784 0.0
H303 H 0.43156 0.0973 0.9005 0.0
Zn304 Zn 0.29535 0.82409 0.00285 0.0
Zn305 Zn 0.25556 0.84913 0.0083 0.0
O306 O 0.25732 0.83204 0.03763 0.0
O307 O 0.29129 0.81261 0.03305 0.0
O308 O 0.22645 0.87042 0.01374 0.0
O309 O 0.31898 0.85504 0.00061 0.0
O310 O 0.28629 0.87594 0.00677 0.0
C311 C 0.2728 0.81841 0.04486 0.0
C312 C 0.25703 0.80802 0.96574 0.0
O313 O 0.24605 0.82564 0.97627 0.0
O314 O 0.27787 0.80302 0.9742 0.0
C315 C 0.20436 0.86364 0.02023 0.0
O316 O 0.19852 0.84065 0.0232 0.0
C317 C 0.30994 0.87544 0.00325 0.0
Zn318 Zn 0.11187 0.45308 0.26934 0.0
Zn319 Zn 0.14011 0.498 0.27049 0.0
O320 O 0.11581 0.50669 0.29585 0.0
O321 O 0.09314 0.47042 0.29574 0.0
O322 O 0.1635 0.52933 0.26918 0.0
O323 O 0.14425 0.43815 0.27639 0.0
O324 O 0.16594 0.47504 0.27809 0.0
C325 C 0.09804 0.49337 0.3038 0.0
C326 C 0.10589 0.47249 0.22717 0.0
O327 O 0.12143 0.49034 0.23841 0.0
O328 O 0.0991 0.45362 0.23617 0.0
C329 C 0.1561 0.54868 0.26351 0.0
O330 O 0.13153 0.54931 0.25922 0.0
C331 C 0.16534 0.45231 0.27978 0.0
Zn332 Zn 0.8407 0.59043 0.93686 0.0
Zn333 Zn 0.8299 0.61893 0.97587 0.0
O334 O 0.86071 0.60268 0.98626 0.0
O335 O 0.87173 0.58179 0.95384 0.0
O336 O 0.82199 0.63978 0.00543 0.0
O337 O 0.84415 0.62059 0.92124 0.0
O338 O 0.83746 0.64407 0.95387 0.0
C339 C 0.87553 0.58892 0.97544 0.0
C340 C 0.79041 0.57597 0.95156 0.0
O341 O 0.79667 0.5949 0.96721 0.0
O342 O 0.8061 0.5696 0.9367 0.0
C343 C 0.83802 0.65773 0.01568 0.0
O344 O 0.85979 0.66301 0.00642 0.0
C345 C 0.84238 0.64179 0.93266 0.0
Zn346 Zn 0.88979 0.00075 0.29616 0.0
Zn347 Zn 0.91631 0.00528 0.25981 0.0
O348 O 0.89439 0.0352 0.26197 0.0
O349 O 0.87159 0.02914 0.29144 0.0
O350 O 0.93884 0.00747 0.23256 0.0
O351 O 0.92131 0.00611 0.3177 0.0
O352 O 0.94363 0.00658 0.28702 0.0
C353 C 0.87707 0.04138 0.27558 0.0
C354 C 0.87955 0.95759 0.26155 0.0
O355 O 0.89507 0.97042 0.25074 0.0
O356 O 0.87423 0.96638 0.28176 0.0
C357 C 0.93059 0.00798 0.21198 0.0
O358 O 0.90595 0.00806 0.20754 0.0
C359 C 0.94269 0.00719 0.30875 0.0
Zn360 Zn 0.34357 0.10278 0.43418 0.0
Zn361 Zn 0.3344 0.1306 0.47435 0.0
O362 O 0.36582 0.11375 0.4826 0.0
O363 O 0.3747 0.09266 0.44944 0.0
O364 O 0.32868 0.15143 0.50477 0.0
O365 O 0.34772 0.13351 0.41952 0.0
O366 O 0.34026 0.15609 0.45243 0.0
C367 C 0.37973 0.09963 0.47094 0.0
C368 C 0.29383 0.08848 0.45075 0.0
O369 O 0.30089 0.10677 0.4669 0.0
O370 O 0.30863 0.08277 0.43489 0.0
C371 C 0.32854 0.14153 0.52278 0.0
O372 O 0.33173 0.1181 0.52087 0.0
C373 C 0.3454 0.15438 0.4313 0.0
Zn374 Zn 0.38749 0.49539 0.79445 0.0
Zn375 Zn 0.41047 0.49915 0.75653 0.0
O376 O 0.38895 0.52937 0.76119 0.0
O377 O 0.36762 0.52317 0.79143 0.0
O378 O 0.43024 0.50312 0.72782 0.0
O379 O 0.42036 0.50181 0.81409 0.0
O380 O 0.43997 0.4997 0.78173 0.0
C381 C 0.37247 0.53567 0.77564 0.0
C382 C 0.37547 0.45141 0.76067 0.0
O383 O 0.38867 0.46432 0.7482 0.0
O384 O 0.37263 0.46043 0.78147 0.0
C385 C 0.43842 0.48487 0.71542 0.0
O386 O 0.43346 0.46277 0.72088 0.0
C387 C 0.4408 0.50151 0.80368 0.0
Zn388 Zn 0.80664 0.33831 0.50788 0.0
Zn389 Zn 0.76381 0.358 0.50879 0.0
O390 O 0.76454 0.34153 0.53865 0.0
O391 O 0.80129 0.3264 0.53764 0.0
O392 O 0.73279 0.37707 0.51157 0.0
O393 O 0.82862 0.37025 0.50676 0.0
O394 O 0.79286 0.38702 0.5081 0.0
C395 C 0.7809 0.32983 0.5475 0.0
C396 C 0.77227 0.31733 0.46828 0.0
O397 O 0.75794 0.33297 0.47723 0.0
O398 O 0.79357 0.31596 0.47847 0.0
C399 C 0.7113 0.37028 0.51918 0.0
O400 O 0.70718 0.34831 0.52508 0.0
C401 C 0.81716 0.38909 0.50706 0.0
Zn402 Zn 0.60785 0.94424 0.757 0.0
Zn403 Zn 0.63682 0.98915 0.75989 0.0
O404 O 0.61284 0.99683 0.78572 0.0
O405 O 0.5895 0.96061 0.78415 0.0
O406 O 0.66006 0.02087 0.75961 0.0
O407 O 0.64 0.92871 0.76324 0.0
O408 O 0.66237 0.96553 0.76651 0.0
C409 C 0.59496 0.98324 0.79323 0.0
C410 C 0.60246 0.96557 0.71598 0.0
O411 O 0.61817 0.98286 0.72782 0.0
O412 O 0.59521 0.94628 0.7242 0.0
C413 C 0.65191 0.04034 0.75499 0.0
O414 O 0.62716 0.04047 0.75129 0.0
C415 C 0.66128 0.94253 0.76723 0.0
Zn416 Zn 0.04312 0.25104 0.84842 0.0
Zn417 Zn 0.03965 0.21394 0.8695 0.0
O418 O 0.07006 0.21011 0.84788 0.0
O419 O 0.06665 0.23776 0.82542 0.0
O420 O 0.04094 0.185 0.88682 0.0
O421 O 0.05808 0.27409 0.87693 0.0
O422 O 0.04663 0.24415 0.89626 0.0
C423 C 0.07747 0.22016 0.83084 0.0
C424 C 0.99225 0.22604 0.84366 0.0
O425 O 0.00279 0.21014 0.85303 0.0
O426 O 0.00534 0.24601 0.84107 0.0
C427 C 0.02481 0.17874 0.90095 0.0
O428 O 0.00468 0.1905 0.90393 0.0
C429 C 0.05547 0.26659 0.89593 0.0
Zn430 Zn 0.55538 0.75037 0.3457 0.0
Zn431 Zn 0.55287 0.71507 0.36849 0.0
O432 O 0.58294 0.71043 0.34646 0.0
O433 O 0.57804 0.73621 0.32239 0.0
O434 O 0.5552 0.68745 0.3874 0.0
O435 O 0.5711 0.775 0.37288 0.0
O436 O 0.55974 0.74662 0.39393 0.0
C437 C 0.58952 0.71937 0.32858 0.0
C438 C 0.50462 0.72564 0.34293 0.0
O439 O 0.51555 0.7102 0.35262 0.0
O440 O 0.51749 0.74533 0.33939 0.0
C441 C 0.53723 0.67643 0.39714 0.0
O442 O 0.51387 0.68204 0.39459 0.0
C443 C 0.56857 0.76878 0.39244 0.0
Zn444 Zn 0.96951 0.80538 0.62422 0.0
Zn445 Zn 0.01181 0.78936 0.64027 0.0
O446 O 0.02537 0.81617 0.6212 0.0
O447 O 0.99082 0.83074 0.60971 0.0
O448 O 0.04405 0.78007 0.65475 0.0
O449 O 0.95773 0.81421 0.65637 0.0
O450 O 0.99128 0.79882 0.66886 0.0
C451 C 0.01488 0.8309 0.61028 0.0
C452 C 0.97403 0.75337 0.60673 0.0
O453 O 0.99487 0.75761 0.61941 0.0
O454 O 0.96011 0.77043 0.60593 0.0
C455 C 0.05984 0.76857 0.64293 0.0
O456 O 0.05516 0.76236 0.62047 0.0
C457 C 0.97076 0.80842 0.67277 0.0
Zn458 Zn 0.46746 0.28638 0.11577 0.0
Zn459 Zn 0.51153 0.27924 0.13664 0.0
O460 O 0.52294 0.30424 0.1152 0.0
O461 O 0.48663 0.31175 0.09952 0.0
O462 O 0.54475 0.27472 0.15329 0.0
O463 O 0.45269 0.29595 0.14623 0.0
O464 O 0.48897 0.29058 0.1636 0.0
C465 C 0.51087 0.31545 0.10174 0.0
C466 C 0.47847 0.23602 0.10516 0.0
O467 O 0.49861 0.24442 0.11829 0.0
O468 O 0.46224 0.25022 0.10131 0.0
C469 C 0.56226 0.2654 0.142 0.0
O470 O 0.55848 0.25894 0.11947 0.0
C471 C 0.46613 0.29601 0.1646 0.0
H472 H 0.24232 0.69667 0.84354 0.0
H473 H 0.23959 0.82593 0.92792 0.0
H474 H 0.25707 0.76742 0.82139 0.0
H475 H 0.25413 0.75864 0.95106 0.0
H476 H 0.23417 0.80333 0.88788 0.0
H477 H 0.23553 0.71805 0.88209 0.0
C478 C 0.24409 0.71667 0.84668 0.0
C479 C 0.25073 0.73017 0.82909 0.0
C480 C 0.23802 0.79345 0.90181 0.0
C481 C 0.24232 0.75479 0.87331 0.0
C482 C 0.2408 0.80626 0.92464 0.0
C483 C 0.24729 0.79407 0.94275 0.0
C484 C 0.24139 0.76829 0.89725 0.0
C485 C 0.24915 0.76868 0.93755 0.0
C486 C 0.24001 0.72885 0.8687 0.0
C487 C 0.25189 0.75611 0.83423 0.0
N488 N 0.24635 0.75667 0.91532 0.0
N489 N 0.24793 0.76755 0.85586 0.0
H490 H 0.97732 0.52052 0.39639 0.0
H491 H 0.09783 0.54269 0.32052 0.0
H492 H 0.00541 0.59107 0.37858 0.0
H493 H 0.0611 0.47024 0.32705 0.0
H494 H 0.06806 0.56122 0.3467 0.0
H495 H 0.01185 0.50233 0.37591 0.0
C496 C 0.9909 0.53221 0.38837 0.0
C497 C 0.98833 0.55726 0.38895 0.0
C498 C 0.06663 0.54126 0.34252 0.0
C499 C 0.02778 0.53665 0.36551 0.0
C500 C 0.08369 0.53066 0.32762 0.0
C501 C 0.08185 0.50485 0.32139 0.0
C502 C 0.04763 0.52598 0.35135 0.0
C503 C 0.06312 0.49022 0.3312 0.0
C504 C 0.0105 0.52182 0.37659 0.0
C505 C 0.0064 0.57157 0.37819 0.0
N506 N 0.04667 0.50098 0.34559 0.0
N507 N 0.02528 0.56105 0.36687 0.0
H508 H 0.86043 0.73777 0.83084 0.0
H509 H 0.84254 0.69083 0.95156 0.0
H510 H 0.86022 0.78732 0.89572 0.0
H511 H 0.85053 0.64283 0.88724 0.0
H512 H 0.84838 0.72646 0.93162 0.0
H513 H 0.85669 0.70284 0.85144 0.0
C514 C 0.85986 0.74137 0.84945 0.0
C515 C 0.86065 0.76561 0.86151 0.0
C516 C 0.8489 0.70812 0.92191 0.0
C517 C 0.85588 0.72548 0.88527 0.0
C518 C 0.84552 0.68776 0.93328 0.0
C519 C 0.846 0.66374 0.92109 0.0
C520 C 0.85268 0.70445 0.89816 0.0
C521 C 0.84999 0.66094 0.8974 0.0
C522 C 0.85754 0.72135 0.86121 0.0
C523 C 0.85932 0.76897 0.88562 0.0
N524 N 0.85311 0.68099 0.88675 0.0
N525 N 0.85694 0.74915 0.89669 0.0
H526 H 0.06318 0.94915 0.37608 0.0
H527 H 0.95229 0.02768 0.35415 0.0
H528 H 0.05656 0.01767 0.42109 0.0
H529 H 0.98563 0.98564 0.29743 0.0
H530 H 0.98805 0.02228 0.38009 0.0
H531 H 0.03209 0.95951 0.34804 0.0
C532 C 0.0551 0.96635 0.38003 0.0
C533 C 0.06225 0.98254 0.40093 0.0
C534 C 0.98772 0.01453 0.36191 0.0
C535 C 0.02672 0.9944 0.36913 0.0
C536 C 0.96734 0.01758 0.34712 0.0
C537 C 0.96605 0.0071 0.32362 0.0
C538 C 0.00657 0.0003 0.35329 0.0
C539 C 0.98602 0.99416 0.3154 0.0
C540 C 0.03758 0.97233 0.36399 0.0
C541 C 0.05149 0.00472 0.40516 0.0
N542 N 0.00527 0.99074 0.3303 0.0
N543 N 0.034 0.00987 0.38952 0.0
H544 H 0.3219 0.19024 0.66925 0.0
H545 H 0.31797 0.18947 0.53298 0.0
H546 H 0.29653 0.24924 0.63802 0.0
H547 H 0.33176 0.12691 0.56481 0.0
H548 H 0.31279 0.21299 0.57122 0.0
H549 H 0.32854 0.1682 0.63105 0.0
C550 C 0.31759 0.19853 0.65433 0.0
C551 C 0.30832 0.22152 0.65687 0.0
C552 C 0.31695 0.19412 0.56979 0.0
C553 C 0.31627 0.19642 0.61291 0.0
C554 C 0.31993 0.18068 0.54798 0.0
C555 C 0.32526 0.15615 0.54567 0.0
C556 C 0.31948 0.18298 0.58942 0.0
C557 C 0.32759 0.14572 0.56571 0.0
C558 C 0.32151 0.18596 0.6325 0.0
C559 C 0.30378 0.23161 0.6369 0.0
N560 N 0.32472 0.15919 0.5867 0.0
N561 N 0.30771 0.21896 0.61574 0.0
H562 H 0.52206 0.46258 0.59115 0.0
H563 H 0.45901 0.52847 0.7027 0.0
H564 H 0.54092 0.54003 0.62023 0.0
H565 H 0.45373 0.44925 0.68268 0.0
H566 H 0.48597 0.53343 0.67051 0.0
H567 H 0.49437 0.45763 0.62276 0.0
C568 C 0.52052 0.47855 0.60416 0.0
C569 C 0.53392 0.5018 0.60278 0.0
C570 C 0.47889 0.51496 0.67316 0.0
C571 C 0.50174 0.49628 0.63901 0.0
C572 C 0.4634 0.51211 0.6915 0.0
C573 C 0.45408 0.4884 0.6955 0.0
C574 C 0.48498 0.49396 0.65851 0.0
C575 C 0.46051 0.4679 0.68038 0.0
C576 C 0.50455 0.47572 0.62218 0.0
C577 C 0.53068 0.52183 0.62013 0.0
N578 N 0.47548 0.47116 0.66259 0.0
N579 N 0.51495 0.51861 0.6374 0.0
H580 H 0.73738 0.30417 0.68322 0.0
H581 H 0.8085 0.29828 0.56574 0.0
H582 H 0.80138 0.26384 0.66767 0.0
H583 H 0.74399 0.3386 0.5789 0.0
H584 H 0.80374 0.28338 0.60201 0.0
H585 H 0.73706 0.31461 0.64439 0.0
C586 C 0.75128 0.29737 0.67161 0.0
C587 C 0.76961 0.28326 0.67888 0.0
C588 C 0.79051 0.2954 0.59704 0.0
C589 C 0.76925 0.29512 0.63429 0.0
C590 C 0.79323 0.30403 0.57625 0.0
C591 C 0.77674 0.31997 0.56925 0.0
C592 C 0.77121 0.30278 0.61125 0.0
C593 C 0.75719 0.32644 0.58361 0.0
C594 C 0.75102 0.3033 0.64941 0.0
C595 C 0.78679 0.2746 0.66288 0.0
N596 N 0.75508 0.31796 0.60404 0.0
N597 N 0.78632 0.28085 0.64149 0.0
H598 H 0.54899 0.02595 0.59858 0.0
H599 H 0.57441 0.93049 0.6829 0.0
H600 H 0.53789 0.94683 0.57649 0.0
H601 H 0.60568 0.00773 0.69705 0.0
H602 H 0.55585 0.93649 0.64568 0.0
H603 H 0.56402 0.01997 0.63703 0.0
C604 C 0.54936 0.00732 0.60195 0.0
C605 C 0.54228 0.98685 0.58437 0.0
C606 C 0.56681 0.95209 0.65694 0.0
C607 C 0.55963 0.97987 0.62812 0.0
C608 C 0.57741 0.94869 0.67818 0.0
C609 C 0.59174 0.9686 0.69309 0.0
C610 C 0.57028 0.97564 0.65067 0.0
C611 C 0.59494 0.9918 0.68606 0.0
C612 C 0.55815 0.00392 0.6238 0.0
C613 C 0.5434 0.9631 0.58955 0.0
N614 N 0.58422 0.99469 0.66541 0.0
N615 N 0.55195 0.96025 0.61096 0.0
H616 H 0.85068 0.17423 0.76013 0.0
H617 H 0.9606 0.26091 0.84342 0.0
H618 H 0.84471 0.24927 0.79206 0.0
H619 H 0.96196 0.18237 0.82442 0.0
H620 H 0.91768 0.25624 0.82497 0.0
H621 H 0.89091 0.17605 0.7833 0.0
C622 C 0.85771 0.19104 0.77208 0.0
C623 C 0.84429 0.21172 0.77394 0.0
C624 C 0.92713 0.23991 0.82495 0.0
C625 C 0.89047 0.21392 0.8004 0.0
C626 C 0.95168 0.24257 0.83552 0.0
C627 C 0.96491 0.222 0.83535 0.0
C628 C 0.91564 0.21652 0.81369 0.0
C629 C 0.95236 0.19867 0.825 0.0
C630 C 0.88071 0.19205 0.78528 0.0
C631 C 0.85455 0.23305 0.78958 0.0
N632 N 0.92849 0.19658 0.81426 0.0
N633 N 0.877 0.2336 0.80206 0.0
H634 H 0.53687 0.8963 0.47961 0.0
H635 H 0.61063 0.80279 0.40197 0.0
H636 H 0.61725 0.91114 0.46864 0.0
H637 H 0.53851 0.77957 0.42851 0.0
H638 H 0.61526 0.84087 0.43026 0.0
H639 H 0.53824 0.85236 0.46528 0.0
C640 C 0.55494 0.89027 0.47467 0.0
C641 C 0.57686 0.90752 0.47487 0.0
C642 C 0.59865 0.82729 0.43035 0.0
C643 C 0.57846 0.85735 0.45815 0.0
C644 C 0.59608 0.80552 0.41423 0.0
C645 C 0.57417 0.78818 0.41298 0.0
C646 C 0.57874 0.83213 0.44483 0.0
C647 C 0.55576 0.79254 0.4291 0.0
C648 C 0.55569 0.86517 0.46643 0.0
C649 C 0.59971 0.89861 0.46817 0.0
N650 N 0.55815 0.81442 0.44407 0.0
N651 N 0.5998 0.87425 0.45976 0.0
H652 H 0.23309 0.1974 0.80454 0.0
H653 H 0.09047 0.22899 0.78842 0.0
H654 H 0.20112 0.21409 0.74095 0.0
H655 H 0.11676 0.19691 0.84578 0.0
H656 H 0.13093 0.22385 0.7709 0.0
H657 H 0.19111 0.19805 0.82036 0.0
C658 C 0.21726 0.20112 0.79383 0.0
C659 C 0.22075 0.20564 0.77129 0.0
C660 C 0.12781 0.21769 0.7872 0.0
C661 C 0.17256 0.20666 0.78951 0.0
C662 C 0.10466 0.22057 0.79722 0.0
C663 C 0.10025 0.21345 0.81866 0.0
C664 C 0.14693 0.2079 0.79882 0.0
C665 C 0.11932 0.20258 0.8292 0.0
C666 C 0.19327 0.20151 0.80293 0.0
C667 C 0.19954 0.21084 0.7585 0.0
N668 N 0.14197 0.2004 0.8193 0.0
N669 N 0.1764 0.21123 0.76779 0.0
H670 H 0.53053 0.57959 0.49998 0.0
H671 H 0.58416 0.66427 0.4098 0.0
H672 H 0.60977 0.60949 0.49892 0.0
H673 H 0.50371 0.6486 0.42021 0.0
H674 H 0.59378 0.63802 0.43774 0.0
H675 H 0.52043 0.59816 0.46597 0.0
C676 C 0.54586 0.58956 0.49225 0.0
C677 C 0.57099 0.59309 0.50227 0.0
C678 C 0.57399 0.64018 0.43382 0.0
C679 C 0.55963 0.61456 0.46366 0.0
C680 C 0.56846 0.65517 0.4178 0.0
C681 C 0.54307 0.65889 0.41273 0.0
C682 C 0.55404 0.62865 0.4449 0.0
C683 C 0.52358 0.64645 0.42367 0.0
C684 C 0.54008 0.60035 0.473 0.0
C685 C 0.59012 0.60645 0.49177 0.0
N686 N 0.52947 0.63201 0.4393 0.0
N687 N 0.58404 0.61678 0.47317 0.0
H688 H 0.8904 0.7679 0.78633 0.0
H689 H 0.94218 0.84308 0.69294 0.0
H690 H 0.90111 0.84788 0.80107 0.0
H691 H 0.97567 0.7785 0.70483 0.0
H692 H 0.92157 0.84374 0.72957 0.0
H693 H 0.91646 0.76954 0.75328 0.0
C694 C 0.89833 0.78582 0.78291 0.0
C695 C 0.89331 0.8078 0.79678 0.0
C696 C 0.93367 0.82962 0.72423 0.0
C697 C 0.92247 0.80959 0.75825 0.0
C698 C 0.94538 0.82921 0.70339 0.0
C699 C 0.9607 0.81076 0.69594 0.0
C700 C 0.93666 0.811 0.73731 0.0
C701 C 0.96418 0.79316 0.71007 0.0
C702 C 0.91312 0.78667 0.7639 0.0
C703 C 0.90373 0.83039 0.79076 0.0
N704 N 0.95188 0.79344 0.72992 0.0
N705 N 0.91753 0.83069 0.77182 0.0
H706 H 0.10775 0.86411 0.5011 0.0
H707 H 0.00114 0.87033 0.59234 0.0
H708 H 0.05266 0.91605 0.50518 0.0
H709 H 0.0627 0.82582 0.59475 0.0
H710 H 0.02246 0.89042 0.56317 0.0
H711 H 0.09438 0.85283 0.53761 0.0
C712 C 0.09302 0.87334 0.50983 0.0
C713 C 0.0811 0.89086 0.49993 0.0
C714 C 0.03154 0.87653 0.57029 0.0
C715 C 0.06557 0.87793 0.54175 0.0
C716 C 0.01937 0.86503 0.58699 0.0
C717 C 0.03 0.84615 0.59587 0.0
C718 C 0.0544 0.8689 0.56207 0.0
C719 C 0.05376 0.84022 0.58837 0.0
C720 C 0.08544 0.86695 0.53072 0.0
C721 C 0.06239 0.90249 0.51218 0.0
N722 N 0.06495 0.85127 0.57164 0.0
N723 N 0.05496 0.89557 0.53225 0.0
H724 H 0.20871 0.72457 0.66931 0.0
H725 H 0.07572 0.77877 0.68904 0.0
H726 H 0.18707 0.75654 0.73641 0.0
H727 H 0.09793 0.74486 0.62276 0.0
H728 H 0.11543 0.76967 0.70709 0.0
H729 H 0.16734 0.73057 0.65244 0.0
C730 C 0.19522 0.7329 0.68052 0.0
C731 C 0.20151 0.74033 0.70429 0.0
C732 C 0.11156 0.76415 0.68861 0.0
C733 C 0.15383 0.74717 0.68502 0.0
C734 C 0.08889 0.76936 0.67827 0.0
C735 C 0.08348 0.76266 0.65429 0.0
C736 C 0.12901 0.75219 0.6749 0.0
C737 C 0.10127 0.75045 0.64127 0.0
C738 C 0.17152 0.73623 0.67087 0.0
C739 C 0.18302 0.7505 0.71801 0.0
N740 N 0.12321 0.74569 0.65172 0.0
N741 N 0.16008 0.7538 0.70815 0.0
H742 H 0.91581 0.63866 0.4927 0.0
H743 H 0.99481 0.71021 0.60766 0.0
H744 H 0.95456 0.60044 0.53921 0.0
H745 H 0.93569 0.74052 0.57245 0.0
H746 H 0.98254 0.67036 0.58201 0.0
H747 H 0.92505 0.67687 0.5209 0.0
C748 C 0.92621 0.63836 0.50894 0.0
C749 C 0.93453 0.61646 0.51366 0.0
C750 C 0.97217 0.68573 0.58006 0.0
C751 C 0.94536 0.66011 0.54595 0.0
C752 C 0.97921 0.70848 0.59462 0.0
C753 C 0.96631 0.72879 0.59217 0.0
C754 C 0.95237 0.68339 0.56274 0.0
C755 C 0.94619 0.72543 0.57501 0.0
C756 C 0.9314 0.66012 0.52506 0.0
C757 C 0.94774 0.61697 0.53501 0.0
N758 N 0.94 0.70327 0.56086 0.0
N759 N 0.95301 0.63855 0.55032 0.0
H760 H 0.79025 0.81242 0.23606 0.0
H761 H 0.89278 0.92801 0.22264 0.0
H762 H 0.85273 0.80695 0.19128 0.0
H763 H 0.8404 0.92893 0.27698 0.0
H764 H 0.87521 0.88485 0.20781 0.0
H765 H 0.80568 0.85634 0.24862 0.0
C766 C 0.80723 0.82038 0.22889 0.0
C767 C 0.82014 0.80585 0.21254 0.0
C768 C 0.86753 0.89457 0.22293 0.0
C769 C 0.83773 0.85631 0.22663 0.0
C770 C 0.87748 0.91923 0.23134 0.0
C771 C 0.86818 0.93209 0.25116 0.0
C772 C 0.84801 0.88277 0.23432 0.0
C773 C 0.84833 0.91973 0.26175 0.0
C774 C 0.81595 0.84552 0.23598 0.0
C775 C 0.84184 0.81741 0.20362 0.0
N776 N 0.83896 0.89581 0.25323 0.0
N777 N 0.84993 0.84189 0.21078 0.0
H778 H 0.82456 0.18053 0.25369 0.0
H779 H 0.83361 0.0514 0.2961 0.0
H780 H 0.77442 0.14972 0.30052 0.0
H781 H 0.88734 0.07977 0.25065 0.0
H782 H 0.81079 0.08667 0.29552 0.0
H783 H 0.8466 0.14352 0.25007 0.0
C784 C 0.81802 0.16592 0.26305 0.0
C785 C 0.79763 0.16835 0.27755 0.0
C786 C 0.82752 0.08534 0.28559 0.0
C787 C 0.82291 0.12605 0.27357 0.0
C788 C 0.84069 0.06508 0.28591 0.0
C789 C 0.8627 0.06259 0.27356 0.0
C790 C 0.83624 0.10365 0.27289 0.0
C791 C 0.87053 0.08093 0.26048 0.0
C792 C 0.83072 0.14487 0.26106 0.0
C793 C 0.79024 0.14892 0.28943 0.0
N794 N 0.8574 0.10081 0.2606 0.0
N795 N 0.80286 0.12873 0.2872 0.0
H796 H 0.37977 0.0275 0.01105 0.0
H797 H 0.35867 0.87967 0.98896 0.0
H798 H 0.42804 0.98264 0.96985 0.0
H799 H 0.3 0.92365 0.01358 0.0
H800 H 0.38625 0.91742 0.98545 0.0
H801 H 0.35231 0.98986 0.01575 0.0
C802 C 0.38469 0.00971 0.00313 0.0
C803 C 0.40626 0.00818 0.99007 0.0
C804 C 0.36735 0.91883 0.99162 0.0
C805 C 0.37488 0.96508 0.99532 0.0
C806 C 0.35158 0.89727 0.99372 0.0
C807 C 0.32691 0.89844 0.00157 0.0
C808 C 0.35857 0.94186 0.99761 0.0
C809 C 0.31883 0.92184 0.0074 0.0
C810 C 0.36891 0.98826 0.00569 0.0
C811 C 0.41151 0.98467 0.97992 0.0
N812 N 0.33464 0.94263 0.00536 0.0
N813 N 0.396 0.96405 0.98283 0.0
H814 H 0.31463 0.44174 0.34143 0.0
H815 H 0.17197 0.40458 0.28355 0.0
H816 H 0.27739 0.36648 0.32539 0.0
H817 H 0.21293 0.47836 0.2923 0.0
H818 H 0.2107 0.38998 0.29771 0.0
H819 H 0.27793 0.45527 0.32251 0.0
C820 C 0.29875 0.42805 0.33386 0.0
C821 C 0.29903 0.40295 0.33511 0.0
C822 C 0.21126 0.40933 0.29638 0.0
C823 C 0.25686 0.41832 0.3134 0.0
C824 C 0.18913 0.4177 0.28831 0.0
C825 C 0.1891 0.44279 0.28684 0.0
C826 C 0.23352 0.42618 0.3032 0.0
C827 C 0.21197 0.45888 0.2932 0.0
C828 C 0.27783 0.43577 0.32297 0.0
C829 C 0.27807 0.38599 0.3247 0.0
N830 N 0.23316 0.45034 0.30123 0.0
N831 N 0.25776 0.394 0.31446 0.0
H832 H 0.13225 0.03654 0.4552 0.0
H833 H 0.2786 0.04162 0.42763 0.0
H834 H 0.16896 0.97117 0.4364 0.0
H835 H 0.25161 0.10092 0.47356 0.0
H836 H 0.23699 0.01677 0.42735 0.0
H837 H 0.17448 0.0618 0.4593 0.0
C838 C 0.14922 0.02753 0.45215 0.0
C839 C 0.14716 0.00174 0.44555 0.0
C840 C 0.24019 0.03519 0.43756 0.0
C841 C 0.19522 0.03042 0.44977 0.0
C842 C 0.26389 0.04945 0.43762 0.0
C843 C 0.26859 0.07341 0.45061 0.0
C844 C 0.2208 0.04505 0.45025 0.0
C845 C 0.24882 0.08251 0.46335 0.0
C846 C 0.17324 0.0419 0.45453 0.0
C847 C 0.16971 0.99095 0.44178 0.0
N848 N 0.22567 0.06839 0.4627 0.0
N849 N 0.19274 0.00535 0.4437 0.0
H850 H 0.72586 0.18773 0.74875 0.0
H851 H 0.70411 0.04363 0.75467 0.0
H852 H 0.7847 0.13998 0.73699 0.0
H853 H 0.64163 0.08668 0.74975 0.0
H854 H 0.7341 0.07941 0.74998 0.0
H855 H 0.69472 0.15149 0.74995 0.0
C856 C 0.7322 0.16963 0.74607 0.0
C857 C 0.75806 0.16699 0.74288 0.0
C858 C 0.71383 0.08104 0.74987 0.0
C859 C 0.72252 0.12546 0.74481 0.0
C860 C 0.69667 0.06063 0.75267 0.0
C861 C 0.67028 0.06215 0.75266 0.0
C862 C 0.70462 0.10327 0.74723 0.0
C863 C 0.66181 0.08467 0.74987 0.0
C864 C 0.71441 0.14895 0.74694 0.0
C865 C 0.76512 0.14302 0.73992 0.0
N866 N 0.67893 0.10438 0.74737 0.0
N867 N 0.74753 0.12326 0.74113 0.0
H868 H 0.46775 0.01833 0.55142 0.0
H869 H 0.42276 0.08583 0.45162 0.0
H870 H 0.51889 0.04294 0.50218 0.0
H871 H 0.3859 0.09253 0.5159 0.0
H872 H 0.457 0.06774 0.46929 0.0
H873 H 0.43649 0.04367 0.53881 0.0
C874 C 0.47259 0.02927 0.53821 0.0
C875 C 0.49586 0.02808 0.52756 0.0
C876 C 0.44158 0.07338 0.47964 0.0
C877 C 0.46 0.05667 0.51282 0.0
C878 C 0.42197 0.08361 0.46953 0.0
C879 C 0.40145 0.09062 0.4823 0.0
C880 C 0.44044 0.06956 0.50258 0.0
C881 C 0.40146 0.08743 0.50549 0.0
C882 C 0.4547 0.04365 0.53098 0.0
C883 C 0.50094 0.04261 0.51042 0.0
N884 N 0.4205 0.07678 0.51484 0.0
N885 N 0.48305 0.05598 0.50339 0.0
H886 H 0.57441 0.43966 0.55163 0.0
H887 H 0.71594 0.41919 0.51447 0.0
H888 H 0.63405 0.49927 0.54734 0.0
H889 H 0.66216 0.36122 0.53246 0.0
H890 H 0.68447 0.44801 0.52254 0.0
H891 H 0.6047 0.41007 0.54119 0.0
C892 C 0.59382 0.44661 0.54852 0.0
C893 C 0.60151 0.47217 0.5504 0.0
C894 C 0.6795 0.42897 0.52467 0.0
C895 C 0.63632 0.43816 0.53807 0.0
C896 C 0.69746 0.41244 0.51998 0.0
C897 C 0.69179 0.38768 0.52284 0.0
C898 C 0.65552 0.42075 0.53215 0.0
C899 C 0.66747 0.38012 0.53008 0.0
C900 C 0.6111 0.42964 0.54245 0.0
C901 C 0.62692 0.47984 0.54575 0.0
N902 N 0.65028 0.39656 0.53448 0.0
N903 N 0.64331 0.46297 0.53984 0.0
H904 H 0.72993 0.25221 0.32318 0.0
H905 H 0.7894 0.27372 0.45332 0.0
H906 H 0.79933 0.22607 0.34551 0.0
H907 H 0.74038 0.32374 0.43133 0.0
H908 H 0.78522 0.25002 0.4145 0.0
H909 H 0.72713 0.27379 0.36287 0.0
C910 C 0.74454 0.25089 0.33629 0.0
C911 C 0.76478 0.23692 0.3308 0.0
C912 C 0.77521 0.26608 0.41807 0.0
C913 C 0.76125 0.26117 0.37629 0.0
C914 C 0.7775 0.27963 0.44032 0.0
C915 C 0.76553 0.30102 0.44557 0.0
C916 C 0.76086 0.27382 0.40061 0.0
C917 C 0.75 0.30742 0.42801 0.0
C918 C 0.74281 0.26314 0.35895 0.0
C919 C 0.78293 0.23584 0.34873 0.0
N920 N 0.7483 0.294 0.40615 0.0
N921 N 0.78065 0.24766 0.37051 0.0
H922 H 0.48172 0.00663 0.89431 0.0
H923 H 0.59667 0.03196 0.81314 0.0
H924 H 0.51119 0.07902 0.88149 0.0
H925 H 0.55832 0.95905 0.81599 0.0
H926 H 0.56921 0.04946 0.8422 0.0
H927 H 0.51349 0.98884 0.86973 0.0
C928 C 0.49503 0.01878 0.8865 0.0
C929 C 0.49365 0.04429 0.88973 0.0
C930 C 0.56689 0.02962 0.83654 0.0
C931 C 0.52994 0.02414 0.8616 0.0
C932 C 0.58261 0.0196 0.81998 0.0
C933 C 0.57969 0.994 0.81196 0.0
C934 C 0.54816 0.01394 0.84524 0.0
C935 C 0.56115 0.97891 0.82152 0.0
C936 C 0.51306 0.00863 0.87239 0.0
C937 C 0.5113 0.0592 0.87912 0.0
N938 N 0.54604 0.98911 0.83758 0.0
N939 N 0.52863 0.04891 0.8655 0.0
H940 H 0.40024 0.26507 0.35114 0.0
H941 H 0.32694 0.19875 0.44388 0.0
H942 H 0.32842 0.28591 0.37531 0.0
H943 H 0.37207 0.16068 0.39365 0.0
H944 H 0.33249 0.23484 0.42429 0.0
H945 H 0.39518 0.2303 0.3719 0.0
C946 C 0.38331 0.26236 0.36063 0.0
C947 C 0.36462 0.27853 0.36117 0.0
C948 C 0.34116 0.21854 0.41765 0.0
C949 C 0.35926 0.23902 0.38569 0.0
C950 C 0.33811 0.19804 0.42884 0.0
C951 C 0.34897 0.17666 0.42031 0.0
C952 C 0.35564 0.21781 0.39815 0.0
C953 C 0.3632 0.1767 0.40071 0.0
C954 C 0.38058 0.24255 0.37263 0.0
C955 C 0.34355 0.27428 0.37453 0.0
N956 N 0.36625 0.19699 0.39039 0.0
N957 N 0.34149 0.255 0.3863 0.0
H958 H 0.55851 0.4378 0.86803 0.0
H959 H 0.45482 0.52466 0.84767 0.0
H960 H 0.55727 0.50788 0.91247 0.0
H961 H 0.48091 0.47615 0.79093 0.0
H962 H 0.49093 0.51789 0.8724 0.0
H963 H 0.52831 0.44981 0.84027 0.0
C964 C 0.55183 0.4557 0.87191 0.0
C965 C 0.5602 0.47183 0.89261 0.0
C966 C 0.48902 0.50903 0.85445 0.0
C967 C 0.52572 0.48563 0.86106 0.0
C968 C 0.46844 0.5129 0.84034 0.0
C969 C 0.46493 0.50095 0.81725 0.0
C970 C 0.50583 0.49255 0.8456 0.0
C971 C 0.48307 0.48583 0.80861 0.0
C972 C 0.53482 0.46263 0.85601 0.0
C973 C 0.55125 0.49494 0.8967 0.0
N974 N 0.50252 0.48169 0.82292 0.0
N975 N 0.53424 0.50104 0.88121 0.0
H976 H 0.77476 0.70561 0.14633 0.0
H977 H 0.86813 0.69693 0.04243 0.0
H978 H 0.84665 0.75262 0.14781 0.0
H979 H 0.79588 0.65033 0.04053 0.0
H980 H 0.85984 0.71854 0.08049 0.0
H981 H 0.78153 0.68592 0.10711 0.0
C982 C 0.79198 0.71177 0.13842 0.0
C983 C 0.81018 0.73077 0.15041 0.0
C984 C 0.84575 0.70365 0.07172 0.0
C985 C 0.81799 0.70841 0.10544 0.0
C986 C 0.85048 0.69129 0.04997 0.0
C987 C 0.83273 0.67171 0.03829 0.0
C988 C 0.82314 0.69636 0.08193 0.0
C989 C 0.81015 0.66527 0.04891 0.0
C990 C 0.79578 0.70061 0.11598 0.0
C991 C 0.83196 0.73824 0.13915 0.0
N992 N 0.80605 0.6775 0.07015 0.0
N993 N 0.8353 0.72699 0.11735 0.0
H994 H 0.00049 0.01896 0.08255 0.0
H995 H 0.9815 0.00125 0.21343 0.0
H996 H 0.05685 0.99226 0.12414 0.0
H997 H 0.9204 0.01368 0.16716 0.0
H998 H 0.01008 -0.00014 0.1817 0.0
H999 H 0.97155 0.01883 0.11389 0.0
C1000 C 0.00676 0.013 0.09826 0.0
C1001 C 0.03118 0.0056 0.10066 0.0
C1002 C 0.99041 0.00286 0.17848 0.0
C1003 C 0.99809 0.00554 0.13682 0.0
C1004 C 0.97408 0.00376 0.19664 0.0
C1005 C 0.94843 0.00762 0.19304 0.0
C1006 C 0.98118 0.00604 0.15653 0.0
C1007 C 0.93996 0.01065 0.17081 0.0
C1008 C 0.99019 0.01286 0.11615 0.0
C1009 C 0.03814 0.99786 0.12139 0.0
N1010 N 0.95627 0.00988 0.15348 0.0
N1011 N 0.02178 -0.0018 0.13869 0.0
H1012 H 0.24738 0.80615 0.18746 0.0
H1013 H 0.29741 0.7832 0.06048 0.0
H1014 H 0.30373 0.75797 0.16632 0.0
H1015 H 0.24244 0.83332 0.0804 0.0
H1016 H 0.29632 0.77083 0.09817 0.0
H1017 H 0.24183 0.8133 0.14772 0.0
C1018 C 0.25849 0.79693 0.17445 0.0
C1019 C 0.27629 0.78161 0.18038 0.0
C1020 C 0.28435 0.78443 0.09436 0.0
C1021 C 0.26988 0.78968 0.13473 0.0
C1022 C 0.28497 0.79158 0.07276 0.0
C1023 C 0.27017 0.80957 0.06725 0.0
C1024 C 0.26894 0.79539 0.11086 0.0
C1025 C 0.25423 0.81947 0.08389 0.0
C1026 C 0.25523 0.80098 0.15173 0.0
C1027 C 0.2897 0.76981 0.16264 0.0
N1028 N 0.25421 0.81241 0.10503 0.0
N1029 N 0.28639 0.77427 0.14073 0.0
H1030 H 0.03524 0.44372 0.08793 0.0
H1031 H 0.10858 0.51345 0.20645 0.0
H1032 H 0.0476 0.52316 0.10706 0.0
H1033 H 0.07722 0.43627 0.19551 0.0
H1034 H 0.08843 0.51694 0.16915 0.0
H1035 H 0.05178 0.44019 0.12663 0.0
C1036 C 0.04119 0.4604 0.10041 0.0
C1037 C 0.04009 0.48376 0.09434 0.0
C1038 C 0.08591 0.49926 0.17493 0.0
C1039 C 0.05939 0.4799 0.13846 0.0
C1040 C 0.09757 0.49719 0.19617 0.0
C1041 C 0.09466 0.47449 0.20412 0.0
C1042 C 0.07144 0.47844 0.16138 0.0
C1043 C 0.08 0.45412 0.19008 0.0
C1044 C 0.05062 0.45839 0.12246 0.0
C1045 C 0.04795 0.5048 0.11112 0.0
N1046 N 0.06904 0.45655 0.16934 0.0
N1047 N 0.05754 0.50238 0.13235 0.0
H1048 H 0.36007 0.67454 0.26366 0.0
H1049 H 0.47282 0.76046 0.34443 0.0
H1050 H 0.35675 0.75045 0.29453 0.0
H1051 H 0.47386 0.68202 0.32418 0.0
H1052 H 0.42937 0.75605 0.32726 0.0
H1053 H 0.40072 0.6758 0.28611 0.0
C1054 C 0.36777 0.69143 0.27524 0.0
C1055 C 0.35501 0.71253 0.27698 0.0
C1056 C 0.43884 0.73967 0.32668 0.0
C1057 C 0.4016 0.71407 0.30263 0.0
C1058 C 0.46371 0.74218 0.33654 0.0
C1059 C 0.47699 0.72159 0.33562 0.0
C1060 C 0.42709 0.7164 0.31537 0.0
C1061 C 0.4642 0.69834 0.32531 0.0
C1062 C 0.391 0.69211 0.28802 0.0
C1063 C 0.36607 0.7339 0.29215 0.0
N1064 N 0.44 0.6964 0.31526 0.0
N1065 N 0.38868 0.73412 0.30425 0.0
H1066 H 0.11401 0.4038 0.97996 0.0
H1067 H 0.02621 0.27541 0.93294 0.0
H1068 H 0.03259 0.39213 0.98745 0.0
H1069 H 0.09816 0.29961 0.9066 0.0
H1070 H 0.03272 0.31251 0.96327 0.0
H1071 H 0.1125 0.36001 0.96371 0.0
C1072 C 0.09586 0.39195 0.97846 0.0
C1073 C 0.07329 0.40176 0.98454 0.0
C1074 C 0.04734 0.3093 0.95118 0.0
C1075 C 0.07147 0.3516 0.96608 0.0
C1076 C 0.04374 0.28812 0.93406 0.0
C1077 C 0.06164 0.28472 0.9173 0.0
C1078 C 0.06916 0.32678 0.95156 0.0
C1079 C 0.08387 0.30177 0.91918 0.0
C1080 C 0.09504 0.36696 0.96927 0.0
C1081 C 0.05043 0.38539 0.98284 0.0
N1082 N 0.08692 0.32215 0.93588 0.0
N1083 N 0.05001 0.36114 0.97339 0.0
H1084 H 0.7456 0.69971 0.30017 0.0
H1085 H 0.60048 0.72521 0.28493 0.0
H1086 H 0.71125 0.71537 0.2371 0.0
H1087 H 0.63049 0.69877 0.34433 0.0
H1088 H 0.64067 0.72052 0.26688 0.0
H1089 H 0.70381 0.69884 0.31662 0.0
C1090 C 0.72928 0.70288 0.28972 0.0
C1091 C 0.73206 0.70767 0.26717 0.0
C1092 C 0.63846 0.71548 0.28375 0.0
C1093 C 0.6841 0.70686 0.28605 0.0
C1094 C 0.61545 0.71809 0.29407 0.0
C1095 C 0.61215 0.71249 0.31624 0.0
C1096 C 0.65858 0.70747 0.29576 0.0
C1097 C 0.63218 0.70324 0.32719 0.0
C1098 C 0.70542 0.7024 0.29916 0.0
C1099 C 0.71023 0.71202 0.25466 0.0
N1100 N 0.65469 0.7013 0.31695 0.0
N1101 N 0.68725 0.71154 0.26427 0.0
H1102 H 0.1056 0.09935 0.9883 0.0
H1103 H 0.99395 0.15958 0.93184 0.0
H1104 H 0.02774 0.0888 0.00771 0.0
H1105 H 0.06794 0.15585 0.9039 0.0
H1106 H 0.00493 0.13228 0.95855 0.0
H1107 H 0.09138 0.11824 0.95604 0.0
C1108 C 0.0854 0.10067 0.98547 0.0
C1109 C 0.0678 0.09253 0.00065 0.0
C1110 C 0.01864 0.13722 0.9464 0.0
C1111 C 0.05137 0.11469 0.96402 0.0
C1112 C 0.01241 0.15286 0.93115 0.0
C1113 C 0.03011 0.16024 0.91566 0.0
C1114 C 0.04287 0.12906 0.94638 0.0
C1115 C 0.0537 0.15081 0.91555 0.0
C1116 C 0.07727 0.1115 0.96709 0.0
C1117 C 0.04186 0.09472 0.99629 0.0
N1118 N 0.05946 0.13597 0.9308 0.0
N1119 N 0.03445 0.10593 0.97856 0.0
H1120 H 0.42572 0.34366 0.30537 0.0
H1121 H 0.41532 0.28996 0.17162 0.0
H1122 H 0.36715 0.28469 0.27438 0.0
H1123 H 0.48948 0.3116 0.20839 0.0
H1124 H 0.39521 0.29522 0.20833 0.0
H1125 H 0.44753 0.33905 0.26904 0.0
C1126 C 0.41748 0.32983 0.29084 0.0
C1127 C 0.39469 0.31452 0.29268 0.0
C1128 C 0.41588 0.29886 0.20835 0.0
C1129 C 0.4191 0.30944 0.25137 0.0
C1130 C 0.4274 0.29604 0.18742 0.0
C1131 C 0.45417 0.30037 0.18694 0.0
C1132 C 0.43111 0.30658 0.22901 0.0
C1133 C 0.46881 0.30801 0.20801 0.0
C1134 C 0.42994 0.32713 0.27028 0.0
C1135 C 0.38473 0.29678 0.27355 0.0
N1136 N 0.45706 0.31108 0.22826 0.0
N1137 N 0.39687 0.29488 0.25357 0.0
H1138 H 0.54423 0.40319 0.99562 0.0
H1139 H 0.56067 0.31576 0.08978 0.0
H1140 H 0.59966 0.35164 0.99278 0.0
H1141 H 0.49269 0.34991 0.07918 0.0
H1142 H 0.58076 0.33656 0.06018 0.0
H1143 H 0.53095 0.39157 0.03216 0.0
C1144 C 0.55394 0.38979 0.00292 0.0
C1145 C 0.57289 0.37818 0.99105 0.0
C1146 C 0.56157 0.33973 0.06458 0.0
C1147 C 0.55774 0.36471 0.03273 0.0
C1148 C 0.55015 0.32799 0.08157 0.0
C1149 C 0.52485 0.33089 0.0868 0.0
C1150 C 0.5477 0.35468 0.05294 0.0
C1151 C 0.51212 0.34691 0.07553 0.0
C1152 C 0.54624 0.38304 0.02368 0.0
C1153 C 0.58471 0.36078 0.00122 0.0
N1154 N 0.5236 0.35807 0.05906 0.0
N1155 N 0.57685 0.35447 0.02138 0.0
H1156 H 0.71698 0.23708 0.17109 0.0
H1157 H 0.57658 0.27579 0.18852 0.0
H1158 H 0.69016 0.26116 0.23822 0.0
H1159 H 0.6037 0.24709 0.12261 0.0
H1160 H 0.61743 0.2703 0.20738 0.0
H1161 H 0.67508 0.24021 0.15342 0.0
C1162 C 0.70224 0.24309 0.18214 0.0
C1163 C 0.70721 0.24912 0.20618 0.0
C1164 C 0.61438 0.26515 0.1888 0.0
C1165 C 0.65886 0.25265 0.18597 0.0
C1166 C 0.59107 0.26831 0.17801 0.0
C1167 C 0.58667 0.26196 0.1539 0.0
C1168 C 0.63347 0.25563 0.1754 0.0
C1169 C 0.60617 0.25231 0.1412 0.0
C1170 C 0.67824 0.24477 0.17202 0.0
C1171 C 0.68716 0.25628 0.21963 0.0
N1172 N 0.62866 0.24952 0.15208 0.0
N1173 N 0.66391 0.25802 0.20933 0.0
H1174 H 0.49162 0.09973 0.01521 0.0
H1175 H 0.43265 0.20873 0.08965 0.0
H1176 H 0.41286 0.09288 0.03284 0.0
H1177 H 0.5137 0.2037 0.09485 0.0
H1178 H 0.42516 0.16653 0.06821 0.0
H1179 H 0.50062 0.13787 0.04379 0.0
C1180 C 0.47632 0.10614 0.02533 0.0
C1181 C 0.45144 0.09326 0.02164 0.0
C1182 C 0.44456 0.17452 0.07424 0.0
C1183 C 0.46148 0.1369 0.05402 0.0
C1184 C 0.44888 0.19866 0.08638 0.0
C1185 C 0.47386 0.20978 0.09389 0.0
C1186 C 0.46542 0.1615 0.06912 0.0
C1187 C 0.49414 0.1958 0.08935 0.0
C1188 C 0.48148 0.12781 0.04165 0.0
C1189 C 0.43232 0.10222 0.03524 0.0
N1190 N 0.48952 0.17246 0.07693 0.0
N1191 N 0.43765 0.1237 0.0506 0.0
H1192 H 0.3251 0.29617 0.75186 0.0
H1193 H 0.36925 0.42649 0.71554 0.0
H1194 H 0.30683 0.30981 0.68316 0.0
H1195 H 0.3562 0.41699 0.7856 0.0
H1196 H 0.3511 0.38296 0.70227 0.0
H1197 H 0.34113 0.33978 0.76365 0.0
C1198 C 0.32409 0.30828 0.73926 0.0
C1199 C 0.31429 0.29906 0.71645 0.0
C1200 C 0.35217 0.39057 0.72052 0.0
C1201 C 0.33359 0.34926 0.72984 0.0
C1202 C 0.36257 0.41533 0.72809 0.0
C1203 C 0.36423 0.42546 0.75171 0.0
C1204 C 0.34385 0.37582 0.73674 0.0
C1205 C 0.35525 0.41011 0.76722 0.0
C1206 C 0.3335 0.33324 0.74601 0.0
C1207 C 0.31444 0.31585 0.70085 0.0
N1208 N 0.34566 0.38612 0.75949 0.0
N1209 N 0.32405 0.34009 0.70779 0.0
H1210 H 0.27079 0.64623 0.80638 0.0
H1211 H 0.38072 0.57244 0.74883 0.0
H1212 H 0.31959 0.67419 0.75708 0.0
H1213 H 0.33295 0.54908 0.80093 0.0
H1214 H 0.35824 0.60916 0.7501 0.0
H1215 H 0.29338 0.61006 0.80357 0.0
C1216 C 0.28639 0.64489 0.79508 0.0
C1217 C 0.29325 0.66343 0.78202 0.0
C1218 C 0.35273 0.59591 0.76119 0.0
C1219 C 0.31918 0.62157 0.77839 0.0
C1220 C 0.3655 0.57492 0.76041 0.0
C1221 C 0.35885 0.55761 0.77484 0.0
C1222 C 0.33315 0.5995 0.77643 0.0
C1223 C 0.33896 0.56186 0.78955 0.0
C1224 C 0.29922 0.62408 0.79334 0.0
C1225 C 0.31338 0.66027 0.7673 0.0
N1226 N 0.32694 0.58226 0.78995 0.0
N1227 N 0.32564 0.63979 0.7659 0.0
H1228 H 0.8711 0.54397 0.5067 0.0
H1229 H 0.8673 0.39773 0.49734 0.0
H1230 H 0.92702 0.50264 0.47254 0.0
H1231 H 0.80121 0.43523 0.51236 0.0
H1232 H 0.89151 0.43691 0.49285 0.0
H1233 H 0.84742 0.50519 0.51356 0.0
C1234 C 0.87852 0.52674 0.50084 0.0
C1235 C 0.9011 0.52651 0.48906 0.0
C1236 C 0.87172 0.4366 0.49715 0.0
C1237 C 0.87404 0.48212 0.49677 0.0
C1238 C 0.85787 0.41423 0.49982 0.0
C1239 C 0.8321 0.41313 0.5052 0.0
C1240 C 0.85989 0.4582 0.50009 0.0
C1241 C 0.82098 0.43518 0.50814 0.0
C1242 C 0.86489 0.50463 0.50461 0.0
C1243 C 0.90963 0.50363 0.48155 0.0
N1244 N 0.83496 0.45683 0.50558 0.0
N1245 N 0.89614 0.48238 0.48559 0.0
H1246 H 0.76593 0.84871 0.81388 0.0
H1247 H 0.70878 0.96763 0.78204 0.0
H1248 H 0.79967 0.92392 0.83931 0.0
H1249 H 0.66686 0.89408 0.76884 0.0
H1250 H 0.74558 0.951 0.79731 0.0
H1251 H 0.73297 0.86421 0.79151 0.0
C1252 C 0.76661 0.86846 0.81448 0.0
C1253 C 0.78541 0.88507 0.82862 0.0
C1254 C 0.72839 0.93847 0.79092 0.0
C1255 C 0.74776 0.90292 0.80323 0.0
C1256 C 0.70736 0.94794 0.78213 0.0
C1257 C 0.68455 0.93228 0.77434 0.0
C1258 C 0.7267 0.91312 0.79188 0.0
C1259 C 0.68396 0.9069 0.77483 0.0
C1260 C 0.74771 0.8773 0.80185 0.0
C1261 C 0.78528 0.91049 0.8289 0.0
N1262 N 0.70466 0.89814 0.78358 0.0
N1263 N 0.7667 0.91863 0.8165 0.0
H1264 H 0.66517 0.45676 0.93136 0.0
H1265 H 0.74724 0.58942 0.97205 0.0
H1266 H 0.62963 0.52314 0.94835 0.0
H1267 H 0.77565 0.52859 0.92936 0.0
H1268 H 0.70517 0.56429 0.96985 0.0
H1269 H 0.70723 0.48177 0.93756 0.0
C1270 C 0.66625 0.47658 0.93676 0.0
C1271 C 0.6439 0.48791 0.93938 0.0
C1272 C 0.72068 0.55651 0.96101 0.0
C1273 C 0.69195 0.51665 0.94629 0.0
C1274 C 0.74467 0.57078 0.9623 0.0
C1275 C 0.76495 0.56112 0.95077 0.0
C1276 C 0.71713 0.5323 0.94848 0.0
C1277 C 0.76053 0.53686 0.93837 0.0
C1278 C 0.69023 0.49085 0.94008 0.0
C1279 C 0.64641 0.51372 0.94603 0.0
N1280 N 0.73716 0.52327 0.93764 0.0
N1281 N 0.67004 0.52726 0.94929 0.0
H1282 H 0.23601 0.69274 0.25348 0.0
H1283 H 0.20814 0.55009 0.26366 0.0
H1284 H 0.29231 0.64211 0.24262 0.0
H1285 H 0.14774 0.59504 0.25644 0.0
H1286 H 0.23947 0.58446 0.25803 0.0
H1287 H 0.20345 0.6579 0.25568 0.0
C1288 C 0.2415 0.67429 0.25121 0.0
C1289 C 0.26706 0.67044 0.24796 0.0
C1290 C 0.21937 0.58681 0.25761 0.0
C1291 C 0.22991 0.63053 0.25105 0.0
C1292 C 0.20144 0.56722 0.26096 0.0
C1293 C 0.17524 0.56968 0.26058 0.0
C1294 C 0.21114 0.6092 0.25408 0.0
C1295 C 0.16774 0.59232 0.25687 0.0
C1296 C 0.2229 0.65442 0.25265 0.0
C1297 C 0.273 0.64609 0.24557 0.0
N1298 N 0.18562 0.61125 0.25387 0.0
N1299 N 0.25464 0.62714 0.24734 0.0
H1300 H 0.01758 0.53743 0.0107 0.0
H1301 H 0.88008 0.58355 0.02101 0.0
H1302 H 0.96487 0.51318 0.0589 0.0
H1303 H 0.91967 0.57522 0.95818 0.0
H1304 H 0.91474 0.56657 0.04011 0.0
H1305 H 0.98559 0.56072 0.99665 0.0
C1306 C 0.99929 0.53701 0.01839 0.0
C1307 C 0.99372 0.52277 0.03565 0.0
C1308 C 0.91582 0.56867 0.0222 0.0
C1309 C 0.95715 0.54995 0.01988 0.0
C1310 C 0.89618 0.57843 0.01134 0.0
C1311 C 0.89696 0.58063 0.98794 0.0
C1312 C 0.93656 0.56163 0.00967 0.0
C1313 C 0.91818 0.57364 0.97617 0.0
C1314 C 0.98109 0.55042 0.01041 0.0
C1315 C 0.96998 0.52378 0.04551 0.0
N1316 N 0.93713 0.56452 0.98717 0.0
N1317 N 0.95244 0.53698 0.03736 0.0
H1318 H 0.13494 -0.00152 0.05217 0.0
H1319 H 0.15457 0.8552 0.03209 0.0
H1320 H 0.07323 0.93999 0.05388 0.0
H1321 H 0.21183 0.91369 0.02029 0.0
H1322 H 0.12492 0.8857 0.04156 0.0
H1323 H 0.16358 0.96757 0.04203 0.0
C1324 C 0.12725 0.97913 0.05021 0.0
C1325 C 0.10137 0.97197 0.05366 0.0
C1326 C 0.14394 0.89184 0.03684 0.0
C1327 C 0.13459 0.93619 0.04241 0.0
C1328 C 0.16093 0.87442 0.03143 0.0
C1329 C 0.18582 0.88182 0.02536 0.0
C1330 C 0.15189 0.91693 0.03636 0.0
C1331 C 0.19288 0.90704 0.02482 0.0
C1332 C 0.14377 0.96143 0.04454 0.0
C1333 C 0.09298 0.9465 0.05154 0.0
N1334 N 0.17608 0.92362 0.03031 0.0
N1335 N 0.1095 0.92957 0.04604 0.0
loop_
_geom_bond_atom_site_label_1
_geom_bond_atom_site_label_2
_geom_bond_distance
_geom_bond_site_symmetry_2
_ccdc_geom_bond_type
H0 C1 0.949 . S
C1 H0 0.949 . S
C1 C2 1.395 . S
C1 C3 1.391 . S
C2 C1 1.395 . S
C2 C5 1.390 . S
C3 C1 1.391 . S
C3 C7 1.387 . S
C3 C8 1.491 . S
H4 C5 0.950 1_565 S
C5 C2 1.390 . S
C5 H4 0.950 1_545 S
C5 C6 1.378 . S
C6 C5 1.378 . S
C6 C7 1.409 . S
C7 C3 1.387 . S
C7 C6 1.409 . S
C7 H9 0.951 . S
C8 C3 1.491 . S
C8 C10 1.382 . S
C8 C12 1.404 . S
H9 C7 0.951 . S
C10 C8 1.382 . S
C10 C11 1.385 1_554 S
C10 H15 0.949 . S
C11 C10 1.385 1_556 S
C11 C16 1.396 1_556 S
C12 C8 1.404 . S
C12 H13 0.950 . S
C12 C14 1.375 . S
H13 C12 0.950 . S
C14 C12 1.375 . S
C14 C16 1.382 . S
C14 H18 0.950 . S
H15 C10 0.949 . S
C16 C11 1.396 1_554 S
C16 C14 1.382 . S
C16 H17 0.952 . S
H17 C16 0.952 . S
H18 C14 0.950 . S
H19 C20 0.949 . S
C20 H19 0.949 . S
C20 C21 1.395 . S
C20 C22 1.391 . S
C21 C20 1.395 . S
C21 C24 1.390 . S
C22 C20 1.391 . S
C22 C26 1.387 . S
C22 C27 1.491 . S
H23 C24 0.950 . S
C24 C21 1.390 . S
C24 H23 0.950 . S
C24 C25 1.378 . S
C25 C24 1.378 . S
C25 C26 1.409 . S
C26 C22 1.387 . S
C26 C25 1.409 . S
C26 H28 0.951 . S
C27 C22 1.491 . S
C27 C29 1.382 . S
C27 C31 1.404 . S
H28 C26 0.951 . S
C29 C27 1.382 . S
C29 C30 1.390 . S
C29 H34 0.949 . S
C30 C29 1.390 . S
C30 C35 1.399 . S
C31 C27 1.404 . S
C31 H32 0.950 . S
C31 C33 1.375 . S
H32 C31 0.950 . S
C33 C31 1.375 . S
C33 C35 1.382 . S
C33 H37 0.950 . S
H34 C29 0.949 . S
C35 C30 1.399 . S
C35 C33 1.382 . S
C35 H36 0.952 . S
H36 C35 0.952 . S
H37 C33 0.950 . S
H38 C39 0.949 1_455 S
C39 H38 0.949 1_655 S
C39 C40 1.395 . S
C39 C41 1.391 . S
C40 C39 1.395 . S
C40 C43 1.390 . S
C41 C39 1.391 . S
C41 C45 1.387 . S
C41 C46 1.491 . S
H42 C43 0.950 . S
C43 C40 1.390 . S
C43 H42 0.950 . S
C43 C44 1.378 . S
C44 C43 1.378 . S
C44 C45 1.409 . S
C45 C41 1.387 . S
C45 C44 1.409 . S
C45 H47 0.951 . S
C46 C41 1.491 . S
C46 C48 1.382 . S
C46 C50 1.404 1_554 S
H47 C45 0.951 . S
C48 C46 1.382 . S
C48 C49 1.390 1_554 S
C48 H53 0.949 . S
C49 C48 1.390 1_556 S
C49 C54 1.399 . S
C50 C46 1.404 1_556 S
C50 H51 0.950 . S
C50 C52 1.375 . S
H51 C50 0.950 . S
C52 C50 1.375 . S
C52 C54 1.382 . S
C52 H56 0.950 . S
H53 C48 0.949 . S
C54 C49 1.399 . S
C54 C52 1.382 . S
C54 H55 0.952 . S
H55 C54 0.952 . S
H56 C52 0.950 . S
H57 C58 0.949 . S
C58 H57 0.949 . S
C58 C59 1.395 . S
C58 C60 1.391 . S
C59 C58 1.395 . S
C59 C62 1.390 . S
C60 C58 1.391 . S
C60 C64 1.387 . S
C60 C65 1.491 . S
H61 C62 0.950 . S
C62 C59 1.390 . S
C62 H61 0.950 . S
C62 C63 1.378 . S
C63 C62 1.378 . S
C63 C64 1.409 . S
C64 C60 1.387 . S
C64 C63 1.409 . S
C64 H66 0.951 . S
C65 C60 1.491 . S
C65 C67 1.382 . S
C65 C69 1.404 . S
H66 C64 0.951 . S
C67 C65 1.382 . S
C67 C68 1.390 . S
C67 H72 0.949 . S
C68 C67 1.390 . S
C68 C73 1.399 . S
C69 C65 1.404 . S
C69 H70 0.950 . S
C69 C71 1.375 . S
H70 C69 0.950 . S
C71 C69 1.375 . S
C71 C73 1.382 . S
C71 H75 0.950 . S
H72 C67 0.949 . S
C73 C68 1.399 . S
C73 C71 1.382 . S
C73 H74 0.952 . S
H74 C73 0.952 . S
H75 C71 0.950 . S
H76 C77 0.949 . S
C77 H76 0.949 . S
C77 C78 1.395 . S
C77 C79 1.391 . S
C78 C77 1.395 . S
C78 C81 1.390 . S
C79 C77 1.391 . S
C79 C83 1.387 . S
C79 C84 1.491 . S
H80 C81 0.950 . S
C81 C78 1.390 . S
C81 H80 0.950 . S
C81 C82 1.378 . S
C82 C81 1.378 . S
C82 C83 1.409 . S
C83 C79 1.387 . S
C83 C82 1.409 . S
C83 H85 0.951 . S
C84 C79 1.491 . S
C84 C86 1.382 . S
C84 C88 1.404 . S
H85 C83 0.951 . S
C86 C84 1.382 . S
C86 C87 1.390 . S
C86 H91 0.949 . S
C87 C86 1.390 . S
C87 C92 1.399 . S
C88 C84 1.404 . S
C88 H89 0.950 . S
C88 C90 1.375 . S
H89 C88 0.950 . S
C90 C88 1.375 . S
C90 C92 1.382 . S
C90 H94 0.950 . S
H91 C86 0.949 . S
C92 C87 1.399 . S
C92 C90 1.382 . S
C92 H93 0.952 . S
H93 C92 0.952 . S
H94 C90 0.950 . S
H95 C96 0.949 . S
C96 H95 0.949 . S
C96 C97 1.395 . S
C96 C98 1.391 . S
C97 C96 1.395 . S
C97 C100 1.390 . S
C98 C96 1.391 . S
C98 C102 1.387 . S
C98 C103 1.491 . S
H99 C100 0.950 . S
C100 C97 1.390 . S
C100 H99 0.950 . S
C100 C101 1.378 . S
C101 C100 1.378 . S
C101 C102 1.409 . S
C102 C98 1.387 . S
C102 C101 1.409 . S
C102 H104 0.951 . S
C103 C98 1.491 . S
C103 C105 1.382 . S
C103 C107 1.404 . S
H104 C102 0.951 . S
C105 C103 1.382 . S
C105 C106 1.390 . S
C105 H110 0.949 . S
C106 C105 1.390 . S
C106 C111 1.399 . S
C107 C103 1.404 . S
C107 H108 0.950 . S
C107 C109 1.375 . S
H108 C107 0.950 . S
C109 C107 1.375 . S
C109 C111 1.382 . S
C109 H113 0.950 . S
H110 C105 0.949 . S
C111 C106 1.399 . S
C111 C109 1.382 . S
C111 H112 0.952 . S
H112 C111 0.952 . S
H113 C109 0.950 . S
H114 C115 0.949 . S
C115 H114 0.949 . S
C115 C116 1.395 . S
C115 C117 1.391 . S
C116 C115 1.395 . S
C116 C119 1.390 . S
C117 C115 1.391 . S
C117 C121 1.387 . S
C117 C122 1.491 . S
H118 C119 0.950 . S
C119 C116 1.390 . S
C119 H118 0.950 . S
C119 C120 1.378 . S
C120 C119 1.378 . S
C120 C121 1.409 . S
C121 C117 1.387 . S
C121 C120 1.409 . S
C121 H123 0.951 . S
C122 C117 1.491 . S
C122 C124 1.382 . S
C122 C126 1.404 . S
H123 C121 0.951 . S
C124 C122 1.382 . S
C124 C125 1.390 1_655 S
C124 H129 0.949 1_655 S
C125 C124 1.390 1_455 S
C125 C130 1.399 1_455 S
C126 C122 1.404 . S
C126 H127 0.950 . S
C126 C128 1.375 . S
H127 C126 0.950 . S
C128 C126 1.375 . S
C128 C130 1.382 . S
C128 H132 0.950 . S
H129 C124 0.949 1_455 S
C130 C125 1.399 1_655 S
C130 C128 1.382 . S
C130 H131 0.952 . S
H131 C130 0.952 . S
H132 C128 0.950 . S
H133 C134 0.949 . S
C134 H133 0.949 . S
C134 C135 1.395 . S
C134 C136 1.391 . S
C135 C134 1.395 . S
C135 C138 1.390 . S
C136 C134 1.391 . S
C136 C140 1.387 . S
C136 C141 1.491 . S
H137 C138 0.950 . S
C138 C135 1.390 . S
C138 H137 0.950 . S
C138 C139 1.378 . S
C139 C138 1.378 . S
C139 C140 1.409 . S
C140 C136 1.387 . S
C140 C139 1.409 . S
C140 H142 0.951 . S
C141 C136 1.491 . S
C141 C143 1.382 . S
C141 C145 1.404 . S
H142 C140 0.951 . S
C143 C141 1.382 . S
C143 C144 1.390 . S
C143 H148 0.949 . S
C144 C143 1.390 . S
C144 C149 1.399 . S
C145 C141 1.404 . S
C145 H146 0.950 . S
C145 C147 1.375 . S
H146 C145 0.950 . S
C147 C145 1.375 . S
C147 C149 1.382 . S
C147 H151 0.950 . S
H148 C143 0.949 . S
C149 C144 1.399 . S
C149 C147 1.382 . S
C149 H150 0.952 . S
H150 C149 0.952 . S
H151 C147 0.950 . S
H152 C153 0.949 . S
C153 H152 0.949 . S
C153 C154 1.395 . S
C153 C155 1.391 . S
C154 C153 1.395 . S
C154 C157 1.390 . S
C155 C153 1.391 . S
C155 C159 1.387 . S
C155 C160 1.491 . S
H156 C157 0.950 . S
C157 C154 1.390 . S
C157 H156 0.950 . S
C157 C158 1.378 . S
C158 C157 1.378 . S
C158 C159 1.409 . S
C159 C155 1.387 . S
C159 C158 1.409 . S
C159 H161 0.951 . S
C160 C155 1.491 . S
C160 C162 1.382 . S
C160 C164 1.404 . S
H161 C159 0.951 . S
C162 C160 1.382 . S
C162 C163 1.390 . S
C162 H167 0.949 . S
C163 C162 1.390 . S
C163 C168 1.399 . S
C164 C160 1.404 . S
C164 H165 0.950 . S
C164 C166 1.375 . S
H165 C164 0.950 . S
C166 C164 1.375 . S
C166 C168 1.382 . S
C166 H170 0.950 . S
H167 C162 0.949 . S
C168 C163 1.399 . S
C168 C166 1.382 . S
C168 H169 0.952 . S
H169 C168 0.952 . S
H170 C166 0.950 . S
H171 C172 0.949 . S
C172 H171 0.949 . S
C172 C173 1.395 . S
C172 C174 1.391 . S
C173 C172 1.395 . S
C173 C176 1.390 . S
C174 C172 1.391 . S
C174 C178 1.387 . S
C174 C179 1.491 . S
H175 C176 0.950 . S
C176 C173 1.390 . S
C176 H175 0.950 . S
C176 C177 1.378 . S
C177 C176 1.378 . S
C177 C178 1.409 . S
C178 C174 1.387 . S
C178 C177 1.409 . S
C178 H180 0.951 . S
C179 C174 1.491 . S
C179 C181 1.382 . S
C179 C183 1.404 . S
H180 C178 0.951 . S
C181 C179 1.382 . S
C181 C182 1.390 . S
C181 H186 0.949 . S
C182 C181 1.390 . S
C182 C187 1.399 . S
C183 C179 1.404 . S
C183 H184 0.950 . S
C183 C185 1.375 . S
H184 C183 0.950 . S
C185 C183 1.375 . S
C185 C187 1.382 . S
C185 H189 0.950 . S
H186 C181 0.949 . S
C187 C182 1.399 . S
C187 C185 1.382 . S
C187 H188 0.952 . S
H188 C187 0.952 . S
H189 C185 0.950 . S
H190 C191 0.949 . S
C191 H190 0.949 . S
C191 C192 1.395 . S
C191 C193 1.391 . S
C192 C191 1.395 . S
C192 C195 1.390 . S
C193 C191 1.391 . S
C193 C197 1.387 . S
C193 C198 1.491 . S
H194 C195 0.950 . S
C195 C192 1.390 . S
C195 H194 0.950 . S
C195 C196 1.378 . S
C196 C195 1.378 . S
C196 C197 1.409 . S
C197 C193 1.387 . S
C197 C196 1.409 . S
C197 H199 0.951 . S
C198 C193 1.491 . S
C198 C200 1.382 . S
C198 C202 1.404 . S
H199 C197 0.951 . S
C200 C198 1.382 . S
C200 C201 1.390 . S
C200 H205 0.949 . S
C201 C200 1.390 . S
C201 C206 1.399 . S
C202 C198 1.404 . S
C202 H203 0.950 . S
C202 C204 1.375 . S
H203 C202 0.950 . S
C204 C202 1.375 . S
C204 C206 1.382 . S
C204 H208 0.950 . S
H205 C200 0.949 . S
C206 C201 1.399 . S
C206 C204 1.382 . S
C206 H207 0.952 . S
H207 C206 0.952 . S
H208 C204 0.950 . S
H209 C210 0.949 . S
C210 H209 0.949 . S
C210 C211 1.395 . S
C210 C212 1.391 . S
C211 C210 1.395 . S
C211 C214 1.390 . S
C212 C210 1.391 . S
C212 C216 1.387 . S
C212 C217 1.491 . S
H213 C214 0.950 . S
C214 C211 1.390 . S
C214 H213 0.950 . S
C214 C215 1.378 . S
C215 C214 1.378 . S
C215 C216 1.409 . S
C216 C212 1.387 . S
C216 C215 1.409 . S
C216 H218 0.951 . S
C217 C212 1.491 . S
C217 C219 1.382 . S
C217 C221 1.404 . S
H218 C216 0.951 . S
C219 C217 1.382 . S
C219 C220 1.390 . S
C219 H224 0.949 . S
C220 C219 1.390 . S
C220 C225 1.399 . S
C221 C217 1.404 . S
C221 H222 0.950 . S
C221 C223 1.375 . S
H222 C221 0.950 . S
C223 C221 1.375 . S
C223 C225 1.382 . S
C223 H227 0.950 . S
H224 C219 0.949 . S
C225 C220 1.399 . S
C225 C223 1.382 . S
C225 H226 0.952 . S
H226 C225 0.952 . S
H227 C223 0.950 . S
H228 C229 0.949 . S
C229 H228 0.949 . S
C229 C230 1.395 . S
C229 C231 1.391 . S
C230 C229 1.395 . S
C230 C233 1.390 . S
C231 C229 1.391 . S
C231 C235 1.387 . S
C231 C236 1.491 . S
H232 C233 0.950 . S
C233 C230 1.390 . S
C233 H232 0.950 . S
C233 C234 1.378 . S
C234 C233 1.378 . S
C234 C235 1.409 . S
C235 C231 1.387 . S
C235 C234 1.409 . S
C235 H237 0.951 . S
C236 C231 1.491 . S
C236 C238 1.382 . S
C236 C240 1.404 . S
H237 C235 0.951 . S
C238 C236 1.382 . S
C238 C239 1.390 . S
C238 H243 0.949 . S
C239 C238 1.390 . S
C239 C244 1.399 . S
C240 C236 1.404 . S
C240 H241 0.950 . S
C240 C242 1.375 . S
H241 C240 0.950 . S
C242 C240 1.375 . S
C242 C244 1.382 . S
C242 H246 0.950 . S
H243 C238 0.949 . S
C244 C239 1.399 . S
C244 C242 1.382 . S
C244 H245 0.952 . S
H245 C244 0.952 . S
H246 C242 0.950 . S
H247 C248 0.949 . S
C248 H247 0.949 . S
C248 C249 1.395 . S
C248 C250 1.391 . S
C249 C248 1.395 . S
C249 C252 1.390 . S
C250 C248 1.391 . S
C250 C254 1.387 . S
C250 C255 1.491 . S
H251 C252 0.950 . S
C252 C249 1.390 . S
C252 H251 0.950 . S
C252 C253 1.378 . S
C253 C252 1.378 . S
C253 C254 1.409 . S
C254 C250 1.387 . S
C254 C253 1.409 . S
C254 H256 0.951 . S
C255 C250 1.491 . S
C255 C257 1.382 1_556 S
C255 C259 1.404 . S
H256 C254 0.951 . S
C257 C255 1.382 1_554 S
C257 C258 1.390 . S
C257 H262 0.949 . S
C258 C257 1.390 . S
C258 C263 1.399 1_554 S
C259 C255 1.404 . S
C259 H260 0.950 . S
C259 C261 1.375 . S
H260 C259 0.950 . S
C261 C259 1.375 . S
C261 C263 1.382 . S
C261 H265 0.950 . S
H262 C257 0.949 . S
C263 C258 1.399 1_556 S
C263 C261 1.382 . S
C263 H264 0.952 1_556 S
H264 C263 0.952 1_554 S
H265 C261 0.950 . S
H266 C267 0.949 . S
C267 H266 0.949 . S
C267 C268 1.395 . S
C267 C269 1.391 . S
C268 C267 1.395 . S
C268 C271 1.390 . S
C269 C267 1.391 . S
C269 C273 1.387 . S
C269 C274 1.491 . S
H270 C271 0.950 . S
C271 C268 1.390 . S
C271 H270 0.950 . S
C271 C272 1.378 . S
C272 C271 1.378 . S
C272 C273 1.409 . S
C273 C269 1.387 . S
C273 C272 1.409 . S
C273 H275 0.951 . S
C274 C269 1.491 . S
C274 C276 1.382 . S
C274 C278 1.404 . S
H275 C273 0.951 . S
C276 C274 1.382 . S
C276 C277 1.390 . S
C276 H281 0.949 . S
C277 C276 1.390 . S
C277 C282 1.399 . S
C278 C274 1.404 . S
C278 H279 0.950 . S
C278 C280 1.375 . S
H279 C278 0.950 . S
C280 C278 1.375 . S
C280 C282 1.382 . S
C280 H284 0.950 . S
H281 C276 0.949 . S
C282 C277 1.399 . S
C282 C280 1.382 . S
C282 H283 0.952 . S
H283 C282 0.952 . S
H284 C280 0.950 . S
H285 C286 0.949 . S
C286 H285 0.949 . S
C286 C287 1.395 . S
C286 C288 1.391 . S
C287 C286 1.395 . S
C287 C290 1.390 . S
C288 C286 1.391 . S
C288 C292 1.387 . S
C288 C293 1.491 . S
H289 C290 0.950 . S
C290 C287 1.390 . S
C290 H289 0.950 . S
C290 C291 1.378 . S
C291 C290 1.378 . S
C291 C292 1.409 . S
C292 C288 1.387 . S
C292 C291 1.409 . S
C292 H294 0.951 . S
C293 C288 1.491 . S
C293 C295 1.382 . S
C293 C297 1.404 . S
H294 C292 0.951 . S
C295 C293 1.382 . S
C295 C296 1.390 . S
C295 H300 0.949 . S
C296 C295 1.390 . S
C296 C301 1.399 . S
C297 C293 1.404 . S
C297 H298 0.950 . S
C297 C299 1.375 . S
H298 C297 0.950 . S
C299 C297 1.375 . S
C299 C301 1.382 . S
C299 H303 0.950 . S
H300 C295 0.949 . S
C301 C296 1.399 . S
C301 C299 1.382 . S
C301 H302 0.952 . S
H302 C301 0.952 . S
H303 C299 0.950 . S
Zn304 O307 2.031 . S
Zn304 O309 2.049 . S
Zn304 O314 2.067 . S
Zn305 O306 1.962 . S
Zn305 O308 1.986 . S
Zn305 O310 1.996 . S
Zn305 O313 1.943 . S
O306 Zn305 1.962 . S
O306 C311 1.254 . S
O307 Zn304 2.031 . S
O307 C311 1.269 . S
O308 Zn305 1.986 . S
O308 C315 1.262 . S
O309 Zn304 2.049 . S
O309 C317 1.260 . S
O310 Zn305 1.996 . S
O310 C317 1.257 . S
C311 O306 1.254 . S
C311 O307 1.269 . S
C312 O313 1.249 . S
C312 O314 1.270 . S
O313 Zn305 1.943 . S
O313 C312 1.249 . S
O314 Zn304 2.067 . S
O314 C312 1.270 . S
C315 O308 1.262 . S
C315 O316 1.232 . S
O316 C315 1.232 . S
C317 O309 1.260 . S
C317 O310 1.257 . S
Zn318 O321 2.031 . S
Zn318 O323 2.049 . S
Zn318 O328 2.067 . S
Zn319 O320 1.962 . S
Zn319 O322 1.986 . S
Zn319 O324 1.996 . S
Zn319 O327 1.943 . S
O320 Zn319 1.962 . S
O320 C325 1.254 . S
O321 Zn318 2.031 . S
O321 C325 1.269 . S
O322 Zn319 1.986 . S
O322 C329 1.262 . S
O323 Zn318 2.049 . S
O323 C331 1.260 . S
O324 Zn319 1.996 . S
O324 C331 1.257 . S
C325 O320 1.254 . S
C325 O321 1.269 . S
C326 O327 1.249 . S
C326 O328 1.270 . S
O327 Zn319 1.943 . S
O327 C326 1.249 . S
O328 Zn318 2.067 . S
O328 C326 1.270 . S
C329 O322 1.262 . S
C329 O330 1.232 . S
O330 C329 1.232 . S
C331 O323 1.260 . S
C331 O324 1.257 . S
Zn332 O335 2.031 . S
Zn332 O337 2.049 . S
Zn332 O342 2.067 . S
Zn333 O334 1.962 . S
Zn333 O336 1.986 . S
Zn333 O338 1.996 1_554 S
Zn333 O341 1.943 . S
O334 Zn333 1.962 . S
O334 C339 1.254 . S
O335 Zn332 2.031 . S
O335 C339 1.269 1_556 S
O336 Zn333 1.986 . S
O336 C343 1.262 . S
O337 Zn332 2.049 . S
O337 C345 1.260 . S
O338 Zn333 1.996 1_556 S
O338 C345 1.257 . S
C339 O334 1.254 . S
C339 O335 1.269 1_554 S
C340 O341 1.249 1_556 S
C340 O342 1.270 . S
O341 Zn333 1.943 . S
O341 C340 1.249 1_554 S
O342 Zn332 2.067 . S
O342 C340 1.270 . S
C343 O336 1.262 . S
C343 O344 1.232 . S
O344 C343 1.232 . S
C345 O337 1.260 . S
C345 O338 1.257 . S
Zn346 O349 2.031 . S
Zn346 O351 2.049 . S
Zn346 O356 2.067 1_545 S
Zn347 O348 1.962 . S
Zn347 O350 1.986 . S
Zn347 O352 1.996 . S
Zn347 O355 1.943 1_545 S
O348 Zn347 1.962 . S
O348 C353 1.254 . S
O349 Zn346 2.031 . S
O349 C353 1.269 . S
O350 Zn347 1.986 . S
O350 C357 1.262 . S
O351 Zn346 2.049 . S
O351 C359 1.260 . S
O352 Zn347 1.996 . S
O352 C359 1.257 . S
C353 O348 1.254 . S
C353 O349 1.269 . S
C354 O355 1.249 . S
C354 O356 1.270 . S
O355 Zn347 1.943 1_565 S
O355 C354 1.249 . S
O356 Zn346 2.067 1_565 S
O356 C354 1.270 . S
C357 O350 1.262 . S
C357 O358 1.232 . S
O358 C357 1.232 . S
C359 O351 1.260 . S
C359 O352 1.257 . S
Zn360 O363 2.031 . S
Zn360 O365 2.049 . S
Zn360 O370 2.067 . S
Zn361 O362 1.962 . S
Zn361 O364 1.986 . S
Zn361 O366 1.996 . S
Zn361 O369 1.943 . S
O362 Zn361 1.962 . S
O362 C367 1.254 . S
O363 Zn360 2.031 . S
O363 C367 1.269 . S
O364 Zn361 1.986 . S
O364 C371 1.262 . S
O365 Zn360 2.049 . S
O365 C373 1.260 . S
O366 Zn361 1.996 . S
O366 C373 1.257 . S
C367 O362 1.254 . S
C367 O363 1.269 . S
C368 O369 1.249 . S
C368 O370 1.270 . S
O369 Zn361 1.943 . S
O369 C368 1.249 . S
O370 Zn360 2.067 . S
O370 C368 1.270 . S
C371 O364 1.262 . S
C371 O372 1.232 . S
O372 C371 1.232 . S
C373 O365 1.260 . S
C373 O366 1.257 . S
Zn374 O377 2.031 . S
Zn374 O379 2.049 . S
Zn374 O384 2.067 . S
Zn375 O376 1.962 . S
Zn375 O378 1.986 . S
Zn375 O380 1.996 . S
Zn375 O383 1.943 . S
O376 Zn375 1.962 . S
O376 C381 1.254 . S
O377 Zn374 2.031 . S
O377 C381 1.269 . S
O378 Zn375 1.986 . S
O378 C385 1.262 . S
O379 Zn374 2.049 . S
O379 C387 1.260 . S
O380 Zn375 1.996 . S
O380 C387 1.257 . S
C381 O376 1.254 . S
C381 O377 1.269 . S
C382 O383 1.249 . S
C382 O384 1.270 . S
O383 Zn375 1.943 . S
O383 C382 1.249 . S
O384 Zn374 2.067 . S
O384 C382 1.270 . S
C385 O378 1.262 . S
C385 O386 1.232 . S
O386 C385 1.232 . S
C387 O379 1.260 . S
C387 O380 1.257 . S
Zn388 O391 2.031 . S
Zn388 O393 2.049 . S
Zn388 O398 2.067 . S
Zn389 O390 1.962 . S
Zn389 O392 1.986 . S
Zn389 O394 1.996 . S
Zn389 O397 1.943 . S
O390 Zn389 1.962 . S
O390 C395 1.254 . S
O391 Zn388 2.031 . S
O391 C395 1.269 . S
O392 Zn389 1.986 . S
O392 C399 1.262 . S
O393 Zn388 2.049 . S
O393 C401 1.260 . S
O394 Zn389 1.996 . S
O394 C401 1.257 . S
C395 O390 1.254 . S
C395 O391 1.269 . S
C396 O397 1.249 . S
C396 O398 1.270 . S
O397 Zn389 1.943 . S
O397 C396 1.249 . S
O398 Zn388 2.067 . S
O398 C396 1.270 . S
C399 O392 1.262 . S
C399 O400 1.232 . S
O400 C399 1.232 . S
C401 O393 1.260 . S
C401 O394 1.257 . S
Zn402 O405 2.031 1_565 S
Zn402 O407 2.049 . S
Zn402 O412 2.067 . S
Zn403 O404 1.962 . S
Zn403 O406 1.986 . S
Zn403 O408 1.996 1_545 S
Zn403 O411 1.943 . S
O404 Zn403 1.962 . S
O404 C409 1.254 . S
O405 Zn402 2.031 1_545 S
O405 C409 1.269 . S
O406 Zn403 1.986 . S
O406 C413 1.262 . S
O407 Zn402 2.049 . S
O407 C415 1.260 . S
O408 Zn403 1.996 1_565 S
O408 C415 1.257 . S
C409 O404 1.254 . S
C409 O405 1.269 . S
C410 O411 1.251 . S
C410 O412 1.267 1_545 S
O411 Zn403 1.943 . S
O411 C410 1.251 . S
O412 Zn402 2.067 . S
O412 C410 1.267 1_565 S
C413 O406 1.262 . S
C413 O414 1.232 . S
O414 C413 1.232 . S
C415 O407 1.260 . S
C415 O408 1.257 . S
Zn416 O419 2.031 . S
Zn416 O421 2.049 . S
Zn416 O426 2.067 1_455 S
Zn417 O418 1.962 . S
Zn417 O420 1.986 . S
Zn417 O422 1.996 . S
Zn417 O425 1.943 1_455 S
O418 Zn417 1.962 . S
O418 C423 1.254 . S
O419 Zn416 2.031 . S
O419 C423 1.269 . S
O420 Zn417 1.986 . S
O420 C427 1.262 . S
O421 Zn416 2.049 . S
O421 C429 1.260 . S
O422 Zn417 1.996 . S
O422 C429 1.257 . S
C423 O418 1.254 . S
C423 O419 1.269 . S
C424 O425 1.249 . S
C424 O426 1.270 . S
O425 Zn417 1.943 1_655 S
O425 C424 1.249 . S
O426 Zn416 2.067 1_655 S
O426 C424 1.270 . S
C427 O420 1.262 . S
C427 O428 1.232 . S
O428 C427 1.232 . S
C429 O421 1.260 . S
C429 O422 1.257 . S
Zn430 O433 2.031 . S
Zn430 O435 2.049 . S
Zn430 O440 2.067 . S
Zn431 O432 1.962 . S
Zn431 O434 1.986 . S
Zn431 O436 1.996 . S
Zn431 O439 1.943 . S
O432 Zn431 1.962 . S
O432 C437 1.254 . S
O433 Zn430 2.031 . S
O433 C437 1.269 . S
O434 Zn431 1.986 . S
O434 C441 1.262 . S
O435 Zn430 2.049 . S
O435 C443 1.260 . S
O436 Zn431 1.996 . S
O436 C443 1.257 . S
C437 O432 1.254 . S
C437 O433 1.269 . S
C438 O439 1.249 . S
C438 O440 1.270 . S
O439 Zn431 1.943 . S
O439 C438 1.249 . S
O440 Zn430 2.067 . S
O440 C438 1.270 . S
C441 O434 1.262 . S
C441 O442 1.232 . S
O442 C441 1.232 . S
C443 O435 1.260 . S
C443 O436 1.257 . S
Zn444 O447 2.031 1_655 S
Zn444 O449 2.049 . S
Zn444 O454 2.067 . S
Zn445 O446 1.962 . S
Zn445 O448 1.986 . S
Zn445 O450 1.996 1_455 S
Zn445 O453 1.943 . S
O446 Zn445 1.962 . S
O446 C451 1.254 . S
O447 Zn444 2.031 1_455 S
O447 C451 1.269 . S
O448 Zn445 1.986 . S
O448 C455 1.262 . S
O449 Zn444 2.049 . S
O449 C457 1.260 . S
O450 Zn445 1.996 1_655 S
O450 C457 1.257 . S
C451 O446 1.254 . S
C451 O447 1.269 . S
C452 O453 1.239 1_655 S
C452 O454 1.285 . S
O453 Zn445 1.943 . S
O453 C452 1.239 1_455 S
O454 Zn444 2.067 . S
O454 C452 1.285 . S
C455 O448 1.262 . S
C455 O456 1.232 . S
O456 C455 1.232 . S
C457 O449 1.260 . S
C457 O450 1.257 . S
Zn458 O461 2.031 . S
Zn458 O463 2.049 . S
Zn458 O468 2.067 . S
Zn459 O460 1.962 . S
Zn459 O462 1.986 . S
Zn459 O464 1.996 . S
Zn459 O467 1.943 . S
O460 Zn459 1.962 . S
O460 C465 1.254 . S
O461 Zn458 2.031 . S
O461 C465 1.269 . S
O462 Zn459 1.986 . S
O462 C469 1.262 . S
O463 Zn458 2.049 . S
O463 C471 1.260 . S
O464 Zn459 1.996 . S
O464 C471 1.257 . S
C465 O460 1.254 . S
C465 O461 1.269 . S
C466 O467 1.249 . S
C466 O468 1.270 . S
O467 Zn459 1.943 . S
O467 C466 1.249 . S
O468 Zn458 2.067 . S
O468 C466 1.270 . S
C469 O462 1.262 . S
C469 O470 1.232 . S
O470 C469 1.232 . S
C471 O463 1.260 . S
C471 O464 1.257 . S
H472 C478 0.930 . S
H473 C482 0.930 . S
H474 C487 0.929 . S
H475 C485 0.929 . S
H476 C480 0.929 . S
H477 C486 0.929 . S
C478 H472 0.930 . S
C478 C479 1.367 . S
C478 C486 1.378 . S
C479 C478 1.367 . S
C479 C487 1.433 . S
C480 H476 0.929 . S
C480 C482 1.378 . S
C480 C484 1.350 . S
C481 C484 1.463 . S
C481 C486 1.350 . S
C481 N489 1.427 . S
C482 H473 0.930 . S
C482 C480 1.378 . S
C482 C483 1.367 . S
C483 C482 1.367 . S
C483 C485 1.433 . S
C484 C480 1.350 . S
C484 C481 1.463 . S
C484 N488 1.427 . S
C485 H475 0.929 . S
C485 C483 1.433 . S
C485 N488 1.384 . S
C486 H477 0.929 . S
C486 C478 1.378 . S
C486 C481 1.350 . S
C487 H474 0.929 . S
C487 C479 1.433 . S
C487 N489 1.384 . S
N488 C484 1.427 . S
N488 C485 1.384 . S
N489 C481 1.427 . S
N489 C487 1.384 . S
H490 C496 0.930 . S
H491 C500 0.930 . S
H492 C505 0.929 1_655 S
H493 C503 0.929 . S
H494 C498 0.929 . S
H495 C504 0.929 . S
C496 H490 0.930 . S
C496 C497 1.367 . S
C496 C504 1.378 . S
C497 C496 1.367 . S
C497 C505 1.433 . S
C498 H494 0.929 . S
C498 C500 1.378 . S
C498 C502 1.350 . S
C499 C502 1.463 . S
C499 C504 1.350 . S
C499 N507 1.427 . S
C500 H491 0.930 . S
C500 C498 1.378 . S
C500 C501 1.367 . S
C501 C500 1.367 . S
C501 C503 1.433 . S
C502 C498 1.350 . S
C502 C499 1.463 . S
C502 N506 1.427 . S
C503 H493 0.929 . S
C503 C501 1.433 . S
C503 N506 1.384 . S
C504 H495 0.929 . S
C504 C496 1.378 . S
C504 C499 1.350 . S
C505 H492 0.929 1_455 S
C505 C497 1.433 . S
C505 N507 1.384 . S
N506 C502 1.427 . S
N506 C503 1.384 . S
N507 C499 1.427 . S
N507 C505 1.384 . S
H508 C514 0.930 . S
H509 C518 0.930 . S
H510 C523 0.929 . S
H511 C521 0.929 . S
H512 C516 0.929 . S
H513 C522 0.929 . S
C514 H508 0.930 . S
C514 C515 1.367 . S
C514 C522 1.378 . S
C515 C514 1.367 . S
C515 C523 1.433 . S
C516 H512 0.929 . S
C516 C518 1.378 . S
C516 C520 1.350 . S
C517 C520 1.463 . S
C517 C522 1.350 . S
C517 N525 1.427 . S
C518 H509 0.930 . S
C518 C516 1.378 . S
C518 C519 1.367 . S
C519 C518 1.367 . S
C519 C521 1.433 . S
C520 C516 1.350 . S
C520 C517 1.463 . S
C520 N524 1.427 . S
C521 H511 0.929 . S
C521 C519 1.433 . S
C521 N524 1.384 . S
C522 H513 0.929 . S
C522 C514 1.378 . S
C522 C517 1.350 . S
C523 H510 0.929 . S
C523 C515 1.433 . S
C523 N525 1.384 . S
N524 C520 1.427 . S
N524 C521 1.384 . S
N525 C517 1.427 . S
N525 C523 1.384 . S
H526 C532 0.930 . S
H527 C536 0.930 . S
H528 C541 0.922 1_545 S
H529 C539 0.929 1_655 S
H530 C534 0.929 . S
H531 C540 0.929 . S
C532 H526 0.930 . S
C532 C533 1.367 . S
C532 C540 1.378 . S
C533 C532 1.367 . S
C533 C541 1.448 . S
C534 H530 0.929 . S
C534 C536 1.378 . S
C534 C538 1.350 1_545 S
C535 C538 1.463 . S
C535 C540 1.350 . S
C535 N543 1.427 1_565 S
C536 H527 0.930 . S
C536 C534 1.378 . S
C536 C537 1.367 . S
C537 C536 1.367 . S
C537 C539 1.433 1_545 S
C538 C534 1.350 1_565 S
C538 C535 1.463 . S
C538 N542 1.427 . S
C539 H529 0.929 1_455 S
C539 C537 1.433 1_565 S
C539 N542 1.384 . S
C540 H531 0.929 . S
C540 C532 1.378 . S
C540 C535 1.350 . S
C541 H528 0.922 1_565 S
C541 C533 1.448 . S
C541 N543 1.377 1_565 S
N542 C538 1.427 . S
N542 C539 1.384 . S
N543 C535 1.427 1_545 S
N543 C541 1.377 1_545 S
H544 C550 0.930 . S
H545 C554 0.930 . S
H546 C559 0.929 . S
H547 C557 0.929 . S
H548 C552 0.929 . S
H549 C558 0.929 . S
C550 H544 0.930 . S
C550 C551 1.367 . S
C550 C558 1.378 . S
C551 C550 1.367 . S
C551 C559 1.433 . S
C552 H548 0.929 . S
C552 C554 1.378 . S
C552 C556 1.350 . S
C553 C556 1.463 . S
C553 C558 1.350 . S
C553 N561 1.427 . S
C554 H545 0.930 . S
C554 C552 1.378 . S
C554 C555 1.367 . S
C555 C554 1.367 . S
C555 C557 1.433 . S
C556 C552 1.350 . S
C556 C553 1.463 . S
C556 N560 1.427 . S
C557 H547 0.929 . S
C557 C555 1.433 . S
C557 N560 1.384 . S
C558 H549 0.929 . S
C558 C550 1.378 . S
C558 C553 1.350 . S
C559 H546 0.929 . S
C559 C551 1.433 . S
C559 N561 1.384 . S
N560 C556 1.427 . S
N560 C557 1.384 . S
N561 C553 1.427 . S
N561 C559 1.384 . S
H562 C568 0.930 . S
H563 C572 0.930 . S
H564 C577 0.929 . S
H565 C575 0.929 . S
H566 C570 0.929 . S
H567 C576 0.929 . S
C568 H562 0.930 . S
C568 C569 1.367 . S
C568 C576 1.378 . S
C569 C568 1.367 . S
C569 C577 1.433 . S
C570 H566 0.929 . S
C570 C572 1.378 . S
C570 C574 1.350 . S
C571 C574 1.463 . S
C571 C576 1.350 . S
C571 N579 1.427 . S
C572 H563 0.930 . S
C572 C570 1.378 . S
C572 C573 1.367 . S
C573 C572 1.367 . S
C573 C575 1.433 . S
C574 C570 1.350 . S
C574 C571 1.463 . S
C574 N578 1.427 . S
C575 H565 0.929 . S
C575 C573 1.433 . S
C575 N578 1.384 . S
C576 H567 0.929 . S
C576 C568 1.378 . S
C576 C571 1.350 . S
C577 H564 0.929 . S
C577 C569 1.433 . S
C577 N579 1.384 . S
N578 C574 1.427 . S
N578 C575 1.384 . S
N579 C571 1.427 . S
N579 C577 1.384 . S
H580 C586 0.930 . S
H581 C590 0.930 . S
H582 C595 0.929 . S
H583 C593 0.929 . S
H584 C588 0.929 . S
H585 C594 0.929 . S
C586 H580 0.930 . S
C586 C587 1.367 . S
C586 C594 1.378 . S
C587 C586 1.367 . S
C587 C595 1.433 . S
C588 H584 0.929 . S
C588 C590 1.378 . S
C588 C592 1.350 . S
C589 C592 1.463 . S
C589 C594 1.350 . S
C589 N597 1.427 . S
C590 H581 0.930 . S
C590 C588 1.378 . S
C590 C591 1.367 . S
C591 C590 1.367 . S
C591 C593 1.433 . S
C592 C588 1.350 . S
C592 C589 1.463 . S
C592 N596 1.427 . S
C593 H583 0.929 . S
C593 C591 1.433 . S
C593 N596 1.384 . S
C594 H585 0.929 . S
C594 C586 1.378 . S
C594 C589 1.350 . S
C595 H582 0.929 . S
C595 C587 1.433 . S
C595 N597 1.384 . S
N596 C592 1.427 . S
N596 C593 1.384 . S
N597 C589 1.427 . S
N597 C595 1.384 . S
H598 C604 0.930 1_545 S
H599 C608 0.930 . S
H600 C613 0.929 . S
H601 C611 0.929 . S
H602 C606 0.929 . S
H603 C612 0.915 1_545 S
C604 H598 0.930 1_565 S
C604 C605 1.367 . S
C604 C612 1.378 . S
C605 C604 1.367 . S
C605 C613 1.433 . S
C606 H602 0.929 . S
C606 C608 1.378 . S
C606 C610 1.350 . S
C607 C610 1.463 . S
C607 C612 1.364 . S
C607 N615 1.427 . S
C608 H599 0.930 . S
C608 C606 1.378 . S
C608 C609 1.367 . S
C609 C608 1.367 . S
C609 C611 1.433 1_565 S
C610 C606 1.350 . S
C610 C607 1.463 . S
C610 N614 1.427 1_565 S
C611 H601 0.929 . S
C611 C609 1.433 1_545 S
C611 N614 1.384 . S
C612 H603 0.915 1_565 S
C612 C604 1.378 . S
C612 C607 1.364 . S
C613 H600 0.929 . S
C613 C605 1.433 . S
C613 N615 1.384 . S
N614 C610 1.427 1_545 S
N614 C611 1.384 . S
N615 C607 1.427 . S
N615 C613 1.384 . S
H616 C622 0.930 . S
H617 C626 0.930 . S
H618 C631 0.929 . S
H619 C629 0.929 . S
H620 C624 0.929 . S
H621 C630 0.929 . S
C622 H616 0.930 . S
C622 C623 1.367 . S
C622 C630 1.378 . S
C623 C622 1.367 . S
C623 C631 1.433 . S
C624 H620 0.929 . S
C624 C626 1.378 . S
C624 C628 1.350 . S
C625 C628 1.463 . S
C625 C630 1.350 . S
C625 N633 1.427 . S
C626 H617 0.930 . S
C626 C624 1.378 . S
C626 C627 1.367 . S
C627 C626 1.367 . S
C627 C629 1.433 . S
C628 C624 1.350 . S
C628 C625 1.463 . S
C628 N632 1.427 . S
C629 H619 0.929 . S
C629 C627 1.433 . S
C629 N632 1.384 . S
C630 H621 0.929 . S
C630 C622 1.378 . S
C630 C625 1.350 . S
C631 H618 0.929 . S
C631 C623 1.433 . S
C631 N633 1.384 . S
N632 C628 1.427 . S
N632 C629 1.384 . S
N633 C625 1.427 . S
N633 C631 1.384 . S
H634 C640 0.930 . S
H635 C644 0.930 . S
H636 C649 0.929 . S
H637 C647 0.929 . S
H638 C642 0.929 . S
H639 C648 0.929 . S
C640 H634 0.930 . S
C640 C641 1.367 . S
C640 C648 1.378 . S
C641 C640 1.367 . S
C641 C649 1.433 . S
C642 H638 0.929 . S
C642 C644 1.378 . S
C642 C646 1.350 . S
C643 C646 1.463 . S
C643 C648 1.350 . S
C643 N651 1.427 . S
C644 H635 0.930 . S
C644 C642 1.378 . S
C644 C645 1.367 . S
C645 C644 1.367 . S
C645 C647 1.433 . S
C646 C642 1.350 . S
C646 C643 1.463 . S
C646 N650 1.427 . S
C647 H637 0.929 . S
C647 C645 1.433 . S
C647 N650 1.384 . S
C648 H639 0.929 . S
C648 C640 1.378 . S
C648 C643 1.350 . S
C649 H636 0.929 . S
C649 C641 1.433 . S
C649 N651 1.384 . S
N650 C646 1.427 . S
N650 C647 1.384 . S
N651 C643 1.427 . S
N651 C649 1.384 . S
H652 C658 0.930 . S
H653 C662 0.930 . S
H654 C667 0.929 . S
H655 C665 0.929 . S
H656 C660 0.929 . S
H657 C666 0.929 . S
C658 H652 0.930 . S
C658 C659 1.367 . S
C658 C666 1.378 . S
C659 C658 1.367 . S
C659 C667 1.433 . S
C660 H656 0.929 . S
C660 C662 1.378 . S
C660 C664 1.350 . S
C661 C664 1.463 . S
C661 C666 1.350 . S
C661 N669 1.427 . S
C662 H653 0.930 . S
C662 C660 1.378 . S
C662 C663 1.367 . S
C663 C662 1.367 . S
C663 C665 1.433 . S
C664 C660 1.350 . S
C664 C661 1.463 . S
C664 N668 1.427 . S
C665 H655 0.929 . S
C665 C663 1.433 . S
C665 N668 1.384 . S
C666 H657 0.929 . S
C666 C658 1.378 . S
C666 C661 1.350 . S
C667 H654 0.929 . S
C667 C659 1.433 . S
C667 N669 1.384 . S
N668 C664 1.427 . S
N668 C665 1.384 . S
N669 C661 1.427 . S
N669 C667 1.384 . S
H670 C676 0.930 . S
H671 C680 0.930 . S
H672 C685 0.929 . S
H673 C683 0.929 . S
H674 C678 0.929 . S
H675 C684 0.929 . S
C676 H670 0.930 . S
C676 C677 1.367 . S
C676 C684 1.378 . S
C677 C676 1.367 . S
C677 C685 1.433 . S
C678 H674 0.929 . S
C678 C680 1.378 . S
C678 C682 1.350 . S
C679 C682 1.463 . S
C679 C684 1.350 . S
C679 N687 1.427 . S
C680 H671 0.930 . S
C680 C678 1.378 . S
C680 C681 1.367 . S
C681 C680 1.367 . S
C681 C683 1.433 . S
C682 C678 1.350 . S
C682 C679 1.463 . S
C682 N686 1.427 . S
C683 H673 0.929 . S
C683 C681 1.433 . S
C683 N686 1.384 . S
C684 H675 0.929 . S
C684 C676 1.378 . S
C684 C679 1.350 . S
C685 H672 0.929 . S
C685 C677 1.433 . S
C685 N687 1.384 . S
N686 C682 1.427 . S
N686 C683 1.384 . S
N687 C679 1.427 . S
N687 C685 1.384 . S
H688 C694 0.930 . S
H689 C698 0.930 . S
H690 C703 0.929 . S
H691 C701 0.929 . S
H692 C696 0.929 . S
H693 C702 0.929 . S
C694 H688 0.930 . S
C694 C695 1.367 . S
C694 C702 1.378 . S
C695 C694 1.367 . S
C695 C703 1.433 . S
C696 H692 0.929 . S
C696 C698 1.378 . S
C696 C700 1.350 . S
C697 C700 1.463 . S
C697 C702 1.350 . S
C697 N705 1.427 . S
C698 H689 0.930 . S
C698 C696 1.378 . S
C698 C699 1.367 . S
C699 C698 1.367 . S
C699 C701 1.433 . S
C700 C696 1.350 . S
C700 C697 1.463 . S
C700 N704 1.427 . S
C701 H691 0.929 . S
C701 C699 1.433 . S
C701 N704 1.384 . S
C702 H693 0.929 . S
C702 C694 1.378 . S
C702 C697 1.350 . S
C703 H690 0.929 . S
C703 C695 1.433 . S
C703 N705 1.384 . S
N704 C700 1.427 . S
N704 C701 1.384 . S
N705 C697 1.427 . S
N705 C703 1.384 . S
H706 C712 0.930 . S
H707 C716 0.930 . S
H708 C721 0.929 . S
H709 C719 0.929 . S
H710 C714 0.929 . S
H711 C720 0.929 . S
C712 H706 0.930 . S
C712 C713 1.367 . S
C712 C720 1.378 . S
C713 C712 1.367 . S
C713 C721 1.433 . S
C714 H710 0.929 . S
C714 C716 1.378 . S
C714 C718 1.350 . S
C715 C718 1.463 . S
C715 C720 1.350 . S
C715 N723 1.427 . S
C716 H707 0.930 . S
C716 C714 1.378 . S
C716 C717 1.367 . S
C717 C716 1.367 . S
C717 C719 1.433 . S
C718 C714 1.350 . S
C718 C715 1.463 . S
C718 N722 1.427 . S
C719 H709 0.929 . S
C719 C717 1.433 . S
C719 N722 1.384 . S
C720 H711 0.929 . S
C720 C712 1.378 . S
C720 C715 1.350 . S
C721 H708 0.929 . S
C721 C713 1.433 . S
C721 N723 1.384 . S
N722 C718 1.427 . S
N722 C719 1.384 . S
N723 C715 1.427 . S
N723 C721 1.384 . S
H724 C730 0.930 . S
H725 C734 0.930 . S
H726 C739 0.929 . S
H727 C737 0.929 . S
H728 C732 0.929 . S
H729 C738 0.929 . S
C730 H724 0.930 . S
C730 C731 1.367 . S
C730 C738 1.378 . S
C731 C730 1.367 . S
C731 C739 1.433 . S
C732 H728 0.929 . S
C732 C734 1.378 . S
C732 C736 1.350 . S
C733 C736 1.463 . S
C733 C738 1.350 . S
C733 N741 1.427 . S
C734 H725 0.930 . S
C734 C732 1.378 . S
C734 C735 1.367 . S
C735 C734 1.367 . S
C735 C737 1.433 . S
C736 C732 1.350 . S
C736 C733 1.463 . S
C736 N740 1.427 . S
C737 H727 0.929 . S
C737 C735 1.433 . S
C737 N740 1.384 . S
C738 H729 0.929 . S
C738 C730 1.378 . S
C738 C733 1.350 . S
C739 H726 0.929 . S
C739 C731 1.433 . S
C739 N741 1.384 . S
N740 C736 1.427 . S
N740 C737 1.384 . S
N741 C733 1.427 . S
N741 C739 1.384 . S
H742 C748 0.930 . S
H743 C752 0.930 . S
H744 C757 0.917 1_455 S
H745 C755 0.929 . S
H746 C750 0.929 . S
H747 C756 0.929 . S
C748 H742 0.930 . S
C748 C749 1.367 . S
C748 C756 1.378 . S
C749 C748 1.367 . S
C749 C757 1.447 . S
C750 H746 0.929 . S
C750 C752 1.378 . S
C750 C754 1.350 1_455 S
C751 C754 1.463 . S
C751 C756 1.350 . S
C751 N759 1.427 1_655 S
C752 H743 0.930 . S
C752 C750 1.378 . S
C752 C753 1.377 . S
C753 C752 1.377 . S
C753 C755 1.422 1_455 S
C754 C750 1.350 1_655 S
C754 C751 1.463 . S
C754 N758 1.427 . S
C755 H745 0.929 . S
C755 C753 1.422 1_655 S
C755 N758 1.384 . S
C756 H747 0.929 . S
C756 C748 1.378 . S
C756 C751 1.350 . S
C757 H744 0.917 1_655 S
C757 C749 1.447 . S
C757 N759 1.383 1_655 S
N758 C754 1.427 . S
N758 C755 1.384 . S
N759 C751 1.427 1_455 S
N759 C757 1.383 1_455 S
H760 C766 0.930 . S
H761 C770 0.930 . S
H762 C775 0.929 . S
H763 C773 0.929 . S
H764 C768 0.929 . S
H765 C774 0.929 . S
C766 H760 0.930 . S
C766 C767 1.367 . S
C766 C774 1.378 . S
C767 C766 1.367 . S
C767 C775 1.433 . S
C768 H764 0.929 . S
C768 C770 1.378 . S
C768 C772 1.350 . S
C769 C772 1.463 . S
C769 C774 1.350 . S
C769 N777 1.427 . S
C770 H761 0.930 . S
C770 C768 1.378 . S
C770 C771 1.367 . S
C771 C770 1.367 . S
C771 C773 1.433 . S
C772 C768 1.350 . S
C772 C769 1.463 . S
C772 N776 1.427 . S
C773 H763 0.929 . S
C773 C771 1.433 . S
C773 N776 1.384 . S
C774 H765 0.929 . S
C774 C766 1.378 . S
C774 C769 1.350 . S
C775 H762 0.929 . S
C775 C767 1.433 . S
C775 N777 1.384 . S
N776 C772 1.427 . S
N776 C773 1.384 . S
N777 C769 1.427 . S
N777 C775 1.384 . S
H778 C784 0.930 . S
H779 C788 0.930 . S
H780 C793 0.929 . S
H781 C791 0.929 . S
H782 C786 0.929 . S
H783 C792 0.929 . S
C784 H778 0.930 . S
C784 C785 1.367 . S
C784 C792 1.378 . S
C785 C784 1.367 . S
C785 C793 1.433 . S
C786 H782 0.929 . S
C786 C788 1.378 . S
C786 C790 1.350 . S
C787 C790 1.463 . S
C787 C792 1.350 . S
C787 N795 1.427 . S
C788 H779 0.930 . S
C788 C786 1.378 . S
C788 C789 1.367 . S
C789 C788 1.367 . S
C789 C791 1.433 . S
C790 C786 1.350 . S
C790 C787 1.463 . S
C790 N794 1.427 . S
C791 H781 0.929 . S
C791 C789 1.433 . S
C791 N794 1.384 . S
C792 H783 0.929 . S
C792 C784 1.378 . S
C792 C787 1.350 . S
C793 H780 0.929 . S
C793 C785 1.433 . S
C793 N795 1.384 . S
N794 C790 1.427 . S
N794 C791 1.384 . S
N795 C787 1.427 . S
N795 C793 1.384 . S
H796 C802 0.930 . S
H797 C806 0.930 . S
H798 C811 0.929 . S
H799 C809 0.929 . S
H800 C804 0.929 . S
H801 C810 0.889 1_554 S
C802 H796 0.930 . S
C802 C803 1.367 . S
C802 C810 1.402 . S
C803 C802 1.367 . S
C803 C811 1.433 . S
C804 H800 0.929 . S
C804 C806 1.378 . S
C804 C808 1.350 . S
C805 C808 1.463 . S
C805 C810 1.366 1_565 S
C805 N813 1.427 . S
C806 H797 0.930 . S
C806 C804 1.378 . S
C806 C807 1.367 1_556 S
C807 C806 1.367 1_554 S
C807 C809 1.433 . S
C808 C804 1.350 . S
C808 C805 1.463 . S
C808 N812 1.427 1_556 S
C809 H799 0.929 . S
C809 C807 1.433 . S
C809 N812 1.384 . S
C810 H801 0.889 1_556 S
C810 C802 1.402 . S
C810 C805 1.366 1_545 S
C811 H798 0.929 . S
C811 C803 1.433 . S
C811 N813 1.384 1_545 S
N812 C808 1.427 1_554 S
N812 C809 1.384 . S
N813 C805 1.427 . S
N813 C811 1.384 1_565 S
H814 C820 0.930 . S
H815 C824 0.930 . S
H816 C829 0.929 . S
H817 C827 0.929 . S
H818 C822 0.929 . S
H819 C828 0.929 . S
C820 H814 0.930 . S
C820 C821 1.367 . S
C820 C828 1.378 . S
C821 C820 1.367 . S
C821 C829 1.433 . S
C822 H818 0.929 . S
C822 C824 1.378 . S
C822 C826 1.350 . S
C823 C826 1.463 . S
C823 C828 1.350 . S
C823 N831 1.427 . S
C824 H815 0.930 . S
C824 C822 1.378 . S
C824 C825 1.367 . S
C825 C824 1.367 . S
C825 C827 1.433 . S
C826 C822 1.350 . S
C826 C823 1.463 . S
C826 N830 1.427 . S
C827 H817 0.929 . S
C827 C825 1.433 . S
C827 N830 1.384 . S
C828 H819 0.929 . S
C828 C820 1.378 . S
C828 C823 1.350 . S
C829 H816 0.929 . S
C829 C821 1.433 . S
C829 N831 1.384 . S
N830 C826 1.427 . S
N830 C827 1.384 . S
N831 C823 1.427 . S
N831 C829 1.384 . S
H832 C838 0.930 1_565 S
H833 C842 0.930 . S
H834 C847 0.929 . S
H835 C845 0.929 . S
H836 C840 0.929 . S
H837 C846 0.929 . S
C838 H832 0.930 1_545 S
C838 C839 1.367 1_545 S
C838 C846 1.378 . S
C839 C838 1.367 1_565 S
C839 C847 1.430 1_565 S
C840 H836 0.929 . S
C840 C842 1.378 . S
C840 C844 1.350 . S
C841 C844 1.463 . S
C841 C846 1.350 . S
C841 N849 1.427 . S
C842 H833 0.930 . S
C842 C840 1.378 . S
C842 C843 1.367 . S
C843 C842 1.367 . S
C843 C845 1.433 . S
C844 C840 1.350 . S
C844 C841 1.463 . S
C844 N848 1.427 . S
C845 H835 0.929 . S
C845 C843 1.433 . S
C845 N848 1.384 . S
C846 H837 0.929 . S
C846 C838 1.378 . S
C846 C841 1.350 . S
C847 H834 0.929 . S
C847 C839 1.430 1_545 S
C847 N849 1.384 . S
N848 C844 1.427 . S
N848 C845 1.384 . S
N849 C841 1.427 . S
N849 C847 1.384 . S
H850 C856 0.930 . S
H851 C860 0.930 . S
H852 C865 0.929 . S
H853 C863 0.929 . S
H854 C858 0.929 . S
H855 C864 0.929 . S
C856 H850 0.930 . S
C856 C857 1.367 . S
C856 C864 1.378 . S
C857 C856 1.367 . S
C857 C865 1.433 . S
C858 H854 0.929 . S
C858 C860 1.378 . S
C858 C862 1.350 . S
C859 C862 1.463 . S
C859 C864 1.350 . S
C859 N867 1.427 . S
C860 H851 0.930 . S
C860 C858 1.378 . S
C860 C861 1.367 . S
C861 C860 1.367 . S
C861 C863 1.433 . S
C862 C858 1.350 . S
C862 C859 1.463 . S
C862 N866 1.427 . S
C863 H853 0.929 . S
C863 C861 1.433 . S
C863 N866 1.384 . S
C864 H855 0.929 . S
C864 C856 1.378 . S
C864 C859 1.350 . S
C865 H852 0.929 . S
C865 C857 1.433 . S
C865 N867 1.384 . S
N866 C862 1.427 . S
N866 C863 1.384 . S
N867 C859 1.427 . S
N867 C865 1.384 . S
H868 C874 0.930 . S
H869 C878 0.930 . S
H870 C883 0.929 . S
H871 C881 0.929 . S
H872 C876 0.929 . S
H873 C882 0.929 . S
C874 H868 0.930 . S
C874 C875 1.367 . S
C874 C882 1.378 . S
C875 C874 1.367 . S
C875 C883 1.433 . S
C876 H872 0.929 . S
C876 C878 1.378 . S
C876 C880 1.350 . S
C877 C880 1.463 . S
C877 C882 1.350 . S
C877 N885 1.427 . S
C878 H869 0.930 . S
C878 C876 1.378 . S
C878 C879 1.367 . S
C879 C878 1.367 . S
C879 C881 1.433 . S
C880 C876 1.350 . S
C880 C877 1.463 . S
C880 N884 1.427 . S
C881 H871 0.929 . S
C881 C879 1.433 . S
C881 N884 1.384 . S
C882 H873 0.929 . S
C882 C874 1.378 . S
C882 C877 1.350 . S
C883 H870 0.929 . S
C883 C875 1.433 . S
C883 N885 1.384 . S
N884 C880 1.427 . S
N884 C881 1.384 . S
N885 C877 1.427 . S
N885 C883 1.384 . S
H886 C892 0.930 . S
H887 C896 0.930 . S
H888 C901 0.929 . S
H889 C899 0.929 . S
H890 C894 0.929 . S
H891 C900 0.929 . S
C892 H886 0.930 . S
C892 C893 1.367 . S
C892 C900 1.378 . S
C893 C892 1.367 . S
C893 C901 1.433 . S
C894 H890 0.929 . S
C894 C896 1.378 . S
C894 C898 1.350 . S
C895 C898 1.463 . S
C895 C900 1.350 . S
C895 N903 1.427 . S
C896 H887 0.930 . S
C896 C894 1.378 . S
C896 C897 1.367 . S
C897 C896 1.367 . S
C897 C899 1.433 . S
C898 C894 1.350 . S
C898 C895 1.463 . S
C898 N902 1.427 . S
C899 H889 0.929 . S
C899 C897 1.433 . S
C899 N902 1.384 . S
C900 H891 0.929 . S
C900 C892 1.378 . S
C900 C895 1.350 . S
C901 H888 0.929 . S
C901 C893 1.433 . S
C901 N903 1.384 . S
N902 C898 1.427 . S
N902 C899 1.384 . S
N903 C895 1.427 . S
N903 C901 1.384 . S
H904 C910 0.930 . S
H905 C914 0.930 . S
H906 C919 0.929 . S
H907 C917 0.929 . S
H908 C912 0.929 . S
H909 C918 0.929 . S
C910 H904 0.930 . S
C910 C911 1.367 . S
C910 C918 1.378 . S
C911 C910 1.367 . S
C911 C919 1.433 . S
C912 H908 0.929 . S
C912 C914 1.378 . S
C912 C916 1.350 . S
C913 C916 1.463 . S
C913 C918 1.350 . S
C913 N921 1.427 . S
C914 H905 0.930 . S
C914 C912 1.378 . S
C914 C915 1.367 . S
C915 C914 1.367 . S
C915 C917 1.433 . S
C916 C912 1.350 . S
C916 C913 1.463 . S
C916 N920 1.427 . S
C917 H907 0.929 . S
C917 C915 1.433 . S
C917 N920 1.384 . S
C918 H909 0.929 . S
C918 C910 1.378 . S
C918 C913 1.350 . S
C919 H906 0.929 . S
C919 C911 1.433 . S
C919 N921 1.384 . S
N920 C916 1.427 . S
N920 C917 1.384 . S
N921 C913 1.427 . S
N921 C919 1.384 . S
H922 C928 0.930 . S
H923 C932 0.930 . S
H924 C937 0.929 . S
H925 C935 0.929 . S
H926 C930 0.929 . S
H927 C936 0.929 . S
C928 H922 0.930 . S
C928 C929 1.367 . S
C928 C936 1.378 . S
C929 C928 1.367 . S
C929 C937 1.433 . S
C930 H926 0.929 . S
C930 C932 1.378 . S
C930 C934 1.350 . S
C931 C934 1.463 . S
C931 C936 1.350 . S
C931 N939 1.427 . S
C932 H923 0.930 . S
C932 C930 1.378 . S
C932 C933 1.367 . S
C933 C932 1.367 . S
C933 C935 1.433 . S
C934 C930 1.350 . S
C934 C931 1.463 . S
C934 N938 1.427 . S
C935 H925 0.929 . S
C935 C933 1.433 . S
C935 N938 1.384 . S
C936 H927 0.929 . S
C936 C928 1.378 . S
C936 C931 1.350 . S
C937 H924 0.929 . S
C937 C929 1.433 . S
C937 N939 1.384 . S
N938 C934 1.427 . S
N938 C935 1.384 . S
N939 C931 1.427 . S
N939 C937 1.384 . S
H940 C946 0.930 . S
H941 C950 0.930 . S
H942 C955 0.929 . S
H943 C953 0.929 . S
H944 C948 0.929 . S
H945 C954 0.929 . S
C946 H940 0.930 . S
C946 C947 1.367 . S
C946 C954 1.378 . S
C947 C946 1.367 . S
C947 C955 1.433 . S
C948 H944 0.929 . S
C948 C950 1.378 . S
C948 C952 1.350 . S
C949 C952 1.463 . S
C949 C954 1.350 . S
C949 N957 1.427 . S
C950 H941 0.930 . S
C950 C948 1.378 . S
C950 C951 1.367 . S
C951 C950 1.367 . S
C951 C953 1.433 . S
C952 C948 1.350 . S
C952 C949 1.463 . S
C952 N956 1.427 . S
C953 H943 0.929 . S
C953 C951 1.433 . S
C953 N956 1.384 . S
C954 H945 0.929 . S
C954 C946 1.378 . S
C954 C949 1.350 . S
C955 H942 0.929 . S
C955 C947 1.433 . S
C955 N957 1.384 . S
N956 C952 1.427 . S
N956 C953 1.384 . S
N957 C949 1.427 . S
N957 C955 1.384 . S
H958 C964 0.930 . S
H959 C968 0.930 . S
H960 C973 0.929 . S
H961 C971 0.929 . S
H962 C966 0.929 . S
H963 C972 0.929 . S
C964 H958 0.930 . S
C964 C965 1.367 . S
C964 C972 1.378 . S
C965 C964 1.367 . S
C965 C973 1.433 . S
C966 H962 0.929 . S
C966 C968 1.378 . S
C966 C970 1.350 . S
C967 C970 1.463 . S
C967 C972 1.350 . S
C967 N975 1.427 . S
C968 H959 0.930 . S
C968 C966 1.378 . S
C968 C969 1.367 . S
C969 C968 1.367 . S
C969 C971 1.433 . S
C970 C966 1.350 . S
C970 C967 1.463 . S
C970 N974 1.427 . S
C971 H961 0.929 . S
C971 C969 1.433 . S
C971 N974 1.384 . S
C972 H963 0.929 . S
C972 C964 1.378 . S
C972 C967 1.350 . S
C973 H960 0.929 . S
C973 C965 1.433 . S
C973 N975 1.384 . S
N974 C970 1.427 . S
N974 C971 1.384 . S
N975 C967 1.427 . S
N975 C973 1.384 . S
H976 C982 0.930 . S
H977 C986 0.930 . S
H978 C991 0.929 . S
H979 C989 0.929 . S
H980 C984 0.929 . S
H981 C990 0.929 . S
C982 H976 0.930 . S
C982 C983 1.367 . S
C982 C990 1.378 . S
C983 C982 1.367 . S
C983 C991 1.433 . S
C984 H980 0.929 . S
C984 C986 1.378 . S
C984 C988 1.350 . S
C985 C988 1.463 . S
C985 C990 1.350 . S
C985 N993 1.427 . S
C986 H977 0.930 . S
C986 C984 1.378 . S
C986 C987 1.367 . S
C987 C986 1.367 . S
C987 C989 1.433 . S
C988 C984 1.350 . S
C988 C985 1.463 . S
C988 N992 1.427 . S
C989 H979 0.929 . S
C989 C987 1.433 . S
C989 N992 1.384 . S
C990 H981 0.929 . S
C990 C982 1.378 . S
C990 C985 1.350 . S
C991 H978 0.929 . S
C991 C983 1.433 . S
C991 N993 1.384 . S
N992 C988 1.427 . S
N992 C989 1.384 . S
N993 C985 1.427 . S
N993 C991 1.384 . S
H994 C1000 0.930 . S
H995 C1004 0.930 . S
H996 C1009 0.917 1_565 S
H997 C1007 0.929 . S
H998 C1002 0.929 . S
H999 C1008 0.929 . S
C1000 H994 0.930 . S
C1000 C1001 1.367 . S
C1000 C1008 1.378 . S
C1001 C1000 1.367 . S
C1001 C1009 1.433 . S
C1002 H998 0.929 . S
C1002 C1004 1.378 . S
C1002 C1006 1.350 . S
C1003 C1006 1.463 . S
C1003 C1008 1.350 . S
C1003 N1011 1.427 . S
C1004 H995 0.930 . S
C1004 C1002 1.378 . S
C1004 C1005 1.367 . S
C1005 C1004 1.367 . S
C1005 C1007 1.433 1_455 S
C1006 C1002 1.350 . S
C1006 C1003 1.463 . S
C1006 N1010 1.427 . S
C1007 H997 0.929 . S
C1007 C1005 1.433 1_655 S
C1007 N1010 1.384 1_655 S
C1008 H999 0.929 . S
C1008 C1000 1.378 . S
C1008 C1003 1.350 . S
C1009 H996 0.917 1_545 S
C1009 C1001 1.433 . S
C1009 N1011 1.384 . S
N1010 C1006 1.427 . S
N1010 C1007 1.384 1_455 S
N1011 C1003 1.427 . S
N1011 C1009 1.384 . S
H1012 C1018 0.930 . S
H1013 C1022 0.930 . S
H1014 C1027 0.929 . S
H1015 C1025 0.929 . S
H1016 C1020 0.929 . S
H1017 C1026 0.929 . S
C1018 H1012 0.930 . S
C1018 C1019 1.367 . S
C1018 C1026 1.378 . S
C1019 C1018 1.367 . S
C1019 C1027 1.433 . S
C1020 H1016 0.929 . S
C1020 C1022 1.378 . S
C1020 C1024 1.350 . S
C1021 C1024 1.463 . S
C1021 C1026 1.350 . S
C1021 N1029 1.427 . S
C1022 H1013 0.930 . S
C1022 C1020 1.378 . S
C1022 C1023 1.367 . S
C1023 C1022 1.367 . S
C1023 C1025 1.433 . S
C1024 C1020 1.350 . S
C1024 C1021 1.463 . S
C1024 N1028 1.427 . S
C1025 H1015 0.929 . S
C1025 C1023 1.433 . S
C1025 N1028 1.384 . S
C1026 H1017 0.929 . S
C1026 C1018 1.378 . S
C1026 C1021 1.350 . S
C1027 H1014 0.929 . S
C1027 C1019 1.433 . S
C1027 N1029 1.384 . S
N1028 C1024 1.427 . S
N1028 C1025 1.384 . S
N1029 C1021 1.427 . S
N1029 C1027 1.384 . S
H1030 C1036 0.930 1_655 S
H1031 C1040 0.930 . S
H1032 C1045 0.929 . S
H1033 C1043 0.929 . S
H1034 C1038 0.929 . S
H1035 C1044 0.929 . S
C1036 H1030 0.930 1_455 S
C1036 C1037 1.367 . S
C1036 C1044 1.378 . S
C1037 C1036 1.367 . S
C1037 C1045 1.433 . S
C1038 H1034 0.929 . S
C1038 C1040 1.378 . S
C1038 C1042 1.350 . S
C1039 C1042 1.463 . S
C1039 C1044 1.350 . S
C1039 N1047 1.427 . S
C1040 H1031 0.930 . S
C1040 C1038 1.378 . S
C1040 C1041 1.367 . S
C1041 C1040 1.367 . S
C1041 C1043 1.433 . S
C1042 C1038 1.350 . S
C1042 C1039 1.463 . S
C1042 N1046 1.427 . S
C1043 H1033 0.929 . S
C1043 C1041 1.433 . S
C1043 N1046 1.384 . S
C1044 H1035 0.929 . S
C1044 C1036 1.378 . S
C1044 C1039 1.350 . S
C1045 H1032 0.929 . S
C1045 C1037 1.433 . S
C1045 N1047 1.384 . S
N1046 C1042 1.427 . S
N1046 C1043 1.384 . S
N1047 C1039 1.427 . S
N1047 C1045 1.384 . S
H1048 C1054 0.930 . S
H1049 C1058 0.930 . S
H1050 C1063 0.929 . S
H1051 C1061 0.929 . S
H1052 C1056 0.929 . S
H1053 C1062 0.929 . S
C1054 H1048 0.930 . S
C1054 C1055 1.367 . S
C1054 C1062 1.378 . S
C1055 C1054 1.367 . S
C1055 C1063 1.433 . S
C1056 H1052 0.929 . S
C1056 C1058 1.378 . S
C1056 C1060 1.350 . S
C1057 C1060 1.463 . S
C1057 C1062 1.350 . S
C1057 N1065 1.427 . S
C1058 H1049 0.930 . S
C1058 C1056 1.378 . S
C1058 C1059 1.367 . S
C1059 C1058 1.367 . S
C1059 C1061 1.433 . S
C1060 C1056 1.350 . S
C1060 C1057 1.463 . S
C1060 N1064 1.427 . S
C1061 H1051 0.929 . S
C1061 C1059 1.433 . S
C1061 N1064 1.384 . S
C1062 H1053 0.929 . S
C1062 C1054 1.378 . S
C1062 C1057 1.350 . S
C1063 H1050 0.929 . S
C1063 C1055 1.433 . S
C1063 N1065 1.384 . S
N1064 C1060 1.427 . S
N1064 C1061 1.384 . S
N1065 C1057 1.427 . S
N1065 C1063 1.384 . S
H1066 C1072 0.930 . S
H1067 C1076 0.930 . S
H1068 C1081 0.929 1_554 S
H1069 C1079 0.929 . S
H1070 C1074 0.929 . S
H1071 C1080 0.929 1_455 S
C1072 H1066 0.930 . S
C1072 C1073 1.367 . S
C1072 C1080 1.378 . S
C1073 C1072 1.367 . S
C1073 C1081 1.433 . S
C1074 H1070 0.929 . S
C1074 C1076 1.378 . S
C1074 C1078 1.350 . S
C1075 C1078 1.463 . S
C1075 C1080 1.350 . S
C1075 N1083 1.427 . S
C1076 H1067 0.930 . S
C1076 C1074 1.378 . S
C1076 C1077 1.367 1_655 S
C1077 C1076 1.367 1_455 S
C1077 C1079 1.433 . S
C1078 C1074 1.350 . S
C1078 C1075 1.463 . S
C1078 N1082 1.427 1_655 S
C1079 H1069 0.929 . S
C1079 C1077 1.433 . S
C1079 N1082 1.384 . S
C1080 H1071 0.929 1_655 S
C1080 C1072 1.378 . S
C1080 C1075 1.350 . S
C1081 H1068 0.929 1_556 S
C1081 C1073 1.433 . S
C1081 N1083 1.384 . S
N1082 C1078 1.427 1_455 S
N1082 C1079 1.384 . S
N1083 C1075 1.427 . S
N1083 C1081 1.384 . S
H1084 C1090 0.930 . S
H1085 C1094 0.930 . S
H1086 C1099 0.929 . S
H1087 C1097 0.929 . S
H1088 C1092 0.929 . S
H1089 C1098 0.929 . S
C1090 H1084 0.930 . S
C1090 C1091 1.367 . S
C1090 C1098 1.378 . S
C1091 C1090 1.367 . S
C1091 C1099 1.433 . S
C1092 H1088 0.929 . S
C1092 C1094 1.378 . S
C1092 C1096 1.350 . S
C1093 C1096 1.463 . S
C1093 C1098 1.350 . S
C1093 N1101 1.427 . S
C1094 H1085 0.930 . S
C1094 C1092 1.378 . S
C1094 C1095 1.367 . S
C1095 C1094 1.367 . S
C1095 C1097 1.433 . S
C1096 C1092 1.350 . S
C1096 C1093 1.463 . S
C1096 N1100 1.427 . S
C1097 H1087 0.929 . S
C1097 C1095 1.433 . S
C1097 N1100 1.384 . S
C1098 H1089 0.929 . S
C1098 C1090 1.378 . S
C1098 C1093 1.350 . S
C1099 H1086 0.929 . S
C1099 C1091 1.433 . S
C1099 N1101 1.384 . S
N1100 C1096 1.427 . S
N1100 C1097 1.384 . S
N1101 C1093 1.427 . S
N1101 C1099 1.384 . S
H1102 C1108 0.930 . S
H1103 C1112 0.930 1_655 S
H1104 C1117 0.929 . S
H1105 C1115 0.929 . S
H1106 C1110 0.947 . S
H1107 C1116 0.929 . S
C1108 H1102 0.930 . S
C1108 C1109 1.367 . S
C1108 C1116 1.378 . S
C1109 C1108 1.367 . S
C1109 C1117 1.433 . S
C1110 H1106 0.947 . S
C1110 C1112 1.378 . S
C1110 C1114 1.350 . S
C1111 C1114 1.463 . S
C1111 C1116 1.350 . S
C1111 N1119 1.427 . S
C1112 H1103 0.930 1_455 S
C1112 C1110 1.378 . S
C1112 C1113 1.367 . S
C1113 C1112 1.367 . S
C1113 C1115 1.433 . S
C1114 C1110 1.350 . S
C1114 C1111 1.463 . S
C1114 N1118 1.427 . S
C1115 H1105 0.929 . S
C1115 C1113 1.433 . S
C1115 N1118 1.384 . S
C1116 H1107 0.929 . S
C1116 C1108 1.378 . S
C1116 C1111 1.350 . S
C1117 H1104 0.929 . S
C1117 C1109 1.433 . S
C1117 N1119 1.384 . S
N1118 C1114 1.427 . S
N1118 C1115 1.384 . S
N1119 C1111 1.427 . S
N1119 C1117 1.384 . S
H1120 C1126 0.930 . S
H1121 C1130 0.930 . S
H1122 C1135 0.929 . S
H1123 C1133 0.929 . S
H1124 C1128 0.929 . S
H1125 C1134 0.929 . S
C1126 H1120 0.930 . S
C1126 C1127 1.367 . S
C1126 C1134 1.378 . S
C1127 C1126 1.367 . S
C1127 C1135 1.433 . S
C1128 H1124 0.929 . S
C1128 C1130 1.378 . S
C1128 C1132 1.350 . S
C1129 C1132 1.463 . S
C1129 C1134 1.350 . S
C1129 N1137 1.427 . S
C1130 H1121 0.930 . S
C1130 C1128 1.378 . S
C1130 C1131 1.367 . S
C1131 C1130 1.367 . S
C1131 C1133 1.433 . S
C1132 C1128 1.350 . S
C1132 C1129 1.463 . S
C1132 N1136 1.427 . S
C1133 H1123 0.929 . S
C1133 C1131 1.433 . S
C1133 N1136 1.384 . S
C1134 H1125 0.929 . S
C1134 C1126 1.378 . S
C1134 C1129 1.350 . S
C1135 H1122 0.929 . S
C1135 C1127 1.433 . S
C1135 N1137 1.384 . S
N1136 C1132 1.427 . S
N1136 C1133 1.384 . S
N1137 C1129 1.427 . S
N1137 C1135 1.384 . S
H1138 C1144 0.930 . S
H1139 C1148 0.930 . S
H1140 C1153 0.929 . S
H1141 C1151 0.929 . S
H1142 C1146 0.929 . S
H1143 C1152 0.929 . S
C1144 H1138 0.930 . S
C1144 C1145 1.367 . S
C1144 C1152 1.378 . S
C1145 C1144 1.367 . S
C1145 C1153 1.433 . S
C1146 H1142 0.929 . S
C1146 C1148 1.378 . S
C1146 C1150 1.350 . S
C1147 C1150 1.463 . S
C1147 C1152 1.350 . S
C1147 N1155 1.427 . S
C1148 H1139 0.930 . S
C1148 C1146 1.378 . S
C1148 C1149 1.367 . S
C1149 C1148 1.367 . S
C1149 C1151 1.433 . S
C1150 C1146 1.350 . S
C1150 C1147 1.463 . S
C1150 N1154 1.427 . S
C1151 H1141 0.929 . S
C1151 C1149 1.433 . S
C1151 N1154 1.384 . S
C1152 H1143 0.929 . S
C1152 C1144 1.378 . S
C1152 C1147 1.350 . S
C1153 H1140 0.929 . S
C1153 C1145 1.433 . S
C1153 N1155 1.384 . S
N1154 C1150 1.427 . S
N1154 C1151 1.384 . S
N1155 C1147 1.427 . S
N1155 C1153 1.384 . S
H1156 C1162 0.930 . S
H1157 C1166 0.930 . S
H1158 C1171 0.929 . S
H1159 C1169 0.929 . S
H1160 C1164 0.929 . S
H1161 C1170 0.929 . S
C1162 H1156 0.930 . S
C1162 C1163 1.367 . S
C1162 C1170 1.378 . S
C1163 C1162 1.367 . S
C1163 C1171 1.433 . S
C1164 H1160 0.929 . S
C1164 C1166 1.378 . S
C1164 C1168 1.350 . S
C1165 C1168 1.463 . S
C1165 C1170 1.350 . S
C1165 N1173 1.427 . S
C1166 H1157 0.930 . S
C1166 C1164 1.378 . S
C1166 C1167 1.367 . S
C1167 C1166 1.367 . S
C1167 C1169 1.433 . S
C1168 C1164 1.350 . S
C1168 C1165 1.463 . S
C1168 N1172 1.427 . S
C1169 H1159 0.929 . S
C1169 C1167 1.433 . S
C1169 N1172 1.384 . S
C1170 H1161 0.929 . S
C1170 C1162 1.378 . S
C1170 C1165 1.350 . S
C1171 H1158 0.929 . S
C1171 C1163 1.433 . S
C1171 N1173 1.384 . S
N1172 C1168 1.427 . S
N1172 C1169 1.384 . S
N1173 C1165 1.427 . S
N1173 C1171 1.384 . S
H1174 C1180 0.930 . S
H1175 C1184 0.930 . S
H1176 C1189 0.929 . S
H1177 C1187 0.929 . S
H1178 C1182 0.929 . S
H1179 C1188 0.929 . S
C1180 H1174 0.930 . S
C1180 C1181 1.367 . S
C1180 C1188 1.378 1_556 S
C1181 C1180 1.367 . S
C1181 C1189 1.431 . S
C1182 H1178 0.929 . S
C1182 C1184 1.378 . S
C1182 C1186 1.350 . S
C1183 C1186 1.463 . S
C1183 C1188 1.350 . S
C1183 N1191 1.427 . S
C1184 H1175 0.930 . S
C1184 C1182 1.378 . S
C1184 C1185 1.367 . S
C1185 C1184 1.367 . S
C1185 C1187 1.433 . S
C1186 C1182 1.350 . S
C1186 C1183 1.463 . S
C1186 N1190 1.427 . S
C1187 H1177 0.929 . S
C1187 C1185 1.433 . S
C1187 N1190 1.384 . S
C1188 H1179 0.929 . S
C1188 C1180 1.378 1_554 S
C1188 C1183 1.350 . S
C1189 H1176 0.929 . S
C1189 C1181 1.431 . S
C1189 N1191 1.386 1_556 S
N1190 C1186 1.427 . S
N1190 C1187 1.384 . S
N1191 C1183 1.427 . S
N1191 C1189 1.386 1_554 S
H1192 C1198 0.930 . S
H1193 C1202 0.930 . S
H1194 C1207 0.929 . S
H1195 C1205 0.929 . S
H1196 C1200 0.929 . S
H1197 C1206 0.929 . S
C1198 H1192 0.930 . S
C1198 C1199 1.367 . S
C1198 C1206 1.378 . S
C1199 C1198 1.367 . S
C1199 C1207 1.433 . S
C1200 H1196 0.929 . S
C1200 C1202 1.378 . S
C1200 C1204 1.350 . S
C1201 C1204 1.463 . S
C1201 C1206 1.350 . S
C1201 N1209 1.427 . S
C1202 H1193 0.930 . S
C1202 C1200 1.378 . S
C1202 C1203 1.367 . S
C1203 C1202 1.367 . S
C1203 C1205 1.433 . S
C1204 C1200 1.350 . S
C1204 C1201 1.463 . S
C1204 N1208 1.427 . S
C1205 H1195 0.929 . S
C1205 C1203 1.433 . S
C1205 N1208 1.384 . S
C1206 H1197 0.929 . S
C1206 C1198 1.378 . S
C1206 C1201 1.350 . S
C1207 H1194 0.929 . S
C1207 C1199 1.433 . S
C1207 N1209 1.384 . S
N1208 C1204 1.427 . S
N1208 C1205 1.384 . S
N1209 C1201 1.427 . S
N1209 C1207 1.384 . S
H1210 C1216 0.930 . S
H1211 C1220 0.930 . S
H1212 C1225 0.929 . S
H1213 C1223 0.929 . S
H1214 C1218 0.929 . S
H1215 C1224 0.929 . S
C1216 H1210 0.930 . S
C1216 C1217 1.367 . S
C1216 C1224 1.378 . S
C1217 C1216 1.367 . S
C1217 C1225 1.433 . S
C1218 H1214 0.929 . S
C1218 C1220 1.378 . S
C1218 C1222 1.350 . S
C1219 C1222 1.463 . S
C1219 C1224 1.350 . S
C1219 N1227 1.427 . S
C1220 H1211 0.930 . S
C1220 C1218 1.378 . S
C1220 C1221 1.367 . S
C1221 C1220 1.367 . S
C1221 C1223 1.433 . S
C1222 C1218 1.350 . S
C1222 C1219 1.463 . S
C1222 N1226 1.427 . S
C1223 H1213 0.929 . S
C1223 C1221 1.433 . S
C1223 N1226 1.384 . S
C1224 H1215 0.929 . S
C1224 C1216 1.378 . S
C1224 C1219 1.350 . S
C1225 H1212 0.929 . S
C1225 C1217 1.433 . S
C1225 N1227 1.384 . S
N1226 C1222 1.427 . S
N1226 C1223 1.384 . S
N1227 C1219 1.427 . S
N1227 C1225 1.384 . S
H1228 C1234 0.930 . S
H1229 C1238 0.930 . S
H1230 C1243 0.929 . S
H1231 C1241 0.929 . S
H1232 C1236 0.929 . S
H1233 C1242 0.929 . S
C1234 H1228 0.930 . S
C1234 C1235 1.367 . S
C1234 C1242 1.378 . S
C1235 C1234 1.367 . S
C1235 C1243 1.433 . S
C1236 H1232 0.929 . S
C1236 C1238 1.378 . S
C1236 C1240 1.350 . S
C1237 C1240 1.463 . S
C1237 C1242 1.350 . S
C1237 N1245 1.427 . S
C1238 H1229 0.930 . S
C1238 C1236 1.378 . S
C1238 C1239 1.367 . S
C1239 C1238 1.367 . S
C1239 C1241 1.433 . S
C1240 C1236 1.350 . S
C1240 C1237 1.463 . S
C1240 N1244 1.427 . S
C1241 H1231 0.929 . S
C1241 C1239 1.433 . S
C1241 N1244 1.384 . S
C1242 H1233 0.929 . S
C1242 C1234 1.378 . S
C1242 C1237 1.350 . S
C1243 H1230 0.929 . S
C1243 C1235 1.433 . S
C1243 N1245 1.384 . S
N1244 C1240 1.427 . S
N1244 C1241 1.384 . S
N1245 C1237 1.427 . S
N1245 C1243 1.384 . S
H1246 C1252 0.930 . S
H1247 C1256 0.930 . S
H1248 C1261 0.929 . S
H1249 C1259 0.929 . S
H1250 C1254 0.929 . S
H1251 C1260 0.929 . S
C1252 H1246 0.930 . S
C1252 C1253 1.367 . S
C1252 C1260 1.378 . S
C1253 C1252 1.367 . S
C1253 C1261 1.433 . S
C1254 H1250 0.929 . S
C1254 C1256 1.378 . S
C1254 C1258 1.350 . S
C1255 C1258 1.463 . S
C1255 C1260 1.350 . S
C1255 N1263 1.427 . S
C1256 H1247 0.930 . S
C1256 C1254 1.378 . S
C1256 C1257 1.367 . S
C1257 C1256 1.367 . S
C1257 C1259 1.433 . S
C1258 C1254 1.350 . S
C1258 C1255 1.463 . S
C1258 N1262 1.427 . S
C1259 H1249 0.929 . S
C1259 C1257 1.433 . S
C1259 N1262 1.384 . S
C1260 H1251 0.929 . S
C1260 C1252 1.378 . S
C1260 C1255 1.350 . S
C1261 H1248 0.929 . S
C1261 C1253 1.433 . S
C1261 N1263 1.384 . S
N1262 C1258 1.427 . S
N1262 C1259 1.384 . S
N1263 C1255 1.427 . S
N1263 C1261 1.384 . S
H1264 C1270 0.930 . S
H1265 C1274 0.930 . S
H1266 C1279 0.929 1_554 S
H1267 C1277 0.929 . S
H1268 C1272 0.929 . S
H1269 C1278 0.929 . S
C1270 H1264 0.930 . S
C1270 C1271 1.367 . S
C1270 C1278 1.378 . S
C1271 C1270 1.367 . S
C1271 C1279 1.433 . S
C1272 H1268 0.929 . S
C1272 C1274 1.378 . S
C1272 C1276 1.350 1_554 S
C1273 C1276 1.463 . S
C1273 C1278 1.350 . S
C1273 N1281 1.430 . S
C1274 H1265 0.930 . S
C1274 C1272 1.378 . S
C1274 C1275 1.367 1_554 S
C1275 C1274 1.367 1_556 S
C1275 C1277 1.433 . S
C1276 C1272 1.350 1_556 S
C1276 C1273 1.463 . S
C1276 N1280 1.427 . S
C1277 H1267 0.929 . S
C1277 C1275 1.433 . S
C1277 N1280 1.384 . S
C1278 H1269 0.929 . S
C1278 C1270 1.378 . S
C1278 C1273 1.350 . S
C1279 H1266 0.929 1_556 S
C1279 C1271 1.433 . S
C1279 N1281 1.383 . S
N1280 C1276 1.427 . S
N1280 C1277 1.384 . S
N1281 C1273 1.430 . S
N1281 C1279 1.383 . S
H1282 C1288 0.930 . S
H1283 C1292 0.930 . S
H1284 C1297 0.929 . S
H1285 C1295 0.929 . S
H1286 C1290 0.929 . S
H1287 C1296 0.929 . S
C1288 H1282 0.930 . S
C1288 C1289 1.367 . S
C1288 C1296 1.378 . S
C1289 C1288 1.367 . S
C1289 C1297 1.433 . S
C1290 H1286 0.929 . S
C1290 C1292 1.378 . S
C1290 C1294 1.350 . S
C1291 C1294 1.463 . S
C1291 C1296 1.350 . S
C1291 N1299 1.427 . S
C1292 H1283 0.930 . S
C1292 C1290 1.378 . S
C1292 C1293 1.367 . S
C1293 C1292 1.367 . S
C1293 C1295 1.433 . S
C1294 C1290 1.350 . S
C1294 C1291 1.463 . S
C1294 N1298 1.427 . S
C1295 H1285 0.929 . S
C1295 C1293 1.433 . S
C1295 N1298 1.384 . S
C1296 H1287 0.929 . S
C1296 C1288 1.378 . S
C1296 C1291 1.350 . S
C1297 H1284 0.929 . S
C1297 C1289 1.433 . S
C1297 N1299 1.384 . S
N1298 C1294 1.427 . S
N1298 C1295 1.384 . S
N1299 C1291 1.427 . S
N1299 C1297 1.384 . S
H1300 C1306 0.930 . S
H1301 C1310 0.930 . S
H1302 C1315 0.929 . S
H1303 C1313 0.929 . S
H1304 C1308 0.929 . S
H1305 C1314 0.929 . S
C1306 H1300 0.930 . S
C1306 C1307 1.367 . S
C1306 C1314 1.378 . S
C1307 C1306 1.367 . S
C1307 C1315 1.433 . S
C1308 H1304 0.929 . S
C1308 C1310 1.378 . S
C1308 C1312 1.350 . S
C1309 C1312 1.463 . S
C1309 C1314 1.350 . S
C1309 N1317 1.427 . S
C1310 H1301 0.930 . S
C1310 C1308 1.378 . S
C1310 C1311 1.367 . S
C1311 C1310 1.367 . S
C1311 C1313 1.433 . S
C1312 C1308 1.350 . S
C1312 C1309 1.463 . S
C1312 N1316 1.427 . S
C1313 H1303 0.929 . S
C1313 C1311 1.433 . S
C1313 N1316 1.384 . S
C1314 H1305 0.929 . S
C1314 C1306 1.378 . S
C1314 C1309 1.350 . S
C1315 H1302 0.929 . S
C1315 C1307 1.433 . S
C1315 N1317 1.384 . S
N1316 C1312 1.427 . S
N1316 C1313 1.384 . S
N1317 C1309 1.427 . S
N1317 C1315 1.384 . S
H1318 C1324 0.930 . S
H1319 C1328 0.930 . S
H1320 C1333 0.929 . S
H1321 C1331 0.929 . S
H1322 C1326 0.929 . S
H1323 C1332 0.929 . S
C1324 H1318 0.930 . S
C1324 C1325 1.367 1_545 S
C1324 C1332 1.378 1_545 S
C1325 C1324 1.367 1_565 S
C1325 C1333 1.433 . S
C1326 H1322 0.929 . S
C1326 C1328 1.378 . S
C1326 C1330 1.350 . S
C1327 C1330 1.463 . S
C1327 C1332 1.350 . S
C1327 N1335 1.427 . S
C1328 H1319 0.930 . S
C1328 C1326 1.378 . S
C1328 C1329 1.367 . S
C1329 C1328 1.367 . S
C1329 C1331 1.433 . S
C1330 C1326 1.350 . S
C1330 C1327 1.463 . S
C1330 N1334 1.427 . S
C1331 H1321 0.929 . S
C1331 C1329 1.433 . S
C1331 N1334 1.384 . S
C1332 H1323 0.929 . S
C1332 C1324 1.378 1_565 S
C1332 C1327 1.350 . S
C1333 H1320 0.929 . S
C1333 C1325 1.433 . S
C1333 N1335 1.384 . S
N1334 C1330 1.427 . S
N1334 C1331 1.384 . S
N1335 C1327 1.427 . S
N1335 C1333 1.384 . S
C483 C312 1.890 1_556 S
C479 C101 1.929 . S
C501 C325 1.142 . S
C497 C125 1.096 . S
C515 C139 2.125 . S
C519 C345 1.985 . S
C537 C359 1.557 1_455 S
C533 C82 1.690 . S
C555 C371 1.641 . S
C551 C196 1.655 . S
C573 C385 1.764 . S
C569 C234 1.772 . S
C587 C220 0.801 . S
C591 C395 0.845 . S
C609 C410 1.674 1_565 S
C605 C173 1.694 . S
C623 C211 1.102 . S
C627 C424 1.054 . S
C645 C443 0.962 . S
C641 C182 0.968 . S
C659 C201 1.306 . S
C663 C423 1.432 . S
C681 C441 1.284 . S
C677 C239 1.213 . S
C695 C135 1.805 . S
C699 C457 1.713 . S
C713 C87 1.778 . S
C717 C451 1.933 . S
C731 C106 1.201 . S
C735 C455 1.337 . S
C749 C116 1.268 . S
C753 C452 1.277 1_455 S
C767 C59 1.875 . S
C771 C354 1.858 . S
C785 C268 2.149 . S
C789 C353 2.142 . S
C807 C317 1.202 . S
C803 C291 1.229 . S
C825 C331 1.484 . S
C821 C163 1.485 . S
C839 C78 2.030 . S
C843 C368 2.036 . S
C861 C413 1.227 . S
C857 C215 1.222 . S
C879 C367 1.553 . S
C875 C177 1.566 1_545 S
C897 C399 1.757 . S
C893 C230 1.744 . S
C915 C396 1.888 . S
C911 C272 1.924 . S
C929 C296 1.097 . S
C933 C409 1.142 . S
C947 C158 2.124 . S
C951 C373 1.983 . S
C969 C387 1.546 . S
C965 C253 1.690 . S
C983 C63 1.655 . S
C987 C343 1.637 . S
C1005 C357 1.763 1_455 S
C1001 C6 1.769 . S
C1023 C311 0.840 . S
C1019 C30 0.793 . S
C1041 C326 1.680 . S
C1037 C40 1.698 1_455 S
C1055 C21 1.092 . S
C1059 C438 1.046 . S
C1073 C49 0.943 . S
C1077 C429 0.987 . S
C1091 C68 1.326 . S
C1095 C437 1.441 . S
C1109 C11 1.207 . S
C1113 C427 1.293 . S
C1131 C471 1.715 . S
C1127 C154 1.804 . S
C1149 C465 1.933 . S
C1145 C258 1.792 . S
C1167 C469 1.341 . S
C1163 C277 1.178 . S
C1181 C287 1.278 . S
C1185 C466 1.274 . S
C1199 C192 1.875 . S
C1203 C382 1.864 . S
C1221 C381 2.147 . S
C1217 C97 2.149 . S
C1239 C401 1.198 . S
C1235 C120 1.233 . S
C1257 C415 1.491 . S
C1253 C144 1.465 . S
C1271 C249 2.020 . S
C1275 C340 2.041 . S
C1293 C329 1.227 . S
C1289 C25 1.223 . S
C1307 C44 1.560 . S
C1311 C339 1.546 . S
C1329 C315 1.755 . S
C1325 C2 1.744 1_565 S
