# Generated by pormake.
# Topology ftw, (4,12)-cn, num edge types: 1
# Building blocks:
#     Node 0, Type 0, BuildingBlock: MUDLON_clean_linker_0, # of connection points: 4
#     Node 1, Type 0, BuildingBlock: MUDLON_clean_linker_0, # of connection points: 4
#     Node 2, Type 0, BuildingBlock: MUDLON_clean_linker_0, # of connection points: 4
#     Node 3, Type 1, BuildingBlock: EZIPEK_clean_sbu_0, # of connection points: 12
#     Edge 4, Type (0, 1), BuildingBlock: TEMPAE_clean_linker_10, # of connection points: 2
#     Edge 5, Type (0, 1), BuildingBlock: TEMPAE_clean_linker_10, # of connection points: 2
#     Edge 6, Type (0, 1), BuildingBlock: TEMPAE_clean_linker_10, # of connection points: 2
#     Edge 7, Type (0, 1), BuildingBlock: TEMPAE_clean_linker_10, # of connection points: 2
#     Edge 8, Type (0, 1), BuildingBlock: TEMPAE_clean_linker_10, # of connection points: 2
#     Edge 9, Type (0, 1), BuildingBlock: TEMPAE_clean_linker_10, # of connection points: 2
#     Edge 10, Type (0, 1), BuildingBlock: TEMPAE_clean_linker_10, # of connection points: 2
#     Edge 11, Type (0, 1), BuildingBlock: TEMPAE_clean_linker_10, # of connection points: 2
#     Edge 12, Type (0, 1), BuildingBlock: TEMPAE_clean_linker_10, # of connection points: 2
#     Edge 13, Type (0, 1), BuildingBlock: TEMPAE_clean_linker_10, # of connection points: 2
#     Edge 14, Type (0, 1), BuildingBlock: TEMPAE_clean_linker_10, # of connection points: 2
#     Edge 15, Type (0, 1), BuildingBlock: TEMPAE_clean_linker_10, # of connection points: 2
# Relax obj value: 0.080
# Max RMSD: 0.225
# Mean RMSD: 0.171
data_MOF--net-ftw--node1-EZIPEK_clean_sbu_0--node2-MUDLON_clean_linker_0--edge1-TEMPAE_clean_linker_10
_symmetry_space_group_name_H-M    P1
_symmetry_Int_Tables_number       1
_symmetry_cell_setting            triclinic
loop_
_symmetry_equiv_pos_as_xyz
'x, y, z'
_cell_length_a     29.783976
_cell_length_b     32.688102
_cell_length_c     30.365126
_cell_angle_alpha  89.859861
_cell_angle_beta   89.987127
_cell_angle_gamma 89.896202
loop_
_atom_site_label
_atom_site_type_symbol
_atom_site_fract_x
_atom_site_fract_y
_atom_site_fract_z
_atom_type_partial_charge
H0 H 0.9293 0.72007 0.57446 0.0
N1 N 0.99048 0.67454 0.53367 0.0
H2 H 0.93742 0.75836 0.64301 0.0
H3 H 0.06697 0.68079 0.58312 0.0
H4 H 0.07529 0.71773 0.65293 0.0
H5 H 0.06575 0.71243 0.50212 0.0
H6 H 0.07278 0.74967 0.43213 0.0
H7 H 0.92801 0.68461 0.47195 0.0
H8 H 0.93467 0.72098 0.40166 0.0
H9 H 0.93415 0.61638 0.56044 0.0
H10 H 0.06743 0.63474 0.50946 0.0
H11 H 0.94664 0.54241 0.56199 0.0
H12 H 0.07977 0.56081 0.50864 0.0
H13 H 0.96818 0.34488 0.57556 0.0
H14 H 0.96336 0.30646 0.64461 0.0
H15 H 0.10797 0.31159 0.65685 0.0
H16 H 0.11214 0.34742 0.58627 0.0
H17 H 0.11008 0.3548 0.47661 0.0
H18 H 0.10497 0.31745 0.40701 0.0
H19 H 0.96355 0.29732 0.43048 0.0
H20 H 0.96891 0.33612 0.49899 0.0
H21 H 0.96527 0.40951 0.51955 0.0
H22 H 0.95274 0.48354 0.51876 0.0
H23 H 0.09248 0.5026 0.55151 0.0
N24 N 0.04471 0.37019 0.53415 0.0
H25 H 0.10471 0.42863 0.54993 0.0
C26 C -0.00272 0.69742 0.57379 0.0
C27 C 0.96128 0.71961 0.59142 0.0
C28 C 0.96596 0.74117 0.63094 0.0
C29 C 0.0069 0.7409 0.65423 0.0
C30 C 0.04332 0.71899 0.63602 0.0
C31 C 0.03862 0.6976 0.59615 0.0
C32 C -0.00382 0.6959 0.49231 0.0
C33 C 0.0371 0.71416 0.48028 0.0
C34 C 0.04108 0.73525 0.44007 0.0
C35 C 0.00422 0.73859 0.41108 0.0
C36 C 0.96357 0.71973 0.42326 0.0
C37 C 0.9597 0.6987 0.46332 0.0
C38 C -0.00041 0.63109 0.53463 0.0
C39 C 0.96607 0.60429 0.54931 0.0
C40 C 0.97321 0.56191 0.54974 0.0
C41 C 0.01418 0.54509 0.53511 0.0
C42 C 0.04797 0.57228 0.52071 0.0
C43 C 0.04089 0.61476 0.52077 0.0
C44 C 0.04068 0.34821 0.57527 0.0
C45 C -0.0012 0.33706 0.59278 0.0
C46 C -0.00384 0.31556 0.63283 0.0
C47 C 0.03531 0.30541 0.65678 0.0
C48 C 0.07706 0.31767 0.63927 0.0
C49 C 0.07961 0.3385 0.59898 0.0
C50 C 0.04014 0.34804 0.49326 0.0
C51 C 0.07801 0.34236 0.46656 0.0
C52 C 0.07499 0.32071 0.42688 0.0
C53 C 0.03386 0.3039 0.41288 0.0
C54 C -0.00428 0.31007 0.43966 0.0
C55 C -0.00121 0.33201 0.47928 0.0
C56 C 0.03609 0.41363 0.53437 0.0
C57 C -0.00684 0.42972 0.52623 0.0
C58 C 0.98605 0.47222 0.52623 0.0
C59 C 0.0216 0.49959 0.53498 0.0
C60 C 0.06438 0.48296 0.5437 0.0
C61 C 0.07146 0.44059 0.54321 0.0
H62 H 0.4683 0.87798 0.34817 0.0
N63 N 0.51947 0.92999 0.39322 0.0
H64 H 0.39592 0.89164 0.31269 0.0
H65 H 0.47268 1.00343 0.39237 0.0
H66 H 0.4001 1.01598 0.36082 0.0
H67 H 0.5349 0.98606 0.32718 0.0
H68 H 0.60528 0.99549 0.2877 0.0
H69 H 0.58981 0.87976 0.39252 0.0
H70 H 0.66067 0.88902 0.35223 0.0
H71 H 0.4968 0.90366 0.47325 0.0
H72 H 0.55863 1.00548 0.40591 0.0
H73 H 0.49965 0.94205 0.54233 0.0
H74 H 0.55933 0.04418 0.47304 0.0
H75 H 0.49222 0.03388 0.7256 0.0
H76 H 0.42068 0.02841 0.76297 0.0
H77 H 0.38051 0.14558 0.71012 0.0
H78 H 0.45337 0.15128 0.67234 0.0
H79 H 0.56964 0.15486 0.70347 0.0
H80 H 0.64189 0.1473 0.74137 0.0
H81 H 0.63022 1.01576 0.73169 0.0
H82 H 0.56016 0.02369 0.69183 0.0
H83 H 0.45563 0.03902 0.63921 0.0
H84 H 0.46165 0.99766 0.57423 0.0
H85 H 0.5885 0.05467 0.54248 0.0
N86 N 0.51882 0.09571 0.66971 0.0
H87 H 0.5812 0.09844 0.60665 0.0
C88 C 0.47628 0.93913 0.37347 0.0
C89 C 0.45351 0.90816 0.35082 0.0
C90 C 0.41193 0.91596 0.331 0.0
C91 C 0.392 0.95497 0.33392 0.0
C92 C 0.41462 0.98579 0.35711 0.0
C93 C 0.45641 0.97829 0.37592 0.0
C94 C 0.55704 0.93208 0.36318 0.0
C95 C 0.56156 0.96405 0.33228 0.0
C96 C 0.60198 0.96972 0.30998 0.0
C97 C 0.63837 0.94331 0.31755 0.0
C98 C 0.633 0.9098 0.346 0.0
C99 C 0.59266 0.90442 0.36882 0.0
C100 C 0.52737 0.95125 0.43423 0.0
C101 C 0.51146 0.93395 0.47344 0.0
C102 C 0.51261 0.95619 0.51267 0.0
C103 C 0.52921 0.99651 0.51322 0.0
C104 C 0.54694 1.01308 0.47425 0.0
C105 C 0.54648 0.99068 0.43539 0.0
C106 C 0.47853 0.09336 0.69612 0.0
C107 C 0.46887 0.05898 0.72255 0.0
C108 C 0.42751 0.05552 0.7435 0.0
C109 C 0.395 0.08631 0.73886 0.0
C110 C 0.40512 0.12141 0.71406 0.0
C111 C 0.44655 0.12473 0.69263 0.0
C112 C 0.55922 0.09005 0.69534 0.0
C113 C 0.58274 0.1245 0.70991 0.0
C114 C 0.62387 0.12007 0.73156 0.0
C115 C 0.64198 0.08091 0.73929 0.0
C116 C 0.61775 0.04638 0.72553 0.0
C117 C 0.5771 0.05086 0.70347 0.0
C118 C 0.51888 0.0718 0.62935 0.0
C119 C 0.48509 0.04308 0.61896 0.0
C120 C 0.48863 1.01876 0.58147 0.0
C121 C 0.52597 1.02209 0.55344 0.0
C122 C 0.55906 0.05132 0.56309 0.0
C123 C 0.55505 0.07631 0.6 0.0
H124 H 0.49085 0.32942 0.0566 0.0
N125 N 0.51874 0.37313 0.98419 0.0
H126 H 0.42094 0.29165 0.06418 0.0
H127 H 0.45274 0.36687 0.92561 0.0
H128 H 0.38166 0.32972 0.93336 0.0
H129 H 0.56695 0.33589 0.92268 0.0
H130 H 0.6366 0.29728 0.93209 0.0
H131 H 0.5626 0.35963 0.06201 0.0
H132 H 0.63051 0.3187 0.07255 0.0
H133 H 0.47541 0.40775 0.05553 0.0
H134 H 0.56566 0.43337 0.94787 0.0
H135 H 0.47612 0.47917 0.07623 0.0
H136 H 0.56995 0.5046 0.97081 0.0
H137 H 0.47887 0.71496 0.13353 0.0
H138 H 0.40924 0.75376 0.12481 0.0
H139 H 0.39709 0.7088 0.9915 0.0
H140 H 0.46775 0.67269 0.99962 0.0
H141 H 0.54593 0.71077 1.00055 0.0
H142 H 0.61515 0.75021 0.99132 0.0
H143 H 0.65552 0.71712 0.1234 0.0
H144 H 0.58588 0.67823 0.1324 0.0
H145 H 0.51101 0.60452 0.12742 0.0
H146 H 0.51381 0.53214 0.10798 0.0
H147 H 0.53326 0.56568 0.97125 0.0
N148 N 0.52024 0.66864 0.07442 0.0
H149 H 0.53463 0.6373 0.99196 0.0
C150 C 0.47733 0.3508 0.99017 0.0
C151 C 0.46755 0.32952 0.02935 0.0
C152 C 0.42716 0.30824 0.03387 0.0
C153 C 0.39561 0.3077 0.99941 0.0
C154 C 0.40541 0.32915 0.96036 0.0
C155 C 0.44584 0.3505 0.95591 0.0
C156 C 0.55933 0.35002 0.99155 0.0
C157 C 0.58084 0.33218 0.95541 0.0
C158 C 0.62048 0.30987 0.96101 0.0
C159 C 0.63922 0.30434 1.0032 0.0
C160 C 0.61754 0.32256 0.0395 0.0
C161 C 0.57825 0.3455 0.03368 0.0
C162 C 0.5199 0.41504 0.99929 0.0
C163 C 0.49576 0.42855 0.03638 0.0
C164 C 0.49672 0.46975 0.0487 0.0
C165 C 0.52292 0.49829 0.0252 0.0
C166 C 0.54828 0.48418 0.98911 0.0
C167 C 0.54631 0.44326 0.97613 0.0
C168 C 0.47854 0.69042 0.06771 0.0
C169 C 0.46108 0.71361 0.10246 0.0
C170 C 0.42099 0.73545 0.09746 0.0
C171 C 0.39699 0.73424 0.05752 0.0
C172 C 0.41468 0.71096 1.0226 0.0
C173 C 0.45519 0.6897 0.02743 0.0
C174 C 0.56079 0.6917 0.06737 0.0
C175 C 0.56974 0.71191 0.02741 0.0
C176 C 0.60945 0.73429 1.02213 0.0
C177 C 0.64084 0.73691 0.05669 0.0
C178 C 0.63182 0.71623 0.09637 0.0
C179 C 0.59223 0.69387 0.10154 0.0
C180 C 0.52174 0.62632 0.06123 0.0
C181 C 0.51608 0.59598 0.09333 0.0
C182 C 0.51727 0.55458 0.08195 0.0
C183 C 0.52328 0.54252 0.03779 0.0
C184 C 0.52924 0.57328 1.00568 0.0
C185 C 0.52924 0.61461 1.01736 0.0
C186 C 0.01883 0.12267 0.92743 0.0
C187 C 0.01785 0.11945 0.1439 0.0
C188 C 0.01924 0.92451 0.92379 0.0
C189 C 0.02067 0.92118 0.14059 0.0
C190 C 0.12905 0.92309 0.03354 0.0
C191 C 0.12877 0.12053 0.03472 0.0
C192 C 0.90971 0.92328 0.03096 0.0
C193 C 0.90999 0.12074 0.03558 0.0
C194 C 0.90959 1.01443 0.13875 0.0
C195 C 0.12675 1.01393 0.14038 0.0
C196 C 0.91138 0.02721 0.92763 0.0
C197 C 0.12818 0.02881 0.92875 0.0
Eu198 Eu 0.01935 0.10082 0.0354 0.0
O199 O 0.05876 0.05851 0.07447 0.0
O200 O 0.9804 0.05939 0.99559 0.0
Eu201 Eu 0.10273 1.02182 0.03442 0.0
Eu202 Eu 0.93571 1.02196 0.03345 0.0
O203 O 0.05837 0.05914 0.99604 0.0
O204 O 0.97933 0.05853 0.07369 0.0
Eu205 Eu 0.01964 0.02325 0.95083 0.0
Eu206 Eu 0.01848 1.02065 0.11723 0.0
O207 O 0.05917 0.98513 0.99405 0.0
O208 O 0.05754 0.9847 0.07203 0.0
O209 O 0.98 0.98436 0.0719 0.0
O210 O 0.98 0.98533 0.99383 0.0
Eu211 Eu 0.01933 0.94272 0.03242 0.0
O212 O 0.02002 0.13553 0.96939 0.0
O213 O 0.01958 0.13345 0.10233 0.0
O214 O 0.01975 0.91031 0.96532 0.0
O215 O 0.01952 0.90821 0.09865 0.0
O216 O 0.14125 0.96233 0.03303 0.0
O217 O 0.14121 0.08132 0.03657 0.0
O218 O 0.89741 0.96253 0.03029 0.0
O219 O 0.89736 0.08162 0.03686 0.0
O220 O 0.95186 1.0153 0.15339 0.0
O221 O 0.08441 1.01664 0.15449 0.0
O222 O 0.95384 0.02707 0.91375 0.0
O223 O 0.08583 0.02805 0.9145 0.0
O224 O 0.95204 0.90951 0.03246 0.0
O225 O 0.08671 0.90941 0.03325 0.0
O226 O 0.95229 0.1343 0.03386 0.0
O227 O 0.08639 0.13409 0.03366 0.0
O228 O 0.01681 0.08001 0.15557 0.0
O229 O 0.02051 0.96023 0.15331 0.0
O230 O 0.01827 0.08365 0.91462 0.0
O231 O 0.01919 0.964 0.91232 0.0
O232 O 0.14109 0.02582 0.97063 0.0
O233 O 0.13997 1.01612 0.09855 0.0
O234 O 0.89793 0.02497 0.96937 0.0
O235 O 0.8972 1.01731 0.09676 0.0
C236 C 0.06636 0.25348 0.35843 0.0
C237 C 0.03103 0.27955 0.37103 0.0
C238 C 0.06402 0.22985 0.31978 0.0
C239 C 0.02518 0.23175 0.29289 0.0
C240 C 0.98956 0.25823 0.30505 0.0
C241 C -0.00705 0.28182 0.34373 0.0
C242 C 0.10284 0.2021 0.30823 0.0
C243 C 0.94744 0.26111 0.27757 0.0
C244 C 0.03357 0.1896 0.17544 0.0
C245 C 0.01738 0.14958 0.18086 0.0
C246 C 0.03578 0.21692 0.21134 0.0
C247 C 0.02093 0.20418 0.25363 0.0
C248 C 0.00334 0.16425 0.25889 0.0
C249 C 0.00201 0.13753 0.2227 0.0
C250 C 0.05507 0.25907 0.20429 0.0
C251 C 0.98654 0.14939 0.30305 0.0
H252 H 0.09568 0.25076 0.37935 0.0
H253 H 0.96568 0.30222 0.35248 0.0
H254 H 0.09183 0.16972 0.30959 0.0
H255 H 0.1143 0.20827 0.27409 0.0
H256 H 0.13177 0.20597 0.33092 0.0
H257 H 0.92342 0.28418 0.29051 0.0
H258 H 0.95604 0.26925 0.2431 0.0
H259 H 0.93049 0.23092 0.27675 0.0
H260 H 0.04568 0.19926 0.14341 0.0
H261 H 0.9889 0.10691 0.22737 0.0
H262 H 0.08598 0.26262 0.22431 0.0
H263 H 0.03087 0.28269 0.2155 0.0
H264 H 0.0635 0.26498 0.1692 0.0
H265 H 0.01458 0.14892 0.3271 0.0
H266 H 0.97191 0.1182 0.30127 0.0
H267 H 0.96064 0.17064 0.31597 0.0
C268 C 0.70527 0.92286 0.27297 0.0
C269 C 0.68248 0.95242 0.29768 0.0
C270 C 0.74549 0.93258 0.25126 0.0
C271 C 0.76339 0.97256 0.25514 0.0
C272 C 0.74165 1.00176 0.28206 0.0
C273 C 0.7012 0.99142 0.30275 0.0
C274 C 0.76749 0.90082 0.22234 0.0
C275 C 0.76001 0.04449 0.28744 0.0
C276 C 0.88176 0.99184 0.21301 0.0
C277 C 0.87293 1.00732 0.17074 0.0
C278 C 0.84644 0.98082 0.24134 0.0
C279 C 0.8015 0.98535 0.22687 0.0
C280 C 0.79247 1.00201 0.18478 0.0
C281 C 0.82821 1.01297 0.15741 0.0
C282 C 0.85718 0.96344 0.28623 0.0
C283 C 0.74499 1.00732 0.16809 0.0
H284 H 0.69069 0.8927 0.2692 0.0
H285 H 0.68381 1.01401 0.32255 0.0
H286 H 0.7652 0.91057 0.18738 0.0
H287 H 0.80365 0.89793 0.23049 0.0
H288 H 0.75148 0.87031 0.22574 0.0
H289 H 0.74204 0.06189 0.31344 0.0
H290 H 0.79625 0.04338 0.29581 0.0
H291 H 0.75673 0.06145 0.2559 0.0
H292 H 0.91618 0.98718 0.2235 0.0
H293 H 0.82092 0.0253 0.12501 0.0
H294 H 0.84583 0.93118 0.28809 0.0
H295 H 0.83885 0.98063 0.31209 0.0
H296 H 0.89369 0.96442 0.29363 0.0
H297 H 0.72791 0.9772 0.16699 0.0
H298 H 0.7438 1.02114 0.13464 0.0
H299 H 0.72558 0.02711 0.19084 0.0
C300 C 0.04638 0.76008 0.34246 0.0
C301 C 0.00764 0.76224 0.36879 0.0
C302 C 0.05005 0.78279 0.30306 0.0
C303 C 0.01421 0.80851 0.28952 0.0
C304 C 0.97482 0.81041 0.31563 0.0
C305 C 0.97203 0.78737 0.35476 0.0
C306 C 0.09265 0.77982 0.27632 0.0
C307 C 0.93594 0.83769 0.30284 0.0
C308 C 0.03765 0.90245 0.21885 0.0
C309 C 0.0221 0.8905 0.17709 0.0
C310 C 0.03638 0.87575 0.25512 0.0
C311 C 0.01898 0.83578 0.24998 0.0
C312 C 0.00443 0.82295 0.20767 0.0
C313 C 0.00632 0.85039 0.17168 0.0
C314 C 0.05265 0.89083 0.29931 0.0
C315 C 0.98572 0.78061 0.20071 0.0
H316 H 0.07388 0.74043 0.35253 0.0
H317 H 0.94219 0.78985 0.37501 0.0
H318 H 0.08467 0.77167 0.24176 0.0
H319 H 0.10969 0.80997 0.27563 0.0
H320 H 0.11637 0.75673 0.28984 0.0
H321 H 0.90669 0.83401 0.3252 0.0
H322 H 0.94667 0.87018 0.30357 0.0
H323 H 0.92506 0.83091 0.26869 0.0
H324 H 0.0506 0.93311 0.22348 0.0
H325 H -0.00583 0.84082 0.13969 0.0
H326 H 0.07835 0.86965 0.31284 0.0
H327 H 0.02427 0.89148 0.32298 0.0
H328 H 0.06737 0.92199 0.29735 0.0
H329 H 0.00985 0.75726 0.21281 0.0
H330 H 0.97821 0.77444 0.16552 0.0
H331 H 0.95435 0.77696 0.22004 0.0
C332 C 0.31451 0.93485 0.30909 0.0
C333 C 0.34873 0.96424 0.31151 0.0
C334 C 0.27479 0.94274 0.28565 0.0
C335 C 0.26895 0.98113 0.26477 0.0
C336 C 0.30234 1.01157 0.26882 0.0
C337 C 0.34201 1.00258 0.29157 0.0
C338 C 0.24004 0.90939 0.28156 0.0
C339 C 0.29727 0.05296 0.2471 0.0
C340 C 0.20277 0.98781 0.15905 0.0
C341 C 0.16227 1.00545 0.1731 0.0
C342 C 0.23708 0.97876 0.18888 0.0
C343 C 0.23103 0.98786 0.23398 0.0
C344 C 0.19009 1.00519 0.24868 0.0
C345 C 0.15592 1.01355 0.218 0.0
C346 C 0.28 0.95968 0.17198 0.0
C347 C 0.18282 1.01568 0.29653 0.0
H348 H 0.31894 0.90544 0.32507 0.0
H349 H 0.3684 0.02532 0.29238 0.0
H350 H 0.20614 0.92141 0.28949 0.0
H351 H 0.23907 0.89833 0.24706 0.0
H352 H 0.24734 0.88296 0.3035 0.0
H353 H 0.32353 0.07484 0.25794 0.0
H354 H 0.29968 0.04954 0.21083 0.0
H355 H 0.26382 0.06624 0.25453 0.0
H356 H 0.20768 0.98062 0.12456 0.0
H357 H 0.12461 0.02702 0.22906 0.0
H358 H 0.28548 0.92957 0.18807 0.0
H359 H 0.30913 0.97932 0.18022 0.0
H360 H 0.27943 0.95517 0.13579 0.0
H361 H 0.18888 0.98839 0.31749 0.0
H362 H 0.14833 0.02722 0.30294 0.0
H363 H 0.20724 0.03943 0.30674 0.0
C364 C 0.05084 0.78456 0.70792 0.0
C365 C 0.01119 0.76361 0.69703 0.0
C366 C 0.0541 0.80787 0.74682 0.0
C367 C 0.01674 0.81078 0.77562 0.0
C368 C 0.97713 0.78879 0.76551 0.0
C369 C 0.97495 0.76539 0.72669 0.0
C370 C 0.09711 0.83054 0.75635 0.0
C371 C 0.93639 0.79103 0.79502 0.0
C372 C 0.03098 0.8535 0.89237 0.0
C373 C 0.01824 0.89457 0.88662 0.0
C374 C 0.03111 0.8259 0.85662 0.0
C375 C 0.01765 0.83945 0.81417 0.0
C376 C 0.00433 0.88072 0.8084 0.0
C377 C 0.00498 0.90763 0.84441 0.0
C378 C 0.04598 0.7823 0.86418 0.0
C379 C 0.98915 0.89656 0.76404 0.0
H380 H 0.07901 0.78385 0.68536 0.0
H381 H 0.94448 0.74866 0.71945 0.0
H382 H 0.09112 0.86397 0.7538 0.0
H383 H 0.1085 0.82412 0.79046 0.0
H384 H 0.12444 0.82212 0.73316 0.0
H385 H 0.90909 0.77033 0.78401 0.0
H386 H 0.94563 0.78293 0.82933 0.0
H387 H 0.92327 0.82282 0.79546 0.0
H388 H 0.04151 0.84303 0.92465 0.0
H389 H -0.00538 0.9391 0.83938 0.0
H390 H 0.07491 0.77505 0.84252 0.0
H391 H 0.01849 0.76098 0.85537 0.0
H392 H 0.05589 0.77656 0.89892 0.0
H393 H 0.0164 0.89268 0.73948 0.0
H394 H 0.97952 0.9294 0.76503 0.0
H395 H 0.95991 0.87864 0.75231 0.0
C396 C 0.32739 0.04398 0.75415 0.0
C397 C 0.35051 0.08093 0.75952 0.0
C398 C 0.28768 0.03622 0.77733 0.0
C399 C 0.27101 0.06607 0.80677 0.0
C400 C 0.29295 0.10431 0.81059 0.0
C401 C 0.33252 0.11137 0.78668 0.0
C402 C 0.26497 0.99525 0.77209 0.0
C403 C 0.2762 0.13678 0.84186 0.0
C404 C 0.15418 0.05328 0.85485 0.0
C405 C 0.16402 0.03574 0.89597 0.0
C406 C 0.18865 0.06338 0.82525 0.0
C407 C 0.23379 0.05546 0.83707 0.0
C408 C 0.24381 0.03704 0.87813 0.0
C409 C 0.20882 0.02744 0.90706 0.0
C410 C 0.17687 0.08318 0.78177 0.0
C411 C 0.29159 0.02793 0.89182 0.0
H412 H 0.34104 1.02071 0.73253 0.0
H413 H 0.35052 0.1399 0.79085 0.0
H414 H 0.26872 0.97726 0.80291 0.0
H415 H 0.22848 0.99939 0.76619 0.0
H416 H 0.27941 0.97723 0.74451 0.0
H417 H 0.29384 0.16638 0.83713 0.0
H418 H 0.23963 0.1418 0.83749 0.0
H419 H 0.28156 0.12642 0.87629 0.0
H420 H 0.11967 0.06019 0.84623 0.0
H421 H 0.2167 1.01369 0.93866 0.0
H422 H 0.19068 0.06483 0.7542 0.0
H423 H 0.19235 0.11397 0.77974 0.0
H424 H 0.14003 0.08643 0.77715 0.0
H425 H 0.30772 1.00737 0.86745 0.0
H426 H 0.29355 1.01323 0.9248 0.0
H427 H 0.31134 0.05666 0.89259 0.0
C428 C 0.06679 0.25379 0.71095 0.0
C429 C 0.03285 0.28186 0.69939 0.0
C430 C 0.06479 0.23104 0.75033 0.0
C431 C 0.02749 0.23556 0.77888 0.0
C432 C -0.00674 0.26392 0.76777 0.0
C433 C -0.00348 0.2869 0.72853 0.0
C434 C 0.10213 0.2012 0.76076 0.0
C435 C 0.9526 0.26934 0.79688 0.0
C436 C 0.00067 0.14256 0.84983 0.0
C437 C 0.01827 0.15347 0.89111 0.0
C438 C 0.00251 0.16932 0.81365 0.0
C439 C 0.02276 0.20821 0.81835 0.0
C440 C 0.03985 0.21989 0.86013 0.0
C441 C 0.0371 0.19251 0.89611 0.0
C442 C 0.98316 0.15564 0.77012 0.0
C443 C 0.0623 0.26078 0.86645 0.0
H444 H 0.09466 0.24873 0.6887 0.0
H445 H 0.97043 0.30888 0.72079 0.0
H446 H 0.11495 0.20646 0.79459 0.0
H447 H 0.08905 0.16946 0.75962 0.0
H448 H 0.13059 0.20372 0.73727 0.0
H449 H 0.92985 0.29387 0.78477 0.0
H450 H 0.93348 0.24027 0.79847 0.0
H451 H 0.96314 0.27681 0.83095 0.0
H452 H 0.98559 0.11269 0.84558 0.0
H453 H 0.05105 0.20115 0.92771 0.0
H454 H 0.00896 0.15763 0.74386 0.0
H455 H 0.9551 0.17618 0.76055 0.0
H456 H 0.97048 0.12373 0.77137 0.0
H457 H 0.09261 0.26265 0.84529 0.0
H458 H 0.07245 0.26595 0.9012 0.0
H459 H 0.03939 0.28582 0.85613 0.0
C460 C 0.71567 0.04487 0.74821 0.0
C461 C 0.68584 0.07567 0.76177 0.0
C462 C 0.75523 0.03687 0.77163 0.0
C463 C 0.7656 0.0608 0.80895 0.0
C464 C 0.73699 0.09341 0.82138 0.0
C465 C 0.69719 0.10022 0.79788 0.0
C466 C 0.78489 1.00172 0.75756 0.0
C467 C 0.74734 0.12002 0.86067 0.0
C468 C 0.83357 1.01489 0.90183 0.0
C469 C 0.87583 0.03232 0.89454 0.0
C470 C 0.79777 0.02293 0.87328 0.0
C471 C 0.80431 0.04968 0.83714 0.0
C472 C 0.84719 0.0667 0.82906 0.0
C473 C 0.88273 0.05739 0.85769 0.0
C474 C 0.75267 1.00363 0.88251 0.0
C475 C 0.85503 0.09598 0.79132 0.0
H476 H 0.70772 0.02645 0.71964 0.0
H477 H 0.67423 0.12387 0.80879 0.0
H478 H 0.82009 1.01212 0.75368 0.0
H479 H 0.78473 0.97769 0.78344 0.0
H480 H 0.77363 0.98783 0.72609 0.0
H481 H 0.72599 0.1479 0.86138 0.0
H482 H 0.7414 0.10242 0.89141 0.0
H483 H 0.78309 0.1295 0.86055 0.0
H484 H 0.82838 0.99526 0.93022 0.0
H485 H 0.91534 0.07119 0.85237 0.0
H486 H 0.74029 0.9875 0.85279 0.0
H487 H 0.72781 0.02776 0.89065 0.0
H488 H 0.75405 0.98148 0.9103 0.0
H489 H 0.8457 0.08138 0.7597 0.0
H490 H 0.89053 0.10614 0.7893 0.0
H491 H 0.83333 0.12336 0.79526 0.0
C492 C 0.33733 0.25997 0.96922 0.0
C493 C 0.35312 0.28415 1.00404 0.0
C494 C 0.29874 0.23573 0.97401 0.0
C495 C 0.27536 0.23559 1.01463 0.0
C496 C 0.29037 0.26078 0.04949 0.0
C497 C 0.32903 0.28474 0.04377 0.0
C498 C 0.28393 0.20918 0.93609 0.0
C499 C 0.26631 0.26154 0.09326 0.0
C500 C 0.15722 0.19114 1.01738 0.0
C501 C 0.16551 0.15109 0.03214 0.0
C502 C 0.19255 0.21918 1.01185 0.0
C503 C 0.23712 0.20698 1.0216 0.0
C504 C 0.24553 0.16692 0.03737 0.0
C505 C 0.20973 0.13952 0.04236 0.0
C506 C 0.18232 0.26157 0.99471 0.0
C507 C 0.29253 0.15273 0.04837 0.0
H508 H 0.35598 0.25899 0.93858 0.0
H509 H 0.34059 0.30385 0.07059 0.0
H510 H 0.28778 0.17647 0.94517 0.0
H511 H 0.24788 0.21444 0.92876 0.0
H512 H 0.30372 0.21507 0.90572 0.0
H513 H 0.28067 0.28455 0.11612 0.0
H514 H 0.23017 0.26845 0.08834 0.0
H515 H 0.2685 0.23096 0.10906 0.0
H516 H 0.12327 0.20033 1.00907 0.0
H517 H 0.21658 0.10878 0.05406 0.0
H518 H 0.19977 0.2665 0.96285 0.0
H519 H 0.1951 0.2849 1.01801 0.0
H520 H 0.14578 0.26665 0.98974 0.0
H521 H 0.3139 0.15405 1.01847 0.0
H522 H 0.29322 0.12097 0.06146 0.0
H523 H 0.30777 0.17334 0.07317 0.0
C524 C 0.34376 0.77667 1.01174 0.0
C525 C 0.35429 0.75784 0.0521 0.0
C526 C 0.30475 0.80044 1.00677 0.0
C527 C 0.27591 0.80638 0.04327 0.0
C528 C 0.28572 0.78689 0.08381 0.0
C529 C 0.32445 0.76254 0.0876 0.0
C530 C 0.29543 0.82068 0.96295 0.0
C531 C 0.25615 0.79291 0.12369 0.0
C532 C 0.20965 0.9055 0.04686 0.0
C533 C 0.16617 0.89269 0.0355 0.0
C534 C 0.24546 0.87775 0.04928 0.0
C535 C 0.23787 0.83591 0.04016 0.0
C536 C 0.19423 0.82264 0.02837 0.0
C537 C 0.1588 0.85116 0.0264 0.0
C538 C 0.2913 0.89326 0.06241 0.0
C539 C 0.18509 0.77838 1.01762 0.0
H540 H 0.36669 0.77394 0.9842 0.0
H541 H 0.33151 0.74747 0.11865 0.0
H542 H 0.26029 0.81488 0.9526 0.0
H543 H 0.29948 0.85428 0.96611 0.0
H544 H 0.3184 0.80966 0.93668 0.0
H545 H 0.26685 0.77367 0.15203 0.0
H546 H 0.2571 0.82548 0.13389 0.0
H547 H 0.22077 0.78553 0.11558 0.0
H548 H 0.21586 0.93738 0.05441 0.0
H549 H 0.12546 0.84095 1.01737 0.0
H550 H 0.31761 0.8814 0.03994 0.0
H551 H 0.2994 0.88222 0.09608 0.0
H552 H 0.29301 0.9272 0.06214 0.0
H553 H 0.207 0.7684 0.99008 0.0
H554 H 0.14952 0.77308 1.00825 0.0
H555 H 0.19326 0.75881 0.04643 0.0
C556 C 0.71306 0.29002 0.04099 0.0
C557 C 0.68086 0.27938 1.0092 0.0
C558 C 0.75192 0.26625 0.0473 0.0
C559 C 0.75931 0.23143 1.02064 0.0
C560 C 0.72738 0.22081 0.98812 0.0
C561 C 0.68844 0.2446 0.98313 0.0
C562 C 0.78481 0.27811 0.08286 0.0
C563 C 0.73422 0.18416 0.95865 0.0
C564 C 0.87673 0.18658 1.00893 0.0
C565 C 0.8734 0.15127 0.03496 0.0
C566 C 0.84006 0.21342 1.00445 0.0
C567 C 0.79965 0.20518 0.02747 0.0
C568 C 0.79695 0.17047 0.05533 0.0
C569 C 0.83364 0.14366 0.05826 0.0
C570 C 0.84393 0.24959 0.97369 0.0
C571 C 0.75488 0.16104 0.08119 0.0
H572 H 0.70811 0.31713 0.06087 0.0
H573 H 0.66357 0.23547 0.95907 0.0
H574 H 0.78857 0.25261 0.10677 0.0
H575 H 0.81838 0.28377 0.06826 0.0
H576 H 0.77408 0.30596 0.10096 0.0
H577 H 0.70629 0.18025 0.93481 0.0
H578 H 0.76609 0.18744 0.94005 0.0
H579 H 0.73701 0.15589 0.97876 0.0
H580 H 0.90731 0.19227 0.99055 0.0
H581 H 0.83115 0.11649 0.07869 0.0
H582 H 0.8349 0.27823 0.9911 0.0
H583 H 0.81993 0.246 0.94602 0.0
H584 H 0.87829 0.25286 0.9599 0.0
H585 H 0.74448 0.18814 0.10064 0.0
H586 H 0.75948 0.13471 0.10397 0.0
H587 H 0.72703 0.15382 0.05825 0.0
C588 C 0.69681 0.78705 0.08634 0.0
C589 C 0.68242 0.76176 0.05184 0.0
C590 C 0.73543 0.8113 0.08215 0.0
C591 C 0.76039 0.81031 0.04247 0.0
C592 C 0.74643 0.78448 1.0077 0.0
C593 C 0.70757 0.76057 1.01277 0.0
C594 C 0.74894 0.83868 0.11988 0.0
C595 C 0.77216 0.78258 0.96491 0.0
C596 C 0.82946 0.90498 1.01747 0.0
C597 C 0.87265 0.89298 0.03093 0.0
C598 C 0.793 0.87803 1.02003 0.0
C599 C 0.79965 0.838 0.03665 0.0
C600 C 0.84331 0.82526 0.04928 0.0
C601 C 0.87937 0.85286 0.04611 0.0
C602 C 0.74709 0.89282 1.00593 0.0
C603 C 0.85167 0.78285 0.06729 0.0
H604 H 0.67725 0.78858 0.11639 0.0
H605 H 0.69699 0.74073 0.98619 0.0
H606 H 0.78417 0.83234 0.12964 0.0
H607 H 0.74724 0.87118 0.10936 0.0
H608 H 0.72703 0.83461 0.14916 0.0
H609 H 0.75795 0.75974 0.94177 0.0
H610 H 0.77173 0.81303 0.94869 0.0
H611 H 0.8078 0.77469 0.97136 0.0
H612 H 0.82391 0.93574 1.00518 0.0
H613 H 0.91254 0.84337 0.05675 0.0
H614 H 0.72416 0.89315 0.03473 0.0
H615 H 0.73255 0.87164 0.98129 0.0
H616 H 0.74805 0.92407 0.99147 0.0
H617 H 0.833 0.77878 0.09861 0.0
H618 H 0.88786 0.77696 0.07357 0.0
H619 H 0.83903 0.75952 0.04391 0.0
loop_
_geom_bond_atom_site_label_1
_geom_bond_atom_site_label_2
_geom_bond_distance
_geom_bond_site_symmetry_2
_ccdc_geom_bond_type
H0 C27 0.929 . S
N1 C26 1.433 . S
N1 C32 1.435 . S
N1 C38 1.423 . S
H2 C28 0.930 1_655 S
H3 C31 0.931 . S
H4 C30 0.929 . S
H5 C33 0.930 . S
H6 C34 0.932 . S
H7 C37 0.929 . S
H8 C36 0.931 . S
H9 C39 0.929 . S
H10 C43 0.932 . S
H11 C40 0.931 . S
H12 C42 0.929 . S
H13 C45 0.929 . S
H14 C46 0.930 1_655 S
H15 C48 0.929 . S
H16 C49 0.931 . S
H17 C51 0.930 . S
H18 C52 0.932 . S
H19 C54 0.931 . S
H20 C55 0.929 . S
H21 C57 0.929 . S
H22 C58 0.931 . S
H23 C60 0.929 . S
N24 C44 1.433 . S
N24 C50 1.435 . S
N24 C56 1.423 . S
H25 C61 0.932 . S
C26 N1 1.433 . S
C26 C27 1.363 1_455 S
C26 C31 1.370 . S
C27 H0 0.929 . S
C27 C26 1.363 1_655 S
C27 C28 1.385 1_655 S
C28 H2 0.930 1_455 S
C28 C27 1.385 1_455 S
C28 C29 1.357 . S
C29 C28 1.357 . S
C29 C30 1.406 . S
C30 H4 0.929 . S
C30 C29 1.406 . S
C30 C31 1.391 . S
C31 H3 0.931 . S
C31 C26 1.370 . S
C31 C30 1.391 . S
C32 N1 1.435 . S
C32 C33 1.358 . S
C32 C37 1.371 1_455 S
C33 H5 0.930 . S
C33 C32 1.358 . S
C33 C34 1.405 . S
C34 H6 0.932 . S
C34 C33 1.405 . S
C34 C35 1.383 . S
C35 C34 1.383 . S
C35 C36 1.393 1_455 S
C36 H8 0.931 . S
C36 C35 1.393 1_655 S
C36 C37 1.382 . S
C37 H7 0.929 . S
C37 C32 1.371 1_655 S
C37 C36 1.382 . S
C38 N1 1.423 . S
C38 C39 1.362 1_455 S
C38 C43 1.388 . S
C39 H9 0.929 . S
C39 C38 1.362 1_655 S
C39 C40 1.376 . S
C40 H11 0.931 . S
C40 C39 1.376 . S
C40 C41 1.396 . S
C41 C40 1.396 . S
C41 C42 1.348 1_655 S
C41 C59 1.472 . S
C42 H12 0.929 . S
C42 C41 1.348 1_455 S
C42 C43 1.443 . S
C43 H10 0.932 . S
C43 C38 1.388 . S
C43 C42 1.443 . S
C44 N24 1.433 . S
C44 C45 1.363 1_455 S
C44 C49 1.370 . S
C45 H13 0.929 . S
C45 C44 1.363 1_655 S
C45 C46 1.385 1_655 S
C46 H14 0.930 1_455 S
C46 C45 1.385 1_455 S
C46 C47 1.357 . S
C47 C46 1.357 . S
C47 C48 1.406 . S
C48 H15 0.929 . S
C48 C47 1.406 . S
C48 C49 1.391 . S
C49 H16 0.931 . S
C49 C44 1.370 . S
C49 C48 1.391 . S
C50 N24 1.435 . S
C50 C51 1.358 . S
C50 C55 1.371 1_455 S
C51 H17 0.930 . S
C51 C50 1.358 . S
C51 C52 1.405 . S
C52 H18 0.932 . S
C52 C51 1.405 . S
C52 C53 1.383 . S
C53 C52 1.383 . S
C53 C54 1.393 1_455 S
C54 H19 0.931 . S
C54 C53 1.393 1_655 S
C54 C55 1.382 . S
C55 H20 0.929 . S
C55 C50 1.371 1_655 S
C55 C54 1.382 . S
C56 N24 1.423 . S
C56 C57 1.362 1_455 S
C56 C61 1.388 . S
C57 H21 0.929 . S
C57 C56 1.362 1_655 S
C57 C58 1.376 . S
C58 H22 0.931 . S
C58 C57 1.376 . S
C58 C59 1.396 . S
C59 C41 1.472 . S
C59 C58 1.396 . S
C59 C60 1.348 1_655 S
C60 H23 0.929 . S
C60 C59 1.348 1_455 S
C60 C61 1.443 . S
C61 H25 0.932 . S
C61 C56 1.388 . S
C61 C60 1.443 . S
H62 C89 0.929 . S
N63 C88 1.433 . S
N63 C94 1.435 . S
N63 C100 1.423 . S
H64 C90 0.930 . S
H65 C93 0.931 . S
H66 C92 0.929 . S
H67 C95 0.930 . S
H68 C96 0.932 . S
H69 C99 0.929 . S
H70 C98 0.931 . S
H71 C101 0.929 . S
H72 C105 0.932 1_545 S
H73 C102 0.931 . S
H74 C104 0.929 1_545 S
H75 C107 0.929 . S
H76 C108 0.930 . S
H77 C110 0.929 . S
H78 C111 0.931 . S
H79 C113 0.930 . S
H80 C114 0.932 . S
H81 C116 0.931 . S
H82 C117 0.929 . S
H83 C119 0.929 . S
H84 C120 0.931 . S
H85 C122 0.929 1_545 S
N86 C106 1.433 . S
N86 C112 1.435 . S
N86 C118 1.423 . S
H87 C123 0.932 1_545 S
C88 N63 1.433 . S
C88 C89 1.363 . S
C88 C93 1.370 1_565 S
C89 H62 0.929 . S
C89 C88 1.363 . S
C89 C90 1.385 . S
C90 H64 0.930 . S
C90 C89 1.385 . S
C90 C91 1.357 . S
C91 C90 1.357 . S
C91 C92 1.406 1_565 S
C92 H66 0.929 . S
C92 C91 1.406 1_545 S
C92 C93 1.391 . S
C93 H65 0.931 . S
C93 C88 1.370 1_545 S
C93 C92 1.391 . S
C94 N63 1.435 . S
C94 C95 1.358 1_565 S
C94 C99 1.371 . S
C95 H67 0.930 . S
C95 C94 1.358 1_545 S
C95 C96 1.405 . S
C96 H68 0.932 . S
C96 C95 1.405 . S
C96 C97 1.383 1_545 S
C97 C96 1.383 1_565 S
C97 C98 1.393 . S
C98 H70 0.931 . S
C98 C97 1.393 . S
C98 C99 1.382 . S
C99 H69 0.929 . S
C99 C94 1.371 . S
C99 C98 1.382 . S
C100 N63 1.423 . S
C100 C101 1.362 . S
C100 C105 1.388 . S
C101 H71 0.929 . S
C101 C100 1.362 . S
C101 C102 1.376 . S
C102 H73 0.931 . S
C102 C101 1.376 . S
C102 C103 1.396 . S
C103 C102 1.396 . S
C103 C104 1.348 . S
C103 C121 1.472 . S
C104 H74 0.929 1_565 S
C104 C103 1.348 . S
C104 C105 1.443 . S
C105 H72 0.932 1_565 S
C105 C100 1.388 . S
C105 C104 1.443 . S
C106 N86 1.433 . S
C106 C107 1.363 . S
C106 C111 1.370 1_565 S
C107 H75 0.929 . S
C107 C106 1.363 . S
C107 C108 1.385 . S
C108 H76 0.930 . S
C108 C107 1.385 . S
C108 C109 1.357 . S
C109 C108 1.357 . S
C109 C110 1.406 1_565 S
C110 H77 0.929 . S
C110 C109 1.406 1_545 S
C110 C111 1.391 . S
C111 H78 0.931 . S
C111 C106 1.370 1_545 S
C111 C110 1.391 . S
C112 N86 1.435 . S
C112 C113 1.358 1_565 S
C112 C117 1.371 . S
C113 H79 0.930 . S
C113 C112 1.358 1_545 S
C113 C114 1.405 . S
C114 H80 0.932 . S
C114 C113 1.405 . S
C114 C115 1.383 1_545 S
C115 C114 1.383 1_565 S
C115 C116 1.393 . S
C116 H81 0.931 . S
C116 C115 1.393 . S
C116 C117 1.382 . S
C117 H82 0.929 . S
C117 C112 1.371 . S
C117 C116 1.382 . S
C118 N86 1.423 . S
C118 C119 1.362 . S
C118 C123 1.388 . S
C119 H83 0.929 . S
C119 C118 1.362 . S
C119 C120 1.376 . S
C120 H84 0.931 . S
C120 C119 1.376 . S
C120 C121 1.396 . S
C121 C103 1.472 . S
C121 C120 1.396 . S
C121 C122 1.348 . S
C122 H85 0.929 1_565 S
C122 C121 1.348 . S
C122 C123 1.443 . S
C123 H87 0.932 1_565 S
C123 C118 1.388 . S
C123 C122 1.443 . S
H124 C151 0.929 . S
N125 C150 1.433 . S
N125 C156 1.435 . S
N125 C162 1.423 . S
H126 C152 0.930 . S
H127 C155 0.931 . S
H128 C154 0.929 . S
H129 C157 0.930 . S
H130 C158 0.932 . S
H131 C161 0.929 . S
H132 C160 0.931 . S
H133 C163 0.929 . S
H134 C167 0.932 1_556 S
H135 C164 0.931 . S
H136 C166 0.929 . S
H137 C169 0.929 . S
H138 C170 0.930 . S
H139 C172 0.929 . S
H140 C173 0.931 . S
H141 C175 0.930 . S
H142 C176 0.932 . S
H143 C178 0.931 . S
H144 C179 0.929 . S
H145 C181 0.929 . S
H146 C182 0.931 . S
H147 C184 0.929 . S
N148 C168 1.433 . S
N148 C174 1.435 . S
N148 C180 1.423 . S
H149 C185 0.932 1_556 S
C150 N125 1.433 . S
C150 C151 1.363 . S
C150 C155 1.370 1_554 S
C151 H124 0.929 . S
C151 C150 1.363 . S
C151 C152 1.385 . S
C152 H126 0.930 . S
C152 C151 1.385 . S
C152 C153 1.357 . S
C153 C152 1.357 . S
C153 C154 1.406 1_554 S
C154 H128 0.929 . S
C154 C153 1.406 1_556 S
C154 C155 1.391 . S
C155 H127 0.931 . S
C155 C150 1.370 1_556 S
C155 C154 1.391 . S
C156 N125 1.435 . S
C156 C157 1.358 1_554 S
C156 C161 1.371 . S
C157 H129 0.930 . S
C157 C156 1.358 1_556 S
C157 C158 1.405 . S
C158 H130 0.932 . S
C158 C157 1.405 . S
C158 C159 1.383 1_556 S
C159 C158 1.383 1_554 S
C159 C160 1.393 . S
C160 H132 0.931 . S
C160 C159 1.393 . S
C160 C161 1.382 . S
C161 H131 0.929 . S
C161 C156 1.371 . S
C161 C160 1.382 . S
C162 N125 1.423 . S
C162 C163 1.362 . S
C162 C167 1.388 . S
C163 H133 0.929 . S
C163 C162 1.362 . S
C163 C164 1.376 . S
C164 H135 0.931 . S
C164 C163 1.376 . S
C164 C165 1.396 . S
C165 C164 1.396 . S
C165 C166 1.348 . S
C165 C183 1.472 . S
C166 H136 0.929 . S
C166 C165 1.348 . S
C166 C167 1.443 . S
C167 H134 0.932 1_554 S
C167 C162 1.388 . S
C167 C166 1.443 . S
C168 N148 1.433 . S
C168 C169 1.363 . S
C168 C173 1.370 1_554 S
C169 H137 0.929 . S
C169 C168 1.363 . S
C169 C170 1.385 . S
C170 H138 0.930 . S
C170 C169 1.385 . S
C170 C171 1.357 . S
C171 C170 1.357 . S
C171 C172 1.406 1_554 S
C172 H139 0.929 . S
C172 C171 1.406 1_556 S
C172 C173 1.391 . S
C173 H140 0.931 . S
C173 C168 1.370 1_556 S
C173 C172 1.391 . S
C174 N148 1.435 . S
C174 C175 1.358 1_554 S
C174 C179 1.371 . S
C175 H141 0.930 . S
C175 C174 1.358 1_556 S
C175 C176 1.405 . S
C176 H142 0.932 . S
C176 C175 1.405 . S
C176 C177 1.383 1_556 S
C177 C176 1.383 1_554 S
C177 C178 1.393 . S
C178 H143 0.931 . S
C178 C177 1.393 . S
C178 C179 1.382 . S
C179 H144 0.929 . S
C179 C174 1.371 . S
C179 C178 1.382 . S
C180 N148 1.423 . S
C180 C181 1.362 . S
C180 C185 1.388 . S
C181 H145 0.929 . S
C181 C180 1.362 . S
C181 C182 1.376 . S
C182 H146 0.931 . S
C182 C181 1.376 . S
C182 C183 1.396 . S
C183 C165 1.472 . S
C183 C182 1.396 . S
C183 C184 1.348 . S
C184 H147 0.929 . S
C184 C183 1.348 . S
C184 C185 1.443 . S
C185 H149 0.932 1_554 S
C185 C180 1.388 . S
C185 C184 1.443 . S
C186 O212 1.283 . S
C186 O230 1.283 . S
C187 O213 1.283 . S
C187 O228 1.283 . S
C188 O214 1.283 . S
C188 O231 1.283 . S
C189 O215 1.283 . S
C189 O229 1.283 . S
C190 O216 1.283 . S
C190 O225 1.283 . S
C191 O217 1.283 . S
C191 O227 1.283 . S
C192 O218 1.283 . S
C192 O224 1.283 . S
C193 O219 1.283 . S
C193 O226 1.283 . S
C194 O220 1.283 . S
C194 O235 1.283 . S
C195 O221 1.283 . S
C195 O233 1.283 . S
C196 O222 1.283 . S
C196 O234 1.283 . S
C197 O223 1.283 . S
C197 O232 1.283 . S
Eu198 O199 2.370 . S
Eu198 O200 2.370 1_454 S
Eu198 O203 2.370 1_554 S
Eu198 O204 2.370 1_455 S
Eu198 O212 2.363 1_554 S
Eu198 O213 2.363 . S
Eu198 O226 2.363 1_455 S
Eu198 O227 2.363 . S
O199 Eu198 2.370 . S
O199 Eu201 2.370 . S
O199 Eu206 2.370 . S
O200 Eu198 2.370 1_656 S
O200 Eu202 2.370 1_556 S
O200 Eu205 2.370 1_655 S
Eu201 O199 2.370 . S
Eu201 O203 2.370 1_554 S
Eu201 O207 2.370 1_544 S
Eu201 O208 2.370 1_545 S
Eu201 O216 2.363 1_545 S
Eu201 O217 2.363 . S
Eu201 O232 2.363 1_554 S
Eu201 O233 2.363 . S
Eu202 O200 2.370 1_554 S
Eu202 O204 2.370 . S
Eu202 O209 2.370 1_545 S
Eu202 O210 2.370 1_544 S
Eu202 O218 2.363 1_545 S
Eu202 O219 2.363 . S
Eu202 O234 2.363 1_554 S
Eu202 O235 2.363 . S
O203 Eu198 2.370 1_556 S
O203 Eu201 2.370 1_556 S
O203 Eu205 2.370 . S
O204 Eu198 2.370 1_655 S
O204 Eu202 2.370 . S
O204 Eu206 2.370 1_655 S
Eu205 O200 2.370 1_455 S
Eu205 O203 2.370 . S
Eu205 O207 2.370 1_545 S
Eu205 O210 2.370 1_445 S
Eu205 O222 2.363 1_455 S
Eu205 O223 2.363 . S
Eu205 O230 2.363 . S
Eu205 O231 2.363 1_545 S
Eu206 O199 2.370 . S
Eu206 O204 2.370 1_455 S
Eu206 O208 2.370 1_545 S
Eu206 O209 2.370 1_445 S
Eu206 O220 2.363 1_455 S
Eu206 O221 2.363 . S
Eu206 O228 2.363 . S
Eu206 O229 2.363 1_545 S
O207 Eu201 2.370 1_566 S
O207 Eu205 2.370 1_565 S
O207 Eu211 2.370 1_556 S
O208 Eu201 2.370 1_565 S
O208 Eu206 2.370 1_565 S
O208 Eu211 2.370 . S
O209 Eu202 2.370 1_565 S
O209 Eu206 2.370 1_665 S
O209 Eu211 2.370 1_655 S
O210 Eu202 2.370 1_566 S
O210 Eu205 2.370 1_665 S
O210 Eu211 2.370 1_656 S
Eu211 O207 2.370 1_554 S
Eu211 O208 2.370 . S
Eu211 O209 2.370 1_455 S
Eu211 O210 2.370 1_454 S
Eu211 O214 2.363 1_554 S
Eu211 O215 2.363 . S
Eu211 O224 2.363 1_455 S
Eu211 O225 2.363 . S
O212 C186 1.283 . S
O212 Eu198 2.363 1_556 S
O213 C187 1.283 . S
O213 Eu198 2.363 . S
O214 C188 1.283 . S
O214 Eu211 2.363 1_556 S
O215 C189 1.283 . S
O215 Eu211 2.363 . S
O216 C190 1.283 . S
O216 Eu201 2.363 1_565 S
O217 C191 1.283 . S
O217 Eu201 2.363 . S
O218 C192 1.283 . S
O218 Eu202 2.363 1_565 S
O219 C193 1.283 . S
O219 Eu202 2.363 . S
O220 C194 1.283 . S
O220 Eu206 2.363 1_655 S
O221 C195 1.283 . S
O221 Eu206 2.363 . S
O222 C196 1.283 . S
O222 Eu205 2.363 1_655 S
O223 C197 1.283 . S
O223 Eu205 2.363 . S
O224 C192 1.283 . S
O224 Eu211 2.363 1_655 S
O225 C190 1.283 . S
O225 Eu211 2.363 . S
O226 C193 1.283 . S
O226 Eu198 2.363 1_655 S
O227 C191 1.283 . S
O227 Eu198 2.363 . S
O228 C187 1.283 . S
O228 Eu206 2.363 . S
O229 C189 1.283 . S
O229 Eu206 2.363 1_565 S
O230 C186 1.283 . S
O230 Eu205 2.363 . S
O231 C188 1.283 . S
O231 Eu205 2.363 1_565 S
O232 C197 1.283 . S
O232 Eu201 2.363 1_556 S
O233 C195 1.283 . S
O233 Eu201 2.363 . S
O234 C196 1.283 . S
O234 Eu202 2.363 1_556 S
O235 C194 1.283 . S
O235 Eu202 2.363 . S
C236 C237 1.391 . S
C236 C238 1.394 . S
C236 H252 0.931 . S
C237 C236 1.391 . S
C237 C241 1.376 1_455 S
C238 C236 1.394 . S
C238 C239 1.369 . S
C238 C242 1.531 . S
C239 C238 1.369 . S
C239 C240 1.410 1_455 S
C239 C247 1.503 . S
C240 C239 1.410 1_655 S
C240 C241 1.392 . S
C240 C243 1.511 . S
C241 C237 1.376 1_655 S
C241 C240 1.392 . S
C241 H253 0.929 . S
C242 C238 1.531 . S
C242 H254 0.960 . S
C242 H255 0.962 . S
C242 H256 0.960 . S
C243 C240 1.511 . S
C243 H257 0.961 . S
C243 H258 0.961 . S
C243 H259 0.961 . S
C244 C245 1.370 . S
C244 C246 1.363 . S
C244 H260 0.931 . S
C245 C244 1.370 . S
C245 C249 1.408 . S
C246 C244 1.363 . S
C246 C247 1.370 . S
C246 C250 1.524 . S
C247 C239 1.503 . S
C247 C246 1.370 . S
C247 C248 1.403 . S
C248 C247 1.403 . S
C248 C249 1.404 . S
C248 C251 1.539 1_455 S
C249 C245 1.408 . S
C249 C248 1.404 . S
C249 H261 0.930 1_455 S
C250 C246 1.524 . S
C250 H262 0.956 . S
C250 H263 0.961 . S
C250 H264 0.961 . S
C251 C248 1.539 1_655 S
C251 H265 0.958 . S
C251 H266 0.961 . S
C251 H267 0.960 . S
H252 C236 0.931 . S
H253 C241 0.929 . S
H254 C242 0.960 . S
H255 C242 0.962 . S
H256 C242 0.960 . S
H257 C243 0.961 . S
H258 C243 0.961 . S
H259 C243 0.961 . S
H260 C244 0.931 . S
H261 C249 0.930 1_655 S
H262 C250 0.956 . S
H263 C250 0.961 . S
H264 C250 0.961 . S
H265 C251 0.958 . S
H266 C251 0.961 . S
H267 C251 0.960 . S
C268 C269 1.387 1_565 S
C268 C270 1.394 . S
C268 H284 0.931 . S
C269 C268 1.387 1_545 S
C269 C273 1.379 . S
C270 C268 1.394 . S
C270 C271 1.372 . S
C270 C274 1.531 . S
C271 C270 1.372 . S
C271 C272 1.406 1_565 S
C271 C279 1.503 1_565 S
C272 C271 1.406 1_545 S
C272 C273 1.392 . S
C272 C275 1.511 . S
C273 C269 1.379 . S
C273 C272 1.392 . S
C273 H285 0.929 . S
C274 C270 1.531 . S
C274 H286 0.960 . S
C274 H287 0.962 . S
C274 H288 0.960 . S
C275 C272 1.511 . S
C275 H289 0.961 . S
C275 H290 0.961 . S
C275 H291 0.961 . S
C276 C277 1.370 1_565 S
C276 C278 1.364 . S
C276 H292 0.931 . S
C277 C276 1.370 1_545 S
C277 C281 1.409 . S
C278 C276 1.364 . S
C278 C279 1.370 1_565 S
C278 C282 1.525 . S
C279 C271 1.503 1_545 S
C279 C278 1.370 1_545 S
C279 C280 1.402 . S
C280 C279 1.402 . S
C280 C281 1.404 . S
C280 C283 1.541 . S
C281 C277 1.409 . S
C281 C280 1.404 . S
C281 H293 0.930 . S
C282 C278 1.525 . S
C282 H294 0.956 . S
C282 H295 0.961 1_565 S
C282 H296 0.959 1_565 S
C283 C280 1.541 . S
C283 H297 0.958 1_545 S
C283 H298 0.961 . S
C283 H299 0.960 . S
H284 C268 0.931 . S
H285 C273 0.929 . S
H286 C274 0.960 . S
H287 C274 0.962 . S
H288 C274 0.960 . S
H289 C275 0.961 . S
H290 C275 0.961 . S
H291 C275 0.961 . S
H292 C276 0.931 . S
H293 C281 0.930 . S
H294 C282 0.956 . S
H295 C282 0.961 1_545 S
H296 C282 0.959 1_545 S
H297 C283 0.958 1_565 S
H298 C283 0.961 . S
H299 C283 0.960 . S
C300 C301 1.391 . S
C300 C302 1.394 . S
C300 H316 0.931 . S
C301 C300 1.391 . S
C301 C305 1.376 1_455 S
C302 C300 1.394 . S
C302 C303 1.369 . S
C302 C306 1.531 . S
C303 C302 1.369 . S
C303 C304 1.410 1_455 S
C303 C311 1.503 . S
C304 C303 1.410 1_655 S
C304 C305 1.392 . S
C304 C307 1.511 . S
C305 C301 1.376 1_655 S
C305 C304 1.392 . S
C305 H317 0.929 . S
C306 C302 1.531 . S
C306 H318 0.960 . S
C306 H319 0.962 . S
C306 H320 0.960 . S
C307 C304 1.511 . S
C307 H321 0.961 . S
C307 H322 0.961 . S
C307 H323 0.961 . S
C308 C309 1.370 . S
C308 C310 1.363 . S
C308 H324 0.931 . S
C309 C308 1.370 . S
C309 C313 1.408 . S
C310 C308 1.363 . S
C310 C311 1.370 . S
C310 C314 1.524 . S
C311 C303 1.503 . S
C311 C310 1.370 . S
C311 C312 1.403 . S
C312 C311 1.403 . S
C312 C313 1.404 . S
C312 C315 1.539 . S
C313 C309 1.408 . S
C313 C312 1.404 . S
C313 H325 0.930 . S
C314 C310 1.524 . S
C314 H326 0.956 . S
C314 H327 0.961 . S
C314 H328 0.961 . S
C315 C312 1.539 . S
C315 H329 0.958 . S
C315 H330 0.961 1_455 S
C315 H331 0.960 1_455 S
H316 C300 0.931 . S
H317 C305 0.929 . S
H318 C306 0.960 . S
H319 C306 0.962 . S
H320 C306 0.960 . S
H321 C307 0.961 . S
H322 C307 0.961 . S
H323 C307 0.961 . S
H324 C308 0.931 . S
H325 C313 0.930 . S
H326 C314 0.956 . S
H327 C314 0.961 . S
H328 C314 0.961 . S
H329 C315 0.958 . S
H330 C315 0.961 1_655 S
H331 C315 0.960 1_655 S
C332 C333 1.391 1_565 S
C332 C334 1.394 . S
C332 H348 0.931 . S
C333 C332 1.391 1_545 S
C333 C337 1.376 . S
C334 C332 1.394 . S
C334 C335 1.369 1_565 S
C334 C338 1.531 . S
C335 C334 1.369 1_545 S
C335 C336 1.410 . S
C335 C343 1.503 . S
C336 C335 1.410 . S
C336 C337 1.392 . S
C336 C339 1.511 . S
C337 C333 1.376 . S
C337 C336 1.392 . S
C337 H349 0.929 . S
C338 C334 1.531 . S
C338 H350 0.960 . S
C338 H351 0.962 . S
C338 H352 0.960 . S
C339 C336 1.511 . S
C339 H353 0.961 . S
C339 H354 0.961 . S
C339 H355 0.961 . S
C340 C341 1.370 1_565 S
C340 C342 1.363 . S
C340 H356 0.931 . S
C341 C340 1.370 1_545 S
C341 C345 1.408 . S
C342 C340 1.363 . S
C342 C343 1.370 1_565 S
C342 C346 1.524 . S
C343 C335 1.503 . S
C343 C342 1.370 1_545 S
C343 C344 1.403 . S
C344 C343 1.403 . S
C344 C345 1.404 . S
C344 C347 1.539 . S
C345 C341 1.408 . S
C345 C344 1.404 . S
C345 H357 0.930 . S
C346 C342 1.524 . S
C346 H358 0.956 . S
C346 H359 0.961 . S
C346 H360 0.961 . S
C347 C344 1.539 . S
C347 H361 0.958 . S
C347 H362 0.961 . S
C347 H363 0.960 . S
H348 C332 0.931 . S
H349 C337 0.929 . S
H350 C338 0.960 . S
H351 C338 0.962 . S
H352 C338 0.960 . S
H353 C339 0.961 . S
H354 C339 0.961 . S
H355 C339 0.961 . S
H356 C340 0.931 . S
H357 C345 0.930 . S
H358 C346 0.956 . S
H359 C346 0.961 . S
H360 C346 0.961 . S
H361 C347 0.958 . S
H362 C347 0.961 . S
H363 C347 0.960 . S
C364 C365 1.391 . S
C364 C366 1.394 . S
C364 H380 0.931 . S
C365 C364 1.391 . S
C365 C369 1.376 1_455 S
C366 C364 1.394 . S
C366 C367 1.369 . S
C366 C370 1.531 . S
C367 C366 1.369 . S
C367 C368 1.410 1_455 S
C367 C375 1.503 . S
C368 C367 1.410 1_655 S
C368 C369 1.392 . S
C368 C371 1.511 . S
C369 C365 1.376 1_655 S
C369 C368 1.392 . S
C369 H381 0.929 . S
C370 C366 1.531 . S
C370 H382 0.960 . S
C370 H383 0.962 . S
C370 H384 0.960 . S
C371 C368 1.511 . S
C371 H385 0.961 . S
C371 H386 0.961 . S
C371 H387 0.961 . S
C372 C373 1.370 . S
C372 C374 1.363 . S
C372 H388 0.931 . S
C373 C372 1.370 . S
C373 C377 1.408 . S
C374 C372 1.363 . S
C374 C375 1.370 . S
C374 C378 1.524 . S
C375 C367 1.503 . S
C375 C374 1.370 . S
C375 C376 1.403 . S
C376 C375 1.403 . S
C376 C377 1.404 . S
C376 C379 1.539 . S
C377 C373 1.408 . S
C377 C376 1.404 . S
C377 H389 0.930 . S
C378 C374 1.524 . S
C378 H390 0.956 . S
C378 H391 0.961 . S
C378 H392 0.961 . S
C379 C376 1.539 . S
C379 H393 0.958 . S
C379 H394 0.961 1_455 S
C379 H395 0.960 . S
H380 C364 0.931 . S
H381 C369 0.929 . S
H382 C370 0.960 . S
H383 C370 0.962 . S
H384 C370 0.960 . S
H385 C371 0.961 . S
H386 C371 0.961 . S
H387 C371 0.961 . S
H388 C372 0.931 . S
H389 C377 0.930 . S
H390 C378 0.956 . S
H391 C378 0.961 . S
H392 C378 0.961 . S
H393 C379 0.958 . S
H394 C379 0.961 1_655 S
H395 C379 0.960 . S
C396 C397 1.391 . S
C396 C398 1.394 . S
C396 H412 0.931 . S
C397 C396 1.391 . S
C397 C401 1.376 1_565 S
C398 C396 1.394 . S
C398 C399 1.369 . S
C398 C402 1.531 . S
C399 C398 1.369 . S
C399 C400 1.410 1_565 S
C399 C407 1.503 . S
C400 C399 1.410 1_545 S
C400 C401 1.392 . S
C400 C403 1.511 . S
C401 C397 1.376 1_545 S
C401 C400 1.392 . S
C401 H413 0.929 . S
C402 C398 1.531 . S
C402 H414 0.960 . S
C402 H415 0.962 . S
C402 H416 0.960 . S
C403 C400 1.511 . S
C403 H417 0.961 . S
C403 H418 0.961 . S
C403 H419 0.961 1_545 S
C404 C405 1.370 1_545 S
C404 C406 1.363 . S
C404 H420 0.931 . S
C405 C404 1.370 1_565 S
C405 C409 1.408 . S
C406 C404 1.363 . S
C406 C407 1.370 1_545 S
C406 C410 1.524 . S
C407 C399 1.503 . S
C407 C406 1.370 1_565 S
C407 C408 1.403 . S
C408 C407 1.403 . S
C408 C409 1.404 . S
C408 C411 1.539 . S
C409 C405 1.408 . S
C409 C408 1.404 . S
C409 H421 0.930 . S
C410 C406 1.524 . S
C410 H422 0.956 . S
C410 H423 0.961 . S
C410 H424 0.961 . S
C411 C408 1.539 . S
C411 H425 0.958 . S
C411 H426 0.961 . S
C411 H427 0.960 . S
H412 C396 0.931 . S
H413 C401 0.929 . S
H414 C402 0.960 . S
H415 C402 0.962 . S
H416 C402 0.960 . S
H417 C403 0.961 . S
H418 C403 0.961 . S
H419 C403 0.961 1_565 S
H420 C404 0.931 . S
H421 C409 0.930 . S
H422 C410 0.956 . S
H423 C410 0.961 . S
H424 C410 0.961 . S
H425 C411 0.958 . S
H426 C411 0.961 . S
H427 C411 0.960 . S
C428 C429 1.391 . S
C428 C430 1.394 . S
C428 H444 0.931 . S
C429 C428 1.391 . S
C429 C433 1.376 1_455 S
C430 C428 1.394 . S
C430 C431 1.369 . S
C430 C434 1.531 . S
C431 C430 1.369 . S
C431 C432 1.410 1_455 S
C431 C439 1.503 . S
C432 C431 1.410 1_655 S
C432 C433 1.392 . S
C432 C435 1.511 . S
C433 C429 1.376 1_655 S
C433 C432 1.392 . S
C433 H445 0.929 . S
C434 C430 1.531 . S
C434 H446 0.960 . S
C434 H447 0.962 . S
C434 H448 0.960 . S
C435 C432 1.511 . S
C435 H449 0.961 . S
C435 H450 0.961 . S
C435 H451 0.961 . S
C436 C437 1.370 . S
C436 C438 1.363 . S
C436 H452 0.931 . S
C437 C436 1.370 . S
C437 C441 1.408 . S
C438 C436 1.363 . S
C438 C439 1.370 . S
C438 C442 1.524 . S
C439 C431 1.503 . S
C439 C438 1.370 . S
C439 C440 1.403 . S
C440 C439 1.403 . S
C440 C441 1.404 . S
C440 C443 1.539 . S
C441 C437 1.408 . S
C441 C440 1.404 . S
C441 H453 0.930 . S
C442 C438 1.524 . S
C442 H454 0.956 . S
C442 H455 0.961 1_455 S
C442 H456 0.961 1_455 S
C443 C440 1.539 . S
C443 H457 0.958 . S
C443 H458 0.961 . S
C443 H459 0.960 . S
H444 C428 0.931 . S
H445 C433 0.929 . S
H446 C434 0.960 . S
H447 C434 0.962 . S
H448 C434 0.960 . S
H449 C435 0.961 . S
H450 C435 0.961 . S
H451 C435 0.961 . S
H452 C436 0.931 . S
H453 C441 0.930 . S
H454 C442 0.956 . S
H455 C442 0.961 1_655 S
H456 C442 0.961 1_655 S
H457 C443 0.958 . S
H458 C443 0.961 . S
H459 C443 0.960 . S
C460 C461 1.391 1_565 S
C460 C462 1.394 . S
C460 H476 0.931 . S
C461 C460 1.391 1_545 S
C461 C465 1.376 . S
C462 C460 1.394 . S
C462 C463 1.369 1_565 S
C462 C466 1.531 . S
C463 C462 1.369 1_545 S
C463 C464 1.410 . S
C463 C471 1.503 . S
C464 C463 1.410 . S
C464 C465 1.392 . S
C464 C467 1.511 . S
C465 C461 1.376 . S
C465 C464 1.392 . S
C465 H477 0.929 . S
C466 C462 1.531 . S
C466 H478 0.960 . S
C466 H479 0.962 . S
C466 H480 0.960 . S
C467 C464 1.511 . S
C467 H481 0.961 . S
C467 H482 0.961 . S
C467 H483 0.961 . S
C468 C469 1.370 1_565 S
C468 C470 1.363 . S
C468 H484 0.931 . S
C469 C468 1.370 1_545 S
C469 C473 1.408 . S
C470 C468 1.363 . S
C470 C471 1.370 1_565 S
C470 C474 1.524 . S
C471 C463 1.503 . S
C471 C470 1.370 1_545 S
C471 C472 1.403 . S
C472 C471 1.403 . S
C472 C473 1.404 . S
C472 C475 1.539 . S
C473 C469 1.408 . S
C473 C472 1.404 . S
C473 H485 0.930 . S
C474 C470 1.524 . S
C474 H486 0.956 . S
C474 H487 0.961 . S
C474 H488 0.961 . S
C475 C472 1.539 . S
C475 H489 0.958 . S
C475 H490 0.961 . S
C475 H491 0.960 . S
H476 C460 0.931 . S
H477 C465 0.929 . S
H478 C466 0.960 . S
H479 C466 0.962 . S
H480 C466 0.960 . S
H481 C467 0.961 . S
H482 C467 0.961 . S
H483 C467 0.961 . S
H484 C468 0.931 . S
H485 C473 0.930 . S
H486 C474 0.956 . S
H487 C474 0.961 . S
H488 C474 0.961 . S
H489 C475 0.958 . S
H490 C475 0.961 . S
H491 C475 0.960 . S
C492 C493 1.391 1_556 S
C492 C494 1.394 . S
C492 H508 0.931 . S
C493 C492 1.391 1_554 S
C493 C497 1.376 . S
C494 C492 1.394 . S
C494 C495 1.369 1_556 S
C494 C498 1.531 . S
C495 C494 1.369 1_554 S
C495 C496 1.410 . S
C495 C503 1.503 . S
C496 C495 1.410 . S
C496 C497 1.392 . S
C496 C499 1.511 . S
C497 C493 1.376 . S
C497 C496 1.392 . S
C497 H509 0.929 . S
C498 C494 1.531 . S
C498 H510 0.960 . S
C498 H511 0.962 . S
C498 H512 0.960 . S
C499 C496 1.511 . S
C499 H513 0.961 . S
C499 H514 0.961 . S
C499 H515 0.961 . S
C500 C501 1.370 . S
C500 C502 1.363 . S
C500 H516 0.931 . S
C501 C500 1.370 . S
C501 C505 1.408 1_554 S
C502 C500 1.363 . S
C502 C503 1.370 . S
C502 C506 1.524 . S
C503 C495 1.503 . S
C503 C502 1.370 . S
C503 C504 1.403 1_554 S
C504 C503 1.403 1_556 S
C504 C505 1.404 . S
C504 C507 1.539 . S
C505 C501 1.408 1_556 S
C505 C504 1.404 . S
C505 H517 0.930 . S
C506 C502 1.524 . S
C506 H518 0.956 1_554 S
C506 H519 0.961 . S
C506 H520 0.961 . S
C507 C504 1.539 . S
C507 H521 0.958 . S
C507 H522 0.961 1_556 S
C507 H523 0.960 1_556 S
H508 C492 0.931 . S
H509 C497 0.929 . S
H510 C498 0.960 . S
H511 C498 0.962 . S
H512 C498 0.960 . S
H513 C499 0.961 . S
H514 C499 0.961 . S
H515 C499 0.961 . S
H516 C500 0.931 . S
H517 C505 0.930 . S
H518 C506 0.956 1_556 S
H519 C506 0.961 . S
H520 C506 0.961 . S
H521 C507 0.958 . S
H522 C507 0.961 1_554 S
H523 C507 0.960 1_554 S
C524 C525 1.391 1_556 S
C524 C526 1.394 . S
C524 H540 0.931 . S
C525 C524 1.391 1_554 S
C525 C529 1.376 . S
C526 C524 1.394 . S
C526 C527 1.369 . S
C526 C530 1.531 . S
C527 C526 1.369 . S
C527 C528 1.410 1_556 S
C527 C535 1.503 . S
C528 C527 1.410 1_554 S
C528 C529 1.392 . S
C528 C531 1.511 . S
C529 C525 1.376 . S
C529 C528 1.392 . S
C529 H541 0.929 . S
C530 C526 1.531 . S
C530 H542 0.960 . S
C530 H543 0.962 . S
C530 H544 0.960 . S
C531 C528 1.511 . S
C531 H545 0.961 . S
C531 H546 0.961 . S
C531 H547 0.961 1_554 S
C532 C533 1.370 . S
C532 C534 1.363 . S
C532 H548 0.931 . S
C533 C532 1.370 . S
C533 C537 1.408 1_554 S
C534 C532 1.363 . S
C534 C535 1.372 1_554 S
C534 C538 1.524 . S
C535 C527 1.503 . S
C535 C534 1.372 1_556 S
C535 C536 1.401 . S
C536 C535 1.401 . S
C536 C537 1.404 . S
C536 C539 1.539 . S
C537 C533 1.408 1_556 S
C537 C536 1.404 . S
C537 H549 0.930 . S
C538 C534 1.524 . S
C538 H550 0.956 . S
C538 H551 0.961 . S
C538 H552 0.961 . S
C539 C536 1.539 . S
C539 H553 0.958 . S
C539 H554 0.961 . S
C539 H555 0.960 . S
H540 C524 0.931 . S
H541 C529 0.929 . S
H542 C530 0.960 . S
H543 C530 0.962 . S
H544 C530 0.960 . S
H545 C531 0.961 . S
H546 C531 0.961 . S
H547 C531 0.961 1_556 S
H548 C532 0.931 . S
H549 C537 0.930 . S
H550 C538 0.956 . S
H551 C538 0.961 . S
H552 C538 0.961 . S
H553 C539 0.958 . S
H554 C539 0.961 . S
H555 C539 0.960 . S
C556 C557 1.391 . S
C556 C558 1.394 . S
C556 H572 0.931 . S
C557 C556 1.391 . S
C557 C561 1.376 1_554 S
C558 C556 1.394 . S
C558 C559 1.369 . S
C558 C562 1.531 . S
C559 C558 1.369 . S
C559 C560 1.410 1_554 S
C559 C567 1.503 . S
C560 C559 1.410 1_556 S
C560 C561 1.392 . S
C560 C563 1.511 . S
C561 C557 1.376 1_556 S
C561 C560 1.392 . S
C561 H573 0.929 . S
C562 C558 1.531 . S
C562 H574 0.960 . S
C562 H575 0.962 . S
C562 H576 0.960 . S
C563 C560 1.511 . S
C563 H577 0.961 . S
C563 H578 0.961 . S
C563 H579 0.961 . S
C564 C565 1.370 1_556 S
C564 C566 1.363 . S
C564 H580 0.931 . S
C565 C564 1.370 1_554 S
C565 C569 1.408 . S
C566 C564 1.363 . S
C566 C567 1.370 1_556 S
C566 C570 1.524 . S
C567 C559 1.503 . S
C567 C566 1.370 1_554 S
C567 C568 1.403 . S
C568 C567 1.403 . S
C568 C569 1.404 . S
C568 C571 1.539 . S
C569 C565 1.408 . S
C569 C568 1.404 . S
C569 H581 0.930 . S
C570 C566 1.524 . S
C570 H582 0.956 . S
C570 H583 0.961 . S
C570 H584 0.961 . S
C571 C568 1.539 . S
C571 H585 0.958 . S
C571 H586 0.961 . S
C571 H587 0.960 . S
H572 C556 0.931 . S
H573 C561 0.929 . S
H574 C562 0.960 . S
H575 C562 0.962 . S
H576 C562 0.960 . S
H577 C563 0.961 . S
H578 C563 0.961 . S
H579 C563 0.961 . S
H580 C564 0.931 . S
H581 C569 0.930 . S
H582 C570 0.956 . S
H583 C570 0.961 . S
H584 C570 0.961 . S
H585 C571 0.958 . S
H586 C571 0.961 . S
H587 C571 0.960 . S
C588 C589 1.391 . S
C588 C590 1.394 . S
C588 H604 0.931 . S
C589 C588 1.391 . S
C589 C593 1.376 1_554 S
C590 C588 1.394 . S
C590 C591 1.369 . S
C590 C594 1.531 . S
C591 C590 1.369 . S
C591 C592 1.410 1_554 S
C591 C599 1.503 . S
C592 C591 1.410 1_556 S
C592 C593 1.392 . S
C592 C595 1.511 . S
C593 C589 1.376 1_556 S
C593 C592 1.392 . S
C593 H605 0.929 . S
C594 C590 1.531 . S
C594 H606 0.960 . S
C594 H607 0.962 . S
C594 H608 0.960 . S
C595 C592 1.511 . S
C595 H609 0.961 . S
C595 H610 0.961 . S
C595 H611 0.961 . S
C596 C597 1.370 . S
C596 C598 1.363 . S
C596 H612 0.931 . S
C597 C596 1.370 . S
C597 C601 1.406 1_554 S
C598 C596 1.363 . S
C598 C599 1.370 . S
C598 C602 1.524 . S
C599 C591 1.503 . S
C599 C598 1.370 . S
C599 C600 1.400 1_554 S
C600 C599 1.400 1_556 S
C600 C601 1.404 . S
C600 C603 1.543 . S
C601 C597 1.406 1_556 S
C601 C600 1.404 . S
C601 H613 0.933 . S
C602 C598 1.524 . S
C602 H614 0.956 . S
C602 H615 0.961 1_554 S
C602 H616 0.961 . S
C603 C600 1.543 . S
C603 H617 0.958 1_556 S
C603 H618 0.961 . S
C603 H619 0.960 . S
H604 C588 0.931 . S
H605 C593 0.929 . S
H606 C594 0.960 . S
H607 C594 0.962 . S
H608 C594 0.960 . S
H609 C595 0.961 . S
H610 C595 0.961 . S
H611 C595 0.961 . S
H612 C596 0.931 . S
H613 C601 0.933 . S
H614 C602 0.956 . S
H615 C602 0.961 1_556 S
H616 C602 0.961 . S
H617 C603 0.958 1_554 S
H618 C603 0.961 . S
H619 C603 0.960 . S
C245 C187 2.028 . S
C237 C53 2.031 . S
C277 C194 1.202 . S
C269 C97 1.221 1_545 S
C309 C189 2.034 . S
C301 C35 2.032 . S
C341 C195 1.316 . S
C333 C91 1.306 1_545 S
C365 C29 2.115 . S
C373 C188 2.187 . S
C405 C197 1.315 1_565 S
C397 C109 1.262 . S
C429 C47 2.151 . S
C437 C186 2.185 . S
C461 C115 1.217 1_545 S
C469 C196 1.212 . S
C493 C153 1.634 . S
C501 C191 1.720 . S
C525 C171 1.675 . S
C533 C190 1.724 . S
C565 C193 1.534 . S
C557 C159 1.528 . S
C597 C192 1.540 . S
C589 C177 1.538 . S
