# Generated by pormake.
# Topology zzz, (3,6)-cn, num edge types: 1
# Building blocks:
#     Node 0, Type 0, BuildingBlock: BETDIP_clean_linker_0, # of connection points: 3
#     Node 1, Type 0, BuildingBlock: BETDIP_clean_linker_0, # of connection points: 3
#     Node 2, Type 0, BuildingBlock: BETDIP_clean_linker_0, # of connection points: 3
#     Node 3, Type 0, BuildingBlock: BETDIP_clean_linker_0, # of connection points: 3
#     Node 4, Type 0, BuildingBlock: BETDIP_clean_linker_0, # of connection points: 3
#     Node 5, Type 0, BuildingBlock: BETDIP_clean_linker_0, # of connection points: 3
#     Node 6, Type 0, BuildingBlock: BETDIP_clean_linker_0, # of connection points: 3
#     Node 7, Type 0, BuildingBlock: BETDIP_clean_linker_0, # of connection points: 3
#     Node 8, Type 1, BuildingBlock: KUMJIN_clean_sbu_0, # of connection points: 6
#     Node 9, Type 1, BuildingBlock: KUMJIN_clean_sbu_0, # of connection points: 6
#     Node 10, Type 1, BuildingBlock: KUMJIN_clean_sbu_0, # of connection points: 6
#     Node 11, Type 1, BuildingBlock: KUMJIN_clean_sbu_0, # of connection points: 6
#     Edge 12, Type (0, 1), BuildingBlock: KIFKEQ_clean_linker_1, # of connection points: 2
#     Edge 13, Type (0, 1), BuildingBlock: KIFKEQ_clean_linker_1, # of connection points: 2
#     Edge 14, Type (0, 1), BuildingBlock: KIFKEQ_clean_linker_1, # of connection points: 2
#     Edge 15, Type (0, 1), BuildingBlock: KIFKEQ_clean_linker_1, # of connection points: 2
#     Edge 16, Type (0, 1), BuildingBlock: KIFKEQ_clean_linker_1, # of connection points: 2
#     Edge 17, Type (0, 1), BuildingBlock: KIFKEQ_clean_linker_1, # of connection points: 2
#     Edge 18, Type (0, 1), BuildingBlock: KIFKEQ_clean_linker_1, # of connection points: 2
#     Edge 19, Type (0, 1), BuildingBlock: KIFKEQ_clean_linker_1, # of connection points: 2
#     Edge 20, Type (0, 1), BuildingBlock: KIFKEQ_clean_linker_1, # of connection points: 2
#     Edge 21, Type (0, 1), BuildingBlock: KIFKEQ_clean_linker_1, # of connection points: 2
#     Edge 22, Type (0, 1), BuildingBlock: KIFKEQ_clean_linker_1, # of connection points: 2
#     Edge 23, Type (0, 1), BuildingBlock: KIFKEQ_clean_linker_1, # of connection points: 2
#     Edge 24, Type (0, 1), BuildingBlock: KIFKEQ_clean_linker_1, # of connection points: 2
#     Edge 25, Type (0, 1), BuildingBlock: KIFKEQ_clean_linker_1, # of connection points: 2
#     Edge 26, Type (0, 1), BuildingBlock: KIFKEQ_clean_linker_1, # of connection points: 2
#     Edge 27, Type (0, 1), BuildingBlock: KIFKEQ_clean_linker_1, # of connection points: 2
#     Edge 28, Type (0, 1), BuildingBlock: KIFKEQ_clean_linker_1, # of connection points: 2
#     Edge 29, Type (0, 1), BuildingBlock: KIFKEQ_clean_linker_1, # of connection points: 2
#     Edge 30, Type (0, 1), BuildingBlock: KIFKEQ_clean_linker_1, # of connection points: 2
#     Edge 31, Type (0, 1), BuildingBlock: KIFKEQ_clean_linker_1, # of connection points: 2
#     Edge 32, Type (0, 1), BuildingBlock: KIFKEQ_clean_linker_1, # of connection points: 2
#     Edge 33, Type (0, 1), BuildingBlock: KIFKEQ_clean_linker_1, # of connection points: 2
#     Edge 34, Type (0, 1), BuildingBlock: KIFKEQ_clean_linker_1, # of connection points: 2
#     Edge 35, Type (0, 1), BuildingBlock: KIFKEQ_clean_linker_1, # of connection points: 2
# Relax obj value: 0.175
# Max RMSD: 0.163
# Mean RMSD: 0.115
data_MOF--net-zzz--node1-KUMJIN_clean_sbu_0--node2-BETDIP_clean_linker_0--edge1-KIFKEQ_clean_linker_1
_symmetry_space_group_name_H-M    P1
_symmetry_Int_Tables_number       1
_symmetry_cell_setting            triclinic
loop_
_symmetry_equiv_pos_as_xyz
'x, y, z'
_cell_length_a     51.762478
_cell_length_b     51.780588
_cell_length_c     14.977367
_cell_angle_alpha  91.006841
_cell_angle_beta   89.93094
_cell_angle_gamma 89.9457
loop_
_atom_site_label
_atom_site_type_symbol
_atom_site_fract_x
_atom_site_fract_y
_atom_site_fract_z
_atom_type_partial_charge
H0 H 0.7644 0.5254 0.30654 0.0
H1 H 0.76034 0.56802 0.06091 0.0
H2 H 0.82907 0.57083 0.2181 0.0
H3 H 0.71904 0.57416 0.10528 0.0
C4 C 0.71382 0.55428 0.11855 0.0
C5 C 0.77289 0.53849 0.25923 0.0
C6 C 0.79882 0.54734 0.27215 0.0
C7 C 0.75799 0.54702 0.18476 0.0
C8 C 0.77014 0.56295 0.12196 0.0
C9 C 0.79534 0.57186 0.13494 0.0
C10 C 0.80921 0.56445 0.21034 0.0
N11 N 0.73152 0.53905 0.17026 0.0
H12 H 0.01952 0.77722 0.29583 0.0
H13 H 0.96376 0.76377 0.08539 0.0
H14 H 0.9645 0.83608 0.22795 0.0
H15 H 0.9668 0.72284 0.12451 0.0
C16 C 0.98763 0.72053 0.12757 0.0
C17 C 1.00307 0.78344 0.25715 0.0
C18 C 0.99245 0.80874 0.27269 0.0
C19 C 0.99208 0.76623 0.19117 0.0
C20 C 0.97143 0.7755 0.13952 0.0
C21 C 0.96147 0.80049 0.15202 0.0
C22 C 0.97161 0.81646 0.21998 0.0
N23 N 1.00252 0.74066 0.17191 0.0
H24 H 0.76013 1.00953 0.32146 0.0
H25 H 0.77536 0.96343 0.084 0.0
H26 H 0.70011 0.96289 0.20135 0.0
H27 H 0.81512 0.95908 0.1706 0.0
C28 C 0.81797 0.97975 0.16346 0.0
C29 C 0.75373 0.99579 0.27089 0.0
C30 C 0.72788 0.98598 0.27359 0.0
C31 C 0.77144 0.98703 0.20325 0.0
C32 C 0.76256 0.96947 0.1377 0.0
C33 C 0.73703 0.96078 0.13662 0.0
C34 C 0.72016 0.96882 0.20488 0.0
N35 N 0.79765 0.99635 0.19682 0.0
H36 H 0.52944 0.77525 0.34429 0.0
H37 H 0.57369 0.78133 0.10094 0.0
H38 H 0.57249 0.70997 0.24171 0.0
H39 H 0.5824 0.82422 0.19454 0.0
C40 C 0.56192 0.82762 0.18357 0.0
C41 C 0.54256 0.76687 0.29542 0.0
C42 C 0.55056 0.74074 0.30317 0.0
C43 C 0.55185 0.78212 0.22407 0.0
C44 C 0.5679 0.77052 0.15895 0.0
C45 C 0.57537 0.74466 0.16534 0.0
C46 C 0.56722 0.73023 0.2384 0.0
N47 N 0.54409 0.80851 0.21397 0.0
H48 H 0.27125 0.52162 0.0236 0.0
H49 H 0.27814 0.47245 0.25326 0.0
H50 H 0.20989 0.46944 0.09296 0.0
H51 H 0.29751 0.51026 0.30611 0.0
C52 C 0.31214 0.51089 0.25401 0.0
C53 C 0.26366 0.50665 0.06577 0.0
C54 C 0.23876 0.4959 0.04735 0.0
C55 C 0.27836 0.49822 0.14075 0.0
C56 C 0.26766 0.47912 0.19553 0.0
C57 C 0.24316 0.46883 0.17854 0.0
C58 C 0.22926 0.47685 0.10386 0.0
N59 N 0.30338 0.50891 0.16283 0.0
H60 H 0.01602 0.26514 0.03044 0.0
H61 H 0.07511 0.28151 0.22706 0.0
H62 H 0.07436 0.20854 0.08735 0.0
H63 H 0.03696 0.29671 0.29997 0.0
C64 C 0.03321 0.31086 0.24875 0.0
C65 C 0.03335 0.25961 0.06568 0.0
C66 C 0.045 0.23495 0.04696 0.0
C67 C 0.04407 0.27673 0.13235 0.0
C68 C 0.06645 0.26878 0.17741 0.0
C69 C 0.07712 0.24415 0.16347 0.0
C70 C 0.06672 0.2279 0.09669 0.0
N71 N 0.03238 0.30128 0.15746 0.0
H72 H 0.27957 0.02879 0.99968 0.0
H73 H 0.26146 0.0746 0.23477 0.0
H74 H 0.33673 0.07937 0.11774 0.0
H75 H 0.25034 0.02398 0.2614 0.0
C76 C 0.23486 0.02939 0.21629 0.0
C77 C 0.28512 0.04323 0.04915 0.0
C78 C 0.31033 0.05454 0.04591 0.0
C79 C 0.26738 0.05034 0.11873 0.0
C80 C 0.2749 0.06901 0.18232 0.0
C81 C 0.29977 0.07946 0.18261 0.0
C82 C 0.31705 0.07232 0.1142 0.0
N83 N 0.24257 0.03827 0.12974 0.0
H84 H 0.50758 0.27034 0.9928 0.0
H85 H 0.46092 0.26723 0.23232 0.0
H86 H 0.46092 0.33541 0.07533 0.0
H87 H 0.49622 0.24449 0.2768 0.0
C88 C 0.49684 0.23044 0.22206 0.0
C89 C 0.49364 0.279 0.03824 0.0
C90 C 0.48449 0.30447 0.02323 0.0
C91 C 0.48523 0.26515 0.11426 0.0
C92 C 0.4676 0.27716 0.17362 0.0
C93 C 0.45892 0.30236 0.15998 0.0
C94 C 0.46693 0.31552 0.08398 0.0
N95 N 0.49472 0.23964 0.13249 0.0
Eu96 Eu 0.04034 0.01347 0.75183 0.0
C97 C 0.94835 1.00008 0.48716 0.0
C98 C 0.96333 0.96922 0.37552 0.0
C99 C 0.91756 0.97206 0.41016 0.0
C100 C 0.96843 0.98881 0.43999 0.0
C101 C 0.92261 0.9922 0.47159 0.0
C102 C 0.9379 0.96057 0.36224 0.0
C103 C 0.90853 0.02602 0.57353 0.0
N104 N 0.95383 0.0196 0.54535 0.0
C105 C 0.9343 0.03319 0.58638 0.0
C106 C 0.90266 1.00524 0.51662 0.0
Eu107 Eu 0.99803 0.0298 0.56978 0.0
N108 N 0.99277 0.99776 0.45416 0.0
C109 C 1.01258 0.989 0.40102 0.0
C110 C 0.98384 0.95932 0.32471 0.0
C111 C 1.0085 0.96951 0.33675 0.0
H112 H 0.93872 0.04914 0.63124 0.0
H113 H 0.02447 0.96228 0.29682 0.0
H114 H 0.93369 0.94541 0.31362 0.0
H115 H 0.89323 0.03649 0.60773 0.0
H116 H 0.0319 0.99615 0.40871 0.0
H117 H 0.01509 0.08194 0.02322 0.0
H118 H 0.98075 0.94423 0.27485 0.0
H119 H 0.09928 0.99258 0.69232 0.0
H120 H 1.00711 0.04805 0.91181 0.0
H121 H 0.14502 1.00394 0.71738 0.0
H122 H 0.89796 0.96561 0.39782 0.0
H123 H 0.05915 0.09914 0.04534 0.0
H124 H 0.10624 0.09681 1.00744 0.0
H125 H 0.88266 0.99975 0.50652 0.0
H126 H 0.14164 0.07553 0.92473 0.0
N127 N 0.04619 0.04562 0.86678 0.0
C128 C 0.02654 0.05483 0.91966 0.0
C129 C 0.0558 0.08404 0.99568 0.0
C130 C 0.07615 0.07363 0.94533 0.0
C131 C 0.03095 0.07433 0.98359 0.0
C132 C 0.0707 0.05407 0.8811 0.0
H133 H 0.15632 0.04065 0.81776 0.0
N134 N 0.08473 0.02272 0.77688 0.0
C135 C 0.12992 0.01493 0.75068 0.0
C136 C 0.09059 0.04222 0.83469 0.0
C137 C 0.10399 1.00851 0.73692 0.0
C138 C 0.13621 0.03571 0.80707 0.0
C139 C 0.11649 0.04943 0.8509 0.0
O140 O 0.06035 0.98049 0.80844 0.0
O141 O 0.01604 0.9967 0.63979 0.0
O142 O 0.97328 1.01027 0.67601 0.0
O143 O 0.9983 0.01743 0.80237 0.0
O144 O 0.05265 0.98197 0.65192 0.0
O145 O 0.0224 0.99072 0.85681 0.0
O146 O 0.97741 0.0625 0.51374 0.0
O147 O 0.02233 0.0466 0.6816 0.0
O148 O 0.06536 0.03267 0.64605 0.0
O149 O 0.04019 0.02642 0.51941 0.0
O150 O 0.98564 0.06123 0.66966 0.0
O151 O 0.01547 0.05287 0.4647 0.0
C152 C 0.03133 0.97954 0.60862 0.0
C153 C 0.03012 0.94667 0.82086 0.0
C154 C 0.99433 0.91618 0.8027 0.0
C155 C 1.00425 0.93972 0.83619 0.0
C156 C 1.01053 0.90006 0.75047 0.0
C157 C 0.04601 0.92984 0.77043 0.0
C158 C 0.03612 0.90691 0.73455 0.0
C159 C 0.97577 1.01192 0.76401 0.0
C160 C 0.03968 0.97249 0.84892 0.0
C161 C 0.12191 0.06958 0.91194 0.0
C162 C 0.10176 0.08168 0.95901 0.0
C163 C 1.007 0.06374 0.71276 0.0
C164 C 1.00705 0.09685 0.49976 0.0
C165 C 0.03252 0.10449 0.48086 0.0
C166 C 0.04222 0.12824 0.5135 0.0
C167 C 0.02623 0.14391 0.56799 0.0
C168 C 0.99131 0.11326 0.55244 0.0
C169 C 1.00101 0.13642 0.58715 0.0
C170 C 0.06279 0.03152 0.55801 0.0
C171 C 0.99786 0.0708 0.47263 0.0
H172 H 0.99183 0.95267 0.87435 0.0
H173 H 1.00388 0.88154 0.72494 0.0
H174 H 0.06597 0.93465 0.75663 0.0
H175 H 0.04843 0.89425 0.69499 0.0
H176 H 0.04482 0.09191 0.4408 0.0
H177 H 0.03274 0.16254 0.59299 0.0
H178 H 0.97167 0.10794 0.56888 0.0
H179 H 0.98884 0.14875 0.62846 0.0
Eu180 Eu 0.52671 0.04415 0.74613 0.0
C181 C 0.54668 0.94961 0.49344 0.0
C182 C 0.57701 0.96646 0.38655 0.0
C183 C 0.57874 0.92113 0.42465 0.0
C184 C 0.55633 0.97018 0.44721 0.0
C185 C 0.55719 0.92463 0.48056 0.0
C186 C 0.58867 0.94205 0.37775 0.0
C187 C 0.52239 0.90796 0.56993 0.0
N188 N 0.52565 0.95362 0.54554 0.0
C189 C 0.51266 0.93304 0.57992 0.0
C190 C 0.54506 0.90378 0.52136 0.0
Eu191 Eu 0.51133 0.99693 0.56962 0.0
N192 N 0.54439 0.99342 0.45703 0.0
C193 C 0.55098 0.01312 0.40148 0.0
C194 C 0.58479 0.98713 0.3343 0.0
C195 C 0.57135 1.01039 0.34056 0.0
H196 H 0.49504 0.93618 0.61749 0.0
H197 H 0.5768 0.02637 0.29894 0.0
H198 H 0.6048 0.93897 0.33257 0.0
H199 H 0.51238 0.8919 0.59964 0.0
H200 H 0.5414 0.03144 0.40447 0.0
H201 H 0.46394 0.01447 0.02353 0.0
H202 H 0.60061 0.9851 0.28724 0.0
H203 H 0.53929 0.1043 0.67952 0.0
H204 H 0.49804 1.00908 0.91301 0.0
H205 H 0.52207 0.14853 0.70048 0.0
H206 H 0.58729 0.90218 0.41486 0.0
H207 H 0.44093 0.05607 0.0398 0.0
H208 H 0.43647 0.10219 0.99543 0.0
H209 H 0.55251 0.88432 0.51312 0.0
H210 H 0.45233 0.13872 0.90821 0.0
N211 N 0.49504 0.04742 0.86252 0.0
C212 C 0.48876 0.0276 0.91797 0.0
C213 C 0.45617 0.05395 0.99055 0.0
C214 C 0.4635 0.07462 0.93748 0.0
C215 C 0.46915 0.03049 0.98168 0.0
C216 C 0.48338 0.0708 0.87381 0.0
H217 H 0.48454 0.15629 0.79982 0.0
N218 N 0.51181 0.08724 0.76632 0.0
C219 C 0.51338 0.13262 0.73555 0.0
C220 C 0.49207 0.09132 0.82429 0.0
C221 C 0.52316 0.1076 0.72429 0.0
C222 C 0.49215 0.13689 0.79135 0.0
C223 C 0.48143 0.11621 0.83751 0.0
O224 O 0.55809 0.06958 0.78789 0.0
O225 O 0.54353 0.0174 0.64053 0.0
O226 O 0.52617 0.97348 0.68681 0.0
O227 O 0.52879 1.00355 0.80459 0.0
O228 O 0.55694 0.0549 0.64242 0.0
O229 O 0.55196 0.0338 0.85686 0.0
O230 O 0.48015 0.97321 0.51438 0.0
O231 O 0.49503 0.02285 0.67726 0.0
O232 O 0.50447 0.06517 0.63862 0.0
O233 O 0.51167 0.03841 0.51511 0.0
O234 O 0.48005 0.98614 0.67022 0.0
O235 O 0.48614 1.01144 0.46463 0.0
C236 C 0.56005 0.03237 0.60622 0.0
C237 C 0.5949 0.04469 0.81515 0.0
C238 C 0.62714 1.01116 0.78386 0.0
C239 C 0.60245 0.01859 0.81416 0.0
C240 C 0.64381 0.03021 0.75052 0.0
C241 C 0.61213 0.06336 0.78329 0.0
C242 C 0.63626 0.05606 0.7501 0.0
C243 C 0.52962 0.9795 0.77242 0.0
C244 C 0.56823 0.0523 0.8391 0.0
C245 C 0.46094 0.11982 0.89794 0.0
C246 C 0.45194 0.09904 0.94766 0.0
C247 C 0.47806 1.00823 0.71061 0.0
C248 C 0.44329 0.99943 0.50126 0.0
C249 C 0.43508 0.02534 0.5018 0.0
C250 C 0.4106 0.03238 0.53517 0.0
C251 C 0.39483 0.01313 0.57206 0.0
C252 C 0.42691 0.98055 0.53677 0.0
C253 C 0.40303 0.98748 0.57302 0.0
C254 C 0.50526 0.06117 0.55118 0.0
C255 C 0.46984 0.99249 0.47315 0.0
H256 H 0.58914 1.00398 0.83691 0.0
H257 H 0.66315 0.02541 0.72816 0.0
H258 H 0.60667 0.08355 0.7821 0.0
H259 H 0.64933 0.07055 0.72507 0.0
H260 H 0.44777 0.04009 0.47614 0.0
H261 H 0.37566 0.01756 0.59688 0.0
H262 H 0.43281 0.96049 0.53835 0.0
H263 H 0.39064 0.97283 0.60083 0.0
Eu264 Eu 0.54378 0.51585 0.58225 0.0
C265 C 0.43689 0.5001 0.76602 0.0
C266 C 0.40544 0.52197 0.67468 0.0
C267 C 0.39248 0.48477 0.76045 0.0
C268 C 0.43096 0.51937 0.70669 0.0
C269 C 0.41758 0.48294 0.79518 0.0
C270 C 0.38642 0.50424 0.70027 0.0
C271 C 0.44866 0.46487 0.8968 0.0
N272 N 0.46123 0.49891 0.79878 0.0
C273 C 0.4671 0.48229 0.86599 0.0
C274 C 0.42387 0.46493 0.8603 0.0
Eu275 Eu 0.49188 0.5285 0.74181 0.0
N276 N 0.44981 0.5362 0.6831 0.0
C277 C 0.44378 0.55712 0.63261 0.0
C278 C 0.39962 0.54264 0.6194 0.0
C279 C 0.41881 0.56044 0.59917 0.0
H280 H 0.48635 0.48202 0.89391 0.0
H281 H 0.41443 0.57675 0.55756 0.0
H282 H 0.36683 0.50579 0.67548 0.0
H283 H 0.45362 0.45134 0.94835 0.0
H284 H 0.45805 0.57123 0.61578 0.0
H285 H 0.62106 0.46796 0.76788 0.0
H286 H 0.38029 0.54529 0.59341 0.0
H287 H 0.54998 0.56215 0.42921 0.0
H288 H 0.57793 0.47242 0.70338 0.0
H289 H 0.58243 0.59393 0.3802 0.0
H290 H 0.37746 0.47161 0.78136 0.0
H291 H 0.65416 0.50143 0.74289 0.0
H292 H 0.66712 0.54215 0.66678 0.0
H293 H 0.40958 0.45144 0.88436 0.0
H294 H 0.6567 0.57636 0.56073 0.0
N295 N 0.58555 0.50872 0.64372 0.0
C296 C 0.59183 0.48734 0.69141 0.0
C297 C 0.6351 0.50355 0.71405 0.0
C298 C 0.62917 0.52454 0.66031 0.0
C299 C 0.61649 0.48462 0.72819 0.0
C300 C 0.604 0.52645 0.62471 0.0
H301 H 0.62543 0.59544 0.45208 0.0
N302 N 0.57429 0.54613 0.52856 0.0
C303 C 0.58709 0.58058 0.4326 0.0
C304 C 0.59818 0.54575 0.56534 0.0
C305 C 0.56883 0.56251 0.46021 0.0
C306 C 0.61129 0.58142 0.47358 0.0
C307 C 0.61727 0.56361 0.53972 0.0
O308 O 0.55298 0.50942 0.4419 0.0
O309 O 0.50077 0.51545 0.60266 0.0
O310 O 0.49225 0.48542 0.70875 0.0
O311 O 0.53487 0.47942 0.66446 0.0
O312 O 0.51324 0.53025 0.48404 0.0
O313 O 0.54925 0.47666 0.52885 0.0
O314 O 0.48374 0.53535 0.88277 0.0
O315 O 0.53486 0.52867 0.72137 0.0
O316 O 0.54316 0.55893 0.61526 0.0
O317 O 0.50049 0.56473 0.65847 0.0
O318 O 0.52238 0.5134 0.83908 0.0
O319 O 0.48753 0.56787 0.7948 0.0
C320 C 0.49302 0.52451 0.52953 0.0
C321 C 0.53364 0.4727 0.38015 0.0
C322 C 0.49357 0.45051 0.33991 0.0
C323 C 0.51015 0.4612 0.40516 0.0
C324 C 0.50051 0.45261 0.24909 0.0
C325 C 0.54005 0.47448 0.28958 0.0
C326 C 0.52342 0.46468 0.22443 0.0
C327 C 0.51269 0.47039 0.69635 0.0
C328 C 0.55099 0.48448 0.44663 0.0
C329 C 0.64189 0.56261 0.57871 0.0
C330 C 0.64782 0.54313 0.63903 0.0
C331 C 0.54262 0.5192 0.7938 0.0
C332 C 0.50485 0.57159 0.94146 0.0
C333 C 0.52714 0.58465 0.91293 0.0
C334 C 0.54464 0.59512 0.97567 0.0
C335 C 0.53994 0.59113 0.06732 0.0
C336 C 0.50065 0.56801 0.03285 0.0
C337 C 0.51827 0.5775 0.09529 0.0
C338 C 0.52266 0.57387 0.62703 0.0
C339 C 0.48646 0.56021 0.87735 0.0
H340 H 0.50495 0.46042 0.47514 0.0
H341 H 0.48882 0.44404 0.19656 0.0
H342 H 0.55787 0.48365 0.26928 0.0
H343 H 0.52853 0.46601 0.15455 0.0
H344 H 0.53069 0.58683 0.84219 0.0
H345 H 0.55235 0.59942 0.11834 0.0
H346 H 0.48377 0.55768 0.05586 0.0
H347 H 0.51486 0.57477 0.16582 0.0
Eu348 Eu 0.02648 0.54542 0.57643 0.0
C349 C 0.03951 0.44275 0.77758 0.0
C350 C 0.01894 0.40995 0.6851 0.0
C351 C 0.05506 0.39839 0.7797 0.0
C352 C 0.02104 0.43592 0.71491 0.0
C353 C 0.05631 0.42393 0.81235 0.0
C354 C 0.03643 0.39142 0.7161 0.0
C355 C 0.07279 0.45638 0.91504 0.0
N356 N 0.04015 0.46751 0.80824 0.0
C357 C 0.05578 0.47432 0.87861 0.0
C358 C 0.07334 0.43115 0.88085 0.0
Eu359 Eu 1.01153 0.49732 0.74075 0.0
N360 N 1.00436 0.4543 0.68628 0.0
C361 C 0.98391 0.44736 0.63326 0.0
C362 C 0.99892 0.40321 0.62671 0.0
C363 C 0.98113 0.42193 0.60177 0.0
H364 H 0.05562 0.49391 0.90478 0.0
H365 H 0.96526 0.41683 0.55793 0.0
H366 H 0.03527 0.3715 0.69302 0.0
H367 H 0.08553 0.46207 0.96916 0.0
H368 H 0.9698 0.46119 0.61265 0.0
H369 H 0.07169 0.62644 0.75917 0.0
H370 H 0.99671 0.38353 0.60209 0.0
H371 H 0.98319 0.54888 0.40942 0.0
H372 H 0.06846 0.5823 0.70024 0.0
H373 H 0.95244 0.58031 0.34717 0.0
H374 H 0.06798 0.38374 0.80488 0.0
H375 H 0.03844 0.65875 0.72191 0.0
H376 H 0.99901 0.67008 0.63404 0.0
H377 H 0.08651 0.41726 0.90926 0.0
H378 H 0.9667 0.65765 0.52102 0.0
N379 N 0.03284 0.58838 0.63215 0.0
C380 C 0.05356 0.59574 0.68312 0.0
C381 C 0.0368 0.63918 0.69569 0.0
C382 C 0.01667 0.63214 0.63814 0.0
C383 C 0.05561 0.62102 0.71672 0.0
C384 C 0.01535 0.60635 0.60617 0.0
H385 H 0.94965 0.62447 0.41217 0.0
N386 N 0.99744 0.57492 0.50937 0.0
C387 C 0.96479 0.58592 0.40243 0.0
C388 C 0.99713 0.59941 0.54275 0.0
C389 C 0.98229 0.56823 0.43758 0.0
C390 C 0.96321 0.61078 0.43954 0.0
C391 C 0.97978 0.61795 0.5095 0.0
O392 O 0.03564 0.55435 0.4384 0.0
O393 O 0.02613 0.50262 0.60204 0.0
O394 O 0.05525 0.49738 0.71956 0.0
O395 O 0.06183 0.53885 0.66865 0.0
O396 O 1.0122 0.51358 0.48038 0.0
O397 O 0.06658 0.54629 0.53042 0.0
O398 O 1.0029 0.48988 0.88028 0.0
O399 O 1.01186 0.54012 0.71504 0.0
O400 O 0.98272 0.54529 0.5965 0.0
O401 O 0.97594 0.50412 0.64984 0.0
O402 O 0.02619 0.5292 0.8361 0.0
O403 O 0.97156 0.496 0.78777 0.0
C404 C 0.01731 0.49389 0.52849 0.0
C405 C 0.07019 0.53008 0.38128 0.0
C406 C 0.09287 0.48983 0.3437 0.0
C407 C 0.0827 0.50732 0.40783 0.0
C408 C 0.08877 0.49494 0.25242 0.0
C409 C 0.06652 0.53463 0.29021 0.0
C410 C 0.07546 0.51696 0.22631 0.0
C411 C 0.07048 0.51754 0.70716 0.0
C412 C 0.05997 0.54892 0.44707 0.0
C413 C 0.98009 0.64323 0.5449 0.0
C414 C 0.99848 0.6503 0.60924 0.0
C415 C 0.02092 0.54888 0.78819 0.0
C416 C 0.9682 0.51451 0.93372 0.0
C417 C 0.95572 0.53679 0.90282 0.0
C418 C 0.94564 0.55531 0.96347 0.0
C419 C 0.94998 0.55182 0.05564 0.0
C420 C 0.97207 0.51152 0.02553 0.0
C421 C 0.96333 0.53029 0.08595 0.0
C422 C 0.96737 0.52533 0.61051 0.0
C423 C 0.97845 0.49476 0.87138 0.0
H424 H 0.08481 0.5035 0.47827 0.0
H425 H 0.09677 0.48265 0.20019 0.0
H426 H 0.05663 0.55188 0.26853 0.0
H427 H 0.07267 0.52067 0.15606 0.0
H428 H 0.95355 0.53941 0.83169 0.0
H429 H 0.9421 0.56497 0.10553 0.0
H430 H 0.98201 0.49469 0.05046 0.0
H431 H 0.96629 0.52782 0.15683 0.0
H432 H 0.18724 0.04527 0.14287 0.0
H433 H 0.22168 0.01571 0.38222 0.0
H434 H 0.14501 0.04763 0.21997 0.0
H435 H 0.1803 0.01788 0.45801 0.0
H436 H 0.11112 0.0485 0.60812 0.0
H437 H 0.15085 0.04891 0.52118 0.0
H438 H 0.10908 0.02225 0.28823 0.0
H439 H 0.06911 0.02171 0.37605 0.0
C440 C 0.18586 0.03917 0.21148 0.0
C441 C 0.20806 0.03035 0.25615 0.0
C442 C 0.1616 0.04047 0.25592 0.0
C443 C 0.159 0.0333 0.3464 0.0
C444 C 0.18128 0.02418 0.38953 0.0
C445 C 0.20517 0.02272 0.34541 0.0
C446 C 0.11027 0.04246 0.53868 0.0
C447 C 0.0867 0.03428 0.50075 0.0
C448 C 0.13323 0.04275 0.48825 0.0
C449 C 0.13363 0.03513 0.39724 0.0
C450 C 0.10981 0.02822 0.35783 0.0
C451 C 0.08676 0.02777 0.40871 0.0
H452 H 0.52648 0.18781 0.17379 0.0
H453 H 0.46145 0.2115 0.33482 0.0
H454 H 0.52651 0.14563 0.24632 0.0
H455 H 0.46007 0.1693 0.40297 0.0
H456 H 0.48326 0.1077 0.59668 0.0
H457 H 0.48035 0.14641 0.50952 0.0
H458 H 0.51026 0.10465 0.27922 0.0
H459 H 0.5149 0.06618 0.36977 0.0
C460 C 0.51161 0.18363 0.22239 0.0
C461 C 0.49385 0.20291 0.2482 0.0
C462 C 0.51159 0.15941 0.26448 0.0
C463 C 0.49361 0.15378 0.33279 0.0
C464 C 0.47488 0.17278 0.3536 0.0
C465 C 0.47532 0.19699 0.31321 0.0
C466 C 0.48966 0.10676 0.52794 0.0
C467 C 0.50025 0.08381 0.49202 0.0
C468 C 0.48748 0.12906 0.47661 0.0
C469 C 0.49512 0.1292 0.38607 0.0
C470 C 0.50465 0.10582 0.3488 0.0
C471 C 0.50714 0.0835 0.40089 0.0
H472 H 0.3584 0.51984 0.16009 0.0
H473 H 0.32861 0.50348 0.42189 0.0
H474 H 0.4025 0.52176 0.22251 0.0
H475 H 0.37201 0.50507 0.48345 0.0
H476 H 0.45557 0.48759 0.5603 0.0
H477 H 0.41338 0.48274 0.48739 0.0
H478 H 0.43001 0.54846 0.3237 0.0
H479 H 0.47207 0.55319 0.397 0.0
C480 C 0.3612 0.51651 0.23058 0.0
C481 C 0.3398 0.51151 0.28574 0.0
C482 C 0.38651 0.51771 0.26674 0.0
C483 C 0.39113 0.5135 0.35861 0.0
C484 C 0.36961 0.50813 0.41261 0.0
C485 C 0.34454 0.50735 0.37705 0.0
C486 C 0.45007 0.50117 0.50955 0.0
C487 C 0.46691 0.52135 0.48693 0.0
C488 C 0.42587 0.49835 0.4671 0.0
C489 C 0.41787 0.51536 0.39956 0.0
C490 C 0.43527 0.53489 0.37476 0.0
C491 C 0.45938 0.53775 0.41748 0.0
H492 H 0.02149 0.35698 0.15772 0.0
H493 H 0.04007 0.32802 0.41785 0.0
H494 H 0.01864 0.40109 0.2225 0.0
H495 H 0.03721 0.37135 0.48196 0.0
H496 H 0.05321 0.45548 0.56546 0.0
H497 H 0.05781 0.4128 0.49307 0.0
H498 H 0.99339 0.42967 0.32099 0.0
H499 H 0.98896 0.47217 0.39356 0.0
C500 C 0.02498 0.35991 0.22843 0.0
C501 C 0.03103 0.33865 0.2821 0.0
C502 C 0.02327 0.38529 0.26608 0.0
C503 C 0.02786 0.39027 0.35827 0.0
C504 C 0.03397 0.36885 0.41092 0.0
C505 C 0.03542 0.34373 0.37379 0.0
C506 C 0.03981 0.44993 0.51307 0.0
C507 C 0.02016 0.46712 0.48771 0.0
C508 C 0.04249 0.42538 0.47083 0.0
C509 C 0.02585 0.41722 0.40068 0.0
C510 C 1.00674 0.43489 0.37385 0.0
C511 C 1.00403 0.45933 0.41628 0.0
H512 H 0.84358 0.02738 0.14498 0.0
H513 H 0.84254 0.94887 0.04465 0.0
H514 H 0.8813 0.0363 0.04877 0.0
H515 H 0.8793 0.95776 0.94846 0.0
H516 H 0.92938 0.98877 0.7203 0.0
H517 H 0.89095 0.98344 0.81345 0.0
H518 H 0.92947 0.02208 0.03297 0.0
H519 H 0.96806 0.02711 0.94031 0.0
C520 C 0.85112 1.01215 0.10187 0.0
C521 C 0.83983 0.9874 0.1026 0.0
C522 C 0.87287 0.01717 0.04701 0.0
C523 C 0.88347 0.99778 0.98993 0.0
C524 C 0.87172 0.97331 0.99013 0.0
C525 C 0.85057 0.9682 0.04588 0.0
C526 C 0.92974 0.99625 0.78826 0.0
C527 C 0.95213 1.00845 0.82194 0.0
C528 C 0.90761 0.99312 0.84207 0.0
C529 C 0.90683 1.00242 0.93124 0.0
C530 C 0.92907 0.01492 0.96461 0.0
C531 C 0.9514 0.01763 0.91127 0.0
H532 H 0.51523 0.84031 0.10275 0.0
H533 H 0.59264 0.86823 0.14763 0.0
H534 H 0.50643 0.87772 0.00854 0.0
H535 H 0.58408 0.90531 0.05407 0.0
H536 H 0.55464 0.98081 0.93491 0.0
H537 H 0.56052 0.94561 0.04009 0.0
H538 H 0.51861 0.8942 0.86267 0.0
H539 H 0.51236 0.92938 0.75955 0.0
C540 C 0.53025 0.85457 0.09352 0.0
C541 C 0.55463 0.85127 0.13304 0.0
C542 C 0.52532 0.87595 0.03881 0.0
C543 C 0.54456 0.89472 0.02298 0.0
C544 C 0.56863 0.89162 0.065 0.0
C545 C 0.57359 0.87022 0.11858 0.0
C546 C 0.5467 0.962 0.91823 0.0
C547 C 0.53349 0.95797 0.83702 0.0
C548 C 0.55014 0.9417 0.97859 0.0
C549 C 0.54011 0.91681 0.96036 0.0
C550 C 0.5265 0.913 0.87991 0.0
C551 C 0.52331 0.93319 0.81943 0.0
H552 H 0.67467 0.52065 0.17214 0.0
H553 H 0.69942 0.56713 0.95262 0.0
H554 H 0.63362 0.51213 0.09523 0.0
H555 H 0.65977 0.55743 0.87277 0.0
H556 H 0.57691 0.55958 0.77752 0.0
H557 H 0.61751 0.5665 0.85663 0.0
H558 H 0.60756 0.4936 0.98908 0.0
H559 H 0.56615 0.48787 0.91355 0.0
C560 C 0.67167 0.52842 0.1063 0.0
C561 C 0.69049 0.54448 0.06855 0.0
C562 C 0.64797 0.5236 0.06157 0.0
C563 C 0.64255 0.53435 0.97701 0.0
C564 C 0.6622 0.54939 0.93841 0.0
C565 C 0.68539 0.55465 0.98383 0.0
C566 C 0.58356 0.54496 0.82299 0.0
C567 C 0.56852 0.52284 0.83726 0.0
C568 C 0.60711 0.5488 0.86868 0.0
C569 C 0.61673 0.53046 0.92959 0.0
C570 C 0.60125 0.50847 0.94421 0.0
C571 C 0.57745 0.50496 0.89992 0.0
H572 H 0.97406 0.7073 0.95866 0.0
H573 H 0.02263 0.68168 0.17232 0.0
H574 H 0.98332 0.66806 0.87326 0.0
H575 H 0.0308 0.64118 0.09012 0.0
H576 H 0.0525 0.57261 0.90949 0.0
H577 H 0.04767 0.61431 0.9854 0.0
H578 H 0.97573 0.62614 0.84522 0.0
H579 H 0.98185 0.58503 0.76562 0.0
C580 C 0.98709 0.69328 0.9871 0.0
C581 C 0.99802 0.69816 0.07187 0.0
C582 C 0.99207 0.67023 0.93847 0.0
C583 C 1.0076 0.65038 0.97358 0.0
C584 C 0.01903 0.6556 0.05834 0.0
C585 C 0.01445 0.6791 0.10625 0.0
C586 C 0.03583 0.58436 0.894 0.0
C587 C 0.01796 0.57556 0.82941 0.0
C588 C 0.0328 0.60842 0.93873 0.0
C589 C 1.01125 0.62453 0.92307 0.0
C590 C 0.99307 0.61528 0.85901 0.0
C591 C 0.99646 0.5914 0.81279 0.0
H592 H 0.07684 0.25233 0.34424 0.0
H593 H 0.1179 0.21027 0.13651 0.0
H594 H 0.08957 0.22085 0.45081 0.0
H595 H 0.13039 0.17793 0.24479 0.0
H596 H 0.06358 0.12197 0.34758 0.0
H597 H 0.09426 0.1503 0.28022 0.0
H598 H 0.10894 0.18694 0.53662 0.0
H599 H 0.07815 0.1577 0.60563 0.0
C600 C 0.0898 0.23712 0.32177 0.0
C601 C 0.09501 0.23299 0.23047 0.0
C602 C 0.09728 0.21885 0.3838 0.0
C603 C 0.1097 0.19598 0.35519 0.0
C604 C 0.11985 0.19484 0.26802 0.0
C605 C 0.11249 0.21328 0.2058 0.0
C606 C 0.0742 0.13506 0.39109 0.0
C607 C 0.06737 0.13843 0.48135 0.0
C608 C 0.09214 0.15143 0.35212 0.0
C609 C 0.10326 0.17177 0.40233 0.0
C610 C 0.10001 0.17201 0.4956 0.0
C611 C 0.08212 0.15546 0.53489 0.0
H612 H 0.28922 0.06958 0.35721 0.0
H613 H 0.33279 0.12126 0.19115 0.0
H614 H 0.31757 0.0787 0.47988 0.0
H615 H 0.36176 0.13053 0.31603 0.0
H616 H 0.37711 0.06115 0.64149 0.0
H617 H 0.34798 0.09426 0.58674 0.0
H618 H 0.39162 0.09659 0.34077 0.0
H619 H 0.41995 0.06386 0.3937 0.0
C620 C 0.30407 0.08401 0.34792 0.0
C621 C 0.3096 0.09361 0.26286 0.0
C622 C 0.32049 0.08944 0.41932 0.0
C623 C 0.34297 0.1042 0.40638 0.0
C624 C 0.34524 0.11814 0.32691 0.0
C625 C 0.32876 0.11268 0.25512 0.0
C626 C 0.38091 0.06933 0.57676 0.0
C627 C 0.39997 0.05867 0.52 0.0
C628 C 0.36436 0.08856 0.5458 0.0
C629 C 0.3665 0.09705 0.45737 0.0
C630 C 0.3888 0.09022 0.40854 0.0
C631 C 0.40523 0.07103 0.43915 0.0
H632 H 0.41394 0.33047 0.15467 0.0
H633 H 0.47593 0.30839 0.32919 0.0
H634 H 0.40422 0.3673 0.25222 0.0
H635 H 0.46821 0.3457 0.42204 0.0
H636 H 0.48773 0.41969 0.48774 0.0
H637 H 0.46036 0.38208 0.4945 0.0
H638 H 0.42223 0.40562 0.25188 0.0
H639 H 0.44713 0.44462 0.25269 0.0
C640 C 0.42499 0.33317 0.2155 0.0
C641 C 0.44628 0.31728 0.23289 0.0
C642 C 0.41978 0.35456 0.27101 0.0
C643 C 0.43676 0.36118 0.34149 0.0
C644 C 0.45498 0.34238 0.36731 0.0
C645 C 0.45961 0.32063 0.31354 0.0
C646 C 0.4727 0.41749 0.43802 0.0
C647 C 0.4711 0.43414 0.36499 0.0
C648 C 0.45718 0.39544 0.44088 0.0
C649 C 0.44097 0.38897 0.36824 0.0
C650 C 0.43547 0.40859 0.30678 0.0
C651 C 0.45022 0.4311 0.30603 0.0
H652 H 0.23647 0.48228 0.35196 0.0
H653 H 0.21848 0.4221 0.15992 0.0
H654 H 0.20006 0.47046 0.44047 0.0
H655 H 0.1826 0.4083 0.25218 0.0
H656 H 0.10202 0.44295 0.25808 0.0
H657 H 0.14274 0.42103 0.25911 0.0
H658 H 0.16343 0.46208 0.50296 0.0
H659 H 0.12434 0.48686 0.49352 0.0
C660 C 0.22533 0.46552 0.33111 0.0
C661 C 0.22943 0.45392 0.2472 0.0
C662 C 0.20401 0.45854 0.38222 0.0
C663 C 0.18635 0.43974 0.35014 0.0
C664 C 0.19413 0.4244 0.2759 0.0
C665 C 0.21507 0.43192 0.22332 0.0
C666 C 0.11541 0.44759 0.31149 0.0
C667 C 0.11092 0.46869 0.36974 0.0
C668 C 0.13898 0.43451 0.31337 0.0
C669 C 0.15825 0.44184 0.37552 0.0
C670 C 0.15052 0.45782 0.44798 0.0
C671 C 0.12747 0.47181 0.44368 0.0
H672 H 0.96342 0.79354 0.97098 0.0
H673 H 0.92042 0.83388 0.17792 0.0
H674 H 0.94953 0.82448 0.86407 0.0
H675 H 0.90668 0.86568 0.06937 0.0
H676 H 0.9714 0.92371 0.96578 0.0
H677 H 0.94095 0.89515 0.03263 0.0
H678 H 0.92829 0.8571 0.77734 0.0
H679 H 0.95881 0.88665 0.70861 0.0
C680 C 0.94984 0.80824 0.99311 0.0
C681 C 0.94414 0.812 0.08415 0.0
C682 C 0.94167 0.82617 0.93095 0.0
C683 C 0.9281 0.84844 0.95914 0.0
C684 C 0.91797 0.84924 0.04635 0.0
C685 C 0.92605 0.83114 0.10871 0.0
C686 C 0.96125 0.91028 0.92217 0.0
C687 C 0.96876 0.90649 0.83269 0.0
C688 C 0.94342 0.89375 0.9609 0.0
C689 C 0.93321 0.87283 0.91125 0.0
C690 C 0.93667 0.87242 0.81807 0.0
C691 C 0.95442 0.88914 0.77897 0.0
H692 H 0.74756 0.97048 0.96213 0.0
H693 H 0.70231 0.92045 0.12882 0.0
H694 H 0.71878 0.96238 0.83982 0.0
H695 H 0.67292 0.91214 1.00437 0.0
H696 H 0.66039 0.98196 0.67855 0.0
H697 H 0.68827 0.94786 0.73325 0.0
H698 H 0.64372 0.94619 0.97742 0.0
H699 H 0.61622 0.97959 0.92348 0.0
C700 C 0.73219 0.95661 0.97154 0.0
C701 C 0.72644 0.94717 0.05657 0.0
C702 C 0.7155 0.95177 0.90042 0.0
C703 C 0.69254 0.93775 0.9136 0.0
C704 C 0.68982 0.92398 0.99325 0.0
C705 C 0.70656 0.92886 0.06475 0.0
C706 C 0.65601 0.97362 0.74258 0.0
C707 C 0.63695 0.98457 0.79864 0.0
C708 C 0.67191 0.95389 0.77368 0.0
C709 C 0.66929 0.94537 0.86192 0.0
C710 C 0.64694 0.9526 0.9099 0.0
C711 C 0.63102 0.97216 0.87882 0.0
H712 H 0.62122 0.71822 0.15853 0.0
H713 H 0.5552 0.73903 1.00061 0.0
H714 H 0.63054 0.68249 0.05578 0.0
H715 H 0.5625 0.70256 0.90304 0.0
H716 H 0.54564 0.62812 0.83204 0.0
H717 H 0.57056 0.66733 0.82483 0.0
H718 H 0.61479 0.64329 0.05419 0.0
H719 H 0.59238 0.60282 0.05268 0.0
C720 C 0.60917 0.7155 0.10004 0.0
C721 C 0.58706 0.73072 0.0886 0.0
C722 C 0.61413 0.69469 0.04168 0.0
C723 C 0.59613 0.68789 0.9745 0.0
C724 C 0.57664 0.70606 0.95479 0.0
C725 C 0.57225 0.72731 0.01125 0.0
C726 C 0.56147 0.6306 0.87854 0.0
C727 C 0.56553 0.61318 0.94824 0.0
C728 C 0.57557 0.65359 0.87557 0.0
C729 C 0.59281 0.66017 0.94516 0.0
C730 C 0.60066 0.6402 1.00212 0.0
C731 C 0.58736 0.61679 1.0026 0.0
H732 H 0.81846 0.61935 0.14337 0.0
H733 H 0.8036 0.55468 0.96633 0.0
H734 H 0.85309 0.63358 0.04613 0.0
H735 H 0.839 0.56696 0.8732 0.0
H736 H 0.91411 0.55539 0.81298 0.0
H737 H 0.87383 0.57811 0.80247 0.0
H738 H 0.89375 0.62319 0.03843 0.0
H739 H 0.93555 0.60334 0.04 0.0
C740 C 0.82234 0.60855 0.08219 0.0
C741 C 0.80916 0.58546 0.06356 0.0
C742 C 0.84251 0.61639 0.02673 0.0
C743 C 0.85082 0.60036 0.95501 0.0
C744 C 0.83444 0.57971 0.92882 0.0
C745 C 0.81383 0.57239 0.98268 0.0
C746 C 0.91057 0.57091 0.86067 0.0
C747 C 0.92721 0.57565 0.93348 0.0
C748 C 0.88687 0.58372 0.8557 0.0
C749 C 0.87871 0.60002 0.92666 0.0
C750 C 0.89793 0.60925 0.98595 0.0
C751 C 0.92214 0.59739 0.98819 0.0
H752 H 1.00292 0.20301 0.06668 0.0
H753 H 0.06643 0.21758 0.88942 0.0
H754 H 0.99462 0.16198 0.98891 0.0
H755 H 0.0578 0.17704 0.80867 0.0
H756 H 0.05405 0.09006 0.73368 0.0
H757 H 0.06148 0.13215 0.80754 0.0
H758 H 0.98014 0.13742 0.87011 0.0
H759 H 0.97329 0.0953 0.80023 0.0
C760 C 0.01439 0.19805 0.00832 0.0
C761 C 0.03479 0.21435 0.98293 0.0
C762 C 1.00984 0.17414 0.96358 0.0
C763 C 0.02554 0.1654 0.89143 0.0
C764 C 0.04538 0.1823 0.86425 0.0
C765 C 0.05001 0.20609 0.90946 0.0
C766 C 0.0379 0.10002 0.76484 0.0
C767 C 0.01314 0.08872 0.76254 0.0
C768 C 0.04202 0.12456 0.80636 0.0
C769 C 0.02148 0.13887 0.84634 0.0
C770 C 0.99678 0.12737 0.84284 0.0
C771 C 0.99274 0.10298 0.80189 0.0
H772 H 0.34468 0.08695 0.96426 0.0
H773 H 0.32458 1.00632 0.9746 0.0
H774 H 0.38409 0.07636 0.88555 0.0
H775 H 0.36331 0.99552 0.88786 0.0
H776 H 0.44766 0.97877 0.8162 0.0
H777 H 0.40647 0.98927 0.88627 0.0
H778 H 0.4095 0.0652 0.77077 0.0
H779 H 0.4514 0.05469 0.70487 0.0
C780 C 0.34838 0.06681 0.94812 0.0
C781 C 0.33126 0.04754 0.97814 0.0
C782 C 0.37122 0.06065 0.90135 0.0
C783 C 0.37789 0.03485 0.87987 0.0
C784 C 0.35981 0.01562 0.90459 0.0
C785 C 0.33703 0.02183 0.95318 0.0
C786 C 0.43959 0.99783 0.80668 0.0
C787 C 0.45333 0.01607 0.75675 0.0
C788 C 0.41554 1.00386 0.84611 0.0
C789 C 0.40377 0.02824 0.83535 0.0
C790 C 0.41753 0.04636 0.78349 0.0
C791 C 0.44184 0.04039 0.74515 0.0
H792 H 0.46001 0.31713 0.86881 0.0
H793 H 0.5287 0.33317 0.02129 0.0
H794 H 0.46852 0.3546 0.77628 0.0
H795 H 0.53698 0.37128 0.93152 0.0
H796 H 0.55188 0.43606 0.73689 0.0
H797 H 0.54799 0.39293 0.79922 0.0
H798 H 0.46485 0.39937 0.78827 0.0
H799 H 0.46889 0.44172 0.72253 0.0
C800 C 0.47748 0.32819 0.88042 0.0
C801 C 0.49406 0.32166 0.95089 0.0
C802 C 0.48213 0.35012 0.82857 0.0
C803 C 0.50329 0.36662 0.8465 0.0
C804 C 0.52064 0.35918 0.91416 0.0
C805 C 0.51604 0.3371 0.96559 0.0
C806 C 0.53278 0.42813 0.74639 0.0
C807 C 0.51073 0.44278 0.72547 0.0
C808 C 0.5305 0.40333 0.78326 0.0
C809 C 0.50607 0.39228 0.80012 0.0
C810 C 0.48408 0.40669 0.7759 0.0
C811 C 0.48638 0.43135 0.73893 0.0
H812 H 0.20889 0.53985 0.04233 0.0
H813 H 0.22484 0.46946 0.89568 0.0
H814 H 0.16983 0.54633 0.95297 0.0
H815 H 0.18634 0.47599 0.80466 0.0
H816 H 0.0992 0.47456 0.74707 0.0
H817 H 0.14138 0.47201 0.81778 0.0
H818 H 0.1471 0.55518 0.81773 0.0
H819 H 0.10426 0.55763 0.74932 0.0
C820 C 0.20473 0.52637 0.98813 0.0
C821 C 0.22059 0.50449 0.97494 0.0
C822 C 0.18205 0.52991 0.93705 0.0
C823 C 0.17425 0.51153 0.87142 0.0
C824 C 0.19102 0.49041 0.85526 0.0
C825 C 0.21358 0.48689 0.90634 0.0
C826 C 0.10934 0.49239 0.76208 0.0
C827 C 0.09781 0.51633 0.74272 0.0
C828 C 0.13393 0.49093 0.80209 0.0
C829 C 0.14823 0.51337 0.82432 0.0
C830 C 0.1369 0.53736 0.80316 0.0
C831 C 0.11224 0.5388 0.76278 0.0
H832 H 0.97096 0.82604 0.43039 0.0
H833 H 0.03472 0.8404 0.25402 0.0
H834 H 0.97979 0.86647 0.51173 0.0
H835 H 0.04321 0.88129 0.33226 0.0
H836 H 0.06487 0.9478 0.52092 0.0
H837 H 0.05778 0.90573 0.45094 0.0
H838 H 0.9765 0.91138 0.514 0.0
H839 H 0.98418 0.95339 0.58802 0.0
C840 C 0.9875 0.83743 0.41074 0.0
C841 C 1.00275 0.82912 0.3374 0.0
C842 C 0.99224 0.86116 0.45626 0.0
C843 C 1.01222 0.87797 0.4295 0.0
C844 C 0.02791 0.8692 0.35739 0.0
C845 C 0.02324 0.84536 0.31236 0.0
C846 C 0.04538 0.94022 0.51933 0.0
C847 C 0.02507 0.95458 0.5588 0.0
C848 C 0.0412 0.91585 0.47832 0.0
C849 C 0.01644 0.90446 0.47485 0.0
C850 C 0.996 0.91887 0.51505 0.0
C851 C 1.00026 0.94337 0.55664 0.0
H852 H 0.69402 0.95393 0.35784 0.0
H853 H 0.71424 0.03445 0.34467 0.0
H854 H 0.65487 0.96473 0.43753 0.0
H855 H 0.67571 0.04554 0.43243 0.0
H856 H 0.59112 0.06225 0.50392 0.0
H857 H 0.63262 0.05193 0.43582 0.0
H858 H 0.62942 0.97598 0.55119 0.0
H859 H 0.58731 0.98635 0.61546 0.0
C860 C 0.69043 0.9741 0.37394 0.0
C861 C 0.70748 0.99326 0.34279 0.0
C862 C 0.66772 0.9804 0.42116 0.0
C863 C 0.66111 1.00624 0.44205 0.0
C864 C 0.67916 0.0254 0.41628 0.0
C865 C 0.70182 0.01904 0.36714 0.0
C866 C 0.59928 0.04325 0.51415 0.0
C867 C 0.5854 0.02493 0.56332 0.0
C868 C 0.6235 0.03732 0.47574 0.0
C869 C 0.63527 0.01294 0.48669 0.0
C870 C 0.62143 0.99483 0.53835 0.0
C871 C 0.597 1.00071 0.5758 0.0
H872 H 0.57402 0.72835 0.45998 0.0
H873 H 0.5077 0.71015 0.298 0.0
H874 H 0.56563 0.69052 0.55122 0.0
H875 H 0.49952 0.67182 0.3867 0.0
H876 H 0.48344 0.60756 0.58154 0.0
H877 H 0.48731 0.65064 0.51903 0.0
H878 H 0.57037 0.64557 0.5402 0.0
H879 H 0.56629 0.60316 0.60595 0.0
C880 C 0.55708 0.71672 0.44587 0.0
C881 C 0.54109 0.72276 0.37331 0.0
C882 C 0.55251 0.69462 0.49707 0.0
C883 C 0.532 0.67754 0.47646 0.0
C884 C 0.51529 0.6844 0.40621 0.0
C885 C 0.51985 0.70658 0.35533 0.0
C886 C 0.5025 0.61577 0.57424 0.0
C887 C 0.52454 0.60147 0.59793 0.0
C888 C 0.50478 0.64054 0.53727 0.0
C889 C 0.5292 0.65194 0.52313 0.0
C890 C 0.55115 0.63793 0.55029 0.0
C891 C 0.54883 0.61326 0.58729 0.0
H892 H 0.81323 0.57468 0.42158 0.0
H893 H 0.82803 0.50311 0.28067 0.0
H894 H 0.85172 0.5682 0.51284 0.0
H895 H 0.86704 0.49666 0.37004 0.0
H896 H 0.93288 0.48552 0.57179 0.0
H897 H 0.88991 0.48826 0.50457 0.0
H898 H 0.89666 0.57133 0.5006 0.0
H899 H 0.93896 0.56849 0.57032 0.0
C900 C 0.8242 0.55701 0.41235 0.0
C901 C 0.81685 0.53904 0.34539 0.0
C902 C 0.84678 0.5535 0.46351 0.0
C903 C 0.86322 0.53202 0.44896 0.0
C904 C 0.85509 0.51335 0.38485 0.0
C905 C 0.83241 0.51688 0.33376 0.0
C906 C 0.92512 0.5044 0.55765 0.0
C907 C 0.9399 0.52674 0.57612 0.0
C908 C 0.90036 0.506 0.51797 0.0
C909 C 0.88929 0.53004 0.49592 0.0
C910 C 0.90391 0.55237 0.51687 0.0
C911 C 0.92858 0.55074 0.55625 0.0
loop_
_geom_bond_atom_site_label_1
_geom_bond_atom_site_label_2
_geom_bond_distance
_geom_bond_site_symmetry_2
_ccdc_geom_bond_type
H0 C5 0.930 . S
H1 C8 0.930 . S
H2 C10 0.930 . S
H3 C4 1.016 . S
C4 H3 1.016 . S
C4 N11 1.286 . S
C5 H0 0.930 . S
C5 C6 1.397 . S
C5 C7 1.361 . S
C6 C5 1.397 . S
C6 C10 1.390 . S
C7 C5 1.361 . S
C7 C8 1.393 . S
C7 N11 1.413 . S
C8 H1 0.930 . S
C8 C7 1.393 . S
C8 C9 1.399 . S
C9 C8 1.399 . S
C9 C10 1.381 . S
C10 H2 0.930 . S
C10 C6 1.390 . S
C10 C9 1.381 . S
N11 C4 1.286 . S
N11 C7 1.413 . S
H12 C17 0.930 . S
H13 C20 0.930 . S
H14 C22 0.930 . S
H15 C16 1.016 . S
C16 H15 1.016 . S
C16 N23 1.286 . S
C17 H12 0.930 . S
C17 C18 1.397 . S
C17 C19 1.361 . S
C18 C17 1.397 . S
C18 C22 1.390 . S
C19 C17 1.361 . S
C19 C20 1.393 . S
C19 N23 1.413 . S
C20 H13 0.930 . S
C20 C19 1.393 . S
C20 C21 1.399 . S
C21 C20 1.399 . S
C21 C22 1.381 . S
C22 H14 0.930 . S
C22 C18 1.390 . S
C22 C21 1.381 . S
N23 C16 1.286 . S
N23 C19 1.413 . S
H24 C29 0.930 . S
H25 C32 0.930 . S
H26 C34 0.930 . S
H27 C28 1.016 . S
C28 H27 1.016 . S
C28 N35 1.286 . S
C29 H24 0.930 . S
C29 C30 1.397 . S
C29 C31 1.361 . S
C30 C29 1.397 . S
C30 C34 1.390 . S
C31 C29 1.361 . S
C31 C32 1.393 . S
C31 N35 1.413 . S
C32 H25 0.930 . S
C32 C31 1.393 . S
C32 C33 1.399 . S
C33 C32 1.399 . S
C33 C34 1.381 . S
C34 H26 0.930 . S
C34 C30 1.390 . S
C34 C33 1.381 . S
N35 C28 1.286 . S
N35 C31 1.413 . S
H36 C41 0.930 . S
H37 C44 0.930 . S
H38 C46 0.930 . S
H39 C40 1.016 . S
C40 H39 1.016 . S
C40 N47 1.286 . S
C41 H36 0.930 . S
C41 C42 1.397 . S
C41 C43 1.361 . S
C42 C41 1.397 . S
C42 C46 1.390 . S
C43 C41 1.361 . S
C43 C44 1.393 . S
C43 N47 1.413 . S
C44 H37 0.930 . S
C44 C43 1.393 . S
C44 C45 1.399 . S
C45 C44 1.399 . S
C45 C46 1.381 . S
C46 H38 0.930 . S
C46 C42 1.390 . S
C46 C45 1.381 . S
N47 C40 1.286 . S
N47 C43 1.413 . S
H48 C53 0.930 . S
H49 C56 0.930 . S
H50 C58 0.930 . S
H51 C52 1.016 . S
C52 H51 1.016 . S
C52 N59 1.286 . S
C53 H48 0.930 . S
C53 C54 1.397 . S
C53 C55 1.361 1_556 S
C54 C53 1.397 . S
C54 C58 1.390 . S
C55 C53 1.361 1_554 S
C55 C56 1.393 . S
C55 N59 1.413 . S
C56 H49 0.930 . S
C56 C55 1.393 . S
C56 C57 1.399 . S
C57 C56 1.399 . S
C57 C58 1.381 1_554 S
C58 H50 0.930 . S
C58 C54 1.390 . S
C58 C57 1.381 1_556 S
N59 C52 1.286 . S
N59 C55 1.413 . S
H60 C65 0.930 . S
H61 C68 0.930 . S
H62 C70 0.930 . S
H63 C64 1.016 . S
C64 H63 1.016 . S
C64 N71 1.286 . S
C65 H60 0.930 . S
C65 C66 1.397 . S
C65 C67 1.361 1_556 S
C66 C65 1.397 . S
C66 C70 1.390 . S
C67 C65 1.361 1_554 S
C67 C68 1.393 . S
C67 N71 1.413 . S
C68 H61 0.930 . S
C68 C67 1.393 . S
C68 C69 1.399 . S
C69 C68 1.399 . S
C69 C70 1.381 1_554 S
C70 H62 0.930 . S
C70 C66 1.390 . S
C70 C69 1.381 1_556 S
N71 C64 1.286 . S
N71 C67 1.413 . S
H72 C77 0.930 . S
H73 C80 0.930 . S
H74 C82 0.930 . S
H75 C76 1.016 . S
C76 H75 1.016 . S
C76 N83 1.286 . S
C77 H72 0.930 . S
C77 C78 1.397 . S
C77 C79 1.368 . S
C78 C77 1.397 . S
C78 C82 1.390 . S
C79 C77 1.368 . S
C79 C80 1.388 1_556 S
C79 N83 1.412 1_556 S
C80 H73 0.930 . S
C80 C79 1.388 1_554 S
C80 C81 1.399 . S
C81 C80 1.399 . S
C81 C82 1.381 1_554 S
C82 H74 0.930 . S
C82 C78 1.390 . S
C82 C81 1.381 1_556 S
N83 C76 1.286 . S
N83 C79 1.412 1_554 S
H84 C89 0.930 . S
H85 C92 0.930 . S
H86 C94 0.930 . S
H87 C88 1.016 . S
C88 H87 1.016 . S
C88 N95 1.286 . S
C89 H84 0.930 . S
C89 C90 1.397 . S
C89 C91 1.361 1_556 S
C90 C89 1.397 . S
C90 C94 1.390 . S
C91 C89 1.361 1_554 S
C91 C92 1.393 . S
C91 N95 1.413 . S
C92 H85 0.930 . S
C92 C91 1.393 . S
C92 C93 1.399 . S
C93 C92 1.399 . S
C93 C94 1.381 1_554 S
C94 H86 0.930 . S
C94 C90 1.390 . S
C94 C93 1.381 1_556 S
N95 C88 1.286 . S
N95 C91 1.413 . S
Eu96 N127 2.657 1_565 S
Eu96 N134 2.609 1_565 S
Eu96 O140 2.558 . S
Eu96 O141 2.612 1_455 S
Eu96 O143 2.339 1_455 S
Eu96 O144 2.563 . S
Eu96 O145 2.419 . S
Eu96 O147 2.380 1_565 S
Eu96 O148 2.432 . S
Eu96 C160 2.848 . S
C97 C100 1.429 1_545 S
C97 C101 1.409 1_545 S
C97 N104 1.377 . S
C98 C100 1.420 . S
C98 C102 1.423 . S
C98 C110 1.392 . S
C99 C101 1.428 . S
C99 C102 1.351 . S
C99 H122 0.931 . S
C100 C97 1.429 1_565 S
C100 C98 1.420 . S
C100 N108 1.368 . S
C101 C97 1.409 1_565 S
C101 C99 1.428 . S
C101 C106 1.389 1_565 S
C102 C98 1.423 . S
C102 C99 1.351 . S
C102 H114 0.930 . S
C103 C105 1.400 . S
C103 C106 1.386 . S
C103 H115 0.930 . S
N104 C97 1.377 . S
N104 C105 1.321 . S
N104 Eu107 2.609 . S
C105 C103 1.400 . S
C105 N104 1.321 . S
C105 H112 0.930 . S
C106 C101 1.389 1_545 S
C106 C103 1.386 . S
C106 H125 0.930 . S
Eu107 N104 2.609 . S
Eu107 N108 2.641 1_545 S
Eu107 O141 2.380 1_545 S
Eu107 O142 2.432 . S
Eu107 O146 2.558 . S
Eu107 O147 2.612 1_655 S
Eu107 O149 2.339 1_655 S
Eu107 O150 2.563 1_655 S
Eu107 O151 2.419 . S
Eu107 C171 2.848 . S
N108 C100 1.368 . S
N108 Eu107 2.641 1_565 S
N108 C109 1.345 1_655 S
C109 N108 1.345 1_455 S
C109 C111 1.413 . S
C109 H116 0.929 . S
C110 C98 1.392 . S
C110 C111 1.367 1_655 S
C110 H118 0.930 . S
C111 C109 1.413 . S
C111 C110 1.367 1_455 S
C111 H113 0.930 . S
H112 C105 0.930 . S
H113 C111 0.930 . S
H114 C102 0.930 . S
H115 C103 0.930 . S
H116 C109 0.929 . S
H117 C131 0.930 1_654 S
H118 C110 0.930 . S
H119 C137 0.930 . S
H120 C128 0.929 1_655 S
H121 C135 0.930 . S
H122 C99 0.931 . S
H123 C129 0.930 . S
H124 C162 0.930 . S
H125 C106 0.930 . S
H126 C161 0.931 . S
N127 Eu96 2.657 1_545 S
N127 C128 1.334 . S
N127 C132 1.362 . S
C128 H120 0.929 1_455 S
C128 N127 1.334 . S
C128 C131 1.413 . S
C129 H123 0.930 . S
C129 C130 1.392 . S
C129 C131 1.367 1_554 S
C130 C129 1.392 . S
C130 C132 1.420 1_554 S
C130 C162 1.423 . S
C131 H117 0.930 1_456 S
C131 C128 1.413 . S
C131 C129 1.367 1_556 S
C132 N127 1.362 . S
C132 C130 1.420 1_556 S
C132 C136 1.429 . S
H133 C138 0.930 . S
N134 Eu96 2.609 1_545 S
N134 C136 1.377 . S
N134 C137 1.321 1_545 S
C135 H121 0.930 . S
C135 C137 1.400 . S
C135 C138 1.386 1_565 S
C136 C132 1.429 . S
C136 N134 1.377 . S
C136 C139 1.411 . S
C137 H119 0.930 . S
C137 N134 1.321 1_565 S
C137 C135 1.400 . S
C138 H133 0.930 . S
C138 C135 1.386 1_545 S
C138 C139 1.395 . S
C139 C136 1.411 . S
C139 C138 1.395 . S
C139 C161 1.420 1_556 S
O140 Eu96 2.558 . S
O140 C160 1.257 . S
O141 Eu96 2.612 1_655 S
O141 Eu107 2.380 1_565 S
O141 C152 1.276 . S
O142 Eu107 2.432 . S
O142 C159 1.264 . S
O143 Eu96 2.339 1_655 S
O143 C159 1.254 1_565 S
O144 Eu96 2.563 . S
O144 C152 1.235 1_455 S
O145 Eu96 2.419 . S
O145 C160 1.249 . S
O146 Eu107 2.558 . S
O146 C171 1.257 . S
O147 Eu96 2.380 1_545 S
O147 Eu107 2.612 1_455 S
O147 C163 1.276 . S
O148 Eu96 2.432 . S
O148 C170 1.264 1_565 S
O149 Eu107 2.339 1_455 S
O149 C170 1.254 . S
O150 Eu107 2.563 1_455 S
O150 C163 1.235 . S
O151 Eu107 2.419 . S
O151 C171 1.249 . S
C152 O141 1.276 . S
C152 O144 1.235 1_655 S
C153 C155 1.393 . S
C153 C157 1.395 . S
C153 C160 1.492 . S
C154 C155 1.392 . S
C154 C156 1.386 . S
C155 C153 1.393 . S
C155 C154 1.392 . S
C155 H172 0.960 . S
C156 C154 1.386 . S
C156 C158 1.395 . S
C156 H173 0.930 1_556 S
C157 C153 1.395 . S
C157 C158 1.379 . S
C157 H174 0.930 . S
C158 C156 1.395 . S
C158 C157 1.379 . S
C158 H175 0.930 . S
C159 O142 1.264 . S
C159 O143 1.254 1_545 S
C160 Eu96 2.848 . S
C160 O140 1.257 . S
C160 O145 1.249 . S
C160 C153 1.492 . S
C161 H126 0.931 . S
C161 C139 1.420 1_554 S
C161 C162 1.351 . S
C162 H124 0.930 . S
C162 C130 1.423 . S
C162 C161 1.351 . S
C163 O147 1.276 . S
C163 O150 1.235 . S
C164 C165 1.393 . S
C164 C168 1.395 . S
C164 C171 1.492 . S
C165 C164 1.393 . S
C165 C166 1.392 . S
C165 H176 0.930 1_655 S
C166 C165 1.392 . S
C166 C167 1.386 . S
C167 C166 1.386 . S
C167 C169 1.395 . S
C167 H177 0.930 . S
C168 C164 1.395 . S
C168 C169 1.379 . S
C168 H178 0.930 . S
C169 C167 1.395 . S
C169 C168 1.379 . S
C169 H179 0.930 . S
C170 O148 1.264 1_545 S
C170 O149 1.254 . S
C171 Eu107 2.848 . S
C171 O146 1.257 . S
C171 O151 1.249 . S
C171 C164 1.492 . S
H172 C155 0.960 . S
H173 C156 0.930 1_554 S
H174 C157 0.930 . S
H175 C158 0.930 . S
H176 C165 0.930 1_455 S
H177 C167 0.930 . S
H178 C168 0.930 . S
H179 C169 0.930 . S
Eu180 N211 2.657 . S
Eu180 N218 2.609 . S
Eu180 O224 2.558 . S
Eu180 O225 2.612 1_545 S
Eu180 O227 2.339 1_545 S
Eu180 O228 2.563 . S
Eu180 O229 2.419 . S
Eu180 O231 2.380 . S
Eu180 O232 2.432 . S
Eu180 C244 2.848 . S
C181 C184 1.429 . S
C181 C185 1.411 . S
C181 N188 1.377 . S
C182 C184 1.420 . S
C182 C186 1.423 . S
C182 C194 1.392 . S
C183 C185 1.420 . S
C183 C186 1.351 . S
C183 H206 0.931 . S
C184 C181 1.429 . S
C184 C182 1.420 . S
C184 N192 1.362 . S
C185 C181 1.411 . S
C185 C183 1.420 . S
C185 C190 1.395 . S
C186 C182 1.423 . S
C186 C183 1.351 . S
C186 H198 0.930 . S
C187 C189 1.400 . S
C187 C190 1.386 . S
C187 H199 0.930 . S
N188 C181 1.377 . S
N188 C189 1.321 . S
N188 Eu191 2.609 . S
C189 C187 1.400 . S
C189 N188 1.321 . S
C189 H196 0.930 . S
C190 C185 1.395 . S
C190 C187 1.386 . S
C190 H209 0.930 . S
Eu191 N188 2.609 . S
Eu191 N192 2.657 . S
Eu191 O225 2.380 . S
Eu191 O226 2.432 . S
Eu191 O230 2.558 . S
Eu191 O231 2.612 1_565 S
Eu191 O233 2.339 1_565 S
Eu191 O234 2.563 1_565 S
Eu191 O235 2.419 . S
Eu191 C255 2.848 . S
N192 C184 1.362 . S
N192 Eu191 2.657 . S
N192 C193 1.334 1_565 S
C193 N192 1.334 1_545 S
C193 C195 1.413 . S
C193 H200 0.929 . S
C194 C182 1.392 . S
C194 C195 1.367 1_565 S
C194 H202 0.930 . S
C195 C193 1.413 . S
C195 C194 1.367 1_545 S
C195 H197 0.930 . S
H196 C189 0.930 . S
H197 C195 0.930 . S
H198 C186 0.930 . S
H199 C187 0.930 . S
H200 C193 0.929 . S
H201 C215 0.930 1_564 S
H202 C194 0.930 . S
H203 C221 0.930 . S
H204 C212 0.929 1_565 S
H205 C219 0.930 . S
H206 C183 0.931 . S
H207 C213 0.930 . S
H208 C246 0.930 . S
H209 C190 0.930 . S
H210 C245 0.931 . S
N211 Eu180 2.657 . S
N211 C212 1.334 . S
N211 C216 1.362 . S
C212 H204 0.929 1_545 S
C212 N211 1.334 . S
C212 C215 1.413 . S
C213 H207 0.930 . S
C213 C214 1.392 . S
C213 C215 1.367 1_554 S
C214 C213 1.392 . S
C214 C216 1.420 1_554 S
C214 C246 1.423 . S
C215 H201 0.930 1_546 S
C215 C212 1.413 . S
C215 C213 1.367 1_556 S
C216 N211 1.362 . S
C216 C214 1.420 1_556 S
C216 C220 1.429 . S
H217 C222 0.930 . S
N218 Eu180 2.609 . S
N218 C220 1.377 . S
N218 C221 1.321 . S
C219 H205 0.930 . S
C219 C221 1.400 . S
C219 C222 1.386 . S
C220 C216 1.429 . S
C220 N218 1.377 . S
C220 C223 1.411 . S
C221 H203 0.930 . S
C221 N218 1.321 . S
C221 C219 1.400 . S
C222 H217 0.930 . S
C222 C219 1.386 . S
C222 C223 1.395 . S
C223 C220 1.411 . S
C223 C222 1.395 . S
C223 C245 1.420 1_556 S
O224 Eu180 2.558 . S
O224 C244 1.257 . S
O225 Eu180 2.612 1_565 S
O225 Eu191 2.380 . S
O225 C236 1.276 . S
O226 Eu191 2.432 . S
O226 C243 1.264 . S
O227 Eu180 2.339 1_565 S
O227 C243 1.254 . S
O228 Eu180 2.563 . S
O228 C236 1.235 1_545 S
O229 Eu180 2.419 . S
O229 C244 1.249 . S
O230 Eu191 2.558 . S
O230 C255 1.257 . S
O231 Eu180 2.380 . S
O231 Eu191 2.612 1_545 S
O231 C247 1.276 . S
O232 Eu180 2.432 . S
O232 C254 1.264 . S
O233 Eu191 2.339 1_545 S
O233 C254 1.254 . S
O234 Eu191 2.563 1_545 S
O234 C247 1.235 . S
O235 Eu191 2.419 . S
O235 C255 1.249 . S
C236 O225 1.276 . S
C236 O228 1.235 1_565 S
C237 C239 1.393 . S
C237 C241 1.395 . S
C237 C244 1.492 . S
C238 C239 1.392 . S
C238 C240 1.387 . S
C239 C237 1.393 . S
C239 C238 1.392 . S
C239 H256 0.930 . S
C240 C238 1.387 . S
C240 C242 1.396 . S
C240 H257 0.927 1_556 S
C241 C237 1.395 . S
C241 C242 1.379 . S
C241 H258 0.930 . S
C242 C240 1.396 . S
C242 C241 1.379 . S
C242 H259 0.930 . S
C243 O226 1.264 . S
C243 O227 1.254 . S
C244 Eu180 2.848 . S
C244 O224 1.257 . S
C244 O229 1.249 . S
C244 C237 1.492 . S
C245 H210 0.931 . S
C245 C223 1.420 1_554 S
C245 C246 1.351 . S
C246 H208 0.930 . S
C246 C214 1.423 . S
C246 C245 1.351 . S
C247 O231 1.276 . S
C247 O234 1.235 . S
C248 C249 1.393 . S
C248 C252 1.395 . S
C248 C255 1.492 . S
C249 C248 1.393 . S
C249 C250 1.392 . S
C249 H260 0.930 1_565 S
C250 C249 1.392 . S
C250 C251 1.386 . S
C251 C250 1.386 . S
C251 C253 1.395 . S
C251 H261 0.930 . S
C252 C248 1.395 . S
C252 C253 1.379 . S
C252 H262 0.930 . S
C253 C251 1.395 . S
C253 C252 1.379 . S
C253 H263 0.930 . S
C254 O232 1.264 . S
C254 O233 1.254 . S
C255 Eu191 2.848 . S
C255 O230 1.257 . S
C255 O235 1.249 . S
C255 C248 1.492 . S
H256 C239 0.930 . S
H257 C240 0.927 1_554 S
H258 C241 0.930 . S
H259 C242 0.930 . S
H260 C249 0.930 1_545 S
H261 C251 0.930 . S
H262 C252 0.930 . S
H263 C253 0.930 . S
Eu264 N295 2.657 . S
Eu264 N302 2.609 . S
Eu264 O308 2.558 . S
Eu264 O309 2.612 . S
Eu264 O311 2.339 . S
Eu264 O312 2.563 . S
Eu264 O313 2.419 . S
Eu264 O315 2.380 . S
Eu264 O316 2.432 . S
Eu264 C328 2.848 . S
C265 C268 1.429 . S
C265 C269 1.411 . S
C265 N272 1.377 . S
C266 C268 1.420 . S
C266 C270 1.423 . S
C266 C278 1.392 . S
C267 C269 1.420 . S
C267 C270 1.351 . S
C267 H290 0.931 . S
C268 C265 1.429 . S
C268 C266 1.420 . S
C268 N276 1.362 . S
C269 C265 1.411 . S
C269 C267 1.420 . S
C269 C274 1.395 . S
C270 C266 1.423 . S
C270 C267 1.351 . S
C270 H282 0.930 . S
C271 C273 1.400 . S
C271 C274 1.386 . S
C271 H283 0.930 . S
N272 C265 1.377 . S
N272 C273 1.321 . S
N272 Eu275 2.609 . S
C273 C271 1.400 . S
C273 N272 1.321 . S
C273 H280 0.930 . S
C274 C269 1.395 . S
C274 C271 1.386 . S
C274 H293 0.930 . S
Eu275 N272 2.609 . S
Eu275 N276 2.657 . S
Eu275 O309 2.380 . S
Eu275 O310 2.432 . S
Eu275 O314 2.558 . S
Eu275 O315 2.612 . S
Eu275 O317 2.339 . S
Eu275 O318 2.563 . S
Eu275 O319 2.419 . S
Eu275 C339 2.848 . S
N276 C268 1.362 . S
N276 Eu275 2.657 . S
N276 C277 1.334 . S
C277 N276 1.334 . S
C277 C279 1.413 . S
C277 H284 0.929 . S
C278 C266 1.392 . S
C278 C279 1.367 . S
C278 H286 0.930 . S
C279 C277 1.413 . S
C279 C278 1.367 . S
C279 H281 0.930 . S
H280 C273 0.930 . S
H281 C279 0.930 . S
H282 C270 0.930 . S
H283 C271 0.930 . S
H284 C277 0.929 . S
H285 C299 0.930 . S
H286 C278 0.930 . S
H287 C305 0.930 . S
H288 C296 0.929 . S
H289 C303 0.930 . S
H290 C267 0.931 . S
H291 C297 0.930 . S
H292 C330 0.930 . S
H293 C274 0.930 . S
H294 C329 0.931 . S
N295 Eu264 2.657 . S
N295 C296 1.334 . S
N295 C300 1.362 . S
C296 H288 0.929 . S
C296 N295 1.334 . S
C296 C299 1.413 . S
C297 H291 0.930 . S
C297 C298 1.392 . S
C297 C299 1.367 . S
C298 C297 1.392 . S
C298 C300 1.420 . S
C298 C330 1.423 . S
C299 H285 0.930 . S
C299 C296 1.413 . S
C299 C297 1.367 . S
C300 N295 1.362 . S
C300 C298 1.420 . S
C300 C304 1.429 . S
H301 C306 0.930 . S
N302 Eu264 2.609 . S
N302 C304 1.377 . S
N302 C305 1.321 . S
C303 H289 0.930 . S
C303 C305 1.400 . S
C303 C306 1.386 . S
C304 C300 1.429 . S
C304 N302 1.377 . S
C304 C307 1.411 . S
C305 H287 0.930 . S
C305 N302 1.321 . S
C305 C303 1.400 . S
C306 H301 0.930 . S
C306 C303 1.386 . S
C306 C307 1.395 . S
C307 C304 1.411 . S
C307 C306 1.395 . S
C307 C329 1.420 . S
O308 Eu264 2.558 . S
O308 C328 1.257 . S
O309 Eu264 2.612 . S
O309 Eu275 2.380 . S
O309 C320 1.276 . S
O310 Eu275 2.432 . S
O310 C327 1.264 . S
O311 Eu264 2.339 . S
O311 C327 1.254 . S
O312 Eu264 2.563 . S
O312 C320 1.235 . S
O313 Eu264 2.419 . S
O313 C328 1.249 . S
O314 Eu275 2.558 . S
O314 C339 1.257 . S
O315 Eu264 2.380 . S
O315 Eu275 2.612 . S
O315 C331 1.276 . S
O316 Eu264 2.432 . S
O316 C338 1.264 . S
O317 Eu275 2.339 . S
O317 C338 1.254 . S
O318 Eu275 2.563 . S
O318 C331 1.235 . S
O319 Eu275 2.419 . S
O319 C339 1.249 . S
C320 O309 1.276 . S
C320 O312 1.235 . S
C321 C323 1.393 . S
C321 C325 1.395 . S
C321 C328 1.492 . S
C322 C323 1.392 . S
C322 C324 1.386 . S
C323 C321 1.393 . S
C323 C322 1.392 . S
C323 H340 0.930 . S
C324 C322 1.386 . S
C324 C326 1.395 . S
C324 H341 0.930 . S
C325 C321 1.395 . S
C325 C326 1.379 . S
C325 H342 0.930 . S
C326 C324 1.395 . S
C326 C325 1.379 . S
C326 H343 0.930 . S
C327 O310 1.264 . S
C327 O311 1.254 . S
C328 Eu264 2.848 . S
C328 O308 1.257 . S
C328 O313 1.249 . S
C328 C321 1.492 . S
C329 H294 0.931 . S
C329 C307 1.420 . S
C329 C330 1.351 . S
C330 H292 0.930 . S
C330 C298 1.423 . S
C330 C329 1.351 . S
C331 O315 1.276 . S
C331 O318 1.235 . S
C332 C333 1.393 . S
C332 C336 1.395 1_556 S
C332 C339 1.492 . S
C333 C332 1.393 . S
C333 C334 1.392 1_556 S
C333 H344 0.930 . S
C334 C333 1.392 1_554 S
C334 C335 1.386 . S
C335 C334 1.386 . S
C335 C337 1.395 . S
C335 H345 0.930 . S
C336 C332 1.395 1_554 S
C336 C337 1.379 . S
C336 H346 0.930 . S
C337 C335 1.395 . S
C337 C336 1.379 . S
C337 H347 0.930 . S
C338 O316 1.264 . S
C338 O317 1.254 . S
C339 Eu275 2.848 . S
C339 O314 1.257 . S
C339 O319 1.249 . S
C339 C332 1.492 . S
H340 C323 0.930 . S
H341 C324 0.930 . S
H342 C325 0.930 . S
H343 C326 0.930 . S
H344 C333 0.930 . S
H345 C335 0.930 . S
H346 C336 0.930 . S
H347 C337 0.930 . S
Eu348 N379 2.657 . S
Eu348 N386 2.609 . S
Eu348 O392 2.558 . S
Eu348 O393 2.612 . S
Eu348 O395 2.339 . S
Eu348 O396 2.563 . S
Eu348 O397 2.419 . S
Eu348 O399 2.380 . S
Eu348 O400 2.432 1_455 S
Eu348 C412 2.848 . S
C349 C352 1.429 . S
C349 C353 1.411 . S
C349 N356 1.377 . S
C350 C352 1.420 . S
C350 C354 1.423 . S
C350 C362 1.392 . S
C351 C353 1.420 . S
C351 C354 1.351 . S
C351 H374 0.931 . S
C352 C349 1.429 . S
C352 C350 1.420 . S
C352 N360 1.362 . S
C353 C349 1.411 . S
C353 C351 1.420 . S
C353 C358 1.395 1_655 S
C354 C350 1.423 . S
C354 C351 1.351 . S
C354 H366 0.930 . S
C355 C357 1.400 . S
C355 C358 1.386 . S
C355 H367 0.930 . S
N356 C349 1.377 . S
N356 C357 1.321 1_655 S
N356 Eu359 2.609 . S
C357 C355 1.400 . S
C357 N356 1.321 1_455 S
C357 H364 0.930 . S
C358 C353 1.395 1_455 S
C358 C355 1.386 . S
C358 H377 0.930 . S
Eu359 N356 2.609 . S
Eu359 N360 2.657 . S
Eu359 O393 2.380 1_655 S
Eu359 O394 2.432 1_655 S
Eu359 O398 2.558 . S
Eu359 O399 2.612 1_655 S
Eu359 O401 2.339 . S
Eu359 O402 2.563 . S
Eu359 O403 2.419 . S
Eu359 C423 2.848 . S
N360 C352 1.362 . S
N360 Eu359 2.657 . S
N360 C361 1.334 . S
C361 N360 1.334 . S
C361 C363 1.413 . S
C361 H368 0.929 . S
C362 C350 1.392 . S
C362 C363 1.367 . S
C362 H370 0.930 . S
C363 C361 1.413 . S
C363 C362 1.367 . S
C363 H365 0.930 . S
H364 C357 0.930 . S
H365 C363 0.930 . S
H366 C354 0.930 . S
H367 C355 0.930 . S
H368 C361 0.929 . S
H369 C383 0.930 . S
H370 C362 0.930 . S
H371 C389 0.921 1_655 S
H372 C380 0.929 . S
H373 C387 0.930 . S
H374 C351 0.931 . S
H375 C381 0.930 . S
H376 C414 0.930 . S
H377 C358 0.930 . S
H378 C413 0.931 . S
N379 Eu348 2.657 . S
N379 C380 1.334 . S
N379 C384 1.362 . S
C380 H372 0.929 . S
C380 N379 1.334 . S
C380 C383 1.413 . S
C381 H375 0.930 . S
C381 C382 1.392 . S
C381 C383 1.367 . S
C382 C381 1.392 . S
C382 C384 1.420 . S
C382 C414 1.423 . S
C383 H369 0.930 . S
C383 C380 1.413 . S
C383 C381 1.367 . S
C384 N379 1.362 . S
C384 C382 1.420 . S
C384 C388 1.429 . S
H385 C390 0.930 . S
N386 Eu348 2.609 . S
N386 C388 1.377 . S
N386 C389 1.332 . S
C387 H373 0.930 . S
C387 C389 1.397 1_655 S
C387 C390 1.386 1_655 S
C388 C384 1.429 . S
C388 N386 1.377 . S
C388 C391 1.411 . S
C389 H371 0.921 1_455 S
C389 N386 1.332 . S
C389 C387 1.397 1_455 S
C390 H385 0.930 . S
C390 C387 1.386 1_455 S
C390 C391 1.395 . S
C391 C388 1.411 . S
C391 C390 1.395 . S
C391 C413 1.420 . S
O392 Eu348 2.558 . S
O392 C412 1.257 . S
O393 Eu348 2.612 . S
O393 Eu359 2.380 1_455 S
O393 C404 1.276 . S
O394 Eu359 2.432 1_455 S
O394 C411 1.264 . S
O395 Eu348 2.339 . S
O395 C411 1.254 . S
O396 Eu348 2.563 . S
O396 C404 1.235 . S
O397 Eu348 2.419 . S
O397 C412 1.249 . S
O398 Eu359 2.558 . S
O398 C423 1.257 . S
O399 Eu348 2.380 . S
O399 Eu359 2.612 1_455 S
O399 C415 1.276 1_455 S
O400 Eu348 2.432 1_655 S
O400 C422 1.264 . S
O401 Eu359 2.339 . S
O401 C422 1.254 . S
O402 Eu359 2.563 . S
O402 C415 1.235 . S
O403 Eu359 2.419 . S
O403 C423 1.249 . S
C404 O393 1.276 . S
C404 O396 1.235 . S
C405 C407 1.393 . S
C405 C409 1.395 . S
C405 C412 1.492 . S
C406 C407 1.392 . S
C406 C408 1.386 . S
C407 C405 1.393 . S
C407 C406 1.392 . S
C407 H424 0.930 . S
C408 C406 1.386 . S
C408 C410 1.395 . S
C408 H425 0.930 . S
C409 C405 1.395 . S
C409 C410 1.379 . S
C409 H426 0.930 . S
C410 C408 1.395 . S
C410 C409 1.379 . S
C410 H427 0.930 . S
C411 O394 1.264 . S
C411 O395 1.254 . S
C412 Eu348 2.848 . S
C412 O392 1.257 . S
C412 O397 1.249 . S
C412 C405 1.492 . S
C413 H378 0.931 . S
C413 C391 1.420 . S
C413 C414 1.351 . S
C414 H376 0.930 . S
C414 C382 1.423 . S
C414 C413 1.351 . S
C415 O399 1.276 1_655 S
C415 O402 1.235 . S
C416 C417 1.393 . S
C416 C420 1.395 1_556 S
C416 C423 1.492 . S
C417 C416 1.393 . S
C417 C418 1.392 1_556 S
C417 H428 0.930 . S
C418 C417 1.392 1_554 S
C418 C419 1.386 . S
C419 C418 1.386 . S
C419 C421 1.395 . S
C419 H429 0.930 . S
C420 C416 1.395 1_554 S
C420 C421 1.379 . S
C420 H430 0.930 . S
C421 C419 1.395 . S
C421 C420 1.379 . S
C421 H431 0.930 . S
C422 O400 1.264 . S
C422 O401 1.254 . S
C423 Eu359 2.848 . S
C423 O398 1.257 . S
C423 O403 1.249 . S
C423 C416 1.492 . S
H424 C407 0.930 . S
H425 C408 0.930 . S
H426 C409 0.930 . S
H427 C410 0.930 . S
H428 C417 0.930 . S
H429 C419 0.930 . S
H430 C420 0.930 . S
H431 C421 0.930 . S
H432 C440 0.950 . S
H433 C445 0.950 . S
H434 C442 0.950 . S
H435 C444 0.950 . S
H436 C446 0.950 . S
H437 C448 0.950 . S
H438 C450 0.950 . S
H439 C451 0.950 . S
C440 H432 0.950 . S
C440 C441 1.386 . S
C440 C442 1.391 . S
C441 C440 1.386 . S
C441 C445 1.393 . S
C442 H434 0.950 . S
C442 C440 1.391 . S
C442 C443 1.400 . S
C443 C442 1.400 . S
C443 C444 1.398 . S
C443 C449 1.491 . S
C444 H435 0.950 . S
C444 C443 1.398 . S
C444 C445 1.391 . S
C445 H433 0.950 . S
C445 C441 1.393 . S
C445 C444 1.391 . S
C446 H436 0.950 . S
C446 C447 1.386 . S
C446 C448 1.391 . S
C447 C446 1.386 . S
C447 C451 1.393 . S
C448 H437 0.950 . S
C448 C446 1.391 . S
C448 C449 1.400 . S
C449 C443 1.491 . S
C449 C448 1.400 . S
C449 C450 1.398 . S
C450 H438 0.950 . S
C450 C449 1.398 . S
C450 C451 1.391 . S
C451 H439 0.950 . S
C451 C447 1.393 . S
C451 C450 1.391 . S
H452 C460 0.950 . S
H453 C465 0.950 . S
H454 C462 0.950 . S
H455 C464 0.950 . S
H456 C466 0.950 . S
H457 C468 0.950 . S
H458 C470 0.950 . S
H459 C471 0.950 . S
C460 H452 0.950 . S
C460 C461 1.386 . S
C460 C462 1.391 . S
C461 C460 1.386 . S
C461 C465 1.393 . S
C462 H454 0.950 . S
C462 C460 1.391 . S
C462 C463 1.400 . S
C463 C462 1.400 . S
C463 C464 1.398 . S
C463 C469 1.491 . S
C464 H455 0.950 . S
C464 C463 1.398 . S
C464 C465 1.391 . S
C465 H453 0.950 . S
C465 C461 1.393 . S
C465 C464 1.391 . S
C466 H456 0.950 . S
C466 C467 1.386 . S
C466 C468 1.391 . S
C467 C466 1.386 . S
C467 C471 1.393 . S
C468 H457 0.950 . S
C468 C466 1.391 . S
C468 C469 1.400 . S
C469 C463 1.491 . S
C469 C468 1.400 . S
C469 C470 1.398 . S
C470 H458 0.950 . S
C470 C469 1.398 . S
C470 C471 1.391 . S
C471 H459 0.950 . S
C471 C467 1.393 . S
C471 C470 1.391 . S
H472 C480 0.950 . S
H473 C485 0.950 . S
H474 C482 0.950 . S
H475 C484 0.950 . S
H476 C486 0.950 . S
H477 C488 0.950 . S
H478 C490 0.950 . S
H479 C491 0.950 . S
C480 H472 0.950 . S
C480 C481 1.386 . S
C480 C482 1.391 . S
C481 C480 1.386 . S
C481 C485 1.393 . S
C482 H474 0.950 . S
C482 C480 1.391 . S
C482 C483 1.400 . S
C483 C482 1.400 . S
C483 C484 1.398 . S
C483 C489 1.491 . S
C484 H475 0.950 . S
C484 C483 1.398 . S
C484 C485 1.391 . S
C485 H473 0.950 . S
C485 C481 1.393 . S
C485 C484 1.391 . S
C486 H476 0.950 . S
C486 C487 1.386 . S
C486 C488 1.391 . S
C487 C486 1.386 . S
C487 C491 1.393 . S
C488 H477 0.950 . S
C488 C486 1.391 . S
C488 C489 1.400 . S
C489 C483 1.491 . S
C489 C488 1.400 . S
C489 C490 1.398 . S
C490 H478 0.950 . S
C490 C489 1.398 . S
C490 C491 1.391 . S
C491 H479 0.950 . S
C491 C487 1.393 . S
C491 C490 1.391 . S
H492 C500 0.950 . S
H493 C505 0.950 . S
H494 C502 0.950 . S
H495 C504 0.950 . S
H496 C506 0.950 . S
H497 C508 0.950 . S
H498 C510 0.950 . S
H499 C511 0.950 . S
C500 H492 0.950 . S
C500 C501 1.386 . S
C500 C502 1.391 . S
C501 C500 1.386 . S
C501 C505 1.393 . S
C502 H494 0.950 . S
C502 C500 1.391 . S
C502 C503 1.400 . S
C503 C502 1.400 . S
C503 C504 1.398 . S
C503 C509 1.491 . S
C504 H495 0.950 . S
C504 C503 1.398 . S
C504 C505 1.391 . S
C505 H493 0.950 . S
C505 C501 1.393 . S
C505 C504 1.391 . S
C506 H496 0.950 . S
C506 C507 1.386 . S
C506 C508 1.391 . S
C507 C506 1.386 . S
C507 C511 1.393 . S
C508 H497 0.950 . S
C508 C506 1.391 . S
C508 C509 1.400 . S
C509 C503 1.491 . S
C509 C508 1.400 . S
C509 C510 1.398 . S
C510 H498 0.950 . S
C510 C509 1.398 . S
C510 C511 1.391 . S
C511 H499 0.950 . S
C511 C507 1.393 . S
C511 C510 1.391 . S
H512 C520 0.950 . S
H513 C525 0.950 . S
H514 C522 0.950 . S
H515 C524 0.950 1_556 S
H516 C526 0.950 . S
H517 C528 0.950 . S
H518 C530 0.935 1_544 S
H519 C531 0.950 . S
C520 H512 0.950 . S
C520 C521 1.386 . S
C520 C522 1.391 . S
C521 C520 1.386 . S
C521 C525 1.393 . S
C522 H514 0.950 . S
C522 C520 1.391 . S
C522 C523 1.400 . S
C523 C522 1.400 . S
C523 C524 1.398 . S
C523 C529 1.491 1_554 S
C524 H515 0.950 1_554 S
C524 C523 1.398 . S
C524 C525 1.391 . S
C525 H513 0.950 . S
C525 C521 1.393 . S
C525 C524 1.391 . S
C526 H516 0.950 . S
C526 C527 1.386 . S
C526 C528 1.391 . S
C527 C526 1.386 . S
C527 C531 1.393 1_565 S
C528 H517 0.950 . S
C528 C526 1.391 . S
C528 C529 1.400 . S
C529 C523 1.491 1_556 S
C529 C528 1.400 . S
C529 C530 1.419 . S
C530 H518 0.935 1_566 S
C530 C529 1.419 . S
C530 C531 1.385 1_565 S
C531 H519 0.950 . S
C531 C527 1.393 1_545 S
C531 C530 1.385 1_545 S
H532 C540 0.950 . S
H533 C545 0.950 . S
H534 C542 0.950 . S
H535 C544 0.950 . S
H536 C546 0.950 . S
H537 C548 0.950 . S
H538 C550 0.950 . S
H539 C551 0.950 . S
C540 H532 0.950 . S
C540 C541 1.386 . S
C540 C542 1.391 . S
C541 C540 1.386 . S
C541 C545 1.393 . S
C542 H534 0.950 . S
C542 C540 1.391 . S
C542 C543 1.400 . S
C543 C542 1.400 . S
C543 C544 1.398 . S
C543 C549 1.491 1_554 S
C544 H535 0.950 . S
C544 C543 1.398 . S
C544 C545 1.391 . S
C545 H533 0.950 . S
C545 C541 1.393 . S
C545 C544 1.391 . S
C546 H536 0.950 . S
C546 C547 1.386 . S
C546 C548 1.391 . S
C547 C546 1.386 . S
C547 C551 1.393 . S
C548 H537 0.950 . S
C548 C546 1.391 . S
C548 C549 1.400 . S
C549 C543 1.491 1_556 S
C549 C548 1.400 . S
C549 C550 1.398 . S
C550 H538 0.950 . S
C550 C549 1.398 . S
C550 C551 1.391 . S
C551 H539 0.950 . S
C551 C547 1.393 . S
C551 C550 1.391 . S
H552 C560 0.950 . S
H553 C565 0.950 . S
H554 C562 0.950 . S
H555 C564 0.950 1_556 S
H556 C566 0.950 . S
H557 C568 0.950 . S
H558 C570 0.950 1_554 S
H559 C571 0.950 . S
C560 H552 0.950 . S
C560 C561 1.386 . S
C560 C562 1.391 . S
C561 C560 1.386 . S
C561 C565 1.393 . S
C562 H554 0.950 . S
C562 C560 1.391 . S
C562 C563 1.400 . S
C563 C562 1.400 . S
C563 C564 1.398 . S
C563 C569 1.491 1_554 S
C564 H555 0.950 1_554 S
C564 C563 1.398 . S
C564 C565 1.391 . S
C565 H553 0.950 . S
C565 C561 1.393 . S
C565 C564 1.391 . S
C566 H556 0.950 . S
C566 C567 1.386 . S
C566 C568 1.391 . S
C567 C566 1.386 . S
C567 C571 1.393 . S
C568 H557 0.950 . S
C568 C566 1.391 . S
C568 C569 1.400 . S
C569 C563 1.491 1_556 S
C569 C568 1.400 . S
C569 C570 1.398 . S
C570 H558 0.950 1_556 S
C570 C569 1.398 . S
C570 C571 1.391 . S
C571 H559 0.950 . S
C571 C567 1.393 . S
C571 C570 1.391 . S
H572 C580 0.950 . S
H573 C585 0.950 . S
H574 C582 0.950 1_556 S
H575 C584 0.950 . S
H576 C586 0.950 . S
H577 C588 0.950 1_554 S
H578 C590 0.950 . S
H579 C591 0.950 . S
C580 H572 0.950 . S
C580 C581 1.386 . S
C580 C582 1.391 . S
C581 C580 1.386 . S
C581 C585 1.393 . S
C582 H574 0.950 1_554 S
C582 C580 1.391 . S
C582 C583 1.400 . S
C583 C582 1.400 . S
C583 C584 1.398 . S
C583 C589 1.491 1_554 S
C584 H575 0.950 . S
C584 C583 1.398 . S
C584 C585 1.391 . S
C585 H573 0.950 . S
C585 C581 1.393 . S
C585 C584 1.391 . S
C586 H576 0.950 . S
C586 C587 1.386 . S
C586 C588 1.391 . S
C587 C586 1.386 . S
C587 C591 1.393 . S
C588 H577 0.950 1_556 S
C588 C586 1.391 . S
C588 C589 1.400 . S
C589 C583 1.491 1_556 S
C589 C588 1.400 . S
C589 C590 1.398 . S
C590 H578 0.950 . S
C590 C589 1.398 . S
C590 C591 1.391 . S
C591 H579 0.950 . S
C591 C587 1.393 . S
C591 C590 1.391 . S
H592 C600 0.950 . S
H593 C605 0.950 . S
H594 C602 0.950 . S
H595 C604 0.950 . S
H596 C606 0.950 . S
H597 C608 0.950 . S
H598 C610 0.950 1_655 S
H599 C611 0.950 . S
C600 H592 0.950 . S
C600 C601 1.386 . S
C600 C602 1.391 . S
C601 C600 1.386 . S
C601 C605 1.393 . S
C602 H594 0.950 . S
C602 C600 1.391 . S
C602 C603 1.400 . S
C603 C602 1.400 . S
C603 C604 1.398 . S
C603 C609 1.491 . S
C604 H595 0.950 . S
C604 C603 1.398 . S
C604 C605 1.391 . S
C605 H593 0.950 . S
C605 C601 1.393 . S
C605 C604 1.391 . S
C606 H596 0.950 . S
C606 C607 1.386 . S
C606 C608 1.391 . S
C607 C606 1.386 . S
C607 C611 1.393 1_455 S
C608 H597 0.950 . S
C608 C606 1.391 . S
C608 C609 1.400 . S
C609 C603 1.491 . S
C609 C608 1.400 . S
C609 C610 1.398 . S
C610 H598 0.950 1_455 S
C610 C609 1.398 . S
C610 C611 1.391 1_455 S
C611 H599 0.950 . S
C611 C607 1.393 1_655 S
C611 C610 1.391 1_655 S
H612 C620 0.950 1_556 S
H613 C625 0.950 . S
H614 C622 0.950 . S
H615 C624 0.950 . S
H616 C626 0.950 . S
H617 C628 0.950 . S
H618 C630 0.950 . S
H619 C631 0.950 . S
C620 H612 0.950 1_554 S
C620 C621 1.386 . S
C620 C622 1.391 . S
C621 C620 1.386 . S
C621 C625 1.393 . S
C622 H614 0.950 . S
C622 C620 1.391 . S
C622 C623 1.400 . S
C623 C622 1.400 . S
C623 C624 1.398 . S
C623 C629 1.491 . S
C624 H615 0.950 . S
C624 C623 1.398 . S
C624 C625 1.391 . S
C625 H613 0.950 . S
C625 C621 1.393 . S
C625 C624 1.391 . S
C626 H616 0.950 . S
C626 C627 1.386 . S
C626 C628 1.391 . S
C627 C626 1.386 . S
C627 C631 1.393 1_545 S
C628 H617 0.950 . S
C628 C626 1.391 . S
C628 C629 1.400 . S
C629 C623 1.491 . S
C629 C628 1.400 . S
C629 C630 1.398 . S
C630 H618 0.950 . S
C630 C629 1.398 . S
C630 C631 1.391 1_545 S
C631 H619 0.950 . S
C631 C627 1.393 1_565 S
C631 C630 1.391 1_565 S
H632 C640 0.950 1_556 S
H633 C645 0.950 . S
H634 C642 0.950 . S
H635 C644 0.950 . S
H636 C646 0.950 . S
H637 C648 0.950 . S
H638 C650 0.950 . S
H639 C651 0.950 . S
C640 H632 0.950 1_554 S
C640 C641 1.386 . S
C640 C642 1.391 . S
C641 C640 1.386 . S
C641 C645 1.393 . S
C642 H634 0.950 . S
C642 C640 1.391 . S
C642 C643 1.400 . S
C643 C642 1.400 . S
C643 C644 1.398 . S
C643 C649 1.491 . S
C644 H635 0.950 . S
C644 C643 1.398 . S
C644 C645 1.391 . S
C645 H633 0.950 . S
C645 C641 1.393 . S
C645 C644 1.391 . S
C646 H636 0.950 . S
C646 C647 1.386 . S
C646 C648 1.391 . S
C647 C646 1.386 . S
C647 C651 1.393 . S
C648 H637 0.950 . S
C648 C646 1.391 . S
C648 C649 1.400 . S
C649 C643 1.491 . S
C649 C648 1.400 . S
C649 C650 1.398 . S
C650 H638 0.950 . S
C650 C649 1.398 . S
C650 C651 1.391 . S
C651 H639 0.950 . S
C651 C647 1.393 . S
C651 C650 1.391 . S
H652 C660 0.950 . S
H653 C665 0.950 1_556 S
H654 C662 0.950 . S
H655 C664 0.950 . S
H656 C666 0.950 . S
H657 C668 0.950 . S
H658 C670 0.950 . S
H659 C671 0.950 . S
C660 H652 0.950 . S
C660 C661 1.386 . S
C660 C662 1.391 . S
C661 C660 1.386 . S
C661 C665 1.393 . S
C662 H654 0.950 . S
C662 C660 1.391 . S
C662 C663 1.400 . S
C663 C662 1.400 . S
C663 C664 1.398 . S
C663 C669 1.491 . S
C664 H655 0.950 . S
C664 C663 1.398 . S
C664 C665 1.391 . S
C665 H653 0.950 1_554 S
C665 C661 1.393 . S
C665 C664 1.391 . S
C666 H656 0.950 . S
C666 C667 1.386 . S
C666 C668 1.391 . S
C667 C666 1.386 . S
C667 C671 1.393 . S
C668 H657 0.950 . S
C668 C666 1.391 . S
C668 C669 1.400 . S
C669 C663 1.491 . S
C669 C668 1.400 . S
C669 C670 1.398 . S
C670 H658 0.950 . S
C670 C669 1.398 . S
C670 C671 1.391 . S
C671 H659 0.950 . S
C671 C667 1.393 . S
C671 C670 1.391 . S
H672 C680 0.950 . S
H673 C685 0.950 . S
H674 C682 0.950 . S
H675 C684 0.950 . S
H676 C686 0.950 . S
H677 C688 0.950 . S
H678 C690 0.950 . S
H679 C691 0.950 . S
C680 H672 0.950 . S
C680 C681 1.386 . S
C680 C682 1.391 . S
C681 C680 1.386 . S
C681 C685 1.393 . S
C682 H674 0.950 . S
C682 C680 1.391 . S
C682 C683 1.400 . S
C683 C682 1.400 . S
C683 C684 1.398 . S
C683 C689 1.491 . S
C684 H675 0.950 . S
C684 C683 1.398 . S
C684 C685 1.391 . S
C685 H673 0.950 . S
C685 C681 1.393 . S
C685 C684 1.391 . S
C686 H676 0.950 . S
C686 C687 1.386 1_554 S
C686 C688 1.391 1_455 S
C687 C686 1.386 1_556 S
C687 C691 1.393 . S
C688 H677 0.950 . S
C688 C686 1.391 1_655 S
C688 C689 1.400 . S
C689 C683 1.491 . S
C689 C688 1.400 . S
C689 C690 1.398 1_554 S
C690 H678 0.950 . S
C690 C689 1.398 1_556 S
C690 C691 1.391 1_655 S
C691 H679 0.950 . S
C691 C687 1.393 . S
C691 C690 1.391 1_455 S
H692 C700 0.950 . S
H693 C705 0.950 . S
H694 C702 0.950 1_545 S
H695 C704 0.950 . S
H696 C706 0.950 . S
H697 C708 0.950 . S
H698 C710 0.950 . S
H699 C711 0.950 . S
C700 H692 0.950 . S
C700 C701 1.386 . S
C700 C702 1.391 . S
C701 C700 1.386 . S
C701 C705 1.393 . S
C702 H694 0.950 1_565 S
C702 C700 1.391 . S
C702 C703 1.400 . S
C703 C702 1.400 . S
C703 C704 1.398 . S
C703 C709 1.491 . S
C704 H695 0.950 . S
C704 C703 1.398 . S
C704 C705 1.391 . S
C705 H693 0.950 . S
C705 C701 1.393 . S
C705 C704 1.391 . S
C706 H696 0.950 . S
C706 C707 1.386 1_565 S
C706 C708 1.391 . S
C707 C706 1.386 1_545 S
C707 C711 1.393 1_556 S
C708 H697 0.950 . S
C708 C706 1.391 . S
C708 C709 1.400 1_556 S
C709 C703 1.491 . S
C709 C708 1.400 1_554 S
C709 C710 1.398 1_565 S
C710 H698 0.950 . S
C710 C709 1.398 1_545 S
C710 C711 1.391 . S
C711 H699 0.950 . S
C711 C707 1.393 1_554 S
C711 C710 1.391 . S
H712 C720 0.950 . S
H713 C725 0.950 . S
H714 C722 0.950 . S
H715 C724 0.950 . S
H716 C726 0.950 . S
H717 C728 0.950 . S
H718 C730 0.950 . S
H719 C731 0.950 . S
C720 H712 0.950 . S
C720 C721 1.386 . S
C720 C722 1.391 . S
C721 C720 1.386 . S
C721 C725 1.393 . S
C722 H714 0.950 . S
C722 C720 1.391 . S
C722 C723 1.400 . S
C723 C722 1.400 . S
C723 C724 1.398 . S
C723 C729 1.491 . S
C724 H715 0.950 . S
C724 C723 1.398 . S
C724 C725 1.391 . S
C725 H713 0.950 . S
C725 C721 1.393 . S
C725 C724 1.391 . S
C726 H716 0.950 . S
C726 C727 1.386 1_556 S
C726 C728 1.391 1_556 S
C727 C726 1.386 1_554 S
C727 C731 1.393 . S
C728 H717 0.950 . S
C728 C726 1.391 1_554 S
C728 C729 1.400 . S
C729 C723 1.491 . S
C729 C728 1.400 . S
C729 C730 1.398 . S
C730 H718 0.950 . S
C730 C729 1.398 . S
C730 C731 1.391 . S
C731 H719 0.950 . S
C731 C727 1.393 . S
C731 C730 1.391 . S
H732 C740 0.950 . S
H733 C745 0.950 . S
H734 C742 0.950 . S
H735 C744 0.950 . S
H736 C746 0.950 . S
H737 C748 0.950 . S
H738 C750 0.950 1_556 S
H739 C751 0.950 . S
C740 H732 0.950 . S
C740 C741 1.386 . S
C740 C742 1.391 . S
C741 C740 1.386 . S
C741 C745 1.393 . S
C742 H734 0.950 . S
C742 C740 1.391 . S
C742 C743 1.400 . S
C743 C742 1.400 . S
C743 C744 1.398 . S
C743 C749 1.491 . S
C744 H735 0.950 . S
C744 C743 1.398 . S
C744 C745 1.391 . S
C745 H733 0.950 . S
C745 C741 1.393 . S
C745 C744 1.391 . S
C746 H736 0.950 . S
C746 C747 1.386 . S
C746 C748 1.391 . S
C747 C746 1.386 . S
C747 C751 1.393 1_554 S
C748 H737 0.950 . S
C748 C746 1.391 . S
C748 C749 1.400 . S
C749 C743 1.491 . S
C749 C748 1.400 . S
C749 C750 1.398 . S
C750 H738 0.950 1_554 S
C750 C749 1.398 . S
C750 C751 1.391 1_554 S
C751 H739 0.950 . S
C751 C747 1.393 1_556 S
C751 C750 1.391 1_556 S
H752 C760 0.950 . S
H753 C765 0.950 . S
H754 C762 0.950 . S
H755 C764 0.950 . S
H756 C766 0.950 . S
H757 C768 0.950 . S
H758 C770 0.950 . S
H759 C771 0.950 1_655 S
C760 H752 0.950 . S
C760 C761 1.386 . S
C760 C762 1.391 . S
C761 C760 1.386 . S
C761 C765 1.393 . S
C762 H754 0.950 . S
C762 C760 1.391 . S
C762 C763 1.400 . S
C763 C762 1.400 . S
C763 C764 1.398 . S
C763 C769 1.491 . S
C764 H755 0.950 . S
C764 C763 1.398 . S
C764 C765 1.391 . S
C765 H753 0.950 . S
C765 C761 1.393 . S
C765 C764 1.391 . S
C766 H756 0.950 . S
C766 C767 1.386 . S
C766 C768 1.391 . S
C767 C766 1.386 . S
C767 C771 1.393 . S
C768 H757 0.950 . S
C768 C766 1.391 . S
C768 C769 1.400 . S
C769 C763 1.491 . S
C769 C768 1.400 . S
C769 C770 1.398 . S
C770 H758 0.950 . S
C770 C769 1.398 . S
C770 C771 1.391 . S
C771 H759 0.950 1_455 S
C771 C767 1.393 . S
C771 C770 1.391 . S
H772 C780 0.950 . S
H773 C785 0.950 . S
H774 C782 0.950 . S
H775 C784 0.950 . S
H776 C786 0.950 . S
H777 C788 0.950 . S
H778 C790 0.950 . S
H779 C791 0.950 . S
C780 H772 0.950 . S
C780 C781 1.386 . S
C780 C782 1.391 . S
C781 C780 1.386 . S
C781 C785 1.393 . S
C782 H774 0.950 . S
C782 C780 1.391 . S
C782 C783 1.400 . S
C783 C782 1.400 . S
C783 C784 1.398 . S
C783 C789 1.491 . S
C784 H775 0.950 . S
C784 C783 1.398 . S
C784 C785 1.391 . S
C785 H773 0.950 . S
C785 C781 1.393 . S
C785 C784 1.391 . S
C786 H776 0.950 . S
C786 C787 1.386 . S
C786 C788 1.391 . S
C787 C786 1.386 . S
C787 C791 1.393 . S
C788 H777 0.950 . S
C788 C786 1.391 . S
C788 C789 1.400 . S
C789 C783 1.491 . S
C789 C788 1.400 . S
C789 C790 1.398 . S
C790 H778 0.950 . S
C790 C789 1.398 . S
C790 C791 1.391 . S
C791 H779 0.950 . S
C791 C787 1.393 . S
C791 C790 1.391 . S
H792 C800 0.950 . S
H793 C805 0.950 . S
H794 C802 0.950 . S
H795 C804 0.950 . S
H796 C806 0.950 . S
H797 C808 0.950 . S
H798 C810 0.950 . S
H799 C811 0.950 . S
C800 H792 0.950 . S
C800 C801 1.386 . S
C800 C802 1.391 . S
C801 C800 1.386 . S
C801 C805 1.393 . S
C802 H794 0.950 . S
C802 C800 1.391 . S
C802 C803 1.400 . S
C803 C802 1.400 . S
C803 C804 1.398 . S
C803 C809 1.491 . S
C804 H795 0.950 . S
C804 C803 1.398 . S
C804 C805 1.391 . S
C805 H793 0.950 . S
C805 C801 1.393 . S
C805 C804 1.391 . S
C806 H796 0.950 . S
C806 C807 1.386 . S
C806 C808 1.391 . S
C807 C806 1.386 . S
C807 C811 1.393 . S
C808 H797 0.950 . S
C808 C806 1.391 . S
C808 C809 1.400 . S
C809 C803 1.491 . S
C809 C808 1.400 . S
C809 C810 1.398 . S
C810 H798 0.950 . S
C810 C809 1.398 . S
C810 C811 1.391 . S
C811 H799 0.950 . S
C811 C807 1.393 . S
C811 C810 1.391 . S
H812 C820 0.950 . S
H813 C825 0.950 . S
H814 C822 0.950 . S
H815 C824 0.950 . S
H816 C826 0.950 . S
H817 C828 0.950 . S
H818 C830 0.950 . S
H819 C831 0.950 . S
C820 H812 0.950 . S
C820 C821 1.386 . S
C820 C822 1.391 . S
C821 C820 1.386 . S
C821 C825 1.393 . S
C822 H814 0.950 . S
C822 C820 1.391 . S
C822 C823 1.400 . S
C823 C822 1.400 . S
C823 C824 1.398 . S
C823 C829 1.491 . S
C824 H815 0.950 . S
C824 C823 1.398 . S
C824 C825 1.391 . S
C825 H813 0.950 . S
C825 C821 1.393 . S
C825 C824 1.391 . S
C826 H816 0.950 . S
C826 C827 1.386 . S
C826 C828 1.391 . S
C827 C826 1.386 . S
C827 C831 1.393 . S
C828 H817 0.950 . S
C828 C826 1.391 . S
C828 C829 1.400 . S
C829 C823 1.491 . S
C829 C828 1.400 . S
C829 C830 1.398 . S
C830 H818 0.950 . S
C830 C829 1.398 . S
C830 C831 1.391 . S
C831 H819 0.950 . S
C831 C827 1.393 . S
C831 C830 1.391 . S
H832 C840 0.950 . S
H833 C845 0.950 . S
H834 C842 0.950 . S
H835 C844 0.950 . S
H836 C846 0.950 . S
H837 C848 0.950 . S
H838 C850 0.950 . S
H839 C851 0.950 . S
C840 H832 0.950 . S
C840 C841 1.386 . S
C840 C842 1.391 . S
C841 C840 1.386 . S
C841 C845 1.393 . S
C842 H834 0.950 . S
C842 C840 1.391 . S
C842 C843 1.400 . S
C843 C842 1.400 . S
C843 C844 1.398 . S
C843 C849 1.491 . S
C844 H835 0.950 . S
C844 C843 1.398 . S
C844 C845 1.391 . S
C845 H833 0.950 . S
C845 C841 1.393 . S
C845 C844 1.391 . S
C846 H836 0.950 . S
C846 C847 1.386 . S
C846 C848 1.391 . S
C847 C846 1.386 . S
C847 C851 1.393 . S
C848 H837 0.950 . S
C848 C846 1.391 . S
C848 C849 1.400 . S
C849 C843 1.491 . S
C849 C848 1.400 . S
C849 C850 1.398 . S
C850 H838 0.950 . S
C850 C849 1.398 . S
C850 C851 1.391 . S
C851 H839 0.950 . S
C851 C847 1.393 . S
C851 C850 1.391 . S
H852 C860 0.950 . S
H853 C865 0.950 . S
H854 C862 0.950 . S
H855 C864 0.934 1_545 S
H856 C866 0.950 1_545 S
H857 C868 0.950 1_545 S
H858 C870 0.950 . S
H859 C871 0.950 . S
C860 H852 0.950 . S
C860 C861 1.386 . S
C860 C862 1.391 . S
C861 C860 1.386 . S
C861 C865 1.393 . S
C862 H854 0.950 . S
C862 C860 1.391 . S
C862 C863 1.400 . S
C863 C862 1.400 . S
C863 C864 1.398 . S
C863 C869 1.491 . S
C864 H855 0.934 1_565 S
C864 C863 1.398 . S
C864 C865 1.391 . S
C865 H853 0.950 . S
C865 C861 1.393 . S
C865 C864 1.391 . S
C866 H856 0.950 1_565 S
C866 C867 1.386 . S
C866 C868 1.391 . S
C867 C866 1.386 . S
C867 C871 1.393 . S
C868 H857 0.950 1_565 S
C868 C866 1.391 . S
C868 C869 1.400 . S
C869 C863 1.491 . S
C869 C868 1.400 . S
C869 C870 1.398 . S
C870 H858 0.950 . S
C870 C869 1.398 . S
C870 C871 1.391 . S
C871 H859 0.950 . S
C871 C867 1.393 . S
C871 C870 1.391 . S
H872 C880 0.950 . S
H873 C885 0.950 . S
H874 C882 0.950 . S
H875 C884 0.950 . S
H876 C886 0.950 . S
H877 C888 0.950 . S
H878 C890 0.950 . S
H879 C891 0.950 . S
C880 H872 0.950 . S
C880 C881 1.386 . S
C880 C882 1.391 . S
C881 C880 1.386 . S
C881 C885 1.393 . S
C882 H874 0.950 . S
C882 C880 1.391 . S
C882 C883 1.400 . S
C883 C882 1.400 . S
C883 C884 1.398 . S
C883 C889 1.491 . S
C884 H875 0.950 . S
C884 C883 1.398 . S
C884 C885 1.391 . S
C885 H873 0.950 . S
C885 C881 1.393 . S
C885 C884 1.391 . S
C886 H876 0.950 . S
C886 C887 1.386 . S
C886 C888 1.391 . S
C887 C886 1.386 . S
C887 C891 1.393 . S
C888 H877 0.950 . S
C888 C886 1.391 . S
C888 C889 1.400 . S
C889 C883 1.491 . S
C889 C888 1.400 . S
C889 C890 1.398 . S
C890 H878 0.950 . S
C890 C889 1.398 . S
C890 C891 1.391 . S
C891 H879 0.950 . S
C891 C887 1.393 . S
C891 C890 1.391 . S
H892 C900 0.950 . S
H893 C905 0.950 . S
H894 C902 0.950 . S
H895 C904 0.950 . S
H896 C906 0.950 . S
H897 C908 0.950 . S
H898 C910 0.950 . S
H899 C911 0.950 . S
C900 H892 0.950 . S
C900 C901 1.386 . S
C900 C902 1.391 . S
C901 C900 1.386 . S
C901 C905 1.393 . S
C902 H894 0.950 . S
C902 C900 1.391 . S
C902 C903 1.400 . S
C903 C902 1.400 . S
C903 C904 1.398 . S
C903 C909 1.491 . S
C904 H895 0.950 . S
C904 C903 1.398 . S
C904 C905 1.391 . S
C905 H893 0.950 . S
C905 C901 1.393 . S
C905 C904 1.391 . S
C906 H896 0.950 . S
C906 C907 1.386 . S
C906 C908 1.391 . S
C907 C906 1.386 . S
C907 C911 1.393 . S
C908 H897 0.950 . S
C908 C906 1.391 . S
C908 C909 1.400 . S
C909 C903 1.491 . S
C909 C908 1.400 . S
C909 C910 1.398 . S
C910 H898 0.950 . S
C910 C909 1.398 . S
C910 C911 1.391 . S
C911 H899 0.950 . S
C911 C907 1.393 . S
C911 C910 1.391 . S
C441 C76 1.838 . S
C447 C170 1.944 . S
C467 C254 1.963 . S
C461 C88 1.855 . S
C487 C320 1.928 . S
C481 C52 1.945 . S
C507 C404 1.921 . S
C501 C64 1.937 . S
C527 C159 1.938 1_565 S
C521 C28 1.865 . S
C541 C40 1.889 . S
C547 C243 1.968 . S
C561 C4 1.966 . S
C567 C331 1.935 . S
C581 C16 1.958 . S
C587 C415 1.929 . S
C607 C166 0.646 1_455 S
C601 C69 0.602 . S
C627 C250 0.578 1_545 S
C621 C81 0.605 . S
C647 C322 0.557 . S
C641 C93 0.602 . S
C661 C57 0.579 . S
C667 C406 0.627 . S
C681 C21 0.660 . S
C687 C154 0.600 . S
C707 C238 0.621 . S
C701 C33 0.610 . S
C727 C334 0.613 . S
C721 C45 0.550 . S
C741 C9 0.601 . S
C747 C418 0.623 . S
C761 C66 2.039 . S
C767 C163 2.089 . S
C781 C78 1.986 . S
C787 C247 2.040 . S
C807 C327 2.078 . S
C801 C90 1.903 . S
C827 C411 2.094 . S
C821 C54 1.941 . S
C841 C18 2.006 . S
C847 C152 2.093 . S
C867 C236 2.065 . S
C861 C30 1.986 . S
C887 C338 2.071 . S
C881 C42 1.901 . S
C901 C6 1.928 . S
C907 C422 2.096 . S
