# Generated by pormake.
# Topology zzz, (3,6)-cn, num edge types: 1
# Building blocks:
#     Node 0, Type 0, BuildingBlock: BETDAH_clean_linker_0, # of connection points: 3
#     Node 1, Type 0, BuildingBlock: BETDAH_clean_linker_0, # of connection points: 3
#     Node 2, Type 0, BuildingBlock: BETDAH_clean_linker_0, # of connection points: 3
#     Node 3, Type 0, BuildingBlock: BETDAH_clean_linker_0, # of connection points: 3
#     Node 4, Type 0, BuildingBlock: BETDAH_clean_linker_0, # of connection points: 3
#     Node 5, Type 0, BuildingBlock: BETDAH_clean_linker_0, # of connection points: 3
#     Node 6, Type 0, BuildingBlock: BETDAH_clean_linker_0, # of connection points: 3
#     Node 7, Type 0, BuildingBlock: BETDAH_clean_linker_0, # of connection points: 3
#     Node 8, Type 1, BuildingBlock: HISSIN_clean_sbu_0, # of connection points: 6
#     Node 9, Type 1, BuildingBlock: HISSIN_clean_sbu_0, # of connection points: 6
#     Node 10, Type 1, BuildingBlock: HISSIN_clean_sbu_0, # of connection points: 6
#     Node 11, Type 1, BuildingBlock: HISSIN_clean_sbu_0, # of connection points: 6
#     Edge 12, Type (0, 1), BuildingBlock: AJUNOK_clean_linker_0, # of connection points: 2
#     Edge 13, Type (0, 1), BuildingBlock: AJUNOK_clean_linker_0, # of connection points: 2
#     Edge 14, Type (0, 1), BuildingBlock: AJUNOK_clean_linker_0, # of connection points: 2
#     Edge 15, Type (0, 1), BuildingBlock: AJUNOK_clean_linker_0, # of connection points: 2
#     Edge 16, Type (0, 1), BuildingBlock: AJUNOK_clean_linker_0, # of connection points: 2
#     Edge 17, Type (0, 1), BuildingBlock: AJUNOK_clean_linker_0, # of connection points: 2
#     Edge 18, Type (0, 1), BuildingBlock: AJUNOK_clean_linker_0, # of connection points: 2
#     Edge 19, Type (0, 1), BuildingBlock: AJUNOK_clean_linker_0, # of connection points: 2
#     Edge 20, Type (0, 1), BuildingBlock: AJUNOK_clean_linker_0, # of connection points: 2
#     Edge 21, Type (0, 1), BuildingBlock: AJUNOK_clean_linker_0, # of connection points: 2
#     Edge 22, Type (0, 1), BuildingBlock: AJUNOK_clean_linker_0, # of connection points: 2
#     Edge 23, Type (0, 1), BuildingBlock: AJUNOK_clean_linker_0, # of connection points: 2
#     Edge 24, Type (0, 1), BuildingBlock: AJUNOK_clean_linker_0, # of connection points: 2
#     Edge 25, Type (0, 1), BuildingBlock: AJUNOK_clean_linker_0, # of connection points: 2
#     Edge 26, Type (0, 1), BuildingBlock: AJUNOK_clean_linker_0, # of connection points: 2
#     Edge 27, Type (0, 1), BuildingBlock: AJUNOK_clean_linker_0, # of connection points: 2
#     Edge 28, Type (0, 1), BuildingBlock: AJUNOK_clean_linker_0, # of connection points: 2
#     Edge 29, Type (0, 1), BuildingBlock: AJUNOK_clean_linker_0, # of connection points: 2
#     Edge 30, Type (0, 1), BuildingBlock: AJUNOK_clean_linker_0, # of connection points: 2
#     Edge 31, Type (0, 1), BuildingBlock: AJUNOK_clean_linker_0, # of connection points: 2
#     Edge 32, Type (0, 1), BuildingBlock: AJUNOK_clean_linker_0, # of connection points: 2
#     Edge 33, Type (0, 1), BuildingBlock: AJUNOK_clean_linker_0, # of connection points: 2
#     Edge 34, Type (0, 1), BuildingBlock: AJUNOK_clean_linker_0, # of connection points: 2
#     Edge 35, Type (0, 1), BuildingBlock: AJUNOK_clean_linker_0, # of connection points: 2
# Relax obj value: 0.357
# Max RMSD: 0.207
# Mean RMSD: 0.100
data_MOF--net-zzz--node1-HISSIN_clean_sbu_0--node2-BETDAH_clean_linker_0--edge1-AJUNOK_clean_linker_0
_symmetry_space_group_name_H-M    P1
_symmetry_Int_Tables_number       1
_symmetry_cell_setting            triclinic
loop_
_symmetry_equiv_pos_as_xyz
'x, y, z'
_cell_length_a     36.66462
_cell_length_b     36.742716
_cell_length_c     12.204727
_cell_angle_alpha  89.727802
_cell_angle_beta   90.996301
_cell_angle_gamma 90.407624
loop_
_atom_site_label
_atom_site_type_symbol
_atom_site_fract_x
_atom_site_fract_y
_atom_site_fract_z
_atom_type_partial_charge
H0 H 0.84558 0.46504 0.40965 0.0
H1 H 0.74443 0.48595 0.24053 0.0
H2 H 0.78408 0.56008 0.49002 0.0
C3 C 0.82091 0.48102 0.4011 0.0
C4 C 0.81781 0.51285 0.46278 0.0
C5 C 0.79493 0.4716 0.3201 0.0
C6 C 0.76404 0.49334 0.30398 0.0
C7 C 0.7595 0.52523 0.36542 0.0
C8 C 0.7868 0.53507 0.44438 0.0
N9 N 0.72879 0.54845 0.34615 0.0
C10 C 0.70229 0.54379 0.26252 0.0
H11 H 0.10008 0.84361 0.41995 0.0
H12 H 0.08293 0.74462 0.24072 0.0
H13 H 1.00294 0.78028 0.47236 0.0
C14 C 0.08417 0.81902 0.40563 0.0
C15 C 0.05098 0.81485 0.45934 0.0
C16 C 0.09556 0.79412 0.32646 0.0
C17 C 0.07408 0.7633 0.3029 0.0
C18 C 0.04068 0.75757 0.35525 0.0
C19 C 0.02898 0.78388 0.43309 0.0
N20 N 1.01805 0.72657 0.32857 0.0
C21 C 1.02492 0.69982 0.24859 0.0
H22 H 0.72352 0.10298 0.41255 0.0
H23 H 0.82212 0.08066 0.24233 0.0
H24 H 0.78499 1.00722 0.49571 0.0
C25 C 0.7478 0.08657 0.40455 0.0
C26 C 0.75144 0.05518 0.46943 0.0
C27 C 0.77286 0.09565 0.32289 0.0
C28 C 0.80322 0.07353 0.30632 0.0
C29 C 0.80808 0.04139 0.3673 0.0
C30 C 0.78181 0.03215 0.44898 0.0
N31 N 0.83821 1.01768 0.34535 0.0
C32 C 0.86418 1.0221 0.26148 0.0
H33 H 0.48307 0.71532 0.40167 0.0
H34 H 0.49814 0.82195 0.26241 0.0
H35 H 0.57508 0.78015 0.50317 0.0
C36 C 0.49786 0.74097 0.39873 0.0
C37 C 0.52897 0.74474 0.46553 0.0
C38 C 0.48658 0.76826 0.32469 0.0
C39 C 0.50706 0.80058 0.31774 0.0
C40 C 0.53952 0.80504 0.37953 0.0
C41 C 0.55034 0.77692 0.45435 0.0
N42 N 0.56179 0.83701 0.36614 0.0
C43 C 0.55663 0.8641 0.28502 0.0
H44 H 0.21716 0.59015 0.10769 0.0
H45 H 0.31623 0.57147 0.29171 0.0
H46 H 0.28152 0.49617 0.03881 0.0
C47 C 0.24196 0.57463 0.12074 0.0
C48 C 0.24652 0.5427 0.06098 0.0
C49 C 0.26672 0.58508 0.20388 0.0
C50 C 0.29767 0.56373 0.2257 0.0
C51 C 0.30379 0.53186 0.16516 0.0
C52 C 0.27767 0.52118 0.08363 0.0
N53 N 0.33507 0.50957 0.18647 0.0
C54 C 0.36186 0.51534 0.26863 0.0
H55 H 0.97365 0.21235 0.10629 0.0
H56 H 0.98716 0.31724 0.25866 0.0
H57 H 0.07139 0.27397 0.05522 0.0
C58 C 0.9889 0.23744 0.11805 0.0
C59 C 1.02256 0.24054 0.0665 0.0
C60 C 0.97612 0.26414 0.19041 0.0
C61 C 0.99727 0.29574 0.20753 0.0
C62 C 0.03212 0.29927 0.16226 0.0
C63 C 0.04465 0.27149 0.09093 0.0
N64 N 0.05527 0.32971 0.18983 0.0
C65 C 0.04836 0.35637 0.26977 0.0
H66 H 0.35946 0.97615 0.17925 0.0
H67 H 0.25768 0.99433 0.33501 0.0
H68 H 0.29089 0.06396 0.06716 0.0
C69 C 0.33407 0.99111 0.18204 0.0
C70 C 0.3287 1.02049 0.11008 0.0
C71 C 0.30857 0.98169 0.26178 0.0
C72 C 0.27648 1.0016 0.27121 0.0
C73 C 0.26925 0.03125 0.2016 0.0
C74 C 0.29586 0.04096 0.12099 0.0
N75 N 0.23601 0.0516 0.2128 0.0
C76 C 0.20829 0.04508 0.29057 0.0
H77 H 0.60875 0.34567 0.11059 0.0
H78 H 0.59107 0.24711 0.29269 0.0
H79 H 0.51189 0.282 0.04877 0.0
C80 C 0.59299 0.32096 0.12338 0.0
C81 C 0.55986 0.31663 0.06585 0.0
C82 C 0.604 0.29645 0.20616 0.0
C83 C 0.58255 0.26555 0.22793 0.0
C84 C 0.54937 0.25967 0.17127 0.0
C85 C 0.53793 0.28566 0.09067 0.0
N86 N 0.52643 0.22904 0.19712 0.0
C87 C 0.53253 0.20333 0.28175 0.0
Eu88 Eu 1.00367 0.03746 0.68112 0.0
Eu89 Eu 0.06534 1.01603 0.861 0.0
C90 C 0.04043 0.10081 0.83928 0.0
C91 C 0.93954 0.09508 0.51535 0.0
C92 C 0.9629 0.12447 0.537 0.0
C93 C 0.89478 0.13665 0.43701 0.0
C94 C 0.95294 0.15943 0.50621 0.0
C95 C 0.90508 0.10125 0.46733 0.0
C96 C 0.91892 0.16616 0.45464 0.0
C97 C 0.95138 0.0585 0.54689 0.0
O98 O 1.01388 0.02763 0.9587 0.0
O99 O 0.97274 1.01317 0.82508 0.0
C100 C 0.98001 1.02014 0.92879 0.0
O101 O 1.01429 0.97833 0.63837 0.0
O102 O 0.08023 0.99113 1.01706 0.0
O103 O 0.12179 1.01833 0.92173 0.0
O104 O 0.04834 0.96063 0.78901 0.0
C105 C 0.03125 0.95283 0.69541 0.0
O106 O 0.05817 0.05169 0.59889 0.0
O107 O 0.09456 1.01321 0.69841 0.0
O108 O 0.06675 0.078 0.8654 0.0
O109 O 0.9838 0.04932 0.515 0.0
O110 O 0.94646 0.05038 0.6493 0.0
O111 O 1.01252 0.09005 0.77765 0.0
C112 C 0.13923 0.9682 0.03337 0.0
C113 C 0.14801 0.94264 0.95314 0.0
C114 C 0.16048 0.92683 0.17476 0.0
C115 C 0.16146 0.90852 0.98447 0.0
C116 C 0.14784 0.96103 0.14332 0.0
C117 C 0.16499 0.89927 0.09624 0.0
C118 C 0.11489 0.99865 1.00826 0.0
C119 C 0.08904 0.03353 0.61081 0.0
H120 H 0.9895 0.12023 0.57489 0.0
H121 H 0.86857 0.14075 0.3967 0.0
H122 H 0.97314 0.18077 0.5173 0.0
H123 H 0.88651 0.07874 0.45165 0.0
H124 H 0.14165 0.94786 0.86748 0.0
H125 H 0.16226 0.92098 0.26166 0.0
H126 H 0.16539 0.88814 0.92209 0.0
H127 H 0.14124 0.98055 0.20617 0.0
Eu128 Eu 0.55059 0.06669 0.88255 0.0
Eu129 Eu 0.53077 1.00457 0.70234 0.0
C130 C 0.5498 0.98067 0.95223 0.0
C131 C 0.59713 0.1423 0.04647 0.0
C132 C 0.60762 0.14975 0.15473 0.0
C133 C 0.65516 0.16607 0.98448 0.0
C134 C 0.6428 0.16226 0.17839 0.0
C135 C 0.62003 0.15286 0.96076 0.0
C136 C 0.66803 0.16719 0.0937 0.0
C137 C 0.56706 0.1165 0.02762 0.0
O138 O 0.4784 1.00933 0.80216 0.0
O139 O 0.48822 0.06385 0.88814 0.0
C140 C 0.46653 0.03614 0.86383 0.0
O141 O 0.55244 0.0979 0.7223 0.0
O142 O 0.53312 0.94757 0.65216 0.0
O143 O 0.5068 0.98709 0.54672 0.0
O144 O 0.52254 0.0581 0.60792 0.0
C145 C 0.53723 0.09043 0.62676 0.0
O146 O 0.60638 0.05401 0.80683 0.0
O147 O 0.58968 1.01747 0.66155 0.0
O148 O 0.5536 0.97312 0.84808 0.0
O149 O 0.5455 0.12232 0.94329 0.0
O150 O 0.57629 0.08238 0.03707 0.0
O151 O 0.54376 1.01437 0.98268 0.0
C152 C 0.48205 0.92857 0.54606 0.0
C153 C 0.45849 0.91993 0.63202 0.0
C154 C 0.43572 0.90998 0.41468 0.0
C155 C 0.42278 0.90842 0.60843 0.0
C156 C 0.47146 0.9207 0.4382 0.0
C157 C 0.41013 0.90718 0.49914 0.0
C158 C 0.51346 0.95275 0.56384 0.0
C159 C 0.6146 0.03636 0.71596 0.0
H160 H 0.59019 0.14191 0.22177 0.0
H161 H 0.67354 0.17121 0.91762 0.0
H162 H 0.65141 0.16322 0.26368 0.0
H163 H 0.61217 0.14767 0.87625 0.0
H164 H 0.46645 0.92532 0.71632 0.0
H165 H 0.42722 0.90882 0.32931 0.0
H166 H 0.40398 0.90479 0.67497 0.0
H167 H 0.48945 0.92686 0.37104 0.0
Eu168 Eu 0.50436 0.53799 0.83878 0.0
Eu169 Eu 0.56655 0.51865 0.66369 0.0
C170 C 0.58953 0.53544 0.9161 0.0
C171 C 0.44383 0.59744 0.99666 0.0
C172 C 0.47138 0.62376 0.9885 0.0
C173 C 0.40201 0.644 0.05691 0.0
C174 C 0.46469 0.65963 1.0161 0.0
C175 C 0.40889 0.60767 0.02942 0.0
C176 C 0.42999 0.67038 0.05094 0.0
C177 C 0.45176 0.5602 0.96285 0.0
O178 O 0.552 0.46295 0.73905 0.0
O179 O 0.51592 0.47925 0.88327 0.0
C180 C 0.53415 0.4545 0.82941 0.0
O181 O 0.47601 0.50897 0.69769 0.0
O182 O 0.62241 0.52251 0.60495 0.0
O183 O 0.58114 0.49336 0.51007 0.0
O184 O 0.51388 0.52942 0.56672 0.0
C185 C 0.48133 0.51804 0.59522 0.0
O186 O 0.51327 0.59065 0.74292 0.0
O187 O 0.56794 0.58066 0.66171 0.0
O188 O 0.59576 0.51634 0.82787 0.0
O189 O 0.4479 0.55474 0.85806 0.0
O190 O 0.48219 0.5466 1.00159 0.0
O191 O 0.55798 0.55194 0.92797 0.0
C192 C 0.64063 0.47152 0.50243 0.0
C193 C 0.64816 0.4461 0.5858 0.0
C194 C 0.66504 0.43036 0.36885 0.0
C195 C 0.66244 0.41208 0.55956 0.0
C196 C 0.65128 0.46437 0.39539 0.0
C197 C 0.66832 0.40285 0.44939 0.0
C198 C 0.61568 0.50175 0.52049 0.0
C199 C 0.5413 0.60274 0.68695 0.0
H200 H 0.49843 0.61647 0.96203 0.0
H201 H 0.3752 0.65131 0.08506 0.0
H202 H 0.48746 0.67854 1.01473 0.0
H203 H 0.38716 0.58763 0.03452 0.0
H204 H 0.64015 0.45131 0.66929 0.0
H205 H 0.66861 0.42455 0.28288 0.0
H206 H 0.66511 0.39176 0.62372 0.0
H207 H 0.64552 0.48369 0.33016 0.0
Eu208 Eu 0.04306 0.5588 0.66718 0.0
Eu209 Eu 1.02266 0.49705 0.84883 0.0
C210 C 0.10735 0.52429 0.82728 0.0
C211 C 0.09091 0.63124 0.49497 0.0
C212 C 0.11732 0.64007 0.57534 0.0
C213 C 0.13298 0.64895 0.35345 0.0
C214 C 0.15208 0.65167 0.54419 0.0
C215 C 0.09821 0.63794 0.38458 0.0
C216 C 0.16102 0.65351 0.43268 0.0
C217 C 0.0592 0.6085 0.52125 0.0
O218 O 1.01291 0.552 0.93288 0.0
O219 O 0.0499 0.58801 0.82946 0.0
C220 C 0.0313 0.58272 0.91917 0.0
O221 O 0.98094 0.55877 0.66853 0.0
O222 O 1.00269 0.48177 1.01003 0.0
O223 O 1.01897 0.43989 0.89831 0.0
O224 O 0.97037 0.50332 0.74844 0.0
C225 C 0.95877 0.53148 0.69105 0.0
O226 O 0.03412 0.50702 0.56789 0.0
O227 O 0.04234 0.46451 0.70283 0.0
O228 O 0.08228 0.50833 0.88707 0.0
O229 O 0.06413 0.57373 0.5077 0.0
O230 O 0.04199 0.6155 0.61129 0.0
O231 O 0.09883 0.54104 0.73424 0.0
C232 C 0.96918 0.42749 1.01294 0.0
C233 C 0.94191 0.42378 0.93148 0.0
C234 C 0.92619 0.40803 0.14979 0.0
C235 C 0.90647 0.41363 0.95999 0.0
C236 C 0.96158 0.41772 0.121 0.0
C237 C 0.89773 0.40779 0.07056 0.0
C238 C 1.00329 0.447 0.99044 0.0
C239 C 0.03943 0.47303 0.59819 0.0
H240 H 0.11212 0.63515 0.66129 0.0
H241 H 0.13873 0.64956 0.26673 0.0
H242 H 0.17297 0.65573 0.60673 0.0
H243 H 0.07817 0.63109 0.32157 0.0
H244 H 0.94731 0.43123 0.84728 0.0
H245 H 0.92068 0.40461 0.23608 0.0
H246 H 0.88528 0.41353 0.89701 0.0
H247 H 0.98224 0.42058 0.18493 0.0
C248 C 0.1524 0.06953 0.38234 0.0
C249 C 0.17783 0.04123 0.36884 0.0
C250 C 0.12343 0.06673 0.45803 0.0
C251 C 0.11871 0.03564 0.52521 0.0
H252 H 0.15498 0.09425 0.33429 0.0
H253 H 0.10506 0.08949 0.46555 0.0
S254 S 0.17587 0.95241 0.51479 0.0
N255 N 0.19453 0.98006 0.42424 0.0
N256 N 0.14135 0.97491 0.56636 0.0
C257 C 0.14364 1.00688 0.51037 0.0
C258 C 0.17275 1.00962 0.43254 0.0
C259 C 0.51568 0.14193 0.35653 0.0
C260 C 0.53502 0.17504 0.36775 0.0
C261 C 0.51666 0.11481 0.43946 0.0
C262 C 0.53694 0.11954 0.53805 0.0
H263 H 0.49941 0.13697 0.28309 0.0
H264 H 0.50105 0.09003 0.4263 0.0
S265 S 0.59386 0.20117 0.60498 0.0
N266 N 0.57585 0.21069 0.48332 0.0
N267 N 0.57812 0.16043 0.63813 0.0
C268 C 0.55686 0.15259 0.5489 0.0
C269 C 0.5558 0.18007 0.46431 0.0
C270 C 0.42733 0.52504 0.32229 0.0
C271 C 0.39116 0.51729 0.352 0.0
C272 C 0.45616 0.52505 0.40081 0.0
C273 C 0.45017 0.51708 0.51259 0.0
H274 H 0.43348 0.53093 0.23746 0.0
H275 H 0.48344 0.53126 0.37326 0.0
S276 S 0.35971 0.49551 0.63173 0.0
N277 N 0.35066 0.50185 0.5 0.0
N278 N 0.40416 0.50173 0.64732 0.0
C279 C 0.4138 0.50944 0.54271 0.0
C280 C 0.38455 0.50958 0.46265 0.0
C281 C 0.03765 0.37832 0.46133 0.0
C282 C 0.04503 0.38588 0.35061 0.0
C283 C 0.03612 0.4064 0.5404 0.0
C284 C 0.04156 0.44345 0.51232 0.0
H285 H 0.0333 0.35042 0.48742 0.0
H286 H 0.03035 0.39893 0.62431 0.0
S287 S 0.06277 0.47739 0.23264 0.0
N288 N 0.05879 0.43288 0.21736 0.0
N289 N 0.05519 0.48541 0.36332 0.0
C290 C 0.04884 0.45115 0.40113 0.0
C291 C 0.05079 0.42251 0.32126 0.0
C292 C 0.92998 0.02572 0.20574 0.0
C293 C 0.89268 0.02287 0.17659 0.0
C294 C 0.95772 0.0247 0.12602 0.0
C295 C 0.94966 1.02053 1.01277 0.0
H296 H 0.9379 0.02856 0.29123 0.0
H297 H 0.98583 0.02706 0.1539 0.0
S298 S 0.85573 1.01299 0.89341 0.0
N299 N 0.84908 1.01648 0.02647 0.0
N300 N 0.90038 1.01446 0.87752 0.0
C301 C 0.91219 1.01794 0.98307 0.0
C302 C 0.88405 1.01913 0.0644 0.0
C303 C 0.55468 0.93 0.23027 0.0
C304 C 0.55405 0.89295 0.20096 0.0
C305 C 0.55327 0.95802 0.15014 0.0
C306 C 0.55163 0.95031 0.03669 0.0
H307 H 0.55639 0.93748 0.31599 0.0
H308 H 0.55374 0.98599 0.17767 0.0
S309 S 0.54893 0.85713 0.91778 0.0
N310 N 0.55131 0.84994 0.05139 0.0
N311 N 0.5489 0.90177 0.90125 0.0
C312 C 0.55096 0.91308 1.00702 0.0
C313 C 0.55214 0.8847 0.08879 0.0
C314 C 0.63908 0.55518 0.19082 0.0
C315 C 0.67425 0.54112 0.17563 0.0
C316 C 0.61198 0.55351 0.10698 0.0
C317 C 0.61887 0.53757 1.00432 0.0
H318 H 0.63241 0.56765 0.26814 0.0
H319 H 0.58537 0.56468 0.12321 0.0
S320 S 0.70733 0.49692 0.92431 0.0
N321 N 0.71479 0.5111 0.05092 0.0
N322 N 0.66459 0.50741 0.89429 0.0
C323 C 0.65424 0.52333 0.98903 0.0
C324 C 0.68169 0.52525 0.07427 0.0
C325 C 1.00519 0.63916 0.17299 0.0
C326 C 0.0279 0.67026 0.16731 0.0
C327 C 1.00669 0.61096 0.09419 0.0
C328 C 0.03089 0.61251 1.00525 0.0
H329 H 0.98583 0.63666 0.2387 0.0
H330 H 0.98833 0.58794 0.10255 0.0
S331 S 0.09768 0.68759 0.95672 0.0
N332 N 0.0762 0.70031 0.06784 0.0
N333 N 0.07937 0.64811 0.92096 0.0
C334 C 0.05421 0.64342 1.00035 0.0
C335 C 0.05263 0.67199 0.08075 0.0
C336 C 0.91787 0.22987 0.22046 0.0
C337 C 0.94435 0.25471 0.26088 0.0
C338 C 0.90325 0.2031 0.28932 0.0
C339 C 0.91303 0.2022 0.4012 0.0
H340 H 0.91317 0.22714 0.13298 0.0
H341 H 0.88893 0.18041 0.25152 0.0
S342 S 0.96082 0.27519 0.55583 0.0
N343 N 0.96659 0.28588 0.42573 0.0
N344 N 0.93502 0.2382 0.55543 0.0
C345 C 0.92961 0.23351 0.44589 0.0
C346 C 0.94641 0.25946 0.37547 0.0
C347 C 0.33082 0.91992 0.31085 0.0
C348 C 0.31924 0.95436 0.34497 0.0
C349 C 0.35618 0.90017 0.37381 0.0
C350 C 0.37139 0.91497 0.47069 0.0
H351 H 0.32359 0.91025 0.22953 0.0
H352 H 0.3677 0.87585 0.33884 0.0
S353 S 0.34156 0.99951 0.6082 0.0
N354 N 0.31768 0.99828 0.49242 0.0
N355 N 0.36626 0.96216 0.60942 0.0
C356 C 0.35508 0.94634 0.51403 0.0
C357 C 0.32882 0.96602 0.45073 0.0
C358 C 0.62142 0.31495 0.39414 0.0
C359 C 0.63228 0.30883 0.28601 0.0
C360 C 0.63807 0.34225 0.45722 0.0
C361 C 0.66616 0.36415 0.41393 0.0
H362 H 0.59672 0.30243 0.42464 0.0
H363 H 0.62515 0.34941 0.53317 0.0
S364 S 0.71429 0.34752 0.15462 0.0
N365 N 0.6796 0.31853 0.15191 0.0
N366 N 0.71192 0.36921 0.27257 0.0
C367 C 0.68211 0.35277 0.31591 0.0
C368 C 0.66479 0.32527 0.25097 0.0
C369 C 0.24706 0.60294 0.3882 0.0
C370 C 0.2549 0.61361 0.28052 0.0
C371 C 0.21964 0.6203 0.44623 0.0
C372 C 0.19943 0.64896 0.39843 0.0
H373 H 0.25829 0.57799 0.42184 0.0
H374 H 0.21104 0.60778 0.52199 0.0
S375 S 0.21915 0.69495 0.13515 0.0
N376 N 0.24759 0.66027 0.14037 0.0
N377 N 0.19633 0.69346 0.25069 0.0
C378 C 0.21189 0.664 0.29973 0.0
C379 C 0.23969 0.64617 0.24037 0.0
C380 C 0.11598 0.81204 0.14227 0.0
C381 C 0.12518 0.80567 0.25281 0.0
C382 C 0.13391 0.83919 0.08282 0.0
C383 C 0.16164 0.86063 0.13219 0.0
H384 H 0.09154 0.79995 0.1064 0.0
H385 H 0.12216 0.8467 1.00411 0.0
S386 S 0.20527 0.84349 0.40346 0.0
N387 N 0.17043 0.81473 0.39797 0.0
N388 N 0.20503 0.86523 0.28462 0.0
C389 C 0.1759 0.84902 0.23414 0.0
C390 C 0.15735 0.82162 0.29517 0.0
C391 C 0.74865 0.15735 0.27947 0.0
C392 C 0.76207 0.12393 0.24207 0.0
C393 C 0.72186 0.17616 0.21911 0.0
C394 C 0.70734 0.16162 0.12096 0.0
H395 H 0.75534 0.16645 0.36177 0.0
H396 H 0.70892 0.19925 0.2569 0.0
S397 S 0.74253 0.08127 0.973 0.0
N398 N 0.76637 0.08246 0.08875 0.0
N399 N 0.71546 0.11689 0.97663 0.0
C400 C 0.72567 0.13206 0.07383 0.0
C401 C 0.75325 0.11329 0.13461 0.0
C402 C 0.42826 0.73603 0.27848 0.0
C403 C 0.45684 0.75916 0.24452 0.0
C404 C 0.41374 0.70964 0.20744 0.0
C405 C 0.42626 0.70712 0.09959 0.0
H406 H 0.42148 0.73423 0.36443 0.0
H407 H 0.39702 0.68822 0.24208 0.0
S408 S 0.48421 0.77446 0.95646 0.0
N409 N 0.48643 0.78655 0.08653 0.0
N410 N 0.45588 0.73938 0.95113 0.0
C411 C 0.44656 0.73656 0.05809 0.0
C412 C 0.46277 0.76229 0.13128 0.0
C413 C 0.81256 0.45773 0.13104 0.0
C414 C 0.8056 0.44471 0.23705 0.0
C415 C 0.83925 0.44156 0.06726 0.0
C416 C 0.85952 0.41175 0.10761 0.0
H417 H 0.80131 0.48347 0.10353 0.0
H418 H 0.84725 0.45571 0.99335 0.0
S419 S 0.84036 0.35922 0.36035 0.0
N420 N 0.81289 0.39461 0.36573 0.0
N421 N 0.86239 0.36326 0.24388 0.0
C422 C 0.84735 0.39433 0.2033 0.0
C423 C 0.82047 0.4111 0.26882 0.0
C424 C 1.00973 0.19807 0.90774 0.0
C425 C 0.03346 0.20924 0.99388 0.0
C426 C 1.01329 0.16407 0.85535 0.0
C427 C 0.04068 0.13903 0.88654 0.0
H428 H 0.98694 0.21517 0.88398 0.0
H429 H 0.99337 0.15688 0.79241 0.0
S430 S 0.11109 0.15546 0.10472 0.0
N431 N 0.08627 0.19282 0.10498 0.0
N432 N 0.09334 0.12934 1.00743 0.0
C433 C 0.0657 0.15061 0.96937 0.0
C434 C 0.06202 0.18543 0.02256 0.0
C435 C 0.38045 0.06003 0.03204 0.0
C436 C 0.35895 0.02798 0.02827 0.0
C437 C 0.41418 0.063 0.97596 0.0
C438 C 0.42838 0.03407 0.91308 0.0
H439 H 0.37222 0.0823 0.08363 0.0
H440 H 0.42987 0.0879 0.98531 0.0
S441 S 0.38206 0.94448 0.87446 0.0
N442 N 0.35402 0.96727 0.95247 0.0
N443 N 0.41643 0.97242 0.84972 0.0
C444 C 0.40626 1.00245 0.9057 0.0
C445 C 0.37206 0.99956 0.96224 0.0
C446 C 0.57184 0.36005 0.9078 0.0
C447 C 0.54817 0.34733 0.9901 0.0
C448 C 0.56604 0.39347 0.8521 0.0
C449 C 0.53663 0.41641 0.87735 0.0
H450 H 0.59606 0.34467 0.8894 0.0
H451 H 0.58593 0.40221 0.79268 0.0
S452 S 0.46535 0.39501 0.0819 0.0
N453 N 0.49303 0.35979 0.08954 0.0
N454 N 0.48216 0.42226 0.98703 0.0
C455 C 0.51192 0.40324 0.95645 0.0
C456 C 0.51762 0.36894 1.01195 0.0
C457 C 0.19144 0.50429 1.01011 0.0
C458 C 0.21621 0.53219 0.98264 0.0
C459 C 0.15716 0.50091 0.95602 0.0
C460 C 0.14607 0.52516 0.87153 0.0
H461 H 0.19757 0.48643 0.07874 0.0
H462 H 0.13862 0.47987 0.98384 0.0
S463 S 0.20204 0.60189 0.76602 0.0
N464 N 0.22796 0.58354 0.863 0.0
N465 N 0.16429 0.57715 0.76061 0.0
C466 C 0.17156 0.55198 0.83973 0.0
C467 C 0.20627 0.5555 0.89543 0.0
C468 C 1.01291 0.87026 0.50552 0.0
C469 C 0.04029 0.84521 0.53581 0.0
C470 C 1.00926 0.90407 0.56007 0.0
C471 C 0.03271 0.9146 0.64815 0.0
H472 H 0.99552 0.86467 0.43487 0.0
H473 H 0.98853 0.92266 0.53019 0.0
S474 S 0.10822 0.85805 0.76148 0.0
N475 N 0.09057 0.833 0.66174 0.0
N476 N 0.08368 0.89553 0.76436 0.0
C477 C 0.05918 0.88895 0.68193 0.0
C478 C 0.06298 0.85474 0.62589 0.0
C479 C 0.69973 1.01514 0.54339 0.0
C480 C 0.72114 0.04716 0.5505 0.0
C481 C 0.66628 1.01136 0.59996 0.0
C482 C 0.65261 0.03914 0.66801 0.0
H483 H 0.70775 0.99363 0.48864 0.0
H484 H 0.65044 0.98668 0.58768 0.0
S485 S 0.69812 0.12841 0.71561 0.0
N486 N 0.72611 0.10692 0.63401 0.0
N487 N 0.66413 0.09981 0.7387 0.0
C488 C 0.67451 0.07065 0.67908 0.0
C489 C 0.70833 0.07461 0.62108 0.0
C490 C 0.56692 0.68985 0.52435 0.0
C491 C 0.5374 0.71338 0.54241 0.0
C492 C 0.56893 0.65496 0.57476 0.0
C493 C 0.54137 0.64176 0.64495 0.0
H494 H 0.58746 0.69751 0.46569 0.0
H495 H 0.59155 0.63759 0.55449 0.0
S496 S 0.45914 0.69378 0.72289 0.0
N497 N 0.48107 0.7216 0.63998 0.0
N498 N 0.48441 0.65692 0.73296 0.0
C499 C 0.51264 0.66594 0.66722 0.0
C500 C 0.5108 0.70133 0.61664 0.0
C501 C 0.86247 0.49729 0.615 0.0
C502 C 0.84947 0.52283 0.53731 0.0
C503 C 0.89678 0.5013 0.66775 0.0
C504 C 0.92022 0.53096 0.64477 0.0
H505 H 0.84657 0.47294 0.63159 0.0
H506 H 0.9055 0.48007 0.72386 0.0
S507 S 0.89836 0.60667 0.45145 0.0
N508 N 0.86214 0.57975 0.44368 0.0
N509 N 0.92638 0.58759 0.54189 0.0
C510 C 0.90676 0.55765 0.57087 0.0
C511 C 0.87158 0.55357 0.51754 0.0
loop_
_geom_bond_atom_site_label_1
_geom_bond_atom_site_label_2
_geom_bond_distance
_geom_bond_site_symmetry_2
_ccdc_geom_bond_type
H0 C3 0.929 . S
H1 C6 0.929 . S
H2 C8 0.930 . S
C3 H0 0.929 . S
C3 C4 1.398 . S
C3 C5 1.396 . S
C4 C3 1.398 . S
C4 C8 1.407 . S
C5 C3 1.396 . S
C5 C6 1.394 . S
C6 H1 0.929 . S
C6 C5 1.394 . S
C6 C7 1.382 . S
C7 C6 1.382 . S
C7 C8 1.392 . S
C7 N9 1.420 . S
C8 H2 0.930 . S
C8 C4 1.407 . S
C8 C7 1.392 . S
N9 C7 1.420 . S
N9 C10 1.244 . S
C10 N9 1.244 . S
H11 C14 0.929 . S
H12 C17 0.929 . S
H13 C19 0.930 . S
C14 H11 0.929 . S
C14 C15 1.398 . S
C14 C16 1.396 . S
C15 C14 1.398 . S
C15 C19 1.407 . S
C16 C14 1.396 . S
C16 C17 1.394 . S
C17 H12 0.929 . S
C17 C16 1.394 . S
C17 C18 1.382 . S
C18 C17 1.382 . S
C18 C19 1.392 . S
C18 N20 1.420 . S
C19 H13 0.930 . S
C19 C15 1.407 . S
C19 C18 1.392 . S
N20 C18 1.420 . S
N20 C21 1.244 . S
C21 N20 1.244 . S
H22 C25 0.929 . S
H23 C28 0.929 . S
H24 C30 0.930 . S
C25 H22 0.929 . S
C25 C26 1.398 . S
C25 C27 1.396 . S
C26 C25 1.398 . S
C26 C30 1.407 . S
C27 C25 1.396 . S
C27 C28 1.394 . S
C28 H23 0.929 . S
C28 C27 1.394 . S
C28 C29 1.382 . S
C29 C28 1.382 . S
C29 C30 1.392 . S
C29 N31 1.420 . S
C30 H24 0.930 . S
C30 C26 1.407 . S
C30 C29 1.392 . S
N31 C29 1.420 . S
N31 C32 1.244 . S
C32 N31 1.244 . S
H33 C36 0.929 . S
H34 C39 0.929 . S
H35 C41 0.930 . S
C36 H33 0.929 . S
C36 C37 1.398 . S
C36 C38 1.396 . S
C37 C36 1.398 . S
C37 C41 1.407 . S
C38 C36 1.396 . S
C38 C39 1.394 . S
C39 H34 0.929 . S
C39 C38 1.394 . S
C39 C40 1.382 . S
C40 C39 1.382 . S
C40 C41 1.392 . S
C40 N42 1.420 . S
C41 H35 0.930 . S
C41 C37 1.407 . S
C41 C40 1.392 . S
N42 C40 1.420 . S
N42 C43 1.244 . S
C43 N42 1.244 . S
H44 C47 0.929 . S
H45 C50 0.929 . S
H46 C52 0.930 . S
C47 H44 0.929 . S
C47 C48 1.398 1_554 S
C47 C49 1.396 . S
C48 C47 1.398 1_556 S
C48 C52 1.407 . S
C49 C47 1.396 . S
C49 C50 1.394 . S
C50 H45 0.929 . S
C50 C49 1.394 . S
C50 C51 1.382 . S
C51 C50 1.382 . S
C51 C52 1.392 1_554 S
C51 N53 1.420 . S
C52 H46 0.930 . S
C52 C48 1.407 . S
C52 C51 1.392 1_556 S
N53 C51 1.420 . S
N53 C54 1.244 . S
C54 N53 1.244 . S
H55 C58 0.929 . S
H56 C61 0.929 . S
H57 C63 0.930 . S
C58 H55 0.929 . S
C58 C59 1.398 1_554 S
C58 C60 1.396 . S
C59 C58 1.398 1_556 S
C59 C63 1.407 . S
C60 C58 1.396 . S
C60 C61 1.394 . S
C61 H56 0.929 . S
C61 C60 1.394 . S
C61 C62 1.382 . S
C62 C61 1.382 . S
C62 C63 1.392 1_554 S
C62 N64 1.420 . S
C63 H57 0.930 . S
C63 C59 1.407 . S
C63 C62 1.392 1_556 S
N64 C62 1.420 . S
N64 C65 1.244 . S
C65 N64 1.244 . S
H66 C69 0.929 . S
H67 C72 0.929 . S
H68 C74 0.930 . S
C69 H66 0.929 . S
C69 C70 1.398 . S
C69 C71 1.396 1_556 S
C70 C69 1.398 . S
C70 C74 1.407 . S
C71 C69 1.396 1_554 S
C71 C72 1.394 . S
C72 H67 0.929 . S
C72 C71 1.394 . S
C72 C73 1.382 . S
C73 C72 1.382 . S
C73 C74 1.392 1_554 S
C73 N75 1.420 . S
C74 H68 0.930 . S
C74 C70 1.407 . S
C74 C73 1.392 1_556 S
N75 C73 1.420 . S
N75 C76 1.244 . S
C76 N75 1.244 . S
H77 C80 0.929 . S
H78 C83 0.929 . S
H79 C85 0.930 . S
C80 H77 0.929 . S
C80 C81 1.398 1_554 S
C80 C82 1.396 . S
C81 C80 1.398 1_556 S
C81 C85 1.407 . S
C82 C80 1.396 . S
C82 C83 1.394 . S
C83 H78 0.929 . S
C83 C82 1.394 . S
C83 C84 1.382 . S
C84 C83 1.382 . S
C84 C85 1.392 1_554 S
C84 N86 1.420 . S
C85 H79 0.930 . S
C85 C81 1.407 . S
C85 C84 1.392 1_556 S
N86 C84 1.420 . S
N86 C87 1.244 . S
C87 N86 1.244 . S
Eu88 C97 2.828 . S
Eu88 O99 2.392 . S
Eu88 O101 2.418 1_545 S
Eu88 O106 2.373 1_655 S
Eu88 O109 2.488 . S
Eu88 O110 2.471 . S
Eu88 O111 2.349 1_655 S
Eu89 O98 2.373 1_455 S
Eu89 O102 2.488 1_556 S
Eu89 O103 2.471 . S
Eu89 O104 2.349 . S
Eu89 O107 2.392 1_565 S
Eu89 O108 2.418 1_565 S
Eu89 C118 2.828 1_556 S
C90 O108 1.244 . S
C90 O111 1.265 . S
C91 C92 1.379 1_655 S
C91 C95 1.373 . S
C91 C97 1.505 . S
C92 C91 1.379 1_455 S
C92 C94 1.369 . S
C92 H120 0.930 . S
C93 C95 1.383 . S
C93 C96 1.382 . S
C93 H121 0.930 . S
C94 C92 1.369 . S
C94 C96 1.392 1_455 S
C94 H122 0.930 . S
C95 C91 1.373 . S
C95 C93 1.383 . S
C95 H123 0.931 . S
C96 C93 1.382 . S
C96 C94 1.392 1_655 S
C97 Eu88 2.828 . S
C97 C91 1.505 . S
C97 O109 1.249 . S
C97 O110 1.244 . S
O98 Eu89 2.373 1_655 S
O98 C100 1.258 . S
O99 Eu88 2.392 . S
O99 C100 1.241 1_545 S
C100 O98 1.258 . S
C100 O99 1.241 1_565 S
O101 Eu88 2.418 1_565 S
O101 C105 1.244 . S
O102 Eu89 2.488 1_554 S
O102 C118 1.249 . S
O103 Eu89 2.471 . S
O103 C118 1.244 1_556 S
O104 Eu89 2.349 . S
O104 C105 1.265 1_455 S
C105 O101 1.244 . S
C105 O104 1.265 1_655 S
O106 Eu88 2.373 1_455 S
O106 C119 1.258 . S
O107 Eu89 2.392 1_545 S
O107 C119 1.242 . S
O108 Eu89 2.418 1_545 S
O108 C90 1.244 . S
O109 Eu88 2.488 . S
O109 C97 1.249 . S
O110 Eu88 2.471 . S
O110 C97 1.244 . S
O111 Eu88 2.349 1_455 S
O111 C90 1.265 . S
C112 C113 1.379 . S
C112 C116 1.373 . S
C112 C118 1.505 . S
C113 C112 1.379 . S
C113 C115 1.369 . S
C113 H124 0.927 1_455 S
C114 C116 1.383 . S
C114 C117 1.382 . S
C114 H125 0.930 . S
C115 C113 1.369 . S
C115 C117 1.392 . S
C115 H126 0.930 1_455 S
C116 C112 1.373 . S
C116 C114 1.383 . S
C116 H127 0.931 . S
C117 C114 1.382 . S
C117 C115 1.392 . S
C118 Eu89 2.828 1_554 S
C118 O102 1.249 . S
C118 O103 1.244 1_554 S
C118 C112 1.505 . S
C119 O106 1.258 . S
C119 O107 1.242 . S
H120 C92 0.930 . S
H121 C93 0.930 . S
H122 C94 0.930 . S
H123 C95 0.931 . S
H124 C113 0.927 1_655 S
H125 C114 0.930 . S
H126 C115 0.930 1_655 S
H127 C116 0.931 . S
Eu128 C137 2.828 . S
Eu128 O139 2.392 . S
Eu128 O141 2.418 . S
Eu128 O146 2.373 . S
Eu128 O149 2.488 . S
Eu128 O150 2.471 . S
Eu128 O151 2.349 1_545 S
Eu129 O138 2.373 1_565 S
Eu129 O142 2.488 . S
Eu129 O143 2.471 1_565 S
Eu129 O144 2.349 1_565 S
Eu129 O147 2.392 . S
Eu129 O148 2.418 . S
Eu129 C158 2.828 . S
C130 O148 1.244 . S
C130 O151 1.265 . S
C131 C132 1.379 . S
C131 C135 1.373 . S
C131 C137 1.505 1_554 S
C132 C131 1.379 . S
C132 C134 1.369 . S
C132 H160 0.930 1_545 S
C133 C135 1.383 . S
C133 C136 1.382 . S
C133 H161 0.930 . S
C134 C132 1.369 . S
C134 C136 1.392 . S
C134 H162 0.930 1_545 S
C135 C131 1.373 . S
C135 C133 1.383 . S
C135 H163 0.931 . S
C136 C133 1.382 . S
C136 C134 1.392 . S
C137 Eu128 2.828 . S
C137 C131 1.505 1_556 S
C137 O149 1.249 . S
C137 O150 1.244 . S
O138 Eu129 2.373 1_545 S
O138 C140 1.258 . S
O139 Eu128 2.392 . S
O139 C140 1.242 . S
C140 O138 1.258 . S
C140 O139 1.242 . S
O141 Eu128 2.418 . S
O141 C145 1.244 . S
O142 Eu129 2.488 . S
O142 C158 1.249 . S
O143 Eu129 2.471 1_545 S
O143 C158 1.244 1_545 S
O144 Eu129 2.349 1_545 S
O144 C145 1.265 . S
C145 O141 1.244 . S
C145 O144 1.265 . S
O146 Eu128 2.373 . S
O146 C159 1.258 1_545 S
O147 Eu129 2.392 . S
O147 C159 1.242 . S
O148 Eu129 2.418 . S
O148 C130 1.244 . S
O149 Eu128 2.488 . S
O149 C137 1.249 . S
O150 Eu128 2.471 . S
O150 C137 1.244 . S
O151 Eu128 2.349 1_565 S
O151 C130 1.265 . S
C152 C153 1.379 1_565 S
C152 C156 1.373 . S
C152 C158 1.505 . S
C153 C152 1.379 1_545 S
C153 C155 1.369 . S
C153 H164 0.930 . S
C154 C156 1.383 . S
C154 C157 1.382 . S
C154 H165 0.930 . S
C155 C153 1.369 . S
C155 C157 1.392 1_545 S
C155 H166 0.930 . S
C156 C152 1.373 . S
C156 C154 1.383 . S
C156 H167 0.931 . S
C157 C154 1.382 . S
C157 C155 1.392 1_565 S
C158 Eu129 2.828 . S
C158 O142 1.249 . S
C158 O143 1.244 1_565 S
C158 C152 1.505 . S
C159 O146 1.258 1_565 S
C159 O147 1.242 . S
H160 C132 0.930 1_565 S
H161 C133 0.930 . S
H162 C134 0.930 1_565 S
H163 C135 0.931 . S
H164 C153 0.930 . S
H165 C154 0.930 . S
H166 C155 0.930 . S
H167 C156 0.931 . S
Eu168 C177 2.828 . S
Eu168 O179 2.392 . S
Eu168 O181 2.418 . S
Eu168 O186 2.373 . S
Eu168 O189 2.488 . S
Eu168 O190 2.471 . S
Eu168 O191 2.349 . S
Eu169 O178 2.373 . S
Eu169 O182 2.488 . S
Eu169 O183 2.471 . S
Eu169 O184 2.349 . S
Eu169 O187 2.392 . S
Eu169 O188 2.418 . S
Eu169 C198 2.828 . S
C170 O188 1.244 . S
C170 O191 1.265 . S
C171 C172 1.379 . S
C171 C175 1.373 . S
C171 C177 1.505 1_554 S
C172 C171 1.379 . S
C172 C174 1.369 . S
C172 H200 0.930 . S
C173 C175 1.383 . S
C173 C176 1.382 . S
C173 H201 0.930 . S
C174 C172 1.369 . S
C174 C176 1.392 . S
C174 H202 0.930 . S
C175 C171 1.373 . S
C175 C173 1.383 . S
C175 H203 0.931 . S
C176 C173 1.382 . S
C176 C174 1.392 . S
C177 Eu168 2.828 . S
C177 C171 1.505 1_556 S
C177 O189 1.249 . S
C177 O190 1.244 . S
O178 Eu169 2.373 . S
O178 C180 1.258 . S
O179 Eu168 2.392 . S
O179 C180 1.242 . S
C180 O178 1.258 . S
C180 O179 1.242 . S
O181 Eu168 2.418 . S
O181 C185 1.244 . S
O182 Eu169 2.488 . S
O182 C198 1.249 . S
O183 Eu169 2.471 . S
O183 C198 1.244 . S
O184 Eu169 2.349 . S
O184 C185 1.265 . S
C185 O181 1.244 . S
C185 O184 1.265 . S
O186 Eu168 2.373 . S
O186 C199 1.258 . S
O187 Eu169 2.392 . S
O187 C199 1.242 . S
O188 Eu169 2.418 . S
O188 C170 1.244 . S
O189 Eu168 2.488 . S
O189 C177 1.249 . S
O190 Eu168 2.471 . S
O190 C177 1.244 . S
O191 Eu168 2.349 . S
O191 C170 1.265 . S
C192 C193 1.379 . S
C192 C196 1.373 . S
C192 C198 1.505 . S
C193 C192 1.379 . S
C193 C195 1.369 . S
C193 H204 0.930 . S
C194 C196 1.383 . S
C194 C197 1.382 . S
C194 H205 0.930 . S
C195 C193 1.369 . S
C195 C197 1.392 . S
C195 H206 0.930 . S
C196 C192 1.373 . S
C196 C194 1.383 . S
C196 H207 0.931 . S
C197 C194 1.382 . S
C197 C195 1.392 . S
C198 Eu169 2.828 . S
C198 O182 1.249 . S
C198 O183 1.244 . S
C198 C192 1.505 . S
C199 O186 1.258 . S
C199 O187 1.242 . S
H200 C172 0.930 . S
H201 C173 0.930 . S
H202 C174 0.930 . S
H203 C175 0.931 . S
H204 C193 0.930 . S
H205 C194 0.930 . S
H206 C195 0.930 . S
H207 C196 0.931 . S
Eu208 C217 2.828 . S
Eu208 O219 2.392 . S
Eu208 O221 2.418 1_455 S
Eu208 O226 2.373 . S
Eu208 O229 2.488 . S
Eu208 O230 2.471 . S
Eu208 O231 2.349 . S
Eu209 O218 2.373 . S
Eu209 O222 2.488 1_556 S
Eu209 O223 2.471 . S
Eu209 O224 2.349 . S
Eu209 O227 2.392 1_655 S
Eu209 O228 2.418 1_655 S
Eu209 C238 2.828 1_556 S
C210 O228 1.244 . S
C210 O231 1.265 . S
C211 C212 1.379 . S
C211 C215 1.373 . S
C211 C217 1.505 . S
C212 C211 1.379 . S
C212 C214 1.369 . S
C212 H240 0.930 . S
C213 C215 1.383 . S
C213 C216 1.382 . S
C213 H241 0.930 . S
C214 C212 1.369 . S
C214 C216 1.392 . S
C214 H242 0.930 . S
C215 C211 1.373 . S
C215 C213 1.383 . S
C215 H243 0.931 . S
C216 C213 1.382 . S
C216 C214 1.392 . S
C217 Eu208 2.828 . S
C217 C211 1.505 . S
C217 O229 1.249 . S
C217 O230 1.244 . S
O218 Eu209 2.373 . S
O218 C220 1.262 . S
O219 Eu208 2.392 . S
O219 C220 1.231 1_455 S
C220 O218 1.262 . S
C220 O219 1.231 1_655 S
O221 Eu208 2.418 1_655 S
O221 C225 1.244 . S
O222 Eu209 2.488 1_554 S
O222 C238 1.249 . S
O223 Eu209 2.471 . S
O223 C238 1.244 1_556 S
O224 Eu209 2.349 . S
O224 C225 1.265 . S
C225 O221 1.244 . S
C225 O224 1.265 . S
O226 Eu208 2.373 . S
O226 C239 1.258 . S
O227 Eu209 2.392 1_455 S
O227 C239 1.242 . S
O228 Eu209 2.418 1_455 S
O228 C210 1.244 . S
O229 Eu208 2.488 . S
O229 C217 1.249 . S
O230 Eu208 2.471 . S
O230 C217 1.244 . S
O231 Eu208 2.349 . S
O231 C210 1.265 . S
C232 C233 1.379 . S
C232 C236 1.373 . S
C232 C238 1.505 . S
C233 C232 1.379 . S
C233 C235 1.369 . S
C233 H244 0.930 . S
C234 C236 1.383 . S
C234 C237 1.382 . S
C234 H245 0.930 . S
C235 C233 1.369 . S
C235 C237 1.392 . S
C235 H246 0.930 . S
C236 C232 1.373 . S
C236 C234 1.383 . S
C236 H247 0.931 . S
C237 C234 1.382 . S
C237 C235 1.392 . S
C238 Eu209 2.828 1_554 S
C238 O222 1.249 . S
C238 O223 1.244 1_554 S
C238 C232 1.505 . S
C239 O226 1.258 . S
C239 O227 1.242 . S
H240 C212 0.930 . S
H241 C213 0.930 . S
H242 C214 0.930 . S
H243 C215 0.931 . S
H244 C233 0.930 . S
H245 C234 0.930 . S
H246 C235 0.930 . S
H247 C236 0.931 . S
C248 C249 1.369 . S
C248 C250 1.419 . S
C248 H252 0.930 . S
C249 C248 1.369 . S
C249 C258 1.429 . S
C250 C248 1.419 . S
C250 C251 1.363 . S
C250 H253 0.929 . S
C251 C250 1.363 . S
C251 C257 1.428 . S
H252 C248 0.930 . S
H253 C250 0.929 . S
S254 N255 1.613 . S
S254 N256 1.610 . S
N255 S254 1.613 . S
N255 C258 1.350 1_565 S
N256 S254 1.610 . S
N256 C257 1.351 1_565 S
C257 C251 1.428 . S
C257 N256 1.351 1_545 S
C257 C258 1.434 . S
C258 C249 1.429 . S
C258 N255 1.350 1_545 S
C258 C257 1.434 . S
C259 C260 1.369 . S
C259 C261 1.419 . S
C259 H263 0.930 . S
C260 C259 1.369 . S
C260 C269 1.429 . S
C261 C259 1.419 . S
C261 C262 1.363 . S
C261 H264 0.929 . S
C262 C261 1.363 . S
C262 C268 1.428 . S
H263 C259 0.930 . S
H264 C261 0.929 . S
S265 N266 1.613 . S
S265 N267 1.610 . S
N266 S265 1.613 . S
N266 C269 1.350 . S
N267 S265 1.610 . S
N267 C268 1.351 . S
C268 C262 1.428 . S
C268 N267 1.351 . S
C268 C269 1.434 . S
C269 C260 1.429 . S
C269 N266 1.350 . S
C269 C268 1.434 . S
C270 C271 1.369 . S
C270 C272 1.419 . S
C270 H274 0.930 . S
C271 C270 1.369 . S
C271 C280 1.429 . S
C272 C270 1.419 . S
C272 C273 1.363 . S
C272 H275 0.929 . S
C273 C272 1.363 . S
C273 C279 1.428 . S
H274 C270 0.930 . S
H275 C272 0.929 . S
S276 N277 1.613 . S
S276 N278 1.610 . S
N277 S276 1.613 . S
N277 C280 1.350 . S
N278 S276 1.610 . S
N278 C279 1.351 . S
C279 C273 1.428 . S
C279 N278 1.351 . S
C279 C280 1.434 . S
C280 C271 1.429 . S
C280 N277 1.350 . S
C280 C279 1.434 . S
C281 C282 1.369 . S
C281 C283 1.419 . S
C281 H285 0.930 1_455 S
C282 C281 1.369 . S
C282 C291 1.429 . S
C283 C281 1.419 . S
C283 C284 1.363 . S
C283 H286 0.929 1_455 S
C284 C283 1.363 . S
C284 C290 1.428 . S
H285 C281 0.930 1_655 S
H286 C283 0.929 1_655 S
S287 N288 1.613 . S
S287 N289 1.610 . S
N288 S287 1.613 . S
N288 C291 1.350 . S
N289 S287 1.610 . S
N289 C290 1.351 . S
C290 C284 1.428 . S
C290 N289 1.351 . S
C290 C291 1.434 . S
C291 C282 1.429 . S
C291 N288 1.350 . S
C291 C290 1.434 . S
C292 C293 1.369 1_545 S
C292 C294 1.419 . S
C292 H296 0.930 . S
C293 C292 1.369 1_565 S
C293 C302 1.429 . S
C294 C292 1.419 . S
C294 C295 1.363 1_545 S
C294 H297 0.929 . S
C295 C294 1.363 1_565 S
C295 C301 1.428 . S
H296 C292 0.930 . S
H297 C294 0.929 . S
S298 N299 1.613 . S
S298 N300 1.610 . S
N299 S298 1.613 . S
N299 C302 1.350 . S
N300 S298 1.610 . S
N300 C301 1.351 . S
C301 C295 1.428 . S
C301 N300 1.351 . S
C301 C302 1.434 . S
C302 C293 1.429 . S
C302 N299 1.350 . S
C302 C301 1.434 . S
C303 C304 1.369 . S
C303 C305 1.419 . S
C303 H307 0.930 . S
C304 C303 1.369 . S
C304 C313 1.429 . S
C305 C303 1.419 . S
C305 C306 1.363 . S
C305 H308 0.929 . S
C306 C305 1.363 . S
C306 C312 1.428 . S
H307 C303 0.930 . S
H308 C305 0.929 . S
S309 N310 1.613 . S
S309 N311 1.610 1_554 S
N310 S309 1.613 . S
N310 C313 1.350 . S
N311 S309 1.610 1_556 S
N311 C312 1.351 1_556 S
C312 C306 1.428 . S
C312 N311 1.351 1_554 S
C312 C313 1.434 . S
C313 C304 1.429 . S
C313 N310 1.350 . S
C313 C312 1.434 . S
C314 C315 1.369 . S
C314 C316 1.419 . S
C314 H318 0.930 . S
C315 C314 1.369 . S
C315 C324 1.429 . S
C316 C314 1.419 . S
C316 C317 1.363 . S
C316 H319 0.929 . S
C317 C316 1.363 . S
C317 C323 1.428 . S
H318 C314 0.930 . S
H319 C316 0.929 . S
S320 N321 1.613 . S
S320 N322 1.610 1_554 S
N321 S320 1.613 . S
N321 C324 1.350 . S
N322 S320 1.610 1_556 S
N322 C323 1.351 1_556 S
C323 C317 1.428 . S
C323 N322 1.351 1_554 S
C323 C324 1.434 . S
C324 C315 1.429 . S
C324 N321 1.350 . S
C324 C323 1.434 . S
C325 C326 1.369 . S
C325 C327 1.419 . S
C325 H329 0.930 . S
C326 C325 1.369 . S
C326 C335 1.429 . S
C327 C325 1.419 . S
C327 C328 1.363 . S
C327 H330 0.929 . S
C328 C327 1.363 . S
C328 C334 1.428 . S
H329 C325 0.930 . S
H330 C327 0.929 . S
S331 N332 1.613 1_455 S
S331 N333 1.610 1_554 S
N332 S331 1.613 1_655 S
N332 C335 1.350 . S
N333 S331 1.610 1_556 S
N333 C334 1.351 1_456 S
C334 C328 1.428 . S
C334 N333 1.351 1_654 S
C334 C335 1.434 . S
C335 C326 1.429 . S
C335 N332 1.350 . S
C335 C334 1.434 . S
C336 C337 1.369 . S
C336 C338 1.419 . S
C336 H340 0.930 . S
C337 C336 1.369 . S
C337 C346 1.429 . S
C338 C336 1.419 . S
C338 C339 1.363 . S
C338 H341 0.929 . S
C339 C338 1.363 . S
C339 C345 1.428 . S
H340 C336 0.930 . S
H341 C338 0.929 . S
S342 N343 1.613 . S
S342 N344 1.610 . S
N343 S342 1.613 . S
N343 C346 1.350 . S
N344 S342 1.610 . S
N344 C345 1.351 . S
C345 C339 1.428 . S
C345 N344 1.351 . S
C345 C346 1.434 . S
C346 C337 1.429 . S
C346 N343 1.350 . S
C346 C345 1.434 . S
C347 C348 1.369 1_565 S
C347 C349 1.419 . S
C347 H351 0.930 . S
C348 C347 1.369 1_545 S
C348 C357 1.429 . S
C349 C347 1.419 . S
C349 C350 1.363 . S
C349 H352 0.929 . S
C350 C349 1.363 . S
C350 C356 1.428 1_565 S
H351 C347 0.930 . S
H352 C349 0.929 . S
S353 N354 1.613 . S
S353 N355 1.610 . S
N354 S353 1.613 . S
N354 C357 1.350 . S
N355 S353 1.610 . S
N355 C356 1.351 . S
C356 C350 1.428 1_545 S
C356 N355 1.351 . S
C356 C357 1.434 . S
C357 C348 1.429 . S
C357 N354 1.350 . S
C357 C356 1.434 . S
C358 C359 1.369 . S
C358 C360 1.419 . S
C358 H362 0.930 . S
C359 C358 1.369 . S
C359 C368 1.429 . S
C360 C358 1.419 . S
C360 C361 1.363 . S
C360 H363 0.929 . S
C361 C360 1.363 . S
C361 C367 1.428 . S
H362 C358 0.930 . S
H363 C360 0.929 . S
S364 N365 1.613 . S
S364 N366 1.610 . S
N365 S364 1.613 . S
N365 C368 1.350 . S
N366 S364 1.610 . S
N366 C367 1.351 . S
C367 C361 1.428 . S
C367 N366 1.351 . S
C367 C368 1.434 . S
C368 C359 1.429 . S
C368 N365 1.350 . S
C368 C367 1.434 . S
C369 C370 1.369 . S
C369 C371 1.419 . S
C369 H373 0.930 . S
C370 C369 1.369 . S
C370 C379 1.429 . S
C371 C369 1.419 . S
C371 C372 1.363 . S
C371 H374 0.929 . S
C372 C371 1.363 . S
C372 C378 1.428 . S
H373 C369 0.930 . S
H374 C371 0.929 . S
S375 N376 1.613 . S
S375 N377 1.610 . S
N376 S375 1.613 . S
N376 C379 1.350 . S
N377 S375 1.610 . S
N377 C378 1.351 . S
C378 C372 1.428 . S
C378 N377 1.351 . S
C378 C379 1.434 . S
C379 C370 1.429 . S
C379 N376 1.350 . S
C379 C378 1.434 . S
C380 C381 1.369 . S
C380 C382 1.419 . S
C380 H384 0.930 . S
C381 C380 1.369 . S
C381 C390 1.429 1_655 S
C382 C380 1.419 . S
C382 C383 1.363 1_655 S
C382 H385 0.929 . S
C383 C382 1.363 1_455 S
C383 C389 1.428 . S
H384 C380 0.930 . S
H385 C382 0.929 . S
S386 N387 1.613 . S
S386 N388 1.610 . S
N387 S386 1.613 . S
N387 C390 1.350 . S
N388 S386 1.610 . S
N388 C389 1.351 . S
C389 C383 1.428 . S
C389 N388 1.351 . S
C389 C390 1.434 . S
C390 C381 1.429 1_455 S
C390 N387 1.350 . S
C390 C389 1.434 . S
C391 C392 1.369 1_545 S
C391 C393 1.419 . S
C391 H395 0.930 . S
C392 C391 1.369 1_565 S
C392 C401 1.429 . S
C393 C391 1.419 . S
C393 C394 1.363 . S
C393 H396 0.929 . S
C394 C393 1.363 . S
C394 C400 1.428 . S
H395 C391 0.930 . S
H396 C393 0.929 . S
S397 N398 1.613 . S
S397 N399 1.610 . S
N398 S397 1.613 . S
N398 C401 1.350 . S
N399 S397 1.610 . S
N399 C400 1.351 1_565 S
C400 C394 1.428 . S
C400 N399 1.351 1_545 S
C400 C401 1.434 1_545 S
C401 C392 1.429 . S
C401 N398 1.350 . S
C401 C400 1.434 1_565 S
C402 C403 1.369 . S
C402 C404 1.419 . S
C402 H406 0.930 . S
C403 C402 1.369 . S
C403 C412 1.429 . S
C404 C402 1.419 . S
C404 C405 1.363 . S
C404 H407 0.929 . S
C405 C404 1.363 . S
C405 C411 1.428 . S
H406 C402 0.930 . S
H407 C404 0.929 . S
S408 N409 1.613 . S
S408 N410 1.610 . S
N409 S408 1.613 . S
N409 C412 1.350 . S
N410 S408 1.610 . S
N410 C411 1.351 . S
C411 C405 1.428 . S
C411 N410 1.351 . S
C411 C412 1.434 . S
C412 C403 1.429 . S
C412 N409 1.350 . S
C412 C411 1.434 . S
C413 C414 1.369 . S
C413 C415 1.419 . S
C413 H417 0.930 . S
C414 C413 1.369 . S
C414 C423 1.429 . S
C415 C413 1.419 . S
C415 C416 1.363 . S
C415 H418 0.929 . S
C416 C415 1.363 . S
C416 C422 1.428 . S
H417 C413 0.930 . S
H418 C415 0.929 . S
S419 N420 1.613 . S
S419 N421 1.610 . S
N420 S419 1.613 . S
N420 C423 1.350 . S
N421 S419 1.610 . S
N421 C422 1.351 . S
C422 C416 1.428 . S
C422 N421 1.351 . S
C422 C423 1.434 . S
C423 C414 1.429 . S
C423 N420 1.350 . S
C423 C422 1.434 . S
C424 C425 1.369 . S
C424 C426 1.419 . S
C424 H428 0.930 1_455 S
C425 C424 1.369 . S
C425 C434 1.429 . S
C426 C424 1.419 . S
C426 C427 1.363 . S
C426 H429 0.929 1_455 S
C427 C426 1.363 . S
C427 C433 1.428 . S
H428 C424 0.930 1_655 S
H429 C426 0.929 1_655 S
S430 N431 1.613 . S
S430 N432 1.610 . S
N431 S430 1.613 . S
N431 C434 1.350 . S
N432 S430 1.610 . S
N432 C433 1.351 . S
C433 C427 1.428 . S
C433 N432 1.351 . S
C433 C434 1.434 . S
C434 C425 1.429 . S
C434 N431 1.350 . S
C434 C433 1.434 . S
C435 C436 1.369 . S
C435 C437 1.419 . S
C435 H439 0.930 . S
C436 C435 1.369 . S
C436 C445 1.429 . S
C437 C435 1.419 . S
C437 C438 1.363 . S
C437 H440 0.929 . S
C438 C437 1.363 . S
C438 C444 1.428 . S
H439 C435 0.930 . S
H440 C437 0.929 . S
S441 N442 1.613 . S
S441 N443 1.610 . S
N442 S441 1.613 . S
N442 C445 1.350 . S
N443 S441 1.610 . S
N443 C444 1.351 . S
C444 C438 1.428 . S
C444 N443 1.351 . S
C444 C445 1.434 . S
C445 C436 1.429 . S
C445 N442 1.350 . S
C445 C444 1.434 . S
C446 C447 1.369 . S
C446 C448 1.419 . S
C446 H450 0.930 . S
C447 C446 1.369 . S
C447 C456 1.429 . S
C448 C446 1.419 . S
C448 C449 1.363 . S
C448 H451 0.929 . S
C449 C448 1.363 . S
C449 C455 1.428 . S
H450 C446 0.930 . S
H451 C448 0.929 . S
S452 N453 1.613 . S
S452 N454 1.610 . S
N453 S452 1.613 . S
N453 C456 1.350 . S
N454 S452 1.610 . S
N454 C455 1.351 . S
C455 C449 1.428 . S
C455 N454 1.351 . S
C455 C456 1.434 . S
C456 C447 1.429 . S
C456 N453 1.350 . S
C456 C455 1.434 . S
C457 C458 1.369 . S
C457 C459 1.419 . S
C457 H461 0.930 . S
C458 C457 1.369 . S
C458 C467 1.429 . S
C459 C457 1.419 . S
C459 C460 1.363 . S
C459 H462 0.929 . S
C460 C459 1.363 . S
C460 C466 1.428 . S
H461 C457 0.930 . S
H462 C459 0.929 . S
S463 N464 1.613 . S
S463 N465 1.610 . S
N464 S463 1.613 . S
N464 C467 1.350 1_554 S
N465 S463 1.610 . S
N465 C466 1.351 1_554 S
C466 C460 1.428 . S
C466 N465 1.351 1_556 S
C466 C467 1.434 . S
C467 C458 1.429 . S
C467 N464 1.350 1_556 S
C467 C466 1.434 . S
C468 C469 1.369 . S
C468 C470 1.419 . S
C468 H472 0.930 . S
C469 C468 1.369 . S
C469 C478 1.429 . S
C470 C468 1.419 . S
C470 C471 1.363 . S
C470 H473 0.929 . S
C471 C470 1.363 . S
C471 C477 1.428 . S
H472 C468 0.930 . S
H473 C470 0.929 . S
S474 N475 1.613 1_455 S
S474 N476 1.610 . S
N475 S474 1.613 1_655 S
N475 C478 1.350 . S
N476 S474 1.610 . S
N476 C477 1.351 1_455 S
C477 C471 1.428 . S
C477 N476 1.351 1_655 S
C477 C478 1.434 . S
C478 C469 1.429 . S
C478 N475 1.350 . S
C478 C477 1.434 . S
C479 C480 1.369 . S
C479 C481 1.419 . S
C479 H483 0.930 . S
C480 C479 1.369 . S
C480 C489 1.429 1_565 S
C481 C479 1.419 . S
C481 C482 1.363 . S
C481 H484 0.929 . S
C482 C481 1.363 . S
C482 C488 1.428 1_565 S
H483 C479 0.930 . S
H484 C481 0.929 . S
S485 N486 1.613 . S
S485 N487 1.610 . S
N486 S485 1.613 . S
N486 C489 1.350 . S
N487 S485 1.610 . S
N487 C488 1.351 . S
C488 C482 1.428 1_545 S
C488 N487 1.351 . S
C488 C489 1.434 . S
C489 C480 1.429 1_545 S
C489 N486 1.350 . S
C489 C488 1.434 . S
C490 C491 1.369 . S
C490 C492 1.419 . S
C490 H494 0.930 . S
C491 C490 1.369 . S
C491 C500 1.429 . S
C492 C490 1.419 . S
C492 C493 1.363 . S
C492 H495 0.929 . S
C493 C492 1.363 . S
C493 C499 1.428 . S
H494 C490 0.930 . S
H495 C492 0.929 . S
S496 N497 1.613 . S
S496 N498 1.610 . S
N497 S496 1.613 . S
N497 C500 1.350 . S
N498 S496 1.610 . S
N498 C499 1.351 . S
C499 C493 1.428 . S
C499 N498 1.351 . S
C499 C500 1.434 . S
C500 C491 1.429 . S
C500 N497 1.350 . S
C500 C499 1.434 . S
C501 C502 1.369 . S
C501 C503 1.419 . S
C501 H505 0.930 . S
C502 C501 1.369 . S
C502 C511 1.429 . S
C503 C501 1.419 . S
C503 C504 1.363 . S
C503 H506 0.929 . S
C504 C503 1.363 . S
C504 C510 1.428 . S
H505 C501 0.930 . S
H506 C503 0.929 . S
S507 N508 1.613 . S
S507 N509 1.610 . S
N508 S507 1.613 . S
N508 C511 1.350 . S
N509 S507 1.610 . S
N509 C510 1.351 . S
C510 C504 1.428 . S
C510 N509 1.351 . S
C510 C511 1.434 . S
C511 C502 1.429 . S
C511 N508 1.350 . S
C511 C510 1.434 . S
C249 C76 2.214 . S
C251 C119 2.468 . S
C262 C145 2.193 . S
C260 C87 1.913 . S
C273 C185 2.187 . S
C271 C54 1.937 . S
C284 C239 2.458 . S
C282 C65 2.232 . S
C295 C100 2.469 1_554 S
C293 C32 2.218 . S
C304 C43 1.903 . S
C306 C130 2.194 1_554 S
C315 C10 1.945 . S
C317 C170 2.187 1_554 S
C326 C21 2.232 . S
C328 C220 2.467 1_554 S
C339 C96 0.866 1_455 S
C337 C60 0.875 . S
C350 C157 0.906 . S
C348 C71 0.936 . S
C361 C197 0.774 . S
C359 C82 0.764 . S
C370 C49 0.788 . S
C372 C216 0.776 . S
C381 C16 0.843 . S
C383 C117 0.883 . S
C394 C136 0.914 . S
C392 C27 0.929 . S
C405 C176 0.768 . S
C403 C38 0.772 . S
C414 C5 0.763 . S
C416 C237 0.791 . S
C425 C59 2.064 . S
C427 C90 2.400 . S
C436 C70 2.430 . S
C438 C140 2.713 . S
C449 C180 2.542 . S
C447 C81 2.266 . S
C460 C210 2.206 . S
C458 C48 1.885 . S
C469 C15 2.050 . S
C471 C105 2.402 . S
C482 C159 2.713 . S
C480 C26 2.425 . S
C493 C199 2.540 . S
C491 C37 2.282 . S
C502 C4 1.894 . S
C504 C225 2.204 . S
