# Generated by pormake.
# Topology nom, (4,4)-cn, num edge types: 1
# Building blocks:
#     Node 0, Type 0, BuildingBlock: GIZVER_clean_linker_0, # of connection points: 4
#     Node 1, Type 0, BuildingBlock: GIZVER_clean_linker_0, # of connection points: 4
#     Node 2, Type 0, BuildingBlock: GIZVER_clean_linker_0, # of connection points: 4
#     Node 3, Type 0, BuildingBlock: GIZVER_clean_linker_0, # of connection points: 4
#     Node 4, Type 0, BuildingBlock: GIZVER_clean_linker_0, # of connection points: 4
#     Node 5, Type 0, BuildingBlock: GIZVER_clean_linker_0, # of connection points: 4
#     Node 6, Type 1, BuildingBlock: QUQFOY_clean_sbu_1, # of connection points: 4
#     Node 7, Type 1, BuildingBlock: QUQFOY_clean_sbu_1, # of connection points: 4
#     Node 8, Type 1, BuildingBlock: QUQFOY_clean_sbu_1, # of connection points: 4
#     Node 9, Type 1, BuildingBlock: QUQFOY_clean_sbu_1, # of connection points: 4
#     Node 10, Type 1, BuildingBlock: QUQFOY_clean_sbu_1, # of connection points: 4
#     Node 11, Type 1, BuildingBlock: QUQFOY_clean_sbu_1, # of connection points: 4
#     Edge 12, Type (0, 1), BuildingBlock: EYOCIG_clean_linker_4, # of connection points: 2
#     Edge 13, Type (0, 1), BuildingBlock: EYOCIG_clean_linker_4, # of connection points: 2
#     Edge 14, Type (0, 1), BuildingBlock: EYOCIG_clean_linker_4, # of connection points: 2
#     Edge 15, Type (0, 1), BuildingBlock: EYOCIG_clean_linker_4, # of connection points: 2
#     Edge 16, Type (0, 1), BuildingBlock: EYOCIG_clean_linker_4, # of connection points: 2
#     Edge 17, Type (0, 1), BuildingBlock: EYOCIG_clean_linker_4, # of connection points: 2
#     Edge 18, Type (0, 1), BuildingBlock: EYOCIG_clean_linker_4, # of connection points: 2
#     Edge 19, Type (0, 1), BuildingBlock: EYOCIG_clean_linker_4, # of connection points: 2
#     Edge 20, Type (0, 1), BuildingBlock: EYOCIG_clean_linker_4, # of connection points: 2
#     Edge 21, Type (0, 1), BuildingBlock: EYOCIG_clean_linker_4, # of connection points: 2
#     Edge 22, Type (0, 1), BuildingBlock: EYOCIG_clean_linker_4, # of connection points: 2
#     Edge 23, Type (0, 1), BuildingBlock: EYOCIG_clean_linker_4, # of connection points: 2
#     Edge 24, Type (0, 1), BuildingBlock: EYOCIG_clean_linker_4, # of connection points: 2
#     Edge 25, Type (0, 1), BuildingBlock: EYOCIG_clean_linker_4, # of connection points: 2
#     Edge 26, Type (0, 1), BuildingBlock: EYOCIG_clean_linker_4, # of connection points: 2
#     Edge 27, Type (0, 1), BuildingBlock: EYOCIG_clean_linker_4, # of connection points: 2
#     Edge 28, Type (0, 1), BuildingBlock: EYOCIG_clean_linker_4, # of connection points: 2
#     Edge 29, Type (0, 1), BuildingBlock: EYOCIG_clean_linker_4, # of connection points: 2
#     Edge 30, Type (0, 1), BuildingBlock: EYOCIG_clean_linker_4, # of connection points: 2
#     Edge 31, Type (0, 1), BuildingBlock: EYOCIG_clean_linker_4, # of connection points: 2
#     Edge 32, Type (0, 1), BuildingBlock: EYOCIG_clean_linker_4, # of connection points: 2
#     Edge 33, Type (0, 1), BuildingBlock: EYOCIG_clean_linker_4, # of connection points: 2
#     Edge 34, Type (0, 1), BuildingBlock: EYOCIG_clean_linker_4, # of connection points: 2
#     Edge 35, Type (0, 1), BuildingBlock: EYOCIG_clean_linker_4, # of connection points: 2
# Relax obj value: 0.004
# Max RMSD: 0.082
# Mean RMSD: 0.077
data_MOF--net-nom--node1-QUQFOY_clean_sbu_1--node2-GIZVER_clean_linker_0--edge1-EYOCIG_clean_linker_4
_symmetry_space_group_name_H-M    P1
_symmetry_Int_Tables_number       1
_symmetry_cell_setting            triclinic
loop_
_symmetry_equiv_pos_as_xyz
'x, y, z'
_cell_length_a     37.394099
_cell_length_b     37.37968
_cell_length_c     38.247356
_cell_angle_alpha  89.974743
_cell_angle_beta   90.01061
_cell_angle_gamma 119.96112
loop_
_atom_site_label
_atom_site_type_symbol
_atom_site_fract_x
_atom_site_fract_y
_atom_site_fract_z
_atom_type_partial_charge
H0 H 0.99474 0.61653 0.31629 0.0
H1 H 1.03552 0.60158 0.21465 0.0
H2 H 0.91541 0.51192 0.25244 0.0
H3 H 0.05669 0.67207 0.29238 0.0
H4 H 0.06071 0.67309 0.24581 0.0
H5 H 0.08159 0.62509 0.32463 0.0
H6 H 0.20206 0.65571 0.28761 0.0
H7 H 0.12296 0.68057 0.22294 0.0
C8 C 0.9899 0.59842 0.29281 0.0
C9 C 0.95216 0.5619 0.28777 0.0
C10 C 1.02036 0.61288 0.26648 0.0
C11 C 1.01286 0.58995 0.23553 0.0
C12 C 0.9752 0.55349 0.23069 0.0
C13 C 0.94515 0.53939 0.25687 0.0
C14 C 0.0586 0.65479 0.26946 0.0
C15 C 0.09708 0.65153 0.27279 0.0
C16 C 0.10441 0.63615 0.30387 0.0
C17 C 0.14209 0.63744 0.309 0.0
C18 C 0.17232 0.65338 0.28296 0.0
C19 C 0.16545 0.66875 0.2519 0.0
C20 C 0.1277 0.66744 0.24657 0.0
H21 H 0.42324 0.98065 0.48325 0.0
H22 H 0.47898 1.02153 0.38163 0.0
H23 H 0.44819 0.90116 0.41923 0.0
H24 H 0.42991 0.04281 0.45951 0.0
H25 H 0.43275 0.04682 0.41294 0.0
H26 H 0.50182 0.06756 0.49154 0.0
H27 H 0.59161 0.18798 0.45437 0.0
H28 H 0.48749 0.109 0.38994 0.0
C29 C 0.43646 0.97579 0.45975 0.0
C30 C 0.43511 0.93797 0.45464 0.0
C31 C 0.45254 1.00632 0.43347 0.0
C32 C 0.46791 0.99881 0.40248 0.0
C33 C 0.46658 0.96107 0.39757 0.0
C34 C 0.45056 0.93095 0.42371 0.0
C35 C 0.44899 0.04466 0.43652 0.0
C36 C 0.49076 0.08309 0.43975 0.0
C37 C 0.51354 0.09037 0.47077 0.0
C38 C 0.54995 0.12802 0.47582 0.0
C39 C 0.56418 0.15826 0.44977 0.0
C40 C 0.54188 0.15143 0.41878 0.0
C41 C 0.50541 0.11371 0.41352 0.0
H42 H 0.42298 0.47334 0.55631 0.0
H43 H 0.47857 0.48778 0.65795 0.0
H44 H 0.4479 0.57756 0.6206 0.0
H45 H 0.42968 0.41779 0.57985 0.0
H46 H 0.43229 0.41638 0.62643 0.0
H47 H 0.50167 0.46488 0.54804 0.0
H48 H 0.59136 0.43415 0.58544 0.0
H49 H 0.48699 0.40893 0.6496 0.0
C50 C 0.43617 0.49133 0.57985 0.0
C51 C 0.43484 0.52779 0.58506 0.0
C52 C 0.4522 0.47676 0.60609 0.0
C53 C 0.46753 0.49951 0.63713 0.0
C54 C 0.46622 0.53592 0.64214 0.0
C55 C 0.45025 0.55014 0.61604 0.0
C56 C 0.44865 0.43488 0.60292 0.0
C57 C 0.49042 0.43819 0.59979 0.0
C58 C 0.51332 0.45374 0.56884 0.0
C59 C 0.54976 0.45249 0.56388 0.0
C60 C 0.56391 0.43645 0.58996 0.0
C61 C 0.54149 0.42092 0.6209 0.0
C62 C 0.50499 0.42217 0.62607 0.0
H63 H 0.99454 0.40887 0.72313 0.0
H64 H 1.03547 0.46408 0.8249 0.0
H65 H 0.9152 0.43365 0.78749 0.0
H66 H 0.05665 0.41534 0.74672 0.0
H67 H 0.06068 0.41794 0.7933 0.0
H68 H 0.08156 0.48734 0.71488 0.0
H69 H 0.20184 0.57705 0.75229 0.0
H70 H 0.12273 0.47267 0.81648 0.0
C71 C 0.98971 0.42199 0.74671 0.0
C72 C 0.95194 0.42067 0.75192 0.0
C73 C 1.02023 0.43789 0.77298 0.0
C74 C 1.01276 0.45313 0.80406 0.0
C75 C 0.97507 0.45184 0.80907 0.0
C76 C 0.94496 0.43599 0.78294 0.0
C77 C 0.05853 0.43432 0.7698 0.0
C78 C 0.09696 0.4761 0.76666 0.0
C79 C 0.10431 0.49899 0.73569 0.0
C80 C 0.14196 0.53544 0.73072 0.0
C81 C 0.17212 0.54959 0.75681 0.0
C82 C 0.16521 0.52718 0.78777 0.0
C83 C 0.12749 0.49067 0.79294 0.0
H84 H 0.69406 0.10829 -0.01675 0.0
H85 H 0.6386 0.06767 0.88152 0.0
H86 H 0.66923 0.18792 0.91921 0.0
H87 H 0.68753 0.04623 -0.04056 0.0
H88 H 0.68468 0.04224 0.91287 0.0
H89 H 0.61563 1.02151 -0.00853 0.0
H90 H 0.52576 0.90114 -0.04567 0.0
H91 H 0.62992 0.98009 0.88989 0.0
C92 C 0.6809 0.11321 -0.04027 0.0
C93 C 0.68224 0.15103 -0.04537 0.0
C94 C 0.66491 0.08275 0.9334 0.0
C95 C 0.64962 0.09033 0.90239 0.0
C96 C 0.65094 0.12807 0.8975 0.0
C97 C 0.66687 0.15812 0.92368 0.0
C98 C 0.66845 0.0444 0.93645 0.0
C99 C 0.62667 1.00599 0.93969 0.0
C100 C 0.6039 0.99871 -0.02929 0.0
C101 C 0.56746 0.96107 -0.02423 0.0
C102 C 0.5532 0.93085 -0.05027 0.0
C103 C 0.57551 0.93768 0.91873 0.0
C104 C 0.612 0.97538 0.91347 0.0
H105 H 0.69426 0.6159 0.05629 0.0
H106 H 0.63889 0.60154 0.15802 0.0
H107 H 0.6694 0.51169 0.12065 0.0
H108 H 0.68768 0.6715 0.07985 0.0
H109 H 0.68507 0.67291 0.12643 0.0
H110 H 0.61569 0.62443 0.04805 0.0
H111 H 0.52598 0.6551 0.08544 0.0
H112 H 0.63037 0.68033 0.14959 0.0
C113 C 0.68111 0.59793 0.07986 0.0
C114 C 0.68242 0.56145 0.08508 0.0
C115 C 0.66515 0.61253 0.10612 0.0
C116 C 0.64988 0.58979 0.13719 0.0
C117 C 0.65117 0.55337 0.14221 0.0
C118 C 0.66706 0.53912 0.11609 0.0
C119 C 0.66871 0.65441 0.10293 0.0
C120 C 0.62694 0.6511 0.0998 0.0
C121 C 0.60404 0.63556 0.06885 0.0
C122 C 0.5676 0.63679 0.06388 0.0
C123 C 0.55344 0.65282 0.08996 0.0
C124 C 0.57586 0.66833 0.1209 0.0
C125 C 0.61237 0.66709 0.12606 0.0
O126 O 0.61427 0.42833 0.39633 0.0
Cd127 Cd 0.62418 0.40467 0.35102 0.0
Cd128 Cd 0.69928 0.47991 0.35563 0.0
O129 O 0.6752 0.48485 0.40258 0.0
O130 O 0.58002 0.34552 0.35129 0.0
O131 O 0.64676 0.3659 0.35439 0.0
C132 C 0.60882 0.33637 0.35427 0.0
C133 C 0.76755 0.49528 0.35252 0.0
C134 C 0.63886 0.4605 0.41333 0.0
C135 C 0.64359 0.46498 0.29317 0.0
O136 O 0.67568 0.48968 0.31021 0.0
O137 O 0.6193 0.42863 0.30397 0.0
O138 O 0.7584 0.52409 0.35539 0.0
O139 O 0.73804 0.45732 0.35246 0.0
O140 O 0.23027 0.59993 0.56294 0.0
Cd141 Cd 0.26373 0.60991 0.51756 0.0
Cd142 Cd 0.2637 0.68506 0.52237 0.0
O143 O 0.23481 0.66095 0.56936 0.0
O144 O 0.27879 0.56576 0.51768 0.0
O145 O 0.32505 0.63253 0.52083 0.0
C146 C 0.31669 0.59458 0.52065 0.0
C147 C 0.31672 0.75328 0.51925 0.0
C148 C 0.22279 0.62455 0.58005 0.0
C149 C 0.22278 0.62952 0.4599 0.0
O150 O 0.23023 0.6616 0.477 0.0
O151 O 0.23483 0.60516 0.47059 0.0
O152 O 0.27884 0.74428 0.52224 0.0
O153 O 0.32503 0.72365 0.51908 0.0
O154 O 0.67542 0.21661 0.72967 0.0
Cd155 Cd 0.69899 0.24998 0.68424 0.0
Cd156 Cd 0.6238 0.25 0.68883 0.0
O157 O 0.61895 0.22117 0.73588 0.0
O158 O 0.75814 0.26495 0.68448 0.0
O159 O 0.7377 0.31131 0.6874 0.0
C160 C 0.76724 0.30289 0.68734 0.0
C161 C 0.60837 0.3029 0.68556 0.0
C162 C 0.6433 0.20917 0.74669 0.0
C163 C 0.63861 0.20892 0.62653 0.0
O164 O 0.61396 0.21645 0.64353 0.0
O165 O 0.67496 0.22096 0.6373 0.0
O166 O 0.5796 0.26497 0.68855 0.0
O167 O 0.64633 0.31132 0.68546 0.0
O168 O 0.5032 0.66088 0.89622 0.0
Cd169 Cd 0.4933 0.68456 0.85089 0.0
Cd170 Cd 0.41821 0.60933 0.8555 0.0
O171 O 0.44226 0.60437 0.90247 0.0
O172 O 0.53742 0.74373 0.85116 0.0
O173 O 0.47068 0.72329 0.85424 0.0
C174 C 0.50861 0.75284 0.85414 0.0
C175 C 0.34994 0.59396 0.85236 0.0
C176 C 0.4786 0.62871 0.91323 0.0
C177 C 0.47392 0.62429 0.79306 0.0
O178 O 0.44183 0.59958 0.8101 0.0
O179 O 0.49821 0.66064 0.80385 0.0
O180 O 0.35909 0.56515 0.85526 0.0
O181 O 0.37946 0.63192 0.85229 0.0
O182 O 0.88673 0.42737 -0.02294 0.0
Cd183 Cd 0.85328 0.40386 0.02244 0.0
Cd184 Cd 0.85322 0.47903 0.01761 0.0
O185 O 0.88212 0.48381 -0.02936 0.0
O186 O 0.83821 0.34467 0.02231 0.0
O187 O 0.79196 0.36522 0.01916 0.0
C188 C 0.80032 0.33562 0.01933 0.0
C189 C 0.80031 0.49443 0.02068 0.0
C190 C 0.89417 0.45946 -0.04005 0.0
C191 C 0.89416 0.46434 0.0801 0.0
O192 O 0.88667 0.48896 0.063 0.0
O193 O 0.88217 0.42796 0.06942 0.0
O194 O 0.83822 0.52322 0.01772 0.0
O195 O 0.79191 0.45647 0.02087 0.0
O196 O 0.50357 0.87286 0.14361 0.0
Cd197 Cd 0.49374 0.83932 0.18894 0.0
Cd198 Cd 0.41858 0.8394 0.18438 0.0
O199 O 0.44258 0.86839 0.1374 0.0
O200 O 0.5379 0.82428 0.18863 0.0
O201 O 0.47116 0.77799 0.18559 0.0
C202 C 0.5091 0.78637 0.18566 0.0
C203 C 0.35031 0.78652 0.18751 0.0
C204 C 0.47891 0.88039 0.12661 0.0
C205 C 0.47433 0.88017 0.24679 0.0
O206 O 0.4422 0.87275 0.22978 0.0
O207 O 0.49866 0.86815 0.23597 0.0
O208 O 0.35945 0.82447 0.18464 0.0
O209 O 0.37984 0.77807 0.18758 0.0
C210 C 0.2314 0.70754 0.21185 0.0
C211 C 0.19955 0.69046 0.22813 0.0
C212 C 0.27222 0.73147 0.19933 0.0
C213 C 0.30833 0.75515 0.19395 0.0
C214 C 0.56895 0.21742 0.37871 0.0
C215 C 0.55422 0.18555 0.39501 0.0
C216 C 0.58581 0.25825 0.36618 0.0
C217 C 0.59821 0.29437 0.36077 0.0
C218 C 0.39587 0.55477 0.54496 0.0
C219 C 0.41303 0.54007 0.56127 0.0
C220 C 0.37184 0.5716 0.53244 0.0
C221 C 0.3481 0.58398 0.52708 0.0
C222 C 0.88611 0.38191 0.71173 0.0
C223 C 0.91792 0.39898 0.72807 0.0
C224 C 0.84531 0.35797 0.69918 0.0
C225 C 0.80922 0.33428 0.69379 0.0
C226 C 0.54841 0.87173 0.87866 0.0
C227 C 0.56314 0.90357 0.89497 0.0
C228 C 0.53156 0.83092 0.86609 0.0
C229 C 0.51918 0.79482 0.86066 0.0
C230 C 0.72126 0.53438 0.04495 0.0
C231 C 0.70416 0.54913 0.06126 0.0
C232 C 0.74523 0.5175 0.03244 0.0
C233 C 0.76893 0.50507 0.0271 0.0
C234 C 0.39604 0.87213 0.49482 0.0
C235 C 0.41325 0.90395 0.47847 0.0
C236 C 0.37196 0.83133 0.50738 0.0
C237 C 0.34817 0.79524 0.51278 0.0
C238 C 0.56846 0.38196 0.66104 0.0
C239 C 0.55377 0.39911 0.6447 0.0
C240 C 0.58531 0.35798 0.67361 0.0
C241 C 0.59773 0.33427 0.67904 0.0
C242 C 0.23107 0.55414 0.82792 0.0
C243 C 0.19926 0.53945 0.81158 0.0
C244 C 0.27186 0.57097 0.84049 0.0
C245 C 0.30796 0.58337 0.84589 0.0
C246 C 0.72116 0.21677 -0.00511 0.0
C247 C 0.70402 0.18499 -0.02149 0.0
C248 C 0.74517 0.25756 0.00747 0.0
C249 C 0.76891 0.29365 0.01286 0.0
C250 C 0.54889 0.70726 0.16104 0.0
C251 C 0.56358 0.69012 0.14469 0.0
C252 C 0.53208 0.73125 0.17365 0.0
C253 C 0.51969 0.75497 0.17911 0.0
C254 C 0.88641 0.53507 0.32803 0.0
C255 C 0.91819 0.54971 0.31164 0.0
C256 C 0.84563 0.51827 0.34063 0.0
C257 C 0.80954 0.50588 0.34604 0.0
C258 C 0.16407 0.6201 0.36932 0.0
C259 C 0.15225 0.62743 0.34245 0.0
C260 C 0.18256 0.61812 0.40076 0.0
C261 C 0.20098 0.62148 0.42748 0.0
C262 C 0.58939 0.15001 0.53606 0.0
C263 C 0.57017 0.13818 0.50923 0.0
C264 C 0.6099 0.16856 0.56746 0.0
C265 C 0.62493 0.18704 0.59415 0.0
C266 C 0.48353 0.57532 0.70239 0.0
C267 C 0.4762 0.55615 0.67555 0.0
C268 C 0.48548 0.59574 0.73385 0.0
C269 C 0.48207 0.6107 0.7606 0.0
C270 C 0.95289 0.469 0.86936 0.0
C271 C 0.96477 0.46174 0.8425 0.0
C272 C 0.93437 0.47092 0.9008 0.0
C273 C 0.91596 0.46753 0.92752 0.0
C274 C 0.52805 0.93914 0.03602 0.0
C275 C 0.54724 0.95092 0.00918 0.0
C276 C 0.50757 0.92066 0.06747 0.0
C277 C 0.49256 0.90223 0.09419 0.0
C278 C 0.63394 0.51399 0.20249 0.0
C279 C 0.64124 0.53315 0.17563 0.0
C280 C 0.63202 0.49356 0.23396 0.0
C281 C 0.63545 0.4786 0.26071 0.0
C282 C 0.48392 0.93884 0.3374 0.0
C283 C 0.47657 0.95073 0.36421 0.0
C284 C 0.48589 0.92031 0.30597 0.0
C285 C 0.48248 0.90193 0.27923 0.0
C286 C 0.58941 0.47005 0.50374 0.0
C287 C 0.57011 0.46262 0.53052 0.0
C288 C 0.61002 0.47207 0.47237 0.0
C289 C 0.62512 0.46867 0.4457 0.0
C290 C 0.16403 0.57508 0.67055 0.0
C291 C 0.15219 0.55579 0.69735 0.0
C292 C 0.18255 0.59568 0.63916 0.0
C293 C 0.20098 0.61078 0.61246 0.0
C294 C 0.6337 0.15043 0.83731 0.0
C295 C 0.64101 0.13849 0.86413 0.0
C296 C 0.63177 0.16898 0.80588 0.0
C297 C 0.63517 0.18738 0.77914 0.0
C298 C 0.52796 0.61921 0.00373 0.0
C299 C 0.54725 0.62666 0.03052 0.0
C300 C 0.50738 0.61717 -0.02766 0.0
C301 C 0.49231 0.62056 -0.05436 0.0
C302 C 0.95295 0.51377 0.17059 0.0
C303 C 0.96485 0.53308 0.19736 0.0
C304 C 0.9344 0.49318 0.13921 0.0
C305 C 0.91598 0.47809 0.11251 0.0
loop_
_geom_bond_atom_site_label_1
_geom_bond_atom_site_label_2
_geom_bond_distance
_geom_bond_site_symmetry_2
_ccdc_geom_bond_type
H0 C8 0.930 . S
H1 C11 0.930 . S
H2 C13 0.930 . S
H3 C14 0.970 . S
H4 C14 0.970 . S
H5 C16 0.930 . S
H6 C18 0.930 . S
H7 C20 0.930 . S
C8 H0 0.930 . S
C8 C9 1.382 . S
C8 C10 1.426 . S
C9 C8 1.382 . S
C9 C13 1.389 . S
C10 C8 1.426 . S
C10 C11 1.375 . S
C10 C14 1.532 1_655 S
C11 H1 0.930 . S
C11 C10 1.375 . S
C11 C12 1.416 . S
C12 C11 1.416 . S
C12 C13 1.371 . S
C13 H2 0.930 . S
C13 C9 1.389 . S
C13 C12 1.371 . S
C14 H3 0.970 . S
C14 H4 0.970 . S
C14 C10 1.532 1_455 S
C14 C15 1.499 . S
C15 C14 1.499 . S
C15 C16 1.370 . S
C15 C20 1.415 . S
C16 H5 0.930 . S
C16 C15 1.370 . S
C16 C17 1.407 . S
C17 C16 1.407 . S
C17 C18 1.365 . S
C18 H6 0.930 . S
C18 C17 1.365 . S
C18 C19 1.393 . S
C19 C18 1.393 . S
C19 C20 1.387 . S
C20 H7 0.930 . S
C20 C15 1.415 . S
C20 C19 1.387 . S
H21 C29 0.930 . S
H22 C32 0.930 . S
H23 C34 0.930 . S
H24 C35 0.970 . S
H25 C35 0.970 . S
H26 C37 0.930 . S
H27 C39 0.930 . S
H28 C41 0.930 . S
C29 H21 0.930 . S
C29 C30 1.382 . S
C29 C31 1.426 . S
C30 C29 1.382 . S
C30 C34 1.389 . S
C31 C29 1.426 . S
C31 C32 1.375 . S
C31 C35 1.532 1_565 S
C32 H22 0.930 . S
C32 C31 1.375 . S
C32 C33 1.416 . S
C33 C32 1.416 . S
C33 C34 1.371 . S
C34 H23 0.930 . S
C34 C30 1.389 . S
C34 C33 1.371 . S
C35 H24 0.970 . S
C35 H25 0.970 . S
C35 C31 1.532 1_545 S
C35 C36 1.499 . S
C36 C35 1.499 . S
C36 C37 1.370 . S
C36 C41 1.415 . S
C37 H26 0.930 . S
C37 C36 1.370 . S
C37 C38 1.407 . S
C38 C37 1.407 . S
C38 C39 1.365 . S
C39 H27 0.930 . S
C39 C38 1.365 . S
C39 C40 1.393 . S
C40 C39 1.393 . S
C40 C41 1.387 . S
C41 H28 0.930 . S
C41 C36 1.415 . S
C41 C40 1.387 . S
H42 C50 0.930 . S
H43 C53 0.930 . S
H44 C55 0.930 . S
H45 C56 0.970 . S
H46 C56 0.970 . S
H47 C58 0.930 . S
H48 C60 0.930 . S
H49 C62 0.930 . S
C50 H42 0.930 . S
C50 C51 1.382 . S
C50 C52 1.426 . S
C51 C50 1.382 . S
C51 C55 1.389 . S
C52 C50 1.426 . S
C52 C53 1.375 . S
C52 C56 1.532 . S
C53 H43 0.930 . S
C53 C52 1.375 . S
C53 C54 1.416 . S
C54 C53 1.416 . S
C54 C55 1.371 . S
C55 H44 0.930 . S
C55 C51 1.389 . S
C55 C54 1.371 . S
C56 H45 0.970 . S
C56 H46 0.970 . S
C56 C52 1.532 . S
C56 C57 1.499 . S
C57 C56 1.499 . S
C57 C58 1.370 . S
C57 C62 1.415 . S
C58 H47 0.930 . S
C58 C57 1.370 . S
C58 C59 1.407 . S
C59 C58 1.407 . S
C59 C60 1.365 . S
C60 H48 0.930 . S
C60 C59 1.365 . S
C60 C61 1.393 . S
C61 C60 1.393 . S
C61 C62 1.387 . S
C62 H49 0.930 . S
C62 C57 1.415 . S
C62 C61 1.387 . S
H63 C71 0.930 . S
H64 C74 0.930 . S
H65 C76 0.930 . S
H66 C77 0.970 . S
H67 C77 0.970 . S
H68 C79 0.930 . S
H69 C81 0.930 . S
H70 C83 0.930 . S
C71 H63 0.930 . S
C71 C72 1.382 . S
C71 C73 1.426 . S
C72 C71 1.382 . S
C72 C76 1.389 . S
C73 C71 1.426 . S
C73 C74 1.375 . S
C73 C77 1.532 1_655 S
C74 H64 0.930 . S
C74 C73 1.375 . S
C74 C75 1.416 . S
C75 C74 1.416 . S
C75 C76 1.371 . S
C76 H65 0.930 . S
C76 C72 1.389 . S
C76 C75 1.371 . S
C77 H66 0.970 . S
C77 H67 0.970 . S
C77 C73 1.532 1_455 S
C77 C78 1.499 . S
C78 C77 1.499 . S
C78 C79 1.370 . S
C78 C83 1.415 . S
C79 H68 0.930 . S
C79 C78 1.370 . S
C79 C80 1.407 . S
C80 C79 1.407 . S
C80 C81 1.365 . S
C81 H69 0.930 . S
C81 C80 1.365 . S
C81 C82 1.393 . S
C82 C81 1.393 . S
C82 C83 1.387 . S
C83 H70 0.930 . S
C83 C78 1.415 . S
C83 C82 1.387 . S
H84 C92 0.930 . S
H85 C95 0.930 . S
H86 C97 0.930 . S
H87 C98 0.970 1_554 S
H88 C98 0.970 . S
H89 C100 0.930 . S
H90 C102 0.930 . S
H91 C104 0.930 . S
C92 H84 0.930 . S
C92 C93 1.382 . S
C92 C94 1.426 1_554 S
C93 C92 1.382 . S
C93 C97 1.389 1_554 S
C94 C92 1.426 1_556 S
C94 C95 1.375 . S
C94 C98 1.532 . S
C95 H85 0.930 . S
C95 C94 1.375 . S
C95 C96 1.416 . S
C96 C95 1.416 . S
C96 C97 1.371 . S
C97 H86 0.930 . S
C97 C93 1.389 1_556 S
C97 C96 1.371 . S
C98 H87 0.970 1_556 S
C98 H88 0.970 . S
C98 C94 1.532 . S
C98 C99 1.499 1_546 S
C99 C98 1.499 1_564 S
C99 C100 1.370 . S
C99 C104 1.415 1_554 S
C100 H89 0.930 . S
C100 C99 1.370 . S
C100 C101 1.407 . S
C101 C100 1.407 . S
C101 C102 1.365 . S
C102 H90 0.930 . S
C102 C101 1.365 . S
C102 C103 1.393 1_554 S
C103 C102 1.393 1_556 S
C103 C104 1.387 . S
C104 H91 0.930 . S
C104 C99 1.415 1_556 S
C104 C103 1.387 . S
H105 C113 0.930 . S
H106 C116 0.930 . S
H107 C118 0.930 . S
H108 C119 0.970 . S
H109 C119 0.970 . S
H110 C121 0.930 . S
H111 C123 0.930 . S
H112 C125 0.930 . S
C113 H105 0.930 . S
C113 C114 1.382 . S
C113 C115 1.426 . S
C114 C113 1.382 . S
C114 C118 1.389 . S
C115 C113 1.426 . S
C115 C116 1.375 . S
C115 C119 1.532 . S
C116 H106 0.930 . S
C116 C115 1.375 . S
C116 C117 1.416 . S
C117 C116 1.416 . S
C117 C118 1.371 . S
C118 H107 0.930 . S
C118 C114 1.389 . S
C118 C117 1.371 . S
C119 H108 0.970 . S
C119 H109 0.970 . S
C119 C115 1.532 . S
C119 C120 1.499 . S
C120 C119 1.499 . S
C120 C121 1.370 . S
C120 C125 1.415 . S
C121 H110 0.930 . S
C121 C120 1.370 . S
C121 C122 1.407 . S
C122 C121 1.407 . S
C122 C123 1.365 . S
C123 H111 0.930 . S
C123 C122 1.365 . S
C123 C124 1.393 . S
C124 C123 1.393 . S
C124 C125 1.387 . S
C125 H112 0.930 . S
C125 C120 1.415 . S
C125 C124 1.387 . S
O126 Cd127 2.223 . S
O126 C134 1.315 . S
Cd127 O126 2.223 . S
Cd127 O130 2.297 . S
Cd127 O131 2.439 . S
Cd127 O137 2.240 . S
Cd128 O129 2.240 . S
Cd128 O136 2.223 . S
Cd128 O138 2.297 . S
Cd128 O139 2.439 . S
O129 Cd128 2.240 . S
O129 C134 1.279 . S
O130 Cd127 2.297 . S
O130 C132 1.247 . S
O131 Cd127 2.439 . S
O131 C132 1.208 . S
C132 O130 1.247 . S
C132 O131 1.208 . S
C133 O138 1.247 . S
C133 O139 1.208 . S
C134 O126 1.315 . S
C134 O129 1.279 . S
C135 O136 1.315 . S
C135 O137 1.279 . S
O136 Cd128 2.223 . S
O136 C135 1.315 . S
O137 Cd127 2.240 . S
O137 C135 1.279 . S
O138 Cd128 2.297 . S
O138 C133 1.247 . S
O139 Cd128 2.439 . S
O139 C133 1.208 . S
O140 Cd141 2.223 . S
O140 C148 1.315 . S
Cd141 O140 2.223 . S
Cd141 O144 2.297 . S
Cd141 O145 2.439 . S
Cd141 O151 2.240 . S
Cd142 O143 2.240 . S
Cd142 O150 2.223 . S
Cd142 O152 2.297 . S
Cd142 O153 2.439 . S
O143 Cd142 2.240 . S
O143 C148 1.279 . S
O144 Cd141 2.297 . S
O144 C146 1.247 . S
O145 Cd141 2.439 . S
O145 C146 1.208 . S
C146 O144 1.247 . S
C146 O145 1.208 . S
C147 O152 1.247 . S
C147 O153 1.208 . S
C148 O140 1.315 . S
C148 O143 1.279 . S
C149 O150 1.315 . S
C149 O151 1.279 . S
O150 Cd142 2.223 . S
O150 C149 1.315 . S
O151 Cd141 2.240 . S
O151 C149 1.279 . S
O152 Cd142 2.297 . S
O152 C147 1.247 . S
O153 Cd142 2.439 . S
O153 C147 1.208 . S
O154 Cd155 2.223 . S
O154 C162 1.315 . S
Cd155 O154 2.223 . S
Cd155 O158 2.297 . S
Cd155 O159 2.439 . S
Cd155 O165 2.240 . S
Cd156 O157 2.240 . S
Cd156 O164 2.223 . S
Cd156 O166 2.297 . S
Cd156 O167 2.439 . S
O157 Cd156 2.240 . S
O157 C162 1.279 . S
O158 Cd155 2.297 . S
O158 C160 1.247 . S
O159 Cd155 2.439 . S
O159 C160 1.208 . S
C160 O158 1.247 . S
C160 O159 1.208 . S
C161 O166 1.247 . S
C161 O167 1.208 . S
C162 O154 1.315 . S
C162 O157 1.279 . S
C163 O164 1.315 . S
C163 O165 1.279 . S
O164 Cd156 2.223 . S
O164 C163 1.315 . S
O165 Cd155 2.240 . S
O165 C163 1.279 . S
O166 Cd156 2.297 . S
O166 C161 1.247 . S
O167 Cd156 2.439 . S
O167 C161 1.208 . S
O168 Cd169 2.223 . S
O168 C176 1.315 . S
Cd169 O168 2.223 . S
Cd169 O172 2.297 . S
Cd169 O173 2.439 . S
Cd169 O179 2.240 . S
Cd170 O171 2.240 . S
Cd170 O178 2.223 . S
Cd170 O180 2.297 . S
Cd170 O181 2.439 . S
O171 Cd170 2.240 . S
O171 C176 1.279 . S
O172 Cd169 2.297 . S
O172 C174 1.247 . S
O173 Cd169 2.439 . S
O173 C174 1.208 . S
C174 O172 1.247 . S
C174 O173 1.208 . S
C175 O180 1.247 . S
C175 O181 1.208 . S
C176 O168 1.315 . S
C176 O171 1.279 . S
C177 O178 1.315 . S
C177 O179 1.279 . S
O178 Cd170 2.223 . S
O178 C177 1.315 . S
O179 Cd169 2.240 . S
O179 C177 1.279 . S
O180 Cd170 2.297 . S
O180 C175 1.247 . S
O181 Cd170 2.439 . S
O181 C175 1.208 . S
O182 Cd183 2.223 . S
O182 C190 1.315 . S
Cd183 O182 2.223 . S
Cd183 O186 2.297 . S
Cd183 O187 2.439 . S
Cd183 O193 2.240 . S
Cd184 O185 2.240 . S
Cd184 O192 2.223 . S
Cd184 O194 2.297 . S
Cd184 O195 2.439 . S
O185 Cd184 2.240 . S
O185 C190 1.279 . S
O186 Cd183 2.297 . S
O186 C188 1.247 . S
O187 Cd183 2.439 . S
O187 C188 1.208 . S
C188 O186 1.247 . S
C188 O187 1.208 . S
C189 O194 1.247 . S
C189 O195 1.208 . S
C190 O182 1.315 . S
C190 O185 1.279 . S
C191 O192 1.315 . S
C191 O193 1.279 . S
O192 Cd184 2.223 . S
O192 C191 1.315 . S
O193 Cd183 2.240 . S
O193 C191 1.279 . S
O194 Cd184 2.297 . S
O194 C189 1.247 . S
O195 Cd184 2.439 . S
O195 C189 1.208 . S
O196 Cd197 2.223 . S
O196 C204 1.315 . S
Cd197 O196 2.223 . S
Cd197 O200 2.297 . S
Cd197 O201 2.439 . S
Cd197 O207 2.240 . S
Cd198 O199 2.240 . S
Cd198 O206 2.223 . S
Cd198 O208 2.297 . S
Cd198 O209 2.439 . S
O199 Cd198 2.240 . S
O199 C204 1.279 . S
O200 Cd197 2.297 . S
O200 C202 1.247 . S
O201 Cd197 2.439 . S
O201 C202 1.208 . S
C202 O200 1.247 . S
C202 O201 1.208 . S
C203 O208 1.247 . S
C203 O209 1.208 . S
C204 O196 1.315 . S
C204 O199 1.279 . S
C205 O206 1.315 . S
C205 O207 1.279 . S
O206 Cd198 2.223 . S
O206 C205 1.315 . S
O207 Cd197 2.240 . S
O207 C205 1.279 . S
O208 Cd198 2.297 . S
O208 C203 1.247 . S
O209 Cd198 2.439 . S
O209 C203 1.208 . S
C210 C211 1.170 . S
C210 C212 1.380 . S
C211 C210 1.170 . S
C212 C210 1.380 . S
C212 C213 1.170 . S
C213 C212 1.170 . S
C214 C215 1.170 . S
C214 C216 1.380 . S
C215 C214 1.170 . S
C216 C214 1.380 . S
C216 C217 1.170 . S
C217 C216 1.170 . S
C218 C219 1.170 . S
C218 C220 1.380 . S
C219 C218 1.170 . S
C220 C218 1.380 . S
C220 C221 1.170 . S
C221 C220 1.170 . S
C222 C223 1.170 . S
C222 C224 1.380 . S
C223 C222 1.170 . S
C224 C222 1.380 . S
C224 C225 1.170 . S
C225 C224 1.170 . S
C226 C227 1.170 . S
C226 C228 1.380 . S
C227 C226 1.170 . S
C228 C226 1.380 . S
C228 C229 1.170 . S
C229 C228 1.170 . S
C230 C231 1.170 . S
C230 C232 1.380 . S
C231 C230 1.170 . S
C232 C230 1.380 . S
C232 C233 1.170 . S
C233 C232 1.170 . S
C234 C235 1.170 . S
C234 C236 1.380 . S
C235 C234 1.170 . S
C236 C234 1.380 . S
C236 C237 1.170 . S
C237 C236 1.170 . S
C238 C239 1.170 . S
C238 C240 1.380 . S
C239 C238 1.170 . S
C240 C238 1.380 . S
C240 C241 1.170 . S
C241 C240 1.170 . S
C242 C243 1.170 . S
C242 C244 1.380 . S
C243 C242 1.170 . S
C244 C242 1.380 . S
C244 C245 1.170 . S
C245 C244 1.170 . S
C246 C247 1.170 . S
C246 C248 1.380 . S
C247 C246 1.170 . S
C248 C246 1.380 . S
C248 C249 1.170 . S
C249 C248 1.170 . S
C250 C251 1.170 . S
C250 C252 1.380 . S
C251 C250 1.170 . S
C252 C250 1.380 . S
C252 C253 1.170 . S
C253 C252 1.170 . S
C254 C255 1.170 . S
C254 C256 1.380 . S
C255 C254 1.170 . S
C256 C254 1.380 . S
C256 C257 1.170 . S
C257 C256 1.170 . S
C258 C259 1.170 . S
C258 C260 1.380 . S
C259 C258 1.170 . S
C260 C258 1.380 . S
C260 C261 1.170 . S
C261 C260 1.170 . S
C262 C263 1.170 . S
C262 C264 1.380 . S
C263 C262 1.170 . S
C264 C262 1.380 . S
C264 C265 1.170 . S
C265 C264 1.170 . S
C266 C267 1.170 . S
C266 C268 1.380 . S
C267 C266 1.170 . S
C268 C266 1.380 . S
C268 C269 1.170 . S
C269 C268 1.170 . S
C270 C271 1.170 . S
C270 C272 1.380 . S
C271 C270 1.170 . S
C272 C270 1.380 . S
C272 C273 1.170 . S
C273 C272 1.170 . S
C274 C275 1.170 . S
C274 C276 1.380 . S
C275 C274 1.170 . S
C276 C274 1.380 . S
C276 C277 1.170 . S
C277 C276 1.170 . S
C278 C279 1.170 . S
C278 C280 1.380 . S
C279 C278 1.170 . S
C280 C278 1.380 . S
C280 C281 1.170 . S
C281 C280 1.170 . S
C282 C283 1.170 . S
C282 C284 1.380 . S
C283 C282 1.170 . S
C284 C282 1.380 . S
C284 C285 1.170 . S
C285 C284 1.170 . S
C286 C287 1.170 . S
C286 C288 1.380 . S
C287 C286 1.170 . S
C288 C286 1.380 . S
C288 C289 1.170 . S
C289 C288 1.170 . S
C290 C291 1.170 . S
C290 C292 1.380 . S
C291 C290 1.170 . S
C292 C290 1.380 . S
C292 C293 1.170 . S
C293 C292 1.170 . S
C294 C295 1.170 . S
C294 C296 1.380 . S
C295 C294 1.170 . S
C296 C294 1.380 . S
C296 C297 1.170 . S
C297 C296 1.170 . S
C298 C299 1.170 . S
C298 C300 1.380 . S
C299 C298 1.170 . S
C300 C298 1.380 . S
C300 C301 1.170 1_554 S
C301 C300 1.170 1_556 S
C302 C303 1.170 . S
C302 C304 1.380 . S
C303 C302 1.170 . S
C304 C302 1.380 . S
C304 C305 1.170 . S
C305 C304 1.170 . S
C213 C203 1.480 . S
C211 C19 1.403 . S
C215 C40 1.453 . S
C217 C132 1.489 . S
C219 C51 1.444 . S
C221 C146 1.505 . S
C223 C72 1.391 . S
C225 C160 1.483 . S
C229 C174 1.493 . S
C227 C103 1.448 . S
C231 C114 1.420 . S
C233 C189 1.498 . S
C235 C30 1.449 . S
C237 C147 1.499 . S
C239 C61 1.453 . S
C241 C161 1.486 . S
C243 C82 1.405 . S
C245 C175 1.482 . S
C249 C188 1.470 . S
C247 C93 1.391 . S
C253 C202 1.490 . S
C251 C124 1.415 . S
C257 C133 1.482 . S
C255 C9 1.391 . S
C259 C17 1.490 . S
C261 C149 1.518 . S
C263 C38 1.493 . S
C265 C163 1.530 . S
C269 C177 1.511 . S
C267 C54 1.477 . S
C271 C75 1.491 . S
C273 C190 1.519 1_556 S
C277 C204 1.537 . S
C275 C101 1.479 . S
C281 C135 1.512 . S
C279 C117 1.467 . S
C285 C205 1.537 . S
C283 C33 1.470 . S
C287 C59 1.494 . S
C289 C134 1.529 . S
C293 C148 1.518 . S
C291 C80 1.489 . S
C295 C96 1.456 . S
C297 C162 1.537 . S
C299 C122 1.454 . S
C301 C176 1.522 . S
C303 C12 1.494 . S
C305 C191 1.535 . S
