# Generated by pormake.
# Topology anh, (6,3)-cn, num edge types: 1
# Building blocks:
#     Node 0, Type 0, BuildingBlock: NUHQIS_clean_sbu_0, # of connection points: 6
#     Node 1, Type 0, BuildingBlock: NUHQIS_clean_sbu_0, # of connection points: 6
#     Node 2, Type 0, BuildingBlock: NUHQIS_clean_sbu_0, # of connection points: 6
#     Node 3, Type 1, BuildingBlock: QEWDON_clean_linker_0, # of connection points: 3
#     Node 4, Type 1, BuildingBlock: QEWDON_clean_linker_0, # of connection points: 3
#     Node 5, Type 1, BuildingBlock: QEWDON_clean_linker_0, # of connection points: 3
#     Node 6, Type 1, BuildingBlock: QEWDON_clean_linker_0, # of connection points: 3
#     Node 7, Type 1, BuildingBlock: QEWDON_clean_linker_0, # of connection points: 3
#     Node 8, Type 1, BuildingBlock: QEWDON_clean_linker_0, # of connection points: 3
#     Edge 9, Type (0, 1), BuildingBlock: KIFKEQ_clean_linker_1, # of connection points: 2
#     Edge 10, Type (0, 1), BuildingBlock: KIFKEQ_clean_linker_1, # of connection points: 2
#     Edge 11, Type (0, 1), BuildingBlock: KIFKEQ_clean_linker_1, # of connection points: 2
#     Edge 12, Type (0, 1), BuildingBlock: KIFKEQ_clean_linker_1, # of connection points: 2
#     Edge 13, Type (0, 1), BuildingBlock: KIFKEQ_clean_linker_1, # of connection points: 2
#     Edge 14, Type (0, 1), BuildingBlock: KIFKEQ_clean_linker_1, # of connection points: 2
#     Edge 15, Type (0, 1), BuildingBlock: KIFKEQ_clean_linker_1, # of connection points: 2
#     Edge 16, Type (0, 1), BuildingBlock: KIFKEQ_clean_linker_1, # of connection points: 2
#     Edge 17, Type (0, 1), BuildingBlock: KIFKEQ_clean_linker_1, # of connection points: 2
#     Edge 18, Type (0, 1), BuildingBlock: KIFKEQ_clean_linker_1, # of connection points: 2
#     Edge 19, Type (0, 1), BuildingBlock: KIFKEQ_clean_linker_1, # of connection points: 2
#     Edge 20, Type (0, 1), BuildingBlock: KIFKEQ_clean_linker_1, # of connection points: 2
#     Edge 21, Type (0, 1), BuildingBlock: KIFKEQ_clean_linker_1, # of connection points: 2
#     Edge 22, Type (0, 1), BuildingBlock: KIFKEQ_clean_linker_1, # of connection points: 2
#     Edge 23, Type (0, 1), BuildingBlock: KIFKEQ_clean_linker_1, # of connection points: 2
#     Edge 24, Type (0, 1), BuildingBlock: KIFKEQ_clean_linker_1, # of connection points: 2
#     Edge 25, Type (0, 1), BuildingBlock: KIFKEQ_clean_linker_1, # of connection points: 2
#     Edge 26, Type (0, 1), BuildingBlock: KIFKEQ_clean_linker_1, # of connection points: 2
# Relax obj value: 0.212
# Max RMSD: 0.136
# Mean RMSD: 0.120
data_MOF--net-anh--node1-NUHQIS_clean_sbu_0--node2-QEWDON_clean_linker_0--edge1-KIFKEQ_clean_linker_1
_symmetry_space_group_name_H-M    P1
_symmetry_Int_Tables_number       1
_symmetry_cell_setting            triclinic
loop_
_symmetry_equiv_pos_as_xyz
'x, y, z'
_cell_length_a     33.722948
_cell_length_b     33.423715
_cell_length_c     50.059691
_cell_angle_alpha  92.780861
_cell_angle_beta   97.04793
_cell_angle_gamma 120.14578
loop_
_atom_site_label
_atom_site_type_symbol
_atom_site_fract_x
_atom_site_fract_y
_atom_site_fract_z
_atom_type_partial_charge
Tb0 Tb 0.14481 0.59089 0.14524 0.0
Eu1 Eu 0.09398 0.64869 0.14534 0.0
C2 C 0.12212 0.61817 0.19835 0.0
C3 C 1.03315 0.53155 0.14523 0.0
C4 C 0.24328 0.57516 0.14326 0.0
C5 C 0.32467 0.60652 0.16169 0.0
C6 C 0.27782 0.57966 0.16395 0.0
C7 C 0.25617 0.59617 0.11964 0.0
C8 C 0.30305 0.62244 0.1172 0.0
C9 C 0.33762 0.62879 0.13853 0.0
C10 C 0.19557 0.55578 0.14867 0.0
O11 O 0.13723 0.60105 0.10244 0.0
O12 O 0.09336 0.6361 0.1007 0.0
O13 O 0.16726 0.70646 0.13991 0.0
O14 O 0.20372 0.66677 0.15311 0.0
C15 C 0.11436 0.618 0.08874 0.0
O16 O 1.03678 0.65998 0.13165 0.0
O17 O 1.0875 0.70275 0.1671 0.0
O18 O 0.12925 0.65523 0.18749 0.0
O19 O 0.11772 0.58299 0.18312 0.0
O20 O 1.07071 0.53094 0.14004 0.0
O21 O 1.03618 0.57263 0.14973 0.0
C22 C 0.20645 0.7066 0.14723 0.0
O23 O 0.19229 0.5789 0.16915 0.0
O24 O 0.16295 0.54501 0.12789 0.0
C25 C 1.00875 0.67009 0.17009 0.0
C26 C 0.92679 0.61876 0.19152 0.0
C27 C 0.93328 0.65599 0.17688 0.0
C28 C 0.97392 0.68127 0.16603 0.0
C29 C 1.0041 0.63573 0.18672 0.0
C30 C 0.96324 0.60998 0.19719 0.0
C31 C 1.04591 0.68765 0.15371 0.0
H32 H 0.35086 0.6105 0.17821 0.0
H33 H 0.26863 0.56421 0.18243 0.0
H34 H 0.23028 0.59399 0.10356 0.0
H35 H 0.31238 0.63934 0.09917 0.0
H36 H 0.90535 0.66298 0.17181 0.0
H37 H 0.9768 0.70733 0.15307 0.0
H38 H 1.03076 0.62662 0.19008 0.0
H39 H 0.95899 0.5814 0.20828 0.0
Tb40 Tb 0.67704 0.15368 0.48386 0.0
Eu41 Eu 0.56605 0.09548 0.47545 0.0
C42 C 0.62661 0.12301 0.53272 0.0
C43 C 0.62366 1.03849 0.47989 0.0
C44 C 0.79265 0.24979 0.51191 0.0
C45 C 0.8675 0.31631 0.53254 0.0
C46 C 0.84084 0.27041 0.51945 0.0
C47 C 0.77109 0.27434 0.51897 0.0
C48 C 0.79754 0.32026 0.5314 0.0
C49 C 0.84634 0.34252 0.53772 0.0
C50 C 0.76439 0.20345 0.496 0.0
O51 O 0.65717 0.12961 0.44014 0.0
O52 O 0.58199 0.11392 0.43395 0.0
O53 O 0.5838 0.17211 0.4847 0.0
O54 O 0.66037 0.21089 0.47987 0.0
C55 C 0.61893 0.12081 0.42411 0.0
O56 O 0.49713 1.04349 0.45373 0.0
O57 O 0.50429 0.08241 0.49181 0.0
O58 O 0.5931 0.08736 0.51645 0.0
O59 O 0.65601 0.15967 0.52258 0.0
O60 O 0.66283 0.08009 0.48566 0.0
O61 O 0.5834 1.03662 0.47313 0.0
C62 C 0.62238 0.21196 0.48334 0.0
O63 O 0.73882 0.17008 0.50951 0.0
O64 O 0.7407 0.20201 0.47295 0.0
C65 C 0.4487 1.00289 0.48445 0.0
C66 C 0.3952 0.9154 0.50174 0.0
C67 C 0.37381 0.93888 0.49009 0.0
C68 C 0.40043 0.98233 0.48145 0.0
C69 C 0.47045 0.98074 0.49724 0.0
C70 C 0.44388 0.9372 0.50574 0.0
C71 C 0.47658 1.04658 0.47357 0.0
H72 H 0.90479 0.33165 0.53771 0.0
H73 H 0.85794 0.25153 0.51464 0.0
H74 H 0.7338 0.25864 0.51394 0.0
H75 H 0.77952 0.33883 0.5345 0.0
H76 H 0.33627 0.92257 0.48629 0.0
H77 H 0.38325 0.99915 0.4717 0.0
H78 H 0.5079 0.99654 0.49994 0.0
H79 H 0.46123 0.91995 0.51467 0.0
Tb80 Tb 0.65118 0.64809 0.81559 0.0
Eu81 Eu 0.59303 0.53918 0.80403 0.0
C82 C 0.632 0.58979 0.86402 0.0
C83 C 0.71236 0.59845 0.81409 0.0
C84 C 0.65986 0.76003 0.82793 0.0
C85 C 0.63883 0.80395 0.85727 0.0
C86 C 0.66651 0.78488 0.85309 0.0
C87 C 0.62556 0.75524 0.80685 0.0
C88 C 0.59824 0.77456 0.81094 0.0
C89 C 0.60419 0.79876 0.83625 0.0
C90 C 0.68464 0.73462 0.8249 0.0
O91 O 0.65173 0.63217 0.7727 0.0
O92 O 0.58362 0.56285 0.76365 0.0
O93 O 0.53151 0.55149 0.80462 0.0
O94 O 0.57639 0.6307 0.816 0.0
C95 C 0.61714 0.59887 0.75515 0.0
O96 O 0.57326 0.47624 0.77731 0.0
O97 O 0.55353 0.47042 0.81703 0.0
O98 O 0.59559 0.55593 0.84819 0.0
O99 O 0.66354 0.62508 0.85394 0.0
O100 O 0.71237 0.63828 0.81626 0.0
O101 O 0.67151 0.55845 0.81007 0.0
C102 C 0.53426 0.59187 0.81109 0.0
O103 O 0.68258 0.7086 0.84381 0.0
O104 O 0.6775 0.71294 0.80088 0.0
C105 C 0.58829 0.42785 0.80417 0.0
C106 C 0.65753 0.40587 0.82002 0.0
C107 C 0.64504 0.40848 0.79261 0.0
C108 C 0.61062 0.41906 0.78475 0.0
C109 C 0.59918 0.42289 0.83144 0.0
C110 C 0.63343 0.41189 0.83927 0.0
C111 C 0.56087 0.45024 0.79684 0.0
H112 H 0.64418 0.82219 0.87706 0.0
H113 H 0.6923 0.78849 0.86976 0.0
H114 H 0.61916 0.7359 0.78725 0.0
H115 H 0.57273 0.77089 0.79408 0.0
H116 H 0.66198 0.40239 0.77719 0.0
H117 H 0.60293 0.42237 0.76359 0.0
H118 H 0.58269 0.42941 0.84698 0.0
H119 H 0.64192 0.40932 0.86046 0.0
H120 H 0.64534 0.14649 0.2115 0.0
C121 C 0.61502 0.1143 0.2016 0.0
C122 C 0.58475 0.084 0.21805 0.0
C123 C 0.60561 0.10459 0.17297 0.0
H124 H 0.52178 1.01976 0.21966 0.0
C125 C 0.54417 1.042 0.20632 0.0
C126 C 0.53151 1.02786 0.17818 0.0
C127 C 0.5627 1.06006 0.16153 0.0
C128 C 0.63955 0.14185 0.15582 0.0
H129 H 0.55357 1.04937 0.13992 0.0
C130 C 0.68577 0.18371 0.16613 0.0
C131 C 0.71346 0.21724 0.14846 0.0
C132 C 0.62404 0.13629 0.12773 0.0
H133 H 0.59039 0.10772 0.11818 0.0
C134 C 0.65055 0.16782 0.11086 0.0
H135 H 0.70016 0.19062 0.18747 0.0
C136 C 0.69388 0.20716 0.1209 0.0
H137 H 0.71244 0.2304 0.10669 0.0
H138 H 0.63685 0.16185 0.0894 0.0
H139 H 0.62648 0.64323 0.54564 0.0
C140 C 0.62518 0.61279 0.53612 0.0
C141 C 0.62441 0.57968 0.55284 0.0
C142 C 0.6261 0.60808 0.50806 0.0
H143 H 0.62324 0.51513 0.55515 0.0
C144 C 0.6238 0.5398 0.5417 0.0
C145 C 0.62362 0.53066 0.51392 0.0
C146 C 0.62519 0.56571 0.4972 0.0
C147 C 0.62938 0.64806 0.49113 0.0
H148 H 0.62454 0.55882 0.47583 0.0
C149 C 0.62422 0.68771 0.50029 0.0
C150 C 0.62866 0.72348 0.48306 0.0
C151 C 0.63952 0.64737 0.46472 0.0
H152 H 0.6453 0.62078 0.45631 0.0
C153 C 0.64353 0.68129 0.44823 0.0
H154 H 0.61626 0.69081 0.52026 0.0
C155 C 0.63811 0.71818 0.45708 0.0
H156 H 0.64174 0.74337 0.44328 0.0
H157 H 0.6513 0.67904 0.42805 0.0
H158 H 0.14644 0.60108 0.87706 0.0
C159 C 0.11638 0.6013 0.8669 0.0
C160 C 1.08715 0.60626 0.88311 0.0
C161 C 0.10751 0.59684 0.83824 0.0
H162 H 1.02512 0.60937 0.88388 0.0
C163 C 1.04723 0.60635 0.8709 0.0
C164 C 1.03403 0.6014 0.84268 0.0
C165 C 1.06488 0.59661 0.82637 0.0
C166 C 0.1421 0.59124 0.82156 0.0
H167 H 1.05572 0.59386 0.80467 0.0
C168 C 0.18833 0.59767 0.83225 0.0
C169 C 0.21699 0.59046 0.81481 0.0
C170 C 0.12745 0.5774 0.79341 0.0
H171 H 0.09398 0.57054 0.78356 0.0
C172 C 0.15467 0.57085 0.77682 0.0
H173 H 0.20214 0.60818 0.85367 0.0
C174 C 0.19805 0.57719 0.78716 0.0
H175 H 0.21716 0.57126 0.77311 0.0
H176 H 0.14154 0.56017 0.75529 0.0
H177 H 1.00225 0.61429 0.38872 0.0
C178 C 1.0346 0.62309 0.40152 0.0
C179 C 1.06829 0.61767 0.39048 0.0
C180 C 1.04251 0.63953 0.42912 0.0
H181 H 0.13588 0.62476 0.39898 0.0
C182 C 0.10966 0.62837 0.40749 0.0
C183 C 0.11907 0.647 0.4348 0.0
C184 C 1.08492 0.65195 0.44541 0.0
C185 C 1.00697 0.64385 0.44157 0.0
H186 H 0.09196 0.66765 0.46618 0.0
C187 C 0.99659 0.62654 0.4663 0.0
C188 C 0.96395 0.63059 0.47929 0.0
C189 C 0.98407 0.66549 0.42956 0.0
H190 H 0.99172 0.67945 0.41055 0.0
C191 C 0.95159 0.66992 0.4424 0.0
H192 H 1.0129 0.60811 0.47494 0.0
C193 C 0.94134 0.65241 0.4671 0.0
H194 H 0.91561 0.65554 0.47651 0.0
H195 H 0.9341 0.68675 0.43311 0.0
H196 H 0.5785 0.07079 0.73658 0.0
C197 C 0.60988 0.10077 0.74783 0.0
C198 C 0.6484 0.12673 0.73498 0.0
C199 C 0.61053 0.11507 0.77472 0.0
H200 H 0.71814 0.18642 0.74021 0.0
C201 C 0.68878 0.16541 0.75008 0.0
C202 C 0.68986 0.18006 0.77708 0.0
C203 C 0.65046 0.15431 0.78922 0.0
C204 C 0.56866 0.09084 0.78744 0.0
H205 H 0.64962 0.16614 0.80958 0.0
C206 C 0.55136 1.0444 0.79188 0.0
C207 C 0.51505 1.02257 0.80685 0.0
C208 C 0.54805 0.115 0.79705 0.0
H209 H 0.56105 0.15102 0.79383 0.0
C210 C 0.51092 0.09291 0.8112 0.0
H211 H 0.56827 1.02628 0.78521 0.0
C212 C 0.49483 1.04704 0.81647 0.0
H213 H 0.4672 1.0309 0.82832 0.0
H214 H 0.49535 0.11178 0.81869 0.0
H215 H 0.66988 0.6654 0.07226 0.0
C216 C 0.67186 0.63854 0.08259 0.0
C217 C 0.66497 0.59823 0.06759 0.0
C218 C 0.68304 0.64542 0.11091 0.0
H219 H 0.66204 0.53245 0.07023 0.0
C220 C 0.66652 0.56331 0.08154 0.0
C221 C 0.67665 0.56937 0.11008 0.0
C222 C 0.68522 0.61087 0.12449 0.0
C223 C 0.69264 0.68892 0.12641 0.0
H224 H 0.6951 0.61722 0.1464 0.0
C225 C 0.65874 0.70153 0.12378 0.0
C226 C 0.66505 0.74012 0.14027 0.0
C227 C 0.73417 0.71639 0.14495 0.0
H228 H 0.76087 0.7072 0.14724 0.0
C229 C 0.74128 0.75577 0.16082 0.0
H230 H 0.62602 0.67937 0.11013 0.0
C231 C 0.7066 0.76732 0.1588 0.0
H232 H 0.71178 0.79684 0.17195 0.0
H233 H 0.77324 0.77672 0.17517 0.0
H234 H 0.40397 0.70126 0.17538 0.0
H235 H 0.38247 0.6243 0.09803 0.0
H236 H 0.48753 0.7465 0.17492 0.0
H237 H 0.46584 0.66769 0.09789 0.0
H238 H 0.62542 0.74316 0.18353 0.0
H239 H 0.54711 0.72896 0.18196 0.0
H240 H 0.53569 0.73728 0.09562 0.0
H241 H 0.61371 0.74941 0.09725 0.0
C242 C 0.41732 0.69429 0.15825 0.0
C243 C 0.38724 0.65903 0.13692 0.0
C244 C 0.46505 0.7201 0.15795 0.0
C245 C 0.48361 0.71055 0.13651 0.0
C246 C 0.45291 0.67668 0.11454 0.0
C247 C 0.40514 0.65142 0.11467 0.0
C248 C 0.60675 0.74368 0.16444 0.0
C249 C 0.62511 0.74681 0.14047 0.0
C250 C 0.56176 0.73555 0.16347 0.0
C251 C 0.5346 0.73093 0.13851 0.0
C252 C 0.55518 0.73933 0.11503 0.0
C253 C 0.59994 0.74675 0.11596 0.0
H254 H 0.93139 0.4043 0.52495 0.0
H255 H 0.82547 0.39882 0.56817 0.0
H256 H 0.96564 0.48746 0.52612 0.0
H257 H 0.85847 0.48251 0.56732 0.0
H258 H 0.87633 0.5742 0.48981 0.0
H259 H 0.85486 0.51388 0.5197 0.0
H260 H 0.99976 0.5706 0.55281 0.0
H261 H 1.02133 0.63201 0.52342 0.0
C262 C 0.9162 0.4207 0.53564 0.0
C263 C 0.87455 0.39408 0.54569 0.0
C264 C 0.93601 0.46877 0.53625 0.0
C265 C 0.91424 0.49123 0.54645 0.0
C266 C 0.87559 0.46581 0.55911 0.0
C267 C 0.85643 0.41776 0.5592 0.0
C268 C 0.90345 0.57545 0.5045 0.0
C269 C 0.95055 0.60683 0.5037 0.0
C270 C 0.89115 0.54087 0.5217 0.0
C271 C 0.92581 0.53714 0.5381 0.0
C272 C 0.97249 0.57254 0.54011 0.0
C273 C 0.98476 0.60742 0.52318 0.0
H274 H 0.63333 0.8839 0.86395 0.0
H275 H 0.51166 0.76384 0.81664 0.0
H276 H 0.59238 0.92633 0.86246 0.0
H277 H 0.47113 0.80737 0.8144 0.0
H278 H 0.48852 0.94309 0.77411 0.0
H279 H 0.49418 0.87691 0.78782 0.0
H280 H 0.52393 0.93392 0.872 0.0
H281 H 0.51802 1.00021 0.85814 0.0
C282 C 0.59735 0.86597 0.85397 0.0
C283 C 0.57616 0.82084 0.8399 0.0
C284 C 0.57377 0.89032 0.85318 0.0
C285 C 0.5287 0.87021 0.83812 0.0
C286 C 0.50602 0.82374 0.82595 0.0
C287 C 0.52943 0.79912 0.82701 0.0
C288 C 0.49427 0.94033 0.79555 0.0
C289 C 0.50336 0.97671 0.81509 0.0
C290 C 0.49729 0.90239 0.80344 0.0
C291 C 0.51009 0.9007 0.83097 0.0
C292 C 0.51429 0.93465 0.85065 0.0
C293 C 0.51069 0.97236 0.84274 0.0
H294 H 0.86578 0.63485 0.21421 0.0
H295 H 0.88027 0.52499 0.1767 0.0
H296 H 0.78197 0.58683 0.20178 0.0
H297 H 0.79603 0.47646 0.1642 0.0
H298 H 0.65362 0.53945 0.15916 0.0
H299 H 0.70022 0.52002 0.19106 0.0
H300 H 0.7681 0.5063 0.1264 0.0
H301 H 0.72324 0.52697 0.09513 0.0
C302 C 0.8508 0.59941 0.20459 0.0
C303 C 0.8793 0.58422 0.19553 0.0
C304 C 0.80257 0.57147 0.19762 0.0
C305 C 0.78244 0.52843 0.18101 0.0
C306 C 0.81066 0.50986 0.1765 0.0
C307 C 0.85898 0.53774 0.18367 0.0
C308 C 0.67723 0.5304 0.15159 0.0
C309 C 0.68664 0.53723 0.12502 0.0
C310 C 0.70354 0.5188 0.16982 0.0
C311 C 0.73923 0.51369 0.16154 0.0
C312 C 0.74141 0.51074 0.13366 0.0
C313 C 0.71558 0.52287 0.11554 0.0
H314 H 0.31717 0.87578 0.52523 0.0
H315 H 0.40705 0.84323 0.48661 0.0
H316 H 0.25656 0.79371 0.51722 0.0
H317 H 0.3467 0.76099 0.47905 0.0
H318 H 0.20243 0.69146 0.41663 0.0
H319 H 0.27803 0.74224 0.44332 0.0
H320 H 0.22086 0.70543 0.51699 0.0
H321 H 0.1443 0.65134 0.49003 0.0
C322 C 0.32461 0.85078 0.51605 0.0
C323 C 0.36612 0.86595 0.50578 0.0
C324 C 0.29014 0.80365 0.51176 0.0
C325 C 0.29667 0.7712 0.49697 0.0
C326 C 0.3407 0.78547 0.49024 0.0
C327 C 0.37524 0.8326 0.49461 0.0
C328 C 0.20579 0.69179 0.43843 0.0
C329 C 0.16661 0.66788 0.45106 0.0
C330 C 0.2496 0.72123 0.45385 0.0
C331 C 0.25523 0.72826 0.48227 0.0
C332 C 0.21727 0.70089 0.49508 0.0
C333 C 0.17339 0.67044 0.47959 0.0
H334 H 0.65262 0.34089 0.85227 0.0
H335 H 0.74318 0.44284 0.80512 0.0
H336 H 0.69805 0.3035 0.85259 0.0
H337 H 0.79036 0.4064 0.80617 0.0
H338 H 0.73176 0.26035 0.75385 0.0
H339 H 0.75903 0.33635 0.77668 0.0
H340 H 0.75806 0.2849 0.85431 0.0
H341 H 0.73077 0.20752 0.831 0.0
C342 C 0.68369 0.35667 0.84309 0.0
C343 C 0.69341 0.39354 0.82776 0.0
C344 C 0.7103 0.33548 0.84347 0.0
C345 C 0.74698 0.35083 0.82842 0.0
C346 C 0.76142 0.39278 0.81718 0.0
C347 C 0.73434 0.41355 0.81646 0.0
C348 C 0.73984 0.26537 0.7758 0.0
C349 C 0.72655 0.22724 0.79059 0.0
C350 C 0.75579 0.30959 0.78912 0.0
C351 C 0.75798 0.31611 0.81737 0.0
C352 C 0.75464 0.28039 0.83241 0.0
C353 C 0.7388 0.23601 0.81905 0.0
H354 H 0.69873 1.02324 0.49327 0.0
H355 H 0.54961 0.94554 0.47156 0.0
H356 H 0.69868 0.95026 0.49662 0.0
H357 H 0.54913 0.8728 0.47533 0.0
H358 H 0.55759 0.7386 0.46263 0.0
H359 H 0.55662 0.81105 0.46213 0.0
H360 H 0.69045 0.88409 0.51429 0.0
H361 H 0.69119 0.81093 0.51419 0.0
C362 C 0.66562 0.99077 0.48915 0.0
C363 C 0.62423 0.99207 0.48185 0.0
C364 C 0.66546 0.94793 0.4913 0.0
C365 C 0.62389 0.90321 0.48629 0.0
C366 C 0.58254 0.90484 0.47909 0.0
C367 C 0.58273 0.94759 0.47697 0.0
C368 C 0.58627 0.76963 0.47489 0.0
C369 C 0.62347 0.76675 0.48945 0.0
C370 C 0.586 0.81234 0.47443 0.0
C371 C 0.62344 0.85589 0.48814 0.0
C372 C 0.66055 0.85287 0.50306 0.0
C373 C 0.66065 0.80987 0.50357 0.0
H374 H 0.72987 0.52382 0.80916 0.0
H375 H 0.80532 0.67356 0.82464 0.0
H376 H 0.80376 0.52479 0.8133 0.0
H377 H 0.87885 0.67473 0.82854 0.0
H378 H 1.01278 0.66938 0.85633 0.0
H379 H 0.93944 0.66825 0.84941 0.0
H380 H 0.87319 0.53347 0.80162 0.0
H381 H 0.94758 0.53486 0.80896 0.0
C382 C 0.76196 0.5573 0.81339 0.0
C383 C 0.7596 0.59864 0.81649 0.0
C384 C 0.80534 0.55789 0.81568 0.0
C385 C 0.84978 0.5998 0.82146 0.0
C386 C 0.84711 0.64104 0.8245 0.0
C387 C 0.80384 0.64047 0.82206 0.0
C388 C 0.9831 0.63967 0.84371 0.0
C389 C 0.98851 0.60288 0.8328 0.0
C390 C 0.93982 0.63888 0.83969 0.0
C391 C 0.89778 0.60079 0.82471 0.0
C392 C 0.90315 0.56391 0.81347 0.0
C393 C 0.94692 0.56496 0.81733 0.0
H394 H 0.29781 0.72466 0.16346 0.0
H395 H 0.22764 0.7969 0.13686 0.0
H396 H 0.3729 0.79727 0.16795 0.0
H397 H 0.30267 0.8699 0.14161 0.0
H398 H 0.44991 1.00034 0.13921 0.0
H399 H 0.37487 0.92594 0.13096 0.0
H400 H 0.43163 0.86914 0.18909 0.0
H401 H 0.50571 0.94246 0.19679 0.0
C402 C 0.29787 0.75589 0.15856 0.0
C403 C 0.25474 0.75306 0.14977 0.0
C404 C 0.34191 0.79866 0.16133 0.0
C405 C 0.34627 0.84192 0.15543 0.0
C406 C 0.30296 0.8388 0.14633 0.0
C407 C 0.2589 0.79603 0.14368 0.0
C408 C 0.447 0.97177 0.14983 0.0
C409 C 0.48597 0.97904 0.16856 0.0
C410 C 0.40288 0.92839 0.14539 0.0
C411 C 0.39477 0.88918 0.15923 0.0
C412 C 0.43435 0.89649 0.17737 0.0
C413 C 0.47795 0.93964 0.18192 0.0
H414 H 0.69469 0.30492 0.48196 0.0
H415 H 0.55068 0.22884 0.49084 0.0
H416 H 0.69442 0.37834 0.48671 0.0
H417 H 0.54996 0.30144 0.49521 0.0
H418 H 0.56416 0.44138 0.52567 0.0
H419 H 0.56483 0.36938 0.51834 0.0
H420 H 0.67841 0.43729 0.47413 0.0
H421 H 0.67799 0.51053 0.48211 0.0
C422 C 0.66262 0.30329 0.4848 0.0
C423 C 0.62269 0.25912 0.48593 0.0
C424 C 0.66236 0.34626 0.48747 0.0
C425 C 0.62222 0.34816 0.49162 0.0
C426 C 0.58237 0.30374 0.49259 0.0
C427 C 0.58261 0.26096 0.48984 0.0
C428 C 0.5892 0.44144 0.51401 0.0
C429 C 0.62067 0.48352 0.50445 0.0
C430 C 0.58952 0.39903 0.50962 0.0
C431 C 0.62166 0.3951 0.49542 0.0
C432 C 0.65293 0.43709 0.48539 0.0
C433 C 0.65232 0.47982 0.48966 0.0
H434 H 0.52117 0.66827 0.82288 0.0
H435 H 0.4406 0.51892 0.80462 0.0
H436 H 0.4501 0.66972 0.82687 0.0
H437 H 0.36959 0.52001 0.80819 0.0
H438 H 0.23899 0.52183 0.8262 0.0
H439 H 0.31191 0.52261 0.82608 0.0
H440 H 0.3807 0.66808 0.81526 0.0
H441 H 0.30743 0.66678 0.8158 0.0
C442 C 0.48847 0.63536 0.81957 0.0
C443 C 0.48865 0.59342 0.81331 0.0
C444 C 0.44655 0.63613 0.82181 0.0
C445 C 0.40142 0.59497 0.8181 0.0
C446 C 0.40196 0.55313 0.81181 0.0
C447 C 0.44376 0.55242 0.80949 0.0
C448 C 0.26991 0.5547 0.82486 0.0
C449 C 0.26585 0.59479 0.82251 0.0
C450 C 0.31267 0.55504 0.82413 0.0
C451 C 0.35492 0.59541 0.82046 0.0
C452 C 0.3509 0.63578 0.81849 0.0
C453 C 0.30799 0.6353 0.81917 0.0
H454 H 1.00965 0.43711 0.13772 0.0
H455 H 0.94864 0.51826 0.15799 0.0
H456 H 0.93734 0.36539 0.14131 0.0
H457 H 0.87674 0.44708 0.16215 0.0
H458 H 0.73332 0.30885 0.15031 0.0
H459 H 0.8066 0.38083 0.14975 0.0
H460 H 0.87929 0.30559 0.15906 0.0
H461 H 0.80502 0.2333 0.15906 0.0
C462 C 0.98102 0.44018 0.143 0.0
C463 C 0.98676 0.48529 0.14728 0.0
C464 C 0.9386 0.39811 0.14531 0.0
C465 C 0.89861 0.3979 0.15212 0.0
C466 C 0.90472 0.44332 0.15649 0.0
C467 C 0.94707 0.48529 0.15416 0.0
C468 C 0.765 0.30757 0.15327 0.0
C469 C 0.76164 0.26387 0.15603 0.0
C470 C 0.80813 0.34977 0.15267 0.0
C471 C 0.85152 0.35162 0.1543 0.0
C472 C 0.84821 0.30782 0.15746 0.0
C473 C 0.80485 0.2655 0.1581 0.0
H474 H 0.16269 0.59482 0.05686 0.0
H475 H 1.06175 0.6387 0.05219 0.0
H476 H 0.16023 0.5942 0.00791 0.0
H477 H 1.05806 0.63659 0.00331 0.0
H478 H 1.08933 0.67092 0.91977 0.0
H479 H 0.0985 0.675 0.96901 0.0
H480 H 0.11542 0.5551 0.96461 0.0
H481 H 0.10751 0.55211 0.91518 0.0
C482 C 0.13972 0.60408 0.04542 0.0
C483 C 0.11252 0.61695 0.05868 0.0
C484 C 0.13812 0.60348 0.0172 0.0
C485 C 0.10909 0.61553 0.00133 0.0
C486 C 1.08166 0.62804 0.01467 0.0
C487 C 1.0835 0.62893 0.04285 0.0
C488 C 0.09529 0.64559 0.92934 0.0
C489 C 0.09743 0.61104 0.91346 0.0
C490 C 0.10022 0.64766 0.95766 0.0
C491 C 0.10702 0.61495 0.9711 0.0
C492 C 0.11062 0.58121 0.95522 0.0
C493 C 0.10607 0.5794 0.9268 0.0
H494 H 0.5411 0.07863 0.38511 0.0
H495 H 0.69096 0.15509 0.39475 0.0
H496 H 0.53559 0.07237 0.33622 0.0
H497 H 0.68573 0.15112 0.34544 0.0
H498 H 0.65895 0.09615 0.25444 0.0
H499 H 0.66896 0.10607 0.30407 0.0
H500 H 0.54228 0.11055 0.29882 0.0
H501 H 0.53146 0.09792 0.24951 0.0
C502 C 0.57303 0.09468 0.37677 0.0
C503 C 0.61649 0.11749 0.39402 0.0
C504 C 0.56992 0.09147 0.34851 0.0
C505 C 0.61017 0.11173 0.33638 0.0
C506 C 0.65379 0.13452 0.35372 0.0
C507 C 0.65688 0.13706 0.38212 0.0
C508 C 0.63362 0.0997 0.26407 0.0
C509 C 0.59435 0.09608 0.24815 0.0
C510 C 0.63932 0.10554 0.29258 0.0
C511 C 0.60615 0.10854 0.30591 0.0
C512 C 0.56797 0.10696 0.28968 0.0
C513 C 0.56192 0.10029 0.26129 0.0
H514 H 0.6915 0.65102 0.72994 0.0
H515 H 0.54448 0.54891 0.71292 0.0
H516 H 0.69376 0.64907 0.68123 0.0
H517 H 0.54671 0.54765 0.66419 0.0
H518 H 0.56472 0.59536 0.57797 0.0
H519 H 0.56259 0.60248 0.62678 0.0
H520 H 0.68239 0.58694 0.64359 0.0
H521 H 0.68399 0.5791 0.59489 0.0
C522 C 0.65954 0.62854 0.71584 0.0
C523 C 0.61781 0.60006 0.72543 0.0
C524 C 0.66092 0.62725 0.68791 0.0
C525 C 0.62044 0.59815 0.66879 0.0
C526 C 0.57845 0.57066 0.67834 0.0
C527 C 0.57723 0.57126 0.7063 0.0
C528 C 0.59073 0.59378 0.59215 0.0
C529 C 0.62448 0.58661 0.58258 0.0
C530 C 0.58936 0.59757 0.62006 0.0
C531 C 0.62233 0.59528 0.6391 0.0
C532 C 0.6567 0.58918 0.62951 0.0
C533 C 0.65749 0.58445 0.60162 0.0
H534 H 0.56464 1.0564 0.55934 0.0
H535 H 0.69773 0.18519 0.57285 0.0
H536 H 0.57059 1.05248 0.60796 0.0
H537 H 0.70343 0.18119 0.62178 0.0
H538 H 0.71478 0.133 0.70562 0.0
H539 H 0.71065 0.13058 0.65639 0.0
H540 H 0.56875 0.09972 0.64755 0.0
H541 H 0.57303 0.10341 0.69642 0.0
C542 C 0.59521 0.08391 0.57269 0.0
C543 C 0.63063 0.1213 0.56228 0.0
C544 C 0.59852 0.08163 0.60053 0.0
C545 C 0.63744 0.11649 0.6186 0.0
C546 C 0.67326 0.15359 0.60824 0.0
C547 C 0.66979 0.15609 0.5803 0.0
C548 C 0.68264 0.12549 0.69315 0.0
C549 C 0.64424 0.11834 0.70505 0.0
C550 C 0.68036 0.1242 0.66501 0.0
C551 C 0.63946 0.11517 0.64823 0.0
C552 C 0.60056 0.10623 0.65998 0.0
C553 C 0.60296 0.108 0.68804 0.0
H554 H 0.56494 0.53677 0.89326 0.0
H555 H 0.71149 0.63876 0.90139 0.0
H556 H 0.57307 0.5369 0.94227 0.0
H557 H 0.72025 0.63732 0.95025 0.0
H558 H 0.71032 0.66798 0.03705 0.0
H559 H 0.70166 0.66386 -0.01183 0.0
H560 H 0.60322 0.51564 0.98067 0.0
H561 H 0.60926 0.52053 0.02992 0.0
C562 C 0.59904 0.55878 0.90552 0.0
C563 C 0.63751 0.58812 0.89356 0.0
C564 C 0.60379 0.55861 0.93362 0.0
C565 C 0.64727 0.58734 0.95032 0.0
C566 C 0.686 0.61557 0.93813 0.0
C567 C 0.68109 0.61626 0.9101 0.0
C568 C 0.68608 0.63459 0.02505 0.0
C569 C 0.65995 0.59471 0.0375 0.0
C570 C 0.68182 0.63205 -0.00309 0.0
C571 C 0.65193 0.58937 0.98036 0.0
C572 C 0.62617 0.54923 -0.00724 0.0
C573 C 0.63003 0.5519 0.02103 0.0
H574 H 1.08819 0.54017 0.22438 0.0
H575 H 0.13227 0.68654 0.23524 0.0
H576 H 1.06583 0.5326 0.26932 0.0
H577 H 0.11114 0.6793 0.28013 0.0
H578 H 0.09065 0.55978 0.36412 0.0
H579 H 0.10032 0.55628 0.3168 0.0
H580 H 1.04399 0.64578 0.30212 0.0
H581 H 1.03669 0.65129 0.34973 0.0
C582 C 0.09363 0.57082 0.23648 0.0
C583 C 0.11218 0.614 0.22632 0.0
C584 C 1.08072 0.56646 0.26218 0.0
C585 C 1.08618 0.60521 0.2782 0.0
C586 C 0.10537 0.64847 0.26809 0.0
C587 C 0.11807 0.65277 0.24246 0.0
C588 C 1.07988 0.5783 0.35069 0.0
C589 C 1.06367 0.60646 0.36079 0.0
C590 C 1.08506 0.57598 0.32351 0.0
C591 C 1.07382 0.60153 0.30581 0.0
C592 C 1.05406 0.62661 0.31541 0.0
C593 C 1.04915 0.62917 0.34263 0.0
loop_
_geom_bond_atom_site_label_1
_geom_bond_atom_site_label_2
_geom_bond_distance
_geom_bond_site_symmetry_2
_ccdc_geom_bond_type
Tb0 C10 2.825 . S
Tb0 O11 2.347 . S
Tb0 O14 2.366 . S
Tb0 O19 2.418 . S
Tb0 O20 2.384 1_455 S
Tb0 O23 2.479 . S
Tb0 O24 2.471 . S
Eu1 O12 2.418 . S
Eu1 O13 2.384 . S
Eu1 O16 2.479 1_455 S
Eu1 O17 2.471 1_455 S
Eu1 O18 2.347 . S
Eu1 O21 2.366 1_455 S
Eu1 C31 2.825 1_455 S
C2 O18 1.259 . S
C2 O19 1.265 . S
C3 O20 1.255 . S
C3 O21 1.265 . S
C4 C6 1.380 . S
C4 C7 1.374 . S
C4 C10 1.507 . S
C5 C6 1.384 . S
C5 C9 1.387 . S
C5 H32 0.930 . S
C6 C4 1.380 . S
C6 C5 1.384 . S
C6 H33 0.931 . S
C7 C4 1.374 . S
C7 C8 1.390 . S
C7 H34 0.930 . S
C8 C7 1.390 . S
C8 C9 1.391 . S
C8 H35 0.930 . S
C9 C5 1.387 . S
C9 C8 1.391 . S
C10 Tb0 2.825 . S
C10 C4 1.507 . S
C10 O23 1.238 . S
C10 O24 1.247 . S
O11 Tb0 2.347 . S
O11 C15 1.259 . S
O12 Eu1 2.418 . S
O12 C15 1.265 . S
O13 Eu1 2.384 . S
O13 C22 1.255 . S
O14 Tb0 2.366 . S
O14 C22 1.265 . S
C15 O11 1.259 . S
C15 O12 1.265 . S
O16 Eu1 2.479 1_655 S
O16 C31 1.238 . S
O17 Eu1 2.471 1_655 S
O17 C31 1.247 . S
O18 Eu1 2.347 . S
O18 C2 1.259 . S
O19 Tb0 2.418 . S
O19 C2 1.265 . S
O20 Tb0 2.384 1_655 S
O20 C3 1.255 . S
O21 Eu1 2.366 1_655 S
O21 C3 1.265 . S
C22 O13 1.255 . S
C22 O14 1.265 . S
O23 Tb0 2.479 . S
O23 C10 1.238 . S
O24 Tb0 2.471 . S
O24 C10 1.247 . S
C25 C28 1.380 . S
C25 C29 1.374 . S
C25 C31 1.507 . S
C26 C27 1.387 . S
C26 C30 1.391 . S
C27 C26 1.387 . S
C27 C28 1.384 . S
C27 H36 0.930 . S
C28 C25 1.380 . S
C28 C27 1.384 . S
C28 H37 0.931 . S
C29 C25 1.374 . S
C29 C30 1.390 . S
C29 H38 0.930 . S
C30 C26 1.391 . S
C30 C29 1.390 . S
C30 H39 0.930 . S
C31 Eu1 2.825 1_655 S
C31 O16 1.238 . S
C31 O17 1.247 . S
C31 C25 1.507 . S
H32 C5 0.930 . S
H33 C6 0.931 . S
H34 C7 0.930 . S
H35 C8 0.930 . S
H36 C27 0.930 . S
H37 C28 0.931 . S
H38 C29 0.930 . S
H39 C30 0.930 . S
Tb40 C50 2.825 . S
Tb40 O51 2.347 . S
Tb40 O54 2.366 . S
Tb40 O59 2.418 . S
Tb40 O60 2.384 . S
Tb40 O63 2.479 . S
Tb40 O64 2.471 . S
Eu41 O52 2.418 . S
Eu41 O53 2.384 . S
Eu41 O56 2.479 1_545 S
Eu41 O57 2.471 1_545 S
Eu41 O58 2.347 . S
Eu41 O61 2.359 1_545 S
Eu41 C71 2.825 1_545 S
C42 O58 1.259 . S
C42 O59 1.265 . S
C43 O60 1.251 1_565 S
C43 O61 1.262 . S
C44 C46 1.380 . S
C44 C47 1.374 . S
C44 C50 1.507 . S
C45 C46 1.384 . S
C45 C49 1.387 . S
C45 H72 0.930 . S
C46 C44 1.380 . S
C46 C45 1.384 . S
C46 H73 0.931 . S
C47 C44 1.374 . S
C47 C48 1.390 . S
C47 H74 0.930 . S
C48 C47 1.390 . S
C48 C49 1.391 . S
C48 H75 0.930 . S
C49 C45 1.387 . S
C49 C48 1.391 . S
C50 Tb40 2.825 . S
C50 C44 1.507 . S
C50 O63 1.238 . S
C50 O64 1.247 . S
O51 Tb40 2.347 . S
O51 C55 1.259 . S
O52 Eu41 2.418 . S
O52 C55 1.265 . S
O53 Eu41 2.384 . S
O53 C62 1.255 . S
O54 Tb40 2.366 . S
O54 C62 1.265 . S
C55 O51 1.259 . S
C55 O52 1.265 . S
O56 Eu41 2.479 1_565 S
O56 C71 1.238 . S
O57 Eu41 2.471 1_565 S
O57 C71 1.247 . S
O58 Eu41 2.347 . S
O58 C42 1.259 . S
O59 Tb40 2.418 . S
O59 C42 1.265 . S
O60 Tb40 2.384 . S
O60 C43 1.251 1_545 S
O61 Eu41 2.359 1_565 S
O61 C43 1.262 . S
C62 O53 1.255 . S
C62 O54 1.265 . S
O63 Tb40 2.479 . S
O63 C50 1.238 . S
O64 Tb40 2.471 . S
O64 C50 1.247 . S
C65 C68 1.380 . S
C65 C69 1.374 . S
C65 C71 1.507 . S
C66 C67 1.387 . S
C66 C70 1.391 . S
C67 C66 1.387 . S
C67 C68 1.384 . S
C67 H76 0.930 . S
C68 C65 1.380 . S
C68 C67 1.384 . S
C68 H77 0.931 . S
C69 C65 1.374 . S
C69 C70 1.390 . S
C69 H78 0.930 . S
C70 C66 1.391 . S
C70 C69 1.390 . S
C70 H79 0.930 . S
C71 Eu41 2.825 1_565 S
C71 O56 1.238 . S
C71 O57 1.247 . S
C71 C65 1.507 . S
H72 C45 0.930 . S
H73 C46 0.931 . S
H74 C47 0.930 . S
H75 C48 0.930 . S
H76 C67 0.930 . S
H77 C68 0.931 . S
H78 C69 0.930 . S
H79 C70 0.930 . S
Tb80 C90 2.825 . S
Tb80 O91 2.347 . S
Tb80 O94 2.366 . S
Tb80 O99 2.418 . S
Tb80 O100 2.384 . S
Tb80 O103 2.479 . S
Tb80 O104 2.471 . S
Eu81 O92 2.418 . S
Eu81 O93 2.384 . S
Eu81 O96 2.479 . S
Eu81 O97 2.471 . S
Eu81 O98 2.347 . S
Eu81 O101 2.366 . S
Eu81 C111 2.825 . S
C82 O98 1.259 . S
C82 O99 1.265 . S
C83 O100 1.255 . S
C83 O101 1.265 . S
C84 C86 1.380 . S
C84 C87 1.374 . S
C84 C90 1.507 . S
C85 C86 1.384 . S
C85 C89 1.387 . S
C85 H112 0.930 . S
C86 C84 1.380 . S
C86 C85 1.384 . S
C86 H113 0.931 . S
C87 C84 1.374 . S
C87 C88 1.390 . S
C87 H114 0.930 . S
C88 C87 1.390 . S
C88 C89 1.391 . S
C88 H115 0.930 . S
C89 C85 1.387 . S
C89 C88 1.391 . S
C90 Tb80 2.825 . S
C90 C84 1.507 . S
C90 O103 1.238 . S
C90 O104 1.247 . S
O91 Tb80 2.347 . S
O91 C95 1.259 . S
O92 Eu81 2.418 . S
O92 C95 1.265 . S
O93 Eu81 2.384 . S
O93 C102 1.255 . S
O94 Tb80 2.366 . S
O94 C102 1.265 . S
C95 O91 1.259 . S
C95 O92 1.265 . S
O96 Eu81 2.479 . S
O96 C111 1.238 . S
O97 Eu81 2.471 . S
O97 C111 1.247 . S
O98 Eu81 2.347 . S
O98 C82 1.259 . S
O99 Tb80 2.418 . S
O99 C82 1.265 . S
O100 Tb80 2.384 . S
O100 C83 1.255 . S
O101 Eu81 2.366 . S
O101 C83 1.265 . S
C102 O93 1.255 . S
C102 O94 1.265 . S
O103 Tb80 2.479 . S
O103 C90 1.238 . S
O104 Tb80 2.471 . S
O104 C90 1.247 . S
C105 C108 1.380 . S
C105 C109 1.374 . S
C105 C111 1.507 . S
C106 C107 1.387 . S
C106 C110 1.391 . S
C107 C106 1.387 . S
C107 C108 1.384 . S
C107 H116 0.930 . S
C108 C105 1.380 . S
C108 C107 1.384 . S
C108 H117 0.931 . S
C109 C105 1.374 . S
C109 C110 1.390 . S
C109 H118 0.930 . S
C110 C106 1.391 . S
C110 C109 1.390 . S
C110 H119 0.930 . S
C111 Eu81 2.825 . S
C111 O96 1.238 . S
C111 O97 1.247 . S
C111 C105 1.507 . S
H112 C85 0.930 . S
H113 C86 0.931 . S
H114 C87 0.930 . S
H115 C88 0.930 . S
H116 C107 0.930 . S
H117 C108 0.931 . S
H118 C109 0.930 . S
H119 C110 0.930 . S
H120 C121 0.949 . S
C121 H120 0.949 . S
C121 C122 1.395 . S
C121 C123 1.391 . S
C122 C121 1.395 . S
C122 C125 1.390 . S
C123 C121 1.391 . S
C123 C127 1.387 . S
C123 C128 1.491 . S
H124 C125 0.957 . S
C125 C122 1.390 . S
C125 H124 0.957 . S
C125 C126 1.378 . S
C126 C125 1.378 . S
C126 C127 1.409 . S
C127 C123 1.387 . S
C127 C126 1.409 . S
C127 H129 0.951 . S
C128 C123 1.491 . S
C128 C130 1.382 . S
C128 C132 1.404 . S
H129 C127 0.951 . S
C130 C128 1.382 . S
C130 C131 1.390 . S
C130 H135 0.949 . S
C131 C130 1.390 . S
C131 C136 1.399 . S
C132 C128 1.404 . S
C132 H133 0.950 . S
C132 C134 1.375 . S
H133 C132 0.950 . S
C134 C132 1.375 . S
C134 C136 1.382 . S
C134 H138 0.950 . S
H135 C130 0.949 . S
C136 C131 1.399 . S
C136 C134 1.382 . S
C136 H137 0.952 . S
H137 C136 0.952 . S
H138 C134 0.950 . S
H139 C140 0.949 . S
C140 H139 0.949 . S
C140 C141 1.395 . S
C140 C142 1.391 . S
C141 C140 1.395 . S
C141 C144 1.390 . S
C142 C140 1.391 . S
C142 C146 1.387 . S
C142 C147 1.491 . S
H143 C144 0.950 . S
C144 C141 1.390 . S
C144 H143 0.950 . S
C144 C145 1.378 . S
C145 C144 1.378 . S
C145 C146 1.409 . S
C146 C142 1.387 . S
C146 C145 1.409 . S
C146 H148 0.951 . S
C147 C142 1.491 . S
C147 C149 1.382 . S
C147 C151 1.404 . S
H148 C146 0.951 . S
C149 C147 1.382 . S
C149 C150 1.390 . S
C149 H154 0.949 . S
C150 C149 1.390 . S
C150 C155 1.399 . S
C151 C147 1.404 . S
C151 H152 0.950 . S
C151 C153 1.375 . S
H152 C151 0.950 . S
C153 C151 1.375 . S
C153 C155 1.382 . S
C153 H157 0.950 . S
H154 C149 0.949 . S
C155 C150 1.399 . S
C155 C153 1.382 . S
C155 H156 0.952 . S
H156 C155 0.952 . S
H157 C153 0.950 . S
H158 C159 0.949 . S
C159 H158 0.949 . S
C159 C160 1.395 . S
C159 C161 1.391 . S
C160 C159 1.395 . S
C160 C163 1.390 1_455 S
C161 C159 1.391 . S
C161 C165 1.387 . S
C161 C166 1.491 . S
H162 C163 0.950 . S
C163 C160 1.390 1_655 S
C163 H162 0.950 . S
C163 C164 1.378 . S
C164 C163 1.378 . S
C164 C165 1.409 1_655 S
C165 C161 1.387 . S
C165 C164 1.409 1_455 S
C165 H167 0.949 1_455 S
C166 C161 1.491 . S
C166 C168 1.382 . S
C166 C170 1.404 . S
H167 C165 0.949 1_655 S
C168 C166 1.382 . S
C168 C169 1.390 . S
C168 H173 0.949 . S
C169 C168 1.390 . S
C169 C174 1.399 . S
C170 C166 1.404 . S
C170 H171 0.950 . S
C170 C172 1.375 . S
H171 C170 0.950 . S
C172 C170 1.375 . S
C172 C174 1.382 . S
C172 H176 0.950 . S
H173 C168 0.949 . S
C174 C169 1.399 . S
C174 C172 1.382 . S
C174 H175 0.952 . S
H175 C174 0.952 . S
H176 C172 0.950 . S
H177 C178 0.949 1_655 S
C178 H177 0.949 1_455 S
C178 C179 1.395 . S
C178 C180 1.391 . S
C179 C178 1.395 . S
C179 C182 1.390 . S
C180 C178 1.391 . S
C180 C184 1.387 . S
C180 C185 1.491 1_455 S
H181 C182 0.950 . S
C182 C179 1.390 . S
C182 H181 0.950 . S
C182 C183 1.378 . S
C183 C182 1.378 . S
C183 C184 1.409 . S
C184 C180 1.387 . S
C184 C183 1.409 . S
C184 H186 0.951 . S
C185 C180 1.491 1_655 S
C185 C187 1.382 . S
C185 C189 1.404 . S
H186 C184 0.951 . S
C187 C185 1.382 . S
C187 C188 1.390 . S
C187 H192 0.949 . S
C188 C187 1.390 . S
C188 C193 1.399 . S
C189 C185 1.404 . S
C189 H190 0.950 . S
C189 C191 1.375 . S
H190 C189 0.950 . S
C191 C189 1.375 . S
C191 C193 1.382 . S
C191 H195 0.950 . S
H192 C187 0.949 . S
C193 C188 1.399 . S
C193 C191 1.382 . S
C193 H194 0.952 . S
H194 C193 0.952 . S
H195 C191 0.950 . S
H196 C197 0.949 1_565 S
C197 H196 0.949 1_545 S
C197 C198 1.395 . S
C197 C199 1.391 . S
C198 C197 1.395 . S
C198 C201 1.390 . S
C199 C197 1.391 . S
C199 C203 1.387 . S
C199 C204 1.491 1_545 S
H200 C201 0.950 . S
C201 C198 1.390 . S
C201 H200 0.950 . S
C201 C202 1.378 . S
C202 C201 1.378 . S
C202 C203 1.409 . S
C203 C199 1.387 . S
C203 C202 1.409 . S
C203 H205 0.951 . S
C204 C199 1.491 1_565 S
C204 C206 1.382 . S
C204 C208 1.404 . S
H205 C203 0.951 . S
C206 C204 1.382 . S
C206 C207 1.390 . S
C206 H211 0.949 . S
C207 C206 1.390 . S
C207 C212 1.399 . S
C208 C204 1.404 . S
C208 H209 0.950 . S
C208 C210 1.375 . S
H209 C208 0.950 . S
C210 C208 1.375 . S
C210 C212 1.382 . S
C210 H214 0.950 . S
H211 C206 0.949 . S
C212 C207 1.399 . S
C212 C210 1.382 . S
C212 H213 0.952 . S
H213 C212 0.952 . S
H214 C210 0.950 . S
H215 C216 0.949 . S
C216 H215 0.949 . S
C216 C217 1.395 . S
C216 C218 1.391 . S
C217 C216 1.395 . S
C217 C220 1.390 . S
C218 C216 1.391 . S
C218 C222 1.387 . S
C218 C223 1.491 . S
H219 C220 0.950 . S
C220 C217 1.390 . S
C220 H219 0.950 . S
C220 C221 1.378 . S
C221 C220 1.378 . S
C221 C222 1.409 . S
C222 C218 1.387 . S
C222 C221 1.409 . S
C222 H224 0.951 . S
C223 C218 1.491 . S
C223 C225 1.382 . S
C223 C227 1.404 . S
H224 C222 0.951 . S
C225 C223 1.382 . S
C225 C226 1.390 . S
C225 H230 0.949 . S
C226 C225 1.390 . S
C226 C231 1.399 . S
C227 C223 1.404 . S
C227 H228 0.950 . S
C227 C229 1.375 . S
H228 C227 0.950 . S
C229 C227 1.375 . S
C229 C231 1.382 . S
C229 H233 0.950 . S
H230 C225 0.949 . S
C231 C226 1.399 . S
C231 C229 1.382 . S
C231 H232 0.952 . S
H232 C231 0.952 . S
H233 C229 0.950 . S
H234 C242 0.950 . S
H235 C247 0.950 . S
H236 C244 0.950 . S
H237 C246 0.950 . S
H238 C248 0.950 . S
H239 C250 0.950 . S
H240 C252 0.950 . S
H241 C253 0.950 . S
C242 H234 0.950 . S
C242 C243 1.386 . S
C242 C244 1.391 . S
C243 C242 1.386 . S
C243 C247 1.393 . S
C244 H236 0.950 . S
C244 C242 1.391 . S
C244 C245 1.400 . S
C245 C244 1.400 . S
C245 C246 1.398 . S
C245 C251 1.491 . S
C246 H237 0.950 . S
C246 C245 1.398 . S
C246 C247 1.391 . S
C247 H235 0.950 . S
C247 C243 1.393 . S
C247 C246 1.391 . S
C248 H238 0.950 . S
C248 C249 1.386 . S
C248 C250 1.391 . S
C249 C248 1.386 . S
C249 C253 1.393 . S
C250 H239 0.950 . S
C250 C248 1.391 . S
C250 C251 1.400 . S
C251 C245 1.491 . S
C251 C250 1.400 . S
C251 C252 1.398 . S
C252 H240 0.950 . S
C252 C251 1.398 . S
C252 C253 1.391 . S
C253 H241 0.950 . S
C253 C249 1.393 . S
C253 C252 1.391 . S
H254 C262 0.950 . S
H255 C267 0.950 . S
H256 C264 0.950 . S
H257 C266 0.950 . S
H258 C268 0.950 . S
H259 C270 0.950 . S
H260 C272 0.950 . S
H261 C273 0.950 . S
C262 H254 0.950 . S
C262 C263 1.386 . S
C262 C264 1.391 . S
C263 C262 1.386 . S
C263 C267 1.393 . S
C264 H256 0.950 . S
C264 C262 1.391 . S
C264 C265 1.400 . S
C265 C264 1.400 . S
C265 C266 1.398 . S
C265 C271 1.491 . S
C266 H257 0.950 . S
C266 C265 1.398 . S
C266 C267 1.391 . S
C267 H255 0.950 . S
C267 C263 1.393 . S
C267 C266 1.391 . S
C268 H258 0.950 . S
C268 C269 1.386 . S
C268 C270 1.391 . S
C269 C268 1.386 . S
C269 C273 1.393 . S
C270 H259 0.950 . S
C270 C268 1.391 . S
C270 C271 1.400 . S
C271 C265 1.491 . S
C271 C270 1.400 . S
C271 C272 1.398 . S
C272 H260 0.950 . S
C272 C271 1.398 . S
C272 C273 1.391 . S
C273 H261 0.950 . S
C273 C269 1.393 . S
C273 C272 1.391 . S
H274 C282 0.950 . S
H275 C287 0.950 . S
H276 C284 0.950 . S
H277 C286 0.950 . S
H278 C288 0.950 . S
H279 C290 0.950 . S
H280 C292 0.950 . S
H281 C293 0.950 . S
C282 H274 0.950 . S
C282 C283 1.386 . S
C282 C284 1.391 . S
C283 C282 1.386 . S
C283 C287 1.393 . S
C284 H276 0.950 . S
C284 C282 1.391 . S
C284 C285 1.400 . S
C285 C284 1.400 . S
C285 C286 1.398 . S
C285 C291 1.491 . S
C286 H277 0.950 . S
C286 C285 1.398 . S
C286 C287 1.391 . S
C287 H275 0.950 . S
C287 C283 1.393 . S
C287 C286 1.391 . S
C288 H278 0.950 . S
C288 C289 1.386 . S
C288 C290 1.391 . S
C289 C288 1.386 . S
C289 C293 1.393 . S
C290 H279 0.950 . S
C290 C288 1.391 . S
C290 C291 1.400 . S
C291 C285 1.491 . S
C291 C290 1.400 . S
C291 C292 1.398 . S
C292 H280 0.950 . S
C292 C291 1.398 . S
C292 C293 1.391 . S
C293 H281 0.950 . S
C293 C289 1.393 . S
C293 C292 1.391 . S
H294 C302 0.950 . S
H295 C307 0.950 . S
H296 C304 0.950 . S
H297 C306 0.950 . S
H298 C308 0.950 . S
H299 C310 0.950 . S
H300 C312 0.950 . S
H301 C313 0.950 . S
C302 H294 0.950 . S
C302 C303 1.386 . S
C302 C304 1.391 . S
C303 C302 1.386 . S
C303 C307 1.393 . S
C304 H296 0.950 . S
C304 C302 1.391 . S
C304 C305 1.400 . S
C305 C304 1.400 . S
C305 C306 1.398 . S
C305 C311 1.491 . S
C306 H297 0.950 . S
C306 C305 1.398 . S
C306 C307 1.391 . S
C307 H295 0.950 . S
C307 C303 1.393 . S
C307 C306 1.391 . S
C308 H298 0.950 . S
C308 C309 1.386 . S
C308 C310 1.391 . S
C309 C308 1.386 . S
C309 C313 1.393 . S
C310 H299 0.950 . S
C310 C308 1.391 . S
C310 C311 1.400 . S
C311 C305 1.491 . S
C311 C310 1.400 . S
C311 C312 1.398 . S
C312 H300 0.950 . S
C312 C311 1.398 . S
C312 C313 1.391 . S
C313 H301 0.950 . S
C313 C309 1.393 . S
C313 C312 1.391 . S
H314 C322 0.950 . S
H315 C327 0.950 . S
H316 C324 0.950 . S
H317 C326 0.950 . S
H318 C328 0.950 . S
H319 C330 0.950 . S
H320 C332 0.950 . S
H321 C333 0.950 . S
C322 H314 0.950 . S
C322 C323 1.386 . S
C322 C324 1.391 . S
C323 C322 1.386 . S
C323 C327 1.393 . S
C324 H316 0.950 . S
C324 C322 1.391 . S
C324 C325 1.400 . S
C325 C324 1.400 . S
C325 C326 1.398 . S
C325 C331 1.491 . S
C326 H317 0.950 . S
C326 C325 1.398 . S
C326 C327 1.391 . S
C327 H315 0.950 . S
C327 C323 1.393 . S
C327 C326 1.391 . S
C328 H318 0.950 . S
C328 C329 1.386 . S
C328 C330 1.391 . S
C329 C328 1.386 . S
C329 C333 1.393 . S
C330 H319 0.950 . S
C330 C328 1.391 . S
C330 C331 1.400 . S
C331 C325 1.491 . S
C331 C330 1.400 . S
C331 C332 1.398 . S
C332 H320 0.950 . S
C332 C331 1.398 . S
C332 C333 1.391 . S
C333 H321 0.950 . S
C333 C329 1.393 . S
C333 C332 1.391 . S
H334 C342 0.950 . S
H335 C347 0.950 . S
H336 C344 0.950 . S
H337 C346 0.950 . S
H338 C348 0.950 . S
H339 C350 0.950 . S
H340 C352 0.950 . S
H341 C353 0.950 . S
C342 H334 0.950 . S
C342 C343 1.386 . S
C342 C344 1.391 . S
C343 C342 1.386 . S
C343 C347 1.393 . S
C344 H336 0.950 . S
C344 C342 1.391 . S
C344 C345 1.400 . S
C345 C344 1.400 . S
C345 C346 1.398 . S
C345 C351 1.491 . S
C346 H337 0.950 . S
C346 C345 1.398 . S
C346 C347 1.391 . S
C347 H335 0.950 . S
C347 C343 1.393 . S
C347 C346 1.391 . S
C348 H338 0.950 . S
C348 C349 1.386 . S
C348 C350 1.391 . S
C349 C348 1.386 . S
C349 C353 1.393 . S
C350 H339 0.950 . S
C350 C348 1.391 . S
C350 C351 1.400 . S
C351 C345 1.491 . S
C351 C350 1.400 . S
C351 C352 1.398 . S
C352 H340 0.950 . S
C352 C351 1.398 . S
C352 C353 1.391 . S
C353 H341 0.950 . S
C353 C349 1.393 . S
C353 C352 1.391 . S
H354 C362 0.950 . S
H355 C367 0.950 . S
H356 C364 0.950 . S
H357 C366 0.950 . S
H358 C368 0.950 . S
H359 C370 0.950 . S
H360 C372 0.950 . S
H361 C373 0.950 . S
C362 H354 0.950 . S
C362 C363 1.386 . S
C362 C364 1.391 . S
C363 C362 1.386 . S
C363 C367 1.393 . S
C364 H356 0.950 . S
C364 C362 1.391 . S
C364 C365 1.400 . S
C365 C364 1.400 . S
C365 C366 1.398 . S
C365 C371 1.491 . S
C366 H357 0.950 . S
C366 C365 1.398 . S
C366 C367 1.391 . S
C367 H355 0.950 . S
C367 C363 1.393 . S
C367 C366 1.391 . S
C368 H358 0.950 . S
C368 C369 1.386 . S
C368 C370 1.391 . S
C369 C368 1.386 . S
C369 C373 1.393 . S
C370 H359 0.950 . S
C370 C368 1.391 . S
C370 C371 1.400 . S
C371 C365 1.491 . S
C371 C370 1.400 . S
C371 C372 1.398 . S
C372 H360 0.950 . S
C372 C371 1.398 . S
C372 C373 1.391 . S
C373 H361 0.950 . S
C373 C369 1.393 . S
C373 C372 1.391 . S
H374 C382 0.950 . S
H375 C387 0.950 . S
H376 C384 0.950 . S
H377 C386 0.950 . S
H378 C388 0.950 . S
H379 C390 0.950 . S
H380 C392 0.950 . S
H381 C393 0.950 . S
C382 H374 0.950 . S
C382 C383 1.386 . S
C382 C384 1.391 . S
C383 C382 1.386 . S
C383 C387 1.393 . S
C384 H376 0.950 . S
C384 C382 1.391 . S
C384 C385 1.400 . S
C385 C384 1.400 . S
C385 C386 1.398 . S
C385 C391 1.491 . S
C386 H377 0.950 . S
C386 C385 1.398 . S
C386 C387 1.391 . S
C387 H375 0.950 . S
C387 C383 1.393 . S
C387 C386 1.391 . S
C388 H378 0.950 . S
C388 C389 1.386 . S
C388 C390 1.391 . S
C389 C388 1.386 . S
C389 C393 1.393 . S
C390 H379 0.950 . S
C390 C388 1.391 . S
C390 C391 1.400 . S
C391 C385 1.491 . S
C391 C390 1.400 . S
C391 C392 1.398 . S
C392 H380 0.950 . S
C392 C391 1.398 . S
C392 C393 1.391 . S
C393 H381 0.950 . S
C393 C389 1.393 . S
C393 C392 1.391 . S
H394 C402 0.950 . S
H395 C407 0.950 . S
H396 C404 0.950 . S
H397 C406 0.950 . S
H398 C408 0.950 . S
H399 C410 0.950 . S
H400 C412 0.950 . S
H401 C413 0.950 . S
C402 H394 0.950 . S
C402 C403 1.386 . S
C402 C404 1.391 . S
C403 C402 1.386 . S
C403 C407 1.393 . S
C404 H396 0.950 . S
C404 C402 1.391 . S
C404 C405 1.400 . S
C405 C404 1.400 . S
C405 C406 1.398 . S
C405 C411 1.491 . S
C406 H397 0.950 . S
C406 C405 1.398 . S
C406 C407 1.391 . S
C407 H395 0.950 . S
C407 C403 1.393 . S
C407 C406 1.391 . S
C408 H398 0.950 . S
C408 C409 1.386 . S
C408 C410 1.391 . S
C409 C408 1.386 . S
C409 C413 1.393 . S
C410 H399 0.950 . S
C410 C408 1.391 . S
C410 C411 1.400 . S
C411 C405 1.491 . S
C411 C410 1.400 . S
C411 C412 1.398 . S
C412 H400 0.950 . S
C412 C411 1.398 . S
C412 C413 1.391 . S
C413 H401 0.950 . S
C413 C409 1.393 . S
C413 C412 1.391 . S
H414 C422 0.950 . S
H415 C427 0.950 . S
H416 C424 0.950 . S
H417 C426 0.950 . S
H418 C428 0.950 . S
H419 C430 0.950 . S
H420 C432 0.950 . S
H421 C433 0.950 . S
C422 H414 0.950 . S
C422 C423 1.386 . S
C422 C424 1.391 . S
C423 C422 1.386 . S
C423 C427 1.393 . S
C424 H416 0.950 . S
C424 C422 1.391 . S
C424 C425 1.400 . S
C425 C424 1.400 . S
C425 C426 1.398 . S
C425 C431 1.491 . S
C426 H417 0.950 . S
C426 C425 1.398 . S
C426 C427 1.391 . S
C427 H415 0.950 . S
C427 C423 1.393 . S
C427 C426 1.391 . S
C428 H418 0.950 . S
C428 C429 1.386 . S
C428 C430 1.391 . S
C429 C428 1.386 . S
C429 C433 1.393 . S
C430 H419 0.950 . S
C430 C428 1.391 . S
C430 C431 1.400 . S
C431 C425 1.491 . S
C431 C430 1.400 . S
C431 C432 1.398 . S
C432 H420 0.950 . S
C432 C431 1.398 . S
C432 C433 1.391 . S
C433 H421 0.950 . S
C433 C429 1.393 . S
C433 C432 1.391 . S
H434 C442 0.950 . S
H435 C447 0.950 . S
H436 C444 0.950 . S
H437 C446 0.950 . S
H438 C448 0.950 . S
H439 C450 0.950 . S
H440 C452 0.950 . S
H441 C453 0.950 . S
C442 H434 0.950 . S
C442 C443 1.386 . S
C442 C444 1.391 . S
C443 C442 1.386 . S
C443 C447 1.393 . S
C444 H436 0.950 . S
C444 C442 1.391 . S
C444 C445 1.400 . S
C445 C444 1.400 . S
C445 C446 1.398 . S
C445 C451 1.491 . S
C446 H437 0.950 . S
C446 C445 1.398 . S
C446 C447 1.391 . S
C447 H435 0.950 . S
C447 C443 1.393 . S
C447 C446 1.391 . S
C448 H438 0.950 . S
C448 C449 1.386 . S
C448 C450 1.391 . S
C449 C448 1.386 . S
C449 C453 1.393 . S
C450 H439 0.950 . S
C450 C448 1.391 . S
C450 C451 1.400 . S
C451 C445 1.491 . S
C451 C450 1.400 . S
C451 C452 1.398 . S
C452 H440 0.950 . S
C452 C451 1.398 . S
C452 C453 1.391 . S
C453 H441 0.950 . S
C453 C449 1.393 . S
C453 C452 1.391 . S
H454 C462 0.950 . S
H455 C467 0.950 . S
H456 C464 0.950 . S
H457 C466 0.950 . S
H458 C468 0.950 . S
H459 C470 0.950 . S
H460 C472 0.950 . S
H461 C473 0.950 . S
C462 H454 0.950 . S
C462 C463 1.386 . S
C462 C464 1.391 . S
C463 C462 1.386 . S
C463 C467 1.393 . S
C464 H456 0.950 . S
C464 C462 1.391 . S
C464 C465 1.400 . S
C465 C464 1.400 . S
C465 C466 1.398 . S
C465 C471 1.491 . S
C466 H457 0.950 . S
C466 C465 1.398 . S
C466 C467 1.391 . S
C467 H455 0.950 . S
C467 C463 1.393 . S
C467 C466 1.391 . S
C468 H458 0.950 . S
C468 C469 1.386 . S
C468 C470 1.391 . S
C469 C468 1.386 . S
C469 C473 1.393 . S
C470 H459 0.950 . S
C470 C468 1.391 . S
C470 C471 1.400 . S
C471 C465 1.491 . S
C471 C470 1.400 . S
C471 C472 1.398 . S
C472 H460 0.950 . S
C472 C471 1.398 . S
C472 C473 1.391 . S
C473 H461 0.950 . S
C473 C469 1.393 . S
C473 C472 1.391 . S
H474 C482 0.950 . S
H475 C487 0.950 . S
H476 C484 0.950 . S
H477 C486 0.950 . S
H478 C488 0.950 . S
H479 C490 0.950 . S
H480 C492 0.950 . S
H481 C493 0.950 . S
C482 H474 0.950 . S
C482 C483 1.386 . S
C482 C484 1.391 . S
C483 C482 1.386 . S
C483 C487 1.393 . S
C484 H476 0.950 . S
C484 C482 1.391 . S
C484 C485 1.400 . S
C485 C484 1.400 . S
C485 C486 1.398 . S
C485 C491 1.491 1_554 S
C486 H477 0.950 . S
C486 C485 1.398 . S
C486 C487 1.391 . S
C487 H475 0.950 . S
C487 C483 1.393 . S
C487 C486 1.391 . S
C488 H478 0.950 . S
C488 C489 1.386 . S
C488 C490 1.391 . S
C489 C488 1.386 . S
C489 C493 1.393 . S
C490 H479 0.950 . S
C490 C488 1.391 . S
C490 C491 1.400 . S
C491 C485 1.491 1_556 S
C491 C490 1.400 . S
C491 C492 1.398 . S
C492 H480 0.950 . S
C492 C491 1.398 . S
C492 C493 1.391 . S
C493 H481 0.950 . S
C493 C489 1.393 . S
C493 C492 1.391 . S
H494 C502 0.950 . S
H495 C507 0.950 . S
H496 C504 0.950 . S
H497 C506 0.950 . S
H498 C508 0.950 . S
H499 C510 0.950 . S
H500 C512 0.950 . S
H501 C513 0.950 . S
C502 H494 0.950 . S
C502 C503 1.386 . S
C502 C504 1.391 . S
C503 C502 1.386 . S
C503 C507 1.393 . S
C504 H496 0.950 . S
C504 C502 1.391 . S
C504 C505 1.400 . S
C505 C504 1.400 . S
C505 C506 1.398 . S
C505 C511 1.491 . S
C506 H497 0.950 . S
C506 C505 1.398 . S
C506 C507 1.391 . S
C507 H495 0.950 . S
C507 C503 1.393 . S
C507 C506 1.391 . S
C508 H498 0.950 . S
C508 C509 1.386 . S
C508 C510 1.391 . S
C509 C508 1.386 . S
C509 C513 1.393 . S
C510 H499 0.950 . S
C510 C508 1.391 . S
C510 C511 1.400 . S
C511 C505 1.491 . S
C511 C510 1.400 . S
C511 C512 1.398 . S
C512 H500 0.950 . S
C512 C511 1.398 . S
C512 C513 1.391 . S
C513 H501 0.950 . S
C513 C509 1.393 . S
C513 C512 1.391 . S
H514 C522 0.950 . S
H515 C527 0.950 . S
H516 C524 0.950 . S
H517 C526 0.950 . S
H518 C528 0.950 . S
H519 C530 0.950 . S
H520 C532 0.950 . S
H521 C533 0.950 . S
C522 H514 0.950 . S
C522 C523 1.386 . S
C522 C524 1.391 . S
C523 C522 1.386 . S
C523 C527 1.393 . S
C524 H516 0.950 . S
C524 C522 1.391 . S
C524 C525 1.400 . S
C525 C524 1.400 . S
C525 C526 1.398 . S
C525 C531 1.491 . S
C526 H517 0.950 . S
C526 C525 1.398 . S
C526 C527 1.391 . S
C527 H515 0.950 . S
C527 C523 1.393 . S
C527 C526 1.391 . S
C528 H518 0.950 . S
C528 C529 1.386 . S
C528 C530 1.391 . S
C529 C528 1.386 . S
C529 C533 1.393 . S
C530 H519 0.950 . S
C530 C528 1.391 . S
C530 C531 1.400 . S
C531 C525 1.491 . S
C531 C530 1.400 . S
C531 C532 1.398 . S
C532 H520 0.950 . S
C532 C531 1.398 . S
C532 C533 1.391 . S
C533 H521 0.950 . S
C533 C529 1.393 . S
C533 C532 1.391 . S
H534 C542 0.950 . S
H535 C547 0.950 . S
H536 C544 0.950 . S
H537 C546 0.950 . S
H538 C548 0.950 . S
H539 C550 0.950 . S
H540 C552 0.950 . S
H541 C553 0.950 . S
C542 H534 0.950 . S
C542 C543 1.386 . S
C542 C544 1.391 . S
C543 C542 1.386 . S
C543 C547 1.393 . S
C544 H536 0.950 . S
C544 C542 1.391 . S
C544 C545 1.400 . S
C545 C544 1.400 . S
C545 C546 1.398 . S
C545 C551 1.491 . S
C546 H537 0.950 . S
C546 C545 1.398 . S
C546 C547 1.391 . S
C547 H535 0.950 . S
C547 C543 1.393 . S
C547 C546 1.391 . S
C548 H538 0.950 . S
C548 C549 1.386 . S
C548 C550 1.391 . S
C549 C548 1.386 . S
C549 C553 1.393 . S
C550 H539 0.950 . S
C550 C548 1.391 . S
C550 C551 1.400 . S
C551 C545 1.491 . S
C551 C550 1.400 . S
C551 C552 1.398 . S
C552 H540 0.950 . S
C552 C551 1.398 . S
C552 C553 1.391 . S
C553 H541 0.950 . S
C553 C549 1.393 . S
C553 C552 1.391 . S
H554 C562 0.950 . S
H555 C567 0.950 . S
H556 C564 0.950 . S
H557 C566 0.950 . S
H558 C568 0.950 . S
H559 C570 0.950 . S
H560 C572 0.950 1_556 S
H561 C573 0.950 . S
C562 H554 0.950 . S
C562 C563 1.386 . S
C562 C564 1.391 . S
C563 C562 1.386 . S
C563 C567 1.393 . S
C564 H556 0.950 . S
C564 C562 1.391 . S
C564 C565 1.400 . S
C565 C564 1.400 . S
C565 C566 1.398 . S
C565 C571 1.471 1_556 S
C566 H557 0.950 . S
C566 C565 1.398 . S
C566 C567 1.391 . S
C567 H555 0.950 . S
C567 C563 1.393 . S
C567 C566 1.391 . S
C568 H558 0.950 . S
C568 C569 1.386 . S
C568 C570 1.391 . S
C569 C568 1.386 . S
C569 C573 1.393 . S
C570 H559 0.950 . S
C570 C568 1.391 . S
C570 C571 1.412 . S
C571 C565 1.471 1_554 S
C571 C570 1.412 . S
C571 C572 1.407 . S
C572 H560 0.950 1_554 S
C572 C571 1.407 . S
C572 C573 1.391 . S
C573 H561 0.950 . S
C573 C569 1.393 . S
C573 C572 1.391 . S
H574 C582 0.950 1_655 S
H575 C587 0.950 . S
H576 C584 0.950 1_655 S
H577 C586 0.950 . S
H578 C588 0.950 . S
H579 C590 0.950 . S
H580 C592 0.950 1_655 S
H581 C593 0.955 . S
C582 H574 0.950 1_455 S
C582 C583 1.386 . S
C582 C584 1.391 . S
C583 C582 1.386 . S
C583 C587 1.393 . S
C584 H576 0.950 1_455 S
C584 C582 1.391 . S
C584 C585 1.400 . S
C585 C584 1.400 . S
C585 C586 1.398 . S
C585 C591 1.491 . S
C586 H577 0.950 . S
C586 C585 1.398 . S
C586 C587 1.391 . S
C587 H575 0.950 . S
C587 C583 1.393 . S
C587 C586 1.391 . S
C588 H578 0.950 . S
C588 C589 1.386 . S
C588 C590 1.391 . S
C589 C588 1.386 . S
C589 C593 1.389 1_455 S
C590 H579 0.950 . S
C590 C588 1.391 . S
C590 C591 1.400 . S
C591 C585 1.491 . S
C591 C590 1.400 . S
C591 C592 1.398 . S
C592 H580 0.950 1_455 S
C592 C591 1.398 . S
C592 C593 1.390 1_455 S
C593 H581 0.955 . S
C593 C589 1.389 1_655 S
C593 C592 1.390 1_655 S
C243 C9 0.648 . S
C249 C226 0.688 . S
C263 C49 0.435 . S
C269 C188 0.538 . S
C283 C89 0.360 . S
C289 C207 0.491 . S
C303 C26 0.241 . S
C309 C221 0.259 . S
C329 C183 0.187 . S
C323 C66 0.222 . S
C349 C202 0.184 . S
C343 C106 0.275 . S
C363 C43 3.114 . S
C369 C150 3.009 . S
C383 C83 3.018 . S
C389 C164 2.968 . S
C403 C22 3.061 . S
C409 C126 3.007 1_565 S
C429 C145 3.002 . S
C423 C62 3.053 . S
C449 C169 3.032 . S
C443 C102 3.125 . S
C463 C3 3.101 . S
C469 C131 3.013 . S
C489 C160 1.722 . S
C483 C15 1.710 . S
C503 C55 1.747 . S
C509 C122 1.743 . S
C523 C95 1.722 . S
C529 C141 1.745 . S
C549 C198 1.333 . S
C543 C42 1.303 . S
C569 C217 1.343 . S
C563 C82 1.335 . S
C583 C2 1.269 . S
C589 C179 1.305 . S
