# Generated by pormake.
# Topology wbl, (4,4)-cn, num edge types: 1
# Building blocks:
#     Node 0, Type 0, BuildingBlock: MUDLON_clean_linker_0, # of connection points: 4
#     Node 1, Type 0, BuildingBlock: MUDLON_clean_linker_0, # of connection points: 4
#     Node 2, Type 0, BuildingBlock: MUDLON_clean_linker_0, # of connection points: 4
#     Node 3, Type 0, BuildingBlock: MUDLON_clean_linker_0, # of connection points: 4
#     Node 4, Type 0, BuildingBlock: MUDLON_clean_linker_0, # of connection points: 4
#     Node 5, Type 0, BuildingBlock: MUDLON_clean_linker_0, # of connection points: 4
#     Node 6, Type 0, BuildingBlock: MUDLON_clean_linker_0, # of connection points: 4
#     Node 7, Type 0, BuildingBlock: MUDLON_clean_linker_0, # of connection points: 4
#     Node 8, Type 1, BuildingBlock: QUQFOY_clean_sbu_1, # of connection points: 4
#     Node 9, Type 1, BuildingBlock: QUQFOY_clean_sbu_1, # of connection points: 4
#     Node 10, Type 1, BuildingBlock: QUQFOY_clean_sbu_1, # of connection points: 4
#     Node 11, Type 1, BuildingBlock: QUQFOY_clean_sbu_1, # of connection points: 4
#     Node 12, Type 1, BuildingBlock: QUQFOY_clean_sbu_1, # of connection points: 4
#     Node 13, Type 1, BuildingBlock: QUQFOY_clean_sbu_1, # of connection points: 4
#     Node 14, Type 1, BuildingBlock: QUQFOY_clean_sbu_1, # of connection points: 4
#     Node 15, Type 1, BuildingBlock: QUQFOY_clean_sbu_1, # of connection points: 4
#     Edge 16, Type (0, 1), BuildingBlock: CIFDUS_clean_linker_0, # of connection points: 2
#     Edge 17, Type (0, 1), BuildingBlock: CIFDUS_clean_linker_0, # of connection points: 2
#     Edge 18, Type (0, 1), BuildingBlock: CIFDUS_clean_linker_0, # of connection points: 2
#     Edge 19, Type (0, 1), BuildingBlock: CIFDUS_clean_linker_0, # of connection points: 2
#     Edge 20, Type (0, 1), BuildingBlock: CIFDUS_clean_linker_0, # of connection points: 2
#     Edge 21, Type (0, 1), BuildingBlock: CIFDUS_clean_linker_0, # of connection points: 2
#     Edge 22, Type (0, 1), BuildingBlock: CIFDUS_clean_linker_0, # of connection points: 2
#     Edge 23, Type (0, 1), BuildingBlock: CIFDUS_clean_linker_0, # of connection points: 2
#     Edge 24, Type (0, 1), BuildingBlock: CIFDUS_clean_linker_0, # of connection points: 2
#     Edge 25, Type (0, 1), BuildingBlock: CIFDUS_clean_linker_0, # of connection points: 2
#     Edge 26, Type (0, 1), BuildingBlock: CIFDUS_clean_linker_0, # of connection points: 2
#     Edge 27, Type (0, 1), BuildingBlock: CIFDUS_clean_linker_0, # of connection points: 2
#     Edge 28, Type (0, 1), BuildingBlock: CIFDUS_clean_linker_0, # of connection points: 2
#     Edge 29, Type (0, 1), BuildingBlock: CIFDUS_clean_linker_0, # of connection points: 2
#     Edge 30, Type (0, 1), BuildingBlock: CIFDUS_clean_linker_0, # of connection points: 2
#     Edge 31, Type (0, 1), BuildingBlock: CIFDUS_clean_linker_0, # of connection points: 2
#     Edge 32, Type (0, 1), BuildingBlock: CIFDUS_clean_linker_0, # of connection points: 2
#     Edge 33, Type (0, 1), BuildingBlock: CIFDUS_clean_linker_0, # of connection points: 2
#     Edge 34, Type (0, 1), BuildingBlock: CIFDUS_clean_linker_0, # of connection points: 2
#     Edge 35, Type (0, 1), BuildingBlock: CIFDUS_clean_linker_0, # of connection points: 2
#     Edge 36, Type (0, 1), BuildingBlock: CIFDUS_clean_linker_0, # of connection points: 2
#     Edge 37, Type (0, 1), BuildingBlock: CIFDUS_clean_linker_0, # of connection points: 2
#     Edge 38, Type (0, 1), BuildingBlock: CIFDUS_clean_linker_0, # of connection points: 2
#     Edge 39, Type (0, 1), BuildingBlock: CIFDUS_clean_linker_0, # of connection points: 2
#     Edge 40, Type (0, 1), BuildingBlock: CIFDUS_clean_linker_0, # of connection points: 2
#     Edge 41, Type (0, 1), BuildingBlock: CIFDUS_clean_linker_0, # of connection points: 2
#     Edge 42, Type (0, 1), BuildingBlock: CIFDUS_clean_linker_0, # of connection points: 2
#     Edge 43, Type (0, 1), BuildingBlock: CIFDUS_clean_linker_0, # of connection points: 2
#     Edge 44, Type (0, 1), BuildingBlock: CIFDUS_clean_linker_0, # of connection points: 2
#     Edge 45, Type (0, 1), BuildingBlock: CIFDUS_clean_linker_0, # of connection points: 2
#     Edge 46, Type (0, 1), BuildingBlock: CIFDUS_clean_linker_0, # of connection points: 2
#     Edge 47, Type (0, 1), BuildingBlock: CIFDUS_clean_linker_0, # of connection points: 2
# Relax obj value: 0.141
# Max RMSD: 0.211
# Mean RMSD: 0.163
data_MOF--net-wbl--node1-QUQFOY_clean_sbu_1--node2-MUDLON_clean_linker_0--edge1-CIFDUS_clean_linker_0
_symmetry_space_group_name_H-M    P1
_symmetry_Int_Tables_number       1
_symmetry_cell_setting            triclinic
loop_
_symmetry_equiv_pos_as_xyz
'x, y, z'
_cell_length_a     48.791772
_cell_length_b     48.808327
_cell_length_c     71.742749
_cell_angle_alpha  93.479788
_cell_angle_beta   93.461755
_cell_angle_gamma 90.128303
loop_
_atom_site_label
_atom_site_type_symbol
_atom_site_fract_x
_atom_site_fract_y
_atom_site_fract_z
_atom_type_partial_charge
H0 H 0.21088 0.99185 0.33845 0.0
N1 N 0.1594 0.97932 0.32273 0.0
H2 H 0.22704 0.98677 0.37101 0.0
H3 H 0.13042 0.9634 0.35041 0.0
H4 H 0.14637 0.95893 0.38319 0.0
H5 H 0.16425 0.92648 0.3137 0.0
H6 H 0.20009 0.90402 0.29662 0.0
H7 H 0.19593 0.0056 0.30194 0.0
H8 H 0.23093 0.98339 0.28344 0.0
H9 H 0.17694 0.03216 0.33155 0.0
H10 H 0.10999 0.9832 0.30554 0.0
H11 H 0.14776 0.07258 0.33207 0.0
H12 H 0.08097 0.02391 0.30483 0.0
H13 H 0.02493 0.18934 0.35315 0.0
H14 H 0.01188 0.19896 0.38508 0.0
H15 H 0.03986 0.11838 0.39918 0.0
H16 H 0.05101 0.10823 0.36723 0.0
H17 H 0.99238 0.11666 0.34664 0.0
H18 H 0.94677 0.12192 0.33173 0.0
H19 H 0.98101 0.17059 0.29032 0.0
H20 H 0.02676 0.16592 0.30585 0.0
H21 H 0.09088 0.14481 0.32652 0.0
H22 H 0.12165 0.10709 0.31792 0.0
H23 H 0.05809 0.04881 0.328 0.0
N24 N 0.03976 0.14136 0.33735 0.0
H25 H 0.02757 0.08628 0.33573 0.0
C26 C 0.16945 0.9775 0.34195 0.0
C27 C 0.19668 0.98449 0.34806 0.0
C28 C 0.20591 0.98164 0.36665 0.0
C29 C 0.18794 0.97241 0.37952 0.0
C30 C 0.16057 0.96624 0.37353 0.0
C31 C 0.15148 0.96864 0.35488 0.0
C32 C 0.1773 0.96758 0.30912 0.0
C33 C 0.17841 0.93896 0.30676 0.0
C34 C 0.19897 0.92616 0.29681 0.0
C35 C 0.21881 0.94173 0.28856 0.0
C36 C 0.21652 0.9706 0.28989 0.0
C37 C 0.19618 0.98343 0.30027 0.0
C38 C 0.14537 0.00449 0.31885 0.0
C39 C 0.15617 0.03028 0.32541 0.0
C40 C 0.1394 0.0535 0.32559 0.0
C41 C 0.11168 0.05148 0.3189 0.0
C42 C 0.1019 0.02612 0.31067 0.0
C43 C 0.11854 0.00287 0.31079 0.0
C44 C 0.03835 0.14791 0.35731 0.0
C45 C 0.02864 0.1739 0.36321 0.0
C46 C 0.02129 0.17941 0.38159 0.0
C47 C 0.02418 0.15923 0.39475 0.0
C48 C 0.03633 0.1341 0.3893 0.0
C49 C 0.04302 0.12833 0.37081 0.0
C50 C 0.01307 0.14113 0.3274 0.0
C51 C 0.9902 0.12813 0.33419 0.0
C52 C 0.96405 0.13107 0.32557 0.0
C53 C 0.96012 0.14685 0.30988 0.0
C54 C 0.98321 0.15872 0.30259 0.0
C55 C 0.00939 0.1559 0.31131 0.0
C56 C 0.05697 0.11855 0.3318 0.0
C57 C 0.08362 0.12384 0.32664 0.0
C58 C 0.10118 0.10224 0.32182 0.0
C59 C 0.09244 0.07477 0.3222 0.0
C60 C 0.06546 0.06959 0.32707 0.0
C61 C 0.04789 0.09115 0.33166 0.0
H62 H 0.03438 0.47777 0.61914 0.0
N63 N 0.01409 0.5086 0.59235 0.0
H64 H 0.01373 0.46821 0.64838 0.0
H65 H 0.96809 0.53296 0.60608 0.0
H66 H 0.94781 0.5241 0.63525 0.0
H67 H 0.96073 0.49407 0.58225 0.0
H68 H 0.94601 0.45432 0.56248 0.0
H69 H 0.04446 0.48031 0.56837 0.0
H70 H 0.0296 0.44204 0.54665 0.0
H71 H 0.0658 0.52503 0.59184 0.0
H72 H 0.98272 0.5515 0.58081 0.0
H73 H 0.08273 0.57053 0.58624 0.0
H74 H 0.99868 0.59808 0.57793 0.0
H75 H 0.12352 0.71937 0.60667 0.0
H76 H 0.13964 0.7264 0.63887 0.0
H77 H 0.05992 0.70275 0.65612 0.0
H78 H 0.04288 0.69833 0.62332 0.0
H79 H 0.05949 0.75428 0.58544 0.0
H80 H 0.08716 0.78569 0.56928 0.0
H81 H 0.14173 0.71918 0.55455 0.0
H82 H 0.11449 0.68817 0.57159 0.0
H83 H 0.10305 0.6595 0.60322 0.0
H84 H 0.08966 0.61185 0.59987 0.0
H85 H 0.01805 0.63303 0.56503 0.0
N86 N 0.07132 0.70311 0.59301 0.0
H87 H 0.03028 0.68143 0.57057 0.0
C88 C 0.00306 0.50616 0.61041 0.0
C89 C 0.01573 0.48827 0.62277 0.0
C90 C 0.00392 0.48291 0.63947 0.0
C91 C 0.97904 0.49534 0.64412 0.0
C92 C 0.96681 0.51396 0.63199 0.0
C93 C 0.97867 0.51933 0.61533 0.0
C94 C 0.00395 0.48959 0.57735 0.0
C95 C 0.97593 0.48291 0.57454 0.0
C96 C 0.96744 0.46014 0.56285 0.0
C97 C 0.98663 0.44412 0.55311 0.0
C98 C 0.01426 0.45293 0.55443 0.0
C99 C 0.02282 0.47513 0.56663 0.0
C100 C 0.02306 0.53524 0.5876 0.0
C101 C 0.0512 0.54096 0.58852 0.0
C102 C 0.06076 0.56724 0.58556 0.0
C103 C 0.04224 0.58884 0.58231 0.0
C104 C 0.0139 0.58245 0.5804 0.0
C105 C 0.00449 0.55578 0.58256 0.0
C106 C 0.08155 0.7086 0.61231 0.0
C107 C 0.10907 0.7162 0.61717 0.0
C108 C 0.11857 0.71975 0.63585 0.0
C109 C 0.10134 0.71468 0.65031 0.0
C110 C 0.07381 0.7072 0.64548 0.0
C111 C 0.06402 0.7045 0.62671 0.0
C112 C 0.08467 0.71892 0.57971 0.0
C113 C 0.07698 0.74635 0.57827 0.0
C114 C 0.0929 0.76427 0.56896 0.0
C115 C 0.11689 0.75508 0.56063 0.0
C116 C 0.12367 0.72709 0.56105 0.0
C117 C 0.10781 0.70917 0.57055 0.0
C118 C 0.06707 0.67426 0.58769 0.0
C119 C 0.08442 0.65394 0.59487 0.0
C120 C 0.07679 0.62631 0.59265 0.0
C121 C 0.05223 0.61799 0.58244 0.0
C122 C 0.03644 0.63831 0.57368 0.0
C123 C 0.04361 0.66611 0.57653 0.0
H124 H 0.63372 0.46448 0.8497 0.0
N125 N 0.59145 0.44597 0.82522 0.0
H126 H 0.64133 0.45368 0.88239 0.0
H127 H 0.56239 0.41158 0.84404 0.0
H128 H 0.57087 0.39961 0.87677 0.0
H129 H 0.62475 0.40242 0.82307 0.0
H130 H 0.66643 0.39704 0.80663 0.0
H131 H 0.61142 0.48146 0.79995 0.0
H132 H 0.65226 0.47531 0.7827 0.0
H133 H 0.60731 0.49827 0.83771 0.0
H134 H 0.54041 0.45061 0.8103 0.0
H135 H 0.57857 0.53853 0.83909 0.0
H136 H 0.51166 0.49172 0.8103 0.0
H137 H 0.48623 0.66392 0.85747 0.0
H138 H 0.47935 0.67758 0.89032 0.0
H139 H 0.46136 0.59338 0.90055 0.0
H140 H 0.46769 0.57993 0.86791 0.0
H141 H 0.42613 0.59722 0.84611 0.0
H142 H 0.38375 0.61715 0.83351 0.0
H143 H 0.43054 0.66537 0.79785 0.0
H144 H 0.47301 0.64633 0.81142 0.0
H145 H 0.5295 0.61318 0.83037 0.0
H146 H 0.55716 0.5728 0.82302 0.0
H147 H 0.48717 0.52076 0.83036 0.0
N148 N 0.47812 0.61468 0.8402 0.0
H149 H 0.45934 0.56146 0.83627 0.0
C150 C 0.59703 0.43925 0.84448 0.0
C151 C 0.61949 0.45078 0.85552 0.0
C152 C 0.62398 0.44445 0.87416 0.0
C153 C 0.60656 0.426 0.88203 0.0
C154 C 0.58453 0.41393 0.87095 0.0
C155 C 0.57967 0.42075 0.85236 0.0
C156 C 0.61528 0.443 0.81393 0.0
C157 C 0.63068 0.41869 0.81449 0.0
C158 C 0.65445 0.4154 0.80474 0.0
C159 C 0.66312 0.43589 0.7934 0.0
C160 C 0.64679 0.45945 0.79173 0.0
C161 C 0.62317 0.46298 0.80178 0.0
C162 C 0.57588 0.4711 0.82416 0.0
C163 C 0.58644 0.49645 0.83185 0.0
C164 C 0.56996 0.51977 0.83231 0.0
C165 C 0.54261 0.5186 0.82481 0.0
C166 C 0.53242 0.49341 0.81652 0.0
C167 C 0.54887 0.46992 0.81632 0.0
C168 C 0.4778 0.62096 0.86012 0.0
C169 C 0.48132 0.64837 0.86691 0.0
C170 C 0.47722 0.65614 0.88558 0.0
C171 C 0.4698 0.6365 0.89791 0.0
C172 C 0.46736 0.60886 0.89137 0.0
C173 C 0.47106 0.60116 0.87261 0.0
C174 C 0.45281 0.62069 0.82988 0.0
C175 C 0.42725 0.61166 0.83532 0.0
C176 C 0.40293 0.62306 0.82801 0.0
C177 C 0.40368 0.64337 0.81492 0.0
C178 C 0.4292 0.65041 0.80831 0.0
C179 C 0.45349 0.63929 0.81582 0.0
C180 C 0.49263 0.59036 0.83418 0.0
C181 C 0.52012 0.59302 0.83006 0.0
C182 C 0.53593 0.56984 0.82607 0.0
C183 C 0.52469 0.5433 0.82651 0.0
C184 C 0.49663 0.54074 0.82979 0.0
C185 C 0.48066 0.56406 0.83338 0.0
H186 H 0.52942 0.94424 0.11395 0.0
N187 N 0.49976 0.98671 0.09975 0.0
H188 H 0.52974 0.92967 0.14579 0.0
H189 H 0.47775 0.01267 0.12882 0.0
H190 H 0.47795 0.99812 0.16098 0.0
H191 H 0.44618 0.97729 0.09454 0.0
H192 H 0.42347 0.93598 0.07978 0.0
H193 H 0.52433 0.94597 0.07805 0.0
H194 H 0.50192 0.90546 0.06321 0.0
H195 H 0.55388 0.97227 0.09625 0.0
H196 H 0.4955 0.03719 0.08819 0.0
H197 H 0.58911 0.99924 0.08384 0.0
H198 H 0.53173 0.06623 0.07797 0.0
H199 H 0.70467 0.11378 0.07714 0.0
H200 H 0.72542 0.12684 0.10851 0.0
H201 H 0.64462 0.14139 0.12839 0.0
H202 H 0.62412 0.12862 0.09714 0.0
H203 H 0.6167 0.15435 0.06965 0.0
H204 H 0.61968 0.19629 0.053 0.0
H205 H 0.68187 0.15911 0.0195 0.0
H206 H 0.67898 0.1172 0.03647 0.0
H207 H 0.65529 0.06346 0.0835 0.0
H208 H 0.61893 0.03302 0.0906 0.0
H209 H 0.56108 0.07903 0.05679 0.0
N210 N 0.65133 0.11031 0.0666 0.0
H211 H 0.59724 0.11102 0.05125 0.0
C212 C 0.50366 0.97979 0.11899 0.0
C213 C 0.51878 0.95664 0.12417 0.0
C214 C 0.5189 0.94826 0.14245 0.0
C215 C 0.50378 0.96268 0.1559 0.0
C216 C 0.48957 0.98642 0.15088 0.0
C217 C 0.4896 0.99488 0.1326 0.0
C218 C 0.48697 0.96504 0.08759 0.0
C219 C 0.45834 0.96197 0.0873 0.0
C220 C 0.44542 0.93836 0.07889 0.0
C221 C 0.46099 0.91728 0.0706 0.0
C222 C 0.48944 0.92111 0.06983 0.0
C223 C 0.50232 0.94464 0.07827 0.0
C224 C 0.52159 0.00237 0.09268 0.0
C225 C 0.54848 0.99234 0.09172 0.0
C226 C 0.56902 0.0083 0.08495 0.0
C227 C 0.56376 0.03537 0.07992 0.0
C228 C 0.5368 0.04541 0.08117 0.0
C229 C 0.51599 0.02895 0.08725 0.0
C230 C 0.66297 0.11998 0.08484 0.0
C231 C 0.69155 0.12008 0.08826 0.0
C232 C 0.70331 0.12757 0.1061 0.0
C233 C 0.68655 0.13485 0.12084 0.0
C234 C 0.65795 0.13552 0.11729 0.0
C235 C 0.64625 0.1284 0.09943 0.0
C236 C 0.64769 0.13253 0.05428 0.0
C237 C 0.63043 0.1549 0.05839 0.0
C238 C 0.63208 0.17888 0.04878 0.0
C239 C 0.6512 0.18111 0.03503 0.0
C240 C 0.66714 0.15811 0.03015 0.0
C241 C 0.66535 0.13409 0.03969 0.0
C242 C 0.62929 0.09041 0.06751 0.0
C243 C 0.63474 0.06706 0.07761 0.0
C244 C 0.61372 0.04931 0.08148 0.0
C245 C 0.58653 0.05343 0.07454 0.0
C246 C 0.5814 0.07559 0.06308 0.0
C247 C 0.6024 0.09401 0.05974 0.0
H248 H 0.12853 0.59854 0.93286 0.0
N249 N 0.11258 0.62744 0.96269 0.0
H250 H 0.13274 0.6141 0.90138 0.0
H251 H 0.0994 0.67838 0.95111 0.0
H252 H 0.10311 0.69411 0.9196 0.0
H253 H 0.11078 0.67585 0.98399 0.0
H254 H 0.1494 0.69743 0.00265 0.0
H255 H 0.15994 0.60444 0.97221 0.0
H256 H 0.19888 0.62593 0.99049 0.0
H257 H 0.09705 0.5759 0.96479 0.0
H258 H 0.06847 0.65909 0.97165 0.0
H259 H 0.05056 0.55883 0.9676 0.0
H260 H 0.02201 0.64237 0.97525 0.0
H261 H 0.96522 0.51721 0.93967 0.0
H262 H 0.96461 0.49544 0.908 0.0
H263 H 0.88872 0.53675 0.89374 0.0
H264 H 0.8896 0.55872 0.92544 0.0
H265 H 0.8794 0.56657 0.96802 0.0
H266 H 0.84681 0.53735 0.98198 0.0
H267 H 0.90503 0.47061 0.9797 0.0
H268 H 0.93625 0.49939 0.96424 0.0
H269 H 0.96701 0.53158 0.97753 0.0
H270 H 0.01179 0.55242 0.98526 0.0
H271 H 0.98756 0.62223 0.95392 0.0
N272 N 0.92613 0.5517 0.95364 0.0
H273 H 0.94233 0.60159 0.94682 0.0
C274 C 0.11373 0.63721 0.94425 0.0
C275 C 0.12282 0.61936 0.92996 0.0
C276 C 0.12502 0.62827 0.912 0.0
C277 C 0.11813 0.65534 0.90796 0.0
C278 C 0.10877 0.67322 0.9223 0.0
C279 C 0.10652 0.66421 0.94031 0.0
C280 C 0.1326 0.63851 0.97665 0.0
C281 C 0.12966 0.66454 0.98575 0.0
C282 C 0.15186 0.67693 0.99634 0.0
C283 C 0.17736 0.66355 0.99794 0.0
C284 C 0.17953 0.63675 0.9898 0.0
C285 C 0.15735 0.62443 0.97928 0.0
C286 C 0.08624 0.61862 0.96803 0.0
C287 C 0.08082 0.59043 0.96754 0.0
C288 C 0.0542 0.58076 0.96924 0.0
C289 C 0.03238 0.59922 0.97155 0.0
C290 C 0.03822 0.62757 0.9732 0.0
C291 C 0.0649 0.63721 0.97134 0.0
C292 C 0.92744 0.53978 0.93484 0.0
C293 C 0.94866 0.52189 0.92968 0.0
C294 C 0.94833 0.50951 0.91158 0.0
C295 C 0.9266 0.51442 0.89848 0.0
C296 C 0.90561 0.53249 0.90363 0.0
C297 C 0.90612 0.5451 0.92163 0.0
C298 C 0.91044 0.53552 0.96541 0.0
C299 C 0.8853 0.54582 0.97097 0.0
C300 C 0.86671 0.52898 0.97903 0.0
C301 C 0.87307 0.50137 0.98202 0.0
C302 C 0.89905 0.49152 0.97734 0.0
C303 C 0.91733 0.50823 0.96885 0.0
C304 C 0.95109 0.56499 0.96142 0.0
C305 C 0.97088 0.5516 0.97265 0.0
C306 C 0.99676 0.56354 0.97699 0.0
C307 C 0.00352 0.58889 0.97004 0.0
C308 C 0.98312 0.60288 0.95975 0.0
C309 C 0.95723 0.59106 0.95558 0.0
H310 H 0.59586 0.41176 0.19103 0.0
N311 N 0.6258 0.43676 0.22101 0.0
H312 H 0.61068 0.40347 0.15944 0.0
H313 H 0.67375 0.4501 0.20826 0.0
H314 H 0.68885 0.4418 0.17639 0.0
H315 H 0.6618 0.43645 0.25012 0.0
H316 H 0.67782 0.39642 0.26659 0.0
H317 H 0.60087 0.38615 0.21825 0.0
H318 H 0.61701 0.34606 0.23427 0.0
H319 H 0.57086 0.4237 0.21631 0.0
H320 H 0.62822 0.48959 0.23162 0.0
H321 H 0.53345 0.45645 0.21437 0.0
H322 H 0.59063 0.52248 0.23134 0.0
H323 H 0.42244 0.58264 0.19313 0.0
H324 H 0.40732 0.59415 0.16159 0.0
H325 H 0.48546 0.56729 0.14193 0.0
H326 H 0.50095 0.5575 0.1734 0.0
H327 H 0.50107 0.61309 0.19345 0.0
H328 H 0.50092 0.66028 0.20667 0.0
H329 H 0.45037 0.6356 0.25019 0.0
H330 H 0.45077 0.58809 0.23687 0.0
H331 H 0.46734 0.52085 0.21968 0.0
H332 H 0.50348 0.48805 0.22763 0.0
H333 H 0.56393 0.54343 0.20878 0.0
N334 N 0.47281 0.56957 0.20551 0.0
H335 H 0.52822 0.57623 0.20201 0.0
C336 C 0.63368 0.43187 0.20206 0.0
C337 C 0.61608 0.41862 0.18806 0.0
C338 C 0.62458 0.4139 0.16991 0.0
C339 C 0.65089 0.42206 0.16542 0.0
C340 C 0.66853 0.4351 0.17947 0.0
C341 C 0.65992 0.43999 0.1976 0.0
C342 C 0.6303 0.41435 0.23294 0.0
C343 C 0.65141 0.41691 0.24706 0.0
C344 C 0.66066 0.394 0.25631 0.0
C345 C 0.64895 0.36798 0.25155 0.0
C346 C 0.62636 0.36583 0.23837 0.0
C347 C 0.61711 0.38882 0.22913 0.0
C348 C 0.60253 0.45436 0.22363 0.0
C349 C 0.57539 0.44518 0.2196 0.0
C350 C 0.55384 0.46405 0.21872 0.0
C351 C 0.55894 0.49238 0.22228 0.0
C352 C 0.58591 0.50104 0.22785 0.0
C353 C 0.60743 0.48225 0.22831 0.0
C354 C 0.46296 0.56967 0.18602 0.0
C355 C 0.4361 0.57872 0.18192 0.0
C356 C 0.42745 0.58521 0.1638 0.0
C357 C 0.44537 0.58225 0.14918 0.0
C358 C 0.47139 0.57074 0.15294 0.0
C359 C 0.48026 0.56484 0.17114 0.0
C360 C 0.47605 0.59691 0.21431 0.0
C361 C 0.49059 0.61759 0.20613 0.0
C362 C 0.49042 0.64464 0.21368 0.0
C363 C 0.47553 0.65166 0.22942 0.0
C364 C 0.46179 0.63083 0.23794 0.0
C365 C 0.46215 0.60371 0.23046 0.0
C366 C 0.49484 0.55094 0.21016 0.0
C367 C 0.48848 0.52587 0.21745 0.0
C368 C 0.50919 0.5071 0.22188 0.0
C369 C 0.53682 0.51293 0.21889 0.0
C370 C 0.54311 0.5383 0.21175 0.0
C371 C 0.52249 0.55717 0.20766 0.0
H372 H 0.496 0.99627 0.44038 0.0
N373 N 0.51303 0.96523 0.46942 0.0
H374 H 0.48632 0.97981 0.40778 0.0
H375 H 0.51446 0.91368 0.45513 0.0
H376 H 0.50423 0.89697 0.42245 0.0
H377 H 0.51014 0.93424 0.49839 0.0
H378 H 0.46901 0.92366 0.51478 0.0
H379 H 0.46357 0.99168 0.4661 0.0
H380 H 0.42276 0.98174 0.48268 0.0
H381 H 0.50082 0.01986 0.47806 0.0
H382 H 0.56648 0.96416 0.46517 0.0
H383 H 0.53156 0.05863 0.4763 0.0
H384 H 0.59712 0.00295 0.46242 0.0
H385 H 0.62579 0.17016 0.43367 0.0
H386 H 0.63438 0.17854 0.40129 0.0
H387 H 0.65828 0.09368 0.39215 0.0
H388 H 0.64754 0.08525 0.42401 0.0
H389 H 0.68354 0.09614 0.44662 0.0
H390 H 0.72886 0.10985 0.45962 0.0
H391 H 0.69338 0.17769 0.49119 0.0
H392 H 0.64773 0.16426 0.47741 0.0
H393 H 0.58133 0.12013 0.44619 0.0
H394 H 0.55182 0.08224 0.45324 0.0
H395 H 0.62272 0.0399 0.47614 0.0
N396 N 0.63553 0.12442 0.45119 0.0
H397 H 0.65207 0.07681 0.46817 0.0
C398 C 0.50631 0.95613 0.45017 0.0
C399 C 0.49799 0.97459 0.43662 0.0
C400 C 0.49252 0.9652 0.41798 0.0
C401 C 0.49471 0.93717 0.41262 0.0
C402 C 0.50234 0.91867 0.42625 0.0
C403 C 0.50823 0.92814 0.44484 0.0
C404 C 0.49015 0.96394 0.48121 0.0
C405 C 0.49131 0.94524 0.49531 0.0
C406 C 0.46783 0.93912 0.50455 0.0
C407 C 0.44274 0.95192 0.5 0.0
C408 C 0.44192 0.97186 0.48666 0.0
C409 C 0.4653 0.97761 0.47719 0.0
C410 C 0.53129 0.98876 0.47176 0.0
C411 C 0.52188 0.01576 0.47507 0.0
C412 C 0.53955 0.03814 0.47382 0.0
C413 C 0.56685 0.03412 0.46894 0.0
C414 C 0.57643 0.00705 0.46645 0.0
C415 C 0.55891 0.98475 0.46798 0.0
C416 C 0.6364 0.1273 0.43133 0.0
C417 C 0.63218 0.15328 0.42445 0.0
C418 C 0.63748 0.15807 0.406 0.0
C419 C 0.64768 0.13698 0.39409 0.0
C420 C 0.65033 0.11047 0.40074 0.0
C421 C 0.64446 0.10561 0.4191 0.0
C422 C 0.66203 0.12929 0.461 0.0
C423 C 0.6853 0.11384 0.45643 0.0
C424 C 0.71135 0.1216 0.46403 0.0
C425 C 0.71485 0.14498 0.47639 0.0
C426 C 0.69146 0.1598 0.4815 0.0
C427 C 0.66535 0.15201 0.47383 0.0
C428 C 0.61903 0.10164 0.45636 0.0
C429 C 0.59049 0.10262 0.4527 0.0
C430 C 0.57359 0.081 0.45696 0.0
C431 C 0.58477 0.05785 0.46533 0.0
C432 C 0.61334 0.0571 0.46939 0.0
C433 C 0.6303 0.07855 0.46484 0.0
H434 H 0.14562 0.99392 0.69234 0.0
N435 N 0.17148 0.02597 0.72082 0.0
H436 H 0.15746 0.98979 0.6598 0.0
H437 H 0.21241 0.05123 0.70545 0.0
H438 H 0.22507 0.0463 0.67269 0.0
H439 H 0.205 0.98223 0.71251 0.0
H440 H 0.21135 0.94112 0.72905 0.0
H441 H 0.14938 0.0132 0.75355 0.0
H442 H 0.1564 0.9716 0.77033 0.0
H443 H 0.11915 0.0044 0.71744 0.0
H444 H 0.16541 0.07975 0.72754 0.0
H445 H 0.07651 0.03039 0.71561 0.0
H446 H 0.12269 0.10601 0.72571 0.0
H447 H 0.95205 0.12879 0.68358 0.0
H448 H 0.9419 0.14227 0.65152 0.0
H449 H 0.02684 0.16524 0.64803 0.0
H450 H 0.03679 0.15221 0.6802 0.0
H451 H 0.03304 0.1797 0.70991 0.0
H452 H 0.02025 0.22455 0.72322 0.0
H453 H 0.93973 0.19244 0.73258 0.0
H454 H 0.95391 0.1472 0.72089 0.0
H455 H 0.015 0.08775 0.68619 0.0
H456 H 0.05574 0.06059 0.69278 0.0
H457 H 0.07864 0.11575 0.7405 0.0
N458 N 0.99934 0.13458 0.70392 0.0
H459 H 0.038 0.14289 0.73412 0.0
C460 C 0.17785 0.02339 0.70133 0.0
C461 C 0.16254 0.00601 0.68818 0.0
C462 C 0.16942 0.00353 0.66957 0.0
C463 C 0.19203 0.01791 0.66374 0.0
C464 C 0.20753 0.03504 0.67687 0.0
C465 C 0.20031 0.03792 0.69548 0.0
C466 C 0.17482 1.00067 0.73066 0.0
C467 C 0.19346 0.98024 0.72477 0.0
C468 C 0.19765 0.95664 0.73454 0.0
C469 C 0.18416 0.95288 0.75093 0.0
C470 C 0.16659 0.97359 0.75748 0.0
C471 C 0.1624 0.99739 0.7477 0.0
C472 C 0.14564 0.0402 0.72256 0.0
C473 C 0.12016 0.02654 0.71943 0.0
C474 C 0.09575 0.04144 0.71835 0.0
C475 C 0.09623 0.07028 0.72032 0.0
C476 C 0.12159 0.08381 0.72428 0.0
C477 C 0.146 0.06888 0.72532 0.0
C478 C 0.99508 0.1393 0.68425 0.0
C479 C 0.96851 0.13636 0.67578 0.0
C480 C 0.96275 0.14422 0.65758 0.0
C481 C 0.98359 0.15487 0.64741 0.0
C482 C 0.01047 0.15693 0.65558 0.0
C483 C 0.01615 0.1495 0.67393 0.0
C484 C 0.99456 0.15986 0.71478 0.0
C485 C 0.01301 0.18215 0.71549 0.0
C486 C 0.00538 0.20801 0.72281 0.0
C487 C 0.97869 0.21258 0.72881 0.0
C488 C 0.96063 0.18997 0.72853 0.0
C489 C 0.96863 0.16394 0.72179 0.0
C490 C 0.02384 0.11876 0.70869 0.0
C491 C 0.0289 0.09438 0.69795 0.0
C492 C 0.05209 0.07857 0.70188 0.0
C493 C 0.07068 0.08627 0.717 0.0
C494 C 0.06507 0.10972 0.72843 0.0
C495 C 0.04172 0.12552 0.72456 0.0
O496 O 0.39186 0.71276 0.99585 0.0
Cd497 Cd 0.37552 0.7252 0.02077 0.0
Cd498 Cd 0.42081 0.70059 0.03556 0.0
O499 O 0.42569 0.68827 0.0079 0.0
O500 O 0.33588 0.73165 0.0148 0.0
O501 O 0.3512 0.69891 0.03272 0.0
C502 C 0.33071 0.71109 0.02454 0.0
C503 C 0.4304 0.66902 0.0583 0.0
C504 C 0.41213 0.69681 0.99373 0.0
C505 C 0.41499 0.76221 0.04289 0.0
O506 O 0.42979 0.74095 0.04428 0.0
O507 O 0.3913 0.76047 0.03454 0.0
O508 O 0.44957 0.68022 0.04975 0.0
O509 O 0.4053 0.67518 0.05357 0.0
O510 O 0.42241 0.85838 0.30758 0.0
Cd511 Cd 0.40469 0.85119 0.28091 0.0
Cd512 Cd 0.45541 0.86258 0.27133 0.0
O513 O 0.46091 0.87644 0.29912 0.0
O514 O 0.36412 0.85339 0.28302 0.0
O515 O 0.38797 0.88406 0.2691 0.0
C516 C 0.36477 0.87599 0.27464 0.0
C517 C 0.46175 0.89167 0.24737 0.0
C518 C 0.44512 0.87069 0.31183 0.0
C519 C 0.43543 0.80491 0.26285 0.0
O520 O 0.45626 0.82077 0.26461 0.0
O521 O 0.41202 0.81385 0.26712 0.0
O522 O 0.48245 0.88073 0.25615 0.0
O523 O 0.43747 0.88647 0.25255 0.0
O524 O 0.22772 0.93044 0.49073 0.0
Cd525 Cd 0.24192 0.91616 0.51607 0.0
Cd526 Cd 0.20236 0.94822 0.5281 0.0
O527 O 0.20292 0.96434 0.50234 0.0
O528 O 0.28025 0.90384 0.51252 0.0
O529 O 0.27005 0.94026 0.53069 0.0
C530 C 0.28844 0.92506 0.523 0.0
C531 C 0.1997 0.97593 0.55562 0.0
C532 C 0.21321 0.95173 0.48843 0.0
C533 C 0.1943 0.88727 0.52907 0.0
O534 O 0.18319 0.91075 0.52867 0.0
O535 O 0.21978 0.88467 0.52655 0.0
O536 O 0.17922 0.97312 0.54343 0.0
O537 O 0.22246 0.96402 0.55172 0.0
O538 O 0.21001 0.7392 0.75115 0.0
Cd539 Cd 0.22691 0.75575 0.77636 0.0
Cd540 Cd 0.19493 0.71705 0.78883 0.0
O541 O 0.17457 0.71992 0.76292 0.0
O542 O 0.24439 0.79047 0.76988 0.0
O543 O 0.20874 0.7896 0.78746 0.0
C544 C 0.22609 0.80366 0.77897 0.0
C545 C 0.17011 0.71404 0.81541 0.0
C546 C 0.18671 0.72744 0.74892 0.0
C547 C 0.25593 0.70869 0.79191 0.0
O548 O 0.23246 0.69714 0.7905 0.0
O549 O 0.25806 0.73404 0.78912 0.0
O550 O 0.17086 0.69398 0.80293 0.0
O551 O 0.18265 0.73657 0.81243 0.0
O552 O 0.91052 0.24 0.55134 0.0
Cd553 Cd 0.89881 0.25717 0.52643 0.0
Cd554 Cd 0.9198 0.21067 0.51189 0.0
O555 O 0.93446 0.20595 0.53902 0.0
O556 O 0.89201 0.29677 0.53266 0.0
O557 O 0.9261 0.28192 0.51572 0.0
C558 C 0.91322 0.30215 0.52362 0.0
C559 C 0.94953 0.20545 0.48765 0.0
C560 C 0.92641 0.21961 0.55329 0.0
C561 C 0.85902 0.21842 0.50571 0.0
O562 O 0.87883 0.20158 0.50523 0.0
O563 O 0.86308 0.24294 0.51227 0.0
O564 O 0.94036 0.18458 0.49561 0.0
O565 O 0.94219 0.22962 0.49375 0.0
O566 O 0.87302 0.41261 0.79738 0.0
Cd567 Cd 0.8602 0.39131 0.77282 0.0
Cd568 Cd 0.91257 0.41487 0.76265 0.0
O569 O 0.91031 0.4335 0.78921 0.0
O570 O 0.82357 0.37699 0.77856 0.0
O571 O 0.82864 0.40837 0.75806 0.0
C572 C 0.81258 0.3936 0.76707 0.0
C573 C 0.93023 0.44032 0.73941 0.0
C574 C 0.89296 0.42916 0.80124 0.0
C575 C 0.90515 0.35276 0.76063 0.0
O576 O 0.92069 0.37345 0.75952 0.0
O577 O 0.88042 0.35569 0.765 0.0
O578 O 0.94571 0.43178 0.75301 0.0
O579 O 0.90423 0.43514 0.73925 0.0
O580 O 0.69933 0.39099 0.05372 0.0
Cd581 Cd 0.71229 0.37761 0.02777 0.0
Cd582 Cd 0.68061 0.41806 0.01758 0.0
O583 O 0.66388 0.4144 0.04296 0.0
O584 O 0.72715 0.3402 0.03112 0.0
O585 O 0.68926 0.34792 0.0137 0.0
C586 C 0.70622 0.33061 0.02092 0.0
C587 C 0.65371 0.42127 0.98982 0.0
C588 C 0.67736 0.40417 0.05654 0.0
C589 C 0.74099 0.42586 0.01579 0.0
O590 O 0.71814 0.43766 0.01793 0.0
O591 O 0.7428 0.39999 0.01662 0.0
O592 O 0.65571 0.44134 0.00238 0.0
O593 O 0.66593 0.39857 0.99347 0.0
O594 O 0.74672 0.17465 0.23307 0.0
Cd595 Cd 0.75829 0.19215 0.2592 0.0
Cd596 Cd 0.74098 0.14392 0.27024 0.0
O597 O 0.72533 0.13892 0.24286 0.0
O598 O 0.76251 0.23192 0.25539 0.0
O599 O 0.73008 0.21551 0.27196 0.0
C600 C 0.74119 0.23625 0.26489 0.0
C601 C 0.71224 0.13958 0.29464 0.0
C602 C 0.73176 0.1534 0.22963 0.0
C603 C 0.801 0.15631 0.27675 0.0
O604 O 0.78247 0.13785 0.27614 0.0
O605 O 0.79509 0.18029 0.27183 0.0
O606 O 0.72051 0.1183 0.28503 0.0
O607 O 0.71993 0.16353 0.29012 0.0
H608 H 0.27168 0.96115 0.28829 0.0
H609 H 0.22102 0.89055 0.27022 0.0
H610 H 0.26183 0.86415 0.26346 0.0
H611 H 0.31223 0.85957 0.26607 0.0
H612 H 0.36247 0.93126 0.28076 0.0
H613 H 0.32132 0.95905 0.28485 0.0
C614 C 0.26924 0.94031 0.28232 0.0
C615 C 0.24306 0.92776 0.28046 0.0
C616 C 0.29281 0.92534 0.27791 0.0
C617 C 0.24083 0.90058 0.27265 0.0
C618 C 0.2642 0.88542 0.2686 0.0
C619 C 0.31406 0.8814 0.26979 0.0
C620 C 0.34018 0.89338 0.27334 0.0
C621 C 0.29034 0.89731 0.2718 0.0
C622 C 0.34247 0.92168 0.27793 0.0
C623 C 0.31898 0.93751 0.28039 0.0
H624 H 0.10292 0.8001 0.54149 0.0
H625 H 0.17334 0.75571 0.56278 0.0
H626 H 0.20381 0.79149 0.55349 0.0
H627 H 0.21028 0.83756 0.54174 0.0
H628 H 0.13904 0.88308 0.52312 0.0
H629 H 0.10924 0.84508 0.52933 0.0
C630 C 0.12491 0.79822 0.5442 0.0
C631 C 0.13565 0.77522 0.55297 0.0
C632 C 0.14228 0.81935 0.53951 0.0
C633 C 0.16435 0.77293 0.55586 0.0
C634 C 0.18185 0.79359 0.55074 0.0
C635 C 0.18826 0.83902 0.53893 0.0
C636 C 0.17693 0.86322 0.53212 0.0
C637 C 0.17102 0.81719 0.5429 0.0
C638 C 0.14832 0.86484 0.52858 0.0
C639 C 0.13121 0.84307 0.53206 0.0
H640 H 0.35089 0.62401 0.80863 0.0
H641 H 0.39954 0.6982 0.80958 0.0
H642 H 0.35848 0.72456 0.80228 0.0
H643 H 0.30869 0.7271 0.79652 0.0
H644 H 0.25941 0.65356 0.79682 0.0
H645 H 0.3007 0.62667 0.80318 0.0
C646 C 0.35253 0.64596 0.80734 0.0
C647 C 0.37846 0.65892 0.80951 0.0
C648 C 0.32866 0.66126 0.80355 0.0
C649 C 0.38007 0.68741 0.80756 0.0
C650 C 0.35651 0.70265 0.80359 0.0
C651 C 0.30691 0.70519 0.79799 0.0
C652 C 0.28092 0.69244 0.79621 0.0
C653 C 0.3307 0.68983 0.80167 0.0
C654 C 0.27911 0.66399 0.79817 0.0
C655 C 0.30274 0.64855 0.80176 0.0
H656 H 0.48062 0.86671 0.07695 0.0
H657 H 0.41221 0.90784 0.05009 0.0
H658 H 0.3912 0.86341 0.03984 0.0
H659 H 0.39301 0.81285 0.0379 0.0
H660 H 0.46221 0.77232 0.06451 0.0
H661 H 0.48221 0.81662 0.07537 0.0
C662 C 0.46126 0.86598 0.06865 0.0
C663 C 0.44815 0.89052 0.0641 0.0
C664 C 0.44942 0.84048 0.06281 0.0
C665 C 0.4227 0.88922 0.05379 0.0
C666 C 0.41073 0.86384 0.0479 0.0
C667 C 0.41238 0.81369 0.04618 0.0
C668 C 0.42609 0.78923 0.05033 0.0
C669 C 0.42396 0.83932 0.05228 0.0
C670 C 0.45122 0.79076 0.06103 0.0
C671 C 0.46273 0.81611 0.06725 0.0
H672 H 0.21992 0.64407 0.01992 0.0
H673 H 0.19165 0.71659 0.99315 0.0
H674 H 0.23578 0.73891 0.00115 0.0
H675 H 0.28403 0.7358 0.01209 0.0
H676 H 0.31349 0.66283 0.03769 0.0
H677 H 0.26735 0.64277 0.03378 0.0
C678 C 0.22335 0.66485 0.016 0.0
C679 C 0.20248 0.67849 0.00581 0.0
C680 C 0.24912 0.67739 0.02022 0.0
C681 C 0.20713 0.70562 0.00115 0.0
C682 C 0.23252 0.71835 0.00554 0.0
C683 C 0.28032 0.71564 0.01705 0.0
C684 C 0.30225 0.70067 0.02493 0.0
C685 C 0.2539 0.70411 0.01453 0.0
C686 C 0.297 0.67473 0.03149 0.0
C687 C 0.27064 0.6632 0.02919 0.0
H688 H 0.42913 0.67832 0.23868 0.0
H689 H 0.51611 0.69061 0.23482 0.0
H690 H 0.51137 0.73923 0.24448 0.0
H691 H 0.48241 0.77822 0.25392 0.0
H692 H 0.39529 0.76562 0.2576 0.0
H693 H 0.40025 0.71716 0.24817 0.0
C694 C 0.4471 0.69157 0.24019 0.0
C695 C 0.47295 0.68086 0.23615 0.0
C696 C 0.44418 0.71948 0.24562 0.0
C697 C 0.49597 0.69841 0.23778 0.0
C698 C 0.49327 0.72618 0.24333 0.0
C699 C 0.46448 0.76492 0.25262 0.0
C700 C 0.43851 0.77565 0.25647 0.0
C701 C 0.46745 0.73697 0.2472 0.0
C702 C 0.41553 0.75801 0.25472 0.0
C703 C 0.41834 0.73023 0.24935 0.0
H704 H 0.40255 0.98254 0.51591 0.0
H705 H 0.42479 0.89929 0.50004 0.0
H706 H 0.37972 0.88302 0.50771 0.0
H707 H 0.33241 0.89308 0.51568 0.0
H708 H 0.31007 0.97607 0.53227 0.0
H709 H 0.35676 0.99175 0.52789 0.0
C710 C 0.39757 0.96082 0.5144 0.0
C711 C 0.41686 0.94216 0.50731 0.0
C712 C 0.37157 0.95157 0.5189 0.0
C713 C 0.41033 0.91402 0.50557 0.0
C714 C 0.3845 0.90473 0.50985 0.0
C715 C 0.3379 0.91452 0.51867 0.0
C716 C 0.31773 0.93342 0.52409 0.0
C717 C 0.36474 0.92339 0.51607 0.0
C718 C 0.32521 0.96108 0.52809 0.0
C719 C 0.35187 0.97011 0.52545 0.0
H720 H 0.23214 0.92616 0.75787 0.0
H721 H 0.14543 0.92154 0.76603 0.0
H722 H 0.15145 0.87604 0.77819 0.0
H723 H 0.18051 0.83526 0.78275 0.0
H724 H 0.26653 0.83932 0.77226 0.0
H725 H 0.26166 0.88723 0.76482 0.0
C726 C 0.21455 0.91524 0.76237 0.0
C727 C 0.18831 0.92707 0.76075 0.0
C728 C 0.21804 0.88885 0.76884 0.0
C729 C 0.16587 0.91295 0.76712 0.0
C730 C 0.16927 0.88683 0.77396 0.0
C731 C 0.19828 0.84686 0.77924 0.0
C732 C 0.22382 0.83374 0.77796 0.0
C733 C 0.19514 0.87424 0.77438 0.0
C734 C 0.24662 0.84892 0.77323 0.0
C735 C 0.24384 0.87629 0.76892 0.0
H736 H 0.68678 0.38909 0.77884 0.0
H737 H 0.70011 0.4766 0.78749 0.0
H738 H 0.74614 0.47149 0.77645 0.0
H739 H 0.78501 0.44157 0.76866 0.0
H740 H 0.77351 0.35383 0.7646 0.0
H741 H 0.72464 0.35952 0.76963 0.0
C742 C 0.69969 0.40711 0.77841 0.0
C743 C 0.68984 0.43315 0.7843 0.0
C744 C 0.7267 0.40392 0.77293 0.0
C745 C 0.70679 0.45627 0.78296 0.0
C746 C 0.73335 0.45336 0.7768 0.0
C747 C 0.77155 0.4238 0.76837 0.0
C748 C 0.7826 0.39734 0.7661 0.0
C749 C 0.74381 0.42722 0.77229 0.0
C750 C 0.76527 0.37438 0.76621 0.0
C751 C 0.73742 0.37764 0.7692 0.0
H752 H 0.70091 0.2042 0.03132 0.0
H753 H 0.61414 0.21931 0.02282 0.0
H754 H 0.62378 0.26646 0.01516 0.0
H755 H 0.65681 0.30469 0.01426 0.0
H756 H 0.7433 0.28962 0.02475 0.0
H757 H 0.7339 0.24101 0.02777 0.0
C758 C 0.68411 0.21756 0.02732 0.0
C759 C 0.65684 0.20825 0.02765 0.0
C760 C 0.68979 0.24474 0.02337 0.0
C761 C 0.6353 0.22606 0.02281 0.0
C762 C 0.64082 0.253 0.01842 0.0
C763 C 0.67362 0.29062 0.01678 0.0
C764 C 0.70071 0.30073 0.01933 0.0
C765 C 0.66797 0.26279 0.01914 0.0
C766 C 0.72226 0.28235 0.02281 0.0
C767 C 0.7169 0.25456 0.02461 0.0
H768 H 0.9166 0.11123 0.30495 0.0
H769 H 0.93994 0.195 0.29724 0.0
H770 H 0.89316 0.20499 0.28593 0.0
H771 H 0.84528 0.19061 0.27934 0.0
H772 H 0.82133 0.10733 0.28802 0.0
H773 H 0.86858 0.09674 0.29819 0.0
C774 C 0.91145 0.13172 0.30088 0.0
C775 C 0.93189 0.15228 0.30194 0.0
C776 C 0.88432 0.13753 0.29472 0.0
C777 C 0.92485 0.1786 0.2963 0.0
C778 C 0.89799 0.18444 0.28999 0.0
C779 C 0.85033 0.17012 0.28345 0.0
C780 C 0.82969 0.14985 0.28296 0.0
C781 C 0.87752 0.16415 0.28931 0.0
C782 C 0.83673 0.12339 0.2883 0.0
C783 C 0.86378 0.11728 0.2941 0.0
H784 H 0.93645 0.42848 0.53602 0.0
H785 H 0.0181 0.39762 0.54867 0.0
H786 H 0.00338 0.35195 0.53721 0.0
H787 H 0.96603 0.31916 0.52797 0.0
H788 H 0.88313 0.34856 0.52061 0.0
H789 H 0.89941 0.39603 0.526 0.0
C790 C 0.95112 0.41187 0.53645 0.0
C791 C 0.97839 0.41697 0.54349 0.0
C792 C 0.94213 0.38506 0.53095 0.0
C793 C 0.99709 0.39495 0.54315 0.0
C794 C 0.9886 0.36849 0.53679 0.0
C795 C 0.95168 0.33606 0.52715 0.0
C796 C 0.92351 0.33056 0.52383 0.0
C797 C 0.96101 0.36314 0.53125 0.0
C798 C 0.90495 0.35245 0.52315 0.0
C799 C 0.91424 0.37954 0.52628 0.0
H800 H 0.73424 0.19755 0.48022 0.0
H801 H 0.75879 0.11372 0.48736 0.0
H802 H 0.80572 0.12896 0.49613 0.0
H803 H 0.83983 0.16601 0.50174 0.0
H804 H 0.81487 0.25003 0.49613 0.0
H805 H 0.76799 0.23477 0.48694 0.0
C806 C 0.74972 0.18263 0.48399 0.0
C807 C 0.74293 0.1545 0.48307 0.0
C808 C 0.77664 0.19154 0.48919 0.0
C809 C 0.76347 0.13545 0.48768 0.0
C810 C 0.79031 0.14415 0.49277 0.0
C811 C 0.82417 0.18098 0.49839 0.0
C812 C 0.83088 0.2091 0.4995 0.0
C813 C 0.79717 0.17211 0.49345 0.0
C814 C 0.81026 0.22825 0.49537 0.0
C815 C 0.78344 0.21955 0.49013 0.0
H816 H 0.94047 0.22855 0.75391 0.0
H817 H 0.99462 0.26115 0.715 0.0
H818 H 0.9779 0.30707 0.72232 0.0
H819 H 0.94647 0.33807 0.73857 0.0
H820 H 0.8885 0.30503 0.77449 0.0
H821 H 0.90748 0.2591 0.76894 0.0
C822 C 0.94846 0.24551 0.74678 0.0
C823 C 0.96908 0.24097 0.73398 0.0
C824 C 0.93779 0.2719 0.75033 0.0
C825 C 0.97938 0.26369 0.72531 0.0
C826 C 0.96954 0.2901 0.72928 0.0
C827 C 0.93805 0.32081 0.74521 0.0
C828 C 0.9162 0.32492 0.75696 0.0
C829 C 0.94861 0.29441 0.74163 0.0
C830 C 0.90525 0.30234 0.7653 0.0
C831 C 0.91616 0.27612 0.7622 0.0
H832 H 0.83298 0.51372 0.00629 0.0
H833 H 0.86497 0.44638 0.97233 0.0
H834 H 0.8286 0.41655 0.9812 0.0
H835 H 0.78551 0.41023 0.99671 0.0
H836 H 0.75083 0.47908 0.02747 0.0
H837 H 0.78994 0.50773 0.0213 0.0
C838 C 0.83197 0.49262 0.00062 0.0
C839 C 0.85194 0.48257 0.9886 0.0
C840 C 0.81021 0.4758 0.00505 0.0
C841 C 0.85041 0.45482 0.9819 0.0
C842 C 0.82933 0.4377 0.98678 0.0
C843 C 0.78668 0.43145 0.00215 0.0
C844 C 0.76534 0.44254 0.0125 0.0
C845 C 0.80887 0.44807 0.9981 0.0
C846 C 0.76693 0.47013 0.01935 0.0
C847 C 0.78931 0.48651 0.01587 0.0
H848 H 0.70338 0.35724 0.25427 0.0
H849 H 0.62462 0.3219 0.26356 0.0
H850 H 0.6468 0.27849 0.27073 0.0
H851 H 0.6882 0.24941 0.27138 0.0
H852 H 0.76628 0.28491 0.26047 0.0
H853 H 0.74483 0.32962 0.25739 0.0
C854 C 0.69108 0.3403 0.25833 0.0
C855 C 0.66237 0.34284 0.25839 0.0
C856 C 0.70388 0.31536 0.26208 0.0
C857 C 0.64674 0.32041 0.26327 0.0
C858 C 0.65941 0.29561 0.26739 0.0
C859 C 0.70057 0.26708 0.26871 0.0
C860 C 0.72877 0.26385 0.26609 0.0
C861 C 0.68792 0.29265 0.2664 0.0
C862 C 0.74451 0.28684 0.26245 0.0
C863 C 0.73225 0.31241 0.26063 0.0
H864 H 0.1651 0.99164 0.41121 0.0
H865 H 0.23297 0.94407 0.39138 0.0
H866 H 0.24767 0.93444 0.42353 0.0
H867 H 0.23965 0.93752 0.45705 0.0
H868 H 0.17235 0.9861 0.47697 0.0
H869 H 0.15909 0.99753 0.44502 0.0
C870 C 0.18314 0.97925 0.414 0.0
C871 C 0.19784 0.96838 0.39904 0.0
C872 C 0.19153 0.97396 0.43248 0.0
C873 C 0.22143 0.9527 0.40274 0.0
C874 C 0.22975 0.9471 0.42108 0.0
C875 C 0.22218 0.95074 0.45441 0.0
C876 C 0.20687 0.96072 0.46934 0.0
C877 C 0.21473 0.95733 0.43603 0.0
C878 C 0.1845 0.97812 0.46573 0.0
C879 C 0.17682 0.98459 0.44746 0.0
H880 H 0.15305 0.7025 0.66381 0.0
H881 H 0.07467 0.73128 0.68189 0.0
H882 H 0.09353 0.73535 0.71421 0.0
H883 H 0.13316 0.73307 0.73726 0.0
H884 H 0.2125 0.71034 0.71807 0.0
H885 H 0.19255 0.70234 0.68613 0.0
C886 C 0.14006 0.71021 0.67466 0.0
C887 C 0.11243 0.71675 0.6702 0.0
C888 C 0.15132 0.71374 0.69307 0.0
C889 C 0.09589 0.7257 0.68478 0.0
C890 C 0.10673 0.7283 0.70331 0.0
C891 C 0.14593 0.72622 0.72604 0.0
C892 C 0.17415 0.72214 0.72989 0.0
C893 C 0.1345 0.72263 0.70759 0.0
C894 C 0.19071 0.71365 0.71532 0.0
C895 C 0.17932 0.70905 0.69711 0.0
H896 H 0.43529 0.67704 0.90836 0.0
H897 H 0.48805 0.61454 0.93048 0.0
H898 H 0.47502 0.62779 0.96222 0.0
H899 H 0.44828 0.65696 0.98353 0.0
H900 H 0.39429 0.71838 0.96098 0.0
H901 H 0.40818 0.70573 0.92954 0.0
C902 C 0.44414 0.66655 0.92018 0.0
C903 C 0.46276 0.64505 0.91718 0.0
C904 C 0.43623 0.67398 0.93826 0.0
C905 C 0.47366 0.63117 0.93251 0.0
C906 C 0.46624 0.63875 0.95062 0.0
C907 C 0.43957 0.6676 0.97175 0.0
C908 C 0.42031 0.68862 0.97465 0.0
C909 C 0.44746 0.66007 0.95364 0.0
C910 C 0.40909 0.70207 0.95918 0.0
C911 C 0.41707 0.69491 0.94118 0.0
H912 H 0.45738 0.95826 0.17463 0.0
H913 H 0.5443 0.94182 0.17892 0.0
H914 H 0.53919 0.91965 0.20819 0.0
H915 H 0.50959 0.90271 0.23158 0.0
H916 H 0.4225 0.91854 0.22688 0.0
H917 H 0.42821 0.94354 0.1989 0.0
C918 C 0.4753 0.9503 0.18215 0.0
C919 C 0.50118 0.95167 0.17459 0.0
C920 C 0.47215 0.93735 0.19885 0.0
C921 C 0.52411 0.9408 0.18435 0.0
C922 C 0.5212 0.92816 0.2011 0.0
C923 C 0.49188 0.91183 0.22454 0.0
C924 C 0.46564 0.90862 0.23128 0.0
C925 C 0.49525 0.92593 0.20832 0.0
C926 C 0.44293 0.92059 0.22197 0.0
C927 C 0.44616 0.93489 0.20594 0.0
H928 H 0.13962 0.70407 0.89876 0.0
H929 H 0.10456 0.62786 0.87441 0.0
H930 H 0.11535 0.64065 0.84333 0.0
H931 H 0.13825 0.67142 0.82351 0.0
H932 H 0.17368 0.74761 0.84752 0.0
H933 H 0.15856 0.73721 0.87823 0.0
C934 C 0.13385 0.69051 0.88661 0.0
C935 C 0.12166 0.66485 0.88895 0.0
C936 C 0.14023 0.69795 0.86874 0.0
C937 C 0.11448 0.64746 0.87305 0.0
C938 C 0.12053 0.6548 0.85526 0.0
C939 C 0.14238 0.68595 0.8354 0.0
C940 C 0.15734 0.71011 0.83326 0.0
C941 C 0.134 0.67966 0.85301 0.0
C942 C 0.16226 0.72883 0.84878 0.0
C943 C 0.15375 0.72282 0.86637 0.0
H944 H 0.4795 0.60794 0.12716 0.0
H945 H 0.39479 0.58341 0.12978 0.0
H946 H 0.38258 0.60755 0.10161 0.0
H947 H 0.39577 0.63779 0.0771 0.0
H948 H 0.48111 0.65997 0.07433 0.0
H949 H 0.49324 0.63389 0.1014 0.0
C950 C 0.45844 0.60711 0.12138 0.0
C951 C 0.43814 0.59385 0.13075 0.0
C952 C 0.45161 0.62074 0.10512 0.0
C953 C 0.41086 0.59378 0.12312 0.0
C954 C 0.40385 0.60751 0.10693 0.0
C955 C 0.41703 0.6367 0.08234 0.0
C956 C 0.43743 0.65103 0.07376 0.0
C957 C 0.424 0.62147 0.09799 0.0
C958 C 0.46493 0.64924 0.08065 0.0
C959 C 0.47193 0.63435 0.09619 0.0
H960 H 0.46141 0.89504 0.39924 0.0
H961 H 0.51535 0.95741 0.38179 0.0
H962 H 0.50578 0.94155 0.34902 0.0
H963 H 0.48133 0.9105 0.32534 0.0
H964 H 0.42556 0.84961 0.34278 0.0
H965 H 0.43673 0.86417 0.37554 0.0
C966 C 0.47118 0.90498 0.38823 0.0
C967 C 0.48907 0.92728 0.39285 0.0
C968 C 0.46525 0.89603 0.36945 0.0
C969 C 0.50135 0.9403 0.37851 0.0
C970 C 0.49596 0.93119 0.35981 0.0
C971 C 0.47178 0.90029 0.33632 0.0
C972 C 0.45272 0.87896 0.33164 0.0
C973 C 0.47785 0.90915 0.35511 0.0
C974 C 0.44025 0.86615 0.34601 0.0
C975 C 0.44663 0.87444 0.36475 0.0
H976 H 0.15884 0.02267 0.63258 0.0
H977 H 0.24213 0.0044 0.65098 0.0
H978 H 0.25295 0.99217 0.61861 0.0
H979 H 0.2372 0.98234 0.5855 0.0
H980 H 0.15358 0.00093 0.56752 0.0
H981 H 0.14454 0.01761 0.59921 0.0
C982 C 0.17942 0.01626 0.62943 0.0
C983 C 0.19959 0.01412 0.64407 0.0
C984 C 0.18539 0.0092 0.61088 0.0
C985 C 0.2263 0.00621 0.63988 0.0
C986 C 0.23243 0.99909 0.6214 0.0
C987 C 0.21714 0.99045 0.58846 0.0
C988 C 0.19603 0.99004 0.57417 0.0
C989 C 0.21194 0.99987 0.60683 0.0
C990 C 0.17019 1.00078 0.57824 0.0
C991 C 0.16492 0.01027 0.5964 0.0
H992 H 0.60875 0.46177 0.9122 0.0
H993 H 0.61602 0.37585 0.8959 0.0
H994 H 0.62963 0.3661 0.92832 0.0
H995 H 0.64291 0.38292 0.96084 0.0
H996 H 0.63405 0.46903 0.97684 0.0
H997 H 0.61733 0.47775 0.94512 0.0
C998 C 0.61308 0.4409 0.91586 0.0
C999 C 0.6117 0.41957 0.90181 0.0
C1000 C 0.62067 0.43552 0.93444 0.0
C1001 C 0.61699 0.39254 0.90659 0.0
C1002 C 0.62486 0.38702 0.92507 0.0
C1003 C 0.63698 0.40351 0.95743 0.0
C1004 C 0.64002 0.42531 0.97119 0.0
C1005 C 0.62727 0.40845 0.93906 0.0
C1006 C 0.63203 0.45185 0.96656 0.0
C1007 C 0.62254 0.45692 0.94838 0.0
H1008 H 0.67136 0.11329 0.15251 0.0
H1009 H 0.72915 0.1695 0.13204 0.0
H1010 H 0.74862 0.17994 0.16396 0.0
H1011 H 0.74843 0.17371 0.19768 0.0
H1012 H 0.69126 0.11648 0.21796 0.0
H1013 H 0.67231 0.10578 0.18607 0.0
C1014 C 0.68814 0.12792 0.1551 0.0
C1015 C 0.6987 0.14083 0.14006 0.0
C1016 C 0.69931 0.13359 0.1734 0.0
C1017 C 0.72076 0.15933 0.14346 0.0
C1018 C 0.73182 0.16533 0.16168 0.0
C1019 C 0.73185 0.15886 0.19513 0.0
C1020 C 0.72118 0.14603 0.21021 0.0
C1021 C 0.72115 0.15267 0.17676 0.0
C1022 C 0.69987 0.12665 0.20663 0.0
C1023 C 0.68896 0.12056 0.1884 0.0
H1024 H 0.0209 0.20694 0.41705 0.0
H1025 H 0.99955 0.1207 0.41444 0.0
H1026 H 0.97696 0.12722 0.44355 0.0
H1027 H 0.96024 0.15752 0.4686 0.0
H1028 H 0.97768 0.24437 0.47029 0.0
H1029 H 0.00426 0.23751 0.44252 0.0
C1030 C 0.01123 0.18955 0.42276 0.0
C1031 C 0.01223 0.16331 0.41341 0.0
C1032 C 0.99724 0.19357 0.43929 0.0
C1033 C 0.99986 0.14104 0.42136 0.0
C1034 C 0.98655 0.14477 0.43798 0.0
C1035 C 0.97002 0.17498 0.46301 0.0
C1036 C 0.96694 0.20142 0.4715 0.0
C1037 C 0.98477 0.17096 0.4469 0.0
C1038 C 0.97965 0.22379 0.46399 0.0
C1039 C 0.99485 0.21987 0.44811 0.0
H1040 H 0.00241 0.48847 0.67897 0.0
H1041 H 0.92445 0.48497 0.64715 0.0
H1042 H 0.90196 0.4697 0.67422 0.0
H1043 H 0.90494 0.45443 0.70638 0.0
H1044 H 0.98332 0.45684 0.73777 0.0
H1045 H 0.00502 0.47531 0.71148 0.0
C1046 C 0.98051 0.48434 0.67795 0.0
C1047 C 0.96521 0.48778 0.66102 0.0
C1048 C 0.96774 0.47525 0.69351 0.0
C1049 C 0.93672 0.48277 0.66006 0.0
C1050 C 0.92385 0.47385 0.67551 0.0
C1051 C 0.9267 0.45928 0.70754 0.0
C1052 C 0.94246 0.45409 0.72401 0.0
C1053 C 0.93921 0.46966 0.69224 0.0
C1054 C 0.97067 0.46048 0.72525 0.0
C1055 C 0.98316 0.47102 0.71019 0.0
H1056 H 0.64548 0.10382 0.36174 0.0
H1057 H 0.673 0.1839 0.38449 0.0
H1058 H 0.69258 0.1928 0.35509 0.0
H1059 H 0.7055 0.17658 0.3238 0.0
H1060 H 0.68206 0.09496 0.30214 0.0
H1061 H 0.6578 0.08784 0.33028 0.0
C1062 C 0.65586 0.12319 0.36037 0.0
C1063 C 0.65761 0.14308 0.37548 0.0
C1064 C 0.66811 0.12786 0.3436 0.0
C1065 C 0.67072 0.16829 0.37312 0.0
C1066 C 0.68227 0.17335 0.35632 0.0
C1067 C 0.69479 0.15737 0.32515 0.0
C1068 C 0.6956 0.13633 0.31093 0.0
C1069 C 0.68152 0.15313 0.34159 0.0
C1070 C 0.68185 0.11144 0.31294 0.0
C1071 C 0.66798 0.10735 0.32903 0.0
H1072 H 0.94374 0.19057 0.63772 0.0
H1073 H 0.00898 0.1419 0.6152 0.0
H1074 H 0.9973 0.15792 0.584 0.0
H1075 H 0.96783 0.18507 0.56313 0.0
H1076 H 0.90364 0.23504 0.58609 0.0
H1077 H 0.91566 0.21928 0.61716 0.0
C1078 C 0.95528 0.18343 0.62593 0.0
C1079 C 0.97696 0.16491 0.62862 0.0
C1080 C 0.94868 0.19299 0.60818 0.0
C1081 C 0.99219 0.15616 0.61339 0.0
C1082 C 0.98548 0.16527 0.59559 0.0
C1083 C 0.9565 0.19255 0.57493 0.0
C1084 C 0.93475 0.21108 0.57225 0.0
C1085 C 0.96367 0.18358 0.59281 0.0
C1086 C 0.92048 0.2208 0.58775 0.0
C1087 C 0.92728 0.21174 0.60552 0.0
H1088 H 0.88301 0.48687 0.88156 0.0
H1089 H 0.96693 0.50892 0.87368 0.0
H1090 H 0.96402 0.48465 0.84269 0.0
H1091 H 0.93733 0.45724 0.81783 0.0
H1092 H 0.85374 0.43432 0.8266 0.0
H1093 H 0.85679 0.45896 0.8572 0.0
C1094 C 0.90058 0.48652 0.87297 0.0
C1095 C 0.92506 0.49979 0.87976 0.0
C1096 C 0.89882 0.47235 0.85536 0.0
C1097 C 0.94789 0.49875 0.86871 0.0
C1098 C 0.9462 0.48497 0.851 0.0
C1099 C 0.91979 0.45768 0.82643 0.0
C1100 C 0.89535 0.44397 0.81989 0.0
C1101 C 0.92174 0.47169 0.84418 0.0
C1102 C 0.87286 0.44457 0.83129 0.0
C1103 C 0.87453 0.45872 0.84879 0.0
H1104 H 0.62201 0.431 0.13282 0.0
H1105 H 0.69997 0.40156 0.15485 0.0
H1106 H 0.71481 0.39288 0.1231 0.0
H1107 H 0.70568 0.39383 0.08915 0.0
H1108 H 0.62795 0.42406 0.06711 0.0
H1109 H 0.61286 0.43195 0.09881 0.0
C1110 C 0.64216 0.42249 0.13064 0.0
C1111 C 0.65986 0.4169 0.14614 0.0
C1112 C 0.65057 0.41764 0.11237 0.0
C1113 C 0.68609 0.40628 0.14314 0.0
C1114 C 0.69452 0.40118 0.125 0.0
C1115 C 0.68538 0.40202 0.09125 0.0
C1116 C 0.66796 0.40828 0.07575 0.0
C1117 C 0.67694 0.40681 0.10952 0.0
C1118 C 0.6418 0.41909 0.07877 0.0
C1119 C 0.63314 0.42361 0.0969 0.0
loop_
_geom_bond_atom_site_label_1
_geom_bond_atom_site_label_2
_geom_bond_distance
_geom_bond_site_symmetry_2
_ccdc_geom_bond_type
H0 C27 0.929 . S
N1 C26 1.433 . S
N1 C32 1.435 . S
N1 C38 1.423 . S
H2 C28 0.930 . S
H3 C31 0.931 . S
H4 C30 0.929 . S
H5 C33 0.930 . S
H6 C34 0.932 . S
H7 C37 0.929 . S
H8 C36 0.931 . S
H9 C39 0.929 . S
H10 C43 0.932 . S
H11 C40 0.931 . S
H12 C42 0.929 . S
H13 C45 0.929 . S
H14 C46 0.930 . S
H15 C48 0.929 . S
H16 C49 0.923 1_455 S
H17 C51 0.930 . S
H18 C52 0.932 . S
H19 C54 0.931 . S
H20 C55 0.929 . S
H21 C57 0.929 . S
H22 C58 0.931 . S
H23 C60 0.929 . S
N24 C44 1.433 1_455 S
N24 C50 1.435 1_455 S
N24 C56 1.423 . S
H25 C61 0.932 . S
C26 N1 1.433 . S
C26 C27 1.363 . S
C26 C31 1.370 . S
C27 H0 0.929 . S
C27 C26 1.363 . S
C27 C28 1.385 . S
C28 H2 0.930 . S
C28 C27 1.385 . S
C28 C29 1.357 . S
C29 C28 1.357 . S
C29 C30 1.406 . S
C30 H4 0.929 . S
C30 C29 1.406 . S
C30 C31 1.391 . S
C31 H3 0.931 . S
C31 C26 1.370 . S
C31 C30 1.391 . S
C32 N1 1.435 . S
C32 C33 1.358 . S
C32 C37 1.371 . S
C33 H5 0.930 . S
C33 C32 1.358 . S
C33 C34 1.405 . S
C34 H6 0.932 . S
C34 C33 1.405 . S
C34 C35 1.383 . S
C35 C34 1.383 . S
C35 C36 1.393 . S
C36 H8 0.931 . S
C36 C35 1.393 . S
C36 C37 1.382 . S
C37 H7 0.929 . S
C37 C32 1.371 . S
C37 C36 1.382 . S
C38 N1 1.423 . S
C38 C39 1.362 1_565 S
C38 C43 1.388 . S
C39 H9 0.929 . S
C39 C38 1.362 1_545 S
C39 C40 1.376 . S
C40 H11 0.931 . S
C40 C39 1.376 . S
C40 C41 1.396 . S
C41 C40 1.396 . S
C41 C42 1.348 . S
C41 C59 1.472 . S
C42 H12 0.929 . S
C42 C41 1.348 . S
C42 C43 1.443 1_545 S
C43 H10 0.932 . S
C43 C38 1.388 . S
C43 C42 1.443 1_565 S
C44 N24 1.433 1_655 S
C44 C45 1.363 . S
C44 C49 1.371 . S
C45 H13 0.929 . S
C45 C44 1.363 . S
C45 C46 1.385 . S
C46 H14 0.930 . S
C46 C45 1.385 . S
C46 C47 1.357 . S
C47 C46 1.357 . S
C47 C48 1.406 . S
C48 H15 0.929 . S
C48 C47 1.406 . S
C48 C49 1.399 . S
C49 H16 0.923 1_655 S
C49 C44 1.371 . S
C49 C48 1.399 . S
C50 N24 1.435 1_655 S
C50 C51 1.358 . S
C50 C55 1.371 1_655 S
C51 H17 0.930 . S
C51 C50 1.358 . S
C51 C52 1.405 . S
C52 H18 0.932 . S
C52 C51 1.405 . S
C52 C53 1.383 . S
C53 C52 1.383 . S
C53 C54 1.393 . S
C54 H19 0.931 . S
C54 C53 1.393 . S
C54 C55 1.382 1_655 S
C55 H20 0.929 . S
C55 C50 1.371 1_455 S
C55 C54 1.382 1_455 S
C56 N24 1.423 . S
C56 C57 1.362 . S
C56 C61 1.388 . S
C57 H21 0.929 . S
C57 C56 1.362 . S
C57 C58 1.376 . S
C58 H22 0.931 . S
C58 C57 1.376 . S
C58 C59 1.396 . S
C59 C41 1.472 . S
C59 C58 1.396 . S
C59 C60 1.348 . S
C60 H23 0.929 . S
C60 C59 1.348 . S
C60 C61 1.443 . S
C61 H25 0.932 . S
C61 C56 1.388 . S
C61 C60 1.443 . S
H62 C89 0.929 . S
N63 C88 1.433 . S
N63 C94 1.435 . S
N63 C100 1.423 1_655 S
H64 C90 0.930 . S
H65 C93 0.931 . S
H66 C92 0.929 . S
H67 C95 0.930 . S
H68 C96 0.932 . S
H69 C99 0.929 1_455 S
H70 C98 0.931 . S
H71 C101 0.929 . S
H72 C105 0.932 1_655 S
H73 C102 0.931 . S
H74 C104 0.929 . S
H75 C107 0.929 . S
H76 C108 0.930 . S
H77 C110 0.929 . S
H78 C111 0.931 . S
H79 C113 0.930 . S
H80 C114 0.932 . S
H81 C116 0.931 . S
H82 C117 0.929 . S
H83 C119 0.929 . S
H84 C120 0.931 . S
H85 C122 0.929 . S
N86 C106 1.433 . S
N86 C112 1.435 . S
N86 C118 1.423 . S
H87 C123 0.932 . S
C88 N63 1.433 . S
C88 C89 1.363 . S
C88 C93 1.370 . S
C89 H62 0.929 . S
C89 C88 1.363 . S
C89 C90 1.385 . S
C90 H64 0.930 . S
C90 C89 1.385 . S
C90 C91 1.357 . S
C91 C90 1.357 . S
C91 C92 1.406 . S
C92 H66 0.929 . S
C92 C91 1.406 . S
C92 C93 1.391 . S
C93 H65 0.931 . S
C93 C88 1.370 . S
C93 C92 1.391 . S
C94 N63 1.435 . S
C94 C95 1.358 . S
C94 C99 1.371 . S
C95 H67 0.930 . S
C95 C94 1.358 . S
C95 C96 1.405 . S
C96 H68 0.932 . S
C96 C95 1.405 . S
C96 C97 1.383 . S
C97 C96 1.383 . S
C97 C98 1.393 . S
C98 H70 0.931 . S
C98 C97 1.393 . S
C98 C99 1.382 . S
C99 H69 0.929 1_655 S
C99 C94 1.371 . S
C99 C98 1.382 . S
C100 N63 1.423 1_455 S
C100 C101 1.362 . S
C100 C105 1.388 . S
C101 H71 0.929 . S
C101 C100 1.362 . S
C101 C102 1.376 . S
C102 H73 0.931 . S
C102 C101 1.376 . S
C102 C103 1.396 . S
C103 C102 1.396 . S
C103 C104 1.348 . S
C103 C121 1.472 . S
C104 H74 0.929 . S
C104 C103 1.348 . S
C104 C105 1.443 . S
C105 H72 0.932 1_455 S
C105 C100 1.388 . S
C105 C104 1.443 . S
C106 N86 1.433 . S
C106 C107 1.363 . S
C106 C111 1.370 . S
C107 H75 0.929 . S
C107 C106 1.363 . S
C107 C108 1.385 . S
C108 H76 0.930 . S
C108 C107 1.385 . S
C108 C109 1.357 . S
C109 C108 1.357 . S
C109 C110 1.406 . S
C110 H77 0.929 . S
C110 C109 1.406 . S
C110 C111 1.391 . S
C111 H78 0.931 . S
C111 C106 1.370 . S
C111 C110 1.391 . S
C112 N86 1.435 . S
C112 C113 1.358 . S
C112 C117 1.371 . S
C113 H79 0.930 . S
C113 C112 1.358 . S
C113 C114 1.405 . S
C114 H80 0.932 . S
C114 C113 1.405 . S
C114 C115 1.383 . S
C115 C114 1.383 . S
C115 C116 1.393 . S
C116 H81 0.931 . S
C116 C115 1.393 . S
C116 C117 1.382 . S
C117 H82 0.929 . S
C117 C112 1.371 . S
C117 C116 1.382 . S
C118 N86 1.423 . S
C118 C119 1.362 . S
C118 C123 1.388 . S
C119 H83 0.929 . S
C119 C118 1.362 . S
C119 C120 1.376 . S
C120 H84 0.931 . S
C120 C119 1.376 . S
C120 C121 1.396 . S
C121 C103 1.472 . S
C121 C120 1.396 . S
C121 C122 1.348 . S
C122 H85 0.929 . S
C122 C121 1.348 . S
C122 C123 1.443 . S
C123 H87 0.932 . S
C123 C118 1.388 . S
C123 C122 1.443 . S
H124 C151 0.929 . S
N125 C150 1.433 . S
N125 C156 1.435 . S
N125 C162 1.423 . S
H126 C152 0.930 . S
H127 C155 0.931 . S
H128 C154 0.929 . S
H129 C157 0.930 . S
H130 C158 0.932 . S
H131 C161 0.929 . S
H132 C160 0.931 . S
H133 C163 0.929 . S
H134 C167 0.932 . S
H135 C164 0.931 . S
H136 C166 0.929 . S
H137 C169 0.929 . S
H138 C170 0.930 . S
H139 C172 0.929 . S
H140 C173 0.931 . S
H141 C175 0.930 . S
H142 C176 0.932 . S
H143 C178 0.931 . S
H144 C179 0.929 . S
H145 C181 0.929 . S
H146 C182 0.931 . S
H147 C184 0.929 . S
N148 C168 1.433 . S
N148 C174 1.435 . S
N148 C180 1.423 . S
H149 C185 0.932 . S
C150 N125 1.433 . S
C150 C151 1.363 . S
C150 C155 1.370 . S
C151 H124 0.929 . S
C151 C150 1.363 . S
C151 C152 1.385 . S
C152 H126 0.930 . S
C152 C151 1.385 . S
C152 C153 1.357 . S
C153 C152 1.357 . S
C153 C154 1.406 . S
C154 H128 0.929 . S
C154 C153 1.406 . S
C154 C155 1.391 . S
C155 H127 0.931 . S
C155 C150 1.370 . S
C155 C154 1.391 . S
C156 N125 1.435 . S
C156 C157 1.358 . S
C156 C161 1.371 . S
C157 H129 0.930 . S
C157 C156 1.358 . S
C157 C158 1.405 . S
C158 H130 0.932 . S
C158 C157 1.405 . S
C158 C159 1.383 . S
C159 C158 1.383 . S
C159 C160 1.393 . S
C160 H132 0.931 . S
C160 C159 1.393 . S
C160 C161 1.382 . S
C161 H131 0.929 . S
C161 C156 1.371 . S
C161 C160 1.382 . S
C162 N125 1.423 . S
C162 C163 1.362 . S
C162 C167 1.388 . S
C163 H133 0.929 . S
C163 C162 1.362 . S
C163 C164 1.376 . S
C164 H135 0.931 . S
C164 C163 1.376 . S
C164 C165 1.396 . S
C165 C164 1.396 . S
C165 C166 1.348 . S
C165 C183 1.472 . S
C166 H136 0.929 . S
C166 C165 1.348 . S
C166 C167 1.443 . S
C167 H134 0.932 . S
C167 C162 1.388 . S
C167 C166 1.443 . S
C168 N148 1.433 . S
C168 C169 1.363 . S
C168 C173 1.370 . S
C169 H137 0.929 . S
C169 C168 1.363 . S
C169 C170 1.385 . S
C170 H138 0.930 . S
C170 C169 1.385 . S
C170 C171 1.357 . S
C171 C170 1.357 . S
C171 C172 1.406 . S
C172 H139 0.929 . S
C172 C171 1.406 . S
C172 C173 1.391 . S
C173 H140 0.931 . S
C173 C168 1.370 . S
C173 C172 1.391 . S
C174 N148 1.435 . S
C174 C175 1.358 . S
C174 C179 1.371 . S
C175 H141 0.930 . S
C175 C174 1.358 . S
C175 C176 1.405 . S
C176 H142 0.932 . S
C176 C175 1.405 . S
C176 C177 1.383 . S
C177 C176 1.383 . S
C177 C178 1.393 . S
C178 H143 0.931 . S
C178 C177 1.393 . S
C178 C179 1.382 . S
C179 H144 0.929 . S
C179 C174 1.371 . S
C179 C178 1.382 . S
C180 N148 1.423 . S
C180 C181 1.362 . S
C180 C185 1.388 . S
C181 H145 0.929 . S
C181 C180 1.362 . S
C181 C182 1.376 . S
C182 H146 0.931 . S
C182 C181 1.376 . S
C182 C183 1.396 . S
C183 C165 1.472 . S
C183 C182 1.396 . S
C183 C184 1.348 . S
C184 H147 0.929 . S
C184 C183 1.348 . S
C184 C185 1.443 . S
C185 H149 0.932 . S
C185 C180 1.388 . S
C185 C184 1.443 . S
H186 C213 0.929 . S
N187 C212 1.433 . S
N187 C218 1.435 . S
N187 C224 1.423 . S
H188 C214 0.930 . S
H189 C217 0.931 . S
H190 C216 0.929 . S
H191 C219 0.930 . S
H192 C220 0.932 . S
H193 C223 0.929 . S
H194 C222 0.931 . S
H195 C225 0.929 . S
H196 C229 0.932 . S
H197 C226 0.931 . S
H198 C228 0.929 . S
H199 C231 0.929 . S
H200 C232 0.930 . S
H201 C234 0.929 . S
H202 C235 0.931 . S
H203 C237 0.930 . S
H204 C238 0.932 . S
H205 C240 0.931 . S
H206 C241 0.929 . S
H207 C243 0.929 . S
H208 C244 0.931 1_565 S
H209 C246 0.929 . S
N210 C230 1.433 . S
N210 C236 1.435 . S
N210 C242 1.423 . S
H211 C247 0.932 . S
C212 N187 1.433 . S
C212 C213 1.363 . S
C212 C217 1.370 . S
C213 H186 0.929 . S
C213 C212 1.363 . S
C213 C214 1.385 . S
C214 H188 0.930 . S
C214 C213 1.385 . S
C214 C215 1.357 . S
C215 C214 1.357 . S
C215 C216 1.406 . S
C216 H190 0.929 . S
C216 C215 1.406 . S
C216 C217 1.391 . S
C217 H189 0.931 . S
C217 C212 1.370 . S
C217 C216 1.391 . S
C218 N187 1.435 . S
C218 C219 1.358 . S
C218 C223 1.371 . S
C219 H191 0.930 . S
C219 C218 1.358 . S
C219 C220 1.405 . S
C220 H192 0.932 . S
C220 C219 1.405 . S
C220 C221 1.383 . S
C221 C220 1.383 . S
C221 C222 1.393 . S
C222 H194 0.931 . S
C222 C221 1.393 . S
C222 C223 1.382 . S
C223 H193 0.929 . S
C223 C218 1.371 . S
C223 C222 1.382 . S
C224 N187 1.423 . S
C224 C225 1.362 . S
C224 C229 1.388 . S
C225 H195 0.929 . S
C225 C224 1.362 . S
C225 C226 1.376 . S
C226 H197 0.931 . S
C226 C225 1.376 . S
C226 C227 1.396 . S
C227 C226 1.396 . S
C227 C228 1.348 . S
C227 C245 1.486 . S
C228 H198 0.929 . S
C228 C227 1.348 . S
C228 C229 1.443 . S
C229 H196 0.932 . S
C229 C224 1.388 . S
C229 C228 1.443 . S
C230 N210 1.433 . S
C230 C231 1.363 . S
C230 C235 1.370 . S
C231 H199 0.929 . S
C231 C230 1.363 . S
C231 C232 1.385 . S
C232 H200 0.930 . S
C232 C231 1.385 . S
C232 C233 1.357 . S
C233 C232 1.357 . S
C233 C234 1.406 . S
C234 H201 0.929 . S
C234 C233 1.406 . S
C234 C235 1.391 . S
C235 H202 0.931 . S
C235 C230 1.370 . S
C235 C234 1.391 . S
C236 N210 1.435 . S
C236 C237 1.358 . S
C236 C241 1.371 . S
C237 H203 0.930 . S
C237 C236 1.358 . S
C237 C238 1.405 . S
C238 H204 0.932 . S
C238 C237 1.405 . S
C238 C239 1.383 . S
C239 C238 1.383 . S
C239 C240 1.393 . S
C240 H205 0.931 . S
C240 C239 1.393 . S
C240 C241 1.382 . S
C241 H206 0.929 . S
C241 C236 1.371 . S
C241 C240 1.382 . S
C242 N210 1.423 . S
C242 C243 1.362 . S
C242 C247 1.388 . S
C243 H207 0.929 . S
C243 C242 1.362 . S
C243 C244 1.376 . S
C244 H208 0.931 1_545 S
C244 C243 1.376 . S
C244 C245 1.395 1_545 S
C245 C227 1.486 . S
C245 C244 1.395 1_565 S
C245 C246 1.334 1_565 S
C246 H209 0.929 . S
C246 C245 1.334 1_545 S
C246 C247 1.443 . S
C247 H211 0.932 . S
C247 C242 1.388 . S
C247 C246 1.443 . S
H248 C275 0.929 . S
N249 C274 1.433 . S
N249 C280 1.435 . S
N249 C286 1.423 . S
H250 C276 0.930 . S
H251 C279 0.931 . S
H252 C278 0.929 . S
H253 C281 0.930 . S
H254 C282 0.932 . S
H255 C285 0.927 1_556 S
H256 C284 0.931 . S
H257 C287 0.929 . S
H258 C291 0.932 . S
H259 C288 0.931 . S
H260 C290 0.929 . S
H261 C293 0.929 . S
H262 C294 0.930 . S
H263 C296 0.929 . S
H264 C297 0.931 . S
H265 C299 0.930 . S
H266 C300 0.932 . S
H267 C302 0.931 1_554 S
H268 C303 0.929 . S
H269 C305 0.929 . S
H270 C306 0.931 1_455 S
H271 C308 0.929 . S
N272 C292 1.433 . S
N272 C298 1.435 . S
N272 C304 1.423 . S
H273 C309 0.932 . S
C274 N249 1.433 . S
C274 C275 1.363 . S
C274 C279 1.370 . S
C275 H248 0.929 . S
C275 C274 1.363 . S
C275 C276 1.385 . S
C276 H250 0.930 . S
C276 C275 1.385 . S
C276 C277 1.357 . S
C277 C276 1.357 . S
C277 C278 1.406 . S
C278 H252 0.929 . S
C278 C277 1.406 . S
C278 C279 1.391 . S
C279 H251 0.931 . S
C279 C274 1.370 . S
C279 C278 1.391 . S
C280 N249 1.435 . S
C280 C281 1.358 . S
C280 C285 1.353 1_556 S
C281 H253 0.930 . S
C281 C280 1.358 . S
C281 C282 1.405 1_556 S
C282 H254 0.932 . S
C282 C281 1.405 1_554 S
C282 C283 1.383 . S
C283 C282 1.383 . S
C283 C284 1.393 . S
C284 H256 0.931 . S
C284 C283 1.393 . S
C284 C285 1.404 . S
C285 H255 0.927 1_554 S
C285 C280 1.353 1_554 S
C285 C284 1.404 . S
C286 N249 1.423 . S
C286 C287 1.362 . S
C286 C291 1.388 . S
C287 H257 0.929 . S
C287 C286 1.362 . S
C287 C288 1.376 . S
C288 H259 0.931 . S
C288 C287 1.376 . S
C288 C289 1.396 . S
C289 C288 1.396 . S
C289 C290 1.348 . S
C289 C307 1.472 . S
C290 H260 0.929 . S
C290 C289 1.348 . S
C290 C291 1.443 . S
C291 H258 0.932 . S
C291 C286 1.388 . S
C291 C290 1.443 . S
C292 N272 1.433 . S
C292 C293 1.363 . S
C292 C297 1.370 . S
C293 H261 0.929 . S
C293 C292 1.363 . S
C293 C294 1.385 . S
C294 H262 0.930 . S
C294 C293 1.385 . S
C294 C295 1.357 . S
C295 C294 1.357 . S
C295 C296 1.406 . S
C296 H263 0.929 . S
C296 C295 1.406 . S
C296 C297 1.391 . S
C297 H264 0.931 . S
C297 C292 1.370 . S
C297 C296 1.391 . S
C298 N272 1.435 . S
C298 C299 1.358 . S
C298 C303 1.371 . S
C299 H265 0.930 . S
C299 C298 1.358 . S
C299 C300 1.405 . S
C300 H266 0.932 . S
C300 C299 1.405 . S
C300 C301 1.383 . S
C301 C300 1.383 . S
C301 C302 1.393 . S
C302 H267 0.931 1_556 S
C302 C301 1.393 . S
C302 C303 1.382 . S
C303 H268 0.929 . S
C303 C298 1.371 . S
C303 C302 1.382 . S
C304 N272 1.423 . S
C304 C305 1.362 . S
C304 C309 1.388 . S
C305 H269 0.929 . S
C305 C304 1.362 . S
C305 C306 1.376 . S
C306 H270 0.931 1_655 S
C306 C305 1.376 . S
C306 C307 1.396 1_655 S
C307 C289 1.472 . S
C307 C306 1.396 1_455 S
C307 C308 1.348 1_455 S
C308 H271 0.929 . S
C308 C307 1.348 1_655 S
C308 C309 1.443 . S
C309 H273 0.932 . S
C309 C304 1.388 . S
C309 C308 1.443 . S
H310 C337 0.929 . S
N311 C336 1.433 . S
N311 C342 1.435 . S
N311 C348 1.423 . S
H312 C338 0.930 . S
H313 C341 0.931 . S
H314 C340 0.929 . S
H315 C343 0.930 . S
H316 C344 0.932 . S
H317 C347 0.929 . S
H318 C346 0.931 . S
H319 C349 0.929 . S
H320 C353 0.932 . S
H321 C350 0.931 . S
H322 C352 0.929 . S
H323 C355 0.929 . S
H324 C356 0.930 . S
H325 C358 0.929 . S
H326 C359 0.931 . S
H327 C361 0.930 . S
H328 C362 0.932 . S
H329 C364 0.931 . S
H330 C365 0.929 . S
H331 C367 0.929 . S
H332 C368 0.931 . S
H333 C370 0.929 . S
N334 C354 1.433 . S
N334 C360 1.435 . S
N334 C366 1.423 . S
H335 C371 0.932 . S
C336 N311 1.433 . S
C336 C337 1.363 . S
C336 C341 1.370 . S
C337 H310 0.929 . S
C337 C336 1.363 . S
C337 C338 1.385 . S
C338 H312 0.930 . S
C338 C337 1.385 . S
C338 C339 1.357 . S
C339 C338 1.357 . S
C339 C340 1.406 . S
C340 H314 0.929 . S
C340 C339 1.406 . S
C340 C341 1.391 . S
C341 H313 0.931 . S
C341 C336 1.370 . S
C341 C340 1.391 . S
C342 N311 1.435 . S
C342 C343 1.358 . S
C342 C347 1.371 . S
C343 H315 0.930 . S
C343 C342 1.358 . S
C343 C344 1.405 . S
C344 H316 0.932 . S
C344 C343 1.405 . S
C344 C345 1.383 . S
C345 C344 1.383 . S
C345 C346 1.393 . S
C346 H318 0.931 . S
C346 C345 1.393 . S
C346 C347 1.382 . S
C347 H317 0.929 . S
C347 C342 1.371 . S
C347 C346 1.382 . S
C348 N311 1.423 . S
C348 C349 1.362 . S
C348 C353 1.388 . S
C349 H319 0.929 . S
C349 C348 1.362 . S
C349 C350 1.376 . S
C350 H321 0.931 . S
C350 C349 1.376 . S
C350 C351 1.396 . S
C351 C350 1.396 . S
C351 C352 1.348 . S
C351 C369 1.472 . S
C352 H322 0.929 . S
C352 C351 1.348 . S
C352 C353 1.443 . S
C353 H320 0.932 . S
C353 C348 1.388 . S
C353 C352 1.443 . S
C354 N334 1.433 . S
C354 C355 1.363 . S
C354 C359 1.370 . S
C355 H323 0.929 . S
C355 C354 1.363 . S
C355 C356 1.385 . S
C356 H324 0.930 . S
C356 C355 1.385 . S
C356 C357 1.357 . S
C357 C356 1.357 . S
C357 C358 1.406 . S
C358 H325 0.929 . S
C358 C357 1.406 . S
C358 C359 1.391 . S
C359 H326 0.931 . S
C359 C354 1.370 . S
C359 C358 1.391 . S
C360 N334 1.435 . S
C360 C361 1.358 . S
C360 C365 1.371 . S
C361 H327 0.930 . S
C361 C360 1.358 . S
C361 C362 1.405 . S
C362 H328 0.932 . S
C362 C361 1.405 . S
C362 C363 1.383 . S
C363 C362 1.383 . S
C363 C364 1.393 . S
C364 H329 0.931 . S
C364 C363 1.393 . S
C364 C365 1.382 . S
C365 H330 0.929 . S
C365 C360 1.371 . S
C365 C364 1.382 . S
C366 N334 1.423 . S
C366 C367 1.362 . S
C366 C371 1.388 . S
C367 H331 0.929 . S
C367 C366 1.362 . S
C367 C368 1.376 . S
C368 H332 0.931 . S
C368 C367 1.376 . S
C368 C369 1.396 . S
C369 C351 1.472 . S
C369 C368 1.396 . S
C369 C370 1.348 . S
C370 H333 0.929 . S
C370 C369 1.348 . S
C370 C371 1.443 . S
C371 H335 0.932 . S
C371 C366 1.388 . S
C371 C370 1.443 . S
H372 C399 0.929 . S
N373 C398 1.433 . S
N373 C404 1.435 . S
N373 C410 1.423 . S
H374 C400 0.930 . S
H375 C403 0.931 . S
H376 C402 0.929 . S
H377 C405 0.930 . S
H378 C406 0.932 . S
H379 C409 0.929 . S
H380 C408 0.931 . S
H381 C411 0.929 . S
H382 C415 0.932 . S
H383 C412 0.931 . S
H384 C414 0.929 . S
H385 C417 0.929 . S
H386 C418 0.930 . S
H387 C420 0.929 . S
H388 C421 0.931 . S
H389 C423 0.930 . S
H390 C424 0.932 . S
H391 C426 0.931 . S
H392 C427 0.929 . S
H393 C429 0.929 . S
H394 C430 0.931 . S
H395 C432 0.929 . S
N396 C416 1.433 . S
N396 C422 1.435 . S
N396 C428 1.423 . S
H397 C433 0.932 . S
C398 N373 1.433 . S
C398 C399 1.363 . S
C398 C403 1.370 . S
C399 H372 0.929 . S
C399 C398 1.363 . S
C399 C400 1.385 . S
C400 H374 0.930 . S
C400 C399 1.385 . S
C400 C401 1.357 . S
C401 C400 1.357 . S
C401 C402 1.406 . S
C402 H376 0.929 . S
C402 C401 1.406 . S
C402 C403 1.391 . S
C403 H375 0.931 . S
C403 C398 1.370 . S
C403 C402 1.391 . S
C404 N373 1.435 . S
C404 C405 1.358 . S
C404 C409 1.371 . S
C405 H377 0.930 . S
C405 C404 1.358 . S
C405 C406 1.405 . S
C406 H378 0.932 . S
C406 C405 1.405 . S
C406 C407 1.383 . S
C407 C406 1.383 . S
C407 C408 1.393 . S
C408 H380 0.931 . S
C408 C407 1.393 . S
C408 C409 1.382 . S
C409 H379 0.929 . S
C409 C404 1.371 . S
C409 C408 1.382 . S
C410 N373 1.423 . S
C410 C411 1.362 1_565 S
C410 C415 1.388 . S
C411 H381 0.929 . S
C411 C410 1.362 1_545 S
C411 C412 1.376 . S
C412 H383 0.931 . S
C412 C411 1.376 . S
C412 C413 1.396 . S
C413 C412 1.396 . S
C413 C414 1.348 . S
C413 C431 1.472 . S
C414 H384 0.929 . S
C414 C413 1.348 . S
C414 C415 1.443 1_545 S
C415 H382 0.932 . S
C415 C410 1.388 . S
C415 C414 1.443 1_565 S
C416 N396 1.433 . S
C416 C417 1.363 . S
C416 C421 1.370 . S
C417 H385 0.929 . S
C417 C416 1.363 . S
C417 C418 1.385 . S
C418 H386 0.930 . S
C418 C417 1.385 . S
C418 C419 1.357 . S
C419 C418 1.357 . S
C419 C420 1.406 . S
C420 H387 0.929 . S
C420 C419 1.406 . S
C420 C421 1.391 . S
C421 H388 0.931 . S
C421 C416 1.370 . S
C421 C420 1.391 . S
C422 N396 1.435 . S
C422 C423 1.358 . S
C422 C427 1.371 . S
C423 H389 0.930 . S
C423 C422 1.358 . S
C423 C424 1.405 . S
C424 H390 0.932 . S
C424 C423 1.405 . S
C424 C425 1.383 . S
C425 C424 1.383 . S
C425 C426 1.393 . S
C426 H391 0.931 . S
C426 C425 1.393 . S
C426 C427 1.382 . S
C427 H392 0.929 . S
C427 C422 1.371 . S
C427 C426 1.382 . S
C428 N396 1.423 . S
C428 C429 1.362 . S
C428 C433 1.388 . S
C429 H393 0.929 . S
C429 C428 1.362 . S
C429 C430 1.376 . S
C430 H394 0.931 . S
C430 C429 1.376 . S
C430 C431 1.396 . S
C431 C413 1.472 . S
C431 C430 1.396 . S
C431 C432 1.348 . S
C432 H395 0.929 . S
C432 C431 1.348 . S
C432 C433 1.443 . S
C433 H397 0.932 . S
C433 C428 1.388 . S
C433 C432 1.443 . S
H434 C461 0.929 1_565 S
N435 C460 1.433 . S
N435 C466 1.435 . S
N435 C472 1.423 . S
H436 C462 0.921 1_565 S
H437 C465 0.931 . S
H438 C464 0.929 . S
H439 C467 0.930 . S
H440 C468 0.932 . S
H441 C471 0.929 . S
H442 C470 0.931 . S
H443 C473 0.929 . S
H444 C477 0.932 . S
H445 C474 0.931 . S
H446 C476 0.929 . S
H447 C479 0.929 . S
H448 C480 0.930 . S
H449 C482 0.929 . S
H450 C483 0.931 . S
H451 C485 0.930 1_455 S
H452 C486 0.932 . S
H453 C488 0.931 . S
H454 C489 0.929 . S
H455 C491 0.927 . S
H456 C492 0.931 . S
H457 C494 0.929 . S
N458 C478 1.434 . S
N458 C484 1.435 . S
N458 C490 1.423 1_655 S
H459 C495 0.932 . S
C460 N435 1.433 . S
C460 C461 1.363 . S
C460 C465 1.370 . S
C461 H434 0.929 1_545 S
C461 C460 1.363 . S
C461 C462 1.387 . S
C462 H436 0.921 1_545 S
C462 C461 1.387 . S
C462 C463 1.364 . S
C463 C462 1.364 . S
C463 C464 1.406 . S
C464 H438 0.929 . S
C464 C463 1.406 . S
C464 C465 1.391 . S
C465 H437 0.931 . S
C465 C460 1.370 . S
C465 C464 1.391 . S
C466 N435 1.435 . S
C466 C467 1.358 . S
C466 C471 1.371 . S
C467 H439 0.930 . S
C467 C466 1.358 . S
C467 C468 1.405 . S
C468 H440 0.932 . S
C468 C467 1.405 . S
C468 C469 1.383 . S
C469 C468 1.383 . S
C469 C470 1.393 . S
C470 H442 0.931 . S
C470 C469 1.393 . S
C470 C471 1.382 . S
C471 H441 0.929 . S
C471 C466 1.371 . S
C471 C470 1.382 . S
C472 N435 1.423 . S
C472 C473 1.362 . S
C472 C477 1.388 . S
C473 H443 0.929 . S
C473 C472 1.362 . S
C473 C474 1.376 . S
C474 H445 0.931 . S
C474 C473 1.376 . S
C474 C475 1.396 . S
C475 C474 1.396 . S
C475 C476 1.348 . S
C475 C493 1.472 . S
C476 H446 0.929 . S
C476 C475 1.348 . S
C476 C477 1.443 . S
C477 H444 0.932 . S
C477 C472 1.388 . S
C477 C476 1.443 . S
C478 N458 1.434 . S
C478 C479 1.369 . S
C478 C483 1.364 1_655 S
C479 H447 0.929 . S
C479 C478 1.369 . S
C479 C480 1.385 . S
C480 H448 0.930 . S
C480 C479 1.385 . S
C480 C481 1.357 1_655 S
C481 C480 1.357 1_455 S
C481 C482 1.406 . S
C482 H449 0.929 . S
C482 C481 1.406 . S
C482 C483 1.391 . S
C483 H450 0.931 . S
C483 C478 1.364 1_455 S
C483 C482 1.391 . S
C484 N458 1.435 . S
C484 C485 1.358 . S
C484 C489 1.371 . S
C485 H451 0.930 1_655 S
C485 C484 1.358 . S
C485 C486 1.405 . S
C486 H452 0.932 . S
C486 C485 1.405 . S
C486 C487 1.383 . S
C487 C486 1.383 . S
C487 C488 1.393 . S
C488 H453 0.931 . S
C488 C487 1.393 . S
C488 C489 1.382 . S
C489 H454 0.929 . S
C489 C484 1.371 . S
C489 C488 1.382 . S
C490 N458 1.423 1_455 S
C490 C491 1.362 . S
C490 C495 1.388 . S
C491 H455 0.927 . S
C491 C490 1.362 . S
C491 C492 1.376 . S
C492 H456 0.931 . S
C492 C491 1.376 . S
C492 C493 1.396 . S
C493 C475 1.472 . S
C493 C492 1.396 . S
C493 C494 1.348 . S
C494 H457 0.929 . S
C494 C493 1.348 . S
C494 C495 1.443 . S
C495 H459 0.932 . S
C495 C490 1.388 . S
C495 C494 1.443 . S
O496 Cd497 2.223 . S
O496 C504 1.315 . S
Cd497 O496 2.223 . S
Cd497 O500 2.297 . S
Cd497 O501 2.439 . S
Cd497 O507 2.240 . S
Cd498 O499 2.240 . S
Cd498 O506 2.223 . S
Cd498 O508 2.297 . S
Cd498 O509 2.439 . S
O499 Cd498 2.240 . S
O499 C504 1.279 . S
O500 Cd497 2.297 . S
O500 C502 1.247 . S
O501 Cd497 2.439 . S
O501 C502 1.208 . S
C502 O500 1.247 . S
C502 O501 1.208 . S
C503 O508 1.247 . S
C503 O509 1.208 . S
C504 O496 1.315 . S
C504 O499 1.279 . S
C505 O506 1.315 . S
C505 O507 1.279 . S
O506 Cd498 2.223 . S
O506 C505 1.315 . S
O507 Cd497 2.240 . S
O507 C505 1.279 . S
O508 Cd498 2.297 . S
O508 C503 1.247 . S
O509 Cd498 2.439 . S
O509 C503 1.208 . S
O510 Cd511 2.223 . S
O510 C518 1.315 . S
Cd511 O510 2.223 . S
Cd511 O514 2.297 . S
Cd511 O515 2.439 . S
Cd511 O521 2.240 . S
Cd512 O513 2.240 . S
Cd512 O520 2.223 . S
Cd512 O522 2.297 . S
Cd512 O523 2.439 . S
O513 Cd512 2.240 . S
O513 C518 1.279 . S
O514 Cd511 2.297 . S
O514 C516 1.247 . S
O515 Cd511 2.439 . S
O515 C516 1.208 . S
C516 O514 1.247 . S
C516 O515 1.208 . S
C517 O522 1.247 . S
C517 O523 1.208 . S
C518 O510 1.315 . S
C518 O513 1.279 . S
C519 O520 1.315 . S
C519 O521 1.279 . S
O520 Cd512 2.223 . S
O520 C519 1.315 . S
O521 Cd511 2.240 . S
O521 C519 1.279 . S
O522 Cd512 2.297 . S
O522 C517 1.247 . S
O523 Cd512 2.439 . S
O523 C517 1.208 . S
O524 Cd525 2.223 . S
O524 C532 1.315 . S
Cd525 O524 2.223 . S
Cd525 O528 2.297 . S
Cd525 O529 2.439 . S
Cd525 O535 2.240 . S
Cd526 O527 2.240 . S
Cd526 O534 2.223 . S
Cd526 O536 2.297 . S
Cd526 O537 2.439 . S
O527 Cd526 2.240 . S
O527 C532 1.279 . S
O528 Cd525 2.297 . S
O528 C530 1.247 . S
O529 Cd525 2.439 . S
O529 C530 1.208 . S
C530 O528 1.247 . S
C530 O529 1.208 . S
C531 O536 1.247 . S
C531 O537 1.208 . S
C532 O524 1.315 . S
C532 O527 1.279 . S
C533 O534 1.315 . S
C533 O535 1.279 . S
O534 Cd526 2.223 . S
O534 C533 1.315 . S
O535 Cd525 2.240 . S
O535 C533 1.279 . S
O536 Cd526 2.297 . S
O536 C531 1.247 . S
O537 Cd526 2.439 . S
O537 C531 1.208 . S
O538 Cd539 2.223 . S
O538 C546 1.315 . S
Cd539 O538 2.223 . S
Cd539 O542 2.297 . S
Cd539 O543 2.439 . S
Cd539 O549 2.240 . S
Cd540 O541 2.240 . S
Cd540 O548 2.223 . S
Cd540 O550 2.297 . S
Cd540 O551 2.439 . S
O541 Cd540 2.240 . S
O541 C546 1.279 . S
O542 Cd539 2.297 . S
O542 C544 1.247 . S
O543 Cd539 2.439 . S
O543 C544 1.208 . S
C544 O542 1.247 . S
C544 O543 1.208 . S
C545 O550 1.247 . S
C545 O551 1.208 . S
C546 O538 1.315 . S
C546 O541 1.279 . S
C547 O548 1.315 . S
C547 O549 1.279 . S
O548 Cd540 2.223 . S
O548 C547 1.315 . S
O549 Cd539 2.240 . S
O549 C547 1.279 . S
O550 Cd540 2.297 . S
O550 C545 1.247 . S
O551 Cd540 2.439 . S
O551 C545 1.208 . S
O552 Cd553 2.223 . S
O552 C560 1.315 . S
Cd553 O552 2.223 . S
Cd553 O556 2.297 . S
Cd553 O557 2.439 . S
Cd553 O563 2.240 . S
Cd554 O555 2.240 . S
Cd554 O562 2.223 . S
Cd554 O564 2.297 . S
Cd554 O565 2.439 . S
O555 Cd554 2.240 . S
O555 C560 1.279 . S
O556 Cd553 2.297 . S
O556 C558 1.247 . S
O557 Cd553 2.439 . S
O557 C558 1.208 . S
C558 O556 1.247 . S
C558 O557 1.208 . S
C559 O564 1.247 . S
C559 O565 1.208 . S
C560 O552 1.315 . S
C560 O555 1.279 . S
C561 O562 1.315 . S
C561 O563 1.279 . S
O562 Cd554 2.223 . S
O562 C561 1.315 . S
O563 Cd553 2.240 . S
O563 C561 1.279 . S
O564 Cd554 2.297 . S
O564 C559 1.247 . S
O565 Cd554 2.439 . S
O565 C559 1.208 . S
O566 Cd567 2.223 . S
O566 C574 1.315 . S
Cd567 O566 2.223 . S
Cd567 O570 2.297 . S
Cd567 O571 2.439 . S
Cd567 O577 2.240 . S
Cd568 O569 2.240 . S
Cd568 O576 2.223 . S
Cd568 O578 2.297 . S
Cd568 O579 2.439 . S
O569 Cd568 2.240 . S
O569 C574 1.279 . S
O570 Cd567 2.297 . S
O570 C572 1.247 . S
O571 Cd567 2.439 . S
O571 C572 1.208 . S
C572 O570 1.247 . S
C572 O571 1.208 . S
C573 O578 1.247 . S
C573 O579 1.208 . S
C574 O566 1.315 . S
C574 O569 1.279 . S
C575 O576 1.315 . S
C575 O577 1.279 . S
O576 Cd568 2.223 . S
O576 C575 1.315 . S
O577 Cd567 2.240 . S
O577 C575 1.279 . S
O578 Cd568 2.297 . S
O578 C573 1.247 . S
O579 Cd568 2.439 . S
O579 C573 1.208 . S
O580 Cd581 2.223 . S
O580 C588 1.315 . S
Cd581 O580 2.223 . S
Cd581 O584 2.297 . S
Cd581 O585 2.444 . S
Cd581 O591 2.240 1_554 S
Cd582 O583 2.240 1_556 S
Cd582 O590 2.226 . S
Cd582 O592 2.297 . S
Cd582 O593 2.439 . S
O583 Cd582 2.240 1_554 S
O583 C588 1.279 . S
O584 Cd581 2.297 . S
O584 C586 1.247 . S
O585 Cd581 2.444 . S
O585 C586 1.229 . S
C586 O584 1.247 . S
C586 O585 1.229 . S
C587 O592 1.247 . S
C587 O593 1.208 . S
C588 O580 1.315 . S
C588 O583 1.279 . S
C589 O590 1.326 . S
C589 O591 1.279 . S
O590 Cd582 2.226 . S
O590 C589 1.326 . S
O591 Cd581 2.240 1_556 S
O591 C589 1.279 . S
O592 Cd582 2.297 . S
O592 C587 1.247 . S
O593 Cd582 2.439 . S
O593 C587 1.208 . S
O594 Cd595 2.223 . S
O594 C602 1.315 . S
Cd595 O594 2.223 . S
Cd595 O598 2.297 . S
Cd595 O599 2.439 . S
Cd595 O605 2.240 . S
Cd596 O597 2.240 . S
Cd596 O604 2.223 . S
Cd596 O606 2.297 . S
Cd596 O607 2.439 . S
O597 Cd596 2.240 . S
O597 C602 1.279 . S
O598 Cd595 2.297 . S
O598 C600 1.247 . S
O599 Cd595 2.439 . S
O599 C600 1.208 . S
C600 O598 1.247 . S
C600 O599 1.208 . S
C601 O606 1.247 . S
C601 O607 1.208 . S
C602 O594 1.315 . S
C602 O597 1.279 . S
C603 O604 1.315 . S
C603 O605 1.279 . S
O604 Cd596 2.223 . S
O604 C603 1.315 . S
O605 Cd595 2.240 . S
O605 C603 1.279 . S
O606 Cd596 2.297 . S
O606 C601 1.247 . S
O607 Cd596 2.439 . S
O607 C601 1.208 . S
H608 C614 0.930 . S
H609 C617 0.930 . S
H610 C618 0.930 . S
H611 C619 0.930 . S
H612 C622 0.930 . S
H613 C623 0.930 . S
C614 H608 0.930 . S
C614 C615 1.355 . S
C614 C616 1.415 . S
C615 C614 1.355 . S
C615 C617 1.419 . S
C616 C614 1.415 . S
C616 C621 1.425 . S
C616 C623 1.409 . S
C617 H609 0.930 . S
C617 C615 1.419 . S
C617 C618 1.362 . S
C618 H610 0.930 . S
C618 C617 1.362 . S
C618 C621 1.409 . S
C619 H611 0.930 . S
C619 C620 1.355 . S
C619 C621 1.415 . S
C620 C619 1.355 . S
C620 C622 1.419 . S
C621 C616 1.425 . S
C621 C618 1.409 . S
C621 C619 1.415 . S
C622 H612 0.930 . S
C622 C620 1.419 . S
C622 C623 1.362 . S
C623 H613 0.930 . S
C623 C616 1.409 . S
C623 C622 1.362 . S
H624 C630 0.930 . S
H625 C633 0.930 . S
H626 C634 0.930 . S
H627 C635 0.930 . S
H628 C638 0.930 . S
H629 C639 0.930 . S
C630 H624 0.930 . S
C630 C631 1.355 . S
C630 C632 1.415 . S
C631 C630 1.355 . S
C631 C633 1.419 . S
C632 C630 1.415 . S
C632 C637 1.425 . S
C632 C639 1.409 . S
C633 H625 0.930 . S
C633 C631 1.419 . S
C633 C634 1.362 . S
C634 H626 0.930 . S
C634 C633 1.362 . S
C634 C637 1.409 . S
C635 H627 0.930 . S
C635 C636 1.355 . S
C635 C637 1.415 . S
C636 C635 1.355 . S
C636 C638 1.419 . S
C637 C632 1.425 . S
C637 C634 1.409 . S
C637 C635 1.415 . S
C638 H628 0.930 . S
C638 C636 1.419 . S
C638 C639 1.362 . S
C639 H629 0.930 . S
C639 C632 1.409 . S
C639 C638 1.362 . S
H640 C646 0.930 . S
H641 C649 0.930 . S
H642 C650 0.930 . S
H643 C651 0.930 . S
H644 C654 0.930 . S
H645 C655 0.930 . S
C646 H640 0.930 . S
C646 C647 1.355 . S
C646 C648 1.415 . S
C647 C646 1.355 . S
C647 C649 1.419 . S
C648 C646 1.415 . S
C648 C653 1.425 . S
C648 C655 1.409 . S
C649 H641 0.930 . S
C649 C647 1.419 . S
C649 C650 1.362 . S
C650 H642 0.930 . S
C650 C649 1.362 . S
C650 C653 1.409 . S
C651 H643 0.930 . S
C651 C652 1.355 . S
C651 C653 1.415 . S
C652 C651 1.355 . S
C652 C654 1.419 . S
C653 C648 1.425 . S
C653 C650 1.409 . S
C653 C651 1.415 . S
C654 H644 0.930 . S
C654 C652 1.419 . S
C654 C655 1.362 . S
C655 H645 0.930 . S
C655 C648 1.409 . S
C655 C654 1.362 . S
H656 C662 0.930 . S
H657 C665 0.930 . S
H658 C666 0.930 . S
H659 C667 0.930 . S
H660 C670 0.930 . S
H661 C671 0.930 . S
C662 H656 0.930 . S
C662 C663 1.355 . S
C662 C664 1.415 . S
C663 C662 1.355 . S
C663 C665 1.419 . S
C664 C662 1.415 . S
C664 C669 1.425 . S
C664 C671 1.409 . S
C665 H657 0.930 . S
C665 C663 1.419 . S
C665 C666 1.362 . S
C666 H658 0.930 . S
C666 C665 1.362 . S
C666 C669 1.409 . S
C667 H659 0.930 . S
C667 C668 1.355 . S
C667 C669 1.415 . S
C668 C667 1.355 . S
C668 C670 1.419 . S
C669 C664 1.425 . S
C669 C666 1.409 . S
C669 C667 1.415 . S
C670 H660 0.930 . S
C670 C668 1.419 . S
C670 C671 1.362 . S
C671 H661 0.930 . S
C671 C664 1.409 . S
C671 C670 1.362 . S
H672 C678 0.930 . S
H673 C681 0.945 . S
H674 C682 0.930 1_556 S
H675 C683 0.930 . S
H676 C686 0.930 . S
H677 C687 0.930 . S
C678 H672 0.930 . S
C678 C679 1.355 . S
C678 C680 1.415 . S
C679 C678 1.355 . S
C679 C681 1.419 . S
C680 C678 1.415 . S
C680 C685 1.425 . S
C680 C687 1.409 . S
C681 H673 0.945 . S
C681 C679 1.419 . S
C681 C682 1.362 . S
C682 H674 0.930 1_554 S
C682 C681 1.362 . S
C682 C685 1.409 . S
C683 H675 0.930 . S
C683 C684 1.355 . S
C683 C685 1.415 . S
C684 C683 1.355 . S
C684 C686 1.419 . S
C685 C680 1.425 . S
C685 C682 1.409 . S
C685 C683 1.415 . S
C686 H676 0.930 . S
C686 C684 1.419 . S
C686 C687 1.362 . S
C687 H677 0.930 . S
C687 C680 1.409 . S
C687 C686 1.362 . S
H688 C694 0.930 . S
H689 C697 0.930 . S
H690 C698 0.930 . S
H691 C699 0.930 . S
H692 C702 0.930 . S
H693 C703 0.930 . S
C694 H688 0.930 . S
C694 C695 1.355 . S
C694 C696 1.415 . S
C695 C694 1.355 . S
C695 C697 1.419 . S
C696 C694 1.415 . S
C696 C701 1.425 . S
C696 C703 1.409 . S
C697 H689 0.930 . S
C697 C695 1.419 . S
C697 C698 1.362 . S
C698 H690 0.930 . S
C698 C697 1.362 . S
C698 C701 1.409 . S
C699 H691 0.930 . S
C699 C700 1.355 . S
C699 C701 1.415 . S
C700 C699 1.355 . S
C700 C702 1.419 . S
C701 C696 1.425 . S
C701 C698 1.409 . S
C701 C699 1.415 . S
C702 H692 0.930 . S
C702 C700 1.419 . S
C702 C703 1.362 . S
C703 H693 0.930 . S
C703 C696 1.409 . S
C703 C702 1.362 . S
H704 C710 0.930 . S
H705 C713 0.930 . S
H706 C714 0.930 . S
H707 C715 0.930 . S
H708 C718 0.930 . S
H709 C719 0.930 . S
C710 H704 0.930 . S
C710 C711 1.355 . S
C710 C712 1.415 . S
C711 C710 1.355 . S
C711 C713 1.419 . S
C712 C710 1.415 . S
C712 C717 1.425 . S
C712 C719 1.409 . S
C713 H705 0.930 . S
C713 C711 1.419 . S
C713 C714 1.362 . S
C714 H706 0.930 . S
C714 C713 1.362 . S
C714 C717 1.409 . S
C715 H707 0.930 . S
C715 C716 1.355 . S
C715 C717 1.415 . S
C716 C715 1.355 . S
C716 C718 1.419 . S
C717 C712 1.425 . S
C717 C714 1.409 . S
C717 C715 1.415 . S
C718 H708 0.930 . S
C718 C716 1.419 . S
C718 C719 1.362 . S
C719 H709 0.930 . S
C719 C712 1.409 . S
C719 C718 1.362 . S
H720 C726 0.930 . S
H721 C729 0.930 . S
H722 C730 0.930 . S
H723 C731 0.930 . S
H724 C734 0.930 . S
H725 C735 0.930 . S
C726 H720 0.930 . S
C726 C727 1.355 . S
C726 C728 1.415 . S
C727 C726 1.355 . S
C727 C729 1.419 . S
C728 C726 1.415 . S
C728 C733 1.425 . S
C728 C735 1.409 . S
C729 H721 0.930 . S
C729 C727 1.419 . S
C729 C730 1.362 . S
C730 H722 0.930 . S
C730 C729 1.362 . S
C730 C733 1.409 . S
C731 H723 0.930 . S
C731 C732 1.355 . S
C731 C733 1.415 . S
C732 C731 1.355 . S
C732 C734 1.419 . S
C733 C728 1.425 . S
C733 C730 1.409 . S
C733 C731 1.415 . S
C734 H724 0.930 . S
C734 C732 1.419 . S
C734 C735 1.362 . S
C735 H725 0.930 . S
C735 C728 1.409 . S
C735 C734 1.362 . S
H736 C742 0.930 . S
H737 C745 0.930 . S
H738 C746 0.930 . S
H739 C747 0.930 . S
H740 C750 0.930 . S
H741 C751 0.930 . S
C742 H736 0.930 . S
C742 C743 1.355 . S
C742 C744 1.415 . S
C743 C742 1.355 . S
C743 C745 1.419 . S
C744 C742 1.415 . S
C744 C749 1.425 . S
C744 C751 1.409 . S
C745 H737 0.930 . S
C745 C743 1.419 . S
C745 C746 1.362 . S
C746 H738 0.930 . S
C746 C745 1.362 . S
C746 C749 1.409 . S
C747 H739 0.930 . S
C747 C748 1.355 . S
C747 C749 1.415 . S
C748 C747 1.355 . S
C748 C750 1.419 . S
C749 C744 1.425 . S
C749 C746 1.409 . S
C749 C747 1.415 . S
C750 H740 0.930 . S
C750 C748 1.419 . S
C750 C751 1.362 . S
C751 H741 0.930 . S
C751 C744 1.409 . S
C751 C750 1.362 . S
H752 C758 0.930 . S
H753 C761 0.901 1_556 S
H754 C762 0.930 . S
H755 C763 0.930 1_556 S
H756 C766 0.930 . S
H757 C767 0.930 . S
C758 H752 0.930 . S
C758 C759 1.355 . S
C758 C760 1.415 . S
C759 C758 1.355 . S
C759 C761 1.466 . S
C760 C758 1.415 . S
C760 C765 1.425 . S
C760 C767 1.409 . S
C761 H753 0.901 1_554 S
C761 C759 1.466 . S
C761 C762 1.346 1_554 S
C762 H754 0.930 . S
C762 C761 1.346 1_556 S
C762 C765 1.409 1_556 S
C763 H755 0.930 1_554 S
C763 C764 1.355 . S
C763 C765 1.415 . S
C764 C763 1.355 . S
C764 C766 1.419 . S
C765 C760 1.425 . S
C765 C762 1.409 1_554 S
C765 C763 1.415 . S
C766 H756 0.930 . S
C766 C764 1.419 . S
C766 C767 1.362 . S
C767 H757 0.930 . S
C767 C760 1.409 . S
C767 C766 1.362 . S
H768 C774 0.930 . S
H769 C777 0.930 . S
H770 C778 0.930 . S
H771 C779 0.930 . S
H772 C782 0.930 . S
H773 C783 0.930 . S
C774 H768 0.930 . S
C774 C775 1.355 . S
C774 C776 1.415 . S
C775 C774 1.355 . S
C775 C777 1.419 . S
C776 C774 1.415 . S
C776 C781 1.425 . S
C776 C783 1.409 . S
C777 H769 0.930 . S
C777 C775 1.419 . S
C777 C778 1.362 . S
C778 H770 0.930 . S
C778 C777 1.362 . S
C778 C781 1.409 . S
C779 H771 0.930 . S
C779 C780 1.355 . S
C779 C781 1.415 . S
C780 C779 1.355 . S
C780 C782 1.419 . S
C781 C776 1.425 . S
C781 C778 1.409 . S
C781 C779 1.415 . S
C782 H772 0.930 . S
C782 C780 1.419 . S
C782 C783 1.362 . S
C783 H773 0.930 . S
C783 C776 1.409 . S
C783 C782 1.362 . S
H784 C790 0.930 . S
H785 C793 0.930 . S
H786 C794 0.930 . S
H787 C795 0.930 . S
H788 C798 0.930 . S
H789 C799 0.930 . S
C790 H784 0.930 . S
C790 C791 1.355 . S
C790 C792 1.415 . S
C791 C790 1.355 . S
C791 C793 1.419 . S
C792 C790 1.415 . S
C792 C797 1.425 . S
C792 C799 1.409 . S
C793 H785 0.930 . S
C793 C791 1.419 . S
C793 C794 1.362 . S
C794 H786 0.930 . S
C794 C793 1.362 . S
C794 C797 1.409 . S
C795 H787 0.930 . S
C795 C796 1.355 . S
C795 C797 1.415 . S
C796 C795 1.355 . S
C796 C798 1.419 . S
C797 C792 1.425 . S
C797 C794 1.409 . S
C797 C795 1.415 . S
C798 H788 0.930 . S
C798 C796 1.419 . S
C798 C799 1.362 . S
C799 H789 0.930 . S
C799 C792 1.409 . S
C799 C798 1.362 . S
H800 C806 0.930 . S
H801 C809 0.930 . S
H802 C810 0.930 . S
H803 C811 0.930 . S
H804 C814 0.930 . S
H805 C815 0.930 . S
C806 H800 0.930 . S
C806 C807 1.355 . S
C806 C808 1.415 . S
C807 C806 1.355 . S
C807 C809 1.419 . S
C808 C806 1.415 . S
C808 C813 1.425 . S
C808 C815 1.409 . S
C809 H801 0.930 . S
C809 C807 1.419 . S
C809 C810 1.362 . S
C810 H802 0.930 . S
C810 C809 1.362 . S
C810 C813 1.409 . S
C811 H803 0.930 . S
C811 C812 1.355 . S
C811 C813 1.415 . S
C812 C811 1.355 . S
C812 C814 1.419 . S
C813 C808 1.425 . S
C813 C810 1.409 . S
C813 C811 1.415 . S
C814 H804 0.930 . S
C814 C812 1.419 . S
C814 C815 1.362 . S
C815 H805 0.930 . S
C815 C808 1.409 . S
C815 C814 1.362 . S
H816 C822 0.930 . S
H817 C825 0.930 . S
H818 C826 0.930 . S
H819 C827 0.930 . S
H820 C830 0.930 . S
H821 C831 0.930 . S
C822 H816 0.930 . S
C822 C823 1.355 . S
C822 C824 1.415 . S
C823 C822 1.355 . S
C823 C825 1.419 . S
C824 C822 1.415 . S
C824 C829 1.425 . S
C824 C831 1.409 . S
C825 H817 0.930 . S
C825 C823 1.419 . S
C825 C826 1.362 . S
C826 H818 0.930 . S
C826 C825 1.362 . S
C826 C829 1.409 . S
C827 H819 0.930 . S
C827 C828 1.355 . S
C827 C829 1.415 . S
C828 C827 1.355 . S
C828 C830 1.419 . S
C829 C824 1.425 . S
C829 C826 1.409 . S
C829 C827 1.415 . S
C830 H820 0.930 . S
C830 C828 1.419 . S
C830 C831 1.362 . S
C831 H821 0.930 . S
C831 C824 1.409 . S
C831 C830 1.362 . S
H832 C838 0.930 . S
H833 C841 0.930 . S
H834 C842 0.930 . S
H835 C843 0.925 1_554 S
H836 C846 0.930 . S
H837 C847 0.930 . S
C838 H832 0.930 . S
C838 C839 1.355 1_556 S
C838 C840 1.415 . S
C839 C838 1.355 1_554 S
C839 C841 1.419 . S
C840 C838 1.415 . S
C840 C845 1.419 1_556 S
C840 C847 1.409 . S
C841 H833 0.930 . S
C841 C839 1.419 . S
C841 C842 1.362 . S
C842 H834 0.930 . S
C842 C841 1.362 . S
C842 C845 1.414 . S
C843 H835 0.925 1_556 S
C843 C844 1.359 . S
C843 C845 1.418 1_556 S
C844 C843 1.359 . S
C844 C846 1.419 . S
C845 C840 1.419 1_554 S
C845 C842 1.414 . S
C845 C843 1.418 1_554 S
C846 H836 0.930 . S
C846 C844 1.419 . S
C846 C847 1.362 . S
C847 H837 0.930 . S
C847 C840 1.409 . S
C847 C846 1.362 . S
H848 C854 0.930 . S
H849 C857 0.930 . S
H850 C858 0.930 . S
H851 C859 0.930 . S
H852 C862 0.930 . S
H853 C863 0.930 . S
C854 H848 0.930 . S
C854 C855 1.355 . S
C854 C856 1.415 . S
C855 C854 1.355 . S
C855 C857 1.419 . S
C856 C854 1.415 . S
C856 C861 1.425 . S
C856 C863 1.409 . S
C857 H849 0.930 . S
C857 C855 1.419 . S
C857 C858 1.362 . S
C858 H850 0.930 . S
C858 C857 1.362 . S
C858 C861 1.409 . S
C859 H851 0.930 . S
C859 C860 1.355 . S
C859 C861 1.415 . S
C860 C859 1.355 . S
C860 C862 1.419 . S
C861 C856 1.425 . S
C861 C858 1.409 . S
C861 C859 1.415 . S
C862 H852 0.930 . S
C862 C860 1.419 . S
C862 C863 1.362 . S
C863 H853 0.930 . S
C863 C856 1.409 . S
C863 C862 1.362 . S
H864 C870 0.930 . S
H865 C873 0.930 . S
H866 C874 0.930 . S
H867 C875 0.930 . S
H868 C878 0.930 . S
H869 C879 0.930 . S
C870 H864 0.930 . S
C870 C871 1.355 . S
C870 C872 1.415 . S
C871 C870 1.355 . S
C871 C873 1.419 . S
C872 C870 1.415 . S
C872 C877 1.425 . S
C872 C879 1.409 . S
C873 H865 0.930 . S
C873 C871 1.419 . S
C873 C874 1.362 . S
C874 H866 0.930 . S
C874 C873 1.362 . S
C874 C877 1.409 . S
C875 H867 0.930 . S
C875 C876 1.355 . S
C875 C877 1.415 . S
C876 C875 1.355 . S
C876 C878 1.419 . S
C877 C872 1.425 . S
C877 C874 1.409 . S
C877 C875 1.415 . S
C878 H868 0.930 . S
C878 C876 1.419 . S
C878 C879 1.362 . S
C879 H869 0.930 . S
C879 C872 1.409 . S
C879 C878 1.362 . S
H880 C886 0.930 . S
H881 C889 0.930 . S
H882 C890 0.930 . S
H883 C891 0.930 . S
H884 C894 0.930 . S
H885 C895 0.930 . S
C886 H880 0.930 . S
C886 C887 1.355 . S
C886 C888 1.415 . S
C887 C886 1.355 . S
C887 C889 1.419 . S
C888 C886 1.415 . S
C888 C893 1.425 . S
C888 C895 1.409 . S
C889 H881 0.930 . S
C889 C887 1.419 . S
C889 C890 1.362 . S
C890 H882 0.930 . S
C890 C889 1.362 . S
C890 C893 1.409 . S
C891 H883 0.930 . S
C891 C892 1.355 . S
C891 C893 1.415 . S
C892 C891 1.355 . S
C892 C894 1.419 . S
C893 C888 1.425 . S
C893 C890 1.409 . S
C893 C891 1.415 . S
C894 H884 0.930 . S
C894 C892 1.419 . S
C894 C895 1.362 . S
C895 H885 0.930 . S
C895 C888 1.409 . S
C895 C894 1.362 . S
H896 C902 0.930 . S
H897 C905 0.930 . S
H898 C906 0.930 . S
H899 C907 0.930 . S
H900 C910 0.930 . S
H901 C911 0.930 . S
C902 H896 0.930 . S
C902 C903 1.355 . S
C902 C904 1.415 . S
C903 C902 1.355 . S
C903 C905 1.419 . S
C904 C902 1.415 . S
C904 C909 1.425 . S
C904 C911 1.409 . S
C905 H897 0.930 . S
C905 C903 1.419 . S
C905 C906 1.362 . S
C906 H898 0.930 . S
C906 C905 1.362 . S
C906 C909 1.409 . S
C907 H899 0.930 . S
C907 C908 1.355 . S
C907 C909 1.415 . S
C908 C907 1.355 . S
C908 C910 1.419 . S
C909 C904 1.425 . S
C909 C906 1.409 . S
C909 C907 1.415 . S
C910 H900 0.930 . S
C910 C908 1.419 . S
C910 C911 1.362 . S
C911 H901 0.930 . S
C911 C904 1.409 . S
C911 C910 1.362 . S
H912 C918 0.930 . S
H913 C921 0.930 . S
H914 C922 0.930 . S
H915 C923 0.930 . S
H916 C926 0.930 . S
H917 C927 0.930 . S
C918 H912 0.930 . S
C918 C919 1.355 . S
C918 C920 1.415 . S
C919 C918 1.355 . S
C919 C921 1.419 . S
C920 C918 1.415 . S
C920 C925 1.425 . S
C920 C927 1.409 . S
C921 H913 0.930 . S
C921 C919 1.419 . S
C921 C922 1.362 . S
C922 H914 0.930 . S
C922 C921 1.362 . S
C922 C925 1.409 . S
C923 H915 0.930 . S
C923 C924 1.355 . S
C923 C925 1.415 . S
C924 C923 1.355 . S
C924 C926 1.419 . S
C925 C920 1.425 . S
C925 C922 1.409 . S
C925 C923 1.415 . S
C926 H916 0.930 . S
C926 C924 1.419 . S
C926 C927 1.362 . S
C927 H917 0.930 . S
C927 C920 1.409 . S
C927 C926 1.362 . S
H928 C934 0.930 . S
H929 C937 0.930 . S
H930 C938 0.930 . S
H931 C939 0.930 . S
H932 C942 0.930 . S
H933 C943 0.930 . S
C934 H928 0.930 . S
C934 C935 1.355 . S
C934 C936 1.415 . S
C935 C934 1.355 . S
C935 C937 1.419 . S
C936 C934 1.415 . S
C936 C941 1.425 . S
C936 C943 1.409 . S
C937 H929 0.930 . S
C937 C935 1.419 . S
C937 C938 1.362 . S
C938 H930 0.930 . S
C938 C937 1.362 . S
C938 C941 1.409 . S
C939 H931 0.930 . S
C939 C940 1.355 . S
C939 C941 1.415 . S
C940 C939 1.355 . S
C940 C942 1.419 . S
C941 C936 1.425 . S
C941 C938 1.409 . S
C941 C939 1.415 . S
C942 H932 0.930 . S
C942 C940 1.419 . S
C942 C943 1.362 . S
C943 H933 0.930 . S
C943 C936 1.409 . S
C943 C942 1.362 . S
H944 C950 0.930 . S
H945 C953 0.930 . S
H946 C954 0.930 . S
H947 C955 0.930 . S
H948 C958 0.930 . S
H949 C959 0.930 . S
C950 H944 0.930 . S
C950 C951 1.355 . S
C950 C952 1.415 . S
C951 C950 1.355 . S
C951 C953 1.419 . S
C952 C950 1.415 . S
C952 C957 1.425 . S
C952 C959 1.409 . S
C953 H945 0.930 . S
C953 C951 1.419 . S
C953 C954 1.362 . S
C954 H946 0.930 . S
C954 C953 1.362 . S
C954 C957 1.409 . S
C955 H947 0.930 . S
C955 C956 1.355 . S
C955 C957 1.415 . S
C956 C955 1.355 . S
C956 C958 1.419 . S
C957 C952 1.425 . S
C957 C954 1.409 . S
C957 C955 1.415 . S
C958 H948 0.930 . S
C958 C956 1.419 . S
C958 C959 1.362 . S
C959 H949 0.930 . S
C959 C952 1.409 . S
C959 C958 1.362 . S
H960 C966 0.930 . S
H961 C969 0.930 . S
H962 C970 0.930 . S
H963 C971 0.930 . S
H964 C974 0.930 . S
H965 C975 0.930 . S
C966 H960 0.930 . S
C966 C967 1.355 . S
C966 C968 1.415 . S
C967 C966 1.355 . S
C967 C969 1.419 . S
C968 C966 1.415 . S
C968 C973 1.425 . S
C968 C975 1.409 . S
C969 H961 0.930 . S
C969 C967 1.419 . S
C969 C970 1.362 . S
C970 H962 0.930 . S
C970 C969 1.362 . S
C970 C973 1.409 . S
C971 H963 0.930 . S
C971 C972 1.355 . S
C971 C973 1.415 . S
C972 C971 1.355 . S
C972 C974 1.419 . S
C973 C968 1.425 . S
C973 C970 1.409 . S
C973 C971 1.415 . S
C974 H964 0.930 . S
C974 C972 1.419 . S
C974 C975 1.362 . S
C975 H965 0.930 . S
C975 C968 1.409 . S
C975 C974 1.362 . S
H976 C982 0.930 . S
H977 C985 0.930 1_545 S
H978 C986 0.930 . S
H979 C987 0.930 . S
H980 C990 0.930 . S
H981 C991 0.930 . S
C982 H976 0.930 . S
C982 C983 1.355 1_565 S
C982 C984 1.415 . S
C983 C982 1.355 1_545 S
C983 C985 1.419 1_545 S
C984 C982 1.415 . S
C984 C989 1.425 . S
C984 C991 1.409 . S
C985 H977 0.930 1_565 S
C985 C983 1.419 1_565 S
C985 C986 1.362 . S
C986 H978 0.930 . S
C986 C985 1.362 . S
C986 C989 1.409 . S
C987 H979 0.930 . S
C987 C988 1.355 . S
C987 C989 1.415 . S
C988 C987 1.355 . S
C988 C990 1.419 . S
C989 C984 1.425 . S
C989 C986 1.409 . S
C989 C987 1.415 . S
C990 H980 0.930 . S
C990 C988 1.419 . S
C990 C991 1.362 . S
C991 H981 0.930 . S
C991 C984 1.409 . S
C991 C990 1.362 . S
H992 C998 0.930 . S
H993 C1001 0.930 . S
H994 C1002 0.930 . S
H995 C1003 0.930 . S
H996 C1006 0.930 . S
H997 C1007 0.930 . S
C998 H992 0.930 . S
C998 C999 1.355 . S
C998 C1000 1.415 . S
C999 C998 1.355 . S
C999 C1001 1.419 . S
C1000 C998 1.415 . S
C1000 C1005 1.425 . S
C1000 C1007 1.409 . S
C1001 H993 0.930 . S
C1001 C999 1.419 . S
C1001 C1002 1.362 . S
C1002 H994 0.930 . S
C1002 C1001 1.362 . S
C1002 C1005 1.409 . S
C1003 H995 0.930 . S
C1003 C1004 1.355 . S
C1003 C1005 1.415 . S
C1004 C1003 1.355 . S
C1004 C1006 1.419 . S
C1005 C1000 1.425 . S
C1005 C1002 1.409 . S
C1005 C1003 1.415 . S
C1006 H996 0.930 . S
C1006 C1004 1.419 . S
C1006 C1007 1.362 . S
C1007 H997 0.930 . S
C1007 C1000 1.409 . S
C1007 C1006 1.362 . S
H1008 C1014 0.930 . S
H1009 C1017 0.930 . S
H1010 C1018 0.930 . S
H1011 C1019 0.930 . S
H1012 C1022 0.930 . S
H1013 C1023 0.930 . S
C1014 H1008 0.930 . S
C1014 C1015 1.355 . S
C1014 C1016 1.415 . S
C1015 C1014 1.355 . S
C1015 C1017 1.419 . S
C1016 C1014 1.415 . S
C1016 C1021 1.425 . S
C1016 C1023 1.409 . S
C1017 H1009 0.930 . S
C1017 C1015 1.419 . S
C1017 C1018 1.362 . S
C1018 H1010 0.930 . S
C1018 C1017 1.362 . S
C1018 C1021 1.409 . S
C1019 H1011 0.930 . S
C1019 C1020 1.355 . S
C1019 C1021 1.415 . S
C1020 C1019 1.355 . S
C1020 C1022 1.419 . S
C1021 C1016 1.425 . S
C1021 C1018 1.409 . S
C1021 C1019 1.415 . S
C1022 H1012 0.930 . S
C1022 C1020 1.419 . S
C1022 C1023 1.362 . S
C1023 H1013 0.930 . S
C1023 C1016 1.409 . S
C1023 C1022 1.362 . S
H1024 C1030 0.930 . S
H1025 C1033 0.930 . S
H1026 C1034 0.930 . S
H1027 C1035 0.930 . S
H1028 C1038 0.930 . S
H1029 C1039 0.930 . S
C1030 H1024 0.930 . S
C1030 C1031 1.355 . S
C1030 C1032 1.415 . S
C1031 C1030 1.355 . S
C1031 C1033 1.419 . S
C1032 C1030 1.415 . S
C1032 C1037 1.425 . S
C1032 C1039 1.409 . S
C1033 H1025 0.930 . S
C1033 C1031 1.419 . S
C1033 C1034 1.362 . S
C1034 H1026 0.930 . S
C1034 C1033 1.362 . S
C1034 C1037 1.409 . S
C1035 H1027 0.930 . S
C1035 C1036 1.355 . S
C1035 C1037 1.415 . S
C1036 C1035 1.355 . S
C1036 C1038 1.419 . S
C1037 C1032 1.425 . S
C1037 C1034 1.409 . S
C1037 C1035 1.415 . S
C1038 H1028 0.930 . S
C1038 C1036 1.419 . S
C1038 C1039 1.362 . S
C1039 H1029 0.930 . S
C1039 C1032 1.409 . S
C1039 C1038 1.362 . S
H1040 C1046 0.930 . S
H1041 C1049 0.930 . S
H1042 C1050 0.930 . S
H1043 C1051 0.930 . S
H1044 C1054 0.930 . S
H1045 C1055 0.930 . S
C1046 H1040 0.930 . S
C1046 C1047 1.355 . S
C1046 C1048 1.415 . S
C1047 C1046 1.355 . S
C1047 C1049 1.419 . S
C1048 C1046 1.415 . S
C1048 C1053 1.425 . S
C1048 C1055 1.409 . S
C1049 H1041 0.930 . S
C1049 C1047 1.419 . S
C1049 C1050 1.362 . S
C1050 H1042 0.930 . S
C1050 C1049 1.362 . S
C1050 C1053 1.409 . S
C1051 H1043 0.930 . S
C1051 C1052 1.355 . S
C1051 C1053 1.415 . S
C1052 C1051 1.355 . S
C1052 C1054 1.419 . S
C1053 C1048 1.425 . S
C1053 C1050 1.409 . S
C1053 C1051 1.415 . S
C1054 H1044 0.930 . S
C1054 C1052 1.419 . S
C1054 C1055 1.362 . S
C1055 H1045 0.930 . S
C1055 C1048 1.409 . S
C1055 C1054 1.362 . S
H1056 C1062 0.930 . S
H1057 C1065 0.930 . S
H1058 C1066 0.930 . S
H1059 C1067 0.930 . S
H1060 C1070 0.930 . S
H1061 C1071 0.930 . S
C1062 H1056 0.930 . S
C1062 C1063 1.355 . S
C1062 C1064 1.415 . S
C1063 C1062 1.355 . S
C1063 C1065 1.419 . S
C1064 C1062 1.415 . S
C1064 C1069 1.425 . S
C1064 C1071 1.409 . S
C1065 H1057 0.930 . S
C1065 C1063 1.419 . S
C1065 C1066 1.362 . S
C1066 H1058 0.930 . S
C1066 C1065 1.362 . S
C1066 C1069 1.409 . S
C1067 H1059 0.930 . S
C1067 C1068 1.355 . S
C1067 C1069 1.415 . S
C1068 C1067 1.355 . S
C1068 C1070 1.419 . S
C1069 C1064 1.425 . S
C1069 C1066 1.409 . S
C1069 C1067 1.415 . S
C1070 H1060 0.930 . S
C1070 C1068 1.419 . S
C1070 C1071 1.362 . S
C1071 H1061 0.930 . S
C1071 C1064 1.409 . S
C1071 C1070 1.362 . S
H1072 C1078 0.930 . S
H1073 C1081 0.930 . S
H1074 C1082 0.930 . S
H1075 C1083 0.930 . S
H1076 C1086 0.930 . S
H1077 C1087 0.930 . S
C1078 H1072 0.930 . S
C1078 C1079 1.355 . S
C1078 C1080 1.415 . S
C1079 C1078 1.355 . S
C1079 C1081 1.419 . S
C1080 C1078 1.415 . S
C1080 C1085 1.425 . S
C1080 C1087 1.409 . S
C1081 H1073 0.930 . S
C1081 C1079 1.419 . S
C1081 C1082 1.362 . S
C1082 H1074 0.930 . S
C1082 C1081 1.362 . S
C1082 C1085 1.409 . S
C1083 H1075 0.930 . S
C1083 C1084 1.355 . S
C1083 C1085 1.415 . S
C1084 C1083 1.355 . S
C1084 C1086 1.419 . S
C1085 C1080 1.425 . S
C1085 C1082 1.409 . S
C1085 C1083 1.415 . S
C1086 H1076 0.930 . S
C1086 C1084 1.419 . S
C1086 C1087 1.362 . S
C1087 H1077 0.930 . S
C1087 C1080 1.409 . S
C1087 C1086 1.362 . S
H1088 C1094 0.930 . S
H1089 C1097 0.930 . S
H1090 C1098 0.930 . S
H1091 C1099 0.930 . S
H1092 C1102 0.930 . S
H1093 C1103 0.930 . S
C1094 H1088 0.930 . S
C1094 C1095 1.355 . S
C1094 C1096 1.415 . S
C1095 C1094 1.355 . S
C1095 C1097 1.419 . S
C1096 C1094 1.415 . S
C1096 C1101 1.425 . S
C1096 C1103 1.409 . S
C1097 H1089 0.930 . S
C1097 C1095 1.419 . S
C1097 C1098 1.362 . S
C1098 H1090 0.930 . S
C1098 C1097 1.362 . S
C1098 C1101 1.409 . S
C1099 H1091 0.930 . S
C1099 C1100 1.355 . S
C1099 C1101 1.415 . S
C1100 C1099 1.355 . S
C1100 C1102 1.419 . S
C1101 C1096 1.425 . S
C1101 C1098 1.409 . S
C1101 C1099 1.415 . S
C1102 H1092 0.930 . S
C1102 C1100 1.419 . S
C1102 C1103 1.362 . S
C1103 H1093 0.930 . S
C1103 C1096 1.409 . S
C1103 C1102 1.362 . S
H1104 C1110 0.930 . S
H1105 C1113 0.930 . S
H1106 C1114 0.930 . S
H1107 C1115 0.930 . S
H1108 C1118 0.930 . S
H1109 C1119 0.930 . S
C1110 H1104 0.930 . S
C1110 C1111 1.355 . S
C1110 C1112 1.415 . S
C1111 C1110 1.355 . S
C1111 C1113 1.419 . S
C1112 C1110 1.415 . S
C1112 C1117 1.425 . S
C1112 C1119 1.409 . S
C1113 H1105 0.930 . S
C1113 C1111 1.419 . S
C1113 C1114 1.362 . S
C1114 H1106 0.930 . S
C1114 C1113 1.362 . S
C1114 C1117 1.409 . S
C1115 H1107 0.930 . S
C1115 C1116 1.355 . S
C1115 C1117 1.415 . S
C1116 C1115 1.355 . S
C1116 C1118 1.419 . S
C1117 C1112 1.425 . S
C1117 C1114 1.409 . S
C1117 C1115 1.415 . S
C1118 H1108 0.930 . S
C1118 C1116 1.419 . S
C1118 C1119 1.362 . S
C1119 H1109 0.930 . S
C1119 C1112 1.409 . S
C1119 C1118 1.362 . S
C620 C516 1.501 . S
C615 C35 1.400 . S
C636 C533 1.431 . S
C631 C115 1.345 . S
C652 C547 1.565 . S
C647 C177 1.484 . S
C663 C221 1.364 . S
C668 C505 1.461 . S
C679 C283 1.339 . S
C684 C502 1.601 . S
C695 C363 1.239 . S
C700 C519 1.447 . S
C716 C530 1.713 . S
C711 C407 1.523 . S
C732 C544 1.597 . S
C727 C469 1.415 1_565 S
C743 C159 1.390 . S
C748 C572 1.605 . S
C764 C586 1.681 . S
C759 C239 1.625 . S
C775 C53 1.300 . S
C780 C603 1.395 . S
C796 C558 1.569 . S
C791 C97 1.352 . S
C807 C425 1.361 . S
C812 C561 1.521 . S
C823 C487 1.394 . S
C828 C575 1.584 . S
C844 C589 1.435 . S
C839 C301 1.388 1_554 S
C855 C345 1.354 . S
C860 C600 1.465 . S
C876 C532 2.161 . S
C871 C29 2.152 . S
C892 C546 2.268 . S
C887 C109 2.218 . S
C903 C171 2.079 . S
C908 C504 2.150 1_556 S
C919 C215 2.018 . S
C924 C517 1.933 . S
C935 C277 1.807 . S
C940 C545 1.701 . S
C956 C503 1.649 . S
C951 C357 1.716 . S
C972 C518 2.045 . S
C967 C401 2.032 . S
C988 C531 1.758 . S
C983 C463 1.867 . S
C1004 C587 1.757 . S
C999 C153 1.871 . S
C1020 C602 2.046 . S
C1015 C233 2.046 . S
C1031 C47 1.782 . S
C1036 C559 1.735 . S
C1052 C573 1.652 . S
C1047 C91 1.755 . S
C1068 C601 1.878 . S
C1063 C419 1.891 . S
C1079 C481 2.070 1_655 S
C1084 C560 2.151 . S
C1100 C574 2.248 . S
C1095 C295 2.162 . S
C1116 C588 2.140 . S
C1111 C339 2.154 . S
