# Generated by pormake.
# Topology zzz, (3,6)-cn, num edge types: 1
# Building blocks:
#     Node 0, Type 0, BuildingBlock: VETTIZ_charged_linker_0, # of connection points: 3
#     Node 1, Type 0, BuildingBlock: VETTIZ_charged_linker_0, # of connection points: 3
#     Node 2, Type 0, BuildingBlock: VETTIZ_charged_linker_0, # of connection points: 3
#     Node 3, Type 0, BuildingBlock: VETTIZ_charged_linker_0, # of connection points: 3
#     Node 4, Type 0, BuildingBlock: VETTIZ_charged_linker_0, # of connection points: 3
#     Node 5, Type 0, BuildingBlock: VETTIZ_charged_linker_0, # of connection points: 3
#     Node 6, Type 0, BuildingBlock: VETTIZ_charged_linker_0, # of connection points: 3
#     Node 7, Type 0, BuildingBlock: VETTIZ_charged_linker_0, # of connection points: 3
#     Node 8, Type 1, BuildingBlock: HISSIN_clean_sbu_0, # of connection points: 6
#     Node 9, Type 1, BuildingBlock: HISSIN_clean_sbu_0, # of connection points: 6
#     Node 10, Type 1, BuildingBlock: HISSIN_clean_sbu_0, # of connection points: 6
#     Node 11, Type 1, BuildingBlock: HISSIN_clean_sbu_0, # of connection points: 6
#     Edge 12, Type (0, 1), BuildingBlock: CIFDUS_clean_linker_0, # of connection points: 2
#     Edge 13, Type (0, 1), BuildingBlock: CIFDUS_clean_linker_0, # of connection points: 2
#     Edge 14, Type (0, 1), BuildingBlock: CIFDUS_clean_linker_0, # of connection points: 2
#     Edge 15, Type (0, 1), BuildingBlock: CIFDUS_clean_linker_0, # of connection points: 2
#     Edge 16, Type (0, 1), BuildingBlock: CIFDUS_clean_linker_0, # of connection points: 2
#     Edge 17, Type (0, 1), BuildingBlock: CIFDUS_clean_linker_0, # of connection points: 2
#     Edge 18, Type (0, 1), BuildingBlock: CIFDUS_clean_linker_0, # of connection points: 2
#     Edge 19, Type (0, 1), BuildingBlock: CIFDUS_clean_linker_0, # of connection points: 2
#     Edge 20, Type (0, 1), BuildingBlock: CIFDUS_clean_linker_0, # of connection points: 2
#     Edge 21, Type (0, 1), BuildingBlock: CIFDUS_clean_linker_0, # of connection points: 2
#     Edge 22, Type (0, 1), BuildingBlock: CIFDUS_clean_linker_0, # of connection points: 2
#     Edge 23, Type (0, 1), BuildingBlock: CIFDUS_clean_linker_0, # of connection points: 2
#     Edge 24, Type (0, 1), BuildingBlock: CIFDUS_clean_linker_0, # of connection points: 2
#     Edge 25, Type (0, 1), BuildingBlock: CIFDUS_clean_linker_0, # of connection points: 2
#     Edge 26, Type (0, 1), BuildingBlock: CIFDUS_clean_linker_0, # of connection points: 2
#     Edge 27, Type (0, 1), BuildingBlock: CIFDUS_clean_linker_0, # of connection points: 2
#     Edge 28, Type (0, 1), BuildingBlock: CIFDUS_clean_linker_0, # of connection points: 2
#     Edge 29, Type (0, 1), BuildingBlock: CIFDUS_clean_linker_0, # of connection points: 2
#     Edge 30, Type (0, 1), BuildingBlock: CIFDUS_clean_linker_0, # of connection points: 2
#     Edge 31, Type (0, 1), BuildingBlock: CIFDUS_clean_linker_0, # of connection points: 2
#     Edge 32, Type (0, 1), BuildingBlock: CIFDUS_clean_linker_0, # of connection points: 2
#     Edge 33, Type (0, 1), BuildingBlock: CIFDUS_clean_linker_0, # of connection points: 2
#     Edge 34, Type (0, 1), BuildingBlock: CIFDUS_clean_linker_0, # of connection points: 2
#     Edge 35, Type (0, 1), BuildingBlock: CIFDUS_clean_linker_0, # of connection points: 2
# Relax obj value: 0.424
# Max RMSD: 0.233
# Mean RMSD: 0.196
data_MOF--net-zzz--node1-HISSIN_clean_sbu_0--node2-VETTIZ_charged_linker_0--edge1-CIFDUS_clean_linker_0
_symmetry_space_group_name_H-M    P1
_symmetry_Int_Tables_number       1
_symmetry_cell_setting            triclinic
loop_
_symmetry_equiv_pos_as_xyz
'x, y, z'
_cell_length_a     50.26295
_cell_length_b     50.293174
_cell_length_c     19.453413
_cell_angle_alpha  89.7037
_cell_angle_beta   91.844599
_cell_angle_gamma 91.531844
loop_
_atom_site_label
_atom_site_type_symbol
_atom_site_fract_x
_atom_site_fract_y
_atom_site_fract_z
_atom_type_partial_charge
C0 C 0.8148 0.54934 0.36916 0.0
C1 C 0.83646 0.56402 0.40178 0.0
C2 C 0.83739 0.59196 0.39356 0.0
C3 C 0.80271 0.58897 0.30635 0.0
C4 C 0.79745 0.56281 0.32204 0.0
C5 C 0.77202 0.55341 0.28241 0.0
H6 H 0.68483 0.58446 1.0108 0.0
C7 C 0.78622 0.59701 0.24789 0.0
C8 C 0.76628 0.57748 0.2349 0.0
H9 H 0.67679 0.51581 0.14307 0.0
H10 H 0.7165 0.53091 0.21068 0.0
H11 H 0.70209 0.62907 0.12275 0.0
H12 H 0.7344 0.58081 0.97693 0.0
H13 H 0.76499 0.59509 1.00676 0.0
H14 H 0.7396 0.61532 0.96622 0.0
H15 H 0.70181 0.63124 0.03038 0.0
H16 H 0.72761 0.64767 0.08221 0.0
C17 C 0.74997 0.54878 0.33457 0.0
C18 C 0.77756 0.52826 0.24116 0.0
C19 C 0.83493 0.63877 0.0555 0.0
C20 C 0.82605 0.64169 0.98638 0.0
C21 C 0.79937 0.64891 0.97375 0.0
C22 C 0.78089 0.64627 0.026 0.0
C23 C 0.78933 0.6358 0.08971 0.0
C24 C 0.81612 0.63522 0.10644 0.0
C25 C 0.82131 0.62491 0.17825 0.0
C26 C 0.79303 0.61582 0.19691 0.0
C27 C 0.77494 0.62053 0.14238 0.0
C28 C 0.8329 0.64811 0.22266 0.0
C29 C 0.84063 0.6014 0.17674 0.0
C30 C 0.69135 0.57246 0.05426 0.0
C31 C 0.6776 0.5488 0.07067 0.0
C32 C 0.68687 0.53423 0.12893 0.0
C33 C 0.70985 0.54298 0.16817 0.0
C34 C 0.72363 0.56658 0.14926 0.0
C35 C 0.71411 0.58059 0.09256 0.0
C36 C 0.7315 0.604 0.0746 0.0
C37 C 0.75212 0.60342 0.13321 0.0
C38 C 0.74792 0.58131 0.17748 0.0
C39 C 0.71492 0.62944 0.07717 0.0
C40 C 0.74331 0.59875 1.0028 0.0
H41 H 0.82055 0.62586 0.34309 0.0
H42 H 0.81215 0.5282 0.37809 0.0
H43 H 0.79457 0.532 0.20691 0.0
H44 H 0.76011 0.52203 0.20852 0.0
H45 H 0.78259 0.5115 0.27623 0.0
H46 H 0.74824 0.56655 0.36775 0.0
H47 H 0.75454 0.53149 0.36832 0.0
H48 H 0.73029 0.54513 0.30928 0.0
H49 H 0.85554 0.63508 0.06846 0.0
H50 H 0.79219 0.65349 0.92207 0.0
H51 H 0.76045 0.6504 1.01391 0.0
H52 H 0.8453 0.66207 0.19182 0.0
H53 H 0.84656 0.64099 0.26423 0.0
H54 H 0.81682 0.6597 0.24517 0.0
H55 H 0.83259 0.58543 0.14196 0.0
H56 H 0.8442 0.59262 0.22831 0.0
H57 H 0.86053 0.60798 0.15913 0.0
H58 H 0.85194 0.60412 0.42225 0.0
C59 C 0.82022 0.6045 0.34687 0.0
C60 C 0.89671 0.7984 0.9546 0.0
C61 C 0.89326 0.82599 0.96071 0.0
C62 C 0.88501 0.83557 0.02441 0.0
C63 C 0.90127 0.79573 0.07816 0.0
C64 C 0.90217 0.78371 1.01477 0.0
C65 C 0.91574 0.75738 0.01964 0.0
H66 H 0.02154 0.69794 0.08553 0.0
C67 C 0.91965 0.78194 0.12606 0.0
C68 C 0.92666 0.7584 0.09442 0.0
H69 H 0.9469 0.66241 1.00782 0.0
H70 H 0.92288 0.69689 0.06592 0.0
H71 H 1.01053 0.76665 0.08648 0.0
H72 H 0.98374 0.7133 0.24875 0.0
H73 H 1.00437 0.74135 0.27352 0.0
H74 H 0.01835 0.71457 0.22731 0.0
H75 H 0.03415 0.74584 0.13114 0.0
H76 H 0.02107 0.77414 0.17363 0.0
C77 C 0.93831 0.75646 0.96728 0.0
C78 C 0.89445 0.73511 1.00607 0.0
C79 C 0.96182 0.84041 0.31156 0.0
C80 C 0.98447 0.84019 0.35554 0.0
C81 C 1.00263 0.81935 0.34578 0.0
C82 C 0.99729 0.79895 0.29539 0.0
C83 C 0.97359 0.79925 0.25409 0.0
C84 C 0.95677 0.82027 0.26296 0.0
C85 C 0.93299 0.8194 0.21513 0.0
C86 C 0.93654 0.79312 0.17917 0.0
C87 C 0.96069 0.78097 0.20007 0.0
C88 C 0.93514 0.84394 0.16589 0.0
C89 C 0.9076 0.81852 0.25839 0.0
C90 C 1.0001 0.69815 0.07848 0.0
C91 C 0.9863 0.67818 0.03721 0.0
C92 C 0.9582 0.67793 0.03509 0.0
C93 C 0.94427 0.69818 0.06541 0.0
C94 C 0.95837 0.71948 0.09585 0.0
C95 C 0.98515 0.71832 0.11032 0.0
C96 C 0.99304 0.74019 0.16337 0.0
C97 C 0.96709 0.75603 0.16793 0.0
C98 C 0.94809 0.74394 0.12261 0.0
C99 C 0.01607 0.75774 0.13719 0.0
C100 C 1.00034 0.72668 0.23226 0.0
H101 H 0.88425 0.82867 0.13226 0.0
H102 H 0.90071 0.79015 0.90486 0.0
H103 H 0.87867 0.7417 0.96887 0.0
H104 H 0.88464 0.729 0.05428 0.0
H105 H 0.90298 0.71751 0.98182 0.0
H106 H 0.95291 0.77319 0.97606 0.0
H107 H 0.93026 0.75756 0.9136 0.0
H108 H 0.94917 0.73765 0.97072 0.0
H109 H 0.94783 0.85636 0.31447 0.0
H110 H 0.02057 0.81849 0.37791 0.0
H111 H 0.01159 0.78364 0.28979 0.0
H112 H 0.95221 0.85764 0.1795 0.0
H113 H 0.9173 0.85642 0.16725 0.0
H114 H 0.93844 0.83795 0.11204 0.0
H115 H 0.91045 0.8058 0.30488 0.0
H116 H 0.89016 0.80963 0.23002 0.0
H117 H 0.9026 0.83874 0.2758 0.0
H118 H 0.88011 0.85623 0.03069 0.0
C119 C 0.88865 0.82009 0.08375 0.0
C120 C 0.83031 1.00338 0.05607 0.0
C121 C 0.84971 0.98821 0.0206 0.0
C122 C 0.84896 0.96036 0.03077 0.0
C123 C 0.80901 0.96253 0.09559 0.0
C124 C 0.81033 0.98976 0.09587 0.0
C125 C 0.78895 0.99973 0.14517 0.0
H126 H 0.68256 0.95552 0.35068 0.0
C127 C 0.78631 0.95276 0.1338 0.0
C128 C 0.77473 0.97356 0.16921 0.0
H129 H 0.70793 0.03766 0.33106 0.0
H130 H 0.74386 0.02437 0.25484 0.0
H131 H 0.676 0.94015 0.2295 0.0
H132 H 0.74019 0.92908 0.36027 0.0
H133 H 0.73614 0.90022 0.30915 0.0
H134 H 0.7079 0.91287 0.35219 0.0
H135 H 0.68607 0.90712 0.23702 0.0
H136 H 0.69568 0.92755 0.16431 0.0
C137 C 0.76947 0.01766 0.10551 0.0
C138 C 0.80278 0.0144 0.20605 0.0
C139 C 0.72675 0.8827 0.03014 0.0
C140 C 0.70276 0.87222 0.05632 0.0
C141 C 0.70217 0.86667 0.12753 0.0
C142 C 0.72096 0.87907 0.17241 0.0
C143 C 0.73993 0.89655 0.14454 0.0
C144 C 0.74522 0.8951 0.07583 0.0
C145 C 0.76872 0.91269 0.05823 0.0
C146 C 0.77318 0.92787 0.12623 0.0
C147 C 0.75383 0.92035 0.1729 0.0
C148 C 0.76141 0.93162 0.99798 0.0
C149 C 0.7917 0.89459 0.0396 0.0
C150 C 0.69535 0.97108 0.3301 0.0
C151 C 0.69148 0.99772 0.34709 0.0
C152 C 0.70989 0.01679 0.31947 0.0
C153 C 0.73074 0.00918 0.27516 0.0
C154 C 0.73355 0.98216 0.25782 0.0
C155 C 0.71554 0.96395 0.28561 0.0
C156 C 0.71915 0.93629 0.261 0.0
C157 C 0.74302 0.94008 0.21548 0.0
C158 C 0.75217 0.96711 0.21252 0.0
C159 C 0.69312 0.92718 0.22081 0.0
C160 C 0.72607 0.91851 0.32389 0.0
H161 H 0.83094 0.92692 0.081 0.0
H162 H 0.83092 0.02488 0.05343 0.0
H163 H 0.8173 1.00131 0.23284 0.0
H164 H 0.78819 0.02051 0.24395 0.0
H165 H 0.81369 0.03249 0.18793 0.0
H166 H 0.76015 1.00684 0.06083 0.0
H167 H 0.78002 0.03574 0.08603 0.0
H168 H 0.75336 0.02401 0.13886 0.0
H169 H 0.72898 0.88543 0.97548 0.0
H170 H 0.68499 0.85664 0.14906 0.0
H171 H 0.71862 0.87691 0.22686 0.0
H172 H 0.74372 0.94337 1.01006 0.0
H173 H 0.75702 0.92039 0.94978 0.0
H174 H 0.77813 0.9457 0.98724 0.0
H175 H 0.78416 0.87708 1.0094 0.0
H176 H 0.80224 0.88706 0.0866 0.0
H177 H 0.80602 0.90495 1.00584 0.0
H178 H 0.86338 0.94784 1.00767 0.0
C179 C 0.82943 0.9478 0.06962 0.0
C180 C 0.51752 0.71214 0.31488 0.0
C181 C 0.50307 0.69347 0.35635 0.0
C182 C 0.47507 0.69415 0.35322 0.0
C183 C 0.47599 0.72692 0.26195 0.0
C184 C 0.50326 0.72948 0.26919 0.0
C185 C 0.51317 0.75301 0.22528 0.0
H186 H 0.4772 0.84296 0.96662 0.0
C187 C 0.46635 0.74453 0.20652 0.0
C188 C 0.48756 0.76132 0.18561 0.0
H189 H 0.55383 0.84277 0.0728 0.0
H190 H 0.53876 0.8048 0.14348 0.0
H191 H 0.47292 0.78643 0.9411 0.0
H192 H 0.44138 0.83457 0.09609 0.0
H193 H 0.41562 0.81196 0.07051 0.0
H194 H 0.43041 0.83365 1.00735 0.0
H195 H 0.44015 0.79897 0.93102 0.0
H196 H 0.44606 0.76652 0.9678 0.0
C197 C 0.53445 0.74373 0.1764 0.0
C198 C 0.52379 0.77514 0.27404 0.0
C199 C 0.38469 0.71267 0.06999 0.0
C200 C 0.37439 0.72068 1.00526 0.0
C201 C 0.38021 0.74673 0.9823 0.0
C202 C 0.39901 0.7629 0.01818 0.0
C203 C 0.41246 0.7527 0.07674 0.0
C204 C 0.40402 0.72874 0.10423 0.0
C205 C 0.4201 0.72128 0.16768 0.0
C206 C 0.44183 0.74321 0.16818 0.0
C207 C 0.4373 0.76121 0.11436 0.0
C208 C 0.43154 0.69331 0.1571 0.0
C209 C 0.40171 0.7227 0.23018 0.0
C210 C 0.49105 0.83496 1.00467 0.0
C211 C 0.51683 0.84599 1.01288 0.0
C212 C 0.53374 0.83483 0.06483 0.0
C213 C 0.52498 0.81291 0.10609 0.0
C214 C 0.49885 0.80223 0.09646 0.0
C215 C 0.48265 0.81363 0.04596 0.0
C216 C 0.45588 0.8003 0.03903 0.0
C217 C 0.45756 0.77984 0.0961 0.0
C218 C 0.48283 0.78027 0.1305 0.0
C219 C 0.45339 0.78747 0.96621 0.0
C220 C 0.43455 0.82112 0.05345 0.0
H221 H 0.44049 0.71073 0.30847 0.0
H222 H 0.53906 0.71324 0.31835 0.0
H223 H 0.50873 0.7797 0.31264 0.0
H224 H 0.5283 0.79382 0.24637 0.0
H225 H 0.5422 0.76886 0.30212 0.0
H226 H 0.52653 0.72686 0.14448 0.0
H227 H 0.55236 0.73703 0.20592 0.0
H228 H 0.54071 0.7599 0.14119 0.0
H229 H 0.38016 0.69299 0.0898 0.0
H230 H 0.37196 0.75372 0.93355 0.0
H231 H 0.40356 0.78201 0.99631 0.0
H232 H 0.44262 0.69274 0.10859 0.0
H233 H 0.41541 0.67781 0.15442 0.0
H234 H 0.4453 0.68728 0.19911 0.0
H235 H 0.38096 0.72803 0.21526 0.0
H236 H 0.40894 0.73812 0.26752 0.0
H237 H 0.40007 0.70323 0.25718 0.0
H238 H 0.46324 0.68086 0.38472 0.0
C239 C 0.46169 0.71098 0.30761 0.0
C240 C 0.34058 0.4841 0.27035 0.0
C241 C 0.3595 0.4709 0.31398 0.0
C242 C 0.3569 0.44301 0.32159 0.0
C243 C 0.31523 0.44281 0.25771 0.0
C244 C 0.31878 0.46911 0.24052 0.0
C245 C 0.29758 0.47681 0.18607 0.0
H246 H 0.17655 0.43874 0.03137 0.0
C247 C 0.29032 0.43253 0.22754 0.0
C248 C 0.27997 0.45121 0.18081 0.0
H249 H 0.22207 0.51039 0.98507 0.0
H250 H 0.25712 0.49678 0.06635 0.0
H251 H 0.22651 0.39871 0.02987 0.0
H252 H 0.17563 0.43483 0.15772 0.0
H253 H 0.19651 0.42371 0.22621 0.0
H254 H 0.17827 0.40038 0.17055 0.0
H255 H 0.1927 0.39122 0.05252 0.0
H256 H 0.22039 0.37647 0.09848 0.0
C257 C 0.31161 0.48295 0.11836 0.0
C258 C 0.28209 0.50052 0.21216 0.0
C259 C 0.22961 0.38294 0.38146 0.0
C260 C 0.2026 0.3759 0.36821 0.0
C261 C 0.19518 0.36621 0.30215 0.0
C262 C 0.21183 0.37129 0.24696 0.0
C263 C 0.23557 0.38591 0.25942 0.0
C264 C 0.24587 0.38823 0.32558 0.0
C265 C 0.27279 0.4021 0.3274 0.0
C266 C 0.27425 0.41139 0.25222 0.0
C267 C 0.25099 0.40391 0.21505 0.0
C268 C 0.29379 0.38149 0.34881 0.0
C269 C 0.27317 0.4258 0.37799 0.0
C270 C 0.19417 0.45149 0.03639 0.0
C271 C 0.19607 0.47565 1.00011 0.0
C272 C 0.21947 0.4917 1.01211 0.0
C273 C 0.24005 0.48372 0.05897 0.0
C274 C 0.23748 0.45937 0.09448 0.0
C275 C 0.21467 0.44385 0.0823 0.0
C276 C 0.21426 0.41874 0.12384 0.0
C277 C 0.2411 0.421 0.16203 0.0
C278 C 0.2549 0.44505 0.14573 0.0
C279 C 0.21325 0.3949 0.07378 0.0
C280 C 0.1901 0.41928 0.17219 0.0
H281 H 0.33465 0.40755 0.29446 0.0
H282 H 0.34287 0.50517 0.25968 0.0
H283 H 0.27369 0.49579 0.26312 0.0
H284 H 0.26534 0.50554 0.17675 0.0
H285 H 0.29539 0.51843 0.21788 0.0
H286 H 0.32527 0.46673 0.106 0.0
H287 H 0.32359 0.5018 0.1226 0.0
H288 H 0.29745 0.4846 0.07422 0.0
H289 H 0.23657 0.38867 0.43253 0.0
H290 H 0.17508 0.35873 0.29131 0.0
H291 H 0.20477 0.366 0.19608 0.0
H292 H 0.28567 0.36674 0.38599 0.0
H293 H 0.31121 0.39094 0.37626 0.0
H294 H 0.30048 0.37037 0.30355 0.0
H295 H 0.257 0.43973 0.36421 0.0
H296 H 0.29238 0.43707 0.37789 0.0
H297 H 0.27067 0.41887 0.43171 0.0
H298 H 0.37143 0.43202 0.35173 0.0
C299 C 0.33522 0.42893 0.29208 0.0
C300 C 0.12713 0.19412 0.37153 0.0
C301 C 0.13989 0.17316 0.33872 0.0
C302 C 0.15351 0.17883 0.27783 0.0
C303 C 0.13004 0.21969 0.26729 0.0
C304 C 0.12273 0.21772 0.33457 0.0
C305 C 0.10553 0.24056 0.3531 0.0
H306 H 0.01952 0.33407 0.27806 0.0
C307 C 0.1127 0.23874 0.23197 0.0
C308 C 0.10221 0.25442 0.28285 0.0
H309 H 0.08875 0.34354 0.41617 0.0
H310 H 0.10838 0.30557 0.36328 0.0
H311 H 0.05827 0.31491 0.13557 0.0
H312 H 0.01759 0.26003 0.27343 0.0
H313 H 1.00979 0.25724 0.18333 0.0
H314 H 0.99917 0.28566 0.22967 0.0
H315 H 0.02316 0.31811 0.14861 0.0
H316 H 0.03479 0.29117 0.09818 0.0
C317 C 0.12044 0.25741 0.40854 0.0
C318 C 0.07842 0.2302 0.37907 0.0
C319 C 0.07175 0.19829 0.01564 0.0
C320 C 0.04682 0.19833 0.98142 0.0
C321 C 0.02802 0.21657 1.00524 0.0
C322 C 0.03457 0.23432 0.06118 0.0
C323 C 0.05987 0.23338 0.09509 0.0
C324 C 0.0775 0.2149 0.07207 0.0
C325 C 0.1023 0.21333 0.11596 0.0
C326 C 0.09729 0.23411 0.17016 0.0
C327 C 0.07258 0.24678 0.15797 0.0
C328 C 0.1262 0.22174 0.07196 0.0
C329 C 0.10419 0.18446 0.14526 0.0
C330 C 0.03831 0.32728 0.29936 0.0
C331 C 0.05197 0.34183 0.35396 0.0
C332 C 0.07722 0.33293 0.37657 0.0
C333 C 0.08815 0.31024 0.34911 0.0
C334 C 0.07339 0.29502 0.30111 0.0
C335 C 0.05 0.30404 0.27203 0.0
C336 C 0.04179 0.28648 0.20937 0.0
C337 C 0.06519 0.26717 0.20578 0.0
C338 C 0.08171 0.27174 0.26416 0.0
C339 C 0.03932 0.30364 0.14406 0.0
C340 C 0.01556 0.27148 0.22456 0.0
H341 H 0.15726 0.20539 0.19232 0.0
H342 H 0.11736 0.1908 0.41971 0.0
H343 H 0.0684 0.21665 0.3407 0.0
H344 H 0.06508 0.24701 0.38802 0.0
H345 H 0.08093 0.21926 0.42849 0.0
H346 H 0.12871 0.24448 0.45009 0.0
H347 H 0.10681 0.27097 0.43393 0.0
H348 H 0.13726 0.26898 0.38629 0.0
H349 H 0.08658 0.18436 1.00072 0.0
H350 H 1.0085 0.21733 0.98026 0.0
H351 H 0.01987 0.24799 0.07703 0.0
H352 H 0.1215 0.23952 0.03998 0.0
H353 H 0.13145 0.20544 0.03693 0.0
H354 H 0.14398 0.22743 0.10392 0.0
H355 H 0.09153 0.16964 0.11639 0.0
H356 H 0.09747 0.18315 0.19903 0.0
H357 H 0.12459 0.17684 0.14224 0.0
H358 H 0.16444 0.16351 0.25305 0.0
C359 C 0.14873 0.20249 0.24184 0.0
C360 C 0.31724 0.03698 1.01015 0.0
C361 C 0.33641 0.05217 0.97082 0.0
C362 C 0.33303 0.07994 0.9668 0.0
C363 C 0.30001 0.0779 0.05385 0.0
C364 C 0.29841 0.05073 0.05074 0.0
C365 C 0.27433 0.04118 0.09367 0.0
H366 H 0.18359 0.08457 0.33762 0.0
C367 C 0.28278 0.08766 0.10648 0.0
C368 C 0.26534 0.0672 0.12828 0.0
H369 H 0.17927 1.00688 0.24465 0.0
H370 H 0.21824 0.01895 0.17505 0.0
H371 H 0.23552 0.08649 0.37568 0.0
H372 H 0.19544 0.11926 0.20652 0.0
H373 H 0.21998 0.14309 0.23355 0.0
H374 H 0.19697 0.12967 0.29486 0.0
H375 H 0.23495 0.12152 0.37016 0.0
H376 H 0.26325 0.10345 0.34182 0.0
C377 C 0.28313 0.02059 0.14771 0.0
C378 C 0.25246 0.02975 0.0444 0.0
C379 C 0.32673 0.15187 0.27044 0.0
C380 C 0.31843 0.15895 0.33634 0.0
C381 C 0.29097 0.16281 0.34434 0.0
C382 C 0.27237 0.15271 0.2952 0.0
C383 C 0.28157 0.13852 0.23915 0.0
C384 C 0.30802 0.1408 0.22331 0.0
C385 C 0.31405 0.12557 0.15962 0.0
C386 C 0.28723 0.11085 0.14617 0.0
C387 C 0.26908 0.11725 0.19603 0.0
C388 C 0.33688 0.1061 0.17557 0.0
C389 C 0.32156 0.1459 0.10308 0.0
C390 C 0.1907 0.06974 0.303 0.0
C391 C 0.17791 0.04466 0.29832 0.0
C392 C 0.1883 0.02657 0.25018 0.0
C393 C 0.21086 0.03349 0.20955 0.0
C394 C 0.22332 0.05892 0.216 0.0
C395 C 0.21287 0.07621 0.26301 0.0
C396 C 0.22825 0.1019 0.26837 0.0
C397 C 0.24849 0.09863 0.21293 0.0
C398 C 0.24646 0.07317 0.1814 0.0
C399 C 0.24119 0.10363 0.34236 0.0
C400 C 0.20923 0.12483 0.2503 0.0
H401 H 0.31141 0.1135 0.99913 0.0
H402 H 0.31738 0.01548 1.01047 0.0
H403 H 0.2468 0.04477 1.0048 0.0
H404 H 0.23435 0.02389 0.072 0.0
H405 H 0.2596 0.01193 0.01768 0.0
H406 H 0.29933 0.02909 0.1818 0.0
H407 H 0.2906 1.0026 0.12249 0.0
H408 H 0.26625 0.01446 0.18013 0.0
H409 H 0.34758 0.15068 0.25959 0.0
H410 H 0.28379 0.17041 0.3921 0.0
H411 H 0.25163 0.15439 0.30515 0.0
H412 H 0.33171 0.09257 0.21881 0.0
H413 H 0.3558 0.11695 0.18931 0.0
H414 H 0.34122 0.09376 0.13064 0.0
H415 H 0.33146 0.16409 0.12533 0.0
H416 H 0.30366 0.15223 0.07291 0.0
H417 H 0.33633 0.13788 0.06807 0.0
H418 H 0.34483 0.09211 0.93253 0.0
C419 C 0.31459 0.0926 1.00658 0.0
C420 C 0.53272 0.3241 0.04128 0.0
C421 C 0.54674 0.34358 1.00126 0.0
C422 C 0.57448 0.34623 1.01214 0.0
C423 C 0.57404 0.31304 0.10261 0.0
C424 C 0.54708 0.3085 0.09109 0.0
C425 C 0.53733 0.28561 0.1374 0.0
H426 H 0.57399 0.19781 0.40022 0.0
C427 C 0.58372 0.29583 0.15921 0.0
C428 C 0.56276 0.27857 0.17954 0.0
H429 H 0.49524 0.20111 0.30666 0.0
H430 H 0.51088 0.23655 0.22812 0.0
H431 H 0.60831 0.20452 0.26463 0.0
H432 H 0.57985 0.25383 0.42232 0.0
H433 H 0.60758 0.27214 0.39486 0.0
H434 H 0.61183 0.23932 0.43098 0.0
H435 H 0.6205 0.20503 0.3524 0.0
H436 H 0.63484 0.22654 0.28814 0.0
C437 C 0.52736 0.26228 0.09174 0.0
C438 C 0.51556 0.29568 0.18379 0.0
C439 C 0.66915 0.3241 0.28516 0.0
C440 C 0.6802 0.31587 0.3489 0.0
C441 C 0.67372 0.2901 0.37291 0.0
C442 C 0.65359 0.27467 0.33963 0.0
C443 C 0.63953 0.28533 0.28256 0.0
C444 C 0.64856 0.30881 0.25364 0.0
C445 C 0.6314 0.31712 0.19297 0.0
C446 C 0.60866 0.29645 0.19576 0.0
C447 C 0.61359 0.27803 0.24824 0.0
C448 C 0.64803 0.3143 0.12748 0.0
C449 C 0.62191 0.34574 0.20621 0.0
C450 C 0.55984 0.20583 0.36288 0.0
C451 C 0.53331 0.19661 0.36081 0.0
C452 C 0.51591 0.20774 0.30997 0.0
C453 C 0.52496 0.22833 0.26462 0.0
C454 C 0.55169 0.23787 0.26983 0.0
C455 C 0.56833 0.22618 0.31886 0.0
C456 C 0.59536 0.23898 0.32362 0.0
C457 C 0.5933 0.25961 0.26726 0.0
C458 C 0.56771 0.25953 0.23441 0.0
C459 C 0.616 0.21775 0.30686 0.0
C460 C 0.5991 0.25163 0.39646 0.0
H461 H 0.60892 0.33471 0.06637 0.0
H462 H 0.51144 0.32104 0.03359 0.0
H463 H 0.52288 0.31362 0.21253 0.0
H464 H 0.50962 0.28052 0.22203 0.0
H465 H 0.49758 0.30106 0.15259 0.0
H466 H 0.5429 0.25685 0.0553 0.0
H467 H 0.50922 0.26776 0.06128 0.0
H468 H 0.52258 0.24436 0.12241 0.0
H469 H 0.67394 0.3436 0.26454 0.0
H470 H 0.6825 0.28289 0.42084 0.0
H471 H 0.64857 0.25587 0.36259 0.0
H472 H 0.66658 0.3031 0.13737 0.0
H473 H 0.6542 0.33405 0.10664 0.0
H474 H 0.63692 0.3029 0.08657 0.0
H475 H 0.61528 0.34762 0.25995 0.0
H476 H 0.60483 0.35156 0.17328 0.0
H477 H 0.63823 0.36067 0.19839 0.0
H478 H 0.58598 0.36086 0.98373 0.0
C479 C 0.58798 0.33107 0.06117 0.0
Eu480 Eu 0.99563 0.03101 0.61192 0.0
Eu481 Eu 0.03726 0.00899 0.72046 0.0
C482 C 0.01986 0.06952 0.73736 0.0
C483 C 0.98386 0.05569 0.43868 0.0
C484 C 0.98552 0.08131 0.41008 0.0
C485 C 0.02265 0.04349 0.37534 0.0
C486 C 1.00684 0.0885 0.36893 0.0
C487 C 1.00139 0.03628 0.41667 0.0
C488 C 0.02646 0.07004 0.35553 0.0
C489 C 0.97171 0.05239 0.50615 0.0
O490 O 0.99611 1.00061 0.7662 0.0
O491 O 0.96637 0.0232 0.69786 0.0
C492 C 0.97188 0.00973 0.75463 0.0
O493 O 0.99105 0.98623 0.59566 0.0
O494 O 0.05094 1.00407 0.82736 0.0
O495 O 0.06867 0.98132 0.748 0.0
O496 O 0.03277 0.97739 0.63594 0.0
C497 C 0.01129 0.97024 0.59942 0.0
O498 O 0.03637 0.02924 0.55834 0.0
O499 O 0.06573 0.03022 0.64974 0.0
O500 O 0.0394 0.05294 0.74713 0.0
O501 O 0.96623 0.02809 0.52637 0.0
O502 O 0.98416 0.06628 0.55426 0.0
O503 O 0.99975 0.06352 0.69447 0.0
C504 C 0.05336 0.95774 0.84469 0.0
C505 C 0.0557 0.93348 0.80997 0.0
C506 C 0.0175 0.93787 0.91019 0.0
C507 C 0.03794 0.91228 0.82204 0.0
C508 C 0.03525 0.95905 0.89819 0.0
C509 C 0.01775 0.91489 0.86958 0.0
C510 C 0.06378 0.98265 0.81334 0.0
C511 C 0.06109 0.03206 0.58313 0.0
H512 H 0.97245 0.09664 0.42672 0.0
H513 H 0.03745 0.02899 0.36449 0.0
H514 H 1.00958 0.10916 0.35405 0.0
H515 H 1.00069 0.01634 0.43803 0.0
H516 H 0.06963 0.93164 0.76899 0.0
H517 H 1.00267 0.94002 0.94884 0.0
H518 H 0.03884 0.89464 0.79058 0.0
H519 H 0.03316 0.97727 0.92675 0.0
Eu520 Eu 0.53387 0.03126 0.72214 0.0
Eu521 Eu 0.4946 1.00118 0.61445 0.0
C522 C 0.52055 0.96599 0.73459 0.0
C523 C 0.58448 0.02282 0.8512 0.0
C524 C 0.58735 0.99916 0.8144 0.0
C525 C 0.6039 1.0015 0.95233 0.0
C526 C 0.59746 0.97667 0.84652 0.0
C527 C 0.593 0.02396 0.92032 0.0
C528 C 0.60575 0.97735 0.9161 0.0
C529 C 0.56829 0.04371 0.81919 0.0
O530 O 0.46846 0.00985 0.70642 0.0
O531 O 0.49278 0.04417 0.75469 0.0
C532 C 0.47044 0.02972 0.75027 0.0
O533 O 0.52522 0.06641 0.65174 0.0
O534 O 0.45744 0.979 0.59004 0.0
O535 O 0.48128 0.99443 0.50783 0.0
O536 O 0.49524 0.04441 0.57945 0.0
C537 C 0.50907 0.06605 0.597 0.0
O538 O 0.56204 0.02066 0.63612 0.0
O539 O 0.5349 0.99431 0.56663 0.0
O540 O 0.51018 0.96546 0.67176 0.0
O541 O 0.57271 0.04841 0.75452 0.0
O542 O 0.54293 0.04096 0.83004 0.0
O543 O 0.52809 0.98871 0.76329 0.0
C544 C 0.43665 1.00607 0.50542 0.0
C545 C 0.43615 0.01643 0.43829 0.0
C546 C 0.41051 0.04325 0.54192 0.0
C547 C 0.42392 0.04055 0.4238 0.0
C548 C 0.42269 0.01918 0.55637 0.0
C549 C 0.41189 0.05472 0.47618 0.0
C550 C 0.45746 0.9872 0.52627 0.0
C551 C 0.55844 1.00568 0.581 0.0
H552 H 0.58053 0.9976 0.76116 0.0
H553 H 0.61065 1.00308 1.00558 0.0
H554 H 0.59787 0.95852 0.81695 0.0
H555 H 0.59059 0.04188 0.94988 0.0
H556 H 0.44697 1.00694 0.39828 0.0
H557 H 0.40135 0.05358 0.58336 0.0
H558 H 0.42464 0.04854 0.37206 0.0
H559 H 0.42285 0.01201 0.60897 0.0
Eu560 Eu 0.50255 0.52374 0.72253 0.0
Eu561 Eu 0.54753 0.5071 0.61533 0.0
C562 C 0.56516 0.52703 0.7681 0.0
C563 C 0.44396 0.55682 0.80401 0.0
C564 C 0.43663 0.57034 0.74333 0.0
C565 C 0.41358 0.58322 0.8673 0.0
C566 C 0.41824 0.59071 0.74502 0.0
C567 C 0.43181 0.56283 0.86542 0.0
C568 C 0.40715 0.59798 0.80757 0.0
C569 C 0.46574 0.53804 0.8054 0.0
O570 O 0.54721 0.47349 0.6945 0.0
O571 O 0.50691 0.47943 0.74354 0.0
C572 C 0.528 0.46503 0.73458 0.0
O573 O 0.47956 0.51894 0.62011 0.0
O574 O 0.58549 0.51545 0.56686 0.0
O575 O 0.56232 0.47998 0.53949 0.0
O576 O 0.50858 0.49251 0.56598 0.0
C577 C 0.48502 0.50305 0.56927 0.0
O578 O 0.51427 0.56244 0.66749 0.0
O579 O 0.53284 0.54613 0.57077 0.0
O580 O 0.57001 0.52815 0.70222 0.0
O581 O 0.46303 0.51777 0.76395 0.0
O582 O 0.48969 0.54872 0.80565 0.0
O583 O 0.5409 0.52176 0.78871 0.0
C584 C 0.60867 0.4772 0.53723 0.0
C585 C 0.61719 0.4657 0.59973 0.0
C586 C 0.64119 0.4521 0.4776 0.0
C587 C 0.63713 0.4468 0.60077 0.0
C588 C 0.6214 0.47103 0.47676 0.0
C589 C 0.64861 0.43896 0.53917 0.0
C590 C 0.58475 0.49319 0.53283 0.0
C591 C 0.52281 0.56594 0.60441 0.0
H592 H 0.44588 0.56584 0.69535 0.0
H593 H 0.40597 0.5885 0.9167 0.0
H594 H 0.41358 0.60149 0.69803 0.0
H595 H 0.43735 0.55259 0.91269 0.0
H596 H 0.60751 0.47035 0.64701 0.0
H597 H 0.6491 0.44637 0.4289 0.0
H598 H 0.64254 0.4373 0.64913 0.0
H599 H 0.61497 0.47971 0.4281 0.0
Eu600 Eu 0.03734 0.5326 0.64708 0.0
Eu601 Eu 0.99911 0.49218 0.72906 0.0
C602 C 0.0615 0.49567 0.76743 0.0
C603 C 0.09706 0.54051 0.55449 0.0
C604 C 0.10585 0.5196 0.59696 0.0
C605 C 0.11925 0.5208 0.45911 0.0
C606 C 0.11959 0.49864 0.56986 0.0
C607 C 0.10489 0.54159 0.4861 0.0
C608 C 0.12531 0.49824 0.49964 0.0
C609 C 0.0741 0.55556 0.57606 0.0
O610 O 1.00342 0.53016 0.79364 0.0
O611 O 0.02023 0.56205 0.72125 0.0
C612 C 1.00999 0.55527 0.78052 0.0
O613 O 0.9974 0.53827 0.59232 0.0
O614 O 0.9879 0.47629 0.82917 0.0
O615 O 0.9653 0.46422 0.73786 0.0
O616 O 0.96948 0.51529 0.6637 0.0
C617 C 0.97331 0.53039 0.60949 0.0
O618 O 0.04447 0.49078 0.6053 0.0
O619 O 1.00714 0.46719 0.63513 0.0
O620 O 0.04123 0.47895 0.75629 0.0
O621 O 0.05152 0.54707 0.54833 0.0
O622 O 0.07244 0.55919 0.64213 0.0
O623 O 0.06075 0.51982 0.7422 0.0
C624 C 0.94167 0.48164 0.82992 0.0
C625 C 0.92334 0.49286 0.78245 0.0
C626 C 0.92761 0.5126 0.91619 0.0
C627 C 0.90881 0.51491 0.80031 0.0
C628 C 0.94228 0.49062 0.89819 0.0
C629 C 0.91199 0.52594 0.86628 0.0
C630 C 0.96487 0.46758 0.80431 0.0
C631 C 0.02837 0.46971 0.59776 0.0
H632 H 0.09988 0.518 0.64983 0.0
H633 H 0.12426 0.52181 0.40545 0.0
H634 H 0.12355 0.48182 0.60315 0.0
H635 H 0.09818 0.5574 0.45227 0.0
H636 H 0.92207 0.48636 0.72944 0.0
H637 H 0.92975 0.52009 0.96823 0.0
H638 H 0.89679 0.52451 0.76071 0.0
H639 H 0.95606 0.48233 0.93602 0.0
H640 H 0.16975 0.06035 0.4326 0.0
H641 H 0.13143 0.01498 0.26818 0.0
H642 H 0.09221 1.00768 0.33868 0.0
H643 H 0.06824 0.01407 0.44906 0.0
H644 H 0.10754 0.05972 0.61124 0.0
H645 H 0.14626 0.06693 0.54016 0.0
C646 C 0.15286 0.04896 0.41133 0.0
C647 C 0.1541 0.03839 0.34378 0.0
C648 C 0.13015 0.04486 0.45242 0.0
C649 C 0.13172 0.02324 0.31949 0.0
C650 C 0.10901 0.01919 0.35997 0.0
C651 C 0.08506 0.02601 0.46835 0.0
C652 C 0.08437 0.03669 0.53589 0.0
C653 C 0.10785 0.02996 0.42669 0.0
C654 C 0.10707 0.05126 0.56011 0.0
C655 C 0.12941 0.05541 0.51919 0.0
H656 H 0.50397 0.14892 0.34698 0.0
H657 H 0.5445 0.19901 0.49842 0.0
H658 H 0.54025 0.16413 0.58488 0.0
H659 H 0.52868 0.11765 0.61642 0.0
H660 H 0.48579 0.06808 0.46773 0.0
H661 H 0.48714 0.10403 0.3834 0.0
C662 C 0.51133 0.15243 0.39922 0.0
C663 C 0.52503 0.17665 0.4151 0.0
C664 C 0.50874 0.13202 0.44985 0.0
C665 C 0.53433 0.18054 0.48369 0.0
C666 C 0.53195 0.1605 0.53358 0.0
C667 C 0.51936 0.11473 0.5659 0.0
C668 C 0.50748 0.08974 0.54911 0.0
C669 C 0.51986 0.13582 0.51701 0.0
C670 C 0.4953 0.08681 0.48297 0.0
C671 C 0.49606 0.10748 0.43412 0.0
H672 H 0.4117 0.45778 0.32301 0.0
H673 H 0.35713 0.51461 0.39807 0.0
H674 H 0.39106 0.53028 0.4834 0.0
H675 H 0.4353 0.52478 0.54396 0.0
H676 H 0.4885 0.46655 0.46734 0.0
H677 H 0.45607 0.45435 0.37706 0.0
C678 C 0.4073 0.47389 0.35736 0.0
C679 C 0.38174 0.4849 0.354 0.0
C680 C 0.42661 0.48221 0.40743 0.0
C681 C 0.37663 0.50593 0.39872 0.0
C682 C 0.39597 0.51463 0.44829 0.0
C683 C 0.43982 0.50945 0.50748 0.0
C684 C 0.46449 0.4965 0.51362 0.0
C685 C 0.42085 0.5024 0.45449 0.0
C686 C 0.46986 0.47688 0.46491 0.0
C687 C 0.45126 0.46985 0.41276 0.0
H688 H 0.07879 0.38831 0.39087 0.0
H689 H 1.0012 0.35012 0.40022 0.0
H690 H 0.98675 0.38573 0.47564 0.0
H691 H 0.99724 0.42674 0.54619 0.0
H692 H 0.07556 0.4635 0.535 0.0
H693 H 0.08858 0.42919 0.45599 0.0
C694 C 0.0586 0.38765 0.409 0.0
C695 C 0.04126 0.36605 0.38952 0.0
C696 C 0.05061 0.40795 0.45365 0.0
C697 C 0.01506 0.36632 0.41318 0.0
C698 C 1.00687 0.38664 0.45727 0.0
C699 C 0.01716 0.42733 0.52641 0.0
C700 C 0.03538 0.44804 0.54787 0.0
C701 C 0.02463 0.40738 0.47915 0.0
C702 C 0.06099 0.44819 0.52039 0.0
C703 C 0.0685 0.42849 0.47458 0.0
H704 H 0.90207 0.9736 1.00995 0.0
H705 H 0.84572 0.0277 0.91948 0.0
H706 H 0.87746 0.03913 0.82937 0.0
H707 H 0.92107 0.03167 0.77107 0.0
H708 H 0.97525 0.97561 0.86355 0.0
H709 H 0.94444 0.96661 0.95483 0.0
C710 C 0.89643 0.98793 0.97067 0.0
C711 C 0.8709 0.99948 0.97247 0.0
C712 C 0.91452 0.99377 0.91758 0.0
C713 C 0.86496 0.0185 0.92104 0.0
C714 C 0.88315 0.0248 0.86854 0.0
C715 C 0.92612 0.01738 0.81094 0.0
C716 C 0.95096 1.0043 0.80879 0.0
C717 C 0.90792 0.01219 0.86522 0.0
C718 C 0.95673 0.98611 0.86234 0.0
C719 C 0.93897 0.98093 0.91537 0.0
H720 H 0.50684 0.85205 0.87443 0.0
H721 H 0.5444 0.89273 0.04776 0.0
H722 H 0.55039 0.9329 0.97683 0.0
H723 H 0.54082 0.95797 0.86772 0.0
H724 H 0.50296 0.91616 0.69598 0.0
H725 H 0.50087 0.87549 0.76427 0.0
C726 C 0.51644 0.86964 0.89699 0.0
C727 C 0.52476 0.8692 0.96725 0.0
C728 C 0.51939 0.89282 0.85612 0.0
C729 C 0.53777 0.8922 0.99425 0.0
C730 C 0.54096 0.91536 0.95366 0.0
C731 C 0.53238 0.93992 0.84481 0.0
C732 C 0.52188 0.94056 0.77613 0.0
C733 C 0.53122 0.91616 0.88485 0.0
C734 C 0.51112 0.91668 0.74818 0.0
C735 C 0.50987 0.89325 0.78745 0.0
H736 H 0.67459 0.54973 0.93087 0.0
H737 H 0.62809 0.52807 0.10578 0.0
H738 H 0.58902 0.51934 0.02892 0.0
H739 H 0.56738 0.52014 0.91068 0.0
H740 H 0.61551 0.5434 0.73915 0.0
H741 H 0.65402 0.54975 0.81596 0.0
C742 C 0.65591 0.54318 0.95261 0.0
C743 C 0.65439 0.53993 0.02454 0.0
C744 C 0.6335 0.5388 0.90839 0.0
C745 C 0.63005 0.53069 0.05087 0.0
C746 C 0.60758 0.52595 1.0068 0.0
C747 C 0.58626 0.52671 0.89019 0.0
C748 C 0.58814 0.53141 0.81854 0.0
C749 C 0.6089 0.53037 0.93531 0.0
C750 C 0.61305 0.53965 0.79348 0.0
C751 C 0.63531 0.54327 0.83754 0.0
H752 H 0.97958 0.62402 0.04033 0.0
H753 H 0.02037 0.68653 0.93063 0.0
H754 H 0.03138 0.65477 0.84076 0.0
H755 H 0.02616 0.60921 0.78794 0.0
H756 H 0.98541 0.54747 0.90222 0.0
H757 H 0.97843 0.57849 0.99476 0.0
C758 C 0.99155 0.63061 0.99775 0.0
C759 C 0.99938 0.6578 0.99332 0.0
C760 C 0.99747 0.61224 0.94565 0.0
C761 C 0.01452 0.66579 0.93675 0.0
C762 C 0.02046 0.64759 0.88455 0.0
C763 C 0.01562 0.60252 0.83284 0.0
C764 C 1.00607 0.57568 0.83641 0.0
C765 C 0.01144 0.6208 0.88733 0.0
C766 C 0.9929 0.56772 0.89641 0.0
C767 C 0.9888 0.58558 0.94994 0.0
H768 H 0.12024 0.13811 0.24492 0.0
H769 H 0.13627 0.14701 0.46289 0.0
H770 H 0.1049 0.11018 0.4858 0.0
H771 H 0.0657 0.08375 0.44478 0.0
H772 H 0.04582 0.0799 0.22809 0.0
H773 H 0.08606 0.10647 0.20301 0.0
C774 C 0.11781 0.13131 0.29739 0.0
C775 C 0.13035 0.14551 0.35231 0.0
C776 C 0.09848 0.11148 0.31011 0.0
C777 C 0.12673 0.13651 0.41991 0.0
C778 C 0.10858 0.11567 0.43293 0.0
C779 C 0.07081 0.08806 0.39203 0.0
C780 C 0.05315 0.08009 0.33809 0.0
C781 C 0.09317 0.10427 0.37867 0.0
C782 C 0.05936 0.0859 0.26996 0.0
C783 C 0.08224 0.10112 0.2559 0.0
H784 H 0.37329 0.16245 0.35117 0.0
H785 H 0.30326 0.13788 0.4607 0.0
H786 H 0.32854 0.10498 0.5232 0.0
H787 H 0.36581 0.07466 0.52111 0.0
H788 H 0.4343 0.09527 0.40172 0.0
H789 H 0.41386 0.1368 0.36567 0.0
C790 C 0.36358 0.15019 0.38945 0.0
C791 C 0.33584 0.15159 0.39695 0.0
C792 C 0.37761 0.12938 0.42083 0.0
C793 C 0.3243 0.13699 0.45109 0.0
C794 C 0.33866 0.11755 0.4863 0.0
C795 C 0.37658 0.08852 0.48858 0.0
C796 C 0.40115 0.08149 0.46237 0.0
C797 C 0.36455 0.11213 0.46717 0.0
C798 C 0.4149 0.09978 0.42057 0.0
C799 C 0.40335 0.12367 0.40054 0.0
H800 H 0.66836 0.32179 0.48231 0.0
H801 H 0.71547 0.35741 0.323 0.0
H802 H 0.71534 0.40018 0.38202 0.0
H803 H 0.69124 0.42886 0.45977 0.0
H804 H 0.64011 0.39265 0.61013 0.0
H805 H 0.65353 0.34883 0.576 0.0
C806 C 0.67976 0.33849 0.46195 0.0
C807 C 0.69112 0.33661 0.397 0.0
C808 C 0.6784 0.36324 0.4942 0.0
C809 C 0.70596 0.35852 0.37205 0.0
C810 C 0.70568 0.38305 0.40551 0.0
C811 C 0.68354 0.41138 0.48618 0.0
C812 C 0.66399 0.41413 0.53579 0.0
C813 C 0.69018 0.386 0.46358 0.0
C814 C 0.655 0.39134 0.57136 0.0
C815 C 0.66243 0.3661 0.55126 0.0
H816 H 0.15952 0.40222 0.3201 0.0
H817 H 0.20134 0.3813 0.50935 0.0
H818 H 0.18067 0.41801 0.5677 0.0
H819 H 0.15726 0.46016 0.55867 0.0
H820 H 0.11423 0.47943 0.36946 0.0
H821 H 0.13015 0.43956 0.31659 0.0
C822 C 0.16344 0.40478 0.37483 0.0
C823 C 0.18255 0.38923 0.40978 0.0
C824 C 0.15232 0.42642 0.40722 0.0
C825 C 0.18711 0.39321 0.48078 0.0
C826 C 0.17555 0.41442 0.51394 0.0
C827 C 0.15079 0.45553 0.50635 0.0
C828 C 0.13504 0.47349 0.46795 0.0
C829 C 0.15926 0.43197 0.47659 0.0
C830 C 0.12729 0.46689 0.3998 0.0
C831 C 0.13594 0.44371 0.3697 0.0
H832 H 0.94131 0.81629 0.90858 0.0
H833 H 0.88315 0.87772 0.9204 0.0
H834 H 0.91708 0.91107 0.88884 0.0
H835 H 0.96459 0.92304 0.8748 0.0
H836 H 0.0223 0.86102 0.87186 0.0
H837 H 0.98682 0.82738 0.88296 0.0
C838 C 0.93546 0.83674 0.90191 0.0
C839 C 0.90955 0.84439 0.91774 0.0
C840 C 0.95522 0.85577 0.88714 0.0
C841 C 0.90291 0.87123 0.90915 0.0
C842 C 0.92239 0.89033 0.89185 0.0
C843 C 0.96936 0.90214 0.87679 0.0
C844 C 0.99608 0.8945 0.87383 0.0
C845 C 0.94888 0.88292 0.88408 0.0
C846 C 1.00193 0.86737 0.87435 0.0
C847 C 0.98166 0.84816 0.88065 0.0
H848 H 0.65796 0.89222 0.10878 0.0
H849 H 0.69078 0.86806 0.91699 0.0
H850 H 0.66114 0.89809 0.85452 0.0
H851 H 0.63436 0.93799 0.85844 0.0
H852 H 0.60082 0.9612 0.05038 0.0
H853 H 0.62334 0.92491 0.10916 0.0
C854 C 0.65806 0.89246 0.05308 0.0
C855 C 0.67755 0.87861 0.018 0.0
C856 C 0.64175 0.91047 0.01786 0.0
C857 C 0.67665 0.8791 0.94563 0.0
C858 C 0.6599 0.89652 0.90991 0.0
C859 C 0.63115 0.9348 0.91269 0.0
C860 C 0.6165 0.95306 0.9501 0.0
C861 C 0.64374 0.91355 0.94611 0.0
C862 C 0.61289 0.94832 0.02057 0.0
C863 C 0.62545 0.92728 0.05417 0.0
H864 H 0.38882 0.71524 0.87384 0.0
H865 H 0.33954 0.67845 0.02699 0.0
H866 H 0.34032 0.63616 0.96579 0.0
H867 H 0.36463 0.60809 0.88711 0.0
H868 H 0.41784 0.64528 0.74315 0.0
H869 H 0.40487 0.68892 0.78018 0.0
C870 C 0.37715 0.69838 0.89232 0.0
C871 C 0.36477 0.69981 0.95601 0.0
C872 C 0.37885 0.67391 0.85889 0.0
C873 C 0.34973 0.67769 0.97883 0.0
C874 C 0.35037 0.65344 0.94413 0.0
C875 C 0.37295 0.62577 0.86284 0.0
C876 C 0.3928 0.6233 0.81393 0.0
C877 C 0.36649 0.65096 0.88706 0.0
C878 C 0.40266 0.64638 0.78118 0.0
C879 C 0.39547 0.67149 0.80294 0.0
H880 H 0.88032 0.63795 0.975 0.0
H881 H 0.80567 0.61367 0.87466 0.0
H882 H 0.82698 0.57676 0.82184 0.0
H883 H 0.86359 0.54537 0.82598 0.0
H884 H 0.93628 0.56632 0.93861 0.0
H885 H 0.9186 0.60927 0.96805 0.0
C886 C 0.86868 0.62478 0.94108 0.0
C887 C 0.84106 0.62816 0.93206 0.0
C888 C 0.88045 0.60201 0.91556 0.0
C889 C 0.82686 0.61174 0.88415 0.0
C890 C 0.83892 0.59005 0.85475 0.0
C891 C 0.8757 0.55948 0.85611 0.0
C892 C 0.90109 0.5524 0.88125 0.0
C893 C 0.86515 0.58399 0.87394 0.0
C894 C 0.91648 0.57101 0.92011 0.0
C895 C 0.90645 0.5957 0.9364 0.0
H896 H 1.0033 0.16361 0.95149 0.0
H897 H 0.08017 0.18824 0.87765 0.0
H898 H 0.07924 0.15101 0.7983 0.0
H899 H 0.05847 0.10898 0.75446 0.0
H900 H 0.97977 0.08613 0.81724 0.0
H901 H 0.97953 0.12449 0.89483 0.0
C902 C 0.01954 0.16125 0.91693 0.0
C903 C 0.04206 0.17881 0.92247 0.0
C904 C 0.01879 0.13958 0.86952 0.0
C905 C 0.06279 0.17502 0.8764 0.0
C906 C 0.06234 0.15355 0.83065 0.0
C907 C 0.04117 0.11251 0.7847 0.0
C908 C 0.01927 0.09438 0.7802 0.0
C909 C 0.04082 0.13524 0.82782 0.0
C910 C 0.99693 0.09964 0.81939 0.0
C911 C 0.99681 0.12166 0.86405 0.0
H912 H 0.38723 0.07327 0.96277 0.0
H913 H 0.33917 1.00648 0.88918 0.0
H914 H 0.37555 0.99356 0.8152 0.0
H915 H 0.421 1.00273 0.76606 0.0
H916 H 0.46732 0.07061 0.84167 0.0
H917 H 0.43177 0.08161 0.91778 0.0
C918 C 0.38446 0.05579 0.93067 0.0
C919 C 0.35983 0.04113 0.93208 0.0
C920 C 0.40537 0.04879 0.88718 0.0
C921 C 0.35753 0.01825 0.89046 0.0
C922 C 0.37843 0.011 0.8473 0.0
C923 C 0.42339 0.01996 0.79911 0.0
C924 C 0.44738 0.03582 0.79675 0.0
C925 C 0.40242 0.02635 0.84421 0.0
C926 C 0.44957 0.05792 0.84103 0.0
C927 C 0.42906 0.06427 0.88517 0.0
H928 H 0.56332 0.35614 0.87249 0.0
H929 H 0.50274 0.37498 1.01475 0.0
H930 H 0.49015 0.41331 0.94281 0.0
H931 H 0.5 0.44464 0.84544 0.0
H932 H 0.56318 0.42611 0.70969 0.0
H933 H 0.57128 0.38519 0.77342 0.0
C934 C 0.54705 0.36837 0.88754 0.0
C935 C 0.53413 0.36249 0.94971 0.0
C936 C 0.54075 0.39101 0.84745 0.0
C937 C 0.51293 0.3786 0.96725 0.0
C938 C 0.506 0.40085 0.92641 0.0
C939 C 0.51535 0.43153 0.82928 0.0
C940 C 0.53102 0.4389 0.77235 0.0
C941 C 0.52032 0.40779 0.86736 0.0
C942 C 0.55086 0.42142 0.75303 0.0
C943 C 0.55551 0.39782 0.78956 0.0
H944 H 0.15988 0.44382 0.92513 0.0
H945 H 0.17966 0.52646 0.96712 0.0
H946 H 0.14096 0.53964 0.89755 0.0
H947 H 0.10002 0.5279 0.82902 0.0
H948 H 0.07808 0.44525 0.79728 0.0
H949 H 0.11846 0.43206 0.86088 0.0
C950 C 0.15572 0.46478 0.92064 0.0
C951 C 0.17313 0.48397 0.95291 0.0
C952 C 0.13264 0.4723 0.88276 0.0
C953 C 0.1673 0.51101 0.94292 0.0
C954 C 0.14483 0.51864 0.90352 0.0
C955 C 0.10401 0.50696 0.83601 0.0
C956 C 0.08581 0.4876 0.8082 0.0
C957 C 0.12716 0.49947 0.87385 0.0
C958 C 0.09145 0.46061 0.81829 0.0
C959 C 0.11468 0.45306 0.85449 0.0
H960 H 0.02942 0.87043 0.40285 0.0
H961 H 0.94539 0.85866 0.43545 0.0
H962 H 0.94574 0.89728 0.50979 0.0
H963 H 0.96891 0.9365 0.56254 0.0
H964 H 0.05355 0.94674 0.54069 0.0
H965 H 0.05384 0.90737 0.46702 0.0
C966 C 0.01127 0.876 0.42704 0.0
C967 C 0.98724 0.86155 0.411 0.0
C968 C 0.01156 0.89849 0.47191 0.0
C969 C 0.96412 0.86946 0.44419 0.0
C970 C 0.96423 0.89171 0.48736 0.0
C971 C 0.98747 0.93009 0.54195 0.0
C972 C 0.01113 0.945 0.55726 0.0
C973 C 0.98766 0.9068 0.50068 0.0
C974 C 0.03496 0.93588 0.53034 0.0
C975 C 0.03515 0.91324 0.4878 0.0
H976 H 0.64081 0.97427 0.35134 0.0
H977 H 0.68907 0.03632 0.449 0.0
H978 H 0.65338 0.04409 0.52925 0.0
H979 H 0.60827 0.03231 0.57529 0.0
H980 H 0.56087 0.97013 0.47501 0.0
H981 H 0.59627 0.96325 0.39469 0.0
C982 C 0.64388 0.98945 0.39033 0.0
C983 C 0.66836 1.00443 0.39336 0.0
C984 C 0.62316 0.9937 0.43713 0.0
C985 C 0.67085 0.02443 0.44397 0.0
C986 C 0.65032 0.02875 0.49067 0.0
C987 C 0.60563 0.01714 0.53611 0.0
C988 C 0.58141 1.00166 0.53265 0.0
C989 C 0.62638 0.01335 0.48844 0.0
C990 C 0.57884 0.98241 0.48022 0.0
C991 C 0.59926 0.97844 0.43371 0.0
H992 H 0.49222 0.68042 0.48974 0.0
H993 H 0.5405 0.65707 0.32251 0.0
H994 H 0.55167 0.61595 0.38453 0.0
H995 H 0.54404 0.58433 0.48211 0.0
H996 H 0.49511 0.60851 0.6479 0.0
H997 H 0.48774 0.651 0.59056 0.0
C998 C 0.50562 0.66659 0.46722 0.0
C999 C 0.51546 0.6721 0.40102 0.0
C1000 C 0.51143 0.64266 0.50263 0.0
C1001 C 0.53286 0.65379 0.37338 0.0
C1002 C 0.53894 0.62999 0.40863 0.0
C1003 C 0.5319 0.59894 0.50605 0.0
C1004 C 0.52003 0.59275 0.56969 0.0
C1005 C 0.52775 0.6238 0.47255 0.0
C1006 C 0.50455 0.61231 0.59943 0.0
C1007 C 0.50028 0.63679 0.56646 0.0
H1008 H 0.8891 0.57553 0.39202 0.0
H1009 H 0.83485 0.52509 0.50389 0.0
H1010 H 0.87214 0.51027 0.57861 0.0
H1011 H 0.92035 0.51348 0.61532 0.0
H1012 H 0.9732 0.56519 0.50152 0.0
H1013 H 0.93625 0.578 0.42584 0.0
C1014 C 0.8853 0.56126 0.43277 0.0
C1015 C 0.85898 0.5517 0.44252 0.0
C1016 C 0.90668 0.5533 0.476 0.0
C1017 C 0.85476 0.53276 0.49476 0.0
C1018 C 0.87613 0.52448 0.53793 0.0
C1019 C 0.9238 0.52762 0.57414 0.0
C1020 C 0.94984 0.5384 0.56494 0.0
C1021 C 0.90219 0.53494 0.52976 0.0
C1022 C 0.95366 0.55653 0.51058 0.0
C1023 C 0.93245 0.56387 0.46687 0.0
loop_
_geom_bond_atom_site_label_1
_geom_bond_atom_site_label_2
_geom_bond_distance
_geom_bond_site_symmetry_2
_ccdc_geom_bond_type
C0 C1 1.391 . S
C0 C4 1.391 . S
C0 H42 0.948 . S
C1 C0 1.391 . S
C1 C2 1.391 . S
C2 C1 1.391 . S
C2 H58 0.947 . S
C2 C59 1.392 . S
C3 C4 1.391 . S
C3 C7 1.397 . S
C3 C59 1.419 . S
C4 C0 1.391 . S
C4 C3 1.391 . S
C4 C5 1.399 . S
C5 C4 1.399 . S
C5 C8 1.396 . S
C5 C17 1.453 . S
C5 C18 1.684 . S
H6 C30 0.948 . S
C7 C3 1.397 . S
C7 C8 1.394 . S
C7 C26 1.723 . S
C8 C5 1.396 . S
C8 C7 1.394 . S
C8 C38 1.723 . S
H9 C32 0.947 . S
H10 C33 0.948 . S
H11 C39 0.982 . S
H12 C40 0.979 . S
H13 C40 0.980 . S
H14 C40 0.983 . S
H15 C39 0.979 . S
H16 C39 0.977 . S
C17 C5 1.453 . S
C17 H46 0.982 . S
C17 H47 0.979 . S
C17 H48 0.977 . S
C18 C5 1.684 . S
C18 H43 0.979 . S
C18 H44 0.980 . S
C18 H45 0.983 . S
C19 C20 1.391 . S
C19 C24 1.391 . S
C19 H49 0.948 . S
C20 C19 1.391 . S
C20 C21 1.391 . S
C21 C20 1.391 . S
C21 C22 1.392 . S
C21 H50 0.947 1_554 S
C22 C21 1.392 . S
C22 C23 1.419 . S
C22 H51 0.948 . S
C23 C22 1.419 . S
C23 C24 1.391 . S
C23 C27 1.397 . S
C24 C19 1.391 . S
C24 C23 1.391 . S
C24 C25 1.399 . S
C25 C24 1.399 . S
C25 C26 1.396 . S
C25 C28 1.453 . S
C25 C29 1.684 . S
C26 C7 1.723 . S
C26 C25 1.396 . S
C26 C27 1.394 . S
C27 C23 1.397 . S
C27 C26 1.394 . S
C27 C37 1.723 . S
C28 C25 1.453 . S
C28 H52 0.982 . S
C28 H53 0.979 . S
C28 H54 0.977 . S
C29 C25 1.684 . S
C29 H55 0.979 . S
C29 H56 0.980 . S
C29 H57 0.983 . S
C30 H6 0.948 . S
C30 C31 1.391 . S
C30 C35 1.391 . S
C31 C30 1.391 . S
C31 C32 1.391 . S
C32 H9 0.947 . S
C32 C31 1.391 . S
C32 C33 1.392 . S
C33 H10 0.948 . S
C33 C32 1.392 . S
C33 C34 1.419 . S
C34 C33 1.419 . S
C34 C35 1.391 . S
C34 C38 1.397 . S
C35 C30 1.391 . S
C35 C34 1.391 . S
C35 C36 1.399 . S
C36 C35 1.399 . S
C36 C37 1.396 . S
C36 C39 1.453 . S
C36 C40 1.684 . S
C37 C27 1.723 . S
C37 C36 1.396 . S
C37 C38 1.394 . S
C38 C8 1.723 . S
C38 C34 1.397 . S
C38 C37 1.394 . S
C39 H11 0.982 . S
C39 H15 0.979 . S
C39 H16 0.977 . S
C39 C36 1.453 . S
C40 H12 0.979 . S
C40 H13 0.980 . S
C40 H14 0.983 . S
C40 C36 1.684 . S
H41 C59 0.948 . S
H42 C0 0.948 . S
H43 C18 0.979 . S
H44 C18 0.980 . S
H45 C18 0.983 . S
H46 C17 0.982 . S
H47 C17 0.979 . S
H48 C17 0.977 . S
H49 C19 0.948 . S
H50 C21 0.947 1_556 S
H51 C22 0.948 . S
H52 C28 0.982 . S
H53 C28 0.979 . S
H54 C28 0.977 . S
H55 C29 0.979 . S
H56 C29 0.980 . S
H57 C29 0.983 . S
H58 C2 0.947 . S
C59 C2 1.392 . S
C59 C3 1.419 . S
C59 H41 0.948 . S
C60 C61 1.391 . S
C60 C64 1.391 . S
C60 H102 0.948 . S
C61 C60 1.391 . S
C61 C62 1.391 . S
C62 C61 1.391 . S
C62 H118 0.947 . S
C62 C119 1.392 . S
C63 C64 1.391 . S
C63 C67 1.397 . S
C63 C119 1.419 . S
C64 C60 1.391 . S
C64 C63 1.391 . S
C64 C65 1.399 . S
C65 C64 1.399 . S
C65 C68 1.396 . S
C65 C77 1.453 . S
C65 C78 1.684 . S
H66 C90 0.948 . S
C67 C63 1.397 . S
C67 C68 1.394 . S
C67 C86 1.723 . S
C68 C65 1.396 . S
C68 C67 1.394 . S
C68 C98 1.723 . S
H69 C92 0.947 . S
H70 C93 0.948 . S
H71 C99 0.982 . S
H72 C100 0.979 . S
H73 C100 0.980 . S
H74 C100 0.983 . S
H75 C99 0.979 . S
H76 C99 0.977 . S
C77 C65 1.453 . S
C77 H106 0.982 . S
C77 H107 0.979 . S
C77 H108 0.977 . S
C78 C65 1.684 . S
C78 H103 0.979 . S
C78 H104 0.980 . S
C78 H105 0.983 . S
C79 C80 1.391 . S
C79 C84 1.391 . S
C79 H109 0.948 . S
C80 C79 1.391 . S
C80 C81 1.391 . S
C81 C80 1.391 . S
C81 C82 1.392 . S
C81 H110 0.947 . S
C82 C81 1.392 . S
C82 C83 1.419 . S
C82 H111 0.948 . S
C83 C82 1.419 . S
C83 C84 1.391 . S
C83 C87 1.397 . S
C84 C79 1.391 . S
C84 C83 1.391 . S
C84 C85 1.399 . S
C85 C84 1.399 . S
C85 C86 1.396 . S
C85 C88 1.453 . S
C85 C89 1.684 . S
C86 C67 1.723 . S
C86 C85 1.396 . S
C86 C87 1.394 . S
C87 C83 1.397 . S
C87 C86 1.394 . S
C87 C97 1.723 . S
C88 C85 1.453 . S
C88 H112 0.982 . S
C88 H113 0.979 . S
C88 H114 0.977 . S
C89 C85 1.684 . S
C89 H115 0.979 . S
C89 H116 0.980 . S
C89 H117 0.983 . S
C90 H66 0.948 . S
C90 C91 1.391 . S
C90 C95 1.391 . S
C91 C90 1.391 . S
C91 C92 1.391 . S
C92 H69 0.947 . S
C92 C91 1.391 . S
C92 C93 1.392 . S
C93 H70 0.948 . S
C93 C92 1.392 . S
C93 C94 1.419 . S
C94 C93 1.419 . S
C94 C95 1.391 . S
C94 C98 1.397 . S
C95 C90 1.391 . S
C95 C94 1.391 . S
C95 C96 1.399 . S
C96 C95 1.399 . S
C96 C97 1.396 . S
C96 C99 1.453 . S
C96 C100 1.684 . S
C97 C87 1.723 . S
C97 C96 1.396 . S
C97 C98 1.394 . S
C98 C68 1.723 . S
C98 C94 1.397 . S
C98 C97 1.394 . S
C99 H71 0.982 . S
C99 H75 0.979 . S
C99 H76 0.977 . S
C99 C96 1.453 . S
C100 H72 0.979 . S
C100 H73 0.980 . S
C100 H74 0.983 . S
C100 C96 1.684 . S
H101 C119 0.948 . S
H102 C60 0.948 . S
H103 C78 0.979 . S
H104 C78 0.980 . S
H105 C78 0.983 . S
H106 C77 0.982 . S
H107 C77 0.979 . S
H108 C77 0.977 . S
H109 C79 0.948 . S
H110 C81 0.947 . S
H111 C82 0.948 . S
H112 C88 0.982 . S
H113 C88 0.979 . S
H114 C88 0.977 . S
H115 C89 0.979 . S
H116 C89 0.980 . S
H117 C89 0.983 . S
H118 C62 0.947 . S
C119 C62 1.392 . S
C119 C63 1.419 . S
C119 H101 0.948 . S
C120 C121 1.391 . S
C120 C124 1.391 . S
C120 H162 0.948 . S
C121 C120 1.391 . S
C121 C122 1.391 . S
C122 C121 1.391 . S
C122 H178 0.947 . S
C122 C179 1.392 . S
C123 C124 1.391 . S
C123 C127 1.397 . S
C123 C179 1.419 . S
C124 C120 1.391 . S
C124 C123 1.391 . S
C124 C125 1.399 . S
C125 C124 1.399 . S
C125 C128 1.396 . S
C125 C137 1.453 . S
C125 C138 1.684 . S
H126 C150 0.948 . S
C127 C123 1.397 . S
C127 C128 1.394 . S
C127 C146 1.723 . S
C128 C125 1.396 . S
C128 C127 1.394 . S
C128 C158 1.723 . S
H129 C152 0.947 . S
H130 C153 0.948 . S
H131 C159 0.982 . S
H132 C160 0.979 . S
H133 C160 0.980 . S
H134 C160 0.983 . S
H135 C159 0.979 . S
H136 C159 0.977 . S
C137 C125 1.453 . S
C137 H166 0.982 . S
C137 H167 0.979 . S
C137 H168 0.977 . S
C138 C125 1.684 . S
C138 H163 0.979 . S
C138 H164 0.980 . S
C138 H165 0.983 . S
C139 C140 1.391 . S
C139 C144 1.391 . S
C139 H169 0.948 . S
C140 C139 1.391 . S
C140 C141 1.391 . S
C141 C140 1.391 . S
C141 C142 1.392 . S
C141 H170 0.947 . S
C142 C141 1.392 . S
C142 C143 1.419 . S
C142 H171 0.948 . S
C143 C142 1.419 . S
C143 C144 1.391 . S
C143 C147 1.397 . S
C144 C139 1.391 . S
C144 C143 1.391 . S
C144 C145 1.399 . S
C145 C144 1.399 . S
C145 C146 1.396 . S
C145 C148 1.453 . S
C145 C149 1.684 . S
C146 C127 1.723 . S
C146 C145 1.396 . S
C146 C147 1.394 . S
C147 C143 1.397 . S
C147 C146 1.394 . S
C147 C157 1.723 . S
C148 C145 1.453 . S
C148 H172 0.982 . S
C148 H173 0.979 . S
C148 H174 0.977 . S
C149 C145 1.684 . S
C149 H175 0.979 . S
C149 H176 0.980 . S
C149 H177 0.983 . S
C150 H126 0.948 . S
C150 C151 1.391 . S
C150 C155 1.391 . S
C151 C150 1.391 . S
C151 C152 1.391 . S
C152 H129 0.947 . S
C152 C151 1.391 . S
C152 C153 1.392 . S
C153 H130 0.948 . S
C153 C152 1.392 . S
C153 C154 1.419 . S
C154 C153 1.419 . S
C154 C155 1.391 . S
C154 C158 1.397 . S
C155 C150 1.391 . S
C155 C154 1.391 . S
C155 C156 1.399 . S
C156 C155 1.399 . S
C156 C157 1.396 . S
C156 C159 1.453 . S
C156 C160 1.684 . S
C157 C147 1.723 . S
C157 C156 1.396 . S
C157 C158 1.394 . S
C158 C128 1.723 . S
C158 C154 1.397 . S
C158 C157 1.394 . S
C159 H131 0.982 . S
C159 H135 0.979 . S
C159 H136 0.977 . S
C159 C156 1.453 . S
C160 H132 0.979 . S
C160 H133 0.980 . S
C160 H134 0.983 . S
C160 C156 1.684 . S
H161 C179 0.948 . S
H162 C120 0.948 . S
H163 C138 0.979 . S
H164 C138 0.980 . S
H165 C138 0.983 . S
H166 C137 0.982 . S
H167 C137 0.979 . S
H168 C137 0.977 . S
H169 C139 0.948 . S
H170 C141 0.947 . S
H171 C142 0.948 . S
H172 C148 0.982 . S
H173 C148 0.979 . S
H174 C148 0.977 . S
H175 C149 0.979 . S
H176 C149 0.980 . S
H177 C149 0.983 . S
H178 C122 0.947 . S
C179 C122 1.392 . S
C179 C123 1.419 . S
C179 H161 0.948 . S
C180 C181 1.391 . S
C180 C184 1.391 . S
C180 H222 0.948 . S
C181 C180 1.391 . S
C181 C182 1.391 . S
C182 C181 1.391 . S
C182 H238 0.947 . S
C182 C239 1.392 . S
C183 C184 1.391 . S
C183 C187 1.397 . S
C183 C239 1.419 . S
C184 C180 1.391 . S
C184 C183 1.391 . S
C184 C185 1.399 . S
C185 C184 1.399 . S
C185 C188 1.396 . S
C185 C197 1.453 . S
C185 C198 1.684 . S
H186 C210 0.948 . S
C187 C183 1.397 . S
C187 C188 1.394 . S
C187 C206 1.723 . S
C188 C185 1.396 . S
C188 C187 1.394 . S
C188 C218 1.723 . S
H189 C212 0.947 . S
H190 C213 0.948 . S
H191 C219 0.982 . S
H192 C220 0.979 . S
H193 C220 0.980 . S
H194 C220 0.983 . S
H195 C219 0.979 . S
H196 C219 0.977 . S
C197 C185 1.453 . S
C197 H226 0.982 . S
C197 H227 0.979 . S
C197 H228 0.977 . S
C198 C185 1.684 . S
C198 H223 0.979 . S
C198 H224 0.980 . S
C198 H225 0.983 . S
C199 C200 1.391 . S
C199 C204 1.391 . S
C199 H229 0.948 . S
C200 C199 1.391 . S
C200 C201 1.391 . S
C201 C200 1.391 . S
C201 C202 1.392 . S
C201 H230 0.947 1_554 S
C202 C201 1.392 . S
C202 C203 1.419 . S
C202 H231 0.948 . S
C203 C202 1.419 . S
C203 C204 1.391 . S
C203 C207 1.397 . S
C204 C199 1.391 . S
C204 C203 1.391 . S
C204 C205 1.399 . S
C205 C204 1.399 . S
C205 C206 1.396 . S
C205 C208 1.453 . S
C205 C209 1.684 . S
C206 C187 1.723 . S
C206 C205 1.396 . S
C206 C207 1.394 . S
C207 C203 1.397 . S
C207 C206 1.394 . S
C207 C217 1.723 . S
C208 C205 1.453 . S
C208 H232 0.982 . S
C208 H233 0.979 . S
C208 H234 0.977 . S
C209 C205 1.684 . S
C209 H235 0.979 . S
C209 H236 0.980 . S
C209 H237 0.983 . S
C210 H186 0.948 . S
C210 C211 1.391 . S
C210 C215 1.391 . S
C211 C210 1.391 . S
C211 C212 1.391 . S
C212 H189 0.947 . S
C212 C211 1.391 . S
C212 C213 1.392 . S
C213 H190 0.948 . S
C213 C212 1.392 . S
C213 C214 1.419 . S
C214 C213 1.419 . S
C214 C215 1.391 . S
C214 C218 1.397 . S
C215 C210 1.391 . S
C215 C214 1.391 . S
C215 C216 1.399 . S
C216 C215 1.399 . S
C216 C217 1.396 . S
C216 C219 1.453 . S
C216 C220 1.684 . S
C217 C207 1.723 . S
C217 C216 1.396 . S
C217 C218 1.394 . S
C218 C188 1.723 . S
C218 C214 1.397 . S
C218 C217 1.394 . S
C219 H191 0.982 . S
C219 H195 0.979 . S
C219 H196 0.977 . S
C219 C216 1.453 . S
C220 H192 0.979 . S
C220 H193 0.980 . S
C220 H194 0.983 . S
C220 C216 1.684 . S
H221 C239 0.948 . S
H222 C180 0.948 . S
H223 C198 0.979 . S
H224 C198 0.980 . S
H225 C198 0.983 . S
H226 C197 0.982 . S
H227 C197 0.979 . S
H228 C197 0.977 . S
H229 C199 0.948 . S
H230 C201 0.947 1_556 S
H231 C202 0.948 . S
H232 C208 0.982 . S
H233 C208 0.979 . S
H234 C208 0.977 . S
H235 C209 0.979 . S
H236 C209 0.980 . S
H237 C209 0.983 . S
H238 C182 0.947 . S
C239 C182 1.392 . S
C239 C183 1.419 . S
C239 H221 0.948 . S
C240 C241 1.391 . S
C240 C244 1.391 . S
C240 H282 0.948 . S
C241 C240 1.391 . S
C241 C242 1.391 . S
C242 C241 1.391 . S
C242 H298 0.947 . S
C242 C299 1.392 . S
C243 C244 1.391 . S
C243 C247 1.397 . S
C243 C299 1.419 . S
C244 C240 1.391 . S
C244 C243 1.391 . S
C244 C245 1.399 . S
C245 C244 1.399 . S
C245 C248 1.396 . S
C245 C257 1.453 1_554 S
C245 C258 1.684 1_554 S
H246 C270 0.948 . S
C247 C243 1.397 . S
C247 C248 1.394 . S
C247 C266 1.723 . S
C248 C245 1.396 . S
C248 C247 1.394 . S
C248 C278 1.723 . S
H249 C272 0.947 . S
H250 C273 0.948 . S
H251 C279 0.982 . S
H252 C280 0.979 . S
H253 C280 0.980 1_554 S
H254 C280 0.983 . S
H255 C279 0.979 . S
H256 C279 0.977 1_554 S
C257 C245 1.453 1_556 S
C257 H286 0.977 1_556 S
C257 H287 0.979 . S
C257 H288 0.977 . S
C258 C245 1.684 1_556 S
C258 H283 0.979 . S
C258 H284 0.980 . S
C258 H285 0.983 . S
C259 C260 1.391 . S
C259 C264 1.391 . S
C259 H289 0.948 . S
C260 C259 1.391 . S
C260 C261 1.391 . S
C261 C260 1.391 . S
C261 C262 1.392 . S
C261 H290 0.947 . S
C262 C261 1.392 . S
C262 C263 1.419 . S
C262 H291 0.948 . S
C263 C262 1.419 . S
C263 C264 1.391 . S
C263 C267 1.397 . S
C264 C259 1.391 . S
C264 C263 1.391 . S
C264 C265 1.399 . S
C265 C264 1.399 . S
C265 C266 1.396 . S
C265 C268 1.453 . S
C265 C269 1.684 . S
C266 C247 1.723 . S
C266 C265 1.396 . S
C266 C267 1.394 . S
C267 C263 1.397 . S
C267 C266 1.394 . S
C267 C277 1.723 . S
C268 C265 1.453 . S
C268 H292 0.982 . S
C268 H293 0.979 . S
C268 H294 0.977 . S
C269 C265 1.684 . S
C269 H295 0.979 . S
C269 H296 0.980 . S
C269 H297 0.983 . S
C270 H246 0.948 . S
C270 C271 1.391 . S
C270 C275 1.391 . S
C271 C270 1.391 . S
C271 C272 1.391 . S
C272 H249 0.947 . S
C272 C271 1.391 . S
C272 C273 1.392 . S
C273 H250 0.948 . S
C273 C272 1.392 . S
C273 C274 1.419 . S
C274 C273 1.419 . S
C274 C275 1.391 . S
C274 C278 1.397 1_556 S
C275 C270 1.391 . S
C275 C274 1.391 . S
C275 C276 1.399 . S
C276 C275 1.399 . S
C276 C277 1.396 1_556 S
C276 C279 1.453 . S
C276 C280 1.684 . S
C277 C267 1.723 . S
C277 C276 1.396 1_554 S
C277 C278 1.394 . S
C278 C248 1.723 . S
C278 C274 1.397 1_554 S
C278 C277 1.394 . S
C279 H251 0.982 . S
C279 H255 0.979 . S
C279 H256 0.977 1_556 S
C279 C276 1.453 . S
C280 H252 0.979 . S
C280 H253 0.980 1_556 S
C280 H254 0.983 . S
C280 C276 1.684 . S
H281 C299 0.948 . S
H282 C240 0.948 . S
H283 C258 0.979 . S
H284 C258 0.980 . S
H285 C258 0.983 . S
H286 C257 0.977 1_554 S
H287 C257 0.979 . S
H288 C257 0.977 . S
H289 C259 0.948 . S
H290 C261 0.947 . S
H291 C262 0.948 . S
H292 C268 0.982 . S
H293 C268 0.979 . S
H294 C268 0.977 . S
H295 C269 0.979 . S
H296 C269 0.980 . S
H297 C269 0.983 . S
H298 C242 0.947 . S
C299 C242 1.392 . S
C299 C243 1.419 . S
C299 H281 0.948 . S
C300 C301 1.391 . S
C300 C304 1.391 . S
C300 H342 0.948 . S
C301 C300 1.391 . S
C301 C302 1.391 . S
C302 C301 1.391 . S
C302 H358 0.947 . S
C302 C359 1.392 . S
C303 C304 1.391 . S
C303 C307 1.397 . S
C303 C359 1.419 . S
C304 C300 1.391 . S
C304 C303 1.391 . S
C304 C305 1.399 . S
C305 C304 1.399 . S
C305 C308 1.396 . S
C305 C317 1.453 . S
C305 C318 1.684 . S
H306 C330 0.948 . S
C307 C303 1.397 . S
C307 C308 1.394 . S
C307 C326 1.723 1_554 S
C308 C305 1.396 . S
C308 C307 1.394 . S
C308 C338 1.723 . S
H309 C332 0.947 . S
H310 C333 0.948 . S
H311 C339 0.982 . S
H312 C340 0.979 . S
H313 C340 0.980 . S
H314 C340 0.983 . S
H315 C339 0.979 . S
H316 C339 0.977 . S
C317 C305 1.453 . S
C317 H346 0.982 . S
C317 H347 0.979 . S
C317 H348 0.977 . S
C318 C305 1.684 . S
C318 H343 0.979 . S
C318 H344 0.980 . S
C318 H345 0.983 . S
C319 C320 1.391 . S
C319 C324 1.391 . S
C319 H349 0.948 . S
C320 C319 1.391 . S
C320 C321 1.391 . S
C321 C320 1.391 . S
C321 C322 1.392 . S
C321 H350 0.947 . S
C322 C321 1.392 . S
C322 C323 1.419 . S
C322 H351 0.948 . S
C323 C322 1.419 . S
C323 C324 1.391 . S
C323 C327 1.397 . S
C324 C319 1.391 . S
C324 C323 1.391 . S
C324 C325 1.399 . S
C325 C324 1.399 . S
C325 C326 1.396 . S
C325 C328 1.453 . S
C325 C329 1.684 . S
C326 C307 1.723 1_556 S
C326 C325 1.396 . S
C326 C327 1.394 . S
C327 C323 1.397 . S
C327 C326 1.394 . S
C327 C337 1.723 . S
C328 C325 1.453 . S
C328 H352 0.982 . S
C328 H353 0.979 . S
C328 H354 0.977 1_556 S
C329 C325 1.684 . S
C329 H355 0.979 . S
C329 H356 0.980 . S
C329 H357 0.983 . S
C330 H306 0.948 . S
C330 C331 1.391 . S
C330 C335 1.391 . S
C331 C330 1.391 . S
C331 C332 1.391 . S
C332 H309 0.947 . S
C332 C331 1.391 . S
C332 C333 1.392 . S
C333 H310 0.948 . S
C333 C332 1.392 . S
C333 C334 1.419 . S
C334 C333 1.419 . S
C334 C335 1.391 . S
C334 C338 1.397 . S
C335 C330 1.391 . S
C335 C334 1.391 . S
C335 C336 1.399 1_554 S
C336 C335 1.399 1_556 S
C336 C337 1.396 . S
C336 C339 1.453 . S
C336 C340 1.684 . S
C337 C327 1.723 . S
C337 C336 1.396 . S
C337 C338 1.394 1_556 S
C338 C308 1.723 . S
C338 C334 1.397 . S
C338 C337 1.394 1_554 S
C339 H311 0.982 . S
C339 H315 0.979 . S
C339 H316 0.977 . S
C339 C336 1.453 . S
C340 H312 0.979 . S
C340 H313 0.980 . S
C340 H314 0.983 . S
C340 C336 1.684 . S
H341 C359 0.948 . S
H342 C300 0.948 . S
H343 C318 0.979 . S
H344 C318 0.980 . S
H345 C318 0.983 . S
H346 C317 0.982 . S
H347 C317 0.979 . S
H348 C317 0.977 . S
H349 C319 0.948 . S
H350 C321 0.947 . S
H351 C322 0.948 . S
H352 C328 0.982 . S
H353 C328 0.979 . S
H354 C328 0.977 1_554 S
H355 C329 0.979 . S
H356 C329 0.980 . S
H357 C329 0.983 . S
H358 C302 0.947 . S
C359 C302 1.392 . S
C359 C303 1.419 . S
C359 H341 0.948 . S
C360 C361 1.391 . S
C360 C364 1.391 . S
C360 H402 0.948 . S
C361 C360 1.391 . S
C361 C362 1.391 . S
C362 C361 1.391 . S
C362 H418 0.947 . S
C362 C419 1.392 . S
C363 C364 1.391 . S
C363 C367 1.397 . S
C363 C419 1.419 . S
C364 C360 1.391 . S
C364 C363 1.391 . S
C364 C365 1.399 . S
C365 C364 1.399 . S
C365 C368 1.396 . S
C365 C377 1.453 . S
C365 C378 1.684 . S
H366 C390 0.948 . S
C367 C363 1.397 . S
C367 C368 1.394 . S
C367 C386 1.723 1_556 S
C368 C365 1.396 . S
C368 C367 1.394 . S
C368 C398 1.723 1_556 S
H369 C392 0.947 . S
H370 C393 0.948 . S
H371 C399 0.982 . S
H372 C400 0.979 . S
H373 C400 0.980 . S
H374 C400 0.983 . S
H375 C399 0.979 . S
H376 C399 0.977 . S
C377 C365 1.453 . S
C377 H406 0.982 . S
C377 H407 0.979 . S
C377 H408 0.977 . S
C378 C365 1.684 . S
C378 H403 0.979 . S
C378 H404 0.980 . S
C378 H405 0.983 . S
C379 C380 1.391 . S
C379 C384 1.391 . S
C379 H409 0.948 . S
C380 C379 1.391 . S
C380 C381 1.391 . S
C381 C380 1.391 . S
C381 C382 1.392 . S
C381 H410 0.947 . S
C382 C381 1.392 . S
C382 C383 1.419 . S
C382 H411 0.948 . S
C383 C382 1.419 . S
C383 C384 1.391 . S
C383 C387 1.397 . S
C384 C379 1.391 . S
C384 C383 1.391 . S
C384 C385 1.399 . S
C385 C384 1.399 . S
C385 C386 1.396 . S
C385 C388 1.453 . S
C385 C389 1.684 . S
C386 C367 1.723 1_554 S
C386 C385 1.396 . S
C386 C387 1.394 . S
C387 C383 1.397 . S
C387 C386 1.394 . S
C387 C397 1.723 . S
C388 C385 1.453 . S
C388 H412 0.982 . S
C388 H413 0.979 . S
C388 H414 0.977 1_554 S
C389 C385 1.684 . S
C389 H415 0.979 . S
C389 H416 0.980 1_554 S
C389 H417 0.983 . S
C390 H366 0.948 . S
C390 C391 1.391 . S
C390 C395 1.391 . S
C391 C390 1.391 . S
C391 C392 1.391 1_554 S
C392 H369 0.947 . S
C392 C391 1.391 1_556 S
C392 C393 1.392 . S
C393 H370 0.948 . S
C393 C392 1.392 . S
C393 C394 1.419 1_556 S
C394 C393 1.419 1_554 S
C394 C395 1.391 . S
C394 C398 1.397 . S
C395 C390 1.391 . S
C395 C394 1.391 . S
C395 C396 1.399 . S
C396 C395 1.399 . S
C396 C397 1.396 . S
C396 C399 1.453 . S
C396 C400 1.684 . S
C397 C387 1.723 . S
C397 C396 1.396 . S
C397 C398 1.394 . S
C398 C368 1.723 1_554 S
C398 C394 1.397 . S
C398 C397 1.394 . S
C399 H371 0.982 . S
C399 H375 0.979 . S
C399 H376 0.977 . S
C399 C396 1.453 . S
C400 H372 0.979 . S
C400 H373 0.980 . S
C400 H374 0.983 . S
C400 C396 1.684 . S
H401 C419 0.948 . S
H402 C360 0.948 . S
H403 C378 0.979 . S
H404 C378 0.980 . S
H405 C378 0.983 . S
H406 C377 0.982 . S
H407 C377 0.979 . S
H408 C377 0.977 . S
H409 C379 0.948 . S
H410 C381 0.947 . S
H411 C382 0.948 . S
H412 C388 0.982 . S
H413 C388 0.979 . S
H414 C388 0.977 1_556 S
H415 C389 0.979 . S
H416 C389 0.980 1_556 S
H417 C389 0.983 . S
H418 C362 0.947 . S
C419 C362 1.392 . S
C419 C363 1.419 . S
C419 H401 0.948 . S
C420 C421 1.391 . S
C420 C424 1.391 . S
C420 H462 0.948 . S
C421 C420 1.391 . S
C421 C422 1.391 . S
C422 C421 1.391 . S
C422 H478 0.947 . S
C422 C479 1.392 . S
C423 C424 1.391 . S
C423 C427 1.397 1_556 S
C423 C479 1.419 . S
C424 C420 1.391 . S
C424 C423 1.391 . S
C424 C425 1.399 . S
C425 C424 1.399 . S
C425 C428 1.396 . S
C425 C437 1.453 . S
C425 C438 1.684 . S
H426 C450 0.948 . S
C427 C423 1.397 1_554 S
C427 C428 1.394 1_554 S
C427 C446 1.723 . S
C428 C425 1.396 . S
C428 C427 1.394 1_556 S
C428 C458 1.723 1_556 S
H429 C452 0.947 . S
H430 C453 0.948 1_556 S
H431 C459 0.982 . S
H432 C460 0.979 . S
H433 C460 0.980 . S
H434 C460 0.983 . S
H435 C459 0.979 . S
H436 C459 0.977 . S
C437 C425 1.453 . S
C437 H466 0.982 . S
C437 H467 0.979 . S
C437 H468 0.977 . S
C438 C425 1.684 . S
C438 H463 0.979 . S
C438 H464 0.980 . S
C438 H465 0.983 . S
C439 C440 1.391 . S
C439 C444 1.391 . S
C439 H469 0.948 . S
C440 C439 1.391 . S
C440 C441 1.391 . S
C441 C440 1.391 . S
C441 C442 1.392 . S
C441 H470 0.947 . S
C442 C441 1.392 . S
C442 C443 1.419 . S
C442 H471 0.948 . S
C443 C442 1.419 . S
C443 C444 1.391 . S
C443 C447 1.397 . S
C444 C439 1.391 . S
C444 C443 1.391 . S
C444 C445 1.399 . S
C445 C444 1.399 . S
C445 C446 1.396 . S
C445 C448 1.453 . S
C445 C449 1.684 . S
C446 C427 1.723 . S
C446 C445 1.396 . S
C446 C447 1.394 . S
C447 C443 1.397 . S
C447 C446 1.394 . S
C447 C457 1.723 . S
C448 C445 1.453 . S
C448 H472 0.982 . S
C448 H473 0.979 . S
C448 H474 0.977 . S
C449 C445 1.684 . S
C449 H475 0.979 . S
C449 H476 0.980 . S
C449 H477 0.983 . S
C450 H426 0.948 . S
C450 C451 1.391 . S
C450 C455 1.391 . S
C451 C450 1.391 . S
C451 C452 1.391 . S
C452 H429 0.947 . S
C452 C451 1.391 . S
C452 C453 1.392 . S
C453 H430 0.948 1_554 S
C453 C452 1.392 . S
C453 C454 1.419 . S
C454 C453 1.419 . S
C454 C455 1.391 . S
C454 C458 1.397 . S
C455 C450 1.391 . S
C455 C454 1.391 . S
C455 C456 1.399 . S
C456 C455 1.399 . S
C456 C457 1.396 . S
C456 C459 1.453 . S
C456 C460 1.684 . S
C457 C447 1.723 . S
C457 C456 1.396 . S
C457 C458 1.394 . S
C458 C428 1.723 1_554 S
C458 C454 1.397 . S
C458 C457 1.394 . S
C459 H431 0.982 . S
C459 H435 0.979 . S
C459 H436 0.977 . S
C459 C456 1.453 . S
C460 H432 0.979 . S
C460 H433 0.980 . S
C460 H434 0.983 . S
C460 C456 1.684 . S
H461 C479 0.948 . S
H462 C420 0.948 . S
H463 C438 0.979 . S
H464 C438 0.980 . S
H465 C438 0.983 . S
H466 C437 0.982 . S
H467 C437 0.979 . S
H468 C437 0.977 . S
H469 C439 0.948 . S
H470 C441 0.947 . S
H471 C442 0.948 . S
H472 C448 0.982 . S
H473 C448 0.979 . S
H474 C448 0.977 . S
H475 C449 0.979 . S
H476 C449 0.980 . S
H477 C449 0.983 . S
H478 C422 0.947 . S
C479 C422 1.392 . S
C479 C423 1.419 . S
C479 H461 0.948 . S
Eu480 C489 2.828 . S
Eu480 O491 2.392 . S
Eu480 O493 2.418 1_545 S
Eu480 O498 2.373 1_655 S
Eu480 O501 2.488 . S
Eu480 O502 2.471 . S
Eu480 O503 2.349 1_655 S
Eu481 O490 2.373 1_455 S
Eu481 O494 2.488 . S
Eu481 O495 2.471 . S
Eu481 O496 2.349 . S
Eu481 O499 2.392 1_565 S
Eu481 O500 2.418 1_565 S
Eu481 C510 2.828 . S
C482 O500 1.244 . S
C482 O503 1.265 . S
C483 C484 1.379 1_655 S
C483 C487 1.373 . S
C483 C489 1.505 . S
C484 C483 1.379 1_455 S
C484 C486 1.369 . S
C484 H512 0.930 . S
C485 C487 1.383 . S
C485 C488 1.382 . S
C485 H513 0.930 . S
C486 C484 1.369 . S
C486 C488 1.392 1_455 S
C486 H514 0.930 . S
C487 C483 1.373 . S
C487 C485 1.383 . S
C487 H515 0.931 . S
C488 C485 1.382 . S
C488 C486 1.392 1_655 S
C489 Eu480 2.828 . S
C489 C483 1.505 . S
C489 O501 1.249 . S
C489 O502 1.244 . S
O490 Eu481 2.373 1_655 S
O490 C492 1.258 . S
O491 Eu480 2.392 . S
O491 C492 1.242 1_545 S
C492 O490 1.258 . S
C492 O491 1.242 1_565 S
O493 Eu480 2.418 1_565 S
O493 C497 1.244 . S
O494 Eu481 2.488 . S
O494 C510 1.249 . S
O495 Eu481 2.471 . S
O495 C510 1.244 . S
O496 Eu481 2.349 . S
O496 C497 1.265 1_455 S
C497 O493 1.244 . S
C497 O496 1.265 1_655 S
O498 Eu480 2.373 1_455 S
O498 C511 1.258 . S
O499 Eu481 2.392 1_545 S
O499 C511 1.242 . S
O500 Eu481 2.418 1_545 S
O500 C482 1.244 . S
O501 Eu480 2.488 . S
O501 C489 1.249 . S
O502 Eu480 2.471 . S
O502 C489 1.244 . S
O503 Eu480 2.349 1_455 S
O503 C482 1.265 . S
C504 C505 1.379 . S
C504 C508 1.373 . S
C504 C510 1.505 . S
C505 C504 1.379 . S
C505 C507 1.369 . S
C505 H516 0.930 1_455 S
C506 C508 1.383 . S
C506 C509 1.382 . S
C506 H517 0.930 1_556 S
C507 C505 1.369 . S
C507 C509 1.392 . S
C507 H518 0.930 1_455 S
C508 C504 1.373 . S
C508 C506 1.383 . S
C508 H519 0.931 . S
C509 C506 1.382 . S
C509 C507 1.392 . S
C510 Eu481 2.828 . S
C510 O494 1.249 . S
C510 O495 1.244 . S
C510 C504 1.505 . S
C511 O498 1.258 . S
C511 O499 1.242 . S
H512 C484 0.930 . S
H513 C485 0.930 . S
H514 C486 0.930 . S
H515 C487 0.931 . S
H516 C505 0.930 1_655 S
H517 C506 0.930 1_554 S
H518 C507 0.930 1_655 S
H519 C508 0.931 . S
Eu520 C529 2.828 . S
Eu520 O531 2.392 . S
Eu520 O533 2.418 . S
Eu520 O538 2.373 . S
Eu520 O541 2.488 . S
Eu520 O542 2.471 . S
Eu520 O543 2.349 1_545 S
Eu521 O530 2.373 1_565 S
Eu521 O534 2.488 . S
Eu521 O535 2.471 1_565 S
Eu521 O536 2.349 1_565 S
Eu521 O539 2.392 . S
Eu521 O540 2.418 . S
Eu521 C550 2.828 . S
C522 O540 1.244 . S
C522 O543 1.265 . S
C523 C524 1.410 . S
C523 C527 1.373 . S
C523 C529 1.505 . S
C524 C523 1.410 . S
C524 C526 1.365 1_545 S
C524 H552 0.903 1_545 S
C525 C527 1.383 . S
C525 C528 1.382 . S
C525 H553 0.930 . S
C526 C524 1.365 1_565 S
C526 C528 1.359 1_565 S
C526 H554 0.968 . S
C527 C523 1.373 . S
C527 C525 1.383 . S
C527 H555 0.931 . S
C528 C525 1.382 . S
C528 C526 1.359 1_545 S
C529 Eu520 2.828 . S
C529 C523 1.505 . S
C529 O541 1.249 . S
C529 O542 1.244 . S
O530 Eu521 2.373 1_545 S
O530 C532 1.258 . S
O531 Eu520 2.392 . S
O531 C532 1.242 . S
C532 O530 1.258 . S
C532 O531 1.242 . S
O533 Eu520 2.418 . S
O533 C537 1.244 . S
O534 Eu521 2.488 . S
O534 C550 1.249 . S
O535 Eu521 2.471 1_545 S
O535 C550 1.244 1_545 S
O536 Eu521 2.349 1_545 S
O536 C537 1.265 . S
C537 O533 1.244 . S
C537 O536 1.265 . S
O538 Eu520 2.373 . S
O538 C551 1.258 1_545 S
O539 Eu521 2.392 . S
O539 C551 1.242 . S
O540 Eu521 2.418 . S
O540 C522 1.244 . S
O541 Eu520 2.488 . S
O541 C529 1.249 . S
O542 Eu520 2.471 . S
O542 C529 1.244 . S
O543 Eu520 2.349 1_565 S
O543 C522 1.265 . S
C544 C545 1.379 1_565 S
C544 C548 1.373 . S
C544 C550 1.505 . S
C545 C544 1.379 1_545 S
C545 C547 1.369 . S
C545 H556 0.930 . S
C546 C548 1.383 . S
C546 C549 1.382 . S
C546 H557 0.930 . S
C547 C545 1.369 . S
C547 C549 1.392 1_545 S
C547 H558 0.930 . S
C548 C544 1.373 . S
C548 C546 1.383 . S
C548 H559 0.931 . S
C549 C546 1.382 . S
C549 C547 1.392 1_565 S
C550 Eu521 2.828 . S
C550 O534 1.249 . S
C550 O535 1.244 1_565 S
C550 C544 1.505 . S
C551 O538 1.258 1_565 S
C551 O539 1.242 . S
H552 C524 0.903 1_565 S
H553 C525 0.930 . S
H554 C526 0.968 . S
H555 C527 0.931 . S
H556 C545 0.930 . S
H557 C546 0.930 . S
H558 C547 0.930 . S
H559 C548 0.931 . S
Eu560 C569 2.828 . S
Eu560 O571 2.392 . S
Eu560 O573 2.418 . S
Eu560 O578 2.373 . S
Eu560 O581 2.488 . S
Eu560 O582 2.471 . S
Eu560 O583 2.349 . S
Eu561 O570 2.373 . S
Eu561 O574 2.488 . S
Eu561 O575 2.471 . S
Eu561 O576 2.349 . S
Eu561 O579 2.392 . S
Eu561 O580 2.418 . S
Eu561 C590 2.828 . S
C562 O580 1.244 . S
C562 O583 1.265 . S
C563 C564 1.379 . S
C563 C567 1.373 . S
C563 C569 1.505 . S
C564 C563 1.379 . S
C564 C566 1.369 . S
C564 H592 0.930 . S
C565 C567 1.383 . S
C565 C568 1.382 . S
C565 H593 0.930 . S
C566 C564 1.369 . S
C566 C568 1.392 . S
C566 H594 0.930 . S
C567 C563 1.373 . S
C567 C565 1.383 . S
C567 H595 0.931 . S
C568 C565 1.382 . S
C568 C566 1.392 . S
C569 Eu560 2.828 . S
C569 C563 1.505 . S
C569 O581 1.249 . S
C569 O582 1.244 . S
O570 Eu561 2.373 . S
O570 C572 1.258 . S
O571 Eu560 2.392 . S
O571 C572 1.242 . S
C572 O570 1.258 . S
C572 O571 1.242 . S
O573 Eu560 2.418 . S
O573 C577 1.244 . S
O574 Eu561 2.488 . S
O574 C590 1.249 . S
O575 Eu561 2.471 . S
O575 C590 1.244 . S
O576 Eu561 2.349 . S
O576 C577 1.265 . S
C577 O573 1.244 . S
C577 O576 1.265 . S
O578 Eu560 2.373 . S
O578 C591 1.258 . S
O579 Eu561 2.392 . S
O579 C591 1.242 . S
O580 Eu561 2.418 . S
O580 C562 1.244 . S
O581 Eu560 2.488 . S
O581 C569 1.249 . S
O582 Eu560 2.471 . S
O582 C569 1.244 . S
O583 Eu560 2.349 . S
O583 C562 1.265 . S
C584 C585 1.379 . S
C584 C588 1.373 . S
C584 C590 1.505 . S
C585 C584 1.379 . S
C585 C587 1.369 . S
C585 H596 0.930 . S
C586 C588 1.383 . S
C586 C589 1.382 . S
C586 H597 0.930 . S
C587 C585 1.369 . S
C587 C589 1.392 . S
C587 H598 0.930 . S
C588 C584 1.373 . S
C588 C586 1.383 . S
C588 H599 0.931 . S
C589 C586 1.382 . S
C589 C587 1.392 . S
C590 Eu561 2.828 . S
C590 O574 1.249 . S
C590 O575 1.244 . S
C590 C584 1.505 . S
C591 O578 1.258 . S
C591 O579 1.242 . S
H592 C564 0.930 . S
H593 C565 0.930 . S
H594 C566 0.930 . S
H595 C567 0.931 . S
H596 C585 0.930 . S
H597 C586 0.930 . S
H598 C587 0.930 . S
H599 C588 0.931 . S
Eu600 C609 2.828 . S
Eu600 O611 2.392 . S
Eu600 O613 2.418 1_455 S
Eu600 O618 2.373 . S
Eu600 O621 2.488 . S
Eu600 O622 2.471 . S
Eu600 O623 2.349 . S
Eu601 O610 2.373 . S
Eu601 O614 2.488 . S
Eu601 O615 2.471 . S
Eu601 O616 2.349 . S
Eu601 O619 2.392 1_655 S
Eu601 O620 2.418 1_655 S
Eu601 C630 2.828 . S
C602 O620 1.244 . S
C602 O623 1.265 . S
C603 C604 1.379 . S
C603 C607 1.373 . S
C603 C609 1.505 . S
C604 C603 1.379 . S
C604 C606 1.369 . S
C604 H632 0.930 . S
C605 C607 1.383 . S
C605 C608 1.382 . S
C605 H633 0.930 . S
C606 C604 1.369 . S
C606 C608 1.392 . S
C606 H634 0.930 . S
C607 C603 1.373 . S
C607 C605 1.383 . S
C607 H635 0.931 . S
C608 C605 1.382 . S
C608 C606 1.392 . S
C609 Eu600 2.828 . S
C609 C603 1.505 . S
C609 O621 1.249 . S
C609 O622 1.244 . S
O610 Eu601 2.373 . S
O610 C612 1.258 1_655 S
O611 Eu600 2.392 . S
O611 C612 1.242 . S
C612 O610 1.258 1_455 S
C612 O611 1.242 . S
O613 Eu600 2.418 1_655 S
O613 C617 1.244 . S
O614 Eu601 2.488 . S
O614 C630 1.249 . S
O615 Eu601 2.471 . S
O615 C630 1.244 . S
O616 Eu601 2.349 . S
O616 C617 1.265 . S
C617 O613 1.244 . S
C617 O616 1.265 . S
O618 Eu600 2.373 . S
O618 C631 1.258 . S
O619 Eu601 2.392 1_455 S
O619 C631 1.242 . S
O620 Eu601 2.418 1_455 S
O620 C602 1.244 . S
O621 Eu600 2.488 . S
O621 C609 1.249 . S
O622 Eu600 2.471 . S
O622 C609 1.244 . S
O623 Eu600 2.349 . S
O623 C602 1.265 . S
C624 C625 1.379 . S
C624 C628 1.373 . S
C624 C630 1.505 . S
C625 C624 1.379 . S
C625 C627 1.369 . S
C625 H636 0.930 . S
C626 C628 1.383 . S
C626 C629 1.382 . S
C626 H637 0.930 1_556 S
C627 C625 1.369 . S
C627 C629 1.392 . S
C627 H638 0.930 . S
C628 C624 1.373 . S
C628 C626 1.383 . S
C628 H639 0.931 . S
C629 C626 1.382 . S
C629 C627 1.392 . S
C630 Eu601 2.828 . S
C630 O614 1.249 . S
C630 O615 1.244 . S
C630 C624 1.505 . S
C631 O618 1.258 . S
C631 O619 1.242 . S
H632 C604 0.930 . S
H633 C605 0.930 . S
H634 C606 0.930 . S
H635 C607 0.931 . S
H636 C625 0.930 . S
H637 C626 0.930 1_554 S
H638 C627 0.930 . S
H639 C628 0.931 . S
H640 C646 0.930 . S
H641 C649 0.930 . S
H642 C650 0.930 . S
H643 C651 0.930 . S
H644 C654 0.930 . S
H645 C655 0.930 . S
C646 H640 0.930 . S
C646 C647 1.355 . S
C646 C648 1.415 . S
C647 C646 1.355 . S
C647 C649 1.419 . S
C648 C646 1.415 . S
C648 C653 1.425 . S
C648 C655 1.409 . S
C649 H641 0.930 . S
C649 C647 1.419 . S
C649 C650 1.362 . S
C650 H642 0.930 . S
C650 C649 1.362 . S
C650 C653 1.409 . S
C651 H643 0.930 . S
C651 C652 1.355 . S
C651 C653 1.415 . S
C652 C651 1.355 . S
C652 C654 1.419 . S
C653 C648 1.425 . S
C653 C650 1.409 . S
C653 C651 1.415 . S
C654 H644 0.930 . S
C654 C652 1.419 . S
C654 C655 1.362 . S
C655 H645 0.930 . S
C655 C648 1.409 . S
C655 C654 1.362 . S
H656 C662 0.930 . S
H657 C665 0.930 . S
H658 C666 0.930 . S
H659 C667 0.930 . S
H660 C670 0.930 . S
H661 C671 0.930 . S
C662 H656 0.930 . S
C662 C663 1.355 . S
C662 C664 1.415 . S
C663 C662 1.355 . S
C663 C665 1.419 . S
C664 C662 1.415 . S
C664 C669 1.425 . S
C664 C671 1.409 . S
C665 H657 0.930 . S
C665 C663 1.419 . S
C665 C666 1.362 . S
C666 H658 0.930 . S
C666 C665 1.362 . S
C666 C669 1.409 . S
C667 H659 0.930 . S
C667 C668 1.355 . S
C667 C669 1.415 . S
C668 C667 1.355 . S
C668 C670 1.419 . S
C669 C664 1.425 . S
C669 C666 1.409 . S
C669 C667 1.415 . S
C670 H660 0.930 . S
C670 C668 1.419 . S
C670 C671 1.362 . S
C671 H661 0.930 . S
C671 C664 1.409 . S
C671 C670 1.362 . S
H672 C678 0.930 . S
H673 C681 0.930 . S
H674 C682 0.930 . S
H675 C683 0.930 . S
H676 C686 0.930 . S
H677 C687 0.930 . S
C678 H672 0.930 . S
C678 C679 1.355 . S
C678 C680 1.415 . S
C679 C678 1.355 . S
C679 C681 1.419 . S
C680 C678 1.415 . S
C680 C685 1.425 . S
C680 C687 1.409 . S
C681 H673 0.930 . S
C681 C679 1.419 . S
C681 C682 1.362 . S
C682 H674 0.930 . S
C682 C681 1.362 . S
C682 C685 1.409 . S
C683 H675 0.930 . S
C683 C684 1.355 . S
C683 C685 1.415 . S
C684 C683 1.355 . S
C684 C686 1.419 . S
C685 C680 1.425 . S
C685 C682 1.409 . S
C685 C683 1.415 . S
C686 H676 0.930 . S
C686 C684 1.419 . S
C686 C687 1.362 . S
C687 H677 0.930 . S
C687 C680 1.409 . S
C687 C686 1.362 . S
H688 C694 0.930 . S
H689 C697 0.930 . S
H690 C698 0.930 . S
H691 C699 0.930 . S
H692 C702 0.930 . S
H693 C703 0.930 . S
C694 H688 0.930 . S
C694 C695 1.355 . S
C694 C696 1.415 . S
C695 C694 1.355 . S
C695 C697 1.419 . S
C696 C694 1.415 . S
C696 C701 1.425 . S
C696 C703 1.409 . S
C697 H689 0.930 . S
C697 C695 1.419 . S
C697 C698 1.362 . S
C698 H690 0.930 . S
C698 C697 1.362 . S
C698 C701 1.409 . S
C699 H691 0.930 . S
C699 C700 1.355 . S
C699 C701 1.415 . S
C700 C699 1.355 . S
C700 C702 1.419 . S
C701 C696 1.425 . S
C701 C698 1.409 . S
C701 C699 1.415 . S
C702 H692 0.930 . S
C702 C700 1.419 . S
C702 C703 1.362 . S
C703 H693 0.930 . S
C703 C696 1.409 . S
C703 C702 1.362 . S
H704 C710 0.930 . S
H705 C713 0.930 . S
H706 C714 0.930 1_545 S
H707 C715 0.930 1_545 S
H708 C718 0.930 . S
H709 C719 0.930 . S
C710 H704 0.930 . S
C710 C711 1.355 . S
C710 C712 1.415 . S
C711 C710 1.355 . S
C711 C713 1.419 . S
C712 C710 1.415 . S
C712 C717 1.425 1_554 S
C712 C719 1.409 1_554 S
C713 H705 0.930 . S
C713 C711 1.419 . S
C713 C714 1.362 . S
C714 H706 0.930 1_565 S
C714 C713 1.362 . S
C714 C717 1.409 1_554 S
C715 H707 0.930 1_565 S
C715 C716 1.355 . S
C715 C717 1.415 . S
C716 C715 1.355 . S
C716 C718 1.419 . S
C717 C712 1.425 1_556 S
C717 C714 1.409 1_556 S
C717 C715 1.415 . S
C718 H708 0.930 . S
C718 C716 1.419 . S
C718 C719 1.362 . S
C719 H709 0.930 . S
C719 C712 1.409 1_556 S
C719 C718 1.362 . S
H720 C726 0.930 . S
H721 C729 0.930 . S
H722 C730 0.930 . S
H723 C731 0.930 . S
H724 C734 0.930 . S
H725 C735 0.930 . S
C726 H720 0.930 . S
C726 C727 1.355 . S
C726 C728 1.415 1_554 S
C727 C726 1.355 . S
C727 C729 1.419 . S
C728 C726 1.415 1_556 S
C728 C733 1.425 . S
C728 C735 1.409 . S
C729 H721 0.930 . S
C729 C727 1.419 . S
C729 C730 1.362 . S
C730 H722 0.930 . S
C730 C729 1.362 . S
C730 C733 1.409 1_554 S
C731 H723 0.930 . S
C731 C732 1.355 . S
C731 C733 1.415 . S
C732 C731 1.355 . S
C732 C734 1.419 . S
C733 C728 1.425 . S
C733 C730 1.409 1_556 S
C733 C731 1.415 . S
C734 H724 0.930 . S
C734 C732 1.419 . S
C734 C735 1.362 . S
C735 H725 0.930 . S
C735 C728 1.409 . S
C735 C734 1.362 . S
H736 C742 0.930 . S
H737 C745 0.930 . S
H738 C746 0.930 . S
H739 C747 0.930 . S
H740 C750 0.930 . S
H741 C751 0.930 . S
C742 H736 0.930 . S
C742 C743 1.355 . S
C742 C744 1.415 1_554 S
C743 C742 1.355 . S
C743 C745 1.419 . S
C744 C742 1.415 1_556 S
C744 C749 1.425 . S
C744 C751 1.409 . S
C745 H737 0.930 . S
C745 C743 1.419 . S
C745 C746 1.362 1_554 S
C746 H738 0.930 . S
C746 C745 1.362 1_556 S
C746 C749 1.409 . S
C747 H739 0.930 . S
C747 C748 1.355 . S
C747 C749 1.415 . S
C748 C747 1.355 . S
C748 C750 1.419 . S
C749 C744 1.425 . S
C749 C746 1.409 . S
C749 C747 1.415 . S
C750 H740 0.930 . S
C750 C748 1.419 . S
C750 C751 1.362 . S
C751 H741 0.930 . S
C751 C744 1.409 . S
C751 C750 1.362 . S
H752 C758 0.930 . S
H753 C761 0.928 . S
H754 C762 0.930 . S
H755 C763 0.930 . S
H756 C766 0.930 . S
H757 C767 0.930 . S
C758 H752 0.930 . S
C758 C759 1.355 . S
C758 C760 1.415 1_554 S
C759 C758 1.355 . S
C759 C761 1.423 1_655 S
C760 C758 1.415 1_556 S
C760 C765 1.425 . S
C760 C767 1.409 . S
C761 H753 0.928 . S
C761 C759 1.423 1_455 S
C761 C762 1.360 . S
C762 H754 0.930 . S
C762 C761 1.360 . S
C762 C765 1.409 1_454 S
C763 H755 0.930 . S
C763 C764 1.355 1_455 S
C763 C765 1.415 1_455 S
C764 C763 1.355 1_655 S
C764 C766 1.419 . S
C765 C760 1.425 . S
C765 C762 1.409 1_656 S
C765 C763 1.415 1_655 S
C766 H756 0.930 . S
C766 C764 1.419 . S
C766 C767 1.362 . S
C767 H757 0.930 . S
C767 C760 1.409 . S
C767 C766 1.362 . S
H768 C774 0.930 . S
H769 C777 0.930 . S
H770 C778 0.930 . S
H771 C779 0.930 . S
H772 C782 0.930 . S
H773 C783 0.942 . S
C774 H768 0.930 . S
C774 C775 1.355 . S
C774 C776 1.415 . S
C775 C774 1.355 . S
C775 C777 1.419 . S
C776 C774 1.415 . S
C776 C781 1.425 . S
C776 C783 1.409 . S
C777 H769 0.930 . S
C777 C775 1.419 . S
C777 C778 1.362 . S
C778 H770 0.930 . S
C778 C777 1.362 . S
C778 C781 1.409 . S
C779 H771 0.930 . S
C779 C780 1.355 1_455 S
C779 C781 1.415 . S
C780 C779 1.355 1_655 S
C780 C782 1.419 . S
C781 C776 1.425 . S
C781 C778 1.409 . S
C781 C779 1.415 . S
C782 H772 0.930 . S
C782 C780 1.419 . S
C782 C783 1.362 1_655 S
C783 H773 0.942 . S
C783 C776 1.409 . S
C783 C782 1.362 1_455 S
H784 C790 0.930 . S
H785 C793 0.930 . S
H786 C794 0.930 1_565 S
H787 C795 0.930 . S
H788 C798 0.930 . S
H789 C799 0.930 . S
C790 H784 0.930 . S
C790 C791 1.355 . S
C790 C792 1.415 . S
C791 C790 1.355 . S
C791 C793 1.419 . S
C792 C790 1.415 . S
C792 C797 1.425 . S
C792 C799 1.409 . S
C793 H785 0.930 . S
C793 C791 1.419 . S
C793 C794 1.362 . S
C794 H786 0.930 1_545 S
C794 C793 1.362 . S
C794 C797 1.409 . S
C795 H787 0.930 . S
C795 C796 1.355 . S
C795 C797 1.415 1_565 S
C796 C795 1.355 . S
C796 C798 1.419 1_565 S
C797 C792 1.425 . S
C797 C794 1.409 . S
C797 C795 1.415 1_545 S
C798 H788 0.930 . S
C798 C796 1.419 1_545 S
C798 C799 1.362 . S
C799 H789 0.930 . S
C799 C792 1.409 . S
C799 C798 1.362 . S
H800 C806 0.930 . S
H801 C809 0.930 . S
H802 C810 0.930 . S
H803 C811 0.930 . S
H804 C814 0.930 . S
H805 C815 0.930 . S
C806 H800 0.930 . S
C806 C807 1.355 . S
C806 C808 1.415 . S
C807 C806 1.355 . S
C807 C809 1.419 . S
C808 C806 1.415 . S
C808 C813 1.425 . S
C808 C815 1.409 . S
C809 H801 0.930 . S
C809 C807 1.419 . S
C809 C810 1.362 . S
C810 H802 0.930 . S
C810 C809 1.362 . S
C810 C813 1.409 . S
C811 H803 0.930 . S
C811 C812 1.355 . S
C811 C813 1.415 . S
C812 C811 1.355 . S
C812 C814 1.419 . S
C813 C808 1.425 . S
C813 C810 1.409 . S
C813 C811 1.415 . S
C814 H804 0.930 . S
C814 C812 1.419 . S
C814 C815 1.362 . S
C815 H805 0.930 . S
C815 C808 1.409 . S
C815 C814 1.362 . S
H816 C822 0.930 . S
H817 C825 0.930 . S
H818 C826 0.930 . S
H819 C827 0.930 . S
H820 C830 0.930 . S
H821 C831 0.930 . S
C822 H816 0.930 . S
C822 C823 1.355 . S
C822 C824 1.415 . S
C823 C822 1.355 . S
C823 C825 1.419 . S
C824 C822 1.415 . S
C824 C829 1.425 . S
C824 C831 1.409 . S
C825 H817 0.930 . S
C825 C823 1.419 . S
C825 C826 1.362 . S
C826 H818 0.930 . S
C826 C825 1.362 . S
C826 C829 1.409 . S
C827 H819 0.930 . S
C827 C828 1.355 . S
C827 C829 1.415 . S
C828 C827 1.355 . S
C828 C830 1.419 . S
C829 C824 1.425 . S
C829 C826 1.409 . S
C829 C827 1.415 . S
C830 H820 0.930 . S
C830 C828 1.419 . S
C830 C831 1.362 . S
C831 H821 0.930 . S
C831 C824 1.409 . S
C831 C830 1.362 . S
H832 C838 0.930 1_556 S
H833 C841 0.930 . S
H834 C842 0.930 . S
H835 C843 0.924 1_655 S
H836 C846 0.930 . S
H837 C847 0.930 . S
C838 H832 0.930 1_554 S
C838 C839 1.355 . S
C838 C840 1.415 . S
C839 C838 1.355 . S
C839 C841 1.419 . S
C840 C838 1.415 . S
C840 C845 1.425 . S
C840 C847 1.409 1_654 S
C841 H833 0.930 . S
C841 C839 1.419 . S
C841 C842 1.362 . S
C842 H834 0.930 . S
C842 C841 1.362 . S
C842 C845 1.409 . S
C843 H835 0.924 1_455 S
C843 C844 1.355 . S
C843 C845 1.415 1_455 S
C844 C843 1.355 . S
C844 C846 1.419 1_554 S
C845 C840 1.425 . S
C845 C842 1.409 . S
C845 C843 1.415 1_655 S
C846 H836 0.930 . S
C846 C844 1.419 1_556 S
C846 C847 1.362 . S
C847 H837 0.930 . S
C847 C840 1.409 1_456 S
C847 C846 1.362 . S
H848 C854 0.930 . S
H849 C857 0.930 1_556 S
H850 C858 0.930 . S
H851 C859 0.933 . S
H852 C862 0.932 . S
H853 C863 0.930 . S
C854 H848 0.930 . S
C854 C855 1.355 . S
C854 C856 1.415 . S
C855 C854 1.355 . S
C855 C857 1.419 . S
C856 C854 1.415 . S
C856 C861 1.425 1_554 S
C856 C863 1.409 1_565 S
C857 H849 0.930 1_554 S
C857 C855 1.419 . S
C857 C858 1.362 1_554 S
C858 H850 0.930 . S
C858 C857 1.362 1_556 S
C858 C861 1.409 . S
C859 H851 0.933 . S
C859 C860 1.355 . S
C859 C861 1.415 1_545 S
C860 C859 1.355 . S
C860 C862 1.419 . S
C861 C856 1.425 1_556 S
C861 C858 1.409 . S
C861 C859 1.415 1_565 S
C862 H852 0.932 . S
C862 C860 1.419 . S
C862 C863 1.362 1_556 S
C863 H853 0.930 . S
C863 C856 1.409 1_545 S
C863 C862 1.362 1_554 S
H864 C870 0.930 . S
H865 C873 0.930 . S
H866 C874 0.930 . S
H867 C875 0.930 . S
H868 C878 0.930 . S
H869 C879 0.930 . S
C870 H864 0.930 . S
C870 C871 1.355 . S
C870 C872 1.415 1_554 S
C871 C870 1.355 . S
C871 C873 1.419 . S
C872 C870 1.415 1_556 S
C872 C877 1.425 . S
C872 C879 1.409 . S
C873 H865 0.930 . S
C873 C871 1.419 . S
C873 C874 1.362 1_554 S
C874 H866 0.930 . S
C874 C873 1.362 1_556 S
C874 C877 1.409 . S
C875 H867 0.930 . S
C875 C876 1.355 . S
C875 C877 1.415 . S
C876 C875 1.355 . S
C876 C878 1.419 . S
C877 C872 1.425 . S
C877 C874 1.409 . S
C877 C875 1.415 . S
C878 H868 0.930 . S
C878 C876 1.419 . S
C878 C879 1.362 . S
C879 H869 0.930 . S
C879 C872 1.409 . S
C879 C878 1.362 . S
H880 C886 0.930 . S
H881 C889 0.930 . S
H882 C890 0.930 . S
H883 C891 0.930 . S
H884 C894 0.930 . S
H885 C895 0.930 . S
C886 H880 0.930 . S
C886 C887 1.355 . S
C886 C888 1.415 . S
C887 C886 1.355 . S
C887 C889 1.419 1_554 S
C888 C886 1.415 . S
C888 C893 1.425 1_554 S
C888 C895 1.409 . S
C889 H881 0.930 . S
C889 C887 1.419 1_556 S
C889 C890 1.362 . S
C890 H882 0.930 . S
C890 C889 1.362 . S
C890 C893 1.409 . S
C891 H883 0.930 . S
C891 C892 1.355 . S
C891 C893 1.415 . S
C892 C891 1.355 . S
C892 C894 1.419 1_556 S
C893 C888 1.425 1_556 S
C893 C890 1.409 . S
C893 C891 1.415 . S
C894 H884 0.930 . S
C894 C892 1.419 1_554 S
C894 C895 1.362 . S
C895 H885 0.930 . S
C895 C888 1.409 . S
C895 C894 1.362 . S
H896 C902 0.930 . S
H897 C905 0.930 . S
H898 C906 0.930 . S
H899 C907 0.930 . S
H900 C910 0.930 1_655 S
H901 C911 0.930 1_655 S
C902 H896 0.930 . S
C902 C903 1.355 . S
C902 C904 1.415 . S
C903 C902 1.355 . S
C903 C905 1.419 . S
C904 C902 1.415 . S
C904 C909 1.425 . S
C904 C911 1.409 . S
C905 H897 0.930 . S
C905 C903 1.419 . S
C905 C906 1.362 . S
C906 H898 0.930 . S
C906 C905 1.362 . S
C906 C909 1.409 . S
C907 H899 0.930 . S
C907 C908 1.355 . S
C907 C909 1.415 . S
C908 C907 1.355 . S
C908 C910 1.419 . S
C909 C904 1.425 . S
C909 C906 1.409 . S
C909 C907 1.415 . S
C910 H900 0.930 1_455 S
C910 C908 1.419 . S
C910 C911 1.362 . S
C911 H901 0.930 1_455 S
C911 C904 1.409 . S
C911 C910 1.362 . S
H912 C918 0.930 . S
H913 C921 0.930 . S
H914 C922 0.930 . S
H915 C923 0.930 . S
H916 C926 0.930 1_565 S
H917 C927 0.930 1_565 S
C918 H912 0.930 . S
C918 C919 1.355 . S
C918 C920 1.415 . S
C919 C918 1.355 . S
C919 C921 1.419 . S
C920 C918 1.415 . S
C920 C925 1.425 . S
C920 C927 1.409 . S
C921 H913 0.930 . S
C921 C919 1.419 . S
C921 C922 1.362 . S
C922 H914 0.930 . S
C922 C921 1.362 . S
C922 C925 1.409 . S
C923 H915 0.930 . S
C923 C924 1.355 . S
C923 C925 1.415 . S
C924 C923 1.355 . S
C924 C926 1.419 . S
C925 C920 1.425 . S
C925 C922 1.409 . S
C925 C923 1.415 . S
C926 H916 0.930 1_545 S
C926 C924 1.419 . S
C926 C927 1.362 . S
C927 H917 0.930 1_545 S
C927 C920 1.409 . S
C927 C926 1.362 . S
H928 C934 0.930 . S
H929 C937 0.930 . S
H930 C938 0.930 . S
H931 C939 0.930 . S
H932 C942 0.930 . S
H933 C943 0.930 . S
C934 H928 0.930 . S
C934 C935 1.355 . S
C934 C936 1.415 . S
C935 C934 1.355 . S
C935 C937 1.419 . S
C936 C934 1.415 . S
C936 C941 1.425 . S
C936 C943 1.409 . S
C937 H929 0.930 . S
C937 C935 1.419 . S
C937 C938 1.362 . S
C938 H930 0.930 . S
C938 C937 1.362 . S
C938 C941 1.409 . S
C939 H931 0.930 . S
C939 C940 1.355 . S
C939 C941 1.415 . S
C940 C939 1.355 . S
C940 C942 1.419 . S
C941 C936 1.425 . S
C941 C938 1.409 . S
C941 C939 1.415 . S
C942 H932 0.930 . S
C942 C940 1.419 . S
C942 C943 1.362 . S
C943 H933 0.930 . S
C943 C936 1.409 . S
C943 C942 1.362 . S
H944 C950 0.930 . S
H945 C953 0.930 . S
H946 C954 0.930 . S
H947 C955 0.930 . S
H948 C958 0.930 . S
H949 C959 0.930 . S
C950 H944 0.930 . S
C950 C951 1.355 . S
C950 C952 1.415 . S
C951 C950 1.355 . S
C951 C953 1.419 . S
C952 C950 1.415 . S
C952 C957 1.425 . S
C952 C959 1.409 . S
C953 H945 0.930 . S
C953 C951 1.419 . S
C953 C954 1.362 . S
C954 H946 0.930 . S
C954 C953 1.362 . S
C954 C957 1.409 . S
C955 H947 0.930 . S
C955 C956 1.355 . S
C955 C957 1.415 . S
C956 C955 1.355 . S
C956 C958 1.419 . S
C957 C952 1.425 . S
C957 C954 1.409 . S
C957 C955 1.415 . S
C958 H948 0.930 . S
C958 C956 1.419 . S
C958 C959 1.362 . S
C959 H949 0.930 . S
C959 C952 1.409 . S
C959 C958 1.362 . S
H960 C966 0.930 . S
H961 C969 0.930 . S
H962 C970 0.930 . S
H963 C971 0.930 . S
H964 C974 0.930 1_455 S
H965 C975 0.930 1_455 S
C966 H960 0.930 . S
C966 C967 1.355 . S
C966 C968 1.415 . S
C967 C966 1.355 . S
C967 C969 1.419 . S
C968 C966 1.415 . S
C968 C973 1.425 . S
C968 C975 1.409 . S
C969 H961 0.930 . S
C969 C967 1.419 . S
C969 C970 1.362 . S
C970 H962 0.930 . S
C970 C969 1.362 . S
C970 C973 1.409 . S
C971 H963 0.930 . S
C971 C972 1.355 . S
C971 C973 1.415 . S
C972 C971 1.355 . S
C972 C974 1.419 . S
C973 C968 1.425 . S
C973 C970 1.409 . S
C973 C971 1.415 . S
C974 H964 0.930 1_655 S
C974 C972 1.419 . S
C974 C975 1.362 . S
C975 H965 0.930 1_655 S
C975 C968 1.409 . S
C975 C974 1.362 . S
H976 C982 0.922 1_545 S
H977 C985 0.930 . S
H978 C986 0.930 . S
H979 C987 0.930 . S
H980 C990 0.930 . S
H981 C991 0.930 . S
C982 H976 0.922 1_565 S
C982 C983 1.355 . S
C982 C984 1.415 . S
C983 C982 1.355 . S
C983 C985 1.419 . S
C984 C982 1.415 . S
C984 C989 1.425 . S
C984 C991 1.409 1_565 S
C985 H977 0.930 . S
C985 C983 1.419 . S
C985 C986 1.362 . S
C986 H978 0.930 . S
C986 C985 1.362 . S
C986 C989 1.409 . S
C987 H979 0.930 . S
C987 C988 1.355 . S
C987 C989 1.415 . S
C988 C987 1.355 . S
C988 C990 1.419 1_565 S
C989 C984 1.425 . S
C989 C986 1.409 . S
C989 C987 1.415 . S
C990 H980 0.930 . S
C990 C988 1.419 1_545 S
C990 C991 1.362 . S
C991 H981 0.930 . S
C991 C984 1.409 1_545 S
C991 C990 1.362 . S
H992 C998 0.930 . S
H993 C1001 0.930 . S
H994 C1002 0.930 . S
H995 C1003 0.930 . S
H996 C1006 0.930 . S
H997 C1007 0.930 . S
C998 H992 0.930 . S
C998 C999 1.355 . S
C998 C1000 1.415 . S
C999 C998 1.355 . S
C999 C1001 1.419 . S
C1000 C998 1.415 . S
C1000 C1005 1.425 . S
C1000 C1007 1.409 . S
C1001 H993 0.930 . S
C1001 C999 1.419 . S
C1001 C1002 1.362 . S
C1002 H994 0.930 . S
C1002 C1001 1.362 . S
C1002 C1005 1.409 . S
C1003 H995 0.930 . S
C1003 C1004 1.355 . S
C1003 C1005 1.415 . S
C1004 C1003 1.355 . S
C1004 C1006 1.419 . S
C1005 C1000 1.425 . S
C1005 C1002 1.409 . S
C1005 C1003 1.415 . S
C1006 H996 0.930 . S
C1006 C1004 1.419 . S
C1006 C1007 1.362 . S
C1007 H997 0.930 . S
C1007 C1000 1.409 . S
C1007 C1006 1.362 . S
H1008 C1014 0.930 . S
H1009 C1017 0.930 . S
H1010 C1018 0.930 . S
H1011 C1019 0.930 . S
H1012 C1022 0.930 . S
H1013 C1023 0.930 . S
C1014 H1008 0.930 . S
C1014 C1015 1.355 . S
C1014 C1016 1.415 . S
C1015 C1014 1.355 . S
C1015 C1017 1.419 . S
C1016 C1014 1.415 . S
C1016 C1021 1.425 . S
C1016 C1023 1.409 . S
C1017 H1009 0.930 . S
C1017 C1015 1.419 . S
C1017 C1018 1.362 . S
C1018 H1010 0.930 . S
C1018 C1017 1.362 . S
C1018 C1021 1.409 . S
C1019 H1011 0.930 . S
C1019 C1020 1.355 . S
C1019 C1021 1.415 . S
C1020 C1019 1.355 . S
C1020 C1022 1.419 . S
C1021 C1016 1.425 . S
C1021 C1018 1.409 . S
C1021 C1019 1.415 . S
C1022 H1012 0.930 . S
C1022 C1020 1.419 . S
C1022 C1023 1.362 . S
C1023 H1013 0.930 . S
C1023 C1016 1.409 . S
C1023 C1022 1.362 . S
C647 C391 3.005 . S
C652 C511 3.072 . S
C668 C537 2.565 . S
C663 C451 2.397 . S
C684 C577 2.522 . S
C679 C241 2.034 . S
C700 C631 2.984 . S
C695 C331 2.575 . S
C716 C492 3.045 . S
C711 C121 2.625 . S
C727 C211 2.461 . S
C732 C522 2.569 . S
C743 C31 2.380 . S
C748 C562 2.518 . S
C759 C91 2.618 . S
C764 C612 2.978 1_655 S
C780 C488 0.592 . S
C775 C301 0.695 . S
C796 C549 0.775 . S
C791 C380 0.774 . S
C812 C589 0.393 . S
C807 C440 0.434 . S
C823 C260 0.687 . S
C828 C608 0.502 . S
C839 C61 0.510 . S
C844 C509 0.507 1_554 S
C860 C528 0.779 . S
C855 C140 0.828 . S
C876 C568 0.375 . S
C871 C200 0.374 . S
C887 C20 0.524 . S
C892 C629 0.559 . S
C903 C320 2.806 . S
C908 C482 3.089 . S
C919 C361 2.994 . S
C924 C532 3.606 . S
C940 C572 3.345 . S
C935 C421 2.718 . S
C956 C602 2.814 . S
C951 C271 2.590 . S
C967 C80 2.821 . S
C972 C497 3.086 . S
C988 C551 3.614 . S
C983 C151 3.412 . S
C1004 C591 3.356 . S
C999 C181 2.834 . S
C1015 C1 2.213 . S
C1020 C617 2.815 . S
