# Generated by pormake.
# Topology rtl, (3,6)-cn, num edge types: 1
# Building blocks:
#     Node 0, Type 0, BuildingBlock: BELTOD_clean_linker_0, # of connection points: 3
#     Node 1, Type 0, BuildingBlock: BELTOD_clean_linker_0, # of connection points: 3
#     Node 2, Type 0, BuildingBlock: BELTOD_clean_linker_0, # of connection points: 3
#     Node 3, Type 0, BuildingBlock: BELTOD_clean_linker_0, # of connection points: 3
#     Node 4, Type 1, BuildingBlock: LEVNOQ01_clean_sbu_1, # of connection points: 6
#     Node 5, Type 1, BuildingBlock: LEVNOQ01_clean_sbu_1, # of connection points: 6
#     Edge 6, Type (0, 1), BuildingBlock: KIFKEQ_clean_linker_1, # of connection points: 2
#     Edge 7, Type (0, 1), BuildingBlock: KIFKEQ_clean_linker_1, # of connection points: 2
#     Edge 8, Type (0, 1), BuildingBlock: KIFKEQ_clean_linker_1, # of connection points: 2
#     Edge 9, Type (0, 1), BuildingBlock: KIFKEQ_clean_linker_1, # of connection points: 2
#     Edge 10, Type (0, 1), BuildingBlock: KIFKEQ_clean_linker_1, # of connection points: 2
#     Edge 11, Type (0, 1), BuildingBlock: KIFKEQ_clean_linker_1, # of connection points: 2
#     Edge 12, Type (0, 1), BuildingBlock: KIFKEQ_clean_linker_1, # of connection points: 2
#     Edge 13, Type (0, 1), BuildingBlock: KIFKEQ_clean_linker_1, # of connection points: 2
#     Edge 14, Type (0, 1), BuildingBlock: KIFKEQ_clean_linker_1, # of connection points: 2
#     Edge 15, Type (0, 1), BuildingBlock: KIFKEQ_clean_linker_1, # of connection points: 2
#     Edge 16, Type (0, 1), BuildingBlock: KIFKEQ_clean_linker_1, # of connection points: 2
#     Edge 17, Type (0, 1), BuildingBlock: KIFKEQ_clean_linker_1, # of connection points: 2
# Relax obj value: 0.023
# Max RMSD: 0.060
# Mean RMSD: 0.042
data_MOF--net-rtl--node1-LEVNOQ01_clean_sbu_1--node2-BELTOD_clean_linker_0--edge1-KIFKEQ_clean_linker_1
_symmetry_space_group_name_H-M    P1
_symmetry_Int_Tables_number       1
_symmetry_cell_setting            triclinic
loop_
_symmetry_equiv_pos_as_xyz
'x, y, z'
_cell_length_a     35.752266
_cell_length_b     40.553401
_cell_length_c     28.002207
_cell_angle_alpha  89.106542
_cell_angle_beta   97.585175
_cell_angle_gamma 89.777247
loop_
_atom_site_label
_atom_site_type_symbol
_atom_site_fract_x
_atom_site_fract_y
_atom_site_fract_z
_atom_type_partial_charge
P0 P 0.29003 0.89983 0.08133 0.0
H1 H 0.31416 0.92082 0.17937 0.0
H2 H 0.27978 0.93323 0.247 0.0
H3 H 0.17435 0.91682 0.15589 0.0
H4 H 0.20895 0.9034 0.08924 0.0
H5 H 0.36585 0.87159 0.08499 0.0
H6 H 0.39122 0.8162 0.10326 0.0
H7 H 0.28045 0.78242 0.12632 0.0
H8 H 0.25515 0.83817 0.10781 0.0
H9 H 0.25285 0.95534 0.0281 0.0
H10 H 0.26367 0.85081 0.00692 0.0
O11 O 0.32579 0.92605 0.0803 0.0
H12 H 0.2155 0.9611 0.94875 0.0
H13 H 0.2266 0.85642 0.92729 0.0
C14 C 0.26408 0.9117 0.12918 0.0
C15 C 0.28361 0.92027 0.17395 0.0
C16 C 0.26392 0.9275 0.2125 0.0
C17 C 0.22429 0.92605 0.20693 0.0
C18 C 0.20487 0.91779 0.16165 0.0
C19 C 0.22462 0.91042 0.12327 0.0
C20 C 0.30864 0.85896 0.09512 0.0
C21 C 0.34703 0.85237 0.09427 0.0
C22 C 0.36158 0.82072 0.10514 0.0
C23 C 0.3379 0.79497 0.11666 0.0
C24 C 0.29937 0.80172 0.11751 0.0
C25 C 0.2849 0.83351 0.107 0.0
C26 C 0.26116 0.90274 0.02344 0.0
C27 C 0.24713 0.93361 0.00637 0.0
C28 C 0.22591 0.93687 0.9609 0.0
C29 C 0.21826 0.90923 0.93148 0.0
C30 C 0.23172 0.87814 0.94917 0.0
C31 C 0.2531 0.87493 0.99472 0.0
P32 P 0.77571 0.61586 0.58012 0.0
H33 H 0.79545 0.62017 0.48306 0.0
H34 H 0.7596 0.61283 0.40342 0.0
H35 H 0.65818 0.59792 0.46944 0.0
H36 H 0.69408 0.60631 0.54878 0.0
H37 H 0.85227 0.63964 0.61086 0.0
H38 H 0.87891 0.69469 0.62074 0.0
H39 H 0.768 0.73709 0.57852 0.0
H40 H 0.74208 0.68171 0.56632 0.0
H41 H 0.74112 0.55455 0.60766 0.0
H42 H 0.75419 0.65339 0.66198 0.0
O43 O 0.81101 0.58871 0.5812 0.0
H44 H 0.70744 0.53906 0.67548 0.0
H45 H 0.72134 0.6381 0.72946 0.0
C46 C 0.74761 0.61323 0.52187 0.0
C47 C 0.76541 0.6156 0.48029 0.0
C48 C 0.74488 0.61124 0.43478 0.0
C49 C 0.70601 0.60438 0.4299 0.0
C50 C 0.68797 0.60337 0.4717 0.0
C51 C 0.70859 0.60785 0.51727 0.0
C52 C 0.79532 0.65665 0.58711 0.0
C53 C 0.83375 0.6608 0.60335 0.0
C54 C 0.84887 0.69241 0.60965 0.0
C55 C 0.8257 0.72058 0.60055 0.0
C56 C 0.78693 0.71613 0.58509 0.0
C57 C 0.77197 0.68448 0.57817 0.0
C58 C 0.74989 0.60517 0.62933 0.0
C59 C 0.7367 0.57291 0.63407 0.0
C60 C 0.71773 0.56403 0.673 0.0
C61 C 0.71158 0.58738 0.70781 0.0
C62 C 0.72504 0.61964 0.7029 0.0
C63 C 0.74398 0.62843 0.66412 0.0
P64 P 0.80179 0.19329 0.98454 0.0
H65 H 0.80774 0.20079 0.8823 0.0
H66 H 0.82067 0.16203 0.82045 0.0
H67 H 0.8239 0.08183 0.92398 0.0
H68 H 0.80943 0.12033 0.98536 0.0
H69 H 0.75777 0.22227 0.05419 0.0
H70 H 0.70104 0.2566 0.04462 0.0
H71 H 0.68826 0.24229 0.89091 0.0
H72 H 0.74453 0.20739 0.90062 0.0
H73 H 0.86795 0.20229 0.05649 0.0
H74 H 0.76514 0.14612 0.04408 0.0
O75 O 0.83133 0.2241 0.97686 0.0
H76 H 0.88715 0.17861 0.1362 0.0
H77 H 0.78517 0.12052 0.1231 0.0
C78 C 0.80723 0.1636 0.9385 0.0
C79 C 0.81009 0.17475 0.89146 0.0
C80 C 0.81747 0.15262 0.85609 0.0
C81 C 0.82308 0.119 0.8675 0.0
C82 C 0.81952 0.10767 0.91434 0.0
C83 C 0.81128 0.12976 0.94947 0.0
C84 C 0.7553 0.21161 0.97831 0.0
C85 C 0.74217 0.22551 0.01856 0.0
C86 C 0.70975 0.2453 0.01304 0.0
C87 C 0.69029 0.25218 0.96696 0.0
C88 C 0.70285 0.23755 0.9268 0.0
C89 C 0.73501 0.21738 0.93246 0.0
C90 C 0.81509 0.17597 0.04427 0.0
C91 C 0.84948 0.18471 0.07087 0.0
C92 C 0.86065 0.1708 0.1165 0.0
C93 C 0.838 0.14727 0.13633 0.0
C94 C 0.80323 0.13883 0.10957 0.0
C95 C 0.79181 0.15322 0.06413 0.0
P96 P 0.28057 0.34611 0.48583 0.0
H97 H 0.3076 0.31593 0.57885 0.0
H98 H 0.32331 0.33819 0.65964 0.0
H99 H 0.28509 0.43459 0.60545 0.0
H100 H 0.26883 0.41194 0.52493 0.0
H101 H 0.25515 0.30007 0.41025 0.0
H102 H 0.20347 0.26038 0.39985 0.0
H103 H 0.16393 0.29607 0.52908 0.0
H104 H 0.21513 0.33611 0.53851 0.0
H105 H 0.33983 0.38939 0.46252 0.0
H106 H 0.22268 0.37321 0.40969 0.0
O107 O 0.3174 0.32157 0.48092 0.0
H108 H 0.34519 0.42675 0.39503 0.0
H109 H 0.22741 0.41141 0.3422 0.0
C110 C 0.28777 0.36242 0.54581 0.0
C111 C 0.30234 0.34181 0.5845 0.0
C112 C 0.31146 0.35459 0.63061 0.0
C113 C 0.30593 0.38827 0.63894 0.0
C114 C 0.28957 0.40852 0.60038 0.0
C115 C 0.28049 0.39566 0.5542 0.0
C116 C 0.23922 0.32067 0.47545 0.0
C117 C 0.23498 0.29961 0.43592 0.0
C118 C 0.20554 0.27686 0.43015 0.0
C119 C 0.17974 0.27478 0.46387 0.0
C120 C 0.18306 0.29716 0.50218 0.0
C121 C 0.21255 0.31994 0.50787 0.0
C122 C 0.28114 0.37811 0.44062 0.0
C123 C 0.31501 0.39448 0.43681 0.0
C124 C 0.31788 0.41615 0.39828 0.0
C125 C 0.28676 0.42208 0.36276 0.0
C126 C 0.2521 0.40705 0.3684 0.0
C127 C 0.24932 0.38524 0.40707 0.0
O128 O -0.00101 0.02115 0.64254 0.0
Mg129 Mg 0.03962 0.02813 0.59379 0.0
O130 O 0.95678 0.01492 0.5794 0.0
Mg131 Mg 0.00127 -0.00253 0.5317 0.0
O132 O 0.02927 0.05153 0.52836 0.0
O133 O 0.0531 0.07609 0.59713 0.0
O134 O 0.04723 0.98085 0.48353 0.0
O135 O 0.96261 0.02165 0.4653 0.0
Mg136 Mg 0.97062 0.94704 0.45871 0.0
O137 O 0.96925 0.94697 0.53151 0.0
O138 O 0.02449 0.93867 0.43996 0.0
O139 O 0.93554 0.9824 0.41931 0.0
O140 O 0.94487 0.90697 0.48226 0.0
C141 C 0.07429 0.97318 0.61418 0.0
C142 C 0.96481 0.01928 0.62439 0.0
C143 C 0.04351 0.07735 0.55117 0.0
C144 C 0.05131 0.95796 0.45378 0.0
C145 C 0.93988 0.01265 0.42877 0.0
C146 C 0.95169 0.91898 0.52489 0.0
O147 O 0.08919 -6e-05 0.60393 0.0
O148 O 0.03941 0.96897 0.59858 0.0
O149 O 0.54301 0.48071 0.14657 0.0
Mg150 Mg 0.50372 0.45511 0.09907 0.0
O151 O 0.53046 0.52609 0.10293 0.0
Mg152 Mg 0.488 0.51115 0.03417 0.0
O153 O 0.51152 0.45671 0.02795 0.0
O154 O 0.52323 0.41238 0.07737 0.0
O155 O 0.44608 0.49586 0.96588 0.0
O156 O 0.53705 0.52423 0.98752 0.0
Mg157 Mg 0.46715 0.56795 0.96656 0.0
O158 O 0.46469 0.56519 0.03919 0.0
O159 O 0.4273 0.54017 0.92261 0.0
O160 O 0.52167 0.57114 0.94844 0.0
O161 O 0.44798 0.60985 0.99238 0.0
C162 C 0.42733 0.47484 0.10432 0.0
C163 C 0.54806 0.51118 0.13986 0.0
C164 C 0.52291 0.42621 0.03553 0.0
C165 C 0.42592 0.50936 0.92966 0.0
C166 C 0.54498 0.54798 0.96006 0.0
C167 C 0.45207 0.59542 0.03415 0.0
O168 O 0.44882 0.4503 0.1143 0.0
O169 O 0.43786 0.49911 0.07979 0.0
H170 H 0.19008 0.21015 0.44218 0.0
H171 H 0.106 0.27779 0.48135 0.0
H172 H 0.14786 0.1642 0.45063 0.0
H173 H 0.06363 0.23159 0.48989 0.0
H174 H 0.04293 0.13919 0.58543 0.0
H175 H 0.06825 0.18856 0.55206 0.0
H176 H 0.08799 0.13482 0.4256 0.0
H177 H 0.06247 0.08483 0.45965 0.0
C178 C 0.16216 0.21537 0.45125 0.0
C179 C 0.15163 0.24767 0.46169 0.0
C180 C 0.13786 0.18894 0.45597 0.0
C181 C 0.10247 0.19416 0.47132 0.0
C182 C 0.09095 0.2267 0.4787 0.0
C183 C 0.11527 0.25315 0.47399 0.0
C184 C 0.05186 0.13806 0.54998 0.0
C185 C 0.05117 0.10811 0.52537 0.0
C186 C 0.06613 0.16648 0.53062 0.0
C187 C 0.08044 0.16563 0.48629 0.0
C188 C 0.07749 0.13615 0.46008 0.0
C189 C 0.06266 0.10763 0.47933 0.0
H190 H 0.40395 0.77515 0.17058 0.0
H191 H 0.30659 0.73784 0.0803 0.0
H192 H 0.4335 0.72064 0.17287 0.0
H193 H 0.33614 0.68373 0.08173 0.0
H194 H 0.39057 0.58847 0.08101 0.0
H195 H 0.36162 0.63368 0.12051 0.0
H196 H 0.46104 0.6927 0.11181 0.0
H197 H 0.48959 0.6475 0.07355 0.0
C198 C 0.38868 0.75518 0.15173 0.0
C199 C 0.35319 0.7609 0.12465 0.0
C200 C 0.40555 0.72393 0.15312 0.0
C201 C 0.38745 0.69777 0.1271 0.0
C202 C 0.3508 0.70304 0.10281 0.0
C203 C 0.33385 0.73421 0.10172 0.0
C204 C 0.40685 0.6105 0.09016 0.0
C205 C 0.44228 0.61464 0.07467 0.0
C206 C 0.39012 0.63659 0.11202 0.0
C207 C 0.4086 0.66716 0.11838 0.0
C208 C 0.44592 0.66961 0.10787 0.0
C209 C 0.46247 0.64364 0.08601 0.0
H210 H 0.80568 0.77512 0.54376 0.0
H211 H 0.88371 0.74275 0.66699 0.0
H212 H 0.83608 0.82845 0.54572 0.0
H213 H 0.91507 0.79624 0.66769 0.0
H214 H 0.98692 0.86789 0.57494 0.0
H215 H 0.95413 0.82227 0.60887 0.0
H216 H 0.85127 0.87993 0.59168 0.0
H217 H 0.88437 0.92543 0.55748 0.0
C218 C 0.82873 0.77952 0.57205 0.0
C219 C 0.84226 0.75432 0.60499 0.0
C220 C 0.84621 0.81027 0.5732 0.0
C221 C 0.87793 0.81666 0.60701 0.0
C222 C 0.89077 0.79199 0.6411 0.0
C223 C 0.87296 0.76125 0.64033 0.0
C224 C 0.9579 0.87144 0.58117 0.0
C225 C 0.93817 0.90013 0.56419 0.0
C226 C 0.93898 0.84524 0.60029 0.0
C227 C 0.89991 0.84728 0.60202 0.0
C228 C 0.88127 0.87751 0.59015 0.0
C229 C 0.90029 0.90374 0.57127 0.0
H230 H 0.67949 0.30433 0.9034 0.0
H231 H 0.63046 0.25505 0.01776 0.0
H232 H 0.6319 0.34823 0.90087 0.0
H233 H 0.58337 0.29874 0.01564 0.0
H234 H 0.49334 0.36943 0.00023 0.0
H235 H 0.5288 0.32564 0.9674 0.0
H236 H 0.6214 0.39271 0.95933 0.0
H237 H 0.5852 0.43675 0.99119 0.0
C238 C 0.65804 0.30254 0.92724 0.0
C239 C 0.65871 0.27637 0.96096 0.0
C240 C 0.63099 0.32774 0.92596 0.0
C241 C 0.6038 0.32695 0.95788 0.0
C242 C 0.60352 0.2999 0.98998 0.0
C243 C 0.63072 0.275 0.99161 0.0
C244 C 0.52047 0.37519 0.98899 0.0
C245 C 0.53665 0.4063 -0.00192 0.0
C246 C 0.54097 0.35005 0.9708 0.0
C247 C 0.57827 0.35548 0.96206 0.0
C248 C 0.59272 0.38775 0.96572 0.0
C249 C 0.57196 0.41306 0.98367 0.0
H250 H 0.23741 0.97246 0.27791 0.0
H251 H 0.16372 0.89182 0.23056 0.0
H252 H 0.20268 0.98044 0.34663 0.0
H253 H 0.12825 0.90074 0.29719 0.0
H254 H 0.08598 0.90119 0.43573 0.0
H255 H 0.13376 0.89382 0.38244 0.0
H256 H 0.14108 -0.00041 0.36484 0.0
H257 H 0.09413 0.00682 0.42029 0.0
C258 C 0.21389 0.95642 0.28218 0.0
C259 C 0.20327 0.93156 0.24859 0.0
C260 C 0.19383 0.96118 0.32132 0.0
C261 C 0.16289 0.94105 0.32776 0.0
C262 C 0.1524 0.91629 0.29406 0.0
C263 C 0.17238 0.91151 0.25522 0.0
C264 C 0.09862 0.92285 0.42152 0.0
C265 C 0.08624 0.95453 0.43164 0.0
C266 C 0.1257 0.91867 0.3906 0.0
C267 C 0.14041 0.94608 0.36819 0.0
C268 C 0.13028 0.97795 0.38142 0.0
C269 C 0.10347 0.98214 0.41321 0.0
H270 H 0.71762 0.53092 0.76439 0.0
H271 H 0.65787 0.62388 0.74355 0.0
H272 H 0.68417 0.51806 0.83336 0.0
H273 H 0.62475 0.61117 0.81169 0.0
H274 H 0.59168 0.59941 0.95461 0.0
H275 H 0.63743 0.60643 0.8982 0.0
H276 H 0.62019 0.50543 0.85384 0.0
H277 H 0.57518 0.49819 0.91218 0.0
C278 C 0.69725 0.5485 0.77435 0.0
C279 C 0.69072 0.57861 0.7488 0.0
C280 C 0.67819 0.54117 0.8139 0.0
C281 C 0.65232 0.56384 0.82867 0.0
C282 C 0.64535 0.59356 0.80235 0.0
C283 C 0.66428 0.60084 0.76308 0.0
C284 C 0.59872 0.57839 0.93402 0.0
C285 C 0.57993 0.54833 0.9375 0.0
C286 C 0.62454 0.58249 0.90125 0.0
C287 C 0.63158 0.55681 0.87042 0.0
C288 C 0.61531 0.52574 0.87695 0.0
C289 C 0.5897 0.5215 0.91047 0.0
H290 H 0.91049 0.13017 0.17397 0.0
H291 H 0.79571 0.12709 0.20698 0.0
H292 H 0.93216 0.10286 0.25054 0.0
H293 H 0.81761 0.09833 0.28291 0.0
H294 H 0.87405 0.00501 0.3693 0.0
H295 H 0.84743 0.04129 0.30305 0.0
H296 H 0.93622 0.11152 0.34208 0.0
H297 H 0.96276 0.07526 0.40908 0.0
C298 C 0.88984 0.1242 0.19771 0.0
C299 C 0.85122 0.13106 0.18395 0.0
C300 C 0.90237 0.10844 0.24168 0.0
C301 C 0.87662 0.09862 0.27281 0.0
C302 C 0.83808 0.10553 0.25948 0.0
C303 C 0.82554 0.12178 0.21574 0.0
C304 C 0.88748 0.0285 0.36437 0.0
C305 C 0.9206 0.03723 0.39424 0.0
C306 C 0.87213 0.04932 0.32654 0.0
C307 C 0.8899 0.07911 0.3172 0.0
C308 C 0.92211 0.08856 0.3483 0.0
C309 C 0.93713 0.06795 0.38681 0.0
H310 H 0.27036 0.43415 0.68855 0.0
H311 H 0.37181 0.37496 0.69756 0.0
H312 H 0.29474 0.46058 0.76397 0.0
H313 H 0.39628 0.40146 0.77252 0.0
H314 H 0.42388 0.44173 0.9224 0.0
H315 H 0.39057 0.40966 0.85682 0.0
H316 H 0.34351 0.49957 0.78849 0.0
H317 H 0.37575 0.53127 0.85399 0.0
C318 C 0.29781 0.42673 0.70667 0.0
C319 C 0.31918 0.40255 0.68685 0.0
C320 C 0.3118 0.44185 0.74993 0.0
C321 C 0.34759 0.43328 0.7743 0.0
C322 C 0.36839 0.40834 0.75524 0.0
C323 C 0.35435 0.39316 0.7121 0.0
C324 C 0.40589 0.45456 0.89373 0.0
C325 C 0.40272 0.48912 0.89334 0.0
C326 C 0.38703 0.43619 0.85599 0.0
C327 C 0.36449 0.45201 0.81717 0.0
C328 C 0.3602 0.48644 0.81797 0.0
C329 C 0.379 0.50473 0.85548 0.0
H330 H 0.63361 0.62223 0.39171 0.0
H331 H 0.73076 0.56734 0.35942 0.0
H332 H 0.59767 0.60344 0.31668 0.0
H333 H 0.69539 0.54966 0.28413 0.0
H334 H 0.60395 0.4842 0.20338 0.0
H335 H 0.6434 0.51067 0.2686 0.0
H336 H 0.59134 0.60464 0.22551 0.0
H337 H 0.55114 0.57776 0.15941 0.0
C338 C 0.64744 0.60648 0.36845 0.0
C339 C 0.68503 0.5961 0.38194 0.0
C340 C 0.62697 0.59606 0.32516 0.0
C341 C 0.64359 0.57487 0.29457 0.0
C342 C 0.68161 0.56568 0.30712 0.0
C343 C 0.70203 0.57611 0.35018 0.0
C344 C 0.60101 0.51058 0.20735 0.0
C345 C 0.57424 0.52884 0.17625 0.0
C346 C 0.6239 0.52582 0.24465 0.0
C347 C 0.62063 0.55979 0.25228 0.0
C348 C 0.59438 0.57837 0.22067 0.0
C349 C 0.57158 0.56306 0.18268 0.0
H350 H 0.79112 0.10755 0.77502 0.0
H351 H 0.88634 0.08137 0.87992 0.0
H352 H 0.81799 0.0758 0.71418 0.0
H353 H 0.91465 0.05168 0.81927 0.0
H354 H 0.96001 0.99188 0.71208 0.0
H355 H 0.91829 0.00839 0.7696 0.0
H356 H 0.86452 0.07945 0.66521 0.0
H357 H 0.90431 0.06057 0.60677 0.0
C358 C 0.81773 0.09475 0.78498 0.0
C359 C 0.83668 0.09675 0.83203 0.0
C360 C 0.83338 0.07679 0.75009 0.0
C361 C 0.86883 0.06117 0.76125 0.0
C362 C 0.887 0.06253 0.80904 0.0
C363 C 0.87093 0.07979 0.84402 0.0
C364 C 0.93846 0.01038 0.70127 0.0
C365 C 0.93532 0.02511 0.65531 0.0
C366 C 0.91482 0.02023 0.73438 0.0
C367 C 0.88848 0.04603 0.72292 0.0
C368 C 0.88404 0.05936 0.67564 0.0
C369 C 0.90695 0.04868 0.64199 0.0
H370 H 0.33003 0.47708 0.35279 0.0
H371 H 0.25603 0.40877 0.27012 0.0
H372 H 0.35188 0.49722 0.27914 0.0
H373 H 0.27609 0.4304 0.19626 0.0
H374 H 0.38153 0.4234 0.11429 0.0
H375 H 0.33491 0.41884 0.16921 0.0
H376 H 0.34653 0.52278 0.19969 0.0
H377 H 0.39421 0.52706 0.14431 0.0
C378 C 0.31765 0.46695 0.31881 0.0
C379 C 0.29212 0.44056 0.3177 0.0
C380 C 0.32977 0.47891 0.27635 0.0
C381 C 0.31638 0.46493 0.23172 0.0
C382 C 0.28765 0.4412 0.23013 0.0
C383 C 0.27582 0.42901 0.27262 0.0
C384 C 0.37321 0.44553 0.13147 0.0
C385 C 0.39172 0.47546 0.12555 0.0
C386 C 0.3462 0.44301 0.16288 0.0
C387 C 0.33717 0.47037 0.18951 0.0
C388 C 0.35322 0.50114 0.18022 0.0
C389 C 0.38021 0.50371 0.14819 0.0
H390 H 0.22733 0.95751 0.86525 0.0
H391 H 0.16234 0.87006 0.88555 0.0
H392 H 0.19268 0.9657 0.78536 0.0
H393 H 0.12806 0.87778 0.80431 0.0
H394 H 0.04562 0.937 0.68445 0.0
H395 H 0.08136 0.91632 0.75972 0.0
H396 H 0.18548 0.94204 0.70606 0.0
H397 H 0.14983 0.96337 0.63186 0.0
C398 C 0.20562 0.93997 0.85261 0.0
C399 C 0.19748 0.91325 0.88198 0.0
C400 C 0.18606 0.94439 0.80642 0.0
C401 C 0.15777 0.9222 0.78811 0.0
C402 C 0.14962 0.89534 0.81734 0.0
C403 C 0.16943 0.8908 0.8637 0.0
C404 C 0.07617 0.93719 0.68822 0.0
C405 C 0.09496 0.95209 0.65255 0.0
C406 C 0.09668 0.92547 0.73141 0.0
C407 C 0.13627 0.92831 0.7394 0.0
C408 C 0.15499 0.94034 0.70166 0.0
C409 C 0.13459 0.95225 0.65892 0.0
loop_
_geom_bond_atom_site_label_1
_geom_bond_atom_site_label_2
_geom_bond_distance
_geom_bond_site_symmetry_2
_ccdc_geom_bond_type
P0 O11 1.490 . S
P0 C14 1.812 . S
P0 C20 1.803 . S
P0 C26 1.819 . S
H1 C15 0.941 . S
H2 C16 0.939 . S
H3 C18 0.940 . S
H4 C19 0.940 . S
H5 C21 0.939 . S
H6 C22 0.942 . S
H7 C24 0.940 . S
H8 C25 0.939 . S
H9 C27 0.941 . S
H10 C31 0.939 . S
O11 P0 1.490 . S
H12 C28 0.939 . S
H13 C30 0.940 . S
C14 P0 1.812 . S
C14 C15 1.389 . S
C14 C19 1.391 . S
C15 H1 0.941 . S
C15 C14 1.389 . S
C15 C16 1.397 . S
C16 H2 0.939 . S
C16 C15 1.397 . S
C16 C17 1.378 . S
C17 C16 1.378 . S
C17 C18 1.378 . S
C18 H3 0.940 . S
C18 C17 1.378 . S
C18 C19 1.396 . S
C19 H4 0.940 . S
C19 C14 1.391 . S
C19 C18 1.396 . S
C20 P0 1.803 . S
C20 C21 1.378 . S
C20 C25 1.400 . S
C21 H5 0.939 . S
C21 C20 1.378 . S
C21 C22 1.361 . S
C22 H6 0.942 . S
C22 C21 1.361 . S
C22 C23 1.369 . S
C23 C22 1.369 . S
C23 C24 1.404 . S
C24 H7 0.940 . S
C24 C23 1.404 . S
C24 C25 1.389 . S
C25 H8 0.939 . S
C25 C20 1.400 . S
C25 C24 1.389 . S
C26 P0 1.819 . S
C26 C27 1.391 . S
C26 C31 1.391 . S
C27 H9 0.941 . S
C27 C26 1.391 . S
C27 C28 1.396 1_554 S
C28 H12 0.939 . S
C28 C27 1.396 1_556 S
C28 C29 1.397 . S
C29 C28 1.397 . S
C29 C30 1.385 . S
C30 H13 0.940 . S
C30 C29 1.385 . S
C30 C31 1.388 1_556 S
C31 H10 0.939 . S
C31 C26 1.391 . S
C31 C30 1.388 1_554 S
P32 O43 1.490 . S
P32 C46 1.812 . S
P32 C52 1.803 . S
P32 C58 1.819 . S
H33 C47 0.941 . S
H34 C48 0.939 . S
H35 C50 0.940 . S
H36 C51 0.940 . S
H37 C53 0.939 . S
H38 C54 0.942 . S
H39 C56 0.940 . S
H40 C57 0.939 . S
H41 C59 0.941 . S
H42 C63 0.939 . S
O43 P32 1.490 . S
H44 C60 0.939 . S
H45 C62 0.940 . S
C46 P32 1.812 . S
C46 C47 1.389 . S
C46 C51 1.391 . S
C47 H33 0.941 . S
C47 C46 1.389 . S
C47 C48 1.397 . S
C48 H34 0.939 . S
C48 C47 1.397 . S
C48 C49 1.378 . S
C49 C48 1.378 . S
C49 C50 1.378 . S
C50 H35 0.940 . S
C50 C49 1.378 . S
C50 C51 1.396 . S
C51 H36 0.940 . S
C51 C46 1.391 . S
C51 C50 1.396 . S
C52 P32 1.803 . S
C52 C53 1.378 . S
C52 C57 1.400 . S
C53 H37 0.939 . S
C53 C52 1.378 . S
C53 C54 1.361 . S
C54 H38 0.942 . S
C54 C53 1.361 . S
C54 C55 1.369 . S
C55 C54 1.369 . S
C55 C56 1.404 . S
C56 H39 0.940 . S
C56 C55 1.404 . S
C56 C57 1.389 . S
C57 H40 0.939 . S
C57 C52 1.400 . S
C57 C56 1.389 . S
C58 P32 1.819 . S
C58 C59 1.391 . S
C58 C63 1.391 . S
C59 H41 0.941 . S
C59 C58 1.391 . S
C59 C60 1.396 . S
C60 H44 0.939 . S
C60 C59 1.396 . S
C60 C61 1.397 . S
C61 C60 1.397 . S
C61 C62 1.385 . S
C62 H45 0.940 . S
C62 C61 1.385 . S
C62 C63 1.388 . S
C63 H42 0.939 . S
C63 C58 1.391 . S
C63 C62 1.388 . S
P64 O75 1.490 . S
P64 C78 1.812 1_554 S
P64 C84 1.803 1_554 S
P64 C90 1.819 . S
H65 C79 0.941 . S
H66 C80 0.939 . S
H67 C82 0.940 . S
H68 C83 0.940 . S
H69 C85 0.939 . S
H70 C86 0.942 . S
H71 C88 0.940 . S
H72 C89 0.939 . S
H73 C91 0.941 . S
H74 C95 0.939 . S
O75 P64 1.490 . S
H76 C92 0.939 . S
H77 C94 0.940 . S
C78 P64 1.812 1_556 S
C78 C79 1.389 . S
C78 C83 1.391 . S
C79 H65 0.941 . S
C79 C78 1.389 . S
C79 C80 1.397 . S
C80 H66 0.939 . S
C80 C79 1.397 . S
C80 C81 1.378 . S
C81 C80 1.378 . S
C81 C82 1.378 . S
C82 H67 0.940 . S
C82 C81 1.378 . S
C82 C83 1.396 . S
C83 H68 0.940 . S
C83 C78 1.391 . S
C83 C82 1.396 . S
C84 P64 1.803 1_556 S
C84 C85 1.378 1_556 S
C84 C89 1.400 . S
C85 H69 0.939 . S
C85 C84 1.378 1_554 S
C85 C86 1.361 . S
C86 H70 0.942 . S
C86 C85 1.361 . S
C86 C87 1.369 1_554 S
C87 C86 1.369 1_556 S
C87 C88 1.404 . S
C88 H71 0.940 . S
C88 C87 1.404 . S
C88 C89 1.389 . S
C89 H72 0.939 . S
C89 C84 1.400 . S
C89 C88 1.389 . S
C90 P64 1.819 . S
C90 C91 1.391 . S
C90 C95 1.391 . S
C91 H73 0.941 . S
C91 C90 1.391 . S
C91 C92 1.396 . S
C92 H76 0.939 . S
C92 C91 1.396 . S
C92 C93 1.397 . S
C93 C92 1.397 . S
C93 C94 1.385 . S
C94 H77 0.940 . S
C94 C93 1.385 . S
C94 C95 1.388 . S
C95 H74 0.939 . S
C95 C90 1.391 . S
C95 C94 1.388 . S
P96 O107 1.490 . S
P96 C110 1.812 . S
P96 C116 1.803 . S
P96 C122 1.819 . S
H97 C111 0.941 . S
H98 C112 0.939 . S
H99 C114 0.940 . S
H100 C115 0.940 . S
H101 C117 0.939 . S
H102 C118 0.942 . S
H103 C120 0.940 . S
H104 C121 0.939 . S
H105 C123 0.941 . S
H106 C127 0.939 . S
O107 P96 1.490 . S
H108 C124 0.939 . S
H109 C126 0.940 . S
C110 P96 1.812 . S
C110 C111 1.389 . S
C110 C115 1.391 . S
C111 H97 0.941 . S
C111 C110 1.389 . S
C111 C112 1.397 . S
C112 H98 0.939 . S
C112 C111 1.397 . S
C112 C113 1.378 . S
C113 C112 1.378 . S
C113 C114 1.378 . S
C114 H99 0.940 . S
C114 C113 1.378 . S
C114 C115 1.396 . S
C115 H100 0.940 . S
C115 C110 1.391 . S
C115 C114 1.396 . S
C116 P96 1.803 . S
C116 C117 1.378 . S
C116 C121 1.400 . S
C117 H101 0.939 . S
C117 C116 1.378 . S
C117 C118 1.361 . S
C118 H102 0.942 . S
C118 C117 1.361 . S
C118 C119 1.369 . S
C119 C118 1.369 . S
C119 C120 1.404 . S
C120 H103 0.940 . S
C120 C119 1.404 . S
C120 C121 1.389 . S
C121 H104 0.939 . S
C121 C116 1.400 . S
C121 C120 1.389 . S
C122 P96 1.819 . S
C122 C123 1.391 . S
C122 C127 1.391 . S
C123 H105 0.941 . S
C123 C122 1.391 . S
C123 C124 1.396 . S
C124 H108 0.939 . S
C124 C123 1.396 . S
C124 C125 1.397 . S
C125 C124 1.397 . S
C125 C126 1.385 . S
C126 H109 0.940 . S
C126 C125 1.385 . S
C126 C127 1.388 . S
C127 H106 0.939 . S
C127 C122 1.391 . S
C127 C126 1.388 . S
O128 Mg129 1.990 1_655 S
O128 C142 1.253 . S
Mg129 O128 1.990 1_455 S
Mg129 O132 2.180 . S
Mg129 O133 2.117 . S
Mg129 O147 2.030 . S
O130 Mg131 2.072 1_655 S
O130 C142 1.260 . S
Mg131 O130 2.072 1_455 S
Mg131 O132 2.099 . S
Mg131 O134 2.079 1_545 S
Mg131 O135 2.072 1_455 S
Mg131 O137 2.099 1_445 S
Mg131 O148 2.079 1_545 S
O132 Mg129 2.180 . S
O132 Mg131 2.099 . S
O132 C143 1.279 . S
O133 Mg129 2.117 . S
O133 C143 1.250 . S
O134 Mg131 2.079 1_565 S
O134 C144 1.264 . S
O135 Mg131 2.072 1_655 S
O135 C145 1.260 . S
Mg136 O137 2.180 . S
Mg136 O138 2.030 1_655 S
Mg136 O139 1.990 1_565 S
Mg136 O140 2.117 . S
O137 Mg131 2.099 1_665 S
O137 Mg136 2.180 . S
O137 C146 1.279 . S
O138 Mg136 2.030 1_455 S
O138 C144 1.248 . S
O139 Mg136 1.990 1_545 S
O139 C145 1.253 . S
O140 Mg136 2.117 . S
O140 C146 1.250 . S
C141 O147 1.248 1_565 S
C141 O148 1.264 . S
C142 O128 1.253 . S
C142 O130 1.260 . S
C143 O132 1.279 . S
C143 O133 1.250 . S
C144 O134 1.264 . S
C144 O138 1.248 . S
C145 O135 1.260 . S
C145 O139 1.253 . S
C146 O137 1.279 . S
C146 O140 1.250 . S
O147 Mg129 2.030 . S
O147 C141 1.248 1_545 S
O148 Mg131 2.079 1_565 S
O148 C141 1.264 . S
O149 Mg150 1.990 . S
O149 C163 1.253 . S
Mg150 O149 1.990 . S
Mg150 O153 2.180 . S
Mg150 O154 2.117 . S
Mg150 O168 2.030 . S
O151 Mg152 2.072 . S
O151 C163 1.260 . S
Mg152 O151 2.072 . S
Mg152 O153 2.099 . S
Mg152 O155 2.079 1_554 S
Mg152 O156 2.072 1_554 S
Mg152 O158 2.099 . S
Mg152 O169 2.079 . S
O153 Mg150 2.180 . S
O153 Mg152 2.099 . S
O153 C164 1.279 . S
O154 Mg150 2.117 . S
O154 C164 1.250 . S
O155 Mg152 2.079 1_556 S
O155 C165 1.264 . S
O156 Mg152 2.072 1_556 S
O156 C166 1.260 . S
Mg157 O158 2.180 1_556 S
Mg157 O159 2.030 . S
Mg157 O160 1.990 . S
Mg157 O161 2.117 . S
O158 Mg152 2.099 . S
O158 Mg157 2.180 1_554 S
O158 C167 1.279 . S
O159 Mg157 2.030 . S
O159 C165 1.248 . S
O160 Mg157 1.990 . S
O160 C166 1.253 . S
O161 Mg157 2.117 . S
O161 C167 1.250 1_556 S
C162 O168 1.248 . S
C162 O169 1.264 . S
C163 O149 1.253 . S
C163 O151 1.260 . S
C164 O153 1.279 . S
C164 O154 1.250 . S
C165 O155 1.264 . S
C165 O159 1.248 . S
C166 O156 1.260 . S
C166 O160 1.253 . S
C167 O158 1.279 . S
C167 O161 1.250 1_554 S
O168 Mg150 2.030 . S
O168 C162 1.248 . S
O169 Mg152 2.079 . S
O169 C162 1.264 . S
H170 C178 0.950 . S
H171 C183 0.950 . S
H172 C180 0.950 . S
H173 C182 0.950 . S
H174 C184 0.950 . S
H175 C186 0.950 . S
H176 C188 0.950 . S
H177 C189 0.950 . S
C178 H170 0.950 . S
C178 C179 1.386 . S
C178 C180 1.391 . S
C179 C178 1.386 . S
C179 C183 1.393 . S
C180 H172 0.950 . S
C180 C178 1.391 . S
C180 C181 1.400 . S
C181 C180 1.400 . S
C181 C182 1.398 . S
C181 C187 1.491 . S
C182 H173 0.950 . S
C182 C181 1.398 . S
C182 C183 1.391 . S
C183 H171 0.950 . S
C183 C179 1.393 . S
C183 C182 1.391 . S
C184 H174 0.950 . S
C184 C185 1.386 . S
C184 C186 1.391 . S
C185 C184 1.386 . S
C185 C189 1.393 . S
C186 H175 0.950 . S
C186 C184 1.391 . S
C186 C187 1.400 . S
C187 C181 1.491 . S
C187 C186 1.400 . S
C187 C188 1.398 . S
C188 H176 0.950 . S
C188 C187 1.398 . S
C188 C189 1.391 . S
C189 H177 0.950 . S
C189 C185 1.393 . S
C189 C188 1.391 . S
H190 C198 0.950 . S
H191 C203 0.950 . S
H192 C200 0.950 . S
H193 C202 0.950 . S
H194 C204 0.950 . S
H195 C206 0.950 . S
H196 C208 0.950 . S
H197 C209 0.950 . S
C198 H190 0.950 . S
C198 C199 1.386 . S
C198 C200 1.391 . S
C199 C198 1.386 . S
C199 C203 1.393 . S
C200 H192 0.950 . S
C200 C198 1.391 . S
C200 C201 1.400 . S
C201 C200 1.400 . S
C201 C202 1.398 . S
C201 C207 1.491 . S
C202 H193 0.950 . S
C202 C201 1.398 . S
C202 C203 1.391 . S
C203 H191 0.950 . S
C203 C199 1.393 . S
C203 C202 1.391 . S
C204 H194 0.950 . S
C204 C205 1.386 . S
C204 C206 1.391 . S
C205 C204 1.386 . S
C205 C209 1.393 . S
C206 H195 0.950 . S
C206 C204 1.391 . S
C206 C207 1.400 . S
C207 C201 1.491 . S
C207 C206 1.400 . S
C207 C208 1.398 . S
C208 H196 0.950 . S
C208 C207 1.398 . S
C208 C209 1.391 . S
C209 H197 0.950 . S
C209 C205 1.393 . S
C209 C208 1.391 . S
H210 C218 0.950 . S
H211 C223 0.950 . S
H212 C220 0.950 . S
H213 C222 0.950 . S
H214 C224 0.950 . S
H215 C226 0.950 . S
H216 C228 0.950 . S
H217 C229 0.950 . S
C218 H210 0.950 . S
C218 C219 1.386 . S
C218 C220 1.391 . S
C219 C218 1.386 . S
C219 C223 1.393 . S
C220 H212 0.950 . S
C220 C218 1.391 . S
C220 C221 1.400 . S
C221 C220 1.400 . S
C221 C222 1.398 . S
C221 C227 1.491 . S
C222 H213 0.950 . S
C222 C221 1.398 . S
C222 C223 1.391 . S
C223 H211 0.950 . S
C223 C219 1.393 . S
C223 C222 1.391 . S
C224 H214 0.950 . S
C224 C225 1.386 . S
C224 C226 1.391 . S
C225 C224 1.386 . S
C225 C229 1.393 . S
C226 H215 0.950 . S
C226 C224 1.391 . S
C226 C227 1.400 . S
C227 C221 1.491 . S
C227 C226 1.400 . S
C227 C228 1.398 . S
C228 H216 0.950 . S
C228 C227 1.398 . S
C228 C229 1.391 . S
C229 H217 0.950 . S
C229 C225 1.393 . S
C229 C228 1.391 . S
H230 C238 0.950 . S
H231 C243 0.950 . S
H232 C240 0.950 . S
H233 C242 0.950 . S
H234 C244 0.950 . S
H235 C246 0.950 . S
H236 C248 0.950 . S
H237 C249 0.950 . S
C238 H230 0.950 . S
C238 C239 1.386 . S
C238 C240 1.391 . S
C239 C238 1.386 . S
C239 C243 1.393 1_556 S
C240 H232 0.950 . S
C240 C238 1.391 . S
C240 C241 1.400 1_556 S
C241 C240 1.400 1_554 S
C241 C242 1.398 . S
C241 C247 1.491 . S
C242 H233 0.950 . S
C242 C241 1.398 . S
C242 C243 1.391 . S
C243 H231 0.950 . S
C243 C239 1.393 1_554 S
C243 C242 1.391 . S
C244 H234 0.950 . S
C244 C245 1.386 . S
C244 C246 1.391 . S
C245 C244 1.386 . S
C245 C249 1.393 1_554 S
C246 H235 0.950 . S
C246 C244 1.391 . S
C246 C247 1.400 . S
C247 C241 1.491 . S
C247 C246 1.400 . S
C247 C248 1.398 1_554 S
C248 H236 0.950 . S
C248 C247 1.398 1_556 S
C248 C249 1.391 . S
C249 H237 0.950 . S
C249 C245 1.393 1_556 S
C249 C248 1.391 . S
H250 C258 0.950 . S
H251 C263 0.950 . S
H252 C260 0.950 . S
H253 C262 0.950 . S
H254 C264 0.950 . S
H255 C266 0.950 . S
H256 C268 0.950 . S
H257 C269 0.950 1_545 S
C258 H250 0.950 . S
C258 C259 1.386 . S
C258 C260 1.391 . S
C259 C258 1.386 . S
C259 C263 1.393 . S
C260 H252 0.950 . S
C260 C258 1.391 . S
C260 C261 1.400 . S
C261 C260 1.400 . S
C261 C262 1.398 . S
C261 C267 1.491 . S
C262 H253 0.950 . S
C262 C261 1.398 . S
C262 C263 1.391 . S
C263 H251 0.950 . S
C263 C259 1.393 . S
C263 C262 1.391 . S
C264 H254 0.950 . S
C264 C265 1.386 . S
C264 C266 1.391 . S
C265 C264 1.386 . S
C265 C269 1.393 . S
C266 H255 0.950 . S
C266 C264 1.391 . S
C266 C267 1.400 . S
C267 C261 1.491 . S
C267 C266 1.400 . S
C267 C268 1.398 . S
C268 H256 0.950 . S
C268 C267 1.398 . S
C268 C269 1.391 . S
C269 H257 0.950 1_565 S
C269 C265 1.393 . S
C269 C268 1.391 . S
H270 C278 0.950 . S
H271 C283 0.950 . S
H272 C280 0.950 . S
H273 C282 0.950 . S
H274 C284 0.950 . S
H275 C286 0.950 . S
H276 C288 0.950 . S
H277 C289 0.950 . S
C278 H270 0.950 . S
C278 C279 1.386 . S
C278 C280 1.391 . S
C279 C278 1.386 . S
C279 C283 1.393 . S
C280 H272 0.950 . S
C280 C278 1.391 . S
C280 C281 1.400 . S
C281 C280 1.400 . S
C281 C282 1.398 . S
C281 C287 1.491 . S
C282 H273 0.950 . S
C282 C281 1.398 . S
C282 C283 1.391 . S
C283 H271 0.950 . S
C283 C279 1.393 . S
C283 C282 1.391 . S
C284 H274 0.950 . S
C284 C285 1.386 . S
C284 C286 1.391 . S
C285 C284 1.386 . S
C285 C289 1.393 . S
C286 H275 0.950 . S
C286 C284 1.391 . S
C286 C287 1.400 . S
C287 C281 1.491 . S
C287 C286 1.400 . S
C287 C288 1.398 . S
C288 H276 0.950 . S
C288 C287 1.398 . S
C288 C289 1.391 . S
C289 H277 0.950 . S
C289 C285 1.393 . S
C289 C288 1.391 . S
H290 C298 0.950 . S
H291 C303 0.950 . S
H292 C300 0.950 . S
H293 C302 0.950 . S
H294 C304 0.950 . S
H295 C306 0.950 . S
H296 C308 0.950 . S
H297 C309 0.950 . S
C298 H290 0.950 . S
C298 C299 1.386 . S
C298 C300 1.391 . S
C299 C298 1.386 . S
C299 C303 1.393 . S
C300 H292 0.950 . S
C300 C298 1.391 . S
C300 C301 1.400 . S
C301 C300 1.400 . S
C301 C302 1.398 . S
C301 C307 1.491 . S
C302 H293 0.950 . S
C302 C301 1.398 . S
C302 C303 1.391 . S
C303 H291 0.950 . S
C303 C299 1.393 . S
C303 C302 1.391 . S
C304 H294 0.950 . S
C304 C305 1.386 . S
C304 C306 1.391 . S
C305 C304 1.386 . S
C305 C309 1.393 . S
C306 H295 0.950 . S
C306 C304 1.391 . S
C306 C307 1.400 . S
C307 C301 1.491 . S
C307 C306 1.400 . S
C307 C308 1.398 . S
C308 H296 0.950 . S
C308 C307 1.398 . S
C308 C309 1.391 . S
C309 H297 0.950 . S
C309 C305 1.393 . S
C309 C308 1.391 . S
H310 C318 0.950 . S
H311 C323 0.950 . S
H312 C320 0.950 . S
H313 C322 0.950 . S
H314 C324 0.950 . S
H315 C326 0.950 . S
H316 C328 0.950 . S
H317 C329 0.950 . S
C318 H310 0.950 . S
C318 C319 1.386 . S
C318 C320 1.391 . S
C319 C318 1.386 . S
C319 C323 1.393 . S
C320 H312 0.950 . S
C320 C318 1.391 . S
C320 C321 1.400 . S
C321 C320 1.400 . S
C321 C322 1.398 . S
C321 C327 1.491 . S
C322 H313 0.950 . S
C322 C321 1.398 . S
C322 C323 1.391 . S
C323 H311 0.950 . S
C323 C319 1.393 . S
C323 C322 1.391 . S
C324 H314 0.950 . S
C324 C325 1.386 . S
C324 C326 1.391 . S
C325 C324 1.386 . S
C325 C329 1.393 . S
C326 H315 0.950 . S
C326 C324 1.391 . S
C326 C327 1.400 . S
C327 C321 1.491 . S
C327 C326 1.400 . S
C327 C328 1.398 . S
C328 H316 0.950 . S
C328 C327 1.398 . S
C328 C329 1.391 . S
C329 H317 0.950 . S
C329 C325 1.393 . S
C329 C328 1.391 . S
H330 C338 0.950 . S
H331 C343 0.950 . S
H332 C340 0.950 . S
H333 C342 0.950 . S
H334 C344 0.950 . S
H335 C346 0.950 . S
H336 C348 0.950 . S
H337 C349 0.950 . S
C338 H330 0.950 . S
C338 C339 1.386 . S
C338 C340 1.391 . S
C339 C338 1.386 . S
C339 C343 1.393 . S
C340 H332 0.950 . S
C340 C338 1.391 . S
C340 C341 1.400 . S
C341 C340 1.400 . S
C341 C342 1.398 . S
C341 C347 1.491 . S
C342 H333 0.950 . S
C342 C341 1.398 . S
C342 C343 1.391 . S
C343 H331 0.950 . S
C343 C339 1.393 . S
C343 C342 1.391 . S
C344 H334 0.950 . S
C344 C345 1.386 . S
C344 C346 1.391 . S
C345 C344 1.386 . S
C345 C349 1.393 . S
C346 H335 0.950 . S
C346 C344 1.391 . S
C346 C347 1.400 . S
C347 C341 1.491 . S
C347 C346 1.400 . S
C347 C348 1.398 . S
C348 H336 0.950 . S
C348 C347 1.398 . S
C348 C349 1.391 . S
C349 H337 0.950 . S
C349 C345 1.393 . S
C349 C348 1.391 . S
H350 C358 0.950 . S
H351 C363 0.950 . S
H352 C360 0.950 . S
H353 C362 0.950 . S
H354 C364 0.950 . S
H355 C366 0.950 . S
H356 C368 0.950 . S
H357 C369 0.950 . S
C358 H350 0.950 . S
C358 C359 1.386 . S
C358 C360 1.391 . S
C359 C358 1.386 . S
C359 C363 1.393 . S
C360 H352 0.950 . S
C360 C358 1.391 . S
C360 C361 1.400 . S
C361 C360 1.400 . S
C361 C362 1.398 . S
C361 C367 1.491 . S
C362 H353 0.950 . S
C362 C361 1.398 . S
C362 C363 1.391 . S
C363 H351 0.950 . S
C363 C359 1.393 . S
C363 C362 1.391 . S
C364 H354 0.950 . S
C364 C365 1.386 . S
C364 C366 1.391 . S
C365 C364 1.386 . S
C365 C369 1.393 . S
C366 H355 0.950 . S
C366 C364 1.391 . S
C366 C367 1.400 . S
C367 C361 1.491 . S
C367 C366 1.400 . S
C367 C368 1.398 . S
C368 H356 0.950 . S
C368 C367 1.398 . S
C368 C369 1.391 . S
C369 H357 0.950 . S
C369 C365 1.393 . S
C369 C368 1.391 . S
H370 C378 0.950 . S
H371 C383 0.950 . S
H372 C380 0.950 . S
H373 C382 0.950 . S
H374 C384 0.950 . S
H375 C386 0.950 . S
H376 C388 0.950 . S
H377 C389 0.950 . S
C378 H370 0.950 . S
C378 C379 1.386 . S
C378 C380 1.391 . S
C379 C378 1.386 . S
C379 C383 1.393 . S
C380 H372 0.950 . S
C380 C378 1.391 . S
C380 C381 1.400 . S
C381 C380 1.400 . S
C381 C382 1.398 . S
C381 C387 1.491 . S
C382 H373 0.950 . S
C382 C381 1.398 . S
C382 C383 1.391 . S
C383 H371 0.950 . S
C383 C379 1.393 . S
C383 C382 1.391 . S
C384 H374 0.950 . S
C384 C385 1.386 . S
C384 C386 1.391 . S
C385 C384 1.386 . S
C385 C389 1.393 . S
C386 H375 0.950 . S
C386 C384 1.391 . S
C386 C387 1.400 . S
C387 C381 1.491 . S
C387 C386 1.400 . S
C387 C388 1.398 . S
C388 H376 0.950 . S
C388 C387 1.398 . S
C388 C389 1.391 . S
C389 H377 0.950 . S
C389 C385 1.393 . S
C389 C388 1.391 . S
H390 C398 0.950 . S
H391 C403 0.950 . S
H392 C400 0.950 . S
H393 C402 0.950 . S
H394 C404 0.950 . S
H395 C406 0.950 . S
H396 C408 0.950 . S
H397 C409 0.950 . S
C398 H390 0.950 . S
C398 C399 1.386 . S
C398 C400 1.391 . S
C399 C398 1.386 . S
C399 C403 1.393 . S
C400 H392 0.950 . S
C400 C398 1.391 . S
C400 C401 1.400 . S
C401 C400 1.400 . S
C401 C402 1.398 . S
C401 C407 1.491 . S
C402 H393 0.950 . S
C402 C401 1.398 . S
C402 C403 1.391 . S
C403 H391 0.950 . S
C403 C399 1.393 . S
C403 C402 1.391 . S
C404 H394 0.950 . S
C404 C405 1.386 . S
C404 C406 1.391 . S
C405 C404 1.386 . S
C405 C409 1.393 . S
C406 H395 0.950 . S
C406 C404 1.391 . S
C406 C407 1.400 . S
C407 C401 1.491 . S
C407 C406 1.400 . S
C407 C408 1.398 . S
C408 H396 0.950 . S
C408 C407 1.398 . S
C408 C409 1.391 . S
C409 H397 0.950 . S
C409 C405 1.393 . S
C409 C408 1.391 . S
C185 C143 1.338 . S
C179 C119 1.408 . S
C199 C23 1.506 . S
C205 C167 1.286 . S
C219 C55 1.644 . S
C225 C146 1.409 . S
C239 C87 1.573 . S
C245 C164 1.415 . S
C265 C144 1.548 . S
C259 C17 1.577 . S
C285 C166 1.533 . S
C279 C61 1.584 . S
C299 C93 1.478 . S
C305 C145 1.480 . S
C319 C113 1.481 . S
C325 C165 1.479 . S
C345 C163 1.499 . S
C339 C49 1.568 . S
C365 C142 1.544 . S
C359 C81 1.517 . S
C385 C162 1.556 . S
C379 C125 1.471 . S
C399 C29 1.571 . S
C405 C141 1.473 . S
