# Generated by pormake.
# Topology anh, (6,3)-cn, num edge types: 1
# Building blocks:
#     Node 0, Type 0, BuildingBlock: NUHQIS_clean_sbu_0, # of connection points: 6
#     Node 1, Type 0, BuildingBlock: NUHQIS_clean_sbu_0, # of connection points: 6
#     Node 2, Type 0, BuildingBlock: NUHQIS_clean_sbu_0, # of connection points: 6
#     Node 3, Type 1, BuildingBlock: QEWDON_clean_linker_0, # of connection points: 3
#     Node 4, Type 1, BuildingBlock: QEWDON_clean_linker_0, # of connection points: 3
#     Node 5, Type 1, BuildingBlock: QEWDON_clean_linker_0, # of connection points: 3
#     Node 6, Type 1, BuildingBlock: QEWDON_clean_linker_0, # of connection points: 3
#     Node 7, Type 1, BuildingBlock: QEWDON_clean_linker_0, # of connection points: 3
#     Node 8, Type 1, BuildingBlock: QEWDON_clean_linker_0, # of connection points: 3
#     Edge 9, Type (0, 1), BuildingBlock: ZUJKAS_clean_linker_0, # of connection points: 2
#     Edge 10, Type (0, 1), BuildingBlock: ZUJKAS_clean_linker_0, # of connection points: 2
#     Edge 11, Type (0, 1), BuildingBlock: ZUJKAS_clean_linker_0, # of connection points: 2
#     Edge 12, Type (0, 1), BuildingBlock: ZUJKAS_clean_linker_0, # of connection points: 2
#     Edge 13, Type (0, 1), BuildingBlock: ZUJKAS_clean_linker_0, # of connection points: 2
#     Edge 14, Type (0, 1), BuildingBlock: ZUJKAS_clean_linker_0, # of connection points: 2
#     Edge 15, Type (0, 1), BuildingBlock: ZUJKAS_clean_linker_0, # of connection points: 2
#     Edge 16, Type (0, 1), BuildingBlock: ZUJKAS_clean_linker_0, # of connection points: 2
#     Edge 17, Type (0, 1), BuildingBlock: ZUJKAS_clean_linker_0, # of connection points: 2
#     Edge 18, Type (0, 1), BuildingBlock: ZUJKAS_clean_linker_0, # of connection points: 2
#     Edge 19, Type (0, 1), BuildingBlock: ZUJKAS_clean_linker_0, # of connection points: 2
#     Edge 20, Type (0, 1), BuildingBlock: ZUJKAS_clean_linker_0, # of connection points: 2
#     Edge 21, Type (0, 1), BuildingBlock: ZUJKAS_clean_linker_0, # of connection points: 2
#     Edge 22, Type (0, 1), BuildingBlock: ZUJKAS_clean_linker_0, # of connection points: 2
#     Edge 23, Type (0, 1), BuildingBlock: ZUJKAS_clean_linker_0, # of connection points: 2
#     Edge 24, Type (0, 1), BuildingBlock: ZUJKAS_clean_linker_0, # of connection points: 2
#     Edge 25, Type (0, 1), BuildingBlock: ZUJKAS_clean_linker_0, # of connection points: 2
#     Edge 26, Type (0, 1), BuildingBlock: ZUJKAS_clean_linker_0, # of connection points: 2
# Relax obj value: 0.160
# Max RMSD: 0.133
# Mean RMSD: 0.121
data_MOF--net-anh--node1-NUHQIS_clean_sbu_0--node2-QEWDON_clean_linker_0--edge1-ZUJKAS_clean_linker_0
_symmetry_space_group_name_H-M    P1
_symmetry_Int_Tables_number       1
_symmetry_cell_setting            triclinic
loop_
_symmetry_equiv_pos_as_xyz
'x, y, z'
_cell_length_a     40.726577
_cell_length_b     40.632313
_cell_length_c     62.874266
_cell_angle_alpha  94.044186
_cell_angle_beta   95.406122
_cell_angle_gamma 120.03419
loop_
_atom_site_label
_atom_site_type_symbol
_atom_site_fract_x
_atom_site_fract_y
_atom_site_fract_z
_atom_type_partial_charge
Tb0 Tb 0.15665 0.61218 0.15596 0.0
Eu1 Eu 0.10822 0.65537 0.15122 0.0
C2 C 0.13973 0.64476 0.19636 0.0
C3 C 1.06554 0.56401 0.15387 0.0
C4 C 0.23825 0.59769 0.16677 0.0
C5 C 0.28958 0.59457 0.1877 0.0
C6 C 0.25045 0.57944 0.18087 0.0
C7 C 0.26561 0.63181 0.15999 0.0
C8 C 0.30461 0.64675 0.16664 0.0
C9 C 0.31714 0.62814 0.18041 0.0
C10 C 0.19708 0.58155 0.15954 0.0
O11 O 0.12912 0.59888 0.12249 0.0
O12 O 0.12929 0.65446 0.11964 0.0
O13 O 0.16977 0.70491 0.15798 0.0
O14 O 0.20082 0.67131 0.15253 0.0
C15 C 0.12944 0.62446 0.11072 0.0
O16 O 1.06372 0.66186 0.1333 0.0
O17 O 1.09142 0.69464 0.16499 0.0
O18 O 0.1088 0.63898 0.18446 0.0
O19 O 0.16741 0.64499 0.18726 0.0
O20 O 0.09894 0.56813 0.16144 0.0
O21 O 1.06381 0.59183 0.14536 0.0
C22 C 0.20128 0.70409 0.15583 0.0
O23 O 0.1773 0.58315 0.17429 0.0
O24 O 0.18821 0.59141 0.14156 0.0
C25 C 1.02378 0.65874 0.15822 0.0
C26 C 0.95257 0.59897 0.16615 0.0
C27 C 0.95453 0.62047 0.14915 0.0
C28 C 0.98989 0.64994 0.14514 0.0
C29 C 1.02149 0.63923 0.17616 0.0
C30 C 0.98632 0.60962 0.18005 0.0
C31 C 1.06088 0.68003 0.15037 0.0
H32 H 0.29822 0.57982 0.19855 0.0
H33 H 0.22972 0.55337 0.18651 0.0
H34 H 0.25694 0.6467 0.14925 0.0
H35 H 0.32491 0.67224 0.16038 0.0
H36 H 0.92886 0.61369 0.13848 0.0
H37 H 0.99096 0.66418 0.13106 0.0
H38 H 1.04714 0.64494 0.18639 0.0
H39 H 0.98599 0.59368 0.1932 0.0
Tb40 Tb 0.6831 0.14366 0.49607 0.0
Eu41 Eu 0.59035 0.09566 0.4863 0.0
C42 C 0.63572 0.11685 0.53361 0.0
C43 C 0.63924 1.05262 0.49188 0.0
C44 C 0.77624 0.22873 0.50167 0.0
C45 C 0.82422 0.29424 0.51676 0.0
C46 C 0.80825 0.25471 0.51678 0.0
C47 C 0.76105 0.24268 0.48615 0.0
C48 C 0.777 0.28202 0.48607 0.0
C49 C 0.8083 0.30823 0.50161 0.0
C50 C 0.7545 0.18803 0.5044 0.0
O51 O 0.66929 0.14942 0.46264 0.0
O52 O 0.60924 0.09632 0.45389 0.0
O53 O 0.60621 0.15575 0.48022 0.0
O54 O 0.66457 0.1858 0.50177 0.0
C55 C 0.64043 0.12395 0.4482 0.0
O56 O 0.53662 1.04661 0.46984 0.0
O57 O 0.53554 0.08698 0.49372 0.0
O58 O 0.60799 0.11738 0.52168 0.0
O59 O 0.66433 0.11805 0.52508 0.0
O60 O 0.66996 0.08409 0.48818 0.0
O61 O 0.60806 1.05304 0.49535 0.0
C62 C 0.63579 0.18712 0.49113 0.0
O63 O 0.73156 0.18083 0.51875 0.0
O64 O 0.73753 0.16362 0.48676 0.0
C65 C 0.49307 1.02155 0.49411 0.0
C66 C 0.45077 0.9569 0.51464 0.0
C67 C 0.43248 0.96603 0.49788 0.0
C68 C 0.45353 0.99811 0.48766 0.0
C69 C 0.51132 1.01322 0.51119 0.0
C70 C 0.49035 0.98109 0.52136 0.0
C71 C 0.51604 1.05314 0.48226 0.0
H72 H 0.84853 0.31385 0.52881 0.0
H73 H 0.81985 0.24444 0.52913 0.0
H74 H 0.73568 0.2232 0.4747 0.0
H75 H 0.7637 0.29188 0.47443 0.0
H76 H 0.40211 0.94754 0.49207 0.0
H77 H 0.43915 1.00404 0.47439 0.0
H78 H 0.54198 1.03113 0.51633 0.0
H79 H 0.50514 0.9749 0.53427 0.0
Tb80 Tb 0.66796 0.63868 0.82696 0.0
Eu81 Eu 0.62075 0.54616 0.82026 0.0
C82 C 0.64928 0.59505 0.86636 0.0
C83 C 0.71365 0.59413 0.82618 0.0
C84 C 0.67984 0.73178 0.82457 0.0
C85 C 0.66103 0.77827 0.83403 0.0
C86 C 0.68444 0.7628 0.83845 0.0
C87 C 0.65245 0.71726 0.80585 0.0
C88 C 0.62919 0.7327 0.80142 0.0
C89 C 0.63258 0.76275 0.8157 0.0
C90 C 0.69817 0.71027 0.83144 0.0
O91 O 0.64039 0.62122 0.79351 0.0
O92 O 0.63819 0.56415 0.78822 0.0
O93 O 0.57378 0.56017 0.81311 0.0
O94 O 0.60831 0.62229 0.83021 0.0
C95 C 0.63844 0.59339 0.78055 0.0
O96 O 0.5985 0.49014 0.80122 0.0
O97 O 0.59132 0.49358 0.83475 0.0
O98 O 0.61914 0.56742 0.85378 0.0
O99 O 0.67733 0.62189 0.85803 0.0
O100 O 0.71214 0.62433 0.82102 0.0
O101 O 0.68293 0.56383 0.83061 0.0
C102 C 0.57527 0.59171 0.82141 0.0
O103 O 0.68308 0.68958 0.84659 0.0
O104 O 0.70375 0.6911 0.81607 0.0
C105 C 0.61283 0.45258 0.82334 0.0
C106 C 0.66269 0.42702 0.8383 0.0
C107 C 0.66712 0.44419 0.81931 0.0
C108 C 0.64261 0.457 0.81197 0.0
C109 C 0.60755 0.43429 0.84189 0.0
C110 C 0.63234 0.42188 0.84938 0.0
C111 C 0.59175 0.47257 0.81829 0.0
H112 H 0.66411 0.80125 0.84543 0.0
H113 H 0.70485 0.77385 0.85319 0.0
H114 H 0.64786 0.69291 0.79504 0.0
H115 H 0.60804 0.72059 0.78698 0.0
H116 H 0.68954 0.44777 0.81005 0.0
H117 H 0.64781 0.47138 0.79773 0.0
H118 H 0.58522 0.43108 0.85114 0.0
H119 H 0.62821 0.40907 0.86416 0.0
H120 H 0.66386 0.15894 0.21158 0.0
C121 C 0.63585 0.13497 0.20476 0.0
C122 C 0.61009 0.11451 0.21882 0.0
C123 C 0.62614 0.12404 0.18222 0.0
H124 H 0.55554 1.06562 0.22141 0.0
C125 C 0.57427 0.08229 0.21033 0.0
C126 C 0.56296 0.07005 0.18806 0.0
C127 C 0.5891 0.09135 0.17407 0.0
C128 C 0.65578 0.14479 0.16759 0.0
H129 H 0.58025 0.08248 0.15688 0.0
C130 C 0.68617 0.18412 0.17285 0.0
C131 C 0.71533 0.20107 0.15956 0.0
C132 C 0.6553 0.12396 0.14856 0.0
H133 H 0.63397 0.0939 0.14405 0.0
C134 C 0.68323 0.1409 0.13528 0.0
H135 H 0.68772 0.20132 0.18727 0.0
C136 C 0.71296 0.17881 0.14074 0.0
H137 H 0.7345 0.19083 0.13019 0.0
H138 H 0.68224 0.12418 0.12078 0.0
H139 H 0.62894 0.63418 0.54454 0.0
C140 C 0.63251 0.61106 0.53789 0.0
C141 C 0.63979 0.58941 0.5521 0.0
C142 C 0.62857 0.60233 0.51536 0.0
H143 H 0.64756 0.5411 0.55466 0.0
C144 C 0.64327 0.55853 0.54371 0.0
C145 C 0.63914 0.54829 0.52143 0.0
C146 C 0.63194 0.57045 0.50731 0.0
C147 C 0.61776 0.6244 0.50047 0.0
H148 H 0.62935 0.56289 0.49014 0.0
C149 C 0.62798 0.66352 0.50627 0.0
C150 C 0.61409 0.68176 0.49256 0.0
C151 C 0.59437 0.60505 0.48053 0.0
H152 H 0.58466 0.57519 0.47554 0.0
C153 C 0.58162 0.62324 0.46689 0.0
H154 H 0.64597 0.67957 0.52141 0.0
C155 C 0.59111 0.66096 0.47285 0.0
H156 H 0.58021 0.674 0.46196 0.0
H157 H 0.56355 0.60766 0.45168 0.0
H158 H 0.16741 0.59895 0.87501 0.0
C159 C 0.14021 0.5946 0.86758 0.0
C160 C 0.11147 0.58701 0.88051 0.0
C161 C 0.13453 0.59788 0.84552 0.0
H162 H 1.05516 0.57843 0.88167 0.0
C163 C 1.07655 0.58277 0.8714 0.0
C164 C 1.06955 0.58636 0.84967 0.0
C165 C 0.09866 0.59374 0.83675 0.0
C166 C 0.16713 0.6087 0.83237 0.0
H167 H 1.09299 0.59588 0.8199 0.0
C168 C 0.19643 0.59924 0.83687 0.0
C169 C 0.22815 0.61288 0.82521 0.0
C170 C 0.17048 0.63122 0.81575 0.0
H171 H 0.15006 0.64037 0.81203 0.0
C172 C 0.20108 0.64381 0.80406 0.0
H173 H 0.19505 0.58193 0.84944 0.0
C174 C 0.22966 0.63499 0.80879 0.0
H175 H 0.25335 0.64573 0.79959 0.0
H176 H 0.20304 0.66121 0.79143 0.0
H177 H 1.07623 0.7043 0.41371 0.0
C178 C 1.09539 0.70371 0.42668 0.0
C179 C 0.12497 0.69727 0.42203 0.0
C180 C 1.08938 0.70786 0.44802 0.0
H181 H 0.17298 0.69287 0.43571 0.0
C182 C 0.14894 0.69587 0.43912 0.0
C183 C 0.1434 0.70044 0.46062 0.0
C184 C 0.11305 0.70578 0.46486 0.0
C185 C 1.05686 0.71197 0.45283 0.0
H186 H 0.10804 0.7088 0.48133 0.0
C187 C 1.02619 0.68164 0.46029 0.0
C188 C 0.99523 0.68488 0.46567 0.0
C189 C 1.05653 0.74591 0.45059 0.0
H190 H 1.08013 0.76967 0.44482 0.0
C191 C 1.02593 0.74952 0.45628 0.0
H192 H 1.02644 0.65535 0.46194 0.0
C193 C 0.99537 0.71916 0.46394 0.0
H194 H 0.97171 0.72215 0.46814 0.0
H195 H 1.02589 0.77586 0.45474 0.0
H196 H 0.547 1.05789 0.75429 0.0
C197 C 0.57071 0.08005 0.76584 0.0
C198 C 0.60521 0.10573 0.75885 0.0
C199 C 0.56597 0.08412 0.78751 0.0
H200 H 0.66177 0.15515 0.76834 0.0
C201 C 0.63545 0.13484 0.77385 0.0
C202 C 0.63136 0.13891 0.79564 0.0
C203 C 0.59645 0.1133 0.80232 0.0
C204 C 0.52931 1.05778 0.79484 0.0
H205 H 0.59293 0.11597 0.81912 0.0
C206 C 0.5139 1.01807 0.79072 0.0
C207 C 0.48147 0.99276 0.79955 0.0
C208 C 0.51093 0.07205 0.80715 0.0
H209 H 0.5223 0.10266 0.81048 0.0
C210 C 0.47792 1.04683 0.81543 0.0
H211 H 0.5287 1.007 0.78183 0.0
C212 C 0.46351 1.0073 0.81195 0.0
H213 H 0.43885 0.98818 0.81917 0.0
H214 H 0.46405 1.05802 0.82501 0.0
H215 H 0.673 0.63657 0.10616 0.0
C216 C 0.66935 0.60958 0.11026 0.0
C217 C 0.65814 0.57892 0.09389 0.0
C218 C 0.67744 0.60608 0.13189 0.0
H219 H 0.64695 0.52097 0.08705 0.0
C220 C 0.65399 0.54426 0.09954 0.0
C221 C 0.66145 0.54033 0.12117 0.0
C222 C 0.67299 0.57136 0.13723 0.0
C223 C 0.69205 0.63902 0.149 0.0
H224 H 0.68028 0.56914 0.1539 0.0
C225 C 0.67012 0.656 0.15267 0.0
C226 C 0.68169 0.68437 0.17043 0.0
C227 C 0.72668 0.65181 0.16269 0.0
H228 H 0.74408 0.63906 0.1601 0.0
C229 C 0.73886 0.68086 0.17999 0.0
H230 H 0.64285 0.64544 0.1425 0.0
C231 C 0.71622 0.69677 0.18406 0.0
H232 H 0.72535 0.71835 0.19794 0.0
H233 H 0.76547 0.69045 0.19054 0.0
H234 H 0.37707 0.70278 0.18901 0.0
H235 H 0.44545 0.72505 0.19087 0.0
H236 H 0.4199 0.60798 0.18647 0.0
H237 H 0.3516 0.5853 0.1834 0.0
H238 H 0.49998 0.71602 0.21702 0.0
H239 H 0.47015 0.64621 0.13294 0.0
H240 H 0.43523 0.65264 0.14538 0.0
H241 H 0.44226 0.61341 0.15053 0.0
C242 C 0.38601 0.68176 0.18848 0.0
C243 C 0.35874 0.64219 0.1856 0.0
C244 C 0.4251 0.69459 0.18976 0.0
C245 C 0.43748 0.66807 0.1883 0.0
C246 C 0.41071 0.62882 0.18719 0.0
H247 H 0.65123 0.67863 0.2074 0.0
H248 H 0.59602 0.68497 0.21299 0.0
C249 C 0.37167 0.61594 0.18569 0.0
C250 C 0.47773 0.68083 0.18603 0.0
H251 H 0.53153 0.66635 0.1525 0.0
C252 C 0.50711 0.70559 0.20285 0.0
C253 C 0.48697 0.66812 0.16724 0.0
C254 C 0.45705 0.64397 0.1479 0.0
C255 C 0.54546 0.71633 0.20181 0.0
C256 C 0.55424 0.70118 0.18367 0.0
C257 C 0.52494 0.67792 0.16647 0.0
C258 C 0.59259 0.70602 0.18261 0.0
C259 C 0.57601 0.74367 0.22012 0.0
C260 C 0.60943 0.71614 0.16381 0.0
C261 C 0.6403 0.71149 0.16037 0.0
C262 C 0.65522 0.69733 0.17586 0.0
C263 C 0.64044 0.69013 0.19539 0.0
C264 C 0.60906 0.69402 0.19864 0.0
H265 H 0.56782 0.76335 0.22793 0.0
H266 H 0.57931 0.72702 0.23254 0.0
H267 H 0.60411 0.76108 0.21455 0.0
H268 H 0.59716 0.72538 0.1512 0.0
H269 H 0.65132 0.71714 0.14519 0.0
H270 H 0.82757 0.36088 0.53716 0.0
H271 H 0.8486 0.42914 0.53797 0.0
H272 H 0.84264 0.41737 0.46878 0.0
H273 H 0.8218 0.34951 0.46784 0.0
H274 H 0.91319 0.48607 0.52331 0.0
H275 H 0.78176 0.47046 0.47814 0.0
H276 H 0.78161 0.43245 0.4916 0.0
H277 H 0.79678 0.44029 0.46551 0.0
C278 C 0.83099 0.37298 0.52215 0.0
C279 C 0.82291 0.34987 0.50241 0.0
C280 C 0.84263 0.4118 0.52263 0.0
C281 C 0.84609 0.42795 0.50338 0.0
C282 C 0.83886 0.40512 0.48374 0.0
H283 H 0.94938 0.61511 0.44257 0.0
H284 H 0.90639 0.55587 0.45628 0.0
C285 C 0.82721 0.36643 0.48324 0.0
C286 C 0.8597 0.46921 0.5036 0.0
H287 H 0.84007 0.52995 0.47793 0.0
C288 C 0.8969 0.49597 0.51393 0.0
C289 C 0.83814 0.48192 0.49152 0.0
C290 C 0.79718 0.45478 0.48125 0.0
C291 C 0.91451 0.53465 0.51073 0.0
C292 C 0.89398 0.54668 0.49713 0.0
C293 C 0.85568 0.52054 0.48831 0.0
C294 C 0.91394 0.58358 0.48853 0.0
C295 C 0.95594 0.5616 0.52041 0.0
C296 C 0.93101 0.61891 0.50191 0.0
C297 C 0.95551 0.6529 0.49401 0.0
C298 C 0.96306 0.65161 0.47273 0.0
C299 C 0.94381 0.6166 0.45902 0.0
C300 C 0.91932 0.58287 0.46684 0.0
H301 H 0.96871 0.5467 0.52896 0.0
H302 H 0.97323 0.57551 0.50763 0.0
H303 H 0.95799 0.58453 0.53212 0.0
H304 H 0.92684 0.61995 0.51865 0.0
H305 H 0.97038 0.67971 0.50483 0.0
H306 H 0.55514 0.7206 0.80197 0.0
H307 H 0.51154 0.74464 0.79397 0.0
H308 H 0.60536 0.86068 0.81363 0.0
H309 H 0.64936 0.83711 0.82076 0.0
H310 H 0.49156 0.78755 0.81962 0.0
H311 H 0.56239 0.86585 0.75382 0.0
H312 H 0.57193 0.83085 0.76448 0.0
H313 H 0.59633 0.87956 0.77781 0.0
C314 C 0.56656 0.75129 0.80428 0.0
C315 C 0.60583 0.77707 0.81168 0.0
C316 C 0.54155 0.76489 0.79988 0.0
C317 C 0.55544 0.80442 0.80276 0.0
C318 C 0.5943 0.83008 0.8108 0.0
H319 H 0.48237 0.95444 0.83274 0.0
H320 H 0.48621 0.89644 0.83045 0.0
C321 C 0.61933 0.81657 0.81511 0.0
C322 C 0.52964 0.81937 0.79758 0.0
H323 H 0.52522 0.88773 0.77139 0.0
C324 C 0.4983 0.80891 0.80874 0.0
C325 C 0.5376 0.84612 0.78282 0.0
C326 C 0.56863 0.85589 0.76887 0.0
C327 C 0.47681 0.82716 0.80693 0.0
C328 C 0.48767 0.85714 0.79404 0.0
C329 C 0.51693 0.86507 0.78148 0.0
C330 C 0.47366 0.88449 0.79554 0.0
C331 C 0.44336 0.81469 0.81922 0.0
C332 C 0.46424 0.89672 0.77676 0.0
C333 C 0.46316 0.9306 0.77808 0.0
C334 C 0.47065 0.95218 0.79822 0.0
C335 C 0.47592 0.93784 0.81707 0.0
C336 C 0.47785 0.90446 0.81574 0.0
H337 H 0.42878 0.78332 0.81995 0.0
H338 H 0.45403 0.82944 0.83606 0.0
H339 H 0.42205 0.82156 0.81181 0.0
H340 H 0.46092 0.88184 0.76101 0.0
H341 H 0.45923 0.94139 0.76336 0.0
H342 H 0.92511 0.57422 0.2038 0.0
H343 H 0.86137 0.52211 0.20755 0.0
H344 H 0.83292 0.4955 0.13821 0.0
H345 H 0.89699 0.54532 0.13448 0.0
H346 H 0.80534 0.5289 0.1966 0.0
H347 H 0.76493 0.39176 0.15168 0.0
H348 H 0.81479 0.4277 0.16055 0.0
H349 H 0.79077 0.4262 0.13447 0.0
C350 C 0.90571 0.55631 0.18938 0.0
C351 C 0.91573 0.56469 0.16879 0.0
C352 C 0.86928 0.52635 0.19156 0.0
C353 C 0.8421 0.50447 0.17321 0.0
C354 C 0.8533 0.51103 0.15272 0.0
H355 H 0.70107 0.51163 0.10296 0.0
H356 H 0.72823 0.47794 0.12093 0.0
C357 C 0.88975 0.54051 0.15055 0.0
C358 C 0.80049 0.48286 0.17476 0.0
H359 H 0.71852 0.41622 0.14202 0.0
C360 C 0.78593 0.5031 0.18547 0.0
C361 C 0.77464 0.44836 0.16104 0.0
C362 C 0.78731 0.42218 0.15156 0.0
C363 C 0.74832 0.4947 0.1793 0.0
C364 C 0.72473 0.46482 0.16213 0.0
C365 C 0.73695 0.43989 0.15466 0.0
C366 C 0.69585 0.468 0.14763 0.0
C367 C 0.73665 0.52174 0.18896 0.0
C368 C 0.66571 0.47016 0.15544 0.0
C369 C 0.6507 0.49042 0.14535 0.0
C370 C 0.66482 0.50738 0.12698 0.0
C371 C 0.68981 0.49907 0.11715 0.0
C372 C 0.70531 0.47959 0.12745 0.0
H373 H 0.75883 0.54354 0.20206 0.0
H374 H 0.73156 0.53713 0.17633 0.0
H375 H 0.70979 0.50532 0.19585 0.0
H376 H 0.65701 0.46022 0.1706 0.0
H377 H 0.63083 0.4959 0.15298 0.0
H378 H 0.47233 0.90474 0.52359 0.0
H379 H 0.43065 0.83927 0.53123 0.0
H380 H 0.33784 0.86158 0.533 0.0
H381 H 0.37957 0.92716 0.52629 0.0
H382 H 0.33525 0.80748 0.5609 0.0
H383 H 0.35567 0.77229 0.47743 0.0
H384 H 0.39589 0.79537 0.49875 0.0
H385 H 0.37457 0.82159 0.48841 0.0
C386 C 0.44344 0.89607 0.5264 0.0
C387 C 0.42881 0.92069 0.5238 0.0
C388 C 0.41966 0.85861 0.53068 0.0
C389 C 0.38097 0.84535 0.5322 0.0
C390 C 0.36761 0.87118 0.53182 0.0
H391 H 0.17422 0.75247 0.49691 0.0
H392 H 0.23075 0.76861 0.52167 0.0
C393 C 0.39131 0.90852 0.52768 0.0
C394 C 0.3521 0.80393 0.52973 0.0
H395 H 0.29597 0.73471 0.48751 0.0
C396 C 0.32721 0.79059 0.54515 0.0
C397 C 0.34216 0.78112 0.50948 0.0
C398 C 0.36833 0.79307 0.49249 0.0
C399 C 0.29015 0.75847 0.53956 0.0
C400 C 0.27776 0.74027 0.51798 0.0
C401 C 0.30503 0.74928 0.50393 0.0
C402 C 0.23705 0.72193 0.50792 0.0
C403 C 0.26356 0.74662 0.55626 0.0
C404 C 0.22072 0.68964 0.49206 0.0
C405 C 0.18835 0.6807 0.47746 0.0
C406 C 0.17178 0.70384 0.47857 0.0
C407 C 0.18597 0.73379 0.49571 0.0
C408 C 0.21831 0.74283 0.51014 0.0
H409 H 0.27911 0.7474 0.57195 0.0
H410 H 0.25365 0.76736 0.55878 0.0
H411 H 0.23823 0.71734 0.55139 0.0
H412 H 0.23472 0.67318 0.48992 0.0
H413 H 0.1776 0.65702 0.46459 0.0
H414 H 0.64342 0.36161 0.85615 0.0
H415 H 0.68241 0.33324 0.86344 0.0
H416 H 0.77935 0.43044 0.84417 0.0
H417 H 0.74033 0.45999 0.83733 0.0
H418 H 0.76064 0.36558 0.82025 0.0
H419 H 0.76743 0.33715 0.90353 0.0
H420 H 0.72032 0.32907 0.8956 0.0
H421 H 0.76157 0.37637 0.8961 0.0
C422 C 0.67342 0.37792 0.85431 0.0
C423 C 0.68851 0.41291 0.8459 0.0
C424 C 0.69596 0.36172 0.85869 0.0
C425 C 0.73416 0.37999 0.85477 0.0
C426 C 0.75013 0.41607 0.8476 0.0
H427 H 0.70976 0.17065 0.79937 0.0
H428 H 0.75902 0.23306 0.8195 0.0
C429 C 0.72757 0.43256 0.84336 0.0
C430 C 0.7527 0.3567 0.85318 0.0
H431 H 0.74158 0.27826 0.87504 0.0
C432 C 0.75864 0.34746 0.83252 0.0
C433 C 0.75193 0.33401 0.86935 0.0
C434 C 0.75044 0.34511 0.89245 0.0
C435 C 0.75464 0.31165 0.82639 0.0
C436 C 0.74485 0.28516 0.84149 0.0
C437 C 0.74777 0.29811 0.86328 0.0
C438 C 0.71851 0.24381 0.8339 0.0
C439 C 0.75463 0.30027 0.80302 0.0
C440 C 0.67977 0.22839 0.83624 0.0
C441 C 0.65179 0.19317 0.8248 0.0
C442 C 0.6619 0.17244 0.81075 0.0
C443 C 0.70106 0.18639 0.80976 0.0
C444 C 0.72924 0.22188 0.82131 0.0
H445 H 0.76446 0.32491 0.79367 0.0
H446 H 0.77385 0.28846 0.80182 0.0
H447 H 0.72523 0.27766 0.79547 0.0
H448 H 0.67074 0.24497 0.8457 0.0
H449 H 0.62201 0.18363 0.82582 0.0
H450 H 0.69916 1.03905 0.48883 0.0
H451 H 0.69852 0.97843 0.49053 0.0
H452 H 0.57965 0.9219 0.49918 0.0
H453 H 0.57994 0.98189 0.49742 0.0
H454 H 0.68165 0.92943 0.52317 0.0
H455 H 0.5778 0.85193 0.44854 0.0
H456 H 0.60194 0.90341 0.45522 0.0
H457 H 0.56107 0.87287 0.46765 0.0
C458 C 0.6728 1.01372 0.49101 0.0
C459 C 0.63955 1.01574 0.49281 0.0
C460 C 0.6725 0.97894 0.49205 0.0
C461 C 0.63887 0.94503 0.49468 0.0
C462 C 0.60584 0.94716 0.49672 0.0
H463 H 0.56116 0.70287 0.49733 0.0
H464 H 0.56973 0.7671 0.49934 0.0
C465 C 0.60614 0.98181 0.49579 0.0
C466 C 0.63803 0.90748 0.49532 0.0
H467 H 0.59184 0.81434 0.47067 0.0
C468 C 0.66219 0.90434 0.51158 0.0
C469 C 0.61271 0.87439 0.48029 0.0
C470 C 0.58714 0.87574 0.46181 0.0
C471 C 0.66078 0.86912 0.51366 0.0
C472 C 0.63509 0.83587 0.49874 0.0
C473 C 0.61145 0.83934 0.48228 0.0
C474 C 0.63126 0.79698 0.5 0.0
C475 C 0.68589 0.86769 0.53235 0.0
C476 C 0.66294 0.79152 0.50021 0.0
C477 C 0.65806 0.75442 0.49944 0.0
C478 C 0.62132 0.72172 0.49819 0.0
C479 C 0.58993 0.72737 0.49856 0.0
C480 C 0.59481 0.76425 0.49952 0.0
H481 H 0.69499 0.89152 0.54557 0.0
H482 H 0.67086 0.84006 0.53894 0.0
H483 H 0.71214 0.8706 0.52676 0.0
H484 H 0.69134 0.81573 0.50002 0.0
H485 H 0.68272 0.75113 0.49863 0.0
H486 H 0.72843 0.53811 0.83796 0.0
H487 H 0.78839 0.53757 0.83946 0.0
H488 H 0.84292 0.64791 0.81687 0.0
H489 H 0.78329 0.64914 0.81593 0.0
H490 H 0.83063 0.53712 0.8101 0.0
H491 H 0.92163 0.67049 0.86717 0.0
H492 H 0.87018 0.64837 0.86181 0.0
H493 H 0.89968 0.67819 0.84345 0.0
C494 C 0.7532 0.56253 0.83347 0.0
C495 C 0.75072 0.59392 0.82705 0.0
C496 C 0.78769 0.5621 0.83427 0.0
C497 C 0.82101 0.59304 0.82873 0.0
C498 C 0.81837 0.62409 0.82191 0.0
H499 H 1.05738 0.63666 0.82739 0.0
H500 H 0.99745 0.63786 0.82034 0.0
C501 C 0.78392 0.62464 0.82122 0.0
C502 C 0.85795 0.59228 0.82969 0.0
H503 H 0.95378 0.64282 0.85062 0.0
C504 C 0.85745 0.5603 0.81903 0.0
C505 C 0.89347 0.62234 0.84128 0.0
C506 C 0.89633 0.6566 0.85425 0.0
C507 C 0.89092 0.55773 0.81943 0.0
C508 C 0.92634 0.58772 0.83106 0.0
C509 C 0.92698 0.61986 0.84153 0.0
C510 C 0.96244 0.58545 0.83352 0.0
C511 C 0.88802 0.52296 0.80707 0.0
C512 C 0.96321 0.55548 0.84304 0.0
C513 C 0.99739 0.55474 0.847 0.0
C514 C 1.03215 0.58396 0.84163 0.0
C515 C 1.03121 0.61334 0.83144 0.0
C516 C 0.9969 0.61423 0.82761 0.0
H517 H 0.8631 0.50901 0.79393 0.0
H518 H 0.91448 0.53061 0.79996 0.0
H519 H 0.88398 0.50166 0.81821 0.0
H520 H 0.93758 0.53322 0.84818 0.0
H521 H 0.99687 0.53173 0.85497 0.0
H522 H 0.21334 0.77719 0.15511 0.0
H523 H 0.27437 0.83797 0.15798 0.0
H524 H 0.33573 0.77729 0.16272 0.0
H525 H 0.27487 0.71636 0.15972 0.0
H526 H 0.33662 0.86157 0.13124 0.0
H527 H 0.3847 0.86156 0.21695 0.0
H528 H 0.36939 0.81845 0.19892 0.0
H529 H 0.3352 0.83221 0.20452 0.0
C530 C 0.23974 0.7766 0.15673 0.0
C531 C 0.23876 0.74144 0.15721 0.0
C532 C 0.27478 0.81156 0.15831 0.0
C533 C 0.31003 0.81263 0.16074 0.0
C534 C 0.30917 0.77759 0.16106 0.0
H535 H 0.49447 1.04768 0.20308 0.0
H536 H 0.43481 0.9858 0.19518 0.0
C537 C 0.27413 0.74256 0.15925 0.0
C538 C 0.34749 0.85031 0.16328 0.0
H539 H 0.42797 0.91189 0.19952 0.0
C540 C 0.35665 0.87243 0.14614 0.0
C541 C 0.37379 0.86499 0.18274 0.0
C542 C 0.36539 0.84336 0.20195 0.0
C543 C 0.39115 0.90832 0.14791 0.0
C544 C 0.41747 0.92292 0.16737 0.0
C545 C 0.40818 0.90086 0.18451 0.0
C546 C 0.45373 0.96179 0.17077 0.0
C547 C 0.39888 0.93093 0.12913 0.0
C548 C 0.48469 0.9698 0.15947 0.0
C549 C 0.5195 1.00548 0.16416 0.0
C550 C 0.52432 1.03413 0.18032 0.0
C551 C 0.49252 1.02638 0.19085 0.0
C552 C 0.45808 0.99082 0.1863 0.0
H553 H 0.37322 0.91884 0.11655 0.0
H554 H 0.40829 0.96131 0.13469 0.0
H555 H 0.42239 0.93059 0.12171 0.0
H556 H 0.48243 0.94797 0.1475 0.0
H557 H 0.54317 1.00994 0.1558 0.0
H558 H 0.69284 0.25901 0.51101 0.0
H559 H 0.69246 0.3193 0.51361 0.0
H560 H 0.57982 0.26121 0.47587 0.0
H561 H 0.5797 0.20076 0.47355 0.0
H562 H 0.68802 0.3627 0.48399 0.0
H563 H 0.56099 0.31336 0.52596 0.0
H564 H 0.58441 0.286 0.52268 0.0
H565 H 0.55142 0.28417 0.5008 0.0
C566 C 0.66781 0.25887 0.50334 0.0
C567 C 0.6361 0.2245 0.49226 0.0
C568 C 0.66768 0.29361 0.5048 0.0
C569 C 0.63576 0.29516 0.49537 0.0
C570 C 0.60445 0.26104 0.48388 0.0
H571 H 0.58723 0.48517 0.4919 0.0
H572 H 0.58606 0.42427 0.48396 0.0
C573 C 0.60455 0.2263 0.4824 0.0
C574 C 0.63555 0.33241 0.49733 0.0
H575 H 0.58553 0.37441 0.51414 0.0
C576 C 0.66555 0.36509 0.49064 0.0
C577 C 0.60633 0.33615 0.50591 0.0
C578 C 0.57415 0.30319 0.51445 0.0
C579 C 0.66692 0.40069 0.49207 0.0
C580 C 0.63797 0.40451 0.50084 0.0
C581 C 0.60774 0.3718 0.50732 0.0
C582 C 0.63962 0.44251 0.50444 0.0
C583 C 0.6992 0.43388 0.48381 0.0
C584 C 0.67017 0.47355 0.51843 0.0
C585 C 0.67078 0.50826 0.52302 0.0
C586 C 0.64099 0.51331 0.51368 0.0
C587 C 0.61094 0.48266 0.49914 0.0
C588 C 0.61009 0.44761 0.49475 0.0
H589 H 0.71123 0.42371 0.47155 0.0
H590 H 0.68952 0.45226 0.4765 0.0
H591 H 0.72245 0.45172 0.49747 0.0
H592 H 0.69314 0.47059 0.52638 0.0
H593 H 0.69428 0.53103 0.53438 0.0
H594 H 0.50007 0.53382 0.80729 0.0
H595 H 0.44111 0.53583 0.80883 0.0
H596 H 0.50821 0.65356 0.83875 0.0
H597 H 0.56708 0.65203 0.83686 0.0
H598 H 0.40875 0.54739 0.84204 0.0
H599 H 0.44145 0.66406 0.79222 0.0
H600 H 0.4694 0.64095 0.79408 0.0
H601 H 0.47776 0.67802 0.81503 0.0
C602 C 0.50242 0.5603 0.81405 0.0
C603 C 0.53879 0.59279 0.82184 0.0
C604 C 0.46846 0.56138 0.81499 0.0
C605 C 0.46967 0.59505 0.82359 0.0
C606 C 0.50598 0.62741 0.83151 0.0
H607 H 0.30196 0.66563 0.84246 0.0
H608 H 0.35886 0.6594 0.84322 0.0
C609 C 0.53989 0.62637 0.83056 0.0
C610 C 0.43318 0.59608 0.8247 0.0
H611 H 0.38818 0.64557 0.81101 0.0
C612 C 0.40424 0.56877 0.83511 0.0
C613 C 0.42677 0.62391 0.81579 0.0
C614 C 0.4553 0.65315 0.80348 0.0
C615 C 0.37008 0.56911 0.83735 0.0
C616 C 0.36372 0.59704 0.8285 0.0
C617 C 0.39259 0.62415 0.81795 0.0
C618 C 0.32788 0.59921 0.83009 0.0
C619 C 0.34177 0.5402 0.84986 0.0
C620 C 0.29068 0.56742 0.82291 0.0
C621 C 0.2578 0.57087 0.82288 0.0
C622 C 0.26116 0.60626 0.82987 0.0
C623 C 0.29819 0.63774 0.83743 0.0
C624 C 0.33091 0.63426 0.83762 0.0
H625 H 0.35569 0.52925 0.86104 0.0
H626 H 0.32808 0.55274 0.85938 0.0
H627 H 0.319 0.51535 0.83843 0.0
H628 H 0.28704 0.54023 0.8164 0.0
H629 H 0.22993 0.54637 0.8163 0.0
H630 H 0.9917 0.55072 0.14744 0.0
H631 H 0.93189 0.49297 0.15156 0.0
H632 H 0.99483 0.43661 0.16787 0.0
H633 H 1.05493 0.4948 0.16455 0.0
H634 H 0.89329 0.4225 0.13154 0.0
H635 H 0.93357 0.41203 0.21601 0.0
H636 H 0.96229 0.45373 0.20338 0.0
H637 H 0.96693 0.41195 0.19939 0.0
C638 C 0.993 0.52612 0.15198 0.0
C639 C 1.02862 0.52785 0.15572 0.0
C640 C 0.9585 0.49287 0.15434 0.0
C641 C 0.95829 0.46009 0.16049 0.0
C642 C 0.99378 0.46153 0.1638 0.0
H643 H 0.79069 0.22206 0.16656 0.0
H644 H 0.84729 0.28598 0.16805 0.0
C645 C 1.02836 0.49493 0.16167 0.0
C646 C 0.92107 0.42427 0.16283 0.0
H647 H 0.87833 0.356 0.19622 0.0
C648 C 0.89002 0.40834 0.14583 0.0
C649 C 0.91599 0.40537 0.18148 0.0
C650 C 0.94631 0.42188 0.20118 0.0
C651 C 0.8553 0.37375 0.14656 0.0
C652 C 0.85082 0.35424 0.1649 0.0
C653 C 0.88146 0.37056 0.18208 0.0
C654 C 0.81576 0.31573 0.16593 0.0
C655 C 0.82423 0.35738 0.12723 0.0
C656 C 0.7787 0.31068 0.16506 0.0
C657 C 0.74604 0.27385 0.16453 0.0
C658 C 0.74962 0.24113 0.16481 0.0
C659 C 0.78683 0.24658 0.16653 0.0
C660 C 0.81932 0.28324 0.16726 0.0
H661 H 0.83443 0.37228 0.113 0.0
H662 H 0.81335 0.32633 0.12282 0.0
H663 H 0.79985 0.36042 0.13122 0.0
H664 H 0.77492 0.33515 0.16438 0.0
H665 H 0.71788 0.27073 0.16289 0.0
H666 H 0.12601 0.56402 0.08608 0.0
H667 H 0.12605 0.55576 0.04715 0.0
H668 H 0.1334 0.66469 0.04305 0.0
H669 H 0.1327 0.67291 0.08182 0.0
H670 H 1.07888 0.60841 0.01213 0.0
H671 H 0.2157 0.60916 0.01376 0.0
H672 H 0.18208 0.57418 0.02846 0.0
H673 H 0.20222 0.62443 0.0374 0.0
C674 C 0.12772 0.58628 0.07691 0.0
C675 C 0.12936 0.61914 0.08711 0.0
C676 C 0.12806 0.58164 0.05467 0.0
C677 C 0.13039 0.6099 0.04222 0.0
C678 C 0.1318 0.64259 0.05234 0.0
H679 H 0.17372 0.63852 0.91002 0.0
H680 H 0.17957 0.64234 0.94944 0.0
C681 C 0.13136 0.64722 0.07454 0.0
C682 C 0.12981 0.60487 0.01852 0.0
H683 H 0.17727 0.59264 0.97946 0.0
C684 C 0.10042 0.605 0.005 0.0
C685 C 0.15821 0.60091 0.00923 0.0
C686 C 0.19157 0.60251 0.02293 0.0
C687 C 1.09839 0.6009 0.98249 0.0
C688 C 0.12608 0.59573 0.97316 0.0
C689 C 0.1558 0.59611 0.98664 0.0
C690 C 0.12486 0.59075 0.94941 0.0
C691 C 1.06701 0.60294 0.96891 0.0
C692 C 1.09295 0.55965 0.93636 0.0
C693 C 1.08956 0.55743 0.91391 0.0
C694 C 0.1182 0.58609 0.90406 0.0
C695 C 0.15131 0.61591 0.91714 0.0
C696 C 0.1546 0.61821 0.93965 0.0
H697 H 1.05443 0.61663 0.97853 0.0
H698 H 1.07798 0.61929 0.95526 0.0
H699 H 1.0437 0.57344 0.96216 0.0
H700 H 1.07007 0.53767 0.94355 0.0
H701 H 1.06397 0.53384 0.90422 0.0
H702 H 0.69679 0.18107 0.42973 0.0
H703 H 0.69905 0.18629 0.39123 0.0
H704 H 0.59093 0.07987 0.3755 0.0
H705 H 0.58844 0.07421 0.41379 0.0
H706 H 0.64869 0.08533 0.35128 0.0
H707 H 0.63131 0.21266 0.35078 0.0
H708 H 0.66908 0.21729 0.37033 0.0
H709 H 0.62 0.18392 0.37258 0.0
C710 C 0.67347 0.15875 0.41809 0.0
C711 C 0.64236 0.12725 0.42491 0.0
C712 C 0.67474 0.16192 0.39609 0.0
C713 C 0.64495 0.13368 0.38052 0.0
C714 C 0.61416 0.10204 0.38726 0.0
H715 H 0.56635 0.11986 0.24765 0.0
H716 H 0.57971 0.12847 0.28701 0.0
C717 C 0.61277 0.09891 0.40919 0.0
C718 C 0.64575 0.13654 0.35713 0.0
H719 H 0.6387 0.18755 0.31779 0.0
C720 C 0.64686 0.10786 0.34395 0.0
C721 C 0.64303 0.1658 0.34763 0.0
C722 C 0.64049 0.19659 0.36095 0.0
C723 C 0.64471 0.10726 0.32148 0.0
C724 C 0.64188 0.13646 0.31194 0.0
C725 C 0.6413 0.16545 0.32516 0.0
C726 C 0.63608 0.13535 0.28816 0.0
C727 C 0.64392 0.07452 0.30805 0.0
C728 C 0.66385 0.13755 0.27571 0.0
C729 C 0.65621 0.13247 0.25313 0.0
C730 C 0.62066 0.12513 0.24265 0.0
C731 C 0.59378 0.12492 0.25524 0.0
C732 C 0.60145 0.13003 0.27774 0.0
H733 H 0.63875 1.05059 0.31741 0.0
H734 H 0.62127 1.06318 0.29373 0.0
H735 H 0.67195 0.08501 0.30224 0.0
H736 H 0.69103 0.14223 0.28344 0.0
H737 H 0.67745 0.13268 0.2439 0.0
H738 H 0.64137 0.65096 0.75902 0.0
H739 H 0.63984 0.65429 0.72025 0.0
H740 H 0.63064 0.54376 0.70999 0.0
H741 H 0.63182 0.53996 0.74865 0.0
H742 H 0.6908 0.65238 0.69384 0.0
H743 H 0.54242 0.53155 0.66631 0.0
H744 H 0.55959 0.55356 0.69408 0.0
H745 H 0.57128 0.5191 0.6834 0.0
C746 C 0.63874 0.62719 0.74852 0.0
C747 C 0.63655 0.59509 0.75698 0.0
C748 C 0.63794 0.62921 0.72636 0.0
C749 C 0.63461 0.59906 0.71219 0.0
C750 C 0.63248 0.56703 0.72057 0.0
H751 H 0.69155 0.59209 0.58426 0.0
H752 H 0.69054 0.59805 0.62313 0.0
C753 C 0.63336 0.56501 0.74272 0.0
C754 C 0.63464 0.60158 0.68873 0.0
H755 H 0.58252 0.55547 0.63919 0.0
C756 C 0.66701 0.63138 0.68189 0.0
C757 C 0.60336 0.5745 0.67316 0.0
C758 C 0.56702 0.54307 0.67956 0.0
C759 C 0.66948 0.63404 0.65986 0.0
C760 C 0.63896 0.60589 0.64428 0.0
C761 C 0.60605 0.57687 0.65114 0.0
C762 C 0.6411 0.60509 0.6208 0.0
C763 C 0.70472 0.667 0.65347 0.0
C764 C 0.61348 0.60678 0.60651 0.0
C765 C 0.61386 0.60313 0.58423 0.0
C766 C 0.64164 0.59731 0.57581 0.0
C767 C 0.66968 0.59636 0.59022 0.0
C768 C 0.66934 0.60012 0.61247 0.0
H769 H 0.71986 0.6915 0.6667 0.0
H770 H 0.72488 0.65729 0.64977 0.0
H771 H 0.69724 0.6772 0.63888 0.0
H772 H 0.59126 0.61032 0.61259 0.0
H773 H 0.59157 0.60347 0.57357 0.0
H774 H 0.58809 0.12634 0.55771 0.0
H775 H 0.58485 0.12141 0.59599 0.0
H776 H 0.67452 0.09384 0.6001 0.0
H777 H 0.6788 0.09993 0.56186 0.0
H778 H 0.56742 1.06179 0.61781 0.0
H779 H 0.71563 0.18034 0.64903 0.0
H780 H 0.69424 0.17241 0.62132 0.0
H781 H 0.71341 0.14353 0.63036 0.0
C782 C 0.6073 0.11943 0.56676 0.0
C783 C 0.63395 0.11386 0.5568 0.0
C784 C 0.60534 0.11653 0.58863 0.0
C785 C 0.62982 0.1078 0.60098 0.0
C786 C 0.65601 0.10153 0.59101 0.0
H787 H 0.58821 1.04305 0.73057 0.0
H788 H 0.5948 1.041 0.69217 0.0
C789 C 0.65831 0.10486 0.56914 0.0
C790 C 0.62742 0.10504 0.62422 0.0
H791 H 0.679 0.14367 0.67458 0.0
C792 C 0.59182 0.07963 0.63025 0.0
C793 C 0.65922 0.12863 0.6404 0.0
C794 C 0.6977 0.15803 0.63502 0.0
C795 C 0.58696 0.07752 0.65201 0.0
C796 C 0.6189 0.1007 0.66818 0.0
C797 C 0.65463 0.1257 0.66214 0.0
C798 C 0.61546 0.10142 0.69144 0.0
C799 C 0.54736 1.05162 0.65741 0.0
C800 C 0.62591 0.13618 0.70389 0.0
C801 C 0.62274 0.13749 0.72578 0.0
C802 C 0.60893 0.104 0.73566 0.0
C803 C 0.59857 0.06917 0.72325 0.0
C804 C 0.60218 0.06796 0.70134 0.0
H805 H 0.52469 1.04368 0.64347 0.0
H806 H 0.54523 1.02477 0.66192 0.0
H807 H 0.54158 1.06555 0.67123 0.0
H808 H 0.63617 0.16233 0.69659 0.0
H809 H 0.63052 0.16463 0.73492 0.0
H810 H 0.70466 0.64996 0.89815 0.0
H811 H 0.70673 0.64978 0.93729 0.0
H812 H 0.6 0.54154 0.92697 0.0
H813 H 0.59771 0.54124 0.88809 0.0
H814 H 0.64927 0.64475 0.96316 0.0
H815 H 0.67427 0.52272 0.96675 0.0
H816 H 0.68245 0.54909 0.94396 0.0
H817 H 0.63455 0.51345 0.94715 0.0
C818 C 0.68172 0.62607 0.90423 0.0
C819 C 0.65113 0.59554 0.89 0.0
C820 C 0.68291 0.62607 0.92656 0.0
C821 C 0.65376 0.59541 0.93494 0.0
C822 C 0.62307 0.56516 0.92079 0.0
H823 H 0.60311 0.52842 0.06072 0.0
H824 H 0.60116 0.53451 0.02221 0.0
C825 C 0.62178 0.56516 0.89855 0.0
C826 C 0.65492 0.59493 0.95849 0.0
H827 H 0.65842 0.54351 -0.00164 0.0
C828 C 0.65156 0.62284 0.97094 0.0
C829 C 0.65775 0.56617 0.96848 0.0
C830 C 0.6628 0.53632 0.95597 0.0
C831 C 0.64997 0.62216 -0.00686 0.0
C832 C 0.65248 0.59318 0.0031 0.0
C833 C 0.65623 0.56553 0.99064 0.0
C834 C 0.65187 0.59114 0.02649 0.0
C835 C 0.64458 0.6518 0.00561 0.0
C836 C 0.68088 0.62106 0.04163 0.0
C837 C 0.68207 0.61765 0.0636 0.0
C838 C 0.65443 0.58409 0.07082 0.0
C839 C 0.62494 0.5545 0.05563 0.0
C840 C 0.62374 0.55797 0.03366 0.0
H841 H 0.63301 0.66525 -0.00522 0.0
H842 H 0.62488 0.6389 0.01758 0.0
H843 H 0.67273 0.6748 0.01446 0.0
H844 H 0.70337 0.64652 0.03641 0.0
H845 H 0.70559 0.64064 0.07484 0.0
H846 H 1.08673 0.64496 0.21963 0.0
H847 H 1.09059 0.65364 0.25867 0.0
H848 H 0.20226 0.66488 0.26618 0.0
H849 H 0.19892 0.65666 0.22684 0.0
H850 H 0.09921 0.60838 0.28784 0.0
H851 H 0.21863 0.7605 0.30441 0.0
H852 H 0.19237 0.73803 0.27773 0.0
H853 H 0.22766 0.72753 0.28909 0.0
C854 C 0.11226 0.64945 0.2295 0.0
C855 C 0.14262 0.65028 0.2201 0.0
C856 C 0.11435 0.65431 0.25183 0.0
C857 C 0.14682 0.66023 0.26527 0.0
C858 C 0.17719 0.66092 0.25604 0.0
H859 H 0.14205 0.64574 0.40349 0.0
H860 H 0.15099 0.63665 0.36605 0.0
C861 C 0.17515 0.65606 0.23359 0.0
C862 C 0.14808 0.66505 0.28892 0.0
H863 H 0.19236 0.73064 0.33433 0.0
C864 C 0.11976 0.63496 0.29807 0.0
C865 C 0.17475 0.69992 0.3021 0.0
C866 C 0.20496 0.73354 0.29291 0.0
C867 C 0.11686 0.63905 0.32003 0.0
C868 C 0.14343 0.67399 0.33321 0.0
C869 C 0.1722 0.70385 0.32415 0.0
C870 C 0.14035 0.68082 0.35616 0.0
C871 C 1.08449 0.60653 0.32875 0.0
C872 C 0.1325 0.70939 0.36309 0.0
C873 C 0.12777 0.71494 0.3845 0.0
C874 C 0.13095 0.69207 0.39939 0.0
C875 C 0.13964 0.66398 0.39246 0.0
C876 C 0.14442 0.6585 0.37104 0.0
H877 H 1.06192 0.58519 0.31564 0.0
H878 H 1.09599 0.59152 0.33823 0.0
H879 H 1.07109 0.61751 0.33959 0.0
H880 H 0.12944 0.72702 0.35184 0.0
H881 H 0.12176 0.73724 0.38942 0.0
loop_
_geom_bond_atom_site_label_1
_geom_bond_atom_site_label_2
_geom_bond_distance
_geom_bond_site_symmetry_2
_ccdc_geom_bond_type
Tb0 C10 2.825 . S
Tb0 O11 2.347 . S
Tb0 O14 2.366 . S
Tb0 O19 2.418 . S
Tb0 O20 2.384 . S
Tb0 O23 2.479 . S
Tb0 O24 2.471 . S
Eu1 O12 2.418 . S
Eu1 O13 2.384 . S
Eu1 O16 2.479 1_455 S
Eu1 O17 2.471 1_455 S
Eu1 O18 2.347 . S
Eu1 O21 2.366 1_455 S
Eu1 C31 2.825 1_455 S
C2 O18 1.259 . S
C2 O19 1.265 . S
C3 O20 1.255 1_655 S
C3 O21 1.265 . S
C4 C6 1.380 . S
C4 C7 1.374 . S
C4 C10 1.507 . S
C5 C6 1.384 . S
C5 C9 1.387 . S
C5 H32 0.930 . S
C6 C4 1.380 . S
C6 C5 1.384 . S
C6 H33 0.931 . S
C7 C4 1.374 . S
C7 C8 1.390 . S
C7 H34 0.930 . S
C8 C7 1.390 . S
C8 C9 1.391 . S
C8 H35 0.930 . S
C9 C5 1.387 . S
C9 C8 1.391 . S
C10 Tb0 2.825 . S
C10 C4 1.507 . S
C10 O23 1.238 . S
C10 O24 1.247 . S
O11 Tb0 2.347 . S
O11 C15 1.259 . S
O12 Eu1 2.418 . S
O12 C15 1.265 . S
O13 Eu1 2.384 . S
O13 C22 1.255 . S
O14 Tb0 2.366 . S
O14 C22 1.265 . S
C15 O11 1.259 . S
C15 O12 1.265 . S
O16 Eu1 2.479 1_655 S
O16 C31 1.238 . S
O17 Eu1 2.471 1_655 S
O17 C31 1.247 . S
O18 Eu1 2.347 . S
O18 C2 1.259 . S
O19 Tb0 2.418 . S
O19 C2 1.265 . S
O20 Tb0 2.384 . S
O20 C3 1.255 1_455 S
O21 Eu1 2.366 1_655 S
O21 C3 1.265 . S
C22 O13 1.255 . S
C22 O14 1.265 . S
O23 Tb0 2.479 . S
O23 C10 1.238 . S
O24 Tb0 2.471 . S
O24 C10 1.247 . S
C25 C28 1.380 . S
C25 C29 1.374 . S
C25 C31 1.507 . S
C26 C27 1.387 . S
C26 C30 1.391 . S
C27 C26 1.387 . S
C27 C28 1.384 . S
C27 H36 0.930 . S
C28 C25 1.380 . S
C28 C27 1.384 . S
C28 H37 0.931 . S
C29 C25 1.374 . S
C29 C30 1.390 . S
C29 H38 0.930 . S
C30 C26 1.391 . S
C30 C29 1.390 . S
C30 H39 0.930 . S
C31 Eu1 2.825 1_655 S
C31 O16 1.238 . S
C31 O17 1.247 . S
C31 C25 1.507 . S
H32 C5 0.930 . S
H33 C6 0.931 . S
H34 C7 0.930 . S
H35 C8 0.930 . S
H36 C27 0.930 . S
H37 C28 0.931 . S
H38 C29 0.930 . S
H39 C30 0.930 . S
Tb40 C50 2.825 . S
Tb40 O51 2.347 . S
Tb40 O54 2.366 . S
Tb40 O59 2.418 . S
Tb40 O60 2.384 . S
Tb40 O63 2.479 . S
Tb40 O64 2.471 . S
Eu41 O52 2.418 . S
Eu41 O53 2.384 . S
Eu41 O56 2.479 1_545 S
Eu41 O57 2.471 1_545 S
Eu41 O58 2.347 . S
Eu41 O61 2.366 . S
Eu41 C71 2.825 1_545 S
C42 O58 1.259 . S
C42 O59 1.265 . S
C43 O60 1.255 . S
C43 O61 1.265 . S
C44 C46 1.380 . S
C44 C47 1.374 . S
C44 C50 1.507 . S
C45 C46 1.384 . S
C45 C49 1.387 . S
C45 H72 0.930 . S
C46 C44 1.380 . S
C46 C45 1.384 . S
C46 H73 0.931 . S
C47 C44 1.374 . S
C47 C48 1.390 . S
C47 H74 0.930 . S
C48 C47 1.390 . S
C48 C49 1.391 . S
C48 H75 0.930 . S
C49 C45 1.387 . S
C49 C48 1.391 . S
C50 Tb40 2.825 . S
C50 C44 1.507 . S
C50 O63 1.238 . S
C50 O64 1.247 . S
O51 Tb40 2.347 . S
O51 C55 1.259 . S
O52 Eu41 2.418 . S
O52 C55 1.265 . S
O53 Eu41 2.384 . S
O53 C62 1.255 . S
O54 Tb40 2.366 . S
O54 C62 1.265 . S
C55 O51 1.259 . S
C55 O52 1.265 . S
O56 Eu41 2.479 1_565 S
O56 C71 1.238 . S
O57 Eu41 2.471 1_565 S
O57 C71 1.247 . S
O58 Eu41 2.347 . S
O58 C42 1.259 . S
O59 Tb40 2.418 . S
O59 C42 1.265 . S
O60 Tb40 2.384 . S
O60 C43 1.255 . S
O61 Eu41 2.366 . S
O61 C43 1.265 . S
C62 O53 1.255 . S
C62 O54 1.265 . S
O63 Tb40 2.479 . S
O63 C50 1.238 . S
O64 Tb40 2.471 . S
O64 C50 1.247 . S
C65 C68 1.380 . S
C65 C69 1.374 . S
C65 C71 1.507 . S
C66 C67 1.387 . S
C66 C70 1.391 . S
C67 C66 1.387 . S
C67 C68 1.384 . S
C67 H76 0.930 . S
C68 C65 1.380 . S
C68 C67 1.384 . S
C68 H77 0.931 . S
C69 C65 1.374 . S
C69 C70 1.390 . S
C69 H78 0.930 . S
C70 C66 1.391 . S
C70 C69 1.390 . S
C70 H79 0.930 . S
C71 Eu41 2.825 1_565 S
C71 O56 1.238 . S
C71 O57 1.247 . S
C71 C65 1.507 . S
H72 C45 0.930 . S
H73 C46 0.931 . S
H74 C47 0.930 . S
H75 C48 0.930 . S
H76 C67 0.930 . S
H77 C68 0.931 . S
H78 C69 0.930 . S
H79 C70 0.930 . S
Tb80 C90 2.825 . S
Tb80 O91 2.347 . S
Tb80 O94 2.366 . S
Tb80 O99 2.418 . S
Tb80 O100 2.384 . S
Tb80 O103 2.479 . S
Tb80 O104 2.471 . S
Eu81 O92 2.418 . S
Eu81 O93 2.384 . S
Eu81 O96 2.479 . S
Eu81 O97 2.471 . S
Eu81 O98 2.347 . S
Eu81 O101 2.366 . S
Eu81 C111 2.825 . S
C82 O98 1.259 . S
C82 O99 1.265 . S
C83 O100 1.255 . S
C83 O101 1.265 . S
C84 C86 1.380 . S
C84 C87 1.374 . S
C84 C90 1.507 . S
C85 C86 1.384 . S
C85 C89 1.387 . S
C85 H112 0.930 . S
C86 C84 1.380 . S
C86 C85 1.384 . S
C86 H113 0.931 . S
C87 C84 1.374 . S
C87 C88 1.390 . S
C87 H114 0.930 . S
C88 C87 1.390 . S
C88 C89 1.391 . S
C88 H115 0.930 . S
C89 C85 1.387 . S
C89 C88 1.391 . S
C90 Tb80 2.825 . S
C90 C84 1.507 . S
C90 O103 1.238 . S
C90 O104 1.247 . S
O91 Tb80 2.347 . S
O91 C95 1.259 . S
O92 Eu81 2.418 . S
O92 C95 1.265 . S
O93 Eu81 2.384 . S
O93 C102 1.255 . S
O94 Tb80 2.366 . S
O94 C102 1.265 . S
C95 O91 1.259 . S
C95 O92 1.265 . S
O96 Eu81 2.479 . S
O96 C111 1.238 . S
O97 Eu81 2.471 . S
O97 C111 1.247 . S
O98 Eu81 2.347 . S
O98 C82 1.259 . S
O99 Tb80 2.418 . S
O99 C82 1.265 . S
O100 Tb80 2.384 . S
O100 C83 1.255 . S
O101 Eu81 2.366 . S
O101 C83 1.265 . S
C102 O93 1.255 . S
C102 O94 1.265 . S
O103 Tb80 2.479 . S
O103 C90 1.238 . S
O104 Tb80 2.471 . S
O104 C90 1.247 . S
C105 C108 1.380 . S
C105 C109 1.374 . S
C105 C111 1.507 . S
C106 C107 1.387 . S
C106 C110 1.391 . S
C107 C106 1.387 . S
C107 C108 1.384 . S
C107 H116 0.930 . S
C108 C105 1.380 . S
C108 C107 1.384 . S
C108 H117 0.931 . S
C109 C105 1.374 . S
C109 C110 1.390 . S
C109 H118 0.930 . S
C110 C106 1.391 . S
C110 C109 1.390 . S
C110 H119 0.930 . S
C111 Eu81 2.825 . S
C111 O96 1.238 . S
C111 O97 1.247 . S
C111 C105 1.507 . S
H112 C85 0.930 . S
H113 C86 0.931 . S
H114 C87 0.930 . S
H115 C88 0.930 . S
H116 C107 0.930 . S
H117 C108 0.931 . S
H118 C109 0.930 . S
H119 C110 0.930 . S
H120 C121 0.949 . S
C121 H120 0.949 . S
C121 C122 1.395 . S
C121 C123 1.391 . S
C122 C121 1.395 . S
C122 C125 1.390 . S
C123 C121 1.391 . S
C123 C127 1.387 . S
C123 C128 1.491 . S
H124 C125 0.950 . S
C125 C122 1.390 . S
C125 H124 0.950 . S
C125 C126 1.378 . S
C126 C125 1.378 . S
C126 C127 1.409 . S
C127 C123 1.387 . S
C127 C126 1.409 . S
C127 H129 0.951 . S
C128 C123 1.491 . S
C128 C130 1.382 . S
C128 C132 1.404 . S
H129 C127 0.951 . S
C130 C128 1.382 . S
C130 C131 1.390 . S
C130 H135 0.949 . S
C131 C130 1.390 . S
C131 C136 1.399 . S
C132 C128 1.404 . S
C132 H133 0.950 . S
C132 C134 1.375 . S
H133 C132 0.950 . S
C134 C132 1.375 . S
C134 C136 1.382 . S
C134 H138 0.950 . S
H135 C130 0.949 . S
C136 C131 1.399 . S
C136 C134 1.382 . S
C136 H137 0.952 . S
H137 C136 0.952 . S
H138 C134 0.950 . S
H139 C140 0.949 . S
C140 H139 0.949 . S
C140 C141 1.395 . S
C140 C142 1.391 . S
C141 C140 1.395 . S
C141 C144 1.390 . S
C142 C140 1.391 . S
C142 C146 1.387 . S
C142 C147 1.491 . S
H143 C144 0.950 . S
C144 C141 1.390 . S
C144 H143 0.950 . S
C144 C145 1.378 . S
C145 C144 1.378 . S
C145 C146 1.409 . S
C146 C142 1.387 . S
C146 C145 1.409 . S
C146 H148 0.951 . S
C147 C142 1.491 . S
C147 C149 1.382 . S
C147 C151 1.404 . S
H148 C146 0.951 . S
C149 C147 1.382 . S
C149 C150 1.390 . S
C149 H154 0.949 . S
C150 C149 1.390 . S
C150 C155 1.399 . S
C151 C147 1.404 . S
C151 H152 0.950 . S
C151 C153 1.375 . S
H152 C151 0.950 . S
C153 C151 1.375 . S
C153 C155 1.382 . S
C153 H157 0.950 . S
H154 C149 0.949 . S
C155 C150 1.399 . S
C155 C153 1.382 . S
C155 H156 0.952 . S
H156 C155 0.952 . S
H157 C153 0.950 . S
H158 C159 0.949 . S
C159 H158 0.949 . S
C159 C160 1.395 . S
C159 C161 1.391 . S
C160 C159 1.395 . S
C160 C163 1.374 1_455 S
C161 C159 1.391 . S
C161 C165 1.387 . S
C161 C166 1.491 . S
H162 C163 0.965 . S
C163 C160 1.374 1_655 S
C163 H162 0.965 . S
C163 C164 1.379 . S
C164 C163 1.379 . S
C164 C165 1.409 1_655 S
C165 C161 1.387 . S
C165 C164 1.409 1_455 S
C165 H167 0.951 . S
C166 C161 1.491 . S
C166 C168 1.382 . S
C166 C170 1.404 . S
H167 C165 0.951 . S
C168 C166 1.382 . S
C168 C169 1.390 . S
C168 H173 0.949 . S
C169 C168 1.390 . S
C169 C174 1.399 . S
C170 C166 1.404 . S
C170 H171 0.950 . S
C170 C172 1.375 . S
H171 C170 0.950 . S
C172 C170 1.375 . S
C172 C174 1.382 . S
C172 H176 0.950 . S
H173 C168 0.949 . S
C174 C169 1.399 . S
C174 C172 1.382 . S
C174 H175 0.952 . S
H175 C174 0.952 . S
H176 C172 0.950 . S
H177 C178 0.949 1_655 S
C178 H177 0.949 1_455 S
C178 C179 1.395 . S
C178 C180 1.391 . S
C179 C178 1.395 . S
C179 C182 1.390 . S
C180 C178 1.391 . S
C180 C184 1.387 . S
C180 C185 1.491 1_455 S
H181 C182 0.950 . S
C182 C179 1.390 . S
C182 H181 0.950 . S
C182 C183 1.378 . S
C183 C182 1.378 . S
C183 C184 1.409 . S
C184 C180 1.387 . S
C184 C183 1.409 . S
C184 H186 0.951 . S
C185 C180 1.491 1_655 S
C185 C187 1.382 . S
C185 C189 1.404 . S
H186 C184 0.951 . S
C187 C185 1.382 . S
C187 C188 1.390 . S
C187 H192 0.949 . S
C188 C187 1.390 . S
C188 C193 1.399 . S
C189 C185 1.404 . S
C189 H190 0.950 . S
C189 C191 1.375 . S
H190 C189 0.950 . S
C191 C189 1.375 . S
C191 C193 1.382 . S
C191 H195 0.950 . S
H192 C187 0.949 . S
C193 C188 1.399 . S
C193 C191 1.382 . S
C193 H194 0.952 . S
H194 C193 0.952 . S
H195 C191 0.950 . S
H196 C197 0.949 1_565 S
C197 H196 0.949 1_545 S
C197 C198 1.395 . S
C197 C199 1.391 . S
C198 C197 1.395 . S
C198 C201 1.390 . S
C199 C197 1.391 . S
C199 C203 1.387 . S
C199 C204 1.491 1_545 S
H200 C201 0.950 . S
C201 C198 1.390 . S
C201 H200 0.950 . S
C201 C202 1.378 . S
C202 C201 1.378 . S
C202 C203 1.409 . S
C203 C199 1.387 . S
C203 C202 1.409 . S
C203 H205 0.951 . S
C204 C199 1.491 1_565 S
C204 C206 1.382 . S
C204 C208 1.404 . S
H205 C203 0.951 . S
C206 C204 1.382 . S
C206 C207 1.390 . S
C206 H211 0.949 . S
C207 C206 1.390 . S
C207 C212 1.399 . S
C208 C204 1.404 . S
C208 H209 0.950 . S
C208 C210 1.375 . S
H209 C208 0.950 . S
C210 C208 1.375 . S
C210 C212 1.382 . S
C210 H214 0.950 . S
H211 C206 0.949 . S
C212 C207 1.399 . S
C212 C210 1.382 . S
C212 H213 0.952 . S
H213 C212 0.952 . S
H214 C210 0.950 . S
H215 C216 0.949 . S
C216 H215 0.949 . S
C216 C217 1.395 . S
C216 C218 1.391 . S
C217 C216 1.395 . S
C217 C220 1.390 . S
C218 C216 1.391 . S
C218 C222 1.387 . S
C218 C223 1.491 . S
H219 C220 0.950 . S
C220 C217 1.390 . S
C220 H219 0.950 . S
C220 C221 1.378 . S
C221 C220 1.378 . S
C221 C222 1.409 . S
C222 C218 1.387 . S
C222 C221 1.409 . S
C222 H224 0.951 . S
C223 C218 1.491 . S
C223 C225 1.382 . S
C223 C227 1.404 . S
H224 C222 0.951 . S
C225 C223 1.382 . S
C225 C226 1.390 . S
C225 H230 0.949 . S
C226 C225 1.390 . S
C226 C231 1.399 . S
C227 C223 1.404 . S
C227 H228 0.950 . S
C227 C229 1.375 . S
H228 C227 0.950 . S
C229 C227 1.375 . S
C229 C231 1.382 . S
C229 H233 0.950 . S
H230 C225 0.949 . S
C231 C226 1.399 . S
C231 C229 1.382 . S
C231 H232 0.952 . S
H232 C231 0.952 . S
H233 C229 0.950 . S
H234 C242 0.929 . S
H235 C244 0.930 . S
H236 C246 0.930 . S
H237 C249 0.929 . S
H238 C252 0.930 . S
H239 C254 0.960 . S
H240 C254 0.960 . S
H241 C254 0.960 . S
C242 H234 0.929 . S
C242 C243 1.377 . S
C242 C244 1.384 . S
C243 C242 1.377 . S
C243 C249 1.390 . S
C244 H235 0.930 . S
C244 C242 1.384 . S
C244 C245 1.372 . S
C245 C244 1.372 . S
C245 C246 1.400 . S
C245 C250 1.490 . S
C246 H236 0.930 . S
C246 C245 1.400 . S
C246 C249 1.386 . S
H247 C263 0.930 . S
H248 C264 0.931 . S
C249 H237 0.929 . S
C249 C243 1.390 . S
C249 C246 1.386 . S
C250 C245 1.490 . S
C250 C252 1.395 . S
C250 C253 1.403 . S
H251 C257 0.930 . S
C252 H238 0.930 . S
C252 C250 1.395 . S
C252 C255 1.403 . S
C253 C250 1.403 . S
C253 C254 1.524 . S
C253 C257 1.400 . S
C254 H239 0.960 . S
C254 H240 0.960 . S
C254 H241 0.960 . S
C254 C253 1.524 . S
C255 C252 1.403 . S
C255 C256 1.392 . S
C255 C259 1.495 . S
C256 C255 1.392 . S
C256 C257 1.385 . S
C256 C258 1.478 . S
C257 H251 0.930 . S
C257 C253 1.400 . S
C257 C256 1.385 . S
C258 C256 1.478 . S
C258 C260 1.381 . S
C258 C264 1.383 . S
C259 C255 1.495 . S
C259 H265 0.959 . S
C259 H266 0.961 . S
C259 H267 0.960 . S
C260 C258 1.381 . S
C260 C261 1.394 . S
C260 H268 0.930 . S
C261 C260 1.394 . S
C261 C262 1.383 . S
C261 H269 0.929 . S
C262 C261 1.383 . S
C262 C263 1.377 . S
C263 H247 0.930 . S
C263 C262 1.377 . S
C263 C264 1.379 . S
C264 H248 0.931 . S
C264 C258 1.383 . S
C264 C263 1.379 . S
H265 C259 0.959 . S
H266 C259 0.961 . S
H267 C259 0.960 . S
H268 C260 0.930 . S
H269 C261 0.929 . S
H270 C278 0.929 . S
H271 C280 0.930 . S
H272 C282 0.930 . S
H273 C285 0.929 . S
H274 C288 0.930 . S
H275 C290 0.960 . S
H276 C290 0.960 . S
H277 C290 0.960 . S
C278 H270 0.929 . S
C278 C279 1.377 . S
C278 C280 1.384 . S
C279 C278 1.377 . S
C279 C285 1.390 . S
C280 H271 0.930 . S
C280 C278 1.384 . S
C280 C281 1.372 . S
C281 C280 1.372 . S
C281 C282 1.400 . S
C281 C286 1.490 . S
C282 H272 0.930 . S
C282 C281 1.400 . S
C282 C285 1.386 . S
H283 C299 0.930 . S
H284 C300 0.931 . S
C285 H273 0.929 . S
C285 C279 1.390 . S
C285 C282 1.386 . S
C286 C281 1.490 . S
C286 C288 1.395 . S
C286 C289 1.403 . S
H287 C293 0.930 . S
C288 H274 0.930 . S
C288 C286 1.395 . S
C288 C291 1.403 . S
C289 C286 1.403 . S
C289 C290 1.524 . S
C289 C293 1.400 . S
C290 H275 0.960 . S
C290 H276 0.960 . S
C290 H277 0.960 . S
C290 C289 1.524 . S
C291 C288 1.403 . S
C291 C292 1.392 . S
C291 C295 1.495 . S
C292 C291 1.392 . S
C292 C293 1.385 . S
C292 C294 1.478 . S
C293 H287 0.930 . S
C293 C289 1.400 . S
C293 C292 1.385 . S
C294 C292 1.478 . S
C294 C296 1.381 . S
C294 C300 1.383 . S
C295 C291 1.495 . S
C295 H301 0.959 . S
C295 H302 0.961 . S
C295 H303 0.960 . S
C296 C294 1.381 . S
C296 C297 1.394 . S
C296 H304 0.930 . S
C297 C296 1.394 . S
C297 C298 1.383 . S
C297 H305 0.929 . S
C298 C297 1.383 . S
C298 C299 1.377 . S
C299 H283 0.930 . S
C299 C298 1.377 . S
C299 C300 1.379 . S
C300 H284 0.931 . S
C300 C294 1.383 . S
C300 C299 1.379 . S
H301 C295 0.959 . S
H302 C295 0.961 . S
H303 C295 0.960 . S
H304 C296 0.930 . S
H305 C297 0.929 . S
H306 C314 0.929 . S
H307 C316 0.930 . S
H308 C318 0.930 . S
H309 C321 0.929 . S
H310 C324 0.930 . S
H311 C326 0.960 . S
H312 C326 0.960 . S
H313 C326 0.960 . S
C314 H306 0.929 . S
C314 C315 1.377 . S
C314 C316 1.384 . S
C315 C314 1.377 . S
C315 C321 1.390 . S
C316 H307 0.930 . S
C316 C314 1.384 . S
C316 C317 1.372 . S
C317 C316 1.372 . S
C317 C318 1.400 . S
C317 C322 1.490 . S
C318 H308 0.930 . S
C318 C317 1.400 . S
C318 C321 1.386 . S
H319 C335 0.930 . S
H320 C336 0.931 . S
C321 H309 0.929 . S
C321 C315 1.390 . S
C321 C318 1.386 . S
C322 C317 1.490 . S
C322 C324 1.395 . S
C322 C325 1.403 . S
H323 C329 0.930 . S
C324 H310 0.930 . S
C324 C322 1.395 . S
C324 C327 1.403 . S
C325 C322 1.403 . S
C325 C326 1.524 . S
C325 C329 1.400 . S
C326 H311 0.960 . S
C326 H312 0.960 . S
C326 H313 0.960 . S
C326 C325 1.524 . S
C327 C324 1.403 . S
C327 C328 1.392 . S
C327 C331 1.495 . S
C328 C327 1.392 . S
C328 C329 1.385 . S
C328 C330 1.478 . S
C329 H323 0.930 . S
C329 C325 1.400 . S
C329 C328 1.385 . S
C330 C328 1.478 . S
C330 C332 1.381 . S
C330 C336 1.383 . S
C331 C327 1.495 . S
C331 H337 0.959 . S
C331 H338 0.961 . S
C331 H339 0.960 . S
C332 C330 1.381 . S
C332 C333 1.394 . S
C332 H340 0.930 . S
C333 C332 1.394 . S
C333 C334 1.383 . S
C333 H341 0.929 . S
C334 C333 1.383 . S
C334 C335 1.377 . S
C335 H319 0.930 . S
C335 C334 1.377 . S
C335 C336 1.379 . S
C336 H320 0.931 . S
C336 C330 1.383 . S
C336 C335 1.379 . S
H337 C331 0.959 . S
H338 C331 0.961 . S
H339 C331 0.960 . S
H340 C332 0.930 . S
H341 C333 0.929 . S
H342 C350 0.929 . S
H343 C352 0.930 . S
H344 C354 0.930 . S
H345 C357 0.929 . S
H346 C360 0.930 . S
H347 C362 0.960 . S
H348 C362 0.960 . S
H349 C362 0.960 . S
C350 H342 0.929 . S
C350 C351 1.377 . S
C350 C352 1.384 . S
C351 C350 1.377 . S
C351 C357 1.390 . S
C352 H343 0.930 . S
C352 C350 1.384 . S
C352 C353 1.372 . S
C353 C352 1.372 . S
C353 C354 1.400 . S
C353 C358 1.490 . S
C354 H344 0.930 . S
C354 C353 1.400 . S
C354 C357 1.386 . S
H355 C371 0.930 . S
H356 C372 0.931 . S
C357 H345 0.929 . S
C357 C351 1.390 . S
C357 C354 1.386 . S
C358 C353 1.490 . S
C358 C360 1.395 . S
C358 C361 1.403 . S
H359 C365 0.930 . S
C360 H346 0.930 . S
C360 C358 1.395 . S
C360 C363 1.403 . S
C361 C358 1.403 . S
C361 C362 1.524 . S
C361 C365 1.400 . S
C362 H347 0.960 . S
C362 H348 0.960 . S
C362 H349 0.960 . S
C362 C361 1.524 . S
C363 C360 1.403 . S
C363 C364 1.392 . S
C363 C367 1.495 . S
C364 C363 1.392 . S
C364 C365 1.385 . S
C364 C366 1.478 . S
C365 H359 0.930 . S
C365 C361 1.400 . S
C365 C364 1.385 . S
C366 C364 1.478 . S
C366 C368 1.381 . S
C366 C372 1.383 . S
C367 C363 1.495 . S
C367 H373 0.959 . S
C367 H374 0.961 . S
C367 H375 0.960 . S
C368 C366 1.381 . S
C368 C369 1.394 . S
C368 H376 0.930 . S
C369 C368 1.394 . S
C369 C370 1.383 . S
C369 H377 0.929 . S
C370 C369 1.383 . S
C370 C371 1.377 . S
C371 H355 0.930 . S
C371 C370 1.377 . S
C371 C372 1.379 . S
C372 H356 0.931 . S
C372 C366 1.383 . S
C372 C371 1.379 . S
H373 C367 0.959 . S
H374 C367 0.961 . S
H375 C367 0.960 . S
H376 C368 0.930 . S
H377 C369 0.929 . S
H378 C386 0.929 . S
H379 C388 0.930 . S
H380 C390 0.930 . S
H381 C393 0.929 . S
H382 C396 0.930 . S
H383 C398 0.960 . S
H384 C398 0.960 . S
H385 C398 0.960 . S
C386 H378 0.929 . S
C386 C387 1.377 . S
C386 C388 1.384 . S
C387 C386 1.377 . S
C387 C393 1.390 . S
C388 H379 0.930 . S
C388 C386 1.384 . S
C388 C389 1.372 . S
C389 C388 1.372 . S
C389 C390 1.400 . S
C389 C394 1.490 . S
C390 H380 0.930 . S
C390 C389 1.400 . S
C390 C393 1.386 . S
H391 C407 0.930 . S
H392 C408 0.931 . S
C393 H381 0.929 . S
C393 C387 1.390 . S
C393 C390 1.386 . S
C394 C389 1.490 . S
C394 C396 1.395 . S
C394 C397 1.403 . S
H395 C401 0.930 . S
C396 H382 0.930 . S
C396 C394 1.395 . S
C396 C399 1.403 . S
C397 C394 1.403 . S
C397 C398 1.524 . S
C397 C401 1.400 . S
C398 H383 0.960 . S
C398 H384 0.960 . S
C398 H385 0.960 . S
C398 C397 1.524 . S
C399 C396 1.403 . S
C399 C400 1.392 . S
C399 C403 1.495 . S
C400 C399 1.392 . S
C400 C401 1.385 . S
C400 C402 1.478 . S
C401 H395 0.930 . S
C401 C397 1.400 . S
C401 C400 1.385 . S
C402 C400 1.478 . S
C402 C404 1.381 . S
C402 C408 1.383 . S
C403 C399 1.495 . S
C403 H409 0.959 . S
C403 H410 0.961 . S
C403 H411 0.960 . S
C404 C402 1.381 . S
C404 C405 1.394 . S
C404 H412 0.930 . S
C405 C404 1.394 . S
C405 C406 1.383 . S
C405 H413 0.929 . S
C406 C405 1.383 . S
C406 C407 1.377 . S
C407 H391 0.930 . S
C407 C406 1.377 . S
C407 C408 1.379 . S
C408 H392 0.931 . S
C408 C402 1.383 . S
C408 C407 1.379 . S
H409 C403 0.959 . S
H410 C403 0.961 . S
H411 C403 0.960 . S
H412 C404 0.930 . S
H413 C405 0.929 . S
H414 C422 0.929 . S
H415 C424 0.930 . S
H416 C426 0.930 . S
H417 C429 0.929 . S
H418 C432 0.930 . S
H419 C434 0.960 . S
H420 C434 0.960 . S
H421 C434 0.960 . S
C422 H414 0.929 . S
C422 C423 1.377 . S
C422 C424 1.384 . S
C423 C422 1.377 . S
C423 C429 1.390 . S
C424 H415 0.930 . S
C424 C422 1.384 . S
C424 C425 1.372 . S
C425 C424 1.372 . S
C425 C426 1.400 . S
C425 C430 1.490 . S
C426 H416 0.930 . S
C426 C425 1.400 . S
C426 C429 1.386 . S
H427 C443 0.930 . S
H428 C444 0.931 . S
C429 H417 0.929 . S
C429 C423 1.390 . S
C429 C426 1.386 . S
C430 C425 1.490 . S
C430 C432 1.395 . S
C430 C433 1.403 . S
H431 C437 0.930 . S
C432 H418 0.930 . S
C432 C430 1.395 . S
C432 C435 1.403 . S
C433 C430 1.403 . S
C433 C434 1.524 . S
C433 C437 1.400 . S
C434 H419 0.960 . S
C434 H420 0.960 . S
C434 H421 0.960 . S
C434 C433 1.524 . S
C435 C432 1.403 . S
C435 C436 1.392 . S
C435 C439 1.495 . S
C436 C435 1.392 . S
C436 C437 1.385 . S
C436 C438 1.478 . S
C437 H431 0.930 . S
C437 C433 1.400 . S
C437 C436 1.385 . S
C438 C436 1.478 . S
C438 C440 1.381 . S
C438 C444 1.383 . S
C439 C435 1.495 . S
C439 H445 0.959 . S
C439 H446 0.961 . S
C439 H447 0.960 . S
C440 C438 1.381 . S
C440 C441 1.394 . S
C440 H448 0.930 . S
C441 C440 1.394 . S
C441 C442 1.383 . S
C441 H449 0.929 . S
C442 C441 1.383 . S
C442 C443 1.377 . S
C443 H427 0.930 . S
C443 C442 1.377 . S
C443 C444 1.379 . S
C444 H428 0.931 . S
C444 C438 1.383 . S
C444 C443 1.379 . S
H445 C439 0.959 . S
H446 C439 0.961 . S
H447 C439 0.960 . S
H448 C440 0.930 . S
H449 C441 0.929 . S
H450 C458 0.929 . S
H451 C460 0.930 . S
H452 C462 0.930 . S
H453 C465 0.929 . S
H454 C468 0.930 . S
H455 C470 0.960 . S
H456 C470 0.960 . S
H457 C470 0.960 . S
C458 H450 0.929 . S
C458 C459 1.377 . S
C458 C460 1.384 . S
C459 C458 1.377 . S
C459 C465 1.390 . S
C460 H451 0.930 . S
C460 C458 1.384 . S
C460 C461 1.372 . S
C461 C460 1.372 . S
C461 C462 1.400 . S
C461 C466 1.490 . S
C462 H452 0.930 . S
C462 C461 1.400 . S
C462 C465 1.386 . S
H463 C479 0.930 . S
H464 C480 0.931 . S
C465 H453 0.929 . S
C465 C459 1.390 . S
C465 C462 1.386 . S
C466 C461 1.490 . S
C466 C468 1.395 . S
C466 C469 1.403 . S
H467 C473 0.930 . S
C468 H454 0.930 . S
C468 C466 1.395 . S
C468 C471 1.403 . S
C469 C466 1.403 . S
C469 C470 1.524 . S
C469 C473 1.400 . S
C470 H455 0.960 . S
C470 H456 0.960 . S
C470 H457 0.960 . S
C470 C469 1.524 . S
C471 C468 1.403 . S
C471 C472 1.392 . S
C471 C475 1.495 . S
C472 C471 1.392 . S
C472 C473 1.385 . S
C472 C474 1.478 . S
C473 H467 0.930 . S
C473 C469 1.400 . S
C473 C472 1.385 . S
C474 C472 1.478 . S
C474 C476 1.381 . S
C474 C480 1.383 . S
C475 C471 1.495 . S
C475 H481 0.959 . S
C475 H482 0.961 . S
C475 H483 0.960 . S
C476 C474 1.381 . S
C476 C477 1.394 . S
C476 H484 0.930 . S
C477 C476 1.394 . S
C477 C478 1.383 . S
C477 H485 0.929 . S
C478 C477 1.383 . S
C478 C479 1.377 . S
C479 H463 0.930 . S
C479 C478 1.377 . S
C479 C480 1.379 . S
C480 H464 0.931 . S
C480 C474 1.383 . S
C480 C479 1.379 . S
H481 C475 0.959 . S
H482 C475 0.961 . S
H483 C475 0.960 . S
H484 C476 0.930 . S
H485 C477 0.929 . S
H486 C494 0.929 . S
H487 C496 0.930 . S
H488 C498 0.930 . S
H489 C501 0.929 . S
H490 C504 0.930 . S
H491 C506 0.960 . S
H492 C506 0.960 . S
H493 C506 0.960 . S
C494 H486 0.929 . S
C494 C495 1.377 . S
C494 C496 1.384 . S
C495 C494 1.377 . S
C495 C501 1.390 . S
C496 H487 0.930 . S
C496 C494 1.384 . S
C496 C497 1.372 . S
C497 C496 1.372 . S
C497 C498 1.400 . S
C497 C502 1.490 . S
C498 H488 0.930 . S
C498 C497 1.400 . S
C498 C501 1.386 . S
H499 C515 0.930 . S
H500 C516 0.931 . S
C501 H489 0.929 . S
C501 C495 1.390 . S
C501 C498 1.386 . S
C502 C497 1.490 . S
C502 C504 1.395 . S
C502 C505 1.403 . S
H503 C509 0.930 . S
C504 H490 0.930 . S
C504 C502 1.395 . S
C504 C507 1.403 . S
C505 C502 1.403 . S
C505 C506 1.524 . S
C505 C509 1.400 . S
C506 H491 0.960 . S
C506 H492 0.960 . S
C506 H493 0.960 . S
C506 C505 1.524 . S
C507 C504 1.403 . S
C507 C508 1.392 . S
C507 C511 1.495 . S
C508 C507 1.392 . S
C508 C509 1.385 . S
C508 C510 1.478 . S
C509 H503 0.930 . S
C509 C505 1.400 . S
C509 C508 1.385 . S
C510 C508 1.478 . S
C510 C512 1.381 . S
C510 C516 1.383 . S
C511 C507 1.495 . S
C511 H517 0.959 . S
C511 H518 0.961 . S
C511 H519 0.960 . S
C512 C510 1.381 . S
C512 C513 1.394 . S
C512 H520 0.930 . S
C513 C512 1.394 . S
C513 C514 1.383 . S
C513 H521 0.929 . S
C514 C513 1.383 . S
C514 C515 1.377 . S
C515 H499 0.930 . S
C515 C514 1.377 . S
C515 C516 1.379 . S
C516 H500 0.931 . S
C516 C510 1.383 . S
C516 C515 1.379 . S
H517 C511 0.959 . S
H518 C511 0.961 . S
H519 C511 0.960 . S
H520 C512 0.930 . S
H521 C513 0.929 . S
H522 C530 0.929 . S
H523 C532 0.930 . S
H524 C534 0.930 . S
H525 C537 0.929 . S
H526 C540 0.930 . S
H527 C542 0.960 . S
H528 C542 0.960 . S
H529 C542 0.960 . S
C530 H522 0.929 . S
C530 C531 1.377 . S
C530 C532 1.384 . S
C531 C530 1.377 . S
C531 C537 1.390 . S
C532 H523 0.930 . S
C532 C530 1.384 . S
C532 C533 1.372 . S
C533 C532 1.372 . S
C533 C534 1.400 . S
C533 C538 1.490 . S
C534 H524 0.930 . S
C534 C533 1.400 . S
C534 C537 1.386 . S
H535 C551 0.930 . S
H536 C552 0.931 . S
C537 H525 0.929 . S
C537 C531 1.390 . S
C537 C534 1.386 . S
C538 C533 1.490 . S
C538 C540 1.395 . S
C538 C541 1.403 . S
H539 C545 0.930 . S
C540 H526 0.930 . S
C540 C538 1.395 . S
C540 C543 1.403 . S
C541 C538 1.403 . S
C541 C542 1.524 . S
C541 C545 1.400 . S
C542 H527 0.960 . S
C542 H528 0.960 . S
C542 H529 0.960 . S
C542 C541 1.524 . S
C543 C540 1.403 . S
C543 C544 1.392 . S
C543 C547 1.495 . S
C544 C543 1.392 . S
C544 C545 1.385 . S
C544 C546 1.478 . S
C545 H539 0.930 . S
C545 C541 1.400 . S
C545 C544 1.385 . S
C546 C544 1.478 . S
C546 C548 1.381 . S
C546 C552 1.383 . S
C547 C543 1.495 . S
C547 H553 0.959 . S
C547 H554 0.961 . S
C547 H555 0.960 . S
C548 C546 1.381 . S
C548 C549 1.394 . S
C548 H556 0.930 . S
C549 C548 1.394 . S
C549 C550 1.383 . S
C549 H557 0.929 . S
C550 C549 1.383 . S
C550 C551 1.377 . S
C551 H535 0.930 . S
C551 C550 1.377 . S
C551 C552 1.379 . S
C552 H536 0.931 . S
C552 C546 1.383 . S
C552 C551 1.379 . S
H553 C547 0.959 . S
H554 C547 0.961 . S
H555 C547 0.960 . S
H556 C548 0.930 . S
H557 C549 0.929 . S
H558 C566 0.929 . S
H559 C568 0.930 . S
H560 C570 0.930 . S
H561 C573 0.929 . S
H562 C576 0.930 . S
H563 C578 0.960 . S
H564 C578 0.960 . S
H565 C578 0.960 . S
C566 H558 0.929 . S
C566 C567 1.377 . S
C566 C568 1.384 . S
C567 C566 1.377 . S
C567 C573 1.390 . S
C568 H559 0.930 . S
C568 C566 1.384 . S
C568 C569 1.372 . S
C569 C568 1.372 . S
C569 C570 1.400 . S
C569 C574 1.490 . S
C570 H560 0.930 . S
C570 C569 1.400 . S
C570 C573 1.386 . S
H571 C587 0.930 . S
H572 C588 0.931 . S
C573 H561 0.929 . S
C573 C567 1.390 . S
C573 C570 1.386 . S
C574 C569 1.490 . S
C574 C576 1.395 . S
C574 C577 1.403 . S
H575 C581 0.930 . S
C576 H562 0.930 . S
C576 C574 1.395 . S
C576 C579 1.403 . S
C577 C574 1.403 . S
C577 C578 1.524 . S
C577 C581 1.400 . S
C578 H563 0.960 . S
C578 H564 0.960 . S
C578 H565 0.960 . S
C578 C577 1.524 . S
C579 C576 1.403 . S
C579 C580 1.392 . S
C579 C583 1.495 . S
C580 C579 1.392 . S
C580 C581 1.385 . S
C580 C582 1.478 . S
C581 H575 0.930 . S
C581 C577 1.400 . S
C581 C580 1.385 . S
C582 C580 1.478 . S
C582 C584 1.381 . S
C582 C588 1.383 . S
C583 C579 1.495 . S
C583 H589 0.959 . S
C583 H590 0.961 . S
C583 H591 0.960 . S
C584 C582 1.381 . S
C584 C585 1.394 . S
C584 H592 0.930 . S
C585 C584 1.394 . S
C585 C586 1.383 . S
C585 H593 0.929 . S
C586 C585 1.383 . S
C586 C587 1.377 . S
C587 H571 0.930 . S
C587 C586 1.377 . S
C587 C588 1.379 . S
C588 H572 0.931 . S
C588 C582 1.383 . S
C588 C587 1.379 . S
H589 C583 0.959 . S
H590 C583 0.961 . S
H591 C583 0.960 . S
H592 C584 0.930 . S
H593 C585 0.929 . S
H594 C602 0.929 . S
H595 C604 0.930 . S
H596 C606 0.930 . S
H597 C609 0.929 . S
H598 C612 0.930 . S
H599 C614 0.960 . S
H600 C614 0.960 . S
H601 C614 0.960 . S
C602 H594 0.929 . S
C602 C603 1.377 . S
C602 C604 1.384 . S
C603 C602 1.377 . S
C603 C609 1.390 . S
C604 H595 0.930 . S
C604 C602 1.384 . S
C604 C605 1.372 . S
C605 C604 1.372 . S
C605 C606 1.400 . S
C605 C610 1.490 . S
C606 H596 0.930 . S
C606 C605 1.400 . S
C606 C609 1.386 . S
H607 C623 0.930 . S
H608 C624 0.931 . S
C609 H597 0.929 . S
C609 C603 1.390 . S
C609 C606 1.386 . S
C610 C605 1.490 . S
C610 C612 1.395 . S
C610 C613 1.403 . S
H611 C617 0.930 . S
C612 H598 0.930 . S
C612 C610 1.395 . S
C612 C615 1.403 . S
C613 C610 1.403 . S
C613 C614 1.524 . S
C613 C617 1.400 . S
C614 H599 0.960 . S
C614 H600 0.960 . S
C614 H601 0.960 . S
C614 C613 1.524 . S
C615 C612 1.403 . S
C615 C616 1.392 . S
C615 C619 1.495 . S
C616 C615 1.392 . S
C616 C617 1.385 . S
C616 C618 1.478 . S
C617 H611 0.930 . S
C617 C613 1.400 . S
C617 C616 1.385 . S
C618 C616 1.478 . S
C618 C620 1.381 . S
C618 C624 1.383 . S
C619 C615 1.495 . S
C619 H625 0.959 . S
C619 H626 0.961 . S
C619 H627 0.960 . S
C620 C618 1.381 . S
C620 C621 1.394 . S
C620 H628 0.930 . S
C621 C620 1.394 . S
C621 C622 1.383 . S
C621 H629 0.929 . S
C622 C621 1.383 . S
C622 C623 1.377 . S
C623 H607 0.930 . S
C623 C622 1.377 . S
C623 C624 1.379 . S
C624 H608 0.931 . S
C624 C618 1.383 . S
C624 C623 1.379 . S
H625 C619 0.959 . S
H626 C619 0.961 . S
H627 C619 0.960 . S
H628 C620 0.930 . S
H629 C621 0.929 . S
H630 C638 0.929 . S
H631 C640 0.930 . S
H632 C642 0.930 . S
H633 C645 0.929 . S
H634 C648 0.930 . S
H635 C650 0.960 . S
H636 C650 0.960 . S
H637 C650 0.960 . S
C638 H630 0.929 . S
C638 C639 1.377 . S
C638 C640 1.384 . S
C639 C638 1.377 . S
C639 C645 1.390 . S
C640 H631 0.930 . S
C640 C638 1.384 . S
C640 C641 1.372 . S
C641 C640 1.372 . S
C641 C642 1.400 . S
C641 C646 1.490 . S
C642 H632 0.930 . S
C642 C641 1.400 . S
C642 C645 1.386 . S
H643 C659 0.930 . S
H644 C660 0.931 . S
C645 H633 0.929 . S
C645 C639 1.390 . S
C645 C642 1.386 . S
C646 C641 1.490 . S
C646 C648 1.395 . S
C646 C649 1.403 . S
H647 C653 0.930 . S
C648 H634 0.930 . S
C648 C646 1.395 . S
C648 C651 1.403 . S
C649 C646 1.403 . S
C649 C650 1.524 . S
C649 C653 1.400 . S
C650 H635 0.960 . S
C650 H636 0.960 . S
C650 H637 0.960 . S
C650 C649 1.524 . S
C651 C648 1.403 . S
C651 C652 1.392 . S
C651 C655 1.495 . S
C652 C651 1.392 . S
C652 C653 1.385 . S
C652 C654 1.478 . S
C653 H647 0.930 . S
C653 C649 1.400 . S
C653 C652 1.385 . S
C654 C652 1.478 . S
C654 C656 1.381 . S
C654 C660 1.383 . S
C655 C651 1.495 . S
C655 H661 0.959 . S
C655 H662 0.961 . S
C655 H663 0.960 . S
C656 C654 1.381 . S
C656 C657 1.394 . S
C656 H664 0.930 . S
C657 C656 1.394 . S
C657 C658 1.383 . S
C657 H665 0.929 . S
C658 C657 1.383 . S
C658 C659 1.377 . S
C659 H643 0.930 . S
C659 C658 1.377 . S
C659 C660 1.379 . S
C660 H644 0.931 . S
C660 C654 1.383 . S
C660 C659 1.379 . S
H661 C655 0.959 . S
H662 C655 0.961 . S
H663 C655 0.960 . S
H664 C656 0.930 . S
H665 C657 0.929 . S
H666 C674 0.929 1_655 S
H667 C676 0.930 1_655 S
H668 C678 0.930 . S
H669 C681 0.929 . S
H670 C684 0.930 1_655 S
H671 C686 0.960 . S
H672 C686 0.960 . S
H673 C686 0.960 . S
C674 H666 0.929 1_455 S
C674 C675 1.377 . S
C674 C676 1.384 . S
C675 C674 1.377 . S
C675 C681 1.390 . S
C676 H667 0.930 1_455 S
C676 C674 1.384 . S
C676 C677 1.372 . S
C677 C676 1.372 . S
C677 C678 1.400 . S
C677 C682 1.490 . S
C678 H668 0.930 . S
C678 C677 1.400 . S
C678 C681 1.386 . S
H679 C695 0.930 . S
H680 C696 0.931 . S
C681 H669 0.929 . S
C681 C675 1.390 . S
C681 C678 1.386 . S
C682 C677 1.490 . S
C682 C684 1.395 . S
C682 C685 1.403 . S
H683 C689 0.930 1_556 S
C684 H670 0.930 1_455 S
C684 C682 1.395 . S
C684 C687 1.403 1_554 S
C685 C682 1.403 . S
C685 C686 1.524 . S
C685 C689 1.400 . S
C686 H671 0.960 . S
C686 H672 0.960 . S
C686 H673 0.960 . S
C686 C685 1.524 . S
C687 C684 1.403 1_556 S
C687 C688 1.392 . S
C687 C691 1.495 1_455 S
C688 C687 1.392 . S
C688 C689 1.385 1_556 S
C688 C690 1.478 . S
C689 H683 0.930 1_554 S
C689 C685 1.400 . S
C689 C688 1.385 1_554 S
C690 C688 1.478 . S
C690 C692 1.381 . S
C690 C696 1.383 . S
C691 C687 1.495 1_655 S
C691 H697 0.959 . S
C691 H698 0.961 . S
C691 H699 0.960 . S
C692 C690 1.381 . S
C692 C693 1.394 . S
C692 H700 0.930 1_455 S
C693 C692 1.394 . S
C693 C694 1.383 . S
C693 H701 0.929 1_455 S
C694 C693 1.383 . S
C694 C695 1.377 . S
C695 H679 0.930 . S
C695 C694 1.377 . S
C695 C696 1.379 . S
C696 H680 0.931 . S
C696 C690 1.383 . S
C696 C695 1.379 . S
H697 C691 0.959 . S
H698 C691 0.961 . S
H699 C691 0.960 . S
H700 C692 0.930 1_655 S
H701 C693 0.929 1_655 S
H702 C710 0.929 . S
H703 C712 0.930 . S
H704 C714 0.930 . S
H705 C717 0.929 . S
H706 C720 0.930 . S
H707 C722 0.960 . S
H708 C722 0.960 . S
H709 C722 0.960 . S
C710 H702 0.929 . S
C710 C711 1.377 . S
C710 C712 1.384 . S
C711 C710 1.377 . S
C711 C717 1.390 . S
C712 H703 0.930 . S
C712 C710 1.384 . S
C712 C713 1.372 . S
C713 C712 1.372 . S
C713 C714 1.400 . S
C713 C718 1.490 . S
C714 H704 0.930 . S
C714 C713 1.400 . S
C714 C717 1.386 . S
H715 C731 0.930 . S
H716 C732 0.931 . S
C717 H705 0.929 . S
C717 C711 1.390 . S
C717 C714 1.386 . S
C718 C713 1.490 . S
C718 C720 1.395 . S
C718 C721 1.403 . S
H719 C725 0.930 . S
C720 H706 0.930 . S
C720 C718 1.395 . S
C720 C723 1.403 . S
C721 C718 1.403 . S
C721 C722 1.524 . S
C721 C725 1.400 . S
C722 H707 0.960 . S
C722 H708 0.960 . S
C722 H709 0.960 . S
C722 C721 1.524 . S
C723 C720 1.403 . S
C723 C724 1.392 . S
C723 C727 1.495 . S
C724 C723 1.392 . S
C724 C725 1.385 . S
C724 C726 1.478 . S
C725 H719 0.930 . S
C725 C721 1.400 . S
C725 C724 1.385 . S
C726 C724 1.478 . S
C726 C728 1.381 . S
C726 C732 1.383 . S
C727 C723 1.495 . S
C727 H733 0.959 . S
C727 H734 0.952 1_545 S
C727 H735 0.960 . S
C728 C726 1.381 . S
C728 C729 1.394 . S
C728 H736 0.930 . S
C729 C728 1.394 . S
C729 C730 1.383 . S
C729 H737 0.929 . S
C730 C729 1.383 . S
C730 C731 1.377 . S
C731 H715 0.930 . S
C731 C730 1.377 . S
C731 C732 1.379 . S
C732 H716 0.931 . S
C732 C726 1.383 . S
C732 C731 1.379 . S
H733 C727 0.959 . S
H734 C727 0.952 1_565 S
H735 C727 0.960 . S
H736 C728 0.930 . S
H737 C729 0.929 . S
H738 C746 0.929 . S
H739 C748 0.930 . S
H740 C750 0.930 . S
H741 C753 0.929 . S
H742 C756 0.930 . S
H743 C758 0.960 . S
H744 C758 0.960 . S
H745 C758 0.960 . S
C746 H738 0.929 . S
C746 C747 1.377 . S
C746 C748 1.384 . S
C747 C746 1.377 . S
C747 C753 1.390 . S
C748 H739 0.930 . S
C748 C746 1.384 . S
C748 C749 1.372 . S
C749 C748 1.372 . S
C749 C750 1.400 . S
C749 C754 1.490 . S
C750 H740 0.930 . S
C750 C749 1.400 . S
C750 C753 1.386 . S
H751 C767 0.930 . S
H752 C768 0.931 . S
C753 H741 0.929 . S
C753 C747 1.390 . S
C753 C750 1.386 . S
C754 C749 1.490 . S
C754 C756 1.395 . S
C754 C757 1.403 . S
H755 C761 0.930 . S
C756 H742 0.930 . S
C756 C754 1.395 . S
C756 C759 1.403 . S
C757 C754 1.403 . S
C757 C758 1.524 . S
C757 C761 1.400 . S
C758 H743 0.960 . S
C758 H744 0.960 . S
C758 H745 0.960 . S
C758 C757 1.524 . S
C759 C756 1.403 . S
C759 C760 1.392 . S
C759 C763 1.495 . S
C760 C759 1.392 . S
C760 C761 1.385 . S
C760 C762 1.478 . S
C761 H755 0.930 . S
C761 C757 1.400 . S
C761 C760 1.385 . S
C762 C760 1.478 . S
C762 C764 1.381 . S
C762 C768 1.383 . S
C763 C759 1.495 . S
C763 H769 0.959 . S
C763 H770 0.961 . S
C763 H771 0.960 . S
C764 C762 1.381 . S
C764 C765 1.394 . S
C764 H772 0.930 . S
C765 C764 1.394 . S
C765 C766 1.383 . S
C765 H773 0.929 . S
C766 C765 1.383 . S
C766 C767 1.377 . S
C767 H751 0.930 . S
C767 C766 1.377 . S
C767 C768 1.379 . S
C768 H752 0.931 . S
C768 C762 1.383 . S
C768 C767 1.379 . S
H769 C763 0.959 . S
H770 C763 0.961 . S
H771 C763 0.960 . S
H772 C764 0.930 . S
H773 C765 0.929 . S
H774 C782 0.929 . S
H775 C784 0.930 . S
H776 C786 0.930 . S
H777 C789 0.929 . S
H778 C792 0.930 . S
H779 C794 0.960 . S
H780 C794 0.960 . S
H781 C794 0.960 . S
C782 H774 0.929 . S
C782 C783 1.377 . S
C782 C784 1.384 . S
C783 C782 1.377 . S
C783 C789 1.390 . S
C784 H775 0.930 . S
C784 C782 1.384 . S
C784 C785 1.372 . S
C785 C784 1.372 . S
C785 C786 1.400 . S
C785 C790 1.490 . S
C786 H776 0.930 . S
C786 C785 1.400 . S
C786 C789 1.386 . S
H787 C803 0.930 1_565 S
H788 C804 0.931 . S
C789 H777 0.929 . S
C789 C783 1.390 . S
C789 C786 1.386 . S
C790 C785 1.490 . S
C790 C792 1.395 . S
C790 C793 1.403 . S
H791 C797 0.930 . S
C792 H778 0.930 . S
C792 C790 1.395 . S
C792 C795 1.403 . S
C793 C790 1.403 . S
C793 C794 1.524 . S
C793 C797 1.400 . S
C794 H779 0.960 . S
C794 H780 0.960 . S
C794 H781 0.960 . S
C794 C793 1.524 . S
C795 C792 1.403 . S
C795 C796 1.392 . S
C795 C799 1.495 . S
C796 C795 1.392 . S
C796 C797 1.385 . S
C796 C798 1.478 . S
C797 H791 0.930 . S
C797 C793 1.400 . S
C797 C796 1.385 . S
C798 C796 1.478 . S
C798 C800 1.381 . S
C798 C804 1.383 . S
C799 C795 1.495 . S
C799 H805 0.959 . S
C799 H806 0.961 . S
C799 H807 0.960 . S
C800 C798 1.381 . S
C800 C801 1.394 . S
C800 H808 0.930 . S
C801 C800 1.394 . S
C801 C802 1.383 . S
C801 H809 0.929 . S
C802 C801 1.383 . S
C802 C803 1.377 . S
C803 H787 0.930 1_545 S
C803 C802 1.377 . S
C803 C804 1.379 . S
C804 H788 0.931 . S
C804 C798 1.383 . S
C804 C803 1.379 . S
H805 C799 0.959 . S
H806 C799 0.961 . S
H807 C799 0.960 . S
H808 C800 0.930 . S
H809 C801 0.929 . S
H810 C818 0.929 . S
H811 C820 0.930 . S
H812 C822 0.930 . S
H813 C825 0.929 . S
H814 C828 0.930 . S
H815 C830 0.960 . S
H816 C830 0.960 . S
H817 C830 0.960 . S
C818 H810 0.929 . S
C818 C819 1.377 . S
C818 C820 1.384 . S
C819 C818 1.377 . S
C819 C825 1.390 . S
C820 H811 0.930 . S
C820 C818 1.384 . S
C820 C821 1.372 . S
C821 C820 1.372 . S
C821 C822 1.400 . S
C821 C826 1.490 . S
C822 H812 0.930 . S
C822 C821 1.400 . S
C822 C825 1.386 . S
H823 C839 0.930 . S
H824 C840 0.931 . S
C825 H813 0.929 . S
C825 C819 1.390 . S
C825 C822 1.386 . S
C826 C821 1.490 . S
C826 C828 1.395 . S
C826 C829 1.403 . S
H827 C833 0.930 1_554 S
C828 H814 0.930 . S
C828 C826 1.395 . S
C828 C831 1.403 1_556 S
C829 C826 1.403 . S
C829 C830 1.524 . S
C829 C833 1.400 . S
C830 H815 0.960 . S
C830 H816 0.960 . S
C830 H817 0.960 . S
C830 C829 1.524 . S
C831 C828 1.403 1_554 S
C831 C832 1.392 . S
C831 C835 1.495 . S
C832 C831 1.392 . S
C832 C833 1.385 1_554 S
C832 C834 1.478 . S
C833 H827 0.930 1_556 S
C833 C829 1.400 . S
C833 C832 1.385 1_556 S
C834 C832 1.478 . S
C834 C836 1.381 . S
C834 C840 1.383 . S
C835 C831 1.495 . S
C835 H841 0.959 . S
C835 H842 0.961 . S
C835 H843 0.960 . S
C836 C834 1.381 . S
C836 C837 1.394 . S
C836 H844 0.930 . S
C837 C836 1.394 . S
C837 C838 1.383 . S
C837 H845 0.929 . S
C838 C837 1.383 . S
C838 C839 1.377 . S
C839 H823 0.930 . S
C839 C838 1.377 . S
C839 C840 1.379 . S
C840 H824 0.931 . S
C840 C834 1.383 . S
C840 C839 1.379 . S
H841 C835 0.959 . S
H842 C835 0.961 . S
H843 C835 0.960 . S
H844 C836 0.930 . S
H845 C837 0.929 . S
H846 C854 0.929 1_655 S
H847 C856 0.930 1_655 S
H848 C858 0.930 . S
H849 C861 0.929 . S
H850 C864 0.930 . S
H851 C866 0.960 . S
H852 C866 0.960 . S
H853 C866 0.960 . S
C854 H846 0.929 1_455 S
C854 C855 1.377 . S
C854 C856 1.384 . S
C855 C854 1.377 . S
C855 C861 1.390 . S
C856 H847 0.930 1_455 S
C856 C854 1.384 . S
C856 C857 1.372 . S
C857 C856 1.372 . S
C857 C858 1.400 . S
C857 C862 1.490 . S
C858 H848 0.930 . S
C858 C857 1.400 . S
C858 C861 1.386 . S
H859 C875 0.930 . S
H860 C876 0.931 . S
C861 H849 0.929 . S
C861 C855 1.390 . S
C861 C858 1.386 . S
C862 C857 1.490 . S
C862 C864 1.395 . S
C862 C865 1.403 . S
H863 C869 0.930 . S
C864 H850 0.930 . S
C864 C862 1.395 . S
C864 C867 1.403 . S
C865 C862 1.403 . S
C865 C866 1.524 . S
C865 C869 1.400 . S
C866 H851 0.960 . S
C866 H852 0.960 . S
C866 H853 0.960 . S
C866 C865 1.524 . S
C867 C864 1.403 . S
C867 C868 1.392 . S
C867 C871 1.495 1_455 S
C868 C867 1.392 . S
C868 C869 1.385 . S
C868 C870 1.478 . S
C869 H863 0.930 . S
C869 C865 1.400 . S
C869 C868 1.385 . S
C870 C868 1.478 . S
C870 C872 1.381 . S
C870 C876 1.383 . S
C871 C867 1.495 1_655 S
C871 H877 0.959 . S
C871 H878 0.961 1_655 S
C871 H879 0.960 . S
C872 C870 1.381 . S
C872 C873 1.394 . S
C872 H880 0.930 1_455 S
C873 C872 1.394 . S
C873 C874 1.383 . S
C873 H881 0.929 1_455 S
C874 C873 1.383 . S
C874 C875 1.377 . S
C875 H859 0.930 . S
C875 C874 1.377 . S
C875 C876 1.379 . S
C876 H860 0.931 . S
C876 C870 1.383 . S
C876 C875 1.379 . S
H877 C871 0.959 . S
H878 C871 0.961 1_455 S
H879 C871 0.960 . S
H880 C872 0.930 1_655 S
H881 C873 0.929 1_655 S
C243 C9 0.588 . S
C262 C226 0.553 . S
C279 C49 0.407 . S
C298 C188 0.547 . S
C315 C89 0.319 . S
C334 C207 0.369 . S
C351 C26 0.200 . S
C370 C221 0.246 . S
C406 C183 0.315 . S
C387 C66 0.218 . S
C442 C202 0.110 . S
C423 C106 0.249 . S
C459 C43 3.084 1_565 S
C478 C150 2.994 . S
C495 C83 2.978 . S
C514 C164 2.938 . S
C531 C22 3.030 . S
C550 C126 2.979 1_565 S
C586 C145 2.979 . S
C567 C62 3.023 . S
C622 C169 3.016 . S
C603 C102 3.113 . S
C639 C3 3.079 . S
C658 C131 2.983 . S
C694 C160 1.693 . S
C675 C15 1.706 . S
C711 C55 1.743 . S
C730 C122 1.731 . S
C747 C95 1.723 . S
C766 C141 1.735 . S
C802 C198 1.372 . S
C783 C42 1.346 . S
C838 C217 1.367 . S
C819 C82 1.355 . S
C855 C2 1.322 . S
C874 C179 1.357 . S
