# Generated by pormake.
# Topology rtl, (3,6)-cn, num edge types: 1
# Building blocks:
#     Node 0, Type 0, BuildingBlock: KAKCAD_clean_linker_0, # of connection points: 3
#     Node 1, Type 0, BuildingBlock: KAKCAD_clean_linker_0, # of connection points: 3
#     Node 2, Type 0, BuildingBlock: KAKCAD_clean_linker_0, # of connection points: 3
#     Node 3, Type 0, BuildingBlock: KAKCAD_clean_linker_0, # of connection points: 3
#     Node 4, Type 1, BuildingBlock: KUMJIN_clean_sbu_1, # of connection points: 6
#     Node 5, Type 1, BuildingBlock: KUMJIN_clean_sbu_1, # of connection points: 6
#     Edge 6, Type (0, 1), BuildingBlock: KIFKEQ_clean_linker_1, # of connection points: 2
#     Edge 7, Type (0, 1), BuildingBlock: KIFKEQ_clean_linker_1, # of connection points: 2
#     Edge 8, Type (0, 1), BuildingBlock: KIFKEQ_clean_linker_1, # of connection points: 2
#     Edge 9, Type (0, 1), BuildingBlock: KIFKEQ_clean_linker_1, # of connection points: 2
#     Edge 10, Type (0, 1), BuildingBlock: KIFKEQ_clean_linker_1, # of connection points: 2
#     Edge 11, Type (0, 1), BuildingBlock: KIFKEQ_clean_linker_1, # of connection points: 2
#     Edge 12, Type (0, 1), BuildingBlock: KIFKEQ_clean_linker_1, # of connection points: 2
#     Edge 13, Type (0, 1), BuildingBlock: KIFKEQ_clean_linker_1, # of connection points: 2
#     Edge 14, Type (0, 1), BuildingBlock: KIFKEQ_clean_linker_1, # of connection points: 2
#     Edge 15, Type (0, 1), BuildingBlock: KIFKEQ_clean_linker_1, # of connection points: 2
#     Edge 16, Type (0, 1), BuildingBlock: KIFKEQ_clean_linker_1, # of connection points: 2
#     Edge 17, Type (0, 1), BuildingBlock: KIFKEQ_clean_linker_1, # of connection points: 2
# Relax obj value: 0.018
# Max RMSD: 0.096
# Mean RMSD: 0.058
data_MOF--net-rtl--node1-KUMJIN_clean_sbu_1--node2-KAKCAD_clean_linker_0--edge1-KIFKEQ_clean_linker_1
_symmetry_space_group_name_H-M    P1
_symmetry_Int_Tables_number       1
_symmetry_cell_setting            triclinic
loop_
_symmetry_equiv_pos_as_xyz
'x, y, z'
_cell_length_a     40.526282
_cell_length_b     41.156645
_cell_length_c     35.706181
_cell_angle_alpha  80.099712
_cell_angle_beta   99.689668
_cell_angle_gamma 90.561231
loop_
_atom_site_label
_atom_site_type_symbol
_atom_site_fract_x
_atom_site_fract_y
_atom_site_fract_z
_atom_type_partial_charge
C0 C 0.15858 0.86205 0.87857 0.0
C1 C 0.15038 0.89587 0.86851 0.0
C2 C 0.17425 0.84871 0.91581 0.0
C3 C 0.18233 0.86885 0.94399 0.0
C4 C 0.17449 0.90278 0.9339 0.0
C5 C 0.15873 0.91616 0.89651 0.0
C6 C 0.1979 0.85396 0.98394 0.0
C7 C 0.2223 0.82875 0.99008 0.0
C8 C 0.23433 0.81135 0.02731 0.0
C9 C 0.22238 0.82046 0.05891 0.0
C10 C 0.19904 0.8466 0.05342 0.0
C11 C 0.18693 0.86322 0.01593 0.0
C12 C 0.18579 0.85555 0.08656 0.0
C13 C 0.17176 0.83142 0.11173 0.0
C14 C 0.18584 0.88849 0.09225 0.0
C15 C 0.17183 0.8972 0.12245 0.0
C16 C 0.15695 0.87321 0.14694 0.0
C17 C 0.2585 0.78316 0.03264 0.0
C18 C 0.25624 0.76241 0.00488 0.0
C19 C 0.28414 0.77686 0.06499 0.0
C20 C 0.3071 0.75074 0.06917 0.0
C21 C 0.30524 0.73048 0.04088 0.0
C22 C 0.27945 0.73677 0.0087 0.0
C23 C 0.15718 0.84023 0.14145 0.0
H24 H 0.15293 0.84579 0.85759 0.0
H25 H 0.17945 0.8224 0.9227 0.0
H26 H 0.18057 0.91899 0.95487 0.0
H27 H 0.15252 0.94228 0.88976 0.0
H28 H 0.23188 0.82265 0.96555 0.0
H29 H 0.16774 0.88229 0.01162 0.0
H30 H 0.23085 0.80705 0.08778 0.0
H31 H 0.17123 0.8059 0.10774 0.0
H32 H 0.19659 0.90749 0.07322 0.0
H33 H 0.17179 0.92281 0.12601 0.0
H34 H 0.23646 0.76589 0.97998 0.0
H35 H 0.28688 0.7924 0.08685 0.0
H36 H 0.14596 0.82129 0.16009 0.0
H37 H 0.27736 0.72224 0.98588 0.0
H38 H 0.32625 0.74645 0.09466 0.0
C39 C 0.64229 0.67693 0.74027 0.0
C40 C 0.63114 0.64421 0.74612 0.0
C41 C 0.65302 0.69067 0.70574 0.0
C42 C 0.65309 0.67199 0.67623 0.0
C43 C 0.64252 0.63912 0.68242 0.0
C44 C 0.63148 0.62555 0.71665 0.0
C45 C 0.66353 0.68667 0.63885 0.0
C46 C 0.69035 0.7087 0.63765 0.0
C47 C 0.7005 0.72203 0.60239 0.0
C48 C 0.68337 0.71296 0.56817 0.0
C49 C 0.65704 0.69058 0.56877 0.0
C50 C 0.64698 0.67803 0.6041 0.0
C51 C 0.64153 0.6788 0.53279 0.0
C52 C 0.63467 0.70065 0.49739 0.0
C53 C 0.63542 0.64506 0.53326 0.0
C54 C 0.62378 0.6333 0.49907 0.0
C55 C 0.61791 0.65497 0.46349 0.0
C56 C 0.72937 0.74484 0.601 0.0
C57 C 0.73494 0.76865 0.62521 0.0
C58 C 0.75121 0.74349 0.57453 0.0
C59 C 0.77704 0.76596 0.57133 0.0
C60 C 0.7824 0.79013 0.59509 0.0
C61 C 0.7612 0.79087 0.62244 0.0
C62 C 0.623 0.68887 0.46314 0.0
H63 H 0.64289 0.69198 0.76242 0.0
H64 H 0.66073 0.71612 0.70198 0.0
H65 H 0.64278 0.62368 0.66079 0.0
H66 H 0.62267 0.60047 0.71963 0.0
H67 H 0.70405 0.7146 0.66432 0.0
H68 H 0.62594 0.66161 0.60438 0.0
H69 H 0.69092 0.7229 0.54086 0.0
H70 H 0.63864 0.72685 0.49611 0.0
H71 H 0.64093 0.62747 0.5599 0.0
H72 H 0.6207 0.60698 0.50041 0.0
H73 H 0.7186 0.77062 0.64583 0.0
H74 H 0.74836 0.72508 0.55596 0.0
H75 H 0.61827 0.70629 0.43632 0.0
H76 H 0.76477 0.80867 0.64177 0.0
H77 H 0.79235 0.76469 0.54952 0.0
C78 C 0.82805 0.10763 0.18267 0.0
C79 C 0.86277 0.10116 0.19034 0.0
C80 C 0.81217 0.12175 0.14571 0.0
C81 C 0.83062 0.13009 0.11552 0.0
C82 C 0.86528 0.12329 0.12307 0.0
C83 C 0.88111 0.10887 0.15995 0.0
C84 C 0.81382 0.1463 0.07653 0.0
C85 C 0.78844 0.17024 0.07264 0.0
C86 C 0.77198 0.18561 0.03607 0.0
C87 C 0.78187 0.17713 1.00298 0.0
C88 C 0.80801 0.15408 0.00634 0.0
C89 C 0.82345 0.13846 0.04313 0.0
C90 C 0.82027 0.14709 0.97161 0.0
C91 C 0.7979 0.14056 0.93929 0.0
C92 C 0.8548 0.14687 0.97079 0.0
C93 C 0.86678 0.14009 0.93849 0.0
C94 C 0.84453 0.13315 0.90632 0.0
C95 C 0.74545 0.21129 0.03291 0.0
C96 C 0.72382 0.20863 0.06028 0.0
C97 C 0.74235 0.23933 0.00362 0.0
C98 C 0.71878 0.26429 1.0023 0.0
C99 C 0.69829 0.26199 0.0306 0.0
C100 C 0.70081 0.23388 0.05939 0.0
C101 C 0.80994 0.13341 0.90702 0.0
H102 H 0.81313 0.10243 0.20539 0.0
H103 H 0.78537 0.12616 0.14085 0.0
H104 H 0.88038 0.12966 0.10067 0.0
H105 H 0.9078 0.10381 0.16461 0.0
H106 H 0.78222 0.17767 0.09831 0.0
H107 H 0.84283 0.11987 0.04564 0.0
H108 H 0.76969 0.18882 0.97456 0.0
H109 H 0.77116 0.14046 0.93924 0.0
H110 H 0.8726 0.15213 0.99514 0.0
H111 H 0.89357 0.1397 0.93898 0.0
H112 H 0.72478 0.1871 0.08267 0.0
H113 H 0.7588 0.24259 0.98237 0.0
H114 H 0.79223 0.12828 0.88254 0.0
H115 H 0.68493 0.23146 0.08125 0.0
H116 H 0.71735 0.28591 0.97995 0.0
C117 C 0.34944 0.35401 0.31783 0.0
C118 C 0.3842 0.35834 0.31992 0.0
C119 C 0.33605 0.34099 0.35085 0.0
C120 C 0.35707 0.33234 0.3867 0.0
C121 C 0.3918 0.3357 0.3886 0.0
C122 C 0.4052 0.34834 0.35564 0.0
C123 C 0.3429 0.32168 0.42251 0.0
C124 C 0.31867 0.297 0.42455 0.0
C125 C 0.30545 0.28704 0.45874 0.0
C126 C 0.31646 0.30273 0.49058 0.0
C127 C 0.34076 0.32724 0.4891 0.0
C128 C 0.35381 0.33653 0.45491 0.0
C129 C 0.35279 0.34282 0.52347 0.0
C130 C 0.33031 0.35097 0.54659 0.0
C131 C 0.38697 0.3492 0.53377 0.0
C132 C 0.3984 0.36324 0.56644 0.0
C133 C 0.37596 0.37114 0.58975 0.0
C134 C 0.28048 0.26016 0.4618 0.0
C135 C 0.25557 0.25646 0.43032 0.0
C136 C 0.28089 0.23837 0.49688 0.0
C137 C 0.25643 0.21451 0.50089 0.0
C138 C 0.23119 0.21101 0.46965 0.0
C139 C 0.23139 0.23207 0.43412 0.0
C140 C 0.34176 0.36488 0.57936 0.0
H141 H 0.33242 0.36169 0.29099 0.0
H142 H 0.30915 0.33886 0.34862 0.0
H143 H 0.40863 0.32875 0.41577 0.0
H144 H 0.43212 0.35044 0.35826 0.0
H145 H 0.31094 0.28498 0.39987 0.0
H146 H 0.37198 0.356 0.45314 0.0
H147 H 0.30624 0.29569 0.51688 0.0
H148 H 0.30376 0.34676 0.53927 0.0
H149 H 0.40503 0.34293 0.51686 0.0
H150 H 0.42484 0.36812 0.57325 0.0
H151 H 0.25424 0.27281 0.40288 0.0
H152 H 0.30008 0.23976 0.52159 0.0
H153 H 0.3238 0.37033 0.59681 0.0
H154 H 0.21284 0.22987 0.40912 0.0
H155 H 0.25709 0.19929 0.52892 0.0
Eu156 Eu 0.0302 0.9694 0.51215 0.0
C157 C 0.9296 0.08501 0.48523 0.0
N158 N 0.96202 0.08354 0.50303 0.0
C159 C 0.97226 0.13567 0.46567 0.0
C160 C 0.91753 0.11143 0.45551 0.0
C161 C 0.98314 0.1088 0.49477 0.0
C162 C 0.93942 0.13679 0.4456 0.0
C163 C 0.8744 0.06138 0.4801 0.0
C164 C 0.90844 0.06024 0.49737 0.0
C165 C 0.86252 0.08688 0.44934 0.0
C166 C 0.88402 0.11188 0.43711 0.0
Eu167 Eu 0.97901 0.03713 0.55095 0.0
N168 N 0.92066 0.03614 0.52748 0.0
C169 C 0.8531 0.03749 0.49512 0.0
C170 C 0.89937 0.01458 0.54419 0.0
C171 C 0.86553 0.01437 0.52777 0.0
H172 H 0.00851 0.10788 0.51029 0.0
H173 H 0.84895 0.99672 0.5407 0.0
H174 H 0.98536 0.89935 0.52502 0.0
H175 H 0.16238 0.98579 0.56513 0.0
H176 H 0.90815 0.99794 0.57069 0.0
H177 H 0.82679 0.03749 0.48269 0.0
H178 H 0.10741 0.99934 0.52305 0.0
H179 H 0.9892 0.15541 0.45864 0.0
H180 H 0.83653 0.08796 0.43548 0.0
H181 H 0.87434 0.13177 0.4139 0.0
H182 H 0.98764 0.84747 0.57156 0.0
H183 H 0.93109 0.15755 0.42295 0.0
H184 H 0.16906 0.93574 0.61557 0.0
N185 N 0.03119 0.91692 0.55212 0.0
C186 C 0.0599 0.90862 0.57778 0.0
C187 C 0.00789 0.86472 0.57414 0.0
C188 C 0.06298 0.87856 0.60405 0.0
C189 C 0.00625 0.8946 0.54838 0.0
C190 C 0.0361 0.85694 0.60263 0.0
N191 N 0.08353 0.95785 0.55025 0.0
C192 C 0.11027 0.97751 0.54507 0.0
C193 C 0.1178 0.92069 0.60097 0.0
C194 C 0.08706 0.92933 0.57628 0.0
C195 C 0.14502 0.94153 0.59715 0.0
C196 C 0.14134 0.96984 0.56874 0.0
H197 H 0.03747 0.83361 0.62229 0.0
H198 H 0.09576 0.84771 0.65056 0.0
H199 H 0.14373 0.88465 0.6479 0.0
O200 O 0.04921 0.98079 0.45759 0.0
O201 O 0.04942 0.98674 0.56894 0.0
O202 O 1.00128 0.99198 0.59231 0.0
O203 O 0.04272 0.93018 0.48266 0.0
O204 O 0.04572 0.02264 0.49694 0.0
O205 O 0.03334 0.04884 0.5459 0.0
O206 O 0.95124 0.05705 0.58984 0.0
O207 O 0.98275 0.0418 0.4875 0.0
O208 O 0.97966 0.98829 0.47876 0.0
O209 O 0.00296 0.06954 0.58928 0.0
O210 O 0.96461 0.98322 0.56648 0.0
O211 O 0.97548 0.95804 0.51648 0.0
C212 C 0.03297 0.98352 0.59789 0.0
C213 C 0.03226 0.94357 0.4152 0.0
C214 C 0.03471 0.93181 0.3509 0.0
C215 C 0.99961 0.9287 0.34477 0.0
C216 C 0.9974 0.94036 0.40842 0.0
C217 C 0.98117 0.93319 0.37325 0.0
C218 C 0.05079 0.93961 0.38639 0.0
C219 C 0.05026 0.04627 0.51794 0.0
C220 C 0.0494 0.9502 0.45266 0.0
C221 C 0.09309 0.87053 0.62991 0.0
C222 C 0.12045 0.89151 0.62832 0.0
C223 C 0.97317 0.01968 0.46577 0.0
C224 C 0.98456 0.06126 0.64954 0.0
C225 C 0.96788 0.06157 0.71209 0.0
C226 C 0.99595 0.04145 0.72994 0.0
C227 C 0.01263 0.04143 0.66806 0.0
C228 C 0.96238 0.07145 0.67174 0.0
C229 C 0.01819 0.03158 0.70801 0.0
C230 C 0.95886 0.96013 0.5448 0.0
C231 C 0.97753 0.07022 0.60712 0.0
H232 H 0.98633 0.92206 0.31831 0.0
H233 H 0.98283 0.94298 0.43055 0.0
H234 H 0.95426 0.93059 0.36825 0.0
H235 H 0.07767 0.94258 0.39179 0.0
H236 H 1.001 0.03378 0.76096 0.0
H237 H 0.03023 0.03344 0.6517 0.0
H238 H 0.94058 0.08656 0.65753 0.0
H239 H 0.03985 0.01627 0.72201 0.0
Eu240 Eu 0.47166 0.49009 0.99476 0.0
C241 C 0.60448 0.55695 0.03254 0.0
N242 N 0.59712 0.52538 0.0467 0.0
C243 C 0.64824 0.50562 0.03254 0.0
C244 C 0.63388 0.56389 0.01665 0.0
C245 C 0.61863 0.49983 0.04762 0.0
C246 C 0.65582 0.53774 0.01679 0.0
C247 C 0.58897 0.61513 0.01799 0.0
C248 C 0.58198 0.58223 0.03293 0.0
C249 C 0.6179 0.62201 1.00142 0.0
C250 C 0.64029 0.59649 1.00079 0.0
Eu251 Eu 0.54693 0.51803 0.07186 0.0
N252 N 0.5539 0.57488 0.04883 0.0
C253 C 0.56713 0.64029 0.021 0.0
C254 C 0.53443 0.59967 0.05505 0.0
C255 C 0.54013 0.63257 0.04031 0.0
H256 H 0.61275 0.47501 0.05985 0.0
H257 H 0.52409 0.65201 0.04457 0.0
H258 H 0.41052 0.54758 0.96792 0.0
H259 H 0.46745 0.36079 0.06316 0.0
H260 H 0.51509 0.59452 0.07238 0.0
H261 H 0.57164 0.66585 0.00991 0.0
H262 H 0.49352 0.41065 0.03332 0.0
H263 H 0.66513 0.48531 0.03295 0.0
H264 H 0.62346 0.64711 0.98954 0.0
H265 H 0.6626 0.60225 0.98815 0.0
H266 H 0.35067 0.5536 0.97229 0.0
H267 H 0.67865 0.5421 0.00484 0.0
H268 H 0.40757 0.36208 0.0691 0.0
N269 N 0.41443 0.49781 0.99627 0.0
C270 C 0.39825 0.47098 0.01162 0.0
C271 C 0.3638 0.5303 0.98371 0.0
C272 C 0.36399 0.47303 0.01411 0.0
C273 C 0.39776 0.52705 0.98181 0.0
C274 C 0.34686 0.50321 1.00007 0.0
N275 N 0.44949 0.44057 0.02405 0.0
C276 C 0.46767 0.41188 0.03638 0.0
C277 C 0.40011 0.41336 0.04208 0.0
C278 C 0.41613 0.44144 0.02546 0.0
C279 C 0.41895 0.38418 0.05609 0.0
C280 C 0.45281 0.38339 0.05296 0.0
H281 H 0.32053 0.50579 1.00148 0.0
H282 H 0.3217 0.44621 0.03281 0.0
H283 H 0.35329 0.39402 0.05731 0.0
O284 O 0.47932 0.46164 0.95054 0.0
O285 O 0.46364 0.48122 0.05743 0.0
O286 O 0.51605 0.47575 0.0957 0.0
O287 O 0.43908 0.49785 0.93845 0.0
O288 O 0.52189 0.46285 0.00474 0.0
O289 O 0.54705 0.46392 0.06777 0.0
O290 O 0.55486 0.53866 0.1261 0.0
O291 O 0.55253 0.51873 0.00923 0.0
O292 O 0.50086 0.53551 0.97581 0.0
O293 O 0.58865 0.50072 0.1173 0.0
O294 O 0.49468 0.54014 0.06735 0.0
O295 O 0.47248 0.54343 1.00287 0.0
C296 C 0.4835 0.47158 0.09061 0.0
C297 C 0.46381 0.488 0.88614 0.0
C298 C 0.46111 0.48047 0.81936 0.0
C299 C 0.4815 0.5081 0.8132 0.0
C300 C 0.48377 0.51562 0.87928 0.0
C301 C 0.49268 0.52556 0.84302 0.0
C302 C 0.45239 0.47054 0.85613 0.0
C303 C 0.54349 0.45125 0.03601 0.0
C304 C 0.45537 0.47684 0.92466 0.0
C305 C 0.34799 0.44508 0.03061 0.0
C306 C 0.36598 0.41534 0.04454 0.0
C307 C 0.53355 0.53559 0.97892 0.0
C308 C 0.60221 0.51984 0.17831 0.0
C309 C 0.61267 0.53657 0.24166 0.0
C310 C 0.64156 0.51619 0.25162 0.0
C311 C 0.63132 0.49977 0.18905 0.0
C312 C 0.59315 0.5386 0.20467 0.0
C313 C 0.65083 0.49807 0.2254 0.0
C314 C 0.47318 0.55289 0.03639 0.0
C315 C 0.5814 0.52 0.14006 0.0
H316 H 0.48836 0.51654 0.78515 0.0
H317 H 0.49233 0.52939 0.902 0.0
H318 H 0.50817 0.54691 0.83798 0.0
H319 H 0.43713 0.44902 0.86159 0.0
H320 H 0.65721 0.51454 0.27967 0.0
H321 H 0.63903 0.48517 0.1694 0.0
H322 H 0.57073 0.55409 0.19686 0.0
H323 H 0.67318 0.48255 0.23333 0.0
H324 H 0.23656 0.14973 0.51599 0.0
H325 H 0.16487 0.21519 0.43476 0.0
H326 H 0.19211 0.11099 0.52779 0.0
H327 H 0.12112 0.17505 0.44501 0.0
H328 H 0.0699 0.06883 0.44896 0.0
H329 H 0.11336 0.10906 0.4359 0.0
H330 H 0.13306 0.11841 0.55608 0.0
H331 H 0.08896 0.0789 0.56907 0.0
C332 C 0.21146 0.15606 0.50066 0.0
C333 C 0.2045 0.18602 0.47464 0.0
C334 C 0.18608 0.13364 0.5073 0.0
C335 C 0.15332 0.1402 0.4874 0.0
C336 C 0.14632 0.16946 0.46056 0.0
C337 C 0.17153 0.19229 0.45451 0.0
C338 C 0.08347 0.07956 0.47254 0.0
C339 C 0.07614 0.07079 0.51003 0.0
C340 C 0.10815 0.10261 0.46502 0.0
C341 C 0.12646 0.11663 0.49504 0.0
C342 C 0.11928 0.10777 0.53254 0.0
C343 C 0.09403 0.08535 0.53989 0.0
H344 H 0.37243 0.72877 0.07179 0.0
H345 H 0.29522 0.67034 0.01751 0.0
H346 H 0.41375 0.68537 0.07371 0.0
H347 H 0.33716 0.62835 0.01738 0.0
H348 H 0.43822 0.59685 0.97722 0.0
H349 H 0.39714 0.63858 0.98124 0.0
H350 H 0.41661 0.61366 0.10534 0.0
H351 H 0.45646 0.57034 0.10155 0.0
C352 C 0.36407 0.7067 0.06065 0.0
C353 C 0.33033 0.70337 0.04419 0.0
C354 C 0.38785 0.68201 0.06156 0.0
C355 C 0.37847 0.65387 0.04544 0.0
C356 C 0.34489 0.6501 0.02965 0.0
C357 C 0.321 0.67436 0.02946 0.0
C358 C 0.43335 0.59974 0.00537 0.0
C359 C 0.44994 0.57964 0.03901 0.0
C360 C 0.41009 0.62381 0.0076 0.0
C361 C 0.40376 0.62897 0.04355 0.0
C362 C 0.42118 0.60993 0.07732 0.0
C363 C 0.44391 0.58525 0.07508 0.0
H364 H 0.78213 0.8554 0.6038 0.0
H365 H 0.84431 0.78118 0.5758 0.0
H366 H 0.8254 0.89604 0.59352 0.0
H367 H 0.88644 0.82249 0.5635 0.0
H368 H 0.92711 0.91971 0.4973 0.0
H369 H 0.88561 0.87791 0.5116 0.0
H370 H 0.88959 0.90346 0.62445 0.0
H371 H 0.93226 0.94426 0.61104 0.0
C372 C 0.80501 0.84753 0.59586 0.0
C373 C 0.80941 0.81481 0.59049 0.0
C374 C 0.82969 0.87096 0.58973 0.0
C375 C 0.85905 0.8624 0.57743 0.0
C376 C 0.86377 0.82979 0.57246 0.0
C377 C 0.83945 0.8062 0.5793 0.0
C378 C 0.91945 0.9162 0.52534 0.0
C379 C 0.93312 0.93526 0.55308 0.0
C380 C 0.89567 0.89232 0.53344 0.0
C381 C 0.88448 0.88753 0.56911 0.0
C382 C 0.89769 0.90685 0.59665 0.0
C383 C 0.92203 0.93022 0.58889 0.0
H384 H 0.64848 0.2897 0.97318 0.0
H385 H 0.69637 0.29585 0.089 0.0
H386 H 0.60968 0.33431 0.97457 0.0
H387 H 0.65928 0.34178 0.08995 0.0
H388 H 0.56959 0.40332 0.09593 0.0
H389 H 0.60557 0.35673 0.09432 0.0
H390 H 0.60411 0.39048 0.97234 0.0
H391 H 0.56645 0.43575 0.97384 0.0
C392 C 0.65082 0.30095 0.99877 0.0
C393 C 0.67516 0.28939 0.03104 0.0
C394 C 0.6288 0.32668 0.99957 0.0
C395 C 0.63116 0.34188 0.03241 0.0
C396 C 0.656 0.33034 0.06448 0.0
C397 C 0.67748 0.30418 0.06393 0.0
C398 C 0.57692 0.40058 0.06881 0.0
C399 C 0.5652 0.42299 0.035 0.0
C400 C 0.59778 0.37401 0.06785 0.0
C401 C 0.60806 0.36969 0.0332 0.0
C402 C 0.5963 0.39241 0.99942 0.0
C403 C 0.57484 0.41854 1.00025 0.0
H404 H 0.09341 0.85946 0.15873 0.0
H405 H 0.18239 0.9086 0.20298 0.0
H406 H 0.06479 0.87584 0.20794 0.0
H407 H 0.15387 0.92453 0.25278 0.0
H408 H 0.09729 0.90283 0.36122 0.0
H409 H 0.12799 0.89085 0.31183 0.0
H410 H 0.04699 0.93348 0.22308 0.0
H411 H 0.01684 0.94721 0.27205 0.0
C412 C 0.10685 0.8736 0.17918 0.0
C413 C 0.14006 0.88275 0.17721 0.0
C414 C 0.09045 0.88313 0.20708 0.0
C415 C 0.10716 0.90147 0.23399 0.0
C416 C 0.14053 0.91031 0.23237 0.0
C417 C 0.15674 0.90134 0.20391 0.0
C418 C 0.08623 0.91042 0.33122 0.0
C419 C 0.05435 0.92589 0.32082 0.0
C420 C 0.10382 0.90335 0.30298 0.0
C421 C 0.08969 0.91105 0.26378 0.0
C422 C 0.0582 0.92693 0.2532 0.0
C423 C 0.04088 0.93457 0.28134 0.0
H424 H 0.59525 0.67467 0.78979 0.0
H425 H 0.6389 0.58037 0.78507 0.0
H426 H 0.57412 0.6503 0.84795 0.0
H427 H 0.61555 0.55551 0.84115 0.0
H428 H 0.59397 0.5223 0.9605 0.0
H429 H 0.61978 0.55066 0.9076 0.0
H430 H 0.53265 0.61528 0.86952 0.0
H431 H 0.50819 0.58834 0.92448 0.0
C432 C 0.60048 0.64878 0.80112 0.0
C433 C 0.61879 0.62957 0.78241 0.0
C434 C 0.58784 0.63462 0.83425 0.0
C435 C 0.59287 0.60079 0.84941 0.0
C436 C 0.61146 0.58171 0.83087 0.0
C437 C 0.62444 0.59593 0.79811 0.0
C438 C 0.58068 0.54301 0.94128 0.0
C439 C 0.54916 0.55319 0.94677 0.0
C440 C 0.59523 0.55901 0.91048 0.0
C441 C 0.57828 0.5852 0.88379 0.0
C442 C 0.54678 0.59558 0.88963 0.0
C443 C 0.53253 0.57991 0.92091 0.0
H444 H 0.83989 0.05436 0.24412 0.0
H445 H 0.92441 0.1167 0.22688 0.0
H446 H 0.86645 0.03448 0.3104 0.0
H447 H 0.95189 0.09516 0.29215 0.0
H448 H 0.97486 0.08066 0.42232 0.0
H449 H 0.94769 0.09943 0.35625 0.0
H450 H 0.91107 0.00113 0.34995 0.0
H451 H 0.9362 0.98313 0.41734 0.0
C452 C 0.86419 0.06374 0.25436 0.0
C453 C 0.87986 0.08733 0.2301 0.0
C454 C 0.87966 0.05196 0.29226 0.0
C455 C 0.9113 0.06327 0.30677 0.0
C456 C 0.92728 0.08628 0.28222 0.0
C457 C 0.9117 0.09828 0.24448 0.0
C458 C 0.96053 0.06321 0.40707 0.0
C459 C 0.95743 0.03052 0.42516 0.0
C460 C 0.9454 0.07381 0.36888 0.0
C461 C 0.92729 0.05178 0.34754 0.0
C462 C 0.92447 0.0189 0.36559 0.0
C463 C 0.93925 0.00844 0.40407 0.0
H464 H 0.34606 0.42003 0.61645 0.0
H465 H 0.43357 0.35569 0.64233 0.0
H466 H 0.3664 0.44454 0.6733 0.0
H467 H 0.45408 0.38064 0.69883 0.0
H468 H 0.4964 0.46195 0.76738 0.0
H469 H 0.47555 0.43459 0.71283 0.0
H470 H 0.37721 0.43022 0.74473 0.0
H471 H 0.39793 0.45824 0.79886 0.0
C472 C 0.36946 0.41086 0.63443 0.0
C473 C 0.38819 0.3859 0.6247 0.0
C474 C 0.38112 0.42495 0.66701 0.0
C475 C 0.41186 0.41455 0.69053 0.0
C476 C 0.43052 0.3895 0.68097 0.0
C477 C 0.41878 0.37527 0.64851 0.0
C478 C 0.47031 0.45522 0.76267 0.0
C479 C 0.44877 0.46238 0.78732 0.0
C480 C 0.45845 0.43927 0.73165 0.0
C481 C 0.42472 0.4303 0.72443 0.0
C482 C 0.40325 0.43711 0.74934 0.0
C483 C 0.41519 0.45287 0.78054 0.0
H484 H 0.64127 0.67405 0.39556 0.0
H485 H 0.57409 0.6057 0.4486 0.0
H486 H 0.63201 0.64778 0.33865 0.0
H487 H 0.56501 0.57925 0.39164 0.0
H488 H 0.60745 0.51296 0.3162 0.0
H489 H 0.60179 0.54449 0.36662 0.0
H490 H 0.59221 0.63455 0.28281 0.0
H491 H 0.59835 0.60268 0.23218 0.0
C492 C 0.62388 0.65393 0.39474 0.0
C493 C 0.60871 0.64177 0.42688 0.0
C494 C 0.61855 0.63887 0.36204 0.0
C495 C 0.59798 0.61124 0.36072 0.0
C496 C 0.58143 0.60016 0.39202 0.0
C497 C 0.58671 0.61526 0.42469 0.0
C498 C 0.60362 0.53945 0.30847 0.0
C499 C 0.60364 0.55544 0.27041 0.0
C500 C 0.60011 0.55752 0.33729 0.0
C501 C 0.59671 0.59208 0.32879 0.0
C502 C 0.59511 0.60798 0.2903 0.0
C503 C 0.59833 0.58977 0.26129 0.0
H504 H 0.8263 0.08251 0.86708 0.0
H505 H 0.89284 0.16496 0.87006 0.0
H506 H 0.8518 0.06606 0.81559 0.0
H507 H 0.91865 0.14827 0.81916 0.0
H508 H 0.94211 0.12356 0.70742 0.0
H509 H 0.90771 0.14225 0.75001 0.0
H510 H 0.9079 0.0429 0.81343 0.0
H511 H 0.94176 0.02418 0.77053 0.0
C512 C 0.84604 0.09736 0.85635 0.0
C513 C 0.85774 0.12489 0.87273 0.0
C514 C 0.8608 0.0878 0.82713 0.0
C515 C 0.88732 0.1058 0.81346 0.0
C516 C 0.8981 0.13406 0.82884 0.0
C517 C 0.88355 0.14343 0.85824 0.0
C518 C 0.93432 0.10566 0.73007 0.0
C519 C 0.94479 0.07246 0.73584 0.0
C520 C 0.91486 0.11639 0.75461 0.0
C521 C 0.90523 0.09407 0.78514 0.0
C522 C 0.91468 0.06065 0.78998 0.0
C523 C 0.93435 0.04999 0.76568 0.0
H524 H 0.43607 0.40146 0.31777 0.0
H525 H 0.36462 0.3518 0.24386 0.0
H526 H 0.45988 0.42734 0.26212 0.0
H527 H 0.3881 0.3786 0.1879 0.0
H528 H 0.41697 0.46496 0.09645 0.0
H529 H 0.39284 0.43607 0.15066 0.0
H530 H 0.49211 0.41074 0.21443 0.0
H531 H 0.51635 0.43891 0.15996 0.0
C532 C 0.42562 0.39572 0.28976 0.0
C533 C 0.39852 0.37423 0.28552 0.0
C534 C 0.43925 0.4107 0.25781 0.0
C535 C 0.42597 0.40491 0.22066 0.0
C536 C 0.39868 0.38375 0.21617 0.0
C537 C 0.38519 0.36847 0.24825 0.0
C538 C 0.43371 0.45274 0.12168 0.0
C539 C 0.46865 0.45398 0.12352 0.0
C540 C 0.41982 0.43625 0.15282 0.0
C541 C 0.44057 0.42114 0.18683 0.0
C542 C 0.47547 0.42242 0.18874 0.0
C543 C 0.48935 0.43854 0.15745 0.0
H544 H 0.16172 0.95423 0.82279 0.0
H545 H 0.09912 0.86856 0.82494 0.0
H546 H 0.13298 0.97617 0.75767 0.0
H547 H 0.07148 0.88976 0.75946 0.0
H548 H 0.00505 0.95361 0.65868 0.0
H549 H 0.03314 0.93363 0.72446 0.0
H550 H 0.12801 0.965 0.692 0.0
H551 H 0.09953 0.98628 0.62658 0.0
C552 C 0.1418 0.94012 0.80942 0.0
C553 C 0.13278 0.9096 0.82904 0.0
C554 C 0.12561 0.9525 0.77195 0.0
C555 C 0.1 0.93466 0.75334 0.0
C556 C 0.09086 0.90428 0.77309 0.0
C557 C 0.10701 0.89193 0.81048 0.0
C558 C 0.0319 0.95627 0.66567 0.0
C559 C 0.05024 0.97105 0.63745 0.0
C560 C 0.04803 0.94462 0.70326 0.0
C561 C 0.08286 0.94755 0.71345 0.0
C562 C 0.10113 0.96261 0.68519 0.0
C563 C 0.08493 0.97436 0.6476 0.0
loop_
_geom_bond_atom_site_label_1
_geom_bond_atom_site_label_2
_geom_bond_distance
_geom_bond_site_symmetry_2
_ccdc_geom_bond_type
C0 C1 1.386 . S
C0 C2 1.397 . S
C0 H24 0.931 . S
C1 C0 1.386 . S
C1 C5 1.397 . S
C2 C0 1.397 . S
C2 C3 1.384 . S
C2 H25 0.930 . S
C3 C2 1.384 . S
C3 C4 1.377 . S
C3 C6 1.481 . S
C4 C3 1.377 . S
C4 C5 1.389 . S
C4 H26 0.929 . S
C5 C1 1.397 . S
C5 C4 1.389 . S
C5 H27 0.931 . S
C6 C3 1.481 . S
C6 C7 1.387 . S
C6 C11 1.390 1_556 S
C7 C6 1.387 . S
C7 C8 1.401 1_556 S
C7 H28 0.930 . S
C8 C7 1.401 1_554 S
C8 C9 1.376 . S
C8 C17 1.511 . S
C9 C8 1.376 . S
C9 C10 1.392 . S
C9 H30 0.931 . S
C10 C9 1.392 . S
C10 C11 1.361 . S
C10 C12 1.500 . S
C11 C6 1.390 1_554 S
C11 C10 1.361 . S
C11 H29 0.931 . S
C12 C10 1.500 . S
C12 C13 1.371 . S
C12 C14 1.365 . S
C13 C12 1.371 . S
C13 C23 1.386 . S
C13 H31 0.931 . S
C14 C12 1.365 . S
C14 C15 1.409 . S
C14 H32 0.929 . S
C15 C14 1.409 . S
C15 C16 1.380 . S
C15 H33 0.930 . S
C16 C15 1.380 . S
C16 C23 1.357 . S
C17 C8 1.511 . S
C17 C18 1.344 . S
C17 C19 1.371 . S
C18 C17 1.344 . S
C18 C22 1.393 . S
C18 H34 0.928 1_554 S
C19 C17 1.371 . S
C19 C20 1.392 . S
C19 H35 0.931 . S
C20 C19 1.392 . S
C20 C21 1.331 . S
C20 H38 0.932 . S
C21 C20 1.331 . S
C21 C22 1.336 . S
C22 C18 1.393 . S
C22 C21 1.336 . S
C22 H37 0.929 1_554 S
C23 C13 1.386 . S
C23 C16 1.357 . S
C23 H36 0.928 . S
H24 C0 0.931 . S
H25 C2 0.930 . S
H26 C4 0.929 . S
H27 C5 0.931 . S
H28 C7 0.930 . S
H29 C11 0.931 . S
H30 C9 0.931 . S
H31 C13 0.931 . S
H32 C14 0.929 . S
H33 C15 0.930 . S
H34 C18 0.928 1_556 S
H35 C19 0.931 . S
H36 C23 0.928 . S
H37 C22 0.929 1_556 S
H38 C20 0.932 . S
C39 C40 1.386 . S
C39 C41 1.397 . S
C39 H63 0.931 . S
C40 C39 1.386 . S
C40 C44 1.397 . S
C41 C39 1.397 . S
C41 C42 1.384 . S
C41 H64 0.930 . S
C42 C41 1.384 . S
C42 C43 1.377 . S
C42 C45 1.481 . S
C43 C42 1.377 . S
C43 C44 1.389 . S
C43 H65 0.929 . S
C44 C40 1.397 . S
C44 C43 1.389 . S
C44 H66 0.931 . S
C45 C42 1.481 . S
C45 C46 1.387 . S
C45 C50 1.390 . S
C46 C45 1.387 . S
C46 C47 1.401 . S
C46 H67 0.930 . S
C47 C46 1.401 . S
C47 C48 1.376 . S
C47 C56 1.511 . S
C48 C47 1.376 . S
C48 C49 1.392 . S
C48 H69 0.931 . S
C49 C48 1.392 . S
C49 C50 1.361 . S
C49 C51 1.500 . S
C50 C45 1.390 . S
C50 C49 1.361 . S
C50 H68 0.931 . S
C51 C49 1.500 . S
C51 C52 1.371 . S
C51 C53 1.365 . S
C52 C51 1.371 . S
C52 C62 1.386 . S
C52 H70 0.931 . S
C53 C51 1.365 . S
C53 C54 1.409 . S
C53 H71 0.929 . S
C54 C53 1.409 . S
C54 C55 1.380 . S
C54 H72 0.930 . S
C55 C54 1.380 . S
C55 C62 1.357 . S
C56 C47 1.511 . S
C56 C57 1.341 . S
C56 C58 1.371 . S
C57 C56 1.341 . S
C57 C61 1.394 . S
C57 H73 0.930 . S
C58 C56 1.371 . S
C58 C59 1.392 . S
C58 H74 0.931 . S
C59 C58 1.392 . S
C59 C60 1.331 . S
C59 H77 0.932 . S
C60 C59 1.331 . S
C60 C61 1.336 . S
C61 C57 1.394 . S
C61 C60 1.336 . S
C61 H76 0.929 . S
C62 C52 1.386 . S
C62 C55 1.357 . S
C62 H75 0.928 . S
H63 C39 0.931 . S
H64 C41 0.930 . S
H65 C43 0.929 . S
H66 C44 0.931 . S
H67 C46 0.930 . S
H68 C50 0.931 . S
H69 C48 0.931 . S
H70 C52 0.931 . S
H71 C53 0.929 . S
H72 C54 0.930 . S
H73 C57 0.930 . S
H74 C58 0.931 . S
H75 C62 0.928 . S
H76 C61 0.929 . S
H77 C59 0.932 . S
C78 C79 1.386 . S
C78 C80 1.397 . S
C78 H102 0.931 . S
C79 C78 1.386 . S
C79 C83 1.397 . S
C80 C78 1.397 . S
C80 C81 1.384 . S
C80 H103 0.930 . S
C81 C80 1.384 . S
C81 C82 1.377 . S
C81 C84 1.481 . S
C82 C81 1.377 . S
C82 C83 1.389 . S
C82 H104 0.929 . S
C83 C79 1.397 . S
C83 C82 1.389 . S
C83 H105 0.931 . S
C84 C81 1.481 . S
C84 C85 1.387 . S
C84 C89 1.390 . S
C85 C84 1.387 . S
C85 C86 1.401 . S
C85 H106 0.930 . S
C86 C85 1.401 . S
C86 C87 1.376 . S
C86 C95 1.511 . S
C87 C86 1.376 . S
C87 C88 1.392 . S
C87 H108 0.931 1_554 S
C88 C87 1.392 . S
C88 C89 1.361 . S
C88 C90 1.500 1_554 S
C89 C84 1.390 . S
C89 C88 1.361 . S
C89 H107 0.931 . S
C90 C88 1.500 1_556 S
C90 C91 1.371 . S
C90 C92 1.365 . S
C91 C90 1.371 . S
C91 C101 1.386 . S
C91 H109 0.931 . S
C92 C90 1.365 . S
C92 C93 1.409 . S
C92 H110 0.929 . S
C93 C92 1.409 . S
C93 C94 1.380 . S
C93 H111 0.930 . S
C94 C93 1.380 . S
C94 C101 1.357 . S
C95 C86 1.511 . S
C95 C96 1.341 . S
C95 C97 1.371 1_554 S
C96 C95 1.341 . S
C96 C100 1.394 . S
C96 H112 0.930 . S
C97 C95 1.371 1_556 S
C97 C98 1.392 . S
C97 H113 0.931 . S
C98 C97 1.392 . S
C98 C99 1.331 1_556 S
C98 H116 0.932 . S
C99 C98 1.331 1_554 S
C99 C100 1.336 . S
C100 C96 1.394 . S
C100 C99 1.336 . S
C100 H115 0.929 . S
C101 C91 1.386 . S
C101 C94 1.357 . S
C101 H114 0.928 . S
H102 C78 0.931 . S
H103 C80 0.930 . S
H104 C82 0.929 . S
H105 C83 0.931 . S
H106 C85 0.930 . S
H107 C89 0.931 . S
H108 C87 0.931 1_556 S
H109 C91 0.931 . S
H110 C92 0.929 . S
H111 C93 0.930 . S
H112 C96 0.930 . S
H113 C97 0.931 . S
H114 C101 0.928 . S
H115 C100 0.929 . S
H116 C98 0.932 . S
C117 C118 1.386 . S
C117 C119 1.397 . S
C117 H141 0.931 . S
C118 C117 1.386 . S
C118 C122 1.397 . S
C119 C117 1.397 . S
C119 C120 1.384 . S
C119 H142 0.930 . S
C120 C119 1.384 . S
C120 C121 1.377 . S
C120 C123 1.481 . S
C121 C120 1.377 . S
C121 C122 1.389 . S
C121 H143 0.929 . S
C122 C118 1.397 . S
C122 C121 1.389 . S
C122 H144 0.931 . S
C123 C120 1.481 . S
C123 C124 1.387 . S
C123 C128 1.390 . S
C124 C123 1.387 . S
C124 C125 1.401 . S
C124 H145 0.930 . S
C125 C124 1.401 . S
C125 C126 1.376 . S
C125 C134 1.511 . S
C126 C125 1.376 . S
C126 C127 1.392 . S
C126 H147 0.931 . S
C127 C126 1.392 . S
C127 C128 1.361 . S
C127 C129 1.500 . S
C128 C123 1.390 . S
C128 C127 1.361 . S
C128 H146 0.931 . S
C129 C127 1.500 . S
C129 C130 1.371 . S
C129 C131 1.365 . S
C130 C129 1.371 . S
C130 C140 1.386 . S
C130 H148 0.931 . S
C131 C129 1.365 . S
C131 C132 1.409 . S
C131 H149 0.929 . S
C132 C131 1.409 . S
C132 C133 1.380 . S
C132 H150 0.930 . S
C133 C132 1.380 . S
C133 C140 1.357 . S
C134 C125 1.511 . S
C134 C135 1.341 . S
C134 C136 1.371 . S
C135 C134 1.341 . S
C135 C139 1.394 . S
C135 H151 0.930 . S
C136 C134 1.371 . S
C136 C137 1.392 . S
C136 H152 0.931 . S
C137 C136 1.392 . S
C137 C138 1.331 . S
C137 H155 0.932 . S
C138 C137 1.331 . S
C138 C139 1.336 . S
C139 C135 1.394 . S
C139 C138 1.336 . S
C139 H154 0.929 . S
C140 C130 1.386 . S
C140 C133 1.357 . S
C140 H153 0.928 . S
H141 C117 0.931 . S
H142 C119 0.930 . S
H143 C121 0.929 . S
H144 C122 0.931 . S
H145 C124 0.930 . S
H146 C128 0.931 . S
H147 C126 0.931 . S
H148 C130 0.931 . S
H149 C131 0.929 . S
H150 C132 0.930 . S
H151 C135 0.930 . S
H152 C136 0.931 . S
H153 C140 0.928 . S
H154 C139 0.929 . S
H155 C137 0.932 . S
Eu156 N185 2.600 . S
Eu156 N191 2.562 . S
Eu156 O200 2.462 . S
Eu156 O201 2.373 . S
Eu156 O203 2.432 . S
Eu156 O204 2.291 1_565 S
Eu156 O208 2.335 1_455 S
Eu156 O211 2.372 1_455 S
Eu156 C220 2.787 . S
C157 N158 1.365 . S
C157 C160 1.405 . S
C157 C164 1.448 . S
N158 C157 1.365 . S
N158 C161 1.305 1_655 S
N158 Eu167 2.600 . S
C159 C161 1.398 1_655 S
C159 C162 1.367 . S
C159 H179 0.931 1_655 S
C160 C157 1.405 . S
C160 C162 1.403 . S
C160 C166 1.439 . S
C161 N158 1.305 1_455 S
C161 C159 1.398 1_455 S
C161 H172 0.944 . S
C162 C159 1.367 . S
C162 C160 1.403 . S
C162 H183 0.929 . S
C163 C164 1.430 . S
C163 C165 1.387 . S
C163 C169 1.404 . S
C164 C157 1.448 . S
C164 C163 1.430 . S
C164 N168 1.351 . S
C165 C163 1.387 . S
C165 C166 1.374 . S
C165 H180 0.931 . S
C166 C160 1.439 . S
C166 C165 1.374 . S
C166 H181 0.931 . S
Eu167 N158 2.600 . S
Eu167 N168 2.562 . S
Eu167 O202 2.335 1_655 S
Eu167 O205 2.372 1_655 S
Eu167 O206 2.462 . S
Eu167 O207 2.373 . S
Eu167 O209 2.432 . S
Eu167 O210 2.291 1_545 S
Eu167 C231 2.787 . S
N168 C164 1.351 . S
N168 Eu167 2.562 . S
N168 C170 1.325 . S
C169 C163 1.404 . S
C169 C171 1.366 . S
C169 H177 0.930 . S
C170 N168 1.325 . S
C170 C171 1.416 . S
C170 H176 0.929 . S
C171 C169 1.366 . S
C171 C170 1.416 . S
C171 H173 0.930 . S
H172 C161 0.944 . S
H173 C171 0.930 . S
H174 C189 0.930 1_655 S
H175 C196 0.930 . S
H176 C170 0.929 . S
H177 C169 0.930 . S
H178 C192 0.929 . S
H179 C159 0.931 1_455 S
H180 C165 0.931 . S
H181 C166 0.931 . S
H182 C187 0.931 1_655 S
H183 C162 0.929 . S
H184 C195 0.930 . S
N185 Eu156 2.600 . S
N185 C186 1.365 . S
N185 C189 1.319 . S
C186 N185 1.365 . S
C186 C188 1.405 . S
C186 C194 1.448 . S
C187 H182 0.931 1_455 S
C187 C189 1.397 . S
C187 C190 1.367 . S
C188 C186 1.405 . S
C188 C190 1.403 . S
C188 C221 1.439 . S
C189 H174 0.930 1_455 S
C189 N185 1.319 . S
C189 C187 1.397 . S
C190 C187 1.367 . S
C190 C188 1.403 . S
C190 H197 0.929 . S
N191 Eu156 2.562 . S
N191 C192 1.325 . S
N191 C194 1.351 . S
C192 H178 0.929 . S
C192 N191 1.325 . S
C192 C196 1.416 . S
C193 C194 1.430 . S
C193 C195 1.404 . S
C193 C222 1.387 . S
C194 C186 1.448 . S
C194 N191 1.351 . S
C194 C193 1.430 . S
C195 H184 0.930 . S
C195 C193 1.404 . S
C195 C196 1.366 . S
C196 H175 0.930 . S
C196 C192 1.416 . S
C196 C195 1.366 . S
H197 C190 0.929 . S
H198 C221 0.931 . S
H199 C222 0.931 . S
O200 Eu156 2.462 . S
O200 C220 1.252 . S
O201 Eu156 2.373 . S
O201 C212 1.249 . S
O202 Eu167 2.335 1_455 S
O202 C212 1.264 1_545 S
O203 Eu156 2.432 . S
O203 C220 1.268 . S
O204 Eu156 2.291 1_545 S
O204 C219 1.255 . S
O205 Eu167 2.372 1_455 S
O205 C219 1.257 . S
O206 Eu167 2.462 . S
O206 C231 1.252 . S
O207 Eu167 2.373 . S
O207 C223 1.249 . S
O208 Eu156 2.335 1_655 S
O208 C223 1.264 1_565 S
O209 Eu167 2.432 . S
O209 C231 1.268 . S
O210 Eu167 2.291 1_565 S
O210 C230 1.255 . S
O211 Eu156 2.372 1_655 S
O211 C230 1.257 . S
C212 O201 1.249 . S
C212 O202 1.264 1_565 S
C213 C216 1.382 . S
C213 C218 1.390 . S
C213 C220 1.506 . S
C214 C215 1.398 . S
C214 C218 1.392 . S
C215 C214 1.398 . S
C215 C217 1.372 . S
C215 H232 0.931 . S
C216 C213 1.382 . S
C216 C217 1.390 . S
C216 H233 0.931 . S
C217 C215 1.372 . S
C217 C216 1.390 . S
C217 H234 0.929 . S
C218 C213 1.390 . S
C218 C214 1.392 . S
C218 H235 0.930 . S
C219 O204 1.255 . S
C219 O205 1.257 . S
C220 Eu156 2.787 . S
C220 O200 1.252 . S
C220 O203 1.268 . S
C220 C213 1.506 . S
C221 C188 1.439 . S
C221 H198 0.931 . S
C221 C222 1.374 . S
C222 C193 1.387 . S
C222 H199 0.931 . S
C222 C221 1.374 . S
C223 O207 1.249 . S
C223 O208 1.264 1_545 S
C224 C227 1.382 . S
C224 C228 1.390 . S
C224 C231 1.506 . S
C225 C226 1.398 . S
C225 C228 1.392 . S
C226 C225 1.398 . S
C226 C229 1.372 . S
C226 H236 0.931 . S
C227 C224 1.382 . S
C227 C229 1.390 . S
C227 H237 0.931 . S
C228 C224 1.390 . S
C228 C225 1.392 . S
C228 H238 0.930 . S
C229 C226 1.372 . S
C229 C227 1.390 . S
C229 H239 0.929 . S
C230 O210 1.255 . S
C230 O211 1.257 . S
C231 Eu167 2.787 . S
C231 O206 1.252 . S
C231 O209 1.268 . S
C231 C224 1.506 . S
H232 C215 0.931 . S
H233 C216 0.931 . S
H234 C217 0.929 . S
H235 C218 0.930 . S
H236 C226 0.931 . S
H237 C227 0.931 . S
H238 C228 0.930 . S
H239 C229 0.929 . S
Eu240 N269 2.600 . S
Eu240 N275 2.562 1_556 S
Eu240 O284 2.462 . S
Eu240 O285 2.373 1_556 S
Eu240 O287 2.432 . S
Eu240 O288 2.291 1_556 S
Eu240 O292 2.335 . S
Eu240 O295 2.372 . S
Eu240 C304 2.787 . S
C241 N242 1.365 . S
C241 C244 1.405 . S
C241 C248 1.448 . S
N242 C241 1.365 . S
N242 C245 1.319 . S
N242 Eu251 2.600 . S
C243 C245 1.397 . S
C243 C246 1.367 . S
C243 H263 0.931 . S
C244 C241 1.405 . S
C244 C246 1.403 . S
C244 C250 1.439 . S
C245 N242 1.319 . S
C245 C243 1.397 . S
C245 H256 0.930 . S
C246 C243 1.367 . S
C246 C244 1.403 . S
C246 H267 0.929 . S
C247 C248 1.430 . S
C247 C249 1.387 . S
C247 C253 1.404 . S
C248 C241 1.448 . S
C248 C247 1.430 . S
C248 N252 1.351 . S
C249 C247 1.387 . S
C249 C250 1.374 . S
C249 H264 0.931 . S
C250 C244 1.439 . S
C250 C249 1.374 . S
C250 H265 0.931 . S
Eu251 N242 2.600 . S
Eu251 N252 2.562 . S
Eu251 O286 2.335 . S
Eu251 O289 2.372 . S
Eu251 O290 2.462 . S
Eu251 O291 2.373 1_554 S
Eu251 O293 2.432 . S
Eu251 O294 2.291 . S
Eu251 C315 2.787 . S
N252 C248 1.351 . S
N252 Eu251 2.562 . S
N252 C254 1.325 . S
C253 C247 1.404 . S
C253 C255 1.366 . S
C253 H261 0.930 . S
C254 N252 1.325 . S
C254 C255 1.416 . S
C254 H260 0.929 . S
C255 C253 1.366 . S
C255 C254 1.416 . S
C255 H257 0.930 . S
H256 C245 0.930 . S
H257 C255 0.930 . S
H258 C273 0.930 . S
H259 C280 0.930 . S
H260 C254 0.929 . S
H261 C253 0.930 . S
H262 C276 0.929 . S
H263 C243 0.931 . S
H264 C249 0.931 . S
H265 C250 0.931 . S
H266 C271 0.931 . S
H267 C246 0.929 . S
H268 C279 0.930 . S
N269 Eu240 2.600 . S
N269 C270 1.365 1_556 S
N269 C273 1.319 . S
C270 N269 1.365 1_554 S
C270 C272 1.405 . S
C270 C278 1.448 . S
C271 H266 0.931 . S
C271 C273 1.397 . S
C271 C274 1.367 1_556 S
C272 C270 1.405 . S
C272 C274 1.403 . S
C272 C305 1.439 . S
C273 H258 0.930 . S
C273 N269 1.319 . S
C273 C271 1.397 . S
C274 C271 1.367 1_554 S
C274 C272 1.403 . S
C274 H281 0.929 . S
N275 Eu240 2.562 1_554 S
N275 C276 1.325 . S
N275 C278 1.351 . S
C276 H262 0.929 . S
C276 N275 1.325 . S
C276 C280 1.416 . S
C277 C278 1.430 . S
C277 C279 1.404 . S
C277 C306 1.387 . S
C278 C270 1.448 . S
C278 N275 1.351 . S
C278 C277 1.430 . S
C279 H268 0.930 . S
C279 C277 1.404 . S
C279 C280 1.366 . S
C280 H259 0.930 . S
C280 C276 1.416 . S
C280 C279 1.366 . S
H281 C274 0.929 . S
H282 C305 0.931 . S
H283 C306 0.931 . S
O284 Eu240 2.462 . S
O284 C304 1.252 . S
O285 Eu240 2.373 1_554 S
O285 C296 1.249 . S
O286 Eu251 2.335 . S
O286 C296 1.264 . S
O287 Eu240 2.432 . S
O287 C304 1.268 . S
O288 Eu240 2.291 1_554 S
O288 C303 1.255 . S
O289 Eu251 2.372 . S
O289 C303 1.257 . S
O290 Eu251 2.462 . S
O290 C315 1.252 . S
O291 Eu251 2.373 1_556 S
O291 C307 1.249 . S
O292 Eu240 2.335 . S
O292 C307 1.264 . S
O293 Eu251 2.432 . S
O293 C315 1.268 . S
O294 Eu251 2.291 . S
O294 C314 1.255 . S
O295 Eu240 2.372 . S
O295 C314 1.257 1_556 S
C296 O285 1.249 . S
C296 O286 1.264 . S
C297 C300 1.382 . S
C297 C302 1.390 . S
C297 C304 1.506 . S
C298 C299 1.398 . S
C298 C302 1.392 . S
C299 C298 1.398 . S
C299 C301 1.372 . S
C299 H316 0.931 . S
C300 C297 1.382 . S
C300 C301 1.390 . S
C300 H317 0.931 . S
C301 C299 1.372 . S
C301 C300 1.390 . S
C301 H318 0.929 . S
C302 C297 1.390 . S
C302 C298 1.392 . S
C302 H319 0.930 . S
C303 O288 1.255 . S
C303 O289 1.257 . S
C304 Eu240 2.787 . S
C304 O284 1.252 . S
C304 O287 1.268 . S
C304 C297 1.506 . S
C305 C272 1.439 . S
C305 H282 0.931 . S
C305 C306 1.374 . S
C306 C277 1.387 . S
C306 H283 0.931 . S
C306 C305 1.374 . S
C307 O291 1.249 . S
C307 O292 1.264 . S
C308 C311 1.382 . S
C308 C312 1.390 . S
C308 C315 1.506 . S
C309 C310 1.398 . S
C309 C312 1.392 . S
C310 C309 1.398 . S
C310 C313 1.372 . S
C310 H320 0.931 . S
C311 C308 1.382 . S
C311 C313 1.390 . S
C311 H321 0.931 . S
C312 C308 1.390 . S
C312 C309 1.392 . S
C312 H322 0.930 . S
C313 C310 1.372 . S
C313 C311 1.390 . S
C313 H323 0.929 . S
C314 O294 1.255 . S
C314 O295 1.257 1_554 S
C315 Eu251 2.787 . S
C315 O290 1.252 . S
C315 O293 1.268 . S
C315 C308 1.506 . S
H316 C299 0.931 . S
H317 C300 0.931 . S
H318 C301 0.929 . S
H319 C302 0.930 . S
H320 C310 0.931 . S
H321 C311 0.931 . S
H322 C312 0.930 . S
H323 C313 0.929 . S
H324 C332 0.950 . S
H325 C337 0.950 . S
H326 C334 0.950 . S
H327 C336 0.950 . S
H328 C338 0.950 . S
H329 C340 0.950 . S
H330 C342 0.950 . S
H331 C343 0.950 . S
C332 H324 0.950 . S
C332 C333 1.386 . S
C332 C334 1.391 . S
C333 C332 1.386 . S
C333 C337 1.393 . S
C334 H326 0.950 . S
C334 C332 1.391 . S
C334 C335 1.400 . S
C335 C334 1.400 . S
C335 C336 1.398 . S
C335 C341 1.491 . S
C336 H327 0.950 . S
C336 C335 1.398 . S
C336 C337 1.391 . S
C337 H325 0.950 . S
C337 C333 1.393 . S
C337 C336 1.391 . S
C338 H328 0.950 . S
C338 C339 1.386 . S
C338 C340 1.391 . S
C339 C338 1.386 . S
C339 C343 1.393 . S
C340 H329 0.950 . S
C340 C338 1.391 . S
C340 C341 1.400 . S
C341 C335 1.491 . S
C341 C340 1.400 . S
C341 C342 1.398 . S
C342 H330 0.950 . S
C342 C341 1.398 . S
C342 C343 1.391 . S
C343 H331 0.950 . S
C343 C339 1.393 . S
C343 C342 1.391 . S
H344 C352 0.950 . S
H345 C357 0.950 . S
H346 C354 0.950 . S
H347 C356 0.950 . S
H348 C358 0.950 . S
H349 C360 0.950 . S
H350 C362 0.950 . S
H351 C363 0.950 . S
C352 H344 0.950 . S
C352 C353 1.386 . S
C352 C354 1.391 . S
C353 C352 1.386 . S
C353 C357 1.393 . S
C354 H346 0.950 . S
C354 C352 1.391 . S
C354 C355 1.400 . S
C355 C354 1.400 . S
C355 C356 1.398 . S
C355 C361 1.491 . S
C356 H347 0.950 . S
C356 C355 1.398 . S
C356 C357 1.391 . S
C357 H345 0.950 . S
C357 C353 1.393 . S
C357 C356 1.391 . S
C358 H348 0.950 . S
C358 C359 1.386 . S
C358 C360 1.391 . S
C359 C358 1.386 . S
C359 C363 1.393 . S
C360 H349 0.950 . S
C360 C358 1.391 . S
C360 C361 1.400 . S
C361 C355 1.491 . S
C361 C360 1.400 . S
C361 C362 1.398 . S
C362 H350 0.950 . S
C362 C361 1.398 . S
C362 C363 1.391 . S
C363 H351 0.950 . S
C363 C359 1.393 . S
C363 C362 1.391 . S
H364 C372 0.950 . S
H365 C377 0.950 . S
H366 C374 0.950 . S
H367 C376 0.950 . S
H368 C378 0.950 . S
H369 C380 0.950 . S
H370 C382 0.950 . S
H371 C383 0.950 . S
C372 H364 0.950 . S
C372 C373 1.386 . S
C372 C374 1.391 . S
C373 C372 1.386 . S
C373 C377 1.393 . S
C374 H366 0.950 . S
C374 C372 1.391 . S
C374 C375 1.400 . S
C375 C374 1.400 . S
C375 C376 1.398 . S
C375 C381 1.491 . S
C376 H367 0.950 . S
C376 C375 1.398 . S
C376 C377 1.391 . S
C377 H365 0.950 . S
C377 C373 1.393 . S
C377 C376 1.391 . S
C378 H368 0.950 . S
C378 C379 1.386 . S
C378 C380 1.391 . S
C379 C378 1.386 . S
C379 C383 1.393 . S
C380 H369 0.950 . S
C380 C378 1.391 . S
C380 C381 1.400 . S
C381 C375 1.491 . S
C381 C380 1.400 . S
C381 C382 1.398 . S
C382 H370 0.950 . S
C382 C381 1.398 . S
C382 C383 1.391 . S
C383 H371 0.950 . S
C383 C379 1.393 . S
C383 C382 1.391 . S
H384 C392 0.950 . S
H385 C397 0.950 . S
H386 C394 0.950 . S
H387 C396 0.950 . S
H388 C398 0.950 . S
H389 C400 0.950 . S
H390 C402 0.950 . S
H391 C403 0.950 . S
C392 H384 0.950 . S
C392 C393 1.386 1_556 S
C392 C394 1.391 . S
C393 C392 1.386 1_554 S
C393 C397 1.393 . S
C394 H386 0.950 . S
C394 C392 1.391 . S
C394 C395 1.400 1_556 S
C395 C394 1.400 1_554 S
C395 C396 1.398 . S
C395 C401 1.491 . S
C396 H387 0.950 . S
C396 C395 1.398 . S
C396 C397 1.391 . S
C397 H385 0.950 . S
C397 C393 1.393 . S
C397 C396 1.391 . S
C398 H388 0.950 . S
C398 C399 1.386 . S
C398 C400 1.391 . S
C399 C398 1.386 . S
C399 C403 1.393 1_554 S
C400 H389 0.950 . S
C400 C398 1.391 . S
C400 C401 1.400 . S
C401 C395 1.491 . S
C401 C400 1.400 . S
C401 C402 1.398 1_554 S
C402 H390 0.950 . S
C402 C401 1.398 1_556 S
C402 C403 1.391 . S
C403 H391 0.950 . S
C403 C399 1.393 1_556 S
C403 C402 1.391 . S
H404 C412 0.950 . S
H405 C417 0.950 . S
H406 C414 0.950 . S
H407 C416 0.950 . S
H408 C418 0.950 . S
H409 C420 0.950 . S
H410 C422 0.950 . S
H411 C423 0.950 . S
C412 H404 0.950 . S
C412 C413 1.386 . S
C412 C414 1.391 . S
C413 C412 1.386 . S
C413 C417 1.393 . S
C414 H406 0.950 . S
C414 C412 1.391 . S
C414 C415 1.400 . S
C415 C414 1.400 . S
C415 C416 1.398 . S
C415 C421 1.491 . S
C416 H407 0.950 . S
C416 C415 1.398 . S
C416 C417 1.391 . S
C417 H405 0.950 . S
C417 C413 1.393 . S
C417 C416 1.391 . S
C418 H408 0.950 . S
C418 C419 1.386 . S
C418 C420 1.391 . S
C419 C418 1.386 . S
C419 C423 1.393 . S
C420 H409 0.950 . S
C420 C418 1.391 . S
C420 C421 1.400 . S
C421 C415 1.491 . S
C421 C420 1.400 . S
C421 C422 1.398 . S
C422 H410 0.950 . S
C422 C421 1.398 . S
C422 C423 1.391 . S
C423 H411 0.950 . S
C423 C419 1.393 . S
C423 C422 1.391 . S
H424 C432 0.950 . S
H425 C437 0.950 . S
H426 C434 0.950 . S
H427 C436 0.950 . S
H428 C438 0.950 . S
H429 C440 0.950 . S
H430 C442 0.950 . S
H431 C443 0.950 . S
C432 H424 0.950 . S
C432 C433 1.386 . S
C432 C434 1.391 . S
C433 C432 1.386 . S
C433 C437 1.393 . S
C434 H426 0.950 . S
C434 C432 1.391 . S
C434 C435 1.400 . S
C435 C434 1.400 . S
C435 C436 1.398 . S
C435 C441 1.491 . S
C436 H427 0.950 . S
C436 C435 1.398 . S
C436 C437 1.391 . S
C437 H425 0.950 . S
C437 C433 1.393 . S
C437 C436 1.391 . S
C438 H428 0.950 . S
C438 C439 1.386 . S
C438 C440 1.391 . S
C439 C438 1.386 . S
C439 C443 1.393 . S
C440 H429 0.950 . S
C440 C438 1.391 . S
C440 C441 1.400 . S
C441 C435 1.491 . S
C441 C440 1.400 . S
C441 C442 1.398 . S
C442 H430 0.950 . S
C442 C441 1.398 . S
C442 C443 1.391 . S
C443 H431 0.950 . S
C443 C439 1.393 . S
C443 C442 1.391 . S
H444 C452 0.950 . S
H445 C457 0.950 . S
H446 C454 0.950 . S
H447 C456 0.950 . S
H448 C458 0.950 . S
H449 C460 0.950 . S
H450 C462 0.950 1_565 S
H451 C463 0.950 1_565 S
C452 H444 0.950 . S
C452 C453 1.386 . S
C452 C454 1.391 . S
C453 C452 1.386 . S
C453 C457 1.393 . S
C454 H446 0.950 . S
C454 C452 1.391 . S
C454 C455 1.400 . S
C455 C454 1.400 . S
C455 C456 1.398 . S
C455 C461 1.491 . S
C456 H447 0.950 . S
C456 C455 1.398 . S
C456 C457 1.391 . S
C457 H445 0.950 . S
C457 C453 1.393 . S
C457 C456 1.391 . S
C458 H448 0.950 . S
C458 C459 1.386 . S
C458 C460 1.391 . S
C459 C458 1.386 . S
C459 C463 1.393 . S
C460 H449 0.950 . S
C460 C458 1.391 . S
C460 C461 1.400 . S
C461 C455 1.491 . S
C461 C460 1.400 . S
C461 C462 1.398 . S
C462 H450 0.950 1_545 S
C462 C461 1.398 . S
C462 C463 1.391 . S
C463 H451 0.950 1_545 S
C463 C459 1.393 . S
C463 C462 1.391 . S
H464 C472 0.950 . S
H465 C477 0.950 . S
H466 C474 0.950 . S
H467 C476 0.950 . S
H468 C478 0.950 . S
H469 C480 0.950 . S
H470 C482 0.950 . S
H471 C483 0.950 . S
C472 H464 0.950 . S
C472 C473 1.386 . S
C472 C474 1.391 . S
C473 C472 1.386 . S
C473 C477 1.393 . S
C474 H466 0.950 . S
C474 C472 1.391 . S
C474 C475 1.400 . S
C475 C474 1.400 . S
C475 C476 1.398 . S
C475 C481 1.491 . S
C476 H467 0.950 . S
C476 C475 1.398 . S
C476 C477 1.391 . S
C477 H465 0.950 . S
C477 C473 1.393 . S
C477 C476 1.391 . S
C478 H468 0.950 . S
C478 C479 1.386 . S
C478 C480 1.391 . S
C479 C478 1.386 . S
C479 C483 1.393 . S
C480 H469 0.950 . S
C480 C478 1.391 . S
C480 C481 1.400 . S
C481 C475 1.491 . S
C481 C480 1.400 . S
C481 C482 1.398 . S
C482 H470 0.950 . S
C482 C481 1.398 . S
C482 C483 1.391 . S
C483 H471 0.950 . S
C483 C479 1.393 . S
C483 C482 1.391 . S
H484 C492 0.950 . S
H485 C497 0.950 . S
H486 C494 0.950 . S
H487 C496 0.950 . S
H488 C498 0.950 . S
H489 C500 0.950 . S
H490 C502 0.950 . S
H491 C503 0.950 . S
C492 H484 0.950 . S
C492 C493 1.386 . S
C492 C494 1.391 . S
C493 C492 1.386 . S
C493 C497 1.393 . S
C494 H486 0.950 . S
C494 C492 1.391 . S
C494 C495 1.400 . S
C495 C494 1.400 . S
C495 C496 1.398 . S
C495 C501 1.491 . S
C496 H487 0.950 . S
C496 C495 1.398 . S
C496 C497 1.391 . S
C497 H485 0.950 . S
C497 C493 1.393 . S
C497 C496 1.391 . S
C498 H488 0.950 . S
C498 C499 1.386 . S
C498 C500 1.391 . S
C499 C498 1.386 . S
C499 C503 1.393 . S
C500 H489 0.950 . S
C500 C498 1.391 . S
C500 C501 1.400 . S
C501 C495 1.491 . S
C501 C500 1.400 . S
C501 C502 1.398 . S
C502 H490 0.950 . S
C502 C501 1.398 . S
C502 C503 1.391 . S
C503 H491 0.950 . S
C503 C499 1.393 . S
C503 C502 1.391 . S
H504 C512 0.950 . S
H505 C517 0.950 . S
H506 C514 0.950 . S
H507 C516 0.950 . S
H508 C518 0.950 . S
H509 C520 0.950 . S
H510 C522 0.950 . S
H511 C523 0.950 . S
C512 H504 0.950 . S
C512 C513 1.386 . S
C512 C514 1.391 . S
C513 C512 1.386 . S
C513 C517 1.393 . S
C514 H506 0.950 . S
C514 C512 1.391 . S
C514 C515 1.400 . S
C515 C514 1.400 . S
C515 C516 1.398 . S
C515 C521 1.491 . S
C516 H507 0.950 . S
C516 C515 1.398 . S
C516 C517 1.391 . S
C517 H505 0.950 . S
C517 C513 1.393 . S
C517 C516 1.391 . S
C518 H508 0.950 . S
C518 C519 1.386 . S
C518 C520 1.391 . S
C519 C518 1.386 . S
C519 C523 1.393 . S
C520 H509 0.950 . S
C520 C518 1.391 . S
C520 C521 1.400 . S
C521 C515 1.491 . S
C521 C520 1.400 . S
C521 C522 1.398 . S
C522 H510 0.950 . S
C522 C521 1.398 . S
C522 C523 1.391 . S
C523 H511 0.950 . S
C523 C519 1.393 . S
C523 C522 1.391 . S
H524 C532 0.950 . S
H525 C537 0.950 . S
H526 C534 0.950 . S
H527 C536 0.950 . S
H528 C538 0.950 . S
H529 C540 0.950 . S
H530 C542 0.950 . S
H531 C543 0.950 . S
C532 H524 0.950 . S
C532 C533 1.386 . S
C532 C534 1.391 . S
C533 C532 1.386 . S
C533 C537 1.393 . S
C534 H526 0.950 . S
C534 C532 1.391 . S
C534 C535 1.400 . S
C535 C534 1.400 . S
C535 C536 1.398 . S
C535 C541 1.491 . S
C536 H527 0.950 . S
C536 C535 1.398 . S
C536 C537 1.391 . S
C537 H525 0.950 . S
C537 C533 1.393 . S
C537 C536 1.391 . S
C538 H528 0.950 . S
C538 C539 1.386 . S
C538 C540 1.391 . S
C539 C538 1.386 . S
C539 C543 1.393 . S
C540 H529 0.950 . S
C540 C538 1.391 . S
C540 C541 1.400 . S
C541 C535 1.491 . S
C541 C540 1.400 . S
C541 C542 1.398 . S
C542 H530 0.950 . S
C542 C541 1.398 . S
C542 C543 1.391 . S
C543 H531 0.950 . S
C543 C539 1.393 . S
C543 C542 1.391 . S
H544 C552 0.950 . S
H545 C557 0.950 . S
H546 C554 0.950 . S
H547 C556 0.950 . S
H548 C558 0.950 . S
H549 C560 0.950 . S
H550 C562 0.950 . S
H551 C563 0.950 . S
C552 H544 0.950 . S
C552 C553 1.386 . S
C552 C554 1.391 . S
C553 C552 1.386 . S
C553 C557 1.393 . S
C554 H546 0.950 . S
C554 C552 1.391 . S
C554 C555 1.400 . S
C555 C554 1.400 . S
C555 C556 1.398 . S
C555 C561 1.491 . S
C556 H547 0.950 . S
C556 C555 1.398 . S
C556 C557 1.391 . S
C557 H545 0.950 . S
C557 C553 1.393 . S
C557 C556 1.391 . S
C558 H548 0.950 . S
C558 C559 1.386 . S
C558 C560 1.391 . S
C559 C558 1.386 . S
C559 C563 1.393 . S
C560 H549 0.950 . S
C560 C558 1.391 . S
C560 C561 1.400 . S
C561 C555 1.491 . S
C561 C560 1.400 . S
C561 C562 1.398 . S
C562 H550 0.950 . S
C562 C561 1.398 . S
C562 C563 1.391 . S
C563 H551 0.950 . S
C563 C559 1.393 . S
C563 C562 1.391 . S
C339 C219 1.643 . S
C333 C138 1.621 . S
C353 C21 1.618 . S
C359 C314 1.618 . S
C373 C60 1.637 . S
C379 C230 1.633 . S
C393 C99 1.631 . S
C399 C303 1.630 . S
C419 C214 1.428 . S
C413 C16 1.556 . S
C439 C307 1.616 . S
C433 C40 1.601 . S
C453 C79 1.603 . S
C459 C223 1.623 . S
C473 C133 1.539 . S
C479 C298 1.399 . S
C499 C309 1.425 . S
C493 C55 1.537 . S
C519 C225 1.420 . S
C513 C94 1.556 . S
C539 C296 1.615 . S
C533 C118 1.609 . S
C553 C1 1.591 . S
C559 C212 1.621 . S
