# Generated by pormake.
# Topology zzz, (3,6)-cn, num edge types: 1
# Building blocks:
#     Node 0, Type 0, BuildingBlock: CUQRIR_clean_linker_1, # of connection points: 3
#     Node 1, Type 0, BuildingBlock: CUQRIR_clean_linker_1, # of connection points: 3
#     Node 2, Type 0, BuildingBlock: CUQRIR_clean_linker_1, # of connection points: 3
#     Node 3, Type 0, BuildingBlock: CUQRIR_clean_linker_1, # of connection points: 3
#     Node 4, Type 0, BuildingBlock: CUQRIR_clean_linker_1, # of connection points: 3
#     Node 5, Type 0, BuildingBlock: CUQRIR_clean_linker_1, # of connection points: 3
#     Node 6, Type 0, BuildingBlock: CUQRIR_clean_linker_1, # of connection points: 3
#     Node 7, Type 0, BuildingBlock: CUQRIR_clean_linker_1, # of connection points: 3
#     Node 8, Type 1, BuildingBlock: MIFKUJ_clean_sbu_0, # of connection points: 6
#     Node 9, Type 1, BuildingBlock: MIFKUJ_clean_sbu_0, # of connection points: 6
#     Node 10, Type 1, BuildingBlock: MIFKUJ_clean_sbu_0, # of connection points: 6
#     Node 11, Type 1, BuildingBlock: MIFKUJ_clean_sbu_0, # of connection points: 6
#     Edge 12, Type (0, 1), BuildingBlock: XUDNAN_clean_linker_2, # of connection points: 2
#     Edge 13, Type (0, 1), BuildingBlock: XUDNAN_clean_linker_2, # of connection points: 2
#     Edge 14, Type (0, 1), BuildingBlock: XUDNAN_clean_linker_2, # of connection points: 2
#     Edge 15, Type (0, 1), BuildingBlock: XUDNAN_clean_linker_2, # of connection points: 2
#     Edge 16, Type (0, 1), BuildingBlock: XUDNAN_clean_linker_2, # of connection points: 2
#     Edge 17, Type (0, 1), BuildingBlock: XUDNAN_clean_linker_2, # of connection points: 2
#     Edge 18, Type (0, 1), BuildingBlock: XUDNAN_clean_linker_2, # of connection points: 2
#     Edge 19, Type (0, 1), BuildingBlock: XUDNAN_clean_linker_2, # of connection points: 2
#     Edge 20, Type (0, 1), BuildingBlock: XUDNAN_clean_linker_2, # of connection points: 2
#     Edge 21, Type (0, 1), BuildingBlock: XUDNAN_clean_linker_2, # of connection points: 2
#     Edge 22, Type (0, 1), BuildingBlock: XUDNAN_clean_linker_2, # of connection points: 2
#     Edge 23, Type (0, 1), BuildingBlock: XUDNAN_clean_linker_2, # of connection points: 2
#     Edge 24, Type (0, 1), BuildingBlock: XUDNAN_clean_linker_2, # of connection points: 2
#     Edge 25, Type (0, 1), BuildingBlock: XUDNAN_clean_linker_2, # of connection points: 2
#     Edge 26, Type (0, 1), BuildingBlock: XUDNAN_clean_linker_2, # of connection points: 2
#     Edge 27, Type (0, 1), BuildingBlock: XUDNAN_clean_linker_2, # of connection points: 2
#     Edge 28, Type (0, 1), BuildingBlock: XUDNAN_clean_linker_2, # of connection points: 2
#     Edge 29, Type (0, 1), BuildingBlock: XUDNAN_clean_linker_2, # of connection points: 2
#     Edge 30, Type (0, 1), BuildingBlock: XUDNAN_clean_linker_2, # of connection points: 2
#     Edge 31, Type (0, 1), BuildingBlock: XUDNAN_clean_linker_2, # of connection points: 2
#     Edge 32, Type (0, 1), BuildingBlock: XUDNAN_clean_linker_2, # of connection points: 2
#     Edge 33, Type (0, 1), BuildingBlock: XUDNAN_clean_linker_2, # of connection points: 2
#     Edge 34, Type (0, 1), BuildingBlock: XUDNAN_clean_linker_2, # of connection points: 2
#     Edge 35, Type (0, 1), BuildingBlock: XUDNAN_clean_linker_2, # of connection points: 2
# Relax obj value: 0.126
# Max RMSD: 0.121
# Mean RMSD: 0.092
data_MOF--net-zzz--node1-MIFKUJ_clean_sbu_0--node2-CUQRIR_clean_linker_1--edge1-XUDNAN_clean_linker_2
_symmetry_space_group_name_H-M    P1
_symmetry_Int_Tables_number       1
_symmetry_cell_setting            triclinic
loop_
_symmetry_equiv_pos_as_xyz
'x, y, z'
_cell_length_a     47.336866
_cell_length_b     47.678661
_cell_length_c     14.350904
_cell_angle_alpha  90.072694
_cell_angle_beta   90.036759
_cell_angle_gamma 90.301634
loop_
_atom_site_label
_atom_site_type_symbol
_atom_site_fract_x
_atom_site_fract_y
_atom_site_fract_z
_atom_type_partial_charge
C0 C 0.7144 0.54312 0.17776 0.0
N1 N 0.74233 0.54937 0.17887 0.0
N2 N 0.70151 0.5561 0.10553 0.0
C3 C 0.70041 0.52207 0.2403 0.0
C4 C 0.72272 0.56978 0.06154 0.0
N5 N 0.74755 0.56559 0.10564 0.0
C6 C 0.71978 0.58375 0.96819 0.0
H7 H 0.70224 0.50096 0.20823 0.0
H8 H 0.67765 0.52694 0.24867 0.0
H9 H 0.71095 0.52164 0.30939 0.0
H10 H 0.73818 0.59756 0.95337 0.0
H11 H 0.70009 0.59626 0.96585 0.0
H12 H 0.71832 0.5674 0.91329 0.0
C13 C 0.98684 0.72325 0.12142 0.0
N14 N 0.99905 0.749 0.12729 0.0
N15 N 0.98757 0.71366 0.03213 0.0
C16 C 0.97486 0.7075 0.20273 0.0
C17 C 0.00101 0.73434 0.98458 0.0
N18 N 0.00813 0.75562 0.04242 0.0
C19 C 0.00792 0.73353 0.88195 0.0
H20 H 0.99213 0.70263 0.25235 0.0
H21 H 0.96436 0.68774 0.18047 0.0
H22 H 0.95947 0.72096 0.2399 0.0
H23 H 0.00514 0.75457 0.85041 0.0
H24 H 0.99493 0.71824 0.84272 0.0
H25 H 0.03032 0.72734 0.8734 0.0
C26 C 0.78932 0.96228 0.163 0.0
N27 N 0.76068 0.96261 0.16441 0.0
N28 N 0.79912 0.9582 0.07512 0.0
C29 C 0.80795 0.96824 0.24543 0.0
C30 C 0.77525 0.95614 0.02335 0.0
N31 N 0.75203 0.95908 0.07714 0.0
C32 C 0.77482 0.95726 0.91848 0.0
H33 H 0.81309 0.99096 0.24743 0.0
H34 H 0.82808 0.95658 0.23882 0.0
H35 H 0.79719 0.96238 0.31134 0.0
H36 H 0.79297 0.94563 0.88894 0.0
H37 H 0.77648 0.97946 0.89594 0.0
H38 H 0.7549 0.94827 0.89041 0.0
C39 C 0.50719 0.78961 0.15931 0.0
N40 N 0.50834 0.76121 0.15876 0.0
N41 N 0.51308 0.79989 0.07323 0.0
C42 C 0.49862 0.80709 0.24143 0.0
C43 C 0.51824 0.77682 0.02125 0.0
N44 N 0.5153 0.75342 0.07298 0.0
C45 C 0.52726 0.7772 0.92062 0.0
H46 H 0.4864 0.82562 0.21826 0.0
H47 H 0.51794 0.81472 0.27739 0.0
H48 H 0.48592 0.7946 0.29155 0.0
H49 H 0.53967 0.79645 0.90506 0.0
H50 H 0.50826 0.77702 0.87535 0.0
H51 H 0.54011 0.75846 0.90376 0.0
C52 C 0.28683 0.47294 0.04472 0.0
N53 N 0.25926 0.48045 0.04885 0.0
N54 N 0.30016 0.4793 0.12623 0.0
C55 C 0.30055 0.45929 0.96228 0.0
C56 C 0.27963 0.49103 0.17911 0.0
N57 N 0.25507 0.49177 0.13197 0.0
C58 C 0.28349 0.50237 0.27627 0.0
H59 H 0.28501 0.44655 0.92245 0.0
H60 H 0.3184 0.4459 0.98473 0.0
H61 H 0.3089 0.47587 0.9155 0.0
H62 H 0.30498 0.51137 0.28544 0.0
H63 H 0.28061 0.48505 0.32699 0.0
H64 H 0.26759 0.51873 0.29184 0.0
C65 C 1.00032 0.29156 0.024 0.0
N66 N 0.00798 0.26422 0.01813 0.0
N67 N 0.0101 0.3033 0.10416 0.0
C68 C 0.98213 0.30653 0.95457 0.0
C69 C 0.02354 0.28195 0.14725 0.0
N70 N 0.02222 0.25833 0.09532 0.0
C71 C 0.03336 0.28287 0.24705 0.0
H72 H 0.98771 0.32916 0.95263 0.0
H73 H 0.95969 0.30465 0.97606 0.0
H74 H 0.98451 0.29721 0.88413 0.0
H75 H 0.01466 0.28377 0.29356 0.0
H76 H 0.0462 0.30203 0.2595 0.0
H77 H 0.0461 0.26419 0.26513 0.0
C78 C 0.21087 0.03774 0.02075 0.0
N79 N 0.23914 0.03372 0.02782 0.0
N80 N 0.19844 0.0347 0.10547 0.0
C81 C 0.19573 0.04585 0.93327 0.0
C82 C 0.22009 0.02894 0.16374 0.0
N83 N 0.24467 0.0284 0.11672 0.0
C84 C 0.21762 0.02722 0.26826 0.0
H85 H 0.19646 0.06902 0.92618 0.0
H86 H 0.17327 0.03912 0.93617 0.0
H87 H 0.20621 0.03652 0.87151 0.0
H88 H 0.19586 0.02151 0.29003 0.0
H89 H 0.22311 0.04796 0.29866 0.0
H90 H 0.23251 0.01155 0.29673 0.0
C91 C 0.49152 0.21885 0.02054 0.0
N92 N 0.4952 0.24703 0.02422 0.0
N93 N 0.4976 0.20704 0.10467 0.0
C94 C 0.48282 0.20304 0.93471 0.0
C95 C 0.50452 0.22931 0.1593 0.0
N96 N 0.50354 0.25321 0.1098 0.0
C97 C 0.51024 0.22817 0.26267 0.0
H98 H 0.45945 0.20123 0.93338 0.0
H99 H 0.49191 0.18164 0.93474 0.0
H100 H 0.48962 0.21443 0.87109 0.0
H101 H 0.53319 0.22509 0.27428 0.0
H102 H 0.49845 0.21068 0.29587 0.0
H103 H 0.50423 0.24801 0.29756 0.0
Zn104 Zn 0.98672 0.0469 0.54489 0.0
Zn105 Zn 0.00842 0.96506 0.59675 0.0
C106 C 0.97677 0.09122 0.65992 0.0
O107 O 0.95321 0.08441 0.61679 0.0
C108 C 0.02289 0.919 0.48771 0.0
O109 O 0.04693 0.92905 0.51965 0.0
O110 O 0.97691 0.07176 0.43526 0.0
O111 O 0.01403 0.02027 0.48388 0.0
O112 O 0.04073 0.9896 0.55099 0.0
C113 C 0.00069 0.083 0.4163 0.0
O114 O 0.02224 0.07783 0.47076 0.0
O115 O 0.99861 0.07626 0.64419 0.0
C116 C 0.01265 0.93534 0.77159 0.0
O117 O 0.98613 0.94258 0.78261 0.0
O118 O 0.02618 0.94432 0.70162 0.0
O119 O 0.97184 0.98374 0.64497 0.0
O120 O 0.9549 0.02577 0.60493 0.0
O121 O 1.00042 0.93258 0.50564 0.0
C122 C 0.03846 0.01266 0.50828 0.0
C123 C 0.95286 0.0027 0.64947 0.0
Zn124 Zn 0.45937 0.0009 0.58088 0.0
Zn125 Zn 0.54283 0.01077 0.60871 0.0
C126 C 0.42016 0.00822 0.72084 0.0
O127 O 0.42034 0.98119 0.7031 0.0
C128 C 0.59174 0.01817 0.50693 0.0
O129 O 0.58702 0.04225 0.54862 0.0
O130 O 0.4275 0.99581 0.49185 0.0
O131 O 0.48955 0.01929 0.49714 0.0
O132 O 0.52373 0.04502 0.55639 0.0
C133 C 0.41871 0.02025 0.47189 0.0
O134 O 0.43091 0.04214 0.51075 0.0
O135 O 0.43904 0.02359 0.68266 0.0
C136 C 0.57909 0.99608 0.74268 0.0
O137 O 0.57486 0.97362 0.69121 0.0
O138 O 0.56551 0.01828 0.72348 0.0
O139 O 0.51474 0.98083 0.64452 0.0
O140 O 0.47167 0.9642 0.63653 0.0
O141 O 0.57323 0.9988 0.5152 0.0
C142 C 0.50221 0.04282 0.50364 0.0
C143 C 0.49677 0.9621 0.66639 0.0
Zn144 Zn 0.51748 0.46887 0.57274 0.0
Zn145 Zn 0.48561 0.54019 0.6246 0.0
C146 C 0.51329 0.42237 0.68686 0.0
O147 O 0.54023 0.42486 0.66625 0.0
C148 C 0.47653 0.58559 0.48752 0.0
O149 O 0.4496 0.57929 0.49563 0.0
O150 O 0.53359 0.44325 0.47672 0.0
O151 O 0.49293 0.49498 0.49408 0.0
O152 O 0.45765 0.51244 0.57216 0.0
C153 C 0.51292 0.42996 0.44097 0.0
O154 O 0.48716 0.43613 0.46784 0.0
O155 O 0.49647 0.44135 0.6583 0.0
C156 C 0.48656 0.58135 0.75021 0.0
O157 O 0.50838 0.5857 0.69578 0.0
O158 O 0.46993 0.56097 0.73389 0.0
O159 O 0.5225 0.52467 0.6732 0.0
O160 O 0.54817 0.48711 0.64969 0.0
O161 O 0.49479 0.57028 0.52781 0.0
C162 C 0.46649 0.49673 0.50727 0.0
C163 C 0.54448 0.51039 0.69066 0.0
Zn164 Zn 0.03496 0.50498 0.58626 0.0
Zn165 Zn 0.95368 0.49869 0.65658 0.0
C166 C 0.08403 0.50782 0.70371 0.0
O167 O 0.08492 0.5329 0.66592 0.0
C168 C 0.91086 0.49841 0.52981 0.0
O169 O 0.91088 0.47373 0.57034 0.0
O170 O 0.05941 0.51261 0.47671 0.0
O171 O 0.00888 0.47238 0.54729 0.0
O172 O 0.96575 0.46209 0.59945 0.0
C173 C 0.07493 0.49229 0.45235 0.0
O174 O 0.07222 0.46817 0.49578 0.0
O175 O 0.06305 0.49189 0.68534 0.0
C176 C 0.92187 0.52022 0.79249 0.0
O177 O 0.93441 0.54129 0.751 0.0
O178 O 0.9265 0.49544 0.76371 0.0
O179 O 0.98746 0.51974 0.70699 0.0
O180 O 0.01746 0.54232 0.62101 0.0
O181 O 0.92928 0.51659 0.55493 0.0
C182 C 0.98704 0.45652 0.54846 0.0
C183 C 0.99608 0.54278 0.67371 0.0
H184 H 0.15375 0.99966 0.1069 0.0
H185 H 0.18185 0.08295 0.1822 0.0
H186 H 0.14131 0.08773 0.28965 0.0
H187 H 0.07395 0.01519 0.13095 0.0
H188 H 0.0676 0.98037 0.1753 0.0
H189 H 0.0951 0.98629 0.09059 0.0
H190 H 0.13087 0.96318 0.20281 0.0
H191 H 0.10391 0.95818 0.28948 0.0
H192 H 0.13561 0.97745 0.31823 0.0
H193 H 0.10594 0.07839 0.41547 0.0
H194 H 0.07 0.06037 0.52582 0.0
H195 H 0.06142 0.98466 0.36094 0.0
C196 C 0.15013 0.01948 0.14163 0.0
C197 C 0.17031 0.04126 0.1352 0.0
C198 C 0.16599 0.06651 0.18468 0.0
C199 C 0.14328 0.06919 0.24663 0.0
C200 C 0.12476 0.04657 0.25647 0.0
C201 C 0.12722 0.02259 0.20267 0.0
C202 C 0.10558 0.00066 0.23143 0.0
C203 C 0.08429 0.99532 0.15237 0.0
C204 C 0.11987 0.97326 0.26232 0.0
C205 C 0.09176 0.01541 0.31301 0.0
C206 C 0.1032 0.04184 0.32647 0.0
C207 C 0.09597 0.05824 0.40332 0.0
C208 C 0.0756 0.04788 0.4656 0.0
C209 C 0.06237 0.0217 0.44965 0.0
C210 C 0.07092 0.00505 0.37337 0.0
H211 H 0.53707 0.17979 0.20519 0.0
H212 H 0.45541 0.16921 0.07343 0.0
H213 H 0.45039 0.12261 0.1479 0.0
H214 H 0.55908 0.10589 0.22404 0.0
H215 H 0.57283 0.11096 0.34004 0.0
H216 H 0.57324 0.13956 0.25802 0.0
H217 H 0.54571 0.17028 0.37573 0.0
H218 H 0.54489 0.14177 0.45768 0.0
H219 H 0.51238 0.15787 0.42076 0.0
H220 H 0.45375 0.07813 0.24487 0.0
H221 H 0.46184 0.04268 0.36612 0.0
H222 H 0.53556 0.08885 0.46211 0.0
C223 C 0.5183 0.16748 0.19103 0.0
C224 C 0.49667 0.17804 0.13324 0.0
C225 C 0.47251 0.16125 0.11565 0.0
C226 C 0.46942 0.13488 0.15837 0.0
C227 C 0.49044 0.12596 0.21978 0.0
C228 C 0.51427 0.14198 0.23682 0.0
C229 C 0.53153 0.13016 0.31644 0.0
C230 C 0.56091 0.1211 0.28258 0.0
C231 C 0.53374 0.15128 0.39742 0.0
C232 C 0.51353 0.10509 0.34259 0.0
C233 C 0.49044 0.10252 0.28411 0.0
C234 C 0.47141 0.08034 0.29233 0.0
C235 C 0.47589 0.06054 0.36288 0.0
C236 C 0.49838 0.06366 0.42757 0.0
C237 C 0.51764 0.08617 0.41595 0.0
H238 H 0.31941 0.45394 0.28144 0.0
H239 H 0.34626 0.49809 0.0336 0.0
H240 H 0.39497 0.50118 0.09669 0.0
H241 H 0.35286 0.49699 0.43357 0.0
H242 H 0.36263 0.47072 0.51777 0.0
H243 H 0.3324 0.46515 0.44411 0.0
H244 H 0.35343 0.41834 0.38476 0.0
H245 H 0.38364 0.42351 0.45956 0.0
H246 H 0.38857 0.41797 0.33641 0.0
H247 H 0.43887 0.50504 0.1966 0.0
H248 H 0.47333 0.51109 0.32504 0.0
H249 H 0.41574 0.46935 0.51467 0.0
C250 C 0.33583 0.4635 0.23957 0.0
C251 C 0.3293 0.47563 0.15255 0.0
C252 C 0.35109 0.4882 0.09954 0.0
C253 C 0.37871 0.49015 0.1352 0.0
C254 C 0.3841 0.47938 0.22393 0.0
C255 C 0.36322 0.46615 0.27521 0.0
C256 C 0.37314 0.45985 0.3734 0.0
C257 C 0.35414 0.47404 0.44647 0.0
C258 C 0.37479 0.42802 0.38945 0.0
C259 C 0.40233 0.47292 0.37121 0.0
C260 C 0.40866 0.48319 0.28348 0.0
C261 C 0.43422 0.49678 0.26513 0.0
C262 C 0.45364 0.50014 0.33838 0.0
C263 C 0.44705 0.49067 0.4293 0.0
C264 C 0.42118 0.47674 0.4456 0.0
H265 H 0.04134 0.3477 0.16196 0.0
H266 H 0.95672 0.31312 0.15779 0.0
H267 H 0.94103 0.34988 0.26803 0.0
H268 H 0.04437 0.36236 0.39754 0.0
H269 H 0.06355 0.39503 0.38892 0.0
H270 H 0.06739 0.36876 0.29973 0.0
H271 H 0.05252 0.40449 0.17336 0.0
H272 H 0.04924 0.43106 0.26208 0.0
H273 H 0.01982 0.4233 0.18635 0.0
H274 H 0.93625 0.38622 0.39327 0.0
H275 H 0.94088 0.42338 0.51168 0.0
H276 H 0.02882 0.43529 0.43413 0.0
C277 C 0.01932 0.34867 0.182 0.0
C278 C 0.99999 0.32809 0.15049 0.0
C279 C 0.97151 0.32924 0.17963 0.0
C280 C 0.96256 0.34984 0.24279 0.0
C281 C 0.98237 0.36925 0.27547 0.0
C282 C 0.01005 0.36925 0.2447 0.0
C283 C 0.02737 0.39165 0.29422 0.0
C284 C 0.05212 0.37866 0.34832 0.0
C285 C 0.03785 0.41395 0.22487 0.0
C286 C 0.00534 0.40357 0.35977 0.0
C287 C 0.97954 0.39038 0.34759 0.0
C288 C 0.95625 0.39697 0.40252 0.0
C289 C 0.95919 0.41801 0.4703 0.0
C290 C 0.98524 0.43239 0.48279 0.0
C291 C 0.00861 0.42481 0.42672 0.0
H292 H 0.83974 0.92808 0.9869 0.0
H293 H 0.81617 0.01163 0.07387 0.0
H294 H 0.85495 0.0317 0.97967 0.0
H295 H 0.91898 0.94307 0.97692 0.0
H296 H 0.92344 0.9208 0.87651 0.0
H297 H 0.89663 0.91268 0.96165 0.0
H298 H 0.85889 0.91245 0.83102 0.0
H299 H 0.88537 0.92114 0.74572 0.0
H300 H 0.85472 0.94308 0.75886 0.0
H301 H 0.88985 0.04302 0.8584 0.0
H302 H 0.92503 0.04548 0.73323 0.0
H303 H 0.92914 0.95448 0.72603 0.0
C304 C 0.84371 0.95045 0.98875 0.0
C305 C 0.82553 0.96844 0.03876 0.0
C306 C 0.83046 0.99768 0.03775 0.0
C307 C 0.85222 0.00919 0.98389 0.0
C308 C 0.86914 0.99107 0.93243 0.0
C309 C 0.86577 0.96228 0.93608 0.0
C310 C 0.88621 0.94785 0.86999 0.0
C311 C 0.90758 0.93005 0.92452 0.0
C312 C 0.87034 0.93009 0.79709 0.0
C313 C 0.90049 0.97311 0.82556 0.0
C314 C 0.89023 0.99775 0.86304 0.0
C315 C 0.89851 0.0239 0.82975 0.0
C316 C 0.9183 0.02503 0.75762 0.0
C317 C 0.92993 1.00018 0.7195 0.0
C318 C 0.92083 0.97384 0.75417 0.0
H319 H 0.47915 0.81694 0.93491 0.0
H320 H 0.54274 0.84547 0.13011 0.0
H321 H 0.54497 0.89146 0.04866 0.0
H322 H 0.51092 0.84565 0.7371 0.0
H323 H 0.4784 0.85479 0.67948 0.0
H324 H 0.4791 0.82595 0.7603 0.0
H325 H 0.43917 0.84875 0.85744 0.0
H326 H 0.43794 0.87742 0.77597 0.0
H327 H 0.44332 0.88431 0.89825 0.0
H328 H 0.54254 0.93264 0.93696 0.0
H329 H 0.53344 0.96696 0.81211 0.0
H330 H 0.47345 0.9097 0.68455 0.0
C331 C 0.49306 0.83319 0.96138 0.0
C332 C 0.51073 0.82803 0.03852 0.0
C333 C 0.52885 0.84943 0.07171 0.0
C334 C 0.53035 0.87539 0.02543 0.0
C335 C 0.51352 0.87935 0.94654 0.0
C336 C 0.49498 0.8589 0.91551 0.0
C337 C 0.48042 0.86749 0.82615 0.0
C338 C 0.48765 0.84727 0.74605 0.0
C339 C 0.44831 0.86963 0.84035 0.0
C340 C 0.49371 0.89602 0.81107 0.0
C341 C 0.51276 0.90249 0.88115 0.0
C342 C 0.52781 0.92766 0.88155 0.0
C343 C 0.52297 0.9468 0.80921 0.0
C344 C 0.50358 0.94057 0.7368 0.0
C345 C 0.48872 0.91485 0.73826 0.0
H346 H 0.6848 0.51091 0.00613 0.0
H347 H 0.65754 0.59108 0.11313 0.0
H348 H 0.61287 0.58686 0.02356 0.0
H349 H 0.66065 0.52011 0.77974 0.0
H350 H 0.64901 0.4845 0.76053 0.0
H351 H 0.6769 0.49171 0.84258 0.0
H352 H 0.64882 0.4665 0.97301 0.0
H353 H 0.62098 0.45876 0.89101 0.0
H354 H 0.6131 0.4771 0.99771 0.0
H355 H 0.57389 0.57601 0.9127 0.0
H356 H 0.54152 0.55864 0.79226 0.0
H357 H 0.5939 0.4853 0.75197 0.0
C358 C 0.66882 0.52694 0.0128 0.0
C359 C 0.67389 0.55101 0.06775 0.0
C360 C 0.65337 0.57229 0.07285 0.0
C361 C 0.62817 0.57008 0.02196 0.0
C362 C 0.62398 0.5464 0.96638 0.0
C363 C 0.64355 0.52502 0.96209 0.0
C364 C 0.63459 0.50272 0.89226 0.0
C365 C 0.6566 0.49959 0.81416 0.0
C366 C 0.62904 0.4746 0.94144 0.0
C367 C 0.60736 0.51532 0.85592 0.0
C368 C 0.60161 0.54037 0.90047 0.0
C369 C 0.57811 0.55633 0.87785 0.0
C370 C 0.55985 0.54634 0.80851 0.0
C371 C 0.56504 0.52073 0.76156 0.0
C372 C 0.58925 0.50502 0.78602 0.0
H373 H 0.00869 0.66174 0.06197 0.0
H374 H 0.94494 0.70754 0.91047 0.0
H375 H 0.93765 0.66687 0.80564 0.0
H376 H 0.04102 0.62974 0.88533 0.0
H377 H 0.04593 0.59554 0.93607 0.0
H378 H 0.04269 0.62577 0.01019 0.0
H379 H 1.00057 0.60294 0.09727 0.0
H380 H 0.00422 0.57213 0.02533 0.0
H381 H 0.97076 0.58988 0.03175 0.0
H382 H 0.94606 0.62648 0.69661 0.0
H383 H 0.96086 0.58362 0.6118 0.0
H384 H 0.0151 0.56109 0.8427 0.0
C385 C 0.99226 0.6625 0.00956 0.0
C386 C 0.9774 0.68762 0.99334 0.0
C387 C 0.95631 0.68829 0.92358 0.0
C388 C 0.95223 0.66541 0.86351 0.0
C389 C 0.96861 0.64155 0.87689 0.0
C390 C 0.98728 0.63938 0.95078 0.0
C391 C 0.00279 0.6116 0.94764 0.0
C392 C 0.03501 0.61595 0.94459 0.0
C393 C 0.99406 0.59304 0.03041 0.0
C394 C 0.99168 0.59965 0.85661 0.0
C395 C 0.9719 0.61722 0.81699 0.0
C396 C 0.96078 0.61208 0.72839 0.0
C397 C 0.96952 0.58795 0.68025 0.0
C398 C 0.98875 0.56913 0.72153 0.0
C399 C 1.0 0.57508 0.8106 0.0
H400 H 0.97988 0.22956 0.17312 0.0
H401 H 0.06818 0.22523 0.09831 0.0
H402 H 0.06964 0.1756 0.15115 0.0
H403 H 0.98486 0.19084 0.38142 0.0
H404 H 0.95109 0.17363 0.36814 0.0
H405 H 0.95699 0.20749 0.31647 0.0
H406 H 0.9425 0.18726 0.15539 0.0
H407 H 0.93711 0.15309 0.20629 0.0
H408 H 0.96092 0.15733 0.10922 0.0
H409 H 0.06181 0.12827 0.21716 0.0
H410 H 0.04797 0.08806 0.31432 0.0
H411 H 0.96442 0.12327 0.35072 0.0
C412 C 0.9994 0.2179 0.16832 0.0
C413 C 0.02397 0.23057 0.13236 0.0
C414 C 0.04936 0.21541 0.12645 0.0
C415 C 0.05019 0.18734 0.15509 0.0
C416 C 0.02536 0.17514 0.18887 0.0
C417 C 1.00054 0.19003 0.19686 0.0
C418 C 0.97749 0.17281 0.24264 0.0
C419 C 0.96702 0.18703 0.33251 0.0
C420 C 0.95306 0.16729 0.1743 0.0
C421 C 0.99356 0.14618 0.263 0.0
C422 C 0.02089 0.14777 0.22875 0.0
C423 C 0.04046 0.12665 0.24357 0.0
C424 C 0.03238 0.10393 0.29879 0.0
C425 C 0.00514 0.10271 0.33941 0.0
C426 C 0.9851 0.12349 0.31848 0.0
H427 H 0.27277 0.98886 0.21453 0.0
H428 H 0.27763 0.07394 0.11093 0.0
H429 H 0.32516 0.07948 0.18018 0.0
H430 H 0.30399 0.00469 0.4338 0.0
H431 H 0.32273 0.97205 0.44443 0.0
H432 H 0.29045 0.97346 0.37825 0.0
H433 H 0.31631 0.95398 0.23036 0.0
H434 H 0.34764 0.95125 0.30116 0.0
H435 H 0.34879 0.97062 0.19386 0.0
H436 H 0.36956 0.07707 0.26733 0.0
H437 H 0.40942 0.06737 0.37213 0.0
H438 H 0.37614 0.98378 0.424 0.0
C439 C 0.28412 0.00848 0.20658 0.0
C440 C 0.27212 0.03101 0.1576 0.0
C441 C 0.28705 0.05653 0.1478 0.0
C442 C 0.31387 0.05978 0.18659 0.0
C443 C 0.32519 0.03728 0.23525 0.0
C444 C 0.31088 0.01213 0.24586 0.0
C445 C 0.32705 0.99218 0.30789 0.0
C446 C 0.31004 0.9852 0.39632 0.0
C447 C 0.33541 0.96543 0.25505 0.0
C448 C 0.35264 0.0101 0.33012 0.0
C449 C 0.35106 0.03598 0.28715 0.0
C450 C 0.3713 0.05679 0.30058 0.0
C451 C 0.39378 0.05109 0.36032 0.0
C452 C 0.39583 0.02476 0.40515 0.0
C453 C 0.37522 0.00388 0.38909 0.0
H454 H 0.46897 0.28561 0.20953 0.0
H455 H 0.55186 0.28193 0.08449 0.0
H456 H 0.56346 0.32902 0.1492 0.0
H457 H 0.45696 0.36029 0.17855 0.0
H458 H 0.43962 0.36396 0.28969 0.0
H459 H 0.43774 0.33112 0.22776 0.0
H460 H 0.45801 0.30539 0.3722 0.0
H461 H 0.46003 0.33814 0.4344 0.0
H462 H 0.49117 0.31692 0.42121 0.0
H463 H 0.56668 0.3747 0.2392 0.0
H464 H 0.5605 0.41642 0.34069 0.0
H465 H 0.47496 0.3891 0.40299 0.0
C466 C 0.48936 0.29509 0.19547 0.0
C467 C 0.50968 0.28079 0.14304 0.0
C468 C 0.53629 0.29311 0.12513 0.0
C469 C 0.54294 0.31963 0.16142 0.0
C470 C 0.52258 0.33317 0.21498 0.0
C471 C 0.49628 0.32134 0.2315 0.0
C472 C 0.47858 0.33942 0.29445 0.0
C473 C 0.45164 0.34929 0.24459 0.0
C474 C 0.47155 0.32405 0.38596 0.0
C475 C 0.49895 0.36334 0.31068 0.0
C476 C 0.52429 0.35942 0.26495 0.0
C477 C 0.5468 0.37822 0.27438 0.0
C478 C 0.54317 0.40172 0.33211 0.0
C479 C 0.51718 0.40604 0.37839 0.0
C480 C 0.4949 0.38664 0.367 0.0
H481 H 0.22212 0.45513 0.22131 0.0
H482 H 0.22744 0.54098 0.12669 0.0
H483 H 0.17916 0.54999 0.18786 0.0
H484 H 0.14784 0.44406 0.17151 0.0
H485 H 0.14186 0.42309 0.27415 0.0
H486 H 0.17612 0.42342 0.21952 0.0
H487 H 0.19935 0.43861 0.37554 0.0
H488 H 0.16526 0.438 0.43091 0.0
H489 H 0.1866 0.4694 0.43481 0.0
H490 H 0.13133 0.54945 0.26479 0.0
H491 H 0.08843 0.54054 0.3583 0.0
H492 H 0.11501 0.45447 0.40115 0.0
C493 C 0.21288 0.47574 0.21407 0.0
C494 C 0.22789 0.49751 0.17041 0.0
C495 C 0.2158 0.52431 0.16083 0.0
C496 C 0.18854 0.52946 0.19474 0.0
C497 C 0.17403 0.50743 0.23749 0.0
C498 C 0.18586 0.48114 0.2476 0.0
C499 C 0.16647 0.46136 0.29943 0.0
C500 C 0.15754 0.43652 0.23742 0.0
C501 C 0.18024 0.45127 0.39057 0.0
C502 C 0.14198 0.48071 0.31819 0.0
C503 C 0.14659 0.50711 0.28131 0.0
C504 C 0.12737 0.52882 0.29341 0.0
C505 C 0.10308 0.52354 0.34646 0.0
C506 C 0.0984 0.4968 0.38679 0.0
C507 C 0.11787 0.47506 0.37065 0.0
H508 H 0.98732 0.80632 0.08377 0.0
H509 H 0.05594 0.76503 0.94108 0.0
H510 H 0.07124 0.81065 0.87529 0.0
H511 H 0.96589 0.85084 0.93623 0.0
H512 H 0.96145 0.88125 0.00947 0.0
H513 H 0.96032 0.84692 0.05972 0.0
H514 H 0.00511 0.85917 0.1739 0.0
H515 H 0.99935 0.89399 0.12843 0.0
H516 H 0.03371 0.87801 0.1226 0.0
H517 H 0.07193 0.85844 0.80142 0.0
H518 H 0.05891 0.90345 0.72949 0.0
H519 H 0.99236 0.91397 0.93399 0.0
C520 C 0.00647 0.80713 0.04297 0.0
C521 C 0.02022 0.7823 0.01639 0.0
C522 C 0.04467 0.78386 0.95997 0.0
C523 C 0.05381 0.80971 0.92394 0.0
C524 C 0.0391 0.83382 0.94928 0.0
C525 C 0.01659 0.83282 0.01051 0.0
C526 C 0.00301 0.86123 0.02162 0.0
C527 C 0.9708 0.85996 0.00578 0.0
C528 C 0.01062 0.87388 0.11717 0.0
C529 C 0.0181 0.8771 0.94568 0.0
C530 C 0.03997 0.86156 0.90832 0.0
C531 C 0.05544 0.87109 0.83207 0.0
C532 C 0.04783 0.89671 0.79163 0.0
C533 C 0.02456 0.91214 0.82647 0.0
C534 C 0.01031 0.90266 0.90647 0.0
H535 H 0.71055 0.92838 0.99654 0.0
H536 H 0.73448 0.01235 0.08028 0.0
H537 H 0.6889 0.03056 0.02196 0.0
H538 H 0.68045 0.94817 0.78431 0.0
H539 H 0.6523 0.92258 0.78605 0.0
H540 H 0.6848 0.91564 0.84653 0.0
H541 H 0.6571 0.90789 0.00193 0.0
H542 H 0.62478 0.91392 0.93869 0.0
H543 H 0.6328 0.93449 0.04062 0.0
H544 H 0.64302 0.04007 0.94312 0.0
H545 H 0.60119 0.04072 0.83982 0.0
H546 H 0.60763 0.9505 0.80483 0.0
C547 C 0.70576 0.95047 0.00339 0.0
C548 C 0.7254 0.96909 0.04347 0.0
C549 C 0.71916 0.99796 0.05058 0.0
C550 C 0.69342 0.00837 0.01816 0.0
C551 C 0.67433 0.98954 0.97853 0.0
C552 C 0.6802 0.9612 0.97064 0.0
C553 C 0.65735 0.94598 0.91676 0.0
C554 C 0.66945 0.9323 0.82817 0.0
C555 C 0.64213 0.92428 0.97823 0.0
C556 C 0.63821 0.97029 0.89365 0.0
C557 C 0.64808 0.99515 0.93116 0.0
C558 C 0.6348 0.02069 0.91434 0.0
C559 C 0.61108 0.02087 0.85581 0.0
C560 C 0.60124 0.99569 0.81453 0.0
C561 C 0.61461 0.97009 0.83572 0.0
H562 H 0.48254 0.73449 0.9339 0.0
H563 H 0.54518 0.70912 0.13635 0.0
H564 H 0.53776 0.65935 0.09151 0.0
H565 H 0.43513 0.6769 0.9539 0.0
H566 H 0.42823 0.67429 0.83062 0.0
H567 H 0.43755 0.70767 0.88136 0.0
H568 H 0.47973 0.71306 0.76689 0.0
H569 H 0.46972 0.68034 0.71351 0.0
H570 H 0.50508 0.68513 0.7575 0.0
H571 H 0.52266 0.61286 0.02604 0.0
H572 H 0.51008 0.574 0.91937 0.0
H573 H 0.45968 0.63068 0.75371 0.0
C574 C 0.49499 0.71842 0.96743 0.0
C575 C 0.5142 0.72521 0.03876 0.0
C576 C 0.53014 0.70392 0.0821 0.0
C577 C 0.52594 0.67578 0.05745 0.0
C578 C 0.50594 0.66965 0.98895 0.0
C579 C 0.49139 0.69044 0.94264 0.0
C580 C 0.47299 0.67867 0.866 0.0
C581 C 0.44161 0.68475 0.88413 0.0
C582 C 0.48246 0.68995 0.77035 0.0
C583 C 0.47932 0.64785 0.87655 0.0
C584 C 0.49784 0.643 0.94938 0.0
C585 C 0.50801 0.61633 0.96931 0.0
C586 C 0.50052 0.59437 0.90927 0.0
C587 C 0.48343 0.59954 0.83053 0.0
C588 C 0.47182 0.62621 0.81595 0.0
H589 H 0.76372 0.53444 0.96091 0.0
H590 H 0.79247 0.59699 0.15809 0.0
H591 H 0.84185 0.59035 0.10406 0.0
H592 H 0.81906 0.48795 0.98962 0.0
H593 H 0.82161 0.47757 0.86904 0.0
H594 H 0.78838 0.48939 0.91528 0.0
H595 H 0.78518 0.52802 0.78869 0.0
H596 H 0.81788 0.51572 0.73972 0.0
H597 H 0.81436 0.55198 0.77302 0.0
H598 H 0.88763 0.57562 0.03087 0.0
H599 H 0.92671 0.55619 0.93677 0.0
H600 H 0.86774 0.50109 0.79427 0.0
C601 C 0.78041 0.54741 0.9898 0.0
C602 C 0.7747 0.56661 0.06177 0.0
C603 C 0.7968 0.5826 0.10151 0.0
C604 C 0.82472 0.57877 0.07182 0.0
C605 C 0.82983 0.55885 0.00261 0.0
C606 C 0.80823 0.54374 0.96117 0.0
C607 C 0.81929 0.52297 0.8906 0.0
C608 C 0.81163 0.49268 0.91783 0.0
C609 C 0.80855 0.5301 0.7922 0.0
C610 C 0.85063 0.52838 0.89972 0.0
C611 C 0.85625 0.54931 0.96419 0.0
C612 C 0.88355 0.55904 0.98101 0.0
C613 C 0.90556 0.54775 0.92812 0.0
C614 C 0.90008 0.52665 0.86101 0.0
C615 C 0.87245 0.51642 0.84796 0.0
H616 H 0.04018 0.2256 0.93081 0.0
H617 H 0.95386 0.25298 0.96726 0.0
H618 H 0.93692 0.21125 0.88077 0.0
H619 H 0.03372 0.19342 0.70234 0.0
H620 H 0.05602 0.16415 0.73128 0.0
H621 H 0.06122 0.19744 0.7884 0.0
H622 H 0.05602 0.17303 0.94808 0.0
H623 H 0.04993 0.13966 0.89238 0.0
H624 H 0.02441 0.15326 0.97368 0.0
H625 H 0.92936 0.1657 0.79841 0.0
H626 H 0.931 0.1207 0.71588 0.0
H627 H 0.02256 0.12046 0.73742 0.0
C628 C 0.01776 0.223 0.91857 0.0
C629 C 0.99833 0.24293 0.95333 0.0
C630 C 0.96911 0.23863 0.9381 0.0
C631 C 0.95934 0.21471 0.8905 0.0
C632 C 0.97904 0.19508 0.85972 0.0
C633 C 0.00766 0.19895 0.87282 0.0
C634 C 0.02423 0.1739 0.83703 0.0
C635 C 0.04502 0.18277 0.76016 0.0
C636 C 0.03955 0.15909 0.91759 0.0
C637 C 1.0005 0.1557 0.79859 0.0
C638 C 0.97463 0.16829 0.81384 0.0
C639 C 0.94949 0.15575 0.78567 0.0
C640 C 0.95073 0.13006 0.73864 0.0
C641 C 0.97695 0.11694 0.71916 0.0
C642 C 0.0022 0.12982 0.75114 0.0
H643 H 0.27477 0.99232 0.98916 0.0
H644 H 0.25414 0.07765 0.91651 0.0
H645 H 0.29975 0.08206 0.83103 0.0
H646 H 0.34524 0.00587 0.04081 0.0
H647 H 0.35826 0.97276 0.99838 0.0
H648 H 0.32259 0.97537 0.04082 0.0
H649 H 0.30287 0.95626 0.88477 0.0
H650 H 0.33845 0.95266 0.8424 0.0
H651 H 0.31318 0.97285 0.77708 0.0
H652 H 0.35074 0.07703 0.76319 0.0
H653 H 0.39796 0.06173 0.70764 0.0
H654 H 0.38439 0.98062 0.83666 0.0
C655 C 0.27944 0.01152 0.95185 0.0
C656 C 0.26079 0.03438 0.95703 0.0
C657 C 0.26784 0.05963 0.9106 0.0
C658 C 0.29389 0.06239 0.86341 0.0
C659 C 0.31254 0.03971 0.8639 0.0
C660 C 0.30528 0.01465 0.90617 0.0
C661 C 0.32919 0.99383 0.90276 0.0
C662 C 0.33943 0.98654 0.00153 0.0
C663 C 0.3204 0.96734 0.84848 0.0
C664 C 0.35111 0.01073 0.85057 0.0
C665 C 0.34143 0.03724 0.82894 0.0
C666 C 0.35838 0.05628 0.7799 0.0
C667 C 0.38532 0.04755 0.74948 0.0
C668 C 0.39495 0.02002 0.76814 0.0
C669 C 0.37774 0.00183 0.82136 0.0
H670 H 0.53312 0.27101 0.91074 0.0
H671 H 0.4455 0.2724 0.99304 0.0
H672 H 0.43887 0.31728 0.90797 0.0
H673 H 0.54568 0.34119 0.94842 0.0
H674 H 0.56973 0.34615 0.85243 0.0
H675 H 0.56607 0.31213 0.90522 0.0
H676 H 0.55329 0.29016 0.7449 0.0
H677 H 0.55751 0.32407 0.6912 0.0
H678 H 0.52487 0.30487 0.67741 0.0
H679 H 0.44389 0.36502 0.82563 0.0
H680 H 0.45949 0.40936 0.75028 0.0
H681 H 0.54453 0.37637 0.73001 0.0
C682 C 0.51229 0.28018 0.90647 0.0
C683 C 0.4895 0.26793 0.95465 0.0
C684 C 0.46281 0.28109 0.9529 0.0
C685 C 0.45903 0.30668 0.9058 0.0
C686 C 0.48227 0.31881 0.8612 0.0
C687 C 0.50832 0.30574 0.86051 0.0
C688 C 0.53059 0.32402 0.81527 0.0
C689 C 0.55441 0.3313 0.88447 0.0
C690 C 0.54225 0.30994 0.72694 0.0
C691 C 0.51323 0.34959 0.79158 0.0
C692 C 0.48535 0.34629 0.81779 0.0
C693 C 0.46565 0.36766 0.80416 0.0
C694 C 0.47469 0.39282 0.76167 0.0
C695 C 0.50323 0.39647 0.73431 0.0
C696 C 0.52256 0.37445 0.75009 0.0
H697 H 0.23401 0.52184 0.95506 0.0
H698 H 0.23289 0.43229 0.99917 0.0
H699 H 0.18725 0.42871 0.91373 0.0
H700 H 0.16173 0.53157 0.99737 0.0
H701 H 0.15737 0.55916 0.91294 0.0
H702 H 0.19122 0.55383 0.96718 0.0
H703 H 0.2147 0.54846 0.80471 0.0
H704 H 0.18096 0.55425 0.75011 0.0
H705 H 0.20075 0.52306 0.72342 0.0
H706 H 0.13925 0.43637 0.83405 0.0
H707 H 0.09579 0.4536 0.75722 0.0
H708 H 0.12868 0.53862 0.77026 0.0
C709 C 0.22457 0.50141 0.94321 0.0
C710 C 0.2372 0.47719 0.98046 0.0
C711 C 0.22388 0.45085 0.96784 0.0
C712 C 0.19784 0.44877 0.92066 0.0
C713 C 0.18542 0.47332 0.88721 0.0
C714 C 0.19859 0.49911 0.89725 0.0
C715 C 0.1803 0.52259 0.86053 0.0
C716 C 0.17219 0.54299 0.93919 0.0
C717 C 0.19505 0.53799 0.77988 0.0
C718 C 0.15486 0.50608 0.82692 0.0
C719 C 0.158 0.47771 0.8435 0.0
C720 C 0.13675 0.45852 0.8202 0.0
C721 C 0.11203 0.46853 0.77709 0.0
C722 C 0.10878 0.49746 0.75736 0.0
C723 C 0.13048 0.51636 0.7838 0.0
H724 H 0.96319 0.7785 0.24008 0.0
H725 H 0.05087 0.75799 0.19162 0.0
H726 H 0.06575 0.7981 0.28842 0.0
H727 H 0.96338 0.84676 0.22765 0.0
H728 H 0.94353 0.85739 0.32804 0.0
H729 H 0.93791 0.82329 0.27729 0.0
H730 H 0.94801 0.79847 0.43058 0.0
H731 H 0.95195 0.83227 0.48583 0.0
H732 H 0.97965 0.80664 0.49525 0.0
H733 H 0.07141 0.84424 0.35723 0.0
H734 H 0.06872 0.89116 0.42548 0.0
H735 H 0.97726 0.88374 0.44114 0.0
C736 C 0.9854 0.78164 0.25492 0.0
C737 C 0.00608 0.76511 0.20933 0.0
C738 C 0.03496 0.77022 0.22727 0.0
C739 C 0.04353 0.79311 0.28128 0.0
C740 C 0.02287 0.8103 0.31949 0.0
C741 C 0.99437 0.80437 0.31093 0.0
C742 C 0.97695 0.82715 0.35866 0.0
C743 C 0.9542 0.83939 0.294 0.0
C744 C 0.96335 0.81544 0.44788 0.0
C745 C 1.00003 0.84842 0.3831 0.0
C746 C 0.02631 0.83753 0.36246 0.0
C747 C 0.05106 0.85279 0.376 0.0
C748 C 0.04923 0.87962 0.41445 0.0
C749 C 0.02282 0.89133 0.43924 0.0
C750 C 0.99777 0.87549 0.4226 0.0
H751 H 0.71241 0.93738 0.2198 0.0
H752 H 0.76552 0.0102 0.26663 0.0
H753 H 0.72838 0.0312 0.36474 0.0
H754 H 0.65028 0.97475 0.1896 0.0
H755 H 0.62713 0.94977 0.24545 0.0
H756 H 0.65941 0.93811 0.19188 0.0
H757 H 0.67558 0.91546 0.34628 0.0
H758 H 0.64313 0.92641 0.4006 0.0
H759 H 0.67661 0.93629 0.45118 0.0
H760 H 0.68391 0.04661 0.44111 0.0
H761 H 0.63646 0.05414 0.50486 0.0
H762 H 0.6105 0.97159 0.40765 0.0
C763 C 0.71651 0.95723 0.2541 0.0
C764 C 0.74221 0.97176 0.23849 0.0
C765 C 0.74658 0.99819 0.28108 0.0
C766 C 0.72536 0.01046 0.33558 0.0
C767 C 0.69987 0.99603 0.34666 0.0
C768 C 0.69544 0.96983 0.3082 0.0
C769 C 0.66538 0.95974 0.32526 0.0
C770 C 0.64961 0.95535 0.23256 0.0
C771 C 0.66517 0.93288 0.38437 0.0
C772 C 0.65354 0.98445 0.37914 0.0
C773 C 0.67386 0.00514 0.39009 0.0
C774 C 0.66795 0.03041 0.43412 0.0
C775 C 0.64076 0.0345 0.46977 0.0
C776 C 0.61962 0.01341 0.46195 0.0
C777 C 0.62616 0.98807 0.4153 0.0
H778 H 0.46556 0.72357 0.17131 0.0
H779 H 0.54101 0.75377 0.30939 0.0
H780 H 0.54035 0.71215 0.41295 0.0
H781 H 0.43186 0.69145 0.3814 0.0
H782 H 0.41787 0.66226 0.31575 0.0
H783 H 0.42246 0.69591 0.26053 0.0
H784 H 0.4545 0.67323 0.1315 0.0
H785 H 0.44756 0.63999 0.18647 0.0
H786 H 0.48337 0.65129 0.16856 0.0
H787 H 0.53588 0.66401 0.48194 0.0
H788 H 0.52338 0.61621 0.53319 0.0
H789 H 0.44908 0.61758 0.3559 0.0
C790 C 0.48117 0.72183 0.22615 0.0
C791 C 0.50315 0.7419 0.23406 0.0
C792 C 0.52377 0.73883 0.30432 0.0
C793 C 0.52371 0.71512 0.36222 0.0
C794 C 0.50264 0.69488 0.34938 0.0
C795 C 0.48134 0.69827 0.28452 0.0
C796 C 0.46177 0.6729 0.28265 0.0
C797 C 0.43171 0.68113 0.31187 0.0
C798 C 0.46181 0.65858 0.18649 0.0
C799 C 0.47574 0.6545 0.35529 0.0
C800 C 0.49945 0.66748 0.39201 0.0
C801 C 0.51705 0.65388 0.45505 0.0
C802 C 0.50991 0.62657 0.48302 0.0
C803 C 0.48516 0.61318 0.449 0.0
C804 C 0.46796 0.62739 0.3839 0.0
H805 H 0.77446 0.57257 0.31395 0.0
H806 H 0.76102 0.49676 0.15415 0.0
H807 H 0.80507 0.47672 0.21942 0.0
H808 H 0.84919 0.57557 0.28463 0.0
H809 H 0.85652 0.58864 0.4001 0.0
H810 H 0.82322 0.59629 0.34499 0.0
H811 H 0.79631 0.57465 0.48546 0.0
H812 H 0.82956 0.56742 0.54134 0.0
H813 H 0.80449 0.53945 0.52203 0.0
H814 H 0.85068 0.46568 0.29898 0.0
H815 H 0.89299 0.46204 0.39849 0.0
H816 H 0.8783 0.54584 0.50502 0.0
C817 C 0.78052 0.55142 0.29545 0.0
C818 C 0.7642 0.53571 0.23146 0.0
C819 C 0.77295 0.50854 0.20551 0.0
C820 C 0.79807 0.49728 0.24114 0.0
C821 C 0.81414 0.51359 0.30246 0.0
C822 C 0.80558 0.53994 0.33042 0.0
C823 C 0.82695 0.55319 0.3963 0.0
C824 C 0.83972 0.58002 0.35396 0.0
C825 C 0.81353 0.55901 0.49195 0.0
C826 C 0.84875 0.53004 0.40205 0.0
C827 C 0.84096 0.50751 0.34661 0.0
C828 C 0.85702 0.4832 0.34237 0.0
C829 C 0.88107 0.48139 0.39884 0.0
C830 C 0.88904 0.50378 0.45846 0.0
C831 C 0.87305 0.52872 0.45839 0.0
loop_
_geom_bond_atom_site_label_1
_geom_bond_atom_site_label_2
_geom_bond_distance
_geom_bond_site_symmetry_2
_ccdc_geom_bond_type
C0 N1 1.317 . S
C0 N2 1.348 . S
C0 C3 1.485 . S
N1 C0 1.317 . S
N1 N5 1.370 1_554 S
N2 C0 1.348 . S
N2 C4 1.346 1_554 S
C3 C0 1.485 . S
C3 H7 0.960 . S
C3 H8 0.961 . S
C3 H9 0.960 . S
C4 N2 1.346 1_556 S
C4 N5 1.307 . S
C4 C6 1.486 . S
N5 N1 1.370 1_556 S
N5 C4 1.307 . S
C6 C4 1.486 . S
C6 H10 0.960 . S
C6 H11 0.960 . S
C6 H12 0.959 . S
H7 C3 0.960 . S
H8 C3 0.961 . S
H9 C3 0.960 . S
H10 C6 0.960 . S
H11 C6 0.960 . S
H12 C6 0.959 . S
C13 N14 1.317 . S
C13 N15 1.350 . S
C13 C16 1.485 . S
N14 C13 1.317 . S
N14 N18 1.371 . S
N15 C13 1.350 . S
N15 C17 1.345 1_654 S
C16 C13 1.485 . S
C16 H20 0.960 1_655 S
C16 H21 0.961 . S
C16 H22 0.960 . S
C17 N15 1.345 1_456 S
C17 N18 1.307 1_456 S
C17 C19 1.486 . S
N18 N14 1.371 . S
N18 C17 1.307 1_654 S
C19 C17 1.486 . S
C19 H23 0.960 1_455 S
C19 H24 0.960 . S
C19 H25 0.959 . S
H20 C16 0.960 1_455 S
H21 C16 0.961 . S
H22 C16 0.960 . S
H23 C19 0.960 1_655 S
H24 C19 0.960 . S
H25 C19 0.959 . S
C26 N27 1.317 . S
C26 N28 1.348 . S
C26 C29 1.485 . S
N27 C26 1.317 . S
N27 N31 1.370 1_554 S
N28 C26 1.348 . S
N28 C30 1.346 1_554 S
C29 C26 1.485 . S
C29 H33 0.960 . S
C29 H34 0.961 . S
C29 H35 0.960 . S
C30 N28 1.346 1_556 S
C30 N31 1.307 . S
C30 C32 1.486 . S
N31 N27 1.370 1_556 S
N31 C30 1.307 . S
C32 C30 1.486 . S
C32 H36 0.960 . S
C32 H37 0.960 . S
C32 H38 0.959 . S
H33 C29 0.960 . S
H34 C29 0.961 . S
H35 C29 0.960 . S
H36 C32 0.960 . S
H37 C32 0.960 . S
H38 C32 0.959 . S
C39 N40 1.317 . S
C39 N41 1.348 . S
C39 C42 1.485 . S
N40 C39 1.317 . S
N40 N44 1.370 . S
N41 C39 1.348 . S
N41 C43 1.346 1_554 S
C42 C39 1.485 . S
C42 H46 0.960 . S
C42 H47 0.961 . S
C42 H48 0.960 . S
C43 N41 1.346 1_556 S
C43 N44 1.307 1_556 S
C43 C45 1.486 . S
N44 N40 1.370 . S
N44 C43 1.307 1_554 S
C45 C43 1.486 . S
C45 H49 0.960 . S
C45 H50 0.960 . S
C45 H51 0.959 . S
H46 C42 0.960 . S
H47 C42 0.961 . S
H48 C42 0.960 . S
H49 C45 0.960 . S
H50 C45 0.960 . S
H51 C45 0.959 . S
C52 N53 1.317 . S
C52 N54 1.348 . S
C52 C55 1.485 . S
N53 C52 1.317 . S
N53 N57 1.370 . S
N54 C52 1.348 . S
N54 C56 1.346 . S
C55 C52 1.485 . S
C55 H59 0.960 1_554 S
C55 H60 0.961 . S
C55 H61 0.960 1_554 S
C56 N54 1.346 . S
C56 N57 1.307 . S
C56 C58 1.486 . S
N57 N53 1.370 . S
N57 C56 1.307 . S
C58 C56 1.486 . S
C58 H62 0.960 . S
C58 H63 0.960 . S
C58 H64 0.959 . S
H59 C55 0.960 1_556 S
H60 C55 0.961 . S
H61 C55 0.960 1_556 S
H62 C58 0.960 . S
H63 C58 0.960 . S
H64 C58 0.959 . S
C65 N66 1.317 . S
C65 N67 1.350 . S
C65 C68 1.485 1_554 S
N66 C65 1.317 . S
N66 N70 1.370 . S
N67 C65 1.350 . S
N67 C69 1.345 1_655 S
C68 C65 1.485 1_556 S
C68 H72 0.960 1_655 S
C68 H73 0.961 1_556 S
C68 H74 0.960 . S
C69 N67 1.345 1_455 S
C69 N70 1.307 1_455 S
C69 C71 1.486 . S
N70 N66 1.370 . S
N70 C69 1.307 1_655 S
C71 C69 1.486 . S
C71 H75 0.960 1_455 S
C71 H76 0.960 . S
C71 H77 0.959 . S
H72 C68 0.960 1_455 S
H73 C68 0.961 1_554 S
H74 C68 0.960 . S
H75 C71 0.960 1_655 S
H76 C71 0.960 . S
H77 C71 0.959 . S
C78 N79 1.317 . S
C78 N80 1.348 . S
C78 C81 1.485 . S
N79 C78 1.317 . S
N79 N83 1.370 . S
N80 C78 1.348 . S
N80 C82 1.346 . S
C81 C78 1.485 . S
C81 H85 0.960 1_554 S
C81 H86 0.961 . S
C81 H87 0.960 1_554 S
C82 N80 1.346 . S
C82 N83 1.307 . S
C82 C84 1.486 . S
N83 N79 1.370 . S
N83 C82 1.307 . S
C84 C82 1.486 . S
C84 H88 0.960 . S
C84 H89 0.960 . S
C84 H90 0.959 . S
H85 C81 0.960 1_556 S
H86 C81 0.961 . S
H87 C81 0.960 1_556 S
H88 C84 0.960 . S
H89 C84 0.960 . S
H90 C84 0.959 . S
C91 N92 1.317 . S
C91 N93 1.348 . S
C91 C94 1.485 1_554 S
N92 C91 1.317 . S
N92 N96 1.370 . S
N93 C91 1.348 . S
N93 C95 1.346 . S
C94 C91 1.485 1_556 S
C94 H98 0.960 . S
C94 H99 0.961 1_556 S
C94 H100 0.960 . S
C95 N93 1.346 . S
C95 N96 1.307 . S
C95 C97 1.486 . S
N96 N92 1.370 . S
N96 C95 1.307 . S
C97 C95 1.486 . S
C97 H101 0.960 . S
C97 H102 0.960 . S
C97 H103 0.959 . S
H98 C94 0.960 . S
H99 C94 0.961 1_554 S
H100 C94 0.960 . S
H101 C97 0.960 . S
H102 C97 0.960 . S
H103 C97 0.959 . S
Zn104 O110 1.969 . S
Zn104 O111 1.965 1_655 S
Zn104 O115 2.024 1_655 S
Zn104 O120 1.969 . S
Zn105 O112 1.969 . S
Zn105 O118 1.969 . S
Zn105 O119 1.965 1_455 S
Zn105 O121 2.024 1_455 S
C106 O107 1.229 1_455 S
C106 O115 1.058 . S
O107 C106 1.229 1_655 S
C108 O109 1.229 1_655 S
C108 O121 1.058 . S
O109 C108 1.229 1_455 S
O110 Zn104 1.969 . S
O110 C113 1.267 . S
O111 Zn104 1.965 1_455 S
O111 C122 1.260 . S
O112 Zn105 1.969 . S
O112 C122 1.258 1_565 S
C113 O110 1.267 . S
C113 O114 1.228 1_655 S
O114 C113 1.228 1_455 S
O115 Zn104 2.024 1_455 S
O115 C106 1.058 . S
C116 O117 1.228 1_455 S
C116 O118 1.267 . S
O117 C116 1.228 1_655 S
O118 Zn105 1.969 . S
O118 C116 1.267 . S
O119 Zn105 1.965 1_655 S
O119 C123 1.260 1_565 S
O120 Zn104 1.969 . S
O120 C123 1.258 . S
O121 Zn105 2.024 1_655 S
O121 C108 1.058 . S
C122 O111 1.260 . S
C122 O112 1.258 1_545 S
C123 O119 1.260 1_545 S
C123 O120 1.258 . S
Zn124 O130 1.969 1_545 S
Zn124 O131 1.965 . S
Zn124 O135 2.024 . S
Zn124 O140 1.969 1_545 S
Zn125 O132 1.969 . S
Zn125 O138 1.969 . S
Zn125 O139 1.965 1_545 S
Zn125 O141 2.024 1_545 S
C126 O127 1.229 . S
C126 O135 1.058 . S
O127 C126 1.229 . S
C128 O129 1.229 1_565 S
C128 O141 1.058 . S
O129 C128 1.229 1_545 S
O130 Zn124 1.969 1_565 S
O130 C133 1.267 1_565 S
O131 Zn124 1.965 . S
O131 C142 1.260 . S
O132 Zn125 1.969 . S
O132 C142 1.258 . S
C133 O130 1.267 1_545 S
C133 O134 1.228 . S
O134 C133 1.228 . S
O135 Zn124 2.024 . S
O135 C126 1.058 . S
C136 O137 1.245 . S
C136 O138 1.255 1_565 S
O137 C136 1.245 . S
O138 Zn125 1.969 . S
O138 C136 1.255 1_545 S
O139 Zn125 1.965 1_565 S
O139 C143 1.260 . S
O140 Zn124 1.969 1_565 S
O140 C143 1.258 . S
O141 Zn125 2.024 1_565 S
O141 C128 1.058 . S
C142 O131 1.260 . S
C142 O132 1.258 . S
C143 O139 1.260 . S
C143 O140 1.258 . S
Zn144 O150 1.969 . S
Zn144 O151 1.965 . S
Zn144 O155 2.024 . S
Zn144 O160 1.969 . S
Zn145 O152 1.969 . S
Zn145 O158 1.969 . S
Zn145 O159 1.965 . S
Zn145 O161 2.024 . S
C146 O147 1.229 . S
C146 O155 1.058 . S
O147 C146 1.229 . S
C148 O149 1.229 . S
C148 O161 1.058 . S
O149 C148 1.229 . S
O150 Zn144 1.969 . S
O150 C153 1.267 . S
O151 Zn144 1.965 . S
O151 C162 1.260 . S
O152 Zn145 1.969 . S
O152 C162 1.258 . S
C153 O150 1.267 . S
C153 O154 1.228 . S
O154 C153 1.228 . S
O155 Zn144 2.024 . S
O155 C146 1.058 . S
C156 O157 1.228 . S
C156 O158 1.267 . S
O157 C156 1.228 . S
O158 Zn145 1.969 . S
O158 C156 1.267 . S
O159 Zn145 1.965 . S
O159 C163 1.260 . S
O160 Zn144 1.969 . S
O160 C163 1.258 . S
O161 Zn145 2.024 . S
O161 C148 1.058 . S
C162 O151 1.260 . S
C162 O152 1.258 . S
C163 O159 1.260 . S
C163 O160 1.258 . S
Zn164 O170 1.969 . S
Zn164 O171 1.965 . S
Zn164 O175 2.024 . S
Zn164 O180 1.969 . S
Zn165 O172 1.969 . S
Zn165 O178 1.969 . S
Zn165 O179 1.965 . S
Zn165 O181 2.024 . S
C166 O167 1.229 . S
C166 O175 1.058 . S
O167 C166 1.229 . S
C168 O169 1.229 . S
C168 O181 1.058 . S
O169 C168 1.229 . S
O170 Zn164 1.969 . S
O170 C173 1.267 . S
O171 Zn164 1.965 . S
O171 C182 1.260 1_455 S
O172 Zn165 1.969 . S
O172 C182 1.258 . S
C173 O170 1.267 . S
C173 O174 1.228 . S
O174 C173 1.228 . S
O175 Zn164 2.024 . S
O175 C166 1.058 . S
C176 O177 1.228 . S
C176 O178 1.267 . S
O177 C176 1.228 . S
O178 Zn165 1.969 . S
O178 C176 1.267 . S
O179 Zn165 1.965 . S
O179 C183 1.260 1_655 S
O180 Zn164 1.969 . S
O180 C183 1.258 . S
O181 Zn165 2.024 . S
O181 C168 1.058 . S
C182 O171 1.260 1_655 S
C182 O172 1.258 . S
C183 O179 1.260 1_455 S
C183 O180 1.258 . S
H184 C196 0.930 . S
H185 C198 0.930 . S
H186 C199 0.930 . S
H187 C203 0.959 . S
H188 C203 0.959 . S
H189 C203 0.961 . S
H190 C204 0.960 . S
H191 C204 0.961 . S
H192 C204 0.959 . S
H193 C207 0.929 . S
H194 C208 0.931 . S
H195 C210 0.930 . S
C196 H184 0.930 . S
C196 C197 1.399 . S
C196 C201 1.399 . S
C197 C196 1.399 . S
C197 C198 1.376 . S
C198 H185 0.930 . S
C198 C197 1.376 . S
C198 C199 1.388 . S
C199 H186 0.930 . S
C199 C198 1.388 . S
C199 C200 1.390 . S
C200 C199 1.390 . S
C200 C201 1.394 . S
C200 C206 1.465 . S
C201 C196 1.399 . S
C201 C200 1.394 . S
C201 C202 1.516 . S
C202 C201 1.516 . S
C202 C203 1.502 . S
C202 C204 1.561 1_545 S
C202 C205 1.526 . S
C203 H187 0.959 . S
C203 H188 0.959 . S
C203 H189 0.961 . S
C203 C202 1.502 . S
C204 H190 0.960 . S
C204 H191 0.961 . S
C204 H192 0.959 . S
C204 C202 1.561 1_565 S
C205 C202 1.526 . S
C205 C206 1.396 . S
C205 C210 1.390 . S
C206 C200 1.465 . S
C206 C205 1.396 . S
C206 C207 1.399 . S
C207 H193 0.929 . S
C207 C206 1.399 . S
C207 C208 1.385 . S
C208 H194 0.931 . S
C208 C207 1.385 . S
C208 C209 1.389 . S
C209 C208 1.389 . S
C209 C210 1.387 . S
C210 H195 0.930 . S
C210 C205 1.390 . S
C210 C209 1.387 . S
H211 C223 0.930 . S
H212 C225 0.930 . S
H213 C226 0.930 . S
H214 C230 0.959 . S
H215 C230 0.959 . S
H216 C230 0.961 . S
H217 C231 0.960 . S
H218 C231 0.961 . S
H219 C231 0.959 . S
H220 C234 0.929 . S
H221 C235 0.931 . S
H222 C237 0.930 . S
C223 H211 0.930 . S
C223 C224 1.399 . S
C223 C228 1.399 . S
C224 C223 1.399 . S
C224 C225 1.376 . S
C225 H212 0.930 . S
C225 C224 1.376 . S
C225 C226 1.388 . S
C226 H213 0.930 . S
C226 C225 1.388 . S
C226 C227 1.390 . S
C227 C226 1.390 . S
C227 C228 1.394 . S
C227 C233 1.465 . S
C228 C223 1.399 . S
C228 C227 1.394 . S
C228 C229 1.516 . S
C229 C228 1.516 . S
C229 C230 1.502 . S
C229 C231 1.561 . S
C229 C232 1.526 . S
C230 H214 0.959 . S
C230 H215 0.959 . S
C230 H216 0.961 . S
C230 C229 1.502 . S
C231 H217 0.960 . S
C231 H218 0.961 . S
C231 H219 0.959 . S
C231 C229 1.561 . S
C232 C229 1.526 . S
C232 C233 1.396 . S
C232 C237 1.390 . S
C233 C227 1.465 . S
C233 C232 1.396 . S
C233 C234 1.399 . S
C234 H220 0.929 . S
C234 C233 1.399 . S
C234 C235 1.385 . S
C235 H221 0.931 . S
C235 C234 1.385 . S
C235 C236 1.389 . S
C236 C235 1.389 . S
C236 C237 1.387 . S
C237 H222 0.930 . S
C237 C232 1.390 . S
C237 C236 1.387 . S
H238 C250 0.930 . S
H239 C252 0.930 . S
H240 C253 0.930 . S
H241 C257 0.959 . S
H242 C257 0.959 . S
H243 C257 0.961 . S
H244 C258 0.960 . S
H245 C258 0.961 . S
H246 C258 0.959 . S
H247 C261 0.929 . S
H248 C262 0.931 . S
H249 C264 0.930 . S
C250 H238 0.930 . S
C250 C251 1.399 . S
C250 C255 1.399 . S
C251 C250 1.399 . S
C251 C252 1.376 . S
C252 H239 0.930 . S
C252 C251 1.376 . S
C252 C253 1.388 . S
C253 H240 0.930 . S
C253 C252 1.388 . S
C253 C254 1.390 . S
C254 C253 1.390 . S
C254 C255 1.394 . S
C254 C260 1.465 . S
C255 C250 1.399 . S
C255 C254 1.394 . S
C255 C256 1.516 . S
C256 C255 1.516 . S
C256 C257 1.502 . S
C256 C258 1.561 . S
C256 C259 1.526 . S
C257 H241 0.959 . S
C257 H242 0.959 . S
C257 H243 0.961 . S
C257 C256 1.502 . S
C258 H244 0.960 . S
C258 H245 0.961 . S
C258 H246 0.959 . S
C258 C256 1.561 . S
C259 C256 1.526 . S
C259 C260 1.396 . S
C259 C264 1.390 . S
C260 C254 1.465 . S
C260 C259 1.396 . S
C260 C261 1.399 . S
C261 H247 0.929 . S
C261 C260 1.399 . S
C261 C262 1.385 . S
C262 H248 0.931 . S
C262 C261 1.385 . S
C262 C263 1.389 . S
C263 C262 1.389 . S
C263 C264 1.387 . S
C264 H249 0.930 . S
C264 C259 1.390 . S
C264 C263 1.387 . S
H265 C277 0.930 . S
H266 C279 0.930 . S
H267 C280 0.930 . S
H268 C284 0.959 . S
H269 C284 0.959 . S
H270 C284 0.961 . S
H271 C285 0.960 . S
H272 C285 0.961 . S
H273 C285 0.959 . S
H274 C288 0.929 . S
H275 C289 0.931 . S
H276 C291 0.930 . S
C277 H265 0.930 . S
C277 C278 1.399 1_455 S
C277 C282 1.399 . S
C278 C277 1.399 1_655 S
C278 C279 1.376 . S
C279 H266 0.930 . S
C279 C278 1.376 . S
C279 C280 1.388 . S
C280 H267 0.930 . S
C280 C279 1.388 . S
C280 C281 1.390 . S
C281 C280 1.390 . S
C281 C282 1.394 1_655 S
C281 C287 1.465 . S
C282 C277 1.399 . S
C282 C281 1.394 1_455 S
C282 C283 1.516 . S
C283 C282 1.516 . S
C283 C284 1.502 . S
C283 C285 1.561 . S
C283 C286 1.526 . S
C284 H268 0.959 . S
C284 H269 0.959 . S
C284 H270 0.961 . S
C284 C283 1.502 . S
C285 H271 0.960 . S
C285 H272 0.961 . S
C285 H273 0.959 . S
C285 C283 1.561 . S
C286 C283 1.526 . S
C286 C287 1.396 1_455 S
C286 C291 1.390 . S
C287 C281 1.465 . S
C287 C286 1.396 1_655 S
C287 C288 1.399 . S
C288 H274 0.929 . S
C288 C287 1.399 . S
C288 C289 1.385 . S
C289 H275 0.931 . S
C289 C288 1.385 . S
C289 C290 1.389 . S
C290 C289 1.389 . S
C290 C291 1.387 1_655 S
C291 H276 0.930 . S
C291 C286 1.390 . S
C291 C290 1.387 1_455 S
H292 C304 0.930 . S
H293 C306 0.930 1_545 S
H294 C307 0.930 . S
H295 C311 0.959 . S
H296 C311 0.959 . S
H297 C311 0.961 . S
H298 C312 0.960 . S
H299 C312 0.961 . S
H300 C312 0.959 . S
H301 C315 0.929 . S
H302 C316 0.931 . S
H303 C318 0.930 . S
C304 H292 0.930 . S
C304 C305 1.399 . S
C304 C309 1.399 . S
C305 C304 1.399 . S
C305 C306 1.376 . S
C306 H293 0.930 1_565 S
C306 C305 1.376 . S
C306 C307 1.388 1_565 S
C307 H294 0.930 . S
C307 C306 1.388 1_545 S
C307 C308 1.390 1_545 S
C308 C307 1.390 1_565 S
C308 C309 1.394 . S
C308 C314 1.465 . S
C309 C304 1.399 . S
C309 C308 1.394 . S
C309 C310 1.516 . S
C310 C309 1.516 . S
C310 C311 1.502 . S
C310 C312 1.561 . S
C310 C313 1.526 . S
C311 H295 0.959 . S
C311 H296 0.959 . S
C311 H297 0.961 . S
C311 C310 1.502 . S
C312 H298 0.960 . S
C312 H299 0.961 . S
C312 H300 0.959 . S
C312 C310 1.561 . S
C313 C310 1.526 . S
C313 C314 1.396 . S
C313 C318 1.390 . S
C314 C308 1.465 . S
C314 C313 1.396 . S
C314 C315 1.399 1_565 S
C315 H301 0.929 . S
C315 C314 1.399 1_545 S
C315 C316 1.385 . S
C316 H302 0.931 . S
C316 C315 1.385 . S
C316 C317 1.389 1_545 S
C317 C316 1.389 1_565 S
C317 C318 1.387 . S
C318 H303 0.930 . S
C318 C313 1.390 . S
C318 C317 1.387 . S
H319 C331 0.930 . S
H320 C333 0.930 . S
H321 C334 0.930 . S
H322 C338 0.959 . S
H323 C338 0.959 . S
H324 C338 0.961 . S
H325 C339 0.960 . S
H326 C339 0.961 . S
H327 C339 0.959 . S
H328 C342 0.929 . S
H329 C343 0.931 . S
H330 C345 0.930 . S
C331 H319 0.930 . S
C331 C332 1.399 . S
C331 C336 1.399 . S
C332 C331 1.399 . S
C332 C333 1.376 1_556 S
C333 H320 0.930 . S
C333 C332 1.376 1_554 S
C333 C334 1.388 . S
C334 H321 0.930 . S
C334 C333 1.388 . S
C334 C335 1.390 1_554 S
C335 C334 1.390 1_556 S
C335 C336 1.394 . S
C335 C341 1.465 . S
C336 C331 1.399 . S
C336 C335 1.394 . S
C336 C337 1.516 . S
C337 C336 1.516 . S
C337 C338 1.502 . S
C337 C339 1.561 . S
C337 C340 1.526 . S
C338 H322 0.959 . S
C338 H323 0.959 . S
C338 H324 0.961 . S
C338 C337 1.502 . S
C339 H325 0.960 . S
C339 H326 0.961 . S
C339 H327 0.959 . S
C339 C337 1.561 . S
C340 C337 1.526 . S
C340 C341 1.396 . S
C340 C345 1.390 . S
C341 C335 1.465 . S
C341 C340 1.396 . S
C341 C342 1.399 . S
C342 H328 0.929 . S
C342 C341 1.399 . S
C342 C343 1.385 . S
C343 H329 0.931 . S
C343 C342 1.385 . S
C343 C344 1.389 . S
C344 C343 1.389 . S
C344 C345 1.387 . S
C345 H330 0.930 . S
C345 C340 1.390 . S
C345 C344 1.387 . S
H346 C358 0.930 . S
H347 C360 0.930 . S
H348 C361 0.930 . S
H349 C365 0.959 . S
H350 C365 0.959 . S
H351 C365 0.961 . S
H352 C366 0.960 . S
H353 C366 0.961 . S
H354 C366 0.959 . S
H355 C369 0.929 . S
H356 C370 0.931 . S
H357 C372 0.930 . S
C358 H346 0.930 . S
C358 C359 1.399 . S
C358 C363 1.399 . S
C359 C358 1.399 . S
C359 C360 1.376 . S
C360 H347 0.930 . S
C360 C359 1.376 . S
C360 C361 1.388 . S
C361 H348 0.930 . S
C361 C360 1.388 . S
C361 C362 1.390 . S
C362 C361 1.390 . S
C362 C363 1.394 . S
C362 C368 1.465 . S
C363 C358 1.399 . S
C363 C362 1.394 . S
C363 C364 1.516 . S
C364 C363 1.516 . S
C364 C365 1.502 . S
C364 C366 1.561 . S
C364 C367 1.526 . S
C365 H349 0.959 . S
C365 H350 0.959 . S
C365 H351 0.961 . S
C365 C364 1.502 . S
C366 H352 0.960 . S
C366 H353 0.961 . S
C366 H354 0.959 . S
C366 C364 1.561 . S
C367 C364 1.526 . S
C367 C368 1.396 . S
C367 C372 1.390 . S
C368 C362 1.465 . S
C368 C367 1.396 . S
C368 C369 1.399 . S
C369 H355 0.929 . S
C369 C368 1.399 . S
C369 C370 1.385 . S
C370 H356 0.931 . S
C370 C369 1.385 . S
C370 C371 1.389 . S
C371 C370 1.389 . S
C371 C372 1.387 . S
C372 H357 0.930 . S
C372 C367 1.390 . S
C372 C371 1.387 . S
H373 C385 0.929 1_454 S
H374 C387 0.930 . S
H375 C388 0.930 . S
H376 C392 0.959 . S
H377 C392 0.959 . S
H378 C392 0.961 1_554 S
H379 C393 0.960 1_554 S
H380 C393 0.961 . S
H381 C393 0.959 . S
H382 C396 0.929 . S
H383 C397 0.931 . S
H384 C399 0.931 . S
C385 H373 0.929 1_656 S
C385 C386 1.399 . S
C385 C390 1.399 . S
C386 C385 1.399 . S
C386 C387 1.376 . S
C387 H374 0.930 . S
C387 C386 1.376 . S
C387 C388 1.388 . S
C388 H375 0.930 . S
C388 C387 1.388 . S
C388 C389 1.390 . S
C389 C388 1.390 . S
C389 C390 1.394 . S
C389 C395 1.465 . S
C390 C385 1.399 . S
C390 C389 1.394 . S
C390 C391 1.516 . S
C391 C390 1.516 . S
C391 C392 1.502 1_655 S
C391 C393 1.561 . S
C391 C394 1.526 . S
C392 H376 0.959 . S
C392 H377 0.959 . S
C392 H378 0.961 1_556 S
C392 C391 1.502 1_455 S
C393 H379 0.960 1_556 S
C393 H380 0.961 . S
C393 H381 0.959 . S
C393 C391 1.561 . S
C394 C391 1.526 . S
C394 C395 1.396 . S
C394 C399 1.389 1_655 S
C395 C389 1.465 . S
C395 C394 1.396 . S
C395 C396 1.399 . S
C396 H382 0.929 . S
C396 C395 1.399 . S
C396 C397 1.385 . S
C397 H383 0.931 . S
C397 C396 1.385 . S
C397 C398 1.388 1_655 S
C398 C397 1.388 1_455 S
C398 C399 1.387 . S
C399 H384 0.931 . S
C399 C394 1.389 1_455 S
C399 C398 1.387 . S
H400 C412 0.930 . S
H401 C414 0.930 . S
H402 C415 0.930 . S
H403 C419 0.959 . S
H404 C419 0.959 . S
H405 C419 0.961 . S
H406 C420 0.960 . S
H407 C420 0.961 . S
H408 C420 0.959 . S
H409 C423 0.929 . S
H410 C424 0.931 . S
H411 C426 0.930 . S
C412 H400 0.930 . S
C412 C413 1.399 1_655 S
C412 C417 1.399 . S
C413 C412 1.399 1_455 S
C413 C414 1.376 . S
C414 H401 0.930 . S
C414 C413 1.376 . S
C414 C415 1.388 . S
C415 H402 0.930 . S
C415 C414 1.388 . S
C415 C416 1.390 . S
C416 C415 1.390 . S
C416 C417 1.394 1_455 S
C416 C422 1.465 . S
C417 C412 1.399 . S
C417 C416 1.394 1_655 S
C417 C418 1.516 . S
C418 C417 1.516 . S
C418 C419 1.502 . S
C418 C420 1.561 . S
C418 C421 1.526 . S
C419 H403 0.959 . S
C419 H404 0.959 . S
C419 H405 0.961 . S
C419 C418 1.502 . S
C420 H406 0.960 . S
C420 H407 0.961 . S
C420 H408 0.959 . S
C420 C418 1.561 . S
C421 C418 1.526 . S
C421 C422 1.396 1_655 S
C421 C426 1.390 . S
C422 C416 1.465 . S
C422 C421 1.396 1_455 S
C422 C423 1.399 . S
C423 H409 0.929 . S
C423 C422 1.399 . S
C423 C424 1.385 . S
C424 H410 0.931 . S
C424 C423 1.385 . S
C424 C425 1.389 1_455 S
C425 C424 1.389 1_655 S
C425 C426 1.387 . S
C426 H411 0.930 . S
C426 C421 1.390 . S
C426 C425 1.387 . S
H427 C439 0.930 . S
H428 C441 0.930 . S
H429 C442 0.930 . S
H430 C446 0.959 . S
H431 C446 0.959 . S
H432 C446 0.961 . S
H433 C447 0.959 1_565 S
H434 C447 0.956 1_565 S
H435 C447 0.965 . S
H436 C450 0.929 . S
H437 C451 0.931 . S
H438 C453 0.930 . S
C439 H427 0.930 . S
C439 C440 1.399 . S
C439 C444 1.399 . S
C440 C439 1.399 . S
C440 C441 1.376 . S
C441 H428 0.930 . S
C441 C440 1.376 . S
C441 C442 1.388 . S
C442 H429 0.930 . S
C442 C441 1.388 . S
C442 C443 1.390 . S
C443 C442 1.390 . S
C443 C444 1.394 . S
C443 C449 1.465 . S
C444 C439 1.399 . S
C444 C443 1.394 . S
C444 C445 1.506 1_545 S
C445 C444 1.506 1_565 S
C445 C446 1.515 . S
C445 C447 1.561 1_565 S
C445 C448 1.521 1_565 S
C446 H430 0.959 . S
C446 H431 0.959 . S
C446 H432 0.961 . S
C446 C445 1.515 . S
C447 H433 0.959 1_545 S
C447 H434 0.956 1_545 S
C447 H435 0.965 . S
C447 C445 1.561 1_545 S
C448 C445 1.521 1_545 S
C448 C449 1.396 . S
C448 C453 1.390 1_545 S
C449 C443 1.465 . S
C449 C448 1.396 . S
C449 C450 1.399 . S
C450 H436 0.929 . S
C450 C449 1.399 . S
C450 C451 1.385 . S
C451 H437 0.931 . S
C451 C450 1.385 . S
C451 C452 1.389 . S
C452 C451 1.389 . S
C452 C453 1.387 1_545 S
C453 H438 0.930 . S
C453 C448 1.390 1_565 S
C453 C452 1.387 1_565 S
H454 C466 0.930 . S
H455 C468 0.930 . S
H456 C469 0.930 . S
H457 C473 0.959 . S
H458 C473 0.959 . S
H459 C473 0.961 . S
H460 C474 0.960 . S
H461 C474 0.961 . S
H462 C474 0.959 . S
H463 C477 0.929 . S
H464 C478 0.931 . S
H465 C480 0.930 . S
C466 H454 0.930 . S
C466 C467 1.399 . S
C466 C471 1.399 . S
C467 C466 1.399 . S
C467 C468 1.376 . S
C468 H455 0.930 . S
C468 C467 1.376 . S
C468 C469 1.388 . S
C469 H456 0.930 . S
C469 C468 1.388 . S
C469 C470 1.390 . S
C470 C469 1.390 . S
C470 C471 1.394 . S
C470 C476 1.465 . S
C471 C466 1.399 . S
C471 C470 1.394 . S
C471 C472 1.516 . S
C472 C471 1.516 . S
C472 C473 1.502 . S
C472 C474 1.561 . S
C472 C475 1.526 . S
C473 H457 0.959 . S
C473 H458 0.959 . S
C473 H459 0.961 . S
C473 C472 1.502 . S
C474 H460 0.960 . S
C474 H461 0.961 . S
C474 H462 0.959 . S
C474 C472 1.561 . S
C475 C472 1.526 . S
C475 C476 1.396 . S
C475 C480 1.390 . S
C476 C470 1.465 . S
C476 C475 1.396 . S
C476 C477 1.399 . S
C477 H463 0.929 . S
C477 C476 1.399 . S
C477 C478 1.385 . S
C478 H464 0.931 . S
C478 C477 1.385 . S
C478 C479 1.389 . S
C479 C478 1.389 . S
C479 C480 1.387 . S
C480 H465 0.930 . S
C480 C475 1.390 . S
C480 C479 1.387 . S
H481 C493 0.930 . S
H482 C495 0.930 . S
H483 C496 0.930 . S
H484 C500 0.959 . S
H485 C500 0.959 . S
H486 C500 0.961 . S
H487 C501 0.960 . S
H488 C501 0.961 . S
H489 C501 0.959 . S
H490 C504 0.929 . S
H491 C505 0.931 . S
H492 C507 0.930 . S
C493 H481 0.930 . S
C493 C494 1.399 . S
C493 C498 1.399 . S
C494 C493 1.399 . S
C494 C495 1.376 . S
C495 H482 0.930 . S
C495 C494 1.376 . S
C495 C496 1.388 . S
C496 H483 0.930 . S
C496 C495 1.388 . S
C496 C497 1.390 . S
C497 C496 1.390 . S
C497 C498 1.394 . S
C497 C503 1.465 . S
C498 C493 1.399 . S
C498 C497 1.394 . S
C498 C499 1.516 . S
C499 C498 1.516 . S
C499 C500 1.502 . S
C499 C501 1.561 . S
C499 C502 1.526 . S
C500 H484 0.959 . S
C500 H485 0.959 . S
C500 H486 0.961 . S
C500 C499 1.502 . S
C501 H487 0.960 . S
C501 H488 0.961 . S
C501 H489 0.959 . S
C501 C499 1.561 . S
C502 C499 1.526 . S
C502 C503 1.396 . S
C502 C507 1.390 . S
C503 C497 1.465 . S
C503 C502 1.396 . S
C503 C504 1.399 . S
C504 H490 0.929 . S
C504 C503 1.399 . S
C504 C505 1.385 . S
C505 H491 0.931 . S
C505 C504 1.385 . S
C505 C506 1.389 . S
C506 C505 1.389 . S
C506 C507 1.387 . S
C507 H492 0.930 . S
C507 C502 1.390 . S
C507 C506 1.387 . S
H508 C520 0.930 . S
H509 C522 0.930 . S
H510 C523 0.930 . S
H511 C527 0.959 1_556 S
H512 C527 0.959 . S
H513 C527 0.961 . S
H514 C528 0.960 . S
H515 C528 0.961 . S
H516 C528 0.959 . S
H517 C531 0.929 . S
H518 C532 0.931 . S
H519 C534 0.934 . S
C520 H508 0.930 . S
C520 C521 1.399 1_654 S
C520 C525 1.399 1_654 S
C521 C520 1.399 1_456 S
C521 C522 1.376 . S
C522 H509 0.930 . S
C522 C521 1.376 . S
C522 C523 1.388 . S
C523 H510 0.930 . S
C523 C522 1.388 . S
C523 C524 1.390 . S
C524 C523 1.390 . S
C524 C525 1.394 . S
C524 C530 1.465 . S
C525 C520 1.399 1_456 S
C525 C524 1.394 . S
C525 C526 1.516 1_455 S
C526 C525 1.516 1_655 S
C526 C527 1.502 1_556 S
C526 C528 1.561 1_656 S
C526 C529 1.526 1_655 S
C527 H511 0.959 1_554 S
C527 H512 0.959 . S
C527 H513 0.961 . S
C527 C526 1.502 1_554 S
C528 H514 0.960 . S
C528 H515 0.961 . S
C528 H516 0.959 . S
C528 C526 1.561 1_454 S
C529 C526 1.526 1_455 S
C529 C530 1.396 . S
C529 C534 1.390 . S
C530 C524 1.465 . S
C530 C529 1.396 . S
C530 C531 1.399 . S
C531 H517 0.929 . S
C531 C530 1.399 . S
C531 C532 1.385 . S
C532 H518 0.931 . S
C532 C531 1.385 . S
C532 C533 1.389 . S
C533 C532 1.389 . S
C533 C534 1.387 . S
C534 H519 0.934 . S
C534 C529 1.390 . S
C534 C533 1.387 . S
H535 C547 0.930 . S
H536 C549 0.930 . S
H537 C550 0.929 1_554 S
H538 C554 0.959 . S
H539 C554 0.959 . S
H540 C554 0.961 . S
H541 C555 0.960 . S
H542 C555 0.961 . S
H543 C555 0.959 . S
H544 C558 0.929 . S
H545 C559 0.931 . S
H546 C561 0.930 . S
C547 H535 0.930 . S
C547 C548 1.399 . S
C547 C552 1.399 . S
C548 C547 1.399 . S
C548 C549 1.376 1_556 S
C549 H536 0.930 . S
C549 C548 1.376 1_554 S
C549 C550 1.388 1_564 S
C550 H537 0.929 1_556 S
C550 C549 1.388 1_546 S
C550 C551 1.391 1_545 S
C551 C550 1.391 1_565 S
C551 C552 1.394 . S
C551 C557 1.465 . S
C552 C547 1.399 . S
C552 C551 1.394 . S
C552 C553 1.516 . S
C553 C552 1.516 . S
C553 C554 1.502 . S
C553 C555 1.561 . S
C553 C556 1.526 . S
C554 H538 0.959 . S
C554 H539 0.959 . S
C554 H540 0.961 . S
C554 C553 1.502 . S
C555 H541 0.960 . S
C555 H542 0.961 . S
C555 H543 0.959 . S
C555 C553 1.561 . S
C556 C553 1.526 . S
C556 C557 1.396 . S
C556 C561 1.390 . S
C557 C551 1.465 . S
C557 C556 1.396 . S
C557 C558 1.399 1_565 S
C558 H544 0.929 . S
C558 C557 1.399 1_545 S
C558 C559 1.385 . S
C559 H545 0.931 . S
C559 C558 1.385 . S
C559 C560 1.389 . S
C560 C559 1.389 . S
C560 C561 1.387 1_545 S
C561 H546 0.930 . S
C561 C556 1.390 . S
C561 C560 1.387 1_565 S
H562 C574 0.930 . S
H563 C576 0.930 . S
H564 C577 0.930 . S
H565 C581 0.959 . S
H566 C581 0.959 . S
H567 C581 0.961 . S
H568 C582 0.960 . S
H569 C582 0.961 . S
H570 C582 0.959 . S
H571 C585 0.929 . S
H572 C586 0.931 . S
H573 C588 0.930 . S
C574 H562 0.930 . S
C574 C575 1.399 . S
C574 C579 1.399 . S
C575 C574 1.399 . S
C575 C576 1.376 1_556 S
C576 H563 0.930 . S
C576 C575 1.376 1_554 S
C576 C577 1.388 . S
C577 H564 0.930 . S
C577 C576 1.388 . S
C577 C578 1.390 1_554 S
C578 C577 1.390 1_556 S
C578 C579 1.394 . S
C578 C584 1.465 . S
C579 C574 1.399 . S
C579 C578 1.394 . S
C579 C580 1.516 . S
C580 C579 1.516 . S
C580 C581 1.502 . S
C580 C582 1.561 . S
C580 C583 1.526 . S
C581 H565 0.959 . S
C581 H566 0.959 . S
C581 H567 0.961 . S
C581 C580 1.502 . S
C582 H568 0.960 . S
C582 H569 0.961 . S
C582 H570 0.959 . S
C582 C580 1.561 . S
C583 C580 1.526 . S
C583 C584 1.396 . S
C583 C588 1.390 . S
C584 C578 1.465 . S
C584 C583 1.396 . S
C584 C585 1.399 . S
C585 H571 0.929 . S
C585 C584 1.399 . S
C585 C586 1.385 . S
C586 H572 0.931 . S
C586 C585 1.385 . S
C586 C587 1.389 . S
C587 C586 1.389 . S
C587 C588 1.387 . S
C588 H573 0.930 . S
C588 C583 1.390 . S
C588 C587 1.387 . S
H589 C601 0.930 . S
H590 C603 0.930 . S
H591 C604 0.930 . S
H592 C608 0.959 . S
H593 C608 0.959 . S
H594 C608 0.961 . S
H595 C609 0.960 . S
H596 C609 0.961 . S
H597 C609 0.959 . S
H598 C612 0.929 . S
H599 C613 0.931 . S
H600 C615 0.930 . S
C601 H589 0.930 . S
C601 C602 1.399 . S
C601 C606 1.399 . S
C602 C601 1.399 . S
C602 C603 1.376 1_556 S
C603 H590 0.930 . S
C603 C602 1.376 1_554 S
C603 C604 1.388 . S
C604 H591 0.930 . S
C604 C603 1.388 . S
C604 C605 1.390 1_554 S
C605 C604 1.390 1_556 S
C605 C606 1.394 . S
C605 C611 1.465 . S
C606 C601 1.399 . S
C606 C605 1.394 . S
C606 C607 1.516 . S
C607 C606 1.516 . S
C607 C608 1.502 . S
C607 C609 1.561 . S
C607 C610 1.526 . S
C608 H592 0.959 . S
C608 H593 0.959 . S
C608 H594 0.961 . S
C608 C607 1.502 . S
C609 H595 0.960 . S
C609 H596 0.961 . S
C609 H597 0.959 . S
C609 C607 1.561 . S
C610 C607 1.526 . S
C610 C611 1.396 . S
C610 C615 1.390 . S
C611 C605 1.465 . S
C611 C610 1.396 . S
C611 C612 1.399 . S
C612 H598 0.929 . S
C612 C611 1.399 . S
C612 C613 1.385 . S
C613 H599 0.931 . S
C613 C612 1.385 . S
C613 C614 1.389 . S
C614 C613 1.389 . S
C614 C615 1.387 . S
C615 H600 0.930 . S
C615 C610 1.390 . S
C615 C614 1.387 . S
H616 C628 0.930 . S
H617 C630 0.930 . S
H618 C631 0.930 . S
H619 C635 0.959 1_556 S
H620 C635 0.959 . S
H621 C635 0.961 . S
H622 C636 0.960 . S
H623 C636 0.961 . S
H624 C636 0.959 1_655 S
H625 C639 0.929 . S
H626 C640 0.931 . S
H627 C642 0.930 . S
C628 H616 0.930 . S
C628 C629 1.399 1_455 S
C628 C633 1.399 1_554 S
C629 C628 1.399 1_655 S
C629 C630 1.376 1_554 S
C630 H617 0.930 . S
C630 C629 1.376 1_556 S
C630 C631 1.388 . S
C631 H618 0.930 . S
C631 C630 1.388 . S
C631 C632 1.390 . S
C632 C631 1.390 . S
C632 C633 1.394 1_655 S
C632 C638 1.465 . S
C633 C628 1.399 1_556 S
C633 C632 1.394 1_455 S
C633 C634 1.516 1_556 S
C634 C633 1.516 1_554 S
C634 C635 1.502 . S
C634 C636 1.561 . S
C634 C637 1.526 1_554 S
C635 H619 0.959 1_554 S
C635 H620 0.959 . S
C635 H621 0.961 . S
C635 C634 1.502 . S
C636 H622 0.960 . S
C636 H623 0.961 . S
C636 H624 0.959 1_455 S
C636 C634 1.561 . S
C637 C634 1.526 1_556 S
C637 C638 1.396 1_455 S
C637 C642 1.390 . S
C638 C632 1.465 . S
C638 C637 1.396 1_655 S
C638 C639 1.399 . S
C639 H625 0.929 . S
C639 C638 1.399 . S
C639 C640 1.385 . S
C640 H626 0.931 . S
C640 C639 1.385 . S
C640 C641 1.389 1_655 S
C641 C640 1.389 1_455 S
C641 C642 1.387 . S
C642 H627 0.930 . S
C642 C637 1.390 . S
C642 C641 1.387 . S
H643 C655 0.930 . S
H644 C657 0.930 . S
H645 C658 0.930 . S
H646 C662 0.959 . S
H647 C662 0.946 1_565 S
H648 C662 0.961 . S
H649 C663 0.960 1_554 S
H650 C663 0.961 . S
H651 C663 0.959 . S
H652 C666 0.929 . S
H653 C667 0.931 . S
H654 C669 0.930 . S
C655 H643 0.930 . S
C655 C656 1.399 . S
C655 C660 1.399 1_554 S
C656 C655 1.399 . S
C656 C657 1.376 1_554 S
C657 H644 0.930 . S
C657 C656 1.376 1_556 S
C657 C658 1.388 . S
C658 H645 0.930 . S
C658 C657 1.388 . S
C658 C659 1.390 . S
C659 C658 1.390 . S
C659 C660 1.394 . S
C659 C665 1.465 . S
C660 C655 1.399 1_556 S
C660 C659 1.394 . S
C660 C661 1.516 . S
C661 C660 1.516 . S
C661 C662 1.502 1_556 S
C661 C663 1.561 1_545 S
C661 C664 1.526 . S
C662 H646 0.959 . S
C662 H647 0.946 1_545 S
C662 H648 0.961 . S
C662 C661 1.502 1_554 S
C663 H649 0.960 1_556 S
C663 H650 0.961 . S
C663 H651 0.959 . S
C663 C661 1.561 1_565 S
C664 C661 1.526 . S
C664 C665 1.396 . S
C664 C669 1.390 . S
C665 C659 1.465 . S
C665 C664 1.396 . S
C665 C666 1.399 . S
C666 H652 0.929 . S
C666 C665 1.399 . S
C666 C667 1.385 . S
C667 H653 0.931 . S
C667 C666 1.385 . S
C667 C668 1.389 . S
C668 C667 1.389 . S
C668 C669 1.387 . S
C669 H654 0.930 . S
C669 C664 1.390 . S
C669 C668 1.387 . S
H670 C682 0.930 . S
H671 C684 0.930 . S
H672 C685 0.930 . S
H673 C689 0.959 . S
H674 C689 0.959 . S
H675 C689 0.961 . S
H676 C690 0.960 . S
H677 C690 0.961 . S
H678 C690 0.959 . S
H679 C693 0.929 . S
H680 C694 0.931 . S
H681 C696 0.930 . S
C682 H670 0.930 . S
C682 C683 1.399 1_556 S
C682 C687 1.399 . S
C683 C682 1.399 1_554 S
C683 C684 1.376 . S
C684 H671 0.930 . S
C684 C683 1.376 . S
C684 C685 1.388 . S
C685 H672 0.930 . S
C685 C684 1.388 . S
C685 C686 1.390 1_554 S
C686 C685 1.390 1_556 S
C686 C687 1.394 . S
C686 C692 1.465 . S
C687 C682 1.399 . S
C687 C686 1.394 . S
C687 C688 1.516 . S
C688 C687 1.516 . S
C688 C689 1.502 . S
C688 C690 1.561 . S
C688 C691 1.526 . S
C689 H673 0.959 . S
C689 H674 0.959 . S
C689 H675 0.961 . S
C689 C688 1.502 . S
C690 H676 0.960 . S
C690 H677 0.961 . S
C690 H678 0.959 . S
C690 C688 1.561 . S
C691 C688 1.526 . S
C691 C692 1.396 . S
C691 C696 1.390 . S
C692 C686 1.465 . S
C692 C691 1.396 . S
C692 C693 1.399 . S
C693 H679 0.929 . S
C693 C692 1.399 . S
C693 C694 1.385 . S
C694 H680 0.931 . S
C694 C693 1.385 . S
C694 C695 1.389 . S
C695 C694 1.389 . S
C695 C696 1.387 . S
C696 H681 0.930 . S
C696 C691 1.390 . S
C696 C695 1.387 . S
H697 C709 0.930 . S
H698 C711 0.930 . S
H699 C712 0.930 . S
H700 C716 0.959 . S
H701 C716 0.959 1_556 S
H702 C716 0.961 . S
H703 C717 0.960 . S
H704 C717 0.961 . S
H705 C717 0.959 . S
H706 C720 0.929 . S
H707 C721 0.931 . S
H708 C723 0.930 . S
C709 H697 0.930 . S
C709 C710 1.399 . S
C709 C714 1.399 1_554 S
C710 C709 1.399 . S
C710 C711 1.376 1_554 S
C711 H698 0.930 . S
C711 C710 1.376 1_556 S
C711 C712 1.388 . S
C712 H699 0.930 . S
C712 C711 1.388 . S
C712 C713 1.390 . S
C713 C712 1.390 . S
C713 C714 1.394 . S
C713 C719 1.465 . S
C714 C709 1.399 1_556 S
C714 C713 1.394 . S
C714 C715 1.516 . S
C715 C714 1.516 . S
C715 C716 1.502 1_556 S
C715 C717 1.561 . S
C715 C718 1.526 . S
C716 H700 0.959 . S
C716 H701 0.959 1_554 S
C716 H702 0.961 . S
C716 C715 1.502 1_554 S
C717 H703 0.960 . S
C717 H704 0.961 . S
C717 H705 0.959 . S
C717 C715 1.561 . S
C718 C715 1.526 . S
C718 C719 1.396 . S
C718 C723 1.390 . S
C719 C713 1.465 . S
C719 C718 1.396 . S
C719 C720 1.399 . S
C720 H706 0.929 . S
C720 C719 1.399 . S
C720 C721 1.385 . S
C721 H707 0.931 . S
C721 C720 1.385 . S
C721 C722 1.389 . S
C722 C721 1.389 . S
C722 C723 1.387 . S
C723 H708 0.930 . S
C723 C718 1.390 . S
C723 C722 1.387 . S
H724 C736 0.927 1_455 S
H725 C738 0.930 . S
H726 C739 0.930 . S
H727 C743 0.959 . S
H728 C743 0.959 . S
H729 C743 0.961 . S
H730 C744 0.960 . S
H731 C744 0.961 . S
H732 C744 0.959 . S
H733 C747 0.929 . S
H734 C748 0.931 . S
H735 C750 0.930 . S
C736 H724 0.927 1_655 S
C736 C737 1.399 . S
C736 C741 1.399 . S
C737 C736 1.399 . S
C737 C738 1.376 . S
C738 H725 0.930 . S
C738 C737 1.376 . S
C738 C739 1.388 . S
C739 H726 0.930 . S
C739 C738 1.388 . S
C739 C740 1.390 . S
C740 C739 1.390 . S
C740 C741 1.394 . S
C740 C746 1.465 . S
C741 C736 1.399 . S
C741 C740 1.394 . S
C741 C742 1.516 . S
C742 C741 1.516 . S
C742 C743 1.502 1_655 S
C742 C744 1.561 . S
C742 C745 1.526 . S
C743 H727 0.959 . S
C743 H728 0.959 . S
C743 H729 0.961 . S
C743 C742 1.502 1_455 S
C744 H730 0.960 . S
C744 H731 0.961 . S
C744 H732 0.959 . S
C744 C742 1.561 . S
C745 C742 1.526 . S
C745 C746 1.396 . S
C745 C750 1.390 . S
C746 C740 1.465 . S
C746 C745 1.396 . S
C746 C747 1.399 . S
C747 H733 0.929 . S
C747 C746 1.399 . S
C747 C748 1.385 . S
C748 H734 0.931 . S
C748 C747 1.385 . S
C748 C749 1.389 . S
C749 C748 1.389 . S
C749 C750 1.387 . S
C750 H735 0.930 . S
C750 C745 1.390 . S
C750 C749 1.387 . S
H751 C763 0.930 . S
H752 C765 0.930 1_545 S
H753 C766 0.930 . S
H754 C770 0.959 . S
H755 C770 0.959 . S
H756 C770 0.961 . S
H757 C771 0.960 . S
H758 C771 0.961 . S
H759 C771 0.959 . S
H760 C774 0.929 . S
H761 C775 0.931 . S
H762 C777 0.930 . S
C763 H751 0.930 . S
C763 C764 1.399 . S
C763 C768 1.399 . S
C764 C763 1.399 . S
C764 C765 1.376 . S
C765 H752 0.930 1_565 S
C765 C764 1.376 . S
C765 C766 1.388 1_565 S
C766 H753 0.930 . S
C766 C765 1.388 1_545 S
C766 C767 1.390 1_545 S
C767 C766 1.390 1_565 S
C767 C768 1.394 . S
C767 C773 1.465 . S
C768 C763 1.399 . S
C768 C767 1.394 . S
C768 C769 1.516 . S
C769 C768 1.516 . S
C769 C770 1.502 . S
C769 C771 1.561 . S
C769 C772 1.526 . S
C770 H754 0.959 . S
C770 H755 0.959 . S
C770 H756 0.961 . S
C770 C769 1.502 . S
C771 H757 0.960 . S
C771 H758 0.961 . S
C771 H759 0.959 . S
C771 C769 1.561 . S
C772 C769 1.526 . S
C772 C773 1.396 . S
C772 C777 1.390 . S
C773 C767 1.465 . S
C773 C772 1.396 . S
C773 C774 1.399 1_565 S
C774 H760 0.929 . S
C774 C773 1.399 1_545 S
C774 C775 1.385 . S
C775 H761 0.931 . S
C775 C774 1.385 . S
C775 C776 1.389 1_545 S
C776 C775 1.389 1_565 S
C776 C777 1.387 . S
C777 H762 0.930 . S
C777 C772 1.390 . S
C777 C776 1.387 . S
H778 C790 0.930 . S
H779 C792 0.930 . S
H780 C793 0.930 . S
H781 C797 0.959 . S
H782 C797 0.959 . S
H783 C797 0.961 . S
H784 C798 0.960 . S
H785 C798 0.961 . S
H786 C798 0.959 . S
H787 C801 0.929 . S
H788 C802 0.931 . S
H789 C804 0.930 . S
C790 H778 0.930 . S
C790 C791 1.399 . S
C790 C795 1.399 . S
C791 C790 1.399 . S
C791 C792 1.376 . S
C792 H779 0.930 . S
C792 C791 1.376 . S
C792 C793 1.388 . S
C793 H780 0.930 . S
C793 C792 1.388 . S
C793 C794 1.390 . S
C794 C793 1.390 . S
C794 C795 1.394 . S
C794 C800 1.465 . S
C795 C790 1.399 . S
C795 C794 1.394 . S
C795 C796 1.516 . S
C796 C795 1.516 . S
C796 C797 1.502 . S
C796 C798 1.561 . S
C796 C799 1.526 . S
C797 H781 0.959 . S
C797 H782 0.959 . S
C797 H783 0.961 . S
C797 C796 1.502 . S
C798 H784 0.960 . S
C798 H785 0.961 . S
C798 H786 0.959 . S
C798 C796 1.561 . S
C799 C796 1.526 . S
C799 C800 1.396 . S
C799 C804 1.390 . S
C800 C794 1.465 . S
C800 C799 1.396 . S
C800 C801 1.399 . S
C801 H787 0.929 . S
C801 C800 1.399 . S
C801 C802 1.385 . S
C802 H788 0.931 . S
C802 C801 1.385 . S
C802 C803 1.389 . S
C803 C802 1.389 . S
C803 C804 1.387 . S
C804 H789 0.930 . S
C804 C799 1.390 . S
C804 C803 1.387 . S
H805 C817 0.930 . S
H806 C819 0.930 . S
H807 C820 0.930 . S
H808 C824 0.959 . S
H809 C824 0.959 . S
H810 C824 0.961 . S
H811 C825 0.960 . S
H812 C825 0.961 . S
H813 C825 0.959 . S
H814 C828 0.929 . S
H815 C829 0.931 . S
H816 C831 0.930 . S
C817 H805 0.930 . S
C817 C818 1.399 . S
C817 C822 1.399 . S
C818 C817 1.399 . S
C818 C819 1.376 . S
C819 H806 0.930 . S
C819 C818 1.376 . S
C819 C820 1.388 . S
C820 H807 0.930 . S
C820 C819 1.388 . S
C820 C821 1.390 . S
C821 C820 1.390 . S
C821 C822 1.394 . S
C821 C827 1.465 . S
C822 C817 1.399 . S
C822 C821 1.394 . S
C822 C823 1.516 . S
C823 C822 1.516 . S
C823 C824 1.502 . S
C823 C825 1.561 . S
C823 C826 1.526 . S
C824 H808 0.959 . S
C824 H809 0.959 . S
C824 H810 0.961 . S
C824 C823 1.502 . S
C825 H811 0.960 . S
C825 H812 0.961 . S
C825 H813 0.959 . S
C825 C823 1.561 . S
C826 C823 1.526 . S
C826 C827 1.396 . S
C826 C831 1.390 . S
C827 C821 1.465 . S
C827 C826 1.396 . S
C827 C828 1.399 . S
C828 H814 0.929 . S
C828 C827 1.399 . S
C828 C829 1.385 . S
C829 H815 0.931 . S
C829 C828 1.385 . S
C829 C830 1.389 . S
C830 C829 1.389 . S
C830 C831 1.387 . S
C831 H816 0.930 . S
C831 C826 1.390 . S
C831 C830 1.387 . S
C197 N80 1.525 . S
C209 C122 1.571 . S
C236 C142 1.478 . S
C224 N93 1.528 . S
C263 C162 1.513 . S
C251 N54 1.572 . S
C290 C182 1.491 . S
C278 N67 1.505 . S
C317 C123 1.543 1_565 S
C305 N28 1.540 1_556 S
C332 N41 1.537 1_556 S
C344 C143 1.459 . S
C359 N2 1.576 1_556 S
C371 C163 1.559 . S
C386 N15 1.487 1_556 S
C398 C183 1.529 . S
C425 C113 0.817 . S
C413 N70 0.853 1_455 S
C452 C133 0.753 . S
C440 N83 0.886 . S
C479 C153 0.900 . S
C467 N96 0.830 . S
C494 N57 0.816 . S
C506 C173 0.911 . S
C521 N18 0.833 1_456 S
C533 C116 0.799 . S
C560 C136 0.909 1_545 S
C548 N31 0.838 . S
C587 C156 0.848 . S
C575 N44 0.852 1_556 S
C602 N5 0.865 . S
C614 C176 0.887 . S
C629 N66 1.548 . S
C641 C106 1.369 . S
C656 N79 1.593 . S
C668 C126 1.435 . S
C695 C146 1.477 . S
C683 N92 1.536 . S
C722 C166 1.467 . S
C710 N53 1.588 . S
C737 N14 1.552 . S
C749 C108 1.386 . S
C776 C128 1.422 . S
C764 N27 1.585 . S
C803 C148 1.413 . S
C791 N40 1.537 . S
C818 N1 1.579 . S
C830 C168 1.437 . S
