# Generated by pormake.
# Topology zzz, (3,6)-cn, num edge types: 1
# Building blocks:
#     Node 0, Type 0, BuildingBlock: QEWDON_clean_linker_0, # of connection points: 3
#     Node 1, Type 0, BuildingBlock: QEWDON_clean_linker_0, # of connection points: 3
#     Node 2, Type 0, BuildingBlock: QEWDON_clean_linker_0, # of connection points: 3
#     Node 3, Type 0, BuildingBlock: QEWDON_clean_linker_0, # of connection points: 3
#     Node 4, Type 0, BuildingBlock: QEWDON_clean_linker_0, # of connection points: 3
#     Node 5, Type 0, BuildingBlock: QEWDON_clean_linker_0, # of connection points: 3
#     Node 6, Type 0, BuildingBlock: QEWDON_clean_linker_0, # of connection points: 3
#     Node 7, Type 0, BuildingBlock: QEWDON_clean_linker_0, # of connection points: 3
#     Node 8, Type 1, BuildingBlock: BETFEN_clean_sbu_0, # of connection points: 6
#     Node 9, Type 1, BuildingBlock: BETFEN_clean_sbu_0, # of connection points: 6
#     Node 10, Type 1, BuildingBlock: BETFEN_clean_sbu_0, # of connection points: 6
#     Node 11, Type 1, BuildingBlock: BETFEN_clean_sbu_0, # of connection points: 6
#     Edge 12, Type (0, 1), BuildingBlock: TEMPAE_clean_linker_10, # of connection points: 2
#     Edge 13, Type (0, 1), BuildingBlock: TEMPAE_clean_linker_10, # of connection points: 2
#     Edge 14, Type (0, 1), BuildingBlock: TEMPAE_clean_linker_10, # of connection points: 2
#     Edge 15, Type (0, 1), BuildingBlock: TEMPAE_clean_linker_10, # of connection points: 2
#     Edge 16, Type (0, 1), BuildingBlock: TEMPAE_clean_linker_10, # of connection points: 2
#     Edge 17, Type (0, 1), BuildingBlock: TEMPAE_clean_linker_10, # of connection points: 2
#     Edge 18, Type (0, 1), BuildingBlock: TEMPAE_clean_linker_10, # of connection points: 2
#     Edge 19, Type (0, 1), BuildingBlock: TEMPAE_clean_linker_10, # of connection points: 2
#     Edge 20, Type (0, 1), BuildingBlock: TEMPAE_clean_linker_10, # of connection points: 2
#     Edge 21, Type (0, 1), BuildingBlock: TEMPAE_clean_linker_10, # of connection points: 2
#     Edge 22, Type (0, 1), BuildingBlock: TEMPAE_clean_linker_10, # of connection points: 2
#     Edge 23, Type (0, 1), BuildingBlock: TEMPAE_clean_linker_10, # of connection points: 2
#     Edge 24, Type (0, 1), BuildingBlock: TEMPAE_clean_linker_10, # of connection points: 2
#     Edge 25, Type (0, 1), BuildingBlock: TEMPAE_clean_linker_10, # of connection points: 2
#     Edge 26, Type (0, 1), BuildingBlock: TEMPAE_clean_linker_10, # of connection points: 2
#     Edge 27, Type (0, 1), BuildingBlock: TEMPAE_clean_linker_10, # of connection points: 2
#     Edge 28, Type (0, 1), BuildingBlock: TEMPAE_clean_linker_10, # of connection points: 2
#     Edge 29, Type (0, 1), BuildingBlock: TEMPAE_clean_linker_10, # of connection points: 2
#     Edge 30, Type (0, 1), BuildingBlock: TEMPAE_clean_linker_10, # of connection points: 2
#     Edge 31, Type (0, 1), BuildingBlock: TEMPAE_clean_linker_10, # of connection points: 2
#     Edge 32, Type (0, 1), BuildingBlock: TEMPAE_clean_linker_10, # of connection points: 2
#     Edge 33, Type (0, 1), BuildingBlock: TEMPAE_clean_linker_10, # of connection points: 2
#     Edge 34, Type (0, 1), BuildingBlock: TEMPAE_clean_linker_10, # of connection points: 2
#     Edge 35, Type (0, 1), BuildingBlock: TEMPAE_clean_linker_10, # of connection points: 2
# Relax obj value: 0.176
# Max RMSD: 0.174
# Mean RMSD: 0.124
data_MOF--net-zzz--node1-BETFEN_clean_sbu_0--node2-QEWDON_clean_linker_0--edge1-TEMPAE_clean_linker_10
_symmetry_space_group_name_H-M    P1
_symmetry_Int_Tables_number       1
_symmetry_cell_setting            triclinic
loop_
_symmetry_equiv_pos_as_xyz
'x, y, z'
_cell_length_a     57.033175
_cell_length_b     57.035159
_cell_length_c     12.952383
_cell_angle_alpha  90.013331
_cell_angle_beta   89.965345
_cell_angle_gamma 90.003546
loop_
_atom_site_label
_atom_site_type_symbol
_atom_site_fract_x
_atom_site_fract_y
_atom_site_fract_z
_atom_type_partial_charge
H0 H 0.76564 0.49949 0.18752 0.0
C1 C 0.7762 0.50058 0.25687 0.0
C2 C 0.79521 0.48528 0.26807 0.0
C3 C 0.77213 0.51847 0.3299 0.0
H4 H 0.82517 0.47607 0.35763 0.0
C5 C 0.81003 0.48743 0.35347 0.0
C6 C 0.80805 0.50609 0.42297 0.0
C7 C 0.78866 0.52144 0.41194 0.0
C8 C 0.75253 0.53567 0.31127 0.0
H9 H 0.78674 0.53575 0.46614 0.0
C10 C 0.73084 0.52888 0.26511 0.0
C11 C 0.71337 0.54575 0.23991 0.0
C12 C 0.75615 0.55954 0.33286 0.0
H13 H 0.77255 0.56568 0.36509 0.0
C14 C 0.73914 0.57615 0.30872 0.0
H15 H 0.72757 0.51053 0.24947 0.0
C16 C 0.71819 0.56946 0.26203 0.0
H17 H 0.706 0.58319 0.241 0.0
H18 H 0.74246 0.59451 0.32423 0.0
H19 H 0.99392 0.74853 0.25521 0.0
C20 C 0.99794 0.76174 0.31228 0.0
C21 C 0.98677 0.78349 0.30287 0.0
C22 C 1.01407 0.75738 0.39295 0.0
H23 H 0.98177 0.81744 0.37142 0.0
C24 C 0.99049 0.80066 0.37845 0.0
C25 C 1.00743 0.79808 0.45511 0.0
C26 C 0.01954 0.77641 0.46149 0.0
C27 C 0.02463 0.73309 0.40555 0.0
H28 H 0.03303 0.77459 0.51957 0.0
C29 C 0.02553 0.71635 0.32326 0.0
C30 C 0.03391 0.69318 0.33924 0.0
C31 C 0.03272 0.72583 0.50323 0.0
H32 H 0.03177 0.73728 0.56963 0.0
C33 C 0.04148 0.70327 0.51864 0.0
H34 H 0.02008 0.7211 0.2462 0.0
C35 C 0.04202 0.6871 0.43801 0.0
H36 H 0.0483 0.66954 0.45388 0.0
H37 H 0.04747 0.69809 0.5946 0.0
H38 H 0.79212 0.98775 0.23925 0.0
C39 C 0.77936 0.99207 0.29779 0.0
C40 C 0.7576 0.98075 0.29258 0.0
C41 C 0.78416 1.00884 0.37552 0.0
H42 H 0.72423 0.97594 0.36647 0.0
C43 C 0.74098 0.98479 0.37023 0.0
C44 C 0.74397 1.00229 0.4443 0.0
C45 C 0.76554 1.01464 0.4458 0.0
C46 C 0.80835 0.02001 0.38242 0.0
H47 H 0.76754 0.02863 0.5014 0.0
C48 C 0.82474 0.01982 0.29855 0.0
C49 C 0.8476 0.02935 0.30908 0.0
C50 C 0.81584 0.03011 0.47618 0.0
H51 H 0.80482 0.03005 0.54404 0.0
C52 C 0.83811 0.03999 0.48585 0.0
H53 H 0.82 1.01271 0.22417 0.0
C54 C 0.85382 0.03966 0.40346 0.0
H55 H 0.87116 0.04701 0.41446 0.0
H56 H 0.84341 0.04763 0.55874 0.0
H57 H 0.4934 0.78735 0.21769 0.0
C58 C 0.49878 0.77479 0.27547 0.0
C59 C 0.49094 0.75169 0.26537 0.0
C60 C 0.51316 0.78138 0.35987 0.0
H61 H 0.49033 0.71732 0.33073 0.0
C62 C 0.49648 0.73512 0.34047 0.0
C63 C 0.51041 0.74048 0.4252 0.0
C64 C 0.51937 0.76358 0.43368 0.0
C65 C 0.52081 0.80675 0.37201 0.0
H66 H 0.53088 0.76745 0.49772 0.0
C67 C 0.52162 0.82287 0.28735 0.0
C68 C 0.52805 0.84669 0.30196 0.0
C69 C 0.52651 0.81546 0.47075 0.0
H70 H 0.52533 0.80455 0.53875 0.0
C71 C 0.53325 0.83875 0.48485 0.0
H72 H 0.51772 0.81711 0.20974 0.0
C73 C 0.53406 0.85419 0.40164 0.0
H74 H 0.53891 0.87228 0.41579 0.0
H75 H 0.53752 0.845 0.5615 0.0
H76 H 0.28767 0.55257 0.24755 0.0
C77 C 0.27511 0.54678 0.19053 0.0
C78 C 0.25171 0.55365 0.20245 0.0
C79 C 0.28199 0.53287 0.10496 0.0
H80 H 0.21716 0.55315 0.13842 0.0
C81 C 0.23516 0.5476 0.12798 0.0
C82 C 0.24091 0.53421 0.04205 0.0
C83 C 0.26428 0.52621 0.03172 0.0
C84 C 0.30755 0.52622 0.09063 0.0
H85 H 0.26843 0.51511 0.96658 0.0
C86 C 0.32385 0.52534 0.17443 0.0
C87 C 0.3478 0.51969 0.15788 0.0
C88 C 0.3162 0.52151 0.99074 0.0
H89 H 0.30509 0.52285 0.92342 0.0
C90 C 0.33964 0.51557 0.97469 0.0
H91 H 0.31812 0.52857 0.25273 0.0
C92 C 0.35527 0.5146 0.05713 0.0
H93 H 0.37345 0.51036 0.04165 0.0
H94 H 0.34584 0.51203 0.89722 0.0
H95 H 0.99088 0.28249 0.23215 0.0
C96 C 0.9967 0.26983 0.17559 0.0
C97 C 0.98989 0.24645 0.18852 0.0
C98 C 1.01061 0.27655 0.08976 0.0
H99 H 0.99057 0.21174 0.12637 0.0
C100 C 0.996 0.22973 0.11484 0.0
C101 C 1.00931 0.23528 0.02842 0.0
C102 C 0.01726 0.25867 0.01709 0.0
C103 C 0.01729 0.30212 0.07482 0.0
H104 H 0.02834 0.26268 0.9517 0.0
C105 C 0.01794 0.31863 0.15805 0.0
C106 C 0.02371 0.34252 0.14085 0.0
C107 C 0.02234 0.31055 0.9749 0.0
H108 H 0.02119 0.29932 0.90791 0.0
C109 C 0.0284 0.33395 0.95835 0.0
H110 H 1.01445 0.31312 0.23642 0.0
C111 C 0.02918 0.34975 0.04025 0.0
H112 H 0.03362 0.36788 0.02457 0.0
H113 H 0.03224 0.33996 0.88088 0.0
H114 H 0.26003 0.99116 0.2245 0.0
C115 C 0.27252 0.99589 0.16541 0.0
C116 C 0.2949 0.98598 0.17112 0.0
C117 C 0.26667 1.01154 0.08431 0.0
H118 H 0.32863 0.98305 0.1016 0.0
C119 C 0.3114 0.99073 0.09471 0.0
C120 C 0.3071 1.00657 0.01534 0.0
C121 C 0.28479 0.01747 0.01143 0.0
C122 C 0.24185 0.02112 0.0752 0.0
H123 H 0.28183 0.03036 0.95174 0.0
C124 C 0.22552 0.021 0.15927 0.0
C125 C 0.20222 0.02928 0.14695 0.0
C126 C 0.23379 0.02966 0.97935 0.0
H127 H 0.24471 0.02933 0.91123 0.0
C128 C 0.21105 0.03828 0.96787 0.0
H129 H 0.23064 1.01494 0.23494 0.0
C130 C 0.19545 0.03817 0.05057 0.0
H131 H 0.17777 0.04455 0.03839 0.0
H132 H 0.20534 0.04476 0.89346 0.0
H133 H 0.48806 0.25644 0.21099 0.0
C134 C 0.49251 0.26927 0.15294 0.0
C135 C 0.48149 0.29116 0.15909 0.0
C136 C 0.50913 0.26439 0.07472 0.0
H137 H 0.47708 0.32472 0.08646 0.0
C138 C 0.48572 0.30786 0.08199 0.0
C139 C 0.50311 0.30476 0.00751 0.0
C140 C 0.51515 0.28302 0.00497 0.0
C141 C 0.51985 0.24005 0.06646 0.0
H142 H 0.52904 0.28087 0.94896 0.0
C143 C 0.51983 0.22366 0.15022 0.0
C144 C 0.5288 0.20061 0.13834 0.0
C145 C 0.52925 0.23243 0.9715 0.0
H146 H 0.52901 0.24352 0.90386 0.0
C147 C 0.53857 0.20996 0.96038 0.0
H148 H 0.51329 0.22857 0.22544 0.0
C149 C 0.53837 0.19422 0.04258 0.0
H150 H 0.54525 0.17673 0.0304 0.0
H151 H 0.54565 0.20454 0.88656 0.0
Pr152 Pr 0.03555 1.0132 0.83239 0.0
Pr153 Pr 1.01154 0.02406 0.60625 0.0
C154 C 0.03993 0.99566 0.02181 0.0
C155 C 0.0296 0.97328 0.05558 0.0
C156 C 0.04446 0.95504 0.08671 0.0
C157 C 0.03617 0.93203 0.09061 0.0
C158 C 1.01275 0.92687 0.06466 0.0
C159 C 0.99759 0.94532 0.03895 0.0
C160 C 1.00595 0.96825 0.034 0.0
C161 C 0.07056 0.01892 0.67937 0.0
C162 C 0.02212 0.96851 0.67152 0.0
C163 C 1.00219 0.03708 0.41212 0.0
C164 C 0.9862 0.05509 0.37192 0.0
C165 C 0.96466 0.05954 0.42108 0.0
C166 C 0.95245 0.0803 0.40126 0.0
C167 C 0.96174 0.09705 0.33303 0.0
C168 C 0.98232 0.09149 0.27767 0.0
C169 C 0.99436 0.07067 0.29679 0.0
C170 C 0.9766 0.02134 0.76177 0.0
C171 C 0.02491 0.06906 0.77048 0.0
O172 O 0.02532 1.01282 0.00153 0.0
O173 O 0.05635 0.99334 0.95198 0.0
O174 O 0.04858 0.01965 0.66797 0.0
O175 O 0.07512 1.01634 0.77709 0.0
O176 O 0.01964 0.98356 0.59419 0.0
O177 O 0.02494 0.97575 0.76804 0.0
O178 O 0.02008 0.04535 0.46429 0.0
O179 O 0.99248 0.01866 0.4551 0.0
O180 O 0.99847 0.01858 0.77119 0.0
O181 O 0.97209 0.0254 0.66524 0.0
O182 O 0.031 0.05409 0.84447 0.0
O183 O 0.01866 0.06212 0.67603 0.0
H184 H 0.06286 0.95836 0.10155 0.0
H185 H 0.04839 0.91818 0.10994 0.0
H186 H 0.97935 0.942 0.02076 0.0
H187 H 0.9941 0.98176 0.00792 0.0
H188 H 0.95799 0.04775 0.47964 0.0
H189 H 0.93645 0.08378 0.44363 0.0
H190 H 0.99027 0.10399 0.22546 0.0
H191 H 1.011 0.06762 0.25862 0.0
Pr192 Pr 0.52985 0.03463 0.82961 0.0
Pr193 Pr 0.51945 1.01087 0.60262 0.0
C194 C 0.54616 0.03737 0.02142 0.0
C195 C 0.56804 0.02618 0.0561 0.0
C196 C 0.58688 0.0404 0.08604 0.0
C197 C 0.60956 0.03129 0.08909 0.0
C198 C 0.6138 1.00765 0.06386 0.0
C199 C 0.59474 0.99308 0.04 0.0
C200 C 0.57209 1.00226 0.03585 0.0
C201 C 0.5254 0.06993 0.67746 0.0
C202 C 0.57477 0.02124 0.66969 0.0
C203 C 0.50616 1.00178 0.40879 0.0
C204 C 0.48771 0.98612 0.37024 0.0
C205 C 0.48273 0.96497 0.42155 0.0
C206 C 0.46165 0.95321 0.40326 0.0
C207 C 0.44512 0.96256 0.33431 0.0
C208 C 0.45106 0.98283 0.27762 0.0
C209 C 0.4722 0.99443 0.29523 0.0
C210 C 0.52367 0.97593 0.75697 0.0
C211 C 0.47408 0.02379 0.76554 0.0
O212 O 0.52877 0.02334 0.99723 0.0
O213 O 0.54931 0.05423 0.95425 0.0
O214 O 0.52391 0.04798 0.66491 0.0
O215 O 0.52819 0.07428 0.77533 0.0
O216 O 0.55983 0.01927 0.59166 0.0
O217 O 0.56741 0.02381 0.76629 0.0
O218 O 0.49835 0.01989 0.46088 0.0
O219 O 0.52446 0.99175 0.45124 0.0
O220 O 0.52532 0.99786 0.76636 0.0
O221 O 0.51987 0.97118 0.66043 0.0
O222 O 0.48887 0.03045 0.83922 0.0
O223 O 0.48123 1.01709 0.67205 0.0
H224 H 0.5843 0.05895 0.10011 0.0
H225 H 0.62388 0.04307 0.10702 0.0
H226 H 0.59736 0.97469 0.02256 0.0
H227 H 0.558 0.99085 0.01128 0.0
H228 H 0.49442 0.95827 0.48043 0.0
H229 H 0.45783 0.93747 0.44685 0.0
H230 H 0.4387 0.99085 0.22503 0.0
H231 H 0.47561 1.01083 0.25577 0.0
Pr232 Pr 0.51268 0.52906 0.85201 0.0
Pr233 Pr 0.53638 0.51882 0.62278 0.0
C234 C 0.50372 0.54217 0.04624 0.0
C235 C 0.48773 0.56028 0.0855 0.0
C236 C 0.46629 0.56467 0.03549 0.0
C237 C 0.4541 0.5855 0.05392 0.0
C238 C 0.4633 0.60238 0.1217 0.0
C239 C 0.48381 0.59695 0.17769 0.0
C240 C 0.49585 0.57606 0.15989 0.0
C241 C 0.47777 0.52434 0.69802 0.0
C242 C 0.52477 0.57441 0.68694 0.0
C243 C 0.53925 0.50215 0.43168 0.0
C244 C 0.52804 0.48025 0.39745 0.0
C245 C 0.54224 0.46139 0.3675 0.0
C246 C 0.53313 0.43872 0.36478 0.0
C247 C 0.5095 0.4345 0.39037 0.0
C248 C 0.49495 0.45357 0.41433 0.0
C249 C 0.50414 0.47622 0.41816 0.0
C250 C 0.57137 0.52483 0.77501 0.0
C251 C 0.52364 0.47386 0.78423 0.0
O252 O 0.52159 0.55034 0.99352 0.0
O253 O 0.49398 0.52367 0.00409 0.0
O254 O 0.49971 0.52296 0.68838 0.0
O255 O 0.473 0.52815 0.79458 0.0
O256 O 0.53117 0.55961 0.6128 0.0
O257 O 0.51857 0.56731 0.7813 0.0
O258 O 0.52522 0.51962 0.45504 0.0
O259 O 0.55604 0.49905 0.49927 0.0
O260 O 0.5494 0.52494 0.78653 0.0
O261 O 0.57604 0.52285 0.67697 0.0
O262 O 0.52154 0.48878 0.86233 0.0
O263 O 0.52619 0.4812 0.68756 0.0
H264 H 0.45969 0.55275 0.97726 0.0
H265 H 0.43818 0.58891 0.01097 0.0
H266 H 0.4917 0.60958 0.22948 0.0
H267 H 0.51243 0.57308 0.19852 0.0
H268 H 0.56078 0.46397 0.35312 0.0
H269 H 0.54489 0.42438 0.34675 0.0
H270 H 0.47657 0.45096 0.43205 0.0
H271 H 0.49275 0.49032 0.44279 0.0
Pr272 Pr 0.01959 0.50658 0.84175 0.0
Pr273 Pr 0.03055 0.53243 0.62103 0.0
C274 C 1.00708 0.49595 0.03519 0.0
C275 C 0.98849 0.48056 0.07478 0.0
C276 C 0.98329 0.45922 0.02544 0.0
C277 C 0.96208 0.44776 0.04501 0.0
C278 C 0.94561 0.45764 0.11305 0.0
C279 C 0.95183 0.47807 0.16805 0.0
C280 C 0.97309 0.48932 0.1494 0.0
C281 C 0.02142 0.47288 0.68086 0.0
C282 C 0.97475 0.51983 0.68352 0.0
C283 C 0.04235 0.5438 0.42742 0.0
C284 C 0.0603 0.55988 0.38718 0.0
C285 C 0.06503 0.58124 0.43724 0.0
C286 C 0.08584 0.59335 0.41705 0.0
C287 C 0.10239 0.58411 0.34764 0.0
C288 C 0.0965 0.56377 0.29127 0.0
C289 C 0.07561 0.55186 0.31062 0.0
C290 C 0.02979 0.56584 0.78371 0.0
C291 C 0.07536 0.51901 0.77869 0.0
O292 O 0.9994 0.51467 0.98709 0.0
O293 O 0.0248 0.48578 0.98859 0.0
O294 O 0.02408 0.4948 0.67321 0.0
O295 O 0.01804 0.46771 0.77724 0.0
O296 O 0.99002 0.52456 0.60906 0.0
O297 O 0.98147 0.51504 0.77938 0.0
O298 O 0.05072 0.52524 0.47457 0.0
O299 O 0.02445 0.55335 0.47524 0.0
O300 O 0.02641 0.54403 0.78962 0.0
O301 O 0.03355 0.57114 0.68773 0.0
O302 O 0.06009 0.51467 0.8537 0.0
O303 O 0.06862 0.52342 0.68245 0.0
H304 H 0.9949 0.45213 0.96706 0.0
H305 H 0.9581 0.43186 0.00284 0.0
H306 H 0.93957 0.48651 0.21984 0.0
H307 H 0.97669 0.50584 0.18759 0.0
H308 H 0.05343 0.58783 0.49677 0.0
H309 H 0.08954 0.60921 0.46004 0.0
H310 H 0.10879 0.55584 0.23803 0.0
H311 H 0.07233 0.53538 0.27157 0.0
C312 C 0.17116 0.04835 0.25726 0.0
C313 C 0.1843 0.02831 0.23183 0.0
C314 C 0.15243 0.04736 0.32839 0.0
C315 C 0.14615 0.02567 0.37432 0.0
C316 C 0.15945 1.00538 0.34933 0.0
C317 C 0.17845 1.00698 0.2794 0.0
C318 C 0.13931 0.06958 0.35418 0.0
C319 C 0.15332 0.98183 0.39501 0.0
C320 C 0.11242 0.0257 0.62994 0.0
C321 C 0.08914 0.02184 0.59877 0.0
C322 C 0.1309 0.02722 0.55806 0.0
C323 C 0.12628 0.02444 0.45128 0.0
C324 C 0.10274 0.02064 0.41896 0.0
C325 C 0.08444 0.01956 0.49292 0.0
C326 C 0.15546 0.03175 0.59678 0.0
C327 C 0.09694 0.01731 0.30631 0.0
H328 H 0.1755 0.06489 0.22074 0.0
H329 H 0.18822 0.99135 0.25896 0.0
H330 H 0.12057 0.06768 0.33297 0.0
H331 H 0.14002 0.07286 0.43858 0.0
H332 H 0.14657 0.08511 0.31347 0.0
H333 H 0.16495 0.96763 0.3663 0.0
H334 H 0.15465 0.98256 0.48038 0.0
H335 H 0.1349 0.97731 0.37591 0.0
H336 H 0.11629 0.0275 0.71149 0.0
H337 H 0.06657 1.01638 0.4681 0.0
H338 H 0.16275 0.04766 0.55933 0.0
H339 H 0.16704 1.01686 0.57593 0.0
H340 H 0.15608 0.03419 0.68184 0.0
H341 H 0.10253 0.03291 0.2615 0.0
H342 H 0.07789 1.01442 0.29337 0.0
H343 H 0.10673 1.00203 0.27533 0.0
C344 C 0.54772 0.16904 0.24648 0.0
C345 C 0.52786 0.18264 0.22319 0.0
C346 C 0.54678 0.15054 0.3187 0.0
C347 C 0.52532 0.14502 0.36852 0.0
C348 C 0.50521 0.15879 0.34582 0.0
C349 C 0.50676 0.1775 0.27438 0.0
C350 C 0.56884 0.13688 0.34169 0.0
C351 C 0.48191 0.15349 0.39583 0.0
C352 C 0.52014 0.08378 0.49218 0.0
C353 C 0.52439 0.08868 0.59669 0.0
C354 C 0.51988 0.10191 0.41736 0.0
C355 C 0.52427 0.12551 0.44725 0.0
C356 C 0.52849 0.13043 0.55284 0.0
C357 C 0.52836 0.1121 0.62571 0.0
C358 C 0.51509 0.09577 0.30608 0.0
C359 C 0.53362 0.15509 0.58895 0.0
H360 H 0.56413 0.17288 0.20771 0.0
H361 H 0.49124 0.18763 0.25595 0.0
H362 H 0.57292 0.13793 0.42532 0.0
H363 H 0.56619 0.1181 0.3227 0.0
H364 H 0.58418 0.14346 0.29747 0.0
H365 H 0.4678 0.16542 0.36871 0.0
H366 H 0.47671 0.13515 0.37881 0.0
H367 H 0.48341 0.15511 0.48092 0.0
H368 H 0.51711 0.06579 0.46881 0.0
H369 H 0.53176 0.11616 0.70609 0.0
H370 H 0.5307 0.0999 0.25828 0.0
H371 H 0.50035 0.10652 0.27629 0.0
H372 H 0.51071 0.07693 0.29587 0.0
H373 H 0.54964 0.16175 0.55018 0.0
H374 H 0.53625 0.15611 0.67382 0.0
H375 H 0.519 0.16694 0.56747 0.0
C376 C 0.36925 0.53939 0.30505 0.0
C377 C 0.36563 0.51953 0.24313 0.0
C378 C 0.388 0.54044 0.37631 0.0
C379 C 0.40333 0.52097 0.38785 0.0
C380 C 0.39936 0.50067 0.32709 0.0
C381 C 0.3808 0.50029 0.25517 0.0
C382 C 0.39171 0.56258 0.43789 0.0
C383 C 0.4148 0.4793 0.33785 0.0
C384 C 0.464 0.52896 0.51315 0.0
C385 C 0.45956 0.52243 0.61571 0.0
C386 C 0.44595 0.52869 0.43814 0.0
C387 C 0.42293 0.52145 0.466 0.0
C388 C 0.41859 0.5145 0.56933 0.0
C389 C 0.4368 0.51534 0.64267 0.0
C390 C 0.45142 0.53666 0.32964 0.0
C391 C 0.39462 0.50619 0.6028 0.0
H392 H 0.35791 0.55447 0.29505 0.0
H393 H 0.37817 0.48488 0.20754 0.0
H394 H 0.39061 0.55871 0.52167 0.0
H395 H 0.40952 0.56964 0.42274 0.0
H396 H 0.3786 0.57633 0.41892 0.0
H397 H 0.40932 0.46482 0.28582 0.0
H398 H 0.43326 0.48394 0.32022 0.0
H399 H 0.41432 0.47287 0.41868 0.0
H400 H 0.48138 0.53495 0.49226 0.0
H401 H 0.43319 0.51033 0.72186 0.0
H402 H 0.44078 0.55237 0.31065 0.0
H403 H 0.44665 0.52278 0.27343 0.0
H404 H 0.47026 0.54106 0.31934 0.0
H405 H 0.38156 0.52037 0.59148 0.0
H406 H 0.39424 0.50075 0.68513 0.0
H407 H 0.38904 0.49112 0.55447 0.0
C408 C 1.00323 0.36609 0.2794 0.0
C409 C 0.02382 0.36053 0.22528 0.0
C410 C 1.00245 0.38517 0.34916 0.0
C411 C 0.02289 0.39883 0.36733 0.0
C412 C 0.04382 0.39294 0.31406 0.0
C413 C 0.04394 0.37415 0.24314 0.0
C414 C 0.97962 0.39098 0.40221 0.0
C415 C 0.06617 0.40651 0.33203 0.0
C416 C 0.01864 0.46001 0.49316 0.0
C417 C 0.02279 0.45479 0.59745 0.0
C418 C 0.01834 0.44205 0.41737 0.0
C419 C 0.02279 0.41837 0.4461 0.0
C420 C 0.02747 0.41326 0.55114 0.0
C421 C 0.02714 0.43137 0.62503 0.0
C422 C 1.01269 0.44835 0.30702 0.0
C423 C 0.03286 0.38856 0.5859 0.0
H424 H 0.98749 0.35599 0.26442 0.0
H425 H 0.05985 0.37011 0.20092 0.0
H426 H 0.98174 0.38965 0.48712 0.0
H427 H 0.97456 0.40934 0.38465 0.0
H428 H 0.96515 0.37916 0.378 0.0
H429 H 0.08101 0.3997 0.28522 0.0
H430 H 0.06345 0.42526 0.31265 0.0
H431 H 0.07107 0.40565 0.41485 0.0
H432 H 1.01498 0.47798 0.47129 0.0
H433 H 0.0304 0.42712 0.70533 0.0
H434 H 0.99588 0.44003 0.28426 0.0
H435 H 0.02642 0.44154 0.25426 0.0
H436 H 1.01115 0.4676 0.29572 0.0
H437 H 0.01774 0.37693 0.56915 0.0
H438 H 0.03678 0.38756 0.66979 0.0
H439 H 0.04813 0.38162 0.54245 0.0
C440 C 0.8784 0.04825 0.19627 0.0
C441 C 0.86558 0.02817 0.2243 0.0
C442 C 0.89676 0.04721 0.12328 0.0
C443 C 0.90304 0.02541 0.07818 0.0
C444 C 0.89024 1.00504 0.10668 0.0
C445 C 0.87154 1.00671 0.17813 0.0
C446 C 0.90944 0.06952 0.0945 0.0
C447 C 0.89661 0.98135 0.06313 0.0
C448 C 0.9346 0.02459 0.81703 0.0
C449 C 0.95828 0.02198 0.84481 0.0
C450 C 0.91667 0.02593 0.89178 0.0
C451 C 0.92226 0.02411 0.99811 0.0
C452 C 0.94617 0.02141 0.0269 0.0
C453 C 0.96385 0.02081 0.95009 0.0
C454 C 0.8917 0.02965 0.85669 0.0
C455 C 0.95315 0.01921 0.13886 0.0
H456 H 0.87399 0.06491 0.23166 0.0
H457 H 0.86208 0.99104 0.20064 0.0
H458 H 0.92802 0.06844 0.1191 0.0
H459 H 0.90932 0.07187 0.00944 0.0
H460 H 0.90145 0.08524 0.1309 0.0
H461 H 0.88571 0.96704 0.09607 0.0
H462 H 0.89438 0.98139 0.97807 0.0
H463 H 0.91534 0.9775 0.07913 0.0
H464 H 0.93 0.02585 0.73602 0.0
H465 H 0.98202 0.01969 0.97254 0.0
H466 H 0.88447 0.04574 0.89296 0.0
H467 H 0.88059 1.01475 0.8818 0.0
H468 H 0.89028 0.03139 0.77149 0.0
H469 H 0.97197 1.0146 0.14798 0.0
H470 H 0.94236 1.00561 0.17759 0.0
H471 H 0.94992 0.03604 0.17935 0.0
C472 C 0.5475 0.8792 0.20129 0.0
C473 C 0.52809 0.86436 0.21585 0.0
C474 C 0.5471 0.89761 0.12851 0.0
C475 C 0.52661 0.90176 0.06927 0.0
C476 C 0.50697 0.88675 0.08326 0.0
C477 C 0.50803 0.86815 0.1554 0.0
C478 C 0.56864 0.9127 0.11525 0.0
C479 C 0.48463 0.89064 0.02337 0.0
C480 C 0.51914 0.96236 0.94238 0.0
C481 C 0.52534 0.95772 0.83957 0.0
C482 C 0.51932 0.94441 0.0179 0.0
C483 C 0.52609 0.92123 0.99034 0.0
C484 C 0.53262 0.91664 0.88664 0.0
C485 C 0.53191 0.93478 0.81284 0.0
C486 C 0.51182 0.95018 0.12676 0.0
C487 C 0.54039 0.89248 0.85331 0.0
H488 H 0.56309 0.87645 0.24762 0.0
H489 H 0.49282 0.85707 0.16724 0.0
H490 H 0.57472 0.91196 0.03391 0.0
H491 H 0.56436 0.93127 0.13246 0.0
H492 H 0.58326 0.90712 0.16628 0.0
H493 H 0.4708 0.87773 0.04384 0.0
H494 H 0.47786 0.90855 0.03859 0.0
H495 H 0.48815 0.88938 0.93932 0.0
H496 H 0.51351 0.97987 0.96316 0.0
H497 H 0.53664 0.93099 0.73348 0.0
H498 H 0.52585 0.94535 0.18208 0.0
H499 H 0.49606 0.93976 0.14736 0.0
H500 H 0.50768 0.96908 0.13667 0.0
H501 H 0.55561 0.88677 0.90032 0.0
H502 H 0.5454 0.89186 0.77046 0.0
H503 H 0.52607 0.87967 0.86662 0.0
C504 C 0.67018 0.55299 0.20456 0.0
C505 C 0.69052 0.53947 0.18712 0.0
C506 C 0.64968 0.55003 0.14522 0.0
C507 C 0.64875 0.53236 0.06849 0.0
C508 C 0.66849 0.51744 0.05554 0.0
C509 C 0.68914 0.52134 0.11369 0.0
C510 C 0.62944 0.56672 0.1611 0.0
C511 C 0.66812 0.49785 0.97733 0.0
C512 C 0.58848 0.51723 0.95184 0.0
C513 C 0.58968 0.52843 0.85555 0.0
C514 C 0.6076 0.51802 0.02155 0.0
C515 C 0.62809 0.531 0.99593 0.0
C516 C 0.62884 0.54305 0.90021 0.0
C517 C 0.60993 0.5412 0.83076 0.0
C518 C 0.60623 0.50422 0.12071 0.0
C519 C 0.64972 0.55787 0.87055 0.0
H520 H 0.67038 0.56649 0.26334 0.0
H521 H 0.70446 0.51067 0.09847 0.0
H522 H 0.62682 0.57731 0.09013 0.0
H523 H 0.61298 0.55688 0.17505 0.0
H524 H 0.6324 0.57885 0.22693 0.0
H525 H 0.68325 0.48576 0.98671 0.0
H526 H 0.65164 0.48762 0.98412 0.0
H527 H 0.66872 0.5053 0.89828 0.0
H528 H 0.57307 0.50695 0.97055 0.0
H529 H 0.61099 0.54983 0.75631 0.0
H530 H 0.60957 0.51578 0.18793 0.0
H531 H 0.62005 0.49052 0.12088 0.0
H532 H 0.5889 0.49562 0.13106 0.0
H533 H 0.65341 0.57092 0.932 0.0
H534 H 0.64698 0.56733 0.79658 0.0
H535 H 0.6655 0.54665 0.86275 0.0
C536 C 0.05275 0.65937 0.24319 0.0
C537 C 0.03367 0.67479 0.25562 0.0
C538 C 0.05223 0.64088 0.17071 0.0
C539 C 0.03202 0.63736 0.10878 0.0
C540 C 1.01269 0.65282 0.12101 0.0
C541 C 1.01381 0.67137 0.19335 0.0
C542 C 0.07346 0.62525 0.15978 0.0
C543 C 0.99066 0.64964 0.0581 0.0
C544 C 0.03804 0.60635 0.84804 0.0
C545 C 0.03052 0.5834 0.8696 0.0
C546 C 0.03887 0.62377 0.92501 0.0
C547 C 0.03166 0.61846 0.02706 0.0
C548 C 0.02413 0.59524 0.04982 0.0
C549 C 0.02379 0.57797 0.97108 0.0
C550 C 0.04758 0.64795 0.89681 0.0
C551 C 1.01622 0.5887 0.15718 0.0
H552 H 0.06827 0.66184 0.29017 0.0
H553 H 0.99882 0.68284 0.20317 0.0
H554 H 0.06852 0.60671 0.17377 0.0
H555 H 0.08037 0.62633 0.07982 0.0
H556 H 0.0877 0.63007 0.21427 0.0
H557 H 0.97675 0.66236 0.07974 0.0
H558 H 0.99467 0.65182 0.97484 0.0
H559 H 0.98376 0.6316 0.06864 0.0
H560 H 0.04346 0.61077 0.77019 0.0
H561 H 0.01802 0.56032 0.98867 0.0
H562 H 0.06261 0.65282 0.94683 0.0
H563 H 0.03355 0.66107 0.91018 0.0
H564 H 0.05324 0.64912 0.81487 0.0
H565 H 0.03076 0.59134 0.21281 0.0
H566 H 1.01031 0.57017 0.16212 0.0
H567 H 1.0016 0.60029 0.18158 0.0
C568 C 0.9528 0.23448 0.27003 0.0
C569 C 0.97709 0.23759 0.27929 0.0
C570 C 0.94218 0.21378 0.30603 0.0
C571 C 0.95655 0.1958 0.34677 0.0
C572 C 0.98003 0.20104 0.37427 0.0
C573 C 0.98977 0.22247 0.34344 0.0
C574 C 0.91648 0.20974 0.28589 0.0
C575 C 0.99596 0.18279 0.42141 0.0
C576 C 0.94582 0.1329 0.42192 0.0
C577 C 0.9525 0.12144 0.33032 0.0
C578 C 0.94377 0.15743 0.42562 0.0
C579 C 0.94948 0.17076 0.33695 0.0
C580 C 0.95326 0.15903 0.24145 0.0
C581 C 0.9542 0.13453 0.23935 0.0
C582 C 0.93742 0.16882 0.52701 0.0
C583 C 0.95953 0.17173 0.14294 0.0
H584 H 0.9428 0.24643 0.2221 0.0
H585 H 1.00849 0.22522 0.35208 0.0
H586 H 0.91428 0.20059 0.2109 0.0
H587 H 0.90866 0.19856 0.34709 0.0
H588 H 0.90678 0.2266 0.282 0.0
H589 H 1.01341 0.19006 0.44215 0.0
H590 H 0.98788 0.17542 0.49202 0.0
H591 H 0.99857 0.16817 0.36599 0.0
H592 H 0.94396 0.12303 0.49293 0.0
H593 H 0.95834 0.12573 0.16736 0.0
H594 H 0.93233 0.18748 0.51793 0.0
H595 H 0.95252 0.16768 0.58078 0.0
H596 H 0.92267 0.15919 0.56361 0.0
H597 H 0.95194 0.18952 0.13822 0.0
H598 H 0.9536 0.16169 0.07423 0.0
H599 H 0.9789 0.17312 0.13829 0.0
C600 C 0.31772 0.98702 0.32881 0.0
C601 C 0.3038 0.97352 0.26265 0.0
C602 C 0.33933 0.97841 0.36352 0.0
C603 C 0.34598 0.95519 0.33759 0.0
C604 C 0.32913 0.9399 0.29406 0.0
C605 C 0.30829 0.94943 0.25403 0.0
C606 C 0.35629 0.99524 0.41377 0.0
C607 C 0.33457 0.91438 0.27604 0.0
C608 C 0.40808 0.95476 0.23816 0.0
C609 C 0.4207 0.95345 0.33044 0.0
C610 C 0.38362 0.95333 0.2377 0.0
C611 C 0.37141 0.94938 0.33189 0.0
C612 C 0.38435 0.94436 0.42247 0.0
C613 C 0.40886 0.94693 0.42128 0.0
C614 C 0.37131 0.95928 0.13798 0.0
C615 C 0.37256 0.93799 0.52294 0.0
H616 H 0.31393 1.00558 0.33677 0.0
H617 H 0.2973 0.9388 0.20433 0.0
H618 H 0.36298 0.98774 0.48685 0.0
H619 H 0.37155 0.9982 0.36206 0.0
H620 H 0.3481 1.01247 0.43115 0.0
H621 H 0.31823 0.90387 0.26986 0.0
H622 H 0.34447 0.9124 0.20279 0.0
H623 H 0.34554 0.90726 0.33954 0.0
H624 H 0.41721 0.95885 0.16691 0.0
H625 H 0.41839 0.94544 0.49334 0.0
H626 H 0.36756 0.97836 0.13765 0.0
H627 H 0.35466 0.9496 0.12837 0.0
H628 H 0.38253 0.95545 0.06989 0.0
H629 H 0.37335 0.95314 0.5766 0.0
H630 H 0.38216 0.92336 0.56053 0.0
H631 H 0.35399 0.93271 0.5125 0.0
C632 C 0.48495 0.30035 0.34399 0.0
C633 C 0.47053 0.29959 0.2563 0.0
C634 C 0.48587 0.32081 0.40421 0.0
C635 C 0.47205 0.34027 0.37446 0.0
C636 C 0.45322 0.33681 0.305 0.0
C637 C 0.45212 0.31582 0.24888 0.0
C638 C 0.50505 0.32323 0.48352 0.0
C639 C 0.43727 0.35669 0.27414 0.0
C640 C 0.48444 0.40248 0.46689 0.0
C641 C 0.50011 0.41026 0.39042 0.0
C642 C 0.47533 0.37955 0.46462 0.0
C643 C 0.48215 0.36419 0.38425 0.0
C644 C 0.49838 0.37198 0.30834 0.0
C645 C 0.50699 0.39482 0.31258 0.0
C646 C 0.45873 0.37178 0.5486 0.0
C647 C 0.506 0.35694 0.21834 0.0
H648 H 0.4985 0.28721 0.35395 0.0
H649 H 0.44005 0.31454 0.18442 0.0
H650 H 0.5209 0.33068 0.44601 0.0
H651 H 0.49972 0.33524 0.54669 0.0
H652 H 0.50979 0.30593 0.51689 0.0
H653 H 0.42043 0.35002 0.2425 0.0
H654 H 0.43353 0.36844 0.34033 0.0
H655 H 0.446 0.36724 0.21317 0.0
H656 H 0.47951 0.41421 0.52909 0.0
H657 H 0.51891 0.40078 0.25309 0.0
H658 H 0.44359 0.36207 0.51605 0.0
H659 H 0.45205 0.38682 0.59451 0.0
H660 H 0.46803 0.35963 0.60136 0.0
H661 H 0.5228 0.36311 0.18439 0.0
H662 H 0.49243 0.3581 0.15742 0.0
H663 H 0.50837 0.33835 0.24021 0.0
C664 C 0.23993 0.59084 0.28372 0.0
C665 C 0.24269 0.56651 0.29272 0.0
C666 C 0.21939 0.60174 0.31987 0.0
C667 C 0.20119 0.58762 0.36056 0.0
C668 C 0.20604 0.56403 0.38748 0.0
C669 C 0.2273 0.55397 0.3563 0.0
C670 C 0.21575 0.62752 0.30015 0.0
C671 C 0.18753 0.54834 0.43432 0.0
C672 C 0.1385 0.59947 0.43625 0.0
C673 C 0.1269 0.59305 0.34468 0.0
C674 C 0.16307 0.60106 0.43978 0.0
C675 C 0.17627 0.59511 0.35103 0.0
C676 C 0.16447 0.59156 0.25561 0.0
C677 C 0.13995 0.59118 0.25357 0.0
C678 C 0.1746 0.60713 0.54113 0.0
C679 C 0.17709 0.58485 0.15742 0.0
H680 H 0.25206 0.60071 0.23607 0.0
H681 H 0.22975 0.5352 0.36454 0.0
H682 H 0.20663 0.62993 0.22526 0.0
H683 H 0.20471 0.63546 0.36154 0.0
H684 H 0.23276 0.63696 0.29629 0.0
H685 H 0.19454 0.53079 0.45505 0.0
H686 H 0.18019 0.55649 0.50488 0.0
H687 H 0.17292 0.54595 0.37867 0.0
H688 H 0.12869 0.60146 0.50738 0.0
H689 H 0.13107 0.58727 0.18158 0.0
H690 H 0.1933 0.61208 0.53174 0.0
H691 H 0.17341 0.59194 0.59436 0.0
H692 H 0.16514 0.62189 0.57851 0.0
H693 H 0.19474 0.59273 0.15135 0.0
H694 H 0.16688 0.59011 0.08813 0.0
H695 H 0.17887 0.56549 0.15549 0.0
C696 C 0.99092 0.79212 0.11796 0.0
C697 C 0.97605 0.79126 0.20424 0.0
C698 C 0.99184 0.81251 0.05737 0.0
C699 C 0.97761 0.83181 0.08549 0.0
C700 C 0.95849 0.82818 0.15328 0.0
C701 C 0.95734 0.80719 0.20935 0.0
C702 C 1.01126 0.81509 0.97923 0.0
C703 C 0.94212 0.84788 0.18229 0.0
C704 C 1.0113 0.88733 0.14466 0.0
C705 C 1.00413 0.90235 0.06578 0.0
C706 C 1.00318 0.8643 0.15026 0.0
C707 C 0.98723 0.85589 0.07455 0.0
C708 C 0.98016 0.87082 0.99313 0.0
C709 C 0.98873 0.89393 0.9896 0.0
C710 C 1.01099 0.84975 0.24146 0.0
C711 C 0.96391 0.86238 0.90909 0.0
H712 H 1.00471 0.77917 0.10966 0.0
H713 H 0.94496 0.8058 0.27266 0.0
H714 H 1.00591 0.82683 0.91513 0.0
H715 H 0.02682 0.82296 0.01737 0.0
H716 H 1.01646 0.7978 0.94706 0.0
H717 H 0.92535 0.84105 0.21399 0.0
H718 H 0.95058 0.85883 0.24262 0.0
H719 H 0.93829 0.85928 0.11511 0.0
H720 H 0.02299 0.89378 0.204 0.0
H721 H 0.98359 0.90532 0.92654 0.0
H722 H 1.01349 0.83109 0.22132 0.0
H723 H 0.99744 0.85109 0.30255 0.0
H724 H 0.02774 0.85626 0.27451 0.0
H725 H 0.97393 0.85114 0.85486 0.0
H726 H 0.95624 0.8772 0.86493 0.0
H727 H 0.94945 0.85158 0.94092 0.0
C728 C 0.74809 0.98401 0.10791 0.0
C729 C 0.74913 0.96965 0.19574 0.0
C730 C 0.72754 0.98469 0.04831 0.0
C731 C 0.70825 0.97069 0.07883 0.0
C732 C 0.712 0.95194 0.14845 0.0
C733 C 0.73309 0.95109 0.20388 0.0
C734 C 0.72481 1.0038 0.96886 0.0
C735 C 0.69232 0.93583 0.18027 0.0
C736 C 0.6535 1.00528 0.14145 0.0
C737 C 0.63805 0.99829 0.06387 0.0
C738 C 0.6764 0.99677 0.14548 0.0
C739 C 0.68423 0.98056 0.06961 0.0
C740 C 0.66884 0.9736 0.9896 0.0
C741 C 0.64586 0.9826 0.98754 0.0
C742 C 0.69147 1.00452 0.2351 0.0
C743 C 0.67665 0.95697 0.90579 0.0
H744 H 0.76108 0.99769 0.09736 0.0
H745 H 0.73458 0.93906 0.26844 0.0
H746 H 0.71279 0.99833 0.90609 0.0
H747 H 0.71725 0.01959 0.00642 0.0
H748 H 0.74202 1.00871 0.93495 0.0
H749 H 0.69921 0.91904 0.2115 0.0
H750 H 0.68187 0.94446 0.24184 0.0
H751 H 0.68043 0.93201 0.11471 0.0
H752 H 0.64753 0.01721 0.20082 0.0
H753 H 0.63413 0.97759 0.92555 0.0
H754 H 0.70999 1.00713 0.21259 0.0
H755 H 0.69059 0.99088 0.29586 0.0
H756 H 0.68516 0.02121 0.26948 0.0
H757 H 0.68894 0.9662 0.85337 0.0
H758 H 0.66164 0.95037 0.85948 0.0
H759 H 0.68621 0.94178 0.93866 0.0
C760 C 0.45388 0.7397 0.18353 0.0
C761 C 0.47818 0.74279 0.17465 0.0
C762 C 0.44328 0.71903 0.14716 0.0
C763 C 0.4577 0.70103 0.10676 0.0
C764 C 0.48122 0.70624 0.0798 0.0
C765 C 0.49094 0.72766 0.11078 0.0
C766 C 0.41755 0.71502 0.16657 0.0
C767 C 0.49722 0.68796 0.03326 0.0
C768 C 0.45542 0.63986 0.21466 0.0
C769 C 0.45397 0.62673 0.12376 0.0
C770 C 0.45429 0.66434 0.21238 0.0
C771 C 0.45062 0.676 0.11667 0.0
C772 C 0.44514 0.66259 0.02795 0.0
C773 C 0.44736 0.63808 0.03188 0.0
C774 C 0.46031 0.67711 0.31099 0.0
C775 C 0.43888 0.67389 0.92633 0.0
H776 H 0.44384 0.75166 0.2313 0.0
H777 H 0.50967 0.7304 0.10251 0.0
H778 H 0.40982 0.70381 0.10529 0.0
H779 H 0.41519 0.70594 0.24163 0.0
H780 H 0.40786 0.7319 0.16993 0.0
H781 H 0.51466 0.69524 0.01242 0.0
H782 H 0.49984 0.67342 0.08911 0.0
H783 H 0.4892 0.68045 0.96283 0.0
H784 H 0.45949 0.63113 0.28683 0.0
H785 H 0.44568 0.62816 0.96091 0.0
H786 H 0.45257 0.69484 0.31546 0.0
H787 H 0.47966 0.67863 0.31611 0.0
H788 H 0.45435 0.66705 0.37961 0.0
H789 H 0.43368 0.69254 0.93515 0.0
H790 H 0.42423 0.66417 0.88948 0.0
H791 H 0.45406 0.67281 0.87289 0.0
C792 C 0.81898 0.48485 0.11227 0.0
C793 C 0.80484 0.472 0.1801 0.0
C794 C 0.84016 0.47544 0.07647 0.0
C795 C 0.84631 0.45223 0.10459 0.0
C796 C 0.82924 0.43761 0.15079 0.0
C797 C 0.80879 0.44787 0.1912 0.0
C798 C 0.85735 0.4915 0.02285 0.0
C799 C 0.83404 0.41203 0.17065 0.0
C800 C 0.90932 0.44208 0.0262 0.0
C801 C 0.92098 0.44904 0.11686 0.0
C802 C 0.88477 0.44006 0.0236 0.0
C803 C 0.87162 0.4461 0.11239 0.0
C804 C 0.88352 0.45066 0.20668 0.0
C805 C 0.90802 0.45142 0.20799 0.0
C806 C 0.87322 0.43317 0.92334 0.0
C807 C 0.8707 0.45771 0.30393 0.0
H808 H 0.81565 0.50345 0.10247 0.0
H809 H 0.79762 0.43775 0.24224 0.0
H810 H 0.87269 0.49469 0.07372 0.0
H811 H 0.86386 0.48321 0.95102 0.0
H812 H 0.84942 0.50869 0.00261 0.0
H813 H 0.81743 0.40195 0.17657 0.0
H814 H 0.84503 0.40443 0.10822 0.0
H815 H 0.84363 0.41004 0.24461 0.0
H816 H 0.91906 0.43979 0.95506 0.0
H817 H 0.91696 0.4558 0.27928 0.0
H818 H 0.85445 0.42855 0.93306 0.0
H819 H 0.88253 0.41793 0.88906 0.0
H820 H 0.87472 0.4478 0.86726 0.0
H821 H 0.86411 0.4759 0.29462 0.0
H822 H 0.88225 0.45725 0.37288 0.0
H823 H 0.85558 0.44608 0.31922 0.0
C824 C 0.99481 0.20249 0.91728 0.0
C825 C 1.01399 0.2155 0.95456 0.0
C826 C 0.99753 0.17965 0.87745 0.0
C827 C 0.02013 0.16939 0.87232 0.0
C828 C 0.03982 0.18316 0.90195 0.0
C829 C 0.03652 0.20593 0.94353 0.0
C830 C 0.97593 0.16591 0.84761 0.0
C831 C 0.06428 0.17324 0.8961 0.0
C832 C 0.02313 0.10241 0.89872 0.0
C833 C 0.02457 0.09481 0.79564 0.0
C834 C 0.02199 0.12645 0.92434 0.0
C835 C 0.02271 0.14371 0.84535 0.0
C836 C 0.02454 0.13619 0.74111 0.0
C837 C 0.02525 0.11195 0.71755 0.0
C838 C 0.0191 0.13329 0.03627 0.0
C839 C 0.02584 0.15377 0.65429 0.0
H840 H 0.9773 0.20959 0.92666 0.0
H841 H 0.0514 0.21555 0.97377 0.0
H842 H 0.97761 0.15931 0.76741 0.0
H843 H 0.97411 0.15042 0.8988 0.0
H844 H 0.95968 0.17657 0.8533 0.0
H845 H 0.07786 0.18691 0.90853 0.0
H846 H 0.06644 0.15949 0.95594 0.0
H847 H 0.06728 0.16486 0.81989 0.0
H848 H 0.02229 0.08948 0.95993 0.0
H849 H 0.0265 0.10643 0.63767 0.0
H850 H 0.02133 0.11813 0.08917 0.0
H851 H 1.0013 0.14067 0.04811 0.0
H852 H 0.03193 0.14706 0.05787 0.0
H853 H 1.01075 0.16601 0.65806 0.0
H854 H 0.02599 0.14525 0.57714 0.0
H855 H 0.04199 0.16446 0.66255 0.0
C856 C 0.34045 0.99277 0.90435 0.0
C857 C 0.32736 1.01167 0.9441 0.0
C858 C 0.36339 0.99575 0.86606 0.0
C859 C 0.37361 0.0184 0.86395 0.0
C860 C 0.35972 0.03787 0.89524 0.0
C861 C 0.33689 0.03428 0.93579 0.0
C862 C 0.37727 0.97435 0.83469 0.0
C863 C 0.36953 0.0624 0.89192 0.0
C864 C 0.44054 0.02158 0.89268 0.0
C865 C 0.4483 0.02331 0.78993 0.0
C866 C 0.41645 0.02027 0.91747 0.0
C867 C 0.39933 0.02118 0.83799 0.0
C868 C 0.40702 0.02337 0.73411 0.0
C869 C 0.43129 0.02416 0.71135 0.0
C870 C 0.40942 1.01698 0.02895 0.0
C871 C 0.38957 0.02494 0.64684 0.0
H872 H 0.33331 0.9752 0.91035 0.0
H873 H 0.32718 0.04898 0.96718 0.0
H874 H 0.38413 0.97645 0.75512 0.0
H875 H 0.3926 0.97229 0.88659 0.0
H876 H 0.36664 0.95804 0.83802 0.0
H877 H 0.35575 0.07586 0.90477 0.0
H878 H 0.38311 0.06439 0.95264 0.0
H879 H 0.3781 0.06575 0.8164 0.0
H880 H 0.45338 0.0206 0.95419 0.0
H881 H 0.43696 0.02564 0.63172 0.0
H882 H 0.42453 0.01883 0.08241 0.0
H883 H 0.4018 0.99923 0.03911 0.0
H884 H 0.39578 0.02988 0.05126 0.0
H885 H 0.39823 0.02578 0.57006 0.0
H886 H 0.37856 0.04082 0.65692 0.0
H887 H 0.37763 1.00961 0.64807 0.0
C888 C 0.53167 0.33579 0.94463 0.0
C889 C 0.50915 0.32583 0.94226 0.0
C890 C 0.53576 0.35893 0.90857 0.0
C891 C 0.51686 0.37269 0.87028 0.0
C892 C 0.49444 0.36212 0.86208 0.0
C893 C 0.49096 0.33896 0.89694 0.0
C894 C 0.56006 0.36912 0.91739 0.0
C895 C 0.47349 0.3759 0.82485 0.0
C896 C 0.51802 0.43958 0.90586 0.0
C897 C 0.52265 0.4479 0.80574 0.0
C898 C 0.5164 0.41537 0.9275 0.0
C899 C 0.51982 0.39861 0.84787 0.0
C900 C 0.52474 0.40682 0.74663 0.0
C901 C 0.52598 0.43122 0.72673 0.0
C902 C 0.51082 0.40773 0.03616 0.0
C903 C 0.52842 0.38979 0.65894 0.0
H904 H 0.5458 0.32611 0.98083 0.0
H905 H 0.47344 0.33159 0.89517 0.0
H906 H 0.56491 0.37846 0.84534 0.0
H907 H 0.56045 0.38209 0.98119 0.0
H908 H 0.57342 0.35542 0.93337 0.0
H909 H 0.45868 0.36426 0.80305 0.0
H910 H 0.46746 0.38769 0.88765 0.0
H911 H 0.4781 0.38705 0.75774 0.0
H912 H 0.51534 0.45206 0.96787 0.0
H913 H 0.52953 0.43721 0.64884 0.0
H914 H 0.52559 0.39718 0.06667 0.0
H915 H 0.49498 0.39643 0.03674 0.0
H916 H 0.50779 0.42282 0.08878 0.0
H917 H 0.54284 0.3775 0.67825 0.0
H918 H 0.53272 0.39879 0.58525 0.0
H919 H 0.51237 0.37911 0.64746 0.0
C920 C 0.21148 0.50705 0.95837 0.0
C921 C 0.22136 0.52948 0.96744 0.0
C922 C 0.18879 0.50386 0.9161 0.0
C923 C 0.17544 0.52359 0.88357 0.0
C924 C 0.18604 0.54606 0.88659 0.0
C925 C 0.20877 0.54866 0.92751 0.0
C926 C 0.17847 0.47954 0.91279 0.0
C927 C 0.17274 0.56768 0.85351 0.0
C928 C 0.11833 0.51798 0.72742 0.0
C929 C 0.10104 0.51947 0.80471 0.0
C930 C 0.14251 0.51868 0.75176 0.0
C931 C 0.14981 0.52125 0.85593 0.0
C932 C 0.13241 0.5228 0.93412 0.0
C933 C 0.10843 0.52172 0.90778 0.0
C934 C 0.16027 0.51659 0.66585 0.0
C935 C 0.13907 0.52641 0.04584 0.0
H936 H 0.22078 0.4922 0.99079 0.0
H937 H 0.21611 0.56611 0.93559 0.0
H938 H 0.16453 0.478 0.97219 0.0
H939 H 0.17024 0.4762 0.83658 0.0
H940 H 0.19188 0.46582 0.92758 0.0
H941 H 0.18382 0.58369 0.85532 0.0
H942 H 0.16577 0.56541 0.77422 0.0
H943 H 0.15751 0.5704 0.90553 0.0
H944 H 0.11297 0.51612 0.64757 0.0
H945 H 0.09538 0.52315 0.96836 0.0
H946 H 0.15192 0.51611 0.58841 0.0
H947 H 0.17066 0.50032 0.67643 0.0
H948 H 0.17275 0.53149 0.66838 0.0
H949 H 0.12372 0.52519 0.09837 0.0
H950 H 0.1471 0.544 0.05516 0.0
H951 H 0.15229 0.51326 0.07013 0.0
C952 C 0.03482 0.83051 0.5134 0.0
C953 C 1.0128 0.81955 0.51877 0.0
C954 C 0.038 0.854 0.5467 0.0
C955 C 0.01867 0.86711 0.58537 0.0
C956 C 0.99675 0.85562 0.59612 0.0
C957 C 0.99417 0.83214 0.56372 0.0
C958 C 0.06176 0.86523 0.53434 0.0
C959 C 0.97537 0.86864 0.63386 0.0
C960 C 0.02623 0.92597 0.72787 0.0
C961 C 0.02169 0.94253 0.64959 0.0
C962 C 0.02589 0.90155 0.70784 0.0
C963 C 0.02068 0.89315 0.60724 0.0
C964 C 1.01608 0.90978 0.52822 0.0
C965 C 1.01677 0.93406 0.54997 0.0
C966 C 0.03093 0.88467 0.7947 0.0
C967 C 1.01025 0.90189 0.42018 0.0
H968 H 0.04921 0.82127 0.47685 0.0
H969 H 0.97698 0.82405 0.56701 0.0
H970 H 0.06659 0.87508 0.6051 0.0
H971 H 0.07564 0.85209 0.51778 0.0
H972 H 0.0612 0.87796 0.46961 0.0
H973 H 0.96119 0.85647 0.65813 0.0
H974 H 0.97976 0.88034 0.69943 0.0
H975 H 0.96854 0.8798 0.57049 0.0
H976 H 0.03008 0.93206 0.80531 0.0
H977 H 1.01321 0.94644 0.48851 0.0
H978 H 0.04591 0.87322 0.77364 0.0
H979 H 1.01556 0.8731 0.80739 0.0
H980 H 0.03512 0.89382 0.86814 0.0
H981 H 0.02482 0.89106 0.38973 0.0
H982 H 1.00727 0.91684 0.36679 0.0
H983 H 0.9943 0.89075 0.42102 0.0
C984 C 0.71006 0.98975 0.55596 0.0
C985 C 0.7229 1.00809 0.51009 0.0
C986 C 0.68687 0.99292 0.59122 0.0
C987 C 0.67599 1.01518 0.58294 0.0
C988 C 0.68946 0.03425 0.54417 0.0
C989 C 0.71262 0.03047 0.50767 0.0
C990 C 0.67342 0.97179 0.62886 0.0
C991 C 0.67894 0.0584 0.53534 0.0
C992 C 0.60906 1.01559 0.54808 0.0
C993 C 0.60073 0.02024 0.64817 0.0
C994 C 0.63328 1.01416 0.52628 0.0
C995 C 0.65004 0.0178 0.60568 0.0
C996 C 0.6418 0.02267 0.70696 0.0
C997 C 0.6174 0.02373 0.72703 0.0
C998 C 0.64094 1.00859 0.41763 0.0
C999 C 0.65882 0.02654 0.79449 0.0
H1000 H 0.71767 0.97233 0.55779 0.0
H1001 H 0.72208 0.04471 0.47108 0.0
H1002 H 0.66213 0.97629 0.69571 0.0
H1003 H 0.66179 0.96548 0.56606 0.0
H1004 H 0.68529 0.95721 0.65119 0.0
H1005 H 0.69243 0.07194 0.51887 0.0
H1006 H 0.66588 0.05859 0.47189 0.0
H1007 H 0.66961 0.06316 0.6076 0.0
H1008 H 0.5966 1.01279 0.48619 0.0
H1009 H 0.6114 0.02728 0.8049 0.0
H1010 H 0.65251 0.99295 0.41718 0.0
H1011 H 0.65121 0.02352 0.38668 0.0
H1012 H 0.62587 1.00525 0.36533 0.0
H1013 H 0.66961 1.01057 0.80614 0.0
H1014 H 0.6498 0.03082 0.86818 0.0
H1015 H 0.67101 0.04103 0.77489 0.0
C1016 C 0.49559 0.70807 0.53799 0.0
C1017 C 0.5149 0.72075 0.49963 0.0
C1018 C 0.49805 0.68529 0.57871 0.0
C1019 C 0.52052 0.67474 0.58381 0.0
C1020 C 0.54036 0.6882 0.55329 0.0
C1021 C 0.53732 0.71092 0.51078 0.0
C1022 C 0.4763 0.67188 0.60946 0.0
C1023 C 0.5647 0.678 0.55917 0.0
C1024 C 0.52509 0.61736 0.73964 0.0
C1025 C 0.52424 0.60017 0.66181 0.0
C1026 C 0.52458 0.64159 0.71568 0.0
C1027 C 0.52278 0.64905 0.61133 0.0
C1028 C 0.52182 0.63172 0.53266 0.0
C1029 C 0.52276 0.6077 0.55865 0.0
C1030 C 0.52616 0.65924 0.80218 0.0
C1031 C 0.51895 0.63848 0.42065 0.0
H1032 H 0.47816 0.71537 0.52881 0.0
H1033 H 0.5523 0.72029 0.47991 0.0
H1034 H 0.47412 0.65646 0.5581 0.0
H1035 H 0.47805 0.66519 0.68947 0.0
H1036 H 0.46021 0.6828 0.6047 0.0
H1037 H 0.57844 0.69148 0.54604 0.0
H1038 H 0.56762 0.66973 0.63565 0.0
H1039 H 0.56665 0.6641 0.49981 0.0
H1040 H 0.52641 0.61189 0.81955 0.0
H1041 H 0.5218 0.59473 0.49762 0.0
H1042 H 0.51161 0.67207 0.79697 0.0
H1043 H 0.54277 0.66924 0.79496 0.0
H1044 H 0.52566 0.65082 0.87948 0.0
H1045 H 0.50116 0.64586 0.40879 0.0
H1046 H 0.52118 0.62327 0.36799 0.0
H1047 H 0.5318 0.65221 0.39872 0.0
C1048 C 0.83911 0.53283 0.49946 0.0
C1049 C 0.82861 0.51057 0.4937 0.0
C1050 C 0.86181 0.53585 0.54184 0.0
C1051 C 0.87468 0.51611 0.57754 0.0
C1052 C 0.86353 0.4939 0.57818 0.0
C1053 C 0.84064 0.49154 0.53849 0.0
C1054 C 0.87256 0.56 0.54268 0.0
C1055 C 0.87634 0.47225 0.61454 0.0
C1056 C 0.94174 0.51701 0.55427 0.0
C1057 C 0.94908 0.51946 0.65729 0.0
C1058 C 0.91776 0.51613 0.52767 0.0
C1059 C 0.90033 0.51813 0.6055 0.0
C1060 C 0.90759 0.52097 0.70961 0.0
C1061 C 0.93177 0.52139 0.73426 0.0
C1062 C 0.91114 0.51233 0.41606 0.0
C1063 C 0.88981 0.52385 0.79503 0.0
H1064 H 0.83025 0.5477 0.46496 0.0
H1065 H 0.83266 0.47429 0.53645 0.0
H1066 H 0.88094 0.56356 0.61839 0.0
H1067 H 0.88644 0.56104 0.48282 0.0
H1068 H 0.85937 0.57388 0.52693 0.0
H1069 H 0.86511 0.45635 0.61231 0.0
H1070 H 0.89192 0.46919 0.56498 0.0
H1071 H 0.88275 0.47474 0.6946 0.0
H1072 H 0.95482 0.51526 0.49399 0.0
H1073 H 0.93711 0.52349 0.81402 0.0
H1074 H 0.89831 0.52573 0.39055 0.0
H1075 H 0.90264 0.49495 0.4077 0.0
H1076 H 0.92658 0.513 0.36389 0.0
H1077 H 0.8797 0.54022 0.78243 0.0
H1078 H 0.89812 0.52465 0.87251 0.0
H1079 H 0.87708 0.50916 0.79414 0.0
loop_
_geom_bond_atom_site_label_1
_geom_bond_atom_site_label_2
_geom_bond_distance
_geom_bond_site_symmetry_2
_ccdc_geom_bond_type
H0 C1 0.949 . S
C1 H0 0.949 . S
C1 C2 1.395 . S
C1 C3 1.391 . S
C2 C1 1.395 . S
C2 C5 1.390 . S
C3 C1 1.391 . S
C3 C7 1.387 . S
C3 C8 1.491 . S
H4 C5 0.950 . S
C5 C2 1.390 . S
C5 H4 0.950 . S
C5 C6 1.378 . S
C6 C5 1.378 . S
C6 C7 1.409 . S
C7 C3 1.387 . S
C7 C6 1.409 . S
C7 H9 0.951 . S
C8 C3 1.491 . S
C8 C10 1.382 . S
C8 C12 1.404 . S
H9 C7 0.951 . S
C10 C8 1.382 . S
C10 C11 1.390 . S
C10 H15 0.949 . S
C11 C10 1.390 . S
C11 C16 1.399 . S
C12 C8 1.404 . S
C12 H13 0.950 . S
C12 C14 1.375 . S
H13 C12 0.950 . S
C14 C12 1.375 . S
C14 C16 1.382 . S
C14 H18 0.950 . S
H15 C10 0.949 . S
C16 C11 1.399 . S
C16 C14 1.382 . S
C16 H17 0.952 . S
H17 C16 0.952 . S
H18 C14 0.950 . S
H19 C20 0.949 . S
C20 H19 0.949 . S
C20 C21 1.395 . S
C20 C22 1.391 . S
C21 C20 1.395 . S
C21 C24 1.390 1_655 S
C22 C20 1.391 . S
C22 C26 1.387 . S
C22 C27 1.491 . S
H23 C24 0.950 . S
C24 C21 1.390 1_455 S
C24 H23 0.950 . S
C24 C25 1.377 1_455 S
C25 C24 1.377 1_655 S
C25 C26 1.413 . S
C26 C22 1.387 . S
C26 C25 1.413 . S
C26 H28 0.951 . S
C27 C22 1.491 . S
C27 C29 1.382 . S
C27 C31 1.404 . S
H28 C26 0.951 . S
C29 C27 1.382 . S
C29 C30 1.390 . S
C29 H34 0.949 1_655 S
C30 C29 1.390 . S
C30 C35 1.399 . S
C31 C27 1.404 . S
C31 H32 0.950 . S
C31 C33 1.375 . S
H32 C31 0.950 . S
C33 C31 1.375 . S
C33 C35 1.382 . S
C33 H37 0.950 . S
H34 C29 0.949 1_455 S
C35 C30 1.399 . S
C35 C33 1.382 . S
C35 H36 0.952 . S
H36 C35 0.952 . S
H37 C33 0.950 . S
H38 C39 0.949 . S
C39 H38 0.949 . S
C39 C40 1.395 . S
C39 C41 1.391 . S
C40 C39 1.395 . S
C40 C43 1.390 1_565 S
C41 C39 1.391 . S
C41 C45 1.387 . S
C41 C46 1.491 . S
H42 C43 0.950 . S
C43 C40 1.390 1_545 S
C43 H42 0.950 . S
C43 C44 1.377 1_545 S
C44 C43 1.377 1_565 S
C44 C45 1.413 . S
C45 C41 1.387 . S
C45 C44 1.413 . S
C45 H47 0.951 . S
C46 C41 1.491 . S
C46 C48 1.382 . S
C46 C50 1.404 . S
H47 C45 0.951 . S
C48 C46 1.382 . S
C48 C49 1.390 . S
C48 H53 0.949 1_565 S
C49 C48 1.390 . S
C49 C54 1.399 . S
C50 C46 1.404 . S
C50 H51 0.950 . S
C50 C52 1.375 . S
H51 C50 0.950 . S
C52 C50 1.375 . S
C52 C54 1.382 . S
C52 H56 0.950 . S
H53 C48 0.949 1_545 S
C54 C49 1.399 . S
C54 C52 1.382 . S
C54 H55 0.952 . S
H55 C54 0.952 . S
H56 C52 0.950 . S
H57 C58 0.949 . S
C58 H57 0.949 . S
C58 C59 1.395 . S
C58 C60 1.391 . S
C59 C58 1.395 . S
C59 C62 1.390 . S
C60 C58 1.391 . S
C60 C64 1.387 . S
C60 C65 1.491 . S
H61 C62 0.950 . S
C62 C59 1.390 . S
C62 H61 0.950 . S
C62 C63 1.378 . S
C63 C62 1.378 . S
C63 C64 1.409 . S
C64 C60 1.387 . S
C64 C63 1.409 . S
C64 H66 0.951 . S
C65 C60 1.491 . S
C65 C67 1.382 . S
C65 C69 1.404 . S
H66 C64 0.951 . S
C67 C65 1.382 . S
C67 C68 1.390 . S
C67 H72 0.949 . S
C68 C67 1.390 . S
C68 C73 1.399 . S
C69 C65 1.404 . S
C69 H70 0.950 . S
C69 C71 1.375 . S
H70 C69 0.950 . S
C71 C69 1.375 . S
C71 C73 1.382 . S
C71 H75 0.950 . S
H72 C67 0.949 . S
C73 C68 1.399 . S
C73 C71 1.382 . S
C73 H74 0.952 . S
H74 C73 0.952 . S
H75 C71 0.950 . S
H76 C77 0.949 . S
C77 H76 0.949 . S
C77 C78 1.395 . S
C77 C79 1.391 1_554 S
C78 C77 1.395 . S
C78 C81 1.390 1_554 S
C79 C77 1.391 1_556 S
C79 C83 1.387 . S
C79 C84 1.491 . S
H80 C81 0.950 . S
C81 C78 1.390 1_556 S
C81 H80 0.950 . S
C81 C82 1.378 . S
C82 C81 1.378 . S
C82 C83 1.409 . S
C83 C79 1.387 . S
C83 C82 1.409 . S
C83 H85 0.951 . S
C84 C79 1.491 . S
C84 C86 1.382 1_556 S
C84 C88 1.404 . S
H85 C83 0.951 . S
C86 C84 1.382 1_554 S
C86 C87 1.390 . S
C86 H91 0.949 . S
C87 C86 1.390 . S
C87 C92 1.399 1_554 S
C88 C84 1.404 . S
C88 H89 0.950 . S
C88 C90 1.375 . S
H89 C88 0.950 . S
C90 C88 1.375 . S
C90 C92 1.382 . S
C90 H94 0.950 . S
H91 C86 0.949 . S
C92 C87 1.399 1_556 S
C92 C90 1.382 . S
C92 H93 0.952 . S
H93 C92 0.952 . S
H94 C90 0.950 . S
H95 C96 0.949 . S
C96 H95 0.949 . S
C96 C97 1.395 1_655 S
C96 C98 1.391 1_554 S
C97 C96 1.395 1_455 S
C97 C100 1.390 1_554 S
C98 C96 1.391 1_556 S
C98 C102 1.387 . S
C98 C103 1.491 . S
H99 C100 0.950 . S
C100 C97 1.390 1_556 S
C100 H99 0.950 . S
C100 C101 1.377 1_455 S
C101 C100 1.377 1_655 S
C101 C102 1.411 . S
C102 C98 1.387 . S
C102 C101 1.411 . S
C102 H104 0.951 . S
C103 C98 1.491 . S
C103 C105 1.402 1_556 S
C103 C107 1.404 . S
H104 C102 0.951 . S
C105 C103 1.402 1_554 S
C105 C106 1.400 . S
C105 H110 0.920 1_655 S
C106 C105 1.400 . S
C106 C111 1.399 1_554 S
C107 C103 1.404 . S
C107 H108 0.950 . S
C107 C109 1.375 . S
H108 C107 0.950 . S
C109 C107 1.375 . S
C109 C111 1.382 . S
C109 H113 0.950 . S
H110 C105 0.920 1_455 S
C111 C106 1.399 1_556 S
C111 C109 1.382 . S
C111 H112 0.952 . S
H112 C111 0.952 . S
H113 C109 0.950 . S
H114 C115 0.949 . S
C115 H114 0.949 . S
C115 C116 1.395 1_565 S
C115 C117 1.391 1_554 S
C116 C115 1.395 1_545 S
C116 C119 1.390 1_554 S
C117 C115 1.391 1_556 S
C117 C121 1.387 . S
C117 C122 1.491 . S
H118 C119 0.950 . S
C119 C116 1.390 1_556 S
C119 H118 0.950 . S
C119 C120 1.377 1_545 S
C120 C119 1.377 1_565 S
C120 C121 1.411 . S
C121 C117 1.387 . S
C121 C120 1.411 . S
C121 H123 0.951 . S
C122 C117 1.491 . S
C122 C124 1.402 1_556 S
C122 C126 1.404 . S
H123 C121 0.951 . S
C124 C122 1.402 1_554 S
C124 C125 1.400 . S
C124 H129 0.920 1_565 S
C125 C124 1.400 . S
C125 C130 1.399 1_554 S
C126 C122 1.404 . S
C126 H127 0.950 . S
C126 C128 1.375 . S
H127 C126 0.950 . S
C128 C126 1.375 . S
C128 C130 1.382 . S
C128 H132 0.950 . S
H129 C124 0.920 1_545 S
C130 C125 1.399 1_556 S
C130 C128 1.382 . S
C130 H131 0.952 . S
H131 C130 0.952 . S
H132 C128 0.950 . S
H133 C134 0.949 . S
C134 H133 0.949 . S
C134 C135 1.395 . S
C134 C136 1.391 1_554 S
C135 C134 1.395 . S
C135 C138 1.390 1_554 S
C136 C134 1.391 1_556 S
C136 C140 1.387 . S
C136 C141 1.491 . S
H137 C138 0.950 . S
C138 C135 1.390 1_556 S
C138 H137 0.950 . S
C138 C139 1.378 . S
C139 C138 1.378 . S
C139 C140 1.409 . S
C140 C136 1.387 . S
C140 C139 1.409 . S
C140 H142 0.951 . S
C141 C136 1.491 . S
C141 C143 1.382 1_556 S
C141 C145 1.404 . S
H142 C140 0.951 . S
C143 C141 1.382 1_554 S
C143 C144 1.390 . S
C143 H148 0.949 . S
C144 C143 1.390 . S
C144 C149 1.399 1_554 S
C145 C141 1.404 . S
C145 H146 0.950 . S
C145 C147 1.375 . S
H146 C145 0.950 . S
C147 C145 1.375 . S
C147 C149 1.382 . S
C147 H151 0.950 . S
H148 C143 0.949 . S
C149 C144 1.399 1_556 S
C149 C147 1.382 . S
C149 H150 0.952 . S
H150 C149 0.952 . S
H151 C147 0.950 . S
Pr152 C154 2.880 . S
Pr152 O172 2.562 . S
Pr152 O173 2.490 . S
Pr152 O174 2.695 1_565 S
Pr152 O175 2.512 . S
Pr152 O177 2.437 . S
Pr152 O180 2.436 1_455 S
Pr152 O182 2.438 1_565 S
Pr153 C163 2.880 . S
Pr153 O174 2.436 1_655 S
Pr153 O176 2.438 1_545 S
Pr153 O178 2.562 1_655 S
Pr153 O179 2.490 . S
Pr153 O180 2.695 1_545 S
Pr153 O181 2.512 . S
Pr153 O183 2.437 . S
C154 Pr152 2.880 . S
C154 C155 1.491 1_556 S
C154 O172 1.252 . S
C154 O173 1.225 . S
C155 C154 1.491 1_554 S
C155 C156 1.392 . S
C155 C160 1.356 . S
C156 C155 1.392 . S
C156 C157 1.368 . S
C156 H184 0.930 . S
C157 C156 1.368 . S
C157 C158 1.386 . S
C157 H185 0.929 . S
C158 C157 1.386 . S
C158 C159 1.373 . S
C159 C158 1.373 . S
C159 C160 1.409 . S
C159 H186 0.931 1_455 S
C160 C155 1.356 . S
C160 C159 1.409 . S
C160 H187 0.930 1_455 S
C161 O174 1.270 1_565 S
C161 O175 1.248 . S
C162 O176 1.267 . S
C162 O177 1.278 1_655 S
C163 Pr153 2.880 . S
C163 C164 1.491 . S
C163 O178 1.252 1_655 S
C163 O179 1.225 . S
C164 C163 1.491 . S
C164 C165 1.392 . S
C164 C169 1.356 . S
C165 C164 1.392 . S
C165 C166 1.368 . S
C165 H188 0.929 . S
C166 C165 1.368 . S
C166 C167 1.386 . S
C166 H189 0.929 . S
C167 C166 1.386 . S
C167 C168 1.373 . S
C168 C167 1.373 . S
C168 C169 1.409 . S
C168 H190 0.931 1_655 S
C169 C164 1.356 . S
C169 C168 1.409 . S
C169 H191 0.930 1_655 S
C170 O180 1.270 1_545 S
C170 O181 1.248 . S
C171 O182 1.267 . S
C171 O183 1.278 1_455 S
O172 Pr152 2.562 . S
O172 C154 1.252 . S
O173 Pr152 2.490 . S
O173 C154 1.225 . S
O174 Pr152 2.695 1_545 S
O174 Pr153 2.436 1_455 S
O174 C161 1.270 1_545 S
O175 Pr152 2.512 . S
O175 C161 1.248 . S
O176 Pr153 2.438 1_565 S
O176 C162 1.267 . S
O177 Pr152 2.437 . S
O177 C162 1.278 1_455 S
O178 Pr153 2.562 1_455 S
O178 C163 1.252 1_455 S
O179 Pr153 2.490 . S
O179 C163 1.225 . S
O180 Pr152 2.436 1_655 S
O180 Pr153 2.695 1_565 S
O180 C170 1.270 1_565 S
O181 Pr153 2.512 . S
O181 C170 1.248 . S
O182 Pr152 2.438 1_545 S
O182 C171 1.267 . S
O183 Pr153 2.437 . S
O183 C171 1.278 1_655 S
H184 C156 0.930 . S
H185 C157 0.929 . S
H186 C159 0.931 1_655 S
H187 C160 0.930 1_655 S
H188 C165 0.929 . S
H189 C166 0.929 . S
H190 C168 0.931 1_455 S
H191 C169 0.930 1_455 S
Pr192 C194 2.880 . S
Pr192 O212 2.564 1_545 S
Pr192 O213 2.490 . S
Pr192 O214 2.695 . S
Pr192 O215 2.512 . S
Pr192 O217 2.437 . S
Pr192 O220 2.436 1_545 S
Pr192 O222 2.438 . S
Pr193 C203 2.880 . S
Pr193 O214 2.436 1_565 S
Pr193 O216 2.438 . S
Pr193 O218 2.560 1_565 S
Pr193 O219 2.490 . S
Pr193 O220 2.695 . S
Pr193 O221 2.512 . S
Pr193 O223 2.437 . S
C194 Pr192 2.880 . S
C194 C195 1.491 1_556 S
C194 O212 1.258 1_545 S
C194 O213 1.225 . S
C195 C194 1.491 1_554 S
C195 C196 1.392 . S
C195 C200 1.356 . S
C196 C195 1.392 . S
C196 C197 1.368 . S
C196 H224 0.930 . S
C197 C196 1.368 . S
C197 C198 1.386 . S
C197 H225 0.929 . S
C198 C197 1.386 . S
C198 C199 1.373 . S
C199 C198 1.373 . S
C199 C200 1.409 . S
C199 H226 0.931 1_545 S
C200 C195 1.356 . S
C200 C199 1.409 . S
C200 H227 0.930 1_545 S
C201 O214 1.270 . S
C201 O215 1.248 . S
C202 O216 1.267 . S
C202 O217 1.278 1_565 S
C203 Pr193 2.880 . S
C203 C204 1.491 . S
C203 O218 1.248 1_565 S
C203 O219 1.225 . S
C204 C203 1.491 . S
C204 C205 1.392 . S
C204 C209 1.356 . S
C205 C204 1.392 . S
C205 C206 1.368 . S
C205 H228 0.929 . S
C206 C205 1.368 . S
C206 C207 1.386 . S
C206 H229 0.929 . S
C207 C206 1.386 . S
C207 C208 1.373 . S
C208 C207 1.373 . S
C208 C209 1.409 . S
C208 H230 0.931 1_565 S
C209 C204 1.356 . S
C209 C208 1.409 . S
C209 H231 0.930 1_565 S
C210 O220 1.270 . S
C210 O221 1.248 . S
C211 O222 1.267 . S
C211 O223 1.278 1_545 S
O212 Pr192 2.564 1_565 S
O212 C194 1.258 1_565 S
O213 Pr192 2.490 . S
O213 C194 1.225 . S
O214 Pr192 2.695 . S
O214 Pr193 2.436 1_545 S
O214 C201 1.270 . S
O215 Pr192 2.512 . S
O215 C201 1.248 . S
O216 Pr193 2.438 . S
O216 C202 1.267 . S
O217 Pr192 2.437 . S
O217 C202 1.278 1_545 S
O218 Pr193 2.560 1_545 S
O218 C203 1.248 1_545 S
O219 Pr193 2.490 . S
O219 C203 1.225 . S
O220 Pr192 2.436 1_565 S
O220 Pr193 2.695 . S
O220 C210 1.270 . S
O221 Pr193 2.512 . S
O221 C210 1.248 . S
O222 Pr192 2.438 . S
O222 C211 1.267 . S
O223 Pr193 2.437 . S
O223 C211 1.278 1_565 S
H224 C196 0.930 . S
H225 C197 0.929 . S
H226 C199 0.931 1_565 S
H227 C200 0.930 1_565 S
H228 C205 0.929 . S
H229 C206 0.929 . S
H230 C208 0.931 1_545 S
H231 C209 0.930 1_545 S
Pr232 C234 2.880 . S
Pr232 O252 2.562 . S
Pr232 O253 2.490 . S
Pr232 O254 2.695 . S
Pr232 O255 2.512 . S
Pr232 O257 2.437 . S
Pr232 O260 2.436 . S
Pr232 O262 2.438 . S
Pr233 C243 2.880 . S
Pr233 O254 2.436 . S
Pr233 O256 2.438 . S
Pr233 O258 2.562 . S
Pr233 O259 2.490 . S
Pr233 O260 2.695 . S
Pr233 O261 2.512 . S
Pr233 O263 2.437 . S
C234 Pr232 2.880 . S
C234 C235 1.491 1_556 S
C234 O252 1.254 . S
C234 O253 1.225 . S
C235 C234 1.491 1_554 S
C235 C236 1.392 . S
C235 C240 1.356 . S
C236 C235 1.392 . S
C236 C237 1.368 . S
C236 H264 0.933 . S
C237 C236 1.368 . S
C237 C238 1.386 . S
C237 H265 0.929 . S
C238 C237 1.386 . S
C238 C239 1.373 . S
C239 C238 1.373 . S
C239 C240 1.409 . S
C239 H266 0.931 . S
C240 C235 1.356 . S
C240 C239 1.409 . S
C240 H267 0.930 . S
C241 O254 1.270 . S
C241 O255 1.248 . S
C242 O256 1.267 . S
C242 O257 1.278 . S
C243 Pr233 2.880 . S
C243 C244 1.491 . S
C243 O258 1.254 . S
C243 O259 1.225 . S
C244 C243 1.491 . S
C244 C245 1.392 . S
C244 C249 1.356 . S
C245 C244 1.392 . S
C245 C246 1.368 . S
C245 H268 0.929 . S
C246 C245 1.368 . S
C246 C247 1.386 . S
C246 H269 0.929 . S
C247 C246 1.386 . S
C247 C248 1.373 . S
C248 C247 1.373 . S
C248 C249 1.409 . S
C248 H270 0.931 . S
C249 C244 1.356 . S
C249 C248 1.409 . S
C249 H271 0.930 . S
C250 O260 1.270 . S
C250 O261 1.248 . S
C251 O262 1.267 . S
C251 O263 1.278 . S
O252 Pr232 2.562 . S
O252 C234 1.254 . S
O253 Pr232 2.490 . S
O253 C234 1.225 . S
O254 Pr232 2.695 . S
O254 Pr233 2.436 . S
O254 C241 1.270 . S
O255 Pr232 2.512 . S
O255 C241 1.248 . S
O256 Pr233 2.438 . S
O256 C242 1.267 . S
O257 Pr232 2.437 . S
O257 C242 1.278 . S
O258 Pr233 2.562 . S
O258 C243 1.254 . S
O259 Pr233 2.490 . S
O259 C243 1.225 . S
O260 Pr232 2.436 . S
O260 Pr233 2.695 . S
O260 C250 1.270 . S
O261 Pr233 2.512 . S
O261 C250 1.248 . S
O262 Pr232 2.438 . S
O262 C251 1.267 . S
O263 Pr233 2.437 . S
O263 C251 1.278 . S
H264 C236 0.933 . S
H265 C237 0.929 . S
H266 C239 0.931 . S
H267 C240 0.930 . S
H268 C245 0.929 . S
H269 C246 0.929 . S
H270 C248 0.931 . S
H271 C249 0.930 . S
Pr272 C274 2.880 . S
Pr272 O292 2.562 . S
Pr272 O293 2.490 . S
Pr272 O294 2.695 1_655 S
Pr272 O295 2.512 . S
Pr272 O297 2.437 . S
Pr272 O300 2.436 . S
Pr272 O302 2.438 1_655 S
Pr273 C283 2.880 . S
Pr273 O294 2.436 . S
Pr273 O296 2.438 1_455 S
Pr273 O298 2.562 . S
Pr273 O299 2.490 . S
Pr273 O300 2.695 1_455 S
Pr273 O301 2.512 . S
Pr273 O303 2.437 . S
C274 Pr272 2.880 . S
C274 C275 1.491 1_556 S
C274 O292 1.254 . S
C274 O293 1.225 . S
C275 C274 1.491 1_554 S
C275 C276 1.392 . S
C275 C280 1.356 . S
C276 C275 1.392 . S
C276 C277 1.368 . S
C276 H304 0.929 . S
C277 C276 1.368 . S
C277 C278 1.386 . S
C277 H305 0.929 . S
C278 C277 1.386 . S
C278 C279 1.373 . S
C279 C278 1.373 . S
C279 C280 1.409 . S
C279 H306 0.931 . S
C280 C275 1.356 . S
C280 C279 1.409 . S
C280 H307 0.930 . S
C281 O294 1.256 1_655 S
C281 O295 1.273 . S
C282 O296 1.267 . S
C282 O297 1.278 . S
C283 Pr273 2.880 . S
C283 C284 1.491 . S
C283 O298 1.254 . S
C283 O299 1.225 . S
C284 C283 1.491 . S
C284 C285 1.392 . S
C284 C289 1.356 . S
C285 C284 1.392 . S
C285 C286 1.368 . S
C285 H308 0.929 . S
C286 C285 1.368 . S
C286 C287 1.386 . S
C286 H309 0.929 . S
C287 C286 1.386 . S
C287 C288 1.373 . S
C288 C287 1.373 . S
C288 C289 1.409 . S
C288 H310 0.931 . S
C289 C284 1.356 . S
C289 C288 1.409 . S
C289 H311 0.930 . S
C290 O300 1.270 1_455 S
C290 O301 1.248 . S
C291 O302 1.267 . S
C291 O303 1.278 . S
O292 Pr272 2.562 . S
O292 C274 1.254 . S
O293 Pr272 2.490 . S
O293 C274 1.225 . S
O294 Pr272 2.695 1_455 S
O294 Pr273 2.436 . S
O294 C281 1.256 1_455 S
O295 Pr272 2.512 . S
O295 C281 1.273 . S
O296 Pr273 2.438 1_655 S
O296 C282 1.267 . S
O297 Pr272 2.437 . S
O297 C282 1.278 . S
O298 Pr273 2.562 . S
O298 C283 1.254 . S
O299 Pr273 2.490 . S
O299 C283 1.225 . S
O300 Pr272 2.436 . S
O300 Pr273 2.695 1_655 S
O300 C290 1.270 1_655 S
O301 Pr273 2.512 . S
O301 C290 1.248 . S
O302 Pr272 2.438 1_455 S
O302 C291 1.267 . S
O303 Pr273 2.437 . S
O303 C291 1.278 . S
H304 C276 0.929 . S
H305 C277 0.929 . S
H306 C279 0.931 . S
H307 C280 0.930 . S
H308 C285 0.929 . S
H309 C286 0.929 . S
H310 C288 0.931 . S
H311 C289 0.930 . S
C312 C313 1.391 . S
C312 C314 1.394 . S
C312 H328 0.931 . S
C313 C312 1.391 . S
C313 C317 1.376 1_545 S
C314 C312 1.394 . S
C314 C315 1.369 . S
C314 C318 1.531 . S
C315 C314 1.369 . S
C315 C316 1.410 1_545 S
C315 C323 1.503 . S
C316 C315 1.410 1_565 S
C316 C317 1.392 . S
C316 C319 1.511 . S
C317 C313 1.376 1_565 S
C317 C316 1.392 . S
C317 H329 0.929 . S
C318 C314 1.531 . S
C318 H330 0.960 . S
C318 H331 0.962 . S
C318 H332 0.960 . S
C319 C316 1.511 . S
C319 H333 0.961 . S
C319 H334 0.961 . S
C319 H335 0.961 . S
C320 C321 1.370 1_565 S
C320 C322 1.363 . S
C320 H336 0.931 . S
C321 C320 1.370 1_545 S
C321 C325 1.408 . S
C322 C320 1.363 . S
C322 C323 1.370 1_565 S
C322 C326 1.524 . S
C323 C315 1.503 . S
C323 C322 1.370 1_545 S
C323 C324 1.403 . S
C324 C323 1.403 . S
C324 C325 1.404 . S
C324 C327 1.539 . S
C325 C321 1.408 . S
C325 C324 1.404 . S
C325 H337 0.930 . S
C326 C322 1.524 . S
C326 H338 0.956 . S
C326 H339 0.961 . S
C326 H340 0.961 . S
C327 C324 1.539 . S
C327 H341 0.958 . S
C327 H342 0.961 . S
C327 H343 0.960 . S
H328 C312 0.931 . S
H329 C317 0.929 . S
H330 C318 0.960 . S
H331 C318 0.962 . S
H332 C318 0.960 . S
H333 C319 0.961 . S
H334 C319 0.961 . S
H335 C319 0.961 . S
H336 C320 0.931 . S
H337 C325 0.930 . S
H338 C326 0.956 . S
H339 C326 0.961 . S
H340 C326 0.961 . S
H341 C327 0.958 . S
H342 C327 0.961 . S
H343 C327 0.960 . S
C344 C345 1.391 . S
C344 C346 1.394 . S
C344 H360 0.931 . S
C345 C344 1.391 . S
C345 C349 1.376 . S
C346 C344 1.394 . S
C346 C347 1.369 . S
C346 C350 1.531 . S
C347 C346 1.369 . S
C347 C348 1.410 . S
C347 C355 1.503 . S
C348 C347 1.410 . S
C348 C349 1.392 . S
C348 C351 1.511 . S
C349 C345 1.376 . S
C349 C348 1.392 . S
C349 H361 0.929 . S
C350 C346 1.531 . S
C350 H362 0.960 . S
C350 H363 0.962 . S
C350 H364 0.960 . S
C351 C348 1.511 . S
C351 H365 0.961 . S
C351 H366 0.961 . S
C351 H367 0.961 . S
C352 C353 1.370 . S
C352 C354 1.363 . S
C352 H368 0.931 . S
C353 C352 1.370 . S
C353 C357 1.408 . S
C354 C352 1.363 . S
C354 C355 1.370 . S
C354 C358 1.524 . S
C355 C347 1.503 . S
C355 C354 1.370 . S
C355 C356 1.403 . S
C356 C355 1.403 . S
C356 C357 1.404 . S
C356 C359 1.539 . S
C357 C353 1.408 . S
C357 C356 1.404 . S
C357 H369 0.930 . S
C358 C354 1.524 . S
C358 H370 0.956 . S
C358 H371 0.961 . S
C358 H372 0.961 . S
C359 C356 1.539 . S
C359 H373 0.958 . S
C359 H374 0.961 . S
C359 H375 0.960 . S
H360 C344 0.931 . S
H361 C349 0.929 . S
H362 C350 0.960 . S
H363 C350 0.962 . S
H364 C350 0.960 . S
H365 C351 0.961 . S
H366 C351 0.961 . S
H367 C351 0.961 . S
H368 C352 0.931 . S
H369 C357 0.930 . S
H370 C358 0.956 . S
H371 C358 0.961 . S
H372 C358 0.961 . S
H373 C359 0.958 . S
H374 C359 0.961 . S
H375 C359 0.960 . S
C376 C377 1.391 . S
C376 C378 1.394 . S
C376 H392 0.931 . S
C377 C376 1.391 . S
C377 C381 1.376 . S
C378 C376 1.394 . S
C378 C379 1.369 . S
C378 C382 1.531 . S
C379 C378 1.369 . S
C379 C380 1.410 . S
C379 C387 1.503 . S
C380 C379 1.410 . S
C380 C381 1.392 . S
C380 C383 1.511 . S
C381 C377 1.376 . S
C381 C380 1.392 . S
C381 H393 0.929 . S
C382 C378 1.531 . S
C382 H394 0.960 . S
C382 H395 0.962 . S
C382 H396 0.960 . S
C383 C380 1.511 . S
C383 H397 0.961 . S
C383 H398 0.961 . S
C383 H399 0.961 . S
C384 C385 1.370 . S
C384 C386 1.363 . S
C384 H400 0.931 . S
C385 C384 1.370 . S
C385 C389 1.408 . S
C386 C384 1.363 . S
C386 C387 1.370 . S
C386 C390 1.524 . S
C387 C379 1.503 . S
C387 C386 1.370 . S
C387 C388 1.403 . S
C388 C387 1.403 . S
C388 C389 1.404 . S
C388 C391 1.539 . S
C389 C385 1.408 . S
C389 C388 1.404 . S
C389 H401 0.930 . S
C390 C386 1.524 . S
C390 H402 0.956 . S
C390 H403 0.961 . S
C390 H404 0.961 . S
C391 C388 1.539 . S
C391 H405 0.958 . S
C391 H406 0.961 . S
C391 H407 0.960 . S
H392 C376 0.931 . S
H393 C381 0.929 . S
H394 C382 0.960 . S
H395 C382 0.962 . S
H396 C382 0.960 . S
H397 C383 0.961 . S
H398 C383 0.961 . S
H399 C383 0.961 . S
H400 C384 0.931 . S
H401 C389 0.930 . S
H402 C390 0.956 . S
H403 C390 0.961 . S
H404 C390 0.961 . S
H405 C391 0.958 . S
H406 C391 0.961 . S
H407 C391 0.960 . S
C408 C409 1.391 1_655 S
C408 C410 1.394 . S
C408 H424 0.931 . S
C409 C408 1.391 1_455 S
C409 C413 1.376 . S
C410 C408 1.394 . S
C410 C411 1.369 1_655 S
C410 C414 1.531 . S
C411 C410 1.369 1_455 S
C411 C412 1.410 . S
C411 C419 1.503 . S
C412 C411 1.410 . S
C412 C413 1.392 . S
C412 C415 1.511 . S
C413 C409 1.376 . S
C413 C412 1.392 . S
C413 H425 0.929 . S
C414 C410 1.531 . S
C414 H426 0.960 . S
C414 H427 0.962 . S
C414 H428 0.960 . S
C415 C412 1.511 . S
C415 H429 0.961 . S
C415 H430 0.961 . S
C415 H431 0.961 . S
C416 C417 1.370 1_655 S
C416 C418 1.363 . S
C416 H432 0.931 . S
C417 C416 1.370 1_455 S
C417 C421 1.408 . S
C418 C416 1.363 . S
C418 C419 1.370 1_655 S
C418 C422 1.524 . S
C419 C411 1.503 . S
C419 C418 1.370 1_455 S
C419 C420 1.403 . S
C420 C419 1.403 . S
C420 C421 1.404 . S
C420 C423 1.539 . S
C421 C417 1.408 . S
C421 C420 1.404 . S
C421 H433 0.930 . S
C422 C418 1.524 . S
C422 H434 0.956 . S
C422 H435 0.961 . S
C422 H436 0.961 . S
C423 C420 1.539 . S
C423 H437 0.958 . S
C423 H438 0.961 . S
C423 H439 0.960 . S
H424 C408 0.931 . S
H425 C413 0.929 . S
H426 C414 0.960 . S
H427 C414 0.962 . S
H428 C414 0.960 . S
H429 C415 0.961 . S
H430 C415 0.961 . S
H431 C415 0.961 . S
H432 C416 0.931 . S
H433 C421 0.930 . S
H434 C422 0.956 . S
H435 C422 0.961 . S
H436 C422 0.961 . S
H437 C423 0.958 . S
H438 C423 0.961 . S
H439 C423 0.960 . S
C440 C441 1.391 . S
C440 C442 1.394 . S
C440 H456 0.931 . S
C441 C440 1.391 . S
C441 C445 1.376 . S
C442 C440 1.394 . S
C442 C443 1.369 . S
C442 C446 1.531 . S
C443 C442 1.369 . S
C443 C444 1.410 . S
C443 C451 1.503 . S
C444 C443 1.410 . S
C444 C445 1.392 . S
C444 C447 1.511 1_554 S
C445 C441 1.376 . S
C445 C444 1.392 . S
C445 H457 0.929 . S
C446 C442 1.531 . S
C446 H458 0.960 . S
C446 H459 0.962 1_565 S
C446 H460 0.960 . S
C447 C444 1.511 1_556 S
C447 H461 0.961 1_565 S
C447 H462 0.961 1_565 S
C447 H463 0.961 . S
C448 C449 1.370 1_545 S
C448 C450 1.363 1_556 S
C448 H464 0.931 . S
C449 C448 1.370 1_565 S
C449 C453 1.408 . S
C450 C448 1.363 1_554 S
C450 C451 1.370 1_545 S
C450 C454 1.524 . S
C451 C443 1.503 . S
C451 C450 1.370 1_565 S
C451 C452 1.403 . S
C452 C451 1.403 . S
C452 C453 1.404 1_554 S
C452 C455 1.539 . S
C453 C449 1.408 . S
C453 C452 1.404 1_556 S
C453 H465 0.930 . S
C454 C450 1.524 . S
C454 H466 0.956 . S
C454 H467 0.961 . S
C454 H468 0.961 . S
C455 C452 1.539 . S
C455 H469 0.958 . S
C455 H470 0.961 1_554 S
C455 H471 0.960 . S
H456 C440 0.931 . S
H457 C445 0.929 . S
H458 C446 0.960 . S
H459 C446 0.962 1_545 S
H460 C446 0.960 . S
H461 C447 0.961 1_545 S
H462 C447 0.961 1_545 S
H463 C447 0.961 . S
H464 C448 0.931 . S
H465 C453 0.930 . S
H466 C454 0.956 . S
H467 C454 0.961 . S
H468 C454 0.961 . S
H469 C455 0.958 . S
H470 C455 0.961 1_556 S
H471 C455 0.960 . S
C472 C473 1.391 . S
C472 C474 1.394 . S
C472 H488 0.931 . S
C473 C472 1.391 . S
C473 C477 1.376 . S
C474 C472 1.394 . S
C474 C475 1.369 . S
C474 C478 1.531 . S
C475 C474 1.369 . S
C475 C476 1.410 . S
C475 C483 1.503 . S
C476 C475 1.410 . S
C476 C477 1.392 . S
C476 C479 1.511 . S
C477 C473 1.376 . S
C477 C476 1.392 . S
C477 H489 0.929 . S
C478 C474 1.531 . S
C478 H490 0.960 . S
C478 H491 0.962 . S
C478 H492 0.960 . S
C479 C476 1.511 . S
C479 H493 0.961 . S
C479 H494 0.961 . S
C479 H495 0.961 . S
C480 C481 1.370 1_554 S
C480 C482 1.363 . S
C480 H496 0.931 . S
C481 C480 1.370 1_556 S
C481 C485 1.408 . S
C482 C480 1.363 . S
C482 C483 1.370 . S
C482 C486 1.524 . S
C483 C475 1.503 . S
C483 C482 1.370 . S
C483 C484 1.403 1_554 S
C484 C483 1.403 1_556 S
C484 C485 1.404 . S
C484 C487 1.539 . S
C485 C481 1.408 . S
C485 C484 1.404 . S
C485 H497 0.930 . S
C486 C482 1.524 . S
C486 H498 0.956 . S
C486 H499 0.961 . S
C486 H500 0.961 . S
C487 C484 1.539 . S
C487 H501 0.958 . S
C487 H502 0.961 . S
C487 H503 0.960 . S
H488 C472 0.931 . S
H489 C477 0.929 . S
H490 C478 0.960 . S
H491 C478 0.962 . S
H492 C478 0.960 . S
H493 C479 0.961 . S
H494 C479 0.961 . S
H495 C479 0.961 . S
H496 C480 0.931 . S
H497 C485 0.930 . S
H498 C486 0.956 . S
H499 C486 0.961 . S
H500 C486 0.961 . S
H501 C487 0.958 . S
H502 C487 0.961 . S
H503 C487 0.960 . S
C504 C505 1.391 . S
C504 C506 1.394 . S
C504 H520 0.931 . S
C505 C504 1.391 . S
C505 C509 1.376 . S
C506 C504 1.394 . S
C506 C507 1.369 . S
C506 C510 1.531 . S
C507 C506 1.369 . S
C507 C508 1.410 . S
C507 C515 1.503 . S
C508 C507 1.410 . S
C508 C509 1.392 . S
C508 C511 1.501 1_554 S
C509 C505 1.376 . S
C509 C508 1.392 . S
C509 H521 0.929 . S
C510 C506 1.531 . S
C510 H522 0.960 . S
C510 H523 0.962 . S
C510 H524 0.960 . S
C511 C508 1.501 1_556 S
C511 H525 0.961 . S
C511 H526 0.966 . S
C511 H527 0.965 . S
C512 C513 1.370 . S
C512 C514 1.363 1_556 S
C512 H528 0.931 . S
C513 C512 1.370 . S
C513 C517 1.408 . S
C514 C512 1.363 1_554 S
C514 C515 1.370 . S
C514 C518 1.524 . S
C515 C507 1.503 . S
C515 C514 1.370 . S
C515 C516 1.403 1_554 S
C516 C515 1.403 1_556 S
C516 C517 1.404 . S
C516 C519 1.539 1_556 S
C517 C513 1.408 . S
C517 C516 1.404 . S
C517 H529 0.930 . S
C518 C514 1.524 . S
C518 H530 0.956 . S
C518 H531 0.961 . S
C518 H532 0.961 . S
C519 C516 1.539 1_554 S
C519 H533 0.958 . S
C519 H534 0.961 1_554 S
C519 H535 0.960 . S
H520 C504 0.931 . S
H521 C509 0.929 . S
H522 C510 0.960 . S
H523 C510 0.962 . S
H524 C510 0.960 . S
H525 C511 0.961 . S
H526 C511 0.966 . S
H527 C511 0.965 . S
H528 C512 0.931 . S
H529 C517 0.930 . S
H530 C518 0.956 . S
H531 C518 0.961 . S
H532 C518 0.961 . S
H533 C519 0.958 . S
H534 C519 0.961 1_556 S
H535 C519 0.960 . S
C536 C537 1.391 1_455 S
C536 C538 1.394 . S
C536 H552 0.931 . S
C537 C536 1.391 1_655 S
C537 C541 1.376 . S
C538 C536 1.394 . S
C538 C539 1.369 1_455 S
C538 C542 1.531 . S
C539 C538 1.369 1_655 S
C539 C540 1.410 . S
C539 C547 1.503 . S
C540 C539 1.410 . S
C540 C541 1.392 . S
C540 C543 1.511 . S
C541 C537 1.376 . S
C541 C540 1.392 . S
C541 H553 0.929 . S
C542 C538 1.531 . S
C542 H554 0.960 . S
C542 H555 0.962 . S
C542 H556 0.960 . S
C543 C540 1.511 . S
C543 H557 0.961 . S
C543 H558 0.961 1_554 S
C543 H559 0.961 . S
C544 C545 1.370 1_455 S
C544 C546 1.363 . S
C544 H560 0.931 . S
C545 C544 1.370 1_655 S
C545 C549 1.408 . S
C546 C544 1.363 . S
C546 C547 1.370 1_456 S
C546 C550 1.524 . S
C547 C539 1.503 . S
C547 C546 1.370 1_654 S
C547 C548 1.403 . S
C548 C547 1.403 . S
C548 C549 1.404 1_554 S
C548 C551 1.539 . S
C549 C545 1.408 . S
C549 C548 1.404 1_556 S
C549 H561 0.930 . S
C550 C546 1.524 . S
C550 H562 0.956 1_556 S
C550 H563 0.961 . S
C550 H564 0.961 . S
C551 C548 1.539 . S
C551 H565 0.958 . S
C551 H566 0.961 . S
C551 H567 0.960 . S
H552 C536 0.931 . S
H553 C541 0.929 . S
H554 C542 0.960 . S
H555 C542 0.962 . S
H556 C542 0.960 . S
H557 C543 0.961 . S
H558 C543 0.961 1_556 S
H559 C543 0.961 . S
H560 C544 0.931 . S
H561 C549 0.930 . S
H562 C550 0.956 1_554 S
H563 C550 0.961 . S
H564 C550 0.961 . S
H565 C551 0.958 . S
H566 C551 0.961 . S
H567 C551 0.960 . S
C568 C569 1.391 1_655 S
C568 C570 1.394 . S
C568 H584 0.931 . S
C569 C568 1.391 1_455 S
C569 C573 1.376 . S
C570 C568 1.394 . S
C570 C571 1.369 . S
C570 C574 1.531 . S
C571 C570 1.369 . S
C571 C572 1.410 1_655 S
C571 C579 1.503 . S
C572 C571 1.410 1_455 S
C572 C573 1.392 . S
C572 C575 1.511 . S
C573 C569 1.376 . S
C573 C572 1.392 . S
C573 H585 0.929 . S
C574 C570 1.531 . S
C574 H586 0.960 . S
C574 H587 0.962 . S
C574 H588 0.960 . S
C575 C572 1.511 . S
C575 H589 0.961 . S
C575 H590 0.961 . S
C575 H591 0.961 . S
C576 C577 1.370 . S
C576 C578 1.363 . S
C576 H592 0.931 . S
C577 C576 1.370 . S
C577 C581 1.408 . S
C578 C576 1.363 . S
C578 C579 1.370 . S
C578 C582 1.524 . S
C579 C571 1.503 . S
C579 C578 1.370 . S
C579 C580 1.403 . S
C580 C579 1.403 . S
C580 C581 1.404 . S
C580 C583 1.539 . S
C581 C577 1.408 . S
C581 C580 1.404 . S
C581 H593 0.930 . S
C582 C578 1.524 . S
C582 H594 0.956 . S
C582 H595 0.961 . S
C582 H596 0.961 . S
C583 C580 1.539 . S
C583 H597 0.958 . S
C583 H598 0.961 1_655 S
C583 H599 0.960 1_655 S
H584 C568 0.931 . S
H585 C573 0.929 . S
H586 C574 0.960 . S
H587 C574 0.962 . S
H588 C574 0.960 . S
H589 C575 0.961 . S
H590 C575 0.961 . S
H591 C575 0.961 . S
H592 C576 0.931 . S
H593 C581 0.930 . S
H594 C582 0.956 . S
H595 C582 0.961 . S
H596 C582 0.961 . S
H597 C583 0.958 . S
H598 C583 0.961 1_455 S
H599 C583 0.960 1_455 S
C600 C601 1.422 . S
C600 C602 1.394 . S
C600 H616 0.931 . S
C601 C600 1.422 . S
C601 C605 1.333 1_545 S
C602 C600 1.394 . S
C602 C603 1.369 1_545 S
C602 C606 1.531 . S
C603 C602 1.369 1_565 S
C603 C604 1.410 . S
C603 C611 1.503 . S
C604 C603 1.410 . S
C604 C605 1.392 . S
C604 C607 1.511 . S
C605 C601 1.333 1_565 S
C605 C604 1.392 . S
C605 H617 0.929 . S
C606 C602 1.531 . S
C606 H618 0.960 . S
C606 H619 0.962 . S
C606 H620 0.960 . S
C607 C604 1.511 . S
C607 H621 0.961 . S
C607 H622 0.961 . S
C607 H623 0.961 . S
C608 C609 1.370 . S
C608 C610 1.363 . S
C608 H624 0.931 . S
C609 C608 1.370 . S
C609 C613 1.408 . S
C610 C608 1.363 . S
C610 C611 1.370 . S
C610 C614 1.524 . S
C611 C603 1.503 . S
C611 C610 1.370 . S
C611 C612 1.403 . S
C612 C611 1.403 . S
C612 C613 1.404 . S
C612 C615 1.539 . S
C613 C609 1.408 . S
C613 C612 1.404 . S
C613 H625 0.930 . S
C614 C610 1.524 . S
C614 H626 0.956 1_565 S
C614 H627 0.961 . S
C614 H628 0.961 . S
C615 C612 1.539 . S
C615 H629 0.958 . S
C615 H630 0.961 . S
C615 H631 0.960 . S
H616 C600 0.931 . S
H617 C605 0.929 . S
H618 C606 0.960 . S
H619 C606 0.962 . S
H620 C606 0.960 . S
H621 C607 0.961 . S
H622 C607 0.961 . S
H623 C607 0.961 . S
H624 C608 0.931 . S
H625 C613 0.930 . S
H626 C614 0.956 1_545 S
H627 C614 0.961 . S
H628 C614 0.961 . S
H629 C615 0.958 . S
H630 C615 0.961 . S
H631 C615 0.960 . S
C632 C633 1.391 . S
C632 C634 1.394 . S
C632 H648 0.931 . S
C633 C632 1.391 . S
C633 C637 1.376 . S
C634 C632 1.394 . S
C634 C635 1.369 . S
C634 C638 1.531 . S
C635 C634 1.369 . S
C635 C636 1.410 . S
C635 C643 1.503 . S
C636 C635 1.410 . S
C636 C637 1.392 . S
C636 C639 1.511 . S
C637 C633 1.376 . S
C637 C636 1.392 . S
C637 H649 0.929 . S
C638 C634 1.531 . S
C638 H650 0.960 . S
C638 H651 0.962 . S
C638 H652 0.960 . S
C639 C636 1.511 . S
C639 H653 0.961 . S
C639 H654 0.961 . S
C639 H655 0.961 . S
C640 C641 1.370 . S
C640 C642 1.363 . S
C640 H656 0.931 . S
C641 C640 1.370 . S
C641 C645 1.408 . S
C642 C640 1.363 . S
C642 C643 1.370 . S
C642 C646 1.524 . S
C643 C635 1.503 . S
C643 C642 1.370 . S
C643 C644 1.403 . S
C644 C643 1.403 . S
C644 C645 1.404 . S
C644 C647 1.539 . S
C645 C641 1.408 . S
C645 C644 1.404 . S
C645 H657 0.930 . S
C646 C642 1.524 . S
C646 H658 0.956 . S
C646 H659 0.961 . S
C646 H660 0.961 . S
C647 C644 1.539 . S
C647 H661 0.958 . S
C647 H662 0.961 . S
C647 H663 0.960 . S
H648 C632 0.931 . S
H649 C637 0.929 . S
H650 C638 0.960 . S
H651 C638 0.962 . S
H652 C638 0.960 . S
H653 C639 0.961 . S
H654 C639 0.961 . S
H655 C639 0.961 . S
H656 C640 0.931 . S
H657 C645 0.930 . S
H658 C646 0.956 . S
H659 C646 0.961 . S
H660 C646 0.961 . S
H661 C647 0.958 . S
H662 C647 0.961 . S
H663 C647 0.960 . S
C664 C665 1.391 . S
C664 C666 1.394 . S
C664 H680 0.931 . S
C665 C664 1.391 . S
C665 C669 1.376 . S
C666 C664 1.394 . S
C666 C667 1.369 . S
C666 C670 1.531 . S
C667 C666 1.369 . S
C667 C668 1.410 . S
C667 C675 1.503 . S
C668 C667 1.410 . S
C668 C669 1.392 . S
C668 C671 1.511 . S
C669 C665 1.376 . S
C669 C668 1.392 . S
C669 H681 0.929 . S
C670 C666 1.531 . S
C670 H682 0.960 . S
C670 H683 0.962 . S
C670 H684 0.960 . S
C671 C668 1.511 . S
C671 H685 0.961 . S
C671 H686 0.961 . S
C671 H687 0.961 . S
C672 C673 1.370 . S
C672 C674 1.363 . S
C672 H688 0.931 . S
C673 C672 1.370 . S
C673 C677 1.408 . S
C674 C672 1.363 . S
C674 C675 1.370 . S
C674 C678 1.524 . S
C675 C667 1.503 . S
C675 C674 1.370 . S
C675 C676 1.403 . S
C676 C675 1.403 . S
C676 C677 1.404 . S
C676 C679 1.539 . S
C677 C673 1.408 . S
C677 C676 1.404 . S
C677 H689 0.930 . S
C678 C674 1.524 . S
C678 H690 0.956 . S
C678 H691 0.961 . S
C678 H692 0.961 . S
C679 C676 1.539 . S
C679 H693 0.958 . S
C679 H694 0.961 . S
C679 H695 0.960 . S
H680 C664 0.931 . S
H681 C669 0.929 . S
H682 C670 0.960 . S
H683 C670 0.962 . S
H684 C670 0.960 . S
H685 C671 0.961 . S
H686 C671 0.961 . S
H687 C671 0.961 . S
H688 C672 0.931 . S
H689 C677 0.930 . S
H690 C678 0.956 . S
H691 C678 0.961 . S
H692 C678 0.961 . S
H693 C679 0.958 . S
H694 C679 0.961 . S
H695 C679 0.960 . S
C696 C697 1.391 1_455 S
C696 C698 1.394 . S
C696 H712 0.931 . S
C697 C696 1.391 1_655 S
C697 C701 1.376 . S
C698 C696 1.394 . S
C698 C699 1.369 . S
C698 C702 1.531 . S
C699 C698 1.369 . S
C699 C700 1.410 1_455 S
C699 C707 1.503 . S
C700 C699 1.410 1_655 S
C700 C701 1.392 . S
C700 C703 1.511 . S
C701 C697 1.376 . S
C701 C700 1.392 . S
C701 H713 0.929 . S
C702 C698 1.531 . S
C702 H714 0.960 . S
C702 H715 0.962 . S
C702 H716 0.960 . S
C703 C700 1.511 . S
C703 H717 0.961 . S
C703 H718 0.961 . S
C703 H719 0.961 . S
C704 C705 1.370 . S
C704 C706 1.363 . S
C704 H720 0.931 . S
C705 C704 1.370 . S
C705 C709 1.408 . S
C706 C704 1.363 . S
C706 C707 1.370 . S
C706 C710 1.524 . S
C707 C699 1.503 . S
C707 C706 1.370 . S
C707 C708 1.403 . S
C708 C707 1.403 . S
C708 C709 1.404 . S
C708 C711 1.539 . S
C709 C705 1.408 . S
C709 C708 1.404 . S
C709 H721 0.930 1_554 S
C710 C706 1.524 . S
C710 H722 0.956 . S
C710 H723 0.961 . S
C710 H724 0.961 . S
C711 C708 1.539 . S
C711 H725 0.958 1_554 S
C711 H726 0.961 1_554 S
C711 H727 0.960 . S
H712 C696 0.931 . S
H713 C701 0.929 . S
H714 C702 0.960 . S
H715 C702 0.962 . S
H716 C702 0.960 . S
H717 C703 0.961 . S
H718 C703 0.961 . S
H719 C703 0.961 . S
H720 C704 0.931 . S
H721 C709 0.930 1_556 S
H722 C710 0.956 . S
H723 C710 0.961 . S
H724 C710 0.961 . S
H725 C711 0.958 1_556 S
H726 C711 0.961 1_556 S
H727 C711 0.960 . S
C728 C729 1.391 1_545 S
C728 C730 1.394 . S
C728 H744 0.931 . S
C729 C728 1.391 1_565 S
C729 C733 1.376 . S
C730 C728 1.394 . S
C730 C731 1.369 . S
C730 C734 1.531 . S
C731 C730 1.369 . S
C731 C732 1.410 1_545 S
C731 C739 1.503 . S
C732 C731 1.410 1_565 S
C732 C733 1.392 . S
C732 C735 1.511 . S
C733 C729 1.376 . S
C733 C732 1.392 . S
C733 H745 0.929 . S
C734 C730 1.531 . S
C734 H746 0.960 . S
C734 H747 0.962 . S
C734 H748 0.960 . S
C735 C732 1.511 . S
C735 H749 0.961 . S
C735 H750 0.961 . S
C735 H751 0.961 . S
C736 C737 1.370 . S
C736 C738 1.363 . S
C736 H752 0.931 . S
C737 C736 1.370 . S
C737 C741 1.408 . S
C738 C736 1.363 . S
C738 C739 1.370 . S
C738 C742 1.524 . S
C739 C731 1.503 . S
C739 C738 1.370 . S
C739 C740 1.403 . S
C740 C739 1.403 . S
C740 C741 1.404 . S
C740 C743 1.539 1_545 S
C741 C737 1.408 . S
C741 C740 1.404 . S
C741 H753 0.930 . S
C742 C738 1.524 . S
C742 H754 0.956 . S
C742 H755 0.961 . S
C742 H756 0.961 . S
C743 C740 1.539 1_565 S
C743 H757 0.958 . S
C743 H758 0.961 . S
C743 H759 0.960 . S
H744 C728 0.931 . S
H745 C733 0.929 . S
H746 C734 0.960 . S
H747 C734 0.962 . S
H748 C734 0.960 . S
H749 C735 0.961 . S
H750 C735 0.961 . S
H751 C735 0.961 . S
H752 C736 0.931 . S
H753 C741 0.930 . S
H754 C742 0.956 . S
H755 C742 0.961 . S
H756 C742 0.961 . S
H757 C743 0.958 . S
H758 C743 0.961 . S
H759 C743 0.960 . S
C760 C761 1.391 . S
C760 C762 1.394 . S
C760 H776 0.931 . S
C761 C760 1.391 . S
C761 C765 1.376 . S
C762 C760 1.394 . S
C762 C763 1.369 . S
C762 C766 1.531 . S
C763 C762 1.369 . S
C763 C764 1.410 . S
C763 C771 1.503 . S
C764 C763 1.410 . S
C764 C765 1.392 . S
C764 C767 1.511 . S
C765 C761 1.376 . S
C765 C764 1.392 . S
C765 H777 0.929 . S
C766 C762 1.531 . S
C766 H778 0.960 . S
C766 H779 0.962 . S
C766 H780 0.960 . S
C767 C764 1.511 . S
C767 H781 0.961 . S
C767 H782 0.961 . S
C767 H783 0.961 . S
C768 C769 1.370 . S
C768 C770 1.363 . S
C768 H784 0.931 . S
C769 C768 1.370 . S
C769 C773 1.408 . S
C770 C768 1.363 . S
C770 C771 1.370 . S
C770 C774 1.524 . S
C771 C763 1.503 . S
C771 C770 1.370 . S
C771 C772 1.403 . S
C772 C771 1.403 . S
C772 C773 1.404 . S
C772 C775 1.539 . S
C773 C769 1.408 . S
C773 C772 1.404 . S
C773 H785 0.930 . S
C774 C770 1.524 . S
C774 H786 0.956 . S
C774 H787 0.961 . S
C774 H788 0.961 . S
C775 C772 1.539 . S
C775 H789 0.958 . S
C775 H790 0.961 . S
C775 H791 0.960 . S
H776 C760 0.931 . S
H777 C765 0.929 . S
H778 C766 0.960 . S
H779 C766 0.962 . S
H780 C766 0.960 . S
H781 C767 0.961 . S
H782 C767 0.961 . S
H783 C767 0.961 . S
H784 C768 0.931 . S
H785 C773 0.930 . S
H786 C774 0.956 . S
H787 C774 0.961 . S
H788 C774 0.961 . S
H789 C775 0.958 . S
H790 C775 0.961 . S
H791 C775 0.960 . S
C792 C793 1.391 . S
C792 C794 1.394 . S
C792 H808 0.931 . S
C793 C792 1.391 . S
C793 C797 1.376 . S
C794 C792 1.394 . S
C794 C795 1.369 . S
C794 C798 1.531 . S
C795 C794 1.369 . S
C795 C796 1.410 . S
C795 C803 1.503 . S
C796 C795 1.410 . S
C796 C797 1.392 . S
C796 C799 1.511 . S
C797 C793 1.376 . S
C797 C796 1.392 . S
C797 H809 0.929 . S
C798 C794 1.531 . S
C798 H810 0.960 . S
C798 H811 0.962 . S
C798 H812 0.960 . S
C799 C796 1.511 . S
C799 H813 0.961 . S
C799 H814 0.961 . S
C799 H815 0.961 . S
C800 C801 1.370 . S
C800 C802 1.363 . S
C800 H816 0.931 . S
C801 C800 1.370 . S
C801 C805 1.408 . S
C802 C800 1.363 . S
C802 C803 1.370 . S
C802 C806 1.524 . S
C803 C795 1.503 . S
C803 C802 1.370 . S
C803 C804 1.403 . S
C804 C803 1.403 . S
C804 C805 1.404 . S
C804 C807 1.539 . S
C805 C801 1.408 . S
C805 C804 1.404 . S
C805 H817 0.930 . S
C806 C802 1.524 . S
C806 H818 0.956 . S
C806 H819 0.961 . S
C806 H820 0.961 . S
C807 C804 1.539 . S
C807 H821 0.958 . S
C807 H822 0.961 . S
C807 H823 0.960 . S
H808 C792 0.931 . S
H809 C797 0.929 . S
H810 C798 0.960 . S
H811 C798 0.962 . S
H812 C798 0.960 . S
H813 C799 0.961 . S
H814 C799 0.961 . S
H815 C799 0.961 . S
H816 C800 0.931 . S
H817 C805 0.930 . S
H818 C806 0.956 . S
H819 C806 0.961 . S
H820 C806 0.961 . S
H821 C807 0.958 . S
H822 C807 0.961 . S
H823 C807 0.960 . S
C824 C825 1.391 1_655 S
C824 C826 1.394 . S
C824 H840 0.931 . S
C825 C824 1.391 1_455 S
C825 C829 1.376 . S
C826 C824 1.394 . S
C826 C827 1.369 1_655 S
C826 C830 1.531 . S
C827 C826 1.369 1_455 S
C827 C828 1.410 . S
C827 C835 1.503 . S
C828 C827 1.410 . S
C828 C829 1.392 . S
C828 C831 1.511 . S
C829 C825 1.376 . S
C829 C828 1.392 . S
C829 H841 0.929 . S
C830 C826 1.531 . S
C830 H842 0.960 . S
C830 H843 0.962 . S
C830 H844 0.960 . S
C831 C828 1.511 . S
C831 H845 0.961 . S
C831 H846 0.961 . S
C831 H847 0.961 . S
C832 C833 1.370 1_655 S
C832 C834 1.363 . S
C832 H848 0.931 . S
C833 C832 1.370 1_455 S
C833 C837 1.408 . S
C834 C832 1.363 . S
C834 C835 1.370 1_655 S
C834 C838 1.524 . S
C835 C827 1.503 . S
C835 C834 1.370 1_455 S
C835 C836 1.403 . S
C836 C835 1.403 . S
C836 C837 1.404 . S
C836 C839 1.539 . S
C837 C833 1.408 . S
C837 C836 1.404 . S
C837 H849 0.930 . S
C838 C834 1.524 . S
C838 H850 0.956 . S
C838 H851 0.961 . S
C838 H852 0.961 1_556 S
C839 C836 1.539 . S
C839 H853 0.958 . S
C839 H854 0.961 . S
C839 H855 0.960 . S
H840 C824 0.931 . S
H841 C829 0.929 . S
H842 C830 0.960 . S
H843 C830 0.962 . S
H844 C830 0.960 . S
H845 C831 0.961 . S
H846 C831 0.961 . S
H847 C831 0.961 . S
H848 C832 0.931 . S
H849 C837 0.930 . S
H850 C838 0.956 . S
H851 C838 0.961 . S
H852 C838 0.961 1_554 S
H853 C839 0.958 . S
H854 C839 0.961 . S
H855 C839 0.960 . S
C856 C857 1.391 1_565 S
C856 C858 1.394 . S
C856 H872 0.931 . S
C857 C856 1.391 1_545 S
C857 C861 1.376 . S
C858 C856 1.394 . S
C858 C859 1.369 1_565 S
C858 C862 1.531 . S
C859 C858 1.369 1_545 S
C859 C860 1.410 . S
C859 C867 1.503 . S
C860 C859 1.410 . S
C860 C861 1.392 . S
C860 C863 1.511 . S
C861 C857 1.376 . S
C861 C860 1.392 . S
C861 H873 0.929 . S
C862 C858 1.531 . S
C862 H874 0.960 . S
C862 H875 0.962 . S
C862 H876 0.960 . S
C863 C860 1.511 . S
C863 H877 0.961 1_556 S
C863 H878 0.961 . S
C863 H879 0.961 . S
C864 C865 1.370 1_565 S
C864 C866 1.363 . S
C864 H880 0.931 . S
C865 C864 1.370 1_545 S
C865 C869 1.408 . S
C866 C864 1.363 . S
C866 C867 1.370 1_565 S
C866 C870 1.524 . S
C867 C859 1.503 . S
C867 C866 1.370 1_545 S
C867 C868 1.403 . S
C868 C867 1.403 . S
C868 C869 1.404 . S
C868 C871 1.539 . S
C869 C865 1.408 . S
C869 C868 1.404 . S
C869 H881 0.930 . S
C870 C866 1.524 . S
C870 H882 0.956 . S
C870 H883 0.961 . S
C870 H884 0.961 . S
C871 C868 1.539 . S
C871 H885 0.958 . S
C871 H886 0.961 . S
C871 H887 0.960 . S
H872 C856 0.931 . S
H873 C861 0.929 . S
H874 C862 0.960 . S
H875 C862 0.962 . S
H876 C862 0.960 . S
H877 C863 0.961 1_554 S
H878 C863 0.961 . S
H879 C863 0.961 . S
H880 C864 0.931 . S
H881 C869 0.930 . S
H882 C870 0.956 . S
H883 C870 0.961 . S
H884 C870 0.961 . S
H885 C871 0.958 . S
H886 C871 0.961 . S
H887 C871 0.960 . S
C888 C889 1.391 . S
C888 C890 1.394 . S
C888 H904 0.931 . S
C889 C888 1.391 . S
C889 C893 1.376 . S
C890 C888 1.394 . S
C890 C891 1.369 . S
C890 C894 1.525 1_556 S
C891 C890 1.369 . S
C891 C892 1.410 . S
C891 C899 1.503 . S
C892 C891 1.410 . S
C892 C893 1.392 . S
C892 C895 1.511 . S
C893 C889 1.376 . S
C893 C892 1.392 . S
C893 H905 0.929 . S
C894 C890 1.525 1_554 S
C894 H906 0.958 1_554 S
C894 H907 0.965 . S
C894 H908 0.965 . S
C895 C892 1.511 . S
C895 H909 0.961 . S
C895 H910 0.961 . S
C895 H911 0.961 . S
C896 C897 1.370 . S
C896 C898 1.363 . S
C896 H912 0.931 . S
C897 C896 1.370 . S
C897 C901 1.408 . S
C898 C896 1.363 . S
C898 C899 1.370 . S
C898 C902 1.524 . S
C899 C891 1.503 . S
C899 C898 1.370 . S
C899 C900 1.403 . S
C900 C899 1.403 . S
C900 C901 1.404 . S
C900 C903 1.539 . S
C901 C897 1.408 . S
C901 C900 1.404 . S
C901 H913 0.930 . S
C902 C898 1.524 . S
C902 H914 0.956 . S
C902 H915 0.961 . S
C902 H916 0.961 . S
C903 C900 1.539 . S
C903 H917 0.958 . S
C903 H918 0.961 . S
C903 H919 0.960 . S
H904 C888 0.931 . S
H905 C893 0.929 . S
H906 C894 0.958 1_556 S
H907 C894 0.965 . S
H908 C894 0.965 . S
H909 C895 0.961 . S
H910 C895 0.961 . S
H911 C895 0.961 . S
H912 C896 0.931 . S
H913 C901 0.930 . S
H914 C902 0.956 . S
H915 C902 0.961 . S
H916 C902 0.961 . S
H917 C903 0.958 . S
H918 C903 0.961 . S
H919 C903 0.960 . S
C920 C921 1.391 . S
C920 C922 1.394 . S
C920 H936 0.931 . S
C921 C920 1.391 . S
C921 C925 1.376 . S
C922 C920 1.394 . S
C922 C923 1.369 . S
C922 C926 1.531 . S
C923 C922 1.369 . S
C923 C924 1.410 . S
C923 C931 1.503 . S
C924 C923 1.410 . S
C924 C925 1.392 . S
C924 C927 1.511 . S
C925 C921 1.376 . S
C925 C924 1.392 . S
C925 H937 0.929 . S
C926 C922 1.531 . S
C926 H938 0.960 . S
C926 H939 0.962 . S
C926 H940 0.960 . S
C927 C924 1.511 . S
C927 H941 0.961 . S
C927 H942 0.961 . S
C927 H943 0.961 . S
C928 C929 1.370 . S
C928 C930 1.363 . S
C928 H944 0.931 . S
C929 C928 1.370 . S
C929 C933 1.408 . S
C930 C928 1.363 . S
C930 C931 1.370 . S
C930 C934 1.524 . S
C931 C923 1.503 . S
C931 C930 1.370 . S
C931 C932 1.403 . S
C932 C931 1.403 . S
C932 C933 1.404 . S
C932 C935 1.539 1_556 S
C933 C929 1.408 . S
C933 C932 1.404 . S
C933 H945 0.930 . S
C934 C930 1.524 . S
C934 H946 0.956 . S
C934 H947 0.961 . S
C934 H948 0.961 . S
C935 C932 1.539 1_554 S
C935 H949 0.958 . S
C935 H950 0.961 . S
C935 H951 0.960 . S
H936 C920 0.931 . S
H937 C925 0.929 . S
H938 C926 0.960 . S
H939 C926 0.962 . S
H940 C926 0.960 . S
H941 C927 0.961 . S
H942 C927 0.961 . S
H943 C927 0.961 . S
H944 C928 0.931 . S
H945 C933 0.930 . S
H946 C934 0.956 . S
H947 C934 0.961 . S
H948 C934 0.961 . S
H949 C935 0.958 . S
H950 C935 0.961 . S
H951 C935 0.960 . S
C952 C953 1.391 1_455 S
C952 C954 1.399 . S
C952 H968 0.931 . S
C953 C952 1.391 1_655 S
C953 C957 1.376 . S
C954 C952 1.399 . S
C954 C955 1.352 1_455 S
C954 C958 1.544 . S
C955 C954 1.352 1_655 S
C955 C956 1.410 . S
C955 C963 1.503 . S
C956 C955 1.410 . S
C956 C957 1.392 . S
C956 C959 1.511 . S
C957 C953 1.376 . S
C957 C956 1.392 . S
C957 H969 0.929 . S
C958 C954 1.544 . S
C958 H970 0.952 1_455 S
C958 H971 0.962 . S
C958 H972 0.960 . S
C959 C956 1.511 . S
C959 H973 0.961 . S
C959 H974 0.961 . S
C959 H975 0.961 . S
C960 C961 1.370 1_455 S
C960 C962 1.363 . S
C960 H976 0.931 . S
C961 C960 1.370 1_655 S
C961 C965 1.408 . S
C962 C960 1.363 . S
C962 C963 1.370 1_455 S
C962 C966 1.524 . S
C963 C955 1.503 . S
C963 C962 1.370 1_655 S
C963 C964 1.403 . S
C964 C963 1.403 . S
C964 C965 1.404 . S
C964 C967 1.539 . S
C965 C961 1.408 . S
C965 C964 1.404 . S
C965 H977 0.930 . S
C966 C962 1.524 . S
C966 H978 0.956 . S
C966 H979 0.961 . S
C966 H980 0.961 . S
C967 C964 1.539 . S
C967 H981 0.958 . S
C967 H982 0.961 . S
C967 H983 0.960 . S
H968 C952 0.931 . S
H969 C957 0.929 . S
H970 C958 0.952 1_655 S
H971 C958 0.962 . S
H972 C958 0.960 . S
H973 C959 0.961 . S
H974 C959 0.961 . S
H975 C959 0.961 . S
H976 C960 0.931 . S
H977 C965 0.930 . S
H978 C966 0.956 . S
H979 C966 0.961 . S
H980 C966 0.961 . S
H981 C967 0.958 . S
H982 C967 0.961 . S
H983 C967 0.960 . S
C984 C985 1.407 . S
C984 C986 1.394 . S
C984 H1000 0.931 . S
C985 C984 1.407 . S
C985 C989 1.361 1_565 S
C986 C984 1.394 . S
C986 C987 1.369 . S
C986 C990 1.531 . S
C987 C986 1.369 . S
C987 C988 1.410 1_565 S
C987 C995 1.503 . S
C988 C987 1.410 1_545 S
C988 C989 1.392 . S
C988 C991 1.511 . S
C989 C985 1.361 1_545 S
C989 C988 1.392 . S
C989 H1001 0.929 . S
C990 C986 1.531 . S
C990 H1002 0.960 . S
C990 H1003 0.962 . S
C990 H1004 0.960 . S
C991 C988 1.511 . S
C991 H1005 0.961 . S
C991 H1006 0.961 . S
C991 H1007 0.961 . S
C992 C993 1.370 . S
C992 C994 1.363 . S
C992 H1008 0.931 . S
C993 C992 1.370 . S
C993 C997 1.408 1_565 S
C994 C992 1.363 . S
C994 C995 1.370 . S
C994 C998 1.524 . S
C995 C987 1.503 . S
C995 C994 1.370 . S
C995 C996 1.403 1_565 S
C996 C995 1.403 1_545 S
C996 C997 1.404 . S
C996 C999 1.539 . S
C997 C993 1.408 1_545 S
C997 C996 1.404 . S
C997 H1009 0.930 . S
C998 C994 1.524 . S
C998 H1010 0.956 . S
C998 H1011 0.961 . S
C998 H1012 0.961 . S
C999 C996 1.539 . S
C999 H1013 0.958 . S
C999 H1014 0.961 . S
C999 H1015 0.960 . S
H1000 C984 0.931 . S
H1001 C989 0.929 . S
H1002 C990 0.960 . S
H1003 C990 0.962 . S
H1004 C990 0.960 . S
H1005 C991 0.961 . S
H1006 C991 0.961 . S
H1007 C991 0.961 . S
H1008 C992 0.931 . S
H1009 C997 0.930 . S
H1010 C998 0.956 . S
H1011 C998 0.961 . S
H1012 C998 0.961 . S
H1013 C999 0.958 . S
H1014 C999 0.961 . S
H1015 C999 0.960 . S
C1016 C1017 1.391 . S
C1016 C1018 1.394 . S
C1016 H1032 0.931 . S
C1017 C1016 1.391 . S
C1017 C1021 1.376 . S
C1018 C1016 1.394 . S
C1018 C1019 1.369 . S
C1018 C1022 1.531 . S
C1019 C1018 1.369 . S
C1019 C1020 1.410 . S
C1019 C1027 1.503 . S
C1020 C1019 1.410 . S
C1020 C1021 1.392 . S
C1020 C1023 1.511 . S
C1021 C1017 1.376 . S
C1021 C1020 1.392 . S
C1021 H1033 0.929 . S
C1022 C1018 1.531 . S
C1022 H1034 0.960 . S
C1022 H1035 0.962 . S
C1022 H1036 0.960 . S
C1023 C1020 1.511 . S
C1023 H1037 0.961 . S
C1023 H1038 0.961 . S
C1023 H1039 0.961 . S
C1024 C1025 1.370 . S
C1024 C1026 1.363 . S
C1024 H1040 0.931 . S
C1025 C1024 1.370 . S
C1025 C1029 1.408 . S
C1026 C1024 1.363 . S
C1026 C1027 1.370 . S
C1026 C1030 1.524 . S
C1027 C1019 1.503 . S
C1027 C1026 1.370 . S
C1027 C1028 1.403 . S
C1028 C1027 1.403 . S
C1028 C1029 1.404 . S
C1028 C1031 1.539 . S
C1029 C1025 1.408 . S
C1029 C1028 1.404 . S
C1029 H1041 0.930 . S
C1030 C1026 1.524 . S
C1030 H1042 0.956 . S
C1030 H1043 0.961 . S
C1030 H1044 0.961 . S
C1031 C1028 1.539 . S
C1031 H1045 0.958 . S
C1031 H1046 0.961 . S
C1031 H1047 0.960 . S
H1032 C1016 0.931 . S
H1033 C1021 0.929 . S
H1034 C1022 0.960 . S
H1035 C1022 0.962 . S
H1036 C1022 0.960 . S
H1037 C1023 0.961 . S
H1038 C1023 0.961 . S
H1039 C1023 0.961 . S
H1040 C1024 0.931 . S
H1041 C1029 0.930 . S
H1042 C1030 0.956 . S
H1043 C1030 0.961 . S
H1044 C1030 0.961 . S
H1045 C1031 0.958 . S
H1046 C1031 0.961 . S
H1047 C1031 0.960 . S
C1048 C1049 1.391 . S
C1048 C1050 1.394 . S
C1048 H1064 0.931 . S
C1049 C1048 1.391 . S
C1049 C1053 1.376 . S
C1050 C1048 1.394 . S
C1050 C1051 1.369 . S
C1050 C1054 1.531 . S
C1051 C1050 1.369 . S
C1051 C1052 1.410 . S
C1051 C1059 1.503 . S
C1052 C1051 1.410 . S
C1052 C1053 1.392 . S
C1052 C1055 1.511 . S
C1053 C1049 1.376 . S
C1053 C1052 1.392 . S
C1053 H1065 0.929 . S
C1054 C1050 1.531 . S
C1054 H1066 0.960 . S
C1054 H1067 0.962 . S
C1054 H1068 0.960 . S
C1055 C1052 1.511 . S
C1055 H1069 0.961 . S
C1055 H1070 0.961 . S
C1055 H1071 0.961 . S
C1056 C1057 1.370 . S
C1056 C1058 1.363 . S
C1056 H1072 0.931 . S
C1057 C1056 1.370 . S
C1057 C1061 1.408 . S
C1058 C1056 1.363 . S
C1058 C1059 1.370 . S
C1058 C1062 1.524 . S
C1059 C1051 1.503 . S
C1059 C1058 1.370 . S
C1059 C1060 1.403 . S
C1060 C1059 1.403 . S
C1060 C1061 1.404 . S
C1060 C1063 1.539 . S
C1061 C1057 1.408 . S
C1061 C1060 1.404 . S
C1061 H1073 0.930 . S
C1062 C1058 1.524 . S
C1062 H1074 0.956 . S
C1062 H1075 0.961 . S
C1062 H1076 0.961 . S
C1063 C1060 1.539 . S
C1063 H1077 0.958 . S
C1063 H1078 0.961 . S
C1063 H1079 0.960 . S
H1064 C1048 0.931 . S
H1065 C1053 0.929 . S
H1066 C1054 0.960 . S
H1067 C1054 0.962 . S
H1068 C1054 0.960 . S
H1069 C1055 0.961 . S
H1070 C1055 0.961 . S
H1071 C1055 0.961 . S
H1072 C1056 0.931 . S
H1073 C1061 0.930 . S
H1074 C1062 0.956 . S
H1075 C1062 0.961 . S
H1076 C1062 0.961 . S
H1077 C1063 0.958 . S
H1078 C1063 0.961 . S
H1079 C1063 0.960 . S
C313 C125 1.913 1_545 S
C321 C161 1.943 1_545 S
C353 C201 1.948 . S
C345 C144 1.920 . S
C385 C241 1.952 . S
C377 C87 1.929 . S
C417 C281 1.943 1_455 S
C409 C106 1.918 1_455 S
C449 C170 1.946 1_565 S
C441 C49 1.880 . S
C473 C68 1.903 . S
C481 C210 1.946 . S
C505 C11 1.879 . S
C513 C250 1.951 . S
C537 C30 1.881 . S
C545 C290 1.951 1_655 S
C577 C167 0.523 . S
C569 C97 0.495 . S
C609 C207 0.536 . S
C601 C116 0.648 . S
C641 C247 0.533 . S
C633 C135 0.497 . S
C665 C78 0.480 . S
C673 C287 0.547 . S
C697 C21 0.658 . S
C705 C158 0.516 . S
C737 C198 0.505 . S
C729 C40 0.644 . S
C769 C238 0.559 . S
C761 C59 0.554 . S
C793 C2 0.524 . S
C801 C278 0.563 . S
C825 C101 2.083 1_455 S
C833 C171 2.278 . S
C857 C120 2.069 1_545 S
C865 C211 2.276 . S
C897 C251 2.260 . S
C889 C139 2.051 . S
C929 C291 2.276 . S
C921 C82 2.007 . S
C953 C25 2.037 . S
C961 C162 2.293 . S
C993 C202 2.266 . S
C985 C44 2.076 . S
C1025 C242 2.266 . S
C1017 C63 2.005 . S
C1049 C6 2.081 . S
C1057 C282 2.282 . S
