# Generated by pormake.
# Topology pyr, (3,6)-cn, num edge types: 1
# Building blocks:
#     Node 0, Type 0, BuildingBlock: BELTOD_clean_linker_0, # of connection points: 3
#     Node 1, Type 0, BuildingBlock: BELTOD_clean_linker_0, # of connection points: 3
#     Node 2, Type 0, BuildingBlock: BELTOD_clean_linker_0, # of connection points: 3
#     Node 3, Type 0, BuildingBlock: BELTOD_clean_linker_0, # of connection points: 3
#     Node 4, Type 0, BuildingBlock: BELTOD_clean_linker_0, # of connection points: 3
#     Node 5, Type 0, BuildingBlock: BELTOD_clean_linker_0, # of connection points: 3
#     Node 6, Type 0, BuildingBlock: BELTOD_clean_linker_0, # of connection points: 3
#     Node 7, Type 0, BuildingBlock: BELTOD_clean_linker_0, # of connection points: 3
#     Node 8, Type 1, BuildingBlock: BETDAH_clean_sbu_0, # of connection points: 6
#     Node 9, Type 1, BuildingBlock: BETDAH_clean_sbu_0, # of connection points: 6
#     Node 10, Type 1, BuildingBlock: BETDAH_clean_sbu_0, # of connection points: 6
#     Node 11, Type 1, BuildingBlock: BETDAH_clean_sbu_0, # of connection points: 6
#     Edge 12, Type (0, 1), BuildingBlock: ZUJKAS_clean_linker_0, # of connection points: 2
#     Edge 13, Type (0, 1), BuildingBlock: ZUJKAS_clean_linker_0, # of connection points: 2
#     Edge 14, Type (0, 1), BuildingBlock: ZUJKAS_clean_linker_0, # of connection points: 2
#     Edge 15, Type (0, 1), BuildingBlock: ZUJKAS_clean_linker_0, # of connection points: 2
#     Edge 16, Type (0, 1), BuildingBlock: ZUJKAS_clean_linker_0, # of connection points: 2
#     Edge 17, Type (0, 1), BuildingBlock: ZUJKAS_clean_linker_0, # of connection points: 2
#     Edge 18, Type (0, 1), BuildingBlock: ZUJKAS_clean_linker_0, # of connection points: 2
#     Edge 19, Type (0, 1), BuildingBlock: ZUJKAS_clean_linker_0, # of connection points: 2
#     Edge 20, Type (0, 1), BuildingBlock: ZUJKAS_clean_linker_0, # of connection points: 2
#     Edge 21, Type (0, 1), BuildingBlock: ZUJKAS_clean_linker_0, # of connection points: 2
#     Edge 22, Type (0, 1), BuildingBlock: ZUJKAS_clean_linker_0, # of connection points: 2
#     Edge 23, Type (0, 1), BuildingBlock: ZUJKAS_clean_linker_0, # of connection points: 2
#     Edge 24, Type (0, 1), BuildingBlock: ZUJKAS_clean_linker_0, # of connection points: 2
#     Edge 25, Type (0, 1), BuildingBlock: ZUJKAS_clean_linker_0, # of connection points: 2
#     Edge 26, Type (0, 1), BuildingBlock: ZUJKAS_clean_linker_0, # of connection points: 2
#     Edge 27, Type (0, 1), BuildingBlock: ZUJKAS_clean_linker_0, # of connection points: 2
#     Edge 28, Type (0, 1), BuildingBlock: ZUJKAS_clean_linker_0, # of connection points: 2
#     Edge 29, Type (0, 1), BuildingBlock: ZUJKAS_clean_linker_0, # of connection points: 2
#     Edge 30, Type (0, 1), BuildingBlock: ZUJKAS_clean_linker_0, # of connection points: 2
#     Edge 31, Type (0, 1), BuildingBlock: ZUJKAS_clean_linker_0, # of connection points: 2
#     Edge 32, Type (0, 1), BuildingBlock: ZUJKAS_clean_linker_0, # of connection points: 2
#     Edge 33, Type (0, 1), BuildingBlock: ZUJKAS_clean_linker_0, # of connection points: 2
#     Edge 34, Type (0, 1), BuildingBlock: ZUJKAS_clean_linker_0, # of connection points: 2
#     Edge 35, Type (0, 1), BuildingBlock: ZUJKAS_clean_linker_0, # of connection points: 2
# Relax obj value: 0.077
# Max RMSD: 0.122
# Mean RMSD: 0.056
data_MOF--net-pyr--node1-BETDAH_clean_sbu_0--node2-BELTOD_clean_linker_0--edge1-ZUJKAS_clean_linker_0
_symmetry_space_group_name_H-M    P1
_symmetry_Int_Tables_number       1
_symmetry_cell_setting            triclinic
loop_
_symmetry_equiv_pos_as_xyz
'x, y, z'
_cell_length_a     54.48575
_cell_length_b     57.380495
_cell_length_c     51.456205
_cell_angle_alpha  91.397225
_cell_angle_beta   89.056455
_cell_angle_gamma 99.254147
loop_
_atom_site_label
_atom_site_type_symbol
_atom_site_fract_x
_atom_site_fract_y
_atom_site_fract_z
_atom_type_partial_charge
P0 P 0.33285 0.29905 0.24706 0.0
H1 H 0.38197 0.29508 0.22539 0.0
H2 H 0.39872 0.26277 0.20312 0.0
H3 H 0.32656 0.21892 0.20863 0.0
H4 H 0.31017 0.25106 0.23123 0.0
H5 H 0.32041 0.34625 0.25239 0.0
H6 H 0.29391 0.36739 0.22697 0.0
H7 H 0.28726 0.31159 0.16836 0.0
H8 H 0.31352 0.29045 0.19402 0.0
H9 H 0.33396 0.28604 0.30175 0.0
H10 H 0.2791 0.28486 0.24204 0.0
O11 O 0.35572 0.31602 0.26308 0.0
H12 H 0.30124 0.26918 0.33233 0.0
H13 H 0.24665 0.26782 0.27207 0.0
C14 C 0.345 0.2753 0.23046 0.0
C15 C 0.36983 0.27845 0.22192 0.0
C16 C 0.37932 0.26002 0.20902 0.0
C17 C 0.36402 0.23817 0.20427 0.0
C18 C 0.33898 0.23532 0.21245 0.0
C19 C 0.32955 0.25374 0.22534 0.0
C20 C 0.31921 0.31697 0.22496 0.0
C21 C 0.31388 0.33895 0.23367 0.0
C22 C 0.29871 0.351 0.21912 0.0
C23 C 0.28838 0.34109 0.19572 0.0
C24 C 0.29475 0.31955 0.18645 0.0
C25 C 0.30999 0.30756 0.20099 0.0
C26 C 0.3089 0.2872 0.26982 0.0
C27 C 0.31488 0.28232 0.29529 0.0
C28 C 0.2962 0.27257 0.31267 0.0
C29 C 0.27128 0.26743 0.30472 0.0
C30 C 0.26552 0.27213 0.27904 0.0
C31 C 0.28414 0.28183 0.26178 0.0
P32 P 0.35349 0.92897 0.55847 0.0
H33 H 0.36765 0.97324 0.5874 0.0
H34 H 0.37741 0.98198 0.6332 0.0
H35 H 0.37278 0.90731 0.64662 0.0
H36 H 0.36352 0.89883 0.60092 0.0
H37 H 0.32266 0.88754 0.5342 0.0
H38 H 0.33114 0.84817 0.52262 0.0
H39 H 0.40784 0.86934 0.54467 0.0
H40 H 0.39929 0.90893 0.5559 0.0
H41 H 0.31767 0.94758 0.52609 0.0
H42 H 0.31644 0.9071 0.59579 0.0
O43 O 0.36605 0.95013 0.53836 0.0
H44 H 0.27253 0.9457 0.52959 0.0
H45 H 0.27146 0.90521 0.59942 0.0
C46 C 0.36547 0.93547 0.59063 0.0
C47 C 0.36943 0.95884 0.60009 0.0
C48 C 0.37471 0.96377 0.62633 0.0
C49 C 0.37583 0.94533 0.64358 0.0
C50 C 0.3725 0.92196 0.6338 0.0
C51 C 0.36725 0.91708 0.60759 0.0
C52 C 0.36027 0.90098 0.54652 0.0
C53 C 0.34136 0.88385 0.53639 0.0
C54 C 0.3462 0.86129 0.52977 0.0
C55 C 0.37007 0.85557 0.53302 0.0
C56 C 0.38929 0.87324 0.54177 0.0
C57 C 0.38442 0.89581 0.54836 0.0
C58 C 0.32044 0.92803 0.56104 0.0
C59 C 0.30773 0.93842 0.5422 0.0
C60 C 0.28194 0.93713 0.5441 0.0
C61 C 0.26855 0.92537 0.56486 0.0
C62 C 0.28136 0.91466 0.58345 0.0
C63 C 0.30708 0.91582 0.58142 0.0
P64 P 0.66835 0.3385 0.83866 0.0
H65 H 0.71164 0.32506 0.8631 0.0
H66 H 0.74679 0.34698 0.88677 0.0
H67 H 0.7144 0.41064 0.8817 0.0
H68 H 0.67895 0.38834 0.8582 0.0
H69 H 0.62916 0.30012 0.82292 0.0
H70 H 0.60617 0.26648 0.84575 0.0
H71 H 0.63894 0.29471 0.9181 0.0
H72 H 0.6622 0.32813 0.89493 0.0
H73 H 0.68851 0.3727 0.8 0.0
H74 H 0.61579 0.3452 0.83046 0.0
O75 O 0.68302 0.32236 0.81803 0.0
H76 H 0.6698 0.39438 0.7674 0.0
H77 H 0.59678 0.3667 0.79757 0.0
C78 C 0.69276 0.35506 0.85854 0.0
C79 C 0.712 0.34372 0.86718 0.0
C80 C 0.73224 0.35636 0.8806 0.0
C81 C 0.73377 0.38074 0.88589 0.0
C82 C 0.71391 0.39191 0.87806 0.0
C83 C 0.69362 0.37918 0.86451 0.0
C84 C 0.64733 0.31688 0.8571 0.0
C85 C 0.63098 0.29937 0.8438 0.0
C86 C 0.6178 0.28003 0.85697 0.0
C87 C 0.62068 0.27757 0.88391 0.0
C88 C 0.63647 0.29566 0.89734 0.0
C89 C 0.64964 0.31503 0.8841 0.0
C90 C 0.65366 0.35731 0.81782 0.0
C91 C 0.66847 0.37155 0.79989 0.0
C92 C 0.65769 0.38378 0.781 0.0
C93 C 0.63168 0.38215 0.77948 0.0
C94 C 0.61685 0.36851 0.79813 0.0
C95 C 0.62773 0.35613 0.81701 0.0
P96 P 0.82899 0.69484 0.33018 0.0
H97 H 0.85432 0.74011 0.31177 0.0
H98 H 0.87706 0.77503 0.33375 0.0
H99 H 0.87162 0.73749 0.40589 0.0
H100 H 0.84899 0.7024 0.38357 0.0
H101 H 0.81555 0.6707 0.28084 0.0
H102 H 0.8375 0.6488 0.24971 0.0
H103 H 0.90015 0.65584 0.30143 0.0
H104 H 0.87813 0.67886 0.33219 0.0
H105 H 0.79713 0.70959 0.37113 0.0
H106 H 0.81231 0.64359 0.33803 0.0
O107 O 0.81103 0.70791 0.31111 0.0
H108 H 0.76344 0.68842 0.39747 0.0
H109 H 0.77831 0.6222 0.3642 0.0
C110 C 0.84955 0.71875 0.34608 0.0
C111 C 0.85825 0.73926 0.33226 0.0
C112 C 0.87111 0.75932 0.34493 0.0
C113 C 0.87581 0.75929 0.37174 0.0
C114 C 0.86833 0.73819 0.38525 0.0
C115 C 0.85531 0.71809 0.37252 0.0
C116 C 0.84529 0.67675 0.30873 0.0
C117 C 0.83403 0.66757 0.28555 0.0
C118 C 0.84662 0.65477 0.26776 0.0
C119 C 0.87078 0.65039 0.27281 0.0
C120 C 0.88179 0.65913 0.29652 0.0
C121 C 0.86915 0.67216 0.3143 0.0
C122 C 0.80754 0.67823 0.35284 0.0
C123 C 0.79352 0.69047 0.36989 0.0
C124 C 0.77403 0.67833 0.38474 0.0
C125 C 0.76793 0.65357 0.38282 0.0
C126 C 0.78257 0.64124 0.36633 0.0
C127 C 0.80208 0.65347 0.35134 0.0
P128 P 0.7317 0.80522 0.8803 0.0
H129 H 0.72284 0.8414 0.91841 0.0
H130 H 0.68792 0.86226 0.92625 0.0
H131 H 0.64515 0.81741 0.8689 0.0
H132 H 0.68027 0.7959 0.86175 0.0
H133 H 0.74365 0.78417 0.92824 0.0
H134 H 0.74934 0.74423 0.93829 0.0
H135 H 0.71939 0.71947 0.86344 0.0
H136 H 0.7142 0.75991 0.85336 0.0
H137 H 0.71345 0.83222 0.8385 0.0
H138 H 0.76775 0.78605 0.8475 0.0
O139 O 0.75585 0.82066 0.89592 0.0
H140 H 0.72744 0.83944 0.79391 0.0
H141 H 0.78283 0.79421 0.80331 0.0
C142 C 0.70426 0.81741 0.88913 0.0
C143 C 0.70589 0.83578 0.90773 0.0
C144 C 0.68593 0.84785 0.91205 0.0
C145 C 0.664 0.84192 0.89768 0.0
C146 C 0.66183 0.82246 0.88021 0.0
C147 C 0.68184 0.81019 0.87608 0.0
C148 C 0.72925 0.77502 0.88979 0.0
C149 C 0.73781 0.77007 0.91421 0.0
C150 C 0.74084 0.7471 0.92001 0.0
C151 C 0.73516 0.72863 0.9015 0.0
C152 C 0.72439 0.73338 0.87791 0.0
C153 C 0.72134 0.75644 0.87215 0.0
C154 C 0.73915 0.8081 0.84621 0.0
C155 C 0.72801 0.82317 0.83078 0.0
C156 C 0.73628 0.82756 0.80527 0.0
C157 C 0.75634 0.81749 0.79494 0.0
C158 C 0.76703 0.80192 0.81033 0.0
C159 C 0.75851 0.79732 0.83572 0.0
P160 P 0.76852 0.24769 0.41271 0.0
H161 H 0.77064 0.28495 0.45269 0.0
H162 H 0.74091 0.2939 0.48611 0.0
H163 H 0.69022 0.23124 0.46285 0.0
H164 H 0.71977 0.22277 0.42913 0.0
H165 H 0.82217 0.24683 0.41158 0.0
H166 H 0.8469 0.21741 0.42541 0.0
H167 H 0.77993 0.17358 0.4528 0.0
H168 H 0.75547 0.203 0.43915 0.0
H169 H 0.72338 0.25681 0.3874 0.0
H170 H 0.77816 0.21093 0.37508 0.0
O171 O 0.78653 0.27279 0.40437 0.0
H172 H 0.69967 0.23763 0.35052 0.0
H173 H 0.75455 0.19167 0.33855 0.0
C174 C 0.74706 0.25362 0.43798 0.0
C175 C 0.75312 0.27317 0.45481 0.0
C176 C 0.73624 0.27807 0.47413 0.0
C177 C 0.71314 0.26332 0.47703 0.0
C178 C 0.7077 0.24312 0.46085 0.0
C179 C 0.72456 0.23829 0.44154 0.0
C180 C 0.78708 0.22731 0.42488 0.0
C181 C 0.81289 0.23104 0.4209 0.0
C182 C 0.82695 0.21414 0.42859 0.0
C183 C 0.81533 0.19324 0.44027 0.0
C184 C 0.78945 0.18968 0.44428 0.0
C185 C 0.77544 0.20652 0.43651 0.0
C186 C 0.75211 0.23482 0.38446 0.0
C187 C 0.73027 0.24259 0.37682 0.0
C188 C 0.71672 0.2316 0.35581 0.0
C189 C 0.72513 0.21299 0.34183 0.0
C190 C 0.74764 0.20601 0.34888 0.0
C191 C 0.76106 0.2169 0.36994 0.0
P192 P 0.36208 0.68945 0.19455 0.0
H193 H 0.3424 0.67896 0.14258 0.0
H194 H 0.30162 0.66223 0.12593 0.0
H195 H 0.27137 0.66062 0.20417 0.0
H196 H 0.31275 0.67694 0.22074 0.0
H197 H 0.41042 0.71936 0.18855 0.0
H198 H 0.4232 0.75998 0.17508 0.0
H199 H 0.34628 0.77017 0.17597 0.0
H200 H 0.33367 0.72907 0.18871 0.0
H201 H 0.34791 0.64394 0.21924 0.0
H202 H 0.39054 0.71148 0.2401 0.0
O203 O 0.38086 0.6765 0.175 0.0
H204 H 0.36115 0.62714 0.25879 0.0
H205 H 0.40431 0.69468 0.27964 0.0
C206 C 0.33082 0.67884 0.18296 0.0
C207 C 0.32701 0.67505 0.1562 0.0
C208 C 0.30349 0.6656 0.14665 0.0
C209 C 0.28295 0.65987 0.16361 0.0
C210 C 0.28672 0.66436 0.19048 0.0
C211 C 0.31039 0.67385 0.20003 0.0
C212 C 0.37107 0.721 0.18959 0.0
C213 C 0.3963 0.73042 0.1862 0.0
C214 C 0.4036 0.75384 0.17853 0.0
C215 C 0.38585 0.76865 0.17414 0.0
C216 C 0.36056 0.75934 0.1786 0.0
C217 C 0.35327 0.73581 0.18621 0.0
C218 C 0.36768 0.67917 0.2268 0.0
C219 C 0.35967 0.65536 0.23264 0.0
C220 C 0.36761 0.64564 0.25518 0.0
C221 C 0.38406 0.6594 0.2725 0.0
C222 C 0.39148 0.68351 0.267 0.0
C223 C 0.38354 0.69321 0.24432 0.0
P224 P 0.18239 0.34658 0.72382 0.0
H225 H 0.176 0.29584 0.73299 0.0
H226 H 0.1545 0.26129 0.70985 0.0
H227 H 0.12686 0.30648 0.65515 0.0
H228 H 0.14898 0.34135 0.6785 0.0
H229 H 0.2127 0.39296 0.7317 0.0
H230 H 0.246 0.41556 0.70612 0.0
H231 H 0.23204 0.36388 0.64342 0.0
H232 H 0.19935 0.34106 0.66945 0.0
H233 H 0.1572 0.33435 0.77296 0.0
H234 H 0.16404 0.39254 0.72056 0.0
O235 O 0.20168 0.33615 0.74379 0.0
H236 H 0.13493 0.35606 0.80431 0.0
H237 H 0.14149 0.41447 0.75185 0.0
C238 C 0.16448 0.32128 0.70728 0.0
C239 C 0.1653 0.29847 0.71607 0.0
C240 C 0.15277 0.27859 0.70286 0.0
C241 C 0.13892 0.28095 0.6805 0.0
C242 C 0.1376 0.30393 0.67207 0.0
C243 C 0.15011 0.3239 0.68547 0.0
C244 C 0.20281 0.36565 0.70229 0.0
C245 C 0.21629 0.38684 0.71214 0.0
C246 C 0.23546 0.39977 0.69745 0.0
C247 C 0.24187 0.39164 0.67259 0.0
C248 C 0.2279 0.37063 0.66255 0.0
C249 C 0.20879 0.35769 0.67733 0.0
C250 C 0.1627 0.36193 0.74459 0.0
C251 C 0.15363 0.35174 0.76805 0.0
C252 C 0.14076 0.36419 0.78598 0.0
C253 C 0.13653 0.3872 0.78084 0.0
C254 C 0.14479 0.397 0.75674 0.0
C255 C 0.15761 0.38441 0.73872 0.0
Ho256 Ho 0.02058 0.02798 0.4985 0.0
Ho257 Ho 0.9998 1.00997 0.55138 0.0
C258 C 0.03474 0.06125 0.5501 0.0
C259 C 0.03569 0.05103 0.45721 0.0
C260 C 0.04834 0.07496 0.45133 0.0
C261 C 0.04579 0.08423 0.42677 0.0
C262 C 0.06064 0.10534 0.41954 0.0
C263 C 0.07832 0.11743 0.4368 0.0
C264 C 0.07982 0.10871 0.46191 0.0
C265 C 0.06501 0.08764 0.46908 0.0
C266 C 0.04428 0.99606 0.5209 0.0
C267 C 0.98536 0.97806 0.49997 0.0
C268 C 0.98992 0.99251 0.59664 0.0
C269 C 0.96908 0.97575 0.60724 0.0
C270 C 0.974 0.95681 0.62194 0.0
C271 C 0.95446 0.94018 0.63125 0.0
C272 C 0.92968 0.94236 0.62616 0.0
C273 C 0.92479 0.96134 0.61142 0.0
C274 C 0.94432 0.97781 0.60188 0.0
C275 C 0.9681 0.0291 0.5218 0.0
O276 O 0.0361 0.05904 0.52444 0.0
O277 O 0.02282 0.04423 0.56468 0.0
O278 O 0.04907 0.03813 0.46978 0.0
O279 O 0.01268 0.04881 0.46582 0.0
O280 O 0.0405 0.99656 0.49617 0.0
O281 O 0.0362 1.01293 0.53234 0.0
O282 O 0.99053 0.97787 0.52504 0.0
O283 O 0.99145 0.99741 0.48618 0.0
O284 O 0.98493 1.01319 0.59016 0.0
O285 O 1.00404 0.98356 0.57948 0.0
O286 O 0.96113 1.01153 0.53701 0.0
O287 O 0.99092 0.03627 0.52444 0.0
H288 H 0.03311 0.07462 0.41277 0.0
H289 H 0.0592 0.1115 0.39998 0.0
H290 H 0.09302 0.11778 0.47574 0.0
H291 H 0.06742 0.08071 0.48807 0.0
H292 H 0.99297 0.95483 0.62611 0.0
H293 H 0.9587 0.92582 0.64278 0.0
H294 H 0.90586 0.96329 0.60703 0.0
H295 H 0.94001 0.99205 0.59022 0.0
Ho296 Ho 0.51531 0.03303 0.0476 0.0
Ho297 Ho 0.46518 1.02083 1.01671 0.0
C298 C 0.46891 0.056 0.06669 0.0
C299 C 0.55961 0.0463 0.06508 0.0
C300 C 0.57058 0.05639 0.08952 0.0
C301 C 0.55788 0.07046 0.1059 0.0
C302 C 0.56923 0.08115 0.12827 0.0
C303 C 0.59339 0.07779 0.13474 0.0
C304 C 0.60567 0.06302 0.11863 0.0
C305 C 0.59437 0.05248 0.09617 0.0
C306 C 0.48072 0.99824 0.06764 0.0
C307 C 0.5132 1.0014 0.99369 0.0
C308 C 0.42322 1.00071 0.99805 0.0
C309 C 0.41556 0.9971 0.97088 0.0
C310 C 0.3926 0.98366 0.96437 0.0
C311 C 0.38611 0.97969 0.93821 0.0
C312 C 0.40248 0.98926 0.91835 0.0
C313 C 0.42541 1.00278 0.92513 0.0
C314 C 0.43191 1.00659 0.95112 0.0
C315 C 0.49383 0.06049 0.99707 0.0
O316 O 0.49344 0.0595 0.06447 0.0
O317 O 0.45466 0.03872 0.05383 0.0
O318 O 0.54821 0.02443 0.06577 0.0
O319 O 0.54745 0.05997 0.05205 0.0
O320 O 0.49556 1.01344 0.08153 0.0
O321 O 0.48566 1.00194 0.04388 0.0
O322 O 0.48903 1.00115 0.99168 0.0
O323 O 0.5268 1.01327 1.01228 0.0
O324 O 0.42727 1.02274 1.00631 0.0
O325 O 0.44078 0.98904 1.00474 0.0
O326 O 0.47237 0.05102 0.98804 0.0
O327 O 0.49833 0.04782 1.01545 0.0
H328 H 0.5394 0.07357 0.10112 0.0
H329 H 0.55933 0.09258 0.14006 0.0
H330 H 0.62409 0.05971 0.1233 0.0
H331 H 0.60433 0.04151 0.08382 0.0
H332 H 0.37986 0.9761 0.97944 0.0
H333 H 0.36829 0.96925 0.93352 0.0
H334 H 0.43863 1.00998 0.91029 0.0
H335 H 0.44988 1.0167 0.9558 0.0
Ho336 Ho 0.50846 0.50323 0.51068 0.0
Ho337 Ho 0.50226 0.54204 0.54768 0.0
C338 C 0.52695 0.50094 0.57081 0.0
C339 C 0.52513 0.46989 0.48494 0.0
C340 C 0.53622 0.44974 0.49388 0.0
C341 C 0.55677 0.45325 0.51049 0.0
C342 C 0.5659 0.43399 0.52046 0.0
C343 C 0.55466 0.41081 0.5141 0.0
C344 C 0.53411 0.40734 0.49745 0.0
C345 C 0.52501 0.42664 0.48741 0.0
C346 C 0.46354 0.49797 0.53495 0.0
C347 C 0.48442 0.54454 0.48702 0.0
C348 C 0.48473 0.57361 0.57585 0.0
C349 C 0.47298 0.59424 0.57046 0.0
C350 C 0.45788 0.59445 0.54865 0.0
C351 C 0.44756 0.61449 0.54322 0.0
C352 C 0.45201 0.63463 0.55962 0.0
C353 C 0.46688 0.6342 0.58167 0.0
C354 C 0.47733 0.61418 0.58697 0.0
C355 C 0.54735 0.54727 0.52353 0.0
O356 O 0.52958 0.49438 0.54618 0.0
O357 O 0.51398 0.51786 0.577 0.0
O358 O 0.50162 0.46919 0.49082 0.0
O359 O 0.53815 0.49092 0.48864 0.0
O360 O 0.46683 0.49277 0.51063 0.0
O361 O 0.4843 0.50509 0.54533 0.0
O362 O 0.48256 0.55186 0.51156 0.0
O363 O 0.49641 0.52684 0.48099 0.0
O364 O 0.50819 0.57531 0.56925 0.0
O365 O 0.47189 0.55303 0.56963 0.0
O366 O 0.54395 0.55252 0.54786 0.0
O367 O 0.5266 0.54024 0.51309 0.0
H368 H 0.56575 0.47086 0.516 0.0
H369 H 0.58205 0.43729 0.53283 0.0
H370 H 0.52491 0.3897 0.49234 0.0
H371 H 0.50898 0.42352 0.47487 0.0
H372 H 0.45413 0.57917 0.53574 0.0
H373 H 0.43643 0.61432 0.52595 0.0
H374 H 0.47032 0.64927 0.59494 0.0
H375 H 0.48887 0.61427 0.60394 0.0
Ho376 Ho 0.01149 0.49668 0.03685 0.0
Ho377 Ho 1.00293 0.54611 1.0146 0.0
C378 C 0.05165 0.54481 0.04844 0.0
C379 C 0.02882 0.45765 0.04011 0.0
C380 C 0.04675 0.44874 0.05662 0.0
C381 C 0.05323 0.42651 0.05107 0.0
C382 C 0.072 0.41867 0.06501 0.0
C383 C 0.08463 0.43299 0.08475 0.0
C384 C 0.07765 0.45513 0.09059 0.0
C385 C 0.05887 0.46296 0.0766 0.0
C386 C 0.99129 0.52306 0.07395 0.0
C387 C 0.95975 0.49923 1.00786 0.0
C388 C 0.98587 0.58334 1.00102 0.0
C389 C 0.96168 0.58845 0.99259 0.0
C390 C 0.93924 0.57707 1.0035 0.0
C391 C 0.91648 0.58168 0.99439 0.0
C392 C 0.91586 0.59746 0.97402 0.0
C393 C 0.93839 0.60869 0.96313 0.0
C394 C 0.96108 0.60426 0.97239 0.0
C395 C 0.03051 0.51997 0.98517 0.0
O396 O 0.04737 0.52135 0.04615 0.0
O397 O 0.03575 0.5582 0.04018 0.0
O398 O 0.00785 0.46117 0.05127 0.0
O399 O 0.03849 0.47488 0.02496 0.0
O400 O 0.99725 0.50245 0.07821 0.0
O401 O 0.99684 0.52765 0.05065 0.0
O402 O 0.96598 0.52259 1.0071 0.0
O403 O 0.97489 0.4854 1.01684 0.0
O404 O 0.99682 0.5703 0.98478 0.0
O405 O 0.98754 0.57748 0.02531 0.0
O406 O 0.03497 0.54288 0.98701 0.0
O407 O 0.01126 0.51238 0.99832 0.0
H408 H 0.04421 0.41545 0.03549 0.0
H409 H 0.07714 0.4017 0.05973 0.0
H410 H 0.08681 0.46648 0.10585 0.0
H411 H 0.05414 0.48028 0.08099 0.0
H412 H 0.93928 0.56453 1.01889 0.0
H413 H 0.89938 0.57271 1.00301 0.0
H414 H 0.93847 0.62118 0.94766 0.0
H415 H 0.9782 0.61309 0.96365 0.0
H416 H 0.27307 0.2321 0.33919 0.0
H417 H 0.23878 0.21163 0.36556 0.0
H418 H 0.19003 0.25703 0.33677 0.0
H419 H 0.22425 0.2779 0.31072 0.0
H420 H 0.20451 0.23074 0.40424 0.0
H421 H 0.15849 0.18714 0.31585 0.0
H422 H 0.19094 0.2002 0.31601 0.0
H423 H 0.16738 0.21872 0.31537 0.0
C424 C 0.25519 0.23805 0.33886 0.0
C425 C 0.25131 0.25648 0.32265 0.0
C426 C 0.23563 0.22629 0.35386 0.0
C427 C 0.2119 0.23269 0.3528 0.0
C428 C 0.20818 0.25167 0.33754 0.0
H429 H 0.07021 0.15473 0.40748 0.0
H430 H 0.10162 0.18572 0.38931 0.0
C431 C 0.22771 0.26348 0.3226 0.0
C432 C 0.19072 0.21863 0.36651 0.0
H433 H 0.13837 0.17841 0.35596 0.0
C434 C 0.18994 0.21936 0.39376 0.0
C435 C 0.17175 0.20397 0.35268 0.0
C436 C 0.1721 0.20222 0.32336 0.0
C437 C 0.17063 0.20565 0.40763 0.0
C438 C 0.15203 0.19043 0.39381 0.0
C439 C 0.15258 0.19014 0.36652 0.0
C440 C 0.13279 0.17342 0.40706 0.0
C441 C 0.17029 0.2077 0.43691 0.0
C442 C 0.13989 0.1563 0.42309 0.0
C443 C 0.12205 0.13868 0.43348 0.0
C444 C 0.09673 0.13764 0.42781 0.0
C445 C 0.08958 0.15503 0.41209 0.0
C446 C 0.10748 0.17276 0.4018 0.0
H447 H 0.18022 0.22515 0.44379 0.0
H448 H 0.15097 0.20525 0.44479 0.0
H449 H 0.17992 0.1939 0.44496 0.0
H450 H 0.15935 0.15598 0.42677 0.0
H451 H 0.12823 0.12526 0.44504 0.0
H452 H 0.40399 0.92506 0.67747 0.0
H453 H 0.40662 0.93137 0.72463 0.0
H454 H 0.35773 0.98326 0.72078 0.0
H455 H 0.35427 0.97648 0.67383 0.0
H456 H 0.42326 0.97226 0.75289 0.0
H457 H 0.32433 0.93863 0.7763 0.0
H458 H 0.3383 0.93351 0.74505 0.0
H459 H 0.32858 0.96142 0.75259 0.0
C460 C 0.39365 0.93769 0.68669 0.0
C461 C 0.37885 0.95021 0.67191 0.0
C462 C 0.39526 0.94133 0.71359 0.0
C463 C 0.38201 0.95746 0.7262 0.0
C464 C 0.36769 0.97038 0.71147 0.0
H465 H 0.40869 1.02088 0.8791 0.0
H466 H 0.40286 1.01262 0.83258 0.0
C467 C 0.36604 0.96673 0.68459 0.0
C468 C 0.38361 0.96113 0.75472 0.0
H469 H 0.3487 0.95853 0.81063 0.0
C470 C 0.40699 0.96917 0.76554 0.0
C471 C 0.36238 0.95675 0.77118 0.0
C472 C 0.337 0.94688 0.76077 0.0
C473 C 0.40965 0.97346 0.79236 0.0
C474 C 0.38828 0.97002 0.80868 0.0
C475 C 0.36498 0.96143 0.79798 0.0
C476 C 0.38988 0.97525 0.83694 0.0
C477 C 0.43535 0.98142 0.80304 0.0
C478 C 0.38347 0.95713 0.85482 0.0
C479 C 0.3867 0.9618 0.88145 0.0
C480 C 0.39635 0.9847 0.89054 0.0
C481 C 0.40167 1.00298 0.87261 0.0
C482 C 0.39838 0.99831 0.84606 0.0
H483 H 0.45005 0.97729 0.78926 0.0
H484 H 0.43823 1.00083 0.80646 0.0
H485 H 0.43761 0.97293 0.82182 0.0
H486 H 0.37673 0.93923 0.84811 0.0
H487 H 0.38257 0.94735 0.8948 0.0
H488 H 0.6459 0.38529 0.72799 0.0
H489 H 0.62804 0.4052 0.69312 0.0
H490 H 0.57334 0.42549 0.74682 0.0
H491 H 0.59135 0.40586 0.782 0.0
H492 H 0.57865 0.39728 0.67346 0.0
H493 H 0.60403 0.48856 0.71347 0.0
H494 H 0.61796 0.46418 0.72467 0.0
H495 H 0.58723 0.4677 0.73547 0.0
C496 C 0.63022 0.39418 0.73255 0.0
C497 C 0.62029 0.39408 0.75804 0.0
C498 C 0.6199 0.40545 0.71246 0.0
C499 C 0.5995 0.41719 0.71727 0.0
C500 C 0.5893 0.41691 0.74259 0.0
H501 H 0.51735 0.50274 0.62331 0.0
H502 H 0.53445 0.48179 0.65777 0.0
C503 C 0.59951 0.40546 0.7627 0.0
C504 C 0.58887 0.42948 0.69573 0.0
H505 H 0.57901 0.48376 0.67609 0.0
C506 C 0.57876 0.4162 0.67401 0.0
C507 C 0.58894 0.45419 0.69633 0.0
C508 C 0.60029 0.4696 0.71859 0.0
C509 C 0.56829 0.42677 0.65327 0.0
C510 C 0.56849 0.45157 0.65375 0.0
C511 C 0.57871 0.46482 0.6755 0.0
C512 C 0.55794 0.46413 0.63224 0.0
C513 C 0.55644 0.41102 0.63147 0.0
C514 C 0.56548 0.46163 0.60614 0.0
C515 C 0.55544 0.47345 0.58624 0.0
C516 C 0.53792 0.48849 0.59192 0.0
C517 C 0.53079 0.49136 0.61809 0.0
C518 C 0.54061 0.47934 0.63792 0.0
H519 H 0.55074 0.39256 0.63786 0.0
H520 H 0.53984 0.41749 0.62395 0.0
H521 H 0.57013 0.41069 0.61532 0.0
H522 H 0.57937 0.4507 0.60107 0.0
H523 H 0.56165 0.47099 0.56643 0.0
H524 H 0.85139 0.61349 0.24004 0.0
H525 H 0.87273 0.59365 0.20632 0.0
H526 H 0.94248 0.63598 0.22761 0.0
H527 H 0.92097 0.65711 0.26042 0.0
H528 H 0.93917 0.63268 0.17623 0.0
H529 H 0.91356 0.54279 0.2146 0.0
H530 H 0.8866 0.55591 0.20831 0.0
H531 H 0.90818 0.56873 0.23288 0.0
C532 C 0.87124 0.61885 0.23753 0.0
C533 C 0.88431 0.6371 0.25318 0.0
C534 C 0.88354 0.60713 0.21837 0.0
C535 C 0.90939 0.61287 0.21459 0.0
C536 C 0.92256 0.63102 0.23016 0.0
H537 H 0.99425 0.52074 0.12628 0.0
H538 H 0.97588 0.54384 0.15967 0.0
C539 C 0.91022 0.64296 0.2492 0.0
C540 C 0.9225 0.60029 0.19409 0.0
H541 H 0.93007 0.54534 0.17138 0.0
C542 C 0.9373 0.61358 0.17529 0.0
C543 C 0.92048 0.57534 0.1929 0.0
C544 C 0.90657 0.55989 0.21341 0.0
C545 C 0.94972 0.60268 0.15526 0.0
C546 C 0.94676 0.57768 0.15341 0.0
C547 C 0.93222 0.56446 0.17243 0.0
C548 C 0.95913 0.56475 0.13258 0.0
C549 C 0.96638 0.61818 0.13674 0.0
C550 C 0.95608 0.56866 0.10597 0.0
C551 C 0.96704 0.55564 0.08675 0.0
C552 C 0.98086 0.53815 0.09375 0.0
C553 C 0.98377 0.53416 0.12027 0.0
C554 C 0.97319 0.54735 0.13941 0.0
H555 H 0.97264 0.63605 0.14537 0.0
H556 H 0.98305 0.61026 0.13112 0.0
H557 H 0.9559 0.62037 0.11889 0.0
H558 H 0.94472 0.58136 0.09998 0.0
H559 H 0.96394 0.55867 0.06649 0.0
H560 H 0.39598 0.24032 0.16238 0.0
H561 H 0.4125 0.20768 0.14057 0.0
H562 H 0.37098 0.15866 0.19358 0.0
H563 H 0.35501 0.19128 0.21606 0.0
H564 H 0.41992 0.15165 0.18643 0.0
H565 H 0.37425 0.15775 0.09182 0.0
H566 H 0.39242 0.18502 0.10279 0.0
H567 H 0.3653 0.17243 0.12107 0.0
C568 C 0.39049 0.22262 0.16953 0.0
C569 C 0.37408 0.2184 0.1909 0.0
C570 C 0.39973 0.20396 0.15685 0.0
C571 C 0.39262 0.18071 0.16519 0.0
C572 C 0.37652 0.17645 0.18671 0.0
H573 H 0.41913 0.05611 0.07532 0.0
H574 H 0.39986 0.08492 0.101 0.0
C575 C 0.36728 0.19509 0.1994 0.0
C576 C 0.40235 0.16088 0.15179 0.0
H577 H 0.40519 0.13285 0.0928 0.0
C578 C 0.41659 0.14743 0.16599 0.0
C579 C 0.39765 0.15519 0.12524 0.0
C580 C 0.38137 0.16819 0.10936 0.0
C581 C 0.42685 0.12883 0.15416 0.0
C582 C 0.42304 0.12381 0.12734 0.0
C583 C 0.40824 0.13685 0.11332 0.0
C584 C 0.43472 0.10551 0.11325 0.0
C585 C 0.4415 0.11461 0.17052 0.0
C586 C 0.46069 0.10754 0.11166 0.0
C587 C 0.47177 0.0911 0.09708 0.0
C588 C 0.45707 0.07238 0.0836 0.0
C589 C 0.43102 0.07025 0.08549 0.0
C590 C 0.41996 0.08672 0.10012 0.0
H591 H 0.43669 0.11608 0.19151 0.0
H592 H 0.43818 0.09567 0.16446 0.0
H593 H 0.46163 0.1214 0.16809 0.0
H594 H 0.47244 0.12218 0.12119 0.0
H595 H 0.49188 0.09338 0.096 0.0
H596 H 0.24227 0.93419 0.6086 0.0
H597 H 0.19805 0.93753 0.61184 0.0
H598 H 0.18971 0.9195 0.53025 0.0
H599 H 0.23373 0.91583 0.52695 0.0
H600 H 0.17938 0.97074 0.5824 0.0
H601 H 0.12689 0.88135 0.56323 0.0
H602 H 0.15877 0.88638 0.574 0.0
H603 H 0.15183 0.88933 0.54029 0.0
C604 C 0.23083 0.93035 0.59153 0.0
C605 C 0.24141 0.92491 0.56747 0.0
C606 C 0.20563 0.93225 0.59343 0.0
C607 C 0.1906 0.92841 0.57139 0.0
C608 C 0.20089 0.92202 0.54761 0.0
H609 H 0.06979 0.96487 0.4964 0.0
H610 H 0.10205 0.94546 0.51479 0.0
C611 C 0.22609 0.92027 0.54566 0.0
C612 C 0.16532 0.93457 0.57202 0.0
H613 H 0.10573 0.9141 0.55376 0.0
C614 C 0.16307 0.95829 0.57681 0.0
C615 C 0.14422 0.91822 0.5647 0.0
C616 C 0.14545 0.89234 0.56051 0.0
C617 C 0.14073 0.96656 0.57235 0.0
C618 C 0.11991 0.95044 0.56355 0.0
C619 C 0.12172 0.92639 0.56048 0.0
C620 C 0.09749 0.95882 0.554 0.0
C621 C 0.14026 0.99276 0.57515 0.0
C622 C 0.08359 0.97198 0.57018 0.0
C623 C 0.06546 0.98347 0.55958 0.0
C624 C 0.06073 0.98152 0.5328 0.0
C625 C 0.07327 0.96682 0.51707 0.0
C626 C 0.09159 0.95562 0.52758 0.0
H627 H 0.15919 1.00314 0.57736 0.0
H628 H 0.13153 0.99929 0.558 0.0
H629 H 0.12915 0.99622 0.59267 0.0
H630 H 0.0875 0.97421 0.59073 0.0
H631 H 0.05583 0.99454 0.57215 0.0
H632 H 0.73609 0.41612 0.92358 0.0
H633 H 0.7732 0.43793 0.94475 0.0
H634 H 0.81951 0.39776 0.89928 0.0
H635 H 0.78276 0.3763 0.87775 0.0
H636 H 0.8095 0.4205 0.97439 0.0
H637 H 0.85226 0.46633 0.88719 0.0
H638 H 0.82012 0.45236 0.88839 0.0
H639 H 0.84436 0.43488 0.88281 0.0
C640 C 0.75419 0.41209 0.91787 0.0
C641 C 0.75629 0.39437 0.89889 0.0
C642 C 0.77541 0.42449 0.93013 0.0
C643 C 0.79928 0.41974 0.92345 0.0
C644 C 0.80142 0.40206 0.90456 0.0
H645 H 0.93883 0.45225 1.007 0.0
H646 H 0.8995 0.4339 0.98765 0.0
C647 C 0.78026 0.38959 0.89243 0.0
C648 C 0.82193 0.43284 0.9365 0.0
H649 H 0.87777 0.46798 0.92452 0.0
C650 C 0.82436 0.43098 0.96349 0.0
C651 C 0.84128 0.44678 0.92242 0.0
C652 C 0.83937 0.45045 0.89364 0.0
C653 C 0.8458 0.44209 0.97659 0.0
C654 C 0.86556 0.4553 0.96235 0.0
C655 C 0.86281 0.4577 0.93547 0.0
C656 C 0.88926 0.46663 0.97488 0.0
C657 C 0.84702 0.43976 1.00565 0.0
C658 C 0.89698 0.49118 0.97392 0.0
C659 C 0.91955 0.50179 0.985 0.0
C660 C 0.93517 0.48807 0.9971 0.0
C661 C 0.92735 0.46346 0.99801 0.0
C662 C 0.90473 0.4529 0.98703 0.0
H663 H 0.82824 0.43458 1.01448 0.0
H664 H 0.85829 0.42589 1.01002 0.0
H665 H 0.85596 0.45658 1.01498 0.0
H666 H 0.8855 0.5022 0.96458 0.0
H667 H 0.92485 0.52075 0.98377 0.0
H668 H 0.76329 0.61181 0.40922 0.0
H669 H 0.72677 0.59185 0.43293 0.0
H670 H 0.6856 0.64665 0.41198 0.0
H671 H 0.722 0.66676 0.38864 0.0
H672 H 0.67863 0.63703 0.46198 0.0
H673 H 0.66431 0.55264 0.40538 0.0
H674 H 0.69472 0.55964 0.41914 0.0
H675 H 0.68537 0.57828 0.39477 0.0
C676 C 0.74638 0.61949 0.40948 0.0
C677 C 0.74569 0.64096 0.39705 0.0
C678 C 0.72543 0.60799 0.42297 0.0
C679 C 0.70316 0.61749 0.424 0.0
C680 C 0.70247 0.63889 0.41155 0.0
H681 H 0.55487 0.54839 0.47072 0.0
H682 H 0.59295 0.56483 0.44702 0.0
C683 C 0.7234 0.65046 0.39826 0.0
C684 C 0.68078 0.60574 0.43867 0.0
H685 H 0.63963 0.55419 0.44372 0.0
C686 C 0.67013 0.61891 0.45793 0.0
C687 C 0.66934 0.58217 0.43325 0.0
C688 C 0.67884 0.56741 0.41184 0.0
C689 C 0.64861 0.60927 0.47191 0.0
C690 C 0.63762 0.58547 0.46709 0.0
C691 C 0.64814 0.57232 0.44769 0.0
C692 C 0.6149 0.57419 0.48153 0.0
C693 C 0.63748 0.62498 0.49121 0.0
C694 C 0.61459 0.57331 0.50882 0.0
C695 C 0.59279 0.56411 0.52238 0.0
C696 C 0.57086 0.55526 0.50896 0.0
C697 C 0.57143 0.55517 0.48162 0.0
C698 C 0.59322 0.56455 0.46806 0.0
H699 H 0.64362 0.64399 0.4872 0.0
H700 H 0.61685 0.6213 0.49093 0.0
H701 H 0.64364 0.62171 0.51105 0.0
H702 H 0.63119 0.57997 0.5197 0.0
H703 H 0.59303 0.56418 0.54343 0.0
H704 H 0.24445 0.3189 0.17587 0.0
H705 H 0.21128 0.33691 0.15714 0.0
H706 H 0.25503 0.40596 0.16793 0.0
H707 H 0.28863 0.38802 0.18634 0.0
H708 H 0.18677 0.37206 0.18433 0.0
H709 H 0.2314 0.4036 0.09076 0.0
H710 H 0.24199 0.3808 0.10918 0.0
H711 H 0.24923 0.41112 0.11975 0.0
C712 C 0.24728 0.33788 0.17375 0.0
C713 C 0.26925 0.35203 0.18242 0.0
C714 C 0.22822 0.34814 0.16325 0.0
C715 C 0.23081 0.37271 0.16103 0.0
C716 C 0.25283 0.38693 0.16924 0.0
H717 H 0.12915 0.45949 0.09836 0.0
H718 H 0.16439 0.44612 0.11901 0.0
C719 C 0.27191 0.37667 0.17988 0.0
C720 C 0.2099 0.38339 0.15123 0.0
H721 H 0.19154 0.4129 0.1001 0.0
C722 C 0.18777 0.38104 0.16594 0.0
C723 C 0.21144 0.39523 0.12736 0.0
C724 C 0.2347 0.39779 0.11066 0.0
C725 C 0.16701 0.39017 0.15736 0.0
C726 C 0.16828 0.40145 0.13312 0.0
C727 C 0.19061 0.40421 0.11865 0.0
C728 C 0.14642 0.4098 0.12198 0.0
C729 C 0.14402 0.38786 0.17446 0.0
C730 C 0.12464 0.3938 0.11681 0.0
C731 C 0.10439 0.40142 0.10528 0.0
C732 C 0.10561 0.42517 0.09843 0.0
C733 C 0.12743 0.44118 0.10376 0.0
C734 C 0.14767 0.43354 0.11537 0.0
H735 H 0.14849 0.38553 0.19514 0.0
H736 H 0.13464 0.40359 0.17317 0.0
H737 H 0.13079 0.37208 0.16806 0.0
H738 H 0.12345 0.37531 0.12128 0.0
H739 H 0.08781 0.38868 0.10162 0.0
H740 H 0.63881 0.25335 0.92316 0.0
H741 H 0.61913 0.21685 0.94365 0.0
H742 H 0.55456 0.21549 0.89609 0.0
H743 H 0.57389 0.25207 0.87572 0.0
H744 H 0.57467 0.20505 0.97171 0.0
H745 H 0.57275 0.15017 0.88147 0.0
H746 H 0.59085 0.17934 0.88414 0.0
H747 H 0.55798 0.17573 0.87833 0.0
C748 C 0.62028 0.24551 0.91721 0.0
C749 C 0.60812 0.2558 0.89752 0.0
C750 C 0.60909 0.22448 0.9289 0.0
C751 C 0.5855 0.21301 0.92114 0.0
C752 C 0.57302 0.22355 0.90203 0.0
H753 H 0.4814 0.08791 0.95888 0.0
H754 H 0.50474 0.12442 0.942 0.0
C755 C 0.58417 0.24457 0.89034 0.0
C756 C 0.57393 0.1901 0.93293 0.0
H757 H 0.5497 0.13269 0.9176 0.0
C758 C 0.56939 0.18918 0.95991 0.0
C759 C 0.5671 0.16924 0.91765 0.0
C760 C 0.57261 0.16851 0.88884 0.0
C761 C 0.55741 0.16836 0.97178 0.0
C762 C 0.55012 0.14763 0.9564 0.0
C763 C 0.55514 0.14848 0.9295 0.0
C764 C 0.53613 0.12525 0.96739 0.0
C765 C 0.55183 0.16904 1.00058 0.0
C766 C 0.54592 0.11311 0.98727 0.0
C767 C 0.53244 0.09203 0.99707 0.0
C768 C 0.50896 0.08259 0.98713 0.0
C769 C 0.49941 0.09465 0.96708 0.0
C770 C 0.51278 0.1156 0.95734 0.0
H771 H 0.5531 0.18743 1.00834 0.0
H772 H 0.53295 0.15933 1.00497 0.0
H773 H 0.56553 0.16044 1.01097 0.0
H774 H 0.56412 0.11976 0.99503 0.0
H775 H 0.54045 0.08312 1.01225 0.0
H776 H 0.91183 0.76491 0.40941 0.0
H777 H 0.93025 0.80161 0.43207 0.0
H778 H 0.88453 0.84057 0.38801 0.0
H779 H 0.86591 0.80412 0.36556 0.0
H780 H 0.95608 0.84521 0.40914 0.0
H781 H 0.87146 0.85862 0.4655 0.0
H782 H 0.87529 0.83043 0.45097 0.0
H783 H 0.86703 0.85326 0.43119 0.0
C784 C 0.90559 0.78127 0.40466 0.0
C785 C 0.88739 0.7815 0.38559 0.0
C786 C 0.91622 0.80225 0.41754 0.0
C787 C 0.90862 0.82384 0.41193 0.0
C788 C 0.89052 0.82413 0.39289 0.0
H789 H 0.97844 0.96868 0.44768 0.0
H790 H 0.96018 0.93129 0.42655 0.0
C791 C 0.88005 0.80325 0.37988 0.0
C792 C 0.91971 0.84615 0.42568 0.0
H793 H 0.90545 0.89016 0.46649 0.0
C794 C 0.94503 0.855 0.42174 0.0
C795 C 0.90536 0.85886 0.4423 0.0
C796 C 0.87832 0.84979 0.448 0.0
C797 C 0.95623 0.87643 0.43352 0.0
C798 C 0.94171 0.88945 0.44959 0.0
C799 C 0.91652 0.88033 0.45397 0.0
C800 C 0.95245 0.91237 0.46237 0.0
C801 C 0.98359 0.88488 0.42894 0.0
C802 C 0.95372 0.91439 0.48958 0.0
C803 C 0.96418 0.93573 0.50173 0.0
C804 C 0.97338 0.95568 0.48696 0.0
C805 C 0.97159 0.95374 0.4597 0.0
C806 C 0.96129 0.9323 0.44756 0.0
H807 H 0.99319 0.87059 0.42081 0.0
H808 H 0.98593 0.89947 0.41489 0.0
H809 H 0.99277 0.89177 0.4473 0.0
H810 H 0.94691 0.89931 0.50144 0.0
H811 H 0.96511 0.93653 0.52275 0.0
H812 H 0.41014 0.83975 0.50985 0.0
H813 H 0.41958 0.79945 0.50957 0.0
H814 H 0.34945 0.77538 0.54796 0.0
H815 H 0.34014 0.81562 0.54892 0.0
H816 H 0.3909 0.76446 0.57342 0.0
H817 H 0.39213 0.73803 0.46898 0.0
H818 H 0.41001 0.76648 0.47641 0.0
H819 H 0.37684 0.76191 0.48109 0.0
C820 C 0.39661 0.82581 0.51794 0.0
C821 C 0.37444 0.83086 0.52947 0.0
C822 C 0.4019 0.80277 0.5175 0.0
C823 C 0.38507 0.78446 0.5285 0.0
C824 C 0.36254 0.78928 0.53917 0.0
H825 H 0.4055 0.63709 0.54139 0.0
H826 H 0.38782 0.6727 0.53254 0.0
C827 C 0.35722 0.81226 0.53957 0.0
C828 C 0.39225 0.76096 0.53165 0.0
H829 H 0.41075 0.71447 0.49837 0.0
C830 C 0.39496 0.7534 0.55701 0.0
C831 C 0.39738 0.74658 0.51019 0.0
C832 C 0.39374 0.75351 0.48261 0.0
C833 C 0.40355 0.73215 0.5615 0.0
C834 C 0.40971 0.7183 0.54008 0.0
C835 C 0.40617 0.72536 0.5147 0.0
C836 C 0.42074 0.69685 0.54389 0.0
C837 C 0.40631 0.72477 0.58911 0.0
C838 C 0.44515 0.69884 0.5528 0.0
C839 C 0.45538 0.67863 0.55764 0.0
C840 C 0.4413 0.65607 0.55374 0.0
C841 C 0.41691 0.65419 0.54436 0.0
C842 C 0.40675 0.67446 0.53937 0.0
H843 H 0.39636 0.73499 0.60324 0.0
H844 H 0.39911 0.70566 0.59121 0.0
H845 H 0.42631 0.72775 0.59414 0.0
H846 H 0.45624 0.71606 0.55614 0.0
H847 H 0.47436 0.68069 0.56434 0.0
H848 H 0.76293 0.86175 0.77486 0.0
H849 H 0.78711 0.87569 0.73659 0.0
H850 H 0.80166 0.80521 0.71967 0.0
H851 H 0.77665 0.79075 0.7577 0.0
H852 H 0.84435 0.84041 0.7262 0.0
H853 H 0.77881 0.86865 0.65693 0.0
H854 H 0.77438 0.8787 0.68974 0.0
H855 H 0.76897 0.84756 0.68208 0.0
C856 C 0.7704 0.84894 0.76255 0.0
C857 C 0.76785 0.82509 0.76948 0.0
C858 C 0.78428 0.857 0.74063 0.0
C859 C 0.79593 0.84143 0.72519 0.0
C860 C 0.79264 0.81744 0.73131 0.0
H861 H 0.9244 0.89416 0.62455 0.0
H862 H 0.89094 0.86609 0.6442 0.0
C863 C 0.77853 0.80928 0.75315 0.0
C864 C 0.81433 0.85108 0.70522 0.0
H865 H 0.8217 0.88688 0.6528 0.0
C866 C 0.83945 0.85011 0.70974 0.0
C867 C 0.80777 0.86378 0.68394 0.0
C868 C 0.78098 0.86459 0.6777 0.0
C869 C 0.85837 0.86297 0.69467 0.0
C870 C 0.85185 0.87663 0.67408 0.0
C871 C 0.82665 0.87646 0.66864 0.0
C872 C 0.87083 0.89303 0.65979 0.0
C873 C 0.88509 0.86308 0.70209 0.0
C874 C 0.87005 0.91736 0.66114 0.0
C875 C 0.88891 0.93332 0.64969 0.0
C876 C 0.90895 0.92524 0.6368 0.0
C877 C 0.90934 0.90083 0.63477 0.0
C878 C 0.89029 0.88483 0.64598 0.0
H879 H 0.88662 0.85577 0.72169 0.0
H880 H 0.89389 0.85207 0.68784 0.0
H881 H 0.89575 0.88128 0.7019 0.0
H882 H 0.85521 0.92406 0.67173 0.0
H883 H 0.88822 0.95205 0.65165 0.0
H884 H 0.74162 0.19915 0.29437 0.0
H885 H 0.71727 0.17602 0.26033 0.0
H886 H 0.65075 0.17463 0.30728 0.0
H887 H 0.67498 0.19782 0.34139 0.0
H888 H 0.68985 0.13119 0.26496 0.0
H889 H 0.62946 0.19561 0.23704 0.0
H890 H 0.65713 0.20401 0.2561 0.0
H891 H 0.62895 0.18946 0.27112 0.0
C892 C 0.72179 0.19399 0.29738 0.0
C893 C 0.71019 0.20033 0.3205 0.0
C894 C 0.70791 0.18084 0.27793 0.0
C895 C 0.68219 0.17385 0.28119 0.0
C896 C 0.67049 0.18029 0.30415 0.0
H897 H 0.57344 0.08607 0.1828 0.0
H898 H 0.59435 0.10846 0.21953 0.0
C899 C 0.68435 0.19353 0.3236 0.0
C900 C 0.6679 0.15893 0.261 0.0
H901 H 0.62051 0.15721 0.21806 0.0
C902 C 0.67471 0.13688 0.25468 0.0
C903 C 0.64807 0.16638 0.24776 0.0
C904 C 0.64055 0.19024 0.25313 0.0
C905 C 0.66224 0.12207 0.23538 0.0
C906 C 0.64267 0.12966 0.22193 0.0
C907 C 0.63553 0.15149 0.22853 0.0
C908 C 0.63016 0.11567 0.20008 0.0
C909 C 0.67 0.09838 0.22958 0.0
C910 C 0.6434 0.11255 0.17702 0.0
C911 C 0.63152 0.10003 0.15595 0.0
C912 C 0.60612 0.09037 0.15756 0.0
C913 C 0.59294 0.09348 0.18081 0.0
C914 C 0.60485 0.10614 0.20185 0.0
H915 H 0.68107 0.09283 0.24559 0.0
H916 H 0.65349 0.08459 0.2263 0.0
H917 H 0.68163 0.09951 0.21161 0.0
H918 H 0.66286 0.12017 0.17517 0.0
H919 H 0.64211 0.09842 0.13819 0.0
H920 H 0.39278 0.67774 0.32234 0.0
H921 H 0.40996 0.65949 0.35915 0.0
H922 H 0.41528 0.5976 0.31162 0.0
H923 H 0.39865 0.61579 0.27473 0.0
H924 H 0.39196 0.61611 0.38425 0.0
H925 H 0.48563 0.6148 0.34107 0.0
H926 H 0.46427 0.63259 0.3284 0.0
H927 H 0.4605 0.6015 0.32073 0.0
C928 C 0.39779 0.66032 0.31961 0.0
C929 C 0.39424 0.64833 0.29538 0.0
C930 C 0.4075 0.64983 0.34078 0.0
C931 C 0.41428 0.62722 0.3382 0.0
C932 C 0.41061 0.61517 0.31413 0.0
H933 H 0.47853 0.53095 0.43563 0.0
H934 H 0.46108 0.55122 0.40079 0.0
C935 C 0.40078 0.62555 0.29305 0.0
C936 C 0.42488 0.61605 0.36064 0.0
H937 H 0.47591 0.59319 0.37963 0.0
C938 C 0.41039 0.61125 0.38332 0.0
C939 C 0.44891 0.60958 0.35952 0.0
C940 C 0.46587 0.61504 0.33624 0.0
C941 C 0.4189 0.59961 0.40446 0.0
C942 C 0.44293 0.59301 0.40331 0.0
C943 C 0.4575 0.59808 0.38069 0.0
C944 C 0.45321 0.58055 0.42504 0.0
C945 C 0.40164 0.59376 0.42743 0.0
C946 C 0.455 0.59021 0.45048 0.0
C947 C 0.46487 0.5785 0.47058 0.0
C948 C 0.47352 0.55692 0.46577 0.0
C949 C 0.47203 0.54746 0.44021 0.0
C950 C 0.46204 0.5591 0.42017 0.0
H951 H 0.3819 0.59358 0.42219 0.0
H952 H 0.40345 0.5763 0.43535 0.0
H953 H 0.40637 0.6074 0.44299 0.0
H954 H 0.44909 0.60703 0.4548 0.0
H955 H 0.46606 0.58661 0.48982 0.0
H956 H 0.14842 0.4344 0.79404 0.0
H957 H 0.13032 0.45637 0.82881 0.0
H958 H 0.07932 0.3936 0.84837 0.0
H959 H 0.0972 0.37153 0.81362 0.0
H960 H 0.08249 0.46529 0.83765 0.0
H961 H 0.11068 0.41334 0.9183 0.0
H962 H 0.12296 0.41141 0.88567 0.0
H963 H 0.09263 0.39576 0.8939 0.0
C964 C 0.13317 0.42528 0.80552 0.0
C965 C 0.12445 0.40106 0.80102 0.0
C966 C 0.12292 0.43787 0.82555 0.0
C967 C 0.10378 0.42658 0.84167 0.0
C968 C 0.09453 0.40261 0.83674 0.0
H969 H 0.01778 0.47286 0.97272 0.0
H970 H 0.03563 0.45034 0.93807 0.0
C971 C 0.10478 0.39 0.81677 0.0
C972 C 0.09339 0.43992 0.86343 0.0
H973 H 0.08382 0.44086 0.92937 0.0
C974 C 0.08289 0.46 0.85771 0.0
C975 C 0.09383 0.43306 0.88968 0.0
C976 C 0.10583 0.41235 0.89737 0.0
C977 C 0.07249 0.47308 0.87733 0.0
C978 C 0.07296 0.46623 0.90358 0.0
C979 C 0.0834 0.44613 0.9093 0.0
C980 C 0.06278 0.47974 0.92532 0.0
C981 C 0.06055 0.49383 0.86966 0.0
C982 C 0.07246 0.50362 0.93024 0.0
C983 C 0.06233 0.5165 0.95005 0.0
C984 C 0.04237 0.50575 0.96554 0.0
C985 C 0.03316 0.48166 0.96114 0.0
C986 C 0.04332 0.46877 0.94131 0.0
H987 H 0.05571 0.49288 0.84873 0.0
H988 H 0.04342 0.49479 0.88136 0.0
H989 H 0.07378 0.51039 0.87318 0.0
H990 H 0.08784 0.51238 0.91864 0.0
H991 H 0.06994 0.53498 0.95304 0.0
H992 H 0.61327 0.82795 0.89979 0.0
H993 H 0.5813 0.85329 0.90614 0.0
H994 H 0.63842 0.91479 0.90846 0.0
H995 H 0.67009 0.88991 0.90101 0.0
H996 H 0.57621 0.88087 0.94791 0.0
H997 H 0.5893 0.93736 0.862 0.0
H998 H 0.60229 0.9104 0.86368 0.0
H999 H 0.61839 0.93756 0.87779 0.0
C1000 C 0.61891 0.84692 0.9011 0.0
C1001 C 0.64422 0.85691 0.90015 0.0
C1002 C 0.60066 0.86135 0.90478 0.0
C1003 C 0.60744 0.88598 0.90731 0.0
C1004 C 0.63265 0.89593 0.90587 0.0
H1005 H 0.56295 1.00025 0.9876 0.0
H1006 H 0.58242 0.9714 0.96233 0.0
C1007 C 0.6508 0.8816 0.90211 0.0
C1008 C 0.58873 0.90127 0.91423 0.0
H1009 H 0.57175 0.95441 0.90063 0.0
C1010 C 0.57472 0.89661 0.93719 0.0
C1011 C 0.5867 0.92179 0.90017 0.0
C1012 C 0.5998 0.92691 0.87439 0.0
C1013 C 0.56015 0.91276 0.94742 0.0
C1014 C 0.55966 0.93403 0.93437 0.0
C1015 C 0.57243 0.93812 0.91066 0.0
C1016 C 0.54792 0.95305 0.94656 0.0
C1017 C 0.54641 0.9077 0.97288 0.0
C1018 C 0.52218 0.95251 0.94539 0.0
C1019 C 0.51094 0.96902 0.95974 0.0
C1020 C 0.52533 0.98617 0.97562 0.0
C1021 C 0.5513 0.98722 0.97572 0.0
C1022 C 0.56248 0.97081 0.96126 0.0
H1023 H 0.54857 0.89022 0.98054 0.0
H1024 H 0.55339 0.92161 0.98754 0.0
H1025 H 0.52631 0.90814 0.97027 0.0
H1026 H 0.51072 0.93884 0.93411 0.0
H1027 H 0.4909 0.96769 0.9592 0.0
H1028 H 0.85224 0.17668 0.41235 0.0
H1029 H 0.87621 0.1462 0.42485 0.0
H1030 H 0.8351 0.13768 0.49726 0.0
H1031 H 0.81143 0.16851 0.48519 0.0
H1032 H 0.88715 0.14302 0.50222 0.0
H1033 H 0.852 0.07413 0.42824 0.0
H1034 H 0.8632 0.10278 0.41537 0.0
H1035 H 0.83621 0.09878 0.43631 0.0
C1036 C 0.84841 0.16839 0.43099 0.0
C1037 C 0.82997 0.17494 0.44781 0.0
C1038 C 0.86188 0.15081 0.43794 0.0
C1039 C 0.85707 0.13948 0.46175 0.0
C1040 C 0.83885 0.1461 0.47867 0.0
H1041 H 0.91746 1.01925 0.51975 0.0
H1042 H 0.88937 0.04518 0.50408 0.0
C1043 C 0.82533 0.16362 0.47172 0.0
C1044 C 0.87193 0.12155 0.46962 0.0
H1045 H 0.88691 0.06762 0.45276 0.0
C1046 C 0.88701 0.12648 0.49151 0.0
C1047 C 0.87143 0.09993 0.45571 0.0
C1048 C 0.85468 0.09341 0.43272 0.0
C1049 C 0.90216 0.11055 0.49953 0.0
C1050 C 0.90236 0.08932 0.48507 0.0
C1051 C 0.8868 0.08406 0.46358 0.0
C1052 C 0.91902 0.07265 0.49194 0.0
C1053 C 0.91783 0.11651 0.52343 0.0
C1054 C 0.94482 0.07934 0.4895 0.0
C1055 C 0.96079 0.06468 0.49838 0.0
C1056 C 0.95115 0.04307 0.50978 0.0
C1057 C 0.92529 0.03588 0.51112 0.0
C1058 C 0.90929 0.0506 0.50218 0.0
H1059 H 0.91141 0.13073 0.53553 0.0
H1060 H 0.91749 0.1007 0.53553 0.0
H1061 H 0.93739 0.1227 0.51739 0.0
H1062 H 0.9526 0.09621 0.48136 0.0
H1063 H 0.98066 0.07063 0.49711 0.0
H1064 H 0.26107 0.66923 0.11788 0.0
H1065 H 0.22174 0.64972 0.09964 0.0
H1066 H 0.20844 0.60617 0.16706 0.0
H1067 H 0.24804 0.62527 0.18531 0.0
H1068 H 0.20712 0.60158 0.08717 0.0
H1069 H 0.14285 0.63241 0.16038 0.0
H1070 H 0.17503 0.64593 0.15722 0.0
H1071 H 0.16696 0.61841 0.1736 0.0
C1072 C 0.24992 0.65543 0.12888 0.0
C1073 C 0.258 0.64889 0.15316 0.0
C1074 C 0.22729 0.64434 0.11842 0.0
C1075 C 0.2119 0.62657 0.132 0.0
C1076 C 0.21969 0.62012 0.15635 0.0
H1077 H 0.09065 0.52428 0.06549 0.0
H1078 H 0.1292 0.54364 0.08572 0.0
C1079 C 0.24241 0.63115 0.16682 0.0
C1080 C 0.18814 0.61438 0.12025 0.0
H1081 H 0.12492 0.60397 0.1291 0.0
C1082 C 0.18916 0.6021 0.09637 0.0
C1083 C 0.1646 0.6152 0.13204 0.0
C1084 C 0.16213 0.62885 0.15711 0.0
C1085 C 0.16745 0.59049 0.08417 0.0
C1086 C 0.14394 0.59092 0.0962 0.0
C1087 C 0.14289 0.60342 0.11993 0.0
C1088 C 0.12024 0.57896 0.08416 0.0
C1089 C 0.16983 0.57824 0.05819 0.0
C1090 C 0.10198 0.59221 0.07693 0.0
C1091 C 0.07985 0.58118 0.06531 0.0
C1092 C 0.07527 0.55654 0.06081 0.0
C1093 C 0.09347 0.54328 0.06843 0.0
C1094 C 0.11566 0.55435 0.07995 0.0
H1095 H 0.18819 0.58418 0.04876 0.0
H1096 H 0.16788 0.55892 0.06102 0.0
H1097 H 0.15498 0.58149 0.04485 0.0
H1098 H 0.10497 0.61119 0.08004 0.0
H1099 H 0.06632 0.59204 0.05989 0.0
H1100 H 0.27614 0.37229 0.64279 0.0
H1101 H 0.3128 0.39263 0.62013 0.0
H1102 H 0.29529 0.45977 0.64727 0.0
H1103 H 0.25786 0.43959 0.66916 0.0
H1104 H 0.30995 0.46101 0.59627 0.0
H1105 H 0.3773 0.42195 0.65402 0.0
H1106 H 0.35458 0.40004 0.6387 0.0
H1107 H 0.34492 0.41968 0.66323 0.0
C1108 C 0.27978 0.3914 0.6437 0.0
C1109 C 0.26389 0.40422 0.65795 0.0
C1110 C 0.30106 0.40302 0.63101 0.0
C1111 C 0.3072 0.42774 0.63242 0.0
C1112 C 0.29113 0.44067 0.64609 0.0
H1113 H 0.45483 0.502 0.58734 0.0
H1114 H 0.41651 0.48708 0.61149 0.0
C1115 C 0.26978 0.42906 0.65876 0.0
C1116 C 0.33025 0.44005 0.61947 0.0
H1117 H 0.3933 0.44208 0.61582 0.0
C1118 C 0.32819 0.45697 0.60066 0.0
C1119 C 0.35417 0.43517 0.62548 0.0
C1120 C 0.35798 0.41841 0.64665 0.0
C1121 C 0.34921 0.46854 0.58721 0.0
C1122 C 0.37298 0.46276 0.5923 0.0
C1123 C 0.37511 0.44638 0.61166 0.0
C1124 C 0.39579 0.47308 0.57747 0.0
C1125 C 0.34575 0.48706 0.56788 0.0
C1126 C 0.39702 0.47023 0.5503 0.0
C1127 C 0.41884 0.47885 0.53649 0.0
C1128 C 0.44003 0.4903 0.54956 0.0
C1129 C 0.43878 0.49332 0.57672 0.0
C1130 C 0.4169 0.48474 0.59054 0.0
H1131 H 0.32852 0.4946 0.57211 0.0
H1132 H 0.36181 0.50167 0.56786 0.0
H1133 H 0.34407 0.47885 0.54811 0.0
H1134 H 0.38128 0.46082 0.53977 0.0
H1135 H 0.41925 0.47612 0.5156 0.0
H1136 H 0.75718 0.70253 0.86565 0.0
H1137 H 0.78052 0.67078 0.8742 0.0
H1138 H 0.75845 0.67235 0.95501 0.0
H1139 H 0.73413 0.7035 0.94642 0.0
H1140 H 0.81959 0.68122 0.90691 0.0
H1141 H 0.75702 0.60193 0.94144 0.0
H1142 H 0.74591 0.62481 0.92358 0.0
H1143 H 0.75185 0.62874 0.95782 0.0
C1144 C 0.75631 0.69545 0.88502 0.0
C1145 C 0.74396 0.70576 0.90543 0.0
C1146 C 0.76983 0.67735 0.8899 0.0
C1147 C 0.77123 0.66917 0.91522 0.0
C1148 C 0.75735 0.67811 0.93523 0.0
H1149 H 0.87642 0.60819 1.00278 0.0
H1150 H 0.83948 0.6224 0.98674 0.0
C1151 C 0.7437 0.69615 0.93035 0.0
C1152 C 0.79045 0.65469 0.92148 0.0
H1153 H 0.80035 0.60465 0.95153 0.0
C1154 C 0.81534 0.66427 0.91625 0.0
C1155 C 0.78487 0.63277 0.934 0.0
C1156 C 0.75844 0.62133 0.93934 0.0
C1157 C 0.83488 0.65296 0.92392 0.0
C1158 C 0.82937 0.63116 0.93671 0.0
C1159 C 0.80447 0.62132 0.94163 0.0
C1160 C 0.84948 0.61909 0.9461 0.0
C1161 C 0.86129 0.66498 0.91923 0.0
C1162 C 0.86679 0.61174 0.92851 0.0
C1163 C 0.88795 0.60385 0.93761 0.0
C1164 C 0.89196 0.60288 0.96444 0.0
C1165 C 0.87376 0.60874 0.982 0.0
C1166 C 0.85268 0.61683 0.97287 0.0
H1167 H 0.86225 0.68397 0.9148 0.0
H1168 H 0.873 0.6636 0.93641 0.0
H1169 H 0.86935 0.65628 0.90238 0.0
H1170 H 0.86439 0.61294 0.90776 0.0
H1171 H 0.90148 0.59903 0.92366 0.0
H1172 H 0.42836 0.8004 0.18532 0.0
H1173 H 0.44218 0.83928 0.16696 0.0
H1174 H 0.37533 0.83219 0.12198 0.0
H1175 H 0.36156 0.79299 0.13965 0.0
H1176 H 0.45067 0.85093 0.11373 0.0
H1177 H 0.37828 0.8977 0.15835 0.0
H1178 H 0.38457 0.86986 0.17007 0.0
H1179 H 0.36677 0.87062 0.14112 0.0
C1180 C 0.41655 0.80693 0.17141 0.0
C1181 C 0.39373 0.79324 0.16409 0.0
C1182 C 0.42449 0.82933 0.16101 0.0
C1183 C 0.40975 0.8389 0.14322 0.0
C1184 C 0.38689 0.82547 0.136 0.0
H1185 H 0.46093 0.95795 0.04041 0.0
H1186 H 0.44287 0.91947 0.05802 0.0
C1187 C 0.37898 0.80298 0.14628 0.0
C1188 C 0.4187 0.86257 0.13171 0.0
H1189 H 0.40556 0.9188 0.12762 0.0
C1190 C 0.44076 0.86574 0.11674 0.0
C1191 C 0.40596 0.88206 0.13576 0.0
C1192 C 0.38268 0.88008 0.15236 0.0
C1193 C 0.45024 0.88763 0.1056 0.0
C1194 C 0.43731 0.90703 0.10931 0.0
C1195 C 0.41539 0.90395 0.12451 0.0
C1196 C 0.44681 0.93081 0.09837 0.0
C1197 C 0.47437 0.88999 0.09035 0.0
C1198 C 0.45437 0.95032 0.11505 0.0
C1199 C 0.46471 0.97234 0.10501 0.0
C1200 C 0.46749 0.97548 0.07802 0.0
C1201 C 0.45906 0.95617 0.06129 0.0
C1202 C 0.44888 0.93409 0.07136 0.0
H1203 H 0.48464 0.87515 0.09384 0.0
H1204 H 0.47037 0.89006 0.06928 0.0
H1205 H 0.48656 0.90686 0.09546 0.0
H1206 H 0.4529 0.94835 0.13593 0.0
H1207 H 0.47096 0.98682 0.11844 0.0
H1208 H 0.11402 0.23965 0.70047 0.0
H1209 H 0.09657 0.2034 0.67695 0.0
H1210 H 0.11731 0.23707 0.60409 0.0
H1211 H 0.13555 0.27324 0.62752 0.0
H1212 H 0.05911 0.19443 0.64075 0.0
H1213 H 0.14841 0.17713 0.59696 0.0
H1214 H 0.14701 0.19858 0.62296 0.0
H1215 H 0.14073 0.20562 0.59012 0.0
C1216 C 0.11508 0.23935 0.67944 0.0
C1217 C 0.1265 0.25941 0.66597 0.0
C1218 C 0.10492 0.2186 0.66599 0.0
C1219 C 0.106 0.21725 0.63872 0.0
C1220 C 0.11669 0.23743 0.62513 0.0
H1221 H 0.05708 0.1022 0.52706 0.0
H1222 H 0.07398 0.13989 0.54813 0.0
C1223 C 0.12685 0.25825 0.63859 0.0
C1224 C 0.09587 0.19472 0.62469 0.0
H1225 H 0.11204 0.15153 0.58385 0.0
C1226 C 0.07071 0.18505 0.62834 0.0
C1227 C 0.11095 0.18242 0.60842 0.0
C1228 C 0.13833 0.1913 0.60449 0.0
C1229 C 0.06019 0.16364 0.61606 0.0
C1230 C 0.07533 0.1512 0.60003 0.0
C1231 C 0.10042 0.16099 0.59615 0.0
C1232 C 0.0655 0.12795 0.58729 0.0
C1233 C 0.03282 0.15476 0.62001 0.0
C1234 C 0.05552 0.10841 0.60222 0.0
C1235 C 0.0459 0.08673 0.59021 0.0
C1236 C 0.04615 0.08398 0.56293 0.0
C1237 C 0.05664 0.10348 0.54806 0.0
C1238 C 0.06628 0.12515 0.56011 0.0
H1239 H 0.02262 0.16915 0.62664 0.0
H1240 H 0.02427 0.14667 0.60181 0.0
H1241 H 0.03039 0.14109 0.63514 0.0
H1242 H 0.05518 0.1099 0.62324 0.0
H1243 H 0.03812 0.07216 0.60237 0.0
H1244 H 0.71899 0.28155 0.52685 0.0
H1245 H 0.6884 0.29921 0.55296 0.0
H1246 H 0.63388 0.27925 0.49322 0.0
H1247 H 0.66399 0.26162 0.46741 0.0
H1248 H 0.67093 0.33597 0.53701 0.0
H1249 H 0.58991 0.26816 0.55572 0.0
H1250 H 0.6199 0.26058 0.54675 0.0
H1251 H 0.59839 0.26597 0.52211 0.0
C1252 C 0.70027 0.28048 0.51964 0.0
C1253 C 0.69392 0.27029 0.49503 0.0
C1254 C 0.68278 0.29039 0.53465 0.0
C1255 C 0.65868 0.29022 0.5253 0.0
C1256 C 0.65202 0.27892 0.50135 0.0
H1257 H 0.56084 0.37073 0.48695 0.0
H1258 H 0.58339 0.33978 0.50023 0.0
C1259 C 0.66938 0.26895 0.48645 0.0
C1260 C 0.64205 0.30553 0.53747 0.0
H1261 H 0.58025 0.30799 0.54545 0.0
C1262 C 0.65122 0.32978 0.53995 0.0
C1263 C 0.61639 0.29747 0.54161 0.0
C1264 C 0.60571 0.27155 0.54168 0.0
C1265 C 0.63506 0.34635 0.54309 0.0
C1266 C 0.60914 0.33835 0.54395 0.0
C1267 C 0.60015 0.31404 0.54444 0.0
C1268 C 0.59153 0.35466 0.53876 0.0
C1269 C 0.64566 0.37233 0.54275 0.0
C1270 C 0.58797 0.37286 0.5564 0.0
C1271 C 0.57495 0.39064 0.54886 0.0
C1272 C 0.56537 0.39043 0.52358 0.0
C1273 C 0.56775 0.37135 0.50661 0.0
C1274 C 0.58066 0.35363 0.51417 0.0
H1275 H 0.66623 0.37552 0.54047 0.0
H1276 H 0.63754 0.38091 0.52658 0.0
H1277 H 0.64074 0.38097 0.56122 0.0
H1278 H 0.59608 0.3738 0.57555 0.0
H1279 H 0.57298 0.40489 0.56256 0.0
loop_
_geom_bond_atom_site_label_1
_geom_bond_atom_site_label_2
_geom_bond_distance
_geom_bond_site_symmetry_2
_ccdc_geom_bond_type
P0 O11 1.490 . S
P0 C14 1.812 . S
P0 C20 1.803 . S
P0 C26 1.819 . S
H1 C15 0.941 . S
H2 C16 0.939 . S
H3 C18 0.940 . S
H4 C19 0.940 . S
H5 C21 0.939 . S
H6 C22 0.942 . S
H7 C24 0.940 . S
H8 C25 0.939 . S
H9 C27 0.941 . S
H10 C31 0.939 . S
O11 P0 1.490 . S
H12 C28 0.939 . S
H13 C30 0.940 . S
C14 P0 1.812 . S
C14 C15 1.389 . S
C14 C19 1.391 . S
C15 H1 0.941 . S
C15 C14 1.389 . S
C15 C16 1.397 . S
C16 H2 0.939 . S
C16 C15 1.397 . S
C16 C17 1.378 . S
C17 C16 1.378 . S
C17 C18 1.378 . S
C18 H3 0.940 . S
C18 C17 1.378 . S
C18 C19 1.396 . S
C19 H4 0.940 . S
C19 C14 1.391 . S
C19 C18 1.396 . S
C20 P0 1.803 . S
C20 C21 1.378 . S
C20 C25 1.400 . S
C21 H5 0.939 . S
C21 C20 1.378 . S
C21 C22 1.361 . S
C22 H6 0.942 . S
C22 C21 1.361 . S
C22 C23 1.369 . S
C23 C22 1.369 . S
C23 C24 1.404 . S
C24 H7 0.940 . S
C24 C23 1.404 . S
C24 C25 1.389 . S
C25 H8 0.939 . S
C25 C20 1.400 . S
C25 C24 1.389 . S
C26 P0 1.819 . S
C26 C27 1.391 . S
C26 C31 1.391 . S
C27 H9 0.941 . S
C27 C26 1.391 . S
C27 C28 1.396 . S
C28 H12 0.939 . S
C28 C27 1.396 . S
C28 C29 1.397 . S
C29 C28 1.397 . S
C29 C30 1.385 . S
C30 H13 0.940 . S
C30 C29 1.385 . S
C30 C31 1.388 . S
C31 H10 0.939 . S
C31 C26 1.391 . S
C31 C30 1.388 . S
P32 O43 1.490 . S
P32 C46 1.812 . S
P32 C52 1.803 . S
P32 C58 1.819 . S
H33 C47 0.941 . S
H34 C48 0.939 . S
H35 C50 0.940 . S
H36 C51 0.940 . S
H37 C53 0.939 . S
H38 C54 0.942 . S
H39 C56 0.940 . S
H40 C57 0.939 . S
H41 C59 0.941 . S
H42 C63 0.939 . S
O43 P32 1.490 . S
H44 C60 0.939 . S
H45 C62 0.940 . S
C46 P32 1.812 . S
C46 C47 1.389 . S
C46 C51 1.391 . S
C47 H33 0.941 . S
C47 C46 1.389 . S
C47 C48 1.397 . S
C48 H34 0.939 . S
C48 C47 1.397 . S
C48 C49 1.378 . S
C49 C48 1.378 . S
C49 C50 1.378 . S
C50 H35 0.940 . S
C50 C49 1.378 . S
C50 C51 1.396 . S
C51 H36 0.940 . S
C51 C46 1.391 . S
C51 C50 1.396 . S
C52 P32 1.803 . S
C52 C53 1.378 . S
C52 C57 1.400 . S
C53 H37 0.939 . S
C53 C52 1.378 . S
C53 C54 1.361 . S
C54 H38 0.942 . S
C54 C53 1.361 . S
C54 C55 1.369 . S
C55 C54 1.369 . S
C55 C56 1.404 . S
C56 H39 0.940 . S
C56 C55 1.404 . S
C56 C57 1.389 . S
C57 H40 0.939 . S
C57 C52 1.400 . S
C57 C56 1.389 . S
C58 P32 1.819 . S
C58 C59 1.391 . S
C58 C63 1.391 . S
C59 H41 0.941 . S
C59 C58 1.391 . S
C59 C60 1.396 . S
C60 H44 0.939 . S
C60 C59 1.396 . S
C60 C61 1.397 . S
C61 C60 1.397 . S
C61 C62 1.385 . S
C62 H45 0.940 . S
C62 C61 1.385 . S
C62 C63 1.388 . S
C63 H42 0.939 . S
C63 C58 1.391 . S
C63 C62 1.388 . S
P64 O75 1.490 . S
P64 C78 1.812 . S
P64 C84 1.803 . S
P64 C90 1.819 . S
H65 C79 0.941 . S
H66 C80 0.939 . S
H67 C82 0.940 . S
H68 C83 0.940 . S
H69 C85 0.939 . S
H70 C86 0.942 . S
H71 C88 0.940 . S
H72 C89 0.939 . S
H73 C91 0.941 . S
H74 C95 0.939 . S
O75 P64 1.490 . S
H76 C92 0.939 . S
H77 C94 0.940 . S
C78 P64 1.812 . S
C78 C79 1.389 . S
C78 C83 1.391 . S
C79 H65 0.941 . S
C79 C78 1.389 . S
C79 C80 1.397 . S
C80 H66 0.939 . S
C80 C79 1.397 . S
C80 C81 1.378 . S
C81 C80 1.378 . S
C81 C82 1.378 . S
C82 H67 0.940 . S
C82 C81 1.378 . S
C82 C83 1.396 . S
C83 H68 0.940 . S
C83 C78 1.391 . S
C83 C82 1.396 . S
C84 P64 1.803 . S
C84 C85 1.378 . S
C84 C89 1.400 . S
C85 H69 0.939 . S
C85 C84 1.378 . S
C85 C86 1.361 . S
C86 H70 0.942 . S
C86 C85 1.361 . S
C86 C87 1.369 . S
C87 C86 1.369 . S
C87 C88 1.404 . S
C88 H71 0.940 . S
C88 C87 1.404 . S
C88 C89 1.389 . S
C89 H72 0.939 . S
C89 C84 1.400 . S
C89 C88 1.389 . S
C90 P64 1.819 . S
C90 C91 1.391 . S
C90 C95 1.391 . S
C91 H73 0.941 . S
C91 C90 1.391 . S
C91 C92 1.396 . S
C92 H76 0.939 . S
C92 C91 1.396 . S
C92 C93 1.397 . S
C93 C92 1.397 . S
C93 C94 1.385 . S
C94 H77 0.940 . S
C94 C93 1.385 . S
C94 C95 1.388 . S
C95 H74 0.939 . S
C95 C90 1.391 . S
C95 C94 1.388 . S
P96 O107 1.490 . S
P96 C110 1.812 . S
P96 C116 1.803 . S
P96 C122 1.819 . S
H97 C111 0.941 . S
H98 C112 0.939 . S
H99 C114 0.940 . S
H100 C115 0.940 . S
H101 C117 0.939 . S
H102 C118 0.942 . S
H103 C120 0.940 . S
H104 C121 0.939 . S
H105 C123 0.941 . S
H106 C127 0.939 . S
O107 P96 1.490 . S
H108 C124 0.939 . S
H109 C126 0.940 . S
C110 P96 1.812 . S
C110 C111 1.389 . S
C110 C115 1.391 . S
C111 H97 0.941 . S
C111 C110 1.389 . S
C111 C112 1.397 . S
C112 H98 0.939 . S
C112 C111 1.397 . S
C112 C113 1.378 . S
C113 C112 1.378 . S
C113 C114 1.378 . S
C114 H99 0.940 . S
C114 C113 1.378 . S
C114 C115 1.396 . S
C115 H100 0.940 . S
C115 C110 1.391 . S
C115 C114 1.396 . S
C116 P96 1.803 . S
C116 C117 1.378 . S
C116 C121 1.400 . S
C117 H101 0.939 . S
C117 C116 1.378 . S
C117 C118 1.361 . S
C118 H102 0.942 . S
C118 C117 1.361 . S
C118 C119 1.369 . S
C119 C118 1.369 . S
C119 C120 1.404 . S
C120 H103 0.940 . S
C120 C119 1.404 . S
C120 C121 1.389 . S
C121 H104 0.939 . S
C121 C116 1.400 . S
C121 C120 1.389 . S
C122 P96 1.819 . S
C122 C123 1.391 . S
C122 C127 1.391 . S
C123 H105 0.941 . S
C123 C122 1.391 . S
C123 C124 1.396 . S
C124 H108 0.939 . S
C124 C123 1.396 . S
C124 C125 1.397 . S
C125 C124 1.397 . S
C125 C126 1.385 . S
C126 H109 0.940 . S
C126 C125 1.385 . S
C126 C127 1.388 . S
C127 H106 0.939 . S
C127 C122 1.391 . S
C127 C126 1.388 . S
P128 O139 1.490 . S
P128 C142 1.812 . S
P128 C148 1.803 . S
P128 C154 1.819 . S
H129 C143 0.941 . S
H130 C144 0.939 . S
H131 C146 0.940 . S
H132 C147 0.940 . S
H133 C149 0.939 . S
H134 C150 0.942 . S
H135 C152 0.940 . S
H136 C153 0.939 . S
H137 C155 0.941 . S
H138 C159 0.939 . S
O139 P128 1.490 . S
H140 C156 0.939 . S
H141 C158 0.940 . S
C142 P128 1.812 . S
C142 C143 1.389 . S
C142 C147 1.391 . S
C143 H129 0.941 . S
C143 C142 1.389 . S
C143 C144 1.397 . S
C144 H130 0.939 . S
C144 C143 1.397 . S
C144 C145 1.378 . S
C145 C144 1.378 . S
C145 C146 1.378 . S
C146 H131 0.940 . S
C146 C145 1.378 . S
C146 C147 1.396 . S
C147 H132 0.940 . S
C147 C142 1.391 . S
C147 C146 1.396 . S
C148 P128 1.803 . S
C148 C149 1.378 . S
C148 C153 1.400 . S
C149 H133 0.939 . S
C149 C148 1.378 . S
C149 C150 1.361 . S
C150 H134 0.942 . S
C150 C149 1.361 . S
C150 C151 1.369 . S
C151 C150 1.369 . S
C151 C152 1.404 . S
C152 H135 0.940 . S
C152 C151 1.404 . S
C152 C153 1.389 . S
C153 H136 0.939 . S
C153 C148 1.400 . S
C153 C152 1.389 . S
C154 P128 1.819 . S
C154 C155 1.391 . S
C154 C159 1.391 . S
C155 H137 0.941 . S
C155 C154 1.391 . S
C155 C156 1.396 . S
C156 H140 0.939 . S
C156 C155 1.396 . S
C156 C157 1.397 . S
C157 C156 1.397 . S
C157 C158 1.385 . S
C158 H141 0.940 . S
C158 C157 1.385 . S
C158 C159 1.388 . S
C159 H138 0.939 . S
C159 C154 1.391 . S
C159 C158 1.388 . S
P160 O171 1.490 . S
P160 C174 1.812 . S
P160 C180 1.803 . S
P160 C186 1.819 . S
H161 C175 0.941 . S
H162 C176 0.939 . S
H163 C178 0.940 . S
H164 C179 0.940 . S
H165 C181 0.939 . S
H166 C182 0.942 . S
H167 C184 0.940 . S
H168 C185 0.939 . S
H169 C187 0.941 . S
H170 C191 0.939 . S
O171 P160 1.490 . S
H172 C188 0.939 . S
H173 C190 0.940 . S
C174 P160 1.812 . S
C174 C175 1.389 . S
C174 C179 1.391 . S
C175 H161 0.941 . S
C175 C174 1.389 . S
C175 C176 1.397 . S
C176 H162 0.939 . S
C176 C175 1.397 . S
C176 C177 1.378 . S
C177 C176 1.378 . S
C177 C178 1.378 . S
C178 H163 0.940 . S
C178 C177 1.378 . S
C178 C179 1.396 . S
C179 H164 0.940 . S
C179 C174 1.391 . S
C179 C178 1.396 . S
C180 P160 1.803 . S
C180 C181 1.378 . S
C180 C185 1.400 . S
C181 H165 0.939 . S
C181 C180 1.378 . S
C181 C182 1.361 . S
C182 H166 0.942 . S
C182 C181 1.361 . S
C182 C183 1.369 . S
C183 C182 1.369 . S
C183 C184 1.404 . S
C184 H167 0.940 . S
C184 C183 1.404 . S
C184 C185 1.389 . S
C185 H168 0.939 . S
C185 C180 1.400 . S
C185 C184 1.389 . S
C186 P160 1.819 . S
C186 C187 1.391 . S
C186 C191 1.391 . S
C187 H169 0.941 . S
C187 C186 1.391 . S
C187 C188 1.396 . S
C188 H172 0.939 . S
C188 C187 1.396 . S
C188 C189 1.397 . S
C189 C188 1.397 . S
C189 C190 1.385 . S
C190 H173 0.940 . S
C190 C189 1.385 . S
C190 C191 1.388 . S
C191 H170 0.939 . S
C191 C186 1.391 . S
C191 C190 1.388 . S
P192 O203 1.490 . S
P192 C206 1.812 . S
P192 C212 1.803 . S
P192 C218 1.819 . S
H193 C207 0.941 . S
H194 C208 0.939 . S
H195 C210 0.940 . S
H196 C211 0.940 . S
H197 C213 0.939 . S
H198 C214 0.942 . S
H199 C216 0.940 . S
H200 C217 0.939 . S
H201 C219 0.941 . S
H202 C223 0.939 . S
O203 P192 1.490 . S
H204 C220 0.939 . S
H205 C222 0.940 . S
C206 P192 1.812 . S
C206 C207 1.389 . S
C206 C211 1.391 . S
C207 H193 0.941 . S
C207 C206 1.389 . S
C207 C208 1.397 . S
C208 H194 0.939 . S
C208 C207 1.397 . S
C208 C209 1.378 . S
C209 C208 1.378 . S
C209 C210 1.378 . S
C210 H195 0.940 . S
C210 C209 1.378 . S
C210 C211 1.396 . S
C211 H196 0.940 . S
C211 C206 1.391 . S
C211 C210 1.396 . S
C212 P192 1.803 . S
C212 C213 1.378 . S
C212 C217 1.400 . S
C213 H197 0.939 . S
C213 C212 1.378 . S
C213 C214 1.361 . S
C214 H198 0.942 . S
C214 C213 1.361 . S
C214 C215 1.369 . S
C215 C214 1.369 . S
C215 C216 1.404 . S
C216 H199 0.940 . S
C216 C215 1.404 . S
C216 C217 1.389 . S
C217 H200 0.939 . S
C217 C212 1.400 . S
C217 C216 1.389 . S
C218 P192 1.819 . S
C218 C219 1.391 . S
C218 C223 1.391 . S
C219 H201 0.941 . S
C219 C218 1.391 . S
C219 C220 1.396 . S
C220 H204 0.939 . S
C220 C219 1.396 . S
C220 C221 1.397 . S
C221 C220 1.397 . S
C221 C222 1.385 . S
C222 H205 0.940 . S
C222 C221 1.385 . S
C222 C223 1.388 . S
C223 H202 0.939 . S
C223 C218 1.391 . S
C223 C222 1.388 . S
P224 O235 1.490 . S
P224 C238 1.812 . S
P224 C244 1.803 . S
P224 C250 1.819 . S
H225 C239 0.941 . S
H226 C240 0.939 . S
H227 C242 0.940 . S
H228 C243 0.940 . S
H229 C245 0.939 . S
H230 C246 0.942 . S
H231 C248 0.940 . S
H232 C249 0.939 . S
H233 C251 0.941 . S
H234 C255 0.939 . S
O235 P224 1.490 . S
H236 C252 0.939 . S
H237 C254 0.940 . S
C238 P224 1.812 . S
C238 C239 1.389 . S
C238 C243 1.391 . S
C239 H225 0.941 . S
C239 C238 1.389 . S
C239 C240 1.397 . S
C240 H226 0.939 . S
C240 C239 1.397 . S
C240 C241 1.378 . S
C241 C240 1.378 . S
C241 C242 1.378 . S
C242 H227 0.940 . S
C242 C241 1.378 . S
C242 C243 1.396 . S
C243 H228 0.940 . S
C243 C238 1.391 . S
C243 C242 1.396 . S
C244 P224 1.803 . S
C244 C245 1.378 . S
C244 C249 1.400 . S
C245 H229 0.939 . S
C245 C244 1.378 . S
C245 C246 1.361 . S
C246 H230 0.942 . S
C246 C245 1.361 . S
C246 C247 1.369 . S
C247 C246 1.369 . S
C247 C248 1.404 . S
C248 H231 0.940 . S
C248 C247 1.404 . S
C248 C249 1.389 . S
C249 H232 0.939 . S
C249 C244 1.400 . S
C249 C248 1.389 . S
C250 P224 1.819 . S
C250 C251 1.391 . S
C250 C255 1.391 . S
C251 H233 0.941 . S
C251 C250 1.391 . S
C251 C252 1.396 . S
C252 H236 0.939 . S
C252 C251 1.396 . S
C252 C253 1.397 . S
C253 C252 1.397 . S
C253 C254 1.385 . S
C254 H237 0.940 . S
C254 C253 1.385 . S
C254 C255 1.388 . S
C255 H234 0.939 . S
C255 C250 1.391 . S
C255 C254 1.388 . S
Ho256 C259 2.811 . S
Ho256 O276 2.322 . S
Ho256 O278 2.378 . S
Ho256 O279 2.524 . S
Ho256 O280 2.381 1_545 S
Ho256 O281 2.669 1_545 S
Ho256 O283 2.346 1_445 S
Ho256 O287 2.305 1_455 S
Ho257 C268 2.787 1_545 S
Ho257 O277 2.372 1_655 S
Ho257 O281 2.292 1_645 S
Ho257 O282 2.302 1_545 S
Ho257 O284 2.365 1_545 S
Ho257 O285 2.493 1_545 S
Ho257 O286 2.399 . S
Ho257 O287 2.684 . S
C258 O276 1.259 . S
C258 O277 1.268 . S
C259 Ho256 2.811 . S
C259 C260 1.488 . S
C259 O278 1.215 . S
C259 O279 1.289 . S
C260 C259 1.488 . S
C260 C261 1.348 . S
C260 C265 1.413 . S
C261 C260 1.348 . S
C261 C262 1.442 . S
C261 H288 0.930 . S
C262 C261 1.442 . S
C262 C263 1.381 . S
C262 H289 0.931 . S
C263 C262 1.381 . S
C263 C264 1.321 . S
C264 C263 1.321 . S
C264 C265 1.403 . S
C264 H290 0.934 . S
C265 C260 1.413 . S
C265 C264 1.403 . S
C265 H291 0.930 . S
C266 O280 1.275 . S
C266 O281 1.256 . S
C267 O282 1.259 . S
C267 O283 1.268 . S
C268 Ho257 2.787 1_565 S
C268 C269 1.488 . S
C268 O284 1.215 . S
C268 O285 1.289 . S
C269 C268 1.488 . S
C269 C270 1.348 . S
C269 C274 1.413 . S
C270 C269 1.348 . S
C270 C271 1.442 . S
C270 H292 0.930 . S
C271 C270 1.442 . S
C271 C272 1.381 . S
C271 H293 0.931 . S
C272 C271 1.381 . S
C272 C273 1.321 . S
C273 C272 1.321 . S
C273 C274 1.403 . S
C273 H294 0.934 . S
C274 C269 1.413 . S
C274 C273 1.403 . S
C274 H295 0.930 . S
C275 O286 1.275 . S
C275 O287 1.256 . S
O276 Ho256 2.322 . S
O276 C258 1.259 . S
O277 Ho257 2.372 1_455 S
O277 C258 1.268 . S
O278 Ho256 2.378 . S
O278 C259 1.215 . S
O279 Ho256 2.524 . S
O279 C259 1.289 . S
O280 Ho256 2.381 1_565 S
O280 C266 1.275 . S
O281 Ho256 2.669 1_565 S
O281 Ho257 2.292 1_465 S
O281 C266 1.256 . S
O282 Ho257 2.302 1_565 S
O282 C267 1.259 . S
O283 Ho256 2.346 1_665 S
O283 C267 1.268 . S
O284 Ho257 2.365 1_565 S
O284 C268 1.215 . S
O285 Ho257 2.493 1_565 S
O285 C268 1.289 . S
O286 Ho257 2.399 . S
O286 C275 1.275 . S
O287 Ho256 2.305 1_655 S
O287 Ho257 2.684 . S
O287 C275 1.256 . S
H288 C261 0.930 . S
H289 C262 0.931 . S
H290 C264 0.934 . S
H291 C265 0.930 . S
H292 C270 0.930 . S
H293 C271 0.931 . S
H294 C273 0.934 . S
H295 C274 0.930 . S
Ho296 C299 2.811 . S
Ho296 O316 2.322 . S
Ho296 O318 2.378 . S
Ho296 O319 2.524 . S
Ho296 O320 2.381 1_545 S
Ho296 O321 2.669 1_545 S
Ho296 O323 2.346 1_544 S
Ho296 O327 2.305 . S
Ho297 C308 2.811 1_545 S
Ho297 O317 2.346 1_556 S
Ho297 O321 2.305 1_546 S
Ho297 O322 2.322 1_545 S
Ho297 O324 2.378 . S
Ho297 O325 2.524 1_545 S
Ho297 O326 2.381 . S
Ho297 O327 2.669 1_556 S
C298 O316 1.259 . S
C298 O317 1.268 . S
C299 Ho296 2.811 . S
C299 C300 1.488 . S
C299 O318 1.215 . S
C299 O319 1.289 . S
C300 C299 1.488 . S
C300 C301 1.348 . S
C300 C305 1.413 . S
C301 C300 1.348 . S
C301 C302 1.442 . S
C301 H328 0.930 . S
C302 C301 1.442 . S
C302 C303 1.381 . S
C302 H329 0.931 . S
C303 C302 1.381 . S
C303 C304 1.321 . S
C304 C303 1.321 . S
C304 C305 1.403 . S
C304 H330 0.934 . S
C305 C300 1.413 . S
C305 C304 1.403 . S
C305 H331 0.930 . S
C306 O320 1.275 . S
C306 O321 1.256 . S
C307 O322 1.259 . S
C307 O323 1.268 . S
C308 Ho297 2.811 1_565 S
C308 C309 1.488 . S
C308 O324 1.215 1_565 S
C308 O325 1.289 . S
C309 C308 1.488 . S
C309 C310 1.348 . S
C309 C314 1.413 . S
C310 C309 1.348 . S
C310 C311 1.442 . S
C310 H332 0.930 . S
C311 C310 1.442 . S
C311 C312 1.381 . S
C311 H333 0.931 . S
C312 C311 1.381 . S
C312 C313 1.321 . S
C313 C312 1.321 . S
C313 C314 1.403 . S
C313 H334 0.934 . S
C314 C309 1.413 . S
C314 C313 1.403 . S
C314 H335 0.930 . S
C315 O326 1.275 . S
C315 O327 1.256 1_556 S
O316 Ho296 2.322 . S
O316 C298 1.259 . S
O317 Ho297 2.346 1_554 S
O317 C298 1.268 . S
O318 Ho296 2.378 . S
O318 C299 1.215 . S
O319 Ho296 2.524 . S
O319 C299 1.289 . S
O320 Ho296 2.381 1_565 S
O320 C306 1.275 . S
O321 Ho296 2.669 1_565 S
O321 Ho297 2.305 1_564 S
O321 C306 1.256 . S
O322 Ho297 2.322 1_565 S
O322 C307 1.259 . S
O323 Ho296 2.346 1_566 S
O323 C307 1.268 . S
O324 Ho297 2.378 . S
O324 C308 1.215 1_545 S
O325 Ho297 2.524 1_565 S
O325 C308 1.289 . S
O326 Ho297 2.381 . S
O326 C315 1.275 . S
O327 Ho296 2.305 . S
O327 Ho297 2.669 1_554 S
O327 C315 1.256 1_554 S
H328 C301 0.930 . S
H329 C302 0.931 . S
H330 C304 0.934 . S
H331 C305 0.930 . S
H332 C310 0.930 . S
H333 C311 0.931 . S
H334 C313 0.934 . S
H335 C314 0.930 . S
Ho336 C339 2.811 . S
Ho336 O356 2.322 . S
Ho336 O358 2.378 . S
Ho336 O359 2.524 . S
Ho336 O360 2.381 . S
Ho336 O361 2.669 . S
Ho336 O363 2.346 . S
Ho336 O367 2.305 . S
Ho337 C348 2.811 . S
Ho337 O357 2.346 . S
Ho337 O361 2.305 . S
Ho337 O362 2.322 . S
Ho337 O364 2.378 . S
Ho337 O365 2.524 . S
Ho337 O366 2.381 . S
Ho337 O367 2.669 . S
C338 O356 1.259 . S
C338 O357 1.268 . S
C339 Ho336 2.811 . S
C339 C340 1.488 . S
C339 O358 1.215 . S
C339 O359 1.289 . S
C340 C339 1.488 . S
C340 C341 1.348 . S
C340 C345 1.413 . S
C341 C340 1.348 . S
C341 C342 1.442 . S
C341 H368 0.930 . S
C342 C341 1.442 . S
C342 C343 1.381 . S
C342 H369 0.931 . S
C343 C342 1.381 . S
C343 C344 1.321 . S
C344 C343 1.321 . S
C344 C345 1.403 . S
C344 H370 0.934 . S
C345 C340 1.413 . S
C345 C344 1.403 . S
C345 H371 0.930 . S
C346 O360 1.275 . S
C346 O361 1.256 . S
C347 O362 1.259 . S
C347 O363 1.268 . S
C348 Ho337 2.811 . S
C348 C349 1.488 . S
C348 O364 1.215 . S
C348 O365 1.289 . S
C349 C348 1.488 . S
C349 C350 1.348 . S
C349 C354 1.413 . S
C350 C349 1.348 . S
C350 C351 1.442 . S
C350 H372 0.930 . S
C351 C350 1.442 . S
C351 C352 1.381 . S
C351 H373 0.931 . S
C352 C351 1.381 . S
C352 C353 1.321 . S
C353 C352 1.321 . S
C353 C354 1.403 . S
C353 H374 0.934 . S
C354 C349 1.413 . S
C354 C353 1.403 . S
C354 H375 0.930 . S
C355 O366 1.275 . S
C355 O367 1.256 . S
O356 Ho336 2.322 . S
O356 C338 1.259 . S
O357 Ho337 2.346 . S
O357 C338 1.268 . S
O358 Ho336 2.378 . S
O358 C339 1.215 . S
O359 Ho336 2.524 . S
O359 C339 1.289 . S
O360 Ho336 2.381 . S
O360 C346 1.275 . S
O361 Ho336 2.669 . S
O361 Ho337 2.305 . S
O361 C346 1.256 . S
O362 Ho337 2.322 . S
O362 C347 1.259 . S
O363 Ho336 2.346 . S
O363 C347 1.268 . S
O364 Ho337 2.378 . S
O364 C348 1.215 . S
O365 Ho337 2.524 . S
O365 C348 1.289 . S
O366 Ho337 2.381 . S
O366 C355 1.275 . S
O367 Ho336 2.305 . S
O367 Ho337 2.669 . S
O367 C355 1.256 . S
H368 C341 0.930 . S
H369 C342 0.931 . S
H370 C344 0.934 . S
H371 C345 0.930 . S
H372 C350 0.930 . S
H373 C351 0.931 . S
H374 C353 0.934 . S
H375 C354 0.930 . S
Ho376 C379 2.811 . S
Ho376 O396 2.322 . S
Ho376 O398 2.378 . S
Ho376 O399 2.524 . S
Ho376 O400 2.381 1_455 S
Ho376 O401 2.669 1_455 S
Ho376 O403 2.346 1_455 S
Ho376 O407 2.305 1_554 S
Ho377 C388 2.811 . S
Ho377 O397 2.346 1_656 S
Ho377 O401 2.305 1_556 S
Ho377 O402 2.322 . S
Ho377 O404 2.378 . S
Ho377 O405 2.524 . S
Ho377 O406 2.381 1_655 S
Ho377 O407 2.669 1_655 S
C378 O396 1.259 . S
C378 O397 1.268 . S
C379 Ho376 2.811 . S
C379 C380 1.488 . S
C379 O398 1.215 . S
C379 O399 1.289 . S
C380 C379 1.488 . S
C380 C381 1.348 . S
C380 C385 1.413 . S
C381 C380 1.348 . S
C381 C382 1.442 . S
C381 H408 0.930 . S
C382 C381 1.442 . S
C382 C383 1.381 . S
C382 H409 0.931 . S
C383 C382 1.381 . S
C383 C384 1.321 . S
C384 C383 1.321 . S
C384 C385 1.403 . S
C384 H410 0.934 . S
C385 C380 1.413 . S
C385 C384 1.403 . S
C385 H411 0.930 . S
C386 O400 1.275 . S
C386 O401 1.256 . S
C387 O402 1.259 . S
C387 O403 1.268 1_556 S
C388 Ho377 2.811 . S
C388 C389 1.488 . S
C388 O404 1.215 . S
C388 O405 1.289 . S
C389 C388 1.488 . S
C389 C390 1.348 . S
C389 C394 1.413 . S
C390 C389 1.348 . S
C390 C391 1.442 . S
C390 H412 0.930 . S
C391 C390 1.442 . S
C391 C392 1.381 . S
C391 H413 0.931 . S
C392 C391 1.381 . S
C392 C393 1.321 . S
C393 C392 1.321 . S
C393 C394 1.403 . S
C393 H414 0.934 . S
C394 C389 1.413 . S
C394 C393 1.403 . S
C394 H415 0.930 . S
C395 O406 1.275 . S
C395 O407 1.256 . S
O396 Ho376 2.322 . S
O396 C378 1.259 . S
O397 Ho377 2.346 1_454 S
O397 C378 1.268 . S
O398 Ho376 2.378 . S
O398 C379 1.215 . S
O399 Ho376 2.524 . S
O399 C379 1.289 . S
O400 Ho376 2.381 1_655 S
O400 C386 1.275 . S
O401 Ho376 2.669 1_655 S
O401 Ho377 2.305 1_554 S
O401 C386 1.256 . S
O402 Ho377 2.322 . S
O402 C387 1.259 . S
O403 Ho376 2.346 1_655 S
O403 C387 1.268 1_554 S
O404 Ho377 2.378 . S
O404 C388 1.215 . S
O405 Ho377 2.524 . S
O405 C388 1.289 . S
O406 Ho377 2.381 1_455 S
O406 C395 1.275 . S
O407 Ho376 2.305 1_556 S
O407 Ho377 2.669 1_455 S
O407 C395 1.256 . S
H408 C381 0.930 . S
H409 C382 0.931 . S
H410 C384 0.934 . S
H411 C385 0.930 . S
H412 C390 0.930 . S
H413 C391 0.931 . S
H414 C393 0.934 . S
H415 C394 0.930 . S
H416 C424 0.929 . S
H417 C426 0.930 . S
H418 C428 0.930 . S
H419 C431 0.929 . S
H420 C434 0.930 . S
H421 C436 0.960 . S
H422 C436 0.960 . S
H423 C436 0.960 . S
C424 H416 0.929 . S
C424 C425 1.377 . S
C424 C426 1.384 . S
C425 C424 1.377 . S
C425 C431 1.390 . S
C426 H417 0.930 . S
C426 C424 1.384 . S
C426 C427 1.372 . S
C427 C426 1.372 . S
C427 C428 1.400 . S
C427 C432 1.490 . S
C428 H418 0.930 . S
C428 C427 1.400 . S
C428 C431 1.386 . S
H429 C445 0.930 . S
H430 C446 0.931 . S
C431 H419 0.929 . S
C431 C425 1.390 . S
C431 C428 1.386 . S
C432 C427 1.490 . S
C432 C434 1.395 . S
C432 C435 1.403 . S
H433 C439 0.930 . S
C434 H420 0.930 . S
C434 C432 1.395 . S
C434 C437 1.403 . S
C435 C432 1.403 . S
C435 C436 1.524 . S
C435 C439 1.400 . S
C436 H421 0.960 . S
C436 H422 0.960 . S
C436 H423 0.960 . S
C436 C435 1.524 . S
C437 C434 1.403 . S
C437 C438 1.392 . S
C437 C441 1.495 . S
C438 C437 1.392 . S
C438 C439 1.385 . S
C438 C440 1.478 . S
C439 H433 0.930 . S
C439 C435 1.400 . S
C439 C438 1.385 . S
C440 C438 1.478 . S
C440 C442 1.381 . S
C440 C446 1.383 . S
C441 C437 1.495 . S
C441 H447 0.959 . S
C441 H448 0.961 . S
C441 H449 0.960 . S
C442 C440 1.381 . S
C442 C443 1.394 . S
C442 H450 0.930 . S
C443 C442 1.394 . S
C443 C444 1.383 . S
C443 H451 0.929 . S
C444 C443 1.383 . S
C444 C445 1.377 . S
C445 H429 0.930 . S
C445 C444 1.377 . S
C445 C446 1.379 . S
C446 H430 0.931 . S
C446 C440 1.383 . S
C446 C445 1.379 . S
H447 C441 0.959 . S
H448 C441 0.961 . S
H449 C441 0.960 . S
H450 C442 0.930 . S
H451 C443 0.929 . S
H452 C460 0.929 . S
H453 C462 0.930 . S
H454 C464 0.930 . S
H455 C467 0.929 . S
H456 C470 0.930 . S
H457 C472 0.960 . S
H458 C472 0.960 . S
H459 C472 0.960 . S
C460 H452 0.929 . S
C460 C461 1.377 . S
C460 C462 1.384 . S
C461 C460 1.377 . S
C461 C467 1.390 . S
C462 H453 0.930 . S
C462 C460 1.384 . S
C462 C463 1.372 . S
C463 C462 1.372 . S
C463 C464 1.400 . S
C463 C468 1.490 . S
C464 H454 0.930 . S
C464 C463 1.400 . S
C464 C467 1.386 . S
H465 C481 0.930 . S
H466 C482 0.931 . S
C467 H455 0.929 . S
C467 C461 1.390 . S
C467 C464 1.386 . S
C468 C463 1.490 . S
C468 C470 1.395 . S
C468 C471 1.403 . S
H469 C475 0.930 . S
C470 H456 0.930 . S
C470 C468 1.395 . S
C470 C473 1.403 . S
C471 C468 1.403 . S
C471 C472 1.524 . S
C471 C475 1.400 . S
C472 H457 0.960 . S
C472 H458 0.960 . S
C472 H459 0.960 . S
C472 C471 1.524 . S
C473 C470 1.403 . S
C473 C474 1.392 . S
C473 C477 1.495 . S
C474 C473 1.392 . S
C474 C475 1.385 . S
C474 C476 1.478 . S
C475 H469 0.930 . S
C475 C471 1.400 . S
C475 C474 1.385 . S
C476 C474 1.478 . S
C476 C478 1.381 . S
C476 C482 1.383 . S
C477 C473 1.495 . S
C477 H483 0.959 . S
C477 H484 0.961 . S
C477 H485 0.960 . S
C478 C476 1.381 . S
C478 C479 1.394 . S
C478 H486 0.930 . S
C479 C478 1.394 . S
C479 C480 1.383 . S
C479 H487 0.929 . S
C480 C479 1.383 . S
C480 C481 1.377 . S
C481 H465 0.930 . S
C481 C480 1.377 . S
C481 C482 1.379 . S
C482 H466 0.931 . S
C482 C476 1.383 . S
C482 C481 1.379 . S
H483 C477 0.959 . S
H484 C477 0.961 . S
H485 C477 0.960 . S
H486 C478 0.930 . S
H487 C479 0.929 . S
H488 C496 0.929 . S
H489 C498 0.930 . S
H490 C500 0.930 . S
H491 C503 0.929 . S
H492 C506 0.930 . S
H493 C508 0.960 . S
H494 C508 0.960 . S
H495 C508 0.960 . S
C496 H488 0.929 . S
C496 C497 1.377 . S
C496 C498 1.384 . S
C497 C496 1.377 . S
C497 C503 1.390 . S
C498 H489 0.930 . S
C498 C496 1.384 . S
C498 C499 1.372 . S
C499 C498 1.372 . S
C499 C500 1.400 . S
C499 C504 1.490 . S
C500 H490 0.930 . S
C500 C499 1.400 . S
C500 C503 1.386 . S
H501 C517 0.930 . S
H502 C518 0.931 . S
C503 H491 0.929 . S
C503 C497 1.390 . S
C503 C500 1.386 . S
C504 C499 1.490 . S
C504 C506 1.395 . S
C504 C507 1.403 . S
H505 C511 0.930 . S
C506 H492 0.930 . S
C506 C504 1.395 . S
C506 C509 1.403 . S
C507 C504 1.403 . S
C507 C508 1.524 . S
C507 C511 1.400 . S
C508 H493 0.960 . S
C508 H494 0.960 . S
C508 H495 0.960 . S
C508 C507 1.524 . S
C509 C506 1.403 . S
C509 C510 1.392 . S
C509 C513 1.495 . S
C510 C509 1.392 . S
C510 C511 1.385 . S
C510 C512 1.478 . S
C511 H505 0.930 . S
C511 C507 1.400 . S
C511 C510 1.385 . S
C512 C510 1.478 . S
C512 C514 1.381 . S
C512 C518 1.383 . S
C513 C509 1.495 . S
C513 H519 0.959 . S
C513 H520 0.961 . S
C513 H521 0.960 . S
C514 C512 1.381 . S
C514 C515 1.394 . S
C514 H522 0.930 . S
C515 C514 1.394 . S
C515 C516 1.383 . S
C515 H523 0.929 . S
C516 C515 1.383 . S
C516 C517 1.377 . S
C517 H501 0.930 . S
C517 C516 1.377 . S
C517 C518 1.379 . S
C518 H502 0.931 . S
C518 C512 1.383 . S
C518 C517 1.379 . S
H519 C513 0.959 . S
H520 C513 0.961 . S
H521 C513 0.960 . S
H522 C514 0.930 . S
H523 C515 0.929 . S
H524 C532 0.929 . S
H525 C534 0.930 . S
H526 C536 0.930 . S
H527 C539 0.929 . S
H528 C542 0.930 . S
H529 C544 0.960 . S
H530 C544 0.960 . S
H531 C544 0.960 . S
C532 H524 0.929 . S
C532 C533 1.377 . S
C532 C534 1.384 . S
C533 C532 1.377 . S
C533 C539 1.390 . S
C534 H525 0.930 . S
C534 C532 1.384 . S
C534 C535 1.372 . S
C535 C534 1.372 . S
C535 C536 1.400 . S
C535 C540 1.490 . S
C536 H526 0.930 . S
C536 C535 1.400 . S
C536 C539 1.386 . S
H537 C553 0.930 . S
H538 C554 0.931 . S
C539 H527 0.929 . S
C539 C533 1.390 . S
C539 C536 1.386 . S
C540 C535 1.490 . S
C540 C542 1.395 . S
C540 C543 1.403 . S
H541 C547 0.930 . S
C542 H528 0.930 . S
C542 C540 1.395 . S
C542 C545 1.403 . S
C543 C540 1.403 . S
C543 C544 1.524 . S
C543 C547 1.400 . S
C544 H529 0.960 . S
C544 H530 0.960 . S
C544 H531 0.960 . S
C544 C543 1.524 . S
C545 C542 1.403 . S
C545 C546 1.392 . S
C545 C549 1.495 . S
C546 C545 1.392 . S
C546 C547 1.385 . S
C546 C548 1.478 . S
C547 H541 0.930 . S
C547 C543 1.400 . S
C547 C546 1.385 . S
C548 C546 1.478 . S
C548 C550 1.381 . S
C548 C554 1.383 . S
C549 C545 1.495 . S
C549 H555 0.959 . S
C549 H556 0.961 . S
C549 H557 0.960 . S
C550 C548 1.381 . S
C550 C551 1.394 . S
C550 H558 0.930 . S
C551 C550 1.394 . S
C551 C552 1.383 . S
C551 H559 0.929 . S
C552 C551 1.383 . S
C552 C553 1.377 . S
C553 H537 0.930 . S
C553 C552 1.377 . S
C553 C554 1.379 . S
C554 H538 0.931 . S
C554 C548 1.383 . S
C554 C553 1.379 . S
H555 C549 0.959 . S
H556 C549 0.961 . S
H557 C549 0.960 . S
H558 C550 0.930 . S
H559 C551 0.929 . S
H560 C568 0.929 . S
H561 C570 0.930 . S
H562 C572 0.930 . S
H563 C575 0.929 . S
H564 C578 0.930 . S
H565 C580 0.960 . S
H566 C580 0.960 . S
H567 C580 0.960 . S
C568 H560 0.929 . S
C568 C569 1.377 . S
C568 C570 1.384 . S
C569 C568 1.377 . S
C569 C575 1.390 . S
C570 H561 0.930 . S
C570 C568 1.384 . S
C570 C571 1.372 . S
C571 C570 1.372 . S
C571 C572 1.400 . S
C571 C576 1.490 . S
C572 H562 0.930 . S
C572 C571 1.400 . S
C572 C575 1.386 . S
H573 C589 0.930 . S
H574 C590 0.931 . S
C575 H563 0.929 . S
C575 C569 1.390 . S
C575 C572 1.386 . S
C576 C571 1.490 . S
C576 C578 1.395 . S
C576 C579 1.403 . S
H577 C583 0.930 . S
C578 H564 0.930 . S
C578 C576 1.395 . S
C578 C581 1.403 . S
C579 C576 1.403 . S
C579 C580 1.524 . S
C579 C583 1.400 . S
C580 H565 0.960 . S
C580 H566 0.960 . S
C580 H567 0.960 . S
C580 C579 1.524 . S
C581 C578 1.403 . S
C581 C582 1.392 . S
C581 C585 1.495 . S
C582 C581 1.392 . S
C582 C583 1.385 . S
C582 C584 1.478 . S
C583 H577 0.930 . S
C583 C579 1.400 . S
C583 C582 1.385 . S
C584 C582 1.478 . S
C584 C586 1.381 . S
C584 C590 1.383 . S
C585 C581 1.495 . S
C585 H591 0.959 . S
C585 H592 0.961 . S
C585 H593 0.960 . S
C586 C584 1.381 . S
C586 C587 1.394 . S
C586 H594 0.930 . S
C587 C586 1.394 . S
C587 C588 1.383 . S
C587 H595 0.929 . S
C588 C587 1.383 . S
C588 C589 1.377 . S
C589 H573 0.930 . S
C589 C588 1.377 . S
C589 C590 1.379 . S
C590 H574 0.931 . S
C590 C584 1.383 . S
C590 C589 1.379 . S
H591 C585 0.959 . S
H592 C585 0.961 . S
H593 C585 0.960 . S
H594 C586 0.930 . S
H595 C587 0.929 . S
H596 C604 0.929 . S
H597 C606 0.930 . S
H598 C608 0.930 . S
H599 C611 0.929 . S
H600 C614 0.930 . S
H601 C616 0.960 . S
H602 C616 0.960 . S
H603 C616 0.960 . S
C604 H596 0.929 . S
C604 C605 1.377 . S
C604 C606 1.384 . S
C605 C604 1.377 . S
C605 C611 1.390 . S
C606 H597 0.930 . S
C606 C604 1.384 . S
C606 C607 1.372 . S
C607 C606 1.372 . S
C607 C608 1.400 . S
C607 C612 1.490 . S
C608 H598 0.930 . S
C608 C607 1.400 . S
C608 C611 1.386 . S
H609 C625 0.930 . S
H610 C626 0.931 . S
C611 H599 0.929 . S
C611 C605 1.390 . S
C611 C608 1.386 . S
C612 C607 1.490 . S
C612 C614 1.395 . S
C612 C615 1.403 . S
H613 C619 0.930 . S
C614 H600 0.930 . S
C614 C612 1.395 . S
C614 C617 1.403 . S
C615 C612 1.403 . S
C615 C616 1.524 . S
C615 C619 1.400 . S
C616 H601 0.960 . S
C616 H602 0.960 . S
C616 H603 0.960 . S
C616 C615 1.524 . S
C617 C614 1.403 . S
C617 C618 1.392 . S
C617 C621 1.495 . S
C618 C617 1.392 . S
C618 C619 1.385 . S
C618 C620 1.478 . S
C619 H613 0.930 . S
C619 C615 1.400 . S
C619 C618 1.385 . S
C620 C618 1.478 . S
C620 C622 1.381 . S
C620 C626 1.383 . S
C621 C617 1.495 . S
C621 H627 0.959 . S
C621 H628 0.961 . S
C621 H629 0.960 . S
C622 C620 1.381 . S
C622 C623 1.394 . S
C622 H630 0.930 . S
C623 C622 1.394 . S
C623 C624 1.383 . S
C623 H631 0.929 . S
C624 C623 1.383 . S
C624 C625 1.377 . S
C625 H609 0.930 . S
C625 C624 1.377 . S
C625 C626 1.379 . S
C626 H610 0.931 . S
C626 C620 1.383 . S
C626 C625 1.379 . S
H627 C621 0.959 . S
H628 C621 0.961 . S
H629 C621 0.960 . S
H630 C622 0.930 . S
H631 C623 0.929 . S
H632 C640 0.929 . S
H633 C642 0.930 . S
H634 C644 0.930 . S
H635 C647 0.929 . S
H636 C650 0.930 . S
H637 C652 0.960 . S
H638 C652 0.960 . S
H639 C652 0.960 . S
C640 H632 0.929 . S
C640 C641 1.377 . S
C640 C642 1.384 . S
C641 C640 1.377 . S
C641 C647 1.390 . S
C642 H633 0.930 . S
C642 C640 1.384 . S
C642 C643 1.372 . S
C643 C642 1.372 . S
C643 C644 1.400 . S
C643 C648 1.490 . S
C644 H634 0.930 . S
C644 C643 1.400 . S
C644 C647 1.386 . S
H645 C661 0.930 . S
H646 C662 0.931 . S
C647 H635 0.929 . S
C647 C641 1.390 . S
C647 C644 1.386 . S
C648 C643 1.490 . S
C648 C650 1.395 . S
C648 C651 1.403 . S
H649 C655 0.930 . S
C650 H636 0.930 . S
C650 C648 1.395 . S
C650 C653 1.403 . S
C651 C648 1.403 . S
C651 C652 1.524 . S
C651 C655 1.400 . S
C652 H637 0.960 . S
C652 H638 0.960 . S
C652 H639 0.960 . S
C652 C651 1.524 . S
C653 C650 1.403 . S
C653 C654 1.392 . S
C653 C657 1.495 . S
C654 C653 1.392 . S
C654 C655 1.385 . S
C654 C656 1.478 . S
C655 H649 0.930 . S
C655 C651 1.400 . S
C655 C654 1.385 . S
C656 C654 1.478 . S
C656 C658 1.381 . S
C656 C662 1.383 . S
C657 C653 1.495 . S
C657 H663 0.959 . S
C657 H664 0.961 . S
C657 H665 0.960 . S
C658 C656 1.381 . S
C658 C659 1.394 . S
C658 H666 0.930 . S
C659 C658 1.394 . S
C659 C660 1.383 . S
C659 H667 0.929 1_556 S
C660 C659 1.383 . S
C660 C661 1.377 . S
C661 H645 0.930 . S
C661 C660 1.377 . S
C661 C662 1.379 . S
C662 H646 0.931 . S
C662 C656 1.383 . S
C662 C661 1.379 . S
H663 C657 0.959 . S
H664 C657 0.961 . S
H665 C657 0.960 . S
H666 C658 0.930 . S
H667 C659 0.929 1_554 S
H668 C676 0.929 . S
H669 C678 0.930 . S
H670 C680 0.930 . S
H671 C683 0.929 . S
H672 C686 0.930 . S
H673 C688 0.960 . S
H674 C688 0.960 . S
H675 C688 0.960 . S
C676 H668 0.929 . S
C676 C677 1.377 . S
C676 C678 1.384 . S
C677 C676 1.377 . S
C677 C683 1.390 . S
C678 H669 0.930 . S
C678 C676 1.384 . S
C678 C679 1.372 . S
C679 C678 1.372 . S
C679 C680 1.400 . S
C679 C684 1.490 . S
C680 H670 0.930 . S
C680 C679 1.400 . S
C680 C683 1.386 . S
H681 C697 0.930 . S
H682 C698 0.931 . S
C683 H671 0.929 . S
C683 C677 1.390 . S
C683 C680 1.386 . S
C684 C679 1.490 . S
C684 C686 1.395 . S
C684 C687 1.403 . S
H685 C691 0.930 . S
C686 H672 0.930 . S
C686 C684 1.395 . S
C686 C689 1.403 . S
C687 C684 1.403 . S
C687 C688 1.524 . S
C687 C691 1.400 . S
C688 H673 0.960 . S
C688 H674 0.960 . S
C688 H675 0.960 . S
C688 C687 1.524 . S
C689 C686 1.403 . S
C689 C690 1.392 . S
C689 C693 1.495 . S
C690 C689 1.392 . S
C690 C691 1.385 . S
C690 C692 1.478 . S
C691 H685 0.930 . S
C691 C687 1.400 . S
C691 C690 1.385 . S
C692 C690 1.478 . S
C692 C694 1.381 . S
C692 C698 1.383 . S
C693 C689 1.495 . S
C693 H699 0.959 . S
C693 H700 0.961 . S
C693 H701 0.960 . S
C694 C692 1.381 . S
C694 C695 1.394 . S
C694 H702 0.930 . S
C695 C694 1.394 . S
C695 C696 1.383 . S
C695 H703 0.929 . S
C696 C695 1.383 . S
C696 C697 1.377 . S
C697 H681 0.930 . S
C697 C696 1.377 . S
C697 C698 1.379 . S
C698 H682 0.931 . S
C698 C692 1.383 . S
C698 C697 1.379 . S
H699 C693 0.959 . S
H700 C693 0.961 . S
H701 C693 0.960 . S
H702 C694 0.930 . S
H703 C695 0.929 . S
H704 C712 0.929 . S
H705 C714 0.930 . S
H706 C716 0.930 . S
H707 C719 0.929 . S
H708 C722 0.930 . S
H709 C724 0.960 . S
H710 C724 0.960 . S
H711 C724 0.960 . S
C712 H704 0.929 . S
C712 C713 1.377 . S
C712 C714 1.384 . S
C713 C712 1.377 . S
C713 C719 1.390 . S
C714 H705 0.930 . S
C714 C712 1.384 . S
C714 C715 1.372 . S
C715 C714 1.372 . S
C715 C716 1.400 . S
C715 C720 1.490 . S
C716 H706 0.930 . S
C716 C715 1.400 . S
C716 C719 1.386 . S
H717 C733 0.930 . S
H718 C734 0.931 . S
C719 H707 0.929 . S
C719 C713 1.390 . S
C719 C716 1.386 . S
C720 C715 1.490 . S
C720 C722 1.395 . S
C720 C723 1.403 . S
H721 C727 0.930 . S
C722 H708 0.930 . S
C722 C720 1.395 . S
C722 C725 1.403 . S
C723 C720 1.403 . S
C723 C724 1.524 . S
C723 C727 1.400 . S
C724 H709 0.960 . S
C724 H710 0.960 . S
C724 H711 0.960 . S
C724 C723 1.524 . S
C725 C722 1.403 . S
C725 C726 1.392 . S
C725 C729 1.495 . S
C726 C725 1.392 . S
C726 C727 1.385 . S
C726 C728 1.478 . S
C727 H721 0.930 . S
C727 C723 1.400 . S
C727 C726 1.385 . S
C728 C726 1.478 . S
C728 C730 1.381 . S
C728 C734 1.383 . S
C729 C725 1.495 . S
C729 H735 0.959 . S
C729 H736 0.961 . S
C729 H737 0.960 . S
C730 C728 1.381 . S
C730 C731 1.394 . S
C730 H738 0.930 . S
C731 C730 1.394 . S
C731 C732 1.383 . S
C731 H739 0.929 . S
C732 C731 1.383 . S
C732 C733 1.377 . S
C733 H717 0.930 . S
C733 C732 1.377 . S
C733 C734 1.379 . S
C734 H718 0.931 . S
C734 C728 1.383 . S
C734 C733 1.379 . S
H735 C729 0.959 . S
H736 C729 0.961 . S
H737 C729 0.960 . S
H738 C730 0.930 . S
H739 C731 0.929 . S
H740 C748 0.929 . S
H741 C750 0.930 . S
H742 C752 0.930 . S
H743 C755 0.929 . S
H744 C758 0.930 . S
H745 C760 0.960 . S
H746 C760 0.960 . S
H747 C760 0.960 . S
C748 H740 0.929 . S
C748 C749 1.377 . S
C748 C750 1.384 . S
C749 C748 1.377 . S
C749 C755 1.390 . S
C750 H741 0.930 . S
C750 C748 1.384 . S
C750 C751 1.372 . S
C751 C750 1.372 . S
C751 C752 1.400 . S
C751 C756 1.490 . S
C752 H742 0.930 . S
C752 C751 1.400 . S
C752 C755 1.386 . S
H753 C769 0.930 . S
H754 C770 0.931 . S
C755 H743 0.929 . S
C755 C749 1.390 . S
C755 C752 1.386 . S
C756 C751 1.490 . S
C756 C758 1.395 . S
C756 C759 1.403 . S
H757 C763 0.930 . S
C758 H744 0.930 . S
C758 C756 1.395 . S
C758 C761 1.403 . S
C759 C756 1.403 . S
C759 C760 1.524 . S
C759 C763 1.400 . S
C760 H745 0.960 . S
C760 H746 0.960 . S
C760 H747 0.960 . S
C760 C759 1.524 . S
C761 C758 1.403 . S
C761 C762 1.392 . S
C761 C765 1.495 . S
C762 C761 1.392 . S
C762 C763 1.385 . S
C762 C764 1.478 . S
C763 H757 0.930 . S
C763 C759 1.400 . S
C763 C762 1.385 . S
C764 C762 1.478 . S
C764 C766 1.381 . S
C764 C770 1.383 . S
C765 C761 1.495 . S
C765 H771 0.959 . S
C765 H772 0.961 . S
C765 H773 0.960 . S
C766 C764 1.381 . S
C766 C767 1.394 . S
C766 H774 0.930 . S
C767 C766 1.394 . S
C767 C768 1.383 . S
C767 H775 0.929 1_556 S
C768 C767 1.383 . S
C768 C769 1.377 . S
C769 H753 0.930 . S
C769 C768 1.377 . S
C769 C770 1.379 . S
C770 H754 0.931 . S
C770 C764 1.383 . S
C770 C769 1.379 . S
H771 C765 0.959 . S
H772 C765 0.961 . S
H773 C765 0.960 . S
H774 C766 0.930 . S
H775 C767 0.929 1_554 S
H776 C784 0.929 . S
H777 C786 0.930 . S
H778 C788 0.930 . S
H779 C791 0.929 . S
H780 C794 0.930 . S
H781 C796 0.960 . S
H782 C796 0.960 . S
H783 C796 0.960 . S
C784 H776 0.929 . S
C784 C785 1.377 . S
C784 C786 1.384 . S
C785 C784 1.377 . S
C785 C791 1.390 . S
C786 H777 0.930 . S
C786 C784 1.384 . S
C786 C787 1.372 . S
C787 C786 1.372 . S
C787 C788 1.400 . S
C787 C792 1.490 . S
C788 H778 0.930 . S
C788 C787 1.400 . S
C788 C791 1.386 . S
H789 C805 0.930 . S
H790 C806 0.931 . S
C791 H779 0.929 . S
C791 C785 1.390 . S
C791 C788 1.386 . S
C792 C787 1.490 . S
C792 C794 1.395 . S
C792 C795 1.403 . S
H793 C799 0.930 . S
C794 H780 0.930 . S
C794 C792 1.395 . S
C794 C797 1.403 . S
C795 C792 1.403 . S
C795 C796 1.524 . S
C795 C799 1.400 . S
C796 H781 0.960 . S
C796 H782 0.960 . S
C796 H783 0.960 . S
C796 C795 1.524 . S
C797 C794 1.403 . S
C797 C798 1.392 . S
C797 C801 1.495 . S
C798 C797 1.392 . S
C798 C799 1.385 . S
C798 C800 1.478 . S
C799 H793 0.930 . S
C799 C795 1.400 . S
C799 C798 1.385 . S
C800 C798 1.478 . S
C800 C802 1.381 . S
C800 C806 1.383 . S
C801 C797 1.495 . S
C801 H807 0.959 . S
C801 H808 0.961 . S
C801 H809 0.960 . S
C802 C800 1.381 . S
C802 C803 1.394 . S
C802 H810 0.930 . S
C803 C802 1.394 . S
C803 C804 1.383 . S
C803 H811 0.929 . S
C804 C803 1.383 . S
C804 C805 1.377 . S
C805 H789 0.930 . S
C805 C804 1.377 . S
C805 C806 1.379 . S
C806 H790 0.931 . S
C806 C800 1.383 . S
C806 C805 1.379 . S
H807 C801 0.959 . S
H808 C801 0.961 . S
H809 C801 0.960 . S
H810 C802 0.930 . S
H811 C803 0.929 . S
H812 C820 0.929 . S
H813 C822 0.930 . S
H814 C824 0.930 . S
H815 C827 0.929 . S
H816 C830 0.930 . S
H817 C832 0.960 . S
H818 C832 0.960 . S
H819 C832 0.960 . S
C820 H812 0.929 . S
C820 C821 1.377 . S
C820 C822 1.384 . S
C821 C820 1.377 . S
C821 C827 1.390 . S
C822 H813 0.930 . S
C822 C820 1.384 . S
C822 C823 1.372 . S
C823 C822 1.372 . S
C823 C824 1.400 . S
C823 C828 1.490 . S
C824 H814 0.930 . S
C824 C823 1.400 . S
C824 C827 1.386 . S
H825 C841 0.930 . S
H826 C842 0.931 . S
C827 H815 0.929 . S
C827 C821 1.390 . S
C827 C824 1.386 . S
C828 C823 1.490 . S
C828 C830 1.395 . S
C828 C831 1.403 . S
H829 C835 0.930 . S
C830 H816 0.930 . S
C830 C828 1.395 . S
C830 C833 1.403 . S
C831 C828 1.403 . S
C831 C832 1.524 . S
C831 C835 1.400 . S
C832 H817 0.960 . S
C832 H818 0.960 . S
C832 H819 0.960 . S
C832 C831 1.524 . S
C833 C830 1.403 . S
C833 C834 1.392 . S
C833 C837 1.495 . S
C834 C833 1.392 . S
C834 C835 1.385 . S
C834 C836 1.478 . S
C835 H829 0.930 . S
C835 C831 1.400 . S
C835 C834 1.385 . S
C836 C834 1.478 . S
C836 C838 1.381 . S
C836 C842 1.383 . S
C837 C833 1.495 . S
C837 H843 0.959 . S
C837 H844 0.961 . S
C837 H845 0.960 . S
C838 C836 1.381 . S
C838 C839 1.394 . S
C838 H846 0.930 . S
C839 C838 1.394 . S
C839 C840 1.383 . S
C839 H847 0.929 . S
C840 C839 1.383 . S
C840 C841 1.377 . S
C841 H825 0.930 . S
C841 C840 1.377 . S
C841 C842 1.379 . S
C842 H826 0.931 . S
C842 C836 1.383 . S
C842 C841 1.379 . S
H843 C837 0.959 . S
H844 C837 0.961 . S
H845 C837 0.960 . S
H846 C838 0.930 . S
H847 C839 0.929 . S
H848 C856 0.929 . S
H849 C858 0.930 . S
H850 C860 0.930 . S
H851 C863 0.929 . S
H852 C866 0.930 . S
H853 C868 0.960 . S
H854 C868 0.960 . S
H855 C868 0.960 . S
C856 H848 0.929 . S
C856 C857 1.377 . S
C856 C858 1.384 . S
C857 C856 1.377 . S
C857 C863 1.390 . S
C858 H849 0.930 . S
C858 C856 1.384 . S
C858 C859 1.372 . S
C859 C858 1.372 . S
C859 C860 1.400 . S
C859 C864 1.490 . S
C860 H850 0.930 . S
C860 C859 1.400 . S
C860 C863 1.386 . S
H861 C877 0.930 . S
H862 C878 0.931 . S
C863 H851 0.929 . S
C863 C857 1.390 . S
C863 C860 1.386 . S
C864 C859 1.490 . S
C864 C866 1.395 . S
C864 C867 1.403 . S
H865 C871 0.930 . S
C866 H852 0.930 . S
C866 C864 1.395 . S
C866 C869 1.403 . S
C867 C864 1.403 . S
C867 C868 1.524 . S
C867 C871 1.400 . S
C868 H853 0.960 . S
C868 H854 0.960 . S
C868 H855 0.960 . S
C868 C867 1.524 . S
C869 C866 1.403 . S
C869 C870 1.392 . S
C869 C873 1.495 . S
C870 C869 1.392 . S
C870 C871 1.385 . S
C870 C872 1.478 . S
C871 H865 0.930 . S
C871 C867 1.400 . S
C871 C870 1.385 . S
C872 C870 1.478 . S
C872 C874 1.381 . S
C872 C878 1.383 . S
C873 C869 1.495 . S
C873 H879 0.959 . S
C873 H880 0.961 . S
C873 H881 0.960 . S
C874 C872 1.381 . S
C874 C875 1.394 . S
C874 H882 0.930 . S
C875 C874 1.394 . S
C875 C876 1.383 . S
C875 H883 0.929 . S
C876 C875 1.383 . S
C876 C877 1.377 . S
C877 H861 0.930 . S
C877 C876 1.377 . S
C877 C878 1.379 . S
C878 H862 0.931 . S
C878 C872 1.383 . S
C878 C877 1.379 . S
H879 C873 0.959 . S
H880 C873 0.961 . S
H881 C873 0.960 . S
H882 C874 0.930 . S
H883 C875 0.929 . S
H884 C892 0.929 . S
H885 C894 0.930 . S
H886 C896 0.930 . S
H887 C899 0.929 . S
H888 C902 0.930 . S
H889 C904 0.960 . S
H890 C904 0.960 . S
H891 C904 0.960 . S
C892 H884 0.929 . S
C892 C893 1.377 . S
C892 C894 1.384 . S
C893 C892 1.377 . S
C893 C899 1.390 . S
C894 H885 0.930 . S
C894 C892 1.384 . S
C894 C895 1.372 . S
C895 C894 1.372 . S
C895 C896 1.400 . S
C895 C900 1.490 . S
C896 H886 0.930 . S
C896 C895 1.400 . S
C896 C899 1.386 . S
H897 C913 0.930 . S
H898 C914 0.931 . S
C899 H887 0.929 . S
C899 C893 1.390 . S
C899 C896 1.386 . S
C900 C895 1.490 . S
C900 C902 1.395 . S
C900 C903 1.403 . S
H901 C907 0.930 . S
C902 H888 0.930 . S
C902 C900 1.395 . S
C902 C905 1.403 . S
C903 C900 1.403 . S
C903 C904 1.524 . S
C903 C907 1.400 . S
C904 H889 0.960 . S
C904 H890 0.960 . S
C904 H891 0.960 . S
C904 C903 1.524 . S
C905 C902 1.403 . S
C905 C906 1.392 . S
C905 C909 1.495 . S
C906 C905 1.392 . S
C906 C907 1.385 . S
C906 C908 1.478 . S
C907 H901 0.930 . S
C907 C903 1.400 . S
C907 C906 1.385 . S
C908 C906 1.478 . S
C908 C910 1.381 . S
C908 C914 1.383 . S
C909 C905 1.495 . S
C909 H915 0.959 . S
C909 H916 0.961 . S
C909 H917 0.960 . S
C910 C908 1.381 . S
C910 C911 1.394 . S
C910 H918 0.930 . S
C911 C910 1.394 . S
C911 C912 1.383 . S
C911 H919 0.929 . S
C912 C911 1.383 . S
C912 C913 1.377 . S
C913 H897 0.930 . S
C913 C912 1.377 . S
C913 C914 1.379 . S
C914 H898 0.931 . S
C914 C908 1.383 . S
C914 C913 1.379 . S
H915 C909 0.959 . S
H916 C909 0.961 . S
H917 C909 0.960 . S
H918 C910 0.930 . S
H919 C911 0.929 . S
H920 C928 0.929 . S
H921 C930 0.930 . S
H922 C932 0.930 . S
H923 C935 0.929 . S
H924 C938 0.930 . S
H925 C940 0.960 . S
H926 C940 0.960 . S
H927 C940 0.960 . S
C928 H920 0.929 . S
C928 C929 1.377 . S
C928 C930 1.384 . S
C929 C928 1.377 . S
C929 C935 1.390 . S
C930 H921 0.930 . S
C930 C928 1.384 . S
C930 C931 1.372 . S
C931 C930 1.372 . S
C931 C932 1.400 . S
C931 C936 1.490 . S
C932 H922 0.930 . S
C932 C931 1.400 . S
C932 C935 1.386 . S
H933 C949 0.930 . S
H934 C950 0.931 . S
C935 H923 0.929 . S
C935 C929 1.390 . S
C935 C932 1.386 . S
C936 C931 1.490 . S
C936 C938 1.395 . S
C936 C939 1.403 . S
H937 C943 0.930 . S
C938 H924 0.930 . S
C938 C936 1.395 . S
C938 C941 1.403 . S
C939 C936 1.403 . S
C939 C940 1.524 . S
C939 C943 1.400 . S
C940 H925 0.960 . S
C940 H926 0.960 . S
C940 H927 0.960 . S
C940 C939 1.524 . S
C941 C938 1.403 . S
C941 C942 1.392 . S
C941 C945 1.495 . S
C942 C941 1.392 . S
C942 C943 1.385 . S
C942 C944 1.478 . S
C943 H937 0.930 . S
C943 C939 1.400 . S
C943 C942 1.385 . S
C944 C942 1.478 . S
C944 C946 1.381 . S
C944 C950 1.383 . S
C945 C941 1.495 . S
C945 H951 0.959 . S
C945 H952 0.961 . S
C945 H953 0.960 . S
C946 C944 1.381 . S
C946 C947 1.394 . S
C946 H954 0.930 . S
C947 C946 1.394 . S
C947 C948 1.383 . S
C947 H955 0.929 . S
C948 C947 1.383 . S
C948 C949 1.377 . S
C949 H933 0.930 . S
C949 C948 1.377 . S
C949 C950 1.379 . S
C950 H934 0.931 . S
C950 C944 1.383 . S
C950 C949 1.379 . S
H951 C945 0.959 . S
H952 C945 0.961 . S
H953 C945 0.960 . S
H954 C946 0.930 . S
H955 C947 0.929 . S
H956 C964 0.929 . S
H957 C966 0.930 . S
H958 C968 0.930 . S
H959 C971 0.929 . S
H960 C974 0.930 . S
H961 C976 0.960 . S
H962 C976 0.960 . S
H963 C976 0.960 . S
C964 H956 0.929 . S
C964 C965 1.377 . S
C964 C966 1.384 . S
C965 C964 1.377 . S
C965 C971 1.390 . S
C966 H957 0.930 . S
C966 C964 1.384 . S
C966 C967 1.372 . S
C967 C966 1.372 . S
C967 C968 1.400 . S
C967 C972 1.490 . S
C968 H958 0.930 . S
C968 C967 1.400 . S
C968 C971 1.386 . S
H969 C985 0.930 . S
H970 C986 0.931 . S
C971 H959 0.929 . S
C971 C965 1.390 . S
C971 C968 1.386 . S
C972 C967 1.490 . S
C972 C974 1.395 . S
C972 C975 1.403 . S
H973 C979 0.930 . S
C974 H960 0.930 . S
C974 C972 1.395 . S
C974 C977 1.403 . S
C975 C972 1.403 . S
C975 C976 1.524 . S
C975 C979 1.400 . S
C976 H961 0.960 . S
C976 H962 0.960 . S
C976 H963 0.960 . S
C976 C975 1.524 . S
C977 C974 1.403 . S
C977 C978 1.392 . S
C977 C981 1.495 . S
C978 C977 1.392 . S
C978 C979 1.385 . S
C978 C980 1.478 . S
C979 H973 0.930 . S
C979 C975 1.400 . S
C979 C978 1.385 . S
C980 C978 1.478 . S
C980 C982 1.381 . S
C980 C986 1.383 . S
C981 C977 1.495 . S
C981 H987 0.959 . S
C981 H988 0.961 . S
C981 H989 0.960 . S
C982 C980 1.381 . S
C982 C983 1.394 . S
C982 H990 0.930 . S
C983 C982 1.394 . S
C983 C984 1.383 . S
C983 H991 0.929 . S
C984 C983 1.383 . S
C984 C985 1.377 . S
C985 H969 0.930 . S
C985 C984 1.377 . S
C985 C986 1.379 . S
C986 H970 0.931 . S
C986 C980 1.383 . S
C986 C985 1.379 . S
H987 C981 0.959 . S
H988 C981 0.961 . S
H989 C981 0.960 . S
H990 C982 0.930 . S
H991 C983 0.929 . S
H992 C1000 0.929 . S
H993 C1002 0.930 . S
H994 C1004 0.930 . S
H995 C1007 0.929 . S
H996 C1010 0.930 . S
H997 C1012 0.960 . S
H998 C1012 0.960 . S
H999 C1012 0.960 . S
C1000 H992 0.929 . S
C1000 C1001 1.377 . S
C1000 C1002 1.384 . S
C1001 C1000 1.377 . S
C1001 C1007 1.390 . S
C1002 H993 0.930 . S
C1002 C1000 1.384 . S
C1002 C1003 1.372 . S
C1003 C1002 1.372 . S
C1003 C1004 1.400 . S
C1003 C1008 1.490 . S
C1004 H994 0.930 . S
C1004 C1003 1.400 . S
C1004 C1007 1.386 . S
H1005 C1021 0.930 . S
H1006 C1022 0.931 . S
C1007 H995 0.929 . S
C1007 C1001 1.390 . S
C1007 C1004 1.386 . S
C1008 C1003 1.490 . S
C1008 C1010 1.395 . S
C1008 C1011 1.403 . S
H1009 C1015 0.930 . S
C1010 H996 0.930 . S
C1010 C1008 1.395 . S
C1010 C1013 1.403 . S
C1011 C1008 1.403 . S
C1011 C1012 1.524 . S
C1011 C1015 1.400 . S
C1012 H997 0.960 . S
C1012 H998 0.960 . S
C1012 H999 0.960 . S
C1012 C1011 1.524 . S
C1013 C1010 1.403 . S
C1013 C1014 1.392 . S
C1013 C1017 1.495 . S
C1014 C1013 1.392 . S
C1014 C1015 1.385 . S
C1014 C1016 1.478 . S
C1015 H1009 0.930 . S
C1015 C1011 1.400 . S
C1015 C1014 1.385 . S
C1016 C1014 1.478 . S
C1016 C1018 1.381 . S
C1016 C1022 1.383 . S
C1017 C1013 1.495 . S
C1017 H1023 0.959 . S
C1017 H1024 0.961 . S
C1017 H1025 0.960 . S
C1018 C1016 1.381 . S
C1018 C1019 1.394 . S
C1018 H1026 0.930 . S
C1019 C1018 1.394 . S
C1019 C1020 1.383 . S
C1019 H1027 0.929 . S
C1020 C1019 1.383 . S
C1020 C1021 1.377 . S
C1021 H1005 0.930 . S
C1021 C1020 1.377 . S
C1021 C1022 1.379 . S
C1022 H1006 0.931 . S
C1022 C1016 1.383 . S
C1022 C1021 1.379 . S
H1023 C1017 0.959 . S
H1024 C1017 0.961 . S
H1025 C1017 0.960 . S
H1026 C1018 0.930 . S
H1027 C1019 0.929 . S
H1028 C1036 0.929 . S
H1029 C1038 0.930 . S
H1030 C1040 0.930 . S
H1031 C1043 0.929 . S
H1032 C1046 0.930 . S
H1033 C1048 0.960 . S
H1034 C1048 0.960 . S
H1035 C1048 0.960 . S
C1036 H1028 0.929 . S
C1036 C1037 1.377 . S
C1036 C1038 1.384 . S
C1037 C1036 1.377 . S
C1037 C1043 1.390 . S
C1038 H1029 0.930 . S
C1038 C1036 1.384 . S
C1038 C1039 1.372 . S
C1039 C1038 1.372 . S
C1039 C1040 1.400 . S
C1039 C1044 1.490 . S
C1040 H1030 0.930 . S
C1040 C1039 1.400 . S
C1040 C1043 1.386 . S
H1041 C1057 0.930 . S
H1042 C1058 0.931 . S
C1043 H1031 0.929 . S
C1043 C1037 1.390 . S
C1043 C1040 1.386 . S
C1044 C1039 1.490 . S
C1044 C1046 1.395 . S
C1044 C1047 1.403 . S
H1045 C1051 0.930 . S
C1046 H1032 0.930 . S
C1046 C1044 1.395 . S
C1046 C1049 1.403 . S
C1047 C1044 1.403 . S
C1047 C1048 1.524 . S
C1047 C1051 1.400 . S
C1048 H1033 0.960 . S
C1048 H1034 0.960 . S
C1048 H1035 0.960 . S
C1048 C1047 1.524 . S
C1049 C1046 1.403 . S
C1049 C1050 1.392 . S
C1049 C1053 1.495 . S
C1050 C1049 1.392 . S
C1050 C1051 1.385 . S
C1050 C1052 1.478 . S
C1051 H1045 0.930 . S
C1051 C1047 1.400 . S
C1051 C1050 1.385 . S
C1052 C1050 1.478 . S
C1052 C1054 1.381 . S
C1052 C1058 1.383 . S
C1053 C1049 1.495 . S
C1053 H1059 0.959 . S
C1053 H1060 0.961 . S
C1053 H1061 0.960 . S
C1054 C1052 1.381 . S
C1054 C1055 1.394 . S
C1054 H1062 0.930 . S
C1055 C1054 1.394 . S
C1055 C1056 1.383 . S
C1055 H1063 0.929 . S
C1056 C1055 1.383 . S
C1056 C1057 1.377 . S
C1057 H1041 0.930 . S
C1057 C1056 1.377 . S
C1057 C1058 1.379 . S
C1058 H1042 0.931 . S
C1058 C1052 1.383 . S
C1058 C1057 1.379 . S
H1059 C1053 0.959 . S
H1060 C1053 0.961 . S
H1061 C1053 0.960 . S
H1062 C1054 0.930 . S
H1063 C1055 0.929 . S
H1064 C1072 0.929 . S
H1065 C1074 0.930 . S
H1066 C1076 0.930 . S
H1067 C1079 0.929 . S
H1068 C1082 0.930 . S
H1069 C1084 0.960 . S
H1070 C1084 0.960 . S
H1071 C1084 0.960 . S
C1072 H1064 0.929 . S
C1072 C1073 1.377 . S
C1072 C1074 1.384 . S
C1073 C1072 1.377 . S
C1073 C1079 1.390 . S
C1074 H1065 0.930 . S
C1074 C1072 1.384 . S
C1074 C1075 1.372 . S
C1075 C1074 1.372 . S
C1075 C1076 1.400 . S
C1075 C1080 1.490 . S
C1076 H1066 0.930 . S
C1076 C1075 1.400 . S
C1076 C1079 1.386 . S
H1077 C1093 0.930 . S
H1078 C1094 0.931 . S
C1079 H1067 0.929 . S
C1079 C1073 1.390 . S
C1079 C1076 1.386 . S
C1080 C1075 1.490 . S
C1080 C1082 1.395 . S
C1080 C1083 1.403 . S
H1081 C1087 0.930 . S
C1082 H1068 0.930 . S
C1082 C1080 1.395 . S
C1082 C1085 1.403 . S
C1083 C1080 1.403 . S
C1083 C1084 1.524 . S
C1083 C1087 1.400 . S
C1084 H1069 0.960 . S
C1084 H1070 0.960 . S
C1084 H1071 0.960 . S
C1084 C1083 1.524 . S
C1085 C1082 1.403 . S
C1085 C1086 1.392 . S
C1085 C1089 1.495 . S
C1086 C1085 1.392 . S
C1086 C1087 1.385 . S
C1086 C1088 1.478 . S
C1087 H1081 0.930 . S
C1087 C1083 1.400 . S
C1087 C1086 1.385 . S
C1088 C1086 1.478 . S
C1088 C1090 1.381 . S
C1088 C1094 1.383 . S
C1089 C1085 1.495 . S
C1089 H1095 0.959 . S
C1089 H1096 0.961 . S
C1089 H1097 0.960 . S
C1090 C1088 1.381 . S
C1090 C1091 1.394 . S
C1090 H1098 0.930 . S
C1091 C1090 1.394 . S
C1091 C1092 1.383 . S
C1091 H1099 0.929 . S
C1092 C1091 1.383 . S
C1092 C1093 1.377 . S
C1093 H1077 0.930 . S
C1093 C1092 1.377 . S
C1093 C1094 1.379 . S
C1094 H1078 0.931 . S
C1094 C1088 1.383 . S
C1094 C1093 1.379 . S
H1095 C1089 0.959 . S
H1096 C1089 0.961 . S
H1097 C1089 0.960 . S
H1098 C1090 0.930 . S
H1099 C1091 0.929 . S
H1100 C1108 0.929 . S
H1101 C1110 0.930 . S
H1102 C1112 0.930 . S
H1103 C1115 0.929 . S
H1104 C1118 0.930 . S
H1105 C1120 0.960 . S
H1106 C1120 0.960 . S
H1107 C1120 0.960 . S
C1108 H1100 0.929 . S
C1108 C1109 1.377 . S
C1108 C1110 1.384 . S
C1109 C1108 1.377 . S
C1109 C1115 1.390 . S
C1110 H1101 0.930 . S
C1110 C1108 1.384 . S
C1110 C1111 1.372 . S
C1111 C1110 1.372 . S
C1111 C1112 1.400 . S
C1111 C1116 1.490 . S
C1112 H1102 0.930 . S
C1112 C1111 1.400 . S
C1112 C1115 1.386 . S
H1113 C1129 0.930 . S
H1114 C1130 0.931 . S
C1115 H1103 0.929 . S
C1115 C1109 1.390 . S
C1115 C1112 1.386 . S
C1116 C1111 1.490 . S
C1116 C1118 1.395 . S
C1116 C1119 1.403 . S
H1117 C1123 0.930 . S
C1118 H1104 0.930 . S
C1118 C1116 1.395 . S
C1118 C1121 1.403 . S
C1119 C1116 1.403 . S
C1119 C1120 1.524 . S
C1119 C1123 1.400 . S
C1120 H1105 0.960 . S
C1120 H1106 0.960 . S
C1120 H1107 0.960 . S
C1120 C1119 1.524 . S
C1121 C1118 1.403 . S
C1121 C1122 1.392 . S
C1121 C1125 1.495 . S
C1122 C1121 1.392 . S
C1122 C1123 1.385 . S
C1122 C1124 1.478 . S
C1123 H1117 0.930 . S
C1123 C1119 1.400 . S
C1123 C1122 1.385 . S
C1124 C1122 1.478 . S
C1124 C1126 1.381 . S
C1124 C1130 1.383 . S
C1125 C1121 1.495 . S
C1125 H1131 0.959 . S
C1125 H1132 0.961 . S
C1125 H1133 0.960 . S
C1126 C1124 1.381 . S
C1126 C1127 1.394 . S
C1126 H1134 0.930 . S
C1127 C1126 1.394 . S
C1127 C1128 1.383 . S
C1127 H1135 0.929 . S
C1128 C1127 1.383 . S
C1128 C1129 1.377 . S
C1129 H1113 0.930 . S
C1129 C1128 1.377 . S
C1129 C1130 1.379 . S
C1130 H1114 0.931 . S
C1130 C1124 1.383 . S
C1130 C1129 1.379 . S
H1131 C1125 0.959 . S
H1132 C1125 0.961 . S
H1133 C1125 0.960 . S
H1134 C1126 0.930 . S
H1135 C1127 0.929 . S
H1136 C1144 0.929 . S
H1137 C1146 0.930 . S
H1138 C1148 0.930 . S
H1139 C1151 0.929 . S
H1140 C1154 0.930 . S
H1141 C1156 0.960 . S
H1142 C1156 0.960 . S
H1143 C1156 0.960 . S
C1144 H1136 0.929 . S
C1144 C1145 1.377 . S
C1144 C1146 1.384 . S
C1145 C1144 1.377 . S
C1145 C1151 1.390 . S
C1146 H1137 0.930 . S
C1146 C1144 1.384 . S
C1146 C1147 1.372 . S
C1147 C1146 1.372 . S
C1147 C1148 1.400 . S
C1147 C1152 1.490 . S
C1148 H1138 0.930 . S
C1148 C1147 1.400 . S
C1148 C1151 1.386 . S
H1149 C1165 0.930 . S
H1150 C1166 0.931 . S
C1151 H1139 0.929 . S
C1151 C1145 1.390 . S
C1151 C1148 1.386 . S
C1152 C1147 1.490 . S
C1152 C1154 1.395 . S
C1152 C1155 1.403 . S
H1153 C1159 0.930 . S
C1154 H1140 0.930 . S
C1154 C1152 1.395 . S
C1154 C1157 1.403 . S
C1155 C1152 1.403 . S
C1155 C1156 1.524 . S
C1155 C1159 1.400 . S
C1156 H1141 0.960 . S
C1156 H1142 0.960 . S
C1156 H1143 0.960 . S
C1156 C1155 1.524 . S
C1157 C1154 1.403 . S
C1157 C1158 1.392 . S
C1157 C1161 1.495 . S
C1158 C1157 1.392 . S
C1158 C1159 1.385 . S
C1158 C1160 1.478 . S
C1159 H1153 0.930 . S
C1159 C1155 1.400 . S
C1159 C1158 1.385 . S
C1160 C1158 1.478 . S
C1160 C1162 1.381 . S
C1160 C1166 1.383 . S
C1161 C1157 1.495 . S
C1161 H1167 0.959 . S
C1161 H1168 0.961 . S
C1161 H1169 0.960 . S
C1162 C1160 1.381 . S
C1162 C1163 1.394 . S
C1162 H1170 0.930 . S
C1163 C1162 1.394 . S
C1163 C1164 1.383 . S
C1163 H1171 0.929 . S
C1164 C1163 1.383 . S
C1164 C1165 1.377 . S
C1165 H1149 0.930 . S
C1165 C1164 1.377 . S
C1165 C1166 1.379 . S
C1166 H1150 0.931 . S
C1166 C1160 1.383 . S
C1166 C1165 1.379 . S
H1167 C1161 0.959 . S
H1168 C1161 0.961 . S
H1169 C1161 0.960 . S
H1170 C1162 0.930 . S
H1171 C1163 0.929 . S
H1172 C1180 0.929 . S
H1173 C1182 0.930 . S
H1174 C1184 0.930 . S
H1175 C1187 0.929 . S
H1176 C1190 0.930 . S
H1177 C1192 0.960 . S
H1178 C1192 0.960 . S
H1179 C1192 0.960 . S
C1180 H1172 0.929 . S
C1180 C1181 1.377 . S
C1180 C1182 1.384 . S
C1181 C1180 1.377 . S
C1181 C1187 1.390 . S
C1182 H1173 0.930 . S
C1182 C1180 1.384 . S
C1182 C1183 1.372 . S
C1183 C1182 1.372 . S
C1183 C1184 1.400 . S
C1183 C1188 1.490 . S
C1184 H1174 0.930 . S
C1184 C1183 1.400 . S
C1184 C1187 1.386 . S
H1185 C1201 0.930 . S
H1186 C1202 0.931 . S
C1187 H1175 0.929 . S
C1187 C1181 1.390 . S
C1187 C1184 1.386 . S
C1188 C1183 1.490 . S
C1188 C1190 1.395 . S
C1188 C1191 1.403 . S
H1189 C1195 0.930 . S
C1190 H1176 0.930 . S
C1190 C1188 1.395 . S
C1190 C1193 1.403 . S
C1191 C1188 1.403 . S
C1191 C1192 1.524 . S
C1191 C1195 1.400 . S
C1192 H1177 0.960 . S
C1192 H1178 0.960 . S
C1192 H1179 0.960 . S
C1192 C1191 1.524 . S
C1193 C1190 1.403 . S
C1193 C1194 1.392 . S
C1193 C1197 1.495 . S
C1194 C1193 1.392 . S
C1194 C1195 1.385 . S
C1194 C1196 1.478 . S
C1195 H1189 0.930 . S
C1195 C1191 1.400 . S
C1195 C1194 1.385 . S
C1196 C1194 1.478 . S
C1196 C1198 1.381 . S
C1196 C1202 1.383 . S
C1197 C1193 1.495 . S
C1197 H1203 0.959 . S
C1197 H1204 0.961 . S
C1197 H1205 0.960 . S
C1198 C1196 1.381 . S
C1198 C1199 1.394 . S
C1198 H1206 0.930 . S
C1199 C1198 1.394 . S
C1199 C1200 1.383 . S
C1199 H1207 0.929 . S
C1200 C1199 1.383 . S
C1200 C1201 1.377 . S
C1201 H1185 0.930 . S
C1201 C1200 1.377 . S
C1201 C1202 1.379 . S
C1202 H1186 0.931 . S
C1202 C1196 1.383 . S
C1202 C1201 1.379 . S
H1203 C1197 0.959 . S
H1204 C1197 0.961 . S
H1205 C1197 0.960 . S
H1206 C1198 0.930 . S
H1207 C1199 0.929 . S
H1208 C1216 0.929 . S
H1209 C1218 0.930 . S
H1210 C1220 0.930 . S
H1211 C1223 0.929 . S
H1212 C1226 0.930 . S
H1213 C1228 0.960 . S
H1214 C1228 0.960 . S
H1215 C1228 0.960 . S
C1216 H1208 0.929 . S
C1216 C1217 1.377 . S
C1216 C1218 1.384 . S
C1217 C1216 1.377 . S
C1217 C1223 1.390 . S
C1218 H1209 0.930 . S
C1218 C1216 1.384 . S
C1218 C1219 1.372 . S
C1219 C1218 1.372 . S
C1219 C1220 1.400 . S
C1219 C1224 1.490 . S
C1220 H1210 0.930 . S
C1220 C1219 1.400 . S
C1220 C1223 1.386 . S
H1221 C1237 0.930 . S
H1222 C1238 0.931 . S
C1223 H1211 0.929 . S
C1223 C1217 1.390 . S
C1223 C1220 1.386 . S
C1224 C1219 1.490 . S
C1224 C1226 1.395 . S
C1224 C1227 1.403 . S
H1225 C1231 0.930 . S
C1226 H1212 0.930 . S
C1226 C1224 1.395 . S
C1226 C1229 1.403 . S
C1227 C1224 1.403 . S
C1227 C1228 1.524 . S
C1227 C1231 1.400 . S
C1228 H1213 0.960 . S
C1228 H1214 0.960 . S
C1228 H1215 0.960 . S
C1228 C1227 1.524 . S
C1229 C1226 1.403 . S
C1229 C1230 1.392 . S
C1229 C1233 1.495 . S
C1230 C1229 1.392 . S
C1230 C1231 1.385 . S
C1230 C1232 1.478 . S
C1231 H1225 0.930 . S
C1231 C1227 1.400 . S
C1231 C1230 1.385 . S
C1232 C1230 1.478 . S
C1232 C1234 1.381 . S
C1232 C1238 1.383 . S
C1233 C1229 1.495 . S
C1233 H1239 0.959 . S
C1233 H1240 0.961 . S
C1233 H1241 0.960 . S
C1234 C1232 1.381 . S
C1234 C1235 1.394 . S
C1234 H1242 0.930 . S
C1235 C1234 1.394 . S
C1235 C1236 1.383 . S
C1235 H1243 0.929 . S
C1236 C1235 1.383 . S
C1236 C1237 1.377 . S
C1237 H1221 0.930 . S
C1237 C1236 1.377 . S
C1237 C1238 1.379 . S
C1238 H1222 0.931 . S
C1238 C1232 1.383 . S
C1238 C1237 1.379 . S
H1239 C1233 0.959 . S
H1240 C1233 0.961 . S
H1241 C1233 0.960 . S
H1242 C1234 0.930 . S
H1243 C1235 0.929 . S
H1244 C1252 0.929 . S
H1245 C1254 0.930 . S
H1246 C1256 0.930 . S
H1247 C1259 0.929 . S
H1248 C1262 0.930 . S
H1249 C1264 0.960 . S
H1250 C1264 0.960 . S
H1251 C1264 0.960 . S
C1252 H1244 0.929 . S
C1252 C1253 1.377 . S
C1252 C1254 1.384 . S
C1253 C1252 1.377 . S
C1253 C1259 1.390 . S
C1254 H1245 0.930 . S
C1254 C1252 1.384 . S
C1254 C1255 1.372 . S
C1255 C1254 1.372 . S
C1255 C1256 1.400 . S
C1255 C1260 1.490 . S
C1256 H1246 0.930 . S
C1256 C1255 1.400 . S
C1256 C1259 1.386 . S
H1257 C1273 0.930 . S
H1258 C1274 0.931 . S
C1259 H1247 0.929 . S
C1259 C1253 1.390 . S
C1259 C1256 1.386 . S
C1260 C1255 1.490 . S
C1260 C1262 1.395 . S
C1260 C1263 1.403 . S
H1261 C1267 0.930 . S
C1262 H1248 0.930 . S
C1262 C1260 1.395 . S
C1262 C1265 1.403 . S
C1263 C1260 1.403 . S
C1263 C1264 1.524 . S
C1263 C1267 1.400 . S
C1264 H1249 0.960 . S
C1264 H1250 0.960 . S
C1264 H1251 0.960 . S
C1264 C1263 1.524 . S
C1265 C1262 1.403 . S
C1265 C1266 1.392 . S
C1265 C1269 1.495 . S
C1266 C1265 1.392 . S
C1266 C1267 1.385 . S
C1266 C1268 1.478 . S
C1267 H1261 0.930 . S
C1267 C1263 1.400 . S
C1267 C1266 1.385 . S
C1268 C1266 1.478 . S
C1268 C1270 1.381 . S
C1268 C1274 1.383 . S
C1269 C1265 1.495 . S
C1269 H1275 0.959 . S
C1269 H1276 0.961 . S
C1269 H1277 0.960 . S
C1270 C1268 1.381 . S
C1270 C1271 1.394 . S
C1270 H1278 0.930 . S
C1271 C1270 1.394 . S
C1271 C1272 1.383 . S
C1271 H1279 0.929 . S
C1272 C1271 1.383 . S
C1272 C1273 1.377 . S
C1273 H1257 0.930 . S
C1273 C1272 1.377 . S
C1273 C1274 1.379 . S
C1274 H1258 0.931 . S
C1274 C1268 1.383 . S
C1274 C1273 1.379 . S
H1275 C1269 0.959 . S
H1276 C1269 0.961 . S
H1277 C1269 0.960 . S
H1278 C1270 0.930 . S
H1279 C1271 0.929 . S
C425 C29 1.216 . S
C444 C263 1.200 . S
C461 C49 0.889 . S
C480 C312 0.908 . S
C516 C338 2.468 . S
C497 C93 2.472 . S
C533 C119 2.223 . S
C552 C386 2.232 . S
C588 C298 2.349 . S
C569 C17 2.343 . S
C624 C266 0.931 . S
C605 C61 0.936 . S
C660 C387 1.850 . S
C641 C81 1.872 . S
C696 C355 1.559 . S
C677 C125 1.553 . S
C713 C23 1.650 . S
C732 C383 1.649 . S
C768 C315 2.273 . S
C749 C87 2.315 . S
C785 C113 2.329 . S
C804 C267 2.353 . S
C821 C55 0.730 . S
C840 C352 0.731 . S
C876 C272 1.188 . S
C857 C157 1.078 . S
C893 C189 0.940 . S
C912 C303 0.944 . S
C929 C221 2.425 . S
C948 C347 2.438 . S
C965 C253 2.299 . S
C984 C395 2.296 . S
C1001 C145 2.250 . S
C1020 C307 2.436 . S
C1056 C275 0.877 . S
C1037 C183 0.857 . S
C1092 C378 1.914 . S
C1073 C209 1.898 . S
C1128 C346 1.501 . S
C1109 C247 1.497 . S
C1145 C151 1.544 . S
C1164 C392 1.665 . S
C1200 C306 2.271 . S
C1181 C215 2.310 . S
C1236 C258 2.307 . S
C1217 C241 2.266 . S
C1253 C177 0.730 . S
C1272 C343 0.712 . S
