# Generated by pormake.
# Topology anh, (6,3)-cn, num edge types: 1
# Building blocks:
#     Node 0, Type 0, BuildingBlock: CUKXOW_clean_sbu_0, # of connection points: 6
#     Node 1, Type 0, BuildingBlock: CUKXOW_clean_sbu_0, # of connection points: 6
#     Node 2, Type 0, BuildingBlock: CUKXOW_clean_sbu_0, # of connection points: 6
#     Node 3, Type 1, BuildingBlock: BELTOD_clean_linker_0, # of connection points: 3
#     Node 4, Type 1, BuildingBlock: BELTOD_clean_linker_0, # of connection points: 3
#     Node 5, Type 1, BuildingBlock: BELTOD_clean_linker_0, # of connection points: 3
#     Node 6, Type 1, BuildingBlock: BELTOD_clean_linker_0, # of connection points: 3
#     Node 7, Type 1, BuildingBlock: BELTOD_clean_linker_0, # of connection points: 3
#     Node 8, Type 1, BuildingBlock: BELTOD_clean_linker_0, # of connection points: 3
#     Edge 9, Type (0, 1), BuildingBlock: KIFKEQ_clean_linker_1, # of connection points: 2
#     Edge 10, Type (0, 1), BuildingBlock: KIFKEQ_clean_linker_1, # of connection points: 2
#     Edge 11, Type (0, 1), BuildingBlock: KIFKEQ_clean_linker_1, # of connection points: 2
#     Edge 12, Type (0, 1), BuildingBlock: KIFKEQ_clean_linker_1, # of connection points: 2
#     Edge 13, Type (0, 1), BuildingBlock: KIFKEQ_clean_linker_1, # of connection points: 2
#     Edge 14, Type (0, 1), BuildingBlock: KIFKEQ_clean_linker_1, # of connection points: 2
#     Edge 15, Type (0, 1), BuildingBlock: KIFKEQ_clean_linker_1, # of connection points: 2
#     Edge 16, Type (0, 1), BuildingBlock: KIFKEQ_clean_linker_1, # of connection points: 2
#     Edge 17, Type (0, 1), BuildingBlock: KIFKEQ_clean_linker_1, # of connection points: 2
#     Edge 18, Type (0, 1), BuildingBlock: KIFKEQ_clean_linker_1, # of connection points: 2
#     Edge 19, Type (0, 1), BuildingBlock: KIFKEQ_clean_linker_1, # of connection points: 2
#     Edge 20, Type (0, 1), BuildingBlock: KIFKEQ_clean_linker_1, # of connection points: 2
#     Edge 21, Type (0, 1), BuildingBlock: KIFKEQ_clean_linker_1, # of connection points: 2
#     Edge 22, Type (0, 1), BuildingBlock: KIFKEQ_clean_linker_1, # of connection points: 2
#     Edge 23, Type (0, 1), BuildingBlock: KIFKEQ_clean_linker_1, # of connection points: 2
#     Edge 24, Type (0, 1), BuildingBlock: KIFKEQ_clean_linker_1, # of connection points: 2
#     Edge 25, Type (0, 1), BuildingBlock: KIFKEQ_clean_linker_1, # of connection points: 2
#     Edge 26, Type (0, 1), BuildingBlock: KIFKEQ_clean_linker_1, # of connection points: 2
# Relax obj value: 0.123
# Max RMSD: 0.188
# Mean RMSD: 0.130
data_MOF--net-anh--node1-CUKXOW_clean_sbu_0--node2-BELTOD_clean_linker_0--edge1-KIFKEQ_clean_linker_1
_symmetry_space_group_name_H-M    P1
_symmetry_Int_Tables_number       1
_symmetry_cell_setting            triclinic
loop_
_symmetry_equiv_pos_as_xyz
'x, y, z'
_cell_length_a     33.442634
_cell_length_b     32.425691
_cell_length_c     60.313305
_cell_angle_alpha  95.576707
_cell_angle_beta   90.163715
_cell_angle_gamma 115.22508
loop_
_atom_site_label
_atom_site_type_symbol
_atom_site_fract_x
_atom_site_fract_y
_atom_site_fract_z
_atom_type_partial_charge
Tb0 Tb 0.07388 0.55991 0.15763 0.0
C1 C 0.03493 0.49878 0.19678 0.0
Tb2 Tb 1.00714 0.45246 0.14619 0.0
O3 O 0.02139 0.58472 0.16164 0.0
O4 O 1.00622 0.51687 0.15339 0.0
O5 O 0.06537 0.53774 0.19069 0.0
C6 C 0.93525 0.37263 0.14312 0.0
O7 O 1.00726 0.46398 0.18263 0.0
C8 C 0.09264 0.46875 0.14555 0.0
C9 C 0.04696 0.51348 0.10729 0.0
O10 O 0.97387 0.38023 0.15142 0.0
O11 O 0.93711 0.41002 0.13606 0.0
O12 O 0.05978 0.42862 0.14055 0.0
O13 O 0.07506 0.49582 0.15016 0.0
O14 O 0.01362 0.47587 0.11313 0.0
O15 O 0.07672 0.5459 0.12172 0.0
C16 C 0.14965 0.63478 0.16524 0.0
O17 O 0.11851 0.62936 0.15071 0.0
O18 O 0.13779 0.59833 0.17558 0.0
C19 C 0.9887 0.54427 0.15683 0.0
Tb20 Tb 0.47632 0.00926 0.51221 0.0
C21 C 0.52118 0.04541 0.46777 0.0
Tb22 Tb 0.57598 0.0847 0.51386 0.0
O23 O 0.44583 0.0589 0.51656 0.0
O24 O 0.5122 0.07938 0.51511 0.0
O25 O 0.49159 0.00989 0.477 0.0
C26 C 0.65128 0.15698 0.50848 0.0
O27 O 0.55263 0.08127 0.47966 0.0
C28 C 0.56399 0.99999 0.51696 0.0
C29 C 0.5309 0.05327 0.55862 0.0
O30 O 0.63811 0.11655 0.49757 0.0
O31 O 0.62216 0.15684 0.52278 0.0
O32 O 0.59904 0.03603 0.52489 0.0
O33 O 0.5401 0.01248 0.50572 0.0
O34 O 0.56135 0.08748 0.54894 0.0
O35 O 0.49799 0.01744 0.5473 0.0
C36 C 0.40569 0.92876 0.50905 0.0
O37 O 0.43916 0.94133 0.52326 0.0
O38 O 0.41189 0.96166 0.49686 0.0
C39 C 0.48375 0.09458 0.51676 0.0
Tb40 Tb 0.49848 0.51079 0.82791 0.0
C41 C 0.53794 0.50137 0.87288 0.0
Tb42 Tb 0.58997 0.51236 0.82809 0.0
O43 O 0.46804 0.43923 0.83573 0.0
O44 O 0.52532 0.464 0.81773 0.0
O45 O 0.51005 0.51474 0.86361 0.0
C46 C 0.66109 0.49621 0.83167 0.0
O47 O 0.56756 0.49241 0.86123 0.0
C48 C 0.58877 0.59273 0.82798 0.0
C49 C 0.54887 0.5174 0.78262 0.0
O50 O 0.65254 0.52507 0.84492 0.0
O51 O 0.62968 0.47642 0.81629 0.0
O52 O 0.61972 0.58305 0.81948 0.0
O53 O 0.56337 0.5596 0.83792 0.0
O54 O 0.5777 0.50594 0.79236 0.0
O55 O 0.51797 0.52491 0.79377 0.0
C56 C 0.43514 0.53916 0.82519 0.0
O57 O 0.43145 0.49903 0.81701 0.0
O58 O 0.47372 0.56234 0.83517 0.0
C59 C 0.49948 0.43021 0.82711 0.0
P60 P 0.58838 0.98187 0.22983 0.0
H61 H 0.56318 0.91391 0.19091 0.0
H62 H 0.49133 0.86316 0.1725 0.0
H63 H 0.42925 0.93192 0.21495 0.0
H64 H 0.50138 0.98365 0.2325 0.0
H65 H 0.68264 0.01776 0.22261 0.0
H66 H 0.73273 0.08072 0.20304 0.0
H67 H 0.62576 0.11661 0.18835 0.0
H68 H 0.57542 0.05305 0.20821 0.0
H69 H 0.53135 0.92631 0.26169 0.0
H70 H 0.62068 0.06869 0.25985 0.0
O71 O 0.61195 0.94595 0.23126 0.0
H72 H 0.51588 0.94288 0.3002 0.0
H73 H 0.60514 0.0857 0.29852 0.0
C74 C 0.53724 0.95138 0.21353 0.0
C75 C 0.53415 0.91851 0.19593 0.0
C76 C 0.49303 0.88941 0.18552 0.0
C77 C 0.45434 0.8927 0.19262 0.0
C78 C 0.45827 0.92833 0.20904 0.0
C79 C 0.49951 0.95769 0.21929 0.0
C80 C 0.6252 0.03031 0.2165 0.0
C81 C 0.66982 0.03901 0.21516 0.0
C82 C 0.6984 0.0749 0.20385 0.0
C83 C 0.683 0.10311 0.19381 0.0
C84 C 0.6385 0.09532 0.19585 0.0
C85 C 0.60975 0.05904 0.20712 0.0
C86 C 0.57686 0.99628 0.2579 0.0
C87 C 0.54734 0.96127 0.26956 0.0
C88 C 0.53831 0.97085 0.29152 0.0
C89 C 0.55905 0.01566 0.30237 0.0
C90 C 0.58879 0.0508 0.29063 0.0
C91 C 0.59758 0.04117 0.26851 0.0
P92 P 0.60648 0.58136 0.54501 0.0
H93 H 0.6301 0.52919 0.5095 0.0
H94 H 0.6024 0.44665 0.49955 0.0
H95 H 0.49142 0.42375 0.541 0.0
H96 H 0.51924 0.50668 0.55085 0.0
H97 H 0.65631 0.67908 0.54732 0.0
H98 H 0.63939 0.74097 0.53762 0.0
H99 H 0.50737 0.64295 0.51455 0.0
H100 H 0.52481 0.58026 0.52466 0.0
H101 H 0.64929 0.55284 0.57827 0.0
H102 H 0.5464 0.59934 0.57597 0.0
O103 O 0.66028 0.598 0.54095 0.0
H104 H 0.63726 0.54229 0.61761 0.0
H105 H 0.53352 0.58808 0.61532 0.0
C106 C 0.5772 0.52404 0.53125 0.0
C107 C 0.59907 0.50664 0.51592 0.0
C108 C 0.58339 0.45938 0.51036 0.0
C109 C 0.54536 0.42875 0.51993 0.0
C110 C 0.5209 0.44652 0.53343 0.0
C111 C 0.53677 0.49395 0.53906 0.0
C112 C 0.59226 0.62504 0.53613 0.0
C113 C 0.6239 0.67064 0.53985 0.0
C114 C 0.61417 0.70609 0.53423 0.0
C115 C 0.57229 0.6969 0.52488 0.0
C116 C 0.54002 0.65107 0.52159 0.0
C117 C 0.54999 0.61527 0.52719 0.0
C118 C 0.59947 0.57785 0.57439 0.0
C119 C 0.62443 0.56128 0.58633 0.0
C120 C 0.61715 0.55477 0.60875 0.0
C121 C 0.58436 0.56427 0.61958 0.0
C122 C 0.55943 0.58106 0.60753 0.0
C123 C 0.56676 0.58753 0.58505 0.0
P124 P 0.10333 0.68883 0.88958 0.0
H125 H 0.16037 0.72512 0.85302 0.0
H126 H 0.21245 0.70135 0.83332 0.0
H127 H 0.19383 0.60359 0.88071 0.0
H128 H 0.14116 0.62601 0.89955 0.0
H129 H 0.03492 0.70801 0.86838 0.0
H130 H 0.96489 0.65728 0.84818 0.0
H131 H 0.99744 0.54242 0.85105 0.0
H132 H 0.06706 0.59308 0.87132 0.0
H133 H 0.16095 0.70937 0.92949 0.0
H134 H 0.02253 0.62891 0.91062 0.0
O135 O 0.11487 0.74435 0.89037 0.0
H136 H 0.14953 0.67675 0.96516 0.0
H137 H 1.01127 0.59553 0.94574 0.0
C138 C 0.14795 0.67835 0.87813 0.0
C139 C 0.16834 0.69926 0.85937 0.0
C140 C 0.19782 0.68549 0.84807 0.0
C141 C 0.2068 0.65025 0.85533 0.0
C142 C 0.18696 0.63022 0.87444 0.0
C143 C 0.15749 0.6438 0.88558 0.0
C144 C 0.05615 0.65431 0.87121 0.0
C145 C 0.02749 0.67219 0.86414 0.0
C146 C 0.98767 0.64322 0.85248 0.0
C147 C 0.97593 0.59596 0.84803 0.0
C148 C 1.00576 0.57867 0.85426 0.0
C149 C 0.04558 0.60767 0.86577 0.0
C150 C 0.09294 0.67086 0.91717 0.0
C151 C 0.12808 0.68504 0.93309 0.0
C152 C 0.12158 0.66603 0.95335 0.0
C153 C 0.07964 0.6329 0.95809 0.0
C154 C 0.04397 0.62089 0.94261 0.0
C155 C 0.05053 0.63984 0.92237 0.0
P156 P 0.07364 0.46429 0.43694 0.0
H157 H 0.16974 0.51 0.44243 0.0
H158 H 0.22139 0.58642 0.45844 0.0
H159 H 0.11127 0.61596 0.47821 0.0
H160 H 0.06 0.5403 0.46116 0.0
H161 H 0.04133 0.39828 0.46972 0.0
H162 H 0.96987 0.36194 0.48644 0.0
H163 H 0.92264 0.4456 0.45284 0.0
H164 H 0.99445 0.48198 0.43615 0.0
H165 H 0.13281 0.51684 0.40419 0.0
H166 H 0.99617 0.41944 0.40515 0.0
O167 O 0.09711 0.42814 0.43763 0.0
H168 H 0.12314 0.52112 0.36473 0.0
H169 H 0.98497 0.42655 0.36617 0.0
C170 C 0.11102 0.51918 0.45082 0.0
C171 C 0.15674 0.5328 0.45041 0.0
C172 C 0.18628 0.57652 0.45971 0.0
C173 C 0.17061 0.60748 0.46976 0.0
C174 C 0.1246 0.59333 0.47039 0.0
C175 C 0.09511 0.54975 0.46081 0.0
C176 C 0.02264 0.44171 0.45114 0.0
C177 C 0.01576 0.4091 0.46608 0.0
C178 C 0.97504 0.38868 0.47581 0.0
C179 C 0.94055 0.40066 0.47078 0.0
C180 C 0.94844 0.43529 0.45677 0.0
C181 C 0.98936 0.45598 0.44721 0.0
C182 C 0.06483 0.46932 0.40799 0.0
C183 C 0.10032 0.49732 0.39609 0.0
C184 C 0.09459 0.49994 0.37341 0.0
C185 C 0.05299 0.47484 0.36209 0.0
C186 C 0.0176 0.44626 0.3741 0.0
C187 C 0.02373 0.44285 0.39667 0.0
P188 P 0.60967 0.04662 0.79833 0.0
H189 H 0.62428 0.11363 0.83724 0.0
H190 H 0.59294 0.16858 0.84586 0.0
H191 H 0.49145 0.09706 0.79357 0.0
H192 H 0.52313 0.04226 0.78496 0.0
H193 H 0.66915 0.0128 0.81676 0.0
H194 H 0.66031 0.93775 0.82465 0.0
H195 H 0.52046 0.88223 0.80679 0.0
H196 H 0.52929 0.95926 0.8004 0.0
H197 H 0.64794 0.11548 0.76777 0.0
H198 H 0.55553 0.97274 0.76303 0.0
O199 O 0.66243 0.08242 0.80523 0.0
H200 H 0.63501 0.11625 0.72805 0.0
H201 H 0.54127 0.97363 0.72353 0.0
C202 C 0.57664 0.07434 0.81015 0.0
C203 C 0.59441 0.10879 0.8281 0.0
C204 C 0.57641 0.14031 0.83303 0.0
C205 C 0.54028 0.13789 0.82006 0.0
C206 C 0.5199 0.1005 0.80355 0.0
C207 C 0.53779 0.06886 0.79873 0.0
C208 C 0.59999 0.99179 0.80764 0.0
C209 C 0.63631 0.98487 0.81489 0.0
C210 C 0.63127 0.94143 0.81914 0.0
C211 C 0.58989 0.9032 0.81572 0.0
C212 C 0.55291 0.91063 0.80958 0.0
C213 C 0.55792 0.95467 0.80576 0.0
C214 C 0.60345 0.04387 0.7684 0.0
C215 C 0.62529 0.08408 0.75814 0.0
C216 C 0.61738 0.08464 0.73544 0.0
C217 C 0.5869 0.04505 0.72255 0.0
C218 C 0.56541 0.00458 0.73285 0.0
C219 C 0.57353 0.00405 0.75558 0.0
P220 P 0.52496 0.46127 0.11479 0.0
H221 H 0.5664 0.4455 0.15415 0.0
H222 H 0.64354 0.46261 0.16366 0.0
H223 H 0.68599 0.55086 0.11101 0.0
H224 H 0.60902 0.53439 0.10188 0.0
H225 H 0.43786 0.40253 0.12965 0.0
H226 H 0.37305 0.41446 0.13889 0.0
H227 H 0.44721 0.55987 0.13557 0.0
H228 H 0.51319 0.54736 0.12603 0.0
H229 H 0.57188 0.43663 0.07932 0.0
H230 H 0.48099 0.49933 0.08491 0.0
O231 O 0.50936 0.40526 0.11577 0.0
H232 H 0.57439 0.44312 0.03926 0.0
H233 H 0.48395 0.50652 0.04511 0.0
C234 C 0.58137 0.48822 0.12714 0.0
C235 C 0.59233 0.46988 0.14515 0.0
C236 C 0.63665 0.47944 0.15048 0.0
C237 C 0.67118 0.50731 0.13778 0.0
C238 C 0.66033 0.52839 0.12085 0.0
C239 C 0.61609 0.51932 0.11575 0.0
C240 C 0.48116 0.47405 0.12735 0.0
C241 C 0.44106 0.43734 0.13145 0.0
C242 C 0.4035 0.44425 0.13678 0.0
C243 C 0.40435 0.4882 0.13807 0.0
C244 C 0.44497 0.52544 0.13462 0.0
C245 C 0.48302 0.51845 0.12947 0.0
C246 C 0.52669 0.4679 0.08531 0.0
C247 C 0.55274 0.45214 0.072 0.0
C248 C 0.55431 0.45606 0.0491 0.0
C249 C 0.52947 0.47547 0.03898 0.0
C250 C 0.50321 0.49104 0.05235 0.0
C251 C 0.50181 0.48728 0.07528 0.0
H252 H 0.12481 0.40533 0.14398 0.0
H253 H 0.16861 0.55157 0.14677 0.0
H254 H 0.20097 0.41539 0.14375 0.0
H255 H 0.2462 0.56202 0.1467 0.0
H256 H 0.37363 0.54439 0.11889 0.0
H257 H 0.3007 0.54502 0.12202 0.0
H258 H 0.26637 0.44473 0.16914 0.0
H259 H 0.33876 0.44443 0.16628 0.0
C260 C 0.15084 0.43987 0.14467 0.0
C261 C 0.14039 0.47765 0.14564 0.0
C262 C 0.19479 0.44568 0.14468 0.0
C263 C 0.23018 0.48957 0.14549 0.0
C264 C 0.21991 0.52767 0.1461 0.0
C265 C 0.17547 0.52179 0.14634 0.0
C266 C 0.35088 0.52314 0.13027 0.0
C267 C 0.36224 0.49376 0.14203 0.0
C268 C 0.3089 0.52347 0.13203 0.0
C269 C 0.27705 0.49431 0.14554 0.0
C270 C 0.28941 0.46686 0.15814 0.0
C271 C 0.33115 0.46666 0.15646 0.0
H272 H 0.70287 0.16327 0.47347 0.0
H273 H 0.69112 0.24043 0.5336 0.0
H274 H 0.77035 0.22853 0.46555 0.0
H275 H 0.75971 0.30611 0.52578 0.0
H276 H 0.91639 0.37428 0.51238 0.0
H277 H 0.84351 0.31953 0.52265 0.0
H278 H 0.79067 0.31097 0.45611 0.0
H279 H 0.8632 0.36523 0.4458 0.0
C280 C 0.7148 0.19428 0.485 0.0
C281 C 0.69197 0.19693 0.50416 0.0
C282 C 0.75322 0.23169 0.48038 0.0
C283 C 0.76994 0.27237 0.49498 0.0
C284 C 0.74735 0.27506 0.51428 0.0
C285 C 0.70827 0.23767 0.51873 0.0
C286 C 0.88897 0.36121 0.5001 0.0
C287 C 0.89549 0.37376 0.47826 0.0
C288 C 0.84731 0.33022 0.50601 0.0
C289 C 0.81174 0.31088 0.49009 0.0
C290 C 0.81773 0.32523 0.46863 0.0
C291 C 0.85913 0.35652 0.4628 0.0
H292 H 0.6198 0.64812 0.7953 0.0
H293 H 0.54771 0.63393 0.85538 0.0
H294 H 0.6157 0.72017 0.79143 0.0
H295 H 0.54493 0.70744 0.85217 0.0
H296 H 0.52143 0.8283 0.831 0.0
H297 H 0.51717 0.75157 0.833 0.0
H298 H 0.64779 0.79562 0.8073 0.0
H299 H 0.6506 0.87024 0.80375 0.0
C300 C 0.60323 0.66068 0.80777 0.0
C301 C 0.58422 0.63557 0.82567 0.0
C302 C 0.60106 0.70223 0.80566 0.0
C303 C 0.58061 0.72043 0.82168 0.0
C304 C 0.56064 0.69457 0.83939 0.0
C305 C 0.56232 0.65249 0.8413 0.0
C306 C 0.54896 0.82138 0.82549 0.0
C307 C 0.58651 0.85599 0.81737 0.0
C308 C 0.54675 0.77742 0.82691 0.0
C309 C 0.58206 0.76695 0.82026 0.0
C310 C 0.61948 0.80169 0.81221 0.0
C311 C 0.62147 0.84517 0.81059 0.0
H312 H 0.9486 0.59089 0.18004 0.0
H313 H 0.92132 0.47815 0.12926 0.0
H314 H 0.872 0.58057 0.17609 0.0
H315 H 0.84425 0.46729 0.12531 0.0
H316 H 0.72847 0.50344 0.10595 0.0
H317 H 0.80331 0.50932 0.11116 0.0
H318 H 0.79426 0.52671 0.18252 0.0
H319 H 0.71928 0.5209 0.17729 0.0
C320 C 0.92598 0.56336 0.16824 0.0
C321 C 0.94089 0.53466 0.15532 0.0
C322 C 0.88193 0.55734 0.16601 0.0
C323 C 0.85157 0.52299 0.15042 0.0
C324 C 0.86655 0.49416 0.13747 0.0
C325 C 0.91058 0.4998 0.13998 0.0
C326 C 0.74248 0.50886 0.12278 0.0
C327 C 0.71765 0.51201 0.14118 0.0
C328 C 0.78534 0.51169 0.12577 0.0
C329 C 0.8051 0.5184 0.14727 0.0
C330 C 0.78038 0.5218 0.1657 0.0
C331 C 0.7372 0.51825 0.16271 0.0
H332 H 0.38649 0.85812 0.53448 0.0
H333 H 0.34107 0.89627 0.47616 0.0
H334 H 0.32646 0.78092 0.52772 0.0
H335 H 0.28244 0.81901 0.46876 0.0
H336 H 0.16158 0.68728 0.46785 0.0
H337 H 0.21483 0.76504 0.48037 0.0
H338 H 0.30604 0.71342 0.50271 0.0
H339 H 0.25146 0.63538 0.4917 0.0
C340 C 0.36354 0.84992 0.52026 0.0
C341 C 0.36826 0.88299 0.50584 0.0
C342 C 0.32936 0.80566 0.51627 0.0
C343 C 0.29955 0.79355 0.49765 0.0
C344 C 0.30414 0.82717 0.48348 0.0
C345 C 0.33797 0.87143 0.48761 0.0
C346 C 0.19253 0.69232 0.47592 0.0
C347 C 0.20221 0.65488 0.47862 0.0
C348 C 0.22343 0.7371 0.48281 0.0
C349 C 0.26505 0.74571 0.49233 0.0
C350 C 0.27424 0.70821 0.49562 0.0
C351 C 0.24313 0.66337 0.48896 0.0
H352 H 0.45552 0.35931 0.85199 0.0
H353 H 0.5515 0.4019 0.80139 0.0
H354 H 0.46181 0.28638 0.85098 0.0
H355 H 0.55787 0.32956 0.80039 0.0
H356 H 0.52226 0.17793 0.78604 0.0
H357 H 0.50967 0.24682 0.78831 0.0
H358 H 0.5193 0.25726 0.86019 0.0
H359 H 0.53142 0.18755 0.85796 0.0
C360 C 0.47789 0.35303 0.84067 0.0
C361 C 0.503 0.38618 0.82676 0.0
C362 C 0.48167 0.31147 0.84017 0.0
C363 C 0.51013 0.30207 0.8255 0.0
C364 C 0.53523 0.33545 0.81166 0.0
C365 C 0.53184 0.37705 0.81235 0.0
C366 C 0.52078 0.19424 0.80237 0.0
C367 C 0.52772 0.17703 0.82183 0.0
C368 C 0.5141 0.23411 0.80365 0.0
C369 C 0.51388 0.25775 0.82442 0.0
C370 C 0.51915 0.23973 0.84394 0.0
C371 C 0.52632 0.19997 0.84266 0.0
H372 H 0.6196 0.97336 0.53734 0.0
H373 H 0.4967 0.91956 0.49777 0.0
H374 H 0.6155 0.89646 0.5365 0.0
H375 H 0.49205 0.84157 0.49748 0.0
H376 H 0.49826 0.71196 0.53303 0.0
H377 H 0.49025 0.78302 0.52943 0.0
H378 H 0.61836 0.84099 0.50114 0.0
H379 H 0.62599 0.7703 0.50412 0.0
C380 C 0.59144 0.94499 0.52863 0.0
C381 C 0.55856 0.95246 0.51755 0.0
C382 C 0.58918 0.901 0.52812 0.0
C383 C 0.55369 0.86327 0.51676 0.0
C384 C 0.51973 0.87021 0.50635 0.0
C385 C 0.52237 0.91467 0.50655 0.0
C386 C 0.5241 0.73943 0.52547 0.0
C387 C 0.56316 0.73587 0.51926 0.0
C388 C 0.51953 0.78003 0.52347 0.0
C389 C 0.55403 0.81756 0.51535 0.0
C390 C 0.5916 0.81275 0.50777 0.0
C391 C 0.59599 0.77234 0.50957 0.0
H392 H 0.70039 0.47075 0.79691 0.0
H393 H 0.71638 0.51431 0.86762 0.0
H394 H 0.77718 0.47985 0.79686 0.0
H395 H 0.79216 0.52204 0.86772 0.0
H396 H 0.92109 0.51881 0.86559 0.0
H397 H 0.84116 0.47737 0.85862 0.0
H398 H 0.84748 0.56118 0.80615 0.0
H399 H 0.92764 0.60283 0.81311 0.0
C400 C 0.7199 0.48077 0.81252 0.0
C401 C 0.70305 0.49226 0.83226 0.0
C402 C 0.76361 0.48599 0.81246 0.0
C403 C 0.79025 0.50148 0.83228 0.0
C404 C 0.77205 0.50949 0.85228 0.0
C405 C 0.7289 0.50537 0.85222 0.0
C406 C 0.90568 0.52721 0.85199 0.0
C407 C 0.93031 0.56433 0.84003 0.0
C408 C 0.86 0.50356 0.84807 0.0
C409 C 0.83843 0.51637 0.83198 0.0
C410 C 0.86354 0.55049 0.81854 0.0
C411 C 0.90922 0.57456 0.82264 0.0
H412 H 0.21686 0.64633 0.19394 0.0
H413 H 0.18059 0.71207 0.14368 0.0
H414 H 0.29033 0.70978 0.19851 0.0
H415 H 0.25482 0.7757 0.14797 0.0
H416 H 0.37809 0.90174 0.18298 0.0
H417 H 0.30354 0.84019 0.17545 0.0
H418 H 0.35617 0.73975 0.17693 0.0
H419 H 0.42988 0.80066 0.18536 0.0
C420 C 0.22467 0.67448 0.18389 0.0
C421 C 0.19319 0.67441 0.16847 0.0
C422 C 0.26685 0.71064 0.18636 0.0
C423 C 0.27854 0.74751 0.17341 0.0
C424 C 0.24671 0.74785 0.15823 0.0
C425 C 0.20435 0.71148 0.15574 0.0
C426 C 0.3737 0.8665 0.18161 0.0
C427 C 0.40999 0.85621 0.18489 0.0
C428 C 0.33108 0.83129 0.17712 0.0
C429 C 0.32395 0.78514 0.17589 0.0
C430 C 0.36049 0.77497 0.17817 0.0
C431 C 0.40291 0.81001 0.18267 0.0
H432 H 0.5556 0.16396 0.50269 0.0
H433 H 0.42873 0.13353 0.53048 0.0
H434 H 0.56886 0.24358 0.50211 0.0
H435 H 0.44241 0.21402 0.53085 0.0
H436 H 0.46465 0.35462 0.51061 0.0
H437 H 0.44851 0.27326 0.50911 0.0
H438 H 0.58641 0.31068 0.52568 0.0
H439 H 0.60237 0.39107 0.52626 0.0
C440 C 0.53092 0.17466 0.5091 0.0
C441 C 0.49155 0.14292 0.51699 0.0
C442 C 0.53844 0.22038 0.50878 0.0
C443 C 0.50695 0.2357 0.51667 0.0
C444 C 0.46724 0.20356 0.52441 0.0
C445 C 0.45949 0.15754 0.5244 0.0
C446 C 0.4914 0.34517 0.51374 0.0
C447 C 0.53486 0.37914 0.51819 0.0
C448 C 0.48219 0.29861 0.51305 0.0
C449 C 0.51618 0.2851 0.51714 0.0
C450 C 0.5595 0.3194 0.52184 0.0
C451 C 0.56872 0.36567 0.52221 0.0
H452 H 0.44232 0.62207 0.84238 0.0
H453 H 0.35274 0.49585 0.80445 0.0
H454 H 0.38553 0.64986 0.8431 0.0
H455 H 0.29568 0.52437 0.80443 0.0
H456 H 0.19536 0.56199 0.84553 0.0
H457 H 0.25029 0.53615 0.83252 0.0
H458 H 0.34014 0.67569 0.82346 0.0
H459 H 0.28585 0.70189 0.83782 0.0
C460 C 0.41053 0.60056 0.83389 0.0
C461 C 0.40145 0.55656 0.8237 0.0
C462 C 0.37812 0.61674 0.83402 0.0
C463 C 0.33599 0.58934 0.82382 0.0
C464 C 0.32765 0.54604 0.81267 0.0
C465 C 0.36017 0.52972 0.81266 0.0
C466 C 0.22679 0.58713 0.84065 0.0
C467 C 0.23686 0.63411 0.84332 0.0
C468 C 0.25804 0.57222 0.83283 0.0
C469 C 0.2999 0.60396 0.82729 0.0
C470 C 0.30849 0.65052 0.82807 0.0
C471 C 0.27728 0.66551 0.8361 0.0
H472 H 0.93093 0.29242 0.1546 0.0
H473 H 0.8489 0.35789 0.13643 0.0
H474 H 0.86557 0.22564 0.16293 0.0
H475 H 0.78271 0.29028 0.14461 0.0
H476 H 0.69369 0.1921 0.1959 0.0
H477 H 0.75109 0.25537 0.17907 0.0
H478 H 0.79889 0.16133 0.14679 0.0
H479 H 0.74192 0.09842 0.16372 0.0
C480 C 0.89872 0.29207 0.15197 0.0
C481 C 0.89489 0.33023 0.1449 0.0
C482 C 0.86118 0.25369 0.15664 0.0
C483 C 0.81887 0.2526 0.15445 0.0
C484 C 0.81489 0.29026 0.14662 0.0
C485 C 0.85265 0.32873 0.14178 0.0
C486 C 0.71595 0.18489 0.18486 0.0
C487 C 0.71383 0.1405 0.18143 0.0
C488 C 0.74875 0.22108 0.17517 0.0
C489 C 0.77991 0.21346 0.16182 0.0
C490 C 0.77598 0.1685 0.15736 0.0
C491 C 0.74339 0.13249 0.16708 0.0
H492 H 0.1215 0.56719 0.08767 0.0
H493 H 0.98261 0.47885 0.07341 0.0
H494 H 0.12778 0.59036 0.05032 0.0
H495 H 0.98915 0.50176 0.03554 0.0
H496 H 1.01064 0.61149 0.98594 0.0
H497 H 1.00131 0.57442 0.02011 0.0
H498 H 0.12491 0.56418 0.01077 0.0
H499 H 0.13421 0.60113 0.97661 0.0
C500 C 0.09238 0.55216 0.07641 0.0
C501 C 0.05143 0.52151 0.08355 0.0
C502 C 0.0961 0.56522 0.05491 0.0
C503 C 0.05891 0.5481 0.04001 0.0
C504 C 0.01827 0.51589 0.04678 0.0
C505 C 0.01461 0.50247 0.06835 0.0
C506 C 0.03556 0.60085 0.99105 0.0
C507 C 0.07343 0.60975 0.97871 0.0
C508 C 0.0301 0.5794 0.01056 0.0
C509 C 0.06241 0.56643 0.01814 0.0
C510 C 0.09974 0.57434 0.00551 0.0
C511 C 0.10519 0.59576 0.98602 0.0
H512 H 0.56917 0.11506 0.44312 0.0
H513 H 0.47437 0.97266 0.43662 0.0
H514 H 0.57523 0.11134 0.40289 0.0
H515 H 0.48133 0.96867 0.39634 0.0
H516 H 0.47982 0.98397 0.3225 0.0
H517 H 0.46713 0.99393 0.36208 0.0
H518 H 0.60726 0.07726 0.3755 0.0
H519 H 0.61974 0.06769 0.33596 0.0
C520 C 0.54947 0.08295 0.43312 0.0
C521 C 0.52152 0.04402 0.44315 0.0
C522 C 0.55316 0.08078 0.41002 0.0
C523 C 0.52915 0.0396 0.39636 0.0
C524 C 0.50001 1.00109 0.40632 0.0
C525 C 0.49614 0.00331 0.42945 0.0
C526 C 0.50785 0.00455 0.33393 0.0
C527 C 0.55081 0.02492 0.32612 0.0
C528 C 0.5006 0.01017 0.35661 0.0
C529 C 0.53617 0.0362 0.37202 0.0
C530 C 0.57898 0.05755 0.36409 0.0
C531 C 0.58619 0.05206 0.3414 0.0
H532 H 0.60485 0.50139 0.75381 0.0
H533 H 0.49976 0.54568 0.75679 0.0
H534 H 0.61133 0.51214 0.71442 0.0
H535 H 0.50586 0.55566 0.71717 0.0
H536 H 0.56894 0.61862 0.65293 0.0
H537 H 0.55817 0.60606 0.69218 0.0
H538 H 0.56987 0.47841 0.67886 0.0
H539 H 0.58055 0.49091 0.63973 0.0
C540 C 0.5829 0.51313 0.74606 0.0
C541 C 0.55173 0.5226 0.75849 0.0
C542 C 0.58647 0.51905 0.72342 0.0
C543 C 0.55902 0.53462 0.71266 0.0
C544 C 0.52776 0.54402 0.72505 0.0
C545 C 0.5241 0.538 0.74772 0.0
C546 C 0.56871 0.58766 0.65836 0.0
C547 C 0.57598 0.55596 0.64326 0.0
C548 C 0.56252 0.58044 0.68082 0.0
C549 C 0.56347 0.54139 0.68864 0.0
C550 C 0.56981 0.50927 0.67344 0.0
C551 C 0.57597 0.51646 0.65102 0.0
H552 H 0.48537 0.9839 0.58407 0.0
H553 H 0.58752 0.12295 0.58867 0.0
H554 H 0.49713 0.98217 0.6238 0.0
H555 H 0.59941 0.12087 0.62836 0.0
H556 H 0.57797 0.11409 0.70334 0.0
H557 H 0.56238 0.11676 0.66414 0.0
H558 H 0.55644 0.98144 0.64835 0.0
H559 H 0.57273 0.97893 0.68751 0.0
C560 C 0.51008 0.01426 0.59354 0.0
C561 C 0.53556 0.05356 0.58311 0.0
C562 C 0.51703 0.01308 0.6163 0.0
C563 C 0.54937 0.05127 0.62919 0.0
C564 C 0.57401 0.091 0.61891 0.0
C565 C 0.56729 0.09209 0.59612 0.0
C566 C 0.57385 0.08507 0.6915 0.0
C567 C 0.57686 0.04637 0.69862 0.0
C568 C 0.56476 0.08659 0.66904 0.0
C569 C 0.55816 0.04933 0.65315 0.0
C570 C 0.56074 0.01045 0.66024 0.0
C571 C 0.57007 0.00902 0.6827 0.0
H572 H 0.58414 0.46795 0.89763 0.0
H573 H 0.48773 0.52396 0.90314 0.0
H574 H 0.58161 0.46087 0.93751 0.0
H575 H 0.48607 0.51794 0.94305 0.0
H576 H 0.45998 0.4573 0.00961 0.0
H577 H 0.46164 0.46253 0.96956 0.0
H578 H 0.6033 0.50715 0.97303 0.0
H579 H 0.60149 0.50148 0.01306 0.0
C580 C 0.5625 0.4789 0.90732 0.0
C581 C 0.5361 0.49648 0.89712 0.0
C582 C 0.56125 0.47509 0.93025 0.0
C583 C 0.53368 0.48888 0.94355 0.0
C584 C 0.50721 0.50634 0.9333 0.0
C585 C 0.50834 0.51001 0.91038 0.0
C586 C 0.49152 0.46857 0.00185 0.0
C587 C 0.5306 0.47901 0.01455 0.0
C588 C 0.4925 0.47159 0.97887 0.0
C589 C 0.53262 0.48529 0.96801 0.0
C590 C 0.57171 0.49576 0.98074 0.0
C591 C 0.5707 0.49259 0.00372 0.0
H592 H 0.04756 0.56534 0.23065 0.0
H593 H 0.01638 0.42156 0.21704 0.0
H594 H 0.04695 0.559 0.27048 0.0
H595 H 0.01896 0.41546 0.25691 0.0
H596 H 0.99767 0.4077 0.3301 0.0
H597 H 0.98783 0.41347 0.2909 0.0
H598 H 0.0882 0.55361 0.29927 0.0
H599 H 0.09435 0.54945 0.3388 0.0
C600 C 0.04087 0.53238 0.23627 0.0
C601 C 0.03215 0.49397 0.22084 0.0
C602 C 0.04092 0.52873 0.25915 0.0
C603 C 0.03356 0.48683 0.26718 0.0
C604 C 0.0241 0.44818 0.25156 0.0
C605 C 0.02286 0.45163 0.22865 0.0
C606 C 0.0169 0.44017 0.32375 0.0
C607 C 0.0469 0.47808 0.33787 0.0
C608 C 1.01183 0.44322 0.30103 0.0
C609 C 0.0373 0.48395 0.29162 0.0
C610 C 0.06727 0.52182 0.30576 0.0
C611 C 0.07156 0.51911 0.32854 0.0
loop_
_geom_bond_atom_site_label_1
_geom_bond_atom_site_label_2
_geom_bond_distance
_geom_bond_site_symmetry_2
_ccdc_geom_bond_type
Tb0 O3 2.453 1_455 S
Tb0 O4 2.596 1_455 S
Tb0 O5 2.374 . S
Tb0 O13 2.343 . S
Tb0 O15 2.353 . S
Tb0 O17 2.427 . S
Tb0 O18 2.513 . S
C1 O5 1.251 . S
C1 O7 1.263 . S
Tb2 O4 2.343 1_455 S
Tb2 O7 2.353 . S
Tb2 O10 2.427 1_455 S
Tb2 O11 2.513 1_455 S
Tb2 O12 2.453 . S
Tb2 O13 2.596 . S
Tb2 O14 2.374 . S
O3 Tb0 2.453 1_655 S
O3 C19 1.245 . S
O4 Tb0 2.596 1_655 S
O4 Tb2 2.343 1_655 S
O4 C19 1.259 . S
O5 Tb0 2.374 . S
O5 C1 1.251 . S
C6 O10 1.275 . S
C6 O11 1.246 . S
O7 C1 1.263 . S
O7 Tb2 2.353 . S
C8 O12 1.245 . S
C8 O13 1.259 . S
C9 O14 1.250 . S
C9 O15 1.263 . S
O10 Tb2 2.427 1_655 S
O10 C6 1.275 . S
O11 Tb2 2.513 1_655 S
O11 C6 1.246 . S
O12 Tb2 2.453 . S
O12 C8 1.245 . S
O13 Tb0 2.343 . S
O13 Tb2 2.596 . S
O13 C8 1.259 . S
O14 Tb2 2.374 . S
O14 C9 1.250 . S
O15 Tb0 2.353 . S
O15 C9 1.263 . S
C16 O17 1.275 . S
C16 O18 1.246 . S
O17 Tb0 2.427 . S
O17 C16 1.275 . S
O18 Tb0 2.513 . S
O18 C16 1.246 . S
C19 O3 1.245 . S
C19 O4 1.259 . S
Tb20 O23 2.453 . S
Tb20 O24 2.596 . S
Tb20 O25 2.374 . S
Tb20 O33 2.343 1_545 S
Tb20 O35 2.353 . S
Tb20 O37 2.427 1_545 S
Tb20 O38 2.513 1_545 S
C21 O25 1.251 . S
C21 O27 1.263 . S
Tb22 O24 2.343 . S
Tb22 O27 2.353 . S
Tb22 O30 2.427 . S
Tb22 O31 2.513 . S
Tb22 O32 2.453 1_545 S
Tb22 O33 2.596 1_545 S
Tb22 O34 2.374 . S
O23 Tb20 2.453 . S
O23 C39 1.245 . S
O24 Tb20 2.596 . S
O24 Tb22 2.343 . S
O24 C39 1.259 . S
O25 Tb20 2.374 . S
O25 C21 1.251 . S
C26 O30 1.275 . S
C26 O31 1.246 . S
O27 C21 1.263 . S
O27 Tb22 2.353 . S
C28 O32 1.245 . S
C28 O33 1.259 . S
C29 O34 1.250 . S
C29 O35 1.263 . S
O30 Tb22 2.427 . S
O30 C26 1.275 . S
O31 Tb22 2.513 . S
O31 C26 1.246 . S
O32 Tb22 2.453 1_565 S
O32 C28 1.245 . S
O33 Tb20 2.343 1_565 S
O33 Tb22 2.596 1_565 S
O33 C28 1.259 . S
O34 Tb22 2.374 . S
O34 C29 1.250 . S
O35 Tb20 2.353 . S
O35 C29 1.263 . S
C36 O37 1.275 . S
C36 O38 1.246 . S
O37 Tb20 2.427 1_565 S
O37 C36 1.275 . S
O38 Tb20 2.513 1_565 S
O38 C36 1.246 . S
C39 O23 1.245 . S
C39 O24 1.259 . S
Tb40 O43 2.453 . S
Tb40 O44 2.596 . S
Tb40 O45 2.374 . S
Tb40 O53 2.343 . S
Tb40 O55 2.353 . S
Tb40 O57 2.427 . S
Tb40 O58 2.513 . S
C41 O45 1.251 . S
C41 O47 1.263 . S
Tb42 O44 2.343 . S
Tb42 O47 2.353 . S
Tb42 O50 2.427 . S
Tb42 O51 2.513 . S
Tb42 O52 2.453 . S
Tb42 O53 2.596 . S
Tb42 O54 2.374 . S
O43 Tb40 2.453 . S
O43 C59 1.245 . S
O44 Tb40 2.596 . S
O44 Tb42 2.343 . S
O44 C59 1.259 . S
O45 Tb40 2.374 . S
O45 C41 1.251 . S
C46 O50 1.275 . S
C46 O51 1.246 . S
O47 C41 1.263 . S
O47 Tb42 2.353 . S
C48 O52 1.245 . S
C48 O53 1.259 . S
C49 O54 1.250 . S
C49 O55 1.263 . S
O50 Tb42 2.427 . S
O50 C46 1.275 . S
O51 Tb42 2.513 . S
O51 C46 1.246 . S
O52 Tb42 2.453 . S
O52 C48 1.245 . S
O53 Tb40 2.343 . S
O53 Tb42 2.596 . S
O53 C48 1.259 . S
O54 Tb42 2.374 . S
O54 C49 1.250 . S
O55 Tb40 2.353 . S
O55 C49 1.263 . S
C56 O57 1.275 . S
C56 O58 1.246 . S
O57 Tb40 2.427 . S
O57 C56 1.275 . S
O58 Tb40 2.513 . S
O58 C56 1.246 . S
C59 O43 1.245 . S
C59 O44 1.259 . S
P60 O71 1.490 1_545 S
P60 C74 1.812 1_545 S
P60 C80 1.803 . S
P60 C86 1.819 . S
H61 C75 0.941 . S
H62 C76 0.939 . S
H63 C78 0.940 . S
H64 C79 0.940 1_545 S
H65 C81 0.939 . S
H66 C82 0.942 . S
H67 C84 0.940 . S
H68 C85 0.939 . S
H69 C87 0.941 . S
H70 C91 0.939 . S
O71 P60 1.490 1_565 S
H72 C88 0.939 1_565 S
H73 C90 0.940 . S
C74 P60 1.812 1_565 S
C74 C75 1.389 . S
C74 C79 1.391 . S
C75 H61 0.941 . S
C75 C74 1.389 . S
C75 C76 1.397 . S
C76 H62 0.939 . S
C76 C75 1.397 . S
C76 C77 1.378 . S
C77 C76 1.378 . S
C77 C78 1.378 . S
C78 H63 0.940 . S
C78 C77 1.378 . S
C78 C79 1.396 . S
C79 H64 0.940 1_565 S
C79 C74 1.391 . S
C79 C78 1.396 . S
C80 P60 1.803 . S
C80 C81 1.378 . S
C80 C85 1.400 . S
C81 H65 0.939 . S
C81 C80 1.378 . S
C81 C82 1.361 . S
C82 H66 0.942 . S
C82 C81 1.361 . S
C82 C83 1.369 . S
C83 C82 1.369 . S
C83 C84 1.404 . S
C84 H67 0.940 . S
C84 C83 1.404 . S
C84 C85 1.389 . S
C85 H68 0.939 . S
C85 C80 1.400 . S
C85 C84 1.389 . S
C86 P60 1.819 . S
C86 C87 1.391 1_545 S
C86 C91 1.391 . S
C87 H69 0.941 . S
C87 C86 1.391 1_565 S
C87 C88 1.396 1_565 S
C88 H72 0.939 1_545 S
C88 C87 1.396 1_545 S
C88 C89 1.397 . S
C89 C88 1.397 . S
C89 C90 1.385 . S
C90 H73 0.940 . S
C90 C89 1.385 . S
C90 C91 1.388 . S
C91 H70 0.939 . S
C91 C86 1.391 . S
C91 C90 1.388 . S
P92 O103 1.490 . S
P92 C106 1.812 . S
P92 C112 1.803 . S
P92 C118 1.819 . S
H93 C107 0.941 . S
H94 C108 0.939 . S
H95 C110 0.940 . S
H96 C111 0.940 . S
H97 C113 0.939 . S
H98 C114 0.942 . S
H99 C116 0.940 . S
H100 C117 0.939 . S
H101 C119 0.941 . S
H102 C123 0.939 . S
O103 P92 1.490 . S
H104 C120 0.939 . S
H105 C122 0.940 . S
C106 P92 1.812 . S
C106 C107 1.389 . S
C106 C111 1.391 . S
C107 H93 0.941 . S
C107 C106 1.389 . S
C107 C108 1.397 . S
C108 H94 0.939 . S
C108 C107 1.397 . S
C108 C109 1.378 . S
C109 C108 1.378 . S
C109 C110 1.378 . S
C110 H95 0.940 . S
C110 C109 1.378 . S
C110 C111 1.396 . S
C111 H96 0.940 . S
C111 C106 1.391 . S
C111 C110 1.396 . S
C112 P92 1.803 . S
C112 C113 1.378 . S
C112 C117 1.400 . S
C113 H97 0.939 . S
C113 C112 1.378 . S
C113 C114 1.361 . S
C114 H98 0.942 . S
C114 C113 1.361 . S
C114 C115 1.369 . S
C115 C114 1.369 . S
C115 C116 1.404 . S
C116 H99 0.940 . S
C116 C115 1.404 . S
C116 C117 1.389 . S
C117 H100 0.939 . S
C117 C112 1.400 . S
C117 C116 1.389 . S
C118 P92 1.819 . S
C118 C119 1.391 . S
C118 C123 1.391 . S
C119 H101 0.941 . S
C119 C118 1.391 . S
C119 C120 1.396 . S
C120 H104 0.939 . S
C120 C119 1.396 . S
C120 C121 1.397 . S
C121 C120 1.397 . S
C121 C122 1.385 . S
C122 H105 0.940 . S
C122 C121 1.385 . S
C122 C123 1.388 . S
C123 H102 0.939 . S
C123 C118 1.391 . S
C123 C122 1.388 . S
P124 O135 1.490 . S
P124 C138 1.812 . S
P124 C144 1.803 . S
P124 C150 1.819 . S
H125 C139 0.941 . S
H126 C140 0.939 . S
H127 C142 0.940 . S
H128 C143 0.940 . S
H129 C145 0.939 . S
H130 C146 0.942 . S
H131 C148 0.940 . S
H132 C149 0.939 . S
H133 C151 0.941 . S
H134 C155 0.939 . S
O135 P124 1.490 . S
H136 C152 0.939 . S
H137 C154 0.940 . S
C138 P124 1.812 . S
C138 C139 1.389 . S
C138 C143 1.391 . S
C139 H125 0.941 . S
C139 C138 1.389 . S
C139 C140 1.397 . S
C140 H126 0.939 . S
C140 C139 1.397 . S
C140 C141 1.378 . S
C141 C140 1.378 . S
C141 C142 1.378 . S
C142 H127 0.940 . S
C142 C141 1.378 . S
C142 C143 1.396 . S
C143 H128 0.940 . S
C143 C138 1.391 . S
C143 C142 1.396 . S
C144 P124 1.803 . S
C144 C145 1.378 . S
C144 C149 1.400 . S
C145 H129 0.939 . S
C145 C144 1.378 . S
C145 C146 1.361 1_455 S
C146 H130 0.942 . S
C146 C145 1.361 1_655 S
C146 C147 1.369 . S
C147 C146 1.369 . S
C147 C148 1.404 . S
C148 H131 0.940 . S
C148 C147 1.404 . S
C148 C149 1.389 1_655 S
C149 H132 0.939 . S
C149 C144 1.400 . S
C149 C148 1.389 1_455 S
C150 P124 1.819 . S
C150 C151 1.391 . S
C150 C155 1.391 . S
C151 H133 0.941 . S
C151 C150 1.391 . S
C151 C152 1.396 . S
C152 H136 0.939 . S
C152 C151 1.396 . S
C152 C153 1.397 . S
C153 C152 1.397 . S
C153 C154 1.385 . S
C154 H137 0.940 . S
C154 C153 1.385 . S
C154 C155 1.388 . S
C155 H134 0.939 . S
C155 C150 1.391 . S
C155 C154 1.388 . S
P156 O167 1.490 . S
P156 C170 1.812 . S
P156 C176 1.803 1_455 S
P156 C182 1.819 . S
H157 C171 0.941 . S
H158 C172 0.939 . S
H159 C174 0.940 . S
H160 C175 0.940 . S
H161 C177 0.939 . S
H162 C178 0.942 . S
H163 C180 0.940 . S
H164 C181 0.939 . S
H165 C183 0.941 . S
H166 C187 0.939 . S
O167 P156 1.490 . S
H168 C184 0.939 . S
H169 C186 0.940 . S
C170 P156 1.812 . S
C170 C171 1.389 . S
C170 C175 1.391 . S
C171 H157 0.941 . S
C171 C170 1.389 . S
C171 C172 1.397 . S
C172 H158 0.939 . S
C172 C171 1.397 . S
C172 C173 1.378 . S
C173 C172 1.378 . S
C173 C174 1.378 . S
C174 H159 0.940 . S
C174 C173 1.378 . S
C174 C175 1.396 . S
C175 H160 0.940 . S
C175 C170 1.391 . S
C175 C174 1.396 . S
C176 P156 1.803 1_655 S
C176 C177 1.378 . S
C176 C181 1.400 . S
C177 H161 0.939 . S
C177 C176 1.378 . S
C177 C178 1.361 . S
C178 H162 0.942 . S
C178 C177 1.361 . S
C178 C179 1.369 . S
C179 C178 1.369 . S
C179 C180 1.404 . S
C180 H163 0.940 . S
C180 C179 1.404 . S
C180 C181 1.389 . S
C181 H164 0.939 . S
C181 C176 1.400 . S
C181 C180 1.389 . S
C182 P156 1.819 . S
C182 C183 1.391 . S
C182 C187 1.391 1_455 S
C183 H165 0.941 . S
C183 C182 1.391 . S
C183 C184 1.396 . S
C184 H168 0.939 . S
C184 C183 1.396 . S
C184 C185 1.397 . S
C185 C184 1.397 . S
C185 C186 1.385 1_455 S
C186 H169 0.940 . S
C186 C185 1.385 1_655 S
C186 C187 1.388 . S
C187 H166 0.939 . S
C187 C182 1.391 1_655 S
C187 C186 1.388 . S
P188 O199 1.490 . S
P188 C202 1.812 . S
P188 C208 1.784 1_545 S
P188 C214 1.819 . S
H189 C203 0.941 . S
H190 C204 0.939 . S
H191 C206 0.940 . S
H192 C207 0.940 . S
H193 C209 0.939 . S
H194 C210 0.942 . S
H195 C212 0.940 . S
H196 C213 0.939 . S
H197 C215 0.941 . S
H198 C219 0.939 . S
O199 P188 1.490 . S
H200 C216 0.939 . S
H201 C218 0.940 . S
C202 P188 1.812 . S
C202 C203 1.389 . S
C202 C207 1.391 . S
C203 H189 0.941 . S
C203 C202 1.389 . S
C203 C204 1.397 . S
C204 H190 0.939 . S
C204 C203 1.397 . S
C204 C205 1.378 . S
C205 C204 1.378 . S
C205 C206 1.378 . S
C206 H191 0.940 . S
C206 C205 1.378 . S
C206 C207 1.396 . S
C207 H192 0.940 . S
C207 C202 1.391 . S
C207 C206 1.396 . S
C208 P188 1.784 1_565 S
C208 C209 1.398 . S
C208 C213 1.401 . S
C209 H193 0.939 . S
C209 C208 1.398 . S
C209 C210 1.361 . S
C210 H194 0.942 . S
C210 C209 1.361 . S
C210 C211 1.369 . S
C211 C210 1.369 . S
C211 C212 1.404 . S
C212 H195 0.940 . S
C212 C211 1.404 . S
C212 C213 1.389 . S
C213 H196 0.939 . S
C213 C208 1.401 . S
C213 C212 1.389 . S
C214 P188 1.819 . S
C214 C215 1.391 . S
C214 C219 1.391 1_545 S
C215 H197 0.941 . S
C215 C214 1.391 . S
C215 C216 1.396 . S
C216 H200 0.939 . S
C216 C215 1.396 . S
C216 C217 1.397 . S
C217 C216 1.397 . S
C217 C218 1.385 1_545 S
C218 H201 0.940 . S
C218 C217 1.385 1_565 S
C218 C219 1.388 . S
C219 H198 0.939 . S
C219 C214 1.391 1_565 S
C219 C218 1.388 . S
P220 O231 1.490 . S
P220 C234 1.812 . S
P220 C240 1.803 . S
P220 C246 1.819 . S
H221 C235 0.941 . S
H222 C236 0.939 . S
H223 C238 0.940 . S
H224 C239 0.940 . S
H225 C241 0.939 . S
H226 C242 0.942 . S
H227 C244 0.940 . S
H228 C245 0.939 . S
H229 C247 0.941 . S
H230 C251 0.939 . S
O231 P220 1.490 . S
H232 C248 0.939 . S
H233 C250 0.940 . S
C234 P220 1.812 . S
C234 C235 1.389 . S
C234 C239 1.391 . S
C235 H221 0.941 . S
C235 C234 1.389 . S
C235 C236 1.397 . S
C236 H222 0.939 . S
C236 C235 1.397 . S
C236 C237 1.378 . S
C237 C236 1.378 . S
C237 C238 1.378 . S
C238 H223 0.940 . S
C238 C237 1.378 . S
C238 C239 1.396 . S
C239 H224 0.940 . S
C239 C234 1.391 . S
C239 C238 1.396 . S
C240 P220 1.803 . S
C240 C241 1.378 . S
C240 C245 1.400 . S
C241 H225 0.939 . S
C241 C240 1.378 . S
C241 C242 1.361 . S
C242 H226 0.942 . S
C242 C241 1.361 . S
C242 C243 1.369 . S
C243 C242 1.369 . S
C243 C244 1.404 . S
C244 H227 0.940 . S
C244 C243 1.404 . S
C244 C245 1.389 . S
C245 H228 0.939 . S
C245 C240 1.400 . S
C245 C244 1.389 . S
C246 P220 1.819 . S
C246 C247 1.391 . S
C246 C251 1.391 . S
C247 H229 0.941 . S
C247 C246 1.391 . S
C247 C248 1.396 . S
C248 H232 0.939 . S
C248 C247 1.396 . S
C248 C249 1.397 . S
C249 C248 1.397 . S
C249 C250 1.385 . S
C250 H233 0.940 . S
C250 C249 1.385 . S
C250 C251 1.388 . S
C251 H230 0.939 . S
C251 C246 1.391 . S
C251 C250 1.388 . S
H252 C260 0.950 . S
H253 C265 0.950 . S
H254 C262 0.950 . S
H255 C264 0.950 . S
H256 C266 0.950 . S
H257 C268 0.950 . S
H258 C270 0.950 . S
H259 C271 0.950 . S
C260 H252 0.950 . S
C260 C261 1.386 . S
C260 C262 1.391 . S
C261 C260 1.386 . S
C261 C265 1.393 . S
C262 H254 0.950 . S
C262 C260 1.391 . S
C262 C263 1.400 . S
C263 C262 1.400 . S
C263 C264 1.398 . S
C263 C269 1.491 . S
C264 H255 0.950 . S
C264 C263 1.398 . S
C264 C265 1.391 . S
C265 H253 0.950 . S
C265 C261 1.393 . S
C265 C264 1.391 . S
C266 H256 0.950 . S
C266 C267 1.386 . S
C266 C268 1.391 . S
C267 C266 1.386 . S
C267 C271 1.393 . S
C268 H257 0.950 . S
C268 C266 1.391 . S
C268 C269 1.400 . S
C269 C263 1.491 . S
C269 C268 1.400 . S
C269 C270 1.398 . S
C270 H258 0.950 . S
C270 C269 1.398 . S
C270 C271 1.391 . S
C271 H259 0.950 . S
C271 C267 1.393 . S
C271 C270 1.391 . S
H272 C280 0.950 . S
H273 C285 0.950 . S
H274 C282 0.950 . S
H275 C284 0.950 . S
H276 C286 0.950 . S
H277 C288 0.950 . S
H278 C290 0.950 . S
H279 C291 0.950 . S
C280 H272 0.950 . S
C280 C281 1.386 . S
C280 C282 1.391 . S
C281 C280 1.386 . S
C281 C285 1.393 . S
C282 H274 0.950 . S
C282 C280 1.391 . S
C282 C283 1.400 . S
C283 C282 1.400 . S
C283 C284 1.398 . S
C283 C289 1.491 . S
C284 H275 0.950 . S
C284 C283 1.398 . S
C284 C285 1.391 . S
C285 H273 0.950 . S
C285 C281 1.393 . S
C285 C284 1.391 . S
C286 H276 0.950 . S
C286 C287 1.386 . S
C286 C288 1.391 . S
C287 C286 1.386 . S
C287 C291 1.393 . S
C288 H277 0.950 . S
C288 C286 1.391 . S
C288 C289 1.400 . S
C289 C283 1.491 . S
C289 C288 1.400 . S
C289 C290 1.398 . S
C290 H278 0.950 . S
C290 C289 1.398 . S
C290 C291 1.391 . S
C291 H279 0.950 . S
C291 C287 1.393 . S
C291 C290 1.391 . S
H292 C300 0.950 . S
H293 C305 0.950 . S
H294 C302 0.950 . S
H295 C304 0.950 . S
H296 C306 0.950 . S
H297 C308 0.950 . S
H298 C310 0.950 . S
H299 C311 0.950 . S
C300 H292 0.950 . S
C300 C301 1.386 . S
C300 C302 1.391 . S
C301 C300 1.386 . S
C301 C305 1.393 . S
C302 H294 0.950 . S
C302 C300 1.391 . S
C302 C303 1.400 . S
C303 C302 1.400 . S
C303 C304 1.398 . S
C303 C309 1.491 . S
C304 H295 0.950 . S
C304 C303 1.398 . S
C304 C305 1.391 . S
C305 H293 0.950 . S
C305 C301 1.393 . S
C305 C304 1.391 . S
C306 H296 0.950 . S
C306 C307 1.386 . S
C306 C308 1.391 . S
C307 C306 1.386 . S
C307 C311 1.393 . S
C308 H297 0.950 . S
C308 C306 1.391 . S
C308 C309 1.400 . S
C309 C303 1.491 . S
C309 C308 1.400 . S
C309 C310 1.398 . S
C310 H298 0.950 . S
C310 C309 1.398 . S
C310 C311 1.391 . S
C311 H299 0.950 . S
C311 C307 1.393 . S
C311 C310 1.391 . S
H312 C320 0.950 . S
H313 C325 0.950 . S
H314 C322 0.950 . S
H315 C324 0.950 . S
H316 C326 0.950 . S
H317 C328 0.950 . S
H318 C330 0.950 . S
H319 C331 0.950 . S
C320 H312 0.950 . S
C320 C321 1.386 . S
C320 C322 1.391 . S
C321 C320 1.386 . S
C321 C325 1.393 . S
C322 H314 0.950 . S
C322 C320 1.391 . S
C322 C323 1.400 . S
C323 C322 1.400 . S
C323 C324 1.398 . S
C323 C329 1.491 . S
C324 H315 0.950 . S
C324 C323 1.398 . S
C324 C325 1.391 . S
C325 H313 0.950 . S
C325 C321 1.393 . S
C325 C324 1.391 . S
C326 H316 0.950 . S
C326 C327 1.386 . S
C326 C328 1.391 . S
C327 C326 1.386 . S
C327 C331 1.393 . S
C328 H317 0.950 . S
C328 C326 1.391 . S
C328 C329 1.400 . S
C329 C323 1.491 . S
C329 C328 1.400 . S
C329 C330 1.398 . S
C330 H318 0.950 . S
C330 C329 1.398 . S
C330 C331 1.391 . S
C331 H319 0.950 . S
C331 C327 1.393 . S
C331 C330 1.391 . S
H332 C340 0.950 . S
H333 C345 0.950 . S
H334 C342 0.950 . S
H335 C344 0.950 . S
H336 C346 0.950 . S
H337 C348 0.950 . S
H338 C350 0.950 . S
H339 C351 0.950 . S
C340 H332 0.950 . S
C340 C341 1.386 . S
C340 C342 1.391 . S
C341 C340 1.386 . S
C341 C345 1.393 . S
C342 H334 0.950 . S
C342 C340 1.391 . S
C342 C343 1.400 . S
C343 C342 1.400 . S
C343 C344 1.398 . S
C343 C349 1.491 . S
C344 H335 0.950 . S
C344 C343 1.398 . S
C344 C345 1.391 . S
C345 H333 0.950 . S
C345 C341 1.393 . S
C345 C344 1.391 . S
C346 H336 0.950 . S
C346 C347 1.386 . S
C346 C348 1.391 . S
C347 C346 1.386 . S
C347 C351 1.393 . S
C348 H337 0.950 . S
C348 C346 1.391 . S
C348 C349 1.400 . S
C349 C343 1.491 . S
C349 C348 1.400 . S
C349 C350 1.398 . S
C350 H338 0.950 . S
C350 C349 1.398 . S
C350 C351 1.391 . S
C351 H339 0.950 . S
C351 C347 1.393 . S
C351 C350 1.391 . S
H352 C360 0.950 . S
H353 C365 0.950 . S
H354 C362 0.950 . S
H355 C364 0.950 . S
H356 C366 0.950 . S
H357 C368 0.950 . S
H358 C370 0.950 . S
H359 C371 0.950 . S
C360 H352 0.950 . S
C360 C361 1.386 . S
C360 C362 1.391 . S
C361 C360 1.386 . S
C361 C365 1.393 . S
C362 H354 0.950 . S
C362 C360 1.391 . S
C362 C363 1.400 . S
C363 C362 1.400 . S
C363 C364 1.398 . S
C363 C369 1.491 . S
C364 H355 0.950 . S
C364 C363 1.398 . S
C364 C365 1.391 . S
C365 H353 0.950 . S
C365 C361 1.393 . S
C365 C364 1.391 . S
C366 H356 0.950 . S
C366 C367 1.386 . S
C366 C368 1.391 . S
C367 C366 1.386 . S
C367 C371 1.393 . S
C368 H357 0.950 . S
C368 C366 1.391 . S
C368 C369 1.400 . S
C369 C363 1.491 . S
C369 C368 1.400 . S
C369 C370 1.398 . S
C370 H358 0.950 . S
C370 C369 1.398 . S
C370 C371 1.391 . S
C371 H359 0.950 . S
C371 C367 1.393 . S
C371 C370 1.391 . S
H372 C380 0.950 . S
H373 C385 0.950 . S
H374 C382 0.950 . S
H375 C384 0.950 . S
H376 C386 0.950 . S
H377 C388 0.950 . S
H378 C390 0.950 . S
H379 C391 0.950 . S
C380 H372 0.950 . S
C380 C381 1.386 . S
C380 C382 1.391 . S
C381 C380 1.386 . S
C381 C385 1.393 . S
C382 H374 0.950 . S
C382 C380 1.391 . S
C382 C383 1.400 . S
C383 C382 1.400 . S
C383 C384 1.398 . S
C383 C389 1.491 . S
C384 H375 0.950 . S
C384 C383 1.398 . S
C384 C385 1.391 . S
C385 H373 0.950 . S
C385 C381 1.393 . S
C385 C384 1.391 . S
C386 H376 0.950 . S
C386 C387 1.386 . S
C386 C388 1.391 . S
C387 C386 1.386 . S
C387 C391 1.393 . S
C388 H377 0.950 . S
C388 C386 1.391 . S
C388 C389 1.400 . S
C389 C383 1.491 . S
C389 C388 1.400 . S
C389 C390 1.398 . S
C390 H378 0.950 . S
C390 C389 1.398 . S
C390 C391 1.391 . S
C391 H379 0.950 . S
C391 C387 1.393 . S
C391 C390 1.391 . S
H392 C400 0.950 . S
H393 C405 0.950 . S
H394 C402 0.950 . S
H395 C404 0.950 . S
H396 C406 0.950 . S
H397 C408 0.950 . S
H398 C410 0.950 . S
H399 C411 0.950 . S
C400 H392 0.950 . S
C400 C401 1.386 . S
C400 C402 1.391 . S
C401 C400 1.386 . S
C401 C405 1.393 . S
C402 H394 0.950 . S
C402 C400 1.391 . S
C402 C403 1.400 . S
C403 C402 1.400 . S
C403 C404 1.398 . S
C403 C409 1.491 . S
C404 H395 0.950 . S
C404 C403 1.398 . S
C404 C405 1.391 . S
C405 H393 0.950 . S
C405 C401 1.393 . S
C405 C404 1.391 . S
C406 H396 0.950 . S
C406 C407 1.386 . S
C406 C408 1.391 . S
C407 C406 1.386 . S
C407 C411 1.393 . S
C408 H397 0.950 . S
C408 C406 1.391 . S
C408 C409 1.400 . S
C409 C403 1.491 . S
C409 C408 1.400 . S
C409 C410 1.398 . S
C410 H398 0.950 . S
C410 C409 1.398 . S
C410 C411 1.391 . S
C411 H399 0.950 . S
C411 C407 1.393 . S
C411 C410 1.391 . S
H412 C420 0.950 . S
H413 C425 0.950 . S
H414 C422 0.950 . S
H415 C424 0.950 . S
H416 C426 0.950 . S
H417 C428 0.950 . S
H418 C430 0.950 . S
H419 C431 0.950 . S
C420 H412 0.950 . S
C420 C421 1.386 . S
C420 C422 1.391 . S
C421 C420 1.386 . S
C421 C425 1.393 . S
C422 H414 0.950 . S
C422 C420 1.391 . S
C422 C423 1.400 . S
C423 C422 1.400 . S
C423 C424 1.398 . S
C423 C429 1.491 . S
C424 H415 0.950 . S
C424 C423 1.398 . S
C424 C425 1.391 . S
C425 H413 0.950 . S
C425 C421 1.393 . S
C425 C424 1.391 . S
C426 H416 0.950 . S
C426 C427 1.386 . S
C426 C428 1.391 . S
C427 C426 1.386 . S
C427 C431 1.393 . S
C428 H417 0.950 . S
C428 C426 1.391 . S
C428 C429 1.400 . S
C429 C423 1.491 . S
C429 C428 1.400 . S
C429 C430 1.398 . S
C430 H418 0.950 . S
C430 C429 1.398 . S
C430 C431 1.391 . S
C431 H419 0.950 . S
C431 C427 1.393 . S
C431 C430 1.391 . S
H432 C440 0.950 . S
H433 C445 0.950 . S
H434 C442 0.950 . S
H435 C444 0.950 . S
H436 C446 0.950 . S
H437 C448 0.950 . S
H438 C450 0.950 . S
H439 C451 0.950 . S
C440 H432 0.950 . S
C440 C441 1.386 . S
C440 C442 1.391 . S
C441 C440 1.386 . S
C441 C445 1.393 . S
C442 H434 0.950 . S
C442 C440 1.391 . S
C442 C443 1.400 . S
C443 C442 1.400 . S
C443 C444 1.398 . S
C443 C449 1.491 . S
C444 H435 0.950 . S
C444 C443 1.398 . S
C444 C445 1.391 . S
C445 H433 0.950 . S
C445 C441 1.393 . S
C445 C444 1.391 . S
C446 H436 0.950 . S
C446 C447 1.386 . S
C446 C448 1.391 . S
C447 C446 1.386 . S
C447 C451 1.393 . S
C448 H437 0.950 . S
C448 C446 1.391 . S
C448 C449 1.400 . S
C449 C443 1.491 . S
C449 C448 1.400 . S
C449 C450 1.398 . S
C450 H438 0.950 . S
C450 C449 1.398 . S
C450 C451 1.391 . S
C451 H439 0.950 . S
C451 C447 1.393 . S
C451 C450 1.391 . S
H452 C460 0.950 . S
H453 C465 0.950 . S
H454 C462 0.950 . S
H455 C464 0.950 . S
H456 C466 0.950 . S
H457 C468 0.950 . S
H458 C470 0.950 . S
H459 C471 0.950 . S
C460 H452 0.950 . S
C460 C461 1.386 . S
C460 C462 1.391 . S
C461 C460 1.386 . S
C461 C465 1.393 . S
C462 H454 0.950 . S
C462 C460 1.391 . S
C462 C463 1.400 . S
C463 C462 1.400 . S
C463 C464 1.398 . S
C463 C469 1.491 . S
C464 H455 0.950 . S
C464 C463 1.398 . S
C464 C465 1.391 . S
C465 H453 0.950 . S
C465 C461 1.393 . S
C465 C464 1.391 . S
C466 H456 0.950 . S
C466 C467 1.386 . S
C466 C468 1.391 . S
C467 C466 1.386 . S
C467 C471 1.393 . S
C468 H457 0.950 . S
C468 C466 1.391 . S
C468 C469 1.400 . S
C469 C463 1.491 . S
C469 C468 1.400 . S
C469 C470 1.398 . S
C470 H458 0.950 . S
C470 C469 1.398 . S
C470 C471 1.391 . S
C471 H459 0.950 . S
C471 C467 1.393 . S
C471 C470 1.391 . S
H472 C480 0.950 . S
H473 C485 0.950 . S
H474 C482 0.950 . S
H475 C484 0.950 . S
H476 C486 0.950 . S
H477 C488 0.950 . S
H478 C490 0.950 . S
H479 C491 0.950 . S
C480 H472 0.950 . S
C480 C481 1.386 . S
C480 C482 1.391 . S
C481 C480 1.386 . S
C481 C485 1.393 . S
C482 H474 0.950 . S
C482 C480 1.391 . S
C482 C483 1.400 . S
C483 C482 1.400 . S
C483 C484 1.398 . S
C483 C489 1.491 . S
C484 H475 0.950 . S
C484 C483 1.398 . S
C484 C485 1.391 . S
C485 H473 0.950 . S
C485 C481 1.393 . S
C485 C484 1.391 . S
C486 H476 0.950 . S
C486 C487 1.386 . S
C486 C488 1.391 . S
C487 C486 1.386 . S
C487 C491 1.393 . S
C488 H477 0.950 . S
C488 C486 1.391 . S
C488 C489 1.400 . S
C489 C483 1.491 . S
C489 C488 1.400 . S
C489 C490 1.398 . S
C490 H478 0.950 . S
C490 C489 1.398 . S
C490 C491 1.391 . S
C491 H479 0.950 . S
C491 C487 1.393 . S
C491 C490 1.391 . S
H492 C500 0.950 . S
H493 C505 0.950 1_655 S
H494 C502 0.950 . S
H495 C504 0.950 1_655 S
H496 C506 0.950 . S
H497 C508 0.950 . S
H498 C510 0.950 . S
H499 C511 0.950 . S
C500 H492 0.950 . S
C500 C501 1.386 . S
C500 C502 1.391 . S
C501 C500 1.386 . S
C501 C505 1.393 . S
C502 H494 0.950 . S
C502 C500 1.391 . S
C502 C503 1.400 . S
C503 C502 1.400 . S
C503 C504 1.398 . S
C503 C509 1.491 . S
C504 H495 0.950 1_455 S
C504 C503 1.398 . S
C504 C505 1.391 . S
C505 H493 0.950 1_455 S
C505 C501 1.393 . S
C505 C504 1.391 . S
C506 H496 0.950 . S
C506 C507 1.386 . S
C506 C508 1.391 1_556 S
C507 C506 1.386 . S
C507 C511 1.393 . S
C508 H497 0.950 . S
C508 C506 1.391 1_554 S
C508 C509 1.400 . S
C509 C503 1.491 . S
C509 C508 1.400 . S
C509 C510 1.398 . S
C510 H498 0.950 . S
C510 C509 1.398 . S
C510 C511 1.391 1_554 S
C511 H499 0.950 . S
C511 C507 1.393 . S
C511 C510 1.391 1_556 S
H512 C520 0.950 . S
H513 C525 0.950 1_565 S
H514 C522 0.950 . S
H515 C524 0.950 1_565 S
H516 C526 0.950 1_565 S
H517 C528 0.950 1_565 S
H518 C530 0.950 . S
H519 C531 0.950 . S
C520 H512 0.950 . S
C520 C521 1.386 . S
C520 C522 1.391 . S
C521 C520 1.386 . S
C521 C525 1.393 . S
C522 H514 0.950 . S
C522 C520 1.391 . S
C522 C523 1.400 . S
C523 C522 1.400 . S
C523 C524 1.398 . S
C523 C529 1.491 . S
C524 H515 0.950 1_545 S
C524 C523 1.398 . S
C524 C525 1.391 . S
C525 H513 0.950 1_545 S
C525 C521 1.393 . S
C525 C524 1.391 . S
C526 H516 0.950 1_545 S
C526 C527 1.386 . S
C526 C528 1.391 . S
C527 C526 1.386 . S
C527 C531 1.393 . S
C528 H517 0.950 1_545 S
C528 C526 1.391 . S
C528 C529 1.400 . S
C529 C523 1.491 . S
C529 C528 1.400 . S
C529 C530 1.398 . S
C530 H518 0.950 . S
C530 C529 1.398 . S
C530 C531 1.391 . S
C531 H519 0.950 . S
C531 C527 1.393 . S
C531 C530 1.391 . S
H532 C540 0.950 . S
H533 C545 0.950 . S
H534 C542 0.950 . S
H535 C544 0.950 . S
H536 C546 0.950 . S
H537 C548 0.950 . S
H538 C550 0.950 . S
H539 C551 0.950 . S
C540 H532 0.950 . S
C540 C541 1.386 . S
C540 C542 1.391 . S
C541 C540 1.386 . S
C541 C545 1.393 . S
C542 H534 0.950 . S
C542 C540 1.391 . S
C542 C543 1.400 . S
C543 C542 1.400 . S
C543 C544 1.398 . S
C543 C549 1.491 . S
C544 H535 0.950 . S
C544 C543 1.398 . S
C544 C545 1.391 . S
C545 H533 0.950 . S
C545 C541 1.393 . S
C545 C544 1.391 . S
C546 H536 0.950 . S
C546 C547 1.386 . S
C546 C548 1.391 . S
C547 C546 1.386 . S
C547 C551 1.393 . S
C548 H537 0.950 . S
C548 C546 1.391 . S
C548 C549 1.400 . S
C549 C543 1.491 . S
C549 C548 1.400 . S
C549 C550 1.398 . S
C550 H538 0.950 . S
C550 C549 1.398 . S
C550 C551 1.391 . S
C551 H539 0.950 . S
C551 C547 1.393 . S
C551 C550 1.391 . S
H552 C560 0.950 . S
H553 C565 0.950 . S
H554 C562 0.950 . S
H555 C564 0.950 . S
H556 C566 0.950 . S
H557 C568 0.950 . S
H558 C570 0.950 . S
H559 C571 0.950 . S
C560 H552 0.950 . S
C560 C561 1.386 1_565 S
C560 C562 1.391 . S
C561 C560 1.386 1_545 S
C561 C565 1.393 . S
C562 H554 0.950 . S
C562 C560 1.391 . S
C562 C563 1.400 1_565 S
C563 C562 1.400 1_545 S
C563 C564 1.398 . S
C563 C569 1.491 . S
C564 H555 0.950 . S
C564 C563 1.398 . S
C564 C565 1.391 . S
C565 H553 0.950 . S
C565 C561 1.393 . S
C565 C564 1.391 . S
C566 H556 0.950 . S
C566 C567 1.386 . S
C566 C568 1.391 . S
C567 C566 1.386 . S
C567 C571 1.393 1_545 S
C568 H557 0.950 . S
C568 C566 1.391 . S
C568 C569 1.400 . S
C569 C563 1.491 . S
C569 C568 1.400 . S
C569 C570 1.398 1_545 S
C570 H558 0.950 . S
C570 C569 1.398 1_565 S
C570 C571 1.391 . S
C571 H559 0.950 . S
C571 C567 1.393 1_565 S
C571 C570 1.391 . S
H572 C580 0.950 . S
H573 C585 0.950 . S
H574 C582 0.950 . S
H575 C584 0.950 . S
H576 C586 0.950 . S
H577 C588 0.950 . S
H578 C590 0.950 . S
H579 C591 0.950 . S
C580 H572 0.950 . S
C580 C581 1.386 . S
C580 C582 1.391 . S
C581 C580 1.386 . S
C581 C585 1.393 . S
C582 H574 0.950 . S
C582 C580 1.391 . S
C582 C583 1.400 . S
C583 C582 1.400 . S
C583 C584 1.398 . S
C583 C589 1.491 . S
C584 H575 0.950 . S
C584 C583 1.398 . S
C584 C585 1.391 . S
C585 H573 0.950 . S
C585 C581 1.393 . S
C585 C584 1.391 . S
C586 H576 0.950 . S
C586 C587 1.386 . S
C586 C588 1.391 1_554 S
C587 C586 1.386 . S
C587 C591 1.393 . S
C588 H577 0.950 . S
C588 C586 1.391 1_556 S
C588 C589 1.400 . S
C589 C583 1.491 . S
C589 C588 1.400 . S
C589 C590 1.398 . S
C590 H578 0.950 . S
C590 C589 1.398 . S
C590 C591 1.391 1_556 S
C591 H579 0.950 . S
C591 C587 1.393 . S
C591 C590 1.391 1_554 S
H592 C600 0.950 . S
H593 C605 0.953 1_655 S
H594 C602 0.950 . S
H595 C604 0.950 1_655 S
H596 C606 0.950 . S
H597 C608 0.950 . S
H598 C610 0.950 . S
H599 C611 0.950 . S
C600 H592 0.950 . S
C600 C601 1.386 . S
C600 C602 1.391 . S
C601 C600 1.386 . S
C601 C605 1.393 . S
C602 H594 0.950 . S
C602 C600 1.391 . S
C602 C603 1.400 . S
C603 C602 1.400 . S
C603 C604 1.398 . S
C603 C609 1.491 . S
C604 H595 0.950 1_455 S
C604 C603 1.398 . S
C604 C605 1.391 . S
C605 H593 0.953 1_455 S
C605 C601 1.393 . S
C605 C604 1.391 . S
C606 H596 0.950 . S
C606 C607 1.386 1_655 S
C606 C608 1.391 . S
C607 C606 1.386 1_455 S
C607 C611 1.393 . S
C608 H597 0.950 . S
C608 C606 1.391 . S
C608 C609 1.400 1_655 S
C609 C603 1.491 . S
C609 C608 1.400 1_455 S
C609 C610 1.398 . S
C610 H598 0.950 . S
C610 C609 1.398 . S
C610 C611 1.391 . S
C611 H599 0.950 . S
C611 C607 1.393 . S
C611 C610 1.391 . S
C261 C8 1.958 . S
C267 C243 2.006 . S
C281 C26 1.336 . S
C287 C179 1.294 . S
C301 C48 1.498 . S
C307 C211 1.505 . S
C321 C19 1.783 . S
C327 C237 1.844 . S
C347 C173 1.426 . S
C341 C36 1.438 . S
C367 C205 1.660 . S
C361 C59 1.625 . S
C381 C28 1.515 . S
C387 C115 1.534 . S
C401 C46 1.163 . S
C407 C147 1.189 . S
C421 C16 1.508 . S
C427 C77 1.480 . S
C447 C109 1.634 . S
C441 C39 1.607 . S
C467 C141 1.017 . S
C461 C56 1.026 . S
C481 C6 1.366 . S
C487 C83 1.334 . S
C507 C153 1.409 . S
C501 C9 1.410 . S
C521 C21 1.487 . S
C527 C89 1.476 . S
C541 C49 1.469 . S
C547 C121 1.442 . S
C567 C217 1.446 . S
C561 C29 1.463 . S
C587 C249 1.554 . S
C581 C41 1.563 . S
C601 C1 1.501 . S
C607 C185 1.462 . S
