# Generated by pormake.
# Topology pyr, (3,6)-cn, num edge types: 1
# Building blocks:
#     Node 0, Type 0, BuildingBlock: BETDIP_clean_linker_0, # of connection points: 3
#     Node 1, Type 0, BuildingBlock: BETDIP_clean_linker_0, # of connection points: 3
#     Node 2, Type 0, BuildingBlock: BETDIP_clean_linker_0, # of connection points: 3
#     Node 3, Type 0, BuildingBlock: BETDIP_clean_linker_0, # of connection points: 3
#     Node 4, Type 0, BuildingBlock: BETDIP_clean_linker_0, # of connection points: 3
#     Node 5, Type 0, BuildingBlock: BETDIP_clean_linker_0, # of connection points: 3
#     Node 6, Type 0, BuildingBlock: BETDIP_clean_linker_0, # of connection points: 3
#     Node 7, Type 0, BuildingBlock: BETDIP_clean_linker_0, # of connection points: 3
#     Node 8, Type 1, BuildingBlock: VOLQOD_clean_sbu_1, # of connection points: 6
#     Node 9, Type 1, BuildingBlock: VOLQOD_clean_sbu_1, # of connection points: 6
#     Node 10, Type 1, BuildingBlock: VOLQOD_clean_sbu_1, # of connection points: 6
#     Node 11, Type 1, BuildingBlock: VOLQOD_clean_sbu_1, # of connection points: 6
#     Edge 12, Type (0, 1), BuildingBlock: XIVTED_clean_linker_0, # of connection points: 2
#     Edge 13, Type (0, 1), BuildingBlock: XIVTED_clean_linker_0, # of connection points: 2
#     Edge 14, Type (0, 1), BuildingBlock: XIVTED_clean_linker_0, # of connection points: 2
#     Edge 15, Type (0, 1), BuildingBlock: XIVTED_clean_linker_0, # of connection points: 2
#     Edge 16, Type (0, 1), BuildingBlock: XIVTED_clean_linker_0, # of connection points: 2
#     Edge 17, Type (0, 1), BuildingBlock: XIVTED_clean_linker_0, # of connection points: 2
#     Edge 18, Type (0, 1), BuildingBlock: XIVTED_clean_linker_0, # of connection points: 2
#     Edge 19, Type (0, 1), BuildingBlock: XIVTED_clean_linker_0, # of connection points: 2
#     Edge 20, Type (0, 1), BuildingBlock: XIVTED_clean_linker_0, # of connection points: 2
#     Edge 21, Type (0, 1), BuildingBlock: XIVTED_clean_linker_0, # of connection points: 2
#     Edge 22, Type (0, 1), BuildingBlock: XIVTED_clean_linker_0, # of connection points: 2
#     Edge 23, Type (0, 1), BuildingBlock: XIVTED_clean_linker_0, # of connection points: 2
#     Edge 24, Type (0, 1), BuildingBlock: XIVTED_clean_linker_0, # of connection points: 2
#     Edge 25, Type (0, 1), BuildingBlock: XIVTED_clean_linker_0, # of connection points: 2
#     Edge 26, Type (0, 1), BuildingBlock: XIVTED_clean_linker_0, # of connection points: 2
#     Edge 27, Type (0, 1), BuildingBlock: XIVTED_clean_linker_0, # of connection points: 2
#     Edge 28, Type (0, 1), BuildingBlock: XIVTED_clean_linker_0, # of connection points: 2
#     Edge 29, Type (0, 1), BuildingBlock: XIVTED_clean_linker_0, # of connection points: 2
#     Edge 30, Type (0, 1), BuildingBlock: XIVTED_clean_linker_0, # of connection points: 2
#     Edge 31, Type (0, 1), BuildingBlock: XIVTED_clean_linker_0, # of connection points: 2
#     Edge 32, Type (0, 1), BuildingBlock: XIVTED_clean_linker_0, # of connection points: 2
#     Edge 33, Type (0, 1), BuildingBlock: XIVTED_clean_linker_0, # of connection points: 2
#     Edge 34, Type (0, 1), BuildingBlock: XIVTED_clean_linker_0, # of connection points: 2
#     Edge 35, Type (0, 1), BuildingBlock: XIVTED_clean_linker_0, # of connection points: 2
# Relax obj value: 0.107
# Max RMSD: 0.184
# Mean RMSD: 0.150
data_MOF--net-pry--node1-VOLQOD_clean_sbu_1--node2-BETDIP_clean_linker_0--edge1-XIVTED_clean_linker_0
_symmetry_space_group_name_H-M    P1
_symmetry_Int_Tables_number       1
_symmetry_cell_setting            triclinic
loop_
_symmetry_equiv_pos_as_xyz
'x, y, z'
_cell_length_a     36.767299
_cell_length_b     36.241257
_cell_length_c     38.420052
_cell_angle_alpha  93.171516
_cell_angle_beta   85.831697
_cell_angle_gamma 96.71744
loop_
_atom_site_label
_atom_site_type_symbol
_atom_site_fract_x
_atom_site_fract_y
_atom_site_fract_z
_atom_type_partial_charge
H0 H 0.08679 0.14925 0.1851 0.0
H1 H 0.16962 0.14465 0.10027 0.0
H2 H 0.16883 0.07396 0.18608 0.0
H3 H 0.15549 0.19753 0.08782 0.0
C4 C 0.12771 0.20109 0.09773 0.0
C5 C 0.11044 0.13731 0.17274 0.0
C6 C 0.12614 0.11013 0.18956 0.0
C7 C 0.12612 0.15054 0.14073 0.0
C8 C 0.15724 0.13527 0.12499 0.0
C9 C 0.17328 0.10808 0.1414 0.0
C10 C 0.15723 0.0955 0.1735 0.0
N11 N 0.11044 0.1796 0.12556 0.0
H12 H 0.37628 0.93134 0.68121 0.0
H13 H 0.38585 0.85016 0.59643 0.0
H14 H 0.45611 0.85344 0.68129 0.0
H15 H 0.32859 0.85914 0.59025 0.0
C16 C 0.32617 0.88824 0.59713 0.0
C17 C 0.38995 0.90868 0.66876 0.0
C18 C 0.4174 0.89401 0.68556 0.0
C19 C 0.37828 0.89301 0.63678 0.0
C20 C 0.39482 0.86258 0.62099 0.0
C21 C 0.42251 0.84752 0.63716 0.0
C22 C 0.43405 0.86402 0.66909 0.0
N23 N 0.34916 0.90788 0.62181 0.0
H24 H 0.65874 0.46569 0.88898 0.0
H25 H 0.57168 0.37568 0.8897 0.0
H26 H 0.66581 0.36952 0.94791 0.0
H27 H 0.54096 0.41371 0.86387 0.0
C28 C 0.56135 0.43176 0.84909 0.0
C29 C 0.64712 0.43879 0.8981 0.0
C30 C 0.66622 0.41994 0.92064 0.0
C31 C 0.61315 0.42316 0.88668 0.0
C32 C 0.59775 0.38826 0.89839 0.0
C33 C 0.61627 0.36896 0.92106 0.0
C34 C 0.65054 0.38501 0.93186 0.0
N35 N 0.59677 0.44214 0.86153 0.0
H36 H 0.87191 0.53394 0.40514 0.0
H37 H 0.96414 0.61805 0.39672 0.0
H38 H 0.87647 0.63209 0.47406 0.0
H39 H 0.99262 0.57253 0.36781 0.0
C40 C 0.97036 0.55771 0.35375 0.0
C41 C 0.8864 0.55958 0.41526 0.0
C42 C 0.86961 0.58134 0.44183 0.0
C43 C 0.92094 0.57184 0.3996 0.0
C44 C 0.93863 0.60684 0.41003 0.0
C45 C 0.92253 0.62854 0.43687 0.0
C46 C 0.8888 0.61503 0.45345 0.0
N47 N 0.93488 0.55034 0.37073 0.0
H48 H 0.87439 0.91509 0.96087 0.0
H49 H 0.95604 0.9122 0.87488 0.0
H50 H 0.85782 0.96244 0.86387 0.0
H51 H 0.99169 0.8962 0.91352 0.0
C52 C 0.97357 0.88067 0.93245 0.0
C53 C 0.8843 0.92251 0.93463 0.0
C54 C 0.8623 0.94049 0.91412 0.0
C55 C 0.91823 0.91219 0.92092 0.0
C56 C 0.93036 0.92053 0.88627 0.0
C57 C 0.90893 0.93907 0.8656 0.0
C58 C 0.87499 0.94897 0.87984 0.0
N59 N 0.93772 0.89071 0.94156 0.0
H60 H 0.62496 0.06922 0.36109 0.0
H61 H 0.61164 0.14272 0.45157 0.0
H62 H 0.56271 0.16152 0.35656 0.0
H63 H 0.64679 0.109 0.47689 0.0
C64 C 0.65978 0.09085 0.45766 0.0
C65 C 0.61338 0.09307 0.3738 0.0
C66 C 0.59208 0.11369 0.3552 0.0
C67 C 0.6214 0.10372 0.40816 0.0
C68 C 0.60651 0.13481 0.42475 0.0
C69 C 0.58474 0.15586 0.40657 0.0
C70 C 0.57833 0.14524 0.3715 0.0
N71 N 0.64621 0.08351 0.42398 0.0
H72 H 0.38101 0.54735 0.12075 0.0
H73 H 0.46421 0.64106 0.12831 0.0
H74 H 0.38121 0.64033 0.05581 0.0
H75 H 0.48997 0.60926 0.16275 0.0
C76 C 0.47063 0.58681 0.1727 0.0
C77 C 0.39382 0.57387 0.11164 0.0
C78 C 0.3779 0.59137 0.08576 0.0
C79 C 0.42546 0.59094 0.12684 0.0
C80 C 0.4408 0.62635 0.11621 0.0
C81 C 0.4252 0.64402 0.09032 0.0
C82 C 0.39426 0.62602 0.0747 0.0
N83 N 0.43906 0.5731 0.15456 0.0
H84 H 0.0257 0.39114 0.59255 0.0
H85 H 0.12042 0.47283 0.59546 0.0
H86 H 0.12694 0.36888 0.53739 0.0
H87 H 0.00741 0.41804 0.6412 0.0
C88 C 0.02523 0.44306 0.64775 0.0
C89 C 0.054 0.40019 0.58478 0.0
C90 C 0.07411 0.37602 0.56342 0.0
C91 C 0.07076 0.4351 0.59669 0.0
C92 C 0.10718 0.44654 0.58531 0.0
C93 C 0.12765 0.42261 0.56408 0.0
C94 C 0.11074 0.38775 0.55285 0.0
N95 N 0.05375 0.45721 0.62344 0.0
O96 O 0.9905 0.0833 0.54977 0.0
Zn97 Zn 0.96923 0.02984 0.54839 0.0
O98 O 0.00024 6e-05 0.51761 0.0
Zn99 Zn 0.97449 0.98131 0.47588 0.0
Zn100 Zn 0.0466 0.02972 0.5038 0.0
Zn101 Zn 0.01087 0.95878 0.5436 0.0
O102 O 0.97109 0.92481 0.47107 0.0
O103 O 0.99147 0.91061 0.52113 0.0
O104 O 0.91912 0.02794 0.53038 0.0
O105 O 0.9227 0.99608 0.47939 0.0
O106 O 0.00111 0.00255 0.43187 0.0
O107 O 0.05273 0.0317 0.45147 0.0
O108 O 0.0913 0.00909 0.52048 0.0
O109 O 0.96336 0.01277 0.59789 0.0
O110 O 0.06477 0.95741 0.54423 0.0
O111 O 0.99073 0.96124 0.59356 0.0
C112 C 0.02075 0.10029 0.53797 0.0
C113 C 0.97792 0.90083 0.49208 0.0
C114 C 0.03244 0.02124 0.42644 0.0
C115 C 0.90464 0.01425 0.50271 0.0
C116 C 0.09341 0.97878 0.53518 0.0
C117 C 0.97305 0.98457 0.61163 0.0
O118 O 0.04512 0.08304 0.52093 0.0
O119 O 0.50399 0.09152 0.98376 0.0
Zn120 Zn 0.47965 0.03919 0.99074 0.0
O121 O 0.51053 0.01166 0.01746 0.0
Zn122 Zn 0.52514 0.96938 0.98859 0.0
Zn123 Zn 0.55457 0.0437 0.0308 0.0
Zn124 Zn 0.48315 0.99341 0.0598 0.0
O125 O 0.50781 0.92109 0.01067 0.0
O126 O 0.47791 0.93744 0.06031 0.0
O127 O 0.47145 0.01459 0.94263 0.0
O128 O 0.50389 0.96661 0.942 0.0
O129 O 0.57981 0.97229 0.98066 0.0
O130 O 0.60114 0.02268 0.01163 0.0
O131 O 0.55634 0.05045 0.08314 0.0
O132 O 0.42997 0.0426 0.01679 0.0
O133 O 0.50797 0.01323 0.10303 0.0
O134 O 0.43298 0.01059 0.06401 0.0
C135 C 0.5335 0.10945 0.99406 0.0
C136 C 0.4894 0.91255 0.03897 0.0
C137 C 0.60652 0.9943 0.99167 0.0
C138 C 0.48319 0.98582 0.92719 0.0
C139 C 0.53626 0.03604 0.10839 0.0
C140 C 0.41561 0.02985 0.04555 0.0
O141 O 0.55488 0.09444 0.01222 0.0
O142 O 0.53025 0.51305 0.59057 0.0
Zn143 Zn 0.53206 0.5339 0.54301 0.0
O144 O 0.5002 0.50232 0.51219 0.0
Zn145 Zn 0.52854 0.48244 0.47188 0.0
Zn146 Zn 0.47515 0.46048 0.53816 0.0
Zn147 Zn 0.46524 0.53271 0.49531 0.0
O148 O 0.51413 0.49973 0.42635 0.0
O149 O 0.4719 0.53728 0.44323 0.0
O150 O 0.58431 0.53695 0.52334 0.0
O151 O 0.58233 0.4986 0.47606 0.0
O152 O 0.52216 0.42673 0.46887 0.0
O153 O 0.48929 0.41081 0.51768 0.0
O154 O 0.42043 0.46034 0.53696 0.0
O155 O 0.51702 0.58581 0.55062 0.0
O156 O 0.4138 0.50996 0.50741 0.0
O157 O 0.47029 0.58466 0.51703 0.0
C158 C 0.51103 0.486 0.60526 0.0
C159 C 0.49171 0.52206 0.41932 0.0
C160 C 0.50714 0.40214 0.48932 0.0
C161 C 0.60025 0.52063 0.49733 0.0
C162 C 0.40015 0.48157 0.52399 0.0
C163 C 0.49191 0.60176 0.53848 0.0
O164 O 0.48795 0.46416 0.58859 0.0
O165 O 0.98557 0.50897 0.07634 0.0
Zn166 Zn 0.98872 0.49017 0.02597 0.0
O167 O 0.02326 0.52389 0.99768 0.0
Zn168 Zn 0.99749 0.54478 0.96239 0.0
Zn169 Zn 0.04502 0.56489 0.02743 0.0
Zn170 Zn 0.06167 0.49622 0.97436 0.0
O171 O 0.01688 0.53045 0.91431 0.0
O172 O 0.05906 0.49295 0.92178 0.0
O173 O 0.93781 0.4853 0.00809 0.0
O174 O 0.94396 0.52534 0.96572 0.0
O175 O 0.00262 0.60047 0.96624 0.0
O176 O 0.03446 0.61545 0.01294 0.0
O177 O 0.09951 0.56369 0.02679 0.0
O178 O 0.00623 0.4392 0.0267 0.0
O179 O 0.11211 0.51919 0.98709 0.0
O180 O 0.05673 0.44418 0.99116 0.0
C181 C 0.00279 0.5362 0.0929 0.0
C182 C 0.04032 0.50923 0.90197 0.0
C183 C 0.01757 0.62472 0.98755 0.0
C184 C 0.92426 0.5016 0.98431 0.0
C185 C 0.12242 0.54479 0.00952 0.0
C186 C 0.03402 0.42538 0.01182 0.0
O187 O 0.02623 0.55931 0.07724 0.0
H188 H 0.16496 0.10319 0.24611 0.0
H189 H 0.9933 0.01682 0.3675 0.0
H190 H 0.05439 0.0895 0.21299 0.0
H191 H 0.10086 0.05211 0.40384 0.0
H192 H 0.01512 0.03895 0.3096 0.0
H193 H 0.14185 0.08064 0.30303 0.0
C194 C 0.13575 0.09531 0.25084 0.0
C195 C 0.11158 0.09798 0.2247 0.0
C196 C 0.03387 0.04179 0.33031 0.0
C197 C 0.08477 0.07213 0.29008 0.0
C198 C 0.02152 0.02898 0.36331 0.0
C199 C 0.04526 0.03259 0.39067 0.0
C200 C 0.07029 0.05801 0.32457 0.0
C201 C 0.08148 0.04878 0.38368 0.0
C202 C 0.12253 0.08257 0.28343 0.0
C203 C 0.07392 0.08798 0.23249 0.0
N204 N 0.09283 0.06079 0.35141 0.0
N205 N 0.06165 0.07525 0.26445 0.0
H206 H 0.43283 0.85387 0.7399 0.0
H207 H 0.45076 0.02465 0.88046 0.0
H208 H 0.42318 0.96637 0.71315 0.0
H209 H 0.4914 0.91931 0.89253 0.0
H210 H 0.43435 0.00319 0.82125 0.0
H211 H 0.44848 0.87688 0.79817 0.0
C212 C 0.4344 0.88352 0.74607 0.0
C213 C 0.42711 0.90823 0.72123 0.0
C214 C 0.44692 0.98492 0.83695 0.0
C215 C 0.44417 0.93473 0.78866 0.0
C216 C 0.45616 0.99706 0.87074 0.0
C217 C 0.47256 0.97379 0.8915 0.0
C218 C 0.45371 0.94913 0.82411 0.0
C219 C 0.47899 0.93833 0.87751 0.0
C220 C 0.4431 0.89661 0.77954 0.0
C221 C 0.42838 0.94623 0.73141 0.0
N222 N 0.46945 0.9271 0.84483 0.0
N223 N 0.43674 0.95833 0.76438 0.0
H224 H 0.6024 0.48076 0.80556 0.0
H225 H 0.47129 0.43541 0.64799 0.0
H226 H 0.50067 0.4083 0.8141 0.0
H227 H 0.56273 0.52188 0.64692 0.0
H228 H 0.48183 0.4243 0.70845 0.0
H229 H 0.58854 0.49565 0.74709 0.0
C230 C 0.57703 0.46811 0.79518 0.0
C231 C 0.55263 0.44314 0.81458 0.0
C232 C 0.49947 0.44581 0.69501 0.0
C233 C 0.53672 0.45986 0.74757 0.0
C234 C 0.49352 0.45212 0.66044 0.0
C235 C 0.51623 0.47955 0.64223 0.0
C236 C 0.52849 0.46687 0.71143 0.0
C237 C 0.54453 0.50041 0.65983 0.0
C238 C 0.56911 0.47665 0.76179 0.0
C239 C 0.52015 0.42768 0.79989 0.0
N240 N 0.54996 0.4935 0.69334 0.0
N241 N 0.51322 0.43609 0.76713 0.0
H242 H 0.92349 0.51731 0.30964 0.0
H243 H 0.0424 0.58346 0.13772 0.0
H244 H 0.02912 0.58302 0.3114 0.0
H245 H 0.95116 0.49681 0.13588 0.0
H246 H 0.03538 0.58673 0.20133 0.0
H247 H 0.93126 0.51151 0.24593 0.0
C248 C 0.94844 0.53032 0.2966 0.0
C249 C 0.97573 0.55084 0.31566 0.0
C250 C 0.0169 0.56699 0.18702 0.0
C251 C 0.98455 0.54463 0.24293 0.0
C252 C 0.02072 0.56525 0.15065 0.0
C253 C 0.9973 0.53981 0.13137 0.0
C254 C 0.98929 0.54335 0.20433 0.0
C255 C 0.96985 0.51682 0.14966 0.0
C256 C 0.95284 0.52699 0.26025 0.0
C257 C 0.00751 0.56697 0.29753 0.0
N258 N 0.96656 0.51919 0.18514 0.0
N259 N 0.01096 0.56378 0.2621 0.0
H260 H 0.19393 0.09331 0.07189 0.0
H261 H 0.3826 0.02008 0.11095 0.0
H262 H 0.23189 0.09131 0.17552 0.0
H263 H 0.36423 0.05997 0.01054 0.0
H264 H 0.32282 0.03712 0.13344 0.0
H265 H 0.25214 0.07307 0.04756 0.0
C266 C 0.2144 0.08873 0.08957 0.0
C267 C 0.20779 0.09413 0.12592 0.0
C268 C 0.33184 0.04209 0.10647 0.0
C269 C 0.27415 0.07018 0.09813 0.0
C270 C 0.36593 0.03223 0.09351 0.0
C271 C 0.3786 0.03872 0.05877 0.0
C272 C 0.3099 0.05824 0.08452 0.0
C273 C 0.35568 0.05464 0.03752 0.0
C274 C 0.24755 0.07701 0.07561 0.0
C275 C 0.23525 0.08694 0.14743 0.0
N276 N 0.32238 0.06382 0.05072 0.0
N277 N 0.26709 0.07531 0.13323 0.0
H278 H 0.30967 0.96084 0.60495 0.0
H279 H 0.10903 0.90824 0.5412 0.0
H280 H 0.27071 0.85219 0.56181 0.0
H281 H 0.15966 0.0219 0.54309 0.0
H282 H 0.16724 0.88781 0.55349 0.0
H283 H 0.2544 0.98466 0.58677 0.0
C284 C 0.28958 0.94207 0.59155 0.0
C285 C 0.29448 0.9044 0.58507 0.0
C286 C 0.16579 0.91722 0.55105 0.0
C287 C 0.23151 0.93132 0.56456 0.0
C288 C 0.13248 0.92897 0.5442 0.0
C289 C 0.12945 0.96688 0.54126 0.0
C290 C 0.1964 0.94354 0.5556 0.0
C291 C 0.16088 0.9924 0.5451 0.0
C292 C 0.2582 0.95571 0.58109 0.0
C293 C 0.26782 0.88136 0.56743 0.0
N294 N 0.19309 0.9803 0.55247 0.0
N295 N 0.23733 0.89508 0.55811 0.0
H296 H 0.72203 0.45802 0.88096 0.0
H297 H 0.87061 0.45879 0.02241 0.0
H298 H 0.69527 0.41737 0.98434 0.0
H299 H 0.88867 0.52238 0.92968 0.0
H300 H 0.80682 0.44149 0.00835 0.0
H301 H 0.78364 0.48059 0.89789 0.0
C302 C 0.72888 0.45421 0.90736 0.0
C303 C 0.70328 0.43564 0.9312 0.0
C304 C 0.82473 0.4594 0.99122 0.0
C305 C 0.77428 0.46077 0.95053 0.0
C306 C 0.86119 0.46921 0.99918 0.0
C307 C 0.88513 0.49199 0.97715 0.0
C308 C 0.81222 0.47214 0.96083 0.0
C309 C 0.87128 0.50477 0.94745 0.0
C310 C 0.76422 0.46692 0.91695 0.0
C311 C 0.7142 0.43093 0.96485 0.0
N312 N 0.83586 0.49447 0.94006 0.0
N313 N 0.74891 0.4432 0.97343 0.0
H314 H 0.81732 0.62842 0.45992 0.0
H315 H 0.64664 0.47671 0.46035 0.0
H316 H 0.83204 0.5115 0.45129 0.0
H317 H 0.64538 0.58007 0.52176 0.0
H318 H 0.71346 0.48971 0.45051 0.0
H319 H 0.753 0.6121 0.47721 0.0
C320 C 0.80741 0.59929 0.4623 0.0
C321 C 0.83063 0.57133 0.45444 0.0
C322 C 0.69846 0.50931 0.46634 0.0
C323 C 0.75609 0.5526 0.47281 0.0
C324 C 0.66041 0.5021 0.47174 0.0
C325 C 0.64049 0.52749 0.49173 0.0
C326 C 0.71643 0.54246 0.4804 0.0
C327 C 0.65969 0.55977 0.50618 0.0
C328 C 0.77044 0.59006 0.47189 0.0
C329 C 0.81528 0.53405 0.45668 0.0
N330 N 0.69658 0.56655 0.49988 0.0
N331 N 0.77882 0.52573 0.46532 0.0
H332 H 0.15395 0.24151 0.04276 0.0
H333 H 0.99885 0.3801 0.06218 0.0
H334 H 0.06191 0.22848 0.11901 0.0
H335 H 0.0886 0.3859 0.98294 0.0
H336 H 0.01836 0.32252 0.08134 0.0
H337 H 0.12776 0.29262 0.01885 0.0
C338 C 0.12807 0.24939 0.05437 0.0
C339 C 0.11017 0.23089 0.08294 0.0
C340 C 0.03352 0.33625 0.05955 0.0
C341 C 0.0799 0.28968 0.05583 0.0
C342 C 0.02233 0.36908 0.0485 0.0
C343 C 0.04227 0.38814 0.02104 0.0
C344 C 0.06488 0.32244 0.04308 0.0
C345 C 0.07249 0.37247 0.00437 0.0
C346 C 0.11306 0.27857 0.04069 0.0
C347 C 0.07664 0.2421 0.09697 0.0
N348 N 0.08296 0.34079 0.01581 0.0
N349 N 0.06267 0.27101 0.08339 0.0
H350 H 0.57866 0.31219 0.8829 0.0
H351 H 0.58234 0.1617 0.02468 0.0
H352 H 0.61855 0.33979 0.98522 0.0
H353 H 0.50758 0.14619 0.94211 0.0
H354 H 0.6 0.22566 0.00796 0.0
H355 H 0.55566 0.25 0.90174 0.0
C356 C 0.58224 0.30544 0.90944 0.0
C357 C 0.60072 0.33143 0.93246 0.0
C358 C 0.57959 0.20832 0.99362 0.0
C359 C 0.5752 0.25986 0.95381 0.0
C360 C 0.56961 0.17175 0.00303 0.0
C361 C 0.5435 0.14853 0.98469 0.0
C362 C 0.56381 0.22167 0.96532 0.0
C363 C 0.52776 0.16316 0.957 0.0
C364 C 0.56925 0.26981 0.92008 0.0
C365 C 0.60514 0.32058 0.96631 0.0
N366 N 0.5384 0.19875 0.94794 0.0
N367 N 0.59273 0.28557 0.97586 0.0
H368 H 0.93531 0.66249 0.50074 0.0
H369 H 0.96196 0.86671 0.42831 0.0
H370 H 0.94293 0.68293 0.39079 0.0
H371 H 0.97925 0.84323 0.5345 0.0
H372 H 0.95321 0.79965 0.41388 0.0
H373 H 0.95115 0.72903 0.51363 0.0
C374 C 0.94089 0.68103 0.47933 0.0
C375 C 0.93792 0.66737 0.44471 0.0
C376 C 0.95906 0.80929 0.44029 0.0
C377 C 0.95527 0.74343 0.45913 0.0
C378 C 0.96378 0.84752 0.44858 0.0
C379 C 0.97126 0.86063 0.48267 0.0
C380 C 0.96149 0.78413 0.46636 0.0
C381 C 0.97357 0.83448 0.50786 0.0
C382 C 0.94983 0.71895 0.48664 0.0
C383 C 0.94533 0.69241 0.41783 0.0
N384 N 0.96857 0.79756 0.49922 0.0
N385 N 0.95327 0.72937 0.42562 0.0
H386 H 0.44347 0.78978 0.67179 0.0
H387 H 0.45715 0.65195 0.50633 0.0
H388 H 0.43591 0.82627 0.56758 0.0
H389 H 0.51368 0.63907 0.59876 0.0
H390 H 0.44435 0.71387 0.52918 0.0
H391 H 0.46509 0.7325 0.64658 0.0
C392 C 0.44682 0.78618 0.64362 0.0
C393 C 0.43773 0.81326 0.62189 0.0
C394 C 0.45985 0.6976 0.54426 0.0
C395 C 0.46144 0.74676 0.59292 0.0
C396 C 0.46704 0.66223 0.53134 0.0
C397 C 0.48642 0.64028 0.55073 0.0
C398 C 0.47143 0.71079 0.57714 0.0
C399 C 0.49873 0.65508 0.5829 0.0
C400 C 0.45897 0.75323 0.62928 0.0
C401 C 0.4418 0.8061 0.58552 0.0
N402 N 0.49061 0.68923 0.59532 0.0
N403 N 0.45297 0.77341 0.5722 0.0
H404 H 0.94109 0.89309 0.81641 0.0
H405 H 0.93938 0.03017 0.66022 0.0
H406 H 0.90352 0.00176 0.83021 0.0
H407 H 0.98628 0.92596 0.64913 0.0
H408 H 0.92528 0.02004 0.72236 0.0
H409 H 0.95787 0.90476 0.75504 0.0
C410 C 0.93674 0.91959 0.80666 0.0
C411 C 0.92087 0.9465 0.82858 0.0
C412 C 0.9387 -0.00058 0.70632 0.0
C413 C 0.93943 0.95978 0.75802 0.0
C414 C 0.94669 0.00514 0.67079 0.0
C415 C 0.96402 0.97886 0.64932 0.0
C416 C 0.94796 0.96713 0.72051 0.0
C417 C 0.9729 0.94701 0.66458 0.0
C418 C 0.94609 0.92613 0.77151 0.0
C419 C 0.91524 0.98003 0.81421 0.0
N420 N 0.96472 0.94203 0.69918 0.0
N421 N 0.92441 0.98567 0.77985 0.0
H422 H 0.60079 0.15721 0.29859 0.0
H423 H 0.51152 -0.00017 0.16767 0.0
H424 H 0.56664 0.04484 0.32858 0.0
H425 H 0.58171 0.09618 0.13196 0.0
H426 H 0.5258 0.01845 0.22774 0.0
H427 H 0.58811 0.13802 0.23805 0.0
C428 C 0.59049 0.12854 0.29238 0.0
C429 C 0.58469 0.10253 0.3185 0.0
C430 C 0.53817 0.0354 0.20672 0.0
C431 C 0.57008 0.08048 0.2496 0.0
C432 C 0.52995 0.02489 0.17245 0.0
C433 C 0.54547 0.04648 0.14474 0.0
C434 C 0.56161 0.06806 0.21343 0.0
C435 C 0.56927 0.07862 0.1525 0.0
C436 C 0.5835 0.11757 0.25788 0.0
C437 C 0.57168 0.06565 0.3091 0.0
N438 N 0.57641 0.08859 0.18616 0.0
N439 N 0.56457 0.05575 0.27543 0.0
H440 H 0.44466 0.52025 0.20157 0.0
H441 H 0.47931 0.58828 0.39501 0.0
H442 H 0.50617 0.62662 0.22406 0.0
H443 H 0.49785 0.47625 0.36067 0.0
H444 H 0.47552 0.60313 0.33392 0.0
H445 H 0.45101 0.50316 0.26183 0.0
C446 C 0.45945 0.53993 0.2192 0.0
C447 C 0.47492 0.57489 0.2081 0.0
C448 C 0.4804 0.57533 0.33989 0.0
C449 C 0.48142 0.55598 0.27654 0.0
C450 C 0.48237 0.5668 0.37459 0.0
C451 C 0.48899 0.53105 0.38272 0.0
C452 C 0.48397 0.54762 0.31333 0.0
C453 C 0.49295 0.50421 0.35534 0.0
C454 C 0.46316 0.53014 0.25335 0.0
C455 C 0.49397 0.59938 0.23176 0.0
N456 N 0.48995 0.51291 0.32174 0.0
N457 N 0.49626 0.58969 0.2651 0.0
H458 H 0.00212 0.40101 0.70286 0.0
H459 H 0.0337 0.557 0.85114 0.0
H460 H 0.05332 0.51017 0.67704 0.0
H461 H 0.05292 0.44406 0.86658 0.0
H462 H 0.03168 0.5419 0.7882 0.0
H463 H 0.00974 0.41766 0.76489 0.0
C464 C 0.01461 0.4286 0.71037 0.0
C465 C 0.02714 0.45431 0.68505 0.0
C466 C 0.03673 0.52063 0.8054 0.0
C467 C 0.03568 0.47346 0.75545 0.0
C468 C 0.03786 0.52914 0.84117 0.0
C469 C 0.04356 0.50169 0.8639 0.0
C470 C 0.0402 0.48417 0.79258 0.0
C471 C 0.04875 0.46603 0.84981 0.0
C472 C 0.01926 0.4379 0.74558 0.0
C473 C 0.04341 0.48961 0.69591 0.0
N474 N 0.04633 0.45807 0.81501 0.0
N475 N 0.04695 0.49834 0.73047 0.0
H476 H 0.84097 0.97463 0.97672 0.0
H477 H 0.62816 0.94527 0.93998 0.0
H478 H 0.79881 0.92369 0.8815 0.0
H479 H 0.67123 0.02498 0.01867 0.0
H480 H 0.69035 0.93179 0.92235 0.0
H481 H 0.77859 0.98808 0.99677 0.0
C482 C 0.81855 0.9662 0.96016 0.0
C483 C 0.82497 0.94829 0.92734 0.0
C484 C 0.68626 0.95229 0.94345 0.0
C485 C 0.75397 0.9633 0.95 0.0
C486 C 0.6507 0.95995 0.95362 0.0
C487 C 0.64441 0.98638 0.98083 0.0
C488 C 0.71592 0.97086 0.96076 0.0
C489 C 0.67482 0.00453 0.99745 0.0
C490 C 0.78311 0.97403 0.97148 0.0
C491 C 0.7951 0.938 0.90678 0.0
N492 N 0.70932 0.99633 0.98722 0.0
N493 N 0.76094 0.94556 0.91848 0.0
H494 H 0.69474 0.10211 0.51794 0.0
H495 H 0.86449 0.99315 0.44579 0.0
H496 H 0.7017 0.04511 0.41649 0.0
H497 H 0.85781 0.05124 0.54689 0.0
H498 H 0.80307 0.00834 0.43608 0.0
H499 H 0.7527 0.08016 0.53061 0.0
C500 C 0.70838 0.08477 0.49846 0.0
C501 C 0.69352 0.07559 0.46614 0.0
C502 C 0.815 0.0176 0.46045 0.0
C503 C 0.75984 0.05049 0.48023 0.0
C504 C 0.85009 0.00889 0.46604 0.0
C505 C 0.86654 0.0211 0.49712 0.0
C506 C 0.79618 0.03871 0.4861 0.0
C507 C 0.8464 0.04137 0.52243 0.0
C508 C 0.74146 0.07228 0.50564 0.0
C509 C 0.71222 0.05303 0.44174 0.0
N510 N 0.81243 0.04965 0.51628 0.0
N511 N 0.74449 0.04141 0.44924 0.0
H512 H 0.31566 0.56995 0.12562 0.0
H513 H 0.18354 0.52672 0.96949 0.0
H514 H 0.35738 0.58081 0.01839 0.0
H515 H 0.14934 0.5744 0.07034 0.0
H516 H 0.24706 0.53319 0.98721 0.0
H517 H 0.25349 0.55586 0.10594 0.0
C518 C 0.31178 0.56848 0.09787 0.0
C519 C 0.34156 0.57652 0.07355 0.0
C520 C 0.22551 0.54224 0.00529 0.0
C521 C 0.27071 0.56088 0.05096 0.0
C522 C 0.18939 0.53862 0.99524 0.0
C523 C 0.16119 0.5503 0.01839 0.0
C524 C 0.23312 0.55668 0.03897 0.0
C525 C 0.17024 0.56541 0.0515 0.0
C526 C 0.27634 0.56088 0.08671 0.0
C527 C 0.335 0.57486 0.0379 0.0
N528 N 0.20533 0.56787 0.06089 0.0
N529 N 0.30017 0.56726 0.02761 0.0
H530 H 0.18058 0.37778 0.5718 0.0
H531 H 0.34778 0.5242 0.50673 0.0
H532 H 0.16594 0.48791 0.54209 0.0
H533 H 0.36049 0.4205 0.55229 0.0
H534 H 0.28119 0.51047 0.51592 0.0
H535 H 0.2466 0.39203 0.56103 0.0
C536 C 0.19131 0.40492 0.56266 0.0
C537 C 0.16777 0.43159 0.55739 0.0
C538 C 0.2986 0.49078 0.5239 0.0
C539 C 0.24356 0.44834 0.54553 0.0
C540 C 0.33662 0.49851 0.51859 0.0
C541 C 0.35981 0.47345 0.52878 0.0
C542 C 0.28369 0.45768 0.53932 0.0
C543 C 0.34376 0.44068 0.54408 0.0
C544 C 0.22906 0.41314 0.55678 0.0
C545 C 0.18322 0.46661 0.54642 0.0
N546 N 0.30672 0.43375 0.54882 0.0
N547 N 0.22025 0.47397 0.5407 0.0
H548 H 0.02537 0.84065 0.90092 0.0
H549 H 0.00885 0.6812 0.03693 0.0
H550 H 0.94644 0.84095 0.98962 0.0
H551 H 0.0209 0.65798 0.92563 0.0
H552 H 0.001 0.74616 0.02605 0.0
H553 H 0.03983 0.77939 0.91627 0.0
C554 C 0.01147 0.82798 0.92388 0.0
C555 C 0.98447 0.84553 0.94385 0.0
C556 C 0.00564 0.72674 0.00416 0.0
C557 C 0.00126 0.77619 0.96178 0.0
C558 C 0.01028 0.68992 0.0103 0.0
C559 C 0.01532 0.66434 0.98209 0.0
C560 C 0.00723 0.73804 0.96966 0.0
C561 C 0.01678 0.67684 0.94806 0.0
C562 C 0.01961 0.79312 0.9325 0.0
C563 C 0.96718 0.82806 0.97336 0.0
N564 N 0.013 0.71288 0.94278 0.0
N565 N 0.97594 0.79425 0.98155 0.0
H566 H 0.44024 0.67315 0.02592 0.0
H567 H 0.46365 0.88326 0.10149 0.0
H568 H 0.43968 0.70321 0.13616 0.0
H569 H 0.49694 0.85152 0.99496 0.0
H570 H 0.45066 0.81747 0.11413 0.0
H571 H 0.45758 0.73868 0.0133 0.0
C572 C 0.44404 0.69357 0.04741 0.0
C573 C 0.43869 0.68286 0.08209 0.0
C574 C 0.46095 0.82495 0.08803 0.0
C575 C 0.458 0.75763 0.06798 0.0
C576 C 0.46819 0.86248 0.08075 0.0
C577 C 0.48137 0.87292 0.04711 0.0
C578 C 0.46648 0.79766 0.06139 0.0
C579 C 0.4869 0.84476 0.02129 0.0
C580 C 0.45398 0.73086 0.04024 0.0
C581 C 0.44398 0.71029 0.10904 0.0
N582 N 0.47922 0.80842 0.02892 0.0
N583 N 0.45305 0.74648 0.10142 0.0
H584 H 0.08322 0.33281 0.50306 0.0
H585 H 0.98385 0.14587 0.58356 0.0
H586 H 0.03151 0.32932 0.60763 0.0
H587 H 0.06993 0.14797 0.50075 0.0
H588 H 0.99173 0.21395 0.58737 0.0
H589 H 0.06784 0.26547 0.49585 0.0
C590 C 0.0683 0.31799 0.52436 0.0
C591 C 0.05906 0.33675 0.55616 0.0
C592 C 0.00886 0.19941 0.56842 0.0
C593 C 0.0412 0.25989 0.54792 0.0
C594 C 0.00446 0.16063 0.56626 0.0
C595 C 0.02647 0.14124 0.54197 0.0
C596 C 0.03503 0.21887 0.54578 0.0
C597 C 0.05265 0.16177 0.52011 0.0
C598 C 0.05959 0.27961 0.52021 0.0
C599 C 0.03899 0.31619 0.58257 0.0
N600 N 0.0561 0.19951 0.52244 0.0
N601 N 0.03095 0.2788 0.57794 0.0
H602 H 0.61461 0.20612 0.45664 0.0
H603 H 0.49925 0.36543 0.42633 0.0
H604 H 0.5196 0.18288 0.39551 0.0
H605 H 0.5277 0.35077 0.53119 0.0
H606 H 0.51398 0.30224 0.40957 0.0
H607 H 0.59052 0.26288 0.4808 0.0
C608 C 0.58855 0.21243 0.44852 0.0
C609 C 0.56946 0.18945 0.4235 0.0
C610 C 0.51655 0.31276 0.43633 0.0
C611 C 0.54265 0.25526 0.45033 0.0
C612 C 0.50825 0.34867 0.44585 0.0
C613 C 0.5121 0.36299 0.48018 0.0
C614 C 0.53005 0.29166 0.46099 0.0
C615 C 0.52406 0.3404 0.50454 0.0
C616 C 0.57498 0.24501 0.46228 0.0
C617 C 0.53609 0.20002 0.41375 0.0
N618 N 0.53333 0.30596 0.49432 0.0
N619 N 0.52412 0.23243 0.42669 0.0
loop_
_geom_bond_atom_site_label_1
_geom_bond_atom_site_label_2
_geom_bond_distance
_geom_bond_site_symmetry_2
_ccdc_geom_bond_type
H0 C5 0.930 . S
H1 C8 0.930 . S
H2 C10 0.930 . S
H3 C4 1.016 . S
C4 H3 1.016 . S
C4 N11 1.286 . S
C5 H0 0.930 . S
C5 C6 1.397 . S
C5 C7 1.361 . S
C6 C5 1.397 . S
C6 C10 1.390 . S
C7 C5 1.361 . S
C7 C8 1.393 . S
C7 N11 1.413 . S
C8 H1 0.930 . S
C8 C7 1.393 . S
C8 C9 1.399 . S
C9 C8 1.399 . S
C9 C10 1.381 . S
C10 H2 0.930 . S
C10 C6 1.390 . S
C10 C9 1.381 . S
N11 C4 1.286 . S
N11 C7 1.413 . S
H12 C17 0.930 . S
H13 C20 0.930 . S
H14 C22 0.930 . S
H15 C16 1.016 . S
C16 H15 1.016 . S
C16 N23 1.286 . S
C17 H12 0.930 . S
C17 C18 1.397 . S
C17 C19 1.361 . S
C18 C17 1.397 . S
C18 C22 1.390 . S
C19 C17 1.361 . S
C19 C20 1.393 . S
C19 N23 1.413 . S
C20 H13 0.930 . S
C20 C19 1.393 . S
C20 C21 1.399 . S
C21 C20 1.399 . S
C21 C22 1.381 . S
C22 H14 0.930 . S
C22 C18 1.390 . S
C22 C21 1.381 . S
N23 C16 1.286 . S
N23 C19 1.413 . S
H24 C29 0.930 . S
H25 C32 0.930 . S
H26 C34 0.930 . S
H27 C28 1.016 . S
C28 H27 1.016 . S
C28 N35 1.286 . S
C29 H24 0.930 . S
C29 C30 1.397 . S
C29 C31 1.361 . S
C30 C29 1.397 . S
C30 C34 1.390 . S
C31 C29 1.361 . S
C31 C32 1.393 . S
C31 N35 1.413 . S
C32 H25 0.930 . S
C32 C31 1.393 . S
C32 C33 1.399 . S
C33 C32 1.399 . S
C33 C34 1.381 . S
C34 H26 0.930 . S
C34 C30 1.390 . S
C34 C33 1.381 . S
N35 C28 1.286 . S
N35 C31 1.413 . S
H36 C41 0.930 . S
H37 C44 0.930 . S
H38 C46 0.930 . S
H39 C40 1.016 . S
C40 H39 1.016 . S
C40 N47 1.286 . S
C41 H36 0.930 . S
C41 C42 1.397 . S
C41 C43 1.361 . S
C42 C41 1.397 . S
C42 C46 1.390 . S
C43 C41 1.361 . S
C43 C44 1.393 . S
C43 N47 1.413 . S
C44 H37 0.930 . S
C44 C43 1.393 . S
C44 C45 1.399 . S
C45 C44 1.399 . S
C45 C46 1.381 . S
C46 H38 0.930 . S
C46 C42 1.390 . S
C46 C45 1.381 . S
N47 C40 1.286 . S
N47 C43 1.413 . S
H48 C53 0.930 . S
H49 C56 0.930 . S
H50 C58 0.930 . S
H51 C52 1.016 . S
C52 H51 1.016 . S
C52 N59 1.286 . S
C53 H48 0.930 . S
C53 C54 1.397 . S
C53 C55 1.361 . S
C54 C53 1.397 . S
C54 C58 1.390 . S
C55 C53 1.361 . S
C55 C56 1.393 . S
C55 N59 1.413 . S
C56 H49 0.930 . S
C56 C55 1.393 . S
C56 C57 1.399 . S
C57 C56 1.399 . S
C57 C58 1.381 . S
C58 H50 0.930 . S
C58 C54 1.390 . S
C58 C57 1.381 . S
N59 C52 1.286 . S
N59 C55 1.413 . S
H60 C65 0.930 . S
H61 C68 0.930 . S
H62 C70 0.930 . S
H63 C64 1.016 . S
C64 H63 1.016 . S
C64 N71 1.286 . S
C65 H60 0.930 . S
C65 C66 1.397 . S
C65 C67 1.361 . S
C66 C65 1.397 . S
C66 C70 1.390 . S
C67 C65 1.361 . S
C67 C68 1.393 . S
C67 N71 1.413 . S
C68 H61 0.930 . S
C68 C67 1.393 . S
C68 C69 1.399 . S
C69 C68 1.399 . S
C69 C70 1.381 . S
C70 H62 0.930 . S
C70 C66 1.390 . S
C70 C69 1.381 . S
N71 C64 1.286 . S
N71 C67 1.413 . S
H72 C77 0.930 . S
H73 C80 0.930 . S
H74 C82 0.930 . S
H75 C76 1.016 . S
C76 H75 1.016 . S
C76 N83 1.286 . S
C77 H72 0.930 . S
C77 C78 1.397 . S
C77 C79 1.361 . S
C78 C77 1.397 . S
C78 C82 1.390 . S
C79 C77 1.361 . S
C79 C80 1.393 . S
C79 N83 1.413 . S
C80 H73 0.930 . S
C80 C79 1.393 . S
C80 C81 1.399 . S
C81 C80 1.399 . S
C81 C82 1.381 . S
C82 H74 0.930 . S
C82 C78 1.390 . S
C82 C81 1.381 . S
N83 C76 1.286 . S
N83 C79 1.413 . S
H84 C89 0.930 . S
H85 C92 0.930 . S
H86 C94 0.930 . S
H87 C88 1.016 . S
C88 H87 1.016 . S
C88 N95 1.286 . S
C89 H84 0.930 . S
C89 C90 1.397 . S
C89 C91 1.361 . S
C90 C89 1.397 . S
C90 C94 1.390 . S
C91 C89 1.361 . S
C91 C92 1.393 . S
C91 N95 1.413 . S
C92 H85 0.930 . S
C92 C91 1.393 . S
C92 C93 1.399 . S
C93 C92 1.399 . S
C93 C94 1.381 . S
C94 H86 0.930 . S
C94 C90 1.390 . S
C94 C93 1.381 . S
N95 C88 1.286 . S
N95 C91 1.413 . S
O96 Zn97 1.958 . S
O96 C112 1.213 1_655 S
Zn97 O96 1.958 . S
Zn97 O98 1.949 1_655 S
Zn97 O104 1.919 . S
Zn97 O109 1.924 . S
O98 Zn97 1.949 1_455 S
O98 Zn99 1.923 1_445 S
O98 Zn100 1.950 . S
O98 Zn101 1.945 1_545 S
Zn99 O98 1.923 1_665 S
Zn99 O102 1.933 . S
Zn99 O105 1.941 1_565 S
Zn99 O106 1.965 1_665 S
Zn100 O98 1.950 . S
Zn100 O107 1.938 . S
Zn100 O108 1.902 1_545 S
Zn100 O118 1.953 . S
Zn101 O98 1.945 1_565 S
Zn101 O103 1.932 1_455 S
Zn101 O110 1.977 . S
Zn101 O111 1.910 1_455 S
O102 Zn99 1.933 . S
O102 C113 1.226 . S
O103 Zn101 1.932 1_655 S
O103 C113 1.307 . S
O104 Zn97 1.919 . S
O104 C115 1.253 . S
O105 Zn99 1.941 1_545 S
O105 C115 1.283 . S
O106 Zn99 1.965 1_445 S
O106 C114 1.303 . S
O107 Zn100 1.938 . S
O107 C114 1.247 . S
O108 Zn100 1.902 1_565 S
O108 C116 1.310 . S
O109 Zn97 1.924 . S
O109 C117 1.311 1_545 S
O110 Zn101 1.977 . S
O110 C116 1.272 . S
O111 Zn101 1.910 1_655 S
O111 C117 1.231 . S
C112 O96 1.213 1_455 S
C112 O118 1.298 . S
C113 O102 1.226 . S
C113 O103 1.307 . S
C114 O106 1.303 . S
C114 O107 1.247 . S
C115 O104 1.253 . S
C115 O105 1.283 . S
C116 O108 1.310 . S
C116 O110 1.272 . S
C117 O109 1.311 1_565 S
C117 O111 1.231 . S
O118 Zn100 1.953 . S
O118 C112 1.298 . S
O119 Zn120 1.953 . S
O119 C135 1.225 . S
Zn120 O119 1.953 . S
Zn120 O121 1.949 1_556 S
Zn120 O127 1.919 . S
Zn120 O132 1.924 1_556 S
O121 Zn120 1.949 1_554 S
O121 Zn122 1.923 1_544 S
O121 Zn123 1.950 . S
O121 Zn124 1.940 1_545 S
Zn122 O121 1.923 1_566 S
Zn122 O125 1.933 1_556 S
Zn122 O128 1.941 . S
Zn122 O129 1.965 . S
Zn123 O121 1.950 . S
Zn123 O130 1.938 . S
Zn123 O131 1.906 . S
Zn123 O141 1.953 . S
Zn124 O121 1.940 1_565 S
Zn124 O126 1.952 . S
Zn124 O133 1.972 1_565 S
Zn124 O134 1.899 1_565 S
O125 Zn122 1.933 1_554 S
O125 C136 1.226 . S
O126 Zn124 1.952 . S
O126 C136 1.307 . S
O127 Zn120 1.919 . S
O127 C138 1.253 1_545 S
O128 Zn122 1.941 . S
O128 C138 1.283 . S
O129 Zn122 1.965 . S
O129 C137 1.303 1_565 S
O130 Zn123 1.938 . S
O130 C137 1.247 1_554 S
O131 Zn123 1.906 . S
O131 C139 1.304 . S
O132 Zn120 1.924 1_554 S
O132 C140 1.311 . S
O133 Zn124 1.972 1_545 S
O133 C139 1.272 . S
O134 Zn124 1.899 1_545 S
O134 C140 1.231 . S
C135 O119 1.225 . S
C135 O141 1.298 1_556 S
C136 O125 1.226 . S
C136 O126 1.307 . S
C137 O129 1.303 1_545 S
C137 O130 1.247 1_556 S
C138 O127 1.253 1_565 S
C138 O128 1.283 . S
C139 O131 1.304 . S
C139 O133 1.272 . S
C140 O132 1.311 . S
C140 O134 1.231 . S
O141 Zn123 1.953 . S
O141 C135 1.298 1_554 S
O142 Zn143 1.953 . S
O142 C158 1.225 . S
Zn143 O142 1.953 . S
Zn143 O144 1.949 . S
Zn143 O150 1.919 . S
Zn143 O155 1.924 . S
O144 Zn143 1.949 . S
O144 Zn145 1.923 . S
O144 Zn146 1.950 . S
O144 Zn147 1.945 . S
Zn145 O144 1.923 . S
Zn145 O148 1.933 . S
Zn145 O151 1.941 . S
Zn145 O152 1.965 . S
Zn146 O144 1.950 . S
Zn146 O153 1.938 . S
Zn146 O154 1.906 . S
Zn146 O164 1.953 . S
Zn147 O144 1.945 . S
Zn147 O149 1.932 . S
Zn147 O156 1.977 . S
Zn147 O157 1.910 . S
O148 Zn145 1.933 . S
O148 C159 1.226 . S
O149 Zn147 1.932 . S
O149 C159 1.307 . S
O150 Zn143 1.919 . S
O150 C161 1.253 . S
O151 Zn145 1.941 . S
O151 C161 1.283 . S
O152 Zn145 1.965 . S
O152 C160 1.303 . S
O153 Zn146 1.938 . S
O153 C160 1.247 . S
O154 Zn146 1.906 . S
O154 C162 1.304 . S
O155 Zn143 1.924 . S
O155 C163 1.311 . S
O156 Zn147 1.977 . S
O156 C162 1.272 . S
O157 Zn147 1.910 . S
O157 C163 1.231 . S
C158 O142 1.225 . S
C158 O164 1.298 . S
C159 O148 1.226 . S
C159 O149 1.307 . S
C160 O152 1.303 . S
C160 O153 1.247 . S
C161 O150 1.253 . S
C161 O151 1.283 . S
C162 O154 1.304 . S
C162 O156 1.272 . S
C163 O155 1.311 . S
C163 O157 1.231 . S
O164 Zn146 1.953 . S
O164 C158 1.298 . S
O165 Zn166 1.953 . S
O165 C181 1.225 . S
Zn166 O165 1.953 . S
Zn166 O167 1.949 1_655 S
Zn166 O173 1.919 . S
Zn166 O178 1.924 . S
O167 Zn166 1.949 1_455 S
O167 Zn168 1.923 1_554 S
O167 Zn169 1.950 . S
O167 Zn170 1.945 1_554 S
Zn168 O167 1.923 1_556 S
Zn168 O171 1.933 . S
Zn168 O174 1.941 1_455 S
Zn168 O175 1.965 . S
Zn169 O167 1.950 . S
Zn169 O176 1.938 . S
Zn169 O177 1.906 . S
Zn169 O187 1.953 . S
Zn170 O167 1.945 1_556 S
Zn170 O172 1.932 . S
Zn170 O179 1.977 1_556 S
Zn170 O180 1.910 1_556 S
O171 Zn168 1.933 . S
O171 C182 1.226 . S
O172 Zn170 1.932 . S
O172 C182 1.307 . S
O173 Zn166 1.919 . S
O173 C184 1.253 1_554 S
O174 Zn168 1.941 1_655 S
O174 C184 1.283 . S
O175 Zn168 1.965 . S
O175 C183 1.303 . S
O176 Zn169 1.938 . S
O176 C183 1.247 1_554 S
O177 Zn169 1.906 . S
O177 C185 1.304 . S
O178 Zn166 1.924 . S
O178 C186 1.311 1_655 S
O179 Zn170 1.977 1_554 S
O179 C185 1.272 . S
O180 Zn170 1.910 1_554 S
O180 C186 1.231 . S
C181 O165 1.225 . S
C181 O187 1.298 1_655 S
C182 O171 1.226 . S
C182 O172 1.307 . S
C183 O175 1.303 . S
C183 O176 1.247 1_556 S
C184 O173 1.253 1_556 S
C184 O174 1.283 . S
C185 O177 1.304 . S
C185 O179 1.272 . S
C186 O178 1.311 1_455 S
C186 O180 1.231 . S
O187 Zn169 1.953 . S
O187 C181 1.298 1_455 S
H188 C194 0.930 . S
H189 C198 0.930 . S
H190 C203 0.929 . S
H191 C201 0.929 . S
H192 C196 0.929 . S
H193 C202 0.929 . S
C194 H188 0.930 . S
C194 C195 1.367 . S
C194 C202 1.378 . S
C195 C194 1.367 . S
C195 C203 1.433 . S
C196 H192 0.929 . S
C196 C198 1.378 . S
C196 C200 1.350 . S
C197 C200 1.463 . S
C197 C202 1.350 . S
C197 N205 1.427 . S
C198 H189 0.930 . S
C198 C196 1.378 . S
C198 C199 1.367 . S
C199 C198 1.367 . S
C199 C201 1.433 . S
C200 C196 1.350 . S
C200 C197 1.463 . S
C200 N204 1.427 . S
C201 H191 0.929 . S
C201 C199 1.433 . S
C201 N204 1.384 . S
C202 H193 0.929 . S
C202 C194 1.378 . S
C202 C197 1.350 . S
C203 H190 0.929 . S
C203 C195 1.433 . S
C203 N205 1.384 . S
N204 C200 1.427 . S
N204 C201 1.384 . S
N205 C197 1.427 . S
N205 C203 1.384 . S
H206 C212 0.930 . S
H207 C216 0.930 . S
H208 C221 0.929 . S
H209 C219 0.929 . S
H210 C214 0.929 . S
H211 C220 0.929 . S
C212 H206 0.930 . S
C212 C213 1.367 . S
C212 C220 1.378 . S
C213 C212 1.367 . S
C213 C221 1.433 . S
C214 H210 0.929 . S
C214 C216 1.378 . S
C214 C218 1.350 . S
C215 C218 1.463 . S
C215 C220 1.350 . S
C215 N223 1.427 . S
C216 H207 0.930 . S
C216 C214 1.378 . S
C216 C217 1.367 . S
C217 C216 1.367 . S
C217 C219 1.433 . S
C218 C214 1.350 . S
C218 C215 1.463 . S
C218 N222 1.427 . S
C219 H209 0.929 . S
C219 C217 1.433 . S
C219 N222 1.384 . S
C220 H211 0.929 . S
C220 C212 1.378 . S
C220 C215 1.350 . S
C221 H208 0.929 . S
C221 C213 1.433 . S
C221 N223 1.384 . S
N222 C218 1.427 . S
N222 C219 1.384 . S
N223 C215 1.427 . S
N223 C221 1.384 . S
H224 C230 0.930 . S
H225 C234 0.930 . S
H226 C239 0.929 . S
H227 C237 0.929 . S
H228 C232 0.929 . S
H229 C238 0.929 . S
C230 H224 0.930 . S
C230 C231 1.367 . S
C230 C238 1.378 . S
C231 C230 1.367 . S
C231 C239 1.433 . S
C232 H228 0.929 . S
C232 C234 1.378 . S
C232 C236 1.350 . S
C233 C236 1.463 . S
C233 C238 1.350 . S
C233 N241 1.427 . S
C234 H225 0.930 . S
C234 C232 1.378 . S
C234 C235 1.367 . S
C235 C234 1.367 . S
C235 C237 1.433 . S
C236 C232 1.350 . S
C236 C233 1.463 . S
C236 N240 1.427 . S
C237 H227 0.929 . S
C237 C235 1.433 . S
C237 N240 1.384 . S
C238 H229 0.929 . S
C238 C230 1.378 . S
C238 C233 1.350 . S
C239 H226 0.929 . S
C239 C231 1.433 . S
C239 N241 1.384 . S
N240 C236 1.427 . S
N240 C237 1.384 . S
N241 C233 1.427 . S
N241 C239 1.384 . S
H242 C248 0.930 . S
H243 C252 0.930 . S
H244 C257 0.929 . S
H245 C255 0.929 . S
H246 C250 0.929 . S
H247 C256 0.929 . S
C248 H242 0.930 . S
C248 C249 1.367 . S
C248 C256 1.378 . S
C249 C248 1.367 . S
C249 C257 1.433 . S
C250 H246 0.929 . S
C250 C252 1.378 . S
C250 C254 1.350 . S
C251 C254 1.463 . S
C251 C256 1.350 . S
C251 N259 1.427 . S
C252 H243 0.930 . S
C252 C250 1.378 . S
C252 C253 1.367 . S
C253 C252 1.367 . S
C253 C255 1.433 . S
C254 C250 1.350 . S
C254 C251 1.463 . S
C254 N258 1.427 . S
C255 H245 0.929 . S
C255 C253 1.433 . S
C255 N258 1.384 . S
C256 H247 0.929 . S
C256 C248 1.378 . S
C256 C251 1.350 . S
C257 H244 0.929 . S
C257 C249 1.433 . S
C257 N259 1.384 . S
N258 C254 1.427 . S
N258 C255 1.384 . S
N259 C251 1.427 . S
N259 C257 1.384 . S
H260 C266 0.930 . S
H261 C270 0.930 . S
H262 C275 0.929 . S
H263 C273 0.929 . S
H264 C268 0.929 . S
H265 C274 0.929 . S
C266 H260 0.930 . S
C266 C267 1.367 . S
C266 C274 1.378 . S
C267 C266 1.367 . S
C267 C275 1.433 . S
C268 H264 0.929 . S
C268 C270 1.378 . S
C268 C272 1.350 . S
C269 C272 1.463 . S
C269 C274 1.350 . S
C269 N277 1.427 . S
C270 H261 0.930 . S
C270 C268 1.378 . S
C270 C271 1.367 . S
C271 C270 1.367 . S
C271 C273 1.433 . S
C272 C268 1.350 . S
C272 C269 1.463 . S
C272 N276 1.427 . S
C273 H263 0.929 . S
C273 C271 1.433 . S
C273 N276 1.384 . S
C274 H265 0.929 . S
C274 C266 1.378 . S
C274 C269 1.350 . S
C275 H262 0.929 . S
C275 C267 1.433 . S
C275 N277 1.384 . S
N276 C272 1.427 . S
N276 C273 1.384 . S
N277 C269 1.427 . S
N277 C275 1.384 . S
H278 C284 0.930 . S
H279 C288 0.930 . S
H280 C293 0.929 . S
H281 C291 0.929 . S
H282 C286 0.929 . S
H283 C292 0.929 . S
C284 H278 0.930 . S
C284 C285 1.367 . S
C284 C292 1.378 . S
C285 C284 1.367 . S
C285 C293 1.433 . S
C286 H282 0.929 . S
C286 C288 1.378 . S
C286 C290 1.350 . S
C287 C290 1.463 . S
C287 C292 1.350 . S
C287 N295 1.427 . S
C288 H279 0.930 . S
C288 C286 1.378 . S
C288 C289 1.367 . S
C289 C288 1.367 . S
C289 C291 1.433 . S
C290 C286 1.350 . S
C290 C287 1.463 . S
C290 N294 1.427 . S
C291 H281 0.929 . S
C291 C289 1.433 . S
C291 N294 1.384 . S
C292 H283 0.929 . S
C292 C284 1.378 . S
C292 C287 1.350 . S
C293 H280 0.929 . S
C293 C285 1.433 . S
C293 N295 1.384 . S
N294 C290 1.427 . S
N294 C291 1.384 . S
N295 C287 1.427 . S
N295 C293 1.384 . S
H296 C302 0.930 . S
H297 C306 0.930 . S
H298 C311 0.929 . S
H299 C309 0.929 . S
H300 C304 0.929 . S
H301 C310 0.929 . S
C302 H296 0.930 . S
C302 C303 1.367 . S
C302 C310 1.378 . S
C303 C302 1.367 . S
C303 C311 1.433 . S
C304 H300 0.929 . S
C304 C306 1.378 . S
C304 C308 1.350 . S
C305 C308 1.463 . S
C305 C310 1.350 . S
C305 N313 1.427 . S
C306 H297 0.930 . S
C306 C304 1.378 . S
C306 C307 1.367 . S
C307 C306 1.367 . S
C307 C309 1.433 . S
C308 C304 1.350 . S
C308 C305 1.463 . S
C308 N312 1.427 . S
C309 H299 0.929 . S
C309 C307 1.433 . S
C309 N312 1.384 . S
C310 H301 0.929 . S
C310 C302 1.378 . S
C310 C305 1.350 . S
C311 H298 0.929 . S
C311 C303 1.433 . S
C311 N313 1.384 . S
N312 C308 1.427 . S
N312 C309 1.384 . S
N313 C305 1.427 . S
N313 C311 1.384 . S
H314 C320 0.930 . S
H315 C324 0.930 . S
H316 C329 0.929 . S
H317 C327 0.929 . S
H318 C322 0.929 . S
H319 C328 0.929 . S
C320 H314 0.930 . S
C320 C321 1.367 . S
C320 C328 1.378 . S
C321 C320 1.367 . S
C321 C329 1.433 . S
C322 H318 0.929 . S
C322 C324 1.378 . S
C322 C326 1.350 . S
C323 C326 1.463 . S
C323 C328 1.350 . S
C323 N331 1.427 . S
C324 H315 0.930 . S
C324 C322 1.378 . S
C324 C325 1.367 . S
C325 C324 1.367 . S
C325 C327 1.433 . S
C326 C322 1.350 . S
C326 C323 1.463 . S
C326 N330 1.427 . S
C327 H317 0.929 . S
C327 C325 1.433 . S
C327 N330 1.384 . S
C328 H319 0.929 . S
C328 C320 1.378 . S
C328 C323 1.350 . S
C329 H316 0.929 . S
C329 C321 1.433 . S
C329 N331 1.384 . S
N330 C326 1.427 . S
N330 C327 1.384 . S
N331 C323 1.427 . S
N331 C329 1.384 . S
H332 C338 0.930 . S
H333 C342 0.930 . S
H334 C347 0.929 . S
H335 C345 0.929 . S
H336 C340 0.929 . S
H337 C346 0.929 . S
C338 H332 0.930 . S
C338 C339 1.367 . S
C338 C346 1.378 . S
C339 C338 1.367 . S
C339 C347 1.433 . S
C340 H336 0.929 . S
C340 C342 1.378 . S
C340 C344 1.350 . S
C341 C344 1.463 . S
C341 C346 1.350 . S
C341 N349 1.427 . S
C342 H333 0.930 . S
C342 C340 1.378 . S
C342 C343 1.367 . S
C343 C342 1.367 . S
C343 C345 1.433 . S
C344 C340 1.350 . S
C344 C341 1.463 . S
C344 N348 1.427 . S
C345 H335 0.929 . S
C345 C343 1.433 . S
C345 N348 1.384 . S
C346 H337 0.929 . S
C346 C338 1.378 . S
C346 C341 1.350 . S
C347 H334 0.929 . S
C347 C339 1.433 . S
C347 N349 1.384 . S
N348 C344 1.427 . S
N348 C345 1.384 . S
N349 C341 1.427 . S
N349 C347 1.384 . S
H350 C356 0.930 . S
H351 C360 0.930 . S
H352 C365 0.929 . S
H353 C363 0.929 . S
H354 C358 0.929 1_554 S
H355 C364 0.929 . S
C356 H350 0.930 . S
C356 C357 1.367 . S
C356 C364 1.378 . S
C357 C356 1.367 . S
C357 C365 1.433 . S
C358 H354 0.929 1_556 S
C358 C360 1.378 1_556 S
C358 C362 1.350 . S
C359 C362 1.463 . S
C359 C364 1.350 . S
C359 N367 1.427 . S
C360 H351 0.930 . S
C360 C358 1.378 1_554 S
C360 C361 1.367 1_554 S
C361 C360 1.367 1_556 S
C361 C363 1.433 . S
C362 C358 1.350 . S
C362 C359 1.463 . S
C362 N366 1.427 . S
C363 H353 0.929 . S
C363 C361 1.433 . S
C363 N366 1.384 . S
C364 H355 0.929 . S
C364 C356 1.378 . S
C364 C359 1.350 . S
C365 H352 0.929 . S
C365 C357 1.433 . S
C365 N367 1.384 . S
N366 C362 1.427 . S
N366 C363 1.384 . S
N367 C359 1.427 . S
N367 C365 1.384 . S
H368 C374 0.930 . S
H369 C378 0.930 . S
H370 C383 0.929 . S
H371 C381 0.929 . S
H372 C376 0.929 . S
H373 C382 0.929 . S
C374 H368 0.930 . S
C374 C375 1.367 . S
C374 C382 1.378 . S
C375 C374 1.367 . S
C375 C383 1.433 . S
C376 H372 0.929 . S
C376 C378 1.378 . S
C376 C380 1.350 . S
C377 C380 1.463 . S
C377 C382 1.350 . S
C377 N385 1.427 . S
C378 H369 0.930 . S
C378 C376 1.378 . S
C378 C379 1.367 . S
C379 C378 1.367 . S
C379 C381 1.433 . S
C380 C376 1.350 . S
C380 C377 1.463 . S
C380 N384 1.427 . S
C381 H371 0.929 . S
C381 C379 1.433 . S
C381 N384 1.384 . S
C382 H373 0.929 . S
C382 C374 1.378 . S
C382 C377 1.350 . S
C383 H370 0.929 . S
C383 C375 1.433 . S
C383 N385 1.384 . S
N384 C380 1.427 . S
N384 C381 1.384 . S
N385 C377 1.427 . S
N385 C383 1.384 . S
H386 C392 0.930 . S
H387 C396 0.930 . S
H388 C401 0.929 . S
H389 C399 0.929 . S
H390 C394 0.929 . S
H391 C400 0.929 . S
C392 H386 0.930 . S
C392 C393 1.367 . S
C392 C400 1.378 . S
C393 C392 1.367 . S
C393 C401 1.433 . S
C394 H390 0.929 . S
C394 C396 1.378 . S
C394 C398 1.350 . S
C395 C398 1.463 . S
C395 C400 1.350 . S
C395 N403 1.427 . S
C396 H387 0.930 . S
C396 C394 1.378 . S
C396 C397 1.367 . S
C397 C396 1.367 . S
C397 C399 1.433 . S
C398 C394 1.350 . S
C398 C395 1.463 . S
C398 N402 1.427 . S
C399 H389 0.929 . S
C399 C397 1.433 . S
C399 N402 1.384 . S
C400 H391 0.929 . S
C400 C392 1.378 . S
C400 C395 1.350 . S
C401 H388 0.929 . S
C401 C393 1.433 . S
C401 N403 1.384 . S
N402 C398 1.427 . S
N402 C399 1.384 . S
N403 C395 1.427 . S
N403 C401 1.384 . S
H404 C410 0.930 . S
H405 C414 0.930 1_455 S
H406 C419 0.929 . S
H407 C417 0.929 . S
H408 C412 0.929 . S
H409 C418 0.929 . S
C410 H404 0.930 . S
C410 C411 1.367 . S
C410 C418 1.378 . S
C411 C410 1.367 . S
C411 C419 1.433 1_565 S
C412 H408 0.929 . S
C412 C414 1.378 . S
C412 C416 1.350 1_545 S
C413 C416 1.463 . S
C413 C418 1.350 . S
C413 N421 1.427 1_565 S
C414 H405 0.930 1_655 S
C414 C412 1.378 . S
C414 C415 1.367 1_545 S
C415 C414 1.367 1_565 S
C415 C417 1.433 . S
C416 C412 1.350 1_565 S
C416 C413 1.463 . S
C416 N420 1.427 . S
C417 H407 0.929 . S
C417 C415 1.433 . S
C417 N420 1.384 . S
C418 H409 0.929 . S
C418 C410 1.378 . S
C418 C413 1.350 . S
C419 H406 0.929 . S
C419 C411 1.433 1_545 S
C419 N421 1.384 . S
N420 C416 1.427 . S
N420 C417 1.384 . S
N421 C413 1.427 1_545 S
N421 C419 1.384 . S
H422 C428 0.930 . S
H423 C432 0.930 1_565 S
H424 C437 0.929 . S
H425 C435 0.929 . S
H426 C430 0.929 1_565 S
H427 C436 0.929 . S
C428 H422 0.930 . S
C428 C429 1.367 . S
C428 C436 1.378 . S
C429 C428 1.367 . S
C429 C437 1.433 . S
C430 H426 0.929 1_545 S
C430 C432 1.378 . S
C430 C434 1.350 . S
C431 C434 1.463 . S
C431 C436 1.350 . S
C431 N439 1.427 . S
C432 H423 0.930 1_545 S
C432 C430 1.378 . S
C432 C433 1.367 . S
C433 C432 1.367 . S
C433 C435 1.433 . S
C434 C430 1.350 . S
C434 C431 1.463 . S
C434 N438 1.427 . S
C435 H425 0.929 . S
C435 C433 1.433 . S
C435 N438 1.384 . S
C436 H427 0.929 . S
C436 C428 1.378 . S
C436 C431 1.350 . S
C437 H424 0.929 . S
C437 C429 1.433 . S
C437 N439 1.384 . S
N438 C434 1.427 . S
N438 C435 1.384 . S
N439 C431 1.427 . S
N439 C437 1.384 . S
H440 C446 0.930 . S
H441 C450 0.930 . S
H442 C455 0.929 . S
H443 C453 0.929 . S
H444 C448 0.929 . S
H445 C454 0.929 . S
C446 H440 0.930 . S
C446 C447 1.367 . S
C446 C454 1.378 . S
C447 C446 1.367 . S
C447 C455 1.433 . S
C448 H444 0.929 . S
C448 C450 1.378 . S
C448 C452 1.350 . S
C449 C452 1.463 . S
C449 C454 1.350 . S
C449 N457 1.427 . S
C450 H441 0.930 . S
C450 C448 1.378 . S
C450 C451 1.367 . S
C451 C450 1.367 . S
C451 C453 1.433 . S
C452 C448 1.350 . S
C452 C449 1.463 . S
C452 N456 1.427 . S
C453 H443 0.929 . S
C453 C451 1.433 . S
C453 N456 1.384 . S
C454 H445 0.929 . S
C454 C446 1.378 . S
C454 C449 1.350 . S
C455 H442 0.929 . S
C455 C447 1.433 . S
C455 N457 1.384 . S
N456 C452 1.427 . S
N456 C453 1.384 . S
N457 C449 1.427 . S
N457 C455 1.384 . S
H458 C464 0.930 . S
H459 C468 0.930 . S
H460 C473 0.929 . S
H461 C471 0.929 . S
H462 C466 0.929 . S
H463 C472 0.929 . S
C464 H458 0.930 . S
C464 C465 1.367 . S
C464 C472 1.378 . S
C465 C464 1.367 . S
C465 C473 1.433 . S
C466 H462 0.929 . S
C466 C468 1.378 . S
C466 C470 1.350 . S
C467 C470 1.463 . S
C467 C472 1.350 . S
C467 N475 1.427 . S
C468 H459 0.930 . S
C468 C466 1.378 . S
C468 C469 1.367 . S
C469 C468 1.367 . S
C469 C471 1.433 . S
C470 C466 1.350 . S
C470 C467 1.463 . S
C470 N474 1.427 . S
C471 H461 0.929 . S
C471 C469 1.433 . S
C471 N474 1.384 . S
C472 H463 0.929 . S
C472 C464 1.378 . S
C472 C467 1.350 . S
C473 H460 0.929 . S
C473 C465 1.433 . S
C473 N475 1.384 . S
N474 C470 1.427 . S
N474 C471 1.384 . S
N475 C467 1.427 . S
N475 C473 1.384 . S
H476 C482 0.930 . S
H477 C486 0.930 . S
H478 C491 0.929 . S
H479 C489 0.929 . S
H480 C484 0.929 . S
H481 C490 0.929 1_554 S
C482 H476 0.930 . S
C482 C483 1.367 . S
C482 C490 1.378 . S
C483 C482 1.367 . S
C483 C491 1.433 . S
C484 H480 0.929 . S
C484 C486 1.378 . S
C484 C488 1.350 . S
C485 C488 1.463 . S
C485 C490 1.350 . S
C485 N493 1.427 . S
C486 H477 0.930 . S
C486 C484 1.378 . S
C486 C487 1.367 1_565 S
C487 C486 1.367 1_545 S
C487 C489 1.433 1_556 S
C488 C484 1.350 . S
C488 C485 1.463 . S
C488 N492 1.427 . S
C489 H479 0.929 . S
C489 C487 1.433 1_554 S
C489 N492 1.384 1_544 S
C490 H481 0.929 1_556 S
C490 C482 1.378 . S
C490 C485 1.350 . S
C491 H478 0.929 . S
C491 C483 1.433 . S
C491 N493 1.384 . S
N492 C488 1.427 . S
N492 C489 1.384 1_566 S
N493 C485 1.427 . S
N493 C491 1.384 . S
H494 C500 0.930 . S
H495 C504 0.930 . S
H496 C509 0.929 . S
H497 C507 0.938 . S
H498 C502 0.929 . S
H499 C508 0.929 . S
C500 H494 0.930 . S
C500 C501 1.367 . S
C500 C508 1.378 . S
C501 C500 1.367 . S
C501 C509 1.433 . S
C502 H498 0.929 . S
C502 C504 1.378 . S
C502 C506 1.350 . S
C503 C506 1.463 . S
C503 C508 1.350 . S
C503 N511 1.427 . S
C504 H495 0.930 . S
C504 C502 1.378 . S
C504 C505 1.367 . S
C505 C504 1.367 . S
C505 C507 1.433 . S
C506 C502 1.350 . S
C506 C503 1.463 . S
C506 N510 1.427 . S
C507 H497 0.938 . S
C507 C505 1.433 . S
C507 N510 1.384 . S
C508 H499 0.929 . S
C508 C500 1.378 . S
C508 C503 1.350 . S
C509 H496 0.929 . S
C509 C501 1.433 . S
C509 N511 1.384 . S
N510 C506 1.427 . S
N510 C507 1.384 . S
N511 C503 1.427 . S
N511 C509 1.384 . S
H512 C518 0.930 . S
H513 C522 0.930 . S
H514 C527 0.929 . S
H515 C525 0.929 . S
H516 C520 0.929 1_556 S
H517 C526 0.929 . S
C518 H512 0.930 . S
C518 C519 1.367 . S
C518 C526 1.378 . S
C519 C518 1.367 . S
C519 C527 1.433 . S
C520 H516 0.929 1_554 S
C520 C522 1.378 1_554 S
C520 C524 1.350 . S
C521 C524 1.463 . S
C521 C526 1.350 . S
C521 N529 1.427 . S
C522 H513 0.930 . S
C522 C520 1.378 1_556 S
C522 C523 1.367 1_556 S
C523 C522 1.367 1_554 S
C523 C525 1.433 . S
C524 C520 1.350 . S
C524 C521 1.463 . S
C524 N528 1.427 . S
C525 H515 0.929 . S
C525 C523 1.433 . S
C525 N528 1.384 . S
C526 H517 0.929 . S
C526 C518 1.378 . S
C526 C521 1.350 . S
C527 H514 0.929 . S
C527 C519 1.433 . S
C527 N529 1.384 . S
N528 C524 1.427 . S
N528 C525 1.384 . S
N529 C521 1.427 . S
N529 C527 1.384 . S
H530 C536 0.930 . S
H531 C540 0.930 . S
H532 C545 0.929 . S
H533 C543 0.929 . S
H534 C538 0.929 . S
H535 C544 0.929 . S
C536 H530 0.930 . S
C536 C537 1.367 . S
C536 C544 1.378 . S
C537 C536 1.367 . S
C537 C545 1.433 . S
C538 H534 0.929 . S
C538 C540 1.378 . S
C538 C542 1.350 . S
C539 C542 1.463 . S
C539 C544 1.350 . S
C539 N547 1.427 . S
C540 H531 0.930 . S
C540 C538 1.378 . S
C540 C541 1.367 . S
C541 C540 1.367 . S
C541 C543 1.433 . S
C542 C538 1.350 . S
C542 C539 1.463 . S
C542 N546 1.427 . S
C543 H533 0.929 . S
C543 C541 1.433 . S
C543 N546 1.384 . S
C544 H535 0.929 . S
C544 C536 1.378 . S
C544 C539 1.350 . S
C545 H532 0.929 . S
C545 C537 1.433 . S
C545 N547 1.384 . S
N546 C542 1.427 . S
N546 C543 1.384 . S
N547 C539 1.427 . S
N547 C545 1.384 . S
H548 C554 0.930 . S
H549 C558 0.930 . S
H550 C563 0.929 1_554 S
H551 C561 0.929 . S
H552 C556 0.929 . S
H553 C562 0.942 . S
C554 H548 0.930 . S
C554 C555 1.367 . S
C554 C562 1.378 . S
C555 C554 1.367 . S
C555 C563 1.433 . S
C556 H552 0.929 . S
C556 C558 1.378 . S
C556 C560 1.350 1_554 S
C557 C560 1.463 . S
C557 C562 1.350 . S
C557 N565 1.427 . S
C558 H549 0.930 . S
C558 C556 1.378 . S
C558 C559 1.367 1_554 S
C559 C558 1.367 1_556 S
C559 C561 1.433 1_655 S
C560 C556 1.350 1_556 S
C560 C557 1.463 . S
C560 N564 1.434 . S
C561 H551 0.929 . S
C561 C559 1.433 1_455 S
C561 N564 1.380 1_455 S
C562 H553 0.942 . S
C562 C554 1.378 . S
C562 C557 1.350 . S
C563 H550 0.929 1_556 S
C563 C555 1.433 . S
C563 N565 1.384 . S
N564 C560 1.434 . S
N564 C561 1.380 1_655 S
N565 C557 1.427 . S
N565 C563 1.384 . S
H566 C572 0.930 . S
H567 C576 0.930 . S
H568 C581 0.929 . S
H569 C579 0.929 . S
H570 C574 0.929 . S
H571 C580 0.929 . S
C572 H566 0.930 . S
C572 C573 1.367 . S
C572 C580 1.378 . S
C573 C572 1.367 . S
C573 C581 1.433 . S
C574 H570 0.929 . S
C574 C576 1.378 . S
C574 C578 1.350 . S
C575 C578 1.463 . S
C575 C580 1.350 . S
C575 N583 1.427 . S
C576 H567 0.930 . S
C576 C574 1.378 . S
C576 C577 1.367 . S
C577 C576 1.367 . S
C577 C579 1.433 . S
C578 C574 1.350 . S
C578 C575 1.463 . S
C578 N582 1.427 . S
C579 H569 0.929 . S
C579 C577 1.433 . S
C579 N582 1.384 . S
C580 H571 0.929 . S
C580 C572 1.378 . S
C580 C575 1.350 . S
C581 H568 0.929 . S
C581 C573 1.433 . S
C581 N583 1.384 . S
N582 C578 1.427 . S
N582 C579 1.384 . S
N583 C575 1.427 . S
N583 C581 1.384 . S
H584 C590 0.930 . S
H585 C594 0.930 . S
H586 C599 0.929 . S
H587 C597 0.929 . S
H588 C592 0.929 . S
H589 C598 0.929 . S
C590 H584 0.930 . S
C590 C591 1.367 . S
C590 C598 1.378 . S
C591 C590 1.367 . S
C591 C599 1.433 . S
C592 H588 0.929 . S
C592 C594 1.378 . S
C592 C596 1.350 . S
C593 C596 1.463 . S
C593 C598 1.350 . S
C593 N601 1.427 . S
C594 H585 0.930 . S
C594 C592 1.378 . S
C594 C595 1.367 . S
C595 C594 1.367 . S
C595 C597 1.433 . S
C596 C592 1.350 . S
C596 C593 1.463 . S
C596 N600 1.427 . S
C597 H587 0.929 . S
C597 C595 1.433 . S
C597 N600 1.384 . S
C598 H589 0.929 . S
C598 C590 1.378 . S
C598 C593 1.350 . S
C599 H586 0.929 . S
C599 C591 1.433 . S
C599 N601 1.384 . S
N600 C596 1.427 . S
N600 C597 1.384 . S
N601 C593 1.427 . S
N601 C599 1.384 . S
H602 C608 0.930 . S
H603 C612 0.930 . S
H604 C617 0.929 . S
H605 C615 0.929 . S
H606 C610 0.929 . S
H607 C616 0.929 . S
C608 H602 0.930 . S
C608 C609 1.367 . S
C608 C616 1.378 . S
C609 C608 1.367 . S
C609 C617 1.433 . S
C610 H606 0.929 . S
C610 C612 1.378 . S
C610 C614 1.350 . S
C611 C614 1.463 . S
C611 C616 1.350 . S
C611 N619 1.427 . S
C612 H603 0.930 . S
C612 C610 1.378 . S
C612 C613 1.367 . S
C613 C612 1.367 . S
C613 C615 1.433 . S
C614 C610 1.350 . S
C614 C611 1.463 . S
C614 N618 1.427 . S
C615 H605 0.929 . S
C615 C613 1.433 . S
C615 N618 1.384 . S
C616 H607 0.929 . S
C616 C608 1.378 . S
C616 C611 1.350 . S
C617 H604 0.929 . S
C617 C609 1.433 . S
C617 N619 1.384 . S
N618 C614 1.427 . S
N618 C615 1.384 . S
N619 C611 1.427 . S
N619 C617 1.384 . S
C195 C6 1.762 . S
C199 C114 1.730 . S
C213 C18 1.864 . S
C217 C138 1.837 . S
C235 C158 1.438 . S
C231 C28 1.420 . S
C249 C40 0.957 . S
C253 C181 0.964 . S
C271 C140 1.919 . S
C267 C9 1.959 . S
C289 C116 1.614 . S
C285 C16 1.654 . S
C307 C184 1.552 . S
C303 C30 1.603 . S
C325 C161 1.265 . S
C321 C42 1.304 . S
C339 C4 1.422 . S
C343 C186 1.393 . S
C361 C135 1.668 . S
C357 C33 1.658 . S
C375 C45 1.376 . S
C379 C113 1.379 . S
C393 C21 1.661 . S
C397 C163 1.625 . S
C415 C117 1.834 . S
C411 C57 1.817 . S
C429 C66 1.827 . S
C433 C139 1.815 . S
C447 C76 1.750 . S
C451 C159 1.765 . S
C465 C88 1.172 . S
C469 C182 1.205 . S
C483 C54 1.768 . S
C487 C137 1.738 . S
C505 C115 1.549 . S
C501 C64 1.547 . S
C523 C185 1.374 . S
C519 C78 1.399 . S
C541 C162 1.232 . S
C537 C93 1.252 . S
C555 C52 1.662 . S
C559 C183 1.673 1_655 S
C577 C136 1.574 . S
C573 C81 1.542 . S
C595 C112 1.343 . S
C591 C90 1.332 . S
C609 C69 1.999 . S
C613 C160 1.968 . S
