# Generated by pormake.
# Topology pyr, (3,6)-cn, num edge types: 1
# Building blocks:
#     Node 0, Type 0, BuildingBlock: QEWDON_clean_linker_0, # of connection points: 3
#     Node 1, Type 0, BuildingBlock: QEWDON_clean_linker_0, # of connection points: 3
#     Node 2, Type 0, BuildingBlock: QEWDON_clean_linker_0, # of connection points: 3
#     Node 3, Type 0, BuildingBlock: QEWDON_clean_linker_0, # of connection points: 3
#     Node 4, Type 0, BuildingBlock: QEWDON_clean_linker_0, # of connection points: 3
#     Node 5, Type 0, BuildingBlock: QEWDON_clean_linker_0, # of connection points: 3
#     Node 6, Type 0, BuildingBlock: QEWDON_clean_linker_0, # of connection points: 3
#     Node 7, Type 0, BuildingBlock: QEWDON_clean_linker_0, # of connection points: 3
#     Node 8, Type 1, BuildingBlock: BETFAJ_clean_sbu_0, # of connection points: 6
#     Node 9, Type 1, BuildingBlock: BETFAJ_clean_sbu_0, # of connection points: 6
#     Node 10, Type 1, BuildingBlock: BETFAJ_clean_sbu_0, # of connection points: 6
#     Node 11, Type 1, BuildingBlock: BETFAJ_clean_sbu_0, # of connection points: 6
#     Edge 12, Type (0, 1), BuildingBlock: MIFKUJ_clean_linker_0, # of connection points: 2
#     Edge 13, Type (0, 1), BuildingBlock: MIFKUJ_clean_linker_0, # of connection points: 2
#     Edge 14, Type (0, 1), BuildingBlock: MIFKUJ_clean_linker_0, # of connection points: 2
#     Edge 15, Type (0, 1), BuildingBlock: MIFKUJ_clean_linker_0, # of connection points: 2
#     Edge 16, Type (0, 1), BuildingBlock: MIFKUJ_clean_linker_0, # of connection points: 2
#     Edge 17, Type (0, 1), BuildingBlock: MIFKUJ_clean_linker_0, # of connection points: 2
#     Edge 18, Type (0, 1), BuildingBlock: MIFKUJ_clean_linker_0, # of connection points: 2
#     Edge 19, Type (0, 1), BuildingBlock: MIFKUJ_clean_linker_0, # of connection points: 2
#     Edge 20, Type (0, 1), BuildingBlock: MIFKUJ_clean_linker_0, # of connection points: 2
#     Edge 21, Type (0, 1), BuildingBlock: MIFKUJ_clean_linker_0, # of connection points: 2
#     Edge 22, Type (0, 1), BuildingBlock: MIFKUJ_clean_linker_0, # of connection points: 2
#     Edge 23, Type (0, 1), BuildingBlock: MIFKUJ_clean_linker_0, # of connection points: 2
#     Edge 24, Type (0, 1), BuildingBlock: MIFKUJ_clean_linker_0, # of connection points: 2
#     Edge 25, Type (0, 1), BuildingBlock: MIFKUJ_clean_linker_0, # of connection points: 2
#     Edge 26, Type (0, 1), BuildingBlock: MIFKUJ_clean_linker_0, # of connection points: 2
#     Edge 27, Type (0, 1), BuildingBlock: MIFKUJ_clean_linker_0, # of connection points: 2
#     Edge 28, Type (0, 1), BuildingBlock: MIFKUJ_clean_linker_0, # of connection points: 2
#     Edge 29, Type (0, 1), BuildingBlock: MIFKUJ_clean_linker_0, # of connection points: 2
#     Edge 30, Type (0, 1), BuildingBlock: MIFKUJ_clean_linker_0, # of connection points: 2
#     Edge 31, Type (0, 1), BuildingBlock: MIFKUJ_clean_linker_0, # of connection points: 2
#     Edge 32, Type (0, 1), BuildingBlock: MIFKUJ_clean_linker_0, # of connection points: 2
#     Edge 33, Type (0, 1), BuildingBlock: MIFKUJ_clean_linker_0, # of connection points: 2
#     Edge 34, Type (0, 1), BuildingBlock: MIFKUJ_clean_linker_0, # of connection points: 2
#     Edge 35, Type (0, 1), BuildingBlock: MIFKUJ_clean_linker_0, # of connection points: 2
# Relax obj value: 0.145
# Max RMSD: 0.267
# Mean RMSD: 0.196
data_MOF--net-pyr--node1-BETFAJ_clean_sbu_0--node2-QEWDON_clean_linker_0--edge1-MIFKUJ_clean_linker_0
_symmetry_space_group_name_H-M    P1
_symmetry_Int_Tables_number       1
_symmetry_cell_setting            triclinic
loop_
_symmetry_equiv_pos_as_xyz
'x, y, z'
_cell_length_a     49.350737
_cell_length_b     52.87129
_cell_length_c     50.78763
_cell_angle_alpha  92.391433
_cell_angle_beta   89.43038
_cell_angle_gamma 106.82384
loop_
_atom_site_label
_atom_site_type_symbol
_atom_site_fract_x
_atom_site_fract_y
_atom_site_fract_z
_atom_type_partial_charge
H0 H 0.3813 0.32953 0.2117 0.0
C1 C 0.36739 0.32134 0.2278 0.0
C2 C 0.36554 0.29554 0.23602 0.0
C3 C 0.35082 0.33639 0.24019 0.0
H4 H 0.34699 0.26648 0.26468 0.0
C5 C 0.34821 0.28591 0.25779 0.0
C6 C 0.33242 0.30097 0.27079 0.0
C7 C 0.33342 0.32583 0.26143 0.0
C8 C 0.35442 0.36469 0.23442 0.0
H9 H 0.32175 0.33775 0.27169 0.0
C10 C 0.33184 0.37354 0.22484 0.0
C11 C 0.33436 0.40101 0.22434 0.0
C12 C 0.37934 0.38357 0.2431 0.0
H13 H 0.39654 0.3774 0.25119 0.0
C14 C 0.38177 0.41052 0.24289 0.0
H15 H 0.31224 0.3592 0.21858 0.0
C16 C 0.35952 0.41916 0.23378 0.0
H17 H 0.3621 0.44023 0.23385 0.0
H18 H 0.40092 0.42482 0.25019 0.0
H19 H 0.25579 0.90335 0.71276 0.0
C20 C 0.27267 0.89726 0.70305 0.0
C21 C 0.29919 0.90266 0.71506 0.0
C22 C 0.26799 0.88323 0.67868 0.0
H23 H 0.33951 0.89542 0.71447 0.0
C24 C 0.32026 0.89312 0.7034 0.0
C25 C 0.31574 0.87935 0.67888 0.0
C26 C 0.28992 0.87595 0.66608 0.0
C27 C 0.2406 0.87645 0.6654 0.0
H28 H 0.28628 0.86712 0.64634 0.0
C29 C 0.22967 0.89674 0.65881 0.0
C30 C 0.2059 0.89136 0.64265 0.0
C31 C 0.22731 0.85035 0.65626 0.0
H32 H 0.23598 0.83444 0.6609 0.0
C33 C 0.20306 0.84483 0.64057 0.0
H34 H 0.24028 0.91693 0.66553 0.0
C35 C 0.19233 0.86533 0.63366 0.0
H36 H 0.17388 0.86102 0.621 0.0
H37 H 0.19293 0.82478 0.63339 0.0
H38 H 0.70316 0.42317 0.89318 0.0
C39 C 0.69653 0.40348 0.90074 0.0
C40 C 0.71427 0.39621 0.91896 0.0
C41 C 0.67034 0.38563 0.89258 0.0
H42 H 0.71786 0.36586 0.94495 0.0
C43 C 0.7049 0.37109 0.93021 0.0
C44 C 0.67897 0.35269 0.92267 0.0
C45 C 0.66279 0.35979 0.90301 0.0
C46 C 0.64952 0.39401 0.8752 0.0
H47 H 0.64364 0.34501 0.89654 0.0
C48 C 0.65718 0.41481 0.85662 0.0
C49 C 0.63585 0.4216 0.84176 0.0
C50 C 0.62038 0.38113 0.87831 0.0
H51 H 0.61274 0.3666 0.89305 0.0
C52 C 0.59995 0.38695 0.86307 0.0
H53 H 0.67916 0.42578 0.85397 0.0
C54 C 0.60752 0.40667 0.84498 0.0
H55 H 0.5908 0.41068 0.83369 0.0
H56 H 0.57784 0.37634 0.8657 0.0
H57 H 0.88359 0.75227 0.36278 0.0
C58 C 0.86976 0.73955 0.37655 0.0
C59 C 0.86693 0.74907 0.40274 0.0
C60 C 0.8528 0.71421 0.3675 0.0
H61 H 0.84663 0.73816 0.44025 0.0
C62 C 0.84831 0.73199 0.41987 0.0
C63 C 0.82986 0.70789 0.41084 0.0
C64 C 0.83248 0.69894 0.38481 0.0
C65 C 0.85212 0.70499 0.33905 0.0
H66 H 0.81813 0.68025 0.3778 0.0
C67 C 0.87615 0.70173 0.32509 0.0
C68 C 0.87307 0.69053 0.2989 0.0
C69 C 0.82574 0.69767 0.32611 0.0
H70 H 0.80705 0.70009 0.33603 0.0
C71 C 0.82287 0.68692 0.30045 0.0
H72 H 0.89665 0.70705 0.33467 0.0
C73 C 0.84623 0.68324 0.28702 0.0
H74 H 0.84334 0.67463 0.26712 0.0
H75 H 0.80233 0.68121 0.29096 0.0
H76 H 0.69007 0.7836 0.8912 0.0
C77 C 0.69881 0.79162 0.87264 0.0
C78 C 0.72343 0.78626 0.86253 0.0
C79 C 0.68493 0.80657 0.8582 0.0
H80 H 0.75327 0.79216 0.83074 0.0
C81 C 0.73401 0.79591 0.83807 0.0
C82 C 0.7207 0.81081 0.82332 0.0
C83 C 0.69614 0.81609 0.8336 0.0
C84 C 0.65614 0.80815 0.86591 0.0
H85 H 0.68512 0.82685 0.82207 0.0
C86 C 0.65139 0.82756 0.88419 0.0
C87 C 0.62345 0.82926 0.88896 0.0
C88 C 0.63286 0.79046 0.85299 0.0
H89 H 0.63595 0.77567 0.83877 0.0
C90 C 0.60548 0.79169 0.85797 0.0
H91 H 0.66927 0.84167 0.89385 0.0
C92 C 0.60078 0.81081 0.87571 0.0
H93 H 0.57916 0.8111 0.87908 0.0
H94 H 0.58775 0.77786 0.84784 0.0
H95 H 0.76721 0.22299 0.52566 0.0
C96 C 0.75884 0.2213 0.50579 0.0
C97 C 0.77091 0.20967 0.4854 0.0
C98 C 0.73505 0.22957 0.5008 0.0
H99 H 0.76823 0.19683 0.44449 0.0
C100 C 0.75931 0.20664 0.46003 0.0
C101 C 0.73509 0.2143 0.45508 0.0
C102 C 0.72336 0.22639 0.47546 0.0
C103 C 0.72093 0.23971 0.52241 0.0
H104 H 0.70447 0.2323 0.47192 0.0
C105 C 0.71922 0.26559 0.52208 0.0
C106 C 0.70373 0.2747 0.54145 0.0
C107 C 0.70756 0.22306 0.54243 0.0
H108 H 0.70855 0.20287 0.54265 0.0
C109 C 0.69203 0.23222 0.56179 0.0
H110 H 0.72936 0.27838 0.50646 0.0
C111 C 0.68993 0.25796 0.56123 0.0
H112 H 0.6775 0.2648 0.5761 0.0
H113 H 0.68132 0.21927 0.577 0.0
H114 H 0.39912 0.77427 0.2737 0.0
C115 C 0.37838 0.76545 0.26506 0.0
C116 C 0.36813 0.77939 0.24591 0.0
C117 C 0.36253 0.73947 0.2718 0.0
H118 H 0.3348 0.77701 0.21795 0.0
C119 C 0.34215 0.76691 0.2333 0.0
C120 C 0.32626 0.7411 0.23896 0.0
C121 C 0.33627 0.72779 0.25855 0.0
C122 C 0.3759 0.72161 0.28652 0.0
H123 H 0.32457 0.70748 0.26217 0.0
C124 C 0.38376 0.7243 0.314 0.0
C125 C 0.39442 0.70474 0.32581 0.0
C126 C 0.37979 0.69991 0.27166 0.0
H127 H 0.37433 0.6972 0.25091 0.0
C128 C 0.39056 0.68135 0.28296 0.0
H129 H 0.38073 0.74064 0.32604 0.0
C130 C 0.39769 0.68366 0.30952 0.0
H131 H 0.40588 0.66862 0.31749 0.0
H132 H 0.39324 0.66482 0.27099 0.0
H133 H 0.21266 0.44594 0.72809 0.0
C134 C 0.20239 0.42811 0.7165 0.0
C135 C 0.21529 0.4219 0.69316 0.0
C136 C 0.17795 0.41025 0.72647 0.0
H137 H 0.21212 0.39363 0.66074 0.0
C138 C 0.20246 0.39781 0.67899 0.0
C139 C 0.1776 0.37933 0.68816 0.0
C140 C 0.16578 0.38609 0.71207 0.0
C141 C 0.16815 0.41427 0.75408 0.0
H142 H 0.14764 0.37203 0.72046 0.0
C143 C 0.163 0.43815 0.76405 0.0
C144 C 0.15355 0.4401 0.7905 0.0
C145 C 0.16474 0.39335 0.7712 0.0
H146 H 0.16914 0.37519 0.7646 0.0
C147 C 0.15619 0.39554 0.79714 0.0
H148 H 0.16547 0.45455 0.75127 0.0
C149 C 0.15057 0.41853 0.80666 0.0
H150 H 0.14372 0.41946 0.82693 0.0
H151 H 0.15381 0.37921 0.80999 0.0
Sm152 Sm 0.02752 0.07584 0.51525 0.0
Sm153 Sm 1.00257 0.05472 0.56971 0.0
C154 C 0.04674 0.10361 0.47331 0.0
C155 C 0.07357 0.12338 0.46576 0.0
C156 C 0.07462 0.15004 0.46349 0.0
C157 C 0.09938 0.16849 0.45501 0.0
C158 C 0.12367 0.16072 0.4484 0.0
C159 C 0.12281 0.13416 0.45136 0.0
C160 C 0.09811 0.11575 0.4599 0.0
C161 C 0.05854 0.05156 0.5426 0.0
C162 C 0.04441 0.1153 0.56997 0.0
C163 C 0.98366 0.02597 0.61139 0.0
C164 C 0.95975 1.00296 0.61909 0.0
C165 C 0.96528 0.98092 0.62992 0.0
C166 C 0.94324 0.96041 0.64001 0.0
C167 C 0.91509 0.96157 0.63971 0.0
C168 C 0.90946 0.9831 0.62777 0.0
C169 C 0.93145 1.00349 0.61758 0.0
C170 C 0.97209 0.08009 0.54264 0.0
C171 C 0.9888 0.01488 0.51536 0.0
O172 O 0.03083 0.11098 0.49114 0.0
O173 O 0.04773 0.07939 0.47597 0.0
O174 O 0.04595 0.06692 0.55263 0.0
O175 O 0.05816 0.05078 0.51713 0.0
O176 O 0.0428 0.11302 0.54383 0.0
O177 O 0.0335 0.09469 0.58485 0.0
O178 O 1.00293 0.02146 0.59543 0.0
O179 O 0.97773 0.04794 0.60668 0.0
O180 O 0.98375 0.064 0.53224 0.0
O181 O 0.97426 0.08174 0.56808 0.0
O182 O 0.99006 0.01737 0.54143 0.0
O183 O 0.99811 0.03553 0.50037 0.0
H184 H 0.05614 0.15657 0.46791 0.0
H185 H 0.09937 0.18884 0.45339 0.0
H186 H 0.14091 0.12731 0.44618 0.0
H187 H 0.09818 0.09539 0.46139 0.0
H188 H 0.98684 0.97994 0.63135 0.0
H189 H 0.94844 0.94425 0.64912 0.0
H190 H 0.88801 0.98443 0.6267 0.0
H191 H 0.92627 0.02 0.60914 0.0
Sm192 Sm 0.54239 0.07166 0.10101 0.0
Sm193 Sm 0.48931 0.05884 0.06241 0.0
C194 C 0.58991 0.09602 0.12546 0.0
C195 C 0.59617 0.10595 0.15276 0.0
C196 C 0.60871 0.13307 0.15767 0.0
C197 C 0.61406 0.14324 0.1834 0.0
C198 C 0.60718 0.1264 0.20463 0.0
C199 C 0.59374 0.09936 0.19985 0.0
C200 C 0.58821 0.08917 0.17404 0.0
C201 C 0.50038 0.02875 0.1202 0.0
C202 C 0.49097 0.10038 0.11334 0.0
C203 C 0.44286 0.03345 0.03661 0.0
C204 C 0.43824 0.02029 1.01012 0.0
C205 C 0.44179 0.99498 1.00556 0.0
C206 C 0.43816 0.98296 0.98034 0.0
C207 C 0.43072 0.99589 0.95917 0.0
C208 C 0.42748 0.0213 0.96374 0.0
C209 C 0.43121 0.03335 0.98891 0.0
C210 C 0.53291 0.1012 0.04321 0.0
C211 C 0.53934 0.02919 0.05026 0.0
O212 O 0.57567 0.1085 0.11199 0.0
O213 O 0.58148 0.07031 0.12124 0.0
O214 O 0.49911 0.04186 0.10004 0.0
O215 O 0.52459 0.03946 0.13165 0.0
O216 O 0.51707 0.09954 0.11847 0.0
O217 O 0.47509 0.08484 0.09466 0.0
O218 O 0.45456 0.02231 0.05404 0.0
O219 O 0.45266 0.05933 0.03762 0.0
O220 O 0.53296 0.08814 0.06355 0.0
O221 O 0.50889 0.09073 0.03131 0.0
O222 O 0.51369 0.03078 0.04498 0.0
O223 O 0.5555 0.04448 0.06895 0.0
H224 H 0.61442 0.1464 0.14156 0.0
H225 H 0.62412 0.16424 0.18672 0.0
H226 H 0.58844 0.086 0.21596 0.0
H227 H 0.57795 0.06821 0.17081 0.0
H228 H 0.44741 0.98439 0.02145 0.0
H229 H 0.44108 0.96351 0.97747 0.0
H230 H 0.4212 0.03165 0.94803 0.0
H231 H 0.4284 0.05285 0.99177 0.0
Sm232 Sm 0.54274 0.57912 0.57975 0.0
Sm233 Sm 0.54454 0.62436 0.61764 0.0
C234 C 0.56413 0.54891 0.54911 0.0
C235 C 0.57495 0.52711 0.55658 0.0
C236 C 0.60414 0.5306 0.55518 0.0
C237 C 0.6157 0.51178 0.56485 0.0
C238 C 0.5982 0.48891 0.57603 0.0
C239 C 0.56896 0.48559 0.57795 0.0
C240 C 0.55741 0.5046 0.56838 0.0
C241 C 0.49547 0.56161 0.61068 0.0
C242 C 0.56788 0.5784 0.64032 0.0
C243 C 0.53689 0.66359 0.64744 0.0
C244 C 0.52395 0.68453 0.64237 0.0
C245 C 0.49579 0.67829 0.63368 0.0
C246 C 0.48413 0.69832 0.62775 0.0
C247 C 0.5005 0.72488 0.63017 0.0
C248 C 0.52884 0.73108 0.63831 0.0
C249 C 0.54046 0.71101 0.64449 0.0
C250 C 0.59222 0.62966 0.58755 0.0
C251 C 0.51334 0.62243 0.55829 0.0
O252 O 0.57915 0.57213 0.55841 0.0
O253 O 0.53672 0.54531 0.55075 0.0
O254 O 0.51323 0.58428 0.61317 0.0
O255 O 0.50254 0.54758 0.59178 0.0
O256 O 0.56893 0.5711 0.61517 0.0
O257 O 0.55576 0.59686 0.64728 0.0
O258 O 0.51984 0.63949 0.64775 0.0
O259 O 0.56042 0.66516 0.63477 0.0
O260 O 0.56698 0.62198 0.57959 0.0
O261 O 0.59328 0.634 0.61293 0.0
O262 O 0.51961 0.6346 0.58195 0.0
O263 O 0.52027 0.6005 0.55217 0.0
H264 H 0.61803 0.54816 0.54683 0.0
H265 H 0.63825 0.51474 0.56266 0.0
H266 H 0.55502 0.46819 0.58659 0.0
H267 H 0.53487 0.50175 0.57044 0.0
H268 H 0.48265 0.65799 0.63152 0.0
H269 H 0.46204 0.69301 0.62203 0.0
H270 H 0.5419 0.75144 0.64016 0.0
H271 H 0.56236 0.71613 0.65078 0.0
Sm272 Sm 0.04696 0.57692 0.0461 0.0
Sm273 Sm 0.03286 0.62698 0.02152 0.0
C274 C 0.075 0.54197 0.05504 0.0
C275 C 0.09725 0.537 0.07239 0.0
C276 C 0.12367 0.53725 0.06153 0.0
C277 C 0.14397 0.52997 0.07625 0.0
C278 C 0.1386 0.5221 0.10242 0.0
C279 C 0.11262 0.52293 0.11375 0.0
C280 C 0.09216 0.53013 0.09891 0.0
C281 C 0.02086 0.60199 0.084 0.0
C282 C 0.08879 0.63748 0.05862 0.0
C283 C 1.00826 0.66237 1.00452 0.0
C284 C 0.98435 0.66637 0.98868 0.0
C285 C 0.9558 0.65607 0.99618 0.0
C286 C 0.934 0.66257 0.98275 0.0
C287 C 0.94011 0.67989 0.96171 0.0
C288 C 0.96855 0.68973 0.95388 0.0
C289 C 0.99029 0.68296 0.96706 0.0
C290 C 0.06497 0.60154 0.99051 0.0
C291 C 0.98702 0.56616 0.01406 0.0
O292 O 0.08332 0.56083 0.0382 0.0
O293 O 0.04972 0.54013 0.0647 0.0
O294 O 0.02754 0.60856 0.06068 0.0
O295 O 0.02769 0.58046 0.08778 0.0
O296 O 0.08685 0.61231 0.0535 0.0
O297 O 0.06878 0.64803 0.05129 0.0
O298 O 1.00257 0.65096 0.02713 0.0
O299 O 0.02902 0.65627 0.99209 0.0
O300 O 0.04401 0.59061 1.00472 0.0
O301 O 0.06948 0.62708 0.99211 0.0
O302 O 0.99195 0.59222 0.01365 0.0
O303 O 1.00584 0.55502 0.02319 0.0
H304 H 0.12844 0.54246 0.04124 0.0
H305 H 0.16384 0.53015 0.06691 0.0
H306 H 0.10761 0.51701 0.13379 0.0
H307 H 0.07212 0.52969 0.10804 0.0
H308 H 0.95029 0.64343 0.01283 0.0
H309 H 0.91239 0.65479 0.98946 0.0
H310 H 0.97403 0.70292 0.93765 0.0
H311 H 0.01196 0.69137 0.96078 0.0
H312 H 0.34759 0.27796 0.3135 0.0
H313 H 0.31834 0.25994 0.35143 0.0
H314 H 0.24898 0.28333 0.31947 0.0
H315 H 0.27829 0.30179 0.28185 0.0
H316 H 0.25041 0.29045 0.3722 0.0
H317 H 0.25559 0.2201 0.30932 0.0
H318 H 0.28199 0.1953 0.28245 0.0
H319 H 0.31822 0.17577 0.35256 0.0
H320 H 0.29237 0.20087 0.37982 0.0
H321 H 0.12494 0.1987 0.41303 0.0
H322 H 0.16585 0.22718 0.39109 0.0
H323 H 0.22118 0.19404 0.43449 0.0
H324 H 0.18012 0.16547 0.45689 0.0
H325 H 0.23344 0.19429 0.38324 0.0
H326 H 0.22152 0.25848 0.44677 0.0
H327 H 0.19536 0.28363 0.47345 0.0
H328 H 0.17186 0.31478 0.40328 0.0
H329 H 0.19757 0.28956 0.37613 0.0
C330 C 0.3261 0.27925 0.31459 0.0
C331 C 0.31509 0.2909 0.29442 0.0
C332 C 0.30944 0.26908 0.33635 0.0
C333 C 0.28123 0.26985 0.33816 0.0
C334 C 0.27063 0.28246 0.31859 0.0
C335 C 0.28738 0.29291 0.29699 0.0
C336 C 0.26193 0.2557 0.35905 0.0
C337 C 0.24662 0.26941 0.37458 0.0
C338 C 0.25756 0.2284 0.36283 0.0
C339 C 0.27227 0.21253 0.34656 0.0
C340 C 0.26925 0.21057 0.31898 0.0
C341 C 0.28414 0.19649 0.30369 0.0
C342 C 0.30182 0.18401 0.31579 0.0
C343 C 0.30455 0.18548 0.34322 0.0
C344 C 0.28979 0.19962 0.3586 0.0
C345 C 0.1458 0.19784 0.41847 0.0
C346 C 0.1491 0.17972 0.43681 0.0
C347 C 0.16927 0.21419 0.40583 0.0
C348 C 0.19672 0.21301 0.41127 0.0
C349 C 0.20023 0.19534 0.42994 0.0
C350 C 0.1767 0.17893 0.44265 0.0
C351 C 0.22123 0.22884 0.39589 0.0
C352 C 0.23756 0.21543 0.38135 0.0
C353 C 0.22651 0.2564 0.3931 0.0
C354 C 0.21138 0.27199 0.40938 0.0
C355 C 0.21066 0.27058 0.437 0.0
C356 C 0.19592 0.28487 0.45222 0.0
C357 C 0.18192 0.30076 0.44006 0.0
C358 C 0.18272 0.30247 0.41267 0.0
C359 C 0.19743 0.28822 0.39736 0.0
H360 H 0.17049 0.31177 0.45188 0.0
H361 H 0.31337 0.17316 0.30391 0.0
H362 H 0.3282 0.95338 0.72831 0.0
H363 H 0.35213 0.96825 0.7707 0.0
H364 H 0.31022 0.89205 0.80199 0.0
H365 H 0.28522 0.87804 0.76032 0.0
H366 H 0.31536 0.9261 0.83834 0.0
H367 H 0.3788 0.90965 0.77209 0.0
H368 H 0.40518 0.91537 0.73021 0.0
H369 H 0.44725 0.99622 0.75316 0.0
H370 H 0.42072 0.99116 0.79495 0.0
H371 H 0.40352 0.94352 0.94784 0.0
H372 H 0.3846 0.92355 0.90531 0.0
H373 H 0.4217 0.99801 0.86889 0.0
H374 H 0.44288 0.01739 0.91081 0.0
H375 H 0.41999 0.96099 0.83475 0.0
H376 H 0.34957 0.97614 0.89922 0.0
H377 H 0.32088 0.96807 0.9398 0.0
H378 H 0.29176 0.88513 0.9186 0.0
H379 H 0.32047 0.8927 0.87808 0.0
C380 C 0.32316 0.94048 0.7448 0.0
C381 C 0.30475 0.91481 0.74154 0.0
C382 C 0.33726 0.94867 0.76872 0.0
C383 C 0.33373 0.93089 0.78915 0.0
C384 C 0.31347 0.90604 0.78644 0.0
C385 C 0.29893 0.89812 0.76281 0.0
C386 C 0.35172 0.93745 0.81299 0.0
C387 C 0.33829 0.93342 0.83749 0.0
C388 C 0.38165 0.94703 0.81186 0.0
C389 C 0.39751 0.95009 0.78659 0.0
C390 C 0.39348 0.92872 0.76812 0.0
C391 C 0.40848 0.93184 0.74439 0.0
C392 C 0.42782 0.95616 0.739 0.0
C393 C 0.43221 0.9774 0.75733 0.0
C394 C 0.41719 0.97443 0.78104 0.0
C395 C 0.40855 0.95542 0.93063 0.0
C396 C 0.42399 0.98234 0.93287 0.0
C397 C 0.39733 0.94404 0.90636 0.0
C398 C 0.4006 0.95963 0.88418 0.0
C399 C 0.41835 0.98571 0.88585 0.0
C400 C 0.43016 0.99689 0.90993 0.0
C401 C 0.3835 0.95005 0.86005 0.0
C402 C 0.39709 0.95346 0.83548 0.0
C403 C 0.35367 0.93942 0.86098 0.0
C404 C 0.33742 0.93495 0.88587 0.0
C405 C 0.33726 0.95618 0.90339 0.0
C406 C 0.32095 0.95169 0.92633 0.0
C407 C 0.30458 0.9261 0.93181 0.0
C408 C 0.3045 0.90492 0.91439 0.0
C409 C 0.3208 0.90929 0.89146 0.0
H410 H 0.29188 0.92269 0.94952 0.0
H411 H 0.43945 0.95852 0.72064 0.0
H412 H 0.66945 0.4323 0.79655 0.0
H413 H 0.66585 0.46247 0.76161 0.0
H414 H 0.60672 0.49019 0.80908 0.0
H415 H 0.6111 0.46133 0.84405 0.0
H416 H 0.59412 0.46205 0.74669 0.0
H417 H 0.6483 0.533 0.80842 0.0
H418 H 0.69087 0.55538 0.83465 0.0
H419 H 0.74189 0.56313 0.76482 0.0
H420 H 0.69964 0.54013 0.73827 0.0
H421 H 0.54726 0.56407 0.68968 0.0
H422 H 0.56615 0.54079 0.72261 0.0
H423 H 0.63655 0.54117 0.6717 0.0
H424 H 0.61693 0.56331 0.63809 0.0
H425 H 0.64909 0.5551 0.73236 0.0
H426 H 0.59842 0.48907 0.66985 0.0
H427 H 0.55793 0.46722 0.64091 0.0
H428 H 0.50369 0.44905 0.70842 0.0
H429 H 0.54381 0.47143 0.73776 0.0
C430 C 0.65664 0.44563 0.79998 0.0
C431 C 0.64076 0.44436 0.82341 0.0
C432 C 0.65429 0.46271 0.77981 0.0
C433 C 0.63591 0.47878 0.78252 0.0
C434 C 0.62116 0.4783 0.80634 0.0
C435 C 0.62385 0.46176 0.82649 0.0
C436 C 0.62968 0.49421 0.76008 0.0
C437 C 0.6062 0.4824 0.74368 0.0
C438 C 0.64556 0.52068 0.75545 0.0
C439 C 0.6709 0.5343 0.77146 0.0
C440 C 0.66865 0.53899 0.79873 0.0
C441 C 0.69271 0.55191 0.81365 0.0
C442 C 0.7191 0.56053 0.80144 0.0
C443 C 0.72146 0.55632 0.77427 0.0
C444 C 0.69747 0.54331 0.7593 0.0
C445 C 0.56685 0.55934 0.6855 0.0
C446 C 0.58041 0.56551 0.66106 0.0
C447 C 0.57772 0.54604 0.70444 0.0
C448 C 0.60299 0.53921 0.69993 0.0
C449 C 0.61715 0.54622 0.6759 0.0
C450 C 0.60577 0.55876 0.65657 0.0
C451 C 0.61315 0.52306 0.71945 0.0
C452 C 0.6372 0.53468 0.73526 0.0
C453 C 0.59808 0.49627 0.72336 0.0
C454 C 0.57402 0.48223 0.70597 0.0
C455 C 0.57779 0.48067 0.67851 0.0
C456 C 0.55492 0.46816 0.66203 0.0
C457 C 0.52822 0.45683 0.67281 0.0
C458 C 0.52438 0.4579 0.70011 0.0
C459 C 0.54718 0.47051 0.71667 0.0
H460 H 0.51052 0.44715 0.66003 0.0
H461 H 0.73769 0.57058 0.81301 0.0
H462 H 0.91099 0.72502 0.26825 0.0
H463 H 0.93956 0.71361 0.23227 0.0
H464 H 0.91413 0.63243 0.25491 0.0
H465 H 0.88578 0.64396 0.29093 0.0
H466 H 0.96838 0.64588 0.238 0.0
H467 H 0.87996 0.65242 0.20542 0.0
H468 H 0.84307 0.67477 0.19976 0.0
H469 H 0.90243 0.73713 0.15971 0.0
H470 H 0.93982 0.71528 0.16546 0.0
H471 H 0.98774 0.57699 0.12315 0.0
H472 H 0.96508 0.59541 0.15881 0.0
H473 H 0.99597 0.67277 0.12684 0.0
H474 H 0.01802 0.65385 0.08998 0.0
H475 H 0.9424 0.66519 0.14839 0.0
H476 H 0.03038 0.65535 0.17904 0.0
H477 H 0.06516 0.63057 0.18405 0.0
H478 H 1.00469 0.57236 0.22784 0.0
H479 H 0.96934 0.59663 0.2227 0.0
C480 C 0.91246 0.70499 0.26617 0.0
C481 C 0.8967 0.68555 0.28287 0.0
C482 C 0.92844 0.69833 0.2453 0.0
C483 C 0.92879 0.67199 0.24039 0.0
C484 C 0.91438 0.65288 0.2581 0.0
C485 C 0.89834 0.65953 0.2789 0.0
C486 C 0.94243 0.66396 0.21599 0.0
C487 C 0.96254 0.65004 0.21846 0.0
C488 C 0.9353 0.66953 0.19025 0.0
C489 C 0.91273 0.68234 0.18605 0.0
C490 C 0.88517 0.67095 0.19549 0.0
C491 C 0.86417 0.68352 0.19227 0.0
C492 C 0.87042 0.70738 0.17942 0.0
C493 C 0.89764 0.71865 0.16967 0.0
C494 C 0.91874 0.70617 0.17287 0.0
C495 C 0.98953 0.59791 0.12344 0.0
C496 C 1.00494 0.61393 0.10375 0.0
C497 C 0.97661 0.6085 0.14403 0.0
C498 C 0.97931 0.63572 0.14621 0.0
C499 C 0.99365 0.65175 0.12589 0.0
C500 C 1.00628 0.64094 0.10479 0.0
C501 C 0.9683 0.64704 0.17044 0.0
C502 C 0.94858 0.66142 0.16794 0.0
C503 C 0.97563 0.64176 0.19622 0.0
C504 C 0.99722 0.62778 0.20044 0.0
C505 C 0.02451 0.63728 0.18976 0.0
C506 C 0.04432 0.62329 0.19259 0.0
C507 C 0.03717 0.5999 0.20629 0.0
C508 C 0.01021 0.59051 0.21727 0.0
C509 C 0.99029 0.60439 0.21445 0.0
H510 H 0.05251 0.58906 0.2084 0.0
H511 H 0.85415 0.71712 0.17699 0.0
H512 H 0.42263 0.30588 0.22387 0.0
H513 H 0.44721 0.27474 0.20557 0.0
H514 H 0.36728 0.21394 0.19843 0.0
H515 H 0.3432 0.24453 0.21779 0.0
H516 H 0.4019 0.19202 0.21558 0.0
H517 H 0.41143 0.25339 0.14424 0.0
H518 H 0.42752 0.29759 0.12553 0.0
H519 H 0.51344 0.30354 0.14591 0.0
H520 H 0.49781 0.25955 0.16508 0.0
H521 H 0.4353 0.09988 0.12157 0.0
H522 H 0.4173 0.13357 0.14447 0.0
H523 H 0.50278 0.18086 0.16112 0.0
H524 H 0.52087 0.14693 0.13894 0.0
H525 H 0.47043 0.21123 0.14192 0.0
H526 H 0.46476 0.15203 0.2097 0.0
H527 H 0.45276 0.11098 0.23414 0.0
H528 H 0.36421 0.1032 0.22563 0.0
H529 H 0.37565 0.14395 0.20064 0.0
C530 C 0.41032 0.28595 0.21806 0.0
C531 C 0.38083 0.27785 0.22222 0.0
C532 C 0.42441 0.26802 0.20747 0.0
C533 C 0.40932 0.24165 0.20002 0.0
C534 C 0.37979 0.23389 0.2039 0.0
C535 C 0.36589 0.25155 0.2149 0.0
C536 C 0.42369 0.22169 0.18885 0.0
C537 C 0.41642 0.19621 0.19909 0.0
C538 C 0.44408 0.2271 0.16825 0.0
C539 C 0.45341 0.2533 0.15629 0.0
C540 C 0.43373 0.26418 0.14482 0.0
C541 C 0.44277 0.2892 0.13415 0.0
C542 C 0.47147 0.30339 0.13459 0.0
C543 C 0.49121 0.29255 0.14562 0.0
C544 C 0.48228 0.26758 0.15638 0.0
C545 C 0.45033 0.11733 0.13027 0.0
C546 C 0.47965 0.12042 0.12835 0.0
C547 C 0.43996 0.13666 0.14348 0.0
C548 C 0.45855 0.16003 0.15471 0.0
C549 C 0.48782 0.16319 0.15273 0.0
C550 C 0.49818 0.14359 0.14008 0.0
C551 C 0.44745 0.1813 0.16785 0.0
C552 C 0.45557 0.207 0.15816 0.0
C553 C 0.42815 0.17624 0.18922 0.0
C554 C 0.42108 0.15086 0.20286 0.0
C555 C 0.44271 0.14132 0.21257 0.0
C556 C 0.43601 0.11816 0.22665 0.0
C557 C 0.40774 0.10443 0.23134 0.0
C558 C 0.3861 0.1138 0.22189 0.0
C559 C 0.39269 0.13691 0.20773 0.0
H560 H 0.4026 0.08659 0.24239 0.0
H561 H 0.47842 0.32275 0.12633 0.0
H562 H 0.15297 0.89532 0.64846 0.0
H563 H 0.13595 0.93235 0.63626 0.0
H564 H 0.21937 0.97383 0.60876 0.0
H565 H 0.23659 0.93672 0.62087 0.0
H566 H 0.17339 1.0014 0.64418 0.0
H567 H 0.19577 0.9584 0.56065 0.0
H568 H 0.19753 0.9181 0.53517 0.0
H569 H 0.10914 0.88238 0.55001 0.0
H570 H 0.10699 0.92242 0.57576 0.0
H571 H 0.11193 0.0749 0.55772 0.0
H572 H 0.14284 0.05387 0.58046 0.0
H573 H 0.07363 0.98193 0.58423 0.0
H574 H 0.04301 1.00287 0.56095 0.0
H575 H 0.12111 0.97584 0.55951 0.0
H576 H 0.09587 1.01451 0.64064 0.0
H577 H 0.08895 0.0523 0.66718 0.0
H578 H 0.177 0.09422 0.65881 0.0
H579 H 0.18439 0.05664 0.63211 0.0
C580 C 0.16758 0.91239 0.63991 0.0
C581 C 0.19578 0.91332 0.6352 0.0
C582 C 0.1581 0.93357 0.63348 0.0
C583 C 0.17671 0.9556 0.62213 0.0
C584 C 0.20511 0.95702 0.61806 0.0
C585 C 0.21468 0.93583 0.62459 0.0
C586 C 0.16468 0.97434 0.61025 0.0
C587 C 0.1626 0.99648 0.62534 0.0
C588 C 0.15016 0.96706 0.58612 0.0
C589 C 0.15129 0.94326 0.57019 0.0
C590 C 0.17677 0.94188 0.55855 0.0
C591 C 0.17783 0.91911 0.54406 0.0
C592 C 0.15348 0.89767 0.54102 0.0
C593 C 0.12799 0.89899 0.55238 0.0
C594 C 0.12683 0.92172 0.56687 0.0
C595 C 0.10353 0.05472 0.56379 0.0
C596 C 0.07577 0.04001 0.5577 0.0
C597 C 0.12089 0.04292 0.57684 0.0
C598 C 0.11022 0.01658 0.58386 0.0
C599 C 0.08193 1.00234 0.5788 0.0
C600 C 0.06466 1.0141 0.56558 0.0
C601 C 0.12939 1.00282 0.59353 0.0
C602 C 0.13265 0.9815 0.57795 0.0
C603 C 0.14466 1.01082 0.61723 0.0
C604 C 0.14067 0.03285 0.63437 0.0
C605 C 0.11376 0.03179 0.64451 0.0
C606 C 0.10975 0.05316 0.65956 0.0
C607 C 0.13252 0.07567 0.66466 0.0
C608 C 0.1594 0.07675 0.65488 0.0
C609 C 0.16354 0.05539 0.63987 0.0
H610 H 0.12935 0.09226 0.67619 0.0
H611 H 0.15435 0.88004 0.52984 0.0
H612 H 0.72645 0.44728 0.93955 0.0
H613 H 0.77243 0.47681 0.95389 0.0
H614 H 0.8125 0.41743 0.92847 0.0
H615 H 0.76622 0.38739 0.9159 0.0
H616 H 0.83587 0.4362 0.97017 0.0
H617 H 0.8163 0.48152 0.89536 0.0
H618 H 0.78951 0.50364 0.86816 0.0
H619 H 0.79116 0.56047 0.93149 0.0
H620 H 0.81769 0.53853 0.95916 0.0
H621 H 0.97672 0.51874 0.98615 0.0
H622 H 0.93205 0.49202 0.96628 0.0
H623 H 0.89033 0.54818 0.9973 0.0
H624 H 0.93548 0.57581 0.01552 0.0
H625 H 0.86872 0.53159 0.95178 0.0
H626 H 0.8859 0.48436 0.02692 0.0
H627 H 0.917 0.46522 0.05233 0.0
H628 H 0.92201 0.41352 0.98612 0.0
H629 H 0.89107 0.4325 0.96029 0.0
C630 C 0.74513 0.44062 0.93695 0.0
C631 C 0.74259 0.41492 0.92659 0.0
C632 C 0.77164 0.45767 0.94494 0.0
C633 C 0.79661 0.4499 0.94196 0.0
C634 C 0.79394 0.42424 0.93123 0.0
C635 C 0.76737 0.40698 0.92392 0.0
C636 C 0.8252 0.46773 0.95099 0.0
C637 C 0.84299 0.45695 0.96566 0.0
C638 C 0.83495 0.49519 0.94596 0.0
C639 C 0.81872 0.5082 0.92942 0.0
C640 C 0.81074 0.4986 0.90355 0.0
C641 C 0.79565 0.51114 0.88804 0.0
C642 C 0.78856 0.53339 0.89812 0.0
C643 C 0.79661 0.5432 0.92372 0.0
C644 C 0.8117 0.53074 0.93931 0.0
C645 C 0.95797 0.52529 0.98885 0.0
C646 C 0.95961 0.54918 1.00284 0.0
C647 C 0.93228 0.50993 0.97751 0.0
C648 C 0.9072 0.51744 0.98081 0.0
C649 C 0.90905 0.54162 0.99444 0.0
C650 C 0.93492 0.55738 1.00507 0.0
C651 C 0.87902 0.49992 0.97076 0.0
C652 C 0.8614 0.51078 0.95607 0.0
C653 C 0.86939 0.47255 0.97562 0.0
C654 C 0.88622 0.45982 0.99172 0.0
C655 C 0.89351 0.46878 0.01787 0.0
C656 C 0.91116 0.45803 0.03231 0.0
C657 C 0.92148 0.43817 0.02084 0.0
C658 C 0.91395 0.42887 0.99499 0.0
C659 C 0.89628 0.43954 0.98048 0.0
H660 H 0.9353 0.42999 0.03199 0.0
H661 H 0.77689 0.54307 0.88607 0.0
H662 H 0.77355 0.69223 0.39832 0.0
H663 H 0.7334 0.67817 0.42854 0.0
H664 H 0.79114 0.6812 0.49259 0.0
H665 H 0.83124 0.69494 0.46239 0.0
H666 H 0.7469 0.63895 0.49577 0.0
H667 H 0.76091 0.73074 0.48413 0.0
H668 H 0.76537 0.77213 0.46157 0.0
H669 H 0.6807 0.74081 0.43156 0.0
H670 H 0.6759 0.69901 0.45351 0.0
H671 H 0.64846 0.64232 0.6007 0.0
H672 H 0.68924 0.65351 0.57072 0.0
H673 H 0.63262 0.64239 0.50432 0.0
H674 H 0.59195 0.63094 0.53406 0.0
H675 H 0.67669 0.68962 0.50355 0.0
H676 H 0.66738 0.59535 0.50948 0.0
H677 H 0.6643 0.55417 0.53208 0.0
H678 H 0.73984 0.59321 0.57578 0.0
H679 H 0.74407 0.63433 0.55258 0.0
C680 C 0.77762 0.68923 0.41871 0.0
C681 C 0.80558 0.69455 0.42793 0.0
C682 C 0.75467 0.68161 0.43607 0.0
C683 C 0.7592 0.67909 0.46301 0.0
C684 C 0.78704 0.68315 0.47197 0.0
C685 C 0.80996 0.69093 0.45468 0.0
C686 C 0.73503 0.67224 0.48191 0.0
C687 C 0.73181 0.65031 0.49762 0.0
C688 C 0.71497 0.68677 0.48427 0.0
C689 C 0.71821 0.71153 0.47016 0.0
C690 C 0.74338 0.73249 0.47238 0.0
C691 C 0.74594 0.75608 0.45978 0.0
C692 C 0.72337 0.75906 0.44506 0.0
C693 C 0.6982 0.73845 0.44289 0.0
C694 C 0.69557 0.71479 0.4554 0.0
C695 C 0.64477 0.64212 0.5797 0.0
C696 C 0.61704 0.63573 0.56972 0.0
C697 C 0.66805 0.64843 0.56258 0.0
C698 C 0.66399 0.64867 0.53523 0.0
C699 C 0.63629 0.64232 0.52531 0.0
C700 C 0.61306 0.63572 0.54234 0.0
C701 C 0.68855 0.65625 0.51694 0.0
C702 C 0.69186 0.67836 0.50152 0.0
C703 C 0.70884 0.64213 0.51494 0.0
C704 C 0.70584 0.61789 0.52959 0.0
C705 C 0.68318 0.59517 0.52408 0.0
C706 C 0.68126 0.57185 0.53693 0.0
C707 C 0.70154 0.57119 0.55568 0.0
C708 C 0.72405 0.59378 0.56136 0.0
C709 C 0.72636 0.61703 0.54821 0.0
H710 H 0.69993 0.55311 0.56565 0.0
H711 H 0.72535 0.77738 0.43541 0.0
H712 H 0.30889 0.3922 0.17558 0.0
H713 H 0.27667 0.41474 0.15711 0.0
H714 H 0.27677 0.45729 0.23141 0.0
H715 H 0.30906 0.43492 0.24976 0.0
H716 H 0.22473 0.44304 0.21168 0.0
H717 H 0.31528 0.48795 0.17975 0.0
H718 H 0.36174 0.49448 0.15838 0.0
H719 H 0.32076 0.46194 0.08527 0.0
H720 H 0.27401 0.45489 0.1063 0.0
H721 H 0.15593 0.53122 0.1547 0.0
H722 H 0.18955 0.51353 0.17773 0.0
H723 H 0.20131 0.47086 0.10635 0.0
H724 H 0.16862 0.48905 0.08325 0.0
H725 H 0.24972 0.48914 0.12793 0.0
H726 H 0.15717 0.44325 0.16473 0.0
H727 H 0.11299 0.44157 0.18872 0.0
H728 H 0.16109 0.48171 0.25596 0.0
H729 H 0.20554 0.48391 0.23224 0.0
C730 C 0.30161 0.40598 0.18809 0.0
C731 C 0.31144 0.41157 0.2142 0.0
C732 C 0.28342 0.41916 0.17744 0.0
C733 C 0.27437 0.43814 0.19266 0.0
C734 C 0.28333 0.44291 0.21909 0.0
C735 C 0.30181 0.43004 0.22961 0.0
C736 C 0.25592 0.45315 0.18097 0.0
C737 C 0.23038 0.45329 0.19346 0.0
C738 C 0.26309 0.46691 0.15733 0.0
C739 C 0.29113 0.47058 0.14469 0.0
C740 C 0.31616 0.4819 0.15919 0.0
C741 C 0.34256 0.48577 0.14712 0.0
C742 C 0.3442 0.47855 0.12051 0.0
C743 C 0.31945 0.46747 0.1059 0.0
C744 C 0.293 0.46354 0.11788 0.0
C745 C 0.16562 0.518 0.14393 0.0
C746 C 0.15936 0.51164 0.11699 0.0
C747 C 0.18486 0.50773 0.1572 0.0
C748 C 0.1979 0.49025 0.14411 0.0
C749 C 0.19182 0.48421 0.11716 0.0
C750 C 0.17299 0.49473 0.10386 0.0
C751 C 0.21782 0.47807 0.15796 0.0
C752 C 0.2439 0.4787 0.14602 0.0
C753 C 0.21137 0.46549 0.1824 0.0
C754 C 0.18464 0.46395 0.19663 0.0
C755 C 0.1583 0.45183 0.18458 0.0
C756 C 0.13322 0.45078 0.19813 0.0
C757 C 0.13423 0.46158 0.22382 0.0
C758 C 0.16033 0.47339 0.23605 0.0
C759 C 0.18546 0.47453 0.22257 0.0
H760 H 0.11479 0.46075 0.23427 0.0
H761 H 0.36465 0.48161 0.11118 0.0
H762 H 0.6658 0.30184 0.90075 0.0
H763 H 0.6464 0.25981 0.92226 0.0
H764 H 0.64524 0.30219 0.99652 0.0
H765 H 0.66689 0.34406 0.9752 0.0
H766 H 0.65492 0.26104 1.009 0.0
H767 H 0.58216 0.26948 0.94923 0.0
H768 H 0.56278 0.27484 0.90587 0.0
H769 H 0.58172 0.20493 0.87526 0.0
H770 H 0.60145 0.19932 0.91834 0.0
H771 H 0.55776 0.14858 0.07107 0.0
H772 H 0.58481 0.19091 0.05312 0.0
H773 H 0.58443 0.15205 0.97662 0.0
H774 H 0.55548 0.11064 0.99421 0.0
H775 H 0.57561 0.19242 0.96622 0.0
H776 H 0.6479 0.1832 0.02615 0.0
H777 H 0.66901 0.17869 0.06892 0.0
H778 H 0.65208 0.24964 0.09918 0.0
H779 H 0.63062 0.25442 0.05671 0.0
C780 C 0.66157 0.30218 0.92171 0.0
C781 C 0.66791 0.32656 0.9361 0.0
C782 C 0.64999 0.27795 0.93412 0.0
C783 C 0.64298 0.2771 0.96125 0.0
C784 C 0.64997 0.30159 0.97568 0.0
C785 C 0.66239 0.32578 0.9634 0.0
C786 C 0.62837 0.25109 0.9745 0.0
C787 C 0.63735 0.24622 0.99963 0.0
C788 C 0.60565 0.23087 0.96265 0.0
C789 C 0.59345 0.23411 0.93692 0.0
C790 C 0.58225 0.25531 0.93321 0.0
C791 C 0.57122 0.25839 0.90869 0.0
C792 C 0.57107 0.24027 0.88782 0.0
C793 C 0.58186 0.21897 0.89144 0.0
C794 C 0.59294 0.21581 0.9159 0.0
C795 C 0.56402 0.149 0.05056 0.0
C796 C 0.55465 0.12588 0.03424 0.0
C797 C 0.57975 0.17344 0.04013 0.0
C798 C 0.58746 0.17549 0.01314 0.0
C799 C 0.57894 0.15188 0.99732 0.0
C800 C 0.56253 0.12782 1.00752 0.0
C801 C 0.60242 0.2019 1.00064 0.0
C802 C 0.59332 0.20701 0.97564 0.0
C803 C 0.62504 0.22222 0.01265 0.0
C804 C 0.63735 0.21897 0.03835 0.0
C805 C 0.64844 0.19769 0.04201 0.0
C806 C 0.66053 0.19513 0.06618 0.0
C807 C 0.6618 0.21381 0.08678 0.0
C808 C 0.65103 0.23514 0.08324 0.0
C809 C 0.63891 0.23778 0.05912 0.0
H810 H 0.6712 0.21181 0.10545 0.0
H811 H 0.56255 0.2427 0.86885 0.0
H812 H 0.84637 0.77917 0.43906 0.0
H813 H 0.86944 0.82193 0.45847 0.0
H814 H 0.93973 0.82988 0.40517 0.0
H815 H 0.91849 0.7843 0.38817 0.0
H816 H 0.95974 0.85161 0.44931 0.0
H817 H 0.87896 0.86075 0.39971 0.0
H818 H 0.82817 0.84836 0.38828 0.0
H819 H 0.80778 0.86411 0.46853 0.0
H820 H 0.85836 0.87635 0.48047 0.0
H821 H 1.00398 0.99494 0.46855 0.0
H822 H 0.9859 0.94964 0.4495 0.0
H823 H 0.92865 0.92864 0.51494 0.0
H824 H 0.9473 0.97349 0.53451 0.0
H825 H 0.90306 0.91457 0.46386 0.0
H826 H 0.97862 0.90484 0.515 0.0
H827 H 0.02696 0.91242 0.53214 0.0
H828 H 0.05524 0.89464 0.45524 0.0
H829 H 1.00715 0.88748 0.43747 0.0
C830 C 0.86723 0.78921 0.43181 0.0
C831 C 0.88075 0.77728 0.41235 0.0
C832 C 0.88009 0.8145 0.44253 0.0
C833 C 0.90603 0.82999 0.43284 0.0
C834 C 0.91955 0.8186 0.41299 0.0
C835 C 0.90718 0.79252 0.40298 0.0
C836 C 0.9189 0.85772 0.44387 0.0
C837 C 0.94748 0.86557 0.45181 0.0
C838 C 0.90274 0.87582 0.44849 0.0
C839 C 0.87244 0.86941 0.44097 0.0
C840 C 0.86363 0.8616 0.41489 0.0
C841 C 0.83488 0.85456 0.40834 0.0
C842 C 0.81477 0.85542 0.42767 0.0
C843 C 0.82337 0.86347 0.45357 0.0
C844 C 0.85208 0.87053 0.46022 0.0
C845 C 0.98748 0.98067 0.47882 0.0
C846 C 0.97693 0.9879 0.50295 0.0
C847 C 0.97735 0.95473 0.46803 0.0
C848 C 0.956 0.93564 0.48083 0.0
C849 C 0.94519 0.94294 0.50474 0.0
C850 C 0.95583 0.96863 0.51587 0.0
C851 C 0.94389 0.90848 0.46869 0.0
C852 C 0.91545 0.90077 0.46075 0.0
C853 C 0.96003 0.89045 0.46449 0.0
C854 C 0.98934 0.89615 0.47476 0.0
C855 C 0.99524 0.90308 0.50159 0.0
C856 C 0.02259 0.90716 0.51147 0.0
C857 C 0.0442 0.90415 0.49477 0.0
C858 C 0.03851 0.89709 0.46813 0.0
C859 C 0.01121 0.89306 0.45814 0.0
H860 H 0.06532 0.90717 0.50249 0.0
H861 H 0.79252 0.84987 0.42257 0.0
H862 H 0.30555 0.83558 0.64462 0.0
H863 H 0.33868 0.81361 0.62805 0.0
H864 H 0.40465 0.86637 0.6761 0.0
H865 H 0.37341 0.89251 0.68809 0.0
H866 H 0.42709 0.85741 0.63653 0.0
H867 H 0.36014 0.7976 0.6919 0.0
H868 H 0.31269 0.77159 0.70623 0.0
H869 H 0.29938 0.72825 0.63179 0.0
H870 H 0.34662 0.75419 0.61689 0.0
H871 H 0.50634 0.76863 0.66191 0.0
H872 H 0.47702 0.79852 0.66192 0.0
H873 H 0.43358 0.75769 0.59222 0.0
H874 H 0.46335 0.7278 0.59171 0.0
H875 H 0.39891 0.75947 0.63657 0.0
H876 H 0.47431 0.82047 0.5879 0.0
H877 H 0.52367 0.84728 0.581 0.0
H878 H 0.52332 0.88793 0.65594 0.0
H879 H 0.47412 0.86121 0.66339 0.0
C880 C 0.32733 0.84367 0.65084 0.0
C881 C 0.33642 0.86621 0.66796 0.0
C882 C 0.34613 0.83024 0.64194 0.0
C883 C 0.37383 0.83758 0.65164 0.0
C884 C 0.38321 0.86012 0.66847 0.0
C885 C 0.36498 0.87478 0.67585 0.0
C886 C 0.39326 0.82208 0.64405 0.0
C887 C 0.42091 0.836 0.63696 0.0
C888 C 0.38505 0.79406 0.64396 0.0
C889 C 0.35684 0.77803 0.65319 0.0
C890 C 0.34706 0.78259 0.67855 0.0
C891 C 0.3202 0.76786 0.68678 0.0
C892 C 0.30301 0.74834 0.66991 0.0
C893 C 0.31271 0.7434 0.64482 0.0
C894 C 0.33953 0.75809 0.63649 0.0
C895 C 0.49132 0.76662 0.64599 0.0
C896 C 0.48694 0.74587 0.62688 0.0
C897 C 0.47456 0.78364 0.64609 0.0
C898 C 0.45337 0.78018 0.62702 0.0
C899 C 0.44998 0.7605 0.60701 0.0
C900 C 0.46685 0.7435 0.60682 0.0
C901 C 0.43267 0.79502 0.63011 0.0
C902 C 0.40477 0.78088 0.63616 0.0
C903 C 0.44098 0.82286 0.63077 0.0
C904 C 0.47059 0.83879 0.6262 0.0
C905 C 0.48484 0.83501 0.60296 0.0
C906 C 0.51277 0.85022 0.59894 0.0
C907 C 0.52662 0.86928 0.61802 0.0
C908 C 0.51258 0.87319 0.64116 0.0
C909 C 0.48467 0.85806 0.64526 0.0
H910 H 0.54824 0.88104 0.61485 0.0
H911 H 0.2822 0.737 0.67628 0.0
H912 H 0.72783 0.86013 0.80414 0.0
H913 H 0.75541 0.87905 0.76572 0.0
H914 H 0.7704 0.80411 0.74604 0.0
H915 H 0.74265 0.78503 0.7843 0.0
H916 H 0.81879 0.8419 0.74707 0.0
H917 H 0.731 0.8293 0.7048 0.0
H918 H 0.68184 0.83045 0.69892 0.0
H919 H 0.70925 0.91528 0.70576 0.0
H920 H 0.75855 0.91465 0.71198 0.0
H921 H 0.90489 0.90729 0.6401 0.0
H922 H 0.86796 0.87542 0.66436 0.0
H923 H 0.8368 0.93896 0.6952 0.0
H924 H 0.87314 0.97058 0.6709 0.0
H925 H 0.79379 0.89876 0.68193 0.0
H926 H 0.88214 0.90851 0.72977 0.0
H927 H 0.93025 0.90456 0.73595 0.0
H928 H 0.90015 0.82116 0.71729 0.0
H929 H 0.85195 0.82469 0.71059 0.0
C930 C 0.73636 0.84748 0.79128 0.0
C931 C 0.73334 0.82116 0.79761 0.0
C932 C 0.7522 0.85833 0.76925 0.0
C933 C 0.76518 0.84308 0.75291 0.0
C934 C 0.76088 0.8164 0.7584 0.0
C935 C 0.74504 0.80554 0.78037 0.0
C936 C 0.78529 0.85568 0.73179 0.0
C937 C 0.81314 0.85392 0.73246 0.0
C938 C 0.7781 0.87138 0.71267 0.0
C939 C 0.74846 0.87191 0.70906 0.0
C940 C 0.72652 0.8482 0.70526 0.0
C941 C 0.69863 0.84876 0.70181 0.0
C942 C 0.69242 0.87292 0.70202 0.0
C943 C 0.7141 0.89658 0.70561 0.0
C944 C 0.74203 0.89613 0.70905 0.0
C945 C 0.89014 0.91444 0.65206 0.0
C946 C 0.89204 0.94158 0.65344 0.0
C947 C 0.86902 0.89617 0.66598 0.0
C948 C 0.8496 0.9047 0.68195 0.0
C949 C 0.85131 0.93171 0.68299 0.0
C950 C 0.87215 0.94986 0.66896 0.0
C951 C 0.82767 0.88603 0.69805 0.0
C952 C 0.79936 0.88649 0.6963 0.0
C953 C 0.83439 0.86884 0.71597 0.0
C954 C 0.86355 0.86696 0.71926 0.0
C955 C 0.88586 0.8894 0.72666 0.0
C956 C 0.91313 0.88722 0.73032 0.0
C957 C 0.91828 0.86265 0.72691 0.0
C958 C 0.89616 0.8402 0.71982 0.0
C959 C 0.86888 0.84228 0.71606 0.0
H960 H 0.93938 0.86099 0.72984 0.0
H961 H 0.67082 0.87332 0.69935 0.0
H962 H 0.75818 0.21825 0.40578 0.0
H963 H 0.7336 0.20177 0.36416 0.0
H964 H 0.65425 0.17606 0.40569 0.0
H965 H 0.67878 0.19149 0.44744 0.0
H966 H 0.66108 0.1392 0.36796 0.0
H967 H 0.6709 0.23312 0.37546 0.0
H968 H 0.69919 0.27964 0.38266 0.0
H969 H 0.74921 0.27331 0.31439 0.0
H970 H 0.7215 0.2266 0.30704 0.0
H971 H 0.57708 0.11867 0.25078 0.0
H972 H 0.59529 0.13429 0.29524 0.0
H973 H 0.67759 0.17145 0.26237 0.0
H974 H 0.65945 0.15659 0.21837 0.0
H975 H 0.66566 0.20288 0.2978 0.0
H976 H 0.6596 0.11012 0.29033 0.0
H977 H 0.63551 0.06249 0.2835 0.0
H978 H 0.58282 0.06495 0.35078 0.0
H979 H 0.60621 0.11275 0.3577 0.0
C980 C 0.7355 0.20907 0.40599 0.0
C981 C 0.72025 0.20652 0.42971 0.0
C982 C 0.72154 0.1997 0.38229 0.0
C983 C 0.69215 0.188 0.38202 0.0
C984 C 0.67694 0.18514 0.40565 0.0
C985 C 0.6909 0.19436 0.42935 0.0
C986 C 0.67702 0.17972 0.35693 0.0
C987 C 0.66166 0.15309 0.35267 0.0
C988 C 0.6784 0.19792 0.33705 0.0
C989 C 0.6942 0.22634 0.34077 0.0
C990 C 0.68795 0.24164 0.36201 0.0
C991 C 0.70391 0.26803 0.36614 0.0
C992 C 0.726 0.27942 0.34901 0.0
C993 C 0.73209 0.26447 0.32764 0.0
C994 C 0.71624 0.23804 0.32346 0.0
C995 C 0.59897 0.13034 0.25322 0.0
C996 C 0.61691 0.13661 0.23131 0.0
C997 C 0.60934 0.13916 0.27849 0.0
C998 C 0.63784 0.15381 0.28201 0.0
C999 C 0.6555 0.16032 0.26004 0.0
C1000 C 0.64512 0.15187 0.23493 0.0
C1001 C 0.64993 0.16213 0.30845 0.0
C1002 C 0.66472 0.1889 0.31308 0.0
C1003 C 0.64839 0.1439 0.32845 0.0
C1004 C 0.63439 0.11512 0.32431 0.0
C1005 C 0.64269 0.10058 0.30352 0.0
C1006 C 0.62917 0.07353 0.29964 0.0
C1007 C 0.60757 0.06072 0.31663 0.0
C1008 C 0.59949 0.07492 0.33758 0.0
C1009 C 0.61285 0.10199 0.34147 0.0
H1010 H 0.59716 0.03978 0.31362 0.0
H1011 H 0.73838 0.29984 0.35228 0.0
H1012 H 0.43567 0.74049 0.35709 0.0
H1013 H 0.45472 0.73199 0.3994 0.0
H1014 H 0.39145 0.65613 0.40049 0.0
H1015 H 0.37163 0.66544 0.35959 0.0
H1016 H 0.39885 0.66875 0.44675 0.0
H1017 H 0.47019 0.67232 0.37952 0.0
H1018 H 0.50452 0.693 0.34544 0.0
H1019 H 0.54797 0.7537 0.40173 0.0
H1020 H 0.5137 0.73353 0.43606 0.0
H1021 H 0.47672 0.59629 0.51883 0.0
H1022 H 0.45522 0.61477 0.48375 0.0
H1023 H 0.49739 0.69352 0.51392 0.0
H1024 H 0.51801 0.67504 0.54984 0.0
H1025 H 0.50228 0.68374 0.45522 0.0
H1026 H 0.43308 0.67685 0.523 0.0
H1027 H 0.39776 0.65673 0.55646 0.0
H1028 H 0.3504 0.60072 0.49805 0.0
H1029 H 0.3857 0.62022 0.46429 0.0
C1030 C 0.42519 0.72246 0.36689 0.0
C1031 C 0.40177 0.70386 0.35473 0.0
C1032 C 0.4366 0.71718 0.39097 0.0
C1033 C 0.42548 0.69279 0.40341 0.0
C1034 C 0.40104 0.67504 0.3919 0.0
C1035 C 0.38945 0.68049 0.36827 0.0
C1036 C 0.43903 0.68503 0.42776 0.0
C1037 C 0.42149 0.67182 0.44812 0.0
C1038 C 0.46876 0.68941 0.43089 0.0
C1039 C 0.48919 0.70161 0.41023 0.0
C1040 C 0.48695 0.69018 0.38456 0.0
C1041 C 0.50641 0.7018 0.36521 0.0
C1042 C 0.52835 0.7247 0.37139 0.0
C1043 C 0.53093 0.736 0.39695 0.0
C1044 C 0.5115 0.72449 0.41635 0.0
C1045 C 0.48127 0.61757 0.51823 0.0
C1046 C 0.49914 0.63404 0.53748 0.0
C1047 C 0.46889 0.62817 0.49802 0.0
C1048 C 0.47452 0.6557 0.4958 0.0
C1049 C 0.49252 0.67225 0.51492 0.0
C1050 C 0.50425 0.66161 0.53564 0.0
C1051 C 0.46193 0.66693 0.47339 0.0
C1052 C 0.47965 0.68072 0.45357 0.0
C1053 C 0.43237 0.66279 0.47055 0.0
C1054 C 0.41218 0.64988 0.49115 0.0
C1055 C 0.4154 0.65997 0.51736 0.0
C1056 C 0.39529 0.64877 0.53636 0.0
C1057 C 0.37177 0.62758 0.52933 0.0
C1058 C 0.36857 0.61722 0.50342 0.0
C1059 C 0.38863 0.62832 0.48436 0.0
H1060 H 0.35599 0.61921 0.54397 0.0
H1061 H 0.54341 0.73365 0.35639 0.0
H1062 H 0.1867 0.49169 0.80099 0.0
H1063 H 0.17479 0.52478 0.83091 0.0
H1064 H 0.09049 0.47207 0.83963 0.0
H1065 H 0.10194 0.44014 0.80892 0.0
H1066 H 0.08453 0.51655 0.84307 0.0
H1067 H 0.15355 0.48131 0.88436 0.0
H1068 H 0.19999 0.47314 0.88906 0.0
H1069 H 0.24095 0.55678 0.89264 0.0
H1070 H 0.19479 0.56543 0.88754 0.0
H1071 H 0.04439 0.54997 0.97199 0.0
H1072 H 0.06188 0.5278 0.93498 0.0
H1073 H 0.13045 0.59848 0.92374 0.0
H1074 H 0.11263 0.62097 0.96047 0.0
H1075 H 0.14788 0.55133 0.91957 0.0
H1076 H 0.07721 0.58547 0.88295 0.0
H1077 H 0.03019 0.59265 0.87973 0.0
H1078 H 0.99163 0.50897 0.86905 0.0
H1079 H 0.0384 0.50125 0.87262 0.0
C1080 C 0.16535 0.4877 0.80856 0.0
C1081 C 0.14523 0.46326 0.80238 0.0
C1082 C 0.15864 0.50642 0.82622 0.0
C1083 C 0.13185 0.50089 0.83859 0.0
C1084 C 0.11136 0.47718 0.83085 0.0
C1085 C 0.1179 0.4588 0.81306 0.0
C1086 C 0.12492 0.51867 0.86028 0.0
C1087 C 0.09844 0.52381 0.85984 0.0
C1088 C 0.14306 0.52922 0.88219 0.0
C1089 C 0.17077 0.52399 0.88522 0.0
C1090 C 0.17249 0.49794 0.88596 0.0
C1091 C 0.19876 0.49323 0.8887 0.0
C1092 C 0.22341 0.51442 0.89106 0.0
C1093 C 0.22185 0.54038 0.89073 0.0
C1094 C 0.19565 0.5452 0.88789 0.0
C1095 C 0.06331 0.56079 0.9618 0.0
C1096 C 0.07702 0.58735 0.96928 0.0
C1097 C 0.07328 0.54808 0.94049 0.0
C1098 C 0.09748 0.56139 0.92622 0.0
C1099 C 0.11176 0.58765 0.93425 0.0
C1100 C 0.1015 0.60054 0.95529 0.0
C1101 C 0.10722 0.54807 0.9026 0.0
C1102 C 0.13415 0.544 0.90269 0.0
C1103 C 0.08942 0.53818 0.8805 0.0
C1104 C 0.06128 0.54277 0.87831 0.0
C1105 C 0.05868 0.56858 0.88015 0.0
C1106 C 0.03208 0.57275 0.87822 0.0
C1107 C 1.00793 0.55128 0.87426 0.0
C1108 C 0.01035 0.52558 0.87216 0.0
C1109 C 0.0369 0.5213 0.87412 0.0
H1110 H 0.98735 0.55455 0.87276 0.0
H1111 H 0.24372 0.51074 0.89321 0.0
H1112 H 0.64396 0.84728 0.9391 0.0
H1113 H 0.62998 0.8795 0.96859 0.0
H1114 H 0.57319 0.89001 0.9088 0.0
H1115 H 0.58757 0.85874 0.87937 0.0
H1116 H 0.5988 0.93537 0.92777 0.0
H1117 H 0.54905 0.85549 0.9663 0.0
H1118 H 0.54099 0.81212 0.98603 0.0
H1119 H 0.59648 0.84848 0.05023 0.0
H1120 H 0.6051 0.8921 0.03073 0.0
H1121 H 0.51744 1.00224 1.00428 0.0
H1122 H 0.53219 0.96788 0.97961 0.0
H1123 H 0.59832 0.974 0.03635 0.0
H1124 H 0.58365 1.00874 0.06132 0.0
H1125 H 0.56886 0.92014 0.02067 0.0
H1126 H 0.61528 1.00206 0.97695 0.0
H1127 H 0.61622 0.04289 0.95464 0.0
H1128 H 0.55664 0.99757 0.89707 0.0
H1129 H 0.55521 0.95652 0.91916 0.0
C1130 C 0.62877 0.85673 0.93218 0.0
C1131 C 0.61699 0.8503 0.90675 0.0
C1132 C 0.62042 0.87493 0.94922 0.0
C1133 C 0.60018 0.88725 0.94124 0.0
C1134 C 0.58878 0.881 0.91571 0.0
C1135 C 0.59701 0.86291 0.89882 0.0
C1136 C 0.59159 0.90749 0.95865 0.0
C1137 C 0.59203 0.93174 0.94801 0.0
C1138 C 0.58271 0.90324 0.98523 0.0
C1139 C 0.57805 0.87703 0.99686 0.0
C1140 C 0.5598 0.85421 0.98448 0.0
C1141 C 0.55505 0.82959 0.99566 0.0
C1142 C 0.5683 0.82753 0.01932 0.0
C1143 C 0.58628 0.8501 0.03187 0.0
C1144 C 0.59109 0.87479 0.02078 0.0
C1145 C 0.53525 0.99649 1.0116 0.0
C1146 C 0.54952 1.00875 0.03479 0.0
C1147 C 0.54368 0.97668 0.99737 0.0
C1148 C 0.5666 0.96825 1.00582 0.0
C1149 C 0.58063 0.98005 0.02924 0.0
C1150 C 0.57235 1.00016 0.04342 0.0
C1151 C 0.57628 0.94787 0.98966 0.0
C1152 C 0.57591 0.92366 1.00051 0.0
C1153 C 0.58429 0.95164 0.96289 0.0
C1154 C 0.58501 0.97631 0.94979 0.0
C1155 C 0.60225 1.00086 0.95964 0.0
C1156 C 0.60291 0.02402 0.947 0.0
C1157 C 0.58647 0.02283 0.92448 0.0
C1158 C 0.56936 0.99847 0.91452 0.0
C1159 C 0.56865 0.97526 0.92705 0.0
H1160 H 0.58702 0.04079 0.91472 0.0
H1161 H 0.56458 0.80845 0.02796 0.0
H1162 H 0.81989 0.23204 0.51281 0.0
H1163 H 0.85761 0.21153 0.521 0.0
H1164 H 0.80973 0.1404 0.47853 0.0
H1165 H 0.77188 0.16026 0.47124 0.0
H1166 H 0.83145 0.12958 0.52286 0.0
H1167 H 0.86328 0.18712 0.44943 0.0
H1168 H 0.87708 0.22996 0.42794 0.0
H1169 H 0.94257 0.26096 0.48565 0.0
H1170 H 0.92885 0.21842 0.50772 0.0
H1171 H 0.93436 0.06371 0.5027 0.0
H1172 H 0.90253 0.08831 0.48749 0.0
H1173 H 0.94797 0.15634 0.53569 0.0
H1174 H 0.97917 0.13171 0.55119 0.0
H1175 H 0.92839 0.1694 0.48867 0.0
H1176 H 0.8974 0.11292 0.56207 0.0
H1177 H 0.88383 0.07095 0.58504 0.0
H1178 H 0.81635 0.03874 0.52956 0.0
H1179 H 0.83 0.08031 0.50582 0.0
C1180 C 0.81751 0.21198 0.50548 0.0
C1181 C 0.79344 0.19778 0.49103 0.0
C1182 C 0.83897 0.20041 0.51 0.0
C1183 C 0.83642 0.1747 0.49996 0.0
C1184 C 0.81202 0.16033 0.48624 0.0
C1185 C 0.79063 0.17176 0.48187 0.0
C1186 C 0.8592 0.1625 0.50314 0.0
C1187 C 0.85258 0.13809 0.51513 0.0
C1188 C 0.88678 0.17412 0.49356 0.0
C1189 C 0.89483 0.19971 0.48038 0.0
C1190 C 0.88044 0.20316 0.45767 0.0
C1191 C 0.88828 0.22737 0.44536 0.0
C1192 C 0.91064 0.24819 0.45546 0.0
C1193 C 0.92522 0.24484 0.47788 0.0
C1194 C 0.91742 0.22069 0.49029 0.0
C1195 C 0.93796 0.08421 0.50918 0.0
C1196 C 0.95849 0.096 0.52825 0.0
C1197 C 0.91991 0.09812 0.50063 0.0
C1198 C 0.92287 0.1238 0.51096 0.0
C1199 C 0.94547 0.13645 0.52773 0.0
C1200 C 0.96307 0.12244 0.53662 0.0
C1201 C 0.90038 0.13622 0.50772 0.0
C1202 C 0.90715 0.16078 0.49609 0.0
C1203 C 0.87294 0.1248 0.51779 0.0
C1204 C 0.86508 0.0996 0.53185 0.0
C1205 C 0.87996 0.09676 0.5545 0.0
C1206 C 0.8722 0.07305 0.56771 0.0
C1207 C 0.84932 0.05214 0.5587 0.0
C1208 C 0.83415 0.0549 0.53645 0.0
C1209 C 0.84193 0.07852 0.52308 0.0
H1210 H 0.84328 0.03384 0.56901 0.0
H1211 H 0.91671 0.2669 0.44588 0.0
H1212 H 0.32699 0.7229 0.18813 0.0
H1213 H 0.2872 0.7046 0.1579 0.0
H1214 H 0.22897 0.71183 0.21965 0.0
H1215 H 0.26909 0.72916 0.25034 0.0
H1216 H 0.20524 0.66837 0.19149 0.0
H1217 H 0.24263 0.76005 0.1607 0.0
H1218 H 0.27923 0.79889 0.14515 0.0
H1219 H 0.30861 0.74926 0.08956 0.0
H1220 H 0.27102 0.71027 0.10395 0.0
H1221 H 0.08893 0.66499 0.10565 0.0
H1222 H 0.1289 0.68144 0.1366 0.0
H1223 H 0.18445 0.65967 0.07973 0.0
H1224 H 0.14444 0.64247 0.04927 0.0
H1225 H 0.20905 0.70939 0.10491 0.0
H1226 H 0.16377 0.6211 0.12683 0.0
H1227 H 0.12385 0.5828 0.13802 0.0
H1228 H 0.11002 0.62357 0.20949 0.0
H1229 H 0.14953 0.66243 0.19843 0.0
C1230 C 0.30567 0.7203 0.19534 0.0
C1231 C 0.30128 0.72745 0.22169 0.0
C1232 C 0.28279 0.71016 0.17787 0.0
C1233 C 0.2547 0.70745 0.18592 0.0
C1234 C 0.25023 0.7138 0.2126 0.0
C1235 C 0.27321 0.72368 0.23024 0.0
C1236 C 0.23031 0.69833 0.16651 0.0
C1237 C 0.20601 0.67771 0.17278 0.0
C1238 C 0.23109 0.70949 0.14144 0.0
C1239 C 0.25448 0.73236 0.13368 0.0
C1240 C 0.2571 0.75746 0.14534 0.0
C1241 C 0.2779 0.7795 0.13661 0.0
C1242 C 0.29662 0.77654 0.11668 0.0
C1243 C 0.29422 0.75153 0.1051 0.0
C1244 C 0.27299 0.7295 0.11333 0.0
C1245 C 0.10983 0.66439 0.09952 0.0
C1246 C 0.11361 0.65287 0.0748 0.0
C1247 C 0.13263 0.67347 0.11736 0.0
C1248 C 0.15982 0.67164 0.11071 0.0
C1249 C 0.16381 0.66132 0.08548 0.0
C1250 C 0.14094 0.65165 0.06796 0.0
C1251 C 0.18397 0.67991 0.1301 0.0
C1252 C 0.20824 0.70017 0.12371 0.0
C1253 C 0.18316 0.66813 0.15481 0.0
C1254 C 0.15941 0.64484 0.16164 0.0
C1255 C 0.15203 0.62205 0.1448 0.0
C1256 C 0.12949 0.60021 0.15112 0.0
C1257 C 0.11432 0.6008 0.17439 0.0
C1258 C 0.12175 0.62319 0.19143 0.0
C1259 C 0.1442 0.64514 0.18513 0.0
H1260 H 0.09687 0.58387 0.17927 0.0
H1261 H 0.31282 0.79365 0.11006 0.0
H1262 H 0.26187 0.40738 0.67644 0.0
H1263 H 0.30926 0.43589 0.66691 0.0
H1264 H 0.28103 0.50489 0.68292 0.0
H1265 H 0.23329 0.47635 0.6922 0.0
H1266 H 0.31566 0.51147 0.63992 0.0
H1267 H 0.3199 0.48537 0.72831 0.0
H1268 H 0.31524 0.45565 0.7653 0.0
H1269 H 0.37235 0.41815 0.72713 0.0
H1270 H 0.377 0.44733 0.68971 0.0
H1271 H 0.4623 0.59006 0.63445 0.0
H1272 H 0.41479 0.57175 0.65353 0.0
H1273 H 0.42169 0.49281 0.63959 0.0
H1274 H 0.46846 0.51086 0.62043 0.0
H1275 H 0.39758 0.49805 0.68722 0.0
H1276 H 0.3877 0.51893 0.59665 0.0
H1277 H 0.39652 0.55009 0.5606 0.0
H1278 H 0.35197 0.59756 0.60308 0.0
H1279 H 0.34333 0.56687 0.63969 0.0
C1280 C 0.26554 0.4286 0.67756 0.0
C1281 C 0.24362 0.43949 0.68513 0.0
C1282 C 0.29283 0.44495 0.67239 0.0
C1283 C 0.299 0.47265 0.6746 0.0
C1284 C 0.27696 0.48362 0.68124 0.0
C1285 C 0.24966 0.46726 0.68664 0.0
C1286 C 0.32852 0.48991 0.67019 0.0
C1287 C 0.33348 0.50882 0.65064 0.0
C1288 C 0.35204 0.48653 0.68395 0.0
C1289 C 0.34856 0.46839 0.70607 0.0
C1290 C 0.33119 0.47057 0.72765 0.0
C1291 C 0.32861 0.45386 0.74873 0.0
C1292 C 0.34343 0.43498 0.74854 0.0
C1293 C 0.36084 0.43275 0.72724 0.0
C1294 C 0.36345 0.44937 0.70609 0.0
C1295 C 0.45378 0.56885 0.63596 0.0
C1296 C 0.46896 0.55183 0.62586 0.0
C1297 C 0.4266 0.5584 0.6467 0.0
C1298 C 0.41448 0.53082 0.64779 0.0
C1299 C 0.43045 0.51408 0.63898 0.0
C1300 C 0.4572 0.52443 0.62795 0.0
C1301 C 0.38467 0.5188 0.65648 0.0
C1302 C 0.37965 0.50092 0.67684 0.0
C1303 C 0.36121 0.52301 0.6434 0.0
C1304 C 0.36518 0.54081 0.62101 0.0
C1305 C 0.37988 0.53607 0.59835 0.0
C1306 C 0.38486 0.55364 0.57785 0.0
C1307 C 0.37493 0.57583 0.57964 0.0
C1308 C 0.35973 0.58038 0.6018 0.0
C1309 C 0.35478 0.56291 0.62244 0.0
H1310 H 0.37908 0.58946 0.56383 0.0
H1311 H 0.34148 0.42213 0.76492 0.0
H1312 H 0.72026 0.73386 0.85602 0.0
H1313 H 0.75449 0.71201 0.87179 0.0
H1314 H 0.79896 0.7839 0.91471 0.0
H1315 H 0.76467 0.80554 0.89911 0.0
H1316 H 0.83378 0.76394 0.8814 0.0
H1317 H 0.75967 0.72889 0.94592 0.0
H1318 H 0.71116 0.70357 0.95799 0.0
H1319 H 0.72198 0.63432 0.91731 0.0
H1320 H 0.77041 0.65934 0.90465 0.0
H1321 H 0.93883 0.73047 0.95376 0.0
H1322 H 0.90056 0.74523 0.9358 0.0
H1323 H 0.85148 0.66392 0.92113 0.0
H1324 H 0.88914 0.64929 0.94102 0.0
H1325 H 0.81655 0.68495 0.93539 0.0
H1326 H 0.88612 0.71363 0.86998 0.0
H1327 H 0.931 0.73545 0.8478 0.0
H1328 H 0.92661 0.81118 0.87814 0.0
H1329 H 0.88195 0.78982 0.9008 0.0
C1330 C 0.73677 0.74461 0.86961 0.0
C1331 C 0.73941 0.77119 0.87694 0.0
C1332 C 0.75647 0.73219 0.87846 0.0
C1333 C 0.77942 0.74623 0.89455 0.0
C1334 C 0.78148 0.77256 0.90242 0.0
C1335 C 0.76169 0.78486 0.89378 0.0
C1336 C 0.80246 0.73444 0.90178 0.0
C1337 C 0.83018 0.7469 0.89358 0.0
C1338 C 0.79753 0.71114 0.91611 0.0
C1339 C 0.7686 0.69606 0.92417 0.0
C1340 C 0.75165 0.70831 0.93941 0.0
C1341 C 0.72417 0.69401 0.94637 0.0
C1342 C 0.71347 0.66737 0.93838 0.0
C1343 C 0.73028 0.65496 0.92347 0.0
C1344 C 0.75775 0.66919 0.91642 0.0
C1345 C 0.91995 0.71573 0.94653 0.0
C1346 C 0.91716 0.68867 0.94888 0.0
C1347 C 0.89798 0.7242 0.93591 0.0
C1348 C 0.87281 0.70589 0.92635 0.0
C1349 C 0.87031 0.67874 0.92831 0.0
C1350 C 0.89199 0.67028 0.93964 0.0
C1351 C 0.84871 0.71505 0.91586 0.0
C1352 C 0.8206 0.70201 0.92322 0.0
C1353 C 0.85311 0.73727 0.89972 0.0
C1354 C 0.88084 0.75004 0.8874 0.0
C1355 C 0.89494 0.73489 0.87226 0.0
C1356 C 0.92029 0.7472 0.85951 0.0
C1357 C 0.9317 0.77467 0.86164 0.0
C1358 C 0.91781 0.7899 0.87657 0.0
C1359 C 0.89248 0.7777 0.88937 0.0
H1360 H 0.95125 0.78416 0.85165 0.0
H1361 H 0.69219 0.65634 0.94378 0.0
H1362 H 0.35531 0.82631 0.25189 0.0
H1363 H 0.37721 0.86784 0.23021 0.0
H1364 H 0.43844 0.83346 0.19399 0.0
H1365 H 0.41723 0.79235 0.21689 0.0
H1366 H 0.46421 0.88165 0.20295 0.0
H1367 H 0.37661 0.84053 0.16228 0.0
H1368 H 0.32555 0.81868 0.16064 0.0
H1369 H 0.30913 0.89055 0.18885 0.0
H1370 H 0.36051 0.91264 0.19181 0.0
H1371 H 0.50901 0.98101 0.10808 0.0
H1372 H 0.48654 0.93843 0.12774 0.0
H1373 H 0.4297 0.97329 0.17078 0.0
H1374 H 0.45199 0.01585 0.15058 0.0
H1375 H 0.4016 0.92378 0.15675 0.0
H1376 H 0.494 0.96288 0.19768 0.0
H1377 H 0.54611 0.9801 0.19922 0.0
H1378 H 0.55318 0.90685 0.16444 0.0
H1379 H 0.50115 0.88933 0.16239 0.0
C1380 C 0.37393 0.82788 0.23985 0.0
C1381 C 0.38478 0.80608 0.23657 0.0
C1382 C 0.38625 0.8516 0.22701 0.0
C1383 C 0.4093 0.85408 0.20963 0.0
C1384 C 0.42075 0.8325 0.20709 0.0
C1385 C 0.4087 0.8089 0.22036 0.0
C1386 C 0.42097 0.87875 0.19381 0.0
C1387 C 0.45039 0.89054 0.1926 0.0
C1388 C 0.40336 0.89092 0.18008 0.0
C1389 C 0.37244 0.87816 0.17754 0.0
C1390 C 0.36215 0.85167 0.1683 0.0
C1391 C 0.33308 0.83922 0.16714 0.0
C1392 C 0.31396 0.8532 0.17453 0.0
C1393 C 0.32395 0.87972 0.18314 0.0
C1394 C 0.35308 0.89221 0.18466 0.0
C1395 C 0.49113 0.9794 0.12111 0.0
C1396 C 0.48192 1.00184 0.12714 0.0
C1397 C 0.47852 0.95502 0.13281 0.0
C1398 C 0.45661 0.9523 0.1515 0.0
C1399 C 0.44654 0.97447 0.15663 0.0
C1400 C 0.45915 0.99889 0.14484 0.0
C1401 C 0.44488 0.92688 0.16621 0.0
C1402 C 0.41539 0.91489 0.16713 0.0
C1403 C 0.46249 0.91405 0.17906 0.0
C1404 C 0.49372 0.92494 0.17961 0.0
C1405 C 0.50669 0.95057 0.19011 0.0
C1406 C 0.5362 0.96035 0.19112 0.0
C1407 C 0.55294 0.94461 0.18186 0.0
C1408 C 0.54021 0.91905 0.17154 0.0
C1409 C 0.51072 0.90919 0.17045 0.0
H1410 H 0.57579 0.9522 0.18274 0.0
H1411 H 0.29142 0.8435 0.1736 0.0
H1412 H 0.20372 0.34996 0.65462 0.0
H1413 H 0.18317 0.30665 0.63293 0.0
H1414 H 0.10248 0.30259 0.66816 0.0
H1415 H 0.12192 0.34662 0.68836 0.0
H1416 H 0.12296 0.25612 0.67489 0.0
H1417 H 0.11047 0.31341 0.60573 0.0
H1418 H 0.12691 0.34774 0.57303 0.0
H1419 H 0.1788 0.30368 0.53642 0.0
H1420 H 0.16304 0.2693 0.56917 0.0
H1421 H 0.03194 0.13891 0.61592 0.0
H1422 H 0.05538 0.18325 0.6344 0.0
H1423 H 0.11667 0.19519 0.57142 0.0
H1424 H 0.09159 0.15177 0.55182 0.0
H1425 H 0.10996 0.23814 0.5786 0.0
H1426 H 0.12906 0.18324 0.64257 0.0
H1427 H 0.11958 0.1474 0.674 0.0
H1428 H 0.06699 0.18451 0.71979 0.0
H1429 H 0.07588 0.22042 0.68845 0.0
C1430 C 0.18141 0.34046 0.65746 0.0
C1431 C 0.16487 0.35257 0.67381 0.0
C1432 C 0.1697 0.31528 0.64506 0.0
C1433 C 0.14119 0.30104 0.64889 0.0
C1434 C 0.12458 0.31293 0.66495 0.0
C1435 C 0.13603 0.3383 0.67683 0.0
C1436 C 0.12873 0.27351 0.63699 0.0
C1437 C 0.11984 0.25222 0.65383 0.0
C1438 C 0.12595 0.26793 0.60942 0.0
C1439 C 0.13585 0.28895 0.59015 0.0
C1440 C 0.12568 0.31121 0.59094 0.0
C1441 C 0.13481 0.33064 0.57233 0.0
C1442 C 0.15397 0.32794 0.55273 0.0
C1443 C 0.16403 0.3058 0.55167 0.0
C1444 C 0.155 0.28634 0.57025 0.0
C1445 C 0.05051 0.15097 0.60613 0.0
C1446 C 0.05991 0.14164 0.58245 0.0
C1447 C 0.06422 0.17643 0.61686 0.0
C1448 C 0.08859 0.19298 0.60493 0.0
C1449 C 0.09805 0.18335 0.58131 0.0
C1450 C 0.08374 0.15828 0.5701 0.0
C1451 C 0.10363 0.22038 0.61652 0.0
C1452 C 0.11313 0.24173 0.59967 0.0
C1453 C 0.10827 0.22586 0.64405 0.0
C1454 C 0.10294 0.20439 0.66303 0.0
C1455 C 0.11534 0.18367 0.65926 0.0
C1456 C 0.11009 0.16335 0.67707 0.0
C1457 C 0.09264 0.16364 0.69884 0.0
C1458 C 0.08048 0.1843 0.7029 0.0
C1459 C 0.08564 0.20466 0.68514 0.0
H1460 H 0.08859 0.14789 0.71261 0.0
H1461 H 0.16095 0.34297 0.5383 0.0
H1462 H 0.65719 0.28689 0.52651 0.0
H1463 H 0.64925 0.33037 0.52935 0.0
H1464 H 0.73535 0.36535 0.55604 0.0
H1465 H 0.7432 0.3214 0.55319 0.0
H1466 H 0.69742 0.37485 0.59016 0.0
H1467 H 0.71383 0.38694 0.49831 0.0
H1468 H 0.71061 0.37406 0.45093 0.0
H1469 H 0.62022 0.35769 0.45375 0.0
H1470 H 0.62286 0.37035 0.50113 0.0
H1471 H 0.64858 0.49229 0.60035 0.0
H1472 H 0.67436 0.45918 0.59593 0.0
H1473 H 0.60049 0.40341 0.56087 0.0
H1474 H 0.57516 0.43657 0.56405 0.0
H1475 H 0.64504 0.41359 0.52815 0.0
H1476 H 0.62733 0.39311 0.61994 0.0
H1477 H 0.62867 0.40235 0.66798 0.0
H1478 H 0.7194 0.43122 0.66573 0.0
H1479 H 0.71856 0.42245 0.61759 0.0
C1480 C 0.67447 0.30402 0.53248 0.0
C1481 C 0.70053 0.30118 0.54009 0.0
C1482 C 0.67013 0.32883 0.53375 0.0
C1483 C 0.69183 0.35107 0.54268 0.0
C1484 C 0.71848 0.3484 0.54893 0.0
C1485 C 0.72289 0.32347 0.54745 0.0
C1486 C 0.68465 0.3756 0.54978 0.0
C1487 C 0.68672 0.38397 0.57647 0.0
C1488 C 0.67026 0.38696 0.53194 0.0
C1489 C 0.66858 0.3796 0.50332 0.0
C1490 C 0.69326 0.38052 0.48885 0.0
C1491 C 0.69154 0.37329 0.46197 0.0
C1492 C 0.66523 0.36505 0.44934 0.0
C1493 C 0.64059 0.36413 0.46354 0.0
C1494 C 0.6422 0.37144 0.49038 0.0
C1495 C 0.63768 0.47273 0.59228 0.0
C1496 C 0.61017 0.4672 0.58187 0.0
C1497 C 0.65236 0.45383 0.58993 0.0
C1498 C 0.63943 0.42914 0.57756 0.0
C1499 C 0.61087 0.42257 0.57013 0.0
C1500 C 0.59631 0.44147 0.57225 0.0
C1501 C 0.65638 0.41161 0.56877 0.0
C1502 C 0.65638 0.40495 0.54171 0.0
C1503 C 0.67242 0.40165 0.58631 0.0
C1504 C 0.67285 0.40753 0.61512 0.0
C1505 C 0.64754 0.40176 0.62964 0.0
C1506 C 0.64821 0.40682 0.6569 0.0
C1507 C 0.67409 0.41747 0.66988 0.0
C1508 C 0.69936 0.42305 0.65563 0.0
C1509 C 0.6988 0.41804 0.62837 0.0
H1510 H 0.67457 0.42133 0.691 0.0
H1511 H 0.66394 0.35939 0.42856 0.0
loop_
_geom_bond_atom_site_label_1
_geom_bond_atom_site_label_2
_geom_bond_distance
_geom_bond_site_symmetry_2
_ccdc_geom_bond_type
H0 C1 0.949 . S
C1 H0 0.949 . S
C1 C2 1.395 . S
C1 C3 1.391 . S
C2 C1 1.395 . S
C2 C5 1.390 . S
C3 C1 1.391 . S
C3 C7 1.387 . S
C3 C8 1.491 . S
H4 C5 0.950 . S
C5 C2 1.390 . S
C5 H4 0.950 . S
C5 C6 1.378 . S
C6 C5 1.378 . S
C6 C7 1.409 . S
C7 C3 1.387 . S
C7 C6 1.409 . S
C7 H9 0.951 . S
C8 C3 1.491 . S
C8 C10 1.382 . S
C8 C12 1.404 . S
H9 C7 0.951 . S
C10 C8 1.382 . S
C10 C11 1.390 . S
C10 H15 0.949 . S
C11 C10 1.390 . S
C11 C16 1.399 . S
C12 C8 1.404 . S
C12 H13 0.950 . S
C12 C14 1.375 . S
H13 C12 0.950 . S
C14 C12 1.375 . S
C14 C16 1.382 . S
C14 H18 0.950 . S
H15 C10 0.949 . S
C16 C11 1.399 . S
C16 C14 1.382 . S
C16 H17 0.952 . S
H17 C16 0.952 . S
H18 C14 0.950 . S
H19 C20 0.949 . S
C20 H19 0.949 . S
C20 C21 1.395 . S
C20 C22 1.391 . S
C21 C20 1.395 . S
C21 C24 1.390 . S
C22 C20 1.391 . S
C22 C26 1.387 . S
C22 C27 1.491 . S
H23 C24 0.950 . S
C24 C21 1.390 . S
C24 H23 0.950 . S
C24 C25 1.378 . S
C25 C24 1.378 . S
C25 C26 1.409 . S
C26 C22 1.387 . S
C26 C25 1.409 . S
C26 H28 0.951 . S
C27 C22 1.491 . S
C27 C29 1.382 . S
C27 C31 1.404 . S
H28 C26 0.951 . S
C29 C27 1.382 . S
C29 C30 1.390 . S
C29 H34 0.949 . S
C30 C29 1.390 . S
C30 C35 1.399 . S
C31 C27 1.404 . S
C31 H32 0.950 . S
C31 C33 1.375 . S
H32 C31 0.950 . S
C33 C31 1.375 . S
C33 C35 1.382 . S
C33 H37 0.950 . S
H34 C29 0.949 . S
C35 C30 1.399 . S
C35 C33 1.382 . S
C35 H36 0.952 . S
H36 C35 0.952 . S
H37 C33 0.950 . S
H38 C39 0.949 . S
C39 H38 0.949 . S
C39 C40 1.395 . S
C39 C41 1.391 . S
C40 C39 1.395 . S
C40 C43 1.390 . S
C41 C39 1.391 . S
C41 C45 1.387 . S
C41 C46 1.491 . S
H42 C43 0.950 . S
C43 C40 1.390 . S
C43 H42 0.950 . S
C43 C44 1.378 . S
C44 C43 1.378 . S
C44 C45 1.409 . S
C45 C41 1.387 . S
C45 C44 1.409 . S
C45 H47 0.951 . S
C46 C41 1.491 . S
C46 C48 1.382 . S
C46 C50 1.404 . S
H47 C45 0.951 . S
C48 C46 1.382 . S
C48 C49 1.390 . S
C48 H53 0.949 . S
C49 C48 1.390 . S
C49 C54 1.399 . S
C50 C46 1.404 . S
C50 H51 0.950 . S
C50 C52 1.375 . S
H51 C50 0.950 . S
C52 C50 1.375 . S
C52 C54 1.382 . S
C52 H56 0.950 . S
H53 C48 0.949 . S
C54 C49 1.399 . S
C54 C52 1.382 . S
C54 H55 0.952 . S
H55 C54 0.952 . S
H56 C52 0.950 . S
H57 C58 0.949 . S
C58 H57 0.949 . S
C58 C59 1.395 . S
C58 C60 1.391 . S
C59 C58 1.395 . S
C59 C62 1.390 . S
C60 C58 1.391 . S
C60 C64 1.387 . S
C60 C65 1.491 . S
H61 C62 0.950 . S
C62 C59 1.390 . S
C62 H61 0.950 . S
C62 C63 1.378 . S
C63 C62 1.378 . S
C63 C64 1.409 . S
C64 C60 1.387 . S
C64 C63 1.409 . S
C64 H66 0.951 . S
C65 C60 1.491 . S
C65 C67 1.382 . S
C65 C69 1.404 . S
H66 C64 0.951 . S
C67 C65 1.382 . S
C67 C68 1.390 . S
C67 H72 0.949 . S
C68 C67 1.390 . S
C68 C73 1.399 . S
C69 C65 1.404 . S
C69 H70 0.950 . S
C69 C71 1.375 . S
H70 C69 0.950 . S
C71 C69 1.375 . S
C71 C73 1.382 . S
C71 H75 0.950 . S
H72 C67 0.949 . S
C73 C68 1.399 . S
C73 C71 1.382 . S
C73 H74 0.952 . S
H74 C73 0.952 . S
H75 C71 0.950 . S
H76 C77 0.949 . S
C77 H76 0.949 . S
C77 C78 1.395 . S
C77 C79 1.391 . S
C78 C77 1.395 . S
C78 C81 1.390 . S
C79 C77 1.391 . S
C79 C83 1.387 . S
C79 C84 1.491 . S
H80 C81 0.950 . S
C81 C78 1.390 . S
C81 H80 0.950 . S
C81 C82 1.378 . S
C82 C81 1.378 . S
C82 C83 1.409 . S
C83 C79 1.387 . S
C83 C82 1.409 . S
C83 H85 0.951 . S
C84 C79 1.491 . S
C84 C86 1.382 . S
C84 C88 1.404 . S
H85 C83 0.951 . S
C86 C84 1.382 . S
C86 C87 1.390 . S
C86 H91 0.949 . S
C87 C86 1.390 . S
C87 C92 1.399 . S
C88 C84 1.404 . S
C88 H89 0.950 . S
C88 C90 1.375 . S
H89 C88 0.950 . S
C90 C88 1.375 . S
C90 C92 1.382 . S
C90 H94 0.950 . S
H91 C86 0.949 . S
C92 C87 1.399 . S
C92 C90 1.382 . S
C92 H93 0.952 . S
H93 C92 0.952 . S
H94 C90 0.950 . S
H95 C96 0.949 . S
C96 H95 0.949 . S
C96 C97 1.395 . S
C96 C98 1.391 . S
C97 C96 1.395 . S
C97 C100 1.390 . S
C98 C96 1.391 . S
C98 C102 1.387 . S
C98 C103 1.491 . S
H99 C100 0.950 . S
C100 C97 1.390 . S
C100 H99 0.950 . S
C100 C101 1.378 . S
C101 C100 1.378 . S
C101 C102 1.409 . S
C102 C98 1.387 . S
C102 C101 1.409 . S
C102 H104 0.951 . S
C103 C98 1.491 . S
C103 C105 1.382 . S
C103 C107 1.404 . S
H104 C102 0.951 . S
C105 C103 1.382 . S
C105 C106 1.390 . S
C105 H110 0.949 . S
C106 C105 1.390 . S
C106 C111 1.399 . S
C107 C103 1.404 . S
C107 H108 0.950 . S
C107 C109 1.375 . S
H108 C107 0.950 . S
C109 C107 1.375 . S
C109 C111 1.382 . S
C109 H113 0.950 . S
H110 C105 0.949 . S
C111 C106 1.399 . S
C111 C109 1.382 . S
C111 H112 0.952 . S
H112 C111 0.952 . S
H113 C109 0.950 . S
H114 C115 0.949 . S
C115 H114 0.949 . S
C115 C116 1.395 . S
C115 C117 1.391 . S
C116 C115 1.395 . S
C116 C119 1.390 . S
C117 C115 1.391 . S
C117 C121 1.387 . S
C117 C122 1.491 . S
H118 C119 0.950 . S
C119 C116 1.390 . S
C119 H118 0.950 . S
C119 C120 1.378 . S
C120 C119 1.378 . S
C120 C121 1.409 . S
C121 C117 1.387 . S
C121 C120 1.409 . S
C121 H123 0.951 . S
C122 C117 1.491 . S
C122 C124 1.382 . S
C122 C126 1.404 . S
H123 C121 0.951 . S
C124 C122 1.382 . S
C124 C125 1.390 . S
C124 H129 0.949 . S
C125 C124 1.390 . S
C125 C130 1.399 . S
C126 C122 1.404 . S
C126 H127 0.950 . S
C126 C128 1.375 . S
H127 C126 0.950 . S
C128 C126 1.375 . S
C128 C130 1.382 . S
C128 H132 0.950 . S
H129 C124 0.949 . S
C130 C125 1.399 . S
C130 C128 1.382 . S
C130 H131 0.952 . S
H131 C130 0.952 . S
H132 C128 0.950 . S
H133 C134 0.949 . S
C134 H133 0.949 . S
C134 C135 1.395 . S
C134 C136 1.391 . S
C135 C134 1.395 . S
C135 C138 1.390 . S
C136 C134 1.391 . S
C136 C140 1.387 . S
C136 C141 1.491 . S
H137 C138 0.950 . S
C138 C135 1.390 . S
C138 H137 0.950 . S
C138 C139 1.378 . S
C139 C138 1.378 . S
C139 C140 1.409 . S
C140 C136 1.387 . S
C140 C139 1.409 . S
C140 H142 0.951 . S
C141 C136 1.491 . S
C141 C143 1.382 . S
C141 C145 1.404 . S
H142 C140 0.951 . S
C143 C141 1.382 . S
C143 C144 1.390 . S
C143 H148 0.949 . S
C144 C143 1.390 . S
C144 C149 1.399 . S
C145 C141 1.404 . S
C145 H146 0.950 . S
C145 C147 1.375 . S
H146 C145 0.950 . S
C147 C145 1.375 . S
C147 C149 1.382 . S
C147 H151 0.950 . S
H148 C143 0.949 . S
C149 C144 1.399 . S
C149 C147 1.382 . S
C149 H150 0.952 . S
H150 C149 0.952 . S
H151 C147 0.950 . S
Sm152 C154 2.846 . S
Sm152 O172 2.543 . S
Sm152 O173 2.450 . S
Sm152 O174 2.681 . S
Sm152 O175 2.464 . S
Sm152 O176 2.396 . S
Sm152 O180 2.386 1_455 S
Sm152 O183 2.408 . S
Sm153 C163 2.846 1_545 S
Sm153 O174 2.386 1_655 S
Sm153 O177 2.408 1_655 S
Sm153 O178 2.543 1_545 S
Sm153 O179 2.450 . S
Sm153 O180 2.681 . S
Sm153 O181 2.464 . S
Sm153 O182 2.396 . S
C154 Sm152 2.846 . S
C154 C155 1.506 . S
C154 O172 1.261 . S
C154 O173 1.242 . S
C155 C154 1.506 . S
C155 C156 1.358 . S
C155 C160 1.382 . S
C156 C155 1.358 . S
C156 C157 1.385 . S
C156 H184 0.930 . S
C157 C156 1.385 . S
C157 C158 1.395 . S
C157 H185 0.929 . S
C158 C157 1.395 . S
C158 C159 1.335 . S
C159 C158 1.335 . S
C159 C160 1.398 . S
C159 H186 0.930 . S
C160 C155 1.382 . S
C160 C159 1.398 . S
C160 H187 0.929 . S
C161 O174 1.271 . S
C161 O175 1.251 . S
C162 O176 1.252 . S
C162 O177 1.272 . S
C163 Sm153 2.846 1_565 S
C163 C164 1.506 . S
C163 O178 1.261 . S
C163 O179 1.242 1_565 S
C164 C163 1.506 . S
C164 C165 1.358 . S
C164 C169 1.382 . S
C165 C164 1.358 . S
C165 C166 1.385 . S
C165 H188 0.930 . S
C166 C165 1.385 . S
C166 C167 1.395 . S
C166 H189 0.929 . S
C167 C166 1.395 . S
C167 C168 1.335 . S
C168 C167 1.335 . S
C168 C169 1.398 . S
C168 H190 0.930 . S
C169 C164 1.382 . S
C169 C168 1.398 . S
C169 H191 0.929 . S
C170 O180 1.271 . S
C170 O181 1.251 . S
C171 O182 1.252 1_565 S
C171 O183 1.272 1_665 S
O172 Sm152 2.543 . S
O172 C154 1.261 . S
O173 Sm152 2.450 . S
O173 C154 1.242 . S
O174 Sm152 2.681 . S
O174 Sm153 2.386 1_455 S
O174 C161 1.271 . S
O175 Sm152 2.464 . S
O175 C161 1.251 . S
O176 Sm152 2.396 . S
O176 C162 1.252 . S
O177 Sm153 2.408 1_455 S
O177 C162 1.272 . S
O178 Sm153 2.543 1_565 S
O178 C163 1.261 . S
O179 Sm153 2.450 . S
O179 C163 1.242 1_545 S
O180 Sm152 2.386 1_655 S
O180 Sm153 2.681 . S
O180 C170 1.271 . S
O181 Sm153 2.464 . S
O181 C170 1.251 . S
O182 Sm153 2.396 . S
O182 C171 1.252 1_545 S
O183 Sm152 2.408 . S
O183 C171 1.272 1_445 S
H184 C156 0.930 . S
H185 C157 0.929 . S
H186 C159 0.930 . S
H187 C160 0.929 . S
H188 C165 0.930 . S
H189 C166 0.929 . S
H190 C168 0.930 . S
H191 C169 0.929 . S
Sm192 C194 2.846 . S
Sm192 O212 2.543 . S
Sm192 O213 2.450 . S
Sm192 O214 2.681 . S
Sm192 O215 2.464 . S
Sm192 O216 2.396 . S
Sm192 O220 2.386 . S
Sm192 O223 2.408 . S
Sm193 C203 2.846 . S
Sm193 O214 2.386 . S
Sm193 O217 2.408 . S
Sm193 O218 2.543 1_545 S
Sm193 O219 2.450 . S
Sm193 O220 2.681 . S
Sm193 O221 2.464 . S
Sm193 O222 2.396 . S
C194 Sm192 2.846 . S
C194 C195 1.506 . S
C194 O212 1.261 . S
C194 O213 1.242 . S
C195 C194 1.506 . S
C195 C196 1.358 . S
C195 C200 1.382 . S
C196 C195 1.358 . S
C196 C197 1.385 . S
C196 H224 0.930 . S
C197 C196 1.385 . S
C197 C198 1.395 . S
C197 H225 0.929 . S
C198 C197 1.395 . S
C198 C199 1.335 . S
C199 C198 1.335 . S
C199 C200 1.398 . S
C199 H226 0.930 . S
C200 C195 1.382 . S
C200 C199 1.398 . S
C200 H227 0.929 . S
C201 O214 1.271 1_565 S
C201 O215 1.251 1_565 S
C202 O216 1.252 . S
C202 O217 1.272 . S
C203 Sm193 2.846 . S
C203 C204 1.506 1_544 S
C203 O218 1.261 1_545 S
C203 O219 1.242 . S
C204 C203 1.506 1_566 S
C204 C205 1.358 . S
C204 C209 1.382 . S
C205 C204 1.358 . S
C205 C206 1.385 . S
C205 H228 0.930 . S
C206 C205 1.385 . S
C206 C207 1.395 . S
C206 H229 0.929 . S
C207 C206 1.395 . S
C207 C208 1.335 . S
C208 C207 1.335 . S
C208 C209 1.398 . S
C208 H230 0.930 . S
C209 C204 1.382 . S
C209 C208 1.398 . S
C209 H231 0.929 1_565 S
C210 O220 1.271 . S
C210 O221 1.251 . S
C211 O222 1.252 . S
C211 O223 1.272 . S
O212 Sm192 2.543 . S
O212 C194 1.261 . S
O213 Sm192 2.450 . S
O213 C194 1.242 . S
O214 Sm192 2.681 . S
O214 Sm193 2.386 . S
O214 C201 1.271 1_545 S
O215 Sm192 2.464 . S
O215 C201 1.251 1_545 S
O216 Sm192 2.396 . S
O216 C202 1.252 . S
O217 Sm193 2.408 . S
O217 C202 1.272 . S
O218 Sm193 2.543 1_565 S
O218 C203 1.261 1_565 S
O219 Sm193 2.450 . S
O219 C203 1.242 . S
O220 Sm192 2.386 . S
O220 Sm193 2.681 . S
O220 C210 1.271 . S
O221 Sm193 2.464 . S
O221 C210 1.251 . S
O222 Sm193 2.396 . S
O222 C211 1.252 . S
O223 Sm192 2.408 . S
O223 C211 1.272 . S
H224 C196 0.930 . S
H225 C197 0.929 . S
H226 C199 0.930 . S
H227 C200 0.929 . S
H228 C205 0.930 . S
H229 C206 0.929 . S
H230 C208 0.930 . S
H231 C209 0.929 1_545 S
Sm232 C234 2.846 . S
Sm232 O252 2.543 . S
Sm232 O253 2.450 . S
Sm232 O254 2.681 . S
Sm232 O255 2.464 . S
Sm232 O256 2.396 . S
Sm232 O260 2.386 . S
Sm232 O263 2.408 . S
Sm233 C243 2.846 . S
Sm233 O254 2.386 . S
Sm233 O257 2.408 . S
Sm233 O258 2.543 . S
Sm233 O259 2.450 . S
Sm233 O260 2.681 . S
Sm233 O261 2.464 . S
Sm233 O262 2.396 . S
C234 Sm232 2.846 . S
C234 C235 1.506 . S
C234 O252 1.261 . S
C234 O253 1.242 . S
C235 C234 1.506 . S
C235 C236 1.358 . S
C235 C240 1.382 . S
C236 C235 1.358 . S
C236 C237 1.385 . S
C236 H264 0.930 . S
C237 C236 1.385 . S
C237 C238 1.395 . S
C237 H265 0.929 . S
C238 C237 1.395 . S
C238 C239 1.335 . S
C239 C238 1.335 . S
C239 C240 1.398 . S
C239 H266 0.930 . S
C240 C235 1.382 . S
C240 C239 1.398 . S
C240 H267 0.929 . S
C241 O254 1.271 . S
C241 O255 1.251 . S
C242 O256 1.252 . S
C242 O257 1.272 . S
C243 Sm233 2.846 . S
C243 C244 1.506 . S
C243 O258 1.261 . S
C243 O259 1.242 . S
C244 C243 1.506 . S
C244 C245 1.358 . S
C244 C249 1.382 . S
C245 C244 1.358 . S
C245 C246 1.385 . S
C245 H268 0.930 . S
C246 C245 1.385 . S
C246 C247 1.395 . S
C246 H269 0.929 . S
C247 C246 1.395 . S
C247 C248 1.335 . S
C248 C247 1.335 . S
C248 C249 1.398 . S
C248 H270 0.930 . S
C249 C244 1.382 . S
C249 C248 1.398 . S
C249 H271 0.929 . S
C250 O260 1.271 . S
C250 O261 1.251 . S
C251 O262 1.252 . S
C251 O263 1.272 . S
O252 Sm232 2.543 . S
O252 C234 1.261 . S
O253 Sm232 2.450 . S
O253 C234 1.242 . S
O254 Sm232 2.681 . S
O254 Sm233 2.386 . S
O254 C241 1.271 . S
O255 Sm232 2.464 . S
O255 C241 1.251 . S
O256 Sm232 2.396 . S
O256 C242 1.252 . S
O257 Sm233 2.408 . S
O257 C242 1.272 . S
O258 Sm233 2.543 . S
O258 C243 1.261 . S
O259 Sm233 2.450 . S
O259 C243 1.242 . S
O260 Sm232 2.386 . S
O260 Sm233 2.681 . S
O260 C250 1.271 . S
O261 Sm233 2.464 . S
O261 C250 1.251 . S
O262 Sm233 2.396 . S
O262 C251 1.252 . S
O263 Sm232 2.408 . S
O263 C251 1.272 . S
H264 C236 0.930 . S
H265 C237 0.929 . S
H266 C239 0.930 . S
H267 C240 0.929 . S
H268 C245 0.930 . S
H269 C246 0.929 . S
H270 C248 0.930 . S
H271 C249 0.929 . S
Sm272 C274 2.846 . S
Sm272 O292 2.543 . S
Sm272 O293 2.450 . S
Sm272 O294 2.681 . S
Sm272 O295 2.464 . S
Sm272 O296 2.396 . S
Sm272 O300 2.356 1_554 S
Sm272 O303 2.408 1_455 S
Sm273 C283 2.831 1_454 S
Sm273 O294 2.414 . S
Sm273 O297 2.426 . S
Sm273 O298 2.541 1_454 S
Sm273 O299 2.424 1_554 S
Sm273 O300 2.683 1_554 S
Sm273 O301 2.439 1_554 S
Sm273 O302 2.400 1_554 S
C274 Sm272 2.846 . S
C274 C275 1.506 . S
C274 O292 1.261 . S
C274 O293 1.242 . S
C275 C274 1.506 . S
C275 C276 1.358 . S
C275 C280 1.382 . S
C276 C275 1.358 . S
C276 C277 1.385 . S
C276 H304 0.930 . S
C277 C276 1.385 . S
C277 C278 1.395 . S
C277 H305 0.929 . S
C278 C277 1.395 . S
C278 C279 1.335 . S
C279 C278 1.335 . S
C279 C280 1.398 . S
C279 H306 0.930 . S
C280 C275 1.382 . S
C280 C279 1.398 . S
C280 H307 0.929 . S
C281 O294 1.271 . S
C281 O295 1.251 . S
C282 O296 1.252 . S
C282 O297 1.272 . S
C283 Sm273 2.831 1_656 S
C283 C284 1.506 . S
C283 O298 1.261 . S
C283 O299 1.242 1_655 S
C284 C283 1.506 . S
C284 C285 1.358 . S
C284 C289 1.382 . S
C285 C284 1.358 . S
C285 C286 1.385 . S
C285 H308 0.930 . S
C286 C285 1.385 . S
C286 C287 1.395 . S
C286 H309 0.929 . S
C287 C286 1.395 . S
C287 C288 1.335 . S
C288 C287 1.335 . S
C288 C289 1.398 . S
C288 H310 0.930 . S
C289 C284 1.382 . S
C289 C288 1.398 . S
C289 H311 0.929 . S
C290 O300 1.307 . S
C290 O301 1.251 . S
C291 O302 1.243 1_655 S
C291 O303 1.272 1_556 S
O292 Sm272 2.543 . S
O292 C274 1.261 . S
O293 Sm272 2.450 . S
O293 C274 1.242 . S
O294 Sm272 2.681 . S
O294 Sm273 2.414 . S
O294 C281 1.271 . S
O295 Sm272 2.464 . S
O295 C281 1.251 . S
O296 Sm272 2.396 . S
O296 C282 1.252 . S
O297 Sm273 2.426 . S
O297 C282 1.272 . S
O298 Sm273 2.541 1_656 S
O298 C283 1.261 . S
O299 Sm273 2.424 1_556 S
O299 C283 1.242 1_455 S
O300 Sm272 2.356 1_556 S
O300 Sm273 2.683 1_556 S
O300 C290 1.307 . S
O301 Sm273 2.439 1_556 S
O301 C290 1.251 . S
O302 Sm273 2.400 1_556 S
O302 C291 1.243 1_455 S
O303 Sm272 2.408 1_655 S
O303 C291 1.272 1_554 S
H304 C276 0.930 . S
H305 C277 0.929 . S
H306 C279 0.930 . S
H307 C280 0.929 . S
H308 C285 0.930 . S
H309 C286 0.929 . S
H310 C288 0.930 . S
H311 C289 0.929 . S
H312 C330 0.951 . S
H313 C332 0.951 . S
H314 C334 0.950 . S
H315 C335 0.950 . S
H316 C337 0.950 . S
H317 C340 0.950 . S
H318 C341 0.950 . S
H319 C343 0.950 . S
H320 C344 0.950 . S
H321 C345 0.951 . S
H322 C347 0.951 . S
H323 C349 0.950 . S
H324 C350 0.950 . S
H325 C352 0.950 . S
H326 C355 0.950 . S
H327 C356 0.950 . S
H328 C358 0.950 . S
H329 C359 0.950 . S
C330 H312 0.951 . S
C330 C331 1.366 . S
C330 C332 1.388 . S
C331 C330 1.366 . S
C331 C335 1.385 . S
C332 H313 0.951 . S
C332 C330 1.388 . S
C332 C333 1.366 . S
C333 C332 1.366 . S
C333 C334 1.414 . S
C333 C336 1.499 . S
C334 H314 0.950 . S
C334 C333 1.414 . S
C334 C335 1.374 . S
C335 H315 0.950 . S
C335 C331 1.385 . S
C335 C334 1.374 . S
C336 C333 1.499 . S
C336 C337 1.373 . S
C336 C338 1.389 . S
C337 H316 0.950 . S
C337 C336 1.373 . S
C337 C353 1.377 . S
C338 C336 1.389 . S
C338 C339 1.524 . S
C338 C352 1.377 . S
C339 C338 1.524 . S
C339 C340 1.397 . S
C339 C344 1.363 . S
C340 H317 0.950 . S
C340 C339 1.397 . S
C340 C341 1.334 . S
C341 H318 0.950 . S
C341 C340 1.334 . S
C341 C342 1.287 . S
C342 C341 1.287 . S
C342 C343 1.524 . S
C342 H361 0.913 . S
C343 H319 0.950 . S
C343 C342 1.524 . S
C343 C344 1.415 . S
C344 H320 0.950 . S
C344 C339 1.363 . S
C344 C343 1.415 . S
C345 H321 0.951 . S
C345 C346 1.366 . S
C345 C347 1.388 . S
C346 C345 1.366 . S
C346 C350 1.385 . S
C347 H322 0.951 . S
C347 C345 1.388 . S
C347 C348 1.366 . S
C348 C347 1.366 . S
C348 C349 1.414 . S
C348 C351 1.499 . S
C349 H323 0.950 . S
C349 C348 1.414 . S
C349 C350 1.374 . S
C350 H324 0.950 . S
C350 C346 1.385 . S
C350 C349 1.374 . S
C351 C348 1.499 . S
C351 C352 1.373 . S
C351 C353 1.389 . S
C352 H325 0.950 . S
C352 C338 1.377 . S
C352 C351 1.373 . S
C353 C337 1.377 . S
C353 C351 1.389 . S
C353 C354 1.524 . S
C354 C353 1.524 . S
C354 C355 1.397 . S
C354 C359 1.363 . S
C355 H326 0.950 . S
C355 C354 1.397 . S
C355 C356 1.334 . S
C356 H327 0.950 . S
C356 C355 1.334 . S
C356 C357 1.287 . S
C357 C356 1.287 . S
C357 C358 1.524 . S
C357 H360 0.999 . S
C358 H328 0.950 . S
C358 C357 1.524 . S
C358 C359 1.415 . S
C359 H329 0.950 . S
C359 C354 1.363 . S
C359 C358 1.415 . S
H360 C357 0.999 . S
H361 C342 0.913 . S
H362 C380 0.951 . S
H363 C382 0.951 . S
H364 C384 0.950 . S
H365 C385 0.950 . S
H366 C387 0.950 . S
H367 C390 0.950 . S
H368 C391 0.950 . S
H369 C393 0.950 . S
H370 C394 0.950 . S
H371 C395 0.951 . S
H372 C397 0.951 . S
H373 C399 0.950 . S
H374 C400 0.950 . S
H375 C402 0.950 . S
H376 C405 0.950 . S
H377 C406 0.950 . S
H378 C408 0.950 . S
H379 C409 0.950 . S
C380 H362 0.951 . S
C380 C381 1.366 . S
C380 C382 1.388 . S
C381 C380 1.366 . S
C381 C385 1.385 . S
C382 H363 0.951 . S
C382 C380 1.388 . S
C382 C383 1.366 . S
C383 C382 1.366 . S
C383 C384 1.414 . S
C383 C386 1.499 . S
C384 H364 0.950 . S
C384 C383 1.414 . S
C384 C385 1.374 . S
C385 H365 0.950 . S
C385 C381 1.385 . S
C385 C384 1.374 . S
C386 C383 1.499 . S
C386 C387 1.373 . S
C386 C388 1.389 . S
C387 H366 0.950 . S
C387 C386 1.373 . S
C387 C403 1.377 . S
C388 C386 1.389 . S
C388 C389 1.524 . S
C388 C402 1.377 . S
C389 C388 1.524 . S
C389 C390 1.397 . S
C389 C394 1.363 . S
C390 H367 0.950 . S
C390 C389 1.397 . S
C390 C391 1.334 . S
C391 H368 0.950 . S
C391 C390 1.334 . S
C391 C392 1.287 . S
C392 C391 1.287 . S
C392 C393 1.524 . S
C392 H411 0.913 . S
C393 H369 0.950 . S
C393 C392 1.524 . S
C393 C394 1.415 . S
C394 H370 0.950 . S
C394 C389 1.363 . S
C394 C393 1.415 . S
C395 H371 0.951 . S
C395 C396 1.366 . S
C395 C397 1.388 . S
C396 C395 1.366 . S
C396 C400 1.385 . S
C397 H372 0.951 . S
C397 C395 1.388 . S
C397 C398 1.366 . S
C398 C397 1.366 . S
C398 C399 1.414 . S
C398 C401 1.499 . S
C399 H373 0.950 . S
C399 C398 1.414 . S
C399 C400 1.374 . S
C400 H374 0.950 . S
C400 C396 1.385 . S
C400 C399 1.374 . S
C401 C398 1.499 . S
C401 C402 1.373 . S
C401 C403 1.389 . S
C402 H375 0.950 . S
C402 C388 1.377 . S
C402 C401 1.373 . S
C403 C387 1.377 . S
C403 C401 1.389 . S
C403 C404 1.524 . S
C404 C403 1.524 . S
C404 C405 1.397 . S
C404 C409 1.363 . S
C405 H376 0.950 . S
C405 C404 1.397 . S
C405 C406 1.334 . S
C406 H377 0.950 . S
C406 C405 1.334 . S
C406 C407 1.287 . S
C407 C406 1.287 . S
C407 C408 1.524 . S
C407 H410 0.999 . S
C408 H378 0.950 . S
C408 C407 1.524 . S
C408 C409 1.415 . S
C409 H379 0.950 . S
C409 C404 1.363 . S
C409 C408 1.415 . S
H410 C407 0.999 . S
H411 C392 0.913 . S
H412 C430 0.951 . S
H413 C432 0.951 . S
H414 C434 0.950 . S
H415 C435 0.950 . S
H416 C437 0.950 . S
H417 C440 0.950 . S
H418 C441 0.950 . S
H419 C443 0.950 . S
H420 C444 0.950 . S
H421 C445 0.951 . S
H422 C447 0.951 . S
H423 C449 0.950 . S
H424 C450 0.950 . S
H425 C452 0.950 . S
H426 C455 0.950 . S
H427 C456 0.950 . S
H428 C458 0.950 . S
H429 C459 0.950 . S
C430 H412 0.951 . S
C430 C431 1.366 . S
C430 C432 1.388 . S
C431 C430 1.366 . S
C431 C435 1.385 . S
C432 H413 0.951 . S
C432 C430 1.388 . S
C432 C433 1.366 . S
C433 C432 1.366 . S
C433 C434 1.414 . S
C433 C436 1.499 . S
C434 H414 0.950 . S
C434 C433 1.414 . S
C434 C435 1.374 . S
C435 H415 0.950 . S
C435 C431 1.385 . S
C435 C434 1.374 . S
C436 C433 1.499 . S
C436 C437 1.373 . S
C436 C438 1.389 . S
C437 H416 0.950 . S
C437 C436 1.373 . S
C437 C453 1.377 . S
C438 C436 1.389 . S
C438 C439 1.524 . S
C438 C452 1.377 . S
C439 C438 1.524 . S
C439 C440 1.397 . S
C439 C444 1.363 . S
C440 H417 0.950 . S
C440 C439 1.397 . S
C440 C441 1.334 . S
C441 H418 0.950 . S
C441 C440 1.334 . S
C441 C442 1.287 . S
C442 C441 1.287 . S
C442 C443 1.524 . S
C442 H461 0.913 . S
C443 H419 0.950 . S
C443 C442 1.524 . S
C443 C444 1.415 . S
C444 H420 0.950 . S
C444 C439 1.363 . S
C444 C443 1.415 . S
C445 H421 0.951 . S
C445 C446 1.366 . S
C445 C447 1.388 . S
C446 C445 1.366 . S
C446 C450 1.385 . S
C447 H422 0.951 . S
C447 C445 1.388 . S
C447 C448 1.366 . S
C448 C447 1.366 . S
C448 C449 1.414 . S
C448 C451 1.499 . S
C449 H423 0.950 . S
C449 C448 1.414 . S
C449 C450 1.374 . S
C450 H424 0.950 . S
C450 C446 1.385 . S
C450 C449 1.374 . S
C451 C448 1.499 . S
C451 C452 1.373 . S
C451 C453 1.389 . S
C452 H425 0.950 . S
C452 C438 1.377 . S
C452 C451 1.373 . S
C453 C437 1.377 . S
C453 C451 1.389 . S
C453 C454 1.524 . S
C454 C453 1.524 . S
C454 C455 1.397 . S
C454 C459 1.363 . S
C455 H426 0.950 . S
C455 C454 1.397 . S
C455 C456 1.334 . S
C456 H427 0.950 . S
C456 C455 1.334 . S
C456 C457 1.287 . S
C457 C456 1.287 . S
C457 C458 1.524 . S
C457 H460 0.999 . S
C458 H428 0.950 . S
C458 C457 1.524 . S
C458 C459 1.415 . S
C459 H429 0.950 . S
C459 C454 1.363 . S
C459 C458 1.415 . S
H460 C457 0.999 . S
H461 C442 0.913 . S
H462 C480 0.951 . S
H463 C482 0.951 . S
H464 C484 0.950 . S
H465 C485 0.950 . S
H466 C487 0.950 . S
H467 C490 0.950 . S
H468 C491 0.950 . S
H469 C493 0.950 . S
H470 C494 0.950 . S
H471 C495 0.951 . S
H472 C497 0.951 . S
H473 C499 0.950 . S
H474 C500 0.950 1_455 S
H475 C502 0.950 . S
H476 C505 0.950 . S
H477 C506 0.950 . S
H478 C508 0.950 . S
H479 C509 0.950 . S
C480 H462 0.951 . S
C480 C481 1.366 . S
C480 C482 1.388 . S
C481 C480 1.366 . S
C481 C485 1.385 . S
C482 H463 0.951 . S
C482 C480 1.388 . S
C482 C483 1.366 . S
C483 C482 1.366 . S
C483 C484 1.414 . S
C483 C486 1.499 . S
C484 H464 0.950 . S
C484 C483 1.414 . S
C484 C485 1.374 . S
C485 H465 0.950 . S
C485 C481 1.385 . S
C485 C484 1.374 . S
C486 C483 1.499 . S
C486 C487 1.373 . S
C486 C488 1.389 . S
C487 H466 0.950 . S
C487 C486 1.373 . S
C487 C503 1.377 . S
C488 C486 1.389 . S
C488 C489 1.524 . S
C488 C502 1.377 . S
C489 C488 1.524 . S
C489 C490 1.397 . S
C489 C494 1.363 . S
C490 H467 0.950 . S
C490 C489 1.397 . S
C490 C491 1.334 . S
C491 H468 0.950 . S
C491 C490 1.334 . S
C491 C492 1.287 . S
C492 C491 1.287 . S
C492 C493 1.524 . S
C492 H511 0.913 . S
C493 H469 0.950 . S
C493 C492 1.524 . S
C493 C494 1.415 . S
C494 H470 0.950 . S
C494 C489 1.363 . S
C494 C493 1.415 . S
C495 H471 0.951 . S
C495 C496 1.366 . S
C495 C497 1.388 . S
C496 C495 1.366 . S
C496 C500 1.385 . S
C497 H472 0.951 . S
C497 C495 1.388 . S
C497 C498 1.366 . S
C498 C497 1.366 . S
C498 C499 1.414 . S
C498 C501 1.499 . S
C499 H473 0.950 . S
C499 C498 1.414 . S
C499 C500 1.374 . S
C500 H474 0.950 1_655 S
C500 C496 1.385 . S
C500 C499 1.374 . S
C501 C498 1.499 . S
C501 C502 1.373 . S
C501 C503 1.389 . S
C502 H475 0.950 . S
C502 C488 1.377 . S
C502 C501 1.373 . S
C503 C487 1.377 . S
C503 C501 1.389 . S
C503 C504 1.524 . S
C504 C503 1.524 . S
C504 C505 1.397 1_655 S
C504 C509 1.363 . S
C505 H476 0.950 . S
C505 C504 1.397 1_455 S
C505 C506 1.334 . S
C506 H477 0.950 . S
C506 C505 1.334 . S
C506 C507 1.287 . S
C507 C506 1.287 . S
C507 C508 1.524 1_455 S
C507 H510 0.999 . S
C508 H478 0.950 . S
C508 C507 1.524 1_655 S
C508 C509 1.415 . S
C509 H479 0.950 . S
C509 C504 1.363 . S
C509 C508 1.415 . S
H510 C507 0.999 . S
H511 C492 0.913 . S
H512 C530 0.951 . S
H513 C532 0.951 . S
H514 C534 0.950 . S
H515 C535 0.950 . S
H516 C537 0.950 . S
H517 C540 0.950 . S
H518 C541 0.950 . S
H519 C543 0.950 . S
H520 C544 0.950 . S
H521 C545 0.951 . S
H522 C547 0.951 . S
H523 C549 0.950 . S
H524 C550 0.950 . S
H525 C552 0.950 . S
H526 C555 0.950 . S
H527 C556 0.950 . S
H528 C558 0.950 . S
H529 C559 0.950 . S
C530 H512 0.951 . S
C530 C531 1.366 . S
C530 C532 1.388 . S
C531 C530 1.366 . S
C531 C535 1.385 . S
C532 H513 0.951 . S
C532 C530 1.388 . S
C532 C533 1.366 . S
C533 C532 1.366 . S
C533 C534 1.414 . S
C533 C536 1.499 . S
C534 H514 0.950 . S
C534 C533 1.414 . S
C534 C535 1.374 . S
C535 H515 0.950 . S
C535 C531 1.385 . S
C535 C534 1.374 . S
C536 C533 1.499 . S
C536 C537 1.373 . S
C536 C538 1.389 . S
C537 H516 0.950 . S
C537 C536 1.373 . S
C537 C553 1.377 . S
C538 C536 1.389 . S
C538 C539 1.524 . S
C538 C552 1.377 . S
C539 C538 1.524 . S
C539 C540 1.397 . S
C539 C544 1.363 . S
C540 H517 0.950 . S
C540 C539 1.397 . S
C540 C541 1.334 . S
C541 H518 0.950 . S
C541 C540 1.334 . S
C541 C542 1.287 . S
C542 C541 1.287 . S
C542 C543 1.524 . S
C542 H561 0.913 . S
C543 H519 0.950 . S
C543 C542 1.524 . S
C543 C544 1.415 . S
C544 H520 0.950 . S
C544 C539 1.363 . S
C544 C543 1.415 . S
C545 H521 0.951 . S
C545 C546 1.366 . S
C545 C547 1.388 . S
C546 C545 1.366 . S
C546 C550 1.385 . S
C547 H522 0.951 . S
C547 C545 1.388 . S
C547 C548 1.366 . S
C548 C547 1.366 . S
C548 C549 1.414 . S
C548 C551 1.499 . S
C549 H523 0.950 . S
C549 C548 1.414 . S
C549 C550 1.374 . S
C550 H524 0.950 . S
C550 C546 1.385 . S
C550 C549 1.374 . S
C551 C548 1.499 . S
C551 C552 1.373 . S
C551 C553 1.389 . S
C552 H525 0.950 . S
C552 C538 1.377 . S
C552 C551 1.373 . S
C553 C537 1.377 . S
C553 C551 1.389 . S
C553 C554 1.524 . S
C554 C553 1.524 . S
C554 C555 1.397 . S
C554 C559 1.363 . S
C555 H526 0.950 . S
C555 C554 1.397 . S
C555 C556 1.334 . S
C556 H527 0.950 . S
C556 C555 1.334 . S
C556 C557 1.287 . S
C557 C556 1.287 . S
C557 C558 1.524 . S
C557 H560 0.999 . S
C558 H528 0.950 . S
C558 C557 1.524 . S
C558 C559 1.415 . S
C559 H529 0.950 . S
C559 C554 1.363 . S
C559 C558 1.415 . S
H560 C557 0.999 . S
H561 C542 0.913 . S
H562 C580 0.951 . S
H563 C582 0.951 . S
H564 C584 0.950 . S
H565 C585 0.950 . S
H566 C587 0.950 . S
H567 C590 0.950 . S
H568 C591 0.950 . S
H569 C593 0.950 . S
H570 C594 0.950 . S
H571 C595 0.951 . S
H572 C597 0.951 . S
H573 C599 0.950 . S
H574 C600 0.950 . S
H575 C602 0.950 . S
H576 C605 0.950 1_565 S
H577 C606 0.950 . S
H578 C608 0.950 . S
H579 C609 0.950 . S
C580 H562 0.951 . S
C580 C581 1.366 . S
C580 C582 1.388 . S
C581 C580 1.366 . S
C581 C585 1.385 . S
C582 H563 0.951 . S
C582 C580 1.388 . S
C582 C583 1.366 . S
C583 C582 1.366 . S
C583 C584 1.414 . S
C583 C586 1.499 . S
C584 H564 0.950 . S
C584 C583 1.414 . S
C584 C585 1.374 . S
C585 H565 0.950 . S
C585 C581 1.385 . S
C585 C584 1.374 . S
C586 C583 1.499 . S
C586 C587 1.373 . S
C586 C588 1.389 . S
C587 H566 0.950 . S
C587 C586 1.373 . S
C587 C603 1.377 . S
C588 C586 1.389 . S
C588 C589 1.524 . S
C588 C602 1.377 . S
C589 C588 1.524 . S
C589 C590 1.397 . S
C589 C594 1.363 . S
C590 H567 0.950 . S
C590 C589 1.397 . S
C590 C591 1.334 . S
C591 H568 0.950 . S
C591 C590 1.334 . S
C591 C592 1.287 . S
C592 C591 1.287 . S
C592 C593 1.524 . S
C592 H611 0.913 . S
C593 H569 0.950 . S
C593 C592 1.524 . S
C593 C594 1.415 . S
C594 H570 0.950 . S
C594 C589 1.363 . S
C594 C593 1.415 . S
C595 H571 0.951 . S
C595 C596 1.366 . S
C595 C597 1.388 . S
C596 C595 1.366 . S
C596 C600 1.385 1_545 S
C597 H572 0.951 . S
C597 C595 1.388 . S
C597 C598 1.366 1_545 S
C598 C597 1.366 1_565 S
C598 C599 1.414 . S
C598 C601 1.499 . S
C599 H573 0.950 . S
C599 C598 1.414 . S
C599 C600 1.374 . S
C600 H574 0.950 . S
C600 C596 1.385 1_565 S
C600 C599 1.374 . S
C601 C598 1.499 . S
C601 C602 1.373 . S
C601 C603 1.389 . S
C602 H575 0.950 . S
C602 C588 1.377 . S
C602 C601 1.373 . S
C603 C587 1.377 . S
C603 C601 1.389 . S
C603 C604 1.524 1_565 S
C604 C603 1.524 1_545 S
C604 C605 1.397 . S
C604 C609 1.363 . S
C605 H576 0.950 1_545 S
C605 C604 1.397 . S
C605 C606 1.334 . S
C606 H577 0.950 . S
C606 C605 1.334 . S
C606 C607 1.287 . S
C607 C606 1.287 . S
C607 C608 1.524 . S
C607 H610 0.999 . S
C608 H578 0.950 . S
C608 C607 1.524 . S
C608 C609 1.415 . S
C609 H579 0.950 . S
C609 C604 1.363 . S
C609 C608 1.415 . S
H610 C607 0.999 . S
H611 C592 0.913 . S
H612 C630 0.951 . S
H613 C632 0.951 . S
H614 C634 0.950 . S
H615 C635 0.950 . S
H616 C637 0.950 . S
H617 C640 0.950 . S
H618 C641 0.950 . S
H619 C643 0.950 . S
H620 C644 0.950 . S
H621 C645 0.951 . S
H622 C647 0.951 . S
H623 C649 0.950 . S
H624 C650 0.950 1_554 S
H625 C652 0.950 . S
H626 C655 0.938 1_554 S
H627 C656 0.950 . S
H628 C658 0.950 . S
H629 C659 0.950 . S
C630 H612 0.951 . S
C630 C631 1.366 . S
C630 C632 1.388 . S
C631 C630 1.366 . S
C631 C635 1.385 . S
C632 H613 0.951 . S
C632 C630 1.388 . S
C632 C633 1.366 . S
C633 C632 1.366 . S
C633 C634 1.414 . S
C633 C636 1.499 . S
C634 H614 0.950 . S
C634 C633 1.414 . S
C634 C635 1.374 . S
C635 H615 0.950 . S
C635 C631 1.385 . S
C635 C634 1.374 . S
C636 C633 1.499 . S
C636 C637 1.373 . S
C636 C638 1.389 . S
C637 H616 0.950 . S
C637 C636 1.373 . S
C637 C653 1.377 . S
C638 C636 1.389 . S
C638 C639 1.524 . S
C638 C652 1.377 . S
C639 C638 1.524 . S
C639 C640 1.397 . S
C639 C644 1.363 . S
C640 H617 0.950 . S
C640 C639 1.397 . S
C640 C641 1.334 . S
C641 H618 0.950 . S
C641 C640 1.334 . S
C641 C642 1.287 . S
C642 C641 1.287 . S
C642 C643 1.524 . S
C642 H661 0.913 . S
C643 H619 0.950 . S
C643 C642 1.524 . S
C643 C644 1.415 . S
C644 H620 0.950 . S
C644 C639 1.363 . S
C644 C643 1.415 . S
C645 H621 0.951 . S
C645 C646 1.366 . S
C645 C647 1.388 . S
C646 C645 1.366 . S
C646 C650 1.385 . S
C647 H622 0.951 . S
C647 C645 1.388 . S
C647 C648 1.366 . S
C648 C647 1.366 . S
C648 C649 1.414 . S
C648 C651 1.499 . S
C649 H623 0.950 . S
C649 C648 1.414 . S
C649 C650 1.374 . S
C650 H624 0.950 1_556 S
C650 C646 1.385 . S
C650 C649 1.374 . S
C651 C648 1.499 . S
C651 C652 1.373 . S
C651 C653 1.389 . S
C652 H625 0.950 . S
C652 C638 1.377 . S
C652 C651 1.373 . S
C653 C637 1.377 . S
C653 C651 1.389 . S
C653 C654 1.524 . S
C654 C653 1.524 . S
C654 C655 1.432 . S
C654 C659 1.363 . S
C655 H626 0.938 1_556 S
C655 C654 1.432 . S
C655 C656 1.311 1_556 S
C656 H627 0.950 . S
C656 C655 1.311 1_554 S
C656 C657 1.287 . S
C657 C656 1.287 . S
C657 C658 1.524 1_554 S
C657 H660 0.999 . S
C658 H628 0.950 . S
C658 C657 1.524 1_556 S
C658 C659 1.415 . S
C659 H629 0.950 . S
C659 C654 1.363 . S
C659 C658 1.415 . S
H660 C657 0.999 . S
H661 C642 0.913 . S
H662 C680 0.951 . S
H663 C682 0.951 . S
H664 C684 0.950 . S
H665 C685 0.950 . S
H666 C687 0.950 . S
H667 C690 0.950 . S
H668 C691 0.950 . S
H669 C693 0.950 . S
H670 C694 0.950 . S
H671 C695 0.951 . S
H672 C697 0.951 . S
H673 C699 0.950 . S
H674 C700 0.950 . S
H675 C702 0.950 . S
H676 C705 0.950 . S
H677 C706 0.950 . S
H678 C708 0.950 . S
H679 C709 0.950 . S
C680 H662 0.951 . S
C680 C681 1.366 . S
C680 C682 1.388 . S
C681 C680 1.366 . S
C681 C685 1.385 . S
C682 H663 0.951 . S
C682 C680 1.388 . S
C682 C683 1.366 . S
C683 C682 1.366 . S
C683 C684 1.414 . S
C683 C686 1.499 . S
C684 H664 0.950 . S
C684 C683 1.414 . S
C684 C685 1.374 . S
C685 H665 0.950 . S
C685 C681 1.385 . S
C685 C684 1.374 . S
C686 C683 1.499 . S
C686 C687 1.373 . S
C686 C688 1.389 . S
C687 H666 0.950 . S
C687 C686 1.373 . S
C687 C703 1.377 . S
C688 C686 1.389 . S
C688 C689 1.524 . S
C688 C702 1.377 . S
C689 C688 1.524 . S
C689 C690 1.397 . S
C689 C694 1.363 . S
C690 H667 0.950 . S
C690 C689 1.397 . S
C690 C691 1.334 . S
C691 H668 0.950 . S
C691 C690 1.334 . S
C691 C692 1.287 . S
C692 C691 1.287 . S
C692 C693 1.524 . S
C692 H711 0.913 . S
C693 H669 0.950 . S
C693 C692 1.524 . S
C693 C694 1.415 . S
C694 H670 0.950 . S
C694 C689 1.363 . S
C694 C693 1.415 . S
C695 H671 0.951 . S
C695 C696 1.366 . S
C695 C697 1.388 . S
C696 C695 1.366 . S
C696 C700 1.385 . S
C697 H672 0.951 . S
C697 C695 1.388 . S
C697 C698 1.366 . S
C698 C697 1.366 . S
C698 C699 1.414 . S
C698 C701 1.499 . S
C699 H673 0.950 . S
C699 C698 1.414 . S
C699 C700 1.374 . S
C700 H674 0.950 . S
C700 C696 1.385 . S
C700 C699 1.374 . S
C701 C698 1.499 . S
C701 C702 1.373 . S
C701 C703 1.389 . S
C702 H675 0.950 . S
C702 C688 1.377 . S
C702 C701 1.373 . S
C703 C687 1.377 . S
C703 C701 1.389 . S
C703 C704 1.524 . S
C704 C703 1.524 . S
C704 C705 1.397 . S
C704 C709 1.363 . S
C705 H676 0.950 . S
C705 C704 1.397 . S
C705 C706 1.334 . S
C706 H677 0.950 . S
C706 C705 1.334 . S
C706 C707 1.287 . S
C707 C706 1.287 . S
C707 C708 1.524 . S
C707 H710 0.999 . S
C708 H678 0.950 . S
C708 C707 1.524 . S
C708 C709 1.415 . S
C709 H679 0.950 . S
C709 C704 1.363 . S
C709 C708 1.415 . S
H710 C707 0.999 . S
H711 C692 0.913 . S
H712 C730 0.951 . S
H713 C732 0.951 . S
H714 C734 0.950 . S
H715 C735 0.950 . S
H716 C737 0.950 . S
H717 C740 0.950 . S
H718 C741 0.950 . S
H719 C743 0.950 . S
H720 C744 0.950 . S
H721 C745 0.951 . S
H722 C747 0.951 . S
H723 C749 0.950 . S
H724 C750 0.950 . S
H725 C752 0.950 . S
H726 C755 0.950 . S
H727 C756 0.950 . S
H728 C758 0.950 . S
H729 C759 0.950 . S
C730 H712 0.951 . S
C730 C731 1.366 . S
C730 C732 1.388 . S
C731 C730 1.366 . S
C731 C735 1.385 . S
C732 H713 0.951 . S
C732 C730 1.388 . S
C732 C733 1.366 . S
C733 C732 1.366 . S
C733 C734 1.414 . S
C733 C736 1.499 . S
C734 H714 0.950 . S
C734 C733 1.414 . S
C734 C735 1.374 . S
C735 H715 0.950 . S
C735 C731 1.385 . S
C735 C734 1.374 . S
C736 C733 1.499 . S
C736 C737 1.373 . S
C736 C738 1.389 . S
C737 H716 0.950 . S
C737 C736 1.373 . S
C737 C753 1.377 . S
C738 C736 1.389 . S
C738 C739 1.524 . S
C738 C752 1.377 . S
C739 C738 1.524 . S
C739 C740 1.397 . S
C739 C744 1.363 . S
C740 H717 0.950 . S
C740 C739 1.397 . S
C740 C741 1.334 . S
C741 H718 0.950 . S
C741 C740 1.334 . S
C741 C742 1.287 . S
C742 C741 1.287 . S
C742 C743 1.524 . S
C742 H761 0.913 . S
C743 H719 0.950 . S
C743 C742 1.524 . S
C743 C744 1.415 . S
C744 H720 0.950 . S
C744 C739 1.363 . S
C744 C743 1.415 . S
C745 H721 0.951 . S
C745 C746 1.366 . S
C745 C747 1.388 . S
C746 C745 1.366 . S
C746 C750 1.385 . S
C747 H722 0.951 . S
C747 C745 1.388 . S
C747 C748 1.366 . S
C748 C747 1.366 . S
C748 C749 1.414 . S
C748 C751 1.499 . S
C749 H723 0.950 . S
C749 C748 1.414 . S
C749 C750 1.374 . S
C750 H724 0.950 . S
C750 C746 1.385 . S
C750 C749 1.374 . S
C751 C748 1.499 . S
C751 C752 1.373 . S
C751 C753 1.389 . S
C752 H725 0.950 . S
C752 C738 1.377 . S
C752 C751 1.373 . S
C753 C737 1.377 . S
C753 C751 1.389 . S
C753 C754 1.524 . S
C754 C753 1.524 . S
C754 C755 1.397 . S
C754 C759 1.363 . S
C755 H726 0.950 . S
C755 C754 1.397 . S
C755 C756 1.334 . S
C756 H727 0.950 . S
C756 C755 1.334 . S
C756 C757 1.287 . S
C757 C756 1.287 . S
C757 C758 1.524 . S
C757 H760 0.999 . S
C758 H728 0.950 . S
C758 C757 1.524 . S
C758 C759 1.415 . S
C759 H729 0.950 . S
C759 C754 1.363 . S
C759 C758 1.415 . S
H760 C757 0.999 . S
H761 C742 0.913 . S
H762 C780 0.951 . S
H763 C782 0.951 . S
H764 C784 0.950 . S
H765 C785 0.950 . S
H766 C787 0.950 . S
H767 C790 0.950 . S
H768 C791 0.950 . S
H769 C793 0.950 . S
H770 C794 0.950 . S
H771 C795 0.951 . S
H772 C797 0.951 . S
H773 C799 0.950 . S
H774 C800 0.950 1_556 S
H775 C802 0.950 . S
H776 C805 0.950 . S
H777 C806 0.950 . S
H778 C808 0.950 . S
H779 C809 0.950 . S
C780 H762 0.951 . S
C780 C781 1.366 . S
C780 C782 1.388 . S
C781 C780 1.366 . S
C781 C785 1.385 . S
C782 H763 0.951 . S
C782 C780 1.388 . S
C782 C783 1.366 . S
C783 C782 1.366 . S
C783 C784 1.414 . S
C783 C786 1.499 . S
C784 H764 0.950 . S
C784 C783 1.414 . S
C784 C785 1.374 . S
C785 H765 0.950 . S
C785 C781 1.385 . S
C785 C784 1.374 . S
C786 C783 1.499 . S
C786 C787 1.373 . S
C786 C788 1.389 . S
C787 H766 0.950 . S
C787 C786 1.373 . S
C787 C803 1.382 . S
C788 C786 1.389 . S
C788 C789 1.524 . S
C788 C802 1.377 . S
C789 C788 1.524 . S
C789 C790 1.397 . S
C789 C794 1.363 . S
C790 H767 0.950 . S
C790 C789 1.397 . S
C790 C791 1.334 . S
C791 H768 0.950 . S
C791 C790 1.334 . S
C791 C792 1.287 . S
C792 C791 1.287 . S
C792 C793 1.524 . S
C792 H811 0.913 . S
C793 H769 0.950 . S
C793 C792 1.524 . S
C793 C794 1.415 . S
C794 H770 0.950 . S
C794 C789 1.363 . S
C794 C793 1.415 . S
C795 H771 0.951 . S
C795 C796 1.366 . S
C795 C797 1.388 . S
C796 C795 1.366 . S
C796 C800 1.385 . S
C797 H772 0.951 . S
C797 C795 1.388 . S
C797 C798 1.366 . S
C798 C797 1.366 . S
C798 C799 1.414 1_554 S
C798 C801 1.499 1_554 S
C799 H773 0.950 . S
C799 C798 1.414 1_556 S
C799 C800 1.374 1_556 S
C800 H774 0.950 1_554 S
C800 C796 1.385 . S
C800 C799 1.374 1_554 S
C801 C798 1.499 1_556 S
C801 C802 1.373 . S
C801 C803 1.394 . S
C802 H775 0.950 . S
C802 C788 1.377 . S
C802 C801 1.373 . S
C803 C787 1.382 . S
C803 C801 1.394 . S
C803 C804 1.514 1_556 S
C804 C803 1.514 1_554 S
C804 C805 1.397 . S
C804 C809 1.363 . S
C805 H776 0.950 . S
C805 C804 1.397 . S
C805 C806 1.334 . S
C806 H777 0.950 . S
C806 C805 1.334 . S
C806 C807 1.287 . S
C807 C806 1.287 . S
C807 C808 1.524 . S
C807 H810 0.999 . S
C808 H778 0.950 . S
C808 C807 1.524 . S
C808 C809 1.415 . S
C809 H779 0.950 . S
C809 C804 1.363 . S
C809 C808 1.415 . S
H810 C807 0.999 . S
H811 C792 0.913 . S
H812 C830 0.951 . S
H813 C832 0.951 . S
H814 C834 0.950 . S
H815 C835 0.950 . S
H816 C837 0.950 . S
H817 C840 0.950 . S
H818 C841 0.950 . S
H819 C843 0.950 . S
H820 C844 0.950 . S
H821 C845 0.951 . S
H822 C847 0.951 . S
H823 C849 0.950 . S
H824 C850 0.950 . S
H825 C852 0.950 . S
H826 C855 0.950 . S
H827 C856 0.950 . S
H828 C858 0.950 . S
H829 C859 0.950 . S
C830 H812 0.951 . S
C830 C831 1.366 . S
C830 C832 1.388 . S
C831 C830 1.366 . S
C831 C835 1.385 . S
C832 H813 0.951 . S
C832 C830 1.388 . S
C832 C833 1.366 . S
C833 C832 1.366 . S
C833 C834 1.414 . S
C833 C836 1.499 . S
C834 H814 0.950 . S
C834 C833 1.414 . S
C834 C835 1.374 . S
C835 H815 0.950 . S
C835 C831 1.385 . S
C835 C834 1.374 . S
C836 C833 1.499 . S
C836 C837 1.373 . S
C836 C838 1.389 . S
C837 H816 0.950 . S
C837 C836 1.373 . S
C837 C853 1.377 . S
C838 C836 1.389 . S
C838 C839 1.524 . S
C838 C852 1.377 . S
C839 C838 1.524 . S
C839 C840 1.397 . S
C839 C844 1.363 . S
C840 H817 0.950 . S
C840 C839 1.397 . S
C840 C841 1.334 . S
C841 H818 0.950 . S
C841 C840 1.334 . S
C841 C842 1.287 . S
C842 C841 1.287 . S
C842 C843 1.524 . S
C842 H861 0.913 . S
C843 H819 0.950 . S
C843 C842 1.524 . S
C843 C844 1.415 . S
C844 H820 0.950 . S
C844 C839 1.363 . S
C844 C843 1.415 . S
C845 H821 0.951 . S
C845 C846 1.366 . S
C845 C847 1.388 . S
C846 C845 1.366 . S
C846 C850 1.385 . S
C847 H822 0.951 . S
C847 C845 1.388 . S
C847 C848 1.366 . S
C848 C847 1.366 . S
C848 C849 1.414 . S
C848 C851 1.499 . S
C849 H823 0.950 . S
C849 C848 1.414 . S
C849 C850 1.374 . S
C850 H824 0.950 . S
C850 C846 1.385 . S
C850 C849 1.374 . S
C851 C848 1.499 . S
C851 C852 1.373 . S
C851 C853 1.389 . S
C852 H825 0.950 . S
C852 C838 1.377 . S
C852 C851 1.373 . S
C853 C837 1.377 . S
C853 C851 1.389 . S
C853 C854 1.524 . S
C854 C853 1.524 . S
C854 C855 1.397 . S
C854 C859 1.363 . S
C855 H826 0.950 . S
C855 C854 1.397 . S
C855 C856 1.334 1_655 S
C856 H827 0.950 . S
C856 C855 1.334 1_455 S
C856 C857 1.287 . S
C857 C856 1.287 . S
C857 C858 1.524 . S
C857 H860 0.999 . S
C858 H828 0.950 . S
C858 C857 1.524 . S
C858 C859 1.415 1_455 S
C859 H829 0.950 . S
C859 C854 1.363 . S
C859 C858 1.415 1_655 S
H860 C857 0.999 . S
H861 C842 0.913 . S
H862 C880 0.951 . S
H863 C882 0.951 . S
H864 C884 0.950 . S
H865 C885 0.950 . S
H866 C887 0.950 . S
H867 C890 0.950 . S
H868 C891 0.950 . S
H869 C893 0.950 . S
H870 C894 0.950 . S
H871 C895 0.951 . S
H872 C897 0.951 . S
H873 C899 0.950 . S
H874 C900 0.950 . S
H875 C902 0.950 . S
H876 C905 0.950 . S
H877 C906 0.950 . S
H878 C908 0.950 . S
H879 C909 0.950 . S
C880 H862 0.951 . S
C880 C881 1.366 . S
C880 C882 1.388 . S
C881 C880 1.366 . S
C881 C885 1.385 . S
C882 H863 0.951 . S
C882 C880 1.388 . S
C882 C883 1.366 . S
C883 C882 1.366 . S
C883 C884 1.414 . S
C883 C886 1.499 . S
C884 H864 0.950 . S
C884 C883 1.414 . S
C884 C885 1.374 . S
C885 H865 0.950 . S
C885 C881 1.385 . S
C885 C884 1.374 . S
C886 C883 1.499 . S
C886 C887 1.373 . S
C886 C888 1.389 . S
C887 H866 0.950 . S
C887 C886 1.373 . S
C887 C903 1.377 . S
C888 C886 1.389 . S
C888 C889 1.524 . S
C888 C902 1.377 . S
C889 C888 1.524 . S
C889 C890 1.397 . S
C889 C894 1.363 . S
C890 H867 0.950 . S
C890 C889 1.397 . S
C890 C891 1.334 . S
C891 H868 0.950 . S
C891 C890 1.334 . S
C891 C892 1.287 . S
C892 C891 1.287 . S
C892 C893 1.524 . S
C892 H911 0.913 . S
C893 H869 0.950 . S
C893 C892 1.524 . S
C893 C894 1.415 . S
C894 H870 0.950 . S
C894 C889 1.363 . S
C894 C893 1.415 . S
C895 H871 0.951 . S
C895 C896 1.366 . S
C895 C897 1.388 . S
C896 C895 1.366 . S
C896 C900 1.385 . S
C897 H872 0.951 . S
C897 C895 1.388 . S
C897 C898 1.366 . S
C898 C897 1.366 . S
C898 C899 1.414 . S
C898 C901 1.499 . S
C899 H873 0.950 . S
C899 C898 1.414 . S
C899 C900 1.374 . S
C900 H874 0.950 . S
C900 C896 1.385 . S
C900 C899 1.374 . S
C901 C898 1.499 . S
C901 C902 1.373 . S
C901 C903 1.389 . S
C902 H875 0.950 . S
C902 C888 1.377 . S
C902 C901 1.373 . S
C903 C887 1.377 . S
C903 C901 1.389 . S
C903 C904 1.524 . S
C904 C903 1.524 . S
C904 C905 1.397 . S
C904 C909 1.363 . S
C905 H876 0.950 . S
C905 C904 1.397 . S
C905 C906 1.334 . S
C906 H877 0.950 . S
C906 C905 1.334 . S
C906 C907 1.287 . S
C907 C906 1.287 . S
C907 C908 1.524 . S
C907 H910 0.999 . S
C908 H878 0.950 . S
C908 C907 1.524 . S
C908 C909 1.415 . S
C909 H879 0.950 . S
C909 C904 1.363 . S
C909 C908 1.415 . S
H910 C907 0.999 . S
H911 C892 0.913 . S
H912 C930 0.951 . S
H913 C932 0.951 . S
H914 C934 0.950 . S
H915 C935 0.950 . S
H916 C937 0.950 . S
H917 C940 0.950 . S
H918 C941 0.950 . S
H919 C943 0.950 . S
H920 C944 0.950 . S
H921 C945 0.951 . S
H922 C947 0.951 . S
H923 C949 0.950 . S
H924 C950 0.950 . S
H925 C952 0.950 . S
H926 C955 0.950 . S
H927 C956 0.950 . S
H928 C958 0.950 . S
H929 C959 0.950 . S
C930 H912 0.951 . S
C930 C931 1.366 . S
C930 C932 1.388 . S
C931 C930 1.366 . S
C931 C935 1.385 . S
C932 H913 0.951 . S
C932 C930 1.388 . S
C932 C933 1.366 . S
C933 C932 1.366 . S
C933 C934 1.414 . S
C933 C936 1.499 . S
C934 H914 0.950 . S
C934 C933 1.414 . S
C934 C935 1.374 . S
C935 H915 0.950 . S
C935 C931 1.385 . S
C935 C934 1.374 . S
C936 C933 1.499 . S
C936 C937 1.373 . S
C936 C938 1.389 . S
C937 H916 0.950 . S
C937 C936 1.373 . S
C937 C953 1.377 . S
C938 C936 1.389 . S
C938 C939 1.524 . S
C938 C952 1.377 . S
C939 C938 1.524 . S
C939 C940 1.397 . S
C939 C944 1.363 . S
C940 H917 0.950 . S
C940 C939 1.397 . S
C940 C941 1.334 . S
C941 H918 0.950 . S
C941 C940 1.334 . S
C941 C942 1.287 . S
C942 C941 1.287 . S
C942 C943 1.524 . S
C942 H961 0.913 . S
C943 H919 0.950 . S
C943 C942 1.524 . S
C943 C944 1.415 . S
C944 H920 0.950 . S
C944 C939 1.363 . S
C944 C943 1.415 . S
C945 H921 0.951 . S
C945 C946 1.366 . S
C945 C947 1.388 . S
C946 C945 1.366 . S
C946 C950 1.385 . S
C947 H922 0.951 . S
C947 C945 1.388 . S
C947 C948 1.366 . S
C948 C947 1.366 . S
C948 C949 1.414 . S
C948 C951 1.499 . S
C949 H923 0.950 . S
C949 C948 1.414 . S
C949 C950 1.374 . S
C950 H924 0.950 . S
C950 C946 1.385 . S
C950 C949 1.374 . S
C951 C948 1.499 . S
C951 C952 1.373 . S
C951 C953 1.389 . S
C952 H925 0.950 . S
C952 C938 1.377 . S
C952 C951 1.373 . S
C953 C937 1.377 . S
C953 C951 1.389 . S
C953 C954 1.524 . S
C954 C953 1.524 . S
C954 C955 1.397 . S
C954 C959 1.363 . S
C955 H926 0.950 . S
C955 C954 1.397 . S
C955 C956 1.334 . S
C956 H927 0.950 . S
C956 C955 1.334 . S
C956 C957 1.287 . S
C957 C956 1.287 . S
C957 C958 1.524 . S
C957 H960 0.999 . S
C958 H928 0.950 . S
C958 C957 1.524 . S
C958 C959 1.415 . S
C959 H929 0.950 . S
C959 C954 1.363 . S
C959 C958 1.415 . S
H960 C957 0.999 . S
H961 C942 0.913 . S
H962 C980 0.951 . S
H963 C982 0.951 . S
H964 C984 0.950 . S
H965 C985 0.950 . S
H966 C987 0.950 . S
H967 C990 0.950 . S
H968 C991 0.950 . S
H969 C993 0.950 . S
H970 C994 0.950 . S
H971 C995 0.951 . S
H972 C997 0.951 . S
H973 C999 0.950 . S
H974 C1000 0.950 . S
H975 C1002 0.950 . S
H976 C1005 0.950 . S
H977 C1006 0.950 . S
H978 C1008 0.950 . S
H979 C1009 0.950 . S
C980 H962 0.951 . S
C980 C981 1.366 . S
C980 C982 1.388 . S
C981 C980 1.366 . S
C981 C985 1.385 . S
C982 H963 0.951 . S
C982 C980 1.388 . S
C982 C983 1.366 . S
C983 C982 1.366 . S
C983 C984 1.414 . S
C983 C986 1.499 . S
C984 H964 0.950 . S
C984 C983 1.414 . S
C984 C985 1.374 . S
C985 H965 0.950 . S
C985 C981 1.385 . S
C985 C984 1.374 . S
C986 C983 1.499 . S
C986 C987 1.373 . S
C986 C988 1.389 . S
C987 H966 0.950 . S
C987 C986 1.373 . S
C987 C1003 1.377 . S
C988 C986 1.389 . S
C988 C989 1.524 . S
C988 C1002 1.377 . S
C989 C988 1.524 . S
C989 C990 1.397 . S
C989 C994 1.363 . S
C990 H967 0.950 . S
C990 C989 1.397 . S
C990 C991 1.334 . S
C991 H968 0.950 . S
C991 C990 1.334 . S
C991 C992 1.287 . S
C992 C991 1.287 . S
C992 C993 1.524 . S
C992 H1011 0.913 . S
C993 H969 0.950 . S
C993 C992 1.524 . S
C993 C994 1.415 . S
C994 H970 0.950 . S
C994 C989 1.363 . S
C994 C993 1.415 . S
C995 H971 0.951 . S
C995 C996 1.366 . S
C995 C997 1.388 . S
C996 C995 1.366 . S
C996 C1000 1.385 . S
C997 H972 0.951 . S
C997 C995 1.388 . S
C997 C998 1.366 . S
C998 C997 1.366 . S
C998 C999 1.414 . S
C998 C1001 1.499 . S
C999 H973 0.950 . S
C999 C998 1.414 . S
C999 C1000 1.374 . S
C1000 H974 0.950 . S
C1000 C996 1.385 . S
C1000 C999 1.374 . S
C1001 C998 1.499 . S
C1001 C1002 1.373 . S
C1001 C1003 1.389 . S
C1002 H975 0.950 . S
C1002 C988 1.377 . S
C1002 C1001 1.373 . S
C1003 C987 1.377 . S
C1003 C1001 1.389 . S
C1003 C1004 1.524 . S
C1004 C1003 1.524 . S
C1004 C1005 1.397 . S
C1004 C1009 1.363 . S
C1005 H976 0.950 . S
C1005 C1004 1.397 . S
C1005 C1006 1.334 . S
C1006 H977 0.950 . S
C1006 C1005 1.334 . S
C1006 C1007 1.287 . S
C1007 C1006 1.287 . S
C1007 C1008 1.524 . S
C1007 H1010 0.999 . S
C1008 H978 0.950 . S
C1008 C1007 1.524 . S
C1008 C1009 1.415 . S
C1009 H979 0.950 . S
C1009 C1004 1.363 . S
C1009 C1008 1.415 . S
H1010 C1007 0.999 . S
H1011 C992 0.913 . S
H1012 C1030 0.951 . S
H1013 C1032 0.951 . S
H1014 C1034 0.950 . S
H1015 C1035 0.950 . S
H1016 C1037 0.950 . S
H1017 C1040 0.950 . S
H1018 C1041 0.950 . S
H1019 C1043 0.950 . S
H1020 C1044 0.950 . S
H1021 C1045 0.951 . S
H1022 C1047 0.951 . S
H1023 C1049 0.950 . S
H1024 C1050 0.950 . S
H1025 C1052 0.950 . S
H1026 C1055 0.950 . S
H1027 C1056 0.950 . S
H1028 C1058 0.950 . S
H1029 C1059 0.950 . S
C1030 H1012 0.951 . S
C1030 C1031 1.366 . S
C1030 C1032 1.388 . S
C1031 C1030 1.366 . S
C1031 C1035 1.385 . S
C1032 H1013 0.951 . S
C1032 C1030 1.388 . S
C1032 C1033 1.366 . S
C1033 C1032 1.366 . S
C1033 C1034 1.414 . S
C1033 C1036 1.499 . S
C1034 H1014 0.950 . S
C1034 C1033 1.414 . S
C1034 C1035 1.374 . S
C1035 H1015 0.950 . S
C1035 C1031 1.385 . S
C1035 C1034 1.374 . S
C1036 C1033 1.499 . S
C1036 C1037 1.373 . S
C1036 C1038 1.389 . S
C1037 H1016 0.950 . S
C1037 C1036 1.373 . S
C1037 C1053 1.377 . S
C1038 C1036 1.389 . S
C1038 C1039 1.524 . S
C1038 C1052 1.377 . S
C1039 C1038 1.524 . S
C1039 C1040 1.397 . S
C1039 C1044 1.363 . S
C1040 H1017 0.950 . S
C1040 C1039 1.397 . S
C1040 C1041 1.334 . S
C1041 H1018 0.950 . S
C1041 C1040 1.334 . S
C1041 C1042 1.287 . S
C1042 C1041 1.287 . S
C1042 C1043 1.524 . S
C1042 H1061 0.913 . S
C1043 H1019 0.950 . S
C1043 C1042 1.524 . S
C1043 C1044 1.415 . S
C1044 H1020 0.950 . S
C1044 C1039 1.363 . S
C1044 C1043 1.415 . S
C1045 H1021 0.951 . S
C1045 C1046 1.366 . S
C1045 C1047 1.388 . S
C1046 C1045 1.366 . S
C1046 C1050 1.385 . S
C1047 H1022 0.951 . S
C1047 C1045 1.388 . S
C1047 C1048 1.366 . S
C1048 C1047 1.366 . S
C1048 C1049 1.414 . S
C1048 C1051 1.499 . S
C1049 H1023 0.950 . S
C1049 C1048 1.414 . S
C1049 C1050 1.374 . S
C1050 H1024 0.950 . S
C1050 C1046 1.385 . S
C1050 C1049 1.374 . S
C1051 C1048 1.499 . S
C1051 C1052 1.373 . S
C1051 C1053 1.389 . S
C1052 H1025 0.950 . S
C1052 C1038 1.377 . S
C1052 C1051 1.373 . S
C1053 C1037 1.377 . S
C1053 C1051 1.389 . S
C1053 C1054 1.524 . S
C1054 C1053 1.524 . S
C1054 C1055 1.397 . S
C1054 C1059 1.363 . S
C1055 H1026 0.950 . S
C1055 C1054 1.397 . S
C1055 C1056 1.334 . S
C1056 H1027 0.950 . S
C1056 C1055 1.334 . S
C1056 C1057 1.287 . S
C1057 C1056 1.287 . S
C1057 C1058 1.524 . S
C1057 H1060 0.999 . S
C1058 H1028 0.950 . S
C1058 C1057 1.524 . S
C1058 C1059 1.415 . S
C1059 H1029 0.950 . S
C1059 C1054 1.363 . S
C1059 C1058 1.415 . S
H1060 C1057 0.999 . S
H1061 C1042 0.913 . S
H1062 C1080 0.951 . S
H1063 C1082 0.951 . S
H1064 C1084 0.950 . S
H1065 C1085 0.950 . S
H1066 C1087 0.950 . S
H1067 C1090 0.950 . S
H1068 C1091 0.950 . S
H1069 C1093 0.950 . S
H1070 C1094 0.950 . S
H1071 C1095 0.951 . S
H1072 C1097 0.951 . S
H1073 C1099 0.950 . S
H1074 C1100 0.950 . S
H1075 C1102 0.950 . S
H1076 C1105 0.950 . S
H1077 C1106 0.950 . S
H1078 C1108 0.950 1_655 S
H1079 C1109 0.950 . S
C1080 H1062 0.951 . S
C1080 C1081 1.366 . S
C1080 C1082 1.388 . S
C1081 C1080 1.366 . S
C1081 C1085 1.385 . S
C1082 H1063 0.951 . S
C1082 C1080 1.388 . S
C1082 C1083 1.366 . S
C1083 C1082 1.366 . S
C1083 C1084 1.414 . S
C1083 C1086 1.499 . S
C1084 H1064 0.950 . S
C1084 C1083 1.414 . S
C1084 C1085 1.374 . S
C1085 H1065 0.950 . S
C1085 C1081 1.385 . S
C1085 C1084 1.374 . S
C1086 C1083 1.499 . S
C1086 C1087 1.373 . S
C1086 C1088 1.389 . S
C1087 H1066 0.950 . S
C1087 C1086 1.373 . S
C1087 C1103 1.377 . S
C1088 C1086 1.389 . S
C1088 C1089 1.524 . S
C1088 C1102 1.377 . S
C1089 C1088 1.524 . S
C1089 C1090 1.397 . S
C1089 C1094 1.363 . S
C1090 H1067 0.950 . S
C1090 C1089 1.397 . S
C1090 C1091 1.334 . S
C1091 H1068 0.950 . S
C1091 C1090 1.334 . S
C1091 C1092 1.287 . S
C1092 C1091 1.287 . S
C1092 C1093 1.524 . S
C1092 H1111 0.913 . S
C1093 H1069 0.950 . S
C1093 C1092 1.524 . S
C1093 C1094 1.415 . S
C1094 H1070 0.950 . S
C1094 C1089 1.363 . S
C1094 C1093 1.415 . S
C1095 H1071 0.951 . S
C1095 C1096 1.366 . S
C1095 C1097 1.388 . S
C1096 C1095 1.366 . S
C1096 C1100 1.385 . S
C1097 H1072 0.951 . S
C1097 C1095 1.388 . S
C1097 C1098 1.366 . S
C1098 C1097 1.366 . S
C1098 C1099 1.414 . S
C1098 C1101 1.499 . S
C1099 H1073 0.950 . S
C1099 C1098 1.414 . S
C1099 C1100 1.374 . S
C1100 H1074 0.950 . S
C1100 C1096 1.385 . S
C1100 C1099 1.374 . S
C1101 C1098 1.499 . S
C1101 C1102 1.373 . S
C1101 C1103 1.389 . S
C1102 H1075 0.950 . S
C1102 C1088 1.377 . S
C1102 C1101 1.373 . S
C1103 C1087 1.377 . S
C1103 C1101 1.389 . S
C1103 C1104 1.524 . S
C1104 C1103 1.524 . S
C1104 C1105 1.397 . S
C1104 C1109 1.363 . S
C1105 H1076 0.950 . S
C1105 C1104 1.397 . S
C1105 C1106 1.334 . S
C1106 H1077 0.950 . S
C1106 C1105 1.334 . S
C1106 C1107 1.287 . S
C1107 C1106 1.287 . S
C1107 C1108 1.524 . S
C1107 H1110 0.999 1_455 S
C1108 H1078 0.950 1_455 S
C1108 C1107 1.524 . S
C1108 C1109 1.415 . S
C1109 H1079 0.950 . S
C1109 C1104 1.363 . S
C1109 C1108 1.415 . S
H1110 C1107 0.999 1_655 S
H1111 C1092 0.913 . S
H1112 C1130 0.951 . S
H1113 C1132 0.951 . S
H1114 C1134 0.950 . S
H1115 C1135 0.950 . S
H1116 C1137 0.950 . S
H1117 C1140 0.950 . S
H1118 C1141 0.950 . S
H1119 C1143 0.950 . S
H1120 C1144 0.950 . S
H1121 C1145 0.951 . S
H1122 C1147 0.951 . S
H1123 C1149 0.950 . S
H1124 C1150 0.950 . S
H1125 C1152 0.947 1_554 S
H1126 C1155 0.950 . S
H1127 C1156 0.950 1_545 S
H1128 C1158 0.950 . S
H1129 C1159 0.950 . S
C1130 H1112 0.951 . S
C1130 C1131 1.366 . S
C1130 C1132 1.388 . S
C1131 C1130 1.366 . S
C1131 C1135 1.385 . S
C1132 H1113 0.951 . S
C1132 C1130 1.388 . S
C1132 C1133 1.366 . S
C1133 C1132 1.366 . S
C1133 C1134 1.414 . S
C1133 C1136 1.499 . S
C1134 H1114 0.950 . S
C1134 C1133 1.414 . S
C1134 C1135 1.374 . S
C1135 H1115 0.950 . S
C1135 C1131 1.385 . S
C1135 C1134 1.374 . S
C1136 C1133 1.499 . S
C1136 C1137 1.373 . S
C1136 C1138 1.389 . S
C1137 H1116 0.950 . S
C1137 C1136 1.373 . S
C1137 C1153 1.377 . S
C1138 C1136 1.389 . S
C1138 C1139 1.524 . S
C1138 C1152 1.377 . S
C1139 C1138 1.524 . S
C1139 C1140 1.397 . S
C1139 C1144 1.363 1_556 S
C1140 H1117 0.950 . S
C1140 C1139 1.397 . S
C1140 C1141 1.334 . S
C1141 H1118 0.950 . S
C1141 C1140 1.334 . S
C1141 C1142 1.287 1_556 S
C1142 C1141 1.287 1_554 S
C1142 C1143 1.524 . S
C1142 H1161 0.913 . S
C1143 H1119 0.950 . S
C1143 C1142 1.524 . S
C1143 C1144 1.415 . S
C1144 H1120 0.950 . S
C1144 C1139 1.363 1_554 S
C1144 C1143 1.415 . S
C1145 H1121 0.951 . S
C1145 C1146 1.366 1_556 S
C1145 C1147 1.388 . S
C1146 C1145 1.366 1_554 S
C1146 C1150 1.385 . S
C1147 H1122 0.951 . S
C1147 C1145 1.388 . S
C1147 C1148 1.366 . S
C1148 C1147 1.366 . S
C1148 C1149 1.414 1_556 S
C1148 C1151 1.499 . S
C1149 H1123 0.950 . S
C1149 C1148 1.414 1_554 S
C1149 C1150 1.374 . S
C1150 H1124 0.950 . S
C1150 C1146 1.385 . S
C1150 C1149 1.374 . S
C1151 C1148 1.499 . S
C1151 C1152 1.373 . S
C1151 C1153 1.389 . S
C1152 H1125 0.947 1_556 S
C1152 C1138 1.377 . S
C1152 C1151 1.373 . S
C1153 C1137 1.377 . S
C1153 C1151 1.389 . S
C1153 C1154 1.524 . S
C1154 C1153 1.524 . S
C1154 C1155 1.397 . S
C1154 C1159 1.363 . S
C1155 H1126 0.950 . S
C1155 C1154 1.397 . S
C1155 C1156 1.334 . S
C1156 H1127 0.950 1_565 S
C1156 C1155 1.334 . S
C1156 C1157 1.287 . S
C1157 C1156 1.287 . S
C1157 C1158 1.524 . S
C1157 H1160 0.999 1_565 S
C1158 H1128 0.950 . S
C1158 C1157 1.524 . S
C1158 C1159 1.415 . S
C1159 H1129 0.950 . S
C1159 C1154 1.363 . S
C1159 C1158 1.415 . S
H1160 C1157 0.999 1_545 S
H1161 C1142 0.913 . S
H1162 C1180 0.951 . S
H1163 C1182 0.951 . S
H1164 C1184 0.950 . S
H1165 C1185 0.950 . S
H1166 C1187 0.950 . S
H1167 C1190 0.950 . S
H1168 C1191 0.950 . S
H1169 C1193 0.950 . S
H1170 C1194 0.950 . S
H1171 C1195 0.951 . S
H1172 C1197 0.951 . S
H1173 C1199 0.950 . S
H1174 C1200 0.950 . S
H1175 C1202 0.950 . S
H1176 C1205 0.950 . S
H1177 C1206 0.950 . S
H1178 C1208 0.950 . S
H1179 C1209 0.950 . S
C1180 H1162 0.951 . S
C1180 C1181 1.366 . S
C1180 C1182 1.388 . S
C1181 C1180 1.366 . S
C1181 C1185 1.385 . S
C1182 H1163 0.951 . S
C1182 C1180 1.388 . S
C1182 C1183 1.366 . S
C1183 C1182 1.366 . S
C1183 C1184 1.414 . S
C1183 C1186 1.499 . S
C1184 H1164 0.950 . S
C1184 C1183 1.414 . S
C1184 C1185 1.374 . S
C1185 H1165 0.950 . S
C1185 C1181 1.385 . S
C1185 C1184 1.374 . S
C1186 C1183 1.499 . S
C1186 C1187 1.373 . S
C1186 C1188 1.389 . S
C1187 H1166 0.950 . S
C1187 C1186 1.373 . S
C1187 C1203 1.377 . S
C1188 C1186 1.389 . S
C1188 C1189 1.524 . S
C1188 C1202 1.377 . S
C1189 C1188 1.524 . S
C1189 C1190 1.397 . S
C1189 C1194 1.363 . S
C1190 H1167 0.950 . S
C1190 C1189 1.397 . S
C1190 C1191 1.334 . S
C1191 H1168 0.950 . S
C1191 C1190 1.334 . S
C1191 C1192 1.287 . S
C1192 C1191 1.287 . S
C1192 C1193 1.524 . S
C1192 H1211 0.913 . S
C1193 H1169 0.950 . S
C1193 C1192 1.524 . S
C1193 C1194 1.415 . S
C1194 H1170 0.950 . S
C1194 C1189 1.363 . S
C1194 C1193 1.415 . S
C1195 H1171 0.951 . S
C1195 C1196 1.366 . S
C1195 C1197 1.388 . S
C1196 C1195 1.366 . S
C1196 C1200 1.385 . S
C1197 H1172 0.951 . S
C1197 C1195 1.388 . S
C1197 C1198 1.366 . S
C1198 C1197 1.366 . S
C1198 C1199 1.414 . S
C1198 C1201 1.499 . S
C1199 H1173 0.950 . S
C1199 C1198 1.414 . S
C1199 C1200 1.374 . S
C1200 H1174 0.950 . S
C1200 C1196 1.385 . S
C1200 C1199 1.374 . S
C1201 C1198 1.499 . S
C1201 C1202 1.373 . S
C1201 C1203 1.389 . S
C1202 H1175 0.950 . S
C1202 C1188 1.377 . S
C1202 C1201 1.373 . S
C1203 C1187 1.377 . S
C1203 C1201 1.389 . S
C1203 C1204 1.524 . S
C1204 C1203 1.524 . S
C1204 C1205 1.397 . S
C1204 C1209 1.363 . S
C1205 H1176 0.950 . S
C1205 C1204 1.397 . S
C1205 C1206 1.334 . S
C1206 H1177 0.950 . S
C1206 C1205 1.334 . S
C1206 C1207 1.287 . S
C1207 C1206 1.287 . S
C1207 C1208 1.524 . S
C1207 H1210 0.999 . S
C1208 H1178 0.950 . S
C1208 C1207 1.524 . S
C1208 C1209 1.415 . S
C1209 H1179 0.950 . S
C1209 C1204 1.363 . S
C1209 C1208 1.415 . S
H1210 C1207 0.999 . S
H1211 C1192 0.913 . S
H1212 C1230 0.951 . S
H1213 C1232 0.951 . S
H1214 C1234 0.950 . S
H1215 C1235 0.950 . S
H1216 C1237 0.950 . S
H1217 C1240 0.950 . S
H1218 C1241 0.950 . S
H1219 C1243 0.950 . S
H1220 C1244 0.950 . S
H1221 C1245 0.951 . S
H1222 C1247 0.951 . S
H1223 C1249 0.950 . S
H1224 C1250 0.950 . S
H1225 C1252 0.950 . S
H1226 C1255 0.950 . S
H1227 C1256 0.950 . S
H1228 C1258 0.950 . S
H1229 C1259 0.950 . S
C1230 H1212 0.951 . S
C1230 C1231 1.366 . S
C1230 C1232 1.388 . S
C1231 C1230 1.366 . S
C1231 C1235 1.385 . S
C1232 H1213 0.951 . S
C1232 C1230 1.388 . S
C1232 C1233 1.366 . S
C1233 C1232 1.366 . S
C1233 C1234 1.414 . S
C1233 C1236 1.499 . S
C1234 H1214 0.950 . S
C1234 C1233 1.414 . S
C1234 C1235 1.374 . S
C1235 H1215 0.950 . S
C1235 C1231 1.385 . S
C1235 C1234 1.374 . S
C1236 C1233 1.499 . S
C1236 C1237 1.373 . S
C1236 C1238 1.389 . S
C1237 H1216 0.950 . S
C1237 C1236 1.373 . S
C1237 C1253 1.377 . S
C1238 C1236 1.389 . S
C1238 C1239 1.524 . S
C1238 C1252 1.377 . S
C1239 C1238 1.524 . S
C1239 C1240 1.397 . S
C1239 C1244 1.363 . S
C1240 H1217 0.950 . S
C1240 C1239 1.397 . S
C1240 C1241 1.334 . S
C1241 H1218 0.950 . S
C1241 C1240 1.334 . S
C1241 C1242 1.287 . S
C1242 C1241 1.287 . S
C1242 C1243 1.524 . S
C1242 H1261 0.913 . S
C1243 H1219 0.950 . S
C1243 C1242 1.524 . S
C1243 C1244 1.415 . S
C1244 H1220 0.950 . S
C1244 C1239 1.363 . S
C1244 C1243 1.415 . S
C1245 H1221 0.951 . S
C1245 C1246 1.366 . S
C1245 C1247 1.388 . S
C1246 C1245 1.366 . S
C1246 C1250 1.385 . S
C1247 H1222 0.951 . S
C1247 C1245 1.388 . S
C1247 C1248 1.366 . S
C1248 C1247 1.366 . S
C1248 C1249 1.414 . S
C1248 C1251 1.499 . S
C1249 H1223 0.950 . S
C1249 C1248 1.414 . S
C1249 C1250 1.374 . S
C1250 H1224 0.950 . S
C1250 C1246 1.385 . S
C1250 C1249 1.374 . S
C1251 C1248 1.499 . S
C1251 C1252 1.373 . S
C1251 C1253 1.389 . S
C1252 H1225 0.950 . S
C1252 C1238 1.377 . S
C1252 C1251 1.373 . S
C1253 C1237 1.377 . S
C1253 C1251 1.389 . S
C1253 C1254 1.524 . S
C1254 C1253 1.524 . S
C1254 C1255 1.397 . S
C1254 C1259 1.363 . S
C1255 H1226 0.950 . S
C1255 C1254 1.397 . S
C1255 C1256 1.334 . S
C1256 H1227 0.950 . S
C1256 C1255 1.334 . S
C1256 C1257 1.287 . S
C1257 C1256 1.287 . S
C1257 C1258 1.524 . S
C1257 H1260 0.999 . S
C1258 H1228 0.950 . S
C1258 C1257 1.524 . S
C1258 C1259 1.415 . S
C1259 H1229 0.950 . S
C1259 C1254 1.363 . S
C1259 C1258 1.415 . S
H1260 C1257 0.999 . S
H1261 C1242 0.913 . S
H1262 C1280 0.951 . S
H1263 C1282 0.951 . S
H1264 C1284 0.950 . S
H1265 C1285 0.950 . S
H1266 C1287 0.950 . S
H1267 C1290 0.950 . S
H1268 C1291 0.950 . S
H1269 C1293 0.950 . S
H1270 C1294 0.950 . S
H1271 C1295 0.951 . S
H1272 C1297 0.951 . S
H1273 C1299 0.950 . S
H1274 C1300 0.950 . S
H1275 C1302 0.950 . S
H1276 C1305 0.950 . S
H1277 C1306 0.950 . S
H1278 C1308 0.950 . S
H1279 C1309 0.950 . S
C1280 H1262 0.951 . S
C1280 C1281 1.366 . S
C1280 C1282 1.388 . S
C1281 C1280 1.366 . S
C1281 C1285 1.385 . S
C1282 H1263 0.951 . S
C1282 C1280 1.388 . S
C1282 C1283 1.366 . S
C1283 C1282 1.366 . S
C1283 C1284 1.414 . S
C1283 C1286 1.499 . S
C1284 H1264 0.950 . S
C1284 C1283 1.414 . S
C1284 C1285 1.374 . S
C1285 H1265 0.950 . S
C1285 C1281 1.385 . S
C1285 C1284 1.374 . S
C1286 C1283 1.499 . S
C1286 C1287 1.373 . S
C1286 C1288 1.389 . S
C1287 H1266 0.950 . S
C1287 C1286 1.373 . S
C1287 C1303 1.377 . S
C1288 C1286 1.389 . S
C1288 C1289 1.524 . S
C1288 C1302 1.377 . S
C1289 C1288 1.524 . S
C1289 C1290 1.397 . S
C1289 C1294 1.363 . S
C1290 H1267 0.950 . S
C1290 C1289 1.397 . S
C1290 C1291 1.334 . S
C1291 H1268 0.950 . S
C1291 C1290 1.334 . S
C1291 C1292 1.287 . S
C1292 C1291 1.287 . S
C1292 C1293 1.524 . S
C1292 H1311 0.913 . S
C1293 H1269 0.950 . S
C1293 C1292 1.524 . S
C1293 C1294 1.415 . S
C1294 H1270 0.950 . S
C1294 C1289 1.363 . S
C1294 C1293 1.415 . S
C1295 H1271 0.951 . S
C1295 C1296 1.366 . S
C1295 C1297 1.388 . S
C1296 C1295 1.366 . S
C1296 C1300 1.385 . S
C1297 H1272 0.951 . S
C1297 C1295 1.388 . S
C1297 C1298 1.366 . S
C1298 C1297 1.366 . S
C1298 C1299 1.414 . S
C1298 C1301 1.499 . S
C1299 H1273 0.950 . S
C1299 C1298 1.414 . S
C1299 C1300 1.374 . S
C1300 H1274 0.950 . S
C1300 C1296 1.385 . S
C1300 C1299 1.374 . S
C1301 C1298 1.499 . S
C1301 C1302 1.373 . S
C1301 C1303 1.389 . S
C1302 H1275 0.950 . S
C1302 C1288 1.377 . S
C1302 C1301 1.373 . S
C1303 C1287 1.377 . S
C1303 C1301 1.389 . S
C1303 C1304 1.524 . S
C1304 C1303 1.524 . S
C1304 C1305 1.397 . S
C1304 C1309 1.363 . S
C1305 H1276 0.950 . S
C1305 C1304 1.397 . S
C1305 C1306 1.334 . S
C1306 H1277 0.950 . S
C1306 C1305 1.334 . S
C1306 C1307 1.287 . S
C1307 C1306 1.287 . S
C1307 C1308 1.524 . S
C1307 H1310 0.999 . S
C1308 H1278 0.950 . S
C1308 C1307 1.524 . S
C1308 C1309 1.415 . S
C1309 H1279 0.950 . S
C1309 C1304 1.363 . S
C1309 C1308 1.415 . S
H1310 C1307 0.999 . S
H1311 C1292 0.913 . S
H1312 C1330 0.951 . S
H1313 C1332 0.951 . S
H1314 C1334 0.950 . S
H1315 C1335 0.950 . S
H1316 C1337 0.950 . S
H1317 C1340 0.950 . S
H1318 C1341 0.950 . S
H1319 C1343 0.950 . S
H1320 C1344 0.950 . S
H1321 C1345 0.951 . S
H1322 C1347 0.951 . S
H1323 C1349 0.950 . S
H1324 C1350 0.950 . S
H1325 C1352 0.950 . S
H1326 C1355 0.950 . S
H1327 C1356 0.950 . S
H1328 C1358 0.950 . S
H1329 C1359 0.950 . S
C1330 H1312 0.951 . S
C1330 C1331 1.366 . S
C1330 C1332 1.388 . S
C1331 C1330 1.366 . S
C1331 C1335 1.385 . S
C1332 H1313 0.951 . S
C1332 C1330 1.388 . S
C1332 C1333 1.366 . S
C1333 C1332 1.366 . S
C1333 C1334 1.414 . S
C1333 C1336 1.499 . S
C1334 H1314 0.950 . S
C1334 C1333 1.414 . S
C1334 C1335 1.374 . S
C1335 H1315 0.950 . S
C1335 C1331 1.385 . S
C1335 C1334 1.374 . S
C1336 C1333 1.499 . S
C1336 C1337 1.373 . S
C1336 C1338 1.389 . S
C1337 H1316 0.950 . S
C1337 C1336 1.373 . S
C1337 C1353 1.377 . S
C1338 C1336 1.389 . S
C1338 C1339 1.524 . S
C1338 C1352 1.377 . S
C1339 C1338 1.524 . S
C1339 C1340 1.397 . S
C1339 C1344 1.363 . S
C1340 H1317 0.950 . S
C1340 C1339 1.397 . S
C1340 C1341 1.334 . S
C1341 H1318 0.950 . S
C1341 C1340 1.334 . S
C1341 C1342 1.287 . S
C1342 C1341 1.287 . S
C1342 C1343 1.524 . S
C1342 H1361 0.913 . S
C1343 H1319 0.950 . S
C1343 C1342 1.524 . S
C1343 C1344 1.415 . S
C1344 H1320 0.950 . S
C1344 C1339 1.363 . S
C1344 C1343 1.415 . S
C1345 H1321 0.951 . S
C1345 C1346 1.366 . S
C1345 C1347 1.388 . S
C1346 C1345 1.366 . S
C1346 C1350 1.385 . S
C1347 H1322 0.951 . S
C1347 C1345 1.388 . S
C1347 C1348 1.366 . S
C1348 C1347 1.366 . S
C1348 C1349 1.414 . S
C1348 C1351 1.499 . S
C1349 H1323 0.950 . S
C1349 C1348 1.414 . S
C1349 C1350 1.374 . S
C1350 H1324 0.950 . S
C1350 C1346 1.385 . S
C1350 C1349 1.374 . S
C1351 C1348 1.499 . S
C1351 C1352 1.373 . S
C1351 C1353 1.389 . S
C1352 H1325 0.950 . S
C1352 C1338 1.377 . S
C1352 C1351 1.373 . S
C1353 C1337 1.377 . S
C1353 C1351 1.389 . S
C1353 C1354 1.524 . S
C1354 C1353 1.524 . S
C1354 C1355 1.397 . S
C1354 C1359 1.363 . S
C1355 H1326 0.950 . S
C1355 C1354 1.397 . S
C1355 C1356 1.334 . S
C1356 H1327 0.950 . S
C1356 C1355 1.334 . S
C1356 C1357 1.287 . S
C1357 C1356 1.287 . S
C1357 C1358 1.524 . S
C1357 H1360 0.999 . S
C1358 H1328 0.950 . S
C1358 C1357 1.524 . S
C1358 C1359 1.415 . S
C1359 H1329 0.950 . S
C1359 C1354 1.363 . S
C1359 C1358 1.415 . S
H1360 C1357 0.999 . S
H1361 C1342 0.913 . S
H1362 C1380 0.951 . S
H1363 C1382 0.951 . S
H1364 C1384 0.950 . S
H1365 C1385 0.950 . S
H1366 C1387 0.950 . S
H1367 C1390 0.950 . S
H1368 C1391 0.950 . S
H1369 C1393 0.950 . S
H1370 C1394 0.950 . S
H1371 C1395 0.951 . S
H1372 C1397 0.951 . S
H1373 C1399 0.950 . S
H1374 C1400 0.950 . S
H1375 C1402 0.950 . S
H1376 C1405 0.950 . S
H1377 C1406 0.950 . S
H1378 C1408 0.950 . S
H1379 C1409 0.950 . S
C1380 H1362 0.951 . S
C1380 C1381 1.366 . S
C1380 C1382 1.388 . S
C1381 C1380 1.366 . S
C1381 C1385 1.385 . S
C1382 H1363 0.951 . S
C1382 C1380 1.388 . S
C1382 C1383 1.366 . S
C1383 C1382 1.366 . S
C1383 C1384 1.414 . S
C1383 C1386 1.499 . S
C1384 H1364 0.950 . S
C1384 C1383 1.414 . S
C1384 C1385 1.374 . S
C1385 H1365 0.950 . S
C1385 C1381 1.385 . S
C1385 C1384 1.374 . S
C1386 C1383 1.499 . S
C1386 C1387 1.373 . S
C1386 C1388 1.389 . S
C1387 H1366 0.950 . S
C1387 C1386 1.373 . S
C1387 C1403 1.377 . S
C1388 C1386 1.389 . S
C1388 C1389 1.524 . S
C1388 C1402 1.377 . S
C1389 C1388 1.524 . S
C1389 C1390 1.397 . S
C1389 C1394 1.363 . S
C1390 H1367 0.950 . S
C1390 C1389 1.397 . S
C1390 C1391 1.334 . S
C1391 H1368 0.950 . S
C1391 C1390 1.334 . S
C1391 C1392 1.287 . S
C1392 C1391 1.287 . S
C1392 C1393 1.524 . S
C1392 H1411 0.913 . S
C1393 H1369 0.950 . S
C1393 C1392 1.524 . S
C1393 C1394 1.415 . S
C1394 H1370 0.950 . S
C1394 C1389 1.363 . S
C1394 C1393 1.415 . S
C1395 H1371 0.951 . S
C1395 C1396 1.366 . S
C1395 C1397 1.388 . S
C1396 C1395 1.366 . S
C1396 C1400 1.385 . S
C1397 H1372 0.951 . S
C1397 C1395 1.388 . S
C1397 C1398 1.366 . S
C1398 C1397 1.366 . S
C1398 C1399 1.414 . S
C1398 C1401 1.499 . S
C1399 H1373 0.950 . S
C1399 C1398 1.414 . S
C1399 C1400 1.374 . S
C1400 H1374 0.950 . S
C1400 C1396 1.385 . S
C1400 C1399 1.374 . S
C1401 C1398 1.499 . S
C1401 C1402 1.373 . S
C1401 C1403 1.389 . S
C1402 H1375 0.950 . S
C1402 C1388 1.377 . S
C1402 C1401 1.373 . S
C1403 C1387 1.377 . S
C1403 C1401 1.389 . S
C1403 C1404 1.524 . S
C1404 C1403 1.524 . S
C1404 C1405 1.397 . S
C1404 C1409 1.363 . S
C1405 H1376 0.950 . S
C1405 C1404 1.397 . S
C1405 C1406 1.334 . S
C1406 H1377 0.950 . S
C1406 C1405 1.334 . S
C1406 C1407 1.287 . S
C1407 C1406 1.287 . S
C1407 C1408 1.524 . S
C1407 H1410 0.999 . S
C1408 H1378 0.950 . S
C1408 C1407 1.524 . S
C1408 C1409 1.415 . S
C1409 H1379 0.950 . S
C1409 C1404 1.363 . S
C1409 C1408 1.415 . S
H1410 C1407 0.999 . S
H1411 C1392 0.913 . S
H1412 C1430 0.951 . S
H1413 C1432 0.951 . S
H1414 C1434 0.950 . S
H1415 C1435 0.950 . S
H1416 C1437 0.950 . S
H1417 C1440 0.950 . S
H1418 C1441 0.950 . S
H1419 C1443 0.950 . S
H1420 C1444 0.950 . S
H1421 C1445 0.951 . S
H1422 C1447 0.951 . S
H1423 C1449 0.950 . S
H1424 C1450 0.950 . S
H1425 C1452 0.950 . S
H1426 C1455 0.950 . S
H1427 C1456 0.950 . S
H1428 C1458 0.950 . S
H1429 C1459 0.950 . S
C1430 H1412 0.951 . S
C1430 C1431 1.366 . S
C1430 C1432 1.388 . S
C1431 C1430 1.366 . S
C1431 C1435 1.385 . S
C1432 H1413 0.951 . S
C1432 C1430 1.388 . S
C1432 C1433 1.366 . S
C1433 C1432 1.366 . S
C1433 C1434 1.414 . S
C1433 C1436 1.499 . S
C1434 H1414 0.950 . S
C1434 C1433 1.414 . S
C1434 C1435 1.374 . S
C1435 H1415 0.950 . S
C1435 C1431 1.385 . S
C1435 C1434 1.374 . S
C1436 C1433 1.499 . S
C1436 C1437 1.373 . S
C1436 C1438 1.389 . S
C1437 H1416 0.950 . S
C1437 C1436 1.373 . S
C1437 C1453 1.377 . S
C1438 C1436 1.389 . S
C1438 C1439 1.524 . S
C1438 C1452 1.377 . S
C1439 C1438 1.524 . S
C1439 C1440 1.397 . S
C1439 C1444 1.363 . S
C1440 H1417 0.950 . S
C1440 C1439 1.397 . S
C1440 C1441 1.334 . S
C1441 H1418 0.950 . S
C1441 C1440 1.334 . S
C1441 C1442 1.287 . S
C1442 C1441 1.287 . S
C1442 C1443 1.524 . S
C1442 H1461 0.913 . S
C1443 H1419 0.950 . S
C1443 C1442 1.524 . S
C1443 C1444 1.415 . S
C1444 H1420 0.950 . S
C1444 C1439 1.363 . S
C1444 C1443 1.415 . S
C1445 H1421 0.951 . S
C1445 C1446 1.366 . S
C1445 C1447 1.388 . S
C1446 C1445 1.366 . S
C1446 C1450 1.385 . S
C1447 H1422 0.951 . S
C1447 C1445 1.388 . S
C1447 C1448 1.366 . S
C1448 C1447 1.366 . S
C1448 C1449 1.414 . S
C1448 C1451 1.499 . S
C1449 H1423 0.950 . S
C1449 C1448 1.414 . S
C1449 C1450 1.374 . S
C1450 H1424 0.950 . S
C1450 C1446 1.385 . S
C1450 C1449 1.374 . S
C1451 C1448 1.499 . S
C1451 C1452 1.373 . S
C1451 C1453 1.389 . S
C1452 H1425 0.950 . S
C1452 C1438 1.377 . S
C1452 C1451 1.373 . S
C1453 C1437 1.377 . S
C1453 C1451 1.389 . S
C1453 C1454 1.524 . S
C1454 C1453 1.524 . S
C1454 C1455 1.397 . S
C1454 C1459 1.363 . S
C1455 H1426 0.950 . S
C1455 C1454 1.397 . S
C1455 C1456 1.334 . S
C1456 H1427 0.950 . S
C1456 C1455 1.334 . S
C1456 C1457 1.287 . S
C1457 C1456 1.287 . S
C1457 C1458 1.524 . S
C1457 H1460 0.999 . S
C1458 H1428 0.950 . S
C1458 C1457 1.524 . S
C1458 C1459 1.415 . S
C1459 H1429 0.950 . S
C1459 C1454 1.363 . S
C1459 C1458 1.415 . S
H1460 C1457 0.999 . S
H1461 C1442 0.913 . S
H1462 C1480 0.951 . S
H1463 C1482 0.951 . S
H1464 C1484 0.950 . S
H1465 C1485 0.950 . S
H1466 C1487 0.950 . S
H1467 C1490 0.950 . S
H1468 C1491 0.950 . S
H1469 C1493 0.950 . S
H1470 C1494 0.950 . S
H1471 C1495 0.951 . S
H1472 C1497 0.951 . S
H1473 C1499 0.950 . S
H1474 C1500 0.950 . S
H1475 C1502 0.950 . S
H1476 C1505 0.950 . S
H1477 C1506 0.950 . S
H1478 C1508 0.950 . S
H1479 C1509 0.950 . S
C1480 H1462 0.951 . S
C1480 C1481 1.366 . S
C1480 C1482 1.388 . S
C1481 C1480 1.366 . S
C1481 C1485 1.385 . S
C1482 H1463 0.951 . S
C1482 C1480 1.388 . S
C1482 C1483 1.366 . S
C1483 C1482 1.366 . S
C1483 C1484 1.414 . S
C1483 C1486 1.499 . S
C1484 H1464 0.950 . S
C1484 C1483 1.414 . S
C1484 C1485 1.374 . S
C1485 H1465 0.950 . S
C1485 C1481 1.385 . S
C1485 C1484 1.374 . S
C1486 C1483 1.499 . S
C1486 C1487 1.373 . S
C1486 C1488 1.389 . S
C1487 H1466 0.950 . S
C1487 C1486 1.373 . S
C1487 C1503 1.377 . S
C1488 C1486 1.389 . S
C1488 C1489 1.524 . S
C1488 C1502 1.377 . S
C1489 C1488 1.524 . S
C1489 C1490 1.397 . S
C1489 C1494 1.363 . S
C1490 H1467 0.950 . S
C1490 C1489 1.397 . S
C1490 C1491 1.334 . S
C1491 H1468 0.950 . S
C1491 C1490 1.334 . S
C1491 C1492 1.287 . S
C1492 C1491 1.287 . S
C1492 C1493 1.524 . S
C1492 H1511 0.913 . S
C1493 H1469 0.950 . S
C1493 C1492 1.524 . S
C1493 C1494 1.415 . S
C1494 H1470 0.950 . S
C1494 C1489 1.363 . S
C1494 C1493 1.415 . S
C1495 H1471 0.951 . S
C1495 C1496 1.366 . S
C1495 C1497 1.388 . S
C1496 C1495 1.366 . S
C1496 C1500 1.385 . S
C1497 H1472 0.951 . S
C1497 C1495 1.388 . S
C1497 C1498 1.366 . S
C1498 C1497 1.366 . S
C1498 C1499 1.414 . S
C1498 C1501 1.499 . S
C1499 H1473 0.950 . S
C1499 C1498 1.414 . S
C1499 C1500 1.374 . S
C1500 H1474 0.950 . S
C1500 C1496 1.385 . S
C1500 C1499 1.374 . S
C1501 C1498 1.499 . S
C1501 C1502 1.373 . S
C1501 C1503 1.389 . S
C1502 H1475 0.950 . S
C1502 C1488 1.377 . S
C1502 C1501 1.373 . S
C1503 C1487 1.377 . S
C1503 C1501 1.389 . S
C1503 C1504 1.524 . S
C1504 C1503 1.524 . S
C1504 C1505 1.397 . S
C1504 C1509 1.363 . S
C1505 H1476 0.950 . S
C1505 C1504 1.397 . S
C1505 C1506 1.334 . S
C1506 H1477 0.950 . S
C1506 C1505 1.334 . S
C1506 C1507 1.287 . S
C1507 C1506 1.287 . S
C1507 C1508 1.524 . S
C1507 H1510 0.999 . S
C1508 H1478 0.950 . S
C1508 C1507 1.524 . S
C1508 C1509 1.415 . S
C1509 H1479 0.950 . S
C1509 C1504 1.363 . S
C1509 C1508 1.415 . S
H1510 C1507 0.999 . S
H1511 C1492 0.913 . S
C331 C6 1.210 . S
C346 C158 1.225 . S
C381 C21 1.533 . S
C396 C207 1.544 . S
C446 C242 1.688 . S
C431 C49 1.632 . S
C481 C68 1.952 . S
C496 C281 2.005 1_655 S
C546 C202 3.231 . S
C531 C2 3.144 . S
C596 C161 0.406 . S
C581 C30 0.486 . S
C646 C291 1.777 . S
C631 C40 1.811 . S
C696 C250 1.342 . S
C681 C63 1.347 . S
C731 C11 1.477 . S
C746 C278 1.618 . S
C796 C210 2.603 . S
C781 C44 2.688 . S
C831 C59 1.900 . S
C846 C171 1.899 . S
C881 C25 1.067 . S
C896 C247 1.060 . S
C946 C167 1.556 . S
C931 C82 1.553 . S
C981 C101 1.200 . S
C996 C198 1.200 . S
C1031 C125 2.204 . S
C1046 C251 2.321 . S
C1081 C144 1.622 . S
C1096 C290 1.711 . S
C1131 C87 1.903 . S
C1146 C211 2.026 1_565 S
C1196 C170 1.946 . S
C1181 C97 2.000 . S
C1246 C282 1.564 . S
C1231 C120 1.618 . S
C1296 C241 1.344 . S
C1281 C135 1.405 . S
C1331 C78 2.017 . S
C1346 C287 2.102 . S
C1396 C201 1.801 . S
C1381 C116 1.854 . S
C1446 C162 2.663 . S
C1431 C139 2.671 . S
C1481 C106 0.778 . S
C1496 C238 0.803 . S
