# Generated by pormake.
# Topology zzz, (3,6)-cn, num edge types: 1
# Building blocks:
#     Node 0, Type 0, BuildingBlock: VETTIZ_charged_linker_0, # of connection points: 3
#     Node 1, Type 0, BuildingBlock: VETTIZ_charged_linker_0, # of connection points: 3
#     Node 2, Type 0, BuildingBlock: VETTIZ_charged_linker_0, # of connection points: 3
#     Node 3, Type 0, BuildingBlock: VETTIZ_charged_linker_0, # of connection points: 3
#     Node 4, Type 0, BuildingBlock: VETTIZ_charged_linker_0, # of connection points: 3
#     Node 5, Type 0, BuildingBlock: VETTIZ_charged_linker_0, # of connection points: 3
#     Node 6, Type 0, BuildingBlock: VETTIZ_charged_linker_0, # of connection points: 3
#     Node 7, Type 0, BuildingBlock: VETTIZ_charged_linker_0, # of connection points: 3
#     Node 8, Type 1, BuildingBlock: JUFBIX_clean_sbu_0, # of connection points: 6
#     Node 9, Type 1, BuildingBlock: JUFBIX_clean_sbu_0, # of connection points: 6
#     Node 10, Type 1, BuildingBlock: JUFBIX_clean_sbu_0, # of connection points: 6
#     Node 11, Type 1, BuildingBlock: JUFBIX_clean_sbu_0, # of connection points: 6
#     Edge 12, Type (0, 1), BuildingBlock: UVAHIK_clean_linker_0, # of connection points: 2
#     Edge 13, Type (0, 1), BuildingBlock: UVAHIK_clean_linker_0, # of connection points: 2
#     Edge 14, Type (0, 1), BuildingBlock: UVAHIK_clean_linker_0, # of connection points: 2
#     Edge 15, Type (0, 1), BuildingBlock: UVAHIK_clean_linker_0, # of connection points: 2
#     Edge 16, Type (0, 1), BuildingBlock: UVAHIK_clean_linker_0, # of connection points: 2
#     Edge 17, Type (0, 1), BuildingBlock: UVAHIK_clean_linker_0, # of connection points: 2
#     Edge 18, Type (0, 1), BuildingBlock: UVAHIK_clean_linker_0, # of connection points: 2
#     Edge 19, Type (0, 1), BuildingBlock: UVAHIK_clean_linker_0, # of connection points: 2
#     Edge 20, Type (0, 1), BuildingBlock: UVAHIK_clean_linker_0, # of connection points: 2
#     Edge 21, Type (0, 1), BuildingBlock: UVAHIK_clean_linker_0, # of connection points: 2
#     Edge 22, Type (0, 1), BuildingBlock: UVAHIK_clean_linker_0, # of connection points: 2
#     Edge 23, Type (0, 1), BuildingBlock: UVAHIK_clean_linker_0, # of connection points: 2
#     Edge 24, Type (0, 1), BuildingBlock: UVAHIK_clean_linker_0, # of connection points: 2
#     Edge 25, Type (0, 1), BuildingBlock: UVAHIK_clean_linker_0, # of connection points: 2
#     Edge 26, Type (0, 1), BuildingBlock: UVAHIK_clean_linker_0, # of connection points: 2
#     Edge 27, Type (0, 1), BuildingBlock: UVAHIK_clean_linker_0, # of connection points: 2
#     Edge 28, Type (0, 1), BuildingBlock: UVAHIK_clean_linker_0, # of connection points: 2
#     Edge 29, Type (0, 1), BuildingBlock: UVAHIK_clean_linker_0, # of connection points: 2
#     Edge 30, Type (0, 1), BuildingBlock: UVAHIK_clean_linker_0, # of connection points: 2
#     Edge 31, Type (0, 1), BuildingBlock: UVAHIK_clean_linker_0, # of connection points: 2
#     Edge 32, Type (0, 1), BuildingBlock: UVAHIK_clean_linker_0, # of connection points: 2
#     Edge 33, Type (0, 1), BuildingBlock: UVAHIK_clean_linker_0, # of connection points: 2
#     Edge 34, Type (0, 1), BuildingBlock: UVAHIK_clean_linker_0, # of connection points: 2
#     Edge 35, Type (0, 1), BuildingBlock: UVAHIK_clean_linker_0, # of connection points: 2
# Relax obj value: 0.304
# Max RMSD: 0.225
# Mean RMSD: 0.192
data_MOF--net-zzz--node1-JUFBIX_clean_sbu_0--node2-VETTIZ_charged_linker_0--edge1-UVAHIK_clean_linker_0
_symmetry_space_group_name_H-M    P1
_symmetry_Int_Tables_number       1
_symmetry_cell_setting            triclinic
loop_
_symmetry_equiv_pos_as_xyz
'x, y, z'
_cell_length_a     69.988327
_cell_length_b     72.220575
_cell_length_c     27.907708
_cell_angle_alpha  83.890156
_cell_angle_beta   90.088607
_cell_angle_gamma 86.768289
loop_
_atom_site_label
_atom_site_type_symbol
_atom_site_fract_x
_atom_site_fract_y
_atom_site_fract_z
_atom_type_partial_charge
C0 C 0.78929 0.54852 0.41633 0.0
C1 C 0.80839 0.5529 0.42391 0.0
C2 C 0.81946 0.55929 0.38412 0.0
C3 C 0.79379 0.55431 0.32992 0.0
C4 C 0.78212 0.54979 0.36877 0.0
C5 C 0.762 0.54671 0.35246 0.0
H6 H 0.70373 0.53233 0.16528 0.0
C7 C 0.78325 0.55221 0.28541 0.0
C8 C 0.76435 0.5482 0.29783 0.0
H9 H 0.68641 0.53709 0.312 0.0
H10 H 0.71929 0.54266 0.33368 0.0
H11 H 0.72905 0.56739 0.15568 0.0
H12 H 0.74134 0.50857 0.18862 0.0
H13 H 0.76125 0.51657 0.15649 0.0
H14 H 0.73796 0.51908 0.12788 0.0
H15 H 0.72812 0.55101 0.11179 0.0
H16 H 0.74994 0.56183 0.12409 0.0
C17 C 0.7485 0.56264 0.3681 0.0
C18 C 0.75654 0.52707 0.37332 0.0
C19 C 0.82113 0.54589 0.13256 0.0
C20 C 0.81616 0.54042 0.08755 0.0
C21 C 0.79675 0.53856 0.07677 0.0
C22 C 0.7826 0.5413 0.11112 0.0
C23 C 0.78792 0.54573 0.15699 0.0
C24 C 0.80686 0.54832 0.16672 0.0
C25 C 0.80999 0.55243 0.21775 0.0
C26 C 0.78978 0.5513 0.23753 0.0
C27 C 0.77703 0.54733 0.20182 0.0
C28 C 0.81731 0.57237 0.21669 0.0
C29 C 0.82392 0.53681 0.24236 0.0
C30 C 0.707 0.53443 0.20223 0.0
C31 C 0.69265 0.534 0.23715 0.0
C32 C 0.69736 0.53727 0.28459 0.0
C33 C 0.71635 0.54057 0.29695 0.0
C34 C 0.73058 0.54094 0.2612 0.0
C35 C 0.72559 0.53807 0.21471 0.0
C36 C 0.74201 0.53942 0.18053 0.0
C37 C 0.75774 0.54412 0.21353 0.0
C38 C 0.75124 0.54471 0.26109 0.0
C39 C 0.73711 0.55564 0.14058 0.0
C40 C 0.74588 0.52003 0.16197 0.0
H41 H 0.82157 0.56456 0.30856 0.0
H42 H 0.78034 0.54406 0.44652 0.0
H43 H 0.768 0.51646 0.36601 0.0
H44 H 0.74326 0.52287 0.35728 0.0
H45 H 0.7546 0.52637 0.41296 0.0
H46 H 0.75588 0.57594 0.36645 0.0
H47 H 0.74356 0.55931 0.40569 0.0
H48 H 0.73594 0.56577 0.34401 0.0
H49 H 0.83595 0.54728 0.14202 0.0
H50 H 0.79256 0.53462 0.04204 0.0
H51 H 0.76812 0.53935 0.10097 0.0
H52 H 0.81438 0.5808 0.18144 0.0
H53 H 0.833 0.57194 0.22311 0.0
H54 H 0.80998 0.58049 0.24356 0.0
H55 H 0.81938 0.52286 0.23499 0.0
H56 H 0.82456 0.53645 0.28183 0.0
H57 H 0.83868 0.53832 0.22854 0.0
H58 H 0.83413 0.56282 0.38909 0.0
C59 C 0.81224 0.56008 0.33733 0.0
C60 C 0.07943 0.81121 0.07777 0.0
C61 C 0.08384 0.8296 0.08351 0.0
C62 C 0.08272 0.83574 0.12971 0.0
C63 C 0.06927 0.80675 0.161 0.0
C64 C 0.07213 0.80007 0.11688 0.0
C65 C 0.06491 0.78089 0.11583 0.0
H66 H 0.00837 0.71362 0.20893 0.0
C67 C 0.0581 0.79322 0.19108 0.0
C68 C 0.05555 0.77802 0.16507 0.0
H69 H 0.04597 0.71378 0.08615 0.0
H70 H 0.0574 0.74315 0.1026 0.0
H71 H 0.04148 0.72967 0.2817 0.0
H72 H 0.99546 0.75922 0.19564 0.0
H73 H 0.99588 0.76648 0.254 0.0
H74 H 0.99075 0.74278 0.24667 0.0
H75 H 0.01679 0.72521 0.29301 0.0
H76 H 0.02746 0.74463 0.31567 0.0
C77 C 0.08244 0.76702 0.11132 0.0
C78 C 0.05009 0.78164 0.07421 0.0
C79 C 0.03112 0.81238 0.34717 0.0
C80 C 0.01702 0.80564 0.37889 0.0
C81 C 0.00824 0.78918 0.37021 0.0
C82 C 0.01375 0.77949 0.33059 0.0
C83 C 0.02789 0.78658 0.29888 0.0
C84 C 0.03608 0.80293 0.3075 0.0
C85 C 0.04932 0.80979 0.26832 0.0
C86 C 0.04847 0.79454 0.23533 0.0
C87 C 0.03608 0.78074 0.25323 0.0
C88 C 0.06957 0.81029 0.29046 0.0
C89 C 0.04086 0.82896 0.24438 0.0
C90 C 0.01904 0.72014 0.18582 0.0
C91 C 0.02626 0.71152 0.14596 0.0
C92 C 0.04029 0.72017 0.11697 0.0
C93 C 0.04691 0.73725 0.12654 0.0
C94 C 0.03948 0.74594 0.16561 0.0
C95 C 0.02617 0.73729 0.1955 0.0
C96 C 0.02116 0.74845 0.23723 0.0
C97 C 0.03375 0.76502 0.22712 0.0
C98 C 0.04395 0.76354 0.18417 0.0
C99 C 0.0269 0.73641 0.28466 0.0
C100 C 0.99965 0.75453 0.23367 0.0
H101 H 0.07423 0.83013 0.20232 0.0
H102 H 0.08052 0.80606 0.04276 0.0
H103 H 0.03998 0.79408 0.07459 0.0
H104 H 0.04114 0.76951 0.07664 0.0
H105 H 0.0573 0.78256 0.03867 0.0
H106 H 0.09615 0.77302 0.12018 0.0
H107 H 0.08376 0.76295 0.07413 0.0
H108 H 0.08173 0.75425 0.137 0.0
H109 H 0.03767 0.82531 0.35202 0.0
H110 H 0.99717 0.78384 0.39409 0.0
H111 H 0.00664 0.76704 0.3257 0.0
H112 H 0.07279 0.79779 0.31672 0.0
H113 H 0.07076 0.82284 0.30988 0.0
H114 H 0.08104 0.80998 0.26332 0.0
H115 H 0.0253 0.8311 0.25165 0.0
H116 H 0.04171 0.83025 0.2046 0.0
H117 H 0.04808 0.84071 0.25791 0.0
H118 H 0.08606 0.84985 0.13507 0.0
C119 C 0.07553 0.82438 0.16854 0.0
C120 C 0.8165 0.96855 0.19536 0.0
C121 C 0.82545 0.96394 0.15257 0.0
C122 C 0.81609 0.95289 0.12239 0.0
C123 C 0.78856 0.95258 0.17429 0.0
C124 C 0.79811 0.96226 0.2061 0.0
C125 C 0.78636 0.96456 0.25085 0.0
H126 H 0.70299 0.94728 0.37084 0.0
C127 C 0.76963 0.94855 0.19386 0.0
C128 C 0.76838 0.95466 0.23997 0.0
H129 H 0.74867 0.97902 0.41702 0.0
H130 H 0.76705 0.97275 0.34562 0.0
H131 H 0.69873 0.96585 0.2819 0.0
H132 H 0.72853 0.91382 0.32109 0.0
H133 H 0.71543 0.91203 0.26773 0.0
H134 H 0.7031 0.919 0.32019 0.0
H135 H 0.6882 0.94494 0.26983 0.0
H136 H 0.70209 0.95807 0.22501 0.0
C137 C 0.78203 0.98562 0.25376 0.0
C138 C 0.79748 0.95455 0.29489 0.0
C139 C 0.71593 0.93778 0.08125 0.0
C140 C 0.69629 0.93592 0.08964 0.0
C141 C 0.69009 0.93049 0.13678 0.0
C142 C 0.70291 0.92921 0.17564 0.0
C143 C 0.72192 0.93376 0.16726 0.0
C144 C 0.72853 0.93661 0.12067 0.0
C145 C 0.7496 0.93987 0.11921 0.0
C146 C 0.75356 0.9415 0.1724 0.0
C147 C 0.7372 0.93811 0.19997 0.0
C148 C 0.75274 0.95828 0.08715 0.0
C149 C 0.76034 0.92254 0.10111 0.0
C150 C 0.7172 0.95242 0.36628 0.0
C151 C 0.72467 0.96318 0.39986 0.0
C152 C 0.74281 0.97044 0.39169 0.0
C153 C 0.75335 0.96685 0.35023 0.0
C154 C 0.74534 0.95641 0.31609 0.0
C155 C 0.72741 0.94963 0.32453 0.0
C156 C 0.71963 0.94116 0.28246 0.0
C157 C 0.73619 0.94307 0.24776 0.0
C158 C 0.75144 0.95176 0.26754 0.0
C159 C 0.70123 0.95295 0.26375 0.0
C160 C 0.71635 0.9204 0.29851 0.0
H161 H 0.7913 0.93882 0.10889 0.0
H162 H 0.82363 0.97671 0.21964 0.0
H163 H 0.80328 0.94055 0.28702 0.0
H164 H 0.78841 0.95213 0.32696 0.0
H165 H 0.80972 0.96268 0.30427 0.0
H166 H 0.7783 0.9929 0.21751 0.0
H167 H 0.79466 0.99214 0.26749 0.0
H168 H 0.76962 0.98851 0.27667 0.0
H169 H 0.72107 0.94124 0.04502 0.0
H170 H 0.67508 0.92867 0.14413 0.0
H171 H 0.69732 0.92569 0.21093 0.0
H172 H 0.7435 0.96992 0.09923 0.0
H173 H 0.74922 0.95698 0.04888 0.0
H174 H 0.76765 0.96241 0.08806 0.0
H175 H 0.75065 0.91125 0.09556 0.0
H176 H 0.77132 0.91614 0.12754 0.0
H177 H 0.76739 0.92617 0.06599 0.0
H178 H 0.82285 0.94908 0.08964 0.0
C179 C 0.79777 0.94712 0.1332 0.0
C180 C 0.48279 0.71073 0.32863 0.0
C181 C 0.47789 0.69273 0.34793 0.0
C182 C 0.46763 0.68185 0.31915 0.0
C183 C 0.46705 0.70637 0.25317 0.0
C184 C 0.47698 0.71737 0.28105 0.0
C185 C 0.47993 0.73634 0.25397 0.0
H186 H 0.46511 0.79447 0.04521 0.0
C187 C 0.46312 0.71683 0.20565 0.0
C188 C 0.47042 0.73456 0.20541 0.0
H189 H 0.49317 0.80743 0.17447 0.0
H190 H 0.4886 0.77605 0.21239 0.0
H191 H 0.48579 0.75508 0.04346 0.0
H192 H 0.43084 0.77259 0.09702 0.0
H193 H 0.42763 0.75314 0.06552 0.0
H194 H 0.43643 0.774 0.03402 0.0
H195 H 0.46575 0.76168 0.004 0.0
H196 H 0.47015 0.73801 0.03134 0.0
C197 C 0.50165 0.7387 0.24895 0.0
C198 C 0.46939 0.75134 0.28125 0.0
C199 C 0.43246 0.68354 0.07726 0.0
C200 C 0.4284 0.68843 0.02809 0.0
C201 C 0.43097 0.70688 0.00797 0.0
C202 C 0.4381 0.71999 0.03612 0.0
C203 C 0.44287 0.71457 0.08483 0.0
C204 C 0.43973 0.69667 0.10459 0.0
C205 C 0.44616 0.693 0.15616 0.0
C206 C 0.4541 0.71155 0.16406 0.0
C207 C 0.4521 0.72413 0.12242 0.0
C208 C 0.46202 0.67695 0.1596 0.0
C209 C 0.42823 0.68896 0.18747 0.0
C210 C 0.47008 0.7907 0.08194 0.0
C211 C 0.47921 0.80356 0.10709 0.0
C212 C 0.48602 0.79779 0.15432 0.0
C213 C 0.48326 0.77963 0.17634 0.0
C214 C 0.4737 0.76707 0.15075 0.0
C215 C 0.46749 0.77277 0.10413 0.0
C216 C 0.45812 0.75776 0.08115 0.0
C217 C 0.45913 0.74217 0.1219 0.0
C218 C 0.4683 0.74749 0.16295 0.0
C219 C 0.4704 0.75286 0.03749 0.0
C220 C 0.43717 0.76464 0.06832 0.0
H221 H 0.45455 0.67933 0.25261 0.0
H222 H 0.49061 0.71941 0.35018 0.0
H223 H 0.45504 0.74683 0.29299 0.0
H224 H 0.46674 0.76474 0.25874 0.0
H225 H 0.47758 0.75381 0.3139 0.0
H226 H 0.50903 0.72573 0.23827 0.0
H227 H 0.508 0.74166 0.28365 0.0
H228 H 0.50507 0.74989 0.22077 0.0
H229 H 0.4311 0.66941 0.09375 0.0
H230 H 0.42785 0.71104 0.97021 0.0
H231 H 0.44002 0.73371 0.01857 0.0
H232 H 0.47085 0.67761 0.12639 0.0
H233 H 0.45574 0.66309 0.16406 0.0
H234 H 0.47243 0.67766 0.18901 0.0
H235 H 0.41499 0.69591 0.17013 0.0
H236 H 0.4289 0.69457 0.2228 0.0
H237 H 0.42604 0.67378 0.19331 0.0
H238 H 0.4639 0.66793 0.333 0.0
C239 C 0.46222 0.68851 0.27223 0.0
C240 C 0.29908 0.47269 0.29235 0.0
C241 C 0.30787 0.47484 0.33672 0.0
C242 C 0.29647 0.4779 0.37681 0.0
C243 C 0.26786 0.47611 0.32955 0.0
C244 C 0.27893 0.47319 0.28973 0.0
C245 C 0.26666 0.47066 0.24647 0.0
H246 H 0.17709 0.46006 0.15977 0.0
C247 C 0.24761 0.47508 0.31647 0.0
C248 C 0.24665 0.47148 0.26804 0.0
H249 H 0.22882 0.46496 0.07683 0.0
H250 H 0.24715 0.4673 0.15021 0.0
H251 H 0.19508 0.435 0.25809 0.0
H252 H 0.18327 0.4929 0.20982 0.0
H253 H 0.17967 0.49124 0.27204 0.0
H254 H 0.165 0.47854 0.23525 0.0
H255 H 0.17141 0.44589 0.2512 0.0
H256 H 0.18474 0.44544 0.30677 0.0
C257 C 0.27209 0.45139 0.22953 0.0
C258 C 0.2694 0.4872 0.20759 0.0
C259 C 0.19605 0.48882 0.43766 0.0
C260 C 0.17611 0.488 0.4364 0.0
C261 C 0.16729 0.48072 0.39777 0.0
C262 C 0.17819 0.47507 0.35939 0.0
C263 C 0.19811 0.47674 0.35981 0.0
C264 C 0.20679 0.4829 0.39922 0.0
C265 C 0.22819 0.48257 0.39457 0.0
C266 C 0.23072 0.47664 0.34414 0.0
C267 C 0.21307 0.47341 0.32402 0.0
C268 C 0.23701 0.46771 0.43401 0.0
C269 C 0.2346 0.5026 0.39766 0.0
C270 C 0.19246 0.46108 0.15763 0.0
C271 C 0.20167 0.46186 0.11306 0.0
C272 C 0.22155 0.46408 0.11115 0.0
C273 C 0.23207 0.46557 0.15361 0.0
C274 C 0.22244 0.46536 0.19797 0.0
C275 C 0.20291 0.46326 0.19906 0.0
C276 C 0.19436 0.46573 0.24727 0.0
C277 C 0.21195 0.46942 0.27553 0.0
C278 C 0.22853 0.46882 0.24711 0.0
C279 C 0.18578 0.44715 0.26705 0.0
C280 C 0.17972 0.48286 0.24116 0.0
H281 H 0.26881 0.48105 0.40536 0.0
H282 H 0.30764 0.47035 0.26104 0.0
H283 H 0.27136 0.50027 0.22441 0.0
H284 H 0.25679 0.49038 0.18372 0.0
H285 H 0.28223 0.48453 0.18539 0.0
H286 H 0.2726 0.4404 0.26069 0.0
H287 H 0.28641 0.4513 0.21239 0.0
H288 H 0.26166 0.44718 0.20369 0.0
H289 H 0.20307 0.49411 0.46761 0.0
H290 H 0.15188 0.47994 0.39666 0.0
H291 H 0.17064 0.47002 0.33041 0.0
H292 H 0.2264 0.45766 0.44838 0.0
H293 H 0.2425 0.47429 0.46508 0.0
H294 H 0.24871 0.45888 0.41985 0.0
H295 H 0.2249 0.51298 0.37583 0.0
H296 H 0.24907 0.50478 0.38324 0.0
H297 H 0.23426 0.5061 0.43546 0.0
H298 H 0.30305 0.47972 0.41107 0.0
C299 C 0.27658 0.4786 0.37346 0.0
C300 C 0.92216 0.21322 0.41734 0.0
C301 C 0.91752 0.19492 0.41141 0.0
C302 C 0.9183 0.1889 0.36506 0.0
C303 C 0.93156 0.21797 0.33355 0.0
C304 C 0.92914 0.22448 0.378 0.0
C305 C 0.93623 0.24372 0.37887 0.0
H306 H 0.98958 0.31277 0.28028 0.0
C307 C 0.94222 0.23173 0.30283 0.0
C308 C 0.94492 0.24689 0.32891 0.0
H309 H 0.95469 0.3109 0.40834 0.0
H310 H 0.94382 0.28129 0.39289 0.0
H311 H 0.00405 0.26763 0.29249 0.0
H312 H 0.956 0.29573 0.21122 0.0
H313 H 0.96992 0.28125 0.17576 0.0
H314 H 0.98033 0.30099 0.19747 0.0
H315 H 0.00748 0.28401 0.2405 0.0
H316 H 0.00285 0.26006 0.2346 0.0
C317 C 0.95159 0.24294 0.41925 0.0
C318 C 0.91868 0.25739 0.38516 0.0
C319 C 0.96757 0.21341 0.14438 0.0
C320 C 0.98121 0.22047 0.11172 0.0
C321 C 0.98965 0.23719 0.11965 0.0
C322 C 0.98432 0.24677 0.15958 0.0
C323 C 0.97073 0.2393 0.19236 0.0
C324 C 0.9628 0.22277 0.18433 0.0
C325 C 0.9502 0.21556 0.22454 0.0
C326 C 0.95121 0.23074 0.25764 0.0
C327 C 0.96306 0.24486 0.23878 0.0
C328 C 0.95926 0.19649 0.24755 0.0
C329 C 0.92971 0.21472 0.20403 0.0
C330 C 0.97958 0.30587 0.30473 0.0
C331 C 0.9729 0.31422 0.34556 0.0
C332 C 0.95983 0.30491 0.37643 0.0
C333 C 0.95355 0.28763 0.36751 0.0
C334 C 0.96035 0.27933 0.32724 0.0
C335 C 0.97281 0.28849 0.29582 0.0
C336 C 0.97745 0.27751 0.25354 0.0
C337 C 0.96548 0.26056 0.26489 0.0
C338 C 0.95598 0.26165 0.30896 0.0
C339 C 0.99912 0.27204 0.25487 0.0
C340 C 0.97069 0.28945 0.20676 0.0
H341 H 0.92627 0.19469 0.2921 0.0
H342 H 0.92135 0.21828 0.4525 0.0
H343 H 0.90494 0.25134 0.37684 0.0
H344 H 0.91905 0.27033 0.36001 0.0
H345 H 0.91772 0.26114 0.42269 0.0
H346 H 0.96166 0.23053 0.41799 0.0
H347 H 0.94486 0.24195 0.45539 0.0
H348 H 0.96054 0.25508 0.41605 0.0
H349 H 0.96132 0.20028 0.14018 0.0
H350 H 1.00036 0.24278 0.09506 0.0
H351 H 0.99118 0.25941 0.1639 0.0
H352 H 0.97483 0.19487 0.23983 0.0
H353 H 0.95237 0.18463 0.23365 0.0
H354 H 0.95858 0.19492 0.28735 0.0
H355 H 0.92603 0.22714 0.17784 0.0
H356 H 0.91858 0.21494 0.23202 0.0
H357 H 0.92845 0.20211 0.18492 0.0
H358 H 0.9148 0.17485 0.35961 0.0
C359 C 0.92525 0.20035 0.32606 0.0
C360 C 0.26786 0.0561 0.1513 0.0
C361 C 0.28661 0.06035 0.13722 0.0
C362 C 0.2983 0.06876 0.16856 0.0
C363 C 0.27376 0.06696 0.22918 0.0
C364 C 0.26158 0.0599 0.19753 0.0
C365 C 0.24201 0.05722 0.2196 0.0
H366 H 0.18599 0.06139 0.4194 0.0
C367 C 0.26396 0.068 0.27541 0.0
C368 C 0.24508 0.06282 0.27025 0.0
H369 H 0.16814 0.0469 0.28071 0.0
H370 H 0.20046 0.05082 0.25006 0.0
H371 H 0.22251 0.03675 0.4247 0.0
H372 H 0.21238 0.09533 0.38232 0.0
H373 H 0.23265 0.0924 0.42051 0.0
H374 H 0.21006 0.08448 0.44282 0.0
H375 H 0.22137 0.05328 0.46827 0.0
H376 H 0.24361 0.04668 0.44027 0.0
C377 C 0.23761 0.03647 0.22058 0.0
C378 C 0.22734 0.07069 0.19028 0.0
C379 C 0.30401 0.07529 0.42245 0.0
C380 C 0.29995 0.07397 0.47197 0.0
C381 C 0.28067 0.0739 0.48661 0.0
C382 C 0.26586 0.07389 0.45266 0.0
C383 C 0.27037 0.07382 0.40356 0.0
C384 C 0.28913 0.07511 0.38916 0.0
C385 C 0.29144 0.0746 0.33585 0.0
C386 C 0.27105 0.0716 0.32093 0.0
C387 C 0.25883 0.07119 0.36058 0.0
C388 C 0.30538 0.05773 0.32789 0.0
C389 C 0.29822 0.09381 0.31408 0.0
C390 C 0.18889 0.0594 0.3821 0.0
C391 C 0.17444 0.05429 0.35211 0.0
C392 C 0.17904 0.05105 0.30436 0.0
C393 C 0.19773 0.05343 0.28664 0.0
C394 C 0.21196 0.05889 0.31721 0.0
C395 C 0.20731 0.06155 0.36425 0.0
C396 C 0.22407 0.0662 0.39315 0.0
C397 C 0.23949 0.06694 0.35529 0.0
C398 C 0.23252 0.06263 0.31058 0.0
C399 C 0.22814 0.05005 0.43394 0.0
C400 C 0.21964 0.08556 0.41107 0.0
H401 H 0.30179 0.07818 0.23656 0.0
H402 H 0.2585 0.04992 0.12728 0.0
H403 H 0.2333 0.08459 0.18131 0.0
H404 H 0.21408 0.07335 0.21032 0.0
H405 H 0.22362 0.06524 0.15589 0.0
H406 H 0.25025 0.02736 0.2341 0.0
H407 H 0.23406 0.03301 0.18389 0.0
H408 H 0.22573 0.03263 0.24486 0.0
H409 H 0.31861 0.07519 0.40973 0.0
H410 H 0.27707 0.07327 0.52445 0.0
H411 H 0.25154 0.07335 0.46613 0.0
H412 H 0.30191 0.04525 0.35258 0.0
H413 H 0.32042 0.06083 0.33509 0.0
H414 H 0.30467 0.05335 0.29136 0.0
H415 H 0.29561 0.10481 0.33876 0.0
H416 H 0.29026 0.09921 0.28061 0.0
H417 H 0.31379 0.09306 0.30636 0.0
H418 H 0.31269 0.07223 0.15812 0.0
C419 C 0.29197 0.07215 0.21419 0.0
C420 C 0.52304 0.30912 0.20059 0.0
C421 C 0.52865 0.32682 0.181 0.0
C422 C 0.53964 0.33727 0.2093 0.0
C423 C 0.5391 0.31309 0.27591 0.0
C424 C 0.5287 0.3024 0.24823 0.0
C425 C 0.52509 0.28364 0.27558 0.0
H426 H 0.53276 0.22775 0.4895 0.0
C427 C 0.54231 0.30283 0.32396 0.0
C428 C 0.53434 0.28539 0.32446 0.0
H429 H 0.50892 0.21359 0.35623 0.0
H430 H 0.51613 0.24406 0.31657 0.0
H431 H 0.56937 0.24608 0.44319 0.0
H432 H 0.51433 0.26923 0.4825 0.0
H433 H 0.53135 0.28438 0.49883 0.0
H434 H 0.53229 0.26061 0.5265 0.0
H435 H 0.5625 0.24738 0.50473 0.0
H436 H 0.57339 0.26645 0.47002 0.0
C437 C 0.5355 0.26827 0.24922 0.0
C438 C 0.50327 0.28181 0.27958 0.0
C439 C 0.57177 0.33644 0.45358 0.0
C440 C 0.57487 0.33189 0.50328 0.0
C441 C 0.57136 0.31373 0.52404 0.0
C442 C 0.56423 0.3006 0.49596 0.0
C443 C 0.56042 0.30571 0.44662 0.0
C444 C 0.56453 0.32327 0.42626 0.0
C445 C 0.55913 0.32663 0.37391 0.0
C446 C 0.55078 0.30824 0.36613 0.0
C447 C 0.55155 0.29606 0.40866 0.0
C448 C 0.57774 0.32978 0.34459 0.0
C449 C 0.54382 0.34316 0.36772 0.0
C450 C 0.5289 0.23122 0.45187 0.0
C451 C 0.52005 0.21835 0.42616 0.0
C452 C 0.51574 0.2233 0.37684 0.0
C453 C 0.51992 0.24097 0.35394 0.0
C454 C 0.52873 0.25372 0.3805 0.0
C455 C 0.53316 0.24857 0.42859 0.0
C456 C 0.54282 0.2634 0.4516 0.0
C457 C 0.54374 0.27834 0.40952 0.0
C458 C 0.53529 0.27284 0.36773 0.0
C459 C 0.56305 0.25552 0.46872 0.0
C460 C 0.5297 0.26975 0.49225 0.0
H461 H 0.55306 0.33942 0.27565 0.0
H462 H 0.51474 0.30074 0.1793 0.0
H463 H 0.49621 0.29475 0.29127 0.0
H464 H 0.49943 0.27033 0.30646 0.0
H465 H 0.49699 0.27953 0.24424 0.0
H466 H 0.54964 0.27277 0.23577 0.0
H467 H 0.52699 0.26512 0.21774 0.0
H468 H 0.53868 0.25525 0.27299 0.0
H469 H 0.57389 0.35034 0.43648 0.0
H470 H 0.57376 0.30981 0.56221 0.0
H471 H 0.56154 0.28713 0.51402 0.0
H472 H 0.5905 0.32271 0.36396 0.0
H473 H 0.58039 0.34484 0.33781 0.0
H474 H 0.57755 0.3237 0.30982 0.0
H475 H 0.53423 0.34295 0.39954 0.0
H476 H 0.53406 0.34266 0.33687 0.0
H477 H 0.55061 0.35677 0.36393 0.0
H478 H 0.54398 0.35095 0.19511 0.0
C479 C 0.54487 0.33055 0.2563 0.0
Co480 Co 0.00398 0.02211 0.77145 0.0
C481 C 0.97468 0.00504 0.82057 0.0
Co482 Co 0.99109 1.00142 0.72953 0.0
C483 C 0.00721 0.0542 0.82551 0.0
C484 C 0.03439 0.04182 0.80751 0.0
N485 N 0.01543 0.03994 0.80365 0.0
N486 N 0.02032 0.06496 0.8428 0.0
C487 C 0.03744 0.0571 0.83139 0.0
H488 H 0.99188 0.05662 0.82836 0.0
H489 H 0.04532 0.03287 0.79294 0.0
C490 C 0.02037 0.01864 0.68048 0.0
N491 N 0.9798 0.98356 0.69707 0.0
C492 C 0.98843 0.96948 0.67532 0.0
C493 C 0.96093 0.98144 0.69215 0.0
N494 N 0.97569 0.95859 0.65707 0.0
C495 C 0.95835 0.96619 0.66768 0.0
C496 C 0.97366 0.03679 0.71257 0.0
O497 O 0.02066 0.02724 0.71798 0.0
O498 O 0.0083 0.00628 0.67765 0.0
O499 O 0.97354 0.02035 0.70021 0.0
O500 O 0.98583 0.04055 0.74344 0.0
O501 O 0.97383 0.99679 0.7825 0.0
H502 H 0.94974 0.99026 0.7062 0.0
H503 H 0.00381 0.96731 0.67307 0.0
O504 O 0.98731 0.01683 0.82389 0.0
O505 O 0.02192 0.00331 0.79958 0.0
O506 O 0.00888 0.98286 0.75863 0.0
C507 C 0.02145 0.98675 0.78827 0.0
H508 H 0.05127 0.06225 0.83844 0.0
H509 H 0.9447 0.96088 0.65953 0.0
Co510 Co 0.49647 0.01751 0.7949 0.0
C511 C 0.49838 0.97877 0.81341 0.0
Co512 Co 0.51012 0.00314 0.73646 0.0
C513 C 0.46482 0.02539 0.85616 0.0
C514 C 0.48708 0.04402 0.86355 0.0
N515 N 0.48269 0.02914 0.84128 0.0
N516 N 0.45768 0.03747 0.88625 0.0
C517 C 0.47177 0.04915 0.89126 0.0
H518 H 0.45705 0.01416 0.84426 0.0
H519 H 0.50026 0.0511 0.85853 0.0
C520 C 0.50809 0.04194 0.71815 0.0
N521 N 0.52394 0.99164 0.68983 0.0
C522 C 0.54194 0.99531 0.67586 0.0
C523 C 0.51912 0.97777 0.66422 0.0
N524 N 0.54867 0.98422 0.64299 0.0
C525 C 0.53428 0.97323 0.63522 0.0
C526 C 0.472 0.00902 0.72103 0.0
O527 O 0.50013 0.04117 0.75925 0.0
O528 O 0.51388 0.02683 0.70187 0.0
O529 O 0.48688 1.00216 0.70194 0.0
O530 O 0.47341 0.01599 0.76063 0.0
O531 O 0.50618 0.97934 0.77204 0.0
H532 H 0.50561 0.97117 0.66708 0.0
H533 H 0.55002 0.00597 0.68962 0.0
O534 O 0.49293 0.99398 0.82963 0.0
O535 O 0.51986 0.01874 0.82914 0.0
O536 O 0.53301 0.00433 0.77117 0.0
C537 C 0.53464 0.01142 0.81053 0.0
H538 H 0.47081 0.06108 0.91175 0.0
H539 H 0.53487 0.96232 0.61142 0.0
Co540 Co 0.51712 0.51519 0.7839 0.0
C541 C 0.50348 0.48229 0.82771 0.0
Co542 Co 0.49149 0.50662 0.74734 0.0
C543 C 0.54161 0.52264 0.86249 0.0
C544 C 0.55438 0.52912 0.79353 0.0
N545 N 0.53842 0.52268 0.8147 0.0
N546 N 0.55896 0.52883 0.87206 0.0
C547 C 0.56699 0.53291 0.82857 0.0
H548 H 0.53132 0.51823 0.88965 0.0
H549 H 0.55676 0.53076 0.75506 0.0
C550 C 0.50521 0.53957 0.7037 0.0
N551 N 0.47018 0.49898 0.7169 0.0
C552 C 0.46665 0.49895 0.66926 0.0
C553 C 0.45493 0.49134 0.73897 0.0
N554 N 0.44989 0.49139 0.66088 0.0
C555 C 0.4425 0.48661 0.7047 0.0
C556 C 0.48275 0.53004 0.81699 0.0
O557 O 0.51788 0.53642 0.73675 0.0
O558 O 0.49224 0.52804 0.70125 0.0
O559 O 0.47547 0.52071 0.78622 0.0
O560 O 0.50084 0.52938 0.82237 0.0
O561 O 0.49095 0.4852 0.7943 0.0
H562 H 0.45306 0.4892 0.77759 0.0
H563 H 0.47638 0.50396 0.64134 0.0
O564 O 0.51622 0.49401 0.83028 0.0
O565 O 0.53314 0.50085 0.74537 0.0
O566 O 0.50773 0.49267 0.70843 0.0
C567 C 0.52579 0.49175 0.71413 0.0
H568 H 0.58117 0.53786 0.82236 0.0
H569 H 0.42897 0.48027 0.71147 0.0
Co570 Co 0.99682 0.51741 0.80764 0.0
C571 C 0.0301 0.49252 0.83518 0.0
Co572 Co 1.00146 0.48253 0.76382 0.0
C573 C 0.00245 0.55066 0.84832 0.0
C574 C 0.99998 0.55658 0.77172 0.0
N575 N 1.00077 0.54246 0.80744 0.0
N576 N 0.00276 0.56944 0.84 0.0
C577 C 1.00132 0.57317 0.7916 0.0
H578 H 0.00295 0.54287 0.88366 0.0
H579 H 0.9978 0.555 0.73402 0.0
C580 C 0.96931 0.50856 0.73334 0.0
N581 N 0.00592 0.46059 0.73578 0.0
C582 C 1.00151 0.45618 0.69132 0.0
C583 C 0.0151 0.44513 0.75791 0.0
N584 N 0.00755 0.43846 0.68498 0.0
C585 C 0.01611 0.43155 0.72695 0.0
C586 C 0.98214 0.48233 0.83375 0.0
O587 O 0.97495 0.52044 0.76233 0.0
O588 O 0.97824 0.49235 0.7289 0.0
O589 O 0.98556 0.468 0.81338 0.0
O590 O 0.99139 0.49547 0.81612 0.0
O591 O 0.02448 0.48025 0.80725 0.0
H592 H 0.02074 0.44385 0.79428 0.0
H593 H 0.9939 0.46574 0.66439 0.0
O594 O 0.02047 0.50831 0.84083 0.0
O595 O 0.01316 0.51883 0.75227 0.0
O596 O 0.01583 0.49385 0.71553 0.0
C597 C 0.01983 0.51037 0.71816 0.0
H598 H 1.00042 0.58693 0.77192 0.0
H599 H 0.02294 0.41773 0.73462 0.0
C600 C 0.147 0.06582 0.39992 0.0
C601 C 0.15496 0.05216 0.37237 0.0
C602 C 0.13071 0.06251 0.42753 0.0
C603 C 0.08959 0.03329 0.45026 0.0
H604 H 0.09709 0.04365 0.58232 0.0
C605 C 0.03707 0.01089 0.60477 0.0
C606 C 0.03423 0.0228 0.64117 0.0
C607 C 0.05084 0.01446 0.56905 0.0
C608 C 0.09453 0.04095 0.5455 0.0
H609 H 0.1513 0.02487 0.34938 0.0
H610 H 0.12246 0.01911 0.39763 0.0
H611 H 0.1219 0.0503 0.52336 0.0
H612 H 0.04314 0.04816 0.66752 0.0
H613 H 0.0666 0.0547 0.60478 0.0
H614 H 0.06203 0.02415 0.47244 0.0
C615 C 0.12897 0.03235 0.39785 0.0
C616 C 0.10884 0.04471 0.51166 0.0
C617 C 0.14541 0.03566 0.37013 0.0
C618 C 0.0451 0.03859 0.64034 0.0
C619 C 0.05868 0.04226 0.60443 0.0
C620 C 0.0751 0.02968 0.48415 0.0
C621 C 0.12191 0.04549 0.42821 0.0
C622 C 0.10651 0.04108 0.46359 0.0
C623 C 0.06198 0.03011 0.56867 0.0
C624 C 0.07734 0.0336 0.53222 0.0
H625 H 0.15389 0.07879 0.40175 0.0
H626 H 0.12536 0.07307 0.44972 0.0
H627 H 0.0874 0.03038 0.41344 0.0
H628 H 0.02896 0.99856 0.60447 0.0
H629 H 0.05307 0.00468 0.54249 0.0
C630 C 0.52122 0.18323 0.43205 0.0
C631 C 0.51578 0.19988 0.45152 0.0
C632 C 0.51951 0.16592 0.45932 0.0
C633 C 0.51653 0.14565 0.58688 0.0
H634 H 0.50272 0.10114 0.53188 0.0
C635 C 0.5028 0.07686 0.70498 0.0
C636 C 0.50969 0.06007 0.68823 0.0
C637 C 0.50343 0.0938 0.67561 0.0
C638 C 0.5068 0.11341 0.54772 0.0
H639 H 0.50307 0.2114 0.51344 0.0
H640 H 0.49975 0.18138 0.56044 0.0
H641 H 0.50321 0.1307 0.48059 0.0
H642 H 0.52287 0.04802 0.62748 0.0
H643 H 0.52412 0.07753 0.57661 0.0
H644 H 0.52012 0.12841 0.65393 0.0
C645 C 0.5059 0.18159 0.52482 0.0
C646 C 0.50707 0.13037 0.51827 0.0
C647 C 0.5077 0.19881 0.49775 0.0
C648 C 0.51742 0.06067 0.64159 0.0
C649 C 0.518 0.07759 0.61221 0.0
C650 C 0.51622 0.12873 0.61627 0.0
C651 C 0.51223 0.16492 0.50654 0.0
C652 C 0.51188 0.14674 0.5375 0.0
C653 C 0.51093 0.09437 0.62872 0.0
C654 C 0.51133 0.11238 0.59716 0.0
H655 H 0.52762 0.18361 0.39667 0.0
H656 H 0.52461 0.15339 0.44412 0.0
H657 H 0.52073 0.15785 0.60283 0.0
H658 H 0.49668 0.07691 0.74059 0.0
H659 H 0.49768 0.10641 0.68935 0.0
C660 C 0.33955 0.48907 0.32905 0.0
C661 C 0.32882 0.47366 0.34366 0.0
C662 C 0.35783 0.49038 0.34862 0.0
C663 C 0.39548 0.46431 0.42971 0.0
H664 H 0.39932 0.51223 0.47878 0.0
C665 C 0.43071 0.47319 0.61072 0.0
C666 C 0.44147 0.48877 0.61512 0.0
C667 C 0.42133 0.47116 0.56756 0.0
C668 C 0.39874 0.49887 0.46464 0.0
H669 H 0.32897 0.44707 0.38729 0.0
H670 H 0.36065 0.4492 0.42135 0.0
H671 H 0.37535 0.5087 0.41769 0.0
H672 H 0.45124 0.51423 0.57745 0.0
H673 H 0.43449 0.51086 0.50175 0.0
H674 H 0.41814 0.45427 0.47915 0.0
C675 C 0.35535 0.46022 0.39448 0.0
C676 C 0.38501 0.49683 0.42938 0.0
C677 C 0.33716 0.45895 0.37499 0.0
C678 C 0.4431 0.50206 0.57493 0.0
C679 C 0.43345 0.50017 0.53179 0.0
C680 C 0.40909 0.46632 0.46527 0.0
C681 C 0.36559 0.47632 0.38325 0.0
C682 C 0.38274 0.47936 0.41267 0.0
C683 C 0.42231 0.48478 0.52785 0.0
C684 C 0.41043 0.48347 0.48426 0.0
H685 H 0.33324 0.50069 0.30543 0.0
H686 H 0.36542 0.50285 0.33861 0.0
H687 H 0.39442 0.45075 0.41699 0.0
H688 H 0.42938 0.46264 0.64093 0.0
H689 H 0.4127 0.45926 0.56591 0.0
C690 C 0.96606 0.34596 0.37125 0.0
C691 C 0.97957 0.33221 0.35858 0.0
C692 C 0.97169 0.3607 0.3956 0.0
C693 C 0.00954 0.36977 0.47985 0.0
H694 H 0.98111 0.41749 0.47863 0.0
C695 C 0.0053 0.40909 0.64769 0.0
C696 C 0.00551 0.42866 0.64283 0.0
C697 C 0.00412 0.39936 0.60726 0.0
C698 C 0.9894 0.40435 0.47916 0.0
H699 H 0.00974 0.32392 0.35786 0.0
H700 H 0.01977 0.34999 0.39963 0.0
H701 H 0.97654 0.39814 0.41343 0.0
H702 H 0.00445 0.45333 0.59116 0.0
H703 H 0.00234 0.43628 0.52018 0.0
H704 H 0.02236 0.37591 0.54553 0.0
C705 C 0.00473 0.34917 0.39158 0.0
C706 C 0.98666 0.39315 0.44194 0.0
C707 C 0.99905 0.33437 0.36707 0.0
C708 C 0.00417 0.43828 0.59626 0.0
C709 C 0.003 0.42849 0.55558 0.0
C710 C 0.01233 0.38097 0.51689 0.0
C711 C 0.99102 0.36209 0.40793 0.0
C712 C 0.99629 0.37546 0.4425 0.0
C713 C 0.00314 0.40887 0.56058 0.0
C714 C 0.00187 0.39815 0.51786 0.0
H715 H 0.95094 0.34464 0.36502 0.0
H716 H 0.96067 0.37021 0.40772 0.0
H717 H 0.01713 0.35622 0.48196 0.0
H718 H 0.00586 0.40122 0.68293 0.0
H719 H 0.00371 0.38432 0.61274 0.0
C720 C 0.84495 0.98956 0.11626 0.0
C721 C 0.84406 0.97101 0.13658 0.0
C722 C 0.86073 0.99505 0.08852 0.0
C723 C 0.91044 0.98187 0.05519 0.0
H724 H 0.89521 0.00462 0.92763 0.0
C725 C 0.96409 0.00711 0.90587 0.0
C726 C 0.96078 1.0014 0.86006 0.0
C727 C 0.95071 0.00415 0.94277 0.0
C728 C 0.89968 0.9983 0.96311 0.0
H729 H 0.85917 0.9439 0.14626 0.0
H730 H 0.88705 0.9536 0.09917 0.0
H731 H 0.871 0.99915 0.98972 0.0
H732 H 0.94079 0.98811 0.81714 0.0
H733 H 0.91729 0.98327 0.88134 0.0
H734 H 0.93915 0.9809 0.02821 0.0
C735 C 0.87563 0.96391 0.10452 0.0
C736 C 0.88586 0.99535 0.99882 0.0
C737 C 0.85973 0.95837 0.1316 0.0
C738 C 0.9438 0.99263 0.85203 0.0
C739 C 0.93029 0.98996 0.88868 0.0
C740 C 0.92434 0.98511 0.01963 0.0
C741 C 0.87596 0.98212 0.08111 0.0
C742 C 0.89103 0.98689 0.04509 0.0
C743 C 0.93358 0.99572 0.93441 0.0
C744 C 0.91905 0.99309 0.973 0.0
H745 H 0.83286 0.99944 0.11892 0.0
H746 H 0.86066 0.0092 0.07117 0.0
H747 H 0.91484 0.97532 0.09051 0.0
H748 H 0.97703 0.01388 0.91326 0.0
H749 H 0.95358 0.0088 0.97757 0.0
C750 C 0.49887 0.83138 0.08392 0.0
C751 C 0.48134 0.8228 0.0833 0.0
C752 C 0.50112 0.84869 0.05709 0.0
C753 C 0.4734 0.88994 0.99518 0.0
H754 H 0.51966 0.89718 0.92091 0.0
C755 C 0.50324 0.94373 0.8288 0.0
C756 C 0.49631 0.96082 0.84385 0.0
C757 C 0.5018 0.92703 0.85893 0.0
C758 C 0.50659 0.89534 0.94114 0.0
H759 H 0.45221 0.82609 0.05587 0.0
H760 H 0.45613 0.85596 0.00908 0.0
H761 H 0.51651 0.8682 0.97333 0.0
H762 H 0.48244 0.97366 0.90258 0.0
H763 H 0.48012 0.94478 0.9548 0.0
H764 H 0.46323 0.91678 0.96223 0.0
C765 C 0.46818 0.84946 0.03019 0.0
C766 C 0.50489 0.87881 0.97175 0.0
C767 C 0.46597 0.83222 0.05673 0.0
C768 C 0.48785 0.96077 0.88956 0.0
C769 C 0.48643 0.94415 0.91956 0.0
C770 C 0.4751 0.90642 0.96468 0.0
C771 C 0.48583 0.85786 0.02946 0.0
C772 C 0.48821 0.87585 0.99894 0.0
C773 C 0.49338 0.92703 0.90476 0.0
C774 C 0.49168 0.90935 0.9371 0.0
H775 H 0.511 0.82443 0.10384 0.0
H776 H 0.51485 0.85486 0.05781 0.0
H777 H 0.46043 0.88826 0.0159 0.0
H778 H 0.50986 0.94326 0.79387 0.0
H779 H 0.50712 0.91409 0.8461 0.0
C780 C 0.65801 0.54434 0.22513 0.0
C781 C 0.67294 0.53073 0.22192 0.0
C782 C 0.64093 0.54359 0.19919 0.0
C783 C 0.61433 0.51384 0.12225 0.0
H784 H 0.6003 0.5612 0.04846 0.0
C785 C 0.56183 0.51908 0.95999 0.0
C786 C 0.56752 0.53025 0.91863 0.0
C787 C 0.57099 0.51975 0.00442 0.0
C788 C 0.60402 0.54785 0.06872 0.0
H789 H 0.68125 0.50491 0.1927 0.0
H790 H 0.65176 0.50356 0.14757 0.0
H791 H 0.62256 0.56012 0.11577 0.0
H792 H 0.58681 0.55147 0.89242 0.0
H793 H 0.60305 0.55224 0.96894 0.0
H794 H 0.59677 0.50142 0.07312 0.0
C795 C 0.65293 0.51479 0.17003 0.0
C796 C 0.61659 0.54726 0.10793 0.0
C797 C 0.66992 0.51557 0.19577 0.0
C798 C 0.58222 0.54245 0.92319 0.0
C799 C 0.59137 0.5431 0.96745 0.0
C800 C 0.60183 0.51442 0.08285 0.0
C801 C 0.63851 0.52918 0.16975 0.0
C802 C 0.62239 0.53017 0.13431 0.0
C803 C 0.58604 0.53162 0.0086 0.0
C804 C 0.59699 0.53136 0.05463 0.0
H805 H 0.66005 0.55623 0.24482 0.0
H806 H 0.63 0.55475 0.20044 0.0
H807 H 0.61823 0.50047 0.14219 0.0
H808 H 0.55066 0.50943 0.95789 0.0
H809 H 0.56638 0.51083 0.03542 0.0
C810 C 0.03257 0.67846 0.13004 0.0
C811 C 0.01942 0.69376 0.13227 0.0
C812 C 0.02799 0.66343 0.10534 0.0
C813 C 0.01296 0.63026 0.06088 0.0
H814 H 0.99131 0.64581 0.934 0.0
C815 C 0.99794 0.57768 0.92363 0.0
C816 C 0.00317 0.58271 0.87544 0.0
C817 C 0.9982 0.59055 0.95776 0.0
C818 C 0.9974 0.64123 0.96927 0.0
H819 H 0.99089 0.70504 0.11239 0.0
H820 H 0.98271 0.67862 0.06929 0.0
H821 H 0.99402 0.66867 0.99167 0.0
H822 H 0.01296 0.60543 0.82608 0.0
H823 H 0.01326 0.62782 0.8854 0.0
H824 H 0.01687 0.60292 0.03791 0.0
C825 C 0.99661 0.67827 0.08658 0.0
C826 C 0.99871 0.65429 0.00261 0.0
C827 C 1.00115 0.69327 0.11178 0.0
C828 C 0.00859 0.60104 0.86248 0.0
C829 C 0.00875 0.61393 0.89658 0.0
C830 C 0.01153 0.61716 0.02763 0.0
C831 C 0.01021 0.66345 0.08175 0.0
C832 C 0.00678 0.64905 0.0486 0.0
C833 C 0.00357 0.60886 0.94468 0.0
C834 C 0.00403 0.62254 0.9811 0.0
H835 H 0.04685 0.67868 0.14498 0.0
H836 H 0.03888 0.65238 0.10207 0.0
H837 H 0.01915 0.62572 0.09606 0.0
H838 H 0.99334 0.56388 0.9351 0.0
H839 H 0.9939 0.58623 0.99432 0.0
C840 C 0.92884 0.17958 0.49107 0.0
C841 C 0.91511 0.18122 0.45399 0.0
C842 C 0.92909 0.16466 0.52707 0.0
C843 C 0.92628 0.13405 0.60704 0.0
H844 H 0.91571 0.08672 0.56212 0.0
C845 C 0.95332 0.066 0.71653 0.0
C846 C 0.96039 0.05171 0.68999 0.0
C847 C 0.94213 0.08109 0.6941 0.0
C848 C 0.91894 0.09978 0.57523 0.0
H849 H 0.89004 0.16929 0.42713 0.0
H850 H 0.88984 0.14353 0.49152 0.0
H851 H 0.90693 0.1154 0.5121 0.0
H852 H 0.96105 0.04156 0.6198 0.0
H853 H 0.9428 0.0684 0.57965 0.0
H854 H 0.94012 0.11854 0.66762 0.0
C855 C 0.90087 0.15343 0.49194 0.0
C856 C 0.91349 0.11636 0.54682 0.0
C857 C 0.90085 0.16826 0.45526 0.0
C858 C 0.95564 0.05241 0.64103 0.0
C859 C 0.94498 0.06779 0.61818 0.0
C860 C 0.93223 0.11749 0.63475 0.0
C861 C 0.9154 0.15108 0.52745 0.0
C862 C 0.91772 0.13372 0.56155 0.0
C863 C 0.93835 0.08257 0.64418 0.0
C864 C 0.92923 0.10007 0.61852 0.0
H865 H 0.94022 0.18917 0.49054 0.0
H866 H 0.94079 0.16326 0.55282 0.0
H867 H 0.92923 0.14712 0.6205 0.0
H868 H 0.95661 0.06558 0.75461 0.0
H869 H 0.93685 0.09178 0.71589 0.0
C870 C 0.31441 0.05665 0.54723 0.0
C871 C 0.31591 0.07021 0.50744 0.0
C872 C 0.33058 0.05014 0.57472 0.0
C873 C 0.37013 0.04989 0.63385 0.0
H874 H 0.40416 0.01963 0.56012 0.0
C875 C 0.43653 0.01092 0.72328 0.0
C876 C 0.45338 0.01087 0.69613 0.0
C877 C 0.41893 0.01626 0.7011 0.0
C878 C 0.39499 0.0282 0.58111 0.0
H879 H 0.33526 0.08879 0.46839 0.0
H880 H 0.36362 0.07676 0.51544 0.0
H881 H 0.37518 0.03512 0.52238 0.0
H882 H 0.46516 0.01561 0.62453 0.0
H883 H 0.43457 0.0257 0.58572 0.0
H884 H 0.39014 0.0439 0.69191 0.0
C885 C 0.34987 0.07126 0.52495 0.0
C886 C 0.37839 0.03697 0.55952 0.0
C887 C 0.33368 0.07803 0.49803 0.0
C888 C 0.45229 0.01534 0.64607 0.0
C889 C 0.43471 0.02111 0.62393 0.0
C890 C 0.38693 0.04145 0.65525 0.0
C891 C 0.34848 0.05693 0.56251 0.0
C892 C 0.36593 0.04786 0.58575 0.0
C893 C 0.41788 0.02215 0.65143 0.0
C894 C 0.3996 0.03047 0.62915 0.0
H895 H 0.30106 0.05015 0.55527 0.0
H896 H 0.32932 0.03903 0.60366 0.0
H897 H 0.36062 0.05831 0.65449 0.0
H898 H 0.43704 0.0074 0.76202 0.0
H899 H 0.40625 0.01629 0.72324 0.0
C900 C 0.56964 0.34871 0.57656 0.0
C901 C 0.57953 0.34681 0.53341 0.0
C902 C 0.57066 0.36492 0.59941 0.0
C903 C 0.57496 0.41405 0.56441 0.0
H904 H 0.57164 0.41778 0.70176 0.0
C905 C 0.5305 0.47124 0.64809 0.0
C906 C 0.53783 0.47866 0.68836 0.0
C907 C 0.54072 0.4569 0.62777 0.0
C908 C 0.57288 0.41702 0.66332 0.0
H909 H 0.59986 0.35956 0.48328 0.0
H910 H 0.60136 0.38802 0.52285 0.0
H911 H 0.58164 0.38792 0.67294 0.0
H912 H 0.56195 0.47746 0.73776 0.0
H913 H 0.57967 0.45209 0.70257 0.0
H914 H 0.56526 0.44288 0.55475 0.0
C915 C 0.59264 0.37706 0.53856 0.0
C916 C 0.57847 0.39993 0.64688 0.0
C917 C 0.59173 0.36079 0.51591 0.0
C918 C 0.55597 0.47203 0.70663 0.0
C919 C 0.56606 0.45747 0.68673 0.0
C920 C 0.56917 0.43107 0.58083 0.0
C921 C 0.58152 0.37958 0.57944 0.0
C922 C 0.57907 0.39817 0.59726 0.0
C923 C 0.55834 0.44955 0.6477 0.0
C924 C 0.56757 0.43257 0.63041 0.0
H925 H 0.55998 0.33832 0.59081 0.0
H926 H 0.56181 0.36653 0.63068 0.0
H927 H 0.57509 0.41309 0.52594 0.0
H928 H 0.51658 0.47609 0.6332 0.0
H929 H 0.53435 0.45093 0.59796 0.0
C930 C 0.16107 0.51508 0.47283 0.0
C931 C 0.16419 0.4957 0.47356 0.0
C932 C 0.14755 0.52249 0.50339 0.0
C933 C 0.11965 0.51263 0.61268 0.0
H934 H 0.0769 0.5394 0.54229 0.0
C935 C 0.0486 0.52896 0.70542 0.0
C936 C 0.03467 0.51842 0.68658 0.0
C937 C 0.06533 0.53259 0.67965 0.0
C938 C 0.08891 0.53234 0.5625 0.0
H939 H 0.15656 0.46879 0.50723 0.0
H940 H 0.13323 0.48174 0.56195 0.0
H941 H 0.10676 0.53261 0.50015 0.0
H942 H 0.0263 0.50487 0.62486 0.0
H943 H 0.0552 0.51183 0.57904 0.0
H944 H 0.10153 0.51162 0.67453 0.0
C945 C 0.14116 0.49119 0.53782 0.0
C946 C 0.10595 0.52849 0.53854 0.0
C947 C 0.15439 0.48379 0.50661 0.0
C948 C 0.03686 0.51304 0.63998 0.0
C949 C 0.05333 0.51708 0.61379 0.0
C950 C 0.10276 0.51681 0.63684 0.0
C951 C 0.1373 0.51058 0.5356 0.0
C952 C 0.12115 0.51799 0.56308 0.0
C953 C 0.06803 0.52617 0.63427 0.0
C954 C 0.08703 0.52606 0.6115 0.0
H955 H 0.16845 0.52443 0.44713 0.0
H956 H 0.14471 0.53747 0.50103 0.0
H957 H 0.13122 0.50451 0.63221 0.0
H958 H 0.04727 0.53309 0.74153 0.0
H959 H 0.07655 0.53956 0.6961 0.0
C960 C 0.09978 0.85673 0.03956 0.0
C961 C 0.08601 0.84329 0.04076 0.0
C962 C 0.09928 0.87162 0.00297 0.0
C963 C 0.073 0.89052 0.88858 0.0
H964 H 0.08162 0.93804 0.9349 0.0
C965 C 0.04014 0.97122 0.85877 0.0
C966 C 0.03505 0.97198 0.81003 0.0
C967 C 0.05144 0.95609 0.88066 0.0
C968 C 0.0789 0.92492 0.92143 0.0
H969 H 0.06132 0.83452 0.00403 0.0
H970 H 0.05991 0.86047 0.94199 0.0
H971 H 0.09184 0.90949 0.98365 0.0
H972 H 0.03876 0.95852 0.74477 0.0
H973 H 0.05965 0.93283 0.78169 0.0
H974 H 0.05821 0.90573 0.82905 0.0
C975 C 0.07161 0.85945 0.96769 0.0
C976 C 0.0852 0.90843 0.94908 0.0
C977 C 0.07235 0.84448 0.00358 0.0
C978 C 0.04231 0.95802 0.78272 0.0
C979 C 0.05416 0.94321 0.80413 0.0
C980 C 0.06618 0.90696 0.86169 0.0
C981 C 0.08473 0.87354 0.9675 0.0
C982 C 0.08168 0.89096 0.93389 0.0
C983 C 0.05839 0.94166 0.85384 0.0
C984 C 0.06843 0.92442 0.8785 0.0
H985 H 0.11054 0.85605 0.06774 0.0
H986 H 0.1099 0.88192 0.00351 0.0
H987 H 0.0706 0.87739 0.87471 0.0
H988 H 0.03459 0.98183 0.88055 0.0
H989 H 0.05392 0.9554 0.91908 0.0
C990 C 0.68375 0.96045 0.02623 0.0
C991 C 0.68203 0.94277 0.05177 0.0
C992 C 0.6688 0.96878 0.99704 0.0
C993 C 0.62586 0.96002 0.93094 0.0
H994 H 0.60859 0.01019 0.95536 0.0
C995 C 0.5694 0.00229 0.81157 0.0
C996 C 0.55325 0.00888 0.83598 0.0
C997 C 0.58612 0.99608 0.83671 0.0
C998 C 0.61329 0.9962 0.94827 0.0
H999 H 0.66377 0.91955 0.06494 0.0
H1000 H 0.63764 0.93403 0.01281 0.0
H1001 H 0.63618 0.99446 0.99994 0.0
H1002 H 0.54247 0.01551 0.90529 0.0
H1003 H 0.57206 0.00477 0.94947 0.0
H1004 H 0.60303 0.9617 0.87934 0.0
C1005 C 0.65056 0.94143 0.01583 0.0
C1006 C 0.6291 0.98727 0.97341 0.0
C1007 C 0.66545 0.93317 0.04559 0.0
C1008 C 0.55468 0.01051 0.88556 0.0
C1009 C 0.57157 0.00434 0.91081 0.0
C1010 C 0.61025 0.96903 0.90536 0.0
C1011 C 0.65192 0.95952 0.99241 0.0
C1012 C 0.63547 0.96908 0.965 0.0
C1013 C 0.58713 0.99643 0.88675 0.0
C1014 C 0.60383 0.98719 0.91382 0.0
H1015 H 0.69624 0.9683 0.03085 0.0
H1016 H 0.67026 0.98265 0.97891 0.0
H1017 H 0.63052 0.94602 0.92381 0.0
H1018 H 0.56886 1.00109 0.77324 0.0
H1019 H 0.59807 0.99038 0.81724 0.0
C1020 C 0.41236 0.65911 0.01552 0.0
C1021 C 0.42387 0.67361 0.9976 0.0
C1022 C 0.41198 0.64284 0.99271 0.0
C1023 C 0.43137 0.60668 0.96649 0.0
H1024 H 0.43422 0.60281 0.82915 0.0
C1025 C 0.47786 0.55104 0.882 0.0
C1026 C 0.47054 0.54305 0.84261 0.0
C1027 C 0.46727 0.56516 0.90226 0.0
C1028 C 0.43314 0.6036 0.86761 0.0
H1029 H 0.44254 0.68308 0.93918 0.0
H1030 H 0.44162 0.65485 0.89903 0.0
H1031 H 0.42283 0.63229 0.85792 0.0
H1032 H 0.44609 0.54305 0.79465 0.0
H1033 H 0.42772 0.56802 0.82972 0.0
H1034 H 0.4426 0.57832 0.97618 0.0
C1035 C 0.43294 0.65603 0.93077 0.0
C1036 C 0.42674 0.62048 0.88401 0.0
C1037 C 0.43344 0.67226 0.95377 0.0
C1038 C 0.45209 0.54892 0.82509 0.0
C1039 C 0.44161 0.56326 0.84492 0.0
C1040 C 0.43797 0.5899 0.9501 0.0
C1041 C 0.42292 0.64085 0.95127 0.0
C1042 C 0.42626 0.62231 0.9336 0.0
C1043 C 0.44926 0.57171 0.88313 0.0
C1044 C 0.43939 0.58836 0.90052 0.0
H1045 H 0.40451 0.65991 0.04872 0.0
H1046 H 0.40389 0.63145 0.00881 0.0
H1047 H 0.43137 0.60773 0.00493 0.0
H1048 H 0.49202 0.54678 0.89629 0.0
H1049 H 0.47357 0.57156 0.93143 0.0
C1050 C 0.83062 0.51841 0.0325 0.0
C1051 C 0.83137 0.53509 0.05402 0.0
C1052 C 0.84604 0.51209 0.00577 0.0
C1053 C 0.88996 0.527 0.94351 0.0
H1054 H 0.90783 0.47516 0.97291 0.0
C1055 C 0.96443 0.50171 0.88874 0.0
C1056 C 0.96595 0.48525 0.8661 0.0
C1057 C 0.94769 0.50663 0.91224 0.0
C1058 C 0.90288 0.4896 0.96395 0.0
H1059 H 0.84842 0.55867 0.0626 0.0
H1060 H 0.87543 0.5476 0.01624 0.0
H1061 H 0.87832 0.48668 0.00919 0.0
H1062 H 0.95165 0.4605 0.85229 0.0
H1063 H 0.92212 0.46915 0.89369 0.0
H1064 H 0.91455 0.53001 0.89874 0.0
C1065 C 0.8629 0.53943 0.01985 0.0
C1066 C 0.88598 0.49619 0.98457 0.0
C1067 C 0.84751 0.5457 0.04669 0.0
C1068 C 0.95084 0.47322 0.86975 0.0
C1069 C 0.93396 0.47819 0.89328 0.0
C1070 C 0.90681 0.52043 0.92296 0.0
C1071 C 0.86247 0.52238 0.99989 0.0
C1072 C 0.87951 0.51502 0.97506 0.0
C1073 C 0.93205 0.49524 0.91342 0.0
C1074 C 0.91362 0.50175 0.93359 0.0
H1075 H 0.81844 0.50983 0.03795 0.0
H1076 H 0.84524 0.49902 0.99032 0.0
H1077 H 0.88514 0.54149 0.93485 0.0
H1078 H 0.97595 0.51118 0.88673 0.0
H1079 H 0.9468 0.51963 0.92848 0.0
C1080 C 0.9732 0.20253 0.04321 0.0
C1081 C 0.98716 0.20931 0.072 0.0
C1082 C 0.9781 0.1889 0.01269 0.0
C1083 C 0.99349 0.16387 0.93817 0.0
H1084 H 0.0249 0.12219 1.00016 0.0
C1085 C 0.99924 0.09191 0.86314 0.0
C1086 C 0.01701 0.08169 0.86681 0.0
C1087 C 0.99631 0.1083 0.88559 0.0
C1088 C 0.01636 0.13378 0.98181 0.0
H1089 H 0.01736 0.20779 0.08977 0.0
H1090 H 0.02604 0.18391 0.03616 0.0
H1091 H 0.0195 0.15026 0.04045 0.0
H1092 H 0.04552 0.08084 0.89816 0.0
H1093 H 0.04064 0.10948 0.93554 0.0
H1094 H 0.99031 0.1474 0.87953 0.0
C1095 C 0.01125 0.18911 0.03742 0.0
C1096 C 0.01328 0.14993 0.005 0.0
C1097 C 0.00634 0.20293 0.06765 0.0
C1098 C 0.0317 0.08833 0.89378 0.0
C1099 C 0.02882 0.10473 0.91591 0.0
C1100 C 0.99668 0.14776 0.91477 0.0
C1101 C 0.99709 0.18157 0.01059 0.0
C1102 C 0.00167 0.16512 0.98371 0.0
C1103 C 0.01109 0.11498 0.91222 0.0
C1104 C 0.00803 0.1324 0.93646 0.0
H1105 H 0.95829 0.20719 0.046 0.0
H1106 H 0.96682 0.18335 0.99282 0.0
H1107 H 0.98459 0.17538 0.92059 0.0
H1108 H 0.98759 0.08743 0.84248 0.0
H1109 H 0.98237 0.11563 0.88243 0.0
C1110 C 0.3047 0.03768 0.09138 0.0
C1111 C 0.29537 0.05536 0.09192 0.0
C1112 C 0.31947 0.03484 0.05866 0.0
C1113 C 0.35607 0.06291 0.99723 0.0
H1114 H 0.37287 0.01647 0.94836 0.0
C1115 C 0.43471 0.04744 0.94729 0.0
C1116 C 0.43852 0.03863 0.9055 0.0
C1117 C 0.41608 0.04911 0.96506 0.0
C1118 C 0.36831 0.02961 0.96137 0.0
H1119 H 0.29293 0.08352 0.05657 0.0
H1120 H 0.31807 0.07845 0.99794 0.0
H1121 H 0.34084 0.01986 0.98242 0.0
H1122 H 0.42543 0.02474 0.84953 0.0
H1123 H 0.39302 0.02758 0.88068 0.0
H1124 H 0.38345 0.07267 0.97648 0.0
C1125 C 0.31437 0.06683 0.02335 0.0
C1126 C 0.34999 0.0315 0.98119 0.0
C1127 C 0.29972 0.06967 0.05626 0.0
C1128 C 0.42317 0.03135 0.88223 0.0
C1129 C 0.40453 0.033 0.90005 0.0
C1130 C 0.37433 0.061 0.97757 0.0
C1131 C 0.32517 0.04969 0.02595 0.0
C1132 C 0.34371 0.04812 0.99988 0.0
C1133 C 0.40072 0.04203 0.9415 0.0
C1134 C 0.38083 0.04425 0.96004 0.0
H1135 H 0.3019 0.02658 0.11932 0.0
H1136 H 0.32747 0.02149 0.06197 0.0
H1137 H 0.35194 0.07581 0.01195 0.0
H1138 H 0.44616 0.05295 0.96658 0.0
H1139 H 0.41374 0.05583 0.99761 0.0
C1140 C 0.50411 0.34149 0.12104 0.0
C1141 C 0.52321 0.33541 0.13193 0.0
C1142 C 0.49985 0.35511 0.08212 0.0
C1143 C 0.52012 0.39637 0.03236 0.0
H1144 H 0.48933 0.39797 0.91633 0.0
C1145 C 0.52056 0.45941 0.88898 0.0
C1146 C 0.50395 0.46502 0.86176 0.0
C1147 C 0.52152 0.44283 0.91984 0.0
C1148 C 0.49771 0.39789 0.94898 0.0
H1149 H 0.55256 0.33743 0.10854 0.0
H1150 H 0.54515 0.36115 0.04101 0.0
H1151 H 0.49276 0.36907 0.97129 0.0
H1152 H 0.4752 0.45762 0.8459 0.0
H1153 H 0.47655 0.429 0.90143 0.0
H1154 H 0.52469 0.42506 0.01204 0.0
C1155 C 0.53351 0.35545 0.06231 0.0
C1156 C 0.49974 0.38129 0.98018 0.0
C1157 C 0.53772 0.34181 0.1007 0.0
C1158 C 0.48822 0.45368 0.8664 0.0
C1159 C 0.48907 0.43717 0.898 0.0
C1160 C 0.51784 0.41297 0.00189 0.0
C1161 C 0.51468 0.36283 0.05401 0.0
C1162 C 0.51127 0.38034 0.02164 0.0
C1163 C 0.50576 0.43149 0.92521 0.0
C1164 C 0.50694 0.41394 0.95915 0.0
H1165 H 0.49272 0.33698 0.14503 0.0
H1166 H 0.48523 0.36068 0.07647 0.0
H1167 H 0.52884 0.39605 0.06461 0.0
H1168 H 0.53304 0.46766 0.88579 0.0
H1169 H 0.53483 0.43881 0.93895 0.0
C1170 C 0.18702 0.47947 0.0393 0.0
C1171 C 0.18964 0.46263 0.06924 0.0
C1172 C 0.17171 0.48222 0.0065 0.0
C1173 C 0.13478 0.45993 0.94256 0.0
H1174 H 0.10181 0.50245 0.96969 0.0
C1175 C 0.05675 0.47049 0.87068 0.0
C1176 C 0.04886 0.48879 0.86 0.0
C1177 C 0.07476 0.46717 0.89292 0.0
C1178 C 0.11092 0.49073 0.96063 0.0
H1179 H 0.17923 0.43508 0.08656 0.0
H1180 H 0.15287 0.43961 0.02784 0.0
H1181 H 0.1329 0.49692 0.00896 0.0
H1182 H 0.05394 0.51799 0.86279 0.0
H1183 H 0.08549 0.51235 0.8994 0.0
H1184 H 0.11304 0.45387 0.89351 0.0
C1185 C 0.16254 0.4507 0.02987 0.0
C1186 C 0.12877 0.48756 0.98339 0.0
C1187 C 0.17763 0.44808 0.06329 0.0
C1188 C 0.05946 0.5037 0.8714 0.0
C1189 C 0.07759 0.50042 0.89266 0.0
C1190 C 0.11703 0.4633 0.91896 0.0
C1191 C 0.15897 0.46806 0.00263 0.0
C1192 C 0.14082 0.47206 0.97492 0.0
C1193 C 0.08551 0.4821 0.90409 0.0
C1194 C 0.10473 0.47868 0.928 0.0
H1195 H 0.19589 0.49098 0.04387 0.0
H1196 H 0.16929 0.4957 0.98574 0.0
H1197 H 0.14382 0.44787 0.93542 0.0
H1198 H 0.0489 0.45871 0.86237 0.0
H1199 H 0.0801 0.45286 0.90183 0.0
C1200 C 0.02526 0.82222 0.44959 0.0
C1201 C 0.01122 0.81673 0.41884 0.0
C1202 C 0.02085 0.83575 0.48072 0.0
C1203 C 0.98076 0.86353 0.53254 0.0
H1204 H 0.01954 0.89957 0.53807 0.0
C1205 C 0.96554 0.93552 0.6035 0.0
C1206 C 0.97961 0.94206 0.63265 0.0
C1207 C 0.96916 0.9194 0.58045 0.0
C1208 C 0.00864 0.88953 0.53748 0.0
H1209 H 0.98137 0.82049 0.39797 0.0
H1210 H 0.97359 0.8444 0.45193 0.0
H1211 H 0.02588 0.87254 0.4944 0.0
H1212 H 0.00856 0.93632 0.66048 0.0
H1213 H 0.0149 0.90842 0.61984 0.0
H1214 H 0.96338 0.88091 0.57489 0.0
C1215 C 0.98799 0.83805 0.45264 0.0
C1216 C 0.01229 0.87393 0.51249 0.0
C1217 C 0.99239 0.82431 0.42175 0.0
C1218 C 0.99744 0.93199 0.63786 0.0
C1219 C 1.00108 0.91591 0.61458 0.0
C1220 C 0.97707 0.87922 0.55739 0.0
C1221 C 0.00233 0.84438 0.48145 0.0
C1222 C 0.99842 0.86068 0.50961 0.0
C1223 C 0.98698 0.90939 0.5856 0.0
C1224 C 0.99096 0.89245 0.5601 0.0
H1225 H 0.03988 0.81653 0.44814 0.0
H1226 H 0.03216 0.83984 0.50325 0.0
H1227 H 0.96981 0.85356 0.53163 0.0
H1228 H 0.95175 0.94298 0.59783 0.0
H1229 H 0.95808 0.91498 0.55778 0.0
C1230 C 0.70428 0.98639 0.43987 0.0
C1231 C 0.71213 0.96808 0.43982 0.0
C1232 C 0.68833 0.99013 0.46832 0.0
C1233 C 0.65809 0.97095 0.5687 0.0
H1234 H 0.61621 0.99725 0.49403 0.0
C1235 C 0.58349 0.98787 0.64969 0.0
C1236 C 0.56762 0.98369 0.62263 0.0
C1237 C 0.60191 0.9872 0.63027 0.0
C1238 C 0.62777 0.9899 0.51536 0.0
H1239 H 0.71032 0.93954 0.47126 0.0
H1240 H 0.68286 0.9461 0.52206 0.0
H1241 H 0.64797 0.99453 0.45836 0.0
H1242 H 0.55863 0.97574 0.55382 0.0
H1243 H 0.59081 0.97471 0.5196 0.0
H1244 H 0.63776 0.96606 0.62542 0.0
C1245 C 0.68893 0.95759 0.5002 0.0
C1246 C 0.64601 0.98852 0.49515 0.0
C1247 C 0.70467 0.95382 0.47128 0.0
C1248 C 0.57058 0.97892 0.57559 0.0
C1249 C 0.58898 0.9785 0.55591 0.0
C1250 C 0.63989 0.97254 0.58915 0.0
C1251 C 0.6801 0.97565 0.49761 0.0
C1252 C 0.66133 0.97881 0.52132 0.0
C1253 C 0.60486 0.98257 0.58309 0.0
C1254 C 0.62445 0.98178 0.56242 0.0
H1255 H 0.70957 0.99755 0.41528 0.0
H1256 H 0.68193 0.00422 0.46589 0.0
H1257 H 0.66961 0.9634 0.58976 0.0
H1258 H 0.58172 0.99138 0.68623 0.0
H1259 H 0.61385 0.99048 0.65203 0.0
C1260 C 0.46872 0.67709 0.42752 0.0
C1261 C 0.48312 0.68446 0.39746 0.0
C1262 C 0.47333 0.66451 0.46787 0.0
C1263 C 0.51218 0.62976 0.51118 0.0
H1264 H 0.47758 0.62099 0.61857 0.0
C1265 C 0.52113 0.56757 0.6641 0.0
C1266 C 0.50481 0.55706 0.67051 0.0
C1267 C 0.52035 0.58455 0.63446 0.0
C1268 C 0.48739 0.6233 0.58882 0.0
H1269 H 0.5137 0.68559 0.38801 0.0
H1270 H 0.52197 0.66406 0.46 0.0
H1271 H 0.47364 0.64983 0.56469 0.0
H1272 H 0.4749 0.55619 0.65092 0.0
H1273 H 0.47347 0.586 0.60026 0.0
H1274 H 0.52598 0.60315 0.53618 0.0
C1275 C 0.50701 0.66763 0.45164 0.0
C1276 C 0.48512 0.6398 0.55772 0.0
C1277 C 0.50234 0.68023 0.41086 0.0
C1278 C 0.48775 0.56388 0.64658 0.0
C1279 C 0.48688 0.58101 0.61786 0.0
C1280 C 0.51467 0.61339 0.54292 0.0
C1281 C 0.49254 0.659 0.4796 0.0
C1282 C 0.49707 0.64303 0.51746 0.0
C1283 C 0.50314 0.59155 0.61161 0.0
C1284 C 0.50195 0.60977 0.58119 0.0
H1285 H 0.45378 0.68005 0.41777 0.0
H1286 H 0.4617 0.65815 0.48775 0.0
H1287 H 0.52156 0.63152 0.48042 0.0
H1288 H 0.53449 0.56268 0.68206 0.0
H1289 H 0.53309 0.59241 0.63021 0.0
C1290 C 0.82847 0.56307 0.48933 0.0
C1291 C 0.81802 0.54919 0.47153 0.0
C1292 C 0.84203 0.55844 0.52614 0.0
C1293 C 0.87542 0.51968 0.5656 0.0
H1294 H 0.88708 0.5482 0.67096 0.0
C1295 C 0.94105 0.49893 0.68872 0.0
C1296 C 0.95111 0.51316 0.70616 0.0
C1297 C 0.92353 0.50299 0.66472 0.0
C1298 C 0.88419 0.54021 0.64133 0.0
H1299 H 0.81262 0.51982 0.48016 0.0
H1300 H 0.8364 0.51164 0.54458 0.0
H1301 H 0.85763 0.5559 0.62409 0.0
H1302 H 0.95065 0.5429 0.71164 0.0
H1303 H 0.92047 0.55013 0.66799 0.0
H1304 H 0.9022 0.50458 0.58072 0.0
C1305 C 0.83409 0.52611 0.53005 0.0
C1306 C 0.86721 0.54454 0.61478 0.0
C1307 C 0.82033 0.53081 0.49365 0.0
C1308 C 0.94325 0.5316 0.69877 0.0
C1309 C 0.92582 0.53571 0.67406 0.0
C1310 C 0.89247 0.51552 0.5916 0.0
C1311 C 0.84559 0.53977 0.54536 0.0
C1312 C 0.86267 0.53434 0.57655 0.0
C1313 C 0.91567 0.52145 0.65674 0.0
C1314 C 0.89719 0.52575 0.62978 0.0
H1315 H 0.82704 0.57732 0.47253 0.0
H1316 H 0.8507 0.56925 0.537 0.0
H1317 H 0.87254 0.51183 0.53566 0.0
H1318 H 0.94652 0.48453 0.69441 0.0
H1319 H 0.91604 0.49154 0.653 0.0
loop_
_geom_bond_atom_site_label_1
_geom_bond_atom_site_label_2
_geom_bond_distance
_geom_bond_site_symmetry_2
_ccdc_geom_bond_type
C0 C1 1.391 . S
C0 C4 1.391 . S
C0 H42 0.948 . S
C1 C0 1.391 . S
C1 C2 1.391 . S
C2 C1 1.391 . S
C2 H58 0.947 . S
C2 C59 1.392 . S
C3 C4 1.391 . S
C3 C7 1.397 . S
C3 C59 1.419 . S
C4 C0 1.391 . S
C4 C3 1.391 . S
C4 C5 1.399 . S
C5 C4 1.399 . S
C5 C8 1.396 . S
C5 C17 1.453 . S
C5 C18 1.684 . S
H6 C30 0.948 . S
C7 C3 1.397 . S
C7 C8 1.394 . S
C7 C26 1.723 . S
C8 C5 1.396 . S
C8 C7 1.394 . S
C8 C38 1.723 . S
H9 C32 0.947 . S
H10 C33 0.948 . S
H11 C39 0.982 . S
H12 C40 0.979 . S
H13 C40 0.980 1_556 S
H14 C40 0.983 1_556 S
H15 C39 0.979 1_556 S
H16 C39 0.977 1_556 S
C17 C5 1.453 . S
C17 H46 0.982 . S
C17 H47 0.979 . S
C17 H48 0.977 . S
C18 C5 1.684 . S
C18 H43 0.979 . S
C18 H44 0.980 . S
C18 H45 0.983 . S
C19 C20 1.391 1_554 S
C19 C24 1.391 . S
C19 H49 0.948 . S
C20 C19 1.391 1_556 S
C20 C21 1.391 . S
C21 C20 1.391 . S
C21 C22 1.392 . S
C21 H50 0.947 . S
C22 C21 1.392 . S
C22 C23 1.419 1_556 S
C22 H51 0.948 . S
C23 C22 1.419 1_554 S
C23 C24 1.391 . S
C23 C27 1.397 . S
C24 C19 1.391 . S
C24 C23 1.391 . S
C24 C25 1.399 . S
C25 C24 1.399 . S
C25 C26 1.396 . S
C25 C28 1.453 . S
C25 C29 1.684 . S
C26 C7 1.723 . S
C26 C25 1.396 . S
C26 C27 1.394 . S
C27 C23 1.397 . S
C27 C26 1.394 . S
C27 C37 1.723 . S
C28 C25 1.453 . S
C28 H52 0.982 . S
C28 H53 0.979 . S
C28 H54 0.977 . S
C29 C25 1.684 . S
C29 H55 0.979 . S
C29 H56 0.980 . S
C29 H57 0.983 . S
C30 H6 0.948 . S
C30 C31 1.391 . S
C30 C35 1.391 . S
C31 C30 1.391 . S
C31 C32 1.391 . S
C32 H9 0.947 . S
C32 C31 1.391 . S
C32 C33 1.392 . S
C33 H10 0.948 . S
C33 C32 1.392 . S
C33 C34 1.419 . S
C34 C33 1.419 . S
C34 C35 1.391 . S
C34 C38 1.397 . S
C35 C30 1.391 . S
C35 C34 1.391 . S
C35 C36 1.399 . S
C36 C35 1.399 . S
C36 C37 1.396 . S
C36 C39 1.453 . S
C36 C40 1.684 . S
C37 C27 1.723 . S
C37 C36 1.396 . S
C37 C38 1.394 . S
C38 C8 1.723 . S
C38 C34 1.397 . S
C38 C37 1.394 . S
C39 H11 0.982 . S
C39 H15 0.979 1_554 S
C39 H16 0.977 1_554 S
C39 C36 1.453 . S
C40 H12 0.979 . S
C40 H13 0.980 1_554 S
C40 H14 0.983 1_554 S
C40 C36 1.684 . S
H41 C59 0.948 . S
H42 C0 0.948 . S
H43 C18 0.979 . S
H44 C18 0.980 . S
H45 C18 0.983 . S
H46 C17 0.982 . S
H47 C17 0.979 . S
H48 C17 0.977 . S
H49 C19 0.948 . S
H50 C21 0.947 . S
H51 C22 0.948 . S
H52 C28 0.982 . S
H53 C28 0.979 . S
H54 C28 0.977 . S
H55 C29 0.979 . S
H56 C29 0.980 . S
H57 C29 0.983 . S
H58 C2 0.947 . S
C59 C2 1.392 . S
C59 C3 1.419 . S
C59 H41 0.948 . S
C60 C61 1.391 . S
C60 C64 1.391 1_556 S
C60 H102 0.948 . S
C61 C60 1.391 . S
C61 C62 1.391 1_556 S
C62 C61 1.391 1_554 S
C62 H118 0.947 . S
C62 C119 1.392 . S
C63 C64 1.391 . S
C63 C67 1.397 1_655 S
C63 C119 1.419 . S
C64 C60 1.391 1_554 S
C64 C63 1.391 . S
C64 C65 1.399 . S
C65 C64 1.399 . S
C65 C68 1.389 1_655 S
C65 C77 1.453 1_655 S
C65 C78 1.684 1_554 S
H66 C90 0.948 . S
C67 C63 1.397 1_455 S
C67 C68 1.396 . S
C67 C86 1.722 . S
C68 C65 1.389 1_455 S
C68 C67 1.396 . S
C68 C98 1.719 . S
H69 C92 0.947 . S
H70 C93 0.948 . S
H71 C99 0.982 . S
H72 C100 0.979 . S
H73 C100 0.980 . S
H74 C100 0.983 . S
H75 C99 0.979 . S
H76 C99 0.977 . S
C77 C65 1.453 1_455 S
C77 H106 0.982 . S
C77 H107 0.979 1_554 S
C77 H108 0.977 . S
C78 C65 1.684 1_556 S
C78 H103 0.979 . S
C78 H104 0.980 . S
C78 H105 0.983 . S
C79 C80 1.391 . S
C79 C84 1.391 . S
C79 H109 0.948 . S
C80 C79 1.391 . S
C80 C81 1.391 . S
C81 C80 1.391 . S
C81 C82 1.392 . S
C81 H110 0.947 . S
C82 C81 1.392 . S
C82 C83 1.419 . S
C82 H111 0.948 . S
C83 C82 1.419 . S
C83 C84 1.391 . S
C83 C87 1.397 1_655 S
C84 C79 1.391 . S
C84 C83 1.391 . S
C84 C85 1.399 . S
C85 C84 1.399 . S
C85 C86 1.390 1_655 S
C85 C88 1.453 1_655 S
C85 C89 1.684 . S
C86 C67 1.722 . S
C86 C85 1.390 1_455 S
C86 C87 1.390 . S
C87 C83 1.397 1_455 S
C87 C86 1.390 . S
C87 C97 1.725 . S
C88 C85 1.453 1_455 S
C88 H112 0.982 . S
C88 H113 0.979 . S
C88 H114 0.977 . S
C89 C85 1.684 . S
C89 H115 0.979 . S
C89 H116 0.980 . S
C89 H117 0.983 . S
C90 H66 0.948 . S
C90 C91 1.391 . S
C90 C95 1.391 . S
C91 C90 1.391 . S
C91 C92 1.391 . S
C92 H69 0.947 . S
C92 C91 1.391 . S
C92 C93 1.392 . S
C93 H70 0.948 . S
C93 C92 1.392 . S
C93 C94 1.419 . S
C94 C93 1.419 . S
C94 C95 1.391 . S
C94 C98 1.397 1_655 S
C95 C90 1.391 . S
C95 C94 1.391 . S
C95 C96 1.399 . S
C96 C95 1.399 . S
C96 C97 1.385 1_655 S
C96 C99 1.453 1_655 S
C96 C100 1.684 . S
C97 C87 1.725 . S
C97 C96 1.385 1_455 S
C97 C98 1.394 . S
C98 C68 1.719 . S
C98 C94 1.397 1_455 S
C98 C97 1.394 . S
C99 H71 0.982 . S
C99 H75 0.979 . S
C99 H76 0.977 . S
C99 C96 1.453 1_455 S
C100 H72 0.979 . S
C100 H73 0.980 . S
C100 H74 0.983 . S
C100 C96 1.684 . S
H101 C119 0.948 . S
H102 C60 0.948 . S
H103 C78 0.979 . S
H104 C78 0.980 . S
H105 C78 0.983 . S
H106 C77 0.982 . S
H107 C77 0.979 1_556 S
H108 C77 0.977 . S
H109 C79 0.948 . S
H110 C81 0.947 . S
H111 C82 0.948 . S
H112 C88 0.982 . S
H113 C88 0.979 . S
H114 C88 0.977 . S
H115 C89 0.979 . S
H116 C89 0.980 . S
H117 C89 0.983 . S
H118 C62 0.947 . S
C119 C62 1.392 . S
C119 C63 1.419 . S
C119 H101 0.948 . S
C120 C121 1.391 . S
C120 C124 1.391 . S
C120 H162 0.948 . S
C121 C120 1.391 . S
C121 C122 1.391 . S
C122 C121 1.391 . S
C122 H178 0.947 1_554 S
C122 C179 1.392 . S
C123 C124 1.391 . S
C123 C127 1.397 . S
C123 C179 1.419 . S
C124 C120 1.391 . S
C124 C123 1.391 . S
C124 C125 1.399 . S
C125 C124 1.399 . S
C125 C128 1.396 . S
C125 C137 1.453 . S
C125 C138 1.684 . S
H126 C150 0.948 . S
C127 C123 1.397 . S
C127 C128 1.394 . S
C127 C146 1.723 . S
C128 C125 1.396 . S
C128 C127 1.394 . S
C128 C158 1.723 . S
H129 C152 0.947 . S
H130 C153 0.948 . S
H131 C159 0.982 . S
H132 C160 0.979 . S
H133 C160 0.980 . S
H134 C160 0.983 . S
H135 C159 0.979 . S
H136 C159 0.977 . S
C137 C125 1.453 . S
C137 H166 0.982 . S
C137 H167 0.979 . S
C137 H168 0.977 . S
C138 C125 1.684 . S
C138 H163 0.979 . S
C138 H164 0.980 . S
C138 H165 0.983 . S
C139 C140 1.391 . S
C139 C144 1.383 1_556 S
C139 H169 0.948 . S
C140 C139 1.391 . S
C140 C141 1.391 1_556 S
C141 C140 1.391 1_554 S
C141 C142 1.392 . S
C141 H170 0.947 . S
C142 C141 1.392 . S
C142 C143 1.419 . S
C142 H171 0.948 . S
C143 C142 1.419 . S
C143 C144 1.402 . S
C143 C147 1.397 . S
C144 C139 1.383 1_554 S
C144 C143 1.402 . S
C144 C145 1.400 . S
C145 C144 1.400 . S
C145 C146 1.396 . S
C145 C148 1.453 1_554 S
C145 C149 1.684 1_554 S
C146 C127 1.723 . S
C146 C145 1.396 . S
C146 C147 1.394 . S
C147 C143 1.397 . S
C147 C146 1.394 . S
C147 C157 1.723 . S
C148 C145 1.453 1_556 S
C148 H172 0.982 . S
C148 H173 0.979 . S
C148 H174 0.977 . S
C149 C145 1.684 1_556 S
C149 H175 0.979 . S
C149 H176 0.980 . S
C149 H177 0.983 . S
C150 H126 0.948 . S
C150 C151 1.391 . S
C150 C155 1.391 . S
C151 C150 1.391 . S
C151 C152 1.391 . S
C152 H129 0.947 . S
C152 C151 1.391 . S
C152 C153 1.392 . S
C153 H130 0.948 . S
C153 C152 1.392 . S
C153 C154 1.419 . S
C154 C153 1.419 . S
C154 C155 1.391 . S
C154 C158 1.397 . S
C155 C150 1.391 . S
C155 C154 1.391 . S
C155 C156 1.399 . S
C156 C155 1.399 . S
C156 C157 1.396 . S
C156 C159 1.453 . S
C156 C160 1.684 . S
C157 C147 1.723 . S
C157 C156 1.396 . S
C157 C158 1.394 . S
C158 C128 1.723 . S
C158 C154 1.397 . S
C158 C157 1.394 . S
C159 H131 0.982 . S
C159 H135 0.979 . S
C159 H136 0.977 . S
C159 C156 1.453 . S
C160 H132 0.979 . S
C160 H133 0.980 . S
C160 H134 0.983 . S
C160 C156 1.684 . S
H161 C179 0.948 1_556 S
H162 C120 0.948 . S
H163 C138 0.979 . S
H164 C138 0.980 . S
H165 C138 0.983 . S
H166 C137 0.982 . S
H167 C137 0.979 . S
H168 C137 0.977 . S
H169 C139 0.948 . S
H170 C141 0.947 . S
H171 C142 0.948 . S
H172 C148 0.982 . S
H173 C148 0.979 . S
H174 C148 0.977 . S
H175 C149 0.979 . S
H176 C149 0.980 . S
H177 C149 0.983 . S
H178 C122 0.947 1_556 S
C179 C122 1.392 . S
C179 C123 1.419 . S
C179 H161 0.948 1_554 S
C180 C181 1.391 . S
C180 C184 1.391 . S
C180 H222 0.948 . S
C181 C180 1.391 . S
C181 C182 1.391 . S
C182 C181 1.391 . S
C182 H238 0.947 . S
C182 C239 1.392 . S
C183 C184 1.391 . S
C183 C187 1.397 . S
C183 C239 1.419 . S
C184 C180 1.391 . S
C184 C183 1.391 . S
C184 C185 1.399 . S
C185 C184 1.399 . S
C185 C188 1.396 . S
C185 C197 1.453 . S
C185 C198 1.684 . S
H186 C210 0.948 . S
C187 C183 1.397 . S
C187 C188 1.394 . S
C187 C206 1.723 . S
C188 C185 1.396 . S
C188 C187 1.394 . S
C188 C218 1.723 . S
H189 C212 0.947 . S
H190 C213 0.948 . S
H191 C219 0.982 . S
H192 C220 0.979 1_554 S
H193 C220 0.980 . S
H194 C220 0.983 . S
H195 C219 0.979 1_556 S
H196 C219 0.977 1_556 S
C197 C185 1.453 . S
C197 H226 0.982 . S
C197 H227 0.979 . S
C197 H228 0.977 . S
C198 C185 1.684 . S
C198 H223 0.979 . S
C198 H224 0.980 . S
C198 H225 0.983 . S
C199 C200 1.391 1_554 S
C199 C204 1.391 . S
C199 H229 0.948 . S
C200 C199 1.391 1_556 S
C200 C201 1.391 . S
C201 C200 1.391 . S
C201 C202 1.392 . S
C201 H230 0.947 . S
C202 C201 1.392 . S
C202 C203 1.419 1_556 S
C202 H231 0.948 . S
C203 C202 1.419 1_554 S
C203 C204 1.391 . S
C203 C207 1.397 . S
C204 C199 1.391 . S
C204 C203 1.391 . S
C204 C205 1.399 . S
C205 C204 1.399 . S
C205 C206 1.396 . S
C205 C208 1.453 . S
C205 C209 1.684 . S
C206 C187 1.723 . S
C206 C205 1.396 . S
C206 C207 1.394 . S
C207 C203 1.397 . S
C207 C206 1.394 . S
C207 C217 1.723 . S
C208 C205 1.453 . S
C208 H232 0.982 . S
C208 H233 0.979 . S
C208 H234 0.977 . S
C209 C205 1.684 . S
C209 H235 0.979 . S
C209 H236 0.980 . S
C209 H237 0.983 . S
C210 H186 0.948 . S
C210 C211 1.391 . S
C210 C215 1.391 . S
C211 C210 1.391 . S
C211 C212 1.391 . S
C212 H189 0.947 . S
C212 C211 1.391 . S
C212 C213 1.392 . S
C213 H190 0.948 . S
C213 C212 1.392 . S
C213 C214 1.419 . S
C214 C213 1.419 . S
C214 C215 1.391 . S
C214 C218 1.397 . S
C215 C210 1.391 . S
C215 C214 1.391 . S
C215 C216 1.399 . S
C216 C215 1.399 . S
C216 C217 1.396 . S
C216 C219 1.453 . S
C216 C220 1.684 1_554 S
C217 C207 1.723 . S
C217 C216 1.396 . S
C217 C218 1.394 . S
C218 C188 1.723 . S
C218 C214 1.397 . S
C218 C217 1.394 . S
C219 H191 0.982 . S
C219 H195 0.979 1_554 S
C219 H196 0.977 1_554 S
C219 C216 1.453 . S
C220 H192 0.979 1_556 S
C220 H193 0.980 . S
C220 H194 0.983 . S
C220 C216 1.684 1_556 S
H221 C239 0.948 . S
H222 C180 0.948 . S
H223 C198 0.979 . S
H224 C198 0.980 . S
H225 C198 0.983 . S
H226 C197 0.982 . S
H227 C197 0.979 . S
H228 C197 0.977 . S
H229 C199 0.948 . S
H230 C201 0.947 . S
H231 C202 0.948 . S
H232 C208 0.982 . S
H233 C208 0.979 . S
H234 C208 0.977 . S
H235 C209 0.979 . S
H236 C209 0.980 . S
H237 C209 0.983 . S
H238 C182 0.947 . S
C239 C182 1.392 . S
C239 C183 1.419 . S
C239 H221 0.948 . S
C240 C241 1.391 . S
C240 C244 1.391 . S
C240 H282 0.948 . S
C241 C240 1.391 . S
C241 C242 1.391 . S
C242 C241 1.391 . S
C242 H298 0.947 . S
C242 C299 1.392 . S
C243 C244 1.391 . S
C243 C247 1.397 . S
C243 C299 1.419 . S
C244 C240 1.391 . S
C244 C243 1.391 . S
C244 C245 1.399 . S
C245 C244 1.399 . S
C245 C248 1.396 . S
C245 C257 1.453 . S
C245 C258 1.684 . S
H246 C270 0.948 . S
C247 C243 1.397 . S
C247 C248 1.394 . S
C247 C266 1.723 . S
C248 C245 1.396 . S
C248 C247 1.394 . S
C248 C278 1.723 . S
H249 C272 0.947 . S
H250 C273 0.948 . S
H251 C279 0.982 . S
H252 C280 0.979 . S
H253 C280 0.980 . S
H254 C280 0.983 . S
H255 C279 0.979 . S
H256 C279 0.977 . S
C257 C245 1.453 . S
C257 H286 0.982 . S
C257 H287 0.979 . S
C257 H288 0.977 . S
C258 C245 1.684 . S
C258 H283 0.979 . S
C258 H284 0.980 . S
C258 H285 0.983 . S
C259 C260 1.391 . S
C259 C264 1.391 . S
C259 H289 0.948 . S
C260 C259 1.391 . S
C260 C261 1.391 . S
C261 C260 1.391 . S
C261 C262 1.392 . S
C261 H290 0.947 . S
C262 C261 1.392 . S
C262 C263 1.419 . S
C262 H291 0.948 . S
C263 C262 1.419 . S
C263 C264 1.391 . S
C263 C267 1.397 . S
C264 C259 1.391 . S
C264 C263 1.391 . S
C264 C265 1.399 . S
C265 C264 1.399 . S
C265 C266 1.396 . S
C265 C268 1.453 . S
C265 C269 1.684 . S
C266 C247 1.723 . S
C266 C265 1.396 . S
C266 C267 1.394 . S
C267 C263 1.397 . S
C267 C266 1.394 . S
C267 C277 1.723 . S
C268 C265 1.453 . S
C268 H292 0.982 . S
C268 H293 0.979 . S
C268 H294 0.977 . S
C269 C265 1.684 . S
C269 H295 0.979 . S
C269 H296 0.980 . S
C269 H297 0.983 . S
C270 H246 0.948 . S
C270 C271 1.391 . S
C270 C275 1.391 . S
C271 C270 1.391 . S
C271 C272 1.391 . S
C272 H249 0.947 . S
C272 C271 1.391 . S
C272 C273 1.392 . S
C273 H250 0.948 . S
C273 C272 1.392 . S
C273 C274 1.419 . S
C274 C273 1.419 . S
C274 C275 1.391 . S
C274 C278 1.397 . S
C275 C270 1.391 . S
C275 C274 1.391 . S
C275 C276 1.399 . S
C276 C275 1.399 . S
C276 C277 1.396 . S
C276 C279 1.453 . S
C276 C280 1.684 . S
C277 C267 1.723 . S
C277 C276 1.396 . S
C277 C278 1.394 . S
C278 C248 1.723 . S
C278 C274 1.397 . S
C278 C277 1.394 . S
C279 H251 0.982 . S
C279 H255 0.979 . S
C279 H256 0.977 . S
C279 C276 1.453 . S
C280 H252 0.979 . S
C280 H253 0.980 . S
C280 H254 0.983 . S
C280 C276 1.684 . S
H281 C299 0.948 . S
H282 C240 0.948 . S
H283 C258 0.979 . S
H284 C258 0.980 . S
H285 C258 0.983 . S
H286 C257 0.982 . S
H287 C257 0.979 . S
H288 C257 0.977 . S
H289 C259 0.948 . S
H290 C261 0.947 . S
H291 C262 0.948 . S
H292 C268 0.982 . S
H293 C268 0.979 . S
H294 C268 0.977 . S
H295 C269 0.979 . S
H296 C269 0.980 . S
H297 C269 0.983 . S
H298 C242 0.947 . S
C299 C242 1.392 . S
C299 C243 1.419 . S
C299 H281 0.948 . S
C300 C301 1.391 . S
C300 C304 1.391 . S
C300 H342 0.948 . S
C301 C300 1.391 . S
C301 C302 1.391 . S
C302 C301 1.391 . S
C302 H358 0.947 . S
C302 C359 1.392 . S
C303 C304 1.397 . S
C303 C307 1.392 1_655 S
C303 C359 1.427 . S
C304 C300 1.391 . S
C304 C303 1.397 . S
C304 C305 1.399 . S
C305 C304 1.399 . S
C305 C308 1.396 1_655 S
C305 C317 1.453 1_655 S
C305 C318 1.684 . S
H306 C330 0.948 . S
C307 C303 1.392 1_455 S
C307 C308 1.395 . S
C307 C326 1.723 . S
C308 C305 1.396 1_455 S
C308 C307 1.395 . S
C308 C338 1.723 . S
H309 C332 0.947 . S
H310 C333 0.948 . S
H311 C339 0.982 . S
H312 C340 0.979 . S
H313 C340 0.980 . S
H314 C340 0.983 . S
H315 C339 0.979 . S
H316 C339 0.977 . S
C317 C305 1.453 1_455 S
C317 H346 0.982 . S
C317 H347 0.979 . S
C317 H348 0.977 . S
C318 C305 1.684 . S
C318 H343 0.979 . S
C318 H344 0.980 . S
C318 H345 0.983 . S
C319 C320 1.391 . S
C319 C324 1.391 . S
C319 H349 0.948 . S
C320 C319 1.391 . S
C320 C321 1.391 . S
C321 C320 1.391 . S
C321 C322 1.392 . S
C321 H350 0.947 . S
C322 C321 1.392 . S
C322 C323 1.422 . S
C322 H351 0.948 . S
C323 C322 1.422 . S
C323 C324 1.401 . S
C323 C327 1.395 1_655 S
C324 C319 1.391 . S
C324 C323 1.401 . S
C324 C325 1.399 . S
C325 C324 1.399 . S
C325 C326 1.396 1_655 S
C325 C328 1.453 1_655 S
C325 C329 1.684 . S
C326 C307 1.723 . S
C326 C325 1.396 1_455 S
C326 C327 1.394 . S
C327 C323 1.395 1_455 S
C327 C326 1.394 . S
C327 C337 1.724 . S
C328 C325 1.453 1_455 S
C328 H352 0.982 . S
C328 H353 0.979 . S
C328 H354 0.977 . S
C329 C325 1.684 . S
C329 H355 0.979 . S
C329 H356 0.980 . S
C329 H357 0.983 . S
C330 H306 0.948 . S
C330 C331 1.391 . S
C330 C335 1.391 . S
C331 C330 1.391 . S
C331 C332 1.391 . S
C332 H309 0.947 . S
C332 C331 1.391 . S
C332 C333 1.392 . S
C333 H310 0.948 . S
C333 C332 1.392 . S
C333 C334 1.423 . S
C334 C333 1.423 . S
C334 C335 1.396 . S
C334 C338 1.398 1_655 S
C335 C330 1.391 . S
C335 C334 1.396 . S
C335 C336 1.399 . S
C336 C335 1.399 . S
C336 C337 1.396 1_655 S
C336 C339 1.453 1_655 S
C336 C340 1.684 . S
C337 C327 1.724 . S
C337 C336 1.396 1_455 S
C337 C338 1.395 . S
C338 C308 1.723 . S
C338 C334 1.398 1_455 S
C338 C337 1.395 . S
C339 H311 0.982 . S
C339 H315 0.979 . S
C339 H316 0.977 . S
C339 C336 1.453 1_455 S
C340 H312 0.979 . S
C340 H313 0.980 . S
C340 H314 0.983 . S
C340 C336 1.684 . S
H341 C359 0.948 . S
H342 C300 0.948 . S
H343 C318 0.979 . S
H344 C318 0.980 . S
H345 C318 0.983 . S
H346 C317 0.982 . S
H347 C317 0.979 . S
H348 C317 0.977 . S
H349 C319 0.948 . S
H350 C321 0.947 . S
H351 C322 0.948 . S
H352 C328 0.982 . S
H353 C328 0.979 . S
H354 C328 0.977 . S
H355 C329 0.979 . S
H356 C329 0.980 . S
H357 C329 0.983 . S
H358 C302 0.947 . S
C359 C302 1.392 . S
C359 C303 1.427 . S
C359 H341 0.948 . S
C360 C361 1.391 . S
C360 C364 1.391 . S
C360 H402 0.948 . S
C361 C360 1.391 . S
C361 C362 1.391 . S
C362 C361 1.391 . S
C362 H418 0.947 . S
C362 C419 1.392 . S
C363 C364 1.391 . S
C363 C367 1.397 . S
C363 C419 1.419 . S
C364 C360 1.391 . S
C364 C363 1.391 . S
C364 C365 1.399 . S
C365 C364 1.399 . S
C365 C368 1.396 . S
C365 C377 1.453 . S
C365 C378 1.684 . S
H366 C390 0.948 . S
C367 C363 1.397 . S
C367 C368 1.394 . S
C367 C386 1.723 . S
C368 C365 1.396 . S
C368 C367 1.394 . S
C368 C398 1.723 . S
H369 C392 0.947 . S
H370 C393 0.948 . S
H371 C399 0.982 . S
H372 C400 0.979 . S
H373 C400 0.980 . S
H374 C400 0.983 . S
H375 C399 0.979 . S
H376 C399 0.977 . S
C377 C365 1.453 . S
C377 H406 0.982 . S
C377 H407 0.979 . S
C377 H408 0.977 . S
C378 C365 1.684 . S
C378 H403 0.979 . S
C378 H404 0.980 . S
C378 H405 0.983 . S
C379 C380 1.391 . S
C379 C384 1.391 . S
C379 H409 0.948 . S
C380 C379 1.391 . S
C380 C381 1.391 . S
C381 C380 1.391 . S
C381 C382 1.392 . S
C381 H410 0.947 . S
C382 C381 1.392 . S
C382 C383 1.419 . S
C382 H411 0.948 . S
C383 C382 1.419 . S
C383 C384 1.391 . S
C383 C387 1.397 . S
C384 C379 1.391 . S
C384 C383 1.391 . S
C384 C385 1.399 . S
C385 C384 1.399 . S
C385 C386 1.396 . S
C385 C388 1.453 . S
C385 C389 1.684 . S
C386 C367 1.723 . S
C386 C385 1.396 . S
C386 C387 1.394 . S
C387 C383 1.397 . S
C387 C386 1.394 . S
C387 C397 1.723 . S
C388 C385 1.453 . S
C388 H412 0.982 . S
C388 H413 0.979 . S
C388 H414 0.977 . S
C389 C385 1.684 . S
C389 H415 0.979 . S
C389 H416 0.980 . S
C389 H417 0.983 . S
C390 H366 0.948 . S
C390 C391 1.391 . S
C390 C395 1.391 . S
C391 C390 1.391 . S
C391 C392 1.391 . S
C392 H369 0.947 . S
C392 C391 1.391 . S
C392 C393 1.392 . S
C393 H370 0.948 . S
C393 C392 1.392 . S
C393 C394 1.419 . S
C394 C393 1.419 . S
C394 C395 1.391 . S
C394 C398 1.397 . S
C395 C390 1.391 . S
C395 C394 1.391 . S
C395 C396 1.399 . S
C396 C395 1.399 . S
C396 C397 1.396 . S
C396 C399 1.453 . S
C396 C400 1.684 . S
C397 C387 1.723 . S
C397 C396 1.396 . S
C397 C398 1.394 . S
C398 C368 1.723 . S
C398 C394 1.397 . S
C398 C397 1.394 . S
C399 H371 0.982 . S
C399 H375 0.979 . S
C399 H376 0.977 . S
C399 C396 1.453 . S
C400 H372 0.979 . S
C400 H373 0.980 . S
C400 H374 0.983 . S
C400 C396 1.684 . S
H401 C419 0.948 . S
H402 C360 0.948 . S
H403 C378 0.979 . S
H404 C378 0.980 . S
H405 C378 0.983 . S
H406 C377 0.982 . S
H407 C377 0.979 . S
H408 C377 0.977 . S
H409 C379 0.948 . S
H410 C381 0.947 . S
H411 C382 0.948 . S
H412 C388 0.982 . S
H413 C388 0.979 . S
H414 C388 0.977 . S
H415 C389 0.979 . S
H416 C389 0.980 . S
H417 C389 0.983 . S
H418 C362 0.947 . S
C419 C362 1.392 . S
C419 C363 1.419 . S
C419 H401 0.948 . S
C420 C421 1.391 . S
C420 C424 1.391 . S
C420 H462 0.948 . S
C421 C420 1.391 . S
C421 C422 1.391 . S
C422 C421 1.391 . S
C422 H478 0.947 . S
C422 C479 1.392 . S
C423 C424 1.391 . S
C423 C427 1.397 . S
C423 C479 1.419 . S
C424 C420 1.391 . S
C424 C423 1.391 . S
C424 C425 1.399 . S
C425 C424 1.399 . S
C425 C428 1.396 . S
C425 C437 1.453 . S
C425 C438 1.684 . S
H426 C450 0.948 . S
C427 C423 1.397 . S
C427 C428 1.394 . S
C427 C446 1.723 . S
C428 C425 1.396 . S
C428 C427 1.394 . S
C428 C458 1.723 . S
H429 C452 0.947 . S
H430 C453 0.948 . S
H431 C459 0.982 . S
H432 C460 0.979 . S
H433 C460 0.980 . S
H434 C460 0.983 . S
H435 C459 0.979 . S
H436 C459 0.977 . S
C437 C425 1.453 . S
C437 H466 0.982 . S
C437 H467 0.979 . S
C437 H468 0.977 . S
C438 C425 1.684 . S
C438 H463 0.979 . S
C438 H464 0.980 . S
C438 H465 0.983 . S
C439 C440 1.391 . S
C439 C444 1.391 . S
C439 H469 0.948 . S
C440 C439 1.391 . S
C440 C441 1.391 . S
C441 C440 1.391 . S
C441 C442 1.392 . S
C441 H470 0.947 . S
C442 C441 1.392 . S
C442 C443 1.419 . S
C442 H471 0.948 . S
C443 C442 1.419 . S
C443 C444 1.391 . S
C443 C447 1.397 . S
C444 C439 1.391 . S
C444 C443 1.391 . S
C444 C445 1.399 . S
C445 C444 1.399 . S
C445 C446 1.396 . S
C445 C448 1.453 . S
C445 C449 1.684 . S
C446 C427 1.723 . S
C446 C445 1.396 . S
C446 C447 1.394 . S
C447 C443 1.397 . S
C447 C446 1.394 . S
C447 C457 1.723 . S
C448 C445 1.453 . S
C448 H472 0.982 . S
C448 H473 0.979 . S
C448 H474 0.977 . S
C449 C445 1.684 . S
C449 H475 0.979 . S
C449 H476 0.980 . S
C449 H477 0.983 . S
C450 H426 0.948 . S
C450 C451 1.391 . S
C450 C455 1.391 . S
C451 C450 1.391 . S
C451 C452 1.391 . S
C452 H429 0.947 . S
C452 C451 1.391 . S
C452 C453 1.392 . S
C453 H430 0.948 . S
C453 C452 1.392 . S
C453 C454 1.419 . S
C454 C453 1.419 . S
C454 C455 1.391 . S
C454 C458 1.397 . S
C455 C450 1.391 . S
C455 C454 1.391 . S
C455 C456 1.399 . S
C456 C455 1.399 . S
C456 C457 1.396 . S
C456 C459 1.453 . S
C456 C460 1.684 . S
C457 C447 1.723 . S
C457 C456 1.396 . S
C457 C458 1.394 . S
C458 C428 1.723 . S
C458 C454 1.397 . S
C458 C457 1.394 . S
C459 H431 0.982 . S
C459 H435 0.979 . S
C459 H436 0.977 . S
C459 C456 1.453 . S
C460 H432 0.979 . S
C460 H433 0.980 . S
C460 H434 0.983 . S
C460 C456 1.684 . S
H461 C479 0.948 . S
H462 C420 0.948 . S
H463 C438 0.979 . S
H464 C438 0.980 . S
H465 C438 0.983 . S
H466 C437 0.982 . S
H467 C437 0.979 . S
H468 C437 0.977 . S
H469 C439 0.948 . S
H470 C441 0.947 . S
H471 C442 0.948 . S
H472 C448 0.982 . S
H473 C448 0.979 . S
H474 C448 0.977 . S
H475 C449 0.979 . S
H476 C449 0.980 . S
H477 C449 0.983 . S
H478 C422 0.947 . S
C479 C422 1.392 . S
C479 C423 1.419 . S
C479 H461 0.948 . S
Co480 N485 2.057 . S
Co480 O497 2.021 . S
Co480 O500 2.062 1_455 S
Co480 O504 2.117 1_455 S
Co480 O505 2.020 1_545 S
C481 O501 1.259 1_545 S
C481 O504 1.258 . S
Co482 N491 2.057 . S
Co482 O498 2.117 1_665 S
Co482 O499 2.020 1_565 S
Co482 O501 2.021 . S
Co482 O506 2.062 1_655 S
C483 N485 1.316 . S
C483 N486 1.347 . S
C483 H488 0.931 . S
C484 N485 1.375 1_655 S
C484 C487 1.350 . S
C484 H489 0.930 . S
N485 Co480 2.057 . S
N485 C483 1.316 . S
N485 C484 1.375 1_455 S
N486 C483 1.347 . S
N486 C487 1.373 1_455 S
C487 C484 1.350 . S
C487 N486 1.373 1_655 S
C487 H508 0.931 . S
H488 C483 0.931 . S
H489 C484 0.930 . S
C490 O497 1.259 . S
C490 O498 1.258 . S
N491 Co482 2.057 . S
N491 C492 1.316 . S
N491 C493 1.375 1_655 S
C492 N491 1.316 . S
C492 N494 1.347 . S
C492 H503 0.931 . S
C493 N491 1.375 1_455 S
C493 C495 1.350 . S
C493 H502 0.930 . S
N494 C492 1.347 . S
N494 C495 1.373 1_655 S
C495 C493 1.350 . S
C495 N494 1.373 1_455 S
C495 H509 0.931 . S
C496 O499 1.256 . S
C496 O500 1.255 . S
O497 Co480 2.021 . S
O497 C490 1.259 . S
O498 Co482 2.117 1_445 S
O498 C490 1.258 . S
O499 Co482 2.020 1_545 S
O499 C496 1.256 . S
O500 Co480 2.062 1_655 S
O500 C496 1.255 . S
O501 C481 1.259 1_565 S
O501 Co482 2.021 . S
H502 C493 0.930 . S
H503 C492 0.931 . S
O504 Co480 2.117 1_655 S
O504 C481 1.258 . S
O505 Co480 2.020 1_565 S
O505 C507 1.256 . S
O506 Co482 2.062 1_455 S
O506 C507 1.255 . S
C507 O505 1.256 . S
C507 O506 1.255 . S
H508 C487 0.931 . S
H509 C495 0.931 . S
Co510 N515 2.057 . S
Co510 O527 2.021 . S
Co510 O530 2.062 . S
Co510 O534 2.117 1_545 S
Co510 O535 2.020 . S
C511 O531 1.259 . S
C511 O534 1.258 . S
Co512 N521 2.056 1_545 S
Co512 O528 2.125 . S
Co512 O529 2.021 . S
Co512 O531 2.013 1_545 S
Co512 O536 2.062 1_545 S
C513 N515 1.316 . S
C513 N516 1.347 . S
C513 H518 0.931 . S
C514 N515 1.375 . S
C514 C517 1.350 . S
C514 H519 0.930 1_545 S
N515 Co510 2.057 . S
N515 C513 1.316 . S
N515 C514 1.375 . S
N516 C513 1.347 . S
N516 C517 1.373 . S
C517 C514 1.350 . S
C517 N516 1.373 . S
C517 H538 0.931 . S
H518 C513 0.931 . S
H519 C514 0.930 1_565 S
C520 O527 1.259 . S
C520 O528 1.258 . S
N521 Co512 2.056 1_565 S
N521 C522 1.316 . S
N521 C523 1.375 1_565 S
C522 N521 1.316 . S
C522 N524 1.347 . S
C522 H533 0.931 . S
C523 N521 1.375 1_545 S
C523 C525 1.350 . S
C523 H532 0.930 . S
N524 C522 1.347 . S
N524 C525 1.373 1_565 S
C525 C523 1.350 . S
C525 N524 1.373 1_545 S
C525 H539 0.931 . S
C526 O529 1.256 . S
C526 O530 1.255 . S
O527 Co510 2.021 . S
O527 C520 1.259 . S
O528 Co512 2.125 . S
O528 C520 1.258 . S
O529 Co512 2.021 . S
O529 C526 1.256 . S
O530 Co510 2.062 . S
O530 C526 1.255 . S
O531 C511 1.259 . S
O531 Co512 2.013 1_565 S
H532 C523 0.930 . S
H533 C522 0.931 . S
O534 Co510 2.117 1_565 S
O534 C511 1.258 . S
O535 Co510 2.020 . S
O535 C537 1.256 . S
O536 Co512 2.062 1_565 S
O536 C537 1.255 1_565 S
C537 O535 1.256 . S
C537 O536 1.255 1_545 S
H538 C517 0.931 . S
H539 C525 0.931 . S
Co540 N545 2.057 . S
Co540 O557 2.021 . S
Co540 O560 2.062 . S
Co540 O564 2.117 . S
Co540 O565 2.020 . S
C541 O561 1.259 . S
C541 O564 1.258 . S
Co542 N551 2.057 . S
Co542 O558 2.117 . S
Co542 O559 2.020 . S
Co542 O561 2.021 . S
Co542 O566 2.062 . S
C543 N545 1.316 . S
C543 N546 1.347 . S
C543 H548 0.931 . S
C544 N545 1.375 . S
C544 C547 1.350 . S
C544 H549 0.930 . S
N545 Co540 2.057 . S
N545 C543 1.316 . S
N545 C544 1.375 . S
N546 C543 1.347 . S
N546 C547 1.373 . S
C547 C544 1.350 . S
C547 N546 1.373 . S
C547 H568 0.931 . S
H548 C543 0.931 . S
H549 C544 0.930 . S
C550 O557 1.259 . S
C550 O558 1.258 . S
N551 Co542 2.057 . S
N551 C552 1.316 . S
N551 C553 1.375 . S
C552 N551 1.316 . S
C552 N554 1.347 . S
C552 H563 0.931 . S
C553 N551 1.375 . S
C553 C555 1.350 . S
C553 H562 0.930 . S
N554 C552 1.347 . S
N554 C555 1.373 . S
C555 C553 1.350 . S
C555 N554 1.373 . S
C555 H569 0.931 . S
C556 O559 1.256 . S
C556 O560 1.255 . S
O557 Co540 2.021 . S
O557 C550 1.259 . S
O558 Co542 2.117 . S
O558 C550 1.258 . S
O559 Co542 2.020 . S
O559 C556 1.256 . S
O560 Co540 2.062 . S
O560 C556 1.255 . S
O561 C541 1.259 . S
O561 Co542 2.021 . S
H562 C553 0.930 . S
H563 C552 0.931 . S
O564 Co540 2.117 . S
O564 C541 1.258 . S
O565 Co540 2.020 . S
O565 C567 1.256 . S
O566 Co542 2.062 . S
O566 C567 1.255 . S
C567 O565 1.256 . S
C567 O566 1.255 . S
H568 C547 0.931 . S
H569 C555 0.931 . S
Co570 N575 2.057 . S
Co570 O587 2.021 1_455 S
Co570 O590 2.062 1_455 S
Co570 O594 2.117 . S
Co570 O595 2.020 . S
C571 O591 1.259 . S
C571 O594 1.258 . S
Co572 N581 2.057 . S
Co572 O588 2.117 . S
Co572 O589 2.020 . S
Co572 O591 2.021 1_655 S
Co572 O596 2.062 1_655 S
C573 N575 1.316 . S
C573 N576 1.347 . S
C573 H578 0.931 1_455 S
C574 N575 1.375 . S
C574 C577 1.350 . S
C574 H579 0.930 . S
N575 Co570 2.057 . S
N575 C573 1.316 . S
N575 C574 1.375 . S
N576 C573 1.347 . S
N576 C577 1.373 . S
C577 C574 1.350 . S
C577 N576 1.373 . S
C577 H598 0.931 . S
H578 C573 0.931 1_655 S
H579 C574 0.930 . S
C580 O587 1.259 . S
C580 O588 1.258 . S
N581 Co572 2.057 . S
N581 C582 1.316 . S
N581 C583 1.375 . S
C582 N581 1.316 . S
C582 N584 1.347 . S
C582 H593 0.931 1_655 S
C583 N581 1.375 . S
C583 C585 1.350 . S
C583 H592 0.930 . S
N584 C582 1.347 . S
N584 C585 1.373 . S
C585 C583 1.350 . S
C585 N584 1.373 . S
C585 H599 0.931 . S
C586 O589 1.256 . S
C586 O590 1.255 . S
O587 Co570 2.021 1_655 S
O587 C580 1.259 . S
O588 Co572 2.117 . S
O588 C580 1.258 . S
O589 Co572 2.020 . S
O589 C586 1.256 . S
O590 Co570 2.062 1_655 S
O590 C586 1.255 . S
O591 C571 1.259 . S
O591 Co572 2.021 1_455 S
H592 C583 0.930 . S
H593 C582 0.931 1_455 S
O594 Co570 2.117 . S
O594 C571 1.258 . S
O595 Co570 2.020 . S
O595 C597 1.256 . S
O596 Co572 2.062 1_455 S
O596 C597 1.255 . S
C597 O595 1.256 . S
C597 O596 1.255 . S
H598 C577 0.931 . S
H599 C585 0.931 . S
C600 C601 1.349 . S
C600 C602 1.327 . S
C600 H625 0.950 . S
C601 C600 1.349 . S
C601 C617 1.349 . S
C602 C600 1.327 . S
C602 C621 1.429 . S
C602 H626 0.950 . S
C603 C620 1.574 . S
C603 C622 1.368 . S
C603 H627 0.949 . S
H604 C608 0.949 . S
C605 C606 1.349 . S
C605 C607 1.327 . S
C605 H628 0.950 . S
C606 C605 1.349 . S
C606 C618 1.349 . S
C607 C605 1.327 . S
C607 C623 1.429 . S
C607 H629 0.950 . S
C608 H604 0.949 . S
C608 C616 1.574 . S
C608 C624 1.368 . S
H609 C617 0.950 . S
H610 C615 0.950 . S
H611 C616 0.949 . S
H612 C618 0.950 . S
H613 C619 0.950 . S
H614 C620 0.949 . S
C615 H610 0.950 . S
C615 C617 1.327 . S
C615 C621 1.429 . S
C616 C608 1.574 . S
C616 H611 0.949 . S
C616 C622 1.368 . S
C617 C601 1.349 . S
C617 H609 0.950 . S
C617 C615 1.327 . S
C618 C606 1.349 . S
C618 H612 0.950 . S
C618 C619 1.327 . S
C619 H613 0.950 . S
C619 C618 1.327 . S
C619 C623 1.429 . S
C620 C603 1.574 . S
C620 H614 0.949 . S
C620 C624 1.368 . S
C621 C602 1.429 . S
C621 C615 1.429 . S
C621 C622 1.523 . S
C622 C603 1.368 . S
C622 C616 1.368 . S
C622 C621 1.523 . S
C623 C607 1.429 . S
C623 C619 1.429 . S
C623 C624 1.523 . S
C624 C608 1.368 . S
C624 C620 1.368 . S
C624 C623 1.523 . S
H625 C600 0.950 . S
H626 C602 0.950 . S
H627 C603 0.949 . S
H628 C605 0.950 . S
H629 C607 0.950 . S
C630 C631 1.349 . S
C630 C632 1.327 . S
C630 H655 0.950 . S
C631 C630 1.349 . S
C631 C647 1.349 . S
C632 C630 1.327 . S
C632 C651 1.429 . S
C632 H656 0.950 . S
C633 C650 1.574 . S
C633 C652 1.368 . S
C633 H657 0.949 . S
H634 C638 0.949 . S
C635 C636 1.349 . S
C635 C637 1.327 . S
C635 H658 0.950 . S
C636 C635 1.349 . S
C636 C648 1.349 . S
C637 C635 1.327 . S
C637 C653 1.429 . S
C637 H659 0.950 . S
C638 H634 0.949 . S
C638 C646 1.574 . S
C638 C654 1.368 . S
H639 C647 0.950 . S
H640 C645 0.950 . S
H641 C646 0.949 . S
H642 C648 0.950 . S
H643 C649 0.950 . S
H644 C650 0.949 . S
C645 H640 0.950 . S
C645 C647 1.327 . S
C645 C651 1.429 . S
C646 C638 1.574 . S
C646 H641 0.949 . S
C646 C652 1.368 . S
C647 C631 1.349 . S
C647 H639 0.950 . S
C647 C645 1.327 . S
C648 C636 1.349 . S
C648 H642 0.950 . S
C648 C649 1.327 . S
C649 H643 0.950 . S
C649 C648 1.327 . S
C649 C653 1.429 . S
C650 C633 1.574 . S
C650 H644 0.949 . S
C650 C654 1.368 . S
C651 C632 1.429 . S
C651 C645 1.429 . S
C651 C652 1.523 . S
C652 C633 1.368 . S
C652 C646 1.368 . S
C652 C651 1.523 . S
C653 C637 1.429 . S
C653 C649 1.429 . S
C653 C654 1.523 . S
C654 C638 1.368 . S
C654 C650 1.368 . S
C654 C653 1.523 . S
H655 C630 0.950 . S
H656 C632 0.950 . S
H657 C633 0.949 . S
H658 C635 0.950 . S
H659 C637 0.950 . S
C660 C661 1.349 . S
C660 C662 1.327 . S
C660 H685 0.950 . S
C661 C660 1.349 . S
C661 C677 1.349 . S
C662 C660 1.327 . S
C662 C681 1.429 . S
C662 H686 0.950 . S
C663 C680 1.574 . S
C663 C682 1.368 . S
C663 H687 0.949 . S
H664 C668 0.949 . S
C665 C666 1.349 . S
C665 C667 1.327 . S
C665 H688 0.950 . S
C666 C665 1.349 . S
C666 C678 1.349 . S
C667 C665 1.327 . S
C667 C683 1.429 . S
C667 H689 0.950 . S
C668 H664 0.949 . S
C668 C676 1.574 . S
C668 C684 1.368 . S
H669 C677 0.950 . S
H670 C675 0.950 . S
H671 C676 0.949 . S
H672 C678 0.950 . S
H673 C679 0.950 . S
H674 C680 0.949 . S
C675 H670 0.950 . S
C675 C677 1.327 . S
C675 C681 1.429 . S
C676 C668 1.574 . S
C676 H671 0.949 . S
C676 C682 1.368 . S
C677 C661 1.349 . S
C677 H669 0.950 . S
C677 C675 1.327 . S
C678 C666 1.349 . S
C678 H672 0.950 . S
C678 C679 1.327 . S
C679 H673 0.950 . S
C679 C678 1.327 . S
C679 C683 1.429 . S
C680 C663 1.574 . S
C680 H674 0.949 . S
C680 C684 1.368 . S
C681 C662 1.429 . S
C681 C675 1.429 . S
C681 C682 1.523 . S
C682 C663 1.368 . S
C682 C676 1.368 . S
C682 C681 1.523 . S
C683 C667 1.429 . S
C683 C679 1.429 . S
C683 C684 1.523 . S
C684 C668 1.368 . S
C684 C680 1.368 . S
C684 C683 1.523 . S
H685 C660 0.950 . S
H686 C662 0.950 . S
H687 C663 0.949 . S
H688 C665 0.950 . S
H689 C667 0.950 . S
C690 C691 1.357 . S
C690 C692 1.327 . S
C690 H715 0.950 . S
C691 C690 1.357 . S
C691 C707 1.342 1_655 S
C692 C690 1.327 . S
C692 C711 1.429 . S
C692 H716 0.950 . S
C693 C710 1.574 . S
C693 C712 1.368 1_455 S
C693 H717 0.949 . S
H694 C698 0.949 . S
C695 C696 1.349 . S
C695 C697 1.327 . S
C695 H718 0.950 1_655 S
C696 C695 1.349 . S
C696 C708 1.349 . S
C697 C695 1.327 . S
C697 C713 1.429 . S
C697 H719 0.950 1_655 S
C698 H694 0.949 . S
C698 C706 1.574 . S
C698 C714 1.368 . S
H699 C707 0.950 . S
H700 C705 0.950 . S
H701 C706 0.949 . S
H702 C708 0.950 . S
H703 C709 0.950 . S
H704 C710 0.949 . S
C705 H700 0.950 . S
C705 C707 1.327 . S
C705 C711 1.429 1_455 S
C706 C698 1.574 . S
C706 H701 0.949 . S
C706 C712 1.368 . S
C707 C691 1.342 1_455 S
C707 H699 0.950 . S
C707 C705 1.327 . S
C708 C696 1.349 . S
C708 H702 0.950 . S
C708 C709 1.327 . S
C709 H703 0.950 . S
C709 C708 1.327 . S
C709 C713 1.429 . S
C710 C693 1.574 . S
C710 H704 0.949 . S
C710 C714 1.368 1_455 S
C711 C692 1.429 . S
C711 C705 1.429 1_655 S
C711 C712 1.523 . S
C712 C693 1.368 1_655 S
C712 C706 1.368 . S
C712 C711 1.523 . S
C713 C697 1.429 . S
C713 C709 1.429 . S
C713 C714 1.523 . S
C714 C698 1.368 . S
C714 C710 1.368 1_655 S
C714 C713 1.523 . S
H715 C690 0.950 . S
H716 C692 0.950 . S
H717 C693 0.949 . S
H718 C695 0.950 1_455 S
H719 C697 0.950 1_455 S
C720 C721 1.349 1_556 S
C720 C722 1.327 . S
C720 H745 0.950 . S
C721 C720 1.349 1_554 S
C721 C737 1.349 . S
C722 C720 1.327 . S
C722 C741 1.429 . S
C722 H746 0.950 . S
C723 C740 1.574 . S
C723 C742 1.368 . S
C723 H747 0.949 . S
H724 C728 0.949 . S
C725 C726 1.349 . S
C725 C727 1.327 . S
C725 H748 0.950 . S
C726 C725 1.349 . S
C726 C738 1.349 1_565 S
C727 C725 1.327 . S
C727 C743 1.429 . S
C727 H749 0.950 . S
C728 H724 0.949 . S
C728 C736 1.574 . S
C728 C744 1.368 . S
H729 C737 0.950 . S
H730 C735 0.950 . S
H731 C736 0.949 . S
H732 C738 0.950 . S
H733 C739 0.950 . S
H734 C740 0.949 . S
C735 H730 0.950 . S
C735 C737 1.327 . S
C735 C741 1.429 1_554 S
C736 C728 1.574 . S
C736 H731 0.949 . S
C736 C742 1.368 . S
C737 C721 1.349 . S
C737 H729 0.950 . S
C737 C735 1.327 . S
C738 C726 1.349 1_545 S
C738 H732 0.950 . S
C738 C739 1.327 1_545 S
C739 H733 0.950 . S
C739 C738 1.327 1_565 S
C739 C743 1.429 . S
C740 C723 1.574 . S
C740 H734 0.949 . S
C740 C744 1.368 . S
C741 C722 1.429 . S
C741 C735 1.429 1_556 S
C741 C742 1.523 . S
C742 C723 1.368 . S
C742 C736 1.368 . S
C742 C741 1.523 . S
C743 C727 1.429 . S
C743 C739 1.429 . S
C743 C744 1.523 . S
C744 C728 1.368 . S
C744 C740 1.368 . S
C744 C743 1.523 . S
H745 C720 0.950 . S
H746 C722 0.950 . S
H747 C723 0.949 . S
H748 C725 0.950 . S
H749 C727 0.950 . S
C750 C751 1.349 . S
C750 C752 1.327 . S
C750 H775 0.950 . S
C751 C750 1.349 . S
C751 C767 1.349 . S
C752 C750 1.327 . S
C752 C771 1.429 1_554 S
C752 H776 0.950 . S
C753 C770 1.574 . S
C753 C772 1.368 . S
C753 H777 0.949 . S
H754 C758 0.949 . S
C755 C756 1.349 . S
C755 C757 1.327 . S
C755 H778 0.950 . S
C756 C755 1.349 . S
C756 C768 1.349 . S
C757 C755 1.327 . S
C757 C773 1.429 . S
C757 H779 0.950 . S
C758 H754 0.949 . S
C758 C766 1.574 . S
C758 C774 1.368 . S
H759 C767 0.950 1_556 S
H760 C765 0.950 . S
H761 C766 0.950 . S
H762 C768 0.950 . S
H763 C769 0.950 . S
H764 C770 0.949 . S
C765 H760 0.950 . S
C765 C767 1.327 1_556 S
C765 C771 1.429 . S
C766 C758 1.574 . S
C766 H761 0.950 . S
C766 C772 1.368 . S
C767 C751 1.349 . S
C767 H759 0.950 1_554 S
C767 C765 1.327 1_554 S
C768 C756 1.349 . S
C768 H762 0.950 . S
C768 C769 1.327 . S
C769 H763 0.950 . S
C769 C768 1.327 . S
C769 C773 1.429 . S
C770 C753 1.574 . S
C770 H764 0.949 . S
C770 C774 1.368 . S
C771 C752 1.429 1_556 S
C771 C765 1.429 . S
C771 C772 1.523 . S
C772 C753 1.368 . S
C772 C766 1.368 . S
C772 C771 1.523 . S
C773 C757 1.429 . S
C773 C769 1.429 . S
C773 C774 1.523 . S
C774 C758 1.368 . S
C774 C770 1.368 . S
C774 C773 1.523 . S
H775 C750 0.950 . S
H776 C752 0.950 . S
H777 C753 0.949 . S
H778 C755 0.950 . S
H779 C757 0.950 . S
C780 C781 1.349 . S
C780 C782 1.327 1_554 S
C780 H805 0.950 1_554 S
C781 C780 1.349 . S
C781 C797 1.349 . S
C782 C780 1.327 1_556 S
C782 C801 1.429 . S
C782 H806 0.950 . S
C783 C800 1.574 . S
C783 C802 1.368 . S
C783 H807 0.949 1_556 S
H784 C788 0.949 . S
C785 C786 1.349 . S
C785 C787 1.327 . S
C785 H808 0.950 . S
C786 C785 1.349 . S
C786 C798 1.349 . S
C787 C785 1.327 . S
C787 C803 1.429 . S
C787 H809 0.950 . S
C788 H784 0.949 . S
C788 C796 1.574 . S
C788 C804 1.368 . S
H789 C797 0.950 . S
H790 C795 0.950 . S
H791 C796 0.949 . S
H792 C798 0.950 . S
H793 C799 0.950 . S
H794 C800 0.949 . S
C795 H790 0.950 . S
C795 C797 1.327 . S
C795 C801 1.427 1_554 S
C796 C788 1.574 . S
C796 H791 0.949 . S
C796 C802 1.368 . S
C797 C781 1.349 . S
C797 H789 0.950 . S
C797 C795 1.327 . S
C798 C786 1.349 . S
C798 H792 0.950 . S
C798 C799 1.327 . S
C799 H793 0.950 . S
C799 C798 1.327 . S
C799 C803 1.429 . S
C800 C783 1.574 . S
C800 H794 0.949 . S
C800 C804 1.368 . S
C801 C782 1.429 . S
C801 C795 1.427 1_556 S
C801 C802 1.524 . S
C802 C783 1.368 . S
C802 C796 1.368 . S
C802 C801 1.524 . S
C803 C787 1.429 . S
C803 C799 1.429 . S
C803 C804 1.523 . S
C804 C788 1.368 . S
C804 C800 1.368 . S
C804 C803 1.523 . S
H805 C780 0.950 1_556 S
H806 C782 0.950 . S
H807 C783 0.949 1_554 S
H808 C785 0.950 . S
H809 C787 0.950 . S
C810 C811 1.358 . S
C810 C812 1.342 . S
C810 H835 0.950 . S
C811 C810 1.358 . S
C811 C827 1.340 1_455 S
C812 C810 1.342 . S
C812 C831 1.431 . S
C812 H836 0.931 1_554 S
C813 C830 1.574 . S
C813 C832 1.368 1_655 S
C813 H837 0.949 1_556 S
H814 C818 0.949 . S
C815 C816 1.349 . S
C815 C817 1.327 . S
C815 H838 0.950 1_455 S
C816 C815 1.349 . S
C816 C828 1.349 . S
C817 C815 1.327 . S
C817 C833 1.429 . S
C817 H839 0.950 1_455 S
C818 H814 0.949 . S
C818 C826 1.574 . S
C818 C834 1.368 . S
H819 C827 0.950 . S
H820 C825 0.950 . S
H821 C826 0.949 . S
H822 C828 0.950 . S
H823 C829 0.950 . S
H824 C830 0.949 . S
C825 H820 0.950 . S
C825 C827 1.327 . S
C825 C831 1.429 1_655 S
C826 C818 1.574 . S
C826 H821 0.949 . S
C826 C832 1.368 . S
C827 C811 1.340 1_655 S
C827 H819 0.950 . S
C827 C825 1.327 . S
C828 C816 1.349 . S
C828 H822 0.950 . S
C828 C829 1.327 . S
C829 H823 0.950 . S
C829 C828 1.327 . S
C829 C833 1.429 . S
C830 C813 1.574 . S
C830 H824 0.949 . S
C830 C834 1.368 1_655 S
C831 C812 1.431 . S
C831 C825 1.429 1_455 S
C831 C832 1.523 1_554 S
C832 C813 1.368 1_455 S
C832 C826 1.368 . S
C832 C831 1.523 1_556 S
C833 C817 1.429 . S
C833 C829 1.429 . S
C833 C834 1.523 . S
C834 C818 1.368 . S
C834 C830 1.368 1_455 S
C834 C833 1.523 . S
H835 C810 0.950 . S
H836 C812 0.931 1_556 S
H837 C813 0.949 1_554 S
H838 C815 0.950 1_655 S
H839 C817 0.950 1_655 S
C840 C841 1.349 . S
C840 C842 1.327 . S
C840 H865 0.950 . S
C841 C840 1.349 . S
C841 C857 1.349 1_455 S
C842 C840 1.327 . S
C842 C861 1.429 1_455 S
C842 H866 0.950 . S
C843 C860 1.574 . S
C843 C862 1.368 . S
C843 H867 0.949 . S
H844 C848 0.949 . S
C845 C846 1.349 . S
C845 C847 1.327 . S
C845 H868 0.950 . S
C846 C845 1.349 . S
C846 C858 1.349 . S
C847 C845 1.327 . S
C847 C863 1.429 . S
C847 H869 0.950 . S
C848 H844 0.949 . S
C848 C856 1.574 . S
C848 C864 1.368 1_455 S
H849 C857 0.950 . S
H850 C855 0.950 . S
H851 C856 0.949 . S
H852 C858 0.946 1_455 S
H853 C859 0.950 1_455 S
H854 C860 0.949 . S
C855 H850 0.950 . S
C855 C857 1.327 . S
C855 C861 1.429 . S
C856 C848 1.574 . S
C856 H851 0.949 . S
C856 C862 1.368 1_455 S
C857 C841 1.349 1_655 S
C857 H849 0.950 . S
C857 C855 1.327 . S
C858 C846 1.349 . S
C858 H852 0.946 1_655 S
C858 C859 1.327 . S
C859 H853 0.950 1_655 S
C859 C858 1.327 . S
C859 C863 1.429 . S
C860 C843 1.574 . S
C860 H854 0.949 . S
C860 C864 1.368 . S
C861 C842 1.429 1_655 S
C861 C855 1.429 . S
C861 C862 1.523 . S
C862 C843 1.368 . S
C862 C856 1.368 1_655 S
C862 C861 1.523 . S
C863 C847 1.429 . S
C863 C859 1.429 . S
C863 C864 1.523 . S
C864 C848 1.368 1_655 S
C864 C860 1.368 . S
C864 C863 1.523 . S
H865 C840 0.950 . S
H866 C842 0.950 . S
H867 C843 0.949 . S
H868 C845 0.950 . S
H869 C847 0.950 . S
C870 C871 1.349 . S
C870 C872 1.327 . S
C870 H895 0.950 . S
C871 C870 1.349 . S
C871 C887 1.349 . S
C872 C870 1.327 . S
C872 C891 1.429 . S
C872 H896 0.950 . S
C873 C890 1.574 . S
C873 C892 1.368 . S
C873 H897 0.949 . S
H874 C878 0.949 . S
C875 C876 1.349 . S
C875 C877 1.327 . S
C875 H898 0.950 . S
C876 C875 1.349 . S
C876 C888 1.349 . S
C877 C875 1.327 . S
C877 C893 1.429 . S
C877 H899 0.950 . S
C878 H874 0.949 . S
C878 C886 1.574 . S
C878 C894 1.368 . S
H879 C887 0.950 . S
H880 C885 0.950 . S
H881 C886 0.949 . S
H882 C888 0.950 . S
H883 C889 0.950 . S
H884 C890 0.949 . S
C885 H880 0.950 . S
C885 C887 1.327 . S
C885 C891 1.429 . S
C886 C878 1.574 . S
C886 H881 0.949 . S
C886 C892 1.368 . S
C887 C871 1.349 . S
C887 H879 0.950 . S
C887 C885 1.327 . S
C888 C876 1.349 . S
C888 H882 0.950 . S
C888 C889 1.327 . S
C889 H883 0.950 . S
C889 C888 1.327 . S
C889 C893 1.429 . S
C890 C873 1.574 . S
C890 H884 0.949 . S
C890 C894 1.368 . S
C891 C872 1.429 . S
C891 C885 1.429 . S
C891 C892 1.523 . S
C892 C873 1.368 . S
C892 C886 1.368 . S
C892 C891 1.523 . S
C893 C877 1.429 . S
C893 C889 1.429 . S
C893 C894 1.523 . S
C894 C878 1.368 . S
C894 C890 1.368 . S
C894 C893 1.523 . S
H895 C870 0.950 . S
H896 C872 0.950 . S
H897 C873 0.949 . S
H898 C875 0.950 . S
H899 C877 0.950 . S
C900 C901 1.349 . S
C900 C902 1.327 . S
C900 H925 0.950 . S
C901 C900 1.349 . S
C901 C917 1.349 . S
C902 C900 1.327 . S
C902 C921 1.429 . S
C902 H926 0.950 . S
C903 C920 1.574 . S
C903 C922 1.368 . S
C903 H927 0.949 . S
H904 C908 0.949 . S
C905 C906 1.349 . S
C905 C907 1.327 . S
C905 H928 0.950 . S
C906 C905 1.349 . S
C906 C918 1.349 . S
C907 C905 1.327 . S
C907 C923 1.429 . S
C907 H929 0.950 . S
C908 H904 0.949 . S
C908 C916 1.574 . S
C908 C924 1.368 . S
H909 C917 0.950 . S
H910 C915 0.950 . S
H911 C916 0.949 . S
H912 C918 0.950 . S
H913 C919 0.950 . S
H914 C920 0.949 . S
C915 H910 0.950 . S
C915 C917 1.327 . S
C915 C921 1.429 . S
C916 C908 1.574 . S
C916 H911 0.949 . S
C916 C922 1.368 . S
C917 C901 1.349 . S
C917 H909 0.950 . S
C917 C915 1.327 . S
C918 C906 1.349 . S
C918 H912 0.950 . S
C918 C919 1.327 . S
C919 H913 0.950 . S
C919 C918 1.327 . S
C919 C923 1.429 . S
C920 C903 1.574 . S
C920 H914 0.949 . S
C920 C924 1.368 . S
C921 C902 1.429 . S
C921 C915 1.429 . S
C921 C922 1.523 . S
C922 C903 1.368 . S
C922 C916 1.368 . S
C922 C921 1.523 . S
C923 C907 1.429 . S
C923 C919 1.429 . S
C923 C924 1.523 . S
C924 C908 1.368 . S
C924 C920 1.368 . S
C924 C923 1.523 . S
H925 C900 0.950 . S
H926 C902 0.950 . S
H927 C903 0.949 . S
H928 C905 0.950 . S
H929 C907 0.950 . S
C930 C931 1.349 . S
C930 C932 1.327 . S
C930 H955 0.950 . S
C931 C930 1.349 . S
C931 C947 1.349 . S
C932 C930 1.327 . S
C932 C951 1.429 . S
C932 H956 0.950 . S
C933 C950 1.574 . S
C933 C952 1.368 . S
C933 H957 0.949 . S
H934 C938 0.949 . S
C935 C936 1.349 . S
C935 C937 1.327 . S
C935 H958 0.950 . S
C936 C935 1.349 . S
C936 C948 1.349 . S
C937 C935 1.327 . S
C937 C953 1.429 . S
C937 H959 0.950 . S
C938 H934 0.949 . S
C938 C946 1.574 . S
C938 C954 1.368 . S
H939 C947 0.950 . S
H940 C945 0.950 . S
H941 C946 0.949 . S
H942 C948 0.950 . S
H943 C949 0.950 . S
H944 C950 0.949 . S
C945 H940 0.950 . S
C945 C947 1.327 . S
C945 C951 1.429 . S
C946 C938 1.574 . S
C946 H941 0.949 . S
C946 C952 1.368 . S
C947 C931 1.349 . S
C947 H939 0.950 . S
C947 C945 1.327 . S
C948 C936 1.349 . S
C948 H942 0.950 . S
C948 C949 1.327 . S
C949 H943 0.950 . S
C949 C948 1.327 . S
C949 C953 1.429 . S
C950 C933 1.574 . S
C950 H944 0.949 . S
C950 C954 1.368 . S
C951 C932 1.429 . S
C951 C945 1.429 . S
C951 C952 1.523 . S
C952 C933 1.368 . S
C952 C946 1.368 . S
C952 C951 1.523 . S
C953 C937 1.429 . S
C953 C949 1.429 . S
C953 C954 1.523 . S
C954 C938 1.368 . S
C954 C950 1.368 . S
C954 C953 1.523 . S
H955 C930 0.950 . S
H956 C932 0.950 . S
H957 C933 0.949 . S
H958 C935 0.950 . S
H959 C937 0.950 . S
C960 C961 1.347 1_454 S
C960 C962 1.326 1_554 S
C960 H985 0.954 . S
C961 C960 1.347 1_656 S
C961 C977 1.349 . S
C962 C960 1.326 1_556 S
C962 C981 1.429 . S
C962 H986 0.950 . S
C963 C980 1.574 . S
C963 C982 1.368 1_655 S
C963 H987 0.949 . S
H964 C968 0.949 . S
C965 C966 1.327 1_655 S
C965 C967 1.333 . S
C965 H988 0.968 . S
C966 C965 1.327 1_455 S
C966 C978 1.349 . S
C967 C965 1.333 . S
C967 C983 1.429 1_655 S
C967 H989 0.950 . S
C968 H964 0.949 . S
C968 C976 1.574 . S
C968 C984 1.368 . S
H969 C977 0.950 . S
H970 C975 0.950 . S
H971 C976 0.949 . S
H972 C978 0.950 . S
H973 C979 0.950 . S
H974 C980 0.949 . S
C975 H970 0.950 . S
C975 C977 1.327 . S
C975 C981 1.429 1_655 S
C976 C968 1.574 . S
C976 H971 0.949 . S
C976 C982 1.368 . S
C977 C961 1.349 . S
C977 H969 0.950 . S
C977 C975 1.327 . S
C978 C966 1.349 . S
C978 H972 0.950 . S
C978 C979 1.327 . S
C979 H973 0.950 . S
C979 C978 1.327 . S
C979 C983 1.429 . S
C980 C963 1.574 . S
C980 H974 0.949 . S
C980 C984 1.368 1_655 S
C981 C962 1.429 . S
C981 C975 1.429 1_455 S
C981 C982 1.523 . S
C982 C963 1.368 1_455 S
C982 C976 1.368 . S
C982 C981 1.523 . S
C983 C967 1.429 1_455 S
C983 C979 1.429 . S
C983 C984 1.523 . S
C984 C968 1.368 . S
C984 C980 1.368 1_455 S
C984 C983 1.523 . S
H985 C960 0.954 . S
H986 C962 0.950 . S
H987 C963 0.949 . S
H988 C965 0.968 . S
H989 C967 0.950 . S
C990 C991 1.349 . S
C990 C992 1.327 . S
C990 H1015 0.950 1_556 S
C991 C990 1.349 . S
C991 C1007 1.349 . S
C992 C990 1.327 . S
C992 C1011 1.429 . S
C992 H1016 0.950 . S
C993 C1010 1.574 . S
C993 C1012 1.368 . S
C993 H1017 0.949 . S
H994 C998 0.949 . S
C995 C996 1.342 1_565 S
C995 C997 1.335 . S
C995 H1018 0.949 1_565 S
C996 C995 1.342 1_545 S
C996 C1008 1.349 . S
C997 C995 1.335 . S
C997 C1013 1.429 . S
C997 H1019 0.950 . S
C998 H994 0.949 . S
C998 C1006 1.574 . S
C998 C1014 1.368 . S
H999 C1007 0.950 . S
H1000 C1005 0.950 . S
H1001 C1006 0.949 . S
H1002 C1008 0.950 . S
H1003 C1009 0.950 . S
H1004 C1010 0.949 . S
C1005 H1000 0.950 . S
C1005 C1007 1.327 . S
C1005 C1011 1.429 . S
C1006 C998 1.574 . S
C1006 H1001 0.949 . S
C1006 C1012 1.368 . S
C1007 C991 1.349 . S
C1007 H999 0.950 . S
C1007 C1005 1.327 . S
C1008 C996 1.349 . S
C1008 H1002 0.950 . S
C1008 C1009 1.327 1_545 S
C1009 H1003 0.950 . S
C1009 C1008 1.327 1_565 S
C1009 C1013 1.429 . S
C1010 C993 1.574 . S
C1010 H1004 0.949 . S
C1010 C1014 1.368 . S
C1011 C992 1.429 . S
C1011 C1005 1.429 . S
C1011 C1012 1.523 . S
C1012 C993 1.368 . S
C1012 C1006 1.368 . S
C1012 C1011 1.523 . S
C1013 C997 1.429 . S
C1013 C1009 1.429 . S
C1013 C1014 1.523 . S
C1014 C998 1.368 . S
C1014 C1010 1.368 . S
C1014 C1013 1.523 . S
H1015 C990 0.950 1_554 S
H1016 C992 0.950 . S
H1017 C993 0.949 . S
H1018 C995 0.949 1_545 S
H1019 C997 0.950 . S
C1020 C1021 1.349 . S
C1020 C1022 1.327 . S
C1020 H1045 0.950 . S
C1021 C1020 1.349 . S
C1021 C1037 1.349 1_556 S
C1022 C1020 1.327 . S
C1022 C1041 1.429 . S
C1022 H1046 0.950 . S
C1023 C1040 1.574 . S
C1023 C1042 1.368 . S
C1023 H1047 0.949 . S
H1024 C1028 0.949 . S
C1025 C1026 1.349 . S
C1025 C1027 1.327 . S
C1025 H1048 0.950 . S
C1026 C1025 1.349 . S
C1026 C1038 1.349 . S
C1027 C1025 1.327 . S
C1027 C1043 1.429 . S
C1027 H1049 0.950 . S
C1028 H1024 0.949 . S
C1028 C1036 1.574 . S
C1028 C1044 1.368 . S
H1029 C1037 0.950 . S
H1030 C1035 0.950 1_554 S
H1031 C1036 0.949 . S
H1032 C1038 0.950 . S
H1033 C1039 0.950 . S
H1034 C1040 0.949 . S
C1035 H1030 0.950 1_556 S
C1035 C1037 1.327 1_556 S
C1035 C1041 1.429 . S
C1036 C1028 1.574 . S
C1036 H1031 0.949 . S
C1036 C1042 1.368 . S
C1037 C1021 1.349 1_554 S
C1037 H1029 0.950 . S
C1037 C1035 1.327 1_554 S
C1038 C1026 1.349 . S
C1038 H1032 0.950 . S
C1038 C1039 1.327 . S
C1039 H1033 0.950 . S
C1039 C1038 1.327 . S
C1039 C1043 1.429 . S
C1040 C1023 1.574 . S
C1040 H1034 0.949 . S
C1040 C1044 1.368 . S
C1041 C1022 1.429 . S
C1041 C1035 1.429 . S
C1041 C1042 1.523 . S
C1042 C1023 1.368 . S
C1042 C1036 1.368 . S
C1042 C1041 1.523 . S
C1043 C1027 1.429 . S
C1043 C1039 1.429 . S
C1043 C1044 1.523 . S
C1044 C1028 1.368 . S
C1044 C1040 1.368 . S
C1044 C1043 1.523 . S
H1045 C1020 0.950 . S
H1046 C1022 0.950 . S
H1047 C1023 0.949 . S
H1048 C1025 0.950 . S
H1049 C1027 0.950 . S
C1050 C1051 1.349 . S
C1050 C1052 1.327 . S
C1050 H1075 0.950 . S
C1051 C1050 1.349 . S
C1051 C1067 1.349 . S
C1052 C1050 1.327 . S
C1052 C1071 1.429 . S
C1052 H1076 0.950 . S
C1053 C1070 1.574 . S
C1053 C1072 1.368 . S
C1053 H1077 0.949 . S
H1054 C1058 0.949 . S
C1055 C1056 1.349 . S
C1055 C1057 1.327 . S
C1055 H1078 0.950 . S
C1056 C1055 1.349 . S
C1056 C1068 1.349 . S
C1057 C1055 1.327 . S
C1057 C1073 1.429 . S
C1057 H1079 0.950 . S
C1058 H1054 0.949 . S
C1058 C1066 1.574 . S
C1058 C1074 1.368 . S
H1059 C1067 0.950 . S
H1060 C1065 0.950 . S
H1061 C1066 0.949 . S
H1062 C1068 0.950 . S
H1063 C1069 0.950 . S
H1064 C1070 0.949 . S
C1065 H1060 0.950 . S
C1065 C1067 1.327 . S
C1065 C1071 1.429 . S
C1066 C1058 1.574 . S
C1066 H1061 0.949 . S
C1066 C1072 1.368 . S
C1067 C1051 1.349 . S
C1067 H1059 0.950 . S
C1067 C1065 1.327 . S
C1068 C1056 1.349 . S
C1068 H1062 0.950 . S
C1068 C1069 1.327 . S
C1069 H1063 0.950 . S
C1069 C1068 1.327 . S
C1069 C1073 1.429 . S
C1070 C1053 1.574 . S
C1070 H1064 0.949 . S
C1070 C1074 1.368 . S
C1071 C1052 1.429 . S
C1071 C1065 1.429 . S
C1071 C1072 1.523 . S
C1072 C1053 1.368 . S
C1072 C1066 1.368 . S
C1072 C1071 1.523 . S
C1073 C1057 1.429 . S
C1073 C1069 1.429 . S
C1073 C1074 1.523 . S
C1074 C1058 1.368 . S
C1074 C1070 1.368 . S
C1074 C1073 1.523 . S
H1075 C1050 0.950 . S
H1076 C1052 0.950 . S
H1077 C1053 0.949 . S
H1078 C1055 0.950 . S
H1079 C1057 0.950 . S
C1080 C1081 1.312 1_655 S
C1080 C1082 1.327 . S
C1080 H1105 0.950 . S
C1081 C1080 1.312 1_455 S
C1081 C1097 1.388 . S
C1082 C1080 1.327 . S
C1082 C1101 1.429 1_655 S
C1082 H1106 0.950 . S
C1083 C1100 1.574 . S
C1083 C1102 1.368 . S
C1083 H1107 0.949 . S
H1084 C1088 0.949 . S
C1085 C1086 1.349 . S
C1085 C1087 1.327 . S
C1085 H1108 0.950 . S
C1086 C1085 1.349 . S
C1086 C1098 1.349 1_455 S
C1087 C1085 1.327 . S
C1087 C1103 1.429 . S
C1087 H1109 0.950 . S
C1088 H1084 0.949 . S
C1088 C1096 1.574 . S
C1088 C1104 1.368 1_655 S
H1089 C1097 0.950 . S
H1090 C1095 0.950 . S
H1091 C1096 0.949 . S
H1092 C1098 0.950 . S
H1093 C1099 0.950 1_554 S
H1094 C1100 0.949 1_556 S
C1095 H1090 0.950 . S
C1095 C1097 1.327 . S
C1095 C1101 1.429 . S
C1096 C1088 1.574 . S
C1096 H1091 0.949 . S
C1096 C1102 1.368 1_655 S
C1097 C1081 1.388 . S
C1097 H1089 0.950 . S
C1097 C1095 1.327 . S
C1098 C1086 1.349 1_655 S
C1098 H1092 0.950 . S
C1098 C1099 1.327 . S
C1099 H1093 0.950 1_556 S
C1099 C1098 1.327 . S
C1099 C1103 1.429 1_655 S
C1100 C1083 1.574 . S
C1100 H1094 0.949 1_554 S
C1100 C1104 1.368 . S
C1101 C1082 1.429 1_455 S
C1101 C1095 1.429 . S
C1101 C1102 1.523 . S
C1102 C1083 1.368 . S
C1102 C1096 1.368 1_455 S
C1102 C1101 1.523 . S
C1103 C1087 1.429 . S
C1103 C1099 1.429 1_455 S
C1103 C1104 1.523 1_556 S
C1104 C1088 1.368 1_455 S
C1104 C1100 1.368 . S
C1104 C1103 1.523 1_554 S
H1105 C1080 0.950 . S
H1106 C1082 0.950 . S
H1107 C1083 0.949 . S
H1108 C1085 0.950 . S
H1109 C1087 0.950 . S
C1110 C1111 1.349 . S
C1110 C1112 1.327 . S
C1110 H1135 0.950 . S
C1111 C1110 1.349 . S
C1111 C1127 1.349 . S
C1112 C1110 1.327 . S
C1112 C1131 1.429 . S
C1112 H1136 0.950 . S
C1113 C1130 1.574 . S
C1113 C1132 1.368 . S
C1113 H1137 0.949 . S
H1114 C1118 0.949 . S
C1115 C1116 1.349 . S
C1115 C1117 1.327 . S
C1115 H1138 0.950 . S
C1116 C1115 1.349 . S
C1116 C1128 1.349 . S
C1117 C1115 1.327 . S
C1117 C1133 1.429 1_556 S
C1117 H1139 0.950 1_556 S
C1118 H1114 0.949 . S
C1118 C1126 1.574 . S
C1118 C1134 1.368 . S
H1119 C1127 0.950 . S
H1120 C1125 0.950 . S
H1121 C1126 0.949 . S
H1122 C1128 0.950 . S
H1123 C1129 0.950 . S
H1124 C1130 0.949 . S
C1125 H1120 0.950 . S
C1125 C1127 1.327 . S
C1125 C1131 1.429 . S
C1126 C1118 1.574 . S
C1126 H1121 0.949 . S
C1126 C1132 1.368 . S
C1127 C1111 1.349 . S
C1127 H1119 0.950 . S
C1127 C1125 1.327 . S
C1128 C1116 1.349 . S
C1128 H1122 0.950 . S
C1128 C1129 1.327 . S
C1129 H1123 0.950 . S
C1129 C1128 1.327 . S
C1129 C1133 1.429 1_556 S
C1130 C1113 1.574 . S
C1130 H1124 0.949 . S
C1130 C1134 1.368 . S
C1131 C1112 1.429 . S
C1131 C1125 1.429 . S
C1131 C1132 1.523 . S
C1132 C1113 1.368 . S
C1132 C1126 1.368 . S
C1132 C1131 1.523 . S
C1133 C1117 1.429 1_554 S
C1133 C1129 1.429 1_554 S
C1133 C1134 1.523 . S
C1134 C1118 1.368 . S
C1134 C1130 1.368 . S
C1134 C1133 1.523 . S
H1135 C1110 0.950 . S
H1136 C1112 0.950 . S
H1137 C1113 0.949 . S
H1138 C1115 0.950 . S
H1139 C1117 0.950 1_554 S
C1140 C1141 1.349 . S
C1140 C1142 1.327 . S
C1140 H1165 0.950 . S
C1141 C1140 1.349 . S
C1141 C1157 1.349 . S
C1142 C1140 1.327 . S
C1142 C1161 1.429 . S
C1142 H1166 0.950 . S
C1143 C1160 1.574 . S
C1143 C1162 1.368 . S
C1143 H1167 0.949 . S
H1144 C1148 0.949 . S
C1145 C1146 1.349 . S
C1145 C1147 1.327 . S
C1145 H1168 0.950 . S
C1146 C1145 1.349 . S
C1146 C1158 1.349 . S
C1147 C1145 1.327 . S
C1147 C1163 1.429 . S
C1147 H1169 0.950 . S
C1148 H1144 0.949 . S
C1148 C1156 1.574 1_556 S
C1148 C1164 1.368 . S
H1149 C1157 0.950 . S
H1150 C1155 0.950 . S
H1151 C1156 0.949 . S
H1152 C1158 0.950 . S
H1153 C1159 0.950 . S
H1154 C1160 0.949 . S
C1155 H1150 0.950 . S
C1155 C1157 1.327 . S
C1155 C1161 1.429 . S
C1156 C1148 1.574 1_554 S
C1156 H1151 0.949 . S
C1156 C1162 1.368 . S
C1157 C1141 1.349 . S
C1157 H1149 0.950 . S
C1157 C1155 1.327 . S
C1158 C1146 1.349 . S
C1158 H1152 0.950 . S
C1158 C1159 1.327 . S
C1159 H1153 0.950 . S
C1159 C1158 1.327 . S
C1159 C1163 1.429 . S
C1160 C1143 1.574 . S
C1160 H1154 0.949 . S
C1160 C1164 1.368 1_554 S
C1161 C1142 1.429 . S
C1161 C1155 1.429 . S
C1161 C1162 1.523 . S
C1162 C1143 1.368 . S
C1162 C1156 1.368 . S
C1162 C1161 1.523 . S
C1163 C1147 1.429 . S
C1163 C1159 1.429 . S
C1163 C1164 1.523 . S
C1164 C1148 1.368 . S
C1164 C1160 1.368 1_556 S
C1164 C1163 1.523 . S
H1165 C1140 0.950 . S
H1166 C1142 0.950 . S
H1167 C1143 0.949 . S
H1168 C1145 0.950 . S
H1169 C1147 0.950 . S
C1170 C1171 1.349 . S
C1170 C1172 1.327 . S
C1170 H1195 0.950 . S
C1171 C1170 1.349 . S
C1171 C1187 1.349 . S
C1172 C1170 1.327 . S
C1172 C1191 1.429 . S
C1172 H1196 0.950 . S
C1173 C1190 1.574 1_554 S
C1173 C1192 1.368 . S
C1173 H1197 0.949 . S
H1174 C1178 0.949 . S
C1175 C1176 1.349 . S
C1175 C1177 1.327 . S
C1175 H1198 0.950 . S
C1176 C1175 1.349 . S
C1176 C1188 1.349 . S
C1177 C1175 1.327 . S
C1177 C1193 1.429 . S
C1177 H1199 0.950 . S
C1178 H1174 0.949 . S
C1178 C1186 1.574 . S
C1178 C1194 1.368 1_554 S
H1179 C1187 0.950 . S
H1180 C1185 0.950 . S
H1181 C1186 0.949 . S
H1182 C1188 0.950 . S
H1183 C1189 0.950 . S
H1184 C1190 0.949 . S
C1185 H1180 0.950 . S
C1185 C1187 1.327 . S
C1185 C1191 1.429 . S
C1186 C1178 1.574 . S
C1186 H1181 0.949 . S
C1186 C1192 1.368 . S
C1187 C1171 1.349 . S
C1187 H1179 0.950 . S
C1187 C1185 1.327 . S
C1188 C1176 1.349 . S
C1188 H1182 0.950 . S
C1188 C1189 1.327 . S
C1189 H1183 0.950 . S
C1189 C1188 1.327 . S
C1189 C1193 1.429 . S
C1190 C1173 1.574 1_556 S
C1190 H1184 0.949 . S
C1190 C1194 1.368 . S
C1191 C1172 1.429 . S
C1191 C1185 1.429 . S
C1191 C1192 1.523 . S
C1192 C1173 1.368 . S
C1192 C1186 1.368 . S
C1192 C1191 1.523 . S
C1193 C1177 1.429 . S
C1193 C1189 1.429 . S
C1193 C1194 1.523 . S
C1194 C1178 1.368 1_556 S
C1194 C1190 1.368 . S
C1194 C1193 1.523 . S
H1195 C1170 0.950 . S
H1196 C1172 0.950 . S
H1197 C1173 0.949 . S
H1198 C1175 0.950 . S
H1199 C1177 0.950 . S
C1200 C1201 1.306 1_455 S
C1200 C1202 1.327 . S
C1200 H1225 0.950 . S
C1201 C1200 1.306 1_655 S
C1201 C1217 1.393 . S
C1202 C1200 1.327 . S
C1202 C1221 1.429 1_455 S
C1202 H1226 0.950 . S
C1203 C1220 1.574 . S
C1203 C1222 1.368 . S
C1203 H1227 0.949 . S
H1204 C1208 0.949 . S
C1205 C1206 1.349 . S
C1205 C1207 1.327 . S
C1205 H1228 0.950 . S
C1206 C1205 1.349 . S
C1206 C1218 1.349 1_655 S
C1207 C1205 1.327 . S
C1207 C1223 1.429 . S
C1207 H1229 0.950 . S
C1208 H1204 0.949 . S
C1208 C1216 1.574 . S
C1208 C1224 1.368 1_455 S
H1209 C1217 0.950 . S
H1210 C1215 0.950 . S
H1211 C1216 0.949 . S
H1212 C1218 0.950 . S
H1213 C1219 0.950 . S
H1214 C1220 0.949 . S
C1215 H1210 0.950 . S
C1215 C1217 1.327 . S
C1215 C1221 1.429 . S
C1216 C1208 1.574 . S
C1216 H1211 0.949 . S
C1216 C1222 1.368 1_455 S
C1217 C1201 1.393 . S
C1217 H1209 0.950 . S
C1217 C1215 1.327 . S
C1218 C1206 1.349 1_455 S
C1218 H1212 0.950 . S
C1218 C1219 1.327 . S
C1219 H1213 0.950 . S
C1219 C1218 1.327 . S
C1219 C1223 1.429 1_455 S
C1220 C1203 1.574 . S
C1220 H1214 0.949 . S
C1220 C1224 1.368 . S
C1221 C1202 1.429 1_655 S
C1221 C1215 1.429 . S
C1221 C1222 1.523 . S
C1222 C1203 1.368 . S
C1222 C1216 1.368 1_655 S
C1222 C1221 1.523 . S
C1223 C1207 1.429 . S
C1223 C1219 1.429 1_655 S
C1223 C1224 1.523 . S
C1224 C1208 1.368 1_655 S
C1224 C1220 1.368 . S
C1224 C1223 1.523 . S
H1225 C1200 0.950 . S
H1226 C1202 0.950 . S
H1227 C1203 0.949 . S
H1228 C1205 0.950 . S
H1229 C1207 0.950 . S
C1230 C1231 1.349 . S
C1230 C1232 1.327 . S
C1230 H1255 0.950 . S
C1231 C1230 1.349 . S
C1231 C1247 1.349 . S
C1232 C1230 1.327 . S
C1232 C1251 1.429 . S
C1232 H1256 0.950 . S
C1233 C1250 1.574 . S
C1233 C1252 1.368 . S
C1233 H1257 0.949 . S
H1234 C1238 0.949 . S
C1235 C1236 1.349 . S
C1235 C1237 1.327 . S
C1235 H1258 0.950 . S
C1236 C1235 1.349 . S
C1236 C1248 1.349 . S
C1237 C1235 1.327 . S
C1237 C1253 1.429 . S
C1237 H1259 0.950 . S
C1238 H1234 0.949 . S
C1238 C1246 1.574 . S
C1238 C1254 1.368 . S
H1239 C1247 0.950 . S
H1240 C1245 0.950 . S
H1241 C1246 0.949 . S
H1242 C1248 0.950 . S
H1243 C1249 0.950 . S
H1244 C1250 0.949 . S
C1245 H1240 0.950 . S
C1245 C1247 1.327 . S
C1245 C1251 1.429 . S
C1246 C1238 1.574 . S
C1246 H1241 0.949 . S
C1246 C1252 1.368 . S
C1247 C1231 1.349 . S
C1247 H1239 0.950 . S
C1247 C1245 1.327 . S
C1248 C1236 1.349 . S
C1248 H1242 0.950 . S
C1248 C1249 1.327 . S
C1249 H1243 0.950 . S
C1249 C1248 1.327 . S
C1249 C1253 1.429 . S
C1250 C1233 1.574 . S
C1250 H1244 0.949 . S
C1250 C1254 1.368 . S
C1251 C1232 1.429 . S
C1251 C1245 1.429 . S
C1251 C1252 1.523 . S
C1252 C1233 1.368 . S
C1252 C1246 1.368 . S
C1252 C1251 1.523 . S
C1253 C1237 1.429 . S
C1253 C1249 1.429 . S
C1253 C1254 1.523 . S
C1254 C1238 1.368 . S
C1254 C1250 1.368 . S
C1254 C1253 1.523 . S
H1255 C1230 0.950 . S
H1256 C1232 0.950 . S
H1257 C1233 0.949 . S
H1258 C1235 0.950 . S
H1259 C1237 0.950 . S
C1260 C1261 1.349 . S
C1260 C1262 1.327 . S
C1260 H1285 0.950 . S
C1261 C1260 1.349 . S
C1261 C1277 1.349 . S
C1262 C1260 1.327 . S
C1262 C1281 1.429 . S
C1262 H1286 0.950 . S
C1263 C1280 1.574 . S
C1263 C1282 1.368 . S
C1263 H1287 0.949 . S
H1264 C1268 0.949 . S
C1265 C1266 1.349 . S
C1265 C1267 1.327 . S
C1265 H1288 0.950 . S
C1266 C1265 1.349 . S
C1266 C1278 1.349 . S
C1267 C1265 1.327 . S
C1267 C1283 1.429 . S
C1267 H1289 0.950 . S
C1268 H1264 0.949 . S
C1268 C1276 1.574 . S
C1268 C1284 1.368 . S
H1269 C1277 0.950 . S
H1270 C1275 0.950 . S
H1271 C1276 0.949 . S
H1272 C1278 0.950 . S
H1273 C1279 0.950 . S
H1274 C1280 0.949 . S
C1275 H1270 0.950 . S
C1275 C1277 1.327 . S
C1275 C1281 1.429 . S
C1276 C1268 1.574 . S
C1276 H1271 0.949 . S
C1276 C1282 1.368 . S
C1277 C1261 1.349 . S
C1277 H1269 0.950 . S
C1277 C1275 1.327 . S
C1278 C1266 1.349 . S
C1278 H1272 0.950 . S
C1278 C1279 1.327 . S
C1279 H1273 0.950 . S
C1279 C1278 1.327 . S
C1279 C1283 1.429 . S
C1280 C1263 1.574 . S
C1280 H1274 0.949 . S
C1280 C1284 1.368 . S
C1281 C1262 1.429 . S
C1281 C1275 1.429 . S
C1281 C1282 1.523 . S
C1282 C1263 1.368 . S
C1282 C1276 1.368 . S
C1282 C1281 1.523 . S
C1283 C1267 1.429 . S
C1283 C1279 1.429 . S
C1283 C1284 1.523 . S
C1284 C1268 1.368 . S
C1284 C1280 1.368 . S
C1284 C1283 1.523 . S
H1285 C1260 0.950 . S
H1286 C1262 0.950 . S
H1287 C1263 0.949 . S
H1288 C1265 0.950 . S
H1289 C1267 0.950 . S
C1290 C1291 1.349 . S
C1290 C1292 1.327 . S
C1290 H1315 0.950 . S
C1291 C1290 1.349 . S
C1291 C1307 1.349 . S
C1292 C1290 1.327 . S
C1292 C1311 1.429 . S
C1292 H1316 0.950 . S
C1293 C1310 1.574 . S
C1293 C1312 1.368 . S
C1293 H1317 0.949 . S
H1294 C1298 0.949 . S
C1295 C1296 1.349 . S
C1295 C1297 1.327 . S
C1295 H1318 0.950 . S
C1296 C1295 1.349 . S
C1296 C1308 1.349 . S
C1297 C1295 1.327 . S
C1297 C1313 1.429 . S
C1297 H1319 0.950 . S
C1298 H1294 0.949 . S
C1298 C1306 1.574 . S
C1298 C1314 1.368 . S
H1299 C1307 0.950 . S
H1300 C1305 0.950 . S
H1301 C1306 0.949 . S
H1302 C1308 0.950 . S
H1303 C1309 0.950 . S
H1304 C1310 0.949 . S
C1305 H1300 0.950 . S
C1305 C1307 1.327 . S
C1305 C1311 1.429 . S
C1306 C1298 1.574 . S
C1306 H1301 0.949 . S
C1306 C1312 1.368 . S
C1307 C1291 1.349 . S
C1307 H1299 0.950 . S
C1307 C1305 1.327 . S
C1308 C1296 1.349 . S
C1308 H1302 0.950 . S
C1308 C1309 1.327 . S
C1309 H1303 0.950 . S
C1309 C1308 1.327 . S
C1309 C1313 1.429 . S
C1310 C1293 1.574 . S
C1310 H1304 0.949 . S
C1310 C1314 1.368 . S
C1311 C1292 1.429 . S
C1311 C1305 1.429 . S
C1311 C1312 1.523 . S
C1312 C1293 1.368 . S
C1312 C1306 1.368 . S
C1312 C1311 1.523 . S
C1313 C1297 1.429 . S
C1313 C1309 1.429 . S
C1313 C1314 1.523 . S
C1314 C1298 1.368 . S
C1314 C1310 1.368 . S
C1314 C1313 1.523 . S
H1315 C1290 0.950 . S
H1316 C1292 0.950 . S
H1317 C1293 0.949 . S
H1318 C1295 0.950 . S
H1319 C1297 0.950 . S
C601 C391 1.808 . S
C606 C490 1.784 . S
C636 C520 1.683 . S
C631 C451 1.671 . S
C666 N554 1.700 . S
C661 C241 1.585 . S
C696 N584 1.261 . S
C691 C331 1.227 . S
C726 C481 1.791 1_565 S
C721 C121 1.728 . S
C751 C211 1.687 . S
C756 C511 1.683 . S
C781 C31 1.695 . S
C786 N546 1.700 . S
C811 C91 1.230 1_455 S
C816 N576 1.262 . S
C846 C496 0.726 . S
C841 C301 0.978 1_455 S
C876 C526 0.321 . S
C871 C380 0.280 . S
C906 C567 0.211 . S
C901 C440 0.238 . S
C931 C260 0.661 . S
C936 C597 0.378 . S
C961 C61 0.945 . S
C966 C507 0.720 . S
C996 C537 0.321 . S
C991 C140 0.545 . S
C1026 C556 0.210 . S
C1021 C200 0.143 . S
C1051 C20 0.581 . S
C1056 C586 0.384 . S
C1081 C320 1.656 1_455 S
C1086 N486 1.640 . S
C1111 C361 1.662 . S
C1116 N516 1.795 . S
C1146 C541 1.812 . S
C1141 C421 1.622 . S
C1176 C571 2.113 . S
C1171 C271 2.027 . S
C1201 C80 1.656 . S
C1206 N494 1.642 . S
C1236 N524 1.794 . S
C1231 C151 1.819 . S
C1266 C550 1.811 . S
C1261 C181 1.649 . S
C1291 C1 1.871 . S
C1296 C580 2.118 . S
