# Generated by pormake.
# Topology zzz, (3,6)-cn, num edge types: 1
# Building blocks:
#     Node 0, Type 0, BuildingBlock: VETTIZ_charged_linker_0, # of connection points: 3
#     Node 1, Type 0, BuildingBlock: VETTIZ_charged_linker_0, # of connection points: 3
#     Node 2, Type 0, BuildingBlock: VETTIZ_charged_linker_0, # of connection points: 3
#     Node 3, Type 0, BuildingBlock: VETTIZ_charged_linker_0, # of connection points: 3
#     Node 4, Type 0, BuildingBlock: VETTIZ_charged_linker_0, # of connection points: 3
#     Node 5, Type 0, BuildingBlock: VETTIZ_charged_linker_0, # of connection points: 3
#     Node 6, Type 0, BuildingBlock: VETTIZ_charged_linker_0, # of connection points: 3
#     Node 7, Type 0, BuildingBlock: VETTIZ_charged_linker_0, # of connection points: 3
#     Node 8, Type 1, BuildingBlock: KUMJIN_clean_sbu_1, # of connection points: 6
#     Node 9, Type 1, BuildingBlock: KUMJIN_clean_sbu_1, # of connection points: 6
#     Node 10, Type 1, BuildingBlock: KUMJIN_clean_sbu_1, # of connection points: 6
#     Node 11, Type 1, BuildingBlock: KUMJIN_clean_sbu_1, # of connection points: 6
#     Edge 12, Type (0, 1), BuildingBlock: EZIPEK_clean_linker_0, # of connection points: 2
#     Edge 13, Type (0, 1), BuildingBlock: EZIPEK_clean_linker_0, # of connection points: 2
#     Edge 14, Type (0, 1), BuildingBlock: EZIPEK_clean_linker_0, # of connection points: 2
#     Edge 15, Type (0, 1), BuildingBlock: EZIPEK_clean_linker_0, # of connection points: 2
#     Edge 16, Type (0, 1), BuildingBlock: EZIPEK_clean_linker_0, # of connection points: 2
#     Edge 17, Type (0, 1), BuildingBlock: EZIPEK_clean_linker_0, # of connection points: 2
#     Edge 18, Type (0, 1), BuildingBlock: EZIPEK_clean_linker_0, # of connection points: 2
#     Edge 19, Type (0, 1), BuildingBlock: EZIPEK_clean_linker_0, # of connection points: 2
#     Edge 20, Type (0, 1), BuildingBlock: EZIPEK_clean_linker_0, # of connection points: 2
#     Edge 21, Type (0, 1), BuildingBlock: EZIPEK_clean_linker_0, # of connection points: 2
#     Edge 22, Type (0, 1), BuildingBlock: EZIPEK_clean_linker_0, # of connection points: 2
#     Edge 23, Type (0, 1), BuildingBlock: EZIPEK_clean_linker_0, # of connection points: 2
#     Edge 24, Type (0, 1), BuildingBlock: EZIPEK_clean_linker_0, # of connection points: 2
#     Edge 25, Type (0, 1), BuildingBlock: EZIPEK_clean_linker_0, # of connection points: 2
#     Edge 26, Type (0, 1), BuildingBlock: EZIPEK_clean_linker_0, # of connection points: 2
#     Edge 27, Type (0, 1), BuildingBlock: EZIPEK_clean_linker_0, # of connection points: 2
#     Edge 28, Type (0, 1), BuildingBlock: EZIPEK_clean_linker_0, # of connection points: 2
#     Edge 29, Type (0, 1), BuildingBlock: EZIPEK_clean_linker_0, # of connection points: 2
#     Edge 30, Type (0, 1), BuildingBlock: EZIPEK_clean_linker_0, # of connection points: 2
#     Edge 31, Type (0, 1), BuildingBlock: EZIPEK_clean_linker_0, # of connection points: 2
#     Edge 32, Type (0, 1), BuildingBlock: EZIPEK_clean_linker_0, # of connection points: 2
#     Edge 33, Type (0, 1), BuildingBlock: EZIPEK_clean_linker_0, # of connection points: 2
#     Edge 34, Type (0, 1), BuildingBlock: EZIPEK_clean_linker_0, # of connection points: 2
#     Edge 35, Type (0, 1), BuildingBlock: EZIPEK_clean_linker_0, # of connection points: 2
# Relax obj value: 0.361
# Max RMSD: 0.207
# Mean RMSD: 0.187
data_MOF--net-zzz--node1-KUMJIN_clean_sbu_1--node2-VETTIZ_charged_linker_0--edge1-EZIPEK_clean_linker_0
_symmetry_space_group_name_H-M    P1
_symmetry_Int_Tables_number       1
_symmetry_cell_setting            triclinic
loop_
_symmetry_equiv_pos_as_xyz
'x, y, z'
_cell_length_a     43.561835
_cell_length_b     43.498385
_cell_length_c     16.418313
_cell_angle_alpha  90.094099
_cell_angle_beta   90.032005
_cell_angle_gamma 90.148336
loop_
_atom_site_label
_atom_site_type_symbol
_atom_site_fract_x
_atom_site_fract_y
_atom_site_fract_z
_atom_type_partial_charge
C0 C 0.81338 0.52114 0.44569 0.0
C1 C 0.84257 0.50556 0.4522 0.0
C2 C 0.84948 0.48344 0.39182 0.0
C3 C 0.80666 0.50034 0.31054 0.0
C4 C 0.7946 0.51642 0.37425 0.0
C5 C 0.76364 0.53012 0.34478 0.0
H6 H 0.69445 0.52907 0.94882 0.0
C7 C 0.79232 0.51096 0.23522 0.0
C8 C 0.76227 0.52154 0.25235 0.0
H9 H 0.63582 0.52851 0.16016 0.0
H10 H 0.68199 0.52832 0.25002 0.0
H11 H 0.73584 0.59381 0.03206 0.0
H12 H 0.76531 0.49793 0.02106 0.0
H13 H 0.78628 0.52765 0.96869 0.0
H14 H 0.74969 0.51525 0.93037 0.0
H15 H 0.72663 0.57244 0.94134 0.0
H16 H 0.76539 0.58108 0.96157 0.0
C17 C 0.76332 0.56517 0.35733 0.0
C18 C 0.737 0.51483 0.39058 0.0
C19 C 0.87055 0.57646 0.09331 0.0
C20 C 0.86814 0.60412 0.04939 0.0
C21 C 0.83868 0.61595 0.03286 0.0
C22 C 0.81241 0.5995 0.05771 0.0
C23 C 0.81617 0.57014 0.09179 0.0
C24 C 0.84467 0.55969 0.11262 0.0
C25 C 0.84381 0.53105 0.16378 0.0
C26 C 0.80924 0.52756 0.17575 0.0
C27 C 0.79425 0.54914 0.12806 0.0
C28 C 0.86214 0.53698 0.24289 0.0
C29 C 0.85676 0.50398 0.11414 0.0
C30 C 0.69102 0.52876 1.01415 0.0
C31 C 0.66109 0.5286 0.04578 0.0
C32 C 0.65839 0.52821 0.13261 0.0
C33 C 0.68486 0.52808 0.18463 0.0
C34 C 0.71442 0.53026 0.15022 0.0
C35 C 0.71637 0.53282 0.06601 0.0
C36 C 0.7469 0.54453 0.03961 0.0
C37 C 0.76259 0.54883 0.12163 0.0
C38 C 0.74537 0.53739 0.1878 0.0
C39 C 0.74351 0.5748 0.99161 0.0
C40 C 0.76296 0.51987 0.98692 0.0
H41 H 0.83939 0.46623 0.27171 0.0
H42 H 0.80641 0.53742 0.49195 0.0
H43 H 0.73709 0.48955 0.3805 0.0
H44 H 0.71471 0.52399 0.36896 0.0
H45 H 0.73901 0.5192 0.45708 0.0
H46 H 0.78279 0.57606 0.32433 0.0
H47 H 0.76534 0.57098 0.42305 0.0
H48 H 0.74156 0.57512 0.334 0.0
H49 H 0.89237 0.56681 0.10936 0.0
H50 H 0.83612 0.63742 1.00031 0.0
H51 H 0.79009 0.60989 0.05158 0.0
H52 H 0.84688 0.54761 0.28881 0.0
H53 H 0.88182 0.55289 0.23541 0.0
H54 H 0.87299 0.51579 0.26592 0.0
H55 H 0.84406 0.5012 0.05577 0.0
H56 H 0.85485 0.48213 0.14819 0.0
H57 H 0.88129 0.50788 0.09959 0.0
H58 H 0.87054 0.47032 0.39569 0.0
C59 C 0.83177 0.48091 0.32072 0.0
C60 C 0.93871 0.80501 0.8666 0.0
C61 C 0.91818 0.82998 0.86511 0.0
C62 C 0.90324 0.83764 0.93919 0.0
C63 C 0.93946 0.80639 1.01375 0.0
C64 C 0.94976 0.79445 0.94105 0.0
C65 C 0.97657 0.77337 0.95136 0.0
H66 H 0.99293 0.65508 0.14541 0.0
C67 C 0.95899 0.79402 0.07932 0.0
C68 C 0.98003 0.77373 0.04367 0.0
H69 H 0.03657 0.67897 0.9168 0.0
H70 H 0.03597 0.73274 0.95652 0.0
H71 H 0.03844 0.72277 0.25953 0.0
H72 H 0.9586 0.68686 0.24238 0.0
H73 H 0.94384 0.7161 0.17527 0.0
H74 H 0.95182 0.72511 0.28037 0.0
H75 H 0.01655 0.68877 0.28402 0.0
H76 H 1.00702 0.72475 0.33115 0.0
C77 C 1.00475 0.78827 0.90976 0.0
C78 C 0.96789 0.74155 0.91506 0.0
C79 C 0.97054 0.8504 0.34598 0.0
C80 C 0.99045 0.84689 0.41308 0.0
C81 C 1.00718 0.81881 0.41781 0.0
C82 C 1.00449 0.79548 0.35675 0.0
C83 C 0.98417 0.79956 0.29099 0.0
C84 C 0.96784 0.82695 0.28639 0.0
C85 C 0.94951 0.82887 0.20873 0.0
C86 C 0.96064 0.80028 0.16389 0.0
C87 C 0.97883 0.78138 0.21397 0.0
C88 C 0.95823 0.85896 0.16381 0.0
C89 C 0.91494 0.8267 0.23005 0.0
C90 C 1.00212 0.67183 0.10355 0.0
C91 C 0.01264 0.66264 0.02396 0.0
C92 C 0.02685 0.68517 0.97531 0.0
C93 C 0.02612 0.7162 0.99738 0.0
C94 C 1.01067 0.72498 0.0682 0.0
C95 C 1.00282 0.70372 0.12587 0.0
C96 C 0.99279 0.72097 0.20378 0.0
C97 C 0.99445 0.75533 0.17797 0.0
C98 C 0.9991 0.75513 0.09311 0.0
C99 C 0.01506 0.71398 0.27374 0.0
C100 C 0.9598 0.71169 0.2268 0.0
H101 H 0.90378 0.83459 0.06878 0.0
H102 H 0.94976 0.79671 0.81186 0.0
H103 H 0.95754 0.72643 0.96215 0.0
H104 H 0.98779 0.73001 0.88669 0.0
H105 H 0.95085 0.74341 0.86492 0.0
H106 H 1.00522 0.8135 0.92114 0.0
H107 H 1.00419 0.78441 0.84285 0.0
H108 H 0.02669 0.77959 0.93395 0.0
H109 H 0.95764 0.87149 0.3394 0.0
H110 H 0.02304 0.81534 0.46773 0.0
H111 H 0.01868 0.77523 0.36036 0.0
H112 H 0.98346 0.86012 0.15379 0.0
H113 H 0.95133 0.87948 0.19965 0.0
H114 H 0.94713 0.86117 0.10389 0.0
H115 H 0.91116 0.81512 0.28962 0.0
H116 H 0.90205 0.81258 0.18542 0.0
H117 H 0.90434 0.84986 0.23392 0.0
H118 H 0.88572 0.85519 0.94069 0.0
C119 C 0.91401 0.82608 1.01379 0.0
C120 C 0.85639 0.99523 0.12521 0.0
C121 C 0.87431 0.97907 0.06462 0.0
C122 C 0.86521 0.94894 0.0438 0.0
C123 C 0.8186 0.9548 0.12031 0.0
C124 C 0.82847 0.98157 0.15512 0.0
C125 C 0.8036 0.99213 0.21714 0.0
H126 H 0.64725 0.9855 0.30244 0.0
C127 C 0.78636 0.9501 0.13743 0.0
C128 C 0.77721 0.96837 0.20387 0.0
H129 H 0.71174 0.99145 0.50078 0.0
H130 H 0.75464 0.98426 0.40318 0.0
H131 H 0.66216 1.00175 0.16287 0.0
H132 H 0.6806 0.92263 0.2812 0.0
H133 H 0.67991 0.91131 0.17952 0.0
H134 H 0.64842 0.93385 0.21934 0.0
H135 H 0.65395 0.96866 0.10509 0.0
H136 H 0.6887 0.99049 0.08661 0.0
C137 C 0.79276 0.02482 0.19695 0.0
C138 C 0.81659 0.99048 0.30392 0.0
C139 C 0.72119 0.95753 0.89013 0.0
C140 C 0.68917 0.96132 0.88918 0.0
C141 C 0.67142 0.94379 0.94459 0.0
C142 C 0.68517 0.9308 1.01255 0.0
C143 C 0.7163 0.9363 0.02483 0.0
C144 C 0.73458 0.945 0.96055 0.0
C145 C 0.76778 0.94577 0.98532 0.0
C146 C 0.76462 0.94132 0.07834 0.0
C147 C 0.73377 0.93974 0.10024 0.0
C148 C 0.78203 0.97728 0.96238 0.0
C149 C 0.78433 0.91904 0.94175 0.0
C150 C 0.67044 0.98661 0.32614 0.0
C151 C 0.67516 0.99047 0.41027 0.0
C152 C 0.70653 0.99003 0.43643 0.0
C153 C 0.73153 0.98609 0.37997 0.0
C154 C 0.72557 0.98123 0.29622 0.0
C155 C 0.69493 0.97929 0.27353 0.0
C156 C 0.69066 0.96104 0.19708 0.0
C157 C 0.72372 0.95423 0.17329 0.0
C158 C 0.74494 0.96795 0.22767 0.0
C159 C 0.67311 0.98134 0.13438 0.0
C160 C 0.67373 0.93073 0.21962 0.0
H161 H 0.83076 0.9137 0.05461 0.0
H162 H 0.86338 0.01781 0.14595 0.0
H163 H 0.83787 1.00451 0.30886 0.0
H164 H 0.82223 0.96636 0.32031 0.0
H165 H 0.79986 0.99956 0.34859 0.0
H166 H 0.78394 0.0259 0.13346 0.0
H167 H 0.81198 0.04151 0.20315 0.0
H168 H 0.77401 0.03187 0.23883 0.0
H169 H 0.7352 0.96729 0.84239 0.0
H170 H 0.64658 0.94371 0.94261 0.0
H171 H 0.67066 0.92015 0.05701 0.0
H172 H 0.76966 0.99632 0.99339 0.0
H173 H 0.78114 0.98117 0.89565 0.0
H174 H 0.80658 0.97879 0.97876 0.0
H175 H 0.77542 0.91587 0.87878 0.0
H176 H 0.78104 0.89705 0.97504 0.0
H177 H 0.80917 0.92364 0.93425 0.0
H178 H 0.8788 0.93538 1.0019 0.0
C179 C 0.83765 0.93664 0.07228 0.0
C180 C 0.52197 0.71868 0.35489 0.0
C181 C 0.54093 0.70059 0.40832 0.0
C182 C 0.57161 0.71014 0.41999 0.0
C183 C 0.56698 0.74602 0.30909 0.0
C184 C 0.53572 0.74294 0.30822 0.0
C185 C 0.52263 0.76586 0.24535 0.0
H186 H 0.54846 0.84536 0.8912 0.0
C187 C 0.57687 0.76246 0.23611 0.0
C188 C 0.55201 0.77955 0.20591 0.0
H189 H 0.5117 0.89449 0.09801 0.0
H190 H 0.52063 0.84878 0.18465 0.0
H191 H 0.60525 0.83922 0.99511 0.0
H192 H 0.53709 0.77028 0.93951 0.0
H193 H 0.57353 0.7536 0.92815 0.0
H194 H 0.56295 0.78558 0.86461 0.0
H195 H 0.6036 0.82078 0.89721 0.0
H196 H 0.62493 0.80469 0.98124 0.0
C197 C 0.50384 0.79082 0.28861 0.0
C198 C 0.50299 0.74874 0.18184 0.0
C199 C 0.6485 0.69536 0.07481 0.0
C200 C 0.64928 0.69017 0.99012 0.0
C201 C 0.64347 0.71596 0.93957 0.0
C202 C 0.62977 0.74253 0.9712 0.0
C203 C 0.62213 0.74361 0.05417 0.0
C204 C 0.63292 0.72096 0.10528 0.0
C205 C 0.61921 0.72279 0.18902 0.0
C206 C 0.59953 0.75174 0.18091 0.0
C207 C 0.60016 0.76271 0.10046 0.0
C208 C 0.64521 0.72582 0.25296 0.0
C209 C 0.59933 0.69341 0.20164 0.0
C210 C 0.5414 0.84666 0.95431 0.0
C211 C 0.52827 0.87398 0.9852 0.0
C212 C 0.52062 0.87384 0.0699 0.0
C213 C 0.5254 0.84742 0.12012 0.0
C214 C 0.53929 0.82098 0.08718 0.0
C215 C 0.54916 0.82225 1.00699 0.0
C216 C 0.57407 0.79908 0.99069 0.0
C217 C 0.57803 0.78452 0.07418 0.0
C218 C 0.55529 0.79471 0.12833 0.0
C219 C 0.60352 0.81656 0.96392 0.0
C220 C 0.56158 0.7759 0.92707 0.0
H221 H 0.60834 0.7395 0.3793 0.0
H222 H 0.49788 0.71326 0.34758 0.0
H223 H 0.51667 0.73046 0.15148 0.0
H224 H 0.49469 0.7649 0.13437 0.0
H225 H 0.4827 0.73788 0.2111 0.0
H226 H 0.51853 0.80421 0.33129 0.0
H227 H 0.48479 0.78027 0.32397 0.0
H228 H 0.49367 0.80687 0.24366 0.0
H229 H 0.65503 0.67785 0.1176 0.0
H230 H 0.64601 0.71476 0.87427 0.0
H231 H 0.62333 0.75995 0.92839 0.0
H232 H 0.66771 0.71793 0.22888 0.0
H233 H 0.64072 0.71127 0.30708 0.0
H234 H 0.64823 0.75006 0.27293 0.0
H235 H 0.58061 0.69219 0.15561 0.0
H236 H 0.58881 0.69212 0.26224 0.0
H237 H 0.61322 0.67215 0.19663 0.0
H238 H 0.58617 0.69826 0.46319 0.0
C239 C 0.58462 0.73312 0.37116 0.0
C240 C 0.37192 0.50353 0.22986 0.0
C241 C 0.38152 0.51981 0.30203 0.0
C242 C 0.36126 0.54169 0.33512 0.0
C243 C 0.32095 0.52427 0.24607 0.0
C244 C 0.3411 0.50743 0.20059 0.0
C245 C 0.32304 0.49274 0.12948 0.0
H246 H 0.1682 0.46479 1.01705 0.0
C247 C 0.28969 0.51452 0.22644 0.0
C248 C 0.28919 0.50153 0.1482 0.0
H249 H 0.22356 0.52707 0.87533 0.0
H250 H 0.2668 0.52042 0.97151 0.0
H251 H 0.2298 0.41772 0.09462 0.0
H252 H 0.16334 0.47605 0.15032 0.0
H253 H 0.18807 0.49652 0.21813 0.0
H254 H 0.17514 0.45782 0.23892 0.0
H255 H 0.18901 0.41788 0.11249 0.0
H256 H 0.21563 0.41381 0.19551 0.0
C257 C 0.32757 0.45766 0.12892 0.0
C258 C 0.33322 0.50689 0.04829 0.0
C259 C 0.22756 0.4912 0.47468 0.0
C260 C 0.20007 0.47502 0.48318 0.0
C261 C 0.19363 0.45033 0.43011 0.0
C262 C 0.21105 0.4471 0.35843 0.0
C263 C 0.23332 0.46954 0.34102 0.0
C264 C 0.24315 0.4891 0.40171 0.0
C265 C 0.26752 0.51095 0.37498 0.0
C266 C 0.26987 0.50203 0.28586 0.0
C267 C 0.24906 0.47848 0.26577 0.0
C268 C 0.29683 0.50439 0.42612 0.0
C269 C 0.25549 0.54431 0.3844 0.0
C270 C 0.18966 0.47664 1.00561 0.0
C271 C 0.1923 0.4955 0.93648 0.0
C272 C 0.22079 0.51118 0.92516 0.0
C273 C 0.24576 0.50761 0.98056 0.0
C274 C 0.24222 0.4888 0.04937 0.0
C275 C 0.21401 0.47471 0.06245 0.0
C276 C 0.21222 0.46087 0.14626 0.0
C277 C 0.24263 0.47209 0.18293 0.0
C278 C 0.26206 0.48489 0.12327 0.0
C279 C 0.21153 0.4256 0.13707 0.0
C280 C 0.18344 0.47353 0.19112 0.0
H281 H 0.31616 0.56032 0.33619 0.0
H282 H 0.38737 0.48774 0.19979 0.0
H283 H 0.32876 0.53205 0.04772 0.0
H284 H 0.32056 0.49622 0.99666 0.0
H285 H 0.35819 0.50332 0.03893 0.0
H286 H 0.32035 0.44759 0.18811 0.0
H287 H 0.35207 0.45182 0.11838 0.0
H288 H 0.31369 0.44686 0.07973 0.0
H289 H 0.23371 0.50933 0.51717 0.0
H290 H 0.17317 0.4365 0.43838 0.0
H291 H 0.20522 0.42916 0.31623 0.0
H292 H 0.31284 0.48887 0.39324 0.0
H293 H 0.29145 0.49312 0.48518 0.0
H294 H 0.30895 0.52582 0.44359 0.0
H295 H 0.26732 0.56059 0.34345 0.0
H296 H 0.25811 0.55255 0.44813 0.0
H297 H 0.23074 0.54574 0.36788 0.0
H298 H 0.36815 0.5556 0.38688 0.0
C299 C 0.33123 0.54427 0.30669 0.0
C300 C 0.04655 0.21801 0.53994 0.0
C301 C 0.03537 0.18796 0.5438 0.0
C302 C 0.04649 0.16586 0.48859 0.0
C303 C 0.06782 0.20676 0.40728 0.0
C304 C 0.06236 0.22723 0.47003 0.0
C305 C 0.06905 0.25977 0.44624 0.0
H306 H 0.02794 0.368 0.24624 0.0
C307 C 0.0729 0.2246 0.33213 0.0
C308 C 0.07595 0.25542 0.35515 0.0
H309 H 0.09545 0.36771 0.44137 0.0
H310 H 0.11183 0.3166 0.39792 0.0
H311 H 0.08729 0.31706 0.12119 0.0
H312 H 1.00091 0.29317 0.23878 0.0
H313 H 1.00575 0.28394 0.13258 0.0
H314 H 1.00163 0.32343 0.16385 0.0
H315 H 0.05312 0.33829 0.09621 0.0
H316 H 0.05785 0.29964 0.06053 0.0
C317 C 0.09678 0.27108 0.49716 0.0
C318 C 0.04005 0.27974 0.46131 0.0
C319 C 0.04738 0.17019 0.06687 0.0
C320 C 0.03814 0.17913 0.98865 0.0
C321 C 0.03397 0.21116 0.9748 0.0
C322 C 0.03937 0.23344 0.03757 0.0
C323 C 0.04902 0.22383 0.11553 0.0
C324 C 0.05241 0.1924 0.12831 0.0
C325 C 0.06022 0.18505 0.21483 0.0
C326 C 0.06467 0.21708 0.25046 0.0
C327 C 0.05763 0.24057 0.19347 0.0
C328 C 0.09057 0.16664 0.21652 0.0
C329 C 0.03239 0.16748 0.25257 0.0
C330 C 0.04542 0.35659 0.28184 0.0
C331 C 0.05868 0.37158 0.35237 0.0
C332 C 0.08344 0.35673 0.39132 0.0
C333 C 0.09227 0.32712 0.36914 0.0
C334 C 0.07503 0.31122 0.3115 0.0
C335 C 0.05489 0.32589 0.26122 0.0
C336 C 0.04658 0.30347 0.19076 0.0
C337 C 0.06079 0.2725 0.21959 0.0
C338 C 0.07468 0.27846 0.29521 0.0
C339 C 0.06204 0.31518 0.11253 0.0
C340 C 0.01163 0.30086 0.18083 0.0
H341 H 0.07002 0.15806 0.37691 0.0
H342 H 0.03901 0.23477 0.58433 0.0
H343 H 0.02005 0.27041 0.42704 0.0
H344 H 0.04329 0.30395 0.44328 0.0
H345 H 0.03408 0.2807 0.52692 0.0
H346 H 0.09771 0.2597 0.55774 0.0
H347 H 0.09517 0.29595 0.51126 0.0
H348 H 0.11881 0.26625 0.46559 0.0
H349 H 0.05007 0.14599 0.08064 0.0
H350 H 0.02636 0.21892 0.91555 0.0
H351 H 0.03541 0.25732 0.0246 0.0
H352 H 0.10773 0.17701 0.17448 0.0
H353 H 0.08673 0.14242 0.1974 0.0
H354 H 0.10138 0.16667 0.2775 0.0
H355 H 0.01341 0.16356 0.20835 0.0
H356 H 0.02171 0.18052 0.30323 0.0
H357 H 0.03897 0.14428 0.27442 0.0
H358 H 0.03902 0.14218 0.49317 0.0
C359 C 0.06329 0.17521 0.42022 0.0
C360 C 0.30789 0.02886 0.98196 0.0
C361 C 0.34036 0.03614 0.97606 0.0
C362 C 0.35372 0.05117 0.04364 0.0
C363 C 0.30383 0.06234 0.09928 0.0
C364 C 0.29021 0.04112 0.0491 0.0
C365 C 0.25733 0.03443 0.0831 0.0
H366 H 0.1687 0.06023 0.44028 0.0
C367 C 0.28157 0.07432 0.15686 0.0
C368 C 0.25524 0.05586 0.15916 0.0
H369 H 0.133 1.01366 0.22877 0.0
H370 H 0.18275 0.02199 0.15696 0.0
H371 H 0.23702 0.04282 0.44253 0.0
H372 H 0.19129 0.11812 0.32096 0.0
H373 H 0.2203 0.13134 0.38822 0.0
H374 H 0.18881 0.11057 0.42839 0.0
H375 H 0.22695 0.07731 0.49618 0.0
H376 H 0.26265 0.0741 0.44069 0.0
C377 C 0.2545 1.0005 0.10754 0.0
C378 C 0.2331 0.04315 0.01927 0.0
C379 C 0.31363 0.17116 0.29494 0.0
C380 C 0.32115 0.17152 0.37844 0.0
C381 C 0.29993 0.15751 0.43243 0.0
C382 C 0.27834 0.13639 0.40324 0.0
C383 C 0.27694 0.13035 0.31949 0.0
C384 C 0.29425 0.14787 0.26594 0.0
C385 C 0.29654 0.13231 0.18382 0.0
C386 C 0.28443 0.10044 0.20618 0.0
C387 C 0.26737 0.10212 0.27701 0.0
C388 C 0.32933 0.13352 0.14897 0.0
C389 C 0.27419 0.14781 0.12387 0.0
C390 C 0.17129 0.05131 0.379 0.0
C391 C 0.14672 0.03593 0.34191 0.0
C392 C 0.15153 0.02518 0.26056 0.0
C393 C 0.18016 0.02995 0.21887 0.0
C394 C 0.20398 0.0466 0.25736 0.0
C395 C 0.19823 0.05785 0.33533 0.0
C396 C 0.22156 0.08079 0.36263 0.0
C397 C 0.24275 0.0814 0.28982 0.0
C398 C 0.23424 0.05996 0.22808 0.0
C399 C 0.23786 0.06837 0.4398 0.0
C400 C 0.20485 0.1119 0.37594 0.0
H401 H 0.34678 0.07431 0.15703 0.0
H402 H 0.29681 0.01488 0.93595 0.0
H403 H 0.23572 0.06766 1.00136 0.0
H404 H 0.20959 0.03991 0.04371 0.0
H405 H 0.23559 0.0287 0.9638 0.0
H406 H 0.27225 0.99454 0.1535 0.0
H407 H 0.25764 0.98538 0.05359 0.0
H408 H 0.23158 0.99573 0.13424 0.0
H409 H 0.32684 0.18436 0.25215 0.0
H410 H 0.30287 0.15882 0.4978 0.0
H411 H 0.26567 0.12335 0.44736 0.0
H412 H 0.33663 0.15761 0.13784 0.0
H413 H 0.33041 0.12225 0.08852 0.0
H414 H 0.34592 0.12317 0.19204 0.0
H415 H 0.25033 0.14777 0.14802 0.0
H416 H 0.2741 0.13541 0.0646 0.0
H417 H 0.28107 0.17207 0.1128 0.0
H418 H 0.37835 0.05458 0.04673 0.0
C419 C 0.33572 0.06377 0.10526 0.0
C420 C 0.51667 0.3386 1.00653 0.0
C421 C 0.50844 0.37044 0.99846 0.0
C422 C 0.49168 0.38398 0.06196 0.0
C423 C 0.48924 0.33572 0.13596 0.0
C424 C 0.50693 0.32159 0.07709 0.0
C425 C 0.51284 0.28781 0.10167 0.0
H426 H 0.47761 0.17499 0.39496 0.0
C427 C 0.47982 0.31277 0.19764 0.0
C428 C 0.49323 0.28395 0.17952 0.0
H429 H 0.5427 0.16167 0.20135 0.0
H430 H 0.53183 0.2142 0.14956 0.0
H431 H 0.48791 0.22669 0.46152 0.0
H432 H 0.43012 0.20413 0.2732 0.0
H433 H 0.41051 0.2345 0.31968 0.0
H434 H 0.42273 0.20205 0.38076 0.0
H435 H 0.4482 0.23226 0.47891 0.0
H436 H 0.47283 0.264 0.45174 0.0
C437 C 0.54721 0.2839 0.12018 0.0
C438 C 0.50202 0.26595 0.03384 0.0
C439 C 0.42527 0.34666 0.45314 0.0
C440 C 0.41504 0.32918 0.52052 0.0
C441 C 0.40528 0.29878 0.50635 0.0
C442 C 0.4132 0.28396 0.43376 0.0
C443 C 0.43016 0.30016 0.37499 0.0
C444 C 0.4327 0.33154 0.38067 0.0
C445 C 0.4484 0.3451 0.30732 0.0
C446 C 0.45927 0.31599 0.26413 0.0
C447 C 0.44949 0.29003 0.3065 0.0
C448 C 0.47581 0.3652 0.3365 0.0
C449 C 0.42374 0.36275 0.25748 0.0
C450 C 0.49023 0.18334 0.34247 0.0
C451 C 0.51137 0.16426 0.30401 0.0
C452 C 0.5265 0.17604 0.23364 0.0
C453 C 0.52039 0.20647 0.20393 0.0
C454 C 0.49901 0.22541 0.24495 0.0
C455 C 0.48461 0.21305 0.31307 0.0
C456 C 0.46057 0.23345 0.34714 0.0
C457 C 0.46438 0.26161 0.29434 0.0
C458 C 0.48666 0.25777 0.23235 0.0
C459 C 0.46752 0.23948 0.43922 0.0
C460 C 0.42922 0.21782 0.33043 0.0
H461 H 0.46958 0.37944 0.17452 0.0
H462 H 0.52985 0.3274 0.95923 0.0
H463 H 0.47743 0.27007 0.01941 0.0
H464 H 0.5045 0.24163 0.05262 0.0
H465 H 0.51566 0.26955 0.97747 0.0
H466 H 0.55473 0.30071 0.16727 0.0
H467 H 0.56111 0.28779 0.06437 0.0
H468 H 0.55232 0.26064 0.14331 0.0
H469 H 0.43149 0.37064 0.45976 0.0
H470 H 0.39438 0.28553 0.55386 0.0
H471 H 0.40754 0.2601 0.42868 0.0
H472 H 0.48835 0.35363 0.38689 0.0
H473 H 0.46781 0.38786 0.35932 0.0
H474 H 0.49313 0.36926 0.28864 0.0
H475 H 0.42454 0.35681 0.19177 0.0
H476 H 0.42635 0.38802 0.2645 0.0
H477 H 0.39992 0.35693 0.2767 0.0
H478 H 0.48539 0.40805 0.05866 0.0
C479 C 0.48211 0.36706 0.12935 0.0
Eu480 Eu 0.97536 0.03021 0.62957 0.0
C481 C 0.11106 0.03718 0.76458 0.0
N482 N 0.09638 0.01585 0.71826 0.0
C483 C 0.13896 0.01537 0.62508 0.0
C484 C 0.13958 0.0497 0.7406 0.0
C485 C 0.11107 1.00323 0.65257 0.0
C486 C 0.15298 0.03921 0.66833 0.0
C487 C 0.11402 0.06528 0.89197 0.0
C488 C 0.09864 0.04477 0.8392 0.0
C489 C 0.14164 0.079 0.86673 0.0
C490 C 0.15437 0.07126 0.79107 0.0
Eu491 Eu 0.04697 0.99936 0.76469 0.0
N492 N 0.07197 0.03114 0.86155 0.0
C493 C 0.10141 0.07098 0.96893 0.0
C494 C 0.06043 0.03523 0.93821 0.0
C495 C 0.07468 0.05557 0.99252 0.0
H496 H 0.10123 0.98389 0.62038 0.0
H497 H 0.06502 0.0594 0.0524 0.0
H498 H 0.92025 0.97685 0.6016 0.0
H499 H 0.01948 0.10721 0.39183 0.0
H500 H 0.03961 0.0235 0.95623 0.0
H501 H 0.11242 0.08672 1.01107 0.0
H502 H 1.00259 0.09336 0.53129 0.0
H503 H 0.14979 1.00606 0.57109 0.0
H504 H 0.15364 0.09508 0.90597 0.0
H505 H 0.17611 0.08136 0.77327 0.0
H506 H 0.90194 0.94214 0.49138 0.0
H507 H 0.17476 0.04833 0.64748 0.0
H508 H 0.01316 0.0701 0.27908 0.0
N509 N 0.95405 0.99815 0.52729 0.0
C510 C 0.96452 1.00278 0.45039 0.0
C511 C 0.91981 0.95884 0.47926 0.0
C512 C 0.95476 0.98375 0.38573 0.0
C513 C 0.93008 0.97846 0.54125 0.0
C514 C 0.93288 0.96088 0.4017 0.0
N515 N 0.98828 0.04831 0.4974 0.0
C516 C 0.99977 0.07703 0.48204 0.0
C517 C 0.99137 0.03562 0.35472 0.0
C518 C 0.98242 0.02854 0.4351 0.0
C519 C 1.00589 0.06381 0.33994 0.0
C520 C 1.0094 0.08491 0.4035 0.0
H521 H 0.92481 0.94576 0.35368 0.0
H522 H 0.95905 0.97453 0.25655 0.0
H523 H 0.9912 0.01995 0.22927 0.0
O524 O 0.94057 0.05873 0.57065 0.0
O525 O 0.98506 0.97906 0.60592 0.0
O526 O 0.0261 0.96174 0.6824 0.0
O527 O 0.93232 0.04144 0.69049 0.0
O528 O 0.02488 0.04607 0.6046 0.0
O529 O 0.04911 1.00133 0.62581 0.0
O530 O 0.04332 0.96778 0.86633 0.0
O531 O 0.03437 0.04961 0.79234 0.0
O532 O 0.99643 0.06955 0.70751 0.0
O533 O 0.08154 0.96333 0.78524 0.0
O534 O 1.00189 1.00664 0.83746 0.0
O535 O 0.96161 1.00331 0.74602 0.0
C536 C 1.0044 0.95724 0.62728 0.0
C537 C 0.91405 0.09089 0.66167 0.0
C538 C 0.92616 0.1453 0.67183 0.0
C539 C 0.89823 0.15063 0.71166 0.0
C540 C 0.88628 0.09606 0.70261 0.0
C541 C 0.87849 0.12588 0.72777 0.0
C542 C 0.93392 0.11551 0.64775 0.0
C543 C 0.04638 0.02651 0.58295 0.0
C544 C 0.92293 0.06002 0.6343 0.0
C545 C 0.96575 0.98929 0.30669 0.0
C546 C 0.98407 0.01517 0.29121 0.0
C547 C 0.01647 0.0724 0.76836 0.0
C548 C 0.05666 0.91778 0.82711 0.0
C549 C 0.01657 0.8799 0.79817 0.0
C550 C 0.0384 0.85636 0.80565 0.0
C551 C 0.07819 0.89409 0.83451 0.0
C552 C 0.02624 0.91048 0.8061 0.0
C553 C 0.0691 0.8635 0.82285 0.0
C554 C 0.97214 1.00379 0.82199 0.0
C555 C 0.06534 0.9501 0.8416 0.0
H556 H 0.89166 0.1737 0.72917 0.0
H557 H 0.87071 0.07717 0.71489 0.0
H558 H 0.85696 0.12985 0.75885 0.0
H559 H 0.95562 0.11165 0.61701 0.0
H560 H 0.03169 0.83255 0.79907 0.0
H561 H 0.10187 0.89923 0.84965 0.0
H562 H 1.00933 0.92854 0.80012 0.0
H563 H 0.08576 0.84522 0.82873 0.0
Eu564 Eu 0.51392 0.05509 0.71206 0.0
C565 C 0.48244 0.93408 0.45956 0.0
N566 N 0.48313 0.96515 0.45805 0.0
C567 C 0.49334 0.96387 0.31419 0.0
C568 C 0.48817 0.91646 0.38891 0.0
C569 C 0.48735 0.9802 0.38592 0.0
C570 C 0.49426 0.93182 0.3159 0.0
C571 C 0.47037 0.88784 0.53414 0.0
C572 C 0.47369 0.92011 0.53062 0.0
C573 C 0.47767 0.86992 0.46555 0.0
C574 C 0.48656 0.88424 0.39288 0.0
Eu575 Eu 0.47743 0.99217 0.58343 0.0
N576 N 0.46625 0.93834 0.59455 0.0
C577 C 0.45882 0.87468 0.60546 0.0
C578 C 0.45324 0.92558 0.66252 0.0
C579 C 0.44978 0.89371 0.66948 0.0
H580 H 0.48681 1.00488 0.38326 0.0
H581 H 0.44006 0.88388 0.72425 0.0
H582 H 0.44527 0.09574 0.69147 0.0
H583 H 0.63124 0.0998 0.68818 0.0
H584 H 0.4458 0.93971 0.71271 0.0
H585 H 0.45592 0.85002 0.61075 0.0
H586 H 0.59101 0.06314 0.72705 0.0
H587 H 0.49729 0.97604 0.2577 0.0
H588 H 0.4756 0.8451 0.46732 0.0
H589 H 0.49124 0.87027 0.3396 0.0
H590 H 0.4287 0.14549 0.64145 0.0
H591 H 0.49878 0.91918 0.26026 0.0
H592 H 0.61693 0.14965 0.62718 0.0
N593 N 0.49331 0.10387 0.67122 0.0
C594 C 0.51465 0.12524 0.64794 0.0
C595 C 0.45289 0.13999 0.64251 0.0
C596 C 0.50554 0.15436 0.61846 0.0
C597 C 0.46271 0.11149 0.67147 0.0
C598 C 0.47429 0.16135 0.61492 0.0
N599 N 0.55431 0.09008 0.68296 0.0
C600 C 0.58448 0.08401 0.69792 0.0
C601 C 0.56812 0.14028 0.63221 0.0
C602 C 0.54577 0.11809 0.65364 0.0
C603 C 0.59916 0.13325 0.64306 0.0
C604 C 0.60734 0.10513 0.67713 0.0
H605 H 0.46648 0.18339 0.59235 0.0
H606 H 0.52111 0.19818 0.57113 0.0
H607 H 0.57583 0.18602 0.58419 0.0
O608 O 0.52922 0.08732 0.80563 0.0
O609 O 0.49709 0.0694 0.58626 0.0
O610 O 0.50575 0.02742 0.5078 0.0
O611 O 0.5053 0.04634 0.84148 0.0
O612 O 0.55323 0.03033 0.64169 0.0
O613 O 0.53059 0.9908 0.56729 0.0
O614 O 0.45015 0.03376 0.57607 0.0
O615 O 0.48916 0.97469 0.70942 0.0
O616 O 0.52941 1.00542 0.74984 0.0
O617 O 0.43136 0.9904 0.52793 0.0
O618 O 0.45493 0.99684 0.7115 0.0
O619 O 0.46172 0.04788 0.72652 0.0
C620 C 0.5057 0.05763 0.51655 0.0
C621 C 0.54691 0.06283 0.92121 0.0
C622 C 0.59821 0.04171 0.93686 0.0
C623 C 0.59859 0.05171 0.01832 0.0
C624 C 0.54745 0.07312 1.00203 0.0
C625 C 0.57324 0.06733 0.05065 0.0
C626 C 0.57209 0.04705 0.88968 0.0
C627 C 0.55544 1.00679 0.58964 0.0
C628 C 0.52151 0.06981 0.86605 0.0
C629 C 0.52778 0.17586 0.59432 0.0
C630 C 0.55895 0.16893 0.60171 0.0
C631 C 0.51281 0.97978 0.75672 0.0
C632 C 0.3991 0.0364 0.51967 0.0
C633 C 0.37383 0.08446 0.48551 0.0
C634 C 0.34588 0.06867 0.47699 0.0
C635 C 0.37106 0.02079 0.51065 0.0
C636 C 0.40029 0.06839 0.50805 0.0
C637 C 0.34452 0.03698 0.48998 0.0
C638 C 0.44588 0.02301 0.74477 0.0
C639 C 0.42699 0.01964 0.54275 0.0
H640 H 0.61838 0.0474 0.05659 0.0
H641 H 0.52818 0.08565 0.02712 0.0
H642 H 0.57368 0.07513 0.11328 0.0
H643 H 0.5711 0.03832 0.82817 0.0
H644 H 0.32532 0.08081 0.45861 0.0
H645 H 0.36964 0.99619 0.52018 0.0
H646 H 0.42183 0.08074 0.51409 0.0
H647 H 0.32292 0.02489 0.48302 0.0
Eu648 Eu 0.55271 0.50775 0.59929 0.0
C649 C 0.41545 0.53456 0.72554 0.0
N650 N 0.43777 0.55153 0.68951 0.0
C651 C 0.40096 0.57299 0.59741 0.0
C652 C 0.38507 0.53492 0.69603 0.0
C653 C 0.43066 0.5721 0.62992 0.0
C654 C 0.37819 0.55381 0.62948 0.0
C655 C 0.39973 0.50247 0.83858 0.0
C656 C 0.42266 0.51868 0.79577 0.0
C657 C 0.36977 0.50119 0.80695 0.0
C658 C 0.36244 0.51741 0.73577 0.0
Eu659 Eu 0.48827 0.54495 0.7392 0.0
N660 N 0.45163 0.52102 0.82536 0.0
C661 C 0.40742 0.48893 0.91314 0.0
C662 C 0.45866 0.50982 0.90085 0.0
C663 C 0.43682 0.49322 0.94529 0.0
H664 H 0.44804 0.58747 0.60697 0.0
H665 H 0.44275 0.48358 1.00393 0.0
H666 H 0.60992 0.48115 0.72212 0.0
H667 H 0.56792 0.53778 0.28 0.0
H668 H 0.48142 0.51306 0.92571 0.0
H669 H 0.39065 0.4758 0.94723 0.0
H670 H 0.5412 0.51548 0.39957 0.0
H671 H 0.39563 0.58858 0.54809 0.0
H672 H 0.35189 0.4886 0.83852 0.0
H673 H 0.33901 0.51708 0.71352 0.0
H674 H 0.66531 0.49029 0.74311 0.0
H675 H 0.35515 0.55469 0.60466 0.0
H676 H 0.62123 0.55708 0.2941 0.0
N677 N 0.60713 0.50917 0.61666 0.0
C678 C 0.62322 0.52442 0.55873 0.0
C679 C 0.65371 0.50035 0.69133 0.0
C680 C 0.65501 0.52979 0.56686 0.0
C681 C 0.62227 0.49532 0.67956 0.0
C682 C 0.67004 0.51833 0.63572 0.0
N683 N 0.57859 0.52329 0.47985 0.0
C684 C 0.56444 0.52393 0.40585 0.0
C685 C 0.62469 0.54432 0.42126 0.0
C686 C 0.60838 0.53163 0.48731 0.0
C687 C 0.60956 0.54741 0.34644 0.0
C688 C 0.57951 0.53646 0.33821 0.0
H689 H 0.69444 0.52197 0.64442 0.0
H690 H 0.69514 0.55013 0.51025 0.0
H691 H 0.66859 0.5626 0.38189 0.0
O692 O 0.52321 0.47019 0.56098 0.0
O693 O 0.5472 0.55871 0.56327 0.0
O694 O 0.50592 0.57782 0.63757 0.0
O695 O 0.5724 0.46725 0.53995 0.0
O696 O 0.5094 0.52419 0.53084 0.0
O697 O 0.46994 0.52068 0.6236 0.0
O698 O 0.50302 0.5918 0.75941 0.0
O699 O 0.50176 0.49709 0.78515 0.0
O700 O 0.54099 0.47619 0.70825 0.0
O701 O 0.46871 0.57224 0.83937 0.0
O702 O 0.53161 0.53569 0.81378 0.0
O703 O 0.57081 0.52416 0.72378 0.0
C704 C 0.52795 0.58122 0.58209 0.0
C705 C 0.54565 0.4224 0.58372 0.0
C706 C 0.51208 0.38245 0.63779 0.0
C707 C 0.53376 0.37647 0.69915 0.0
C708 C 0.56778 0.41504 0.64289 0.0
C709 C 0.56202 0.3917 0.6992 0.0
C710 C 0.51894 0.40449 0.57795 0.0
C711 C 0.47989 0.52124 0.54765 0.0
C712 C 0.54625 0.45236 0.5419 0.0
C713 C 0.6709 0.545 0.50421 0.0
C714 C 0.65577 0.55216 0.43122 0.0
C715 C 0.52046 0.47419 0.76753 0.0
C716 C 0.50542 0.60629 0.89802 0.0
C717 C 0.55403 0.62334 0.9576 0.0
C718 C 0.53795 0.63459 0.02552 0.0
C719 C 0.48981 0.61761 0.96641 0.0
C720 C 0.53774 0.60798 0.89579 0.0
C721 C 0.50609 0.63127 0.03035 0.0
C722 C 0.56088 0.5311 0.79764 0.0
C723 C 0.48778 0.59489 0.8272 0.0
H724 H 0.52882 0.36002 0.74687 0.0
H725 H 0.58861 0.42849 0.64899 0.0
H726 H 0.57877 0.38666 0.74601 0.0
H727 H 0.50192 0.40992 0.53189 0.0
H728 H 0.54999 0.6465 0.07402 0.0
H729 H 0.465 0.61639 0.96966 0.0
H730 H 0.55022 0.59919 0.84369 0.0
H731 H 0.49389 0.64015 0.08272 0.0
Eu732 Eu 0.03008 0.54742 0.62761 0.0
C733 C 0.03074 0.40817 0.72248 0.0
N734 N 1.00588 0.42643 0.71347 0.0
C735 C 0.98038 0.38686 0.6369 0.0
C736 C 0.03217 0.37899 0.68522 0.0
C737 C 0.98007 0.41555 0.6756 0.0
C738 C 1.00686 0.36881 0.6399 0.0
C739 C 0.0778 0.39777 0.79515 0.0
C740 C 0.05321 0.41752 0.77598 0.0
C741 C 0.08077 0.36969 0.75344 0.0
C742 C 0.05798 0.36032 0.69826 0.0
Eu743 Eu 1.00786 0.47634 0.77197 0.0
N744 N 0.04909 0.44445 0.81601 0.0
C745 C 0.09756 0.40605 0.85877 0.0
C746 C 0.06681 0.45136 0.88242 0.0
C747 C 0.09156 0.43259 0.90395 0.0
H748 H 0.95974 0.42971 0.67241 0.0
H749 H 0.10601 0.43866 0.95517 0.0
H750 H 0.97205 0.59673 0.65273 0.0
H751 H 0.09419 0.52224 0.34803 0.0
H752 H 0.06205 0.47158 0.91862 0.0
H753 H 0.11668 0.3915 0.87565 0.0
H754 H 0.08615 0.52571 0.49671 0.0
H755 H 0.96027 0.37876 0.60456 0.0
H756 H 0.0998 0.35444 0.76619 0.0
H757 H 0.05979 0.33802 0.66915 0.0
H758 H 0.93443 0.62508 0.56874 0.0
H759 H 1.00703 0.34656 0.61013 0.0
H760 H 0.05573 0.54367 0.25364 0.0
N761 N 0.99413 0.57615 0.55119 0.0
C762 C 0.99687 0.57523 0.46895 0.0
C763 C 0.95172 0.61095 0.53986 0.0
C764 C 0.97613 0.59122 0.41847 0.0
C765 C 0.97295 0.59485 0.58725 0.0
C766 C 0.95305 0.60881 0.45504 0.0
N767 N 0.04205 0.54622 0.48635 0.0
C768 C 0.06873 0.53435 0.45603 0.0
C769 C 0.02557 0.55895 0.35028 0.0
C770 C 0.02133 0.55942 0.43546 0.0
C771 C 0.05172 0.54467 0.31874 0.0
C772 C 0.07356 0.53263 0.37194 0.0
H773 H 0.93664 0.62137 0.4184 0.0
H774 H 0.96359 0.60153 0.29369 0.0
H775 H 1.00707 0.57319 0.23405 0.0
O776 O 0.05356 0.58912 0.58656 0.0
O777 O 0.97954 0.53358 0.61253 0.0
O778 O 0.96687 0.49096 0.69098 0.0
O779 O 0.05039 0.57963 0.71424 0.0
O780 O 0.04653 0.50036 0.58129 0.0
O781 O 0.01209 0.46595 0.63504 0.0
O782 O 0.96174 0.47554 0.82126 0.0
O783 O 0.05107 0.50473 0.80128 0.0
O784 O 0.07021 0.51749 0.67697 0.0
O785 O 0.9978 0.45328 0.88808 0.0
O786 O 0.01655 0.52275 0.8361 0.0
O787 O 1.00025 0.55598 0.73977 0.0
C788 C 0.95976 0.51229 0.63644 0.0
C789 C 0.09655 0.59928 0.66598 0.0
C790 C 0.14561 0.57533 0.63874 0.0
C791 C 0.16085 0.60178 0.66669 0.0
C792 C 0.11145 0.62553 0.69597 0.0
C793 C 0.14368 0.62666 0.69655 0.0
C794 C 0.11376 0.5744 0.63948 0.0
C795 C 0.03193 0.47374 0.57806 0.0
C796 C 0.06324 0.5966 0.65896 0.0
C797 C 0.97951 0.58971 0.33349 0.0
C798 C 1.00417 0.57355 0.2995 0.0
C799 C 0.07483 0.50991 0.75399 0.0
C800 C 0.96256 0.48332 0.96197 0.0
C801 C 0.94613 0.53304 1.01414 0.0
C802 C 0.94313 0.51997 0.09217 0.0
C803 C 0.95919 0.47042 0.03954 0.0
C804 C 0.95769 0.51493 0.95121 0.0
C805 C 0.95003 0.48893 0.10483 0.0
C806 C 1.00814 0.55081 0.81602 0.0
C807 C 0.97013 0.46423 0.89095 0.0
H808 H 0.18566 0.60324 0.66466 0.0
H809 H 0.09834 0.64503 0.71752 0.0
H810 H 0.15534 0.64704 0.71866 0.0
H811 H 0.10229 0.55463 0.61385 0.0
H812 H 0.93457 0.53343 0.14279 0.0
H813 H 0.9633 0.44616 0.04928 0.0
H814 H 0.96006 0.5251 0.89155 0.0
H815 H 0.9473 0.479 0.16481 0.0
C816 C 0.10149 1.00583 0.4077 0.0
C817 C 0.11628 0.03417 0.38918 0.0
C818 C 0.08231 0.05957 0.49105 0.0
C819 C 0.0672 0.03119 0.50841 0.0
N820 N 0.05454 0.98139 0.45372 0.0
N821 N 0.11183 0.0894 0.39336 0.0
C822 C 0.07442 1.00558 0.4576 0.0
C823 C 0.10376 0.06145 0.42463 0.0
N824 N 0.11384 0.97877 0.3816 0.0
N825 N 0.07748 0.08462 0.53938 0.0
H826 H 0.12622 0.09161 0.3429 0.0
H827 H 0.10151 0.1099 0.41129 0.0
H828 H 0.06177 0.08489 0.58691 0.0
H829 H 0.09069 0.10457 0.53555 0.0
H830 H 0.10554 0.95744 0.40056 0.0
H831 H 0.1339 0.97763 0.34724 0.0
H832 H 0.05711 0.96336 0.41236 0.0
H833 H 0.0336 0.98149 0.48443 0.0
C834 C 0.49095 0.11026 0.3296 0.0
C835 C 0.51522 0.13199 0.33882 0.0
C836 C 0.53833 0.09774 0.44261 0.0
C837 C 0.51117 0.07951 0.44522 0.0
N838 N 0.46306 0.06601 0.38332 0.0
N839 N 0.56293 0.14582 0.40281 0.0
C840 C 0.48809 0.08486 0.38541 0.0
C841 C 0.53942 0.12525 0.39414 0.0
N842 N 0.47048 0.11435 0.26743 0.0
N843 N 0.56355 0.08805 0.48452 0.0
H844 H 0.5648 0.16552 0.36701 0.0
H845 H 0.57985 0.14409 0.44731 0.0
H846 H 0.56351 0.06772 0.518 0.0
H847 H 0.5851 0.09828 0.47982 0.0
H848 H 0.45316 0.09892 0.25216 0.0
H849 H 0.47236 0.13251 0.22623 0.0
H850 H 0.44474 0.06844 0.34362 0.0
H851 H 0.46046 0.04752 0.42266 0.0
C852 C 0.41527 0.49054 0.40401 0.0
C853 C 0.41153 0.51537 0.34832 0.0
C854 C 0.45133 0.54411 0.42442 0.0
C855 C 0.4567 0.5188 0.47757 0.0
N856 N 0.44693 0.46542 0.50638 0.0
N857 N 0.4321 0.56227 0.29423 0.0
C858 C 0.43963 0.49122 0.46356 0.0
C859 C 0.43184 0.54079 0.35473 0.0
N860 N 0.39459 0.4669 0.403 0.0
N861 N 0.46266 0.57235 0.44398 0.0
H862 H 0.41815 0.56033 0.24272 0.0
H863 H 0.44827 0.57995 0.29126 0.0
H864 H 0.47575 0.57603 0.49586 0.0
H865 H 0.45663 0.59242 0.4134 0.0
H866 H 0.39354 0.45006 0.44796 0.0
H867 H 0.37728 0.46513 0.35934 0.0
H868 H 0.43796 0.44376 0.49311 0.0
H869 H 0.46392 0.46533 0.55101 0.0
C870 C 0.01923 0.40577 0.42763 0.0
C871 C 0.04849 0.40214 0.39029 0.0
C872 C 0.06726 0.4464 0.47236 0.0
C873 C 0.03758 0.45102 0.50759 0.0
N874 N 0.98328 0.441 0.49063 0.0
N875 N 0.09655 0.42644 0.35794 0.0
C876 C 0.01295 0.43252 0.47649 0.0
C877 C 0.07105 0.42515 0.40609 0.0
N878 N 0.99766 0.38314 0.42022 0.0
N879 N 0.09258 0.46027 0.50501 0.0
H880 H 0.09966 0.41156 0.30867 0.0
H881 H 0.11259 0.44421 0.36146 0.0
H882 H 0.09194 0.4746 0.55556 0.0
H883 H 0.11487 0.45487 0.48701 0.0
H884 H 0.9772 0.38314 0.4531 0.0
H885 H 1.00109 0.36326 0.38605 0.0
H886 H 0.96459 0.42995 0.46371 0.0
H887 H 0.9775 0.46113 0.5213 0.0
C888 C 0.93118 0.9777 0.0258 0.0
C889 C 0.90185 0.99189 1.0176 0.0
C890 C 0.92239 0.01964 0.89795 0.0
C891 C 0.94901 1.00067 0.89405 0.0
N892 N 0.98004 0.96355 0.96407 0.0
N893 N 0.86926 0.02523 0.93878 0.0
C894 C 0.95392 0.98055 0.96183 0.0
C895 C 0.89749 1.01262 0.9519 0.0
N896 N 0.93653 0.96034 0.09368 0.0
N897 N 0.92229 0.04661 0.85661 0.0
H898 H 0.85065 0.0216 0.9775 0.0
H899 H 0.86403 0.0377 0.88639 0.0
H900 H 0.94214 0.05421 0.82821 0.0
H901 H 0.90497 0.06299 0.86182 0.0
H902 H 0.9568 0.94874 0.10613 0.0
H903 H 0.92059 0.95874 0.14097 0.0
H904 H 0.98756 0.95079 1.01358 0.0
H905 H 0.99314 0.96023 0.91234 0.0
C906 C 0.54819 0.91027 0.87109 0.0
C907 C 0.52506 0.90267 0.92987 0.0
C908 C 0.49795 0.95016 0.88571 0.0
C909 C 0.51906 0.95506 0.82056 0.0
N910 N 0.55882 0.93249 0.73838 0.0
N911 N 0.47276 0.91246 0.97175 0.0
C912 C 0.54216 0.93259 0.80871 0.0
C913 C 0.49852 0.92194 0.93164 0.0
N914 N 0.5769 0.89801 0.8776 0.0
N915 N 0.47704 0.97241 0.90398 0.0
H916 H 0.47089 0.8909 0.99881 0.0
H917 H 0.452 0.92427 0.96889 0.0
H918 H 0.47622 0.99324 0.87286 0.0
H919 H 0.46284 0.9714 0.95499 0.0
H920 H 0.59478 0.90356 0.83802 0.0
H921 H 0.58395 0.88575 0.92874 0.0
H922 H 0.5739 0.91475 0.72363 0.0
H923 H 0.55592 0.94893 0.69285 0.0
C924 C 0.60816 0.51059 0.99142 0.0
C925 C 0.6337 0.53101 0.98651 0.0
C926 C 0.61112 0.55177 0.85786 0.0
C927 C 0.58457 0.53287 0.8666 0.0
N928 N 0.55521 0.49997 0.95693 0.0
N929 N 0.65555 0.57573 0.92066 0.0
C930 C 0.58217 0.51437 0.93841 0.0
C931 C 0.63406 0.5528 0.92091 0.0
N932 N 0.6095 0.48578 0.0422 0.0
N933 N 0.61418 0.56962 0.78983 0.0
H934 H 0.67068 0.57949 0.96865 0.0
H935 H 0.65636 0.59332 0.87792 0.0
H936 H 0.59641 0.57327 0.74845 0.0
H937 H 0.63475 0.57988 0.77232 0.0
H938 H 0.59319 0.4682 0.04165 0.0
H939 H 0.62861 0.48071 0.07782 0.0
H940 H 0.55125 0.48935 1.01282 0.0
H941 H 0.53593 0.50056 0.91996 0.0
C942 C 0.02595 0.60568 1.00266 0.0
C943 C 1.00722 0.63131 0.98386 0.0
C944 C 0.98446 0.60108 0.86969 0.0
C945 C 1.00636 0.57694 0.88027 0.0
N946 N 0.04902 0.55759 0.9618 0.0
N947 N 0.96789 0.65333 0.89972 0.0
C948 C 0.02702 0.57936 0.94891 0.0
C949 C 0.98641 0.62888 0.91708 0.0
N950 N 0.04243 0.60617 0.07352 0.0
N951 N 0.96028 0.59663 0.81783 0.0
H952 H 0.96571 0.67214 0.93868 0.0
H953 H 0.95557 0.65568 0.84579 0.0
H954 H 0.95477 0.57521 0.79327 0.0
H955 H 0.94319 0.61271 0.80684 0.0
H956 H 0.05309 0.58694 0.09829 0.0
H957 H 0.04298 0.62519 0.11219 0.0
H958 H 0.06743 0.5606 1.00147 0.0
H959 H 0.05089 0.53718 0.92995 0.0
C960 C 0.97921 0.18261 0.52928 0.0
C961 C 1.00497 0.18335 0.58183 0.0
C962 C 0.97109 0.17872 0.69946 0.0
C963 C 0.94718 0.17007 0.64599 0.0
N964 N 0.92528 0.1693 0.51211 0.0
N965 N 0.02593 0.18705 0.71701 0.0
C966 C 0.95005 0.17476 0.56122 0.0
C967 C 1.00104 0.18351 0.66735 0.0
N968 N 0.98369 0.18993 0.44945 0.0
N969 N 0.96481 0.18219 0.78024 0.0
H970 H 0.04818 0.18976 0.69457 0.0
H971 H 0.02479 0.18632 0.78011 0.0
H972 H 0.94283 0.17846 0.8035 0.0
H973 H 0.98021 0.19161 0.82186 0.0
H974 H 0.96638 0.1918 0.40594 0.0
H975 H 0.96638 0.1918 0.40594 0.0
H976 H 0.9262 0.16813 0.4489 0.0
H977 H 0.90351 0.165 0.53624 0.0
C978 C 0.36053 0.17043 0.48698 0.0
C979 C 0.35458 0.17279 0.40278 0.0
C980 C 0.38081 0.12475 0.37896 0.0
C981 C 0.37561 0.11716 0.46169 0.0
N982 N 0.36767 0.13468 0.59962 0.0
N983 N 0.3827 0.16416 0.27786 0.0
C984 C 0.36864 0.14093 0.51833 0.0
C985 C 0.37383 0.15466 0.35287 0.0
N986 N 0.35459 0.19508 0.53543 0.0
N987 N 0.39064 0.10331 0.32434 0.0
H988 H 0.37805 0.18619 0.25608 0.0
H989 H 0.37805 0.18619 0.25608 0.0
H990 H 0.39412 0.08038 0.3401 0.0
H991 H 0.39421 0.10855 0.26303 0.0
H992 H 0.35891 0.1955 0.59779 0.0
H993 H 0.34695 0.21571 0.51001 0.0
H994 H 0.36038 0.15043 0.64327 0.0
H995 H 0.37398 0.11327 0.62283 0.0
C996 C 0.42544 0.37079 0.61847 0.0
C997 C 0.4252 0.33896 0.60344 0.0
C998 C 0.47891 0.33466 0.63838 0.0
C999 C 0.48135 0.36726 0.63829 0.0
N1000 N 0.4553 0.41618 0.6514 0.0
N1001 N 0.44427 0.29203 0.66104 0.0
C1002 C 0.45392 0.38534 0.63727 0.0
C1003 C 0.44937 0.32139 0.63588 0.0
N1004 N 0.39922 0.38689 0.60362 0.0
N1005 N 0.50423 0.3163 0.63374 0.0
H1006 H 0.42212 0.28298 0.66441 0.0
H1007 H 0.46128 0.2787 0.68826 0.0
H1008 H 0.52649 0.3248 0.62795 0.0
H1009 H 0.50265 0.29251 0.62675 0.0
H1010 H 0.39764 0.41074 0.60411 0.0
H1011 H 0.37886 0.37541 0.58867 0.0
H1012 H 0.43608 0.43019 0.65638 0.0
H1013 H 0.47583 0.42764 0.66302 0.0
C1014 C 0.18302 0.49737 0.61182 0.0
C1015 C 0.17635 0.49192 0.52879 0.0
C1016 C 0.15372 0.54303 0.51667 0.0
C1017 C 0.16106 0.549 0.59915 0.0
N1018 N 0.18623 0.53415 0.72288 0.0
N1019 N 0.15016 0.50849 0.40553 0.0
C1020 C 0.17653 0.5267 0.64651 0.0
C1021 C 0.15955 0.51392 0.48329 0.0
N1022 N 0.19703 0.47455 0.65507 0.0
N1023 N 0.14145 0.56561 0.46885 0.0
H1024 H 0.15224 0.48747 0.37562 0.0
H1025 H 0.15224 0.48747 0.37562 0.0
H1026 H 0.13844 0.58815 0.48918 0.0
H1027 H 0.13575 0.56211 0.40776 0.0
H1028 H 0.20404 0.47637 0.71533 0.0
H1029 H 0.20074 0.45284 0.62967 0.0
H1030 H 0.20128 0.52062 0.75579 0.0
H1031 H 0.18114 0.55498 0.75111 0.0
C1032 C 0.93948 0.84488 0.73068 0.0
C1033 C 0.92221 0.85386 0.79963 0.0
C1034 C 0.96209 0.88683 0.84568 0.0
C1035 C 0.98309 0.87316 0.79001 0.0
N1036 N 0.99002 0.84369 0.66608 0.0
N1037 N 0.90917 0.90201 0.8616 0.0
C1038 C 0.97119 0.85388 0.72667 0.0
C1039 C 0.93064 0.88229 0.83243 0.0
N1040 N 0.9262 0.82531 0.6763 0.0
N1041 N 0.97156 0.89981 0.91687 0.0
H1042 H 0.88577 0.89767 0.85329 0.0
H1043 H 0.91525 0.92319 0.88704 0.0
H1044 H 0.99443 0.89993 0.93559 0.0
H1045 H 0.95582 0.90664 0.96128 0.0
H1046 H 0.93707 0.81675 0.62467 0.0
H1047 H 0.90338 0.8184 0.68391 0.0
H1048 H 0.98326 0.82822 0.62114 0.0
H1049 H 0.01247 0.85169 0.65941 0.0
C1050 C 0.64444 0.98191 0.82128 0.0
C1051 C 0.674 0.98822 0.85 0.0
C1052 C 0.65459 0.03764 0.90103 0.0
C1053 C 0.62456 0.02497 0.90007 0.0
N1054 N 0.59308 0.98048 0.87197 0.0
N1055 N 0.70916 0.02716 0.8994 0.0
C1056 C 0.6197 0.99627 0.86129 0.0
C1057 C 0.67988 0.01809 0.88245 0.0
N1058 N 0.64005 0.95844 0.76759 0.0
N1059 N 0.65884 0.06808 0.91804 0.0
H1060 H 0.72822 0.01561 0.87694 0.0
H1061 H 0.71438 0.04633 0.93497 0.0
H1062 H 0.64055 0.08296 0.92902 0.0
H1063 H 0.68003 0.07908 0.91317 0.0
H1064 H 0.6185 0.9533 0.74343 0.0
H1065 H 0.65867 0.94648 0.74305 0.0
H1066 H 0.59204 0.95741 0.85675 0.0
H1067 H 0.57475 0.98834 0.90701 0.0
C1068 C 0.63792 0.6343 1.01389 0.0
C1069 C 0.64534 0.65777 0.95749 0.0
C1070 C 0.59921 0.64674 0.8815 0.0
C1071 C 0.58752 0.62989 0.94928 0.0
N1072 N 0.6001 0.59929 0.06787 0.0
N1073 N 0.6459 0.66239 0.81231 0.0
C1074 C 0.60832 0.62074 1.01148 0.0
C1075 C 0.63055 0.65515 0.88175 0.0
N1076 N 0.65891 0.62455 0.06919 0.0
N1077 N 0.5804 0.65769 0.82199 0.0
H1078 H 0.66899 0.66896 0.8144 0.0
H1079 H 0.63628 0.65944 0.75461 0.0
H1080 H 0.55662 0.65577 0.82457 0.0
H1081 H 0.58843 0.67182 0.77531 0.0
H1082 H 0.68139 0.63301 0.07025 0.0
H1083 H 0.68139 0.63301 0.07025 0.0
H1084 H 0.61487 0.59258 0.11467 0.0
H1085 H 0.57911 0.58768 0.0654 0.0
C1086 C 0.89827 0.59933 0.93185 0.0
C1087 C 0.89602 0.61489 1.00593 0.0
C1088 C 0.94279 0.58946 0.05013 0.0
C1089 C 0.93471 0.5647 0.99684 0.0
N1090 N 0.90099 0.54707 0.88632 0.0
N1091 N 0.92506 0.63744 0.11289 0.0
C1092 C 0.91233 0.5701 0.9343 0.0
C1093 C 0.92268 0.61536 0.05445 0.0
N1094 N 0.88181 0.60926 0.86673 0.0
N1095 N 0.96789 0.58705 0.09918 0.0
H1096 H 0.90902 0.65524 0.11581 0.0
H1097 H 0.94174 0.63769 0.15818 0.0
H1098 H 0.98288 0.56842 0.0952 0.0
H1099 H 0.97488 0.60411 0.13949 0.0
H1100 H 0.8829 0.5985 0.80996 0.0
H1101 H 0.86943 0.62978 0.86967 0.0
H1102 H 0.88325 0.55063 0.84476 0.0
H1103 H 0.90613 0.52396 0.89443 0.0
C1104 C 0.05634 0.14142 0.87781 0.0
C1105 C 0.03188 0.15438 0.92415 0.0
C1106 C 0.99602 0.11809 0.85527 0.0
C1107 C 0.02071 0.10336 0.81338 0.0
N1108 N 0.07298 0.10741 0.76825 0.0
N1109 N 0.97899 0.15168 0.96517 0.0
C1110 C 0.05054 0.11681 0.82065 0.0
C1111 C 1.00192 0.14173 0.91484 0.0
N1112 N 0.08553 0.15191 0.89084 0.0
N1113 N 0.96656 0.1109 0.83489 0.0
H1114 H 0.98191 0.16958 1.00683 0.0
H1115 H 0.95774 0.14084 0.97001 0.0
H1116 H 0.96143 0.09647 0.78665 0.0
H1117 H 0.94734 0.1222 0.8575 0.0
H1118 H 0.10508 0.14125 0.86808 0.0
H1119 H 0.09042 0.17052 0.92892 0.0
H1120 H 0.09422 0.11814 0.76238 0.0
H1121 H 0.06938 0.09019 0.72513 0.0
C1122 C 0.37031 1.00289 0.86833 0.0
C1123 C 0.36187 0.03182 0.90217 0.0
C1124 C 0.40898 0.05359 0.84076 0.0
C1125 C 0.41626 0.02566 0.79807 0.0
N1126 N 0.39342 0.97751 0.75205 0.0
N1127 N 0.36799 0.08658 0.88807 0.0
C1128 C 0.39394 1.00127 0.80625 0.0
C1129 C 0.37929 0.05768 0.87623 0.0
N1130 N 0.3564 0.97678 0.89553 0.0
N1131 N 0.43065 0.07568 0.8549 0.0
H1132 H 0.34617 0.09042 0.9123 0.0
H1133 H 0.37888 0.10613 0.86514 0.0
H1134 H 0.45392 0.07251 0.84524 0.0
H1135 H 0.42616 0.09527 0.88957 0.0
H1136 H 0.36375 0.9549 0.87849 0.0
H1137 H 0.33922 0.97714 0.9397 0.0
H1138 H 0.37669 0.96035 0.75351 0.0
H1139 H 0.4061 0.97763 0.69845 0.0
C1140 C 0.4892 0.40122 0.8786 0.0
C1141 C 0.51469 0.39112 0.92508 0.0
C1142 C 0.54564 0.43259 0.8602 0.0
C1143 C 0.51894 0.4451 0.82123 0.0
N1144 N 0.46344 0.44281 0.81003 0.0
N1145 N 0.56706 0.39905 0.96502 0.0
C1146 C 0.49027 0.42983 0.8354 0.0
C1147 C 0.54299 0.40711 0.91624 0.0
N1148 N 0.46367 0.38297 0.87479 0.0
N1149 N 0.57365 0.44548 0.84583 0.0
H1150 H 0.56621 0.38005 1.00368 0.0
H1151 H 0.58712 0.41193 0.97054 0.0
H1152 H 0.57627 0.46615 0.81524 0.0
H1153 H 0.59433 0.43526 0.86218 0.0
H1154 H 0.44544 0.38711 0.83518 0.0
H1155 H 0.46234 0.36187 0.9048 0.0
H1156 H 0.44197 0.43524 0.82967 0.0
H1157 H 0.46228 0.46155 0.77096 0.0
C1158 C 0.14601 0.52769 0.89115 0.0
C1159 C 0.16403 0.5006 0.88219 0.0
C1160 C 0.1258 0.48149 0.78035 0.0
C1161 C 0.10717 0.50805 0.79163 0.0
N1162 N 0.10305 0.55899 0.84716 0.0
N1163 N 0.16865 0.44976 0.8257 0.0
C1164 C 0.11838 0.53177 0.84417 0.0
C1165 C 0.15327 0.47709 0.8283 0.0
N1166 N 0.15419 0.54879 0.94914 0.0
N1167 N 0.11735 0.46044 0.72273 0.0
H1168 H 0.18936 0.44621 0.85609 0.0
H1169 H 0.16043 0.43017 0.79646 0.0
H1170 H 0.09673 0.46193 0.69084 0.0
H1171 H 0.1313 0.44252 0.70317 0.0
H1172 H 0.14028 0.56694 0.96745 0.0
H1173 H 0.17412 0.54703 0.98394 0.0
H1174 H 0.11182 0.57905 0.87293 0.0
H1175 H 0.08192 0.56194 0.81942 0.0
C1176 C 0.02358 0.88887 0.4814 0.0
C1177 C 0.99479 0.87337 0.47462 0.0
C1178 C 0.97366 0.91031 0.5771 0.0
C1179 C 1.00224 0.92631 0.58171 0.0
N1180 N 0.05686 0.92396 0.55502 0.0
N1181 N 0.94171 0.87049 0.5149 0.0
C1182 C 0.02788 0.91343 0.53931 0.0
C1183 C 0.96965 0.88458 0.52216 0.0
N1184 N 0.04642 0.88196 0.42733 0.0
N1185 N 0.95106 0.9181 0.63107 0.0
H1186 H 0.93859 0.84991 0.48331 0.0
H1187 H 0.92136 0.87947 0.5378 0.0
H1188 H 0.95404 0.93508 0.67534 0.0
H1189 H 0.93047 0.90625 0.63765 0.0
H1190 H 0.06632 0.89507 0.42097 0.0
H1191 H 0.0443 0.86509 0.38255 0.0
H1192 H 0.07658 0.91265 0.53551 0.0
H1193 H 0.06172 0.94256 0.59249 0.0
C1194 C 0.64282 1.01258 0.53274 0.0
C1195 C 0.6466 0.99141 0.46703 0.0
C1196 C 0.59072 0.98042 0.47859 0.0
C1197 C 0.58721 0.99947 0.54952 0.0
N1198 N 0.61727 0.01892 0.66205 0.0
N1199 N 0.62348 0.94545 0.40818 0.0
C1200 C 0.61539 1.01148 0.58188 0.0
C1201 C 0.62062 0.97221 0.45038 0.0
N1202 N 0.66453 0.0344 0.54828 0.0
N1203 N 0.56615 0.97018 0.43497 0.0
H1204 H 0.6446 0.93604 0.39179 0.0
H1205 H 0.6446 0.93604 0.39179 0.0
H1206 H 0.54461 0.97992 0.43946 0.0
H1207 H 0.56857 0.95543 0.38512 0.0
H1208 H 0.66136 0.05135 0.59253 0.0
H1209 H 0.68381 0.0375 0.51171 0.0
H1210 H 0.63765 0.02638 0.68909 0.0
H1211 H 0.59985 1.01302 0.70267 0.0
C1212 C 0.52726 0.66925 0.53458 0.0
C1213 C 0.53139 0.67042 0.44883 0.0
C1214 C 0.53061 0.61321 0.44762 0.0
C1215 C 0.52988 0.61196 0.5349 0.0
N1216 N 0.53614 0.64073 0.65901 0.0
N1217 N 0.54088 0.64269 0.32454 0.0
C1218 C 0.53014 0.64058 0.57759 0.0
C1219 C 0.53407 0.64211 0.40577 0.0
N1220 N 0.52097 0.69585 0.57546 0.0
N1221 N 0.52663 0.58694 0.40363 0.0
H1222 H 0.5415 0.66296 0.29075 0.0
H1223 H 0.54768 0.62336 0.29174 0.0
H1224 H 0.52269 0.56586 0.43096 0.0
H1225 H 0.52355 0.58648 0.34075 0.0
H1226 H 0.51463 0.69646 0.63661 0.0
H1227 H 0.51904 0.71697 0.54577 0.0
H1228 H 0.53853 0.66084 0.69275 0.0
H1229 H 0.54302 0.62101 0.6899 0.0
C1230 C 0.89546 0.52764 0.47889 0.0
C1231 C 0.86882 0.51352 0.51148 0.0
C1232 C 0.89997 0.50367 0.63596 0.0
C1233 C 0.92791 0.51192 0.59485 0.0
N1234 N 0.94989 0.52166 0.46172 0.0
N1235 N 0.84718 0.485 0.62274 0.0
C1236 C 0.92499 0.52115 0.51193 0.0
C1237 C 0.87153 0.50051 0.59068 0.0
N1238 N 0.89255 0.54818 0.41718 0.0
N1239 N 0.89992 0.50044 0.71845 0.0
H1240 H 0.82613 0.48351 0.59256 0.0
H1241 H 0.84862 0.47235 0.67647 0.0
H1242 H 0.91908 0.50553 0.75384 0.0
H1243 H 0.87997 0.49663 0.752 0.0
H1244 H 0.91122 0.55994 0.39237 0.0
H1245 H 0.87101 0.55667 0.40162 0.0
H1246 H 0.94799 0.5262 0.39953 0.0
H1247 H 0.9714 0.51365 0.4794 0.0
loop_
_geom_bond_atom_site_label_1
_geom_bond_atom_site_label_2
_geom_bond_distance
_geom_bond_site_symmetry_2
_ccdc_geom_bond_type
C0 C1 1.391 . S
C0 C4 1.391 . S
C0 H42 0.948 . S
C1 C0 1.391 . S
C1 C2 1.391 . S
C2 C1 1.391 . S
C2 H58 0.947 . S
C2 C59 1.392 . S
C3 C4 1.391 . S
C3 C7 1.397 . S
C3 C59 1.419 . S
C4 C0 1.391 . S
C4 C3 1.391 . S
C4 C5 1.399 . S
C5 C4 1.399 . S
C5 C8 1.396 . S
C5 C17 1.453 . S
C5 C18 1.684 . S
H6 C30 0.948 . S
C7 C3 1.397 . S
C7 C8 1.394 . S
C7 C26 1.723 . S
C8 C5 1.396 . S
C8 C7 1.394 . S
C8 C38 1.723 . S
H9 C32 0.947 . S
H10 C33 0.948 . S
H11 C39 0.982 . S
H12 C40 0.979 . S
H13 C40 0.980 . S
H14 C40 0.983 . S
H15 C39 0.979 . S
H16 C39 0.977 . S
C17 C5 1.453 . S
C17 H46 0.982 . S
C17 H47 0.979 . S
C17 H48 0.977 . S
C18 C5 1.684 . S
C18 H43 0.979 . S
C18 H44 0.980 . S
C18 H45 0.983 . S
C19 C20 1.391 . S
C19 C24 1.391 . S
C19 H49 0.948 . S
C20 C19 1.391 . S
C20 C21 1.391 . S
C21 C20 1.391 . S
C21 C22 1.392 . S
C21 H50 0.947 1_554 S
C22 C21 1.392 . S
C22 C23 1.419 . S
C22 H51 0.948 . S
C23 C22 1.419 . S
C23 C24 1.391 . S
C23 C27 1.397 . S
C24 C19 1.391 . S
C24 C23 1.391 . S
C24 C25 1.399 . S
C25 C24 1.399 . S
C25 C26 1.396 . S
C25 C28 1.453 . S
C25 C29 1.684 . S
C26 C7 1.723 . S
C26 C25 1.396 . S
C26 C27 1.394 . S
C27 C23 1.397 . S
C27 C26 1.394 . S
C27 C37 1.723 . S
C28 C25 1.453 . S
C28 H52 0.982 . S
C28 H53 0.979 . S
C28 H54 0.977 . S
C29 C25 1.684 . S
C29 H55 0.979 . S
C29 H56 0.980 . S
C29 H57 0.983 . S
C30 H6 0.948 . S
C30 C31 1.391 . S
C30 C35 1.391 . S
C31 C30 1.391 . S
C31 C32 1.391 . S
C32 H9 0.947 . S
C32 C31 1.391 . S
C32 C33 1.392 . S
C33 H10 0.948 . S
C33 C32 1.392 . S
C33 C34 1.419 . S
C34 C33 1.419 . S
C34 C35 1.391 . S
C34 C38 1.397 . S
C35 C30 1.391 . S
C35 C34 1.391 . S
C35 C36 1.399 . S
C36 C35 1.399 . S
C36 C37 1.396 . S
C36 C39 1.453 . S
C36 C40 1.684 . S
C37 C27 1.723 . S
C37 C36 1.396 . S
C37 C38 1.394 . S
C38 C8 1.723 . S
C38 C34 1.397 . S
C38 C37 1.394 . S
C39 H11 0.982 . S
C39 H15 0.979 . S
C39 H16 0.977 . S
C39 C36 1.453 . S
C40 H12 0.979 . S
C40 H13 0.980 . S
C40 H14 0.983 . S
C40 C36 1.684 . S
H41 C59 0.948 . S
H42 C0 0.948 . S
H43 C18 0.979 . S
H44 C18 0.980 . S
H45 C18 0.983 . S
H46 C17 0.982 . S
H47 C17 0.979 . S
H48 C17 0.977 . S
H49 C19 0.948 . S
H50 C21 0.947 1_556 S
H51 C22 0.948 . S
H52 C28 0.982 . S
H53 C28 0.979 . S
H54 C28 0.977 . S
H55 C29 0.979 . S
H56 C29 0.980 . S
H57 C29 0.983 . S
H58 C2 0.947 . S
C59 C2 1.392 . S
C59 C3 1.419 . S
C59 H41 0.948 . S
C60 C61 1.391 . S
C60 C64 1.391 . S
C60 H102 0.948 . S
C61 C60 1.391 . S
C61 C62 1.391 . S
C62 C61 1.391 . S
C62 H118 0.947 . S
C62 C119 1.392 . S
C63 C64 1.391 . S
C63 C67 1.397 . S
C63 C119 1.419 . S
C64 C60 1.391 . S
C64 C63 1.391 . S
C64 C65 1.399 . S
C65 C64 1.399 . S
C65 C68 1.396 . S
C65 C77 1.453 . S
C65 C78 1.684 . S
H66 C90 0.948 . S
C67 C63 1.397 . S
C67 C68 1.394 . S
C67 C86 1.723 . S
C68 C65 1.396 . S
C68 C67 1.394 . S
C68 C98 1.723 . S
H69 C92 0.947 . S
H70 C93 0.948 . S
H71 C99 0.982 1_455 S
H72 C100 0.979 . S
H73 C100 0.980 . S
H74 C100 0.983 . S
H75 C99 0.979 . S
H76 C99 0.977 . S
C77 C65 1.453 . S
C77 H106 0.982 1_655 S
C77 H107 0.979 . S
C77 H108 0.977 . S
C78 C65 1.684 . S
C78 H103 0.979 . S
C78 H104 0.980 . S
C78 H105 0.983 . S
C79 C80 1.391 . S
C79 C84 1.391 . S
C79 H109 0.948 . S
C80 C79 1.391 . S
C80 C81 1.391 . S
C81 C80 1.391 . S
C81 C82 1.392 . S
C81 H110 0.947 . S
C82 C81 1.392 . S
C82 C83 1.419 . S
C82 H111 0.948 . S
C83 C82 1.419 . S
C83 C84 1.391 . S
C83 C87 1.397 . S
C84 C79 1.391 . S
C84 C83 1.391 . S
C84 C85 1.399 . S
C85 C84 1.399 . S
C85 C86 1.396 . S
C85 C88 1.453 . S
C85 C89 1.684 . S
C86 C67 1.723 . S
C86 C85 1.396 . S
C86 C87 1.394 . S
C87 C83 1.397 . S
C87 C86 1.394 . S
C87 C97 1.723 . S
C88 C85 1.453 . S
C88 H112 0.982 1_655 S
C88 H113 0.979 . S
C88 H114 0.977 . S
C89 C85 1.684 . S
C89 H115 0.979 . S
C89 H116 0.980 . S
C89 H117 0.983 . S
C90 H66 0.948 . S
C90 C91 1.391 . S
C90 C95 1.391 . S
C91 C90 1.391 . S
C91 C92 1.391 . S
C92 H69 0.947 . S
C92 C91 1.391 . S
C92 C93 1.392 . S
C93 H70 0.948 . S
C93 C92 1.392 . S
C93 C94 1.419 . S
C94 C93 1.419 . S
C94 C95 1.391 . S
C94 C98 1.397 . S
C95 C90 1.391 . S
C95 C94 1.391 . S
C95 C96 1.399 . S
C96 C95 1.399 . S
C96 C97 1.396 . S
C96 C99 1.453 . S
C96 C100 1.684 . S
C97 C87 1.723 . S
C97 C96 1.396 . S
C97 C98 1.394 . S
C98 C68 1.723 . S
C98 C94 1.397 . S
C98 C97 1.394 . S
C99 H71 0.982 1_655 S
C99 H75 0.979 . S
C99 H76 0.977 . S
C99 C96 1.453 . S
C100 H72 0.979 . S
C100 H73 0.980 . S
C100 H74 0.983 . S
C100 C96 1.684 . S
H101 C119 0.948 . S
H102 C60 0.948 . S
H103 C78 0.979 . S
H104 C78 0.980 . S
H105 C78 0.983 . S
H106 C77 0.982 1_455 S
H107 C77 0.979 . S
H108 C77 0.977 . S
H109 C79 0.948 . S
H110 C81 0.947 . S
H111 C82 0.948 . S
H112 C88 0.982 1_455 S
H113 C88 0.979 . S
H114 C88 0.977 . S
H115 C89 0.979 . S
H116 C89 0.980 . S
H117 C89 0.983 . S
H118 C62 0.947 . S
C119 C62 1.392 . S
C119 C63 1.419 . S
C119 H101 0.948 . S
C120 C121 1.391 . S
C120 C124 1.391 . S
C120 H162 0.948 . S
C121 C120 1.391 . S
C121 C122 1.391 . S
C122 C121 1.391 . S
C122 H178 0.947 . S
C122 C179 1.392 . S
C123 C124 1.391 . S
C123 C127 1.397 . S
C123 C179 1.419 . S
C124 C120 1.391 . S
C124 C123 1.391 . S
C124 C125 1.399 . S
C125 C124 1.399 . S
C125 C128 1.396 . S
C125 C137 1.453 . S
C125 C138 1.684 . S
H126 C150 0.948 . S
C127 C123 1.397 . S
C127 C128 1.394 . S
C127 C146 1.723 . S
C128 C125 1.396 . S
C128 C127 1.394 . S
C128 C158 1.723 . S
H129 C152 0.947 . S
H130 C153 0.948 . S
H131 C159 0.982 1_545 S
H132 C160 0.979 . S
H133 C160 0.980 . S
H134 C160 0.983 . S
H135 C159 0.979 . S
H136 C159 0.977 . S
C137 C125 1.453 . S
C137 H166 0.982 1_565 S
C137 H167 0.979 . S
C137 H168 0.977 . S
C138 C125 1.684 . S
C138 H163 0.979 . S
C138 H164 0.980 . S
C138 H165 0.983 . S
C139 C140 1.391 . S
C139 C144 1.391 . S
C139 H169 0.948 . S
C140 C139 1.391 . S
C140 C141 1.391 . S
C141 C140 1.391 . S
C141 C142 1.392 . S
C141 H170 0.947 . S
C142 C141 1.392 . S
C142 C143 1.419 . S
C142 H171 0.948 . S
C143 C142 1.419 . S
C143 C144 1.391 . S
C143 C147 1.397 . S
C144 C139 1.391 . S
C144 C143 1.391 . S
C144 C145 1.399 . S
C145 C144 1.399 . S
C145 C146 1.396 . S
C145 C148 1.453 . S
C145 C149 1.684 . S
C146 C127 1.723 . S
C146 C145 1.396 . S
C146 C147 1.394 . S
C147 C143 1.397 . S
C147 C146 1.394 . S
C147 C157 1.723 . S
C148 C145 1.453 . S
C148 H172 0.982 1_565 S
C148 H173 0.979 . S
C148 H174 0.977 . S
C149 C145 1.684 . S
C149 H175 0.979 . S
C149 H176 0.980 . S
C149 H177 0.983 . S
C150 H126 0.948 . S
C150 C151 1.391 . S
C150 C155 1.391 . S
C151 C150 1.391 . S
C151 C152 1.391 . S
C152 H129 0.947 . S
C152 C151 1.391 . S
C152 C153 1.392 . S
C153 H130 0.948 . S
C153 C152 1.392 . S
C153 C154 1.419 . S
C154 C153 1.419 . S
C154 C155 1.391 . S
C154 C158 1.397 . S
C155 C150 1.391 . S
C155 C154 1.391 . S
C155 C156 1.399 . S
C156 C155 1.399 . S
C156 C157 1.396 . S
C156 C159 1.453 . S
C156 C160 1.684 . S
C157 C147 1.723 . S
C157 C156 1.396 . S
C157 C158 1.394 . S
C158 C128 1.723 . S
C158 C154 1.397 . S
C158 C157 1.394 . S
C159 H131 0.982 1_565 S
C159 H135 0.979 . S
C159 H136 0.977 . S
C159 C156 1.453 . S
C160 H132 0.979 . S
C160 H133 0.980 . S
C160 H134 0.983 . S
C160 C156 1.684 . S
H161 C179 0.948 . S
H162 C120 0.948 . S
H163 C138 0.979 . S
H164 C138 0.980 . S
H165 C138 0.983 . S
H166 C137 0.982 1_545 S
H167 C137 0.979 . S
H168 C137 0.977 . S
H169 C139 0.948 . S
H170 C141 0.947 . S
H171 C142 0.948 . S
H172 C148 0.982 1_545 S
H173 C148 0.979 . S
H174 C148 0.977 . S
H175 C149 0.979 . S
H176 C149 0.980 . S
H177 C149 0.983 . S
H178 C122 0.947 . S
C179 C122 1.392 . S
C179 C123 1.419 . S
C179 H161 0.948 . S
C180 C181 1.391 . S
C180 C184 1.391 . S
C180 H222 0.948 . S
C181 C180 1.391 . S
C181 C182 1.391 . S
C182 C181 1.391 . S
C182 H238 0.947 . S
C182 C239 1.392 . S
C183 C184 1.391 . S
C183 C187 1.397 . S
C183 C239 1.419 . S
C184 C180 1.391 . S
C184 C183 1.391 . S
C184 C185 1.399 . S
C185 C184 1.399 . S
C185 C188 1.396 . S
C185 C197 1.453 . S
C185 C198 1.684 . S
H186 C210 0.948 . S
C187 C183 1.397 . S
C187 C188 1.394 . S
C187 C206 1.723 . S
C188 C185 1.396 . S
C188 C187 1.394 . S
C188 C218 1.723 . S
H189 C212 0.947 . S
H190 C213 0.948 . S
H191 C219 0.982 . S
H192 C220 0.979 . S
H193 C220 0.980 . S
H194 C220 0.983 . S
H195 C219 0.979 . S
H196 C219 0.977 . S
C197 C185 1.453 . S
C197 H226 0.982 . S
C197 H227 0.979 . S
C197 H228 0.977 . S
C198 C185 1.684 . S
C198 H223 0.979 . S
C198 H224 0.980 . S
C198 H225 0.983 . S
C199 C200 1.391 . S
C199 C204 1.391 . S
C199 H229 0.948 . S
C200 C199 1.391 . S
C200 C201 1.391 . S
C201 C200 1.391 . S
C201 C202 1.392 . S
C201 H230 0.947 1_554 S
C202 C201 1.392 . S
C202 C203 1.419 . S
C202 H231 0.948 . S
C203 C202 1.419 . S
C203 C204 1.391 . S
C203 C207 1.397 . S
C204 C199 1.391 . S
C204 C203 1.391 . S
C204 C205 1.399 . S
C205 C204 1.399 . S
C205 C206 1.396 . S
C205 C208 1.453 . S
C205 C209 1.684 . S
C206 C187 1.723 . S
C206 C205 1.396 . S
C206 C207 1.394 . S
C207 C203 1.397 . S
C207 C206 1.394 . S
C207 C217 1.723 . S
C208 C205 1.453 . S
C208 H232 0.982 . S
C208 H233 0.979 . S
C208 H234 0.977 . S
C209 C205 1.684 . S
C209 H235 0.979 . S
C209 H236 0.980 . S
C209 H237 0.983 . S
C210 H186 0.948 . S
C210 C211 1.391 . S
C210 C215 1.391 . S
C211 C210 1.391 . S
C211 C212 1.391 . S
C212 H189 0.947 . S
C212 C211 1.391 . S
C212 C213 1.392 . S
C213 H190 0.948 . S
C213 C212 1.392 . S
C213 C214 1.419 . S
C214 C213 1.419 . S
C214 C215 1.391 . S
C214 C218 1.397 . S
C215 C210 1.391 . S
C215 C214 1.391 . S
C215 C216 1.399 . S
C216 C215 1.399 . S
C216 C217 1.396 . S
C216 C219 1.453 . S
C216 C220 1.684 . S
C217 C207 1.723 . S
C217 C216 1.396 . S
C217 C218 1.394 . S
C218 C188 1.723 . S
C218 C214 1.397 . S
C218 C217 1.394 . S
C219 H191 0.982 . S
C219 H195 0.979 . S
C219 H196 0.977 . S
C219 C216 1.453 . S
C220 H192 0.979 . S
C220 H193 0.980 . S
C220 H194 0.983 . S
C220 C216 1.684 . S
H221 C239 0.948 . S
H222 C180 0.948 . S
H223 C198 0.979 . S
H224 C198 0.980 . S
H225 C198 0.983 . S
H226 C197 0.982 . S
H227 C197 0.979 . S
H228 C197 0.977 . S
H229 C199 0.948 . S
H230 C201 0.947 1_556 S
H231 C202 0.948 . S
H232 C208 0.982 . S
H233 C208 0.979 . S
H234 C208 0.977 . S
H235 C209 0.979 . S
H236 C209 0.980 . S
H237 C209 0.983 . S
H238 C182 0.947 . S
C239 C182 1.392 . S
C239 C183 1.419 . S
C239 H221 0.948 . S
C240 C241 1.391 . S
C240 C244 1.391 . S
C240 H282 0.948 . S
C241 C240 1.391 . S
C241 C242 1.391 . S
C242 C241 1.391 . S
C242 H298 0.947 . S
C242 C299 1.392 . S
C243 C244 1.391 . S
C243 C247 1.397 . S
C243 C299 1.419 . S
C244 C240 1.391 . S
C244 C243 1.391 . S
C244 C245 1.399 1_554 S
C245 C244 1.399 1_556 S
C245 C248 1.396 . S
C245 C257 1.453 . S
C245 C258 1.684 . S
H246 C270 0.948 . S
C247 C243 1.397 . S
C247 C248 1.394 1_554 S
C247 C266 1.723 . S
C248 C245 1.396 . S
C248 C247 1.394 1_556 S
C248 C278 1.723 . S
H249 C272 0.947 . S
H250 C273 0.948 . S
H251 C279 0.982 . S
H252 C280 0.979 . S
H253 C280 0.980 . S
H254 C280 0.983 . S
H255 C279 0.979 . S
H256 C279 0.986 . S
C257 C245 1.453 . S
C257 H286 0.982 . S
C257 H287 0.979 . S
C257 H288 0.977 . S
C258 C245 1.684 . S
C258 H283 0.979 . S
C258 H284 0.980 . S
C258 H285 0.983 . S
C259 C260 1.391 . S
C259 C264 1.391 . S
C259 H289 0.948 . S
C260 C259 1.391 . S
C260 C261 1.391 . S
C261 C260 1.391 . S
C261 C262 1.392 . S
C261 H290 0.947 . S
C262 C261 1.392 . S
C262 C263 1.419 . S
C262 H291 0.948 . S
C263 C262 1.419 . S
C263 C264 1.391 . S
C263 C267 1.397 . S
C264 C259 1.391 . S
C264 C263 1.391 . S
C264 C265 1.399 . S
C265 C264 1.399 . S
C265 C266 1.396 . S
C265 C268 1.453 . S
C265 C269 1.684 . S
C266 C247 1.723 . S
C266 C265 1.396 . S
C266 C267 1.394 . S
C267 C263 1.397 . S
C267 C266 1.394 . S
C267 C277 1.723 1_554 S
C268 C265 1.453 . S
C268 H292 0.982 . S
C268 H293 0.979 . S
C268 H294 0.977 . S
C269 C265 1.684 . S
C269 H295 0.979 . S
C269 H296 0.980 . S
C269 H297 0.983 . S
C270 H246 0.948 . S
C270 C271 1.391 . S
C270 C275 1.391 . S
C271 C270 1.391 . S
C271 C272 1.391 . S
C272 H249 0.947 . S
C272 C271 1.391 . S
C272 C273 1.392 . S
C273 H250 0.948 . S
C273 C272 1.392 . S
C273 C274 1.419 . S
C274 C273 1.419 . S
C274 C275 1.391 . S
C274 C278 1.397 . S
C275 C270 1.391 . S
C275 C274 1.391 . S
C275 C276 1.399 . S
C276 C275 1.399 . S
C276 C277 1.396 . S
C276 C279 1.453 . S
C276 C280 1.684 . S
C277 C267 1.723 1_556 S
C277 C276 1.396 . S
C277 C278 1.394 . S
C278 C248 1.723 . S
C278 C274 1.397 . S
C278 C277 1.394 . S
C279 H251 0.982 . S
C279 H255 0.979 . S
C279 H256 0.986 . S
C279 C276 1.453 . S
C280 H252 0.979 . S
C280 H253 0.980 . S
C280 H254 0.983 . S
C280 C276 1.684 . S
H281 C299 0.948 . S
H282 C240 0.948 . S
H283 C258 0.979 . S
H284 C258 0.980 . S
H285 C258 0.983 . S
H286 C257 0.982 . S
H287 C257 0.979 . S
H288 C257 0.977 . S
H289 C259 0.948 . S
H290 C261 0.947 . S
H291 C262 0.948 . S
H292 C268 0.982 . S
H293 C268 0.979 . S
H294 C268 0.977 . S
H295 C269 0.979 . S
H296 C269 0.980 . S
H297 C269 0.983 . S
H298 C242 0.947 . S
C299 C242 1.392 . S
C299 C243 1.419 . S
C299 H281 0.948 . S
C300 C301 1.391 . S
C300 C304 1.391 . S
C300 H342 0.948 . S
C301 C300 1.391 . S
C301 C302 1.391 . S
C302 C301 1.391 . S
C302 H358 0.947 . S
C302 C359 1.392 . S
C303 C304 1.391 . S
C303 C307 1.397 . S
C303 C359 1.419 . S
C304 C300 1.391 . S
C304 C303 1.391 . S
C304 C305 1.399 . S
C305 C304 1.399 . S
C305 C308 1.396 . S
C305 C317 1.453 . S
C305 C318 1.684 . S
H306 C330 0.948 . S
C307 C303 1.397 . S
C307 C308 1.394 . S
C307 C326 1.723 1_554 S
C308 C305 1.396 . S
C308 C307 1.394 . S
C308 C338 1.723 . S
H309 C332 0.947 . S
H310 C333 0.948 . S
H311 C339 0.982 . S
H312 C340 0.979 1_655 S
H313 C340 0.980 . S
H314 C340 0.983 . S
H315 C339 0.979 . S
H316 C339 0.977 . S
C317 C305 1.453 . S
C317 H346 0.982 . S
C317 H347 0.979 . S
C317 H348 0.977 . S
C318 C305 1.684 . S
C318 H343 0.979 1_455 S
C318 H344 0.980 . S
C318 H345 0.983 . S
C319 C320 1.391 . S
C319 C324 1.391 . S
C319 H349 0.948 . S
C320 C319 1.391 . S
C320 C321 1.391 . S
C321 C320 1.391 . S
C321 C322 1.392 . S
C321 H350 0.947 . S
C322 C321 1.392 . S
C322 C323 1.419 . S
C322 H351 0.948 . S
C323 C322 1.419 . S
C323 C324 1.391 . S
C323 C327 1.397 . S
C324 C319 1.391 . S
C324 C323 1.391 . S
C324 C325 1.399 . S
C325 C324 1.399 . S
C325 C326 1.396 . S
C325 C328 1.453 . S
C325 C329 1.684 . S
C326 C307 1.723 1_556 S
C326 C325 1.396 . S
C326 C327 1.394 . S
C327 C323 1.397 . S
C327 C326 1.394 . S
C327 C337 1.723 . S
C328 C325 1.453 . S
C328 H352 0.982 . S
C328 H353 0.979 . S
C328 H354 0.967 1_556 S
C329 C325 1.684 . S
C329 H355 0.979 1_455 S
C329 H356 0.980 . S
C329 H357 0.983 . S
C330 H306 0.948 . S
C330 C331 1.391 . S
C330 C335 1.391 . S
C331 C330 1.391 . S
C331 C332 1.391 . S
C332 H309 0.947 . S
C332 C331 1.391 . S
C332 C333 1.392 . S
C333 H310 0.948 . S
C333 C332 1.392 . S
C333 C334 1.419 . S
C334 C333 1.419 . S
C334 C335 1.391 . S
C334 C338 1.397 . S
C335 C330 1.391 . S
C335 C334 1.391 . S
C335 C336 1.399 1_554 S
C336 C335 1.399 1_556 S
C336 C337 1.396 . S
C336 C339 1.453 . S
C336 C340 1.684 . S
C337 C327 1.723 . S
C337 C336 1.396 . S
C337 C338 1.394 1_556 S
C338 C308 1.723 . S
C338 C334 1.397 . S
C338 C337 1.394 1_554 S
C339 H311 0.982 . S
C339 H315 0.979 . S
C339 H316 0.977 . S
C339 C336 1.453 . S
C340 H312 0.979 1_455 S
C340 H313 0.980 . S
C340 H314 0.983 . S
C340 C336 1.684 . S
H341 C359 0.948 . S
H342 C300 0.948 . S
H343 C318 0.979 1_655 S
H344 C318 0.980 . S
H345 C318 0.983 . S
H346 C317 0.982 . S
H347 C317 0.979 . S
H348 C317 0.977 . S
H349 C319 0.948 . S
H350 C321 0.947 . S
H351 C322 0.948 . S
H352 C328 0.982 . S
H353 C328 0.979 . S
H354 C328 0.967 1_554 S
H355 C329 0.979 1_655 S
H356 C329 0.980 . S
H357 C329 0.983 . S
H358 C302 0.947 . S
C359 C302 1.392 . S
C359 C303 1.419 . S
C359 H341 0.948 . S
C360 C361 1.391 . S
C360 C364 1.391 . S
C360 H402 0.948 . S
C361 C360 1.391 . S
C361 C362 1.391 . S
C362 C361 1.391 . S
C362 H418 0.947 . S
C362 C419 1.392 . S
C363 C364 1.391 . S
C363 C367 1.397 . S
C363 C419 1.419 . S
C364 C360 1.391 . S
C364 C363 1.391 . S
C364 C365 1.399 . S
C365 C364 1.399 . S
C365 C368 1.396 . S
C365 C377 1.453 . S
C365 C378 1.684 . S
H366 C390 0.948 . S
C367 C363 1.397 . S
C367 C368 1.394 . S
C367 C386 1.723 1_556 S
C368 C365 1.396 . S
C368 C367 1.394 . S
C368 C398 1.723 1_556 S
H369 C392 0.947 1_556 S
H370 C393 0.948 . S
H371 C399 1.008 . S
H372 C400 0.979 . S
H373 C400 0.980 . S
H374 C400 0.983 . S
H375 C399 0.979 . S
H376 C399 0.977 . S
C377 C365 1.453 . S
C377 H406 1.008 . S
C377 H407 0.979 . S
C377 H408 0.977 . S
C378 C365 1.684 . S
C378 H403 0.979 . S
C378 H404 0.980 . S
C378 H405 0.983 . S
C379 C380 1.391 . S
C379 C384 1.391 . S
C379 H409 0.948 . S
C380 C379 1.391 . S
C380 C381 1.391 . S
C381 C380 1.391 . S
C381 C382 1.392 . S
C381 H410 0.947 . S
C382 C381 1.392 . S
C382 C383 1.419 . S
C382 H411 0.948 . S
C383 C382 1.419 . S
C383 C384 1.391 . S
C383 C387 1.397 . S
C384 C379 1.391 . S
C384 C383 1.391 . S
C384 C385 1.399 . S
C385 C384 1.399 . S
C385 C386 1.396 . S
C385 C388 1.453 . S
C385 C389 1.684 . S
C386 C367 1.723 1_554 S
C386 C385 1.396 . S
C386 C387 1.394 . S
C387 C383 1.397 . S
C387 C386 1.394 . S
C387 C397 1.723 . S
C388 C385 1.453 . S
C388 H412 1.008 . S
C388 H413 0.979 . S
C388 H414 0.977 1_554 S
C389 C385 1.684 . S
C389 H415 0.979 . S
C389 H416 0.980 1_554 S
C389 H417 0.983 . S
C390 H366 0.948 . S
C390 C391 1.391 . S
C390 C395 1.391 . S
C391 C390 1.391 . S
C391 C392 1.391 . S
C392 H369 0.947 1_554 S
C392 C391 1.391 . S
C392 C393 1.392 1_554 S
C393 H370 0.948 . S
C393 C392 1.392 1_556 S
C393 C394 1.419 1_556 S
C394 C393 1.419 1_554 S
C394 C395 1.391 . S
C394 C398 1.397 . S
C395 C390 1.391 . S
C395 C394 1.391 . S
C395 C396 1.399 . S
C396 C395 1.399 . S
C396 C397 1.396 . S
C396 C399 1.453 . S
C396 C400 1.684 . S
C397 C387 1.723 . S
C397 C396 1.396 . S
C397 C398 1.394 . S
C398 C368 1.723 1_554 S
C398 C394 1.397 . S
C398 C397 1.394 . S
C399 H371 1.008 . S
C399 H375 0.979 . S
C399 H376 0.977 . S
C399 C396 1.453 . S
C400 H372 0.979 . S
C400 H373 0.980 . S
C400 H374 0.983 . S
C400 C396 1.684 . S
H401 C419 0.948 . S
H402 C360 0.948 . S
H403 C378 0.979 . S
H404 C378 0.980 . S
H405 C378 0.983 . S
H406 C377 1.008 . S
H407 C377 0.979 . S
H408 C377 0.977 . S
H409 C379 0.948 . S
H410 C381 0.947 . S
H411 C382 0.948 . S
H412 C388 1.008 . S
H413 C388 0.979 . S
H414 C388 0.977 1_556 S
H415 C389 0.979 . S
H416 C389 0.980 1_556 S
H417 C389 0.983 . S
H418 C362 0.947 . S
C419 C362 1.392 . S
C419 C363 1.419 . S
C419 H401 0.948 . S
C420 C421 1.391 . S
C420 C424 1.391 . S
C420 H462 0.948 . S
C421 C420 1.391 . S
C421 C422 1.391 . S
C422 C421 1.391 . S
C422 H478 0.947 . S
C422 C479 1.392 . S
C423 C424 1.391 . S
C423 C427 1.397 . S
C423 C479 1.419 . S
C424 C420 1.391 . S
C424 C423 1.391 . S
C424 C425 1.399 . S
C425 C424 1.399 . S
C425 C428 1.396 . S
C425 C437 1.453 . S
C425 C438 1.684 . S
H426 C450 0.948 . S
C427 C423 1.397 . S
C427 C428 1.394 . S
C427 C446 1.723 1_556 S
C428 C425 1.396 . S
C428 C427 1.394 . S
C428 C458 1.723 1_556 S
H429 C452 0.947 1_556 S
H430 C453 0.948 . S
H431 C459 0.982 . S
H432 C460 0.979 . S
H433 C460 0.980 . S
H434 C460 0.983 . S
H435 C459 0.979 . S
H436 C459 0.977 . S
C437 C425 1.453 . S
C437 H466 0.982 . S
C437 H467 0.979 . S
C437 H468 0.977 . S
C438 C425 1.684 . S
C438 H463 0.979 . S
C438 H464 0.980 . S
C438 H465 0.983 . S
C439 C440 1.391 . S
C439 C444 1.391 . S
C439 H469 0.948 . S
C440 C439 1.391 . S
C440 C441 1.391 . S
C441 C440 1.391 . S
C441 C442 1.392 . S
C441 H470 0.947 . S
C442 C441 1.392 . S
C442 C443 1.419 . S
C442 H471 0.948 . S
C443 C442 1.419 . S
C443 C444 1.391 . S
C443 C447 1.397 . S
C444 C439 1.391 . S
C444 C443 1.391 . S
C444 C445 1.399 . S
C445 C444 1.399 . S
C445 C446 1.396 . S
C445 C448 1.453 . S
C445 C449 1.684 . S
C446 C427 1.723 1_554 S
C446 C445 1.396 . S
C446 C447 1.394 . S
C447 C443 1.397 . S
C447 C446 1.394 . S
C447 C457 1.723 . S
C448 C445 1.453 . S
C448 H472 0.982 . S
C448 H473 0.979 . S
C448 H474 0.977 1_554 S
C449 C445 1.684 . S
C449 H475 0.979 . S
C449 H476 0.980 1_554 S
C449 H477 0.983 . S
C450 H426 0.948 . S
C450 C451 1.391 . S
C450 C455 1.391 . S
C451 C450 1.391 . S
C451 C452 1.391 . S
C452 H429 0.947 1_554 S
C452 C451 1.391 . S
C452 C453 1.392 1_554 S
C453 H430 0.948 . S
C453 C452 1.392 1_556 S
C453 C454 1.419 1_556 S
C454 C453 1.419 1_554 S
C454 C455 1.391 . S
C454 C458 1.397 . S
C455 C450 1.391 . S
C455 C454 1.391 . S
C455 C456 1.399 . S
C456 C455 1.399 . S
C456 C457 1.396 . S
C456 C459 1.453 . S
C456 C460 1.684 . S
C457 C447 1.723 . S
C457 C456 1.396 . S
C457 C458 1.394 . S
C458 C428 1.723 1_554 S
C458 C454 1.397 . S
C458 C457 1.394 . S
C459 H431 0.982 . S
C459 H435 0.979 . S
C459 H436 0.977 . S
C459 C456 1.453 . S
C460 H432 0.979 . S
C460 H433 0.980 . S
C460 H434 0.983 . S
C460 C456 1.684 . S
H461 C479 0.948 . S
H462 C420 0.948 . S
H463 C438 0.979 . S
H464 C438 0.980 . S
H465 C438 0.983 . S
H466 C437 0.982 . S
H467 C437 0.979 . S
H468 C437 0.977 . S
H469 C439 0.948 . S
H470 C441 0.947 . S
H471 C442 0.948 . S
H472 C448 0.982 . S
H473 C448 0.979 . S
H474 C448 0.977 1_556 S
H475 C449 0.979 . S
H476 C449 0.980 1_556 S
H477 C449 0.983 . S
H478 C422 0.947 . S
C479 C422 1.392 . S
C479 C423 1.419 . S
C479 H461 0.948 . S
Eu480 N509 2.600 . S
Eu480 N515 2.562 . S
Eu480 O524 2.462 . S
Eu480 O525 2.373 1_545 S
Eu480 O527 2.432 . S
Eu480 O528 2.291 1_655 S
Eu480 O532 2.335 1_655 S
Eu480 O535 2.372 . S
Eu480 C544 2.787 . S
C481 N482 1.381 . S
C481 C484 1.405 . S
C481 C488 1.448 . S
N482 C481 1.381 . S
N482 C485 1.315 1_545 S
N482 Eu491 2.592 1_545 S
C483 C485 1.397 1_545 S
C483 C486 1.367 . S
C483 H503 0.931 . S
C484 C481 1.405 . S
C484 C486 1.403 . S
C484 C490 1.439 . S
C485 N482 1.315 1_565 S
C485 C483 1.397 1_565 S
C485 H496 0.930 . S
C486 C483 1.367 . S
C486 C484 1.403 . S
C486 H507 0.929 . S
C487 C488 1.430 . S
C487 C489 1.387 1_556 S
C487 C493 1.404 1_556 S
C488 C481 1.448 . S
C488 C487 1.430 . S
C488 N492 1.351 . S
C489 C487 1.387 1_554 S
C489 C490 1.374 1_554 S
C489 H504 0.931 . S
C490 C484 1.439 . S
C490 C489 1.374 1_556 S
C490 H505 0.931 . S
Eu491 N482 2.592 1_565 S
Eu491 N492 2.562 1_565 S
Eu491 O526 2.335 . S
Eu491 O529 2.372 . S
Eu491 O530 2.462 . S
Eu491 O531 2.373 1_565 S
Eu491 O533 2.432 . S
Eu491 O534 2.289 1_465 S
Eu491 C555 2.787 . S
N492 C488 1.351 . S
N492 Eu491 2.562 1_545 S
N492 C494 1.325 . S
C493 C487 1.404 1_554 S
C493 C495 1.366 . S
C493 H501 0.930 . S
C494 N492 1.325 . S
C494 C495 1.416 1_556 S
C494 H500 0.929 . S
C495 C493 1.366 . S
C495 C494 1.416 1_554 S
C495 H497 0.930 . S
H496 C485 0.930 . S
H497 C495 0.930 . S
H498 C513 0.930 . S
H499 C520 0.930 1_455 S
H500 C494 0.929 . S
H501 C493 0.930 . S
H502 C516 0.929 1_455 S
H503 C483 0.931 . S
H504 C489 0.931 . S
H505 C490 0.931 . S
H506 C511 0.931 . S
H507 C486 0.929 . S
H508 C519 0.930 . S
N509 Eu480 2.600 . S
N509 C510 1.353 1_545 S
N509 C513 1.319 . S
C510 N509 1.353 1_565 S
C510 C512 1.415 . S
C510 C518 1.450 . S
C511 H506 0.931 . S
C511 C513 1.397 . S
C511 C514 1.367 1_545 S
C512 C510 1.415 . S
C512 C514 1.403 . S
C512 C545 1.439 . S
C513 H498 0.930 . S
C513 N509 1.319 . S
C513 C511 1.397 . S
C514 C511 1.367 1_565 S
C514 C512 1.403 . S
C514 H521 0.929 . S
N515 Eu480 2.562 . S
N515 C516 1.325 . S
N515 C518 1.351 1_545 S
C516 H502 0.929 1_655 S
C516 N515 1.325 . S
C516 C520 1.416 1_545 S
C517 C518 1.430 . S
C517 C519 1.404 . S
C517 C546 1.387 . S
C518 C510 1.450 . S
C518 N515 1.351 1_565 S
C518 C517 1.430 . S
C519 H508 0.930 . S
C519 C517 1.404 . S
C519 C520 1.366 . S
C520 H499 0.930 1_655 S
C520 C516 1.416 1_565 S
C520 C519 1.366 . S
H521 C514 0.929 . S
H522 C545 0.931 . S
H523 C546 0.931 . S
O524 Eu480 2.462 . S
O524 C544 1.252 . S
O525 Eu480 2.373 1_565 S
O525 C536 1.249 . S
O526 Eu491 2.335 . S
O526 C536 1.264 1_455 S
O527 Eu480 2.432 . S
O527 C544 1.268 . S
O528 Eu480 2.291 1_455 S
O528 C543 1.255 . S
O529 Eu491 2.372 . S
O529 C543 1.257 1_565 S
O530 Eu491 2.462 . S
O530 C555 1.252 . S
O531 Eu491 2.373 1_545 S
O531 C547 1.249 . S
O532 Eu480 2.335 1_455 S
O532 C547 1.264 . S
O533 Eu491 2.432 . S
O533 C555 1.268 . S
O534 Eu491 2.289 1_645 S
O534 C554 1.257 . S
O535 Eu480 2.372 . S
O535 C554 1.257 . S
C536 O525 1.249 . S
C536 O526 1.264 1_655 S
C537 C540 1.382 . S
C537 C542 1.390 . S
C537 C544 1.506 . S
C538 C539 1.398 . S
C538 C542 1.392 . S
C539 C538 1.398 . S
C539 C541 1.372 . S
C539 H556 0.931 . S
C540 C537 1.382 . S
C540 C541 1.390 . S
C540 H557 0.931 . S
C541 C539 1.372 . S
C541 C540 1.390 . S
C541 H558 0.929 . S
C542 C537 1.390 . S
C542 C538 1.392 . S
C542 H559 0.930 1_655 S
C543 O528 1.255 . S
C543 O529 1.257 1_545 S
C544 Eu480 2.787 . S
C544 O524 1.252 . S
C544 O527 1.268 . S
C544 C537 1.506 . S
C545 C512 1.439 . S
C545 H522 0.931 . S
C545 C546 1.374 . S
C546 C517 1.387 . S
C546 H523 0.931 . S
C546 C545 1.374 . S
C547 O531 1.249 . S
C547 O532 1.264 . S
C548 C551 1.382 . S
C548 C552 1.390 . S
C548 C555 1.506 . S
C549 C550 1.398 . S
C549 C552 1.392 . S
C550 C549 1.398 . S
C550 C553 1.372 . S
C550 H560 0.931 . S
C551 C548 1.382 . S
C551 C553 1.390 . S
C551 H561 0.931 . S
C552 C548 1.390 . S
C552 C549 1.392 . S
C552 H562 0.930 . S
C553 C550 1.372 . S
C553 C551 1.390 . S
C553 H563 0.929 . S
C554 O534 1.257 . S
C554 O535 1.257 . S
C555 Eu491 2.787 . S
C555 O530 1.252 . S
C555 O533 1.268 . S
C555 C548 1.506 . S
H556 C539 0.931 . S
H557 C540 0.931 . S
H558 C541 0.929 . S
H559 C542 0.930 1_455 S
H560 C550 0.931 . S
H561 C551 0.931 . S
H562 C552 0.930 . S
H563 C553 0.929 . S
Eu564 N593 2.600 . S
Eu564 N599 2.562 . S
Eu564 O608 2.462 . S
Eu564 O609 2.373 . S
Eu564 O611 2.432 . S
Eu564 O612 2.291 . S
Eu564 O616 2.335 1_545 S
Eu564 O619 2.372 . S
Eu564 C628 2.787 . S
C565 N566 1.365 . S
C565 C568 1.405 . S
C565 C572 1.448 . S
N566 C565 1.365 . S
N566 C569 1.319 . S
N566 Eu575 2.600 . S
C567 C569 1.397 . S
C567 C570 1.367 . S
C567 H587 0.931 . S
C568 C565 1.405 . S
C568 C570 1.403 . S
C568 C574 1.439 . S
C569 N566 1.319 . S
C569 C567 1.397 . S
C569 H580 0.930 . S
C570 C567 1.367 . S
C570 C568 1.403 . S
C570 H591 0.929 . S
C571 C572 1.430 . S
C571 C573 1.387 . S
C571 C577 1.404 . S
C572 C565 1.448 . S
C572 C571 1.430 . S
C572 N576 1.351 . S
C573 C571 1.387 . S
C573 C574 1.374 . S
C573 H588 0.931 . S
C574 C568 1.439 . S
C574 C573 1.374 . S
C574 H589 0.931 . S
Eu575 N566 2.600 . S
Eu575 N576 2.562 . S
Eu575 O610 2.335 1_565 S
Eu575 O613 2.372 . S
Eu575 O614 2.462 . S
Eu575 O615 2.373 . S
Eu575 O617 2.432 . S
Eu575 O618 2.277 1_565 S
Eu575 C639 2.787 . S
N576 C572 1.351 . S
N576 Eu575 2.562 . S
N576 C578 1.325 . S
C577 C571 1.404 . S
C577 C579 1.366 . S
C577 H585 0.930 . S
C578 N576 1.325 . S
C578 C579 1.416 . S
C578 H584 0.929 . S
C579 C577 1.366 . S
C579 C578 1.416 . S
C579 H581 0.930 . S
H580 C569 0.930 . S
H581 C579 0.930 . S
H582 C597 0.930 . S
H583 C604 0.930 . S
H584 C578 0.929 . S
H585 C577 0.930 . S
H586 C600 0.929 . S
H587 C567 0.931 . S
H588 C573 0.931 . S
H589 C574 0.931 . S
H590 C595 0.931 . S
H591 C570 0.929 . S
H592 C603 0.930 . S
N593 Eu564 2.600 . S
N593 C594 1.365 . S
N593 C597 1.319 . S
C594 N593 1.365 . S
C594 C596 1.405 . S
C594 C602 1.448 . S
C595 H590 0.931 . S
C595 C597 1.397 . S
C595 C598 1.367 . S
C596 C594 1.405 . S
C596 C598 1.403 . S
C596 C629 1.439 . S
C597 H582 0.930 . S
C597 N593 1.319 . S
C597 C595 1.397 . S
C598 C595 1.367 . S
C598 C596 1.403 . S
C598 H605 0.929 . S
N599 Eu564 2.562 . S
N599 C600 1.325 . S
N599 C602 1.351 . S
C600 H586 0.929 . S
C600 N599 1.325 . S
C600 C604 1.416 . S
C601 C602 1.430 . S
C601 C603 1.404 . S
C601 C630 1.387 . S
C602 C594 1.448 . S
C602 N599 1.351 . S
C602 C601 1.430 . S
C603 H592 0.930 . S
C603 C601 1.404 . S
C603 C604 1.366 . S
C604 H583 0.930 . S
C604 C600 1.416 . S
C604 C603 1.366 . S
H605 C598 0.929 . S
H606 C629 0.931 . S
H607 C630 0.931 . S
O608 Eu564 2.462 . S
O608 C628 1.252 . S
O609 Eu564 2.373 . S
O609 C620 1.249 . S
O610 Eu575 2.335 1_545 S
O610 C620 1.264 . S
O611 Eu564 2.432 . S
O611 C628 1.268 . S
O612 Eu564 2.291 . S
O612 C627 1.255 1_545 S
O613 Eu575 2.372 . S
O613 C627 1.257 . S
O614 Eu575 2.462 . S
O614 C639 1.252 . S
O615 Eu575 2.373 . S
O615 C631 1.249 . S
O616 Eu564 2.335 1_565 S
O616 C631 1.264 . S
O617 Eu575 2.432 . S
O617 C639 1.268 . S
O618 Eu575 2.277 1_545 S
O618 C638 1.276 . S
O619 Eu564 2.372 . S
O619 C638 1.257 . S
C620 O609 1.249 . S
C620 O610 1.264 . S
C621 C624 1.382 1_556 S
C621 C626 1.390 . S
C621 C628 1.506 . S
C622 C623 1.398 1_556 S
C622 C626 1.392 . S
C623 C622 1.398 1_554 S
C623 C625 1.372 . S
C623 H640 0.931 . S
C624 C621 1.382 1_554 S
C624 C625 1.390 . S
C624 H641 0.931 . S
C625 C623 1.372 . S
C625 C624 1.390 . S
C625 H642 0.929 . S
C626 C621 1.390 . S
C626 C622 1.392 . S
C626 H643 0.930 . S
C627 O612 1.255 1_565 S
C627 O613 1.257 . S
C628 Eu564 2.787 . S
C628 O608 1.252 . S
C628 O611 1.268 . S
C628 C621 1.506 . S
C629 C596 1.439 . S
C629 H606 0.931 . S
C629 C630 1.374 . S
C630 C601 1.387 . S
C630 H607 0.931 . S
C630 C629 1.374 . S
C631 O615 1.249 . S
C631 O616 1.264 . S
C632 C635 1.382 . S
C632 C636 1.390 . S
C632 C639 1.506 . S
C633 C634 1.398 . S
C633 C636 1.392 . S
C634 C633 1.398 . S
C634 C637 1.372 . S
C634 H644 0.931 . S
C635 C632 1.382 . S
C635 C637 1.390 . S
C635 H645 0.931 . S
C636 C632 1.390 . S
C636 C633 1.392 . S
C636 H646 0.930 . S
C637 C634 1.372 . S
C637 C635 1.390 . S
C637 H647 0.929 . S
C638 O618 1.276 . S
C638 O619 1.257 . S
C639 Eu575 2.787 . S
C639 O614 1.252 . S
C639 O617 1.268 . S
C639 C632 1.506 . S
H640 C623 0.931 . S
H641 C624 0.931 . S
H642 C625 0.929 . S
H643 C626 0.930 . S
H644 C634 0.931 . S
H645 C635 0.931 . S
H646 C636 0.930 . S
H647 C637 0.929 . S
Eu648 N677 2.600 . S
Eu648 N683 2.562 . S
Eu648 O692 2.462 . S
Eu648 O693 2.373 . S
Eu648 O695 2.432 . S
Eu648 O696 2.291 . S
Eu648 O700 2.335 . S
Eu648 O703 2.372 . S
Eu648 C712 2.787 . S
C649 N650 1.365 . S
C649 C652 1.405 . S
C649 C656 1.448 . S
N650 C649 1.365 . S
N650 C653 1.319 . S
N650 Eu659 2.600 . S
C651 C653 1.397 . S
C651 C654 1.367 . S
C651 H671 0.931 . S
C652 C649 1.405 . S
C652 C654 1.403 . S
C652 C658 1.439 . S
C653 N650 1.319 . S
C653 C651 1.397 . S
C653 H664 0.930 . S
C654 C651 1.367 . S
C654 C652 1.403 . S
C654 H675 0.929 . S
C655 C656 1.430 . S
C655 C657 1.387 1_556 S
C655 C661 1.404 1_556 S
C656 C649 1.448 . S
C656 C655 1.430 . S
C656 N660 1.351 . S
C657 C655 1.387 1_554 S
C657 C658 1.374 1_554 S
C657 H672 0.931 . S
C658 C652 1.439 . S
C658 C657 1.374 1_556 S
C658 H673 0.931 . S
Eu659 N650 2.600 . S
Eu659 N660 2.562 . S
Eu659 O694 2.335 . S
Eu659 O697 2.372 . S
Eu659 O698 2.462 . S
Eu659 O699 2.373 . S
Eu659 O701 2.432 . S
Eu659 O702 2.291 . S
Eu659 C723 2.787 . S
N660 C656 1.351 . S
N660 Eu659 2.562 . S
N660 C662 1.325 . S
C661 C655 1.404 1_554 S
C661 C663 1.366 . S
C661 H669 0.930 . S
C662 N660 1.325 . S
C662 C663 1.416 1_556 S
C662 H668 0.929 . S
C663 C661 1.366 . S
C663 C662 1.416 1_554 S
C663 H665 0.930 . S
H664 C653 0.930 . S
H665 C663 0.930 . S
H666 C681 0.930 . S
H667 C688 0.930 . S
H668 C662 0.929 . S
H669 C661 0.930 . S
H670 C684 0.929 . S
H671 C651 0.931 . S
H672 C657 0.931 . S
H673 C658 0.931 . S
H674 C679 0.931 . S
H675 C654 0.929 . S
H676 C687 0.930 . S
N677 Eu648 2.600 . S
N677 C678 1.365 . S
N677 C681 1.319 . S
C678 N677 1.365 . S
C678 C680 1.405 . S
C678 C686 1.448 . S
C679 H674 0.931 . S
C679 C681 1.397 . S
C679 C682 1.367 . S
C680 C678 1.405 . S
C680 C682 1.403 . S
C680 C713 1.439 . S
C681 H666 0.930 . S
C681 N677 1.319 . S
C681 C679 1.397 . S
C682 C679 1.367 . S
C682 C680 1.403 . S
C682 H689 0.929 . S
N683 Eu648 2.562 . S
N683 C684 1.325 . S
N683 C686 1.351 . S
C684 H670 0.929 . S
C684 N683 1.325 . S
C684 C688 1.416 . S
C685 C686 1.430 . S
C685 C687 1.404 . S
C685 C714 1.387 . S
C686 C678 1.448 . S
C686 N683 1.351 . S
C686 C685 1.430 . S
C687 H676 0.930 . S
C687 C685 1.404 . S
C687 C688 1.366 . S
C688 H667 0.930 . S
C688 C684 1.416 . S
C688 C687 1.366 . S
H689 C682 0.929 . S
H690 C713 0.931 . S
H691 C714 0.931 . S
O692 Eu648 2.462 . S
O692 C712 1.252 . S
O693 Eu648 2.373 . S
O693 C704 1.249 . S
O694 Eu659 2.335 . S
O694 C704 1.264 . S
O695 Eu648 2.432 . S
O695 C712 1.268 . S
O696 Eu648 2.291 . S
O696 C711 1.255 . S
O697 Eu659 2.372 . S
O697 C711 1.257 . S
O698 Eu659 2.462 . S
O698 C723 1.252 . S
O699 Eu659 2.373 . S
O699 C715 1.249 . S
O700 Eu648 2.335 . S
O700 C715 1.264 . S
O701 Eu659 2.432 . S
O701 C723 1.268 . S
O702 Eu659 2.291 . S
O702 C722 1.255 . S
O703 Eu648 2.372 . S
O703 C722 1.257 . S
C704 O693 1.249 . S
C704 O694 1.264 . S
C705 C708 1.382 . S
C705 C710 1.390 . S
C705 C712 1.506 . S
C706 C707 1.398 . S
C706 C710 1.392 . S
C707 C706 1.398 . S
C707 C709 1.372 . S
C707 H724 0.931 . S
C708 C705 1.382 . S
C708 C709 1.390 . S
C708 H725 0.931 . S
C709 C707 1.372 . S
C709 C708 1.390 . S
C709 H726 0.929 . S
C710 C705 1.390 . S
C710 C706 1.392 . S
C710 H727 0.930 . S
C711 O696 1.255 . S
C711 O697 1.257 . S
C712 Eu648 2.787 . S
C712 O692 1.252 . S
C712 O695 1.268 . S
C712 C705 1.506 . S
C713 C680 1.439 . S
C713 H690 0.931 . S
C713 C714 1.374 . S
C714 C685 1.387 . S
C714 H691 0.931 . S
C714 C713 1.374 . S
C715 O699 1.249 . S
C715 O700 1.264 . S
C716 C719 1.382 . S
C716 C720 1.390 . S
C716 C723 1.506 . S
C717 C718 1.398 . S
C717 C720 1.392 . S
C718 C717 1.398 . S
C718 C721 1.372 . S
C718 H728 0.931 . S
C719 C716 1.382 . S
C719 C721 1.390 . S
C719 H729 0.931 . S
C720 C716 1.390 . S
C720 C717 1.392 . S
C720 H730 0.930 . S
C721 C718 1.372 . S
C721 C719 1.390 . S
C721 H731 0.929 . S
C722 O702 1.255 . S
C722 O703 1.257 . S
C723 Eu659 2.787 . S
C723 O698 1.252 . S
C723 O701 1.268 . S
C723 C716 1.506 . S
H724 C707 0.931 . S
H725 C708 0.931 . S
H726 C709 0.929 . S
H727 C710 0.930 . S
H728 C718 0.931 . S
H729 C719 0.931 . S
H730 C720 0.930 . S
H731 C721 0.929 . S
Eu732 N761 2.600 . S
Eu732 N767 2.562 . S
Eu732 O776 2.462 . S
Eu732 O777 2.373 1_455 S
Eu732 O779 2.432 . S
Eu732 O780 2.291 . S
Eu732 O784 2.335 . S
Eu732 O787 2.372 . S
Eu732 C796 2.787 . S
C733 N734 1.365 1_455 S
C733 C736 1.405 . S
C733 C740 1.448 . S
N734 C733 1.365 1_655 S
N734 C737 1.319 . S
N734 Eu743 2.600 . S
C735 C737 1.397 1_455 S
C735 C738 1.367 . S
C735 H755 0.931 . S
C736 C733 1.405 . S
C736 C738 1.403 . S
C736 C742 1.439 . S
C737 N734 1.319 . S
C737 C735 1.397 1_655 S
C737 H748 0.930 . S
C738 C735 1.367 . S
C738 C736 1.403 . S
C738 H759 0.929 . S
C739 C740 1.430 . S
C739 C741 1.387 1_556 S
C739 C745 1.404 1_556 S
C740 C733 1.448 . S
C740 C739 1.430 . S
C740 N744 1.351 . S
C741 C739 1.387 1_554 S
C741 C742 1.374 1_554 S
C741 H756 0.931 . S
C742 C736 1.439 . S
C742 C741 1.374 1_556 S
C742 H757 0.931 . S
Eu743 N734 2.600 . S
Eu743 N744 2.562 1_655 S
Eu743 O778 2.335 . S
Eu743 O781 2.372 . S
Eu743 O782 2.462 . S
Eu743 O783 2.373 1_655 S
Eu743 O785 2.432 . S
Eu743 O786 2.291 . S
Eu743 C807 2.787 . S
N744 C740 1.351 . S
N744 Eu743 2.562 1_455 S
N744 C746 1.325 . S
C745 C739 1.404 1_554 S
C745 C747 1.366 . S
C745 H753 0.930 . S
C746 N744 1.325 . S
C746 C747 1.416 1_556 S
C746 H752 0.928 1_455 S
C747 C745 1.366 . S
C747 C746 1.416 1_554 S
C747 H749 0.930 . S
H748 C737 0.930 . S
H749 C747 0.930 . S
H750 C765 0.930 . S
H751 C772 0.930 . S
H752 C746 0.928 1_655 S
H753 C745 0.930 . S
H754 C768 0.929 . S
H755 C735 0.931 . S
H756 C741 0.931 . S
H757 C742 0.931 . S
H758 C763 0.931 . S
H759 C738 0.929 . S
H760 C771 0.930 . S
N761 Eu732 2.600 . S
N761 C762 1.365 1_455 S
N761 C765 1.319 . S
C762 N761 1.365 1_655 S
C762 C764 1.405 . S
C762 C770 1.448 . S
C763 H758 0.931 . S
C763 C765 1.397 . S
C763 C766 1.367 1_455 S
C764 C762 1.405 . S
C764 C766 1.403 . S
C764 C797 1.439 . S
C765 H750 0.930 . S
C765 N761 1.319 . S
C765 C763 1.397 . S
C766 C763 1.367 1_655 S
C766 C764 1.403 . S
C766 H773 0.929 . S
N767 Eu732 2.562 . S
N767 C768 1.325 . S
N767 C770 1.351 1_455 S
C768 H754 0.929 . S
C768 N767 1.325 . S
C768 C772 1.416 1_455 S
C769 C770 1.430 . S
C769 C771 1.404 . S
C769 C798 1.387 . S
C770 C762 1.448 . S
C770 N767 1.351 1_655 S
C770 C769 1.430 . S
C771 H760 0.930 . S
C771 C769 1.404 . S
C771 C772 1.366 . S
C772 H751 0.930 . S
C772 C768 1.416 1_655 S
C772 C771 1.366 . S
H773 C766 0.929 . S
H774 C797 0.931 . S
H775 C798 0.931 . S
O776 Eu732 2.462 . S
O776 C796 1.252 . S
O777 Eu732 2.373 1_655 S
O777 C788 1.249 . S
O778 Eu743 2.335 . S
O778 C788 1.264 . S
O779 Eu732 2.432 . S
O779 C796 1.268 . S
O780 Eu732 2.291 . S
O780 C795 1.255 . S
O781 Eu743 2.372 . S
O781 C795 1.257 1_655 S
O782 Eu743 2.462 . S
O782 C807 1.252 . S
O783 Eu743 2.373 1_455 S
O783 C799 1.249 . S
O784 Eu732 2.335 . S
O784 C799 1.264 . S
O785 Eu743 2.432 . S
O785 C807 1.268 . S
O786 Eu743 2.291 . S
O786 C806 1.255 1_655 S
O787 Eu732 2.372 . S
O787 C806 1.257 . S
C788 O777 1.249 . S
C788 O778 1.264 . S
C789 C792 1.382 . S
C789 C794 1.390 . S
C789 C796 1.506 . S
C790 C791 1.398 . S
C790 C794 1.392 . S
C791 C790 1.398 . S
C791 C793 1.372 . S
C791 H808 0.931 . S
C792 C789 1.382 . S
C792 C793 1.390 . S
C792 H809 0.931 . S
C793 C791 1.372 . S
C793 C792 1.390 . S
C793 H810 0.929 . S
C794 C789 1.390 . S
C794 C790 1.392 . S
C794 H811 0.930 . S
C795 O780 1.255 . S
C795 O781 1.257 1_455 S
C796 Eu732 2.787 . S
C796 O776 1.252 . S
C796 O779 1.268 . S
C796 C789 1.506 . S
C797 C764 1.439 . S
C797 H774 0.931 . S
C797 C798 1.374 . S
C798 C769 1.387 . S
C798 H775 0.931 . S
C798 C797 1.374 . S
C799 O783 1.249 . S
C799 O784 1.264 . S
C800 C803 1.382 . S
C800 C804 1.390 . S
C800 C807 1.506 . S
C801 C802 1.398 . S
C801 C804 1.392 . S
C802 C801 1.398 . S
C802 C805 1.372 . S
C802 H812 0.931 . S
C803 C800 1.382 . S
C803 C805 1.390 . S
C803 H813 0.931 . S
C804 C800 1.390 . S
C804 C801 1.392 . S
C804 H814 0.930 . S
C805 C802 1.372 . S
C805 C803 1.390 . S
C805 H815 0.929 . S
C806 O786 1.255 1_455 S
C806 O787 1.257 . S
C807 Eu743 2.787 . S
C807 O782 1.252 . S
C807 O785 1.268 . S
C807 C800 1.506 . S
H808 C791 0.931 . S
H809 C792 0.931 . S
H810 C793 0.929 . S
H811 C794 0.930 . S
H812 C802 0.931 . S
H813 C803 0.931 . S
H814 C804 0.930 . S
H815 C805 0.929 . S
C816 C817 1.363 . S
C816 C822 1.379 . S
C816 N824 1.356 1_545 S
C817 C816 1.363 . S
C817 C823 1.363 . S
C818 C819 1.363 . S
C818 C823 1.379 . S
C818 N825 1.356 . S
C819 C818 1.363 . S
C819 C822 1.363 . S
N820 C822 1.356 1_565 S
N820 H832 0.984 . S
N820 H833 0.985 . S
N821 C823 1.356 . S
N821 H826 0.984 . S
N821 H827 0.985 . S
C822 C816 1.379 . S
C822 C819 1.363 . S
C822 N820 1.356 1_545 S
C823 C817 1.363 . S
C823 C818 1.379 . S
C823 N821 1.356 . S
N824 C816 1.356 1_565 S
N824 H830 0.984 . S
N824 H831 0.984 1_565 S
N825 C818 1.356 . S
N825 H828 0.984 . S
N825 H829 0.985 . S
H826 N821 0.984 . S
H827 N821 0.985 . S
H828 N825 0.984 . S
H829 N825 0.985 . S
H830 N824 0.984 . S
H831 N824 0.984 1_545 S
H832 N820 0.984 . S
H833 N820 0.985 . S
C834 C835 1.363 . S
C834 C840 1.379 . S
C834 N842 1.356 . S
C835 C834 1.363 . S
C835 C841 1.363 . S
C836 C837 1.363 . S
C836 C841 1.379 . S
C836 N843 1.356 . S
C837 C836 1.363 . S
C837 C840 1.363 . S
N838 C840 1.356 . S
N838 H850 0.984 . S
N838 H851 0.985 . S
N839 C841 1.356 . S
N839 H844 0.984 . S
N839 H845 0.985 . S
C840 C834 1.379 . S
C840 C837 1.363 . S
C840 N838 1.356 . S
C841 C835 1.363 . S
C841 C836 1.379 . S
C841 N839 1.356 . S
N842 C834 1.356 . S
N842 H848 0.984 . S
N842 H849 0.984 . S
N843 C836 1.356 . S
N843 H846 0.984 . S
N843 H847 0.985 . S
H844 N839 0.984 . S
H845 N839 0.985 . S
H846 N843 0.984 . S
H847 N843 0.985 . S
H848 N842 0.984 . S
H849 N842 0.984 . S
H850 N838 0.984 . S
H851 N838 0.985 . S
C852 C853 1.363 . S
C852 C858 1.379 . S
C852 N860 1.356 . S
C853 C852 1.363 . S
C853 C859 1.363 . S
C854 C855 1.363 . S
C854 C859 1.379 . S
C854 N861 1.356 . S
C855 C854 1.363 . S
C855 C858 1.363 . S
N856 C858 1.356 . S
N856 H868 0.984 . S
N856 H869 0.985 . S
N857 C859 1.356 . S
N857 H862 0.984 . S
N857 H863 0.985 . S
C858 C852 1.379 . S
C858 C855 1.363 . S
C858 N856 1.356 . S
C859 C853 1.363 . S
C859 C854 1.379 . S
C859 N857 1.356 . S
N860 C852 1.356 . S
N860 H866 0.984 . S
N860 H867 0.984 . S
N861 C854 1.356 . S
N861 H864 0.984 . S
N861 H865 0.985 . S
H862 N857 0.984 . S
H863 N857 0.985 . S
H864 N861 0.984 . S
H865 N861 0.985 . S
H866 N860 0.984 . S
H867 N860 0.984 . S
H868 N856 0.984 . S
H869 N856 0.985 . S
C870 C871 1.363 . S
C870 C876 1.379 . S
C870 N878 1.356 . S
C871 C870 1.363 . S
C871 C877 1.363 . S
C872 C873 1.363 . S
C872 C877 1.379 . S
C872 N879 1.356 . S
C873 C872 1.363 . S
C873 C876 1.363 . S
N874 C876 1.356 1_655 S
N874 H886 0.984 . S
N874 H887 0.985 . S
N875 C877 1.356 . S
N875 H880 0.984 . S
N875 H881 0.985 . S
C876 C870 1.379 . S
C876 C873 1.363 . S
C876 N874 1.356 1_455 S
C877 C871 1.363 . S
C877 C872 1.379 . S
C877 N875 1.356 . S
N878 C870 1.356 . S
N878 H884 0.984 1_455 S
N878 H885 0.984 . S
N879 C872 1.356 . S
N879 H882 0.984 . S
N879 H883 0.985 . S
H880 N875 0.984 . S
H881 N875 0.985 . S
H882 N879 0.984 . S
H883 N879 0.985 . S
H884 N878 0.984 1_655 S
H885 N878 0.984 . S
H886 N874 0.984 . S
H887 N874 0.985 . S
C888 C889 1.363 . S
C888 C894 1.379 1_554 S
C888 N896 1.356 . S
C889 C888 1.363 . S
C889 C895 1.363 1_565 S
C890 C891 1.363 1_545 S
C890 C895 1.379 1_556 S
C890 N897 1.356 . S
C891 C890 1.363 1_565 S
C891 C894 1.363 . S
N892 C894 1.356 . S
N892 H904 0.984 . S
N892 H905 0.985 . S
N893 C895 1.356 . S
N893 H898 0.984 . S
N893 H899 0.985 . S
C894 C888 1.379 1_556 S
C894 C891 1.363 . S
C894 N892 1.356 . S
C895 C889 1.363 1_545 S
C895 C890 1.379 1_554 S
C895 N893 1.356 . S
N896 C888 1.356 . S
N896 H902 0.984 . S
N896 H903 0.984 . S
N897 C890 1.356 . S
N897 H900 0.984 . S
N897 H901 0.985 . S
H898 N893 0.984 . S
H899 N893 0.985 . S
H900 N897 0.984 . S
H901 N897 0.985 . S
H902 N896 0.984 . S
H903 N896 0.984 . S
H904 N892 0.984 . S
H905 N892 0.985 . S
C906 C907 1.363 . S
C906 C912 1.379 1_554 S
C906 N914 1.356 . S
C907 C906 1.363 . S
C907 C913 1.363 . S
C908 C909 1.363 . S
C908 C913 1.379 1_556 S
C908 N915 1.356 . S
C909 C908 1.363 . S
C909 C912 1.363 . S
N910 C912 1.356 . S
N910 H922 0.984 . S
N910 H923 0.985 . S
N911 C913 1.356 . S
N911 H916 0.984 . S
N911 H917 0.985 . S
C912 C906 1.379 1_556 S
C912 C909 1.363 . S
C912 N910 1.356 . S
C913 C907 1.363 . S
C913 C908 1.379 1_554 S
C913 N911 1.356 . S
N914 C906 1.356 . S
N914 H920 0.984 . S
N914 H921 0.984 . S
N915 C908 1.356 . S
N915 H918 0.984 . S
N915 H919 0.985 . S
H916 N911 0.984 . S
H917 N911 0.985 . S
H918 N915 0.984 . S
H919 N915 0.985 . S
H920 N914 0.984 . S
H921 N914 0.984 . S
H922 N910 0.984 . S
H923 N910 0.985 . S
C924 C925 1.363 . S
C924 C930 1.379 1_554 S
C924 N932 1.356 . S
C925 C924 1.363 . S
C925 C931 1.363 . S
C926 C927 1.363 . S
C926 C931 1.379 1_556 S
C926 N933 1.356 . S
C927 C926 1.363 . S
C927 C930 1.363 . S
N928 C930 1.356 . S
N928 H940 0.984 . S
N928 H941 0.985 . S
N929 C931 1.356 . S
N929 H934 0.984 . S
N929 H935 0.985 . S
C930 C924 1.379 1_556 S
C930 C927 1.363 . S
C930 N928 1.356 . S
C931 C925 1.363 . S
C931 C926 1.379 1_554 S
C931 N929 1.356 . S
N932 C924 1.356 . S
N932 H938 0.984 . S
N932 H939 0.984 . S
N933 C926 1.356 . S
N933 H936 0.984 . S
N933 H937 0.985 . S
H934 N929 0.984 . S
H935 N929 0.985 . S
H936 N933 0.984 . S
H937 N933 0.985 . S
H938 N932 0.984 . S
H939 N932 0.984 . S
H940 N928 0.984 . S
H941 N928 0.985 . S
C942 C943 1.363 . S
C942 C948 1.379 1_654 S
C942 N950 1.356 1_655 S
C943 C942 1.363 . S
C943 C949 1.363 . S
C944 C945 1.363 . S
C944 C949 1.379 1_556 S
C944 N951 1.356 . S
C945 C944 1.363 . S
C945 C948 1.363 1_655 S
N946 C948 1.356 . S
N946 H958 0.984 . S
N946 H959 0.985 . S
N947 C949 1.356 . S
N947 H952 0.984 . S
N947 H953 0.985 . S
C948 C942 1.379 1_456 S
C948 C945 1.363 1_455 S
C948 N946 1.356 . S
C949 C943 1.363 . S
C949 C944 1.379 1_554 S
C949 N947 1.356 . S
N950 C942 1.356 1_455 S
N950 H956 0.984 . S
N950 H957 0.977 1_455 S
N951 C944 1.356 . S
N951 H954 0.984 . S
N951 H955 0.985 . S
H952 N947 0.984 . S
H953 N947 0.985 . S
H954 N951 0.984 . S
H955 N951 0.985 . S
H956 N950 0.984 . S
H957 N950 0.977 1_655 S
H958 N946 0.984 . S
H959 N946 0.985 . S
C960 C961 1.363 . S
C960 C966 1.379 1_455 S
C960 N968 1.356 . S
C961 C960 1.363 . S
C961 C967 1.363 . S
C962 C963 1.363 1_455 S
C962 C967 1.379 . S
C962 N969 1.356 . S
C963 C962 1.363 1_655 S
C963 C966 1.363 . S
N964 C966 1.356 . S
N964 H976 0.984 . S
N964 H977 0.985 . S
N965 C967 1.356 . S
N965 H970 0.984 . S
N965 H971 0.985 . S
C966 C960 1.379 1_655 S
C966 C963 1.363 . S
C966 N964 1.356 . S
C967 C961 1.363 . S
C967 C962 1.379 . S
C967 N965 1.356 . S
N968 C960 1.356 . S
N968 H974 0.984 1_455 S
N968 H975 0.984 . S
N969 C962 1.356 . S
N969 H972 0.970 1_455 S
N969 H973 0.985 . S
H970 N965 0.984 . S
H971 N965 0.985 . S
H972 N969 0.970 1_655 S
H973 N969 0.985 . S
H974 N968 0.984 1_655 S
H975 N968 0.984 . S
H976 N964 0.984 . S
H977 N964 0.985 . S
C978 C979 1.363 . S
C978 C984 1.379 . S
C978 N986 1.356 . S
C979 C978 1.363 . S
C979 C985 1.363 . S
C980 C981 1.368 . S
C980 C985 1.354 1_565 S
C980 N987 1.382 . S
C981 C980 1.368 . S
C981 C984 1.363 1_565 S
N982 C984 1.356 . S
N982 H994 0.984 . S
N982 H995 0.985 1_545 S
N983 C985 1.356 . S
N983 H988 0.984 . S
N983 H989 0.985 . S
C984 C978 1.379 . S
C984 C981 1.363 1_545 S
C984 N982 1.356 . S
C985 C979 1.363 . S
C985 C980 1.354 1_545 S
C985 N983 1.356 . S
N986 C978 1.356 . S
N986 H992 0.984 . S
N986 H993 0.984 . S
N987 C980 1.382 . S
N987 H990 0.984 . S
N987 H991 0.985 . S
H988 N983 0.984 . S
H989 N983 0.985 . S
H990 N987 0.984 . S
H991 N987 0.985 . S
H992 N986 0.984 . S
H993 N986 0.984 . S
H994 N982 0.984 . S
H995 N982 0.985 1_565 S
C996 C997 1.363 . S
C996 C1002 1.379 . S
C996 N1004 1.356 . S
C997 C996 1.363 . S
C997 C1003 1.363 . S
C998 C999 1.363 . S
C998 C1003 1.379 . S
C998 N1005 1.356 . S
C999 C998 1.363 . S
C999 C1002 1.363 . S
N1000 C1002 1.356 . S
N1000 H1012 0.984 . S
N1000 H1013 0.985 . S
N1001 C1003 1.356 . S
N1001 H1006 0.984 . S
N1001 H1007 0.985 . S
C1002 C996 1.379 . S
C1002 C999 1.363 . S
C1002 N1000 1.356 . S
C1003 C997 1.363 . S
C1003 C998 1.379 . S
C1003 N1001 1.356 . S
N1004 C996 1.356 . S
N1004 H1010 0.984 . S
N1004 H1011 0.984 . S
N1005 C998 1.356 . S
N1005 H1008 0.984 . S
N1005 H1009 0.985 . S
H1006 N1001 0.984 . S
H1007 N1001 0.985 . S
H1008 N1005 0.984 . S
H1009 N1005 0.985 . S
H1010 N1004 0.984 . S
H1011 N1004 0.984 . S
H1012 N1000 0.984 . S
H1013 N1000 0.985 . S
C1014 C1015 1.363 . S
C1014 C1020 1.379 . S
C1014 N1022 1.356 . S
C1015 C1014 1.363 . S
C1015 C1021 1.363 . S
C1016 C1017 1.363 . S
C1016 C1021 1.379 . S
C1016 N1023 1.356 . S
C1017 C1016 1.363 . S
C1017 C1020 1.363 . S
N1018 C1020 1.356 . S
N1018 H1030 0.984 . S
N1018 H1031 0.985 . S
N1019 C1021 1.356 . S
N1019 H1024 0.984 . S
N1019 H1025 0.985 . S
C1020 C1014 1.379 . S
C1020 C1017 1.363 . S
C1020 N1018 1.356 . S
C1021 C1015 1.363 . S
C1021 C1016 1.379 . S
C1021 N1019 1.356 . S
N1022 C1014 1.356 . S
N1022 H1028 0.984 . S
N1022 H1029 0.984 . S
N1023 C1016 1.356 . S
N1023 H1026 0.984 . S
N1023 H1027 0.985 . S
H1024 N1019 0.984 . S
H1025 N1019 0.985 . S
H1026 N1023 0.984 . S
H1027 N1023 0.985 . S
H1028 N1022 0.984 . S
H1029 N1022 0.984 . S
H1030 N1018 0.984 . S
H1031 N1018 0.985 . S
C1032 C1033 1.363 1_556 S
C1032 C1038 1.379 1_655 S
C1032 N1040 1.356 . S
C1033 C1032 1.363 1_554 S
C1033 C1039 1.363 . S
C1034 C1035 1.363 1_654 S
C1034 C1039 1.379 . S
C1034 N1041 1.356 1_655 S
C1035 C1034 1.363 1_456 S
C1035 C1038 1.363 . S
N1036 C1038 1.356 . S
N1036 H1048 0.984 . S
N1036 H1049 0.985 . S
N1037 C1039 1.356 . S
N1037 H1042 0.984 . S
N1037 H1043 0.985 . S
C1038 C1032 1.379 1_455 S
C1038 C1035 1.363 . S
C1038 N1036 1.356 . S
C1039 C1033 1.363 . S
C1039 C1034 1.379 . S
C1039 N1037 1.356 . S
N1040 C1032 1.356 . S
N1040 H1046 0.984 . S
N1040 H1047 0.984 . S
N1041 C1034 1.356 1_455 S
N1041 H1044 0.984 . S
N1041 H1045 0.985 1_455 S
H1042 N1037 0.984 . S
H1043 N1037 0.985 . S
H1044 N1041 0.984 . S
H1045 N1041 0.985 1_655 S
H1046 N1040 0.984 . S
H1047 N1040 0.984 . S
H1048 N1036 0.984 . S
H1049 N1036 0.985 . S
C1050 C1051 1.363 . S
C1050 C1056 1.379 1_554 S
C1050 N1058 1.356 . S
C1051 C1050 1.363 . S
C1051 C1057 1.363 1_565 S
C1052 C1053 1.363 1_554 S
C1052 C1057 1.379 . S
C1052 N1059 1.356 1_554 S
C1053 C1052 1.363 1_556 S
C1053 C1056 1.363 1_545 S
N1054 C1056 1.356 . S
N1054 H1066 0.984 . S
N1054 H1067 0.985 1_565 S
N1055 C1057 1.360 . S
N1055 H1060 0.950 1_545 S
N1055 H1061 1.016 . S
C1056 C1050 1.379 1_556 S
C1056 C1053 1.363 1_565 S
C1056 N1054 1.356 . S
C1057 C1051 1.363 1_545 S
C1057 C1052 1.379 . S
C1057 N1055 1.360 . S
N1058 C1050 1.356 . S
N1058 H1064 0.984 . S
N1058 H1065 0.984 . S
N1059 C1052 1.356 1_556 S
N1059 H1062 0.984 . S
N1059 H1063 0.985 . S
H1060 N1055 0.950 1_565 S
H1061 N1055 1.016 . S
H1062 N1059 0.984 . S
H1063 N1059 0.985 . S
H1064 N1058 0.984 . S
H1065 N1058 0.984 . S
H1066 N1054 0.984 . S
H1067 N1054 0.985 1_545 S
C1068 C1069 1.363 . S
C1068 C1074 1.379 . S
C1068 N1076 1.356 . S
C1069 C1068 1.363 . S
C1069 C1075 1.363 1_554 S
C1070 C1071 1.363 . S
C1070 C1075 1.379 . S
C1070 N1077 1.356 . S
C1071 C1070 1.363 . S
C1071 C1074 1.363 1_556 S
N1072 C1074 1.356 . S
N1072 H1084 0.984 . S
N1072 H1085 0.985 . S
N1073 C1075 1.356 . S
N1073 H1078 0.984 . S
N1073 H1079 0.985 . S
C1074 C1068 1.379 . S
C1074 C1071 1.363 1_554 S
C1074 N1072 1.356 . S
C1075 C1069 1.363 1_556 S
C1075 C1070 1.379 . S
C1075 N1073 1.356 . S
N1076 C1068 1.356 . S
N1076 H1082 0.984 . S
N1076 H1083 0.984 . S
N1077 C1070 1.356 . S
N1077 H1080 0.984 . S
N1077 H1081 0.985 . S
H1078 N1073 0.984 . S
H1079 N1073 0.985 . S
H1080 N1077 0.984 . S
H1081 N1077 0.985 . S
H1082 N1076 0.984 . S
H1083 N1076 0.984 . S
H1084 N1072 0.984 . S
H1085 N1072 0.985 . S
C1086 C1087 1.363 1_556 S
C1086 C1092 1.379 . S
C1086 N1094 1.356 . S
C1087 C1086 1.363 1_554 S
C1087 C1093 1.363 . S
C1088 C1089 1.363 1_554 S
C1088 C1093 1.379 . S
C1088 N1095 1.356 . S
C1089 C1088 1.363 1_556 S
C1089 C1092 1.363 . S
N1090 C1092 1.356 . S
N1090 H1102 0.984 . S
N1090 H1103 0.985 . S
N1091 C1093 1.356 . S
N1091 H1096 0.984 . S
N1091 H1097 0.985 . S
C1092 C1086 1.379 . S
C1092 C1089 1.363 . S
C1092 N1090 1.356 . S
C1093 C1087 1.363 . S
C1093 C1088 1.379 . S
C1093 N1091 1.356 . S
N1094 C1086 1.356 . S
N1094 H1100 0.984 . S
N1094 H1101 0.984 . S
N1095 C1088 1.356 . S
N1095 H1098 0.984 . S
N1095 H1099 0.985 . S
H1096 N1091 0.984 . S
H1097 N1091 0.985 . S
H1098 N1095 0.984 . S
H1099 N1095 0.985 . S
H1100 N1094 0.984 . S
H1101 N1094 0.984 . S
H1102 N1090 0.984 . S
H1103 N1090 0.985 . S
C1104 C1105 1.363 . S
C1104 C1110 1.379 . S
C1104 N1112 1.356 . S
C1105 C1104 1.363 . S
C1105 C1111 1.363 . S
C1106 C1107 1.363 . S
C1106 C1111 1.379 . S
C1106 N1113 1.351 1_455 S
C1107 C1106 1.363 . S
C1107 C1110 1.363 . S
N1108 C1110 1.356 . S
N1108 H1120 0.984 . S
N1108 H1121 0.985 . S
N1109 C1111 1.356 . S
N1109 H1114 0.984 . S
N1109 H1115 0.985 1_455 S
C1110 C1104 1.379 . S
C1110 C1107 1.363 . S
C1110 N1108 1.356 . S
C1111 C1105 1.363 . S
C1111 C1106 1.379 . S
C1111 N1109 1.356 . S
N1112 C1104 1.356 . S
N1112 H1118 0.984 . S
N1112 H1119 0.984 . S
N1113 C1106 1.351 1_655 S
N1113 H1116 0.983 1_655 S
N1113 H1117 0.991 . S
H1114 N1109 0.984 . S
H1115 N1109 0.985 1_655 S
H1116 N1113 0.983 1_455 S
H1117 N1113 0.991 . S
H1118 N1112 0.984 . S
H1119 N1112 0.984 . S
H1120 N1108 0.984 . S
H1121 N1108 0.985 . S
C1122 C1123 1.363 . S
C1122 C1128 1.379 . S
C1122 N1130 1.356 1_545 S
C1123 C1122 1.363 . S
C1123 C1129 1.363 . S
C1124 C1125 1.363 . S
C1124 C1129 1.379 . S
C1124 N1131 1.356 . S
C1125 C1124 1.363 . S
C1125 C1128 1.363 . S
N1126 C1128 1.356 1_565 S
N1126 H1138 0.984 . S
N1126 H1139 0.985 . S
N1127 C1129 1.356 . S
N1127 H1132 0.984 . S
N1127 H1133 0.985 . S
C1128 C1122 1.379 . S
C1128 C1125 1.363 . S
C1128 N1126 1.356 1_545 S
C1129 C1123 1.363 . S
C1129 C1124 1.379 . S
C1129 N1127 1.356 . S
N1130 C1122 1.356 1_565 S
N1130 H1136 0.984 . S
N1130 H1137 0.984 1_565 S
N1131 C1124 1.356 . S
N1131 H1134 0.984 . S
N1131 H1135 0.985 . S
H1132 N1127 0.984 . S
H1133 N1127 0.985 . S
H1134 N1131 0.984 . S
H1135 N1131 0.985 . S
H1136 N1130 0.984 . S
H1137 N1130 0.984 1_545 S
H1138 N1126 0.984 . S
H1139 N1126 0.985 . S
C1140 C1141 1.363 . S
C1140 C1146 1.379 . S
C1140 N1148 1.356 . S
C1141 C1140 1.363 . S
C1141 C1147 1.363 . S
C1142 C1143 1.363 . S
C1142 C1147 1.379 . S
C1142 N1149 1.356 . S
C1143 C1142 1.363 . S
C1143 C1146 1.363 . S
N1144 C1146 1.356 . S
N1144 H1156 0.984 . S
N1144 H1157 0.985 . S
N1145 C1147 1.356 . S
N1145 H1150 0.984 . S
N1145 H1151 0.985 . S
C1146 C1140 1.379 . S
C1146 C1143 1.363 . S
C1146 N1144 1.356 . S
C1147 C1141 1.363 . S
C1147 C1142 1.379 . S
C1147 N1145 1.356 . S
N1148 C1140 1.356 . S
N1148 H1154 0.984 . S
N1148 H1155 0.984 . S
N1149 C1142 1.356 . S
N1149 H1152 0.984 . S
N1149 H1153 0.985 . S
H1150 N1145 0.984 . S
H1151 N1145 0.985 . S
H1152 N1149 0.984 . S
H1153 N1149 0.985 . S
H1154 N1148 0.984 . S
H1155 N1148 0.984 . S
H1156 N1144 0.984 . S
H1157 N1144 0.985 . S
C1158 C1159 1.363 . S
C1158 C1164 1.379 . S
C1158 N1166 1.356 . S
C1159 C1158 1.363 . S
C1159 C1165 1.363 . S
C1160 C1161 1.363 . S
C1160 C1165 1.379 . S
C1160 N1167 1.356 . S
C1161 C1160 1.363 . S
C1161 C1164 1.363 . S
N1162 C1164 1.356 . S
N1162 H1174 0.984 . S
N1162 H1175 0.985 . S
N1163 C1165 1.356 . S
N1163 H1168 0.984 . S
N1163 H1169 0.985 . S
C1164 C1158 1.379 . S
C1164 C1161 1.363 . S
C1164 N1162 1.356 . S
C1165 C1159 1.363 . S
C1165 C1160 1.379 . S
C1165 N1163 1.356 . S
N1166 C1158 1.356 . S
N1166 H1172 0.984 . S
N1166 H1173 0.984 . S
N1167 C1160 1.356 . S
N1167 H1170 0.984 . S
N1167 H1171 0.985 . S
H1168 N1163 0.984 . S
H1169 N1163 0.985 . S
H1170 N1167 0.984 . S
H1171 N1167 0.985 . S
H1172 N1166 0.984 . S
H1173 N1166 0.984 . S
H1174 N1162 0.984 . S
H1175 N1162 0.985 . S
C1176 C1177 1.363 . S
C1176 C1182 1.381 . S
C1176 N1184 1.356 1_655 S
C1177 C1176 1.363 . S
C1177 C1183 1.363 . S
C1178 C1179 1.363 . S
C1178 C1183 1.379 . S
C1178 N1185 1.356 . S
C1179 C1178 1.363 . S
C1179 C1182 1.376 . S
N1180 C1182 1.345 1_455 S
N1180 H1192 0.984 . S
N1180 H1193 0.985 . S
N1181 C1183 1.356 . S
N1181 H1186 0.984 . S
N1181 H1187 0.985 . S
C1182 C1176 1.381 . S
C1182 C1179 1.376 . S
C1182 N1180 1.345 1_655 S
C1183 C1177 1.363 . S
C1183 C1178 1.379 . S
C1183 N1181 1.356 . S
N1184 C1176 1.356 1_455 S
N1184 H1190 0.984 . S
N1184 H1191 0.984 . S
N1185 C1178 1.356 . S
N1185 H1188 0.984 . S
N1185 H1189 0.985 . S
H1186 N1181 0.984 . S
H1187 N1181 0.985 . S
H1188 N1185 0.984 . S
H1189 N1185 0.985 . S
H1190 N1184 0.984 . S
H1191 N1184 0.984 . S
H1192 N1180 0.984 . S
H1193 N1180 0.985 . S
C1194 C1195 1.363 . S
C1194 C1200 1.379 . S
C1194 N1202 1.356 . S
C1195 C1194 1.363 . S
C1195 C1201 1.363 . S
C1196 C1197 1.363 . S
C1196 C1201 1.379 . S
C1196 N1203 1.356 . S
C1197 C1196 1.363 . S
C1197 C1200 1.363 . S
N1198 C1200 1.356 1_545 S
N1198 H1210 0.984 . S
N1198 H1211 0.985 . S
N1199 C1201 1.356 . S
N1199 H1204 0.984 . S
N1199 H1205 0.985 . S
C1200 C1194 1.379 . S
C1200 C1197 1.363 . S
C1200 N1198 1.356 1_565 S
C1201 C1195 1.363 . S
C1201 C1196 1.379 . S
C1201 N1199 1.356 . S
N1202 C1194 1.356 . S
N1202 H1208 0.984 1_565 S
N1202 H1209 0.984 . S
N1203 C1196 1.356 . S
N1203 H1206 0.984 . S
N1203 H1207 0.985 . S
H1204 N1199 0.984 . S
H1205 N1199 0.985 . S
H1206 N1203 0.984 . S
H1207 N1203 0.985 . S
H1208 N1202 0.984 1_545 S
H1209 N1202 0.984 . S
H1210 N1198 0.984 . S
H1211 N1198 0.985 . S
C1212 C1213 1.363 . S
C1212 C1218 1.379 . S
C1212 N1220 1.356 . S
C1213 C1212 1.363 . S
C1213 C1219 1.363 . S
C1214 C1215 1.363 . S
C1214 C1219 1.379 . S
C1214 N1221 1.356 . S
C1215 C1214 1.363 . S
C1215 C1218 1.363 . S
N1216 C1218 1.356 . S
N1216 H1228 0.984 . S
N1216 H1229 0.985 . S
N1217 C1219 1.356 . S
N1217 H1222 0.984 . S
N1217 H1223 0.985 . S
C1218 C1212 1.379 . S
C1218 C1215 1.363 . S
C1218 N1216 1.356 . S
C1219 C1213 1.363 . S
C1219 C1214 1.379 . S
C1219 N1217 1.356 . S
N1220 C1212 1.356 . S
N1220 H1226 0.984 . S
N1220 H1227 0.984 . S
N1221 C1214 1.356 . S
N1221 H1224 0.984 . S
N1221 H1225 0.985 . S
H1222 N1217 0.984 . S
H1223 N1217 0.985 . S
H1224 N1221 0.984 . S
H1225 N1221 0.985 . S
H1226 N1220 0.984 . S
H1227 N1220 0.984 . S
H1228 N1216 0.984 . S
H1229 N1216 0.985 . S
C1230 C1231 1.363 . S
C1230 C1236 1.379 . S
C1230 N1238 1.356 . S
C1231 C1230 1.363 . S
C1231 C1237 1.363 . S
C1232 C1233 1.363 . S
C1232 C1237 1.379 . S
C1232 N1239 1.356 . S
C1233 C1232 1.363 . S
C1233 C1236 1.363 . S
N1234 C1236 1.356 . S
N1234 H1246 0.984 . S
N1234 H1247 0.985 . S
N1235 C1237 1.356 . S
N1235 H1240 0.984 . S
N1235 H1241 0.985 . S
C1236 C1230 1.379 . S
C1236 C1233 1.363 . S
C1236 N1234 1.356 . S
C1237 C1231 1.363 . S
C1237 C1232 1.379 . S
C1237 N1235 1.356 . S
N1238 C1230 1.356 . S
N1238 H1244 0.984 . S
N1238 H1245 0.984 . S
N1239 C1232 1.356 . S
N1239 H1242 0.984 . S
N1239 H1243 0.985 . S
H1240 N1235 0.984 . S
H1241 N1235 0.985 . S
H1242 N1239 0.984 . S
H1243 N1239 0.985 . S
H1244 N1238 0.984 . S
H1245 N1238 0.984 . S
H1246 N1234 0.984 . S
H1247 N1234 0.985 . S
C817 C391 2.752 . S
C819 C543 2.841 . S
C837 C620 2.837 . S
C835 C451 2.755 . S
C855 C711 2.847 . S
C853 C241 2.354 . S
C873 C795 2.825 . S
C871 C331 2.336 . S
C891 C554 2.841 1_565 S
C889 C121 2.390 . S
C907 C211 2.721 . S
C909 C631 2.838 . S
C925 C31 2.724 . S
C927 C722 2.847 . S
C943 C91 2.375 . S
C945 C806 2.825 1_655 S
C963 C538 0.774 . S
C961 C301 0.761 . S
C981 C633 0.761 . S
C979 C380 0.762 . S
C999 C706 0.788 . S
C997 C440 0.784 . S
C1015 C260 0.756 . S
C1017 C790 0.763 . S
C1033 C61 0.767 . S
C1035 C549 0.773 . S
C1053 C622 0.761 . S
C1051 C140 0.759 . S
C1071 C717 0.788 . S
C1069 C200 0.774 . S
C1087 C20 0.758 . S
C1089 C801 0.763 . S
C1105 C320 3.066 . S
C1107 C547 3.302 . S
C1123 C361 2.684 . S
C1125 C638 3.408 . S
C1143 C715 3.320 . S
C1141 C421 2.691 . S
C1161 C799 3.323 . S
C1159 C271 3.086 . S
C1177 C80 3.085 . S
C1179 C536 3.301 . S
C1197 C627 3.408 . S
C1195 C151 3.095 . S
C1215 C704 3.320 . S
C1213 C181 2.667 . S
C1231 C1 2.671 . S
C1233 C788 3.322 . S
