# Generated by pormake.
# Topology eea, (3,6)-cn, num edge types: 1
# Building blocks:
#     Node 0, Type 0, BuildingBlock: PAMTOO_clean_linker_0, # of connection points: 3
#     Node 1, Type 0, BuildingBlock: PAMTOO_clean_linker_0, # of connection points: 3
#     Node 2, Type 0, BuildingBlock: PAMTOO_clean_linker_0, # of connection points: 3
#     Node 3, Type 0, BuildingBlock: PAMTOO_clean_linker_0, # of connection points: 3
#     Node 4, Type 0, BuildingBlock: PAMTOO_clean_linker_0, # of connection points: 3
#     Node 5, Type 0, BuildingBlock: PAMTOO_clean_linker_0, # of connection points: 3
#     Node 6, Type 0, BuildingBlock: PAMTOO_clean_linker_0, # of connection points: 3
#     Node 7, Type 0, BuildingBlock: PAMTOO_clean_linker_0, # of connection points: 3
#     Node 8, Type 0, BuildingBlock: PAMTOO_clean_linker_0, # of connection points: 3
#     Node 9, Type 0, BuildingBlock: PAMTOO_clean_linker_0, # of connection points: 3
#     Node 10, Type 0, BuildingBlock: PAMTOO_clean_linker_0, # of connection points: 3
#     Node 11, Type 0, BuildingBlock: PAMTOO_clean_linker_0, # of connection points: 3
#     Node 12, Type 0, BuildingBlock: PAMTOO_clean_linker_0, # of connection points: 3
#     Node 13, Type 0, BuildingBlock: PAMTOO_clean_linker_0, # of connection points: 3
#     Node 14, Type 0, BuildingBlock: PAMTOO_clean_linker_0, # of connection points: 3
#     Node 15, Type 0, BuildingBlock: PAMTOO_clean_linker_0, # of connection points: 3
#     Node 16, Type 0, BuildingBlock: PAMTOO_clean_linker_0, # of connection points: 3
#     Node 17, Type 0, BuildingBlock: PAMTOO_clean_linker_0, # of connection points: 3
#     Node 18, Type 1, BuildingBlock: KUMBOL_clean_sbu_0, # of connection points: 6
#     Node 19, Type 1, BuildingBlock: KUMBOL_clean_sbu_0, # of connection points: 6
#     Node 20, Type 1, BuildingBlock: KUMBOL_clean_sbu_0, # of connection points: 6
#     Node 21, Type 1, BuildingBlock: KUMBOL_clean_sbu_0, # of connection points: 6
#     Node 22, Type 1, BuildingBlock: KUMBOL_clean_sbu_0, # of connection points: 6
#     Node 23, Type 1, BuildingBlock: KUMBOL_clean_sbu_0, # of connection points: 6
#     Node 24, Type 1, BuildingBlock: KUMBOL_clean_sbu_0, # of connection points: 6
#     Node 25, Type 1, BuildingBlock: KUMBOL_clean_sbu_0, # of connection points: 6
#     Node 26, Type 1, BuildingBlock: KUMBOL_clean_sbu_0, # of connection points: 6
#     Edge 27, Type (0, 1), BuildingBlock: KIFKEQ_clean_linker_1, # of connection points: 2
#     Edge 28, Type (0, 1), BuildingBlock: KIFKEQ_clean_linker_1, # of connection points: 2
#     Edge 29, Type (0, 1), BuildingBlock: KIFKEQ_clean_linker_1, # of connection points: 2
#     Edge 30, Type (0, 1), BuildingBlock: KIFKEQ_clean_linker_1, # of connection points: 2
#     Edge 31, Type (0, 1), BuildingBlock: KIFKEQ_clean_linker_1, # of connection points: 2
#     Edge 32, Type (0, 1), BuildingBlock: KIFKEQ_clean_linker_1, # of connection points: 2
#     Edge 33, Type (0, 1), BuildingBlock: KIFKEQ_clean_linker_1, # of connection points: 2
#     Edge 34, Type (0, 1), BuildingBlock: KIFKEQ_clean_linker_1, # of connection points: 2
#     Edge 35, Type (0, 1), BuildingBlock: KIFKEQ_clean_linker_1, # of connection points: 2
#     Edge 36, Type (0, 1), BuildingBlock: KIFKEQ_clean_linker_1, # of connection points: 2
#     Edge 37, Type (0, 1), BuildingBlock: KIFKEQ_clean_linker_1, # of connection points: 2
#     Edge 38, Type (0, 1), BuildingBlock: KIFKEQ_clean_linker_1, # of connection points: 2
#     Edge 39, Type (0, 1), BuildingBlock: KIFKEQ_clean_linker_1, # of connection points: 2
#     Edge 40, Type (0, 1), BuildingBlock: KIFKEQ_clean_linker_1, # of connection points: 2
#     Edge 41, Type (0, 1), BuildingBlock: KIFKEQ_clean_linker_1, # of connection points: 2
#     Edge 42, Type (0, 1), BuildingBlock: KIFKEQ_clean_linker_1, # of connection points: 2
#     Edge 43, Type (0, 1), BuildingBlock: KIFKEQ_clean_linker_1, # of connection points: 2
#     Edge 44, Type (0, 1), BuildingBlock: KIFKEQ_clean_linker_1, # of connection points: 2
#     Edge 45, Type (0, 1), BuildingBlock: KIFKEQ_clean_linker_1, # of connection points: 2
#     Edge 46, Type (0, 1), BuildingBlock: KIFKEQ_clean_linker_1, # of connection points: 2
#     Edge 47, Type (0, 1), BuildingBlock: KIFKEQ_clean_linker_1, # of connection points: 2
#     Edge 48, Type (0, 1), BuildingBlock: KIFKEQ_clean_linker_1, # of connection points: 2
#     Edge 49, Type (0, 1), BuildingBlock: KIFKEQ_clean_linker_1, # of connection points: 2
#     Edge 50, Type (0, 1), BuildingBlock: KIFKEQ_clean_linker_1, # of connection points: 2
#     Edge 51, Type (0, 1), BuildingBlock: KIFKEQ_clean_linker_1, # of connection points: 2
#     Edge 52, Type (0, 1), BuildingBlock: KIFKEQ_clean_linker_1, # of connection points: 2
#     Edge 53, Type (0, 1), BuildingBlock: KIFKEQ_clean_linker_1, # of connection points: 2
#     Edge 54, Type (0, 1), BuildingBlock: KIFKEQ_clean_linker_1, # of connection points: 2
#     Edge 55, Type (0, 1), BuildingBlock: KIFKEQ_clean_linker_1, # of connection points: 2
#     Edge 56, Type (0, 1), BuildingBlock: KIFKEQ_clean_linker_1, # of connection points: 2
#     Edge 57, Type (0, 1), BuildingBlock: KIFKEQ_clean_linker_1, # of connection points: 2
#     Edge 58, Type (0, 1), BuildingBlock: KIFKEQ_clean_linker_1, # of connection points: 2
#     Edge 59, Type (0, 1), BuildingBlock: KIFKEQ_clean_linker_1, # of connection points: 2
#     Edge 60, Type (0, 1), BuildingBlock: KIFKEQ_clean_linker_1, # of connection points: 2
#     Edge 61, Type (0, 1), BuildingBlock: KIFKEQ_clean_linker_1, # of connection points: 2
#     Edge 62, Type (0, 1), BuildingBlock: KIFKEQ_clean_linker_1, # of connection points: 2
#     Edge 63, Type (0, 1), BuildingBlock: KIFKEQ_clean_linker_1, # of connection points: 2
#     Edge 64, Type (0, 1), BuildingBlock: KIFKEQ_clean_linker_1, # of connection points: 2
#     Edge 65, Type (0, 1), BuildingBlock: KIFKEQ_clean_linker_1, # of connection points: 2
#     Edge 66, Type (0, 1), BuildingBlock: KIFKEQ_clean_linker_1, # of connection points: 2
#     Edge 67, Type (0, 1), BuildingBlock: KIFKEQ_clean_linker_1, # of connection points: 2
#     Edge 68, Type (0, 1), BuildingBlock: KIFKEQ_clean_linker_1, # of connection points: 2
#     Edge 69, Type (0, 1), BuildingBlock: KIFKEQ_clean_linker_1, # of connection points: 2
#     Edge 70, Type (0, 1), BuildingBlock: KIFKEQ_clean_linker_1, # of connection points: 2
#     Edge 71, Type (0, 1), BuildingBlock: KIFKEQ_clean_linker_1, # of connection points: 2
#     Edge 72, Type (0, 1), BuildingBlock: KIFKEQ_clean_linker_1, # of connection points: 2
#     Edge 73, Type (0, 1), BuildingBlock: KIFKEQ_clean_linker_1, # of connection points: 2
#     Edge 74, Type (0, 1), BuildingBlock: KIFKEQ_clean_linker_1, # of connection points: 2
#     Edge 75, Type (0, 1), BuildingBlock: KIFKEQ_clean_linker_1, # of connection points: 2
#     Edge 76, Type (0, 1), BuildingBlock: KIFKEQ_clean_linker_1, # of connection points: 2
#     Edge 77, Type (0, 1), BuildingBlock: KIFKEQ_clean_linker_1, # of connection points: 2
#     Edge 78, Type (0, 1), BuildingBlock: KIFKEQ_clean_linker_1, # of connection points: 2
#     Edge 79, Type (0, 1), BuildingBlock: KIFKEQ_clean_linker_1, # of connection points: 2
#     Edge 80, Type (0, 1), BuildingBlock: KIFKEQ_clean_linker_1, # of connection points: 2
# Relax obj value: 0.023
# Max RMSD: 0.164
# Mean RMSD: 0.119
data_MOF--net-eea--node1-KUMBOL_clean_sbu_0--node2-PAMTOO_clean_linker_0--edge1-KIFKEQ_clean_linker_1
_symmetry_space_group_name_H-M    P1
_symmetry_Int_Tables_number       1
_symmetry_cell_setting            triclinic
loop_
_symmetry_equiv_pos_as_xyz
'x, y, z'
_cell_length_a     54.910568
_cell_length_b     56.618698
_cell_length_c     66.931085
_cell_angle_alpha  89.972359
_cell_angle_beta   89.754241
_cell_angle_gamma 119.99489
loop_
_atom_site_label
_atom_site_type_symbol
_atom_site_fract_x
_atom_site_fract_y
_atom_site_fract_z
_atom_type_partial_charge
H0 H 0.25661 0.07465 0.43573 0.0
H1 H 0.25265 0.14858 0.43564 0.0
H2 H 0.21332 0.09043 0.38854 0.0
H3 H 0.24289 0.14755 0.37417 0.0
C4 C 0.24285 0.1578 0.38834 0.0
O5 O 0.22525 0.13839 0.40198 0.0
H6 H 0.26479 0.16885 0.39406 0.0
C7 C 0.24947 0.08744 0.42887 0.0
C8 C 0.23369 0.07896 0.41115 0.0
C9 C 0.2562 0.11232 0.43793 0.0
C10 C 0.24736 0.12915 0.42898 0.0
C11 C 0.23246 0.12142 0.41099 0.0
C12 C 0.22539 0.09631 0.40222 0.0
H13 H 0.95434 0.18236 0.43366 0.0
H14 H 0.88416 0.09975 0.43269 0.0
H15 H 0.94153 0.13055 0.38323 0.0
H16 H 0.88224 0.09504 0.37003 0.0
C17 C 0.87324 0.08501 0.38464 0.0
O18 O 0.89488 0.08889 0.39716 0.0
H19 H 0.86157 0.09468 0.391 0.0
C20 C 0.94228 0.16267 0.42653 0.0
C21 C 0.95103 0.1587 0.40769 0.0
C22 C 0.91805 0.14164 0.43595 0.0
C23 C 0.90261 0.11657 0.42588 0.0
C24 C 0.91075 0.11276 0.40684 0.0
C25 C 0.93513 0.1337 0.39786 0.0
H26 H 0.84447 0.77278 0.43199 0.0
H27 H 0.92746 0.78239 0.43248 0.0
H28 H 0.90322 0.81719 0.38476 0.0
H29 H 0.94299 0.80187 0.36894 0.0
C30 C 0.94788 0.79545 0.38336 0.0
O31 O 0.94384 0.80956 0.39875 0.0
H32 H 0.9331 0.77315 0.3852 0.0
C33 C 0.86502 0.78043 0.42518 0.0
C34 C 0.87129 0.79539 0.4073 0.0
C35 C 0.8852 0.77594 0.43464 0.0
C36 C 0.91182 0.78606 0.42562 0.0
C37 C 0.91829 0.80063 0.40753 0.0
C38 C 0.89816 0.80577 0.39862 0.0
H39 H 0.08344 0.24187 0.60327 0.0
H40 H 0.15373 0.22791 0.60315 0.0
H41 H 0.09328 0.19637 0.6511 0.0
H42 H 0.14843 0.2091 0.66715 0.0
C43 C 0.15976 0.21598 0.65264 0.0
O44 O 0.14112 0.20188 0.63735 0.0
H45 H 0.16753 0.23825 0.65114 0.0
C46 C 0.09514 0.23332 0.61022 0.0
C47 C 0.08526 0.21867 0.62825 0.0
C48 C 0.11946 0.23625 0.60079 0.0
C49 C 0.13462 0.2253 0.61001 0.0
C50 C 0.12554 0.21133 0.62828 0.0
C51 C 0.10045 0.20744 0.63711 0.0
H52 H 0.78057 0.84267 0.5977 0.0
H53 H 0.78437 0.92024 0.60462 0.0
H54 H 0.81682 0.89102 0.65043 0.0
H55 H 0.79011 0.92197 0.66679 0.0
C56 C 0.7901 0.93217 0.65258 0.0
O57 O 0.80862 0.93079 0.63928 0.0
H58 H 0.7683 0.92133 0.64658 0.0
C59 C 0.78606 0.86083 0.60633 0.0
C60 C 0.79905 0.86423 0.62501 0.0
C61 C 0.78084 0.881 0.59855 0.0
C62 C 0.78872 0.90465 0.6099 0.0
C63 C 0.80161 0.90815 0.62848 0.0
C64 C 0.80701 0.88814 0.63593 0.0
H65 H 0.18181 0.93906 0.60268 0.0
H66 H 0.10079 0.86552 0.6018 0.0
H67 H 0.12441 0.91965 0.65198 0.0
H68 H 0.09133 0.86529 0.66599 0.0
C69 C 0.08363 0.8545 0.65153 0.0
O70 O 0.0854 0.87295 0.6372 0.0
H71 H 0.09726 0.84594 0.64712 0.0
C72 C 0.16159 0.92556 0.60955 0.0
C73 C 0.15552 0.93231 0.62839 0.0
C74 C 0.14195 0.9018 0.59948 0.0
C75 C 0.11626 0.88405 0.60908 0.0
C76 C 0.11003 0.8904 0.62801 0.0
C77 C 0.12939 0.91482 0.63741 0.0
H78 H 0.9268 0.40928 0.76823 0.0
H79 H 0.91855 0.48098 0.77049 0.0
H80 H 0.88398 0.42562 0.72119 0.0
H81 H 0.91116 0.48232 0.70884 0.0
C82 C 0.90992 0.49191 0.72303 0.0
O83 O 0.89245 0.4718 0.7363 0.0
H84 H 0.93157 0.50369 0.72921 0.0
C85 C 0.91959 0.42219 0.76166 0.0
C86 C 0.90483 0.4145 0.74354 0.0
C87 C 0.92442 0.44595 0.77165 0.0
C88 C 0.91456 0.46229 0.76321 0.0
C89 C 0.90031 0.45509 0.74494 0.0
C90 C 0.89501 0.431 0.73532 0.0
H91 H 0.61918 0.51065 0.7706 0.0
H92 H 0.54645 0.43103 0.76416 0.0
H93 H 0.6053 0.4652 0.71583 0.0
H94 H 0.54757 0.42632 0.70047 0.0
C95 C 0.53825 0.41857 0.71547 0.0
O96 O 0.55934 0.42226 0.72851 0.0
H97 H 0.52814 0.43036 0.72065 0.0
C98 C 0.60681 0.4927 0.76157 0.0
C99 C 0.61575 0.49116 0.74202 0.0
C100 C 0.58162 0.47142 0.76957 0.0
C101 C 0.56572 0.44782 0.75816 0.0
C102 C 0.57458 0.44553 0.73902 0.0
C103 C 0.59934 0.46715 0.73092 0.0
H104 H 0.51254 0.11042 0.76629 0.0
H105 H 0.59585 0.12043 0.76725 0.0
H106 H 0.56977 0.1502 0.71745 0.0
H107 H 0.60742 0.13033 0.70377 0.0
C108 C 0.61518 0.12822 0.71861 0.0
O109 O 0.61087 0.1441 0.73233 0.0
H110 H 0.60275 0.10628 0.7229 0.0
C111 C 0.53309 0.11777 0.75959 0.0
C112 C 0.53877 0.13092 0.74095 0.0
C113 C 0.5535 0.114 0.76953 0.0
C114 C 0.57966 0.1229 0.76001 0.0
C115 C 0.58549 0.13567 0.74119 0.0
C116 C 0.56515 0.14006 0.73185 0.0
H117 H 0.74579 0.56764 0.93412 0.0
H118 H 0.82237 0.56438 0.93877 0.0
H119 H 0.76242 0.53449 0.98693 0.0
H120 H 0.82052 0.55312 1.00258 0.0
C121 C 0.83075 0.55694 0.98765 0.0
O122 O 0.81077 0.54072 0.97371 0.0
H123 H 0.83934 0.57887 0.98386 0.0
C124 C 0.75919 0.56209 0.94232 0.0
C125 C 0.75088 0.55047 0.96153 0.0
C126 C 0.7852 0.56773 0.93405 0.0
C127 C 0.80255 0.56075 0.94502 0.0
C128 C 0.79433 0.54858 0.96393 0.0
C129 C 0.76865 0.54375 0.97226 0.0
H130 H 0.44757 0.17533 0.92946 0.0
H131 H 0.45133 0.25284 0.9358 0.0
H132 H 0.48804 0.2266 0.98041 0.0
H133 H 0.46501 0.25952 0.99839 0.0
C134 C 0.46154 0.26718 0.98401 0.0
O135 O 0.47825 0.26521 0.96939 0.0
H136 H 0.43892 0.25445 0.98 0.0
C137 C 0.45402 0.19395 0.93773 0.0
C138 C 0.46822 0.1981 0.95604 0.0
C139 C 0.44806 0.21366 0.93001 0.0
C140 C 0.45619 0.23757 0.94104 0.0
C141 C 0.47034 0.24196 0.95915 0.0
C142 C 0.47657 0.22249 0.96652 0.0
H143 H 0.84791 0.27529 0.9344 0.0
H144 H 0.76801 0.20086 0.93568 0.0
H145 H 0.79068 0.258 0.98371 0.0
H146 H 0.75803 0.20359 0.99972 0.0
C147 C 0.7512 0.19229 0.98538 0.0
O148 O 0.7527 0.20997 0.9705 0.0
H149 H 0.76567 0.18441 0.98176 0.0
C150 C 0.82776 0.26237 0.94152 0.0
C151 C 0.82172 0.27033 0.95996 0.0
C152 C 0.80849 0.23769 0.93228 0.0
C153 C 0.78326 0.22001 0.94237 0.0
C154 C 0.77714 0.2272 0.961 0.0
C155 C 0.79611 0.25245 0.96959 0.0
H156 H 0.5903 0.74155 0.1026 0.0
H157 H 0.58202 0.81337 0.10405 0.0
H158 H 0.55273 0.7602 0.05331 0.0
H159 H 0.58099 0.81788 0.04194 0.0
C160 C 0.5787 0.82668 0.05621 0.0
O161 O 0.55997 0.80591 0.06853 0.0
H162 H 0.59981 0.83782 0.06331 0.0
C163 C 0.58351 0.75467 0.09581 0.0
C164 C 0.57082 0.7479 0.07694 0.0
C165 C 0.58745 0.77805 0.10597 0.0
C166 C 0.57915 0.79515 0.09664 0.0
C167 C 0.56692 0.78881 0.07763 0.0
C168 C 0.5623 0.76497 0.06797 0.0
H169 H 0.28912 0.8453 0.10423 0.0
H170 H 0.21513 0.76635 0.09761 0.0
H171 H 0.27327 0.80065 0.04902 0.0
H172 H 0.21503 0.76191 0.0342 0.0
C173 C 0.2061 0.75403 0.04928 0.0
O174 O 0.22755 0.75768 0.06194 0.0
H175 H 0.19608 0.76573 0.05484 0.0
C176 C 0.27592 0.82774 0.0951 0.0
C177 C 0.28435 0.82634 0.07537 0.0
C178 C 0.25085 0.80646 0.10337 0.0
C179 C 0.23465 0.783 0.09183 0.0
C180 C 0.24306 0.78086 0.07248 0.0
C181 C 0.26765 0.80248 0.06423 0.0
H182 H 0.17879 0.44185 0.09969 0.0
H183 H 0.26202 0.45201 0.10047 0.0
H184 H 0.23736 0.48568 0.05223 0.0
H185 H 0.27554 0.46728 0.03744 0.0
C186 C 0.28289 0.46397 0.05208 0.0
O187 O 0.27826 0.47877 0.06657 0.0
H188 H 0.2703 0.44173 0.05544 0.0
C189 C 0.19935 0.44947 0.09288 0.0
C190 C 0.20552 0.46416 0.07488 0.0
C191 C 0.21962 0.44524 0.10248 0.0
C192 C 0.24627 0.45542 0.09349 0.0
C193 C 0.25263 0.46967 0.07526 0.0
C194 C 0.23237 0.47446 0.06618 0.0
H195 H 0.4164 0.90738 0.26884 0.0
H196 H 0.48999 0.8987 0.27179 0.0
H197 H 0.42813 0.86601 0.31873 0.0
H198 H 0.48469 0.8811 0.33539 0.0
C199 C 0.49577 0.88716 0.32075 0.0
O200 O 0.47679 0.87251 0.30578 0.0
H201 H 0.50383 0.9094 0.31863 0.0
C202 C 0.42874 0.9 0.27641 0.0
C203 C 0.41918 0.88627 0.29481 0.0
C204 C 0.45421 0.90453 0.26785 0.0
C205 C 0.47035 0.89545 0.27812 0.0
C206 C 0.46104 0.88154 0.29638 0.0
C207 C 0.43527 0.87669 0.30459 0.0
H208 H 0.11453 0.50984 0.26465 0.0
H209 H 0.11842 0.58744 0.27181 0.0
H210 H 0.15137 0.55823 0.31726 0.0
H211 H 0.12516 0.58897 0.33409 0.0
C212 C 0.12475 0.59916 0.31998 0.0
O213 O 0.14302 0.59795 0.30636 0.0
H214 H 0.10281 0.58825 0.31423 0.0
C215 C 0.12012 0.52802 0.27329 0.0
C216 C 0.13331 0.53143 0.29188 0.0
C217 C 0.11485 0.54821 0.26561 0.0
C218 C 0.12282 0.57184 0.277 0.0
C219 C 0.13592 0.57534 0.29551 0.0
C220 C 0.14141 0.55535 0.30283 0.0
H221 H 0.51161 0.60764 0.26594 0.0
H222 H 0.43421 0.53146 0.27098 0.0
H223 H 0.45634 0.59203 0.31651 0.0
H224 H 0.42322 0.53802 0.33439 0.0
C225 C 0.41698 0.52617 0.32027 0.0
O226 O 0.41848 0.5431 0.3048 0.0
H227 H 0.43186 0.51855 0.31739 0.0
C228 C 0.49223 0.59476 0.27399 0.0
C229 C 0.48676 0.60346 0.29236 0.0
C230 C 0.47339 0.56899 0.26613 0.0
C231 C 0.44887 0.55143 0.27686 0.0
C232 C 0.44279 0.55981 0.29498 0.0
C233 C 0.46157 0.58578 0.30261 0.0
Gd234 Gd 0.5228 0.0236 0.04363 0.0
Gd235 Gd 0.50096 0.99397 0.99284 0.0
C236 C 0.41531 0.91806 0.9828 0.0
C237 C 0.42832 0.88407 0.97431 0.0
C238 C 0.46442 0.93085 0.98106 0.0
C239 C 0.44401 0.93773 0.98479 0.0
C240 C 0.45688 0.90411 0.97532 0.0
C241 C 0.40755 0.89103 0.97806 0.0
C242 C 0.39535 0.92636 0.98495 0.0
C243 C 0.4043 0.95387 0.98816 0.0
N244 N 0.4523 0.9641 0.98907 0.0
C245 C 0.43304 0.97263 0.98992 0.0
H246 H 0.43957 0.99375 0.99253 0.0
C247 C 0.51264 0.94586 0.97602 0.0
N248 N 0.49174 0.95078 0.98198 0.0
C249 C 0.50625 0.91962 0.97032 0.0
C250 C 0.47826 0.89855 0.97021 0.0
H251 H 0.53433 0.96206 0.97628 0.0
H252 H 0.3856 0.87556 0.9767 0.0
H253 H 0.58426 0.02381 0.04356 0.0
H254 H 0.37308 0.91188 0.98359 0.0
H255 H 0.38908 0.96063 0.98939 0.0
H256 H 0.42207 0.86333 0.97013 0.0
H257 H 0.48919 0.05529 0.06003 0.0
H258 H 0.6505 0.10477 0.05557 0.0
H259 H 0.63458 0.05649 0.04788 0.0
H260 H 0.60139 0.15292 0.07011 0.0
H261 H 0.5229 0.91564 0.96608 0.0
H262 H 0.47335 0.87826 0.96574 0.0
H263 H 0.63793 0.14076 0.0636 0.0
H264 H 0.50045 0.10114 0.0715 0.0
N265 N 0.57142 0.05322 0.04813 0.0
C266 C 0.62827 0.09047 0.05367 0.0
C267 C 0.61936 0.06323 0.04939 0.0
C268 C 0.60832 0.09873 0.05605 0.0
C269 C 0.57967 0.07932 0.05329 0.0
C270 C 0.59069 0.0447 0.04694 0.0
N271 N 0.53194 0.06648 0.05517 0.0
C272 C 0.55924 0.08617 0.05694 0.0
C273 C 0.51719 0.09724 0.06738 0.0
C274 C 0.54522 0.11811 0.0684 0.0
C275 C 0.5109 0.07131 0.06093 0.0
C276 C 0.56669 0.11261 0.06344 0.0
H277 H 0.55006 0.13816 0.07345 0.0
O278 O 0.50096 0.01352 0.07234 0.0
O279 O 0.48943 0.99153 0.02489 0.0
O280 O 0.48843 0.02581 0.99977 0.0
O281 O 0.51912 0.05441 0.0243 0.0
O282 O 0.47612 0.00834 0.04648 0.0
O283 O 0.53406 0.00415 0.06694 0.0
O284 O 0.52226 1.00358 0.96397 0.0
O285 O 0.5343 0.02608 0.01154 0.0
O286 O 0.53582 0.99203 0.03648 0.0
O287 O 0.50469 0.96343 0.01218 0.0
O288 O 0.54775 0.00989 0.98951 0.0
O289 O 0.48855 0.01213 0.9693 0.0
C290 C 0.46784 0.99019 0.03266 0.0
C291 C 0.59522 0.13241 0.06533 0.0
C292 C 0.61601 0.12548 0.06162 0.0
C293 C 0.51643 0.00434 0.07998 0.0
C294 C 0.52763 0.014 0.10019 0.0
C295 C 0.55135 0.03987 0.10276 0.0
C296 C 0.51517 0.99704 0.117 0.0
C297 C 0.52688 0.0057 0.13618 0.0
C298 C 0.5628 0.04863 0.12171 0.0
C299 C 0.55081 0.03165 0.13828 0.0
C300 C 0.50151 0.04949 0.00931 0.0
C301 C 0.55594 0.02787 1.00347 0.0
C302 C 0.50621 0.01204 0.95625 0.0
C303 C 0.49484 1.00169 0.93622 0.0
C304 C 0.4725 0.97496 0.93387 0.0
C305 C 0.50579 0.01884 0.91935 0.0
C306 C 0.494 0.00945 0.9003 0.0
C307 C 0.46097 0.96549 0.91503 0.0
C308 C 0.47149 0.9826 0.89837 0.0
C309 C 0.52291 0.9685 0.02671 0.0
H310 H 0.56119 0.05319 0.09011 0.0
H311 H 0.4969 0.97697 0.11511 0.0
H312 H 0.58116 0.0686 0.12353 0.0
H313 H 0.56013 0.0389 0.15284 0.0
H314 H 0.46383 0.9615 0.94659 0.0
H315 H 0.52294 0.03958 0.92112 0.0
H316 H 0.4437 0.94484 0.91335 0.0
H317 H 0.46216 0.97478 0.88391 0.0
Gd318 Gd 1.00084 0.50157 0.04439 0.0
Gd319 Gd 0.03298 0.50551 0.99498 0.0
C320 C 0.11141 0.49759 0.98814 0.0
C321 C 0.14628 0.54301 0.9769 0.0
C322 C 0.09814 0.53204 0.98338 0.0
C323 C 0.09112 0.50591 0.98899 0.0
C324 C 0.12563 0.55072 0.97682 0.0
C325 C 0.13918 0.51648 0.98256 0.0
C326 C 0.10296 0.47034 0.99234 0.0
C327 C 0.07472 0.45198 0.9965 0.0
N328 N 0.06401 0.48812 0.99406 0.0
C329 C 0.05534 0.46117 0.99701 0.0
H330 H 0.03362 0.44672 1.00031 0.0
C331 C 0.08256 0.56299 0.97538 0.0
N332 N 0.0776 0.53867 0.98324 0.0
C333 C 0.10953 0.58229 0.96881 0.0
C334 C 0.13127 0.57628 0.96978 0.0
H335 H 0.06583 0.56776 0.97474 0.0
H336 H 0.15513 0.51055 0.98205 0.0
H337 H 0.99925 0.56004 0.04028 0.0
H338 H 0.11791 0.46316 0.99193 0.0
H339 H 0.06785 0.43074 0.99939 0.0
H340 H 0.1676 0.55716 0.9721 0.0
H341 H 0.96895 0.43866 0.06361 0.0
H342 H 0.91515 0.54274 0.0511 0.0
H343 H 0.96479 0.57558 0.0428 0.0
H344 H 0.86691 0.4484 0.07 0.0
H345 H 0.11354 0.60178 0.96305 0.0
H346 H 0.15212 0.59121 0.96462 0.0
H347 H 0.87862 0.49507 0.06093 0.0
H348 H 0.92182 0.40419 0.07586 0.0
N349 N 0.96943 0.51844 0.04647 0.0
C350 C 0.93021 0.53574 0.05 0.0
C351 C 0.95822 0.55434 0.04536 0.0
C352 C 0.92216 0.50848 0.05374 0.0
C353 C 0.94258 0.50041 0.052 0.0
C354 C 0.97773 0.54538 0.04392 0.0
N355 N 0.95669 0.46783 0.05645 0.0
C356 C 0.93601 0.47426 0.05718 0.0
C357 C 0.92549 0.42377 0.07057 0.0
C358 C 0.90361 0.42963 0.07055 0.0
C359 C 0.95215 0.44334 0.06367 0.0
C360 C 0.90882 0.45528 0.06409 0.0
H361 H 0.883 0.41448 0.07596 0.0
O362 O 1.01058 0.49368 0.07427 0.0
O363 O 0.03537 0.50055 0.02767 0.0
O364 O 0.99978 0.46203 1.00356 0.0
O365 O 0.96944 0.46555 0.02626 0.0
O366 O 0.01762 0.4729 0.05059 0.0
O367 O 0.01849 0.53405 0.06625 0.0
O368 O 0.02386 0.51348 0.96494 0.0
O369 O 0.99883 0.50697 0.01175 0.0
O370 O 0.03326 0.54532 0.03563 0.0
O371 O 0.06366 0.54219 0.01271 0.0
O372 O 0.01607 0.53401 0.98836 0.0
O373 O 0.01606 0.47318 0.97297 0.0
C374 C 0.0371 0.48221 0.03717 0.0
C375 C 0.88801 0.46277 0.0649 0.0
C376 C 0.89467 0.48933 0.05973 0.0
C377 C 0.01827 0.51821 0.08051 0.0
C378 C 1.00675 0.52027 0.09989 0.0
C379 C 0.9814 0.52059 0.10107 0.0
C380 C 0.02168 0.52257 0.11745 0.0
C381 C 1.01165 0.52569 0.13608 0.0
C382 C 0.9712 0.52338 0.11952 0.0
C383 C 0.98626 0.52606 0.13694 0.0
C384 C 0.97492 0.45192 0.01257 0.0
C385 C 0.99703 0.52517 1.0021 0.0
C386 C 0.01661 0.48908 0.95864 0.0
C387 C 0.02916 0.48748 0.93959 0.0
C388 C 0.05555 0.48923 0.93911 0.0
C389 C 0.01442 0.48376 0.92169 0.0
C390 C 0.0258 0.48137 0.90341 0.0
C391 C 0.06708 0.48721 0.92103 0.0
C392 C 0.05231 0.48322 0.90328 0.0
C393 C 0.05781 0.55587 0.02611 0.0
H394 H 0.96963 0.51895 0.08777 0.0
H395 H 0.04141 0.52258 0.11655 0.0
H396 H 0.95164 0.52363 0.12031 0.0
H397 H 0.97797 0.52823 0.1511 0.0
H398 H 0.06716 0.49193 0.95266 0.0
H399 H 0.99388 0.48211 0.92206 0.0
H400 H 0.08748 0.48861 0.92079 0.0
H401 H 0.06169 0.48174 0.88941 0.0
Gd402 Gd 0.51237 0.51762 0.99368 0.0
Gd403 Gd 0.53458 0.50996 0.0442 0.0
C404 C 0.61876 0.51359 0.05297 0.0
C405 C 0.60412 0.46685 0.06237 0.0
C406 C 0.56921 0.48026 0.05577 0.0
C407 C 0.5903 0.50651 0.05147 0.0
C408 C 0.57585 0.46031 0.06182 0.0
C409 C 0.62554 0.49345 0.05791 0.0
C410 C 0.63951 0.54087 0.05014 0.0
C411 C 0.6316 0.56043 0.04674 0.0
N412 N 0.58297 0.52552 0.04707 0.0
C413 C 0.60306 0.55241 0.0455 0.0
H414 H 0.59725 0.56771 0.04272 0.0
C415 C 0.52085 0.45033 0.06218 0.0
N416 N 0.54217 0.47475 0.05531 0.0
C417 C 0.52637 0.42982 0.06824 0.0
C418 C 0.55395 0.43469 0.06778 0.0
H419 H 0.49948 0.44644 0.06244 0.0
H420 H 0.64729 0.49843 0.05892 0.0
H421 H 0.44999 0.45919 0.99517 0.0
H422 H 0.66162 0.54713 0.05109 0.0
H423 H 0.64746 0.58168 0.04495 0.0
H424 H 0.60966 0.45173 0.06676 0.0
H425 H 0.54699 0.58114 0.9757 0.0
H426 H 0.38497 0.47795 0.98388 0.0
H427 H 0.3998 0.44431 0.99172 0.0
H428 H 0.43592 0.57307 0.96726 0.0
H429 H 0.50936 0.41028 0.07321 0.0
H430 H 0.55818 0.4188 0.07254 0.0
H431 H 0.39865 0.52619 0.97503 0.0
H432 H 0.53664 0.61651 0.96374 0.0
N433 N 0.46382 0.50116 0.98994 0.0
C434 C 0.40713 0.48465 0.98537 0.0
C435 C 0.41542 0.4656 0.98975 0.0
C436 C 0.42759 0.51197 0.98236 0.0
C437 C 0.45614 0.51964 0.98462 0.0
C438 C 0.44402 0.47418 0.9917 0.0
N439 N 0.50414 0.55201 0.98159 0.0
C440 C 0.47699 0.54592 0.98026 0.0
C441 C 0.51966 0.59678 0.96842 0.0
C442 C 0.49187 0.59124 0.96786 0.0
C443 C 0.52544 0.5767 0.97514 0.0
C444 C 0.47007 0.56543 0.97355 0.0
H445 H 0.48743 0.6068 0.96261 0.0
O446 O 0.53343 0.52743 0.96472 0.0
O447 O 0.54585 0.51744 0.01204 0.0
O448 O 0.54787 0.55415 0.03686 0.0
O449 O 0.51726 0.55288 0.01223 0.0
O450 O 0.55929 0.54658 0.99008 0.0
O451 O 0.49912 0.48662 0.97073 0.0
O452 O 0.51186 0.50136 0.07236 0.0
O453 O 0.50119 0.51059 0.02592 0.0
O454 O 0.49854 0.47333 1.00125 0.0
O455 O 0.52951 0.47479 0.02561 0.0
O456 O 0.48772 0.48123 0.04791 0.0
O457 O 0.55133 0.53898 0.06873 0.0
C458 C 0.5676 0.53639 1.00385 0.0
C459 C 0.44168 0.5583 0.97219 0.0
C460 C 0.42047 0.53161 0.97662 0.0
C461 C 0.51676 0.5033 0.95741 0.0
C462 C 0.50521 0.50242 0.93743 0.0
C463 C 0.48123 0.50494 0.93521 0.0
C464 C 0.51781 0.4983 0.92043 0.0
C465 C 0.50603 0.49603 0.90138 0.0
C466 C 0.4697 0.50303 0.91635 0.0
C467 C 0.48186 0.49843 0.89954 0.0
C468 C 0.53532 0.56537 0.02689 0.0
C469 C 0.47948 0.49161 0.0342 0.0
C470 C 0.53114 0.52334 0.08104 0.0
C471 C 0.53947 0.51939 0.10113 0.0
C472 C 0.55609 0.50722 0.10339 0.0
C473 C 0.52967 0.52664 0.11823 0.0
C474 C 0.53594 0.52123 0.1376 0.0
C475 C 0.56223 0.5016 0.12236 0.0
C476 C 0.55206 0.50824 0.13931 0.0
C477 C 0.51116 0.46215 0.01118 0.0
H478 H 0.47125 0.50811 0.94804 0.0
H479 H 0.53628 0.49621 0.92208 0.0
H480 H 0.45114 0.50494 0.91477 0.0
H481 H 0.47251 0.49694 0.88504 0.0
H482 H 0.56409 0.5018 0.09052 0.0
H483 H 0.51732 0.53657 0.11633 0.0
H484 H 0.57472 0.49178 0.12394 0.0
H485 H 0.55663 0.50281 0.15376 0.0
Gd486 Gd 0.18876 0.35664 0.37776 0.0
Gd487 Gd 0.16707 0.32722 0.32687 0.0
C488 C 0.08139 0.25155 0.3162 0.0
C489 C 0.09441 0.21775 0.3071 0.0
C490 C 0.13051 0.26433 0.31444 0.0
C491 C 0.1101 0.27117 0.31831 0.0
C492 C 0.12298 0.23772 0.30835 0.0
C493 C 0.07365 0.22466 0.31103 0.0
C494 C 0.06141 0.25974 0.31882 0.0
C495 C 0.07032 0.28709 0.32268 0.0
N496 N 0.11838 0.2974 0.32308 0.0
C497 C 0.09906 0.30582 0.32449 0.0
H498 H 0.10552 0.32682 0.32756 0.0
C499 C 0.17876 0.27933 0.30962 0.0
N500 N 0.15784 0.28418 0.31562 0.0
C501 C 0.17238 0.25321 0.3036 0.0
C502 C 0.14437 0.23221 0.30319 0.0
H503 H 0.20046 0.29548 0.31007 0.0
H504 H 0.0517 0.20922 0.30954 0.0
H505 H 0.25082 0.35835 0.37786 0.0
H506 H 0.03915 0.24528 0.31741 0.0
H507 H 0.05508 0.29375 0.32435 0.0
H508 H 0.08818 0.19711 0.30263 0.0
H509 H 0.15374 0.38703 0.39426 0.0
H510 H 0.31578 0.44014 0.38944 0.0
H511 H 0.301 0.392 0.38212 0.0
H512 H 0.26472 0.48654 0.40335 0.0
H513 H 0.18905 0.24928 0.29932 0.0
H514 H 0.13947 0.21201 0.29846 0.0
H515 H 0.30206 0.47542 0.39703 0.0
H516 H 0.16393 0.43266 0.40548 0.0
N517 N 0.23713 0.38714 0.38217 0.0
C518 C 0.29367 0.42542 0.38759 0.0
C519 C 0.2854 0.39827 0.38351 0.0
C520 C 0.27322 0.4331 0.38978 0.0
C521 C 0.24473 0.41317 0.38708 0.0
C522 C 0.25686 0.37921 0.3811 0.0
N523 N 0.19667 0.39931 0.38887 0.0
C524 C 0.22383 0.4195 0.39048 0.0
C525 C 0.18097 0.42928 0.40119 0.0
C526 C 0.20877 0.45067 0.40192 0.0
C527 C 0.17527 0.40347 0.39487 0.0
C528 C 0.23066 0.44582 0.39687 0.0
H529 H 0.21314 0.47061 0.40691 0.0
O530 O 0.1648 0.34314 0.40548 0.0
O531 O 0.15565 0.32422 0.35901 0.0
O532 O 0.1543 0.35881 0.33408 0.0
O533 O 0.18498 0.38746 0.35857 0.0
O534 O 0.14203 0.34084 0.38063 0.0
O535 O 0.20331 0.3419 0.40251 0.0
O536 O 0.18836 0.33711 0.29798 0.0
O537 O 0.20035 0.35909 0.3457 0.0
O538 O 0.20193 0.32509 0.37069 0.0
O539 O 0.17135 0.29681 0.34595 0.0
O540 O 0.21387 0.34328 0.32346 0.0
O541 O 0.15476 0.34574 0.30352 0.0
C542 C 0.13394 0.32255 0.36689 0.0
C543 C 0.25903 0.46611 0.39867 0.0
C544 C 0.28028 0.45976 0.3951 0.0
C545 C 0.18293 0.33841 0.41446 0.0
C546 C 0.19085 0.34956 0.43486 0.0
C547 C 0.2069 0.3778 0.43766 0.0
C548 C 0.1815 0.33214 0.45169 0.0
C549 C 0.18784 0.34297 0.4713 0.0
C550 C 0.21303 0.38869 0.45682 0.0
C551 C 0.20342 0.37156 0.47348 0.0
C552 C 0.16732 0.38248 0.34362 0.0
C553 C 0.22203 0.36104 0.33757 0.0
C554 C 0.17234 0.34567 0.29037 0.0
C555 C 0.16079 0.33531 0.27035 0.0
C556 C 0.1384 0.30859 0.26813 0.0
C557 C 0.17163 0.35233 0.25339 0.0
C558 C 0.15966 0.34277 0.23439 0.0
C559 C 0.12672 0.29895 0.24937 0.0
C560 C 0.13713 0.31589 0.23263 0.0
C561 C 0.18937 0.30177 0.36061 0.0
H562 H 0.21444 0.39148 0.42504 0.0
H563 H 0.16949 0.31029 0.44944 0.0
H564 H 0.22508 0.41058 0.4588 0.0
H565 H 0.20796 0.38092 0.4881 0.0
H566 H 0.1298 0.29523 0.2809 0.0
H567 H 0.18883 0.37307 0.25504 0.0
H568 H 0.10941 0.27829 0.24781 0.0
H569 H 0.12768 0.30789 0.21823 0.0
Gd570 Gd 0.66729 0.83391 0.37713 0.0
Gd571 Gd 0.69974 0.83838 0.32781 0.0
C572 C 0.77772 0.8298 0.3207 0.0
C573 C 0.81306 0.87543 0.3102 0.0
C574 C 0.76496 0.8647 0.31651 0.0
C575 C 0.75761 0.83833 0.32167 0.0
C576 C 0.79262 0.88342 0.3103 0.0
C577 C 0.80563 0.84866 0.31539 0.0
C578 C 0.76901 0.80242 0.32458 0.0
C579 C 0.7407 0.78415 0.32861 0.0
N580 N 0.73041 0.8206 0.32657 0.0
C581 C 0.72151 0.79356 0.32928 0.0
H582 H 0.69973 0.77918 0.33248 0.0
C583 C 0.75002 0.89637 0.3093 0.0
N584 N 0.74464 0.87163 0.31658 0.0
C585 C 0.77718 0.91572 0.30313 0.0
C586 C 0.79867 0.90934 0.30387 0.0
H587 H 0.73347 0.9014 0.30884 0.0
H588 H 0.82144 0.84256 0.31478 0.0
H589 H 0.66627 0.89266 0.3731 0.0
H590 H 0.78383 0.79507 0.32408 0.0
H591 H 0.73364 0.76283 0.33129 0.0
H592 H 0.8345 0.88959 0.30565 0.0
H593 H 0.63479 0.77085 0.39606 0.0
H594 H 0.58224 0.87589 0.38344 0.0
H595 H 0.63204 0.90853 0.37543 0.0
H596 H 0.53319 0.78142 0.402 0.0
H597 H 0.78153 0.93553 0.29785 0.0
H598 H 0.81968 0.92433 0.299 0.0
H599 H 0.54536 0.82825 0.39306 0.0
H600 H 0.58742 0.73651 0.40802 0.0
N601 N 0.63615 0.8511 0.37912 0.0
C602 C 0.5972 0.86875 0.38244 0.0
C603 C 0.6253 0.88724 0.37795 0.0
C604 C 0.58892 0.84143 0.38613 0.0
C605 C 0.60921 0.83318 0.3845 0.0
C606 C 0.64467 0.8781 0.37663 0.0
N607 N 0.62292 0.80031 0.38894 0.0
C608 C 0.60238 0.80693 0.38959 0.0
C609 C 0.59131 0.7562 0.4028 0.0
C610 C 0.56958 0.76227 0.4027 0.0
C611 C 0.6181 0.77569 0.39607 0.0
C612 C 0.57506 0.78803 0.39633 0.0
H613 H 0.54886 0.74717 0.40798 0.0
O614 O 0.67657 0.82559 0.40702 0.0
O615 O 0.70167 0.8327 0.36041 0.0
O616 O 0.66616 0.79482 0.33585 0.0
O617 O 0.63591 0.79816 0.35875 0.0
O618 O 0.68375 0.80492 0.38319 0.0
O619 O 0.68502 0.86619 0.39915 0.0
O620 O 0.69111 0.84725 0.29792 0.0
O621 O 0.66551 0.83975 0.34453 0.0
O622 O 0.70017 0.87771 0.36871 0.0
O623 O 0.73061 0.87418 0.34611 0.0
O624 O 0.68323 0.86729 0.32151 0.0
O625 O 0.68305 0.80665 0.30536 0.0
C626 C 0.70324 0.81419 0.36977 0.0
C627 C 0.55439 0.79572 0.39704 0.0
C628 C 0.56131 0.82238 0.39195 0.0
C629 C 0.68448 0.85014 0.41335 0.0
C630 C 0.67292 0.85222 0.43271 0.0
C631 C 0.64751 0.85244 0.43383 0.0
C632 C 0.68787 0.85467 0.45028 0.0
C633 C 0.67781 0.85785 0.46888 0.0
C634 C 0.63729 0.85531 0.45225 0.0
C635 C 0.65238 0.85814 0.46969 0.0
C636 C 0.64128 0.78472 0.34483 0.0
C637 C 0.66392 0.8582 0.33508 0.0
C638 C 0.68377 0.82296 0.29129 0.0
C639 C 0.69621 0.8217 0.27213 0.0
C640 C 0.72259 0.82346 0.27132 0.0
C641 C 0.68122 0.81819 0.25441 0.0
C642 C 0.69227 0.81594 0.23597 0.0
C643 C 0.73381 0.82155 0.25305 0.0
C644 C 0.71871 0.81767 0.23545 0.0
C645 C 0.7249 0.88796 0.35948 0.0
H646 H 0.63573 0.85068 0.42052 0.0
H647 H 0.70764 0.85475 0.44941 0.0
H648 H 0.61769 0.8555 0.453 0.0
H649 H 0.64407 0.86036 0.48383 0.0
H650 H 0.73441 0.82605 0.28476 0.0
H651 H 0.66068 0.81653 0.25504 0.0
H652 H 0.75417 0.82289 0.25254 0.0
H653 H 0.72775 0.81616 0.22142 0.0
Gd654 Gd 0.17681 0.84918 0.32605 0.0
Gd655 Gd 0.20205 0.8451 0.37633 0.0
C656 C 0.28823 0.85319 0.3858 0.0
C657 C 0.27571 0.80766 0.39707 0.0
C658 C 0.23923 0.81863 0.38946 0.0
C659 C 0.25943 0.84486 0.38426 0.0
C660 C 0.2471 0.79986 0.39632 0.0
C661 C 0.29625 0.83429 0.3918 0.0
C662 C 0.30808 0.88044 0.38174 0.0
C663 C 0.29899 0.89878 0.377 0.0
N664 N 0.25092 0.86264 0.3787 0.0
C665 C 0.27018 0.88957 0.37581 0.0
H666 H 0.26356 0.90402 0.37208 0.0
C667 C 0.19125 0.78727 0.3959 0.0
N668 N 0.21184 0.81187 0.38871 0.0
C669 C 0.19798 0.76788 0.40273 0.0
C670 C 0.22601 0.77408 0.40272 0.0
H671 H 0.16954 0.78234 0.3958 0.0
H672 H 0.31827 0.84023 0.39287 0.0
H673 H 0.11497 0.7904 0.32943 0.0
H674 H 0.33041 0.88763 0.38267 0.0
H675 H 0.31416 0.92001 0.37418 0.0
H676 H 0.28219 0.79347 0.40213 0.0
H677 H 0.2102 0.91216 0.30696 0.0
H678 H 0.0488 0.8071 0.31698 0.0
H679 H 0.06456 0.77455 0.32611 0.0
H680 H 0.09803 0.9014 0.29793 0.0
H681 H 0.18156 0.74818 0.40796 0.0
H682 H 0.23118 0.75907 0.40808 0.0
H683 H 0.0615 0.85462 0.30672 0.0
H684 H 0.19881 0.94643 0.29415 0.0
N685 N 0.12805 0.83189 0.32285 0.0
C686 C 0.07106 0.81424 0.31842 0.0
C687 C 0.07988 0.7958 0.32353 0.0
C688 C 0.09113 0.84151 0.31468 0.0
C689 C 0.11984 0.84975 0.3169 0.0
C690 C 0.1086 0.80494 0.32541 0.0
N691 N 0.16761 0.88262 0.31326 0.0
C692 C 0.14029 0.87597 0.31192 0.0
C693 C 0.18215 0.92673 0.29917 0.0
C694 C 0.15417 0.92061 0.29853 0.0
C695 C 0.18852 0.90726 0.30638 0.0
C696 C 0.13278 0.89483 0.30467 0.0
H697 H 0.14927 0.93569 0.29288 0.0
O698 O 0.19647 0.85741 0.29663 0.0
O699 O 0.21163 0.85046 0.34381 0.0
O700 O 0.21431 0.88846 0.36737 0.0
O701 O 0.18147 0.88501 0.3439 0.0
O702 O 0.2233 0.87841 0.32103 0.0
O703 O 0.16291 0.81678 0.30419 0.0
O704 O 0.18227 0.83664 0.4057 0.0
O705 O 0.16727 0.84367 0.35854 0.0
O706 O 0.16381 0.80558 0.33518 0.0
O707 O 0.19674 0.80911 0.35864 0.0
O708 O 0.15548 0.81611 0.38164 0.0
O709 O 0.21681 0.87697 0.39871 0.0
C710 C 0.23269 0.86913 0.33474 0.0
C711 C 0.10424 0.88713 0.3033 0.0
C712 C 0.08344 0.8605 0.3083 0.0
C713 C 0.17978 0.83275 0.29023 0.0
C714 C 0.1674 0.83027 0.27033 0.0
C715 C 0.14177 0.82981 0.26815 0.0
C716 C 0.18103 0.82766 0.25334 0.0
C717 C 0.16882 0.82399 0.2343 0.0
C718 C 0.12972 0.82646 0.24931 0.0
C719 C 0.14302 0.82341 0.23249 0.0
C720 C 0.20038 0.89859 0.35787 0.0
C721 C 0.14621 0.82517 0.36769 0.0
C722 C 0.19958 0.86092 0.41249 0.0
C723 C 0.21178 0.86218 0.43228 0.0
C724 C 0.2362 0.86033 0.43414 0.0
C725 C 0.19917 0.86573 0.44951 0.0
C726 C 0.21128 0.86802 0.46844 0.0
C727 C 0.24808 0.86224 0.45287 0.0
C728 C 0.23583 0.86621 0.46992 0.0
C729 C 0.17732 0.79528 0.34507 0.0
H730 H 0.13095 0.83179 0.281 0.0
H731 H 0.20076 0.82785 0.25499 0.0
H732 H 0.10991 0.82608 0.24775 0.0
H733 H 0.13327 0.82086 0.21801 0.0
H734 H 0.24623 0.85763 0.42112 0.0
H735 H 0.1804 0.86737 0.44812 0.0
H736 H 0.26695 0.86083 0.45417 0.0
H737 H 0.24547 0.86772 0.4843 0.0
Gd738 Gd 0.85379 0.68838 0.70997 0.0
Gd739 Gd 0.83209 0.65897 0.65911 0.0
C740 C 0.7461 0.58342 0.6493 0.0
C741 C 0.75871 0.5491 0.64094 0.0
C742 C 0.7951 0.59582 0.64753 0.0
C743 C 0.77486 0.60294 0.65123 0.0
C744 C 0.78733 0.569 0.64187 0.0
C745 C 0.73811 0.5563 0.64467 0.0
C746 C 0.72631 0.59196 0.65139 0.0
C747 C 0.7355 0.61953 0.65447 0.0
N748 N 0.78337 0.62938 0.6554 0.0
C749 C 0.76428 0.63813 0.65619 0.0
H750 H 0.771 0.65932 0.65871 0.0
C751 C 0.84322 0.61049 0.64234 0.0
N752 N 0.82248 0.61562 0.64835 0.0
C753 C 0.8366 0.58415 0.63672 0.0
C754 C 0.80854 0.56321 0.63674 0.0
H755 H 0.86496 0.62659 0.64251 0.0
H756 H 0.71611 0.54094 0.64336 0.0
H757 H 0.91518 0.68844 0.71008 0.0
H758 H 0.70401 0.5776 0.65007 0.0
H759 H 0.72041 0.62647 0.65565 0.0
H760 H 0.75229 0.5283 0.63683 0.0
H761 H 0.82018 0.71999 0.72657 0.0
H762 H 0.98145 0.76926 0.72246 0.0
H763 H 0.96548 0.72102 0.71461 0.0
H764 H 0.9324 0.81742 0.73714 0.0
H765 H 0.85312 0.58 0.63245 0.0
H766 H 0.80345 0.54285 0.63232 0.0
H767 H 0.96891 0.80524 0.7306 0.0
H768 H 0.83145 0.76573 0.7383 0.0
N769 N 0.9024 0.71789 0.71469 0.0
C770 C 0.95923 0.75501 0.72047 0.0
C771 C 0.95029 0.72779 0.7161 0.0
C772 C 0.9393 0.76331 0.72283 0.0
C773 C 0.91066 0.74396 0.71995 0.0
C774 C 0.92162 0.70932 0.71353 0.0
N775 N 0.86294 0.73118 0.72175 0.0
C776 C 0.89024 0.75083 0.72361 0.0
C777 C 0.8482 0.76185 0.73414 0.0
C778 C 0.87622 0.78268 0.73525 0.0
C779 C 0.8419 0.73597 0.72754 0.0
C780 C 0.89769 0.77721 0.73025 0.0
H781 H 0.88106 0.80269 0.74042 0.0
O782 O 0.83152 0.67782 0.73851 0.0
O783 O 0.82044 0.65649 0.69112 0.0
O784 O 0.81997 0.69116 0.66595 0.0
O785 O 0.85036 0.71941 0.69078 0.0
O786 O 0.80714 0.67335 0.71266 0.0
O787 O 0.86488 0.66879 0.73328 0.0
O788 O 0.85348 0.66841 0.63027 0.0
O789 O 0.86544 0.69095 0.67789 0.0
O790 O 0.86678 0.65682 0.70279 0.0
O791 O 0.83567 0.62831 0.67845 0.0
O792 O 0.87881 0.67461 0.65589 0.0
O793 O 0.81985 0.6771 0.63543 0.0
C794 C 0.79885 0.65522 0.69881 0.0
C795 C 0.92622 0.79696 0.73225 0.0
C796 C 0.947 0.79002 0.72852 0.0
C797 C 0.84696 0.66865 0.74621 0.0
C798 C 0.85776 0.67807 0.76653 0.0
C799 C 0.88102 0.70415 0.7694 0.0
C800 C 0.84537 0.66069 0.78315 0.0
C801 C 0.85669 0.66918 0.80244 0.0
C802 C 0.89207 0.71275 0.78846 0.0
C803 C 0.88015 0.69538 0.80485 0.0
C804 C 0.8329 0.71468 0.67571 0.0
C805 C 0.88703 0.69257 0.66987 0.0
C806 C 0.83747 0.67683 0.62243 0.0
C807 C 0.82602 0.66616 0.60246 0.0
C808 C 0.80376 0.63935 0.60035 0.0
C809 C 0.83682 0.68299 0.5854 0.0
C810 C 0.82495 0.67317 0.56642 0.0
C811 C 0.79218 0.62944 0.58161 0.0
C812 C 0.80255 0.64621 0.56478 0.0
C813 C 0.85381 0.6333 0.69303 0.0
H814 H 0.89079 0.71779 0.75689 0.0
H815 H 0.82746 0.64045 0.78102 0.0
H816 H 0.91007 0.7329 0.79052 0.0
H817 H 0.88916 0.70252 0.8195 0.0
H818 H 0.7952 0.62613 0.61321 0.0
H819 H 0.85391 0.7038 0.58697 0.0
H820 H 0.77498 0.60872 0.58013 0.0
H821 H 0.79318 0.63801 0.55039 0.0
Gd822 Gd 0.33314 0.16613 0.70958 0.0
Gd823 Gd 0.36566 0.17025 0.66031 0.0
C824 C 0.4445 0.16299 0.65377 0.0
C825 C 0.47921 0.20852 0.64262 0.0
C826 C 0.43092 0.1972 0.64891 0.0
C827 C 0.42406 0.17111 0.65453 0.0
C828 C 0.45841 0.21604 0.64244 0.0
C829 C 0.47227 0.18203 0.64828 0.0
C830 C 0.43623 0.13578 0.65797 0.0
C831 C 0.408 0.11726 0.66204 0.0
N832 N 0.39696 0.15318 0.65952 0.0
C833 C 0.38846 0.12626 0.66246 0.0
H834 H 0.36676 0.11168 0.66569 0.0
C835 C 0.41508 0.22793 0.64083 0.0
N836 N 0.41025 0.20365 0.64869 0.0
C837 C 0.44205 0.24737 0.63435 0.0
C838 C 0.46391 0.24155 0.63541 0.0
H839 H 0.39825 0.23255 0.64012 0.0
H840 H 0.48834 0.17626 0.64785 0.0
H841 H 0.33116 0.22436 0.70494 0.0
H842 H 0.4513 0.12875 0.65763 0.0
H843 H 0.40126 0.09605 0.66492 0.0
H844 H 0.50054 0.22279 0.6379 0.0
H845 H 0.30145 0.10339 0.72908 0.0
H846 H 0.24677 0.20659 0.71511 0.0
H847 H 0.29642 0.2396 0.70696 0.0
H848 H 0.1989 0.11241 0.73445 0.0
H849 H 0.44595 0.26683 0.62859 0.0
H850 H 0.48476 0.2566 0.63031 0.0
H851 H 0.21039 0.15892 0.72507 0.0
H852 H 0.25428 0.06879 0.74119 0.0
N853 N 0.3015 0.18276 0.71127 0.0
C854 C 0.26196 0.19972 0.71424 0.0
C855 C 0.28997 0.21842 0.70968 0.0
C856 C 0.25406 0.17254 0.71818 0.0
C857 C 0.27464 0.16464 0.71672 0.0
C858 C 0.30964 0.20963 0.70853 0.0
N859 N 0.28898 0.1323 0.72155 0.0
C860 C 0.26818 0.13857 0.72205 0.0
C861 C 0.25786 0.08829 0.73577 0.0
C862 C 0.23587 0.09397 0.7355 0.0
C863 C 0.28454 0.10793 0.72895 0.0
C864 C 0.24097 0.11952 0.72888 0.0
H865 H 0.21524 0.07877 0.74085 0.0
O866 O 0.34298 0.15834 0.73945 0.0
O867 O 0.36788 0.16536 0.693 0.0
O868 O 0.33263 0.12665 0.6688 0.0
O869 O 0.30212 0.12987 0.69154 0.0
O870 O 0.3502 0.13772 0.71593 0.0
O871 O 0.35005 0.19847 0.73157 0.0
O872 O 0.35659 0.17821 0.63025 0.0
O873 O 0.33118 0.17132 0.6769 0.0
O874 O 0.3655 0.20994 0.70091 0.0
O875 O 0.39611 0.20699 0.6781 0.0
O876 O 0.34847 0.19848 0.6536 0.0
O877 O 0.3492 0.13801 0.63822 0.0
C878 C 0.36972 0.14711 0.70254 0.0
C879 C 0.22001 0.12684 0.72942 0.0
C880 C 0.22655 0.15331 0.72408 0.0
C881 C 0.35006 0.18269 0.74579 0.0
C882 C 0.33812 0.18423 0.76513 0.0
C883 C 0.31258 0.1842 0.76619 0.0
C884 C 0.35279 0.18629 0.78277 0.0
C885 C 0.34233 0.18884 0.80138 0.0
C886 C 0.30194 0.18641 0.78463 0.0
C887 C 0.31675 0.18888 0.80214 0.0
C888 C 0.30782 0.11631 0.67794 0.0
C889 C 0.32925 0.18943 0.66722 0.0
C890 C 0.34969 0.1539 0.62391 0.0
C891 C 0.36248 0.15258 0.6049 0.0
C892 C 0.38868 0.15391 0.60451 0.0
C893 C 0.34813 0.14955 0.58691 0.0
C894 C 0.35968 0.14742 0.56865 0.0
C895 C 0.4004 0.15216 0.58644 0.0
C896 C 0.38599 0.14883 0.5686 0.0
C897 C 0.39012 0.22058 0.69148 0.0
H898 H 0.301 0.18273 0.75282 0.0
H899 H 0.37267 0.18657 0.78195 0.0
H900 H 0.28224 0.18641 0.78533 0.0
H901 H 0.30815 0.19064 0.81629 0.0
H902 H 0.39999 0.15607 0.61814 0.0
H903 H 0.32774 0.14823 0.5872 0.0
H904 H 0.42063 0.15322 0.58627 0.0
H905 H 0.39547 0.14749 0.55473 0.0
Gd906 Gd 0.84426 0.18357 0.65962 0.0
Gd907 Gd 0.86798 0.17724 0.70993 0.0
C908 C 0.95389 0.1849 0.71993 0.0
C909 C 0.94106 0.13896 0.73031 0.0
C910 C 0.9048 0.15025 0.72276 0.0
C911 C 0.92514 0.17667 0.71813 0.0
C912 C 0.91248 0.13121 0.7293 0.0
C913 C 0.96174 0.16576 0.72562 0.0
C914 C 0.97385 0.21227 0.71643 0.0
C915 C 0.9649 0.2308 0.71196 0.0
N916 N 0.91678 0.19465 0.71284 0.0
C917 C 0.93614 0.22168 0.7105 0.0
H918 H 0.92965 0.23628 0.70697 0.0
C919 C 0.85667 0.11869 0.72839 0.0
N920 N 0.87744 0.14356 0.72177 0.0
C921 C 0.86319 0.09903 0.73488 0.0
C922 C 0.89121 0.1052 0.73512 0.0
H923 H 0.83496 0.11378 0.72809 0.0
H924 H 0.98372 0.17164 0.72689 0.0
H925 H 0.78177 0.12554 0.66182 0.0
H926 H 0.99615 0.21941 0.71758 0.0
H927 H 0.98015 0.25212 0.70958 0.0
H928 H 0.94739 0.12456 0.73513 0.0
H929 H 0.87906 0.24692 0.64102 0.0
H930 H 0.71698 0.14483 0.65102 0.0
H931 H 0.73154 0.11097 0.6588 0.0
H932 H 0.76828 0.2398 0.63399 0.0
H933 H 0.84663 0.07913 0.73966 0.0
H934 H 0.89623 0.08997 0.74021 0.0
H935 H 0.7309 0.1931 0.6421 0.0
H936 H 0.86882 0.28238 0.62919 0.0
N937 N 0.79577 0.16746 0.65633 0.0
C938 C 0.73913 0.15137 0.65231 0.0
C939 C 0.74726 0.13219 0.65665 0.0
C940 C 0.75971 0.17862 0.64912 0.0
C941 C 0.78823 0.18608 0.65112 0.0
C942 C 0.77584 0.14057 0.65835 0.0
N943 N 0.83632 0.21823 0.64772 0.0
C944 C 0.80919 0.21233 0.64668 0.0
C945 C 0.85186 0.26282 0.63417 0.0
C946 C 0.82415 0.25755 0.63401 0.0
C947 C 0.85758 0.24269 0.64085 0.0
C948 C 0.80233 0.2319 0.63999 0.0
H949 H 0.81976 0.27314 0.62876 0.0
O950 O 0.86726 0.1916 0.63163 0.0
O951 O 0.87833 0.18355 0.67755 0.0
O952 O 0.88065 0.22104 0.70196 0.0
O953 O 0.84911 0.21908 0.67787 0.0
O954 O 0.89089 0.21283 0.6556 0.0
O955 O 0.82776 0.15402 0.63543 0.0
O956 O 0.84764 0.16754 0.73913 0.0
O957 O 0.83381 0.17663 0.69194 0.0
O958 O 0.83091 0.13947 0.66762 0.0
O959 O 0.86285 0.14186 0.69154 0.0
O960 O 0.82128 0.14813 0.71442 0.0
O961 O 0.88178 0.20836 0.73284 0.0
C962 C 0.89971 0.20265 0.66905 0.0
C963 C 0.77398 0.22497 0.63889 0.0
C964 C 0.7527 0.19837 0.64348 0.0
C965 C 0.84808 0.16943 0.62312 0.0
C966 C 0.84008 0.17295 0.60284 0.0
C967 C 0.82143 0.18279 0.59998 0.0
C968 C 0.85247 0.16797 0.58612 0.0
C969 C 0.84682 0.17352 0.56673 0.0
C970 C 0.81572 0.18822 0.58076 0.0
C971 C 0.82851 0.18385 0.5642 0.0
C972 C 0.86754 0.23189 0.69226 0.0
C973 C 0.81245 0.1578 0.70062 0.0
C974 C 0.86444 0.19171 0.74633 0.0
C975 C 0.87637 0.19268 0.76618 0.0
C976 C 0.90042 0.19022 0.76814 0.0
C977 C 0.86398 0.19671 0.78333 0.0
C978 C 0.87598 0.1989 0.80229 0.0
C979 C 0.91218 0.19204 0.78691 0.0
C980 C 0.90018 0.19652 0.80388 0.0
C981 C 0.84388 0.12865 0.67756 0.0
H982 H 0.8115 0.18651 0.61257 0.0
H983 H 0.86696 0.16042 0.5882 0.0
H984 H 0.80145 0.19599 0.57869 0.0
H985 H 0.82389 0.18824 0.54939 0.0
H986 H 0.91026 0.18714 0.75518 0.0
H987 H 0.8455 0.19882 0.78186 0.0
H988 H 0.93078 0.19017 0.78829 0.0
H989 H 0.90974 0.19799 0.81829 0.0
H990 H 0.3058 0.88105 0.08235 0.0
H991 H 0.32198 0.82567 0.04797 0.0
H992 H 0.34892 0.91907 0.07002 0.0
H993 H 0.36393 0.86425 0.03389 0.0
H994 H 0.45503 0.93682 0.03209 0.0
H995 H 0.40997 0.89686 0.04036 0.0
H996 H 0.37228 0.94803 0.04435 0.0
H997 H 0.4179 0.98796 0.03746 0.0
C998 C 0.31845 0.87685 0.07209 0.0
C999 C 0.31029 0.84993 0.06652 0.0
C1000 C 0.34311 0.89895 0.06456 0.0
C1001 C 0.36022 0.89509 0.05074 0.0
C1002 C 0.35171 0.86823 0.04471 0.0
C1003 C 0.32725 0.84598 0.05259 0.0
C1004 C 0.43694 0.93934 0.03444 0.0
C1005 C 0.43984 0.96542 0.03403 0.0
C1006 C 0.41096 0.91638 0.03915 0.0
C1007 C 0.38721 0.91897 0.04342 0.0
C1008 C 0.39006 0.94508 0.04189 0.0
C1009 C 0.41614 0.96803 0.03766 0.0
H1010 H 0.15752 0.4261 0.05693 0.0
H1011 H 0.2032 0.5112 0.0725 0.0
H1012 H 0.1183 0.43106 0.04516 0.0
H1013 H 0.16342 0.5162 0.06186 0.0
H1014 H 0.09255 0.52181 0.03138 0.0
H1015 H 0.1344 0.51811 0.03734 0.0
H1016 H 0.08136 0.43506 0.05766 0.0
H1017 H 0.03987 0.43852 0.05047 0.0
C1018 C 0.15916 0.44596 0.05766 0.0
C1019 C 0.18341 0.46829 0.06548 0.0
C1020 C 0.13652 0.44882 0.05117 0.0
C1021 C 0.13717 0.47398 0.05279 0.0
C1022 C 0.16199 0.49655 0.06009 0.0
C1023 C 0.18486 0.49374 0.06627 0.0
C1024 C 0.08993 0.5026 0.03666 0.0
C1025 C 0.06287 0.48016 0.03983 0.0
C1026 C 0.11398 0.50055 0.04041 0.0
C1027 C 0.11162 0.47617 0.0479 0.0
C1028 C 0.08437 0.45395 0.05137 0.0
C1029 C 0.06043 0.45596 0.04743 0.0
H1030 H 0.60978 0.73251 0.0701 0.0
H1031 H 0.5222 0.70677 0.0614 0.0
H1032 H 0.60219 0.68957 0.05622 0.0
H1033 H 0.5141 0.66321 0.04825 0.0
H1034 H 0.5115 0.59442 0.01238 0.0
H1035 H 0.52153 0.63976 0.02201 0.0
H1036 H 0.58131 0.64349 0.06554 0.0
H1037 H 0.57258 0.59893 0.05501 0.0
C1038 C 0.58887 0.71756 0.06519 0.0
C1039 C 0.56654 0.72282 0.06687 0.0
C1040 C 0.58444 0.69287 0.05737 0.0
C1041 C 0.55744 0.67266 0.05132 0.0
C1042 C 0.53525 0.67834 0.05251 0.0
C1043 C 0.53981 0.70325 0.06009 0.0
C1044 C 0.52722 0.60512 0.0237 0.0
C1045 C 0.54154 0.59311 0.03266 0.0
C1046 C 0.53269 0.63104 0.02945 0.0
C1047 C 0.5523 0.64546 0.04455 0.0
C1048 C 0.56651 0.63335 0.05356 0.0
C1049 C 0.5613 0.60758 0.04763 0.0
H1050 H 0.85536 0.31865 0.94039 0.0
H1051 H 0.83506 0.28358 0.99973 0.0
H1052 H 0.89207 0.36139 0.95419 0.0
H1053 H 0.87116 0.32718 0.01356 0.0
H1054 H 0.92037 0.42335 0.02652 0.0
H1055 H 0.88258 0.37907 0.01517 0.0
H1056 H 0.93924 0.37461 0.97253 0.0
H1057 H 0.97728 0.41822 0.98423 0.0
C1058 C 0.8587 0.31991 0.95638 0.0
C1059 C 0.84242 0.29727 0.96885 0.0
C1060 C 0.87969 0.34455 0.96427 0.0
C1061 C 0.88466 0.34751 0.98491 0.0
C1062 C 0.86773 0.32543 0.99758 0.0
C1063 C 0.84695 0.3005 0.98963 0.0
C1064 C 0.92501 0.41273 0.01503 0.0
C1065 C 0.95208 0.42441 1.00646 0.0
C1066 C 0.90328 0.38739 0.0085 0.0
C1067 C 0.90796 0.37347 0.99293 0.0
C1068 C 0.93499 0.38499 0.98446 0.0
C1069 C 0.95681 0.41001 0.99123 0.0
H1070 H 0.69789 0.51937 0.94667 0.0
H1071 H 0.74303 0.57184 0.996 0.0
H1072 H 0.65372 0.5143 0.95991 0.0
H1073 H 0.69892 0.56754 0.00888 0.0
H1074 H 0.61854 0.58109 0.99711 0.0
H1075 H 0.66322 0.58294 0.98947 0.0
H1076 H 0.62283 0.49562 0.9962 0.0
H1077 H 0.57831 0.49386 1.00449 0.0
C1078 C 0.69829 0.52965 0.96041 0.0
C1079 C 0.72386 0.54593 0.97034 0.0
C1080 C 0.67304 0.52667 0.96802 0.0
C1081 C 0.6729 0.54049 0.98543 0.0
C1082 C 0.69844 0.55663 0.99545 0.0
C1083 C 0.72361 0.55902 0.98813 0.0
C1084 C 0.61939 0.56238 0.99737 0.0
C1085 C 0.59507 0.53742 1.00175 0.0
C1086 C 0.64492 0.56344 0.99303 0.0
C1087 C 0.64649 0.53944 0.99226 0.0
C1088 C 0.62222 0.51444 0.99674 0.0
C1089 C 0.59681 0.51346 1.0016 0.0
H1090 H 0.48308 0.16508 0.93555 0.0
H1091 H 0.46677 0.18307 0.99529 0.0
H1092 H 0.49086 0.12937 0.94898 0.0
H1093 H 0.47577 0.14807 0.00865 0.0
H1094 H 0.52516 0.1021 0.02317 0.0
H1095 H 0.51736 0.13842 0.01086 0.0
H1096 H 0.45964 0.08358 0.96683 0.0
H1097 H 0.46664 0.04709 0.97935 0.0
C1098 C 0.48102 0.16142 0.95151 0.0
C1099 C 0.47409 0.17696 0.96428 0.0
C1100 C 0.48564 0.14104 0.95919 0.0
C1101 C 0.48386 0.13596 0.97984 0.0
C1102 C 0.47753 0.15176 0.99269 0.0
C1103 C 0.4725 0.17189 0.98499 0.0
C1104 C 0.51044 0.0976 0.01111 0.0
C1105 C 0.49635 0.07151 1.00242 0.0
C1106 C 0.50608 0.11846 1.00401 0.0
C1107 C 0.48799 0.1138 0.98785 0.0
C1108 C 0.47392 0.08779 0.97918 0.0
C1109 C 0.4779 0.06686 0.98645 0.0
H1110 H 0.6996 0.18752 0.97537 0.0
H1111 H 0.73619 0.14365 1.00287 0.0
H1112 H 0.65262 0.14834 0.98078 0.0
H1113 H 0.68935 0.10489 0.00899 0.0
H1114 H 0.60486 0.02939 0.99532 0.0
H1115 H 0.65146 0.06929 0.99115 0.0
H1116 H 0.61753 0.12166 1.00543 0.0
H1117 H 0.57068 0.08153 0.0088 0.0
C1118 C 0.69763 0.16945 0.98247 0.0
C1119 C 0.72169 0.16832 0.9881 0.0
C1120 C 0.67064 0.14708 0.98582 0.0
C1121 C 0.66706 0.12321 0.99515 0.0
C1122 C 0.69119 0.12256 1.00131 0.0
C1123 C 0.71807 0.1448 0.99785 0.0
C1124 C 0.60749 0.04945 0.99774 0.0
C1125 C 0.58432 0.05232 1.00291 0.0
C1126 C 0.63422 0.07237 0.99545 0.0
C1127 C 0.63846 0.09884 0.99807 0.0
C1128 C 0.61511 0.10168 1.00312 0.0
C1129 C 0.5883 0.07866 1.00537 0.0
H1130 H 0.88335 0.59061 1.00165 0.0
H1131 H 0.83231 0.50965 0.9779 0.0
H1132 H 0.92241 0.58216 1.00582 0.0
H1133 H 0.8718 0.50137 0.98136 0.0
H1134 H 0.9411 0.48721 0.00802 0.0
H1135 H 0.90061 0.49399 1.00453 0.0
H1136 H 0.95656 0.57776 0.98715 0.0
H1137 H 0.99676 0.57104 0.99139 0.0
C1138 C 0.88068 0.57114 0.99697 0.0
C1139 C 0.85498 0.55118 0.98887 0.0
C1140 C 0.90313 0.56628 0.9993 0.0
C1141 C 0.90061 0.54119 0.99366 0.0
C1142 C 0.87463 0.52092 0.98594 0.0
C1143 C 0.85203 0.52577 0.98371 0.0
C1144 C 0.94466 0.50715 1.00378 0.0
C1145 C 0.97216 0.52888 1.00066 0.0
C1146 C 0.92143 0.51098 1.00147 0.0
C1147 C 0.92514 0.53656 0.99573 0.0
C1148 C 0.95274 0.55797 0.99207 0.0
C1149 C 0.97585 0.55412 0.99439 0.0
H1150 H 0.51404 0.31241 0.98626 0.0
H1151 H 0.42592 0.28764 0.98847 0.0
H1152 H 0.52632 0.35976 0.99138 0.0
H1153 H 0.43799 0.3348 0.99439 0.0
H1154 H 0.46903 0.42545 0.98693 0.0
H1155 H 0.45756 0.37894 0.97917 0.0
H1156 H 0.52565 0.38848 0.01683 0.0
H1157 H 0.53799 0.43519 0.02365 0.0
C1158 C 0.49732 0.31719 0.98775 0.0
C1159 C 0.46906 0.2965 0.98657 0.0
C1160 C 0.5043 0.34425 0.99089 0.0
C1161 C 0.48315 0.35117 0.99329 0.0
C1162 C 0.45484 0.33034 0.99223 0.0
C1163 C 0.44789 0.3033 0.98894 0.0
C1164 C 0.48162 0.41766 0.99347 0.0
C1165 C 0.50417 0.43397 1.00617 0.0
C1166 C 0.47492 0.3909 0.98914 0.0
C1167 C 0.49058 0.37984 0.99744 0.0
C1168 C 0.5133 0.39633 0.00996 0.0
C1169 C 0.52012 0.42308 0.01414 0.0
H1170 H 0.14921 0.73153 0.04542 0.0
H1171 H 0.21376 0.70942 0.04798 0.0
H1172 H 0.11374 0.68386 0.04028 0.0
H1173 H 0.17825 0.66151 0.04363 0.0
H1174 H 0.11272 0.5832 0.01347 0.0
H1175 H 0.14799 0.63048 0.01939 0.0
H1176 H 0.0886 0.64042 0.05587 0.0
H1177 H 0.0528 0.59344 0.04903 0.0
C1178 C 0.15571 0.71634 0.04526 0.0
C1179 C 0.18417 0.72415 0.04758 0.0
C1180 C 0.13537 0.68896 0.0424 0.0
C1181 C 0.14297 0.66863 0.04166 0.0
C1182 C 0.17155 0.67653 0.04392 0.0
C1183 C 0.19192 0.70397 0.04665 0.0
C1184 C 0.10699 0.59552 0.02252 0.0
C1185 C 0.07965 0.58453 0.03043 0.0
C1186 C 0.12744 0.62263 0.02619 0.0
C1187 C 0.12127 0.63948 0.0381 0.0
C1188 C 0.09405 0.6283 0.04633 0.0
C1189 C 0.07352 0.60121 0.04252 0.0
H1190 H 0.31233 0.44838 0.07651 0.0
H1191 H 0.32276 0.49735 0.0244 0.0
H1192 H 0.36023 0.45653 0.07214 0.0
H1193 H 0.37061 0.50531 0.01973 0.0
H1194 H 0.46505 0.5314 0.02865 0.0
H1195 H 0.41867 0.52701 0.03356 0.0
H1196 H 0.38426 0.44203 0.04884 0.0
H1197 H 0.43046 0.44654 0.04387 0.0
C1198 C 0.32503 0.46112 0.06424 0.0
C1199 C 0.31371 0.47201 0.05072 0.0
C1200 C 0.35239 0.46561 0.06158 0.0
C1201 C 0.36927 0.48128 0.04539 0.0
C1202 C 0.35835 0.49324 0.0324 0.0
C1203 C 0.3309 0.48865 0.03504 0.0
C1204 C 0.44744 0.51171 0.03272 0.0
C1205 C 0.45125 0.48914 0.03543 0.0
C1206 C 0.42085 0.50919 0.03564 0.0
C1207 C 0.39762 0.48418 0.04174 0.0
C1208 C 0.40165 0.46171 0.04445 0.0
C1209 C 0.42809 0.46421 0.04144 0.0
H1210 H 0.55646 0.83424 0.02176 0.0
H1211 H 0.57784 0.86332 0.08225 0.0
H1212 H 0.54209 0.86798 0.01525 0.0
H1213 H 0.56285 0.89676 0.07603 0.0
H1214 H 0.56636 0.97345 0.04969 0.0
H1215 H 0.57845 0.93849 0.05723 0.0
H1216 H 0.5066 0.87979 0.02353 0.0
H1217 H 0.49464 0.91478 0.01584 0.0
C1218 C 0.55787 0.84779 0.03369 0.0
C1219 C 0.56853 0.8465 0.05242 0.0
C1220 C 0.54949 0.86699 0.03003 0.0
C1221 C 0.55144 0.88519 0.04509 0.0
C1222 C 0.56152 0.88338 0.064 0.0
C1223 C 0.56994 0.86419 0.06762 0.0
C1224 C 0.55308 0.95308 0.04392 0.0
C1225 C 0.52976 0.94705 0.03191 0.0
C1226 C 0.55994 0.93297 0.04835 0.0
C1227 C 0.54357 0.90633 0.04093 0.0
C1228 C 0.51996 0.90021 0.0292 0.0
C1229 C 0.51311 0.92031 0.02478 0.0
H1230 H 1.00396 0.16685 0.41057 0.0
H1231 H 0.9562 0.20034 0.38439 0.0
H1232 H 0.04752 0.20544 0.39773 0.0
H1233 H 0.99957 0.23872 0.37094 0.0
H1234 H 0.0845 0.31937 0.37624 0.0
H1235 H 0.0396 0.27863 0.38362 0.0
H1236 H 0.07581 0.2283 0.36897 0.0
H1237 H 0.12098 0.26928 0.36238 0.0
C1238 C 1.00288 0.18236 0.40175 0.0
C1239 C 0.97694 0.18082 0.39843 0.0
C1240 C 0.02776 0.20438 0.39427 0.0
C1241 C 0.02718 0.22533 0.38328 0.0
C1242 C 1.00092 0.22322 0.37955 0.0
C1243 C 0.97607 0.20122 0.38711 0.0
C1244 C 0.08267 0.29955 0.37432 0.0
C1245 C 0.10608 0.2975 0.36839 0.0
C1246 C 0.05689 0.27614 0.37844 0.0
C1247 C 0.05394 0.25004 0.37692 0.0
C1248 C 0.07732 0.24802 0.37053 0.0
C1249 C 0.10316 0.2715 0.36647 0.0
H1250 H 0.82334 0.75752 0.3892 0.0
H1251 H 0.86899 0.84247 0.40519 0.0
H1252 H 0.78419 0.76262 0.37747 0.0
H1253 H 0.82928 0.8476 0.3946 0.0
H1254 H 0.70577 0.7702 0.38271 0.0
H1255 H 0.74715 0.76653 0.38987 0.0
H1256 H 0.80047 0.84979 0.3701 0.0
H1257 H 0.75877 0.85369 0.3642 0.0
C1258 C 0.82499 0.77738 0.39004 0.0
C1259 C 0.84921 0.79963 0.39797 0.0
C1260 C 0.80238 0.78031 0.38357 0.0
C1261 C 0.80305 0.80546 0.3853 0.0
C1262 C 0.82784 0.82795 0.39273 0.0
C1263 C 0.85067 0.82508 0.39889 0.0
C1264 C 0.72637 0.78764 0.37978 0.0
C1265 C 0.72892 0.81196 0.37236 0.0
C1266 C 0.75025 0.78551 0.38371 0.0
C1267 C 0.77755 0.80774 0.38039 0.0
C1268 C 0.78001 0.83222 0.37305 0.0
C1269 C 0.75603 0.83439 0.36933 0.0
H1270 H 0.21803 0.0309 0.43059 0.0
H1271 H 0.23234 0.06597 0.37133 0.0
H1272 H 0.21025 0.98812 0.41642 0.0
H1273 H 0.22338 0.02248 0.35714 0.0
H1274 H 0.17508 0.92673 0.3438 0.0
H1275 H 0.18228 0.97074 0.35541 0.0
H1276 H 0.2438 0.97577 0.39767 0.0
H1277 H 0.23738 0.93244 0.38588 0.0
C1278 C 0.21957 0.02956 0.41454 0.0
C1279 C 0.22632 0.05213 0.40216 0.0
C1280 C 0.21496 0.00497 0.40644 0.0
C1281 C 0.21653 1.00214 0.38573 0.0
C1282 C 0.22201 0.02417 0.37318 0.0
C1283 C 0.22702 0.049 0.38132 0.0
C1284 C 0.19053 0.93743 0.3553 0.0
C1285 C 0.20571 0.92599 0.36383 0.0
C1286 C 0.19456 0.96258 0.36196 0.0
C1287 C 0.21343 0.97648 0.37752 0.0
C1288 C 0.22888 0.9653 0.3858 0.0
C1289 C 0.22521 0.94046 0.37897 0.0
H1290 H 0.52074 0.65137 0.27215 0.0
H1291 H 0.50063 0.61757 0.33188 0.0
H1292 H 0.55777 0.6943 0.28557 0.0
H1293 H 0.53694 0.66121 0.34527 0.0
H1294 H 0.58672 0.75624 0.35871 0.0
H1295 H 0.54868 0.71241 0.34698 0.0
H1296 H 0.60488 0.70841 0.30366 0.0
H1297 H 0.64318 0.75163 0.31572 0.0
C1298 C 0.52414 0.65295 0.28813 0.0
C1299 C 0.50773 0.63062 0.30083 0.0
C1300 C 0.54533 0.67768 0.29581 0.0
C1301 C 0.5504 0.68103 0.31644 0.0
C1302 C 0.53342 0.65923 0.32929 0.0
C1303 C 0.51248 0.63425 0.32158 0.0
C1304 C 0.5912 0.74583 0.34697 0.0
C1305 C 0.61824 0.7575 0.33836 0.0
C1306 C 0.56931 0.72074 0.3402 0.0
C1307 C 0.57378 0.70705 0.32436 0.0
C1308 C 0.60075 0.71862 0.31578 0.0
C1309 C 0.62274 0.7434 0.32278 0.0
H1310 H 0.36812 0.83952 0.29824 0.0
H1311 H 0.41071 0.92539 0.31138 0.0
H1312 H 0.32365 0.83502 0.30985 0.0
H1313 H 0.36694 0.92099 0.32415 0.0
H1314 H 0.28032 0.91285 0.32128 0.0
H1315 H 0.32522 0.91637 0.31338 0.0
H1316 H 0.2938 0.8341 0.33504 0.0
H1317 H 0.24812 0.83025 0.34163 0.0
C1318 C 0.36798 0.85732 0.30402 0.0
C1319 C 0.39276 0.88281 0.30385 0.0
C1320 C 0.3425 0.85479 0.31082 0.0
C1321 C 0.34125 0.87767 0.31787 0.0
C1322 C 0.36656 0.90296 0.31839 0.0
C1323 C 0.39183 0.90552 0.31126 0.0
C1324 C 0.28313 0.89562 0.32453 0.0
C1325 C 0.26082 0.87152 0.33251 0.0
C1326 C 0.30908 0.89766 0.32015 0.0
C1327 C 0.31367 0.87562 0.32364 0.0
C1328 C 0.29127 0.85149 0.33186 0.0
C1329 C 0.2651 0.84937 0.33601 0.0
H1330 H 0.18206 0.53693 0.30684 0.0
H1331 H 0.09538 0.47728 0.29542 0.0
H1332 H 0.19017 0.50114 0.31974 0.0
H1333 H 0.10288 0.44157 0.30913 0.0
H1334 H 0.13172 0.37975 0.31413 0.0
H1335 H 0.12408 0.41577 0.30194 0.0
H1336 H 0.18174 0.47071 0.34616 0.0
H1337 H 0.1909 0.43506 0.35744 0.0
C1338 C 0.16468 0.51614 0.30731 0.0
C1339 C 0.13816 0.50979 0.30002 0.0
C1340 C 0.16923 0.49561 0.31482 0.0
C1341 C 0.14721 0.46831 0.31549 0.0
C1342 C 0.12054 0.46218 0.30847 0.0
C1343 C 0.11615 0.48264 0.30068 0.0
C1344 C 0.14282 0.39948 0.32131 0.0
C1345 C 0.16175 0.40432 0.33696 0.0
C1346 C 0.13821 0.42018 0.3144 0.0
C1347 C 0.1521 0.44625 0.3231 0.0
C1348 C 0.17088 0.45104 0.33889 0.0
C1349 C 0.17583 0.43041 0.3456 0.0
H1350 H 0.40211 0.47753 0.33786 0.0
H1351 H 0.36541 0.521 0.3099 0.0
H1352 H 0.3553 0.43855 0.34371 0.0
H1353 H 0.31851 0.48163 0.31502 0.0
H1354 H 0.23639 0.41462 0.34252 0.0
H1355 H 0.28318 0.45488 0.33933 0.0
H1356 H 0.31771 0.40279 0.32581 0.0
H1357 H 0.27115 0.36275 0.32983 0.0
C1358 C 0.38399 0.47854 0.33268 0.0
C1359 C 0.38756 0.50201 0.32286 0.0
C1360 C 0.35712 0.45618 0.33598 0.0
C1361 C 0.33299 0.45667 0.32961 0.0
C1362 C 0.33653 0.48048 0.32023 0.0
C1363 C 0.36347 0.50297 0.31704 0.0
C1364 C 0.25413 0.41185 0.3393 0.0
C1365 C 0.25034 0.38555 0.33704 0.0
C1366 C 0.28091 0.43493 0.33715 0.0
C1367 C 0.30441 0.43221 0.33238 0.0
C1368 C 0.30035 0.40578 0.32991 0.0
C1369 C 0.27364 0.38279 0.33211 0.0
H1370 H 0.54865 0.92175 0.33405 0.0
H1371 H 0.4982 0.84058 0.31055 0.0
H1372 H 0.58818 0.91401 0.33793 0.0
H1373 H 0.5382 0.83297 0.31372 0.0
H1374 H 0.60803 0.81981 0.34063 0.0
H1375 H 0.56728 0.82607 0.33685 0.0
H1376 H 0.62267 0.90997 0.31952 0.0
H1377 H 0.66317 0.90378 0.32409 0.0
C1378 C 0.54622 0.9024 0.3293 0.0
C1379 C 0.52053 0.88215 0.32139 0.0
C1380 C 0.56896 0.89794 0.33148 0.0
C1381 C 0.56675 0.87297 0.32588 0.0
C1382 C 0.54081 0.85245 0.31826 0.0
C1383 C 0.51793 0.85691 0.31618 0.0
C1384 C 0.61143 0.83967 0.33633 0.0
C1385 C 0.63887 0.86158 0.33334 0.0
C1386 C 0.58803 0.84319 0.33384 0.0
C1387 C 0.59149 0.86865 0.32804 0.0
C1388 C 0.61903 0.89026 0.32448 0.0
C1389 C 0.64232 0.88671 0.32699 0.0
H1390 H 0.12166 0.63459 0.29396 0.0
H1391 H 0.14685 0.62945 0.354 0.0
H1392 H 0.13503 0.68229 0.2995 0.0
H1393 H 0.15957 0.67684 0.35986 0.0
H1394 H 0.20611 0.76972 0.35649 0.0
H1395 H 0.19395 0.72277 0.35022 0.0
H1396 H 0.11996 0.70931 0.31814 0.0
H1397 H 0.1323 0.75641 0.3242 0.0
C1398 C 0.12995 0.64375 0.30837 0.0
C1399 C 0.13309 0.62845 0.32359 0.0
C1400 C 0.13745 0.67094 0.31161 0.0
C1401 C 0.14827 0.68338 0.33016 0.0
C1402 C 0.15161 0.66802 0.34533 0.0
C1403 C 0.14416 0.64085 0.34205 0.0
C1404 C 0.18713 0.75672 0.34822 0.0
C1405 C 0.17003 0.76679 0.34102 0.0
C1406 C 0.18014 0.72976 0.34464 0.0
C1407 C 0.15591 0.7122 0.33374 0.0
C1408 C 0.13895 0.72236 0.32639 0.0
C1409 C 0.14596 0.74935 0.32995 0.0
H1410 H 0.83417 0.04931 0.41123 0.0
H1411 H 0.86664 0.05327 0.35182 0.0
H1412 H 0.79905 1.00122 0.40615 0.0
H1413 H 0.83132 0.00551 0.34643 0.0
H1414 H 0.78066 0.91296 0.34935 0.0
H1415 H 0.8172 0.95955 0.35624 0.0
H1416 H 0.75658 0.97384 0.3872 0.0
H1417 H 0.71997 0.92704 0.38045 0.0
C1418 C 0.83376 0.03978 0.39711 0.0
C1419 C 0.85288 0.05497 0.38186 0.0
C1420 C 0.81356 0.01234 0.39412 0.0
C1421 C 0.81215 0.99947 0.37581 0.0
C1422 C 0.8319 0.01461 0.36078 0.0
C1423 C 0.85206 0.04202 0.36379 0.0
C1424 C 0.77501 0.92605 0.35751 0.0
C1425 C 0.74722 0.91628 0.36411 0.0
C1426 C 0.79604 0.95283 0.36147 0.0
C1427 C 0.7899 0.97059 0.3722 0.0
C1428 C 0.76218 0.96068 0.37909 0.0
C1429 C 0.74111 0.93385 0.37511 0.0
H1430 H 0.99843 0.84243 0.39254 0.0
H1431 H 0.96506 0.76078 0.36994 0.0
H1432 H 0.04635 0.85032 0.3884 0.0
H1433 H 1.01253 0.76874 0.36512 0.0
H1434 H 0.09841 0.77963 0.37855 0.0
H1435 H 0.05149 0.77334 0.38309 0.0
H1436 H 0.08222 0.85673 0.36461 0.0
H1437 H 0.12958 0.86313 0.36085 0.0
C1438 C 1.00132 0.82607 0.38691 0.0
C1439 C 0.97785 0.80061 0.38227 0.0
C1440 C 0.02882 0.83068 0.38426 0.0
C1441 C 0.03355 0.81008 0.37661 0.0
C1442 C 1.00995 0.7849 0.37156 0.0
C1443 C 0.98262 0.7803 0.3743 0.0
C1444 C 0.09507 0.79655 0.37533 0.0
C1445 C 0.11752 0.82161 0.3688 0.0
C1446 C 0.06809 0.79295 0.37783 0.0
C1447 C 0.06272 0.81441 0.37405 0.0
C1448 C 0.08542 0.83974 0.36782 0.0
C1449 C 0.11253 0.84333 0.36534 0.0
H1450 H 0.22081 0.16635 0.35417 0.0
H1451 H 0.24359 0.19497 0.41464 0.0
H1452 H 0.20745 0.20088 0.34811 0.0
H1453 H 0.22956 0.22922 0.40887 0.0
H1454 H 0.23299 0.3064 0.3833 0.0
H1455 H 0.24492 0.27116 0.39043 0.0
H1456 H 0.17255 0.21299 0.35689 0.0
H1457 H 0.16083 0.24819 0.34959 0.0
C1458 C 0.22272 0.17995 0.3662 0.0
C1459 C 0.23334 0.17819 0.38483 0.0
C1460 C 0.21492 0.19962 0.3628 0.0
C1461 C 0.21746 0.21789 0.37799 0.0
C1462 C 0.22772 0.21577 0.39675 0.0
C1463 C 0.23557 0.19611 0.40012 0.0
C1464 C 0.21958 0.28608 0.3775 0.0
C1465 C 0.19618 0.28025 0.36565 0.0
C1466 C 0.22634 0.26582 0.38167 0.0
C1467 C 0.20979 0.23925 0.37415 0.0
C1468 C 0.18608 0.23335 0.36261 0.0
C1469 C 0.17935 0.25357 0.35843 0.0
H1470 H 0.65385 0.4905 0.71507 0.0
H1471 H 0.6368 0.54595 0.74859 0.0
H1472 H 0.69562 0.52907 0.70087 0.0
H1473 H 0.67982 0.58399 0.73622 0.0
H1474 H 0.74878 0.65278 0.70352 0.0
H1475 H 0.70329 0.61278 0.71058 0.0
H1476 H 0.74143 0.56197 0.70708 0.0
H1477 H 0.78632 0.60195 0.69861 0.0
C1478 C 0.65889 0.51082 0.71949 0.0
C1479 C 0.64171 0.51478 0.73321 0.0
C1480 C 0.68327 0.53308 0.71154 0.0
C1481 C 0.69152 0.55998 0.71731 0.0
C1482 C 0.67422 0.56384 0.73095 0.0
C1483 C 0.64962 0.54172 0.73853 0.0
C1484 C 0.74714 0.6329 0.70387 0.0
C1485 C 0.77091 0.63039 0.70029 0.0
C1486 C 0.72114 0.60991 0.70819 0.0
C1487 C 0.71844 0.58388 0.70991 0.0
C1488 C 0.74228 0.5814 0.70572 0.0
C1489 C 0.76817 0.60439 0.70089 0.0
H1490 H 0.49213 0.09315 0.72143 0.0
H1491 H 0.53507 0.17718 0.73988 0.0
H1492 H 0.45262 0.09766 0.70953 0.0
H1493 H 0.49513 0.18171 0.72891 0.0
H1494 H 0.425 0.18718 0.69717 0.0
H1495 H 0.4671 0.18397 0.70332 0.0
H1496 H 0.41465 0.10037 0.7226 0.0
H1497 H 0.37286 0.10343 0.71542 0.0
C1498 C 0.49315 0.1127 0.72271 0.0
C1499 C 0.51667 0.13488 0.73138 0.0
C1500 C 0.47036 0.11527 0.71613 0.0
C1501 C 0.47025 0.13999 0.71843 0.0
C1502 C 0.49437 0.16243 0.72661 0.0
C1503 C 0.51731 0.1599 0.73296 0.0
C1504 C 0.42255 0.16798 0.7023 0.0
C1505 C 0.3956 0.14529 0.70524 0.0
C1506 C 0.44673 0.1662 0.70613 0.0
C1507 C 0.44458 0.14182 0.71339 0.0
C1508 C 0.41744 0.1193 0.71655 0.0
C1509 C 0.39336 0.12107 0.7126 0.0
H1510 H 0.94343 0.39919 0.73502 0.0
H1511 H 0.85529 0.37297 0.72931 0.0
H1512 H 0.93524 0.35633 0.72063 0.0
H1513 H 0.84666 0.32949 0.71558 0.0
H1514 H 0.84284 0.26063 0.67854 0.0
H1515 H 0.85296 0.30599 0.68849 0.0
H1516 H 0.91491 0.31037 0.73028 0.0
H1517 H 0.90599 0.2659 0.71953 0.0
C1518 C 0.92226 0.38415 0.73069 0.0
C1519 C 0.89995 0.38926 0.73339 0.0
C1520 C 0.9175 0.35951 0.72255 0.0
C1521 C 0.8902 0.33919 0.71716 0.0
C1522 C 0.868 0.34471 0.71933 0.0
C1523 C 0.87287 0.36957 0.72726 0.0
C1524 C 0.85901 0.27148 0.68956 0.0
C1525 C 0.87384 0.25967 0.698 0.0
C1526 C 0.86457 0.29741 0.69548 0.0
C1527 C 0.88484 0.31201 0.71017 0.0
C1528 C 0.89959 0.30009 0.71862 0.0
C1529 C 0.89426 0.27436 0.71256 0.0
H1530 H 0.21034 0.94829 0.6356 0.0
H1531 H 0.14885 0.97369 0.64341 0.0
H1532 H 0.2466 0.99142 0.64935 0.0
H1533 H 0.18531 0.01759 0.65632 0.0
H1534 H 0.25319 0.08798 0.69151 0.0
H1535 H 0.21645 0.04258 0.68198 0.0
H1536 H 0.27397 0.03704 0.6405 0.0
H1537 H 0.31106 0.08154 0.65102 0.0
C1538 C 0.20465 0.96322 0.64027 0.0
C1539 C 0.17683 0.95771 0.63838 0.0
C1540 C 0.22548 0.9881 0.64801 0.0
C1541 C 0.21918 0.0084 0.65374 0.0
C1542 C 0.19106 1.00249 0.65232 0.0
C1543 C 0.1701 0.97735 0.64486 0.0
C1544 C 0.25819 0.07687 0.68067 0.0
C1545 C 0.28534 0.08841 0.67231 0.0
C1546 C 0.23691 0.05087 0.67495 0.0
C1547 C 0.24203 0.03583 0.66045 0.0
C1548 C 0.2692 0.04753 0.65203 0.0
C1549 C 0.29054 0.07332 0.65796 0.0
H1550 H 0.03428 0.17213 0.6323 0.0
H1551 H 0.07738 0.25814 0.64496 0.0
H1552 H 0.99011 0.16792 0.64421 0.0
H1553 H 0.03396 0.25403 0.65817 0.0
H1554 H 0.94764 0.24647 0.65615 0.0
H1555 H 0.99239 0.24979 0.64816 0.0
H1556 H 0.96027 0.16703 0.66899 0.0
H1557 H 0.91468 0.16335 0.67549 0.0
C1558 C 0.03432 0.19002 0.63808 0.0
C1559 C 0.05915 0.21547 0.63765 0.0
C1560 C 1.00901 0.18766 0.64506 0.0
C1561 C 1.00798 0.21067 0.65209 0.0
C1562 C 0.03337 0.2359 0.65241 0.0
C1563 C 0.05846 0.23831 0.64504 0.0
C1564 C 0.95027 0.22908 0.65919 0.0
C1565 C 0.92777 0.20488 0.66687 0.0
C1566 C 0.97615 0.23101 0.65477 0.0
C1567 C 0.98051 0.20877 0.65798 0.0
C1568 C 0.95794 0.18458 0.66599 0.0
C1569 C 0.93181 0.18254 0.6701 0.0
H1570 H 0.76125 0.80997 0.6281 0.0
H1571 H 0.84758 0.86975 0.64049 0.0
H1572 H 0.76878 0.77416 0.64154 0.0
H1573 H 0.85571 0.83386 0.65317 0.0
H1574 H 0.85602 0.76691 0.69021 0.0
H1575 H 0.84693 0.80274 0.67923 0.0
H1576 H 0.79049 0.74885 0.63404 0.0
H1577 H 0.79809 0.71265 0.64586 0.0
C1578 C 0.78195 0.81535 0.63353 0.0
C1579 C 0.80386 0.84257 0.6332 0.0
C1580 C 0.78636 0.79483 0.64117 0.0
C1581 C 0.81295 0.80096 0.64837 0.0
C1582 C 0.83484 0.82833 0.64809 0.0
C1583 C 0.83027 0.84892 0.64072 0.0
C1584 C 0.84124 0.76253 0.6782 0.0
C1585 C 0.82748 0.73667 0.66918 0.0
C1586 C 0.83633 0.78326 0.67167 0.0
C1587 C 0.81787 0.77881 0.65573 0.0
C1588 C 0.80434 0.75298 0.64663 0.0
C1589 C 0.80893 0.73219 0.65334 0.0
H1590 H 0.06765 0.80624 0.6698 0.0
H1591 H 0.03242 0.85066 0.64124 0.0
H1592 H 0.02046 0.76817 0.67615 0.0
H1593 H 0.98508 0.81217 0.64695 0.0
H1594 H 0.90247 0.74641 0.67525 0.0
H1595 H 0.94968 0.78615 0.67192 0.0
H1596 H 0.98251 0.73278 0.65801 0.0
H1597 H 0.9356 0.6933 0.66206 0.0
C1598 C 0.04975 0.80767 0.66464 0.0
C1599 C 0.05385 0.83113 0.65452 0.0
C1600 C 0.02268 0.78583 0.66823 0.0
C1601 C 0.99884 0.78683 0.66183 0.0
C1602 C 1.00289 0.81066 0.65217 0.0
C1603 C 0.03008 0.83264 0.64866 0.0
C1604 C 0.91994 0.74325 0.6719 0.0
C1605 C 0.91557 0.71676 0.66947 0.0
C1606 C 0.94694 0.76602 0.66969 0.0
C1607 C 0.97006 0.76277 0.66476 0.0
C1608 C 0.96543 0.73615 0.66222 0.0
C1609 C 0.93853 0.71349 0.66444 0.0
H1610 H 0.16276 0.16977 0.64236 0.0
H1611 H 0.21263 0.25115 0.66563 0.0
H1612 H 0.20311 0.16265 0.64555 0.0
H1613 H 0.25248 0.24393 0.66951 0.0
H1614 H 0.32791 0.23453 0.65581 0.0
H1615 H 0.28709 0.24012 0.65102 0.0
H1616 H 0.23245 0.15634 0.66897 0.0
H1617 H 0.27354 0.15067 0.67298 0.0
C1618 C 0.18244 0.18625 0.64792 0.0
C1619 C 0.18478 0.2114 0.65307 0.0
C1620 C 0.20551 0.18208 0.65002 0.0
C1621 C 0.23137 0.20282 0.65759 0.0
C1622 C 0.23333 0.2277 0.6631 0.0
C1623 C 0.21041 0.23188 0.66091 0.0
C1624 C 0.30715 0.21736 0.6588 0.0
C1625 C 0.304 0.19245 0.66539 0.0
C1626 C 0.28368 0.22056 0.65616 0.0
C1627 C 0.25627 0.19881 0.65983 0.0
C1628 C 0.2531 0.17355 0.66587 0.0
C1629 C 0.2767 0.17037 0.6685 0.0
H1630 H 0.81232 0.96269 0.68647 0.0
H1631 H 0.78714 0.96751 0.62636 0.0
H1632 H 0.82529 0.01018 0.69211 0.0
H1633 H 0.80076 0.01533 0.63169 0.0
H1634 H 0.79891 0.09022 0.65634 0.0
H1635 H 0.78621 0.04299 0.65016 0.0
H1636 H 0.85996 0.0558 0.68224 0.0
H1637 H 0.87245 0.10279 0.68861 0.0
C1638 C 0.80968 0.97403 0.67446 0.0
C1639 C 0.79854 0.96152 0.65605 0.0
C1640 C 0.81727 1.00126 0.6776 0.0
C1641 C 0.81404 0.01659 0.66235 0.0
C1642 C 0.80312 0.00402 0.64385 0.0
C1643 C 0.79548 0.97676 0.64074 0.0
C1644 C 0.81244 0.08297 0.66203 0.0
C1645 C 0.83651 0.10021 0.67318 0.0
C1646 C 0.80523 0.05592 0.65841 0.0
C1647 C 0.82198 0.04553 0.66579 0.0
C1648 C 0.84628 0.06294 0.67667 0.0
C1649 C 0.85346 0.08994 0.6803 0.0
H1650 H 0.48136 0.39607 0.71149 0.0
H1651 H 0.5459 0.37397 0.71426 0.0
H1652 H 0.44593 0.34843 0.70621 0.0
H1653 H 0.51041 0.32606 0.70975 0.0
H1654 H 0.44513 0.24803 0.67907 0.0
H1655 H 0.48037 0.29523 0.68528 0.0
H1656 H 0.42065 0.30486 0.72161 0.0
H1657 H 0.3849 0.25795 0.71449 0.0
C1658 C 0.48786 0.38089 0.71136 0.0
C1659 C 0.51631 0.38868 0.71375 0.0
C1660 C 0.46754 0.35352 0.7084 0.0
C1661 C 0.47515 0.33319 0.70766 0.0
C1662 C 0.50371 0.34108 0.71003 0.0
C1663 C 0.52406 0.36851 0.71286 0.0
C1664 C 0.43933 0.26026 0.68815 0.0
C1665 C 0.41192 0.24921 0.69593 0.0
C1666 C 0.45976 0.28734 0.69199 0.0
C1667 C 0.45348 0.30407 0.70394 0.0
C1668 C 0.42619 0.29283 0.71204 0.0
C1669 C 0.40568 0.26579 0.70807 0.0
H1670 H 0.65477 0.16147 0.69075 0.0
H1671 H 0.64494 0.11312 0.74313 0.0
H1672 H 0.70281 0.16991 0.68617 0.0
H1673 H 0.69301 0.12174 0.73882 0.0
H1674 H 0.76381 0.11248 0.71057 0.0
H1675 H 0.71738 0.10744 0.71559 0.0
H1676 H 0.75085 0.19225 0.70017 0.0
H1677 H 0.79744 0.19716 0.69521 0.0
C1678 C 0.66307 0.15298 0.70145 0.0
C1679 C 0.646 0.13635 0.71717 0.0
C1680 C 0.69062 0.15785 0.69886 0.0
C1681 C 0.70176 0.14622 0.71196 0.0
C1682 C 0.68499 0.13057 0.72818 0.0
C1683 C 0.65753 0.1258 0.73079 0.0
C1684 C 0.76117 0.12998 0.70813 0.0
C1685 C 0.78411 0.155 0.70202 0.0
C1686 C 0.73461 0.12719 0.71116 0.0
C1687 C 0.73025 0.14945 0.70839 0.0
C1688 C 0.75329 0.17458 0.70227 0.0
C1689 C 0.77999 0.17739 0.69932 0.0
H1690 H 0.90846 0.52823 0.74909 0.0
H1691 H 0.88716 0.49894 0.68864 0.0
H1692 H 0.89314 0.56142 0.7428 0.0
H1693 H 0.87248 0.53242 0.68207 0.0
H1694 H 0.82537 0.57954 0.68222 0.0
H1695 H 0.83706 0.54441 0.69015 0.0
H1696 H 0.90887 0.60304 0.72392 0.0
H1697 H 0.89705 0.63811 0.71616 0.0
C1698 C 0.90043 0.52895 0.73448 0.0
C1699 C 0.89913 0.51126 0.71931 0.0
C1700 C 0.89185 0.54801 0.73081 0.0
C1701 C 0.88175 0.54972 0.71188 0.0
C1702 C 0.87987 0.5315 0.69687 0.0
C1703 C 0.88842 0.51243 0.70056 0.0
C1704 C 0.84377 0.58501 0.69123 0.0
C1705 C 0.86049 0.61177 0.69832 0.0
C1706 C 0.85046 0.56484 0.69579 0.0
C1707 C 0.87397 0.5709 0.70761 0.0
C1708 C 0.89041 0.59756 0.71498 0.0
C1709 C 0.88372 0.61774 0.71042 0.0
H1710 H 0.50645 0.94643 0.25804 0.0
H1711 H 0.42413 0.8947 0.23325 0.0
H1712 H 0.52283 0.96954 0.22602 0.0
H1713 H 0.44068 0.9169 0.2008 0.0
H1714 H 0.4725 0.9806 0.14999 0.0
H1715 H 0.45433 0.95598 0.18153 0.0
H1716 H 0.53604 0.96559 0.19396 0.0
H1717 H 0.55419 0.99125 0.16303 0.0
C1718 C 0.49193 0.9398 0.24563 0.0
C1719 C 0.46402 0.91872 0.24819 0.0
C1720 C 0.50135 0.95293 0.22714 0.0
C1721 C 0.48326 0.94506 0.21052 0.0
C1722 C 0.45523 0.92393 0.21317 0.0
C1723 C 0.44571 0.91107 0.2318 0.0
C1724 C 0.4864 0.97716 0.15945 0.0
C1725 C 0.51479 0.98799 0.15414 0.0
C1726 C 0.47602 0.96298 0.17756 0.0
C1727 C 0.49371 0.95894 0.19065 0.0
C1728 C 0.52185 0.96888 0.18474 0.0
C1729 C 0.53228 0.9834 0.16687 0.0
H1730 H 0.12557 0.58717 0.23712 0.0
H1731 H 0.0723 0.50106 0.2493 0.0
H1732 H 0.10125 0.58168 0.2056 0.0
H1733 H 0.04878 0.49558 0.21738 0.0
H1734 H 0.03422 0.49487 0.14884 0.0
H1735 H 0.06019 0.50013 0.17978 0.0
H1736 H 0.0514 0.56935 0.19586 0.0
H1737 H 0.0255 0.56409 0.16502 0.0
C1738 C 0.10865 0.56709 0.23316 0.0
C1739 C 0.10084 0.5446 0.24591 0.0
C1740 C 0.09483 0.56396 0.21504 0.0
C1741 C 0.07312 0.53822 0.20908 0.0
C1742 C 0.06566 0.51561 0.22152 0.0
C1743 C 0.07924 0.51878 0.23979 0.0
C1744 C 0.038 0.51127 0.15897 0.0
C1745 C 0.02781 0.52904 0.15459 0.0
C1746 C 0.05266 0.51416 0.17669 0.0
C1747 C 0.0578 0.53515 0.19019 0.0
C1748 C 0.04792 0.55312 0.18565 0.0
C1749 C 0.03293 0.54999 0.1681 0.0
H1750 H 0.48111 0.59399 0.23002 0.0
H1751 H 0.48039 0.52541 0.25872 0.0
H1752 H 0.49439 0.58172 0.19821 0.0
H1753 H 0.49457 0.51367 0.22706 0.0
H1754 H 0.56204 0.53732 0.17412 0.0
H1755 H 0.54425 0.54661 0.20469 0.0
H1756 H 0.47 0.53382 0.17375 0.0
H1757 H 0.48659 0.52249 0.14322 0.0
C1758 C 0.48367 0.57623 0.22944 0.0
C1759 C 0.47973 0.56058 0.24673 0.0
C1760 C 0.49114 0.56919 0.2113 0.0
C1761 C 0.49548 0.5468 0.21028 0.0
C1762 C 0.49132 0.53103 0.22753 0.0
C1763 C 0.48317 0.53766 0.24555 0.0
C1764 C 0.54162 0.53584 0.17374 0.0
C1765 C 0.52569 0.5287 0.15602 0.0
C1766 C 0.53159 0.5414 0.1913 0.0
C1767 C 0.50573 0.54072 0.19155 0.0
C1768 C 0.49005 0.53447 0.17388 0.0
C1769 C 0.49976 0.52823 0.15635 0.0
H1770 H 0.91012 0.46122 0.80656 0.0
H1771 H 0.97376 0.44768 0.77985 0.0
H1772 H 0.93403 0.47011 0.83875 0.0
H1773 H 0.99814 0.45732 0.81168 0.0
H1774 H 0.017 0.44382 0.87482 0.0
H1775 H 0.99245 0.43633 0.84325 0.0
H1776 H 0.97484 0.50082 0.85745 0.0
H1777 H 0.99889 0.50773 0.88941 0.0
C1778 C 0.92946 0.46056 0.80754 0.0
C1779 C 0.93997 0.45352 0.7908 0.0
C1780 C 0.9432 0.4657 0.82595 0.0
C1781 C 0.96788 0.46413 0.82791 0.0
C1782 C 0.97881 0.45801 0.8109 0.0
C1783 C 0.96495 0.45262 0.79262 0.0
C1784 C 1.00794 0.45644 0.87115 0.0
C1785 C 1.01001 0.47647 0.8845 0.0
C1786 C 0.99395 0.45225 0.85301 0.0
C1787 C 0.98192 0.46819 0.84763 0.0
C1788 C 0.98362 0.48799 0.86115 0.0
C1789 C 0.99743 0.49201 0.87944 0.0
H1790 H 0.52924 0.46171 0.77926 0.0
H1791 H 0.61076 0.48772 0.8048 0.0
H1792 H 0.51207 0.46715 0.81147 0.0
H1793 H 0.59337 0.49216 0.83747 0.0
H1794 H 0.56049 0.52446 0.88806 0.0
H1795 H 0.57943 0.51822 0.85663 0.0
H1796 H 0.49822 0.4485 0.84318 0.0
H1797 H 0.47928 0.45579 0.87403 0.0
C1798 C 0.54337 0.46821 0.7919 0.0
C1799 C 0.57129 0.47419 0.78952 0.0
C1800 C 0.53351 0.47121 0.81046 0.0
C1801 C 0.55118 0.47989 0.82729 0.0
C1802 C 0.57918 0.48579 0.82488 0.0
C1803 C 0.58916 0.48314 0.80618 0.0
C1804 C 0.54687 0.50773 0.87837 0.0
C1805 C 0.51839 0.49077 0.88334 0.0
C1806 C 0.55769 0.50403 0.86038 0.0
C1807 C 0.54034 0.48301 0.8471 0.0
C1808 C 0.5121 0.4654 0.85263 0.0
C1809 C 0.50123 0.4694 0.8704 0.0
H1810 H 0.52293 0.11925 0.80009 0.0
H1811 H 0.57011 0.07918 0.78531 0.0
H1812 H 0.51004 0.09575 0.83217 0.0
H1813 H 0.55795 0.05649 0.81788 0.0
H1814 H 0.54837 0.03993 0.88676 0.0
H1815 H 0.56477 0.06688 0.85579 0.0
H1816 H 0.4795 0.04615 0.84249 0.0
H1817 H 0.46323 0.0192 0.87318 0.0
C1818 C 0.53053 0.10539 0.80357 0.0
C1819 C 0.54728 0.10091 0.78981 0.0
C1820 C 0.52325 0.09205 0.82208 0.0
C1821 C 0.53285 0.07416 0.82754 0.0
C1822 C 0.55041 0.07034 0.81417 0.0
C1823 C 0.55742 0.08343 0.79549 0.0
C1824 C 0.53325 0.0414 0.87727 0.0
C1825 C 0.50453 0.02743 0.88235 0.0
C1826 C 0.54258 0.05662 0.8595 0.0
C1827 C 0.52342 0.05862 0.84669 0.0
C1828 C 0.49482 0.04519 0.85209 0.0
C1829 C 0.48547 0.02964 0.86961 0.0
H1830 H 0.12886 0.21721 0.56577 0.0
H1831 H 0.13156 0.28806 0.592 0.0
H1832 H 0.14463 0.24137 0.53361 0.0
H1833 H 0.14817 0.31245 0.56007 0.0
H1834 H 0.21476 0.35155 0.50743 0.0
H1835 H 0.19714 0.32533 0.53816 0.0
H1836 H 0.12237 0.26622 0.50768 0.0
H1837 H 0.13891 0.29336 0.47694 0.0
C1838 C 0.13293 0.23797 0.56464 0.0
C1839 C 0.12905 0.25082 0.58134 0.0
C1840 C 0.14178 0.25168 0.54626 0.0
C1841 C 0.14759 0.27873 0.54441 0.0
C1842 C 0.14385 0.29161 0.56114 0.0
C1843 C 0.13433 0.27768 0.57935 0.0
C1844 C 0.19432 0.33326 0.50716 0.0
C1845 C 0.17811 0.32506 0.48955 0.0
C1846 C 0.18439 0.31812 0.52482 0.0
C1847 C 0.15835 0.29392 0.52531 0.0
C1848 C 0.14257 0.28485 0.50765 0.0
C1849 C 0.15221 0.30036 0.49001 0.0
H1850 H 0.79167 0.91987 0.56995 0.0
H1851 H 0.73838 0.8338 0.58227 0.0
H1852 H 0.76742 0.91426 0.53838 0.0
H1853 H 0.71494 0.8282 0.5503 0.0
H1854 H 0.70047 0.82718 0.48177 0.0
H1855 H 0.72646 0.83263 0.51272 0.0
H1856 H 0.71753 0.90184 0.52856 0.0
H1857 H 0.6916 0.89639 0.4977 0.0
C1858 C 0.77476 0.89977 0.56601 0.0
C1859 C 0.76692 0.87733 0.57881 0.0
C1860 C 0.76098 0.89657 0.54786 0.0
C1861 C 0.73929 0.87081 0.54192 0.0
C1862 C 0.7318 0.84825 0.55442 0.0
C1863 C 0.74534 0.85148 0.57271 0.0
C1864 C 0.70423 0.84362 0.49184 0.0
C1865 C 0.69399 0.86133 0.48739 0.0
C1866 C 0.71891 0.84662 0.50957 0.0
C1867 C 0.724 0.86766 0.52301 0.0
C1868 C 0.71408 0.88558 0.5184 0.0
C1869 C 0.69907 0.88233 0.50084 0.0
H1870 H 0.1692 0.9381 0.56906 0.0
H1871 H 0.12969 0.85223 0.58334 0.0
H1872 H 0.18414 0.92963 0.53688 0.0
H1873 H 0.14398 0.84375 0.55066 0.0
H1874 H 0.15649 0.84015 0.48144 0.0
H1875 H 0.13713 0.8475 0.51248 0.0
H1876 H 0.2192 0.91443 0.5274 0.0
H1877 H 0.23845 0.907 0.49663 0.0
C1878 C 0.16369 0.91739 0.56539 0.0
C1879 C 0.14864 0.89593 0.57905 0.0
C1880 C 0.17215 0.91256 0.54687 0.0
C1881 C 0.16545 0.88608 0.54132 0.0
C1882 C 0.14932 0.86437 0.5545 0.0
C1883 C 0.1411 0.86925 0.57321 0.0
C1884 C 0.17026 0.85652 0.49133 0.0
C1885 C 0.19897 0.87298 0.48668 0.0
C1886 C 0.15925 0.8606 0.50912 0.0
C1887 C 0.17665 0.88156 0.52233 0.0
C1888 C 0.20523 0.89826 0.51744 0.0
C1889 C 0.21628 0.89391 0.4999 0.0
H1890 H 0.62576 0.82816 0.12115 0.0
H1891 H 0.57873 0.74251 0.13651 0.0
H1892 H 0.64969 0.83785 0.15337 0.0
H1893 H 0.60331 0.75221 0.16829 0.0
H1894 H 0.68155 0.77747 0.20773 0.0
H1895 H 0.65468 0.76898 0.17697 0.0
H1896 H 0.63913 0.83462 0.19142 0.0
H1897 H 0.66611 0.84312 0.22234 0.0
C1898 C 0.62025 0.81146 0.13145 0.0
C1899 C 0.60056 0.7845 0.12611 0.0
C1900 C 0.63402 0.81702 0.14986 0.0
C1901 C 0.62855 0.79572 0.16318 0.0
C1902 C 0.60827 0.76894 0.15813 0.0
C1903 C 0.5943 0.76341 0.13989 0.0
C1904 C 0.67248 0.79013 0.20429 0.0
C1905 C 0.67592 0.81097 0.21736 0.0
C1906 C 0.65693 0.78515 0.1868 0.0
C1907 C 0.64478 0.8011 0.18189 0.0
C1908 C 0.64838 0.8221 0.19485 0.0
C1909 C 0.66363 0.82684 0.21254 0.0
H1910 H 0.25601 0.85239 0.12139 0.0
H1911 H 0.22365 0.76636 0.13183 0.0
H1912 H 0.23846 0.85615 0.15404 0.0
H1913 H 0.20518 0.77012 0.16414 0.0
H1914 H 0.14507 0.7848 0.20567 0.0
H1915 H 0.16679 0.78036 0.17501 0.0
H1916 H 0.24539 0.85111 0.19142 0.0
H1917 H 0.2236 0.85547 0.22223 0.0
C1918 C 0.24552 0.83433 0.13068 0.0
C1919 C 0.24124 0.80902 0.12379 0.0
C1920 C 0.23538 0.83652 0.1494 0.0
C1921 C 0.22036 0.81342 0.16161 0.0
C1922 C 0.2164 0.78822 0.15494 0.0
C1923 C 0.22688 0.78607 0.13635 0.0
C1924 C 0.16702 0.79933 0.20275 0.0
C1925 C 0.18263 0.82054 0.21628 0.0
C1926 C 0.1795 0.79667 0.18529 0.0
C1927 C 0.20778 0.81541 0.18081 0.0
C1928 C 0.22351 0.83647 0.19444 0.0
C1929 C 0.21112 0.83887 0.2121 0.0
H1930 H 0.17253 0.39719 0.11201 0.0
H1931 H 0.25088 0.45943 0.13685 0.0
H1932 H 0.1595 0.37375 0.14407 0.0
H1933 H 0.23753 0.4365 0.16935 0.0
H1934 H 0.21397 0.37351 0.22065 0.0
H1935 H 0.22974 0.39834 0.18892 0.0
H1936 H 0.14413 0.37719 0.17593 0.0
H1937 H 0.12856 0.35173 0.2071 0.0
C1938 C 0.18691 0.40595 0.12441 0.0
C1939 C 0.21266 0.43025 0.1219 0.0
C1940 C 0.17938 0.39261 0.14291 0.0
C1941 C 0.19719 0.40334 0.15957 0.0
C1942 C 0.22329 0.42741 0.15692 0.0
C1943 C 0.23098 0.44062 0.13828 0.0
C1944 C 0.19866 0.37446 0.21103 0.0
C1945 C 0.17 0.36045 0.21626 0.0
C1946 C 0.20766 0.38871 0.19283 0.0
C1947 C 0.18821 0.38952 0.17955 0.0
C1948 C 0.1597 0.37642 0.18534 0.0
C1949 C 0.15073 0.36196 0.20334 0.0
H1950 H 0.75523 0.5559 0.89911 0.0
H1951 H 0.83657 0.61075 0.92416 0.0
H1952 H 0.77145 0.57797 0.86652 0.0
H1953 H 0.85253 0.63352 0.89203 0.0
H1954 H 0.88454 0.65554 0.8294 0.0
H1955 H 0.86655 0.62943 0.86016 0.0
H1956 H 0.78391 0.61706 0.8471 0.0
H1957 H 0.80198 0.64225 0.81572 0.0
C1958 C 0.77651 0.57285 0.89767 0.0
C1959 C 0.79468 0.58143 0.91419 0.0
C1960 C 0.78583 0.58562 0.87899 0.0
C1961 C 0.81348 0.60753 0.87639 0.0
C1962 C 0.83139 0.61629 0.89311 0.0
C1963 C 0.82219 0.60332 0.91166 0.0
C1964 C 0.86246 0.647 0.83305 0.0
C1965 C 0.8447 0.65105 0.82021 0.0
C1966 C 0.85212 0.63221 0.85082 0.0
C1967 C 0.82377 0.62141 0.85651 0.0
C1968 C 0.80578 0.62479 0.84328 0.0
C1969 C 0.81611 0.63928 0.82528 0.0
H1970 H 0.405 0.16596 0.91462 0.0
H1971 H 0.45776 0.25174 0.90108 0.0
H1972 H 0.38045 0.15961 0.88301 0.0
H1973 H 0.4324 0.2454 0.86996 0.0
H1974 H 0.36512 0.15821 0.81412 0.0
H1975 H 0.39133 0.16372 0.845 0.0
H1976 H 0.38178 0.23246 0.86121 0.0
H1977 H 0.35558 0.22692 0.83046 0.0
C1978 C 0.41158 0.18342 0.90489 0.0
C1979 C 0.43334 0.20942 0.91053 0.0
C1980 C 0.39742 0.17976 0.88682 0.0
C1981 C 0.40443 0.20205 0.87413 0.0
C1982 C 0.42631 0.22794 0.87961 0.0
C1983 C 0.44072 0.23155 0.89751 0.0
C1984 C 0.36874 0.17452 0.82429 0.0
C1985 C 0.35832 0.19212 0.81996 0.0
C1986 C 0.38354 0.17756 0.84197 0.0
C1987 C 0.38858 0.19853 0.85544 0.0
C1988 C 0.37835 0.21624 0.85101 0.0
C1989 C 0.36321 0.21295 0.83351 0.0
H1990 H 0.79698 0.18754 0.91765 0.0
H1991 H 0.83465 0.27247 0.90085 0.0
H1992 H 0.81081 0.17769 0.88526 0.0
H1993 H 0.84926 0.26266 0.86903 0.0
H1994 H 0.90368 0.23869 0.82982 0.0
H1995 H 0.88492 0.24722 0.86042 0.0
H1996 H 0.80257 0.1799 0.84664 0.0
H1997 H 0.82141 0.17153 0.81572 0.0
C1998 C 0.8079 0.20405 0.90705 0.0
C1999 C 0.81505 0.2309 0.9121 0.0
C2000 C 0.81586 0.19838 0.88851 0.0
C2001 C 0.83137 0.21947 0.87474 0.0
C2002 C 0.83772 0.24609 0.87949 0.0
C2003 C 0.82948 0.25169 0.89783 0.0
C2004 C 0.88155 0.22577 0.8333 0.0
C2005 C 0.86399 0.20445 0.82043 0.0
C2006 C 0.87079 0.23072 0.85074 0.0
C2007 C 0.84228 0.21422 0.8559 0.0
C2008 C 0.82465 0.19284 0.84306 0.0
C2009 C 0.83535 0.18818 0.82535 0.0
H2010 H 0.30535 0.11336 0.44536 0.0
H2011 H 0.24385 0.12945 0.47272 0.0
H2012 H 0.3308 0.12346 0.47678 0.0
H2013 H 0.26869 0.13866 0.50454 0.0
H2014 H 0.33393 0.17493 0.55477 0.0
H2015 H 0.30987 0.16861 0.52288 0.0
H2016 H 0.32571 0.10306 0.50835 0.0
H2017 H 0.35036 0.11004 0.53981 0.0
C2018 C 0.29728 0.11901 0.45818 0.0
C2019 C 0.27258 0.12046 0.45669 0.0
C2020 C 0.31172 0.12463 0.47624 0.0
C2021 C 0.30161 0.13149 0.49335 0.0
C2022 C 0.27726 0.13368 0.49167 0.0
C2023 C 0.26297 0.12836 0.47348 0.0
C2024 C 0.33213 0.15915 0.54472 0.0
C2025 C 0.34419 0.14312 0.54967 0.0
C2026 C 0.3183 0.15546 0.52648 0.0
C2027 C 0.31603 0.13548 0.5129 0.0
C2028 C 0.32766 0.11913 0.51814 0.0
C2029 C 0.34169 0.12301 0.53623 0.0
H2030 H 0.95071 0.17307 0.46732 0.0
H2031 H 0.86394 0.11996 0.45047 0.0
H2032 H 0.93504 0.18095 0.49954 0.0
H2033 H 0.84879 0.1266 0.48319 0.0
H2034 H 0.83909 0.12499 0.55302 0.0
H2035 H 0.85729 0.11668 0.52178 0.0
H2036 H 0.90226 0.20311 0.50946 0.0
H2037 H 0.88336 0.21127 0.54036 0.0
C2038 C 0.92836 0.16308 0.47033 0.0
C2039 C 0.90869 0.14587 0.45603 0.0
C2040 C 0.91946 0.16745 0.48891 0.0
C2041 C 0.89076 0.15423 0.49384 0.0
C2042 C 0.87109 0.13674 0.47983 0.0
C2043 C 0.87989 0.13284 0.46109 0.0
C2044 C 0.85309 0.14215 0.54369 0.0
C2045 C 0.85992 0.16874 0.54899 0.0
C2046 C 0.86336 0.13742 0.52584 0.0
C2047 C 0.88115 0.15928 0.51328 0.0
C2048 C 0.88872 0.18596 0.51896 0.0
C2049 C 0.87792 0.19061 0.53655 0.0
H2050 H 0.83816 0.72775 0.44394 0.0
H2051 H 0.91631 0.78995 0.46906 0.0
H2052 H 0.82503 0.70407 0.47592 0.0
H2053 H 0.90283 0.76683 0.50147 0.0
H2054 H 0.87927 0.70403 0.55277 0.0
H2055 H 0.89509 0.7288 0.52103 0.0
H2056 H 0.80941 0.7071 0.50771 0.0
H2057 H 0.79379 0.68165 0.53889 0.0
C2058 C 0.85248 0.73644 0.45639 0.0
C2059 C 0.8782 0.76079 0.45398 0.0
C2060 C 0.84488 0.72297 0.47484 0.0
C2061 C 0.8626 0.73364 0.49156 0.0
C2062 C 0.88868 0.75777 0.489 0.0
C2063 C 0.89643 0.77109 0.47041 0.0
C2064 C 0.86395 0.70482 0.54307 0.0
C2065 C 0.83527 0.69068 0.54822 0.0
C2066 C 0.87298 0.71905 0.52486 0.0
C2067 C 0.85354 0.71972 0.51149 0.0
C2068 C 0.82499 0.70644 0.51719 0.0
C2069 C 0.81599 0.69199 0.53519 0.0
loop_
_geom_bond_atom_site_label_1
_geom_bond_atom_site_label_2
_geom_bond_distance
_geom_bond_site_symmetry_2
_ccdc_geom_bond_type
H0 C7 0.929 . S
H1 C10 0.930 . S
H2 C12 0.929 . S
H3 C4 0.969 . S
C4 H3 0.969 . S
C4 O5 1.550 . S
C4 H6 0.973 . S
O5 C4 1.550 . S
O5 C11 1.412 . S
H6 C4 0.973 . S
C7 H0 0.929 . S
C7 C8 1.400 . S
C7 C9 1.364 . S
C8 C7 1.400 . S
C8 C12 1.377 . S
C9 C7 1.364 . S
C9 C10 1.374 . S
C10 H1 0.930 . S
C10 C9 1.374 . S
C10 C11 1.383 . S
C11 O5 1.412 . S
C11 C10 1.383 . S
C11 C12 1.394 . S
C12 H2 0.929 . S
C12 C8 1.377 . S
C12 C11 1.394 . S
H13 C20 0.929 . S
H14 C23 0.930 . S
H15 C25 0.929 . S
H16 C17 0.969 . S
C17 H16 0.969 . S
C17 O18 1.550 . S
C17 H19 0.973 . S
O18 C17 1.550 . S
O18 C24 1.412 . S
H19 C17 0.973 . S
C20 H13 0.929 . S
C20 C21 1.400 . S
C20 C22 1.364 . S
C21 C20 1.400 . S
C21 C25 1.377 . S
C22 C20 1.364 . S
C22 C23 1.374 . S
C23 H14 0.930 . S
C23 C22 1.374 . S
C23 C24 1.383 . S
C24 O18 1.412 . S
C24 C23 1.383 . S
C24 C25 1.394 . S
C25 H15 0.929 . S
C25 C21 1.377 . S
C25 C24 1.394 . S
H26 C33 0.929 . S
H27 C36 0.930 . S
H28 C38 0.929 . S
H29 C30 0.969 . S
C30 H29 0.969 . S
C30 O31 1.550 . S
C30 H32 0.973 . S
O31 C30 1.550 . S
O31 C37 1.412 . S
H32 C30 0.973 . S
C33 H26 0.929 . S
C33 C34 1.400 . S
C33 C35 1.364 . S
C34 C33 1.400 . S
C34 C38 1.377 . S
C35 C33 1.364 . S
C35 C36 1.374 . S
C36 H27 0.930 . S
C36 C35 1.374 . S
C36 C37 1.383 . S
C37 O31 1.412 . S
C37 C36 1.383 . S
C37 C38 1.394 . S
C38 H28 0.929 . S
C38 C34 1.377 . S
C38 C37 1.394 . S
H39 C46 0.929 . S
H40 C49 0.930 . S
H41 C51 0.929 . S
H42 C43 0.969 . S
C43 H42 0.969 . S
C43 O44 1.550 . S
C43 H45 0.973 . S
O44 C43 1.550 . S
O44 C50 1.412 . S
H45 C43 0.973 . S
C46 H39 0.929 . S
C46 C47 1.400 . S
C46 C48 1.364 . S
C47 C46 1.400 . S
C47 C51 1.377 . S
C48 C46 1.364 . S
C48 C49 1.374 . S
C49 H40 0.930 . S
C49 C48 1.374 . S
C49 C50 1.383 . S
C50 O44 1.412 . S
C50 C49 1.383 . S
C50 C51 1.394 . S
C51 H41 0.929 . S
C51 C47 1.377 . S
C51 C50 1.394 . S
H52 C59 0.929 . S
H53 C62 0.930 . S
H54 C64 0.929 . S
H55 C56 0.969 . S
C56 H55 0.969 . S
C56 O57 1.550 . S
C56 H58 0.973 . S
O57 C56 1.550 . S
O57 C63 1.412 . S
H58 C56 0.973 . S
C59 H52 0.929 . S
C59 C60 1.400 . S
C59 C61 1.364 . S
C60 C59 1.400 . S
C60 C64 1.377 . S
C61 C59 1.364 . S
C61 C62 1.374 . S
C62 H53 0.930 . S
C62 C61 1.374 . S
C62 C63 1.383 . S
C63 O57 1.412 . S
C63 C62 1.383 . S
C63 C64 1.394 . S
C64 H54 0.929 . S
C64 C60 1.377 . S
C64 C63 1.394 . S
H65 C72 0.929 . S
H66 C75 0.930 . S
H67 C77 0.929 . S
H68 C69 0.969 . S
C69 H68 0.969 . S
C69 O70 1.550 . S
C69 H71 0.973 . S
O70 C69 1.550 . S
O70 C76 1.412 . S
H71 C69 0.973 . S
C72 H65 0.929 . S
C72 C73 1.400 . S
C72 C74 1.364 . S
C73 C72 1.400 . S
C73 C77 1.377 . S
C74 C72 1.364 . S
C74 C75 1.374 . S
C75 H66 0.930 . S
C75 C74 1.374 . S
C75 C76 1.383 . S
C76 O70 1.412 . S
C76 C75 1.383 . S
C76 C77 1.394 . S
C77 H67 0.929 . S
C77 C73 1.377 . S
C77 C76 1.394 . S
H78 C85 0.929 . S
H79 C88 0.930 . S
H80 C90 0.929 . S
H81 C82 0.969 . S
C82 H81 0.969 . S
C82 O83 1.550 . S
C82 H84 0.973 . S
O83 C82 1.550 . S
O83 C89 1.412 . S
H84 C82 0.973 . S
C85 H78 0.929 . S
C85 C86 1.400 . S
C85 C87 1.364 . S
C86 C85 1.400 . S
C86 C90 1.377 . S
C87 C85 1.364 . S
C87 C88 1.374 . S
C88 H79 0.930 . S
C88 C87 1.374 . S
C88 C89 1.383 . S
C89 O83 1.412 . S
C89 C88 1.383 . S
C89 C90 1.394 . S
C90 H80 0.929 . S
C90 C86 1.377 . S
C90 C89 1.394 . S
H91 C98 0.929 . S
H92 C101 0.930 . S
H93 C103 0.929 . S
H94 C95 0.969 . S
C95 H94 0.969 . S
C95 O96 1.550 . S
C95 H97 0.973 . S
O96 C95 1.550 . S
O96 C102 1.412 . S
H97 C95 0.973 . S
C98 H91 0.929 . S
C98 C99 1.400 . S
C98 C100 1.364 . S
C99 C98 1.400 . S
C99 C103 1.377 . S
C100 C98 1.364 . S
C100 C101 1.374 . S
C101 H92 0.930 . S
C101 C100 1.374 . S
C101 C102 1.383 . S
C102 O96 1.412 . S
C102 C101 1.383 . S
C102 C103 1.394 . S
C103 H93 0.929 . S
C103 C99 1.377 . S
C103 C102 1.394 . S
H104 C111 0.929 . S
H105 C114 0.930 . S
H106 C116 0.929 . S
H107 C108 0.969 . S
C108 H107 0.969 . S
C108 O109 1.550 . S
C108 H110 0.973 . S
O109 C108 1.550 . S
O109 C115 1.412 . S
H110 C108 0.973 . S
C111 H104 0.929 . S
C111 C112 1.400 . S
C111 C113 1.364 . S
C112 C111 1.400 . S
C112 C116 1.377 . S
C113 C111 1.364 . S
C113 C114 1.374 . S
C114 H105 0.930 . S
C114 C113 1.374 . S
C114 C115 1.383 . S
C115 O109 1.412 . S
C115 C114 1.383 . S
C115 C116 1.394 . S
C116 H106 0.929 . S
C116 C112 1.377 . S
C116 C115 1.394 . S
H117 C124 0.929 . S
H118 C127 0.930 . S
H119 C129 0.929 . S
H120 C121 0.969 . S
C121 H120 0.969 . S
C121 O122 1.550 . S
C121 H123 0.973 . S
O122 C121 1.550 . S
O122 C128 1.412 . S
H123 C121 0.973 . S
C124 H117 0.929 . S
C124 C125 1.400 . S
C124 C126 1.364 . S
C125 C124 1.400 . S
C125 C129 1.377 . S
C126 C124 1.364 . S
C126 C127 1.374 . S
C127 H118 0.930 . S
C127 C126 1.374 . S
C127 C128 1.383 . S
C128 O122 1.412 . S
C128 C127 1.383 . S
C128 C129 1.394 . S
C129 H119 0.929 . S
C129 C125 1.377 . S
C129 C128 1.394 . S
H130 C137 0.929 . S
H131 C140 0.930 . S
H132 C142 0.929 . S
H133 C134 0.969 . S
C134 H133 0.969 . S
C134 O135 1.550 . S
C134 H136 0.973 . S
O135 C134 1.550 . S
O135 C141 1.412 . S
H136 C134 0.973 . S
C137 H130 0.929 . S
C137 C138 1.400 . S
C137 C139 1.364 . S
C138 C137 1.400 . S
C138 C142 1.377 . S
C139 C137 1.364 . S
C139 C140 1.374 . S
C140 H131 0.930 . S
C140 C139 1.374 . S
C140 C141 1.383 . S
C141 O135 1.412 . S
C141 C140 1.383 . S
C141 C142 1.394 . S
C142 H132 0.929 . S
C142 C138 1.377 . S
C142 C141 1.394 . S
H143 C150 0.929 . S
H144 C153 0.930 . S
H145 C155 0.929 . S
H146 C147 0.969 . S
C147 H146 0.969 . S
C147 O148 1.550 . S
C147 H149 0.973 . S
O148 C147 1.550 . S
O148 C154 1.412 . S
H149 C147 0.973 . S
C150 H143 0.929 . S
C150 C151 1.400 . S
C150 C152 1.364 . S
C151 C150 1.400 . S
C151 C155 1.377 . S
C152 C150 1.364 . S
C152 C153 1.374 . S
C153 H144 0.930 . S
C153 C152 1.374 . S
C153 C154 1.383 . S
C154 O148 1.412 . S
C154 C153 1.383 . S
C154 C155 1.394 . S
C155 H145 0.929 . S
C155 C151 1.377 . S
C155 C154 1.394 . S
H156 C163 0.929 . S
H157 C166 0.930 . S
H158 C168 0.929 . S
H159 C160 0.969 . S
C160 H159 0.969 . S
C160 O161 1.550 . S
C160 H162 0.973 . S
O161 C160 1.550 . S
O161 C167 1.412 . S
H162 C160 0.973 . S
C163 H156 0.929 . S
C163 C164 1.400 . S
C163 C165 1.364 . S
C164 C163 1.400 . S
C164 C168 1.377 . S
C165 C163 1.364 . S
C165 C166 1.374 . S
C166 H157 0.930 . S
C166 C165 1.374 . S
C166 C167 1.383 . S
C167 O161 1.412 . S
C167 C166 1.383 . S
C167 C168 1.394 . S
C168 H158 0.929 . S
C168 C164 1.377 . S
C168 C167 1.394 . S
H169 C176 0.929 . S
H170 C179 0.930 . S
H171 C181 0.929 . S
H172 C173 0.969 . S
C173 H172 0.969 . S
C173 O174 1.550 . S
C173 H175 0.973 . S
O174 C173 1.550 . S
O174 C180 1.412 . S
H175 C173 0.973 . S
C176 H169 0.929 . S
C176 C177 1.400 . S
C176 C178 1.364 . S
C177 C176 1.400 . S
C177 C181 1.377 . S
C178 C176 1.364 . S
C178 C179 1.374 . S
C179 H170 0.930 . S
C179 C178 1.374 . S
C179 C180 1.383 . S
C180 O174 1.412 . S
C180 C179 1.383 . S
C180 C181 1.394 . S
C181 H171 0.929 . S
C181 C177 1.377 . S
C181 C180 1.394 . S
H182 C189 0.929 . S
H183 C192 0.930 . S
H184 C194 0.929 . S
H185 C186 0.969 . S
C186 H185 0.969 . S
C186 O187 1.550 . S
C186 H188 0.973 . S
O187 C186 1.550 . S
O187 C193 1.412 . S
H188 C186 0.973 . S
C189 H182 0.929 . S
C189 C190 1.400 . S
C189 C191 1.364 . S
C190 C189 1.400 . S
C190 C194 1.377 . S
C191 C189 1.364 . S
C191 C192 1.374 . S
C192 H183 0.930 . S
C192 C191 1.374 . S
C192 C193 1.383 . S
C193 O187 1.412 . S
C193 C192 1.383 . S
C193 C194 1.394 . S
C194 H184 0.929 . S
C194 C190 1.377 . S
C194 C193 1.394 . S
H195 C202 0.929 . S
H196 C205 0.930 . S
H197 C207 0.929 . S
H198 C199 0.969 . S
C199 H198 0.969 . S
C199 O200 1.550 . S
C199 H201 0.973 . S
O200 C199 1.550 . S
O200 C206 1.412 . S
H201 C199 0.973 . S
C202 H195 0.929 . S
C202 C203 1.400 . S
C202 C204 1.364 . S
C203 C202 1.400 . S
C203 C207 1.377 . S
C204 C202 1.364 . S
C204 C205 1.374 . S
C205 H196 0.930 . S
C205 C204 1.374 . S
C205 C206 1.383 . S
C206 O200 1.412 . S
C206 C205 1.383 . S
C206 C207 1.394 . S
C207 H197 0.929 . S
C207 C203 1.377 . S
C207 C206 1.394 . S
H208 C215 0.929 . S
H209 C218 0.930 . S
H210 C220 0.929 . S
H211 C212 0.969 . S
C212 H211 0.969 . S
C212 O213 1.550 . S
C212 H214 0.973 . S
O213 C212 1.550 . S
O213 C219 1.412 . S
H214 C212 0.973 . S
C215 H208 0.929 . S
C215 C216 1.400 . S
C215 C217 1.364 . S
C216 C215 1.400 . S
C216 C220 1.377 . S
C217 C215 1.364 . S
C217 C218 1.374 . S
C218 H209 0.930 . S
C218 C217 1.374 . S
C218 C219 1.383 . S
C219 O213 1.412 . S
C219 C218 1.383 . S
C219 C220 1.394 . S
C220 H210 0.929 . S
C220 C216 1.377 . S
C220 C219 1.394 . S
H221 C228 0.929 . S
H222 C231 0.930 . S
H223 C233 0.929 . S
H224 C225 0.969 . S
C225 H224 0.969 . S
C225 O226 1.550 . S
C225 H227 0.973 . S
O226 C225 1.550 . S
O226 C232 1.412 . S
H227 C225 0.973 . S
C228 H221 0.929 . S
C228 C229 1.400 . S
C228 C230 1.364 . S
C229 C228 1.400 . S
C229 C233 1.377 . S
C230 C228 1.364 . S
C230 C231 1.374 . S
C231 H222 0.930 . S
C231 C230 1.374 . S
C231 C232 1.383 . S
C232 O226 1.412 . S
C232 C231 1.383 . S
C232 C233 1.394 . S
C233 H223 0.929 . S
C233 C229 1.377 . S
C233 C232 1.394 . S
Gd234 N265 2.661 . S
Gd234 N271 2.601 . S
Gd234 O278 2.545 . S
Gd234 O279 2.606 1_545 S
Gd234 O281 2.429 . S
Gd234 O282 2.545 1_545 S
Gd234 O283 2.412 1_545 S
Gd234 O285 2.362 . S
Gd234 O286 2.324 1_545 S
Gd234 C293 2.828 . S
Gd235 N244 2.661 . S
Gd235 N248 2.601 . S
Gd235 O279 2.362 1_556 S
Gd235 O280 2.324 1_565 S
Gd235 O284 2.545 . S
Gd235 O285 2.606 1_566 S
Gd235 O287 2.435 . S
Gd235 O288 2.545 1_565 S
Gd235 O289 2.412 1_565 S
Gd235 C302 2.827 1_565 S
C236 C239 1.417 . S
C236 C241 1.431 . S
C236 C242 1.412 . S
C237 C240 1.437 . S
C237 C241 1.317 . S
C237 H256 0.929 . S
C238 C239 1.426 . S
C238 C240 1.413 . S
C238 N248 1.359 . S
C239 C236 1.417 . S
C239 C238 1.426 . S
C239 N244 1.350 . S
C240 C237 1.437 . S
C240 C238 1.413 . S
C240 C250 1.391 . S
C241 C236 1.431 . S
C241 C237 1.317 . S
C241 H252 0.930 . S
C242 C236 1.412 . S
C242 C243 1.355 . S
C242 H254 0.930 . S
C243 C242 1.355 . S
C243 C245 1.402 . S
C243 H255 0.930 . S
N244 Gd235 2.661 . S
N244 C239 1.350 . S
N244 C245 1.307 . S
C245 C243 1.402 . S
C245 N244 1.307 . S
C245 H246 0.930 . S
H246 C245 0.930 . S
C247 N248 1.334 . S
C247 C249 1.394 . S
C247 H251 0.930 . S
N248 Gd235 2.601 . S
N248 C238 1.359 . S
N248 C247 1.334 . S
C249 C247 1.394 . S
C249 C250 1.359 . S
C249 H261 0.930 . S
C250 C240 1.391 . S
C250 C249 1.359 . S
C250 H262 0.929 . S
H251 C247 0.930 . S
H252 C241 0.930 . S
H253 C270 0.930 . S
H254 C242 0.930 . S
H255 C243 0.930 . S
H256 C237 0.929 . S
H257 C275 0.930 . S
H258 C266 0.930 . S
H259 C267 0.930 . S
H260 C291 0.929 . S
H261 C249 0.930 . S
H262 C250 0.929 . S
H263 C292 0.930 . S
H264 C273 0.930 . S
N265 Gd234 2.661 . S
N265 C269 1.350 . S
N265 C270 1.307 . S
C266 H258 0.930 . S
C266 C267 1.355 . S
C266 C268 1.412 . S
C267 H259 0.930 . S
C267 C266 1.355 . S
C267 C270 1.402 . S
C268 C266 1.412 . S
C268 C269 1.417 . S
C268 C292 1.431 . S
C269 N265 1.350 . S
C269 C268 1.417 . S
C269 C272 1.426 . S
C270 H253 0.930 . S
C270 N265 1.307 . S
C270 C267 1.402 . S
N271 Gd234 2.601 . S
N271 C272 1.359 . S
N271 C275 1.334 . S
C272 C269 1.426 . S
C272 N271 1.359 . S
C272 C276 1.413 . S
C273 H264 0.930 . S
C273 C274 1.359 . S
C273 C275 1.394 . S
C274 C273 1.359 . S
C274 C276 1.391 . S
C274 H277 0.929 . S
C275 H257 0.930 . S
C275 N271 1.334 . S
C275 C273 1.394 . S
C276 C272 1.413 . S
C276 C274 1.391 . S
C276 C291 1.437 . S
H277 C274 0.929 . S
O278 Gd234 2.545 . S
O278 C293 1.258 . S
O279 Gd234 2.606 1_565 S
O279 Gd235 2.362 1_554 S
O279 C290 1.284 . S
O280 Gd235 2.324 1_545 S
O280 C300 1.254 1_556 S
O281 Gd234 2.429 . S
O281 C300 1.268 . S
O282 Gd234 2.545 1_565 S
O282 C290 1.250 . S
O283 Gd234 2.412 1_565 S
O283 C293 1.252 1_565 S
O284 Gd235 2.545 . S
O284 C302 1.233 1_565 S
O285 Gd234 2.362 . S
O285 Gd235 2.606 1_544 S
O285 C301 1.284 1_554 S
O286 Gd234 2.324 1_565 S
O286 C309 1.254 . S
O287 Gd235 2.435 . S
O287 C309 1.256 1_556 S
O288 Gd235 2.545 1_545 S
O288 C301 1.250 . S
O289 Gd235 2.412 1_545 S
O289 C302 1.273 . S
C290 O279 1.284 . S
C290 O282 1.250 . S
C291 H260 0.929 . S
C291 C276 1.437 . S
C291 C292 1.317 . S
C292 H263 0.930 . S
C292 C268 1.431 . S
C292 C291 1.317 . S
C293 Gd234 2.828 . S
C293 O278 1.258 . S
C293 O283 1.252 1_545 S
C293 C294 1.503 . S
C294 C293 1.503 . S
C294 C295 1.425 . S
C294 C296 1.344 1_545 S
C295 C294 1.425 . S
C295 C298 1.398 . S
C295 H310 0.930 . S
C296 C294 1.344 1_565 S
C296 C297 1.391 . S
C296 H311 0.930 . S
C297 C296 1.391 . S
C297 C299 1.387 . S
C298 C295 1.398 . S
C298 C299 1.380 1_545 S
C298 H312 0.930 . S
C299 C297 1.387 . S
C299 C298 1.380 1_565 S
C299 H313 0.930 . S
C300 O280 1.254 1_554 S
C300 O281 1.268 . S
C301 O285 1.284 1_556 S
C301 O288 1.250 . S
C302 Gd235 2.827 1_545 S
C302 O284 1.233 1_545 S
C302 O289 1.273 . S
C302 C303 1.501 . S
C303 C302 1.501 . S
C303 C304 1.395 1_545 S
C303 C305 1.380 . S
C304 C303 1.395 1_565 S
C304 C307 1.398 . S
C304 H314 0.930 . S
C305 C303 1.380 . S
C305 C306 1.391 . S
C305 H315 0.930 . S
C306 C305 1.391 . S
C306 C308 1.387 . S
C307 C304 1.398 . S
C307 C308 1.380 1_565 S
C307 H316 0.930 . S
C308 C306 1.387 . S
C308 C307 1.380 1_545 S
C308 H317 0.930 . S
C309 O286 1.254 . S
C309 O287 1.256 1_554 S
H310 C295 0.930 . S
H311 C296 0.930 . S
H312 C298 0.930 . S
H313 C299 0.930 . S
H314 C304 0.930 . S
H315 C305 0.930 . S
H316 C307 0.930 . S
H317 C308 0.930 . S
Gd318 N349 2.661 . S
Gd318 N355 2.601 . S
Gd318 O362 2.545 . S
Gd318 O363 2.606 1_655 S
Gd318 O365 2.429 . S
Gd318 O366 2.545 1_655 S
Gd318 O367 2.412 1_655 S
Gd318 O369 2.362 . S
Gd318 O370 2.324 1_655 S
Gd318 C377 2.828 . S
Gd319 N328 2.661 . S
Gd319 N332 2.601 . S
Gd319 O363 2.362 1_556 S
Gd319 O364 2.324 1_455 S
Gd319 O368 2.545 . S
Gd319 O369 2.606 1_456 S
Gd319 O371 2.410 1_556 S
Gd319 O372 2.545 1_455 S
Gd319 O373 2.411 1_455 S
Gd319 C386 2.828 . S
C320 C323 1.417 . S
C320 C325 1.431 . S
C320 C326 1.412 . S
C321 C324 1.437 . S
C321 C325 1.317 . S
C321 H340 0.929 . S
C322 C323 1.426 . S
C322 C324 1.413 . S
C322 N332 1.359 . S
C323 C320 1.417 . S
C323 C322 1.426 . S
C323 N328 1.350 . S
C324 C321 1.437 . S
C324 C322 1.413 . S
C324 C334 1.391 . S
C325 C320 1.431 . S
C325 C321 1.317 . S
C325 H336 0.930 . S
C326 C320 1.412 . S
C326 C327 1.355 . S
C326 H338 0.930 . S
C327 C326 1.355 . S
C327 C329 1.402 . S
C327 H339 0.930 . S
N328 Gd319 2.661 . S
N328 C323 1.350 . S
N328 C329 1.307 . S
C329 C327 1.402 . S
C329 N328 1.307 . S
C329 H330 0.930 . S
H330 C329 0.930 . S
C331 N332 1.334 . S
C331 C333 1.394 . S
C331 H335 0.930 . S
N332 Gd319 2.601 . S
N332 C322 1.359 . S
N332 C331 1.334 . S
C333 C331 1.394 . S
C333 C334 1.359 . S
C333 H345 0.930 . S
C334 C324 1.391 . S
C334 C333 1.359 . S
C334 H346 0.929 . S
H335 C331 0.930 . S
H336 C325 0.930 . S
H337 C354 0.930 . S
H338 C326 0.930 . S
H339 C327 0.930 . S
H340 C321 0.929 . S
H341 C359 0.930 . S
H342 C350 0.930 . S
H343 C351 0.930 . S
H344 C375 0.929 . S
H345 C333 0.930 . S
H346 C334 0.929 . S
H347 C376 0.930 . S
H348 C357 0.930 . S
N349 Gd318 2.661 . S
N349 C353 1.350 . S
N349 C354 1.307 . S
C350 H342 0.930 . S
C350 C351 1.355 . S
C350 C352 1.412 . S
C351 H343 0.930 . S
C351 C350 1.355 . S
C351 C354 1.402 . S
C352 C350 1.412 . S
C352 C353 1.417 . S
C352 C376 1.431 . S
C353 N349 1.350 . S
C353 C352 1.417 . S
C353 C356 1.426 . S
C354 H337 0.930 . S
C354 N349 1.307 . S
C354 C351 1.402 . S
N355 Gd318 2.601 . S
N355 C356 1.359 . S
N355 C359 1.334 . S
C356 C353 1.426 . S
C356 N355 1.359 . S
C356 C360 1.413 . S
C357 H348 0.930 . S
C357 C358 1.359 . S
C357 C359 1.394 . S
C358 C357 1.359 . S
C358 C360 1.391 . S
C358 H361 0.929 . S
C359 H341 0.930 . S
C359 N355 1.334 . S
C359 C357 1.394 . S
C360 C356 1.413 . S
C360 C358 1.391 . S
C360 C375 1.437 . S
H361 C358 0.929 . S
O362 Gd318 2.545 . S
O362 C377 1.258 . S
O363 Gd318 2.606 1_455 S
O363 Gd319 2.362 1_554 S
O363 C374 1.284 . S
O364 Gd319 2.324 1_655 S
O364 C384 1.254 1_556 S
O365 Gd318 2.429 . S
O365 C384 1.268 . S
O366 Gd318 2.545 1_455 S
O366 C374 1.250 . S
O367 Gd318 2.412 1_455 S
O367 C377 1.252 1_455 S
O368 Gd319 2.545 . S
O368 C386 1.258 . S
O369 Gd318 2.362 . S
O369 Gd319 2.606 1_654 S
O369 C385 1.284 1_554 S
O370 Gd318 2.324 1_455 S
O370 C393 1.254 . S
O371 Gd319 2.410 1_554 S
O371 C393 1.306 . S
O372 Gd319 2.545 1_655 S
O372 C385 1.250 . S
O373 Gd319 2.411 1_655 S
O373 C386 1.252 1_655 S
C374 O363 1.284 . S
C374 O366 1.250 . S
C375 H344 0.929 . S
C375 C360 1.437 . S
C375 C376 1.317 . S
C376 H347 0.930 . S
C376 C352 1.431 . S
C376 C375 1.317 . S
C377 Gd318 2.828 . S
C377 O362 1.258 . S
C377 O367 1.252 1_655 S
C377 C378 1.497 1_655 S
C378 C377 1.497 1_455 S
C378 C379 1.395 1_455 S
C378 C380 1.380 . S
C379 C378 1.395 1_655 S
C379 C382 1.398 . S
C379 H394 0.930 . S
C380 C378 1.380 . S
C380 C381 1.391 . S
C380 H395 0.930 . S
C381 C380 1.391 . S
C381 C383 1.387 . S
C382 C379 1.398 . S
C382 C383 1.380 1_655 S
C382 H396 0.930 . S
C383 C381 1.387 . S
C383 C382 1.380 1_455 S
C383 H397 0.930 . S
C384 O364 1.254 1_554 S
C384 O365 1.268 . S
C385 O369 1.284 1_556 S
C385 O372 1.250 . S
C386 Gd319 2.828 . S
C386 O368 1.258 . S
C386 O373 1.252 1_455 S
C386 C387 1.497 . S
C387 C386 1.497 . S
C387 C388 1.395 . S
C387 C389 1.380 1_455 S
C388 C387 1.395 . S
C388 C391 1.398 . S
C388 H398 0.930 . S
C389 C387 1.380 1_655 S
C389 C390 1.391 . S
C389 H399 0.930 . S
C390 C389 1.391 . S
C390 C392 1.387 . S
C391 C388 1.398 . S
C391 C392 1.380 1_455 S
C391 H400 0.930 . S
C392 C390 1.387 . S
C392 C391 1.380 1_655 S
C392 H401 0.930 . S
C393 O370 1.254 . S
C393 O371 1.306 . S
H394 C379 0.930 . S
H395 C380 0.930 . S
H396 C382 0.930 . S
H397 C383 0.930 . S
H398 C388 0.930 . S
H399 C389 0.930 . S
H400 C391 0.930 . S
H401 C392 0.930 . S
Gd402 N433 2.661 . S
Gd402 N439 2.601 . S
Gd402 O446 2.545 . S
Gd402 O447 2.606 1_556 S
Gd402 O449 2.429 1_556 S
Gd402 O450 2.545 . S
Gd402 O451 2.412 . S
Gd402 O453 2.362 1_556 S
Gd402 O454 2.324 . S
Gd402 C461 2.828 . S
Gd403 N412 2.661 . S
Gd403 N416 2.601 . S
Gd403 O447 2.362 . S
Gd403 O448 2.324 . S
Gd403 O452 2.545 . S
Gd403 O453 2.606 . S
Gd403 O455 2.429 . S
Gd403 O456 2.545 . S
Gd403 O457 2.412 . S
Gd403 C470 2.828 . S
C404 C407 1.417 . S
C404 C409 1.431 . S
C404 C410 1.412 . S
C405 C408 1.437 . S
C405 C409 1.317 . S
C405 H424 0.929 . S
C406 C407 1.426 . S
C406 C408 1.413 . S
C406 N416 1.359 . S
C407 C404 1.417 . S
C407 C406 1.426 . S
C407 N412 1.350 . S
C408 C405 1.437 . S
C408 C406 1.413 . S
C408 C418 1.391 . S
C409 C404 1.431 . S
C409 C405 1.317 . S
C409 H420 0.930 . S
C410 C404 1.412 . S
C410 C411 1.355 . S
C410 H422 0.930 . S
C411 C410 1.355 . S
C411 C413 1.402 . S
C411 H423 0.930 . S
N412 Gd403 2.661 . S
N412 C407 1.350 . S
N412 C413 1.307 . S
C413 C411 1.402 . S
C413 N412 1.307 . S
C413 H414 0.930 . S
H414 C413 0.930 . S
C415 N416 1.334 . S
C415 C417 1.394 . S
C415 H419 0.930 . S
N416 Gd403 2.601 . S
N416 C406 1.359 . S
N416 C415 1.334 . S
C417 C415 1.394 . S
C417 C418 1.359 . S
C417 H429 0.930 . S
C418 C408 1.391 . S
C418 C417 1.359 . S
C418 H430 0.929 . S
H419 C415 0.930 . S
H420 C409 0.930 . S
H421 C438 0.930 . S
H422 C410 0.930 . S
H423 C411 0.930 . S
H424 C405 0.929 . S
H425 C443 0.930 . S
H426 C434 0.930 . S
H427 C435 0.930 . S
H428 C459 0.929 . S
H429 C417 0.930 . S
H430 C418 0.929 . S
H431 C460 0.930 . S
H432 C441 0.930 . S
N433 Gd402 2.661 . S
N433 C437 1.350 . S
N433 C438 1.307 . S
C434 H426 0.930 . S
C434 C435 1.355 . S
C434 C436 1.412 . S
C435 H427 0.930 . S
C435 C434 1.355 . S
C435 C438 1.402 . S
C436 C434 1.412 . S
C436 C437 1.417 . S
C436 C460 1.431 . S
C437 N433 1.350 . S
C437 C436 1.417 . S
C437 C440 1.426 . S
C438 H421 0.930 . S
C438 N433 1.307 . S
C438 C435 1.402 . S
N439 Gd402 2.601 . S
N439 C440 1.359 . S
N439 C443 1.334 . S
C440 C437 1.426 . S
C440 N439 1.359 . S
C440 C444 1.413 . S
C441 H432 0.930 . S
C441 C442 1.359 . S
C441 C443 1.394 . S
C442 C441 1.359 . S
C442 C444 1.391 . S
C442 H445 0.929 . S
C443 H425 0.930 . S
C443 N439 1.334 . S
C443 C441 1.394 . S
C444 C440 1.413 . S
C444 C442 1.391 . S
C444 C459 1.437 . S
H445 C442 0.929 . S
O446 Gd402 2.545 . S
O446 C461 1.258 . S
O447 Gd402 2.606 1_554 S
O447 Gd403 2.362 . S
O447 C458 1.284 1_554 S
O448 Gd403 2.324 . S
O448 C468 1.254 . S
O449 Gd402 2.429 1_554 S
O449 C468 1.268 . S
O450 Gd402 2.545 . S
O450 C458 1.250 . S
O451 Gd402 2.412 . S
O451 C461 1.252 . S
O452 Gd403 2.545 . S
O452 C470 1.258 . S
O453 Gd402 2.362 1_554 S
O453 Gd403 2.606 . S
O453 C469 1.284 . S
O454 Gd402 2.324 . S
O454 C477 1.254 1_556 S
O455 Gd403 2.429 . S
O455 C477 1.268 . S
O456 Gd403 2.545 . S
O456 C469 1.250 . S
O457 Gd403 2.412 . S
O457 C470 1.252 . S
C458 O447 1.284 1_556 S
C458 O450 1.250 . S
C459 H428 0.929 . S
C459 C444 1.437 . S
C459 C460 1.317 . S
C460 H431 0.930 . S
C460 C436 1.431 . S
C460 C459 1.317 . S
C461 Gd402 2.828 . S
C461 O446 1.258 . S
C461 O451 1.252 . S
C461 C462 1.497 . S
C462 C461 1.497 . S
C462 C463 1.395 . S
C462 C464 1.380 . S
C463 C462 1.395 . S
C463 C466 1.398 . S
C463 H478 0.930 . S
C464 C462 1.380 . S
C464 C465 1.391 . S
C464 H479 0.930 . S
C465 C464 1.391 . S
C465 C467 1.387 . S
C466 C463 1.398 . S
C466 C467 1.380 . S
C466 H480 0.930 . S
C467 C465 1.387 . S
C467 C466 1.380 . S
C467 H481 0.930 . S
C468 O448 1.254 . S
C468 O449 1.268 . S
C469 O453 1.284 . S
C469 O456 1.250 . S
C470 Gd403 2.828 . S
C470 O452 1.258 . S
C470 O457 1.252 . S
C470 C471 1.497 . S
C471 C470 1.497 . S
C471 C472 1.395 . S
C471 C473 1.380 . S
C472 C471 1.395 . S
C472 C475 1.398 . S
C472 H482 0.930 . S
C473 C471 1.380 . S
C473 C474 1.391 . S
C473 H483 0.930 . S
C474 C473 1.391 . S
C474 C476 1.387 . S
C475 C472 1.398 . S
C475 C476 1.380 . S
C475 H484 0.930 . S
C476 C474 1.387 . S
C476 C475 1.380 . S
C476 H485 0.930 . S
C477 O454 1.254 1_554 S
C477 O455 1.268 . S
H478 C463 0.930 . S
H479 C464 0.930 . S
H480 C466 0.930 . S
H481 C467 0.930 . S
H482 C472 0.930 . S
H483 C473 0.930 . S
H484 C475 0.930 . S
H485 C476 0.930 . S
Gd486 N517 2.661 . S
Gd486 N523 2.601 . S
Gd486 O530 2.545 . S
Gd486 O531 2.606 . S
Gd486 O533 2.429 . S
Gd486 O534 2.545 . S
Gd486 O535 2.412 . S
Gd486 O537 2.362 . S
Gd486 O538 2.324 . S
Gd486 C545 2.828 . S
Gd487 N496 2.661 . S
Gd487 N500 2.601 . S
Gd487 O531 2.362 . S
Gd487 O532 2.324 . S
Gd487 O536 2.545 . S
Gd487 O537 2.606 . S
Gd487 O539 2.429 . S
Gd487 O540 2.545 . S
Gd487 O541 2.412 . S
Gd487 C554 2.828 . S
C488 C491 1.417 . S
C488 C493 1.431 . S
C488 C494 1.412 . S
C489 C492 1.437 . S
C489 C493 1.317 . S
C489 H508 0.929 . S
C490 C491 1.426 . S
C490 C492 1.413 . S
C490 N500 1.359 . S
C491 C488 1.417 . S
C491 C490 1.426 . S
C491 N496 1.350 . S
C492 C489 1.437 . S
C492 C490 1.413 . S
C492 C502 1.391 . S
C493 C488 1.431 . S
C493 C489 1.317 . S
C493 H504 0.930 . S
C494 C488 1.412 . S
C494 C495 1.355 . S
C494 H506 0.930 . S
C495 C494 1.355 . S
C495 C497 1.402 . S
C495 H507 0.930 . S
N496 Gd487 2.661 . S
N496 C491 1.350 . S
N496 C497 1.307 . S
C497 C495 1.402 . S
C497 N496 1.307 . S
C497 H498 0.930 . S
H498 C497 0.930 . S
C499 N500 1.334 . S
C499 C501 1.394 . S
C499 H503 0.930 . S
N500 Gd487 2.601 . S
N500 C490 1.359 . S
N500 C499 1.334 . S
C501 C499 1.394 . S
C501 C502 1.359 . S
C501 H513 0.930 . S
C502 C492 1.391 . S
C502 C501 1.359 . S
C502 H514 0.929 . S
H503 C499 0.930 . S
H504 C493 0.930 . S
H505 C522 0.930 . S
H506 C494 0.930 . S
H507 C495 0.930 . S
H508 C489 0.929 . S
H509 C527 0.930 . S
H510 C518 0.930 . S
H511 C519 0.930 . S
H512 C543 0.929 . S
H513 C501 0.930 . S
H514 C502 0.929 . S
H515 C544 0.930 . S
H516 C525 0.930 . S
N517 Gd486 2.661 . S
N517 C521 1.350 . S
N517 C522 1.307 . S
C518 H510 0.930 . S
C518 C519 1.355 . S
C518 C520 1.412 . S
C519 H511 0.930 . S
C519 C518 1.355 . S
C519 C522 1.402 . S
C520 C518 1.412 . S
C520 C521 1.417 . S
C520 C544 1.431 . S
C521 N517 1.350 . S
C521 C520 1.417 . S
C521 C524 1.426 . S
C522 H505 0.930 . S
C522 N517 1.307 . S
C522 C519 1.402 . S
N523 Gd486 2.601 . S
N523 C524 1.359 . S
N523 C527 1.334 . S
C524 C521 1.426 . S
C524 N523 1.359 . S
C524 C528 1.413 . S
C525 H516 0.930 . S
C525 C526 1.359 . S
C525 C527 1.394 . S
C526 C525 1.359 . S
C526 C528 1.391 . S
C526 H529 0.929 . S
C527 H509 0.930 . S
C527 N523 1.334 . S
C527 C525 1.394 . S
C528 C524 1.413 . S
C528 C526 1.391 . S
C528 C543 1.437 . S
H529 C526 0.929 . S
O530 Gd486 2.545 . S
O530 C545 1.258 . S
O531 Gd486 2.606 . S
O531 Gd487 2.362 . S
O531 C542 1.284 . S
O532 Gd487 2.324 . S
O532 C552 1.254 . S
O533 Gd486 2.429 . S
O533 C552 1.268 . S
O534 Gd486 2.545 . S
O534 C542 1.250 . S
O535 Gd486 2.412 . S
O535 C545 1.252 . S
O536 Gd487 2.545 . S
O536 C554 1.258 . S
O537 Gd486 2.362 . S
O537 Gd487 2.606 . S
O537 C553 1.284 . S
O538 Gd486 2.324 . S
O538 C561 1.254 . S
O539 Gd487 2.429 . S
O539 C561 1.268 . S
O540 Gd487 2.545 . S
O540 C553 1.250 . S
O541 Gd487 2.412 . S
O541 C554 1.252 . S
C542 O531 1.284 . S
C542 O534 1.250 . S
C543 H512 0.929 . S
C543 C528 1.437 . S
C543 C544 1.317 . S
C544 H515 0.930 . S
C544 C520 1.431 . S
C544 C543 1.317 . S
C545 Gd486 2.828 . S
C545 O530 1.258 . S
C545 O535 1.252 . S
C545 C546 1.497 . S
C546 C545 1.497 . S
C546 C547 1.395 . S
C546 C548 1.380 . S
C547 C546 1.395 . S
C547 C550 1.398 . S
C547 H562 0.930 . S
C548 C546 1.380 . S
C548 C549 1.391 . S
C548 H563 0.930 . S
C549 C548 1.391 . S
C549 C551 1.387 . S
C550 C547 1.398 . S
C550 C551 1.380 . S
C550 H564 0.930 . S
C551 C549 1.387 . S
C551 C550 1.380 . S
C551 H565 0.930 . S
C552 O532 1.254 . S
C552 O533 1.268 . S
C553 O537 1.284 . S
C553 O540 1.250 . S
C554 Gd487 2.828 . S
C554 O536 1.258 . S
C554 O541 1.252 . S
C554 C555 1.497 . S
C555 C554 1.497 . S
C555 C556 1.395 . S
C555 C557 1.380 . S
C556 C555 1.395 . S
C556 C559 1.398 . S
C556 H566 0.930 . S
C557 C555 1.380 . S
C557 C558 1.391 . S
C557 H567 0.930 . S
C558 C557 1.391 . S
C558 C560 1.387 . S
C559 C556 1.398 . S
C559 C560 1.380 . S
C559 H568 0.930 . S
C560 C558 1.387 . S
C560 C559 1.380 . S
C560 H569 0.930 . S
C561 O538 1.254 . S
C561 O539 1.268 . S
H562 C547 0.930 . S
H563 C548 0.930 . S
H564 C550 0.930 . S
H565 C551 0.930 . S
H566 C556 0.930 . S
H567 C557 0.930 . S
H568 C559 0.930 . S
H569 C560 0.930 . S
Gd570 N601 2.661 . S
Gd570 N607 2.601 . S
Gd570 O614 2.545 . S
Gd570 O615 2.606 . S
Gd570 O617 2.429 . S
Gd570 O618 2.545 . S
Gd570 O619 2.412 . S
Gd570 O621 2.362 . S
Gd570 O622 2.324 . S
Gd570 C629 2.828 . S
Gd571 N580 2.661 . S
Gd571 N584 2.601 . S
Gd571 O615 2.362 . S
Gd571 O616 2.324 . S
Gd571 O620 2.545 . S
Gd571 O621 2.606 . S
Gd571 O623 2.429 . S
Gd571 O624 2.545 . S
Gd571 O625 2.412 . S
Gd571 C638 2.828 . S
C572 C575 1.417 . S
C572 C577 1.431 . S
C572 C578 1.412 . S
C573 C576 1.437 . S
C573 C577 1.317 . S
C573 H592 0.929 . S
C574 C575 1.426 . S
C574 C576 1.413 . S
C574 N584 1.359 . S
C575 C572 1.417 . S
C575 C574 1.426 . S
C575 N580 1.350 . S
C576 C573 1.437 . S
C576 C574 1.413 . S
C576 C586 1.391 . S
C577 C572 1.431 . S
C577 C573 1.317 . S
C577 H588 0.930 . S
C578 C572 1.412 . S
C578 C579 1.355 . S
C578 H590 0.930 . S
C579 C578 1.355 . S
C579 C581 1.402 . S
C579 H591 0.930 . S
N580 Gd571 2.661 . S
N580 C575 1.350 . S
N580 C581 1.307 . S
C581 C579 1.402 . S
C581 N580 1.307 . S
C581 H582 0.930 . S
H582 C581 0.930 . S
C583 N584 1.334 . S
C583 C585 1.394 . S
C583 H587 0.930 . S
N584 Gd571 2.601 . S
N584 C574 1.359 . S
N584 C583 1.334 . S
C585 C583 1.394 . S
C585 C586 1.359 . S
C585 H597 0.930 . S
C586 C576 1.391 . S
C586 C585 1.359 . S
C586 H598 0.929 . S
H587 C583 0.930 . S
H588 C577 0.930 . S
H589 C606 0.930 . S
H590 C578 0.930 . S
H591 C579 0.930 . S
H592 C573 0.929 . S
H593 C611 0.930 . S
H594 C602 0.930 . S
H595 C603 0.930 . S
H596 C627 0.929 . S
H597 C585 0.930 . S
H598 C586 0.929 . S
H599 C628 0.930 . S
H600 C609 0.930 . S
N601 Gd570 2.661 . S
N601 C605 1.350 . S
N601 C606 1.307 . S
C602 H594 0.930 . S
C602 C603 1.355 . S
C602 C604 1.412 . S
C603 H595 0.930 . S
C603 C602 1.355 . S
C603 C606 1.402 . S
C604 C602 1.412 . S
C604 C605 1.417 . S
C604 C628 1.431 . S
C605 N601 1.350 . S
C605 C604 1.417 . S
C605 C608 1.426 . S
C606 H589 0.930 . S
C606 N601 1.307 . S
C606 C603 1.402 . S
N607 Gd570 2.601 . S
N607 C608 1.359 . S
N607 C611 1.334 . S
C608 C605 1.426 . S
C608 N607 1.359 . S
C608 C612 1.413 . S
C609 H600 0.930 . S
C609 C610 1.359 . S
C609 C611 1.394 . S
C610 C609 1.359 . S
C610 C612 1.391 . S
C610 H613 0.929 . S
C611 H593 0.930 . S
C611 N607 1.334 . S
C611 C609 1.394 . S
C612 C608 1.413 . S
C612 C610 1.391 . S
C612 C627 1.437 . S
H613 C610 0.929 . S
O614 Gd570 2.545 . S
O614 C629 1.258 . S
O615 Gd570 2.606 . S
O615 Gd571 2.362 . S
O615 C626 1.284 . S
O616 Gd571 2.324 . S
O616 C636 1.254 . S
O617 Gd570 2.429 . S
O617 C636 1.268 . S
O618 Gd570 2.545 . S
O618 C626 1.250 . S
O619 Gd570 2.412 . S
O619 C629 1.252 . S
O620 Gd571 2.545 . S
O620 C638 1.258 . S
O621 Gd570 2.362 . S
O621 Gd571 2.606 . S
O621 C637 1.284 . S
O622 Gd570 2.324 . S
O622 C645 1.254 . S
O623 Gd571 2.429 . S
O623 C645 1.268 . S
O624 Gd571 2.545 . S
O624 C637 1.250 . S
O625 Gd571 2.412 . S
O625 C638 1.252 . S
C626 O615 1.284 . S
C626 O618 1.250 . S
C627 H596 0.929 . S
C627 C612 1.437 . S
C627 C628 1.317 . S
C628 H599 0.930 . S
C628 C604 1.431 . S
C628 C627 1.317 . S
C629 Gd570 2.828 . S
C629 O614 1.258 . S
C629 O619 1.252 . S
C629 C630 1.497 . S
C630 C629 1.497 . S
C630 C631 1.395 . S
C630 C632 1.380 . S
C631 C630 1.395 . S
C631 C634 1.398 . S
C631 H646 0.930 . S
C632 C630 1.380 . S
C632 C633 1.391 . S
C632 H647 0.930 . S
C633 C632 1.391 . S
C633 C635 1.387 . S
C634 C631 1.398 . S
C634 C635 1.380 . S
C634 H648 0.930 . S
C635 C633 1.387 . S
C635 C634 1.380 . S
C635 H649 0.930 . S
C636 O616 1.254 . S
C636 O617 1.268 . S
C637 O621 1.284 . S
C637 O624 1.250 . S
C638 Gd571 2.828 . S
C638 O620 1.258 . S
C638 O625 1.252 . S
C638 C639 1.497 . S
C639 C638 1.497 . S
C639 C640 1.395 . S
C639 C641 1.380 . S
C640 C639 1.395 . S
C640 C643 1.398 . S
C640 H650 0.930 . S
C641 C639 1.380 . S
C641 C642 1.391 . S
C641 H651 0.930 . S
C642 C641 1.391 . S
C642 C644 1.387 . S
C643 C640 1.398 . S
C643 C644 1.380 . S
C643 H652 0.930 . S
C644 C642 1.387 . S
C644 C643 1.380 . S
C644 H653 0.930 . S
C645 O622 1.254 . S
C645 O623 1.268 . S
H646 C631 0.930 . S
H647 C632 0.930 . S
H648 C634 0.930 . S
H649 C635 0.930 . S
H650 C640 0.930 . S
H651 C641 0.930 . S
H652 C643 0.930 . S
H653 C644 0.930 . S
Gd654 N685 2.661 . S
Gd654 N691 2.601 . S
Gd654 O698 2.545 . S
Gd654 O699 2.606 . S
Gd654 O701 2.429 . S
Gd654 O702 2.545 . S
Gd654 O703 2.412 . S
Gd654 O705 2.362 . S
Gd654 O706 2.324 . S
Gd654 C713 2.828 . S
Gd655 N664 2.661 . S
Gd655 N668 2.601 . S
Gd655 O699 2.362 . S
Gd655 O700 2.324 . S
Gd655 O704 2.545 . S
Gd655 O705 2.606 . S
Gd655 O707 2.429 . S
Gd655 O708 2.545 . S
Gd655 O709 2.412 . S
Gd655 C722 2.828 . S
C656 C659 1.417 . S
C656 C661 1.431 . S
C656 C662 1.412 . S
C657 C660 1.437 . S
C657 C661 1.317 . S
C657 H676 0.929 . S
C658 C659 1.426 . S
C658 C660 1.413 . S
C658 N668 1.359 . S
C659 C656 1.417 . S
C659 C658 1.426 . S
C659 N664 1.350 . S
C660 C657 1.437 . S
C660 C658 1.413 . S
C660 C670 1.391 . S
C661 C656 1.431 . S
C661 C657 1.317 . S
C661 H672 0.930 . S
C662 C656 1.412 . S
C662 C663 1.355 . S
C662 H674 0.930 . S
C663 C662 1.355 . S
C663 C665 1.402 . S
C663 H675 0.930 . S
N664 Gd655 2.661 . S
N664 C659 1.350 . S
N664 C665 1.307 . S
C665 C663 1.402 . S
C665 N664 1.307 . S
C665 H666 0.930 . S
H666 C665 0.930 . S
C667 N668 1.334 . S
C667 C669 1.394 . S
C667 H671 0.930 . S
N668 Gd655 2.601 . S
N668 C658 1.359 . S
N668 C667 1.334 . S
C669 C667 1.394 . S
C669 C670 1.359 . S
C669 H681 0.930 . S
C670 C660 1.391 . S
C670 C669 1.359 . S
C670 H682 0.929 . S
H671 C667 0.930 . S
H672 C661 0.930 . S
H673 C690 0.930 . S
H674 C662 0.930 . S
H675 C663 0.930 . S
H676 C657 0.929 . S
H677 C695 0.930 . S
H678 C686 0.930 . S
H679 C687 0.930 . S
H680 C711 0.929 . S
H681 C669 0.930 . S
H682 C670 0.929 . S
H683 C712 0.930 . S
H684 C693 0.930 . S
N685 Gd654 2.661 . S
N685 C689 1.350 . S
N685 C690 1.307 . S
C686 H678 0.930 . S
C686 C687 1.355 . S
C686 C688 1.412 . S
C687 H679 0.930 . S
C687 C686 1.355 . S
C687 C690 1.402 . S
C688 C686 1.412 . S
C688 C689 1.417 . S
C688 C712 1.431 . S
C689 N685 1.350 . S
C689 C688 1.417 . S
C689 C692 1.426 . S
C690 H673 0.930 . S
C690 N685 1.307 . S
C690 C687 1.402 . S
N691 Gd654 2.601 . S
N691 C692 1.359 . S
N691 C695 1.334 . S
C692 C689 1.426 . S
C692 N691 1.359 . S
C692 C696 1.413 . S
C693 H684 0.930 . S
C693 C694 1.359 . S
C693 C695 1.394 . S
C694 C693 1.359 . S
C694 C696 1.391 . S
C694 H697 0.929 . S
C695 H677 0.930 . S
C695 N691 1.334 . S
C695 C693 1.394 . S
C696 C692 1.413 . S
C696 C694 1.391 . S
C696 C711 1.437 . S
H697 C694 0.929 . S
O698 Gd654 2.545 . S
O698 C713 1.258 . S
O699 Gd654 2.606 . S
O699 Gd655 2.362 . S
O699 C710 1.284 . S
O700 Gd655 2.324 . S
O700 C720 1.254 . S
O701 Gd654 2.429 . S
O701 C720 1.268 . S
O702 Gd654 2.545 . S
O702 C710 1.250 . S
O703 Gd654 2.412 . S
O703 C713 1.252 . S
O704 Gd655 2.545 . S
O704 C722 1.258 . S
O705 Gd654 2.362 . S
O705 Gd655 2.606 . S
O705 C721 1.284 . S
O706 Gd654 2.324 . S
O706 C729 1.254 . S
O707 Gd655 2.429 . S
O707 C729 1.268 . S
O708 Gd655 2.545 . S
O708 C721 1.250 . S
O709 Gd655 2.412 . S
O709 C722 1.252 . S
C710 O699 1.284 . S
C710 O702 1.250 . S
C711 H680 0.929 . S
C711 C696 1.437 . S
C711 C712 1.317 . S
C712 H683 0.930 . S
C712 C688 1.431 . S
C712 C711 1.317 . S
C713 Gd654 2.828 . S
C713 O698 1.258 . S
C713 O703 1.252 . S
C713 C714 1.497 . S
C714 C713 1.497 . S
C714 C715 1.395 . S
C714 C716 1.380 . S
C715 C714 1.395 . S
C715 C718 1.398 . S
C715 H730 0.930 . S
C716 C714 1.380 . S
C716 C717 1.391 . S
C716 H731 0.930 . S
C717 C716 1.391 . S
C717 C719 1.387 . S
C718 C715 1.398 . S
C718 C719 1.380 . S
C718 H732 0.930 . S
C719 C717 1.387 . S
C719 C718 1.380 . S
C719 H733 0.930 . S
C720 O700 1.254 . S
C720 O701 1.268 . S
C721 O705 1.284 . S
C721 O708 1.250 . S
C722 Gd655 2.828 . S
C722 O704 1.258 . S
C722 O709 1.252 . S
C722 C723 1.497 . S
C723 C722 1.497 . S
C723 C724 1.395 . S
C723 C725 1.380 . S
C724 C723 1.395 . S
C724 C727 1.398 . S
C724 H734 0.930 . S
C725 C723 1.380 . S
C725 C726 1.391 . S
C725 H735 0.930 . S
C726 C725 1.391 . S
C726 C728 1.387 . S
C727 C724 1.398 . S
C727 C728 1.380 . S
C727 H736 0.930 . S
C728 C726 1.387 . S
C728 C727 1.380 . S
C728 H737 0.930 . S
C729 O706 1.254 . S
C729 O707 1.268 . S
H730 C715 0.930 . S
H731 C716 0.930 . S
H732 C718 0.930 . S
H733 C719 0.930 . S
H734 C724 0.930 . S
H735 C725 0.930 . S
H736 C727 0.930 . S
H737 C728 0.930 . S
Gd738 N769 2.661 . S
Gd738 N775 2.601 . S
Gd738 O782 2.545 . S
Gd738 O783 2.606 . S
Gd738 O785 2.429 . S
Gd738 O786 2.545 . S
Gd738 O787 2.412 . S
Gd738 O789 2.362 . S
Gd738 O790 2.324 . S
Gd738 C797 2.828 . S
Gd739 N748 2.661 . S
Gd739 N752 2.601 . S
Gd739 O783 2.362 . S
Gd739 O784 2.324 . S
Gd739 O788 2.545 . S
Gd739 O789 2.606 . S
Gd739 O791 2.429 . S
Gd739 O792 2.545 . S
Gd739 O793 2.412 . S
Gd739 C806 2.828 . S
C740 C743 1.417 . S
C740 C745 1.431 . S
C740 C746 1.412 . S
C741 C744 1.437 . S
C741 C745 1.317 . S
C741 H760 0.929 . S
C742 C743 1.426 . S
C742 C744 1.413 . S
C742 N752 1.359 . S
C743 C740 1.417 . S
C743 C742 1.426 . S
C743 N748 1.350 . S
C744 C741 1.437 . S
C744 C742 1.413 . S
C744 C754 1.391 . S
C745 C740 1.431 . S
C745 C741 1.317 . S
C745 H756 0.930 . S
C746 C740 1.412 . S
C746 C747 1.355 . S
C746 H758 0.930 . S
C747 C746 1.355 . S
C747 C749 1.402 . S
C747 H759 0.930 . S
N748 Gd739 2.661 . S
N748 C743 1.350 . S
N748 C749 1.307 . S
C749 C747 1.402 . S
C749 N748 1.307 . S
C749 H750 0.930 . S
H750 C749 0.930 . S
C751 N752 1.334 . S
C751 C753 1.394 . S
C751 H755 0.930 . S
N752 Gd739 2.601 . S
N752 C742 1.359 . S
N752 C751 1.334 . S
C753 C751 1.394 . S
C753 C754 1.359 . S
C753 H765 0.930 . S
C754 C744 1.391 . S
C754 C753 1.359 . S
C754 H766 0.929 . S
H755 C751 0.930 . S
H756 C745 0.930 . S
H757 C774 0.930 . S
H758 C746 0.930 . S
H759 C747 0.930 . S
H760 C741 0.929 . S
H761 C779 0.930 . S
H762 C770 0.930 . S
H763 C771 0.930 . S
H764 C795 0.929 . S
H765 C753 0.930 . S
H766 C754 0.929 . S
H767 C796 0.930 . S
H768 C777 0.930 . S
N769 Gd738 2.661 . S
N769 C773 1.350 . S
N769 C774 1.307 . S
C770 H762 0.930 . S
C770 C771 1.355 . S
C770 C772 1.412 . S
C771 H763 0.930 . S
C771 C770 1.355 . S
C771 C774 1.402 . S
C772 C770 1.412 . S
C772 C773 1.417 . S
C772 C796 1.431 . S
C773 N769 1.350 . S
C773 C772 1.417 . S
C773 C776 1.426 . S
C774 H757 0.930 . S
C774 N769 1.307 . S
C774 C771 1.402 . S
N775 Gd738 2.601 . S
N775 C776 1.359 . S
N775 C779 1.334 . S
C776 C773 1.426 . S
C776 N775 1.359 . S
C776 C780 1.413 . S
C777 H768 0.930 . S
C777 C778 1.359 . S
C777 C779 1.394 . S
C778 C777 1.359 . S
C778 C780 1.391 . S
C778 H781 0.929 . S
C779 H761 0.930 . S
C779 N775 1.334 . S
C779 C777 1.394 . S
C780 C776 1.413 . S
C780 C778 1.391 . S
C780 C795 1.437 . S
H781 C778 0.929 . S
O782 Gd738 2.545 . S
O782 C797 1.258 . S
O783 Gd738 2.606 . S
O783 Gd739 2.362 . S
O783 C794 1.284 . S
O784 Gd739 2.324 . S
O784 C804 1.254 . S
O785 Gd738 2.429 . S
O785 C804 1.268 . S
O786 Gd738 2.545 . S
O786 C794 1.250 . S
O787 Gd738 2.412 . S
O787 C797 1.252 . S
O788 Gd739 2.545 . S
O788 C806 1.258 . S
O789 Gd738 2.362 . S
O789 Gd739 2.606 . S
O789 C805 1.284 . S
O790 Gd738 2.324 . S
O790 C813 1.254 . S
O791 Gd739 2.429 . S
O791 C813 1.268 . S
O792 Gd739 2.545 . S
O792 C805 1.250 . S
O793 Gd739 2.412 . S
O793 C806 1.252 . S
C794 O783 1.284 . S
C794 O786 1.250 . S
C795 H764 0.929 . S
C795 C780 1.437 . S
C795 C796 1.317 . S
C796 H767 0.930 . S
C796 C772 1.431 . S
C796 C795 1.317 . S
C797 Gd738 2.828 . S
C797 O782 1.258 . S
C797 O787 1.252 . S
C797 C798 1.497 . S
C798 C797 1.497 . S
C798 C799 1.395 . S
C798 C800 1.380 . S
C799 C798 1.395 . S
C799 C802 1.398 . S
C799 H814 0.930 . S
C800 C798 1.380 . S
C800 C801 1.391 . S
C800 H815 0.930 . S
C801 C800 1.391 . S
C801 C803 1.387 . S
C802 C799 1.398 . S
C802 C803 1.380 . S
C802 H816 0.930 . S
C803 C801 1.387 . S
C803 C802 1.380 . S
C803 H817 0.930 . S
C804 O784 1.254 . S
C804 O785 1.268 . S
C805 O789 1.284 . S
C805 O792 1.250 . S
C806 Gd739 2.828 . S
C806 O788 1.258 . S
C806 O793 1.252 . S
C806 C807 1.497 . S
C807 C806 1.497 . S
C807 C808 1.395 . S
C807 C809 1.380 . S
C808 C807 1.395 . S
C808 C811 1.398 . S
C808 H818 0.930 . S
C809 C807 1.380 . S
C809 C810 1.391 . S
C809 H819 0.930 . S
C810 C809 1.391 . S
C810 C812 1.387 . S
C811 C808 1.398 . S
C811 C812 1.380 . S
C811 H820 0.930 . S
C812 C810 1.387 . S
C812 C811 1.380 . S
C812 H821 0.930 . S
C813 O790 1.254 . S
C813 O791 1.268 . S
H814 C799 0.930 . S
H815 C800 0.930 . S
H816 C802 0.930 . S
H817 C803 0.930 . S
H818 C808 0.930 . S
H819 C809 0.930 . S
H820 C811 0.930 . S
H821 C812 0.930 . S
Gd822 N853 2.661 . S
Gd822 N859 2.601 . S
Gd822 O866 2.545 . S
Gd822 O867 2.606 . S
Gd822 O869 2.429 . S
Gd822 O870 2.545 . S
Gd822 O871 2.412 . S
Gd822 O873 2.362 . S
Gd822 O874 2.324 . S
Gd822 C881 2.828 . S
Gd823 N832 2.661 . S
Gd823 N836 2.601 . S
Gd823 O867 2.362 . S
Gd823 O868 2.324 . S
Gd823 O872 2.545 . S
Gd823 O873 2.606 . S
Gd823 O875 2.429 . S
Gd823 O876 2.545 . S
Gd823 O877 2.412 . S
Gd823 C890 2.828 . S
C824 C827 1.417 . S
C824 C829 1.431 . S
C824 C830 1.412 . S
C825 C828 1.437 . S
C825 C829 1.317 . S
C825 H844 0.929 . S
C826 C827 1.426 . S
C826 C828 1.413 . S
C826 N836 1.359 . S
C827 C824 1.417 . S
C827 C826 1.426 . S
C827 N832 1.350 . S
C828 C825 1.437 . S
C828 C826 1.413 . S
C828 C838 1.391 . S
C829 C824 1.431 . S
C829 C825 1.317 . S
C829 H840 0.930 . S
C830 C824 1.412 . S
C830 C831 1.355 . S
C830 H842 0.930 . S
C831 C830 1.355 . S
C831 C833 1.402 . S
C831 H843 0.930 . S
N832 Gd823 2.661 . S
N832 C827 1.350 . S
N832 C833 1.307 . S
C833 C831 1.402 . S
C833 N832 1.307 . S
C833 H834 0.930 . S
H834 C833 0.930 . S
C835 N836 1.334 . S
C835 C837 1.394 . S
C835 H839 0.930 . S
N836 Gd823 2.601 . S
N836 C826 1.359 . S
N836 C835 1.334 . S
C837 C835 1.394 . S
C837 C838 1.359 . S
C837 H849 0.930 . S
C838 C828 1.391 . S
C838 C837 1.359 . S
C838 H850 0.929 . S
H839 C835 0.930 . S
H840 C829 0.930 . S
H841 C858 0.930 . S
H842 C830 0.930 . S
H843 C831 0.930 . S
H844 C825 0.929 . S
H845 C863 0.930 . S
H846 C854 0.930 . S
H847 C855 0.930 . S
H848 C879 0.929 . S
H849 C837 0.930 . S
H850 C838 0.929 . S
H851 C880 0.930 . S
H852 C861 0.930 . S
N853 Gd822 2.661 . S
N853 C857 1.350 . S
N853 C858 1.307 . S
C854 H846 0.930 . S
C854 C855 1.355 . S
C854 C856 1.412 . S
C855 H847 0.930 . S
C855 C854 1.355 . S
C855 C858 1.402 . S
C856 C854 1.412 . S
C856 C857 1.417 . S
C856 C880 1.431 . S
C857 N853 1.350 . S
C857 C856 1.417 . S
C857 C860 1.426 . S
C858 H841 0.930 . S
C858 N853 1.307 . S
C858 C855 1.402 . S
N859 Gd822 2.601 . S
N859 C860 1.359 . S
N859 C863 1.334 . S
C860 C857 1.426 . S
C860 N859 1.359 . S
C860 C864 1.413 . S
C861 H852 0.930 . S
C861 C862 1.359 . S
C861 C863 1.394 . S
C862 C861 1.359 . S
C862 C864 1.391 . S
C862 H865 0.929 . S
C863 H845 0.930 . S
C863 N859 1.334 . S
C863 C861 1.394 . S
C864 C860 1.413 . S
C864 C862 1.391 . S
C864 C879 1.437 . S
H865 C862 0.929 . S
O866 Gd822 2.545 . S
O866 C881 1.258 . S
O867 Gd822 2.606 . S
O867 Gd823 2.362 . S
O867 C878 1.284 . S
O868 Gd823 2.324 . S
O868 C888 1.254 . S
O869 Gd822 2.429 . S
O869 C888 1.268 . S
O870 Gd822 2.545 . S
O870 C878 1.250 . S
O871 Gd822 2.412 . S
O871 C881 1.252 . S
O872 Gd823 2.545 . S
O872 C890 1.258 . S
O873 Gd822 2.362 . S
O873 Gd823 2.606 . S
O873 C889 1.284 . S
O874 Gd822 2.324 . S
O874 C897 1.254 . S
O875 Gd823 2.429 . S
O875 C897 1.268 . S
O876 Gd823 2.545 . S
O876 C889 1.250 . S
O877 Gd823 2.412 . S
O877 C890 1.252 . S
C878 O867 1.284 . S
C878 O870 1.250 . S
C879 H848 0.929 . S
C879 C864 1.437 . S
C879 C880 1.317 . S
C880 H851 0.930 . S
C880 C856 1.431 . S
C880 C879 1.317 . S
C881 Gd822 2.828 . S
C881 O866 1.258 . S
C881 O871 1.252 . S
C881 C882 1.497 . S
C882 C881 1.497 . S
C882 C883 1.395 . S
C882 C884 1.380 . S
C883 C882 1.395 . S
C883 C886 1.398 . S
C883 H898 0.930 . S
C884 C882 1.380 . S
C884 C885 1.391 . S
C884 H899 0.930 . S
C885 C884 1.391 . S
C885 C887 1.387 . S
C886 C883 1.398 . S
C886 C887 1.380 . S
C886 H900 0.930 . S
C887 C885 1.387 . S
C887 C886 1.380 . S
C887 H901 0.930 . S
C888 O868 1.254 . S
C888 O869 1.268 . S
C889 O873 1.284 . S
C889 O876 1.250 . S
C890 Gd823 2.828 . S
C890 O872 1.258 . S
C890 O877 1.252 . S
C890 C891 1.497 . S
C891 C890 1.497 . S
C891 C892 1.395 . S
C891 C893 1.380 . S
C892 C891 1.395 . S
C892 C895 1.398 . S
C892 H902 0.930 . S
C893 C891 1.380 . S
C893 C894 1.391 . S
C893 H903 0.930 . S
C894 C893 1.391 . S
C894 C896 1.387 . S
C895 C892 1.398 . S
C895 C896 1.380 . S
C895 H904 0.930 . S
C896 C894 1.387 . S
C896 C895 1.380 . S
C896 H905 0.930 . S
C897 O874 1.254 . S
C897 O875 1.268 . S
H898 C883 0.930 . S
H899 C884 0.930 . S
H900 C886 0.930 . S
H901 C887 0.930 . S
H902 C892 0.930 . S
H903 C893 0.930 . S
H904 C895 0.930 . S
H905 C896 0.930 . S
Gd906 N937 2.661 . S
Gd906 N943 2.601 . S
Gd906 O950 2.545 . S
Gd906 O951 2.606 . S
Gd906 O953 2.429 . S
Gd906 O954 2.545 . S
Gd906 O955 2.412 . S
Gd906 O957 2.362 . S
Gd906 O958 2.324 . S
Gd906 C965 2.828 . S
Gd907 N916 2.661 . S
Gd907 N920 2.601 . S
Gd907 O951 2.362 . S
Gd907 O952 2.324 . S
Gd907 O956 2.545 . S
Gd907 O957 2.606 . S
Gd907 O959 2.429 . S
Gd907 O960 2.545 . S
Gd907 O961 2.412 . S
Gd907 C974 2.828 . S
C908 C911 1.417 . S
C908 C913 1.431 . S
C908 C914 1.412 . S
C909 C912 1.437 . S
C909 C913 1.317 . S
C909 H928 0.929 . S
C910 C911 1.426 . S
C910 C912 1.413 . S
C910 N920 1.359 . S
C911 C908 1.417 . S
C911 C910 1.426 . S
C911 N916 1.350 . S
C912 C909 1.437 . S
C912 C910 1.413 . S
C912 C922 1.391 . S
C913 C908 1.431 . S
C913 C909 1.317 . S
C913 H924 0.930 1_655 S
C914 C908 1.412 . S
C914 C915 1.355 . S
C914 H926 0.930 1_655 S
C915 C914 1.355 . S
C915 C917 1.402 . S
C915 H927 0.930 . S
N916 Gd907 2.661 . S
N916 C911 1.350 . S
N916 C917 1.307 . S
C917 C915 1.402 . S
C917 N916 1.307 . S
C917 H918 0.930 . S
H918 C917 0.930 . S
C919 N920 1.334 . S
C919 C921 1.394 . S
C919 H923 0.930 . S
N920 Gd907 2.601 . S
N920 C910 1.359 . S
N920 C919 1.334 . S
C921 C919 1.394 . S
C921 C922 1.359 . S
C921 H933 0.930 . S
C922 C912 1.391 . S
C922 C921 1.359 . S
C922 H934 0.929 . S
H923 C919 0.930 . S
H924 C913 0.930 1_455 S
H925 C942 0.930 . S
H926 C914 0.930 1_455 S
H927 C915 0.930 . S
H928 C909 0.929 . S
H929 C947 0.930 . S
H930 C938 0.930 . S
H931 C939 0.930 . S
H932 C963 0.929 . S
H933 C921 0.930 . S
H934 C922 0.929 . S
H935 C964 0.930 . S
H936 C945 0.930 . S
N937 Gd906 2.661 . S
N937 C941 1.350 . S
N937 C942 1.307 . S
C938 H930 0.930 . S
C938 C939 1.355 . S
C938 C940 1.412 . S
C939 H931 0.930 . S
C939 C938 1.355 . S
C939 C942 1.402 . S
C940 C938 1.412 . S
C940 C941 1.417 . S
C940 C964 1.431 . S
C941 N937 1.350 . S
C941 C940 1.417 . S
C941 C944 1.426 . S
C942 H925 0.930 . S
C942 N937 1.307 . S
C942 C939 1.402 . S
N943 Gd906 2.601 . S
N943 C944 1.359 . S
N943 C947 1.334 . S
C944 C941 1.426 . S
C944 N943 1.359 . S
C944 C948 1.413 . S
C945 H936 0.930 . S
C945 C946 1.359 . S
C945 C947 1.394 . S
C946 C945 1.359 . S
C946 C948 1.391 . S
C946 H949 0.929 . S
C947 H929 0.930 . S
C947 N943 1.334 . S
C947 C945 1.394 . S
C948 C944 1.413 . S
C948 C946 1.391 . S
C948 C963 1.437 . S
H949 C946 0.929 . S
O950 Gd906 2.545 . S
O950 C965 1.258 . S
O951 Gd906 2.606 . S
O951 Gd907 2.362 . S
O951 C962 1.284 . S
O952 Gd907 2.324 . S
O952 C972 1.254 . S
O953 Gd906 2.429 . S
O953 C972 1.268 . S
O954 Gd906 2.545 . S
O954 C962 1.250 . S
O955 Gd906 2.412 . S
O955 C965 1.252 . S
O956 Gd907 2.545 . S
O956 C974 1.258 . S
O957 Gd906 2.362 . S
O957 Gd907 2.606 . S
O957 C973 1.284 . S
O958 Gd906 2.324 . S
O958 C981 1.254 . S
O959 Gd907 2.429 . S
O959 C981 1.268 . S
O960 Gd907 2.545 . S
O960 C973 1.250 . S
O961 Gd907 2.412 . S
O961 C974 1.252 . S
C962 O951 1.284 . S
C962 O954 1.250 . S
C963 H932 0.929 . S
C963 C948 1.437 . S
C963 C964 1.317 . S
C964 H935 0.930 . S
C964 C940 1.431 . S
C964 C963 1.317 . S
C965 Gd906 2.828 . S
C965 O950 1.258 . S
C965 O955 1.252 . S
C965 C966 1.497 . S
C966 C965 1.497 . S
C966 C967 1.395 . S
C966 C968 1.380 . S
C967 C966 1.395 . S
C967 C970 1.398 . S
C967 H982 0.930 . S
C968 C966 1.380 . S
C968 C969 1.391 . S
C968 H983 0.930 . S
C969 C968 1.391 . S
C969 C971 1.387 . S
C970 C967 1.398 . S
C970 C971 1.380 . S
C970 H984 0.930 . S
C971 C969 1.387 . S
C971 C970 1.380 . S
C971 H985 0.930 . S
C972 O952 1.254 . S
C972 O953 1.268 . S
C973 O957 1.284 . S
C973 O960 1.250 . S
C974 Gd907 2.828 . S
C974 O956 1.258 . S
C974 O961 1.252 . S
C974 C975 1.497 . S
C975 C974 1.497 . S
C975 C976 1.395 . S
C975 C977 1.380 . S
C976 C975 1.395 . S
C976 C979 1.398 . S
C976 H986 0.930 . S
C977 C975 1.380 . S
C977 C978 1.391 . S
C977 H987 0.930 . S
C978 C977 1.391 . S
C978 C980 1.387 . S
C979 C976 1.398 . S
C979 C980 1.380 . S
C979 H988 0.930 . S
C980 C978 1.387 . S
C980 C979 1.380 . S
C980 H989 0.930 . S
C981 O958 1.254 . S
C981 O959 1.268 . S
H982 C967 0.930 . S
H983 C968 0.930 . S
H984 C970 0.930 . S
H985 C971 0.930 . S
H986 C976 0.930 . S
H987 C977 0.930 . S
H988 C979 0.930 . S
H989 C980 0.930 . S
H990 C998 0.950 . S
H991 C1003 0.950 . S
H992 C1000 0.950 . S
H993 C1002 0.950 . S
H994 C1004 0.950 . S
H995 C1006 0.950 . S
H996 C1008 0.950 . S
H997 C1009 0.950 . S
C998 H990 0.950 . S
C998 C999 1.386 . S
C998 C1000 1.391 . S
C999 C998 1.386 . S
C999 C1003 1.393 . S
C1000 H992 0.950 . S
C1000 C998 1.391 . S
C1000 C1001 1.400 . S
C1001 C1000 1.400 . S
C1001 C1002 1.398 . S
C1001 C1007 1.491 . S
C1002 H993 0.950 . S
C1002 C1001 1.398 . S
C1002 C1003 1.391 . S
C1003 H991 0.950 . S
C1003 C999 1.393 . S
C1003 C1002 1.391 . S
C1004 H994 0.950 . S
C1004 C1005 1.386 . S
C1004 C1006 1.391 . S
C1005 C1004 1.386 . S
C1005 C1009 1.393 . S
C1006 H995 0.950 . S
C1006 C1004 1.391 . S
C1006 C1007 1.400 . S
C1007 C1001 1.491 . S
C1007 C1006 1.400 . S
C1007 C1008 1.398 . S
C1008 H996 0.950 . S
C1008 C1007 1.398 . S
C1008 C1009 1.391 . S
C1009 H997 0.950 . S
C1009 C1005 1.393 . S
C1009 C1008 1.391 . S
H1010 C1018 0.950 . S
H1011 C1023 0.950 . S
H1012 C1020 0.950 . S
H1013 C1022 0.950 . S
H1014 C1024 0.950 . S
H1015 C1026 0.950 . S
H1016 C1028 0.950 . S
H1017 C1029 0.950 . S
C1018 H1010 0.950 . S
C1018 C1019 1.386 . S
C1018 C1020 1.391 . S
C1019 C1018 1.386 . S
C1019 C1023 1.393 . S
C1020 H1012 0.950 . S
C1020 C1018 1.391 . S
C1020 C1021 1.400 . S
C1021 C1020 1.400 . S
C1021 C1022 1.398 . S
C1021 C1027 1.491 . S
C1022 H1013 0.950 . S
C1022 C1021 1.398 . S
C1022 C1023 1.391 . S
C1023 H1011 0.950 . S
C1023 C1019 1.393 . S
C1023 C1022 1.391 . S
C1024 H1014 0.950 . S
C1024 C1025 1.386 . S
C1024 C1026 1.391 . S
C1025 C1024 1.386 . S
C1025 C1029 1.393 . S
C1026 H1015 0.950 . S
C1026 C1024 1.391 . S
C1026 C1027 1.400 . S
C1027 C1021 1.491 . S
C1027 C1026 1.400 . S
C1027 C1028 1.398 . S
C1028 H1016 0.950 . S
C1028 C1027 1.398 . S
C1028 C1029 1.391 . S
C1029 H1017 0.950 . S
C1029 C1025 1.393 . S
C1029 C1028 1.391 . S
H1030 C1038 0.950 . S
H1031 C1043 0.950 . S
H1032 C1040 0.950 . S
H1033 C1042 0.950 . S
H1034 C1044 0.950 . S
H1035 C1046 0.950 . S
H1036 C1048 0.950 . S
H1037 C1049 0.950 . S
C1038 H1030 0.950 . S
C1038 C1039 1.386 . S
C1038 C1040 1.391 . S
C1039 C1038 1.386 . S
C1039 C1043 1.393 . S
C1040 H1032 0.950 . S
C1040 C1038 1.391 . S
C1040 C1041 1.400 . S
C1041 C1040 1.400 . S
C1041 C1042 1.398 . S
C1041 C1047 1.491 . S
C1042 H1033 0.950 . S
C1042 C1041 1.398 . S
C1042 C1043 1.391 . S
C1043 H1031 0.950 . S
C1043 C1039 1.393 . S
C1043 C1042 1.391 . S
C1044 H1034 0.950 . S
C1044 C1045 1.386 . S
C1044 C1046 1.391 . S
C1045 C1044 1.386 . S
C1045 C1049 1.393 . S
C1046 H1035 0.950 . S
C1046 C1044 1.391 . S
C1046 C1047 1.400 . S
C1047 C1041 1.491 . S
C1047 C1046 1.400 . S
C1047 C1048 1.398 . S
C1048 H1036 0.950 . S
C1048 C1047 1.398 . S
C1048 C1049 1.391 . S
C1049 H1037 0.950 . S
C1049 C1045 1.393 . S
C1049 C1048 1.391 . S
H1050 C1058 0.950 . S
H1051 C1063 0.950 . S
H1052 C1060 0.950 . S
H1053 C1062 0.950 1_554 S
H1054 C1064 0.950 . S
H1055 C1066 0.960 . S
H1056 C1068 0.950 . S
H1057 C1069 0.950 . S
C1058 H1050 0.950 . S
C1058 C1059 1.386 . S
C1058 C1060 1.391 . S
C1059 C1058 1.386 . S
C1059 C1063 1.393 . S
C1060 H1052 0.950 . S
C1060 C1058 1.391 . S
C1060 C1061 1.400 . S
C1061 C1060 1.400 . S
C1061 C1062 1.398 . S
C1061 C1067 1.491 . S
C1062 H1053 0.950 1_556 S
C1062 C1061 1.398 . S
C1062 C1063 1.391 . S
C1063 H1051 0.950 . S
C1063 C1059 1.393 . S
C1063 C1062 1.391 . S
C1064 H1054 0.950 . S
C1064 C1065 1.386 1_554 S
C1064 C1066 1.396 . S
C1065 C1064 1.386 1_556 S
C1065 C1069 1.393 . S
C1066 H1055 0.960 . S
C1066 C1064 1.396 . S
C1066 C1067 1.386 1_554 S
C1067 C1061 1.491 . S
C1067 C1066 1.386 1_556 S
C1067 C1068 1.398 . S
C1068 H1056 0.950 . S
C1068 C1067 1.398 . S
C1068 C1069 1.391 . S
C1069 H1057 0.950 . S
C1069 C1065 1.393 . S
C1069 C1068 1.391 . S
H1070 C1078 0.950 . S
H1071 C1083 0.950 . S
H1072 C1080 0.950 . S
H1073 C1082 0.960 . S
H1074 C1084 0.950 . S
H1075 C1086 0.954 1_554 S
H1076 C1088 0.950 . S
H1077 C1089 0.950 . S
C1078 H1070 0.950 . S
C1078 C1079 1.386 . S
C1078 C1080 1.391 . S
C1079 C1078 1.386 . S
C1079 C1083 1.393 . S
C1080 H1072 0.950 . S
C1080 C1078 1.391 . S
C1080 C1081 1.400 . S
C1081 C1080 1.400 . S
C1081 C1082 1.398 . S
C1081 C1087 1.491 . S
C1082 H1073 0.960 . S
C1082 C1081 1.398 . S
C1082 C1083 1.391 . S
C1083 H1071 0.950 . S
C1083 C1079 1.393 . S
C1083 C1082 1.391 . S
C1084 H1074 0.950 . S
C1084 C1085 1.386 1_554 S
C1084 C1086 1.393 1_554 S
C1085 C1084 1.386 1_556 S
C1085 C1089 1.393 . S
C1086 H1075 0.954 1_556 S
C1086 C1084 1.393 1_556 S
C1086 C1087 1.394 . S
C1087 C1081 1.491 . S
C1087 C1086 1.394 . S
C1087 C1088 1.398 . S
C1088 H1076 0.950 . S
C1088 C1087 1.398 . S
C1088 C1089 1.391 . S
C1089 H1077 0.950 . S
C1089 C1085 1.393 . S
C1089 C1088 1.391 . S
H1090 C1098 0.950 . S
H1091 C1103 0.950 . S
H1092 C1100 0.950 . S
H1093 C1102 0.950 . S
H1094 C1104 0.950 . S
H1095 C1106 0.950 1_554 S
H1096 C1108 0.950 . S
H1097 C1109 0.950 . S
C1098 H1090 0.950 . S
C1098 C1099 1.386 . S
C1098 C1100 1.391 . S
C1099 C1098 1.386 . S
C1099 C1103 1.393 . S
C1100 H1092 0.950 . S
C1100 C1098 1.391 . S
C1100 C1101 1.400 . S
C1101 C1100 1.400 . S
C1101 C1102 1.398 . S
C1101 C1107 1.491 . S
C1102 H1093 0.950 . S
C1102 C1101 1.398 . S
C1102 C1103 1.391 . S
C1103 H1091 0.950 . S
C1103 C1099 1.393 . S
C1103 C1102 1.391 . S
C1104 H1094 0.950 . S
C1104 C1105 1.386 1_554 S
C1104 C1106 1.391 1_554 S
C1105 C1104 1.386 1_556 S
C1105 C1109 1.393 . S
C1106 H1095 0.950 1_556 S
C1106 C1104 1.391 1_556 S
C1106 C1107 1.400 . S
C1107 C1101 1.491 . S
C1107 C1106 1.400 . S
C1107 C1108 1.398 . S
C1108 H1096 0.950 . S
C1108 C1107 1.398 . S
C1108 C1109 1.391 . S
C1109 H1097 0.950 . S
C1109 C1105 1.393 . S
C1109 C1108 1.391 . S
H1110 C1118 0.950 . S
H1111 C1123 0.950 . S
H1112 C1120 0.950 . S
H1113 C1122 0.950 . S
H1114 C1124 0.950 . S
H1115 C1126 0.950 1_554 S
H1116 C1128 0.950 . S
H1117 C1129 0.950 . S
C1118 H1110 0.950 . S
C1118 C1119 1.386 . S
C1118 C1120 1.391 . S
C1119 C1118 1.386 . S
C1119 C1123 1.393 . S
C1120 H1112 0.950 . S
C1120 C1118 1.391 . S
C1120 C1121 1.400 . S
C1121 C1120 1.400 . S
C1121 C1122 1.398 . S
C1121 C1127 1.491 . S
C1122 H1113 0.950 . S
C1122 C1121 1.398 . S
C1122 C1123 1.391 . S
C1123 H1111 0.950 . S
C1123 C1119 1.393 . S
C1123 C1122 1.391 . S
C1124 H1114 0.950 . S
C1124 C1125 1.386 1_554 S
C1124 C1126 1.391 1_554 S
C1125 C1124 1.386 1_556 S
C1125 C1129 1.393 . S
C1126 H1115 0.950 1_556 S
C1126 C1124 1.391 1_556 S
C1126 C1127 1.400 . S
C1127 C1121 1.491 . S
C1127 C1126 1.400 . S
C1127 C1128 1.398 . S
C1128 H1116 0.950 . S
C1128 C1127 1.398 . S
C1128 C1129 1.391 . S
C1129 H1117 0.950 . S
C1129 C1125 1.393 . S
C1129 C1128 1.391 . S
H1130 C1138 0.950 . S
H1131 C1143 0.950 . S
H1132 C1140 0.950 1_554 S
H1133 C1142 0.950 . S
H1134 C1144 0.950 . S
H1135 C1146 0.950 . S
H1136 C1148 0.950 . S
H1137 C1149 0.950 . S
C1138 H1130 0.950 . S
C1138 C1139 1.386 . S
C1138 C1140 1.391 . S
C1139 C1138 1.386 . S
C1139 C1143 1.393 . S
C1140 H1132 0.950 1_556 S
C1140 C1138 1.391 . S
C1140 C1141 1.400 . S
C1141 C1140 1.400 . S
C1141 C1142 1.398 . S
C1141 C1147 1.491 . S
C1142 H1133 0.950 . S
C1142 C1141 1.398 . S
C1142 C1143 1.391 . S
C1143 H1131 0.950 . S
C1143 C1139 1.393 . S
C1143 C1142 1.391 . S
C1144 H1134 0.950 . S
C1144 C1145 1.386 . S
C1144 C1146 1.391 . S
C1145 C1144 1.386 . S
C1145 C1149 1.393 1_556 S
C1146 H1135 0.950 . S
C1146 C1144 1.391 . S
C1146 C1147 1.400 . S
C1147 C1141 1.491 . S
C1147 C1146 1.400 . S
C1147 C1148 1.398 1_556 S
C1148 H1136 0.950 . S
C1148 C1147 1.398 1_554 S
C1148 C1149 1.391 . S
C1149 H1137 0.950 . S
C1149 C1145 1.393 1_554 S
C1149 C1148 1.391 . S
H1150 C1158 0.950 . S
H1151 C1163 0.950 . S
H1152 C1160 0.964 . S
H1153 C1162 0.950 . S
H1154 C1164 0.950 . S
H1155 C1166 0.950 . S
H1156 C1168 0.950 . S
H1157 C1169 0.950 . S
C1158 H1150 0.950 . S
C1158 C1159 1.386 . S
C1158 C1160 1.391 . S
C1159 C1158 1.386 . S
C1159 C1163 1.393 . S
C1160 H1152 0.964 . S
C1160 C1158 1.391 . S
C1160 C1161 1.400 . S
C1161 C1160 1.400 . S
C1161 C1162 1.398 . S
C1161 C1167 1.491 . S
C1162 H1153 0.950 . S
C1162 C1161 1.398 . S
C1162 C1163 1.391 . S
C1163 H1151 0.950 . S
C1163 C1159 1.393 . S
C1163 C1162 1.391 . S
C1164 H1154 0.950 . S
C1164 C1165 1.386 . S
C1164 C1166 1.391 . S
C1165 C1164 1.386 . S
C1165 C1169 1.393 1_556 S
C1166 H1155 0.950 . S
C1166 C1164 1.391 . S
C1166 C1167 1.400 . S
C1167 C1161 1.491 . S
C1167 C1166 1.400 . S
C1167 C1168 1.398 1_556 S
C1168 H1156 0.950 . S
C1168 C1167 1.398 1_554 S
C1168 C1169 1.391 . S
C1169 H1157 0.950 . S
C1169 C1165 1.393 1_554 S
C1169 C1168 1.391 . S
H1170 C1178 0.950 . S
H1171 C1183 0.950 . S
H1172 C1180 0.950 . S
H1173 C1182 0.950 . S
H1174 C1184 0.950 . S
H1175 C1186 0.950 . S
H1176 C1188 0.950 . S
H1177 C1189 0.950 . S
C1178 H1170 0.950 . S
C1178 C1179 1.386 . S
C1178 C1180 1.391 . S
C1179 C1178 1.386 . S
C1179 C1183 1.393 . S
C1180 H1172 0.950 . S
C1180 C1178 1.391 . S
C1180 C1181 1.400 . S
C1181 C1180 1.400 . S
C1181 C1182 1.398 . S
C1181 C1187 1.491 . S
C1182 H1173 0.950 . S
C1182 C1181 1.398 . S
C1182 C1183 1.391 . S
C1183 H1171 0.950 . S
C1183 C1179 1.393 . S
C1183 C1182 1.391 . S
C1184 H1174 0.950 . S
C1184 C1185 1.386 . S
C1184 C1186 1.391 . S
C1185 C1184 1.386 . S
C1185 C1189 1.393 . S
C1186 H1175 0.950 . S
C1186 C1184 1.391 . S
C1186 C1187 1.400 . S
C1187 C1181 1.491 . S
C1187 C1186 1.400 . S
C1187 C1188 1.398 . S
C1188 H1176 0.950 . S
C1188 C1187 1.398 . S
C1188 C1189 1.391 . S
C1189 H1177 0.950 . S
C1189 C1185 1.393 . S
C1189 C1188 1.391 . S
H1190 C1198 0.950 . S
H1191 C1203 0.950 . S
H1192 C1200 0.950 . S
H1193 C1202 0.950 . S
H1194 C1204 0.950 . S
H1195 C1206 0.950 . S
H1196 C1208 0.950 . S
H1197 C1209 0.950 . S
C1198 H1190 0.950 . S
C1198 C1199 1.386 . S
C1198 C1200 1.391 . S
C1199 C1198 1.386 . S
C1199 C1203 1.393 . S
C1200 H1192 0.950 . S
C1200 C1198 1.391 . S
C1200 C1201 1.400 . S
C1201 C1200 1.400 . S
C1201 C1202 1.398 . S
C1201 C1207 1.491 . S
C1202 H1193 0.950 . S
C1202 C1201 1.398 . S
C1202 C1203 1.391 . S
C1203 H1191 0.950 . S
C1203 C1199 1.393 . S
C1203 C1202 1.391 . S
C1204 H1194 0.950 . S
C1204 C1205 1.386 . S
C1204 C1206 1.391 . S
C1205 C1204 1.386 . S
C1205 C1209 1.393 . S
C1206 H1195 0.950 . S
C1206 C1204 1.391 . S
C1206 C1207 1.400 . S
C1207 C1201 1.491 . S
C1207 C1206 1.400 . S
C1207 C1208 1.398 . S
C1208 H1196 0.950 . S
C1208 C1207 1.398 . S
C1208 C1209 1.391 . S
C1209 H1197 0.950 . S
C1209 C1205 1.393 . S
C1209 C1208 1.391 . S
H1210 C1218 0.950 . S
H1211 C1223 0.950 . S
H1212 C1220 0.950 . S
H1213 C1222 0.950 . S
H1214 C1224 0.950 . S
H1215 C1226 0.950 . S
H1216 C1228 0.950 . S
H1217 C1229 0.950 . S
C1218 H1210 0.950 . S
C1218 C1219 1.386 . S
C1218 C1220 1.391 . S
C1219 C1218 1.386 . S
C1219 C1223 1.393 . S
C1220 H1212 0.950 . S
C1220 C1218 1.391 . S
C1220 C1221 1.400 . S
C1221 C1220 1.400 . S
C1221 C1222 1.398 . S
C1221 C1227 1.491 . S
C1222 H1213 0.950 . S
C1222 C1221 1.398 . S
C1222 C1223 1.391 . S
C1223 H1211 0.950 . S
C1223 C1219 1.393 . S
C1223 C1222 1.391 . S
C1224 H1214 0.950 . S
C1224 C1225 1.386 . S
C1224 C1226 1.391 . S
C1225 C1224 1.386 . S
C1225 C1229 1.393 . S
C1226 H1215 0.950 . S
C1226 C1224 1.391 . S
C1226 C1227 1.400 . S
C1227 C1221 1.491 . S
C1227 C1226 1.400 . S
C1227 C1228 1.398 . S
C1228 H1216 0.950 . S
C1228 C1227 1.398 . S
C1228 C1229 1.391 . S
C1229 H1217 0.950 . S
C1229 C1225 1.393 . S
C1229 C1228 1.391 . S
H1230 C1238 0.950 . S
H1231 C1243 0.950 . S
H1232 C1240 0.950 1_455 S
H1233 C1242 0.950 . S
H1234 C1244 0.950 . S
H1235 C1246 0.950 . S
H1236 C1248 0.950 . S
H1237 C1249 0.950 . S
C1238 H1230 0.950 . S
C1238 C1239 1.386 . S
C1238 C1240 1.391 . S
C1239 C1238 1.386 . S
C1239 C1243 1.393 . S
C1240 H1232 0.950 1_655 S
C1240 C1238 1.391 . S
C1240 C1241 1.400 . S
C1241 C1240 1.400 . S
C1241 C1242 1.398 . S
C1241 C1247 1.491 1_655 S
C1242 H1233 0.950 . S
C1242 C1241 1.398 . S
C1242 C1243 1.391 . S
C1243 H1231 0.950 . S
C1243 C1239 1.393 . S
C1243 C1242 1.391 . S
C1244 H1234 0.950 . S
C1244 C1245 1.386 . S
C1244 C1246 1.391 . S
C1245 C1244 1.386 . S
C1245 C1249 1.393 . S
C1246 H1235 0.950 . S
C1246 C1244 1.391 . S
C1246 C1247 1.400 . S
C1247 C1241 1.491 1_455 S
C1247 C1246 1.400 . S
C1247 C1248 1.398 . S
C1248 H1236 0.950 . S
C1248 C1247 1.398 . S
C1248 C1249 1.391 . S
C1249 H1237 0.950 . S
C1249 C1245 1.393 . S
C1249 C1248 1.391 . S
H1250 C1258 0.950 . S
H1251 C1263 0.950 . S
H1252 C1260 0.950 . S
H1253 C1262 0.950 . S
H1254 C1264 0.950 . S
H1255 C1266 0.950 . S
H1256 C1268 0.950 . S
H1257 C1269 0.950 . S
C1258 H1250 0.950 . S
C1258 C1259 1.386 . S
C1258 C1260 1.391 . S
C1259 C1258 1.386 . S
C1259 C1263 1.393 . S
C1260 H1252 0.950 . S
C1260 C1258 1.391 . S
C1260 C1261 1.400 . S
C1261 C1260 1.400 . S
C1261 C1262 1.398 . S
C1261 C1267 1.491 . S
C1262 H1253 0.950 . S
C1262 C1261 1.398 . S
C1262 C1263 1.391 . S
C1263 H1251 0.950 . S
C1263 C1259 1.393 . S
C1263 C1262 1.391 . S
C1264 H1254 0.950 . S
C1264 C1265 1.386 . S
C1264 C1266 1.391 . S
C1265 C1264 1.386 . S
C1265 C1269 1.393 . S
C1266 H1255 0.950 . S
C1266 C1264 1.391 . S
C1266 C1267 1.400 . S
C1267 C1261 1.491 . S
C1267 C1266 1.400 . S
C1267 C1268 1.398 . S
C1268 H1256 0.950 . S
C1268 C1267 1.398 . S
C1268 C1269 1.391 . S
C1269 H1257 0.950 . S
C1269 C1265 1.393 . S
C1269 C1268 1.391 . S
H1270 C1278 0.950 . S
H1271 C1283 0.950 . S
H1272 C1280 0.950 . S
H1273 C1282 0.950 . S
H1274 C1284 0.950 . S
H1275 C1286 0.950 1_545 S
H1276 C1288 0.950 . S
H1277 C1289 0.950 . S
C1278 H1270 0.950 . S
C1278 C1279 1.386 . S
C1278 C1280 1.391 . S
C1279 C1278 1.386 . S
C1279 C1283 1.393 . S
C1280 H1272 0.950 . S
C1280 C1278 1.391 . S
C1280 C1281 1.400 . S
C1281 C1280 1.400 . S
C1281 C1282 1.398 . S
C1281 C1287 1.491 1_545 S
C1282 H1273 0.950 . S
C1282 C1281 1.398 . S
C1282 C1283 1.391 . S
C1283 H1271 0.950 . S
C1283 C1279 1.393 . S
C1283 C1282 1.391 . S
C1284 H1274 0.950 . S
C1284 C1285 1.386 . S
C1284 C1286 1.391 . S
C1285 C1284 1.386 . S
C1285 C1289 1.393 . S
C1286 H1275 0.950 1_565 S
C1286 C1284 1.391 . S
C1286 C1287 1.400 . S
C1287 C1281 1.491 1_565 S
C1287 C1286 1.400 . S
C1287 C1288 1.398 . S
C1288 H1276 0.950 . S
C1288 C1287 1.398 . S
C1288 C1289 1.391 . S
C1289 H1277 0.950 . S
C1289 C1285 1.393 . S
C1289 C1288 1.391 . S
H1290 C1298 0.950 . S
H1291 C1303 0.950 . S
H1292 C1300 0.950 . S
H1293 C1302 0.950 . S
H1294 C1304 0.950 . S
H1295 C1306 0.950 . S
H1296 C1308 0.950 . S
H1297 C1309 0.950 . S
C1298 H1290 0.950 . S
C1298 C1299 1.386 . S
C1298 C1300 1.391 . S
C1299 C1298 1.386 . S
C1299 C1303 1.393 . S
C1300 H1292 0.950 . S
C1300 C1298 1.391 . S
C1300 C1301 1.400 . S
C1301 C1300 1.400 . S
C1301 C1302 1.398 . S
C1301 C1307 1.491 . S
C1302 H1293 0.950 . S
C1302 C1301 1.398 . S
C1302 C1303 1.391 . S
C1303 H1291 0.950 . S
C1303 C1299 1.393 . S
C1303 C1302 1.391 . S
C1304 H1294 0.950 . S
C1304 C1305 1.386 . S
C1304 C1306 1.391 . S
C1305 C1304 1.386 . S
C1305 C1309 1.393 . S
C1306 H1295 0.950 . S
C1306 C1304 1.391 . S
C1306 C1307 1.400 . S
C1307 C1301 1.491 . S
C1307 C1306 1.400 . S
C1307 C1308 1.398 . S
C1308 H1296 0.950 . S
C1308 C1307 1.398 . S
C1308 C1309 1.391 . S
C1309 H1297 0.950 . S
C1309 C1305 1.393 . S
C1309 C1308 1.391 . S
H1310 C1318 0.950 . S
H1311 C1323 0.950 . S
H1312 C1320 0.950 . S
H1313 C1322 0.950 . S
H1314 C1324 0.950 . S
H1315 C1326 0.950 . S
H1316 C1328 0.950 . S
H1317 C1329 0.950 . S
C1318 H1310 0.950 . S
C1318 C1319 1.386 . S
C1318 C1320 1.391 . S
C1319 C1318 1.386 . S
C1319 C1323 1.393 . S
C1320 H1312 0.950 . S
C1320 C1318 1.391 . S
C1320 C1321 1.400 . S
C1321 C1320 1.400 . S
C1321 C1322 1.398 . S
C1321 C1327 1.491 . S
C1322 H1313 0.950 . S
C1322 C1321 1.398 . S
C1322 C1323 1.391 . S
C1323 H1311 0.950 . S
C1323 C1319 1.393 . S
C1323 C1322 1.391 . S
C1324 H1314 0.950 . S
C1324 C1325 1.386 . S
C1324 C1326 1.391 . S
C1325 C1324 1.386 . S
C1325 C1329 1.393 . S
C1326 H1315 0.950 . S
C1326 C1324 1.391 . S
C1326 C1327 1.400 . S
C1327 C1321 1.491 . S
C1327 C1326 1.400 . S
C1327 C1328 1.398 . S
C1328 H1316 0.950 . S
C1328 C1327 1.398 . S
C1328 C1329 1.391 . S
C1329 H1317 0.950 . S
C1329 C1325 1.393 . S
C1329 C1328 1.391 . S
H1330 C1338 0.950 . S
H1331 C1343 0.950 . S
H1332 C1340 0.950 . S
H1333 C1342 0.950 . S
H1334 C1344 0.950 . S
H1335 C1346 0.950 . S
H1336 C1348 0.950 . S
H1337 C1349 0.950 . S
C1338 H1330 0.950 . S
C1338 C1339 1.386 . S
C1338 C1340 1.391 . S
C1339 C1338 1.386 . S
C1339 C1343 1.393 . S
C1340 H1332 0.950 . S
C1340 C1338 1.391 . S
C1340 C1341 1.400 . S
C1341 C1340 1.400 . S
C1341 C1342 1.398 . S
C1341 C1347 1.491 . S
C1342 H1333 0.950 . S
C1342 C1341 1.398 . S
C1342 C1343 1.391 . S
C1343 H1331 0.950 . S
C1343 C1339 1.393 . S
C1343 C1342 1.391 . S
C1344 H1334 0.950 . S
C1344 C1345 1.386 . S
C1344 C1346 1.391 . S
C1345 C1344 1.386 . S
C1345 C1349 1.393 . S
C1346 H1335 0.950 . S
C1346 C1344 1.391 . S
C1346 C1347 1.400 . S
C1347 C1341 1.491 . S
C1347 C1346 1.400 . S
C1347 C1348 1.398 . S
C1348 H1336 0.950 . S
C1348 C1347 1.398 . S
C1348 C1349 1.391 . S
C1349 H1337 0.950 . S
C1349 C1345 1.393 . S
C1349 C1348 1.391 . S
H1350 C1358 0.950 . S
H1351 C1363 0.950 . S
H1352 C1360 0.950 . S
H1353 C1362 0.950 . S
H1354 C1364 0.950 . S
H1355 C1366 0.950 . S
H1356 C1368 0.950 . S
H1357 C1369 0.950 . S
C1358 H1350 0.950 . S
C1358 C1359 1.386 . S
C1358 C1360 1.391 . S
C1359 C1358 1.386 . S
C1359 C1363 1.393 . S
C1360 H1352 0.950 . S
C1360 C1358 1.391 . S
C1360 C1361 1.400 . S
C1361 C1360 1.400 . S
C1361 C1362 1.398 . S
C1361 C1367 1.491 . S
C1362 H1353 0.950 . S
C1362 C1361 1.398 . S
C1362 C1363 1.391 . S
C1363 H1351 0.950 . S
C1363 C1359 1.393 . S
C1363 C1362 1.391 . S
C1364 H1354 0.950 . S
C1364 C1365 1.386 . S
C1364 C1366 1.391 . S
C1365 C1364 1.386 . S
C1365 C1369 1.393 . S
C1366 H1355 0.950 . S
C1366 C1364 1.391 . S
C1366 C1367 1.400 . S
C1367 C1361 1.491 . S
C1367 C1366 1.400 . S
C1367 C1368 1.398 . S
C1368 H1356 0.950 . S
C1368 C1367 1.398 . S
C1368 C1369 1.391 . S
C1369 H1357 0.950 . S
C1369 C1365 1.393 . S
C1369 C1368 1.391 . S
H1370 C1378 0.950 . S
H1371 C1383 0.950 . S
H1372 C1380 0.950 . S
H1373 C1382 0.950 . S
H1374 C1384 0.950 . S
H1375 C1386 0.950 . S
H1376 C1388 0.950 . S
H1377 C1389 0.950 . S
C1378 H1370 0.950 . S
C1378 C1379 1.386 . S
C1378 C1380 1.391 . S
C1379 C1378 1.386 . S
C1379 C1383 1.393 . S
C1380 H1372 0.950 . S
C1380 C1378 1.391 . S
C1380 C1381 1.400 . S
C1381 C1380 1.400 . S
C1381 C1382 1.398 . S
C1381 C1387 1.491 . S
C1382 H1373 0.950 . S
C1382 C1381 1.398 . S
C1382 C1383 1.391 . S
C1383 H1371 0.950 . S
C1383 C1379 1.393 . S
C1383 C1382 1.391 . S
C1384 H1374 0.950 . S
C1384 C1385 1.386 . S
C1384 C1386 1.391 . S
C1385 C1384 1.386 . S
C1385 C1389 1.393 . S
C1386 H1375 0.950 . S
C1386 C1384 1.391 . S
C1386 C1387 1.400 . S
C1387 C1381 1.491 . S
C1387 C1386 1.400 . S
C1387 C1388 1.398 . S
C1388 H1376 0.950 . S
C1388 C1387 1.398 . S
C1388 C1389 1.391 . S
C1389 H1377 0.950 . S
C1389 C1385 1.393 . S
C1389 C1388 1.391 . S
H1390 C1398 0.950 . S
H1391 C1403 0.950 . S
H1392 C1400 0.950 . S
H1393 C1402 0.950 . S
H1394 C1404 0.950 . S
H1395 C1406 0.950 . S
H1396 C1408 0.950 . S
H1397 C1409 0.950 . S
C1398 H1390 0.950 . S
C1398 C1399 1.386 . S
C1398 C1400 1.391 . S
C1399 C1398 1.386 . S
C1399 C1403 1.393 . S
C1400 H1392 0.950 . S
C1400 C1398 1.391 . S
C1400 C1401 1.400 . S
C1401 C1400 1.400 . S
C1401 C1402 1.398 . S
C1401 C1407 1.491 . S
C1402 H1393 0.950 . S
C1402 C1401 1.398 . S
C1402 C1403 1.391 . S
C1403 H1391 0.950 . S
C1403 C1399 1.393 . S
C1403 C1402 1.391 . S
C1404 H1394 0.950 . S
C1404 C1405 1.386 . S
C1404 C1406 1.391 . S
C1405 C1404 1.386 . S
C1405 C1409 1.393 . S
C1406 H1395 0.950 . S
C1406 C1404 1.391 . S
C1406 C1407 1.400 . S
C1407 C1401 1.491 . S
C1407 C1406 1.400 . S
C1407 C1408 1.398 . S
C1408 H1396 0.950 . S
C1408 C1407 1.398 . S
C1408 C1409 1.391 . S
C1409 H1397 0.950 . S
C1409 C1405 1.393 . S
C1409 C1408 1.391 . S
H1410 C1418 0.947 . S
H1411 C1423 0.950 . S
H1412 C1420 0.950 . S
H1413 C1422 0.950 . S
H1414 C1424 0.950 . S
H1415 C1426 0.950 . S
H1416 C1428 0.950 . S
H1417 C1429 0.950 . S
C1418 H1410 0.947 . S
C1418 C1419 1.400 . S
C1418 C1420 1.380 1_545 S
C1419 C1418 1.400 . S
C1419 C1423 1.393 . S
C1420 H1412 0.950 . S
C1420 C1418 1.380 1_565 S
C1420 C1421 1.400 . S
C1421 C1420 1.400 . S
C1421 C1422 1.398 . S
C1421 C1427 1.491 . S
C1422 H1413 0.950 . S
C1422 C1421 1.398 . S
C1422 C1423 1.391 1_565 S
C1423 H1411 0.950 . S
C1423 C1419 1.393 . S
C1423 C1422 1.391 1_545 S
C1424 H1414 0.950 . S
C1424 C1425 1.386 . S
C1424 C1426 1.391 . S
C1425 C1424 1.386 . S
C1425 C1429 1.393 . S
C1426 H1415 0.950 . S
C1426 C1424 1.391 . S
C1426 C1427 1.400 . S
C1427 C1421 1.491 . S
C1427 C1426 1.400 . S
C1427 C1428 1.398 . S
C1428 H1416 0.950 . S
C1428 C1427 1.398 . S
C1428 C1429 1.391 . S
C1429 H1417 0.950 . S
C1429 C1425 1.393 . S
C1429 C1428 1.391 . S
H1430 C1438 0.950 . S
H1431 C1443 0.950 1_655 S
H1432 C1440 0.950 . S
H1433 C1442 0.950 . S
H1434 C1444 0.950 . S
H1435 C1446 0.950 . S
H1436 C1448 0.950 . S
H1437 C1449 0.950 . S
C1438 H1430 0.950 . S
C1438 C1439 1.386 1_455 S
C1438 C1440 1.391 . S
C1439 C1438 1.386 1_655 S
C1439 C1443 1.393 1_655 S
C1440 H1432 0.950 . S
C1440 C1438 1.391 . S
C1440 C1441 1.400 . S
C1441 C1440 1.400 . S
C1441 C1442 1.398 . S
C1441 C1447 1.491 . S
C1442 H1433 0.950 . S
C1442 C1441 1.398 . S
C1442 C1443 1.391 . S
C1443 H1431 0.950 1_455 S
C1443 C1439 1.393 1_455 S
C1443 C1442 1.391 . S
C1444 H1434 0.950 . S
C1444 C1445 1.386 . S
C1444 C1446 1.391 . S
C1445 C1444 1.386 . S
C1445 C1449 1.393 . S
C1446 H1435 0.950 . S
C1446 C1444 1.391 . S
C1446 C1447 1.400 . S
C1447 C1441 1.491 . S
C1447 C1446 1.400 . S
C1447 C1448 1.398 . S
C1448 H1436 0.950 . S
C1448 C1447 1.398 . S
C1448 C1449 1.391 . S
C1449 H1437 0.950 . S
C1449 C1445 1.393 . S
C1449 C1448 1.391 . S
H1450 C1458 0.950 . S
H1451 C1463 0.950 . S
H1452 C1460 0.950 . S
H1453 C1462 0.950 . S
H1454 C1464 0.950 . S
H1455 C1466 0.950 . S
H1456 C1468 0.950 . S
H1457 C1469 0.950 . S
C1458 H1450 0.950 . S
C1458 C1459 1.386 . S
C1458 C1460 1.391 . S
C1459 C1458 1.386 . S
C1459 C1463 1.393 . S
C1460 H1452 0.950 . S
C1460 C1458 1.391 . S
C1460 C1461 1.400 . S
C1461 C1460 1.400 . S
C1461 C1462 1.398 . S
C1461 C1467 1.491 . S
C1462 H1453 0.950 . S
C1462 C1461 1.398 . S
C1462 C1463 1.391 . S
C1463 H1451 0.950 . S
C1463 C1459 1.393 . S
C1463 C1462 1.391 . S
C1464 H1454 0.950 . S
C1464 C1465 1.386 . S
C1464 C1466 1.391 . S
C1465 C1464 1.386 . S
C1465 C1469 1.393 . S
C1466 H1455 0.950 . S
C1466 C1464 1.391 . S
C1466 C1467 1.400 . S
C1467 C1461 1.491 . S
C1467 C1466 1.400 . S
C1467 C1468 1.398 . S
C1468 H1456 0.950 . S
C1468 C1467 1.398 . S
C1468 C1469 1.391 . S
C1469 H1457 0.950 . S
C1469 C1465 1.393 . S
C1469 C1468 1.391 . S
H1470 C1478 0.950 . S
H1471 C1483 0.950 . S
H1472 C1480 0.950 . S
H1473 C1482 0.950 . S
H1474 C1484 0.950 . S
H1475 C1486 0.950 . S
H1476 C1488 0.950 . S
H1477 C1489 0.950 . S
C1478 H1470 0.950 . S
C1478 C1479 1.386 . S
C1478 C1480 1.391 . S
C1479 C1478 1.386 . S
C1479 C1483 1.393 . S
C1480 H1472 0.950 . S
C1480 C1478 1.391 . S
C1480 C1481 1.400 . S
C1481 C1480 1.400 . S
C1481 C1482 1.398 . S
C1481 C1487 1.491 . S
C1482 H1473 0.950 . S
C1482 C1481 1.398 . S
C1482 C1483 1.391 . S
C1483 H1471 0.950 . S
C1483 C1479 1.393 . S
C1483 C1482 1.391 . S
C1484 H1474 0.950 . S
C1484 C1485 1.386 . S
C1484 C1486 1.391 . S
C1485 C1484 1.386 . S
C1485 C1489 1.393 . S
C1486 H1475 0.950 . S
C1486 C1484 1.391 . S
C1486 C1487 1.400 . S
C1487 C1481 1.491 . S
C1487 C1486 1.400 . S
C1487 C1488 1.398 . S
C1488 H1476 0.950 . S
C1488 C1487 1.398 . S
C1488 C1489 1.391 . S
C1489 H1477 0.950 . S
C1489 C1485 1.393 . S
C1489 C1488 1.391 . S
H1490 C1498 0.950 . S
H1491 C1503 0.950 . S
H1492 C1500 0.950 . S
H1493 C1502 0.950 . S
H1494 C1504 0.950 . S
H1495 C1506 0.950 . S
H1496 C1508 0.950 . S
H1497 C1509 0.950 . S
C1498 H1490 0.950 . S
C1498 C1499 1.386 . S
C1498 C1500 1.391 . S
C1499 C1498 1.386 . S
C1499 C1503 1.393 . S
C1500 H1492 0.950 . S
C1500 C1498 1.391 . S
C1500 C1501 1.400 . S
C1501 C1500 1.400 . S
C1501 C1502 1.398 . S
C1501 C1507 1.491 . S
C1502 H1493 0.950 . S
C1502 C1501 1.398 . S
C1502 C1503 1.391 . S
C1503 H1491 0.950 . S
C1503 C1499 1.393 . S
C1503 C1502 1.391 . S
C1504 H1494 0.950 . S
C1504 C1505 1.386 . S
C1504 C1506 1.391 . S
C1505 C1504 1.386 . S
C1505 C1509 1.393 . S
C1506 H1495 0.950 . S
C1506 C1504 1.391 . S
C1506 C1507 1.400 . S
C1507 C1501 1.491 . S
C1507 C1506 1.400 . S
C1507 C1508 1.398 . S
C1508 H1496 0.950 . S
C1508 C1507 1.398 . S
C1508 C1509 1.391 . S
C1509 H1497 0.950 . S
C1509 C1505 1.393 . S
C1509 C1508 1.391 . S
H1510 C1518 0.950 . S
H1511 C1523 0.950 . S
H1512 C1520 0.950 . S
H1513 C1522 0.950 . S
H1514 C1524 0.950 . S
H1515 C1526 0.950 . S
H1516 C1528 0.950 . S
H1517 C1529 0.950 . S
C1518 H1510 0.950 . S
C1518 C1519 1.386 . S
C1518 C1520 1.391 . S
C1519 C1518 1.386 . S
C1519 C1523 1.393 . S
C1520 H1512 0.950 . S
C1520 C1518 1.391 . S
C1520 C1521 1.400 . S
C1521 C1520 1.400 . S
C1521 C1522 1.398 . S
C1521 C1527 1.491 . S
C1522 H1513 0.950 . S
C1522 C1521 1.398 . S
C1522 C1523 1.391 . S
C1523 H1511 0.950 . S
C1523 C1519 1.393 . S
C1523 C1522 1.391 . S
C1524 H1514 0.950 . S
C1524 C1525 1.386 . S
C1524 C1526 1.391 . S
C1525 C1524 1.386 . S
C1525 C1529 1.393 . S
C1526 H1515 0.950 . S
C1526 C1524 1.391 . S
C1526 C1527 1.400 . S
C1527 C1521 1.491 . S
C1527 C1526 1.400 . S
C1527 C1528 1.398 . S
C1528 H1516 0.950 . S
C1528 C1527 1.398 . S
C1528 C1529 1.391 . S
C1529 H1517 0.950 . S
C1529 C1525 1.393 . S
C1529 C1528 1.391 . S
H1530 C1538 0.950 . S
H1531 C1543 0.950 . S
H1532 C1540 0.950 . S
H1533 C1542 0.961 . S
H1534 C1544 0.950 . S
H1535 C1546 0.950 . S
H1536 C1548 0.950 . S
H1537 C1549 0.950 . S
C1538 H1530 0.950 . S
C1538 C1539 1.386 . S
C1538 C1540 1.391 . S
C1539 C1538 1.386 . S
C1539 C1543 1.393 . S
C1540 H1532 0.950 . S
C1540 C1538 1.391 . S
C1540 C1541 1.400 . S
C1541 C1540 1.400 . S
C1541 C1542 1.398 . S
C1541 C1547 1.491 1_565 S
C1542 H1533 0.961 . S
C1542 C1541 1.398 . S
C1542 C1543 1.391 . S
C1543 H1531 0.950 . S
C1543 C1539 1.393 . S
C1543 C1542 1.391 . S
C1544 H1534 0.950 . S
C1544 C1545 1.386 . S
C1544 C1546 1.391 . S
C1545 C1544 1.386 . S
C1545 C1549 1.393 . S
C1546 H1535 0.950 . S
C1546 C1544 1.391 . S
C1546 C1547 1.400 . S
C1547 C1541 1.491 1_545 S
C1547 C1546 1.400 . S
C1547 C1548 1.398 . S
C1548 H1536 0.950 . S
C1548 C1547 1.398 . S
C1548 C1549 1.391 . S
C1549 H1537 0.950 . S
C1549 C1545 1.393 . S
C1549 C1548 1.391 . S
H1550 C1558 0.950 . S
H1551 C1563 0.950 . S
H1552 C1560 0.948 . S
H1553 C1562 0.950 . S
H1554 C1564 0.950 . S
H1555 C1566 0.950 . S
H1556 C1568 0.950 . S
H1557 C1569 0.950 . S
C1558 H1550 0.950 . S
C1558 C1559 1.386 . S
C1558 C1560 1.391 . S
C1559 C1558 1.386 . S
C1559 C1563 1.393 . S
C1560 H1552 0.948 . S
C1560 C1558 1.391 . S
C1560 C1561 1.400 . S
C1561 C1560 1.400 . S
C1561 C1562 1.398 . S
C1561 C1567 1.491 1_455 S
C1562 H1553 0.950 . S
C1562 C1561 1.398 . S
C1562 C1563 1.391 . S
C1563 H1551 0.950 . S
C1563 C1559 1.393 . S
C1563 C1562 1.391 . S
C1564 H1554 0.950 . S
C1564 C1565 1.386 . S
C1564 C1566 1.391 . S
C1565 C1564 1.386 . S
C1565 C1569 1.393 . S
C1566 H1555 0.950 . S
C1566 C1564 1.391 . S
C1566 C1567 1.400 . S
C1567 C1561 1.491 1_655 S
C1567 C1566 1.400 . S
C1567 C1568 1.398 . S
C1568 H1556 0.950 . S
C1568 C1567 1.398 . S
C1568 C1569 1.391 . S
C1569 H1557 0.950 . S
C1569 C1565 1.393 . S
C1569 C1568 1.391 . S
H1570 C1578 0.950 . S
H1571 C1583 0.950 . S
H1572 C1580 0.950 . S
H1573 C1582 0.950 . S
H1574 C1584 0.950 . S
H1575 C1586 0.950 . S
H1576 C1588 0.950 . S
H1577 C1589 0.950 . S
C1578 H1570 0.950 . S
C1578 C1579 1.386 . S
C1578 C1580 1.391 . S
C1579 C1578 1.386 . S
C1579 C1583 1.393 . S
C1580 H1572 0.950 . S
C1580 C1578 1.391 . S
C1580 C1581 1.400 . S
C1581 C1580 1.400 . S
C1581 C1582 1.398 . S
C1581 C1587 1.491 . S
C1582 H1573 0.950 . S
C1582 C1581 1.398 . S
C1582 C1583 1.391 . S
C1583 H1571 0.950 . S
C1583 C1579 1.393 . S
C1583 C1582 1.391 . S
C1584 H1574 0.950 . S
C1584 C1585 1.386 . S
C1584 C1586 1.391 . S
C1585 C1584 1.386 . S
C1585 C1589 1.393 . S
C1586 H1575 0.950 . S
C1586 C1584 1.391 . S
C1586 C1587 1.400 . S
C1587 C1581 1.491 . S
C1587 C1586 1.400 . S
C1587 C1588 1.398 . S
C1588 H1576 0.950 . S
C1588 C1587 1.398 . S
C1588 C1589 1.391 . S
C1589 H1577 0.950 . S
C1589 C1585 1.393 . S
C1589 C1588 1.391 . S
H1590 C1598 0.950 . S
H1591 C1603 0.950 . S
H1592 C1600 0.950 . S
H1593 C1602 0.950 . S
H1594 C1604 0.950 . S
H1595 C1606 0.950 . S
H1596 C1608 0.950 . S
H1597 C1609 0.950 . S
C1598 H1590 0.950 . S
C1598 C1599 1.386 . S
C1598 C1600 1.391 1_455 S
C1599 C1598 1.386 . S
C1599 C1603 1.393 1_455 S
C1600 H1592 0.950 . S
C1600 C1598 1.391 1_655 S
C1600 C1601 1.400 . S
C1601 C1600 1.400 . S
C1601 C1602 1.398 . S
C1601 C1607 1.491 . S
C1602 H1593 0.950 . S
C1602 C1601 1.398 . S
C1602 C1603 1.391 . S
C1603 H1591 0.950 . S
C1603 C1599 1.393 1_655 S
C1603 C1602 1.391 . S
C1604 H1594 0.950 . S
C1604 C1605 1.386 . S
C1604 C1606 1.391 . S
C1605 C1604 1.386 . S
C1605 C1609 1.393 . S
C1606 H1595 0.950 . S
C1606 C1604 1.391 . S
C1606 C1607 1.400 . S
C1607 C1601 1.491 . S
C1607 C1606 1.400 . S
C1607 C1608 1.398 . S
C1608 H1596 0.950 . S
C1608 C1607 1.398 . S
C1608 C1609 1.391 . S
C1609 H1597 0.950 . S
C1609 C1605 1.393 . S
C1609 C1608 1.391 . S
H1610 C1618 0.950 . S
H1611 C1623 0.950 . S
H1612 C1620 0.950 . S
H1613 C1622 0.950 . S
H1614 C1624 0.950 . S
H1615 C1626 0.950 . S
H1616 C1628 0.950 . S
H1617 C1629 0.950 . S
C1618 H1610 0.950 . S
C1618 C1619 1.386 . S
C1618 C1620 1.391 . S
C1619 C1618 1.386 . S
C1619 C1623 1.393 . S
C1620 H1612 0.950 . S
C1620 C1618 1.391 . S
C1620 C1621 1.400 . S
C1621 C1620 1.400 . S
C1621 C1622 1.398 . S
C1621 C1627 1.491 . S
C1622 H1613 0.950 . S
C1622 C1621 1.398 . S
C1622 C1623 1.391 . S
C1623 H1611 0.950 . S
C1623 C1619 1.393 . S
C1623 C1622 1.391 . S
C1624 H1614 0.950 . S
C1624 C1625 1.386 . S
C1624 C1626 1.391 . S
C1625 C1624 1.386 . S
C1625 C1629 1.393 . S
C1626 H1615 0.950 . S
C1626 C1624 1.391 . S
C1626 C1627 1.400 . S
C1627 C1621 1.491 . S
C1627 C1626 1.400 . S
C1627 C1628 1.398 . S
C1628 H1616 0.950 . S
C1628 C1627 1.398 . S
C1628 C1629 1.391 . S
C1629 H1617 0.950 . S
C1629 C1625 1.393 . S
C1629 C1628 1.391 . S
H1630 C1638 0.950 . S
H1631 C1643 0.950 . S
H1632 C1640 0.950 . S
H1633 C1642 0.950 . S
H1634 C1644 0.950 . S
H1635 C1646 0.950 . S
H1636 C1648 0.950 . S
H1637 C1649 0.950 . S
C1638 H1630 0.950 . S
C1638 C1639 1.386 . S
C1638 C1640 1.391 1_565 S
C1639 C1638 1.386 . S
C1639 C1643 1.393 1_565 S
C1640 H1632 0.950 . S
C1640 C1638 1.391 1_545 S
C1640 C1641 1.400 . S
C1641 C1640 1.400 . S
C1641 C1642 1.398 . S
C1641 C1647 1.491 . S
C1642 H1633 0.950 . S
C1642 C1641 1.398 . S
C1642 C1643 1.391 . S
C1643 H1631 0.950 . S
C1643 C1639 1.393 1_545 S
C1643 C1642 1.391 . S
C1644 H1634 0.950 . S
C1644 C1645 1.386 . S
C1644 C1646 1.391 . S
C1645 C1644 1.386 . S
C1645 C1649 1.393 . S
C1646 H1635 0.950 . S
C1646 C1644 1.391 . S
C1646 C1647 1.400 . S
C1647 C1641 1.491 . S
C1647 C1646 1.400 . S
C1647 C1648 1.398 . S
C1648 H1636 0.950 . S
C1648 C1647 1.398 . S
C1648 C1649 1.391 . S
C1649 H1637 0.950 . S
C1649 C1645 1.393 . S
C1649 C1648 1.391 . S
H1650 C1658 0.950 . S
H1651 C1663 0.950 . S
H1652 C1660 0.950 . S
H1653 C1662 0.950 . S
H1654 C1664 0.950 . S
H1655 C1666 0.950 . S
H1656 C1668 0.950 . S
H1657 C1669 0.950 . S
C1658 H1650 0.950 . S
C1658 C1659 1.386 . S
C1658 C1660 1.391 . S
C1659 C1658 1.386 . S
C1659 C1663 1.393 . S
C1660 H1652 0.950 . S
C1660 C1658 1.391 . S
C1660 C1661 1.400 . S
C1661 C1660 1.400 . S
C1661 C1662 1.398 . S
C1661 C1667 1.491 . S
C1662 H1653 0.950 . S
C1662 C1661 1.398 . S
C1662 C1663 1.391 . S
C1663 H1651 0.950 . S
C1663 C1659 1.393 . S
C1663 C1662 1.391 . S
C1664 H1654 0.950 . S
C1664 C1665 1.386 . S
C1664 C1666 1.391 . S
C1665 C1664 1.386 . S
C1665 C1669 1.393 . S
C1666 H1655 0.950 . S
C1666 C1664 1.391 . S
C1666 C1667 1.400 . S
C1667 C1661 1.491 . S
C1667 C1666 1.400 . S
C1667 C1668 1.398 . S
C1668 H1656 0.950 . S
C1668 C1667 1.398 . S
C1668 C1669 1.391 . S
C1669 H1657 0.950 . S
C1669 C1665 1.393 . S
C1669 C1668 1.391 . S
H1670 C1678 0.950 . S
H1671 C1683 0.950 . S
H1672 C1680 0.950 . S
H1673 C1682 0.950 . S
H1674 C1684 0.950 . S
H1675 C1686 0.950 . S
H1676 C1688 0.950 . S
H1677 C1689 0.950 . S
C1678 H1670 0.950 . S
C1678 C1679 1.386 . S
C1678 C1680 1.391 . S
C1679 C1678 1.386 . S
C1679 C1683 1.393 . S
C1680 H1672 0.950 . S
C1680 C1678 1.391 . S
C1680 C1681 1.400 . S
C1681 C1680 1.400 . S
C1681 C1682 1.398 . S
C1681 C1687 1.491 . S
C1682 H1673 0.950 . S
C1682 C1681 1.398 . S
C1682 C1683 1.391 . S
C1683 H1671 0.950 . S
C1683 C1679 1.393 . S
C1683 C1682 1.391 . S
C1684 H1674 0.950 . S
C1684 C1685 1.386 . S
C1684 C1686 1.391 . S
C1685 C1684 1.386 . S
C1685 C1689 1.393 . S
C1686 H1675 0.950 . S
C1686 C1684 1.391 . S
C1686 C1687 1.400 . S
C1687 C1681 1.491 . S
C1687 C1686 1.400 . S
C1687 C1688 1.398 . S
C1688 H1676 0.950 . S
C1688 C1687 1.398 . S
C1688 C1689 1.391 . S
C1689 H1677 0.950 . S
C1689 C1685 1.393 . S
C1689 C1688 1.391 . S
H1690 C1698 0.950 . S
H1691 C1703 0.950 . S
H1692 C1700 0.950 . S
H1693 C1702 0.950 . S
H1694 C1704 0.950 . S
H1695 C1706 0.950 . S
H1696 C1708 0.950 . S
H1697 C1709 0.950 . S
C1698 H1690 0.950 . S
C1698 C1699 1.386 . S
C1698 C1700 1.391 . S
C1699 C1698 1.386 . S
C1699 C1703 1.393 . S
C1700 H1692 0.950 . S
C1700 C1698 1.391 . S
C1700 C1701 1.400 . S
C1701 C1700 1.400 . S
C1701 C1702 1.398 . S
C1701 C1707 1.491 . S
C1702 H1693 0.950 . S
C1702 C1701 1.398 . S
C1702 C1703 1.391 . S
C1703 H1691 0.950 . S
C1703 C1699 1.393 . S
C1703 C1702 1.391 . S
C1704 H1694 0.950 . S
C1704 C1705 1.386 . S
C1704 C1706 1.391 . S
C1705 C1704 1.386 . S
C1705 C1709 1.393 . S
C1706 H1695 0.950 . S
C1706 C1704 1.391 . S
C1706 C1707 1.400 . S
C1707 C1701 1.491 . S
C1707 C1706 1.400 . S
C1707 C1708 1.398 . S
C1708 H1696 0.950 . S
C1708 C1707 1.398 . S
C1708 C1709 1.391 . S
C1709 H1697 0.950 . S
C1709 C1705 1.393 . S
C1709 C1708 1.391 . S
H1710 C1718 0.950 . S
H1711 C1723 0.950 . S
H1712 C1720 0.950 . S
H1713 C1722 0.950 . S
H1714 C1724 0.950 . S
H1715 C1726 0.950 . S
H1716 C1728 0.950 . S
H1717 C1729 0.950 . S
C1718 H1710 0.950 . S
C1718 C1719 1.386 . S
C1718 C1720 1.391 . S
C1719 C1718 1.386 . S
C1719 C1723 1.393 . S
C1720 H1712 0.950 . S
C1720 C1718 1.391 . S
C1720 C1721 1.400 . S
C1721 C1720 1.400 . S
C1721 C1722 1.398 . S
C1721 C1727 1.491 . S
C1722 H1713 0.950 . S
C1722 C1721 1.398 . S
C1722 C1723 1.391 . S
C1723 H1711 0.950 . S
C1723 C1719 1.393 . S
C1723 C1722 1.391 . S
C1724 H1714 0.950 . S
C1724 C1725 1.386 . S
C1724 C1726 1.391 . S
C1725 C1724 1.386 . S
C1725 C1729 1.393 . S
C1726 H1715 0.950 . S
C1726 C1724 1.391 . S
C1726 C1727 1.400 . S
C1727 C1721 1.491 . S
C1727 C1726 1.400 . S
C1727 C1728 1.398 . S
C1728 H1716 0.950 . S
C1728 C1727 1.398 . S
C1728 C1729 1.391 . S
C1729 H1717 0.950 . S
C1729 C1725 1.393 . S
C1729 C1728 1.391 . S
H1730 C1738 0.950 . S
H1731 C1743 0.950 . S
H1732 C1740 0.950 . S
H1733 C1742 0.950 . S
H1734 C1744 0.950 . S
H1735 C1746 0.950 . S
H1736 C1748 0.950 . S
H1737 C1749 0.950 . S
C1738 H1730 0.950 . S
C1738 C1739 1.386 . S
C1738 C1740 1.391 . S
C1739 C1738 1.386 . S
C1739 C1743 1.393 . S
C1740 H1732 0.950 . S
C1740 C1738 1.391 . S
C1740 C1741 1.400 . S
C1741 C1740 1.400 . S
C1741 C1742 1.398 . S
C1741 C1747 1.491 . S
C1742 H1733 0.950 . S
C1742 C1741 1.398 . S
C1742 C1743 1.391 . S
C1743 H1731 0.950 . S
C1743 C1739 1.393 . S
C1743 C1742 1.391 . S
C1744 H1734 0.950 . S
C1744 C1745 1.386 . S
C1744 C1746 1.391 . S
C1745 C1744 1.386 . S
C1745 C1749 1.393 . S
C1746 H1735 0.950 . S
C1746 C1744 1.391 . S
C1746 C1747 1.400 . S
C1747 C1741 1.491 . S
C1747 C1746 1.400 . S
C1747 C1748 1.398 . S
C1748 H1736 0.950 . S
C1748 C1747 1.398 . S
C1748 C1749 1.391 . S
C1749 H1737 0.950 . S
C1749 C1745 1.393 . S
C1749 C1748 1.391 . S
H1750 C1758 0.950 . S
H1751 C1763 0.950 . S
H1752 C1760 0.950 . S
H1753 C1762 0.950 . S
H1754 C1764 0.950 . S
H1755 C1766 0.950 . S
H1756 C1768 0.950 . S
H1757 C1769 0.950 . S
C1758 H1750 0.950 . S
C1758 C1759 1.386 . S
C1758 C1760 1.391 . S
C1759 C1758 1.386 . S
C1759 C1763 1.393 . S
C1760 H1752 0.950 . S
C1760 C1758 1.391 . S
C1760 C1761 1.400 . S
C1761 C1760 1.400 . S
C1761 C1762 1.398 . S
C1761 C1767 1.491 . S
C1762 H1753 0.950 . S
C1762 C1761 1.398 . S
C1762 C1763 1.391 . S
C1763 H1751 0.950 . S
C1763 C1759 1.393 . S
C1763 C1762 1.391 . S
C1764 H1754 0.950 . S
C1764 C1765 1.386 . S
C1764 C1766 1.391 . S
C1765 C1764 1.386 . S
C1765 C1769 1.393 . S
C1766 H1755 0.950 . S
C1766 C1764 1.391 . S
C1766 C1767 1.400 . S
C1767 C1761 1.491 . S
C1767 C1766 1.400 . S
C1767 C1768 1.398 . S
C1768 H1756 0.950 . S
C1768 C1767 1.398 . S
C1768 C1769 1.391 . S
C1769 H1757 0.950 . S
C1769 C1765 1.393 . S
C1769 C1768 1.391 . S
H1770 C1778 0.950 . S
H1771 C1783 0.950 . S
H1772 C1780 0.950 . S
H1773 C1782 0.950 . S
H1774 C1784 0.950 . S
H1775 C1786 0.950 . S
H1776 C1788 0.950 . S
H1777 C1789 0.950 . S
C1778 H1770 0.950 . S
C1778 C1779 1.386 . S
C1778 C1780 1.391 . S
C1779 C1778 1.386 . S
C1779 C1783 1.393 . S
C1780 H1772 0.950 . S
C1780 C1778 1.391 . S
C1780 C1781 1.400 . S
C1781 C1780 1.400 . S
C1781 C1782 1.398 . S
C1781 C1787 1.491 . S
C1782 H1773 0.950 . S
C1782 C1781 1.398 . S
C1782 C1783 1.391 . S
C1783 H1771 0.950 . S
C1783 C1779 1.393 . S
C1783 C1782 1.391 . S
C1784 H1774 0.950 . S
C1784 C1785 1.386 . S
C1784 C1786 1.391 . S
C1785 C1784 1.386 . S
C1785 C1789 1.393 . S
C1786 H1775 0.950 . S
C1786 C1784 1.391 . S
C1786 C1787 1.400 . S
C1787 C1781 1.491 . S
C1787 C1786 1.400 . S
C1787 C1788 1.398 . S
C1788 H1776 0.950 . S
C1788 C1787 1.398 . S
C1788 C1789 1.391 . S
C1789 H1777 0.950 . S
C1789 C1785 1.393 . S
C1789 C1788 1.391 . S
H1790 C1798 0.950 . S
H1791 C1803 0.950 . S
H1792 C1800 0.950 . S
H1793 C1802 0.950 . S
H1794 C1804 0.950 . S
H1795 C1806 0.950 . S
H1796 C1808 0.950 . S
H1797 C1809 0.950 . S
C1798 H1790 0.950 . S
C1798 C1799 1.386 . S
C1798 C1800 1.391 . S
C1799 C1798 1.386 . S
C1799 C1803 1.393 . S
C1800 H1792 0.950 . S
C1800 C1798 1.391 . S
C1800 C1801 1.400 . S
C1801 C1800 1.400 . S
C1801 C1802 1.398 . S
C1801 C1807 1.491 . S
C1802 H1793 0.950 . S
C1802 C1801 1.398 . S
C1802 C1803 1.391 . S
C1803 H1791 0.950 . S
C1803 C1799 1.393 . S
C1803 C1802 1.391 . S
C1804 H1794 0.950 . S
C1804 C1805 1.386 . S
C1804 C1806 1.391 . S
C1805 C1804 1.386 . S
C1805 C1809 1.393 . S
C1806 H1795 0.950 . S
C1806 C1804 1.391 . S
C1806 C1807 1.400 . S
C1807 C1801 1.491 . S
C1807 C1806 1.400 . S
C1807 C1808 1.398 . S
C1808 H1796 0.950 . S
C1808 C1807 1.398 . S
C1808 C1809 1.391 . S
C1809 H1797 0.950 . S
C1809 C1805 1.393 . S
C1809 C1808 1.391 . S
H1810 C1818 0.950 . S
H1811 C1823 0.950 . S
H1812 C1820 0.950 . S
H1813 C1822 0.950 . S
H1814 C1824 0.950 . S
H1815 C1826 0.950 . S
H1816 C1828 0.950 . S
H1817 C1829 0.950 . S
C1818 H1810 0.950 . S
C1818 C1819 1.386 . S
C1818 C1820 1.391 . S
C1819 C1818 1.386 . S
C1819 C1823 1.393 . S
C1820 H1812 0.950 . S
C1820 C1818 1.391 . S
C1820 C1821 1.400 . S
C1821 C1820 1.400 . S
C1821 C1822 1.398 . S
C1821 C1827 1.491 . S
C1822 H1813 0.950 . S
C1822 C1821 1.398 . S
C1822 C1823 1.391 . S
C1823 H1811 0.950 . S
C1823 C1819 1.393 . S
C1823 C1822 1.391 . S
C1824 H1814 0.950 . S
C1824 C1825 1.386 . S
C1824 C1826 1.391 . S
C1825 C1824 1.386 . S
C1825 C1829 1.393 . S
C1826 H1815 0.950 . S
C1826 C1824 1.391 . S
C1826 C1827 1.400 . S
C1827 C1821 1.491 . S
C1827 C1826 1.400 . S
C1827 C1828 1.398 . S
C1828 H1816 0.950 . S
C1828 C1827 1.398 . S
C1828 C1829 1.391 . S
C1829 H1817 0.950 . S
C1829 C1825 1.393 . S
C1829 C1828 1.391 . S
H1830 C1838 0.950 . S
H1831 C1843 0.950 . S
H1832 C1840 0.950 . S
H1833 C1842 0.950 . S
H1834 C1844 0.950 . S
H1835 C1846 0.950 . S
H1836 C1848 0.950 . S
H1837 C1849 0.950 . S
C1838 H1830 0.950 . S
C1838 C1839 1.386 . S
C1838 C1840 1.391 . S
C1839 C1838 1.386 . S
C1839 C1843 1.393 . S
C1840 H1832 0.950 . S
C1840 C1838 1.391 . S
C1840 C1841 1.400 . S
C1841 C1840 1.400 . S
C1841 C1842 1.398 . S
C1841 C1847 1.491 . S
C1842 H1833 0.950 . S
C1842 C1841 1.398 . S
C1842 C1843 1.391 . S
C1843 H1831 0.950 . S
C1843 C1839 1.393 . S
C1843 C1842 1.391 . S
C1844 H1834 0.950 . S
C1844 C1845 1.386 . S
C1844 C1846 1.391 . S
C1845 C1844 1.386 . S
C1845 C1849 1.393 . S
C1846 H1835 0.950 . S
C1846 C1844 1.391 . S
C1846 C1847 1.400 . S
C1847 C1841 1.491 . S
C1847 C1846 1.400 . S
C1847 C1848 1.398 . S
C1848 H1836 0.950 . S
C1848 C1847 1.398 . S
C1848 C1849 1.391 . S
C1849 H1837 0.950 . S
C1849 C1845 1.393 . S
C1849 C1848 1.391 . S
H1850 C1858 0.950 . S
H1851 C1863 0.950 . S
H1852 C1860 0.950 . S
H1853 C1862 0.950 . S
H1854 C1864 0.950 . S
H1855 C1866 0.950 . S
H1856 C1868 0.950 . S
H1857 C1869 0.950 . S
C1858 H1850 0.950 . S
C1858 C1859 1.386 . S
C1858 C1860 1.391 . S
C1859 C1858 1.386 . S
C1859 C1863 1.393 . S
C1860 H1852 0.950 . S
C1860 C1858 1.391 . S
C1860 C1861 1.400 . S
C1861 C1860 1.400 . S
C1861 C1862 1.398 . S
C1861 C1867 1.491 . S
C1862 H1853 0.950 . S
C1862 C1861 1.398 . S
C1862 C1863 1.391 . S
C1863 H1851 0.950 . S
C1863 C1859 1.393 . S
C1863 C1862 1.391 . S
C1864 H1854 0.950 . S
C1864 C1865 1.386 . S
C1864 C1866 1.391 . S
C1865 C1864 1.386 . S
C1865 C1869 1.393 . S
C1866 H1855 0.950 . S
C1866 C1864 1.391 . S
C1866 C1867 1.400 . S
C1867 C1861 1.491 . S
C1867 C1866 1.400 . S
C1867 C1868 1.398 . S
C1868 H1856 0.950 . S
C1868 C1867 1.398 . S
C1868 C1869 1.391 . S
C1869 H1857 0.950 . S
C1869 C1865 1.393 . S
C1869 C1868 1.391 . S
H1870 C1878 0.950 . S
H1871 C1883 0.950 . S
H1872 C1880 0.950 . S
H1873 C1882 0.950 . S
H1874 C1884 0.950 . S
H1875 C1886 0.950 . S
H1876 C1888 0.950 . S
H1877 C1889 0.950 . S
C1878 H1870 0.950 . S
C1878 C1879 1.386 . S
C1878 C1880 1.391 . S
C1879 C1878 1.386 . S
C1879 C1883 1.393 . S
C1880 H1872 0.950 . S
C1880 C1878 1.391 . S
C1880 C1881 1.400 . S
C1881 C1880 1.400 . S
C1881 C1882 1.398 . S
C1881 C1887 1.491 . S
C1882 H1873 0.950 . S
C1882 C1881 1.398 . S
C1882 C1883 1.391 . S
C1883 H1871 0.950 . S
C1883 C1879 1.393 . S
C1883 C1882 1.391 . S
C1884 H1874 0.950 . S
C1884 C1885 1.386 . S
C1884 C1886 1.391 . S
C1885 C1884 1.386 . S
C1885 C1889 1.393 . S
C1886 H1875 0.950 . S
C1886 C1884 1.391 . S
C1886 C1887 1.400 . S
C1887 C1881 1.491 . S
C1887 C1886 1.400 . S
C1887 C1888 1.398 . S
C1888 H1876 0.950 . S
C1888 C1887 1.398 . S
C1888 C1889 1.391 . S
C1889 H1877 0.950 . S
C1889 C1885 1.393 . S
C1889 C1888 1.391 . S
H1890 C1898 0.950 . S
H1891 C1903 0.950 . S
H1892 C1900 0.950 . S
H1893 C1902 0.950 . S
H1894 C1904 0.950 . S
H1895 C1906 0.950 . S
H1896 C1908 0.950 . S
H1897 C1909 0.950 . S
C1898 H1890 0.950 . S
C1898 C1899 1.386 . S
C1898 C1900 1.391 . S
C1899 C1898 1.386 . S
C1899 C1903 1.393 . S
C1900 H1892 0.950 . S
C1900 C1898 1.391 . S
C1900 C1901 1.400 . S
C1901 C1900 1.400 . S
C1901 C1902 1.398 . S
C1901 C1907 1.491 . S
C1902 H1893 0.950 . S
C1902 C1901 1.398 . S
C1902 C1903 1.391 . S
C1903 H1891 0.950 . S
C1903 C1899 1.393 . S
C1903 C1902 1.391 . S
C1904 H1894 0.950 . S
C1904 C1905 1.386 . S
C1904 C1906 1.391 . S
C1905 C1904 1.386 . S
C1905 C1909 1.393 . S
C1906 H1895 0.950 . S
C1906 C1904 1.391 . S
C1906 C1907 1.400 . S
C1907 C1901 1.491 . S
C1907 C1906 1.400 . S
C1907 C1908 1.398 . S
C1908 H1896 0.950 . S
C1908 C1907 1.398 . S
C1908 C1909 1.391 . S
C1909 H1897 0.950 . S
C1909 C1905 1.393 . S
C1909 C1908 1.391 . S
H1910 C1918 0.950 . S
H1911 C1923 0.950 . S
H1912 C1920 0.950 . S
H1913 C1922 0.950 . S
H1914 C1924 0.950 . S
H1915 C1926 0.950 . S
H1916 C1928 0.950 . S
H1917 C1929 0.950 . S
C1918 H1910 0.950 . S
C1918 C1919 1.386 . S
C1918 C1920 1.391 . S
C1919 C1918 1.386 . S
C1919 C1923 1.393 . S
C1920 H1912 0.950 . S
C1920 C1918 1.391 . S
C1920 C1921 1.400 . S
C1921 C1920 1.400 . S
C1921 C1922 1.398 . S
C1921 C1927 1.491 . S
C1922 H1913 0.950 . S
C1922 C1921 1.398 . S
C1922 C1923 1.391 . S
C1923 H1911 0.950 . S
C1923 C1919 1.393 . S
C1923 C1922 1.391 . S
C1924 H1914 0.950 . S
C1924 C1925 1.386 . S
C1924 C1926 1.391 . S
C1925 C1924 1.386 . S
C1925 C1929 1.393 . S
C1926 H1915 0.950 . S
C1926 C1924 1.391 . S
C1926 C1927 1.400 . S
C1927 C1921 1.491 . S
C1927 C1926 1.400 . S
C1927 C1928 1.398 . S
C1928 H1916 0.950 . S
C1928 C1927 1.398 . S
C1928 C1929 1.391 . S
C1929 H1917 0.950 . S
C1929 C1925 1.393 . S
C1929 C1928 1.391 . S
H1930 C1938 0.950 . S
H1931 C1943 0.950 . S
H1932 C1940 0.950 . S
H1933 C1942 0.950 . S
H1934 C1944 0.950 . S
H1935 C1946 0.950 . S
H1936 C1948 0.950 . S
H1937 C1949 0.950 . S
C1938 H1930 0.950 . S
C1938 C1939 1.386 . S
C1938 C1940 1.391 . S
C1939 C1938 1.386 . S
C1939 C1943 1.393 . S
C1940 H1932 0.950 . S
C1940 C1938 1.391 . S
C1940 C1941 1.400 . S
C1941 C1940 1.400 . S
C1941 C1942 1.398 . S
C1941 C1947 1.491 . S
C1942 H1933 0.950 . S
C1942 C1941 1.398 . S
C1942 C1943 1.391 . S
C1943 H1931 0.950 . S
C1943 C1939 1.393 . S
C1943 C1942 1.391 . S
C1944 H1934 0.950 . S
C1944 C1945 1.386 . S
C1944 C1946 1.391 . S
C1945 C1944 1.386 . S
C1945 C1949 1.393 . S
C1946 H1935 0.950 . S
C1946 C1944 1.391 . S
C1946 C1947 1.400 . S
C1947 C1941 1.491 . S
C1947 C1946 1.400 . S
C1947 C1948 1.398 . S
C1948 H1936 0.950 . S
C1948 C1947 1.398 . S
C1948 C1949 1.391 . S
C1949 H1937 0.950 . S
C1949 C1945 1.393 . S
C1949 C1948 1.391 . S
H1950 C1958 0.950 . S
H1951 C1963 0.950 . S
H1952 C1960 0.950 . S
H1953 C1962 0.950 . S
H1954 C1964 0.950 . S
H1955 C1966 0.950 . S
H1956 C1968 0.950 . S
H1957 C1969 0.950 . S
C1958 H1950 0.950 . S
C1958 C1959 1.386 . S
C1958 C1960 1.391 . S
C1959 C1958 1.386 . S
C1959 C1963 1.393 . S
C1960 H1952 0.950 . S
C1960 C1958 1.391 . S
C1960 C1961 1.400 . S
C1961 C1960 1.400 . S
C1961 C1962 1.398 . S
C1961 C1967 1.491 . S
C1962 H1953 0.950 . S
C1962 C1961 1.398 . S
C1962 C1963 1.391 . S
C1963 H1951 0.950 . S
C1963 C1959 1.393 . S
C1963 C1962 1.391 . S
C1964 H1954 0.950 . S
C1964 C1965 1.386 . S
C1964 C1966 1.391 . S
C1965 C1964 1.386 . S
C1965 C1969 1.393 . S
C1966 H1955 0.950 . S
C1966 C1964 1.391 . S
C1966 C1967 1.400 . S
C1967 C1961 1.491 . S
C1967 C1966 1.400 . S
C1967 C1968 1.398 . S
C1968 H1956 0.950 . S
C1968 C1967 1.398 . S
C1968 C1969 1.391 . S
C1969 H1957 0.950 . S
C1969 C1965 1.393 . S
C1969 C1968 1.391 . S
H1970 C1978 0.950 . S
H1971 C1983 0.950 . S
H1972 C1980 0.950 . S
H1973 C1982 0.950 . S
H1974 C1984 0.950 . S
H1975 C1986 0.950 . S
H1976 C1988 0.950 . S
H1977 C1989 0.950 . S
C1978 H1970 0.950 . S
C1978 C1979 1.386 . S
C1978 C1980 1.391 . S
C1979 C1978 1.386 . S
C1979 C1983 1.393 . S
C1980 H1972 0.950 . S
C1980 C1978 1.391 . S
C1980 C1981 1.400 . S
C1981 C1980 1.400 . S
C1981 C1982 1.398 . S
C1981 C1987 1.491 . S
C1982 H1973 0.950 . S
C1982 C1981 1.398 . S
C1982 C1983 1.391 . S
C1983 H1971 0.950 . S
C1983 C1979 1.393 . S
C1983 C1982 1.391 . S
C1984 H1974 0.950 . S
C1984 C1985 1.386 . S
C1984 C1986 1.391 . S
C1985 C1984 1.386 . S
C1985 C1989 1.393 . S
C1986 H1975 0.950 . S
C1986 C1984 1.391 . S
C1986 C1987 1.400 . S
C1987 C1981 1.491 . S
C1987 C1986 1.400 . S
C1987 C1988 1.398 . S
C1988 H1976 0.950 . S
C1988 C1987 1.398 . S
C1988 C1989 1.391 . S
C1989 H1977 0.950 . S
C1989 C1985 1.393 . S
C1989 C1988 1.391 . S
H1990 C1998 0.950 . S
H1991 C2003 0.950 . S
H1992 C2000 0.950 . S
H1993 C2002 0.950 . S
H1994 C2004 0.950 . S
H1995 C2006 0.950 . S
H1996 C2008 0.950 . S
H1997 C2009 0.950 . S
C1998 H1990 0.950 . S
C1998 C1999 1.386 . S
C1998 C2000 1.391 . S
C1999 C1998 1.386 . S
C1999 C2003 1.393 . S
C2000 H1992 0.950 . S
C2000 C1998 1.391 . S
C2000 C2001 1.400 . S
C2001 C2000 1.400 . S
C2001 C2002 1.398 . S
C2001 C2007 1.491 . S
C2002 H1993 0.950 . S
C2002 C2001 1.398 . S
C2002 C2003 1.391 . S
C2003 H1991 0.950 . S
C2003 C1999 1.393 . S
C2003 C2002 1.391 . S
C2004 H1994 0.950 . S
C2004 C2005 1.386 . S
C2004 C2006 1.391 . S
C2005 C2004 1.386 . S
C2005 C2009 1.393 . S
C2006 H1995 0.950 . S
C2006 C2004 1.391 . S
C2006 C2007 1.400 . S
C2007 C2001 1.491 . S
C2007 C2006 1.400 . S
C2007 C2008 1.398 . S
C2008 H1996 0.950 . S
C2008 C2007 1.398 . S
C2008 C2009 1.391 . S
C2009 H1997 0.950 . S
C2009 C2005 1.393 . S
C2009 C2008 1.391 . S
H2010 C2018 0.950 . S
H2011 C2023 0.950 . S
H2012 C2020 0.950 . S
H2013 C2022 0.950 . S
H2014 C2024 0.950 . S
H2015 C2026 0.950 . S
H2016 C2028 0.950 . S
H2017 C2029 0.950 . S
C2018 H2010 0.950 . S
C2018 C2019 1.386 . S
C2018 C2020 1.391 . S
C2019 C2018 1.386 . S
C2019 C2023 1.393 . S
C2020 H2012 0.950 . S
C2020 C2018 1.391 . S
C2020 C2021 1.400 . S
C2021 C2020 1.400 . S
C2021 C2022 1.398 . S
C2021 C2027 1.491 . S
C2022 H2013 0.950 . S
C2022 C2021 1.398 . S
C2022 C2023 1.391 . S
C2023 H2011 0.950 . S
C2023 C2019 1.393 . S
C2023 C2022 1.391 . S
C2024 H2014 0.950 . S
C2024 C2025 1.386 . S
C2024 C2026 1.391 . S
C2025 C2024 1.386 . S
C2025 C2029 1.393 . S
C2026 H2015 0.950 . S
C2026 C2024 1.391 . S
C2026 C2027 1.400 . S
C2027 C2021 1.491 . S
C2027 C2026 1.400 . S
C2027 C2028 1.398 . S
C2028 H2016 0.950 . S
C2028 C2027 1.398 . S
C2028 C2029 1.391 . S
C2029 H2017 0.950 . S
C2029 C2025 1.393 . S
C2029 C2028 1.391 . S
H2030 C2038 0.950 . S
H2031 C2043 0.950 . S
H2032 C2040 0.950 . S
H2033 C2042 0.950 . S
H2034 C2044 0.950 . S
H2035 C2046 0.950 . S
H2036 C2048 0.950 . S
H2037 C2049 0.950 . S
C2038 H2030 0.950 . S
C2038 C2039 1.386 . S
C2038 C2040 1.391 . S
C2039 C2038 1.386 . S
C2039 C2043 1.393 . S
C2040 H2032 0.950 . S
C2040 C2038 1.391 . S
C2040 C2041 1.400 . S
C2041 C2040 1.400 . S
C2041 C2042 1.398 . S
C2041 C2047 1.491 . S
C2042 H2033 0.950 . S
C2042 C2041 1.398 . S
C2042 C2043 1.391 . S
C2043 H2031 0.950 . S
C2043 C2039 1.393 . S
C2043 C2042 1.391 . S
C2044 H2034 0.950 . S
C2044 C2045 1.386 . S
C2044 C2046 1.391 . S
C2045 C2044 1.386 . S
C2045 C2049 1.393 . S
C2046 H2035 0.950 . S
C2046 C2044 1.391 . S
C2046 C2047 1.400 . S
C2047 C2041 1.491 . S
C2047 C2046 1.400 . S
C2047 C2048 1.398 . S
C2048 H2036 0.950 . S
C2048 C2047 1.398 . S
C2048 C2049 1.391 . S
C2049 H2037 0.950 . S
C2049 C2045 1.393 . S
C2049 C2048 1.391 . S
H2050 C2058 0.950 . S
H2051 C2063 0.950 . S
H2052 C2060 0.950 . S
H2053 C2062 0.950 . S
H2054 C2064 0.950 . S
H2055 C2066 0.950 . S
H2056 C2068 0.950 . S
H2057 C2069 0.950 . S
C2058 H2050 0.950 . S
C2058 C2059 1.386 . S
C2058 C2060 1.391 . S
C2059 C2058 1.386 . S
C2059 C2063 1.393 . S
C2060 H2052 0.950 . S
C2060 C2058 1.391 . S
C2060 C2061 1.400 . S
C2061 C2060 1.400 . S
C2061 C2062 1.398 . S
C2061 C2067 1.491 . S
C2062 H2053 0.950 . S
C2062 C2061 1.398 . S
C2062 C2063 1.391 . S
C2063 H2051 0.950 . S
C2063 C2059 1.393 . S
C2063 C2062 1.391 . S
C2064 H2054 0.950 . S
C2064 C2065 1.386 . S
C2064 C2066 1.391 . S
C2065 C2064 1.386 . S
C2065 C2069 1.393 . S
C2066 H2055 0.950 . S
C2066 C2064 1.391 . S
C2066 C2067 1.400 . S
C2067 C2061 1.491 . S
C2067 C2066 1.400 . S
C2067 C2068 1.398 . S
C2068 H2056 0.950 . S
C2068 C2067 1.398 . S
C2068 C2069 1.391 . S
C2069 H2057 0.950 . S
C2069 C2065 1.393 . S
C2069 C2068 1.391 . S
C999 C177 1.449 . S
C1005 C290 1.405 . S
C1019 C190 1.474 . S
C1025 C374 1.436 . S
C1039 C164 1.444 . S
C1045 C468 1.435 . S
C1059 C151 1.434 . S
C1065 C384 1.421 1_556 S
C1085 C458 1.369 . S
C1079 C125 1.441 . S
C1099 C138 1.412 . S
C1105 C300 1.399 1_556 S
C1125 C301 1.457 . S
C1119 C147 1.434 . S
C1145 C385 1.458 . S
C1139 C121 1.479 . S
C1159 C134 1.461 . S
C1165 C477 1.470 1_556 S
C1179 C173 1.443 . S
C1185 C393 1.464 . S
C1199 C186 1.421 . S
C1205 C469 1.415 . S
C1225 C309 1.425 . S
C1219 C160 1.436 . S
C1245 C542 1.379 . S
C1239 C21 1.455 . S
C1259 C34 1.476 . S
C1265 C626 1.424 . S
C1279 C8 1.453 . S
C1285 C720 1.441 . S
C1299 C229 1.434 . S
C1305 C636 1.420 . S
C1319 C203 1.440 . S
C1325 C710 1.370 . S
C1339 C216 1.410 . S
C1345 C552 1.407 . S
C1359 C225 1.460 . S
C1365 C553 1.428 . S
C1379 C199 1.482 . S
C1385 C637 1.453 . S
C1405 C729 1.482 . S
C1399 C212 1.451 . S
C1419 C17 1.423 . S
C1425 C645 1.459 . S
C1445 C721 1.431 . S
C1439 C30 1.412 . S
C1459 C4 1.435 . S
C1465 C561 1.425 . S
C1485 C794 1.383 . S
C1479 C99 1.454 . S
C1499 C112 1.474 . S
C1505 C878 1.436 . S
C1525 C972 1.435 . S
C1519 C86 1.444 . S
C1545 C888 1.419 . S
C1539 C73 1.429 . S
C1565 C962 1.371 . S
C1559 C47 1.440 . S
C1579 C60 1.406 . S
C1585 C804 1.395 . S
C1599 C69 1.463 . S
C1605 C805 1.426 . S
C1619 C43 1.456 . S
C1625 C889 1.481 . S
C1645 C981 1.475 . S
C1639 C56 1.480 . S
C1659 C95 1.450 . S
C1665 C897 1.457 . S
C1679 C108 1.429 . S
C1685 C973 1.414 . S
C1699 C82 1.413 . S
C1705 C813 1.446 . S
C1719 C204 1.560 . S
C1725 C297 1.421 . S
C1745 C381 1.455 . S
C1739 C217 1.613 . S
C1759 C230 1.560 . S
C1765 C474 1.380 . S
C1779 C87 1.586 . S
C1785 C390 1.373 . S
C1799 C100 1.582 . S
C1805 C465 1.426 . S
C1825 C306 1.382 . S
C1819 C113 1.529 . S
C1839 C48 1.553 . S
C1845 C549 1.438 . S
C1859 C61 1.610 . S
C1865 C633 1.462 . S
C1879 C74 1.566 . S
C1885 C726 1.405 . S
C1899 C165 1.592 . S
C1905 C642 1.389 . S
C1925 C717 1.456 . S
C1919 C178 1.580 . S
C1939 C191 1.537 . S
C1945 C558 1.380 . S
C1959 C126 1.558 . S
C1965 C801 1.456 . S
C1979 C139 1.622 . S
C1985 C885 1.468 . S
C2005 C978 1.368 . S
C1999 C152 1.569 . S
C2019 C9 1.591 . S
C2025 C894 1.417 . S
C2039 C22 1.575 . S
C2045 C969 1.461 . S
C2059 C35 1.538 . S
C2065 C810 1.371 . S
