# Generated by pormake.
# Topology the, (3,8)-cn, num edge types: 1
# Building blocks:
#     Node 0, Type 0, BuildingBlock: CUQRIR_clean_linker_1, # of connection points: 3
#     Node 1, Type 0, BuildingBlock: CUQRIR_clean_linker_1, # of connection points: 3
#     Node 2, Type 0, BuildingBlock: CUQRIR_clean_linker_1, # of connection points: 3
#     Node 3, Type 0, BuildingBlock: CUQRIR_clean_linker_1, # of connection points: 3
#     Node 4, Type 0, BuildingBlock: CUQRIR_clean_linker_1, # of connection points: 3
#     Node 5, Type 0, BuildingBlock: CUQRIR_clean_linker_1, # of connection points: 3
#     Node 6, Type 0, BuildingBlock: CUQRIR_clean_linker_1, # of connection points: 3
#     Node 7, Type 0, BuildingBlock: CUQRIR_clean_linker_1, # of connection points: 3
#     Node 8, Type 1, BuildingBlock: GIZVER_clean_sbu_0, # of connection points: 8
#     Node 9, Type 1, BuildingBlock: GIZVER_clean_sbu_0, # of connection points: 8
#     Node 10, Type 1, BuildingBlock: GIZVER_clean_sbu_0, # of connection points: 8
#     Edge 11, Type (0, 1), BuildingBlock: XIVTED_clean_linker_0, # of connection points: 2
#     Edge 12, Type (0, 1), BuildingBlock: XIVTED_clean_linker_0, # of connection points: 2
#     Edge 13, Type (0, 1), BuildingBlock: XIVTED_clean_linker_0, # of connection points: 2
#     Edge 14, Type (0, 1), BuildingBlock: XIVTED_clean_linker_0, # of connection points: 2
#     Edge 15, Type (0, 1), BuildingBlock: XIVTED_clean_linker_0, # of connection points: 2
#     Edge 16, Type (0, 1), BuildingBlock: XIVTED_clean_linker_0, # of connection points: 2
#     Edge 17, Type (0, 1), BuildingBlock: XIVTED_clean_linker_0, # of connection points: 2
#     Edge 18, Type (0, 1), BuildingBlock: XIVTED_clean_linker_0, # of connection points: 2
#     Edge 19, Type (0, 1), BuildingBlock: XIVTED_clean_linker_0, # of connection points: 2
#     Edge 20, Type (0, 1), BuildingBlock: XIVTED_clean_linker_0, # of connection points: 2
#     Edge 21, Type (0, 1), BuildingBlock: XIVTED_clean_linker_0, # of connection points: 2
#     Edge 22, Type (0, 1), BuildingBlock: XIVTED_clean_linker_0, # of connection points: 2
#     Edge 23, Type (0, 1), BuildingBlock: XIVTED_clean_linker_0, # of connection points: 2
#     Edge 24, Type (0, 1), BuildingBlock: XIVTED_clean_linker_0, # of connection points: 2
#     Edge 25, Type (0, 1), BuildingBlock: XIVTED_clean_linker_0, # of connection points: 2
#     Edge 26, Type (0, 1), BuildingBlock: XIVTED_clean_linker_0, # of connection points: 2
#     Edge 27, Type (0, 1), BuildingBlock: XIVTED_clean_linker_0, # of connection points: 2
#     Edge 28, Type (0, 1), BuildingBlock: XIVTED_clean_linker_0, # of connection points: 2
#     Edge 29, Type (0, 1), BuildingBlock: XIVTED_clean_linker_0, # of connection points: 2
#     Edge 30, Type (0, 1), BuildingBlock: XIVTED_clean_linker_0, # of connection points: 2
#     Edge 31, Type (0, 1), BuildingBlock: XIVTED_clean_linker_0, # of connection points: 2
#     Edge 32, Type (0, 1), BuildingBlock: XIVTED_clean_linker_0, # of connection points: 2
#     Edge 33, Type (0, 1), BuildingBlock: XIVTED_clean_linker_0, # of connection points: 2
#     Edge 34, Type (0, 1), BuildingBlock: XIVTED_clean_linker_0, # of connection points: 2
# Relax obj value: 0.077
# Max RMSD: 0.231
# Mean RMSD: 0.153
data_MOF--net-the--node1-GIZVER_clean_sbu_0--node2-CUQRIR_clean_linker_1--edge1-XIVTED_clean_linker_0
_symmetry_space_group_name_H-M    P1
_symmetry_Int_Tables_number       1
_symmetry_cell_setting            triclinic
loop_
_symmetry_equiv_pos_as_xyz
'x, y, z'
_cell_length_a     38.744547
_cell_length_b     36.360744
_cell_length_c     32.612284
_cell_angle_alpha  84.183353
_cell_angle_beta   97.600062
_cell_angle_gamma 107.87094
loop_
_atom_site_label
_atom_site_type_symbol
_atom_site_fract_x
_atom_site_fract_y
_atom_site_fract_z
_atom_type_partial_charge
C0 C 0.36755 0.32083 0.44514 0.0
N1 N 0.38793 0.32263 0.41393 0.0
N2 N 0.34682 0.345 0.43593 0.0
C3 C 0.36637 0.29381 0.48337 0.0
C4 C 0.35474 0.36107 0.3978 0.0
N5 N 0.37945 0.34713 0.38415 0.0
C6 C 0.33767 0.38972 0.37356 0.0
H7 H 0.35947 0.2636 0.47422 0.0
H8 H 0.34624 0.29591 0.50355 0.0
H9 H 0.39378 0.30085 0.50118 0.0
H10 H 0.3271 0.40518 0.39423 0.0
H11 H 0.31454 0.37397 0.35187 0.0
H12 H 0.35772 0.41117 0.35508 0.0
C13 C 0.72082 0.29567 0.2495 0.0
N14 N 0.74473 0.29318 0.2832 0.0
N15 N 0.72913 0.33193 0.23114 0.0
C16 C 0.68699 0.26348 0.23703 0.0
C17 C 0.75937 0.35154 0.25479 0.0
N18 N 0.76859 0.32818 0.28685 0.0
C19 C 0.77851 0.39409 0.24768 0.0
H20 H 0.69291 0.23527 0.24097 0.0
H21 H 0.67628 0.26844 0.20433 0.0
H22 H 0.66575 0.26197 0.2574 0.0
H23 H 0.76504 0.41084 0.2633 0.0
H24 H 0.77681 0.40314 0.2142 0.0
H25 H 0.80767 0.40125 0.26021 0.0
C26 C 0.79568 0.75309 0.36107 0.0
N27 N 0.79642 0.7253 0.33674 0.0
N28 N 0.76897 0.7691 0.3457 0.0
C29 C 0.81822 0.76124 0.40225 0.0
C30 C 0.75348 0.74995 0.31123 0.0
N31 N 0.7701 0.72339 0.30567 0.0
C32 C 0.72011 0.75493 0.28483 0.0
H33 H 0.81911 0.73369 0.41979 0.0
H34 H 0.80749 0.77803 0.42123 0.0
H35 H 0.84658 0.77804 0.39677 0.0
H36 H 0.72216 0.75243 0.25168 0.0
H37 H 0.71634 0.78339 0.28868 0.0
H38 H 0.6958 0.73159 0.2941 0.0
C39 C 0.33922 0.66974 0.30569 0.0
N40 N 0.37209 0.69699 0.30412 0.0
N41 N 0.31998 0.67783 0.33362 0.0
C42 C 0.32613 0.63489 0.28005 0.0
C43 C 0.34238 0.71134 0.34878 0.0
N44 N 0.37401 0.72311 0.33084 0.0
C45 C 0.33469 0.73085 0.38363 0.0
H46 H 0.33511 0.64228 0.24859 0.0
H47 H 0.29596 0.62313 0.27703 0.0
H48 H 0.33809 0.61216 0.29511 0.0
H49 H 0.3603 0.74724 0.40141 0.0
H50 H 0.31771 0.70936 0.40512 0.0
H51 H 0.31958 0.75151 0.3704 0.0
C52 C 0.35738 0.69235 0.75616 0.0
N53 N 0.39094 0.71862 0.76241 0.0
N54 N 0.33708 0.70431 0.72348 0.0
C55 C 0.34613 0.65283 0.77839 0.0
C56 C 0.35951 0.7386 0.70998 0.0
N57 N 0.39235 0.74718 0.73308 0.0
C58 C 0.3492 0.76376 0.67383 0.0
H59 H 0.32535 0.63168 0.75885 0.0
H60 H 0.33418 0.6549 0.80685 0.0
H61 H 0.36997 0.64185 0.78758 0.0
H62 H 0.31926 0.75884 0.66947 0.0
H63 H 0.35756 0.75652 0.64518 0.0
H64 H 0.36328 0.79481 0.67865 0.0
C65 C 0.35893 0.28331 0.68271 0.0
N66 N 0.3557 0.31052 0.70638 0.0
N67 N 0.39129 0.27588 0.69338 0.0
C68 C 0.33265 0.26757 0.64582 0.0
C69 C 0.40774 0.2998 0.72415 0.0
N70 N 0.38629 0.32089 0.73201 0.0
C71 C 0.44503 0.30298 0.74629 0.0
H72 H 0.31086 0.24195 0.65648 0.0
H73 H 0.34644 0.25851 0.62265 0.0
H74 H 0.31974 0.28948 0.63055 0.0
H75 H 0.4523 0.2759 0.74507 0.0
H76 H 0.4463 0.30935 0.77912 0.0
H77 H 0.46536 0.32723 0.73112 0.0
C78 C 0.73743 0.3025 0.75318 0.0
N79 N 0.76069 0.29936 0.727 0.0
N80 N 0.75062 0.33632 0.77205 0.0
C81 C 0.70027 0.2742 0.75731 0.0
C82 C 0.7826 0.35383 0.75611 0.0
N83 N 0.78853 0.33171 0.72828 0.0
C84 C 0.80676 0.39383 0.7657 0.0
H85 H 0.68308 0.2739 0.72721 0.0
H86 H 0.68671 0.28163 0.78181 0.0
H87 H 0.70268 0.24461 0.76491 0.0
H88 H 0.80597 0.39972 0.79817 0.0
H89 H 0.79683 0.41547 0.74504 0.0
H90 H 0.83544 0.39749 0.76074 0.0
C91 C 0.76759 0.71283 0.66563 0.0
N92 N 0.78074 0.68212 0.6715 0.0
N93 N 0.7724 0.72988 0.62723 0.0
C94 C 0.74873 0.72529 0.69682 0.0
C95 C 0.78843 0.7082 0.60957 0.0
N96 N 0.79321 0.67875 0.63648 0.0
C97 C 0.80195 0.71762 0.56747 0.0
H98 H 0.73095 0.74264 0.68166 0.0
H99 H 0.76969 0.74326 0.71916 0.0
H100 H 0.73206 0.69976 0.71445 0.0
H101 H 0.80201 0.74721 0.55513 0.0
H102 H 0.78389 0.69647 0.54577 0.0
H103 H 0.82992 0.71509 0.569 0.0
Co104 Co 0.12562 0.45672 0.56103 0.0
Co105 Co 0.08868 0.43269 0.48971 0.0
Co106 Co 0.05334 0.48905 0.52449 0.0
O107 O 0.07479 0.44496 0.53814 0.0
H108 H 0.05885 0.4226 0.55184 0.0
O109 O 0.03289 0.53366 0.51188 0.0
Co110 Co 0.9827 0.52724 0.49196 0.0
Co111 Co 0.02227 0.54476 0.56258 0.0
H112 H 0.04951 0.55611 0.49913 0.0
O113 O 0.10055 0.38694 0.48622 0.0
O114 O 0.13779 0.44318 0.50907 0.0
O115 O 0.08808 0.46828 0.44172 0.0
O116 O 0.0869 0.51493 0.47998 0.0
O117 O 0.01589 0.45816 0.4821 0.0
O118 O 0.93743 0.52596 0.47185 0.0
O119 O 0.98785 0.57738 0.47475 0.0
O120 O 0.97137 0.47341 0.5053 0.0
O121 O 0.01922 0.46305 0.56794 0.0
O122 O 0.02597 0.50916 0.60996 0.0
O123 O 0.97266 0.53624 0.54774 0.0
O124 O 0.01379 0.5904 0.57171 0.0
C125 C 0.15867 0.42769 0.59581 0.0
C126 C 0.1241 0.52914 0.56227 0.0
C127 C 0.09564 0.50395 0.44776 0.0
C128 C 0.13299 0.40814 0.49918 0.0
C129 C 0.95304 0.56261 0.46347 0.0
C130 C 0.98181 0.45311 0.48278 0.0
C131 C 0.01385 0.47384 0.60197 0.0
C132 C 0.98012 0.56987 0.56302 0.0
O133 O 0.17085 0.46396 0.58353 0.0
O134 O 0.12444 0.40871 0.58537 0.0
O135 O 0.09032 0.52079 0.56667 0.0
O136 O 0.13447 0.50831 0.54063 0.0
Co137 Co 0.61228 0.95025 0.49902 0.0
Co138 Co 0.63302 0.98463 0.5697 0.0
Co139 Co 0.57614 0.02063 0.51441 0.0
O140 O 0.61918 1.00116 0.51542 0.0
H141 H 0.63961 0.02019 0.504 0.0
O142 O 0.53364 0.04143 0.51336 0.0
Co143 Co 0.54187 0.09316 0.53037 0.0
Co144 Co 0.52064 0.06004 0.45961 0.0
H145 H 0.51291 0.0227 0.52456 0.0
O146 O 0.67879 0.97679 0.58518 0.0
O147 O 0.6282 0.93483 0.55625 0.0
O148 O 0.59905 0.9784 0.61013 0.0
O149 O 0.55421 0.98325 0.56153 0.0
O150 O 0.60653 0.05936 0.55485 0.0
O151 O 0.54542 0.13893 0.54757 0.0
O152 O 0.49621 0.08622 0.54451 0.0
O153 O 0.59099 0.10755 0.51947 0.0
O154 O 0.59852 0.05801 0.46778 0.0
O155 O 0.55431 0.06499 0.41959 0.0
O156 O 0.5281 0.11065 0.47305 0.0
O157 O 0.47642 0.07131 0.44299 0.0
C158 C 0.6428 0.92229 0.47489 0.0
C159 C 0.54256 0.94483 0.48239 0.0
C160 C 0.56535 0.97199 0.59805 0.0
C161 C 0.66194 0.94263 0.57222 0.0
C162 C 0.51164 0.12208 0.55415 0.0
C163 C 0.61283 0.09563 0.54601 0.0
C164 C 0.58788 0.07049 0.43176 0.0
C165 C 0.49525 0.10538 0.4548 0.0
O166 O 0.60944 0.90463 0.48255 0.0
O167 O 0.65757 0.95848 0.48353 0.0
O168 O 0.54591 0.98087 0.47387 0.0
O169 O 0.5641 0.93552 0.51138 0.0
Co170 Co 0.52854 0.55593 0.10047 0.0
Co171 Co 0.49986 0.4895 0.06915 0.0
Co172 Co 0.56329 0.54109 0.01474 0.0
O173 O 0.52049 0.53872 0.04495 0.0
H174 H 0.50224 0.54784 0.02747 0.0
O175 O 0.60662 0.54276 0.9867 0.0
Co176 Co 0.60051 0.5176 0.93683 0.0
Co177 Co 0.62682 0.58773 0.95657 0.0
H178 H 0.62557 0.53695 1.00626 0.0
O179 O 0.45313 0.47233 0.08604 0.0
O180 O 0.50535 0.50279 0.12364 0.0
O181 O 0.52668 0.45261 0.06971 0.0
O182 O 0.57633 0.4969 0.04948 0.0
O183 O 0.52885 0.50374 0.97472 0.0
O184 O 0.59786 0.49218 0.89222 0.0
O185 O 0.64046 0.50103 0.94739 0.0
O186 O 0.55733 0.53093 0.92022 0.0
O187 O 0.55057 0.58564 0.97876 0.0
O188 O 0.59692 0.62128 0.9439 0.0
O189 O 0.62869 0.56613 0.90826 0.0
O190 O 0.67582 0.60277 0.94871 0.0
C191 C 0.50192 0.58063 0.1358 0.0
C192 C 0.60059 0.56908 0.09327 0.0
C193 C 0.56045 0.46334 0.06541 0.0
C194 C 0.47125 0.48212 0.1217 0.0
C195 C 0.62734 0.48608 0.91177 0.0
C196 C 0.52898 0.50906 0.93533 0.0
C197 C 0.56483 0.61446 0.95381 0.0
C198 C 0.6634 0.58412 0.91531 0.0
O199 O 0.53256 0.57406 0.15035 0.0
O200 O 0.48686 0.5695 0.099 0.0
O201 O 0.59793 0.57809 0.05437 0.0
O202 O 0.57363 0.54542 0.1093 0.0
H203 H 0.35002 0.40262 0.48288 0.0
H204 H 0.13367 0.33601 0.48235 0.0
H205 H 0.27936 0.29556 0.43669 0.0
H206 H 0.20476 0.44716 0.51932 0.0
H207 H 0.18733 0.31518 0.47812 0.0
H208 H 0.29801 0.41371 0.5098 0.0
C209 C 0.32349 0.38117 0.47937 0.0
C210 C 0.31839 0.34834 0.45775 0.0
C211 C 0.19113 0.34397 0.48762 0.0
C212 C 0.259 0.36076 0.48719 0.0
C213 C 0.16052 0.3559 0.48995 0.0
C214 C 0.16475 0.39358 0.50054 0.0
C215 C 0.22614 0.36997 0.49582 0.0
C216 C 0.20017 0.41797 0.51059 0.0
C217 C 0.29387 0.38743 0.49442 0.0
C218 C 0.28386 0.32118 0.45336 0.0
N219 N 0.22949 0.40587 0.50758 0.0
N220 N 0.25522 0.32819 0.46752 0.0
H221 H 0.75967 0.22474 0.2926 0.0
H222 H 0.57609 0.12906 0.37851 0.0
H223 H 0.70602 0.29347 0.34492 0.0
H224 H 0.66169 0.08085 0.43359 0.0
H225 H 0.62196 0.18447 0.34986 0.0
H226 H 0.725 0.16696 0.33281 0.0
C227 C 0.74182 0.22782 0.31407 0.0
C228 C 0.73585 0.26368 0.31618 0.0
C229 C 0.63058 0.16151 0.36791 0.0
C230 C 0.69512 0.19828 0.35981 0.0
C231 C 0.60444 0.12959 0.3838 0.0
C232 C 0.61502 0.10008 0.40837 0.0
C233 C 0.66756 0.16371 0.3757 0.0
C234 C 0.65239 0.10293 0.4147 0.0
C235 C 0.72185 0.19499 0.33649 0.0
C236 C 0.71163 0.26631 0.34322 0.0
N237 N 0.67747 0.13419 0.39819 0.0
N238 N 0.69135 0.23384 0.36314 0.0
H239 H 0.77352 0.64954 0.36188 0.0
H240 H 0.97587 0.63942 0.4357 0.0
H241 H 0.86928 0.74348 0.33815 0.0
H242 H 0.87937 0.54123 0.44225 0.0
H243 H 0.93788 0.67818 0.39964 0.0
H244 H 0.81211 0.60879 0.38946 0.0
C245 C 0.80266 0.66103 0.36107 0.0
C246 C 0.8183 0.69934 0.34648 0.0
C247 C 0.9251 0.6481 0.40885 0.0
C248 C 0.86298 0.65383 0.38016 0.0
C249 C 0.94675 0.62601 0.42958 0.0
C250 C 0.93083 0.587 0.44205 0.0
C251 C 0.88723 0.63112 0.40076 0.0
C252 C 0.89293 0.57115 0.43323 0.0
C253 C 0.82482 0.63806 0.3775 0.0
C254 C 0.85639 0.71373 0.34844 0.0
N255 N 0.87248 0.59326 0.41329 0.0
N256 N 0.87752 0.69107 0.36521 0.0
H257 H 0.37655 0.79756 0.31126 0.0
H258 H 0.53537 0.86772 0.49326 0.0
H259 H 0.43759 0.72525 0.3772 0.0
H260 H 0.49479 0.94963 0.41128 0.0
H261 H 0.4992 0.81609 0.45021 0.0
H262 H 0.41965 0.85422 0.34445 0.0
C263 C 0.39992 0.79402 0.33163 0.0
C264 C 0.40414 0.75697 0.34086 0.0
C265 C 0.49817 0.84528 0.4413 0.0
C266 C 0.45257 0.8211 0.3804 0.0
C267 C 0.51885 0.87506 0.46609 0.0
C268 C 0.51848 0.91353 0.45601 0.0
C269 C 0.47611 0.85333 0.40603 0.0
C270 C 0.49604 0.92057 0.42039 0.0
C271 C 0.42422 0.82619 0.35093 0.0
C272 C 0.43399 0.75346 0.36851 0.0
N273 N 0.47561 0.89073 0.39681 0.0
N274 N 0.45677 0.78495 0.38763 0.0
H275 H 0.27023 0.67217 0.75042 0.0
H276 H 0.19 0.56914 0.53783 0.0
H277 H 0.33003 0.68398 0.64524 0.0
H278 H 0.12292 0.5598 0.6362 0.0
H279 H 0.24028 0.61417 0.57666 0.0
H280 H 0.21507 0.63272 0.71011 0.0
C281 C 0.27152 0.66651 0.71878 0.0
C282 C 0.30435 0.68144 0.70078 0.0
C283 C 0.2146 0.60264 0.58989 0.0
C284 C 0.24207 0.63682 0.65474 0.0
C285 C 0.18578 0.57689 0.56761 0.0
C286 C 0.1523 0.5605 0.58394 0.0
C287 C 0.21033 0.61198 0.62927 0.0
C288 C 0.14832 0.57189 0.6225 0.0
C289 C 0.2402 0.64423 0.6958 0.0
C290 C 0.30503 0.67342 0.65987 0.0
N291 N 0.1772 0.59666 0.64418 0.0
N292 N 0.27446 0.65168 0.63833 0.0
H293 H 0.36319 0.1996 0.67989 0.0
H294 H 0.53336 0.19955 0.56406 0.0
H295 H 0.45441 0.2999 0.65833 0.0
H296 H 0.44414 0.09623 0.58424 0.0
H297 H 0.50286 0.23652 0.59624 0.0
H298 H 0.39037 0.16098 0.64335 0.0
C299 C 0.38899 0.21333 0.66746 0.0
C300 C 0.40691 0.25273 0.67242 0.0
C301 C 0.48978 0.20579 0.59369 0.0
C302 C 0.43805 0.2092 0.63064 0.0
C303 C 0.50725 0.18453 0.57527 0.0
C304 C 0.4915 0.14452 0.57173 0.0
C305 C 0.45616 0.18711 0.60907 0.0
C306 C 0.45736 0.12696 0.58644 0.0
C307 C 0.40447 0.19141 0.64667 0.0
C308 C 0.44014 0.26944 0.65573 0.0
N309 N 0.4409 0.14833 0.60471 0.0
N310 N 0.45462 0.24763 0.63569 0.0
H311 H 0.84102 0.2975 0.72438 0.0
H312 H 0.97378 0.49497 0.65293 0.0
H313 H 0.80269 0.39361 0.67386 0.0
H314 H 0.98469 0.39433 0.60227 0.0
H315 H 0.91724 0.45497 0.67918 0.0
H316 H 0.89876 0.32833 0.69301 0.0
C317 C 0.84448 0.32451 0.70573 0.0
C318 C 0.81757 0.34347 0.70192 0.0
C319 C 0.93233 0.44161 0.66277 0.0
C320 C 0.88307 0.37911 0.66786 0.0
C321 C 0.96487 0.46427 0.64817 0.0
C322 C 0.98413 0.44804 0.62523 0.0
C323 C 0.91912 0.40219 0.65529 0.0
C324 C 0.97069 0.40801 0.61977 0.0
C325 C 0.87731 0.34214 0.68824 0.0
C326 C 0.82314 0.37852 0.67782 0.0
N327 N 0.93891 0.3863 0.63475 0.0
N328 N 0.85559 0.3957 0.66255 0.0
H329 H 0.80334 0.80209 0.65123 0.0
H330 H 0.63296 0.86718 0.55281 0.0
H331 H 0.71925 0.73353 0.56656 0.0
H332 H 0.73385 0.94975 0.59821 0.0
H333 H 0.66432 0.81807 0.55721 0.0
H334 H 0.77965 0.85747 0.63136 0.0
C335 C 0.78034 0.79928 0.62769 0.0
C336 C 0.76302 0.7638 0.61027 0.0
C337 C 0.6797 0.84702 0.56586 0.0
C338 C 0.73525 0.82586 0.58826 0.0
C339 C 0.66179 0.87511 0.56348 0.0
C340 C 0.68085 0.91272 0.57505 0.0
C341 C 0.71674 0.85625 0.58098 0.0
C342 C 0.71808 0.92109 0.58911 0.0
C343 C 0.76679 0.83061 0.61643 0.0
C344 C 0.73316 0.76079 0.58029 0.0
N345 N 0.73477 0.89292 0.59208 0.0
N346 N 0.71976 0.79135 0.5706 0.0
H347 H 0.45213 0.32419 0.45739 0.0
H348 H 0.43017 0.10706 0.41084 0.0
H349 H 0.37032 0.26226 0.36608 0.0
H350 H 0.52737 0.18013 0.476 0.0
H351 H 0.40733 0.16315 0.39456 0.0
H352 H 0.48095 0.27214 0.46407 0.0
C353 C 0.441 0.29994 0.43796 0.0
C354 C 0.40931 0.29729 0.41089 0.0
C355 C 0.43372 0.16689 0.41228 0.0
C356 C 0.4409 0.23724 0.41911 0.0
C357 C 0.44668 0.13483 0.42181 0.0
C358 C 0.48062 0.13877 0.44513 0.0
C359 C 0.45469 0.20307 0.4265 0.0
C360 C 0.50092 0.17556 0.45827 0.0
C361 C 0.45713 0.27017 0.4419 0.0
C362 C 0.39512 0.26523 0.38681 0.0
N363 N 0.48754 0.20619 0.44902 0.0
N364 N 0.41074 0.23607 0.39185 0.0
H365 H 0.82163 0.29461 0.3146 0.0
H366 H 0.94449 0.48344 0.41979 0.0
H367 H 0.7806 0.38772 0.33561 0.0
H368 H 0.95694 0.37438 0.47313 0.0
H369 H 0.89072 0.44892 0.37567 0.0
H370 H 0.87619 0.32183 0.36344 0.0
C371 C 0.82395 0.32042 0.32996 0.0
C372 C 0.79722 0.33962 0.32038 0.0
C373 C 0.90523 0.43246 0.39691 0.0
C374 C 0.85927 0.37115 0.37483 0.0
C375 C 0.93585 0.45214 0.42211 0.0
C376 C 0.95458 0.43172 0.4507 0.0
C377 C 0.89344 0.39186 0.39964 0.0
C378 C 0.9431 0.39109 0.45137 0.0
C379 C 0.855 0.33597 0.35751 0.0
C380 C 0.80119 0.37282 0.34115 0.0
N381 N 0.91306 0.3723 0.42616 0.0
N382 N 0.83193 0.38794 0.3667 0.0
H383 H 0.79932 0.84374 0.36484 0.0
H384 H 0.62053 0.84549 0.46213 0.0
H385 H 0.70385 0.74573 0.37535 0.0
H386 H 0.71253 0.94796 0.45076 0.0
H387 H 0.65319 0.80846 0.43397 0.0
H388 H 0.77071 0.88246 0.39952 0.0
C389 C 0.77237 0.83056 0.37464 0.0
C390 C 0.75353 0.79192 0.36708 0.0
C391 C 0.66641 0.83903 0.4375 0.0
C392 C 0.72085 0.83528 0.40645 0.0
C393 C 0.64767 0.86034 0.45358 0.0
C394 C 0.66362 0.90011 0.4584 0.0
C395 C 0.70148 0.85743 0.42576 0.0
C396 C 0.6991 0.91744 0.44724 0.0
C397 C 0.75608 0.85247 0.3943 0.0
C398 C 0.71886 0.77566 0.38032 0.0
N399 N 0.71683 0.89601 0.43118 0.0
N400 N 0.7036 0.79743 0.39922 0.0
H401 H 0.30242 0.60152 0.35744 0.0
H402 H 0.11882 0.58372 0.44782 0.0
H403 H 0.26026 0.69929 0.34313 0.0
H404 H 0.13638 0.48863 0.39286 0.0
H405 H 0.17216 0.62789 0.41696 0.0
H406 H 0.24418 0.56033 0.37947 0.0
C407 C 0.28071 0.6142 0.35857 0.0
C408 C 0.28591 0.6537 0.34775 0.0
C409 C 0.16383 0.59742 0.41122 0.0
C410 C 0.21956 0.60702 0.37433 0.0
C411 C 0.13335 0.5722 0.42867 0.0
C412 C 0.12295 0.53226 0.42305 0.0
C413 C 0.18451 0.58245 0.38887 0.0
C414 C 0.14312 0.51907 0.39812 0.0
C415 C 0.24755 0.59076 0.37127 0.0
C416 C 0.25728 0.66896 0.35123 0.0
N417 N 0.17318 0.54393 0.38262 0.0
N418 N 0.22533 0.64565 0.36451 0.0
H419 H 0.43218 0.80927 0.77646 0.0
H420 H 0.49762 0.92635 0.571 0.0
H421 H 0.42339 0.75464 0.66296 0.0
H422 H 0.57298 0.95102 0.6818 0.0
H423 H 0.45895 0.87103 0.60892 0.0
H424 H 0.47646 0.86788 0.74743 0.0
C425 C 0.44034 0.80939 0.74594 0.0
C426 C 0.42421 0.77749 0.72178 0.0
C427 C 0.48376 0.8889 0.62501 0.0
C428 C 0.47283 0.84398 0.68815 0.0
C429 C 0.50568 0.92077 0.60356 0.0
C430 C 0.53874 0.9434 0.62316 0.0
C431 C 0.49442 0.87985 0.66666 0.0
C432 C 0.54779 0.93425 0.66545 0.0
C433 C 0.46517 0.84272 0.72932 0.0
C434 C 0.43514 0.77892 0.68223 0.0
N435 N 0.52571 0.90311 0.68592 0.0
N436 N 0.45813 0.81184 0.66631 0.0
H437 H 0.36227 0.3865 0.68898 0.0
H438 H 0.14988 0.34969 0.61667 0.0
H439 H 0.28342 0.27499 0.70713 0.0
H440 H 0.22823 0.46297 0.62727 0.0
H441 H 0.19715 0.32086 0.65027 0.0
H442 H 0.31261 0.4149 0.6678 0.0
C443 C 0.33443 0.36826 0.6897 0.0
C444 C 0.32686 0.32854 0.70039 0.0
C445 C 0.20374 0.35205 0.64555 0.0
C446 C 0.26961 0.3603 0.67435 0.0
C447 C 0.17676 0.36848 0.62644 0.0
C448 C 0.18503 0.40879 0.61899 0.0
C449 C 0.23917 0.37616 0.657 0.0
C450 C 0.22048 0.43173 0.63206 0.0
C451 C 0.30598 0.38429 0.67704 0.0
C452 C 0.29019 0.30582 0.69917 0.0
N453 N 0.24613 0.41513 0.65007 0.0
N454 N 0.26289 0.32189 0.68592 0.0
H455 H 0.75529 0.22381 0.74288 0.0
H456 H 0.64051 0.17243 0.52379 0.0
H457 H 0.74474 0.30887 0.64437 0.0
H458 H 0.6545 0.08543 0.61934 0.0
H459 H 0.68529 0.22187 0.56409 0.0
H460 H 0.72615 0.17225 0.69517 0.0
C461 C 0.74769 0.23148 0.71074 0.0
C462 C 0.75235 0.27036 0.69726 0.0
C463 C 0.67894 0.19198 0.57618 0.0
C464 C 0.71825 0.21192 0.64277 0.0
C465 C 0.65324 0.16363 0.55317 0.0
C466 C 0.64331 0.12468 0.56842 0.0
C467 C 0.69477 0.18159 0.61513 0.0
C468 C 0.66115 0.11509 0.60647 0.0
C469 C 0.73085 0.20217 0.68361 0.0
C470 C 0.74181 0.27915 0.65563 0.0
N471 N 0.68565 0.14342 0.62877 0.0
N472 N 0.72479 0.25014 0.62996 0.0
H473 H 0.85455 0.67676 0.68415 0.0
H474 H 0.90672 0.54227 0.53854 0.0
H475 H 0.78361 0.62845 0.57738 0.0
H476 H 0.98572 0.627 0.61384 0.0
H477 H 0.858 0.5635 0.56015 0.0
H478 H 0.89923 0.64632 0.66832 0.0
C479 C 0.84816 0.65884 0.65797 0.0
C480 C 0.81573 0.65495 0.63191 0.0
C481 C 0.88604 0.57734 0.57186 0.0
C482 C 0.86649 0.62087 0.61305 0.0
C483 C 0.91384 0.56538 0.55948 0.0
C484 C 0.95037 0.58314 0.57414 0.0
C485 C 0.89486 0.60668 0.5997 0.0
C486 C 0.958 0.61273 0.60145 0.0
C487 C 0.87369 0.64194 0.64862 0.0
C488 C 0.80858 0.63205 0.59793 0.0
N489 N 0.93047 0.62343 0.61349 0.0
N490 N 0.83394 0.61596 0.58923 0.0
H491 H 0.4496 0.38457 0.37392 0.0
H492 H 0.40365 0.43026 0.13043 0.0
H493 H 0.34394 0.33779 0.30741 0.0
H494 H 0.50453 0.48894 0.2012 0.0
H495 H 0.3825 0.39269 0.19364 0.0
H496 H 0.47268 0.41734 0.30891 0.0
C497 C 0.43166 0.38049 0.34525 0.0
C498 C 0.39503 0.35868 0.34556 0.0
C499 C 0.40922 0.41389 0.19534 0.0
C500 C 0.42047 0.39654 0.27168 0.0
C501 C 0.42122 0.43557 0.15928 0.0
C502 C 0.45597 0.46281 0.16038 0.0
C503 C 0.43216 0.41931 0.2328 0.0
C504 C 0.47755 0.46826 0.19875 0.0
C505 C 0.44454 0.39952 0.30835 0.0
C506 C 0.3724 0.35451 0.30803 0.0
N507 N 0.46538 0.44659 0.23332 0.0
N508 N 0.38538 0.37354 0.27259 0.0
H509 H 0.4592 0.72071 0.74853 0.0
H510 H 0.49567 0.6138 0.96699 0.0
H511 H 0.38895 0.70421 0.84491 0.0
H512 H 0.58103 0.66785 0.88812 0.0
H513 H 0.45596 0.64639 0.9231 0.0
H514 H 0.50467 0.70208 0.79916 0.0
C515 C 0.4538 0.71413 0.78059 0.0
C516 C 0.42039 0.71407 0.79268 0.0
C517 C 0.48357 0.65147 0.91578 0.0
C518 C 0.47152 0.69131 0.85047 0.0
C519 C 0.50628 0.63286 0.94086 0.0
C520 C 0.54181 0.63784 0.93132 0.0
C521 C 0.4962 0.67475 0.88047 0.0
C522 C 0.5539 0.66296 0.89687 0.0
C523 C 0.47956 0.70313 0.80944 0.0
C524 C 0.41435 0.70431 0.83445 0.0
N525 N 0.53105 0.67998 0.87248 0.0
N526 N 0.43936 0.69279 0.86171 0.0
H527 H 0.3688 0.31748 0.81022 0.0
H528 H 0.51636 0.5234 0.85215 0.0
H529 H 0.4306 0.39273 0.7181 0.0
H530 H 0.47488 0.44049 0.95162 0.0
H531 H 0.47511 0.48065 0.80233 0.0
H532 H 0.39768 0.36635 0.86166 0.0
C533 C 0.38765 0.34486 0.8007 0.0
C534 C 0.39696 0.35171 0.75993 0.0
C535 C 0.47468 0.47178 0.83503 0.0
C536 C 0.43049 0.40712 0.81815 0.0
C537 C 0.49825 0.4963 0.86364 0.0
C538 C 0.49952 0.4854 0.90627 0.0
C539 C 0.45201 0.43572 0.84876 0.0
C540 C 0.47495 0.45005 0.91909 0.0
C541 C 0.40436 0.3725 0.82999 0.0
C542 C 0.42232 0.38693 0.74911 0.0
N543 N 0.45247 0.42623 0.89041 0.0
N544 N 0.43821 0.41323 0.77797 0.0
H545 H 0.69114 0.35738 0.74139 0.0
H546 H 0.68829 0.4646 0.94369 0.0
H547 H 0.76623 0.35764 0.85108 0.0
H548 H 0.6088 0.45519 0.83618 0.0
H549 H 0.71774 0.42606 0.91091 0.0
H550 H 0.66039 0.39308 0.77633 0.0
C551 C 0.70077 0.36474 0.7731 0.0
C552 C 0.73097 0.35467 0.79363 0.0
C553 C 0.6938 0.43239 0.89459 0.0
C554 C 0.69662 0.39593 0.83373 0.0
C555 C 0.67702 0.45445 0.91325 0.0
C556 C 0.64596 0.46311 0.89273 0.0
C557 C 0.67949 0.41902 0.85506 0.0
C558 C 0.6326 0.44921 0.85329 0.0
C559 C 0.68345 0.38522 0.79301 0.0
C560 C 0.74295 0.36508 0.83446 0.0
N561 N 0.64943 0.42796 0.83581 0.0
N562 N 0.72583 0.38533 0.85321 0.0
H563 H 0.73528 0.60968 0.67524 0.0
H564 H 0.73624 0.62338 0.91724 0.0
H565 H 0.81452 0.69503 0.74839 0.0
H566 H 0.64664 0.55196 0.83985 0.0
H567 H 0.77386 0.63607 0.85998 0.0
H568 H 0.71242 0.57409 0.73915 0.0
C569 C 0.74882 0.61984 0.705 0.0
C570 C 0.77658 0.6551 0.70704 0.0
C571 C 0.74612 0.61717 0.85571 0.0
C572 C 0.75023 0.61577 0.77976 0.0
C573 C 0.72456 0.60996 0.88839 0.0
C574 C 0.6879 0.58736 0.88304 0.0
C575 C 0.73094 0.60178 0.81732 0.0
C576 C 0.67454 0.57019 0.84515 0.0
C577 C 0.73556 0.59995 0.74137 0.0
C578 C 0.79305 0.6678 0.74598 0.0
N579 N 0.69588 0.57822 0.81354 0.0
N580 N 0.77921 0.64852 0.78089 0.0
H581 H 0.72218 0.65345 0.31788 0.0
H582 H 0.65867 0.63397 0.07794 0.0
H583 H 0.78327 0.72947 0.22574 0.0
H584 H 0.61765 0.54554 0.17305 0.0
H585 H 0.70791 0.66716 0.12939 0.0
H586 H 0.68748 0.61052 0.26422 0.0
C587 C 0.72937 0.66 0.28644 0.0
C588 C 0.75648 0.69401 0.27628 0.0
C589 C 0.68838 0.64018 0.13871 0.0
C590 C 0.7151 0.64674 0.21382 0.0
C591 C 0.6603 0.62125 0.10936 0.0
C592 C 0.63358 0.58729 0.12133 0.0
C593 C 0.68955 0.62501 0.18017 0.0
C594 C 0.63716 0.57202 0.16247 0.0
C595 C 0.70914 0.63595 0.25556 0.0
C596 C 0.76317 0.70279 0.23465 0.0
N597 N 0.66423 0.59115 0.19034 0.0
N598 N 0.74224 0.67959 0.20473 0.0
H599 H 0.37854 0.71593 0.22292 0.0
H600 H 0.51873 0.59372 0.21828 0.0
H601 H 0.42679 0.66697 0.33264 0.0
H602 H 0.44731 0.61487 0.11139 0.0
H603 H 0.49309 0.62947 0.25941 0.0
H604 H 0.4129 0.6904 0.18047 0.0
C605 C 0.39769 0.70125 0.23807 0.0
C606 C 0.40054 0.69422 0.28129 0.0
C607 C 0.48302 0.62636 0.22696 0.0
C608 C 0.43888 0.66362 0.23315 0.0
C609 C 0.49761 0.60584 0.20337 0.0
C610 C 0.48507 0.60101 0.1612 0.0
C611 C 0.45588 0.64275 0.20834 0.0
C612 C 0.45764 0.61753 0.1438 0.0
C613 C 0.41672 0.68602 0.2139 0.0
C614 C 0.42462 0.67379 0.2995 0.0
N615 N 0.44407 0.63772 0.16737 0.0
N616 N 0.44265 0.65896 0.2754 0.0
H617 H 0.73996 0.36868 0.15513 0.0
H618 H 0.54219 0.40069 0.12132 0.0
H619 H 0.66248 0.33248 0.24532 0.0
H620 H 0.63107 0.47007 0.05361 0.0
H621 H 0.58271 0.36587 0.15895 0.0
H622 H 0.69756 0.39789 0.11029 0.0
C623 C 0.714 0.36696 0.16533 0.0
C624 C 0.70455 0.3484 0.2038 0.0
C625 C 0.59325 0.38852 0.13562 0.0
C626 C 0.65588 0.38068 0.15286 0.0
C627 C 0.57005 0.40826 0.11387 0.0
C628 C 0.58325 0.43859 0.08439 0.0
C629 C 0.62988 0.39885 0.12765 0.0
C630 C 0.61975 0.44711 0.07629 0.0
C631 C 0.68982 0.3834 0.13983 0.0
C632 C 0.67049 0.34633 0.21565 0.0
N633 N 0.64183 0.42745 0.09789 0.0
N634 N 0.64736 0.36219 0.19029 0.0
loop_
_geom_bond_atom_site_label_1
_geom_bond_atom_site_label_2
_geom_bond_distance
_geom_bond_site_symmetry_2
_ccdc_geom_bond_type
C0 N1 1.317 . S
C0 N2 1.348 . S
C0 C3 1.485 . S
N1 C0 1.317 . S
N1 N5 1.370 . S
N2 C0 1.348 . S
N2 C4 1.346 . S
C3 C0 1.485 . S
C3 H7 0.960 . S
C3 H8 0.961 . S
C3 H9 0.960 . S
C4 N2 1.346 . S
C4 N5 1.307 . S
C4 C6 1.486 . S
N5 N1 1.370 . S
N5 C4 1.307 . S
C6 C4 1.486 . S
C6 H10 0.960 . S
C6 H11 0.960 . S
C6 H12 0.959 . S
H7 C3 0.960 . S
H8 C3 0.961 . S
H9 C3 0.960 . S
H10 C6 0.960 . S
H11 C6 0.960 . S
H12 C6 0.959 . S
C13 N14 1.317 . S
C13 N15 1.348 . S
C13 C16 1.485 . S
N14 C13 1.317 . S
N14 N18 1.370 . S
N15 C13 1.348 . S
N15 C17 1.346 . S
C16 C13 1.485 . S
C16 H20 0.960 . S
C16 H21 0.961 . S
C16 H22 0.960 . S
C17 N15 1.346 . S
C17 N18 1.307 . S
C17 C19 1.486 . S
N18 N14 1.370 . S
N18 C17 1.307 . S
C19 C17 1.486 . S
C19 H23 0.960 . S
C19 H24 0.960 . S
C19 H25 0.959 . S
H20 C16 0.960 . S
H21 C16 0.961 . S
H22 C16 0.960 . S
H23 C19 0.960 . S
H24 C19 0.960 . S
H25 C19 0.959 . S
C26 N27 1.317 . S
C26 N28 1.348 . S
C26 C29 1.485 . S
N27 C26 1.317 . S
N27 N31 1.370 . S
N28 C26 1.348 . S
N28 C30 1.346 . S
C29 C26 1.485 . S
C29 H33 0.960 . S
C29 H34 0.961 . S
C29 H35 0.960 . S
C30 N28 1.346 . S
C30 N31 1.307 . S
C30 C32 1.486 . S
N31 N27 1.370 . S
N31 C30 1.307 . S
C32 C30 1.486 . S
C32 H36 0.960 . S
C32 H37 0.960 . S
C32 H38 0.959 . S
H33 C29 0.960 . S
H34 C29 0.961 . S
H35 C29 0.960 . S
H36 C32 0.960 . S
H37 C32 0.960 . S
H38 C32 0.959 . S
C39 N40 1.317 . S
C39 N41 1.348 . S
C39 C42 1.485 . S
N40 C39 1.317 . S
N40 N44 1.370 . S
N41 C39 1.348 . S
N41 C43 1.346 . S
C42 C39 1.485 . S
C42 H46 0.960 . S
C42 H47 0.961 . S
C42 H48 0.960 . S
C43 N41 1.346 . S
C43 N44 1.307 . S
C43 C45 1.486 . S
N44 N40 1.370 . S
N44 C43 1.307 . S
C45 C43 1.486 . S
C45 H49 0.960 . S
C45 H50 0.960 . S
C45 H51 0.959 . S
H46 C42 0.960 . S
H47 C42 0.961 . S
H48 C42 0.960 . S
H49 C45 0.960 . S
H50 C45 0.960 . S
H51 C45 0.959 . S
C52 N53 1.317 . S
C52 N54 1.348 . S
C52 C55 1.485 . S
N53 C52 1.317 . S
N53 N57 1.370 . S
N54 C52 1.348 . S
N54 C56 1.346 . S
C55 C52 1.485 . S
C55 H59 0.960 . S
C55 H60 0.961 . S
C55 H61 0.960 . S
C56 N54 1.346 . S
C56 N57 1.307 . S
C56 C58 1.486 . S
N57 N53 1.370 . S
N57 C56 1.307 . S
C58 C56 1.486 . S
C58 H62 0.960 . S
C58 H63 0.960 . S
C58 H64 0.959 . S
H59 C55 0.960 . S
H60 C55 0.961 . S
H61 C55 0.960 . S
H62 C58 0.960 . S
H63 C58 0.960 . S
H64 C58 0.959 . S
C65 N66 1.317 . S
C65 N67 1.348 . S
C65 C68 1.485 . S
N66 C65 1.317 . S
N66 N70 1.370 . S
N67 C65 1.348 . S
N67 C69 1.346 . S
C68 C65 1.485 . S
C68 H72 0.960 . S
C68 H73 0.961 . S
C68 H74 0.960 . S
C69 N67 1.346 . S
C69 N70 1.307 . S
C69 C71 1.486 . S
N70 N66 1.370 . S
N70 C69 1.307 . S
C71 C69 1.486 . S
C71 H75 0.960 . S
C71 H76 0.960 . S
C71 H77 0.959 . S
H72 C68 0.960 . S
H73 C68 0.961 . S
H74 C68 0.960 . S
H75 C71 0.960 . S
H76 C71 0.960 . S
H77 C71 0.959 . S
C78 N79 1.317 . S
C78 N80 1.348 . S
C78 C81 1.485 . S
N79 C78 1.317 . S
N79 N83 1.370 . S
N80 C78 1.348 . S
N80 C82 1.346 . S
C81 C78 1.485 . S
C81 H85 0.960 . S
C81 H86 0.961 . S
C81 H87 0.960 . S
C82 N80 1.346 . S
C82 N83 1.307 . S
C82 C84 1.486 . S
N83 N79 1.370 . S
N83 C82 1.307 . S
C84 C82 1.486 . S
C84 H88 0.960 . S
C84 H89 0.960 . S
C84 H90 0.959 . S
H85 C81 0.960 . S
H86 C81 0.961 . S
H87 C81 0.960 . S
H88 C84 0.960 . S
H89 C84 0.960 . S
H90 C84 0.959 . S
C91 N92 1.317 . S
C91 N93 1.348 . S
C91 C94 1.485 . S
N92 C91 1.317 . S
N92 N96 1.370 . S
N93 C91 1.348 . S
N93 C95 1.346 . S
C94 C91 1.485 . S
C94 H98 0.960 . S
C94 H99 0.961 . S
C94 H100 0.960 . S
C95 N93 1.346 . S
C95 N96 1.307 . S
C95 C97 1.486 . S
N96 N92 1.370 . S
N96 C95 1.307 . S
C97 C95 1.486 . S
C97 H101 0.960 . S
C97 H102 0.960 . S
C97 H103 0.959 . S
H98 C94 0.960 . S
H99 C94 0.961 . S
H100 C94 0.960 . S
H101 C97 0.960 . S
H102 C97 0.960 . S
H103 C97 0.959 . S
Co104 O107 2.042 . S
Co104 O114 2.264 . S
Co104 O133 2.286 . S
Co104 O134 2.069 . S
Co104 O136 2.015 . S
Co105 O107 2.122 . S
Co105 O113 2.073 . S
Co105 O114 2.327 . S
Co105 O115 1.976 . S
Co106 O107 2.087 . S
Co106 O109 2.087 . S
Co106 O116 2.111 . S
Co106 O117 2.143 1_455 S
Co106 O121 2.111 . S
Co106 O135 2.143 . S
O107 Co104 2.042 . S
O107 Co105 2.122 . S
O107 Co106 2.087 . S
O107 H108 0.980 . S
H108 O107 0.980 . S
O109 Co106 2.087 . S
O109 Co110 2.042 1_455 S
O109 Co111 2.122 1_455 S
O109 H112 0.980 . S
Co110 O109 2.042 1_655 S
Co110 O118 2.286 . S
Co110 O119 2.069 . S
Co110 O120 2.015 . S
Co110 O123 2.264 . S
Co111 O109 2.122 1_655 S
Co111 O122 1.976 . S
Co111 O123 2.327 . S
Co111 O124 2.073 . S
H112 O109 0.980 . S
O113 Co105 2.073 . S
O113 C128 1.245 . S
O114 Co104 2.264 . S
O114 Co105 2.327 . S
O114 C128 1.257 . S
O115 Co105 1.976 . S
O115 C127 1.251 . S
O116 Co106 2.111 . S
O116 C127 1.274 . S
O117 Co106 2.143 1_655 S
O117 C130 1.246 . S
O118 Co110 2.286 . S
O118 C129 1.259 . S
O119 Co110 2.069 . S
O119 C129 1.289 . S
O120 Co110 2.015 . S
O120 C130 1.257 . S
O121 Co106 2.111 . S
O121 C131 1.274 1_455 S
O122 Co111 1.976 . S
O122 C131 1.251 . S
O123 Co110 2.264 . S
O123 Co111 2.327 . S
O123 C132 1.257 . S
O124 Co111 2.073 . S
O124 C132 1.245 . S
C125 O133 1.259 . S
C125 O134 1.289 . S
C126 O135 1.246 . S
C126 O136 1.257 . S
C127 O115 1.251 . S
C127 O116 1.274 . S
C128 O113 1.245 . S
C128 O114 1.257 . S
C129 O118 1.259 . S
C129 O119 1.289 . S
C130 O117 1.246 . S
C130 O120 1.257 . S
C131 O121 1.274 1_655 S
C131 O122 1.251 . S
C132 O123 1.257 . S
C132 O124 1.245 . S
O133 Co104 2.286 . S
O133 C125 1.259 . S
O134 Co104 2.069 . S
O134 C125 1.289 . S
O135 Co106 2.143 . S
O135 C126 1.246 . S
O136 Co104 2.015 . S
O136 C126 1.257 . S
Co137 O140 2.042 . S
Co137 O147 2.264 . S
Co137 O166 2.286 . S
Co137 O167 2.069 . S
Co137 O169 2.015 . S
Co138 O140 2.122 . S
Co138 O146 2.073 . S
Co138 O147 2.327 . S
Co138 O148 1.976 . S
Co139 O140 2.087 1_545 S
Co139 O142 2.087 . S
Co139 O149 2.111 1_545 S
Co139 O150 2.143 . S
Co139 O154 2.111 . S
Co139 O168 2.143 1_545 S
O140 Co137 2.042 . S
O140 Co138 2.122 . S
O140 Co139 2.087 1_565 S
O140 H141 0.980 1_565 S
H141 O140 0.980 1_545 S
O142 Co139 2.087 . S
O142 Co143 2.042 . S
O142 Co144 2.122 . S
O142 H145 0.980 . S
Co143 O142 2.042 . S
Co143 O151 2.286 . S
Co143 O152 2.069 . S
Co143 O153 2.015 . S
Co143 O156 2.264 . S
Co144 O142 2.122 . S
Co144 O155 1.976 . S
Co144 O156 2.327 . S
Co144 O157 2.073 . S
H145 O142 0.980 . S
O146 Co138 2.073 . S
O146 C161 1.245 . S
O147 Co137 2.264 . S
O147 Co138 2.327 . S
O147 C161 1.257 . S
O148 Co138 1.976 . S
O148 C160 1.251 . S
O149 Co139 2.111 1_565 S
O149 C160 1.274 . S
O150 Co139 2.143 . S
O150 C163 1.246 . S
O151 Co143 2.286 . S
O151 C162 1.259 . S
O152 Co143 2.069 . S
O152 C162 1.289 . S
O153 Co143 2.015 . S
O153 C163 1.257 . S
O154 Co139 2.111 . S
O154 C164 1.274 . S
O155 Co144 1.976 . S
O155 C164 1.251 . S
O156 Co143 2.264 . S
O156 Co144 2.327 . S
O156 C165 1.257 . S
O157 Co144 2.073 . S
O157 C165 1.245 . S
C158 O166 1.259 . S
C158 O167 1.289 . S
C159 O168 1.246 . S
C159 O169 1.257 . S
C160 O148 1.251 . S
C160 O149 1.274 . S
C161 O146 1.245 . S
C161 O147 1.257 . S
C162 O151 1.259 . S
C162 O152 1.289 . S
C163 O150 1.246 . S
C163 O153 1.257 . S
C164 O154 1.274 . S
C164 O155 1.251 . S
C165 O156 1.257 . S
C165 O157 1.245 . S
O166 Co137 2.286 . S
O166 C158 1.259 . S
O167 Co137 2.069 . S
O167 C158 1.289 . S
O168 Co139 2.143 1_565 S
O168 C159 1.246 . S
O169 Co137 2.015 . S
O169 C159 1.257 . S
Co170 O173 2.042 . S
Co170 O180 2.264 . S
Co170 O199 2.286 . S
Co170 O200 2.069 . S
Co170 O202 2.015 . S
Co171 O173 2.122 . S
Co171 O179 2.073 . S
Co171 O180 2.327 . S
Co171 O181 1.976 . S
Co172 O173 2.087 . S
Co172 O175 2.087 1_554 S
Co172 O182 2.111 . S
Co172 O183 2.143 1_554 S
Co172 O187 2.111 1_554 S
Co172 O201 2.143 . S
O173 Co170 2.042 . S
O173 Co171 2.122 . S
O173 Co172 2.087 . S
O173 H174 0.980 . S
H174 O173 0.980 . S
O175 Co172 2.087 1_556 S
O175 Co176 2.042 . S
O175 Co177 2.122 . S
O175 H178 0.980 . S
Co176 O175 2.042 . S
Co176 O184 2.286 . S
Co176 O185 2.069 . S
Co176 O186 2.015 . S
Co176 O189 2.264 . S
Co177 O175 2.122 . S
Co177 O188 1.976 . S
Co177 O189 2.327 . S
Co177 O190 2.073 . S
H178 O175 0.980 . S
O179 Co171 2.073 . S
O179 C194 1.245 . S
O180 Co170 2.264 . S
O180 Co171 2.327 . S
O180 C194 1.257 . S
O181 Co171 1.976 . S
O181 C193 1.251 . S
O182 Co172 2.111 . S
O182 C193 1.274 . S
O183 Co172 2.143 1_556 S
O183 C196 1.246 . S
O184 Co176 2.286 . S
O184 C195 1.259 . S
O185 Co176 2.069 . S
O185 C195 1.289 . S
O186 Co176 2.015 . S
O186 C196 1.257 . S
O187 Co172 2.111 1_556 S
O187 C197 1.274 . S
O188 Co177 1.976 . S
O188 C197 1.251 . S
O189 Co176 2.264 . S
O189 Co177 2.327 . S
O189 C198 1.257 . S
O190 Co177 2.073 . S
O190 C198 1.245 . S
C191 O199 1.259 . S
C191 O200 1.289 . S
C192 O201 1.246 . S
C192 O202 1.257 . S
C193 O181 1.251 . S
C193 O182 1.274 . S
C194 O179 1.245 . S
C194 O180 1.257 . S
C195 O184 1.259 . S
C195 O185 1.289 . S
C196 O183 1.246 . S
C196 O186 1.257 . S
C197 O187 1.274 . S
C197 O188 1.251 . S
C198 O189 1.257 . S
C198 O190 1.245 . S
O199 Co170 2.286 . S
O199 C191 1.259 . S
O200 Co170 2.069 . S
O200 C191 1.289 . S
O201 Co172 2.143 . S
O201 C192 1.246 . S
O202 Co170 2.015 . S
O202 C192 1.257 . S
H203 C209 0.930 . S
H204 C213 0.930 . S
H205 C218 0.929 . S
H206 C216 0.929 . S
H207 C211 0.929 . S
H208 C217 0.929 . S
C209 H203 0.930 . S
C209 C210 1.367 . S
C209 C217 1.378 . S
C210 C209 1.367 . S
C210 C218 1.433 . S
C211 H207 0.929 . S
C211 C213 1.378 . S
C211 C215 1.350 . S
C212 C215 1.463 . S
C212 C217 1.350 . S
C212 N220 1.427 . S
C213 H204 0.930 . S
C213 C211 1.378 . S
C213 C214 1.367 . S
C214 C213 1.367 . S
C214 C216 1.433 . S
C215 C211 1.350 . S
C215 C212 1.463 . S
C215 N219 1.427 . S
C216 H206 0.929 . S
C216 C214 1.433 . S
C216 N219 1.384 . S
C217 H208 0.929 . S
C217 C209 1.378 . S
C217 C212 1.350 . S
C218 H205 0.929 . S
C218 C210 1.433 . S
C218 N220 1.384 . S
N219 C215 1.427 . S
N219 C216 1.384 . S
N220 C212 1.427 . S
N220 C218 1.384 . S
H221 C227 0.930 . S
H222 C231 0.930 . S
H223 C236 0.929 . S
H224 C234 0.929 . S
H225 C229 0.929 . S
H226 C235 0.929 . S
C227 H221 0.930 . S
C227 C228 1.367 . S
C227 C235 1.378 . S
C228 C227 1.367 . S
C228 C236 1.433 . S
C229 H225 0.929 . S
C229 C231 1.378 . S
C229 C233 1.350 . S
C230 C233 1.463 . S
C230 C235 1.350 . S
C230 N238 1.427 . S
C231 H222 0.930 . S
C231 C229 1.378 . S
C231 C232 1.367 . S
C232 C231 1.367 . S
C232 C234 1.433 . S
C233 C229 1.350 . S
C233 C230 1.463 . S
C233 N237 1.427 . S
C234 H224 0.929 . S
C234 C232 1.433 . S
C234 N237 1.384 . S
C235 H226 0.929 . S
C235 C227 1.378 . S
C235 C230 1.350 . S
C236 H223 0.929 . S
C236 C228 1.433 . S
C236 N238 1.384 . S
N237 C233 1.427 . S
N237 C234 1.384 . S
N238 C230 1.427 . S
N238 C236 1.384 . S
H239 C245 0.930 . S
H240 C249 0.930 . S
H241 C254 0.929 . S
H242 C252 0.929 . S
H243 C247 0.929 . S
H244 C253 0.929 . S
C245 H239 0.930 . S
C245 C246 1.367 . S
C245 C253 1.378 . S
C246 C245 1.367 . S
C246 C254 1.433 . S
C247 H243 0.929 . S
C247 C249 1.378 . S
C247 C251 1.350 . S
C248 C251 1.463 . S
C248 C253 1.350 . S
C248 N256 1.427 . S
C249 H240 0.930 . S
C249 C247 1.378 . S
C249 C250 1.367 . S
C250 C249 1.367 . S
C250 C252 1.433 . S
C251 C247 1.350 . S
C251 C248 1.463 . S
C251 N255 1.427 . S
C252 H242 0.929 . S
C252 C250 1.433 . S
C252 N255 1.384 . S
C253 H244 0.929 . S
C253 C245 1.378 . S
C253 C248 1.350 . S
C254 H241 0.929 . S
C254 C246 1.433 . S
C254 N256 1.384 . S
N255 C251 1.427 . S
N255 C252 1.384 . S
N256 C248 1.427 . S
N256 C254 1.384 . S
H257 C263 0.930 . S
H258 C267 0.930 . S
H259 C272 0.929 . S
H260 C270 0.929 . S
H261 C265 0.929 . S
H262 C271 0.929 . S
C263 H257 0.930 . S
C263 C264 1.367 . S
C263 C271 1.378 . S
C264 C263 1.367 . S
C264 C272 1.433 . S
C265 H261 0.929 . S
C265 C267 1.378 . S
C265 C269 1.350 . S
C266 C269 1.463 . S
C266 C271 1.350 . S
C266 N274 1.427 . S
C267 H258 0.930 . S
C267 C265 1.378 . S
C267 C268 1.367 . S
C268 C267 1.367 . S
C268 C270 1.433 . S
C269 C265 1.350 . S
C269 C266 1.463 . S
C269 N273 1.427 . S
C270 H260 0.929 . S
C270 C268 1.433 . S
C270 N273 1.384 . S
C271 H262 0.929 . S
C271 C263 1.378 . S
C271 C266 1.350 . S
C272 H259 0.929 . S
C272 C264 1.433 . S
C272 N274 1.384 . S
N273 C269 1.427 . S
N273 C270 1.384 . S
N274 C266 1.427 . S
N274 C272 1.384 . S
H275 C281 0.930 . S
H276 C285 0.930 . S
H277 C290 0.929 . S
H278 C288 0.929 . S
H279 C283 0.929 . S
H280 C289 0.929 . S
C281 H275 0.930 . S
C281 C282 1.367 . S
C281 C289 1.378 . S
C282 C281 1.367 . S
C282 C290 1.433 . S
C283 H279 0.929 . S
C283 C285 1.378 . S
C283 C287 1.350 . S
C284 C287 1.463 . S
C284 C289 1.350 . S
C284 N292 1.427 . S
C285 H276 0.930 . S
C285 C283 1.378 . S
C285 C286 1.367 . S
C286 C285 1.367 . S
C286 C288 1.433 . S
C287 C283 1.350 . S
C287 C284 1.463 . S
C287 N291 1.427 . S
C288 H278 0.929 . S
C288 C286 1.433 . S
C288 N291 1.384 . S
C289 H280 0.929 . S
C289 C281 1.378 . S
C289 C284 1.350 . S
C290 H277 0.929 . S
C290 C282 1.433 . S
C290 N292 1.384 . S
N291 C287 1.427 . S
N291 C288 1.384 . S
N292 C284 1.427 . S
N292 C290 1.384 . S
H293 C299 0.930 . S
H294 C303 0.930 . S
H295 C308 0.929 . S
H296 C306 0.929 . S
H297 C301 0.929 . S
H298 C307 0.929 . S
C299 H293 0.930 . S
C299 C300 1.367 . S
C299 C307 1.378 . S
C300 C299 1.367 . S
C300 C308 1.433 . S
C301 H297 0.929 . S
C301 C303 1.378 . S
C301 C305 1.350 . S
C302 C305 1.463 . S
C302 C307 1.350 . S
C302 N310 1.427 . S
C303 H294 0.930 . S
C303 C301 1.378 . S
C303 C304 1.367 . S
C304 C303 1.367 . S
C304 C306 1.433 . S
C305 C301 1.350 . S
C305 C302 1.463 . S
C305 N309 1.427 . S
C306 H296 0.929 . S
C306 C304 1.433 . S
C306 N309 1.384 . S
C307 H298 0.929 . S
C307 C299 1.378 . S
C307 C302 1.350 . S
C308 H295 0.929 . S
C308 C300 1.433 . S
C308 N310 1.384 . S
N309 C305 1.427 . S
N309 C306 1.384 . S
N310 C302 1.427 . S
N310 C308 1.384 . S
H311 C317 0.930 . S
H312 C321 0.930 . S
H313 C326 0.929 . S
H314 C324 0.929 . S
H315 C319 0.929 . S
H316 C325 0.929 . S
C317 H311 0.930 . S
C317 C318 1.367 . S
C317 C325 1.378 . S
C318 C317 1.367 . S
C318 C326 1.433 . S
C319 H315 0.929 . S
C319 C321 1.378 . S
C319 C323 1.350 . S
C320 C323 1.463 . S
C320 C325 1.350 . S
C320 N328 1.427 . S
C321 H312 0.930 . S
C321 C319 1.378 . S
C321 C322 1.367 . S
C322 C321 1.367 . S
C322 C324 1.433 . S
C323 C319 1.350 . S
C323 C320 1.463 . S
C323 N327 1.427 . S
C324 H314 0.929 . S
C324 C322 1.433 . S
C324 N327 1.384 . S
C325 H316 0.929 . S
C325 C317 1.378 . S
C325 C320 1.350 . S
C326 H313 0.929 . S
C326 C318 1.433 . S
C326 N328 1.384 . S
N327 C323 1.427 . S
N327 C324 1.384 . S
N328 C320 1.427 . S
N328 C326 1.384 . S
H329 C335 0.930 . S
H330 C339 0.930 . S
H331 C344 0.929 . S
H332 C342 0.929 . S
H333 C337 0.929 . S
H334 C343 0.929 . S
C335 H329 0.930 . S
C335 C336 1.367 . S
C335 C343 1.378 . S
C336 C335 1.367 . S
C336 C344 1.433 . S
C337 H333 0.929 . S
C337 C339 1.378 . S
C337 C341 1.350 . S
C338 C341 1.463 . S
C338 C343 1.350 . S
C338 N346 1.427 . S
C339 H330 0.930 . S
C339 C337 1.378 . S
C339 C340 1.367 . S
C340 C339 1.367 . S
C340 C342 1.433 . S
C341 C337 1.350 . S
C341 C338 1.463 . S
C341 N345 1.427 . S
C342 H332 0.929 . S
C342 C340 1.433 . S
C342 N345 1.384 . S
C343 H334 0.929 . S
C343 C335 1.378 . S
C343 C338 1.350 . S
C344 H331 0.929 . S
C344 C336 1.433 . S
C344 N346 1.384 . S
N345 C341 1.427 . S
N345 C342 1.384 . S
N346 C338 1.427 . S
N346 C344 1.384 . S
H347 C353 0.930 . S
H348 C357 0.930 . S
H349 C362 0.929 . S
H350 C360 0.929 . S
H351 C355 0.929 . S
H352 C361 0.929 . S
C353 H347 0.930 . S
C353 C354 1.367 . S
C353 C361 1.378 . S
C354 C353 1.367 . S
C354 C362 1.433 . S
C355 H351 0.929 . S
C355 C357 1.378 . S
C355 C359 1.350 . S
C356 C359 1.463 . S
C356 C361 1.350 . S
C356 N364 1.427 . S
C357 H348 0.930 . S
C357 C355 1.378 . S
C357 C358 1.367 . S
C358 C357 1.367 . S
C358 C360 1.433 . S
C359 C355 1.350 . S
C359 C356 1.463 . S
C359 N363 1.427 . S
C360 H350 0.929 . S
C360 C358 1.433 . S
C360 N363 1.384 . S
C361 H352 0.929 . S
C361 C353 1.378 . S
C361 C356 1.350 . S
C362 H349 0.929 . S
C362 C354 1.433 . S
C362 N364 1.384 . S
N363 C359 1.427 . S
N363 C360 1.384 . S
N364 C356 1.427 . S
N364 C362 1.384 . S
H365 C371 0.930 . S
H366 C375 0.930 . S
H367 C380 0.929 . S
H368 C378 0.929 . S
H369 C373 0.929 . S
H370 C379 0.929 . S
C371 H365 0.930 . S
C371 C372 1.367 . S
C371 C379 1.378 . S
C372 C371 1.367 . S
C372 C380 1.433 . S
C373 H369 0.929 . S
C373 C375 1.378 . S
C373 C377 1.350 . S
C374 C377 1.463 . S
C374 C379 1.350 . S
C374 N382 1.427 . S
C375 H366 0.930 . S
C375 C373 1.378 . S
C375 C376 1.367 . S
C376 C375 1.367 . S
C376 C378 1.433 . S
C377 C373 1.350 . S
C377 C374 1.463 . S
C377 N381 1.427 . S
C378 H368 0.929 . S
C378 C376 1.433 . S
C378 N381 1.384 . S
C379 H370 0.929 . S
C379 C371 1.378 . S
C379 C374 1.350 . S
C380 H367 0.929 . S
C380 C372 1.433 . S
C380 N382 1.384 . S
N381 C377 1.427 . S
N381 C378 1.384 . S
N382 C374 1.427 . S
N382 C380 1.384 . S
H383 C389 0.930 . S
H384 C393 0.930 . S
H385 C398 0.929 . S
H386 C396 0.929 . S
H387 C391 0.929 . S
H388 C397 0.929 . S
C389 H383 0.930 . S
C389 C390 1.367 . S
C389 C397 1.378 . S
C390 C389 1.367 . S
C390 C398 1.433 . S
C391 H387 0.929 . S
C391 C393 1.378 . S
C391 C395 1.350 . S
C392 C395 1.463 . S
C392 C397 1.350 . S
C392 N400 1.427 . S
C393 H384 0.930 . S
C393 C391 1.378 . S
C393 C394 1.367 . S
C394 C393 1.367 . S
C394 C396 1.433 . S
C395 C391 1.350 . S
C395 C392 1.463 . S
C395 N399 1.427 . S
C396 H386 0.929 . S
C396 C394 1.433 . S
C396 N399 1.384 . S
C397 H388 0.929 . S
C397 C389 1.378 . S
C397 C392 1.350 . S
C398 H385 0.929 . S
C398 C390 1.433 . S
C398 N400 1.384 . S
N399 C395 1.427 . S
N399 C396 1.384 . S
N400 C392 1.427 . S
N400 C398 1.384 . S
H401 C407 0.930 . S
H402 C411 0.930 . S
H403 C416 0.929 . S
H404 C414 0.929 . S
H405 C409 0.929 . S
H406 C415 0.929 . S
C407 H401 0.930 . S
C407 C408 1.367 . S
C407 C415 1.378 . S
C408 C407 1.367 . S
C408 C416 1.433 . S
C409 H405 0.929 . S
C409 C411 1.378 . S
C409 C413 1.350 . S
C410 C413 1.463 . S
C410 C415 1.350 . S
C410 N418 1.427 . S
C411 H402 0.930 . S
C411 C409 1.378 . S
C411 C412 1.367 . S
C412 C411 1.367 . S
C412 C414 1.433 . S
C413 C409 1.350 . S
C413 C410 1.463 . S
C413 N417 1.427 . S
C414 H404 0.929 . S
C414 C412 1.433 . S
C414 N417 1.384 . S
C415 H406 0.929 . S
C415 C407 1.378 . S
C415 C410 1.350 . S
C416 H403 0.929 . S
C416 C408 1.433 . S
C416 N418 1.384 . S
N417 C413 1.427 . S
N417 C414 1.384 . S
N418 C410 1.427 . S
N418 C416 1.384 . S
H419 C425 0.930 . S
H420 C429 0.930 . S
H421 C434 0.929 . S
H422 C432 0.929 . S
H423 C427 0.929 . S
H424 C433 0.929 . S
C425 H419 0.930 . S
C425 C426 1.367 . S
C425 C433 1.378 . S
C426 C425 1.367 . S
C426 C434 1.433 . S
C427 H423 0.929 . S
C427 C429 1.378 . S
C427 C431 1.350 . S
C428 C431 1.463 . S
C428 C433 1.350 . S
C428 N436 1.427 . S
C429 H420 0.930 . S
C429 C427 1.378 . S
C429 C430 1.367 . S
C430 C429 1.367 . S
C430 C432 1.433 . S
C431 C427 1.350 . S
C431 C428 1.463 . S
C431 N435 1.427 . S
C432 H422 0.929 . S
C432 C430 1.433 . S
C432 N435 1.384 . S
C433 H424 0.929 . S
C433 C425 1.378 . S
C433 C428 1.350 . S
C434 H421 0.929 . S
C434 C426 1.433 . S
C434 N436 1.384 . S
N435 C431 1.427 . S
N435 C432 1.384 . S
N436 C428 1.427 . S
N436 C434 1.384 . S
H437 C443 0.930 . S
H438 C447 0.930 . S
H439 C452 0.929 . S
H440 C450 0.929 . S
H441 C445 0.929 . S
H442 C451 0.929 . S
C443 H437 0.930 . S
C443 C444 1.367 . S
C443 C451 1.378 . S
C444 C443 1.367 . S
C444 C452 1.433 . S
C445 H441 0.929 . S
C445 C447 1.378 . S
C445 C449 1.350 . S
C446 C449 1.463 . S
C446 C451 1.350 . S
C446 N454 1.427 . S
C447 H438 0.930 . S
C447 C445 1.378 . S
C447 C448 1.367 . S
C448 C447 1.367 . S
C448 C450 1.433 . S
C449 C445 1.350 . S
C449 C446 1.463 . S
C449 N453 1.427 . S
C450 H440 0.929 . S
C450 C448 1.433 . S
C450 N453 1.384 . S
C451 H442 0.929 . S
C451 C443 1.378 . S
C451 C446 1.350 . S
C452 H439 0.929 . S
C452 C444 1.433 . S
C452 N454 1.384 . S
N453 C449 1.427 . S
N453 C450 1.384 . S
N454 C446 1.427 . S
N454 C452 1.384 . S
H455 C461 0.930 . S
H456 C465 0.930 . S
H457 C470 0.929 . S
H458 C468 0.929 . S
H459 C463 0.929 . S
H460 C469 0.929 . S
C461 H455 0.930 . S
C461 C462 1.367 . S
C461 C469 1.378 . S
C462 C461 1.367 . S
C462 C470 1.433 . S
C463 H459 0.929 . S
C463 C465 1.378 . S
C463 C467 1.350 . S
C464 C467 1.463 . S
C464 C469 1.350 . S
C464 N472 1.427 . S
C465 H456 0.930 . S
C465 C463 1.378 . S
C465 C466 1.367 . S
C466 C465 1.367 . S
C466 C468 1.433 . S
C467 C463 1.350 . S
C467 C464 1.463 . S
C467 N471 1.427 . S
C468 H458 0.929 . S
C468 C466 1.433 . S
C468 N471 1.384 . S
C469 H460 0.929 . S
C469 C461 1.378 . S
C469 C464 1.350 . S
C470 H457 0.929 . S
C470 C462 1.433 . S
C470 N472 1.384 . S
N471 C467 1.427 . S
N471 C468 1.384 . S
N472 C464 1.427 . S
N472 C470 1.384 . S
H473 C479 0.930 . S
H474 C483 0.930 . S
H475 C488 0.929 . S
H476 C486 0.929 . S
H477 C481 0.929 . S
H478 C487 0.929 . S
C479 H473 0.930 . S
C479 C480 1.367 . S
C479 C487 1.378 . S
C480 C479 1.367 . S
C480 C488 1.433 . S
C481 H477 0.929 . S
C481 C483 1.378 . S
C481 C485 1.350 . S
C482 C485 1.463 . S
C482 C487 1.350 . S
C482 N490 1.427 . S
C483 H474 0.930 . S
C483 C481 1.378 . S
C483 C484 1.367 . S
C484 C483 1.367 . S
C484 C486 1.433 . S
C485 C481 1.350 . S
C485 C482 1.463 . S
C485 N489 1.427 . S
C486 H476 0.929 . S
C486 C484 1.433 . S
C486 N489 1.384 . S
C487 H478 0.929 . S
C487 C479 1.378 . S
C487 C482 1.350 . S
C488 H475 0.929 . S
C488 C480 1.433 . S
C488 N490 1.384 . S
N489 C485 1.427 . S
N489 C486 1.384 . S
N490 C482 1.427 . S
N490 C488 1.384 . S
H491 C497 0.930 . S
H492 C501 0.930 . S
H493 C506 0.929 . S
H494 C504 0.929 . S
H495 C499 0.929 . S
H496 C505 0.929 . S
C497 H491 0.930 . S
C497 C498 1.367 . S
C497 C505 1.378 . S
C498 C497 1.367 . S
C498 C506 1.433 . S
C499 H495 0.929 . S
C499 C501 1.378 . S
C499 C503 1.350 . S
C500 C503 1.463 . S
C500 C505 1.350 . S
C500 N508 1.427 . S
C501 H492 0.930 . S
C501 C499 1.378 . S
C501 C502 1.367 . S
C502 C501 1.367 . S
C502 C504 1.433 . S
C503 C499 1.350 . S
C503 C500 1.463 . S
C503 N507 1.427 . S
C504 H494 0.929 . S
C504 C502 1.433 . S
C504 N507 1.384 . S
C505 H496 0.929 . S
C505 C497 1.378 . S
C505 C500 1.350 . S
C506 H493 0.929 . S
C506 C498 1.433 . S
C506 N508 1.384 . S
N507 C503 1.427 . S
N507 C504 1.384 . S
N508 C500 1.427 . S
N508 C506 1.384 . S
H509 C515 0.930 . S
H510 C519 0.930 . S
H511 C524 0.929 . S
H512 C522 0.929 . S
H513 C517 0.929 . S
H514 C523 0.929 . S
C515 H509 0.930 . S
C515 C516 1.367 . S
C515 C523 1.378 . S
C516 C515 1.367 . S
C516 C524 1.433 . S
C517 H513 0.929 . S
C517 C519 1.378 . S
C517 C521 1.350 . S
C518 C521 1.463 . S
C518 C523 1.350 . S
C518 N526 1.427 . S
C519 H510 0.930 . S
C519 C517 1.378 . S
C519 C520 1.367 . S
C520 C519 1.367 . S
C520 C522 1.433 . S
C521 C517 1.350 . S
C521 C518 1.463 . S
C521 N525 1.427 . S
C522 H512 0.929 . S
C522 C520 1.433 . S
C522 N525 1.384 . S
C523 H514 0.929 . S
C523 C515 1.378 . S
C523 C518 1.350 . S
C524 H511 0.929 . S
C524 C516 1.433 . S
C524 N526 1.384 . S
N525 C521 1.427 . S
N525 C522 1.384 . S
N526 C518 1.427 . S
N526 C524 1.384 . S
H527 C533 0.930 . S
H528 C537 0.930 . S
H529 C542 0.929 . S
H530 C540 0.929 . S
H531 C535 0.929 . S
H532 C541 0.929 . S
C533 H527 0.930 . S
C533 C534 1.367 . S
C533 C541 1.378 . S
C534 C533 1.367 . S
C534 C542 1.433 . S
C535 H531 0.929 . S
C535 C537 1.378 . S
C535 C539 1.350 . S
C536 C539 1.463 . S
C536 C541 1.350 . S
C536 N544 1.427 . S
C537 H528 0.930 . S
C537 C535 1.378 . S
C537 C538 1.367 . S
C538 C537 1.367 . S
C538 C540 1.433 . S
C539 C535 1.350 . S
C539 C536 1.463 . S
C539 N543 1.427 . S
C540 H530 0.929 . S
C540 C538 1.433 . S
C540 N543 1.384 . S
C541 H532 0.929 . S
C541 C533 1.378 . S
C541 C536 1.350 . S
C542 H529 0.929 . S
C542 C534 1.433 . S
C542 N544 1.384 . S
N543 C539 1.427 . S
N543 C540 1.384 . S
N544 C536 1.427 . S
N544 C542 1.384 . S
H545 C551 0.930 . S
H546 C555 0.930 . S
H547 C560 0.929 . S
H548 C558 0.929 . S
H549 C553 0.929 . S
H550 C559 0.929 . S
C551 H545 0.930 . S
C551 C552 1.367 . S
C551 C559 1.378 . S
C552 C551 1.367 . S
C552 C560 1.433 . S
C553 H549 0.929 . S
C553 C555 1.378 . S
C553 C557 1.350 . S
C554 C557 1.463 . S
C554 C559 1.350 . S
C554 N562 1.427 . S
C555 H546 0.930 . S
C555 C553 1.378 . S
C555 C556 1.367 . S
C556 C555 1.367 . S
C556 C558 1.433 . S
C557 C553 1.350 . S
C557 C554 1.463 . S
C557 N561 1.427 . S
C558 H548 0.929 . S
C558 C556 1.433 . S
C558 N561 1.384 . S
C559 H550 0.929 . S
C559 C551 1.378 . S
C559 C554 1.350 . S
C560 H547 0.929 . S
C560 C552 1.433 . S
C560 N562 1.384 . S
N561 C557 1.427 . S
N561 C558 1.384 . S
N562 C554 1.427 . S
N562 C560 1.384 . S
H563 C569 0.930 . S
H564 C573 0.930 . S
H565 C578 0.929 . S
H566 C576 0.929 . S
H567 C571 0.929 . S
H568 C577 0.929 . S
C569 H563 0.930 . S
C569 C570 1.367 . S
C569 C577 1.378 . S
C570 C569 1.367 . S
C570 C578 1.433 . S
C571 H567 0.929 . S
C571 C573 1.378 . S
C571 C575 1.350 . S
C572 C575 1.463 . S
C572 C577 1.350 . S
C572 N580 1.427 . S
C573 H564 0.930 . S
C573 C571 1.378 . S
C573 C574 1.367 . S
C574 C573 1.367 . S
C574 C576 1.433 . S
C575 C571 1.350 . S
C575 C572 1.463 . S
C575 N579 1.427 . S
C576 H566 0.929 . S
C576 C574 1.433 . S
C576 N579 1.384 . S
C577 H568 0.929 . S
C577 C569 1.378 . S
C577 C572 1.350 . S
C578 H565 0.929 . S
C578 C570 1.433 . S
C578 N580 1.384 . S
N579 C575 1.427 . S
N579 C576 1.384 . S
N580 C572 1.427 . S
N580 C578 1.384 . S
H581 C587 0.930 . S
H582 C591 0.930 . S
H583 C596 0.929 . S
H584 C594 0.929 . S
H585 C589 0.929 . S
H586 C595 0.929 . S
C587 H581 0.930 . S
C587 C588 1.367 . S
C587 C595 1.378 . S
C588 C587 1.367 . S
C588 C596 1.433 . S
C589 H585 0.929 . S
C589 C591 1.378 . S
C589 C593 1.350 . S
C590 C593 1.463 . S
C590 C595 1.350 . S
C590 N598 1.427 . S
C591 H582 0.930 . S
C591 C589 1.378 . S
C591 C592 1.367 . S
C592 C591 1.367 . S
C592 C594 1.433 . S
C593 C589 1.350 . S
C593 C590 1.463 . S
C593 N597 1.427 . S
C594 H584 0.929 . S
C594 C592 1.433 . S
C594 N597 1.384 . S
C595 H586 0.929 . S
C595 C587 1.378 . S
C595 C590 1.350 . S
C596 H583 0.929 . S
C596 C588 1.433 . S
C596 N598 1.384 . S
N597 C593 1.427 . S
N597 C594 1.384 . S
N598 C590 1.427 . S
N598 C596 1.384 . S
H599 C605 0.930 . S
H600 C609 0.930 . S
H601 C614 0.929 . S
H602 C612 0.929 . S
H603 C607 0.929 . S
H604 C613 0.929 . S
C605 H599 0.930 . S
C605 C606 1.367 . S
C605 C613 1.378 . S
C606 C605 1.367 . S
C606 C614 1.433 . S
C607 H603 0.929 . S
C607 C609 1.378 . S
C607 C611 1.350 . S
C608 C611 1.463 . S
C608 C613 1.350 . S
C608 N616 1.427 . S
C609 H600 0.930 . S
C609 C607 1.378 . S
C609 C610 1.367 . S
C610 C609 1.367 . S
C610 C612 1.433 . S
C611 C607 1.350 . S
C611 C608 1.463 . S
C611 N615 1.427 . S
C612 H602 0.929 . S
C612 C610 1.433 . S
C612 N615 1.384 . S
C613 H604 0.929 . S
C613 C605 1.378 . S
C613 C608 1.350 . S
C614 H601 0.929 . S
C614 C606 1.433 . S
C614 N616 1.384 . S
N615 C611 1.427 . S
N615 C612 1.384 . S
N616 C608 1.427 . S
N616 C614 1.384 . S
H617 C623 0.930 . S
H618 C627 0.930 . S
H619 C632 0.929 . S
H620 C630 0.929 . S
H621 C625 0.929 . S
H622 C631 0.929 . S
C623 H617 0.930 . S
C623 C624 1.367 . S
C623 C631 1.378 . S
C624 C623 1.367 . S
C624 C632 1.433 . S
C625 H621 0.929 . S
C625 C627 1.378 . S
C625 C629 1.350 . S
C626 C629 1.463 . S
C626 C631 1.350 . S
C626 N634 1.427 . S
C627 H618 0.930 . S
C627 C625 1.378 . S
C627 C628 1.367 . S
C628 C627 1.367 . S
C628 C630 1.433 . S
C629 C625 1.350 . S
C629 C626 1.463 . S
C629 N633 1.427 . S
C630 H620 0.929 . S
C630 C628 1.433 . S
C630 N633 1.384 . S
C631 H622 0.929 . S
C631 C623 1.378 . S
C631 C626 1.350 . S
C632 H619 0.929 . S
C632 C624 1.433 . S
C632 N634 1.384 . S
N633 C629 1.427 . S
N633 C630 1.384 . S
N634 C626 1.427 . S
N634 C632 1.384 . S
C214 C128 1.254 . S
C210 N2 1.347 . S
C232 C164 1.223 . S
C228 N14 1.289 . S
C250 C129 1.558 . S
C246 N27 1.550 . S
C268 C159 1.727 . S
C264 N44 1.772 . S
C286 C126 1.134 . S
C282 N54 1.175 . S
C300 N67 1.594 . S
C304 C162 1.603 . S
C318 N83 0.879 . S
C322 C131 0.814 . S
C340 C161 1.211 . S
C336 N93 1.234 . S
C358 C165 1.655 . S
C354 N1 1.704 . S
C376 C130 1.076 . S
C372 N18 1.149 . S
C394 C158 1.314 . S
C390 N28 1.328 . S
C412 C127 1.223 . S
C408 N41 1.330 . S
C430 C160 1.784 . S
C426 N57 1.879 . S
C444 N66 1.545 . S
C448 C125 1.530 . S
C462 N79 1.500 . S
C466 C163 1.443 . S
C484 C132 1.450 . S
C480 N96 1.494 . S
C502 C194 1.834 . S
C498 N5 1.924 . S
C516 N53 1.921 . S
C520 C197 1.810 . S
C538 C196 1.881 . S
C534 N70 1.923 . S
C552 N80 1.687 . S
C556 C195 1.655 . S
C574 C198 1.742 . S
C570 N92 1.797 . S
C588 N31 1.659 . S
C592 C192 1.616 . S
C610 C191 2.178 . S
C606 N40 2.146 . S
C624 N15 1.281 . S
C628 C193 1.165 . S
