# Generated by pormake.
# Topology pyr, (3,6)-cn, num edge types: 1
# Building blocks:
#     Node 0, Type 0, BuildingBlock: BETDAH_clean_linker_0, # of connection points: 3
#     Node 1, Type 0, BuildingBlock: BETDAH_clean_linker_0, # of connection points: 3
#     Node 2, Type 0, BuildingBlock: BETDAH_clean_linker_0, # of connection points: 3
#     Node 3, Type 0, BuildingBlock: BETDAH_clean_linker_0, # of connection points: 3
#     Node 4, Type 0, BuildingBlock: BETDAH_clean_linker_0, # of connection points: 3
#     Node 5, Type 0, BuildingBlock: BETDAH_clean_linker_0, # of connection points: 3
#     Node 6, Type 0, BuildingBlock: BETDAH_clean_linker_0, # of connection points: 3
#     Node 7, Type 0, BuildingBlock: BETDAH_clean_linker_0, # of connection points: 3
#     Node 8, Type 1, BuildingBlock: PAMTUU_clean_sbu_0, # of connection points: 6
#     Node 9, Type 1, BuildingBlock: PAMTUU_clean_sbu_0, # of connection points: 6
#     Node 10, Type 1, BuildingBlock: PAMTUU_clean_sbu_0, # of connection points: 6
#     Node 11, Type 1, BuildingBlock: PAMTUU_clean_sbu_0, # of connection points: 6
#     Edge 12, Type (0, 1), BuildingBlock: CIFDUS_clean_linker_0, # of connection points: 2
#     Edge 13, Type (0, 1), BuildingBlock: CIFDUS_clean_linker_0, # of connection points: 2
#     Edge 14, Type (0, 1), BuildingBlock: CIFDUS_clean_linker_0, # of connection points: 2
#     Edge 15, Type (0, 1), BuildingBlock: CIFDUS_clean_linker_0, # of connection points: 2
#     Edge 16, Type (0, 1), BuildingBlock: CIFDUS_clean_linker_0, # of connection points: 2
#     Edge 17, Type (0, 1), BuildingBlock: CIFDUS_clean_linker_0, # of connection points: 2
#     Edge 18, Type (0, 1), BuildingBlock: CIFDUS_clean_linker_0, # of connection points: 2
#     Edge 19, Type (0, 1), BuildingBlock: CIFDUS_clean_linker_0, # of connection points: 2
#     Edge 20, Type (0, 1), BuildingBlock: CIFDUS_clean_linker_0, # of connection points: 2
#     Edge 21, Type (0, 1), BuildingBlock: CIFDUS_clean_linker_0, # of connection points: 2
#     Edge 22, Type (0, 1), BuildingBlock: CIFDUS_clean_linker_0, # of connection points: 2
#     Edge 23, Type (0, 1), BuildingBlock: CIFDUS_clean_linker_0, # of connection points: 2
#     Edge 24, Type (0, 1), BuildingBlock: CIFDUS_clean_linker_0, # of connection points: 2
#     Edge 25, Type (0, 1), BuildingBlock: CIFDUS_clean_linker_0, # of connection points: 2
#     Edge 26, Type (0, 1), BuildingBlock: CIFDUS_clean_linker_0, # of connection points: 2
#     Edge 27, Type (0, 1), BuildingBlock: CIFDUS_clean_linker_0, # of connection points: 2
#     Edge 28, Type (0, 1), BuildingBlock: CIFDUS_clean_linker_0, # of connection points: 2
#     Edge 29, Type (0, 1), BuildingBlock: CIFDUS_clean_linker_0, # of connection points: 2
#     Edge 30, Type (0, 1), BuildingBlock: CIFDUS_clean_linker_0, # of connection points: 2
#     Edge 31, Type (0, 1), BuildingBlock: CIFDUS_clean_linker_0, # of connection points: 2
#     Edge 32, Type (0, 1), BuildingBlock: CIFDUS_clean_linker_0, # of connection points: 2
#     Edge 33, Type (0, 1), BuildingBlock: CIFDUS_clean_linker_0, # of connection points: 2
#     Edge 34, Type (0, 1), BuildingBlock: CIFDUS_clean_linker_0, # of connection points: 2
#     Edge 35, Type (0, 1), BuildingBlock: CIFDUS_clean_linker_0, # of connection points: 2
# Relax obj value: 0.160
# Max RMSD: 0.174
# Mean RMSD: 0.134
data_MOF--net-pyr--node1-PAMTUU_clean_sbu_0--node2-BETDAH_clean_linker_0--edge1-CIFDUS_clean_linker_0
_symmetry_space_group_name_H-M    P1
_symmetry_Int_Tables_number       1
_symmetry_cell_setting            triclinic
loop_
_symmetry_equiv_pos_as_xyz
'x, y, z'
_cell_length_a     32.838217
_cell_length_b     35.054935
_cell_length_c     33.585698
_cell_angle_alpha  90.140522
_cell_angle_beta   89.9496
_cell_angle_gamma 107.75155
loop_
_atom_site_label
_atom_site_type_symbol
_atom_site_fract_x
_atom_site_fract_y
_atom_site_fract_z
_atom_type_partial_charge
H0 H 0.35716 0.22689 0.27255 0.0
H1 H 0.43505 0.31616 0.19353 0.0
H2 H 0.34171 0.34388 0.2693 0.0
C3 C 0.36698 0.2572 0.26095 0.0
C4 C 0.34665 0.28442 0.27463 0.0
C5 C 0.39888 0.26823 0.23176 0.0
C6 C 0.41128 0.30756 0.21693 0.0
C7 C 0.39024 0.33481 0.2297 0.0
C8 C 0.35828 0.32323 0.25917 0.0
N9 N 0.39927 0.37247 0.21045 0.0
C10 C 0.36767 0.39086 0.20533 0.0
H11 H 0.26746 0.81424 0.76798 0.0
H12 H 0.14762 0.83962 0.77749 0.0
H13 H 0.16672 0.76176 0.68476 0.0
C14 C 0.23507 0.81009 0.75774 0.0
C15 C 0.22018 0.78601 0.72433 0.0
C16 C 0.20925 0.82957 0.77728 0.0
C17 C 0.16757 0.82396 0.76335 0.0
C18 C 0.15196 0.79919 0.73021 0.0
C19 C 0.17813 0.77967 0.71114 0.0
N20 N 0.11147 0.79657 0.71378 0.0
C21 C 0.09981 0.83108 0.70816 0.0
H22 H 0.7442 0.36927 0.97086 0.0
H23 H 0.73032 0.45814 0.88724 0.0
H24 H 0.63416 0.34311 0.89495 0.0
C25 C 0.7263 0.3785 0.94775 0.0
C26 C 0.68739 0.3512 0.93513 0.0
C27 C 0.74235 0.41746 0.93155 0.0
C28 C 0.71903 0.42848 0.90008 0.0
C29 C 0.67975 0.4015 0.88676 0.0
C30 C 0.66432 0.36351 0.90501 0.0
N31 N 0.65246 0.41135 0.85767 0.0
C32 C 0.66143 0.43985 0.82684 0.0
H33 H 0.85266 0.76425 0.48927 0.0
H34 H 0.93655 0.79735 0.38852 0.0
H35 H 0.83861 0.68407 0.38849 0.0
C36 C 0.86221 0.75764 0.45988 0.0
C37 C 0.8396 0.721 0.44117 0.0
C38 C 0.8972 0.78589 0.4415 0.0
C39 C 0.91088 0.77577 0.4042 0.0
C40 C 0.89137 0.73857 0.38571 0.0
C41 C 0.85541 0.71134 0.40413 0.0
N42 N 0.90506 0.73321 0.34606 0.0
C43 C 0.90967 0.69881 0.3274 0.0
H44 H 0.75383 0.78983 0.87729 0.0
H45 H 0.6729 0.74994 0.97919 0.0
H46 H 0.6394 0.82389 0.89087 0.0
C47 C 0.72466 0.78801 0.89341 0.0
C48 C 0.69691 0.80821 0.87891 0.0
C49 C 0.71662 0.76733 0.92965 0.0
C50 C 0.67914 0.76529 0.95081 0.0
C51 C 0.65164 0.78622 0.93717 0.0
C52 C 0.66061 0.80763 0.90124 0.0
N53 N 0.61684 0.78793 0.96127 0.0
C54 C 0.60981 0.82433 0.96916 0.0
H55 H 0.91544 0.2613 0.38445 0.0
H56 H 0.97089 0.34996 0.47368 0.0
H57 H 0.88263 0.37085 0.38796 0.0
C58 C 0.91903 0.29037 0.39776 0.0
C59 C 0.89588 0.31457 0.38227 0.0
C60 C 0.94537 0.30226 0.43118 0.0
C61 C 0.95119 0.34051 0.44743 0.0
C62 C 0.92858 0.36532 0.43209 0.0
C63 C 0.90095 0.35226 0.39936 0.0
N64 N 0.93172 0.40193 0.45179 0.0
C65 C 0.89691 0.41646 0.45457 0.0
H66 H 0.33431 0.76942 0.19516 0.0
H67 H 0.35204 0.67387 0.26715 0.0
H68 H 0.44756 0.7892 0.26611 0.0
C69 C 0.35307 0.7585 0.21605 0.0
C70 C 0.39261 0.7849 0.22882 0.0
C71 C 0.33755 0.71822 0.22892 0.0
C72 C 0.36221 0.70474 0.25738 0.0
C73 C 0.40189 0.73049 0.27111 0.0
C74 C 0.41679 0.77001 0.25608 0.0
N75 N 0.43099 0.71641 0.2945 0.0
C76 C 0.42334 0.69298 0.32933 0.0
H77 H 0.23684 0.36962 0.69192 0.0
H78 H 0.22823 0.46571 0.76891 0.0
H79 H 0.12829 0.35321 0.76873 0.0
C80 C 0.22108 0.38062 0.71565 0.0
C81 C 0.18162 0.35553 0.72989 0.0
C82 C 0.23902 0.42039 0.72941 0.0
C83 C 0.21613 0.43503 0.75863 0.0
C84 C 0.17621 0.41073 0.77315 0.0
C85 C 0.1594 0.37132 0.75835 0.0
N86 N 0.14812 0.42766 0.7946 0.0
C87 C 0.15238 0.44277 0.8337 0.0
Tb88 Tb 0.05859 0.07764 0.56818 0.0
Tb89 Tb 0.96892 0.06642 0.61696 0.0
C90 C 0.97609 0.9995 0.55706 0.0
C91 C 0.15532 0.11958 0.50489 0.0
C92 C 0.20644 0.1798 0.45551 0.0
C93 C 0.20283 0.1394 0.44848 0.0
C94 C 0.17755 0.10957 0.47302 0.0
C95 C 0.15961 0.16 0.51284 0.0
C96 C 0.18545 0.19008 0.4884 0.0
C97 C 0.12493 0.08707 0.5267 0.0
O98 O 0.03239 0.12346 0.54656 0.0
O99 O 0.96249 0.089 0.55791 0.0
O100 O 1.00935 0.12774 0.62775 0.0
O101 O 0.07606 0.12221 0.61634 0.0
O102 O 0.90229 0.05415 0.61635 0.0
O103 O 0.939 0.0763 0.66954 0.0
O104 O 1.00275 0.03413 0.65319 0.0
O105 O 0.05627 0.03057 0.60995 0.0
O106 O 1.01096 0.02488 0.54171 0.0
O107 O 0.95802 1.00804 0.58943 0.0
C108 C 0.99173 0.11808 0.54034 0.0
O109 O 0.12527 0.0895 0.56547 0.0
O110 O 0.08624 0.07596 0.51235 0.0
C111 C 0.05112 0.14168 0.63154 0.0
C112 C 0.8684 0.03385 0.67874 0.0
C113 C 0.80623 0.98112 0.72735 0.0
C114 C 0.83323 1.01732 0.74281 0.0
C115 C 0.86377 0.04346 0.71869 0.0
C116 C 0.84119 0.99794 0.66296 0.0
C117 C 0.81034 0.97186 0.68705 0.0
C118 C 0.90086 0.06237 0.65412 0.0
C119 C 0.03414 0.02005 0.64282 0.0
H120 H 0.21917 0.13086 0.42354 0.0
H121 H 0.17435 0.07851 0.46641 0.0
H122 H 0.14218 0.16812 0.53718 0.0
H123 H 0.18783 0.22109 0.49426 0.0
H124 H 0.83155 0.02511 0.77385 0.0
H125 H 0.88415 0.07114 0.73143 0.0
H126 H 0.8437 0.98988 0.63211 0.0
H127 H 0.78974 0.94444 0.6741 0.0
Tb128 Tb 0.58486 0.08141 0.10958 0.0
Tb129 Tb 0.49132 0.06351 0.06626 0.0
C130 C 0.55777 0.02026 1.03771 0.0
C131 C 0.68688 0.12712 0.16655 0.0
C132 C 0.74021 0.17988 0.22111 0.0
C133 C 0.75026 0.14583 0.2078 0.0
C134 C 0.7238 0.11969 0.18064 0.0
C135 C 0.67819 0.16254 0.17762 0.0
C136 C 0.70497 0.189 0.20472 0.0
C137 C 0.65508 0.0947 0.14581 0.0
O138 O 0.59636 0.12267 0.05882 0.0
O139 O 0.52806 0.12557 0.05252 0.0
O140 O 0.48716 0.08918 0.12428 0.0
O141 O 0.55708 0.12594 0.13254 0.0
O142 O 0.45722 0.07554 1.0178 0.0
O143 O 0.42415 0.04078 0.06749 0.0
O144 O 0.4853 1.00713 0.09677 0.0
O145 O 0.54192 0.02905 0.1403 0.0
O146 O 0.58046 0.03155 0.07019 0.0
O147 O 0.52644 0.03444 1.02769 0.0
C148 C 0.56924 0.14048 1.04523 0.0
O149 O 0.61773 0.08243 0.16288 0.0
O150 O 0.65214 0.09735 0.10727 0.0
C151 C 0.51639 0.1198 0.13984 0.0
C152 C 0.39454 0.02429 1.00366 0.0
C153 C 0.34893 0.97442 0.94277 0.0
C154 C 0.33108 1.00089 0.96254 0.0
C155 C 0.35394 0.02588 0.99272 0.0
C156 C 0.4115 0.99653 0.98534 0.0
C157 C 0.38894 0.97187 0.95497 0.0
C158 C 0.42051 0.05368 1.03173 0.0
C159 C 0.50688 1.00157 0.12806 0.0
H160 H 0.77742 0.13841 0.22002 0.0
H161 H 0.73079 0.0924 0.1725 0.0
H162 H 0.64954 0.16849 0.16711 0.0
H163 H 0.69662 0.21502 0.21484 0.0
H164 H 0.30036 1.00345 0.95351 0.0
H165 H 0.34052 0.04728 1.00664 0.0
H166 H 0.44276 0.99488 0.99368 0.0
H167 H 0.40311 0.95132 0.94049 0.0
Tb168 Tb 0.54245 0.52807 0.55835 0.0
Tb169 Tb 0.53234 0.60649 0.60496 0.0
C170 C 0.49706 0.58631 0.51672 0.0
C171 C 0.59175 0.45787 0.51271 0.0
C172 C 0.66672 0.43818 0.49452 0.0
C173 C 0.62689 0.41522 0.47909 0.0
C174 C 0.5897 0.42503 0.48813 0.0
C175 C 0.63131 0.48094 0.5281 0.0
C176 C 0.66845 0.47116 0.51916 0.0
C177 C 0.55297 0.46873 0.52168 0.0
O178 O 0.59808 0.57674 0.5393 0.0
O179 O 0.59941 0.6256 0.58571 0.0
O180 O 0.55516 0.57209 0.64961 0.0
O181 O 0.5845 0.5337 0.61044 0.0
O182 O 0.53327 0.66681 0.6056 0.0
O183 O 0.51812 0.63083 0.65843 0.0
O184 O 0.46863 0.56256 0.60645 0.0
O185 O 0.48776 0.50559 0.59836 0.0
O186 O 0.4982 0.54922 0.52126 0.0
O187 O 0.5135 0.61385 0.54373 0.0
C188 C 0.61704 0.6116 0.55594 0.0
O189 O 0.54285 0.46824 0.5592 0.0
O190 O 0.55044 0.50102 0.50425 0.0
C191 C 0.57856 0.54769 0.6457 0.0
C192 C 0.47865 0.67507 0.64676 0.0
C193 C 0.402 0.69351 0.65989 0.0
C194 C 0.44142 0.71992 0.6726 0.0
C195 C 0.47945 0.71064 0.66623 0.0
C196 C 0.43951 0.64913 0.63321 0.0
C197 C 0.40146 0.6581 0.63998 0.0
C198 C 0.51819 0.66425 0.64166 0.0
C199 C 0.46043 0.52373 0.61081 0.0
H200 H 0.62454 0.38995 0.45964 0.0
H201 H 0.5594 0.40712 0.47579 0.0
H202 H 0.63343 0.50652 0.54709 0.0
H203 H 0.69842 0.48912 0.53202 0.0
H204 H 0.4427 0.74726 0.68836 0.0
H205 H 0.50936 0.73097 0.67692 0.0
H206 H 0.43829 0.62172 0.61774 0.0
H207 H 0.37164 0.63743 0.62954 0.0
Tb208 Tb 0.03751 0.611 0.05607 0.0
Tb209 Tb 0.03541 0.53325 0.10931 0.0
C210 C 0.07984 0.54824 1.02289 0.0
C211 C 0.99734 0.68613 1.00764 0.0
C212 C 0.92849 0.71551 0.9901 0.0
C213 C 0.96713 0.72896 0.96865 0.0
C214 C 1.00128 0.71445 0.97745 0.0
C215 C 0.95876 0.67215 1.02877 0.0
C216 C 0.9247 0.68683 1.02022 0.0
C217 C 0.0332 0.67088 1.01676 0.0
O218 O 0.98459 0.56175 1.03235 0.0
O219 O 0.96973 0.52224 0.08785 0.0
O220 O 1.01483 0.57311 0.1504 0.0
O221 O 0.99152 0.60889 0.10375 0.0
O222 O 0.02295 0.47083 0.11277 0.0
O223 O 0.04422 0.5083 0.16417 0.0
O224 O 0.10142 0.57141 0.11554 0.0
O225 O 0.09449 0.63134 0.09394 0.0
O226 O 0.08241 0.58633 1.0256 0.0
O227 O 0.05839 0.52223 0.04962 0.0
C228 C 0.95851 0.53235 0.05269 0.0
O229 O 0.04414 0.67239 0.05415 0.0
O230 O 0.03117 0.63649 1.00073 0.0
C231 C 0.99369 0.59829 0.14102 0.0
C232 C 0.07313 0.45587 0.1549 0.0
C233 C 0.14406 0.42882 0.17036 0.0
C234 C 0.10643 0.41479 0.19313 0.0
C235 C 0.07126 0.42832 0.18549 0.0
C236 C 0.1103 0.46947 0.13171 0.0
C237 C 0.1454 0.45602 0.13931 0.0
C238 C 0.03787 0.47283 0.1489 0.0
C239 C 0.1163 0.61053 0.1121 0.0
H240 H 0.9709 0.75044 0.94476 0.0
H241 H 0.03072 0.72524 0.96062 0.0
H242 H 0.95506 0.65 0.05201 0.0
H243 H 0.89565 0.67612 1.03759 0.0
H244 H 0.10454 0.39413 0.21749 0.0
H245 H 0.04296 0.41788 0.20393 0.0
H246 H 0.11239 0.49096 0.10807 0.0
H247 H 0.17361 0.46693 0.12084 0.0
H248 H 0.34578 0.30294 0.35297 0.0
H249 H 0.26904 0.23291 0.25892 0.0
H250 H 0.21509 0.19747 0.30722 0.0
H251 H 0.19519 0.18015 0.37644 0.0
H252 H 0.27264 0.24734 0.47158 0.0
H253 H 0.32071 0.29083 0.42287 0.0
C254 C 0.3166 0.28068 0.34325 0.0
C255 C 0.31098 0.27026 0.3028 0.0
C256 C 0.28634 0.25972 0.37136 0.0
C257 C 0.27358 0.24119 0.29008 0.0
C258 C 0.24299 0.22086 0.31764 0.0
C259 C 0.2223 0.20474 0.38639 0.0
C260 C 0.23101 0.21036 0.42723 0.0
C261 C 0.24986 0.22886 0.35838 0.0
C262 C 0.26562 0.24255 0.44012 0.0
C263 C 0.29313 0.26718 0.41232 0.0
H264 H 0.28798 0.88359 0.78174 0.0
H265 H 0.17047 0.83796 0.84782 0.0
H266 H 0.20257 0.88062 0.90453 0.0
H267 H 0.26592 0.92792 0.93661 0.0
H268 H 0.38393 0.96979 0.87065 0.0
H269 H 0.35004 0.93074 0.8128 0.0
C270 C 0.26944 0.88262 0.80867 0.0
C271 C 0.22714 0.8572 0.8108 0.0
C272 C 0.28836 0.90626 0.84127 0.0
C273 C 0.20311 0.85734 0.84543 0.0
C274 C 0.22154 0.8815 0.87793 0.0
C275 C 0.28397 0.92855 0.90943 0.0
C276 C 0.32737 0.95127 0.90786 0.0
C277 C 0.26437 0.90563 0.87637 0.0
C278 C 0.35064 0.95194 0.87264 0.0
C279 C 0.33126 0.92983 0.83954 0.0
H280 H 0.62453 0.49924 0.81957 0.0
H281 H 0.6852 0.42748 0.75171 0.0
H282 H 0.66672 0.45498 0.6895 0.0
H283 H 0.6287 0.49652 0.6537 0.0
H284 H 0.56825 0.56813 0.72287 0.0
H285 H 0.59114 0.54403 0.78418 0.0
C286 C 0.63459 0.49035 0.79118 0.0
C287 C 0.65699 0.46179 0.79049 0.0
C288 C 0.62328 0.50603 0.7553 0.0
C289 C 0.66874 0.44994 0.75329 0.0
C290 C 0.65777 0.46546 0.71757 0.0
C291 C 0.62083 0.50721 0.68212 0.0
C292 C 0.59634 0.53428 0.68295 0.0
C293 C 0.63434 0.4931 0.71804 0.0
C294 C 0.58679 0.54743 0.72058 0.0
C295 C 0.59992 0.53356 0.75602 0.0
H296 H 0.89844 0.69553 0.24789 0.0
H297 H 0.95162 0.64407 0.34319 0.0
H298 H 0.98112 0.60689 0.2946 0.0
H299 H 0.9954 0.5919 0.22388 0.0
H300 H 0.94227 0.64551 0.12954 0.0
H301 H 0.90957 0.67835 0.17831 0.0
C302 C 0.91581 0.67556 0.25805 0.0
C303 C 0.92219 0.67213 0.29924 0.0
C304 C 0.93327 0.6548 0.22979 0.0
C305 C 0.94559 0.64679 0.31178 0.0
C306 C 0.96276 0.62573 0.28386 0.0
C307 C 0.97638 0.61047 0.21394 0.0
C308 C 0.97178 0.61598 0.17252 0.0
C309 C 0.95738 0.62987 0.2426 0.0
C310 C 0.9469 0.64046 0.16078 0.0
C311 C 0.92797 0.65944 0.18883 0.0
H312 H 0.48215 0.27079 0.21999 0.0
H313 H 0.352 0.19566 0.20428 0.0
H314 H 0.37703 0.14229 0.17726 0.0
H315 H 0.43514 0.11731 0.157 0.0
H316 H 0.56604 0.19142 0.17104 0.0
H317 H 0.54151 0.24456 0.20037 0.0
C318 C 0.45947 0.24275 0.21045 0.0
C319 C 0.41536 0.23703 0.21426 0.0
C320 C 0.47413 0.21193 0.195 0.0
C321 C 0.38613 0.20054 0.20204 0.0
C322 C 0.40038 0.17004 0.18654 0.0
C323 C 0.45848 0.1449 0.16673 0.0
C324 C 0.50236 0.1503 0.16175 0.0
C325 C 0.44422 0.17538 0.18293 0.0
C326 C 0.53202 0.18636 0.17461 0.0
C327 C 0.51802 0.21688 0.19117 0.0
H328 H 0.03223 0.8577 0.72453 0.0
H329 H 0.15753 0.8902 0.67124 0.0
H330 H 0.15033 0.95463 0.65047 0.0
H331 H 0.10649 0.99895 0.64283 0.0
H332 H 0.98009 0.96716 0.6941 0.0
H333 H 0.98992 0.90574 0.72137 0.0
C334 C 0.05789 0.87922 0.70866 0.0
C335 C 0.09517 0.86959 0.69889 0.0
C336 C 0.05339 0.91621 0.69669 0.0
C337 C 0.1285 0.8973 0.67864 0.0
C338 C 0.12442 0.93403 0.66687 0.0
C339 C 0.08121 0.97888 0.66041 0.0
C340 C 0.04248 0.98741 0.6661 0.0
C341 C 0.08673 0.94344 0.67508 0.0
C342 C 1.01031 0.96135 0.6894 0.0
C343 C 0.01576 0.92603 0.70465 0.0
H344 H 0.7701 0.42503 1.00934 0.0
H345 H 0.80788 0.47414 0.89249 0.0
H346 H 0.87669 0.51505 0.91952 0.0
H347 H 0.92828 0.53418 0.976 0.0
H348 H 0.89068 0.48057 0.09121 0.0
H349 H 0.82061 0.44353 0.06481 0.0
C350 C 0.79339 0.44418 0.98935 0.0
C351 C 0.78337 0.44561 0.94844 0.0
C352 C 0.8335 0.46672 1.00487 0.0
C353 C 0.814 0.47217 0.92397 0.0
C354 C 0.85374 0.49541 0.93943 0.0
C355 C 0.90475 0.51448 0.99542 0.0
C356 C 0.91529 0.51031 1.03578 0.0
C357 C 0.86418 0.49254 0.97977 0.0
C358 C 0.88405 0.48444 0.06015 0.0
C359 C 0.84371 0.46321 1.04504 0.0
H360 H 0.78122 0.74272 0.48853 0.0
H361 H 0.80433 0.63821 0.43677 0.0
H362 H 0.73838 0.59579 0.46691 0.0
H363 H 0.67372 0.5879 0.50861 0.0
H364 H 0.65497 0.69234 0.56438 0.0
H365 H 0.72036 0.73463 0.53329 0.0
C366 C 0.77286 0.71062 0.48432 0.0
C367 C 0.79886 0.69425 0.4601 0.0
C368 C 0.73541 0.68604 0.50287 0.0
C369 C 0.78542 0.65236 0.45447 0.0
C370 C 0.74762 0.62782 0.47211 0.0
C371 C 0.684 0.61991 0.51417 0.0
C372 C 0.65897 0.63672 0.53898 0.0
C373 C 0.72228 0.64428 0.49641 0.0
C374 C 0.67331 0.6783 0.5458 0.0
C375 C 0.71076 0.70264 0.52778 0.0
H376 H 0.28614 0.346 0.20733 0.0
H377 H 0.36819 0.46666 0.19016 0.0
H378 H 0.30556 0.48949 0.17834 0.0
H379 H 0.22759 0.47455 0.17225 0.0
H380 H 0.14571 0.35327 0.18831 0.0
H381 H 0.20807 0.33119 0.20181 0.0
C382 C 0.29005 0.37729 0.20112 0.0
C383 C 0.33118 0.40481 0.19953 0.0
C384 C 0.25404 0.38995 0.19427 0.0
C385 C 0.33649 0.4452 0.19148 0.0
C386 C 0.30079 0.45814 0.18471 0.0
C387 C 0.22341 0.44323 0.17838 0.0
C388 C 0.18202 0.41558 0.17912 0.0
C389 C 0.25942 0.4307 0.18582 0.0
C390 C 0.17713 0.37524 0.18791 0.0
C391 C 0.21278 0.36254 0.19542 0.0
H392 H 0.60471 0.30793 0.95603 0.0
H393 H 0.73368 0.30105 0.95683 0.0
H394 H 0.7094 0.23657 0.99064 0.0
H395 H 0.6516 0.1817 1.0213 0.0
H396 H 0.52243 0.18808 1.01901 0.0
H397 H 0.54665 0.25211 0.98452 0.0
C398 C 0.62754 0.29221 0.96311 0.0
C399 C 0.67125 0.31012 0.95392 0.0
C400 C 0.61328 0.25461 0.98259 0.0
C401 C 0.70004 0.28891 0.96399 0.0
C402 C 0.68611 0.25167 0.98325 0.0
C403 C 0.62866 0.19697 1.01321 0.0
C404 C 0.58506 0.17955 1.02309 0.0
C405 C 0.64283 0.23423 0.99303 0.0
C406 C 0.55611 0.20024 1.01205 0.0
C407 C 0.56997 0.23714 0.9922 0.0
H408 H 0.86134 0.83183 0.48902 0.0
H409 H 0.98209 0.83223 0.4376 0.0
H410 H 0.01625 0.89816 0.46631 0.0
H411 H 1.01271 0.95624 0.50724 0.0
H412 H 0.89302 0.95274 0.56259 0.0
H413 H 0.85842 0.88778 0.53195 0.0
C414 C 0.89529 0.84576 0.48442 0.0
C415 C 0.9186 0.82631 0.4606 0.0
C416 C 0.9153 0.88362 0.50195 0.0
C417 C 0.96258 0.84613 0.45484 0.0
C418 C 0.98245 0.88401 0.47162 0.0
C419 C 0.97901 0.94136 0.51246 0.0
C420 C 0.95564 0.95984 0.53721 0.0
C421 C 0.95919 0.90319 0.49522 0.0
C422 C 0.91205 0.93955 0.54387 0.0
C423 C 0.8921 0.90223 0.52625 0.0
H424 H 0.22623 0.71045 0.72086 0.0
H425 H 0.2846 0.83093 0.6793 0.0
H426 H 0.34542 0.81235 0.65305 0.0
H427 H 0.38515 0.76363 0.648 0.0
H428 H 0.32817 0.64322 0.69074 0.0
H429 H 0.26355 0.65959 0.71005 0.0
C430 C 0.25181 0.73213 0.70506 0.0
C431 C 0.25114 0.7718 0.70158 0.0
C432 C 0.28714 0.72139 0.69083 0.0
C433 C 0.28459 0.80011 0.6818 0.0
C434 C 0.31942 0.78959 0.66714 0.0
C435 C 0.35847 0.74098 0.66139 0.0
C436 C 0.36155 0.70248 0.66838 0.0
C437 C 0.32162 0.75064 0.67253 0.0
C438 C 0.32649 0.67312 0.68505 0.0
C439 C 0.28961 0.68248 0.69622 0.0
H440 H 0.69572 0.88461 0.86811 0.0
H441 H 0.72603 0.78745 0.80861 0.0
H442 H 0.75933 0.83203 0.75408 0.0
H443 H 0.78773 0.90008 0.72808 0.0
H444 H 0.7567 0.99734 0.78685 0.0
H445 H 0.7156 0.95108 0.83694 0.0
C446 C 0.70853 0.87295 0.84267 0.0
C447 C 0.70894 0.83298 0.84258 0.0
C448 C 0.7281 0.89885 0.81168 0.0
C449 C 0.72599 0.81833 0.80958 0.0
C450 C 0.74504 0.84378 0.77844 0.0
C451 C 0.77107 0.91108 0.75118 0.0
C452 C 0.77592 0.95226 0.75402 0.0
C453 C 0.74753 0.88438 0.77987 0.0
C454 C 0.75439 0.96593 0.7845 0.0
C455 C 0.73069 0.93948 0.81306 0.0
H456 H 0.8379 0.24152 0.38004 0.0
H457 H 0.88246 0.35134 0.31336 0.0
H458 H 0.83497 0.32038 0.25794 0.0
H459 H 0.78531 0.25944 0.22643 0.0
H460 H 0.74574 0.14945 0.29341 0.0
H461 H 0.7871 0.18289 0.35069 0.0
C462 C 0.83732 0.2587 0.35332 0.0
C463 C 0.86416 0.29831 0.35036 0.0
C464 C 0.81109 0.24049 0.32156 0.0
C465 C 0.86213 0.32067 0.31616 0.0
C466 C 0.83523 0.3029 0.28445 0.0
C467 C 0.78563 0.24316 0.25378 0.0
C468 C 0.7631 0.20209 0.25584 0.0
C469 C 0.81027 0.26248 0.28647 0.0
C470 C 0.76342 0.18101 0.29124 0.0
C471 C 0.78692 0.20008 0.32393 0.0
H472 H 0.4347 0.61973 0.34314 0.0
H473 H 0.42713 0.72663 0.40199 0.0
H474 H 0.44781 0.703 0.46518 0.0
H475 H 0.4727 0.65392 0.5033 0.0
H476 H 0.47902 0.54603 0.4452 0.0
H477 H 0.45421 0.56771 0.38298 0.0
C478 C 0.43668 0.6374 0.37001 0.0
C479 C 0.42873 0.67481 0.36778 0.0
C480 C 0.44895 0.62355 0.40658 0.0
C481 C 0.43235 0.69757 0.40283 0.0
C482 C 0.44455 0.68414 0.43902 0.0
C483 C 0.4684 0.63488 0.47717 0.0
C484 C 0.47818 0.59824 0.47941 0.0
C485 C 0.45368 0.64749 0.44123 0.0
C486 C 0.47187 0.57421 0.44489 0.0
C487 C 0.45771 0.58672 0.40903 0.0
H488 H 0.15859 0.51899 0.85579 0.0
H489 H 0.12566 0.39829 0.90001 0.0
H490 H 0.10157 0.41969 0.96311 0.0
H491 H 0.08549 0.47244 1.00463 0.0
H492 H 0.11915 0.59324 0.95934 0.0
H493 H 0.14707 0.57229 0.89878 0.0
C494 C 0.14696 0.49756 0.87959 0.0
C495 C 0.14455 0.45714 0.87332 0.0
C496 C 0.13268 0.51011 0.91581 0.0
C497 C 0.12854 0.42966 0.90421 0.0
C498 C 0.11441 0.44189 0.94027 0.0
C499 C 0.09922 0.49431 0.98171 0.0
C500 C 0.09973 0.53456 0.98711 0.0
C501 C 0.11562 0.482 0.94631 0.0
C502 C 0.11797 0.56213 0.95663 0.0
C503 C 0.13405 0.55015 0.92164 0.0
H504 H 0.54949 0.85891 0.94899 0.0
H505 H 0.66652 0.87673 1.01462 0.0
H506 H 0.66324 0.94176 1.03833 0.0
H507 H 0.62468 0.99083 1.04419 0.0
H508 H 0.50658 0.97358 0.98 0.0
H509 H 0.51306 0.91153 0.95117 0.0
C510 C 0.57426 0.87736 0.96825 0.0
C511 C 0.608 0.8634 0.98055 0.0
C512 C 0.572 0.91469 0.98188 0.0
C513 C 0.64019 0.88717 1.0052 0.0
C514 C 0.63833 0.92424 1.01867 0.0
C515 C 0.60048 0.97382 1.02356 0.0
C516 C 0.56491 0.9867 1.0147 0.0
C517 C 0.60403 0.93796 1.00774 0.0
C518 C 0.53425 0.96441 0.98748 0.0
C519 C 0.53779 0.92874 0.97116 0.0
H520 H 0.90197 0.22526 0.44703 0.0
H521 H 0.02596 0.31281 0.46134 0.0
H522 H 0.05219 0.2626 0.49465 0.0
H523 H 0.03897 0.19397 0.52055 0.0
H524 H 0.91387 0.10776 0.50666 0.0
H525 H 0.88922 0.15725 0.4713 0.0
C526 C 0.93498 0.23328 0.45688 0.0
C527 C 0.96218 0.27254 0.45132 0.0
C528 C 0.94961 0.20447 0.47585 0.0
C529 C 1.00444 0.28277 0.46533 0.0
C530 C 0.01943 0.25405 0.48417 0.0
C531 C 1.00648 0.1859 0.50933 0.0
C532 C 0.97829 0.14719 0.5161 0.0
C533 C 0.99223 0.2148 0.48963 0.0
C534 C 0.93614 0.13733 0.50189 0.0
C535 C 0.922 0.16562 0.48174 0.0
H536 H 0.30299 0.72081 0.15408 0.0
H537 H 0.2773 0.65279 0.26335 0.0
H538 H 0.20891 0.61176 0.23605 0.0
H539 H 0.15366 0.5974 0.18219 0.0
H540 H 0.17683 0.67264 0.07802 0.0
H541 H 0.24786 0.7094 0.10302 0.0
C542 C 0.28239 0.69786 0.17284 0.0
C543 C 0.29602 0.69102 0.21153 0.0
C544 C 0.24197 0.6756 0.15778 0.0
C545 C 0.26868 0.65918 0.23357 0.0
C546 C 0.22906 0.63576 0.21804 0.0
C547 C 0.17439 0.62178 0.16496 0.0
C548 C 0.15981 0.63211 0.12806 0.0
C549 C 0.21502 0.64398 0.18033 0.0
C550 C 0.18698 0.66409 0.10643 0.0
C551 C 0.22774 0.6851 0.12073 0.0
H552 H 0.30827 0.3988 0.70259 0.0
H553 H 0.26291 0.50176 0.71301 0.0
H554 H 0.32656 0.54263 0.67807 0.0
H555 H 0.39455 0.54889 0.64192 0.0
H556 H 0.43634 0.44403 0.62878 0.0
H557 H 0.37425 0.40445 0.66593 0.0
C558 C 0.31171 0.43005 0.69696 0.0
C559 C 0.27995 0.44665 0.71064 0.0
C560 C 0.34787 0.45325 0.67563 0.0
C561 C 0.28652 0.48777 0.70367 0.0
C562 C 0.32291 0.51124 0.68313 0.0
C563 C 0.39003 0.51733 0.64694 0.0
C564 C 0.42053 0.49973 0.63207 0.0
C565 C 0.35368 0.49426 0.66853 0.0
C566 C 0.41375 0.4587 0.63937 0.0
C567 C 0.37813 0.43589 0.66089 0.0
H568 H 0.79952 0.80828 0.94021 0.0
H569 H 0.70819 0.69161 0.95688 0.0
H570 H 0.76582 0.6652 0.97849 0.0
H571 H 0.84288 0.67482 0.98807 0.0
H572 H 0.93315 0.79265 0.97241 0.0
H573 H 0.87517 0.81895 0.95411 0.0
C574 C 0.79228 0.77706 0.94867 0.0
C575 C 0.74997 0.75169 0.94652 0.0
C576 C 0.82538 0.76228 0.9607 0.0
C577 C 0.74066 0.71157 0.9583 0.0
C578 C 0.77358 0.69651 0.9704 0.0
C579 C 0.84983 0.70637 0.98122 0.0
C580 C 0.8925 0.73157 0.9811 0.0
C581 C 0.81618 0.7215 0.97109 0.0
C582 C 0.90083 0.77233 0.97181 0.0
C583 C 0.86765 0.78751 0.96164 0.0
H584 H 0.47604 0.83333 0.21416 0.0
H585 H 0.34492 0.83425 0.20687 0.0
H586 H 0.36789 0.89863 0.17368 0.0
H587 H 0.42492 0.95533 0.145 0.0
H588 H 0.55642 0.95916 0.15955 0.0
H589 H 0.53369 0.89345 0.19191 0.0
C590 C 0.45231 0.84764 0.20602 0.0
C591 C 0.40832 0.8273 0.21236 0.0
C592 C 0.46589 0.88609 0.18796 0.0
C593 C 0.37875 0.8474 0.20121 0.0
C594 C 0.3919 0.88485 0.18243 0.0
C595 C 0.44861 0.94181 0.15535 0.0
C596 C 0.49239 0.96223 0.14948 0.0
C597 C 0.43531 0.90435 0.17513 0.0
C598 C 0.52255 0.94434 0.16367 0.0
C599 C 0.50951 0.90659 0.18215 0.0
H600 H 0.09758 0.31427 0.71192 0.0
H601 H 0.22424 0.30166 0.7099 0.0
H602 H 0.19614 0.23567 0.6792 0.0
H603 H 0.13539 0.18096 0.65179 0.0
H604 H 1.00866 0.19345 0.65618 0.0
H605 H 0.0369 0.25898 0.68717 0.0
C606 C 0.1191 0.297 0.70538 0.0
C607 C 0.16326 0.31365 0.71326 0.0
C608 C 0.10264 0.25857 0.68787 0.0
C609 C 0.19029 0.29042 0.70374 0.0
C610 C 0.17418 0.25235 0.68627 0.0
C611 C 0.1139 0.19793 0.65958 0.0
C612 C 0.06975 0.18174 0.65137 0.0
C613 C 0.13039 0.23609 0.67788 0.0
C614 C 0.04269 0.20458 0.66197 0.0
C615 C 0.05884 0.24236 0.67979 0.0
H616 H 0.8189 0.36595 0.46575 0.0
H617 H 0.88917 0.49096 0.45358 0.0
H618 H 0.82324 0.50897 0.46377 0.0
H619 H 0.74596 0.48879 0.47738 0.0
H620 H 0.67632 0.36346 0.4916 0.0
H621 H 0.74145 0.34575 0.47873 0.0
C622 C 0.81949 0.39707 0.46523 0.0
C623 C 0.85825 0.42724 0.45905 0.0
C624 C 0.78167 0.40701 0.47135 0.0
C625 C 0.8593 0.46745 0.45833 0.0
C626 C 0.82174 0.47766 0.46418 0.0
C627 C 0.74507 0.45762 0.47794 0.0
C628 C 0.70625 0.42752 0.48553 0.0
C629 C 0.78279 0.44767 0.47101 0.0
C630 C 0.70558 0.38722 0.48538 0.0
C631 C 0.74288 0.37705 0.47829 0.0
loop_
_geom_bond_atom_site_label_1
_geom_bond_atom_site_label_2
_geom_bond_distance
_geom_bond_site_symmetry_2
_ccdc_geom_bond_type
H0 C3 0.929 . S
H1 C6 0.929 . S
H2 C8 0.930 . S
C3 H0 0.929 . S
C3 C4 1.398 . S
C3 C5 1.396 . S
C4 C3 1.398 . S
C4 C8 1.407 . S
C5 C3 1.396 . S
C5 C6 1.394 . S
C6 H1 0.929 . S
C6 C5 1.394 . S
C6 C7 1.382 . S
C7 C6 1.382 . S
C7 C8 1.392 . S
C7 N9 1.420 . S
C8 H2 0.930 . S
C8 C4 1.407 . S
C8 C7 1.392 . S
N9 C7 1.420 . S
N9 C10 1.244 . S
C10 N9 1.244 . S
H11 C14 0.929 . S
H12 C17 0.929 . S
H13 C19 0.930 . S
C14 H11 0.929 . S
C14 C15 1.398 . S
C14 C16 1.396 . S
C15 C14 1.398 . S
C15 C19 1.407 . S
C16 C14 1.396 . S
C16 C17 1.394 . S
C17 H12 0.929 . S
C17 C16 1.394 . S
C17 C18 1.382 . S
C18 C17 1.382 . S
C18 C19 1.392 . S
C18 N20 1.420 . S
C19 H13 0.930 . S
C19 C15 1.407 . S
C19 C18 1.392 . S
N20 C18 1.420 . S
N20 C21 1.244 . S
C21 N20 1.244 . S
H22 C25 0.929 . S
H23 C28 0.929 . S
H24 C30 0.930 . S
C25 H22 0.929 . S
C25 C26 1.398 . S
C25 C27 1.396 . S
C26 C25 1.398 . S
C26 C30 1.407 . S
C27 C25 1.396 . S
C27 C28 1.394 . S
C28 H23 0.929 . S
C28 C27 1.394 . S
C28 C29 1.382 . S
C29 C28 1.382 . S
C29 C30 1.392 . S
C29 N31 1.420 . S
C30 H24 0.930 . S
C30 C26 1.407 . S
C30 C29 1.392 . S
N31 C29 1.420 . S
N31 C32 1.244 . S
C32 N31 1.244 . S
H33 C36 0.929 . S
H34 C39 0.929 . S
H35 C41 0.930 . S
C36 H33 0.929 . S
C36 C37 1.398 . S
C36 C38 1.396 . S
C37 C36 1.398 . S
C37 C41 1.407 . S
C38 C36 1.396 . S
C38 C39 1.394 . S
C39 H34 0.929 . S
C39 C38 1.394 . S
C39 C40 1.382 . S
C40 C39 1.382 . S
C40 C41 1.392 . S
C40 N42 1.420 . S
C41 H35 0.930 . S
C41 C37 1.407 . S
C41 C40 1.392 . S
N42 C40 1.420 . S
N42 C43 1.244 . S
C43 N42 1.244 . S
H44 C47 0.929 . S
H45 C50 0.929 . S
H46 C52 0.930 . S
C47 H44 0.929 . S
C47 C48 1.398 . S
C47 C49 1.396 . S
C48 C47 1.398 . S
C48 C52 1.407 . S
C49 C47 1.396 . S
C49 C50 1.394 . S
C50 H45 0.929 . S
C50 C49 1.394 . S
C50 C51 1.382 . S
C51 C50 1.382 . S
C51 C52 1.392 . S
C51 N53 1.420 . S
C52 H46 0.930 . S
C52 C48 1.407 . S
C52 C51 1.392 . S
N53 C51 1.420 . S
N53 C54 1.244 . S
C54 N53 1.244 . S
H55 C58 0.929 . S
H56 C61 0.929 . S
H57 C63 0.930 . S
C58 H55 0.929 . S
C58 C59 1.398 . S
C58 C60 1.396 . S
C59 C58 1.398 . S
C59 C63 1.407 . S
C60 C58 1.396 . S
C60 C61 1.394 . S
C61 H56 0.929 . S
C61 C60 1.394 . S
C61 C62 1.382 . S
C62 C61 1.382 . S
C62 C63 1.392 . S
C62 N64 1.420 . S
C63 H57 0.930 . S
C63 C59 1.407 . S
C63 C62 1.392 . S
N64 C62 1.420 . S
N64 C65 1.244 . S
C65 N64 1.244 . S
H66 C69 0.929 . S
H67 C72 0.929 . S
H68 C74 0.930 . S
C69 H66 0.929 . S
C69 C70 1.398 . S
C69 C71 1.396 . S
C70 C69 1.398 . S
C70 C74 1.407 . S
C71 C69 1.396 . S
C71 C72 1.394 . S
C72 H67 0.929 . S
C72 C71 1.394 . S
C72 C73 1.382 . S
C73 C72 1.382 . S
C73 C74 1.392 . S
C73 N75 1.420 . S
C74 H68 0.930 . S
C74 C70 1.407 . S
C74 C73 1.392 . S
N75 C73 1.420 . S
N75 C76 1.244 . S
C76 N75 1.244 . S
H77 C80 0.929 . S
H78 C83 0.929 . S
H79 C85 0.930 . S
C80 H77 0.929 . S
C80 C81 1.398 . S
C80 C82 1.396 . S
C81 C80 1.398 . S
C81 C85 1.407 . S
C82 C80 1.396 . S
C82 C83 1.394 . S
C83 H78 0.929 . S
C83 C82 1.394 . S
C83 C84 1.382 . S
C84 C83 1.382 . S
C84 C85 1.392 . S
C84 N86 1.420 . S
C85 H79 0.930 . S
C85 C81 1.407 . S
C85 C84 1.392 . S
N86 C84 1.420 . S
N86 C87 1.244 . S
C87 N86 1.244 . S
Tb88 C97 2.764 . S
Tb88 O98 2.325 . S
Tb88 O101 2.303 . S
Tb88 O105 2.322 1_545 S
Tb88 O106 2.349 1_545 S
Tb88 O109 2.415 . S
Tb88 O110 2.399 . S
Tb89 O99 2.322 . S
Tb89 O100 2.349 1_655 S
Tb89 O102 2.415 1_545 S
Tb89 O103 2.399 . S
Tb89 O104 2.328 1_655 S
Tb89 O107 2.303 1_545 S
Tb89 C118 2.764 1_545 S
C90 O106 1.261 1_655 S
C90 O107 1.257 . S
C91 C94 1.358 . S
C91 C95 1.332 . S
C91 C97 1.504 . S
C92 C93 1.373 . S
C92 C96 1.308 . S
C93 C92 1.373 . S
C93 C94 1.429 . S
C93 H120 0.932 . S
C94 C91 1.358 . S
C94 C93 1.429 . S
C94 H121 0.930 . S
C95 C91 1.332 . S
C95 C96 1.394 . S
C95 H122 0.932 . S
C96 C92 1.308 . S
C96 C95 1.394 . S
C96 H123 0.929 . S
C97 Tb88 2.764 . S
C97 C91 1.504 . S
C97 O109 1.239 . S
C97 O110 1.263 . S
O98 Tb88 2.325 . S
O98 C108 1.236 1_455 S
O99 Tb89 2.322 . S
O99 C108 1.257 . S
O100 Tb89 2.349 1_455 S
O100 C111 1.261 . S
O101 Tb88 2.303 . S
O101 C111 1.257 . S
O102 Tb89 2.415 1_565 S
O102 C118 1.239 . S
O103 Tb89 2.399 . S
O103 C118 1.263 1_545 S
O104 Tb89 2.328 1_455 S
O104 C119 1.233 1_545 S
O105 Tb88 2.322 1_565 S
O105 C119 1.257 . S
O106 Tb88 2.349 1_565 S
O106 C90 1.261 1_455 S
O107 Tb89 2.303 1_565 S
O107 C90 1.257 . S
C108 O98 1.236 1_655 S
C108 O99 1.257 . S
O109 Tb88 2.415 . S
O109 C97 1.239 . S
O110 Tb88 2.399 . S
O110 C97 1.263 . S
C111 O100 1.261 . S
C111 O101 1.257 . S
C112 C115 1.358 . S
C112 C116 1.332 . S
C112 C118 1.504 . S
C113 C114 1.373 . S
C113 C117 1.308 . S
C114 C113 1.373 . S
C114 C115 1.429 . S
C114 H124 0.932 . S
C115 C112 1.358 . S
C115 C114 1.429 . S
C115 H125 0.930 . S
C116 C112 1.332 . S
C116 C117 1.394 . S
C116 H126 0.932 . S
C117 C113 1.308 . S
C117 C116 1.394 . S
C117 H127 0.929 . S
C118 Tb89 2.764 1_565 S
C118 O102 1.239 . S
C118 O103 1.263 1_565 S
C118 C112 1.504 . S
C119 O104 1.233 1_565 S
C119 O105 1.257 . S
H120 C93 0.932 . S
H121 C94 0.930 . S
H122 C95 0.932 . S
H123 C96 0.929 . S
H124 C114 0.932 . S
H125 C115 0.930 . S
H126 C116 0.932 . S
H127 C117 0.929 . S
Tb128 C137 2.764 . S
Tb128 O138 2.325 . S
Tb128 O141 2.303 . S
Tb128 O145 2.322 1_545 S
Tb128 O146 2.349 . S
Tb128 O149 2.415 . S
Tb128 O150 2.399 . S
Tb129 O139 2.322 . S
Tb129 O140 2.349 . S
Tb129 O142 2.415 1_544 S
Tb129 O143 2.399 1_544 S
Tb129 O144 2.325 1_545 S
Tb129 O147 2.303 . S
Tb129 C158 2.764 1_544 S
C130 O146 1.261 1_565 S
C130 O147 1.257 1_565 S
C131 C134 1.358 . S
C131 C135 1.332 . S
C131 C137 1.504 . S
C132 C133 1.373 . S
C132 C136 1.308 . S
C133 C132 1.373 . S
C133 C134 1.429 . S
C133 H160 0.932 . S
C134 C131 1.358 . S
C134 C133 1.429 . S
C134 H161 0.930 . S
C135 C131 1.332 . S
C135 C136 1.394 . S
C135 H162 0.932 . S
C136 C132 1.308 . S
C136 C135 1.394 . S
C136 H163 0.929 . S
C137 Tb128 2.764 . S
C137 C131 1.504 . S
C137 O149 1.239 . S
C137 O150 1.263 . S
O138 Tb128 2.325 . S
O138 C148 1.236 . S
O139 Tb129 2.322 . S
O139 C148 1.257 . S
O140 Tb129 2.349 . S
O140 C151 1.261 . S
O141 Tb128 2.303 . S
O141 C151 1.257 . S
O142 Tb129 2.415 1_566 S
O142 C158 1.239 . S
O143 Tb129 2.399 1_566 S
O143 C158 1.263 . S
O144 Tb129 2.325 1_565 S
O144 C159 1.236 . S
O145 Tb128 2.322 1_565 S
O145 C159 1.257 . S
O146 Tb128 2.349 . S
O146 C130 1.261 1_545 S
O147 Tb129 2.303 . S
O147 C130 1.257 1_545 S
C148 O138 1.236 . S
C148 O139 1.257 . S
O149 Tb128 2.415 . S
O149 C137 1.239 . S
O150 Tb128 2.399 . S
O150 C137 1.263 . S
C151 O140 1.261 . S
C151 O141 1.257 . S
C152 C155 1.358 . S
C152 C156 1.332 . S
C152 C158 1.504 . S
C153 C154 1.373 . S
C153 C157 1.308 . S
C154 C153 1.373 . S
C154 C155 1.429 . S
C154 H164 0.932 . S
C155 C152 1.358 . S
C155 C154 1.429 . S
C155 H165 0.930 . S
C156 C152 1.332 . S
C156 C157 1.394 . S
C156 H166 0.932 . S
C157 C153 1.308 . S
C157 C156 1.394 . S
C157 H167 0.929 . S
C158 Tb129 2.764 1_566 S
C158 O142 1.239 . S
C158 O143 1.263 . S
C158 C152 1.504 . S
C159 O144 1.236 . S
C159 O145 1.257 . S
H160 C133 0.932 . S
H161 C134 0.930 . S
H162 C135 0.932 . S
H163 C136 0.929 . S
H164 C154 0.932 . S
H165 C155 0.930 . S
H166 C156 0.932 . S
H167 C157 0.929 . S
Tb168 C177 2.764 . S
Tb168 O178 2.325 . S
Tb168 O181 2.303 . S
Tb168 O185 2.322 . S
Tb168 O186 2.349 . S
Tb168 O189 2.415 . S
Tb168 O190 2.399 . S
Tb169 O179 2.322 . S
Tb169 O180 2.349 . S
Tb169 O182 2.415 . S
Tb169 O183 2.399 . S
Tb169 O184 2.325 . S
Tb169 O187 2.303 . S
Tb169 C198 2.764 . S
C170 O186 1.261 . S
C170 O187 1.257 . S
C171 C174 1.358 . S
C171 C175 1.332 . S
C171 C177 1.504 . S
C172 C173 1.373 . S
C172 C176 1.308 . S
C173 C172 1.373 . S
C173 C174 1.429 . S
C173 H200 0.932 . S
C174 C171 1.358 . S
C174 C173 1.429 . S
C174 H201 0.930 . S
C175 C171 1.332 . S
C175 C176 1.394 . S
C175 H202 0.932 . S
C176 C172 1.308 . S
C176 C175 1.394 . S
C176 H203 0.929 . S
C177 Tb168 2.764 . S
C177 C171 1.504 . S
C177 O189 1.239 . S
C177 O190 1.263 . S
O178 Tb168 2.325 . S
O178 C188 1.236 . S
O179 Tb169 2.322 . S
O179 C188 1.257 . S
O180 Tb169 2.349 . S
O180 C191 1.261 . S
O181 Tb168 2.303 . S
O181 C191 1.257 . S
O182 Tb169 2.415 . S
O182 C198 1.239 . S
O183 Tb169 2.399 . S
O183 C198 1.263 . S
O184 Tb169 2.325 . S
O184 C199 1.236 . S
O185 Tb168 2.322 . S
O185 C199 1.257 . S
O186 Tb168 2.349 . S
O186 C170 1.261 . S
O187 Tb169 2.303 . S
O187 C170 1.257 . S
C188 O178 1.236 . S
C188 O179 1.257 . S
O189 Tb168 2.415 . S
O189 C177 1.239 . S
O190 Tb168 2.399 . S
O190 C177 1.263 . S
C191 O180 1.261 . S
C191 O181 1.257 . S
C192 C195 1.358 . S
C192 C196 1.332 . S
C192 C198 1.504 . S
C193 C194 1.373 . S
C193 C197 1.308 . S
C194 C193 1.373 . S
C194 C195 1.429 . S
C194 H204 0.932 . S
C195 C192 1.358 . S
C195 C194 1.429 . S
C195 H205 0.930 . S
C196 C192 1.332 . S
C196 C197 1.394 . S
C196 H206 0.932 . S
C197 C193 1.308 . S
C197 C196 1.394 . S
C197 H207 0.929 . S
C198 Tb169 2.764 . S
C198 O182 1.239 . S
C198 O183 1.263 . S
C198 C192 1.504 . S
C199 O184 1.236 . S
C199 O185 1.257 . S
H200 C173 0.932 . S
H201 C174 0.930 . S
H202 C175 0.932 . S
H203 C176 0.929 . S
H204 C194 0.932 . S
H205 C195 0.930 . S
H206 C196 0.932 . S
H207 C197 0.929 . S
Tb208 C217 2.764 1_455 S
Tb208 O218 2.325 1_455 S
Tb208 O221 2.303 1_556 S
Tb208 O225 2.322 1_556 S
Tb208 O226 2.349 . S
Tb208 O229 2.415 1_455 S
Tb208 O230 2.399 . S
Tb209 O219 2.322 1_455 S
Tb209 O220 2.349 . S
Tb209 O222 2.415 . S
Tb209 O223 2.399 . S
Tb209 O224 2.325 . S
Tb209 O227 2.303 1_554 S
Tb209 C238 2.764 . S
C210 O226 1.261 . S
C210 O227 1.257 . S
C211 C214 1.358 . S
C211 C215 1.332 . S
C211 C217 1.504 . S
C212 C213 1.373 . S
C212 C216 1.308 . S
C213 C212 1.373 . S
C213 C214 1.429 . S
C213 H240 0.932 . S
C214 C211 1.358 . S
C214 C213 1.429 . S
C214 H241 0.930 . S
C215 C211 1.332 . S
C215 C216 1.394 . S
C215 H242 0.932 . S
C216 C212 1.308 . S
C216 C215 1.394 . S
C216 H243 0.929 . S
C217 Tb208 2.764 1_655 S
C217 C211 1.504 . S
C217 O229 1.239 . S
C217 O230 1.263 1_655 S
O218 Tb208 2.325 1_655 S
O218 C228 1.236 . S
O219 Tb209 2.322 1_655 S
O219 C228 1.257 1_554 S
O220 Tb209 2.349 . S
O220 C231 1.261 . S
O221 Tb208 2.303 1_554 S
O221 C231 1.257 . S
O222 Tb209 2.415 . S
O222 C238 1.239 . S
O223 Tb209 2.399 . S
O223 C238 1.263 . S
O224 Tb209 2.325 . S
O224 C239 1.236 . S
O225 Tb208 2.322 1_554 S
O225 C239 1.257 . S
O226 Tb208 2.349 . S
O226 C210 1.261 . S
O227 Tb209 2.303 1_556 S
O227 C210 1.257 . S
C228 O218 1.236 . S
C228 O219 1.257 1_556 S
O229 Tb208 2.415 1_655 S
O229 C217 1.239 . S
O230 Tb208 2.399 . S
O230 C217 1.263 1_455 S
C231 O220 1.261 . S
C231 O221 1.257 . S
C232 C235 1.358 . S
C232 C236 1.332 . S
C232 C238 1.504 . S
C233 C234 1.373 . S
C233 C237 1.308 . S
C234 C233 1.373 . S
C234 C235 1.429 . S
C234 H244 0.932 . S
C235 C232 1.358 . S
C235 C234 1.429 . S
C235 H245 0.930 . S
C236 C232 1.332 . S
C236 C237 1.394 . S
C236 H246 0.932 . S
C237 C233 1.308 . S
C237 C236 1.394 . S
C237 H247 0.929 . S
C238 Tb209 2.764 . S
C238 O222 1.239 . S
C238 O223 1.263 . S
C238 C232 1.504 . S
C239 O224 1.236 . S
C239 O225 1.257 . S
H240 C213 0.932 . S
H241 C214 0.930 . S
H242 C215 0.932 . S
H243 C216 0.929 . S
H244 C234 0.932 . S
H245 C235 0.930 . S
H246 C236 0.932 . S
H247 C237 0.929 . S
H248 C254 0.930 . S
H249 C257 0.930 . S
H250 C258 0.930 . S
H251 C259 0.930 . S
H252 C262 0.930 . S
H253 C263 0.930 . S
C254 H248 0.930 . S
C254 C255 1.355 . S
C254 C256 1.415 . S
C255 C254 1.355 . S
C255 C257 1.419 . S
C256 C254 1.415 . S
C256 C261 1.425 . S
C256 C263 1.409 . S
C257 H249 0.930 . S
C257 C255 1.419 . S
C257 C258 1.362 . S
C258 H250 0.930 . S
C258 C257 1.362 . S
C258 C261 1.409 . S
C259 H251 0.930 . S
C259 C260 1.355 . S
C259 C261 1.415 . S
C260 C259 1.355 . S
C260 C262 1.419 . S
C261 C256 1.425 . S
C261 C258 1.409 . S
C261 C259 1.415 . S
C262 H252 0.930 . S
C262 C260 1.419 . S
C262 C263 1.362 . S
C263 H253 0.930 . S
C263 C256 1.409 . S
C263 C262 1.362 . S
H264 C270 0.930 . S
H265 C273 0.930 . S
H266 C274 0.930 . S
H267 C275 0.930 . S
H268 C278 0.930 . S
H269 C279 0.930 . S
C270 H264 0.930 . S
C270 C271 1.355 . S
C270 C272 1.415 . S
C271 C270 1.355 . S
C271 C273 1.419 . S
C272 C270 1.415 . S
C272 C277 1.425 . S
C272 C279 1.409 . S
C273 H265 0.930 . S
C273 C271 1.419 . S
C273 C274 1.362 . S
C274 H266 0.930 . S
C274 C273 1.362 . S
C274 C277 1.409 . S
C275 H267 0.930 . S
C275 C276 1.355 . S
C275 C277 1.415 . S
C276 C275 1.355 . S
C276 C278 1.419 . S
C277 C272 1.425 . S
C277 C274 1.409 . S
C277 C275 1.415 . S
C278 H268 0.930 . S
C278 C276 1.419 . S
C278 C279 1.362 . S
C279 H269 0.930 . S
C279 C272 1.409 . S
C279 C278 1.362 . S
H280 C286 0.930 . S
H281 C289 0.930 . S
H282 C290 0.930 . S
H283 C291 0.930 . S
H284 C294 0.930 . S
H285 C295 0.930 . S
C286 H280 0.930 . S
C286 C287 1.355 . S
C286 C288 1.415 . S
C287 C286 1.355 . S
C287 C289 1.419 . S
C288 C286 1.415 . S
C288 C293 1.425 . S
C288 C295 1.409 . S
C289 H281 0.930 . S
C289 C287 1.419 . S
C289 C290 1.362 . S
C290 H282 0.930 . S
C290 C289 1.362 . S
C290 C293 1.409 . S
C291 H283 0.930 . S
C291 C292 1.355 . S
C291 C293 1.415 . S
C292 C291 1.355 . S
C292 C294 1.419 . S
C293 C288 1.425 . S
C293 C290 1.409 . S
C293 C291 1.415 . S
C294 H284 0.930 . S
C294 C292 1.419 . S
C294 C295 1.362 . S
C295 H285 0.930 . S
C295 C288 1.409 . S
C295 C294 1.362 . S
H296 C302 0.930 . S
H297 C305 0.930 . S
H298 C306 0.930 . S
H299 C307 0.930 . S
H300 C310 0.930 1_455 S
H301 C311 0.930 . S
C302 H296 0.930 . S
C302 C303 1.355 . S
C302 C304 1.415 . S
C303 C302 1.355 . S
C303 C305 1.419 . S
C304 C302 1.415 . S
C304 C309 1.425 . S
C304 C311 1.409 . S
C305 H297 0.930 . S
C305 C303 1.419 . S
C305 C306 1.362 . S
C306 H298 0.930 . S
C306 C305 1.362 . S
C306 C309 1.409 . S
C307 H299 0.930 . S
C307 C308 1.355 . S
C307 C309 1.415 . S
C308 C307 1.355 . S
C308 C310 1.419 . S
C309 C304 1.425 . S
C309 C306 1.409 . S
C309 C307 1.415 . S
C310 H300 0.930 1_655 S
C310 C308 1.419 . S
C310 C311 1.362 . S
C311 H301 0.930 . S
C311 C304 1.409 . S
C311 C310 1.362 . S
H312 C318 0.930 . S
H313 C321 0.930 . S
H314 C322 0.930 . S
H315 C323 0.930 . S
H316 C326 0.930 . S
H317 C327 0.930 . S
C318 H312 0.930 . S
C318 C319 1.355 . S
C318 C320 1.415 . S
C319 C318 1.355 . S
C319 C321 1.419 . S
C320 C318 1.415 . S
C320 C325 1.425 . S
C320 C327 1.409 . S
C321 H313 0.930 . S
C321 C319 1.419 . S
C321 C322 1.362 . S
C322 H314 0.930 . S
C322 C321 1.362 . S
C322 C325 1.409 . S
C323 H315 0.930 . S
C323 C324 1.355 . S
C323 C325 1.415 . S
C324 C323 1.355 . S
C324 C326 1.419 . S
C325 C320 1.425 . S
C325 C322 1.409 . S
C325 C323 1.415 . S
C326 H316 0.930 . S
C326 C324 1.419 . S
C326 C327 1.362 . S
C327 H317 0.930 . S
C327 C320 1.409 . S
C327 C326 1.362 . S
H328 C334 0.930 1_655 S
H329 C337 0.930 . S
H330 C338 0.930 . S
H331 C339 0.930 . S
H332 C342 0.930 1_655 S
H333 C343 0.930 . S
C334 H328 0.930 1_455 S
C334 C335 1.355 . S
C334 C336 1.415 . S
C335 C334 1.355 . S
C335 C337 1.419 . S
C336 C334 1.415 . S
C336 C341 1.425 . S
C336 C343 1.409 1_455 S
C337 H329 0.930 . S
C337 C335 1.419 . S
C337 C338 1.362 . S
C338 H330 0.930 . S
C338 C337 1.362 . S
C338 C341 1.409 . S
C339 H331 0.930 . S
C339 C340 1.355 . S
C339 C341 1.415 . S
C340 C339 1.355 . S
C340 C342 1.419 . S
C341 C336 1.425 . S
C341 C338 1.409 . S
C341 C339 1.415 . S
C342 H332 0.930 1_455 S
C342 C340 1.419 . S
C342 C343 1.362 1_455 S
C343 H333 0.930 . S
C343 C336 1.409 1_655 S
C343 C342 1.362 1_655 S
H344 C350 0.930 . S
H345 C353 0.930 . S
H346 C354 0.930 . S
H347 C355 0.930 . S
H348 C358 0.930 . S
H349 C359 0.930 . S
C350 H344 0.930 . S
C350 C351 1.355 . S
C350 C352 1.415 . S
C351 C350 1.355 . S
C351 C353 1.419 . S
C352 C350 1.415 . S
C352 C357 1.425 . S
C352 C359 1.409 1_556 S
C353 H345 0.930 . S
C353 C351 1.419 . S
C353 C354 1.362 . S
C354 H346 0.930 . S
C354 C353 1.362 . S
C354 C357 1.409 . S
C355 H347 0.930 . S
C355 C356 1.355 . S
C355 C357 1.415 . S
C356 C355 1.355 . S
C356 C358 1.419 1_556 S
C357 C352 1.425 . S
C357 C354 1.409 . S
C357 C355 1.415 . S
C358 H348 0.930 . S
C358 C356 1.419 1_554 S
C358 C359 1.362 . S
C359 H349 0.930 . S
C359 C352 1.409 1_554 S
C359 C358 1.362 . S
H360 C366 0.930 . S
H361 C369 0.930 . S
H362 C370 0.930 . S
H363 C371 0.930 . S
H364 C374 0.930 . S
H365 C375 0.930 . S
C366 H360 0.930 . S
C366 C367 1.355 . S
C366 C368 1.415 . S
C367 C366 1.355 . S
C367 C369 1.419 . S
C368 C366 1.415 . S
C368 C373 1.425 . S
C368 C375 1.409 . S
C369 H361 0.930 . S
C369 C367 1.419 . S
C369 C370 1.362 . S
C370 H362 0.930 . S
C370 C369 1.362 . S
C370 C373 1.409 . S
C371 H363 0.930 . S
C371 C372 1.355 . S
C371 C373 1.415 . S
C372 C371 1.355 . S
C372 C374 1.419 . S
C373 C368 1.425 . S
C373 C370 1.409 . S
C373 C371 1.415 . S
C374 H364 0.930 . S
C374 C372 1.419 . S
C374 C375 1.362 . S
C375 H365 0.930 . S
C375 C368 1.409 . S
C375 C374 1.362 . S
H376 C382 0.930 . S
H377 C385 0.930 . S
H378 C386 0.930 . S
H379 C387 0.930 . S
H380 C390 0.930 . S
H381 C391 0.930 . S
C382 H376 0.930 . S
C382 C383 1.355 . S
C382 C384 1.415 . S
C383 C382 1.355 . S
C383 C385 1.419 . S
C384 C382 1.415 . S
C384 C389 1.425 . S
C384 C391 1.409 . S
C385 H377 0.930 . S
C385 C383 1.419 . S
C385 C386 1.362 . S
C386 H378 0.930 . S
C386 C385 1.362 . S
C386 C389 1.409 . S
C387 H379 0.930 . S
C387 C388 1.355 . S
C387 C389 1.415 . S
C388 C387 1.355 . S
C388 C390 1.419 . S
C389 C384 1.425 . S
C389 C386 1.409 . S
C389 C387 1.415 . S
C390 H380 0.930 . S
C390 C388 1.419 . S
C390 C391 1.362 . S
C391 H381 0.930 . S
C391 C384 1.409 . S
C391 C390 1.362 . S
H392 C398 0.930 . S
H393 C401 0.930 . S
H394 C402 0.930 . S
H395 C403 0.930 . S
H396 C406 0.930 . S
H397 C407 0.930 . S
C398 H392 0.930 . S
C398 C399 1.355 . S
C398 C400 1.415 . S
C399 C398 1.355 . S
C399 C401 1.419 . S
C400 C398 1.415 . S
C400 C405 1.425 . S
C400 C407 1.409 . S
C401 H393 0.930 . S
C401 C399 1.419 . S
C401 C402 1.362 . S
C402 H394 0.930 . S
C402 C401 1.362 . S
C402 C405 1.409 . S
C403 H395 0.930 . S
C403 C404 1.355 . S
C403 C405 1.415 . S
C404 C403 1.355 . S
C404 C406 1.419 . S
C405 C400 1.425 . S
C405 C402 1.409 . S
C405 C403 1.415 . S
C406 H396 0.930 . S
C406 C404 1.419 . S
C406 C407 1.362 . S
C407 H397 0.930 . S
C407 C400 1.409 . S
C407 C406 1.362 . S
H408 C414 0.930 . S
H409 C417 0.930 . S
H410 C418 0.930 1_455 S
H411 C419 0.930 1_455 S
H412 C422 0.930 . S
H413 C423 0.930 . S
C414 H408 0.930 . S
C414 C415 1.355 . S
C414 C416 1.415 . S
C415 C414 1.355 . S
C415 C417 1.419 . S
C416 C414 1.415 . S
C416 C421 1.425 . S
C416 C423 1.409 . S
C417 H409 0.930 . S
C417 C415 1.419 . S
C417 C418 1.362 . S
C418 H410 0.930 1_655 S
C418 C417 1.362 . S
C418 C421 1.409 . S
C419 H411 0.930 1_655 S
C419 C420 1.355 . S
C419 C421 1.415 . S
C420 C419 1.355 . S
C420 C422 1.419 . S
C421 C416 1.425 . S
C421 C418 1.409 . S
C421 C419 1.415 . S
C422 H412 0.930 . S
C422 C420 1.419 . S
C422 C423 1.362 . S
C423 H413 0.930 . S
C423 C416 1.409 . S
C423 C422 1.362 . S
H424 C430 0.930 . S
H425 C433 0.930 . S
H426 C434 0.930 . S
H427 C435 0.930 . S
H428 C438 0.930 . S
H429 C439 0.930 . S
C430 H424 0.930 . S
C430 C431 1.355 . S
C430 C432 1.415 . S
C431 C430 1.355 . S
C431 C433 1.419 . S
C432 C430 1.415 . S
C432 C437 1.425 . S
C432 C439 1.409 . S
C433 H425 0.930 . S
C433 C431 1.419 . S
C433 C434 1.362 . S
C434 H426 0.930 . S
C434 C433 1.362 . S
C434 C437 1.409 . S
C435 H427 0.930 . S
C435 C436 1.355 . S
C435 C437 1.415 . S
C436 C435 1.355 . S
C436 C438 1.419 . S
C437 C432 1.425 . S
C437 C434 1.409 . S
C437 C435 1.415 . S
C438 H428 0.930 . S
C438 C436 1.419 . S
C438 C439 1.362 . S
C439 H429 0.930 . S
C439 C432 1.409 . S
C439 C438 1.362 . S
H440 C446 0.930 . S
H441 C449 0.930 . S
H442 C450 0.930 . S
H443 C451 0.930 . S
H444 C454 0.930 . S
H445 C455 0.930 . S
C446 H440 0.930 . S
C446 C447 1.355 . S
C446 C448 1.415 . S
C447 C446 1.355 . S
C447 C449 1.419 . S
C448 C446 1.415 . S
C448 C453 1.425 . S
C448 C455 1.409 . S
C449 H441 0.930 . S
C449 C447 1.419 . S
C449 C450 1.362 . S
C450 H442 0.930 . S
C450 C449 1.362 . S
C450 C453 1.409 . S
C451 H443 0.930 . S
C451 C452 1.355 . S
C451 C453 1.415 . S
C452 C451 1.355 . S
C452 C454 1.419 . S
C453 C448 1.425 . S
C453 C450 1.409 . S
C453 C451 1.415 . S
C454 H444 0.930 . S
C454 C452 1.419 . S
C454 C455 1.362 . S
C455 H445 0.930 . S
C455 C448 1.409 . S
C455 C454 1.362 . S
H456 C462 0.930 . S
H457 C465 0.930 . S
H458 C466 0.930 . S
H459 C467 0.930 . S
H460 C470 0.930 . S
H461 C471 0.930 . S
C462 H456 0.930 . S
C462 C463 1.355 . S
C462 C464 1.415 . S
C463 C462 1.355 . S
C463 C465 1.419 . S
C464 C462 1.415 . S
C464 C469 1.425 . S
C464 C471 1.409 . S
C465 H457 0.930 . S
C465 C463 1.419 . S
C465 C466 1.362 . S
C466 H458 0.930 . S
C466 C465 1.362 . S
C466 C469 1.409 . S
C467 H459 0.930 . S
C467 C468 1.355 . S
C467 C469 1.415 . S
C468 C467 1.355 . S
C468 C470 1.419 . S
C469 C464 1.425 . S
C469 C466 1.409 . S
C469 C467 1.415 . S
C470 H460 0.930 . S
C470 C468 1.419 . S
C470 C471 1.362 . S
C471 H461 0.930 . S
C471 C464 1.409 . S
C471 C470 1.362 . S
H472 C478 0.930 . S
H473 C481 0.930 . S
H474 C482 0.930 . S
H475 C483 0.930 . S
H476 C486 0.930 . S
H477 C487 0.930 . S
C478 H472 0.930 . S
C478 C479 1.355 . S
C478 C480 1.415 . S
C479 C478 1.355 . S
C479 C481 1.419 . S
C480 C478 1.415 . S
C480 C485 1.425 . S
C480 C487 1.409 . S
C481 H473 0.930 . S
C481 C479 1.419 . S
C481 C482 1.362 . S
C482 H474 0.930 . S
C482 C481 1.362 . S
C482 C485 1.409 . S
C483 H475 0.930 . S
C483 C484 1.355 . S
C483 C485 1.415 . S
C484 C483 1.355 . S
C484 C486 1.419 . S
C485 C480 1.425 . S
C485 C482 1.409 . S
C485 C483 1.415 . S
C486 H476 0.930 . S
C486 C484 1.419 . S
C486 C487 1.362 . S
C487 H477 0.930 . S
C487 C480 1.409 . S
C487 C486 1.362 . S
H488 C494 0.930 . S
H489 C497 0.930 . S
H490 C498 0.930 . S
H491 C499 0.930 . S
H492 C502 0.930 . S
H493 C503 0.930 . S
C494 H488 0.930 . S
C494 C495 1.355 . S
C494 C496 1.415 . S
C495 C494 1.355 . S
C495 C497 1.419 . S
C496 C494 1.415 . S
C496 C501 1.425 . S
C496 C503 1.409 . S
C497 H489 0.930 . S
C497 C495 1.419 . S
C497 C498 1.362 . S
C498 H490 0.930 . S
C498 C497 1.362 . S
C498 C501 1.409 . S
C499 H491 0.930 . S
C499 C500 1.355 . S
C499 C501 1.415 . S
C500 C499 1.355 . S
C500 C502 1.419 . S
C501 C496 1.425 . S
C501 C498 1.409 . S
C501 C499 1.415 . S
C502 H492 0.930 . S
C502 C500 1.419 . S
C502 C503 1.362 . S
C503 H493 0.930 . S
C503 C496 1.409 . S
C503 C502 1.362 . S
H504 C510 0.930 . S
H505 C513 0.930 . S
H506 C514 0.930 . S
H507 C515 0.930 1_554 S
H508 C518 0.930 . S
H509 C519 0.930 . S
C510 H504 0.930 . S
C510 C511 1.355 . S
C510 C512 1.415 . S
C511 C510 1.355 . S
C511 C513 1.419 . S
C512 C510 1.415 . S
C512 C517 1.425 . S
C512 C519 1.409 . S
C513 H505 0.930 . S
C513 C511 1.419 . S
C513 C514 1.362 . S
C514 H506 0.930 . S
C514 C513 1.362 . S
C514 C517 1.409 . S
C515 H507 0.930 1_556 S
C515 C516 1.355 1_556 S
C515 C517 1.415 . S
C516 C515 1.355 1_554 S
C516 C518 1.419 1_554 S
C517 C512 1.425 . S
C517 C514 1.409 . S
C517 C515 1.415 . S
C518 H508 0.930 . S
C518 C516 1.419 1_556 S
C518 C519 1.362 . S
C519 H509 0.930 . S
C519 C512 1.409 . S
C519 C518 1.362 . S
H520 C526 0.930 . S
H521 C529 0.930 1_455 S
H522 C530 0.930 . S
H523 C531 0.930 1_455 S
H524 C534 0.930 . S
H525 C535 0.930 . S
C526 H520 0.930 . S
C526 C527 1.355 . S
C526 C528 1.415 . S
C527 C526 1.355 . S
C527 C529 1.419 . S
C528 C526 1.415 . S
C528 C533 1.425 . S
C528 C535 1.409 . S
C529 H521 0.930 1_655 S
C529 C527 1.419 . S
C529 C530 1.362 1_655 S
C530 H522 0.930 . S
C530 C529 1.362 1_455 S
C530 C533 1.409 1_455 S
C531 H523 0.930 1_655 S
C531 C532 1.355 . S
C531 C533 1.415 . S
C532 C531 1.355 . S
C532 C534 1.419 . S
C533 C528 1.425 . S
C533 C530 1.409 1_655 S
C533 C531 1.415 . S
C534 H524 0.930 . S
C534 C532 1.419 . S
C534 C535 1.362 . S
C535 H525 0.930 . S
C535 C528 1.409 . S
C535 C534 1.362 . S
H536 C542 0.930 . S
H537 C545 0.930 . S
H538 C546 0.930 . S
H539 C547 0.930 . S
H540 C550 0.930 . S
H541 C551 0.930 . S
C542 H536 0.930 . S
C542 C543 1.355 . S
C542 C544 1.415 . S
C543 C542 1.355 . S
C543 C545 1.419 . S
C544 C542 1.415 . S
C544 C549 1.425 . S
C544 C551 1.409 . S
C545 H537 0.930 . S
C545 C543 1.419 . S
C545 C546 1.362 . S
C546 H538 0.930 . S
C546 C545 1.362 . S
C546 C549 1.409 . S
C547 H539 0.930 . S
C547 C548 1.355 . S
C547 C549 1.415 . S
C548 C547 1.355 . S
C548 C550 1.419 . S
C549 C544 1.425 . S
C549 C546 1.409 . S
C549 C547 1.415 . S
C550 H540 0.930 . S
C550 C548 1.419 . S
C550 C551 1.362 . S
C551 H541 0.930 . S
C551 C544 1.409 . S
C551 C550 1.362 . S
H552 C558 0.930 . S
H553 C561 0.930 . S
H554 C562 0.930 . S
H555 C563 0.930 . S
H556 C566 0.930 . S
H557 C567 0.930 . S
C558 H552 0.930 . S
C558 C559 1.355 . S
C558 C560 1.415 . S
C559 C558 1.355 . S
C559 C561 1.419 . S
C560 C558 1.415 . S
C560 C565 1.425 . S
C560 C567 1.409 . S
C561 H553 0.930 . S
C561 C559 1.419 . S
C561 C562 1.362 . S
C562 H554 0.930 . S
C562 C561 1.362 . S
C562 C565 1.409 . S
C563 H555 0.930 . S
C563 C564 1.355 . S
C563 C565 1.415 . S
C564 C563 1.355 . S
C564 C566 1.419 . S
C565 C560 1.425 . S
C565 C562 1.409 . S
C565 C563 1.415 . S
C566 H556 0.930 . S
C566 C564 1.419 . S
C566 C567 1.362 . S
C567 H557 0.930 . S
C567 C560 1.409 . S
C567 C566 1.362 . S
H568 C574 0.930 . S
H569 C577 0.930 . S
H570 C578 0.930 . S
H571 C579 0.930 . S
H572 C582 0.930 . S
H573 C583 0.930 . S
C574 H568 0.930 . S
C574 C575 1.355 . S
C574 C576 1.415 . S
C575 C574 1.355 . S
C575 C577 1.419 . S
C576 C574 1.415 . S
C576 C581 1.425 . S
C576 C583 1.409 . S
C577 H569 0.930 . S
C577 C575 1.419 . S
C577 C578 1.362 . S
C578 H570 0.930 . S
C578 C577 1.362 . S
C578 C581 1.409 . S
C579 H571 0.930 . S
C579 C580 1.355 . S
C579 C581 1.415 . S
C580 C579 1.355 . S
C580 C582 1.419 . S
C581 C576 1.425 . S
C581 C578 1.409 . S
C581 C579 1.415 . S
C582 H572 0.930 . S
C582 C580 1.419 . S
C582 C583 1.362 . S
C583 H573 0.930 . S
C583 C576 1.409 . S
C583 C582 1.362 . S
H584 C590 0.930 . S
H585 C593 0.930 . S
H586 C594 0.930 . S
H587 C595 0.930 . S
H588 C598 0.930 . S
H589 C599 0.930 . S
C590 H584 0.930 . S
C590 C591 1.355 . S
C590 C592 1.415 . S
C591 C590 1.355 . S
C591 C593 1.419 . S
C592 C590 1.415 . S
C592 C597 1.425 . S
C592 C599 1.409 . S
C593 H585 0.930 . S
C593 C591 1.419 . S
C593 C594 1.362 . S
C594 H586 0.930 . S
C594 C593 1.362 . S
C594 C597 1.409 . S
C595 H587 0.930 . S
C595 C596 1.355 . S
C595 C597 1.415 . S
C596 C595 1.355 . S
C596 C598 1.419 . S
C597 C592 1.425 . S
C597 C594 1.409 . S
C597 C595 1.415 . S
C598 H588 0.930 . S
C598 C596 1.419 . S
C598 C599 1.362 . S
C599 H589 0.930 . S
C599 C592 1.409 . S
C599 C598 1.362 . S
H600 C606 0.930 . S
H601 C609 0.930 . S
H602 C610 0.930 . S
H603 C611 0.930 . S
H604 C614 0.930 . S
H605 C615 0.930 . S
C606 H600 0.930 . S
C606 C607 1.355 . S
C606 C608 1.415 . S
C607 C606 1.355 . S
C607 C609 1.419 . S
C608 C606 1.415 . S
C608 C613 1.425 . S
C608 C615 1.409 . S
C609 H601 0.930 . S
C609 C607 1.419 . S
C609 C610 1.362 . S
C610 H602 0.930 . S
C610 C609 1.362 . S
C610 C613 1.409 . S
C611 H603 0.930 . S
C611 C612 1.355 . S
C611 C613 1.415 . S
C612 C611 1.355 . S
C612 C614 1.419 . S
C613 C608 1.425 . S
C613 C610 1.409 . S
C613 C611 1.415 . S
C614 H604 0.930 . S
C614 C612 1.419 . S
C614 C615 1.362 . S
C615 H605 0.930 . S
C615 C608 1.409 . S
C615 C614 1.362 . S
H616 C622 0.930 . S
H617 C625 0.930 . S
H618 C626 0.930 . S
H619 C627 0.930 . S
H620 C630 0.930 . S
H621 C631 0.930 . S
C622 H616 0.930 . S
C622 C623 1.355 . S
C622 C624 1.415 . S
C623 C622 1.355 . S
C623 C625 1.419 . S
C624 C622 1.415 . S
C624 C629 1.425 . S
C624 C631 1.409 . S
C625 H617 0.930 . S
C625 C623 1.419 . S
C625 C626 1.362 . S
C626 H618 0.930 . S
C626 C625 1.362 . S
C626 C629 1.409 . S
C627 H619 0.930 . S
C627 C628 1.355 . S
C627 C629 1.415 . S
C628 C627 1.355 . S
C628 C630 1.419 . S
C629 C624 1.425 . S
C629 C626 1.409 . S
C629 C627 1.415 . S
C630 H620 0.930 . S
C630 C628 1.419 . S
C630 C631 1.362 . S
C631 H621 0.930 . S
C631 C624 1.409 . S
C631 C630 1.362 . S
C255 C4 0.914 . S
C260 C92 0.951 . S
C271 C16 1.280 . S
C276 C153 1.271 . S
C292 C191 2.194 . S
C287 C32 2.220 . S
C303 C43 2.329 . S
C308 C231 2.280 1_655 S
C324 C151 1.738 . S
C319 C5 1.660 . S
C340 C119 1.655 . S
C335 C21 1.535 . S
C356 C228 1.760 . S
C351 C27 1.766 . S
C372 C188 1.750 . S
C367 C37 1.805 . S
C383 C10 1.124 . S
C388 C233 1.123 . S
C404 C148 2.572 1_556 S
C399 C26 2.573 . S
C415 C38 1.972 . S
C420 C90 1.952 . S
C431 C15 1.528 . S
C436 C193 1.581 . S
C452 C113 1.052 . S
C447 C48 1.054 . S
C463 C59 1.090 . S
C468 C132 1.076 . S
C479 C76 2.492 . S
C484 C170 2.415 . S
C495 C87 2.113 . S
C500 C210 2.090 . S
C511 C54 0.983 . S
C516 C130 1.068 . S
C532 C108 2.274 . S
C527 C60 2.209 . S
C548 C239 1.666 . S
C543 C71 1.650 . S
C564 C199 1.862 . S
C559 C82 1.880 . S
C575 C49 1.444 . S
C580 C212 1.491 . S
C596 C159 2.067 . S
C591 C70 2.070 . S
C612 C111 2.363 . S
C607 C81 2.411 . S
C623 C65 1.333 . S
C628 C172 1.353 . S
