# Generated by pormake.
# Topology zzz, (3,6)-cn, num edge types: 1
# Building blocks:
#     Node 0, Type 0, BuildingBlock: BETDIP_clean_linker_0, # of connection points: 3
#     Node 1, Type 0, BuildingBlock: BETDIP_clean_linker_0, # of connection points: 3
#     Node 2, Type 0, BuildingBlock: BETDIP_clean_linker_0, # of connection points: 3
#     Node 3, Type 0, BuildingBlock: BETDIP_clean_linker_0, # of connection points: 3
#     Node 4, Type 0, BuildingBlock: BETDIP_clean_linker_0, # of connection points: 3
#     Node 5, Type 0, BuildingBlock: BETDIP_clean_linker_0, # of connection points: 3
#     Node 6, Type 0, BuildingBlock: BETDIP_clean_linker_0, # of connection points: 3
#     Node 7, Type 0, BuildingBlock: BETDIP_clean_linker_0, # of connection points: 3
#     Node 8, Type 1, BuildingBlock: BETFEN_clean_sbu_0, # of connection points: 6
#     Node 9, Type 1, BuildingBlock: BETFEN_clean_sbu_0, # of connection points: 6
#     Node 10, Type 1, BuildingBlock: BETFEN_clean_sbu_0, # of connection points: 6
#     Node 11, Type 1, BuildingBlock: BETFEN_clean_sbu_0, # of connection points: 6
#     Edge 12, Type (0, 1), BuildingBlock: AJUNOK_clean_linker_0, # of connection points: 2
#     Edge 13, Type (0, 1), BuildingBlock: AJUNOK_clean_linker_0, # of connection points: 2
#     Edge 14, Type (0, 1), BuildingBlock: AJUNOK_clean_linker_0, # of connection points: 2
#     Edge 15, Type (0, 1), BuildingBlock: AJUNOK_clean_linker_0, # of connection points: 2
#     Edge 16, Type (0, 1), BuildingBlock: AJUNOK_clean_linker_0, # of connection points: 2
#     Edge 17, Type (0, 1), BuildingBlock: AJUNOK_clean_linker_0, # of connection points: 2
#     Edge 18, Type (0, 1), BuildingBlock: AJUNOK_clean_linker_0, # of connection points: 2
#     Edge 19, Type (0, 1), BuildingBlock: AJUNOK_clean_linker_0, # of connection points: 2
#     Edge 20, Type (0, 1), BuildingBlock: AJUNOK_clean_linker_0, # of connection points: 2
#     Edge 21, Type (0, 1), BuildingBlock: AJUNOK_clean_linker_0, # of connection points: 2
#     Edge 22, Type (0, 1), BuildingBlock: AJUNOK_clean_linker_0, # of connection points: 2
#     Edge 23, Type (0, 1), BuildingBlock: AJUNOK_clean_linker_0, # of connection points: 2
#     Edge 24, Type (0, 1), BuildingBlock: AJUNOK_clean_linker_0, # of connection points: 2
#     Edge 25, Type (0, 1), BuildingBlock: AJUNOK_clean_linker_0, # of connection points: 2
#     Edge 26, Type (0, 1), BuildingBlock: AJUNOK_clean_linker_0, # of connection points: 2
#     Edge 27, Type (0, 1), BuildingBlock: AJUNOK_clean_linker_0, # of connection points: 2
#     Edge 28, Type (0, 1), BuildingBlock: AJUNOK_clean_linker_0, # of connection points: 2
#     Edge 29, Type (0, 1), BuildingBlock: AJUNOK_clean_linker_0, # of connection points: 2
#     Edge 30, Type (0, 1), BuildingBlock: AJUNOK_clean_linker_0, # of connection points: 2
#     Edge 31, Type (0, 1), BuildingBlock: AJUNOK_clean_linker_0, # of connection points: 2
#     Edge 32, Type (0, 1), BuildingBlock: AJUNOK_clean_linker_0, # of connection points: 2
#     Edge 33, Type (0, 1), BuildingBlock: AJUNOK_clean_linker_0, # of connection points: 2
#     Edge 34, Type (0, 1), BuildingBlock: AJUNOK_clean_linker_0, # of connection points: 2
#     Edge 35, Type (0, 1), BuildingBlock: AJUNOK_clean_linker_0, # of connection points: 2
# Relax obj value: 0.371
# Max RMSD: 0.213
# Mean RMSD: 0.160
data_MOF--net-zzz--node1-BETFEN_clean_sbu_0--node2-BETDIP_clean_linker_0--edge1-AJUNOK_clean_linker_0
_symmetry_space_group_name_H-M    P1
_symmetry_Int_Tables_number       1
_symmetry_cell_setting            triclinic
loop_
_symmetry_equiv_pos_as_xyz
'x, y, z'
_cell_length_a     38.640115
_cell_length_b     38.452564
_cell_length_c     10.164826
_cell_angle_alpha  89.448995
_cell_angle_beta   89.907012
_cell_angle_gamma 89.635739
loop_
_atom_site_label
_atom_site_type_symbol
_atom_site_fract_x
_atom_site_fract_y
_atom_site_fract_z
_atom_type_partial_charge
H0 H 0.77373 0.54768 0.43763 0.0
H1 H 0.72991 0.45413 0.27658 0.0
H2 H 0.82612 0.44974 0.4858 0.0
H3 H 0.72167 0.49371 0.10517 0.0
C4 C 0.70768 0.51311 0.16163 0.0
C5 C 0.77418 0.51972 0.42589 0.0
C6 C 0.80202 0.49983 0.47903 0.0
C7 C 0.74782 0.50334 0.35154 0.0
C8 C 0.7496 0.4671 0.3334 0.0
C9 C 0.77826 0.44778 0.37675 0.0
C10 C 0.80324 0.46411 0.45483 0.0
N11 N 0.72109 0.52322 0.28702 0.0
H12 H 0.99357 0.77966 0.51018 0.0
H13 H 0.08546 0.7423 0.31209 0.0
H14 H 0.08878 0.83623 0.53488 0.0
H15 H 0.03889 0.73677 0.15452 0.0
C16 C 0.02531 0.71824 0.21721 0.0
C17 C 1.021 0.78159 0.48969 0.0
C18 C 0.04002 0.81027 0.53819 0.0
C19 C 0.03744 0.75636 0.40866 0.0
C20 C 0.07276 0.76045 0.37756 0.0
C21 C 0.09135 0.78918 0.42183 0.0
C22 C 0.07507 0.813 0.50561 0.0
N23 N 1.01839 0.7285 0.35007 0.0
H24 H 0.76166 1.00569 0.5061 0.0
H25 H 0.79678 0.09478 0.28179 0.0
H26 H 0.69973 0.09882 0.4852 0.0
H27 H 0.85015 0.07457 0.38192 0.0
C28 C 0.84766 0.0489 0.33922 0.0
C29 C 0.75838 0.03248 0.47447 0.0
C30 C 0.72788 0.05109 0.50974 0.0
C31 C 0.78466 0.0489 0.39798 0.0
C32 C 0.77873 0.08296 0.35028 0.0
C33 C 0.74836 0.10103 0.38194 0.0
C34 C 0.72396 0.08538 0.46527 0.0
N35 N 0.81577 0.03078 0.36096 0.0
H36 H 0.51617 0.78111 0.56045 0.0
H37 H 0.59283 0.80968 0.2704 0.0
H38 H 0.59508 0.70829 0.45043 0.0
H39 H 0.58652 0.8637 0.41102 0.0
C40 C 0.56006 0.86454 0.37488 0.0
C41 C 0.53961 0.7752 0.50641 0.0
C42 C 0.55552 0.74185 0.52044 0.0
C43 C 0.55454 0.80088 0.42174 0.0
C44 C 0.58325 0.79153 0.34381 0.0
C45 C 0.59667 0.7576 0.34668 0.0
C46 C 0.58479 0.73454 0.44479 0.0
N47 N 0.53908 0.83469 0.40282 0.0
H48 H 0.24454 0.50154 0.16291 0.0
H49 H 0.29359 0.57888 0.40497 0.0
H50 H 0.19006 0.59451 0.27345 0.0
H51 H 0.33963 0.54759 0.21451 0.0
C52 C 0.33618 0.52911 0.29495 0.0
C53 C 0.24376 0.52657 0.21071 0.0
C54 C 0.2143 0.54874 0.19507 0.0
C55 C 0.27267 0.53748 0.2871 0.0
C56 C 0.27207 0.57052 0.34497 0.0
C57 C 0.24283 0.59169 0.33456 0.0
C58 C 0.21393 0.57975 0.26614 0.0
N59 N 0.30208 0.51551 0.31081 0.0
H60 H 0.04588 0.26319 0.17254 0.0
H61 H 0.95462 0.3094 0.34481 0.0
H62 H 0.94977 0.20835 0.16841 0.0
H63 H 0.98942 0.36125 0.23374 0.0
C64 C 1.00817 0.354 0.30906 0.0
C65 C 1.01834 0.26256 0.19225 0.0
C66 C 0.99868 0.23333 0.1539 0.0
C67 C 1.00217 0.29079 0.25829 0.0
C68 C 0.9667 0.28874 0.28911 0.0
C69 C 0.94775 0.25868 0.26173 0.0
C70 C 0.96369 0.23211 0.18851 0.0
N71 N 1.02189 0.31934 0.30715 0.0
H72 H 0.27718 0.05678 0.16383 0.0
H73 H 0.22991 0.96482 0.32861 0.0
H74 H 0.33103 0.95931 0.15127 0.0
H75 H 0.1772 1.0061 0.21484 0.0
C76 C 0.1861 1.02133 0.29753 0.0
C77 C 0.2775 0.02894 0.18087 0.0
C78 C 0.30653 1.00894 0.14095 0.0
C79 C 0.24906 1.01274 0.24534 0.0
C80 C 0.25071 0.97686 0.27338 0.0
C81 C 0.28074 0.95752 0.24551 0.0
C82 C 0.30739 0.97353 0.17271 0.0
N83 N 0.2212 0.03292 0.29859 0.0
H84 H 0.48825 0.28154 0.10304 0.0
H85 H 0.57995 0.24592 0.30792 0.0
H86 H 0.58216 0.34028 0.08088 0.0
H87 H 0.55775 0.19187 0.24997 0.0
C88 C 0.53167 0.19606 0.2866 0.0
C89 C 0.51554 0.28406 0.12475 0.0
C90 C 0.53402 0.31351 0.0766 0.0
C91 C 0.53265 0.25795 0.20208 0.0
C92 C 0.56744 0.26332 0.23807 0.0
C93 C 0.58538 0.29284 0.19497 0.0
C94 C 0.5689 0.3166 0.10975 0.0
N95 N 0.5144 0.2282 0.25359 0.0
Pr96 Pr 0.04502 1.01359 0.94069 0.0
Pr97 Pr 0.99785 0.03003 0.74884 0.0
C98 C 0.0853 0.98867 0.13687 0.0
C99 C 0.10988 0.96032 0.1628 0.0
C100 C 0.1261 0.9424 0.05982 0.0
C101 C 0.14484 0.91187 0.08621 0.0
C102 C 0.14693 0.89853 0.21555 0.0
C103 C 0.13329 0.91872 0.31895 0.0
C104 C 0.11502 0.94932 0.29257 0.0
C105 C 0.08073 0.03231 0.70917 0.0
C106 C 1.0171 0.94811 0.75508 0.0
C107 C 0.95818 0.0589 0.55902 0.0
C108 C 0.94045 0.09281 0.54182 0.0
C109 C 0.90478 0.09666 0.56861 0.0
C110 C 0.88822 0.12893 0.55038 0.0
C111 C 0.90738 0.1577 0.50779 0.0
C112 C 0.9429 0.15381 0.48158 0.0
C113 C 0.95921 0.12179 0.49772 0.0
C114 C 0.96271 1.01372 0.98474 0.0
C115 C 1.02356 0.0949 0.93852 0.0
O116 O 0.05288 0.97994 0.1228 0.0
O117 O 0.09517 1.01255 0.05339 0.0
O118 O 0.05465 1.01242 0.71308 0.0
O119 O 0.0877 0.04399 0.82488 0.0
O120 O 1.00621 0.97299 0.67543 0.0
O121 O 0.02949 0.95668 0.87141 0.0
O122 O 0.99201 0.0591 0.55622 0.0
O123 O 0.94588 0.03799 0.64911 0.0
O124 O 0.98892 0.03322 0.97506 0.0
O125 O 0.95643 0.99924 0.87273 0.0
O126 O 0.03209 0.06936 0.01921 0.0
O127 O 1.01413 0.08694 0.81771 0.0
H128 H 0.12262 0.95088 0.95871 0.0
H129 H 0.15517 0.8972 1.00444 0.0
H130 H 0.13345 0.90935 0.41966 0.0
H131 H 0.10289 0.9631 0.37315 0.0
H132 H 0.88963 0.07462 0.60153 0.0
H133 H 0.86069 0.13137 0.56857 0.0
H134 H 0.95801 0.17562 0.44589 0.0
H135 H 0.98654 0.11986 0.47491 0.0
Pr136 Pr 0.52472 0.0525 0.91763 0.0
Pr137 Pr 0.50996 1.00383 0.73499 0.0
C138 C 0.54867 0.09381 0.10956 0.0
C139 C 0.57669 0.11856 0.12952 0.0
C140 C 0.59372 0.13429 0.02253 0.0
C141 C 0.62461 0.15228 0.04241 0.0
C142 C 0.63892 0.15437 0.16927 0.0
C143 C 0.61984 0.14114 0.2769 0.0
C144 C 0.58913 0.12327 0.2569 0.0
C145 C 0.50555 0.08675 0.6797 0.0
C146 C 0.59059 1.02586 0.72864 0.0
C147 C 0.48344 0.95994 0.55605 0.0
C148 C 0.449 0.94471 0.53532 0.0
C149 C 0.44524 0.90863 0.51885 0.0
C150 C 0.41235 0.89423 0.50003 0.0
C151 C 0.38287 0.91573 0.50076 0.0
C152 C 0.38689 0.95172 0.51842 0.0
C153 C 0.41945 0.96601 0.53616 0.0
C154 C 0.53358 0.97136 0.96758 0.0
C155 C 0.44484 0.03059 0.92356 0.0
O156 O 0.55818 0.06137 0.09636 0.0
O157 O 0.5242 0.1032 0.02832 0.0
O158 O 0.52593 0.06085 0.68846 0.0
O159 O 0.49313 0.09387 0.79477 0.0
O160 O 0.56601 1.01311 0.65421 0.0
O161 O 0.58198 0.03943 0.8433 0.0
O162 O 0.48634 0.99342 0.53576 0.0
O163 O 0.49977 0.94934 0.66104 0.0
O164 O 0.51048 0.99496 0.96313 0.0
O165 O 0.54714 0.96663 0.85248 0.0
O166 O 0.47002 0.03952 1.00231 0.0
O167 O 0.45297 1.02066 0.80332 0.0
H168 H 0.58437 0.13074 0.92314 0.0
H169 H 0.63875 0.16195 0.9577 0.0
H170 H 0.63023 0.14131 0.37575 0.0
H171 H 0.57628 0.11119 0.34032 0.0
H172 H 0.46773 0.89168 0.51968 0.0
H173 H 0.40995 0.86657 0.48356 0.0
H174 H 0.3648 0.96915 0.51332 0.0
H175 H 0.42143 0.99385 0.5489 0.0
Pr176 Pr 0.49851 0.53577 0.88454 0.0
Pr177 Pr 0.53341 0.51988 0.65995 0.0
C178 C 0.48644 0.57012 0.10383 0.0
C179 C 0.51114 0.59719 0.143 0.0
C180 C 0.50011 0.63187 0.14875 0.0
C181 C 0.52419 0.65871 0.1461 0.0
C182 C 0.55986 0.65157 0.13271 0.0
C183 C 0.57101 0.6168 0.13549 0.0
C184 C 0.54695 0.5899 0.1409 0.0
C185 C 0.44993 0.52322 0.6825 0.0
C186 C 0.5226 0.6012 0.69752 0.0
C187 C 0.56164 0.49475 0.43812 0.0
C188 C 0.58643 0.46667 0.41209 0.0
C189 C 0.60888 0.45448 0.51133 0.0
C190 C 0.6287 0.42438 0.49205 0.0
C191 C 0.62649 0.40637 0.37295 0.0
C192 C 0.60527 0.41987 0.27173 0.0
C193 C 0.58522 0.44959 0.29172 0.0
C194 C 0.58061 0.53296 0.86492 0.0
C195 C 0.50921 0.45298 0.86198 0.0
O196 O 0.49802 0.53812 0.10742 0.0
O197 O 0.46921 0.57736 0.99633 0.0
O198 O 0.47738 0.54083 0.67015 0.0
O199 O 0.44682 0.51146 0.80226 0.0
O200 O 0.51914 0.57808 0.6042 0.0
O201 O 0.52424 0.58947 0.81926 0.0
O202 O 0.53143 0.48486 0.48238 0.0
O203 O 0.57385 0.52166 0.49946 0.0
O204 O 0.55422 0.51386 0.87286 0.0
O205 O 0.58253 0.54721 0.74931 0.0
O206 O 0.49925 0.47726 0.94385 0.0
O207 O 0.5212 0.46229 0.74423 0.0
H208 H 0.4728 0.63834 0.14792 0.0
H209 H 0.51463 0.68516 0.15272 0.0
H210 H 0.59823 0.61031 0.12953 0.0
H211 H 0.55647 0.56341 0.13516 0.0
H212 H 0.60968 0.46716 0.60602 0.0
H213 H 0.64409 0.41401 0.57252 0.0
H214 H 0.60199 0.40591 0.18053 0.0
H215 H 0.56743 0.4582 0.21563 0.0
Pr216 Pr 1.00038 0.50418 0.921 0.0
Pr217 Pr 1.01842 0.54774 0.72277 0.0
C218 C 0.97117 0.46984 0.12407 0.0
C219 C 0.94381 0.44443 0.14896 0.0
C220 C 0.9333 0.42092 0.05212 0.0
C221 C 0.90491 0.39922 0.07506 0.0
C222 C 0.88664 0.4011 0.19455 0.0
C223 C 0.89917 0.42294 0.29423 0.0
C224 C 0.92738 0.44444 0.27131 0.0
C225 C 1.02122 0.46336 0.70499 0.0
C226 C 0.93829 0.52581 0.70695 0.0
C227 C 0.04622 0.58657 0.52746 0.0
C228 C 0.07455 0.61163 0.51702 0.0
C229 C 0.08729 0.62821 0.62935 0.0
C230 C 0.11846 0.64642 0.62356 0.0
C231 C 0.1379 0.64703 0.50676 0.0
C232 C 0.12297 0.63361 0.39137 0.0
C233 C 0.09153 0.61604 0.39664 0.0
C234 C 0.9978 0.58732 0.94365 0.0
C235 C 0.0811 0.52433 0.93095 0.0
O236 O 0.96125 0.50095 0.08696 0.0
O237 O 0.99849 0.45866 0.06154 0.0
O238 O 1.002 0.49017 0.69678 0.0
O239 O 0.0314 0.45838 0.82487 0.0
O240 O 0.96459 0.5344 0.63182 0.0
O241 O 0.94456 0.51719 0.83079 0.0
O242 O 0.05545 0.55435 0.55121 0.0
O243 O 1.01945 0.59629 0.59636 0.0
O244 O 1.01811 0.56133 0.94661 0.0
O245 O 0.98506 0.59064 0.82646 0.0
O246 O 0.05549 0.51458 1.00734 0.0
O247 O 0.07427 0.53495 0.80982 0.0
H248 H 0.9461 0.42037 0.95724 0.0
H249 H 0.89596 0.38264 0.99678 0.0
H250 H 0.8855 0.42567 0.38672 0.0
H251 H 0.93543 0.4622 0.34743 0.0
H252 H 0.0744 0.62513 0.72321 0.0
H253 H 0.12881 0.6574 0.71274 0.0
H254 H 0.13708 0.63356 0.29923 0.0
H255 H 0.08185 0.6037 0.30871 0.0
C256 C 0.16735 1.01692 0.53505 0.0
C257 C 0.16089 0.02858 0.40569 0.0
C258 C 0.14134 1.01839 0.63282 0.0
C259 C 0.10777 0.03106 0.60433 0.0
H260 H 0.19223 1.00549 0.5597 0.0
H261 H 0.14729 1.00875 0.73076 0.0
S262 S 0.07958 0.06961 0.28744 0.0
N263 N 0.11985 0.05697 0.25946 0.0
N264 N 0.07086 0.05855 0.44122 0.0
C265 C 0.10148 0.0438 0.47691 0.0
C266 C 0.12804 0.04281 0.37821 0.0
C267 C 0.53646 0.17085 0.51434 0.0
C268 C 0.5198 0.17109 0.39115 0.0
C269 C 0.53129 0.14376 0.60697 0.0
C270 C 0.51003 0.11511 0.57906 0.0
H271 H 0.55437 0.19141 0.5381 0.0
H272 H 0.54474 0.14483 0.70028 0.0
S273 S 0.46098 0.10261 0.27017 0.0
N274 N 0.48104 0.14003 0.24671 0.0
N275 N 0.47209 0.0888 0.41884 0.0
C276 C 0.4932 0.11497 0.45643 0.0
C277 C 0.49796 0.14295 0.36297 0.0
C278 C 0.3645 0.50272 0.50231 0.0
C279 C 0.3646 0.52652 0.39581 0.0
C280 C 0.39207 0.50158 0.59468 0.0
C281 C 0.42082 0.52408 0.58395 0.0
H282 H 0.34314 0.48487 0.51433 0.0
H283 H 0.39091 0.48284 0.67475 0.0
S284 S 0.43135 0.59315 0.3303 0.0
N285 N 0.39476 0.5743 0.29079 0.0
N286 N 0.44601 0.572 0.46076 0.0
C287 C 0.4207 0.54809 0.4786 0.0
C288 C 0.39281 0.54933 0.38591 0.0
C289 C 1.0097 0.41596 0.37941 0.0
C290 C 1.01666 0.38088 0.41002 0.0
C291 C 1.01192 0.44243 0.47367 0.0
C292 C 1.02187 0.43508 0.60398 0.0
H293 H 1.00197 0.4228 0.28098 0.0
H294 H 1.00532 0.46881 0.44437 0.0
S295 S 0.0449 0.3473 0.7359 0.0
N296 N 0.0351 0.34021 0.58032 0.0
N297 N 0.04033 0.38961 0.75774 0.0
C298 C 0.03046 0.40009 0.63538 0.0
C299 C 0.02772 0.37309 0.53868 0.0
C300 C 0.90661 0.05797 0.2438 0.0
C301 C 0.87724 0.03653 0.2552 0.0
C302 C 0.93477 0.04941 0.16228 0.0
C303 C 0.93462 1.01934 0.0845 0.0
H304 H 0.90751 0.08235 0.29576 0.0
H305 H 0.9562 0.0674 0.1562 0.0
S306 S 0.86442 0.95377 0.07763 0.0
N307 N 0.85034 0.98305 0.18335 0.0
N308 N 0.90263 0.96745 0.0263 0.0
C309 C 0.90561 0.99731 0.09555 0.0
C310 C 0.87709 1.00577 0.18123 0.0
C311 C 0.51861 0.90553 0.25024 0.0
C312 C 0.55208 0.89172 0.27161 0.0
C313 C 0.51265 0.93262 0.15677 0.0
C314 C 0.53982 0.94614 0.07861 0.0
H315 H 0.497 0.89559 0.30656 0.0
H316 H 0.4865 0.94224 0.14273 0.0
S317 S 0.63183 0.91833 0.09364 0.0
N318 N 0.61252 0.89406 0.20634 0.0
N319 N 0.60115 0.94316 0.02907 0.0
C320 C 0.57314 0.93226 0.09887 0.0
C321 C 0.5793 0.90559 0.19548 0.0
C322 C 0.6476 0.49566 0.10396 0.0
C323 C 0.67244 0.52216 0.11231 0.0
C324 C 0.61713 0.50002 0.02943 0.0
C325 C 0.61075 0.53072 0.95663 0.0
H326 H 0.65258 0.4707 0.15072 0.0
H327 H 0.59947 0.47838 0.02229 0.0
S328 S 0.66749 0.60821 0.94599 0.0
N329 N 0.68815 0.58057 0.04416 0.0
N330 N 0.63166 0.58845 0.9004 0.0
C331 C 0.63512 0.55768 0.96603 0.0
C332 C 0.66575 0.5535 0.04464 0.0
C333 C 0.02736 0.67867 0.0252 0.0
C334 C 1.01705 0.68374 0.15675 0.0
C335 C 1.02103 0.64748 0.9592 0.0
C336 C 1.00452 0.61935 0.02158 0.0
H337 H 0.04043 0.69925 0.97154 0.0
H338 H 0.02907 0.64545 0.85754 0.0
S339 S 0.97001 0.61912 0.36199 0.0
N340 N 0.98782 0.65792 0.34563 0.0
N341 N 0.97652 0.59885 0.22131 0.0
C342 C 0.99388 0.62373 0.15302 0.0
C343 C 0.99999 0.65597 0.22063 0.0
C344 C 0.89208 0.22676 0.27783 0.0
C345 C 0.91561 0.24987 0.33634 0.0
C346 C 0.88074 0.19736 0.34803 0.0
C347 C 0.89154 0.19185 0.47849 0.0
H348 H 0.88861 0.22718 0.17205 0.0
H349 H 0.86948 0.17619 0.29337 0.0
S350 S 0.93206 0.25652 0.69467 0.0
N351 N 0.93438 0.27385 0.54565 0.0
N352 N 0.91153 0.2193 0.67759 0.0
C353 C 0.90466 0.22037 0.54656 0.0
C354 C 0.9171 0.24973 0.47488 0.0
C355 C 0.31363 0.90191 0.26381 0.0
C356 C 0.28966 0.92517 0.32105 0.0
C357 C 0.34349 0.89195 0.33341 0.0
C358 C 0.34821 0.903 0.46347 0.0
H359 H 0.3134 0.89803 0.15835 0.0
H360 H 0.36498 0.88096 0.27886 0.0
S361 S 0.28165 0.94223 0.67844 0.0
N362 N 0.2646 0.94366 0.52961 0.0
N363 N 0.31959 0.92273 0.66198 0.0
C364 C 0.31917 0.91566 0.53123 0.0
C365 C 0.2895 0.92696 0.45944 0.0
C366 C 0.61112 0.3134 0.39951 0.0
C367 C 0.61635 0.30529 0.26619 0.0
C368 C 0.62167 0.34563 0.44771 0.0
C369 C 0.63803 0.36973 0.36362 0.0
H370 H 0.59306 0.29848 0.4586 0.0
H371 H 0.61142 0.35385 0.54182 0.0
S372 S 0.67406 0.35161 0.03412 0.0
N373 N 0.65143 0.31658 0.0723 0.0
N374 N 0.67119 0.37748 0.16263 0.0
C375 C 0.65182 0.35745 0.2449 0.0
C376 C 0.64124 0.32458 0.19641 0.0
C377 C 0.22354 0.65233 0.35187 0.0
C378 C 0.23805 0.62301 0.41559 0.0
C379 C 0.19232 0.66655 0.39792 0.0
C380 C 0.17602 0.65206 0.50951 0.0
H381 H 0.23169 0.65899 0.25278 0.0
H382 H 0.17816 0.68427 0.33394 0.0
S383 S 0.21604 0.58951 0.7456 0.0
N384 N 0.24352 0.59158 0.62156 0.0
N385 N 0.18468 0.61723 0.70848 0.0
C386 C 0.19617 0.63033 0.5921 0.0
C387 C 0.22805 0.61642 0.54545 0.0
C388 C 0.12002 0.80748 0.21662 0.0
C389 C 0.1231 0.80081 0.35238 0.0
C390 C 0.13504 0.83715 0.16065 0.0
C391 C 0.15324 0.86073 0.23972 0.0
H392 H 0.1012 0.7936 0.15855 0.0
H393 H 0.12719 0.84432 0.06189 0.0
S394 S 0.1844 0.84332 0.57829 0.0
N395 N 0.15716 0.81138 0.54839 0.0
N396 N 0.18612 0.86697 0.44183 0.0
C397 C 0.16435 0.84875 0.36392 0.0
C398 C 0.14891 0.81863 0.42117 0.0
C399 C 0.72918 0.12512 0.17003 0.0
C400 C 0.73668 0.13138 0.30292 0.0
C401 C 0.69932 0.1393 0.11258 0.0
C402 C 0.6766 0.16012 0.18715 0.0
H403 H 0.74257 0.10455 0.11804 0.0
H404 H 0.69129 0.12893 0.01881 0.0
S405 S 0.69514 0.1977 0.513 0.0
N406 N 0.72689 0.16948 0.48847 0.0
N407 N 0.6711 0.19707 0.37873 0.0
C408 C 0.68906 0.17362 0.30589 0.0
C409 C 0.71925 0.15889 0.36483 0.0
C410 C 0.63085 0.71066 0.24421 0.0
C411 C 0.61253 0.7422 0.22601 0.0
C412 C 0.61551 0.67955 0.20285 0.0
C413 C 0.58502 0.68066 0.12671 0.0
H414 H 0.65051 0.70889 0.31988 0.0
H415 H 0.62489 0.65532 0.24505 0.0
S416 S 0.5504 0.759 0.95577 0.0
N417 N 0.57893 0.77405 0.06147 0.0
N418 N 0.55127 0.71628 0.97384 0.0
C419 C 0.57607 0.71267 0.06761 0.0
C420 C 0.59116 0.7438 0.1143 0.0
C421 C 0.80786 0.39027 0.38288 0.0
C422 C 0.78838 0.4149 0.31042 0.0
C423 C 0.83895 0.3772 0.3311 0.0
C424 C 0.8505 0.38854 0.20642 0.0
H425 H 0.8031 0.3869 0.4873 0.0
H426 H 0.85682 0.36424 0.39773 0.0
S427 S 0.79722 0.43343 0.95347 0.0
N428 N 0.77403 0.43546 0.08969 0.0
N429 N 0.83236 0.41105 0.99282 0.0
C430 C 0.8258 0.40342 0.12129 0.0
C431 C 0.79425 0.41666 0.17383 0.0
C432 C 1.01943 0.17177 0.17633 0.0
C433 C 1.01365 0.20097 0.09444 0.0
C434 C 1.02349 0.13811 0.1246 0.0
C435 C 1.02195 0.13175 0.98809 0.0
H436 H 1.01868 0.17468 0.28226 0.0
H437 H 0.02607 0.11666 0.19344 0.0
S438 S 1.00799 0.19953 0.73019 0.0
N439 N 1.00689 0.2214 0.86941 0.0
N440 N 1.01516 0.15847 0.77166 0.0
C441 C 1.01714 0.16096 0.90463 0.0
C442 C 1.01287 0.19534 0.95775 0.0
C443 C 0.36794 0.02865 0.16312 0.0
C444 C 0.33894 1.02371 0.0818 0.0
C445 C 0.40158 0.03205 0.11058 0.0
C446 C 0.40807 0.03018 0.97393 0.0
H447 H 0.36487 1.02783 0.2691 0.0
H448 H 0.4229 0.03451 0.17881 0.0
S449 S 0.34051 1.02 0.71762 0.0
N450 N 0.31866 1.01877 0.85739 0.0
N451 N 0.38152 1.02544 0.75805 0.0
C452 C 0.379 1.02667 0.89116 0.0
C453 C 0.34467 1.02333 0.94509 0.0
C454 C 0.53062 0.35497 0.88251 0.0
C455 C 0.51818 0.34468 1.00779 0.0
C456 C 0.52602 0.38924 0.83297 0.0
C457 C 0.50927 0.41526 0.90724 0.0
H458 H 0.54601 0.33688 0.8256 0.0
H459 H 0.53738 0.39579 0.73853 0.0
S460 S 0.47084 0.40158 0.23998 0.0
N461 N 0.48736 0.36321 0.20261 0.0
N462 N 0.47855 0.42709 0.11179 0.0
C463 C 0.49535 0.40478 0.03042 0.0
C464 C 0.49983 0.36979 0.0799 0.0
C465 C 0.16752 0.50761 0.11009 0.0
C466 C 0.18274 0.54093 0.11154 0.0
C467 C 0.13491 0.50193 0.05003 0.0
C468 C 0.11645 0.52919 0.98726 0.0
H469 H 0.18008 0.4861 0.16072 0.0
H470 H 0.12384 0.47614 0.05436 0.0
S471 S 0.14269 0.62146 0.96938 0.0
N472 N 0.17561 0.60157 0.04136 0.0
N473 N 0.11457 0.59068 0.93691 0.0
C474 C 0.13134 0.56226 0.98646 0.0
C475 C 0.16435 0.56813 0.04587 0.0
C476 C 1.00993 0.86834 0.53125 0.0
C477 C 1.0245 0.84107 0.60678 0.0
C478 C 1.00624 0.90229 0.58183 0.0
C479 C 1.01721 0.91074 0.71024 0.0
H480 H 1.00358 0.86401 0.42895 0.0
H481 H 0.99616 0.92243 0.517 0.0
S482 S 0.05439 0.84775 0.95207 0.0
N483 N 0.04805 0.82432 0.81904 0.0
N484 N 0.04085 0.88746 0.915 0.0
C485 C 0.03005 0.88311 0.78914 0.0
C486 C 0.03379 0.8486 0.73728 0.0
C487 C 0.68698 0.0492 0.70248 0.0
C488 C 0.69721 0.03574 0.57965 0.0
C489 C 0.65316 0.04454 0.75242 0.0
C490 C 0.62762 1.0267 0.68082 0.0
H491 H 0.70473 0.0653 0.757 0.0
H492 H 0.64661 0.05653 0.84523 0.0
S493 S 0.64152 0.98534 0.35535 0.0
N494 N 0.67932 1.00282 0.38981 0.0
N495 N 0.61612 0.99389 0.48195 0.0
C496 C 0.63805 1.01182 0.56017 0.0
C497 C 0.67261 1.01639 0.51016 0.0
C498 C 0.56133 0.69285 0.686 0.0
C499 C 0.5406 0.71108 0.59344 0.0
C500 C 0.55433 0.6581 0.7239 0.0
C501 C 0.52712 0.6393 0.66663 0.0
H502 H 0.58442 0.70499 0.72404 0.0
H503 H 0.5716 0.64524 0.79304 0.0
S504 S 0.46328 0.67552 0.4288 0.0
N505 N 0.49005 0.70807 0.45376 0.0
N506 N 0.4775 0.64283 0.52112 0.0
C507 C 0.50539 0.65759 0.57828 0.0
C508 C 0.51196 0.69331 0.54274 0.0
C509 C 0.84063 0.50839 0.67571 0.0
C510 C 0.83357 0.51506 0.54169 0.0
C511 C 0.87401 0.51314 0.72926 0.0
C512 C 0.90217 0.52413 0.65069 0.0
H513 H 0.82053 0.49776 0.73838 0.0
H514 H 0.878 0.5068 0.83219 0.0
S515 S 0.89739 0.54435 0.29221 0.0
N516 N 0.85751 0.53311 0.33179 0.0
N517 N 0.91989 0.54193 0.43001 0.0
C518 C 0.89511 0.53163 0.51677 0.0
C519 C 0.86104 0.52708 0.46304 0.0
loop_
_geom_bond_atom_site_label_1
_geom_bond_atom_site_label_2
_geom_bond_distance
_geom_bond_site_symmetry_2
_ccdc_geom_bond_type
H0 C5 0.930 . S
H1 C8 0.930 . S
H2 C10 0.930 . S
H3 C4 1.016 . S
C4 H3 1.016 . S
C4 N11 1.286 . S
C5 H0 0.930 . S
C5 C6 1.397 . S
C5 C7 1.361 . S
C6 C5 1.397 . S
C6 C10 1.390 . S
C7 C5 1.361 . S
C7 C8 1.393 . S
C7 N11 1.413 . S
C8 H1 0.930 . S
C8 C7 1.393 . S
C8 C9 1.399 . S
C9 C8 1.399 . S
C9 C10 1.381 . S
C10 H2 0.930 . S
C10 C6 1.390 . S
C10 C9 1.381 . S
N11 C4 1.286 . S
N11 C7 1.413 . S
H12 C17 0.930 . S
H13 C20 0.930 . S
H14 C22 0.930 . S
H15 C16 1.016 . S
C16 H15 1.016 . S
C16 N23 1.286 1_655 S
C17 H12 0.930 . S
C17 C18 1.397 . S
C17 C19 1.361 . S
C18 C17 1.397 . S
C18 C22 1.390 1_455 S
C19 C17 1.361 . S
C19 C20 1.393 . S
C19 N23 1.413 . S
C20 H13 0.930 . S
C20 C19 1.393 . S
C20 C21 1.403 . S
C21 C20 1.403 . S
C21 C22 1.379 1_455 S
C22 H14 0.930 . S
C22 C18 1.390 1_655 S
C22 C21 1.379 1_655 S
N23 C16 1.286 1_455 S
N23 C19 1.413 . S
H24 C29 0.930 . S
H25 C32 0.930 . S
H26 C34 0.930 . S
H27 C28 1.016 . S
C28 H27 1.016 . S
C28 N35 1.286 1_565 S
C29 H24 0.930 . S
C29 C30 1.397 . S
C29 C31 1.361 . S
C30 C29 1.397 . S
C30 C34 1.390 1_545 S
C31 C29 1.361 . S
C31 C32 1.393 . S
C31 N35 1.413 . S
C32 H25 0.930 . S
C32 C31 1.393 . S
C32 C33 1.403 . S
C33 C32 1.403 . S
C33 C34 1.379 1_545 S
C34 H26 0.930 . S
C34 C30 1.390 1_565 S
C34 C33 1.379 1_565 S
N35 C28 1.286 1_545 S
N35 C31 1.413 . S
H36 C41 0.930 . S
H37 C44 0.930 . S
H38 C46 0.930 . S
H39 C40 1.016 . S
C40 H39 1.016 . S
C40 N47 1.286 . S
C41 H36 0.930 . S
C41 C42 1.397 . S
C41 C43 1.361 . S
C42 C41 1.397 . S
C42 C46 1.390 . S
C43 C41 1.361 . S
C43 C44 1.393 . S
C43 N47 1.413 . S
C44 H37 0.930 . S
C44 C43 1.393 . S
C44 C45 1.399 . S
C45 C44 1.399 . S
C45 C46 1.381 . S
C46 H38 0.930 . S
C46 C42 1.390 . S
C46 C45 1.381 . S
N47 C40 1.286 . S
N47 C43 1.413 . S
H48 C53 0.930 . S
H49 C56 0.930 . S
H50 C58 0.930 1_556 S
H51 C52 1.016 . S
C52 H51 1.016 . S
C52 N59 1.286 . S
C53 H48 0.930 . S
C53 C54 1.397 . S
C53 C55 1.361 1_556 S
C54 C53 1.397 . S
C54 C58 1.390 1_556 S
C55 C53 1.361 1_554 S
C55 C56 1.393 . S
C55 N59 1.413 . S
C56 H49 0.930 . S
C56 C55 1.393 . S
C56 C57 1.399 . S
C57 C56 1.399 . S
C57 C58 1.381 . S
C58 H50 0.930 1_554 S
C58 C54 1.390 1_554 S
C58 C57 1.381 . S
N59 C52 1.286 . S
N59 C55 1.413 . S
H60 C65 0.930 . S
H61 C68 0.930 . S
H62 C70 0.930 . S
H63 C64 1.026 . S
C64 H63 1.026 . S
C64 N71 1.272 1_655 S
C65 H60 0.930 . S
C65 C66 1.397 . S
C65 C67 1.361 1_556 S
C66 C65 1.397 . S
C66 C70 1.390 1_456 S
C67 C65 1.361 1_554 S
C67 C68 1.393 . S
C67 N71 1.413 . S
C68 H61 0.930 . S
C68 C67 1.393 . S
C68 C69 1.404 . S
C69 C68 1.404 . S
C69 C70 1.378 1_455 S
C70 H62 0.930 . S
C70 C66 1.390 1_654 S
C70 C69 1.378 1_655 S
N71 C64 1.272 1_455 S
N71 C67 1.413 . S
H72 C77 0.930 . S
H73 C80 0.930 . S
H74 C82 0.930 1_556 S
H75 C76 1.026 . S
C76 H75 1.026 . S
C76 N83 1.272 1_565 S
C77 H72 0.930 . S
C77 C78 1.397 . S
C77 C79 1.361 1_556 S
C78 C77 1.397 . S
C78 C82 1.390 1_546 S
C79 C77 1.361 1_554 S
C79 C80 1.393 . S
C79 N83 1.413 . S
C80 H73 0.930 . S
C80 C79 1.393 . S
C80 C81 1.404 . S
C81 C80 1.404 . S
C81 C82 1.378 1_545 S
C82 H74 0.930 1_554 S
C82 C78 1.390 1_564 S
C82 C81 1.378 1_565 S
N83 C76 1.272 1_545 S
N83 C79 1.413 . S
H84 C89 0.930 . S
H85 C92 0.930 . S
H86 C94 0.930 1_556 S
H87 C88 1.016 . S
C88 H87 1.016 . S
C88 N95 1.286 . S
C89 H84 0.930 . S
C89 C90 1.397 . S
C89 C91 1.361 1_556 S
C90 C89 1.397 . S
C90 C94 1.390 1_556 S
C91 C89 1.361 1_554 S
C91 C92 1.393 . S
C91 N95 1.413 . S
C92 H85 0.930 . S
C92 C91 1.393 . S
C92 C93 1.399 . S
C93 C92 1.399 . S
C93 C94 1.381 . S
C94 H86 0.930 1_554 S
C94 C90 1.390 1_554 S
C94 C93 1.381 . S
N95 C88 1.286 . S
N95 C91 1.413 . S
Pr96 C98 2.880 1_556 S
Pr96 O116 2.562 1_556 S
Pr96 O117 2.490 1_556 S
Pr96 O118 2.695 1_565 S
Pr96 O119 2.512 . S
Pr96 O121 2.437 . S
Pr96 O124 2.436 1_455 S
Pr96 O126 2.438 1_565 S
Pr97 C107 2.880 . S
Pr97 O118 2.436 1_655 S
Pr97 O120 2.438 1_545 S
Pr97 O122 2.562 . S
Pr97 O123 2.490 . S
Pr97 O124 2.695 1_545 S
Pr97 O125 2.512 . S
Pr97 O127 2.437 . S
C98 Pr96 2.880 1_554 S
C98 C99 1.491 . S
C98 O116 1.254 . S
C98 O117 1.225 . S
C99 C98 1.491 . S
C99 C100 1.392 . S
C99 C104 1.356 . S
C100 C99 1.392 . S
C100 C101 1.368 . S
C100 H128 0.929 . S
C101 C100 1.368 . S
C101 C102 1.386 . S
C101 H129 0.929 . S
C102 C101 1.386 . S
C102 C103 1.373 . S
C103 C102 1.373 . S
C103 C104 1.409 . S
C103 H130 0.931 . S
C104 C99 1.356 . S
C104 C103 1.409 . S
C104 H131 0.930 1_455 S
C105 O118 1.270 1_565 S
C105 O119 1.248 . S
C106 O120 1.267 . S
C106 O121 1.278 1_655 S
C107 Pr97 2.880 . S
C107 C108 1.491 . S
C107 O122 1.254 . S
C107 O123 1.225 . S
C108 C107 1.491 . S
C108 C109 1.392 . S
C108 C113 1.356 . S
C109 C108 1.392 . S
C109 C110 1.368 . S
C109 H132 0.929 . S
C110 C109 1.368 . S
C110 C111 1.386 . S
C110 H133 0.929 . S
C111 C110 1.386 . S
C111 C112 1.373 . S
C112 C111 1.373 . S
C112 C113 1.409 . S
C112 H134 0.931 . S
C113 C108 1.356 . S
C113 C112 1.409 . S
C113 H135 0.930 1_655 S
C114 O124 1.270 1_545 S
C114 O125 1.248 . S
C115 O126 1.267 . S
C115 O127 1.278 1_455 S
O116 Pr96 2.562 1_554 S
O116 C98 1.254 . S
O117 Pr96 2.490 1_554 S
O117 C98 1.225 . S
O118 Pr96 2.695 1_545 S
O118 Pr97 2.436 1_455 S
O118 C105 1.270 1_545 S
O119 Pr96 2.512 . S
O119 C105 1.248 . S
O120 Pr97 2.438 1_565 S
O120 C106 1.267 . S
O121 Pr96 2.437 . S
O121 C106 1.278 1_455 S
O122 Pr97 2.562 . S
O122 C107 1.254 . S
O123 Pr97 2.490 . S
O123 C107 1.225 . S
O124 Pr96 2.436 1_655 S
O124 Pr97 2.695 1_565 S
O124 C114 1.270 1_565 S
O125 Pr97 2.512 . S
O125 C114 1.248 . S
O126 Pr96 2.438 1_545 S
O126 C115 1.267 . S
O127 Pr97 2.437 . S
O127 C115 1.278 1_655 S
H128 C100 0.929 . S
H129 C101 0.929 . S
H130 C103 0.931 . S
H131 C104 0.930 1_655 S
H132 C109 0.929 . S
H133 C110 0.929 . S
H134 C112 0.931 . S
H135 C113 0.930 1_455 S
Pr136 C138 2.880 1_556 S
Pr136 O156 2.562 1_556 S
Pr136 O157 2.490 1_556 S
Pr136 O158 2.695 . S
Pr136 O159 2.512 . S
Pr136 O161 2.437 . S
Pr136 O164 2.436 1_545 S
Pr136 O166 2.438 . S
Pr137 C147 2.880 . S
Pr137 O158 2.436 1_565 S
Pr137 O160 2.438 . S
Pr137 O162 2.562 . S
Pr137 O163 2.490 . S
Pr137 O164 2.695 . S
Pr137 O165 2.512 . S
Pr137 O167 2.437 . S
C138 Pr136 2.880 1_554 S
C138 C139 1.491 . S
C138 O156 1.254 . S
C138 O157 1.225 . S
C139 C138 1.491 . S
C139 C140 1.392 . S
C139 C144 1.356 . S
C140 C139 1.392 . S
C140 C141 1.368 . S
C140 H168 0.929 . S
C141 C140 1.368 . S
C141 C142 1.386 . S
C141 H169 0.929 . S
C142 C141 1.386 . S
C142 C143 1.373 . S
C143 C142 1.373 . S
C143 C144 1.409 . S
C143 H170 0.920 1_545 S
C144 C139 1.356 . S
C144 C143 1.409 . S
C144 H171 0.930 1_545 S
C145 O158 1.270 . S
C145 O159 1.248 . S
C146 O160 1.267 . S
C146 O161 1.278 1_565 S
C147 Pr137 2.880 . S
C147 C148 1.491 . S
C147 O162 1.254 . S
C147 O163 1.225 . S
C148 C147 1.491 . S
C148 C149 1.392 . S
C148 C153 1.356 . S
C149 C148 1.392 . S
C149 C150 1.368 . S
C149 H172 0.929 . S
C150 C149 1.368 . S
C150 C151 1.386 . S
C150 H173 0.929 . S
C151 C150 1.386 . S
C151 C152 1.373 . S
C152 C151 1.373 . S
C152 C153 1.409 . S
C152 H174 0.914 1_565 S
C153 C148 1.356 . S
C153 C152 1.409 . S
C153 H175 0.930 1_565 S
C154 O164 1.270 . S
C154 O165 1.248 . S
C155 O166 1.267 . S
C155 O167 1.278 1_545 S
O156 Pr136 2.562 1_554 S
O156 C138 1.254 . S
O157 Pr136 2.490 1_554 S
O157 C138 1.225 . S
O158 Pr136 2.695 . S
O158 Pr137 2.436 1_545 S
O158 C145 1.270 . S
O159 Pr136 2.512 . S
O159 C145 1.248 . S
O160 Pr137 2.438 . S
O160 C146 1.267 . S
O161 Pr136 2.437 . S
O161 C146 1.278 1_545 S
O162 Pr137 2.562 . S
O162 C147 1.254 . S
O163 Pr137 2.490 . S
O163 C147 1.225 . S
O164 Pr136 2.436 1_565 S
O164 Pr137 2.695 . S
O164 C154 1.270 . S
O165 Pr137 2.512 . S
O165 C154 1.248 . S
O166 Pr136 2.438 . S
O166 C155 1.267 . S
O167 Pr137 2.437 . S
O167 C155 1.278 1_565 S
H168 C140 0.929 . S
H169 C141 0.929 . S
H170 C143 0.920 1_565 S
H171 C144 0.930 1_565 S
H172 C149 0.929 . S
H173 C150 0.929 . S
H174 C152 0.914 1_545 S
H175 C153 0.930 1_545 S
Pr176 C178 2.880 1_556 S
Pr176 O196 2.562 1_556 S
Pr176 O197 2.490 1_556 S
Pr176 O198 2.695 . S
Pr176 O199 2.512 . S
Pr176 O201 2.437 . S
Pr176 O204 2.436 . S
Pr176 O206 2.438 . S
Pr177 C187 2.880 . S
Pr177 O198 2.436 . S
Pr177 O200 2.438 . S
Pr177 O202 2.562 . S
Pr177 O203 2.490 . S
Pr177 O204 2.695 . S
Pr177 O205 2.512 . S
Pr177 O207 2.437 . S
C178 Pr176 2.880 1_554 S
C178 C179 1.491 . S
C178 O196 1.254 . S
C178 O197 1.225 . S
C179 C178 1.491 . S
C179 C180 1.392 . S
C179 C184 1.356 . S
C180 C179 1.392 . S
C180 C181 1.368 . S
C180 H208 0.929 . S
C181 C180 1.368 . S
C181 C182 1.386 . S
C181 H209 0.929 . S
C182 C181 1.386 . S
C182 C183 1.373 . S
C183 C182 1.373 . S
C183 C184 1.409 . S
C183 H210 0.931 . S
C184 C179 1.356 . S
C184 C183 1.409 . S
C184 H211 0.930 . S
C185 O198 1.270 . S
C185 O199 1.248 . S
C186 O200 1.267 . S
C186 O201 1.278 . S
C187 Pr177 2.880 . S
C187 C188 1.491 . S
C187 O202 1.254 . S
C187 O203 1.225 . S
C188 C187 1.491 . S
C188 C189 1.392 . S
C188 C193 1.356 . S
C189 C188 1.392 . S
C189 C190 1.368 . S
C189 H212 0.929 . S
C190 C189 1.368 . S
C190 C191 1.386 . S
C190 H213 0.929 . S
C191 C190 1.386 . S
C191 C192 1.373 . S
C192 C191 1.373 . S
C192 C193 1.409 . S
C192 H214 0.931 . S
C193 C188 1.356 . S
C193 C192 1.409 . S
C193 H215 0.930 . S
C194 O204 1.270 . S
C194 O205 1.248 . S
C195 O206 1.267 . S
C195 O207 1.278 . S
O196 Pr176 2.562 1_554 S
O196 C178 1.254 . S
O197 Pr176 2.490 1_554 S
O197 C178 1.225 . S
O198 Pr176 2.695 . S
O198 Pr177 2.436 . S
O198 C185 1.270 . S
O199 Pr176 2.512 . S
O199 C185 1.248 . S
O200 Pr177 2.438 . S
O200 C186 1.267 . S
O201 Pr176 2.437 . S
O201 C186 1.278 . S
O202 Pr177 2.562 . S
O202 C187 1.254 . S
O203 Pr177 2.490 . S
O203 C187 1.225 . S
O204 Pr176 2.436 . S
O204 Pr177 2.695 . S
O204 C194 1.270 . S
O205 Pr177 2.512 . S
O205 C194 1.248 . S
O206 Pr176 2.438 . S
O206 C195 1.267 . S
O207 Pr177 2.437 . S
O207 C195 1.278 . S
H208 C180 0.929 . S
H209 C181 0.929 . S
H210 C183 0.931 . S
H211 C184 0.930 . S
H212 C189 0.929 . S
H213 C190 0.929 . S
H214 C192 0.931 . S
H215 C193 0.930 . S
Pr216 C218 2.880 1_556 S
Pr216 O236 2.562 1_556 S
Pr216 O237 2.490 1_556 S
Pr216 O238 2.695 1_655 S
Pr216 O239 2.512 . S
Pr216 O241 2.437 . S
Pr216 O244 2.436 . S
Pr216 O246 2.438 1_655 S
Pr217 C227 2.880 . S
Pr217 O238 2.436 . S
Pr217 O240 2.438 1_455 S
Pr217 O242 2.562 . S
Pr217 O243 2.490 . S
Pr217 O244 2.695 1_455 S
Pr217 O245 2.512 . S
Pr217 O247 2.437 . S
C218 Pr216 2.880 1_554 S
C218 C219 1.491 . S
C218 O236 1.254 . S
C218 O237 1.225 . S
C219 C218 1.491 . S
C219 C220 1.392 . S
C219 C224 1.356 . S
C220 C219 1.392 . S
C220 C221 1.368 . S
C220 H248 0.929 . S
C221 C220 1.368 . S
C221 C222 1.386 . S
C221 H249 0.929 . S
C222 C221 1.386 . S
C222 C223 1.373 . S
C223 C222 1.373 . S
C223 C224 1.409 . S
C223 H250 0.931 . S
C224 C219 1.356 . S
C224 C223 1.409 . S
C224 H251 0.930 . S
C225 O238 1.264 1_655 S
C225 O239 1.258 . S
C226 O240 1.267 . S
C226 O241 1.278 . S
C227 Pr217 2.880 . S
C227 C228 1.491 . S
C227 O242 1.254 . S
C227 O243 1.225 . S
C228 C227 1.491 . S
C228 C229 1.392 . S
C228 C233 1.356 . S
C229 C228 1.392 . S
C229 C230 1.368 . S
C229 H252 0.929 . S
C230 C229 1.368 . S
C230 C231 1.386 . S
C230 H253 0.929 . S
C231 C230 1.386 . S
C231 C232 1.373 . S
C232 C231 1.373 . S
C232 C233 1.409 . S
C232 H254 0.931 . S
C233 C228 1.356 . S
C233 C232 1.409 . S
C233 H255 0.930 . S
C234 O244 1.262 1_455 S
C234 O245 1.262 . S
C235 O246 1.267 . S
C235 O247 1.278 . S
O236 Pr216 2.562 1_554 S
O236 C218 1.254 . S
O237 Pr216 2.490 1_554 S
O237 C218 1.225 . S
O238 Pr216 2.695 1_455 S
O238 Pr217 2.436 . S
O238 C225 1.264 1_455 S
O239 Pr216 2.512 . S
O239 C225 1.258 . S
O240 Pr217 2.438 1_655 S
O240 C226 1.267 . S
O241 Pr216 2.437 . S
O241 C226 1.278 . S
O242 Pr217 2.562 . S
O242 C227 1.254 . S
O243 Pr217 2.490 . S
O243 C227 1.225 . S
O244 Pr216 2.436 . S
O244 Pr217 2.695 1_655 S
O244 C234 1.262 1_655 S
O245 Pr217 2.512 . S
O245 C234 1.262 . S
O246 Pr216 2.438 1_455 S
O246 C235 1.267 . S
O247 Pr217 2.437 . S
O247 C235 1.278 . S
H248 C220 0.929 . S
H249 C221 0.929 . S
H250 C223 0.931 . S
H251 C224 0.930 . S
H252 C229 0.929 . S
H253 C230 0.929 . S
H254 C232 0.931 . S
H255 C233 0.930 . S
C256 C257 1.362 1_565 S
C256 C258 1.419 . S
C256 H260 0.930 . S
C257 C256 1.362 1_545 S
C257 C266 1.437 . S
C258 C256 1.419 . S
C258 C259 1.353 1_565 S
C258 H261 0.929 . S
C259 C258 1.353 1_545 S
C259 C265 1.440 . S
H260 C256 0.930 . S
H261 C258 0.929 . S
S262 N263 1.613 . S
S262 N264 1.610 . S
N263 S262 1.613 . S
N263 C266 1.350 . S
N264 S262 1.610 . S
N264 C265 1.351 . S
C265 C259 1.440 . S
C265 N264 1.351 . S
C265 C266 1.434 . S
C266 C257 1.437 . S
C266 N263 1.350 . S
C266 C265 1.434 . S
C267 C268 1.369 . S
C267 C269 1.419 . S
C267 H271 0.930 . S
C268 C267 1.369 . S
C268 C277 1.429 . S
C269 C267 1.419 . S
C269 C270 1.363 . S
C269 H272 0.929 . S
C270 C269 1.363 . S
C270 C276 1.428 . S
H271 C267 0.930 . S
H272 C269 0.929 . S
S273 N274 1.613 . S
S273 N275 1.610 . S
N274 S273 1.613 . S
N274 C277 1.350 . S
N275 S273 1.610 . S
N275 C276 1.351 . S
C276 C270 1.428 . S
C276 N275 1.351 . S
C276 C277 1.434 . S
C277 C268 1.429 . S
C277 N274 1.350 . S
C277 C276 1.434 . S
C278 C279 1.369 . S
C278 C280 1.419 . S
C278 H282 0.930 . S
C279 C278 1.369 . S
C279 C288 1.429 . S
C280 C278 1.419 . S
C280 C281 1.363 . S
C280 H283 0.929 . S
C281 C280 1.363 . S
C281 C287 1.428 . S
H282 C278 0.930 . S
H283 C280 0.929 . S
S284 N285 1.613 . S
S284 N286 1.610 . S
N285 S284 1.613 . S
N285 C288 1.350 . S
N286 S284 1.610 . S
N286 C287 1.351 . S
C287 C281 1.428 . S
C287 N286 1.351 . S
C287 C288 1.434 . S
C288 C279 1.429 . S
C288 N285 1.350 . S
C288 C287 1.434 . S
C289 C290 1.341 1_655 S
C289 C291 1.419 . S
C289 H293 0.930 . S
C290 C289 1.341 1_455 S
C290 C299 1.458 . S
C291 C289 1.419 . S
C291 C292 1.363 1_655 S
C291 H294 0.929 . S
C292 C291 1.363 1_455 S
C292 C298 1.428 . S
H293 C289 0.930 . S
H294 C291 0.929 . S
S295 N296 1.613 . S
S295 N297 1.610 . S
N296 S295 1.613 . S
N296 C299 1.350 . S
N297 S295 1.610 . S
N297 C298 1.351 . S
C298 C292 1.428 . S
C298 N297 1.351 . S
C298 C299 1.434 . S
C299 C290 1.458 . S
C299 N296 1.350 . S
C299 C298 1.434 . S
C300 C301 1.360 1_545 S
C300 C302 1.419 . S
C300 H304 0.930 . S
C301 C300 1.360 1_565 S
C301 C310 1.438 . S
C302 C300 1.419 . S
C302 C303 1.346 1_545 S
C302 H305 0.929 . S
C303 C302 1.346 1_565 S
C303 C309 1.445 . S
H304 C300 0.930 . S
H305 C302 0.929 . S
S306 N307 1.613 . S
S306 N308 1.610 . S
N307 S306 1.613 . S
N307 C310 1.350 . S
N308 S306 1.610 . S
N308 C309 1.351 . S
C309 C303 1.445 . S
C309 N308 1.351 . S
C309 C310 1.434 . S
C310 C301 1.438 . S
C310 N307 1.350 . S
C310 C309 1.434 . S
C311 C312 1.369 . S
C311 C313 1.419 . S
C311 H315 0.930 . S
C312 C311 1.369 . S
C312 C321 1.429 . S
C313 C311 1.419 . S
C313 C314 1.363 . S
C313 H316 0.929 . S
C314 C313 1.363 . S
C314 C320 1.428 . S
H315 C311 0.930 . S
H316 C313 0.929 . S
S317 N318 1.613 . S
S317 N319 1.610 . S
N318 S317 1.613 . S
N318 C321 1.350 . S
N319 S317 1.610 . S
N319 C320 1.351 . S
C320 C314 1.428 . S
C320 N319 1.351 . S
C320 C321 1.434 . S
C321 C312 1.429 . S
C321 N318 1.350 . S
C321 C320 1.434 . S
C322 C323 1.369 . S
C322 C324 1.419 . S
C322 H326 0.930 . S
C323 C322 1.369 . S
C323 C332 1.429 . S
C324 C322 1.419 . S
C324 C325 1.363 . S
C324 H327 0.929 . S
C325 C324 1.363 . S
C325 C331 1.428 . S
H326 C322 0.930 . S
H327 C324 0.929 . S
S328 N329 1.613 . S
S328 N330 1.610 . S
N329 S328 1.613 . S
N329 C332 1.350 . S
N330 S328 1.610 . S
N330 C331 1.351 . S
C331 C325 1.428 . S
C331 N330 1.351 . S
C331 C332 1.434 . S
C332 C323 1.429 . S
C332 N329 1.350 . S
C332 C331 1.434 . S
C333 C334 1.347 1_455 S
C333 C335 1.419 . S
C333 H337 0.930 . S
C334 C333 1.347 1_655 S
C334 C343 1.452 . S
C335 C333 1.419 . S
C335 C336 1.363 1_455 S
C335 H338 0.929 . S
C336 C335 1.363 1_655 S
C336 C342 1.428 . S
H337 C333 0.930 . S
H338 C335 0.929 . S
S339 N340 1.613 . S
S339 N341 1.610 . S
N340 S339 1.613 . S
N340 C343 1.350 . S
N341 S339 1.610 . S
N341 C342 1.351 . S
C342 C336 1.428 . S
C342 N341 1.351 . S
C342 C343 1.434 . S
C343 C334 1.452 . S
C343 N340 1.350 . S
C343 C342 1.434 . S
C344 C345 1.369 . S
C344 C346 1.419 . S
C344 H348 0.930 . S
C345 C344 1.369 . S
C345 C354 1.429 1_655 S
C346 C344 1.419 . S
C346 C347 1.363 . S
C346 H349 0.929 . S
C347 C346 1.363 . S
C347 C353 1.428 . S
H348 C344 0.930 . S
H349 C346 0.929 . S
S350 N351 1.613 . S
S350 N352 1.610 1_455 S
N351 S350 1.613 . S
N351 C354 1.350 . S
N352 S350 1.610 1_655 S
N352 C353 1.351 . S
C353 C347 1.428 . S
C353 N352 1.351 . S
C353 C354 1.434 1_655 S
C354 C345 1.429 1_455 S
C354 N351 1.350 . S
C354 C353 1.434 1_455 S
C355 C356 1.369 . S
C355 C357 1.419 . S
C355 H359 0.930 . S
C356 C355 1.369 . S
C356 C365 1.429 . S
C357 C355 1.419 . S
C357 C358 1.363 . S
C357 H360 0.929 . S
C358 C357 1.363 . S
C358 C364 1.428 . S
H359 C355 0.930 . S
H360 C357 0.929 . S
S361 N362 1.613 . S
S361 N363 1.610 . S
N362 S361 1.613 . S
N362 C365 1.350 . S
N363 S361 1.610 . S
N363 C364 1.351 . S
C364 C358 1.428 . S
C364 N363 1.351 . S
C364 C365 1.434 . S
C365 C356 1.429 . S
C365 N362 1.350 . S
C365 C364 1.434 . S
C366 C367 1.369 . S
C366 C368 1.419 . S
C366 H370 0.930 . S
C367 C366 1.369 . S
C367 C376 1.429 . S
C368 C366 1.419 . S
C368 C369 1.363 . S
C368 H371 0.929 . S
C369 C368 1.363 . S
C369 C375 1.428 . S
H370 C366 0.930 . S
H371 C368 0.929 . S
S372 N373 1.613 . S
S372 N374 1.610 . S
N373 S372 1.613 . S
N373 C376 1.350 . S
N374 S372 1.610 . S
N374 C375 1.351 . S
C375 C369 1.428 . S
C375 N374 1.351 . S
C375 C376 1.434 . S
C376 C367 1.429 . S
C376 N373 1.350 . S
C376 C375 1.434 . S
C377 C378 1.369 . S
C377 C379 1.419 . S
C377 H381 0.930 . S
C378 C377 1.369 . S
C378 C387 1.429 . S
C379 C377 1.419 . S
C379 C380 1.363 . S
C379 H382 0.929 . S
C380 C379 1.363 . S
C380 C386 1.428 . S
H381 C377 0.930 . S
H382 C379 0.929 . S
S383 N384 1.613 . S
S383 N385 1.610 . S
N384 S383 1.613 . S
N384 C387 1.350 . S
N385 S383 1.610 . S
N385 C386 1.351 . S
C386 C380 1.428 . S
C386 N385 1.351 . S
C386 C387 1.434 . S
C387 C378 1.429 . S
C387 N384 1.350 . S
C387 C386 1.434 . S
C388 C389 1.369 . S
C388 C390 1.419 . S
C388 H392 0.930 1_455 S
C389 C388 1.369 . S
C389 C398 1.429 . S
C390 C388 1.419 . S
C390 C391 1.363 . S
C390 H393 0.929 . S
C391 C390 1.363 . S
C391 C397 1.428 . S
H392 C388 0.930 1_655 S
H393 C390 0.929 . S
S394 N395 1.613 . S
S394 N396 1.610 . S
N395 S394 1.613 . S
N395 C398 1.350 . S
N396 S394 1.610 . S
N396 C397 1.351 . S
C397 C391 1.428 . S
C397 N396 1.351 . S
C397 C398 1.434 . S
C398 C389 1.429 . S
C398 N395 1.350 . S
C398 C397 1.434 . S
C399 C400 1.369 1_565 S
C399 C401 1.418 1_565 S
C399 H403 0.931 . S
C400 C399 1.369 1_545 S
C400 C409 1.429 . S
C401 C399 1.418 1_545 S
C401 C402 1.363 . S
C401 H404 0.929 . S
C402 C401 1.363 . S
C402 C408 1.428 . S
H403 C399 0.931 . S
H404 C401 0.929 . S
S405 N406 1.613 . S
S405 N407 1.610 . S
N406 S405 1.613 . S
N406 C409 1.350 . S
N407 S405 1.610 . S
N407 C408 1.351 . S
C408 C402 1.428 . S
C408 N407 1.351 . S
C408 C409 1.434 . S
C409 C400 1.429 . S
C409 N406 1.350 . S
C409 C408 1.434 . S
C410 C411 1.369 . S
C410 C412 1.419 . S
C410 H414 0.930 . S
C411 C410 1.369 . S
C411 C420 1.429 . S
C412 C410 1.419 . S
C412 C413 1.363 . S
C412 H415 0.929 . S
C413 C412 1.363 . S
C413 C419 1.428 . S
H414 C410 0.930 . S
H415 C412 0.929 . S
S416 N417 1.613 . S
S416 N418 1.610 . S
N417 S416 1.613 . S
N417 C420 1.350 . S
N418 S416 1.610 . S
N418 C419 1.351 . S
C419 C413 1.428 . S
C419 N418 1.351 . S
C419 C420 1.434 . S
C420 C411 1.429 . S
C420 N417 1.350 . S
C420 C419 1.434 . S
C421 C422 1.369 . S
C421 C423 1.419 . S
C421 H425 0.930 . S
C422 C421 1.369 . S
C422 C431 1.429 . S
C423 C421 1.419 . S
C423 C424 1.363 . S
C423 H426 0.929 . S
C424 C423 1.363 . S
C424 C430 1.428 . S
H425 C421 0.930 . S
H426 C423 0.929 . S
S427 N428 1.613 . S
S427 N429 1.610 . S
N428 S427 1.613 . S
N428 C431 1.350 . S
N429 S427 1.610 . S
N429 C430 1.351 . S
C430 C424 1.428 . S
C430 N429 1.351 . S
C430 C431 1.434 . S
C431 C422 1.429 . S
C431 N428 1.350 . S
C431 C430 1.434 . S
C432 C433 1.369 . S
C432 C434 1.419 . S
C432 H436 0.930 . S
C433 C432 1.369 . S
C433 C442 1.429 1_455 S
C434 C432 1.419 . S
C434 C435 1.363 . S
C434 H437 0.929 . S
C435 C434 1.363 . S
C435 C441 1.440 . S
H436 C432 0.930 . S
H437 C434 0.929 . S
S438 N439 1.613 . S
S438 N440 1.610 . S
N439 S438 1.613 . S
N439 C442 1.350 1_554 S
N440 S438 1.610 . S
N440 C441 1.344 1_654 S
C441 C435 1.440 . S
C441 N440 1.344 1_456 S
C441 C442 1.431 1_455 S
C442 C433 1.429 1_655 S
C442 N439 1.350 1_556 S
C442 C441 1.431 1_655 S
C443 C444 1.369 . S
C443 C445 1.419 . S
C443 H447 0.930 . S
C444 C443 1.369 . S
C444 C453 1.429 1_545 S
C445 C443 1.419 . S
C445 C446 1.363 . S
C445 H448 0.929 1_556 S
C446 C445 1.363 . S
C446 C452 1.428 1_545 S
H447 C443 0.930 . S
H448 C445 0.929 1_554 S
S449 N450 1.613 . S
S449 N451 1.610 . S
N450 S449 1.613 . S
N450 C453 1.350 . S
N451 S449 1.610 . S
N451 C452 1.351 . S
C452 C446 1.428 1_565 S
C452 N451 1.351 . S
C452 C453 1.434 . S
C453 C444 1.429 1_565 S
C453 N450 1.350 . S
C453 C452 1.434 . S
C454 C455 1.369 . S
C454 C456 1.419 . S
C454 H458 0.930 . S
C455 C454 1.369 . S
C455 C464 1.429 . S
C456 C454 1.419 . S
C456 C457 1.363 . S
C456 H459 0.929 . S
C457 C456 1.363 . S
C457 C463 1.428 . S
H458 C454 0.930 . S
H459 C456 0.929 . S
S460 N461 1.613 . S
S460 N462 1.610 . S
N461 S460 1.613 . S
N461 C464 1.350 . S
N462 S460 1.610 . S
N462 C463 1.351 . S
C463 C457 1.428 . S
C463 N462 1.351 . S
C463 C464 1.434 . S
C464 C455 1.429 . S
C464 N461 1.350 . S
C464 C463 1.434 . S
C465 C466 1.369 . S
C465 C467 1.419 . S
C465 H469 0.930 . S
C466 C465 1.369 . S
C466 C475 1.429 . S
C467 C465 1.419 . S
C467 C468 1.363 . S
C467 H470 0.929 . S
C468 C467 1.363 . S
C468 C474 1.428 . S
H469 C465 0.930 . S
H470 C467 0.929 . S
S471 N472 1.613 . S
S471 N473 1.610 . S
N472 S471 1.613 . S
N472 C475 1.350 . S
N473 S471 1.610 . S
N473 C474 1.351 . S
C474 C468 1.428 . S
C474 N473 1.351 . S
C474 C475 1.434 . S
C475 C466 1.429 . S
C475 N472 1.350 . S
C475 C474 1.434 . S
C476 C477 1.369 . S
C476 C478 1.419 . S
C476 H480 0.930 . S
C477 C476 1.369 . S
C477 C486 1.429 1_655 S
C478 C476 1.419 . S
C478 C479 1.363 . S
C478 H481 0.929 . S
C479 C478 1.363 . S
C479 C485 1.428 1_655 S
H480 C476 0.930 . S
H481 C478 0.929 . S
S482 N483 1.613 . S
S482 N484 1.610 . S
N483 S482 1.613 . S
N483 C486 1.350 . S
N484 S482 1.610 . S
N484 C485 1.351 . S
C485 C479 1.428 1_455 S
C485 N484 1.351 . S
C485 C486 1.434 . S
C486 C477 1.429 1_455 S
C486 N483 1.350 . S
C486 C485 1.434 . S
C487 C488 1.369 1_545 S
C487 C489 1.419 . S
C487 H491 0.930 . S
C488 C487 1.369 1_565 S
C488 C497 1.429 . S
C489 C487 1.419 . S
C489 C490 1.363 1_545 S
C489 H492 0.929 . S
C490 C489 1.363 1_565 S
C490 C496 1.428 . S
H491 C487 0.930 . S
H492 C489 0.929 . S
S493 N494 1.613 . S
S493 N495 1.610 . S
N494 S493 1.613 . S
N494 C497 1.350 . S
N495 S493 1.610 . S
N495 C496 1.351 . S
C496 C490 1.428 . S
C496 N495 1.351 . S
C496 C497 1.434 . S
C497 C488 1.429 . S
C497 N494 1.350 . S
C497 C496 1.434 . S
C498 C499 1.369 . S
C498 C500 1.419 . S
C498 H502 0.930 . S
C499 C498 1.369 . S
C499 C508 1.429 . S
C500 C498 1.419 . S
C500 C501 1.363 . S
C500 H503 0.929 . S
C501 C500 1.363 . S
C501 C507 1.428 . S
H502 C498 0.930 . S
H503 C500 0.929 . S
S504 N505 1.613 . S
S504 N506 1.610 . S
N505 S504 1.613 . S
N505 C508 1.350 . S
N506 S504 1.610 . S
N506 C507 1.351 . S
C507 C501 1.428 . S
C507 N506 1.351 . S
C507 C508 1.434 . S
C508 C499 1.429 . S
C508 N505 1.350 . S
C508 C507 1.434 . S
C509 C510 1.369 . S
C509 C511 1.419 . S
C509 H513 0.930 . S
C510 C509 1.369 . S
C510 C519 1.429 . S
C511 C509 1.419 . S
C511 C512 1.363 . S
C511 H514 0.929 . S
C512 C511 1.363 . S
C512 C518 1.428 . S
H513 C509 0.930 . S
H514 C511 0.929 . S
S515 N516 1.613 . S
S515 N517 1.610 . S
N516 S515 1.613 . S
N516 C519 1.350 . S
N517 S515 1.610 . S
N517 C518 1.351 . S
C518 C512 1.428 . S
C518 N517 1.351 . S
C518 C519 1.434 . S
C519 C510 1.429 . S
C519 N516 1.350 . S
C519 C518 1.434 . S
C257 C76 1.924 1_545 S
C259 C105 2.199 1_545 S
C270 C145 2.218 . S
C268 C88 1.945 . S
C281 C185 2.228 . S
C279 C52 1.957 . S
C292 C225 2.211 1_455 S
C290 C64 1.930 1_455 S
C303 C114 2.201 1_564 S
C301 C28 1.927 . S
C312 C40 1.936 . S
C314 C154 2.221 1_554 S
C323 C4 1.948 . S
C325 C194 2.229 1_554 S
C334 C16 1.940 . S
C336 C234 2.211 1_654 S
C347 C111 0.812 . S
C345 C69 0.820 1_655 S
C358 C151 0.811 . S
C356 C81 0.831 1_565 S
C369 C191 0.814 . S
C367 C93 0.809 . S
C378 C57 0.817 . S
C380 C231 0.795 . S
C389 C21 0.817 . S
C391 C102 0.821 . S
C402 C142 0.821 . S
C400 C33 0.810 . S
C413 C182 0.815 . S
C411 C45 0.799 . S
C422 C9 0.821 . S
C424 C222 0.798 . S
C433 C66 2.252 . S
C435 C115 2.581 . S
C444 C78 2.220 . S
C446 C155 2.541 . S
C457 C195 2.530 . S
C455 C90 2.202 . S
C468 C235 2.569 . S
C466 C54 2.238 . S
C477 C18 2.275 1_655 S
C479 C106 2.587 . S
C490 C146 2.544 . S
C488 C30 2.229 1_565 S
C501 C186 2.527 . S
C499 C42 2.223 . S
C510 C6 2.255 . S
C512 C226 2.575 . S
