# Generated by pormake.
# Topology ptr, (4,4)-cn, num edge types: 1
# Building blocks:
#     Node 0, Type 0, BuildingBlock: NAHDIM_clean_sbu_0, # of connection points: 4
#     Node 1, Type 0, BuildingBlock: NAHDIM_clean_sbu_0, # of connection points: 4
#     Node 2, Type 0, BuildingBlock: NAHDIM_clean_sbu_0, # of connection points: 4
#     Node 3, Type 0, BuildingBlock: NAHDIM_clean_sbu_0, # of connection points: 4
#     Node 4, Type 0, BuildingBlock: NAHDIM_clean_sbu_0, # of connection points: 4
#     Node 5, Type 0, BuildingBlock: NAHDIM_clean_sbu_0, # of connection points: 4
#     Node 6, Type 0, BuildingBlock: NAHDIM_clean_sbu_0, # of connection points: 4
#     Node 7, Type 0, BuildingBlock: NAHDIM_clean_sbu_0, # of connection points: 4
#     Node 8, Type 0, BuildingBlock: NAHDIM_clean_sbu_0, # of connection points: 4
#     Node 9, Type 0, BuildingBlock: NAHDIM_clean_sbu_0, # of connection points: 4
#     Node 10, Type 0, BuildingBlock: NAHDIM_clean_sbu_0, # of connection points: 4
#     Node 11, Type 0, BuildingBlock: NAHDIM_clean_sbu_0, # of connection points: 4
#     Node 12, Type 0, BuildingBlock: NAHDIM_clean_sbu_0, # of connection points: 4
#     Node 13, Type 0, BuildingBlock: NAHDIM_clean_sbu_0, # of connection points: 4
#     Node 14, Type 0, BuildingBlock: NAHDIM_clean_sbu_0, # of connection points: 4
#     Node 15, Type 0, BuildingBlock: NAHDIM_clean_sbu_0, # of connection points: 4
#     Node 16, Type 0, BuildingBlock: NAHDIM_clean_sbu_0, # of connection points: 4
#     Node 17, Type 0, BuildingBlock: NAHDIM_clean_sbu_0, # of connection points: 4
#     Node 18, Type 1, BuildingBlock: KUFVIS_clean_linker_0, # of connection points: 4
#     Node 19, Type 1, BuildingBlock: KUFVIS_clean_linker_0, # of connection points: 4
#     Node 20, Type 1, BuildingBlock: KUFVIS_clean_linker_0, # of connection points: 4
#     Node 21, Type 1, BuildingBlock: KUFVIS_clean_linker_0, # of connection points: 4
#     Node 22, Type 1, BuildingBlock: KUFVIS_clean_linker_0, # of connection points: 4
#     Node 23, Type 1, BuildingBlock: KUFVIS_clean_linker_0, # of connection points: 4
#     Node 24, Type 1, BuildingBlock: KUFVIS_clean_linker_0, # of connection points: 4
#     Node 25, Type 1, BuildingBlock: KUFVIS_clean_linker_0, # of connection points: 4
#     Node 26, Type 1, BuildingBlock: KUFVIS_clean_linker_0, # of connection points: 4
#     Node 27, Type 1, BuildingBlock: KUFVIS_clean_linker_0, # of connection points: 4
#     Node 28, Type 1, BuildingBlock: KUFVIS_clean_linker_0, # of connection points: 4
#     Node 29, Type 1, BuildingBlock: KUFVIS_clean_linker_0, # of connection points: 4
#     Node 30, Type 1, BuildingBlock: KUFVIS_clean_linker_0, # of connection points: 4
#     Node 31, Type 1, BuildingBlock: KUFVIS_clean_linker_0, # of connection points: 4
#     Node 32, Type 1, BuildingBlock: KUFVIS_clean_linker_0, # of connection points: 4
#     Node 33, Type 1, BuildingBlock: KUFVIS_clean_linker_0, # of connection points: 4
#     Node 34, Type 1, BuildingBlock: KUFVIS_clean_linker_0, # of connection points: 4
#     Node 35, Type 1, BuildingBlock: KUFVIS_clean_linker_0, # of connection points: 4
#     Edge 36, Type (0, 1), BuildingBlock: ZUJKAS_clean_linker_0, # of connection points: 2
#     Edge 37, Type (0, 1), BuildingBlock: ZUJKAS_clean_linker_0, # of connection points: 2
#     Edge 38, Type (0, 1), BuildingBlock: ZUJKAS_clean_linker_0, # of connection points: 2
#     Edge 39, Type (0, 1), BuildingBlock: ZUJKAS_clean_linker_0, # of connection points: 2
#     Edge 40, Type (0, 1), BuildingBlock: ZUJKAS_clean_linker_0, # of connection points: 2
#     Edge 41, Type (0, 1), BuildingBlock: ZUJKAS_clean_linker_0, # of connection points: 2
#     Edge 42, Type (0, 1), BuildingBlock: ZUJKAS_clean_linker_0, # of connection points: 2
#     Edge 43, Type (0, 1), BuildingBlock: ZUJKAS_clean_linker_0, # of connection points: 2
#     Edge 44, Type (0, 1), BuildingBlock: ZUJKAS_clean_linker_0, # of connection points: 2
#     Edge 45, Type (0, 1), BuildingBlock: ZUJKAS_clean_linker_0, # of connection points: 2
#     Edge 46, Type (0, 1), BuildingBlock: ZUJKAS_clean_linker_0, # of connection points: 2
#     Edge 47, Type (0, 1), BuildingBlock: ZUJKAS_clean_linker_0, # of connection points: 2
#     Edge 48, Type (0, 1), BuildingBlock: ZUJKAS_clean_linker_0, # of connection points: 2
#     Edge 49, Type (0, 1), BuildingBlock: ZUJKAS_clean_linker_0, # of connection points: 2
#     Edge 50, Type (0, 1), BuildingBlock: ZUJKAS_clean_linker_0, # of connection points: 2
#     Edge 51, Type (0, 1), BuildingBlock: ZUJKAS_clean_linker_0, # of connection points: 2
#     Edge 52, Type (0, 1), BuildingBlock: ZUJKAS_clean_linker_0, # of connection points: 2
#     Edge 53, Type (0, 1), BuildingBlock: ZUJKAS_clean_linker_0, # of connection points: 2
#     Edge 54, Type (0, 1), BuildingBlock: ZUJKAS_clean_linker_0, # of connection points: 2
#     Edge 55, Type (0, 1), BuildingBlock: ZUJKAS_clean_linker_0, # of connection points: 2
#     Edge 56, Type (0, 1), BuildingBlock: ZUJKAS_clean_linker_0, # of connection points: 2
#     Edge 57, Type (0, 1), BuildingBlock: ZUJKAS_clean_linker_0, # of connection points: 2
#     Edge 58, Type (0, 1), BuildingBlock: ZUJKAS_clean_linker_0, # of connection points: 2
#     Edge 59, Type (0, 1), BuildingBlock: ZUJKAS_clean_linker_0, # of connection points: 2
#     Edge 60, Type (0, 1), BuildingBlock: ZUJKAS_clean_linker_0, # of connection points: 2
#     Edge 61, Type (0, 1), BuildingBlock: ZUJKAS_clean_linker_0, # of connection points: 2
#     Edge 62, Type (0, 1), BuildingBlock: ZUJKAS_clean_linker_0, # of connection points: 2
#     Edge 63, Type (0, 1), BuildingBlock: ZUJKAS_clean_linker_0, # of connection points: 2
#     Edge 64, Type (0, 1), BuildingBlock: ZUJKAS_clean_linker_0, # of connection points: 2
#     Edge 65, Type (0, 1), BuildingBlock: ZUJKAS_clean_linker_0, # of connection points: 2
#     Edge 66, Type (0, 1), BuildingBlock: ZUJKAS_clean_linker_0, # of connection points: 2
#     Edge 67, Type (0, 1), BuildingBlock: ZUJKAS_clean_linker_0, # of connection points: 2
#     Edge 68, Type (0, 1), BuildingBlock: ZUJKAS_clean_linker_0, # of connection points: 2
#     Edge 69, Type (0, 1), BuildingBlock: ZUJKAS_clean_linker_0, # of connection points: 2
#     Edge 70, Type (0, 1), BuildingBlock: ZUJKAS_clean_linker_0, # of connection points: 2
#     Edge 71, Type (0, 1), BuildingBlock: ZUJKAS_clean_linker_0, # of connection points: 2
#     Edge 72, Type (0, 1), BuildingBlock: ZUJKAS_clean_linker_0, # of connection points: 2
#     Edge 73, Type (0, 1), BuildingBlock: ZUJKAS_clean_linker_0, # of connection points: 2
#     Edge 74, Type (0, 1), BuildingBlock: ZUJKAS_clean_linker_0, # of connection points: 2
#     Edge 75, Type (0, 1), BuildingBlock: ZUJKAS_clean_linker_0, # of connection points: 2
#     Edge 76, Type (0, 1), BuildingBlock: ZUJKAS_clean_linker_0, # of connection points: 2
#     Edge 77, Type (0, 1), BuildingBlock: ZUJKAS_clean_linker_0, # of connection points: 2
#     Edge 78, Type (0, 1), BuildingBlock: ZUJKAS_clean_linker_0, # of connection points: 2
#     Edge 79, Type (0, 1), BuildingBlock: ZUJKAS_clean_linker_0, # of connection points: 2
#     Edge 80, Type (0, 1), BuildingBlock: ZUJKAS_clean_linker_0, # of connection points: 2
#     Edge 81, Type (0, 1), BuildingBlock: ZUJKAS_clean_linker_0, # of connection points: 2
#     Edge 82, Type (0, 1), BuildingBlock: ZUJKAS_clean_linker_0, # of connection points: 2
#     Edge 83, Type (0, 1), BuildingBlock: ZUJKAS_clean_linker_0, # of connection points: 2
#     Edge 84, Type (0, 1), BuildingBlock: ZUJKAS_clean_linker_0, # of connection points: 2
#     Edge 85, Type (0, 1), BuildingBlock: ZUJKAS_clean_linker_0, # of connection points: 2
#     Edge 86, Type (0, 1), BuildingBlock: ZUJKAS_clean_linker_0, # of connection points: 2
#     Edge 87, Type (0, 1), BuildingBlock: ZUJKAS_clean_linker_0, # of connection points: 2
#     Edge 88, Type (0, 1), BuildingBlock: ZUJKAS_clean_linker_0, # of connection points: 2
#     Edge 89, Type (0, 1), BuildingBlock: ZUJKAS_clean_linker_0, # of connection points: 2
#     Edge 90, Type (0, 1), BuildingBlock: ZUJKAS_clean_linker_0, # of connection points: 2
#     Edge 91, Type (0, 1), BuildingBlock: ZUJKAS_clean_linker_0, # of connection points: 2
#     Edge 92, Type (0, 1), BuildingBlock: ZUJKAS_clean_linker_0, # of connection points: 2
#     Edge 93, Type (0, 1), BuildingBlock: ZUJKAS_clean_linker_0, # of connection points: 2
#     Edge 94, Type (0, 1), BuildingBlock: ZUJKAS_clean_linker_0, # of connection points: 2
#     Edge 95, Type (0, 1), BuildingBlock: ZUJKAS_clean_linker_0, # of connection points: 2
#     Edge 96, Type (0, 1), BuildingBlock: ZUJKAS_clean_linker_0, # of connection points: 2
#     Edge 97, Type (0, 1), BuildingBlock: ZUJKAS_clean_linker_0, # of connection points: 2
#     Edge 98, Type (0, 1), BuildingBlock: ZUJKAS_clean_linker_0, # of connection points: 2
#     Edge 99, Type (0, 1), BuildingBlock: ZUJKAS_clean_linker_0, # of connection points: 2
#     Edge 100, Type (0, 1), BuildingBlock: ZUJKAS_clean_linker_0, # of connection points: 2
#     Edge 101, Type (0, 1), BuildingBlock: ZUJKAS_clean_linker_0, # of connection points: 2
#     Edge 102, Type (0, 1), BuildingBlock: ZUJKAS_clean_linker_0, # of connection points: 2
#     Edge 103, Type (0, 1), BuildingBlock: ZUJKAS_clean_linker_0, # of connection points: 2
#     Edge 104, Type (0, 1), BuildingBlock: ZUJKAS_clean_linker_0, # of connection points: 2
#     Edge 105, Type (0, 1), BuildingBlock: ZUJKAS_clean_linker_0, # of connection points: 2
#     Edge 106, Type (0, 1), BuildingBlock: ZUJKAS_clean_linker_0, # of connection points: 2
#     Edge 107, Type (0, 1), BuildingBlock: ZUJKAS_clean_linker_0, # of connection points: 2
# Relax obj value: 0.076
# Max RMSD: 0.211
# Mean RMSD: 0.121
data_MOF--net-ptr--node1-NAHDIM_clean_sbu_0--node2-KUFVIS_clean_linker_0--edge1-ZUJKAS_clean_linker_0
_symmetry_space_group_name_H-M    P1
_symmetry_Int_Tables_number       1
_symmetry_cell_setting            triclinic
loop_
_symmetry_equiv_pos_as_xyz
'x, y, z'
_cell_length_a     103.77498
_cell_length_b     101.99483
_cell_length_c     61.021681
_cell_angle_alpha  91.554609
_cell_angle_beta   89.275419
_cell_angle_gamma 121.63915
loop_
_atom_site_label
_atom_site_type_symbol
_atom_site_fract_x
_atom_site_fract_y
_atom_site_fract_z
_atom_type_partial_charge
C0 C 0.02316 0.35022 0.01459 0.0
O1 O 0.00997 0.33741 0.01668 0.0
O2 O 0.98598 0.34188 0.00073 0.0
Zn3 Zn 0.00447 0.36323 0.00604 0.0
O4 O 1.00176 0.3736 0.0328 0.0
C5 C 0.99584 0.37405 0.96886 0.0
O6 O 0.98266 0.36144 0.97211 0.0
O7 O 0.02355 0.3625 0.00985 0.0
C8 C 0.99089 0.37597 0.03382 0.0
O9 O 0.98077 0.37047 0.01803 0.0
C10 C 0.97693 0.33351 0.01565 0.0
O11 O 0.97965 0.33856 0.03612 0.0
O12 O 0.00705 0.37688 0.98075 0.0
C13 C 0.67162 0.63259 0.01059 0.0
O14 O 0.65991 0.61865 0.01356 0.0
O15 O 0.65187 0.66193 0.0251 0.0
Zn16 Zn 0.64924 0.64121 0.01739 0.0
O17 O 0.6359 0.63207 0.99072 0.0
C18 C 0.63578 0.62879 0.06053 0.0
O19 O 0.64147 0.64322 0.06683 0.0
O20 O 0.66973 0.64394 0.01152 0.0
C21 C 0.62197 0.62743 0.99326 0.0
O22 O 0.61735 0.62952 0.01245 0.0
C23 C 0.65308 0.67082 0.0099 0.0
O24 O 0.6525 0.66627 0.98939 0.0
O25 O 0.63824 0.62575 0.04116 0.0
C26 C 0.36516 0.03702 0.99597 0.0
O27 O 0.36375 0.02766 0.97969 0.0
O28 O 0.3481 0.99701 0.02823 0.0
Zn29 Zn 0.3688 0.01526 0.0204 0.0
O30 O 0.37699 0.01024 0.99325 0.0
C31 C 0.38756 0.00996 0.04809 0.0
O32 O 0.38104 0.9971 0.03631 0.0
O33 O 0.36748 0.03417 0.01521 0.0
C34 C 0.37271 0.99658 0.9868 0.0
O35 O 0.36184 0.9849 0.99742 0.0
C36 C 0.33651 0.99254 0.01621 0.0
O37 O 0.33792 1.0 0.99827 0.0
O38 O 0.38378 0.01978 0.04488 0.0
C39 C 0.98392 0.65565 0.98917 0.0
O40 O 0.99528 0.66228 0.97535 0.0
O41 O 0.02192 0.6671 0.00892 0.0
Zn42 Zn 1.00298 0.64579 0.00568 0.0
O43 O 0.00385 0.63483 0.97807 0.0
C44 C 0.00488 0.63635 0.05032 0.0
O45 O 0.0097 0.65066 0.05641 0.0
O46 O 0.98451 0.64769 0.00437 0.0
C47 C 0.01617 0.63751 0.96932 0.0
O48 O 0.02908 0.64868 0.97741 0.0
C49 C 0.03415 0.66936 0.01717 0.0
O50 O 0.03467 0.6575 0.02383 0.0
O51 O 1.00124 0.63217 0.03042 0.0
C52 C 0.32118 0.35288 0.99708 0.0
O53 O 0.32173 0.34181 0.98645 0.0
O54 O 0.34996 0.3438 0.0018 0.0
Zn55 Zn 0.35339 0.36529 0.00444 0.0
O56 O 0.36484 0.37608 0.03228 0.0
C57 C 0.36593 0.37585 0.95959 0.0
O58 O 0.35499 0.36249 0.95181 0.0
O59 O 0.33326 0.36406 0.00547 0.0
C60 C 0.3792 0.38272 0.03231 0.0
O61 O 0.38598 0.38142 0.01481 0.0
C62 C 0.36009 0.3413 0.99476 0.0
O63 O 0.37329 0.35302 0.98893 0.0
O64 O 0.36662 0.37881 0.98004 0.0
C65 C 0.65103 0.97104 0.99039 0.0
O66 O 0.66206 0.98202 0.97899 0.0
O67 O 0.66234 0.01135 0.99209 0.0
Zn68 Zn 0.64106 0.99309 0.99676 0.0
O69 O 0.63191 0.99566 0.0247 0.0
C70 C 0.63037 0.0033 0.96135 0.0
O71 O 0.64358 0.01604 0.96434 0.0
O72 O 0.64101 0.97323 0.9988 0.0
C73 C 0.62825 0.00575 0.02632 0.0
O74 O 0.63181 0.01547 0.01037 0.0
C75 C 0.67191 0.01865 0.00736 0.0
O76 O 0.66814 0.0142 0.02767 0.0
O77 O 0.6271 0.99159 0.97252 0.0
C78 C 0.68927 0.68567 0.34663 0.0
O79 O 0.67707 0.67264 0.34059 0.0
O80 O 0.65139 0.67659 0.338 0.0
Zn81 Zn 0.6695 0.69812 0.34355 0.0
O82 O 0.66599 0.70844 0.36973 0.0
C83 C 0.6611 0.70974 0.30737 0.0
O84 O 0.64749 0.69857 0.31281 0.0
O85 O 0.68863 0.69776 0.34873 0.0
C86 C 0.65376 0.70835 0.37232 0.0
O87 O 0.64262 0.70052 0.3583 0.0
C88 C 0.64249 0.66801 0.35289 0.0
O89 O 0.64508 0.67299 0.37339 0.0
O90 O 0.67249 0.71142 0.31765 0.0
C91 C 0.35431 0.99049 0.34929 0.0
O92 O 0.35564 0.00332 0.35689 0.0
O93 O 0.32685 1.00122 0.35286 0.0
Zn94 Zn 0.32192 0.97914 0.3498 0.0
O95 O 0.30824 0.96792 0.32379 0.0
C96 C 0.30343 0.9704 0.38951 0.0
O97 O 0.30375 0.98329 0.38667 0.0
O98 O 0.34117 0.97885 0.34541 0.0
C99 C 0.29392 0.96092 0.32579 0.0
O100 O 0.28813 0.96193 0.34455 0.0
C101 C 0.31851 0.00588 0.34569 0.0
O102 O 0.30584 0.99605 0.33551 0.0
O103 O 0.31086 0.96684 0.37651 0.0
C104 C 0.02222 0.3661 0.34099 0.0
O105 O 0.00896 0.35329 0.34242 0.0
O106 O 0.0119 0.32823 0.35439 0.0
Zn107 Zn 0.03347 0.34571 0.34869 0.0
O108 O 0.04221 0.34053 0.32242 0.0
C109 C 0.05104 0.33913 0.37692 0.0
O110 O 0.04575 0.3272 0.36332 0.0
O111 O 0.03415 0.36564 0.34323 0.0
C112 C 0.05642 0.34875 0.31927 0.0
O113 O 0.06462 0.36068 0.33243 0.0
C114 C 0.00631 0.31486 0.34563 0.0
O115 O 0.0148 0.31206 0.33257 0.0
O116 O 0.04689 0.34875 0.37456 0.0
C117 C 0.65073 0.99185 0.34331 0.0
O118 O 0.66227 0.00324 0.35397 0.0
O119 O 0.68938 1.00112 0.34286 0.0
Zn120 Zn 0.67076 0.97972 0.33845 0.0
O121 O 0.67322 0.97025 0.31049 0.0
C122 C 0.66908 0.96742 0.38288 0.0
O123 O 0.67016 0.98004 0.39096 0.0
O124 O 0.65176 0.98066 0.33584 0.0
C125 C 0.68271 0.96593 0.31022 0.0
O126 O 0.691 0.96844 0.32772 0.0
C127 C 0.70096 0.00342 0.35328 0.0
O128 O 0.70076 0.99166 0.36196 0.0
O129 O 0.66884 0.96537 0.36222 0.0
C130 C 0.98883 0.68971 0.32844 0.0
O131 O 0.99014 0.68296 0.31064 0.0
O132 O 0.01566 0.67652 0.33057 0.0
Zn133 Zn 0.01991 0.69819 0.33527 0.0
O134 O 0.03404 0.70882 0.361 0.0
C135 C 0.04399 0.71428 0.30541 0.0
O136 O 0.04963 0.70832 0.31815 0.0
O137 O 1.00017 0.69713 0.34117 0.0
C138 C 0.04107 0.72346 0.36216 0.0
O139 O 0.03822 0.73079 0.34747 0.0
C140 C 0.02361 0.67181 0.33905 0.0
O141 O 0.03525 0.68133 0.35143 0.0
O142 O 0.0305 0.71102 0.30877 0.0
C143 C 0.31655 0.30488 0.3258 0.0
O144 O 0.32604 0.31437 0.31119 0.0
O145 O 0.32905 0.34588 0.32723 0.0
Zn146 Zn 0.30767 0.32782 0.33169 0.0
O147 O 0.29816 0.33099 0.35875 0.0
C148 C 0.29794 0.33714 0.29412 0.0
O149 O 0.3112 0.34983 0.29706 0.0
O150 O 0.30775 0.30821 0.33576 0.0
C151 C 0.29366 0.34043 0.35915 0.0
O152 O 0.29643 0.34924 0.34225 0.0
C153 C 0.33916 0.35178 0.3421 0.0
O154 O 0.33584 0.34602 0.36181 0.0
O155 O 0.29421 0.32575 0.3063 0.0
C156 C 0.35495 0.01791 0.68121 0.0
O157 O 0.34332 0.0048 0.67402 0.0
O158 O 0.31676 0.00718 0.67076 0.0
Zn159 Zn 0.33414 0.02899 0.67717 0.0
O160 O 0.32897 0.03803 0.7032 0.0
C161 C 0.32759 0.03905 0.63679 0.0
O162 O 0.3154 0.02516 0.63659 0.0
O163 O 0.35362 0.02958 0.68361 0.0
C164 C 0.3195 0.04221 0.70072 0.0
O165 O 0.31274 0.03972 0.68167 0.0
C166 C 0.30856 0.9982 0.68585 0.0
O167 O 0.31153 0.0031 0.70637 0.0
O168 O 0.33738 0.04286 0.65185 0.0
C169 C 0.01849 0.31774 0.69217 0.0
O170 O 0.01797 0.32394 0.71107 0.0
O171 O 0.99098 0.33205 0.68997 0.0
Zn172 Zn 0.98728 0.31048 0.68617 0.0
O173 O 0.9734 0.29941 0.6605 0.0
C174 C 0.96275 0.29282 0.71473 0.0
O175 O 0.95639 0.29716 0.70051 0.0
O176 O 0.00693 0.3115 0.67974 0.0
C177 C 0.96831 0.28511 0.65776 0.0
O178 O 0.9727 0.27835 0.6712 0.0
C179 C 0.98239 0.33584 0.68111 0.0
O180 O 0.97077 0.3255 0.66938 0.0
O181 O 0.97677 0.29769 0.71277 0.0
C182 C 0.68713 0.69904 0.67537 0.0
O183 O 0.67416 0.68596 0.67722 0.0
O184 O 0.67915 0.66166 0.69068 0.0
Zn185 Zn 0.69995 0.67991 0.68329 0.0
O186 O 0.70851 0.67475 0.65676 0.0
C187 C 0.71826 0.67429 0.71103 0.0
O188 O 0.71245 0.66199 0.69807 0.0
O189 O 0.69939 0.69918 0.6775 0.0
C190 C 0.7227 0.68299 0.65352 0.0
O191 O 0.73095 0.69486 0.66673 0.0
C192 C 0.67066 0.65137 0.67656 0.0
O193 O 0.67529 0.65266 0.65615 0.0
O194 O 0.71422 0.68398 0.70847 0.0
C195 C 0.31674 0.32747 0.67635 0.0
O196 O 0.32815 0.33887 0.6872 0.0
O197 O 0.35477 0.33667 0.67957 0.0
Zn198 Zn 0.33658 0.31521 0.67428 0.0
O199 O 0.34005 0.30516 0.64776 0.0
C200 C 0.34422 0.30539 0.71372 0.0
O201 O 0.35673 0.31896 0.71242 0.0
O202 O 0.31774 0.31613 0.66954 0.0
C203 C 0.34974 0.30116 0.64909 0.0
O204 O 0.35776 0.30453 0.66713 0.0
C205 C 0.36339 0.34525 0.66446 0.0
O206 O 0.36052 0.34019 0.64401 0.0
O207 O 0.33372 0.30158 0.69983 0.0
C208 C 0.65856 0.02824 0.68816 0.0
O209 O 0.66618 0.02765 0.70474 0.0
O210 O 0.68223 0.01209 0.66128 0.0
Zn211 Zn 0.685 0.03326 0.66525 0.0
O212 O 0.698 0.04453 0.69189 0.0
C213 C 0.70033 0.04324 0.62253 0.0
O214 O 0.69721 0.02903 0.61994 0.0
O215 O 0.66437 0.03061 0.66912 0.0
C216 C 0.71228 0.05325 0.68983 0.0
O217 O 0.71843 0.05426 0.67052 0.0
C218 C 0.69277 0.00943 0.66412 0.0
O219 O 0.70633 0.02089 0.66962 0.0
O220 O 0.69566 0.04693 0.63956 0.0
C221 C 0.97965 0.64097 0.68377 0.0
O222 O 0.98434 0.65124 0.69993 0.0
O223 O 0.99421 0.68149 0.66334 0.0
Zn224 Zn 0.97308 0.66249 0.6664 0.0
O225 O 0.96328 0.66377 0.69459 0.0
C226 C 0.96168 0.66405 0.62237 0.0
O227 O 0.97507 0.66813 0.61441 0.0
O228 O 0.97424 0.64322 0.66668 0.0
C229 C 0.95723 0.67186 0.69506 0.0
O230 O 0.95851 0.67993 0.67786 0.0
C231 C 0.99654 0.69415 0.65612 0.0
O232 O 0.98491 0.69509 0.65032 0.0
O233 O 0.959 0.66101 0.64256 0.0
H234 H 0.21729 0.34902 0.12111 0.0
H235 H 0.17696 0.3385 0.08746 0.0
H236 H 0.17955 0.34278 0.15857 0.0
H237 H 0.15539 0.32878 0.15756 0.0
H238 H 0.11879 0.3292 0.1272 0.0
H239 H 0.15958 0.34453 0.09096 0.0
C240 C 0.20589 0.34692 0.12171 0.0
C241 C 0.19903 0.34572 0.14198 0.0
C242 C 0.19807 0.34464 0.10214 0.0
C243 C 0.18297 0.34091 0.10281 0.0
C244 C 0.17586 0.34029 0.1231 0.0
C245 C 0.18423 0.34282 0.14264 0.0
C246 C 0.15984 0.33695 0.12399 0.0
C247 C 0.15107 0.33131 0.14332 0.0
C248 C 0.13643 0.32879 0.14469 0.0
C249 C 0.13002 0.33091 0.12617 0.0
C250 C 0.13821 0.33625 0.10672 0.0
C251 C 0.15322 0.33967 0.10582 0.0
H252 H 0.66253 0.8768 0.11411 0.0
H253 H 0.6598 0.83766 0.08176 0.0
H254 H 0.67601 0.85014 0.14881 0.0
H255 H 0.66671 0.82573 0.15229 0.0
H256 H 0.67646 0.79394 0.12142 0.0
H257 H 0.6721 0.82539 0.08161 0.0
C258 C 0.6638 0.86691 0.11465 0.0
C259 C 0.66897 0.86403 0.13387 0.0
C260 C 0.66079 0.85764 0.09582 0.0
C261 C 0.66268 0.84496 0.0963 0.0
C262 C 0.66789 0.8417 0.11559 0.0
C263 C 0.67142 0.85176 0.13405 0.0
C264 C 0.6697 0.82799 0.1168 0.0
C265 C 0.66931 0.82163 0.13737 0.0
C266 C 0.67235 0.80983 0.13903 0.0
C267 C 0.67482 0.80356 0.12006 0.0
C268 C 0.67424 0.80879 0.09936 0.0
C269 C 0.67193 0.82115 0.09773 0.0
H270 H 0.22186 0.88467 0.12848 0.0
H271 H 0.18456 0.85149 0.08897 0.0
H272 H 0.18588 0.84447 0.15853 0.0
H273 H 0.16114 0.83171 0.15567 0.0
H274 H 0.13044 0.79078 0.11902 0.0
H275 H 0.17055 0.82576 0.08781 0.0
C276 C 0.2111 0.87382 0.12719 0.0
C277 C 0.20443 0.86523 0.14591 0.0
C278 C 0.2041 0.86874 0.10674 0.0
C279 C 0.18996 0.85497 0.10489 0.0
C280 C 0.18291 0.84596 0.12359 0.0
C281 C 0.19049 0.85127 0.14402 0.0
C282 C 0.16798 0.83093 0.12195 0.0
C283 C 0.15832 0.82509 0.14045 0.0
C284 C 0.14509 0.8104 0.1397 0.0
C285 C 0.14089 0.80194 0.11995 0.0
C286 C 0.14987 0.80761 0.10127 0.0
C287 C 0.16346 0.82196 0.10224 0.0
H288 H 0.32743 0.12432 0.89129 0.0
H289 H 0.34506 0.16777 0.92503 0.0
H290 H 0.32416 0.15983 0.86111 0.0
H291 H 0.34123 0.1846 0.85754 0.0
H292 H 0.34846 0.22486 0.89239 0.0
H293 H 0.33699 0.18469 0.92838 0.0
C294 C 0.329 0.1357 0.89209 0.0
C295 C 0.32512 0.14106 0.87399 0.0
C296 C 0.33581 0.14509 0.91071 0.0
C297 C 0.33915 0.16037 0.911 0.0
C298 C 0.33505 0.16603 0.89311 0.0
C299 C 0.32777 0.15605 0.87485 0.0
C300 C 0.33874 0.18239 0.89303 0.0
C301 C 0.34149 0.19018 0.87301 0.0
C302 C 0.34488 0.20542 0.87271 0.0
C303 C 0.34606 0.21315 0.89252 0.0
C304 C 0.34342 0.2058 0.91252 0.0
C305 C 0.3395 0.19037 0.91281 0.0
H306 H 0.78489 0.12333 0.89199 0.0
H307 H 0.82343 0.15548 0.93064 0.0
H308 H 0.82127 0.16317 0.86166 0.0
H309 H 0.84631 0.17246 0.86414 0.0
H310 H 0.87995 0.21304 0.8987 0.0
H311 H 0.83805 0.18222 0.93068 0.0
C312 C 0.79585 0.13395 0.89317 0.0
C313 C 0.80228 0.1427 0.87448 0.0
C314 C 0.8033 0.13857 0.9134 0.0
C315 C 0.81762 0.1522 0.915 0.0
C316 C 0.82454 0.16114 0.89624 0.0
C317 C 0.81656 0.15629 0.87611 0.0
C318 C 0.84008 0.17536 0.89733 0.0
C319 C 0.84977 0.17966 0.87888 0.0
C320 C 0.86413 0.19319 0.87932 0.0
C321 C 0.86896 0.20242 0.89838 0.0
C322 C 0.85967 0.19847 0.91685 0.0
C323 C 0.84527 0.18493 0.91644 0.0
H324 H 0.79694 0.67637 0.89471 0.0
H325 H 0.82249 0.6601 0.9261 0.0
H326 H 0.83483 0.67937 0.8613 0.0
H327 H 0.84247 0.6628 0.85771 0.0
H328 H 0.87765 0.66086 0.89047 0.0
H329 H 0.84793 0.66981 0.92823 0.0
C330 C 0.80658 0.67491 0.8947 0.0
C331 C 0.81554 0.67843 0.87593 0.0
C332 C 0.80914 0.6685 0.91289 0.0
C333 C 0.82097 0.66559 0.91227 0.0
C334 C 0.83058 0.66955 0.89378 0.0
C335 C 0.82768 0.67605 0.87568 0.0
C336 C 0.84341 0.66672 0.89307 0.0
C337 C 0.84829 0.66373 0.8728 0.0
C338 C 0.86066 0.66169 0.87173 0.0
C339 C 0.86794 0.66219 0.89112 0.0
C340 C 0.86324 0.66487 0.91139 0.0
C341 C 0.85108 0.66725 0.91244 0.0
H342 H 0.8752 0.66621 0.44994 0.0
H343 H 0.83969 0.66769 0.41791 0.0
H344 H 0.84241 0.6692 0.48909 0.0
H345 H 0.81861 0.65989 0.48879 0.0
H346 H 0.78567 0.66674 0.45901 0.0
H347 H 0.82497 0.67663 0.42235 0.0
C348 C 0.86501 0.66669 0.45108 0.0
C349 C 0.85908 0.66694 0.47163 0.0
C350 C 0.85826 0.66741 0.43193 0.0
C351 C 0.845 0.6679 0.43314 0.0
C352 C 0.83868 0.66829 0.45375 0.0
C353 C 0.84631 0.66832 0.47295 0.0
C354 C 0.82406 0.66819 0.45526 0.0
C355 C 0.81524 0.66356 0.4747 0.0
C356 C 0.80157 0.66326 0.47621 0.0
C357 C 0.79621 0.66691 0.45794 0.0
C358 C 0.80452 0.67144 0.43855 0.0
C359 C 0.81855 0.67246 0.43731 0.0
H360 H 0.33668 0.21567 0.45668 0.0
H361 H 0.32802 0.17464 0.42231 0.0
H362 H 0.34702 0.18509 0.48778 0.0
H363 H 0.33197 0.15932 0.49036 0.0
H364 H 0.33523 0.12378 0.45677 0.0
H365 H 0.34084 0.16182 0.42047 0.0
C366 C 0.33711 0.20527 0.45622 0.0
C367 C 0.34236 0.20143 0.4745 0.0
C368 C 0.3322 0.19582 0.43733 0.0
C369 C 0.3323 0.18209 0.43677 0.0
C370 C 0.33728 0.17776 0.45517 0.0
C371 C 0.34257 0.18777 0.47379 0.0
C372 C 0.33663 0.16271 0.45539 0.0
C373 C 0.33398 0.15483 0.47529 0.0
C374 C 0.33345 0.14081 0.47584 0.0
C375 C 0.33548 0.13455 0.45643 0.0
C376 C 0.338 0.142 0.43655 0.0
C377 C 0.33858 0.15605 0.43594 0.0
H378 H 0.885 0.22253 0.46028 0.0
H379 H 0.85056 0.18575 0.42062 0.0
H380 H 0.85116 0.18152 0.49107 0.0
H381 H 0.82653 0.16703 0.48735 0.0
H382 H 0.79942 0.12376 0.45375 0.0
H383 H 0.83782 0.16013 0.42097 0.0
C384 C 0.87466 0.2113 0.45901 0.0
C385 C 0.86829 0.20294 0.478 0.0
C386 C 0.86854 0.20502 0.43832 0.0
C387 C 0.85538 0.19025 0.43669 0.0
C388 C 0.84854 0.18158 0.45572 0.0
C389 C 0.85551 0.18802 0.47625 0.0
C390 C 0.83444 0.16578 0.45448 0.0
C391 C 0.82464 0.15993 0.47282 0.0
C392 C 0.81237 0.14467 0.4728 0.0
C393 C 0.8092 0.13543 0.45397 0.0
C394 C 0.81806 0.14113 0.43517 0.0
C395 C 0.83077 0.1562 0.43543 0.0
H396 H 0.009 0.46429 0.22532 0.0
H397 H 0.01645 0.50433 0.26111 0.0
H398 H 1.00241 0.49702 0.19292 0.0
H399 H 0.01511 0.52235 0.19284 0.0
H400 H 0.00992 0.55608 0.22824 0.0
H401 H 0.00481 0.5176 0.26243 0.0
C402 C 0.00913 0.47501 0.22573 0.0
C403 C 0.00592 0.48007 0.20668 0.0
C404 C 0.01259 0.48355 0.24534 0.0
C405 C 0.01311 0.49759 0.24596 0.0
C406 C 0.00944 0.50281 0.22709 0.0
C407 C 0.00555 0.49364 0.2076 0.0
C408 C 0.00979 0.51775 0.22754 0.0
C409 C 0.01261 0.52619 0.20811 0.0
C410 C 0.01262 0.53997 0.20826 0.0
C411 C 0.01008 0.54552 0.22797 0.0
C412 C 0.00753 0.53763 0.24741 0.0
C413 C 0.00727 0.52374 0.24726 0.0
H414 H 0.44907 0.46275 0.2305 0.0
H415 H 0.48974 0.49014 0.26784 0.0
H416 H 0.4888 0.49775 0.19847 0.0
H417 H 0.51281 0.50463 0.20048 0.0
H418 H 0.54994 0.54254 0.23471 0.0
H419 H 0.50758 0.51584 0.26773 0.0
C420 C 0.46077 0.47222 0.23132 0.0
C421 C 0.4682 0.47967 0.21214 0.0
C422 C 0.46839 0.47612 0.25141 0.0
C423 C 0.48384 0.48765 0.25235 0.0
C424 C 0.49154 0.49577 0.23331 0.0
C425 C 0.48343 0.49164 0.2133 0.0
C426 C 0.50795 0.5084 0.23408 0.0
C427 C 0.51722 0.51164 0.2153 0.0
C428 C 0.53232 0.52399 0.21535 0.0
C429 C 0.53844 0.53268 0.2347 0.0
C430 C 0.52971 0.52958 0.25371 0.0
C431 C 0.5144 0.51767 0.25325 0.0
H432 H 0.47057 0.01477 0.22844 0.0
H433 H 0.49479 0.99647 0.25815 0.0
H434 H 0.50632 0.01488 0.19271 0.0
H435 H 0.51375 0.99858 0.18843 0.0
H436 H 0.54633 0.99179 0.21979 0.0
H437 H 0.51922 0.00351 0.25912 0.0
C438 C 0.47974 0.01259 0.22776 0.0
C439 C 0.48803 0.01528 0.20843 0.0
C440 C 0.48232 0.00606 0.24575 0.0
C441 C 0.49344 0.00216 0.24443 0.0
C442 C 0.50253 0.0054 0.22543 0.0
C443 C 0.49963 0.01207 0.20752 0.0
C444 C 0.51465 1.0015 0.22401 0.0
C445 C 0.51917 0.99851 0.20341 0.0
C446 C 0.53068 0.9952 0.20179 0.0
C447 C 0.53725 0.99409 0.22094 0.0
C448 C 0.53295 0.99676 0.24158 0.0
C449 C 0.52195 1.00084 0.24309 0.0
H450 H 0.548 0.01907 0.8003 0.0
H451 H 0.5089 0.00872 0.76327 0.0
H452 H 0.50793 0.00943 0.83448 0.0
H453 H 0.48375 0.99393 0.83008 0.0
H454 H 0.44829 0.99542 0.79758 0.0
H455 H 0.49149 0.01507 0.76663 0.0
C456 C 0.53646 0.01655 0.7999 0.0
C457 C 0.52856 0.01415 0.81952 0.0
C458 C 0.52951 0.01489 0.77969 0.0
C459 C 0.51426 0.01061 0.77909 0.0
C460 C 0.50609 0.00874 0.79877 0.0
C461 C 0.51354 0.01056 0.81899 0.0
C462 C 0.48992 0.00482 0.79824 0.0
C463 C 0.48005 0.99737 0.81605 0.0
C464 C 0.46514 0.99419 0.81607 0.0
C465 C 0.45972 0.99762 0.79761 0.0
C466 C 0.4691 0.00485 0.7797 0.0
C467 C 0.48425 0.0088 0.78022 0.0
H468 H 0.99939 0.54563 0.7829 0.0
H469 H 0.99119 0.50411 0.75059 0.0
H470 H 0.01299 0.51789 0.81439 0.0
H471 H 1.00134 0.49277 0.81874 0.0
H472 H 0.00764 0.45917 0.78545 0.0
H473 H 0.00414 0.49199 0.74773 0.0
C474 C 1.00025 0.53548 0.78277 0.0
C475 C 0.00658 0.53271 0.80076 0.0
C476 C 0.99486 0.52533 0.76464 0.0
C477 C 0.99574 0.51203 0.76453 0.0
C478 C 1.00203 0.50885 0.78266 0.0
C479 C 0.00758 0.51953 0.80059 0.0
C480 C 1.00295 0.49462 0.78316 0.0
C481 C 1.00295 0.48818 0.80347 0.0
C482 C 0.00518 0.47578 0.80434 0.0
C483 C 0.00657 0.46918 0.78482 0.0
C484 C 0.00586 0.47474 0.76447 0.0
C485 C 0.00416 0.48752 0.7636 0.0
H486 H 0.55173 0.55296 0.7973 0.0
H487 H 0.5214 0.51317 0.7582 0.0
H488 H 0.50842 0.51992 0.82336 0.0
H489 H 0.4968 0.49456 0.82399 0.0
H490 H 0.46013 0.45944 0.78567 0.0
H491 H 0.49596 0.49879 0.75352 0.0
C492 C 0.54082 0.54235 0.79538 0.0
C493 C 0.53048 0.53728 0.8127 0.0
C494 C 0.53748 0.53388 0.77567 0.0
C495 C 0.52358 0.51985 0.77327 0.0
C496 C 0.51294 0.5143 0.79064 0.0
C497 C 0.5165 0.52343 0.8101 0.0
C498 C 0.49837 0.49894 0.78898 0.0
C499 C 0.49144 0.49045 0.80811 0.0
C500 C 0.47766 0.47629 0.80697 0.0
C501 C 0.47081 0.47038 0.7866 0.0
C502 C 0.47741 0.47837 0.76738 0.0
C503 C 0.49118 0.49261 0.76851 0.0
H504 H 0.66076 0.79163 0.56284 0.0
H505 H 0.68001 0.83601 0.59451 0.0
H506 H 0.66015 0.82768 0.52968 0.0
H507 H 0.67701 0.85226 0.52593 0.0
H508 H 0.68338 0.89273 0.55907 0.0
H509 H 0.6724 0.85335 0.59662 0.0
C510 C 0.66305 0.80331 0.56286 0.0
C511 C 0.65993 0.80872 0.54411 0.0
C512 C 0.67007 0.813 0.58112 0.0
C513 C 0.67404 0.82847 0.58062 0.0
C514 C 0.67045 0.83411 0.56216 0.0
C515 C 0.66326 0.82394 0.54403 0.0
C516 C 0.67438 0.85054 0.56144 0.0
C517 C 0.67715 0.85803 0.54115 0.0
C518 C 0.68024 0.87315 0.54017 0.0
C519 C 0.68128 0.88114 0.55967 0.0
C520 C 0.6787 0.87414 0.57993 0.0
C521 C 0.67499 0.85879 0.58086 0.0
H522 H 0.12045 0.7922 0.55468 0.0
H523 H 0.15351 0.82985 0.5944 0.0
H524 H 0.16385 0.82312 0.52732 0.0
H525 H 0.17954 0.84757 0.52796 0.0
H526 H 0.21759 0.87919 0.56713 0.0
H527 H 0.17806 0.84359 0.5988 0.0
C528 C 0.13179 0.80224 0.55649 0.0
C529 C 0.14166 0.80707 0.53867 0.0
C530 C 0.13616 0.81027 0.57658 0.0
C531 C 0.15065 0.82358 0.57889 0.0
C532 C 0.16099 0.8288 0.56109 0.0
C533 C 0.15626 0.8201 0.54112 0.0
C534 C 0.17658 0.84314 0.56306 0.0
C535 C 0.18466 0.85104 0.54404 0.0
C536 C 0.19962 0.86358 0.54544 0.0
C537 C 0.2063 0.86901 0.56601 0.0
C538 C 0.19842 0.8621 0.58519 0.0
C539 C 0.18368 0.84906 0.58374 0.0
H540 H 0.13484 0.34782 0.562 0.0
H541 H 0.16087 0.33169 0.59183 0.0
H542 H 0.1699 0.34755 0.5249 0.0
H543 H 0.17833 0.33229 0.52097 0.0
H544 H 0.2121 0.32703 0.55149 0.0
H545 H 0.18487 0.33818 0.5915 0.0
C546 C 0.14414 0.34585 0.56102 0.0
C547 C 0.15179 0.34791 0.5412 0.0
C548 C 0.14762 0.34031 0.5793 0.0
C549 C 0.15891 0.33667 0.57779 0.0
C550 C 0.16737 0.3393 0.55824 0.0
C551 C 0.16366 0.3451 0.54008 0.0
C552 C 0.17973 0.33571 0.55652 0.0
C553 C 0.18407 0.33262 0.53582 0.0
C554 C 0.19585 0.32972 0.5339 0.0
C555 C 0.20283 0.32903 0.55287 0.0
C556 C 0.19865 0.33168 0.57361 0.0
C557 C 0.18744 0.33545 0.5754 0.0
H558 H 0.96967 0.38392 0.04019 0.0
H559 H 0.97042 0.40263 0.067 0.0
H560 H 0.01202 0.40983 0.09355 0.0
H561 H 0.01144 0.39125 0.06682 0.0
H562 H 0.97189 0.4033 0.11407 0.0
H563 H 0.02219 0.45348 0.07738 0.0
H564 H 0.01105 0.43522 0.06292 0.0
H565 H 0.02476 0.43781 0.08303 0.0
C566 C 0.97893 0.38941 0.05181 0.0
C567 C 0.99056 0.38617 0.05125 0.0
C568 C 0.97934 0.4001 0.06709 0.0
C569 C 0.99142 0.40781 0.08193 0.0
C570 C 1.00275 0.40422 0.08192 0.0
H571 H 0.02347 0.46981 0.19001 0.0
H572 H 0.0186 0.45306 0.15791 0.0
C573 C 1.00235 0.39352 0.06672 0.0
C574 C 0.9923 0.41966 0.09745 0.0
H575 H 0.01517 0.45739 0.11327 0.0
C576 C 0.98121 0.41519 0.11376 0.0
C577 C 0.00441 0.43517 0.09682 0.0
C578 C 0.01621 0.44078 0.07898 0.0
C579 C 0.98241 0.42565 0.13028 0.0
C580 C 0.99489 0.441 0.13018 0.0
C581 C 0.00561 0.44561 0.1133 0.0
C582 C 0.99797 0.45195 0.14871 0.0
C583 C 0.97076 0.42001 0.14834 0.0
C584 C 0.98816 0.45719 0.15389 0.0
C585 C 0.99093 0.4668 0.17236 0.0
C586 C 0.0035 0.47121 0.18587 0.0
C587 C 0.01356 0.46639 0.18008 0.0
C588 C 0.01084 0.45689 0.1617 0.0
H589 H 0.96319 0.40727 0.14788 0.0
H590 H 0.97638 0.42368 0.16463 0.0
H591 H 0.96368 0.42512 0.14659 0.0
H592 H 0.97829 0.45368 0.14384 0.0
H593 H 0.98301 0.47036 0.17646 0.0
H594 H 0.61862 0.59801 0.05009 0.0
H595 H 0.59998 0.57731 0.07306 0.0
H596 H 0.61096 0.60985 0.12679 0.0
H597 H 0.62936 0.63072 0.10375 0.0
H598 H 0.60192 0.56565 0.11129 0.0
H599 H 0.56564 0.59021 0.12219 0.0
H600 H 0.58082 0.59746 0.10248 0.0
H601 H 0.58476 0.60341 0.1309 0.0
C602 C 0.61712 0.60078 0.06683 0.0
C603 C 0.62539 0.61607 0.07503 0.0
C604 C 0.60644 0.58891 0.07993 0.0
C605 C 0.60382 0.59207 0.10149 0.0
C606 C 0.61249 0.60721 0.11 0.0
H607 H 0.56219 0.53342 0.21029 0.0
H608 H 0.57859 0.54773 0.17986 0.0
C609 C 0.62309 0.61912 0.09686 0.0
C610 C 0.59198 0.57956 0.11504 0.0
H611 H 0.56073 0.56988 0.14596 0.0
C612 C 0.59282 0.56649 0.11872 0.0
C613 C 0.57987 0.58045 0.12427 0.0
C614 C 0.57759 0.59356 0.11958 0.0
C615 C 0.58227 0.55463 0.13216 0.0
C616 C 0.57077 0.55603 0.14257 0.0
C617 C 0.56959 0.56881 0.13814 0.0
C618 C 0.56048 0.54508 0.1593 0.0
C619 C 0.58355 0.5407 0.13496 0.0
C620 C 0.54475 0.53863 0.15791 0.0
C621 C 0.53535 0.53066 0.17554 0.0
C622 C 0.54152 0.52906 0.19494 0.0
C623 C 0.55711 0.53459 0.19566 0.0
C624 C 0.5665 0.54264 0.17813 0.0
H625 H 0.58887 0.53869 0.12038 0.0
H626 H 0.59086 0.54269 0.14933 0.0
H627 H 0.57231 0.53016 0.13768 0.0
H628 H 0.53984 0.54039 0.14357 0.0
H629 H 0.52342 0.52667 0.17452 0.0
H630 H 0.3997 0.99236 0.05531 0.0
H631 H 0.41971 0.99743 0.08106 0.0
H632 H 0.42291 0.03965 0.10257 0.0
H633 H 0.40279 0.03468 0.07675 0.0
H634 H 0.45043 0.0247 0.08408 0.0
H635 H 0.416 0.01475 0.15953 0.0
H636 H 0.4075 0.00796 0.13276 0.0
H637 H 0.41647 0.02801 0.14021 0.0
C638 C 0.4046 0.00273 0.06553 0.0
C639 C 0.39957 0.01308 0.06404 0.0
C640 C 0.41609 0.00563 0.08017 0.0
C641 C 0.42272 0.01886 0.09378 0.0
C642 C 0.41782 0.02929 0.09233 0.0
H643 H 0.48263 0.03866 0.2051 0.0
H644 H 0.46913 0.04223 0.17548 0.0
C645 C 0.40635 0.02644 0.07756 0.0
C646 C 0.4346 0.0215 0.10964 0.0
H647 H 0.44099 0.02092 0.1642 0.0
C648 C 0.44845 0.02401 0.10163 0.0
C649 C 0.43199 0.02063 0.13248 0.0
C650 C 0.41717 0.0176 0.14189 0.0
C651 C 0.45973 0.02554 0.11589 0.0
C652 C 0.45691 0.02416 0.13872 0.0
C653 C 0.44319 0.02203 0.14671 0.0
C654 C 0.46752 0.02391 0.15465 0.0
C655 C 0.47454 0.0287 0.10633 0.0
C656 C 0.47156 0.01276 0.15253 0.0
C657 C 0.47944 0.01084 0.16934 0.0
C658 C 0.48318 0.01985 0.18873 0.0
C659 C 0.47986 0.03155 0.19032 0.0
C660 C 0.47212 0.03356 0.17344 0.0
H661 H 0.47691 0.03461 0.09043 0.0
H662 H 0.48412 0.03591 0.11769 0.0
H663 H 0.47391 0.01761 0.10322 0.0
H664 H 0.46784 0.00491 0.13848 0.0
H665 H 0.48161 1.00156 0.16783 0.0
H666 H 0.39469 0.018 0.96021 0.0
H667 H 0.40907 0.01378 0.93185 0.0
H668 H 0.38381 0.96513 0.94437 0.0
H669 H 0.36935 0.96921 0.97286 0.0
H670 H 0.41643 0.97934 0.94245 0.0
H671 H 0.39308 0.99254 0.87078 0.0
H672 H 0.39986 0.00686 0.89253 0.0
H673 H 0.38386 0.98789 0.89718 0.0
C674 C 0.3921 0.00637 0.95685 0.0
C675 C 0.38083 0.99393 0.96876 0.0
C676 C 0.40031 0.00399 0.9406 0.0
C677 C 0.39741 0.98913 0.93593 0.0
C678 C 0.38618 0.97667 0.94772 0.0
H679 H 0.43526 0.97149 0.81898 0.0
H680 H 0.41822 0.96745 0.84964 0.0
C681 C 0.37789 0.97903 0.96392 0.0
C682 C 0.40635 0.98672 0.91896 0.0
H683 H 0.41502 0.99119 0.86454 0.0
C684 C 0.41604 0.98177 0.92536 0.0
C685 C 0.40566 0.98973 0.89668 0.0
C686 C 0.39496 0.99442 0.88877 0.0
C687 C 0.4255 0.9803 0.91011 0.0
C688 C 0.4253 0.98398 0.888 0.0
C689 C 0.4152 0.98841 0.88152 0.0
C690 C 0.4359 0.98413 0.87135 0.0
C691 C 0.43563 0.97485 0.91779 0.0
C692 C 0.45157 0.99444 0.87367 0.0
C693 C 0.46133 0.99675 0.85618 0.0
C694 C 0.45555 0.98889 0.83602 0.0
C695 C 0.44 0.97779 0.83428 0.0
C696 C 0.43027 0.97547 0.85176 0.0
H697 H 0.43134 0.96829 0.93315 0.0
H698 H 0.43667 0.96746 0.90507 0.0
H699 H 0.44709 0.98499 0.92117 0.0
H700 H 0.45614 1.00146 0.88847 0.0
H701 H 0.47322 0.00552 0.8579 0.0
H702 H 0.02065 0.40256 0.96062 0.0
H703 H 0.0224 0.42157 0.93513 0.0
H704 H 0.976 0.39036 0.91564 0.0
H705 H 0.97416 0.37125 0.94088 0.0
H706 H 0.99583 0.40346 0.88054 0.0
H707 H 0.00329 0.44815 0.94193 0.0
H708 H 0.01637 0.44176 0.94458 0.0
H709 H 0.99653 0.42851 0.94913 0.0
C710 C 0.01082 0.39972 0.95089 0.0
C711 C 0.99725 0.38538 0.95281 0.0
C712 C 0.0118 0.41066 0.93648 0.0
C713 C 0.99925 0.40748 0.9238 0.0
C714 C 0.98579 0.39309 0.92543 0.0
H715 H 0.9849 0.4661 0.83833 0.0
H716 H 0.98368 0.45052 0.86932 0.0
C717 C 0.98477 0.38217 0.93984 0.0
C718 C 1.00027 0.41886 0.90815 0.0
H719 H 0.00665 0.45521 0.90445 0.0
C720 C 0.99814 0.41475 0.88579 0.0
C721 C 0.00312 0.43351 0.91508 0.0
C722 C 0.00483 0.43825 0.939 0.0
C723 C 0.9991 0.42501 0.87009 0.0
C724 C 1.00242 0.43983 0.87692 0.0
C725 C 0.00423 0.44387 0.89931 0.0
C726 C 0.00434 0.45126 0.86072 0.0
C727 C 0.99653 0.41992 0.84626 0.0
C728 C 0.01667 0.45732 0.84633 0.0
C729 C 0.01739 0.46617 0.82879 0.0
C730 C 0.0058 0.46915 0.82535 0.0
C731 C 0.994 0.46401 0.84069 0.0
C732 C 0.99327 0.45509 0.85829 0.0
H733 H 0.99098 0.40723 0.84421 0.0
H734 H 0.98942 0.42358 0.83819 0.0
H735 H 0.00759 0.42539 0.83768 0.0
H736 H 0.02541 0.45463 0.84811 0.0
H737 H 0.0267 0.47014 0.81733 0.0
H738 H 0.59118 0.61323 0.99526 0.0
H739 H 0.57275 0.59726 0.96687 0.0
H740 H 0.6091 0.6062 0.92268 0.0
H741 H 0.62763 0.62194 0.95112 0.0
H742 H 0.56779 0.60342 0.92539 0.0
H743 H 0.58374 0.55939 0.92247 0.0
H744 H 0.59009 0.57397 0.94398 0.0
H745 H 0.59951 0.57846 0.91784 0.0
C746 C 0.59528 0.61185 0.97948 0.0
C747 C 0.61088 0.61873 0.97552 0.0
C748 C 0.58471 0.60272 0.96328 0.0
C749 C 0.58954 0.60029 0.94284 0.0
C750 C 0.60512 0.60761 0.93854 0.0
H751 H 0.54492 0.56849 0.81915 0.0
H752 H 0.55694 0.58312 0.8528 0.0
C753 C 0.6157 0.61668 0.95477 0.0
C754 C 0.57831 0.59 0.92605 0.0
H755 H 0.56804 0.55833 0.89341 0.0
C756 C 0.56774 0.59348 0.91851 0.0
C757 C 0.57801 0.57681 0.91749 0.0
C758 C 0.58834 0.57182 0.92601 0.0
C759 C 0.55729 0.58448 0.90194 0.0
C760 C 0.55765 0.57187 0.89241 0.0
C761 C 0.56782 0.56805 0.9006 0.0
C762 C 0.54838 0.56307 0.87298 0.0
C763 C 0.54599 0.58858 0.89485 0.0
C764 C 0.53946 0.5469 0.87307 0.0
C765 C 0.53278 0.53848 0.8537 0.0
C766 C 0.53497 0.54609 0.83387 0.0
C767 C 0.54316 0.5623 0.83412 0.0
C768 C 0.54989 0.57069 0.85343 0.0
H769 H 0.54362 0.59459 0.9083 0.0
H770 H 0.55073 0.59651 0.88089 0.0
H771 H 0.53515 0.57819 0.88953 0.0
H772 H 0.5382 0.54078 0.88795 0.0
H773 H 0.52666 0.52602 0.85401 0.0
H774 H 0.99157 0.61198 0.95092 0.0
H775 H 0.99155 0.59398 0.9236 0.0
H776 H 0.04026 0.62162 0.92032 0.0
H777 H 0.04044 0.63959 0.94784 0.0
H778 H 1.0025 0.59918 0.88122 0.0
H779 H 0.03218 0.57852 0.93171 0.0
H780 H 0.02424 0.58926 0.94325 0.0
H781 H 0.04213 0.59908 0.92927 0.0
C782 C 1.00229 0.61427 0.94436 0.0
C783 C 0.01602 0.62719 0.95165 0.0
C784 C 1.00225 0.60394 0.92879 0.0
C785 C 0.01592 0.6063 0.92029 0.0
C786 C 0.02961 0.61939 0.92708 0.0
H787 H 0.02468 0.56398 0.80096 0.0
H788 H 0.02816 0.58191 0.83107 0.0
C789 C 0.02967 0.62971 0.94267 0.0
C790 C 0.01579 0.59525 0.90388 0.0
H791 H 0.02826 0.57057 0.8941 0.0
C792 C 0.00811 0.59291 0.88405 0.0
C793 C 0.02295 0.58694 0.90776 0.0
C794 C 0.03073 0.58843 0.92922 0.0
C795 C 0.00759 0.58265 0.86782 0.0
C796 C 0.01518 0.57473 0.87137 0.0
C797 C 0.02263 0.57683 0.89135 0.0
C798 C 0.01524 0.56408 0.85447 0.0
C799 C 0.99873 0.58021 0.84709 0.0
C800 C 0.00757 0.54818 0.85809 0.0
C801 C 0.00566 0.53791 0.84094 0.0
C802 C 0.01137 0.54344 0.81998 0.0
C803 C 0.02 0.55943 0.81691 0.0
C804 C 0.02196 0.56966 0.83404 0.0
H805 H 0.99068 0.58423 0.84913 0.0
H806 H 0.00669 0.58682 0.83371 0.0
H807 H 0.99228 0.56786 0.84195 0.0
H808 H 1.00238 0.54368 0.87382 0.0
H809 H 0.99891 0.52564 0.84369 0.0
H810 H 0.39188 0.40254 0.97168 0.0
H811 H 0.4122 0.42093 0.94805 0.0
H812 H 0.38796 0.39332 0.89113 0.0
H813 H 0.36748 0.37475 0.91468 0.0
H814 H 0.42973 0.41422 0.9172 0.0
H815 H 0.3985 0.43807 0.87805 0.0
H816 H 0.39241 0.42774 0.90338 0.0
H817 H 0.38905 0.4174 0.87773 0.0
C818 C 0.39078 0.40038 0.95412 0.0
C819 C 0.37799 0.38718 0.94505 0.0
C820 C 0.40245 0.4109 0.94067 0.0
C821 C 0.40152 0.40854 0.91787 0.0
C822 C 0.38879 0.39543 0.9087 0.0
H823 H 0.46687 0.44609 0.81467 0.0
H824 H 0.44982 0.43062 0.84411 0.0
C825 C 0.37712 0.38481 0.92217 0.0
C826 C 0.41405 0.41967 0.90377 0.0
H827 H 0.42268 0.44564 0.86355 0.0
C828 C 0.42824 0.42115 0.90553 0.0
C829 C 0.41209 0.42883 0.88882 0.0
C830 C 0.39724 0.42809 0.88691 0.0
C831 C 0.44042 0.43126 0.89221 0.0
C832 C 0.43831 0.44004 0.87674 0.0
C833 C 0.42425 0.43888 0.87543 0.0
C834 C 0.45022 0.44982 0.86082 0.0
C835 C 0.45545 0.43246 0.89472 0.0
C836 C 0.45628 0.46578 0.86064 0.0
C837 C 0.46612 0.47466 0.84389 0.0
C838 C 0.46981 0.46764 0.82689 0.0
C839 C 0.46421 0.45177 0.82762 0.0
C840 C 0.45452 0.44294 0.84444 0.0
H841 H 0.45633 0.428 0.91068 0.0
H842 H 0.4567 0.42556 0.88143 0.0
H843 H 0.46494 0.44459 0.89336 0.0
H844 H 0.45301 0.47126 0.87309 0.0
H845 H 0.47015 0.48684 0.84355 0.0
H846 H 0.63406 0.02622 0.93498 0.0
H847 H 0.61474 0.0271 0.91378 0.0
H848 H 0.58128 0.98138 0.93431 0.0
H849 H 0.60055 0.98042 0.95581 0.0
H850 H 0.59639 0.00702 0.87957 0.0
H851 H 0.56191 0.00698 0.95014 0.0
H852 H 0.58099 0.01117 0.95334 0.0
H853 H 0.56565 0.99165 0.94908 0.0
C854 C 0.62261 0.01631 0.93497 0.0
C855 C 0.61886 0.00326 0.94716 0.0
C856 C 0.61157 0.01685 0.92286 0.0
C857 C 0.59653 0.00443 0.92279 0.0
C858 C 0.59277 0.99123 0.93451 0.0
H859 H 0.51875 0.99113 0.84892 0.0
H860 H 0.53442 0.98861 0.87636 0.0
C861 C 0.60383 0.99064 0.94662 0.0
C862 C 0.58495 0.00529 0.90998 0.0
H863 H 0.55287 0.00681 0.91465 0.0
C864 C 0.58687 0.00696 0.88724 0.0
C865 C 0.57249 0.00512 0.92004 0.0
C866 C 0.57012 0.00375 0.94451 0.0
C867 C 0.57673 0.00852 0.87425 0.0
C868 C 0.56449 0.00875 0.88434 0.0
C869 C 0.56233 0.00674 0.90703 0.0
C870 C 0.55406 0.01131 0.87134 0.0
C871 C 0.57915 0.00982 0.84976 0.0
C872 C 0.55965 0.02521 0.86044 0.0
C873 C 0.55076 0.02666 0.84487 0.0
C874 C 0.53608 0.01428 0.84009 0.0
C875 C 0.52999 1.00088 0.85247 0.0
C876 C 0.53895 0.9994 0.86801 0.0
H877 H 0.5866 0.00561 0.84411 0.0
H878 H 0.5682 0.00319 0.84085 0.0
H879 H 0.58462 0.02209 0.8453 0.0
H880 H 0.5712 0.03463 0.86307 0.0
H881 H 0.55569 0.03712 0.83557 0.0
H882 H 0.61692 0.98571 0.06026 0.0
H883 H 0.59898 0.98365 0.08836 0.0
H884 H 0.59957 0.02274 0.06194 0.0
H885 H 0.61734 0.02478 0.03356 0.0
H886 H 0.60165 0.00494 0.1202 0.0
H887 H 0.55434 0.98994 0.06307 0.0
H888 H 0.57079 0.98932 0.05483 0.0
H889 H 0.57177 0.00744 0.05696 0.0
C890 C 0.6133 0.99393 0.06046 0.0
C891 C 0.6185 0.00535 0.04456 0.0
C892 C 0.60302 0.99271 0.07651 0.0
C893 C 0.5977 0.00284 0.07694 0.0
C894 C 0.60324 0.01457 0.06156 0.0
H895 H 0.53902 0.01475 0.16752 0.0
H896 H 0.55431 0.01601 0.13571 0.0
C897 C 0.61351 0.01579 0.04548 0.0
C898 C 0.58651 1.0012 0.0937 0.0
H899 H 0.55068 0.99421 0.10044 0.0
C900 C 0.5905 0.00255 0.11588 0.0
C901 C 0.57197 0.99812 0.088 0.0
C902 C 0.56686 0.99598 0.06443 0.0
C903 C 0.5804 1.00103 0.13254 0.0
C904 C 0.56582 0.99782 0.12686 0.0
C905 C 0.56185 0.99662 0.10469 0.0
C906 C 0.55464 0.99569 0.14391 0.0
C907 C 0.58549 0.0031 0.15612 0.0
C908 C 0.54917 0.98342 0.15834 0.0
C909 C 0.54042 0.98264 0.1764 0.0
C910 C 0.53694 0.99409 0.18028 0.0
C911 C 0.54146 0.00572 0.16486 0.0
C912 C 0.55026 0.00651 0.14678 0.0
H913 H 0.598 0.00902 0.15751 0.0
H914 H 0.58166 0.00985 0.16571 0.0
H915 H 0.58045 0.99163 0.16359 0.0
H916 H 0.5522 0.97479 0.15613 0.0
H917 H 0.53692 0.97344 0.18786 0.0
H918 H 0.99343 0.60551 0.04396 0.0
H919 H 0.99462 0.58785 0.06899 0.0
H920 H 0.01829 0.62502 0.11643 0.0
H921 H 0.01682 0.64267 0.09175 0.0
H922 H 0.01911 0.58852 0.08558 0.0
H923 H 0.98514 0.59226 0.15345 0.0
H924 H 0.98576 0.59957 0.12661 0.0
H925 H 1.00074 0.6108 0.14605 0.0
C926 C 0.99875 0.6099 0.05982 0.0
C927 C 0.00494 0.62549 0.06592 0.0
C928 C 0.99946 0.59979 0.07407 0.0
C929 C 0.00635 0.60505 0.09471 0.0
C930 C 0.01258 0.62061 0.10081 0.0
H931 H 0.03122 0.57077 0.20228 0.0
H932 H 0.03022 0.58572 0.17241 0.0
C933 C 0.01179 0.63071 0.08664 0.0
C934 C 0.0074 0.59437 0.10961 0.0
H935 H 0.99947 0.58079 0.16166 0.0
C936 C 0.01468 0.5867 0.10215 0.0
C937 C 1.00152 0.5919 0.13117 0.0
C938 C 0.99271 0.59894 0.13973 0.0
C939 C 0.01667 0.57708 0.11594 0.0
C940 C 0.01125 0.5751 0.13767 0.0
C941 C 0.00372 0.58247 0.14499 0.0
C942 C 0.01363 0.56582 0.15349 0.0
C943 C 0.02489 0.5694 0.10753 0.0
C944 C 0.00497 0.54966 0.15233 0.0
C945 C 0.00548 0.54105 0.16946 0.0
C946 C 0.01459 0.54855 0.18798 0.0
C947 C 0.02399 0.5647 0.1883 0.0
C948 C 0.02344 0.57325 0.17127 0.0
H949 H 0.02971 0.5733 0.09093 0.0
H950 H 0.03417 0.57183 0.11896 0.0
H951 H 0.01692 0.55673 0.10676 0.0
H952 H 0.99724 0.54374 0.13878 0.0
H953 H 0.99803 0.52864 0.16889 0.0
H954 H 0.36926 0.39101 0.0689 0.0
H955 H 0.38473 0.40945 0.09804 0.0
H956 H 0.42513 0.4159 0.0669 0.0
H957 H 0.40984 0.39773 0.03757 0.0
H958 H 0.40454 0.40876 0.12699 0.0
H959 H 0.43498 0.46 0.07478 0.0
H960 H 0.4183 0.44232 0.06553 0.0
H961 H 0.43645 0.44402 0.06532 0.0
C962 C 0.38144 0.39633 0.06828 0.0
C963 C 0.38832 0.39297 0.05084 0.0
C964 C 0.39026 0.40689 0.08491 0.0
C965 C 0.4061 0.4143 0.08435 0.0
C966 C 0.41296 0.41063 0.06732 0.0
H967 H 0.47854 0.47341 0.17431 0.0
H968 H 0.46347 0.45877 0.14208 0.0
C969 C 0.40417 0.40013 0.05067 0.0
C970 C 0.41544 0.42558 0.10189 0.0
H971 H 0.44419 0.46282 0.11125 0.0
C972 C 0.41312 0.4206 0.12358 0.0
C973 C 0.42665 0.44104 0.09737 0.0
C974 C 0.42918 0.44723 0.07452 0.0
C975 C 0.42194 0.43056 0.14082 0.0
C976 C 0.43321 0.44597 0.13628 0.0
C977 C 0.43552 0.45099 0.11463 0.0
C978 C 0.44283 0.45686 0.15392 0.0
C979 C 0.41937 0.42442 0.16373 0.0
C980 C 0.43637 0.46124 0.17067 0.0
C981 C 0.44494 0.46964 0.18899 0.0
C982 C 0.46014 0.47383 0.19085 0.0
C983 C 0.46689 0.47042 0.17328 0.0
C984 C 0.45828 0.46199 0.15493 0.0
H985 H 0.41258 0.41163 0.16373 0.0
H986 H 0.43031 0.42848 0.1721 0.0
H987 H 0.41315 0.42873 0.1734 0.0
H988 H 0.42452 0.45761 0.16996 0.0
H989 H 0.43951 0.47231 0.20214 0.0
H990 H 0.62889 0.70979 0.38345 0.0
H991 H 0.62712 0.72628 0.41165 0.0
H992 H 0.67385 0.74498 0.42906 0.0
H993 H 0.67565 0.72832 0.40124 0.0
H994 H 0.65559 0.73759 0.46484 0.0
H995 H 0.6447 0.77245 0.40821 0.0
H996 H 0.63153 0.75205 0.40565 0.0
H997 H 0.6511 0.75988 0.39876 0.0
C998 C 0.63879 0.71739 0.3933 0.0
C999 C 0.65244 0.71778 0.39003 0.0
C1000 C 0.63779 0.7269 0.4093 0.0
C1001 C 0.65044 0.73708 0.42215 0.0
C1002 C 0.66397 0.73727 0.41922 0.0
H1003 H 0.67199 0.8162 0.50316 0.0
H1004 H 0.66767 0.79831 0.47256 0.0
C1005 C 0.66498 0.72773 0.40332 0.0
C1006 C 0.64959 0.74736 0.43898 0.0
H1007 H 0.64344 0.777 0.44625 0.0
C1008 C 0.65288 0.74617 0.46079 0.0
C1009 C 0.64622 0.75866 0.43359 0.0
C1010 C 0.64332 0.76098 0.41026 0.0
C1011 C 0.653 0.75602 0.47738 0.0
C1012 C 0.64934 0.76713 0.47209 0.0
C1013 C 0.64602 0.76832 0.45029 0.0
C1014 C 0.64992 0.77822 0.48886 0.0
C1015 C 0.65757 0.75478 0.50027 0.0
C1016 C 0.6408 0.77299 0.50764 0.0
C1017 C 0.64329 0.78317 0.52514 0.0
C1018 C 0.65479 0.79879 0.524 0.0
C1019 C 0.66298 0.80425 0.50442 0.0
C1020 C 0.66058 0.79402 0.48698 0.0
H1021 H 0.66347 0.74832 0.50041 0.0
H1022 H 0.66513 0.76637 0.50785 0.0
H1023 H 0.64729 0.74857 0.51059 0.0
H1024 H 0.63226 0.76089 0.50919 0.0
H1025 H 0.63671 0.77871 0.53999 0.0
H1026 H 0.28546 0.97398 0.4192 0.0
H1027 H 0.26696 0.95481 0.44419 0.0
H1028 H 0.27904 0.92227 0.42141 0.0
H1029 H 0.29751 0.94131 0.39626 0.0
H1030 H 0.24704 0.9103 0.42303 0.0
H1031 H 0.27645 0.93998 0.50083 0.0
H1032 H 0.27351 0.95156 0.48225 0.0
H1033 H 0.28588 0.94483 0.4746 0.0
C1034 C 0.28429 0.9628 0.41962 0.0
C1035 C 0.29303 0.95922 0.40579 0.0
C1036 C 0.27372 0.95186 0.43393 0.0
C1037 C 0.27171 0.93716 0.43472 0.0
C1038 C 0.28043 0.93356 0.42104 0.0
H1039 H 0.228 0.87043 0.53543 0.0
H1040 H 0.24458 0.88721 0.50667 0.0
C1041 C 0.29104 0.9445 0.40677 0.0
C1042 C 0.26041 0.92549 0.4497 0.0
H1043 H 0.25197 0.91779 0.50382 0.0
C1044 C 0.24809 0.9119 0.44071 0.0
C1045 C 0.2619 0.9276 0.47272 0.0
C1046 C 0.2752 0.94171 0.48326 0.0
C1047 C 0.23714 0.90038 0.45419 0.0
C1048 C 0.23855 0.90259 0.4772 0.0
C1049 C 0.25089 0.91617 0.48615 0.0
C1050 C 0.22771 0.89082 0.49251 0.0
C1051 C 0.22436 0.8858 0.44379 0.0
C1052 C 0.21258 0.88696 0.49373 0.0
C1053 C 0.20303 0.87729 0.51018 0.0
C1054 C 0.20856 0.87151 0.52572 0.0
C1055 C 0.22349 0.87483 0.52376 0.0
C1056 C 0.23297 0.88441 0.50736 0.0
H1057 H 0.22661 0.88452 0.42625 0.0
H1058 H 0.2224 0.87554 0.45264 0.0
H1059 H 0.21381 0.88607 0.44475 0.0
H1060 H 0.20837 0.89196 0.4826 0.0
H1061 H 0.19162 0.87503 0.51149 0.0
H1062 H 0.06369 0.32191 0.38367 0.0
H1063 H 0.08308 0.32665 0.41043 0.0
H1064 H 0.08396 0.36723 0.43455 0.0
H1065 H 0.06446 0.36256 0.40783 0.0
H1066 H 0.11296 0.3539 0.4157 0.0
H1067 H 0.077 0.34149 0.48993 0.0
H1068 H 0.0691 0.33549 0.4627 0.0
H1069 H 0.0775 0.35525 0.47157 0.0
C1070 C 0.06792 0.33181 0.39473 0.0
C1071 C 0.06245 0.34181 0.39368 0.0
C1072 C 0.07906 0.33453 0.40995 0.0
C1073 C 0.08488 0.34722 0.42455 0.0
C1074 C 0.07948 0.35726 0.42358 0.0
H1075 H 0.14466 0.37002 0.53684 0.0
H1076 H 0.13043 0.37214 0.50687 0.0
C1077 C 0.06836 0.35458 0.40829 0.0
C1078 C 0.09657 0.34985 0.44077 0.0
H1079 H 0.10247 0.34937 0.49554 0.0
C1080 C 0.11072 0.35299 0.43318 0.0
C1081 C 0.09362 0.34871 0.46353 0.0
C1082 C 0.07846 0.34494 0.47253 0.0
C1083 C 0.12201 0.35498 0.44778 0.0
C1084 C 0.11893 0.35345 0.47054 0.0
C1085 C 0.10486 0.3506 0.47811 0.0
C1086 C 0.12972 0.35393 0.48682 0.0
C1087 C 0.13716 0.35882 0.43869 0.0
C1088 C 0.13443 0.3433 0.48527 0.0
C1089 C 0.14267 0.34216 0.5023 0.0
C1090 C 0.14614 0.35148 0.52135 0.0
C1091 C 0.14208 0.36265 0.52238 0.0
C1092 C 0.13395 0.36385 0.50529 0.0
H1093 H 0.13941 0.36449 0.42262 0.0
H1094 H 0.14651 0.3665 0.45015 0.0
H1095 H 0.13718 0.34802 0.43611 0.0
H1096 H 0.13103 0.33527 0.47145 0.0
H1097 H 0.14543 0.33329 0.5012 0.0
H1098 H 0.08655 0.36339 0.30966 0.0
H1099 H 0.09887 0.35618 0.28161 0.0
H1100 H 0.05556 0.31716 0.26198 0.0
H1101 H 0.04305 0.32434 0.28993 0.0
H1102 H 0.09823 0.32784 0.27604 0.0
H1103 H 0.07397 0.34041 0.20457 0.0
H1104 H 0.0737 0.34737 0.23198 0.0
H1105 H 0.06055 0.32761 0.22431 0.0
C1106 C 0.0796 0.3533 0.29933 0.0
C1107 C 0.06379 0.3445 0.30193 0.0
C1108 C 0.08669 0.34917 0.28338 0.0
C1109 C 0.07812 0.33622 0.26962 0.0
C1110 C 0.06235 0.32732 0.27225 0.0
H1111 H 0.10677 0.30722 0.15296 0.0
H1112 H 0.09211 0.30635 0.18526 0.0
C1113 C 0.05523 0.33144 0.28824 0.0
C1114 C 0.08577 0.33221 0.25241 0.0
H1115 H 0.0896 0.33055 0.19698 0.0
C1116 C 0.09631 0.32834 0.25873 0.0
C1117 C 0.08318 0.33283 0.22988 0.0
C1118 C 0.07233 0.33739 0.22216 0.0
C1119 C 0.10441 0.32516 0.24308 0.0
C1120 C 0.10211 0.32616 0.22054 0.0
C1121 C 0.09131 0.32971 0.21426 0.0
C1122 C 0.11135 0.32461 0.20308 0.0
C1123 C 0.1153 0.32069 0.25083 0.0
C1124 C 0.12712 0.3348 0.20267 0.0
C1125 C 0.13552 0.33524 0.1843 0.0
C1126 C 0.12826 0.32564 0.1659 0.0
C1127 C 0.11263 0.31479 0.16689 0.0
C1128 C 0.10426 0.3143 0.1853 0.0
H1129 H 0.11217 0.31556 0.26733 0.0
H1130 H 0.11571 0.31233 0.23924 0.0
H1131 H 0.12682 0.33114 0.25203 0.0
H1132 H 0.13281 0.3431 0.21595 0.0
H1133 H 0.1475 0.34388 0.18386 0.0
H1134 H 0.63896 0.71185 0.28714 0.0
H1135 H 0.64206 0.73086 0.26063 0.0
H1136 H 0.6905 0.75196 0.26333 0.0
H1137 H 0.68755 0.73303 0.29001 0.0
H1138 H 0.66142 0.76564 0.26704 0.0
H1139 H 0.67729 0.74133 0.19629 0.0
H1140 H 0.66706 0.73 0.21968 0.0
H1141 H 0.68691 0.74404 0.2219 0.0
C1142 C 0.65028 0.72047 0.28205 0.0
C1143 C 0.66301 0.72088 0.29064 0.0
C1144 C 0.65202 0.73136 0.26698 0.0
C1145 C 0.66649 0.74274 0.26004 0.0
C1146 C 0.67923 0.74318 0.26845 0.0
H1147 H 0.69566 0.80888 0.15659 0.0
H1148 H 0.69493 0.79433 0.18831 0.0
C1149 C 0.67752 0.73236 0.28367 0.0
C1150 C 0.6682 0.75411 0.24388 0.0
H1151 H 0.6773 0.76402 0.19051 0.0
C1152 C 0.66492 0.76536 0.25029 0.0
C1153 C 0.6728 0.75367 0.22214 0.0
C1154 C 0.67615 0.74158 0.21441 0.0
C1155 C 0.66627 0.77635 0.23551 0.0
C1156 C 0.67066 0.77577 0.21361 0.0
C1157 C 0.67398 0.76451 0.2073 0.0
C1158 C 0.67169 0.7865 0.19671 0.0
C1159 C 0.66328 0.78861 0.24361 0.0
C1160 C 0.65901 0.78731 0.19121 0.0
C1161 C 0.65951 0.79585 0.17328 0.0
C1162 C 0.67261 0.80346 0.16038 0.0
C1163 C 0.68546 0.80313 0.16639 0.0
C1164 C 0.68502 0.79479 0.18442 0.0
H1165 H 0.66474 0.79041 0.26166 0.0
H1166 H 0.67093 0.79976 0.23564 0.0
H1167 H 0.65142 0.78495 0.23969 0.0
H1168 H 0.64848 0.78073 0.20009 0.0
H1169 H 0.64941 0.79576 0.1687 0.0
H1170 H 0.30197 0.95397 0.28623 0.0
H1171 H 0.28511 0.93595 0.25772 0.0
H1172 H 0.24631 0.92669 0.29647 0.0
H1173 H 0.26301 0.94473 0.32498 0.0
H1174 H 0.26279 0.90384 0.26343 0.0
H1175 H 0.23752 0.93698 0.23541 0.0
H1176 H 0.25485 0.94577 0.2511 0.0
H1177 H 0.23694 0.93419 0.26444 0.0
C1178 C 0.28985 0.94823 0.2886 0.0
C1179 C 0.28384 0.95082 0.30786 0.0
C1180 C 0.28025 0.9379 0.27234 0.0
C1181 C 0.26449 0.9301 0.27496 0.0
C1182 C 0.25844 0.93277 0.29402 0.0
H1183 H 0.19203 0.86742 0.18461 0.0
H1184 H 0.20559 0.88115 0.21834 0.0
C1185 C 0.26802 0.94306 0.31031 0.0
C1186 C 0.2544 0.91883 0.258 0.0
H1187 H 0.22771 0.9121 0.21985 0.0
C1188 C 0.25509 0.90561 0.2539 0.0
C1189 C 0.24428 0.92113 0.2458 0.0
C1190 C 0.24337 0.93533 0.24921 0.0
C1191 C 0.24598 0.89464 0.23776 0.0
C1192 C 0.23615 0.89713 0.22516 0.0
C1193 C 0.23521 0.91018 0.22961 0.0
C1194 C 0.22763 0.88705 0.20613 0.0
C1195 C 0.24693 0.88046 0.23443 0.0
C1196 C 0.23549 0.88562 0.18828 0.0
C1197 C 0.22779 0.87776 0.16915 0.0
C1198 C 0.21209 0.8713 0.1674 0.0
C1199 C 0.20411 0.87217 0.1856 0.0
C1200 C 0.21185 0.88008 0.20478 0.0
H1201 H 0.25099 0.87782 0.24948 0.0
H1202 H 0.23578 0.87027 0.22971 0.0
H1203 H 0.25511 0.88248 0.22111 0.0
H1204 H 0.24769 0.89114 0.18879 0.0
H1205 H 0.23421 0.87718 0.15542 0.0
H1206 H 0.70254 0.95621 0.30407 0.0
H1207 H 0.70297 0.94016 0.27392 0.0
H1208 H 0.66505 0.93911 0.2438 0.0
H1209 H 0.66472 0.95539 0.27364 0.0
H1210 H 0.68065 0.91104 0.26211 0.0
H1211 H 0.69384 0.94993 0.19264 0.0
H1212 H 0.69618 0.95658 0.22086 0.0
H1213 H 0.6778 0.94711 0.20811 0.0
C1214 C 0.6944 0.95273 0.29089 0.0
C1215 C 0.68361 0.95711 0.29122 0.0
C1216 C 0.69466 0.94354 0.27369 0.0
C1217 C 0.68418 0.93861 0.25647 0.0
C1218 C 0.67347 0.94307 0.25666 0.0
H1219 H 0.6508 0.87385 0.14998 0.0
H1220 H 0.65592 0.89197 0.18042 0.0
C1221 C 0.67325 0.95232 0.27379 0.0
C1222 C 0.68385 0.92808 0.23895 0.0
H1223 H 0.68383 0.92329 0.18338 0.0
C1224 C 0.68157 0.9138 0.2449 0.0
C1225 C 0.68514 0.93174 0.21653 0.0
C1226 C 0.68853 0.94724 0.20914 0.0
C1227 C 0.67985 0.9028 0.22895 0.0
C1228 C 0.68051 0.90625 0.20657 0.0
C1229 C 0.68326 0.92069 0.20061 0.0
C1230 C 0.67735 0.89468 0.189 0.0
C1231 C 0.67674 0.88735 0.23603 0.0
C1232 C 0.68768 0.89011 0.18393 0.0
C1233 C 0.68484 0.8798 0.16637 0.0
C1234 C 0.67165 0.87398 0.15363 0.0
C1235 C 0.66118 0.87832 0.15924 0.0
C1236 C 0.66405 0.88862 0.17666 0.0
H1237 H 0.67482 0.88583 0.25398 0.0
H1238 H 0.66665 0.87793 0.2273 0.0
H1239 H 0.68653 0.88621 0.23165 0.0
H1240 H 0.69808 0.8948 0.19321 0.0
H1241 H 0.69317 0.87678 0.16233 0.0
H1242 H 0.07311 0.7235 0.29486 0.0
H1243 H 0.08964 0.74292 0.26873 0.0
H1244 H 0.05377 0.75052 0.2525 0.0
H1245 H 0.03699 0.73088 0.27855 0.0
H1246 H 0.068 0.74748 0.21612 0.0
H1247 H 0.11065 0.7896 0.2751 0.0
H1248 H 0.10738 0.77063 0.27797 0.0
H1249 H 0.09229 0.77404 0.28356 0.0
C1250 C 0.06869 0.72929 0.28578 0.0
C1251 C 0.05372 0.72565 0.28885 0.0
C1252 C 0.07823 0.74052 0.271 0.0
C1253 C 0.07306 0.74844 0.25906 0.0
C1254 C 0.05804 0.74467 0.26175 0.0
H1255 H 0.13455 0.8231 0.17005 0.0
H1256 H 0.11662 0.80971 0.20012 0.0
C1257 C 0.04846 0.7334 0.27658 0.0
C1258 C 0.08318 0.76004 0.24295 0.0
H1259 H 0.11845 0.79212 0.23725 0.0
C1260 C 0.07892 0.75738 0.22079 0.0
C1261 C 0.09734 0.77311 0.24908 0.0
C1262 C 0.10213 0.77712 0.27276 0.0
C1263 C 0.08881 0.7669 0.20448 0.0
C1264 C 0.10338 0.77927 0.21047 0.0
C1265 C 0.10732 0.78252 0.2327 0.0
C1266 C 0.11505 0.78795 0.19369 0.0
C1267 C 0.08375 0.76339 0.18085 0.0
C1268 C 0.12046 0.78028 0.18079 0.0
C1269 C 0.13066 0.78785 0.16389 0.0
C1270 C 0.13569 0.80328 0.15946 0.0
C1271 C 0.13086 0.81122 0.17309 0.0
C1272 C 0.12059 0.80358 0.19015 0.0
H1273 H 0.07121 0.75639 0.17943 0.0
H1274 H 0.08805 0.77417 0.17167 0.0
H1275 H 0.08834 0.75674 0.17299 0.0
H1276 H 0.11656 0.76831 0.18358 0.0
H1277 H 0.13443 0.78152 0.15397 0.0
H1278 H 0.30297 0.35895 0.26458 0.0
H1279 H 0.28449 0.35958 0.24095 0.0
H1280 H 0.24948 0.31556 0.26482 0.0
H1281 H 0.26791 0.31484 0.2887 0.0
H1282 H 0.26571 0.33766 0.20781 0.0
H1283 H 0.23213 0.34392 0.27453 0.0
H1284 H 0.25094 0.34761 0.27894 0.0
H1285 H 0.23513 0.32816 0.27662 0.0
C1286 C 0.29136 0.34935 0.26478 0.0
C1287 C 0.28692 0.33686 0.27859 0.0
C1288 C 0.28081 0.34975 0.25128 0.0
C1289 C 0.26558 0.33775 0.25141 0.0
C1290 C 0.26113 0.32508 0.26478 0.0
H1291 H 0.18895 0.32491 0.1748 0.0
H1292 H 0.20448 0.32295 0.20305 0.0
C1293 C 0.27171 0.32463 0.27826 0.0
C1294 C 0.2545 0.33851 0.23722 0.0
H1295 H 0.22365 0.3423 0.23822 0.0
C1296 C 0.25651 0.33865 0.21445 0.0
C1297 C 0.24245 0.33971 0.24596 0.0
C1298 C 0.24001 0.33996 0.27035 0.0
C1299 C 0.24682 0.34001 0.20013 0.0
C1300 C 0.23501 0.34165 0.20885 0.0
C1301 C 0.23278 0.34117 0.23162 0.0
C1302 C 0.22507 0.34403 0.19439 0.0
C1303 C 0.24923 0.33952 0.17574 0.0
C1304 C 0.23132 0.35694 0.18102 0.0
C1305 C 0.22251 0.35808 0.16496 0.0
C1306 C 0.20724 0.3464 0.16213 0.0
C1307 C 0.20067 0.33412 0.17673 0.0
C1308 C 0.20954 0.33294 0.19276 0.0
H1309 H 0.25591 0.33411 0.17172 0.0
H1310 H 0.23826 0.33303 0.16687 0.0
H1311 H 0.25557 0.35145 0.16963 0.0
H1312 H 0.2432 0.36582 0.18237 0.0
H1313 H 0.22781 0.36773 0.15404 0.0
H1314 H 0.28172 0.3587 0.36475 0.0
H1315 H 0.26423 0.35709 0.39334 0.0
H1316 H 0.26562 0.31982 0.42256 0.0
H1317 H 0.2833 0.32152 0.39436 0.0
H1318 H 0.23578 0.33243 0.40283 0.0
H1319 H 0.27366 0.34856 0.47481 0.0
H1320 H 0.28062 0.35162 0.44702 0.0
H1321 H 0.27234 0.33289 0.45878 0.0
C1322 C 0.27847 0.35029 0.37742 0.0
C1323 C 0.28398 0.34029 0.37733 0.0
C1324 C 0.26842 0.34935 0.3937 0.0
C1325 C 0.26375 0.33846 0.41022 0.0
C1326 C 0.26931 0.32853 0.41023 0.0
H1327 H 0.20301 0.30861 0.52015 0.0
H1328 H 0.21815 0.31023 0.48812 0.0
C1329 C 0.27939 0.32949 0.39404 0.0
C1330 C 0.2527 0.3371 0.42704 0.0
H1331 H 0.2474 0.33751 0.4823 0.0
C1332 C 0.23834 0.33366 0.42021 0.0
C1333 C 0.25609 0.33877 0.44969 0.0
C1334 C 0.27156 0.34331 0.45803 0.0
C1335 C 0.22714 0.33139 0.43549 0.0
C1336 C 0.23045 0.33269 0.45811 0.0
C1337 C 0.24486 0.33636 0.46491 0.0
C1338 C 0.21922 0.33032 0.47521 0.0
C1339 C 0.21174 0.32725 0.42741 0.0
C1340 C 0.21442 0.34081 0.47817 0.0
C1341 C 0.20577 0.33992 0.49651 0.0
C1342 C 0.20191 0.32859 0.51222 0.0
C1343 C 0.20594 0.31754 0.50842 0.0
C1344 C 0.21458 0.31845 0.49015 0.0
H1345 H 0.21005 0.32369 0.4098 0.0
H1346 H 0.20267 0.31777 0.43711 0.0
H1347 H 0.21056 0.33741 0.4295 0.0
H1348 H 0.21805 0.35018 0.46698 0.0
H1349 H 0.20298 0.34869 0.49913 0.0
H1350 H 0.66893 0.94132 0.37088 0.0
H1351 H 0.67037 0.92325 0.39467 0.0
H1352 H 0.67148 0.94987 0.45152 0.0
H1353 H 0.66993 0.96801 0.42784 0.0
H1354 H 0.69344 0.92971 0.42453 0.0
H1355 H 0.63786 0.90559 0.46598 0.0
H1356 H 0.64243 0.91633 0.44108 0.0
H1357 H 0.64932 0.92625 0.46706 0.0
C1358 C 0.66934 0.9433 0.38846 0.0
C1359 C 0.66926 0.95611 0.39746 0.0
C1360 C 0.6702 0.93296 0.40202 0.0
C1361 C 0.67087 0.93512 0.42486 0.0
C1362 C 0.67072 0.94784 0.43394 0.0
H1363 H 0.70132 0.90218 0.52732 0.0
H1364 H 0.69935 0.91593 0.49659 0.0
C1365 C 0.66989 0.95823 0.42038 0.0
C1366 C 0.67225 0.92436 0.43911 0.0
H1367 H 0.65517 0.89967 0.48126 0.0
C1368 C 0.68502 0.92304 0.43683 0.0
C1369 C 0.66114 0.91549 0.4549 0.0
C1370 C 0.64684 0.91583 0.45733 0.0
C1371 C 0.68723 0.91351 0.45046 0.0
C1372 C 0.67647 0.90519 0.46692 0.0
C1373 C 0.66345 0.90609 0.46868 0.0
C1374 C 0.67886 0.89621 0.48338 0.0
C1375 C 0.70108 0.91243 0.44716 0.0
C1376 C 0.66813 0.88049 0.486 0.0
C1377 C 0.66924 0.8726 0.50359 0.0
C1378 C 0.68099 0.88038 0.51901 0.0
C1379 C 0.69215 0.89591 0.51568 0.0
C1380 C 0.69107 0.90375 0.49806 0.0
H1381 H 0.70568 0.91566 0.4303 0.0
H1382 H 0.71002 0.9205 0.45886 0.0
H1383 H 0.69852 0.90061 0.45021 0.0
H1384 H 0.65857 0.87448 0.4749 0.0
H1385 H 0.66038 0.8607 0.50591 0.0
H1386 H 0.04845 0.71225 0.39709 0.0
H1387 H 0.06801 0.72707 0.42487 0.0
H1388 H 0.08027 0.76917 0.39259 0.0
H1389 H 0.06059 0.75456 0.36516 0.0
H1390 H 0.0991 0.74675 0.4209 0.0
H1391 H 0.07272 0.77819 0.45496 0.0
H1392 H 0.06275 0.76166 0.43669 0.0
H1393 H 0.07603 0.7803 0.42598 0.0
C1394 C 0.05526 0.72467 0.39599 0.0
C1395 C 0.05284 0.73224 0.37907 0.0
C1396 C 0.06646 0.73311 0.41181 0.0
C1397 C 0.07542 0.74924 0.41099 0.0
C1398 C 0.07325 0.75677 0.39384 0.0
H1399 H 0.14324 0.81956 0.49904 0.0
H1400 H 0.12928 0.80577 0.46562 0.0
C1401 C 0.06201 0.74837 0.37813 0.0
C1402 C 0.087 0.75823 0.42811 0.0
H1403 H 0.09732 0.78632 0.46766 0.0
C1404 C 0.09872 0.7554 0.43115 0.0
C1405 C 0.08647 0.7695 0.44146 0.0
C1406 C 0.07375 0.77252 0.4398 0.0
C1407 C 0.10999 0.76363 0.4471 0.0
C1408 C 0.10943 0.77489 0.4604 0.0
C1409 C 0.0978 0.7778 0.45723 0.0
C1410 C 0.12009 0.78307 0.4788 0.0
C1411 C 0.12245 0.76032 0.44954 0.0
C1412 C 0.11984 0.77485 0.49702 0.0
C1413 C 0.12777 0.78268 0.51607 0.0
C1414 C 0.13606 0.79888 0.51723 0.0
C1415 C 0.13707 0.80708 0.4985 0.0
C1416 C 0.12904 0.79923 0.47948 0.0
H1417 H 0.1236 0.75454 0.4346 0.0
H1418 H 0.13347 0.7711 0.45296 0.0
H1419 H 0.11979 0.75258 0.46353 0.0
H1420 H 0.11282 0.7624 0.49698 0.0
H1421 H 0.12684 0.77609 0.53027 0.0
H1422 H 0.32903 0.04676 0.74338 0.0
H1423 H 0.32666 0.06291 0.77151 0.0
H1424 H 0.30298 0.07436 0.7256 0.0
H1425 H 0.3049 0.05789 0.69764 0.0
H1426 H 0.33854 0.09322 0.77043 0.0
H1427 H 0.27628 0.0644 0.77865 0.0
H1428 H 0.28518 0.05547 0.76444 0.0
H1429 H 0.28274 0.06951 0.75101 0.0
C1430 C 0.32313 0.05254 0.73938 0.0
C1431 C 0.31713 0.05102 0.71829 0.0
C1432 C 0.32179 0.06178 0.75546 0.0
C1433 C 0.31448 0.06971 0.75077 0.0
C1434 C 0.30833 0.06807 0.7298 0.0
H1435 H 0.33386 0.15003 0.83174 0.0
H1436 H 0.32955 0.13327 0.7997 0.0
C1437 C 0.30953 0.05871 0.71377 0.0
C1438 C 0.31427 0.08053 0.76735 0.0
H1439 H 0.29103 0.0891 0.7961 0.0
C1440 C 0.32815 0.0923 0.77606 0.0
C1441 C 0.30069 0.07926 0.77477 0.0
C1442 C 0.28537 0.06639 0.76691 0.0
C1443 C 0.32885 0.10277 0.79208 0.0
C1444 C 0.31531 0.10177 0.79912 0.0
C1445 C 0.30141 0.09002 0.79039 0.0
C1446 C 0.31536 0.11205 0.81684 0.0
C1447 C 0.34407 0.11445 0.80186 0.0
C1448 C 0.30783 0.10573 0.83658 0.0
C1449 C 0.30997 0.11528 0.85475 0.0
C1450 C 0.3198 0.13135 0.85358 0.0
C1451 C 0.32624 0.13772 0.83323 0.0
C1452 C 0.32396 0.12814 0.81497 0.0
H1453 H 0.35264 0.11123 0.79862 0.0
H1454 H 0.34824 0.12581 0.79447 0.0
H1455 H 0.34323 0.11571 0.81987 0.0
H1456 H 0.30097 0.09335 0.83832 0.0
H1457 H 0.30458 0.11004 0.87007 0.0
H1458 H 0.93223 0.27871 0.72043 0.0
H1459 H 0.91646 0.25952 0.74737 0.0
H1460 H 0.95592 0.26187 0.774 0.0
H1461 H 0.9719 0.28119 0.74704 0.0
H1462 H 0.91354 0.22998 0.75435 0.0
H1463 H 0.93507 0.26949 0.82749 0.0
H1464 H 0.93779 0.27646 0.79991 0.0
H1465 H 0.94907 0.26931 0.81003 0.0
C1466 C 0.93762 0.27524 0.73206 0.0
C1467 C 0.95336 0.28157 0.73165 0.0
C1468 C 0.92855 0.2642 0.74739 0.0
C1469 C 0.93503 0.25935 0.76273 0.0
C1470 C 0.95073 0.2656 0.76242 0.0
H1471 H 0.89391 0.20233 0.87647 0.0
H1472 H 0.91135 0.2163 0.84656 0.0
C1473 C 0.95983 0.27662 0.747 0.0
C1474 C 0.92525 0.24779 0.77907 0.0
H1475 H 0.91679 0.24351 0.83359 0.0
C1476 C 0.91428 0.23287 0.77171 0.0
C1477 C 0.92628 0.25162 0.80166 0.0
C1478 C 0.9376 0.26761 0.81036 0.0
C1479 C 0.90426 0.22166 0.78639 0.0
C1480 C 0.90505 0.22559 0.80895 0.0
C1481 C 0.91621 0.24046 0.8163 0.0
C1482 C 0.89409 0.21482 0.82525 0.0
C1483 C 0.89306 0.20568 0.7776 0.0
C1484 C 0.8785 0.20891 0.82298 0.0
C1485 C 0.86849 0.20075 0.83998 0.0
C1486 C 0.87395 0.19861 0.85966 0.0
C1487 C 0.88942 0.20385 0.86146 0.0
C1488 C 0.89939 0.21186 0.84442 0.0
H1489 H 0.89705 0.20315 0.76199 0.0
H1490 H 0.89098 0.19678 0.78959 0.0
H1491 H 0.88215 0.20482 0.77422 0.0
H1492 H 0.87417 0.21133 0.80859 0.0
H1493 H 0.85666 0.19704 0.83832 0.0
H1494 H 0.73099 0.65712 0.71742 0.0
H1495 H 0.75041 0.66178 0.74407 0.0
H1496 H 0.75161 0.70252 0.76821 0.0
H1497 H 0.73209 0.69795 0.74156 0.0
H1498 H 0.78061 0.68932 0.74997 0.0
H1499 H 0.74352 0.67571 0.8232 0.0
H1500 H 0.73599 0.66989 0.79576 0.0
H1501 H 0.74424 0.68958 0.80484 0.0
C1502 C 0.73533 0.66706 0.72842 0.0
C1503 C 0.7299 0.67711 0.72745 0.0
C1504 C 0.74648 0.66973 0.74357 0.0
C1505 C 0.75236 0.68242 0.75817 0.0
C1506 C 0.74709 0.69257 0.7572 0.0
H1507 H 0.80917 0.70111 0.87274 0.0
H1508 H 0.7962 0.70477 0.84245 0.0
C1509 C 0.73596 0.68994 0.74196 0.0
C1510 C 0.76383 0.68479 0.77462 0.0
H1511 H 0.76869 0.68286 0.82935 0.0
C1512 C 0.77807 0.68802 0.76736 0.0
C1513 C 0.76048 0.68313 0.79725 0.0
C1514 C 0.74521 0.67928 0.80585 0.0
C1515 C 0.78907 0.68955 0.78219 0.0
C1516 C 0.78557 0.68744 0.8048 0.0
C1517 C 0.77141 0.68454 0.81204 0.0
C1518 C 0.79594 0.68728 0.82123 0.0
C1519 C 0.80434 0.69351 0.77348 0.0
C1520 C 0.80057 0.67659 0.81913 0.0
C1521 C 0.80815 0.67462 0.83634 0.0
C1522 C 0.81099 0.68312 0.85607 0.0
C1523 C 0.8071 0.6944 0.85769 0.0
C1524 C 0.79966 0.69647 0.84043 0.0
H1525 H 0.80698 0.69976 0.75785 0.0
H1526 H 0.81349 0.70071 0.78548 0.0
H1527 H 0.80426 0.68272 0.77016 0.0
H1528 H 0.79753 0.6691 0.80474 0.0
H1529 H 0.8108 0.66568 0.83479 0.0
H1530 H 0.70912 0.66015 0.62184 0.0
H1531 H 0.72156 0.6532 0.59343 0.0
H1532 H 0.76521 0.68932 0.61736 0.0
H1533 H 0.75295 0.69635 0.64572 0.0
H1534 H 0.7421 0.67329 0.56079 0.0
H1535 H 0.76882 0.65069 0.6138 0.0
H1536 H 0.75333 0.65274 0.62295 0.0
H1537 H 0.77224 0.66929 0.62214 0.0
C1538 C 0.72137 0.66659 0.62109 0.0
C1539 C 0.73004 0.67881 0.63605 0.0
C1540 C 0.72845 0.66257 0.60489 0.0
C1541 C 0.7443 0.67057 0.60357 0.0
C1542 C 0.75297 0.6828 0.6184 0.0
H1543 H 0.81276 0.6774 0.51589 0.0
H1544 H 0.79805 0.6771 0.54785 0.0
C1545 C 0.74592 0.68688 0.63448 0.0
C1546 C 0.75183 0.66675 0.58595 0.0
H1547 H 0.77712 0.65537 0.57667 0.0
C1548 C 0.74961 0.66918 0.56419 0.0
C1549 C 0.76169 0.66151 0.59053 0.0
C1550 C 0.7641 0.65826 0.6136 0.0
C1551 C 0.7574 0.66705 0.54688 0.0
C1552 C 0.76739 0.66192 0.55144 0.0
C1553 C 0.76942 0.65923 0.5732 0.0
C1554 C 0.77635 0.66006 0.53384 0.0
C1555 C 0.75535 0.67094 0.52399 0.0
C1556 C 0.76909 0.64998 0.5159 0.0
C1557 C 0.77745 0.65021 0.49764 0.0
C1558 C 0.79323 0.66034 0.49717 0.0
C1559 C 0.80062 0.66943 0.5159 0.0
C1560 C 0.79222 0.66932 0.5341 0.0
H1561 H 0.75034 0.67827 0.52413 0.0
H1562 H 0.76631 0.67705 0.51515 0.0
H1563 H 0.74759 0.66015 0.51469 0.0
H1564 H 0.75689 0.64245 0.51561 0.0
H1565 H 0.77152 0.64298 0.48346 0.0
H1566 H 0.34927 0.06984 0.63616 0.0
H1567 H 0.35026 0.08928 0.61234 0.0
H1568 H 0.31023 0.05406 0.57847 0.0
H1569 H 0.30899 0.03461 0.60239 0.0
H1570 H 0.35275 0.09199 0.56763 0.0
H1571 H 0.29865 0.08538 0.59523 0.0
H1572 H 0.30786 0.07737 0.60986 0.0
H1573 H 0.29655 0.06752 0.58596 0.0
C1574 C 0.3407 0.06621 0.62359 0.0
C1575 C 0.32898 0.05067 0.62128 0.0
C1576 C 0.34126 0.07735 0.61004 0.0
C1577 C 0.33011 0.07318 0.59398 0.0
C1578 C 0.31871 0.05761 0.59116 0.0
H1579 H 0.31306 0.11066 0.48366 0.0
H1580 H 0.31245 0.09588 0.51499 0.0
C1581 C 0.3181 0.04648 0.60473 0.0
C1582 C 0.33054 0.08501 0.57981 0.0
H1583 H 0.30916 0.09916 0.56209 0.0
C1584 C 0.34332 0.09374 0.56664 0.0
C1585 C 0.31827 0.08734 0.57866 0.0
C1586 C 0.30462 0.07902 0.59335 0.0
C1587 C 0.34384 0.10417 0.55157 0.0
C1588 C 0.33132 0.10605 0.54984 0.0
C1589 C 0.31874 0.09769 0.56348 0.0
C1590 C 0.33055 0.11554 0.53256 0.0
C1591 C 0.35748 0.1126 0.5369 0.0
C1592 C 0.34053 0.13159 0.53248 0.0
C1593 C 0.34084 0.14008 0.5146 0.0
C1594 C 0.33122 0.1326 0.49655 0.0
C1595 C 0.32066 0.11668 0.49731 0.0
C1596 C 0.32029 0.10824 0.51518 0.0
H1597 H 0.36514 0.10809 0.53798 0.0
H1598 H 0.35391 0.11168 0.51956 0.0
H1599 H 0.36398 0.125 0.54176 0.0
H1600 H 0.34841 0.13744 0.54589 0.0
H1601 H 0.34913 0.15233 0.51435 0.0
H1602 H 0.95637 0.29536 0.6278 0.0
H1603 H 0.93766 0.28019 0.59925 0.0
H1604 H 0.93639 0.23934 0.61946 0.0
H1605 H 0.95496 0.25434 0.64819 0.0
H1606 H 0.94053 0.26313 0.56478 0.0
H1607 H 0.89143 0.22564 0.61782 0.0
H1608 H 0.90797 0.24309 0.62799 0.0
H1609 H 0.90843 0.22583 0.62381 0.0
C1610 C 0.95208 0.28314 0.62623 0.0
C1611 C 0.95714 0.27605 0.64029 0.0
C1612 C 0.94138 0.27449 0.60994 0.0
C1613 C 0.93547 0.25861 0.6075 0.0
C1614 C 0.94057 0.25152 0.62139 0.0
H1615 H 0.87614 0.18998 0.50988 0.0
H1616 H 0.89171 0.20303 0.54254 0.0
C1617 C 0.95127 0.26015 0.63768 0.0
C1618 C 0.9245 0.24963 0.58976 0.0
H1619 H 0.88847 0.21964 0.57963 0.0
C1620 C 0.92912 0.25367 0.56802 0.0
C1621 C 0.90968 0.23723 0.59408 0.0
C1622 C 0.90399 0.23273 0.61718 0.0
C1623 C 0.91936 0.24556 0.55042 0.0
C1624 C 0.90448 0.23326 0.55473 0.0
C1625 C 0.89988 0.2291 0.57645 0.0
C1626 C 0.89358 0.2248 0.53673 0.0
C1627 C 0.92513 0.25007 0.52734 0.0
C1628 C 0.88902 0.23256 0.52326 0.0
C1629 C 0.88017 0.22517 0.50473 0.0
C1630 C 0.87564 0.20984 0.49941 0.0
C1631 C 0.87943 0.20177 0.51366 0.0
C1632 C 0.88835 0.20922 0.53223 0.0
H1633 H 0.93769 0.25701 0.52675 0.0
H1634 H 0.92105 0.23973 0.51646 0.0
H1635 H 0.92085 0.25713 0.52074 0.0
H1636 H 0.89269 0.2445 0.52674 0.0
H1637 H 0.87721 0.23158 0.49418 0.0
H1638 H 0.33618 0.29339 0.60867 0.0
H1639 H 0.33711 0.27625 0.58074 0.0
H1640 H 0.36679 0.2699 0.62194 0.0
H1641 H 0.36622 0.2873 0.64972 0.0
H1642 H 0.37585 0.27366 0.57945 0.0
H1643 H 0.31464 0.22978 0.58472 0.0
H1644 H 0.31822 0.24851 0.57858 0.0
H1645 H 0.32419 0.24544 0.60451 0.0
C1646 C 0.34296 0.28841 0.61175 0.0
C1647 C 0.35103 0.29162 0.6315 0.0
C1648 C 0.3434 0.27852 0.59584 0.0
C1649 C 0.35174 0.27151 0.59948 0.0
C1650 C 0.36018 0.27509 0.61886 0.0
H1651 H 0.33526 0.19269 0.51718 0.0
H1652 H 0.3395 0.20933 0.5494 0.0
C1653 C 0.35984 0.28505 0.63472 0.0
C1654 C 0.3516 0.2604 0.58312 0.0
H1655 H 0.32794 0.22717 0.55441 0.0
C1656 C 0.36539 0.26342 0.57409 0.0
C1657 C 0.338 0.24686 0.57652 0.0
C1658 C 0.32294 0.24234 0.58675 0.0
C1659 C 0.36586 0.25357 0.558 0.0
C1660 C 0.35216 0.24053 0.55044 0.0
C1661 C 0.33844 0.23722 0.56007 0.0
C1662 C 0.35159 0.23062 0.53173 0.0
C1663 C 0.38105 0.2572 0.54938 0.0
C1664 C 0.35725 0.23705 0.51119 0.0
C1665 C 0.35502 0.2276 0.49286 0.0
C1666 C 0.34685 0.21147 0.49458 0.0
C1667 C 0.34172 0.20506 0.51533 0.0
C1668 C 0.34403 0.21456 0.53373 0.0
H1669 H 0.39015 0.26394 0.56166 0.0
H1670 H 0.38098 0.24654 0.54486 0.0
H1671 H 0.38387 0.26428 0.53457 0.0
H1672 H 0.36283 0.24937 0.50909 0.0
H1673 H 0.35926 0.23291 0.47715 0.0
H1674 H 0.71176 0.03955 0.58374 0.0
H1675 H 0.73072 0.0598 0.56035 0.0
H1676 H 0.73155 0.09446 0.60336 0.0
H1677 H 0.71258 0.07435 0.62683 0.0
H1678 H 0.72996 0.08589 0.53964 0.0
H1679 H 0.77649 0.10374 0.60001 0.0
H1680 H 0.75915 0.08512 0.60063 0.0
H1681 H 0.75924 0.10201 0.60982 0.0
C1682 C 0.71585 0.05146 0.58813 0.0
C1683 C 0.7107 0.05532 0.60721 0.0
C1684 C 0.72667 0.06301 0.57474 0.0
C1685 C 0.73261 0.07859 0.5803 0.0
C1686 C 0.72718 0.08249 0.59894 0.0
H1687 H 0.79535 0.15422 0.49447 0.0
H1688 H 0.77609 0.14007 0.52276 0.0
C1689 C 0.7163 0.07096 0.61226 0.0
C1690 C 0.74485 0.09071 0.56694 0.0
H1691 H 0.78295 0.11675 0.56661 0.0
C1692 C 0.74152 0.09279 0.54558 0.0
C1693 C 0.7599 0.0996 0.5748 0.0
C1694 C 0.76404 0.09753 0.59752 0.0
C1695 C 0.75295 0.10338 0.53168 0.0
C1696 C 0.76803 0.11206 0.53941 0.0
C1697 C 0.77132 0.11018 0.5609 0.0
C1698 C 0.78071 0.12175 0.52453 0.0
C1699 C 0.74897 0.10478 0.50852 0.0
C1700 C 0.7899 0.11634 0.51679 0.0
C1701 C 0.80075 0.12431 0.50073 0.0
C1702 C 0.80271 0.13792 0.4923 0.0
C1703 C 0.79409 0.14381 0.50089 0.0
C1704 C 0.78307 0.13572 0.51687 0.0
H1705 H 0.73694 0.09622 0.50446 0.0
H1706 H 0.75103 0.1165 0.50635 0.0
H1707 H 0.75631 0.10321 0.49671 0.0
H1708 H 0.78824 0.1056 0.52253 0.0
H1709 H 0.80728 0.11956 0.49431 0.0
H1710 H 0.96277 0.66904 0.57822 0.0
H1711 H 0.94369 0.66975 0.55594 0.0
H1712 H 0.9154 0.66017 0.61296 0.0
H1713 H 0.93419 0.65912 0.63522 0.0
H1714 H 0.89928 0.64284 0.57787 0.0
H1715 H 0.93475 0.70396 0.55475 0.0
H1716 H 0.9433 0.69302 0.54772 0.0
H1717 H 0.94015 0.69584 0.57607 0.0
C1718 C 0.95248 0.66707 0.58602 0.0
C1719 C 0.95004 0.66406 0.60852 0.0
C1720 C 0.94164 0.66761 0.5733 0.0
C1721 C 0.92825 0.66532 0.58288 0.0
C1722 C 0.92569 0.66207 0.60525 0.0
H1723 H 0.86836 0.68522 0.50905 0.0
H1724 H 0.88355 0.68457 0.53917 0.0
C1725 C 0.93646 0.66146 0.61794 0.0
C1726 C 0.9167 0.6659 0.5695 0.0
H1727 H 0.91175 0.68849 0.53454 0.0
C1728 C 0.90197 0.65288 0.56856 0.0
C1729 C 0.9201 0.67912 0.55774 0.0
C1730 C 0.93539 0.69383 0.55927 0.0
C1731 C 0.89075 0.65248 0.55544 0.0
C1732 C 0.89442 0.66533 0.54259 0.0
C1733 C 0.90896 0.67859 0.54427 0.0
C1734 C 0.88383 0.6648 0.52597 0.0
C1735 C 0.87507 0.63825 0.55541 0.0
C1736 C 0.87882 0.65383 0.50875 0.0
C1737 C 0.87017 0.65415 0.49173 0.0
C1738 C 0.86643 0.66555 0.49141 0.0
C1739 C 0.87098 0.67624 0.50901 0.0
C1740 C 0.87971 0.67593 0.5261 0.0
H1741 H 0.87271 0.63199 0.57099 0.0
H1742 H 0.86627 0.64115 0.55297 0.0
H1743 H 0.87416 0.63033 0.54185 0.0
H1744 H 0.88209 0.64534 0.50802 0.0
H1745 H 0.86675 0.64572 0.47842 0.0
H1746 H 0.94384 0.68862 0.70147 0.0
H1747 H 0.92651 0.68618 0.73078 0.0
H1748 H 0.93095 0.6506 0.75962 0.0
H1749 H 0.94854 0.65316 0.73056 0.0
H1750 H 0.89897 0.66064 0.74103 0.0
H1751 H 0.93835 0.67935 0.81175 0.0
H1752 H 0.94485 0.68246 0.78373 0.0
H1753 H 0.93743 0.6639 0.79563 0.0
C1754 C 0.94128 0.68039 0.71418 0.0
C1755 C 0.94762 0.67112 0.71372 0.0
C1756 C 0.93133 0.67898 0.73088 0.0
C1757 C 0.92755 0.66832 0.74749 0.0
C1758 C 0.93394 0.65912 0.7472 0.0
H1759 H 0.86907 0.64111 0.86077 0.0
H1760 H 0.88393 0.64177 0.82892 0.0
C1761 C 0.94396 0.66056 0.73054 0.0
C1762 C 0.91654 0.6665 0.7647 0.0
H1763 H 0.91231 0.66837 0.82003 0.0
C1764 C 0.90189 0.66239 0.7583 0.0
C1765 C 0.9204 0.66883 0.78721 0.0
C1766 C 0.93615 0.67402 0.79503 0.0
C1767 C 0.89091 0.66026 0.77388 0.0
C1768 C 0.89474 0.66244 0.79637 0.0
C1769 C 0.90939 0.6666 0.80274 0.0
C1770 C 0.88385 0.66064 0.81372 0.0
C1771 C 0.87522 0.65542 0.76621 0.0
C1772 C 0.87854 0.67077 0.81541 0.0
C1773 C 0.87004 0.67042 0.83362 0.0
C1774 C 0.86685 0.66002 0.85049 0.0
C1775 C 0.87148 0.64934 0.84811 0.0
C1776 C 0.87996 0.6497 0.82995 0.0
H1777 H 0.8731 0.65078 0.74908 0.0
H1778 H 0.86649 0.64654 0.77703 0.0
H1779 H 0.87394 0.66556 0.76686 0.0
H1780 H 0.88162 0.67946 0.80322 0.0
H1781 H 0.86678 0.6789 0.83515 0.0
H1782 H 0.36432 0.31025 0.74604 0.0
H1783 H 0.36355 0.29135 0.77062 0.0
H1784 H 0.32109 0.25613 0.74216 0.0
H1785 H 0.32179 0.27497 0.7173 0.0
H1786 H 0.3409 0.27297 0.80148 0.0
H1787 H 0.34799 0.23726 0.73762 0.0
H1788 H 0.35215 0.25647 0.73256 0.0
H1789 H 0.33288 0.24064 0.73325 0.0
C1790 C 0.35478 0.2985 0.74501 0.0
C1791 C 0.34314 0.29412 0.72964 0.0
C1792 C 0.35438 0.28771 0.75906 0.0
C1793 C 0.3424 0.27229 0.75795 0.0
C1794 C 0.33058 0.26791 0.74298 0.0
H1795 H 0.32494 0.19486 0.83842 0.0
H1796 H 0.32423 0.2103 0.80874 0.0
C1797 C 0.33094 0.27873 0.72893 0.0
C1798 C 0.34227 0.26097 0.77285 0.0
H1799 H 0.34483 0.22891 0.77415 0.0
C1800 C 0.34174 0.26333 0.7955 0.0
C1801 C 0.34326 0.24834 0.76498 0.0
C1802 C 0.34422 0.24551 0.74079 0.0
C1803 C 0.34226 0.25345 0.81054 0.0
C1804 C 0.34368 0.24107 0.80272 0.0
C1805 C 0.34385 0.23847 0.78006 0.0
C1806 C 0.34528 0.231 0.81808 0.0
C1807 C 0.34117 0.25631 0.83471 0.0
C1808 C 0.35774 0.2373 0.83235 0.0
C1809 C 0.35816 0.22855 0.84919 0.0
C1810 C 0.3462 0.21328 0.85196 0.0
C1811 C 0.33435 0.20658 0.83656 0.0
C1812 C 0.33389 0.21539 0.81971 0.0
H1813 H 0.3362 0.26355 0.83768 0.0
H1814 H 0.3342 0.24529 0.84334 0.0
H1815 H 0.35269 0.26245 0.84199 0.0
H1816 H 0.3668 0.24923 0.83107 0.0
H1817 H 0.36749 0.23395 0.86074 0.0
H1818 H 0.74313 0.07099 0.69145 0.0
H1819 H 0.75898 0.08721 0.72199 0.0
H1820 H 0.71907 0.07368 0.76081 0.0
H1821 H 0.70312 0.05713 0.73051 0.0
H1822 H 0.76 0.11187 0.74249 0.0
H1823 H 0.74438 0.06562 0.80183 0.0
H1824 H 0.73973 0.06164 0.77306 0.0
H1825 H 0.72832 0.06561 0.79122 0.0
C1826 C 0.73771 0.07135 0.70655 0.0
C1827 C 0.72185 0.06268 0.7086 0.0
C1828 C 0.7468 0.08067 0.72396 0.0
C1829 C 0.74024 0.0815 0.74377 0.0
C1830 C 0.7244 0.07294 0.74584 0.0
H1831 H 0.77238 0.13142 0.86673 0.0
H1832 H 0.75795 0.1179 0.83366 0.0
C1833 C 0.71529 0.06354 0.72847 0.0
C1834 C 0.74995 0.09157 0.76209 0.0
H1835 H 0.75834 0.09138 0.81595 0.0
C1836 C 0.75972 0.10739 0.75852 0.0
C1837 C 0.74962 0.08567 0.78296 0.0
C1838 C 0.74007 0.06869 0.78749 0.0
C1839 C 0.76888 0.11753 0.77544 0.0
C1840 C 0.76829 0.11165 0.79636 0.0
C1841 C 0.75866 0.09584 0.79988 0.0
C1842 C 0.77743 0.12165 0.81506 0.0
C1843 C 0.77888 0.13448 0.77103 0.0
C1844 C 0.79322 0.12853 0.81534 0.0
C1845 C 0.80151 0.13623 0.83429 0.0
C1846 C 0.79409 0.13703 0.85326 0.0
C1847 C 0.77837 0.1308 0.85246 0.0
C1848 C 0.77012 0.12311 0.83359 0.0
H1849 H 0.77602 0.13756 0.75526 0.0
H1850 H 0.77791 0.14146 0.78449 0.0
H1851 H 0.79085 0.1376 0.77028 0.0
H1852 H 0.79903 0.12735 0.80126 0.0
H1853 H 0.81358 0.14078 0.83449 0.0
H1854 H 0.02604 0.32601 0.02515 0.0
H1855 H 0.04918 0.32649 0.03396 0.0
H1856 H 0.07561 0.37519 0.02194 0.0
H1857 H 0.05244 0.37487 0.01332 0.0
H1858 H 0.07584 0.33574 0.00912 0.0
H1859 H 0.08755 0.37209 0.08474 0.0
H1860 H 0.06948 0.36276 0.07092 0.0
H1861 H 0.08539 0.37977 0.05984 0.0
C1862 C 0.03676 0.33684 0.02429 0.0
C1863 C 0.03735 0.35043 0.0187 0.0
C1864 C 0.04999 0.33707 0.02928 0.0
C1865 C 0.06411 0.35091 0.02887 0.0
C1866 C 0.06482 0.36443 0.0227 0.0
H1867 H 0.14715 0.36332 0.08646 0.0
H1868 H 0.13143 0.36848 0.06263 0.0
C1869 C 0.05156 0.36421 0.0177 0.0
C1870 C 0.07791 0.35109 0.03565 0.0
H1871 H 0.10415 0.36357 0.07667 0.0
C1872 C 0.08214 0.34196 0.02376 0.0
C1873 C 0.08619 0.35929 0.05466 0.0
C1874 C 0.08192 0.36896 0.06844 0.0
C1875 C 0.09417 0.34047 0.03071 0.0
C1876 C 0.10199 0.34809 0.05028 0.0
C1877 C 0.0982 0.35778 0.06161 0.0
C1878 C 0.11278 0.34476 0.06083 0.0
C1879 C 0.09824 0.33057 0.01717 0.0
C1880 C 0.10771 0.3297 0.06725 0.0
C1881 C 0.11665 0.32678 0.08072 0.0
C1882 C 0.13084 0.33886 0.08813 0.0
C1883 C 0.13636 0.35379 0.08067 0.0
C1884 C 0.12734 0.35674 0.06721 0.0
H1885 H 0.09528 0.3302 -0.00037 0.0
H1886 H 0.1105 0.33483 0.01841 0.0
H1887 H 0.09173 0.3186 0.02315 0.0
H1888 H 0.09642 0.32032 0.06302 0.0
H1889 H 0.11209 0.3152 0.08648 0.0
H1890 H 0.65388 0.69148 0.98138 0.0
H1891 H 0.6576 0.7168 0.99001 0.0
H1892 H 0.6613 0.71037 0.05869 0.0
H1893 H 0.65726 0.6849 0.05027 0.0
H1894 H 0.64272 0.72117 0.05135 0.0
H1895 H 0.69689 0.75621 0.00672 0.0
H1896 H 0.68159 0.74159 0.99028 0.0
H1897 H 0.68904 0.73612 0.01229 0.0
C1898 C 0.65552 0.69546 0.99833 0.0
C1899 C 0.65532 0.68617 0.01514 0.0
C1900 C 0.65775 0.71 0.0032 0.0
C1901 C 0.65999 0.71561 0.02495 0.0
C1902 C 0.65967 0.7063 0.04177 0.0
H1903 H 0.69578 0.80203 0.08941 0.0
H1904 H 0.69208 0.78039 0.06628 0.0
C1905 C 0.65736 0.69174 0.03693 0.0
C1906 C 0.66227 0.73098 0.03041 0.0
H1907 H 0.68624 0.76962 0.02321 0.0
C1908 C 0.65217 0.73177 0.04507 0.0
C1909 C 0.67466 0.74479 0.02227 0.0
C1910 C 0.68626 0.74473 0.00717 0.0
C1911 C 0.65429 0.74595 0.05229 0.0
C1912 C 0.66667 0.75979 0.04416 0.0
C1913 C 0.67662 0.75901 0.02912 0.0
C1914 C 0.67049 0.77505 0.05334 0.0
C1915 C 0.64368 0.74599 0.06944 0.0
C1916 C 0.66011 0.77995 0.05253 0.0
C1917 C 0.66221 0.79234 0.06583 0.0
C1918 C 0.67475 0.80001 0.07995 0.0
C1919 C 0.68598 0.79624 0.07872 0.0
C1920 C 0.68385 0.78386 0.06554 0.0
H1921 H 0.63665 0.73457 0.07706 0.0
H1922 H 0.65009 0.75471 0.0826 0.0
H1923 H 0.63594 0.74894 0.0617 0.0
H1924 H 0.64988 0.77351 0.04282 0.0
H1925 H 0.65337 0.79498 0.06654 0.0
H1926 H 0.33004 0.97303 0.05021 0.0
H1927 H 0.30543 0.95087 0.06015 0.0
H1928 H 0.28458 0.95949 0.00627 0.0
H1929 H 0.3092 0.98149 0.99593 0.0
H1930 H 0.28005 0.95046 0.07254 0.0
H1931 H 0.26821 0.91375 0.99766 0.0
H1932 H 0.2867 0.93035 0.0037 0.0
H1933 H 0.27216 0.93276 0.99249 0.0
C1934 C 0.32025 0.97017 0.04038 0.0
C1935 C 0.32161 0.97903 0.02224 0.0
C1936 C 0.30618 0.95748 0.04608 0.0
C1937 C 0.29318 0.95335 0.03376 0.0
C1938 C 0.29449 0.96221 0.01571 0.0
H1939 H 0.20417 0.89359 0.09176 0.0
H1940 H 0.2244 0.91409 0.06995 0.0
C1941 C 0.30857 0.97487 0.00993 0.0
C1942 C 0.2782 0.94022 0.04054 0.0
H1943 H 0.24835 0.90515 0.02368 0.0
C1944 C 0.27311 0.94058 0.06182 0.0
C1945 C 0.26919 0.92726 0.0266 0.0
C1946 C 0.27437 0.92588 0.00391 0.0
C1947 C 0.25936 0.92834 0.06964 0.0
C1948 C 0.2502 0.9155 0.05559 0.0
C1949 C 0.25525 0.91512 0.03427 0.0
C1950 C 0.23601 0.9019 0.0636 0.0
C1951 C 0.25504 0.92905 0.09319 0.0
C1952 C 0.2352 0.88781 0.06575 0.0
C1953 C 0.22349 0.87601 0.07779 0.0
C1954 C 0.21241 0.87811 0.08772 0.0
C1955 C 0.21245 0.89163 0.08388 0.0
C1956 C 0.2241 0.9034 0.07171 0.0
H1957 H 0.26481 0.93796 0.10304 0.0
H1958 H 0.24613 0.93197 0.09366 0.0
H1959 H 0.25046 0.91776 0.10105 0.0
H1960 H 0.24425 0.88639 0.05961 0.0
H1961 H 0.22384 0.8658 0.08097 0.0
H1962 H 0.37135 0.0612 0.02409 0.0
H1963 H 0.36932 0.08354 0.01645 0.0
H1964 H 0.35365 0.0655 0.951 0.0
H1965 H 0.35605 0.04351 0.95826 0.0
H1966 H 0.37482 0.09567 0.95078 0.0
H1967 H 0.33124 0.08507 0.01345 0.0
H1968 H 0.34831 0.08706 0.02386 0.0
H1969 H 0.33609 0.07093 0.00617 0.0
C1970 C 0.36744 0.06199 0.00809 0.0
C1971 C 0.36384 0.05054 0.9918 0.0
C1972 C 0.3662 0.07473 0.00379 0.0
C1973 C 0.36113 0.07613 0.98323 0.0
C1974 C 0.35759 0.06471 0.96699 0.0
H1975 H 0.31783 0.11801 0.93094 0.0
H1976 H 0.32599 0.10399 0.95278 0.0
C1977 C 0.35895 0.0521 0.97119 0.0
C1978 C 0.35962 0.08946 0.97818 0.0
H1979 H 0.3396 0.10657 0.99126 0.0
C1980 C 0.36724 0.09818 0.95977 0.0
C1981 C 0.3497 0.0927 0.98991 0.0
C1982 C 0.34075 0.0834 0.00934 0.0
C1983 C 0.3647 0.1095 0.95211 0.0
C1984 C 0.35458 0.11257 0.9636 0.0
C1985 C 0.34747 0.10434 0.98261 0.0
C1986 C 0.34951 0.12248 0.95429 0.0
C1987 C 0.37214 0.11731 0.93097 0.0
C1988 C 0.35982 0.1379 0.94888 0.0
C1989 C 0.35516 0.14593 0.93613 0.0
C1990 C 0.3401 0.13867 0.92883 0.0
C1991 C 0.32955 0.12382 0.93615 0.0
C1992 C 0.33421 0.1158 0.94868 0.0
H1993 H 0.37719 0.11144 0.92202 0.0
H1994 H 0.36385 0.11759 0.91997 0.0
H1995 H 0.38134 0.12935 0.93464 0.0
H1996 H 0.37161 0.14344 0.95352 0.0
H1997 H 0.36352 0.15737 0.93073 0.0
H1998 H 0.96756 0.32028 0.97484 0.0
H1999 H 0.94505 0.29547 0.9652 0.0
H2000 H 0.93309 0.28732 0.03353 0.0
H2001 H 0.95554 0.3123 0.04337 0.0
H2002 H 0.93735 0.26635 0.97799 0.0
H2003 H 0.89399 0.27967 0.00515 0.0
H2004 H 0.91365 0.29443 0.00164 0.0
H2005 H 0.90776 0.28264 0.0254 0.0
C2006 C 0.96015 0.31326 0.98786 0.0
C2007 C 0.96335 0.31832 0.00989 0.0
C2008 C 0.94728 0.29906 0.98231 0.0
C2009 C 0.93728 0.28962 0.99861 0.0
C2010 C 0.94049 0.29454 0.02065 0.0
H2011 H 0.87001 0.19476 0.95561 0.0
H2012 H 0.88723 0.21572 0.98103 0.0
C2013 C 0.95338 0.30879 0.02624 0.0
C2014 C 0.92372 0.27453 0.9923 0.0
H2015 H 0.88507 0.25482 0.9901 0.0
C2016 C 0.9259 0.26374 0.98085 0.0
C2017 C 0.90882 0.27121 0.99597 0.0
C2018 C 0.90582 0.28261 0.00756 0.0
C2019 C 0.91364 0.24992 0.97235 0.0
C2020 C 0.89871 0.24665 0.9758 0.0
C2021 C 0.8965 0.25725 0.98778 0.0
C2022 C 0.88559 0.23332 0.96454 0.0
C2023 C 0.91684 0.23937 0.9587 0.0
C2024 C 0.87812 0.23607 0.94793 0.0
C2025 C 0.86819 0.22413 0.93371 0.0
C2026 C 0.86547 0.20922 0.93595 0.0
C2027 C 0.87179 0.20613 0.9538 0.0
C2028 C 0.88175 0.21812 0.9681 0.0
H2029 H 0.929 0.24495 0.95432 0.0
H2030 H 0.91364 0.22893 0.9681 0.0
H2031 H 0.91008 0.23566 0.94333 0.0
H2032 H 0.88088 0.24769 0.94489 0.0
H2033 H 0.86358 0.22678 0.91986 0.0
H2034 H 0.67929 0.61075 0.00559 0.0
H2035 H 0.70406 0.61476 0.99596 0.0
H2036 H 0.72284 0.66376 0.99437 0.0
H2037 H 0.6982 0.65991 0.00417 0.0
H2038 H 0.72005 0.62799 0.95811 0.0
H2039 H 0.75409 0.66109 0.03083 0.0
H2040 H 0.73364 0.65027 0.03091 0.0
H2041 H 0.74397 0.66909 0.01921 0.0
C2042 C 0.68872 0.6224 0.00342 0.0
C2043 C 0.68675 0.63501 0.00566 0.0
C2044 C 0.70288 0.62467 0.99795 0.0
C2045 C 0.71536 0.63957 0.99481 0.0
C2046 C 0.71346 0.65218 0.99723 0.0
H2047 H 0.80101 0.68644 0.93519 0.0
H2048 H 0.77886 0.6777 0.9587 0.0
C2049 C 0.69932 0.64994 0.00266 0.0
C2050 C 0.73007 0.64191 0.98729 0.0
H2051 H 0.76799 0.66228 0.99837 0.0
C2052 C 0.73051 0.63524 0.96709 0.0
C2053 C 0.7437 0.65138 -0.00095 0.0
C2054 C 0.74385 0.65825 0.02131 0.0
C2055 C 0.74428 0.63849 0.95772 0.0
C2056 C 0.75798 0.64843 0.9691 0.0
C2057 C 0.75749 0.65462 0.98972 0.0
C2058 C 0.7729 0.65394 0.95863 0.0
C2059 C 0.74409 0.63199 0.93512 0.0
C2060 C 0.77739 0.64365 0.95176 0.0
C2061 C 0.79009 0.64865 0.93826 0.0
C2062 C 0.79845 0.664 0.93154 0.0
C2063 C 0.79468 0.67452 0.94004 0.0
C2064 C 0.78204 0.66954 0.95348 0.0
H2065 H 0.73289 0.6269 0.92699 0.0
H2066 H 0.7528 0.64106 0.9245 0.0
H2067 H 0.74671 0.6228 0.93642 0.0
H2068 H 0.77063 0.63161 0.9559 0.0
H2069 H 0.79272 0.64031 0.93186 0.0
H2070 H 0.97881 0.67029 0.95676 0.0
H2071 H 0.9564 0.67183 0.95111 0.0
H2072 H 0.93613 0.64579 0.00937 0.0
H2073 H 0.95861 0.64417 0.01525 0.0
H2074 H 0.92623 0.64526 0.946 0.0
H2075 H 0.93116 0.68413 0.01554 0.0
H2076 H 0.94716 0.68332 0.00535 0.0
H2077 H 0.93305 0.66805 0.02166 0.0
C2078 C 0.96966 0.66497 0.96852 0.0
C2079 C 0.97051 0.65708 0.98645 0.0
C2080 C 0.95686 0.66588 0.96525 0.0
C2081 C 0.94467 0.65905 0.97991 0.0
C2082 C 0.94551 0.65133 0.99803 0.0
H2083 H 0.85666 0.6412 0.93778 0.0
H2084 H 0.8752 0.63924 0.95977 0.0
C2085 C 0.95833 0.65035 0.00128 0.0
C2086 C 0.93079 0.65927 0.97524 0.0
H2087 H 0.91007 0.67497 0.99202 0.0
C2088 C 0.92259 0.65162 0.95618 0.0
C2089 C 0.92616 0.66767 0.9885 0.0
C2090 C 0.93484 0.67637 0.00887 0.0
C2091 C 0.91005 0.65234 0.94975 0.0
C2092 C 0.90544 0.6608 0.96292 0.0
C2093 C 0.91351 0.66833 0.98216 0.0
C2094 C 0.89312 0.66296 0.95556 0.0
C2095 C 0.90219 0.64453 0.92843 0.0
C2096 C 0.89677 0.6772 0.94722 0.0
C2097 C 0.88615 0.67835 0.93488 0.0
C2098 C 0.87172 0.66532 0.9309 0.0
C2099 C 0.86761 0.65147 0.94106 0.0
C2100 C 0.87824 0.65031 0.9534 0.0
H2101 H 0.90872 0.64072 0.91845 0.0
H2102 H 0.89094 0.63424 0.93198 0.0
H2103 H 0.90036 0.6524 0.91853 0.0
H2104 H 0.9082 0.68707 0.94862 0.0
H2105 H 0.88965 0.68904 0.92677 0.0
H2106 H 0.37942 0.33223 0.98083 0.0
H2107 H 0.37402 0.30596 0.97573 0.0
H2108 H 0.32847 0.28799 -0.00105 0.0
H2109 H 0.33371 0.31427 0.00392 0.0
H2110 H 0.36355 0.28131 0.00609 0.0
H2111 H 0.32291 0.26738 0.93776 0.0
H2112 H 0.33574 0.28689 0.94741 0.0
H2113 H 0.31922 0.27424 0.96308 0.0
C2114 C 0.36825 0.32271 0.98493 0.0
C2115 C 0.35696 0.32537 0.99261 0.0
C2116 C 0.36521 0.3077 0.98209 0.0
C2117 C 0.35081 0.29503 0.98676 0.0
C2118 C 0.33961 0.29761 0.99498 0.0
H2119 H 0.32013 0.2016 0.93861 0.0
H2120 H 0.32049 0.22126 0.96323 0.0
C2121 C 0.34264 0.31264 0.99784 0.0
C2122 C 0.34749 0.2792 0.98209 0.0
H2123 H 0.32831 0.24858 0.94655 0.0
C2124 C 0.3557 0.27404 0.99326 0.0
C2125 C 0.33716 0.26969 0.96548 0.0
C2126 C 0.32829 0.2748 0.95258 0.0
C2127 C 0.35422 0.25983 0.98777 0.0
C2128 C 0.34448 0.2507 0.97037 0.0
C2129 C 0.33572 0.25553 0.95996 0.0
C2130 C 0.34465 0.23729 0.96059 0.0
C2131 C 0.36327 0.25488 0.00042 0.0
C2132 C 0.35817 0.23948 0.95166 0.0
C2133 C 0.35796 0.22826 0.9378 0.0
C2134 C 0.34424 0.21465 0.93256 0.0
C2135 C 0.33088 0.21187 0.94281 0.0
C2136 C 0.33107 0.22315 0.95669 0.0
H2137 H 0.36538 0.25964 0.01749 0.0
H2138 H 0.35744 0.24213 0.00095 0.0
H2139 H 0.37444 0.25938 0.99241 0.0
H2140 H 0.36872 0.25039 0.95391 0.0
H2141 H 0.36834 0.23075 0.92971 0.0
H2142 H 0.69513 0.03697 0.03589 0.0
H2143 H 0.71988 0.05961 0.0273 0.0
H2144 H 0.70779 0.05341 0.95884 0.0
H2145 H 0.68304 0.03096 0.96723 0.0
H2146 H 0.74288 0.06237 -0.00016 0.0
H2147 H 0.72135 0.09843 0.97131 0.0
H2148 H 0.70981 0.08114 0.98661 0.0
H2149 H 0.71241 0.07994 0.95756 0.0
C2150 C 0.69772 0.04045 0.01901 0.0
C2151 C 0.68704 0.03219 0.00227 0.0
C2152 C 0.71188 0.05338 0.01414 0.0
C2153 C 0.71559 0.05837 0.99249 0.0
C2154 C 0.70505 0.04999 0.97573 0.0
H2155 H 0.79453 0.10869 0.918 0.0
H2156 H 0.77511 0.0905 0.94281 0.0
C2157 C 0.69093 0.03709 0.98056 0.0
C2158 C 0.73053 0.07214 0.98716 0.0
H2159 H 0.74667 0.10623 0.96061 0.0
C2160 C 0.74375 0.07208 0.99156 0.0
C2161 C 0.73172 0.08499 0.97683 0.0
C2162 C 0.71807 0.08624 0.973 0.0
C2163 C 0.75802 0.08408 0.98464 0.0
C2164 C 0.75905 0.09633 0.97276 0.0
C2165 C 0.74593 0.09682 0.96959 0.0
C2166 C 0.77313 0.10778 0.9613 0.0
C2167 C 0.77181 0.08338 0.98986 0.0
C2168 C 0.77881 0.12367 0.96365 0.0
C2169 C 0.78997 0.13412 0.94937 0.0
C2170 C 0.79548 0.1288 0.93244 0.0
C2171 C 0.79059 0.11308 0.93113 0.0
C2172 C 0.7795 0.10268 0.94537 0.0
H2173 H 0.77018 0.07708 0.00522 0.0
H2174 H 0.77372 0.07706 0.9764 0.0
H2175 H 0.78208 0.09508 0.99161 0.0
H2176 H 0.774 0.12787 0.97572 0.0
H2177 H 0.79339 0.14615 0.95046 0.0
H2178 H 0.67138 0.96314 0.9766 0.0
H2179 H 0.67181 0.94015 0.9858 0.0
H2180 H 0.63085 0.92357 0.02334 0.0
H2181 H 0.63022 0.94635 0.01402 0.0
H2182 H 0.67419 0.93207 0.02707 0.0
H2183 H 0.62154 0.88502 0.98866 0.0
H2184 H 0.62984 0.90494 0.98153 0.0
H2185 H 0.61833 0.89763 0.00571 0.0
C2186 C 0.66233 0.95449 0.98656 0.0
C2187 C 0.65076 0.95662 0.99458 0.0
C2188 C 0.66259 0.94135 0.99177 0.0
C2189 C 0.65123 0.93 0.00496 0.0
C2190 C 0.63954 0.93196 0.01267 0.0
H2191 H 0.63642 0.8604 0.09046 0.0
H2192 H 0.63393 0.87613 0.0633 0.0
C2193 C 0.63926 0.94509 0.00748 0.0
C2194 C 0.65235 0.91687 0.01244 0.0
H2195 H 0.63225 0.87772 0.0172 0.0
C2196 C 0.66517 0.92016 0.02453 0.0
C2197 C 0.64056 0.90133 0.00914 0.0
C2198 C 0.62686 0.89699 0.99536 0.0
C2199 C 0.66614 0.90846 0.03449 0.0
C2200 C 0.65409 0.89295 0.0319 0.0
C2201 C 0.64152 0.88958 0.01908 0.0
C2202 C 0.65361 0.88048 0.04463 0.0
C2203 C 0.67967 0.91291 0.04881 0.0
C2204 C 0.66491 0.87687 0.04232 0.0
C2205 C 0.6663 0.86779 0.05784 0.0
C2206 C 0.65637 0.86221 0.07576 0.0
C2207 C 0.64417 0.86453 0.07671 0.0
C2208 C 0.64278 0.87356 0.06125 0.0
H2209 H 0.68659 0.92553 0.05221 0.0
H2210 H 0.67603 0.90695 0.06468 0.0
H2211 H 0.687 0.90942 0.04043 0.0
H2212 H 0.67323 0.88189 0.02937 0.0
H2213 H 0.67588 0.86628 0.05688 0.0
H2214 H 0.06116 0.67816 0.03662 0.0
H2215 H 0.08302 0.70426 0.04172 0.0
H2216 H 0.05983 0.72236 0.00735 0.0
H2217 H 0.03774 0.69627 0.00251 0.0
H2218 H 0.10165 0.72714 0.01195 0.0
H2219 H 0.07028 0.74569 0.06619 0.0
H2220 H 0.06287 0.72575 0.05877 0.0
H2221 H 0.06216 0.73838 0.03952 0.0
C2222 C 0.06069 0.68767 0.03008 0.0
C2223 C 0.04763 0.68514 0.01937 0.0
C2224 C 0.07324 0.70258 0.03294 0.0
C2225 C 0.07299 0.71527 0.02516 0.0
C2226 C 0.06016 0.71276 0.01383 0.0
H2227 H 0.13551 0.81058 0.06671 0.0
H2228 H 0.11846 0.7896 0.04134 0.0
C2229 C 0.04756 0.69783 0.01104 0.0
C2230 C 0.08593 0.73109 0.02987 0.0
H2231 H 0.09587 0.76378 0.05987 0.0
C2232 C 0.10038 0.73524 0.02223 0.0
C2233 C 0.08424 0.74166 0.04321 0.0
C2234 C 0.0691 0.73767 0.05258 0.0
C2235 C 0.11326 0.74953 0.02805 0.0
C2236 C 0.11164 0.75982 0.0421 0.0
C2237 C 0.0971 0.75593 0.04895 0.0
C2238 C 0.12479 0.77372 0.05232 0.0
C2239 C 0.12849 0.75336 0.01938 0.0
C2240 C 0.13451 0.77202 0.06615 0.0
C2241 C 0.14428 0.78401 0.08046 0.0
C2242 C 0.14449 0.79788 0.08116 0.0
C2243 C 0.13577 0.8001 0.06604 0.0
C2244 C 0.12595 0.78808 0.05172 0.0
H2245 H 0.12735 0.74731 0.00344 0.0
H2246 H 0.13614 0.76595 0.01722 0.0
H2247 H 0.13381 0.74951 0.03118 0.0
H2248 H 0.13358 0.76098 0.06733 0.0
H2249 H 0.15064 0.78195 0.09238 0.0
H2250 H 0.31605 0.37372 0.0183 0.0
H2251 H 0.29165 0.37075 0.02731 0.0
H2252 H 0.26854 0.3266 0.99348 0.0
H2253 H 0.29292 0.32939 0.98449 0.0
H2254 H 0.26637 0.365 -0.00011 0.0
H2255 H 0.25182 0.31744 0.05698 0.0
H2256 H 0.27082 0.32997 0.04707 0.0
H2257 H 0.25674 0.31514 0.02939 0.0
C2258 C 0.30581 0.36342 0.0126 0.0
C2259 C 0.30646 0.35172 0.00085 0.0
C2260 C 0.29186 0.36177 0.01771 0.0
C2261 C 0.2783 0.34838 0.01128 0.0
C2262 C 0.27889 0.33694 0.99884 0.0
H2263 H 0.19097 0.3219 0.07128 0.0
H2264 H 0.2082 0.32194 0.04319 0.0
C2265 C 0.29284 0.33858 0.99367 0.0
C2266 C 0.26363 0.34616 0.01874 0.0
H2267 H 0.23492 0.32602 0.05499 0.0
C2268 C 0.25937 0.35636 0.01173 0.0
C2269 C 0.25445 0.33479 0.03404 0.0
C2270 C 0.25866 0.32374 0.04249 0.0
C2271 C 0.24641 0.35579 0.02014 0.0
C2272 C 0.23769 0.34495 0.03634 0.0
C2273 C 0.24156 0.33428 0.04252 0.0
C2274 C 0.22586 0.34574 0.04927 0.0
C2275 C 0.24234 0.36695 0.01183 0.0
C2276 C 0.22983 0.35921 0.06149 0.0
C2277 C 0.22002 0.3592 0.07733 0.0
C2278 C 0.20606 0.3457 0.08138 0.0
C2279 C 0.20157 0.33251 0.06818 0.0
C2280 C 0.21145 0.33251 0.05228 0.0
H2281 H 0.24612 0.37004 0.99461 0.0
H2282 H 0.22996 0.36214 0.01269 0.0
H2283 H 0.24819 0.37772 0.02198 0.0
H2284 H 0.24098 0.36944 0.05995 0.0
H2285 H 0.22378 0.36944 0.08753 0.0
H2286 H 0.6937 0.66149 0.34728 0.0
H2287 H 0.71668 0.66204 0.35753 0.0
H2288 H 0.74007 0.71134 0.36717 0.0
H2289 H 0.71703 0.71088 0.35736 0.0
H2290 H 0.74587 0.67719 0.34025 0.0
H2291 H 0.74581 0.6971 0.42595 0.0
H2292 H 0.72978 0.69018 0.40788 0.0
H2293 H 0.74594 0.70935 0.40524 0.0
C2294 C 0.70373 0.67247 0.35153 0.0
C2295 C 0.70346 0.68613 0.35172 0.0
C2296 C 0.71688 0.67276 0.35733 0.0
C2297 C 0.73003 0.68669 0.36345 0.0
C2298 C 0.72996 0.70041 0.36295 0.0
H2299 H 0.8114 0.69983 0.42632 0.0
H2300 H 0.79544 0.70539 0.40377 0.0
C2301 C 0.71679 0.70013 0.35725 0.0
C2302 C 0.7436 0.68669 0.37097 0.0
H2303 H 0.76593 0.69392 0.41581 0.0
C2304 C 0.75033 0.68094 0.35673 0.0
C2305 C 0.74943 0.69161 0.39247 0.0
C2306 C 0.74232 0.69729 0.40887 0.0
C2307 C 0.76261 0.67981 0.36348 0.0
C2308 C 0.76819 0.68438 0.38513 0.0
C2309 C 0.76174 0.69054 0.39915 0.0
C2310 C 0.77966 0.68155 0.39446 0.0
C2311 C 0.76946 0.67367 0.34742 0.0
C2312 C 0.77638 0.66639 0.39613 0.0
C2313 C 0.78551 0.66326 0.40886 0.0
C2314 C 0.7981 0.67523 0.42007 0.0
C2315 C 0.80196 0.69049 0.41734 0.0
C2316 C 0.79278 0.69363 0.40465 0.0
H2317 H 0.76745 0.67545 0.33021 0.0
H2318 H 0.78184 0.67926 0.3501 0.0
H2319 H 0.76412 0.6611 0.34963 0.0
H2320 H 0.76615 0.65685 0.38892 0.0
H2321 H 0.78213 0.65138 0.41124 0.0
H2322 H 0.34527 0.03003 0.36168 0.0
H2323 H 0.35143 0.05623 0.37056 0.0
H2324 H 0.30718 0.0444 0.34855 0.0
H2325 H 0.30107 0.01829 0.33906 0.0
H2326 H 0.32956 0.07354 0.33594 0.0
H2327 H 0.33441 0.0658 0.42453 0.0
H2328 H 0.34688 0.06275 0.40751 0.0
H2329 H 0.32672 0.04996 0.40489 0.0
C2330 C 0.33687 0.03301 0.35862 0.0
C2331 C 0.32261 0.02201 0.3499 0.0
C2332 C 0.34039 0.04799 0.36377 0.0
C2333 C 0.32965 0.05219 0.36063 0.0
C2334 C 0.31562 0.0414 0.35119 0.0
H2335 H 0.31691 0.12497 0.40541 0.0
H2336 H 0.31653 0.10477 0.3822 0.0
C2337 C 0.31213 0.02646 0.34584 0.0
C2338 C 0.33275 0.06756 0.36816 0.0
H2339 H 0.34075 0.09053 0.41395 0.0
C2340 C 0.33205 0.0773 0.35298 0.0
C2341 C 0.33588 0.07239 0.39044 0.0
C2342 C 0.33588 0.06214 0.40784 0.0
C2343 C 0.33454 0.0918 0.35948 0.0
C2344 C 0.33772 0.0966 0.38172 0.0
C2345 C 0.33852 0.08691 0.39682 0.0
C2346 C 0.33939 0.11117 0.39034 0.0
C2347 C 0.33383 0.1019 0.34256 0.0
C2348 C 0.35255 0.12184 0.40191 0.0
C2349 C 0.35276 0.13337 0.41509 0.0
C2350 C 0.33982 0.1344 0.41687 0.0
C2351 C 0.32713 0.12462 0.40381 0.0
C2352 C 0.32691 0.11305 0.39063 0.0
H2353 H 0.33516 0.09843 0.32567 0.0
H2354 H 0.32266 0.10089 0.34358 0.0
H2355 H 0.34273 0.11417 0.3456 0.0
H2356 H 0.36226 0.12053 0.40204 0.0
H2357 H 0.36253 0.14059 0.42539 0.0
H2358 H 0.98522 0.31695 0.37045 0.0
H2359 H 0.95932 0.29632 0.37873 0.0
H2360 H 0.96549 0.26432 0.3393 0.0
H2361 H 0.99142 0.28481 0.33102 0.0
H2362 H 0.9343 0.27613 0.34915 0.0
H2363 H 0.95271 0.24456 0.40051 0.0
H2364 H 0.96536 0.26437 0.39321 0.0
H2365 H 0.96053 0.24916 0.37337 0.0
C2366 C 0.98108 0.30553 0.3635 0.0
C2367 C 0.99046 0.30252 0.35021 0.0
C2368 C 0.96625 0.29378 0.36818 0.0
C2369 C 0.96054 0.27877 0.3598 0.0
C2370 C 0.96974 0.27578 0.34616 0.0
H2371 H 0.87929 0.19542 0.4045 0.0
H2372 H 0.89988 0.21217 0.37959 0.0
C2373 C 0.98456 0.28753 0.34142 0.0
C2374 C 0.94515 0.26618 0.36597 0.0
H2375 H 0.92659 0.23382 0.39647 0.0
C2376 C 0.93257 0.2668 0.35936 0.0
C2377 C 0.94292 0.25396 0.37913 0.0
C2378 C 0.95606 0.25293 0.38715 0.0
C2379 C 0.91782 0.25563 0.36587 0.0
C2380 C 0.91564 0.24372 0.37974 0.0
C2381 C 0.9282 0.24286 0.38571 0.0
C2382 C 0.90087 0.23309 0.39036 0.0
C2383 C 0.90474 0.25674 0.35788 0.0
C2384 C 0.89413 0.23914 0.40396 0.0
C2385 C 0.88231 0.22958 0.41797 0.0
C2386 C 0.8771 0.2138 0.41885 0.0
C2387 C 0.88296 0.2075 0.40395 0.0
C2388 C 0.89481 0.21709 0.38987 0.0
H2389 H 0.90731 0.26239 0.34176 0.0
H2390 H 0.89422 0.24521 0.35632 0.0
H2391 H 0.90267 0.26388 0.36973 0.0
H2392 H 0.89875 0.25144 0.40505 0.0
H2393 H 0.87804 0.23473 0.42939 0.0
H2394 H 0.99888 0.37068 0.33433 0.0
H2395 H 1.0004 0.39451 0.32446 0.0
H2396 H 0.04912 0.41867 0.32705 0.0
H2397 H 0.04773 0.39479 0.33664 0.0
H2398 H 0.01386 0.4237 0.34599 0.0
H2399 H 0.04053 0.42679 0.26505 0.0
H2400 H 0.03188 0.40966 0.28119 0.0
H2401 H 0.05026 0.42576 0.28846 0.0
C2402 C 0.00994 0.38105 0.33287 0.0
C2403 C 0.02319 0.38077 0.33608 0.0
C2404 C 0.01077 0.39468 0.3273 0.0
C2405 C 0.02486 0.40832 0.32475 0.0
C2406 C 0.03813 0.40822 0.32857 0.0
H2407 H 0.03998 0.4914 0.26198 0.0
H2408 H 0.04485 0.47557 0.28617 0.0
C2409 C 0.03731 0.39457 0.33412 0.0
C2410 C 0.02554 0.42242 0.31735 0.0
H2411 H 0.03557 0.44624 0.27386 0.0
C2412 C 0.01873 0.42873 0.33031 0.0
C2413 C 0.03195 0.42902 0.29694 0.0
C2414 C 0.03897 0.42244 0.28197 0.0
C2415 C 0.01791 0.44127 0.3232 0.0
C2416 C 0.02382 0.44749 0.30242 0.0
C2417 C 0.03112 0.44154 0.28986 0.0
C2418 C 0.02117 0.45895 0.2922 0.0
C2419 C 0.0106 0.44765 0.33793 0.0
C2420 C 0.00629 0.45517 0.28816 0.0
C2421 C 0.00355 0.46425 0.27454 0.0
C2422 C 0.01563 0.47726 0.26474 0.0
C2423 C 0.03053 0.48163 0.26983 0.0
C2424 C 0.03329 0.47252 0.28346 0.0
H2425 H 0.01157 0.44558 0.35545 0.0
H2426 H 0.01577 0.46021 0.33574 0.0
H2427 H 0.99838 0.44174 0.33389 0.0
H2428 H 0.99675 0.44458 0.29418 0.0
H2429 H 0.99198 0.46047 0.27034 0.0
H2430 H 0.61858 0.64882 0.37909 0.0
H2431 H 0.59612 0.62399 0.36882 0.0
H2432 H 0.61377 0.62774 0.30338 0.0
H2433 H 0.63599 0.6527 0.31332 0.0
H2434 H 0.5844 0.61922 0.30298 0.0
H2435 H 0.59247 0.5827 0.36033 0.0
H2436 H 0.5916 0.59829 0.3731 0.0
H2437 H 0.60709 0.60237 0.35518 0.0
C2438 C 0.61771 0.64431 0.36255 0.0
C2439 C 0.6291 0.65273 0.34703 0.0
C2440 C 0.6049 0.63007 0.35674 0.0
C2441 C 0.60334 0.62389 0.33541 0.0
C2442 C 0.61472 0.63227 0.31995 0.0
H2443 H 0.55611 0.53696 0.27314 0.0
H2444 H 0.57159 0.55911 0.2974 0.0
C2445 C 0.62744 0.64654 0.32566 0.0
C2446 C 0.58976 0.60888 0.32878 0.0
H2447 H 0.57073 0.57022 0.33789 0.0
C2448 C 0.58131 0.60851 0.31073 0.0
C2449 C 0.58578 0.59492 0.33891 0.0
C2450 C 0.59476 0.59449 0.35783 0.0
C2451 C 0.56942 0.59456 0.30193 0.0
C2452 C 0.56552 0.58055 0.31189 0.0
C2453 C 0.5736 0.58097 0.33047 0.0
C2454 C 0.55473 0.5654 0.3013 0.0
C2455 C 0.56178 0.59492 0.28125 0.0
C2456 C 0.53974 0.56097 0.29647 0.0
C2457 C 0.53087 0.5483 0.28238 0.0
C2458 C 0.53688 0.53986 0.27316 0.0
C2459 C 0.55128 0.54338 0.27988 0.0
C2460 C 0.56012 0.55603 0.29377 0.0
H2461 H 0.56812 0.60632 0.27339 0.0
H2462 H 0.56061 0.58602 0.26918 0.0
H2463 H 0.55028 0.5925 0.28528 0.0
H2464 H 0.53521 0.56782 0.30255 0.0
H2465 H 0.51981 0.54584 0.27746 0.0
H2466 H 0.35573 0.96538 0.33601 0.0
H2467 H 0.37824 0.96478 0.32548 0.0
H2468 H 0.40622 0.01356 0.33958 0.0
H2469 H 0.38387 0.0142 0.35063 0.0
H2470 H 0.39673 0.97945 0.29229 0.0
H2471 H 0.43051 0.99855 0.3686 0.0
H2472 H 0.41074 0.99248 0.36814 0.0
H2473 H 0.42506 0.01182 0.36093 0.0
C2474 C 0.3667 0.97595 0.33718 0.0
C2475 C 0.36799 0.98985 0.34418 0.0
C2476 C 0.37956 0.97557 0.33118 0.0
C2477 C 0.39398 0.98906 0.33209 0.0
C2478 C 0.3953 0.00291 0.33932 0.0
H2479 H 0.47866 0.02618 0.27087 0.0
H2480 H 0.45749 0.0199 0.2955 0.0
C2481 C 0.38246 0.00328 0.34546 0.0
C2482 C 0.40744 0.98901 0.32353 0.0
H2483 H 0.44428 1.00121 0.33508 0.0
C2484 C 0.40702 0.9839 0.30181 0.0
C2485 C 0.42088 0.99481 0.33595 0.0
C2486 C 0.42179 0.99957 0.35977 0.0
C2487 C 0.41989 0.98522 0.29179 0.0
C2488 C 0.43351 0.99166 0.3039 0.0
C2489 C 0.43381 0.99624 0.32587 0.0
C2490 C 0.44785 0.99527 0.29311 0.0
C2491 C 0.41905 0.98049 0.26793 0.0
C2492 C 0.44986 0.98354 0.28453 0.0
C2493 C 0.46205 0.98713 0.27057 0.0
C2494 C 0.47231 0.00249 0.26502 0.0
C2495 C 0.47092 0.01426 0.27502 0.0
C2496 C 0.45883 0.01068 0.28904 0.0
H2497 H 0.40829 0.97779 0.26009 0.0
H2498 H 0.42864 0.98978 0.25867 0.0
H2499 H 0.41986 0.97008 0.26655 0.0
H2500 H 0.44154 0.97158 0.28763 0.0
H2501 H 0.46281 0.97787 0.26285 0.0
H2502 H 0.62491 0.97037 0.32157 0.0
H2503 H 0.60324 0.9724 0.31178 0.0
H2504 H 0.62377 0.01676 0.34486 0.0
H2505 H 0.64557 0.01491 0.35461 0.0
H2506 H 0.5828 0.9771 0.33852 0.0
H2507 H 0.61666 0.02519 0.2816 0.0
H2508 H 0.62342 0.0134 0.29174 0.0
H2509 H 0.62367 0.02799 0.30918 0.0
C2510 C 0.62481 0.98053 0.32689 0.0
C2511 C 0.63707 0.99254 0.33872 0.0
C2512 C 0.61238 0.98165 0.32132 0.0
C2513 C 0.61198 0.99481 0.32735 0.0
C2514 C 0.62395 0.0066 0.33976 0.0
H2515 H 0.54974 0.01931 0.27237 0.0
H2516 H 0.5677 0.01943 0.29843 0.0
C2517 C 0.63638 0.00549 0.34538 0.0
C2518 C 0.59929 0.99637 0.31983 0.0
H2519 H 0.59077 0.01615 0.28449 0.0
C2520 C 0.58454 0.98573 0.32687 0.0
C2521 C 0.6016 0.0077 0.30475 0.0
C2522 C 0.61715 0.01918 0.29619 0.0
C2523 C 0.57199 0.98591 0.31885 0.0
C2524 C 0.57423 0.99682 0.30304 0.0
C2525 C 0.58905 0.00784 0.29669 0.0
C2526 C 0.56144 0.99594 0.29089 0.0
C2527 C 0.55645 0.97433 0.32727 0.0
C2528 C 0.55168 0.9826 0.27846 0.0
C2529 C 0.54145 0.98252 0.26375 0.0
C2530 C 0.5408 0.9958 0.26104 0.0
C2531 C 0.54987 0.00886 0.27441 0.0
C2532 C 0.56019 0.00896 0.28915 0.0
H2533 H 0.55704 0.97091 0.3442 0.0
H2534 H 0.54884 0.97892 0.32723 0.0
H2535 H 0.55142 0.96379 0.31662 0.0
H2536 H 0.55263 0.97254 0.27905 0.0
H2537 H 0.53466 0.97235 0.25347 0.0
H2538 H 0.99915 0.64851 0.31697 0.0
H2539 H 0.99375 0.62255 0.30839 0.0
H2540 H 0.03459 0.63312 0.34184 0.0
H2541 H 0.03992 0.65899 0.35091 0.0
H2542 H 0.01105 0.61557 0.28359 0.0
H2543 H 0.00458 0.59122 0.36596 0.0
H2544 H 0.00432 0.60852 0.36157 0.0
H2545 H 0.02202 0.60927 0.36267 0.0
C2546 C 0.0069 0.64527 0.32273 0.0
C2547 C 0.01998 0.65585 0.33462 0.0
C2548 C 0.00378 0.6304 0.31785 0.0
C2549 C 0.01363 0.62578 0.32476 0.0
C2550 C 0.02661 0.63626 0.33682 0.0
H2551 H 0.02864 0.55481 0.27835 0.0
H2552 H 0.02864 0.57482 0.30162 0.0
C2553 C 0.02971 0.65112 0.34182 0.0
C2554 C 0.011 0.61052 0.31763 0.0
H2555 H 0.00722 0.57722 0.33585 0.0
C2556 C 0.01004 0.60713 0.29506 0.0
C2557 C 0.00978 0.59953 0.3326 0.0
C2558 C 0.01008 0.60223 0.35706 0.0
C2559 C 0.0082 0.59325 0.287 0.0
C2560 C 0.0071 0.58234 0.30192 0.0
C2561 C 0.008 0.58561 0.32451 0.0
C2562 C 0.00557 0.56777 0.29382 0.0
C2563 C 0.0078 0.5905 0.2625 0.0
C2564 C 0.9923 0.55664 0.28293 0.0
C2565 C 0.99228 0.54521 0.26976 0.0
C2566 C 0.0055 0.54471 0.2675 0.0
C2567 C 0.01824 0.5548 0.28026 0.0
C2568 C 0.01827 0.56628 0.29341 0.0
H2569 H 0.0114 0.60113 0.25328 0.0
H2570 H 0.01524 0.58609 0.2578 0.0
H2571 H 0.99608 0.58168 0.2574 0.0
H2572 H 0.9824 0.55763 0.28307 0.0
H2573 H 0.98245 0.53773 0.2597 0.0
H2574 H 0.34958 0.36623 0.30304 0.0
H2575 H 0.37476 0.38803 0.29479 0.0
H2576 H 0.3888 0.38921 0.36138 0.0
H2577 H 0.36349 0.36742 0.36992 0.0
H2578 H 0.39746 0.41826 0.34624 0.0
H2579 H 0.41359 0.38744 0.28677 0.0
H2580 H 0.39571 0.38517 0.28021 0.0
H2581 H 0.39777 0.37749 0.30524 0.0
C2582 C 0.35801 0.37106 0.31596 0.0
C2583 C 0.35451 0.365 0.33713 0.0
C2584 C 0.37244 0.38348 0.31116 0.0
C2585 C 0.38375 0.39007 0.32735 0.0
C2586 C 0.38028 0.38421 0.34859 0.0
H2587 H 0.47346 0.45728 0.27603 0.0
H2588 H 0.45506 0.4372 0.30042 0.0
C2589 C 0.36581 0.37175 0.35342 0.0
C2590 C 0.39901 0.40336 0.32207 0.0
H2591 H 0.42779 0.41507 0.2852 0.0
C2592 C 0.40423 0.41753 0.33314 0.0
C2593 C 0.40803 0.40234 0.30533 0.0
C2594 C 0.40358 0.38725 0.29386 0.0
C2595 C 0.41773 0.43091 0.32691 0.0
C2596 C 0.42609 0.43013 0.30895 0.0
C2597 C 0.42137 0.41575 0.29887 0.0
C2598 C 0.43864 0.44414 0.2986 0.0
C2599 C 0.42274 0.44579 0.33938 0.0
C2600 C 0.43577 0.45502 0.29009 0.0
C2601 C 0.44626 0.46646 0.27635 0.0
C2602 C 0.45981 0.46723 0.27074 0.0
C2603 C 0.4632 0.45707 0.28043 0.0
C2604 C 0.45265 0.44554 0.29419 0.0
H2605 H 0.41879 0.44361 0.35665 0.0
H2606 H 0.43525 0.45352 0.33927 0.0
H2607 H 0.41769 0.45181 0.33166 0.0
H2608 H 0.42495 0.45401 0.29276 0.0
H2609 H 0.44332 0.47405 0.26882 0.0
H2610 H 0.2997 0.28399 0.35716 0.0
H2611 H 0.30132 0.26218 0.36879 0.0
H2612 H 0.33517 0.27212 0.31945 0.0
H2613 H 0.33383 0.29419 0.30792 0.0
H2614 H 0.29688 0.23575 0.34656 0.0
H2615 H 0.35631 0.27283 0.37583 0.0
H2616 H 0.34481 0.2806 0.36892 0.0
H2617 H 0.35314 0.27493 0.34761 0.0
C2618 C 0.30745 0.28153 0.34868 0.0
C2619 C 0.31675 0.29096 0.33174 0.0
C2620 C 0.30833 0.26901 0.35533 0.0
C2621 C 0.31853 0.26565 0.34523 0.0
C2622 C 0.32743 0.27468 0.32777 0.0
H2623 H 0.34458 0.2031 0.39643 0.0
H2624 H 0.34021 0.21771 0.36917 0.0
C2625 C 0.3266 0.28726 0.32114 0.0
C2626 C 0.32013 0.25304 0.35365 0.0
H2627 H 0.3447 0.24621 0.38036 0.0
C2628 C 0.30738 0.238 0.35375 0.0
C2629 C 0.33385 0.25596 0.36296 0.0
C2630 C 0.3478 0.27195 0.36405 0.0
C2631 C 0.30788 0.22591 0.36339 0.0
C2632 C 0.32142 0.22897 0.37345 0.0
C2633 C 0.33434 0.24385 0.37252 0.0
C2634 C 0.32206 0.21755 0.38728 0.0
C2635 C 0.29383 0.21001 0.36298 0.0
C2636 C 0.31305 0.21227 0.40617 0.0
C2637 C 0.31553 0.20398 0.42162 0.0
C2638 C 0.32707 0.2008 0.41851 0.0
C2639 C 0.33546 0.2052 0.39899 0.0
C2640 C 0.33304 0.21363 0.38353 0.0
H2641 H 0.28646 0.20837 0.34882 0.0
H2642 H 0.29672 0.20095 0.36212 0.0
H2643 H 0.28725 0.20848 0.37818 0.0
H2644 H 0.30476 0.21543 0.4097 0.0
H2645 H 0.30905 0.20085 0.43669 0.0
H2646 H 0.72689 0.01214 0.3759 0.0
H2647 H 0.74921 0.03799 0.38034 0.0
H2648 H 0.7286 0.05603 0.33979 0.0
H2649 H 0.70603 0.03018 0.33555 0.0
H2650 H 0.76919 0.05896 0.34938 0.0
H2651 H 0.73874 0.08218 0.39616 0.0
H2652 H 0.73059 0.06182 0.39106 0.0
H2653 H 0.73112 0.07382 0.36962 0.0
C2654 C 0.72706 0.02158 0.36791 0.0
C2655 C 0.7146 0.0191 0.35553 0.0
C2656 C 0.73988 0.03635 0.37039 0.0
C2657 C 0.74051 0.04896 0.36058 0.0
C2658 C 0.72825 0.0465 0.34779 0.0
H2659 H 0.80604 0.14448 0.39806 0.0
H2660 H 0.78907 0.12338 0.37277 0.0
C2661 C 0.71537 0.03171 0.34536 0.0
C2662 C 0.75384 0.06467 0.36454 0.0
H2663 H 0.76478 0.09881 0.39113 0.0
C2664 C 0.76823 0.06776 0.35827 0.0
C2665 C 0.75256 0.07617 0.37603 0.0
C2666 C 0.73746 0.07338 0.38379 0.0
C2667 C 0.78142 0.08186 0.36382 0.0
C2668 C 0.78017 0.09307 0.3762 0.0
C2669 C 0.76574 0.09026 0.3815 0.0
C2670 C 0.79347 0.10677 0.38654 0.0
C2671 C 0.79656 0.08451 0.35671 0.0
C2672 C 0.80214 0.10464 0.40191 0.0
C2673 C 0.81185 0.11668 0.4162 0.0
C2674 C 0.81305 0.13102 0.41538 0.0
C2675 C 0.80551 0.1336 0.39868 0.0
C2676 C 0.79573 0.12152 0.38439 0.0
H2677 H 0.7955 0.0779 0.34137 0.0
H2678 H 0.80488 0.09691 0.35407 0.0
H2679 H 0.801 0.08047 0.36964 0.0
H2680 H 0.80037 0.09333 0.40426 0.0
H2681 H 0.81733 0.11436 0.42924 0.0
H2682 H 0.98212 0.70151 0.36457 0.0
H2683 H 0.95737 0.69682 0.37572 0.0
H2684 H 0.93725 0.6689 0.31728 0.0
H2685 H 0.96203 0.67362 0.30584 0.0
H2686 H 0.92686 0.68966 0.32866 0.0
H2687 H 0.92393 0.6542 0.39816 0.0
H2688 H 0.94087 0.67296 0.39767 0.0
H2689 H 0.93727 0.65916 0.37599 0.0
C2690 C 0.97248 0.69445 0.35397 0.0
C2691 C 0.97405 0.68781 0.3344 0.0
C2692 C 0.95833 0.69176 0.36041 0.0
C2693 C 0.94546 0.68233 0.34747 0.0
C2694 C 0.94704 0.67616 0.32753 0.0
H2695 H 0.85776 0.64375 0.40986 0.0
H2696 H 0.87702 0.64614 0.38383 0.0
C2697 C 0.96121 0.67885 0.32106 0.0
C2698 C 0.93029 0.67841 0.35535 0.0
H2699 H 0.90562 0.66144 0.39759 0.0
C2700 C 0.92211 0.68337 0.34362 0.0
C2701 C 0.924 0.66996 0.37462 0.0
C2702 C 0.93188 0.66362 0.38727 0.0
C2703 C 0.90804 0.6806 0.35121 0.0
C2704 C 0.90213 0.67282 0.37111 0.0
C2705 C 0.91011 0.66741 0.38233 0.0
C2706 C 0.88826 0.67092 0.38159 0.0
C2707 C 0.89966 0.68604 0.33787 0.0
C2708 C 0.88769 0.68393 0.38811 0.0
C2709 C 0.87652 0.68251 0.40268 0.0
C2710 C 0.86585 0.66808 0.41103 0.0
C2711 C 0.86569 0.65493 0.40321 0.0
C2712 C 0.87677 0.65633 0.38853 0.0
H2713 H 0.90292 0.68703 0.3203 0.0
H2714 H 0.88722 0.67811 0.33918 0.0
H2715 H 0.90258 0.69761 0.34405 0.0
H2716 H 0.8966 0.69534 0.38345 0.0
H2717 H 0.87709 0.69283 0.40898 0.0
H2718 H 0.36045 0.99448 0.68215 0.0
H2719 H 0.38356 0.99583 0.69383 0.0
H2720 H 0.40514 0.04488 0.70491 0.0
H2721 H 0.38192 0.04359 0.69373 0.0
H2722 H 0.41292 0.0118 0.67839 0.0
H2723 H 0.41034 0.0307 0.76382 0.0
H2724 H 0.39472 0.02363 0.74494 0.0
H2725 H 0.4107 0.04297 0.74297 0.0
C2726 C 0.37011 0.00558 0.68704 0.0
C2727 C 0.36926 0.0189 0.68722 0.0
C2728 C 0.38334 0.00633 0.69365 0.0
C2729 C 0.39602 0.02041 0.70058 0.0
C2730 C 0.3954 0.03383 0.7001 0.0
H2731 H 0.47654 0.03346 0.76725 0.0
H2732 H 0.46118 0.03945 0.74398 0.0
C2733 C 0.38212 0.03308 0.69361 0.0
C2734 C 0.40965 0.02084 0.70886 0.0
H2735 H 0.4309 0.02792 0.75495 0.0
C2736 C 0.41693 0.01544 0.69508 0.0
C2737 C 0.41492 0.02563 0.73063 0.0
C2738 C 0.40722 0.03094 0.74655 0.0
C2739 C 0.42912 0.01442 0.70261 0.0
C2740 C 0.43406 0.01878 0.72455 0.0
C2741 C 0.42717 0.02471 0.73807 0.0
C2742 C 0.44512 0.01569 0.73469 0.0
C2743 C 0.43648 0.00853 0.68711 0.0
C2744 C 0.44142 1.00042 0.73669 0.0
C2745 C 0.45013 0.99703 0.74992 0.0
C2746 C 0.46273 0.00884 0.76132 0.0
C2747 C 0.46704 0.02421 0.75825 0.0
C2748 C 0.45822 0.02761 0.74512 0.0
H2749 H 0.43483 0.01033 0.66975 0.0
H2750 H 0.4488 0.01428 0.69045 0.0
H2751 H 0.43125 0.99597 0.68931 0.0
H2752 H 0.4312 0.99101 0.72923 0.0
H2753 H 0.44646 0.98508 0.75238 0.0
H2754 H 0.00598 0.36051 0.70286 0.0
H2755 H 0.0101 0.38629 0.70878 0.0
H2756 H 0.96959 0.37282 0.67211 0.0
H2757 H 0.96532 0.34702 0.66615 0.0
H2758 H 0.01232 0.40858 0.67633 0.0
H2759 H 0.96353 0.38799 0.73353 0.0
H2760 H 0.97189 0.37671 0.72675 0.0
H2761 H 0.95983 0.37811 0.70736 0.0
C2762 C 0.99796 0.36303 0.696 0.0
C2763 C 0.98525 0.35164 0.68418 0.0
C2764 C 1.00037 0.37779 0.69932 0.0
C2765 C 0.99009 0.38141 0.69102 0.0
C2766 C 0.97758 0.3702 0.67883 0.0
H2767 H 0.98393 0.46033 0.7332 0.0
H2768 H 0.98031 0.4391 0.70884 0.0
C2769 C 0.97518 0.35546 0.67543 0.0
C2770 C 0.99215 0.39671 0.69593 0.0
H2771 H 0.97772 0.41442 0.72681 0.0
C2772 C 0.0047 0.40989 0.68721 0.0
C2773 C 0.98211 0.39836 0.70994 0.0
C2774 C 0.96862 0.38459 0.72011 0.0
C2775 C 0.00764 0.42472 0.69251 0.0
C2776 C 0.99796 0.42641 0.70729 0.0
C2777 C 0.9851 0.41316 0.71535 0.0
C2778 C 1.00177 0.44161 0.71687 0.0
C2779 C 0.02114 0.43841 0.68228 0.0
C2780 C 0.01534 0.45057 0.72862 0.0
C2781 C 0.01746 0.46275 0.74227 0.0
C2782 C 0.006 0.46612 0.74464 0.0
C2783 C 0.99302 0.4581 0.73142 0.0
C2784 C 0.99089 0.44588 0.71768 0.0
H2785 H 0.02366 0.4353 0.66588 0.0
H2786 H 0.01932 0.44813 0.68053 0.0
H2787 H 0.03123 0.44234 0.6928 0.0
H2788 H 0.02376 0.44736 0.72874 0.0
H2789 H 0.0275 0.46868 0.75248 0.0
H2790 H 0.65789 0.64492 0.71742 0.0
H2791 H 0.63379 0.62244 0.72833 0.0
H2792 H 0.62567 0.60495 0.66159 0.0
H2793 H 0.64986 0.62731 0.65055 0.0
H2794 H 0.60467 0.61234 0.71361 0.0
H2795 H 0.61984 0.56829 0.69625 0.0
H2796 H 0.63382 0.58865 0.69785 0.0
H2797 H 0.62223 0.58042 0.67379 0.0
C2798 C 0.65101 0.63629 0.70504 0.0
C2799 C 0.65587 0.6379 0.68312 0.0
C2800 C 0.63722 0.62345 0.7113 0.0
C2801 C 0.62802 0.6119 0.69584 0.0
C2802 C 0.63271 0.61356 0.67389 0.0
H2803 H 0.5348 0.54297 0.73516 0.0
H2804 H 0.55586 0.56029 0.71113 0.0
C2805 C 0.64652 0.62641 0.66759 0.0
C2806 C 0.61345 0.59828 0.70283 0.0
H2807 H 0.59505 0.5593 0.7089 0.0
C2808 C 0.60249 0.60072 0.71239 0.0
C2809 C 0.61069 0.58314 0.70134 0.0
C2810 C 0.62228 0.57989 0.69192 0.0
C2811 C 0.589 0.58851 0.72097 0.0
C2812 C 0.58625 0.57336 0.71959 0.0
C2813 C 0.59708 0.57087 0.70963 0.0
C2814 C 0.57313 0.56042 0.73086 0.0
C2815 C 0.57814 0.59205 0.73239 0.0
C2816 C 0.57575 0.55396 0.74899 0.0
C2817 C 0.56378 0.544 0.76249 0.0
C2818 C 0.54895 0.54025 0.75803 0.0
C2819 C 0.54612 0.5456 0.7388 0.0
C2820 C 0.55815 0.55562 0.72526 0.0
H2821 H 0.58323 0.6046 0.73552 0.0
H2822 H 0.56796 0.58786 0.72197 0.0
H2823 H 0.57442 0.58611 0.74829 0.0
H2824 H 0.58719 0.55744 0.75358 0.0
H2825 H 0.56623 0.54007 0.77729 0.0
H2826 H 0.66298 0.70241 0.66915 0.0
H2827 H 0.66336 0.72562 0.65899 0.0
H2828 H 0.71215 0.75136 0.66 0.0
H2829 H 0.71191 0.72811 0.66989 0.0
H2830 H 0.67612 0.75479 0.68011 0.0
H2831 H 0.70221 0.7587 0.59843 0.0
H2832 H 0.69437 0.74167 0.6147 0.0
H2833 H 0.71253 0.75827 0.62153 0.0
C2834 C 0.67382 0.713 0.66726 0.0
C2835 C 0.68742 0.71334 0.67016 0.0
C2836 C 0.674 0.72628 0.66151 0.0
C2837 C 0.68777 0.74018 0.65846 0.0
C2838 C 0.70139 0.74069 0.6619 0.0
H2839 H 0.69812 0.82201 0.59686 0.0
H2840 H 0.7044 0.80681 0.62015 0.0
C2841 C 0.70122 0.72739 0.66764 0.0
C2842 C 0.68774 0.75394 0.65111 0.0
H2843 H 0.69634 0.77748 0.60754 0.0
C2844 C 0.68067 0.75985 0.66433 0.0
C2845 C 0.69375 0.76061 0.63058 0.0
C2846 C 0.70105 0.75446 0.61535 0.0
C2847 C 0.67914 0.772 0.65734 0.0
C2848 C 0.68462 0.77825 0.63644 0.0
C2849 C 0.69222 0.77275 0.62362 0.0
C2850 C 0.68108 0.78913 0.62637 0.0
C2851 C 0.67154 0.77791 0.67233 0.0
C2852 C 0.66593 0.7845 0.62268 0.0
C2853 C 0.66238 0.79316 0.60951 0.0
C2854 C 0.67389 0.80662 0.59974 0.0
C2855 C 0.68906 0.81183 0.60455 0.0
C2856 C 0.69263 0.80309 0.61768 0.0
H2857 H 0.67283 0.776 0.6898 0.0
H2858 H 0.67623 0.79039 0.67012 0.0
H2859 H 0.65925 0.77157 0.66857 0.0
H2860 H 0.65682 0.77364 0.62873 0.0
H2861 H 0.65061 0.78881 0.60576 0.0
H2862 H 0.29966 0.9844 0.64524 0.0
H2863 H 0.27811 0.95878 0.63607 0.0
H2864 H 0.26651 0.95084 0.70454 0.0
H2865 H 0.28823 0.97644 0.71394 0.0
H2866 H 0.26497 0.92568 0.68303 0.0
H2867 H 0.2338 0.94634 0.63671 0.0
H2868 H 0.2528 0.95427 0.62695 0.0
H2869 H 0.24961 0.9589 0.65438 0.0
C2870 C 0.29254 0.97724 0.65838 0.0
C2871 C 0.29563 0.98253 0.68032 0.0
C2872 C 0.28016 0.96261 0.65309 0.0
C2873 C 0.27052 0.95301 0.66958 0.0
C2874 C 0.27373 0.95811 0.69154 0.0
H2875 H 0.18783 0.87346 0.61678 0.0
H2876 H 0.20341 0.8936 0.64414 0.0
C2877 C 0.28615 0.97275 0.69687 0.0
C2878 C 0.25723 0.93761 0.66374 0.0
H2879 H 0.22626 0.91995 0.6303 0.0
C2880 C 0.25636 0.9244 0.67176 0.0
C2881 C 0.24577 0.93592 0.6495 0.0
C2882 C 0.24542 0.94962 0.64157 0.0
C2883 C 0.24488 0.90955 0.66479 0.0
C2884 C 0.23415 0.90791 0.64912 0.0
C2885 C 0.2345 0.92112 0.64221 0.0
C2886 C 0.22366 0.89302 0.63759 0.0
C2887 C 0.24452 0.8958 0.67404 0.0
C2888 C 0.22961 0.88542 0.62566 0.0
C2889 C 0.22068 0.87382 0.61029 0.0
C2890 C 0.20569 0.86973 0.60635 0.0
C2891 C 0.19929 0.87627 0.6197 0.0
C2892 C 0.20824 0.88788 0.63517 0.0
H2893 H 0.24909 0.89832 0.69102 0.0
H2894 H 0.23286 0.88552 0.67417 0.0
H2895 H 0.25177 0.89305 0.66387 0.0
H2896 H 0.2415 0.88932 0.62679 0.0
H2897 H 0.22589 0.86903 0.60006 0.0
H2898 H 0.04596 0.33172 0.71327 0.0
H2899 H 0.06974 0.33506 0.69927 0.0
H2900 H 0.04687 0.30945 0.64036 0.0
H2901 H 0.02314 0.30612 0.65405 0.0
H2902 H 0.07766 0.31258 0.68314 0.0
H2903 H 0.08144 0.3525 0.61971 0.0
H2904 H 0.06907 0.34754 0.64314 0.0
H2905 H 0.06379 0.33434 0.62012 0.0
C2906 C 0.04596 0.3267 0.6974 0.0
C2907 C 0.03266 0.3188 0.68468 0.0
C2908 C 0.05955 0.32858 0.68948 0.0
C2909 C 0.06007 0.32265 0.66869 0.0
C2910 C 0.04672 0.31427 0.65634 0.0
H2911 H 0.12664 0.31286 0.59673 0.0
H2912 H 0.10657 0.30868 0.62256 0.0
C2913 C 0.03316 0.31238 0.66422 0.0
C2914 C 0.07468 0.32593 0.65925 0.0
H2915 H 0.09879 0.34413 0.61685 0.0
C2916 C 0.08238 0.31956 0.66874 0.0
C2917 C 0.08088 0.33521 0.64066 0.0
C2918 C 0.07347 0.34292 0.63038 0.0
C2919 C 0.09595 0.32188 0.65966 0.0
C2920 C 0.10184 0.33069 0.64056 0.0
C2921 C 0.09428 0.33735 0.63148 0.0
C2922 C 0.11555 0.33296 0.6291 0.0
C2923 C 0.10389 0.31497 0.67063 0.0
C2924 C 0.12747 0.34794 0.62462 0.0
C2925 C 0.13882 0.3503 0.60979 0.0
C2926 C 0.13851 0.33772 0.59932 0.0
C2927 C 0.12726 0.32271 0.60499 0.0
C2928 C 0.1158 0.32034 0.61973 0.0
H2929 H 0.10049 0.31246 0.68807 0.0
H2930 H 0.10082 0.30397 0.66206 0.0
H2931 H 0.11638 0.32279 0.66981 0.0
H2932 H 0.1275 0.35784 0.63157 0.0
H2933 H 0.14729 0.36197 0.6054 0.0
H2934 H 0.31219 0.35123 0.68509 0.0
H2935 H 0.29028 0.35283 0.67523 0.0
H2936 H 0.26874 0.30713 0.64619 0.0
H2937 H 0.29055 0.30537 0.65605 0.0
H2938 H 0.27959 0.35062 0.63253 0.0
H2939 H 0.235 0.3055 0.68439 0.0
H2940 H 0.25495 0.31377 0.6895 0.0
H2941 H 0.24543 0.29902 0.66859 0.0
C2942 C 0.30273 0.34143 0.67682 0.0
C2943 C 0.30314 0.32816 0.67137 0.0
C2944 C 0.29021 0.34238 0.67121 0.0
C2945 C 0.27778 0.33002 0.66028 0.0
C2946 C 0.27807 0.31669 0.65504 0.0
H2947 H 0.2015 0.30782 0.5848 0.0
H2948 H 0.21994 0.3086 0.6101 0.0
C2949 C 0.2906 0.31575 0.66055 0.0
C2950 C 0.26501 0.33145 0.65283 0.0
H2951 H 0.22651 0.31389 0.65451 0.0
C2952 C 0.268 0.34278 0.63761 0.0
C2953 C 0.24992 0.32122 0.65952 0.0
C2954 C 0.24611 0.30928 0.67656 0.0
C2955 C 0.25624 0.34359 0.62791 0.0
C2956 C 0.24106 0.33299 0.63401 0.0
C2957 C 0.23813 0.32206 0.64992 0.0
C2958 C 0.22811 0.33184 0.62204 0.0
C2959 C 0.26011 0.35518 0.61025 0.0
C2960 C 0.22599 0.34436 0.62117 0.0
C2961 C 0.2154 0.34392 0.60663 0.0
C2962 C 0.20679 0.33094 0.59288 0.0
C2963 C 0.20805 0.31799 0.59518 0.0
C2964 C 0.21859 0.31843 0.60962 0.0
H2965 H 0.27202 0.36048 0.60465 0.0
H2966 H 0.25252 0.3497 0.59586 0.0
H2967 H 0.25857 0.36454 0.61675 0.0
H2968 H 0.23302 0.35472 0.63094 0.0
H2969 H 0.21467 0.35407 0.60509 0.0
H2970 H 0.66558 0.98264 0.65672 0.0
H2971 H 0.66099 0.95674 0.6504 0.0
H2972 H 0.70878 0.97463 0.65712 0.0
H2973 H 0.7134 1.00045 0.664 0.0
H2974 H 0.67124 0.94716 0.61738 0.0
H2975 H 0.69168 0.93741 0.69487 0.0
H2976 H 0.68823 0.95288 0.69196 0.0
H2977 H 0.7057 0.95498 0.68244 0.0
C2978 C 0.6751 0.98104 0.65709 0.0
C2979 C 0.68986 0.99363 0.6609 0.0
C2980 C 0.67245 0.96621 0.65352 0.0
C2981 C 0.68449 0.96365 0.6537 0.0
C2982 C 0.69923 0.9762 0.65755 0.0
H2983 H 0.70329 0.89871 0.59869 0.0
H2984 H 0.70319 0.91881 0.62145 0.0
C2985 C 0.70188 0.99101 0.66127 0.0
C2986 C 0.68184 0.94815 0.64799 0.0
H2987 H 0.68935 0.92095 0.66409 0.0
C2988 C 0.67494 0.9413 0.62779 0.0
C2989 C 0.68668 0.94048 0.66158 0.0
C2990 C 0.69334 0.94675 0.68402 0.0
C2991 C 0.67338 0.9274 0.62035 0.0
C2992 C 0.67871 0.92003 0.63358 0.0
C2993 C 0.68523 0.92661 0.65404 0.0
C2994 C 0.67886 0.90634 0.6252 0.0
C2995 C 0.66669 0.92106 0.59791 0.0
C2996 C 0.66529 0.89232 0.62092 0.0
C2997 C 0.66536 0.88075 0.60811 0.0
C2998 C 0.679 0.88312 0.5995 0.0
C2999 C 0.69267 0.89656 0.60549 0.0
C3000 C 0.69261 0.90806 0.61837 0.0
H3001 H 0.66521 0.92935 0.58846 0.0
H3002 H 0.67401 0.91807 0.58833 0.0
H3003 H 0.65543 0.91038 0.59968 0.0
H3004 H 0.65457 0.89078 0.62614 0.0
H3005 H 0.65467 0.8706 0.60332 0.0
H3006 H 0.02326 0.69671 0.66772 0.0
H3007 H 0.04899 0.71878 0.66265 0.0
H3008 H 0.0309 0.74387 0.63355 0.0
H3009 H 0.00524 0.72207 0.63892 0.0
H3010 H 0.06271 0.73134 0.62447 0.0
H3011 H 0.0613 0.77602 0.67592 0.0
H3012 H 0.04707 0.7558 0.67778 0.0
H3013 H 0.04599 0.76715 0.6566 0.0
C3014 C 0.02475 0.70699 0.66046 0.0
C3015 C 0.01216 0.70761 0.65377 0.0
C3016 C 0.03947 0.71961 0.65761 0.0
C3017 C 0.0419 0.73312 0.64812 0.0
C3018 C 0.02934 0.73377 0.64149 0.0
H3019 H 0.10959 0.80923 0.5796 0.0
H3020 H 0.08788 0.79159 0.60205 0.0
C3021 C 0.01464 0.7212 0.64439 0.0
C3022 C 0.05752 0.74607 0.64347 0.0
H3023 H 0.081 0.78518 0.64861 0.0
C3024 C 0.06683 0.74307 0.63011 0.0
C3025 C 0.0629 0.76139 0.65084 0.0
C3026 C 0.05384 0.76527 0.66626 0.0
C3027 C 0.081 0.75502 0.62295 0.0
C3028 C 0.08613 0.7704 0.62961 0.0
C3029 C 0.07707 0.77338 0.64359 0.0
C3030 C 0.10007 0.78353 0.62021 0.0
C3031 C 0.09004 0.75118 0.60735 0.0
C3032 C 0.11434 0.78552 0.6239 0.0
C3033 C 0.12681 0.79573 0.61119 0.0
C3034 C 0.12513 0.80407 0.59472 0.0
C3035 C 0.11118 0.80306 0.59243 0.0
C3036 C 0.09877 0.79293 0.60515 0.0
H3037 H 0.08337 0.73908 0.60104 0.0
H3038 H 0.09403 0.75898 0.5932 0.0
H3039 H 0.10014 0.75279 0.61599 0.0
H3040 H 0.1156 0.77846 0.6356 0.0
H3041 H 0.13739 0.79614 0.61298 0.0
H3042 H 0.9898 0.63286 0.7188 0.0
H3043 H 0.99107 0.60987 0.7228 0.0
H3044 H 0.97289 0.59424 0.65766 0.0
H3045 H 0.97134 0.61727 0.65359 0.0
H3046 H 0.95933 0.57101 0.68777 0.0
H3047 H 0.02147 0.60085 0.69528 0.0
H3048 H 0.01391 0.60876 0.71435 0.0
H3049 H 0.01212 0.61027 0.68533 0.0
C3050 C 0.98613 0.62461 0.70522 0.0
C3051 C 0.98055 0.62699 0.68581 0.0
C3052 C 0.98696 0.61149 0.7075 0.0
C3053 C 0.98238 0.60047 0.69037 0.0
C3054 C 0.97662 0.60266 0.67102 0.0
H3055 H 0.00629 0.533 0.7233 0.0
H3056 H 1.00151 0.54837 0.6981 0.0
C3057 C 0.97576 0.61584 0.66872 0.0
C3058 C 0.98323 0.58651 0.69327 0.0
H3059 H 0.0072 0.57552 0.7107 0.0
C3060 C 0.96984 0.57194 0.69236 0.0
C3061 C 0.99699 0.5876 0.69867 0.0
C3062 C 0.01196 0.60271 0.69822 0.0
C3063 C 0.96968 0.55863 0.69839 0.0
C3064 C 0.9832 0.55998 0.70593 0.0
C3065 C 0.99676 0.57439 0.70517 0.0
C3066 C 0.98334 0.54734 0.71738 0.0
C3067 C 0.95495 0.54332 0.69703 0.0
C3068 C 0.97426 0.54099 0.73602 0.0
C3069 C 0.97686 0.53208 0.75016 0.0
C3070 C 0.98869 0.52946 0.74612 0.0
C3071 C 0.99694 0.53465 0.72656 0.0
C3072 C 0.9943 0.54355 0.7123 0.0
H3073 H 0.94787 0.54303 0.68329 0.0
H3074 H 0.95683 0.53361 0.69471 0.0
H3075 H 0.94849 0.54164 0.7124 0.0
H3076 H 0.96602 0.54399 0.74072 0.0
H3077 H 0.97052 0.5284 0.76533 0.0
H3078 H 0.37182 0.35935 0.70487 0.0
H3079 H 0.39378 0.38461 0.71425 0.0
H3080 H 0.40717 0.39142 0.64632 0.0
H3081 H 0.38502 0.36615 0.63667 0.0
H3082 H 0.42402 0.39442 0.70773 0.0
H3083 H 0.40848 0.43132 0.66387 0.0
H3084 H 0.39495 0.41132 0.66924 0.0
H3085 H 0.40862 0.41638 0.64774 0.0
C3086 C 0.37936 0.36622 0.69186 0.0
C3087 C 0.37663 0.36072 0.67 0.0
C3088 C 0.39193 0.38067 0.69726 0.0
C3089 C 0.40203 0.38997 0.68096 0.0
C3090 C 0.39938 0.38455 0.6591 0.0
H3091 H 0.48728 0.46794 0.73345 0.0
H3092 H 0.47091 0.44812 0.70609 0.0
C3093 C 0.38675 0.37007 0.65365 0.0
C3094 C 0.41554 0.40508 0.68726 0.0
H3095 H 0.43138 0.44397 0.6837 0.0
C3096 C 0.42576 0.40527 0.70226 0.0
C3097 C 0.41772 0.41919 0.68012 0.0
C3098 C 0.40684 0.41966 0.66448 0.0
C3099 C 0.43776 0.41914 0.71106 0.0
C3100 C 0.43982 0.43329 0.70424 0.0
C3101 C 0.42991 0.43313 0.68862 0.0
C3102 C 0.4507 0.44803 0.71569 0.0
C3103 C 0.44753 0.41846 0.72858 0.0
C3104 C 0.44505 0.4554 0.72878 0.0
C3105 C 0.4544 0.46681 0.74408 0.0
C3106 C 0.46956 0.47106 0.74649 0.0
C3107 C 0.47565 0.46492 0.73175 0.0
C3108 C 0.46627 0.45349 0.71634 0.0
H3109 H 0.44275 0.40661 0.73463 0.0
H3110 H 0.45893 0.42239 0.72178 0.0
H3111 H 0.44889 0.42615 0.74275 0.0
H3112 H 0.4331 0.45144 0.7285 0.0
H3113 H 0.44945 0.47135 0.75537 0.0
H3114 H 0.63789 0.02484 0.65729 0.0
H3115 H 0.61275 0.02094 0.66381 0.0
H3116 H 0.62013 0.0233 0.73358 0.0
H3117 H 0.64496 0.02678 0.72726 0.0
H3118 H 0.59247 0.99925 0.72171 0.0
H3119 H 0.60277 0.05292 0.68382 0.0
H3120 H 0.60584 0.04033 0.66639 0.0
H3121 H 0.61791 0.04975 0.68972 0.0
C3122 C 0.63416 0.02457 0.67402 0.0
C3123 C 0.64345 0.02615 0.69177 0.0
C3124 C 0.61982 0.02243 0.67771 0.0
C3125 C 0.61462 0.02202 0.69919 0.0
C3126 C 0.62389 0.02357 0.71686 0.0
H3127 H 0.55658 0.03988 0.76935 0.0
H3128 H 0.57503 0.04045 0.74364 0.0
C3129 C 0.63812 0.02559 0.71321 0.0
C3130 C 0.59948 0.01975 0.70367 0.0
H3131 H 0.57906 0.03717 0.70025 0.0
C3132 C 0.58942 0.00741 0.71677 0.0
C3133 C 0.59555 0.03043 0.69718 0.0
C3134 C 0.60609 0.04418 0.68364 0.0
C3135 C 0.57596 0.00592 0.72466 0.0
C3136 C 0.5722 0.01684 0.71869 0.0
C3137 C 0.58187 0.02872 0.70459 0.0
C3138 C 0.55981 0.01762 0.72991 0.0
C3139 C 0.5665 0.9933 0.74058 0.0
C3140 C 0.54479 0.00501 0.72975 0.0
C3141 C 0.53421 0.00464 0.74465 0.0
C3142 C 0.53852 0.01695 0.75965 0.0
C3143 C 0.55302 0.03022 0.75801 0.0
C3144 C 0.56357 0.03054 0.74331 0.0
H3145 H 0.57243 0.98761 0.7464 0.0
H3146 H 0.56347 0.99795 0.75508 0.0
H3147 H 0.55586 0.98438 0.7324 0.0
H3148 H 0.54154 0.99506 0.71915 0.0
H3149 H 0.52309 0.99427 0.74563 0.0
loop_
_geom_bond_atom_site_label_1
_geom_bond_atom_site_label_2
_geom_bond_distance
_geom_bond_site_symmetry_2
_ccdc_geom_bond_type
C0 O1 1.160 . S
C0 O7 1.185 . S
O1 C0 1.160 . S
O2 Zn3 1.899 1_656 S
O2 C10 1.284 1_556 S
Zn3 O2 1.899 1_454 S
Zn3 O4 2.032 . S
Zn3 O7 2.086 . S
Zn3 O12 1.977 1_554 S
O4 Zn3 2.032 . S
O4 C8 1.278 1_455 S
C5 O6 1.203 1_455 S
C5 O12 1.267 . S
O6 C5 1.203 1_655 S
O7 C0 1.185 . S
O7 Zn3 2.086 . S
C8 O4 1.278 1_655 S
C8 O9 1.211 . S
O9 C8 1.211 . S
C10 O2 1.284 1_554 S
C10 O11 1.273 . S
O11 C10 1.273 . S
O12 Zn3 1.977 1_556 S
O12 C5 1.267 . S
C13 O14 1.164 . S
C13 O20 1.179 1_556 S
O14 C13 1.164 . S
O15 Zn16 1.899 . S
O15 C23 1.284 . S
Zn16 O15 1.899 . S
Zn16 O17 2.032 1_554 S
Zn16 O20 2.086 . S
Zn16 O25 1.977 . S
O17 Zn16 2.032 1_556 S
O17 C21 1.278 . S
C18 O19 1.203 . S
C18 O25 1.267 . S
O19 C18 1.203 . S
O20 C13 1.179 1_554 S
O20 Zn16 2.086 . S
C21 O17 1.278 . S
C21 O22 1.211 . S
O22 C21 1.211 . S
C23 O15 1.284 . S
C23 O24 1.273 . S
O24 C23 1.273 . S
O25 Zn16 1.977 . S
O25 C18 1.267 . S
C26 O27 1.160 1_554 S
C26 O33 1.185 . S
O27 C26 1.160 1_556 S
O28 Zn29 1.899 1_565 S
O28 C36 1.284 . S
Zn29 O28 1.899 1_545 S
Zn29 O30 2.032 1_554 S
Zn29 O33 2.086 . S
Zn29 O38 1.977 . S
O30 Zn29 2.032 1_556 S
O30 C34 1.278 . S
C31 O32 1.203 1_545 S
C31 O38 1.267 . S
O32 C31 1.203 1_565 S
O33 C26 1.185 . S
O33 Zn29 2.086 . S
C34 O30 1.278 . S
C34 O35 1.211 1_545 S
O35 C34 1.211 1_565 S
C36 O28 1.284 . S
C36 O37 1.273 . S
O37 C36 1.273 . S
O38 Zn29 1.977 . S
O38 C31 1.267 . S
C39 O40 1.160 . S
C39 O46 1.185 1_556 S
O40 C39 1.160 . S
O41 Zn42 1.899 1_455 S
O41 C49 1.284 . S
Zn42 O41 1.899 1_655 S
Zn42 O43 2.032 1_554 S
Zn42 O46 2.086 . S
Zn42 O51 1.977 . S
O43 Zn42 2.032 1_556 S
O43 C47 1.278 1_655 S
C44 O45 1.203 1_655 S
C44 O51 1.267 . S
O45 C44 1.203 1_455 S
O46 C39 1.185 1_554 S
O46 Zn42 2.086 . S
C47 O43 1.278 1_455 S
C47 O48 1.211 . S
O48 C47 1.211 . S
C49 O41 1.284 . S
C49 O50 1.273 . S
O50 C49 1.273 . S
O51 Zn42 1.977 . S
O51 C44 1.267 . S
C52 O53 1.160 . S
C52 O59 1.185 . S
O53 C52 1.160 . S
O54 Zn55 1.899 1_556 S
O54 C62 1.284 . S
Zn55 O54 1.899 1_554 S
Zn55 O56 2.032 . S
Zn55 O59 2.086 . S
Zn55 O64 1.977 1_554 S
O56 Zn55 2.032 . S
O56 C60 1.278 . S
C57 O58 1.203 . S
C57 O64 1.267 . S
O58 C57 1.203 . S
O59 C52 1.185 . S
O59 Zn55 2.086 . S
C60 O56 1.278 . S
C60 O61 1.211 . S
O61 C60 1.211 . S
C62 O54 1.284 . S
C62 O63 1.273 1_556 S
O63 C62 1.273 1_554 S
O64 Zn55 1.977 1_556 S
O64 C57 1.267 . S
C65 O66 1.160 . S
C65 O72 1.185 . S
O66 C65 1.160 . S
O67 Zn68 1.899 1_546 S
O67 C75 1.297 . S
Zn68 O67 1.899 1_564 S
Zn68 O69 2.053 . S
Zn68 O72 2.086 . S
Zn68 O77 1.977 1_554 S
O69 Zn68 2.053 . S
O69 C73 1.212 1_565 S
C70 O71 1.203 1_565 S
C70 O77 1.267 . S
O71 C70 1.203 1_545 S
O72 C65 1.185 . S
O72 Zn68 2.086 . S
C73 O69 1.212 1_545 S
C73 O74 1.211 . S
O74 C73 1.211 . S
C75 O67 1.297 . S
C75 O76 1.252 1_556 S
O76 C75 1.252 1_554 S
O77 Zn68 1.977 1_556 S
O77 C70 1.267 . S
C78 O79 1.160 . S
C78 O85 1.185 . S
O79 C78 1.160 . S
O80 Zn81 1.899 . S
O80 C88 1.284 . S
Zn81 O80 1.899 . S
Zn81 O82 2.032 . S
Zn81 O85 2.086 . S
Zn81 O90 1.977 . S
O82 Zn81 2.032 . S
O82 C86 1.278 . S
C83 O84 1.203 . S
C83 O90 1.267 . S
O84 C83 1.203 . S
O85 C78 1.185 . S
O85 Zn81 2.086 . S
C86 O82 1.278 . S
C86 O87 1.211 . S
O87 C86 1.211 . S
C88 O80 1.284 . S
C88 O89 1.273 . S
O89 C88 1.273 . S
O90 Zn81 1.977 . S
O90 C83 1.267 . S
C91 O92 1.151 . S
C91 O98 1.185 . S
O92 C91 1.151 . S
O93 Zn94 1.899 1_545 S
O93 C101 1.284 . S
Zn94 O93 1.899 1_565 S
Zn94 O95 2.032 . S
Zn94 O98 2.086 . S
Zn94 O103 1.977 . S
O95 Zn94 2.032 . S
O95 C99 1.278 . S
C96 O97 1.203 . S
C96 O103 1.267 . S
O97 C96 1.203 . S
O98 C91 1.185 . S
O98 Zn94 2.086 . S
C99 O95 1.278 . S
C99 O100 1.211 . S
O100 C99 1.211 . S
C101 O93 1.284 . S
C101 O102 1.279 . S
O102 C101 1.279 . S
O103 Zn94 1.977 . S
O103 C96 1.267 . S
C104 O105 1.160 . S
C104 O111 1.185 . S
O105 C104 1.160 . S
O106 Zn107 1.899 . S
O106 C114 1.284 1_455 S
Zn107 O106 1.899 . S
Zn107 O108 2.032 . S
Zn107 O111 2.086 . S
Zn107 O116 1.977 . S
O108 Zn107 2.032 . S
O108 C112 1.278 . S
C109 O110 1.203 . S
C109 O116 1.267 . S
O110 C109 1.203 . S
O111 C104 1.185 . S
O111 Zn107 2.086 . S
C112 O108 1.278 . S
C112 O113 1.211 . S
O113 C112 1.211 . S
C114 O106 1.284 1_655 S
C114 O115 1.273 1_655 S
O115 C114 1.273 1_455 S
O116 Zn107 1.977 . S
O116 C109 1.267 . S
C117 O118 1.155 1_565 S
C117 O124 1.185 . S
O118 C117 1.155 1_545 S
O119 Zn120 1.899 1_545 S
O119 C127 1.284 . S
Zn120 O119 1.899 1_565 S
Zn120 O121 2.032 . S
Zn120 O124 2.086 . S
Zn120 O129 1.977 . S
O121 Zn120 2.032 . S
O121 C125 1.278 . S
C122 O123 1.203 . S
C122 O129 1.267 . S
O123 C122 1.203 . S
O124 C117 1.185 . S
O124 Zn120 2.086 . S
C125 O121 1.278 . S
C125 O126 1.211 . S
O126 C125 1.211 . S
C127 O119 1.284 . S
C127 O128 1.273 . S
O128 C127 1.273 . S
O129 Zn120 1.977 . S
O129 C122 1.267 . S
C130 O131 1.160 . S
C130 O137 1.185 . S
O131 C130 1.160 . S
O132 Zn133 1.899 . S
O132 C140 1.284 . S
Zn133 O132 1.899 . S
Zn133 O134 2.032 . S
Zn133 O137 2.086 1_455 S
Zn133 O142 1.977 . S
O134 Zn133 2.032 . S
O134 C138 1.278 . S
C135 O136 1.203 . S
C135 O142 1.267 . S
O136 C135 1.203 . S
O137 C130 1.185 . S
O137 Zn133 2.086 1_655 S
C138 O134 1.278 . S
C138 O139 1.211 . S
O139 C138 1.211 . S
C140 O132 1.284 . S
C140 O141 1.273 . S
O141 C140 1.273 . S
O142 Zn133 1.977 . S
O142 C135 1.267 . S
C143 O144 1.160 . S
C143 O150 1.185 . S
O144 C143 1.160 . S
O145 Zn146 1.899 . S
O145 C153 1.284 . S
Zn146 O145 1.899 . S
Zn146 O147 2.032 . S
Zn146 O150 2.086 . S
Zn146 O155 1.977 . S
O147 Zn146 2.032 . S
O147 C151 1.278 . S
C148 O149 1.203 . S
C148 O155 1.267 . S
O149 C148 1.203 . S
O150 C143 1.185 . S
O150 Zn146 2.086 . S
C151 O147 1.278 . S
C151 O152 1.211 . S
O152 C151 1.211 . S
C153 O145 1.284 . S
C153 O154 1.273 . S
O154 C153 1.273 . S
O155 Zn146 1.977 . S
O155 C148 1.267 . S
C156 O157 1.160 . S
C156 O163 1.185 . S
O157 C156 1.160 . S
O158 Zn159 1.899 . S
O158 C166 1.284 1_545 S
Zn159 O158 1.899 . S
Zn159 O160 2.032 . S
Zn159 O163 2.086 . S
Zn159 O168 1.977 . S
O160 Zn159 2.032 . S
O160 C164 1.278 . S
C161 O162 1.203 . S
C161 O168 1.267 . S
O162 C161 1.203 . S
O163 C156 1.185 . S
O163 Zn159 2.086 . S
C164 O160 1.278 . S
C164 O165 1.211 . S
O165 C164 1.211 . S
C166 O158 1.284 1_565 S
C166 O167 1.273 1_565 S
O167 C166 1.273 1_545 S
O168 Zn159 1.977 . S
O168 C161 1.267 . S
C169 O170 1.160 . S
C169 O176 1.185 . S
O170 C169 1.160 . S
O171 Zn172 1.899 . S
O171 C179 1.284 . S
Zn172 O171 1.899 . S
Zn172 O173 2.032 . S
Zn172 O176 2.086 1_655 S
Zn172 O181 1.977 . S
O173 Zn172 2.032 . S
O173 C177 1.278 . S
C174 O175 1.203 . S
C174 O181 1.267 . S
O175 C174 1.203 . S
O176 C169 1.185 . S
O176 Zn172 2.086 1_455 S
C177 O173 1.278 . S
C177 O178 1.211 . S
O178 C177 1.211 . S
C179 O171 1.284 . S
C179 O180 1.273 . S
O180 C179 1.273 . S
O181 Zn172 1.977 . S
O181 C174 1.267 . S
C182 O183 1.160 . S
C182 O189 1.185 . S
O183 C182 1.160 . S
O184 Zn185 1.899 . S
O184 C192 1.284 . S
Zn185 O184 1.899 . S
Zn185 O186 2.032 . S
Zn185 O189 2.086 . S
Zn185 O194 1.977 . S
O186 Zn185 2.032 . S
O186 C190 1.278 . S
C187 O188 1.203 . S
C187 O194 1.267 . S
O188 C187 1.203 . S
O189 C182 1.185 . S
O189 Zn185 2.086 . S
C190 O186 1.278 . S
C190 O191 1.211 . S
O191 C190 1.211 . S
C192 O184 1.284 . S
C192 O193 1.273 . S
O193 C192 1.273 . S
O194 Zn185 1.977 . S
O194 C187 1.267 . S
C195 O196 1.160 . S
C195 O202 1.185 . S
O196 C195 1.160 . S
O197 Zn198 1.899 . S
O197 C205 1.284 . S
Zn198 O197 1.899 . S
Zn198 O199 2.032 . S
Zn198 O202 2.086 . S
Zn198 O207 1.977 . S
O199 Zn198 2.032 . S
O199 C203 1.278 . S
C200 O201 1.203 . S
C200 O207 1.267 . S
O201 C200 1.203 . S
O202 C195 1.185 . S
O202 Zn198 2.086 . S
C203 O199 1.278 . S
C203 O204 1.211 . S
O204 C203 1.211 . S
C205 O197 1.284 . S
C205 O206 1.273 . S
O206 C205 1.273 . S
O207 Zn198 1.977 . S
O207 C200 1.267 . S
C208 O209 1.160 . S
C208 O215 1.185 . S
O209 C208 1.160 . S
O210 Zn211 1.899 . S
O210 C218 1.284 1_545 S
Zn211 O210 1.899 . S
Zn211 O212 2.032 . S
Zn211 O215 2.086 . S
Zn211 O220 1.977 . S
O212 Zn211 2.032 . S
O212 C216 1.278 . S
C213 O214 1.203 . S
C213 O220 1.267 . S
O214 C213 1.203 . S
O215 C208 1.185 . S
O215 Zn211 2.086 . S
C216 O212 1.278 . S
C216 O217 1.211 . S
O217 C216 1.211 . S
C218 O210 1.284 1_565 S
C218 O219 1.273 1_565 S
O219 C218 1.273 1_545 S
O220 Zn211 1.977 . S
O220 C213 1.267 . S
C221 O222 1.160 . S
C221 O228 1.185 . S
O222 C221 1.160 . S
O223 Zn224 1.899 . S
O223 C231 1.284 1_655 S
Zn224 O223 1.899 . S
Zn224 O225 2.032 . S
Zn224 O228 2.086 . S
Zn224 O233 1.977 . S
O225 Zn224 2.032 . S
O225 C229 1.278 . S
C226 O227 1.203 . S
C226 O233 1.267 . S
O227 C226 1.203 . S
O228 C221 1.185 . S
O228 Zn224 2.086 . S
C229 O225 1.278 . S
C229 O230 1.211 . S
O230 C229 1.211 . S
C231 O223 1.284 1_455 S
C231 O232 1.273 1_455 S
O232 C231 1.273 1_655 S
O233 Zn224 1.977 . S
O233 C226 1.267 . S
H234 C240 0.930 . S
H235 C243 0.931 . S
H236 C245 0.931 . S
H237 C247 0.930 . S
H238 C249 0.930 . S
H239 C251 0.931 . S
C240 H234 0.930 . S
C240 C241 1.380 . S
C240 C242 1.394 . S
C241 C240 1.380 . S
C241 C245 1.382 . S
C242 C240 1.394 . S
C242 C243 1.400 . S
C243 H235 0.931 . S
C243 C242 1.400 . S
C243 C244 1.375 . S
C244 C243 1.375 . S
C244 C245 1.415 . S
C244 C246 1.501 . S
C245 H236 0.931 . S
C245 C241 1.382 . S
C245 C244 1.415 . S
C246 C244 1.501 . S
C246 C247 1.384 . S
C246 C251 1.408 . S
C247 H237 0.930 . S
C247 C246 1.384 . S
C247 C248 1.389 . S
C248 C247 1.389 . S
C248 C249 1.405 . S
C249 H238 0.930 . S
C249 C248 1.405 . S
C249 C250 1.364 . S
C250 C249 1.364 . S
C250 C251 1.400 . S
C251 H239 0.931 . S
C251 C246 1.408 . S
C251 C250 1.400 . S
H252 C258 0.930 . S
H253 C261 0.931 . S
H254 C263 0.931 . S
H255 C265 0.930 . S
H256 C267 0.930 . S
H257 C269 0.931 . S
C258 H252 0.930 . S
C258 C259 1.380 . S
C258 C260 1.394 . S
C259 C258 1.380 . S
C259 C263 1.382 . S
C260 C258 1.394 . S
C260 C261 1.400 . S
C261 H253 0.931 . S
C261 C260 1.400 . S
C261 C262 1.375 . S
C262 C261 1.375 . S
C262 C263 1.415 . S
C262 C264 1.501 . S
C263 H254 0.931 . S
C263 C259 1.382 . S
C263 C262 1.415 . S
C264 C262 1.501 . S
C264 C265 1.384 . S
C264 C269 1.408 . S
C265 H255 0.930 . S
C265 C264 1.384 . S
C265 C266 1.389 . S
C266 C265 1.389 . S
C266 C267 1.405 . S
C267 H256 0.930 . S
C267 C266 1.405 . S
C267 C268 1.364 . S
C268 C267 1.364 . S
C268 C269 1.400 . S
C269 H257 0.931 . S
C269 C264 1.408 . S
C269 C268 1.400 . S
H270 C276 0.930 . S
H271 C279 0.931 . S
H272 C281 0.931 . S
H273 C283 0.930 . S
H274 C285 0.930 . S
H275 C287 0.931 . S
C276 H270 0.930 . S
C276 C277 1.380 . S
C276 C278 1.394 . S
C277 C276 1.380 . S
C277 C281 1.382 . S
C278 C276 1.394 . S
C278 C279 1.400 . S
C279 H271 0.931 . S
C279 C278 1.400 . S
C279 C280 1.375 . S
C280 C279 1.375 . S
C280 C281 1.415 . S
C280 C282 1.501 . S
C281 H272 0.931 . S
C281 C277 1.382 . S
C281 C280 1.415 . S
C282 C280 1.501 . S
C282 C283 1.384 . S
C282 C287 1.408 . S
C283 H273 0.930 . S
C283 C282 1.384 . S
C283 C284 1.389 . S
C284 C283 1.389 . S
C284 C285 1.405 . S
C285 H274 0.930 . S
C285 C284 1.405 . S
C285 C286 1.364 . S
C286 C285 1.364 . S
C286 C287 1.400 . S
C287 H275 0.931 . S
C287 C282 1.408 . S
C287 C286 1.400 . S
H288 C294 0.930 . S
H289 C297 0.931 . S
H290 C299 0.931 . S
H291 C301 0.930 . S
H292 C303 0.930 . S
H293 C305 0.931 . S
C294 H288 0.930 . S
C294 C295 1.380 . S
C294 C296 1.394 . S
C295 C294 1.380 . S
C295 C299 1.382 . S
C296 C294 1.394 . S
C296 C297 1.400 . S
C297 H289 0.931 . S
C297 C296 1.400 . S
C297 C298 1.375 . S
C298 C297 1.375 . S
C298 C299 1.415 . S
C298 C300 1.501 . S
C299 H290 0.931 . S
C299 C295 1.382 . S
C299 C298 1.415 . S
C300 C298 1.501 . S
C300 C301 1.384 . S
C300 C305 1.408 . S
C301 H291 0.930 . S
C301 C300 1.384 . S
C301 C302 1.389 . S
C302 C301 1.389 . S
C302 C303 1.405 . S
C303 H292 0.930 . S
C303 C302 1.405 . S
C303 C304 1.364 . S
C304 C303 1.364 . S
C304 C305 1.400 . S
C305 H293 0.931 . S
C305 C300 1.408 . S
C305 C304 1.400 . S
H306 C312 0.930 . S
H307 C315 0.931 . S
H308 C317 0.931 . S
H309 C319 0.930 . S
H310 C321 0.930 . S
H311 C323 0.931 . S
C312 H306 0.930 . S
C312 C313 1.380 . S
C312 C314 1.394 . S
C313 C312 1.380 . S
C313 C317 1.382 . S
C314 C312 1.394 . S
C314 C315 1.400 . S
C315 H307 0.931 . S
C315 C314 1.400 . S
C315 C316 1.375 . S
C316 C315 1.375 . S
C316 C317 1.415 . S
C316 C318 1.501 . S
C317 H308 0.931 . S
C317 C313 1.382 . S
C317 C316 1.415 . S
C318 C316 1.501 . S
C318 C319 1.384 . S
C318 C323 1.408 . S
C319 H309 0.930 . S
C319 C318 1.384 . S
C319 C320 1.389 . S
C320 C319 1.389 . S
C320 C321 1.405 . S
C321 H310 0.930 . S
C321 C320 1.405 . S
C321 C322 1.364 . S
C322 C321 1.364 . S
C322 C323 1.400 . S
C323 H311 0.931 . S
C323 C318 1.408 . S
C323 C322 1.400 . S
H324 C330 0.930 . S
H325 C333 0.931 . S
H326 C335 0.931 . S
H327 C337 0.930 . S
H328 C339 0.930 . S
H329 C341 0.931 . S
C330 H324 0.930 . S
C330 C331 1.380 . S
C330 C332 1.394 . S
C331 C330 1.380 . S
C331 C335 1.382 . S
C332 C330 1.394 . S
C332 C333 1.400 . S
C333 H325 0.931 . S
C333 C332 1.400 . S
C333 C334 1.375 . S
C334 C333 1.375 . S
C334 C335 1.415 . S
C334 C336 1.501 . S
C335 H326 0.931 . S
C335 C331 1.382 . S
C335 C334 1.415 . S
C336 C334 1.501 . S
C336 C337 1.384 . S
C336 C341 1.408 . S
C337 H327 0.930 . S
C337 C336 1.384 . S
C337 C338 1.389 . S
C338 C337 1.389 . S
C338 C339 1.405 . S
C339 H328 0.930 . S
C339 C338 1.405 . S
C339 C340 1.364 . S
C340 C339 1.364 . S
C340 C341 1.400 . S
C341 H329 0.931 . S
C341 C336 1.408 . S
C341 C340 1.400 . S
H342 C348 0.930 . S
H343 C351 0.931 . S
H344 C353 0.931 . S
H345 C355 0.930 . S
H346 C357 0.930 . S
H347 C359 0.931 . S
C348 H342 0.930 . S
C348 C349 1.380 . S
C348 C350 1.394 . S
C349 C348 1.380 . S
C349 C353 1.382 . S
C350 C348 1.394 . S
C350 C351 1.400 . S
C351 H343 0.931 . S
C351 C350 1.400 . S
C351 C352 1.375 . S
C352 C351 1.375 . S
C352 C353 1.415 . S
C352 C354 1.501 . S
C353 H344 0.931 . S
C353 C349 1.382 . S
C353 C352 1.415 . S
C354 C352 1.501 . S
C354 C355 1.384 . S
C354 C359 1.408 . S
C355 H345 0.930 . S
C355 C354 1.384 . S
C355 C356 1.389 . S
C356 C355 1.389 . S
C356 C357 1.405 . S
C357 H346 0.930 . S
C357 C356 1.405 . S
C357 C358 1.364 . S
C358 C357 1.364 . S
C358 C359 1.400 . S
C359 H347 0.931 . S
C359 C354 1.408 . S
C359 C358 1.400 . S
H360 C366 0.930 . S
H361 C369 0.931 . S
H362 C371 0.931 . S
H363 C373 0.930 . S
H364 C375 0.930 . S
H365 C377 0.931 . S
C366 H360 0.930 . S
C366 C367 1.380 . S
C366 C368 1.394 . S
C367 C366 1.380 . S
C367 C371 1.382 . S
C368 C366 1.394 . S
C368 C369 1.400 . S
C369 H361 0.931 . S
C369 C368 1.400 . S
C369 C370 1.375 . S
C370 C369 1.375 . S
C370 C371 1.415 . S
C370 C372 1.501 . S
C371 H362 0.931 . S
C371 C367 1.382 . S
C371 C370 1.415 . S
C372 C370 1.501 . S
C372 C373 1.384 . S
C372 C377 1.408 . S
C373 H363 0.930 . S
C373 C372 1.384 . S
C373 C374 1.389 . S
C374 C373 1.389 . S
C374 C375 1.405 . S
C375 H364 0.930 . S
C375 C374 1.405 . S
C375 C376 1.364 . S
C376 C375 1.364 . S
C376 C377 1.400 . S
C377 H365 0.931 . S
C377 C372 1.408 . S
C377 C376 1.400 . S
H378 C384 0.930 . S
H379 C387 0.931 . S
H380 C389 0.931 . S
H381 C391 0.930 . S
H382 C393 0.930 . S
H383 C395 0.931 . S
C384 H378 0.930 . S
C384 C385 1.380 . S
C384 C386 1.394 . S
C385 C384 1.380 . S
C385 C389 1.382 . S
C386 C384 1.394 . S
C386 C387 1.400 . S
C387 H379 0.931 . S
C387 C386 1.400 . S
C387 C388 1.375 . S
C388 C387 1.375 . S
C388 C389 1.415 . S
C388 C390 1.501 . S
C389 H380 0.931 . S
C389 C385 1.382 . S
C389 C388 1.415 . S
C390 C388 1.501 . S
C390 C391 1.384 . S
C390 C395 1.408 . S
C391 H381 0.930 . S
C391 C390 1.384 . S
C391 C392 1.389 . S
C392 C391 1.389 . S
C392 C393 1.405 . S
C393 H382 0.930 . S
C393 C392 1.405 . S
C393 C394 1.364 . S
C394 C393 1.364 . S
C394 C395 1.400 . S
C395 H383 0.931 . S
C395 C390 1.408 . S
C395 C394 1.400 . S
H396 C402 0.953 1_655 S
H397 C405 0.931 . S
H398 C407 0.931 . S
H399 C409 0.930 . S
H400 C411 0.945 . S
H401 C413 0.937 1_655 S
C402 H396 0.953 1_455 S
C402 C403 1.374 1_455 S
C402 C404 1.393 . S
C403 C402 1.374 1_655 S
C403 C407 1.382 . S
C404 C402 1.393 . S
C404 C405 1.400 . S
C405 H397 0.931 . S
C405 C404 1.400 . S
C405 C406 1.375 . S
C406 C405 1.375 . S
C406 C407 1.415 1_455 S
C406 C408 1.501 . S
C407 H398 0.931 . S
C407 C403 1.382 . S
C407 C406 1.415 1_655 S
C408 C406 1.501 . S
C408 C409 1.384 . S
C408 C413 1.415 . S
C409 H399 0.930 . S
C409 C408 1.384 . S
C409 C410 1.424 . S
C410 C409 1.424 . S
C410 C411 1.400 . S
C411 H400 0.945 . S
C411 C410 1.400 . S
C411 C412 1.374 1_455 S
C412 C411 1.374 1_655 S
C412 C413 1.393 1_655 S
C413 H401 0.937 1_455 S
C413 C408 1.415 . S
C413 C412 1.393 1_455 S
H414 C420 0.930 . S
H415 C423 0.931 . S
H416 C425 0.931 . S
H417 C427 0.930 . S
H418 C429 0.930 . S
H419 C431 0.931 . S
C420 H414 0.930 . S
C420 C421 1.380 . S
C420 C422 1.394 . S
C421 C420 1.380 . S
C421 C425 1.382 . S
C422 C420 1.394 . S
C422 C423 1.400 . S
C423 H415 0.931 . S
C423 C422 1.400 . S
C423 C424 1.375 . S
C424 C423 1.375 . S
C424 C425 1.415 . S
C424 C426 1.501 . S
C425 H416 0.931 . S
C425 C421 1.382 . S
C425 C424 1.415 . S
C426 C424 1.501 . S
C426 C427 1.384 . S
C426 C431 1.408 . S
C427 H417 0.930 . S
C427 C426 1.384 . S
C427 C428 1.389 . S
C428 C427 1.389 . S
C428 C429 1.405 . S
C429 H418 0.930 . S
C429 C428 1.405 . S
C429 C430 1.364 . S
C430 C429 1.364 . S
C430 C431 1.400 . S
C431 H419 0.931 . S
C431 C426 1.408 . S
C431 C430 1.400 . S
H432 C438 0.967 . S
H433 C441 0.931 . S
H434 C443 0.931 . S
H435 C445 0.930 . S
H436 C447 0.930 . S
H437 C449 0.919 . S
C438 H432 0.967 . S
C438 C439 1.374 . S
C438 C440 1.367 1_545 S
C439 C438 1.374 . S
C439 C443 1.382 . S
C440 C438 1.367 1_565 S
C440 C441 1.400 . S
C441 H433 0.931 . S
C441 C440 1.400 . S
C441 C442 1.375 . S
C442 C441 1.375 . S
C442 C443 1.415 1_565 S
C442 C444 1.501 . S
C443 H434 0.931 . S
C443 C439 1.382 . S
C443 C442 1.415 1_545 S
C444 C442 1.501 . S
C444 C445 1.384 . S
C444 C449 1.390 . S
C445 H435 0.930 . S
C445 C444 1.384 . S
C445 C446 1.389 . S
C446 C445 1.389 . S
C446 C447 1.405 . S
C447 H436 0.930 . S
C447 C446 1.405 . S
C447 C448 1.388 . S
C448 C447 1.388 . S
C448 C449 1.399 . S
C449 H437 0.919 . S
C449 C444 1.390 . S
C449 C448 1.399 . S
H450 C456 0.966 . S
H451 C459 0.931 . S
H452 C461 0.924 . S
H453 C463 0.930 . S
H454 C465 0.946 . S
H455 C467 0.931 . S
C456 H450 0.966 . S
C456 C457 1.382 . S
C456 C458 1.415 1_545 S
C457 C456 1.382 . S
C457 C461 1.393 1_545 S
C458 C456 1.415 1_565 S
C458 C459 1.366 . S
C459 H451 0.931 . S
C459 C458 1.366 . S
C459 C460 1.375 . S
C460 C459 1.375 . S
C460 C461 1.408 . S
C460 C462 1.501 . S
C461 H452 0.924 . S
C461 C457 1.393 1_565 S
C461 C460 1.408 . S
C462 C460 1.501 . S
C462 C463 1.384 . S
C462 C467 1.408 1_565 S
C463 H453 0.930 . S
C463 C462 1.384 . S
C463 C464 1.389 . S
C464 C463 1.389 . S
C464 C465 1.420 . S
C465 H454 0.946 . S
C465 C464 1.420 . S
C465 C466 1.368 1_565 S
C466 C465 1.368 1_545 S
C466 C467 1.400 . S
C467 H455 0.931 . S
C467 C462 1.408 1_545 S
C467 C466 1.400 . S
H468 C474 0.930 . S
H469 C477 0.931 . S
H470 C479 0.928 1_655 S
H471 C481 0.930 . S
H472 C483 0.930 . S
H473 C485 0.931 . S
C474 H468 0.930 . S
C474 C475 1.399 . S
C474 C476 1.397 1_655 S
C475 C474 1.399 . S
C475 C479 1.350 1_655 S
C476 C474 1.397 1_455 S
C476 C477 1.394 . S
C477 H469 0.931 . S
C477 C476 1.394 . S
C477 C478 1.355 . S
C478 C477 1.355 . S
C478 C479 1.388 . S
C478 C480 1.552 . S
C479 H470 0.928 1_455 S
C479 C475 1.350 1_455 S
C479 C478 1.388 . S
C480 C478 1.552 . S
C480 C481 1.384 . S
C480 C485 1.408 1_455 S
C481 H471 0.930 . S
C481 C480 1.384 . S
C481 C482 1.389 . S
C482 C481 1.389 . S
C482 C483 1.405 . S
C483 H472 0.930 . S
C483 C482 1.405 . S
C483 C484 1.364 1_455 S
C484 C483 1.364 1_655 S
C484 C485 1.400 . S
C485 H473 0.931 . S
C485 C480 1.408 1_655 S
C485 C484 1.400 . S
H486 C492 0.930 . S
H487 C495 0.931 . S
H488 C497 0.931 . S
H489 C499 0.930 . S
H490 C501 0.930 . S
H491 C503 0.931 . S
C492 H486 0.930 . S
C492 C493 1.380 . S
C492 C494 1.394 . S
C493 C492 1.380 . S
C493 C497 1.382 . S
C494 C492 1.394 . S
C494 C495 1.400 . S
C495 H487 0.931 . S
C495 C494 1.400 . S
C495 C496 1.375 . S
C496 C495 1.375 . S
C496 C497 1.415 . S
C496 C498 1.501 . S
C497 H488 0.931 . S
C497 C493 1.382 . S
C497 C496 1.415 . S
C498 C496 1.501 . S
C498 C499 1.384 . S
C498 C503 1.408 . S
C499 H489 0.930 . S
C499 C498 1.384 . S
C499 C500 1.389 . S
C500 C499 1.389 . S
C500 C501 1.405 . S
C501 H490 0.930 . S
C501 C500 1.405 . S
C501 C502 1.364 . S
C502 C501 1.364 . S
C502 C503 1.400 . S
C503 H491 0.931 . S
C503 C498 1.408 . S
C503 C502 1.400 . S
H504 C510 0.930 . S
H505 C513 0.931 . S
H506 C515 0.931 . S
H507 C517 0.930 . S
H508 C519 0.930 . S
H509 C521 0.931 . S
C510 H504 0.930 . S
C510 C511 1.380 . S
C510 C512 1.394 . S
C511 C510 1.380 . S
C511 C515 1.382 . S
C512 C510 1.394 . S
C512 C513 1.400 . S
C513 H505 0.931 . S
C513 C512 1.400 . S
C513 C514 1.375 . S
C514 C513 1.375 . S
C514 C515 1.415 . S
C514 C516 1.501 . S
C515 H506 0.931 . S
C515 C511 1.382 . S
C515 C514 1.415 . S
C516 C514 1.501 . S
C516 C517 1.384 . S
C516 C521 1.408 . S
C517 H507 0.930 . S
C517 C516 1.384 . S
C517 C518 1.389 . S
C518 C517 1.389 . S
C518 C519 1.405 . S
C519 H508 0.930 . S
C519 C518 1.405 . S
C519 C520 1.364 . S
C520 C519 1.364 . S
C520 C521 1.400 . S
C521 H509 0.931 . S
C521 C516 1.408 . S
C521 C520 1.400 . S
H522 C528 0.930 . S
H523 C531 0.931 . S
H524 C533 0.931 . S
H525 C535 0.930 . S
H526 C537 0.930 . S
H527 C539 0.931 . S
C528 H522 0.930 . S
C528 C529 1.380 . S
C528 C530 1.394 . S
C529 C528 1.380 . S
C529 C533 1.382 . S
C530 C528 1.394 . S
C530 C531 1.400 . S
C531 H523 0.931 . S
C531 C530 1.400 . S
C531 C532 1.375 . S
C532 C531 1.375 . S
C532 C533 1.415 . S
C532 C534 1.501 . S
C533 H524 0.931 . S
C533 C529 1.382 . S
C533 C532 1.415 . S
C534 C532 1.501 . S
C534 C535 1.384 . S
C534 C539 1.408 . S
C535 H525 0.930 . S
C535 C534 1.384 . S
C535 C536 1.389 . S
C536 C535 1.389 . S
C536 C537 1.405 . S
C537 H526 0.930 . S
C537 C536 1.405 . S
C537 C538 1.364 . S
C538 C537 1.364 . S
C538 C539 1.400 . S
C539 H527 0.931 . S
C539 C534 1.408 . S
C539 C538 1.400 . S
H540 C546 0.930 . S
H541 C549 0.931 . S
H542 C551 0.931 . S
H543 C553 0.930 . S
H544 C555 0.930 . S
H545 C557 0.931 . S
C546 H540 0.930 . S
C546 C547 1.380 . S
C546 C548 1.394 . S
C547 C546 1.380 . S
C547 C551 1.382 . S
C548 C546 1.394 . S
C548 C549 1.400 . S
C549 H541 0.931 . S
C549 C548 1.400 . S
C549 C550 1.375 . S
C550 C549 1.375 . S
C550 C551 1.415 . S
C550 C552 1.501 . S
C551 H542 0.931 . S
C551 C547 1.382 . S
C551 C550 1.415 . S
C552 C550 1.501 . S
C552 C553 1.384 . S
C552 C557 1.408 . S
C553 H543 0.930 . S
C553 C552 1.384 . S
C553 C554 1.389 . S
C554 C553 1.389 . S
C554 C555 1.405 . S
C555 H544 0.930 . S
C555 C554 1.405 . S
C555 C556 1.364 . S
C556 C555 1.364 . S
C556 C557 1.400 . S
C557 H545 0.931 . S
C557 C552 1.408 . S
C557 C556 1.400 . S
H558 C566 0.929 . S
H559 C568 0.930 . S
H560 C570 0.930 . S
H561 C573 0.929 . S
H562 C576 0.930 . S
H563 C578 0.960 . S
H564 C578 0.960 . S
H565 C578 0.960 . S
C566 H558 0.929 . S
C566 C567 1.377 . S
C566 C568 1.384 . S
C567 C566 1.377 . S
C567 C573 1.390 1_655 S
C568 H559 0.930 . S
C568 C566 1.384 . S
C568 C569 1.372 . S
C569 C568 1.372 . S
C569 C570 1.400 1_655 S
C569 C574 1.490 . S
C570 H560 0.930 . S
C570 C569 1.400 1_455 S
C570 C573 1.386 . S
H571 C587 0.930 . S
H572 C588 0.931 . S
C573 H561 0.929 . S
C573 C567 1.390 1_455 S
C573 C570 1.386 . S
C574 C569 1.490 . S
C574 C576 1.395 . S
C574 C577 1.403 1_655 S
H575 C581 0.930 . S
C576 H562 0.930 . S
C576 C574 1.395 . S
C576 C579 1.403 . S
C577 C574 1.403 1_455 S
C577 C578 1.524 . S
C577 C581 1.400 . S
C578 H563 0.960 . S
C578 H564 0.960 . S
C578 H565 0.960 . S
C578 C577 1.524 . S
C579 C576 1.403 . S
C579 C580 1.392 . S
C579 C583 1.495 . S
C580 C579 1.392 . S
C580 C581 1.385 1_655 S
C580 C582 1.478 . S
C581 H575 0.930 . S
C581 C577 1.400 . S
C581 C580 1.385 1_455 S
C582 C580 1.478 . S
C582 C584 1.381 . S
C582 C588 1.383 1_655 S
C583 C579 1.495 . S
C583 H589 0.959 . S
C583 H590 0.961 . S
C583 H591 0.960 . S
C584 C582 1.381 . S
C584 C585 1.394 . S
C584 H592 0.930 . S
C585 C584 1.394 . S
C585 C586 1.383 . S
C585 H593 0.929 . S
C586 C585 1.383 . S
C586 C587 1.377 1_655 S
C587 H571 0.930 . S
C587 C586 1.377 1_455 S
C587 C588 1.379 . S
C588 H572 0.931 . S
C588 C582 1.383 1_455 S
C588 C587 1.379 . S
H589 C583 0.959 . S
H590 C583 0.961 . S
H591 C583 0.960 . S
H592 C584 0.930 . S
H593 C585 0.929 . S
H594 C602 0.929 . S
H595 C604 0.930 . S
H596 C606 0.930 . S
H597 C609 0.929 . S
H598 C612 0.930 . S
H599 C614 0.960 . S
H600 C614 0.960 . S
H601 C614 0.960 . S
C602 H594 0.929 . S
C602 C603 1.377 . S
C602 C604 1.384 . S
C603 C602 1.377 . S
C603 C609 1.390 . S
C604 H595 0.930 . S
C604 C602 1.384 . S
C604 C605 1.372 . S
C605 C604 1.372 . S
C605 C606 1.400 . S
C605 C610 1.490 . S
C606 H596 0.930 . S
C606 C605 1.400 . S
C606 C609 1.386 . S
H607 C623 0.930 . S
H608 C624 0.931 . S
C609 H597 0.929 . S
C609 C603 1.390 . S
C609 C606 1.386 . S
C610 C605 1.490 . S
C610 C612 1.395 . S
C610 C613 1.403 . S
H611 C617 0.930 . S
C612 H598 0.930 . S
C612 C610 1.395 . S
C612 C615 1.403 . S
C613 C610 1.403 . S
C613 C614 1.524 . S
C613 C617 1.400 . S
C614 H599 0.960 . S
C614 H600 0.960 . S
C614 H601 0.960 . S
C614 C613 1.524 . S
C615 C612 1.403 . S
C615 C616 1.392 . S
C615 C619 1.495 . S
C616 C615 1.392 . S
C616 C617 1.385 . S
C616 C618 1.478 . S
C617 H611 0.930 . S
C617 C613 1.400 . S
C617 C616 1.385 . S
C618 C616 1.478 . S
C618 C620 1.381 . S
C618 C624 1.383 . S
C619 C615 1.495 . S
C619 H625 0.959 . S
C619 H626 0.961 . S
C619 H627 0.960 . S
C620 C618 1.381 . S
C620 C621 1.394 . S
C620 H628 0.930 . S
C621 C620 1.394 . S
C621 C622 1.383 . S
C621 H629 0.929 . S
C622 C621 1.383 . S
C622 C623 1.377 . S
C623 H607 0.930 . S
C623 C622 1.377 . S
C623 C624 1.379 . S
C624 H608 0.931 . S
C624 C618 1.383 . S
C624 C623 1.379 . S
H625 C619 0.959 . S
H626 C619 0.961 . S
H627 C619 0.960 . S
H628 C620 0.930 . S
H629 C621 0.929 . S
H630 C638 0.929 . S
H631 C640 0.930 . S
H632 C642 0.930 . S
H633 C645 0.929 . S
H634 C648 0.930 . S
H635 C650 0.960 . S
H636 C650 0.960 . S
H637 C650 0.960 . S
C638 H630 0.929 . S
C638 C639 1.377 . S
C638 C640 1.384 . S
C639 C638 1.377 . S
C639 C645 1.390 . S
C640 H631 0.930 . S
C640 C638 1.384 . S
C640 C641 1.372 . S
C641 C640 1.372 . S
C641 C642 1.400 . S
C641 C646 1.490 . S
C642 H632 0.930 . S
C642 C641 1.400 . S
C642 C645 1.386 . S
H643 C659 0.930 . S
H644 C660 0.931 . S
C645 H633 0.929 . S
C645 C639 1.390 . S
C645 C642 1.386 . S
C646 C641 1.490 . S
C646 C648 1.395 . S
C646 C649 1.398 . S
H647 C653 0.913 1_565 S
C648 H634 0.930 . S
C648 C646 1.395 . S
C648 C651 1.403 . S
C649 C646 1.398 . S
C649 C650 1.525 1_545 S
C649 C653 1.420 . S
C650 H635 0.960 . S
C650 H636 0.960 . S
C650 H637 0.960 . S
C650 C649 1.525 1_565 S
C651 C648 1.403 . S
C651 C652 1.392 . S
C651 C655 1.495 . S
C652 C651 1.392 . S
C652 C653 1.387 . S
C652 C654 1.478 . S
C653 H647 0.913 1_545 S
C653 C649 1.420 . S
C653 C652 1.387 . S
C654 C652 1.478 . S
C654 C656 1.381 . S
C654 C660 1.383 . S
C655 C651 1.495 . S
C655 H661 0.959 . S
C655 H662 0.961 . S
C655 H663 0.960 . S
C656 C654 1.381 . S
C656 C657 1.398 1_545 S
C656 H664 0.930 1_545 S
C657 C656 1.398 1_565 S
C657 C658 1.386 1_565 S
C657 H665 0.923 . S
C658 C657 1.386 1_545 S
C658 C659 1.377 . S
C659 H643 0.930 . S
C659 C658 1.377 . S
C659 C660 1.379 . S
C660 H644 0.931 . S
C660 C654 1.383 . S
C660 C659 1.379 . S
H661 C655 0.959 . S
H662 C655 0.961 . S
H663 C655 0.960 . S
H664 C656 0.930 1_565 S
H665 C657 0.923 . S
H666 C674 0.929 . S
H667 C676 0.930 . S
H668 C678 0.930 . S
H669 C681 0.929 . S
H670 C684 0.930 . S
H671 C686 0.960 . S
H672 C686 0.883 1_545 S
H673 C686 0.960 . S
C674 H666 0.929 . S
C674 C675 1.380 . S
C674 C676 1.384 . S
C675 C674 1.380 . S
C675 C681 1.385 1_545 S
C676 H667 0.930 . S
C676 C674 1.384 . S
C676 C677 1.365 . S
C677 C676 1.365 . S
C677 C678 1.403 1_545 S
C677 C682 1.487 1_545 S
C678 H668 0.930 . S
C678 C677 1.403 1_565 S
C678 C681 1.386 . S
H679 C695 0.930 . S
H680 C696 0.931 . S
C681 H669 0.929 . S
C681 C675 1.385 1_565 S
C681 C678 1.386 . S
C682 C677 1.487 1_565 S
C682 C684 1.398 1_565 S
C682 C685 1.405 . S
H683 C689 0.930 . S
C684 H670 0.930 . S
C684 C682 1.398 1_545 S
C684 C687 1.403 . S
C685 C682 1.405 . S
C685 C686 1.524 . S
C685 C689 1.400 . S
C686 H671 0.960 . S
C686 H672 0.883 1_565 S
C686 H673 0.960 . S
C686 C685 1.524 . S
C687 C684 1.403 . S
C687 C688 1.384 1_545 S
C687 C691 1.495 . S
C688 C687 1.384 1_565 S
C688 C689 1.368 . S
C688 C690 1.507 . S
C689 H683 0.930 . S
C689 C685 1.400 . S
C689 C688 1.368 . S
C690 C688 1.507 . S
C690 C692 1.381 1_565 S
C690 C696 1.383 . S
C691 C687 1.495 . S
C691 H697 0.959 . S
C691 H698 0.871 1_545 S
C691 H699 0.960 . S
C692 C690 1.381 1_545 S
C692 C693 1.394 . S
C692 H700 0.930 . S
C693 C692 1.394 . S
C693 C694 1.383 1_545 S
C693 H701 0.929 . S
C694 C693 1.383 1_565 S
C694 C695 1.377 . S
C695 H679 0.930 . S
C695 C694 1.377 . S
C695 C696 1.379 . S
C696 H680 0.931 . S
C696 C690 1.383 . S
C696 C695 1.379 . S
H697 C691 0.959 . S
H698 C691 0.871 1_565 S
H699 C691 0.960 . S
H700 C692 0.930 . S
H701 C693 0.929 . S
H702 C710 0.929 . S
H703 C712 0.930 . S
H704 C714 0.930 . S
H705 C717 0.929 . S
H706 C720 0.930 . S
H707 C722 0.960 . S
H708 C722 0.960 . S
H709 C722 0.960 1_655 S
C710 H702 0.929 . S
C710 C711 1.377 . S
C710 C712 1.384 . S
C711 C710 1.377 . S
C711 C717 1.390 1_455 S
C712 H703 0.930 . S
C712 C710 1.384 . S
C712 C713 1.372 . S
C713 C712 1.372 . S
C713 C714 1.400 1_455 S
C713 C718 1.490 . S
C714 H704 0.930 . S
C714 C713 1.400 1_655 S
C714 C717 1.386 . S
H715 C731 0.930 . S
H716 C732 0.931 . S
C717 H705 0.929 . S
C717 C711 1.390 1_655 S
C717 C714 1.386 . S
C718 C713 1.490 . S
C718 C720 1.395 . S
C718 C721 1.403 . S
H719 C725 0.930 . S
C720 H706 0.930 . S
C720 C718 1.395 . S
C720 C723 1.403 . S
C721 C718 1.403 . S
C721 C722 1.524 . S
C721 C725 1.400 . S
C722 H707 0.960 . S
C722 H708 0.960 . S
C722 H709 0.960 1_455 S
C722 C721 1.524 . S
C723 C720 1.403 . S
C723 C724 1.392 . S
C723 C727 1.495 . S
C724 C723 1.392 . S
C724 C725 1.385 . S
C724 C726 1.478 . S
C725 H719 0.930 . S
C725 C721 1.400 . S
C725 C724 1.385 . S
C726 C724 1.478 . S
C726 C728 1.381 . S
C726 C732 1.383 1_455 S
C727 C723 1.495 . S
C727 H733 0.959 . S
C727 H734 0.946 1_455 S
C727 H735 0.960 . S
C728 C726 1.381 . S
C728 C729 1.394 . S
C728 H736 0.930 . S
C729 C728 1.394 . S
C729 C730 1.383 . S
C729 H737 0.929 . S
C730 C729 1.383 . S
C730 C731 1.377 1_455 S
C731 H715 0.930 . S
C731 C730 1.377 1_655 S
C731 C732 1.379 . S
C732 H716 0.931 . S
C732 C726 1.383 1_655 S
C732 C731 1.379 . S
H733 C727 0.959 . S
H734 C727 0.946 1_655 S
H735 C727 0.960 . S
H736 C728 0.930 . S
H737 C729 0.929 . S
H738 C746 0.929 . S
H739 C748 0.930 . S
H740 C750 0.930 . S
H741 C753 0.929 . S
H742 C756 0.930 . S
H743 C758 0.960 . S
H744 C758 0.960 . S
H745 C758 0.960 . S
C746 H738 0.929 . S
C746 C747 1.377 . S
C746 C748 1.384 . S
C747 C746 1.377 . S
C747 C753 1.390 . S
C748 H739 0.930 . S
C748 C746 1.384 . S
C748 C749 1.372 . S
C749 C748 1.372 . S
C749 C750 1.400 . S
C749 C754 1.490 . S
C750 H740 0.930 . S
C750 C749 1.400 . S
C750 C753 1.386 . S
H751 C767 0.930 . S
H752 C768 0.931 . S
C753 H741 0.929 . S
C753 C747 1.390 . S
C753 C750 1.386 . S
C754 C749 1.490 . S
C754 C756 1.395 . S
C754 C757 1.403 . S
H755 C761 0.930 . S
C756 H742 0.930 . S
C756 C754 1.395 . S
C756 C759 1.403 . S
C757 C754 1.403 . S
C757 C758 1.524 . S
C757 C761 1.400 . S
C758 H743 0.960 . S
C758 H744 0.960 . S
C758 H745 0.960 . S
C758 C757 1.524 . S
C759 C756 1.403 . S
C759 C760 1.392 . S
C759 C763 1.495 . S
C760 C759 1.392 . S
C760 C761 1.385 . S
C760 C762 1.478 . S
C761 H755 0.930 . S
C761 C757 1.400 . S
C761 C760 1.385 . S
C762 C760 1.478 . S
C762 C764 1.381 . S
C762 C768 1.383 . S
C763 C759 1.495 . S
C763 H769 0.959 . S
C763 H770 0.961 . S
C763 H771 0.960 . S
C764 C762 1.381 . S
C764 C765 1.394 . S
C764 H772 0.930 . S
C765 C764 1.394 . S
C765 C766 1.383 . S
C765 H773 0.929 . S
C766 C765 1.383 . S
C766 C767 1.377 . S
C767 H751 0.930 . S
C767 C766 1.377 . S
C767 C768 1.379 . S
C768 H752 0.931 . S
C768 C762 1.383 . S
C768 C767 1.379 . S
H769 C763 0.959 . S
H770 C763 0.961 . S
H771 C763 0.960 . S
H772 C764 0.930 . S
H773 C765 0.929 . S
H774 C782 0.929 . S
H775 C784 0.930 . S
H776 C786 0.930 . S
H777 C789 0.929 . S
H778 C792 0.930 . S
H779 C794 0.960 . S
H780 C794 0.960 . S
H781 C794 0.960 . S
C782 H774 0.929 . S
C782 C783 1.377 1_655 S
C782 C784 1.384 . S
C783 C782 1.377 1_455 S
C783 C789 1.390 . S
C784 H775 0.930 . S
C784 C782 1.384 . S
C784 C785 1.372 1_655 S
C785 C784 1.372 1_455 S
C785 C786 1.400 . S
C785 C790 1.490 . S
C786 H776 0.930 . S
C786 C785 1.400 . S
C786 C789 1.386 . S
H787 C803 0.930 . S
H788 C804 0.931 . S
C789 H777 0.929 . S
C789 C783 1.390 . S
C789 C786 1.386 . S
C790 C785 1.490 . S
C790 C792 1.395 1_455 S
C790 C793 1.403 . S
H791 C797 0.930 . S
C792 H778 0.930 . S
C792 C790 1.395 1_655 S
C792 C795 1.403 . S
C793 C790 1.403 . S
C793 C794 1.524 . S
C793 C797 1.400 . S
C794 H779 0.960 . S
C794 H780 0.960 . S
C794 H781 0.960 . S
C794 C793 1.524 . S
C795 C792 1.403 . S
C795 C796 1.466 . S
C795 C799 1.495 . S
C796 C795 1.466 . S
C796 C797 1.338 1_655 S
C796 C798 1.451 . S
C797 H791 0.930 . S
C797 C793 1.400 . S
C797 C796 1.338 1_455 S
C798 C796 1.451 . S
C798 C800 1.381 . S
C798 C804 1.383 1_655 S
C799 C795 1.495 . S
C799 H805 0.959 . S
C799 H806 0.961 . S
C799 H807 0.960 . S
C800 C798 1.381 . S
C800 C801 1.394 . S
C800 H808 0.930 . S
C801 C800 1.394 . S
C801 C802 1.383 . S
C801 H809 0.929 . S
C802 C801 1.383 . S
C802 C803 1.377 1_655 S
C803 H787 0.930 . S
C803 C802 1.377 1_455 S
C803 C804 1.379 . S
C804 H788 0.931 . S
C804 C798 1.383 1_455 S
C804 C803 1.379 . S
H805 C799 0.959 . S
H806 C799 0.961 . S
H807 C799 0.960 . S
H808 C800 0.930 . S
H809 C801 0.929 . S
H810 C818 0.929 . S
H811 C820 0.930 . S
H812 C822 0.930 . S
H813 C825 0.929 . S
H814 C828 0.930 . S
H815 C830 0.960 . S
H816 C830 0.960 . S
H817 C830 0.960 . S
C818 H810 0.929 . S
C818 C819 1.377 . S
C818 C820 1.384 . S
C819 C818 1.377 . S
C819 C825 1.390 . S
C820 H811 0.930 . S
C820 C818 1.384 . S
C820 C821 1.372 . S
C821 C820 1.372 . S
C821 C822 1.400 . S
C821 C826 1.490 . S
C822 H812 0.930 . S
C822 C821 1.400 . S
C822 C825 1.386 . S
H823 C839 0.930 . S
H824 C840 0.931 . S
C825 H813 0.929 . S
C825 C819 1.390 . S
C825 C822 1.386 . S
C826 C821 1.490 . S
C826 C828 1.395 . S
C826 C829 1.403 . S
H827 C833 0.930 . S
C828 H814 0.930 . S
C828 C826 1.395 . S
C828 C831 1.403 . S
C829 C826 1.403 . S
C829 C830 1.524 . S
C829 C833 1.400 . S
C830 H815 0.960 . S
C830 H816 0.960 . S
C830 H817 0.960 . S
C830 C829 1.524 . S
C831 C828 1.403 . S
C831 C832 1.392 . S
C831 C835 1.495 . S
C832 C831 1.392 . S
C832 C833 1.385 . S
C832 C834 1.478 . S
C833 H827 0.930 . S
C833 C829 1.400 . S
C833 C832 1.385 . S
C834 C832 1.478 . S
C834 C836 1.381 . S
C834 C840 1.383 . S
C835 C831 1.495 . S
C835 H841 0.959 . S
C835 H842 0.961 . S
C835 H843 0.960 . S
C836 C834 1.381 . S
C836 C837 1.394 . S
C836 H844 0.930 . S
C837 C836 1.394 . S
C837 C838 1.383 . S
C837 H845 0.929 . S
C838 C837 1.383 . S
C838 C839 1.377 . S
C839 H823 0.930 . S
C839 C838 1.377 . S
C839 C840 1.379 . S
C840 H824 0.931 . S
C840 C834 1.383 . S
C840 C839 1.379 . S
H841 C835 0.959 . S
H842 C835 0.961 . S
H843 C835 0.960 . S
H844 C836 0.930 . S
H845 C837 0.929 . S
H846 C854 0.929 . S
H847 C856 0.930 . S
H848 C858 0.930 . S
H849 C861 0.929 . S
H850 C864 0.930 . S
H851 C866 0.960 . S
H852 C866 0.960 . S
H853 C866 0.960 . S
C854 H846 0.929 . S
C854 C855 1.377 1_545 S
C854 C856 1.384 . S
C855 C854 1.377 1_565 S
C855 C861 1.390 . S
C856 H847 0.930 . S
C856 C854 1.384 . S
C856 C857 1.372 1_545 S
C857 C856 1.372 1_565 S
C857 C858 1.400 . S
C857 C862 1.490 . S
C858 H848 0.930 . S
C858 C857 1.400 . S
C858 C861 1.386 . S
H859 C875 0.930 . S
H860 C876 0.931 . S
C861 H849 0.929 . S
C861 C855 1.390 . S
C861 C858 1.386 . S
C862 C857 1.490 . S
C862 C864 1.395 . S
C862 C865 1.403 1_565 S
H863 C869 0.930 . S
C864 H850 0.930 . S
C864 C862 1.395 . S
C864 C867 1.403 . S
C865 C862 1.403 1_545 S
C865 C866 1.524 . S
C865 C869 1.400 . S
C866 H851 0.960 . S
C866 H852 0.960 . S
C866 H853 0.960 . S
C866 C865 1.524 . S
C867 C864 1.403 . S
C867 C868 1.392 . S
C867 C871 1.495 . S
C868 C867 1.392 . S
C868 C869 1.385 1_565 S
C868 C870 1.478 . S
C869 H863 0.930 . S
C869 C865 1.400 . S
C869 C868 1.385 1_545 S
C870 C868 1.478 . S
C870 C872 1.381 1_565 S
C870 C876 1.383 . S
C871 C867 1.495 . S
C871 H877 0.959 . S
C871 H878 0.961 . S
C871 H879 0.960 . S
C872 C870 1.381 1_545 S
C872 C873 1.394 . S
C872 H880 0.930 . S
C873 C872 1.394 . S
C873 C874 1.387 1_545 S
C873 H881 0.929 . S
C874 C873 1.387 1_565 S
C874 C875 1.415 . S
C875 H859 0.930 . S
C875 C874 1.415 . S
C875 C876 1.379 . S
C876 H860 0.931 . S
C876 C870 1.383 . S
C876 C875 1.379 . S
H877 C871 0.959 . S
H878 C871 0.961 . S
H879 C871 0.960 . S
H880 C872 0.930 . S
H881 C873 0.929 . S
H882 C890 0.871 1_565 S
H883 C892 0.929 1_565 S
H884 C894 0.930 . S
H885 C897 0.929 . S
H886 C900 0.930 . S
H887 C902 0.960 . S
H888 C902 0.960 . S
H889 C902 0.960 . S
C890 H882 0.871 1_545 S
C890 C891 1.411 . S
C890 C892 1.413 . S
C891 C890 1.411 . S
C891 C897 1.390 . S
C892 H883 0.929 1_545 S
C892 C890 1.413 . S
C892 C893 1.373 . S
C893 C892 1.373 . S
C893 C894 1.400 . S
C893 C898 1.490 . S
C894 H884 0.930 . S
C894 C893 1.400 . S
C894 C897 1.386 . S
H895 C911 0.930 . S
H896 C912 0.931 . S
C897 H885 0.929 . S
C897 C891 1.390 . S
C897 C894 1.386 . S
C898 C893 1.490 . S
C898 C900 1.395 . S
C898 C901 1.403 1_545 S
H899 C905 0.930 . S
C900 H886 0.930 . S
C900 C898 1.395 . S
C900 C903 1.403 . S
C901 C898 1.403 1_565 S
C901 C902 1.524 . S
C901 C905 1.400 . S
C902 H887 0.960 . S
C902 H888 0.960 . S
C902 H889 0.960 . S
C902 C901 1.524 . S
C903 C900 1.403 . S
C903 C904 1.392 . S
C903 C907 1.495 . S
C904 C903 1.392 . S
C904 C905 1.385 1_545 S
C904 C906 1.478 . S
C905 H899 0.930 . S
C905 C901 1.400 . S
C905 C904 1.385 1_565 S
C906 C904 1.478 . S
C906 C908 1.381 1_545 S
C906 C912 1.383 . S
C907 C903 1.495 . S
C907 H913 0.959 . S
C907 H914 0.961 . S
C907 H915 0.960 . S
C908 C906 1.381 1_565 S
C908 C909 1.394 . S
C908 H916 0.930 . S
C909 C908 1.394 . S
C909 C910 1.328 1_565 S
C909 H917 0.929 . S
C910 C909 1.328 1_545 S
C910 C911 1.410 . S
C911 H895 0.930 . S
C911 C910 1.410 . S
C911 C912 1.379 . S
C912 H896 0.931 . S
C912 C906 1.383 . S
C912 C911 1.379 . S
H913 C907 0.959 . S
H914 C907 0.961 . S
H915 C907 0.960 . S
H916 C908 0.930 . S
H917 C909 0.929 . S
H918 C926 0.929 . S
H919 C928 0.930 . S
H920 C930 0.930 . S
H921 C933 0.929 . S
H922 C936 0.931 1_455 S
H923 C938 0.960 . S
H924 C938 0.960 . S
H925 C938 0.960 . S
C926 H918 0.929 . S
C926 C927 1.377 . S
C926 C928 1.384 . S
C927 C926 1.377 . S
C927 C933 1.390 1_655 S
C928 H919 0.930 . S
C928 C926 1.384 . S
C928 C929 1.372 . S
C929 C928 1.372 . S
C929 C930 1.400 1_655 S
C929 C934 1.490 . S
C930 H920 0.930 . S
C930 C929 1.400 1_455 S
C930 C933 1.386 . S
H931 C947 0.930 . S
H932 C948 0.931 . S
C933 H921 0.929 . S
C933 C927 1.390 1_455 S
C933 C930 1.386 . S
C934 C929 1.490 . S
C934 C936 1.391 . S
C934 C937 1.403 . S
H935 C941 0.930 . S
C936 H922 0.931 1_655 S
C936 C934 1.391 . S
C936 C939 1.406 1_655 S
C937 C934 1.403 . S
C937 C938 1.524 . S
C937 C941 1.400 . S
C938 H923 0.960 . S
C938 H924 0.960 . S
C938 H925 0.960 . S
C938 C937 1.524 . S
C939 C936 1.406 1_455 S
C939 C940 1.392 1_455 S
C939 C943 1.495 . S
C940 C939 1.392 1_655 S
C940 C941 1.385 . S
C940 C942 1.506 . S
C941 H935 0.930 . S
C941 C937 1.400 . S
C941 C940 1.385 . S
C942 C940 1.506 . S
C942 C944 1.393 . S
C942 C948 1.347 1_655 S
C943 C939 1.495 . S
C943 H949 0.959 . S
C943 H950 0.961 . S
C943 H951 0.960 1_455 S
C944 C942 1.393 . S
C944 C945 1.394 . S
C944 H952 0.930 . S
C945 C944 1.394 . S
C945 C946 1.383 1_655 S
C945 H953 0.929 . S
C946 C945 1.383 1_455 S
C946 C947 1.377 . S
C947 H931 0.930 . S
C947 C946 1.377 . S
C947 C948 1.379 . S
C948 H932 0.931 . S
C948 C942 1.347 1_455 S
C948 C947 1.379 . S
H949 C943 0.959 . S
H950 C943 0.961 . S
H951 C943 0.960 1_655 S
H952 C944 0.930 . S
H953 C945 0.929 . S
H954 C962 0.929 . S
H955 C964 0.930 . S
H956 C966 0.930 . S
H957 C969 0.929 . S
H958 C972 0.930 . S
H959 C974 0.960 . S
H960 C974 0.960 . S
H961 C974 0.960 . S
C962 H954 0.929 . S
C962 C963 1.377 . S
C962 C964 1.384 . S
C963 C962 1.377 . S
C963 C969 1.390 . S
C964 H955 0.930 . S
C964 C962 1.384 . S
C964 C965 1.372 . S
C965 C964 1.372 . S
C965 C966 1.400 . S
C965 C970 1.490 . S
C966 H956 0.930 . S
C966 C965 1.400 . S
C966 C969 1.386 . S
H967 C983 0.930 . S
H968 C984 0.931 . S
C969 H957 0.929 . S
C969 C963 1.390 . S
C969 C966 1.386 . S
C970 C965 1.490 . S
C970 C972 1.395 . S
C970 C973 1.403 . S
H971 C977 0.930 . S
C972 H958 0.930 . S
C972 C970 1.395 . S
C972 C975 1.403 . S
C973 C970 1.403 . S
C973 C974 1.524 . S
C973 C977 1.400 . S
C974 H959 0.960 . S
C974 H960 0.960 . S
C974 H961 0.960 . S
C974 C973 1.524 . S
C975 C972 1.403 . S
C975 C976 1.392 . S
C975 C979 1.495 . S
C976 C975 1.392 . S
C976 C977 1.385 . S
C976 C978 1.478 . S
C977 H971 0.930 . S
C977 C973 1.400 . S
C977 C976 1.385 . S
C978 C976 1.478 . S
C978 C980 1.381 . S
C978 C984 1.383 . S
C979 C975 1.495 . S
C979 H985 0.959 . S
C979 H986 0.961 . S
C979 H987 0.960 . S
C980 C978 1.381 . S
C980 C981 1.394 . S
C980 H988 0.930 . S
C981 C980 1.394 . S
C981 C982 1.383 . S
C981 H989 0.929 . S
C982 C981 1.383 . S
C982 C983 1.377 . S
C983 H967 0.930 . S
C983 C982 1.377 . S
C983 C984 1.379 . S
C984 H968 0.931 . S
C984 C978 1.383 . S
C984 C983 1.379 . S
H985 C979 0.959 . S
H986 C979 0.961 . S
H987 C979 0.960 . S
H988 C980 0.930 . S
H989 C981 0.929 . S
H990 C998 0.929 . S
H991 C1000 0.930 . S
H992 C1002 0.930 . S
H993 C1005 0.929 . S
H994 C1008 0.930 . S
H995 C1010 0.960 . S
H996 C1010 0.960 . S
H997 C1010 0.960 . S
C998 H990 0.929 . S
C998 C999 1.377 . S
C998 C1000 1.384 . S
C999 C998 1.377 . S
C999 C1005 1.390 . S
C1000 H991 0.930 . S
C1000 C998 1.384 . S
C1000 C1001 1.372 . S
C1001 C1000 1.372 . S
C1001 C1002 1.400 . S
C1001 C1006 1.490 . S
C1002 H992 0.930 . S
C1002 C1001 1.400 . S
C1002 C1005 1.386 . S
H1003 C1019 0.930 . S
H1004 C1020 0.931 . S
C1005 H993 0.929 . S
C1005 C999 1.390 . S
C1005 C1002 1.386 . S
C1006 C1001 1.490 . S
C1006 C1008 1.395 . S
C1006 C1009 1.403 . S
H1007 C1013 0.930 . S
C1008 H994 0.930 . S
C1008 C1006 1.395 . S
C1008 C1011 1.403 . S
C1009 C1006 1.403 . S
C1009 C1010 1.524 . S
C1009 C1013 1.400 . S
C1010 H995 0.960 . S
C1010 H996 0.960 . S
C1010 H997 0.960 . S
C1010 C1009 1.524 . S
C1011 C1008 1.403 . S
C1011 C1012 1.392 . S
C1011 C1015 1.495 . S
C1012 C1011 1.392 . S
C1012 C1013 1.385 . S
C1012 C1014 1.478 . S
C1013 H1007 0.930 . S
C1013 C1009 1.400 . S
C1013 C1012 1.385 . S
C1014 C1012 1.478 . S
C1014 C1016 1.381 . S
C1014 C1020 1.383 . S
C1015 C1011 1.495 . S
C1015 H1021 0.959 . S
C1015 H1022 0.961 . S
C1015 H1023 0.960 . S
C1016 C1014 1.381 . S
C1016 C1017 1.394 . S
C1016 H1024 0.930 . S
C1017 C1016 1.394 . S
C1017 C1018 1.383 . S
C1017 H1025 0.929 . S
C1018 C1017 1.383 . S
C1018 C1019 1.377 . S
C1019 H1003 0.930 . S
C1019 C1018 1.377 . S
C1019 C1020 1.379 . S
C1020 H1004 0.931 . S
C1020 C1014 1.383 . S
C1020 C1019 1.379 . S
H1021 C1015 0.959 . S
H1022 C1015 0.961 . S
H1023 C1015 0.960 . S
H1024 C1016 0.930 . S
H1025 C1017 0.929 . S
H1026 C1034 0.929 . S
H1027 C1036 0.930 . S
H1028 C1038 0.930 . S
H1029 C1041 0.929 . S
H1030 C1044 0.930 . S
H1031 C1046 0.960 . S
H1032 C1046 0.960 . S
H1033 C1046 0.960 . S
C1034 H1026 0.929 . S
C1034 C1035 1.377 . S
C1034 C1036 1.384 . S
C1035 C1034 1.377 . S
C1035 C1041 1.390 . S
C1036 H1027 0.930 . S
C1036 C1034 1.384 . S
C1036 C1037 1.372 . S
C1037 C1036 1.372 . S
C1037 C1038 1.400 . S
C1037 C1042 1.490 . S
C1038 H1028 0.930 . S
C1038 C1037 1.400 . S
C1038 C1041 1.386 . S
H1039 C1055 0.930 . S
H1040 C1056 0.931 . S
C1041 H1029 0.929 . S
C1041 C1035 1.390 . S
C1041 C1038 1.386 . S
C1042 C1037 1.490 . S
C1042 C1044 1.395 . S
C1042 C1045 1.403 . S
H1043 C1049 0.930 . S
C1044 H1030 0.930 . S
C1044 C1042 1.395 . S
C1044 C1047 1.403 . S
C1045 C1042 1.403 . S
C1045 C1046 1.524 . S
C1045 C1049 1.400 . S
C1046 H1031 0.960 . S
C1046 H1032 0.960 . S
C1046 H1033 0.960 . S
C1046 C1045 1.524 . S
C1047 C1044 1.403 . S
C1047 C1048 1.392 . S
C1047 C1051 1.495 . S
C1048 C1047 1.392 . S
C1048 C1049 1.385 . S
C1048 C1050 1.478 . S
C1049 H1043 0.930 . S
C1049 C1045 1.400 . S
C1049 C1048 1.385 . S
C1050 C1048 1.478 . S
C1050 C1052 1.381 . S
C1050 C1056 1.383 . S
C1051 C1047 1.495 . S
C1051 H1057 0.959 . S
C1051 H1058 0.961 . S
C1051 H1059 0.960 . S
C1052 C1050 1.381 . S
C1052 C1053 1.394 . S
C1052 H1060 0.930 . S
C1053 C1052 1.394 . S
C1053 C1054 1.383 . S
C1053 H1061 0.929 . S
C1054 C1053 1.383 . S
C1054 C1055 1.377 . S
C1055 H1039 0.930 . S
C1055 C1054 1.377 . S
C1055 C1056 1.379 . S
C1056 H1040 0.931 . S
C1056 C1050 1.383 . S
C1056 C1055 1.379 . S
H1057 C1051 0.959 . S
H1058 C1051 0.961 . S
H1059 C1051 0.960 . S
H1060 C1052 0.930 . S
H1061 C1053 0.929 . S
H1062 C1070 0.929 . S
H1063 C1072 0.930 . S
H1064 C1074 0.930 . S
H1065 C1077 0.929 . S
H1066 C1080 0.930 . S
H1067 C1082 0.960 . S
H1068 C1082 0.960 . S
H1069 C1082 0.960 . S
C1070 H1062 0.929 . S
C1070 C1071 1.377 . S
C1070 C1072 1.384 . S
C1071 C1070 1.377 . S
C1071 C1077 1.390 . S
C1072 H1063 0.930 . S
C1072 C1070 1.384 . S
C1072 C1073 1.372 . S
C1073 C1072 1.372 . S
C1073 C1074 1.400 . S
C1073 C1078 1.490 . S
C1074 H1064 0.930 . S
C1074 C1073 1.400 . S
C1074 C1077 1.386 . S
H1075 C1091 0.930 . S
H1076 C1092 0.931 . S
C1077 H1065 0.929 . S
C1077 C1071 1.390 . S
C1077 C1074 1.386 . S
C1078 C1073 1.490 . S
C1078 C1080 1.395 . S
C1078 C1081 1.403 . S
H1079 C1085 0.930 . S
C1080 H1066 0.930 . S
C1080 C1078 1.395 . S
C1080 C1083 1.403 . S
C1081 C1078 1.403 . S
C1081 C1082 1.524 . S
C1081 C1085 1.400 . S
C1082 H1067 0.960 . S
C1082 H1068 0.960 . S
C1082 H1069 0.960 . S
C1082 C1081 1.524 . S
C1083 C1080 1.403 . S
C1083 C1084 1.392 . S
C1083 C1087 1.495 . S
C1084 C1083 1.392 . S
C1084 C1085 1.385 . S
C1084 C1086 1.478 . S
C1085 H1079 0.930 . S
C1085 C1081 1.400 . S
C1085 C1084 1.385 . S
C1086 C1084 1.478 . S
C1086 C1088 1.381 . S
C1086 C1092 1.383 . S
C1087 C1083 1.495 . S
C1087 H1093 0.959 . S
C1087 H1094 0.961 . S
C1087 H1095 0.960 . S
C1088 C1086 1.381 . S
C1088 C1089 1.394 . S
C1088 H1096 0.930 . S
C1089 C1088 1.394 . S
C1089 C1090 1.383 . S
C1089 H1097 0.929 . S
C1090 C1089 1.383 . S
C1090 C1091 1.377 . S
C1091 H1075 0.930 . S
C1091 C1090 1.377 . S
C1091 C1092 1.379 . S
C1092 H1076 0.931 . S
C1092 C1086 1.383 . S
C1092 C1091 1.379 . S
H1093 C1087 0.959 . S
H1094 C1087 0.961 . S
H1095 C1087 0.960 . S
H1096 C1088 0.930 . S
H1097 C1089 0.929 . S
H1098 C1106 0.929 . S
H1099 C1108 0.930 . S
H1100 C1110 0.930 . S
H1101 C1113 0.929 . S
H1102 C1116 0.930 . S
H1103 C1118 0.960 . S
H1104 C1118 0.960 . S
H1105 C1118 0.960 . S
C1106 H1098 0.929 . S
C1106 C1107 1.377 . S
C1106 C1108 1.384 . S
C1107 C1106 1.377 . S
C1107 C1113 1.390 . S
C1108 H1099 0.930 . S
C1108 C1106 1.384 . S
C1108 C1109 1.372 . S
C1109 C1108 1.372 . S
C1109 C1110 1.400 . S
C1109 C1114 1.490 . S
C1110 H1100 0.930 . S
C1110 C1109 1.400 . S
C1110 C1113 1.386 . S
H1111 C1127 0.930 . S
H1112 C1128 0.931 . S
C1113 H1101 0.929 . S
C1113 C1107 1.390 . S
C1113 C1110 1.386 . S
C1114 C1109 1.490 . S
C1114 C1116 1.395 . S
C1114 C1117 1.403 . S
H1115 C1121 0.930 . S
C1116 H1102 0.930 . S
C1116 C1114 1.395 . S
C1116 C1119 1.403 . S
C1117 C1114 1.403 . S
C1117 C1118 1.524 . S
C1117 C1121 1.400 . S
C1118 H1103 0.960 . S
C1118 H1104 0.960 . S
C1118 H1105 0.960 . S
C1118 C1117 1.524 . S
C1119 C1116 1.403 . S
C1119 C1120 1.392 . S
C1119 C1123 1.495 . S
C1120 C1119 1.392 . S
C1120 C1121 1.385 . S
C1120 C1122 1.478 . S
C1121 H1115 0.930 . S
C1121 C1117 1.400 . S
C1121 C1120 1.385 . S
C1122 C1120 1.478 . S
C1122 C1124 1.381 . S
C1122 C1128 1.383 . S
C1123 C1119 1.495 . S
C1123 H1129 0.959 . S
C1123 H1130 0.961 . S
C1123 H1131 0.960 . S
C1124 C1122 1.381 . S
C1124 C1125 1.394 . S
C1124 H1132 0.930 . S
C1125 C1124 1.394 . S
C1125 C1126 1.383 . S
C1125 H1133 0.929 . S
C1126 C1125 1.383 . S
C1126 C1127 1.377 . S
C1127 H1111 0.930 . S
C1127 C1126 1.377 . S
C1127 C1128 1.379 . S
C1128 H1112 0.931 . S
C1128 C1122 1.383 . S
C1128 C1127 1.379 . S
H1129 C1123 0.959 . S
H1130 C1123 0.961 . S
H1131 C1123 0.960 . S
H1132 C1124 0.930 . S
H1133 C1125 0.929 . S
H1134 C1142 0.929 . S
H1135 C1144 0.930 . S
H1136 C1146 0.930 . S
H1137 C1149 0.929 . S
H1138 C1152 0.930 . S
H1139 C1154 0.960 . S
H1140 C1154 0.960 . S
H1141 C1154 0.960 . S
C1142 H1134 0.929 . S
C1142 C1143 1.377 . S
C1142 C1144 1.384 . S
C1143 C1142 1.377 . S
C1143 C1149 1.390 . S
C1144 H1135 0.930 . S
C1144 C1142 1.384 . S
C1144 C1145 1.372 . S
C1145 C1144 1.372 . S
C1145 C1146 1.400 . S
C1145 C1150 1.490 . S
C1146 H1136 0.930 . S
C1146 C1145 1.400 . S
C1146 C1149 1.386 . S
H1147 C1163 0.930 . S
H1148 C1164 0.931 . S
C1149 H1137 0.929 . S
C1149 C1143 1.390 . S
C1149 C1146 1.386 . S
C1150 C1145 1.490 . S
C1150 C1152 1.395 . S
C1150 C1153 1.403 . S
H1151 C1157 0.930 . S
C1152 H1138 0.930 . S
C1152 C1150 1.395 . S
C1152 C1155 1.403 . S
C1153 C1150 1.403 . S
C1153 C1154 1.524 . S
C1153 C1157 1.400 . S
C1154 H1139 0.960 . S
C1154 H1140 0.960 . S
C1154 H1141 0.960 . S
C1154 C1153 1.524 . S
C1155 C1152 1.403 . S
C1155 C1156 1.392 . S
C1155 C1159 1.495 . S
C1156 C1155 1.392 . S
C1156 C1157 1.385 . S
C1156 C1158 1.478 . S
C1157 H1151 0.930 . S
C1157 C1153 1.400 . S
C1157 C1156 1.385 . S
C1158 C1156 1.478 . S
C1158 C1160 1.381 . S
C1158 C1164 1.383 . S
C1159 C1155 1.495 . S
C1159 H1165 0.959 . S
C1159 H1166 0.961 . S
C1159 H1167 0.960 . S
C1160 C1158 1.381 . S
C1160 C1161 1.394 . S
C1160 H1168 0.930 . S
C1161 C1160 1.394 . S
C1161 C1162 1.383 . S
C1161 H1169 0.929 . S
C1162 C1161 1.383 . S
C1162 C1163 1.377 . S
C1163 H1147 0.930 . S
C1163 C1162 1.377 . S
C1163 C1164 1.379 . S
C1164 H1148 0.931 . S
C1164 C1158 1.383 . S
C1164 C1163 1.379 . S
H1165 C1159 0.959 . S
H1166 C1159 0.961 . S
H1167 C1159 0.960 . S
H1168 C1160 0.930 . S
H1169 C1161 0.929 . S
H1170 C1178 0.929 . S
H1171 C1180 0.930 . S
H1172 C1182 0.930 . S
H1173 C1185 0.929 . S
H1174 C1188 0.930 . S
H1175 C1190 0.960 . S
H1176 C1190 0.960 . S
H1177 C1190 0.960 . S
C1178 H1170 0.929 . S
C1178 C1179 1.377 . S
C1178 C1180 1.384 . S
C1179 C1178 1.377 . S
C1179 C1185 1.390 . S
C1180 H1171 0.930 . S
C1180 C1178 1.384 . S
C1180 C1181 1.372 . S
C1181 C1180 1.372 . S
C1181 C1182 1.400 . S
C1181 C1186 1.490 . S
C1182 H1172 0.930 . S
C1182 C1181 1.400 . S
C1182 C1185 1.386 . S
H1183 C1199 0.930 . S
H1184 C1200 0.931 . S
C1185 H1173 0.929 . S
C1185 C1179 1.390 . S
C1185 C1182 1.386 . S
C1186 C1181 1.490 . S
C1186 C1188 1.395 . S
C1186 C1189 1.403 . S
H1187 C1193 0.930 . S
C1188 H1174 0.930 . S
C1188 C1186 1.395 . S
C1188 C1191 1.403 . S
C1189 C1186 1.403 . S
C1189 C1190 1.524 . S
C1189 C1193 1.400 . S
C1190 H1175 0.960 . S
C1190 H1176 0.960 . S
C1190 H1177 0.960 . S
C1190 C1189 1.524 . S
C1191 C1188 1.403 . S
C1191 C1192 1.392 . S
C1191 C1195 1.495 . S
C1192 C1191 1.392 . S
C1192 C1193 1.385 . S
C1192 C1194 1.478 . S
C1193 H1187 0.930 . S
C1193 C1189 1.400 . S
C1193 C1192 1.385 . S
C1194 C1192 1.478 . S
C1194 C1196 1.381 . S
C1194 C1200 1.383 . S
C1195 C1191 1.495 . S
C1195 H1201 0.959 . S
C1195 H1202 0.961 . S
C1195 H1203 0.960 . S
C1196 C1194 1.381 . S
C1196 C1197 1.394 . S
C1196 H1204 0.930 . S
C1197 C1196 1.394 . S
C1197 C1198 1.383 . S
C1197 H1205 0.929 . S
C1198 C1197 1.383 . S
C1198 C1199 1.377 . S
C1199 H1183 0.930 . S
C1199 C1198 1.377 . S
C1199 C1200 1.379 . S
C1200 H1184 0.931 . S
C1200 C1194 1.383 . S
C1200 C1199 1.379 . S
H1201 C1195 0.959 . S
H1202 C1195 0.961 . S
H1203 C1195 0.960 . S
H1204 C1196 0.930 . S
H1205 C1197 0.929 . S
H1206 C1214 0.929 . S
H1207 C1216 0.930 . S
H1208 C1218 0.930 . S
H1209 C1221 0.929 . S
H1210 C1224 0.930 . S
H1211 C1226 0.960 . S
H1212 C1226 0.960 . S
H1213 C1226 0.960 . S
C1214 H1206 0.929 . S
C1214 C1215 1.377 . S
C1214 C1216 1.384 . S
C1215 C1214 1.377 . S
C1215 C1221 1.390 . S
C1216 H1207 0.930 . S
C1216 C1214 1.384 . S
C1216 C1217 1.372 . S
C1217 C1216 1.372 . S
C1217 C1218 1.400 . S
C1217 C1222 1.490 . S
C1218 H1208 0.930 . S
C1218 C1217 1.400 . S
C1218 C1221 1.386 . S
H1219 C1235 0.930 . S
H1220 C1236 0.931 . S
C1221 H1209 0.929 . S
C1221 C1215 1.390 . S
C1221 C1218 1.386 . S
C1222 C1217 1.490 . S
C1222 C1224 1.395 . S
C1222 C1225 1.403 . S
H1223 C1229 0.930 . S
C1224 H1210 0.930 . S
C1224 C1222 1.395 . S
C1224 C1227 1.403 . S
C1225 C1222 1.403 . S
C1225 C1226 1.524 . S
C1225 C1229 1.400 . S
C1226 H1211 0.960 . S
C1226 H1212 0.960 . S
C1226 H1213 0.960 . S
C1226 C1225 1.524 . S
C1227 C1224 1.403 . S
C1227 C1228 1.392 . S
C1227 C1231 1.495 . S
C1228 C1227 1.392 . S
C1228 C1229 1.385 . S
C1228 C1230 1.478 . S
C1229 H1223 0.930 . S
C1229 C1225 1.400 . S
C1229 C1228 1.385 . S
C1230 C1228 1.478 . S
C1230 C1232 1.381 . S
C1230 C1236 1.383 . S
C1231 C1227 1.495 . S
C1231 H1237 0.959 . S
C1231 H1238 0.961 . S
C1231 H1239 0.960 . S
C1232 C1230 1.381 . S
C1232 C1233 1.394 . S
C1232 H1240 0.930 . S
C1233 C1232 1.394 . S
C1233 C1234 1.383 . S
C1233 H1241 0.929 . S
C1234 C1233 1.383 . S
C1234 C1235 1.377 . S
C1235 H1219 0.930 . S
C1235 C1234 1.377 . S
C1235 C1236 1.379 . S
C1236 H1220 0.931 . S
C1236 C1230 1.383 . S
C1236 C1235 1.379 . S
H1237 C1231 0.959 . S
H1238 C1231 0.961 . S
H1239 C1231 0.960 . S
H1240 C1232 0.930 . S
H1241 C1233 0.929 . S
H1242 C1250 0.929 . S
H1243 C1252 0.930 . S
H1244 C1254 0.930 . S
H1245 C1257 0.929 . S
H1246 C1260 0.930 . S
H1247 C1262 0.960 . S
H1248 C1262 0.960 . S
H1249 C1262 0.960 . S
C1250 H1242 0.929 . S
C1250 C1251 1.377 . S
C1250 C1252 1.384 . S
C1251 C1250 1.377 . S
C1251 C1257 1.390 . S
C1252 H1243 0.930 . S
C1252 C1250 1.384 . S
C1252 C1253 1.372 . S
C1253 C1252 1.372 . S
C1253 C1254 1.400 . S
C1253 C1258 1.490 . S
C1254 H1244 0.930 . S
C1254 C1253 1.400 . S
C1254 C1257 1.386 . S
H1255 C1271 0.930 . S
H1256 C1272 0.931 . S
C1257 H1245 0.929 . S
C1257 C1251 1.390 . S
C1257 C1254 1.386 . S
C1258 C1253 1.490 . S
C1258 C1260 1.395 . S
C1258 C1261 1.403 . S
H1259 C1265 0.930 . S
C1260 H1246 0.930 . S
C1260 C1258 1.395 . S
C1260 C1263 1.403 . S
C1261 C1258 1.403 . S
C1261 C1262 1.524 . S
C1261 C1265 1.400 . S
C1262 H1247 0.960 . S
C1262 H1248 0.960 . S
C1262 H1249 0.960 . S
C1262 C1261 1.524 . S
C1263 C1260 1.403 . S
C1263 C1264 1.392 . S
C1263 C1267 1.495 . S
C1264 C1263 1.392 . S
C1264 C1265 1.385 . S
C1264 C1266 1.478 . S
C1265 H1259 0.930 . S
C1265 C1261 1.400 . S
C1265 C1264 1.385 . S
C1266 C1264 1.478 . S
C1266 C1268 1.381 . S
C1266 C1272 1.383 . S
C1267 C1263 1.495 . S
C1267 H1273 0.959 . S
C1267 H1274 0.961 . S
C1267 H1275 0.960 . S
C1268 C1266 1.381 . S
C1268 C1269 1.394 . S
C1268 H1276 0.930 . S
C1269 C1268 1.394 . S
C1269 C1270 1.383 . S
C1269 H1277 0.929 . S
C1270 C1269 1.383 . S
C1270 C1271 1.377 . S
C1271 H1255 0.930 . S
C1271 C1270 1.377 . S
C1271 C1272 1.379 . S
C1272 H1256 0.931 . S
C1272 C1266 1.383 . S
C1272 C1271 1.379 . S
H1273 C1267 0.959 . S
H1274 C1267 0.961 . S
H1275 C1267 0.960 . S
H1276 C1268 0.930 . S
H1277 C1269 0.929 . S
H1278 C1286 0.929 . S
H1279 C1288 0.930 . S
H1280 C1290 0.930 . S
H1281 C1293 0.929 . S
H1282 C1296 0.930 . S
H1283 C1298 0.960 . S
H1284 C1298 0.960 . S
H1285 C1298 0.960 . S
C1286 H1278 0.929 . S
C1286 C1287 1.377 . S
C1286 C1288 1.384 . S
C1287 C1286 1.377 . S
C1287 C1293 1.390 . S
C1288 H1279 0.930 . S
C1288 C1286 1.384 . S
C1288 C1289 1.372 . S
C1289 C1288 1.372 . S
C1289 C1290 1.400 . S
C1289 C1294 1.490 . S
C1290 H1280 0.930 . S
C1290 C1289 1.400 . S
C1290 C1293 1.386 . S
H1291 C1307 0.930 . S
H1292 C1308 0.931 . S
C1293 H1281 0.929 . S
C1293 C1287 1.390 . S
C1293 C1290 1.386 . S
C1294 C1289 1.490 . S
C1294 C1296 1.395 . S
C1294 C1297 1.403 . S
H1295 C1301 0.930 . S
C1296 H1282 0.930 . S
C1296 C1294 1.395 . S
C1296 C1299 1.403 . S
C1297 C1294 1.403 . S
C1297 C1298 1.524 . S
C1297 C1301 1.400 . S
C1298 H1283 0.960 . S
C1298 H1284 0.960 . S
C1298 H1285 0.960 . S
C1298 C1297 1.524 . S
C1299 C1296 1.403 . S
C1299 C1300 1.392 . S
C1299 C1303 1.495 . S
C1300 C1299 1.392 . S
C1300 C1301 1.385 . S
C1300 C1302 1.478 . S
C1301 H1295 0.930 . S
C1301 C1297 1.400 . S
C1301 C1300 1.385 . S
C1302 C1300 1.478 . S
C1302 C1304 1.381 . S
C1302 C1308 1.383 . S
C1303 C1299 1.495 . S
C1303 H1309 0.959 . S
C1303 H1310 0.961 . S
C1303 H1311 0.960 . S
C1304 C1302 1.381 . S
C1304 C1305 1.394 . S
C1304 H1312 0.930 . S
C1305 C1304 1.394 . S
C1305 C1306 1.383 . S
C1305 H1313 0.929 . S
C1306 C1305 1.383 . S
C1306 C1307 1.377 . S
C1307 H1291 0.930 . S
C1307 C1306 1.377 . S
C1307 C1308 1.379 . S
C1308 H1292 0.931 . S
C1308 C1302 1.383 . S
C1308 C1307 1.379 . S
H1309 C1303 0.959 . S
H1310 C1303 0.961 . S
H1311 C1303 0.960 . S
H1312 C1304 0.930 . S
H1313 C1305 0.929 . S
H1314 C1322 0.929 . S
H1315 C1324 0.930 . S
H1316 C1326 0.930 . S
H1317 C1329 0.929 . S
H1318 C1332 0.930 . S
H1319 C1334 0.960 . S
H1320 C1334 0.960 . S
H1321 C1334 0.960 . S
C1322 H1314 0.929 . S
C1322 C1323 1.377 . S
C1322 C1324 1.384 . S
C1323 C1322 1.377 . S
C1323 C1329 1.390 . S
C1324 H1315 0.930 . S
C1324 C1322 1.384 . S
C1324 C1325 1.372 . S
C1325 C1324 1.372 . S
C1325 C1326 1.400 . S
C1325 C1330 1.490 . S
C1326 H1316 0.930 . S
C1326 C1325 1.400 . S
C1326 C1329 1.386 . S
H1327 C1343 0.930 . S
H1328 C1344 0.931 . S
C1329 H1317 0.929 . S
C1329 C1323 1.390 . S
C1329 C1326 1.386 . S
C1330 C1325 1.490 . S
C1330 C1332 1.395 . S
C1330 C1333 1.403 . S
H1331 C1337 0.930 . S
C1332 H1318 0.930 . S
C1332 C1330 1.395 . S
C1332 C1335 1.403 . S
C1333 C1330 1.403 . S
C1333 C1334 1.524 . S
C1333 C1337 1.400 . S
C1334 H1319 0.960 . S
C1334 H1320 0.960 . S
C1334 H1321 0.960 . S
C1334 C1333 1.524 . S
C1335 C1332 1.403 . S
C1335 C1336 1.392 . S
C1335 C1339 1.495 . S
C1336 C1335 1.392 . S
C1336 C1337 1.385 . S
C1336 C1338 1.478 . S
C1337 H1331 0.930 . S
C1337 C1333 1.400 . S
C1337 C1336 1.385 . S
C1338 C1336 1.478 . S
C1338 C1340 1.381 . S
C1338 C1344 1.383 . S
C1339 C1335 1.495 . S
C1339 H1345 0.959 . S
C1339 H1346 0.961 . S
C1339 H1347 0.960 . S
C1340 C1338 1.381 . S
C1340 C1341 1.394 . S
C1340 H1348 0.930 . S
C1341 C1340 1.394 . S
C1341 C1342 1.383 . S
C1341 H1349 0.929 . S
C1342 C1341 1.383 . S
C1342 C1343 1.377 . S
C1343 H1327 0.930 . S
C1343 C1342 1.377 . S
C1343 C1344 1.379 . S
C1344 H1328 0.931 . S
C1344 C1338 1.383 . S
C1344 C1343 1.379 . S
H1345 C1339 0.959 . S
H1346 C1339 0.961 . S
H1347 C1339 0.960 . S
H1348 C1340 0.930 . S
H1349 C1341 0.929 . S
H1350 C1358 0.929 . S
H1351 C1360 0.930 . S
H1352 C1362 0.930 . S
H1353 C1365 0.929 . S
H1354 C1368 0.930 . S
H1355 C1370 0.960 . S
H1356 C1370 0.960 . S
H1357 C1370 0.960 . S
C1358 H1350 0.929 . S
C1358 C1359 1.377 . S
C1358 C1360 1.384 . S
C1359 C1358 1.377 . S
C1359 C1365 1.390 . S
C1360 H1351 0.930 . S
C1360 C1358 1.384 . S
C1360 C1361 1.372 . S
C1361 C1360 1.372 . S
C1361 C1362 1.400 . S
C1361 C1366 1.490 . S
C1362 H1352 0.930 . S
C1362 C1361 1.400 . S
C1362 C1365 1.386 . S
H1363 C1379 0.930 . S
H1364 C1380 0.931 . S
C1365 H1353 0.929 . S
C1365 C1359 1.390 . S
C1365 C1362 1.386 . S
C1366 C1361 1.490 . S
C1366 C1368 1.395 . S
C1366 C1369 1.403 . S
H1367 C1373 0.930 . S
C1368 H1354 0.930 . S
C1368 C1366 1.395 . S
C1368 C1371 1.403 . S
C1369 C1366 1.403 . S
C1369 C1370 1.524 . S
C1369 C1373 1.400 . S
C1370 H1355 0.960 . S
C1370 H1356 0.960 . S
C1370 H1357 0.960 . S
C1370 C1369 1.524 . S
C1371 C1368 1.403 . S
C1371 C1372 1.392 . S
C1371 C1375 1.495 . S
C1372 C1371 1.392 . S
C1372 C1373 1.385 . S
C1372 C1374 1.478 . S
C1373 H1367 0.930 . S
C1373 C1369 1.400 . S
C1373 C1372 1.385 . S
C1374 C1372 1.478 . S
C1374 C1376 1.381 . S
C1374 C1380 1.383 . S
C1375 C1371 1.495 . S
C1375 H1381 0.959 . S
C1375 H1382 0.961 . S
C1375 H1383 0.960 . S
C1376 C1374 1.381 . S
C1376 C1377 1.394 . S
C1376 H1384 0.930 . S
C1377 C1376 1.394 . S
C1377 C1378 1.383 . S
C1377 H1385 0.929 . S
C1378 C1377 1.383 . S
C1378 C1379 1.377 . S
C1379 H1363 0.930 . S
C1379 C1378 1.377 . S
C1379 C1380 1.379 . S
C1380 H1364 0.931 . S
C1380 C1374 1.383 . S
C1380 C1379 1.379 . S
H1381 C1375 0.959 . S
H1382 C1375 0.961 . S
H1383 C1375 0.960 . S
H1384 C1376 0.930 . S
H1385 C1377 0.929 . S
H1386 C1394 0.929 . S
H1387 C1396 0.930 . S
H1388 C1398 0.930 . S
H1389 C1401 0.929 . S
H1390 C1404 0.930 . S
H1391 C1406 0.960 . S
H1392 C1406 0.960 . S
H1393 C1406 0.960 . S
C1394 H1386 0.929 . S
C1394 C1395 1.377 . S
C1394 C1396 1.384 . S
C1395 C1394 1.377 . S
C1395 C1401 1.390 . S
C1396 H1387 0.930 . S
C1396 C1394 1.384 . S
C1396 C1397 1.372 . S
C1397 C1396 1.372 . S
C1397 C1398 1.400 . S
C1397 C1402 1.490 . S
C1398 H1388 0.930 . S
C1398 C1397 1.400 . S
C1398 C1401 1.386 . S
H1399 C1415 0.930 . S
H1400 C1416 0.931 . S
C1401 H1389 0.929 . S
C1401 C1395 1.390 . S
C1401 C1398 1.386 . S
C1402 C1397 1.490 . S
C1402 C1404 1.395 . S
C1402 C1405 1.403 . S
H1403 C1409 0.930 . S
C1404 H1390 0.930 . S
C1404 C1402 1.395 . S
C1404 C1407 1.403 . S
C1405 C1402 1.403 . S
C1405 C1406 1.524 . S
C1405 C1409 1.400 . S
C1406 H1391 0.960 . S
C1406 H1392 0.960 . S
C1406 H1393 0.960 . S
C1406 C1405 1.524 . S
C1407 C1404 1.403 . S
C1407 C1408 1.392 . S
C1407 C1411 1.495 . S
C1408 C1407 1.392 . S
C1408 C1409 1.385 . S
C1408 C1410 1.478 . S
C1409 H1403 0.930 . S
C1409 C1405 1.400 . S
C1409 C1408 1.385 . S
C1410 C1408 1.478 . S
C1410 C1412 1.381 . S
C1410 C1416 1.383 . S
C1411 C1407 1.495 . S
C1411 H1417 0.959 . S
C1411 H1418 0.961 . S
C1411 H1419 0.960 . S
C1412 C1410 1.381 . S
C1412 C1413 1.394 . S
C1412 H1420 0.930 . S
C1413 C1412 1.394 . S
C1413 C1414 1.383 . S
C1413 H1421 0.929 . S
C1414 C1413 1.383 . S
C1414 C1415 1.377 . S
C1415 H1399 0.930 . S
C1415 C1414 1.377 . S
C1415 C1416 1.379 . S
C1416 H1400 0.931 . S
C1416 C1410 1.383 . S
C1416 C1415 1.379 . S
H1417 C1411 0.959 . S
H1418 C1411 0.961 . S
H1419 C1411 0.960 . S
H1420 C1412 0.930 . S
H1421 C1413 0.929 . S
H1422 C1430 0.929 . S
H1423 C1432 0.930 . S
H1424 C1434 0.930 . S
H1425 C1437 0.929 . S
H1426 C1440 0.930 . S
H1427 C1442 0.960 . S
H1428 C1442 0.960 . S
H1429 C1442 0.960 . S
C1430 H1422 0.929 . S
C1430 C1431 1.377 . S
C1430 C1432 1.384 . S
C1431 C1430 1.377 . S
C1431 C1437 1.390 . S
C1432 H1423 0.930 . S
C1432 C1430 1.384 . S
C1432 C1433 1.372 . S
C1433 C1432 1.372 . S
C1433 C1434 1.400 . S
C1433 C1438 1.490 . S
C1434 H1424 0.930 . S
C1434 C1433 1.400 . S
C1434 C1437 1.386 . S
H1435 C1451 0.930 . S
H1436 C1452 0.931 . S
C1437 H1425 0.929 . S
C1437 C1431 1.390 . S
C1437 C1434 1.386 . S
C1438 C1433 1.490 . S
C1438 C1440 1.395 . S
C1438 C1441 1.403 . S
H1439 C1445 0.930 . S
C1440 H1426 0.930 . S
C1440 C1438 1.395 . S
C1440 C1443 1.403 . S
C1441 C1438 1.403 . S
C1441 C1442 1.524 . S
C1441 C1445 1.400 . S
C1442 H1427 0.960 . S
C1442 H1428 0.960 . S
C1442 H1429 0.960 . S
C1442 C1441 1.524 . S
C1443 C1440 1.403 . S
C1443 C1444 1.392 . S
C1443 C1447 1.495 . S
C1444 C1443 1.392 . S
C1444 C1445 1.385 . S
C1444 C1446 1.478 . S
C1445 H1439 0.930 . S
C1445 C1441 1.400 . S
C1445 C1444 1.385 . S
C1446 C1444 1.478 . S
C1446 C1448 1.381 . S
C1446 C1452 1.383 . S
C1447 C1443 1.495 . S
C1447 H1453 0.959 . S
C1447 H1454 0.961 . S
C1447 H1455 0.960 . S
C1448 C1446 1.381 . S
C1448 C1449 1.394 . S
C1448 H1456 0.930 . S
C1449 C1448 1.394 . S
C1449 C1450 1.383 . S
C1449 H1457 0.929 . S
C1450 C1449 1.383 . S
C1450 C1451 1.377 . S
C1451 H1435 0.930 . S
C1451 C1450 1.377 . S
C1451 C1452 1.379 . S
C1452 H1436 0.931 . S
C1452 C1446 1.383 . S
C1452 C1451 1.379 . S
H1453 C1447 0.959 . S
H1454 C1447 0.961 . S
H1455 C1447 0.960 . S
H1456 C1448 0.930 . S
H1457 C1449 0.929 . S
H1458 C1466 0.929 . S
H1459 C1468 0.930 . S
H1460 C1470 0.930 . S
H1461 C1473 0.929 . S
H1462 C1476 0.930 . S
H1463 C1478 0.960 . S
H1464 C1478 0.960 . S
H1465 C1478 0.960 . S
C1466 H1458 0.929 . S
C1466 C1467 1.377 . S
C1466 C1468 1.384 . S
C1467 C1466 1.377 . S
C1467 C1473 1.390 . S
C1468 H1459 0.930 . S
C1468 C1466 1.384 . S
C1468 C1469 1.372 . S
C1469 C1468 1.372 . S
C1469 C1470 1.400 . S
C1469 C1474 1.490 . S
C1470 H1460 0.930 . S
C1470 C1469 1.400 . S
C1470 C1473 1.386 . S
H1471 C1487 0.930 . S
H1472 C1488 0.931 . S
C1473 H1461 0.929 . S
C1473 C1467 1.390 . S
C1473 C1470 1.386 . S
C1474 C1469 1.490 . S
C1474 C1476 1.395 . S
C1474 C1477 1.403 . S
H1475 C1481 0.930 . S
C1476 H1462 0.930 . S
C1476 C1474 1.395 . S
C1476 C1479 1.403 . S
C1477 C1474 1.403 . S
C1477 C1478 1.524 . S
C1477 C1481 1.400 . S
C1478 H1463 0.960 . S
C1478 H1464 0.960 . S
C1478 H1465 0.960 . S
C1478 C1477 1.524 . S
C1479 C1476 1.403 . S
C1479 C1480 1.392 . S
C1479 C1483 1.495 . S
C1480 C1479 1.392 . S
C1480 C1481 1.385 . S
C1480 C1482 1.478 . S
C1481 H1475 0.930 . S
C1481 C1477 1.400 . S
C1481 C1480 1.385 . S
C1482 C1480 1.478 . S
C1482 C1484 1.381 . S
C1482 C1488 1.383 . S
C1483 C1479 1.495 . S
C1483 H1489 0.959 . S
C1483 H1490 0.961 . S
C1483 H1491 0.960 . S
C1484 C1482 1.381 . S
C1484 C1485 1.394 . S
C1484 H1492 0.930 . S
C1485 C1484 1.394 . S
C1485 C1486 1.383 . S
C1485 H1493 0.929 . S
C1486 C1485 1.383 . S
C1486 C1487 1.377 . S
C1487 H1471 0.930 . S
C1487 C1486 1.377 . S
C1487 C1488 1.379 . S
C1488 H1472 0.931 . S
C1488 C1482 1.383 . S
C1488 C1487 1.379 . S
H1489 C1483 0.959 . S
H1490 C1483 0.961 . S
H1491 C1483 0.960 . S
H1492 C1484 0.930 . S
H1493 C1485 0.929 . S
H1494 C1502 0.929 . S
H1495 C1504 0.930 . S
H1496 C1506 0.930 . S
H1497 C1509 0.929 . S
H1498 C1512 0.930 . S
H1499 C1514 0.960 . S
H1500 C1514 0.960 . S
H1501 C1514 0.960 . S
C1502 H1494 0.929 . S
C1502 C1503 1.377 . S
C1502 C1504 1.384 . S
C1503 C1502 1.377 . S
C1503 C1509 1.390 . S
C1504 H1495 0.930 . S
C1504 C1502 1.384 . S
C1504 C1505 1.372 . S
C1505 C1504 1.372 . S
C1505 C1506 1.400 . S
C1505 C1510 1.490 . S
C1506 H1496 0.930 . S
C1506 C1505 1.400 . S
C1506 C1509 1.386 . S
H1507 C1523 0.930 . S
H1508 C1524 0.931 . S
C1509 H1497 0.929 . S
C1509 C1503 1.390 . S
C1509 C1506 1.386 . S
C1510 C1505 1.490 . S
C1510 C1512 1.395 . S
C1510 C1513 1.403 . S
H1511 C1517 0.930 . S
C1512 H1498 0.930 . S
C1512 C1510 1.395 . S
C1512 C1515 1.403 . S
C1513 C1510 1.403 . S
C1513 C1514 1.524 . S
C1513 C1517 1.400 . S
C1514 H1499 0.960 . S
C1514 H1500 0.960 . S
C1514 H1501 0.960 . S
C1514 C1513 1.524 . S
C1515 C1512 1.403 . S
C1515 C1516 1.392 . S
C1515 C1519 1.495 . S
C1516 C1515 1.392 . S
C1516 C1517 1.385 . S
C1516 C1518 1.478 . S
C1517 H1511 0.930 . S
C1517 C1513 1.400 . S
C1517 C1516 1.385 . S
C1518 C1516 1.478 . S
C1518 C1520 1.381 . S
C1518 C1524 1.383 . S
C1519 C1515 1.495 . S
C1519 H1525 0.959 . S
C1519 H1526 0.961 . S
C1519 H1527 0.960 . S
C1520 C1518 1.381 . S
C1520 C1521 1.394 . S
C1520 H1528 0.930 . S
C1521 C1520 1.394 . S
C1521 C1522 1.383 . S
C1521 H1529 0.929 . S
C1522 C1521 1.383 . S
C1522 C1523 1.377 . S
C1523 H1507 0.930 . S
C1523 C1522 1.377 . S
C1523 C1524 1.379 . S
C1524 H1508 0.931 . S
C1524 C1518 1.383 . S
C1524 C1523 1.379 . S
H1525 C1519 0.959 . S
H1526 C1519 0.961 . S
H1527 C1519 0.960 . S
H1528 C1520 0.930 . S
H1529 C1521 0.929 . S
H1530 C1538 0.929 . S
H1531 C1540 0.930 . S
H1532 C1542 0.930 . S
H1533 C1545 0.929 . S
H1534 C1548 0.930 . S
H1535 C1550 0.960 . S
H1536 C1550 0.960 . S
H1537 C1550 0.960 . S
C1538 H1530 0.929 . S
C1538 C1539 1.377 . S
C1538 C1540 1.384 . S
C1539 C1538 1.377 . S
C1539 C1545 1.390 . S
C1540 H1531 0.930 . S
C1540 C1538 1.384 . S
C1540 C1541 1.372 . S
C1541 C1540 1.372 . S
C1541 C1542 1.400 . S
C1541 C1546 1.490 . S
C1542 H1532 0.930 . S
C1542 C1541 1.400 . S
C1542 C1545 1.386 . S
H1543 C1559 0.930 . S
H1544 C1560 0.931 . S
C1545 H1533 0.929 . S
C1545 C1539 1.390 . S
C1545 C1542 1.386 . S
C1546 C1541 1.490 . S
C1546 C1548 1.395 . S
C1546 C1549 1.403 . S
H1547 C1553 0.930 . S
C1548 H1534 0.930 . S
C1548 C1546 1.395 . S
C1548 C1551 1.403 . S
C1549 C1546 1.403 . S
C1549 C1550 1.524 . S
C1549 C1553 1.400 . S
C1550 H1535 0.960 . S
C1550 H1536 0.960 . S
C1550 H1537 0.960 . S
C1550 C1549 1.524 . S
C1551 C1548 1.403 . S
C1551 C1552 1.392 . S
C1551 C1555 1.495 . S
C1552 C1551 1.392 . S
C1552 C1553 1.385 . S
C1552 C1554 1.478 . S
C1553 H1547 0.930 . S
C1553 C1549 1.400 . S
C1553 C1552 1.385 . S
C1554 C1552 1.478 . S
C1554 C1556 1.381 . S
C1554 C1560 1.383 . S
C1555 C1551 1.495 . S
C1555 H1561 0.959 . S
C1555 H1562 0.961 . S
C1555 H1563 0.960 . S
C1556 C1554 1.381 . S
C1556 C1557 1.394 . S
C1556 H1564 0.930 . S
C1557 C1556 1.394 . S
C1557 C1558 1.383 . S
C1557 H1565 0.929 . S
C1558 C1557 1.383 . S
C1558 C1559 1.377 . S
C1559 H1543 0.930 . S
C1559 C1558 1.377 . S
C1559 C1560 1.379 . S
C1560 H1544 0.931 . S
C1560 C1554 1.383 . S
C1560 C1559 1.379 . S
H1561 C1555 0.959 . S
H1562 C1555 0.961 . S
H1563 C1555 0.960 . S
H1564 C1556 0.930 . S
H1565 C1557 0.929 . S
H1566 C1574 0.929 . S
H1567 C1576 0.930 . S
H1568 C1578 0.930 . S
H1569 C1581 0.929 . S
H1570 C1584 0.930 . S
H1571 C1586 0.960 . S
H1572 C1586 0.960 . S
H1573 C1586 0.960 . S
C1574 H1566 0.929 . S
C1574 C1575 1.377 . S
C1574 C1576 1.384 . S
C1575 C1574 1.377 . S
C1575 C1581 1.390 . S
C1576 H1567 0.930 . S
C1576 C1574 1.384 . S
C1576 C1577 1.372 . S
C1577 C1576 1.372 . S
C1577 C1578 1.400 . S
C1577 C1582 1.490 . S
C1578 H1568 0.930 . S
C1578 C1577 1.400 . S
C1578 C1581 1.386 . S
H1579 C1595 0.930 . S
H1580 C1596 0.931 . S
C1581 H1569 0.929 . S
C1581 C1575 1.390 . S
C1581 C1578 1.386 . S
C1582 C1577 1.490 . S
C1582 C1584 1.395 . S
C1582 C1585 1.403 . S
H1583 C1589 0.930 . S
C1584 H1570 0.930 . S
C1584 C1582 1.395 . S
C1584 C1587 1.403 . S
C1585 C1582 1.403 . S
C1585 C1586 1.524 . S
C1585 C1589 1.400 . S
C1586 H1571 0.960 . S
C1586 H1572 0.960 . S
C1586 H1573 0.960 . S
C1586 C1585 1.524 . S
C1587 C1584 1.403 . S
C1587 C1588 1.392 . S
C1587 C1591 1.495 . S
C1588 C1587 1.392 . S
C1588 C1589 1.385 . S
C1588 C1590 1.478 . S
C1589 H1583 0.930 . S
C1589 C1585 1.400 . S
C1589 C1588 1.385 . S
C1590 C1588 1.478 . S
C1590 C1592 1.381 . S
C1590 C1596 1.383 . S
C1591 C1587 1.495 . S
C1591 H1597 0.959 . S
C1591 H1598 0.961 . S
C1591 H1599 0.960 . S
C1592 C1590 1.381 . S
C1592 C1593 1.394 . S
C1592 H1600 0.930 . S
C1593 C1592 1.394 . S
C1593 C1594 1.383 . S
C1593 H1601 0.929 . S
C1594 C1593 1.383 . S
C1594 C1595 1.377 . S
C1595 H1579 0.930 . S
C1595 C1594 1.377 . S
C1595 C1596 1.379 . S
C1596 H1580 0.931 . S
C1596 C1590 1.383 . S
C1596 C1595 1.379 . S
H1597 C1591 0.959 . S
H1598 C1591 0.961 . S
H1599 C1591 0.960 . S
H1600 C1592 0.930 . S
H1601 C1593 0.929 . S
H1602 C1610 0.929 . S
H1603 C1612 0.930 . S
H1604 C1614 0.930 . S
H1605 C1617 0.929 . S
H1606 C1620 0.930 . S
H1607 C1622 0.960 . S
H1608 C1622 0.960 . S
H1609 C1622 0.960 . S
C1610 H1602 0.929 . S
C1610 C1611 1.377 . S
C1610 C1612 1.384 . S
C1611 C1610 1.377 . S
C1611 C1617 1.390 . S
C1612 H1603 0.930 . S
C1612 C1610 1.384 . S
C1612 C1613 1.372 . S
C1613 C1612 1.372 . S
C1613 C1614 1.400 . S
C1613 C1618 1.490 . S
C1614 H1604 0.930 . S
C1614 C1613 1.400 . S
C1614 C1617 1.386 . S
H1615 C1631 0.930 . S
H1616 C1632 0.931 . S
C1617 H1605 0.929 . S
C1617 C1611 1.390 . S
C1617 C1614 1.386 . S
C1618 C1613 1.490 . S
C1618 C1620 1.395 . S
C1618 C1621 1.403 . S
H1619 C1625 0.930 . S
C1620 H1606 0.930 . S
C1620 C1618 1.395 . S
C1620 C1623 1.403 . S
C1621 C1618 1.403 . S
C1621 C1622 1.524 . S
C1621 C1625 1.400 . S
C1622 H1607 0.960 . S
C1622 H1608 0.960 . S
C1622 H1609 0.960 . S
C1622 C1621 1.524 . S
C1623 C1620 1.403 . S
C1623 C1624 1.392 . S
C1623 C1627 1.495 . S
C1624 C1623 1.392 . S
C1624 C1625 1.385 . S
C1624 C1626 1.478 . S
C1625 H1619 0.930 . S
C1625 C1621 1.400 . S
C1625 C1624 1.385 . S
C1626 C1624 1.478 . S
C1626 C1628 1.381 . S
C1626 C1632 1.383 . S
C1627 C1623 1.495 . S
C1627 H1633 0.959 . S
C1627 H1634 0.961 . S
C1627 H1635 0.960 . S
C1628 C1626 1.381 . S
C1628 C1629 1.394 . S
C1628 H1636 0.930 . S
C1629 C1628 1.394 . S
C1629 C1630 1.383 . S
C1629 H1637 0.929 . S
C1630 C1629 1.383 . S
C1630 C1631 1.377 . S
C1631 H1615 0.930 . S
C1631 C1630 1.377 . S
C1631 C1632 1.379 . S
C1632 H1616 0.931 . S
C1632 C1626 1.383 . S
C1632 C1631 1.379 . S
H1633 C1627 0.959 . S
H1634 C1627 0.961 . S
H1635 C1627 0.960 . S
H1636 C1628 0.930 . S
H1637 C1629 0.929 . S
H1638 C1646 0.929 . S
H1639 C1648 0.930 . S
H1640 C1650 0.930 . S
H1641 C1653 0.929 . S
H1642 C1656 0.930 . S
H1643 C1658 0.960 . S
H1644 C1658 0.960 . S
H1645 C1658 0.960 . S
C1646 H1638 0.929 . S
C1646 C1647 1.377 . S
C1646 C1648 1.384 . S
C1647 C1646 1.377 . S
C1647 C1653 1.390 . S
C1648 H1639 0.930 . S
C1648 C1646 1.384 . S
C1648 C1649 1.372 . S
C1649 C1648 1.372 . S
C1649 C1650 1.400 . S
C1649 C1654 1.490 . S
C1650 H1640 0.930 . S
C1650 C1649 1.400 . S
C1650 C1653 1.386 . S
H1651 C1667 0.930 . S
H1652 C1668 0.931 . S
C1653 H1641 0.929 . S
C1653 C1647 1.390 . S
C1653 C1650 1.386 . S
C1654 C1649 1.490 . S
C1654 C1656 1.395 . S
C1654 C1657 1.403 . S
H1655 C1661 0.930 . S
C1656 H1642 0.930 . S
C1656 C1654 1.395 . S
C1656 C1659 1.403 . S
C1657 C1654 1.403 . S
C1657 C1658 1.524 . S
C1657 C1661 1.400 . S
C1658 H1643 0.960 . S
C1658 H1644 0.960 . S
C1658 H1645 0.960 . S
C1658 C1657 1.524 . S
C1659 C1656 1.403 . S
C1659 C1660 1.392 . S
C1659 C1663 1.495 . S
C1660 C1659 1.392 . S
C1660 C1661 1.385 . S
C1660 C1662 1.478 . S
C1661 H1655 0.930 . S
C1661 C1657 1.400 . S
C1661 C1660 1.385 . S
C1662 C1660 1.478 . S
C1662 C1664 1.381 . S
C1662 C1668 1.383 . S
C1663 C1659 1.495 . S
C1663 H1669 0.959 . S
C1663 H1670 0.961 . S
C1663 H1671 0.960 . S
C1664 C1662 1.381 . S
C1664 C1665 1.394 . S
C1664 H1672 0.930 . S
C1665 C1664 1.394 . S
C1665 C1666 1.383 . S
C1665 H1673 0.929 . S
C1666 C1665 1.383 . S
C1666 C1667 1.377 . S
C1667 H1651 0.930 . S
C1667 C1666 1.377 . S
C1667 C1668 1.379 . S
C1668 H1652 0.931 . S
C1668 C1662 1.383 . S
C1668 C1667 1.379 . S
H1669 C1663 0.959 . S
H1670 C1663 0.961 . S
H1671 C1663 0.960 . S
H1672 C1664 0.930 . S
H1673 C1665 0.929 . S
H1674 C1682 0.929 . S
H1675 C1684 0.930 . S
H1676 C1686 0.930 . S
H1677 C1689 0.929 . S
H1678 C1692 0.930 . S
H1679 C1694 0.960 . S
H1680 C1694 0.960 . S
H1681 C1694 0.960 . S
C1682 H1674 0.929 . S
C1682 C1683 1.377 . S
C1682 C1684 1.384 . S
C1683 C1682 1.377 . S
C1683 C1689 1.390 . S
C1684 H1675 0.930 . S
C1684 C1682 1.384 . S
C1684 C1685 1.372 . S
C1685 C1684 1.372 . S
C1685 C1686 1.400 . S
C1685 C1690 1.490 . S
C1686 H1676 0.930 . S
C1686 C1685 1.400 . S
C1686 C1689 1.386 . S
H1687 C1703 0.930 . S
H1688 C1704 0.931 . S
C1689 H1677 0.929 . S
C1689 C1683 1.390 . S
C1689 C1686 1.386 . S
C1690 C1685 1.490 . S
C1690 C1692 1.395 . S
C1690 C1693 1.403 . S
H1691 C1697 0.930 . S
C1692 H1678 0.930 . S
C1692 C1690 1.395 . S
C1692 C1695 1.403 . S
C1693 C1690 1.403 . S
C1693 C1694 1.524 . S
C1693 C1697 1.400 . S
C1694 H1679 0.960 . S
C1694 H1680 0.960 . S
C1694 H1681 0.960 . S
C1694 C1693 1.524 . S
C1695 C1692 1.403 . S
C1695 C1696 1.392 . S
C1695 C1699 1.495 . S
C1696 C1695 1.392 . S
C1696 C1697 1.385 . S
C1696 C1698 1.478 . S
C1697 H1691 0.930 . S
C1697 C1693 1.400 . S
C1697 C1696 1.385 . S
C1698 C1696 1.478 . S
C1698 C1700 1.381 . S
C1698 C1704 1.383 . S
C1699 C1695 1.495 . S
C1699 H1705 0.959 . S
C1699 H1706 0.961 . S
C1699 H1707 0.960 . S
C1700 C1698 1.381 . S
C1700 C1701 1.394 . S
C1700 H1708 0.930 . S
C1701 C1700 1.394 . S
C1701 C1702 1.383 . S
C1701 H1709 0.929 . S
C1702 C1701 1.383 . S
C1702 C1703 1.377 . S
C1703 H1687 0.930 . S
C1703 C1702 1.377 . S
C1703 C1704 1.379 . S
C1704 H1688 0.931 . S
C1704 C1698 1.383 . S
C1704 C1703 1.379 . S
H1705 C1699 0.959 . S
H1706 C1699 0.961 . S
H1707 C1699 0.960 . S
H1708 C1700 0.930 . S
H1709 C1701 0.929 . S
H1710 C1718 0.929 . S
H1711 C1720 0.930 . S
H1712 C1722 0.930 . S
H1713 C1725 0.929 . S
H1714 C1728 0.930 . S
H1715 C1730 0.960 . S
H1716 C1730 0.960 . S
H1717 C1730 0.960 . S
C1718 H1710 0.929 . S
C1718 C1719 1.377 . S
C1718 C1720 1.384 . S
C1719 C1718 1.377 . S
C1719 C1725 1.390 . S
C1720 H1711 0.930 . S
C1720 C1718 1.384 . S
C1720 C1721 1.372 . S
C1721 C1720 1.372 . S
C1721 C1722 1.400 . S
C1721 C1726 1.490 . S
C1722 H1712 0.930 . S
C1722 C1721 1.400 . S
C1722 C1725 1.386 . S
H1723 C1739 0.930 . S
H1724 C1740 0.931 . S
C1725 H1713 0.929 . S
C1725 C1719 1.390 . S
C1725 C1722 1.386 . S
C1726 C1721 1.490 . S
C1726 C1728 1.395 . S
C1726 C1729 1.403 . S
H1727 C1733 0.930 . S
C1728 H1714 0.930 . S
C1728 C1726 1.395 . S
C1728 C1731 1.403 . S
C1729 C1726 1.403 . S
C1729 C1730 1.524 . S
C1729 C1733 1.400 . S
C1730 H1715 0.960 . S
C1730 H1716 0.960 . S
C1730 H1717 0.960 . S
C1730 C1729 1.524 . S
C1731 C1728 1.403 . S
C1731 C1732 1.392 . S
C1731 C1735 1.495 . S
C1732 C1731 1.392 . S
C1732 C1733 1.385 . S
C1732 C1734 1.478 . S
C1733 H1727 0.930 . S
C1733 C1729 1.400 . S
C1733 C1732 1.385 . S
C1734 C1732 1.478 . S
C1734 C1736 1.381 . S
C1734 C1740 1.383 . S
C1735 C1731 1.495 . S
C1735 H1741 0.959 . S
C1735 H1742 0.961 . S
C1735 H1743 0.960 . S
C1736 C1734 1.381 . S
C1736 C1737 1.394 . S
C1736 H1744 0.930 . S
C1737 C1736 1.394 . S
C1737 C1738 1.383 . S
C1737 H1745 0.929 . S
C1738 C1737 1.383 . S
C1738 C1739 1.377 . S
C1739 H1723 0.930 . S
C1739 C1738 1.377 . S
C1739 C1740 1.379 . S
C1740 H1724 0.931 . S
C1740 C1734 1.383 . S
C1740 C1739 1.379 . S
H1741 C1735 0.959 . S
H1742 C1735 0.961 . S
H1743 C1735 0.960 . S
H1744 C1736 0.930 . S
H1745 C1737 0.929 . S
H1746 C1754 0.929 . S
H1747 C1756 0.930 . S
H1748 C1758 0.930 . S
H1749 C1761 0.929 . S
H1750 C1764 0.930 . S
H1751 C1766 0.960 . S
H1752 C1766 0.960 . S
H1753 C1766 0.960 . S
C1754 H1746 0.929 . S
C1754 C1755 1.377 . S
C1754 C1756 1.384 . S
C1755 C1754 1.377 . S
C1755 C1761 1.390 . S
C1756 H1747 0.930 . S
C1756 C1754 1.384 . S
C1756 C1757 1.372 . S
C1757 C1756 1.372 . S
C1757 C1758 1.400 . S
C1757 C1762 1.490 . S
C1758 H1748 0.930 . S
C1758 C1757 1.400 . S
C1758 C1761 1.386 . S
H1759 C1775 0.930 . S
H1760 C1776 0.931 . S
C1761 H1749 0.929 . S
C1761 C1755 1.390 . S
C1761 C1758 1.386 . S
C1762 C1757 1.490 . S
C1762 C1764 1.395 . S
C1762 C1765 1.403 . S
H1763 C1769 0.930 . S
C1764 H1750 0.930 . S
C1764 C1762 1.395 . S
C1764 C1767 1.403 . S
C1765 C1762 1.403 . S
C1765 C1766 1.524 . S
C1765 C1769 1.400 . S
C1766 H1751 0.960 . S
C1766 H1752 0.960 . S
C1766 H1753 0.960 . S
C1766 C1765 1.524 . S
C1767 C1764 1.403 . S
C1767 C1768 1.392 . S
C1767 C1771 1.495 . S
C1768 C1767 1.392 . S
C1768 C1769 1.385 . S
C1768 C1770 1.478 . S
C1769 H1763 0.930 . S
C1769 C1765 1.400 . S
C1769 C1768 1.385 . S
C1770 C1768 1.478 . S
C1770 C1772 1.381 . S
C1770 C1776 1.383 . S
C1771 C1767 1.495 . S
C1771 H1777 0.959 . S
C1771 H1778 0.961 . S
C1771 H1779 0.960 . S
C1772 C1770 1.381 . S
C1772 C1773 1.394 . S
C1772 H1780 0.930 . S
C1773 C1772 1.394 . S
C1773 C1774 1.383 . S
C1773 H1781 0.929 . S
C1774 C1773 1.383 . S
C1774 C1775 1.377 . S
C1775 H1759 0.930 . S
C1775 C1774 1.377 . S
C1775 C1776 1.379 . S
C1776 H1760 0.931 . S
C1776 C1770 1.383 . S
C1776 C1775 1.379 . S
H1777 C1771 0.959 . S
H1778 C1771 0.961 . S
H1779 C1771 0.960 . S
H1780 C1772 0.930 . S
H1781 C1773 0.929 . S
H1782 C1790 0.929 . S
H1783 C1792 0.930 . S
H1784 C1794 0.930 . S
H1785 C1797 0.929 . S
H1786 C1800 0.930 . S
H1787 C1802 0.960 . S
H1788 C1802 0.960 . S
H1789 C1802 0.960 . S
C1790 H1782 0.929 . S
C1790 C1791 1.377 . S
C1790 C1792 1.384 . S
C1791 C1790 1.377 . S
C1791 C1797 1.390 . S
C1792 H1783 0.930 . S
C1792 C1790 1.384 . S
C1792 C1793 1.372 . S
C1793 C1792 1.372 . S
C1793 C1794 1.400 . S
C1793 C1798 1.490 . S
C1794 H1784 0.930 . S
C1794 C1793 1.400 . S
C1794 C1797 1.386 . S
H1795 C1811 0.930 . S
H1796 C1812 0.931 . S
C1797 H1785 0.929 . S
C1797 C1791 1.390 . S
C1797 C1794 1.386 . S
C1798 C1793 1.490 . S
C1798 C1800 1.395 . S
C1798 C1801 1.403 . S
H1799 C1805 0.930 . S
C1800 H1786 0.930 . S
C1800 C1798 1.395 . S
C1800 C1803 1.403 . S
C1801 C1798 1.403 . S
C1801 C1802 1.524 . S
C1801 C1805 1.400 . S
C1802 H1787 0.960 . S
C1802 H1788 0.960 . S
C1802 H1789 0.960 . S
C1802 C1801 1.524 . S
C1803 C1800 1.403 . S
C1803 C1804 1.392 . S
C1803 C1807 1.495 . S
C1804 C1803 1.392 . S
C1804 C1805 1.385 . S
C1804 C1806 1.478 . S
C1805 H1799 0.930 . S
C1805 C1801 1.400 . S
C1805 C1804 1.385 . S
C1806 C1804 1.478 . S
C1806 C1808 1.381 . S
C1806 C1812 1.383 . S
C1807 C1803 1.495 . S
C1807 H1813 0.959 . S
C1807 H1814 0.961 . S
C1807 H1815 0.960 . S
C1808 C1806 1.381 . S
C1808 C1809 1.394 . S
C1808 H1816 0.930 . S
C1809 C1808 1.394 . S
C1809 C1810 1.383 . S
C1809 H1817 0.929 . S
C1810 C1809 1.383 . S
C1810 C1811 1.377 . S
C1811 H1795 0.930 . S
C1811 C1810 1.377 . S
C1811 C1812 1.379 . S
C1812 H1796 0.931 . S
C1812 C1806 1.383 . S
C1812 C1811 1.379 . S
H1813 C1807 0.959 . S
H1814 C1807 0.961 . S
H1815 C1807 0.960 . S
H1816 C1808 0.930 . S
H1817 C1809 0.929 . S
H1818 C1826 0.929 . S
H1819 C1828 0.930 . S
H1820 C1830 0.930 . S
H1821 C1833 0.929 . S
H1822 C1836 0.930 . S
H1823 C1838 0.960 . S
H1824 C1838 0.960 . S
H1825 C1838 0.960 . S
C1826 H1818 0.929 . S
C1826 C1827 1.377 . S
C1826 C1828 1.384 . S
C1827 C1826 1.377 . S
C1827 C1833 1.390 . S
C1828 H1819 0.930 . S
C1828 C1826 1.384 . S
C1828 C1829 1.372 . S
C1829 C1828 1.372 . S
C1829 C1830 1.400 . S
C1829 C1834 1.490 . S
C1830 H1820 0.930 . S
C1830 C1829 1.400 . S
C1830 C1833 1.386 . S
H1831 C1847 0.930 . S
H1832 C1848 0.931 . S
C1833 H1821 0.929 . S
C1833 C1827 1.390 . S
C1833 C1830 1.386 . S
C1834 C1829 1.490 . S
C1834 C1836 1.395 . S
C1834 C1837 1.403 . S
H1835 C1841 0.930 . S
C1836 H1822 0.930 . S
C1836 C1834 1.395 . S
C1836 C1839 1.403 . S
C1837 C1834 1.403 . S
C1837 C1838 1.524 . S
C1837 C1841 1.400 . S
C1838 H1823 0.960 . S
C1838 H1824 0.960 . S
C1838 H1825 0.960 . S
C1838 C1837 1.524 . S
C1839 C1836 1.403 . S
C1839 C1840 1.392 . S
C1839 C1843 1.495 . S
C1840 C1839 1.392 . S
C1840 C1841 1.385 . S
C1840 C1842 1.478 . S
C1841 H1835 0.930 . S
C1841 C1837 1.400 . S
C1841 C1840 1.385 . S
C1842 C1840 1.478 . S
C1842 C1844 1.381 . S
C1842 C1848 1.383 . S
C1843 C1839 1.495 . S
C1843 H1849 0.959 . S
C1843 H1850 0.961 . S
C1843 H1851 0.960 . S
C1844 C1842 1.381 . S
C1844 C1845 1.394 . S
C1844 H1852 0.930 . S
C1845 C1844 1.394 . S
C1845 C1846 1.383 . S
C1845 H1853 0.929 . S
C1846 C1845 1.383 . S
C1846 C1847 1.377 . S
C1847 H1831 0.930 . S
C1847 C1846 1.377 . S
C1847 C1848 1.379 . S
C1848 H1832 0.931 . S
C1848 C1842 1.383 . S
C1848 C1847 1.379 . S
H1849 C1843 0.959 . S
H1850 C1843 0.961 . S
H1851 C1843 0.960 . S
H1852 C1844 0.930 . S
H1853 C1845 0.929 . S
H1854 C1862 0.929 . S
H1855 C1864 0.930 . S
H1856 C1866 0.930 . S
H1857 C1869 0.929 . S
H1858 C1872 0.930 . S
H1859 C1874 0.960 . S
H1860 C1874 0.960 . S
H1861 C1874 0.960 . S
C1862 H1854 0.929 . S
C1862 C1863 1.377 . S
C1862 C1864 1.384 . S
C1863 C1862 1.377 . S
C1863 C1869 1.390 . S
C1864 H1855 0.930 . S
C1864 C1862 1.384 . S
C1864 C1865 1.372 . S
C1865 C1864 1.372 . S
C1865 C1866 1.400 . S
C1865 C1870 1.490 . S
C1866 H1856 0.930 . S
C1866 C1865 1.400 . S
C1866 C1869 1.386 . S
H1867 C1883 0.930 . S
H1868 C1884 0.931 . S
C1869 H1857 0.929 . S
C1869 C1863 1.390 . S
C1869 C1866 1.386 . S
C1870 C1865 1.490 . S
C1870 C1872 1.395 . S
C1870 C1873 1.403 . S
H1871 C1877 0.930 . S
C1872 H1858 0.930 . S
C1872 C1870 1.395 . S
C1872 C1875 1.403 . S
C1873 C1870 1.403 . S
C1873 C1874 1.524 . S
C1873 C1877 1.400 . S
C1874 H1859 0.960 . S
C1874 H1860 0.960 . S
C1874 H1861 0.960 . S
C1874 C1873 1.524 . S
C1875 C1872 1.403 . S
C1875 C1876 1.392 . S
C1875 C1879 1.495 . S
C1876 C1875 1.392 . S
C1876 C1877 1.385 . S
C1876 C1878 1.478 . S
C1877 H1871 0.930 . S
C1877 C1873 1.400 . S
C1877 C1876 1.385 . S
C1878 C1876 1.478 . S
C1878 C1880 1.381 . S
C1878 C1884 1.383 . S
C1879 C1875 1.495 . S
C1879 H1885 0.959 . S
C1879 H1886 0.961 . S
C1879 H1887 0.960 . S
C1880 C1878 1.381 . S
C1880 C1881 1.394 . S
C1880 H1888 0.930 . S
C1881 C1880 1.394 . S
C1881 C1882 1.383 . S
C1881 H1889 0.929 . S
C1882 C1881 1.383 . S
C1882 C1883 1.377 . S
C1883 H1867 0.930 . S
C1883 C1882 1.377 . S
C1883 C1884 1.379 . S
C1884 H1868 0.931 . S
C1884 C1878 1.383 . S
C1884 C1883 1.379 . S
H1885 C1879 0.959 . S
H1886 C1879 0.961 . S
H1887 C1879 0.960 . S
H1888 C1880 0.930 . S
H1889 C1881 0.929 . S
H1890 C1898 0.929 . S
H1891 C1900 0.930 . S
H1892 C1902 0.930 . S
H1893 C1905 0.929 . S
H1894 C1908 0.930 . S
H1895 C1910 0.960 . S
H1896 C1910 0.960 . S
H1897 C1910 0.960 . S
C1898 H1890 0.929 . S
C1898 C1899 1.377 . S
C1898 C1900 1.384 . S
C1899 C1898 1.377 . S
C1899 C1905 1.390 . S
C1900 H1891 0.930 . S
C1900 C1898 1.384 . S
C1900 C1901 1.372 . S
C1901 C1900 1.372 . S
C1901 C1902 1.400 . S
C1901 C1906 1.490 . S
C1902 H1892 0.930 . S
C1902 C1901 1.400 . S
C1902 C1905 1.386 . S
H1903 C1919 0.930 . S
H1904 C1920 0.931 . S
C1905 H1893 0.929 . S
C1905 C1899 1.390 . S
C1905 C1902 1.386 . S
C1906 C1901 1.490 . S
C1906 C1908 1.395 . S
C1906 C1909 1.403 . S
H1907 C1913 0.930 . S
C1908 H1894 0.930 . S
C1908 C1906 1.395 . S
C1908 C1911 1.403 . S
C1909 C1906 1.403 . S
C1909 C1910 1.524 . S
C1909 C1913 1.400 . S
C1910 H1895 0.960 . S
C1910 H1896 0.960 . S
C1910 H1897 0.960 . S
C1910 C1909 1.524 . S
C1911 C1908 1.403 . S
C1911 C1912 1.392 . S
C1911 C1915 1.495 . S
C1912 C1911 1.392 . S
C1912 C1913 1.385 . S
C1912 C1914 1.478 . S
C1913 H1907 0.930 . S
C1913 C1909 1.400 . S
C1913 C1912 1.385 . S
C1914 C1912 1.478 . S
C1914 C1916 1.381 . S
C1914 C1920 1.383 . S
C1915 C1911 1.495 . S
C1915 H1921 0.959 . S
C1915 H1922 0.961 . S
C1915 H1923 0.960 . S
C1916 C1914 1.381 . S
C1916 C1917 1.394 . S
C1916 H1924 0.930 . S
C1917 C1916 1.394 . S
C1917 C1918 1.383 . S
C1917 H1925 0.929 . S
C1918 C1917 1.383 . S
C1918 C1919 1.377 . S
C1919 H1903 0.930 . S
C1919 C1918 1.377 . S
C1919 C1920 1.379 . S
C1920 H1904 0.931 . S
C1920 C1914 1.383 . S
C1920 C1919 1.379 . S
H1921 C1915 0.959 . S
H1922 C1915 0.961 . S
H1923 C1915 0.960 . S
H1924 C1916 0.930 . S
H1925 C1917 0.929 . S
H1926 C1934 0.929 . S
H1927 C1936 0.930 . S
H1928 C1938 0.930 . S
H1929 C1941 0.929 . S
H1930 C1944 0.930 . S
H1931 C1946 0.960 . S
H1932 C1946 0.960 . S
H1933 C1946 0.960 . S
C1934 H1926 0.929 . S
C1934 C1935 1.377 . S
C1934 C1936 1.384 . S
C1935 C1934 1.377 . S
C1935 C1941 1.390 . S
C1936 H1927 0.930 . S
C1936 C1934 1.384 . S
C1936 C1937 1.372 . S
C1937 C1936 1.372 . S
C1937 C1938 1.400 . S
C1937 C1942 1.490 . S
C1938 H1928 0.930 . S
C1938 C1937 1.400 . S
C1938 C1941 1.386 . S
H1939 C1955 0.930 . S
H1940 C1956 0.931 . S
C1941 H1929 0.929 . S
C1941 C1935 1.390 . S
C1941 C1938 1.386 . S
C1942 C1937 1.490 . S
C1942 C1944 1.395 . S
C1942 C1945 1.403 . S
H1943 C1949 0.930 . S
C1944 H1930 0.930 . S
C1944 C1942 1.395 . S
C1944 C1947 1.403 . S
C1945 C1942 1.403 . S
C1945 C1946 1.524 . S
C1945 C1949 1.400 . S
C1946 H1931 0.960 . S
C1946 H1932 0.960 . S
C1946 H1933 0.960 . S
C1946 C1945 1.524 . S
C1947 C1944 1.403 . S
C1947 C1948 1.392 . S
C1947 C1951 1.495 . S
C1948 C1947 1.392 . S
C1948 C1949 1.385 . S
C1948 C1950 1.478 . S
C1949 H1943 0.930 . S
C1949 C1945 1.400 . S
C1949 C1948 1.385 . S
C1950 C1948 1.478 . S
C1950 C1952 1.381 . S
C1950 C1956 1.383 . S
C1951 C1947 1.495 . S
C1951 H1957 0.959 . S
C1951 H1958 0.961 . S
C1951 H1959 0.960 . S
C1952 C1950 1.381 . S
C1952 C1953 1.394 . S
C1952 H1960 0.930 . S
C1953 C1952 1.394 . S
C1953 C1954 1.383 . S
C1953 H1961 0.929 . S
C1954 C1953 1.383 . S
C1954 C1955 1.377 . S
C1955 H1939 0.930 . S
C1955 C1954 1.377 . S
C1955 C1956 1.379 . S
C1956 H1940 0.931 . S
C1956 C1950 1.383 . S
C1956 C1955 1.379 . S
H1957 C1951 0.959 . S
H1958 C1951 0.961 . S
H1959 C1951 0.960 . S
H1960 C1952 0.930 . S
H1961 C1953 0.929 . S
H1962 C1970 0.929 . S
H1963 C1972 0.930 1_554 S
H1964 C1974 0.930 . S
H1965 C1977 0.929 . S
H1966 C1980 0.930 . S
H1967 C1982 0.960 . S
H1968 C1982 0.960 . S
H1969 C1982 0.960 . S
C1970 H1962 0.929 . S
C1970 C1971 1.377 1_554 S
C1970 C1972 1.384 1_554 S
C1971 C1970 1.377 1_556 S
C1971 C1977 1.390 . S
C1972 H1963 0.930 1_556 S
C1972 C1970 1.384 1_556 S
C1972 C1973 1.372 . S
C1973 C1972 1.372 . S
C1973 C1974 1.400 . S
C1973 C1978 1.490 . S
C1974 H1964 0.930 . S
C1974 C1973 1.400 . S
C1974 C1977 1.386 . S
H1975 C1991 0.930 . S
H1976 C1992 0.931 . S
C1977 H1965 0.929 . S
C1977 C1971 1.390 . S
C1977 C1974 1.386 . S
C1978 C1973 1.490 . S
C1978 C1980 1.395 . S
C1978 C1981 1.403 . S
H1979 C1985 0.930 . S
C1980 H1966 0.930 . S
C1980 C1978 1.395 . S
C1980 C1983 1.403 . S
C1981 C1978 1.403 . S
C1981 C1982 1.524 . S
C1981 C1985 1.400 . S
C1982 H1967 0.960 . S
C1982 H1968 0.960 . S
C1982 H1969 0.960 . S
C1982 C1981 1.524 . S
C1983 C1980 1.403 . S
C1983 C1984 1.392 . S
C1983 C1987 1.495 . S
C1984 C1983 1.392 . S
C1984 C1985 1.385 . S
C1984 C1986 1.478 . S
C1985 H1979 0.930 . S
C1985 C1981 1.400 . S
C1985 C1984 1.385 . S
C1986 C1984 1.478 . S
C1986 C1988 1.381 . S
C1986 C1992 1.383 . S
C1987 C1983 1.495 . S
C1987 H1993 0.959 . S
C1987 H1994 0.961 . S
C1987 H1995 0.960 . S
C1988 C1986 1.381 . S
C1988 C1989 1.394 . S
C1988 H1996 0.930 . S
C1989 C1988 1.394 . S
C1989 C1990 1.383 . S
C1989 H1997 0.929 . S
C1990 C1989 1.383 . S
C1990 C1991 1.377 . S
C1991 H1975 0.930 . S
C1991 C1990 1.377 . S
C1991 C1992 1.379 . S
C1992 H1976 0.931 . S
C1992 C1986 1.383 . S
C1992 C1991 1.379 . S
H1993 C1987 0.959 . S
H1994 C1987 0.961 . S
H1995 C1987 0.960 . S
H1996 C1988 0.930 . S
H1997 C1989 0.929 . S
H1998 C2006 0.929 . S
H1999 C2008 0.930 . S
H2000 C2010 0.930 1_554 S
H2001 C2013 0.929 . S
H2002 C2016 0.930 . S
H2003 C2018 0.960 . S
H2004 C2018 0.960 . S
H2005 C2018 0.960 1_554 S
C2006 H1998 0.929 . S
C2006 C2007 1.377 . S
C2006 C2008 1.384 . S
C2007 C2006 1.377 . S
C2007 C2013 1.390 1_556 S
C2008 H1999 0.930 . S
C2008 C2006 1.384 . S
C2008 C2009 1.372 . S
C2009 C2008 1.372 . S
C2009 C2010 1.400 . S
C2009 C2014 1.490 . S
C2010 H2000 0.930 1_556 S
C2010 C2009 1.400 . S
C2010 C2013 1.386 1_556 S
H2011 C2027 0.930 . S
H2012 C2028 0.931 . S
C2013 H2001 0.929 . S
C2013 C2007 1.390 1_554 S
C2013 C2010 1.386 1_554 S
C2014 C2009 1.490 . S
C2014 C2016 1.395 . S
C2014 C2017 1.403 . S
H2015 C2021 0.930 . S
C2016 H2002 0.930 . S
C2016 C2014 1.395 . S
C2016 C2019 1.403 . S
C2017 C2014 1.403 . S
C2017 C2018 1.524 . S
C2017 C2021 1.400 . S
C2018 H2003 0.960 . S
C2018 H2004 0.960 . S
C2018 H2005 0.960 1_556 S
C2018 C2017 1.524 . S
C2019 C2016 1.403 . S
C2019 C2020 1.392 . S
C2019 C2023 1.495 . S
C2020 C2019 1.392 . S
C2020 C2021 1.385 . S
C2020 C2022 1.478 . S
C2021 H2015 0.930 . S
C2021 C2017 1.400 . S
C2021 C2020 1.385 . S
C2022 C2020 1.478 . S
C2022 C2024 1.381 . S
C2022 C2028 1.383 . S
C2023 C2019 1.495 . S
C2023 H2029 0.959 . S
C2023 H2030 0.961 . S
C2023 H2031 0.960 . S
C2024 C2022 1.381 . S
C2024 C2025 1.394 . S
C2024 H2032 0.930 . S
C2025 C2024 1.394 . S
C2025 C2026 1.383 . S
C2025 H2033 0.929 . S
C2026 C2025 1.383 . S
C2026 C2027 1.377 . S
C2027 H2011 0.930 . S
C2027 C2026 1.377 . S
C2027 C2028 1.379 . S
C2028 H2012 0.931 . S
C2028 C2022 1.383 . S
C2028 C2027 1.379 . S
H2029 C2023 0.959 . S
H2030 C2023 0.961 . S
H2031 C2023 0.960 . S
H2032 C2024 0.930 . S
H2033 C2025 0.929 . S
H2034 C2042 0.929 . S
H2035 C2044 0.930 . S
H2036 C2046 0.930 1_554 S
H2037 C2049 0.929 . S
H2038 C2052 0.930 . S
H2039 C2054 0.960 . S
H2040 C2054 0.960 . S
H2041 C2054 0.960 1_554 S
C2042 H2034 0.929 . S
C2042 C2043 1.377 . S
C2042 C2044 1.384 . S
C2043 C2042 1.377 . S
C2043 C2049 1.390 1_556 S
C2044 H2035 0.930 . S
C2044 C2042 1.384 . S
C2044 C2045 1.372 . S
C2045 C2044 1.372 . S
C2045 C2046 1.400 . S
C2045 C2050 1.490 . S
C2046 H2036 0.930 1_556 S
C2046 C2045 1.400 . S
C2046 C2049 1.386 1_556 S
H2047 C2063 0.930 . S
H2048 C2064 0.931 . S
C2049 H2037 0.929 . S
C2049 C2043 1.390 1_554 S
C2049 C2046 1.386 1_554 S
C2050 C2045 1.490 . S
C2050 C2052 1.395 . S
C2050 C2053 1.403 . S
H2051 C2057 0.930 . S
C2052 H2038 0.930 . S
C2052 C2050 1.395 . S
C2052 C2055 1.403 . S
C2053 C2050 1.403 . S
C2053 C2054 1.524 . S
C2053 C2057 1.400 . S
C2054 H2039 0.960 . S
C2054 H2040 0.960 . S
C2054 H2041 0.960 1_556 S
C2054 C2053 1.524 . S
C2055 C2052 1.403 . S
C2055 C2056 1.392 . S
C2055 C2059 1.495 . S
C2056 C2055 1.392 . S
C2056 C2057 1.385 . S
C2056 C2058 1.478 . S
C2057 H2051 0.930 . S
C2057 C2053 1.400 . S
C2057 C2056 1.385 . S
C2058 C2056 1.478 . S
C2058 C2060 1.381 . S
C2058 C2064 1.383 . S
C2059 C2055 1.495 . S
C2059 H2065 0.959 . S
C2059 H2066 0.961 . S
C2059 H2067 0.960 . S
C2060 C2058 1.381 . S
C2060 C2061 1.394 . S
C2060 H2068 0.930 . S
C2061 C2060 1.394 . S
C2061 C2062 1.383 . S
C2061 H2069 0.929 . S
C2062 C2061 1.383 . S
C2062 C2063 1.377 . S
C2063 H2047 0.930 . S
C2063 C2062 1.377 . S
C2063 C2064 1.379 . S
C2064 H2048 0.931 . S
C2064 C2058 1.383 . S
C2064 C2063 1.379 . S
H2065 C2059 0.959 . S
H2066 C2059 0.961 . S
H2067 C2059 0.960 . S
H2068 C2060 0.930 . S
H2069 C2061 0.929 . S
H2070 C2078 0.929 . S
H2071 C2080 0.930 . S
H2072 C2082 0.930 . S
H2073 C2085 0.929 1_554 S
H2074 C2088 0.930 . S
H2075 C2090 0.960 1_554 S
H2076 C2090 0.963 . S
H2077 C2090 0.960 1_554 S
C2078 H2070 0.929 . S
C2078 C2079 1.377 . S
C2078 C2080 1.384 . S
C2079 C2078 1.377 . S
C2079 C2085 1.390 . S
C2080 H2071 0.930 . S
C2080 C2078 1.384 . S
C2080 C2081 1.372 . S
C2081 C2080 1.372 . S
C2081 C2082 1.400 . S
C2081 C2086 1.490 . S
C2082 H2072 0.930 . S
C2082 C2081 1.400 . S
C2082 C2085 1.386 . S
H2083 C2099 0.930 . S
H2084 C2100 0.931 . S
C2085 H2073 0.929 1_556 S
C2085 C2079 1.390 . S
C2085 C2082 1.386 . S
C2086 C2081 1.490 . S
C2086 C2088 1.395 . S
C2086 C2089 1.403 . S
H2087 C2093 0.930 . S
C2088 H2074 0.930 . S
C2088 C2086 1.395 . S
C2088 C2091 1.403 . S
C2089 C2086 1.403 . S
C2089 C2090 1.524 . S
C2089 C2093 1.400 . S
C2090 H2075 0.960 1_556 S
C2090 H2076 0.963 . S
C2090 H2077 0.960 1_556 S
C2090 C2089 1.524 . S
C2091 C2088 1.403 . S
C2091 C2092 1.392 . S
C2091 C2095 1.495 . S
C2092 C2091 1.392 . S
C2092 C2093 1.385 . S
C2092 C2094 1.478 . S
C2093 H2087 0.930 . S
C2093 C2089 1.400 . S
C2093 C2092 1.385 . S
C2094 C2092 1.478 . S
C2094 C2096 1.381 . S
C2094 C2100 1.383 . S
C2095 C2091 1.495 . S
C2095 H2101 0.959 . S
C2095 H2102 0.961 . S
C2095 H2103 0.960 . S
C2096 C2094 1.381 . S
C2096 C2097 1.394 . S
C2096 H2104 0.930 . S
C2097 C2096 1.394 . S
C2097 C2098 1.383 . S
C2097 H2105 0.929 . S
C2098 C2097 1.383 . S
C2098 C2099 1.377 . S
C2099 H2083 0.930 . S
C2099 C2098 1.377 . S
C2099 C2100 1.379 . S
C2100 H2084 0.931 . S
C2100 C2094 1.383 . S
C2100 C2099 1.379 . S
H2101 C2095 0.959 . S
H2102 C2095 0.961 . S
H2103 C2095 0.960 . S
H2104 C2096 0.930 . S
H2105 C2097 0.929 . S
H2106 C2114 0.929 . S
H2107 C2116 0.930 . S
H2108 C2118 0.930 . S
H2109 C2121 0.929 1_554 S
H2110 C2124 0.930 . S
H2111 C2126 0.960 . S
H2112 C2126 0.960 . S
H2113 C2126 0.960 . S
C2114 H2106 0.929 . S
C2114 C2115 1.377 . S
C2114 C2116 1.384 . S
C2115 C2114 1.377 . S
C2115 C2121 1.390 . S
C2116 H2107 0.930 . S
C2116 C2114 1.384 . S
C2116 C2117 1.372 . S
C2117 C2116 1.372 . S
C2117 C2118 1.400 . S
C2117 C2122 1.490 . S
C2118 H2108 0.930 . S
C2118 C2117 1.400 . S
C2118 C2121 1.386 . S
H2119 C2135 0.930 . S
H2120 C2136 0.931 . S
C2121 H2109 0.929 1_556 S
C2121 C2115 1.390 . S
C2121 C2118 1.386 . S
C2122 C2117 1.490 . S
C2122 C2124 1.395 . S
C2122 C2125 1.403 . S
H2123 C2129 0.930 . S
C2124 H2110 0.930 . S
C2124 C2122 1.395 . S
C2124 C2127 1.403 . S
C2125 C2122 1.403 . S
C2125 C2126 1.524 . S
C2125 C2129 1.400 . S
C2126 H2111 0.960 . S
C2126 H2112 0.960 . S
C2126 H2113 0.960 . S
C2126 C2125 1.524 . S
C2127 C2124 1.403 . S
C2127 C2128 1.392 . S
C2127 C2131 1.495 . S
C2128 C2127 1.392 . S
C2128 C2129 1.385 . S
C2128 C2130 1.478 . S
C2129 H2123 0.930 . S
C2129 C2125 1.400 . S
C2129 C2128 1.385 . S
C2130 C2128 1.478 . S
C2130 C2132 1.381 . S
C2130 C2136 1.383 . S
C2131 C2127 1.495 . S
C2131 H2137 0.959 . S
C2131 H2138 0.961 . S
C2131 H2139 0.960 . S
C2132 C2130 1.381 . S
C2132 C2133 1.394 . S
C2132 H2140 0.930 . S
C2133 C2132 1.394 . S
C2133 C2134 1.383 . S
C2133 H2141 0.929 . S
C2134 C2133 1.383 . S
C2134 C2135 1.377 . S
C2135 H2119 0.930 . S
C2135 C2134 1.377 . S
C2135 C2136 1.379 . S
C2136 H2120 0.931 . S
C2136 C2130 1.383 . S
C2136 C2135 1.379 . S
H2137 C2131 0.959 . S
H2138 C2131 0.961 . S
H2139 C2131 0.960 . S
H2140 C2132 0.930 . S
H2141 C2133 0.929 . S
H2142 C2150 0.929 . S
H2143 C2152 0.930 1_554 S
H2144 C2154 0.930 . S
H2145 C2157 0.929 . S
H2146 C2160 0.930 . S
H2147 C2162 0.960 . S
H2148 C2162 0.960 . S
H2149 C2162 0.960 . S
C2150 H2142 0.929 . S
C2150 C2151 1.377 1_554 S
C2150 C2152 1.384 1_554 S
C2151 C2150 1.377 1_556 S
C2151 C2157 1.390 . S
C2152 H2143 0.930 1_556 S
C2152 C2150 1.384 1_556 S
C2152 C2153 1.372 . S
C2153 C2152 1.372 . S
C2153 C2154 1.400 . S
C2153 C2158 1.490 . S
C2154 H2144 0.930 . S
C2154 C2153 1.400 . S
C2154 C2157 1.386 . S
H2155 C2171 0.930 . S
H2156 C2172 0.931 . S
C2157 H2145 0.929 . S
C2157 C2151 1.390 . S
C2157 C2154 1.386 . S
C2158 C2153 1.490 . S
C2158 C2160 1.395 . S
C2158 C2161 1.403 . S
H2159 C2165 0.930 . S
C2160 H2146 0.930 . S
C2160 C2158 1.395 . S
C2160 C2163 1.403 . S
C2161 C2158 1.403 . S
C2161 C2162 1.524 . S
C2161 C2165 1.400 . S
C2162 H2147 0.960 . S
C2162 H2148 0.960 . S
C2162 H2149 0.960 . S
C2162 C2161 1.524 . S
C2163 C2160 1.403 . S
C2163 C2164 1.392 . S
C2163 C2167 1.495 . S
C2164 C2163 1.392 . S
C2164 C2165 1.385 . S
C2164 C2166 1.478 . S
C2165 H2159 0.930 . S
C2165 C2161 1.400 . S
C2165 C2164 1.385 . S
C2166 C2164 1.478 . S
C2166 C2168 1.381 . S
C2166 C2172 1.383 . S
C2167 C2163 1.495 . S
C2167 H2173 0.959 . S
C2167 H2174 0.961 . S
C2167 H2175 0.960 . S
C2168 C2166 1.381 . S
C2168 C2169 1.394 . S
C2168 H2176 0.930 . S
C2169 C2168 1.394 . S
C2169 C2170 1.383 . S
C2169 H2177 0.929 . S
C2170 C2169 1.383 . S
C2170 C2171 1.377 . S
C2171 H2155 0.930 . S
C2171 C2170 1.377 . S
C2171 C2172 1.379 . S
C2172 H2156 0.931 . S
C2172 C2166 1.383 . S
C2172 C2171 1.379 . S
H2173 C2167 0.959 . S
H2174 C2167 0.961 . S
H2175 C2167 0.960 . S
H2176 C2168 0.930 . S
H2177 C2169 0.929 . S
H2178 C2186 0.929 . S
H2179 C2188 0.930 . S
H2180 C2190 0.930 . S
H2181 C2193 0.929 . S
H2182 C2196 0.930 . S
H2183 C2198 0.960 . S
H2184 C2198 0.960 . S
H2185 C2198 0.960 . S
C2186 H2178 0.929 . S
C2186 C2187 1.377 . S
C2186 C2188 1.384 . S
C2187 C2186 1.377 . S
C2187 C2193 1.390 . S
C2188 H2179 0.930 . S
C2188 C2186 1.384 . S
C2188 C2189 1.372 . S
C2189 C2188 1.372 . S
C2189 C2190 1.400 . S
C2189 C2194 1.490 . S
C2190 H2180 0.930 . S
C2190 C2189 1.400 . S
C2190 C2193 1.386 . S
H2191 C2207 0.930 . S
H2192 C2208 0.931 . S
C2193 H2181 0.929 . S
C2193 C2187 1.390 . S
C2193 C2190 1.386 . S
C2194 C2189 1.490 . S
C2194 C2196 1.395 . S
C2194 C2197 1.403 . S
H2195 C2201 0.930 . S
C2196 H2182 0.930 . S
C2196 C2194 1.395 . S
C2196 C2199 1.403 . S
C2197 C2194 1.403 . S
C2197 C2198 1.524 . S
C2197 C2201 1.400 . S
C2198 H2183 0.960 . S
C2198 H2184 0.960 . S
C2198 H2185 0.960 . S
C2198 C2197 1.524 . S
C2199 C2196 1.403 . S
C2199 C2200 1.392 . S
C2199 C2203 1.495 . S
C2200 C2199 1.392 . S
C2200 C2201 1.385 . S
C2200 C2202 1.478 . S
C2201 H2195 0.930 . S
C2201 C2197 1.400 . S
C2201 C2200 1.385 . S
C2202 C2200 1.478 . S
C2202 C2204 1.381 . S
C2202 C2208 1.383 . S
C2203 C2199 1.495 . S
C2203 H2209 0.959 . S
C2203 H2210 0.961 . S
C2203 H2211 0.960 . S
C2204 C2202 1.381 . S
C2204 C2205 1.394 . S
C2204 H2212 0.930 . S
C2205 C2204 1.394 . S
C2205 C2206 1.383 . S
C2205 H2213 0.929 . S
C2206 C2205 1.383 . S
C2206 C2207 1.377 . S
C2207 H2191 0.930 . S
C2207 C2206 1.377 . S
C2207 C2208 1.379 . S
C2208 H2192 0.931 . S
C2208 C2202 1.383 . S
C2208 C2207 1.379 . S
H2209 C2203 0.959 . S
H2210 C2203 0.961 . S
H2211 C2203 0.960 . S
H2212 C2204 0.930 . S
H2213 C2205 0.929 . S
H2214 C2222 0.929 . S
H2215 C2224 0.930 . S
H2216 C2226 0.930 . S
H2217 C2229 0.929 . S
H2218 C2232 0.930 . S
H2219 C2234 0.960 . S
H2220 C2234 0.960 . S
H2221 C2234 0.960 . S
C2222 H2214 0.929 . S
C2222 C2223 1.377 . S
C2222 C2224 1.384 . S
C2223 C2222 1.377 . S
C2223 C2229 1.390 . S
C2224 H2215 0.930 . S
C2224 C2222 1.384 . S
C2224 C2225 1.372 . S
C2225 C2224 1.372 . S
C2225 C2226 1.400 . S
C2225 C2230 1.490 . S
C2226 H2216 0.930 . S
C2226 C2225 1.400 . S
C2226 C2229 1.386 . S
H2227 C2243 0.930 . S
H2228 C2244 0.931 . S
C2229 H2217 0.929 . S
C2229 C2223 1.390 . S
C2229 C2226 1.386 . S
C2230 C2225 1.490 . S
C2230 C2232 1.395 . S
C2230 C2233 1.403 . S
H2231 C2237 0.930 . S
C2232 H2218 0.930 . S
C2232 C2230 1.395 . S
C2232 C2235 1.403 . S
C2233 C2230 1.403 . S
C2233 C2234 1.524 . S
C2233 C2237 1.400 . S
C2234 H2219 0.960 . S
C2234 H2220 0.960 . S
C2234 H2221 0.960 . S
C2234 C2233 1.524 . S
C2235 C2232 1.403 . S
C2235 C2236 1.392 . S
C2235 C2239 1.495 . S
C2236 C2235 1.392 . S
C2236 C2237 1.385 . S
C2236 C2238 1.478 . S
C2237 H2231 0.930 . S
C2237 C2233 1.400 . S
C2237 C2236 1.385 . S
C2238 C2236 1.478 . S
C2238 C2240 1.381 . S
C2238 C2244 1.383 . S
C2239 C2235 1.495 . S
C2239 H2245 0.959 . S
C2239 H2246 0.961 . S
C2239 H2247 0.960 . S
C2240 C2238 1.381 . S
C2240 C2241 1.394 . S
C2240 H2248 0.930 . S
C2241 C2240 1.394 . S
C2241 C2242 1.383 . S
C2241 H2249 0.929 . S
C2242 C2241 1.383 . S
C2242 C2243 1.377 . S
C2243 H2227 0.930 . S
C2243 C2242 1.377 . S
C2243 C2244 1.379 . S
C2244 H2228 0.931 . S
C2244 C2238 1.383 . S
C2244 C2243 1.379 . S
H2245 C2239 0.959 . S
H2246 C2239 0.961 . S
H2247 C2239 0.960 . S
H2248 C2240 0.930 . S
H2249 C2241 0.929 . S
H2250 C2258 0.929 . S
H2251 C2260 0.930 . S
H2252 C2262 0.930 . S
H2253 C2265 0.929 . S
H2254 C2268 0.930 . S
H2255 C2270 0.960 . S
H2256 C2270 0.960 . S
H2257 C2270 0.960 . S
C2258 H2250 0.929 . S
C2258 C2259 1.377 . S
C2258 C2260 1.384 . S
C2259 C2258 1.377 . S
C2259 C2265 1.390 . S
C2260 H2251 0.930 . S
C2260 C2258 1.384 . S
C2260 C2261 1.372 . S
C2261 C2260 1.372 . S
C2261 C2262 1.400 . S
C2261 C2266 1.490 . S
C2262 H2252 0.930 . S
C2262 C2261 1.400 . S
C2262 C2265 1.386 . S
H2263 C2279 0.930 . S
H2264 C2280 0.931 . S
C2265 H2253 0.929 . S
C2265 C2259 1.390 . S
C2265 C2262 1.386 . S
C2266 C2261 1.490 . S
C2266 C2268 1.395 . S
C2266 C2269 1.403 . S
H2267 C2273 0.930 . S
C2268 H2254 0.930 . S
C2268 C2266 1.395 . S
C2268 C2271 1.403 . S
C2269 C2266 1.403 . S
C2269 C2270 1.524 . S
C2269 C2273 1.400 . S
C2270 H2255 0.960 . S
C2270 H2256 0.960 . S
C2270 H2257 0.960 . S
C2270 C2269 1.524 . S
C2271 C2268 1.403 . S
C2271 C2272 1.392 . S
C2271 C2275 1.495 . S
C2272 C2271 1.392 . S
C2272 C2273 1.385 . S
C2272 C2274 1.478 . S
C2273 H2267 0.930 . S
C2273 C2269 1.400 . S
C2273 C2272 1.385 . S
C2274 C2272 1.478 . S
C2274 C2276 1.381 . S
C2274 C2280 1.383 . S
C2275 C2271 1.495 . S
C2275 H2281 0.959 . S
C2275 H2282 0.961 . S
C2275 H2283 0.960 . S
C2276 C2274 1.381 . S
C2276 C2277 1.394 . S
C2276 H2284 0.930 . S
C2277 C2276 1.394 . S
C2277 C2278 1.383 . S
C2277 H2285 0.929 . S
C2278 C2277 1.383 . S
C2278 C2279 1.377 . S
C2279 H2263 0.930 . S
C2279 C2278 1.377 . S
C2279 C2280 1.379 . S
C2280 H2264 0.931 . S
C2280 C2274 1.383 . S
C2280 C2279 1.379 . S
H2281 C2275 0.959 . S
H2282 C2275 0.961 . S
H2283 C2275 0.960 . S
H2284 C2276 0.930 . S
H2285 C2277 0.929 . S
H2286 C2294 0.929 . S
H2287 C2296 0.930 . S
H2288 C2298 0.930 . S
H2289 C2301 0.929 . S
H2290 C2304 0.930 . S
H2291 C2306 0.960 . S
H2292 C2306 0.960 . S
H2293 C2306 0.960 . S
C2294 H2286 0.929 . S
C2294 C2295 1.377 . S
C2294 C2296 1.384 . S
C2295 C2294 1.377 . S
C2295 C2301 1.390 . S
C2296 H2287 0.930 . S
C2296 C2294 1.384 . S
C2296 C2297 1.372 . S
C2297 C2296 1.372 . S
C2297 C2298 1.400 . S
C2297 C2302 1.490 . S
C2298 H2288 0.930 . S
C2298 C2297 1.400 . S
C2298 C2301 1.386 . S
H2299 C2315 0.930 . S
H2300 C2316 0.931 . S
C2301 H2289 0.929 . S
C2301 C2295 1.390 . S
C2301 C2298 1.386 . S
C2302 C2297 1.490 . S
C2302 C2304 1.395 . S
C2302 C2305 1.403 . S
H2303 C2309 0.930 . S
C2304 H2290 0.930 . S
C2304 C2302 1.395 . S
C2304 C2307 1.403 . S
C2305 C2302 1.403 . S
C2305 C2306 1.524 . S
C2305 C2309 1.400 . S
C2306 H2291 0.960 . S
C2306 H2292 0.960 . S
C2306 H2293 0.960 . S
C2306 C2305 1.524 . S
C2307 C2304 1.403 . S
C2307 C2308 1.392 . S
C2307 C2311 1.495 . S
C2308 C2307 1.392 . S
C2308 C2309 1.385 . S
C2308 C2310 1.478 . S
C2309 H2303 0.930 . S
C2309 C2305 1.400 . S
C2309 C2308 1.385 . S
C2310 C2308 1.478 . S
C2310 C2312 1.381 . S
C2310 C2316 1.383 . S
C2311 C2307 1.495 . S
C2311 H2317 0.959 . S
C2311 H2318 0.961 . S
C2311 H2319 0.960 . S
C2312 C2310 1.381 . S
C2312 C2313 1.394 . S
C2312 H2320 0.930 . S
C2313 C2312 1.394 . S
C2313 C2314 1.383 . S
C2313 H2321 0.929 . S
C2314 C2313 1.383 . S
C2314 C2315 1.377 . S
C2315 H2299 0.930 . S
C2315 C2314 1.377 . S
C2315 C2316 1.379 . S
C2316 H2300 0.931 . S
C2316 C2310 1.383 . S
C2316 C2315 1.379 . S
H2317 C2311 0.959 . S
H2318 C2311 0.961 . S
H2319 C2311 0.960 . S
H2320 C2312 0.930 . S
H2321 C2313 0.929 . S
H2322 C2330 0.929 . S
H2323 C2332 0.930 . S
H2324 C2334 0.930 . S
H2325 C2337 0.929 . S
H2326 C2340 0.930 . S
H2327 C2342 0.960 . S
H2328 C2342 0.960 . S
H2329 C2342 0.960 . S
C2330 H2322 0.929 . S
C2330 C2331 1.377 . S
C2330 C2332 1.384 . S
C2331 C2330 1.377 . S
C2331 C2337 1.390 . S
C2332 H2323 0.930 . S
C2332 C2330 1.384 . S
C2332 C2333 1.372 . S
C2333 C2332 1.372 . S
C2333 C2334 1.400 . S
C2333 C2338 1.490 . S
C2334 H2324 0.930 . S
C2334 C2333 1.400 . S
C2334 C2337 1.386 . S
H2335 C2351 0.930 . S
H2336 C2352 0.931 . S
C2337 H2325 0.929 . S
C2337 C2331 1.390 . S
C2337 C2334 1.386 . S
C2338 C2333 1.490 . S
C2338 C2340 1.395 . S
C2338 C2341 1.403 . S
H2339 C2345 0.930 . S
C2340 H2326 0.930 . S
C2340 C2338 1.395 . S
C2340 C2343 1.403 . S
C2341 C2338 1.403 . S
C2341 C2342 1.524 . S
C2341 C2345 1.400 . S
C2342 H2327 0.960 . S
C2342 H2328 0.960 . S
C2342 H2329 0.960 . S
C2342 C2341 1.524 . S
C2343 C2340 1.403 . S
C2343 C2344 1.392 . S
C2343 C2347 1.495 . S
C2344 C2343 1.392 . S
C2344 C2345 1.385 . S
C2344 C2346 1.478 . S
C2345 H2339 0.930 . S
C2345 C2341 1.400 . S
C2345 C2344 1.385 . S
C2346 C2344 1.478 . S
C2346 C2348 1.381 . S
C2346 C2352 1.383 . S
C2347 C2343 1.495 . S
C2347 H2353 0.959 . S
C2347 H2354 0.961 . S
C2347 H2355 0.960 . S
C2348 C2346 1.381 . S
C2348 C2349 1.394 . S
C2348 H2356 0.930 . S
C2349 C2348 1.394 . S
C2349 C2350 1.383 . S
C2349 H2357 0.929 . S
C2350 C2349 1.383 . S
C2350 C2351 1.377 . S
C2351 H2335 0.930 . S
C2351 C2350 1.377 . S
C2351 C2352 1.379 . S
C2352 H2336 0.931 . S
C2352 C2346 1.383 . S
C2352 C2351 1.379 . S
H2353 C2347 0.959 . S
H2354 C2347 0.961 . S
H2355 C2347 0.960 . S
H2356 C2348 0.930 . S
H2357 C2349 0.929 . S
H2358 C2366 0.929 . S
H2359 C2368 0.930 . S
H2360 C2370 0.930 . S
H2361 C2373 0.929 . S
H2362 C2376 0.930 . S
H2363 C2378 0.960 . S
H2364 C2378 0.960 . S
H2365 C2378 0.960 . S
C2366 H2358 0.929 . S
C2366 C2367 1.377 . S
C2366 C2368 1.384 . S
C2367 C2366 1.377 . S
C2367 C2373 1.390 . S
C2368 H2359 0.930 . S
C2368 C2366 1.384 . S
C2368 C2369 1.372 . S
C2369 C2368 1.372 . S
C2369 C2370 1.400 . S
C2369 C2374 1.490 . S
C2370 H2360 0.930 . S
C2370 C2369 1.400 . S
C2370 C2373 1.386 . S
H2371 C2387 0.930 . S
H2372 C2388 0.931 . S
C2373 H2361 0.929 . S
C2373 C2367 1.390 . S
C2373 C2370 1.386 . S
C2374 C2369 1.490 . S
C2374 C2376 1.395 . S
C2374 C2377 1.403 . S
H2375 C2381 0.930 . S
C2376 H2362 0.930 . S
C2376 C2374 1.395 . S
C2376 C2379 1.403 . S
C2377 C2374 1.403 . S
C2377 C2378 1.524 . S
C2377 C2381 1.400 . S
C2378 H2363 0.960 . S
C2378 H2364 0.960 . S
C2378 H2365 0.960 . S
C2378 C2377 1.524 . S
C2379 C2376 1.403 . S
C2379 C2380 1.392 . S
C2379 C2383 1.495 . S
C2380 C2379 1.392 . S
C2380 C2381 1.385 . S
C2380 C2382 1.478 . S
C2381 H2375 0.930 . S
C2381 C2377 1.400 . S
C2381 C2380 1.385 . S
C2382 C2380 1.478 . S
C2382 C2384 1.381 . S
C2382 C2388 1.383 . S
C2383 C2379 1.495 . S
C2383 H2389 0.959 . S
C2383 H2390 0.961 . S
C2383 H2391 0.960 . S
C2384 C2382 1.381 . S
C2384 C2385 1.394 . S
C2384 H2392 0.930 . S
C2385 C2384 1.394 . S
C2385 C2386 1.383 . S
C2385 H2393 0.929 . S
C2386 C2385 1.383 . S
C2386 C2387 1.377 . S
C2387 H2371 0.930 . S
C2387 C2386 1.377 . S
C2387 C2388 1.379 . S
C2388 H2372 0.931 . S
C2388 C2382 1.383 . S
C2388 C2387 1.379 . S
H2389 C2383 0.959 . S
H2390 C2383 0.961 . S
H2391 C2383 0.960 . S
H2392 C2384 0.930 . S
H2393 C2385 0.929 . S
H2394 C2402 0.929 1_655 S
H2395 C2404 0.930 1_655 S
H2396 C2406 0.930 . S
H2397 C2409 0.929 . S
H2398 C2412 0.938 . S
H2399 C2414 0.960 . S
H2400 C2414 0.960 . S
H2401 C2414 0.960 . S
C2402 H2394 0.929 1_455 S
C2402 C2403 1.377 . S
C2402 C2404 1.384 . S
C2403 C2402 1.377 . S
C2403 C2409 1.390 . S
C2404 H2395 0.930 1_455 S
C2404 C2402 1.384 . S
C2404 C2405 1.372 . S
C2405 C2404 1.372 . S
C2405 C2406 1.400 . S
C2405 C2410 1.490 . S
C2406 H2396 0.930 . S
C2406 C2405 1.400 . S
C2406 C2409 1.386 . S
H2407 C2423 0.930 . S
H2408 C2424 0.931 . S
C2409 H2397 0.929 . S
C2409 C2403 1.390 . S
C2409 C2406 1.386 . S
C2410 C2405 1.490 . S
C2410 C2412 1.395 . S
C2410 C2413 1.403 . S
H2411 C2417 0.930 . S
C2412 H2398 0.938 . S
C2412 C2410 1.395 . S
C2412 C2415 1.403 . S
C2413 C2410 1.403 . S
C2413 C2414 1.524 . S
C2413 C2417 1.400 . S
C2414 H2399 0.960 . S
C2414 H2400 0.960 . S
C2414 H2401 0.960 . S
C2414 C2413 1.524 . S
C2415 C2412 1.403 . S
C2415 C2416 1.392 . S
C2415 C2419 1.495 1_455 S
C2416 C2415 1.392 . S
C2416 C2417 1.385 . S
C2416 C2418 1.478 . S
C2417 H2411 0.930 . S
C2417 C2413 1.400 . S
C2417 C2416 1.385 . S
C2418 C2416 1.478 . S
C2418 C2420 1.381 1_455 S
C2418 C2424 1.383 . S
C2419 C2415 1.495 1_655 S
C2419 H2425 0.959 . S
C2419 H2426 0.962 . S
C2419 H2427 0.960 . S
C2420 C2418 1.381 1_655 S
C2420 C2421 1.394 . S
C2420 H2428 0.930 . S
C2421 C2420 1.394 . S
C2421 C2422 1.383 1_655 S
C2421 H2429 0.929 . S
C2422 C2421 1.383 1_455 S
C2422 C2423 1.377 . S
C2423 H2407 0.930 . S
C2423 C2422 1.377 . S
C2423 C2424 1.379 . S
C2424 H2408 0.931 . S
C2424 C2418 1.383 . S
C2424 C2423 1.379 . S
H2425 C2419 0.959 . S
H2426 C2419 0.962 . S
H2427 C2419 0.960 . S
H2428 C2420 0.930 . S
H2429 C2421 0.929 . S
H2430 C2438 0.929 . S
H2431 C2440 0.930 . S
H2432 C2442 0.930 . S
H2433 C2445 0.929 . S
H2434 C2448 0.930 . S
H2435 C2450 0.960 . S
H2436 C2450 0.960 . S
H2437 C2450 0.960 . S
C2438 H2430 0.929 . S
C2438 C2439 1.377 . S
C2438 C2440 1.384 . S
C2439 C2438 1.377 . S
C2439 C2445 1.390 . S
C2440 H2431 0.930 . S
C2440 C2438 1.384 . S
C2440 C2441 1.372 . S
C2441 C2440 1.372 . S
C2441 C2442 1.400 . S
C2441 C2446 1.490 . S
C2442 H2432 0.930 . S
C2442 C2441 1.400 . S
C2442 C2445 1.386 . S
H2443 C2459 0.930 . S
H2444 C2460 0.931 . S
C2445 H2433 0.929 . S
C2445 C2439 1.390 . S
C2445 C2442 1.386 . S
C2446 C2441 1.490 . S
C2446 C2448 1.395 . S
C2446 C2449 1.403 . S
H2447 C2453 0.930 . S
C2448 H2434 0.930 . S
C2448 C2446 1.395 . S
C2448 C2451 1.403 . S
C2449 C2446 1.403 . S
C2449 C2450 1.524 . S
C2449 C2453 1.400 . S
C2450 H2435 0.960 . S
C2450 H2436 0.960 . S
C2450 H2437 0.960 . S
C2450 C2449 1.524 . S
C2451 C2448 1.403 . S
C2451 C2452 1.392 . S
C2451 C2455 1.495 . S
C2452 C2451 1.392 . S
C2452 C2453 1.385 . S
C2452 C2454 1.478 . S
C2453 H2447 0.930 . S
C2453 C2449 1.400 . S
C2453 C2452 1.385 . S
C2454 C2452 1.478 . S
C2454 C2456 1.381 . S
C2454 C2460 1.383 . S
C2455 C2451 1.495 . S
C2455 H2461 0.959 . S
C2455 H2462 0.961 . S
C2455 H2463 0.960 . S
C2456 C2454 1.381 . S
C2456 C2457 1.394 . S
C2456 H2464 0.930 . S
C2457 C2456 1.394 . S
C2457 C2458 1.383 . S
C2457 H2465 0.929 . S
C2458 C2457 1.383 . S
C2458 C2459 1.377 . S
C2459 H2443 0.930 . S
C2459 C2458 1.377 . S
C2459 C2460 1.379 . S
C2460 H2444 0.931 . S
C2460 C2454 1.383 . S
C2460 C2459 1.379 . S
H2461 C2455 0.959 . S
H2462 C2455 0.961 . S
H2463 C2455 0.960 . S
H2464 C2456 0.930 . S
H2465 C2457 0.929 . S
H2466 C2474 0.929 . S
H2467 C2476 0.930 . S
H2468 C2478 0.927 1_545 S
H2469 C2481 0.863 1_545 S
H2470 C2484 0.930 . S
H2471 C2486 0.960 . S
H2472 C2486 0.960 . S
H2473 C2486 0.960 . S
C2474 H2466 0.929 . S
C2474 C2475 1.377 . S
C2474 C2476 1.384 . S
C2475 C2474 1.377 . S
C2475 C2481 1.423 . S
C2476 H2467 0.930 . S
C2476 C2474 1.384 . S
C2476 C2477 1.372 . S
C2477 C2476 1.372 . S
C2477 C2478 1.407 . S
C2477 C2482 1.490 . S
C2478 H2468 0.927 1_565 S
C2478 C2477 1.407 . S
C2478 C2481 1.420 . S
H2479 C2495 0.930 . S
H2480 C2496 0.931 . S
C2481 H2469 0.863 1_565 S
C2481 C2475 1.423 . S
C2481 C2478 1.420 . S
C2482 C2477 1.490 . S
C2482 C2484 1.395 . S
C2482 C2485 1.403 . S
H2483 C2489 0.930 . S
C2484 H2470 0.930 . S
C2484 C2482 1.395 . S
C2484 C2487 1.403 . S
C2485 C2482 1.403 . S
C2485 C2486 1.524 . S
C2485 C2489 1.400 . S
C2486 H2471 0.960 . S
C2486 H2472 0.960 . S
C2486 H2473 0.960 . S
C2486 C2485 1.524 . S
C2487 C2484 1.403 . S
C2487 C2488 1.392 . S
C2487 C2491 1.495 . S
C2488 C2487 1.392 . S
C2488 C2489 1.385 . S
C2488 C2490 1.478 . S
C2489 H2483 0.930 . S
C2489 C2485 1.400 . S
C2489 C2488 1.385 . S
C2490 C2488 1.478 . S
C2490 C2492 1.381 . S
C2490 C2496 1.383 1_565 S
C2491 C2487 1.495 . S
C2491 H2497 0.959 . S
C2491 H2498 0.925 1_565 S
C2491 H2499 0.960 . S
C2492 C2490 1.381 . S
C2492 C2493 1.394 . S
C2492 H2500 0.930 . S
C2493 C2492 1.394 . S
C2493 C2494 1.383 . S
C2493 H2501 0.929 . S
C2494 C2493 1.383 . S
C2494 C2495 1.377 1_565 S
C2495 H2479 0.930 . S
C2495 C2494 1.377 1_545 S
C2495 C2496 1.379 . S
C2496 H2480 0.931 . S
C2496 C2490 1.383 1_545 S
C2496 C2495 1.379 . S
H2497 C2491 0.959 . S
H2498 C2491 0.925 1_545 S
H2499 C2491 0.960 . S
H2500 C2492 0.930 . S
H2501 C2493 0.929 . S
H2502 C2510 0.929 . S
H2503 C2512 0.930 . S
H2504 C2514 0.930 . S
H2505 C2517 0.932 . S
H2506 C2520 0.930 . S
H2507 C2522 0.960 . S
H2508 C2522 0.960 . S
H2509 C2522 0.960 1_545 S
C2510 H2502 0.929 . S
C2510 C2511 1.377 . S
C2510 C2512 1.384 . S
C2511 C2510 1.377 . S
C2511 C2517 1.382 1_565 S
C2512 H2503 0.930 . S
C2512 C2510 1.384 . S
C2512 C2513 1.372 . S
C2513 C2512 1.372 . S
C2513 C2514 1.400 1_565 S
C2513 C2518 1.490 . S
C2514 H2504 0.930 . S
C2514 C2513 1.400 1_545 S
C2514 C2517 1.391 . S
H2515 C2531 0.930 . S
H2516 C2532 0.931 . S
C2517 H2505 0.932 . S
C2517 C2511 1.382 1_545 S
C2517 C2514 1.391 . S
C2518 C2513 1.490 . S
C2518 C2520 1.395 . S
C2518 C2521 1.403 . S
H2519 C2525 0.930 . S
C2520 H2506 0.930 . S
C2520 C2518 1.395 . S
C2520 C2523 1.403 . S
C2521 C2518 1.403 . S
C2521 C2522 1.524 . S
C2521 C2525 1.400 . S
C2522 H2507 0.960 . S
C2522 H2508 0.960 . S
C2522 H2509 0.960 1_565 S
C2522 C2521 1.524 . S
C2523 C2520 1.403 . S
C2523 C2524 1.392 . S
C2523 C2527 1.495 . S
C2524 C2523 1.392 . S
C2524 C2525 1.385 . S
C2524 C2526 1.478 . S
C2525 H2519 0.930 . S
C2525 C2521 1.400 . S
C2525 C2524 1.385 . S
C2526 C2524 1.478 . S
C2526 C2528 1.381 . S
C2526 C2532 1.383 1_565 S
C2527 C2523 1.495 . S
C2527 H2533 0.959 . S
C2527 H2534 0.998 . S
C2527 H2535 0.960 . S
C2528 C2526 1.381 . S
C2528 C2529 1.394 . S
C2528 H2536 0.930 . S
C2529 C2528 1.394 . S
C2529 C2530 1.448 . S
C2529 H2537 0.929 . S
C2530 C2529 1.448 . S
C2530 C2531 1.356 1_565 S
C2531 H2515 0.930 . S
C2531 C2530 1.356 1_545 S
C2531 C2532 1.379 . S
C2532 H2516 0.931 . S
C2532 C2526 1.383 1_545 S
C2532 C2531 1.379 . S
H2533 C2527 0.959 . S
H2534 C2527 0.998 . S
H2535 C2527 0.960 . S
H2536 C2528 0.930 . S
H2537 C2529 0.929 . S
H2538 C2546 0.929 . S
H2539 C2548 0.930 . S
H2540 C2550 0.930 . S
H2541 C2553 0.929 . S
H2542 C2556 0.893 1_655 S
H2543 C2558 0.960 . S
H2544 C2558 0.960 . S
H2545 C2558 0.960 . S
C2546 H2538 0.929 . S
C2546 C2547 1.377 1_655 S
C2546 C2548 1.384 . S
C2547 C2546 1.377 1_455 S
C2547 C2553 1.390 . S
C2548 H2539 0.930 . S
C2548 C2546 1.384 . S
C2548 C2549 1.372 1_655 S
C2549 C2548 1.372 1_455 S
C2549 C2550 1.400 . S
C2549 C2554 1.490 . S
C2550 H2540 0.930 . S
C2550 C2549 1.400 . S
C2550 C2553 1.386 . S
H2551 C2567 0.930 . S
H2552 C2568 0.931 . S
C2553 H2541 0.929 . S
C2553 C2547 1.390 . S
C2553 C2550 1.386 . S
C2554 C2549 1.490 . S
C2554 C2556 1.411 . S
C2554 C2557 1.403 . S
H2555 C2561 0.930 . S
C2556 H2542 0.893 1_455 S
C2556 C2554 1.411 . S
C2556 C2559 1.426 1_455 S
C2557 C2554 1.403 . S
C2557 C2558 1.524 . S
C2557 C2561 1.400 . S
C2558 H2543 0.960 . S
C2558 H2544 0.960 . S
C2558 H2545 0.960 . S
C2558 C2557 1.524 . S
C2559 C2556 1.426 1_655 S
C2559 C2560 1.392 1_655 S
C2559 C2563 1.495 . S
C2560 C2559 1.392 1_455 S
C2560 C2561 1.385 . S
C2560 C2562 1.478 . S
C2561 H2555 0.930 . S
C2561 C2557 1.400 . S
C2561 C2560 1.385 . S
C2562 C2560 1.478 . S
C2562 C2564 1.381 1_455 S
C2562 C2568 1.383 . S
C2563 C2559 1.495 . S
C2563 H2569 0.959 . S
C2563 H2570 0.938 1_655 S
C2563 H2571 0.960 . S
C2564 C2562 1.381 1_655 S
C2564 C2565 1.394 . S
C2564 H2572 0.930 . S
C2565 C2564 1.394 . S
C2565 C2566 1.438 . S
C2565 H2573 0.929 . S
C2566 C2565 1.438 . S
C2566 C2567 1.348 1_655 S
C2567 H2551 0.930 . S
C2567 C2566 1.348 1_455 S
C2567 C2568 1.379 . S
C2568 H2552 0.931 . S
C2568 C2562 1.383 . S
C2568 C2567 1.379 . S
H2569 C2563 0.959 . S
H2570 C2563 0.938 1_455 S
H2571 C2563 0.960 . S
H2572 C2564 0.930 . S
H2573 C2565 0.929 . S
H2574 C2582 0.929 . S
H2575 C2584 0.930 . S
H2576 C2586 0.930 . S
H2577 C2589 0.929 . S
H2578 C2592 0.930 . S
H2579 C2594 0.960 . S
H2580 C2594 0.960 . S
H2581 C2594 0.960 . S
C2582 H2574 0.929 . S
C2582 C2583 1.377 . S
C2582 C2584 1.384 . S
C2583 C2582 1.377 . S
C2583 C2589 1.390 . S
C2584 H2575 0.930 . S
C2584 C2582 1.384 . S
C2584 C2585 1.372 . S
C2585 C2584 1.372 . S
C2585 C2586 1.400 . S
C2585 C2590 1.490 . S
C2586 H2576 0.930 . S
C2586 C2585 1.400 . S
C2586 C2589 1.386 . S
H2587 C2603 0.930 . S
H2588 C2604 0.931 . S
C2589 H2577 0.929 . S
C2589 C2583 1.390 . S
C2589 C2586 1.386 . S
C2590 C2585 1.490 . S
C2590 C2592 1.395 . S
C2590 C2593 1.403 . S
H2591 C2597 0.930 . S
C2592 H2578 0.930 . S
C2592 C2590 1.395 . S
C2592 C2595 1.403 . S
C2593 C2590 1.403 . S
C2593 C2594 1.524 . S
C2593 C2597 1.400 . S
C2594 H2579 0.960 . S
C2594 H2580 0.960 . S
C2594 H2581 0.960 . S
C2594 C2593 1.524 . S
C2595 C2592 1.403 . S
C2595 C2596 1.392 . S
C2595 C2599 1.495 . S
C2596 C2595 1.392 . S
C2596 C2597 1.385 . S
C2596 C2598 1.478 . S
C2597 H2591 0.930 . S
C2597 C2593 1.400 . S
C2597 C2596 1.385 . S
C2598 C2596 1.478 . S
C2598 C2600 1.381 . S
C2598 C2604 1.383 . S
C2599 C2595 1.495 . S
C2599 H2605 0.959 . S
C2599 H2606 0.961 . S
C2599 H2607 0.960 . S
C2600 C2598 1.381 . S
C2600 C2601 1.394 . S
C2600 H2608 0.930 . S
C2601 C2600 1.394 . S
C2601 C2602 1.383 . S
C2601 H2609 0.929 . S
C2602 C2601 1.383 . S
C2602 C2603 1.377 . S
C2603 H2587 0.930 . S
C2603 C2602 1.377 . S
C2603 C2604 1.379 . S
C2604 H2588 0.931 . S
C2604 C2598 1.383 . S
C2604 C2603 1.379 . S
H2605 C2599 0.959 . S
H2606 C2599 0.961 . S
H2607 C2599 0.960 . S
H2608 C2600 0.930 . S
H2609 C2601 0.929 . S
H2610 C2618 0.929 . S
H2611 C2620 0.930 . S
H2612 C2622 0.930 . S
H2613 C2625 0.929 . S
H2614 C2628 0.930 . S
H2615 C2630 0.960 . S
H2616 C2630 0.960 . S
H2617 C2630 0.960 . S
C2618 H2610 0.929 . S
C2618 C2619 1.377 . S
C2618 C2620 1.384 . S
C2619 C2618 1.377 . S
C2619 C2625 1.390 . S
C2620 H2611 0.930 . S
C2620 C2618 1.384 . S
C2620 C2621 1.372 . S
C2621 C2620 1.372 . S
C2621 C2622 1.400 . S
C2621 C2626 1.490 . S
C2622 H2612 0.930 . S
C2622 C2621 1.400 . S
C2622 C2625 1.386 . S
H2623 C2639 0.930 . S
H2624 C2640 0.931 . S
C2625 H2613 0.929 . S
C2625 C2619 1.390 . S
C2625 C2622 1.386 . S
C2626 C2621 1.490 . S
C2626 C2628 1.395 . S
C2626 C2629 1.403 . S
H2627 C2633 0.930 . S
C2628 H2614 0.930 . S
C2628 C2626 1.395 . S
C2628 C2631 1.403 . S
C2629 C2626 1.403 . S
C2629 C2630 1.524 . S
C2629 C2633 1.400 . S
C2630 H2615 0.960 . S
C2630 H2616 0.960 . S
C2630 H2617 0.960 . S
C2630 C2629 1.524 . S
C2631 C2628 1.403 . S
C2631 C2632 1.392 . S
C2631 C2635 1.495 . S
C2632 C2631 1.392 . S
C2632 C2633 1.385 . S
C2632 C2634 1.478 . S
C2633 H2627 0.930 . S
C2633 C2629 1.400 . S
C2633 C2632 1.385 . S
C2634 C2632 1.478 . S
C2634 C2636 1.381 . S
C2634 C2640 1.383 . S
C2635 C2631 1.495 . S
C2635 H2641 0.959 . S
C2635 H2642 0.961 . S
C2635 H2643 0.960 . S
C2636 C2634 1.381 . S
C2636 C2637 1.394 . S
C2636 H2644 0.930 . S
C2637 C2636 1.394 . S
C2637 C2638 1.383 . S
C2637 H2645 0.929 . S
C2638 C2637 1.383 . S
C2638 C2639 1.377 . S
C2639 H2623 0.930 . S
C2639 C2638 1.377 . S
C2639 C2640 1.379 . S
C2640 H2624 0.931 . S
C2640 C2634 1.383 . S
C2640 C2639 1.379 . S
H2641 C2635 0.959 . S
H2642 C2635 0.961 . S
H2643 C2635 0.960 . S
H2644 C2636 0.930 . S
H2645 C2637 0.929 . S
H2646 C2654 0.929 . S
H2647 C2656 0.930 . S
H2648 C2658 0.930 . S
H2649 C2661 0.929 . S
H2650 C2664 0.930 . S
H2651 C2666 0.960 . S
H2652 C2666 0.960 . S
H2653 C2666 0.960 . S
C2654 H2646 0.929 . S
C2654 C2655 1.377 . S
C2654 C2656 1.384 . S
C2655 C2654 1.377 . S
C2655 C2661 1.390 . S
C2656 H2647 0.930 . S
C2656 C2654 1.384 . S
C2656 C2657 1.372 . S
C2657 C2656 1.372 . S
C2657 C2658 1.400 . S
C2657 C2662 1.490 . S
C2658 H2648 0.930 . S
C2658 C2657 1.400 . S
C2658 C2661 1.386 . S
H2659 C2675 0.930 . S
H2660 C2676 0.931 . S
C2661 H2649 0.929 . S
C2661 C2655 1.390 . S
C2661 C2658 1.386 . S
C2662 C2657 1.490 . S
C2662 C2664 1.395 . S
C2662 C2665 1.403 . S
H2663 C2669 0.930 . S
C2664 H2650 0.930 . S
C2664 C2662 1.395 . S
C2664 C2667 1.403 . S
C2665 C2662 1.403 . S
C2665 C2666 1.524 . S
C2665 C2669 1.400 . S
C2666 H2651 0.960 . S
C2666 H2652 0.960 . S
C2666 H2653 0.960 . S
C2666 C2665 1.524 . S
C2667 C2664 1.403 . S
C2667 C2668 1.392 . S
C2667 C2671 1.495 . S
C2668 C2667 1.392 . S
C2668 C2669 1.385 . S
C2668 C2670 1.478 . S
C2669 H2663 0.930 . S
C2669 C2665 1.400 . S
C2669 C2668 1.385 . S
C2670 C2668 1.478 . S
C2670 C2672 1.381 . S
C2670 C2676 1.383 . S
C2671 C2667 1.495 . S
C2671 H2677 0.959 . S
C2671 H2678 0.961 . S
C2671 H2679 0.960 . S
C2672 C2670 1.381 . S
C2672 C2673 1.394 . S
C2672 H2680 0.930 . S
C2673 C2672 1.394 . S
C2673 C2674 1.383 . S
C2673 H2681 0.929 . S
C2674 C2673 1.383 . S
C2674 C2675 1.377 . S
C2675 H2659 0.930 . S
C2675 C2674 1.377 . S
C2675 C2676 1.379 . S
C2676 H2660 0.931 . S
C2676 C2670 1.383 . S
C2676 C2675 1.379 . S
H2677 C2671 0.959 . S
H2678 C2671 0.961 . S
H2679 C2671 0.960 . S
H2680 C2672 0.930 . S
H2681 C2673 0.929 . S
H2682 C2690 0.929 . S
H2683 C2692 0.930 . S
H2684 C2694 0.930 . S
H2685 C2697 0.929 . S
H2686 C2700 0.930 . S
H2687 C2702 0.960 . S
H2688 C2702 0.960 . S
H2689 C2702 0.960 . S
C2690 H2682 0.929 . S
C2690 C2691 1.377 . S
C2690 C2692 1.384 . S
C2691 C2690 1.377 . S
C2691 C2697 1.390 . S
C2692 H2683 0.930 . S
C2692 C2690 1.384 . S
C2692 C2693 1.372 . S
C2693 C2692 1.372 . S
C2693 C2694 1.400 . S
C2693 C2698 1.490 . S
C2694 H2684 0.930 . S
C2694 C2693 1.400 . S
C2694 C2697 1.386 . S
H2695 C2711 0.930 . S
H2696 C2712 0.931 . S
C2697 H2685 0.929 . S
C2697 C2691 1.390 . S
C2697 C2694 1.386 . S
C2698 C2693 1.490 . S
C2698 C2700 1.395 . S
C2698 C2701 1.403 . S
H2699 C2705 0.930 . S
C2700 H2686 0.930 . S
C2700 C2698 1.395 . S
C2700 C2703 1.403 . S
C2701 C2698 1.403 . S
C2701 C2702 1.524 . S
C2701 C2705 1.400 . S
C2702 H2687 0.960 . S
C2702 H2688 0.960 . S
C2702 H2689 0.960 . S
C2702 C2701 1.524 . S
C2703 C2700 1.403 . S
C2703 C2704 1.392 . S
C2703 C2707 1.495 . S
C2704 C2703 1.392 . S
C2704 C2705 1.385 . S
C2704 C2706 1.478 . S
C2705 H2699 0.930 . S
C2705 C2701 1.400 . S
C2705 C2704 1.385 . S
C2706 C2704 1.478 . S
C2706 C2708 1.381 . S
C2706 C2712 1.383 . S
C2707 C2703 1.495 . S
C2707 H2713 0.959 . S
C2707 H2714 0.961 . S
C2707 H2715 0.960 . S
C2708 C2706 1.381 . S
C2708 C2709 1.394 . S
C2708 H2716 0.930 . S
C2709 C2708 1.394 . S
C2709 C2710 1.383 . S
C2709 H2717 0.929 . S
C2710 C2709 1.383 . S
C2710 C2711 1.377 . S
C2711 H2695 0.930 . S
C2711 C2710 1.377 . S
C2711 C2712 1.379 . S
C2712 H2696 0.931 . S
C2712 C2706 1.383 . S
C2712 C2711 1.379 . S
H2713 C2707 0.959 . S
H2714 C2707 0.961 . S
H2715 C2707 0.960 . S
H2716 C2708 0.930 . S
H2717 C2709 0.929 . S
H2718 C2726 0.929 1_565 S
H2719 C2728 0.930 1_565 S
H2720 C2730 0.930 . S
H2721 C2733 0.929 . S
H2722 C2736 0.930 . S
H2723 C2738 0.960 . S
H2724 C2738 0.960 1_565 S
H2725 C2738 0.960 . S
C2726 H2718 0.929 1_545 S
C2726 C2727 1.377 . S
C2726 C2728 1.384 . S
C2727 C2726 1.377 . S
C2727 C2733 1.390 . S
C2728 H2719 0.930 1_545 S
C2728 C2726 1.384 . S
C2728 C2729 1.372 . S
C2729 C2728 1.372 . S
C2729 C2730 1.400 . S
C2729 C2734 1.490 . S
C2730 H2720 0.930 . S
C2730 C2729 1.400 . S
C2730 C2733 1.386 . S
H2731 C2747 0.930 . S
H2732 C2748 0.931 . S
C2733 H2721 0.929 . S
C2733 C2727 1.390 . S
C2733 C2730 1.386 . S
C2734 C2729 1.490 . S
C2734 C2736 1.395 . S
C2734 C2737 1.403 . S
H2735 C2741 0.930 . S
C2736 H2722 0.930 . S
C2736 C2734 1.395 . S
C2736 C2739 1.403 . S
C2737 C2734 1.403 . S
C2737 C2738 1.524 . S
C2737 C2741 1.400 . S
C2738 H2723 0.960 . S
C2738 H2724 0.960 1_545 S
C2738 H2725 0.960 . S
C2738 C2737 1.524 . S
C2739 C2736 1.403 . S
C2739 C2740 1.392 . S
C2739 C2743 1.495 . S
C2740 C2739 1.392 . S
C2740 C2741 1.385 . S
C2740 C2742 1.478 . S
C2741 H2735 0.930 . S
C2741 C2737 1.400 . S
C2741 C2740 1.385 . S
C2742 C2740 1.478 . S
C2742 C2744 1.381 1_545 S
C2742 C2748 1.383 . S
C2743 C2739 1.495 . S
C2743 H2749 0.959 . S
C2743 H2750 0.961 . S
C2743 H2751 0.960 . S
C2744 C2742 1.381 1_565 S
C2744 C2745 1.394 . S
C2744 H2752 0.930 . S
C2745 C2744 1.394 . S
C2745 C2746 1.383 1_565 S
C2745 H2753 0.929 . S
C2746 C2745 1.383 1_545 S
C2746 C2747 1.377 . S
C2747 H2731 0.930 . S
C2747 C2746 1.377 . S
C2747 C2748 1.379 . S
C2748 H2732 0.931 . S
C2748 C2742 1.383 . S
C2748 C2747 1.379 . S
H2749 C2743 0.959 . S
H2750 C2743 0.961 . S
H2751 C2743 0.960 . S
H2752 C2744 0.930 . S
H2753 C2745 0.929 . S
H2754 C2762 0.929 . S
H2755 C2764 0.930 . S
H2756 C2766 0.930 . S
H2757 C2769 0.929 . S
H2758 C2772 0.930 . S
H2759 C2774 0.960 . S
H2760 C2774 0.960 . S
H2761 C2774 0.960 . S
C2762 H2754 0.929 . S
C2762 C2763 1.377 1_455 S
C2762 C2764 1.384 . S
C2763 C2762 1.377 1_655 S
C2763 C2769 1.390 . S
C2764 H2755 0.930 . S
C2764 C2762 1.384 . S
C2764 C2765 1.372 1_455 S
C2765 C2764 1.372 1_655 S
C2765 C2766 1.400 . S
C2765 C2770 1.490 . S
C2766 H2756 0.930 . S
C2766 C2765 1.400 . S
C2766 C2769 1.386 . S
H2767 C2783 0.930 . S
H2768 C2784 0.931 . S
C2769 H2757 0.929 . S
C2769 C2763 1.390 . S
C2769 C2766 1.386 . S
C2770 C2765 1.490 . S
C2770 C2772 1.395 1_655 S
C2770 C2773 1.403 . S
H2771 C2777 0.930 . S
C2772 H2758 0.930 . S
C2772 C2770 1.395 1_455 S
C2772 C2775 1.403 . S
C2773 C2770 1.403 . S
C2773 C2774 1.524 . S
C2773 C2777 1.400 . S
C2774 H2759 0.960 . S
C2774 H2760 0.960 . S
C2774 H2761 0.960 . S
C2774 C2773 1.524 . S
C2775 C2772 1.403 . S
C2775 C2776 1.392 1_455 S
C2775 C2779 1.495 . S
C2776 C2775 1.392 1_655 S
C2776 C2777 1.385 . S
C2776 C2778 1.478 . S
C2777 H2771 0.930 . S
C2777 C2773 1.400 . S
C2777 C2776 1.385 . S
C2778 C2776 1.478 . S
C2778 C2780 1.381 1_655 S
C2778 C2784 1.383 . S
C2779 C2775 1.495 . S
C2779 H2785 0.959 . S
C2779 H2786 0.961 . S
C2779 H2787 0.960 . S
C2780 C2778 1.381 1_455 S
C2780 C2781 1.394 . S
C2780 H2788 0.930 . S
C2781 C2780 1.394 . S
C2781 C2782 1.383 1_455 S
C2781 H2789 0.929 . S
C2782 C2781 1.383 1_655 S
C2782 C2783 1.377 . S
C2783 H2767 0.930 . S
C2783 C2782 1.377 . S
C2783 C2784 1.379 . S
C2784 H2768 0.931 . S
C2784 C2778 1.383 . S
C2784 C2783 1.379 . S
H2785 C2779 0.959 . S
H2786 C2779 0.961 . S
H2787 C2779 0.960 . S
H2788 C2780 0.930 . S
H2789 C2781 0.929 . S
H2790 C2798 0.929 . S
H2791 C2800 0.930 . S
H2792 C2802 0.930 . S
H2793 C2805 0.929 . S
H2794 C2808 0.930 . S
H2795 C2810 0.960 . S
H2796 C2810 0.960 . S
H2797 C2810 0.960 . S
C2798 H2790 0.929 . S
C2798 C2799 1.377 . S
C2798 C2800 1.384 . S
C2799 C2798 1.377 . S
C2799 C2805 1.390 . S
C2800 H2791 0.930 . S
C2800 C2798 1.384 . S
C2800 C2801 1.372 . S
C2801 C2800 1.372 . S
C2801 C2802 1.400 . S
C2801 C2806 1.490 . S
C2802 H2792 0.930 . S
C2802 C2801 1.400 . S
C2802 C2805 1.386 . S
H2803 C2819 0.930 . S
H2804 C2820 0.931 . S
C2805 H2793 0.929 . S
C2805 C2799 1.390 . S
C2805 C2802 1.386 . S
C2806 C2801 1.490 . S
C2806 C2808 1.395 . S
C2806 C2809 1.403 . S
H2807 C2813 0.930 . S
C2808 H2794 0.930 . S
C2808 C2806 1.395 . S
C2808 C2811 1.403 . S
C2809 C2806 1.403 . S
C2809 C2810 1.524 . S
C2809 C2813 1.400 . S
C2810 H2795 0.960 . S
C2810 H2796 0.960 . S
C2810 H2797 0.960 . S
C2810 C2809 1.524 . S
C2811 C2808 1.403 . S
C2811 C2812 1.392 . S
C2811 C2815 1.495 . S
C2812 C2811 1.392 . S
C2812 C2813 1.385 . S
C2812 C2814 1.478 . S
C2813 H2807 0.930 . S
C2813 C2809 1.400 . S
C2813 C2812 1.385 . S
C2814 C2812 1.478 . S
C2814 C2816 1.381 . S
C2814 C2820 1.383 . S
C2815 C2811 1.495 . S
C2815 H2821 0.959 . S
C2815 H2822 0.961 . S
C2815 H2823 0.960 . S
C2816 C2814 1.381 . S
C2816 C2817 1.394 . S
C2816 H2824 0.930 . S
C2817 C2816 1.394 . S
C2817 C2818 1.383 . S
C2817 H2825 0.929 . S
C2818 C2817 1.383 . S
C2818 C2819 1.377 . S
C2819 H2803 0.930 . S
C2819 C2818 1.377 . S
C2819 C2820 1.379 . S
C2820 H2804 0.931 . S
C2820 C2814 1.383 . S
C2820 C2819 1.379 . S
H2821 C2815 0.959 . S
H2822 C2815 0.961 . S
H2823 C2815 0.960 . S
H2824 C2816 0.930 . S
H2825 C2817 0.929 . S
H2826 C2834 0.929 . S
H2827 C2836 0.930 . S
H2828 C2838 0.930 . S
H2829 C2841 0.929 . S
H2830 C2844 0.930 . S
H2831 C2846 0.960 . S
H2832 C2846 0.960 . S
H2833 C2846 0.960 . S
C2834 H2826 0.929 . S
C2834 C2835 1.377 . S
C2834 C2836 1.384 . S
C2835 C2834 1.377 . S
C2835 C2841 1.390 . S
C2836 H2827 0.930 . S
C2836 C2834 1.384 . S
C2836 C2837 1.372 . S
C2837 C2836 1.372 . S
C2837 C2838 1.400 . S
C2837 C2842 1.490 . S
C2838 H2828 0.930 . S
C2838 C2837 1.400 . S
C2838 C2841 1.386 . S
H2839 C2855 0.930 . S
H2840 C2856 0.931 . S
C2841 H2829 0.929 . S
C2841 C2835 1.390 . S
C2841 C2838 1.386 . S
C2842 C2837 1.490 . S
C2842 C2844 1.395 . S
C2842 C2845 1.403 . S
H2843 C2849 0.930 . S
C2844 H2830 0.930 . S
C2844 C2842 1.395 . S
C2844 C2847 1.403 . S
C2845 C2842 1.403 . S
C2845 C2846 1.524 . S
C2845 C2849 1.400 . S
C2846 H2831 0.960 . S
C2846 H2832 0.960 . S
C2846 H2833 0.960 . S
C2846 C2845 1.524 . S
C2847 C2844 1.403 . S
C2847 C2848 1.392 . S
C2847 C2851 1.495 . S
C2848 C2847 1.392 . S
C2848 C2849 1.385 . S
C2848 C2850 1.478 . S
C2849 H2843 0.930 . S
C2849 C2845 1.400 . S
C2849 C2848 1.385 . S
C2850 C2848 1.478 . S
C2850 C2852 1.381 . S
C2850 C2856 1.383 . S
C2851 C2847 1.495 . S
C2851 H2857 0.959 . S
C2851 H2858 0.961 . S
C2851 H2859 0.960 . S
C2852 C2850 1.381 . S
C2852 C2853 1.394 . S
C2852 H2860 0.930 . S
C2853 C2852 1.394 . S
C2853 C2854 1.383 . S
C2853 H2861 0.929 . S
C2854 C2853 1.383 . S
C2854 C2855 1.377 . S
C2855 H2839 0.930 . S
C2855 C2854 1.377 . S
C2855 C2856 1.379 . S
C2856 H2840 0.931 . S
C2856 C2850 1.383 . S
C2856 C2855 1.379 . S
H2857 C2851 0.959 . S
H2858 C2851 0.961 . S
H2859 C2851 0.960 . S
H2860 C2852 0.930 . S
H2861 C2853 0.929 . S
H2862 C2870 0.929 . S
H2863 C2872 0.930 . S
H2864 C2874 0.930 . S
H2865 C2877 0.929 . S
H2866 C2880 0.930 . S
H2867 C2882 0.960 . S
H2868 C2882 0.960 . S
H2869 C2882 0.960 . S
C2870 H2862 0.929 . S
C2870 C2871 1.377 . S
C2870 C2872 1.384 . S
C2871 C2870 1.377 . S
C2871 C2877 1.390 . S
C2872 H2863 0.930 . S
C2872 C2870 1.384 . S
C2872 C2873 1.372 . S
C2873 C2872 1.372 . S
C2873 C2874 1.400 . S
C2873 C2878 1.490 . S
C2874 H2864 0.930 . S
C2874 C2873 1.400 . S
C2874 C2877 1.386 . S
H2875 C2891 0.930 . S
H2876 C2892 0.931 . S
C2877 H2865 0.929 . S
C2877 C2871 1.390 . S
C2877 C2874 1.386 . S
C2878 C2873 1.490 . S
C2878 C2880 1.395 . S
C2878 C2881 1.403 . S
H2879 C2885 0.930 . S
C2880 H2866 0.930 . S
C2880 C2878 1.395 . S
C2880 C2883 1.403 . S
C2881 C2878 1.403 . S
C2881 C2882 1.524 . S
C2881 C2885 1.400 . S
C2882 H2867 0.960 . S
C2882 H2868 0.960 . S
C2882 H2869 0.960 . S
C2882 C2881 1.524 . S
C2883 C2880 1.403 . S
C2883 C2884 1.392 . S
C2883 C2887 1.495 . S
C2884 C2883 1.392 . S
C2884 C2885 1.385 . S
C2884 C2886 1.478 . S
C2885 H2879 0.930 . S
C2885 C2881 1.400 . S
C2885 C2884 1.385 . S
C2886 C2884 1.478 . S
C2886 C2888 1.381 . S
C2886 C2892 1.383 . S
C2887 C2883 1.495 . S
C2887 H2893 0.959 . S
C2887 H2894 0.961 . S
C2887 H2895 0.960 . S
C2888 C2886 1.381 . S
C2888 C2889 1.394 . S
C2888 H2896 0.930 . S
C2889 C2888 1.394 . S
C2889 C2890 1.383 . S
C2889 H2897 0.929 . S
C2890 C2889 1.383 . S
C2890 C2891 1.377 . S
C2891 H2875 0.930 . S
C2891 C2890 1.377 . S
C2891 C2892 1.379 . S
C2892 H2876 0.931 . S
C2892 C2886 1.383 . S
C2892 C2891 1.379 . S
H2893 C2887 0.959 . S
H2894 C2887 0.961 . S
H2895 C2887 0.960 . S
H2896 C2888 0.930 . S
H2897 C2889 0.929 . S
H2898 C2906 0.929 . S
H2899 C2908 0.930 . S
H2900 C2910 0.930 . S
H2901 C2913 0.929 . S
H2902 C2916 0.930 . S
H2903 C2918 0.960 . S
H2904 C2918 0.960 . S
H2905 C2918 0.960 . S
C2906 H2898 0.929 . S
C2906 C2907 1.377 . S
C2906 C2908 1.384 . S
C2907 C2906 1.377 . S
C2907 C2913 1.390 . S
C2908 H2899 0.930 . S
C2908 C2906 1.384 . S
C2908 C2909 1.372 . S
C2909 C2908 1.372 . S
C2909 C2910 1.400 . S
C2909 C2914 1.490 . S
C2910 H2900 0.930 . S
C2910 C2909 1.400 . S
C2910 C2913 1.386 . S
H2911 C2927 0.930 . S
H2912 C2928 0.931 . S
C2913 H2901 0.929 . S
C2913 C2907 1.390 . S
C2913 C2910 1.386 . S
C2914 C2909 1.490 . S
C2914 C2916 1.395 . S
C2914 C2917 1.403 . S
H2915 C2921 0.930 . S
C2916 H2902 0.930 . S
C2916 C2914 1.395 . S
C2916 C2919 1.403 . S
C2917 C2914 1.403 . S
C2917 C2918 1.524 . S
C2917 C2921 1.400 . S
C2918 H2903 0.960 . S
C2918 H2904 0.960 . S
C2918 H2905 0.960 . S
C2918 C2917 1.524 . S
C2919 C2916 1.403 . S
C2919 C2920 1.392 . S
C2919 C2923 1.495 . S
C2920 C2919 1.392 . S
C2920 C2921 1.385 . S
C2920 C2922 1.478 . S
C2921 H2915 0.930 . S
C2921 C2917 1.400 . S
C2921 C2920 1.385 . S
C2922 C2920 1.478 . S
C2922 C2924 1.381 . S
C2922 C2928 1.383 . S
C2923 C2919 1.495 . S
C2923 H2929 0.959 . S
C2923 H2930 0.961 . S
C2923 H2931 0.960 . S
C2924 C2922 1.381 . S
C2924 C2925 1.394 . S
C2924 H2932 0.930 . S
C2925 C2924 1.394 . S
C2925 C2926 1.383 . S
C2925 H2933 0.929 . S
C2926 C2925 1.383 . S
C2926 C2927 1.377 . S
C2927 H2911 0.930 . S
C2927 C2926 1.377 . S
C2927 C2928 1.379 . S
C2928 H2912 0.931 . S
C2928 C2922 1.383 . S
C2928 C2927 1.379 . S
H2929 C2923 0.959 . S
H2930 C2923 0.961 . S
H2931 C2923 0.960 . S
H2932 C2924 0.930 . S
H2933 C2925 0.929 . S
H2934 C2942 0.929 . S
H2935 C2944 0.930 . S
H2936 C2946 0.930 . S
H2937 C2949 0.929 . S
H2938 C2952 0.930 . S
H2939 C2954 0.960 . S
H2940 C2954 0.960 . S
H2941 C2954 0.960 . S
C2942 H2934 0.929 . S
C2942 C2943 1.377 . S
C2942 C2944 1.384 . S
C2943 C2942 1.377 . S
C2943 C2949 1.390 . S
C2944 H2935 0.930 . S
C2944 C2942 1.384 . S
C2944 C2945 1.372 . S
C2945 C2944 1.372 . S
C2945 C2946 1.400 . S
C2945 C2950 1.490 . S
C2946 H2936 0.930 . S
C2946 C2945 1.400 . S
C2946 C2949 1.386 . S
H2947 C2963 0.930 . S
H2948 C2964 0.931 . S
C2949 H2937 0.929 . S
C2949 C2943 1.390 . S
C2949 C2946 1.386 . S
C2950 C2945 1.490 . S
C2950 C2952 1.395 . S
C2950 C2953 1.403 . S
H2951 C2957 0.930 . S
C2952 H2938 0.930 . S
C2952 C2950 1.395 . S
C2952 C2955 1.403 . S
C2953 C2950 1.403 . S
C2953 C2954 1.524 . S
C2953 C2957 1.400 . S
C2954 H2939 0.960 . S
C2954 H2940 0.960 . S
C2954 H2941 0.960 . S
C2954 C2953 1.524 . S
C2955 C2952 1.403 . S
C2955 C2956 1.392 . S
C2955 C2959 1.495 . S
C2956 C2955 1.392 . S
C2956 C2957 1.385 . S
C2956 C2958 1.478 . S
C2957 H2951 0.930 . S
C2957 C2953 1.400 . S
C2957 C2956 1.385 . S
C2958 C2956 1.478 . S
C2958 C2960 1.381 . S
C2958 C2964 1.383 . S
C2959 C2955 1.495 . S
C2959 H2965 0.959 . S
C2959 H2966 0.961 . S
C2959 H2967 0.960 . S
C2960 C2958 1.381 . S
C2960 C2961 1.394 . S
C2960 H2968 0.930 . S
C2961 C2960 1.394 . S
C2961 C2962 1.383 . S
C2961 H2969 0.929 . S
C2962 C2961 1.383 . S
C2962 C2963 1.377 . S
C2963 H2947 0.930 . S
C2963 C2962 1.377 . S
C2963 C2964 1.379 . S
C2964 H2948 0.931 . S
C2964 C2958 1.383 . S
C2964 C2963 1.379 . S
H2965 C2959 0.959 . S
H2966 C2959 0.961 . S
H2967 C2959 0.960 . S
H2968 C2960 0.930 . S
H2969 C2961 0.929 . S
H2970 C2978 0.929 . S
H2971 C2980 0.930 . S
H2972 C2982 0.930 . S
H2973 C2985 0.929 . S
H2974 C2988 0.930 . S
H2975 C2990 0.960 . S
H2976 C2990 0.960 . S
H2977 C2990 0.960 . S
C2978 H2970 0.929 . S
C2978 C2979 1.377 . S
C2978 C2980 1.384 . S
C2979 C2978 1.377 . S
C2979 C2985 1.390 . S
C2980 H2971 0.930 . S
C2980 C2978 1.384 . S
C2980 C2981 1.372 . S
C2981 C2980 1.372 . S
C2981 C2982 1.400 . S
C2981 C2986 1.490 . S
C2982 H2972 0.930 . S
C2982 C2981 1.400 . S
C2982 C2985 1.386 . S
H2983 C2999 0.930 . S
H2984 C3000 0.931 . S
C2985 H2973 0.929 . S
C2985 C2979 1.390 . S
C2985 C2982 1.386 . S
C2986 C2981 1.490 . S
C2986 C2988 1.395 . S
C2986 C2989 1.403 . S
H2987 C2993 0.930 . S
C2988 H2974 0.930 . S
C2988 C2986 1.395 . S
C2988 C2991 1.403 . S
C2989 C2986 1.403 . S
C2989 C2990 1.524 . S
C2989 C2993 1.400 . S
C2990 H2975 0.960 . S
C2990 H2976 0.960 . S
C2990 H2977 0.960 . S
C2990 C2989 1.524 . S
C2991 C2988 1.403 . S
C2991 C2992 1.392 . S
C2991 C2995 1.495 . S
C2992 C2991 1.392 . S
C2992 C2993 1.385 . S
C2992 C2994 1.478 . S
C2993 H2987 0.930 . S
C2993 C2989 1.400 . S
C2993 C2992 1.385 . S
C2994 C2992 1.478 . S
C2994 C2996 1.381 . S
C2994 C3000 1.383 . S
C2995 C2991 1.495 . S
C2995 H3001 0.959 . S
C2995 H3002 0.961 . S
C2995 H3003 0.960 . S
C2996 C2994 1.381 . S
C2996 C2997 1.394 . S
C2996 H3004 0.930 . S
C2997 C2996 1.394 . S
C2997 C2998 1.383 . S
C2997 H3005 0.929 . S
C2998 C2997 1.383 . S
C2998 C2999 1.377 . S
C2999 H2983 0.930 . S
C2999 C2998 1.377 . S
C2999 C3000 1.379 . S
C3000 H2984 0.931 . S
C3000 C2994 1.383 . S
C3000 C2999 1.379 . S
H3001 C2995 0.959 . S
H3002 C2995 0.961 . S
H3003 C2995 0.960 . S
H3004 C2996 0.930 . S
H3005 C2997 0.929 . S
H3006 C3014 0.929 . S
H3007 C3016 0.930 . S
H3008 C3018 0.930 . S
H3009 C3021 0.929 . S
H3010 C3024 0.930 . S
H3011 C3026 0.960 . S
H3012 C3026 0.960 . S
H3013 C3026 0.960 . S
C3014 H3006 0.929 . S
C3014 C3015 1.377 . S
C3014 C3016 1.384 . S
C3015 C3014 1.377 . S
C3015 C3021 1.390 . S
C3016 H3007 0.930 . S
C3016 C3014 1.384 . S
C3016 C3017 1.372 . S
C3017 C3016 1.372 . S
C3017 C3018 1.400 . S
C3017 C3022 1.490 . S
C3018 H3008 0.930 . S
C3018 C3017 1.400 . S
C3018 C3021 1.386 . S
H3019 C3035 0.930 . S
H3020 C3036 0.931 . S
C3021 H3009 0.929 . S
C3021 C3015 1.390 . S
C3021 C3018 1.386 . S
C3022 C3017 1.490 . S
C3022 C3024 1.395 . S
C3022 C3025 1.403 . S
H3023 C3029 0.930 . S
C3024 H3010 0.930 . S
C3024 C3022 1.395 . S
C3024 C3027 1.403 . S
C3025 C3022 1.403 . S
C3025 C3026 1.524 . S
C3025 C3029 1.400 . S
C3026 H3011 0.960 . S
C3026 H3012 0.960 . S
C3026 H3013 0.960 . S
C3026 C3025 1.524 . S
C3027 C3024 1.403 . S
C3027 C3028 1.392 . S
C3027 C3031 1.495 . S
C3028 C3027 1.392 . S
C3028 C3029 1.385 . S
C3028 C3030 1.478 . S
C3029 H3023 0.930 . S
C3029 C3025 1.400 . S
C3029 C3028 1.385 . S
C3030 C3028 1.478 . S
C3030 C3032 1.381 . S
C3030 C3036 1.383 . S
C3031 C3027 1.495 . S
C3031 H3037 0.959 . S
C3031 H3038 0.961 . S
C3031 H3039 0.960 . S
C3032 C3030 1.381 . S
C3032 C3033 1.394 . S
C3032 H3040 0.930 . S
C3033 C3032 1.394 . S
C3033 C3034 1.383 . S
C3033 H3041 0.929 . S
C3034 C3033 1.383 . S
C3034 C3035 1.377 . S
C3035 H3019 0.930 . S
C3035 C3034 1.377 . S
C3035 C3036 1.379 . S
C3036 H3020 0.931 . S
C3036 C3030 1.383 . S
C3036 C3035 1.379 . S
H3037 C3031 0.959 . S
H3038 C3031 0.961 . S
H3039 C3031 0.960 . S
H3040 C3032 0.930 . S
H3041 C3033 0.929 . S
H3042 C3050 0.929 . S
H3043 C3052 0.930 . S
H3044 C3054 0.930 . S
H3045 C3057 0.929 . S
H3046 C3060 0.930 . S
H3047 C3062 0.960 . S
H3048 C3062 0.960 . S
H3049 C3062 0.960 . S
C3050 H3042 0.929 . S
C3050 C3051 1.377 . S
C3050 C3052 1.384 . S
C3051 C3050 1.377 . S
C3051 C3057 1.390 . S
C3052 H3043 0.930 . S
C3052 C3050 1.384 . S
C3052 C3053 1.372 . S
C3053 C3052 1.372 . S
C3053 C3054 1.400 . S
C3053 C3058 1.490 . S
C3054 H3044 0.930 . S
C3054 C3053 1.400 . S
C3054 C3057 1.386 . S
H3055 C3071 0.996 . S
H3056 C3072 0.931 1_455 S
C3057 H3045 0.929 . S
C3057 C3051 1.390 . S
C3057 C3054 1.386 . S
C3058 C3053 1.490 . S
C3058 C3060 1.395 . S
C3058 C3061 1.403 1_655 S
H3059 C3065 0.930 . S
C3060 H3046 0.930 . S
C3060 C3058 1.395 . S
C3060 C3063 1.403 . S
C3061 C3058 1.403 1_455 S
C3061 C3062 1.524 . S
C3061 C3065 1.400 . S
C3062 H3047 0.960 . S
C3062 H3048 0.960 . S
C3062 H3049 0.960 . S
C3062 C3061 1.524 . S
C3063 C3060 1.403 . S
C3063 C3064 1.392 . S
C3063 C3067 1.495 . S
C3064 C3063 1.392 . S
C3064 C3065 1.385 1_655 S
C3064 C3066 1.478 . S
C3065 H3059 0.930 . S
C3065 C3061 1.400 . S
C3065 C3064 1.385 1_455 S
C3066 C3064 1.478 . S
C3066 C3068 1.381 . S
C3066 C3072 1.383 . S
C3067 C3063 1.495 . S
C3067 H3073 0.959 . S
C3067 H3074 0.961 . S
C3067 H3075 0.960 . S
C3068 C3066 1.381 . S
C3068 C3069 1.394 . S
C3068 H3076 0.930 . S
C3069 C3068 1.394 . S
C3069 C3070 1.383 . S
C3069 H3077 0.929 . S
C3070 C3069 1.383 . S
C3070 C3071 1.374 1_655 S
C3071 H3055 0.996 . S
C3071 C3070 1.374 1_455 S
C3071 C3072 1.324 1_455 S
C3072 H3056 0.931 1_655 S
C3072 C3066 1.383 . S
C3072 C3071 1.324 1_655 S
H3073 C3067 0.959 . S
H3074 C3067 0.961 . S
H3075 C3067 0.960 . S
H3076 C3068 0.930 . S
H3077 C3069 0.929 . S
H3078 C3086 0.929 . S
H3079 C3088 0.930 . S
H3080 C3090 0.930 . S
H3081 C3093 0.929 . S
H3082 C3096 0.930 . S
H3083 C3098 0.960 . S
H3084 C3098 0.960 . S
H3085 C3098 0.960 . S
C3086 H3078 0.929 . S
C3086 C3087 1.377 . S
C3086 C3088 1.384 . S
C3087 C3086 1.377 . S
C3087 C3093 1.390 . S
C3088 H3079 0.930 . S
C3088 C3086 1.384 . S
C3088 C3089 1.372 . S
C3089 C3088 1.372 . S
C3089 C3090 1.400 . S
C3089 C3094 1.490 . S
C3090 H3080 0.930 . S
C3090 C3089 1.400 . S
C3090 C3093 1.386 . S
H3091 C3107 0.930 . S
H3092 C3108 0.931 . S
C3093 H3081 0.929 . S
C3093 C3087 1.390 . S
C3093 C3090 1.386 . S
C3094 C3089 1.490 . S
C3094 C3096 1.395 . S
C3094 C3097 1.403 . S
H3095 C3101 0.930 . S
C3096 H3082 0.930 . S
C3096 C3094 1.395 . S
C3096 C3099 1.403 . S
C3097 C3094 1.403 . S
C3097 C3098 1.524 . S
C3097 C3101 1.400 . S
C3098 H3083 0.960 . S
C3098 H3084 0.960 . S
C3098 H3085 0.960 . S
C3098 C3097 1.524 . S
C3099 C3096 1.403 . S
C3099 C3100 1.392 . S
C3099 C3103 1.495 . S
C3100 C3099 1.392 . S
C3100 C3101 1.385 . S
C3100 C3102 1.478 . S
C3101 H3095 0.930 . S
C3101 C3097 1.400 . S
C3101 C3100 1.385 . S
C3102 C3100 1.478 . S
C3102 C3104 1.381 . S
C3102 C3108 1.383 . S
C3103 C3099 1.495 . S
C3103 H3109 0.959 . S
C3103 H3110 0.961 . S
C3103 H3111 0.960 . S
C3104 C3102 1.381 . S
C3104 C3105 1.394 . S
C3104 H3112 0.930 . S
C3105 C3104 1.394 . S
C3105 C3106 1.383 . S
C3105 H3113 0.929 . S
C3106 C3105 1.383 . S
C3106 C3107 1.377 . S
C3107 H3091 0.930 . S
C3107 C3106 1.377 . S
C3107 C3108 1.379 . S
C3108 H3092 0.931 . S
C3108 C3102 1.383 . S
C3108 C3107 1.379 . S
H3109 C3103 0.959 . S
H3110 C3103 0.961 . S
H3111 C3103 0.960 . S
H3112 C3104 0.930 . S
H3113 C3105 0.929 . S
H3114 C3122 0.929 . S
H3115 C3124 0.930 . S
H3116 C3126 0.930 . S
H3117 C3129 0.929 . S
H3118 C3132 0.930 . S
H3119 C3134 0.960 . S
H3120 C3134 0.960 . S
H3121 C3134 0.960 . S
C3122 H3114 0.929 . S
C3122 C3123 1.377 . S
C3122 C3124 1.384 . S
C3123 C3122 1.377 . S
C3123 C3129 1.390 . S
C3124 H3115 0.930 . S
C3124 C3122 1.384 . S
C3124 C3125 1.372 . S
C3125 C3124 1.372 . S
C3125 C3126 1.400 . S
C3125 C3130 1.490 . S
C3126 H3116 0.930 . S
C3126 C3125 1.400 . S
C3126 C3129 1.386 . S
H3127 C3143 0.929 . S
H3128 C3144 0.931 . S
C3129 H3117 0.929 . S
C3129 C3123 1.390 . S
C3129 C3126 1.386 . S
C3130 C3125 1.490 . S
C3130 C3132 1.395 1_545 S
C3130 C3133 1.403 . S
H3131 C3137 0.930 . S
C3132 H3118 0.930 . S
C3132 C3130 1.395 1_565 S
C3132 C3135 1.403 . S
C3133 C3130 1.403 . S
C3133 C3134 1.524 . S
C3133 C3137 1.400 . S
C3134 H3119 0.960 . S
C3134 H3120 0.960 . S
C3134 H3121 0.960 . S
C3134 C3133 1.524 . S
C3135 C3132 1.403 . S
C3135 C3136 1.392 1_565 S
C3135 C3139 1.495 . S
C3136 C3135 1.392 1_545 S
C3136 C3137 1.385 . S
C3136 C3138 1.478 . S
C3137 H3131 0.930 . S
C3137 C3133 1.400 . S
C3137 C3136 1.385 . S
C3138 C3136 1.478 . S
C3138 C3140 1.382 . S
C3138 C3144 1.383 . S
C3139 C3135 1.495 . S
C3139 H3145 0.959 . S
C3139 H3146 0.961 . S
C3139 H3147 0.960 . S
C3140 C3138 1.382 . S
C3140 C3141 1.393 1_545 S
C3140 H3148 0.930 1_545 S
C3141 C3140 1.393 1_565 S
C3141 C3142 1.383 . S
C3141 H3149 0.929 . S
C3142 C3141 1.383 . S
C3142 C3143 1.382 1_565 S
C3143 H3127 0.929 . S
C3143 C3142 1.382 1_545 S
C3143 C3144 1.374 . S
C3144 H3128 0.931 . S
C3144 C3138 1.383 . S
C3144 C3143 1.374 . S
H3145 C3139 0.959 . S
H3146 C3139 0.961 . S
H3147 C3139 0.960 . S
H3148 C3140 0.930 1_565 S
H3149 C3141 0.929 . S
C567 C8 1.475 . S
C586 C403 1.528 . S
C603 C18 1.513 . S
C622 C428 1.551 . S
C658 C439 1.561 . S
C639 C31 1.511 . S
C675 C34 1.511 . S
C694 C464 1.569 . S
C711 C5 1.518 . S
C730 C482 1.530 . S
C747 C21 1.503 . S
C766 C493 1.560 . S
C783 C47 1.463 . S
C802 C475 1.529 . S
C838 C500 1.533 . S
C819 C57 1.503 . S
C874 C457 1.513 1_565 S
C855 C70 1.523 . S
C891 C73 1.477 . S
C910 C446 1.534 1_545 S
C946 C410 1.543 . S
C927 C44 1.520 . S
C963 C60 1.483 . S
C982 C421 1.516 . S
C999 C86 1.546 . S
C1018 C511 1.572 . S
C1035 C96 1.540 . S
C1054 C536 1.576 . S
C1090 C547 1.609 . S
C1071 C109 1.596 . S
C1107 C112 1.580 . S
C1126 C248 1.635 . S
C1143 C83 1.591 . S
C1162 C266 1.618 . S
C1179 C99 1.538 . S
C1198 C277 1.551 . S
C1215 C125 1.497 . S
C1234 C259 1.555 . S
C1251 C135 1.520 . S
C1270 C284 1.549 . S
C1306 C241 1.567 . S
C1287 C148 1.560 . S
C1342 C554 1.625 . S
C1323 C151 1.575 . S
C1378 C518 1.558 . S
C1359 C122 1.548 . S
C1414 C529 1.582 . S
C1395 C138 1.535 . S
C1431 C164 1.523 . S
C1450 C295 1.538 . S
C1467 C174 1.538 . S
C1486 C320 1.563 . S
C1503 C187 1.586 . S
C1522 C331 1.612 . S
C1539 C190 1.603 . S
C1558 C356 1.624 . S
C1594 C374 1.609 . S
C1575 C161 1.586 . S
C1630 C385 1.569 . S
C1611 C177 1.552 . S
C1666 C367 1.583 . S
C1647 C203 1.538 . S
C1702 C392 1.553 . S
C1683 C213 1.529 . S
C1719 C226 1.558 . S
C1738 C349 1.571 . S
C1774 C338 1.589 . S
C1755 C229 1.540 . S
C1791 C200 1.556 . S
C1810 C302 1.572 . S
C1846 C313 1.580 . S
C1827 C216 1.526 . S
C1882 C250 1.301 . S
C1863 C0 1.305 . S
C1899 C23 1.284 . S
C1918 C268 1.185 . S
C1954 C278 1.241 . S
C1935 C36 1.345 . S
C1990 C296 1.292 . S
C1971 C26 1.332 1_556 S
C2026 C322 1.205 . S
C2007 C10 1.303 1_556 S
C2062 C332 1.202 . S
C2043 C13 1.277 . S
C2079 C39 1.339 . S
C2098 C340 1.265 . S
C2115 C62 1.315 . S
C2134 C304 1.234 . S
C2151 C75 1.352 . S
C2170 C314 1.276 . S
C2187 C65 1.391 . S
C2206 C260 1.349 . S
C2242 C286 1.238 . S
C2223 C49 1.322 . S
C2259 C52 1.307 . S
C2278 C242 1.295 . S
C2314 C358 1.306 . S
C2295 C78 1.300 . S
C2331 C101 1.364 . S
C2350 C376 1.326 . S
C2367 C114 1.392 . S
C2386 C386 1.340 . S
C2422 C404 1.264 . S
C2403 C104 1.269 . S
C2439 C88 1.303 . S
C2458 C430 1.195 . S
C2475 C91 1.207 . S
C2494 C440 1.122 . S
C2511 C117 1.250 . S
C2530 C448 1.234 . S
C2547 C140 1.259 . S
C2566 C412 1.128 . S
C2602 C422 1.279 . S
C2583 C153 1.363 . S
C2619 C143 1.353 . S
C2638 C368 1.320 . S
C2655 C127 1.400 . S
C2674 C394 1.319 . S
C2710 C350 1.346 . S
C2691 C130 1.364 . S
C2746 C466 1.247 . S
C2727 C156 1.246 . S
C2763 C179 1.242 . S
C2782 C484 1.200 . S
C2799 C192 1.333 . S
C2818 C494 1.236 . S
C2854 C512 1.300 . S
C2835 C182 1.303 . S
C2890 C538 1.294 . S
C2871 C166 1.377 . S
C2907 C169 1.329 . S
C2926 C548 1.319 . S
C2943 C195 1.339 . S
C2962 C556 1.253 . S
C2979 C218 1.387 . S
C2998 C520 1.295 . S
C3034 C530 1.308 . S
C3015 C231 1.395 . S
C3070 C476 1.233 1_655 S
C3051 C221 1.266 . S
C3106 C502 1.208 . S
C3087 C205 1.335 . S
C3123 C208 1.230 . S
C3142 C458 1.233 . S
