# Generated by pormake.
# Topology ssb, (4,4)-cn, num edge types: 1
# Building blocks:
#     Node 0, Type 0, BuildingBlock: KUFVIS_clean_linker_0, # of connection points: 4
#     Node 1, Type 0, BuildingBlock: KUFVIS_clean_linker_0, # of connection points: 4
#     Node 2, Type 0, BuildingBlock: KUFVIS_clean_linker_0, # of connection points: 4
#     Node 3, Type 0, BuildingBlock: KUFVIS_clean_linker_0, # of connection points: 4
#     Node 4, Type 0, BuildingBlock: KUFVIS_clean_linker_0, # of connection points: 4
#     Node 5, Type 0, BuildingBlock: KUFVIS_clean_linker_0, # of connection points: 4
#     Node 6, Type 0, BuildingBlock: KUFVIS_clean_linker_0, # of connection points: 4
#     Node 7, Type 0, BuildingBlock: KUFVIS_clean_linker_0, # of connection points: 4
#     Node 8, Type 1, BuildingBlock: NAWXER_clean_sbu_0, # of connection points: 4
#     Node 9, Type 1, BuildingBlock: NAWXER_clean_sbu_0, # of connection points: 4
#     Node 10, Type 1, BuildingBlock: NAWXER_clean_sbu_0, # of connection points: 4
#     Node 11, Type 1, BuildingBlock: NAWXER_clean_sbu_0, # of connection points: 4
#     Node 12, Type 1, BuildingBlock: NAWXER_clean_sbu_0, # of connection points: 4
#     Node 13, Type 1, BuildingBlock: NAWXER_clean_sbu_0, # of connection points: 4
#     Node 14, Type 1, BuildingBlock: NAWXER_clean_sbu_0, # of connection points: 4
#     Node 15, Type 1, BuildingBlock: NAWXER_clean_sbu_0, # of connection points: 4
#     Edge 16, Type (0, 1), BuildingBlock: CIFDUS_clean_linker_0, # of connection points: 2
#     Edge 17, Type (0, 1), BuildingBlock: CIFDUS_clean_linker_0, # of connection points: 2
#     Edge 18, Type (0, 1), BuildingBlock: CIFDUS_clean_linker_0, # of connection points: 2
#     Edge 19, Type (0, 1), BuildingBlock: CIFDUS_clean_linker_0, # of connection points: 2
#     Edge 20, Type (0, 1), BuildingBlock: CIFDUS_clean_linker_0, # of connection points: 2
#     Edge 21, Type (0, 1), BuildingBlock: CIFDUS_clean_linker_0, # of connection points: 2
#     Edge 22, Type (0, 1), BuildingBlock: CIFDUS_clean_linker_0, # of connection points: 2
#     Edge 23, Type (0, 1), BuildingBlock: CIFDUS_clean_linker_0, # of connection points: 2
#     Edge 24, Type (0, 1), BuildingBlock: CIFDUS_clean_linker_0, # of connection points: 2
#     Edge 25, Type (0, 1), BuildingBlock: CIFDUS_clean_linker_0, # of connection points: 2
#     Edge 26, Type (0, 1), BuildingBlock: CIFDUS_clean_linker_0, # of connection points: 2
#     Edge 27, Type (0, 1), BuildingBlock: CIFDUS_clean_linker_0, # of connection points: 2
#     Edge 28, Type (0, 1), BuildingBlock: CIFDUS_clean_linker_0, # of connection points: 2
#     Edge 29, Type (0, 1), BuildingBlock: CIFDUS_clean_linker_0, # of connection points: 2
#     Edge 30, Type (0, 1), BuildingBlock: CIFDUS_clean_linker_0, # of connection points: 2
#     Edge 31, Type (0, 1), BuildingBlock: CIFDUS_clean_linker_0, # of connection points: 2
#     Edge 32, Type (0, 1), BuildingBlock: CIFDUS_clean_linker_0, # of connection points: 2
#     Edge 33, Type (0, 1), BuildingBlock: CIFDUS_clean_linker_0, # of connection points: 2
#     Edge 34, Type (0, 1), BuildingBlock: CIFDUS_clean_linker_0, # of connection points: 2
#     Edge 35, Type (0, 1), BuildingBlock: CIFDUS_clean_linker_0, # of connection points: 2
#     Edge 36, Type (0, 1), BuildingBlock: CIFDUS_clean_linker_0, # of connection points: 2
#     Edge 37, Type (0, 1), BuildingBlock: CIFDUS_clean_linker_0, # of connection points: 2
#     Edge 38, Type (0, 1), BuildingBlock: CIFDUS_clean_linker_0, # of connection points: 2
#     Edge 39, Type (0, 1), BuildingBlock: CIFDUS_clean_linker_0, # of connection points: 2
#     Edge 40, Type (0, 1), BuildingBlock: CIFDUS_clean_linker_0, # of connection points: 2
#     Edge 41, Type (0, 1), BuildingBlock: CIFDUS_clean_linker_0, # of connection points: 2
#     Edge 42, Type (0, 1), BuildingBlock: CIFDUS_clean_linker_0, # of connection points: 2
#     Edge 43, Type (0, 1), BuildingBlock: CIFDUS_clean_linker_0, # of connection points: 2
#     Edge 44, Type (0, 1), BuildingBlock: CIFDUS_clean_linker_0, # of connection points: 2
#     Edge 45, Type (0, 1), BuildingBlock: CIFDUS_clean_linker_0, # of connection points: 2
#     Edge 46, Type (0, 1), BuildingBlock: CIFDUS_clean_linker_0, # of connection points: 2
#     Edge 47, Type (0, 1), BuildingBlock: CIFDUS_clean_linker_0, # of connection points: 2
# Relax obj value: 0.000
# Max RMSD: 0.051
# Mean RMSD: 0.025
data_MOF--net-ssb--node1-NAWXER_clean_sbu_0--node2-KUFVIS_clean_linker_0--edge1-CIFDUS_clean_linker_0
_symmetry_space_group_name_H-M    P1
_symmetry_Int_Tables_number       1
_symmetry_cell_setting            triclinic
loop_
_symmetry_equiv_pos_as_xyz
'x, y, z'
_cell_length_a     40.814274
_cell_length_b     40.828513
_cell_length_c     33.002855
_cell_angle_alpha  90.056079
_cell_angle_beta   90.081625
_cell_angle_gamma 89.830413
loop_
_atom_site_label
_atom_site_type_symbol
_atom_site_fract_x
_atom_site_fract_y
_atom_site_fract_z
_atom_type_partial_charge
H0 H 0.17033 0.17685 0.35727 0.0
H1 H 0.24956 0.18413 0.27369 0.0
H2 H 0.20173 0.27194 0.31823 0.0
H3 H 0.21586 0.28973 0.25305 0.0
H4 H 0.31145 0.30141 0.20061 0.0
H5 H 0.29228 0.21795 0.27439 0.0
C6 C 0.18585 0.19195 0.33832 0.0
C7 C 0.18294 0.22609 0.34031 0.0
C8 C 0.21063 0.177 0.31586 0.0
C9 C 0.23086 0.19629 0.29148 0.0
C10 C 0.22755 0.23078 0.29099 0.0
C11 C 0.20342 0.24553 0.31595 0.0
C12 C 0.25081 0.2511 0.26668 0.0
C13 C 0.24077 0.28112 0.24913 0.0
C14 C 0.26281 0.29995 0.22607 0.0
C15 C 0.2947 0.2881 0.21999 0.0
C16 C 0.30511 0.25855 0.23699 0.0
C17 C 0.28338 0.2403 0.26054 0.0
H18 H 0.70347 0.32222 0.20558 0.0
H19 H 0.78871 0.31417 0.27969 0.0
H20 H 0.70814 0.24591 0.29435 0.0
H21 H 0.74559 0.21402 0.32167 0.0
H22 H 0.81651 0.22181 0.41733 0.0
H23 H 0.79755 0.30498 0.34323 0.0
C24 C 0.71646 0.30985 0.22988 0.0
C25 C 0.7027 0.28213 0.24794 0.0
C26 C 0.74689 0.32187 0.24217 0.0
C27 C 0.76464 0.30508 0.27203 0.0
C28 C 0.75107 0.27761 0.2922 0.0
C29 C 0.71985 0.26631 0.27941 0.0
C30 C 0.76898 0.26171 0.32711 0.0
C31 C 0.76284 0.22877 0.33852 0.0
C32 C 0.77946 0.21422 0.37147 0.0
C33 C 0.80342 0.23241 0.39189 0.0
C34 C 0.81035 0.26462 0.38081 0.0
C35 C 0.79253 0.27953 0.34963 0.0
H36 H 0.78638 0.81979 0.38197 0.0
H37 H 0.78734 0.73651 0.3027 0.0
H38 H 0.69982 0.79607 0.31778 0.0
H39 H 0.68607 0.78332 0.25932 0.0
H40 H 0.67006 0.69505 0.19508 0.0
H41 H 0.75901 0.70589 0.26312 0.0
C42 C 0.77406 0.80398 0.3604 0.0
C43 C 0.74182 0.81109 0.3498 0.0
C44 C 0.78983 0.77584 0.34567 0.0
C45 C 0.77426 0.75718 0.31514 0.0
C46 C 0.74181 0.7649 0.3023 0.0
C47 C 0.72544 0.79083 0.3226 0.0
C48 C 0.72405 0.7461 0.26934 0.0
C49 C 0.6946 0.75887 0.2527 0.0
C50 C 0.67487 0.74006 0.22734 0.0
C51 C 0.6858 0.70942 0.21467 0.0
C52 C 0.71719 0.698 0.22487 0.0
C53 C 0.73565 0.71571 0.25377 0.0
H54 H 0.22229 0.79268 0.40639 0.0
H55 H 0.28305 0.78796 0.30138 0.0
H56 H 0.21604 0.70876 0.3294 0.0
H57 H 0.21844 0.69609 0.26748 0.0
H58 H 0.28646 0.68205 0.17147 0.0
H59 H 0.30832 0.75271 0.26367 0.0
C60 C 0.2307 0.77919 0.38003 0.0
C61 C 0.21555 0.74966 0.36941 0.0
C62 C 0.25568 0.79231 0.35616 0.0
C63 C 0.2654 0.77595 0.32064 0.0
C64 C 0.25166 0.74523 0.30986 0.0
C65 C 0.22719 0.73214 0.33568 0.0
C66 C 0.26164 0.72763 0.27128 0.0
C67 C 0.24159 0.70285 0.25418 0.0
C68 C 0.25095 0.68615 0.21894 0.0
C69 C 0.2798 0.69484 0.19909 0.0
C70 C 0.30037 0.71917 0.21482 0.0
C71 C 0.29139 0.73514 0.25108 0.0
H72 H 0.30558 0.71394 0.88887 0.0
H73 H 0.22079 0.70787 0.81233 0.0
H74 H 0.27639 0.79794 0.8213 0.0
H75 H 0.25858 0.80507 0.7592 0.0
H76 H 0.16177 0.81812 0.71209 0.0
H77 H 0.18016 0.73997 0.79485 0.0
C78 C 0.28901 0.72484 0.86697 0.0
C79 C 0.29467 0.757 0.85453 0.0
C80 C 0.26191 0.7072 0.85281 0.0
C81 C 0.2406 0.72223 0.82476 0.0
C82 C 0.24522 0.75516 0.81251 0.0
C83 C 0.27227 0.77248 0.8287 0.0
C84 C 0.22216 0.77159 0.78318 0.0
C85 C 0.23304 0.79814 0.75913 0.0
C86 C 0.21144 0.81518 0.73346 0.0
C87 C 0.17877 0.80505 0.73143 0.0
C88 C 0.16797 0.77701 0.75159 0.0
C89 C 0.18941 0.76077 0.77822 0.0
H90 H 0.29767 0.29604 0.90445 0.0
H91 H 0.31293 0.22727 0.8074 0.0
H92 H 0.22235 0.2826 0.81648 0.0
H93 H 0.22754 0.28363 0.75008 0.0
H94 H 0.21851 0.20482 0.66549 0.0
H95 H 0.27913 0.19225 0.77074 0.0
C96 C 0.28899 0.28371 0.87737 0.0
C97 C 0.25828 0.29204 0.86187 0.0
C98 C 0.30859 0.25992 0.85848 0.0
C99 C 0.29715 0.24461 0.82281 0.0
C100 C 0.26621 0.25305 0.80622 0.0
C101 C 0.24657 0.27612 0.82727 0.0
C102 C 0.2547 0.2396 0.76619 0.0
C103 C 0.23368 0.25875 0.7416 0.0
C104 C 0.22022 0.24635 0.70571 0.0
C105 C 0.22924 0.21489 0.69288 0.0
C106 C 0.25091 0.19557 0.71567 0.0
C107 C 0.26356 0.20786 0.75244 0.0
H108 H 0.68338 0.29088 0.9023 0.0
H109 H 0.75355 0.29981 0.80635 0.0
H110 H 0.70462 0.20746 0.8288 0.0
H111 H 0.71038 0.20116 0.76355 0.0
H112 H 0.79753 0.1884 0.69427 0.0
H113 H 0.7927 0.26655 0.78124 0.0
C114 C 0.69681 0.27996 0.87733 0.0
C115 C 0.69108 0.2473 0.86698 0.0
C116 C 0.71956 0.29875 0.85591 0.0
C117 C 0.7367 0.28468 0.82328 0.0
C118 C 0.73125 0.25167 0.81215 0.0
C119 C 0.70855 0.23318 0.83497 0.0
C120 C 0.7491 0.23609 0.77736 0.0
C121 C 0.73496 0.20929 0.7567 0.0
C122 C 0.75288 0.19155 0.72813 0.0
C123 C 0.78419 0.20198 0.71722 0.0
C124 C 0.79835 0.22959 0.73539 0.0
C125 C 0.78088 0.24638 0.76581 0.0
H126 H 0.71983 0.67948 0.88365 0.0
H127 H 0.79696 0.69364 0.79877 0.0
H128 H 0.71369 0.75946 0.79887 0.0
H129 H 0.75207 0.79324 0.76814 0.0
H130 H 0.80593 0.78258 0.65736 0.0
H131 H 0.78986 0.69836 0.73162 0.0
C132 C 0.73038 0.69427 0.85977 0.0
C133 C 0.71369 0.72208 0.84523 0.0
C134 C 0.76024 0.6843 0.84319 0.0
C135 C 0.77365 0.70172 0.81088 0.0
C136 C 0.75663 0.7284 0.79342 0.0
C137 C 0.72686 0.73881 0.81146 0.0
C138 C 0.76942 0.74383 0.75531 0.0
C139 C 0.76484 0.77756 0.74688 0.0
C140 C 0.77793 0.79141 0.71138 0.0
C141 C 0.79536 0.77162 0.68427 0.0
C142 C 0.79996 0.73821 0.69169 0.0
C143 C 0.78678 0.72442 0.72691 0.0
C144 C 0.96828 0.24738 0.62041 0.0
C145 C 0.05375 0.24885 0.51755 0.0
O146 O 0.97432 0.27673 0.6087 0.0
Zn147 Zn 0.00753 0.29996 0.56658 0.0
O148 O 0.98472 0.22385 0.60557 0.0
Zn149 Zn 0.01163 0.24811 0.5689 0.0
O150 O 0.0453 0.27318 0.60608 0.0
O151 O 0.03678 0.32642 0.60086 0.0
O152 O 0.04182 0.22436 0.53614 0.0
O153 O 0.0431 0.27784 0.5252 0.0
O154 O 0.97684 0.32058 0.52866 0.0
O155 O 0.97866 0.26655 0.52439 0.0
C156 C 0.05289 0.3025 0.61558 0.0
C157 C 0.9675 0.2941 0.51193 0.0
C158 C 0.7009 0.04473 0.59107 0.0
C159 C 0.70964 0.96829 0.47795 0.0
O160 O 0.7299 0.03409 0.58426 0.0
Zn161 Zn 0.75527 0.00246 0.54451 0.0
O162 O 0.67711 0.03486 0.56933 0.0
Zn163 Zn 0.70321 0.00551 0.53518 0.0
O164 O 0.71891 0.96751 0.57633 0.0
O165 O 0.77278 0.96941 0.58082 0.0
O166 O 0.68299 0.97999 0.49181 0.0
O167 O 0.73693 0.97497 0.49513 0.0
O168 O 0.7842 0.03258 0.5169 0.0
O169 O 0.73212 0.04051 0.50167 0.0
C170 C 0.74581 0.9563 0.5911 0.0
C171 C 0.76235 0.04832 0.49733 0.0
C172 C 0.95358 0.69331 0.57312 0.0
C173 C 0.04539 0.72756 0.48701 0.0
O174 O 0.95703 0.72427 0.56955 0.0
Zn175 Zn 0.98822 0.75871 0.54083 0.0
O176 O 0.97349 0.67378 0.55571 0.0
Zn177 Zn -0.00064 0.70865 0.53003 0.0
O178 O 0.02251 0.72993 0.58316 0.0
O179 O 0.00608 0.78136 0.58656 0.0
O180 O 0.03675 0.69833 0.49475 0.0
O181 O 0.02902 0.75136 0.50223 0.0
O182 O 0.95717 0.78156 0.50827 0.0
O183 O 0.962 0.72967 0.49014 0.0
C184 C 0.02253 0.75777 0.60134 0.0
C185 C 0.94816 0.75779 0.48611 0.0
C186 C 0.29236 0.04101 0.5788 0.0
C187 C 0.30098 0.94994 0.48041 0.0
O188 O 0.31855 0.02674 0.56739 0.0
Zn189 Zn 0.29864 0.99581 0.52907 0.0
O190 O 0.26493 0.03241 0.56314 0.0
Zn191 Zn 0.24718 0.99814 0.51909 0.0
O192 O 0.21773 0.97147 0.54951 0.0
O193 O 0.26948 0.96496 0.56775 0.0
O194 O 0.27211 0.96164 0.48483 0.0
O195 O 0.3246 0.96203 0.50073 0.0
O196 O 0.28322 0.02739 0.48007 0.0
O197 O 0.22924 0.0248 0.47693 0.0
C198 C 0.23911 0.95768 0.57175 0.0
C199 C 0.25609 0.03584 0.46326 0.0
C200 C 0.45695 0.73253 0.06986 0.0
C201 C 0.55187 0.74024 0.98014 0.0
O202 O 0.46359 0.76236 0.06065 0.0
Zn203 Zn 0.49871 0.78798 1.02256 0.0
O204 O 0.47381 0.70954 0.05428 0.0
Zn205 Zn 0.50334 0.73609 1.02323 0.0
O206 O 0.52897 0.7613 0.06962 0.0
O207 O 0.52233 0.81471 0.06227 0.0
O208 O 0.53861 0.71488 0.99503 0.0
O209 O 0.53947 0.7686 0.98732 0.0
O210 O 0.4701 0.80866 0.98261 0.0
O211 O 0.47286 0.75486 0.97651 0.0
C212 C 0.53458 0.79059 0.08149 0.0
C213 C 0.46178 0.78253 0.96436 0.0
C214 C 0.20145 0.54168 0.07962 0.0
C215 C 0.21756 0.4555 0.97758 0.0
O216 O 0.23141 0.53403 0.07323 0.0
Zn217 Zn 0.2594 0.50178 1.03652 0.0
O218 O 0.17873 0.52717 0.06025 0.0
Zn219 Zn 0.20744 0.49787 1.02906 0.0
O220 O 0.22821 0.4663 0.07475 0.0
O221 O 0.28149 0.47528 0.07621 0.0
O222 O 0.18995 0.46566 0.99042 0.0
O223 O 0.24403 0.46724 0.99241 0.0
O224 O 0.28431 0.53185 1.00393 0.0
O225 O 0.23136 0.53296 0.99017 0.0
C226 C 0.25662 0.46011 0.08964 0.0
C227 C 0.26047 0.54357 0.98369 0.0
C228 C 0.55087 0.20509 1.01781 0.0
C229 C 0.45883 0.20755 0.1117 0.0
O230 O 0.5412 0.23408 1.02653 0.0
Zn231 Zn 0.50321 0.25699 0.06046 0.0
O232 O 0.53548 0.18037 1.03122 0.0
Zn233 Zn 0.50329 0.20524 0.06229 0.0
O234 O 0.47175 0.22603 1.01583 0.0
O235 O 0.47732 0.27947 1.02068 0.0
O236 O 0.47198 0.18209 0.09651 0.0
O237 O 0.46835 0.23596 0.10042 0.0
O238 O 0.52803 0.28302 0.09733 0.0
O239 O 0.53488 0.22988 0.10678 0.0
C240 C 0.46431 0.25494 1.00346 0.0
C241 C 0.54167 0.25964 0.11645 0.0
C242 C 0.75406 0.54587 0.07922 0.0
C243 C 0.7664 0.45595 0.98354 0.0
O244 O 0.78422 0.53733 0.07566 0.0
Zn245 Zn 0.81176 0.50179 0.04044 0.0
O246 O 0.73211 0.53089 0.05923 0.0
Zn247 Zn 0.76004 0.50044 1.03207 0.0
O248 O 0.77809 0.47041 0.07978 0.0
O249 O 0.83204 0.47407 0.08196 0.0
O250 O 0.7403 0.46983 0.99566 0.0
O251 O 0.79418 0.46537 0.99769 0.0
O252 O 0.83815 0.53113 1.00631 0.0
O253 O 0.78535 0.53165 0.99185 0.0
C254 C 0.80552 0.46216 0.09573 0.0
C255 C 0.81443 0.54165 0.98483 0.0
H256 H 0.17763 0.20704 0.41798 0.0
H257 H 0.13818 0.27666 0.33263 0.0
H258 H 0.09562 0.29219 0.38185 0.0
H259 H 0.06643 0.2813 0.44685 0.0
H260 H 0.10344 0.20597 0.52648 0.0
H261 H 0.14971 0.19657 0.4813 0.0
C262 C 0.15965 0.22557 0.40995 0.0
C263 C 0.16056 0.24014 0.37137 0.0
C264 C 0.13449 0.23284 0.43719 0.0
C265 C 0.13788 0.26498 0.36207 0.0
C266 C 0.11339 0.27356 0.39004 0.0
C267 C 0.08477 0.26295 0.45417 0.0
C268 C 0.0815 0.24408 0.48966 0.0
C269 C 0.11089 0.25691 0.42726 0.0
C270 C 0.10526 0.22037 0.49901 0.0
C271 C 0.13179 0.21514 0.47336 0.0
H272 H 0.82146 0.16676 0.39874 0.0
H273 H 0.71872 0.18639 0.37878 0.0
H274 H 0.70457 0.13552 0.41345 0.0
H275 H 0.72106 0.08841 0.45522 0.0
H276 H 0.82371 0.07077 0.47877 0.0
H277 H 0.83809 0.11834 0.4377 0.0
C278 C 0.79593 0.15997 0.40193 0.0
C279 C 0.77119 0.18075 0.38652 0.0
C280 C 0.78791 0.13128 0.42316 0.0
C281 C 0.73832 0.17092 0.39 0.0
C282 C 0.73018 0.14197 0.41028 0.0
C283 C 0.74663 0.09479 0.45121 0.0
C284 C 0.77125 0.0761 0.47045 0.0
C285 C 0.75473 0.12243 0.4279 0.0
C286 C 0.80422 0.08476 0.46464 0.0
C287 C 0.81247 0.11197 0.44108 0.0
H288 H 0.80427 0.77797 0.42522 0.0
H289 H 0.84638 0.75072 0.31022 0.0
H290 H 0.89934 0.74047 0.3437 0.0
H291 H 0.93466 0.74333 0.40604 0.0
H292 H 0.89145 0.77754 0.51761 0.0
H293 H 0.83814 0.78192 0.48493 0.0
C294 C 0.82507 0.77022 0.40712 0.0
C295 C 0.82144 0.7659 0.36504 0.0
C296 C 0.85543 0.76606 0.42604 0.0
C297 C 0.84842 0.75439 0.34262 0.0
C298 C 0.87878 0.74882 0.36174 0.0
C299 C 0.91348 0.75183 0.42286 0.0
C300 C 0.9169 0.76056 0.46398 0.0
C301 C 0.88278 0.75527 0.4034 0.0
C302 C 0.88941 0.77132 0.48576 0.0
C303 C 0.85891 0.77361 0.4672 0.0
H304 H 0.3036 0.80692 0.41062 0.0
H305 H 0.23489 0.85058 0.32739 0.0
H306 H 0.24641 0.90488 0.35543 0.0
H307 H 0.27014 0.93839 0.40972 0.0
H308 H 0.33923 0.89564 0.49326 0.0
H309 H 0.33423 0.84264 0.4586 0.0
C310 C 0.292 0.82855 0.39797 0.0
C311 C 0.26858 0.82503 0.36692 0.0
C312 C 0.29864 0.85969 0.41453 0.0
C313 C 0.25323 0.85295 0.35097 0.0
C314 C 0.25966 0.88389 0.3672 0.0
C315 C 0.28474 0.91764 0.41967 0.0
C316 C 0.30486 0.92078 0.45411 0.0
C317 C 0.28146 0.88737 0.39984 0.0
C318 C 0.32377 0.89384 0.46665 0.0
C319 C 0.32062 0.86348 0.44708 0.0
H320 H 0.10946 0.8084 0.74522 0.0
H321 H 0.15565 0.71455 0.72674 0.0
H322 H 0.11123 0.69825 0.68125 0.0
H323 H 0.06583 0.71516 0.6364 0.0
H324 H 0.02328 0.81147 0.65055 0.0
H325 H 0.05994 0.82254 0.70722 0.0
C326 C 0.10923 0.784 0.73214 0.0
C327 C 0.13606 0.76294 0.73876 0.0
C328 C 0.08485 0.77571 0.70399 0.0
C329 C 0.13528 0.73122 0.72221 0.0
C330 C 0.11018 0.72214 0.69555 0.0
C331 C 0.06426 0.7384 0.65223 0.0
C332 C 0.04228 0.7627 0.63861 0.0
C333 C 0.08592 0.74492 0.68443 0.0
C334 C 0.04034 0.79253 0.65983 0.0
C335 C 0.06122 0.79886 0.69241 0.0
H336 H 0.30746 0.17041 0.68349 0.0
H337 H 0.20782 0.14578 0.71333 0.0
H338 H 0.21266 0.09441 0.67577 0.0
H339 H 0.24291 0.05964 0.62827 0.0
H340 H 0.3427 0.08311 0.59747 0.0
H341 H 0.34035 0.13149 0.64159 0.0
C342 C 0.28726 0.15324 0.68267 0.0
C343 C 0.25737 0.16167 0.70133 0.0
C344 C 0.29006 0.12385 0.66022 0.0
C345 C 0.23109 0.13959 0.69949 0.0
C346 C 0.23378 0.11038 0.67772 0.0
C347 C 0.26429 0.07515 0.63149 0.0
C348 C 0.29279 0.068 0.60914 0.0
C349 C 0.26275 0.10276 0.65692 0.0
C350 C 0.32043 0.08808 0.61421 0.0
C351 C 0.31904 0.11583 0.63937 0.0
H352 H 0.85199 0.19132 0.72421 0.0
H353 H 0.81883 0.29142 0.71583 0.0
H354 H 0.87022 0.30671 0.68251 0.0
H355 H 0.92188 0.29008 0.64906 0.0
H356 H 0.95309 0.18904 0.65556 0.0
H357 H 0.90511 0.17568 0.69597 0.0
C358 C 0.85612 0.21656 0.71536 0.0
C359 C 0.83147 0.24012 0.72196 0.0
C360 C 0.88523 0.22491 0.6954 0.0
C361 C 0.83745 0.27284 0.71115 0.0
C362 C 0.8667 0.2815 0.69177 0.0
C363 C 0.91841 0.26524 0.65976 0.0
C364 C 0.94098 0.24055 0.64884 0.0
C365 C 0.89038 0.25753 0.68269 0.0
C366 C 0.93606 0.2085 0.66311 0.0
C367 C 0.90859 0.20079 0.68628 0.0
H368 H 0.72351 0.82345 0.68549 0.0
H369 H 0.82591 0.83693 0.71181 0.0
H370 H 0.82479 0.89064 0.67893 0.0
H371 H 0.79618 0.93077 0.63587 0.0
H372 H 0.69383 0.91667 0.60806 0.0
H373 H 0.69337 0.86652 0.64817 0.0
C374 C 0.7452 0.83873 0.68511 0.0
C375 C 0.77464 0.82661 0.70141 0.0
C376 C 0.74456 0.86918 0.66506 0.0
C377 C 0.8029 0.84612 0.69992 0.0
C378 C 0.80233 0.87662 0.68073 0.0
C379 C 0.7737 0.9169 0.63886 0.0
C380 C 0.74522 0.92737 0.61848 0.0
C381 C 0.77357 0.88794 0.66202 0.0
C382 C 0.71621 0.90919 0.62315 0.0
C383 C 0.71588 0.88043 0.64613 0.0
H384 H 0.85247 0.69962 0.70979 0.0
H385 H 0.79365 0.73413 0.60986 0.0
H386 H 0.83457 0.71424 0.56183 0.0
H387 H 0.89147 0.69817 0.5497 0.0
H388 H 0.95251 0.66779 0.64923 0.0
H389 H 0.90617 0.67363 0.69596 0.0
C390 C 0.84818 0.7017 0.67745 0.0
C391 C 0.8204 0.71874 0.6633 0.0
C392 C 0.87234 0.69099 0.65001 0.0
C393 C 0.81511 0.7215 0.62137 0.0
C394 C 0.8385 0.71016 0.59393 0.0
C395 C 0.89403 0.6912 0.5813 0.0
C396 C 0.925 0.68216 0.59612 0.0
C397 C 0.86785 0.69636 0.60802 0.0
C398 C 0.9286 0.67407 0.63717 0.0
C399 C 0.90226 0.67803 0.66394 0.0
H400 H 0.19031 0.83022 0.65729 0.0
H401 H 0.25822 0.86229 0.74966 0.0
H402 H 0.27366 0.90883 0.70721 0.0
H403 H 0.26602 0.94163 0.64459 0.0
H404 H 0.19175 0.91288 0.55857 0.0
H405 H 0.17921 0.86463 0.59917 0.0
C406 C 0.20783 0.84773 0.66905 0.0
C407 C 0.22256 0.84279 0.70722 0.0
C408 C 0.21504 0.87538 0.64583 0.0
C409 C 0.24655 0.86512 0.72039 0.0
C410 C 0.25513 0.89201 0.69632 0.0
C411 C 0.24691 0.92487 0.6351 0.0
C412 C 0.22973 0.9307 0.5988 0.0
C413 C 0.23922 0.89758 0.65918 0.0
C414 C 0.20498 0.90903 0.58666 0.0
C415 C 0.19802 0.88133 0.60965 0.0
H416 H 0.16709 0.27853 0.73632 0.0
H417 H 0.21598 0.25549 0.62396 0.0
H418 H 0.16971 0.27767 0.58575 0.0
H419 H 0.11241 0.29562 0.58445 0.0
H420 H 0.0617 0.31541 0.69607 0.0
H421 H 0.11191 0.30362 0.73462 0.0
C422 C 0.16797 0.2792 0.70349 0.0
C423 C 0.19478 0.265 0.68298 0.0
C424 C 0.14095 0.29149 0.68168 0.0
C425 C 0.19542 0.26576 0.64042 0.0
C426 C 0.16902 0.27853 0.61857 0.0
C427 C 0.11287 0.29865 0.61714 0.0
C428 C 0.08384 0.30696 0.63755 0.0
C429 C 0.14125 0.29039 0.63887 0.0
C430 C 0.0841 0.30984 0.67987 0.0
C431 C 0.11265 0.3026 0.70182 0.0
H432 H 0.69995 0.18021 0.6793 0.0
H433 H 0.77924 0.1325 0.7426 0.0
H434 H 0.76507 0.08027 0.71127 0.0
H435 H 0.73573 0.05042 0.65912 0.0
H436 H 0.65903 0.09764 0.59073 0.0
H437 H 0.66562 0.14755 0.63158 0.0
C438 C 0.71359 0.15814 0.68656 0.0
C439 C 0.7408 0.15995 0.71263 0.0
C440 C 0.70576 0.12827 0.66755 0.0
C441 C 0.75846 0.13147 0.72215 0.0
C442 C 0.75035 0.1017 0.70435 0.0
C443 C 0.71991 0.07141 0.65379 0.0
C444 C 0.69724 0.07065 0.62182 0.0
C445 C 0.72484 0.10011 0.67602 0.0
C446 C 0.67659 0.09771 0.61538 0.0
C447 C 0.68068 0.12635 0.63836 0.0
H448 H 0.87382 0.25016 0.37326 0.0
H449 H 0.80763 0.31555 0.43475 0.0
H450 H 0.85263 0.33505 0.47811 0.0
H451 H 0.90932 0.3271 0.50449 0.0
H452 H 0.9735 0.25886 0.44381 0.0
H453 H 0.93124 0.2473 0.39361 0.0
C454 C 0.86957 0.26926 0.39555 0.0
C455 C 0.83778 0.28146 0.40113 0.0
C456 C 0.89522 0.27963 0.42062 0.0
C457 C 0.83214 0.30606 0.43003 0.0
C458 C 0.85779 0.31697 0.4549 0.0
C459 C 0.91418 0.31049 0.47953 0.0
C460 C 0.94429 0.29371 0.47775 0.0
C461 C 0.88924 0.30311 0.45137 0.0
C462 C 0.95036 0.27188 0.44573 0.0
C463 C 0.92621 0.26516 0.41715 0.0
H464 H 0.76041 0.87392 0.34495 0.0
H465 H 0.6867 0.81143 0.39658 0.0
H466 H 0.66534 0.85744 0.43665 0.0
H467 H 0.67367 0.91332 0.46442 0.0
H468 H 0.74954 0.97406 0.41398 0.0
H469 H 0.76356 0.93137 0.36523 0.0
C470 C 0.73929 0.87067 0.36446 0.0
C471 C 0.72531 0.83956 0.36843 0.0
C472 C 0.72759 0.89696 0.38756 0.0
C473 C 0.69778 0.83536 0.39333 0.0
C474 C 0.68571 0.86158 0.41628 0.0
C475 C 0.6924 0.91747 0.44173 0.0
C476 C 0.71063 0.94656 0.44256 0.0
C477 C 0.70115 0.89224 0.41469 0.0
C478 C 0.73527 0.9517 0.41365 0.0
C479 C 0.74346 0.92726 0.38604 0.0
H480 H 0.16352 0.78721 0.38933 0.0
H481 H 0.19958 0.68812 0.39752 0.0
H482 H 0.14938 0.67169 0.43292 0.0
H483 H 0.0955 0.68631 0.46339 0.0
H484 H 0.0612 0.78626 0.45442 0.0
H485 H 0.11035 0.80139 0.41771 0.0
C486 C 0.16061 0.76206 0.39925 0.0
C487 C 0.18547 0.73905 0.3913 0.0
C488 C 0.13185 0.75289 0.4194 0.0
C489 C 0.18084 0.70635 0.40334 0.0
C490 C 0.15215 0.69698 0.42363 0.0
C491 C 0.09871 0.7113 0.45307 0.0
C492 C 0.07461 0.73508 0.46191 0.0
C493 C 0.12746 0.72011 0.432 0.0
C494 C 0.07929 0.76741 0.44839 0.0
C495 C 0.10747 0.77619 0.42734 0.0
H496 H 0.26827 0.15483 0.34448 0.0
H497 H 0.17081 0.12347 0.31291 0.0
H498 H 0.17782 0.07396 0.35373 0.0
H499 H 0.20776 0.04549 0.40793 0.0
H500 H 0.3046 0.07804 0.44136 0.0
H501 H 0.30183 0.12119 0.39026 0.0
C502 C 0.24916 0.13642 0.34513 0.0
C503 C 0.21904 0.14271 0.32597 0.0
C504 C 0.25288 0.10881 0.37004 0.0
C505 C 0.19422 0.11897 0.32743 0.0
C506 C 0.19807 0.09095 0.35122 0.0
C507 C 0.2284 0.0618 0.40369 0.0
C508 C 0.25601 0.0591 0.42899 0.0
C509 C 0.2266 0.0866 0.37435 0.0
C510 C 0.28289 0.07988 0.42257 0.0
C511 C 0.28134 0.10456 0.39334 0.0
H512 H 0.69729 0.71731 0.92514 0.0
H513 H 0.65819 0.7495 0.81014 0.0
H514 H 0.60533 0.76055 0.84223 0.0
H515 H 0.56865 0.75711 0.90255 0.0
H516 H 0.60706 0.71717 1.01378 0.0
H517 H 0.66133 0.71195 0.98326 0.0
C518 C 0.67721 0.7262 0.90661 0.0
C519 C 0.68201 0.73199 0.8649 0.0
C520 C 0.64643 0.73071 0.92465 0.0
C521 C 0.65569 0.74496 0.84229 0.0
C522 C 0.62519 0.75094 0.86056 0.0
C523 C 0.58903 0.74732 0.91987 0.0
C524 C 0.58408 0.73742 0.96025 0.0
C525 C 0.62007 0.74332 0.90159 0.0
C526 C 0.61042 0.72465 0.98256 0.0
C527 C 0.64142 0.7218 0.96518 0.0
H528 H 0.30638 0.65916 0.87092 0.0
H529 H 0.20268 0.68033 0.87318 0.0
H530 H 0.19288 0.62977 0.91063 0.0
H531 H 0.21433 0.58285 0.94912 0.0
H532 H 0.31856 0.56462 0.95201 0.0
H533 H 0.3276 0.61122 0.90706 0.0
C534 C 0.28159 0.65282 0.87963 0.0
C535 C 0.25538 0.67392 0.86961 0.0
C536 C 0.27628 0.62448 0.9027 0.0
C537 C 0.22335 0.6646 0.88011 0.0
C538 C 0.21774 0.63583 0.902 0.0
C539 C 0.23902 0.58884 0.9396 0.0
C540 C 0.26576 0.57035 0.95414 0.0
C541 C 0.24412 0.61609 0.91442 0.0
C542 C 0.29757 0.57856 0.94156 0.0
C543 C 0.30276 0.60518 0.91578 0.0
H544 H 0.35537 0.30288 0.88151 0.0
H545 H 0.33413 0.19963 0.8775 0.0
H546 H 0.38237 0.18832 0.91984 0.0
H547 H 0.42696 0.2088 0.96426 0.0
H548 H 0.44601 0.31276 0.96906 0.0
H549 H 0.40221 0.32272 0.92052 0.0
C550 C 0.36155 0.27784 0.88951 0.0
C551 C 0.34104 0.25215 0.8768 0.0
C552 C 0.38868 0.27171 0.91457 0.0
C553 C 0.3496 0.2198 0.88681 0.0
C554 C 0.37698 0.2134 0.91136 0.0
C555 C 0.42177 0.23359 0.95435 0.0
C556 C 0.43963 0.26 0.97082 0.0
C557 C 0.39615 0.23929 0.92645 0.0
C558 C 0.43258 0.29194 0.95736 0.0
C559 C 0.4075 0.29772 0.92949 0.0
H560 H 0.77681 0.3257 0.88099 0.0
H561 H 0.67452 0.34735 0.86219 0.0
H562 H 0.68063 0.39959 0.89759 0.0
H563 H 0.71345 0.43588 0.94035 0.0
H564 H 0.81556 0.41386 0.96138 0.0
H565 H 0.81123 0.36518 0.91858 0.0
C566 C 0.75617 0.34236 0.88378 0.0
C567 C 0.72528 0.33287 0.86916 0.0
C568 C 0.75969 0.37196 0.90518 0.0
C569 C 0.69851 0.3543 0.87331 0.0
C570 C 0.70195 0.38401 0.89374 0.0
C571 C 0.73486 0.42061 0.93534 0.0
C572 C 0.76464 0.42828 0.95453 0.0
C573 C 0.73215 0.39257 0.91095 0.0
C574 C 0.79224 0.40843 0.94721 0.0
C575 C 0.7898 0.38054 0.92274 0.0
H576 H 0.64819 0.31826 0.23354 0.0
H577 H 0.68536 0.21949 0.22705 0.0
H578 H 0.63663 0.20267 0.1888 0.0
H579 H 0.58692 0.21797 0.1499 0.0
H580 H 0.55241 0.31801 0.15385 0.0
H581 H 0.59672 0.33243 0.19997 0.0
C582 C 0.64544 0.29294 0.22413 0.0
C583 C 0.67053 0.27024 0.23263 0.0
C584 C 0.61805 0.28381 0.2011 0.0
C585 C 0.66636 0.23741 0.22098 0.0
C586 C 0.63866 0.22789 0.19873 0.0
C587 C 0.58883 0.2428 0.16135 0.0
C588 C 0.56651 0.26695 0.14803 0.0
C589 C 0.61487 0.25115 0.18746 0.0
C590 C 0.5694 0.29901 0.16317 0.0
C591 C 0.59473 0.3073 0.18963 0.0
H592 H 0.70629 0.68102 0.14662 0.0
H593 H 0.75829 0.64859 0.25344 0.0
H594 H 0.77618 0.5993 0.21701 0.0
H595 H 0.77433 0.56393 0.15514 0.0
H596 H 0.71464 0.5944 0.05392 0.0
H597 H 0.70118 0.64541 0.08862 0.0
C598 C 0.72082 0.66294 0.1627 0.0
C599 C 0.73019 0.66845 0.20326 0.0
C600 C 0.72929 0.63402 0.14258 0.0
C601 C 0.75062 0.64525 0.2223 0.0
C602 C 0.7606 0.61685 0.20158 0.0
C603 C 0.75829 0.5818 0.14099 0.0
C604 C 0.74535 0.57556 0.10216 0.0
C605 C 0.74968 0.61075 0.16183 0.0
C606 C 0.72453 0.59863 0.08396 0.0
C607 C 0.71701 0.62784 0.10366 0.0
H608 H 0.34438 0.67691 0.18132 0.0
H609 H 0.32559 0.77997 0.19876 0.0
H610 H 0.373 0.79334 0.15654 0.0
H611 H 0.41783 0.77561 0.11125 0.0
H612 H 0.4352 0.67224 0.09304 0.0
H613 H 0.39 0.65924 0.13839 0.0
C614 C 0.35058 0.70233 0.17584 0.0
C615 C 0.3312 0.7274 0.19288 0.0
C616 C 0.37745 0.7098 0.15101 0.0
C617 C 0.34014 0.76018 0.18624 0.0
C618 C 0.3671 0.76784 0.1618 0.0
C619 C 0.41178 0.75023 0.11724 0.0
C620 C 0.42985 0.72496 0.09839 0.0
C621 C 0.38562 0.74284 0.14346 0.0
C622 C 0.42173 0.69222 0.10685 0.0
C623 C 0.39586 0.68472 0.13287 0.0
H624 H 0.29861 0.35566 0.22007 0.0
H625 H 0.20523 0.31439 0.18646 0.0
H626 H 0.19374 0.36218 0.14398 0.0
H627 H 0.21306 0.41259 0.11054 0.0
H628 H 0.30882 0.45058 0.13991 0.0
H629 H 0.31687 0.40673 0.18916 0.0
C630 C 0.27568 0.35708 0.2035 0.0
C631 C 0.25304 0.33118 0.20603 0.0
C632 C 0.26994 0.3838 0.1778 0.0
C633 C 0.22306 0.33395 0.18528 0.0
C634 C 0.21665 0.36113 0.16059 0.0
C635 C 0.23556 0.41146 0.12801 0.0
C636 C 0.26042 0.43472 0.12133 0.0
C637 C 0.24034 0.38571 0.1557 0.0
C638 C 0.28945 0.43284 0.14415 0.0
C639 C 0.29403 0.40782 0.17241 0.0
H640 H 0.32271 0.20216 0.19885 0.0
H641 H 0.36193 0.28973 0.25325 0.0
H642 H 0.41549 0.27836 0.22344 0.0
H643 H 0.44796 0.24888 0.17325 0.0
H644 H 0.40925 0.16239 0.11585 0.0
H645 H 0.3588 0.16746 0.15591 0.0
C646 C 0.34336 0.21806 0.20512 0.0
C647 C 0.33858 0.24682 0.22789 0.0
C648 C 0.37388 0.21183 0.18683 0.0
C649 C 0.36523 0.26754 0.23565 0.0
C650 C 0.39572 0.26115 0.21844 0.0
C651 C 0.4287 0.23077 0.17011 0.0
C652 C 0.43191 0.20564 0.14132 0.0
C653 C 0.39985 0.23422 0.19258 0.0
C654 C 0.40717 0.18199 0.13786 0.0
C655 C 0.37829 0.18505 0.16053 0.0
H656 H 0.80478 0.33472 0.20294 0.0
H657 H 0.71422 0.3792 0.24213 0.0
H658 H 0.72681 0.42864 0.20404 0.0
H659 H 0.75963 0.45623 0.15303 0.0
H660 H 0.84999 0.41304 0.11159 0.0
H661 H 0.84193 0.36641 0.15757 0.0
C662 C 0.7883 0.35559 0.20373 0.0
C663 C 0.75839 0.35325 0.22475 0.0
C664 C 0.79552 0.38399 0.18112 0.0
C665 C 0.73714 0.38037 0.22566 0.0
C666 C 0.7443 0.40861 0.20389 0.0
C667 C 0.77787 0.43687 0.1546 0.0
C668 C 0.80512 0.43777 0.12875 0.0
C669 C 0.7728 0.41022 0.18047 0.0
C670 C 0.82882 0.41284 0.13135 0.0
C671 C 0.82404 0.38608 0.15737 0.0
H672 H 0.66241 0.79549 0.18407 0.0
H673 H 0.61601 0.71119 0.23736 0.0
H674 H 0.56492 0.72423 0.20229 0.0
H675 H 0.53713 0.75356 0.14795 0.0
H676 H 0.58364 0.83581 0.09039 0.0
H677 H 0.6307 0.83048 0.13643 0.0
C678 C 0.64076 0.78063 0.18873 0.0
C679 C 0.64283 0.75223 0.21273 0.0
C680 C 0.61169 0.78783 0.16753 0.0
C681 C 0.61486 0.73294 0.2186 0.0
C682 C 0.58574 0.74036 0.19857 0.0
C683 C 0.5572 0.77091 0.14633 0.0
C684 C 0.55729 0.79478 0.11577 0.0
C685 C 0.58438 0.76686 0.17168 0.0
C686 C 0.58311 0.81733 0.11391 0.0
C687 C 0.61015 0.81398 0.13986 0.0
H688 H 0.2108 0.68104 0.15329 0.0
H689 H 0.25277 0.62586 0.25175 0.0
H690 H 0.23546 0.57459 0.21992 0.0
H691 H 0.21719 0.54581 0.15844 0.0
H692 H 0.17439 0.60037 0.06009 0.0
H693 H 0.18226 0.6516 0.09769 0.0
C694 C 0.21508 0.65777 0.16824 0.0
C695 C 0.23299 0.65696 0.20465 0.0
C696 C 0.20506 0.62839 0.14964 0.0
C697 C 0.23879 0.62686 0.22383 0.0
C698 C 0.2291 0.5976 0.20551 0.0
C699 C 0.20834 0.56883 0.14611 0.0
C700 C 0.19506 0.5695 0.10685 0.0
C701 C 0.21339 0.59805 0.16767 0.0
C702 C 0.18414 0.59935 0.09063 0.0
C703 C 0.18909 0.62865 0.11188 0.0
H704 H 0.35638 0.73811 0.84012 0.0
H705 H 0.29977 0.81195 0.90175 0.0
H706 H 0.34923 0.83105 0.93707 0.0
H707 H 0.40665 0.82016 0.95824 0.0
H708 H 0.46128 0.74358 0.89843 0.0
H709 H 0.41491 0.73252 0.85389 0.0
C710 C 0.35516 0.75891 0.86058 0.0
C711 C 0.32474 0.77352 0.86876 0.0
C712 C 0.38334 0.76905 0.88124 0.0
C713 C 0.32311 0.80047 0.8951 0.0
C714 C 0.35131 0.81117 0.91543 0.0
C715 C 0.40864 0.80184 0.93454 0.0
C716 C 0.43716 0.78254 0.93166 0.0
C717 C 0.38133 0.79479 0.9099 0.0
C718 C 0.43943 0.75857 0.90125 0.0
C719 C 0.4129 0.75213 0.87594 0.0
H720 H 0.27202 0.35538 0.85142 0.0
H721 H 0.20582 0.29085 0.91347 0.0
H722 H 0.18301 0.33747 0.95154 0.0
H723 H 0.18731 0.39584 0.97295 0.0
H724 H 0.2563 0.4586 0.91219 0.0
H725 H 0.27215 0.41389 0.86721 0.0
C726 C 0.2521 0.35178 0.8727 0.0
C727 C 0.24048 0.32005 0.87984 0.0
C728 C 0.23972 0.37845 0.89472 0.0
C729 C 0.21489 0.31528 0.90753 0.0
C730 C 0.20203 0.34187 0.92935 0.0
C731 C 0.20504 0.39981 0.94902 0.0
C732 C 0.2206 0.43039 0.94566 0.0
C733 C 0.2149 0.3735 0.92401 0.0
C734 C 0.24403 0.43522 0.91516 0.0
C735 C 0.25324 0.40964 0.88961 0.0
H736 H 0.6877 0.23721 0.94767 0.0
H737 H 0.63767 0.2165 0.83559 0.0
H738 H 0.59039 0.19553 0.87315 0.0
H739 H 0.56028 0.19164 0.93816 0.0
H740 H 0.61044 0.21413 0.04961 0.0
H741 H 0.66091 0.22526 1.01239 0.0
C742 C 0.66666 0.22743 0.93161 0.0
C743 C 0.66579 0.22868 0.88915 0.0
C744 C 0.63962 0.21583 0.95337 0.0
C745 C 0.63871 0.21573 0.86838 0.0
C746 C 0.61166 0.20395 0.88984 0.0
C747 C 0.58269 0.19773 0.95416 0.0
C748 C 0.58208 0.20174 0.99637 0.0
C749 C 0.61137 0.20498 0.93236 0.0
C750 C 0.61079 0.21047 1.01707 0.0
C751 C 0.63947 0.21715 0.99579 0.0
H752 H 0.81125 0.67647 0.89582 0.0
H753 H 0.74117 0.62345 0.82358 0.0
H754 H 0.75683 0.57224 0.85674 0.0
H755 H 0.78371 0.54465 0.91331 0.0
H756 H 0.85237 0.59692 0.98835 0.0
H757 H 0.84494 0.64616 0.94656 0.0
C758 C 0.80022 0.65346 0.88675 0.0
C759 C 0.77512 0.65342 0.8575 0.0
C760 C 0.80897 0.62415 0.90661 0.0
C761 C 0.76058 0.62376 0.84601 0.0
C762 C 0.76944 0.5946 0.86505 0.0
C763 C 0.79778 0.56658 0.91974 0.0
C764 C 0.81837 0.56737 0.95386 0.0
C765 C 0.79265 0.59476 0.89639 0.0
C766 C 0.83658 0.59574 0.96198 0.0
C767 C 0.83198 0.62398 0.93841 0.0
loop_
_geom_bond_atom_site_label_1
_geom_bond_atom_site_label_2
_geom_bond_distance
_geom_bond_site_symmetry_2
_ccdc_geom_bond_type
H0 C6 0.930 . S
H1 C9 0.931 . S
H2 C11 0.931 . S
H3 C13 0.930 . S
H4 C15 0.930 . S
H5 C17 0.931 . S
C6 H0 0.930 . S
C6 C7 1.380 . S
C6 C8 1.394 . S
C7 C6 1.380 . S
C7 C11 1.382 . S
C8 C6 1.394 . S
C8 C9 1.400 . S
C9 H1 0.931 . S
C9 C8 1.400 . S
C9 C10 1.375 . S
C10 C9 1.375 . S
C10 C11 1.415 . S
C10 C12 1.501 . S
C11 H2 0.931 . S
C11 C7 1.382 . S
C11 C10 1.415 . S
C12 C10 1.501 . S
C12 C13 1.384 . S
C12 C17 1.408 . S
C13 H3 0.930 . S
C13 C12 1.384 . S
C13 C14 1.389 . S
C14 C13 1.389 . S
C14 C15 1.405 . S
C15 H4 0.930 . S
C15 C14 1.405 . S
C15 C16 1.364 . S
C16 C15 1.364 . S
C16 C17 1.400 . S
C17 H5 0.931 . S
C17 C12 1.408 . S
C17 C16 1.400 . S
H18 C24 0.930 . S
H19 C27 0.931 . S
H20 C29 0.931 . S
H21 C31 0.930 . S
H22 C33 0.930 . S
H23 C35 0.931 . S
C24 H18 0.930 . S
C24 C25 1.380 . S
C24 C26 1.394 . S
C25 C24 1.380 . S
C25 C29 1.382 . S
C26 C24 1.394 . S
C26 C27 1.400 . S
C27 H19 0.931 . S
C27 C26 1.400 . S
C27 C28 1.375 . S
C28 C27 1.375 . S
C28 C29 1.415 . S
C28 C30 1.501 . S
C29 H20 0.931 . S
C29 C25 1.382 . S
C29 C28 1.415 . S
C30 C28 1.501 . S
C30 C31 1.384 . S
C30 C35 1.408 . S
C31 H21 0.930 . S
C31 C30 1.384 . S
C31 C32 1.389 . S
C32 C31 1.389 . S
C32 C33 1.405 . S
C33 H22 0.930 . S
C33 C32 1.405 . S
C33 C34 1.364 . S
C34 C33 1.364 . S
C34 C35 1.400 . S
C35 H23 0.931 . S
C35 C30 1.408 . S
C35 C34 1.400 . S
H36 C42 0.930 . S
H37 C45 0.931 . S
H38 C47 0.931 . S
H39 C49 0.930 . S
H40 C51 0.930 . S
H41 C53 0.931 . S
C42 H36 0.930 . S
C42 C43 1.380 . S
C42 C44 1.394 . S
C43 C42 1.380 . S
C43 C47 1.382 . S
C44 C42 1.394 . S
C44 C45 1.400 . S
C45 H37 0.931 . S
C45 C44 1.400 . S
C45 C46 1.375 . S
C46 C45 1.375 . S
C46 C47 1.415 . S
C46 C48 1.501 . S
C47 H38 0.931 . S
C47 C43 1.382 . S
C47 C46 1.415 . S
C48 C46 1.501 . S
C48 C49 1.384 . S
C48 C53 1.408 . S
C49 H39 0.930 . S
C49 C48 1.384 . S
C49 C50 1.389 . S
C50 C49 1.389 . S
C50 C51 1.405 . S
C51 H40 0.930 . S
C51 C50 1.405 . S
C51 C52 1.364 . S
C52 C51 1.364 . S
C52 C53 1.400 . S
C53 H41 0.931 . S
C53 C48 1.408 . S
C53 C52 1.400 . S
H54 C60 0.930 . S
H55 C63 0.931 . S
H56 C65 0.931 . S
H57 C67 0.930 . S
H58 C69 0.930 . S
H59 C71 0.931 . S
C60 H54 0.930 . S
C60 C61 1.380 . S
C60 C62 1.394 . S
C61 C60 1.380 . S
C61 C65 1.382 . S
C62 C60 1.394 . S
C62 C63 1.400 . S
C63 H55 0.931 . S
C63 C62 1.400 . S
C63 C64 1.375 . S
C64 C63 1.375 . S
C64 C65 1.415 . S
C64 C66 1.501 . S
C65 H56 0.931 . S
C65 C61 1.382 . S
C65 C64 1.415 . S
C66 C64 1.501 . S
C66 C67 1.384 . S
C66 C71 1.408 . S
C67 H57 0.930 . S
C67 C66 1.384 . S
C67 C68 1.389 . S
C68 C67 1.389 . S
C68 C69 1.405 . S
C69 H58 0.930 . S
C69 C68 1.405 . S
C69 C70 1.364 . S
C70 C69 1.364 . S
C70 C71 1.400 . S
C71 H59 0.931 . S
C71 C66 1.408 . S
C71 C70 1.400 . S
H72 C78 0.930 . S
H73 C81 0.931 . S
H74 C83 0.931 . S
H75 C85 0.930 . S
H76 C87 0.930 . S
H77 C89 0.931 . S
C78 H72 0.930 . S
C78 C79 1.380 . S
C78 C80 1.394 . S
C79 C78 1.380 . S
C79 C83 1.382 . S
C80 C78 1.394 . S
C80 C81 1.400 . S
C81 H73 0.931 . S
C81 C80 1.400 . S
C81 C82 1.375 . S
C82 C81 1.375 . S
C82 C83 1.415 . S
C82 C84 1.501 . S
C83 H74 0.931 . S
C83 C79 1.382 . S
C83 C82 1.415 . S
C84 C82 1.501 . S
C84 C85 1.384 . S
C84 C89 1.408 . S
C85 H75 0.930 . S
C85 C84 1.384 . S
C85 C86 1.389 . S
C86 C85 1.389 . S
C86 C87 1.405 . S
C87 H76 0.930 . S
C87 C86 1.405 . S
C87 C88 1.364 . S
C88 C87 1.364 . S
C88 C89 1.400 . S
C89 H77 0.931 . S
C89 C84 1.408 . S
C89 C88 1.400 . S
H90 C96 0.930 . S
H91 C99 0.931 . S
H92 C101 0.931 . S
H93 C103 0.930 . S
H94 C105 0.930 . S
H95 C107 0.931 . S
C96 H90 0.930 . S
C96 C97 1.380 . S
C96 C98 1.394 . S
C97 C96 1.380 . S
C97 C101 1.382 . S
C98 C96 1.394 . S
C98 C99 1.400 . S
C99 H91 0.931 . S
C99 C98 1.400 . S
C99 C100 1.375 . S
C100 C99 1.375 . S
C100 C101 1.415 . S
C100 C102 1.501 . S
C101 H92 0.931 . S
C101 C97 1.382 . S
C101 C100 1.415 . S
C102 C100 1.501 . S
C102 C103 1.384 . S
C102 C107 1.408 . S
C103 H93 0.930 . S
C103 C102 1.384 . S
C103 C104 1.389 . S
C104 C103 1.389 . S
C104 C105 1.405 . S
C105 H94 0.930 . S
C105 C104 1.405 . S
C105 C106 1.364 . S
C106 C105 1.364 . S
C106 C107 1.400 . S
C107 H95 0.931 . S
C107 C102 1.408 . S
C107 C106 1.400 . S
H108 C114 0.930 . S
H109 C117 0.931 . S
H110 C119 0.931 . S
H111 C121 0.930 . S
H112 C123 0.930 . S
H113 C125 0.931 . S
C114 H108 0.930 . S
C114 C115 1.380 . S
C114 C116 1.394 . S
C115 C114 1.380 . S
C115 C119 1.382 . S
C116 C114 1.394 . S
C116 C117 1.400 . S
C117 H109 0.931 . S
C117 C116 1.400 . S
C117 C118 1.375 . S
C118 C117 1.375 . S
C118 C119 1.415 . S
C118 C120 1.501 . S
C119 H110 0.931 . S
C119 C115 1.382 . S
C119 C118 1.415 . S
C120 C118 1.501 . S
C120 C121 1.384 . S
C120 C125 1.408 . S
C121 H111 0.930 . S
C121 C120 1.384 . S
C121 C122 1.389 . S
C122 C121 1.389 . S
C122 C123 1.405 . S
C123 H112 0.930 . S
C123 C122 1.405 . S
C123 C124 1.364 . S
C124 C123 1.364 . S
C124 C125 1.400 . S
C125 H113 0.931 . S
C125 C120 1.408 . S
C125 C124 1.400 . S
H126 C132 0.930 . S
H127 C135 0.931 . S
H128 C137 0.931 . S
H129 C139 0.930 . S
H130 C141 0.930 . S
H131 C143 0.931 . S
C132 H126 0.930 . S
C132 C133 1.380 . S
C132 C134 1.394 . S
C133 C132 1.380 . S
C133 C137 1.382 . S
C134 C132 1.394 . S
C134 C135 1.400 . S
C135 H127 0.931 . S
C135 C134 1.400 . S
C135 C136 1.375 . S
C136 C135 1.375 . S
C136 C137 1.415 . S
C136 C138 1.501 . S
C137 H128 0.931 . S
C137 C133 1.382 . S
C137 C136 1.415 . S
C138 C136 1.501 . S
C138 C139 1.384 . S
C138 C143 1.408 . S
C139 H129 0.930 . S
C139 C138 1.384 . S
C139 C140 1.389 . S
C140 C139 1.389 . S
C140 C141 1.405 . S
C141 H130 0.930 . S
C141 C140 1.405 . S
C141 C142 1.364 . S
C142 C141 1.364 . S
C142 C143 1.400 . S
C143 H131 0.931 . S
C143 C138 1.408 . S
C143 C142 1.400 . S
C144 O146 1.247 . S
C144 O148 1.258 . S
C145 O152 1.247 . S
C145 O153 1.258 . S
O146 C144 1.247 . S
O146 Zn147 2.028 1_655 S
Zn147 O146 2.028 1_455 S
Zn147 O151 2.035 . S
Zn147 O153 2.035 . S
Zn147 O154 2.028 1_455 S
O148 C144 1.258 . S
O148 Zn149 2.035 1_655 S
Zn149 O148 2.035 1_455 S
Zn149 O150 2.028 . S
Zn149 O152 2.028 . S
Zn149 O155 2.035 1_455 S
O150 Zn149 2.028 . S
O150 C156 1.247 . S
O151 Zn147 2.035 . S
O151 C156 1.258 . S
O152 C145 1.247 . S
O152 Zn149 2.028 . S
O153 C145 1.258 . S
O153 Zn147 2.035 . S
O154 Zn147 2.028 1_655 S
O154 C157 1.247 . S
O155 Zn149 2.035 1_655 S
O155 C157 1.258 . S
C156 O150 1.247 . S
C156 O151 1.258 . S
C157 O154 1.247 . S
C157 O155 1.258 . S
C158 O160 1.247 . S
C158 O162 1.258 . S
C159 O166 1.247 . S
C159 O167 1.258 . S
O160 C158 1.247 . S
O160 Zn161 2.028 . S
Zn161 O160 2.028 . S
Zn161 O165 2.035 1_545 S
Zn161 O167 2.035 1_545 S
Zn161 O168 2.028 . S
O162 C158 1.258 . S
O162 Zn163 2.054 . S
Zn163 O162 2.054 . S
Zn163 O164 2.009 1_545 S
Zn163 O166 2.009 1_545 S
Zn163 O169 2.054 . S
O164 Zn163 2.009 1_565 S
O164 C170 1.247 . S
O165 Zn161 2.035 1_565 S
O165 C170 1.258 . S
O166 C159 1.247 . S
O166 Zn163 2.009 1_565 S
O167 C159 1.258 . S
O167 Zn161 2.035 1_565 S
O168 Zn161 2.028 . S
O168 C171 1.247 . S
O169 Zn163 2.054 . S
O169 C171 1.258 . S
C170 O164 1.247 . S
C170 O165 1.258 . S
C171 O168 1.247 . S
C171 O169 1.258 . S
C172 O174 1.247 . S
C172 O176 1.258 . S
C173 O180 1.247 . S
C173 O181 1.258 . S
O174 C172 1.247 . S
O174 Zn175 2.028 1_655 S
Zn175 O174 2.028 1_455 S
Zn175 O179 2.035 . S
Zn175 O181 2.035 . S
Zn175 O182 2.028 1_455 S
O176 C172 1.258 . S
O176 Zn177 2.035 1_655 S
Zn177 O176 2.035 1_455 S
Zn177 O178 2.028 . S
Zn177 O180 2.028 . S
Zn177 O183 2.035 1_455 S
O178 Zn177 2.028 . S
O178 C184 1.247 . S
O179 Zn175 2.035 . S
O179 C184 1.258 . S
O180 C173 1.247 . S
O180 Zn177 2.028 . S
O181 C173 1.258 . S
O181 Zn175 2.035 . S
O182 Zn175 2.028 1_655 S
O182 C185 1.247 . S
O183 Zn177 2.035 1_655 S
O183 C185 1.258 . S
C184 O178 1.247 . S
C184 O179 1.258 . S
C185 O182 1.247 . S
C185 O183 1.258 . S
C186 O188 1.247 . S
C186 O190 1.258 . S
C187 O194 1.247 . S
C187 O195 1.258 . S
O188 C186 1.247 . S
O188 Zn189 2.051 . S
Zn189 O188 2.051 . S
Zn189 O193 2.012 1_545 S
Zn189 O195 2.012 1_545 S
Zn189 O196 2.051 . S
O190 C186 1.258 . S
O190 Zn191 2.044 . S
Zn191 O190 2.044 . S
Zn191 O192 2.019 1_545 S
Zn191 O194 2.019 1_545 S
Zn191 O197 2.044 . S
O192 Zn191 2.019 1_565 S
O192 C198 1.247 . S
O193 Zn189 2.012 1_565 S
O193 C198 1.258 . S
O194 C187 1.247 . S
O194 Zn191 2.019 1_565 S
O195 C187 1.258 . S
O195 Zn189 2.012 1_565 S
O196 Zn189 2.051 . S
O196 C199 1.247 . S
O197 Zn191 2.044 . S
O197 C199 1.258 . S
C198 O192 1.247 . S
C198 O193 1.258 . S
C199 O196 1.247 . S
C199 O197 1.258 . S
C200 O202 1.247 . S
C200 O204 1.258 . S
C201 O208 1.247 . S
C201 O209 1.258 . S
O202 C200 1.247 . S
O202 Zn203 2.028 . S
Zn203 O202 2.028 . S
Zn203 O207 2.035 . S
Zn203 O209 2.035 1_554 S
Zn203 O210 2.028 1_554 S
O204 C200 1.258 . S
O204 Zn205 2.035 . S
Zn205 O204 2.035 . S
Zn205 O206 2.028 . S
Zn205 O208 2.028 1_554 S
Zn205 O211 2.035 1_554 S
O206 Zn205 2.028 . S
O206 C212 1.247 . S
O207 Zn203 2.035 . S
O207 C212 1.258 . S
O208 C201 1.247 . S
O208 Zn205 2.028 1_556 S
O209 C201 1.258 . S
O209 Zn203 2.035 1_556 S
O210 Zn203 2.028 1_556 S
O210 C213 1.247 . S
O211 Zn205 2.035 1_556 S
O211 C213 1.258 . S
C212 O206 1.247 . S
C212 O207 1.258 . S
C213 O210 1.247 . S
C213 O211 1.258 . S
C214 O216 1.247 . S
C214 O218 1.258 . S
C215 O222 1.247 . S
C215 O223 1.258 . S
O216 C214 1.247 . S
O216 Zn217 2.045 . S
Zn217 O216 2.045 . S
Zn217 O221 2.052 . S
Zn217 O223 2.018 1_554 S
Zn217 O224 2.011 1_554 S
O218 C214 1.258 . S
O218 Zn219 2.055 . S
Zn219 O218 2.055 . S
Zn219 O220 2.048 . S
Zn219 O222 2.008 1_554 S
Zn219 O225 2.016 1_554 S
O220 Zn219 2.048 . S
O220 C226 1.247 . S
O221 Zn217 2.052 . S
O221 C226 1.258 . S
O222 C215 1.247 . S
O222 Zn219 2.008 1_556 S
O223 C215 1.258 . S
O223 Zn217 2.018 1_556 S
O224 Zn217 2.011 1_556 S
O224 C227 1.247 . S
O225 Zn219 2.016 1_556 S
O225 C227 1.258 . S
C226 O220 1.247 . S
C226 O221 1.258 . S
C227 O224 1.247 . S
C227 O225 1.258 . S
C228 O230 1.247 . S
C228 O232 1.258 . S
C229 O236 1.247 . S
C229 O237 1.258 . S
O230 C228 1.247 . S
O230 Zn231 2.007 1_556 S
Zn231 O230 2.007 1_554 S
Zn231 O235 2.015 1_554 S
Zn231 O237 2.056 . S
Zn231 O238 2.049 . S
O232 C228 1.258 . S
O232 Zn233 2.015 1_556 S
Zn233 O232 2.015 1_554 S
Zn233 O234 2.007 1_554 S
Zn233 O236 2.049 . S
Zn233 O239 2.056 . S
O234 Zn233 2.007 1_556 S
O234 C240 1.247 . S
O235 Zn231 2.015 1_556 S
O235 C240 1.258 . S
O236 C229 1.247 . S
O236 Zn233 2.049 . S
O237 C229 1.258 . S
O237 Zn231 2.056 . S
O238 Zn231 2.049 . S
O238 C241 1.247 . S
O239 Zn233 2.056 . S
O239 C241 1.258 . S
C240 O234 1.247 . S
C240 O235 1.258 . S
C241 O238 1.247 . S
C241 O239 1.258 . S
C242 O244 1.247 . S
C242 O246 1.258 . S
C243 O250 1.247 . S
C243 O251 1.258 . S
O244 C242 1.247 . S
O244 Zn245 2.037 . S
Zn245 O244 2.037 . S
Zn245 O249 2.044 . S
Zn245 O251 2.027 1_554 S
Zn245 O252 2.019 1_554 S
O246 C242 1.258 . S
O246 Zn247 2.046 . S
Zn247 O246 2.046 . S
Zn247 O248 2.039 . S
Zn247 O250 2.017 1_554 S
Zn247 O253 2.024 1_554 S
O248 Zn247 2.039 . S
O248 C254 1.247 . S
O249 Zn245 2.044 . S
O249 C254 1.258 . S
O250 C243 1.247 . S
O250 Zn247 2.017 1_556 S
O251 C243 1.258 . S
O251 Zn245 2.027 1_556 S
O252 Zn245 2.019 1_556 S
O252 C255 1.247 . S
O253 Zn247 2.024 1_556 S
O253 C255 1.258 . S
C254 O248 1.247 . S
C254 O249 1.258 . S
C255 O252 1.247 . S
C255 O253 1.258 . S
H256 C262 0.930 . S
H257 C265 0.930 . S
H258 C266 0.930 . S
H259 C267 0.930 . S
H260 C270 0.930 . S
H261 C271 0.930 . S
C262 H256 0.930 . S
C262 C263 1.355 . S
C262 C264 1.415 . S
C263 C262 1.355 . S
C263 C265 1.419 . S
C264 C262 1.415 . S
C264 C269 1.425 . S
C264 C271 1.409 . S
C265 H257 0.930 . S
C265 C263 1.419 . S
C265 C266 1.362 . S
C266 H258 0.930 . S
C266 C265 1.362 . S
C266 C269 1.409 . S
C267 H259 0.930 . S
C267 C268 1.355 . S
C267 C269 1.415 . S
C268 C267 1.355 . S
C268 C270 1.419 . S
C269 C264 1.425 . S
C269 C266 1.409 . S
C269 C267 1.415 . S
C270 H260 0.930 . S
C270 C268 1.419 . S
C270 C271 1.362 . S
C271 H261 0.930 . S
C271 C264 1.409 . S
C271 C270 1.362 . S
H272 C278 0.930 . S
H273 C281 0.930 . S
H274 C282 0.930 . S
H275 C283 0.930 . S
H276 C286 0.930 . S
H277 C287 0.930 . S
C278 H272 0.930 . S
C278 C279 1.355 . S
C278 C280 1.415 . S
C279 C278 1.355 . S
C279 C281 1.419 . S
C280 C278 1.415 . S
C280 C285 1.425 . S
C280 C287 1.409 . S
C281 H273 0.930 . S
C281 C279 1.419 . S
C281 C282 1.362 . S
C282 H274 0.930 . S
C282 C281 1.362 . S
C282 C285 1.409 . S
C283 H275 0.930 . S
C283 C284 1.355 . S
C283 C285 1.415 . S
C284 C283 1.355 . S
C284 C286 1.419 . S
C285 C280 1.425 . S
C285 C282 1.409 . S
C285 C283 1.415 . S
C286 H276 0.930 . S
C286 C284 1.419 . S
C286 C287 1.362 . S
C287 H277 0.930 . S
C287 C280 1.409 . S
C287 C286 1.362 . S
H288 C294 0.930 . S
H289 C297 0.930 . S
H290 C298 0.930 . S
H291 C299 0.930 . S
H292 C302 0.930 . S
H293 C303 0.930 . S
C294 H288 0.930 . S
C294 C295 1.355 . S
C294 C296 1.415 . S
C295 C294 1.355 . S
C295 C297 1.419 . S
C296 C294 1.415 . S
C296 C301 1.425 . S
C296 C303 1.409 . S
C297 H289 0.930 . S
C297 C295 1.419 . S
C297 C298 1.362 . S
C298 H290 0.930 . S
C298 C297 1.362 . S
C298 C301 1.409 . S
C299 H291 0.930 . S
C299 C300 1.355 . S
C299 C301 1.415 . S
C300 C299 1.355 . S
C300 C302 1.419 . S
C301 C296 1.425 . S
C301 C298 1.409 . S
C301 C299 1.415 . S
C302 H292 0.930 . S
C302 C300 1.419 . S
C302 C303 1.362 . S
C303 H293 0.930 . S
C303 C296 1.409 . S
C303 C302 1.362 . S
H304 C310 0.930 . S
H305 C313 0.930 . S
H306 C314 0.930 . S
H307 C315 0.930 . S
H308 C318 0.930 . S
H309 C319 0.930 . S
C310 H304 0.930 . S
C310 C311 1.355 . S
C310 C312 1.415 . S
C311 C310 1.355 . S
C311 C313 1.419 . S
C312 C310 1.415 . S
C312 C317 1.425 . S
C312 C319 1.409 . S
C313 H305 0.930 . S
C313 C311 1.419 . S
C313 C314 1.362 . S
C314 H306 0.930 . S
C314 C313 1.362 . S
C314 C317 1.409 . S
C315 H307 0.930 . S
C315 C316 1.355 . S
C315 C317 1.415 . S
C316 C315 1.355 . S
C316 C318 1.419 . S
C317 C312 1.425 . S
C317 C314 1.409 . S
C317 C315 1.415 . S
C318 H308 0.930 . S
C318 C316 1.419 . S
C318 C319 1.362 . S
C319 H309 0.930 . S
C319 C312 1.409 . S
C319 C318 1.362 . S
H320 C326 0.930 . S
H321 C329 0.930 . S
H322 C330 0.930 . S
H323 C331 0.930 . S
H324 C334 0.930 . S
H325 C335 0.930 . S
C326 H320 0.930 . S
C326 C327 1.355 . S
C326 C328 1.415 . S
C327 C326 1.355 . S
C327 C329 1.419 . S
C328 C326 1.415 . S
C328 C333 1.425 . S
C328 C335 1.409 . S
C329 H321 0.930 . S
C329 C327 1.419 . S
C329 C330 1.362 . S
C330 H322 0.930 . S
C330 C329 1.362 . S
C330 C333 1.409 . S
C331 H323 0.930 . S
C331 C332 1.355 . S
C331 C333 1.415 . S
C332 C331 1.355 . S
C332 C334 1.419 . S
C333 C328 1.425 . S
C333 C330 1.409 . S
C333 C331 1.415 . S
C334 H324 0.930 . S
C334 C332 1.419 . S
C334 C335 1.362 . S
C335 H325 0.930 . S
C335 C328 1.409 . S
C335 C334 1.362 . S
H336 C342 0.930 . S
H337 C345 0.930 . S
H338 C346 0.930 . S
H339 C347 0.930 . S
H340 C350 0.930 . S
H341 C351 0.930 . S
C342 H336 0.930 . S
C342 C343 1.355 . S
C342 C344 1.415 . S
C343 C342 1.355 . S
C343 C345 1.419 . S
C344 C342 1.415 . S
C344 C349 1.425 . S
C344 C351 1.409 . S
C345 H337 0.930 . S
C345 C343 1.419 . S
C345 C346 1.362 . S
C346 H338 0.930 . S
C346 C345 1.362 . S
C346 C349 1.409 . S
C347 H339 0.930 . S
C347 C348 1.355 . S
C347 C349 1.415 . S
C348 C347 1.355 . S
C348 C350 1.419 . S
C349 C344 1.425 . S
C349 C346 1.409 . S
C349 C347 1.415 . S
C350 H340 0.930 . S
C350 C348 1.419 . S
C350 C351 1.362 . S
C351 H341 0.930 . S
C351 C344 1.409 . S
C351 C350 1.362 . S
H352 C358 0.930 . S
H353 C361 0.930 . S
H354 C362 0.930 . S
H355 C363 0.930 . S
H356 C366 0.930 . S
H357 C367 0.930 . S
C358 H352 0.930 . S
C358 C359 1.355 . S
C358 C360 1.415 . S
C359 C358 1.355 . S
C359 C361 1.419 . S
C360 C358 1.415 . S
C360 C365 1.425 . S
C360 C367 1.409 . S
C361 H353 0.930 . S
C361 C359 1.419 . S
C361 C362 1.362 . S
C362 H354 0.930 . S
C362 C361 1.362 . S
C362 C365 1.409 . S
C363 H355 0.930 . S
C363 C364 1.355 . S
C363 C365 1.415 . S
C364 C363 1.355 . S
C364 C366 1.419 . S
C365 C360 1.425 . S
C365 C362 1.409 . S
C365 C363 1.415 . S
C366 H356 0.930 . S
C366 C364 1.419 . S
C366 C367 1.362 . S
C367 H357 0.930 . S
C367 C360 1.409 . S
C367 C366 1.362 . S
H368 C374 0.930 . S
H369 C377 0.930 . S
H370 C378 0.930 . S
H371 C379 0.930 . S
H372 C382 0.930 . S
H373 C383 0.930 . S
C374 H368 0.930 . S
C374 C375 1.355 . S
C374 C376 1.415 . S
C375 C374 1.355 . S
C375 C377 1.419 . S
C376 C374 1.415 . S
C376 C381 1.425 . S
C376 C383 1.409 . S
C377 H369 0.930 . S
C377 C375 1.419 . S
C377 C378 1.362 . S
C378 H370 0.930 . S
C378 C377 1.362 . S
C378 C381 1.409 . S
C379 H371 0.930 . S
C379 C380 1.355 . S
C379 C381 1.415 . S
C380 C379 1.355 . S
C380 C382 1.419 . S
C381 C376 1.425 . S
C381 C378 1.409 . S
C381 C379 1.415 . S
C382 H372 0.930 . S
C382 C380 1.419 . S
C382 C383 1.362 . S
C383 H373 0.930 . S
C383 C376 1.409 . S
C383 C382 1.362 . S
H384 C390 0.930 . S
H385 C393 0.930 . S
H386 C394 0.930 . S
H387 C395 0.930 . S
H388 C398 0.930 . S
H389 C399 0.930 . S
C390 H384 0.930 . S
C390 C391 1.355 . S
C390 C392 1.415 . S
C391 C390 1.355 . S
C391 C393 1.419 . S
C392 C390 1.415 . S
C392 C397 1.425 . S
C392 C399 1.409 . S
C393 H385 0.930 . S
C393 C391 1.419 . S
C393 C394 1.362 . S
C394 H386 0.930 . S
C394 C393 1.362 . S
C394 C397 1.409 . S
C395 H387 0.930 . S
C395 C396 1.355 . S
C395 C397 1.415 . S
C396 C395 1.355 . S
C396 C398 1.419 . S
C397 C392 1.425 . S
C397 C394 1.409 . S
C397 C395 1.415 . S
C398 H388 0.930 . S
C398 C396 1.419 . S
C398 C399 1.362 . S
C399 H389 0.930 . S
C399 C392 1.409 . S
C399 C398 1.362 . S
H400 C406 0.930 . S
H401 C409 0.930 . S
H402 C410 0.930 . S
H403 C411 0.930 . S
H404 C414 0.930 . S
H405 C415 0.930 . S
C406 H400 0.930 . S
C406 C407 1.355 . S
C406 C408 1.415 . S
C407 C406 1.355 . S
C407 C409 1.419 . S
C408 C406 1.415 . S
C408 C413 1.425 . S
C408 C415 1.409 . S
C409 H401 0.930 . S
C409 C407 1.419 . S
C409 C410 1.362 . S
C410 H402 0.930 . S
C410 C409 1.362 . S
C410 C413 1.409 . S
C411 H403 0.930 . S
C411 C412 1.355 . S
C411 C413 1.415 . S
C412 C411 1.355 . S
C412 C414 1.419 . S
C413 C408 1.425 . S
C413 C410 1.409 . S
C413 C411 1.415 . S
C414 H404 0.930 . S
C414 C412 1.419 . S
C414 C415 1.362 . S
C415 H405 0.930 . S
C415 C408 1.409 . S
C415 C414 1.362 . S
H416 C422 0.930 . S
H417 C425 0.930 . S
H418 C426 0.930 . S
H419 C427 0.930 . S
H420 C430 0.930 . S
H421 C431 0.930 . S
C422 H416 0.930 . S
C422 C423 1.355 . S
C422 C424 1.415 . S
C423 C422 1.355 . S
C423 C425 1.419 . S
C424 C422 1.415 . S
C424 C429 1.425 . S
C424 C431 1.409 . S
C425 H417 0.930 . S
C425 C423 1.419 . S
C425 C426 1.362 . S
C426 H418 0.930 . S
C426 C425 1.362 . S
C426 C429 1.409 . S
C427 H419 0.930 . S
C427 C428 1.355 . S
C427 C429 1.415 . S
C428 C427 1.355 . S
C428 C430 1.419 . S
C429 C424 1.425 . S
C429 C426 1.409 . S
C429 C427 1.415 . S
C430 H420 0.930 . S
C430 C428 1.419 . S
C430 C431 1.362 . S
C431 H421 0.930 . S
C431 C424 1.409 . S
C431 C430 1.362 . S
H432 C438 0.930 . S
H433 C441 0.930 . S
H434 C442 0.930 . S
H435 C443 0.930 . S
H436 C446 0.930 . S
H437 C447 0.930 . S
C438 H432 0.930 . S
C438 C439 1.355 . S
C438 C440 1.415 . S
C439 C438 1.355 . S
C439 C441 1.419 . S
C440 C438 1.415 . S
C440 C445 1.425 . S
C440 C447 1.409 . S
C441 H433 0.930 . S
C441 C439 1.419 . S
C441 C442 1.362 . S
C442 H434 0.930 . S
C442 C441 1.362 . S
C442 C445 1.409 . S
C443 H435 0.930 . S
C443 C444 1.355 . S
C443 C445 1.415 . S
C444 C443 1.355 . S
C444 C446 1.419 . S
C445 C440 1.425 . S
C445 C442 1.409 . S
C445 C443 1.415 . S
C446 H436 0.930 . S
C446 C444 1.419 . S
C446 C447 1.362 . S
C447 H437 0.930 . S
C447 C440 1.409 . S
C447 C446 1.362 . S
H448 C454 0.930 . S
H449 C457 0.930 . S
H450 C458 0.930 . S
H451 C459 0.930 . S
H452 C462 0.930 . S
H453 C463 0.930 . S
C454 H448 0.930 . S
C454 C455 1.355 . S
C454 C456 1.415 . S
C455 C454 1.355 . S
C455 C457 1.419 . S
C456 C454 1.415 . S
C456 C461 1.425 . S
C456 C463 1.409 . S
C457 H449 0.930 . S
C457 C455 1.419 . S
C457 C458 1.362 . S
C458 H450 0.930 . S
C458 C457 1.362 . S
C458 C461 1.409 . S
C459 H451 0.930 . S
C459 C460 1.355 . S
C459 C461 1.415 . S
C460 C459 1.355 . S
C460 C462 1.419 . S
C461 C456 1.425 . S
C461 C458 1.409 . S
C461 C459 1.415 . S
C462 H452 0.930 . S
C462 C460 1.419 . S
C462 C463 1.362 . S
C463 H453 0.930 . S
C463 C456 1.409 . S
C463 C462 1.362 . S
H464 C470 0.930 . S
H465 C473 0.930 . S
H466 C474 0.930 . S
H467 C475 0.930 . S
H468 C478 0.930 . S
H469 C479 0.930 . S
C470 H464 0.930 . S
C470 C471 1.355 . S
C470 C472 1.415 . S
C471 C470 1.355 . S
C471 C473 1.419 . S
C472 C470 1.415 . S
C472 C477 1.425 . S
C472 C479 1.409 . S
C473 H465 0.930 . S
C473 C471 1.419 . S
C473 C474 1.362 . S
C474 H466 0.930 . S
C474 C473 1.362 . S
C474 C477 1.409 . S
C475 H467 0.930 . S
C475 C476 1.355 . S
C475 C477 1.415 . S
C476 C475 1.355 . S
C476 C478 1.419 . S
C477 C472 1.425 . S
C477 C474 1.409 . S
C477 C475 1.415 . S
C478 H468 0.930 . S
C478 C476 1.419 . S
C478 C479 1.362 . S
C479 H469 0.930 . S
C479 C472 1.409 . S
C479 C478 1.362 . S
H480 C486 0.930 . S
H481 C489 0.930 . S
H482 C490 0.930 . S
H483 C491 0.930 . S
H484 C494 0.930 . S
H485 C495 0.930 . S
C486 H480 0.930 . S
C486 C487 1.355 . S
C486 C488 1.415 . S
C487 C486 1.355 . S
C487 C489 1.419 . S
C488 C486 1.415 . S
C488 C493 1.425 . S
C488 C495 1.409 . S
C489 H481 0.930 . S
C489 C487 1.419 . S
C489 C490 1.362 . S
C490 H482 0.930 . S
C490 C489 1.362 . S
C490 C493 1.409 . S
C491 H483 0.930 . S
C491 C492 1.355 . S
C491 C493 1.415 . S
C492 C491 1.355 . S
C492 C494 1.419 . S
C493 C488 1.425 . S
C493 C490 1.409 . S
C493 C491 1.415 . S
C494 H484 0.930 . S
C494 C492 1.419 . S
C494 C495 1.362 . S
C495 H485 0.930 . S
C495 C488 1.409 . S
C495 C494 1.362 . S
H496 C502 0.930 . S
H497 C505 0.930 . S
H498 C506 0.930 . S
H499 C507 0.930 . S
H500 C510 0.930 . S
H501 C511 0.930 . S
C502 H496 0.930 . S
C502 C503 1.355 . S
C502 C504 1.415 . S
C503 C502 1.355 . S
C503 C505 1.419 . S
C504 C502 1.415 . S
C504 C509 1.425 . S
C504 C511 1.409 . S
C505 H497 0.930 . S
C505 C503 1.419 . S
C505 C506 1.362 . S
C506 H498 0.930 . S
C506 C505 1.362 . S
C506 C509 1.409 . S
C507 H499 0.930 . S
C507 C508 1.355 . S
C507 C509 1.415 . S
C508 C507 1.355 . S
C508 C510 1.419 . S
C509 C504 1.425 . S
C509 C506 1.409 . S
C509 C507 1.415 . S
C510 H500 0.930 . S
C510 C508 1.419 . S
C510 C511 1.362 . S
C511 H501 0.930 . S
C511 C504 1.409 . S
C511 C510 1.362 . S
H512 C518 0.930 . S
H513 C521 0.930 . S
H514 C522 0.930 . S
H515 C523 0.930 . S
H516 C526 0.930 . S
H517 C527 0.930 . S
C518 H512 0.930 . S
C518 C519 1.355 . S
C518 C520 1.415 . S
C519 C518 1.355 . S
C519 C521 1.419 . S
C520 C518 1.415 . S
C520 C525 1.425 . S
C520 C527 1.409 . S
C521 H513 0.930 . S
C521 C519 1.419 . S
C521 C522 1.362 . S
C522 H514 0.930 . S
C522 C521 1.362 . S
C522 C525 1.409 . S
C523 H515 0.930 . S
C523 C524 1.355 . S
C523 C525 1.415 . S
C524 C523 1.355 . S
C524 C526 1.419 . S
C525 C520 1.425 . S
C525 C522 1.409 . S
C525 C523 1.415 . S
C526 H516 0.930 . S
C526 C524 1.419 . S
C526 C527 1.362 . S
C527 H517 0.930 . S
C527 C520 1.409 . S
C527 C526 1.362 . S
H528 C534 0.930 . S
H529 C537 0.930 . S
H530 C538 0.930 . S
H531 C539 0.930 . S
H532 C542 0.930 . S
H533 C543 0.930 . S
C534 H528 0.930 . S
C534 C535 1.355 . S
C534 C536 1.415 . S
C535 C534 1.355 . S
C535 C537 1.419 . S
C536 C534 1.415 . S
C536 C541 1.425 . S
C536 C543 1.409 . S
C537 H529 0.930 . S
C537 C535 1.419 . S
C537 C538 1.362 . S
C538 H530 0.930 . S
C538 C537 1.362 . S
C538 C541 1.409 . S
C539 H531 0.930 . S
C539 C540 1.355 . S
C539 C541 1.415 . S
C540 C539 1.355 . S
C540 C542 1.419 . S
C541 C536 1.425 . S
C541 C538 1.409 . S
C541 C539 1.415 . S
C542 H532 0.930 . S
C542 C540 1.419 . S
C542 C543 1.362 . S
C543 H533 0.930 . S
C543 C536 1.409 . S
C543 C542 1.362 . S
H544 C550 0.930 . S
H545 C553 0.930 . S
H546 C554 0.930 . S
H547 C555 0.930 . S
H548 C558 0.930 . S
H549 C559 0.930 . S
C550 H544 0.930 . S
C550 C551 1.355 . S
C550 C552 1.415 . S
C551 C550 1.355 . S
C551 C553 1.419 . S
C552 C550 1.415 . S
C552 C557 1.425 . S
C552 C559 1.409 . S
C553 H545 0.930 . S
C553 C551 1.419 . S
C553 C554 1.362 . S
C554 H546 0.930 . S
C554 C553 1.362 . S
C554 C557 1.409 . S
C555 H547 0.930 . S
C555 C556 1.355 . S
C555 C557 1.415 . S
C556 C555 1.355 . S
C556 C558 1.419 . S
C557 C552 1.425 . S
C557 C554 1.409 . S
C557 C555 1.415 . S
C558 H548 0.930 . S
C558 C556 1.419 . S
C558 C559 1.362 . S
C559 H549 0.930 . S
C559 C552 1.409 . S
C559 C558 1.362 . S
H560 C566 0.930 . S
H561 C569 0.930 . S
H562 C570 0.930 . S
H563 C571 0.930 . S
H564 C574 0.930 . S
H565 C575 0.930 . S
C566 H560 0.930 . S
C566 C567 1.355 . S
C566 C568 1.415 . S
C567 C566 1.355 . S
C567 C569 1.419 . S
C568 C566 1.415 . S
C568 C573 1.425 . S
C568 C575 1.409 . S
C569 H561 0.930 . S
C569 C567 1.419 . S
C569 C570 1.362 . S
C570 H562 0.930 . S
C570 C569 1.362 . S
C570 C573 1.409 . S
C571 H563 0.930 . S
C571 C572 1.355 . S
C571 C573 1.415 . S
C572 C571 1.355 . S
C572 C574 1.419 . S
C573 C568 1.425 . S
C573 C570 1.409 . S
C573 C571 1.415 . S
C574 H564 0.930 . S
C574 C572 1.419 . S
C574 C575 1.362 . S
C575 H565 0.930 . S
C575 C568 1.409 . S
C575 C574 1.362 . S
H576 C582 0.930 . S
H577 C585 0.930 . S
H578 C586 0.930 . S
H579 C587 0.930 . S
H580 C590 0.930 . S
H581 C591 0.930 . S
C582 H576 0.930 . S
C582 C583 1.355 . S
C582 C584 1.415 . S
C583 C582 1.355 . S
C583 C585 1.419 . S
C584 C582 1.415 . S
C584 C589 1.425 . S
C584 C591 1.409 . S
C585 H577 0.930 . S
C585 C583 1.419 . S
C585 C586 1.362 . S
C586 H578 0.930 . S
C586 C585 1.362 . S
C586 C589 1.409 . S
C587 H579 0.930 . S
C587 C588 1.355 . S
C587 C589 1.415 . S
C588 C587 1.355 . S
C588 C590 1.419 . S
C589 C584 1.425 . S
C589 C586 1.409 . S
C589 C587 1.415 . S
C590 H580 0.930 . S
C590 C588 1.419 . S
C590 C591 1.362 . S
C591 H581 0.930 . S
C591 C584 1.409 . S
C591 C590 1.362 . S
H592 C598 0.930 . S
H593 C601 0.930 . S
H594 C602 0.930 . S
H595 C603 0.930 . S
H596 C606 0.930 . S
H597 C607 0.930 . S
C598 H592 0.930 . S
C598 C599 1.355 . S
C598 C600 1.415 . S
C599 C598 1.355 . S
C599 C601 1.419 . S
C600 C598 1.415 . S
C600 C605 1.425 . S
C600 C607 1.409 . S
C601 H593 0.930 . S
C601 C599 1.419 . S
C601 C602 1.362 . S
C602 H594 0.930 . S
C602 C601 1.362 . S
C602 C605 1.409 . S
C603 H595 0.930 . S
C603 C604 1.355 . S
C603 C605 1.415 . S
C604 C603 1.355 . S
C604 C606 1.419 . S
C605 C600 1.425 . S
C605 C602 1.409 . S
C605 C603 1.415 . S
C606 H596 0.930 . S
C606 C604 1.419 . S
C606 C607 1.362 . S
C607 H597 0.930 . S
C607 C600 1.409 . S
C607 C606 1.362 . S
H608 C614 0.930 . S
H609 C617 0.930 . S
H610 C618 0.930 . S
H611 C619 0.930 . S
H612 C622 0.930 . S
H613 C623 0.930 . S
C614 H608 0.930 . S
C614 C615 1.355 . S
C614 C616 1.415 . S
C615 C614 1.355 . S
C615 C617 1.419 . S
C616 C614 1.415 . S
C616 C621 1.425 . S
C616 C623 1.409 . S
C617 H609 0.930 . S
C617 C615 1.419 . S
C617 C618 1.362 . S
C618 H610 0.930 . S
C618 C617 1.362 . S
C618 C621 1.409 . S
C619 H611 0.930 . S
C619 C620 1.355 . S
C619 C621 1.415 . S
C620 C619 1.355 . S
C620 C622 1.419 . S
C621 C616 1.425 . S
C621 C618 1.409 . S
C621 C619 1.415 . S
C622 H612 0.930 . S
C622 C620 1.419 . S
C622 C623 1.362 . S
C623 H613 0.930 . S
C623 C616 1.409 . S
C623 C622 1.362 . S
H624 C630 0.930 . S
H625 C633 0.930 . S
H626 C634 0.930 . S
H627 C635 0.930 . S
H628 C638 0.930 . S
H629 C639 0.930 . S
C630 H624 0.930 . S
C630 C631 1.355 . S
C630 C632 1.415 . S
C631 C630 1.355 . S
C631 C633 1.419 . S
C632 C630 1.415 . S
C632 C637 1.425 . S
C632 C639 1.409 . S
C633 H625 0.930 . S
C633 C631 1.419 . S
C633 C634 1.362 . S
C634 H626 0.930 . S
C634 C633 1.362 . S
C634 C637 1.409 . S
C635 H627 0.930 . S
C635 C636 1.355 . S
C635 C637 1.415 . S
C636 C635 1.355 . S
C636 C638 1.419 . S
C637 C632 1.425 . S
C637 C634 1.409 . S
C637 C635 1.415 . S
C638 H628 0.930 . S
C638 C636 1.419 . S
C638 C639 1.362 . S
C639 H629 0.930 . S
C639 C632 1.409 . S
C639 C638 1.362 . S
H640 C646 0.930 . S
H641 C649 0.930 . S
H642 C650 0.930 . S
H643 C651 0.930 . S
H644 C654 0.930 . S
H645 C655 0.930 . S
C646 H640 0.930 . S
C646 C647 1.355 . S
C646 C648 1.415 . S
C647 C646 1.355 . S
C647 C649 1.419 . S
C648 C646 1.415 . S
C648 C653 1.425 . S
C648 C655 1.409 . S
C649 H641 0.930 . S
C649 C647 1.419 . S
C649 C650 1.362 . S
C650 H642 0.930 . S
C650 C649 1.362 . S
C650 C653 1.409 . S
C651 H643 0.930 . S
C651 C652 1.355 . S
C651 C653 1.415 . S
C652 C651 1.355 . S
C652 C654 1.419 . S
C653 C648 1.425 . S
C653 C650 1.409 . S
C653 C651 1.415 . S
C654 H644 0.930 . S
C654 C652 1.419 . S
C654 C655 1.362 . S
C655 H645 0.930 . S
C655 C648 1.409 . S
C655 C654 1.362 . S
H656 C662 0.930 . S
H657 C665 0.930 . S
H658 C666 0.930 . S
H659 C667 0.930 . S
H660 C670 0.930 . S
H661 C671 0.930 . S
C662 H656 0.930 . S
C662 C663 1.355 . S
C662 C664 1.415 . S
C663 C662 1.355 . S
C663 C665 1.419 . S
C664 C662 1.415 . S
C664 C669 1.425 . S
C664 C671 1.409 . S
C665 H657 0.930 . S
C665 C663 1.419 . S
C665 C666 1.362 . S
C666 H658 0.930 . S
C666 C665 1.362 . S
C666 C669 1.409 . S
C667 H659 0.930 . S
C667 C668 1.355 . S
C667 C669 1.415 . S
C668 C667 1.355 . S
C668 C670 1.419 . S
C669 C664 1.425 . S
C669 C666 1.409 . S
C669 C667 1.415 . S
C670 H660 0.930 . S
C670 C668 1.419 . S
C670 C671 1.362 . S
C671 H661 0.930 . S
C671 C664 1.409 . S
C671 C670 1.362 . S
H672 C678 0.930 . S
H673 C681 0.930 . S
H674 C682 0.930 . S
H675 C683 0.930 . S
H676 C686 0.930 . S
H677 C687 0.930 . S
C678 H672 0.930 . S
C678 C679 1.355 . S
C678 C680 1.415 . S
C679 C678 1.355 . S
C679 C681 1.419 . S
C680 C678 1.415 . S
C680 C685 1.425 . S
C680 C687 1.409 . S
C681 H673 0.930 . S
C681 C679 1.419 . S
C681 C682 1.362 . S
C682 H674 0.930 . S
C682 C681 1.362 . S
C682 C685 1.409 . S
C683 H675 0.930 . S
C683 C684 1.355 . S
C683 C685 1.415 . S
C684 C683 1.355 . S
C684 C686 1.419 . S
C685 C680 1.425 . S
C685 C682 1.409 . S
C685 C683 1.415 . S
C686 H676 0.930 . S
C686 C684 1.419 . S
C686 C687 1.362 . S
C687 H677 0.930 . S
C687 C680 1.409 . S
C687 C686 1.362 . S
H688 C694 0.930 . S
H689 C697 0.930 . S
H690 C698 0.930 . S
H691 C699 0.930 . S
H692 C702 0.930 . S
H693 C703 0.930 . S
C694 H688 0.930 . S
C694 C695 1.355 . S
C694 C696 1.415 . S
C695 C694 1.355 . S
C695 C697 1.419 . S
C696 C694 1.415 . S
C696 C701 1.425 . S
C696 C703 1.409 . S
C697 H689 0.930 . S
C697 C695 1.419 . S
C697 C698 1.362 . S
C698 H690 0.930 . S
C698 C697 1.362 . S
C698 C701 1.409 . S
C699 H691 0.930 . S
C699 C700 1.355 . S
C699 C701 1.415 . S
C700 C699 1.355 . S
C700 C702 1.419 . S
C701 C696 1.425 . S
C701 C698 1.409 . S
C701 C699 1.415 . S
C702 H692 0.930 . S
C702 C700 1.419 . S
C702 C703 1.362 . S
C703 H693 0.930 . S
C703 C696 1.409 . S
C703 C702 1.362 . S
H704 C710 0.930 . S
H705 C713 0.930 . S
H706 C714 0.930 . S
H707 C715 0.930 . S
H708 C718 0.930 . S
H709 C719 0.930 . S
C710 H704 0.930 . S
C710 C711 1.355 . S
C710 C712 1.415 . S
C711 C710 1.355 . S
C711 C713 1.419 . S
C712 C710 1.415 . S
C712 C717 1.425 . S
C712 C719 1.409 . S
C713 H705 0.930 . S
C713 C711 1.419 . S
C713 C714 1.362 . S
C714 H706 0.930 . S
C714 C713 1.362 . S
C714 C717 1.409 . S
C715 H707 0.930 . S
C715 C716 1.355 . S
C715 C717 1.415 . S
C716 C715 1.355 . S
C716 C718 1.419 . S
C717 C712 1.425 . S
C717 C714 1.409 . S
C717 C715 1.415 . S
C718 H708 0.930 . S
C718 C716 1.419 . S
C718 C719 1.362 . S
C719 H709 0.930 . S
C719 C712 1.409 . S
C719 C718 1.362 . S
H720 C726 0.930 . S
H721 C729 0.930 . S
H722 C730 0.930 . S
H723 C731 0.930 . S
H724 C734 0.930 . S
H725 C735 0.930 . S
C726 H720 0.930 . S
C726 C727 1.355 . S
C726 C728 1.415 . S
C727 C726 1.355 . S
C727 C729 1.419 . S
C728 C726 1.415 . S
C728 C733 1.425 . S
C728 C735 1.409 . S
C729 H721 0.930 . S
C729 C727 1.419 . S
C729 C730 1.362 . S
C730 H722 0.930 . S
C730 C729 1.362 . S
C730 C733 1.409 . S
C731 H723 0.930 . S
C731 C732 1.355 . S
C731 C733 1.415 . S
C732 C731 1.355 . S
C732 C734 1.419 . S
C733 C728 1.425 . S
C733 C730 1.409 . S
C733 C731 1.415 . S
C734 H724 0.930 . S
C734 C732 1.419 . S
C734 C735 1.362 . S
C735 H725 0.930 . S
C735 C728 1.409 . S
C735 C734 1.362 . S
H736 C742 0.930 . S
H737 C745 0.930 . S
H738 C746 0.930 . S
H739 C747 0.930 . S
H740 C750 0.930 . S
H741 C751 0.930 . S
C742 H736 0.930 . S
C742 C743 1.355 . S
C742 C744 1.415 . S
C743 C742 1.355 . S
C743 C745 1.419 . S
C744 C742 1.415 . S
C744 C749 1.425 . S
C744 C751 1.409 . S
C745 H737 0.930 . S
C745 C743 1.419 . S
C745 C746 1.362 . S
C746 H738 0.930 . S
C746 C745 1.362 . S
C746 C749 1.409 . S
C747 H739 0.930 . S
C747 C748 1.355 . S
C747 C749 1.415 . S
C748 C747 1.355 . S
C748 C750 1.419 . S
C749 C744 1.425 . S
C749 C746 1.409 . S
C749 C747 1.415 . S
C750 H740 0.930 . S
C750 C748 1.419 . S
C750 C751 1.362 . S
C751 H741 0.930 . S
C751 C744 1.409 . S
C751 C750 1.362 . S
H752 C758 0.930 . S
H753 C761 0.930 . S
H754 C762 0.930 . S
H755 C763 0.930 . S
H756 C766 0.930 . S
H757 C767 0.930 . S
C758 H752 0.930 . S
C758 C759 1.355 . S
C758 C760 1.415 . S
C759 C758 1.355 . S
C759 C761 1.419 . S
C760 C758 1.415 . S
C760 C765 1.425 . S
C760 C767 1.409 . S
C761 H753 0.930 . S
C761 C759 1.419 . S
C761 C762 1.362 . S
C762 H754 0.930 . S
C762 C761 1.362 . S
C762 C765 1.409 . S
C763 H755 0.930 . S
C763 C764 1.355 . S
C763 C765 1.415 . S
C764 C763 1.355 . S
C764 C766 1.419 . S
C765 C760 1.425 . S
C765 C762 1.409 . S
C765 C763 1.415 . S
C766 H756 0.930 . S
C766 C764 1.419 . S
C766 C767 1.362 . S
C767 H757 0.930 . S
C767 C760 1.409 . S
C767 C766 1.362 . S
C268 C145 1.500 . S
C263 C7 1.426 . S
C284 C171 1.505 . S
C279 C32 1.471 . S
C300 C185 1.495 . S
C295 C44 1.426 . S
C316 C187 1.501 . S
C311 C62 1.461 . S
C327 C88 1.444 . S
C332 C184 1.498 . S
C348 C186 1.490 . S
C343 C106 1.399 . S
C364 C144 1.503 . S
C359 C124 1.468 . S
C380 C170 1.495 . S
C375 C140 1.415 . S
C396 C172 1.490 . S
C391 C142 1.401 . S
C412 C198 1.502 . S
C407 C86 1.477 . S
C428 C156 1.492 . S
C423 C104 1.406 . S
C444 C158 1.504 . S
C439 C122 1.480 . S
C460 C157 1.498 . S
C455 C34 1.449 . S
C476 C159 1.500 . S
C471 C43 1.455 . S
C492 C173 1.487 . S
C487 C61 1.405 . S
C508 C199 1.496 . S
C503 C8 1.439 . S
C524 C201 1.504 . S
C519 C133 1.453 . S
C535 C80 1.446 . S
C540 C227 1.498 . S
C551 C98 1.445 . S
C556 C240 1.496 . S
C567 C116 1.405 . S
C572 C243 1.490 . S
C583 C25 1.430 . S
C588 C241 1.496 . S
C599 C52 1.402 . S
C604 C242 1.493 . S
C615 C70 1.445 . S
C620 C200 1.496 . S
C636 C226 1.499 . S
C631 C14 1.442 . S
C652 C229 1.491 . S
C647 C16 1.407 . S
C663 C26 1.407 . S
C668 C254 1.489 . S
C679 C50 1.409 . S
C684 C212 1.492 . S
C695 C68 1.461 . S
C700 C214 1.506 . S
C716 C213 1.489 . S
C711 C79 1.402 . S
C732 C215 1.496 . S
C727 C97 1.440 . S
C743 C115 1.475 . S
C748 C228 1.506 . S
C764 C255 1.502 . S
C759 C134 1.468 . S
