# Generated by pormake.
# Topology pth, (4,4)-cn, num edge types: 1
# Building blocks:
#     Node 0, Type 0, BuildingBlock: GALJAG_clean_sbu_0, # of connection points: 4
#     Node 1, Type 0, BuildingBlock: GALJAG_clean_sbu_0, # of connection points: 4
#     Node 2, Type 0, BuildingBlock: GALJAG_clean_sbu_0, # of connection points: 4
#     Node 3, Type 1, BuildingBlock: NAWXER_clean_linker_0, # of connection points: 4
#     Node 4, Type 1, BuildingBlock: NAWXER_clean_linker_0, # of connection points: 4
#     Node 5, Type 1, BuildingBlock: NAWXER_clean_linker_0, # of connection points: 4
#     Edge 6, Type (0, 1), BuildingBlock: UVAHIK_clean_linker_0, # of connection points: 2
#     Edge 7, Type (0, 1), BuildingBlock: UVAHIK_clean_linker_0, # of connection points: 2
#     Edge 8, Type (0, 1), BuildingBlock: UVAHIK_clean_linker_0, # of connection points: 2
#     Edge 9, Type (0, 1), BuildingBlock: UVAHIK_clean_linker_0, # of connection points: 2
#     Edge 10, Type (0, 1), BuildingBlock: UVAHIK_clean_linker_0, # of connection points: 2
#     Edge 11, Type (0, 1), BuildingBlock: UVAHIK_clean_linker_0, # of connection points: 2
#     Edge 12, Type (0, 1), BuildingBlock: UVAHIK_clean_linker_0, # of connection points: 2
#     Edge 13, Type (0, 1), BuildingBlock: UVAHIK_clean_linker_0, # of connection points: 2
#     Edge 14, Type (0, 1), BuildingBlock: UVAHIK_clean_linker_0, # of connection points: 2
#     Edge 15, Type (0, 1), BuildingBlock: UVAHIK_clean_linker_0, # of connection points: 2
#     Edge 16, Type (0, 1), BuildingBlock: UVAHIK_clean_linker_0, # of connection points: 2
#     Edge 17, Type (0, 1), BuildingBlock: UVAHIK_clean_linker_0, # of connection points: 2
# Relax obj value: 0.002
# Max RMSD: 0.036
# Mean RMSD: 0.021
data_MOF--net-pth--node1-GALJAG_clean_sbu_0--node2-NAWXER_clean_linker_0--edge1-UVAHIK_clean_linker_0
_symmetry_space_group_name_H-M    P1
_symmetry_Int_Tables_number       1
_symmetry_cell_setting            triclinic
loop_
_symmetry_equiv_pos_as_xyz
'x, y, z'
_cell_length_a     36.941444
_cell_length_b     36.927771
_cell_length_c     79.951628
_cell_angle_alpha  90.181364
_cell_angle_beta   90.130823
_cell_angle_gamma 120.0203
loop_
_atom_site_label
_atom_site_type_symbol
_atom_site_fract_x
_atom_site_fract_y
_atom_site_fract_z
_atom_type_partial_charge
In0 In -0.00164 -0.00087 0.04261 0.0
O1 O 0.96826 0.03849 0.04924 0.0
O2 O 0.0166 0.04274 0.06505 0.0
C3 C 0.93536 0.94201 0.0234 0.0
C4 C 0.06105 0.05223 0.02236 0.0
C5 C 0.00427 0.94483 0.06331 0.0
O6 O 0.93058 0.96622 0.03318 0.0
O7 O 0.9716 0.94674 0.02339 0.0
O8 O 0.02697 0.95946 0.05052 0.0
O9 O 0.97885 0.95771 0.06566 0.0
C10 C 0.99062 0.05461 0.0621 0.0
O11 O 0.06776 0.03996 0.03611 0.0
O12 O 0.02299 0.03768 0.01886 0.0
In13 In -0.00564 -0.00068 0.37541 0.0
O14 O 0.03063 0.06245 0.36221 0.0
O15 O 0.96611 0.02382 0.35641 0.0
C16 C 0.05301 0.00342 0.39679 0.0
C17 C 0.93686 -0.00453 0.3972 0.0
C18 C 0.98749 0.94029 0.35357 0.0
O19 O 0.05835 0.03451 0.38831 0.0
O20 O 0.01816 0.97072 0.39457 0.0
O21 O 0.95737 0.93542 0.36259 0.0
O22 O 0.02068 0.9749 0.3555 0.0
C23 C -0.00055 0.05788 0.35392 0.0
O24 O 0.93124 0.96424 0.38865 0.0
O25 O 0.97148 0.02828 0.39484 0.0
In26 In -0.00544 -0.00407 0.70907 0.0
O27 O 0.95643 0.92839 0.71801 0.0
O28 O 0.95173 0.97538 0.7317 0.0
C29 C 0.04941 0.99042 0.68838 0.0
C30 C 0.93875 0.00147 0.68889 0.0
C31 C 0.04952 0.0551 0.73015 0.0
O32 O 0.02782 0.9622 0.69879 0.0
O33 O 0.043 0.02087 0.68835 0.0
O34 O 0.03043 0.06303 0.71891 0.0
O35 O 0.0407 0.0174 0.73078 0.0
C36 C 0.94027 0.93711 0.73016 0.0
O37 O 0.96291 0.03093 0.69853 0.0
O38 O 0.94303 0.96972 0.6894 0.0
C39 C 0.96991 0.36028 0.2342 0.0
C40 C 0.00041 0.3716 0.2468 0.0
C41 C 0.96808 0.39087 0.22459 0.0
C42 C -0.00277 0.43341 0.22714 0.0
C43 C 0.02918 0.41427 0.24947 0.0
C44 C 0.0275 0.44482 0.23977 0.0
C45 C -0.00479 0.46636 0.21735 0.0
C46 C 0.02058 0.39056 0.17957 0.0
C47 C 0.98706 0.36845 0.16834 0.0
C48 C 0.02191 0.42181 0.18991 0.0
C49 C 0.98978 0.43155 0.18922 0.0
C50 C 0.95504 0.37853 0.1677 0.0
C51 C 0.95663 0.41002 0.17792 0.0
C52 C 0.99101 0.46504 0.19976 0.0
C53 C 0.01994 0.63736 0.18433 0.0
C54 C -0.00558 0.6273 0.17007 0.0
C55 C 0.0187 0.60571 0.19427 0.0
C56 C 0.99085 0.5634 0.19045 0.0
C57 C 0.9672 0.58512 0.16603 0.0
C58 C 0.96535 0.55348 0.17616 0.0
C59 C 0.99026 0.52927 0.20042 0.0
C60 C 0.95556 0.6001 0.23637 0.0
C61 C 0.98585 0.62178 0.24881 0.0
C62 C 0.95772 0.57011 0.22639 0.0
C63 C 0.99032 0.56139 0.22862 0.0
C64 C 0.018 0.6124 0.25122 0.0
C65 C 0.01999 0.58222 0.2413 0.0
C66 C -0.00703 0.52984 0.21808 0.0
H67 H 0.9474 0.32775 0.23172 0.0
H68 H 0.94352 0.38121 0.21531 0.0
H69 H 0.05255 0.4242 0.25927 0.0
H70 H 0.04993 0.47746 0.24214 0.0
H71 H 0.04619 0.38426 0.18019 0.0
H72 H 0.04825 0.43871 0.19831 0.0
H73 H 0.92843 0.3618 0.15943 0.0
H74 H 0.93159 0.4172 0.17716 0.0
H75 H 0.04172 0.6697 0.18751 0.0
H76 H 0.04021 0.61445 0.20471 0.0
H77 H 0.94722 0.57664 0.15508 0.0
H78 H 0.94402 0.52116 0.17278 0.0
H79 H 0.93053 0.60675 0.23418 0.0
H80 H 0.93394 0.55374 0.21692 0.0
H81 H 0.04141 0.62816 0.26087 0.0
H82 H 0.04509 0.57557 0.24336 0.0
N83 N -0.00403 0.49872 0.22582 0.0
N84 N 0.9888 0.49654 0.19201 0.0
C85 C 0.63266 0.02601 0.51596 0.0
C86 C 0.62194 -0.00418 0.50325 0.0
C87 C 0.60169 0.02673 0.52572 0.0
C88 C 0.5594 -0.00329 0.52324 0.0
C89 C 0.57945 0.9665 0.50053 0.0
C90 C 0.54856 0.96703 0.51039 0.0
C91 C 0.52609 -0.00315 0.53346 0.0
C92 C 0.6068 0.97346 0.56898 0.0
C93 C 0.62507 0.00323 0.58192 0.0
C94 C 0.5751 0.97219 0.55898 0.0
C95 C 0.56166 0.00129 0.56144 0.0
C96 C 0.61082 0.03169 0.58457 0.0
C97 C 0.57944 0.03067 0.57446 0.0
C98 C 0.52781 0.00028 0.55112 0.0
C99 C 0.35539 0.96408 0.56903 0.0
C100 C 0.36467 0.99453 0.58146 0.0
C101 C 0.38711 0.9658 0.55898 0.0
C102 C 0.42867 -0.00199 0.56119 0.0
C103 C 0.40632 0.02664 0.58368 0.0
C104 C 0.43807 0.02812 0.57372 0.0
C105 C 0.46272 -0.00072 0.55106 0.0
C106 C 0.38682 0.02929 0.5158 0.0
C107 C 0.36651 -0.00063 0.50309 0.0
C108 C 0.41736 0.02818 0.52577 0.0
C109 C 0.428 -0.00302 0.52329 0.0
C110 C 0.37747 0.96837 0.50055 0.0
C111 C 0.40816 0.9674 0.51048 0.0
C112 C 0.4612 -0.0037 0.53344 0.0
H113 H 0.66504 0.04894 0.51848 0.0
H114 H 0.61085 0.05079 0.53521 0.0
H115 H 0.56994 0.9434 0.49063 0.0
H116 H 0.51609 0.94399 0.50806 0.0
H117 H 0.6171 0.9512 0.56649 0.0
H118 H 0.561 0.94831 0.54938 0.0
H119 H 0.62343 0.05443 0.59464 0.0
H120 H 0.56911 0.05299 0.57679 0.0
H121 H 0.32355 0.93907 0.56701 0.0
H122 H 0.37925 0.94167 0.54963 0.0
H123 H 0.41446 0.05019 0.59331 0.0
H124 H 0.47 0.05295 0.57576 0.0
H125 H 0.37895 0.05345 0.5181 0.0
H126 H 0.43299 0.05202 0.53529 0.0
H127 H 0.36281 0.94527 0.4907 0.0
H128 H 0.41628 0.9434 0.50821 0.0
N129 N 0.49274 0.99483 0.52534 0.0
N130 N 0.4961 0.00152 0.55919 0.0
C131 C 0.39009 0.36043 0.84754 0.0
C132 C 0.36555 0.37036 0.8371 0.0
C133 C 0.42168 0.39116 0.85754 0.0
C134 C 0.4295 0.43244 0.85725 0.0
C135 C 0.37364 0.41189 0.83689 0.0
C136 C 0.40558 0.44266 0.84673 0.0
C137 C 0.46333 0.46539 0.86749 0.0
C138 C 0.3626 0.38236 0.90376 0.0
C139 C 0.37518 0.36127 0.91492 0.0
C140 C 0.39194 0.41478 0.89381 0.0
C141 C 0.43441 0.4267 0.89479 0.0
C142 C 0.4178 0.3733 0.91578 0.0
C143 C 0.44712 0.40592 0.90592 0.0
C144 C 0.46607 0.46225 0.88497 0.0
C145 C 0.59751 0.63612 0.90449 0.0
C146 C 0.61958 0.6275 0.9167 0.0
C147 C 0.56803 0.60413 0.89426 0.0
C148 C 0.56019 0.56299 0.89603 0.0
C149 C 0.61125 0.58619 0.91858 0.0
C150 C 0.58157 0.55418 0.90843 0.0
C151 C 0.52854 0.52872 0.8855 0.0
C152 C 0.63383 0.6108 0.8514 0.0
C153 C 0.62332 0.62677 0.83741 0.0
C154 C 0.60272 0.57984 0.8613 0.0
C155 C 0.56026 0.56506 0.85783 0.0
C156 C 0.58073 0.61121 0.83375 0.0
C157 C 0.54963 0.58079 0.84386 0.0
C158 C 0.5268 0.53113 0.86788 0.0
H159 H 0.38546 0.32908 0.8478 0.0
H160 H 0.4404 0.38281 0.86533 0.0
H161 H 0.35504 0.42066 0.82925 0.0
H162 H 0.41122 0.4744 0.84632 0.0
H163 H 0.33022 0.37455 0.903 0.0
H164 H 0.38157 0.43112 0.88562 0.0
H165 H 0.42856 0.35741 0.92404 0.0
H166 H 0.4798 0.41479 0.90691 0.0
H167 H 0.60338 0.66767 0.90273 0.0
H168 H 0.55121 0.61148 0.88503 0.0
H169 H 0.62736 0.57853 0.92804 0.0
H170 H 0.5756 0.52256 0.91014 0.0
H171 H 0.66617 0.62213 0.85476 0.0
H172 H 0.61206 0.56711 0.87152 0.0
H173 H 0.57125 0.62189 0.82288 0.0
H174 H 0.51714 0.56938 0.84069 0.0
N175 N 0.49384 0.49958 0.8596 0.0
N176 N 0.49848 0.49409 0.89331 0.0
C177 C 0.96426 0.10419 0.06767 0.0
C178 C 0.987 0.08509 0.07293 0.0
C179 C 0.962 0.13388 0.07784 0.0
C180 C 0.9712 0.16881 0.1214 0.0
H181 H -0.00226 0.27584 0.10251 0.0
C182 C -0.00066 0.30823 0.16308 0.0
C183 C 0.98554 0.33521 0.15728 0.0
C184 C -0.00209 0.27707 0.15267 0.0
C185 C 0.98955 0.2459 0.10796 0.0
H186 H 0.0246 0.08146 0.09301 0.0
H187 H 0.02012 0.1328 0.11085 0.0
H188 H -0.00341 0.22182 0.08452 0.0
H189 H 0.95979 0.35061 0.13581 0.0
H190 H 0.95564 0.29527 0.11797 0.0
H191 H 0.96352 0.19235 0.14478 0.0
C192 C 0.00415 0.12492 0.09887 0.0
C193 C 0.98902 0.21503 0.09764 0.0
C194 C 0.00689 0.09573 0.08862 0.0
C195 C 0.97015 0.33008 0.14081 0.0
C196 C 0.96834 0.29866 0.13046 0.0
C197 C 0.97125 0.19947 0.1317 0.0
C198 C 0.98191 0.14447 0.09355 0.0
C199 C 0.98026 0.17636 0.1043 0.0
C200 C 0.98229 0.27178 0.13624 0.0
C201 C 0.98085 0.2386 0.12515 0.0
H202 H 0.94866 0.09658 0.05561 0.0
H203 H 0.94445 0.14835 0.0735 0.0
H204 H 0.96385 0.13904 0.12681 0.0
H205 H 0.01091 0.31086 0.17574 0.0
H206 H 0.00952 0.2574 0.1575 0.0
C207 C 0.86845 0.95646 0.41219 0.0
C208 C 0.90505 0.99431 0.40869 0.0
C209 C 0.83799 0.95582 0.42276 0.0
C210 C 0.79838 0.02288 0.43839 0.0
H211 H 0.74795 0.94026 0.47346 0.0
C212 C 0.68987 0.03267 0.48758 0.0
C213 C 0.65483 -0.00484 0.49274 0.0
C214 C 0.7205 0.03205 0.47756 0.0
C215 C 0.76128 0.96321 0.46359 0.0
H216 H 0.93866 0.0611 0.41357 0.0
H217 H 0.88542 0.06 0.4319 0.0
H218 H 0.80084 0.93961 0.45541 0.0
H219 H 0.62502 0.92749 0.49158 0.0
H220 H 0.67759 0.92642 0.47363 0.0
H221 H 0.75855 0.04614 0.44627 0.0
C222 C 0.88018 0.03087 0.42644 0.0
C223 C 0.79165 0.96286 0.45328 0.0
C224 C 0.91075 0.03144 0.41602 0.0
C225 C 0.65128 0.957 0.48766 0.0
C226 C 0.68178 0.95638 0.47755 0.0
C227 C 0.7678 0.02303 0.44858 0.0
C228 C 0.84341 0.9931 0.42986 0.0
C229 C 0.81066 0.99285 0.44064 0.0
C230 C 0.71674 0.99391 0.47233 0.0
C231 C 0.749 0.99334 0.46138 0.0
H232 H 0.86323 0.92736 0.40671 0.0
H233 H 0.80982 0.9263 0.42509 0.0
H234 H 0.81204 0.04598 0.42857 0.0
H235 H 0.69345 0.06265 0.49108 0.0
H236 H 0.74727 0.06158 0.474 0.0
C237 C 0.88802 0.86275 0.73672 0.0
C238 C 0.90959 0.90504 0.74149 0.0
C239 C 0.85761 0.83269 0.74717 0.0
C240 C 0.79073 0.82252 0.78378 0.0
H241 H 0.77273 0.70978 0.78456 0.0
C242 C 0.65119 0.69012 0.81884 0.0
C243 C 0.65657 0.6589 0.82653 0.0
C244 C 0.68212 0.71985 0.80847 0.0
C245 C 0.77761 0.74124 0.78471 0.0
H246 H 0.91736 0.94904 0.76108 0.0
H247 H 0.86589 0.89659 0.77967 0.0
H248 H 0.82778 0.76215 0.76727 0.0
H249 H 0.69911 0.63467 0.82909 0.0
H250 H 0.75381 0.68778 0.81195 0.0
H251 H 0.74208 0.80223 0.80188 0.0
C252 C 0.87108 0.88654 0.76763 0.0
C253 C 0.80885 0.77122 0.77452 0.0
C254 C 0.90089 0.91665 0.75704 0.0
C255 C 0.69395 0.65853 0.82366 0.0
C256 C 0.72517 0.68868 0.81352 0.0
C257 C 0.75998 0.79274 0.79418 0.0
C258 C 0.84864 0.84417 0.76278 0.0
C259 C 0.81575 0.81227 0.77384 0.0
C260 C 0.71965 0.71967 0.80571 0.0
C261 C 0.75281 0.75159 0.79474 0.0
H262 H 0.89392 0.85301 0.72473 0.0
H263 H 0.84058 0.8006 0.74282 0.0
H264 H 0.79449 0.85352 0.78344 0.0
H265 H 0.62317 0.69191 0.8209 0.0
H266 H 0.6763 0.74273 0.8025 0.0
C267 C 0.02487 0.89103 0.06901 0.0
C268 C 0.00652 0.91432 0.07448 0.0
C269 C 0.02523 0.86078 0.07937 0.0
C270 C 0.02277 0.83072 0.12274 0.0
H271 H 0.9742 0.71728 0.10582 0.0
C272 C -0.00696 0.69372 0.16594 0.0
C273 C -0.00305 0.66076 0.15917 0.0
C274 C -0.00488 0.72514 0.15559 0.0
C275 C 0.98863 0.74888 0.1107 0.0
H276 H 0.97514 0.92514 0.09514 0.0
H277 H 0.97685 0.87298 0.11343 0.0
H278 H 0.97808 0.77208 0.08774 0.0
H279 H 0.00715 0.63508 0.13648 0.0
H280 H 0.01258 0.69067 0.11846 0.0
H281 H 0.03461 0.80825 0.14551 0.0
C282 C 0.99052 0.87788 0.10108 0.0
C283 C 0.9906 0.78018 0.10033 0.0
C284 C 0.9894 0.90752 0.09061 0.0
C285 C 0.00351 0.65996 0.14193 0.0
C286 C 0.00638 0.69175 0.13162 0.0
C287 C 0.02154 0.79961 0.13304 0.0
C288 C 0.00803 0.85396 0.09548 0.0
C289 C 0.00741 0.82127 0.1063 0.0
C290 C 0.00195 0.72467 0.13828 0.0
C291 C 0.00415 0.75814 0.1272 0.0
H292 H 0.03819 0.8956 0.05661 0.0
H293 H 0.03906 0.84278 0.07482 0.0
H294 H 0.0362 0.86233 0.12756 0.0
H295 H 0.98763 0.69477 0.1792 0.0
H296 H 0.99071 0.7494 0.16116 0.0
C297 C 0.07862 0.96784 0.41601 0.0
C298 C 0.08524 0.00458 0.40812 0.0
C299 C 0.10937 0.96828 0.42633 0.0
C300 C 0.20204 0.03744 0.45162 0.0
H301 H 0.22697 0.94762 0.44696 0.0
C302 C 0.34072 0.03894 0.48603 0.0
C303 C 0.33433 0.00074 0.49239 0.0
C304 C 0.31067 0.04013 0.47576 0.0
C305 C 0.22006 0.97265 0.44859 0.0
H306 H 0.12902 0.07074 0.40499 0.0
H307 H 0.1829 0.07155 0.42311 0.0
H308 H 0.17392 0.94857 0.42913 0.0
H309 H 0.291 0.93399 0.49329 0.0
H310 H 0.23833 0.93605 0.47554 0.0
H311 H 0.24787 0.06132 0.47121 0.0
C312 C 0.15379 0.04244 0.42134 0.0
C313 C 0.1897 0.97323 0.43834 0.0
C314 C 0.12306 0.04195 0.41092 0.0
C315 C 0.29709 0.96382 0.48837 0.0
C316 C 0.26696 0.96502 0.47817 0.0
C317 C 0.2323 0.03677 0.46195 0.0
C318 C 0.14737 0.00551 0.42905 0.0
C319 C 0.18023 0.00553 0.43978 0.0
C320 C 0.27344 0.00317 0.47167 0.0
C321 C 0.24158 0.00427 0.4606 0.0
H322 H 0.04975 0.93856 0.41412 0.0
H323 H 0.10327 0.93945 0.43227 0.0
H324 H 0.1951 0.06249 0.45315 0.0
H325 H 0.36936 0.06786 0.48872 0.0
H326 H 0.31698 0.06996 0.47077 0.0
C327 C 0.09378 0.07582 0.75595 0.0
C328 C 0.08027 0.08741 0.74156 0.0
C329 C 0.12344 0.10628 0.76663 0.0
C330 C 0.17501 0.22 0.77693 0.0
H331 H 0.25675 0.19857 0.79832 0.0
C332 C 0.32384 0.34765 0.81031 0.0
C333 C 0.33198 0.3377 0.82636 0.0
C334 C 0.2923 0.31709 0.80026 0.0
C335 C 0.2339 0.20481 0.79252 0.0
H336 H 0.08724 0.13983 0.72697 0.0
H337 H 0.14015 0.19308 0.74522 0.0
H338 H 0.20372 0.14562 0.78002 0.0
H339 H 0.31259 0.28751 0.84439 0.0
H340 H 0.25852 0.23398 0.82654 0.0
H341 H 0.20639 0.27987 0.78911 0.0
C342 C 0.12707 0.16054 0.7486 0.0
C343 C 0.20334 0.17442 0.78209 0.0
C344 C 0.09691 0.13003 0.73805 0.0
C345 C 0.30784 0.29625 0.83201 0.0
C346 C 0.2767 0.26557 0.82184 0.0
C347 C 0.20598 0.25061 0.78718 0.0
C348 C 0.1408 0.14908 0.76303 0.0
C349 C 0.17337 0.18153 0.77418 0.0
C350 C 0.26857 0.27575 0.80589 0.0
C351 C 0.23564 0.24325 0.79509 0.0
H352 H 0.08121 0.04316 0.75904 0.0
H353 H 0.13249 0.09617 0.77778 0.0
H354 H 0.15208 0.22639 0.77134 0.0
H355 H 0.34225 0.37894 0.80537 0.0
H356 H 0.28698 0.32562 0.78792 0.0
C357 C 0.87695 0.96711 0.66982 0.0
C358 C 0.90739 0.00338 0.67802 0.0
C359 C 0.84676 0.96834 0.65969 0.0
C360 C 0.82559 0.03814 0.63453 0.0
H361 H 0.70951 0.95195 0.63956 0.0
C362 C 0.69186 0.04246 0.59849 0.0
C363 C 0.65831 0.0042 0.5928 0.0
C364 C 0.72252 0.04331 0.60903 0.0
C365 C 0.74182 0.97593 0.63781 0.0
H366 H 0.93046 0.0695 0.68195 0.0
H367 H 0.87779 0.07177 0.66399 0.0
H368 H 0.76262 0.95182 0.65763 0.0
H369 H 0.63092 0.93678 0.59384 0.0
H370 H 0.68513 0.93831 0.61159 0.0
H371 H 0.8051 0.06175 0.61444 0.0
C372 C 0.87735 0.04241 0.66547 0.0
C373 C 0.7722 0.97592 0.64823 0.0
C374 C 0.90732 0.04106 0.67578 0.0
C375 C 0.65651 0.96685 0.59778 0.0
C376 C 0.68733 0.96771 0.6082 0.0
C377 C 0.79524 0.03791 0.62397 0.0
C378 C 0.84664 0.00597 0.65741 0.0
C379 C 0.81439 0.00691 0.64665 0.0
C380 C 0.7206 0.00593 0.61406 0.0
C381 C 0.75296 0.00668 0.62543 0.0
H382 H 0.87623 0.9376 0.6713 0.0
H383 H 0.82374 0.93989 0.65349 0.0
H384 H 0.85797 0.06215 0.63294 0.0
H385 H 0.69463 0.07188 0.59473 0.0
H386 H 0.7474 0.07331 0.61341 0.0
C387 C 0.90834 0.88265 0.0031 0.0
C388 C 0.90159 0.91075 0.0126 0.0
C389 C 0.87702 0.85341 0.99263 0.0
C390 C 0.76307 0.79942 0.98472 0.0
H391 H 0.7951 0.77487 0.94184 0.0
C392 C 0.64297 0.69106 0.93484 0.0
C393 C 0.6513 0.66145 0.92742 0.0
C394 C 0.67283 0.72277 0.94508 0.0
C395 C 0.78572 0.7812 0.95382 0.0
H396 H 0.85672 0.93025 0.01867 0.0
H397 H 0.802 0.87947 0.00011 0.0
H398 H 0.84823 0.82818 0.95997 0.0
H399 H 0.69759 0.64215 0.9247 0.0
H400 H 0.74969 0.69743 0.94259 0.0
H401 H 0.70039 0.75241 0.97843 0.0
C402 C 0.83136 0.87967 0.00094 0.0
C403 C 0.81615 0.81168 0.96424 0.0
C404 C 0.86274 0.90888 0.01151 0.0
C405 C 0.69017 0.66433 0.93036 0.0
C406 C 0.72012 0.6962 0.94047 0.0
C407 C 0.73254 0.76906 0.97423 0.0
C408 C 0.83824 0.85172 0.99131 0.0
C409 C 0.80532 0.82079 0.97991 0.0
C410 C 0.71176 0.72572 0.94795 0.0
C411 C 0.74366 0.7593 0.95876 0.0
H412 H 0.93787 0.88314 0.00377 0.0
H413 H 0.88312 0.83183 0.98567 0.0
H414 H 0.75369 0.80532 -0.00322 0.0
H415 H 0.61314 0.6894 0.93289 0.0
H416 H 0.66565 0.74525 0.9506 0.0
C417 C 0.02026 0.91415 0.33314 0.0
C418 C 0.98473 0.90779 0.34196 0.0
C419 C 0.01829 0.88314 0.32252 0.0
C420 C 0.95657 0.76954 0.31413 0.0
H421 H 0.01869 0.8002 0.27258 0.0
C422 C 0.94598 0.64727 0.26587 0.0
C423 C 0.98409 0.65427 0.25917 0.0
C424 C 0.94442 0.67796 0.27562 0.0
C425 C 0.00143 0.79119 0.2842 0.0
H426 H 0.91909 0.86424 0.34641 0.0
H427 H 0.91542 0.81018 0.32761 0.0
H428 H 0.01824 0.85429 0.28998 0.0
H429 H 0.05032 0.69907 0.25725 0.0
H430 H 0.04766 0.75255 0.27434 0.0
H431 H 0.93974 0.70636 0.30828 0.0
C432 C 0.94501 0.8389 0.32912 0.0
C433 C 0.0012 0.82217 0.29419 0.0
C434 C 0.94702 0.86994 0.3398 0.0
C435 C 0.02057 0.69263 0.26236 0.0
C436 C 0.01896 0.72341 0.272 0.0
C437 C 0.95664 0.73851 0.30409 0.0
C438 C 0.98069 0.84508 0.3204 0.0
C439 C 0.97913 0.8118 0.30937 0.0
C440 C 0.98089 0.7164 0.27875 0.0
C441 C 0.97941 0.74907 0.2891 0.0
H442 H 0.04982 0.94293 0.3346 0.0
H443 H 0.04655 0.88872 0.31622 0.0
H444 H 0.93973 0.7605 0.32585 0.0
H445 H 0.91741 0.61787 0.26372 0.0
H446 H 0.91459 0.67177 0.28055 0.0
C447 C 0.1075 0.02389 0.66777 0.0
C448 C 0.08051 0.98877 0.67731 0.0
C449 C 0.13775 0.02315 0.65758 0.0
C450 C 0.16438 0.95315 0.63511 0.0
H451 H 0.27711 0.04813 0.63658 0.0
C452 C 0.30135 0.95467 0.59947 0.0
C453 C 0.33116 0.99262 0.59224 0.0
C454 C 0.27044 0.95316 0.60998 0.0
C455 C 0.24569 0.02159 0.63582 0.0
H456 H 0.06359 0.92513 0.68351 0.0
H457 H 0.11642 0.92369 0.66549 0.0
H458 H 0.2236 0.04719 0.6546 0.0
H459 H 0.3513 0.05847 0.58996 0.0
H460 H 0.29693 0.0558 0.60799 0.0
H461 H 0.18616 0.92785 0.61609 0.0
C462 C 0.11407 0.95177 0.66595 0.0
C463 C 0.21508 0.02102 0.64621 0.0
C464 C 0.08401 0.95265 0.6763 0.0
C465 C 0.32909 0.02891 0.59556 0.0
C466 C 0.298 0.02735 0.60594 0.0
C467 C 0.19494 0.95386 0.62459 0.0
C468 C 0.14145 0.98715 0.6566 0.0
C469 C 0.17407 0.98692 0.6459 0.0
C470 C 0.26845 0.98953 0.6134 0.0
C471 C 0.23595 0.98822 0.62476 0.0
H472 H 0.10554 0.05217 0.66828 0.0
H473 H 0.15809 0.05069 0.65036 0.0
H474 H 0.1329 0.92663 0.6345 0.0
H475 H 0.3025 0.9263 0.59728 0.0
H476 H 0.24861 0.92362 0.61568 0.0
C477 C 0.08539 0.08924 0.99508 0.0
C478 C 0.09482 0.08173 0.01128 0.0
C479 C 0.11702 0.11778 0.98465 0.0
C480 C 0.2208 0.21082 0.98566 0.0
H481 H 0.22573 0.18374 0.93912 0.0
C482 C 0.35449 0.32385 0.94249 0.0
C483 C 0.34415 0.32758 0.92589 0.0
C484 C 0.32521 0.29267 0.95289 0.0
C485 C 0.22452 0.19203 0.95203 0.0
H486 H 0.14468 0.09799 0.02928 0.0
H487 H 0.20006 0.14842 0.01106 0.0
H488 H 0.17248 0.1314 0.95733 0.0
H489 H 0.29486 0.30081 0.90717 0.0
H490 H 0.24334 0.24753 0.92547 0.0
H491 H 0.27196 0.27174 0.98036 0.0
C492 C 0.16815 0.13213 0.00647 0.0
C493 C 0.19411 0.16196 0.96246 0.0
C494 C 0.13654 0.10317 0.01684 0.0
C495 C 0.30378 0.29922 0.91994 0.0
C496 C 0.27438 0.26823 0.93038 0.0
C497 C 0.25096 0.24104 0.9752 0.0
C498 C 0.15867 0.13974 0.99027 0.0
C499 C 0.19186 0.17111 0.97936 0.0
C500 C 0.28469 0.2646 0.94701 0.0
C501 C 0.25313 0.23209 0.95823 0.0
H502 H 0.05351 0.07313 0.99046 0.0
H503 H 0.10876 0.12333 0.9723 0.0
H504 H 0.21942 0.21889 -0.00141 0.0
H505 H 0.38507 0.34544 0.94758 0.0
H506 H 0.33446 0.29051 0.96554 0.0
C507 C 0.0395 0.12613 0.33885 0.0
C508 C 0.00125 0.09012 0.3425 0.0
C509 C 0.04071 0.15688 0.32829 0.0
C510 C 0.97499 0.1983 0.31281 0.0
H511 H 0.05671 0.24657 0.27731 0.0
C512 C 0.96422 0.30422 0.2628 0.0
C513 C 0.00154 0.33913 0.25741 0.0
C514 C 0.96517 0.27411 0.27303 0.0
C515 C 0.03404 0.23383 0.2873 0.0
H516 H 0.93439 0.05787 0.33791 0.0
H517 H 0.93651 0.11155 0.3196 0.0
H518 H 0.05708 0.19391 0.29561 0.0
H519 H 0.06921 0.36925 0.25836 0.0
H520 H 0.07086 0.31742 0.27664 0.0
H521 H 0.95218 0.23836 0.30475 0.0
C522 C 0.9655 0.11616 0.32494 0.0
C523 C 0.03423 0.20362 0.29776 0.0
C524 C 0.96433 0.08532 0.33535 0.0
C525 C 0.03986 0.34304 0.26244 0.0
C526 C 0.04081 0.31301 0.27276 0.0
C527 C 0.97497 0.22866 0.30246 0.0
C528 C 0.00365 0.15233 0.32135 0.0
C529 C 0.00447 0.18531 0.31053 0.0
C530 C 0.00345 0.27825 0.27825 0.0
C531 C 0.00426 0.24659 0.28948 0.0
H532 H 0.06845 0.13063 0.34419 0.0
H533 H 0.07053 0.18457 0.32582 0.0
H534 H 0.95211 0.18524 0.32273 0.0
H535 H 0.93414 0.30039 0.25935 0.0
H536 H 0.93577 0.24746 0.2768 0.0
loop_
_geom_bond_atom_site_label_1
_geom_bond_atom_site_label_2
_geom_bond_distance
_geom_bond_site_symmetry_2
_ccdc_geom_bond_type
In0 O1 2.294 1_455 S
In0 O2 2.326 . S
In0 O6 2.266 1_445 S
In0 O7 2.326 1_445 S
In0 O8 2.266 1_545 S
In0 O9 2.326 1_445 S
In0 O11 2.294 . S
In0 O12 2.326 . S
O1 In0 2.294 1_655 S
O1 C10 1.240 1_655 S
O2 In0 2.326 . S
O2 C10 1.252 . S
C3 O6 1.252 . S
C3 O7 1.260 . S
C4 O11 1.240 . S
C4 O12 1.252 . S
C5 O8 1.247 1_655 S
C5 O9 1.269 . S
O6 In0 2.266 1_665 S
O6 C3 1.252 . S
O7 In0 2.326 1_665 S
O7 C3 1.260 . S
O8 In0 2.266 1_565 S
O8 C5 1.247 1_455 S
O9 In0 2.326 1_665 S
O9 C5 1.269 . S
C10 O1 1.240 1_455 S
C10 O2 1.252 . S
O11 In0 2.294 . S
O11 C4 1.240 . S
O12 In0 2.326 . S
O12 C4 1.252 . S
In13 O14 2.291 . S
In13 O15 2.305 1_455 S
In13 O19 2.292 . S
In13 O20 2.343 1_545 S
In13 O21 2.269 1_445 S
In13 O22 2.347 1_545 S
In13 O24 2.269 1_445 S
In13 O25 2.308 1_455 S
O14 In13 2.291 . S
O14 C23 1.240 1_455 S
O15 In13 2.305 1_655 S
O15 C23 1.252 . S
C16 O19 1.245 1_565 S
C16 O20 1.263 . S
C17 O24 1.240 1_545 S
C17 O25 1.252 . S
C18 O21 1.252 1_455 S
C18 O22 1.260 . S
O19 In13 2.292 . S
O19 C16 1.245 1_545 S
O20 In13 2.343 1_565 S
O20 C16 1.263 . S
O21 In13 2.269 1_665 S
O21 C18 1.252 1_655 S
O22 In13 2.347 1_565 S
O22 C18 1.260 . S
C23 O14 1.240 1_655 S
C23 O15 1.252 . S
O24 In13 2.269 1_665 S
O24 C17 1.240 1_565 S
O25 In13 2.308 1_655 S
O25 C17 1.252 . S
In26 O27 2.274 1_445 S
In26 O28 2.306 1_445 S
In26 O32 2.276 1_545 S
In26 O33 2.347 . S
In26 O34 2.287 . S
In26 O35 2.345 . S
In26 O37 2.285 1_455 S
In26 O38 2.305 1_445 S
O27 In26 2.274 1_665 S
O27 C36 1.240 . S
O28 In26 2.306 1_665 S
O28 C36 1.252 . S
C29 O32 1.252 1_545 S
C29 O33 1.260 . S
C30 O37 1.240 1_565 S
C30 O38 1.252 . S
C31 O34 1.252 . S
C31 O35 1.260 . S
O32 In26 2.276 1_565 S
O32 C29 1.252 1_565 S
O33 In26 2.347 . S
O33 C29 1.260 . S
O34 In26 2.287 . S
O34 C31 1.252 . S
O35 In26 2.345 . S
O35 C31 1.260 . S
C36 O27 1.240 . S
C36 O28 1.252 . S
O37 In26 2.285 1_655 S
O37 C30 1.240 1_545 S
O38 In26 2.305 1_665 S
O38 C30 1.252 . S
C39 C40 1.384 1_655 S
C39 C41 1.384 . S
C39 H67 0.931 . S
C40 C39 1.384 1_455 S
C40 C43 1.382 . S
C41 C39 1.384 . S
C41 C42 1.381 1_655 S
C41 H68 0.930 . S
C42 C41 1.381 1_455 S
C42 C44 1.381 . S
C42 C45 1.487 . S
C43 C40 1.382 . S
C43 C44 1.387 . S
C43 H69 0.930 . S
C44 C42 1.381 . S
C44 C43 1.387 . S
C44 H70 0.931 . S
C45 C42 1.487 . S
C45 C52 1.401 . S
C45 N83 1.343 . S
C46 C47 1.384 . S
C46 C48 1.384 . S
C46 H71 0.931 . S
C47 C46 1.384 . S
C47 C50 1.382 1_455 S
C48 C46 1.384 . S
C48 C49 1.385 . S
C48 H72 0.930 . S
C49 C48 1.385 . S
C49 C51 1.379 1_455 S
C49 C52 1.494 . S
C50 C47 1.382 1_655 S
C50 C51 1.387 . S
C50 H73 0.930 . S
C51 C49 1.379 1_655 S
C51 C50 1.387 . S
C51 H74 0.931 . S
C52 C45 1.401 . S
C52 C49 1.494 . S
C52 N84 1.333 1_455 S
C53 C54 1.384 . S
C53 C55 1.384 . S
C53 H75 0.931 . S
C54 C53 1.384 . S
C54 C57 1.382 1_455 S
C55 C53 1.384 . S
C55 C56 1.382 . S
C55 H76 0.930 . S
C56 C55 1.382 . S
C56 C58 1.379 1_455 S
C56 C59 1.479 . S
C57 C54 1.382 1_655 S
C57 C58 1.387 . S
C57 H77 0.930 . S
C58 C56 1.379 1_655 S
C58 C57 1.387 . S
C58 H78 0.931 . S
C59 C56 1.479 . S
C59 C66 1.401 . S
C59 N84 1.351 1_455 S
C60 C61 1.384 1_655 S
C60 C62 1.384 . S
C60 H79 0.931 . S
C61 C60 1.384 1_455 S
C61 C64 1.382 . S
C62 C60 1.384 . S
C62 C63 1.381 1_655 S
C62 H80 0.930 . S
C63 C62 1.381 1_455 S
C63 C65 1.381 . S
C63 C66 1.487 . S
C64 C61 1.382 . S
C64 C65 1.387 . S
C64 H81 0.930 . S
C65 C63 1.381 . S
C65 C64 1.387 . S
C65 H82 0.931 . S
C66 C59 1.401 . S
C66 C63 1.487 . S
C66 N83 1.343 . S
H67 C39 0.931 . S
H68 C41 0.930 . S
H69 C43 0.930 . S
H70 C44 0.931 . S
H71 C46 0.931 . S
H72 C48 0.930 . S
H73 C50 0.930 . S
H74 C51 0.931 . S
H75 C53 0.931 . S
H76 C55 0.930 . S
H77 C57 0.930 . S
H78 C58 0.931 . S
H79 C60 0.931 . S
H80 C62 0.930 . S
H81 C64 0.930 . S
H82 C65 0.931 . S
N83 C45 1.343 . S
N83 C66 1.343 . S
N84 C52 1.333 1_655 S
N84 C59 1.351 1_655 S
C85 C86 1.384 . S
C85 C87 1.384 . S
C85 H113 0.931 . S
C86 C85 1.384 . S
C86 C89 1.382 1_545 S
C87 C85 1.384 . S
C87 C88 1.381 . S
C87 H114 0.930 . S
C88 C87 1.381 . S
C88 C90 1.382 1_545 S
C88 C91 1.480 . S
C89 C86 1.382 1_565 S
C89 C90 1.387 . S
C89 H115 0.930 . S
C90 C88 1.382 1_565 S
C90 C89 1.387 . S
C90 H116 0.931 . S
C91 C88 1.480 . S
C91 C98 1.400 . S
C91 N129 1.350 1_545 S
C92 C93 1.384 1_565 S
C92 C94 1.384 . S
C92 H117 0.931 . S
C93 C92 1.384 1_545 S
C93 C96 1.382 . S
C94 C92 1.384 . S
C94 C95 1.381 1_565 S
C94 H118 0.930 . S
C95 C94 1.381 1_545 S
C95 C97 1.381 . S
C95 C98 1.487 . S
C96 C93 1.382 . S
C96 C97 1.387 . S
C96 H119 0.930 . S
C97 C95 1.381 . S
C97 C96 1.387 . S
C97 H120 0.931 . S
C98 C91 1.400 . S
C98 C95 1.487 . S
C98 N130 1.343 . S
C99 C100 1.384 1_565 S
C99 C101 1.384 . S
C99 H121 0.931 . S
C100 C99 1.384 1_545 S
C100 C103 1.382 . S
C101 C99 1.384 . S
C101 C102 1.381 1_565 S
C101 H122 0.930 . S
C102 C101 1.381 1_545 S
C102 C104 1.381 . S
C102 C105 1.487 . S
C103 C100 1.382 . S
C103 C104 1.387 . S
C103 H123 0.930 . S
C104 C102 1.381 . S
C104 C103 1.387 . S
C104 H124 0.931 . S
C105 C102 1.487 . S
C105 C112 1.400 . S
C105 N130 1.343 . S
C106 C107 1.384 . S
C106 C108 1.384 . S
C106 H125 0.931 . S
C107 C106 1.384 . S
C107 C110 1.382 1_545 S
C108 C106 1.384 . S
C108 C109 1.381 . S
C108 H126 0.930 . S
C109 C108 1.381 . S
C109 C111 1.382 1_545 S
C109 C112 1.494 . S
C110 C107 1.382 1_565 S
C110 C111 1.387 . S
C110 H127 0.930 . S
C111 C109 1.382 1_565 S
C111 C110 1.387 . S
C111 H128 0.931 . S
C112 C105 1.400 . S
C112 C109 1.494 . S
C112 N129 1.335 1_545 S
H113 C85 0.931 . S
H114 C87 0.930 . S
H115 C89 0.930 . S
H116 C90 0.931 . S
H117 C92 0.931 . S
H118 C94 0.930 . S
H119 C96 0.930 . S
H120 C97 0.931 . S
H121 C99 0.931 . S
H122 C101 0.930 . S
H123 C103 0.930 . S
H124 C104 0.931 . S
H125 C106 0.931 . S
H126 C108 0.930 . S
H127 C110 0.930 . S
H128 C111 0.931 . S
N129 C91 1.350 1_565 S
N129 C112 1.335 1_565 S
N130 C98 1.343 . S
N130 C105 1.343 . S
C131 C132 1.384 . S
C131 C133 1.384 . S
C131 H159 0.931 . S
C132 C131 1.384 . S
C132 C135 1.382 . S
C133 C131 1.384 . S
C133 C134 1.381 . S
C133 H160 0.930 . S
C134 C133 1.381 . S
C134 C136 1.381 . S
C134 C137 1.487 . S
C135 C132 1.382 . S
C135 C136 1.387 . S
C135 H161 0.930 . S
C136 C134 1.381 . S
C136 C135 1.387 . S
C136 H162 0.931 . S
C137 C134 1.487 . S
C137 C144 1.399 . S
C137 N175 1.343 . S
C138 C139 1.384 . S
C138 C140 1.384 . S
C138 H163 0.931 . S
C139 C138 1.384 . S
C139 C142 1.382 . S
C140 C138 1.384 . S
C140 C141 1.381 . S
C140 H164 0.930 . S
C141 C140 1.381 . S
C141 C143 1.381 . S
C141 C144 1.487 . S
C142 C139 1.382 . S
C142 C143 1.387 . S
C142 H165 0.930 . S
C143 C141 1.381 . S
C143 C142 1.387 . S
C143 H166 0.931 . S
C144 C137 1.399 . S
C144 C141 1.487 . S
C144 N176 1.343 . S
C145 C146 1.384 . S
C145 C147 1.384 . S
C145 H167 0.931 . S
C146 C145 1.384 . S
C146 C149 1.382 . S
C147 C145 1.384 . S
C147 C148 1.381 . S
C147 H168 0.930 . S
C148 C147 1.381 . S
C148 C150 1.381 . S
C148 C151 1.487 . S
C149 C146 1.382 . S
C149 C150 1.387 . S
C149 H169 0.930 . S
C150 C148 1.381 . S
C150 C149 1.387 . S
C150 H170 0.931 . S
C151 C148 1.487 . S
C151 C158 1.399 . S
C151 N176 1.343 . S
C152 C153 1.384 . S
C152 C154 1.384 . S
C152 H171 0.931 . S
C153 C152 1.384 . S
C153 C156 1.382 . S
C154 C152 1.384 . S
C154 C155 1.381 . S
C154 H172 0.930 . S
C155 C154 1.381 . S
C155 C157 1.381 . S
C155 C158 1.487 . S
C156 C153 1.382 . S
C156 C157 1.387 . S
C156 H173 0.930 . S
C157 C155 1.381 . S
C157 C156 1.387 . S
C157 H174 0.931 . S
C158 C151 1.399 . S
C158 C155 1.487 . S
C158 N175 1.343 . S
H159 C131 0.931 . S
H160 C133 0.930 . S
H161 C135 0.930 . S
H162 C136 0.931 . S
H163 C138 0.931 . S
H164 C140 0.930 . S
H165 C142 0.930 . S
H166 C143 0.931 . S
H167 C145 0.931 . S
H168 C147 0.930 . S
H169 C149 0.930 . S
H170 C150 0.931 . S
H171 C152 0.931 . S
H172 C154 0.930 . S
H173 C156 0.930 . S
H174 C157 0.931 . S
N175 C137 1.343 . S
N175 C158 1.343 . S
N176 C144 1.343 . S
N176 C151 1.343 . S
C177 C178 1.349 . S
C177 C179 1.327 . S
C177 H202 0.950 1_455 S
C178 C177 1.349 . S
C178 C194 1.349 . S
C179 C177 1.327 . S
C179 C198 1.429 . S
C179 H203 0.950 1_455 S
C180 C197 1.574 . S
C180 C199 1.368 . S
C180 H204 0.949 . S
H181 C185 0.944 1_655 S
C182 C183 1.349 . S
C182 C184 1.327 . S
C182 H205 0.950 . S
C183 C182 1.349 . S
C183 C195 1.346 1_455 S
C184 C182 1.327 . S
C184 C200 1.429 . S
C184 H206 0.950 . S
C185 H181 0.944 1_455 S
C185 C193 1.565 . S
C185 C201 1.370 . S
H186 C194 0.950 . S
H187 C192 0.950 . S
H188 C193 0.947 1_655 S
H189 C195 0.965 . S
H190 C196 0.952 . S
H191 C197 0.949 . S
C192 H187 0.950 . S
C192 C194 1.327 . S
C192 C198 1.429 . S
C193 C185 1.565 . S
C193 H188 0.947 1_455 S
C193 C199 1.384 . S
C194 C178 1.349 . S
C194 H186 0.950 . S
C194 C192 1.327 . S
C195 C183 1.346 1_655 S
C195 H189 0.965 . S
C195 C196 1.321 . S
C196 H190 0.952 . S
C196 C195 1.321 . S
C196 C200 1.421 1_655 S
C197 C180 1.574 . S
C197 H191 0.949 . S
C197 C201 1.368 . S
C198 C179 1.429 . S
C198 C192 1.429 . S
C198 C199 1.523 . S
C199 C180 1.368 . S
C199 C193 1.384 . S
C199 C198 1.523 . S
C200 C184 1.429 . S
C200 C196 1.421 1_455 S
C200 C201 1.523 . S
C201 C185 1.370 . S
C201 C197 1.368 . S
C201 C200 1.523 . S
H202 C177 0.950 1_655 S
H203 C179 0.950 1_655 S
H204 C180 0.949 . S
H205 C182 0.950 . S
H206 C184 0.950 . S
C207 C208 1.349 1_565 S
C207 C209 1.327 . S
C207 H232 0.950 . S
C208 C207 1.349 1_545 S
C208 C224 1.349 . S
C209 C207 1.327 . S
C209 C228 1.429 1_565 S
C209 H233 0.950 . S
C210 C227 1.574 . S
C210 C229 1.368 . S
C210 H234 0.949 . S
H211 C215 0.949 . S
C212 C213 1.349 . S
C212 C214 1.327 . S
C212 H235 0.950 . S
C213 C212 1.349 . S
C213 C225 1.349 1_545 S
C214 C212 1.327 . S
C214 C230 1.429 . S
C214 H236 0.950 . S
C215 H211 0.949 . S
C215 C223 1.574 . S
C215 C231 1.368 1_565 S
H216 C224 0.950 . S
H217 C222 0.950 . S
H218 C223 0.949 . S
H219 C225 0.950 . S
H220 C226 0.950 . S
H221 C227 0.949 . S
C222 H217 0.950 . S
C222 C224 1.327 . S
C222 C228 1.429 . S
C223 C215 1.574 . S
C223 H218 0.949 . S
C223 C229 1.368 1_565 S
C224 C208 1.349 . S
C224 H216 0.950 . S
C224 C222 1.327 . S
C225 C213 1.349 1_565 S
C225 H219 0.950 . S
C225 C226 1.327 . S
C226 H220 0.950 . S
C226 C225 1.327 . S
C226 C230 1.429 1_565 S
C227 C210 1.574 . S
C227 H221 0.949 . S
C227 C231 1.368 . S
C228 C209 1.429 1_545 S
C228 C222 1.429 . S
C228 C229 1.523 . S
C229 C210 1.368 . S
C229 C223 1.368 1_545 S
C229 C228 1.523 . S
C230 C214 1.429 . S
C230 C226 1.429 1_545 S
C230 C231 1.523 . S
C231 C215 1.368 1_545 S
C231 C227 1.368 . S
C231 C230 1.523 . S
H232 C207 0.950 . S
H233 C209 0.950 . S
H234 C210 0.949 . S
H235 C212 0.950 . S
H236 C214 0.950 . S
C237 C238 1.349 . S
C237 C239 1.327 . S
C237 H262 0.950 . S
C238 C237 1.349 . S
C238 C254 1.349 . S
C239 C237 1.327 . S
C239 C258 1.429 . S
C239 H263 0.950 . S
C240 C257 1.574 . S
C240 C259 1.368 . S
C240 H264 0.949 . S
H241 C245 0.949 . S
C242 C243 1.349 . S
C242 C244 1.327 . S
C242 H265 0.950 . S
C243 C242 1.349 . S
C243 C255 1.349 . S
C244 C242 1.327 . S
C244 C260 1.429 . S
C244 H266 0.950 . S
C245 H241 0.949 . S
C245 C253 1.574 . S
C245 C261 1.368 . S
H246 C254 0.950 . S
H247 C252 0.950 . S
H248 C253 0.949 . S
H249 C255 0.950 . S
H250 C256 0.950 . S
H251 C257 0.949 . S
C252 H247 0.950 . S
C252 C254 1.327 . S
C252 C258 1.429 . S
C253 C245 1.574 . S
C253 H248 0.949 . S
C253 C259 1.368 . S
C254 C238 1.349 . S
C254 H246 0.950 . S
C254 C252 1.327 . S
C255 C243 1.349 . S
C255 H249 0.950 . S
C255 C256 1.327 . S
C256 H250 0.950 . S
C256 C255 1.327 . S
C256 C260 1.429 . S
C257 C240 1.574 . S
C257 H251 0.949 . S
C257 C261 1.368 . S
C258 C239 1.429 . S
C258 C252 1.429 . S
C258 C259 1.523 . S
C259 C240 1.368 . S
C259 C253 1.368 . S
C259 C258 1.523 . S
C260 C244 1.429 . S
C260 C256 1.429 . S
C260 C261 1.523 . S
C261 C245 1.368 . S
C261 C257 1.368 . S
C261 C260 1.523 . S
H262 C237 0.950 . S
H263 C239 0.950 . S
H264 C240 0.949 . S
H265 C242 0.950 . S
H266 C244 0.950 . S
C267 C268 1.350 . S
C267 C269 1.327 . S
C267 H292 0.950 . S
C268 C267 1.350 . S
C268 C284 1.349 1_655 S
C269 C267 1.327 . S
C269 C288 1.426 1_655 S
C269 H293 0.950 . S
C270 C287 1.574 . S
C270 C289 1.368 . S
C270 H294 0.949 . S
H271 C275 0.949 . S
C272 C273 1.349 . S
C272 C274 1.327 . S
C272 H295 0.950 . S
C273 C272 1.349 . S
C273 C285 1.349 1_455 S
C274 C272 1.327 . S
C274 C290 1.429 . S
C274 H296 0.950 . S
C275 H271 0.949 . S
C275 C283 1.574 . S
C275 C291 1.368 1_655 S
H276 C284 0.950 . S
H277 C282 0.950 . S
H278 C283 0.949 . S
H279 C285 0.950 . S
H280 C286 0.950 . S
H281 C287 0.949 . S
C282 H277 0.950 . S
C282 C284 1.327 . S
C282 C288 1.423 . S
C283 C275 1.574 . S
C283 H278 0.949 . S
C283 C289 1.368 1_655 S
C284 C268 1.349 1_455 S
C284 H276 0.950 . S
C284 C282 1.327 . S
C285 C273 1.349 1_655 S
C285 H279 0.950 . S
C285 C286 1.327 . S
C286 H280 0.950 . S
C286 C285 1.327 . S
C286 C290 1.429 1_655 S
C287 C270 1.574 . S
C287 H281 0.949 . S
C287 C291 1.368 . S
C288 C269 1.426 1_455 S
C288 C282 1.423 . S
C288 C289 1.531 . S
C289 C270 1.368 . S
C289 C283 1.368 1_455 S
C289 C288 1.531 . S
C290 C274 1.429 . S
C290 C286 1.429 1_455 S
C290 C291 1.523 . S
C291 C275 1.368 1_455 S
C291 C287 1.368 . S
C291 C290 1.523 . S
H292 C267 0.950 . S
H293 C269 0.950 . S
H294 C270 0.949 . S
H295 C272 0.950 . S
H296 C274 0.950 . S
C297 C298 1.347 . S
C297 C299 1.327 . S
C297 H322 0.950 . S
C298 C297 1.347 . S
C298 C314 1.350 1_565 S
C299 C297 1.327 . S
C299 C318 1.419 1_565 S
C299 H323 0.950 . S
C300 C317 1.574 . S
C300 C319 1.389 . S
C300 H324 0.949 . S
H301 C305 0.949 . S
C302 C303 1.349 . S
C302 C304 1.327 . S
C302 H325 0.950 . S
C303 C302 1.349 . S
C303 C315 1.349 1_545 S
C304 C302 1.327 . S
C304 C320 1.429 . S
C304 H326 0.950 . S
C305 H301 0.949 . S
C305 C313 1.574 . S
C305 C321 1.368 1_565 S
H306 C314 0.950 . S
H307 C312 0.950 . S
H308 C313 0.949 . S
H309 C315 0.950 . S
H310 C316 0.950 . S
H311 C317 0.949 . S
C312 H307 0.950 . S
C312 C314 1.327 . S
C312 C318 1.446 . S
C313 C305 1.574 . S
C313 H308 0.949 . S
C313 C319 1.338 1_565 S
C314 C298 1.350 1_545 S
C314 H306 0.950 . S
C314 C312 1.327 . S
C315 C303 1.349 1_565 S
C315 H309 0.950 . S
C315 C316 1.327 . S
C316 H310 0.950 . S
C316 C315 1.327 . S
C316 C320 1.429 1_565 S
C317 C300 1.574 . S
C317 H311 0.949 . S
C317 C321 1.368 . S
C318 C299 1.419 1_545 S
C318 C312 1.446 . S
C318 C319 1.528 . S
C319 C300 1.389 . S
C319 C313 1.338 1_545 S
C319 C318 1.528 . S
C320 C304 1.429 . S
C320 C316 1.429 1_545 S
C320 C321 1.523 . S
C321 C305 1.368 1_545 S
C321 C317 1.368 . S
C321 C320 1.523 . S
H322 C297 0.950 . S
H323 C299 0.950 . S
H324 C300 0.949 . S
H325 C302 0.950 . S
H326 C304 0.950 . S
C327 C328 1.349 . S
C327 C329 1.327 . S
C327 H352 0.950 . S
C328 C327 1.349 . S
C328 C344 1.349 . S
C329 C327 1.327 . S
C329 C348 1.429 . S
C329 H353 0.950 . S
C330 C347 1.574 . S
C330 C349 1.368 . S
C330 H354 0.949 . S
H331 C335 0.949 . S
C332 C333 1.349 . S
C332 C334 1.327 . S
C332 H355 0.950 . S
C333 C332 1.349 . S
C333 C345 1.349 . S
C334 C332 1.327 . S
C334 C350 1.429 . S
C334 H356 0.950 . S
C335 H331 0.949 . S
C335 C343 1.574 . S
C335 C351 1.368 . S
H336 C344 0.950 . S
H337 C342 0.950 . S
H338 C343 0.949 . S
H339 C345 0.950 . S
H340 C346 0.950 . S
H341 C347 0.949 . S
C342 H337 0.950 . S
C342 C344 1.327 . S
C342 C348 1.429 . S
C343 C335 1.574 . S
C343 H338 0.949 . S
C343 C349 1.368 . S
C344 C328 1.349 . S
C344 H336 0.950 . S
C344 C342 1.327 . S
C345 C333 1.349 . S
C345 H339 0.950 . S
C345 C346 1.327 . S
C346 H340 0.950 . S
C346 C345 1.327 . S
C346 C350 1.429 . S
C347 C330 1.574 . S
C347 H341 0.949 . S
C347 C351 1.368 . S
C348 C329 1.429 . S
C348 C342 1.429 . S
C348 C349 1.523 . S
C349 C330 1.368 . S
C349 C343 1.368 . S
C349 C348 1.523 . S
C350 C334 1.429 . S
C350 C346 1.429 . S
C350 C351 1.523 . S
C351 C335 1.368 . S
C351 C347 1.368 . S
C351 C350 1.523 . S
H352 C327 0.950 . S
H353 C329 0.950 . S
H354 C330 0.949 . S
H355 C332 0.950 . S
H356 C334 0.950 . S
C357 C358 1.349 . S
C357 C359 1.327 . S
C357 H382 0.950 . S
C358 C357 1.349 . S
C358 C374 1.349 1_565 S
C359 C357 1.327 . S
C359 C378 1.429 . S
C359 H383 0.950 . S
C360 C377 1.574 . S
C360 C379 1.348 1_545 S
C360 H384 0.949 . S
H361 C365 0.949 . S
C362 C363 1.349 . S
C362 C364 1.327 . S
C362 H385 0.950 . S
C363 C362 1.349 . S
C363 C375 1.349 1_545 S
C364 C362 1.327 . S
C364 C380 1.440 . S
C364 H386 0.950 . S
C365 H361 0.949 . S
C365 C373 1.574 . S
C365 C381 1.371 1_565 S
H366 C374 0.950 . S
H367 C372 0.950 . S
H368 C373 0.949 . S
H369 C375 0.950 . S
H370 C376 0.950 . S
H371 C377 0.949 . S
C372 H367 0.950 . S
C372 C374 1.327 . S
C372 C378 1.429 1_545 S
C373 C365 1.574 . S
C373 H368 0.949 . S
C373 C379 1.379 . S
C374 C358 1.349 1_545 S
C374 H366 0.950 . S
C374 C372 1.327 . S
C375 C363 1.349 1_565 S
C375 H369 0.950 . S
C375 C376 1.327 . S
C376 H370 0.950 . S
C376 C375 1.327 . S
C376 C380 1.425 1_565 S
C377 C360 1.574 . S
C377 H371 0.949 . S
C377 C381 1.367 . S
C378 C359 1.429 . S
C378 C372 1.429 1_565 S
C378 C379 1.537 . S
C379 C360 1.348 1_565 S
C379 C373 1.379 . S
C379 C378 1.537 . S
C380 C364 1.440 . S
C380 C376 1.425 1_545 S
C380 C381 1.514 . S
C381 C365 1.371 1_545 S
C381 C377 1.367 . S
C381 C380 1.514 . S
H382 C357 0.950 . S
H383 C359 0.950 . S
H384 C360 0.949 . S
H385 C362 0.950 . S
H386 C364 0.950 . S
C387 C388 1.349 . S
C387 C389 1.327 1_554 S
C387 H412 0.950 . S
C388 C387 1.349 . S
C388 C404 1.349 . S
C389 C387 1.327 1_556 S
C389 C408 1.429 . S
C389 H413 0.950 . S
C390 C407 1.574 . S
C390 C409 1.368 . S
C390 H414 0.949 . S
H391 C395 0.949 . S
C392 C393 1.349 . S
C392 C394 1.327 . S
C392 H415 0.950 . S
C393 C392 1.349 . S
C393 C405 1.349 . S
C394 C392 1.327 . S
C394 C410 1.429 . S
C394 H416 0.950 . S
C395 H391 0.949 . S
C395 C403 1.574 . S
C395 C411 1.368 . S
H396 C404 0.950 . S
H397 C402 0.950 . S
H398 C403 0.949 . S
H399 C405 0.950 . S
H400 C406 0.950 . S
H401 C407 0.949 . S
C402 H397 0.950 . S
C402 C404 1.327 . S
C402 C408 1.429 1_554 S
C403 C395 1.574 . S
C403 H398 0.949 . S
C403 C409 1.368 . S
C404 C388 1.349 . S
C404 H396 0.950 . S
C404 C402 1.327 . S
C405 C393 1.349 . S
C405 H399 0.950 . S
C405 C406 1.327 . S
C406 H400 0.950 . S
C406 C405 1.327 . S
C406 C410 1.429 . S
C407 C390 1.574 . S
C407 H401 0.949 . S
C407 C411 1.368 . S
C408 C389 1.429 . S
C408 C402 1.429 1_556 S
C408 C409 1.523 . S
C409 C390 1.368 . S
C409 C403 1.368 . S
C409 C408 1.523 . S
C410 C394 1.429 . S
C410 C406 1.429 . S
C410 C411 1.523 . S
C411 C395 1.368 . S
C411 C407 1.368 . S
C411 C410 1.523 . S
H412 C387 0.950 . S
H413 C389 0.950 . S
H414 C390 0.949 . S
H415 C392 0.950 . S
H416 C394 0.950 . S
C417 C418 1.349 . S
C417 C419 1.327 . S
C417 H442 0.950 . S
C418 C417 1.349 . S
C418 C434 1.349 1_455 S
C419 C417 1.327 . S
C419 C438 1.429 . S
C419 H443 0.950 . S
C420 C437 1.574 . S
C420 C439 1.368 1_655 S
C420 H444 0.949 . S
H421 C425 0.949 . S
C422 C423 1.349 1_655 S
C422 C424 1.327 . S
C422 H445 0.950 . S
C423 C422 1.349 1_455 S
C423 C435 1.349 . S
C424 C422 1.327 . S
C424 C440 1.429 1_655 S
C424 H446 0.950 . S
C425 H421 0.949 . S
C425 C433 1.574 . S
C425 C441 1.368 . S
H426 C434 0.950 . S
H427 C432 0.950 . S
H428 C433 0.949 . S
H429 C435 0.950 . S
H430 C436 0.950 . S
H431 C437 0.949 . S
C432 H427 0.950 . S
C432 C434 1.327 . S
C432 C438 1.429 1_655 S
C433 C425 1.574 . S
C433 H428 0.949 . S
C433 C439 1.368 . S
C434 C418 1.349 1_655 S
C434 H426 0.950 . S
C434 C432 1.327 . S
C435 C423 1.349 . S
C435 H429 0.950 . S
C435 C436 1.327 . S
C436 H430 0.950 . S
C436 C435 1.327 . S
C436 C440 1.429 . S
C437 C420 1.574 . S
C437 H431 0.949 . S
C437 C441 1.368 1_655 S
C438 C419 1.429 . S
C438 C432 1.429 1_455 S
C438 C439 1.523 . S
C439 C420 1.368 1_455 S
C439 C433 1.368 . S
C439 C438 1.523 . S
C440 C424 1.429 1_455 S
C440 C436 1.429 . S
C440 C441 1.523 . S
C441 C425 1.368 . S
C441 C437 1.368 1_455 S
C441 C440 1.523 . S
H442 C417 0.950 . S
H443 C419 0.950 . S
H444 C420 0.949 . S
H445 C422 0.950 . S
H446 C424 0.950 . S
C447 C448 1.349 . S
C447 C449 1.327 . S
C447 H472 0.950 . S
C448 C447 1.349 . S
C448 C464 1.349 1_545 S
C449 C447 1.327 . S
C449 C468 1.429 . S
C449 H473 0.950 . S
C450 C467 1.574 . S
C450 C469 1.368 1_565 S
C450 H474 0.949 . S
H451 C455 0.949 . S
C452 C453 1.349 1_565 S
C452 C454 1.327 . S
C452 H475 0.950 . S
C453 C452 1.349 1_545 S
C453 C465 1.349 . S
C454 C452 1.327 . S
C454 C470 1.429 1_565 S
C454 H476 0.950 . S
C455 H451 0.949 . S
C455 C463 1.574 . S
C455 C471 1.368 . S
H456 C464 0.950 . S
H457 C462 0.950 . S
H458 C463 0.949 . S
H459 C465 0.950 . S
H460 C466 0.950 . S
H461 C467 0.949 . S
C462 H457 0.950 . S
C462 C464 1.327 . S
C462 C468 1.429 1_565 S
C463 C455 1.574 . S
C463 H458 0.949 . S
C463 C469 1.368 . S
C464 C448 1.349 1_565 S
C464 H456 0.950 . S
C464 C462 1.327 . S
C465 C453 1.349 . S
C465 H459 0.950 . S
C465 C466 1.327 . S
C466 H460 0.950 . S
C466 C465 1.327 . S
C466 C470 1.429 . S
C467 C450 1.574 . S
C467 H461 0.949 . S
C467 C471 1.368 1_565 S
C468 C449 1.429 . S
C468 C462 1.429 1_545 S
C468 C469 1.523 . S
C469 C450 1.368 1_545 S
C469 C463 1.368 . S
C469 C468 1.523 . S
C470 C454 1.429 1_545 S
C470 C466 1.429 . S
C470 C471 1.523 . S
C471 C455 1.368 . S
C471 C467 1.368 1_545 S
C471 C470 1.523 . S
H472 C447 0.950 . S
H473 C449 0.950 . S
H474 C450 0.949 . S
H475 C452 0.950 . S
H476 C454 0.950 . S
C477 C478 1.383 . S
C477 C479 1.305 1_554 S
C477 H502 0.939 1_554 S
C478 C477 1.383 . S
C478 C494 1.349 . S
C479 C477 1.305 1_556 S
C479 C498 1.429 . S
C479 H503 0.950 . S
C480 C497 1.574 . S
C480 C499 1.368 . S
C480 H504 0.949 1_556 S
H481 C485 0.949 . S
C482 C483 1.349 . S
C482 C484 1.327 . S
C482 H505 0.950 . S
C483 C482 1.349 . S
C483 C495 1.349 . S
C484 C482 1.327 . S
C484 C500 1.429 . S
C484 H506 0.950 . S
C485 H481 0.949 . S
C485 C493 1.574 . S
C485 C501 1.368 . S
H486 C494 0.950 . S
H487 C492 0.950 . S
H488 C493 0.949 . S
H489 C495 0.950 . S
H490 C496 0.950 . S
H491 C497 0.949 . S
C492 H487 0.950 . S
C492 C494 1.327 . S
C492 C498 1.429 1_554 S
C493 C485 1.574 . S
C493 H488 0.949 . S
C493 C499 1.368 . S
C494 C478 1.349 . S
C494 H486 0.950 . S
C494 C492 1.327 . S
C495 C483 1.349 . S
C495 H489 0.950 . S
C495 C496 1.327 . S
C496 H490 0.950 . S
C496 C495 1.327 . S
C496 C500 1.429 . S
C497 C480 1.574 . S
C497 H491 0.949 . S
C497 C501 1.368 . S
C498 C479 1.429 . S
C498 C492 1.429 1_556 S
C498 C499 1.523 . S
C499 C480 1.368 . S
C499 C493 1.368 . S
C499 C498 1.523 . S
C500 C484 1.429 . S
C500 C496 1.429 . S
C500 C501 1.523 . S
C501 C485 1.368 . S
C501 C497 1.368 . S
C501 C500 1.523 . S
H502 C477 0.939 1_556 S
H503 C479 0.950 . S
H504 C480 0.949 1_554 S
H505 C482 0.950 . S
H506 C484 0.950 . S
C507 C508 1.349 1_455 S
C507 C509 1.327 . S
C507 H532 0.950 . S
C508 C507 1.349 1_655 S
C508 C524 1.349 . S
C509 C507 1.327 . S
C509 C528 1.429 1_455 S
C509 H533 0.950 . S
C510 C527 1.574 . S
C510 C529 1.392 . S
C510 H534 0.949 . S
H511 C515 0.949 . S
C512 C513 1.349 1_655 S
C512 C514 1.327 . S
C512 H535 0.950 . S
C513 C512 1.349 1_455 S
C513 C525 1.349 . S
C514 C512 1.327 . S
C514 C530 1.408 1_655 S
C514 H536 0.950 . S
C515 H511 0.949 . S
C515 C523 1.574 . S
C515 C531 1.370 . S
H516 C524 0.950 . S
H517 C522 0.950 . S
H518 C523 0.949 . S
H519 C525 0.950 . S
H520 C526 0.950 . S
H521 C527 0.949 . S
C522 H517 0.950 . S
C522 C524 1.327 . S
C522 C528 1.429 . S
C523 C515 1.574 . S
C523 H518 0.949 . S
C523 C529 1.353 1_455 S
C524 C508 1.349 . S
C524 H516 0.950 . S
C524 C522 1.327 . S
C525 C513 1.349 . S
C525 H519 0.950 . S
C525 C526 1.327 . S
C526 H520 0.950 . S
C526 C525 1.327 . S
C526 C530 1.439 . S
C527 C510 1.574 . S
C527 H521 0.949 . S
C527 C531 1.367 1_655 S
C528 C509 1.429 1_655 S
C528 C522 1.429 . S
C528 C529 1.513 . S
C529 C510 1.392 . S
C529 C523 1.353 1_655 S
C529 C528 1.513 . S
C530 C514 1.408 1_455 S
C530 C526 1.439 . S
C530 C531 1.531 . S
C531 C515 1.370 . S
C531 C527 1.367 1_455 S
C531 C530 1.531 . S
H532 C507 0.950 . S
H533 C509 0.950 . S
H534 C510 0.949 . S
H535 C512 0.950 . S
H536 C514 0.950 . S
C183 C47 1.525 . S
C178 C10 1.525 . S
C208 C17 1.526 . S
C213 C86 1.525 . S
C238 C36 1.526 . S
C243 C153 1.525 . S
C268 C5 1.523 . S
C273 C54 1.526 . S
C303 C107 1.526 . S
C298 C16 1.532 . S
C328 C31 1.526 . S
C333 C132 1.525 . S
C363 C93 1.525 . S
C358 C30 1.526 . S
C388 C3 1.527 . S
C393 C146 1.526 . S
C423 C61 1.526 . S
C418 C18 1.527 . S
C453 C100 1.526 . S
C448 C29 1.528 . S
C483 C139 1.526 . S
C478 C4 1.527 . S
C508 C23 1.525 . S
C513 C40 1.524 . S
