# Generated by pormake.
# Topology ptr, (4,4)-cn, num edge types: 1
# Building blocks:
#     Node 0, Type 0, BuildingBlock: CEKHIL_clean_sbu_0, # of connection points: 4
#     Node 1, Type 0, BuildingBlock: CEKHIL_clean_sbu_0, # of connection points: 4
#     Node 2, Type 0, BuildingBlock: CEKHIL_clean_sbu_0, # of connection points: 4
#     Node 3, Type 0, BuildingBlock: CEKHIL_clean_sbu_0, # of connection points: 4
#     Node 4, Type 0, BuildingBlock: CEKHIL_clean_sbu_0, # of connection points: 4
#     Node 5, Type 0, BuildingBlock: CEKHIL_clean_sbu_0, # of connection points: 4
#     Node 6, Type 0, BuildingBlock: CEKHIL_clean_sbu_0, # of connection points: 4
#     Node 7, Type 0, BuildingBlock: CEKHIL_clean_sbu_0, # of connection points: 4
#     Node 8, Type 0, BuildingBlock: CEKHIL_clean_sbu_0, # of connection points: 4
#     Node 9, Type 0, BuildingBlock: CEKHIL_clean_sbu_0, # of connection points: 4
#     Node 10, Type 0, BuildingBlock: CEKHIL_clean_sbu_0, # of connection points: 4
#     Node 11, Type 0, BuildingBlock: CEKHIL_clean_sbu_0, # of connection points: 4
#     Node 12, Type 0, BuildingBlock: CEKHIL_clean_sbu_0, # of connection points: 4
#     Node 13, Type 0, BuildingBlock: CEKHIL_clean_sbu_0, # of connection points: 4
#     Node 14, Type 0, BuildingBlock: CEKHIL_clean_sbu_0, # of connection points: 4
#     Node 15, Type 0, BuildingBlock: CEKHIL_clean_sbu_0, # of connection points: 4
#     Node 16, Type 0, BuildingBlock: CEKHIL_clean_sbu_0, # of connection points: 4
#     Node 17, Type 0, BuildingBlock: CEKHIL_clean_sbu_0, # of connection points: 4
#     Node 18, Type 1, BuildingBlock: MIFKUJ_clean_linker_1, # of connection points: 4
#     Node 19, Type 1, BuildingBlock: MIFKUJ_clean_linker_1, # of connection points: 4
#     Node 20, Type 1, BuildingBlock: MIFKUJ_clean_linker_1, # of connection points: 4
#     Node 21, Type 1, BuildingBlock: MIFKUJ_clean_linker_1, # of connection points: 4
#     Node 22, Type 1, BuildingBlock: MIFKUJ_clean_linker_1, # of connection points: 4
#     Node 23, Type 1, BuildingBlock: MIFKUJ_clean_linker_1, # of connection points: 4
#     Node 24, Type 1, BuildingBlock: MIFKUJ_clean_linker_1, # of connection points: 4
#     Node 25, Type 1, BuildingBlock: MIFKUJ_clean_linker_1, # of connection points: 4
#     Node 26, Type 1, BuildingBlock: MIFKUJ_clean_linker_1, # of connection points: 4
#     Node 27, Type 1, BuildingBlock: MIFKUJ_clean_linker_1, # of connection points: 4
#     Node 28, Type 1, BuildingBlock: MIFKUJ_clean_linker_1, # of connection points: 4
#     Node 29, Type 1, BuildingBlock: MIFKUJ_clean_linker_1, # of connection points: 4
#     Node 30, Type 1, BuildingBlock: MIFKUJ_clean_linker_1, # of connection points: 4
#     Node 31, Type 1, BuildingBlock: MIFKUJ_clean_linker_1, # of connection points: 4
#     Node 32, Type 1, BuildingBlock: MIFKUJ_clean_linker_1, # of connection points: 4
#     Node 33, Type 1, BuildingBlock: MIFKUJ_clean_linker_1, # of connection points: 4
#     Node 34, Type 1, BuildingBlock: MIFKUJ_clean_linker_1, # of connection points: 4
#     Node 35, Type 1, BuildingBlock: MIFKUJ_clean_linker_1, # of connection points: 4
#     Edge 36, Type (0, 1), BuildingBlock: XIVTED_clean_linker_0, # of connection points: 2
#     Edge 37, Type (0, 1), BuildingBlock: XIVTED_clean_linker_0, # of connection points: 2
#     Edge 38, Type (0, 1), BuildingBlock: XIVTED_clean_linker_0, # of connection points: 2
#     Edge 39, Type (0, 1), BuildingBlock: XIVTED_clean_linker_0, # of connection points: 2
#     Edge 40, Type (0, 1), BuildingBlock: XIVTED_clean_linker_0, # of connection points: 2
#     Edge 41, Type (0, 1), BuildingBlock: XIVTED_clean_linker_0, # of connection points: 2
#     Edge 42, Type (0, 1), BuildingBlock: XIVTED_clean_linker_0, # of connection points: 2
#     Edge 43, Type (0, 1), BuildingBlock: XIVTED_clean_linker_0, # of connection points: 2
#     Edge 44, Type (0, 1), BuildingBlock: XIVTED_clean_linker_0, # of connection points: 2
#     Edge 45, Type (0, 1), BuildingBlock: XIVTED_clean_linker_0, # of connection points: 2
#     Edge 46, Type (0, 1), BuildingBlock: XIVTED_clean_linker_0, # of connection points: 2
#     Edge 47, Type (0, 1), BuildingBlock: XIVTED_clean_linker_0, # of connection points: 2
#     Edge 48, Type (0, 1), BuildingBlock: XIVTED_clean_linker_0, # of connection points: 2
#     Edge 49, Type (0, 1), BuildingBlock: XIVTED_clean_linker_0, # of connection points: 2
#     Edge 50, Type (0, 1), BuildingBlock: XIVTED_clean_linker_0, # of connection points: 2
#     Edge 51, Type (0, 1), BuildingBlock: XIVTED_clean_linker_0, # of connection points: 2
#     Edge 52, Type (0, 1), BuildingBlock: XIVTED_clean_linker_0, # of connection points: 2
#     Edge 53, Type (0, 1), BuildingBlock: XIVTED_clean_linker_0, # of connection points: 2
#     Edge 54, Type (0, 1), BuildingBlock: XIVTED_clean_linker_0, # of connection points: 2
#     Edge 55, Type (0, 1), BuildingBlock: XIVTED_clean_linker_0, # of connection points: 2
#     Edge 56, Type (0, 1), BuildingBlock: XIVTED_clean_linker_0, # of connection points: 2
#     Edge 57, Type (0, 1), BuildingBlock: XIVTED_clean_linker_0, # of connection points: 2
#     Edge 58, Type (0, 1), BuildingBlock: XIVTED_clean_linker_0, # of connection points: 2
#     Edge 59, Type (0, 1), BuildingBlock: XIVTED_clean_linker_0, # of connection points: 2
#     Edge 60, Type (0, 1), BuildingBlock: XIVTED_clean_linker_0, # of connection points: 2
#     Edge 61, Type (0, 1), BuildingBlock: XIVTED_clean_linker_0, # of connection points: 2
#     Edge 62, Type (0, 1), BuildingBlock: XIVTED_clean_linker_0, # of connection points: 2
#     Edge 63, Type (0, 1), BuildingBlock: XIVTED_clean_linker_0, # of connection points: 2
#     Edge 64, Type (0, 1), BuildingBlock: XIVTED_clean_linker_0, # of connection points: 2
#     Edge 65, Type (0, 1), BuildingBlock: XIVTED_clean_linker_0, # of connection points: 2
#     Edge 66, Type (0, 1), BuildingBlock: XIVTED_clean_linker_0, # of connection points: 2
#     Edge 67, Type (0, 1), BuildingBlock: XIVTED_clean_linker_0, # of connection points: 2
#     Edge 68, Type (0, 1), BuildingBlock: XIVTED_clean_linker_0, # of connection points: 2
#     Edge 69, Type (0, 1), BuildingBlock: XIVTED_clean_linker_0, # of connection points: 2
#     Edge 70, Type (0, 1), BuildingBlock: XIVTED_clean_linker_0, # of connection points: 2
#     Edge 71, Type (0, 1), BuildingBlock: XIVTED_clean_linker_0, # of connection points: 2
#     Edge 72, Type (0, 1), BuildingBlock: XIVTED_clean_linker_0, # of connection points: 2
#     Edge 73, Type (0, 1), BuildingBlock: XIVTED_clean_linker_0, # of connection points: 2
#     Edge 74, Type (0, 1), BuildingBlock: XIVTED_clean_linker_0, # of connection points: 2
#     Edge 75, Type (0, 1), BuildingBlock: XIVTED_clean_linker_0, # of connection points: 2
#     Edge 76, Type (0, 1), BuildingBlock: XIVTED_clean_linker_0, # of connection points: 2
#     Edge 77, Type (0, 1), BuildingBlock: XIVTED_clean_linker_0, # of connection points: 2
#     Edge 78, Type (0, 1), BuildingBlock: XIVTED_clean_linker_0, # of connection points: 2
#     Edge 79, Type (0, 1), BuildingBlock: XIVTED_clean_linker_0, # of connection points: 2
#     Edge 80, Type (0, 1), BuildingBlock: XIVTED_clean_linker_0, # of connection points: 2
#     Edge 81, Type (0, 1), BuildingBlock: XIVTED_clean_linker_0, # of connection points: 2
#     Edge 82, Type (0, 1), BuildingBlock: XIVTED_clean_linker_0, # of connection points: 2
#     Edge 83, Type (0, 1), BuildingBlock: XIVTED_clean_linker_0, # of connection points: 2
#     Edge 84, Type (0, 1), BuildingBlock: XIVTED_clean_linker_0, # of connection points: 2
#     Edge 85, Type (0, 1), BuildingBlock: XIVTED_clean_linker_0, # of connection points: 2
#     Edge 86, Type (0, 1), BuildingBlock: XIVTED_clean_linker_0, # of connection points: 2
#     Edge 87, Type (0, 1), BuildingBlock: XIVTED_clean_linker_0, # of connection points: 2
#     Edge 88, Type (0, 1), BuildingBlock: XIVTED_clean_linker_0, # of connection points: 2
#     Edge 89, Type (0, 1), BuildingBlock: XIVTED_clean_linker_0, # of connection points: 2
#     Edge 90, Type (0, 1), BuildingBlock: XIVTED_clean_linker_0, # of connection points: 2
#     Edge 91, Type (0, 1), BuildingBlock: XIVTED_clean_linker_0, # of connection points: 2
#     Edge 92, Type (0, 1), BuildingBlock: XIVTED_clean_linker_0, # of connection points: 2
#     Edge 93, Type (0, 1), BuildingBlock: XIVTED_clean_linker_0, # of connection points: 2
#     Edge 94, Type (0, 1), BuildingBlock: XIVTED_clean_linker_0, # of connection points: 2
#     Edge 95, Type (0, 1), BuildingBlock: XIVTED_clean_linker_0, # of connection points: 2
#     Edge 96, Type (0, 1), BuildingBlock: XIVTED_clean_linker_0, # of connection points: 2
#     Edge 97, Type (0, 1), BuildingBlock: XIVTED_clean_linker_0, # of connection points: 2
#     Edge 98, Type (0, 1), BuildingBlock: XIVTED_clean_linker_0, # of connection points: 2
#     Edge 99, Type (0, 1), BuildingBlock: XIVTED_clean_linker_0, # of connection points: 2
#     Edge 100, Type (0, 1), BuildingBlock: XIVTED_clean_linker_0, # of connection points: 2
#     Edge 101, Type (0, 1), BuildingBlock: XIVTED_clean_linker_0, # of connection points: 2
#     Edge 102, Type (0, 1), BuildingBlock: XIVTED_clean_linker_0, # of connection points: 2
#     Edge 103, Type (0, 1), BuildingBlock: XIVTED_clean_linker_0, # of connection points: 2
#     Edge 104, Type (0, 1), BuildingBlock: XIVTED_clean_linker_0, # of connection points: 2
#     Edge 105, Type (0, 1), BuildingBlock: XIVTED_clean_linker_0, # of connection points: 2
#     Edge 106, Type (0, 1), BuildingBlock: XIVTED_clean_linker_0, # of connection points: 2
#     Edge 107, Type (0, 1), BuildingBlock: XIVTED_clean_linker_0, # of connection points: 2
# Relax obj value: 0.037
# Max RMSD: 0.119
# Mean RMSD: 0.059
data_MOF--net-ptr--node1-CEKHIL_clean_sbu_0--node2-MIFKUJ_clean_linker_1--edge1-XIVTED_clean_linker_0
_symmetry_space_group_name_H-M    P1
_symmetry_Int_Tables_number       1
_symmetry_cell_setting            triclinic
loop_
_symmetry_equiv_pos_as_xyz
'x, y, z'
_cell_length_a     90.238945
_cell_length_b     89.253971
_cell_length_c     62.563519
_cell_angle_alpha  90.909437
_cell_angle_beta   89.499167
_cell_angle_gamma 120.91184
loop_
_atom_site_label
_atom_site_type_symbol
_atom_site_fract_x
_atom_site_fract_y
_atom_site_fract_z
_atom_type_partial_charge
Co0 Co 0.00842 0.3455 0.01057 0.0
O1 O 0.01654 0.33606 0.03163 0.0
O2 O 0.03323 0.36042 0.01386 0.0
C3 C 0.99154 0.32011 0.99296 0.0
O4 O 0.0044 0.35889 0.98738 0.0
Co5 Co 0.9692 0.33258 0.00849 0.0
O6 O 0.97581 0.34622 0.98177 0.0
C7 C 0.99052 0.35636 0.04332 0.0
C8 C 0.03184 0.34934 0.02818 0.0
C9 C 0.99142 0.35741 0.977 0.0
O10 O 0.00429 0.35892 0.03372 0.0
O11 O 0.97528 0.34516 0.03683 0.0
O12 O 0.00797 0.32926 0.98877 0.0
O13 O 0.98635 0.3258 0.00863 0.0
Co14 Co 0.65774 0.65909 0.00605 0.0
O15 O 0.67479 0.66956 0.98397 0.0
O16 O 0.66776 0.64481 2e-05 0.0
C17 C 0.66674 0.68402 0.02484 0.0
O18 O 0.64135 0.64471 0.03001 0.0
Co19 Co 0.63084 0.67046 0.01393 0.0
O20 O 0.62508 0.65605 0.03993 0.0
C21 C 0.62743 0.64844 0.9764 0.0
C22 C 0.67723 0.65654 0.98599 0.0
C23 C 0.63018 0.64525 0.04244 0.0
O24 O 0.63923 0.64594 0.98386 0.0
O25 O 0.62344 0.65901 0.98503 0.0
O26 O 0.67436 0.67514 0.02737 0.0
O27 O 0.65499 0.67822 0.01028 0.0
Co28 Co 0.33879 0.99786 0.00223 0.0
O29 O 0.32871 0.00518 0.98109 0.0
O30 O 0.3528 0.023 0.99872 0.0
C31 C 0.31408 0.98058 0.02011 0.0
O32 O 0.35256 0.99465 0.0256 0.0
Co33 Co 0.32727 0.9586 0.00393 0.0
O34 O 0.34027 0.96582 0.03122 0.0
C35 C 0.35162 0.98059 0.97051 0.0
C36 C 0.34143 0.02095 0.98448 0.0
C37 C 0.35117 0.98169 0.03614 0.0
O38 O 0.35249 0.99413 0.97936 0.0
O39 O 0.34132 0.96502 0.97692 0.0
O40 O 0.32282 0.9973 0.02389 0.0
O41 O 0.3196 0.97522 0.00436 0.0
Co42 Co 0.99433 0.658 0.01145 0.0
O43 O 0.98858 0.66957 0.99038 0.0
O44 O 0.9698 0.64451 0.00546 0.0
C45 C 0.01105 0.68192 0.03165 0.0
O46 O 0.99556 0.64259 0.03427 0.0
Co47 Co 0.03254 0.66796 0.0175 0.0
O48 O 0.02334 0.65446 0.04419 0.0
C49 C 0.01273 0.64627 0.98042 0.0
C50 C 0.97274 0.65677 0.99208 0.0
C51 C 0.0073 0.64346 0.04671 0.0
O52 O 0.99887 0.64493 0.98824 0.0
O53 O 0.02768 0.656 0.98876 0.0
O54 O 0.99436 0.67363 0.03381 0.0
O55 O 0.01678 0.67651 0.01622 0.0
Co56 Co 0.34532 0.34557 0.01109 0.0
O57 O 0.32816 0.33294 0.03263 0.0
O58 O 0.33415 0.35832 0.01916 0.0
C59 C 0.33821 0.32243 0.98954 0.0
O60 O 0.3612 0.36203 0.98814 0.0
Co61 Co 0.37443 0.33779 0.00041 0.0
O62 O 0.37784 0.35211 0.97481 0.0
C63 C 0.37631 0.35707 0.04003 0.0
C64 C 0.32497 0.34556 0.03213 0.0
C65 C 0.37199 0.36241 0.97425 0.0
O66 O 0.36348 0.35838 0.03376 0.0
O67 O 0.38163 0.34814 0.02987 0.0
O68 O 0.3293 0.33014 0.98887 0.0
O69 O 0.34986 0.32793 0.00421 0.0
Co70 Co 0.66286 0.00448 0.01234 0.0
O71 O 0.67313 0.99833 0.03466 0.0
O72 O 0.64958 0.97945 0.01683 0.0
C73 C 0.68765 0.02198 0.99466 0.0
O74 O 0.64894 0.00621 0.98787 0.0
Co75 Co 0.67295 0.0432 0.00738 0.0
O76 O 0.66116 0.03456 0.97945 0.0
C77 C 0.64819 0.02182 0.04104 0.0
C78 C 0.66089 0.98228 0.03153 0.0
C79 C 0.65044 0.01844 0.97568 0.0
O80 O 0.64838 0.00826 0.03411 0.0
O81 O 0.65784 0.0371 0.03339 0.0
O82 O 0.67953 0.00518 0.99161 0.0
O83 O 0.68147 0.02739 0.00957 0.0
Co84 Co 0.67491 0.68028 0.34207 0.0
O85 O 0.68235 0.67063 0.36373 0.0
O86 O 0.69962 0.69506 0.3464 0.0
C87 C 0.65847 0.65494 0.32408 0.0
O88 O 0.67171 0.69389 0.31841 0.0
Co89 Co 0.63584 0.66751 0.33771 0.0
O90 O 0.64338 0.6813 0.31111 0.0
C91 C 0.656 0.69088 0.37352 0.0
C92 C 0.69779 0.68383 0.36077 0.0
C93 C 0.65915 0.69251 0.30717 0.0
O94 O 0.67012 0.69358 0.36477 0.0
O95 O 0.64101 0.67976 0.36622 0.0
O96 O 0.67501 0.6641 0.32056 0.0
O97 O 0.65286 0.66063 0.33928 0.0
Co98 Co 0.32317 0.98992 0.34208 0.0
O99 O 0.34038 0.00058 0.32009 0.0
O100 O 0.33327 0.97577 0.33608 0.0
C101 C 0.33155 0.01433 0.36173 0.0
O102 O 0.30665 0.97523 0.3658 0.0
Co103 Co 0.29574 0.00068 0.34961 0.0
O104 O 0.28985 0.98603 0.3754 0.0
C105 C 0.29331 0.97954 0.31168 0.0
C106 C 0.34274 0.98749 0.32205 0.0
C107 C 0.2952 0.97546 0.37802 0.0
O108 O 0.30488 0.97687 0.31956 0.0
O109 O 0.28911 0.98996 0.32026 0.0
O110 O 0.33959 0.00581 0.36365 0.0
O111 O 0.32006 0.0088 0.34684 0.0
Co112 Co 0.0081 0.33295 0.3396 0.0
O113 O 0.99708 0.3399 0.31925 0.0
O114 O 0.02194 0.35798 0.33527 0.0
C115 C 0.98432 0.31594 0.35919 0.0
O116 O 0.02298 0.33024 0.36183 0.0
Co117 Co 0.99664 0.29358 0.34155 0.0
O118 O 0.01265 0.3015 0.36623 0.0
C119 C 0.01905 0.31497 0.30642 0.0
C120 C 0.00998 0.35571 0.32184 0.0
C121 C 0.02315 0.31749 0.37101 0.0
O122 O 0.02075 0.32874 0.3157 0.0
O123 O 0.00878 0.29951 0.31319 0.0
O124 O 0.993 0.33274 0.36235 0.0
O125 O 0.9892 0.31035 0.34305 0.0
Co126 Co 0.65801 0.98814 0.34409 0.0
O127 O 0.65242 0.9988 0.32162 0.0
O128 O 0.63343 0.97478 0.33847 0.0
C129 C 0.67528 0.01322 0.36214 0.0
O130 O 0.65888 0.97358 0.36831 0.0
Co131 Co 0.69586 0.99764 0.35185 0.0
O132 O 0.68638 0.98449 0.37871 0.0
C133 C 0.6763 0.97547 0.31478 0.0
C134 C 0.63651 0.98628 0.32391 0.0
C135 C 0.67021 0.97403 0.3811 0.0
O136 O 0.66226 0.97393 0.32225 0.0
O137 O 0.69115 0.9855 0.32325 0.0
O138 O 0.65864 0.00511 0.36493 0.0
O139 O 0.68063 0.00657 0.34779 0.0
Co140 Co 0.01438 0.67864 0.34862 0.0
O141 O 0.99574 0.66579 0.36833 0.0
O142 O 0.00283 0.6914 0.35469 0.0
C143 C 0.00864 0.656 0.32683 0.0
O144 O 0.03213 0.69537 0.32724 0.0
Co145 Co 0.04358 0.6701 0.34302 0.0
O146 O 0.05059 0.68635 0.31868 0.0
C147 C 0.0424 0.68854 0.38182 0.0
C148 C 0.9927 0.67847 0.367 0.0
C149 C 0.04471 0.69649 0.31608 0.0
O150 O 0.0308 0.69081 0.37322 0.0
O151 O 0.04787 0.67917 0.37321 0.0
O152 O 1.0 0.6639 0.32487 0.0
O153 O 0.01897 0.66085 0.34296 0.0
Co154 Co 0.32946 0.33719 0.34612 0.0
O155 O 0.34194 0.33246 0.36698 0.0
O156 O 0.31759 0.31234 0.35163 0.0
C157 C 0.35287 0.35518 0.32646 0.0
O158 O 0.31337 0.33717 0.32337 0.0
Co159 Co 0.33663 0.37474 0.34009 0.0
O160 O 0.32374 0.36482 0.31298 0.0
C161 C 0.31543 0.35396 0.37666 0.0
C162 C 0.33014 0.31611 0.36484 0.0
C163 C 0.31346 0.34843 0.31066 0.0
O164 O 0.31582 0.34059 0.3694 0.0
O165 O 0.32384 0.36905 0.36809 0.0
O166 O 0.34526 0.33837 0.32375 0.0
O167 O 0.34694 0.36043 0.34185 0.0
Co168 Co 0.34135 0.01304 0.67591 0.0
O169 O 0.34771 0.00245 0.69762 0.0
O170 O 0.36576 0.02764 0.68232 0.0
C171 C 0.32587 0.98853 0.65602 0.0
O172 O 0.33941 0.02756 0.65234 0.0
Co173 Co 0.30253 0.00051 0.66849 0.0
O174 O 0.31156 0.01466 0.64234 0.0
C175 C 0.32097 0.02346 0.70543 0.0
C176 C 0.36331 0.01567 0.69591 0.0
C177 C 0.32746 0.0262 0.63986 0.0
O178 O 0.33542 0.0256 0.69851 0.0
O179 O 0.30641 0.01293 0.69665 0.0
O180 O 0.34257 0.99763 0.65413 0.0
O181 O 0.31947 0.99361 0.67097 0.0
Co182 Co 0.99079 0.32629 0.67192 0.0
O183 O 0.00674 0.33606 0.64853 0.0
O184 O 0.00129 0.31242 0.66614 0.0
C185 C 0.99989 0.35193 0.68918 0.0
O186 O 0.9758 0.31276 0.69735 0.0
Co187 Co 0.96349 0.33698 0.68123 0.0
O188 O 0.96015 0.3245 0.7084 0.0
C189 C 0.95765 0.31178 0.6462 0.0
C190 C 0.0099 0.32357 0.65117 0.0
C191 C 0.96545 0.31386 0.71073 0.0
O192 O 0.97129 0.31151 0.65141 0.0
O193 O 0.95317 0.32186 0.65519 0.0
O194 O 0.00811 0.34365 0.69165 0.0
O195 O 0.98748 0.34517 0.67547 0.0
Co196 Co 0.67318 0.66565 0.67198 0.0
O197 O 0.66196 0.67092 0.64993 0.0
O198 O 0.68587 0.69051 0.66662 0.0
C199 C 0.64896 0.64821 0.69064 0.0
O200 O 0.68813 0.6651 0.69586 0.0
Co201 Co 0.6645 0.62763 0.67887 0.0
O202 O 0.67704 0.63733 0.70624 0.0
C203 C 0.68701 0.64792 0.64287 0.0
C204 C 0.67404 0.68713 0.65243 0.0
C205 C 0.68752 0.65367 0.70872 0.0
O206 O 0.68719 0.66166 0.64984 0.0
O207 O 0.67778 0.63286 0.65128 0.0
O208 O 0.65689 0.66506 0.69323 0.0
O209 O 0.65507 0.64264 0.67584 0.0
Co210 Co 0.32888 0.32393 0.67772 0.0
O211 O 0.32139 0.3326 0.6549 0.0
O212 O 0.30429 0.30868 0.67323 0.0
C213 C 0.34476 0.3499 0.69465 0.0
O214 O 0.33194 0.31122 0.70258 0.0
Co215 Co 0.36795 0.33747 0.68431 0.0
O216 O 0.36002 0.32463 0.71154 0.0
C217 C 0.34855 0.31173 0.64984 0.0
C218 C 0.30601 0.31937 0.6582 0.0
C219 C 0.34423 0.31315 0.71484 0.0
O220 O 0.33424 0.31011 0.65645 0.0
O221 O 0.36329 0.32275 0.65786 0.0
O222 O 0.3282 0.34059 0.69791 0.0
O223 O 0.35077 0.34389 0.68033 0.0
Co224 Co 0.67801 0.01353 0.67347 0.0
O225 O 0.6635 0.00361 0.69829 0.0
O226 O 0.66712 0.02663 0.68068 0.0
C227 C 0.66918 0.98815 0.65574 0.0
O228 O 0.69099 0.02733 0.64718 0.0
Co229 Co 0.7062 0.00526 0.65951 0.0
O230 O 0.7067 0.01686 0.63252 0.0
C231 C 0.7126 0.02936 0.69607 0.0
C232 C 0.65967 0.01571 0.69616 0.0
C233 C 0.70047 0.02682 0.63205 0.0
O234 O 0.69841 0.02903 0.69243 0.0
O235 O 0.71727 0.01999 0.68566 0.0
O236 O 0.65997 0.99553 0.65509 0.0
O237 O 0.68241 0.9955 0.66824 0.0
Co238 Co 0.99347 0.66691 0.67548 0.0
O239 O 0.00321 0.66069 0.69839 0.0
O240 O 0.97989 0.64194 0.68008 0.0
C241 C 0.01864 0.68421 0.65844 0.0
O242 O 0.98005 0.66865 0.65043 0.0
Co243 Co 0.0038 0.70565 0.67004 0.0
O244 O 0.99202 0.69699 0.64209 0.0
C245 C 0.97927 0.68471 0.70402 0.0
C246 C 0.99088 0.64468 0.69519 0.0
C247 C 0.98149 0.68083 0.63822 0.0
O248 O 0.9788 0.67095 0.69657 0.0
O249 O 0.98939 0.70002 0.69668 0.0
O250 O 0.01051 0.66739 0.65554 0.0
O251 O 0.01218 0.68975 0.67284 0.0
H252 H 0.15536 0.35264 0.20643 0.0
H253 H 0.13047 0.35015 0.22548 0.0
H254 H 0.09623 0.30958 0.18117 0.0
H255 H 0.12122 0.31178 0.16255 0.0
H256 H 0.16557 0.32986 0.20064 0.0
H257 H 0.14865 0.36124 0.1572 0.0
H258 H 0.12903 0.36655 0.13638 0.0
H259 H 0.12281 0.32712 0.09045 0.0
H260 H 0.14193 0.32132 0.11175 0.0
H261 H 0.18477 0.30921 0.12911 0.0
H262 H 0.20918 0.31081 0.1101 0.0
H263 H 0.24022 0.36575 0.127 0.0
H264 H 0.21603 0.36338 0.1476 0.0
H265 H 0.17395 0.33928 0.12248 0.0
H266 H 0.19377 0.3099 0.16967 0.0
H267 H 0.21578 0.3091 0.19145 0.0
H268 H 0.2191 0.35032 0.23181 0.0
H269 H 0.19803 0.35205 0.20917 0.0
C270 C 0.14016 0.33245 0.18303 0.0
C271 C 0.14249 0.34318 0.20086 0.0
C272 C 0.12825 0.34187 0.21158 0.0
C273 C 0.11136 0.32973 0.20476 0.0
C274 C 0.10906 0.31898 0.1869 0.0
C275 C 0.12333 0.3203 0.17617 0.0
C276 C 0.15537 0.33392 0.17173 0.0
C277 C 0.16746 0.33205 0.18357 0.0
C278 C 0.15784 0.33683 0.14944 0.0
C279 C 0.14647 0.34057 0.13634 0.0
C280 C 0.14291 0.35355 0.14281 0.0
C281 C 0.1318 0.35668 0.13084 0.0
C282 C 0.1244 0.34721 0.11187 0.0
C283 C 0.12845 0.33468 0.10496 0.0
C284 C 0.13933 0.33134 0.11713 0.0
C285 C 0.19876 0.3361 0.13992 0.0
C286 C 0.19695 0.32151 0.12884 0.0
C287 C 0.21092 0.32257 0.11774 0.0
C288 C 0.22684 0.33847 0.11675 0.0
C289 C 0.22842 0.35317 0.12769 0.0
C290 C 0.21455 0.35192 0.13935 0.0
C291 C 0.18386 0.33494 0.15136 0.0
C292 C 0.17191 0.33697 0.13952 0.0
C293 C 0.18181 0.33266 0.17372 0.0
C294 C 0.1946 0.33143 0.18729 0.0
C295 C 0.19957 0.31914 0.18277 0.0
C296 C 0.21196 0.3185 0.19538 0.0
C297 C 0.21908 0.32968 0.21317 0.0
C298 C 0.21372 0.34155 0.21815 0.0
C299 C 0.20169 0.34252 0.20524 0.0
H300 H 0.70308 0.87785 0.19446 0.0
H301 H 0.7019 0.90038 0.21575 0.0
H302 H 0.65175 0.88423 0.1891 0.0
H303 H 0.6528 0.86132 0.16834 0.0
H304 H 0.68111 0.84216 0.19554 0.0
H305 H 0.69925 0.88843 0.1426 0.0
H306 H 0.69509 0.90942 0.12296 0.0
H307 H 0.64608 0.86732 0.09946 0.0
H308 H 0.65062 0.84639 0.11872 0.0
H309 H 0.65729 0.80535 0.11465 0.0
H310 H 0.65857 0.78272 0.09383 0.0
H311 H 0.70619 0.79568 0.12542 0.0
H312 H 0.70484 0.81842 0.14631 0.0
H313 H 0.67733 0.83915 0.11638 0.0
H314 H 0.65762 0.79286 0.16392 0.0
H315 H 0.65625 0.76948 0.18488 0.0
H316 H 0.70033 0.80745 0.22178 0.0
H317 H 0.70231 0.83077 0.19968 0.0
C318 C 0.67811 0.86802 0.17973 0.0
C319 C 0.69184 0.87917 0.19323 0.0
C320 C 0.69121 0.89214 0.20521 0.0
C321 C 0.67677 0.89417 0.20399 0.0
C322 C 0.66299 0.88294 0.19047 0.0
C323 C 0.66364 0.86994 0.17849 0.0
C324 C 0.67889 0.85424 0.1672 0.0
C325 C 0.68063 0.84164 0.17821 0.0
C326 C 0.67739 0.85315 0.14468 0.0
C327 C 0.67519 0.86588 0.13223 0.0
C328 C 0.68763 0.88375 0.13319 0.0
C329 C 0.68516 0.89574 0.12203 0.0
C330 C 0.67016 0.89011 0.10972 0.0
C331 C 0.65786 0.87213 0.10855 0.0
C332 C 0.6604 0.86014 0.11962 0.0
C333 C 0.68094 0.81354 0.13205 0.0
C334 C 0.66808 0.80342 0.11699 0.0
C335 C 0.66885 0.79052 0.10509 0.0
C336 C 0.68255 0.78751 0.10791 0.0
C337 C 0.69542 0.79762 0.12304 0.0
C338 C 0.69467 0.81061 0.13494 0.0
C339 C 0.6799 0.82716 0.14467 0.0
C340 C 0.67804 0.83971 0.1337 0.0
C341 C 0.68074 0.82784 0.16729 0.0
C342 C 0.68024 0.8136 0.17994 0.0
C343 C 0.66725 0.79616 0.17619 0.0
C344 C 0.66632 0.78278 0.18846 0.0
C345 C 0.67812 0.78653 0.20518 0.0
C346 C 0.69117 0.80402 0.20888 0.0
C347 C 0.69222 0.81741 0.19639 0.0
H348 H 0.12058 0.83523 0.20182 0.0
H349 H 0.10328 0.81138 0.2265 0.0
H350 H 0.11534 0.77764 0.18957 0.0
H351 H 0.13317 0.80165 0.16572 0.0
H352 H 0.15458 0.85085 0.19444 0.0
H353 H 0.10344 0.81861 0.15187 0.0
H354 H 0.08009 0.79175 0.1357 0.0
H355 H 0.11747 0.78736 0.09659 0.0
H356 H 0.1407 0.81348 0.11368 0.0
H357 H 0.18431 0.85395 0.11407 0.0
H358 H 0.20902 0.87444 0.0927 0.0
H359 H 0.20375 0.917 0.11743 0.0
H360 H 0.17922 0.89635 0.13924 0.0
H361 H 0.15056 0.84551 0.11538 0.0
H362 H 0.19998 0.87026 0.16245 0.0
H363 H 0.22495 0.893 0.18221 0.0
H364 H 0.19228 0.90945 0.21242 0.0
H365 H 0.16751 0.887 0.19223 0.0
C366 C 0.128 0.82018 0.18178 0.0
C367 C 0.1194 0.82266 0.19904 0.0
C368 C 0.10942 0.80897 0.21303 0.0
C369 C 0.10796 0.7926 0.21005 0.0
C370 C 0.11637 0.79013 0.19252 0.0
C371 C 0.1264 0.8038 0.17867 0.0
C372 C 0.13955 0.83491 0.16771 0.0
C373 C 0.15342 0.84987 0.17715 0.0
C374 C 0.13828 0.83346 0.14514 0.0
C375 C 0.12387 0.81797 0.1342 0.0
C376 C 0.10659 0.81177 0.13991 0.0
C377 C 0.09323 0.79649 0.1305 0.0
C378 C 0.09689 0.78725 0.11501 0.0
C379 C 0.11418 0.79387 0.10884 0.0
C380 C 0.12749 0.80899 0.11838 0.0
C381 C 0.17998 0.87364 0.12827 0.0
C382 C 0.18839 0.86768 0.11472 0.0
C383 C 0.2025 0.87943 0.10246 0.0
C384 C 0.20841 0.8974 0.10331 0.0
C385 C 0.19973 0.9033 0.11663 0.0
C386 C 0.18564 0.89151 0.12901 0.0
C387 C 0.16573 0.86109 0.14217 0.0
C388 C 0.15138 0.84664 0.13268 0.0
C389 C 0.16666 0.86281 0.16468 0.0
C390 C 0.18195 0.8771 0.17574 0.0
C391 C 0.19829 0.87898 0.17307 0.0
C392 C 0.2125 0.89186 0.1845 0.0
C393 C 0.21059 0.90304 0.19884 0.0
C394 C 0.19423 0.90123 0.20125 0.0
C395 C 0.18004 0.88833 0.18986 0.0
H396 H 0.29945 0.1731 0.81863 0.0
H397 H 0.30191 0.19692 0.79708 0.0
H398 H 0.34695 0.23375 0.8335 0.0
H399 H 0.34511 0.20986 0.85377 0.0
H400 H 0.31993 0.16044 0.82276 0.0
H401 H 0.29768 0.18617 0.87074 0.0
H402 H 0.29896 0.21166 0.88778 0.0
H403 H 0.34502 0.2224 0.9217 0.0
H404 H 0.34416 0.19752 0.90382 0.0
H405 H 0.35206 0.15642 0.89579 0.0
H406 H 0.35713 0.13552 0.91442 0.0
H407 H 0.30541 0.09415 0.89822 0.0
H408 H 0.3006 0.11508 0.87947 0.0
H409 H 0.32402 0.16411 0.90196 0.0
H410 H 0.34987 0.1475 0.83738 0.0
H411 H 0.35025 0.12485 0.8152 0.0
H412 H 0.29437 0.09468 0.81692 0.0
H413 H 0.29425 0.11786 0.838 0.0
C414 C 0.32195 0.18968 0.83803 0.0
C415 C 0.3099 0.18632 0.82185 0.0
C416 C 0.31121 0.19999 0.80971 0.0
C417 C 0.32462 0.21732 0.81351 0.0
C418 C 0.3366 0.22059 0.82982 0.0
C419 C 0.33542 0.20693 0.8417 0.0
C420 C 0.32081 0.17524 0.85084 0.0
C421 C 0.32048 0.16115 0.84009 0.0
C422 C 0.32151 0.17601 0.87349 0.0
C423 C 0.321 0.19011 0.88573 0.0
C424 C 0.30805 0.19404 0.88186 0.0
C425 C 0.30872 0.20854 0.89172 0.0
C426 C 0.32225 0.21924 0.90583 0.0
C427 C 0.33468 0.2147 0.91049 0.0
C428 C 0.33407 0.20032 0.90051 0.0
C429 C 0.32605 0.13721 0.88604 0.0
C430 C 0.34182 0.14284 0.8964 0.0
C431 C 0.34466 0.1309 0.90708 0.0
C432 C 0.33174 0.11312 0.90764 0.0
C433 C 0.31578 0.10767 0.8977 0.0
C434 C 0.31297 0.11961 0.88702 0.0
C435 C 0.32346 0.14972 0.87377 0.0
C436 C 0.32312 0.16338 0.88465 0.0
C437 C 0.32176 0.14842 0.85133 0.0
C438 C 0.32203 0.13429 0.83913 0.0
C439 C 0.33775 0.13596 0.83291 0.0
C440 C 0.33792 0.12291 0.82041 0.0
C441 C 0.32233 0.10793 0.81408 0.0
C442 C 0.30662 0.10618 0.82101 0.0
C443 C 0.30649 0.11933 0.8332 0.0
H444 H 0.83617 0.12107 0.82587 0.0
H445 H 0.81373 0.09999 0.80179 0.0
H446 H 0.78076 0.11994 0.82057 0.0
H447 H 0.80309 0.14048 0.84532 0.0
H448 H 0.85031 0.15928 0.82288 0.0
H449 H 0.82083 0.11091 0.87407 0.0
H450 H 0.79581 0.08931 0.89444 0.0
H451 H 0.7876 0.13027 0.91816 0.0
H452 H 0.81285 0.15173 0.8983 0.0
H453 H 0.85923 0.19351 0.90487 0.0
H454 H 0.88219 0.21734 0.92566 0.0
H455 H 0.91978 0.20803 0.89462 0.0
H456 H 0.89667 0.18429 0.87357 0.0
H457 H 0.84696 0.15982 0.90204 0.0
H458 H 0.87241 0.20739 0.85715 0.0
H459 H 0.89336 0.23242 0.83681 0.0
H460 H 0.90364 0.19857 0.79729 0.0
H461 H 0.88347 0.17364 0.81887 0.0
C462 C 0.82123 0.13226 0.8373 0.0
C463 C 0.82401 0.12072 0.82493 0.0
C464 C 0.81121 0.10879 0.81106 0.0
C465 C 0.79548 0.1084 0.80898 0.0
C466 C 0.7926 0.11973 0.82189 0.0
C467 C 0.80537 0.13153 0.83597 0.0
C468 C 0.83536 0.1458 0.85058 0.0
C469 C 0.84986 0.15925 0.84022 0.0
C470 C 0.83413 0.14619 0.87305 0.0
C471 C 0.81868 0.1329 0.88472 0.0
C472 C 0.81355 0.11517 0.88361 0.0
C473 C 0.7992 0.10284 0.8952 0.0
C474 C 0.7897 0.10803 0.90807 0.0
C475 C 0.79479 0.12582 0.90881 0.0
C476 C 0.80918 0.13811 0.89738 0.0
C477 C 0.87624 0.18716 0.88764 0.0
C478 C 0.87239 0.19649 0.90269 0.0
C479 C 0.88555 0.21009 0.91459 0.0
C480 C 0.90284 0.21457 0.91184 0.0
C481 C 0.90664 0.20506 0.89692 0.0
C482 C 0.89345 0.19145 0.88495 0.0
C483 C 0.86226 0.17322 0.87442 0.0
C484 C 0.84772 0.15976 0.88473 0.0
C485 C 0.8631 0.17328 0.8518 0.0
C486 C 0.87653 0.1886 0.83984 0.0
C487 C 0.87951 0.20537 0.84451 0.0
C488 C 0.89132 0.21969 0.83257 0.0
C489 C 0.90013 0.21756 0.81522 0.0
C490 C 0.89728 0.20078 0.81068 0.0
C491 C 0.88561 0.18645 0.82288 0.0
H492 H 0.80067 0.64565 0.80817 0.0
H493 H 0.77938 0.6481 0.78689 0.0
H494 H 0.7822 0.68712 0.83094 0.0
H495 H 0.80437 0.6856 0.85151 0.0
H496 H 0.83218 0.66602 0.81637 0.0
H497 H 0.78204 0.63717 0.86302 0.0
H498 H 0.75766 0.63514 0.88323 0.0
H499 H 0.79302 0.68152 0.91929 0.0
H500 H 0.81726 0.68354 0.899 0.0
H501 H 0.86331 0.6847 0.89902 0.0
H502 H 0.88511 0.68323 0.92033 0.0
H503 H 0.87518 0.63693 0.88515 0.0
H504 H 0.85321 0.63838 0.86398 0.0
H505 H 0.82861 0.66058 0.89527 0.0
H506 H 0.87859 0.68851 0.84948 0.0
H507 H 0.9029 0.6913 0.82859 0.0
H508 H 0.86757 0.64618 0.79055 0.0
H509 H 0.8434 0.64317 0.81191 0.0
C510 C 0.80397 0.66519 0.83174 0.0
C511 C 0.79688 0.65487 0.8132 0.0
C512 C 0.78471 0.65623 0.80107 0.0
C513 C 0.77918 0.66772 0.80744 0.0
C514 C 0.7862 0.67806 0.8259 0.0
C515 C 0.79873 0.67705 0.83774 0.0
C516 C 0.81712 0.6638 0.84439 0.0
C517 C 0.83119 0.66451 0.83358 0.0
C518 C 0.81617 0.66223 0.86693 0.0
C519 C 0.80141 0.6606 0.87941 0.0
C520 C 0.7845 0.64688 0.87529 0.0
C521 C 0.77063 0.64567 0.88692 0.0
C522 C 0.77347 0.65822 0.90274 0.0
C523 C 0.79045 0.67178 0.90701 0.0
C524 C 0.80429 0.67289 0.89554 0.0
C525 C 0.85676 0.66173 0.87984 0.0
C526 C 0.86582 0.67423 0.89592 0.0
C527 C 0.87833 0.67343 0.90798 0.0
C528 C 0.88187 0.65999 0.90435 0.0
C529 C 0.87263 0.64736 0.88839 0.0
C530 C 0.8602 0.64825 0.87619 0.0
C531 C 0.84347 0.66268 0.86719 0.0
C532 C 0.82944 0.66189 0.87802 0.0
C533 C 0.84438 0.66401 0.84468 0.0
C534 C 0.8592 0.66553 0.83237 0.0
C535 C 0.87612 0.67908 0.83683 0.0
C536 C 0.88998 0.68076 0.82475 0.0
C537 C 0.88718 0.66895 0.80792 0.0
C538 C 0.87021 0.65534 0.80359 0.0
C539 C 0.85636 0.65369 0.81566 0.0
H540 H 0.82251 0.68634 0.5381 0.0
H541 H 0.7981 0.68362 0.55864 0.0
H542 H 0.76281 0.64145 0.5168 0.0
H543 H 0.78733 0.64396 0.49663 0.0
H544 H 0.83327 0.66403 0.53211 0.0
H545 H 0.81368 0.69327 0.48946 0.0
H546 H 0.7936 0.69827 0.46921 0.0
H547 H 0.78678 0.65853 0.42342 0.0
H548 H 0.80631 0.65298 0.44421 0.0
H549 H 0.84865 0.64588 0.4507 0.0
H550 H 0.87302 0.64774 0.43078 0.0
H551 H 0.90811 0.69468 0.46616 0.0
H552 H 0.88366 0.69285 0.4858 0.0
H553 H 0.83838 0.67115 0.45341 0.0
H554 H 0.85797 0.64167 0.50191 0.0
H555 H 0.88112 0.6414 0.52199 0.0
H556 H 0.8917 0.68866 0.55528 0.0
H557 H 0.86867 0.68887 0.53523 0.0
C558 C 0.80675 0.66541 0.51579 0.0
C559 C 0.80951 0.6765 0.53338 0.0
C560 C 0.79554 0.67504 0.54496 0.0
C561 C 0.77851 0.66237 0.53928 0.0
C562 C 0.77577 0.65126 0.52166 0.0
C563 C 0.78976 0.65276 0.51003 0.0
C564 C 0.82166 0.66692 0.50368 0.0
C565 C 0.83439 0.66568 0.51492 0.0
C566 C 0.8232 0.66916 0.48122 0.0
C567 C 0.81123 0.67244 0.46868 0.0
C568 C 0.80765 0.68539 0.47529 0.0
C569 C 0.79629 0.68835 0.46363 0.0
C570 C 0.78866 0.67876 0.4448 0.0
C571 C 0.7926 0.66618 0.43782 0.0
C572 C 0.80372 0.66298 0.44971 0.0
C573 C 0.8644 0.66914 0.46981 0.0
C574 C 0.8616 0.65657 0.45411 0.0
C575 C 0.87553 0.6576 0.44286 0.0
C576 C 0.89247 0.67133 0.44697 0.0
C577 C 0.89519 0.68403 0.46254 0.0
C578 C 0.88127 0.68293 0.47387 0.0
C579 C 0.84963 0.6679 0.48182 0.0
C580 C 0.83701 0.66926 0.47056 0.0
C581 C 0.84838 0.66621 0.50427 0.0
C582 C 0.8617 0.66536 0.51701 0.0
C583 C 0.86527 0.65192 0.51359 0.0
C584 C 0.87841 0.65173 0.52511 0.0
C585 C 0.88828 0.66508 0.54006 0.0
C586 C 0.88445 0.67833 0.54366 0.0
C587 C 0.87123 0.6784 0.53234 0.0
H588 H 0.37859 0.2165 0.52334 0.0
H589 H 0.37778 0.23829 0.5465 0.0
H590 H 0.32351 0.21577 0.53214 0.0
H591 H 0.32481 0.19459 0.50801 0.0
H592 H 0.35457 0.17809 0.5292 0.0
H593 H 0.37062 0.22498 0.47939 0.0
H594 H 0.36593 0.24579 0.46042 0.0
H595 H 0.32098 0.20303 0.4297 0.0
H596 H 0.32507 0.18231 0.44998 0.0
H597 H 0.3289 0.14221 0.44784 0.0
H598 H 0.32681 0.11711 0.42908 0.0
H599 H 0.37226 0.12522 0.46225 0.0
H600 H 0.37492 0.15109 0.47996 0.0
H601 H 0.3497 0.17503 0.45015 0.0
H602 H 0.32894 0.12879 0.49824 0.0
H603 H 0.32698 0.1051 0.51909 0.0
H604 H 0.37249 0.14214 0.55462 0.0
H605 H 0.37509 0.1657 0.53246 0.0
C606 C 0.35177 0.204 0.51405 0.0
C607 C 0.36659 0.21641 0.52506 0.0
C608 C 0.36603 0.22876 0.53844 0.0
C609 C 0.35049 0.22866 0.54151 0.0
C610 C 0.33573 0.21637 0.53004 0.0
C611 C 0.3364 0.20419 0.51634 0.0
C612 C 0.35227 0.1903 0.5011 0.0
C613 C 0.35384 0.17754 0.51187 0.0
C614 C 0.35042 0.18926 0.47862 0.0
C615 C 0.34802 0.20205 0.46647 0.0
C616 C 0.35957 0.22007 0.46888 0.0
C617 C 0.35701 0.23199 0.4577 0.0
C618 C 0.34305 0.22615 0.44345 0.0
C619 C 0.33168 0.20806 0.44079 0.0
C620 C 0.33412 0.19616 0.45221 0.0
C621 C 0.35192 0.14841 0.46556 0.0
C622 C 0.33862 0.1388 0.45079 0.0
C623 C 0.33729 0.12426 0.44031 0.0
C624 C 0.34915 0.11888 0.44449 0.0
C625 C 0.36291 0.12897 0.45862 0.0
C626 C 0.36436 0.14368 0.46891 0.0
C627 C 0.35216 0.16275 0.47821 0.0
C628 C 0.35066 0.17562 0.46744 0.0
C629 C 0.3533 0.16348 0.50083 0.0
C630 C 0.35235 0.14903 0.51348 0.0
C631 C 0.33874 0.1318 0.51018 0.0
C632 C 0.33748 0.11826 0.52241 0.0
C633 C 0.3495 0.12166 0.53872 0.0
C634 C 0.36313 0.13895 0.54202 0.0
C635 C 0.36454 0.15249 0.52951 0.0
H636 H 0.77779 0.16545 0.51911 0.0
H637 H 0.75502 0.14045 0.53846 0.0
H638 H 0.77506 0.10853 0.51455 0.0
H639 H 0.79713 0.13331 0.49467 0.0
H640 H 0.81519 0.1796 0.52346 0.0
H641 H 0.77053 0.15621 0.46955 0.0
H642 H 0.74757 0.13137 0.4497 0.0
H643 H 0.78509 0.11928 0.42458 0.0
H644 H 0.80792 0.14427 0.44414 0.0
H645 H 0.85198 0.18689 0.44453 0.0
H646 H 0.87807 0.20826 0.42612 0.0
H647 H 0.87664 0.24991 0.46061 0.0
H648 H 0.84972 0.22847 0.47759 0.0
H649 H 0.82062 0.17934 0.44447 0.0
H650 H 0.8633 0.19727 0.50154 0.0
H651 H 0.88583 0.21713 0.52658 0.0
H652 H 0.85343 0.23732 0.54711 0.0
H653 H 0.83083 0.21696 0.52272 0.0
C654 C 0.78902 0.15114 0.50542 0.0
C655 C 0.7771 0.15298 0.51797 0.0
C656 C 0.76416 0.13869 0.52908 0.0
C657 C 0.76313 0.12239 0.52811 0.0
C658 C 0.77513 0.12069 0.51536 0.0
C659 C 0.78789 0.1349 0.5041 0.0
C660 C 0.80308 0.16623 0.49408 0.0
C661 C 0.81623 0.17981 0.50616 0.0
C662 C 0.80458 0.16618 0.47161 0.0
C663 C 0.7909 0.15203 0.45833 0.0
C664 C 0.77377 0.14824 0.45964 0.0
C665 C 0.76067 0.13399 0.44839 0.0
C666 C 0.76447 0.12329 0.4356 0.0
C667 C 0.78173 0.12738 0.43401 0.0
C668 C 0.79481 0.14165 0.4452 0.0
C669 C 0.84895 0.206 0.4627 0.0
C670 C 0.85718 0.20064 0.44796 0.0
C671 C 0.87229 0.21291 0.43765 0.0
C672 C 0.87969 0.23088 0.44202 0.0
C673 C 0.87131 0.23623 0.45665 0.0
C674 C 0.856 0.22394 0.46667 0.0
C675 C 0.83306 0.19275 0.47388 0.0
C676 C 0.81952 0.17944 0.46175 0.0
C677 C 0.83133 0.19289 0.49638 0.0
C678 C 0.84544 0.20569 0.51036 0.0
C679 C 0.86116 0.20608 0.5114 0.0
C680 C 0.87405 0.21749 0.52564 0.0
C681 C 0.87141 0.22874 0.53904 0.0
C682 C 0.85577 0.22857 0.53745 0.0
C683 C 0.84286 0.21704 0.52341 0.0
H684 H 0.96884 0.50695 0.15764 0.0
H685 H 0.96732 0.52891 0.13638 0.0
H686 H 0.01918 0.56746 0.15634 0.0
H687 H 0.02026 0.5456 0.17806 0.0
H688 H 0.99279 0.49531 0.1561 0.0
H689 H 0.97362 0.52393 0.20389 0.0
H690 H 0.97504 0.54947 0.22065 0.0
H691 H 0.0231 0.56226 0.25108 0.0
H692 H 0.0222 0.53746 0.23297 0.0
H693 H 0.02662 0.49385 0.23225 0.0
H694 H 0.03027 0.4726 0.25224 0.0
H695 H 0.97904 0.43193 0.23306 0.0
H696 H 0.97576 0.45314 0.21271 0.0
H697 H 0.00163 0.50385 0.23457 0.0
H698 H 0.02215 0.47723 0.18429 0.0
H699 H 0.02223 0.45326 0.16489 0.0
H700 H 0.97151 0.43673 0.13986 0.0
H701 H 0.97128 0.46033 0.15987 0.0
C702 C 0.99459 0.52471 0.16954 0.0
C703 C 0.97986 0.52015 0.15735 0.0
C704 C 0.97905 0.53272 0.14517 0.0
C705 C 0.99308 0.55005 0.14473 0.0
C706 C 0.00795 0.5544 0.15667 0.0
C707 C 0.00867 0.54189 0.16897 0.0
C708 C 0.99526 0.51163 0.18314 0.0
C709 C 0.99445 0.49702 0.17329 0.0
C710 C 0.99774 0.51409 0.20551 0.0
C711 C 0.99798 0.52896 0.21682 0.0
C712 C 0.9846 0.5324 0.21392 0.0
C713 C 0.98532 0.54691 0.22376 0.0
C714 C 0.99927 0.55809 0.2371 0.0
C715 C 0.01237 0.55425 0.24049 0.0
C716 C 0.01177 0.53989 0.23038 0.0
C717 C 0.00101 0.47501 0.22082 0.0
C718 C 0.01616 0.48036 0.23251 0.0
C719 C 0.0182 0.4682 0.24397 0.0
C720 C 0.00503 0.45049 0.2441 0.0
C721 C 0.98963 0.44535 0.23291 0.0
C722 C 0.98766 0.45748 0.22137 0.0
C723 C 0.9993 0.48761 0.20749 0.0
C724 C 0.99988 0.50211 0.21739 0.0
C725 C 0.9966 0.48507 0.18516 0.0
C726 C 0.99663 0.47044 0.17367 0.0
C727 C 0.01095 0.46828 0.17485 0.0
C728 C 0.01105 0.45467 0.16362 0.0
C729 C 0.99686 0.44305 0.15089 0.0
C730 C 0.98252 0.44526 0.1498 0.0
C731 C 0.98244 0.45884 0.16105 0.0
H732 H 0.50353 0.45428 0.15727 0.0
H733 H 0.47947 0.4317 0.13627 0.0
H734 H 0.44503 0.44584 0.16658 0.0
H735 H 0.46931 0.46883 0.18692 0.0
H736 H 0.51653 0.49015 0.15757 0.0
H737 H 0.48963 0.4424 0.20995 0.0
H738 H 0.46432 0.42071 0.22984 0.0
H739 H 0.45691 0.46185 0.25492 0.0
H740 H 0.48242 0.48335 0.23558 0.0
H741 H 0.52745 0.52553 0.23856 0.0
H742 H 0.55044 0.55006 0.25841 0.0
H743 H 0.58835 0.54204 0.22591 0.0
H744 H 0.56516 0.51757 0.20576 0.0
H745 H 0.51659 0.49201 0.23686 0.0
H746 H 0.53853 0.53857 0.18992 0.0
H747 H 0.55834 0.56338 0.16832 0.0
H748 H 0.56932 0.52968 0.12957 0.0
H749 H 0.55018 0.505 0.15221 0.0
C750 C 0.48816 0.46308 0.1738 0.0
C751 C 0.49079 0.45249 0.15936 0.0
C752 C 0.47698 0.43949 0.14754 0.0
C753 C 0.4603 0.43688 0.14987 0.0
C754 C 0.45773 0.44757 0.16432 0.0
C755 C 0.47156 0.4606 0.1761 0.0
C756 C 0.50289 0.47697 0.18612 0.0
C757 C 0.51681 0.49037 0.17491 0.0
C758 C 0.50273 0.47768 0.2087 0.0
C759 C 0.48789 0.46447 0.22133 0.0
C760 C 0.48257 0.44669 0.21986 0.0
C761 C 0.46803 0.43431 0.23112 0.0
C762 C 0.45853 0.4395 0.24403 0.0
C763 C 0.46405 0.45737 0.24551 0.0
C764 C 0.47862 0.46971 0.2344 0.0
C765 C 0.54459 0.51972 0.22069 0.0
C766 C 0.5407 0.52896 0.23583 0.0
C767 C 0.55388 0.54297 0.24721 0.0
C768 C 0.57125 0.54797 0.24384 0.0
C769 C 0.57513 0.53865 0.22871 0.0
C770 C 0.5619 0.52463 0.21725 0.0
C771 C 0.53046 0.50515 0.20832 0.0
C772 C 0.51662 0.49162 0.21952 0.0
C773 C 0.53037 0.50474 0.18569 0.0
C774 C 0.54307 0.51993 0.17296 0.0
C775 C 0.54552 0.53657 0.17713 0.0
C776 C 0.55668 0.55073 0.16451 0.0
C777 C 0.56537 0.54855 0.14707 0.0
C778 C 0.56303 0.5319 0.14302 0.0
C779 C 0.55196 0.51773 0.15583 0.0
H780 H 0.53436 0.02663 0.16156 0.0
H781 H 0.55961 0.0318 0.14099 0.0
H782 H 0.54289 0.97698 0.14526 0.0
H783 H 0.51817 0.97225 0.16687 0.0
H784 H 0.49795 0.00077 0.15023 0.0
H785 H 0.54016 0.01644 0.20694 0.0
H786 H 0.5616 0.01395 0.22758 0.0
H787 H 0.52388 0.95983 0.24003 0.0
H788 H 0.5024 0.9626 0.21966 0.0
H789 H 0.45561 0.96351 0.22358 0.0
H790 H 0.43119 0.96141 0.24354 0.0
H791 H 0.44676 0.01397 0.22494 0.0
H792 H 0.47075 0.01571 0.20459 0.0
H793 H 0.49031 0.98567 0.22713 0.0
H794 H 0.44713 0.96979 0.17647 0.0
H795 H 0.42437 0.96939 0.15564 0.0
H796 H 0.46168 0.01877 0.12772 0.0
H797 H 0.48427 0.01973 0.15002 0.0
C798 C 0.52444 0.99908 0.16566 0.0
C799 C 0.53624 0.01578 0.15812 0.0
C800 C 0.55061 0.01866 0.14622 0.0
C801 C 0.55329 0.00478 0.14118 0.0
C802 C 0.54145 0.98805 0.14901 0.0
C803 C 0.52722 0.98526 0.16124 0.0
C804 C 0.50904 0.9961 0.17778 0.0
C805 C 0.49634 0.99774 0.16712 0.0
C806 C 0.50666 0.99131 0.1995 0.0
C807 C 0.51976 0.98965 0.2116 0.0
C808 C 0.53657 0.00401 0.21396 0.0
C809 C 0.54882 0.00253 0.22573 0.0
C810 C 0.5445 0.98665 0.23541 0.0
C811 C 0.5276 0.9723 0.23303 0.0
C812 C 0.51533 0.97382 0.2213 0.0
C813 C 0.46486 0.98969 0.21244 0.0
C814 C 0.45374 0.97457 0.22388 0.0
C815 C 0.43982 0.97342 0.23534 0.0
C816 C 0.43691 0.98748 0.23575 0.0
C817 C 0.44834 0.00274 0.22459 0.0
C818 C 0.46214 0.00381 0.21303 0.0
C819 C 0.47934 0.99081 0.19976 0.0
C820 C 0.49183 0.98873 0.21025 0.0
C821 C 0.48133 0.99485 0.17772 0.0
C822 C 0.46744 0.99492 0.16513 0.0
C823 C 0.45039 0.98078 0.1663 0.0
C824 C 0.43739 0.98042 0.15403 0.0
C825 C 0.44115 0.99397 0.13976 0.0
C826 C 0.45822 0.0082 0.13869 0.0
C827 C 0.47122 0.00868 0.15127 0.0
H828 H 0.49145 0.02603 0.87138 0.0
H829 H 0.46614 0.02231 0.89076 0.0
H830 H 0.43296 0.97895 0.84897 0.0
H831 H 0.45834 0.98237 0.83017 0.0
H832 H 0.50327 0.00394 0.86713 0.0
H833 H 0.48521 0.03331 0.819 0.0
H834 H 0.46369 0.03556 0.79791 0.0
H835 H 0.45386 0.99008 0.7609 0.0
H836 H 0.47524 0.9878 0.78215 0.0
H837 H 0.52038 0.98884 0.78275 0.0
H838 H 0.54505 0.99114 0.7631 0.0
H839 H 0.57999 0.03164 0.80682 0.0
H840 H 0.55538 0.03004 0.8258 0.0
H841 H 0.50989 0.01059 0.78845 0.0
H842 H 0.52832 0.98129 0.8381 0.0
H843 H 0.5508 0.98052 0.85909 0.0
H844 H 0.56066 0.02723 0.89315 0.0
H845 H 0.53829 0.02795 0.87219 0.0
C846 C 0.47679 0.00457 0.84924 0.0
C847 C 0.47871 0.01574 0.8664 0.0
C848 C 0.46422 0.01369 0.87733 0.0
C849 C 0.44752 0.00036 0.87136 0.0
C850 C 0.44564 0.98925 0.85408 0.0
C851 C 0.46014 0.9913 0.84319 0.0
C852 C 0.4922 0.00648 0.83801 0.0
C853 C 0.50481 0.00557 0.84994 0.0
C854 C 0.49413 0.0084 0.81558 0.0
C855 C 0.48168 0.01028 0.80226 0.0
C856 C 0.47842 0.02385 0.80632 0.0
C857 C 0.46623 0.0252 0.79417 0.0
C858 C 0.45705 0.01295 0.77783 0.0
C859 C 0.4606 0.99959 0.77355 0.0
C860 C 0.47287 0.99833 0.78558 0.0
C861 C 0.53597 0.00905 0.806 0.0
C862 C 0.53334 0.99829 0.78807 0.0
C863 C 0.5474 0.99957 0.77689 0.0
C864 C 0.56433 0.01147 0.7836 0.0
C865 C 0.56701 0.02221 0.80155 0.0
C866 C 0.55296 0.0212 0.81245 0.0
C867 C 0.52091 0.00783 0.8175 0.0
C868 C 0.50835 0.00889 0.80562 0.0
C869 C 0.51906 0.00609 0.83999 0.0
C870 C 0.53176 0.00477 0.85349 0.0
C871 C 0.53528 0.99129 0.85019 0.0
C872 C 0.54804 0.99081 0.86222 0.0
C873 C 0.55755 0.0039 0.8776 0.0
C874 C 0.55368 0.01711 0.8812 0.0
C875 C 0.54083 0.01747 0.86936 0.0
H876 H 0.02908 0.53955 0.8644 0.0
H877 H 0.02952 0.56313 0.88522 0.0
H878 H 0.98007 0.54963 0.85852 0.0
H879 H 0.97942 0.52559 0.83838 0.0
H880 H 0.00656 0.50455 0.86552 0.0
H881 H 0.02533 0.55033 0.81201 0.0
H882 H 0.02217 0.5718 0.79198 0.0
H883 H 0.9721 0.53087 0.76962 0.0
H884 H 0.97563 0.50945 0.78927 0.0
H885 H 0.98149 0.46671 0.78514 0.0
H886 H 0.98333 0.44466 0.76367 0.0
H887 H 0.03182 0.45905 0.79398 0.0
H888 H 0.02981 0.48106 0.81561 0.0
H889 H 0.00161 0.50095 0.78646 0.0
H890 H 0.98251 0.45485 0.83435 0.0
H891 H 0.98168 0.43166 0.85517 0.0
H892 H 0.02627 0.47001 0.89102 0.0
H893 H 0.02766 0.49314 0.86909 0.0
C894 C 0.0043 0.53091 0.84971 0.0
C895 C 0.01831 0.54164 0.8631 0.0
C896 C 0.01862 0.55524 0.8748 0.0
C897 C 0.00489 0.55838 0.87339 0.0
C898 C 0.9908 0.54752 0.86006 0.0
C899 C 0.99048 0.53386 0.8484 0.0
C900 C 0.00423 0.51662 0.83723 0.0
C901 C 0.00578 0.50388 0.84821 0.0
C902 C 0.00238 0.51534 0.81474 0.0
C903 C 0.00066 0.52834 0.80224 0.0
C904 C 0.01369 0.54602 0.80278 0.0
C905 C 0.01179 0.55828 0.7914 0.0
C906 C 0.99681 0.55311 0.77927 0.0
C907 C 0.98389 0.53531 0.77856 0.0
C908 C 0.98585 0.52304 0.78985 0.0
C909 C 0.00548 0.47549 0.802 0.0
C910 C 0.99254 0.46515 0.78713 0.0
C911 C 0.99365 0.45259 0.77483 0.0
C912 C 0.00779 0.45019 0.77703 0.0
C913 C 0.02069 0.46047 0.79207 0.0
C914 C 0.01957 0.47306 0.80439 0.0
C915 C 0.00437 0.48904 0.81469 0.0
C916 C 0.00252 0.50161 0.80376 0.0
C917 C 0.00554 0.48989 0.83728 0.0
C918 C 0.0053 0.47577 0.84989 0.0
C919 C 0.99235 0.45828 0.84637 0.0
C920 C 0.99174 0.44501 0.85855 0.0
C921 C 0.00385 0.44892 0.87491 0.0
C922 C 0.01687 0.46646 0.87839 0.0
C923 C 0.01758 0.47974 0.866 0.0
H924 H 0.44613 0.50222 0.85991 0.0
H925 H 0.42525 0.47783 0.88183 0.0
H926 H 0.44515 0.44613 0.85669 0.0
H927 H 0.46533 0.47025 0.83439 0.0
H928 H 0.48352 0.51782 0.8605 0.0
H929 H 0.43578 0.48925 0.8106 0.0
H930 H 0.41306 0.4642 0.79069 0.0
H931 H 0.45153 0.4546 0.763 0.0
H932 H 0.47408 0.4797 0.78263 0.0
H933 H 0.51861 0.5222 0.78334 0.0
H934 H 0.5443 0.54317 0.76379 0.0
H935 H 0.53737 0.58508 0.78705 0.0
H936 H 0.5119 0.56394 0.80714 0.0
H937 H 0.48485 0.51358 0.78139 0.0
H938 H 0.53076 0.53619 0.83195 0.0
H939 H 0.55546 0.55851 0.85235 0.0
H940 H 0.52297 0.57598 0.88072 0.0
H941 H 0.49846 0.55398 0.8597 0.0
C942 C 0.45711 0.48793 0.84543 0.0
C943 C 0.44581 0.48992 0.85907 0.0
C944 C 0.43396 0.47599 0.87165 0.0
C945 C 0.43341 0.45992 0.87102 0.0
C946 C 0.44484 0.4581 0.85727 0.0
C947 C 0.4565 0.47193 0.84458 0.0
C948 C 0.47009 0.50267 0.83254 0.0
C949 C 0.48358 0.51716 0.84317 0.0
C950 C 0.47046 0.50145 0.81002 0.0
C951 C 0.45661 0.48634 0.79804 0.0
C952 C 0.43926 0.48169 0.80026 0.0
C953 C 0.4263 0.46735 0.78895 0.0
C954 C 0.43049 0.45746 0.77517 0.0
C955 C 0.44788 0.46213 0.77313 0.0
C956 C 0.4608 0.47646 0.78438 0.0
C957 C 0.51338 0.54152 0.79668 0.0
C958 C 0.52257 0.53589 0.78408 0.0
C959 C 0.53723 0.54792 0.77286 0.0
C960 C 0.54292 0.56585 0.77376 0.0
C961 C 0.53353 0.57142 0.78623 0.0
C962 C 0.5189 0.55936 0.7976 0.0
C963 C 0.49835 0.52868 0.80935 0.0
C964 C 0.48454 0.51453 0.79868 0.0
C965 C 0.4979 0.52998 0.83187 0.0
C966 C 0.51286 0.54361 0.84411 0.0
C967 C 0.52904 0.545 0.84235 0.0
C968 C 0.54309 0.55765 0.85416 0.0
C969 C 0.54119 0.56905 0.8681 0.0
C970 C 0.52493 0.56758 0.86986 0.0
C971 C 0.51088 0.55494 0.85801 0.0
H972 H 0.62324 0.83611 0.49225 0.0
H973 H 0.62372 0.85949 0.47173 0.0
H974 H 0.67601 0.89506 0.4932 0.0
H975 H 0.67504 0.87185 0.51425 0.0
H976 H 0.64701 0.82311 0.4901 0.0
H977 H 0.62696 0.85068 0.53913 0.0
H978 H 0.62919 0.87658 0.55619 0.0
H979 H 0.67672 0.88772 0.5866 0.0
H980 H 0.67494 0.86249 0.5685 0.0
H981 H 0.68003 0.8211 0.56606 0.0
H982 H 0.68522 0.80052 0.58508 0.0
H983 H 0.63548 0.75802 0.56409 0.0
H984 H 0.63067 0.77866 0.54464 0.0
H985 H 0.65396 0.82899 0.56896 0.0
H986 H 0.67711 0.80604 0.51724 0.0
H987 H 0.67882 0.78336 0.49684 0.0
H988 H 0.62778 0.76485 0.47147 0.0
H989 H 0.62597 0.78722 0.49242 0.0
C990 C 0.64904 0.85232 0.50487 0.0
C991 C 0.63476 0.84898 0.49248 0.0
C992 C 0.63511 0.86237 0.48071 0.0
C993 C 0.64987 0.87928 0.48086 0.0
C994 C 0.66425 0.88239 0.49306 0.0
C995 C 0.6638 0.86909 0.50499 0.0
C996 C 0.64866 0.83841 0.51788 0.0
C997 C 0.64815 0.82417 0.50738 0.0
C998 C 0.65054 0.84007 0.54037 0.0
C999 C 0.65096 0.85482 0.55221 0.0
C1000 C 0.63793 0.85881 0.54934 0.0
C1001 C 0.63913 0.87352 0.5593 0.0
C1002 C 0.65326 0.88439 0.57256 0.0
C1003 C 0.66589 0.87991 0.57607 0.0
C1004 C 0.66478 0.86533 0.56595 0.0
C1005 C 0.65504 0.80138 0.55382 0.0
C1006 C 0.67021 0.80735 0.56571 0.0
C1007 C 0.67313 0.79556 0.57663 0.0
C1008 C 0.66083 0.77756 0.57603 0.0
C1009 C 0.64541 0.77172 0.56454 0.0
C1010 C 0.64257 0.78351 0.55352 0.0
C1011 C 0.65254 0.8138 0.54114 0.0
C1012 C 0.6525 0.82775 0.55172 0.0
C1013 C 0.65032 0.81198 0.5187 0.0
C1014 C 0.65133 0.79817 0.50651 0.0
C1015 C 0.66621 0.79694 0.50748 0.0
C1016 C 0.66723 0.78408 0.49568 0.0
C1017 C 0.65341 0.77227 0.48259 0.0
C1018 C 0.63853 0.77356 0.48167 0.0
C1019 C 0.63753 0.78642 0.49347 0.0
H1020 H 0.16889 0.78388 0.49498 0.0
H1021 H 0.14339 0.76137 0.47587 0.0
H1022 H 0.11194 0.77825 0.50846 0.0
H1023 H 0.13762 0.80094 0.52735 0.0
H1024 H 0.18265 0.82078 0.49515 0.0
H1025 H 0.1557 0.77192 0.54406 0.0
H1026 H 0.12969 0.75055 0.56283 0.0
H1027 H 0.13043 0.7923 0.5998 0.0
H1028 H 0.1556 0.8136 0.57983 0.0
H1029 H 0.19699 0.8539 0.57803 0.0
H1030 H 0.22009 0.88008 0.59521 0.0
H1031 H 0.25759 0.87698 0.55485 0.0
H1032 H 0.23437 0.85009 0.53846 0.0
H1033 H 0.18733 0.82162 0.57417 0.0
H1034 H 0.20585 0.86869 0.52707 0.0
H1035 H 0.22495 0.89356 0.50499 0.0
H1036 H 0.2352 0.86001 0.46485 0.0
H1037 H 0.21673 0.8353 0.48781 0.0
C1038 C 0.15508 0.79393 0.51265 0.0
C1039 C 0.1565 0.78272 0.49797 0.0
C1040 C 0.14191 0.76979 0.48725 0.0
C1041 C 0.12565 0.76796 0.49084 0.0
C1042 C 0.1243 0.77939 0.50535 0.0
C1043 C 0.13891 0.79227 0.51619 0.0
C1044 C 0.17057 0.80739 0.52424 0.0
C1045 C 0.1839 0.8208 0.51239 0.0
C1046 C 0.17173 0.80768 0.5468 0.0
C1047 C 0.15741 0.79442 0.56017 0.0
C1048 C 0.15019 0.77646 0.55614 0.0
C1049 C 0.1354 0.76422 0.56709 0.0
C1050 C 0.12773 0.76966 0.58267 0.0
C1051 C 0.13563 0.78761 0.58751 0.0
C1052 C 0.15023 0.79984 0.57631 0.0
C1053 C 0.21389 0.85012 0.55676 0.0
C1054 C 0.2102 0.85863 0.57313 0.0
C1055 C 0.22343 0.87377 0.58274 0.0
C1056 C 0.24067 0.88086 0.57608 0.0
C1057 C 0.24446 0.87189 0.56034 0.0
C1058 C 0.23119 0.85659 0.55085 0.0
C1059 C 0.19947 0.83519 0.54509 0.0
C1060 C 0.18633 0.82144 0.55689 0.0
C1061 C 0.19807 0.83499 0.52253 0.0
C1062 C 0.21008 0.85018 0.50932 0.0
C1063 C 0.21248 0.86675 0.51377 0.0
C1064 C 0.22324 0.88093 0.50093 0.0
C1065 C 0.2316 0.87881 0.48306 0.0
C1066 C 0.2292 0.86219 0.47865 0.0
C1067 C 0.21852 0.84801 0.49165 0.0
H1068 H 0.13096 0.30545 0.4859 0.0
H1069 H 0.10958 0.30537 0.46237 0.0
H1070 H 0.12255 0.35621 0.48718 0.0
H1071 H 0.14344 0.35569 0.51154 0.0
H1072 H 0.16779 0.33287 0.48651 0.0
H1073 H 0.11688 0.30366 0.53317 0.0
H1074 H 0.09217 0.30201 0.55206 0.0
H1075 H 0.12653 0.351 0.58417 0.0
H1076 H 0.15114 0.35259 0.56516 0.0
H1077 H 0.194 0.34567 0.57506 0.0
H1078 H 0.21419 0.34118 0.59607 0.0
H1079 H 0.20833 0.30129 0.55115 0.0
H1080 H 0.18766 0.30522 0.53071 0.0
H1081 H 0.16192 0.32705 0.56532 0.0
H1082 H 0.21336 0.35482 0.52347 0.0
H1083 H 0.23863 0.35854 0.50395 0.0
H1084 H 0.20512 0.31589 0.46152 0.0
H1085 H 0.17997 0.31193 0.48144 0.0
C1086 C 0.13878 0.33058 0.50034 0.0
C1087 C 0.12911 0.31652 0.48632 0.0
C1088 C 0.11699 0.3166 0.47274 0.0
C1089 C 0.11451 0.33095 0.47252 0.0
C1090 C 0.12402 0.34491 0.48696 0.0
C1091 C 0.13602 0.34469 0.50082 0.0
C1092 C 0.15216 0.33058 0.51382 0.0
C1093 C 0.16651 0.33148 0.50374 0.0
C1094 C 0.15072 0.3294 0.53628 0.0
C1095 C 0.13578 0.32832 0.54767 0.0
C1096 C 0.11904 0.31406 0.54423 0.0
C1097 C 0.10498 0.31307 0.55513 0.0
C1098 C 0.10744 0.3264 0.56954 0.0
C1099 C 0.12424 0.34063 0.57298 0.0
C1100 C 0.1383 0.34152 0.56224 0.0
C1101 C 0.18957 0.32606 0.55102 0.0
C1102 C 0.19692 0.33583 0.56984 0.0
C1103 C 0.20842 0.33326 0.58184 0.0
C1104 C 0.21287 0.32099 0.57509 0.0
C1105 C 0.20527 0.31099 0.55651 0.0
C1106 C 0.19356 0.31334 0.54476 0.0
C1107 C 0.17755 0.32893 0.53801 0.0
C1108 C 0.16343 0.32863 0.54814 0.0
C1109 C 0.17938 0.33095 0.51554 0.0
C1110 C 0.19477 0.33303 0.50399 0.0
C1111 C 0.21148 0.34615 0.51011 0.0
C1112 C 0.2259 0.34835 0.49884 0.0
C1113 C 0.22389 0.33749 0.48119 0.0
C1114 C 0.20714 0.3243 0.47521 0.0
C1115 C 0.19274 0.32214 0.48645 0.0
H1116 H 0.96518 0.35236 0.0711 0.0
H1117 H 0.02391 0.445 0.12813 0.0
H1118 H 0.01971 0.38569 0.05839 0.0
H1119 H 0.97052 0.4093 0.14432 0.0
H1120 H 0.02337 0.42259 0.10464 0.0
H1121 H 0.96756 0.37216 0.09987 0.0
C1122 C 0.97769 0.3638 0.07441 0.0
C1123 C 0.99222 0.36746 0.06208 0.0
C1124 C 0.01181 0.41961 0.11348 0.0
C1125 C 0.99501 0.39029 0.09507 0.0
C1126 C 0.01214 0.43237 0.12699 0.0
C1127 C 0.99718 0.42909 0.13806 0.0
C1128 C 0.9964 0.40347 0.11094 0.0
C1129 C 0.98225 0.41254 0.13576 0.0
C1130 C 0.97904 0.3751 0.09091 0.0
C1131 C 0.00813 0.38238 0.06736 0.0
N1132 N 0.98221 0.40041 0.12234 0.0
N1133 N 0.00906 0.39336 0.08331 0.0
H1134 H 0.60503 0.64114 0.07066 0.0
H1135 H 0.59612 0.55709 0.12726 0.0
H1136 H 0.6367 0.61941 0.05346 0.0
H1137 H 0.55913 0.57389 0.13374 0.0
H1138 H 0.61302 0.58132 0.10287 0.0
H1139 H 0.59032 0.61838 0.09706 0.0
C1140 C 0.60899 0.63165 0.07247 0.0
C1141 C 0.62208 0.63217 0.05962 0.0
C1142 C 0.60123 0.5797 0.10973 0.0
C1143 C 0.60513 0.6059 0.08996 0.0
C1144 C 0.59152 0.56582 0.12357 0.0
C1145 C 0.57616 0.56342 0.13267 0.0
C1146 C 0.59557 0.59128 0.10501 0.0
C1147 C 0.57102 0.57534 0.1275 0.0
C1148 C 0.60051 0.61859 0.08756 0.0
C1149 C 0.62663 0.6195 0.06289 0.0
N1150 N 0.58068 0.5887 0.11405 0.0
N1151 N 0.61813 0.60684 0.07769 0.0
H1152 H 0.3794 0.01293 0.04983 0.0
H1153 H 0.4149 0.9647 0.1204 0.0
H1154 H 0.35116 0.95759 0.06245 0.0
H1155 H 0.43616 0.02038 0.12595 0.0
H1156 H 0.39241 0.9625 0.09732 0.0
H1157 H 0.40108 0.0167 0.07628 0.0
C1158 C 0.37763 0.00162 0.05826 0.0
C1159 C 0.36348 0.98489 0.05368 0.0
C1160 C 0.40191 0.97522 0.10367 0.0
C1161 C 0.38829 0.98911 0.08366 0.0
C1162 C 0.41476 0.97648 0.11703 0.0
C1163 C 0.42742 0.99274 0.12546 0.0
C1164 C 0.40171 0.99032 0.09832 0.0
C1165 C 0.42678 0.00759 0.11974 0.0
C1166 C 0.39003 0.00379 0.07332 0.0
C1167 C 0.36189 0.97073 0.06517 0.0
N1168 N 0.41416 0.00604 0.10646 0.0
N1169 N 0.37418 0.97316 0.07941 0.0
H1170 H 0.3546 0.95568 0.94781 0.0
H1171 H 0.44088 0.02519 0.8873 0.0
H1172 H 0.37688 0.01152 0.9534 0.0
H1173 H 0.41922 0.96941 0.88351 0.0
H1174 H 0.41632 0.02043 0.90926 0.0
H1175 H 0.37673 0.96045 0.92164 0.0
C1176 C 0.36404 0.96895 0.94344 0.0
C1177 C 0.36392 0.98322 0.95304 0.0
C1178 C 0.41689 0.00923 0.90351 0.0
C1179 C 0.38944 0.98877 0.92307 0.0
C1180 C 0.43096 0.01194 0.89107 0.0
C1181 C 0.43218 0.99769 0.88363 0.0
C1182 C 0.40394 0.99213 0.90864 0.0
C1183 C 0.41876 0.98079 0.8887 0.0
C1184 C 0.37672 0.97166 0.92849 0.0
C1185 C 0.37649 0.00011 0.94657 0.0
N1186 N 0.40528 0.9785 0.90098 0.0
N1187 N 0.3888 0.0024 0.93212 0.0
H1188 H 0.02215 0.38605 0.96393 0.0
H1189 H 0.97439 0.42035 0.88982 0.0
H1190 H 0.96737 0.3575 0.95085 0.0
H1191 H 0.02997 0.4453 0.89202 0.0
H1192 H 0.97201 0.39742 0.91257 0.0
H1193 H 0.02579 0.40796 0.93787 0.0
C1194 C 0.01092 0.38427 0.95548 0.0
C1195 C 0.9944 0.36994 0.95979 0.0
C1196 C 0.98475 0.40784 0.90802 0.0
C1197 C 0.99847 0.39502 0.93013 0.0
C1198 C 0.98613 0.42094 0.89486 0.0
C1199 C 0.00242 0.4348 0.88878 0.0
C1200 C 0.99975 0.40856 0.91545 0.0
C1201 C 0.01714 0.435 0.89644 0.0
C1202 C 0.01301 0.39681 0.94063 0.0
C1203 C 0.98035 0.36836 0.94828 0.0
N1204 N 0.01546 0.4221 0.90942 0.0
N1205 N 0.9827 0.38077 0.93417 0.0
H1206 H 0.62601 0.61954 0.95796 0.0
H1207 H 0.55068 0.60298 0.87698 0.0
H1208 H 0.60562 0.65374 0.95198 0.0
H1209 H 0.56528 0.56482 0.88923 0.0
H1210 H 0.57367 0.62353 0.90085 0.0
H1211 H 0.60686 0.60121 0.92902 0.0
C1212 C 0.61765 0.6233 0.95045 0.0
C1213 C 0.61728 0.63809 0.95762 0.0
C1214 C 0.57191 0.61069 0.89823 0.0
C1215 C 0.59537 0.6172 0.92457 0.0
C1216 C 0.55873 0.59893 0.88469 0.0
C1217 C 0.55592 0.58209 0.88128 0.0
C1218 C 0.58238 0.6056 0.90852 0.0
C1219 C 0.56703 0.57769 0.89131 0.0
C1220 C 0.60669 0.6128 0.93398 0.0
C1221 C 0.60621 0.64234 0.94722 0.0
N1222 N 0.57969 0.58933 0.9046 0.0
N1223 N 0.59565 0.63191 0.93133 0.0
H1224 H 0.03885 0.64827 0.95562 0.0
H1225 H 0.97801 0.55801 0.89482 0.0
H1226 H 0.98333 0.61908 0.96243 0.0
H1227 H 0.0324 0.59128 0.88144 0.0
H1228 H 0.97931 0.58088 0.91811 0.0
H1229 H 0.03645 0.62826 0.92707 0.0
C1230 C 0.02613 0.63773 0.95104 0.0
C1231 C 0.01128 0.63527 0.96165 0.0
C1232 C 0.99093 0.58323 0.90994 0.0
C1233 C 0.00846 0.61218 0.92896 0.0
C1234 C 0.99018 0.5702 0.89654 0.0
C1235 C 0.00516 0.57264 0.8863 0.0
C1236 C 0.00679 0.59879 0.91323 0.0
C1237 C 0.0206 0.58866 0.88936 0.0
C1238 C 0.02477 0.6263 0.93467 0.0
C1239 C 0.99514 0.62145 0.9548 0.0
N1240 N 0.02104 0.60105 0.90267 0.0
N1241 N 0.99418 0.61032 0.93905 0.0
H1242 H 0.38604 0.36192 0.93555 0.0
H1243 H 0.42355 0.46179 0.91229 0.0
H1244 H 0.37317 0.3937 0.97513 0.0
H1245 H 0.41629 0.42462 0.86235 0.0
H1246 H 0.40622 0.43755 0.93626 0.0
H1247 H 0.3987 0.38524 0.90925 0.0
C1248 C 0.38581 0.37378 0.93866 0.0
C1249 C 0.37862 0.37592 0.9576 0.0
C1250 C 0.40831 0.43474 0.91998 0.0
C1251 C 0.39323 0.40269 0.92769 0.0
C1252 C 0.41814 0.44857 0.90621 0.0
C1253 C 0.4216 0.44532 0.88524 0.0
C1254 C 0.40211 0.41753 0.91288 0.0
C1255 C 0.4144 0.42784 0.8785 0.0
C1256 C 0.39296 0.38704 0.9236 0.0
C1257 C 0.37856 0.39151 0.96073 0.0
N1258 N 0.40519 0.41463 0.89234 0.0
N1259 N 0.38597 0.40441 0.94604 0.0
H1260 H 0.65379 0.03913 0.9422 0.0
H1261 H 0.5577 0.97694 0.89813 0.0
H1262 H 0.61925 0.98812 0.96812 0.0
H1263 H 0.59001 0.03165 0.88394 0.0
H1264 H 0.58135 0.97866 0.91939 0.0
H1265 H 0.63201 0.03416 0.91591 0.0
C1266 C 0.64167 0.02678 0.94225 0.0
C1267 C 0.63827 0.01413 0.95766 0.0
C1268 C 0.58325 0.99024 0.91151 0.0
C1269 C 0.61308 0.00841 0.92752 0.0
C1270 C 0.56982 0.98925 0.89934 0.0
C1271 C 0.57187 0.00424 0.8895 0.0
C1272 C 0.59887 0.00627 0.91355 0.0
C1273 C 0.58779 0.01987 0.89158 0.0
C1274 C 0.62919 0.02397 0.92722 0.0
C1275 C 0.62239 0.99827 0.95663 0.0
N1276 N 0.60063 0.02047 0.90339 0.0
N1277 N 0.61027 0.99593 0.94197 0.0
H1278 H 0.62947 0.99385 0.06757 0.0
H1279 H 0.5674 0.02707 0.10733 0.0
H1280 H 0.63762 0.04458 0.0523 0.0
H1281 H 0.57282 0.98902 0.14286 0.0
H1282 H 0.59139 0.03174 0.08467 0.0
H1283 H 0.60696 0.9899 0.09311 0.0
C1284 C 0.62662 0.00418 0.06965 0.0
C1285 C 0.63545 0.01956 0.05771 0.0
C1286 C 0.58739 0.02243 0.09751 0.0
C1287 C 0.60962 0.01499 0.08661 0.0
C1288 C 0.57371 0.01981 0.1106 0.0
C1289 C 0.56804 0.0077 0.12727 0.0
C1290 C 0.59537 0.0127 0.10076 0.0
C1291 C 0.57652 0.99833 0.1301 0.0
C1292 C 0.61382 0.00192 0.08425 0.0
C1293 C 0.63123 0.03252 0.06114 0.0
N1294 N 0.5897 0.00095 0.11691 0.0
N1295 N 0.61852 0.02987 0.07509 0.0
H1296 H 0.02381 0.64729 0.08442 0.0
H1297 H 0.97791 0.54607 0.10535 0.0
H1298 H 0.97997 0.60972 0.04716 0.0
H1299 H 0.00665 0.58486 0.15429 0.0
H1300 H 0.97862 0.56885 0.08343 0.0
H1301 H 0.01806 0.62449 0.10994 0.0
C1302 C 0.01285 0.63426 0.08175 0.0
C1303 C 0.0024 0.63035 0.0636 0.0
C1304 C 0.98462 0.57231 0.09906 0.0
C1305 C 0.99593 0.60411 0.09254 0.0
C1306 C 0.98418 0.5593 0.11165 0.0
C1307 C 0.9924 0.56351 0.13169 0.0
C1308 C 0.99353 0.58971 0.10639 0.0
C1309 C 0.00053 0.58099 0.13876 0.0
C1310 C 0.00955 0.62126 0.09634 0.0
C1311 C 0.98831 0.61328 0.06098 0.0
N1312 N 0.00104 0.59345 0.12605 0.0
N1313 N 0.98564 0.60069 0.07512 0.0
H1314 H 0.37478 0.38337 0.06146 0.0
H1315 H 0.45296 0.40379 0.13957 0.0
H1316 H 0.40022 0.35352 0.06238 0.0
H1317 H 0.43457 0.43932 0.13017 0.0
H1318 H 0.43049 0.38281 0.11545 0.0
H1319 H 0.3933 0.40147 0.09096 0.0
C1320 C 0.38412 0.3805 0.06798 0.0
C1321 C 0.38609 0.36704 0.05922 0.0
C1322 C 0.4313 0.39516 0.11876 0.0
C1323 C 0.40728 0.38768 0.09293 0.0
C1324 C 0.44418 0.40718 0.13245 0.0
C1325 C 0.4458 0.42344 0.1367 0.0
C1326 C 0.41992 0.3994 0.10921 0.0
C1327 C 0.43377 0.42693 0.12743 0.0
C1328 C 0.39471 0.39087 0.08477 0.0
C1329 C 0.39838 0.36389 0.06839 0.0
N1330 N 0.42142 0.41506 0.11399 0.0
N1331 N 0.40855 0.37419 0.08464 0.0
H1332 H 0.6844 0.72038 0.38991 0.0
H1333 H 0.6284 0.73809 0.47542 0.0
H1334 H 0.62965 0.68593 0.40002 0.0
H1335 H 0.68123 0.77618 0.45966 0.0
H1336 H 0.62989 0.71715 0.45128 0.0
H1337 H 0.68473 0.73924 0.41899 0.0
C1338 C 0.67249 0.71668 0.39834 0.0
C1339 C 0.65693 0.70165 0.3923 0.0
C1340 C 0.6412 0.73006 0.45319 0.0
C1341 C 0.65724 0.72316 0.42554 0.0
C1342 C 0.64033 0.74205 0.46689 0.0
C1343 C 0.65464 0.75899 0.46938 0.0
C1344 C 0.6565 0.73502 0.4418 0.0
C1345 C 0.6699 0.76325 0.4583 0.0
C1346 C 0.67268 0.72748 0.4149 0.0
C1347 C 0.64191 0.69749 0.40388 0.0
N1348 N 0.67038 0.75139 0.44486 0.0
N1349 N 0.64244 0.70823 0.41983 0.0
H1350 H 0.26991 0.97105 0.40618 0.0
H1351 H 0.26205 0.88737 0.46253 0.0
H1352 H 0.30205 0.94985 0.38904 0.0
H1353 H 0.22523 0.90425 0.47049 0.0
H1354 H 0.27859 0.91157 0.43803 0.0
H1355 H 0.25546 0.94833 0.4327 0.0
C1356 C 0.27402 0.96168 0.40803 0.0
C1357 C 0.28718 0.96234 0.39517 0.0
C1358 C 0.26692 0.90998 0.44522 0.0
C1359 C 0.27054 0.93613 0.42565 0.0
C1360 C 0.25741 0.89612 0.45913 0.0
C1361 C 0.24219 0.89372 0.46865 0.0
C1362 C 0.2612 0.92157 0.44083 0.0
C1363 C 0.237 0.90568 0.46387 0.0
C1364 C 0.2657 0.94865 0.42319 0.0
C1365 C 0.29193 0.94983 0.39848 0.0
N1366 N 0.24646 0.91903 0.45031 0.0
N1367 N 0.28357 0.93719 0.41334 0.0
H1368 H 0.04084 0.34588 0.39842 0.0
H1369 H 0.10838 0.31862 0.43125 0.0
H1370 H 0.03715 0.29756 0.37838 0.0
H1371 H 0.093 0.34439 0.47774 0.0
H1372 H 0.08671 0.31679 0.40677 0.0
H1373 H 0.06416 0.35105 0.42338 0.0
C1374 C 0.04493 0.33641 0.39926 0.0
C1375 C 0.03698 0.32121 0.38645 0.0
C1376 C 0.08813 0.32289 0.42233 0.0
C1377 C 0.06364 0.32724 0.41427 0.0
C1378 C 0.10042 0.32383 0.43642 0.0
C1379 C 0.10229 0.33127 0.45691 0.0
C1380 C 0.07776 0.32969 0.42845 0.0
C1381 C 0.09202 0.3385 0.46218 0.0
C1382 C 0.05813 0.33935 0.41348 0.0
C1383 C 0.04275 0.30936 0.38811 0.0
N1384 N 0.08011 0.33747 0.44804 0.0
N1385 N 0.05579 0.3127 0.40159 0.0
H1386 H 0.01926 0.28936 0.28181 0.0
H1387 H 0.10688 0.35574 0.22153 0.0
H1388 H 0.04503 0.34544 0.28918 0.0
H1389 H 0.08144 0.29965 0.21539 0.0
H1390 H 0.0829 0.35238 0.24361 0.0
H1391 H 0.04025 0.29305 0.25448 0.0
C1392 C 0.02923 0.30247 0.27758 0.0
C1393 C 0.03046 0.31711 0.28806 0.0
C1394 C 0.0825 0.34081 0.23731 0.0
C1395 C 0.05467 0.32141 0.25676 0.0
C1396 C 0.09624 0.34272 0.22479 0.0
C1397 C 0.09626 0.32795 0.21675 0.0
C1398 C 0.06869 0.324 0.24191 0.0
C1399 C 0.08194 0.3114 0.22113 0.0
C1400 C 0.04124 0.30456 0.26195 0.0
C1401 C 0.04361 0.33376 0.28169 0.0
N1402 N 0.06882 0.30988 0.23354 0.0
N1403 N 0.05529 0.33544 0.2666 0.0
H1404 H 0.63622 0.69253 0.27895 0.0
H1405 H 0.70371 0.78259 0.22335 0.0
H1406 H 0.69029 0.72153 0.29596 0.0
H1407 H 0.64824 0.75798 0.21926 0.0
H1408 H 0.69992 0.75913 0.24686 0.0
H1409 H 0.64144 0.71478 0.25317 0.0
C1410 C 0.64925 0.70353 0.27721 0.0
C1411 C 0.6628 0.70519 0.28989 0.0
C1412 C 0.68862 0.75889 0.2407 0.0
C1413 C 0.66885 0.73093 0.26022 0.0
C1414 C 0.69075 0.77231 0.22737 0.0
C1415 C 0.67627 0.77229 0.21916 0.0
C1416 C 0.6719 0.74529 0.24577 0.0
C1417 C 0.65981 0.75846 0.22475 0.0
C1418 C 0.65221 0.71629 0.26246 0.0
C1419 C 0.67942 0.71972 0.28663 0.0
N1420 N 0.6581 0.74558 0.23764 0.0
N1421 N 0.68197 0.7321 0.27219 0.0
H1422 H 0.2927 0.95127 0.29244 0.0
H1423 H 0.21987 0.93679 0.20851 0.0
H1424 H 0.27216 0.98535 0.28663 0.0
H1425 H 0.2348 0.89872 0.2195 0.0
H1426 H 0.24222 0.95678 0.23346 0.0
H1427 H 0.27479 0.93391 0.26211 0.0
C1428 C 0.28456 0.9552 0.2847 0.0
C1429 C 0.28378 0.96967 0.2923 0.0
C1430 C 0.2407 0.9441 0.23031 0.0
C1431 C 0.26331 0.9499 0.25763 0.0
C1432 C 0.2279 0.93266 0.21612 0.0
C1433 C 0.22532 0.91598 0.21211 0.0
C1434 C 0.25099 0.93882 0.24067 0.0
C1435 C 0.23637 0.91148 0.22206 0.0
C1436 C 0.27432 0.94527 0.26742 0.0
C1437 C 0.27304 0.97418 0.28156 0.0
N1438 N 0.24862 0.92277 0.23605 0.0
N1439 N 0.26318 0.96428 0.26489 0.0
H1440 H 0.6475 0.94768 0.29642 0.0
H1441 H 0.70267 0.9278 0.21213 0.0
H1442 H 0.703 0.97889 0.29015 0.0
H1443 H 0.64907 0.89119 0.22628 0.0
H1444 H 0.70191 0.94883 0.23683 0.0
H1445 H 0.6468 0.92902 0.26686 0.0
C1446 C 0.65952 0.9507 0.28875 0.0
C1447 C 0.67536 0.96476 0.29596 0.0
C1448 C 0.69028 0.93623 0.23444 0.0
C1449 C 0.67462 0.94351 0.26216 0.0
C1450 C 0.69073 0.92419 0.22041 0.0
C1451 C 0.67598 0.90762 0.21735 0.0
C1452 C 0.67497 0.93169 0.24554 0.0
C1453 C 0.66073 0.90383 0.2281 0.0
C1454 C 0.6591 0.94002 0.27192 0.0
C1455 C 0.69051 0.96808 0.28534 0.0
N1456 N 0.66066 0.91573 0.24187 0.0
N1457 N 0.68976 0.95749 0.26906 0.0
H1458 H 0.036 0.72056 0.30405 0.0
H1459 H 0.117 0.76989 0.22542 0.0
H1460 H 0.07289 0.70436 0.29136 0.0
H1461 H 0.07714 0.78289 0.23037 0.0
H1462 H 0.10116 0.74635 0.25056 0.0
H1463 H 0.05101 0.74397 0.27808 0.0
C1464 C 0.0472 0.72187 0.29581 0.0
C1465 C 0.05318 0.71044 0.29998 0.0
C1466 C 0.09581 0.75429 0.24613 0.0
C1467 C 0.07042 0.73724 0.27033 0.0
C1468 C 0.10482 0.76771 0.23164 0.0
C1469 C 0.09833 0.77833 0.22558 0.0
C1470 C 0.08018 0.75144 0.25482 0.0
C1471 C 0.08269 0.77512 0.23469 0.0
C1472 C 0.05575 0.73524 0.28098 0.0
C1473 C 0.06776 0.7128 0.28875 0.0
N1474 N 0.07413 0.76194 0.24885 0.0
N1475 N 0.07588 0.72593 0.27455 0.0
H1476 H 0.31637 0.36235 0.27128 0.0
H1477 H 0.21705 0.32192 0.25542 0.0
H1478 H 0.27995 0.32147 0.31252 0.0
H1479 H 0.25109 0.3368 0.20098 0.0
H1480 H 0.24006 0.32351 0.27784 0.0
H1481 H 0.29297 0.35503 0.24594 0.0
C1482 C 0.30348 0.35169 0.27484 0.0
C1483 C 0.30005 0.3425 0.29399 0.0
C1484 C 0.2424 0.3262 0.26093 0.0
C1485 C 0.27324 0.3344 0.26544 0.0
C1486 C 0.22935 0.32538 0.24822 0.0
C1487 C 0.2323 0.32925 0.22643 0.0
C1488 C 0.2586 0.3314 0.25185 0.0
C1489 C 0.24839 0.33368 0.21775 0.0
C1490 C 0.29017 0.3475 0.26039 0.0
C1491 C 0.28313 0.32879 0.29787 0.0
N1492 N 0.26108 0.33491 0.23057 0.0
N1493 N 0.27026 0.32536 0.28389 0.0
H1494 H 0.29275 0.32357 0.3972 0.0
H1495 H 0.25198 0.36855 0.46891 0.0
H1496 H 0.31155 0.37892 0.39781 0.0
H1497 H 0.23041 0.31282 0.46445 0.0
H1498 H 0.2759 0.37282 0.44608 0.0
H1499 H 0.27189 0.31968 0.42493 0.0
C1500 C 0.29263 0.33494 0.40327 0.0
C1501 C 0.30387 0.35159 0.39494 0.0
C1502 C 0.26599 0.35966 0.45019 0.0
C1503 C 0.2799 0.34717 0.4267 0.0
C1504 C 0.25238 0.35721 0.46335 0.0
C1505 C 0.23909 0.34029 0.46852 0.0
C1506 C 0.26638 0.34508 0.44211 0.0
C1507 C 0.24021 0.32609 0.4606 0.0
C1508 C 0.28066 0.33269 0.41908 0.0
C1509 C 0.30308 0.36581 0.40355 0.0
N1510 N 0.25356 0.3288 0.44772 0.0
N1511 N 0.29125 0.36325 0.41884 0.0
H1512 H 0.64081 0.9417 0.38228 0.0
H1513 H 0.66581 0.91429 0.49102 0.0
H1514 H 0.68686 0.97616 0.41833 0.0
H1515 H 0.63537 0.87701 0.44143 0.0
H1516 H 0.66889 0.9378 0.46846 0.0
H1517 H 0.63375 0.91864 0.40822 0.0
C1518 C 0.64927 0.94452 0.39584 0.0
C1519 C 0.66452 0.96083 0.39808 0.0
C1520 C 0.66145 0.92444 0.46263 0.0
C1521 C 0.65649 0.93458 0.42772 0.0
C1522 C 0.65977 0.91099 0.47542 0.0
C1523 C 0.65054 0.89357 0.46805 0.0
C1524 C 0.65364 0.9205 0.44242 0.0
C1525 C 0.64253 0.89016 0.44792 0.0
C1526 C 0.64529 0.93132 0.41052 0.0
C1527 C 0.67507 0.96372 0.41589 0.0
N1528 N 0.64432 0.90351 0.43579 0.0
N1529 N 0.67087 0.95071 0.43001 0.0
H1530 H 0.04203 0.71653 0.40028 0.0
H1531 H 0.11602 0.73388 0.48359 0.0
H1532 H 0.06216 0.68237 0.40894 0.0
H1533 H 0.10044 0.77123 0.47112 0.0
H1534 H 0.09266 0.71266 0.46067 0.0
H1535 H 0.05953 0.7344 0.43059 0.0
C1536 C 0.04992 0.71264 0.40872 0.0
C1537 C 0.05085 0.6981 0.40182 0.0
C1538 C 0.09423 0.72545 0.46306 0.0
C1539 C 0.0709 0.71847 0.43639 0.0
C1540 C 0.10761 0.73758 0.47608 0.0
C1541 C 0.11033 0.75442 0.47897 0.0
C1542 C 0.08353 0.7302 0.4527 0.0
C1543 C 0.0988 0.75839 0.46928 0.0
C1544 C 0.05995 0.72288 0.42597 0.0
C1545 C 0.06125 0.69364 0.41343 0.0
N1546 N 0.08602 0.74643 0.45634 0.0
N1547 N 0.07096 0.70386 0.42999 0.0
H1548 H 0.29376 0.0257 0.7208 0.0
H1549 H 0.34537 0.09621 0.8126 0.0
H1550 H 0.34817 0.04626 0.73142 0.0
H1551 H 0.29945 0.08922 0.78199 0.0
H1552 H 0.34529 0.07481 0.78745 0.0
H1553 H 0.29413 0.04525 0.74849 0.0
C1554 C 0.3058 0.03422 0.72904 0.0
C1555 C 0.32102 0.0344 0.72356 0.0
C1556 C 0.33524 0.07798 0.78639 0.0
C1557 C 0.32145 0.05694 0.75544 0.0
C1558 C 0.33529 0.09025 0.80065 0.0
C1559 C 0.32235 0.09456 0.79954 0.0
C1560 C 0.32204 0.06983 0.77112 0.0
C1561 C 0.30948 0.08612 0.78388 0.0
C1562 C 0.30599 0.04546 0.74482 0.0
C1563 C 0.33617 0.04576 0.73497 0.0
N1564 N 0.30965 0.07418 0.77038 0.0
N1565 N 0.33602 0.05664 0.75039 0.0
H1566 H 0.94303 0.31189 0.74183 0.0
H1567 H 0.93068 0.22534 0.79527 0.0
H1568 H 0.97104 0.28711 0.72041 0.0
H1569 H 0.89537 0.24417 0.80309 0.0
H1570 H 0.94827 0.24978 0.77141 0.0
H1571 H 0.92866 0.28946 0.76866 0.0
C1572 C 0.94629 0.30182 0.74283 0.0
C1573 C 0.95816 0.30133 0.72859 0.0
C1574 C 0.93671 0.24856 0.77849 0.0
C1575 C 0.94158 0.27543 0.75942 0.0
C1576 C 0.9266 0.23456 0.79202 0.0
C1577 C 0.91148 0.23264 0.80132 0.0
C1578 C 0.93173 0.26077 0.77433 0.0
C1579 C 0.90704 0.24521 0.79672 0.0
C1580 C 0.93801 0.28895 0.75817 0.0
C1581 C 0.9619 0.28797 0.73092 0.0
N1582 N 0.9171 0.25867 0.78359 0.0
N1583 N 0.95355 0.27547 0.74595 0.0
H1584 H 0.72082 0.68113 0.70815 0.0
H1585 H 0.74703 0.65973 0.82025 0.0
H1586 H 0.68427 0.63871 0.74756 0.0
H1587 H 0.78142 0.67771 0.76607 0.0
H1588 H 0.72431 0.659 0.79794 0.0
H1589 H 0.74367 0.68723 0.73395 0.0
C1590 C 0.71753 0.67336 0.72246 0.0
C1591 C 0.70068 0.65931 0.72569 0.0
C1592 C 0.73691 0.66329 0.79107 0.0
C1593 C 0.72662 0.66629 0.75515 0.0
C1594 C 0.74982 0.66375 0.80374 0.0
C1595 C 0.76597 0.66869 0.79483 0.0
C1596 C 0.74039 0.66816 0.76954 0.0
C1597 C 0.76904 0.67373 0.77339 0.0
C1598 C 0.73057 0.67677 0.73704 0.0
C1599 C 0.69714 0.64956 0.74441 0.0
N1600 N 0.75635 0.67337 0.76143 0.0
N1601 N 0.71002 0.65321 0.75845 0.0
H1602 H 0.68929 0.622 0.62176 0.0
H1603 H 0.77364 0.6882 0.55576 0.0
H1604 H 0.7116 0.67795 0.62328 0.0
H1605 H 0.74978 0.63213 0.55229 0.0
H1606 H 0.75015 0.6847 0.57896 0.0
H1607 H 0.71028 0.62542 0.59458 0.0
C1608 C 0.69852 0.63501 0.61631 0.0
C1609 C 0.69873 0.64972 0.62502 0.0
C1610 C 0.74999 0.67315 0.57301 0.0
C1611 C 0.72294 0.65373 0.59387 0.0
C1612 C 0.76344 0.67515 0.55986 0.0
C1613 C 0.76374 0.66044 0.55218 0.0
C1614 C 0.73676 0.65633 0.57865 0.0
C1615 C 0.75003 0.64384 0.5577 0.0
C1616 C 0.71052 0.63695 0.60075 0.0
C1617 C 0.71097 0.66623 0.61715 0.0
N1618 N 0.73717 0.64224 0.57071 0.0
N1619 N 0.72266 0.66779 0.60215 0.0
H1620 H 0.30584 0.02638 0.60977 0.0
H1621 H 0.37466 0.11677 0.55651 0.0
H1622 H 0.35892 0.05578 0.63093 0.0
H1623 H 0.31931 0.09375 0.55327 0.0
H1624 H 0.3703 0.09307 0.57998 0.0
H1625 H 0.31196 0.04906 0.58428 0.0
C1626 C 0.31885 0.03756 0.60902 0.0
C1627 C 0.33183 0.03921 0.6228 0.0
C1628 C 0.35916 0.09325 0.574 0.0
C1629 C 0.33891 0.06543 0.59342 0.0
C1630 C 0.36161 0.10681 0.5607 0.0
C1631 C 0.34733 0.10729 0.55272 0.0
C1632 C 0.34232 0.08 0.57919 0.0
C1633 C 0.33074 0.09382 0.55853 0.0
C1634 C 0.32231 0.05057 0.59444 0.0
C1635 C 0.34848 0.05398 0.62075 0.0
N1636 N 0.32873 0.08078 0.57131 0.0
N1637 N 0.35154 0.0666 0.6064 0.0
H1638 H 0.96453 0.29426 0.61456 0.0
H1639 H 0.86591 0.23672 0.57961 0.0
H1640 H 0.92367 0.30066 0.64086 0.0
H1641 H 0.907 0.2467 0.53548 0.0
H1642 H 0.88734 0.25651 0.60536 0.0
H1643 H 0.9439 0.27329 0.58815 0.0
C1644 C 0.95128 0.29127 0.61479 0.0
C1645 C 0.94583 0.29929 0.62986 0.0
C1646 C 0.89167 0.25439 0.59002 0.0
C1647 C 0.92232 0.27529 0.60014 0.0
C1648 C 0.87943 0.24316 0.57522 0.0
C1649 C 0.88459 0.24024 0.55512 0.0
C1650 C 0.90928 0.26266 0.58493 0.0
C1651 C 0.9024 0.24851 0.55077 0.0
C1652 C 0.93957 0.27938 0.59973 0.0
C1653 C 0.92852 0.29495 0.62945 0.0
N1654 N 0.91414 0.2594 0.56556 0.0
N1655 N 0.9174 0.28321 0.61495 0.0
H1656 H 0.32275 0.29203 0.62063 0.0
H1657 H 0.36719 0.23975 0.57998 0.0
H1658 H 0.37344 0.30403 0.64064 0.0
H1659 H 0.33158 0.24509 0.53962 0.0
H1660 H 0.36639 0.26012 0.60549 0.0
H1661 H 0.32264 0.27165 0.59357 0.0
C1662 C 0.33383 0.29041 0.61933 0.0
C1663 C 0.34814 0.29977 0.6329 0.0
C1664 C 0.3588 0.25688 0.591 0.0
C1665 C 0.34795 0.27644 0.60239 0.0
C1666 C 0.35933 0.24532 0.5763 0.0
C1667 C 0.34966 0.24084 0.55734 0.0
C1668 C 0.34832 0.26388 0.58703 0.0
C1669 C 0.33919 0.24805 0.55403 0.0
C1670 C 0.33377 0.27886 0.60388 0.0
C1671 C 0.36217 0.2972 0.63049 0.0
N1672 N 0.33877 0.25922 0.56876 0.0
N1673 N 0.36165 0.28571 0.61568 0.0
H1674 H 0.69949 0.05695 0.63142 0.0
H1675 H 0.74587 0.08728 0.51788 0.0
H1676 H 0.71374 0.02574 0.59284 0.0
H1677 H 0.75104 0.12328 0.56835 0.0
H1678 H 0.72772 0.06296 0.54144 0.0
H1679 H 0.71175 0.07957 0.60421 0.0
C1680 C 0.70494 0.05472 0.61709 0.0
C1681 C 0.70577 0.0395 0.61451 0.0
C1682 C 0.73272 0.07621 0.54721 0.0
C1683 C 0.71973 0.06532 0.58336 0.0
C1684 C 0.74318 0.09013 0.53385 0.0
C1685 C 0.7503 0.10746 0.54119 0.0
C1686 C 0.72913 0.0796 0.56797 0.0
C1687 C 0.74583 0.11022 0.56184 0.0
C1688 C 0.71201 0.06768 0.60164 0.0
C1689 C 0.71302 0.03736 0.5956 0.0
N1690 N 0.73561 0.09645 0.57453 0.0
N1691 N 0.71979 0.05016 0.58077 0.0
H1692 H 0.98471 0.70149 0.60472 0.0
H1693 H 0.88875 0.63837 0.56079 0.0
H1694 H 0.95065 0.65024 0.63034 0.0
H1695 H 0.92085 0.69291 0.5456 0.0
H1696 H 0.91258 0.6404 0.5819 0.0
H1697 H 0.96296 0.6962 0.57819 0.0
C1698 C 0.97271 0.68902 0.60465 0.0
C1699 C 0.96943 0.6764 0.62004 0.0
C1700 C 0.91441 0.65186 0.57381 0.0
C1701 C 0.94426 0.67031 0.58965 0.0
C1702 C 0.90086 0.65071 0.56172 0.0
C1703 C 0.90279 0.66556 0.55166 0.0
C1704 C 0.93001 0.66794 0.5756 0.0
C1705 C 0.91872 0.68122 0.55341 0.0
C1706 C 0.96025 0.68603 0.58948 0.0
C1707 C 0.9537 0.66039 0.61887 0.0
N1708 N 0.93166 0.68201 0.56519 0.0
N1709 N 0.94159 0.65787 0.6041 0.0
H1710 H 0.97583 0.71034 0.72405 0.0
H1711 H 0.89315 0.64356 0.79243 0.0
H1712 H 0.95463 0.65454 0.72334 0.0
H1713 H 0.91441 0.69931 0.79251 0.0
H1714 H 0.91643 0.64739 0.7686 0.0
H1715 H 0.95444 0.70663 0.75076 0.0
C1716 C 0.96675 0.6973 0.72956 0.0
C1717 C 0.96702 0.68272 0.72126 0.0
C1718 C 0.91605 0.6588 0.77391 0.0
C1719 C 0.94236 0.67839 0.75193 0.0
C1720 C 0.90271 0.65661 0.78744 0.0
C1721 C 0.90177 0.67113 0.79442 0.0
C1722 C 0.92853 0.67563 0.76723 0.0
C1723 C 0.9147 0.68776 0.78772 0.0
C1724 C 0.95451 0.6952 0.74485 0.0
C1725 C 0.95491 0.66617 0.72916 0.0
N1726 N 0.92748 0.68953 0.77442 0.0
N1727 N 0.94303 0.66445 0.74396 0.0
H1728 H 0.36657 0.31353 0.74438 0.0
H1729 H 0.29909 0.22202 0.79673 0.0
H1730 H 0.31305 0.28384 0.72499 0.0
H1731 H 0.35455 0.24597 0.79965 0.0
H1732 H 0.30293 0.24613 0.77446 0.0
H1733 H 0.3611 0.29088 0.76972 0.0
C1734 C 0.3536 0.30232 0.74555 0.0
C1735 C 0.3403 0.30054 0.73226 0.0
C1736 C 0.31422 0.24608 0.7801 0.0
C1737 C 0.334 0.27438 0.76135 0.0
C1738 C 0.31206 0.23228 0.7927 0.0
C1739 C 0.32652 0.23191 0.8002 0.0
C1740 C 0.33094 0.25968 0.77513 0.0
C1741 C 0.34299 0.24576 0.79469 0.0
C1742 C 0.35051 0.28934 0.76001 0.0
C1743 C 0.32373 0.28574 0.73478 0.0
N1744 N 0.34473 0.25903 0.78256 0.0
N1745 N 0.32107 0.27315 0.74894 0.0
H1746 H 0.74683 0.04093 0.70026 0.0
H1747 H 0.75986 0.09038 0.81166 0.0
H1748 H 0.70562 0.04507 0.72981 0.0
H1749 H 0.80165 0.10025 0.76881 0.0
H1750 H 0.7392 0.07162 0.78409 0.0
H1751 H 0.76651 0.06022 0.72779 0.0
C1752 C 0.74189 0.04587 0.71258 0.0
C1753 C 0.72451 0.04134 0.71273 0.0
C1754 C 0.75291 0.07795 0.78081 0.0
C1755 C 0.74711 0.06351 0.74444 0.0
C1756 C 0.76472 0.08869 0.79649 0.0
C1757 C 0.78259 0.09683 0.79269 0.0
C1758 C 0.75902 0.07521 0.76131 0.0
C1759 C 0.78807 0.09395 0.77277 0.0
C1760 C 0.75318 0.05697 0.72826 0.0
C1761 C 0.71893 0.04829 0.72905 0.0
N1762 N 0.77635 0.08334 0.75793 0.0
N1763 N 0.73019 0.05897 0.74439 0.0
H1764 H 0.06618 0.36647 0.01676 0.0
H1765 H 0.09648 0.34777 0.12762 0.0
H1766 H 0.03111 0.33711 0.06771 0.0
H1767 H 0.12383 0.35248 0.06886 0.0
H1768 H 0.07489 0.35051 0.10745 0.0
H1769 H 0.09002 0.36784 0.03739 0.0
C1770 C 0.06356 0.3605 0.03234 0.0
C1771 C 0.0467 0.35156 0.04053 0.0
C1772 C 0.08568 0.35105 0.099 0.0
C1773 C 0.07368 0.35328 0.06411 0.0
C1774 C 0.09802 0.34959 0.11049 0.0
C1775 C 0.11188 0.34984 0.09984 0.0
C1776 C 0.08732 0.35303 0.07673 0.0
C1777 C 0.11321 0.35206 0.07759 0.0
C1778 C 0.07709 0.3612 0.044 0.0
C1779 C 0.04391 0.34398 0.06074 0.0
N1780 N 0.10107 0.35361 0.06672 0.0
N1781 N 0.05727 0.34506 0.07186 0.0
H1782 H 0.68621 0.69675 0.06161 0.0
H1783 H 0.67609 0.7807 0.06532 0.0
H1784 H 0.65726 0.7075 0.01613 0.0
H1785 H 0.69064 0.76326 0.12099 0.0
H1786 H 0.67429 0.75642 0.0448 0.0
H1787 H 0.69256 0.72337 0.08171 0.0
C1788 C 0.68127 0.70472 0.05584 0.0
C1789 C 0.67112 0.69991 0.03729 0.0
C1790 C 0.67793 0.7579 0.0615 0.0
C1791 C 0.67846 0.73021 0.05983 0.0
C1792 C 0.67891 0.77174 0.07323 0.0
C1793 C 0.6832 0.77381 0.09498 0.0
C1794 C 0.68128 0.74599 0.07153 0.0
C1795 C 0.68724 0.76209 0.10425 0.0
C1796 C 0.68487 0.71984 0.06728 0.0
C1797 C 0.66503 0.71064 0.03044 0.0
N1798 N 0.68603 0.74855 0.0925 0.0
N1799 N 0.66881 0.72527 0.04168 0.0
H1800 H 0.30194 0.98796 0.05652 0.0
H1801 H 0.21742 0.89295 0.06269 0.0
H1802 H 0.29143 0.94588 0.01258 0.0
H1803 H 0.23445 0.93038 0.11489 0.0
H1804 H 0.24328 0.91308 0.04273 0.0
H1805 H 0.27608 0.96791 0.07684 0.0
C1806 C 0.2942 0.97449 0.05117 0.0
C1807 C 0.2988 0.96855 0.03284 0.0
C1808 C 0.24136 0.91688 0.05856 0.0
C1809 C 0.26919 0.94562 0.05588 0.0
C1810 C 0.22661 0.90536 0.07003 0.0
C1811 C 0.22374 0.90989 0.0906 0.0
C1812 C 0.25332 0.93316 0.0676 0.0
C1813 C 0.23597 0.92637 0.09901 0.0
C1814 C 0.27947 0.96306 0.06278 0.0
C1815 C 0.28834 0.95098 0.02663 0.0
N1816 N 0.25022 0.9374 0.08748 0.0
N1817 N 0.27398 0.94015 0.03808 0.0
H1818 H 0.36091 0.05631 0.99335 0.0
H1819 H 0.32197 0.08015 0.89368 0.0
H1820 H 0.32403 0.01876 0.9484 0.0
H1821 H 0.34895 0.11666 0.94533 0.0
H1822 H 0.32608 0.05853 0.91157 0.0
H1823 H 0.3602 0.07972 0.97391 0.0
C1824 C 0.35281 0.05303 0.97932 0.0
C1825 C 0.34243 0.03558 0.97254 0.0
C1826 C 0.33113 0.07127 0.91902 0.0
C1827 C 0.34159 0.0621 0.95034 0.0
C1828 C 0.32869 0.08361 0.90886 0.0
C1829 C 0.3349 0.10019 0.91814 0.0
C1830 C 0.3399 0.07548 0.93865 0.0
C1831 C 0.34397 0.10406 0.93756 0.0
C1832 C 0.35235 0.06634 0.96832 0.0
C1833 C 0.33213 0.032 0.95432 0.0
N1834 N 0.34613 0.09176 0.94724 0.0
N1835 N 0.33197 0.04511 0.9439 0.0
H1836 H 0.99738 0.30724 0.95564 0.0
H1837 H 0.90216 0.22298 0.95394 0.0
H1838 H 0.95803 0.29696 0.00257 0.0
H1839 H 0.93531 0.2396 0.8984 0.0
H1840 H 0.9243 0.24823 0.97372 0.0
H1841 H 0.97642 0.28074 0.93593 0.0
C1842 C 0.98436 0.2994 0.96179 0.0
C1843 C 0.97939 0.30429 0.98071 0.0
C1844 C 0.92676 0.24636 0.9572 0.0
C1845 C 0.95555 0.27407 0.95849 0.0
C1846 C 0.91408 0.23197 0.94586 0.0
C1847 C 0.91677 0.22926 0.92438 0.0
C1848 C 0.94233 0.25815 0.94708 0.0
C1849 C 0.93271 0.24112 0.91496 0.0
C1850 C 0.97244 0.28433 0.95056 0.0
C1851 C 0.9624 0.29371 0.98801 0.0
N1852 N 0.94488 0.25511 0.92636 0.0
N1853 N 0.95112 0.2791 0.97693 0.0
H1854 H 0.68442 0.63008 0.98383 0.0
H1855 H 0.76788 0.68501 0.9107 0.0
H1856 H 0.70049 0.68107 0.959 0.0
H1857 H 0.74575 0.6299 0.92131 0.0
H1858 H 0.74404 0.68403 0.93057 0.0
H1859 H 0.70748 0.62982 0.96294 0.0
C1860 C 0.69275 0.64117 0.97396 0.0
C1861 C 0.69057 0.65563 0.97317 0.0
C1862 C 0.74433 0.67212 0.92853 0.0
C1863 C 0.71691 0.65548 0.94947 0.0
C1864 C 0.758 0.6727 0.9173 0.0
C1865 C 0.7588 0.65753 0.91445 0.0
C1866 C 0.73139 0.65627 0.93716 0.0
C1867 C 0.74553 0.64187 0.92307 0.0
C1868 C 0.70586 0.64101 0.96204 0.0
C1869 C 0.70169 0.66965 0.96012 0.0
N1870 N 0.73238 0.64165 0.93418 0.0
N1871 N 0.7144 0.66925 0.94889 0.0
H1872 H 0.93879 0.63039 0.98808 0.0
H1873 H 0.91411 0.68693 0.91452 0.0
H1874 H 0.97523 0.68259 0.96703 0.0
H1875 H 0.88014 0.63155 0.92317 0.0
H1876 H 0.93596 0.68586 0.93604 0.0
H1877 H 0.91635 0.63074 0.96651 0.0
C1878 C 0.94206 0.6419 0.97895 0.0
C1879 C 0.95889 0.65648 0.97933 0.0
C1880 C 0.92375 0.67391 0.93322 0.0
C1881 C 0.93338 0.657 0.95481 0.0
C1882 C 0.91124 0.67455 0.92104 0.0
C1883 C 0.89529 0.65932 0.9171 0.0
C1884 C 0.92027 0.65794 0.94171 0.0
C1885 C 0.89234 0.64357 0.92569 0.0
C1886 C 0.92928 0.64208 0.96663 0.0
C1887 C 0.96244 0.67104 0.96719 0.0
N1888 N 0.9047 0.64329 0.93769 0.0
N1889 N 0.9498 0.67095 0.95551 0.0
H1890 H 0.36183 0.31359 0.97836 0.0
H1891 H 0.29644 0.22449 0.92098 0.0
H1892 H 0.30936 0.29999 0.96606 0.0
H1893 H 0.35168 0.25092 0.91184 0.0
H1894 H 0.3 0.25098 0.93838 0.0
H1895 H 0.35767 0.28962 0.95526 0.0
C1896 C 0.34943 0.3056 0.97067 0.0
C1897 C 0.3359 0.30873 0.97417 0.0
C1898 C 0.31128 0.25096 0.93236 0.0
C1899 C 0.33094 0.28099 0.94786 0.0
C1900 C 0.30928 0.23588 0.92243 0.0
C1901 C 0.32382 0.23536 0.91528 0.0
C1902 C 0.32793 0.2655 0.9353 0.0
C1903 C 0.34014 0.2505 0.91767 0.0
C1904 C 0.34708 0.29192 0.9574 0.0
C1905 C 0.32012 0.29798 0.9637 0.0
N1906 N 0.34175 0.26485 0.92766 0.0
N1907 N 0.31796 0.28436 0.95119 0.0
H1908 H 0.70057 0.01468 0.95876 0.0
H1909 H 0.7803 0.11237 0.94846 0.0
H1910 H 0.70865 0.05711 0.00065 0.0
H1911 H 0.76502 0.07412 0.8974 0.0
H1912 H 0.75543 0.09141 0.96918 0.0
H1913 H 0.7255 0.0354 0.93742 0.0
C1914 C 0.7076 0.02834 0.96347 0.0
C1915 C 0.70256 0.03421 0.9815 0.0
C1916 C 0.75749 0.0876 0.95342 0.0
C1917 C 0.73107 0.05788 0.9573 0.0
C1918 C 0.77166 0.09961 0.94149 0.0
C1919 C 0.77474 0.09511 0.921 0.0
C1920 C 0.74632 0.07084 0.94497 0.0
C1921 C 0.76329 0.07815 0.91317 0.0
C1922 C 0.72178 0.04015 0.95127 0.0
C1923 C 0.71208 0.05204 0.98686 0.0
N1924 N 0.74959 0.06663 0.92516 0.0
N1925 N 0.7259 0.06322 0.97487 0.0
H1926 H 0.678 0.98556 0.06841 0.0
H1927 H 0.65546 0.88681 0.07014 0.0
H1928 H 0.64298 0.94689 0.02298 0.0
H1929 H 0.67823 0.92281 0.12342 0.0
H1930 H 0.65141 0.90847 0.05181 0.0
H1931 H 0.67903 0.96272 0.0879 0.0
C1932 C 0.67044 0.97221 0.06258 0.0
C1933 C 0.66042 0.96812 0.04401 0.0
C1934 C 0.65722 0.91156 0.06755 0.0
C1935 C 0.66167 0.94183 0.06621 0.0
C1936 C 0.6595 0.89919 0.07809 0.0
C1937 C 0.66732 0.90298 0.09837 0.0
C1938 C 0.66293 0.92792 0.07726 0.0
C1939 C 0.67249 0.91938 0.10766 0.0
C1940 C 0.67101 0.95915 0.07376 0.0
C1941 C 0.65084 0.95058 0.03726 0.0
N1942 N 0.67029 0.93123 0.097 0.0
N1943 N 0.65182 0.93806 0.04827 0.0
H1944 H 0.04531 0.69458 0.03751 0.0
H1945 H 0.06398 0.77876 0.10362 0.0
H1946 H 0.00377 0.70195 0.05845 0.0
H1947 H 0.09778 0.75782 0.10445 0.0
H1948 H 0.04197 0.75194 0.08567 0.0
H1949 H 0.06525 0.71916 0.06005 0.0
C1950 C 0.04037 0.70135 0.04693 0.0
C1951 C 0.02288 0.69626 0.0461 0.0
C1952 C 0.05418 0.75323 0.08996 0.0
C1953 C 0.04571 0.72459 0.07177 0.0
C1954 C 0.06674 0.7685 0.10026 0.0
C1955 C 0.0829 0.77071 0.10531 0.0
C1956 C 0.0579 0.7402 0.08447 0.0
C1957 C 0.08574 0.75698 0.10035 0.0
C1958 C 0.05175 0.71535 0.05987 0.0
C1959 C 0.01718 0.70548 0.0587 0.0
N1960 N 0.07346 0.74243 0.09003 0.0
N1961 N 0.02863 0.71938 0.07089 0.0
H1962 H 0.32339 0.37313 0.04904 0.0
H1963 H 0.22567 0.31998 0.08035 0.0
H1964 H 0.2951 0.31686 0.04471 0.0
H1965 H 0.26193 0.35997 0.12394 0.0
H1966 H 0.24986 0.3216 0.06073 0.0
H1967 H 0.29965 0.37171 0.07042 0.0
C1968 C 0.31218 0.36052 0.05257 0.0
C1969 C 0.31112 0.34508 0.04523 0.0
C1970 C 0.2524 0.32998 0.07462 0.0
C1971 C 0.28407 0.34344 0.06896 0.0
C1972 C 0.23861 0.329 0.08602 0.0
C1973 C 0.24157 0.33972 0.10416 0.0
C1974 C 0.26932 0.34211 0.0809 0.0
C1975 C 0.25885 0.35161 0.10996 0.0
C1976 C 0.29876 0.35973 0.06478 0.0
C1977 C 0.2964 0.32904 0.05024 0.0
N1978 N 0.27208 0.35259 0.09826 0.0
N1979 N 0.2833 0.32863 0.06158 0.0
H1980 H 0.73222 0.7006 0.35006 0.0
H1981 H 0.76075 0.67938 0.46058 0.0
H1982 H 0.6963 0.67103 0.4002 0.0
H1983 H 0.78828 0.68438 0.40191 0.0
H1984 H 0.73949 0.68275 0.44047 0.0
H1985 H 0.75554 0.70108 0.37086 0.0
C1986 C 0.72931 0.69441 0.36552 0.0
C1987 C 0.71235 0.68567 0.37342 0.0
C1988 C 0.75025 0.6832 0.43203 0.0
C1989 C 0.73876 0.68635 0.39719 0.0
C1990 C 0.76239 0.68136 0.44348 0.0
C1991 C 0.7762 0.68153 0.43283 0.0
C1992 C 0.75208 0.6855 0.40982 0.0
C1993 C 0.77769 0.68401 0.41064 0.0
C1994 C 0.74254 0.6946 0.37727 0.0
C1995 C 0.70919 0.67778 0.39347 0.0
N1996 N 0.76578 0.68595 0.39982 0.0
N1997 N 0.72227 0.67835 0.40469 0.0
H1998 H 0.35993 0.03518 0.38674 0.0
H1999 H 0.3188 0.08822 0.43717 0.0
H2000 H 0.3099 0.02647 0.36937 0.0
H2001 H 0.374 0.11201 0.42958 0.0
H2002 H 0.31475 0.06207 0.41896 0.0
H2003 H 0.36471 0.06028 0.40908 0.0
C2004 C 0.34993 0.03845 0.38778 0.0
C2005 C 0.33453 0.02883 0.37615 0.0
C2006 C 0.32775 0.07302 0.42132 0.0
C2007 C 0.33978 0.05709 0.40166 0.0
C2008 C 0.33009 0.08802 0.43158 0.0
C2009 C 0.34677 0.10255 0.43454 0.0
C2010 C 0.34216 0.07235 0.41416 0.0
C2011 C 0.36091 0.10117 0.42766 0.0
C2012 C 0.35269 0.05275 0.4004 0.0
C2013 C 0.32199 0.03358 0.37795 0.0
N2014 N 0.35829 0.08633 0.41769 0.0
N2015 N 0.32487 0.04733 0.39051 0.0
H2016 H 0.96581 0.32414 0.38676 0.0
H2017 H 0.90746 0.22764 0.43066 0.0
H2018 H 0.96977 0.28071 0.36288 0.0
H2019 H 0.88939 0.26404 0.42882 0.0
H2020 H 0.93342 0.2486 0.41147 0.0
H2021 H 0.94078 0.30381 0.4083 0.0
C2022 C 0.96148 0.31035 0.38617 0.0
C2023 C 0.96977 0.30404 0.37297 0.0
C2024 C 0.92375 0.25196 0.41534 0.0
C2025 C 0.94142 0.28088 0.39762 0.0
C2026 C 0.90884 0.23996 0.42617 0.0
C2027 C 0.89599 0.24391 0.43124 0.0
C2028 C 0.92605 0.26817 0.4098 0.0
C2029 C 0.89892 0.26041 0.42554 0.0
C2030 C 0.94719 0.29879 0.39837 0.0
C2031 C 0.96366 0.28607 0.37275 0.0
N2032 N 0.91365 0.27193 0.41515 0.0
N2033 N 0.94988 0.27511 0.38496 0.0
H2034 H 0.99104 0.35304 0.28703 0.0
H2035 H 0.02117 0.45387 0.28267 0.0
H2036 H 0.03041 0.39118 0.3292 0.0
H2037 H 0.99439 0.41698 0.23125 0.0
H2038 H 0.02397 0.43143 0.30113 0.0
H2039 H 0.99104 0.3765 0.26778 0.0
C2040 C 0.99973 0.3664 0.29223 0.0
C2041 C 0.01071 0.37017 0.30979 0.0
C2042 C 0.01755 0.42832 0.28577 0.0
C2043 C 0.01071 0.3972 0.28779 0.0
C2044 C 0.01598 0.44113 0.27517 0.0
C2045 C 0.00735 0.4373 0.25543 0.0
C2046 C 0.01033 0.41154 0.27664 0.0
C2047 C 0.00076 0.42047 0.24664 0.0
C2048 C 0.99977 0.37981 0.28116 0.0
C2049 C 0.02176 0.38773 0.31571 0.0
N2050 N 0.0023 0.40824 0.25735 0.0
N2051 N 0.02139 0.40064 0.30482 0.0
H2052 H 0.66499 0.6421 0.28715 0.0
H2053 H 0.57096 0.55624 0.28605 0.0
H2054 H 0.625 0.63146 0.33325 0.0
H2055 H 0.60329 0.57365 0.22979 0.0
H2056 H 0.59284 0.58188 0.30548 0.0
H2057 H 0.64451 0.61527 0.26752 0.0
C2058 C 0.65194 0.63412 0.29313 0.0
C2059 C 0.64664 0.639 0.31179 0.0
C2060 C 0.59517 0.5801 0.28888 0.0
C2061 C 0.62337 0.60842 0.28972 0.0
C2062 C 0.58264 0.56549 0.27774 0.0
C2063 C 0.58515 0.5629 0.25614 0.0
C2064 C 0.61044 0.59225 0.27847 0.0
C2065 C 0.60082 0.57509 0.24644 0.0
C2066 C 0.64029 0.61888 0.28195 0.0
C2067 C 0.62962 0.62824 0.31889 0.0
N2068 N 0.61287 0.58931 0.25766 0.0
N2069 N 0.61863 0.61346 0.30789 0.0
H2070 H 0.3551 0.96537 0.32708 0.0
H2071 H 0.41629 0.0003 0.22429 0.0
H2072 H 0.35986 0.00661 0.28713 0.0
H2073 H 0.42343 0.97189 0.27443 0.0
H2074 H 0.39279 0.99947 0.24479 0.0
H2075 H 0.37736 0.96427 0.30549 0.0
C2076 C 0.36077 0.97413 0.31373 0.0
C2077 C 0.3557 0.98616 0.30893 0.0
C2078 C 0.3995 0.99341 0.2513 0.0
C2079 C 0.38099 0.98489 0.28419 0.0
C2080 C 0.413 0.99396 0.23966 0.0
C2081 C 0.42204 0.98632 0.24771 0.0
C2082 C 0.39482 0.98503 0.2711 0.0
C2083 C 0.41678 0.97784 0.26747 0.0
C2084 C 0.37349 0.97353 0.30148 0.0
C2085 C 0.36346 0.99721 0.29147 0.0
N2086 N 0.40354 0.97745 0.27851 0.0
N2087 N 0.37569 0.99629 0.27972 0.0
H2088 H 0.64045 0.00569 0.28891 0.0
H2089 H 0.53985 0.96901 0.2729 0.0
H2090 H 0.60132 0.96486 0.32796 0.0
H2091 H 0.57901 0.00096 0.22685 0.0
H2092 H 0.56187 0.96771 0.29395 0.0
H2093 H 0.61789 0.0048 0.2669 0.0
C2094 C 0.62708 0.99651 0.29286 0.0
C2095 C 0.62275 0.98536 0.31034 0.0
C2096 C 0.5656 0.97494 0.27919 0.0
C2097 C 0.59677 0.98431 0.28516 0.0
C2098 C 0.55302 0.97563 0.26709 0.0
C2099 C 0.55757 0.9852 0.24808 0.0
C2100 C 0.58286 0.98397 0.27232 0.0
C2101 C 0.57492 0.99371 0.24157 0.0
C2102 C 0.61419 0.99597 0.28022 0.0
C2103 C 0.60521 0.97368 0.31462 0.0
N2104 N 0.58691 0.99295 0.25371 0.0
N2105 N 0.59283 0.97352 0.30217 0.0
H2106 H 0.03288 0.64727 0.3186 0.0
H2107 H 0.97257 0.56148 0.2532 0.0
H2108 H 0.98193 0.63503 0.29975 0.0
H2109 H 0.028 0.59024 0.245 0.0
H2110 H 0.97478 0.58668 0.27228 0.0
H2111 H 0.03057 0.62463 0.29418 0.0
C2112 C 0.02121 0.63985 0.30925 0.0
C2113 C 0.00754 0.64296 0.31121 0.0
C2114 C 0.98639 0.58745 0.2661 0.0
C2115 C 0.00474 0.61687 0.28347 0.0
C2116 C 0.98518 0.57311 0.25514 0.0
C2117 C 1.00015 0.57359 0.24765 0.0
C2118 C 0.0027 0.60224 0.2699 0.0
C2119 C 0.01614 0.589 0.25098 0.0
C2120 C 0.01995 0.62699 0.29524 0.0
C2121 C 0.99276 0.63301 0.29862 0.0
N2122 N 0.017 0.60261 0.26208 0.0
N2123 N 0.99162 0.62017 0.28545 0.0
H2124 H 0.37322 0.39033 0.33255 0.0
H2125 H 0.43356 0.40635 0.23101 0.0
H2126 H 0.3666 0.34827 0.29098 0.0
H2127 H 0.4477 0.44275 0.28404 0.0
H2128 H 0.40756 0.38553 0.25054 0.0
H2129 H 0.39882 0.41061 0.31224 0.0
C2130 C 0.37711 0.38537 0.31907 0.0
C2131 C 0.36782 0.36759 0.31348 0.0
C2132 C 0.4164 0.39808 0.25785 0.0
C2133 C 0.39714 0.39075 0.29015 0.0
C2134 C 0.43131 0.40995 0.24679 0.0
C2135 C 0.44288 0.42642 0.25582 0.0
C2136 C 0.41294 0.40276 0.278 0.0
C2137 C 0.43905 0.4304 0.27619 0.0
C2138 C 0.39178 0.39695 0.30754 0.0
C2139 C 0.37345 0.36189 0.29585 0.0
N2140 N 0.42441 0.4187 0.28652 0.0
N2141 N 0.38776 0.37345 0.28476 0.0
H2142 H 0.358 0.32027 0.38651 0.0
H2143 H 0.31244 0.2239 0.43222 0.0
H2144 H 0.30563 0.28128 0.36962 0.0
H2145 H 0.36778 0.25758 0.4268 0.0
H2146 H 0.30878 0.24526 0.41255 0.0
H2147 H 0.3608 0.29814 0.40523 0.0
C2148 C 0.34704 0.30704 0.3868 0.0
C2149 C 0.33154 0.30261 0.37647 0.0
C2150 C 0.32169 0.2479 0.41567 0.0
C2151 C 0.33469 0.27716 0.398 0.0
C2152 C 0.32383 0.23568 0.42682 0.0
C2153 C 0.34048 0.2389 0.43133 0.0
C2154 C 0.33629 0.26355 0.40922 0.0
C2155 C 0.3547 0.25461 0.42418 0.0
C2156 C 0.34869 0.29439 0.39742 0.0
C2157 C 0.31781 0.28523 0.37733 0.0
N2158 N 0.35227 0.26635 0.41362 0.0
N2159 N 0.31968 0.27311 0.38802 0.0
H2160 H 0.66905 0.02919 0.39622 0.0
H2161 H 0.76549 0.11127 0.39542 0.0
H2162 H 0.70951 0.03405 0.3543 0.0
H2163 H 0.73164 0.09984 0.44974 0.0
H2164 H 0.74329 0.08468 0.37783 0.0
H2165 H 0.69023 0.05667 0.41418 0.0
C2166 C 0.68235 0.03601 0.39084 0.0
C2167 C 0.68756 0.02935 0.37379 0.0
C2168 C 0.7407 0.08798 0.3936 0.0
C2169 C 0.71161 0.06066 0.39392 0.0
C2170 C 0.75341 0.10315 0.4037 0.0
C2171 C 0.75054 0.10773 0.42421 0.0
C2172 C 0.7249 0.07729 0.40398 0.0
C2173 C 0.73439 0.09689 0.43387 0.0
C2174 C 0.69439 0.05163 0.40106 0.0
C2175 C 0.70492 0.03867 0.36741 0.0
N2176 N 0.72217 0.08212 0.42369 0.0
N2177 N 0.71628 0.05385 0.3774 0.0
H2178 H 0.9846 0.70412 0.37053 0.0
H2179 H 0.8985 0.64485 0.43799 0.0
H2180 H 0.9678 0.65163 0.39028 0.0
H2181 H 0.92004 0.70009 0.42907 0.0
H2182 H 0.92292 0.64671 0.41841 0.0
H2183 H 0.96019 0.70261 0.39002 0.0
C2184 C 0.97579 0.69229 0.37897 0.0
C2185 C 0.97822 0.67798 0.3788 0.0
C2186 C 0.92233 0.65844 0.42075 0.0
C2187 C 0.9503 0.67613 0.40099 0.0
C2188 C 0.90834 0.65736 0.43181 0.0
C2189 C 0.90725 0.67234 0.43514 0.0
C2190 C 0.93529 0.6746 0.41282 0.0
C2191 C 0.92048 0.68826 0.42703 0.0
C2192 C 0.96189 0.69145 0.39011 0.0
C2193 C 0.96644 0.66299 0.39001 0.0
N2194 N 0.93394 0.68897 0.41617 0.0
N2195 N 0.95297 0.66243 0.40059 0.0
H2196 H 0.3973 0.04239 0.69871 0.0
H2197 H 0.42478 0.986 0.76798 0.0
H2198 H 0.36167 0.99052 0.72146 0.0
H2199 H 0.45815 0.04158 0.76033 0.0
H2200 H 0.40225 0.9872 0.74822 0.0
H2201 H 0.42052 0.04231 0.71888 0.0
C2202 C 0.39435 0.03104 0.70797 0.0
C2203 C 0.37753 0.01644 0.70839 0.0
C2204 C 0.41448 0.99916 0.75086 0.0
C2205 C 0.40394 0.0162 0.73124 0.0
C2206 C 0.42739 0.99845 0.76201 0.0
C2207 C 0.44338 0.0137 0.76573 0.0
C2208 C 0.41756 0.01522 0.74317 0.0
C2209 C 0.44595 0.02954 0.75791 0.0
C2210 C 0.40758 0.03101 0.71948 0.0
C2211 C 0.37443 0.00208 0.72066 0.0
N2212 N 0.43319 0.02989 0.74689 0.0
N2213 N 0.38749 0.00229 0.73147 0.0
H2214 H 0.01893 0.36493 0.72621 0.0
H2215 H 0.00051 0.44354 0.7345 0.0
H2216 H 0.98899 0.37436 0.6808 0.0
H2217 H 0.01819 0.42729 0.78837 0.0
H2218 H 0.00066 0.42082 0.71266 0.0
H2219 H 0.02303 0.39026 0.74744 0.0
C2220 C 0.01335 0.37239 0.72065 0.0
C2221 C 0.00352 0.36752 0.70183 0.0
C2222 C 0.00454 0.42221 0.72925 0.0
C2223 C 0.00822 0.39635 0.72575 0.0
C2224 C 0.00438 0.43514 0.74176 0.0
C2225 C 0.00906 0.43714 0.76339 0.0
C2226 C 0.00946 0.41113 0.73835 0.0
C2227 C 0.01447 0.4262 0.77176 0.0
C2228 C 0.01565 0.38677 0.73276 0.0
C2229 C 0.99655 0.37757 0.69531 0.0
N2230 N 0.01441 0.41355 0.75924 0.0
N2231 N 0.99903 0.39147 0.70723 0.0
H2232 H 0.62812 0.61309 0.68484 0.0
H2233 H 0.56811 0.59908 0.78609 0.0
H2234 H 0.63524 0.65579 0.72553 0.0
H2235 H 0.55362 0.56175 0.73406 0.0
H2236 H 0.59411 0.61944 0.76624 0.0
H2237 H 0.60238 0.59326 0.70525 0.0
C2238 C 0.62429 0.61828 0.69813 0.0
C2239 C 0.63377 0.63611 0.70347 0.0
C2240 C 0.58519 0.60679 0.7592 0.0
C2241 C 0.60433 0.61347 0.72693 0.0
C2242 C 0.57029 0.59519 0.77045 0.0
C2243 C 0.55862 0.5786 0.7618 0.0
C2244 C 0.58854 0.60173 0.73925 0.0
C2245 C 0.56235 0.57422 0.74161 0.0
C2246 C 0.60956 0.60696 0.70973 0.0
C2247 C 0.62823 0.64213 0.72086 0.0
N2248 N 0.57699 0.58567 0.73109 0.0
N2249 N 0.61386 0.63081 0.73202 0.0
H2250 H 0.65523 0.68298 0.61678 0.0
H2251 H 0.67691 0.78143 0.6147 0.0
H2252 H 0.692 0.7226 0.65998 0.0
H2253 H 0.65242 0.74474 0.56242 0.0
H2254 H 0.6818 0.76011 0.63246 0.0
H2255 H 0.65313 0.70537 0.59763 0.0
C2256 C 0.66294 0.69644 0.62218 0.0
C2257 C 0.67378 0.70094 0.64003 0.0
C2258 C 0.67542 0.75679 0.61706 0.0
C2259 C 0.67131 0.72669 0.61825 0.0
C2260 C 0.67267 0.76897 0.60685 0.0
C2261 C 0.66412 0.76488 0.58704 0.0
C2262 C 0.66947 0.74034 0.60749 0.0
C2263 C 0.65871 0.74839 0.57786 0.0
C2264 C 0.66176 0.70923 0.6112 0.0
C2265 C 0.68352 0.71859 0.64626 0.0
N2266 N 0.66139 0.73673 0.5882 0.0
N2267 N 0.68194 0.73083 0.63548 0.0
H2268 H 0.33465 0.96916 0.62997 0.0
H2269 H 0.23861 0.90973 0.58537 0.0
H2270 H 0.29147 0.97426 0.64962 0.0
H2271 H 0.27414 0.89092 0.58702 0.0
H2272 H 0.2603 0.9368 0.60254 0.0
H2273 H 0.31482 0.9435 0.60797 0.0
C2274 C 0.32107 0.96499 0.6295 0.0
C2275 C 0.31465 0.97377 0.64168 0.0
C2276 C 0.26337 0.92676 0.59912 0.0
C2277 C 0.29214 0.94481 0.61658 0.0
C2278 C 0.25095 0.91124 0.58944 0.0
C2279 C 0.25439 0.89783 0.58517 0.0
C2280 C 0.27948 0.92907 0.60446 0.0
C2281 C 0.2709 0.90087 0.59008 0.0
C2282 C 0.3098 0.95036 0.61706 0.0
C2283 C 0.29697 0.96785 0.64059 0.0
N2284 N 0.28284 0.91617 0.59961 0.0
N2285 N 0.28637 0.95379 0.62825 0.0
H2286 H 0.01857 0.29819 0.65081 0.0
H2287 H 0.10035 0.3525 0.57488 0.0
H2288 H 0.03175 0.34722 0.62221 0.0
H2289 H 0.08068 0.29847 0.58989 0.0
H2290 H 0.07605 0.3512 0.59409 0.0
H2291 H 0.04188 0.29824 0.63022 0.0
C2292 C 0.0263 0.3089 0.64014 0.0
C2293 C 0.02324 0.32273 0.63825 0.0
C2294 C 0.07699 0.33959 0.59314 0.0
C2295 C 0.04993 0.32296 0.61487 0.0
C2296 C 0.09092 0.34037 0.5823 0.0
C2297 C 0.09254 0.32558 0.58085 0.0
C2298 C 0.06464 0.32396 0.60283 0.0
C2299 C 0.07983 0.31013 0.59051 0.0
C2300 C 0.03958 0.30892 0.6284 0.0
C2301 C 0.03364 0.33629 0.62419 0.0
N2302 N 0.06645 0.30973 0.60122 0.0
N2303 N 0.04656 0.3361 0.61317 0.0
H2304 H 0.2717 0.30217 0.66926 0.0
H2305 H 0.24122 0.32146 0.55899 0.0
H2306 H 0.30694 0.33166 0.61851 0.0
H2307 H 0.21398 0.31604 0.61803 0.0
H2308 H 0.26318 0.31907 0.57884 0.0
H2309 H 0.24799 0.30103 0.64871 0.0
C2310 C 0.27438 0.3082 0.65371 0.0
C2311 C 0.29126 0.3171 0.64557 0.0
C2312 C 0.25235 0.31833 0.58742 0.0
C2313 C 0.26439 0.31571 0.6221 0.0
C2314 C 0.23982 0.31961 0.57612 0.0
C2315 C 0.22585 0.31899 0.58695 0.0
C2316 C 0.25077 0.31614 0.60965 0.0
C2317 C 0.22467 0.31672 0.60918 0.0
C2318 C 0.26092 0.30764 0.6421 0.0
C2319 C 0.29412 0.32478 0.62541 0.0
N2320 N 0.23696 0.31531 0.61984 0.0
N2321 N 0.28081 0.32387 0.61434 0.0
H2322 H 0.63972 0.96554 0.63323 0.0
H2323 H 0.68287 0.91607 0.57801 0.0
H2324 H 0.69146 0.97709 0.64637 0.0
H2325 H 0.62787 0.88967 0.58935 0.0
H2326 H 0.68619 0.94183 0.59649 0.0
H2327 H 0.6351 0.94052 0.61081 0.0
C2328 C 0.6501 0.9629 0.63129 0.0
C2329 C 0.66598 0.97337 0.64168 0.0
C2330 C 0.67339 0.93039 0.59489 0.0
C2331 C 0.66091 0.94521 0.61604 0.0
C2332 C 0.67148 0.91563 0.58446 0.0
C2333 C 0.6551 0.9005 0.58249 0.0
C2334 C 0.65883 0.9302 0.60325 0.0
C2335 C 0.64075 0.90102 0.59049 0.0
C2336 C 0.64745 0.94865 0.6186 0.0
C2337 C 0.67901 0.96938 0.63872 0.0
N2338 N 0.64294 0.91562 0.60064 0.0
N2339 N 0.6762 0.9557 0.62612 0.0
H2340 H 0.03894 0.67628 0.63376 0.0
H2341 H 0.10075 0.7739 0.59466 0.0
H2342 H 0.03381 0.71956 0.65534 0.0
H2343 H 0.11687 0.73592 0.59477 0.0
H2344 H 0.07407 0.75298 0.61251 0.0
H2345 H 0.06543 0.69683 0.61465 0.0
C2346 C 0.04334 0.69008 0.63438 0.0
C2347 C 0.03422 0.69626 0.64618 0.0
C2348 C 0.08348 0.74926 0.60865 0.0
C2349 C 0.06432 0.71971 0.62433 0.0
C2350 C 0.09881 0.76125 0.59858 0.0
C2351 C 0.11129 0.75682 0.59336 0.0
C2352 C 0.08038 0.73257 0.61332 0.0
C2353 C 0.10764 0.73993 0.59828 0.0
C2354 C 0.05846 0.70178 0.62356 0.0
C2355 C 0.04048 0.71426 0.64651 0.0
N2356 N 0.09251 0.72841 0.60795 0.0
N2357 N 0.05511 0.72535 0.63568 0.0
H2358 H 0.97149 0.60922 0.6877 0.0
H2359 H 0.00646 0.58644 0.7921 0.0
H2360 H 0.00807 0.64783 0.73201 0.0
H2361 H 0.98208 0.54983 0.73974 0.0
H2362 H 0.00377 0.6082 0.77225 0.0
H2363 H 0.97169 0.58628 0.70872 0.0
C2364 C 0.97945 0.61285 0.70191 0.0
C2365 C 0.98984 0.63044 0.70807 0.0
C2366 C 0.99899 0.59539 0.7651 0.0
C2367 C 0.99008 0.60439 0.73211 0.0
C2368 C 0.00063 0.58297 0.77638 0.0
C2369 C 0.99466 0.56627 0.76754 0.0
C2370 C 0.99123 0.59113 0.74483 0.0
C2371 C 0.98675 0.56245 0.74731 0.0
C2372 C 0.97961 0.59978 0.71382 0.0
C2373 C 0.99994 0.63444 0.72658 0.0
N2374 N 0.9853 0.5748 0.73662 0.0
N2375 N 0.9998 0.62154 0.73792 0.0
H2376 H 0.33748 0.36327 0.73051 0.0
H2377 H 0.43215 0.4483 0.73373 0.0
H2378 H 0.37834 0.37333 0.68608 0.0
H2379 H 0.39781 0.4324 0.78812 0.0
H2380 H 0.41061 0.42263 0.71407 0.0
H2381 H 0.35763 0.39026 0.7501 0.0
C2382 C 0.35064 0.37117 0.72487 0.0
C2383 C 0.35629 0.36607 0.70672 0.0
C2384 C 0.40776 0.42473 0.7303 0.0
C2385 C 0.37921 0.39681 0.72877 0.0
C2386 C 0.42009 0.43936 0.74159 0.0
C2387 C 0.41691 0.4424 0.76274 0.0
C2388 C 0.39201 0.41299 0.74012 0.0
C2389 C 0.4008 0.4306 0.77183 0.0
C2390 C 0.36211 0.38651 0.73604 0.0
C2391 C 0.37346 0.37673 0.70006 0.0
N2392 N 0.38895 0.41634 0.76049 0.0
N2393 N 0.38427 0.39158 0.71104 0.0
H2394 H 0.6425 0.03283 0.68864 0.0
H2395 H 0.59135 0.00921 0.79904 0.0
H2396 H 0.64743 0.00036 0.73501 0.0
H2397 H 0.57091 0.01705 0.74101 0.0
H2398 H 0.61561 0.01114 0.77843 0.0
H2399 H 0.61982 0.03261 0.7106 0.0
C2400 C 0.63891 0.02578 0.70354 0.0
C2401 C 0.64677 0.01652 0.71 0.0
C2402 C 0.6058 0.01245 0.77028 0.0
C2403 C 0.62099 0.01635 0.73518 0.0
C2404 C 0.59206 0.01143 0.78198 0.0
C2405 C 0.57917 0.01291 0.7716 0.0
C2406 C 0.60677 0.01535 0.74819 0.0
C2407 C 0.58056 0.0157 0.74951 0.0
C2408 C 0.62593 0.0256 0.71598 0.0
C2409 C 0.6416 0.00757 0.72942 0.0
N2410 N 0.59419 0.01695 0.73853 0.0
N2411 N 0.62904 0.00775 0.7414 0.0
loop_
_geom_bond_atom_site_label_1
_geom_bond_atom_site_label_2
_geom_bond_distance
_geom_bond_site_symmetry_2
_ccdc_geom_bond_type
Co0 O1 2.216 . S
Co0 O2 2.091 . S
Co0 O4 2.004 1_554 S
Co0 O10 2.021 . S
Co0 O12 2.137 1_454 S
Co0 O13 2.244 1_455 S
O1 Co0 2.216 . S
O1 C8 1.247 . S
O2 Co0 2.091 . S
O2 C8 1.261 . S
C3 O12 1.247 . S
C3 O13 1.272 1_556 S
O4 Co0 2.004 1_556 S
O4 C9 1.259 . S
Co5 O6 2.061 1_554 S
Co5 O11 2.052 . S
Co5 O13 2.135 . S
O6 Co5 2.061 1_556 S
O6 C9 1.235 1_655 S
C7 O10 1.238 1_655 S
C7 O11 1.241 . S
C8 O1 1.247 . S
C8 O2 1.261 . S
C9 O4 1.259 . S
C9 O6 1.235 1_455 S
O10 Co0 2.021 . S
O10 C7 1.238 1_455 S
O11 Co5 2.052 . S
O11 C7 1.241 . S
O12 Co0 2.137 1_656 S
O12 C3 1.247 . S
O13 Co0 2.244 1_655 S
O13 C3 1.272 1_554 S
O13 Co5 2.135 . S
Co14 O15 2.216 1_554 S
Co14 O16 2.091 . S
Co14 O18 2.004 . S
Co14 O24 2.021 1_554 S
Co14 O26 2.137 . S
Co14 O27 2.244 . S
O15 Co14 2.216 1_556 S
O15 C22 1.247 . S
O16 Co14 2.091 . S
O16 C22 1.261 1_554 S
C17 O26 1.247 . S
C17 O27 1.272 . S
O18 Co14 2.004 . S
O18 C23 1.259 . S
Co19 O20 2.061 . S
Co19 O25 2.052 1_554 S
Co19 O27 2.135 . S
O20 Co19 2.061 . S
O20 C23 1.235 . S
C21 O24 1.238 . S
C21 O25 1.241 . S
C22 O15 1.247 . S
C22 O16 1.261 1_556 S
C23 O18 1.259 . S
C23 O20 1.235 . S
O24 Co14 2.021 1_556 S
O24 C21 1.238 . S
O25 Co19 2.052 1_556 S
O25 C21 1.241 . S
O26 Co14 2.137 . S
O26 C17 1.247 . S
O27 Co14 2.244 . S
O27 C17 1.272 . S
O27 Co19 2.135 . S
Co28 O29 2.216 1_554 S
Co28 O30 2.091 . S
Co28 O32 2.004 . S
Co28 O38 2.021 1_554 S
Co28 O40 2.142 1_545 S
Co28 O41 2.244 1_545 S
O29 Co28 2.216 1_556 S
O29 C36 1.247 . S
O30 Co28 2.091 . S
O30 C36 1.261 1_554 S
C31 O40 1.313 . S
C31 O41 1.272 . S
O32 Co28 2.004 . S
O32 C37 1.259 . S
Co33 O34 2.061 . S
Co33 O39 2.052 1_554 S
Co33 O41 2.135 . S
O34 Co33 2.061 . S
O34 C37 1.235 1_565 S
C35 O38 1.238 1_565 S
C35 O39 1.241 . S
C36 O29 1.247 . S
C36 O30 1.261 1_556 S
C37 O32 1.259 . S
C37 O34 1.235 1_545 S
O38 Co28 2.021 1_556 S
O38 C35 1.238 1_545 S
O39 Co33 2.052 1_556 S
O39 C35 1.241 . S
O40 Co28 2.142 1_565 S
O40 C31 1.313 . S
O41 Co28 2.244 1_565 S
O41 C31 1.272 . S
O41 Co33 2.135 . S
Co42 O43 2.216 1_554 S
Co42 O44 2.091 . S
Co42 O46 2.004 . S
Co42 O52 2.021 1_554 S
Co42 O54 2.137 1_655 S
Co42 O55 2.244 1_655 S
O43 Co42 2.216 1_556 S
O43 C50 1.247 . S
O44 Co42 2.091 . S
O44 C50 1.261 1_554 S
C45 O54 1.247 . S
C45 O55 1.272 . S
O46 Co42 2.004 . S
O46 C51 1.253 1_655 S
Co47 O48 2.061 . S
Co47 O53 2.052 1_554 S
Co47 O55 2.135 . S
O48 Co47 2.061 . S
O48 C51 1.241 . S
C49 O52 1.238 1_455 S
C49 O53 1.241 . S
C50 O43 1.247 . S
C50 O44 1.261 1_556 S
C51 O46 1.253 1_455 S
C51 O48 1.241 . S
O52 Co42 2.021 1_556 S
O52 C49 1.238 1_655 S
O53 Co47 2.052 1_556 S
O53 C49 1.241 . S
O54 Co42 2.137 1_455 S
O54 C45 1.247 . S
O55 Co42 2.244 1_455 S
O55 C45 1.272 . S
O55 Co47 2.135 . S
Co56 O57 2.216 . S
Co56 O58 2.091 . S
Co56 O60 2.004 1_554 S
Co56 O66 2.021 . S
Co56 O68 2.137 1_554 S
Co56 O69 2.244 1_554 S
O57 Co56 2.216 . S
O57 C64 1.247 . S
O58 Co56 2.091 . S
O58 C64 1.261 . S
C59 O68 1.247 . S
C59 O69 1.270 . S
O60 Co56 2.004 1_556 S
O60 C65 1.259 . S
Co61 O62 2.061 . S
Co61 O67 2.052 1_556 S
Co61 O69 2.135 . S
O62 Co61 2.061 . S
O62 C65 1.235 . S
C63 O66 1.238 . S
C63 O67 1.241 . S
C64 O57 1.247 . S
C64 O58 1.261 . S
C65 O60 1.259 . S
C65 O62 1.235 . S
O66 Co56 2.021 . S
O66 C63 1.238 . S
O67 Co61 2.052 1_554 S
O67 C63 1.241 . S
O68 Co56 2.137 1_556 S
O68 C59 1.247 . S
O69 Co56 2.244 1_556 S
O69 C59 1.270 . S
O69 Co61 2.135 . S
Co70 O71 2.216 . S
Co70 O72 2.091 . S
Co70 O74 2.004 1_554 S
Co70 O80 2.021 . S
Co70 O82 2.137 1_564 S
Co70 O83 2.244 1_565 S
O71 Co70 2.216 . S
O71 C78 1.247 . S
O72 Co70 2.091 . S
O72 C78 1.261 . S
C73 O82 1.247 . S
C73 O83 1.272 1_556 S
O74 Co70 2.004 1_556 S
O74 C79 1.253 1_565 S
Co75 O76 2.061 1_554 S
Co75 O81 2.052 . S
Co75 O83 2.135 . S
O76 Co75 2.061 1_556 S
O76 C79 1.241 . S
C77 O80 1.238 1_545 S
C77 O81 1.241 . S
C78 O71 1.247 . S
C78 O72 1.261 . S
C79 O74 1.253 1_545 S
C79 O76 1.241 . S
O80 Co70 2.021 . S
O80 C77 1.238 1_565 S
O81 Co75 2.052 . S
O81 C77 1.241 . S
O82 Co70 2.137 1_546 S
O82 C73 1.247 . S
O83 Co70 2.244 1_545 S
O83 C73 1.272 1_554 S
O83 Co75 2.135 . S
Co84 O85 2.216 . S
Co84 O86 2.091 . S
Co84 O88 2.004 . S
Co84 O94 2.021 . S
Co84 O96 2.137 . S
Co84 O97 2.244 . S
O85 Co84 2.216 . S
O85 C92 1.247 . S
O86 Co84 2.091 . S
O86 C92 1.261 . S
C87 O96 1.247 . S
C87 O97 1.272 . S
O88 Co84 2.004 . S
O88 C93 1.259 . S
Co89 O90 2.061 . S
Co89 O95 2.052 . S
Co89 O97 2.135 . S
O90 Co89 2.061 . S
O90 C93 1.235 . S
C91 O94 1.238 . S
C91 O95 1.241 . S
C92 O85 1.247 . S
C92 O86 1.261 . S
C93 O88 1.259 . S
C93 O90 1.235 . S
O94 Co84 2.021 . S
O94 C91 1.238 . S
O95 Co89 2.052 . S
O95 C91 1.241 . S
O96 Co84 2.137 . S
O96 C87 1.247 . S
O97 Co84 2.244 . S
O97 C87 1.272 . S
O97 Co89 2.135 . S
Co98 O99 2.229 . S
Co98 O100 2.091 . S
Co98 O102 2.004 . S
Co98 O108 2.021 . S
Co98 O110 2.137 1_565 S
Co98 O111 2.244 1_565 S
O99 Co98 2.229 . S
O99 C106 1.295 . S
O100 Co98 2.091 . S
O100 C106 1.261 . S
C101 O110 1.247 . S
C101 O111 1.272 . S
O102 Co98 2.004 . S
O102 C107 1.259 . S
Co103 O104 2.061 . S
Co103 O109 2.052 . S
Co103 O111 2.135 1_565 S
O104 Co103 2.061 . S
O104 C107 1.235 . S
C105 O108 1.238 . S
C105 O109 1.241 . S
C106 O99 1.295 . S
C106 O100 1.261 . S
C107 O102 1.259 . S
C107 O104 1.235 . S
O108 Co98 2.021 . S
O108 C105 1.238 . S
O109 Co103 2.052 . S
O109 C105 1.241 . S
O110 Co98 2.137 1_545 S
O110 C101 1.247 . S
O111 Co98 2.244 1_545 S
O111 C101 1.272 . S
O111 Co103 2.135 1_545 S
Co112 O113 2.216 . S
Co112 O114 2.091 . S
Co112 O116 2.004 . S
Co112 O122 2.021 . S
Co112 O124 2.137 1_455 S
Co112 O125 2.244 . S
O113 Co112 2.216 . S
O113 C120 1.247 . S
O114 Co112 2.091 . S
O114 C120 1.261 . S
C115 O124 1.247 . S
C115 O125 1.272 1_655 S
O116 Co112 2.004 . S
O116 C121 1.259 . S
Co117 O118 2.061 . S
Co117 O123 2.052 . S
Co117 O125 2.135 . S
O118 Co117 2.061 . S
O118 C121 1.235 . S
C119 O122 1.238 . S
C119 O123 1.241 . S
C120 O113 1.247 . S
C120 O114 1.261 . S
C121 O116 1.259 . S
C121 O118 1.235 . S
O122 Co112 2.021 . S
O122 C119 1.238 . S
O123 Co117 2.052 . S
O123 C119 1.241 . S
O124 Co112 2.137 1_655 S
O124 C115 1.247 . S
O125 Co112 2.244 . S
O125 C115 1.272 1_455 S
O125 Co117 2.135 . S
Co126 O127 2.216 . S
Co126 O128 2.091 . S
Co126 O130 2.004 . S
Co126 O136 2.021 . S
Co126 O138 2.137 1_565 S
Co126 O139 2.244 1_565 S
O127 Co126 2.216 . S
O127 C134 1.247 . S
O128 Co126 2.091 . S
O128 C134 1.261 . S
C129 O138 1.247 . S
C129 O139 1.272 . S
O130 Co126 2.004 . S
O130 C135 1.259 . S
Co131 O132 2.061 . S
Co131 O137 2.052 . S
Co131 O139 2.135 1_565 S
O132 Co131 2.061 . S
O132 C135 1.235 . S
C133 O136 1.238 . S
C133 O137 1.241 . S
C134 O127 1.247 . S
C134 O128 1.261 . S
C135 O130 1.259 . S
C135 O132 1.235 . S
O136 Co126 2.021 . S
O136 C133 1.238 . S
O137 Co131 2.052 . S
O137 C133 1.241 . S
O138 Co126 2.137 1_545 S
O138 C129 1.247 . S
O139 Co126 2.244 1_545 S
O139 C129 1.272 . S
O139 Co131 2.135 1_545 S
Co140 O141 2.216 1_455 S
Co140 O142 2.091 1_455 S
Co140 O144 2.004 . S
Co140 O150 2.021 . S
Co140 O152 2.137 1_455 S
Co140 O153 2.244 . S
O141 Co140 2.216 1_655 S
O141 C148 1.247 . S
O142 Co140 2.091 1_655 S
O142 C148 1.261 . S
C143 O152 1.247 1_455 S
C143 O153 1.272 . S
O144 Co140 2.004 . S
O144 C149 1.259 . S
Co145 O146 2.061 . S
Co145 O151 2.052 . S
Co145 O153 2.135 . S
O146 Co145 2.061 . S
O146 C149 1.235 . S
C147 O150 1.238 . S
C147 O151 1.241 . S
C148 O141 1.247 . S
C148 O142 1.261 . S
C149 O144 1.259 . S
C149 O146 1.235 . S
O150 Co140 2.021 . S
O150 C147 1.238 . S
O151 Co145 2.052 . S
O151 C147 1.241 . S
O152 Co140 2.137 1_655 S
O152 C143 1.247 1_655 S
O153 Co140 2.244 . S
O153 C143 1.272 . S
O153 Co145 2.135 . S
Co154 O155 2.216 . S
Co154 O156 2.091 . S
Co154 O158 2.004 . S
Co154 O164 2.021 . S
Co154 O166 2.137 . S
Co154 O167 2.244 . S
O155 Co154 2.216 . S
O155 C162 1.247 . S
O156 Co154 2.091 . S
O156 C162 1.261 . S
C157 O166 1.247 . S
C157 O167 1.272 . S
O158 Co154 2.004 . S
O158 C163 1.259 . S
Co159 O160 2.061 . S
Co159 O165 2.052 . S
Co159 O167 2.135 . S
O160 Co159 2.061 . S
O160 C163 1.235 . S
C161 O164 1.238 . S
C161 O165 1.241 . S
C162 O155 1.247 . S
C162 O156 1.261 . S
C163 O158 1.259 . S
C163 O160 1.235 . S
O164 Co154 2.021 . S
O164 C161 1.238 . S
O165 Co159 2.052 . S
O165 C161 1.241 . S
O166 Co154 2.137 . S
O166 C157 1.247 . S
O167 Co154 2.244 . S
O167 C157 1.272 . S
O167 Co159 2.135 . S
Co168 O169 2.216 . S
Co168 O170 2.091 . S
Co168 O172 2.004 . S
Co168 O178 2.021 . S
Co168 O180 2.137 1_545 S
Co168 O181 2.250 . S
O169 Co168 2.216 . S
O169 C176 1.247 . S
O170 Co168 2.091 . S
O170 C176 1.261 . S
C171 O180 1.247 . S
C171 O181 1.234 1_565 S
O172 Co168 2.004 . S
O172 C177 1.259 . S
Co173 O174 2.061 . S
Co173 O179 2.052 . S
Co173 O181 2.178 . S
O174 Co173 2.061 . S
O174 C177 1.235 . S
C175 O178 1.238 . S
C175 O179 1.241 . S
C176 O169 1.247 . S
C176 O170 1.261 . S
C177 O172 1.259 . S
C177 O174 1.235 . S
O178 Co168 2.021 . S
O178 C175 1.238 . S
O179 Co173 2.052 . S
O179 C175 1.241 . S
O180 Co168 2.137 1_565 S
O180 C171 1.247 . S
O181 Co168 2.250 . S
O181 C171 1.234 1_545 S
O181 Co173 2.178 . S
Co182 O183 2.216 1_655 S
Co182 O184 2.091 1_655 S
Co182 O186 2.004 . S
Co182 O192 2.021 . S
Co182 O194 2.137 1_655 S
Co182 O195 2.244 . S
O183 Co182 2.216 1_455 S
O183 C190 1.247 . S
O184 Co182 2.091 1_455 S
O184 C190 1.261 . S
C185 O194 1.247 1_655 S
C185 O195 1.272 . S
O186 Co182 2.004 . S
O186 C191 1.259 . S
Co187 O188 2.061 . S
Co187 O193 2.052 . S
Co187 O195 2.135 . S
O188 Co187 2.061 . S
O188 C191 1.235 . S
C189 O192 1.238 . S
C189 O193 1.241 . S
C190 O183 1.247 . S
C190 O184 1.261 . S
C191 O186 1.259 . S
C191 O188 1.235 . S
O192 Co182 2.021 . S
O192 C189 1.238 . S
O193 Co187 2.052 . S
O193 C189 1.241 . S
O194 Co182 2.137 1_455 S
O194 C185 1.247 1_455 S
O195 Co182 2.244 . S
O195 C185 1.272 . S
O195 Co187 2.135 . S
Co196 O197 2.216 . S
Co196 O198 2.091 . S
Co196 O200 2.004 . S
Co196 O206 2.021 . S
Co196 O208 2.137 . S
Co196 O209 2.244 . S
O197 Co196 2.216 . S
O197 C204 1.247 . S
O198 Co196 2.091 . S
O198 C204 1.261 . S
C199 O208 1.247 . S
C199 O209 1.272 . S
O200 Co196 2.004 . S
O200 C205 1.259 . S
Co201 O202 2.061 . S
Co201 O207 2.052 . S
Co201 O209 2.135 . S
O202 Co201 2.061 . S
O202 C205 1.235 . S
C203 O206 1.238 . S
C203 O207 1.241 . S
C204 O197 1.247 . S
C204 O198 1.261 . S
C205 O200 1.259 . S
C205 O202 1.235 . S
O206 Co196 2.021 . S
O206 C203 1.238 . S
O207 Co201 2.052 . S
O207 C203 1.241 . S
O208 Co196 2.137 . S
O208 C199 1.247 . S
O209 Co196 2.244 . S
O209 C199 1.272 . S
O209 Co201 2.135 . S
Co210 O211 2.216 . S
Co210 O212 2.091 . S
Co210 O214 2.004 . S
Co210 O220 2.021 . S
Co210 O222 2.137 . S
Co210 O223 2.244 . S
O211 Co210 2.216 . S
O211 C218 1.247 . S
O212 Co210 2.091 . S
O212 C218 1.261 . S
C213 O222 1.247 . S
C213 O223 1.272 . S
O214 Co210 2.004 . S
O214 C219 1.259 . S
Co215 O216 2.061 . S
Co215 O221 2.052 . S
Co215 O223 2.135 . S
O216 Co215 2.061 . S
O216 C219 1.235 . S
C217 O220 1.238 . S
C217 O221 1.241 . S
C218 O211 1.247 . S
C218 O212 1.261 . S
C219 O214 1.259 . S
C219 O216 1.235 . S
O220 Co210 2.021 . S
O220 C217 1.238 . S
O221 Co215 2.052 . S
O221 C217 1.241 . S
O222 Co210 2.137 . S
O222 C213 1.247 . S
O223 Co210 2.244 . S
O223 C213 1.272 . S
O223 Co215 2.135 . S
Co224 O225 2.216 . S
Co224 O226 2.091 . S
Co224 O228 2.004 . S
Co224 O234 2.021 . S
Co224 O236 2.137 1_545 S
Co224 O237 2.292 . S
O225 Co224 2.216 . S
O225 C232 1.247 . S
O226 Co224 2.091 . S
O226 C232 1.261 . S
C227 O236 1.247 . S
C227 O237 1.264 1_565 S
O228 Co224 2.004 . S
O228 C233 1.259 . S
Co229 O230 2.061 . S
Co229 O235 2.052 . S
Co229 O237 2.140 . S
O230 Co229 2.061 . S
O230 C233 1.235 . S
C231 O234 1.238 . S
C231 O235 1.241 . S
C232 O225 1.247 . S
C232 O226 1.261 . S
C233 O228 1.259 . S
C233 O230 1.235 . S
O234 Co224 2.021 . S
O234 C231 1.238 . S
O235 Co229 2.052 . S
O235 C231 1.241 . S
O236 Co224 2.137 1_565 S
O236 C227 1.247 . S
O237 Co224 2.292 . S
O237 C227 1.264 1_545 S
O237 Co229 2.140 . S
Co238 O239 2.216 . S
Co238 O240 2.091 . S
Co238 O242 2.004 . S
Co238 O248 2.021 . S
Co238 O250 2.137 1_655 S
Co238 O251 2.255 . S
O239 Co238 2.216 . S
O239 C246 1.247 . S
O240 Co238 2.091 . S
O240 C246 1.261 . S
C241 O250 1.247 . S
C241 O251 1.212 1_455 S
O242 Co238 2.004 . S
O242 C247 1.259 . S
Co243 O244 2.061 . S
Co243 O249 2.052 . S
Co243 O251 2.204 . S
O244 Co243 2.061 . S
O244 C247 1.235 . S
C245 O248 1.238 . S
C245 O249 1.241 . S
C246 O239 1.247 . S
C246 O240 1.261 . S
C247 O242 1.259 . S
C247 O244 1.235 . S
O248 Co238 2.021 . S
O248 C245 1.238 . S
O249 Co243 2.052 . S
O249 C245 1.241 . S
O250 Co238 2.137 1_455 S
O250 C241 1.247 . S
O251 Co238 2.255 . S
O251 C241 1.212 1_655 S
O251 Co243 2.204 . S
H252 C271 0.949 . S
H253 C272 0.950 . S
H254 C274 0.950 . S
H255 C275 0.950 . S
H256 C277 0.950 . S
H257 C280 0.950 . S
H258 C281 0.950 . S
H259 C283 0.951 . S
H260 C284 0.949 . S
H261 C286 0.949 . S
H262 C287 0.950 . S
H263 C289 0.950 . S
H264 C290 0.950 . S
H265 C292 0.950 . S
H266 C295 0.950 . S
H267 C296 0.950 . S
H268 C298 0.951 . S
H269 C299 0.949 . S
C270 C271 1.376 . S
C270 C275 1.386 . S
C270 C276 1.483 . S
C271 H252 0.949 . S
C271 C270 1.376 . S
C271 C272 1.397 . S
C272 H253 0.950 . S
C272 C271 1.397 . S
C272 C273 1.391 . S
C273 C272 1.391 . S
C273 C274 1.405 . S
C274 H254 0.950 . S
C274 C273 1.405 . S
C274 C275 1.367 . S
C275 H255 0.950 . S
C275 C270 1.386 . S
C275 C274 1.367 . S
C276 C270 1.483 . S
C276 C277 1.382 . S
C276 C278 1.403 . S
C277 H256 0.950 . S
C277 C276 1.382 . S
C277 C293 1.411 . S
C278 C276 1.403 . S
C278 C279 1.489 . S
C278 C292 1.411 . S
C279 C278 1.489 . S
C279 C280 1.383 . S
C279 C284 1.382 . S
C280 H257 0.950 . S
C280 C279 1.383 . S
C280 C281 1.395 . S
C281 H258 0.950 . S
C281 C280 1.395 . S
C281 C282 1.288 . S
C282 C281 1.288 . S
C282 C283 1.392 . S
C283 H259 0.951 . S
C283 C282 1.392 . S
C283 C284 1.392 . S
C284 H260 0.949 . S
C284 C279 1.382 . S
C284 C283 1.392 . S
C285 C286 1.376 . S
C285 C290 1.386 . S
C285 C291 1.483 . S
C286 H261 0.949 . S
C286 C285 1.376 . S
C286 C287 1.397 . S
C287 H262 0.950 . S
C287 C286 1.397 . S
C287 C288 1.391 . S
C288 C287 1.391 . S
C288 C289 1.405 . S
C289 H263 0.950 . S
C289 C288 1.405 . S
C289 C290 1.367 . S
C290 H264 0.950 . S
C290 C285 1.386 . S
C290 C289 1.367 . S
C291 C285 1.483 . S
C291 C292 1.382 . S
C291 C293 1.403 . S
C292 H265 0.950 . S
C292 C278 1.411 . S
C292 C291 1.382 . S
C293 C277 1.411 . S
C293 C291 1.403 . S
C293 C294 1.489 . S
C294 C293 1.489 . S
C294 C295 1.383 . S
C294 C299 1.382 . S
C295 H266 0.950 . S
C295 C294 1.383 . S
C295 C296 1.395 . S
C296 H267 0.950 . S
C296 C295 1.395 . S
C296 C297 1.288 . S
C297 C296 1.288 . S
C297 C298 1.392 . S
C298 H268 0.951 . S
C298 C297 1.392 . S
C298 C299 1.392 . S
C299 H269 0.949 . S
C299 C294 1.382 . S
C299 C298 1.392 . S
H300 C319 0.949 . S
H301 C320 0.950 . S
H302 C322 0.950 . S
H303 C323 0.950 . S
H304 C325 0.950 . S
H305 C328 0.950 . S
H306 C329 0.950 . S
H307 C331 0.951 . S
H308 C332 0.949 . S
H309 C334 0.949 . S
H310 C335 0.950 . S
H311 C337 0.950 . S
H312 C338 0.950 . S
H313 C340 0.950 . S
H314 C343 0.950 . S
H315 C344 0.950 . S
H316 C346 0.951 . S
H317 C347 0.949 . S
C318 C319 1.376 . S
C318 C323 1.386 . S
C318 C324 1.483 . S
C319 H300 0.949 . S
C319 C318 1.376 . S
C319 C320 1.397 . S
C320 H301 0.950 . S
C320 C319 1.397 . S
C320 C321 1.391 . S
C321 C320 1.391 . S
C321 C322 1.405 . S
C322 H302 0.950 . S
C322 C321 1.405 . S
C322 C323 1.367 . S
C323 H303 0.950 . S
C323 C318 1.386 . S
C323 C322 1.367 . S
C324 C318 1.483 . S
C324 C325 1.382 . S
C324 C326 1.403 . S
C325 H304 0.950 . S
C325 C324 1.382 . S
C325 C341 1.411 . S
C326 C324 1.403 . S
C326 C327 1.489 . S
C326 C340 1.411 . S
C327 C326 1.489 . S
C327 C328 1.383 . S
C327 C332 1.382 . S
C328 H305 0.950 . S
C328 C327 1.383 . S
C328 C329 1.395 . S
C329 H306 0.950 . S
C329 C328 1.395 . S
C329 C330 1.288 . S
C330 C329 1.288 . S
C330 C331 1.392 . S
C331 H307 0.951 . S
C331 C330 1.392 . S
C331 C332 1.392 . S
C332 H308 0.949 . S
C332 C327 1.382 . S
C332 C331 1.392 . S
C333 C334 1.376 . S
C333 C338 1.386 . S
C333 C339 1.483 . S
C334 H309 0.949 . S
C334 C333 1.376 . S
C334 C335 1.397 . S
C335 H310 0.950 . S
C335 C334 1.397 . S
C335 C336 1.391 . S
C336 C335 1.391 . S
C336 C337 1.405 . S
C337 H311 0.950 . S
C337 C336 1.405 . S
C337 C338 1.367 . S
C338 H312 0.950 . S
C338 C333 1.386 . S
C338 C337 1.367 . S
C339 C333 1.483 . S
C339 C340 1.382 . S
C339 C341 1.403 . S
C340 H313 0.950 . S
C340 C326 1.411 . S
C340 C339 1.382 . S
C341 C325 1.411 . S
C341 C339 1.403 . S
C341 C342 1.489 . S
C342 C341 1.489 . S
C342 C343 1.383 . S
C342 C347 1.382 . S
C343 H314 0.950 . S
C343 C342 1.383 . S
C343 C344 1.395 . S
C344 H315 0.950 . S
C344 C343 1.395 . S
C344 C345 1.288 . S
C345 C344 1.288 . S
C345 C346 1.392 . S
C346 H316 0.951 . S
C346 C345 1.392 . S
C346 C347 1.392 . S
C347 H317 0.949 . S
C347 C342 1.382 . S
C347 C346 1.392 . S
H348 C367 0.949 . S
H349 C368 0.950 . S
H350 C370 0.950 . S
H351 C371 0.950 . S
H352 C373 0.950 . S
H353 C376 0.950 . S
H354 C377 0.950 . S
H355 C379 0.951 . S
H356 C380 0.949 . S
H357 C382 0.949 . S
H358 C383 0.950 . S
H359 C385 0.950 . S
H360 C386 0.950 . S
H361 C388 0.950 . S
H362 C391 0.950 . S
H363 C392 0.950 . S
H364 C394 0.951 . S
H365 C395 0.949 . S
C366 C367 1.376 . S
C366 C371 1.386 . S
C366 C372 1.483 . S
C367 H348 0.949 . S
C367 C366 1.376 . S
C367 C368 1.397 . S
C368 H349 0.950 . S
C368 C367 1.397 . S
C368 C369 1.391 . S
C369 C368 1.391 . S
C369 C370 1.405 . S
C370 H350 0.950 . S
C370 C369 1.405 . S
C370 C371 1.367 . S
C371 H351 0.950 . S
C371 C366 1.386 . S
C371 C370 1.367 . S
C372 C366 1.483 . S
C372 C373 1.382 . S
C372 C374 1.403 . S
C373 H352 0.950 . S
C373 C372 1.382 . S
C373 C389 1.411 . S
C374 C372 1.403 . S
C374 C375 1.489 . S
C374 C388 1.411 . S
C375 C374 1.489 . S
C375 C376 1.383 . S
C375 C380 1.382 . S
C376 H353 0.950 . S
C376 C375 1.383 . S
C376 C377 1.395 . S
C377 H354 0.950 . S
C377 C376 1.395 . S
C377 C378 1.288 . S
C378 C377 1.288 . S
C378 C379 1.392 . S
C379 H355 0.951 . S
C379 C378 1.392 . S
C379 C380 1.392 . S
C380 H356 0.949 . S
C380 C375 1.382 . S
C380 C379 1.392 . S
C381 C382 1.376 . S
C381 C386 1.386 . S
C381 C387 1.483 . S
C382 H357 0.949 . S
C382 C381 1.376 . S
C382 C383 1.397 . S
C383 H358 0.950 . S
C383 C382 1.397 . S
C383 C384 1.391 . S
C384 C383 1.391 . S
C384 C385 1.405 . S
C385 H359 0.950 . S
C385 C384 1.405 . S
C385 C386 1.367 . S
C386 H360 0.950 . S
C386 C381 1.386 . S
C386 C385 1.367 . S
C387 C381 1.483 . S
C387 C388 1.382 . S
C387 C389 1.403 . S
C388 H361 0.950 . S
C388 C374 1.411 . S
C388 C387 1.382 . S
C389 C373 1.411 . S
C389 C387 1.403 . S
C389 C390 1.489 . S
C390 C389 1.489 . S
C390 C391 1.383 . S
C390 C395 1.382 . S
C391 H362 0.950 . S
C391 C390 1.383 . S
C391 C392 1.395 . S
C392 H363 0.950 . S
C392 C391 1.395 . S
C392 C393 1.288 . S
C393 C392 1.288 . S
C393 C394 1.392 . S
C394 H364 0.951 . S
C394 C393 1.392 . S
C394 C395 1.392 . S
C395 H365 0.949 . S
C395 C390 1.382 . S
C395 C394 1.392 . S
H396 C415 0.949 . S
H397 C416 0.950 . S
H398 C418 0.950 . S
H399 C419 0.950 . S
H400 C421 0.950 . S
H401 C424 0.950 . S
H402 C425 0.950 . S
H403 C427 0.951 . S
H404 C428 0.949 . S
H405 C430 0.949 . S
H406 C431 0.950 . S
H407 C433 0.950 . S
H408 C434 0.950 . S
H409 C436 0.950 . S
H410 C439 0.950 . S
H411 C440 0.950 . S
H412 C442 0.951 . S
H413 C443 0.949 . S
C414 C415 1.376 . S
C414 C419 1.386 . S
C414 C420 1.483 . S
C415 H396 0.949 . S
C415 C414 1.376 . S
C415 C416 1.397 . S
C416 H397 0.950 . S
C416 C415 1.397 . S
C416 C417 1.391 . S
C417 C416 1.391 . S
C417 C418 1.405 . S
C418 H398 0.950 . S
C418 C417 1.405 . S
C418 C419 1.367 . S
C419 H399 0.950 . S
C419 C414 1.386 . S
C419 C418 1.367 . S
C420 C414 1.483 . S
C420 C421 1.382 . S
C420 C422 1.403 . S
C421 H400 0.950 . S
C421 C420 1.382 . S
C421 C437 1.411 . S
C422 C420 1.403 . S
C422 C423 1.489 . S
C422 C436 1.411 . S
C423 C422 1.489 . S
C423 C424 1.383 . S
C423 C428 1.382 . S
C424 H401 0.950 . S
C424 C423 1.383 . S
C424 C425 1.395 . S
C425 H402 0.950 . S
C425 C424 1.395 . S
C425 C426 1.288 . S
C426 C425 1.288 . S
C426 C427 1.392 . S
C427 H403 0.951 . S
C427 C426 1.392 . S
C427 C428 1.392 . S
C428 H404 0.949 . S
C428 C423 1.382 . S
C428 C427 1.392 . S
C429 C430 1.376 . S
C429 C434 1.386 . S
C429 C435 1.483 . S
C430 H405 0.949 . S
C430 C429 1.376 . S
C430 C431 1.397 . S
C431 H406 0.950 . S
C431 C430 1.397 . S
C431 C432 1.391 . S
C432 C431 1.391 . S
C432 C433 1.405 . S
C433 H407 0.950 . S
C433 C432 1.405 . S
C433 C434 1.367 . S
C434 H408 0.950 . S
C434 C429 1.386 . S
C434 C433 1.367 . S
C435 C429 1.483 . S
C435 C436 1.382 . S
C435 C437 1.403 . S
C436 H409 0.950 . S
C436 C422 1.411 . S
C436 C435 1.382 . S
C437 C421 1.411 . S
C437 C435 1.403 . S
C437 C438 1.489 . S
C438 C437 1.489 . S
C438 C439 1.383 . S
C438 C443 1.382 . S
C439 H410 0.950 . S
C439 C438 1.383 . S
C439 C440 1.395 . S
C440 H411 0.950 . S
C440 C439 1.395 . S
C440 C441 1.288 . S
C441 C440 1.288 . S
C441 C442 1.392 . S
C442 H412 0.951 . S
C442 C441 1.392 . S
C442 C443 1.392 . S
C443 H413 0.949 . S
C443 C438 1.382 . S
C443 C442 1.392 . S
H444 C463 0.949 . S
H445 C464 0.950 . S
H446 C466 0.950 . S
H447 C467 0.950 . S
H448 C469 0.950 . S
H449 C472 0.950 . S
H450 C473 0.950 . S
H451 C475 0.951 . S
H452 C476 0.949 . S
H453 C478 0.949 . S
H454 C479 0.950 . S
H455 C481 0.950 . S
H456 C482 0.950 . S
H457 C484 0.950 . S
H458 C487 0.950 . S
H459 C488 0.950 . S
H460 C490 0.951 . S
H461 C491 0.949 . S
C462 C463 1.376 . S
C462 C467 1.386 . S
C462 C468 1.483 . S
C463 H444 0.949 . S
C463 C462 1.376 . S
C463 C464 1.397 . S
C464 H445 0.950 . S
C464 C463 1.397 . S
C464 C465 1.391 . S
C465 C464 1.391 . S
C465 C466 1.405 . S
C466 H446 0.950 . S
C466 C465 1.405 . S
C466 C467 1.367 . S
C467 H447 0.950 . S
C467 C462 1.386 . S
C467 C466 1.367 . S
C468 C462 1.483 . S
C468 C469 1.382 . S
C468 C470 1.403 . S
C469 H448 0.950 . S
C469 C468 1.382 . S
C469 C485 1.411 . S
C470 C468 1.403 . S
C470 C471 1.489 . S
C470 C484 1.411 . S
C471 C470 1.489 . S
C471 C472 1.383 . S
C471 C476 1.382 . S
C472 H449 0.950 . S
C472 C471 1.383 . S
C472 C473 1.395 . S
C473 H450 0.950 . S
C473 C472 1.395 . S
C473 C474 1.288 . S
C474 C473 1.288 . S
C474 C475 1.392 . S
C475 H451 0.951 . S
C475 C474 1.392 . S
C475 C476 1.392 . S
C476 H452 0.949 . S
C476 C471 1.382 . S
C476 C475 1.392 . S
C477 C478 1.376 . S
C477 C482 1.386 . S
C477 C483 1.483 . S
C478 H453 0.949 . S
C478 C477 1.376 . S
C478 C479 1.397 . S
C479 H454 0.950 . S
C479 C478 1.397 . S
C479 C480 1.391 . S
C480 C479 1.391 . S
C480 C481 1.405 . S
C481 H455 0.950 . S
C481 C480 1.405 . S
C481 C482 1.367 . S
C482 H456 0.950 . S
C482 C477 1.386 . S
C482 C481 1.367 . S
C483 C477 1.483 . S
C483 C484 1.382 . S
C483 C485 1.403 . S
C484 H457 0.950 . S
C484 C470 1.411 . S
C484 C483 1.382 . S
C485 C469 1.411 . S
C485 C483 1.403 . S
C485 C486 1.489 . S
C486 C485 1.489 . S
C486 C487 1.383 . S
C486 C491 1.382 . S
C487 H458 0.950 . S
C487 C486 1.383 . S
C487 C488 1.395 . S
C488 H459 0.950 . S
C488 C487 1.395 . S
C488 C489 1.288 . S
C489 C488 1.288 . S
C489 C490 1.392 . S
C490 H460 0.951 . S
C490 C489 1.392 . S
C490 C491 1.392 . S
C491 H461 0.949 . S
C491 C486 1.382 . S
C491 C490 1.392 . S
H492 C511 0.949 . S
H493 C512 0.950 . S
H494 C514 0.950 . S
H495 C515 0.950 . S
H496 C517 0.950 . S
H497 C520 0.950 . S
H498 C521 0.950 . S
H499 C523 0.951 . S
H500 C524 0.949 . S
H501 C526 0.949 . S
H502 C527 0.950 . S
H503 C529 0.950 . S
H504 C530 0.950 . S
H505 C532 0.950 . S
H506 C535 0.950 . S
H507 C536 0.950 . S
H508 C538 0.951 . S
H509 C539 0.949 . S
C510 C511 1.376 . S
C510 C515 1.386 . S
C510 C516 1.483 . S
C511 H492 0.949 . S
C511 C510 1.376 . S
C511 C512 1.397 . S
C512 H493 0.950 . S
C512 C511 1.397 . S
C512 C513 1.391 . S
C513 C512 1.391 . S
C513 C514 1.405 . S
C514 H494 0.950 . S
C514 C513 1.405 . S
C514 C515 1.367 . S
C515 H495 0.950 . S
C515 C510 1.386 . S
C515 C514 1.367 . S
C516 C510 1.483 . S
C516 C517 1.382 . S
C516 C518 1.403 . S
C517 H496 0.950 . S
C517 C516 1.382 . S
C517 C533 1.411 . S
C518 C516 1.403 . S
C518 C519 1.489 . S
C518 C532 1.411 . S
C519 C518 1.489 . S
C519 C520 1.383 . S
C519 C524 1.382 . S
C520 H497 0.950 . S
C520 C519 1.383 . S
C520 C521 1.395 . S
C521 H498 0.950 . S
C521 C520 1.395 . S
C521 C522 1.288 . S
C522 C521 1.288 . S
C522 C523 1.392 . S
C523 H499 0.951 . S
C523 C522 1.392 . S
C523 C524 1.392 . S
C524 H500 0.949 . S
C524 C519 1.382 . S
C524 C523 1.392 . S
C525 C526 1.376 . S
C525 C530 1.386 . S
C525 C531 1.483 . S
C526 H501 0.949 . S
C526 C525 1.376 . S
C526 C527 1.397 . S
C527 H502 0.950 . S
C527 C526 1.397 . S
C527 C528 1.391 . S
C528 C527 1.391 . S
C528 C529 1.405 . S
C529 H503 0.950 . S
C529 C528 1.405 . S
C529 C530 1.367 . S
C530 H504 0.950 . S
C530 C525 1.386 . S
C530 C529 1.367 . S
C531 C525 1.483 . S
C531 C532 1.382 . S
C531 C533 1.403 . S
C532 H505 0.950 . S
C532 C518 1.411 . S
C532 C531 1.382 . S
C533 C517 1.411 . S
C533 C531 1.403 . S
C533 C534 1.489 . S
C534 C533 1.489 . S
C534 C535 1.383 . S
C534 C539 1.382 . S
C535 H506 0.950 . S
C535 C534 1.383 . S
C535 C536 1.395 . S
C536 H507 0.950 . S
C536 C535 1.395 . S
C536 C537 1.288 . S
C537 C536 1.288 . S
C537 C538 1.392 . S
C538 H508 0.951 . S
C538 C537 1.392 . S
C538 C539 1.392 . S
C539 H509 0.949 . S
C539 C534 1.382 . S
C539 C538 1.392 . S
H540 C559 0.949 . S
H541 C560 0.950 . S
H542 C562 0.950 . S
H543 C563 0.950 . S
H544 C565 0.950 . S
H545 C568 0.950 . S
H546 C569 0.950 . S
H547 C571 0.951 . S
H548 C572 0.949 . S
H549 C574 0.949 . S
H550 C575 0.950 . S
H551 C577 0.950 . S
H552 C578 0.950 . S
H553 C580 0.950 . S
H554 C583 0.950 . S
H555 C584 0.950 . S
H556 C586 0.951 . S
H557 C587 0.949 . S
C558 C559 1.376 . S
C558 C563 1.386 . S
C558 C564 1.483 . S
C559 H540 0.949 . S
C559 C558 1.376 . S
C559 C560 1.397 . S
C560 H541 0.950 . S
C560 C559 1.397 . S
C560 C561 1.391 . S
C561 C560 1.391 . S
C561 C562 1.405 . S
C562 H542 0.950 . S
C562 C561 1.405 . S
C562 C563 1.367 . S
C563 H543 0.950 . S
C563 C558 1.386 . S
C563 C562 1.367 . S
C564 C558 1.483 . S
C564 C565 1.382 . S
C564 C566 1.403 . S
C565 H544 0.950 . S
C565 C564 1.382 . S
C565 C581 1.411 . S
C566 C564 1.403 . S
C566 C567 1.489 . S
C566 C580 1.411 . S
C567 C566 1.489 . S
C567 C568 1.383 . S
C567 C572 1.382 . S
C568 H545 0.950 . S
C568 C567 1.383 . S
C568 C569 1.395 . S
C569 H546 0.950 . S
C569 C568 1.395 . S
C569 C570 1.288 . S
C570 C569 1.288 . S
C570 C571 1.392 . S
C571 H547 0.951 . S
C571 C570 1.392 . S
C571 C572 1.392 . S
C572 H548 0.949 . S
C572 C567 1.382 . S
C572 C571 1.392 . S
C573 C574 1.376 . S
C573 C578 1.386 . S
C573 C579 1.483 . S
C574 H549 0.949 . S
C574 C573 1.376 . S
C574 C575 1.397 . S
C575 H550 0.950 . S
C575 C574 1.397 . S
C575 C576 1.391 . S
C576 C575 1.391 . S
C576 C577 1.405 . S
C577 H551 0.950 . S
C577 C576 1.405 . S
C577 C578 1.367 . S
C578 H552 0.950 . S
C578 C573 1.386 . S
C578 C577 1.367 . S
C579 C573 1.483 . S
C579 C580 1.382 . S
C579 C581 1.403 . S
C580 H553 0.950 . S
C580 C566 1.411 . S
C580 C579 1.382 . S
C581 C565 1.411 . S
C581 C579 1.403 . S
C581 C582 1.489 . S
C582 C581 1.489 . S
C582 C583 1.383 . S
C582 C587 1.382 . S
C583 H554 0.950 . S
C583 C582 1.383 . S
C583 C584 1.395 . S
C584 H555 0.950 . S
C584 C583 1.395 . S
C584 C585 1.288 . S
C585 C584 1.288 . S
C585 C586 1.392 . S
C586 H556 0.951 . S
C586 C585 1.392 . S
C586 C587 1.392 . S
C587 H557 0.949 . S
C587 C582 1.382 . S
C587 C586 1.392 . S
H588 C607 0.949 . S
H589 C608 0.950 . S
H590 C610 0.950 . S
H591 C611 0.950 . S
H592 C613 0.950 . S
H593 C616 0.950 . S
H594 C617 0.950 . S
H595 C619 0.951 . S
H596 C620 0.949 . S
H597 C622 0.949 . S
H598 C623 0.950 . S
H599 C625 0.950 . S
H600 C626 0.950 . S
H601 C628 0.950 . S
H602 C631 0.950 . S
H603 C632 0.950 . S
H604 C634 0.951 . S
H605 C635 0.949 . S
C606 C607 1.376 . S
C606 C611 1.386 . S
C606 C612 1.483 . S
C607 H588 0.949 . S
C607 C606 1.376 . S
C607 C608 1.397 . S
C608 H589 0.950 . S
C608 C607 1.397 . S
C608 C609 1.391 . S
C609 C608 1.391 . S
C609 C610 1.405 . S
C610 H590 0.950 . S
C610 C609 1.405 . S
C610 C611 1.367 . S
C611 H591 0.950 . S
C611 C606 1.386 . S
C611 C610 1.367 . S
C612 C606 1.483 . S
C612 C613 1.382 . S
C612 C614 1.403 . S
C613 H592 0.950 . S
C613 C612 1.382 . S
C613 C629 1.411 . S
C614 C612 1.403 . S
C614 C615 1.489 . S
C614 C628 1.411 . S
C615 C614 1.489 . S
C615 C616 1.383 . S
C615 C620 1.382 . S
C616 H593 0.950 . S
C616 C615 1.383 . S
C616 C617 1.395 . S
C617 H594 0.950 . S
C617 C616 1.395 . S
C617 C618 1.288 . S
C618 C617 1.288 . S
C618 C619 1.392 . S
C619 H595 0.951 . S
C619 C618 1.392 . S
C619 C620 1.392 . S
C620 H596 0.949 . S
C620 C615 1.382 . S
C620 C619 1.392 . S
C621 C622 1.376 . S
C621 C626 1.386 . S
C621 C627 1.483 . S
C622 H597 0.949 . S
C622 C621 1.376 . S
C622 C623 1.397 . S
C623 H598 0.950 . S
C623 C622 1.397 . S
C623 C624 1.391 . S
C624 C623 1.391 . S
C624 C625 1.405 . S
C625 H599 0.950 . S
C625 C624 1.405 . S
C625 C626 1.367 . S
C626 H600 0.950 . S
C626 C621 1.386 . S
C626 C625 1.367 . S
C627 C621 1.483 . S
C627 C628 1.382 . S
C627 C629 1.403 . S
C628 H601 0.950 . S
C628 C614 1.411 . S
C628 C627 1.382 . S
C629 C613 1.411 . S
C629 C627 1.403 . S
C629 C630 1.489 . S
C630 C629 1.489 . S
C630 C631 1.383 . S
C630 C635 1.382 . S
C631 H602 0.950 . S
C631 C630 1.383 . S
C631 C632 1.395 . S
C632 H603 0.950 . S
C632 C631 1.395 . S
C632 C633 1.288 . S
C633 C632 1.288 . S
C633 C634 1.392 . S
C634 H604 0.951 . S
C634 C633 1.392 . S
C634 C635 1.392 . S
C635 H605 0.949 . S
C635 C630 1.382 . S
C635 C634 1.392 . S
H636 C655 0.949 . S
H637 C656 0.950 . S
H638 C658 0.950 . S
H639 C659 0.950 . S
H640 C661 0.950 . S
H641 C664 0.950 . S
H642 C665 0.950 . S
H643 C667 0.951 . S
H644 C668 0.949 . S
H645 C670 0.949 . S
H646 C671 0.950 . S
H647 C673 0.950 . S
H648 C674 0.950 . S
H649 C676 0.950 . S
H650 C679 0.950 . S
H651 C680 0.950 . S
H652 C682 0.951 . S
H653 C683 0.949 . S
C654 C655 1.376 . S
C654 C659 1.386 . S
C654 C660 1.483 . S
C655 H636 0.949 . S
C655 C654 1.376 . S
C655 C656 1.397 . S
C656 H637 0.950 . S
C656 C655 1.397 . S
C656 C657 1.391 . S
C657 C656 1.391 . S
C657 C658 1.405 . S
C658 H638 0.950 . S
C658 C657 1.405 . S
C658 C659 1.367 . S
C659 H639 0.950 . S
C659 C654 1.386 . S
C659 C658 1.367 . S
C660 C654 1.483 . S
C660 C661 1.382 . S
C660 C662 1.403 . S
C661 H640 0.950 . S
C661 C660 1.382 . S
C661 C677 1.411 . S
C662 C660 1.403 . S
C662 C663 1.489 . S
C662 C676 1.411 . S
C663 C662 1.489 . S
C663 C664 1.383 . S
C663 C668 1.382 . S
C664 H641 0.950 . S
C664 C663 1.383 . S
C664 C665 1.395 . S
C665 H642 0.950 . S
C665 C664 1.395 . S
C665 C666 1.288 . S
C666 C665 1.288 . S
C666 C667 1.392 . S
C667 H643 0.951 . S
C667 C666 1.392 . S
C667 C668 1.392 . S
C668 H644 0.949 . S
C668 C663 1.382 . S
C668 C667 1.392 . S
C669 C670 1.376 . S
C669 C674 1.386 . S
C669 C675 1.483 . S
C670 H645 0.949 . S
C670 C669 1.376 . S
C670 C671 1.397 . S
C671 H646 0.950 . S
C671 C670 1.397 . S
C671 C672 1.391 . S
C672 C671 1.391 . S
C672 C673 1.405 . S
C673 H647 0.950 . S
C673 C672 1.405 . S
C673 C674 1.367 . S
C674 H648 0.950 . S
C674 C669 1.386 . S
C674 C673 1.367 . S
C675 C669 1.483 . S
C675 C676 1.382 . S
C675 C677 1.403 . S
C676 H649 0.950 . S
C676 C662 1.411 . S
C676 C675 1.382 . S
C677 C661 1.411 . S
C677 C675 1.403 . S
C677 C678 1.489 . S
C678 C677 1.489 . S
C678 C679 1.383 . S
C678 C683 1.382 . S
C679 H650 0.950 . S
C679 C678 1.383 . S
C679 C680 1.395 . S
C680 H651 0.950 . S
C680 C679 1.395 . S
C680 C681 1.288 . S
C681 C680 1.288 . S
C681 C682 1.392 . S
C682 H652 0.951 . S
C682 C681 1.392 . S
C682 C683 1.392 . S
C683 H653 0.949 . S
C683 C678 1.382 . S
C683 C682 1.392 . S
H684 C703 0.949 . S
H685 C704 0.950 . S
H686 C706 0.950 . S
H687 C707 0.950 . S
H688 C709 0.950 . S
H689 C712 0.950 . S
H690 C713 0.950 . S
H691 C715 0.951 . S
H692 C716 0.949 . S
H693 C718 0.949 . S
H694 C719 0.950 . S
H695 C721 0.950 . S
H696 C722 0.950 . S
H697 C724 0.950 . S
H698 C727 0.950 . S
H699 C728 0.950 . S
H700 C730 0.951 . S
H701 C731 0.949 . S
C702 C703 1.376 . S
C702 C707 1.386 1_655 S
C702 C708 1.483 . S
C703 H684 0.949 . S
C703 C702 1.376 . S
C703 C704 1.397 . S
C704 H685 0.950 . S
C704 C703 1.397 . S
C704 C705 1.391 . S
C705 C704 1.391 . S
C705 C706 1.405 1_655 S
C706 H686 0.950 . S
C706 C705 1.405 1_455 S
C706 C707 1.367 . S
C707 H687 0.950 . S
C707 C702 1.386 1_455 S
C707 C706 1.367 . S
C708 C702 1.483 . S
C708 C709 1.382 . S
C708 C710 1.403 1_655 S
C709 H688 0.950 . S
C709 C708 1.382 . S
C709 C725 1.411 . S
C710 C708 1.403 1_455 S
C710 C711 1.489 . S
C710 C724 1.411 . S
C711 C710 1.489 . S
C711 C712 1.383 1_455 S
C711 C716 1.382 . S
C712 H689 0.950 . S
C712 C711 1.383 1_655 S
C712 C713 1.395 . S
C713 H690 0.950 . S
C713 C712 1.395 . S
C713 C714 1.288 1_655 S
C714 C713 1.288 1_455 S
C714 C715 1.392 . S
C715 H691 0.951 . S
C715 C714 1.392 . S
C715 C716 1.392 . S
C716 H692 0.949 . S
C716 C711 1.382 . S
C716 C715 1.392 . S
C717 C718 1.376 . S
C717 C722 1.386 1_455 S
C717 C723 1.483 . S
C718 H693 0.949 . S
C718 C717 1.376 . S
C718 C719 1.397 . S
C719 H694 0.950 . S
C719 C718 1.397 . S
C719 C720 1.391 . S
C720 C719 1.391 . S
C720 C721 1.405 1_455 S
C721 H695 0.950 . S
C721 C720 1.405 1_655 S
C721 C722 1.367 . S
C722 H696 0.950 . S
C722 C717 1.386 1_655 S
C722 C721 1.367 . S
C723 C717 1.483 . S
C723 C724 1.382 . S
C723 C725 1.403 1_455 S
C724 H697 0.950 . S
C724 C710 1.411 . S
C724 C723 1.382 . S
C725 C709 1.411 . S
C725 C723 1.403 1_655 S
C725 C726 1.489 . S
C726 C725 1.489 . S
C726 C727 1.383 1_655 S
C726 C731 1.382 . S
C727 H698 0.950 . S
C727 C726 1.383 1_455 S
C727 C728 1.395 . S
C728 H699 0.950 . S
C728 C727 1.395 . S
C728 C729 1.288 1_455 S
C729 C728 1.288 1_655 S
C729 C730 1.392 . S
C730 H700 0.951 . S
C730 C729 1.392 . S
C730 C731 1.392 . S
C731 H701 0.949 . S
C731 C726 1.382 . S
C731 C730 1.392 . S
H732 C751 0.949 . S
H733 C752 0.950 . S
H734 C754 0.950 . S
H735 C755 0.950 . S
H736 C757 0.950 . S
H737 C760 0.950 . S
H738 C761 0.950 . S
H739 C763 0.951 . S
H740 C764 0.949 . S
H741 C766 0.949 . S
H742 C767 0.950 . S
H743 C769 0.950 . S
H744 C770 0.950 . S
H745 C772 0.950 . S
H746 C775 0.950 . S
H747 C776 0.950 . S
H748 C778 0.951 . S
H749 C779 0.949 . S
C750 C751 1.376 . S
C750 C755 1.386 . S
C750 C756 1.483 . S
C751 H732 0.949 . S
C751 C750 1.376 . S
C751 C752 1.397 . S
C752 H733 0.950 . S
C752 C751 1.397 . S
C752 C753 1.391 . S
C753 C752 1.391 . S
C753 C754 1.405 . S
C754 H734 0.950 . S
C754 C753 1.405 . S
C754 C755 1.367 . S
C755 H735 0.950 . S
C755 C750 1.386 . S
C755 C754 1.367 . S
C756 C750 1.483 . S
C756 C757 1.382 . S
C756 C758 1.403 . S
C757 H736 0.950 . S
C757 C756 1.382 . S
C757 C773 1.411 . S
C758 C756 1.403 . S
C758 C759 1.489 . S
C758 C772 1.411 . S
C759 C758 1.489 . S
C759 C760 1.383 . S
C759 C764 1.382 . S
C760 H737 0.950 . S
C760 C759 1.383 . S
C760 C761 1.395 . S
C761 H738 0.950 . S
C761 C760 1.395 . S
C761 C762 1.288 . S
C762 C761 1.288 . S
C762 C763 1.392 . S
C763 H739 0.951 . S
C763 C762 1.392 . S
C763 C764 1.392 . S
C764 H740 0.949 . S
C764 C759 1.382 . S
C764 C763 1.392 . S
C765 C766 1.376 . S
C765 C770 1.386 . S
C765 C771 1.483 . S
C766 H741 0.949 . S
C766 C765 1.376 . S
C766 C767 1.397 . S
C767 H742 0.950 . S
C767 C766 1.397 . S
C767 C768 1.391 . S
C768 C767 1.391 . S
C768 C769 1.405 . S
C769 H743 0.950 . S
C769 C768 1.405 . S
C769 C770 1.367 . S
C770 H744 0.950 . S
C770 C765 1.386 . S
C770 C769 1.367 . S
C771 C765 1.483 . S
C771 C772 1.382 . S
C771 C773 1.403 . S
C772 H745 0.950 . S
C772 C758 1.411 . S
C772 C771 1.382 . S
C773 C757 1.411 . S
C773 C771 1.403 . S
C773 C774 1.489 . S
C774 C773 1.489 . S
C774 C775 1.383 . S
C774 C779 1.382 . S
C775 H746 0.950 . S
C775 C774 1.383 . S
C775 C776 1.395 . S
C776 H747 0.950 . S
C776 C775 1.395 . S
C776 C777 1.288 . S
C777 C776 1.288 . S
C777 C778 1.392 . S
C778 H748 0.951 . S
C778 C777 1.392 . S
C778 C779 1.392 . S
C779 H749 0.949 . S
C779 C774 1.382 . S
C779 C778 1.392 . S
H780 C799 0.949 . S
H781 C800 0.950 . S
H782 C802 0.950 . S
H783 C803 0.950 . S
H784 C805 0.950 . S
H785 C808 0.950 . S
H786 C809 0.950 . S
H787 C811 0.951 . S
H788 C812 0.949 . S
H789 C814 0.949 . S
H790 C815 0.950 . S
H791 C817 0.950 . S
H792 C818 0.950 . S
H793 C820 0.950 . S
H794 C823 0.950 . S
H795 C824 0.950 . S
H796 C826 0.951 . S
H797 C827 0.949 . S
C798 C799 1.376 . S
C798 C803 1.386 1_545 S
C798 C804 1.483 . S
C799 H780 0.949 . S
C799 C798 1.376 . S
C799 C800 1.397 . S
C800 H781 0.950 . S
C800 C799 1.397 . S
C800 C801 1.391 . S
C801 C800 1.391 . S
C801 C802 1.405 1_545 S
C802 H782 0.950 . S
C802 C801 1.405 1_565 S
C802 C803 1.367 . S
C803 H783 0.950 . S
C803 C798 1.386 1_565 S
C803 C802 1.367 . S
C804 C798 1.483 . S
C804 C805 1.382 . S
C804 C806 1.403 1_545 S
C805 H784 0.950 . S
C805 C804 1.382 . S
C805 C821 1.411 . S
C806 C804 1.403 1_565 S
C806 C807 1.489 . S
C806 C820 1.411 . S
C807 C806 1.489 . S
C807 C808 1.383 1_565 S
C807 C812 1.382 . S
C808 H785 0.950 . S
C808 C807 1.383 1_545 S
C808 C809 1.395 . S
C809 H786 0.950 . S
C809 C808 1.395 . S
C809 C810 1.288 1_545 S
C810 C809 1.288 1_565 S
C810 C811 1.392 . S
C811 H787 0.951 . S
C811 C810 1.392 . S
C811 C812 1.392 . S
C812 H788 0.949 . S
C812 C807 1.382 . S
C812 C811 1.392 . S
C813 C814 1.376 . S
C813 C818 1.386 1_565 S
C813 C819 1.483 . S
C814 H789 0.949 . S
C814 C813 1.376 . S
C814 C815 1.397 . S
C815 H790 0.950 . S
C815 C814 1.397 . S
C815 C816 1.391 . S
C816 C815 1.391 . S
C816 C817 1.405 1_565 S
C817 H791 0.950 . S
C817 C816 1.405 1_545 S
C817 C818 1.367 . S
C818 H792 0.950 . S
C818 C813 1.386 1_545 S
C818 C817 1.367 . S
C819 C813 1.483 . S
C819 C820 1.382 . S
C819 C821 1.403 1_565 S
C820 H793 0.950 . S
C820 C806 1.411 . S
C820 C819 1.382 . S
C821 C805 1.411 . S
C821 C819 1.403 1_545 S
C821 C822 1.489 . S
C822 C821 1.489 . S
C822 C823 1.383 1_545 S
C822 C827 1.382 . S
C823 H794 0.950 . S
C823 C822 1.383 1_565 S
C823 C824 1.395 . S
C824 H795 0.950 . S
C824 C823 1.395 . S
C824 C825 1.288 1_565 S
C825 C824 1.288 1_545 S
C825 C826 1.392 . S
C826 H796 0.951 . S
C826 C825 1.392 . S
C826 C827 1.392 . S
C827 H797 0.949 . S
C827 C822 1.382 . S
C827 C826 1.392 . S
H828 C847 0.949 . S
H829 C848 0.950 . S
H830 C850 0.950 . S
H831 C851 0.950 . S
H832 C853 0.950 . S
H833 C856 0.950 . S
H834 C857 0.950 . S
H835 C859 0.951 . S
H836 C860 0.949 . S
H837 C862 0.949 . S
H838 C863 0.950 . S
H839 C865 0.950 . S
H840 C866 0.950 . S
H841 C868 0.950 . S
H842 C871 0.950 . S
H843 C872 0.950 . S
H844 C874 0.951 . S
H845 C875 0.949 . S
C846 C847 1.397 . S
C846 C851 1.377 1_545 S
C846 C852 1.501 . S
C847 H828 0.949 . S
C847 C846 1.397 . S
C847 C848 1.397 . S
C848 H829 0.950 . S
C848 C847 1.397 . S
C848 C849 1.391 1_545 S
C849 C848 1.391 1_565 S
C849 C850 1.405 . S
C850 H830 0.950 . S
C850 C849 1.405 . S
C850 C851 1.367 . S
C851 H831 0.950 . S
C851 C846 1.377 1_565 S
C851 C850 1.367 . S
C852 C846 1.501 . S
C852 C853 1.353 . S
C852 C854 1.400 1_545 S
C853 H832 0.950 . S
C853 C852 1.353 . S
C853 C869 1.443 . S
C854 C852 1.400 1_565 S
C854 C855 1.481 . S
C854 C868 1.433 . S
C855 C854 1.481 . S
C855 C856 1.358 1_565 S
C855 C860 1.395 . S
C856 H833 0.950 . S
C856 C855 1.358 1_545 S
C856 C857 1.395 . S
C857 H834 0.950 . S
C857 C856 1.395 . S
C857 C858 1.288 . S
C858 C857 1.288 . S
C858 C859 1.392 1_545 S
C859 H835 0.951 . S
C859 C858 1.392 1_565 S
C859 C860 1.392 . S
C860 H836 0.949 . S
C860 C855 1.395 . S
C860 C859 1.392 . S
C861 C862 1.384 . S
C861 C866 1.382 1_565 S
C861 C867 1.501 . S
C862 H837 0.949 . S
C862 C861 1.384 . S
C862 C863 1.397 . S
C863 H838 0.950 . S
C863 C862 1.397 . S
C863 C864 1.391 1_565 S
C864 C863 1.391 1_545 S
C864 C865 1.405 . S
C865 H839 0.950 . S
C865 C864 1.405 . S
C865 C866 1.367 . S
C866 H840 0.950 . S
C866 C861 1.382 1_545 S
C866 C865 1.367 . S
C867 C861 1.501 . S
C867 C868 1.360 . S
C867 C869 1.400 1_565 S
C868 H841 0.950 . S
C868 C854 1.433 . S
C868 C867 1.360 . S
C869 C853 1.443 . S
C869 C867 1.400 1_545 S
C869 C870 1.481 . S
C870 C869 1.481 . S
C870 C871 1.341 1_545 S
C870 C875 1.404 . S
C871 H842 0.950 . S
C871 C870 1.341 1_565 S
C871 C872 1.395 . S
C872 H843 0.950 . S
C872 C871 1.395 . S
C872 C873 1.288 . S
C873 C872 1.288 . S
C873 C874 1.392 1_565 S
C874 H844 0.951 . S
C874 C873 1.392 1_545 S
C874 C875 1.392 . S
C875 H845 0.949 . S
C875 C870 1.404 . S
C875 C874 1.392 . S
H876 C895 0.949 . S
H877 C896 0.950 . S
H878 C898 0.950 . S
H879 C899 0.950 . S
H880 C901 0.950 . S
H881 C904 0.950 . S
H882 C905 0.950 . S
H883 C907 0.951 . S
H884 C908 0.949 . S
H885 C910 0.949 . S
H886 C911 0.950 . S
H887 C913 0.950 . S
H888 C914 0.950 . S
H889 C916 0.950 . S
H890 C919 0.950 . S
H891 C920 0.950 . S
H892 C922 0.951 . S
H893 C923 0.949 . S
C894 C895 1.376 . S
C894 C899 1.386 1_455 S
C894 C900 1.483 . S
C895 H876 0.949 . S
C895 C894 1.376 . S
C895 C896 1.397 . S
C896 H877 0.950 . S
C896 C895 1.397 . S
C896 C897 1.391 . S
C897 C896 1.391 . S
C897 C898 1.405 1_455 S
C898 H878 0.950 . S
C898 C897 1.405 1_655 S
C898 C899 1.367 . S
C899 H879 0.950 . S
C899 C894 1.386 1_655 S
C899 C898 1.367 . S
C900 C894 1.483 . S
C900 C901 1.382 . S
C900 C902 1.403 1_455 S
C901 H880 0.950 . S
C901 C900 1.382 . S
C901 C917 1.411 . S
C902 C900 1.403 1_655 S
C902 C903 1.489 . S
C902 C916 1.411 . S
C903 C902 1.489 . S
C903 C904 1.383 1_655 S
C903 C908 1.382 . S
C904 H881 0.950 . S
C904 C903 1.383 1_455 S
C904 C905 1.395 . S
C905 H882 0.950 . S
C905 C904 1.395 . S
C905 C906 1.288 1_455 S
C906 C905 1.288 1_655 S
C906 C907 1.392 . S
C907 H883 0.951 . S
C907 C906 1.392 . S
C907 C908 1.392 . S
C908 H884 0.949 . S
C908 C903 1.382 . S
C908 C907 1.392 . S
C909 C910 1.376 . S
C909 C914 1.386 1_655 S
C909 C915 1.483 . S
C910 H885 0.949 . S
C910 C909 1.376 . S
C910 C911 1.397 . S
C911 H886 0.950 . S
C911 C910 1.397 . S
C911 C912 1.391 . S
C912 C911 1.391 . S
C912 C913 1.405 1_655 S
C913 H887 0.950 . S
C913 C912 1.405 1_455 S
C913 C914 1.367 . S
C914 H888 0.950 . S
C914 C909 1.386 1_455 S
C914 C913 1.367 . S
C915 C909 1.483 . S
C915 C916 1.382 . S
C915 C917 1.403 1_655 S
C916 H889 0.950 . S
C916 C902 1.411 . S
C916 C915 1.382 . S
C917 C901 1.411 . S
C917 C915 1.403 1_455 S
C917 C918 1.489 . S
C918 C917 1.489 . S
C918 C919 1.383 1_455 S
C918 C923 1.382 . S
C919 H890 0.950 . S
C919 C918 1.383 1_655 S
C919 C920 1.395 . S
C920 H891 0.950 . S
C920 C919 1.395 . S
C920 C921 1.288 1_655 S
C921 C920 1.288 1_455 S
C921 C922 1.392 . S
C922 H892 0.951 . S
C922 C921 1.392 . S
C922 C923 1.392 . S
C923 H893 0.949 . S
C923 C918 1.382 . S
C923 C922 1.392 . S
H924 C943 0.949 . S
H925 C944 0.950 . S
H926 C946 0.950 . S
H927 C947 0.950 . S
H928 C949 0.950 . S
H929 C952 0.950 . S
H930 C953 0.950 . S
H931 C955 0.951 . S
H932 C956 0.949 . S
H933 C958 0.949 . S
H934 C959 0.950 . S
H935 C961 0.950 . S
H936 C962 0.950 . S
H937 C964 0.950 . S
H938 C967 0.950 . S
H939 C968 0.950 . S
H940 C970 0.951 . S
H941 C971 0.949 . S
C942 C943 1.376 . S
C942 C947 1.386 . S
C942 C948 1.483 . S
C943 H924 0.949 . S
C943 C942 1.376 . S
C943 C944 1.397 . S
C944 H925 0.950 . S
C944 C943 1.397 . S
C944 C945 1.391 . S
C945 C944 1.391 . S
C945 C946 1.405 . S
C946 H926 0.950 . S
C946 C945 1.405 . S
C946 C947 1.367 . S
C947 H927 0.950 . S
C947 C942 1.386 . S
C947 C946 1.367 . S
C948 C942 1.483 . S
C948 C949 1.382 . S
C948 C950 1.403 . S
C949 H928 0.950 . S
C949 C948 1.382 . S
C949 C965 1.411 . S
C950 C948 1.403 . S
C950 C951 1.489 . S
C950 C964 1.411 . S
C951 C950 1.489 . S
C951 C952 1.383 . S
C951 C956 1.382 . S
C952 H929 0.950 . S
C952 C951 1.383 . S
C952 C953 1.395 . S
C953 H930 0.950 . S
C953 C952 1.395 . S
C953 C954 1.288 . S
C954 C953 1.288 . S
C954 C955 1.392 . S
C955 H931 0.951 . S
C955 C954 1.392 . S
C955 C956 1.392 . S
C956 H932 0.949 . S
C956 C951 1.382 . S
C956 C955 1.392 . S
C957 C958 1.376 . S
C957 C962 1.386 . S
C957 C963 1.483 . S
C958 H933 0.949 . S
C958 C957 1.376 . S
C958 C959 1.397 . S
C959 H934 0.950 . S
C959 C958 1.397 . S
C959 C960 1.391 . S
C960 C959 1.391 . S
C960 C961 1.405 . S
C961 H935 0.950 . S
C961 C960 1.405 . S
C961 C962 1.367 . S
C962 H936 0.950 . S
C962 C957 1.386 . S
C962 C961 1.367 . S
C963 C957 1.483 . S
C963 C964 1.382 . S
C963 C965 1.403 . S
C964 H937 0.950 . S
C964 C950 1.411 . S
C964 C963 1.382 . S
C965 C949 1.411 . S
C965 C963 1.403 . S
C965 C966 1.489 . S
C966 C965 1.489 . S
C966 C967 1.383 . S
C966 C971 1.382 . S
C967 H938 0.950 . S
C967 C966 1.383 . S
C967 C968 1.395 . S
C968 H939 0.950 . S
C968 C967 1.395 . S
C968 C969 1.288 . S
C969 C968 1.288 . S
C969 C970 1.392 . S
C970 H940 0.951 . S
C970 C969 1.392 . S
C970 C971 1.392 . S
C971 H941 0.949 . S
C971 C966 1.382 . S
C971 C970 1.392 . S
H972 C991 0.949 . S
H973 C992 0.950 . S
H974 C994 0.950 . S
H975 C995 0.950 . S
H976 C997 0.950 . S
H977 C1000 0.950 . S
H978 C1001 0.950 . S
H979 C1003 0.951 . S
H980 C1004 0.949 . S
H981 C1006 0.949 . S
H982 C1007 0.950 . S
H983 C1009 0.950 . S
H984 C1010 0.950 . S
H985 C1012 0.950 . S
H986 C1015 0.950 . S
H987 C1016 0.950 . S
H988 C1018 0.951 . S
H989 C1019 0.949 . S
C990 C991 1.376 . S
C990 C995 1.386 . S
C990 C996 1.483 . S
C991 H972 0.949 . S
C991 C990 1.376 . S
C991 C992 1.397 . S
C992 H973 0.950 . S
C992 C991 1.397 . S
C992 C993 1.391 . S
C993 C992 1.391 . S
C993 C994 1.405 . S
C994 H974 0.950 . S
C994 C993 1.405 . S
C994 C995 1.367 . S
C995 H975 0.950 . S
C995 C990 1.386 . S
C995 C994 1.367 . S
C996 C990 1.483 . S
C996 C997 1.382 . S
C996 C998 1.403 . S
C997 H976 0.950 . S
C997 C996 1.382 . S
C997 C1013 1.411 . S
C998 C996 1.403 . S
C998 C999 1.489 . S
C998 C1012 1.411 . S
C999 C998 1.489 . S
C999 C1000 1.383 . S
C999 C1004 1.382 . S
C1000 H977 0.950 . S
C1000 C999 1.383 . S
C1000 C1001 1.395 . S
C1001 H978 0.950 . S
C1001 C1000 1.395 . S
C1001 C1002 1.288 . S
C1002 C1001 1.288 . S
C1002 C1003 1.392 . S
C1003 H979 0.951 . S
C1003 C1002 1.392 . S
C1003 C1004 1.392 . S
C1004 H980 0.949 . S
C1004 C999 1.382 . S
C1004 C1003 1.392 . S
C1005 C1006 1.376 . S
C1005 C1010 1.386 . S
C1005 C1011 1.483 . S
C1006 H981 0.949 . S
C1006 C1005 1.376 . S
C1006 C1007 1.397 . S
C1007 H982 0.950 . S
C1007 C1006 1.397 . S
C1007 C1008 1.391 . S
C1008 C1007 1.391 . S
C1008 C1009 1.405 . S
C1009 H983 0.950 . S
C1009 C1008 1.405 . S
C1009 C1010 1.367 . S
C1010 H984 0.950 . S
C1010 C1005 1.386 . S
C1010 C1009 1.367 . S
C1011 C1005 1.483 . S
C1011 C1012 1.382 . S
C1011 C1013 1.403 . S
C1012 H985 0.950 . S
C1012 C998 1.411 . S
C1012 C1011 1.382 . S
C1013 C997 1.411 . S
C1013 C1011 1.403 . S
C1013 C1014 1.489 . S
C1014 C1013 1.489 . S
C1014 C1015 1.383 . S
C1014 C1019 1.382 . S
C1015 H986 0.950 . S
C1015 C1014 1.383 . S
C1015 C1016 1.395 . S
C1016 H987 0.950 . S
C1016 C1015 1.395 . S
C1016 C1017 1.288 . S
C1017 C1016 1.288 . S
C1017 C1018 1.392 . S
C1018 H988 0.951 . S
C1018 C1017 1.392 . S
C1018 C1019 1.392 . S
C1019 H989 0.949 . S
C1019 C1014 1.382 . S
C1019 C1018 1.392 . S
H1020 C1039 0.949 . S
H1021 C1040 0.950 . S
H1022 C1042 0.950 . S
H1023 C1043 0.950 . S
H1024 C1045 0.950 . S
H1025 C1048 0.950 . S
H1026 C1049 0.950 . S
H1027 C1051 0.951 . S
H1028 C1052 0.949 . S
H1029 C1054 0.949 . S
H1030 C1055 0.950 . S
H1031 C1057 0.950 . S
H1032 C1058 0.950 . S
H1033 C1060 0.950 . S
H1034 C1063 0.950 . S
H1035 C1064 0.950 . S
H1036 C1066 0.951 . S
H1037 C1067 0.949 . S
C1038 C1039 1.376 . S
C1038 C1043 1.386 . S
C1038 C1044 1.483 . S
C1039 H1020 0.949 . S
C1039 C1038 1.376 . S
C1039 C1040 1.397 . S
C1040 H1021 0.950 . S
C1040 C1039 1.397 . S
C1040 C1041 1.391 . S
C1041 C1040 1.391 . S
C1041 C1042 1.405 . S
C1042 H1022 0.950 . S
C1042 C1041 1.405 . S
C1042 C1043 1.367 . S
C1043 H1023 0.950 . S
C1043 C1038 1.386 . S
C1043 C1042 1.367 . S
C1044 C1038 1.483 . S
C1044 C1045 1.382 . S
C1044 C1046 1.403 . S
C1045 H1024 0.950 . S
C1045 C1044 1.382 . S
C1045 C1061 1.411 . S
C1046 C1044 1.403 . S
C1046 C1047 1.489 . S
C1046 C1060 1.411 . S
C1047 C1046 1.489 . S
C1047 C1048 1.383 . S
C1047 C1052 1.382 . S
C1048 H1025 0.950 . S
C1048 C1047 1.383 . S
C1048 C1049 1.395 . S
C1049 H1026 0.950 . S
C1049 C1048 1.395 . S
C1049 C1050 1.288 . S
C1050 C1049 1.288 . S
C1050 C1051 1.392 . S
C1051 H1027 0.951 . S
C1051 C1050 1.392 . S
C1051 C1052 1.392 . S
C1052 H1028 0.949 . S
C1052 C1047 1.382 . S
C1052 C1051 1.392 . S
C1053 C1054 1.376 . S
C1053 C1058 1.386 . S
C1053 C1059 1.483 . S
C1054 H1029 0.949 . S
C1054 C1053 1.376 . S
C1054 C1055 1.397 . S
C1055 H1030 0.950 . S
C1055 C1054 1.397 . S
C1055 C1056 1.391 . S
C1056 C1055 1.391 . S
C1056 C1057 1.405 . S
C1057 H1031 0.950 . S
C1057 C1056 1.405 . S
C1057 C1058 1.367 . S
C1058 H1032 0.950 . S
C1058 C1053 1.386 . S
C1058 C1057 1.367 . S
C1059 C1053 1.483 . S
C1059 C1060 1.382 . S
C1059 C1061 1.403 . S
C1060 H1033 0.950 . S
C1060 C1046 1.411 . S
C1060 C1059 1.382 . S
C1061 C1045 1.411 . S
C1061 C1059 1.403 . S
C1061 C1062 1.489 . S
C1062 C1061 1.489 . S
C1062 C1063 1.383 . S
C1062 C1067 1.382 . S
C1063 H1034 0.950 . S
C1063 C1062 1.383 . S
C1063 C1064 1.395 . S
C1064 H1035 0.950 . S
C1064 C1063 1.395 . S
C1064 C1065 1.288 . S
C1065 C1064 1.288 . S
C1065 C1066 1.392 . S
C1066 H1036 0.951 . S
C1066 C1065 1.392 . S
C1066 C1067 1.392 . S
C1067 H1037 0.949 . S
C1067 C1062 1.382 . S
C1067 C1066 1.392 . S
H1068 C1087 0.949 . S
H1069 C1088 0.950 . S
H1070 C1090 0.950 . S
H1071 C1091 0.950 . S
H1072 C1093 0.950 . S
H1073 C1096 0.950 . S
H1074 C1097 0.950 . S
H1075 C1099 0.951 . S
H1076 C1100 0.949 . S
H1077 C1102 0.949 . S
H1078 C1103 0.950 . S
H1079 C1105 0.950 . S
H1080 C1106 0.950 . S
H1081 C1108 0.950 . S
H1082 C1111 0.950 . S
H1083 C1112 0.950 . S
H1084 C1114 0.951 . S
H1085 C1115 0.949 . S
C1086 C1087 1.376 . S
C1086 C1091 1.386 . S
C1086 C1092 1.483 . S
C1087 H1068 0.949 . S
C1087 C1086 1.376 . S
C1087 C1088 1.397 . S
C1088 H1069 0.950 . S
C1088 C1087 1.397 . S
C1088 C1089 1.391 . S
C1089 C1088 1.391 . S
C1089 C1090 1.405 . S
C1090 H1070 0.950 . S
C1090 C1089 1.405 . S
C1090 C1091 1.367 . S
C1091 H1071 0.950 . S
C1091 C1086 1.386 . S
C1091 C1090 1.367 . S
C1092 C1086 1.483 . S
C1092 C1093 1.382 . S
C1092 C1094 1.403 . S
C1093 H1072 0.950 . S
C1093 C1092 1.382 . S
C1093 C1109 1.411 . S
C1094 C1092 1.403 . S
C1094 C1095 1.489 . S
C1094 C1108 1.411 . S
C1095 C1094 1.489 . S
C1095 C1096 1.383 . S
C1095 C1100 1.382 . S
C1096 H1073 0.950 . S
C1096 C1095 1.383 . S
C1096 C1097 1.395 . S
C1097 H1074 0.950 . S
C1097 C1096 1.395 . S
C1097 C1098 1.288 . S
C1098 C1097 1.288 . S
C1098 C1099 1.392 . S
C1099 H1075 0.951 . S
C1099 C1098 1.392 . S
C1099 C1100 1.392 . S
C1100 H1076 0.949 . S
C1100 C1095 1.382 . S
C1100 C1099 1.392 . S
C1101 C1102 1.376 . S
C1101 C1106 1.386 . S
C1101 C1107 1.483 . S
C1102 H1077 0.949 . S
C1102 C1101 1.376 . S
C1102 C1103 1.397 . S
C1103 H1078 0.950 . S
C1103 C1102 1.397 . S
C1103 C1104 1.391 . S
C1104 C1103 1.391 . S
C1104 C1105 1.405 . S
C1105 H1079 0.950 . S
C1105 C1104 1.405 . S
C1105 C1106 1.367 . S
C1106 H1080 0.950 . S
C1106 C1101 1.386 . S
C1106 C1105 1.367 . S
C1107 C1101 1.483 . S
C1107 C1108 1.382 . S
C1107 C1109 1.403 . S
C1108 H1081 0.950 . S
C1108 C1094 1.411 . S
C1108 C1107 1.382 . S
C1109 C1093 1.411 . S
C1109 C1107 1.403 . S
C1109 C1110 1.489 . S
C1110 C1109 1.489 . S
C1110 C1111 1.383 . S
C1110 C1115 1.382 . S
C1111 H1082 0.950 . S
C1111 C1110 1.383 . S
C1111 C1112 1.395 . S
C1112 H1083 0.950 . S
C1112 C1111 1.395 . S
C1112 C1113 1.288 . S
C1113 C1112 1.288 . S
C1113 C1114 1.392 . S
C1114 H1084 0.951 . S
C1114 C1113 1.392 . S
C1114 C1115 1.392 . S
C1115 H1085 0.949 . S
C1115 C1110 1.382 . S
C1115 C1114 1.392 . S
H1116 C1122 0.930 . S
H1117 C1126 0.930 . S
H1118 C1131 0.929 . S
H1119 C1129 0.929 . S
H1120 C1124 0.929 . S
H1121 C1130 0.929 . S
C1122 H1116 0.930 . S
C1122 C1123 1.367 . S
C1122 C1130 1.378 . S
C1123 C1122 1.367 . S
C1123 C1131 1.433 1_655 S
C1124 H1120 0.929 . S
C1124 C1126 1.378 . S
C1124 C1128 1.350 1_455 S
C1125 C1128 1.463 . S
C1125 C1130 1.350 . S
C1125 N1133 1.427 1_655 S
C1126 H1117 0.930 . S
C1126 C1124 1.378 . S
C1126 C1127 1.367 1_455 S
C1127 C1126 1.367 1_655 S
C1127 C1129 1.433 . S
C1128 C1124 1.350 1_655 S
C1128 C1125 1.463 . S
C1128 N1132 1.427 . S
C1129 H1119 0.929 . S
C1129 C1127 1.433 . S
C1129 N1132 1.384 . S
C1130 H1121 0.929 . S
C1130 C1122 1.378 . S
C1130 C1125 1.350 . S
C1131 H1118 0.929 . S
C1131 C1123 1.433 1_455 S
C1131 N1133 1.384 . S
N1132 C1128 1.427 . S
N1132 C1129 1.384 . S
N1133 C1125 1.427 1_455 S
N1133 C1131 1.384 . S
H1134 C1140 0.930 . S
H1135 C1144 0.930 . S
H1136 C1149 0.929 . S
H1137 C1147 0.929 . S
H1138 C1142 0.929 . S
H1139 C1148 0.929 . S
C1140 H1134 0.930 . S
C1140 C1141 1.367 . S
C1140 C1148 1.378 . S
C1141 C1140 1.367 . S
C1141 C1149 1.433 . S
C1142 H1138 0.929 . S
C1142 C1144 1.378 . S
C1142 C1146 1.350 . S
C1143 C1146 1.463 . S
C1143 C1148 1.350 . S
C1143 N1151 1.427 . S
C1144 H1135 0.930 . S
C1144 C1142 1.378 . S
C1144 C1145 1.367 . S
C1145 C1144 1.367 . S
C1145 C1147 1.433 . S
C1146 C1142 1.350 . S
C1146 C1143 1.463 . S
C1146 N1150 1.427 . S
C1147 H1137 0.929 . S
C1147 C1145 1.433 . S
C1147 N1150 1.384 . S
C1148 H1139 0.929 . S
C1148 C1140 1.378 . S
C1148 C1143 1.350 . S
C1149 H1136 0.929 . S
C1149 C1141 1.433 . S
C1149 N1151 1.384 . S
N1150 C1146 1.427 . S
N1150 C1147 1.384 . S
N1151 C1143 1.427 . S
N1151 C1149 1.384 . S
H1152 C1158 0.930 . S
H1153 C1162 0.930 . S
H1154 C1167 0.929 . S
H1155 C1165 0.929 . S
H1156 C1160 0.929 . S
H1157 C1166 0.929 . S
C1158 H1152 0.930 . S
C1158 C1159 1.367 . S
C1158 C1166 1.378 . S
C1159 C1158 1.367 . S
C1159 C1167 1.433 1_545 S
C1160 H1156 0.929 . S
C1160 C1162 1.378 . S
C1160 C1164 1.350 1_565 S
C1161 C1164 1.463 . S
C1161 C1166 1.350 . S
C1161 N1169 1.427 1_545 S
C1162 H1153 0.930 . S
C1162 C1160 1.378 . S
C1162 C1163 1.367 1_565 S
C1163 C1162 1.367 1_545 S
C1163 C1165 1.433 . S
C1164 C1160 1.350 1_545 S
C1164 C1161 1.463 . S
C1164 N1168 1.427 . S
C1165 H1155 0.929 . S
C1165 C1163 1.433 . S
C1165 N1168 1.384 . S
C1166 H1157 0.929 . S
C1166 C1158 1.378 . S
C1166 C1161 1.350 . S
C1167 H1154 0.929 . S
C1167 C1159 1.433 1_565 S
C1167 N1169 1.384 . S
N1168 C1164 1.427 . S
N1168 C1165 1.384 . S
N1169 C1161 1.427 1_565 S
N1169 C1167 1.384 . S
H1170 C1176 0.930 . S
H1171 C1180 0.930 . S
H1172 C1185 0.929 . S
H1173 C1183 0.929 . S
H1174 C1178 0.929 . S
H1175 C1184 0.929 . S
C1176 H1170 0.930 . S
C1176 C1177 1.385 . S
C1176 C1184 1.378 . S
C1177 C1176 1.385 . S
C1177 C1185 1.424 1_565 S
C1178 H1174 0.929 . S
C1178 C1180 1.378 . S
C1178 C1182 1.327 1_545 S
C1179 C1182 1.439 . S
C1179 C1184 1.350 . S
C1179 N1187 1.427 1_565 S
C1180 H1171 0.930 . S
C1180 C1178 1.378 . S
C1180 C1181 1.367 1_545 S
C1181 C1180 1.367 1_565 S
C1181 C1183 1.433 . S
C1182 C1178 1.327 1_565 S
C1182 C1179 1.439 . S
C1182 N1186 1.480 . S
C1183 H1173 0.929 . S
C1183 C1181 1.433 . S
C1183 N1186 1.384 . S
C1184 H1175 0.929 . S
C1184 C1176 1.378 . S
C1184 C1179 1.350 . S
C1185 H1172 0.929 . S
C1185 C1177 1.424 1_545 S
C1185 N1187 1.384 . S
N1186 C1182 1.480 . S
N1186 C1183 1.384 . S
N1187 C1179 1.427 1_545 S
N1187 C1185 1.384 . S
H1188 C1194 0.930 . S
H1189 C1198 0.930 . S
H1190 C1203 0.929 . S
H1191 C1201 0.929 . S
H1192 C1196 0.929 . S
H1193 C1202 0.929 . S
C1194 H1188 0.930 . S
C1194 C1195 1.367 . S
C1194 C1202 1.378 . S
C1195 C1194 1.367 . S
C1195 C1203 1.433 1_455 S
C1196 H1192 0.929 . S
C1196 C1198 1.378 . S
C1196 C1200 1.350 1_655 S
C1197 C1200 1.463 . S
C1197 C1202 1.350 . S
C1197 N1205 1.427 1_455 S
C1198 H1189 0.930 . S
C1198 C1196 1.378 . S
C1198 C1199 1.367 1_655 S
C1199 C1198 1.367 1_455 S
C1199 C1201 1.433 . S
C1200 C1196 1.350 1_455 S
C1200 C1197 1.463 . S
C1200 N1204 1.427 . S
C1201 H1191 0.929 . S
C1201 C1199 1.433 . S
C1201 N1204 1.384 . S
C1202 H1193 0.929 . S
C1202 C1194 1.378 . S
C1202 C1197 1.350 . S
C1203 H1190 0.929 . S
C1203 C1195 1.433 1_655 S
C1203 N1205 1.384 . S
N1204 C1200 1.427 . S
N1204 C1201 1.384 . S
N1205 C1197 1.427 1_655 S
N1205 C1203 1.384 . S
H1206 C1212 0.930 . S
H1207 C1216 0.930 . S
H1208 C1221 0.929 . S
H1209 C1219 0.929 . S
H1210 C1214 0.929 . S
H1211 C1220 0.929 . S
C1212 H1206 0.930 . S
C1212 C1213 1.367 . S
C1212 C1220 1.378 . S
C1213 C1212 1.367 . S
C1213 C1221 1.433 . S
C1214 H1210 0.929 . S
C1214 C1216 1.378 . S
C1214 C1218 1.350 . S
C1215 C1218 1.463 . S
C1215 C1220 1.350 . S
C1215 N1223 1.427 . S
C1216 H1207 0.930 . S
C1216 C1214 1.378 . S
C1216 C1217 1.367 . S
C1217 C1216 1.367 . S
C1217 C1219 1.433 . S
C1218 C1214 1.350 . S
C1218 C1215 1.463 . S
C1218 N1222 1.427 . S
C1219 H1209 0.929 . S
C1219 C1217 1.433 . S
C1219 N1222 1.384 . S
C1220 H1211 0.929 . S
C1220 C1212 1.378 . S
C1220 C1215 1.350 . S
C1221 H1208 0.929 . S
C1221 C1213 1.433 . S
C1221 N1223 1.384 . S
N1222 C1218 1.427 . S
N1222 C1219 1.384 . S
N1223 C1215 1.427 . S
N1223 C1221 1.384 . S
H1224 C1230 0.930 . S
H1225 C1234 0.930 . S
H1226 C1239 0.929 . S
H1227 C1237 0.929 . S
H1228 C1232 0.929 . S
H1229 C1238 0.929 . S
C1230 H1224 0.930 . S
C1230 C1231 1.367 . S
C1230 C1238 1.378 . S
C1231 C1230 1.367 . S
C1231 C1239 1.433 1_455 S
C1232 H1228 0.929 . S
C1232 C1234 1.378 . S
C1232 C1236 1.350 1_655 S
C1233 C1236 1.463 . S
C1233 C1238 1.350 . S
C1233 N1241 1.427 1_455 S
C1234 H1225 0.930 . S
C1234 C1232 1.378 . S
C1234 C1235 1.367 1_655 S
C1235 C1234 1.367 1_455 S
C1235 C1237 1.433 . S
C1236 C1232 1.350 1_455 S
C1236 C1233 1.463 . S
C1236 N1240 1.427 . S
C1237 H1227 0.929 . S
C1237 C1235 1.433 . S
C1237 N1240 1.384 . S
C1238 H1229 0.929 . S
C1238 C1230 1.378 . S
C1238 C1233 1.350 . S
C1239 H1226 0.929 . S
C1239 C1231 1.433 1_655 S
C1239 N1241 1.384 . S
N1240 C1236 1.427 . S
N1240 C1237 1.384 . S
N1241 C1233 1.427 1_655 S
N1241 C1239 1.384 . S
H1242 C1248 0.930 . S
H1243 C1252 0.930 . S
H1244 C1257 0.929 . S
H1245 C1255 0.929 . S
H1246 C1250 0.929 . S
H1247 C1256 0.929 . S
C1248 H1242 0.930 . S
C1248 C1249 1.367 . S
C1248 C1256 1.378 . S
C1249 C1248 1.367 . S
C1249 C1257 1.433 . S
C1250 H1246 0.929 . S
C1250 C1252 1.378 . S
C1250 C1254 1.350 . S
C1251 C1254 1.463 . S
C1251 C1256 1.350 . S
C1251 N1259 1.427 . S
C1252 H1243 0.930 . S
C1252 C1250 1.378 . S
C1252 C1253 1.367 . S
C1253 C1252 1.367 . S
C1253 C1255 1.433 . S
C1254 C1250 1.350 . S
C1254 C1251 1.463 . S
C1254 N1258 1.427 . S
C1255 H1245 0.929 . S
C1255 C1253 1.433 . S
C1255 N1258 1.384 . S
C1256 H1247 0.929 . S
C1256 C1248 1.378 . S
C1256 C1251 1.350 . S
C1257 H1244 0.929 . S
C1257 C1249 1.433 . S
C1257 N1259 1.384 . S
N1258 C1254 1.427 . S
N1258 C1255 1.384 . S
N1259 C1251 1.427 . S
N1259 C1257 1.384 . S
H1260 C1266 0.930 . S
H1261 C1270 0.930 . S
H1262 C1275 0.929 . S
H1263 C1273 0.929 . S
H1264 C1268 0.929 . S
H1265 C1274 0.929 . S
C1266 H1260 0.930 . S
C1266 C1267 1.367 1_545 S
C1266 C1274 1.378 . S
C1267 C1266 1.367 1_565 S
C1267 C1275 1.433 . S
C1268 H1264 0.929 . S
C1268 C1270 1.378 . S
C1268 C1272 1.350 . S
C1269 C1272 1.463 . S
C1269 C1274 1.350 1_565 S
C1269 N1277 1.427 . S
C1270 H1261 0.930 . S
C1270 C1268 1.378 . S
C1270 C1271 1.367 . S
C1271 C1270 1.367 . S
C1271 C1273 1.433 1_565 S
C1272 C1268 1.350 . S
C1272 C1269 1.463 . S
C1272 N1276 1.427 1_565 S
C1273 H1263 0.929 . S
C1273 C1271 1.433 1_545 S
C1273 N1276 1.384 . S
C1274 H1265 0.929 . S
C1274 C1266 1.378 . S
C1274 C1269 1.350 1_545 S
C1275 H1262 0.929 . S
C1275 C1267 1.433 . S
C1275 N1277 1.384 . S
N1276 C1272 1.427 1_545 S
N1276 C1273 1.384 . S
N1277 C1269 1.427 . S
N1277 C1275 1.384 . S
H1278 C1284 0.930 . S
H1279 C1288 0.930 . S
H1280 C1293 0.929 . S
H1281 C1291 0.929 . S
H1282 C1286 0.929 . S
H1283 C1292 0.929 . S
C1284 H1278 0.930 . S
C1284 C1285 1.367 1_565 S
C1284 C1292 1.378 . S
C1285 C1284 1.367 1_545 S
C1285 C1293 1.433 . S
C1286 H1282 0.929 . S
C1286 C1288 1.378 . S
C1286 C1290 1.350 . S
C1287 C1290 1.463 . S
C1287 C1292 1.350 1_545 S
C1287 N1295 1.427 . S
C1288 H1279 0.930 . S
C1288 C1286 1.378 . S
C1288 C1289 1.367 . S
C1289 C1288 1.367 . S
C1289 C1291 1.433 1_545 S
C1290 C1286 1.350 . S
C1290 C1287 1.463 . S
C1290 N1294 1.427 1_545 S
C1291 H1281 0.929 . S
C1291 C1289 1.433 1_565 S
C1291 N1294 1.384 . S
C1292 H1283 0.929 . S
C1292 C1284 1.378 . S
C1292 C1287 1.350 1_565 S
C1293 H1280 0.929 . S
C1293 C1285 1.433 . S
C1293 N1295 1.384 . S
N1294 C1290 1.427 1_565 S
N1294 C1291 1.384 . S
N1295 C1287 1.427 . S
N1295 C1293 1.384 . S
H1296 C1302 0.930 . S
H1297 C1306 0.949 . S
H1298 C1311 0.932 . S
H1299 C1309 0.929 . S
H1300 C1304 0.934 . S
H1301 C1310 0.929 . S
C1302 H1296 0.930 . S
C1302 C1303 1.367 . S
C1302 C1310 1.378 . S
C1303 C1302 1.367 . S
C1303 C1311 1.433 . S
C1304 H1300 0.934 . S
C1304 C1306 1.378 . S
C1304 C1308 1.350 . S
C1305 C1308 1.463 . S
C1305 C1310 1.350 . S
C1305 N1313 1.427 . S
C1306 H1297 0.949 . S
C1306 C1304 1.378 . S
C1306 C1307 1.367 . S
C1307 C1306 1.367 . S
C1307 C1309 1.433 . S
C1308 C1304 1.350 . S
C1308 C1305 1.463 . S
C1308 N1312 1.427 . S
C1309 H1299 0.929 . S
C1309 C1307 1.433 . S
C1309 N1312 1.384 . S
C1310 H1301 0.929 . S
C1310 C1302 1.378 . S
C1310 C1305 1.350 . S
C1311 H1298 0.932 . S
C1311 C1303 1.433 . S
C1311 N1313 1.384 . S
N1312 C1308 1.427 . S
N1312 C1309 1.384 . S
N1313 C1305 1.427 . S
N1313 C1311 1.384 . S
H1314 C1320 0.930 . S
H1315 C1324 0.930 . S
H1316 C1329 0.929 . S
H1317 C1327 0.929 . S
H1318 C1322 0.929 . S
H1319 C1328 0.929 . S
C1320 H1314 0.930 . S
C1320 C1321 1.367 . S
C1320 C1328 1.378 . S
C1321 C1320 1.367 . S
C1321 C1329 1.433 . S
C1322 H1318 0.929 . S
C1322 C1324 1.378 . S
C1322 C1326 1.350 . S
C1323 C1326 1.463 . S
C1323 C1328 1.350 . S
C1323 N1331 1.427 . S
C1324 H1315 0.930 . S
C1324 C1322 1.378 . S
C1324 C1325 1.367 . S
C1325 C1324 1.367 . S
C1325 C1327 1.433 . S
C1326 C1322 1.350 . S
C1326 C1323 1.463 . S
C1326 N1330 1.427 . S
C1327 H1317 0.929 . S
C1327 C1325 1.433 . S
C1327 N1330 1.384 . S
C1328 H1319 0.929 . S
C1328 C1320 1.378 . S
C1328 C1323 1.350 . S
C1329 H1316 0.929 . S
C1329 C1321 1.433 . S
C1329 N1331 1.384 . S
N1330 C1326 1.427 . S
N1330 C1327 1.384 . S
N1331 C1323 1.427 . S
N1331 C1329 1.384 . S
H1332 C1338 0.930 . S
H1333 C1342 0.930 . S
H1334 C1347 0.929 . S
H1335 C1345 0.929 . S
H1336 C1340 0.929 . S
H1337 C1346 0.929 . S
C1338 H1332 0.930 . S
C1338 C1339 1.367 . S
C1338 C1346 1.378 . S
C1339 C1338 1.367 . S
C1339 C1347 1.433 . S
C1340 H1336 0.929 . S
C1340 C1342 1.378 . S
C1340 C1344 1.350 . S
C1341 C1344 1.463 . S
C1341 C1346 1.350 . S
C1341 N1349 1.427 . S
C1342 H1333 0.930 . S
C1342 C1340 1.378 . S
C1342 C1343 1.367 . S
C1343 C1342 1.367 . S
C1343 C1345 1.433 . S
C1344 C1340 1.350 . S
C1344 C1341 1.463 . S
C1344 N1348 1.427 . S
C1345 H1335 0.929 . S
C1345 C1343 1.433 . S
C1345 N1348 1.384 . S
C1346 H1337 0.929 . S
C1346 C1338 1.378 . S
C1346 C1341 1.350 . S
C1347 H1334 0.929 . S
C1347 C1339 1.433 . S
C1347 N1349 1.384 . S
N1348 C1344 1.427 . S
N1348 C1345 1.384 . S
N1349 C1341 1.427 . S
N1349 C1347 1.384 . S
H1350 C1356 0.930 . S
H1351 C1360 0.930 . S
H1352 C1365 0.929 . S
H1353 C1363 0.929 . S
H1354 C1358 0.929 . S
H1355 C1364 0.929 . S
C1356 H1350 0.930 . S
C1356 C1357 1.367 . S
C1356 C1364 1.378 . S
C1357 C1356 1.367 . S
C1357 C1365 1.433 . S
C1358 H1354 0.929 . S
C1358 C1360 1.378 . S
C1358 C1362 1.350 . S
C1359 C1362 1.463 . S
C1359 C1364 1.350 . S
C1359 N1367 1.427 . S
C1360 H1351 0.930 . S
C1360 C1358 1.378 . S
C1360 C1361 1.367 . S
C1361 C1360 1.367 . S
C1361 C1363 1.433 . S
C1362 C1358 1.350 . S
C1362 C1359 1.463 . S
C1362 N1366 1.427 . S
C1363 H1353 0.929 . S
C1363 C1361 1.433 . S
C1363 N1366 1.384 . S
C1364 H1355 0.929 . S
C1364 C1356 1.378 . S
C1364 C1359 1.350 . S
C1365 H1352 0.929 . S
C1365 C1357 1.433 . S
C1365 N1367 1.384 . S
N1366 C1362 1.427 . S
N1366 C1363 1.384 . S
N1367 C1359 1.427 . S
N1367 C1365 1.384 . S
H1368 C1374 0.930 . S
H1369 C1378 0.930 . S
H1370 C1383 0.929 . S
H1371 C1381 0.929 . S
H1372 C1376 0.929 . S
H1373 C1382 0.929 . S
C1374 H1368 0.930 . S
C1374 C1375 1.367 . S
C1374 C1382 1.378 . S
C1375 C1374 1.367 . S
C1375 C1383 1.433 . S
C1376 H1372 0.929 . S
C1376 C1378 1.378 . S
C1376 C1380 1.350 . S
C1377 C1380 1.463 . S
C1377 C1382 1.350 . S
C1377 N1385 1.427 . S
C1378 H1369 0.930 . S
C1378 C1376 1.378 . S
C1378 C1379 1.367 . S
C1379 C1378 1.367 . S
C1379 C1381 1.433 . S
C1380 C1376 1.350 . S
C1380 C1377 1.463 . S
C1380 N1384 1.427 . S
C1381 H1371 0.929 . S
C1381 C1379 1.433 . S
C1381 N1384 1.384 . S
C1382 H1373 0.929 . S
C1382 C1374 1.378 . S
C1382 C1377 1.350 . S
C1383 H1370 0.929 . S
C1383 C1375 1.433 . S
C1383 N1385 1.384 . S
N1384 C1380 1.427 . S
N1384 C1381 1.384 . S
N1385 C1377 1.427 . S
N1385 C1383 1.384 . S
H1386 C1392 0.930 . S
H1387 C1396 0.930 . S
H1388 C1401 0.929 . S
H1389 C1399 0.929 . S
H1390 C1394 0.929 . S
H1391 C1400 0.929 . S
C1392 H1386 0.930 . S
C1392 C1393 1.367 . S
C1392 C1400 1.378 . S
C1393 C1392 1.367 . S
C1393 C1401 1.433 . S
C1394 H1390 0.929 . S
C1394 C1396 1.378 . S
C1394 C1398 1.350 . S
C1395 C1398 1.463 . S
C1395 C1400 1.350 . S
C1395 N1403 1.427 . S
C1396 H1387 0.930 . S
C1396 C1394 1.378 . S
C1396 C1397 1.367 . S
C1397 C1396 1.367 . S
C1397 C1399 1.433 . S
C1398 C1394 1.350 . S
C1398 C1395 1.463 . S
C1398 N1402 1.427 . S
C1399 H1389 0.929 . S
C1399 C1397 1.433 . S
C1399 N1402 1.384 . S
C1400 H1391 0.929 . S
C1400 C1392 1.378 . S
C1400 C1395 1.350 . S
C1401 H1388 0.929 . S
C1401 C1393 1.433 . S
C1401 N1403 1.384 . S
N1402 C1398 1.427 . S
N1402 C1399 1.384 . S
N1403 C1395 1.427 . S
N1403 C1401 1.384 . S
H1404 C1410 0.930 . S
H1405 C1414 0.930 . S
H1406 C1419 0.929 . S
H1407 C1417 0.929 . S
H1408 C1412 0.929 . S
H1409 C1418 0.929 . S
C1410 H1404 0.930 . S
C1410 C1411 1.367 . S
C1410 C1418 1.378 . S
C1411 C1410 1.367 . S
C1411 C1419 1.433 . S
C1412 H1408 0.929 . S
C1412 C1414 1.378 . S
C1412 C1416 1.350 . S
C1413 C1416 1.463 . S
C1413 C1418 1.350 . S
C1413 N1421 1.427 . S
C1414 H1405 0.930 . S
C1414 C1412 1.378 . S
C1414 C1415 1.367 . S
C1415 C1414 1.367 . S
C1415 C1417 1.433 . S
C1416 C1412 1.350 . S
C1416 C1413 1.463 . S
C1416 N1420 1.427 . S
C1417 H1407 0.929 . S
C1417 C1415 1.433 . S
C1417 N1420 1.384 . S
C1418 H1409 0.929 . S
C1418 C1410 1.378 . S
C1418 C1413 1.350 . S
C1419 H1406 0.929 . S
C1419 C1411 1.433 . S
C1419 N1421 1.384 . S
N1420 C1416 1.427 . S
N1420 C1417 1.384 . S
N1421 C1413 1.427 . S
N1421 C1419 1.384 . S
H1422 C1428 0.930 . S
H1423 C1432 0.930 . S
H1424 C1437 0.929 . S
H1425 C1435 0.929 . S
H1426 C1430 0.929 . S
H1427 C1436 0.929 . S
C1428 H1422 0.930 . S
C1428 C1429 1.367 . S
C1428 C1436 1.378 . S
C1429 C1428 1.367 . S
C1429 C1437 1.433 . S
C1430 H1426 0.929 . S
C1430 C1432 1.378 . S
C1430 C1434 1.350 . S
C1431 C1434 1.463 . S
C1431 C1436 1.350 . S
C1431 N1439 1.427 . S
C1432 H1423 0.930 . S
C1432 C1430 1.378 . S
C1432 C1433 1.367 . S
C1433 C1432 1.367 . S
C1433 C1435 1.433 . S
C1434 C1430 1.350 . S
C1434 C1431 1.463 . S
C1434 N1438 1.427 . S
C1435 H1425 0.929 . S
C1435 C1433 1.433 . S
C1435 N1438 1.384 . S
C1436 H1427 0.929 . S
C1436 C1428 1.378 . S
C1436 C1431 1.350 . S
C1437 H1424 0.929 . S
C1437 C1429 1.433 . S
C1437 N1439 1.384 . S
N1438 C1434 1.427 . S
N1438 C1435 1.384 . S
N1439 C1431 1.427 . S
N1439 C1437 1.384 . S
H1440 C1446 0.930 . S
H1441 C1450 0.930 . S
H1442 C1455 0.929 . S
H1443 C1453 0.929 . S
H1444 C1448 0.929 . S
H1445 C1454 0.929 . S
C1446 H1440 0.930 . S
C1446 C1447 1.367 . S
C1446 C1454 1.378 . S
C1447 C1446 1.367 . S
C1447 C1455 1.433 . S
C1448 H1444 0.929 . S
C1448 C1450 1.378 . S
C1448 C1452 1.350 . S
C1449 C1452 1.463 . S
C1449 C1454 1.350 . S
C1449 N1457 1.427 . S
C1450 H1441 0.930 . S
C1450 C1448 1.378 . S
C1450 C1451 1.367 . S
C1451 C1450 1.367 . S
C1451 C1453 1.433 . S
C1452 C1448 1.350 . S
C1452 C1449 1.463 . S
C1452 N1456 1.427 . S
C1453 H1443 0.929 . S
C1453 C1451 1.433 . S
C1453 N1456 1.384 . S
C1454 H1445 0.929 . S
C1454 C1446 1.378 . S
C1454 C1449 1.350 . S
C1455 H1442 0.929 . S
C1455 C1447 1.433 . S
C1455 N1457 1.384 . S
N1456 C1452 1.427 . S
N1456 C1453 1.384 . S
N1457 C1449 1.427 . S
N1457 C1455 1.384 . S
H1458 C1464 0.930 . S
H1459 C1468 0.930 . S
H1460 C1473 0.929 . S
H1461 C1471 0.929 . S
H1462 C1466 0.929 . S
H1463 C1472 0.929 . S
C1464 H1458 0.930 . S
C1464 C1465 1.367 . S
C1464 C1472 1.378 . S
C1465 C1464 1.367 . S
C1465 C1473 1.433 . S
C1466 H1462 0.929 . S
C1466 C1468 1.378 . S
C1466 C1470 1.350 . S
C1467 C1470 1.463 . S
C1467 C1472 1.350 . S
C1467 N1475 1.427 . S
C1468 H1459 0.930 . S
C1468 C1466 1.378 . S
C1468 C1469 1.367 . S
C1469 C1468 1.367 . S
C1469 C1471 1.433 . S
C1470 C1466 1.350 . S
C1470 C1467 1.463 . S
C1470 N1474 1.427 . S
C1471 H1461 0.929 . S
C1471 C1469 1.433 . S
C1471 N1474 1.384 . S
C1472 H1463 0.929 . S
C1472 C1464 1.378 . S
C1472 C1467 1.350 . S
C1473 H1460 0.929 . S
C1473 C1465 1.433 . S
C1473 N1475 1.384 . S
N1474 C1470 1.427 . S
N1474 C1471 1.384 . S
N1475 C1467 1.427 . S
N1475 C1473 1.384 . S
H1476 C1482 0.930 . S
H1477 C1486 0.930 . S
H1478 C1491 0.929 . S
H1479 C1489 0.929 . S
H1480 C1484 0.929 . S
H1481 C1490 0.929 . S
C1482 H1476 0.930 . S
C1482 C1483 1.367 . S
C1482 C1490 1.378 . S
C1483 C1482 1.367 . S
C1483 C1491 1.433 . S
C1484 H1480 0.929 . S
C1484 C1486 1.378 . S
C1484 C1488 1.350 . S
C1485 C1488 1.463 . S
C1485 C1490 1.350 . S
C1485 N1493 1.427 . S
C1486 H1477 0.930 . S
C1486 C1484 1.378 . S
C1486 C1487 1.367 . S
C1487 C1486 1.367 . S
C1487 C1489 1.433 . S
C1488 C1484 1.350 . S
C1488 C1485 1.463 . S
C1488 N1492 1.427 . S
C1489 H1479 0.929 . S
C1489 C1487 1.433 . S
C1489 N1492 1.384 . S
C1490 H1481 0.929 . S
C1490 C1482 1.378 . S
C1490 C1485 1.350 . S
C1491 H1478 0.929 . S
C1491 C1483 1.433 . S
C1491 N1493 1.384 . S
N1492 C1488 1.427 . S
N1492 C1489 1.384 . S
N1493 C1485 1.427 . S
N1493 C1491 1.384 . S
H1494 C1500 0.930 . S
H1495 C1504 0.930 . S
H1496 C1509 0.929 . S
H1497 C1507 0.929 . S
H1498 C1502 0.929 . S
H1499 C1508 0.929 . S
C1500 H1494 0.930 . S
C1500 C1501 1.367 . S
C1500 C1508 1.378 . S
C1501 C1500 1.367 . S
C1501 C1509 1.433 . S
C1502 H1498 0.929 . S
C1502 C1504 1.378 . S
C1502 C1506 1.350 . S
C1503 C1506 1.463 . S
C1503 C1508 1.350 . S
C1503 N1511 1.427 . S
C1504 H1495 0.930 . S
C1504 C1502 1.378 . S
C1504 C1505 1.367 . S
C1505 C1504 1.367 . S
C1505 C1507 1.433 . S
C1506 C1502 1.350 . S
C1506 C1503 1.463 . S
C1506 N1510 1.427 . S
C1507 H1497 0.929 . S
C1507 C1505 1.433 . S
C1507 N1510 1.384 . S
C1508 H1499 0.929 . S
C1508 C1500 1.378 . S
C1508 C1503 1.350 . S
C1509 H1496 0.929 . S
C1509 C1501 1.433 . S
C1509 N1511 1.384 . S
N1510 C1506 1.427 . S
N1510 C1507 1.384 . S
N1511 C1503 1.427 . S
N1511 C1509 1.384 . S
H1512 C1518 0.930 . S
H1513 C1522 0.930 . S
H1514 C1527 0.929 . S
H1515 C1525 0.929 . S
H1516 C1520 0.929 . S
H1517 C1526 0.929 . S
C1518 H1512 0.930 . S
C1518 C1519 1.367 . S
C1518 C1526 1.378 . S
C1519 C1518 1.367 . S
C1519 C1527 1.433 . S
C1520 H1516 0.929 . S
C1520 C1522 1.378 . S
C1520 C1524 1.350 . S
C1521 C1524 1.463 . S
C1521 C1526 1.350 . S
C1521 N1529 1.427 . S
C1522 H1513 0.930 . S
C1522 C1520 1.378 . S
C1522 C1523 1.367 . S
C1523 C1522 1.367 . S
C1523 C1525 1.433 . S
C1524 C1520 1.350 . S
C1524 C1521 1.463 . S
C1524 N1528 1.427 . S
C1525 H1515 0.929 . S
C1525 C1523 1.433 . S
C1525 N1528 1.384 . S
C1526 H1517 0.929 . S
C1526 C1518 1.378 . S
C1526 C1521 1.350 . S
C1527 H1514 0.929 . S
C1527 C1519 1.433 . S
C1527 N1529 1.384 . S
N1528 C1524 1.427 . S
N1528 C1525 1.384 . S
N1529 C1521 1.427 . S
N1529 C1527 1.384 . S
H1530 C1536 0.930 . S
H1531 C1540 0.930 . S
H1532 C1545 0.929 . S
H1533 C1543 0.929 . S
H1534 C1538 0.929 . S
H1535 C1544 0.929 . S
C1536 H1530 0.930 . S
C1536 C1537 1.367 . S
C1536 C1544 1.378 . S
C1537 C1536 1.367 . S
C1537 C1545 1.433 . S
C1538 H1534 0.929 . S
C1538 C1540 1.378 . S
C1538 C1542 1.350 . S
C1539 C1542 1.463 . S
C1539 C1544 1.350 . S
C1539 N1547 1.427 . S
C1540 H1531 0.930 . S
C1540 C1538 1.378 . S
C1540 C1541 1.367 . S
C1541 C1540 1.367 . S
C1541 C1543 1.433 . S
C1542 C1538 1.350 . S
C1542 C1539 1.463 . S
C1542 N1546 1.427 . S
C1543 H1533 0.929 . S
C1543 C1541 1.433 . S
C1543 N1546 1.384 . S
C1544 H1535 0.929 . S
C1544 C1536 1.378 . S
C1544 C1539 1.350 . S
C1545 H1532 0.929 . S
C1545 C1537 1.433 . S
C1545 N1547 1.384 . S
N1546 C1542 1.427 . S
N1546 C1543 1.384 . S
N1547 C1539 1.427 . S
N1547 C1545 1.384 . S
H1548 C1554 0.930 . S
H1549 C1558 0.930 . S
H1550 C1563 0.929 . S
H1551 C1561 0.929 . S
H1552 C1556 0.929 . S
H1553 C1562 0.929 . S
C1554 H1548 0.930 . S
C1554 C1555 1.367 . S
C1554 C1562 1.378 . S
C1555 C1554 1.367 . S
C1555 C1563 1.433 . S
C1556 H1552 0.929 . S
C1556 C1558 1.378 . S
C1556 C1560 1.350 . S
C1557 C1560 1.463 . S
C1557 C1562 1.350 . S
C1557 N1565 1.427 . S
C1558 H1549 0.930 . S
C1558 C1556 1.378 . S
C1558 C1559 1.367 . S
C1559 C1558 1.367 . S
C1559 C1561 1.433 . S
C1560 C1556 1.350 . S
C1560 C1557 1.463 . S
C1560 N1564 1.427 . S
C1561 H1551 0.929 . S
C1561 C1559 1.433 . S
C1561 N1564 1.384 . S
C1562 H1553 0.929 . S
C1562 C1554 1.378 . S
C1562 C1557 1.350 . S
C1563 H1550 0.929 . S
C1563 C1555 1.433 . S
C1563 N1565 1.384 . S
N1564 C1560 1.427 . S
N1564 C1561 1.384 . S
N1565 C1557 1.427 . S
N1565 C1563 1.384 . S
H1566 C1572 0.930 . S
H1567 C1576 0.930 . S
H1568 C1581 0.929 . S
H1569 C1579 0.929 . S
H1570 C1574 0.929 . S
H1571 C1580 0.929 . S
C1572 H1566 0.930 . S
C1572 C1573 1.367 . S
C1572 C1580 1.378 . S
C1573 C1572 1.367 . S
C1573 C1581 1.433 . S
C1574 H1570 0.929 . S
C1574 C1576 1.378 . S
C1574 C1578 1.350 . S
C1575 C1578 1.463 . S
C1575 C1580 1.350 . S
C1575 N1583 1.427 . S
C1576 H1567 0.930 . S
C1576 C1574 1.378 . S
C1576 C1577 1.367 . S
C1577 C1576 1.367 . S
C1577 C1579 1.433 . S
C1578 C1574 1.350 . S
C1578 C1575 1.463 . S
C1578 N1582 1.427 . S
C1579 H1569 0.929 . S
C1579 C1577 1.433 . S
C1579 N1582 1.384 . S
C1580 H1571 0.929 . S
C1580 C1572 1.378 . S
C1580 C1575 1.350 . S
C1581 H1568 0.929 . S
C1581 C1573 1.433 . S
C1581 N1583 1.384 . S
N1582 C1578 1.427 . S
N1582 C1579 1.384 . S
N1583 C1575 1.427 . S
N1583 C1581 1.384 . S
H1584 C1590 0.930 . S
H1585 C1594 0.930 . S
H1586 C1599 0.929 . S
H1587 C1597 0.929 . S
H1588 C1592 0.929 . S
H1589 C1598 0.929 . S
C1590 H1584 0.930 . S
C1590 C1591 1.367 . S
C1590 C1598 1.378 . S
C1591 C1590 1.367 . S
C1591 C1599 1.433 . S
C1592 H1588 0.929 . S
C1592 C1594 1.378 . S
C1592 C1596 1.350 . S
C1593 C1596 1.463 . S
C1593 C1598 1.350 . S
C1593 N1601 1.427 . S
C1594 H1585 0.930 . S
C1594 C1592 1.378 . S
C1594 C1595 1.367 . S
C1595 C1594 1.367 . S
C1595 C1597 1.433 . S
C1596 C1592 1.350 . S
C1596 C1593 1.463 . S
C1596 N1600 1.427 . S
C1597 H1587 0.929 . S
C1597 C1595 1.433 . S
C1597 N1600 1.384 . S
C1598 H1589 0.929 . S
C1598 C1590 1.378 . S
C1598 C1593 1.350 . S
C1599 H1586 0.929 . S
C1599 C1591 1.433 . S
C1599 N1601 1.384 . S
N1600 C1596 1.427 . S
N1600 C1597 1.384 . S
N1601 C1593 1.427 . S
N1601 C1599 1.384 . S
H1602 C1608 0.930 . S
H1603 C1612 0.930 . S
H1604 C1617 0.929 . S
H1605 C1615 0.929 . S
H1606 C1610 0.929 . S
H1607 C1616 0.929 . S
C1608 H1602 0.930 . S
C1608 C1609 1.367 . S
C1608 C1616 1.378 . S
C1609 C1608 1.367 . S
C1609 C1617 1.433 . S
C1610 H1606 0.929 . S
C1610 C1612 1.378 . S
C1610 C1614 1.350 . S
C1611 C1614 1.463 . S
C1611 C1616 1.350 . S
C1611 N1619 1.427 . S
C1612 H1603 0.930 . S
C1612 C1610 1.378 . S
C1612 C1613 1.367 . S
C1613 C1612 1.367 . S
C1613 C1615 1.433 . S
C1614 C1610 1.350 . S
C1614 C1611 1.463 . S
C1614 N1618 1.427 . S
C1615 H1605 0.929 . S
C1615 C1613 1.433 . S
C1615 N1618 1.384 . S
C1616 H1607 0.929 . S
C1616 C1608 1.378 . S
C1616 C1611 1.350 . S
C1617 H1604 0.929 . S
C1617 C1609 1.433 . S
C1617 N1619 1.384 . S
N1618 C1614 1.427 . S
N1618 C1615 1.384 . S
N1619 C1611 1.427 . S
N1619 C1617 1.384 . S
H1620 C1626 0.930 . S
H1621 C1630 0.930 . S
H1622 C1635 0.929 . S
H1623 C1633 0.929 . S
H1624 C1628 0.929 . S
H1625 C1634 0.929 . S
C1626 H1620 0.930 . S
C1626 C1627 1.367 . S
C1626 C1634 1.378 . S
C1627 C1626 1.367 . S
C1627 C1635 1.433 . S
C1628 H1624 0.929 . S
C1628 C1630 1.378 . S
C1628 C1632 1.350 . S
C1629 C1632 1.463 . S
C1629 C1634 1.350 . S
C1629 N1637 1.427 . S
C1630 H1621 0.930 . S
C1630 C1628 1.378 . S
C1630 C1631 1.367 . S
C1631 C1630 1.367 . S
C1631 C1633 1.433 . S
C1632 C1628 1.350 . S
C1632 C1629 1.463 . S
C1632 N1636 1.427 . S
C1633 H1623 0.929 . S
C1633 C1631 1.433 . S
C1633 N1636 1.384 . S
C1634 H1625 0.929 . S
C1634 C1626 1.378 . S
C1634 C1629 1.350 . S
C1635 H1622 0.929 . S
C1635 C1627 1.433 . S
C1635 N1637 1.384 . S
N1636 C1632 1.427 . S
N1636 C1633 1.384 . S
N1637 C1629 1.427 . S
N1637 C1635 1.384 . S
H1638 C1644 0.930 . S
H1639 C1648 0.930 . S
H1640 C1653 0.929 . S
H1641 C1651 0.929 . S
H1642 C1646 0.929 . S
H1643 C1652 0.929 . S
C1644 H1638 0.930 . S
C1644 C1645 1.367 . S
C1644 C1652 1.378 . S
C1645 C1644 1.367 . S
C1645 C1653 1.433 . S
C1646 H1642 0.929 . S
C1646 C1648 1.378 . S
C1646 C1650 1.350 . S
C1647 C1650 1.463 . S
C1647 C1652 1.350 . S
C1647 N1655 1.427 . S
C1648 H1639 0.930 . S
C1648 C1646 1.378 . S
C1648 C1649 1.367 . S
C1649 C1648 1.367 . S
C1649 C1651 1.433 . S
C1650 C1646 1.350 . S
C1650 C1647 1.463 . S
C1650 N1654 1.427 . S
C1651 H1641 0.929 . S
C1651 C1649 1.433 . S
C1651 N1654 1.384 . S
C1652 H1643 0.929 . S
C1652 C1644 1.378 . S
C1652 C1647 1.350 . S
C1653 H1640 0.929 . S
C1653 C1645 1.433 . S
C1653 N1655 1.384 . S
N1654 C1650 1.427 . S
N1654 C1651 1.384 . S
N1655 C1647 1.427 . S
N1655 C1653 1.384 . S
H1656 C1662 0.930 . S
H1657 C1666 0.930 . S
H1658 C1671 0.929 . S
H1659 C1669 0.929 . S
H1660 C1664 0.929 . S
H1661 C1670 0.929 . S
C1662 H1656 0.930 . S
C1662 C1663 1.367 . S
C1662 C1670 1.378 . S
C1663 C1662 1.367 . S
C1663 C1671 1.433 . S
C1664 H1660 0.929 . S
C1664 C1666 1.378 . S
C1664 C1668 1.350 . S
C1665 C1668 1.463 . S
C1665 C1670 1.350 . S
C1665 N1673 1.427 . S
C1666 H1657 0.930 . S
C1666 C1664 1.378 . S
C1666 C1667 1.367 . S
C1667 C1666 1.367 . S
C1667 C1669 1.433 . S
C1668 C1664 1.350 . S
C1668 C1665 1.463 . S
C1668 N1672 1.427 . S
C1669 H1659 0.929 . S
C1669 C1667 1.433 . S
C1669 N1672 1.384 . S
C1670 H1661 0.929 . S
C1670 C1662 1.378 . S
C1670 C1665 1.350 . S
C1671 H1658 0.929 . S
C1671 C1663 1.433 . S
C1671 N1673 1.384 . S
N1672 C1668 1.427 . S
N1672 C1669 1.384 . S
N1673 C1665 1.427 . S
N1673 C1671 1.384 . S
H1674 C1680 0.930 . S
H1675 C1684 0.930 . S
H1676 C1689 0.929 . S
H1677 C1687 0.929 . S
H1678 C1682 0.929 . S
H1679 C1688 0.929 . S
C1680 H1674 0.930 . S
C1680 C1681 1.367 . S
C1680 C1688 1.378 . S
C1681 C1680 1.367 . S
C1681 C1689 1.433 . S
C1682 H1678 0.929 . S
C1682 C1684 1.378 . S
C1682 C1686 1.350 . S
C1683 C1686 1.463 . S
C1683 C1688 1.350 . S
C1683 N1691 1.427 . S
C1684 H1675 0.930 . S
C1684 C1682 1.378 . S
C1684 C1685 1.367 . S
C1685 C1684 1.367 . S
C1685 C1687 1.433 . S
C1686 C1682 1.350 . S
C1686 C1683 1.463 . S
C1686 N1690 1.427 . S
C1687 H1677 0.929 . S
C1687 C1685 1.433 . S
C1687 N1690 1.384 . S
C1688 H1679 0.929 . S
C1688 C1680 1.378 . S
C1688 C1683 1.350 . S
C1689 H1676 0.929 . S
C1689 C1681 1.433 . S
C1689 N1691 1.384 . S
N1690 C1686 1.427 . S
N1690 C1687 1.384 . S
N1691 C1683 1.427 . S
N1691 C1689 1.384 . S
H1692 C1698 0.930 . S
H1693 C1702 0.930 . S
H1694 C1707 0.929 . S
H1695 C1705 0.929 . S
H1696 C1700 0.929 . S
H1697 C1706 0.929 . S
C1698 H1692 0.930 . S
C1698 C1699 1.367 . S
C1698 C1706 1.378 . S
C1699 C1698 1.367 . S
C1699 C1707 1.433 . S
C1700 H1696 0.929 . S
C1700 C1702 1.378 . S
C1700 C1704 1.350 . S
C1701 C1704 1.463 . S
C1701 C1706 1.350 . S
C1701 N1709 1.427 . S
C1702 H1693 0.930 . S
C1702 C1700 1.378 . S
C1702 C1703 1.367 . S
C1703 C1702 1.367 . S
C1703 C1705 1.433 . S
C1704 C1700 1.350 . S
C1704 C1701 1.463 . S
C1704 N1708 1.427 . S
C1705 H1695 0.929 . S
C1705 C1703 1.433 . S
C1705 N1708 1.384 . S
C1706 H1697 0.929 . S
C1706 C1698 1.378 . S
C1706 C1701 1.350 . S
C1707 H1694 0.929 . S
C1707 C1699 1.433 . S
C1707 N1709 1.384 . S
N1708 C1704 1.427 . S
N1708 C1705 1.384 . S
N1709 C1701 1.427 . S
N1709 C1707 1.384 . S
H1710 C1716 0.930 . S
H1711 C1720 0.930 . S
H1712 C1725 0.929 . S
H1713 C1723 0.929 . S
H1714 C1718 0.929 . S
H1715 C1724 0.929 . S
C1716 H1710 0.930 . S
C1716 C1717 1.367 . S
C1716 C1724 1.378 . S
C1717 C1716 1.367 . S
C1717 C1725 1.433 . S
C1718 H1714 0.929 . S
C1718 C1720 1.378 . S
C1718 C1722 1.350 . S
C1719 C1722 1.463 . S
C1719 C1724 1.350 . S
C1719 N1727 1.427 . S
C1720 H1711 0.930 . S
C1720 C1718 1.378 . S
C1720 C1721 1.367 . S
C1721 C1720 1.367 . S
C1721 C1723 1.433 . S
C1722 C1718 1.350 . S
C1722 C1719 1.463 . S
C1722 N1726 1.427 . S
C1723 H1713 0.929 . S
C1723 C1721 1.433 . S
C1723 N1726 1.384 . S
C1724 H1715 0.929 . S
C1724 C1716 1.378 . S
C1724 C1719 1.350 . S
C1725 H1712 0.929 . S
C1725 C1717 1.433 . S
C1725 N1727 1.384 . S
N1726 C1722 1.427 . S
N1726 C1723 1.384 . S
N1727 C1719 1.427 . S
N1727 C1725 1.384 . S
H1728 C1734 0.930 . S
H1729 C1738 0.930 . S
H1730 C1743 0.929 . S
H1731 C1741 0.929 . S
H1732 C1736 0.929 . S
H1733 C1742 0.929 . S
C1734 H1728 0.930 . S
C1734 C1735 1.367 . S
C1734 C1742 1.378 . S
C1735 C1734 1.367 . S
C1735 C1743 1.433 . S
C1736 H1732 0.929 . S
C1736 C1738 1.378 . S
C1736 C1740 1.350 . S
C1737 C1740 1.463 . S
C1737 C1742 1.350 . S
C1737 N1745 1.427 . S
C1738 H1729 0.930 . S
C1738 C1736 1.378 . S
C1738 C1739 1.367 . S
C1739 C1738 1.367 . S
C1739 C1741 1.433 . S
C1740 C1736 1.350 . S
C1740 C1737 1.463 . S
C1740 N1744 1.427 . S
C1741 H1731 0.929 . S
C1741 C1739 1.433 . S
C1741 N1744 1.384 . S
C1742 H1733 0.929 . S
C1742 C1734 1.378 . S
C1742 C1737 1.350 . S
C1743 H1730 0.929 . S
C1743 C1735 1.433 . S
C1743 N1745 1.384 . S
N1744 C1740 1.427 . S
N1744 C1741 1.384 . S
N1745 C1737 1.427 . S
N1745 C1743 1.384 . S
H1746 C1752 0.930 . S
H1747 C1756 0.930 . S
H1748 C1761 0.929 . S
H1749 C1759 0.929 . S
H1750 C1754 0.929 . S
H1751 C1760 0.929 . S
C1752 H1746 0.930 . S
C1752 C1753 1.367 . S
C1752 C1760 1.378 . S
C1753 C1752 1.367 . S
C1753 C1761 1.433 . S
C1754 H1750 0.929 . S
C1754 C1756 1.378 . S
C1754 C1758 1.350 . S
C1755 C1758 1.463 . S
C1755 C1760 1.350 . S
C1755 N1763 1.427 . S
C1756 H1747 0.930 . S
C1756 C1754 1.378 . S
C1756 C1757 1.367 . S
C1757 C1756 1.367 . S
C1757 C1759 1.433 . S
C1758 C1754 1.350 . S
C1758 C1755 1.463 . S
C1758 N1762 1.427 . S
C1759 H1749 0.929 . S
C1759 C1757 1.433 . S
C1759 N1762 1.384 . S
C1760 H1751 0.929 . S
C1760 C1752 1.378 . S
C1760 C1755 1.350 . S
C1761 H1748 0.929 . S
C1761 C1753 1.433 . S
C1761 N1763 1.384 . S
N1762 C1758 1.427 . S
N1762 C1759 1.384 . S
N1763 C1755 1.427 . S
N1763 C1761 1.384 . S
H1764 C1770 0.930 . S
H1765 C1774 0.930 . S
H1766 C1779 0.929 . S
H1767 C1777 0.929 . S
H1768 C1772 0.929 . S
H1769 C1778 0.929 . S
C1770 H1764 0.930 . S
C1770 C1771 1.367 . S
C1770 C1778 1.378 . S
C1771 C1770 1.367 . S
C1771 C1779 1.433 . S
C1772 H1768 0.929 . S
C1772 C1774 1.378 . S
C1772 C1776 1.350 . S
C1773 C1776 1.463 . S
C1773 C1778 1.350 . S
C1773 N1781 1.427 . S
C1774 H1765 0.930 . S
C1774 C1772 1.378 . S
C1774 C1775 1.367 . S
C1775 C1774 1.367 . S
C1775 C1777 1.433 . S
C1776 C1772 1.350 . S
C1776 C1773 1.463 . S
C1776 N1780 1.427 . S
C1777 H1767 0.929 . S
C1777 C1775 1.433 . S
C1777 N1780 1.384 . S
C1778 H1769 0.929 . S
C1778 C1770 1.378 . S
C1778 C1773 1.350 . S
C1779 H1766 0.929 . S
C1779 C1771 1.433 . S
C1779 N1781 1.384 . S
N1780 C1776 1.427 . S
N1780 C1777 1.384 . S
N1781 C1773 1.427 . S
N1781 C1779 1.384 . S
H1782 C1788 0.930 . S
H1783 C1792 0.930 . S
H1784 C1797 0.929 . S
H1785 C1795 0.929 . S
H1786 C1790 0.929 . S
H1787 C1796 0.929 . S
C1788 H1782 0.930 . S
C1788 C1789 1.367 . S
C1788 C1796 1.378 . S
C1789 C1788 1.367 . S
C1789 C1797 1.433 . S
C1790 H1786 0.929 . S
C1790 C1792 1.378 . S
C1790 C1794 1.350 . S
C1791 C1794 1.463 . S
C1791 C1796 1.350 . S
C1791 N1799 1.427 . S
C1792 H1783 0.930 . S
C1792 C1790 1.378 . S
C1792 C1793 1.367 . S
C1793 C1792 1.367 . S
C1793 C1795 1.433 . S
C1794 C1790 1.350 . S
C1794 C1791 1.463 . S
C1794 N1798 1.427 . S
C1795 H1785 0.929 . S
C1795 C1793 1.433 . S
C1795 N1798 1.384 . S
C1796 H1787 0.929 . S
C1796 C1788 1.378 . S
C1796 C1791 1.350 . S
C1797 H1784 0.929 . S
C1797 C1789 1.433 . S
C1797 N1799 1.384 . S
N1798 C1794 1.427 . S
N1798 C1795 1.384 . S
N1799 C1791 1.427 . S
N1799 C1797 1.384 . S
H1800 C1806 0.930 . S
H1801 C1810 0.930 . S
H1802 C1815 0.929 . S
H1803 C1813 0.929 . S
H1804 C1808 0.929 . S
H1805 C1814 0.929 . S
C1806 H1800 0.930 . S
C1806 C1807 1.367 . S
C1806 C1814 1.378 . S
C1807 C1806 1.367 . S
C1807 C1815 1.433 . S
C1808 H1804 0.929 . S
C1808 C1810 1.378 . S
C1808 C1812 1.350 . S
C1809 C1812 1.463 . S
C1809 C1814 1.350 . S
C1809 N1817 1.427 . S
C1810 H1801 0.930 . S
C1810 C1808 1.378 . S
C1810 C1811 1.367 . S
C1811 C1810 1.367 . S
C1811 C1813 1.433 . S
C1812 C1808 1.350 . S
C1812 C1809 1.463 . S
C1812 N1816 1.427 . S
C1813 H1803 0.929 . S
C1813 C1811 1.433 . S
C1813 N1816 1.384 . S
C1814 H1805 0.929 . S
C1814 C1806 1.378 . S
C1814 C1809 1.350 . S
C1815 H1802 0.929 . S
C1815 C1807 1.433 . S
C1815 N1817 1.384 . S
N1816 C1812 1.427 . S
N1816 C1813 1.384 . S
N1817 C1809 1.427 . S
N1817 C1815 1.384 . S
H1818 C1824 0.930 1_554 S
H1819 C1828 0.930 . S
H1820 C1833 0.929 . S
H1821 C1831 0.929 . S
H1822 C1826 0.929 . S
H1823 C1832 0.929 . S
C1824 H1818 0.930 1_556 S
C1824 C1825 1.367 . S
C1824 C1832 1.378 . S
C1825 C1824 1.367 . S
C1825 C1833 1.433 . S
C1826 H1822 0.929 . S
C1826 C1828 1.378 . S
C1826 C1830 1.350 . S
C1827 C1830 1.463 . S
C1827 C1832 1.350 . S
C1827 N1835 1.427 . S
C1828 H1819 0.930 . S
C1828 C1826 1.378 . S
C1828 C1829 1.367 . S
C1829 C1828 1.367 . S
C1829 C1831 1.433 . S
C1830 C1826 1.350 . S
C1830 C1827 1.463 . S
C1830 N1834 1.427 . S
C1831 H1821 0.929 . S
C1831 C1829 1.433 . S
C1831 N1834 1.384 . S
C1832 H1823 0.929 . S
C1832 C1824 1.378 . S
C1832 C1827 1.350 . S
C1833 H1820 0.929 . S
C1833 C1825 1.433 . S
C1833 N1835 1.384 . S
N1834 C1830 1.427 . S
N1834 C1831 1.384 . S
N1835 C1827 1.427 . S
N1835 C1833 1.384 . S
H1836 C1842 0.930 . S
H1837 C1846 0.930 . S
H1838 C1851 0.929 . S
H1839 C1849 0.929 . S
H1840 C1844 0.929 . S
H1841 C1850 0.929 . S
C1842 H1836 0.930 . S
C1842 C1843 1.367 . S
C1842 C1850 1.378 . S
C1843 C1842 1.367 . S
C1843 C1851 1.433 . S
C1844 H1840 0.929 . S
C1844 C1846 1.378 . S
C1844 C1848 1.350 . S
C1845 C1848 1.463 . S
C1845 C1850 1.350 . S
C1845 N1853 1.427 . S
C1846 H1837 0.930 . S
C1846 C1844 1.378 . S
C1846 C1847 1.367 . S
C1847 C1846 1.367 . S
C1847 C1849 1.433 . S
C1848 C1844 1.350 . S
C1848 C1845 1.463 . S
C1848 N1852 1.427 . S
C1849 H1839 0.929 . S
C1849 C1847 1.433 . S
C1849 N1852 1.384 . S
C1850 H1841 0.929 . S
C1850 C1842 1.378 . S
C1850 C1845 1.350 . S
C1851 H1838 0.929 . S
C1851 C1843 1.433 . S
C1851 N1853 1.384 . S
N1852 C1848 1.427 . S
N1852 C1849 1.384 . S
N1853 C1845 1.427 . S
N1853 C1851 1.384 . S
H1854 C1860 0.930 . S
H1855 C1864 0.930 . S
H1856 C1869 0.929 . S
H1857 C1867 0.929 . S
H1858 C1862 0.929 . S
H1859 C1868 0.929 . S
C1860 H1854 0.930 . S
C1860 C1861 1.367 . S
C1860 C1868 1.378 . S
C1861 C1860 1.367 . S
C1861 C1869 1.433 . S
C1862 H1858 0.929 . S
C1862 C1864 1.378 . S
C1862 C1866 1.350 . S
C1863 C1866 1.463 . S
C1863 C1868 1.350 . S
C1863 N1871 1.427 . S
C1864 H1855 0.930 . S
C1864 C1862 1.378 . S
C1864 C1865 1.367 . S
C1865 C1864 1.367 . S
C1865 C1867 1.433 . S
C1866 C1862 1.350 . S
C1866 C1863 1.463 . S
C1866 N1870 1.427 . S
C1867 H1857 0.929 . S
C1867 C1865 1.433 . S
C1867 N1870 1.384 . S
C1868 H1859 0.929 . S
C1868 C1860 1.378 . S
C1868 C1863 1.350 . S
C1869 H1856 0.929 . S
C1869 C1861 1.433 . S
C1869 N1871 1.384 . S
N1870 C1866 1.427 . S
N1870 C1867 1.384 . S
N1871 C1863 1.427 . S
N1871 C1869 1.384 . S
H1872 C1878 0.930 . S
H1873 C1882 0.930 . S
H1874 C1887 0.929 . S
H1875 C1885 0.929 . S
H1876 C1880 0.929 . S
H1877 C1886 0.929 . S
C1878 H1872 0.930 . S
C1878 C1879 1.367 . S
C1878 C1886 1.378 . S
C1879 C1878 1.367 . S
C1879 C1887 1.433 . S
C1880 H1876 0.929 . S
C1880 C1882 1.378 . S
C1880 C1884 1.350 . S
C1881 C1884 1.463 . S
C1881 C1886 1.350 . S
C1881 N1889 1.427 . S
C1882 H1873 0.930 . S
C1882 C1880 1.378 . S
C1882 C1883 1.367 . S
C1883 C1882 1.367 . S
C1883 C1885 1.433 . S
C1884 C1880 1.350 . S
C1884 C1881 1.463 . S
C1884 N1888 1.427 . S
C1885 H1875 0.929 . S
C1885 C1883 1.433 . S
C1885 N1888 1.384 . S
C1886 H1877 0.929 . S
C1886 C1878 1.378 . S
C1886 C1881 1.350 . S
C1887 H1874 0.929 . S
C1887 C1879 1.433 . S
C1887 N1889 1.384 . S
N1888 C1884 1.427 . S
N1888 C1885 1.384 . S
N1889 C1881 1.427 . S
N1889 C1887 1.384 . S
H1890 C1896 0.930 . S
H1891 C1900 0.930 . S
H1892 C1905 0.929 . S
H1893 C1903 0.929 . S
H1894 C1898 0.929 . S
H1895 C1904 0.929 . S
C1896 H1890 0.930 . S
C1896 C1897 1.367 . S
C1896 C1904 1.378 . S
C1897 C1896 1.367 . S
C1897 C1905 1.433 . S
C1898 H1894 0.929 . S
C1898 C1900 1.378 . S
C1898 C1902 1.350 . S
C1899 C1902 1.463 . S
C1899 C1904 1.350 . S
C1899 N1907 1.427 . S
C1900 H1891 0.930 . S
C1900 C1898 1.378 . S
C1900 C1901 1.367 . S
C1901 C1900 1.367 . S
C1901 C1903 1.433 . S
C1902 C1898 1.350 . S
C1902 C1899 1.463 . S
C1902 N1906 1.427 . S
C1903 H1893 0.929 . S
C1903 C1901 1.433 . S
C1903 N1906 1.384 . S
C1904 H1895 0.929 . S
C1904 C1896 1.378 . S
C1904 C1899 1.350 . S
C1905 H1892 0.929 . S
C1905 C1897 1.433 . S
C1905 N1907 1.384 . S
N1906 C1902 1.427 . S
N1906 C1903 1.384 . S
N1907 C1899 1.427 . S
N1907 C1905 1.384 . S
H1908 C1914 0.930 . S
H1909 C1918 0.930 . S
H1910 C1923 0.929 1_554 S
H1911 C1921 0.929 . S
H1912 C1916 0.929 . S
H1913 C1922 0.929 . S
C1914 H1908 0.930 . S
C1914 C1915 1.367 . S
C1914 C1922 1.378 . S
C1915 C1914 1.367 . S
C1915 C1923 1.433 . S
C1916 H1912 0.929 . S
C1916 C1918 1.378 . S
C1916 C1920 1.350 . S
C1917 C1920 1.463 . S
C1917 C1922 1.350 . S
C1917 N1925 1.427 . S
C1918 H1909 0.930 . S
C1918 C1916 1.378 . S
C1918 C1919 1.367 . S
C1919 C1918 1.367 . S
C1919 C1921 1.433 . S
C1920 C1916 1.350 . S
C1920 C1917 1.463 . S
C1920 N1924 1.427 . S
C1921 H1911 0.929 . S
C1921 C1919 1.433 . S
C1921 N1924 1.384 . S
C1922 H1913 0.929 . S
C1922 C1914 1.378 . S
C1922 C1917 1.350 . S
C1923 H1910 0.929 1_556 S
C1923 C1915 1.433 . S
C1923 N1925 1.384 . S
N1924 C1920 1.427 . S
N1924 C1921 1.384 . S
N1925 C1917 1.427 . S
N1925 C1923 1.384 . S
H1926 C1932 0.930 . S
H1927 C1936 0.930 . S
H1928 C1941 0.929 . S
H1929 C1939 0.929 . S
H1930 C1934 0.929 . S
H1931 C1940 0.929 . S
C1932 H1926 0.930 . S
C1932 C1933 1.367 . S
C1932 C1940 1.378 . S
C1933 C1932 1.367 . S
C1933 C1941 1.433 . S
C1934 H1930 0.929 . S
C1934 C1936 1.378 . S
C1934 C1938 1.350 . S
C1935 C1938 1.463 . S
C1935 C1940 1.350 . S
C1935 N1943 1.427 . S
C1936 H1927 0.930 . S
C1936 C1934 1.378 . S
C1936 C1937 1.367 . S
C1937 C1936 1.367 . S
C1937 C1939 1.433 . S
C1938 C1934 1.350 . S
C1938 C1935 1.463 . S
C1938 N1942 1.427 . S
C1939 H1929 0.929 . S
C1939 C1937 1.433 . S
C1939 N1942 1.384 . S
C1940 H1931 0.929 . S
C1940 C1932 1.378 . S
C1940 C1935 1.350 . S
C1941 H1928 0.929 . S
C1941 C1933 1.433 . S
C1941 N1943 1.384 . S
N1942 C1938 1.427 . S
N1942 C1939 1.384 . S
N1943 C1935 1.427 . S
N1943 C1941 1.384 . S
H1944 C1950 0.930 . S
H1945 C1954 0.930 . S
H1946 C1959 0.929 . S
H1947 C1957 0.929 . S
H1948 C1952 0.929 . S
H1949 C1958 0.929 . S
C1950 H1944 0.930 . S
C1950 C1951 1.367 . S
C1950 C1958 1.378 . S
C1951 C1950 1.367 . S
C1951 C1959 1.433 . S
C1952 H1948 0.929 . S
C1952 C1954 1.378 . S
C1952 C1956 1.350 . S
C1953 C1956 1.463 . S
C1953 C1958 1.350 . S
C1953 N1961 1.427 . S
C1954 H1945 0.930 . S
C1954 C1952 1.378 . S
C1954 C1955 1.367 . S
C1955 C1954 1.367 . S
C1955 C1957 1.433 . S
C1956 C1952 1.350 . S
C1956 C1953 1.463 . S
C1956 N1960 1.427 . S
C1957 H1947 0.929 . S
C1957 C1955 1.433 . S
C1957 N1960 1.384 . S
C1958 H1949 0.929 . S
C1958 C1950 1.378 . S
C1958 C1953 1.350 . S
C1959 H1946 0.929 . S
C1959 C1951 1.433 . S
C1959 N1961 1.384 . S
N1960 C1956 1.427 . S
N1960 C1957 1.384 . S
N1961 C1953 1.427 . S
N1961 C1959 1.384 . S
H1962 C1968 0.930 . S
H1963 C1972 0.930 . S
H1964 C1977 0.929 . S
H1965 C1975 0.929 . S
H1966 C1970 0.929 . S
H1967 C1976 0.929 . S
C1968 H1962 0.930 . S
C1968 C1969 1.367 . S
C1968 C1976 1.378 . S
C1969 C1968 1.367 . S
C1969 C1977 1.433 . S
C1970 H1966 0.929 . S
C1970 C1972 1.378 . S
C1970 C1974 1.350 . S
C1971 C1974 1.463 . S
C1971 C1976 1.350 . S
C1971 N1979 1.427 . S
C1972 H1963 0.930 . S
C1972 C1970 1.378 . S
C1972 C1973 1.367 . S
C1973 C1972 1.367 . S
C1973 C1975 1.433 . S
C1974 C1970 1.350 . S
C1974 C1971 1.463 . S
C1974 N1978 1.427 . S
C1975 H1965 0.929 . S
C1975 C1973 1.433 . S
C1975 N1978 1.384 . S
C1976 H1967 0.929 . S
C1976 C1968 1.378 . S
C1976 C1971 1.350 . S
C1977 H1964 0.929 . S
C1977 C1969 1.433 . S
C1977 N1979 1.384 . S
N1978 C1974 1.427 . S
N1978 C1975 1.384 . S
N1979 C1971 1.427 . S
N1979 C1977 1.384 . S
H1980 C1986 0.930 . S
H1981 C1990 0.930 . S
H1982 C1995 0.929 . S
H1983 C1993 0.929 . S
H1984 C1988 0.929 . S
H1985 C1994 0.929 . S
C1986 H1980 0.930 . S
C1986 C1987 1.367 . S
C1986 C1994 1.378 . S
C1987 C1986 1.367 . S
C1987 C1995 1.433 . S
C1988 H1984 0.929 . S
C1988 C1990 1.378 . S
C1988 C1992 1.350 . S
C1989 C1992 1.463 . S
C1989 C1994 1.350 . S
C1989 N1997 1.427 . S
C1990 H1981 0.930 . S
C1990 C1988 1.378 . S
C1990 C1991 1.367 . S
C1991 C1990 1.367 . S
C1991 C1993 1.433 . S
C1992 C1988 1.350 . S
C1992 C1989 1.463 . S
C1992 N1996 1.427 . S
C1993 H1983 0.929 . S
C1993 C1991 1.433 . S
C1993 N1996 1.384 . S
C1994 H1985 0.929 . S
C1994 C1986 1.378 . S
C1994 C1989 1.350 . S
C1995 H1982 0.929 . S
C1995 C1987 1.433 . S
C1995 N1997 1.384 . S
N1996 C1992 1.427 . S
N1996 C1993 1.384 . S
N1997 C1989 1.427 . S
N1997 C1995 1.384 . S
H1998 C2004 0.930 . S
H1999 C2008 0.930 . S
H2000 C2013 0.929 . S
H2001 C2011 0.929 . S
H2002 C2006 0.929 . S
H2003 C2012 0.929 . S
C2004 H1998 0.930 . S
C2004 C2005 1.367 . S
C2004 C2012 1.378 . S
C2005 C2004 1.367 . S
C2005 C2013 1.433 . S
C2006 H2002 0.929 . S
C2006 C2008 1.378 . S
C2006 C2010 1.350 . S
C2007 C2010 1.463 . S
C2007 C2012 1.350 . S
C2007 N2015 1.427 . S
C2008 H1999 0.930 . S
C2008 C2006 1.378 . S
C2008 C2009 1.367 . S
C2009 C2008 1.367 . S
C2009 C2011 1.433 . S
C2010 C2006 1.350 . S
C2010 C2007 1.463 . S
C2010 N2014 1.427 . S
C2011 H2001 0.929 . S
C2011 C2009 1.433 . S
C2011 N2014 1.384 . S
C2012 H2003 0.929 . S
C2012 C2004 1.378 . S
C2012 C2007 1.350 . S
C2013 H2000 0.929 . S
C2013 C2005 1.433 . S
C2013 N2015 1.384 . S
N2014 C2010 1.427 . S
N2014 C2011 1.384 . S
N2015 C2007 1.427 . S
N2015 C2013 1.384 . S
H2016 C2022 0.930 . S
H2017 C2026 0.930 . S
H2018 C2031 0.929 . S
H2019 C2029 0.929 . S
H2020 C2024 0.929 . S
H2021 C2030 0.929 . S
C2022 H2016 0.930 . S
C2022 C2023 1.367 . S
C2022 C2030 1.378 . S
C2023 C2022 1.367 . S
C2023 C2031 1.433 . S
C2024 H2020 0.929 . S
C2024 C2026 1.378 . S
C2024 C2028 1.350 . S
C2025 C2028 1.463 . S
C2025 C2030 1.350 . S
C2025 N2033 1.427 . S
C2026 H2017 0.930 . S
C2026 C2024 1.378 . S
C2026 C2027 1.367 . S
C2027 C2026 1.367 . S
C2027 C2029 1.433 . S
C2028 C2024 1.350 . S
C2028 C2025 1.463 . S
C2028 N2032 1.427 . S
C2029 H2019 0.929 . S
C2029 C2027 1.433 . S
C2029 N2032 1.384 . S
C2030 H2021 0.929 . S
C2030 C2022 1.378 . S
C2030 C2025 1.350 . S
C2031 H2018 0.929 . S
C2031 C2023 1.433 . S
C2031 N2033 1.384 . S
N2032 C2028 1.427 . S
N2032 C2029 1.384 . S
N2033 C2025 1.427 . S
N2033 C2031 1.384 . S
H2034 C2040 0.930 . S
H2035 C2044 0.930 . S
H2036 C2049 0.929 . S
H2037 C2047 0.930 . S
H2038 C2042 0.929 . S
H2039 C2048 0.933 . S
C2040 H2034 0.930 . S
C2040 C2041 1.367 . S
C2040 C2048 1.378 . S
C2041 C2040 1.367 . S
C2041 C2049 1.433 . S
C2042 H2038 0.929 . S
C2042 C2044 1.378 . S
C2042 C2046 1.350 . S
C2043 C2046 1.463 . S
C2043 C2048 1.350 . S
C2043 N2051 1.427 . S
C2044 H2035 0.930 . S
C2044 C2042 1.378 . S
C2044 C2045 1.367 . S
C2045 C2044 1.367 . S
C2045 C2047 1.434 1_455 S
C2046 C2042 1.350 . S
C2046 C2043 1.463 . S
C2046 N2050 1.427 . S
C2047 H2037 0.930 . S
C2047 C2045 1.434 1_655 S
C2047 N2050 1.382 1_655 S
C2048 H2039 0.933 . S
C2048 C2040 1.378 . S
C2048 C2043 1.350 . S
C2049 H2036 0.929 . S
C2049 C2041 1.433 . S
C2049 N2051 1.384 . S
N2050 C2046 1.427 . S
N2050 C2047 1.382 1_455 S
N2051 C2043 1.427 . S
N2051 C2049 1.384 . S
H2052 C2058 0.930 . S
H2053 C2062 0.930 . S
H2054 C2067 0.929 . S
H2055 C2065 0.929 . S
H2056 C2060 0.929 . S
H2057 C2066 0.929 . S
C2058 H2052 0.930 . S
C2058 C2059 1.367 . S
C2058 C2066 1.378 . S
C2059 C2058 1.367 . S
C2059 C2067 1.433 . S
C2060 H2056 0.929 . S
C2060 C2062 1.378 . S
C2060 C2064 1.350 . S
C2061 C2064 1.463 . S
C2061 C2066 1.350 . S
C2061 N2069 1.427 . S
C2062 H2053 0.930 . S
C2062 C2060 1.378 . S
C2062 C2063 1.367 . S
C2063 C2062 1.367 . S
C2063 C2065 1.433 . S
C2064 C2060 1.350 . S
C2064 C2061 1.463 . S
C2064 N2068 1.427 . S
C2065 H2055 0.929 . S
C2065 C2063 1.433 . S
C2065 N2068 1.384 . S
C2066 H2057 0.929 . S
C2066 C2058 1.378 . S
C2066 C2061 1.350 . S
C2067 H2054 0.929 . S
C2067 C2059 1.433 . S
C2067 N2069 1.384 . S
N2068 C2064 1.427 . S
N2068 C2065 1.384 . S
N2069 C2061 1.427 . S
N2069 C2067 1.384 . S
H2070 C2076 0.930 . S
H2071 C2080 0.930 . S
H2072 C2085 0.929 . S
H2073 C2083 0.929 . S
H2074 C2078 0.929 . S
H2075 C2084 0.929 . S
C2076 H2070 0.930 . S
C2076 C2077 1.367 . S
C2076 C2084 1.378 . S
C2077 C2076 1.367 . S
C2077 C2085 1.433 1_565 S
C2078 H2074 0.929 . S
C2078 C2080 1.378 . S
C2078 C2082 1.350 1_545 S
C2079 C2082 1.463 . S
C2079 C2084 1.350 . S
C2079 N2087 1.427 1_565 S
C2080 H2071 0.930 . S
C2080 C2078 1.378 . S
C2080 C2081 1.367 1_545 S
C2081 C2080 1.367 1_565 S
C2081 C2083 1.433 . S
C2082 C2078 1.350 1_565 S
C2082 C2079 1.463 . S
C2082 N2086 1.427 . S
C2083 H2073 0.929 . S
C2083 C2081 1.433 . S
C2083 N2086 1.384 . S
C2084 H2075 0.929 . S
C2084 C2076 1.378 . S
C2084 C2079 1.350 . S
C2085 H2072 0.929 . S
C2085 C2077 1.433 1_545 S
C2085 N2087 1.384 . S
N2086 C2082 1.427 . S
N2086 C2083 1.384 . S
N2087 C2079 1.427 1_545 S
N2087 C2085 1.384 . S
H2088 C2094 0.946 1_545 S
H2089 C2098 0.930 . S
H2090 C2103 0.929 . S
H2091 C2101 0.941 . S
H2092 C2096 0.929 . S
H2093 C2102 0.929 1_545 S
C2094 H2088 0.946 1_565 S
C2094 C2095 1.367 . S
C2094 C2102 1.378 . S
C2095 C2094 1.367 . S
C2095 C2103 1.433 . S
C2096 H2092 0.929 . S
C2096 C2098 1.378 . S
C2096 C2100 1.350 . S
C2097 C2100 1.463 . S
C2097 C2102 1.350 . S
C2097 N2105 1.427 . S
C2098 H2089 0.930 . S
C2098 C2096 1.378 . S
C2098 C2099 1.367 . S
C2099 C2098 1.367 . S
C2099 C2101 1.442 1_565 S
C2100 C2096 1.350 . S
C2100 C2097 1.463 . S
C2100 N2104 1.429 . S
C2101 H2091 0.941 . S
C2101 C2099 1.442 1_545 S
C2101 N2104 1.361 1_545 S
C2102 H2093 0.929 1_565 S
C2102 C2094 1.378 . S
C2102 C2097 1.350 . S
C2103 H2090 0.929 . S
C2103 C2095 1.433 . S
C2103 N2105 1.384 . S
N2104 C2100 1.429 . S
N2104 C2101 1.361 1_565 S
N2105 C2097 1.427 . S
N2105 C2103 1.384 . S
H2106 C2112 0.930 . S
H2107 C2116 0.930 . S
H2108 C2121 0.929 . S
H2109 C2119 0.929 . S
H2110 C2114 0.929 . S
H2111 C2120 0.929 . S
C2112 H2106 0.930 . S
C2112 C2113 1.367 . S
C2112 C2120 1.378 . S
C2113 C2112 1.367 . S
C2113 C2121 1.433 1_455 S
C2114 H2110 0.929 . S
C2114 C2116 1.378 . S
C2114 C2118 1.350 1_655 S
C2115 C2118 1.463 . S
C2115 C2120 1.350 . S
C2115 N2123 1.427 1_455 S
C2116 H2107 0.930 . S
C2116 C2114 1.378 . S
C2116 C2117 1.367 1_655 S
C2117 C2116 1.367 1_455 S
C2117 C2119 1.433 . S
C2118 C2114 1.350 1_455 S
C2118 C2115 1.463 . S
C2118 N2122 1.427 . S
C2119 H2109 0.929 . S
C2119 C2117 1.433 . S
C2119 N2122 1.384 . S
C2120 H2111 0.929 . S
C2120 C2112 1.378 . S
C2120 C2115 1.350 . S
C2121 H2108 0.929 . S
C2121 C2113 1.433 1_655 S
C2121 N2123 1.384 . S
N2122 C2118 1.427 . S
N2122 C2119 1.384 . S
N2123 C2115 1.427 1_655 S
N2123 C2121 1.384 . S
H2124 C2130 0.930 . S
H2125 C2134 0.930 . S
H2126 C2139 0.929 . S
H2127 C2137 0.929 . S
H2128 C2132 0.929 . S
H2129 C2138 0.929 . S
C2130 H2124 0.930 . S
C2130 C2131 1.367 . S
C2130 C2138 1.378 . S
C2131 C2130 1.367 . S
C2131 C2139 1.433 . S
C2132 H2128 0.929 . S
C2132 C2134 1.378 . S
C2132 C2136 1.350 . S
C2133 C2136 1.463 . S
C2133 C2138 1.350 . S
C2133 N2141 1.427 . S
C2134 H2125 0.930 . S
C2134 C2132 1.378 . S
C2134 C2135 1.367 . S
C2135 C2134 1.367 . S
C2135 C2137 1.433 . S
C2136 C2132 1.350 . S
C2136 C2133 1.463 . S
C2136 N2140 1.427 . S
C2137 H2127 0.929 . S
C2137 C2135 1.433 . S
C2137 N2140 1.384 . S
C2138 H2129 0.929 . S
C2138 C2130 1.378 . S
C2138 C2133 1.350 . S
C2139 H2126 0.929 . S
C2139 C2131 1.433 . S
C2139 N2141 1.384 . S
N2140 C2136 1.427 . S
N2140 C2137 1.384 . S
N2141 C2133 1.427 . S
N2141 C2139 1.384 . S
H2142 C2148 0.930 . S
H2143 C2152 0.930 . S
H2144 C2157 0.929 . S
H2145 C2155 0.929 . S
H2146 C2150 0.929 . S
H2147 C2156 0.929 . S
C2148 H2142 0.930 . S
C2148 C2149 1.367 . S
C2148 C2156 1.378 . S
C2149 C2148 1.367 . S
C2149 C2157 1.433 . S
C2150 H2146 0.929 . S
C2150 C2152 1.378 . S
C2150 C2154 1.350 . S
C2151 C2154 1.463 . S
C2151 C2156 1.350 . S
C2151 N2159 1.427 . S
C2152 H2143 0.930 . S
C2152 C2150 1.378 . S
C2152 C2153 1.367 . S
C2153 C2152 1.367 . S
C2153 C2155 1.433 . S
C2154 C2150 1.350 . S
C2154 C2151 1.463 . S
C2154 N2158 1.427 . S
C2155 H2145 0.929 . S
C2155 C2153 1.433 . S
C2155 N2158 1.384 . S
C2156 H2147 0.929 . S
C2156 C2148 1.378 . S
C2156 C2151 1.350 . S
C2157 H2144 0.929 . S
C2157 C2149 1.433 . S
C2157 N2159 1.384 . S
N2158 C2154 1.427 . S
N2158 C2155 1.384 . S
N2159 C2151 1.427 . S
N2159 C2157 1.384 . S
H2160 C2166 0.930 . S
H2161 C2170 0.930 . S
H2162 C2175 0.929 . S
H2163 C2173 0.929 . S
H2164 C2168 0.929 . S
H2165 C2174 0.929 . S
C2166 H2160 0.930 . S
C2166 C2167 1.367 . S
C2166 C2174 1.378 . S
C2167 C2166 1.367 . S
C2167 C2175 1.433 . S
C2168 H2164 0.929 . S
C2168 C2170 1.378 . S
C2168 C2172 1.350 . S
C2169 C2172 1.463 . S
C2169 C2174 1.350 . S
C2169 N2177 1.427 . S
C2170 H2161 0.930 . S
C2170 C2168 1.378 . S
C2170 C2171 1.367 . S
C2171 C2170 1.367 . S
C2171 C2173 1.433 . S
C2172 C2168 1.350 . S
C2172 C2169 1.463 . S
C2172 N2176 1.427 . S
C2173 H2163 0.929 . S
C2173 C2171 1.433 . S
C2173 N2176 1.384 . S
C2174 H2165 0.929 . S
C2174 C2166 1.378 . S
C2174 C2169 1.350 . S
C2175 H2162 0.929 . S
C2175 C2167 1.433 . S
C2175 N2177 1.384 . S
N2176 C2172 1.427 . S
N2176 C2173 1.384 . S
N2177 C2169 1.427 . S
N2177 C2175 1.384 . S
H2178 C2184 0.930 . S
H2179 C2188 0.930 . S
H2180 C2193 0.929 . S
H2181 C2191 0.929 . S
H2182 C2186 0.929 . S
H2183 C2192 0.929 . S
C2184 H2178 0.930 . S
C2184 C2185 1.367 . S
C2184 C2192 1.378 . S
C2185 C2184 1.367 . S
C2185 C2193 1.433 . S
C2186 H2182 0.929 . S
C2186 C2188 1.378 . S
C2186 C2190 1.350 . S
C2187 C2190 1.463 . S
C2187 C2192 1.350 . S
C2187 N2195 1.427 . S
C2188 H2179 0.930 . S
C2188 C2186 1.378 . S
C2188 C2189 1.367 . S
C2189 C2188 1.367 . S
C2189 C2191 1.433 . S
C2190 C2186 1.350 . S
C2190 C2187 1.463 . S
C2190 N2194 1.427 . S
C2191 H2181 0.929 . S
C2191 C2189 1.433 . S
C2191 N2194 1.384 . S
C2192 H2183 0.929 . S
C2192 C2184 1.378 . S
C2192 C2187 1.350 . S
C2193 H2180 0.929 . S
C2193 C2185 1.433 . S
C2193 N2195 1.384 . S
N2194 C2190 1.427 . S
N2194 C2191 1.384 . S
N2195 C2187 1.427 . S
N2195 C2193 1.384 . S
H2196 C2202 0.930 . S
H2197 C2206 0.930 . S
H2198 C2211 0.929 . S
H2199 C2209 0.929 . S
H2200 C2204 0.929 . S
H2201 C2210 0.929 . S
C2202 H2196 0.930 . S
C2202 C2203 1.367 . S
C2202 C2210 1.378 . S
C2203 C2202 1.367 . S
C2203 C2211 1.433 1_545 S
C2204 H2200 0.929 . S
C2204 C2206 1.378 . S
C2204 C2208 1.350 1_565 S
C2205 C2208 1.463 . S
C2205 C2210 1.350 . S
C2205 N2213 1.427 1_545 S
C2206 H2197 0.930 . S
C2206 C2204 1.378 . S
C2206 C2207 1.367 1_565 S
C2207 C2206 1.367 1_545 S
C2207 C2209 1.433 . S
C2208 C2204 1.350 1_545 S
C2208 C2205 1.463 . S
C2208 N2212 1.427 . S
C2209 H2199 0.929 . S
C2209 C2207 1.433 . S
C2209 N2212 1.384 . S
C2210 H2201 0.929 . S
C2210 C2202 1.378 . S
C2210 C2205 1.350 . S
C2211 H2198 0.929 . S
C2211 C2203 1.433 1_565 S
C2211 N2213 1.384 . S
N2212 C2208 1.427 . S
N2212 C2209 1.384 . S
N2213 C2205 1.427 1_565 S
N2213 C2211 1.384 . S
H2214 C2220 0.930 . S
H2215 C2224 0.930 . S
H2216 C2229 0.929 . S
H2217 C2227 0.929 . S
H2218 C2222 0.929 . S
H2219 C2228 0.929 . S
C2220 H2214 0.930 . S
C2220 C2221 1.367 1_455 S
C2220 C2228 1.378 . S
C2221 C2220 1.367 1_655 S
C2221 C2229 1.433 . S
C2222 H2218 0.929 . S
C2222 C2224 1.378 . S
C2222 C2226 1.350 . S
C2223 C2226 1.463 . S
C2223 C2228 1.350 1_655 S
C2223 N2231 1.427 . S
C2224 H2215 0.930 . S
C2224 C2222 1.378 . S
C2224 C2225 1.367 . S
C2225 C2224 1.367 . S
C2225 C2227 1.433 1_655 S
C2226 C2222 1.350 . S
C2226 C2223 1.463 . S
C2226 N2230 1.427 1_655 S
C2227 H2217 0.929 . S
C2227 C2225 1.433 1_455 S
C2227 N2230 1.384 . S
C2228 H2219 0.929 . S
C2228 C2220 1.378 . S
C2228 C2223 1.350 1_455 S
C2229 H2216 0.929 . S
C2229 C2221 1.433 . S
C2229 N2231 1.384 . S
N2230 C2226 1.427 1_455 S
N2230 C2227 1.384 . S
N2231 C2223 1.427 . S
N2231 C2229 1.384 . S
H2232 C2238 0.930 . S
H2233 C2242 0.930 . S
H2234 C2247 0.929 . S
H2235 C2245 0.929 . S
H2236 C2240 0.929 . S
H2237 C2246 0.929 . S
C2238 H2232 0.930 . S
C2238 C2239 1.367 . S
C2238 C2246 1.378 . S
C2239 C2238 1.367 . S
C2239 C2247 1.433 . S
C2240 H2236 0.929 . S
C2240 C2242 1.378 . S
C2240 C2244 1.350 . S
C2241 C2244 1.463 . S
C2241 C2246 1.350 . S
C2241 N2249 1.427 . S
C2242 H2233 0.930 . S
C2242 C2240 1.378 . S
C2242 C2243 1.367 . S
C2243 C2242 1.367 . S
C2243 C2245 1.433 . S
C2244 C2240 1.350 . S
C2244 C2241 1.463 . S
C2244 N2248 1.427 . S
C2245 H2235 0.929 . S
C2245 C2243 1.433 . S
C2245 N2248 1.384 . S
C2246 H2237 0.929 . S
C2246 C2238 1.378 . S
C2246 C2241 1.350 . S
C2247 H2234 0.929 . S
C2247 C2239 1.433 . S
C2247 N2249 1.384 . S
N2248 C2244 1.427 . S
N2248 C2245 1.384 . S
N2249 C2241 1.427 . S
N2249 C2247 1.384 . S
H2250 C2256 0.930 . S
H2251 C2260 0.930 . S
H2252 C2265 0.929 . S
H2253 C2263 0.929 . S
H2254 C2258 0.929 . S
H2255 C2264 0.929 . S
C2256 H2250 0.930 . S
C2256 C2257 1.367 . S
C2256 C2264 1.378 . S
C2257 C2256 1.367 . S
C2257 C2265 1.433 . S
C2258 H2254 0.929 . S
C2258 C2260 1.378 . S
C2258 C2262 1.350 . S
C2259 C2262 1.463 . S
C2259 C2264 1.350 . S
C2259 N2267 1.427 . S
C2260 H2251 0.930 . S
C2260 C2258 1.378 . S
C2260 C2261 1.367 . S
C2261 C2260 1.367 . S
C2261 C2263 1.433 . S
C2262 C2258 1.350 . S
C2262 C2259 1.463 . S
C2262 N2266 1.427 . S
C2263 H2253 0.929 . S
C2263 C2261 1.433 . S
C2263 N2266 1.384 . S
C2264 H2255 0.929 . S
C2264 C2256 1.378 . S
C2264 C2259 1.350 . S
C2265 H2252 0.929 . S
C2265 C2257 1.433 . S
C2265 N2267 1.384 . S
N2266 C2262 1.427 . S
N2266 C2263 1.384 . S
N2267 C2259 1.427 . S
N2267 C2265 1.384 . S
H2268 C2274 0.930 . S
H2269 C2278 0.930 . S
H2270 C2283 0.929 . S
H2271 C2281 0.929 . S
H2272 C2276 0.929 . S
H2273 C2282 0.929 . S
C2274 H2268 0.930 . S
C2274 C2275 1.367 . S
C2274 C2282 1.378 . S
C2275 C2274 1.367 . S
C2275 C2283 1.433 . S
C2276 H2272 0.929 . S
C2276 C2278 1.378 . S
C2276 C2280 1.350 . S
C2277 C2280 1.463 . S
C2277 C2282 1.350 . S
C2277 N2285 1.427 . S
C2278 H2269 0.930 . S
C2278 C2276 1.378 . S
C2278 C2279 1.367 . S
C2279 C2278 1.367 . S
C2279 C2281 1.433 . S
C2280 C2276 1.350 . S
C2280 C2277 1.463 . S
C2280 N2284 1.427 . S
C2281 H2271 0.929 . S
C2281 C2279 1.433 . S
C2281 N2284 1.384 . S
C2282 H2273 0.929 . S
C2282 C2274 1.378 . S
C2282 C2277 1.350 . S
C2283 H2270 0.929 . S
C2283 C2275 1.433 . S
C2283 N2285 1.384 . S
N2284 C2280 1.427 . S
N2284 C2281 1.384 . S
N2285 C2277 1.427 . S
N2285 C2283 1.384 . S
H2286 C2292 0.930 . S
H2287 C2296 0.930 . S
H2288 C2301 0.929 . S
H2289 C2299 0.929 . S
H2290 C2294 0.929 . S
H2291 C2300 0.929 . S
C2292 H2286 0.930 . S
C2292 C2293 1.367 . S
C2292 C2300 1.378 . S
C2293 C2292 1.367 . S
C2293 C2301 1.433 . S
C2294 H2290 0.929 . S
C2294 C2296 1.378 . S
C2294 C2298 1.350 . S
C2295 C2298 1.463 . S
C2295 C2300 1.350 . S
C2295 N2303 1.427 . S
C2296 H2287 0.930 . S
C2296 C2294 1.378 . S
C2296 C2297 1.367 . S
C2297 C2296 1.367 . S
C2297 C2299 1.433 . S
C2298 C2294 1.350 . S
C2298 C2295 1.463 . S
C2298 N2302 1.427 . S
C2299 H2289 0.929 . S
C2299 C2297 1.433 . S
C2299 N2302 1.384 . S
C2300 H2291 0.929 . S
C2300 C2292 1.378 . S
C2300 C2295 1.350 . S
C2301 H2288 0.929 . S
C2301 C2293 1.433 . S
C2301 N2303 1.384 . S
N2302 C2298 1.427 . S
N2302 C2299 1.384 . S
N2303 C2295 1.427 . S
N2303 C2301 1.384 . S
H2304 C2310 0.930 . S
H2305 C2314 0.930 . S
H2306 C2319 0.929 . S
H2307 C2317 0.929 . S
H2308 C2312 0.929 . S
H2309 C2318 0.929 . S
C2310 H2304 0.930 . S
C2310 C2311 1.367 . S
C2310 C2318 1.378 . S
C2311 C2310 1.367 . S
C2311 C2319 1.433 . S
C2312 H2308 0.929 . S
C2312 C2314 1.378 . S
C2312 C2316 1.350 . S
C2313 C2316 1.463 . S
C2313 C2318 1.350 . S
C2313 N2321 1.427 . S
C2314 H2305 0.930 . S
C2314 C2312 1.378 . S
C2314 C2315 1.367 . S
C2315 C2314 1.367 . S
C2315 C2317 1.433 . S
C2316 C2312 1.350 . S
C2316 C2313 1.463 . S
C2316 N2320 1.427 . S
C2317 H2307 0.929 . S
C2317 C2315 1.433 . S
C2317 N2320 1.384 . S
C2318 H2309 0.929 . S
C2318 C2310 1.378 . S
C2318 C2313 1.350 . S
C2319 H2306 0.929 . S
C2319 C2311 1.433 . S
C2319 N2321 1.384 . S
N2320 C2316 1.427 . S
N2320 C2317 1.384 . S
N2321 C2313 1.427 . S
N2321 C2319 1.384 . S
H2322 C2328 0.930 . S
H2323 C2332 0.930 . S
H2324 C2337 0.929 . S
H2325 C2335 0.929 . S
H2326 C2330 0.929 . S
H2327 C2336 0.929 . S
C2328 H2322 0.930 . S
C2328 C2329 1.367 . S
C2328 C2336 1.378 . S
C2329 C2328 1.367 . S
C2329 C2337 1.433 . S
C2330 H2326 0.929 . S
C2330 C2332 1.378 . S
C2330 C2334 1.350 . S
C2331 C2334 1.463 . S
C2331 C2336 1.350 . S
C2331 N2339 1.427 . S
C2332 H2323 0.930 . S
C2332 C2330 1.378 . S
C2332 C2333 1.367 . S
C2333 C2332 1.367 . S
C2333 C2335 1.433 . S
C2334 C2330 1.350 . S
C2334 C2331 1.463 . S
C2334 N2338 1.427 . S
C2335 H2325 0.929 . S
C2335 C2333 1.433 . S
C2335 N2338 1.384 . S
C2336 H2327 0.929 . S
C2336 C2328 1.378 . S
C2336 C2331 1.350 . S
C2337 H2324 0.929 . S
C2337 C2329 1.433 . S
C2337 N2339 1.384 . S
N2338 C2334 1.427 . S
N2338 C2335 1.384 . S
N2339 C2331 1.427 . S
N2339 C2337 1.384 . S
H2340 C2346 0.930 . S
H2341 C2350 0.930 . S
H2342 C2355 0.929 . S
H2343 C2353 0.929 . S
H2344 C2348 0.929 . S
H2345 C2354 0.929 . S
C2346 H2340 0.930 . S
C2346 C2347 1.367 . S
C2346 C2354 1.378 . S
C2347 C2346 1.367 . S
C2347 C2355 1.433 . S
C2348 H2344 0.929 . S
C2348 C2350 1.378 . S
C2348 C2352 1.350 . S
C2349 C2352 1.463 . S
C2349 C2354 1.350 . S
C2349 N2357 1.427 . S
C2350 H2341 0.930 . S
C2350 C2348 1.378 . S
C2350 C2351 1.367 . S
C2351 C2350 1.367 . S
C2351 C2353 1.433 . S
C2352 C2348 1.350 . S
C2352 C2349 1.463 . S
C2352 N2356 1.427 . S
C2353 H2343 0.929 . S
C2353 C2351 1.433 . S
C2353 N2356 1.384 . S
C2354 H2345 0.929 . S
C2354 C2346 1.378 . S
C2354 C2349 1.350 . S
C2355 H2342 0.929 . S
C2355 C2347 1.433 . S
C2355 N2357 1.384 . S
N2356 C2352 1.427 . S
N2356 C2353 1.384 . S
N2357 C2349 1.427 . S
N2357 C2355 1.384 . S
H2358 C2364 0.930 . S
H2359 C2368 0.930 . S
H2360 C2373 0.929 . S
H2361 C2371 0.929 . S
H2362 C2366 0.929 . S
H2363 C2372 0.929 . S
C2364 H2358 0.930 . S
C2364 C2365 1.367 . S
C2364 C2372 1.378 . S
C2365 C2364 1.367 . S
C2365 C2373 1.433 . S
C2366 H2362 0.929 . S
C2366 C2368 1.378 . S
C2366 C2370 1.350 . S
C2367 C2370 1.463 . S
C2367 C2372 1.350 . S
C2367 N2375 1.427 . S
C2368 H2359 0.930 . S
C2368 C2366 1.378 . S
C2368 C2369 1.367 . S
C2369 C2368 1.367 . S
C2369 C2371 1.433 . S
C2370 C2366 1.350 . S
C2370 C2367 1.463 . S
C2370 N2374 1.427 . S
C2371 H2361 0.929 . S
C2371 C2369 1.433 . S
C2371 N2374 1.384 . S
C2372 H2363 0.929 . S
C2372 C2364 1.378 . S
C2372 C2367 1.350 . S
C2373 H2360 0.929 . S
C2373 C2365 1.433 . S
C2373 N2375 1.384 . S
N2374 C2370 1.427 . S
N2374 C2371 1.384 . S
N2375 C2367 1.427 . S
N2375 C2373 1.384 . S
H2376 C2382 0.930 . S
H2377 C2386 0.930 . S
H2378 C2391 0.929 . S
H2379 C2389 0.929 . S
H2380 C2384 0.929 . S
H2381 C2390 0.929 . S
C2382 H2376 0.930 . S
C2382 C2383 1.367 . S
C2382 C2390 1.378 . S
C2383 C2382 1.367 . S
C2383 C2391 1.433 . S
C2384 H2380 0.929 . S
C2384 C2386 1.378 . S
C2384 C2388 1.350 . S
C2385 C2388 1.463 . S
C2385 C2390 1.350 . S
C2385 N2393 1.427 . S
C2386 H2377 0.930 . S
C2386 C2384 1.378 . S
C2386 C2387 1.367 . S
C2387 C2386 1.367 . S
C2387 C2389 1.433 . S
C2388 C2384 1.350 . S
C2388 C2385 1.463 . S
C2388 N2392 1.427 . S
C2389 H2379 0.929 . S
C2389 C2387 1.433 . S
C2389 N2392 1.384 . S
C2390 H2381 0.929 . S
C2390 C2382 1.378 . S
C2390 C2385 1.350 . S
C2391 H2378 0.929 . S
C2391 C2383 1.433 . S
C2391 N2393 1.384 . S
N2392 C2388 1.427 . S
N2392 C2389 1.384 . S
N2393 C2385 1.427 . S
N2393 C2391 1.384 . S
H2394 C2400 0.930 . S
H2395 C2404 0.930 . S
H2396 C2409 0.929 . S
H2397 C2407 0.920 . S
H2398 C2402 0.929 . S
H2399 C2408 0.929 . S
C2400 H2394 0.930 . S
C2400 C2401 1.367 . S
C2400 C2408 1.378 . S
C2401 C2400 1.367 . S
C2401 C2409 1.433 . S
C2402 H2398 0.929 . S
C2402 C2404 1.378 . S
C2402 C2406 1.350 . S
C2403 C2406 1.463 . S
C2403 C2408 1.350 . S
C2403 N2411 1.427 . S
C2404 H2395 0.930 . S
C2404 C2402 1.378 . S
C2404 C2405 1.367 . S
C2405 C2404 1.367 . S
C2405 C2407 1.426 1_545 S
C2406 C2402 1.350 . S
C2406 C2403 1.463 . S
C2406 N2410 1.418 . S
C2407 H2397 0.920 . S
C2407 C2405 1.426 1_565 S
C2407 N2410 1.427 1_565 S
C2408 H2399 0.929 . S
C2408 C2400 1.378 . S
C2408 C2403 1.350 . S
C2409 H2396 0.929 . S
C2409 C2401 1.433 . S
C2409 N2411 1.384 . S
N2410 C2406 1.418 . S
N2410 C2407 1.427 1_545 S
N2411 C2403 1.427 . S
N2411 C2409 1.384 . S
C1123 C7 1.468 . S
C1127 C729 1.482 . S
C1141 C23 1.595 . S
C1145 C777 1.602 . S
C1163 C825 1.506 . S
C1159 C37 1.482 . S
C1177 C35 1.466 . S
C1181 C849 1.496 . S
C1195 C9 1.485 . S
C1199 C921 1.510 . S
C1213 C21 1.580 . S
C1217 C969 1.610 . S
C1231 C49 1.462 . S
C1235 C897 1.483 . S
C1253 C945 1.602 . S
C1249 C65 1.601 . S
C1271 C873 1.514 . S
C1267 C79 1.491 1_565 S
C1285 C77 1.461 . S
C1289 C801 1.477 . S
C1307 C705 1.523 . S
C1303 C51 1.500 1_655 S
C1321 C63 1.577 . S
C1325 C753 1.613 . S
C1339 C91 1.639 . S
C1343 C1017 1.683 . S
C1357 C107 1.665 . S
C1361 C1065 1.660 . S
C1379 C1089 1.646 . S
C1375 C121 1.674 . S
C1393 C119 1.603 . S
C1397 C273 1.621 . S
C1411 C93 1.664 . S
C1415 C345 1.665 . S
C1429 C105 1.616 . S
C1433 C393 1.651 . S
C1447 C133 1.567 . S
C1451 C321 1.598 . S
C1465 C149 1.647 . S
C1469 C369 1.640 . S
C1487 C297 1.623 . S
C1483 C163 1.665 . S
C1505 C1113 1.677 . S
C1501 C161 1.685 . S
C1523 C993 1.652 . S
C1519 C135 1.660 . S
C1541 C1041 1.686 . S
C1537 C147 1.646 . S
C1555 C175 1.559 . S
C1559 C441 1.601 . S
C1573 C191 1.634 . S
C1577 C489 1.637 . S
C1591 C205 1.667 . S
C1595 C513 1.649 . S
C1609 C203 1.677 . S
C1613 C561 1.699 . S
C1631 C633 1.660 . S
C1627 C177 1.665 . S
C1649 C681 1.681 . S
C1645 C189 1.650 . S
C1667 C609 1.692 . S
C1663 C217 1.657 . S
C1685 C657 1.671 . S
C1681 C233 1.675 . S
C1699 C247 1.662 . S
C1703 C585 1.623 . S
C1721 C537 1.594 . S
C1717 C245 1.594 . S
C1735 C219 1.663 . S
C1739 C417 1.666 . S
C1757 C465 1.651 . S
C1753 C231 1.618 . S
C1775 C282 1.604 . S
C1771 C8 1.605 . S
C1789 C17 1.522 . S
C1793 C336 1.500 . S
C1811 C384 1.587 . S
C1807 C31 1.603 . S
C1829 C432 1.591 . S
C1825 C36 1.620 . S
C1847 C480 1.562 . S
C1843 C3 1.582 . S
C1865 C522 1.533 . S
C1861 C22 1.534 . S
C1879 C50 1.618 . S
C1883 C528 1.614 . S
C1897 C59 1.521 . S
C1901 C426 1.491 . S
C1915 C73 1.583 . S
C1919 C474 1.556 . S
C1933 C78 1.637 . S
C1937 C330 1.605 . S
C1955 C378 1.556 . S
C1951 C45 1.581 . S
C1969 C64 1.539 . S
C1973 C288 1.527 . S
C1991 C570 1.576 . S
C1987 C92 1.575 . S
C2005 C101 1.647 . S
C2009 C624 1.619 . S
C2023 C115 1.662 . S
C2027 C672 1.633 . S
C2045 C720 1.451 . S
C2041 C120 1.449 . S
C2059 C87 1.572 . S
C2063 C768 1.551 . S
C2077 C106 1.406 . S
C2081 C816 1.409 . S
C2095 C134 1.429 . S
C2099 C810 1.424 . S
C2113 C143 1.431 . S
C2117 C714 1.432 . S
C2135 C762 1.553 . S
C2131 C157 1.584 . S
C2149 C162 1.591 . S
C2153 C618 1.551 . S
C2167 C129 1.655 . S
C2171 C666 1.621 . S
C2189 C576 1.638 . S
C2185 C148 1.651 . S
C2207 C858 1.432 . S
C2203 C176 1.427 . S
C2221 C185 1.429 . S
C2225 C912 1.426 . S
C2239 C199 1.586 . S
C2243 C960 1.564 . S
C2261 C1008 1.562 . S
C2257 C204 1.586 . S
C2279 C1056 1.622 . S
C2275 C171 1.653 . S
C2293 C190 1.649 . S
C2297 C1098 1.648 . S
C2311 C218 1.586 . S
C2315 C1104 1.571 . S
C2329 C227 1.644 . S
C2333 C1002 1.603 . S
C2351 C1050 1.608 . S
C2347 C241 1.645 . S
C2369 C906 1.433 . S
C2365 C246 1.432 . S
C2387 C954 1.548 . S
C2383 C213 1.578 . S
C2401 C232 1.417 . S
C2405 C864 1.417 . S
