# Generated by pormake.
# Topology zzz, (3,6)-cn, num edge types: 1
# Building blocks:
#     Node 0, Type 0, BuildingBlock: BETDIP_clean_linker_0, # of connection points: 3
#     Node 1, Type 0, BuildingBlock: BETDIP_clean_linker_0, # of connection points: 3
#     Node 2, Type 0, BuildingBlock: BETDIP_clean_linker_0, # of connection points: 3
#     Node 3, Type 0, BuildingBlock: BETDIP_clean_linker_0, # of connection points: 3
#     Node 4, Type 0, BuildingBlock: BETDIP_clean_linker_0, # of connection points: 3
#     Node 5, Type 0, BuildingBlock: BETDIP_clean_linker_0, # of connection points: 3
#     Node 6, Type 0, BuildingBlock: BETDIP_clean_linker_0, # of connection points: 3
#     Node 7, Type 0, BuildingBlock: BETDIP_clean_linker_0, # of connection points: 3
#     Node 8, Type 1, BuildingBlock: BETDAH_clean_sbu_0, # of connection points: 6
#     Node 9, Type 1, BuildingBlock: BETDAH_clean_sbu_0, # of connection points: 6
#     Node 10, Type 1, BuildingBlock: BETDAH_clean_sbu_0, # of connection points: 6
#     Node 11, Type 1, BuildingBlock: BETDAH_clean_sbu_0, # of connection points: 6
#     Edge 12, Type (0, 1), BuildingBlock: TEMPAE_clean_linker_10, # of connection points: 2
#     Edge 13, Type (0, 1), BuildingBlock: TEMPAE_clean_linker_10, # of connection points: 2
#     Edge 14, Type (0, 1), BuildingBlock: TEMPAE_clean_linker_10, # of connection points: 2
#     Edge 15, Type (0, 1), BuildingBlock: TEMPAE_clean_linker_10, # of connection points: 2
#     Edge 16, Type (0, 1), BuildingBlock: TEMPAE_clean_linker_10, # of connection points: 2
#     Edge 17, Type (0, 1), BuildingBlock: TEMPAE_clean_linker_10, # of connection points: 2
#     Edge 18, Type (0, 1), BuildingBlock: TEMPAE_clean_linker_10, # of connection points: 2
#     Edge 19, Type (0, 1), BuildingBlock: TEMPAE_clean_linker_10, # of connection points: 2
#     Edge 20, Type (0, 1), BuildingBlock: TEMPAE_clean_linker_10, # of connection points: 2
#     Edge 21, Type (0, 1), BuildingBlock: TEMPAE_clean_linker_10, # of connection points: 2
#     Edge 22, Type (0, 1), BuildingBlock: TEMPAE_clean_linker_10, # of connection points: 2
#     Edge 23, Type (0, 1), BuildingBlock: TEMPAE_clean_linker_10, # of connection points: 2
#     Edge 24, Type (0, 1), BuildingBlock: TEMPAE_clean_linker_10, # of connection points: 2
#     Edge 25, Type (0, 1), BuildingBlock: TEMPAE_clean_linker_10, # of connection points: 2
#     Edge 26, Type (0, 1), BuildingBlock: TEMPAE_clean_linker_10, # of connection points: 2
#     Edge 27, Type (0, 1), BuildingBlock: TEMPAE_clean_linker_10, # of connection points: 2
#     Edge 28, Type (0, 1), BuildingBlock: TEMPAE_clean_linker_10, # of connection points: 2
#     Edge 29, Type (0, 1), BuildingBlock: TEMPAE_clean_linker_10, # of connection points: 2
#     Edge 30, Type (0, 1), BuildingBlock: TEMPAE_clean_linker_10, # of connection points: 2
#     Edge 31, Type (0, 1), BuildingBlock: TEMPAE_clean_linker_10, # of connection points: 2
#     Edge 32, Type (0, 1), BuildingBlock: TEMPAE_clean_linker_10, # of connection points: 2
#     Edge 33, Type (0, 1), BuildingBlock: TEMPAE_clean_linker_10, # of connection points: 2
#     Edge 34, Type (0, 1), BuildingBlock: TEMPAE_clean_linker_10, # of connection points: 2
#     Edge 35, Type (0, 1), BuildingBlock: TEMPAE_clean_linker_10, # of connection points: 2
# Relax obj value: 0.271
# Max RMSD: 0.189
# Mean RMSD: 0.163
data_MOF--net-zzz--node1-BETDAH_clean_sbu_0--node2-BETDIP_clean_linker_0--edge1-TEMPAE_clean_linker_10
_symmetry_space_group_name_H-M    P1
_symmetry_Int_Tables_number       1
_symmetry_cell_setting            triclinic
loop_
_symmetry_equiv_pos_as_xyz
'x, y, z'
_cell_length_a     52.899137
_cell_length_b     52.858953
_cell_length_c     13.308537
_cell_angle_alpha  89.908628
_cell_angle_beta   89.864364
_cell_angle_gamma 89.945426
loop_
_atom_site_label
_atom_site_type_symbol
_atom_site_fract_x
_atom_site_fract_y
_atom_site_fract_z
_atom_type_partial_charge
H0 H 0.75334 0.5239 0.56447 0.0
H1 H 0.73452 0.52462 0.24891 0.0
H2 H 0.81192 0.5289 0.34068 0.0
H3 H 0.70054 0.56057 0.38969 0.0
C4 C 0.69651 0.54047 0.38379 0.0
C5 C 0.75912 0.52546 0.48663 0.0
C6 C 0.78524 0.52751 0.4617 0.0
C7 C 0.74054 0.52568 0.40881 0.0
C8 C 0.74834 0.52641 0.30851 0.0
C9 C 0.77385 0.52725 0.28432 0.0
C10 C 0.792 0.5288 0.36047 0.0
N11 N 0.71411 0.5232 0.42805 0.0
H12 H 1.00148 0.7519 0.54555 0.0
H13 H 1.01675 0.73536 0.23274 0.0
H14 H 0.01738 0.8118 0.33491 0.0
H15 H 0.9708 0.71131 0.30144 0.0
C16 C 0.98704 0.70088 0.32969 0.0
C17 C 1.0055 0.75828 0.46988 0.0
C18 C 1.0094 0.78459 0.45021 0.0
C19 C 1.007 0.74036 0.38919 0.0
C20 C 1.01376 0.74881 0.29308 0.0
C21 C 0.0174 0.7743 0.27464 0.0
C22 C 1.01426 0.79196 0.35137 0.0
N23 N 1.00248 0.71383 0.40157 0.0
H24 H 0.77864 0.02532 0.5589 0.0
H25 H 0.80708 1.00486 0.26715 0.0
H26 H 0.73075 0.9879 0.34472 0.0
H27 H 0.84304 0.98691 0.45929 0.0
C28 C 0.84305 1.00549 0.4242 0.0
C29 C 0.77593 1.01575 0.48786 0.0
C30 C 0.75144 1.00709 0.45996 0.0
C31 C 0.79678 1.01253 0.42053 0.0
C32 C 0.79234 1.00344 0.32362 0.0
C33 C 0.76816 0.99651 0.29452 0.0
C34 C 0.74908 0.99477 0.3672 0.0
N35 N 0.82161 0.02135 0.44252 0.0
H36 H 0.52994 0.78593 0.56391 0.0
H37 H 0.51662 0.80109 0.24878 0.0
H38 H 0.51497 0.72497 0.35816 0.0
H39 H 0.56183 0.8278 0.33039 0.0
C40 C 0.54444 0.83723 0.35292 0.0
C41 C 0.52625 0.77923 0.48855 0.0
C42 C 0.52301 0.75281 0.47051 0.0
C43 C 0.52472 0.79685 0.40678 0.0
C44 C 0.51909 0.7879 0.31048 0.0
C45 C 0.51576 0.76222 0.29374 0.0
C46 C 0.51814 0.74494 0.37259 0.0
N47 N 0.52783 0.82357 0.41875 0.0
H48 H 0.28326 0.49986 0.9667 0.0
H49 H 0.29359 0.52612 0.27194 0.0
H50 H 0.21945 0.5234 0.14506 0.0
H51 H 0.32852 0.5476 0.14952 0.0
C52 C 0.3352 0.52814 0.15209 0.0
C53 C 0.27549 0.50667 0.03697 0.0
C54 C 0.24904 0.51103 0.04626 0.0
C55 C 0.29188 0.51233 0.119 0.0
C56 C 0.28148 0.52167 0.20884 0.0
C57 C 0.25552 0.52504 0.21829 0.0
C58 C 0.2396 0.5198 0.13759 0.0
N59 N 0.31871 0.5091 0.11298 0.0
H60 H 0.04056 0.27988 0.95353 0.0
H61 H 1.00507 0.30115 0.2342 0.0
H62 H 0.99164 0.22799 0.11059 0.0
H63 H 0.99662 0.33779 0.09148 0.0
C64 C 1.01644 0.34 0.11134 0.0
C65 C 0.02834 0.27539 0.01644 0.0
C66 C 1.01637 0.25127 0.02203 0.0
C67 C 0.02329 0.29404 0.09154 0.0
C68 C 1.00799 0.2877 0.17384 0.0
C69 C 0.99651 0.26422 0.17967 0.0
C70 C 1.00041 0.24641 0.10377 0.0
N71 N 0.03281 0.31933 0.08614 0.0
H72 H 0.25484 0.04485 0.98074 0.0
H73 H 0.23305 1.01006 0.26262 0.0
H74 H 0.30781 0.99971 0.14864 0.0
H75 H 0.19543 1.00262 0.0895 0.0
C76 C 0.19426 0.02099 0.12587 0.0
C77 C 0.2594 0.03316 0.04507 0.0
C78 C 0.28393 0.02214 0.05361 0.0
C79 C 0.24053 0.02795 0.11958 0.0
C80 C 0.24681 1.01317 0.20334 0.0
C81 C 0.27096 1.00332 0.21311 0.0
C82 C 0.28903 1.00743 0.13841 0.0
N83 N 0.21537 0.03767 0.11408 0.0
H84 H 0.49163 0.25796 0.9741 0.0
H85 H 0.52906 0.23284 0.24475 0.0
H86 H 0.54567 0.30579 0.12308 0.0
H87 H 0.52991 0.19466 0.0721 0.0
C88 C 0.51217 0.19528 0.1135 0.0
C89 C 0.5051 0.26124 0.03376 0.0
C90 C 0.51884 0.28441 0.03718 0.0
C91 C 0.50976 0.24198 0.10689 0.0
C92 C 0.52658 0.24674 0.18554 0.0
C93 C 0.53938 0.2696 0.19108 0.0
C94 C 0.53595 0.28787 0.11621 0.0
N95 N 0.49747 0.21794 0.10528 0.0
Ho96 Ho 0.03025 1.01336 0.83811 0.0
Ho97 Ho 0.99395 0.02112 0.67615 0.0
C98 C 1.01202 0.96473 0.70532 0.0
C99 C 0.04733 1.00176 0.01232 0.0
C100 C 0.06075 0.97939 0.04791 0.0
C101 C 0.05076 0.96671 0.13096 0.0
C102 C 0.05722 0.94167 0.1488 0.0
C103 C 0.07448 0.92896 0.08544 0.0
C104 C 0.08644 0.9427 0.00822 0.0
C105 C 0.07929 0.96763 0.9884 0.0
C106 C 0.05928 1.01681 0.66972 0.0
C107 C 0.01763 0.07082 0.78409 0.0
C108 C 0.96612 0.03449 0.52774 0.0
C109 C 0.9658 0.0588 0.47698 0.0
C110 C 0.98877 0.07127 0.45864 0.0
C111 C 0.98898 0.09713 0.44235 0.0
C112 C 0.96627 0.11075 0.4446 0.0
C113 C 0.94318 0.09812 0.45608 0.0
C114 C 0.94294 0.07211 0.47168 0.0
C115 C 0.9727 1.01035 0.85802 0.0
O116 O 0.0211 0.9727 0.7926 0.0
O117 O 1.00279 0.98092 0.64014 0.0
O118 O 0.05945 1.01685 0.95074 0.0
O119 O 0.02421 0.99687 0.98345 0.0
O120 O 0.0677 1.01257 0.75917 0.0
O121 O 0.03532 0.0184 0.67191 0.0
O122 O 1.00676 0.06184 0.70181 0.0
O123 O 0.02638 0.05539 0.85371 0.0
O124 O 0.95868 0.03584 0.62112 0.0
O125 O 0.98667 0.02102 0.51655 0.0
O126 O 0.96697 0.9991 0.7749 0.0
O127 O 0.99048 0.02565 0.84072 0.0
H128 H 0.03614 0.97542 0.17653 0.0
H129 H 0.04694 0.93194 0.20758 0.0
H130 H 0.10024 0.93385 0.95947 0.0
H131 H 0.08708 0.97707 0.92302 0.0
H132 H 1.00673 0.0615 0.46445 0.0
H133 H 1.00698 0.10668 0.43363 0.0
H134 H 0.9255 0.10848 0.45632 0.0
H135 H 0.92514 0.06274 0.48732 0.0
Ho136 Ho 0.5223 0.04056 0.85654 0.0
Ho137 Ho 0.51216 1.00433 0.66553 0.0
C138 C 0.57004 0.01961 0.71928 0.0
C139 C 0.53616 0.05606 0.02919 0.0
C140 C 0.56149 0.05131 0.06965 0.0
C141 C 0.56965 0.02622 0.08226 0.0
C142 C 0.59521 0.02052 0.08094 0.0
C143 C 0.6131 0.03985 0.06976 0.0
C144 C 0.60519 0.06513 0.06622 0.0
C145 C 0.5795 0.07083 0.06621 0.0
C146 C 0.51381 0.06816 0.68538 0.0
C147 C 0.46443 0.02468 0.80403 0.0
C148 C 0.50019 0.98867 0.49011 0.0
C149 C 0.47476 0.98265 0.45587 0.0
C150 C 0.45455 0.99812 0.48631 0.0
C151 C 0.42992 0.9897 0.47647 0.0
C152 C 0.42515 0.96585 0.43544 0.0
C153 C 0.44505 0.9508 0.40018 0.0
C154 C 0.46991 0.95906 0.41175 0.0
C155 C 0.51853 0.97598 0.83698 0.0
O156 O 0.56226 0.03048 0.80433 0.0
O157 O 0.55424 1.00977 0.65275 0.0
O158 O 0.53619 0.07072 0.94994 0.0
O159 O 0.52154 0.03622 0.01818 0.0
O160 O 0.51799 0.07791 0.77297 0.0
O161 O 0.51391 0.04448 0.69752 0.0
O162 O 0.47216 1.01348 0.71937 0.0
O163 O 0.48022 0.03505 0.8697 0.0
O164 O 0.50834 0.97353 0.56067 0.0
O165 O 0.50462 1.01256 0.50941 0.0
O166 O 0.51383 0.96698 0.74846 0.0
O167 O 0.51956 0.99987 0.82714 0.0
H168 H 0.55645 1.01067 0.08466 0.0
H169 H 0.6009 1.00083 0.08391 0.0
H170 H 0.6188 0.08035 0.05999 0.0
H171 H 0.5738 0.09028 0.0543 0.0
H172 H 0.45775 1.01625 0.52191 0.0
H173 H 0.41452 1.00171 0.50152 0.0
H174 H 0.44136 0.93252 0.3666 0.0
H175 H 0.4853 0.94662 0.39068 0.0
Ho176 Ho 0.50074 0.52175 0.83481 0.0
Ho177 Ho 0.53598 0.51554 0.6795 0.0
C178 C 0.52019 0.5719 0.71233 0.0
C179 C 0.47515 0.53542 0.99057 0.0
C180 C 0.47087 0.56081 0.02949 0.0
C181 C 0.4901 0.57893 0.0202 0.0
C182 C 0.48484 0.60421 0.03731 0.0
C183 C 0.46036 0.61166 0.06413 0.0
C184 C 0.44136 0.59362 0.07872 0.0
C185 C 0.4466 0.56813 0.06072 0.0
C186 C 0.47754 0.50956 0.65847 0.0
C187 C 0.51549 0.46525 0.79438 0.0
C188 C 0.56253 0.50107 0.52848 0.0
C189 C 0.56412 0.47544 0.48852 0.0
C190 C 0.54183 0.46222 0.46575 0.0
C191 C 0.54242 0.43621 0.45384 0.0
C192 C 0.56525 0.42305 0.46446 0.0
C193 C 0.58772 0.43625 0.48263 0.0
C194 C 0.58718 0.46241 0.49408 0.0
C195 C 0.5587 0.52698 0.85769 0.0
O196 O 0.51141 0.56298 0.79889 0.0
O197 O 0.52875 0.55613 0.6443 0.0
O198 O 0.46491 0.53135 0.90315 0.0
O199 O 0.49842 0.52726 0.99531 0.0
O200 O 0.4721 0.49999 0.74545 0.0
O201 O 0.49547 0.5252 0.66883 0.0
O202 O 0.52373 0.47451 0.70772 0.0
O203 O 0.50806 0.48084 0.86532 0.0
O204 O 0.57183 0.50345 0.61857 0.0
O205 O 0.5407 0.51235 0.51881 0.0
O206 O 0.56369 0.53774 0.77251 0.0
O207 O 0.54099 0.51123 0.84507 0.0
H208 H 0.50896 0.57376 0.99571 0.0
H209 H 0.49974 0.61809 0.02752 0.0
H210 H 0.42248 0.59933 0.10076 0.0
H211 H 0.43155 0.55432 0.06716 0.0
H212 H 0.52365 0.47166 0.46283 0.0
H213 H 0.52486 0.42625 0.44011 0.0
H214 H 0.60555 0.42629 0.48951 0.0
H215 H 0.60446 0.47227 0.51307 0.0
Ho216 Ho 1.01498 0.49885 0.8265 0.0
Ho217 Ho 0.02421 0.53246 0.66304 0.0
C218 C 0.96617 0.51832 0.70185 0.0
C219 C 1.00042 0.47427 0.98315 0.0
C220 C 0.97572 0.47444 0.0312 0.0
C221 C 0.96036 0.49592 0.02044 0.0
C222 C 0.93459 0.49419 0.03817 0.0
C223 C 0.92401 0.47104 0.06691 0.0
C224 C 0.93943 0.45 0.08476 0.0
C225 C 0.96536 0.45168 0.06641 0.0
C226 C 0.0297 0.4742 0.65563 0.0
C227 C 0.07194 0.51344 0.78696 0.0
C228 C 0.0307 0.55696 0.49795 0.0
C229 C 0.05211 0.5719 0.46177 0.0
C230 C 0.06404 0.56426 0.37303 0.0
C231 C 0.08862 0.57196 0.35269 0.0
C232 C 0.10155 0.58787 0.42015 0.0
C233 C 0.08833 0.59793 0.50268 0.0
C234 C 0.06389 0.58971 0.52427 0.0
C235 C 0.02522 0.5568 0.84429 0.0
O236 O 0.97409 0.5069 0.78453 0.0
O237 O 0.98238 0.52878 0.63938 0.0
O238 O 0.99995 0.46485 0.89264 0.0
O239 O 1.0133 0.49537 0.98834 0.0
O240 O 0.03832 0.46959 0.74458 0.0
O241 O 1.01403 0.49215 0.66139 0.0
O242 O 0.06401 0.51845 0.69481 0.0
O243 O 0.05526 0.50956 0.85899 0.0
O244 O 0.01786 0.56612 0.57381 0.0
O245 O 0.03586 0.53289 0.50827 0.0
O246 O 0.0411 0.56034 0.77156 0.0
O247 O 1.00927 0.54024 0.81764 0.0
H248 H 0.96792 0.51354 0.99162 0.0
H249 H 0.92273 0.51062 0.02517 0.0
H250 H 0.93128 0.4321 0.10767 0.0
H251 H 0.97699 0.43488 0.07327 0.0
H252 H 0.05525 0.55043 0.32425 0.0
H253 H 0.09808 0.56344 0.28896 0.0
H254 H 0.09748 0.61069 0.55471 0.0
H255 H 0.05506 0.59587 0.59357 0.0
C256 C 0.17334 0.04197 0.2776 0.0
C257 C 0.1724 0.02519 0.19595 0.0
C258 C 0.15354 0.04275 0.34972 0.0
C259 C 0.13225 0.02649 0.33998 0.0
C260 C 0.13093 1.01034 0.25525 0.0
C261 C 0.15094 1.00983 0.18524 0.0
C262 C 0.15587 0.06025 0.43863 0.0
C263 C 0.10884 0.99269 0.24053 0.0
C264 C 0.09899 1.00462 0.58064 0.0
C265 C 0.07637 0.01853 0.58027 0.0
C266 C 0.11695 1.00688 0.50288 0.0
C267 C 0.11283 0.02419 0.42306 0.0
C268 C 0.08998 0.03842 0.42213 0.0
C269 C 0.07187 0.03519 0.49999 0.0
C270 C 0.14043 0.99061 0.50636 0.0
C271 C 0.08491 0.05743 0.34 0.0
H272 H 0.18993 0.0537 0.28752 0.0
H273 H 0.15009 0.99677 0.12256 0.0
H274 H 0.13823 0.07137 0.4483 0.0
H275 H 0.15857 0.04896 0.50815 0.0
H276 H 0.17204 0.0735 0.43066 0.0
H277 H 0.11032 0.98184 0.16938 0.0
H278 H 0.10777 0.97907 0.30394 0.0
H279 H 0.09089 1.00354 0.23991 0.0
H280 H 0.10266 0.99172 0.64238 0.0
H281 H 0.05467 0.04635 0.49995 0.0
H282 H 0.1575 1.00274 0.50972 0.0
H283 H 0.14184 0.9791 0.43689 0.0
H284 H 0.14055 0.97764 0.57212 0.0
H285 H 0.10018 0.07182 0.33867 0.0
H286 H 0.06648 0.06721 0.35012 0.0
H287 H 0.08501 0.04794 0.26575 0.0
C288 C 0.52291 0.15282 0.18309 0.0
C289 C 0.50764 0.17451 0.18842 0.0
C290 C 0.52174 0.13361 0.25637 0.0
C291 C 0.50504 0.13601 0.33913 0.0
C292 C 0.48879 0.15747 0.34324 0.0
C293 C 0.49028 0.17648 0.26805 0.0
C294 C 0.53964 0.11149 0.24739 0.0
C295 C 0.47045 0.16077 0.42918 0.0
C296 C 0.49605 0.07774 0.51125 0.0
C297 C 0.51219 0.0836 0.59147 0.0
C298 C 0.49311 0.0947 0.4292 0.0
C299 C 0.50695 0.1178 0.42647 0.0
C300 C 0.52371 0.12323 0.5064 0.0
C301 C 0.52582 0.10635 0.58771 0.0
C302 C 0.47502 0.08809 0.34592 0.0
C303 C 0.53958 0.14697 0.50626 0.0
H304 H 0.53647 0.15114 0.12218 0.0
H305 H 0.47849 0.1932 0.27357 0.0
H306 H 0.53084 0.09362 0.27342 0.0
H307 H 0.546 0.10894 0.16866 0.0
H308 H 0.55653 0.11507 0.29459 0.0
H309 H 0.45714 0.1767 0.41618 0.0
H310 H 0.45942 0.14315 0.44083 0.0
H311 H 0.48103 0.16447 0.4995 0.0
H312 H 0.48508 0.06046 0.5143 0.0
H313 H 0.53836 0.11103 0.64929 0.0
H314 H 0.48541 0.08662 0.27364 0.0
H315 H 0.46079 0.10338 0.3372 0.0
H316 H 0.46504 0.06995 0.36014 0.0
H317 H 0.55169 0.14746 0.43806 0.0
H318 H 0.55193 0.14831 0.57345 0.0
H319 H 0.5272 0.16391 0.50399 0.0
C320 C 0.36737 0.49869 0.23497 0.0
C321 C 0.35856 0.52311 0.21254 0.0
C322 C 0.38851 0.49503 0.29873 0.0
C323 C 0.40088 0.51621 0.3425 0.0
C324 C 0.39235 0.54083 0.31733 0.0
C325 C 0.37152 0.54391 0.25286 0.0
C326 C 0.39732 0.46847 0.3209 0.0
C327 C 0.40456 0.56406 0.36179 0.0
C328 C 0.43267 0.50863 0.59878 0.0
C329 C 0.4585 0.5105 0.57551 0.0
C330 C 0.41396 0.51024 0.52389 0.0
C331 C 0.42104 0.51288 0.42157 0.0
C332 C 0.4472 0.51403 0.39698 0.0
C333 C 0.46558 0.51335 0.47433 0.0
C334 C 0.38649 0.50991 0.55503 0.0
C335 C 0.45578 0.51614 0.28904 0.0
H336 H 0.35756 0.48248 0.20425 0.0
H337 H 0.36488 0.56285 0.2359 0.0
H338 H 0.41809 0.46701 0.31019 0.0
H339 H 0.39323 0.46371 0.40049 0.0
H340 H 0.3879 0.45427 0.27224 0.0
H341 H 0.39612 0.58188 0.33282 0.0
H342 H 0.40251 0.56373 0.4448 0.0
H343 H 0.42508 0.56423 0.34467 0.0
H344 H 0.42695 0.50666 0.67667 0.0
H345 H 0.48549 0.51467 0.45554 0.0
H346 H 0.37652 0.49409 0.51757 0.0
H347 H 0.37717 0.52773 0.53087 0.0
H348 H 0.38407 0.50786 0.63758 0.0
H349 H 0.44561 0.50225 0.24154 0.0
H350 H 0.47645 0.51296 0.28091 0.0
H351 H 0.45129 0.53525 0.25962 0.0
C352 C 0.04461 0.37139 0.20234 0.0
C353 C 0.0216 0.35845 0.19387 0.0
C354 C 0.0477 0.39097 0.2739 0.0
C355 C 0.0276 0.39721 0.34066 0.0
C356 C 1.00471 0.38342 0.33432 0.0
C357 C 1.00191 0.3646 0.26046 0.0
C358 C 0.07218 0.40556 0.27597 0.0
C359 C 0.98297 0.38868 0.40512 0.0
C360 C 0.04046 0.43105 0.58951 0.0
C361 C 0.03083 0.45541 0.5718 0.0
C362 C 0.04002 0.41222 0.51469 0.0
C363 C 0.0303 0.41786 0.41801 0.0
C364 C 0.02136 0.44275 0.3984 0.0
C365 C 0.02144 0.4611 0.47573 0.0
C366 C 0.04904 0.38591 0.54074 0.0
C367 C 1.01119 0.44986 0.29625 0.0
H368 H 0.0598 0.36692 0.1505 0.0
H369 H 0.98408 0.35459 0.25459 0.0
H370 H 0.06836 0.42587 0.26103 0.0
H371 H 0.08088 0.40427 0.35154 0.0
H372 H 0.08596 0.39854 0.21939 0.0
H373 H 0.967 0.37533 0.39437 0.0
H374 H 0.98945 0.38734 0.48421 0.0
H375 H 0.97589 0.40821 0.39328 0.0
H376 H 0.04764 0.42638 0.66346 0.0
H377 H 1.014 0.47986 0.46113 0.0
H378 H 0.06379 0.3797 0.48683 0.0
H379 H 0.03306 0.37241 0.53474 0.0
H380 H 0.05687 0.38476 0.618 0.0
H381 H 0.0246 0.44394 0.23646 0.0
H382 H 1.00773 0.47052 0.28921 0.0
H383 H 0.99312 0.43982 0.28265 0.0
C384 C 0.8854 0.99585 0.35114 0.0
C385 C 0.86346 1.01079 0.34854 0.0
C386 C 0.90428 0.99776 0.2767 0.0
C387 C 0.90116 1.01476 0.19523 0.0
C388 C 0.87932 0.03051 0.1934 0.0
C389 C 0.86079 0.02845 0.27024 0.0
C390 C 0.92718 0.98079 0.28356 0.0
C391 C 0.87513 0.04888 0.1082 0.0
C392 C 0.95905 0.02816 0.02706 0.0
C393 C 0.95519 1.01135 0.94671 0.0
C394 C 0.94158 0.0298 0.10773 0.0
C395 C 0.91963 1.0143 0.10844 0.0
C396 C 0.91583 0.99727 0.0276 0.0
C397 C 0.93355 0.996 0.94846 0.0
C398 C 0.94662 0.04807 0.19242 0.0
C399 C 0.89299 0.98018 0.02466 0.0
H400 H 0.88762 0.98215 0.41122 0.0
H401 H 0.84384 0.03994 0.26678 0.0
H402 H 0.92705 0.96709 0.22049 0.0
H403 H 0.94475 0.99211 0.27682 0.0
H404 H 0.92779 0.97005 0.35536 0.0
H405 H 0.85833 0.0611 0.12087 0.0
H406 H 0.89201 0.06108 0.09813 0.0
H407 H 0.87244 0.0383 0.03708 0.0
H408 H 0.97565 0.04017 0.02656 0.0
H409 H 0.93031 0.98296 0.88704 0.0
H410 H 0.94871 0.03754 0.26411 0.0
H411 H 0.93035 0.06113 0.2017 0.0
H412 H 0.96399 0.05943 0.17962 0.0
H413 H 0.89304 0.96743 0.09095 0.0
H414 H 0.89242 0.96842 0.95559 0.0
H415 H 0.87544 0.99164 0.02843 0.0
C416 C 0.5139 0.87125 0.28805 0.0
C417 C 0.53857 0.86192 0.30159 0.0
C418 C 0.50923 0.89261 0.22563 0.0
C419 C 0.52959 0.90495 0.17546 0.0
C420 C 0.55453 0.89644 0.19476 0.0
C421 C 0.55861 0.87507 0.25606 0.0
C422 C 0.4824 0.90135 0.20974 0.0
C423 C 0.57699 0.90931 0.14689 0.0
C424 C 0.52123 0.93282 0.91228 0.0
C425 C 0.52089 0.95914 0.92802 0.0
C426 C 0.52306 0.91539 0.99198 0.0
C427 C 0.52506 0.92407 0.09228 0.0
C428 C 0.52457 0.9507 0.10959 0.0
C429 C 0.52206 0.96783 0.02754 0.0
C430 C 0.52332 0.88745 0.96803 0.0
C431 C 0.52624 0.96139 0.21429 0.0
H432 H 0.49821 0.86126 0.3223 0.0
H433 H 0.57774 0.86815 0.26629 0.0
H434 H 0.48114 0.92219 0.21839 0.0
H435 H 0.47645 0.89674 0.13199 0.0
H436 H 0.46905 0.89225 0.26322 0.0
H437 H 0.59521 0.90226 0.17745 0.0
H438 H 0.57681 0.90597 0.06459 0.0
H439 H 0.5759 0.93006 0.15903 0.0
H440 H 0.52011 0.92559 0.83624 0.0
H441 H 0.52081 0.9879 0.0416 0.0
H442 H 0.50849 0.87754 0.01207 0.0
H443 H 0.54182 0.87916 0.98958 0.0
H444 H 0.52012 0.88365 0.88697 0.0
H445 H 0.5068 0.96459 0.24289 0.0
H446 H 0.53604 0.97996 0.21391 0.0
H447 H 0.53616 0.94853 0.26709 0.0
C448 C 0.67469 0.51298 0.25317 0.0
C449 C 0.67399 0.53298 0.32258 0.0
C450 C 0.65494 0.50958 0.18245 0.0
C451 C 0.63373 0.52617 0.18247 0.0
C452 C 0.63243 0.54532 0.25677 0.0
C453 C 0.65266 0.54873 0.32406 0.0
C454 C 0.65744 0.48914 0.10406 0.0
C455 C 0.61015 0.56312 0.26239 0.0
C456 C 0.59927 0.54134 0.93663 0.0
C457 C 0.57719 0.52668 0.94311 0.0
C458 C 0.6178 0.54086 0.01254 0.0
C459 C 0.61435 0.52551 0.09905 0.0
C460 C 0.59197 0.51074 0.1068 0.0
C461 C 0.57375 0.51141 0.02874 0.0
C462 C 0.64116 0.55696 0.99994 0.0
C463 C 0.58722 0.49437 0.19793 0.0
H464 H 0.69128 0.50096 0.2501 0.0
H465 H 0.65207 0.5643 0.37699 0.0
H466 H 0.63991 0.47767 0.10075 0.0
H467 H 0.66008 0.49795 0.029 0.0
H468 H 0.67371 0.47639 0.11898 0.0
H469 H 0.61052 0.57492 0.33137 0.0
H470 H 0.61026 0.57585 0.19604 0.0
H471 H 0.59217 0.55235 0.26097 0.0
H472 H 0.60224 0.55319 0.87113 0.0
H473 H 0.55683 0.49995 0.03472 0.0
H474 H 0.65835 0.545 0.00558 0.0
H475 H 0.64209 0.57118 0.06103 0.0
H476 H 0.64154 0.56707 0.9267 0.0
H477 H 0.60291 0.48063 0.20739 0.0
H478 H 0.56915 0.48377 0.19265 0.0
H479 H 0.58673 0.50625 0.26658 0.0
C480 C 0.98224 0.67353 0.17839 0.0
C481 C 0.99503 0.67826 0.26885 0.0
C482 C 0.98823 0.65271 0.11689 0.0
C483 C 1.00736 0.63548 0.14639 0.0
C484 C 0.02037 0.63997 0.23826 0.0
C485 C 1.01427 0.66144 0.29786 0.0
C486 C 0.97412 0.64933 0.01927 0.0
C487 C 0.04055 0.62197 0.27394 0.0
C488 C 1.00406 0.57196 0.00543 0.0
C489 C 0.02187 0.5755 0.92818 0.0
C490 C 1.00022 0.59057 0.08064 0.0
C491 C 1.01411 0.61361 0.0779 0.0
C492 C 0.03257 0.61684 1.00152 0.0
C493 C 0.03636 0.59779 0.92887 0.0
C494 C 0.98077 0.58588 0.1616 0.0
C495 C 0.04758 0.64104 0.99333 0.0
H496 H 0.96746 0.68645 0.15472 0.0
H497 H 0.02427 0.66483 0.3675 0.0
H498 H 0.98763 0.6493 0.95536 0.0
H499 H 0.96426 0.63081 0.019 0.0
H500 H 0.95992 0.66448 0.00642 0.0
H501 H 0.04756 0.62683 0.35011 0.0
H502 H 0.033 0.6024 0.27524 0.0
H503 H 0.05676 0.62215 0.22092 0.0
H504 H 0.99292 0.55477 0.00652 0.0
H505 H 0.05026 0.60079 0.87008 0.0
H506 H 0.96468 0.59914 0.15202 0.0
H507 H 0.98906 0.58954 0.23672 0.0
H508 H 0.9734 0.56622 0.15983 0.0
H509 H 0.03464 0.65702 0.97642 0.0
H510 H 0.06222 0.64012 0.93346 0.0
H511 H 0.05695 0.64529 0.06578 0.0
C512 C 0.99687 0.25205 0.35784 0.0
C513 C 0.98287 0.25642 0.27041 0.0
C514 C 0.98963 0.23275 0.42387 0.0
C515 C 0.96817 0.21808 0.39956 0.0
C516 C 0.95114 0.22654 0.32493 0.0
C517 C 0.95887 0.24577 0.25994 0.0
C518 C 1.00784 0.22456 0.50478 0.0
C519 C 0.92757 0.21184 0.29943 0.0
C520 C 0.9806 0.14907 0.35805 0.0
C521 C 0.96701 0.13822 0.4366 0.0
C522 C 0.98204 0.17516 0.34837 0.0
C523 C 0.96915 0.19072 0.41886 0.0
C524 C 0.95584 0.17981 0.50017 0.0
C525 C 0.95495 0.15343 0.50824 0.0
C526 C 0.99621 0.18566 0.25882 0.0
C527 C 0.94257 0.19584 0.57783 0.0
H528 H 1.01533 0.26072 0.36618 0.0
H529 H 0.94792 0.24974 0.1929 0.0
H530 H 0.99773 0.2161 0.56966 0.0
H531 H 0.02082 0.20999 0.47384 0.0
H532 H 0.01943 0.24072 0.53137 0.0
H533 H 0.93267 0.1959 0.249 0.0
H534 H 0.91863 0.20382 0.36788 0.0
H535 H 0.91359 0.22393 0.25971 0.0
H536 H 0.98975 0.13702 0.30285 0.0
H537 H 0.94498 0.14467 0.57047 0.0
H538 H 1.00817 0.20197 0.27988 0.0
H539 H 0.9823 0.19195 0.20185 0.0
H540 H 1.00864 0.17126 0.2233 0.0
H541 H 0.95682 0.20573 0.62435 0.0
H542 H 0.93042 0.18434 0.62847 0.0
H543 H 0.93077 0.21055 0.54129 0.0
C544 C 0.28155 0.96488 0.30799 0.0
C545 C 0.27944 0.99124 0.30575 0.0
C546 C 0.30163 0.95348 0.35942 0.0
C547 C 0.32006 0.96915 0.40406 0.0
C548 C 0.3153 0.99533 0.41657 0.0
C549 C 0.29441 1.00602 0.36881 0.0
C550 C 0.30555 0.92533 0.35041 0.0
C551 C 0.33447 1.01284 0.46339 0.0
C552 C 0.38403 0.95358 0.50843 0.0
C553 C 0.39896 0.95816 0.42344 0.0
C554 C 0.35766 0.95408 0.5015 0.0
C555 C 0.3465 0.96039 0.40838 0.0
C556 C 0.36174 0.96293 0.32078 0.0
C557 C 0.38792 0.96141 0.32961 0.0
C558 C 0.34214 0.95029 0.59559 0.0
C559 C 0.35107 0.97079 0.22023 0.0
H560 H 0.26974 0.95354 0.25916 0.0
H561 H 0.29246 0.02645 0.36656 0.0
H562 H 0.31513 0.91766 0.41808 0.0
H563 H 0.28728 0.91535 0.33972 0.0
H564 H 0.31773 0.92133 0.28427 0.0
H565 H 0.3262 0.03161 0.4817 0.0
H566 H 0.34227 1.00447 0.53282 0.0
H567 H 0.3504 1.01576 0.41015 0.0
H568 H 0.39296 0.95131 0.58118 0.0
H569 H 0.39984 0.96542 0.265 0.0
H570 H 0.32297 0.94302 0.57833 0.0
H571 H 0.3401 0.96859 0.63548 0.0
H572 H 0.35169 0.93694 0.64772 0.0
H573 H 0.33342 0.96048 0.20263 0.0
H574 H 0.3647 0.96752 0.15792 0.0
H575 H 0.3468 0.99133 0.22259 0.0
C576 C 0.53809 0.28137 0.36933 0.0
C577 C 0.55268 0.27701 0.28308 0.0
C578 C 0.54469 0.30085 0.4353 0.0
C579 C 0.56622 0.31562 0.41278 0.0
C580 C 0.58385 0.30716 0.3402 0.0
C581 C 0.5767 0.28785 0.27469 0.0
C582 C 0.52596 0.30894 0.51466 0.0
C583 C 0.60771 0.32178 0.31813 0.0
C584 C 0.55346 0.38473 0.37203 0.0
C585 C 0.56539 0.39554 0.45461 0.0
C586 C 0.55287 0.35866 0.36018 0.0
C587 C 0.56505 0.34301 0.43226 0.0
C588 C 0.57692 0.35385 0.5169 0.0
C589 C 0.57683 0.38021 0.52742 0.0
C590 C 0.54011 0.34827 0.26748 0.0
C591 C 0.58948 0.33787 0.59649 0.0
H592 H 0.51964 0.27259 0.37634 0.0
H593 H 0.58814 0.28395 0.20878 0.0
H594 H 0.53582 0.31631 0.58195 0.0
H595 H 0.51393 0.32438 0.48428 0.0
H596 H 0.51346 0.29305 0.53745 0.0
H597 H 0.62199 0.30971 0.28002 0.0
H598 H 0.60318 0.33788 0.26754 0.0
H599 H 0.61596 0.32957 0.38813 0.0
H600 H 0.54487 0.39682 0.31558 0.0
H601 H 0.58556 0.38883 0.59255 0.0
H602 H 0.52819 0.33166 0.28558 0.0
H603 H 0.55486 0.34242 0.21292 0.0
H604 H 0.5279 0.36257 0.2303 0.0
H605 H 0.57488 0.33089 0.64964 0.0
H606 H 0.60347 0.34897 0.64021 0.0
H607 H 0.59911 0.32118 0.56343 0.0
C608 C 0.24682 0.56222 0.32379 0.0
C609 C 0.2441 0.5362 0.3081 0.0
C610 C 0.22736 0.57597 0.36984 0.0
C611 C 0.20495 0.56319 0.39758 0.0
C612 C 0.20407 0.5364 0.39619 0.0
C613 C 0.22412 0.52313 0.35311 0.0
C614 C 0.22929 0.60441 0.37459 0.0
C615 C 0.18039 0.52186 0.42242 0.0
C616 C 0.14406 0.58816 0.50212 0.0
C617 C 0.12947 0.58972 0.41406 0.0
C618 C 0.16989 0.58252 0.49741 0.0
C619 C 0.18089 0.57721 0.40323 0.0
C620 C 0.16693 0.58108 0.31376 0.0
C621 C 0.14155 0.58814 0.32047 0.0
C622 C 0.18473 0.57964 0.59342 0.0
C623 C 0.17787 0.57509 0.21134 0.0
H624 H 0.26246 0.57221 0.28901 0.0
H625 H 0.22231 0.50293 0.34064 0.0
H626 H 0.2211 0.6127 0.30529 0.0
H627 H 0.21867 0.61208 0.43978 0.0
H628 H 0.24932 0.61056 0.37953 0.0
H629 H 0.18484 0.50201 0.44376 0.0
H630 H 0.16978 0.53088 0.48452 0.0
H631 H 0.16785 0.52138 0.35567 0.0
H632 H 0.1351 0.58925 0.57524 0.0
H633 H 0.13063 0.59029 0.25217 0.0
H634 H 0.20351 0.5888 0.58604 0.0
H635 H 0.18811 0.55929 0.6087 0.0
H636 H 0.17462 0.58799 0.65866 0.0
H637 H 0.19611 0.58501 0.20026 0.0
H638 H 0.16492 0.5805 0.14928 0.0
H639 H 0.18161 0.55446 0.2057 0.0
C640 C 0.05525 0.78239 0.17623 0.0
C641 C 0.02886 0.78316 0.18137 0.0
C642 C 0.06857 0.80274 0.13491 0.0
C643 C 0.0548 0.82364 0.0976 0.0
C644 C 0.02821 0.8219 0.08591 0.0
C645 C 1.0155 0.80117 0.12647 0.0
C646 C 0.09685 0.80369 0.14891 0.0
C647 C 1.0128 0.84329 0.04299 0.0
C648 C 0.07214 0.8889 0.18402 0.0
C649 C 0.07681 0.90097 0.09208 0.0
C650 C 0.06576 0.86334 0.18743 0.0
C651 C 0.06652 0.84894 0.09793 0.0
C652 C 0.07543 0.85989 0.00811 0.0
C653 C 0.07964 0.88609 0.00496 0.0
C654 C 0.05553 0.85271 0.28474 0.0
C655 C 0.07928 0.84405 0.91509 0.0
H656 H 0.06544 0.76817 0.21892 0.0
H657 H 0.99501 0.80122 0.13 0.0
H658 H 0.10614 0.8162 0.09305 0.0
H659 H 0.10105 0.81115 0.22498 0.0
H660 H 0.10519 0.78445 0.14356 0.0
H661 H 0.99213 0.83969 0.04699 0.0
H662 H 1.01692 0.86135 0.08206 0.0
H663 H 0.01802 0.84538 0.9634 0.0
H664 H 0.07141 0.89982 0.25277 0.0
H665 H 0.08364 0.89486 0.93314 0.0
H666 H 0.05875 0.8657 0.34877 0.0
H667 H 0.06419 0.83414 0.30238 0.0
H668 H 0.03483 0.84999 0.27724 0.0
H669 H 0.09181 0.82779 0.93221 0.0
H670 H 0.08788 0.85505 0.85261 0.0
H671 H 0.06098 0.83601 0.89019 0.0
C672 C 0.75325 0.02985 0.18512 0.0
C673 C 0.75962 1.00426 0.19444 0.0
C674 C 0.73215 0.03703 0.12944 0.0
C675 C 0.71915 0.0183 0.0737 0.0
C676 C 0.72999 0.99388 0.06262 0.0
C677 C 0.7496 0.98668 0.12747 0.0
C678 C 0.7218 0.06349 0.14426 0.0
C679 C 0.71881 0.97416 0.99395 0.0
C680 C 0.64969 1.01588 0.13137 0.0
C681 C 0.63999 0.03338 0.06351 0.0
C682 C 0.67519 1.00977 0.13095 0.0
C683 C 0.6916 0.02148 0.06003 0.0
C684 C 0.68167 0.03872 0.98867 0.0
C685 C 0.65582 0.0445 0.99139 0.0
C686 C 0.68455 0.99228 0.21244 0.0
C687 C 0.698 0.05211 0.91226 0.0
H688 H 0.76174 0.04344 0.23598 0.0
H689 H 0.75519 0.96699 0.13286 0.0
H690 H 0.72418 0.07446 0.07389 0.0
H691 H 0.70138 0.06311 0.16358 0.0
H692 H 0.73177 0.07389 0.20488 0.0
H693 H 0.71762 0.95556 0.03265 0.0
H694 H 0.6998 0.97931 0.9656 0.0
H695 H 0.73158 0.97172 0.92837 0.0
H696 H 0.63738 1.00765 0.18795 0.0
H697 H 0.64807 0.05787 0.93786 0.0
H698 H 0.69998 1.00177 0.25294 0.0
H699 H 0.69185 0.9745 0.17933 0.0
H700 H 0.66965 0.98724 0.26794 0.0
H701 H 0.69794 0.07273 0.92802 0.0
H702 H 0.68976 0.0498 0.83658 0.0
H703 H 0.71777 0.04516 0.91038 0.0
C704 C 0.51973 0.7332 0.15273 0.0
C705 C 0.50619 0.75271 0.19828 0.0
C706 C 0.50689 0.7132 0.10803 0.0
C707 C 0.48009 0.71389 0.10458 0.0
C708 C 0.46694 0.73607 0.13234 0.0
C709 C 0.48031 0.75547 0.17977 0.0
C710 C 0.52194 0.68973 0.08351 0.0
C711 C 0.43848 0.73756 0.12848 0.0
C712 C 0.45546 0.65412 0.99165 0.0
C713 C 0.45559 0.63856 0.07678 0.0
C714 C 0.46064 0.67994 1.00041 0.0
C715 C 0.46633 0.68982 0.09617 0.0
C716 C 0.46366 0.67457 0.18341 0.0
C717 C 0.45824 0.64891 0.17236 0.0
C718 C 0.46297 0.69595 0.90689 0.0
C719 C 0.46965 0.68445 0.28721 0.0
H720 H 0.53982 0.73136 0.16758 0.0
H721 H 0.46997 0.77078 0.21529 0.0
H722 H 0.52534 0.67894 0.15386 0.0
H723 H 0.51195 0.67718 0.03089 0.0
H724 H 0.54065 0.69478 0.05118 0.0
H725 H 0.43195 0.75752 0.12491 0.0
H726 H 0.43084 0.72711 0.06309 0.0
H727 H 0.43052 0.72888 0.19763 0.0
H728 H 0.45366 0.64566 0.91779 0.0
H729 H 0.45865 0.6365 0.23736 0.0
H730 H 0.48283 0.70226 0.89726 0.0
H731 H 0.45122 0.71323 0.91424 0.0
H732 H 0.45705 0.68556 0.83853 0.0
H733 H 0.49044 0.68641 0.29523 0.0
H734 H 0.46282 0.67147 0.34715 0.0
H735 H 0.46109 0.70335 0.29921 0.0
C736 C 0.77934 0.49464 0.15691 0.0
C737 C 0.78255 0.52004 0.18402 0.0
C738 C 0.7988 0.48175 0.10754 0.0
C739 C 0.82124 0.49501 0.08503 0.0
C740 C 0.82195 0.52174 0.09327 0.0
C741 C 0.80207 0.53414 0.14127 0.0
C742 C 0.79723 0.45337 0.09787 0.0
C743 C 0.84534 0.5367 0.068 0.0
C744 C 0.8849 0.47207 0.1661 0.0
C745 C 0.89662 0.46922 0.0731 0.0
C746 C 0.85922 0.47792 0.17136 0.0
C747 C 0.84542 0.48126 0.08085 0.0
C748 C 0.85669 0.47561 0.98734 0.0
C749 C 0.88245 0.46971 0.9845 0.0
C750 C 0.84786 0.48326 0.27345 0.0
C751 C 0.84202 0.47733 0.89046 0.0
H752 H 0.76384 0.48387 0.18904 0.0
H753 H 0.80403 0.55394 0.16115 0.0
H754 H 0.80742 0.44664 0.03014 0.0
H755 H 0.80621 0.44448 0.16449 0.0
H756 H 0.77728 0.4469 0.09436 0.0
H757 H 0.84158 0.55737 0.065 0.0
H758 H 0.86013 0.5331 0.12535 0.0
H759 H 0.85277 0.53057 0.99466 0.0
H760 H 0.89621 0.47174 0.23403 0.0
H761 H 0.89193 0.46726 0.91278 0.0
H762 H 0.82774 0.47754 0.27762 0.0
H763 H 0.84904 0.50386 0.28861 0.0
H764 H 0.85831 0.47319 0.33379 0.0
H765 H 0.8287 0.4612 0.88575 0.0
H766 H 0.85463 0.47661 0.82393 0.0
H767 H 0.83064 0.49495 0.88728 0.0
C768 C 0.04275 0.21722 0.93765 0.0
C769 C 0.01956 0.22992 0.94817 0.0
C770 C 0.04397 0.19255 0.89596 0.0
C771 C 0.02145 0.17989 0.86656 0.0
C772 C 0.99832 0.1934 0.87051 0.0
C773 C 0.99775 0.21817 0.90969 0.0
C774 C 0.06924 0.17946 0.88845 0.0
C775 C 0.97374 0.18094 0.84139 0.0
C776 C 0.01983 0.11639 0.72382 0.0
C777 C 0.01902 0.09876 0.80283 0.0
C778 C 0.0216 0.1427 0.74264 0.0
C779 C 0.02149 0.15187 0.84317 0.0
C780 C 0.02008 0.13404 0.92296 0.0
C781 C 0.0194 0.10791 0.90192 0.0
C782 C 0.02319 0.16047 0.65401 0.0
C783 C 0.01839 0.14256 0.03108 0.0
H784 H 0.05967 0.22581 0.96809 0.0
H785 H 0.9797 0.22768 0.91806 0.0
H786 H 0.0707 0.16476 0.94772 0.0
H787 H 0.07114 0.16984 0.81469 0.0
H788 H 0.08519 0.19291 0.8977 0.0
H789 H 0.95749 0.19425 0.84466 0.0
H790 H 0.97506 0.1732 0.76423 0.0
H791 H 0.96987 0.16483 0.89279 0.0
H792 H 0.01952 0.10962 0.64699 0.0
H793 H 0.01841 0.09456 0.96375 0.0
H794 H 0.03391 0.1779 0.67224 0.0
H795 H 1.00383 0.16603 0.631 0.0
H796 H 0.03227 0.15112 0.58848 0.0
H797 H 0.03549 0.15348 0.05162 0.0
H798 H 1.01645 0.12645 0.08427 0.0
H799 H 1.00185 0.15528 0.04084 0.0
C800 C 0.31765 0.04844 0.96594 0.0
C801 C 0.30555 0.02506 0.98041 0.0
C802 C 0.3425 0.04982 0.92567 0.0
C803 C 0.35599 0.02728 0.90181 0.0
C804 C 0.34324 1.00382 0.91087 0.0
C805 C 0.31826 1.00308 0.94805 0.0
C806 C 0.35487 0.07534 0.91415 0.0
C807 C 0.35666 0.97917 0.88932 0.0
C808 C 0.41838 0.02587 0.75156 0.0
C809 C 0.43667 0.02566 0.8279 0.0
C810 C 0.39224 0.02728 0.77411 0.0
C811 C 0.38389 0.0278 0.87565 0.0
C812 C 0.40235 0.02734 0.95296 0.0
C813 C 0.42833 0.0267 0.92824 0.0
C814 C 0.37353 0.02839 0.68903 0.0
C815 C 0.39466 0.02689 0.06232 0.0
H816 H 0.30839 0.0655 0.99214 0.0
H817 H 0.30931 0.98487 0.95997 0.0
H818 H 0.36917 0.07791 0.97409 0.0
H819 H 0.36486 0.07666 0.84087 0.0
H820 H 0.34093 0.09102 0.91945 0.0
H821 H 0.34368 0.96268 0.89295 0.0
H822 H 0.36562 0.97963 0.81396 0.0
H823 H 0.37195 0.97632 0.94519 0.0
H824 H 0.42451 0.02542 0.67386 0.0
H825 H 0.4422 0.0264 0.98809 0.0
H826 H 0.36304 0.04657 0.69213 0.0
H827 H 0.35943 1.01302 0.69698 0.0
H828 H 0.38279 0.02674 0.61433 0.0
H829 H 0.38366 0.04413 0.0808 0.0
H830 H 0.41119 0.02582 0.1135 0.0
H831 H 0.38226 1.01038 0.0771 0.0
C832 C 0.53768 0.31868 0.92933 0.0
C833 C 0.51584 0.30634 0.96523 0.0
C834 C 0.53686 0.34339 0.88947 0.0
C835 C 0.51343 0.35623 0.88137 0.0
C836 C 0.49097 0.343 0.90822 0.0
C837 C 0.49243 0.31839 0.95084 0.0
C838 C 0.56147 0.35654 0.86504 0.0
C839 C 0.46546 0.35546 0.89763 0.0
C840 C 0.51408 0.42832 0.91375 0.0
C841 C 0.51467 0.43729 0.81427 0.0
C842 C 0.51362 0.40222 0.93593 0.0
C843 C 0.51293 0.38422 0.85693 0.0
C844 C 0.51317 0.39315 0.75602 0.0
C845 C 0.51434 0.41948 0.736 0.0
C846 C 0.5147 0.39393 0.04451 0.0
C847 C 0.51208 0.37491 0.66905 0.0
H848 H 0.5559 0.30963 0.9397 0.0
H849 H 0.47543 0.30934 0.97875 0.0
H850 H 0.56037 0.36651 0.79186 0.0
H851 H 0.56536 0.371 0.92339 0.0
H852 H 0.57765 0.34314 0.86262 0.0
H853 H 0.44978 0.3416 0.90475 0.0
H854 H 0.46312 0.37 0.95693 0.0
H855 H 0.46396 0.36517 0.82387 0.0
H856 H 0.51457 0.44178 0.97508 0.0
H857 H 0.51465 0.42612 0.65893 0.0
H858 H 0.53176 0.38211 0.05673 0.0
H859 H 0.498 0.38215 0.06327 0.0
H860 H 0.51532 0.41019 0.09728 0.0
H861 H 0.52857 0.36195 0.67098 0.0
H862 H 0.51193 0.38476 0.59523 0.0
H863 H 0.49486 0.36304 0.67539 0.0
C864 C 0.21895 0.53047 0.92532 0.0
C865 C 0.22981 0.50831 0.96482 0.0
C866 C 0.19427 0.53065 0.88541 0.0
C867 C 0.17988 0.50802 0.88373 0.0
C868 C 0.19153 0.48517 0.9157 0.0
C869 C 0.21618 0.48563 0.95666 0.0
C870 C 0.18282 0.55566 0.85488 0.0
C871 C 0.1772 0.46052 0.91444 0.0
C872 C 0.10794 0.51409 0.91061 0.0
C873 C 0.09956 0.512 0.81079 0.0
C874 C 0.13385 0.51285 0.93505 0.0
C875 C 0.15208 0.50878 0.85833 0.0
C876 C 0.14368 0.50621 0.75768 0.0
C877 C 0.11766 0.50819 0.73496 0.0
C878 C 0.14175 0.51627 0.04319 0.0
C879 C 0.16223 0.5014 0.67384 0.0
H880 H 0.22886 0.54827 0.93475 0.0
H881 H 0.22394 0.46861 0.99013 0.0
H882 H 0.1697 0.55349 0.79066 0.0
H883 H 0.17184 0.56339 0.91904 0.0
H884 H 0.19762 0.56965 0.8344 0.0
H885 H 0.18984 0.44402 0.92704 0.0
H886 H 0.16262 0.46071 0.97451 0.0
H887 H 0.16729 0.45804 0.84175 0.0
H888 H 0.09421 0.51713 0.96998 0.0
H889 H 0.11145 0.50636 0.65775 0.0
H890 H 0.15438 0.53293 0.04963 0.0
H891 H 0.15259 0.49952 0.06905 0.0
H892 H 0.12533 0.51904 0.09424 0.0
H893 H 0.15266 0.49862 0.60053 0.0
H894 H 0.17369 0.48433 0.69074 0.0
H895 H 0.1755 0.51755 0.66765 0.0
C896 C 0.03327 0.8199 0.53104 0.0
C897 C 1.01081 0.80563 0.52642 0.0
C898 C 0.03366 0.84497 0.56759 0.0
C899 C 1.01113 0.85626 0.60422 0.0
C900 C 0.98894 0.84108 0.60948 0.0
C901 C 0.98886 0.81625 0.56858 0.0
C902 C 0.05812 0.85963 0.56282 0.0
C903 C 0.965 0.85141 0.6555 0.0
C904 C 0.01977 0.9189 0.74915 0.0
C905 C 1.01153 0.93705 0.67995 0.0
C906 C 0.01927 0.89283 0.72656 0.0
C907 C 1.01057 0.88415 0.63179 0.0
C908 C 1.00258 0.90254 0.56065 0.0
C909 C 1.00289 0.92855 0.58578 0.0
C910 C 0.02948 0.87504 0.80387 0.0
C911 C 0.99461 0.89484 0.45626 0.0
H912 H 0.0503 0.81209 0.49775 0.0
H913 H 0.9713 0.80578 0.56435 0.0
H914 H 0.05496 0.87894 0.53242 0.0
H915 H 0.06593 0.86158 0.63955 0.0
H916 H 0.07258 0.84997 0.51591 0.0
H917 H 0.95067 0.83637 0.66795 0.0
H918 H 0.96923 0.86063 0.72848 0.0
H919 H 0.95676 0.866 0.60536 0.0
H920 H 0.02684 0.92502 0.82156 0.0
H921 H 0.99666 0.94229 0.53059 0.0
H922 H 0.02192 0.85561 0.79555 0.0
H923 H 0.0255 0.88224 0.88065 0.0
H924 H 0.05024 0.87456 0.79495 0.0
H925 H 1.01006 0.884 0.41957 0.0
H926 H 0.98984 0.91137 0.40824 0.0
H927 H 0.97788 0.88226 0.46034 0.0
C928 C 0.70707 0.0243 0.45868 0.0
C929 C 0.72709 1.01357 0.51413 0.0
C930 C 0.68221 0.02571 0.49685 0.0
C931 C 0.67689 1.01728 0.59581 0.0
C932 C 0.69733 1.00793 0.6549 0.0
C933 C 0.72205 1.006 0.6133 0.0
C934 C 0.66137 0.0351 0.42892 0.0
C935 C 0.69325 0.99856 0.76057 0.0
C936 C 0.61344 0.03964 0.70993 0.0
C937 C 0.59778 0.01854 0.69536 0.0
C938 C 0.63903 0.03962 0.67838 0.0
C939 C 0.64986 1.01753 0.63467 0.0
C940 C 0.63419 0.99593 0.62258 0.0
C941 C 0.60842 0.99685 0.65122 0.0
C942 C 0.65358 0.06403 0.68706 0.0
C943 C 0.6445 0.97196 0.5767 0.0
H944 H 0.71072 0.03072 0.38264 0.0
H945 H 0.73711 0.99755 0.6571 0.0
H946 H 0.6471 0.01995 0.41842 0.0
H947 H 0.65161 0.05144 0.46402 0.0
H948 H 0.66851 0.04092 0.35377 0.0
H949 H 0.70976 1.0035 0.80794 0.0
H950 H 0.67589 1.00635 0.79572 0.0
H951 H 0.69172 0.97763 0.75963 0.0
H952 H 0.60536 0.0567 0.74185 0.0
H953 H 0.59651 0.98045 0.63919 0.0
H954 H 0.64696 0.07725 0.62778 0.0
H955 H 0.67426 0.06158 0.67812 0.0
H956 H 0.64966 0.07319 0.7605 0.0
H957 H 0.65141 0.97583 0.49937 0.0
H958 H 0.63011 0.95668 0.5734 0.0
H959 H 0.66084 0.9651 0.62122 0.0
C960 C 0.54576 0.71929 0.57025 0.0
C961 C 0.52311 0.73199 0.54767 0.0
C962 C 0.54577 0.69414 0.6077 0.0
C963 C 0.52262 0.68092 0.62099 0.0
C964 C 0.4997 0.69422 0.6044 0.0
C965 C 0.50023 0.71938 0.56823 0.0
C966 C 0.57065 0.68115 0.62759 0.0
C967 C 0.47447 0.6813 0.61691 0.0
C968 C 0.5223 0.60855 0.59032 0.0
C969 C 0.52071 0.59978 0.69007 0.0
C970 C 0.52285 0.63467 0.56728 0.0
C971 C 0.52235 0.65287 0.64565 0.0
C972 C 0.521 0.64401 0.74644 0.0
C973 C 0.52 0.61777 0.76723 0.0
C974 C 0.52367 0.6428 0.4585 0.0
C975 C 0.52055 0.66174 0.83443 0.0
H976 H 0.56355 0.72834 0.55167 0.0
H977 H 0.48262 0.72852 0.54773 0.0
H978 H 0.5705 0.67259 0.70385 0.0
H979 H 0.5734 0.66557 0.57283 0.0
H980 H 0.5869 0.69436 0.62163 0.0
H981 H 0.45885 0.69521 0.62522 0.0
H982 H 0.47065 0.66961 0.54945 0.0
H983 H 0.47445 0.66853 0.68311 0.0
H984 H 0.52276 0.59492 0.52956 0.0
H985 H 0.51902 0.6114 0.8446 0.0
H986 H 0.54052 0.6548 0.44465 0.0
H987 H 0.50675 0.65439 0.4409 0.0
H988 H 0.52424 0.62645 0.40618 0.0
H989 H 0.53829 0.65943 0.87791 0.0
H990 H 0.50466 0.65634 0.88451 0.0
H991 H 0.51851 0.68191 0.81329 0.0
C992 C 0.82082 0.54864 0.55286 0.0
C993 C 0.8069 0.52651 0.5343 0.0
C994 C 0.84607 0.54773 0.58757 0.0
C995 C 0.8581 0.52406 0.60402 0.0
C996 C 0.84369 0.50164 0.5902 0.0
C997 C 0.81848 0.50315 0.55516 0.0
C998 C 0.86047 0.57213 0.60012 0.0
C999 C 0.85516 0.47574 0.60452 0.0
C1000 C 0.93034 0.51863 0.57714 0.0
C1001 C 0.93862 0.51952 0.67736 0.0
C1002 C 0.90438 0.51996 0.55259 0.0
C1003 C 0.88599 0.52284 0.62971 0.0
C1004 C 0.89452 0.52452 0.73069 0.0
C1005 C 0.92051 0.52239 0.75326 0.0
C1006 C 0.89668 0.51815 0.44377 0.0
C1007 C 0.87676 0.52951 0.81643 0.0
H1008 H 0.81249 0.56673 0.53321 0.0
H1009 H 0.80844 0.48588 0.53699 0.0
H1010 H 0.86778 0.57354 0.67795 0.0
H1011 H 0.87702 0.57233 0.54864 0.0
H1012 H 0.8486 0.58901 0.58433 0.0
H1013 H 0.8614 0.46839 0.53045 0.0
H1014 H 0.87173 0.47591 0.65542 0.0
H1015 H 0.84088 0.46234 0.63486 0.0
H1016 H 0.94421 0.51649 0.51764 0.0
H1017 H 0.92671 0.52374 0.83068 0.0
H1018 H 0.88318 0.53347 0.42428 0.0
H1019 H 0.88697 0.49985 0.4314 0.0
H1020 H 0.91315 0.51919 0.39196 0.0
H1021 H 0.87823 0.54972 0.83812 0.0
H1022 H 0.88261 0.51813 0.88249 0.0
H1023 H 0.85677 0.52541 0.79817 0.0
loop_
_geom_bond_atom_site_label_1
_geom_bond_atom_site_label_2
_geom_bond_distance
_geom_bond_site_symmetry_2
_ccdc_geom_bond_type
H0 C5 0.930 . S
H1 C8 0.930 . S
H2 C10 0.930 . S
H3 C4 1.016 . S
C4 H3 1.016 . S
C4 N11 1.286 . S
C5 H0 0.930 . S
C5 C6 1.397 . S
C5 C7 1.361 . S
C6 C5 1.397 . S
C6 C10 1.390 . S
C7 C5 1.361 . S
C7 C8 1.393 . S
C7 N11 1.413 . S
C8 H1 0.930 . S
C8 C7 1.393 . S
C8 C9 1.399 . S
C9 C8 1.399 . S
C9 C10 1.381 . S
C10 H2 0.930 . S
C10 C6 1.390 . S
C10 C9 1.381 . S
N11 C4 1.286 . S
N11 C7 1.413 . S
H12 C17 0.930 . S
H13 C20 0.930 . S
H14 C22 0.930 . S
H15 C16 1.029 . S
C16 H15 1.029 . S
C16 N23 1.268 1_655 S
C17 H12 0.930 . S
C17 C18 1.397 . S
C17 C19 1.361 . S
C18 C17 1.397 . S
C18 C22 1.390 1_455 S
C19 C17 1.361 . S
C19 C20 1.393 . S
C19 N23 1.413 . S
C20 H13 0.930 . S
C20 C19 1.393 . S
C20 C21 1.402 . S
C21 C20 1.402 . S
C21 C22 1.379 1_455 S
C22 H14 0.930 . S
C22 C18 1.390 1_655 S
C22 C21 1.379 1_655 S
N23 C16 1.268 1_455 S
N23 C19 1.413 . S
H24 C29 0.930 . S
H25 C32 0.930 . S
H26 C34 0.930 . S
H27 C28 1.029 . S
C28 H27 1.029 . S
C28 N35 1.268 1_565 S
C29 H24 0.930 . S
C29 C30 1.397 . S
C29 C31 1.361 . S
C30 C29 1.397 . S
C30 C34 1.390 1_545 S
C31 C29 1.361 . S
C31 C32 1.393 . S
C31 N35 1.413 . S
C32 H25 0.930 . S
C32 C31 1.393 . S
C32 C33 1.402 . S
C33 C32 1.402 . S
C33 C34 1.379 1_545 S
C34 H26 0.930 . S
C34 C30 1.390 1_565 S
C34 C33 1.379 1_565 S
N35 C28 1.268 1_545 S
N35 C31 1.413 . S
H36 C41 0.930 . S
H37 C44 0.930 . S
H38 C46 0.930 . S
H39 C40 1.016 . S
C40 H39 1.016 . S
C40 N47 1.286 . S
C41 H36 0.930 . S
C41 C42 1.397 . S
C41 C43 1.361 . S
C42 C41 1.397 . S
C42 C46 1.390 . S
C43 C41 1.361 . S
C43 C44 1.393 . S
C43 N47 1.413 . S
C44 H37 0.930 . S
C44 C43 1.393 . S
C44 C45 1.399 . S
C45 C44 1.399 . S
C45 C46 1.381 . S
C46 H38 0.930 . S
C46 C42 1.390 . S
C46 C45 1.381 . S
N47 C40 1.286 . S
N47 C43 1.413 . S
H48 C53 0.930 . S
H49 C56 0.930 . S
H50 C58 0.930 1_556 S
H51 C52 1.016 . S
C52 H51 1.016 . S
C52 N59 1.286 . S
C53 H48 0.930 . S
C53 C54 1.397 . S
C53 C55 1.361 1_556 S
C54 C53 1.397 . S
C54 C58 1.390 1_556 S
C55 C53 1.361 1_554 S
C55 C56 1.393 . S
C55 N59 1.413 . S
C56 H49 0.930 . S
C56 C55 1.393 . S
C56 C57 1.399 . S
C57 C56 1.399 . S
C57 C58 1.381 . S
C58 H50 0.930 1_554 S
C58 C54 1.390 1_554 S
C58 C57 1.381 . S
N59 C52 1.286 . S
N59 C55 1.413 . S
H60 C65 0.930 . S
H61 C68 0.930 . S
H62 C70 0.930 1_556 S
H63 C64 1.026 . S
C64 H63 1.026 . S
C64 N71 1.273 1_655 S
C65 H60 0.930 . S
C65 C66 1.397 . S
C65 C67 1.361 1_556 S
C66 C65 1.397 . S
C66 C70 1.390 1_456 S
C67 C65 1.361 1_554 S
C67 C68 1.393 . S
C67 N71 1.413 . S
C68 H61 0.930 . S
C68 C67 1.393 . S
C68 C69 1.404 . S
C69 C68 1.404 . S
C69 C70 1.378 1_455 S
C70 H62 0.930 1_554 S
C70 C66 1.390 1_654 S
C70 C69 1.378 1_655 S
N71 C64 1.273 1_455 S
N71 C67 1.413 . S
H72 C77 0.930 . S
H73 C80 0.930 . S
H74 C82 0.930 1_556 S
H75 C76 1.026 . S
C76 H75 1.026 . S
C76 N83 1.273 1_565 S
C77 H72 0.930 . S
C77 C78 1.397 . S
C77 C79 1.361 1_556 S
C78 C77 1.397 . S
C78 C82 1.390 1_546 S
C79 C77 1.361 1_554 S
C79 C80 1.393 . S
C79 N83 1.413 . S
C80 H73 0.930 . S
C80 C79 1.393 . S
C80 C81 1.404 . S
C81 C80 1.404 . S
C81 C82 1.378 1_545 S
C82 H74 0.930 1_554 S
C82 C78 1.390 1_564 S
C82 C81 1.378 1_565 S
N83 C76 1.273 1_545 S
N83 C79 1.413 . S
H84 C89 0.930 . S
H85 C92 0.930 . S
H86 C94 0.930 1_556 S
H87 C88 1.016 . S
C88 H87 1.016 . S
C88 N95 1.286 . S
C89 H84 0.930 . S
C89 C90 1.397 . S
C89 C91 1.361 1_556 S
C90 C89 1.397 . S
C90 C94 1.390 1_556 S
C91 C89 1.361 1_554 S
C91 C92 1.393 . S
C91 N95 1.413 . S
C92 H85 0.930 . S
C92 C91 1.393 . S
C92 C93 1.399 . S
C93 C92 1.399 . S
C93 C94 1.381 . S
C94 H86 0.930 1_554 S
C94 C90 1.390 1_554 S
C94 C93 1.381 . S
N95 C88 1.286 . S
N95 C91 1.413 . S
Ho96 C99 2.811 . S
Ho96 O116 2.322 . S
Ho96 O118 2.378 . S
Ho96 O119 2.529 . S
Ho96 O120 2.381 . S
Ho96 O121 2.669 1_565 S
Ho96 O123 2.346 1_565 S
Ho96 O127 2.305 1_455 S
Ho97 C108 2.811 . S
Ho97 O117 2.346 1_545 S
Ho97 O121 2.305 1_655 S
Ho97 O122 2.322 . S
Ho97 O124 2.378 . S
Ho97 O125 2.525 . S
Ho97 O126 2.381 . S
Ho97 O127 2.669 1_545 S
C98 O116 1.259 1_655 S
C98 O117 1.268 . S
C99 Ho96 2.811 . S
C99 C100 1.488 1_556 S
C99 O118 1.215 . S
C99 O119 1.302 . S
C100 C99 1.488 1_554 S
C100 C101 1.348 . S
C100 C105 1.413 . S
C101 C100 1.348 . S
C101 C102 1.442 . S
C101 H128 0.930 1_455 S
C102 C101 1.442 . S
C102 C103 1.381 . S
C102 H129 0.931 1_455 S
C103 C102 1.381 . S
C103 C104 1.321 . S
C104 C103 1.321 . S
C104 C105 1.403 . S
C104 H130 0.934 . S
C105 C100 1.413 . S
C105 C104 1.403 . S
C105 H131 0.930 1_554 S
C106 O120 1.298 . S
C106 O121 1.243 1_565 S
C107 O122 1.259 1_455 S
C107 O123 1.268 . S
C108 Ho97 2.811 . S
C108 C109 1.488 . S
C108 O124 1.215 . S
C108 O125 1.292 . S
C109 C108 1.488 . S
C109 C110 1.348 . S
C109 C114 1.413 . S
C110 C109 1.348 . S
C110 C111 1.442 . S
C110 H132 0.930 1_655 S
C111 C110 1.442 . S
C111 C112 1.381 . S
C111 H133 0.931 1_655 S
C112 C111 1.381 . S
C112 C113 1.321 . S
C113 C112 1.321 . S
C113 C114 1.403 . S
C113 H134 0.934 . S
C114 C109 1.413 . S
C114 C113 1.403 . S
C114 H135 0.930 . S
C115 O126 1.275 . S
C115 O127 1.256 1_545 S
O116 Ho96 2.322 . S
O116 C98 1.259 1_455 S
O117 Ho97 2.346 1_565 S
O117 C98 1.268 . S
O118 Ho96 2.378 . S
O118 C99 1.215 . S
O119 Ho96 2.529 . S
O119 C99 1.302 . S
O120 Ho96 2.381 . S
O120 C106 1.298 . S
O121 Ho96 2.669 1_545 S
O121 Ho97 2.305 1_455 S
O121 C106 1.243 1_545 S
O122 Ho97 2.322 . S
O122 C107 1.259 1_655 S
O123 Ho96 2.346 1_545 S
O123 C107 1.268 . S
O124 Ho97 2.378 . S
O124 C108 1.215 . S
O125 Ho97 2.525 . S
O125 C108 1.292 . S
O126 Ho97 2.381 . S
O126 C115 1.275 . S
O127 Ho96 2.305 1_655 S
O127 Ho97 2.669 1_565 S
O127 C115 1.256 1_565 S
H128 C101 0.930 1_655 S
H129 C102 0.931 1_655 S
H130 C104 0.934 . S
H131 C105 0.930 1_556 S
H132 C110 0.930 1_455 S
H133 C111 0.931 1_455 S
H134 C113 0.934 . S
H135 C114 0.930 . S
Ho136 C139 2.811 . S
Ho136 O156 2.322 . S
Ho136 O158 2.378 . S
Ho136 O159 2.527 . S
Ho136 O160 2.381 . S
Ho136 O161 2.669 . S
Ho136 O163 2.346 . S
Ho136 O167 2.305 1_545 S
Ho137 C148 2.811 . S
Ho137 O157 2.346 . S
Ho137 O161 2.305 1_565 S
Ho137 O162 2.322 . S
Ho137 O164 2.378 . S
Ho137 O165 2.523 . S
Ho137 O166 2.381 . S
Ho137 O167 2.669 . S
C138 O156 1.259 1_565 S
C138 O157 1.268 . S
C139 Ho136 2.811 . S
C139 C140 1.488 1_556 S
C139 O158 1.215 . S
C139 O159 1.297 . S
C140 C139 1.488 1_554 S
C140 C141 1.348 . S
C140 C145 1.413 . S
C141 C140 1.348 . S
C141 C142 1.442 . S
C141 H168 0.930 1_545 S
C142 C141 1.442 . S
C142 C143 1.381 . S
C142 H169 0.931 1_545 S
C143 C142 1.381 . S
C143 C144 1.321 . S
C144 C143 1.321 . S
C144 C145 1.403 . S
C144 H170 0.934 . S
C145 C140 1.413 . S
C145 C144 1.403 . S
C145 H171 0.930 1_554 S
C146 O160 1.275 . S
C146 O161 1.256 . S
C147 O162 1.259 1_545 S
C147 O163 1.268 . S
C148 Ho137 2.811 . S
C148 C149 1.488 . S
C148 O164 1.215 . S
C148 O165 1.287 . S
C149 C148 1.488 . S
C149 C150 1.348 . S
C149 C154 1.413 . S
C150 C149 1.348 . S
C150 C151 1.442 . S
C150 H172 0.930 1_565 S
C151 C150 1.442 . S
C151 C152 1.381 . S
C151 H173 0.931 1_565 S
C152 C151 1.381 . S
C152 C153 1.321 . S
C153 C152 1.321 . S
C153 C154 1.403 . S
C153 H174 0.934 . S
C154 C149 1.413 . S
C154 C153 1.403 . S
C154 H175 0.930 . S
C155 O166 1.275 . S
C155 O167 1.256 . S
O156 Ho136 2.322 . S
O156 C138 1.259 1_545 S
O157 Ho137 2.346 . S
O157 C138 1.268 . S
O158 Ho136 2.378 . S
O158 C139 1.215 . S
O159 Ho136 2.527 . S
O159 C139 1.297 . S
O160 Ho136 2.381 . S
O160 C146 1.275 . S
O161 Ho136 2.669 . S
O161 Ho137 2.305 1_545 S
O161 C146 1.256 . S
O162 Ho137 2.322 . S
O162 C147 1.259 1_565 S
O163 Ho136 2.346 . S
O163 C147 1.268 . S
O164 Ho137 2.378 . S
O164 C148 1.215 . S
O165 Ho137 2.523 . S
O165 C148 1.287 . S
O166 Ho137 2.381 . S
O166 C155 1.275 . S
O167 Ho136 2.305 1_565 S
O167 Ho137 2.669 . S
O167 C155 1.256 . S
H168 C141 0.930 1_565 S
H169 C142 0.931 1_565 S
H170 C144 0.934 . S
H171 C145 0.930 1_556 S
H172 C150 0.930 1_545 S
H173 C151 0.931 1_545 S
H174 C153 0.934 . S
H175 C154 0.930 . S
Ho176 C179 2.811 . S
Ho176 O196 2.322 . S
Ho176 O198 2.378 . S
Ho176 O199 2.524 . S
Ho176 O200 2.381 . S
Ho176 O201 2.669 . S
Ho176 O203 2.346 . S
Ho176 O207 2.305 . S
Ho177 C188 2.811 . S
Ho177 O197 2.346 . S
Ho177 O201 2.305 . S
Ho177 O202 2.322 . S
Ho177 O204 2.378 . S
Ho177 O205 2.524 . S
Ho177 O206 2.381 . S
Ho177 O207 2.669 . S
C178 O196 1.259 . S
C178 O197 1.268 . S
C179 Ho176 2.811 . S
C179 C180 1.488 1_556 S
C179 O198 1.215 . S
C179 O199 1.289 . S
C180 C179 1.488 1_554 S
C180 C181 1.348 . S
C180 C185 1.413 . S
C181 C180 1.348 . S
C181 C182 1.442 . S
C181 H208 0.930 . S
C182 C181 1.442 . S
C182 C183 1.381 . S
C182 H209 0.931 . S
C183 C182 1.381 . S
C183 C184 1.321 . S
C184 C183 1.321 . S
C184 C185 1.403 . S
C184 H210 0.934 . S
C185 C180 1.413 . S
C185 C184 1.403 . S
C185 H211 0.930 1_554 S
C186 O200 1.275 . S
C186 O201 1.256 . S
C187 O202 1.259 . S
C187 O203 1.268 . S
C188 Ho177 2.811 . S
C188 C189 1.488 . S
C188 O204 1.215 . S
C188 O205 1.289 . S
C189 C188 1.488 . S
C189 C190 1.348 . S
C189 C194 1.413 . S
C190 C189 1.348 . S
C190 C191 1.442 . S
C190 H212 0.930 . S
C191 C190 1.442 . S
C191 C192 1.381 . S
C191 H213 0.931 . S
C192 C191 1.381 . S
C192 C193 1.321 . S
C193 C192 1.321 . S
C193 C194 1.403 . S
C193 H214 0.934 . S
C194 C189 1.413 . S
C194 C193 1.403 . S
C194 H215 0.930 . S
C195 O206 1.275 . S
C195 O207 1.256 . S
O196 Ho176 2.322 . S
O196 C178 1.259 . S
O197 Ho177 2.346 . S
O197 C178 1.268 . S
O198 Ho176 2.378 . S
O198 C179 1.215 . S
O199 Ho176 2.524 . S
O199 C179 1.289 . S
O200 Ho176 2.381 . S
O200 C186 1.275 . S
O201 Ho176 2.669 . S
O201 Ho177 2.305 . S
O201 C186 1.256 . S
O202 Ho177 2.322 . S
O202 C187 1.259 . S
O203 Ho176 2.346 . S
O203 C187 1.268 . S
O204 Ho177 2.378 . S
O204 C188 1.215 . S
O205 Ho177 2.524 . S
O205 C188 1.289 . S
O206 Ho177 2.381 . S
O206 C195 1.275 . S
O207 Ho176 2.305 . S
O207 Ho177 2.669 . S
O207 C195 1.256 . S
H208 C181 0.930 . S
H209 C182 0.931 . S
H210 C184 0.934 . S
H211 C185 0.930 1_556 S
H212 C190 0.930 . S
H213 C191 0.931 . S
H214 C193 0.934 . S
H215 C194 0.930 . S
Ho216 C219 2.811 . S
Ho216 O236 2.322 . S
Ho216 O238 2.378 . S
Ho216 O239 2.524 . S
Ho216 O240 2.381 . S
Ho216 O241 2.669 1_655 S
Ho216 O243 2.346 1_655 S
Ho216 O247 2.305 . S
Ho217 C228 2.811 . S
Ho217 O237 2.346 1_455 S
Ho217 O241 2.305 . S
Ho217 O242 2.322 . S
Ho217 O244 2.378 . S
Ho217 O245 2.524 . S
Ho217 O246 2.381 . S
Ho217 O247 2.669 1_455 S
C218 O236 1.259 . S
C218 O237 1.268 . S
C219 Ho216 2.811 . S
C219 C220 1.488 1_556 S
C219 O238 1.215 . S
C219 O239 1.289 . S
C220 C219 1.488 1_554 S
C220 C221 1.348 . S
C220 C225 1.413 . S
C221 C220 1.348 . S
C221 C222 1.442 . S
C221 H248 0.930 . S
C222 C221 1.442 . S
C222 C223 1.381 . S
C222 H249 0.931 . S
C223 C222 1.381 . S
C223 C224 1.321 . S
C224 C223 1.321 . S
C224 C225 1.403 . S
C224 H250 0.934 . S
C225 C220 1.413 . S
C225 C224 1.403 . S
C225 H251 0.930 1_554 S
C226 O240 1.291 . S
C226 O241 1.247 1_655 S
C227 O242 1.259 . S
C227 O243 1.268 . S
C228 Ho217 2.811 . S
C228 C229 1.488 . S
C228 O244 1.215 . S
C228 O245 1.289 . S
C229 C228 1.488 . S
C229 C230 1.348 . S
C229 C234 1.413 . S
C230 C229 1.348 . S
C230 C231 1.442 . S
C230 H252 0.930 . S
C231 C230 1.442 . S
C231 C232 1.381 . S
C231 H253 0.931 . S
C232 C231 1.381 . S
C232 C233 1.321 . S
C233 C232 1.321 . S
C233 C234 1.403 . S
C233 H254 0.934 . S
C234 C229 1.413 . S
C234 C233 1.403 . S
C234 H255 0.930 . S
C235 O246 1.296 . S
C235 O247 1.244 1_455 S
O236 Ho216 2.322 . S
O236 C218 1.259 . S
O237 Ho217 2.346 1_655 S
O237 C218 1.268 . S
O238 Ho216 2.378 . S
O238 C219 1.215 . S
O239 Ho216 2.524 . S
O239 C219 1.289 . S
O240 Ho216 2.381 . S
O240 C226 1.291 . S
O241 Ho216 2.669 1_455 S
O241 Ho217 2.305 . S
O241 C226 1.247 1_455 S
O242 Ho217 2.322 . S
O242 C227 1.259 . S
O243 Ho216 2.346 1_455 S
O243 C227 1.268 . S
O244 Ho217 2.378 . S
O244 C228 1.215 . S
O245 Ho217 2.524 . S
O245 C228 1.289 . S
O246 Ho217 2.381 . S
O246 C235 1.296 . S
O247 Ho216 2.305 . S
O247 Ho217 2.669 1_655 S
O247 C235 1.244 1_655 S
H248 C221 0.930 . S
H249 C222 0.931 . S
H250 C224 0.934 . S
H251 C225 0.930 1_556 S
H252 C230 0.930 . S
H253 C231 0.931 . S
H254 C233 0.934 . S
H255 C234 0.930 . S
C256 C257 1.391 . S
C256 C258 1.394 . S
C256 H272 0.931 . S
C257 C256 1.391 . S
C257 C261 1.376 1_545 S
C258 C256 1.394 . S
C258 C259 1.369 . S
C258 C262 1.531 . S
C259 C258 1.369 . S
C259 C260 1.408 1_545 S
C259 C267 1.503 . S
C260 C259 1.408 1_565 S
C260 C261 1.393 . S
C260 C263 1.512 . S
C261 C257 1.376 1_565 S
C261 C260 1.393 . S
C261 H273 0.929 . S
C262 C258 1.531 . S
C262 H274 0.960 . S
C262 H275 0.962 . S
C262 H276 0.960 . S
C263 C260 1.512 . S
C263 H277 0.961 . S
C263 H278 0.961 . S
C263 H279 0.961 1_565 S
C264 C265 1.370 1_565 S
C264 C266 1.363 . S
C264 H280 0.931 . S
C265 C264 1.370 1_545 S
C265 C269 1.408 . S
C266 C264 1.363 . S
C266 C267 1.370 1_565 S
C266 C270 1.524 . S
C267 C259 1.503 . S
C267 C266 1.370 1_545 S
C267 C268 1.403 . S
C268 C267 1.403 . S
C268 C269 1.404 . S
C268 C271 1.539 . S
C269 C265 1.408 . S
C269 C268 1.404 . S
C269 H281 0.930 . S
C270 C266 1.524 . S
C270 H282 0.956 . S
C270 H283 0.961 . S
C270 H284 0.961 . S
C271 C268 1.539 . S
C271 H285 0.958 . S
C271 H286 0.961 . S
C271 H287 0.960 . S
H272 C256 0.931 . S
H273 C261 0.929 . S
H274 C262 0.960 . S
H275 C262 0.962 . S
H276 C262 0.960 . S
H277 C263 0.961 . S
H278 C263 0.961 . S
H279 C263 0.961 1_545 S
H280 C264 0.931 . S
H281 C269 0.930 . S
H282 C270 0.956 . S
H283 C270 0.961 . S
H284 C270 0.961 . S
H285 C271 0.958 . S
H286 C271 0.961 . S
H287 C271 0.960 . S
C288 C289 1.391 . S
C288 C290 1.394 . S
C288 H304 0.931 . S
C289 C288 1.391 . S
C289 C293 1.376 . S
C290 C288 1.394 . S
C290 C291 1.369 . S
C290 C294 1.531 . S
C291 C290 1.369 . S
C291 C292 1.410 . S
C291 C299 1.503 . S
C292 C291 1.410 . S
C292 C293 1.392 . S
C292 C295 1.511 . S
C293 C289 1.376 . S
C293 C292 1.392 . S
C293 H305 0.929 . S
C294 C290 1.531 . S
C294 H306 0.960 . S
C294 H307 0.962 . S
C294 H308 0.960 . S
C295 C292 1.511 . S
C295 H309 0.961 . S
C295 H310 0.961 . S
C295 H311 0.961 . S
C296 C297 1.370 . S
C296 C298 1.363 . S
C296 H312 0.931 . S
C297 C296 1.370 . S
C297 C301 1.408 . S
C298 C296 1.363 . S
C298 C299 1.370 . S
C298 C302 1.524 . S
C299 C291 1.503 . S
C299 C298 1.370 . S
C299 C300 1.403 . S
C300 C299 1.403 . S
C300 C301 1.404 . S
C300 C303 1.539 . S
C301 C297 1.408 . S
C301 C300 1.404 . S
C301 H313 0.930 . S
C302 C298 1.524 . S
C302 H314 0.956 . S
C302 H315 0.961 . S
C302 H316 0.961 . S
C303 C300 1.539 . S
C303 H317 0.958 . S
C303 H318 0.961 . S
C303 H319 0.960 . S
H304 C288 0.931 . S
H305 C293 0.929 . S
H306 C294 0.960 . S
H307 C294 0.962 . S
H308 C294 0.960 . S
H309 C295 0.961 . S
H310 C295 0.961 . S
H311 C295 0.961 . S
H312 C296 0.931 . S
H313 C301 0.930 . S
H314 C302 0.956 . S
H315 C302 0.961 . S
H316 C302 0.961 . S
H317 C303 0.958 . S
H318 C303 0.961 . S
H319 C303 0.960 . S
C320 C321 1.391 . S
C320 C322 1.394 . S
C320 H336 0.931 . S
C321 C320 1.391 . S
C321 C325 1.376 . S
C322 C320 1.394 . S
C322 C323 1.369 . S
C322 C326 1.531 . S
C323 C322 1.369 . S
C323 C324 1.410 . S
C323 C331 1.503 . S
C324 C323 1.410 . S
C324 C325 1.392 . S
C324 C327 1.511 . S
C325 C321 1.376 . S
C325 C324 1.392 . S
C325 H337 0.929 . S
C326 C322 1.531 . S
C326 H338 0.960 . S
C326 H339 0.962 . S
C326 H340 0.960 . S
C327 C324 1.511 . S
C327 H341 0.961 . S
C327 H342 0.961 . S
C327 H343 0.961 . S
C328 C329 1.370 . S
C328 C330 1.363 . S
C328 H344 0.931 . S
C329 C328 1.370 . S
C329 C333 1.408 . S
C330 C328 1.363 . S
C330 C331 1.370 . S
C330 C334 1.524 . S
C331 C323 1.503 . S
C331 C330 1.370 . S
C331 C332 1.403 . S
C332 C331 1.403 . S
C332 C333 1.404 . S
C332 C335 1.539 . S
C333 C329 1.408 . S
C333 C332 1.404 . S
C333 H345 0.930 . S
C334 C330 1.524 . S
C334 H346 0.956 . S
C334 H347 0.961 . S
C334 H348 0.961 . S
C335 C332 1.539 . S
C335 H349 0.958 . S
C335 H350 0.961 . S
C335 H351 0.960 . S
H336 C320 0.931 . S
H337 C325 0.929 . S
H338 C326 0.960 . S
H339 C326 0.962 . S
H340 C326 0.960 . S
H341 C327 0.961 . S
H342 C327 0.961 . S
H343 C327 0.961 . S
H344 C328 0.931 . S
H345 C333 0.930 . S
H346 C334 0.956 . S
H347 C334 0.961 . S
H348 C334 0.961 . S
H349 C335 0.958 . S
H350 C335 0.961 . S
H351 C335 0.960 . S
C352 C353 1.370 1_455 S
C352 C354 1.394 . S
C352 H368 0.931 . S
C353 C352 1.370 1_655 S
C353 C357 1.397 . S
C354 C352 1.394 . S
C354 C355 1.369 1_455 S
C354 C358 1.531 . S
C355 C354 1.369 1_655 S
C355 C356 1.410 . S
C355 C363 1.504 . S
C356 C355 1.410 . S
C356 C357 1.392 . S
C356 C359 1.511 . S
C357 C353 1.397 . S
C357 C356 1.392 . S
C357 H369 0.929 . S
C358 C354 1.531 . S
C358 H370 0.960 . S
C358 H371 0.962 . S
C358 H372 0.960 . S
C359 C356 1.511 . S
C359 H373 0.961 . S
C359 H374 0.961 . S
C359 H375 0.961 . S
C360 C361 1.370 . S
C360 C362 1.363 . S
C360 H376 0.931 . S
C361 C360 1.370 . S
C361 C365 1.408 1_455 S
C362 C360 1.363 . S
C362 C363 1.364 1_455 S
C362 C366 1.524 . S
C363 C355 1.504 . S
C363 C362 1.364 1_655 S
C363 C364 1.409 . S
C364 C363 1.409 . S
C364 C365 1.404 . S
C364 C367 1.539 . S
C365 C361 1.408 1_655 S
C365 C364 1.404 . S
C365 H377 0.930 . S
C366 C362 1.524 . S
C366 H378 0.956 . S
C366 H379 0.961 . S
C366 H380 0.961 . S
C367 C364 1.539 . S
C367 H381 0.958 . S
C367 H382 0.961 . S
C367 H383 0.960 . S
H368 C352 0.931 . S
H369 C357 0.929 . S
H370 C358 0.960 . S
H371 C358 0.962 . S
H372 C358 0.960 . S
H373 C359 0.961 . S
H374 C359 0.961 . S
H375 C359 0.961 . S
H376 C360 0.931 . S
H377 C365 0.930 . S
H378 C366 0.956 . S
H379 C366 0.961 . S
H380 C366 0.961 . S
H381 C367 0.958 . S
H382 C367 0.961 . S
H383 C367 0.960 . S
C384 C385 1.391 . S
C384 C386 1.394 . S
C384 H400 0.931 . S
C385 C384 1.391 . S
C385 C389 1.376 1_565 S
C386 C384 1.394 . S
C386 C387 1.369 . S
C386 C390 1.531 . S
C387 C386 1.369 . S
C387 C388 1.410 1_565 S
C387 C395 1.503 . S
C388 C387 1.410 1_545 S
C388 C389 1.392 . S
C388 C391 1.511 . S
C389 C385 1.376 1_545 S
C389 C388 1.392 . S
C389 H401 0.929 . S
C390 C386 1.531 . S
C390 H402 0.960 . S
C390 H403 0.962 . S
C390 H404 0.960 . S
C391 C388 1.511 . S
C391 H405 0.961 . S
C391 H406 0.961 . S
C391 H407 0.961 . S
C392 C393 1.370 1_544 S
C392 C394 1.363 . S
C392 H408 0.931 . S
C393 C392 1.370 1_566 S
C393 C397 1.408 . S
C394 C392 1.363 . S
C394 C395 1.370 1_545 S
C394 C398 1.524 . S
C395 C387 1.503 . S
C395 C394 1.370 1_565 S
C395 C396 1.403 . S
C396 C395 1.403 . S
C396 C397 1.404 1_554 S
C396 C399 1.539 . S
C397 C393 1.408 . S
C397 C396 1.404 1_556 S
C397 H409 0.930 . S
C398 C394 1.524 . S
C398 H410 0.956 . S
C398 H411 0.961 . S
C398 H412 0.961 . S
C399 C396 1.539 . S
C399 H413 0.958 . S
C399 H414 0.961 1_554 S
C399 H415 0.960 . S
H400 C384 0.931 . S
H401 C389 0.929 . S
H402 C390 0.960 . S
H403 C390 0.962 . S
H404 C390 0.960 . S
H405 C391 0.961 . S
H406 C391 0.961 . S
H407 C391 0.961 . S
H408 C392 0.931 . S
H409 C397 0.930 . S
H410 C398 0.956 . S
H411 C398 0.961 . S
H412 C398 0.961 . S
H413 C399 0.958 . S
H414 C399 0.961 1_556 S
H415 C399 0.960 . S
C416 C417 1.391 . S
C416 C418 1.394 . S
C416 H432 0.931 . S
C417 C416 1.391 . S
C417 C421 1.376 . S
C418 C416 1.394 . S
C418 C419 1.369 . S
C418 C422 1.531 . S
C419 C418 1.369 . S
C419 C420 1.410 . S
C419 C427 1.503 . S
C420 C419 1.410 . S
C420 C421 1.392 . S
C420 C423 1.511 . S
C421 C417 1.376 . S
C421 C420 1.392 . S
C421 H433 0.929 . S
C422 C418 1.531 . S
C422 H434 0.960 . S
C422 H435 0.962 . S
C422 H436 0.960 . S
C423 C420 1.511 . S
C423 H437 0.961 . S
C423 H438 0.961 . S
C423 H439 0.961 . S
C424 C425 1.370 . S
C424 C426 1.363 1_556 S
C424 H440 0.931 . S
C425 C424 1.370 . S
C425 C429 1.408 1_556 S
C426 C424 1.363 1_554 S
C426 C427 1.370 . S
C426 C430 1.524 1_554 S
C427 C419 1.503 . S
C427 C426 1.370 . S
C427 C428 1.403 . S
C428 C427 1.403 . S
C428 C429 1.404 . S
C428 C431 1.539 . S
C429 C425 1.408 1_554 S
C429 C428 1.404 . S
C429 H441 0.930 . S
C430 C426 1.524 1_556 S
C430 H442 0.956 1_556 S
C430 H443 0.961 1_556 S
C430 H444 0.961 . S
C431 C428 1.539 . S
C431 H445 0.958 . S
C431 H446 0.961 . S
C431 H447 0.960 . S
H432 C416 0.931 . S
H433 C421 0.929 . S
H434 C422 0.960 . S
H435 C422 0.962 . S
H436 C422 0.960 . S
H437 C423 0.961 . S
H438 C423 0.961 . S
H439 C423 0.961 . S
H440 C424 0.931 . S
H441 C429 0.930 . S
H442 C430 0.956 1_554 S
H443 C430 0.961 1_554 S
H444 C430 0.961 . S
H445 C431 0.958 . S
H446 C431 0.961 . S
H447 C431 0.960 . S
C448 C449 1.391 . S
C448 C450 1.394 . S
C448 H464 0.931 . S
C449 C448 1.391 . S
C449 C453 1.376 . S
C450 C448 1.394 . S
C450 C451 1.369 . S
C450 C454 1.531 . S
C451 C450 1.369 . S
C451 C452 1.410 . S
C451 C459 1.503 . S
C452 C451 1.410 . S
C452 C453 1.392 . S
C452 C455 1.511 . S
C453 C449 1.376 . S
C453 C452 1.392 . S
C453 H465 0.929 . S
C454 C450 1.531 . S
C454 H466 0.960 . S
C454 H467 0.962 . S
C454 H468 0.960 . S
C455 C452 1.511 . S
C455 H469 0.961 . S
C455 H470 0.961 . S
C455 H471 0.961 . S
C456 C457 1.370 . S
C456 C458 1.363 1_556 S
C456 H472 0.931 . S
C457 C456 1.370 . S
C457 C461 1.408 . S
C458 C456 1.363 1_554 S
C458 C459 1.370 . S
C458 C462 1.524 . S
C459 C451 1.503 . S
C459 C458 1.370 . S
C459 C460 1.403 . S
C460 C459 1.403 . S
C460 C461 1.404 1_554 S
C460 C463 1.539 . S
C461 C457 1.408 . S
C461 C460 1.404 1_556 S
C461 H473 0.930 . S
C462 C458 1.524 . S
C462 H474 0.956 . S
C462 H475 0.961 . S
C462 H476 0.967 . S
C463 C460 1.539 . S
C463 H477 0.958 . S
C463 H478 0.961 . S
C463 H479 0.960 . S
H464 C448 0.931 . S
H465 C453 0.929 . S
H466 C454 0.960 . S
H467 C454 0.962 . S
H468 C454 0.960 . S
H469 C455 0.961 . S
H470 C455 0.961 . S
H471 C455 0.961 . S
H472 C456 0.931 . S
H473 C461 0.930 . S
H474 C462 0.956 . S
H475 C462 0.961 . S
H476 C462 0.967 . S
H477 C463 0.958 . S
H478 C463 0.961 . S
H479 C463 0.960 . S
C480 C481 1.391 1_655 S
C480 C482 1.394 . S
C480 H496 0.931 . S
C481 C480 1.391 1_455 S
C481 C485 1.376 . S
C482 C480 1.394 . S
C482 C483 1.369 1_655 S
C482 C486 1.531 . S
C483 C482 1.369 1_455 S
C483 C484 1.410 . S
C483 C491 1.503 . S
C484 C483 1.410 . S
C484 C485 1.392 . S
C484 C487 1.511 . S
C485 C481 1.376 . S
C485 C484 1.392 . S
C485 H497 0.929 . S
C486 C482 1.531 . S
C486 H498 0.960 . S
C486 H499 0.962 . S
C486 H500 0.960 . S
C487 C484 1.511 . S
C487 H501 0.961 . S
C487 H502 0.961 . S
C487 H503 0.961 . S
C488 C489 1.396 1_554 S
C488 C490 1.363 . S
C488 H504 0.931 . S
C489 C488 1.396 1_556 S
C489 C493 1.381 1_655 S
C490 C488 1.363 . S
C490 C491 1.370 1_655 S
C490 C494 1.524 . S
C491 C483 1.503 . S
C491 C490 1.370 1_455 S
C491 C492 1.403 1_554 S
C492 C491 1.403 1_556 S
C492 C493 1.404 . S
C492 C495 1.539 . S
C493 C489 1.381 1_455 S
C493 C492 1.404 . S
C493 H505 0.930 . S
C494 C490 1.524 . S
C494 H506 0.956 . S
C494 H507 0.961 . S
C494 H508 0.961 . S
C495 C492 1.539 . S
C495 H509 0.958 . S
C495 H510 0.961 . S
C495 H511 0.960 1_556 S
H496 C480 0.931 . S
H497 C485 0.929 . S
H498 C486 0.960 . S
H499 C486 0.962 . S
H500 C486 0.960 . S
H501 C487 0.961 . S
H502 C487 0.961 . S
H503 C487 0.961 . S
H504 C488 0.931 . S
H505 C493 0.930 . S
H506 C494 0.956 . S
H507 C494 0.961 . S
H508 C494 0.961 . S
H509 C495 0.958 . S
H510 C495 0.961 . S
H511 C495 0.960 1_554 S
C512 C513 1.390 . S
C512 C514 1.394 1_455 S
C512 H528 0.931 . S
C513 C512 1.390 . S
C513 C517 1.379 1_455 S
C514 C512 1.394 1_655 S
C514 C515 1.369 . S
C514 C518 1.531 1_655 S
C515 C514 1.369 . S
C515 C516 1.410 . S
C515 C523 1.503 . S
C516 C515 1.410 . S
C516 C517 1.392 . S
C516 C519 1.511 . S
C517 C513 1.379 1_655 S
C517 C516 1.392 . S
C517 H529 0.929 . S
C518 C514 1.531 1_455 S
C518 H530 0.960 1_455 S
C518 H531 0.962 . S
C518 H532 0.960 . S
C519 C516 1.511 . S
C519 H533 0.961 . S
C519 H534 0.961 . S
C519 H535 0.961 . S
C520 C521 1.370 . S
C520 C522 1.363 . S
C520 H536 0.931 . S
C521 C520 1.370 . S
C521 C525 1.408 . S
C522 C520 1.363 . S
C522 C523 1.370 . S
C522 C526 1.524 1_655 S
C523 C515 1.503 . S
C523 C522 1.370 . S
C523 C524 1.403 . S
C524 C523 1.403 . S
C524 C525 1.404 . S
C524 C527 1.539 . S
C525 C521 1.408 . S
C525 C524 1.404 . S
C525 H537 0.930 . S
C526 C522 1.524 1_455 S
C526 H538 0.956 . S
C526 H539 0.961 . S
C526 H540 0.961 . S
C527 C524 1.539 . S
C527 H541 0.958 . S
C527 H542 0.961 . S
C527 H543 0.960 . S
H528 C512 0.931 . S
H529 C517 0.929 . S
H530 C518 0.960 1_655 S
H531 C518 0.962 . S
H532 C518 0.960 . S
H533 C519 0.961 . S
H534 C519 0.961 . S
H535 C519 0.961 . S
H536 C520 0.931 . S
H537 C525 0.930 . S
H538 C526 0.956 . S
H539 C526 0.961 . S
H540 C526 0.961 . S
H541 C527 0.958 . S
H542 C527 0.961 . S
H543 C527 0.960 . S
C544 C545 1.391 1_565 S
C544 C546 1.394 . S
C544 H560 0.931 . S
C545 C544 1.391 1_545 S
C545 C549 1.376 . S
C546 C544 1.394 . S
C546 C547 1.369 . S
C546 C550 1.531 . S
C547 C546 1.369 . S
C547 C548 1.410 1_565 S
C547 C555 1.503 . S
C548 C547 1.410 1_545 S
C548 C549 1.392 . S
C548 C551 1.511 . S
C549 C545 1.376 . S
C549 C548 1.392 . S
C549 H561 0.929 . S
C550 C546 1.531 . S
C550 H562 0.960 . S
C550 H563 0.962 . S
C550 H564 0.960 . S
C551 C548 1.511 . S
C551 H565 0.961 . S
C551 H566 0.961 . S
C551 H567 0.961 . S
C552 C553 1.370 . S
C552 C554 1.363 . S
C552 H568 0.931 . S
C553 C552 1.370 . S
C553 C557 1.408 . S
C554 C552 1.363 . S
C554 C555 1.370 . S
C554 C558 1.524 . S
C555 C547 1.503 . S
C555 C554 1.370 . S
C555 C556 1.403 . S
C556 C555 1.403 . S
C556 C557 1.404 . S
C556 C559 1.539 . S
C557 C553 1.408 . S
C557 C556 1.404 . S
C557 H569 0.930 . S
C558 C554 1.524 . S
C558 H570 0.956 . S
C558 H571 0.986 . S
C558 H572 0.961 . S
C559 C556 1.539 . S
C559 H573 0.958 . S
C559 H574 0.961 . S
C559 H575 0.960 . S
H560 C544 0.931 . S
H561 C549 0.929 . S
H562 C550 0.960 . S
H563 C550 0.962 . S
H564 C550 0.960 . S
H565 C551 0.961 . S
H566 C551 0.961 . S
H567 C551 0.961 . S
H568 C552 0.931 . S
H569 C557 0.930 . S
H570 C558 0.956 . S
H571 C558 0.986 . S
H572 C558 0.961 . S
H573 C559 0.958 . S
H574 C559 0.961 . S
H575 C559 0.960 . S
C576 C577 1.391 . S
C576 C578 1.394 . S
C576 H592 0.931 . S
C577 C576 1.391 . S
C577 C581 1.376 . S
C578 C576 1.394 . S
C578 C579 1.369 . S
C578 C582 1.531 . S
C579 C578 1.369 . S
C579 C580 1.410 . S
C579 C587 1.503 . S
C580 C579 1.410 . S
C580 C581 1.392 . S
C580 C583 1.511 . S
C581 C577 1.376 . S
C581 C580 1.392 . S
C581 H593 0.929 . S
C582 C578 1.531 . S
C582 H594 0.960 . S
C582 H595 0.962 . S
C582 H596 0.960 . S
C583 C580 1.511 . S
C583 H597 0.961 . S
C583 H598 0.961 . S
C583 H599 0.961 . S
C584 C585 1.370 . S
C584 C586 1.363 . S
C584 H600 0.931 . S
C585 C584 1.370 . S
C585 C589 1.408 . S
C586 C584 1.363 . S
C586 C587 1.370 . S
C586 C590 1.524 . S
C587 C579 1.503 . S
C587 C586 1.370 . S
C587 C588 1.403 . S
C588 C587 1.403 . S
C588 C589 1.404 . S
C588 C591 1.539 . S
C589 C585 1.408 . S
C589 C588 1.404 . S
C589 H601 0.930 . S
C590 C586 1.524 . S
C590 H602 0.956 . S
C590 H603 0.961 . S
C590 H604 0.961 . S
C591 C588 1.539 . S
C591 H605 0.958 . S
C591 H606 0.961 . S
C591 H607 0.960 . S
H592 C576 0.931 . S
H593 C581 0.929 . S
H594 C582 0.960 . S
H595 C582 0.962 . S
H596 C582 0.960 . S
H597 C583 0.961 . S
H598 C583 0.961 . S
H599 C583 0.961 . S
H600 C584 0.931 . S
H601 C589 0.930 . S
H602 C590 0.956 . S
H603 C590 0.961 . S
H604 C590 0.961 . S
H605 C591 0.958 . S
H606 C591 0.961 . S
H607 C591 0.960 . S
C608 C609 1.391 . S
C608 C610 1.394 . S
C608 H624 0.931 . S
C609 C608 1.391 . S
C609 C613 1.376 . S
C610 C608 1.394 . S
C610 C611 1.369 . S
C610 C614 1.531 . S
C611 C610 1.369 . S
C611 C612 1.410 . S
C611 C619 1.503 . S
C612 C611 1.410 . S
C612 C613 1.392 . S
C612 C615 1.511 . S
C613 C609 1.376 . S
C613 C612 1.392 . S
C613 H625 0.929 . S
C614 C610 1.531 . S
C614 H626 0.960 . S
C614 H627 0.962 . S
C614 H628 0.960 . S
C615 C612 1.511 . S
C615 H629 0.961 . S
C615 H630 0.961 . S
C615 H631 0.961 . S
C616 C617 1.370 . S
C616 C618 1.363 . S
C616 H632 0.931 . S
C617 C616 1.370 . S
C617 C621 1.408 . S
C618 C616 1.363 . S
C618 C619 1.370 . S
C618 C622 1.524 . S
C619 C611 1.503 . S
C619 C618 1.370 . S
C619 C620 1.403 . S
C620 C619 1.403 . S
C620 C621 1.404 . S
C620 C623 1.539 . S
C621 C617 1.408 . S
C621 C620 1.404 . S
C621 H633 0.930 . S
C622 C618 1.524 . S
C622 H634 0.956 . S
C622 H635 0.961 . S
C622 H636 0.961 . S
C623 C620 1.539 . S
C623 H637 0.958 . S
C623 H638 0.961 . S
C623 H639 0.960 . S
H624 C608 0.931 . S
H625 C613 0.929 . S
H626 C614 0.960 . S
H627 C614 0.962 . S
H628 C614 0.960 . S
H629 C615 0.961 . S
H630 C615 0.961 . S
H631 C615 0.961 . S
H632 C616 0.931 . S
H633 C621 0.930 . S
H634 C622 0.956 . S
H635 C622 0.961 . S
H636 C622 0.961 . S
H637 C623 0.958 . S
H638 C623 0.961 . S
H639 C623 0.960 . S
C640 C641 1.391 1_455 S
C640 C642 1.394 . S
C640 H656 0.931 . S
C641 C640 1.391 1_655 S
C641 C645 1.376 . S
C642 C640 1.394 . S
C642 C643 1.369 . S
C642 C646 1.531 . S
C643 C642 1.369 . S
C643 C644 1.410 1_455 S
C643 C651 1.503 . S
C644 C643 1.410 1_655 S
C644 C645 1.392 . S
C644 C647 1.511 . S
C645 C641 1.376 . S
C645 C644 1.392 . S
C645 H657 0.929 . S
C646 C642 1.531 . S
C646 H658 0.960 . S
C646 H659 0.962 . S
C646 H660 0.960 . S
C647 C644 1.511 . S
C647 H661 0.961 . S
C647 H662 0.961 . S
C647 H663 0.961 . S
C648 C649 1.370 . S
C648 C650 1.363 . S
C648 H664 0.931 . S
C649 C648 1.370 . S
C649 C653 1.408 . S
C650 C648 1.363 . S
C650 C651 1.370 . S
C650 C654 1.524 . S
C651 C643 1.503 . S
C651 C650 1.370 . S
C651 C652 1.403 . S
C652 C651 1.403 . S
C652 C653 1.404 . S
C652 C655 1.539 . S
C653 C649 1.408 . S
C653 C652 1.404 . S
C653 H665 0.930 1_554 S
C654 C650 1.524 . S
C654 H666 0.956 . S
C654 H667 0.961 1_455 S
C654 H668 0.961 . S
C655 C652 1.539 . S
C655 H669 0.958 . S
C655 H670 0.961 1_554 S
C655 H671 0.960 . S
H656 C640 0.931 . S
H657 C645 0.929 . S
H658 C646 0.960 . S
H659 C646 0.962 . S
H660 C646 0.960 . S
H661 C647 0.961 . S
H662 C647 0.961 . S
H663 C647 0.961 . S
H664 C648 0.931 . S
H665 C653 0.930 1_556 S
H666 C654 0.956 . S
H667 C654 0.961 1_655 S
H668 C654 0.961 . S
H669 C655 0.958 . S
H670 C655 0.961 1_556 S
H671 C655 0.960 . S
C672 C673 1.397 . S
C672 C674 1.394 . S
C672 H688 0.931 . S
C673 C672 1.397 . S
C673 C677 1.380 . S
C674 C672 1.394 . S
C674 C675 1.369 . S
C674 C678 1.531 . S
C675 C674 1.369 . S
C675 C676 1.410 . S
C675 C683 1.503 . S
C676 C675 1.410 . S
C676 C677 1.392 . S
C676 C679 1.511 . S
C677 C673 1.380 . S
C677 C676 1.392 . S
C677 H689 0.929 . S
C678 C674 1.531 . S
C678 H690 0.960 . S
C678 H691 0.962 . S
C678 H692 0.960 . S
C679 C676 1.511 . S
C679 H693 0.961 . S
C679 H694 0.961 . S
C679 H695 0.961 . S
C680 C681 1.370 . S
C680 C682 1.363 . S
C680 H696 0.940 . S
C681 C680 1.370 . S
C681 C685 1.408 . S
C682 C680 1.363 . S
C682 C683 1.370 . S
C682 C686 1.524 1_545 S
C683 C675 1.503 . S
C683 C682 1.370 . S
C683 C684 1.403 . S
C684 C683 1.403 . S
C684 C685 1.404 . S
C684 C687 1.539 . S
C685 C681 1.408 . S
C685 C684 1.404 . S
C685 H697 0.930 . S
C686 C682 1.524 1_565 S
C686 H698 0.956 . S
C686 H699 0.961 . S
C686 H700 0.961 . S
C687 C684 1.539 . S
C687 H701 0.958 . S
C687 H702 0.961 . S
C687 H703 0.960 . S
H688 C672 0.931 . S
H689 C677 0.929 . S
H690 C678 0.960 . S
H691 C678 0.962 . S
H692 C678 0.960 . S
H693 C679 0.961 . S
H694 C679 0.961 . S
H695 C679 0.961 . S
H696 C680 0.940 . S
H697 C685 0.930 . S
H698 C686 0.956 . S
H699 C686 0.961 . S
H700 C686 0.961 . S
H701 C687 0.958 . S
H702 C687 0.961 . S
H703 C687 0.960 . S
C704 C705 1.391 . S
C704 C706 1.394 . S
C704 H720 0.931 . S
C705 C704 1.391 . S
C705 C709 1.376 . S
C706 C704 1.394 . S
C706 C707 1.369 . S
C706 C710 1.531 . S
C707 C706 1.369 . S
C707 C708 1.410 . S
C707 C715 1.503 . S
C708 C707 1.410 . S
C708 C709 1.392 . S
C708 C711 1.511 . S
C709 C705 1.376 . S
C709 C708 1.392 . S
C709 H721 0.929 . S
C710 C706 1.531 . S
C710 H722 0.960 . S
C710 H723 0.962 . S
C710 H724 0.960 . S
C711 C708 1.511 . S
C711 H725 0.961 . S
C711 H726 0.961 . S
C711 H727 0.961 . S
C712 C713 1.370 . S
C712 C714 1.363 . S
C712 H728 0.931 . S
C713 C712 1.370 . S
C713 C717 1.408 . S
C714 C712 1.363 . S
C714 C715 1.370 . S
C714 C718 1.524 . S
C715 C707 1.503 . S
C715 C714 1.370 . S
C715 C716 1.403 . S
C716 C715 1.403 . S
C716 C717 1.404 . S
C716 C719 1.539 . S
C717 C713 1.408 . S
C717 C716 1.404 . S
C717 H729 0.930 . S
C718 C714 1.524 . S
C718 H730 0.956 . S
C718 H731 0.961 . S
C718 H732 0.961 . S
C719 C716 1.539 . S
C719 H733 0.958 . S
C719 H734 0.961 . S
C719 H735 0.960 . S
H720 C704 0.931 . S
H721 C709 0.929 . S
H722 C710 0.960 . S
H723 C710 0.962 . S
H724 C710 0.960 . S
H725 C711 0.961 . S
H726 C711 0.961 . S
H727 C711 0.961 . S
H728 C712 0.931 . S
H729 C717 0.930 . S
H730 C718 0.956 . S
H731 C718 0.961 . S
H732 C718 0.961 . S
H733 C719 0.958 . S
H734 C719 0.961 . S
H735 C719 0.960 . S
C736 C737 1.391 . S
C736 C738 1.394 . S
C736 H752 0.931 . S
C737 C736 1.391 . S
C737 C741 1.376 . S
C738 C736 1.394 . S
C738 C739 1.369 . S
C738 C742 1.531 . S
C739 C738 1.369 . S
C739 C740 1.410 . S
C739 C747 1.503 . S
C740 C739 1.410 . S
C740 C741 1.392 . S
C740 C743 1.511 . S
C741 C737 1.376 . S
C741 C740 1.392 . S
C741 H753 0.929 . S
C742 C738 1.531 . S
C742 H754 0.960 . S
C742 H755 0.962 . S
C742 H756 0.960 . S
C743 C740 1.511 . S
C743 H757 0.961 . S
C743 H758 0.961 . S
C743 H759 0.961 . S
C744 C745 1.370 . S
C744 C746 1.363 . S
C744 H760 0.931 . S
C745 C744 1.370 . S
C745 C749 1.408 . S
C746 C744 1.363 . S
C746 C747 1.370 . S
C746 C750 1.524 . S
C747 C739 1.503 . S
C747 C746 1.370 . S
C747 C748 1.403 . S
C748 C747 1.403 . S
C748 C749 1.404 . S
C748 C751 1.539 . S
C749 C745 1.408 . S
C749 C748 1.404 . S
C749 H761 0.930 1_554 S
C750 C746 1.524 . S
C750 H762 0.956 . S
C750 H763 0.961 . S
C750 H764 0.961 . S
C751 C748 1.539 . S
C751 H765 0.958 . S
C751 H766 0.961 1_554 S
C751 H767 0.960 . S
H752 C736 0.931 . S
H753 C741 0.929 . S
H754 C742 0.960 . S
H755 C742 0.962 . S
H756 C742 0.960 . S
H757 C743 0.961 . S
H758 C743 0.961 . S
H759 C743 0.961 . S
H760 C744 0.931 . S
H761 C749 0.930 1_556 S
H762 C750 0.956 . S
H763 C750 0.961 . S
H764 C750 0.961 . S
H765 C751 0.958 . S
H766 C751 0.961 1_556 S
H767 C751 0.960 . S
C768 C769 1.391 . S
C768 C770 1.394 . S
C768 H784 0.931 . S
C769 C768 1.391 . S
C769 C773 1.376 1_455 S
C770 C768 1.394 . S
C770 C771 1.369 . S
C770 C774 1.531 . S
C771 C770 1.369 . S
C771 C772 1.410 1_455 S
C771 C779 1.503 . S
C772 C771 1.410 1_655 S
C772 C773 1.392 . S
C772 C775 1.511 . S
C773 C769 1.376 1_655 S
C773 C772 1.392 . S
C773 H785 0.929 . S
C774 C770 1.531 . S
C774 H786 0.960 . S
C774 H787 0.962 . S
C774 H788 0.960 . S
C775 C772 1.511 . S
C775 H789 0.961 . S
C775 H790 0.961 . S
C775 H791 0.961 . S
C776 C777 1.370 . S
C776 C778 1.363 . S
C776 H792 0.931 . S
C777 C776 1.370 . S
C777 C781 1.412 . S
C778 C776 1.363 . S
C778 C779 1.370 . S
C778 C782 1.524 . S
C779 C771 1.503 . S
C779 C778 1.370 . S
C779 C780 1.403 1_455 S
C780 C779 1.403 1_655 S
C780 C781 1.403 1_655 S
C780 C783 1.539 1_556 S
C781 C777 1.412 . S
C781 C780 1.403 1_455 S
C781 H793 0.927 1_455 S
C782 C778 1.524 . S
C782 H794 0.956 . S
C782 H795 0.961 . S
C782 H796 0.961 . S
C783 C780 1.539 1_554 S
C783 H797 0.958 . S
C783 H798 0.961 . S
C783 H799 0.960 . S
H784 C768 0.931 . S
H785 C773 0.929 . S
H786 C774 0.960 . S
H787 C774 0.962 . S
H788 C774 0.960 . S
H789 C775 0.961 . S
H790 C775 0.961 . S
H791 C775 0.961 . S
H792 C776 0.931 . S
H793 C781 0.927 1_655 S
H794 C782 0.956 . S
H795 C782 0.961 . S
H796 C782 0.961 . S
H797 C783 0.958 . S
H798 C783 0.961 . S
H799 C783 0.960 . S
C800 C801 1.391 . S
C800 C802 1.394 . S
C800 H816 0.931 . S
C801 C800 1.391 . S
C801 C805 1.376 1_545 S
C802 C800 1.394 . S
C802 C803 1.369 . S
C802 C806 1.531 . S
C803 C802 1.369 . S
C803 C804 1.410 1_545 S
C803 C811 1.503 . S
C804 C803 1.410 1_565 S
C804 C805 1.392 . S
C804 C807 1.511 . S
C805 C801 1.376 1_565 S
C805 C804 1.392 . S
C805 H817 0.929 . S
C806 C802 1.531 . S
C806 H818 0.960 . S
C806 H819 0.962 . S
C806 H820 0.960 . S
C807 C804 1.511 . S
C807 H821 0.961 . S
C807 H822 0.961 . S
C807 H823 0.961 . S
C808 C809 1.370 . S
C808 C810 1.363 . S
C808 H824 0.931 . S
C809 C808 1.370 . S
C809 C813 1.408 . S
C810 C808 1.363 . S
C810 C811 1.370 . S
C810 C814 1.524 . S
C811 C803 1.503 . S
C811 C810 1.370 . S
C811 C812 1.403 . S
C812 C811 1.403 . S
C812 C813 1.404 . S
C812 C815 1.539 1_546 S
C813 C809 1.408 . S
C813 C812 1.404 . S
C813 H825 0.930 . S
C814 C810 1.524 . S
C814 H826 0.956 . S
C814 H827 0.988 . S
C814 H828 0.961 . S
C815 C812 1.539 1_564 S
C815 H829 0.958 1_565 S
C815 H830 0.961 . S
C815 H831 0.960 . S
H816 C800 0.931 . S
H817 C805 0.929 . S
H818 C806 0.960 . S
H819 C806 0.962 . S
H820 C806 0.960 . S
H821 C807 0.961 . S
H822 C807 0.961 . S
H823 C807 0.961 . S
H824 C808 0.931 . S
H825 C813 0.930 . S
H826 C814 0.956 . S
H827 C814 0.988 . S
H828 C814 0.961 . S
H829 C815 0.958 1_545 S
H830 C815 0.961 . S
H831 C815 0.960 . S
C832 C833 1.391 . S
C832 C834 1.394 . S
C832 H848 0.931 . S
C833 C832 1.391 . S
C833 C837 1.376 . S
C834 C832 1.394 . S
C834 C835 1.369 . S
C834 C838 1.531 . S
C835 C834 1.369 . S
C835 C836 1.410 . S
C835 C843 1.503 . S
C836 C835 1.410 . S
C836 C837 1.392 . S
C836 C839 1.511 . S
C837 C833 1.376 . S
C837 C836 1.392 . S
C837 H849 0.929 . S
C838 C834 1.531 . S
C838 H850 0.960 . S
C838 H851 0.962 . S
C838 H852 0.960 . S
C839 C836 1.511 . S
C839 H853 0.961 . S
C839 H854 0.961 . S
C839 H855 0.961 . S
C840 C841 1.370 . S
C840 C842 1.363 . S
C840 H856 0.931 . S
C841 C840 1.370 . S
C841 C845 1.408 . S
C842 C840 1.363 . S
C842 C843 1.370 . S
C842 C846 1.524 1_556 S
C843 C835 1.503 . S
C843 C842 1.370 . S
C843 C844 1.403 . S
C844 C843 1.403 . S
C844 C845 1.404 . S
C844 C847 1.539 . S
C845 C841 1.408 . S
C845 C844 1.404 . S
C845 H857 0.930 . S
C846 C842 1.524 1_554 S
C846 H858 0.956 . S
C846 H859 0.961 . S
C846 H860 0.961 . S
C847 C844 1.539 . S
C847 H861 0.958 . S
C847 H862 0.961 . S
C847 H863 0.960 . S
H848 C832 0.931 . S
H849 C837 0.929 . S
H850 C838 0.960 . S
H851 C838 0.962 . S
H852 C838 0.960 . S
H853 C839 0.961 . S
H854 C839 0.961 . S
H855 C839 0.961 . S
H856 C840 0.931 . S
H857 C845 0.930 . S
H858 C846 0.956 . S
H859 C846 0.961 . S
H860 C846 0.961 . S
H861 C847 0.958 . S
H862 C847 0.961 . S
H863 C847 0.960 . S
C864 C865 1.391 . S
C864 C866 1.394 . S
C864 H880 0.931 . S
C865 C864 1.391 . S
C865 C869 1.376 . S
C866 C864 1.394 . S
C866 C867 1.369 . S
C866 C870 1.531 . S
C867 C866 1.369 . S
C867 C868 1.410 . S
C867 C875 1.503 . S
C868 C867 1.410 . S
C868 C869 1.392 . S
C868 C871 1.511 . S
C869 C865 1.376 . S
C869 C868 1.392 . S
C869 H881 0.929 . S
C870 C866 1.531 . S
C870 H882 0.960 . S
C870 H883 0.962 . S
C870 H884 0.960 . S
C871 C868 1.511 . S
C871 H885 0.961 1_556 S
C871 H886 0.961 . S
C871 H887 0.961 . S
C872 C873 1.370 . S
C872 C874 1.363 . S
C872 H888 0.931 . S
C873 C872 1.370 . S
C873 C877 1.408 . S
C874 C872 1.363 . S
C874 C875 1.370 . S
C874 C878 1.524 . S
C875 C867 1.503 . S
C875 C874 1.370 . S
C875 C876 1.403 . S
C876 C875 1.403 . S
C876 C877 1.404 . S
C876 C879 1.539 . S
C877 C873 1.408 . S
C877 C876 1.404 . S
C877 H889 0.930 . S
C878 C874 1.524 . S
C878 H890 0.956 . S
C878 H891 0.961 . S
C878 H892 0.961 . S
C879 C876 1.539 . S
C879 H893 0.958 . S
C879 H894 0.961 . S
C879 H895 0.960 . S
H880 C864 0.931 . S
H881 C869 0.929 . S
H882 C870 0.960 . S
H883 C870 0.962 . S
H884 C870 0.960 . S
H885 C871 0.961 1_554 S
H886 C871 0.961 . S
H887 C871 0.961 . S
H888 C872 0.931 . S
H889 C877 0.930 . S
H890 C878 0.956 . S
H891 C878 0.961 . S
H892 C878 0.961 . S
H893 C879 0.958 . S
H894 C879 0.961 . S
H895 C879 0.960 . S
C896 C897 1.391 1_455 S
C896 C898 1.394 . S
C896 H912 0.931 . S
C897 C896 1.391 1_655 S
C897 C901 1.376 . S
C898 C896 1.394 . S
C898 C899 1.369 1_455 S
C898 C902 1.531 . S
C899 C898 1.369 1_655 S
C899 C900 1.410 . S
C899 C907 1.503 . S
C900 C899 1.410 . S
C900 C901 1.392 . S
C900 C903 1.511 . S
C901 C897 1.376 . S
C901 C900 1.392 . S
C901 H913 0.929 . S
C902 C898 1.531 . S
C902 H914 0.960 . S
C902 H915 0.962 . S
C902 H916 0.960 . S
C903 C900 1.511 . S
C903 H917 0.961 . S
C903 H918 0.961 . S
C903 H919 0.961 . S
C904 C905 1.370 1_455 S
C904 C906 1.363 . S
C904 H920 0.931 . S
C905 C904 1.370 1_655 S
C905 C909 1.408 . S
C906 C904 1.363 . S
C906 C907 1.370 1_455 S
C906 C910 1.524 . S
C907 C899 1.503 . S
C907 C906 1.370 1_655 S
C907 C908 1.403 . S
C908 C907 1.403 . S
C908 C909 1.404 . S
C908 C911 1.539 . S
C909 C905 1.408 . S
C909 C908 1.404 . S
C909 H921 0.930 . S
C910 C906 1.524 . S
C910 H922 0.956 . S
C910 H923 0.961 . S
C910 H924 0.961 . S
C911 C908 1.539 . S
C911 H925 0.958 . S
C911 H926 0.961 . S
C911 H927 0.960 . S
H912 C896 0.931 . S
H913 C901 0.929 . S
H914 C902 0.960 . S
H915 C902 0.962 . S
H916 C902 0.960 . S
H917 C903 0.961 . S
H918 C903 0.961 . S
H919 C903 0.961 . S
H920 C904 0.931 . S
H921 C909 0.930 . S
H922 C910 0.956 . S
H923 C910 0.961 . S
H924 C910 0.961 . S
H925 C911 0.958 . S
H926 C911 0.961 . S
H927 C911 0.960 . S
C928 C929 1.391 . S
C928 C930 1.394 . S
C928 H944 0.931 . S
C929 C928 1.391 . S
C929 C933 1.376 1_565 S
C930 C928 1.394 . S
C930 C931 1.369 . S
C930 C934 1.531 . S
C931 C930 1.369 . S
C931 C932 1.410 . S
C931 C939 1.503 . S
C932 C931 1.410 . S
C932 C933 1.392 1_565 S
C932 C935 1.511 1_565 S
C933 C929 1.376 1_545 S
C933 C932 1.392 1_545 S
C933 H945 0.929 . S
C934 C930 1.531 . S
C934 H946 0.960 . S
C934 H947 0.962 . S
C934 H948 0.960 . S
C935 C932 1.511 1_545 S
C935 H949 0.961 . S
C935 H950 0.961 . S
C935 H951 0.961 1_545 S
C936 C937 1.370 1_545 S
C936 C938 1.363 . S
C936 H952 0.931 . S
C937 C936 1.370 1_565 S
C937 C941 1.408 . S
C938 C936 1.363 . S
C938 C939 1.370 1_545 S
C938 C942 1.524 . S
C939 C931 1.503 . S
C939 C938 1.370 1_565 S
C939 C940 1.403 . S
C940 C939 1.403 . S
C940 C941 1.404 . S
C940 C943 1.539 . S
C941 C937 1.408 . S
C941 C940 1.404 . S
C941 H953 0.930 . S
C942 C938 1.524 . S
C942 H954 0.956 . S
C942 H955 0.961 . S
C942 H956 0.961 . S
C943 C940 1.539 . S
C943 H957 0.958 . S
C943 H958 0.961 . S
C943 H959 0.960 . S
H944 C928 0.931 . S
H945 C933 0.929 . S
H946 C934 0.960 . S
H947 C934 0.962 . S
H948 C934 0.960 . S
H949 C935 0.961 . S
H950 C935 0.961 . S
H951 C935 0.961 1_565 S
H952 C936 0.931 . S
H953 C941 0.930 . S
H954 C942 0.956 . S
H955 C942 0.961 . S
H956 C942 0.961 . S
H957 C943 0.958 . S
H958 C943 0.961 . S
H959 C943 0.960 . S
C960 C961 1.391 . S
C960 C962 1.394 . S
C960 H976 0.931 . S
C961 C960 1.391 . S
C961 C965 1.376 . S
C962 C960 1.394 . S
C962 C963 1.369 . S
C962 C966 1.531 . S
C963 C962 1.369 . S
C963 C964 1.410 . S
C963 C971 1.503 . S
C964 C963 1.410 . S
C964 C965 1.392 . S
C964 C967 1.511 . S
C965 C961 1.376 . S
C965 C964 1.392 . S
C965 H977 0.929 . S
C966 C962 1.531 . S
C966 H978 0.960 . S
C966 H979 0.962 . S
C966 H980 0.960 . S
C967 C964 1.511 . S
C967 H981 0.961 . S
C967 H982 0.961 . S
C967 H983 0.961 . S
C968 C969 1.370 . S
C968 C970 1.363 . S
C968 H984 0.931 . S
C969 C968 1.370 . S
C969 C973 1.408 . S
C970 C968 1.363 . S
C970 C971 1.370 . S
C970 C974 1.524 . S
C971 C963 1.503 . S
C971 C970 1.370 . S
C971 C972 1.403 . S
C972 C971 1.403 . S
C972 C973 1.404 . S
C972 C975 1.539 . S
C973 C969 1.408 . S
C973 C972 1.404 . S
C973 H985 0.930 . S
C974 C970 1.524 . S
C974 H986 0.956 . S
C974 H987 0.961 . S
C974 H988 0.961 . S
C975 C972 1.539 . S
C975 H989 0.958 . S
C975 H990 0.961 . S
C975 H991 0.960 . S
H976 C960 0.931 . S
H977 C965 0.929 . S
H978 C966 0.960 . S
H979 C966 0.962 . S
H980 C966 0.960 . S
H981 C967 0.961 . S
H982 C967 0.961 . S
H983 C967 0.961 . S
H984 C968 0.931 . S
H985 C973 0.930 . S
H986 C974 0.956 . S
H987 C974 0.961 . S
H988 C974 0.961 . S
H989 C975 0.958 . S
H990 C975 0.961 . S
H991 C975 0.960 . S
C992 C993 1.391 . S
C992 C994 1.394 . S
C992 H1008 0.931 . S
C993 C992 1.391 . S
C993 C997 1.376 . S
C994 C992 1.394 . S
C994 C995 1.369 . S
C994 C998 1.531 . S
C995 C994 1.369 . S
C995 C996 1.410 . S
C995 C1003 1.503 . S
C996 C995 1.410 . S
C996 C997 1.392 . S
C996 C999 1.511 . S
C997 C993 1.376 . S
C997 C996 1.392 . S
C997 H1009 0.929 . S
C998 C994 1.531 . S
C998 H1010 0.960 . S
C998 H1011 0.962 . S
C998 H1012 0.960 . S
C999 C996 1.511 . S
C999 H1013 0.961 . S
C999 H1014 0.961 . S
C999 H1015 0.961 . S
C1000 C1001 1.370 . S
C1000 C1002 1.363 . S
C1000 H1016 0.931 . S
C1001 C1000 1.370 . S
C1001 C1005 1.408 . S
C1002 C1000 1.363 . S
C1002 C1003 1.370 . S
C1002 C1006 1.524 . S
C1003 C995 1.503 . S
C1003 C1002 1.370 . S
C1003 C1004 1.403 . S
C1004 C1003 1.403 . S
C1004 C1005 1.404 . S
C1004 C1007 1.539 . S
C1005 C1001 1.408 . S
C1005 C1004 1.404 . S
C1005 H1017 0.930 . S
C1006 C1002 1.524 . S
C1006 H1018 0.956 . S
C1006 H1019 0.961 . S
C1006 H1020 0.961 . S
C1007 C1004 1.539 . S
C1007 H1021 0.958 . S
C1007 H1022 0.961 . S
C1007 H1023 0.960 . S
H1008 C992 0.931 . S
H1009 C997 0.929 . S
H1010 C998 0.960 . S
H1011 C998 0.962 . S
H1012 C998 0.960 . S
H1013 C999 0.961 . S
H1014 C999 0.961 . S
H1015 C999 0.961 . S
H1016 C1000 0.931 . S
H1017 C1005 0.930 . S
H1018 C1006 0.956 . S
H1019 C1006 0.961 . S
H1020 C1006 0.961 . S
H1021 C1007 0.958 . S
H1022 C1007 0.961 . S
H1023 C1007 0.960 . S
C257 C76 1.817 1_545 S
C265 C106 1.961 1_545 S
C297 C146 1.966 . S
C289 C88 1.790 . S
C329 C186 1.973 . S
C321 C52 1.851 . S
C361 C226 1.964 1_455 S
C353 C64 1.842 . S
C393 C115 1.967 1_565 S
C385 C28 1.791 . S
C417 C40 1.847 . S
C425 C155 1.972 . S
C449 C4 1.835 . S
C457 C195 1.969 . S
C481 C16 1.787 1_455 S
C489 C235 1.962 1_655 S
C521 C112 0.529 . S
C513 C69 0.521 . S
C553 C152 0.505 . S
C545 C81 0.443 . S
C585 C192 0.519 . S
C577 C93 0.571 . S
C609 C57 0.429 . S
C617 C232 0.516 . S
C641 C21 0.583 1_655 S
C649 C103 0.497 . S
C681 C143 0.534 . S
C673 C33 0.480 . S
C713 C183 0.530 . S
C705 C45 0.437 . S
C737 C9 0.608 . S
C745 C223 0.483 . S
C769 C66 2.003 . S
C777 C107 2.275 . S
C801 C78 1.990 . S
C809 C147 2.271 . S
C841 C187 2.270 . S
C833 C90 2.058 . S
C873 C227 2.284 . S
C865 C54 2.046 . S
C897 C18 2.026 1_655 S
C905 C98 2.296 . S
C937 C138 2.278 . S
C929 C30 2.047 1_565 S
C969 C178 2.270 . S
C961 C42 2.059 . S
C993 C6 2.070 . S
C1001 C218 2.287 . S
