# Generated by pormake.
# Topology tbo, (3,4)-cn, num edge types: 1
# Building blocks:
#     Node 0, Type 0, BuildingBlock: MIDCAF_clean_linker_0, # of connection points: 3
#     Node 1, Type 0, BuildingBlock: MIDCAF_clean_linker_0, # of connection points: 3
#     Node 2, Type 0, BuildingBlock: MIDCAF_clean_linker_0, # of connection points: 3
#     Node 3, Type 0, BuildingBlock: MIDCAF_clean_linker_0, # of connection points: 3
#     Node 4, Type 0, BuildingBlock: MIDCAF_clean_linker_0, # of connection points: 3
#     Node 5, Type 0, BuildingBlock: MIDCAF_clean_linker_0, # of connection points: 3
#     Node 6, Type 0, BuildingBlock: MIDCAF_clean_linker_0, # of connection points: 3
#     Node 7, Type 0, BuildingBlock: MIDCAF_clean_linker_0, # of connection points: 3
#     Node 8, Type 0, BuildingBlock: MIDCAF_clean_linker_0, # of connection points: 3
#     Node 9, Type 0, BuildingBlock: MIDCAF_clean_linker_0, # of connection points: 3
#     Node 10, Type 0, BuildingBlock: MIDCAF_clean_linker_0, # of connection points: 3
#     Node 11, Type 0, BuildingBlock: MIDCAF_clean_linker_0, # of connection points: 3
#     Node 12, Type 0, BuildingBlock: MIDCAF_clean_linker_0, # of connection points: 3
#     Node 13, Type 0, BuildingBlock: MIDCAF_clean_linker_0, # of connection points: 3
#     Node 14, Type 0, BuildingBlock: MIDCAF_clean_linker_0, # of connection points: 3
#     Node 15, Type 0, BuildingBlock: MIDCAF_clean_linker_0, # of connection points: 3
#     Node 16, Type 0, BuildingBlock: MIDCAF_clean_linker_0, # of connection points: 3
#     Node 17, Type 0, BuildingBlock: MIDCAF_clean_linker_0, # of connection points: 3
#     Node 18, Type 0, BuildingBlock: MIDCAF_clean_linker_0, # of connection points: 3
#     Node 19, Type 0, BuildingBlock: MIDCAF_clean_linker_0, # of connection points: 3
#     Node 20, Type 0, BuildingBlock: MIDCAF_clean_linker_0, # of connection points: 3
#     Node 21, Type 0, BuildingBlock: MIDCAF_clean_linker_0, # of connection points: 3
#     Node 22, Type 0, BuildingBlock: MIDCAF_clean_linker_0, # of connection points: 3
#     Node 23, Type 0, BuildingBlock: MIDCAF_clean_linker_0, # of connection points: 3
#     Node 24, Type 0, BuildingBlock: MIDCAF_clean_linker_0, # of connection points: 3
#     Node 25, Type 0, BuildingBlock: MIDCAF_clean_linker_0, # of connection points: 3
#     Node 26, Type 0, BuildingBlock: MIDCAF_clean_linker_0, # of connection points: 3
#     Node 27, Type 0, BuildingBlock: MIDCAF_clean_linker_0, # of connection points: 3
#     Node 28, Type 0, BuildingBlock: MIDCAF_clean_linker_0, # of connection points: 3
#     Node 29, Type 0, BuildingBlock: MIDCAF_clean_linker_0, # of connection points: 3
#     Node 30, Type 0, BuildingBlock: MIDCAF_clean_linker_0, # of connection points: 3
#     Node 31, Type 0, BuildingBlock: MIDCAF_clean_linker_0, # of connection points: 3
#     Node 32, Type 1, BuildingBlock: ESEHIV_clean_sbu_0, # of connection points: 4
#     Node 33, Type 1, BuildingBlock: ESEHIV_clean_sbu_0, # of connection points: 4
#     Node 34, Type 1, BuildingBlock: ESEHIV_clean_sbu_0, # of connection points: 4
#     Node 35, Type 1, BuildingBlock: ESEHIV_clean_sbu_0, # of connection points: 4
#     Node 36, Type 1, BuildingBlock: ESEHIV_clean_sbu_0, # of connection points: 4
#     Node 37, Type 1, BuildingBlock: ESEHIV_clean_sbu_0, # of connection points: 4
#     Node 38, Type 1, BuildingBlock: ESEHIV_clean_sbu_0, # of connection points: 4
#     Node 39, Type 1, BuildingBlock: ESEHIV_clean_sbu_0, # of connection points: 4
#     Node 40, Type 1, BuildingBlock: ESEHIV_clean_sbu_0, # of connection points: 4
#     Node 41, Type 1, BuildingBlock: ESEHIV_clean_sbu_0, # of connection points: 4
#     Node 42, Type 1, BuildingBlock: ESEHIV_clean_sbu_0, # of connection points: 4
#     Node 43, Type 1, BuildingBlock: ESEHIV_clean_sbu_0, # of connection points: 4
#     Node 44, Type 1, BuildingBlock: ESEHIV_clean_sbu_0, # of connection points: 4
#     Node 45, Type 1, BuildingBlock: ESEHIV_clean_sbu_0, # of connection points: 4
#     Node 46, Type 1, BuildingBlock: ESEHIV_clean_sbu_0, # of connection points: 4
#     Node 47, Type 1, BuildingBlock: ESEHIV_clean_sbu_0, # of connection points: 4
#     Node 48, Type 1, BuildingBlock: ESEHIV_clean_sbu_0, # of connection points: 4
#     Node 49, Type 1, BuildingBlock: ESEHIV_clean_sbu_0, # of connection points: 4
#     Node 50, Type 1, BuildingBlock: ESEHIV_clean_sbu_0, # of connection points: 4
#     Node 51, Type 1, BuildingBlock: ESEHIV_clean_sbu_0, # of connection points: 4
#     Node 52, Type 1, BuildingBlock: ESEHIV_clean_sbu_0, # of connection points: 4
#     Node 53, Type 1, BuildingBlock: ESEHIV_clean_sbu_0, # of connection points: 4
#     Node 54, Type 1, BuildingBlock: ESEHIV_clean_sbu_0, # of connection points: 4
#     Node 55, Type 1, BuildingBlock: ESEHIV_clean_sbu_0, # of connection points: 4
#     Edge 56, Type (0, 1), BuildingBlock: TEMPAE_clean_linker_10, # of connection points: 2
#     Edge 57, Type (0, 1), BuildingBlock: TEMPAE_clean_linker_10, # of connection points: 2
#     Edge 58, Type (0, 1), BuildingBlock: TEMPAE_clean_linker_10, # of connection points: 2
#     Edge 59, Type (0, 1), BuildingBlock: TEMPAE_clean_linker_10, # of connection points: 2
#     Edge 60, Type (0, 1), BuildingBlock: TEMPAE_clean_linker_10, # of connection points: 2
#     Edge 61, Type (0, 1), BuildingBlock: TEMPAE_clean_linker_10, # of connection points: 2
#     Edge 62, Type (0, 1), BuildingBlock: TEMPAE_clean_linker_10, # of connection points: 2
#     Edge 63, Type (0, 1), BuildingBlock: TEMPAE_clean_linker_10, # of connection points: 2
#     Edge 64, Type (0, 1), BuildingBlock: TEMPAE_clean_linker_10, # of connection points: 2
#     Edge 65, Type (0, 1), BuildingBlock: TEMPAE_clean_linker_10, # of connection points: 2
#     Edge 66, Type (0, 1), BuildingBlock: TEMPAE_clean_linker_10, # of connection points: 2
#     Edge 67, Type (0, 1), BuildingBlock: TEMPAE_clean_linker_10, # of connection points: 2
#     Edge 68, Type (0, 1), BuildingBlock: TEMPAE_clean_linker_10, # of connection points: 2
#     Edge 69, Type (0, 1), BuildingBlock: TEMPAE_clean_linker_10, # of connection points: 2
#     Edge 70, Type (0, 1), BuildingBlock: TEMPAE_clean_linker_10, # of connection points: 2
#     Edge 71, Type (0, 1), BuildingBlock: TEMPAE_clean_linker_10, # of connection points: 2
#     Edge 72, Type (0, 1), BuildingBlock: TEMPAE_clean_linker_10, # of connection points: 2
#     Edge 73, Type (0, 1), BuildingBlock: TEMPAE_clean_linker_10, # of connection points: 2
#     Edge 74, Type (0, 1), BuildingBlock: TEMPAE_clean_linker_10, # of connection points: 2
#     Edge 75, Type (0, 1), BuildingBlock: TEMPAE_clean_linker_10, # of connection points: 2
#     Edge 76, Type (0, 1), BuildingBlock: TEMPAE_clean_linker_10, # of connection points: 2
#     Edge 77, Type (0, 1), BuildingBlock: TEMPAE_clean_linker_10, # of connection points: 2
#     Edge 78, Type (0, 1), BuildingBlock: TEMPAE_clean_linker_10, # of connection points: 2
#     Edge 79, Type (0, 1), BuildingBlock: TEMPAE_clean_linker_10, # of connection points: 2
#     Edge 80, Type (0, 1), BuildingBlock: TEMPAE_clean_linker_10, # of connection points: 2
#     Edge 81, Type (0, 1), BuildingBlock: TEMPAE_clean_linker_10, # of connection points: 2
#     Edge 82, Type (0, 1), BuildingBlock: TEMPAE_clean_linker_10, # of connection points: 2
#     Edge 83, Type (0, 1), BuildingBlock: TEMPAE_clean_linker_10, # of connection points: 2
#     Edge 84, Type (0, 1), BuildingBlock: TEMPAE_clean_linker_10, # of connection points: 2
#     Edge 85, Type (0, 1), BuildingBlock: TEMPAE_clean_linker_10, # of connection points: 2
#     Edge 86, Type (0, 1), BuildingBlock: TEMPAE_clean_linker_10, # of connection points: 2
#     Edge 87, Type (0, 1), BuildingBlock: TEMPAE_clean_linker_10, # of connection points: 2
#     Edge 88, Type (0, 1), BuildingBlock: TEMPAE_clean_linker_10, # of connection points: 2
#     Edge 89, Type (0, 1), BuildingBlock: TEMPAE_clean_linker_10, # of connection points: 2
#     Edge 90, Type (0, 1), BuildingBlock: TEMPAE_clean_linker_10, # of connection points: 2
#     Edge 91, Type (0, 1), BuildingBlock: TEMPAE_clean_linker_10, # of connection points: 2
#     Edge 92, Type (0, 1), BuildingBlock: TEMPAE_clean_linker_10, # of connection points: 2
#     Edge 93, Type (0, 1), BuildingBlock: TEMPAE_clean_linker_10, # of connection points: 2
#     Edge 94, Type (0, 1), BuildingBlock: TEMPAE_clean_linker_10, # of connection points: 2
#     Edge 95, Type (0, 1), BuildingBlock: TEMPAE_clean_linker_10, # of connection points: 2
#     Edge 96, Type (0, 1), BuildingBlock: TEMPAE_clean_linker_10, # of connection points: 2
#     Edge 97, Type (0, 1), BuildingBlock: TEMPAE_clean_linker_10, # of connection points: 2
#     Edge 98, Type (0, 1), BuildingBlock: TEMPAE_clean_linker_10, # of connection points: 2
#     Edge 99, Type (0, 1), BuildingBlock: TEMPAE_clean_linker_10, # of connection points: 2
#     Edge 100, Type (0, 1), BuildingBlock: TEMPAE_clean_linker_10, # of connection points: 2
#     Edge 101, Type (0, 1), BuildingBlock: TEMPAE_clean_linker_10, # of connection points: 2
#     Edge 102, Type (0, 1), BuildingBlock: TEMPAE_clean_linker_10, # of connection points: 2
#     Edge 103, Type (0, 1), BuildingBlock: TEMPAE_clean_linker_10, # of connection points: 2
#     Edge 104, Type (0, 1), BuildingBlock: TEMPAE_clean_linker_10, # of connection points: 2
#     Edge 105, Type (0, 1), BuildingBlock: TEMPAE_clean_linker_10, # of connection points: 2
#     Edge 106, Type (0, 1), BuildingBlock: TEMPAE_clean_linker_10, # of connection points: 2
#     Edge 107, Type (0, 1), BuildingBlock: TEMPAE_clean_linker_10, # of connection points: 2
#     Edge 108, Type (0, 1), BuildingBlock: TEMPAE_clean_linker_10, # of connection points: 2
#     Edge 109, Type (0, 1), BuildingBlock: TEMPAE_clean_linker_10, # of connection points: 2
#     Edge 110, Type (0, 1), BuildingBlock: TEMPAE_clean_linker_10, # of connection points: 2
#     Edge 111, Type (0, 1), BuildingBlock: TEMPAE_clean_linker_10, # of connection points: 2
#     Edge 112, Type (0, 1), BuildingBlock: TEMPAE_clean_linker_10, # of connection points: 2
#     Edge 113, Type (0, 1), BuildingBlock: TEMPAE_clean_linker_10, # of connection points: 2
#     Edge 114, Type (0, 1), BuildingBlock: TEMPAE_clean_linker_10, # of connection points: 2
#     Edge 115, Type (0, 1), BuildingBlock: TEMPAE_clean_linker_10, # of connection points: 2
#     Edge 116, Type (0, 1), BuildingBlock: TEMPAE_clean_linker_10, # of connection points: 2
#     Edge 117, Type (0, 1), BuildingBlock: TEMPAE_clean_linker_10, # of connection points: 2
#     Edge 118, Type (0, 1), BuildingBlock: TEMPAE_clean_linker_10, # of connection points: 2
#     Edge 119, Type (0, 1), BuildingBlock: TEMPAE_clean_linker_10, # of connection points: 2
#     Edge 120, Type (0, 1), BuildingBlock: TEMPAE_clean_linker_10, # of connection points: 2
#     Edge 121, Type (0, 1), BuildingBlock: TEMPAE_clean_linker_10, # of connection points: 2
#     Edge 122, Type (0, 1), BuildingBlock: TEMPAE_clean_linker_10, # of connection points: 2
#     Edge 123, Type (0, 1), BuildingBlock: TEMPAE_clean_linker_10, # of connection points: 2
#     Edge 124, Type (0, 1), BuildingBlock: TEMPAE_clean_linker_10, # of connection points: 2
#     Edge 125, Type (0, 1), BuildingBlock: TEMPAE_clean_linker_10, # of connection points: 2
#     Edge 126, Type (0, 1), BuildingBlock: TEMPAE_clean_linker_10, # of connection points: 2
#     Edge 127, Type (0, 1), BuildingBlock: TEMPAE_clean_linker_10, # of connection points: 2
#     Edge 128, Type (0, 1), BuildingBlock: TEMPAE_clean_linker_10, # of connection points: 2
#     Edge 129, Type (0, 1), BuildingBlock: TEMPAE_clean_linker_10, # of connection points: 2
#     Edge 130, Type (0, 1), BuildingBlock: TEMPAE_clean_linker_10, # of connection points: 2
#     Edge 131, Type (0, 1), BuildingBlock: TEMPAE_clean_linker_10, # of connection points: 2
#     Edge 132, Type (0, 1), BuildingBlock: TEMPAE_clean_linker_10, # of connection points: 2
#     Edge 133, Type (0, 1), BuildingBlock: TEMPAE_clean_linker_10, # of connection points: 2
#     Edge 134, Type (0, 1), BuildingBlock: TEMPAE_clean_linker_10, # of connection points: 2
#     Edge 135, Type (0, 1), BuildingBlock: TEMPAE_clean_linker_10, # of connection points: 2
#     Edge 136, Type (0, 1), BuildingBlock: TEMPAE_clean_linker_10, # of connection points: 2
#     Edge 137, Type (0, 1), BuildingBlock: TEMPAE_clean_linker_10, # of connection points: 2
#     Edge 138, Type (0, 1), BuildingBlock: TEMPAE_clean_linker_10, # of connection points: 2
#     Edge 139, Type (0, 1), BuildingBlock: TEMPAE_clean_linker_10, # of connection points: 2
#     Edge 140, Type (0, 1), BuildingBlock: TEMPAE_clean_linker_10, # of connection points: 2
#     Edge 141, Type (0, 1), BuildingBlock: TEMPAE_clean_linker_10, # of connection points: 2
#     Edge 142, Type (0, 1), BuildingBlock: TEMPAE_clean_linker_10, # of connection points: 2
#     Edge 143, Type (0, 1), BuildingBlock: TEMPAE_clean_linker_10, # of connection points: 2
#     Edge 144, Type (0, 1), BuildingBlock: TEMPAE_clean_linker_10, # of connection points: 2
#     Edge 145, Type (0, 1), BuildingBlock: TEMPAE_clean_linker_10, # of connection points: 2
#     Edge 146, Type (0, 1), BuildingBlock: TEMPAE_clean_linker_10, # of connection points: 2
#     Edge 147, Type (0, 1), BuildingBlock: TEMPAE_clean_linker_10, # of connection points: 2
#     Edge 148, Type (0, 1), BuildingBlock: TEMPAE_clean_linker_10, # of connection points: 2
#     Edge 149, Type (0, 1), BuildingBlock: TEMPAE_clean_linker_10, # of connection points: 2
#     Edge 150, Type (0, 1), BuildingBlock: TEMPAE_clean_linker_10, # of connection points: 2
#     Edge 151, Type (0, 1), BuildingBlock: TEMPAE_clean_linker_10, # of connection points: 2
# Relax obj value: 0.002
# Max RMSD: 0.119
# Mean RMSD: 0.047
data_MOF--net-tbo--node1-ESEHIV_clean_sbu_0--node2-MIDCAF_clean_linker_0--edge1-TEMPAE_clean_linker_10
_symmetry_space_group_name_H-M    P1
_symmetry_Int_Tables_number       1
_symmetry_cell_setting            triclinic
loop_
_symmetry_equiv_pos_as_xyz
'x, y, z'
_cell_length_a     91.581803
_cell_length_b     91.647581
_cell_length_c     91.581085
_cell_angle_alpha  89.958957
_cell_angle_beta   92.053464
_cell_angle_gamma 90.650331
loop_
_atom_site_label
_atom_site_type_symbol
_atom_site_fract_x
_atom_site_fract_y
_atom_site_fract_z
_atom_type_partial_charge
C0 C 0.13163 0.19219 0.19698 0.0
C1 C 0.12674 0.18401 0.20889 0.0
C2 C 0.13407 0.17109 0.21272 0.0
C3 C 0.14606 0.16653 0.20494 0.0
H4 H 0.17384 0.13224 0.20067 0.0
H5 H 0.1867 0.11064 0.20923 0.0
H6 H 0.22379 0.1228 0.1839 0.0
H7 H 0.2109 0.1446 0.17526 0.0
H8 H 0.20769 0.17284 0.15398 0.0
H9 H 0.21603 0.1869 0.13315 0.0
H10 H 0.17433 0.2083 0.12957 0.0
H11 H 0.16593 0.19432 0.15043 0.0
H12 H 0.14709 0.19423 0.18009 0.0
H13 H 0.12613 0.2021 0.19362 0.0
H14 H 0.13072 0.16462 0.22195 0.0
H15 H 0.15147 0.15658 0.20833 0.0
N16 N 0.17139 0.15787 0.18936 0.0
N17 N 0.18827 0.16166 0.17103 0.0
N18 N 0.16888 0.17791 0.17359 0.0
C19 C 0.18349 0.15359 0.18241 0.0
C20 C 0.18098 0.1738 0.16651 0.0
C21 C 0.16404 0.17004 0.18509 0.0
C22 C 0.19132 0.14023 0.18728 0.0
C23 C 0.18471 0.13035 0.19685 0.0
C24 C 0.19204 0.11787 0.20167 0.0
C25 C 0.20622 0.11496 0.19717 0.0
C26 C 0.21287 0.12478 0.18758 0.0
C27 C 0.20546 0.13723 0.1826 0.0
C28 C 0.18612 0.18243 0.15391 0.0
C29 C 0.20028 0.18053 0.14878 0.0
C30 C 0.2051 0.18864 0.13689 0.0
C31 C 0.19583 0.19868 0.12974 0.0
C32 C 0.18167 0.20056 0.13481 0.0
C33 C 0.1769 0.1926 0.14682 0.0
C34 C 0.15104 0.17475 0.19308 0.0
C35 C 0.14362 0.18762 0.18916 0.0
C36 C 0.83761 0.14188 0.18954 0.0
C37 C 0.82324 0.1388 0.18444 0.0
C38 C 0.81642 0.14857 0.1746 0.0
C39 C 0.8238 0.16107 0.1699 0.0
H40 H 0.82185 0.19225 0.13776 0.0
H41 H 0.81222 0.20559 0.11657 0.0
H42 H 0.85002 0.2342 0.11858 0.0
H43 H 0.8598 0.22079 0.13964 0.0
H44 H 0.8837 0.21701 0.16439 0.0
H45 H 0.90583 0.22591 0.17714 0.0
H46 H 0.9012 0.19239 0.20986 0.0
H47 H 0.87895 0.18354 0.19725 0.0
H48 H 0.85601 0.1565 0.18913 0.0
H49 H 0.84312 0.13461 0.19721 0.0
H50 H 0.8054 0.14644 0.17037 0.0
H51 H 0.81818 0.16829 0.16227 0.0
N52 N 0.84056 0.18511 0.15822 0.0
N53 N 0.86019 0.20169 0.16035 0.0
N54 N 0.85861 0.18215 0.1768 0.0
C55 C 0.8476 0.1972 0.15333 0.0
C56 C 0.86577 0.19428 0.1721 0.0
C57 C 0.84599 0.17749 0.16992 0.0
C58 C 0.84164 0.2054 0.14047 0.0
C59 C 0.82814 0.20138 0.13371 0.0
C60 C 0.82256 0.20908 0.1216 0.0
C61 C 0.83034 0.22097 0.11588 0.0
C62 C 0.84383 0.22499 0.12261 0.0
C63 C 0.84939 0.21733 0.13476 0.0
C64 C 0.87945 0.19953 0.17977 0.0
C65 C 0.88736 0.2115 0.1743 0.0
C66 C 0.90012 0.21658 0.18157 0.0
C67 C 0.90528 0.2099 0.19454 0.0
C68 C 0.89742 0.19792 0.2 0.0
C69 C 0.88469 0.19278 0.19269 0.0
C70 C 0.83817 0.16421 0.17503 0.0
C71 C 0.84496 0.15448 0.18496 0.0
C72 C 0.82354 0.82526 0.13302 0.0
C73 C 0.81492 0.8345 0.12416 0.0
C74 C 0.81293 0.849 0.12869 0.0
C75 C 0.81938 0.85409 0.14188 0.0
H76 H 0.81998 0.88831 0.1727 0.0
H77 H 0.81219 0.91049 0.18459 0.0
H78 H 0.83867 0.89964 0.22296 0.0
H79 H 0.84682 0.87765 0.21092 0.0
H80 H 0.87408 0.85288 0.20476 0.0
H81 H 0.89403 0.83732 0.21386 0.0
H82 H 0.8776 0.80219 0.18627 0.0
H83 H 0.85778 0.81745 0.17738 0.0
H84 H 0.83665 0.82283 0.15255 0.0
H85 H 0.8254 0.81409 0.12977 0.0
H86 H 0.80624 0.85634 0.12213 0.0
H87 H 0.81764 0.86529 0.14508 0.0
N88 N 0.83169 0.86283 0.17089 0.0
N89 N 0.84905 0.85876 0.19002 0.0
N90 N 0.84583 0.84172 0.17111 0.0
C91 C 0.83845 0.86727 0.18368 0.0
C92 C 0.85277 0.84593 0.18375 0.0
C93 C 0.83534 0.85001 0.16456 0.0
C94 C 0.83403 0.88108 0.19082 0.0
C95 C 0.82421 0.89064 0.18366 0.0
C96 C 0.81965 0.90336 0.19053 0.0
C97 C 0.8247 0.90688 0.20482 0.0
C98 C 0.83467 0.89742 0.21191 0.0
C99 C 0.8393 0.88473 0.205 0.0
C100 C 0.86435 0.83647 0.19027 0.0
C101 C 0.87465 0.84178 0.20078 0.0
C102 C 0.88612 0.8329 0.20592 0.0
C103 C 0.88739 0.81851 0.20079 0.0
C104 C 0.87686 0.81314 0.1906 0.0
C105 C 0.86553 0.82198 0.1854 0.0
C106 C 0.82808 0.84482 0.15071 0.0
C107 C 0.83006 0.83035 0.14607 0.0
C108 C 0.1294 0.82001 0.2144 0.0
C109 C 0.12039 0.81045 0.20605 0.0
C110 C 0.12422 0.80726 0.19164 0.0
C111 C 0.13659 0.81379 0.18565 0.0
H112 H 0.16863 0.81072 0.15239 0.0
H113 H 0.18099 0.80243 0.13074 0.0
H114 H 0.21163 0.83843 0.1353 0.0
H115 H 0.19955 0.84659 0.15693 0.0
H116 H 0.19858 0.86855 0.1834 0.0
H117 H 0.20747 0.89012 0.19682 0.0
H118 H 0.17172 0.88582 0.22608 0.0
H119 H 0.16304 0.86425 0.21302 0.0
H120 H 0.14816 0.83395 0.21525 0.0
H121 H 0.12704 0.82242 0.22565 0.0
H122 H 0.11748 0.8 0.18488 0.0
H123 H 0.13911 0.81136 0.17445 0.0
N124 N 0.1642 0.82693 0.17525 0.0
N125 N 0.18097 0.84656 0.17699 0.0
N126 N 0.16322 0.8437 0.1945 0.0
C127 C 0.17583 0.83439 0.16988 0.0
C128 C 0.17467 0.85131 0.1893 0.0
C129 C 0.15789 0.83155 0.18765 0.0
C130 C 0.18307 0.82933 0.15651 0.0
C131 C 0.178 0.81688 0.14879 0.0
C132 C 0.18505 0.81214 0.13633 0.0
C133 C 0.19736 0.81971 0.13132 0.0
C134 C 0.20234 0.83219 0.13898 0.0
C135 C 0.19531 0.83693 0.15138 0.0
C136 C 0.18012 0.86458 0.19713 0.0
C137 C 0.19263 0.8722 0.1927 0.0
C138 C 0.19768 0.8846 0.20035 0.0
C139 C 0.19035 0.88964 0.21258 0.0
C140 C 0.17779 0.88209 0.21689 0.0
C141 C 0.17276 0.86973 0.2093 0.0
C142 C 0.1453 0.8237 0.19393 0.0
C143 C 0.14161 0.82657 0.20843 0.0
C144 C 0.12715 0.81263 0.82237 0.0
C145 C 0.12167 0.8211 0.81064 0.0
C146 C 0.12914 0.83405 0.80711 0.0
C147 C 0.14183 0.83835 0.81507 0.0
H148 H 0.17419 0.87077 0.81773 0.0
H149 H 0.18854 0.89217 0.81086 0.0
H150 H 0.2217 0.88118 0.8436 0.0
H151 H 0.20756 0.85978 0.85038 0.0
H152 H 0.20344 0.83402 0.87094 0.0
H153 H 0.21187 0.82066 0.89243 0.0
H154 H 0.17295 0.79362 0.88984 0.0
H155 H 0.16429 0.80719 0.86826 0.0
H156 H 0.14359 0.81009 0.83931 0.0
H157 H 0.12155 0.80271 0.82556 0.0
H158 H 0.12528 0.84078 0.79809 0.0
H159 H 0.14731 0.84836 0.81199 0.0
N160 N 0.16863 0.84635 0.83131 0.0
N161 N 0.18558 0.8423 0.85063 0.0
N162 N 0.16556 0.8264 0.8471 0.0
C163 C 0.18105 0.85039 0.83893 0.0
C164 C 0.17794 0.83032 0.85483 0.0
C165 C 0.16082 0.83433 0.83529 0.0
C166 C 0.18967 0.86348 0.83462 0.0
C167 C 0.18455 0.87289 0.82346 0.0
C168 C 0.19273 0.88521 0.81957 0.0
C169 C 0.20628 0.88838 0.82666 0.0
C170 C 0.2114 0.87897 0.83779 0.0
C171 C 0.20321 0.86672 0.84173 0.0
C172 C 0.18314 0.82174 0.86779 0.0
C173 C 0.19663 0.82522 0.87485 0.0
C174 C 0.20155 0.81745 0.88716 0.0
C175 C 0.19315 0.80598 0.89282 0.0
C176 C 0.17966 0.80244 0.88579 0.0
C177 C 0.17474 0.81019 0.87338 0.0
C178 C 0.14732 0.82985 0.82681 0.0
C179 C 0.13977 0.81694 0.83035 0.0
C180 C 0.1519 0.19854 0.85353 0.0
C181 C 0.14653 0.19824 0.83898 0.0
C182 C 0.1539 0.18992 0.82872 0.0
C183 C 0.16638 0.18206 0.83294 0.0
H184 H 0.1906 0.14556 0.8223 0.0
H185 H 0.19881 0.12513 0.80783 0.0
H186 H 0.23581 0.11967 0.83781 0.0
H187 H 0.22777 0.14022 0.85221 0.0
H188 H 0.23355 0.16595 0.87826 0.0
H189 H 0.24609 0.17454 0.90084 0.0
H190 H 0.20636 0.19506 0.91374 0.0
H191 H 0.19391 0.18656 0.89147 0.0
H192 H 0.16834 0.19144 0.86902 0.0
H193 H 0.14652 0.20494 0.86165 0.0
H194 H 0.14994 0.18942 0.81744 0.0
H195 H 0.17183 0.17579 0.82477 0.0
N196 N 0.19072 0.16391 0.84351 0.0
N197 N 0.21033 0.16054 0.86043 0.0
N198 N 0.19261 0.17816 0.86471 0.0
C199 C 0.20314 0.15673 0.84766 0.0
C200 C 0.20508 0.17126 0.86902 0.0
C201 C 0.1854 0.17464 0.85198 0.0
C202 C 0.20849 0.14459 0.83851 0.0
C203 C 0.20054 0.14009 0.82581 0.0
C204 C 0.2052 0.1283 0.81751 0.0
C205 C 0.21796 0.12073 0.82164 0.0
C206 C 0.22603 0.12536 0.83419 0.0
C207 C 0.22135 0.13712 0.84252 0.0
C208 C 0.21272 0.1756 0.88299 0.0
C209 C 0.22747 0.17217 0.886 0.0
C210 C 0.23468 0.17714 0.89888 0.0
C211 C 0.2272 0.18541 0.90912 0.0
C212 C 0.2124 0.18853 0.90621 0.0
C213 C 0.20528 0.18375 0.89333 0.0
C214 C 0.17188 0.18253 0.84748 0.0
C215 C 0.16447 0.19085 0.85771 0.0
C216 C 0.84231 0.14068 0.80714 0.0
C217 C 0.82898 0.13693 0.81344 0.0
C218 C 0.8244 0.14511 0.82537 0.0
C219 C 0.8329 0.15671 0.8309 0.0
H220 H 0.83141 0.18945 0.8599 0.0
H221 H 0.82216 0.20249 0.88069 0.0
H222 H 0.86393 0.22423 0.88733 0.0
H223 H 0.87333 0.2111 0.86649 0.0
H224 H 0.89816 0.20496 0.84343 0.0
H225 H 0.92101 0.21265 0.83289 0.0
H226 H 0.9102 0.18755 0.79405 0.0
H227 H 0.88719 0.17979 0.80457 0.0
H228 H 0.86106 0.1549 0.80759 0.0
H229 H 0.84608 0.13467 0.79785 0.0
H230 H 0.81433 0.14238 0.83065 0.0
H231 H 0.82898 0.16264 0.84017 0.0
N232 N 0.85061 0.18012 0.84263 0.0
N233 N 0.87171 0.19478 0.84299 0.0
N234 N 0.86833 0.17647 0.82519 0.0
C235 C 0.85868 0.19117 0.84874 0.0
C236 C 0.87661 0.18752 0.83118 0.0
C237 C 0.85531 0.17267 0.83091 0.0
C238 C 0.85315 0.1992 0.86147 0.0
C239 C 0.83868 0.19698 0.86576 0.0
C240 C 0.83332 0.20453 0.87764 0.0
C241 C 0.84229 0.21441 0.88562 0.0
C242 C 0.85678 0.21659 0.88144 0.0
C243 C 0.86214 0.20913 0.86945 0.0
C244 C 0.89077 0.19177 0.82486 0.0
C245 C 0.90062 0.201 0.83266 0.0
C246 C 0.9138 0.20533 0.82667 0.0
C247 C 0.91745 0.20065 0.81266 0.0
C248 C 0.90766 0.19137 0.80484 0.0
C249 C 0.89451 0.18689 0.81092 0.0
C250 C 0.84627 0.16046 0.82468 0.0
C251 C 0.85085 0.15233 0.81269 0.0
C252 C 0.80594 0.85366 0.87713 0.0
C253 C 0.81063 0.84237 0.88651 0.0
C254 C 0.82325 0.83464 0.88311 0.0
C255 C 0.83097 0.83809 0.87061 0.0
H256 H 0.864 0.8237 0.84462 0.0
H257 H 0.88483 0.8093 0.8376 0.0
H258 H 0.89322 0.83979 0.80285 0.0
H259 H 0.87252 0.85432 0.80992 0.0
H260 H 0.85114 0.88144 0.80432 0.0
H261 H 0.84275 0.90236 0.78978 0.0
H262 H 0.80426 0.90483 0.8155 0.0
H263 H 0.81243 0.88402 0.82985 0.0
H264 H 0.80969 0.86595 0.85777 0.0
H265 H 0.79638 0.85996 0.87951 0.0
H266 H 0.82708 0.82578 0.89003 0.0
H267 H 0.84061 0.83188 0.86833 0.0
N268 N 0.84624 0.84539 0.84414 0.0
N269 N 0.84927 0.86052 0.82373 0.0
N270 N 0.83015 0.86467 0.83949 0.0
C271 C 0.85372 0.84895 0.83203 0.0
C272 C 0.83747 0.86842 0.82737 0.0
C273 C 0.83444 0.85322 0.84796 0.0
C274 C 0.86652 0.84022 0.82785 0.0
C275 C 0.87028 0.82739 0.8355 0.0
C276 C 0.88218 0.81906 0.83142 0.0
C277 C 0.89068 0.82338 0.81966 0.0
C278 C 0.887 0.83624 0.81207 0.0
C279 C 0.87505 0.84453 0.81608 0.0
C280 C 0.83248 0.881 0.81829 0.0
C281 C 0.84085 0.8864 0.80682 0.0
C282 C 0.83609 0.89842 0.79852 0.0
C283 C 0.82279 0.90518 0.80141 0.0
C284 C 0.81443 0.89972 0.81281 0.0
C285 C 0.8192 0.88782 0.82114 0.0
C286 C 0.82627 0.84941 0.86123 0.0
C287 C 0.81366 0.85714 0.86467 0.0
C288 C 0.13365 0.71081 0.6847 0.0
C289 C 0.12943 0.70293 0.69707 0.0
C290 C 0.13785 0.69093 0.70166 0.0
C291 C 0.15016 0.68689 0.69407 0.0
H292 H 0.18599 0.65978 0.69688 0.0
H293 H 0.20014 0.63867 0.70497 0.0
H294 H 0.22219 0.63864 0.6641 0.0
H295 H 0.20808 0.65972 0.65593 0.0
H296 H 0.20741 0.68925 0.63784 0.0
H297 H 0.21476 0.70217 0.61614 0.0
H298 H 0.17689 0.72962 0.61817 0.0
H299 H 0.1693 0.71651 0.63996 0.0
H300 H 0.14888 0.71312 0.66763 0.0
H301 H 0.12752 0.72022 0.68096 0.0
H302 H 0.13481 0.68449 0.71102 0.0
H303 H 0.1563 0.67753 0.69794 0.0
N304 N 0.17541 0.67862 0.67812 0.0
N305 N 0.19105 0.68189 0.65867 0.0
N306 N 0.17141 0.69775 0.66142 0.0
C307 C 0.18724 0.67433 0.67074 0.0
C308 C 0.18326 0.69363 0.65393 0.0
C309 C 0.16741 0.69029 0.67354 0.0
C310 C 0.19586 0.66149 0.67574 0.0
C311 C 0.19383 0.65529 0.68959 0.0
C312 C 0.202 0.64323 0.69428 0.0
C313 C 0.21227 0.63699 0.68518 0.0
C314 C 0.21426 0.64313 0.67131 0.0
C315 C 0.20622 0.65528 0.66668 0.0
C316 C 0.18773 0.70179 0.64073 0.0
C317 C 0.2006 0.69804 0.63375 0.0
C318 C 0.20491 0.70555 0.62133 0.0
C319 C 0.19649 0.71703 0.61547 0.0
C320 C 0.18359 0.7208 0.62237 0.0
C321 C 0.17928 0.7133 0.6349 0.0
C322 C 0.15438 0.69473 0.68167 0.0
C323 C 0.14597 0.70677 0.67709 0.0
C324 C 0.82812 0.65656 0.68976 0.0
C325 C 0.81559 0.65008 0.68305 0.0
C326 C 0.80985 0.65616 0.67002 0.0
C327 C 0.81635 0.66843 0.66388 0.0
H328 H 0.81105 0.69455 0.63019 0.0
H329 H 0.79869 0.7039 0.60835 0.0
H330 H 0.82998 0.73943 0.60689 0.0
H331 H 0.84237 0.73019 0.62906 0.0
H332 H 0.87042 0.72918 0.65268 0.0
H333 H 0.89277 0.74 0.66355 0.0
H334 H 0.89068 0.70986 0.69968 0.0
H335 H 0.86836 0.69919 0.68904 0.0
H336 H 0.84427 0.67366 0.68906 0.0
H337 H 0.83276 0.65219 0.69987 0.0
H338 H 0.80039 0.6513 0.6644 0.0
H339 H 0.81155 0.6727 0.65381 0.0
N340 N 0.82933 0.69384 0.65151 0.0
N341 N 0.84746 0.71206 0.65096 0.0
N342 N 0.84788 0.69449 0.66973 0.0
C343 C 0.8351 0.70576 0.64498 0.0
C344 C 0.85393 0.70647 0.66337 0.0
C345 C 0.83557 0.68811 0.66383 0.0
C346 C 0.82777 0.71161 0.63148 0.0
C347 C 0.81537 0.70438 0.62529 0.0
C348 C 0.80828 0.70968 0.61267 0.0
C349 C 0.81334 0.72239 0.60584 0.0
C350 C 0.82571 0.72968 0.61199 0.0
C351 C 0.83287 0.72434 0.62465 0.0
C352 C 0.8675 0.71328 0.66995 0.0
C353 C 0.87468 0.72488 0.66297 0.0
C354 C 0.88755 0.73106 0.66916 0.0
C355 C 0.8935 0.72587 0.68253 0.0
C356 C 0.88629 0.71432 0.6895 0.0
C357 C 0.8735 0.70811 0.68331 0.0
C358 C 0.82885 0.67501 0.67057 0.0
C359 C 0.83468 0.6689 0.68359 0.0
C360 C 0.85153 0.32921 0.64841 0.0
C361 C 0.83902 0.334 0.64055 0.0
C362 C 0.83214 0.34674 0.64524 0.0
C363 C 0.83763 0.35447 0.65751 0.0
H364 H 0.8309 0.39155 0.68415 0.0
H365 H 0.81969 0.41346 0.69378 0.0
H366 H 0.85259 0.41513 0.72874 0.0
H367 H 0.86393 0.39361 0.71907 0.0
H368 H 0.89209 0.37502 0.71708 0.0
H369 H 0.91417 0.36639 0.72983 0.0
H370 H 0.90968 0.32506 0.70745 0.0
H371 H 0.88756 0.33364 0.69462 0.0
H372 H 0.86671 0.33283 0.6663 0.0
H373 H 0.85726 0.3196 0.645 0.0
H374 H 0.8224 0.35067 0.63951 0.0
H375 H 0.83203 0.36421 0.6608 0.0
N376 N 0.84968 0.37006 0.68326 0.0
N377 N 0.86783 0.37245 0.70188 0.0
N378 N 0.8686 0.35301 0.68541 0.0
C379 C 0.85543 0.37744 0.69509 0.0
C380 C 0.87448 0.36028 0.69716 0.0
C381 C 0.85624 0.3578 0.67834 0.0
C382 C 0.84837 0.39076 0.70076 0.0
C383 C 0.83576 0.3966 0.69387 0.0
C384 C 0.82929 0.40914 0.69944 0.0
C385 C 0.83527 0.41612 0.71202 0.0
C386 C 0.84783 0.41022 0.7189 0.0
C387 C 0.85429 0.39776 0.71335 0.0
C388 C 0.88801 0.35503 0.70481 0.0
C389 C 0.89577 0.36409 0.71484 0.0
C390 C 0.90848 0.35918 0.72211 0.0
C391 C 0.91364 0.34506 0.71964 0.0
C392 C 0.90588 0.33597 0.70965 0.0
C393 C 0.89326 0.34093 0.70225 0.0
C394 C 0.85016 0.34966 0.66536 0.0
C395 C 0.85701 0.33691 0.66062 0.0
C396 C 0.13728 0.33934 0.71083 0.0
C397 C 0.13311 0.3257 0.7049 0.0
C398 C 0.14138 0.31982 0.69373 0.0
C399 C 0.15355 0.32739 0.68864 0.0
H400 H 0.18485 0.32597 0.65712 0.0
H401 H 0.19802 0.31722 0.63622 0.0
H402 H 0.2265 0.35508 0.63908 0.0
H403 H 0.21364 0.36366 0.6601 0.0
H404 H 0.21363 0.38308 0.68746 0.0
H405 H 0.22301 0.40492 0.6996 0.0
H406 H 0.18515 0.4058 0.72634 0.0
H407 H 0.17553 0.38383 0.71402 0.0
H408 H 0.1524 0.35728 0.71074 0.0
H409 H 0.13128 0.34408 0.71959 0.0
H410 H 0.13839 0.30938 0.68888 0.0
H411 H 0.15968 0.32249 0.68005 0.0
N412 N 0.1782 0.34384 0.67788 0.0
N413 N 0.19512 0.36311 0.68034 0.0
N414 N 0.17599 0.36115 0.69656 0.0
C415 C 0.19028 0.35093 0.67318 0.0
C416 C 0.1881 0.36832 0.69203 0.0
C417 C 0.17097 0.34888 0.68955 0.0
C418 C 0.19816 0.34552 0.66037 0.0
C419 C 0.19393 0.33243 0.65332 0.0
C420 C 0.20144 0.32744 0.64127 0.0
C421 C 0.21335 0.33542 0.63597 0.0
C422 C 0.21754 0.34852 0.64301 0.0
C423 C 0.21008 0.35349 0.65504 0.0
C424 C 0.19378 0.38162 0.69972 0.0
C425 C 0.20724 0.38784 0.69593 0.0
C426 C 0.21272 0.40034 0.70299 0.0
C427 C 0.2049 0.40704 0.71403 0.0
C428 C 0.19141 0.40091 0.71784 0.0
C429 C 0.18594 0.38829 0.71081 0.0
C430 C 0.15783 0.34098 0.69468 0.0
C431 C 0.14949 0.34686 0.70581 0.0
C432 C 0.13 0.30994 0.33802 0.0
C433 C 0.12421 0.31732 0.32569 0.0
C434 C 0.13137 0.33004 0.32097 0.0
C435 C 0.14405 0.33521 0.32839 0.0
H436 H 0.17752 0.36654 0.32641 0.0
H437 H 0.19227 0.38664 0.31708 0.0
H438 H 0.22276 0.38209 0.35381 0.0
H439 H 0.20826 0.36199 0.36305 0.0
H440 H 0.19919 0.34289 0.38976 0.0
H441 H 0.20822 0.33137 0.41216 0.0
H442 H 0.1811 0.29348 0.4027 0.0
H443 H 0.17195 0.30504 0.38009 0.0
H444 H 0.14663 0.30914 0.35495 0.0
H445 H 0.12463 0.30024 0.34209 0.0
H446 H 0.12726 0.33592 0.31146 0.0
H447 H 0.14928 0.34503 0.32444 0.0
N448 N 0.17085 0.34497 0.34372 0.0
N449 N 0.18732 0.34348 0.36384 0.0
N450 N 0.16775 0.32686 0.36157 0.0
C451 C 0.183 0.35007 0.35114 0.0
C452 C 0.1798 0.3319 0.36915 0.0
C453 C 0.16314 0.33336 0.34886 0.0
C454 C 0.19167 0.36255 0.34548 0.0
C455 C 0.18736 0.36982 0.33251 0.0
C456 C 0.19578 0.3814 0.32719 0.0
C457 C 0.20873 0.38593 0.33466 0.0
C458 C 0.21297 0.37874 0.34766 0.0
C459 C 0.20456 0.36723 0.353 0.0
C460 C 0.18485 0.3249 0.38306 0.0
C461 C 0.19506 0.33213 0.39241 0.0
C462 C 0.20017 0.32557 0.40535 0.0
C463 C 0.1953 0.31155 0.40925 0.0
C464 C 0.18506 0.30428 0.39996 0.0
C465 C 0.17979 0.31094 0.38704 0.0
C466 C 0.14981 0.32784 0.34078 0.0
C467 C 0.14259 0.31513 0.34547 0.0
C468 C 0.13256 0.67983 0.3164 0.0
C469 C 0.12645 0.67305 0.30378 0.0
C470 C 0.1339 0.66136 0.29766 0.0
C471 C 0.14712 0.65659 0.30391 0.0
H472 H 0.17868 0.62872 0.29597 0.0
H473 H 0.18968 0.60796 0.28427 0.0
H474 H 0.22436 0.608 0.31748 0.0
H475 H 0.21352 0.62899 0.32913 0.0
H476 H 0.21615 0.66462 0.34666 0.0
H477 H 0.22739 0.67569 0.36848 0.0
H478 H 0.18464 0.68042 0.38648 0.0
H479 H 0.17348 0.6704 0.36409 0.0
H480 H 0.15026 0.68052 0.33238 0.0
H481 H 0.12703 0.68879 0.32146 0.0
H482 H 0.12966 0.65604 0.28781 0.0
H483 H 0.15251 0.64761 0.29873 0.0
N484 N 0.17478 0.64755 0.31591 0.0
N485 N 0.19415 0.64915 0.33324 0.0
N486 N 0.17386 0.6645 0.33499 0.0
C487 C 0.18796 0.64281 0.32106 0.0
C488 C 0.18715 0.65997 0.34028 0.0
C489 C 0.16765 0.65837 0.3227 0.0
C490 C 0.19516 0.63056 0.31359 0.0
C491 C 0.1887 0.62439 0.3008 0.0
C492 C 0.19496 0.61241 0.29408 0.0
C493 C 0.20787 0.60626 0.29995 0.0
C494 C 0.2145 0.61257 0.31257 0.0
C495 C 0.20824 0.62458 0.3193 0.0
C496 C 0.19393 0.66666 0.35365 0.0
C497 C 0.20918 0.66811 0.35528 0.0
C498 C 0.21563 0.67436 0.36792 0.0
C499 C 0.20703 0.67896 0.3795 0.0
C500 C 0.19172 0.67738 0.37781 0.0
C501 C 0.18526 0.6715 0.36498 0.0
C502 C 0.15333 0.66338 0.31648 0.0
C503 C 0.14584 0.67503 0.3227 0.0
C504 C 0.8328 0.63888 0.30952 0.0
C505 C 0.82044 0.63306 0.31624 0.0
C506 C 0.81517 0.64028 0.32849 0.0
C507 C 0.82202 0.65305 0.33382 0.0
H508 H 0.81843 0.68601 0.36533 0.0
H509 H 0.80847 0.70062 0.38495 0.0
H510 H 0.84232 0.73309 0.37928 0.0
H511 H 0.85212 0.71881 0.35976 0.0
H512 H 0.87506 0.71559 0.33857 0.0
H513 H 0.8973 0.72533 0.3287 0.0
H514 H 0.90021 0.68755 0.30083 0.0
H515 H 0.87755 0.67779 0.31056 0.0
H516 H 0.84918 0.65569 0.30939 0.0
H517 H 0.83729 0.63348 0.3002 0.0
H518 H 0.80562 0.63615 0.33387 0.0
H519 H 0.81759 0.65832 0.34325 0.0
N520 N 0.83581 0.68011 0.34382 0.0
N521 N 0.85472 0.69742 0.34276 0.0
N522 N 0.85419 0.67755 0.3267 0.0
C523 C 0.84231 0.69262 0.34889 0.0
C524 C 0.86079 0.69004 0.33172 0.0
C525 C 0.84167 0.6725 0.3327 0.0
C526 C 0.83607 0.7012 0.36089 0.0
C527 C 0.82372 0.69628 0.36826 0.0
C528 C 0.81806 0.7046 0.37954 0.0
C529 C 0.82456 0.71805 0.38359 0.0
C530 C 0.83691 0.72291 0.37627 0.0
C531 C 0.84258 0.71461 0.36509 0.0
C532 C 0.87444 0.69583 0.32541 0.0
C533 C 0.88037 0.70926 0.33035 0.0
C534 C 0.89324 0.71486 0.32475 0.0
C535 C 0.90064 0.70719 0.31406 0.0
C536 C 0.89472 0.69379 0.309 0.0
C537 C 0.88176 0.68816 0.31461 0.0
C538 C 0.83439 0.65888 0.32709 0.0
C539 C 0.83969 0.65159 0.31488 0.0
C540 C 0.81611 0.3462 0.39921 0.0
C541 C 0.82245 0.33643 0.40938 0.0
C542 C 0.83622 0.33064 0.4066 0.0
C543 C 0.84347 0.33445 0.39397 0.0
H544 H 0.87537 0.31926 0.36772 0.0
H545 H 0.89546 0.30423 0.35999 0.0
H546 H 0.90138 0.33258 0.32294 0.0
H547 H 0.88115 0.34749 0.33045 0.0
H548 H 0.86412 0.37743 0.32917 0.0
H549 H 0.85727 0.39865 0.31454 0.0
H550 H 0.81605 0.40045 0.33584 0.0
H551 H 0.82286 0.37916 0.35058 0.0
H552 H 0.81829 0.35773 0.379 0.0
H553 H 0.80551 0.35084 0.40108 0.0
H554 H 0.84131 0.32292 0.4141 0.0
H555 H 0.85404 0.3297 0.39223 0.0
N556 N 0.85664 0.34016 0.36632 0.0
N557 N 0.85986 0.35542 0.34615 0.0
N558 N 0.84091 0.35989 0.3621 0.0
C559 C 0.86407 0.34364 0.3542 0.0
C560 C 0.84832 0.36361 0.34999 0.0
C561 C 0.84506 0.3482 0.37038 0.0
C562 C 0.87655 0.33462 0.34971 0.0
C563 C 0.88094 0.32234 0.35792 0.0
C564 C 0.89253 0.31373 0.35354 0.0
C565 C 0.90003 0.31717 0.34083 0.0
C566 C 0.89571 0.32949 0.33267 0.0
C567 C 0.88414 0.33811 0.33705 0.0
C568 C 0.84404 0.37655 0.34109 0.0
C569 C 0.85357 0.3823 0.33076 0.0
C570 C 0.8497 0.39453 0.32242 0.0
C571 C 0.83614 0.40122 0.32405 0.0
C572 C 0.82654 0.39545 0.33428 0.0
C573 C 0.83048 0.3833 0.34277 0.0
C574 C 0.83721 0.34427 0.38379 0.0
C575 C 0.82346 0.35017 0.38661 0.0
C576 C 0.64048 0.20455 0.68844 0.0
C577 C 0.63632 0.19653 0.70075 0.0
C578 C 0.64477 0.18453 0.70522 0.0
C579 C 0.65711 0.18066 0.69764 0.0
H580 H 0.68955 0.15175 0.69893 0.0
H581 H 0.70204 0.1298 0.70688 0.0
H582 H 0.72989 0.1327 0.66991 0.0
H583 H 0.71721 0.1548 0.66172 0.0
H584 H 0.71723 0.18605 0.64481 0.0
H585 H 0.72606 0.20076 0.62479 0.0
H586 H 0.68709 0.22679 0.6253 0.0
H587 H 0.67809 0.21197 0.64535 0.0
H588 H 0.65582 0.20716 0.67147 0.0
H589 H 0.63427 0.21394 0.68478 0.0
H590 H 0.64175 0.178 0.71453 0.0
H591 H 0.6633 0.17132 0.70148 0.0
N592 N 0.68218 0.17247 0.68169 0.0
N593 N 0.699 0.17661 0.66344 0.0
N594 N 0.6794 0.19262 0.66612 0.0
C595 C 0.69434 0.1684 0.67477 0.0
C596 C 0.6916 0.18876 0.65904 0.0
C597 C 0.67462 0.18451 0.67748 0.0
C598 C 0.70234 0.15512 0.67965 0.0
C599 C 0.69835 0.14781 0.69244 0.0
C600 C 0.7056 0.13524 0.6971 0.0
C601 C 0.71705 0.12956 0.6891 0.0
C602 C 0.72108 0.13679 0.67628 0.0
C603 C 0.71385 0.14949 0.67164 0.0
C604 C 0.69693 0.19779 0.64676 0.0
C605 C 0.71049 0.19489 0.64071 0.0
C606 C 0.71563 0.20341 0.62928 0.0
C607 C 0.70732 0.21502 0.62352 0.0
C608 C 0.69371 0.21789 0.62946 0.0
C609 C 0.6886 0.20941 0.641 0.0
C610 C 0.66138 0.1887 0.68538 0.0
C611 C 0.65289 0.2007 0.68086 0.0
C612 C 0.33862 0.14336 0.71895 0.0
C613 C 0.33291 0.13117 0.71121 0.0
C614 C 0.33074 0.13241 0.69593 0.0
C615 C 0.33421 0.14539 0.68866 0.0
H616 H 0.32022 0.17329 0.65284 0.0
H617 H 0.30704 0.18218 0.63092 0.0
H618 H 0.33151 0.22267 0.63379 0.0
H619 H 0.34453 0.21398 0.65558 0.0
H620 H 0.37277 0.2162 0.67595 0.0
H621 H 0.39455 0.22943 0.68496 0.0
H622 H 0.39943 0.19876 0.72059 0.0
H623 H 0.37761 0.18573 0.71183 0.0
H624 H 0.34691 0.16526 0.71796 0.0
H625 H 0.34011 0.1431 0.73072 0.0
H626 H 0.32663 0.12327 0.68947 0.0
H627 H 0.33254 0.14592 0.6769 0.0
N628 N 0.33748 0.17522 0.67629 0.0
N629 N 0.35308 0.19567 0.67503 0.0
N630 N 0.35612 0.17898 0.69423 0.0
C631 C 0.34155 0.18774 0.66942 0.0
C632 C 0.36047 0.19136 0.68738 0.0
C633 C 0.34469 0.17085 0.68877 0.0
C634 C 0.33346 0.1929 0.65604 0.0
C635 C 0.32276 0.18411 0.64882 0.0
C636 C 0.31524 0.18916 0.63623 0.0
C637 C 0.31814 0.20317 0.63069 0.0
C638 C 0.32882 0.21192 0.63791 0.0
C639 C 0.33639 0.20686 0.65037 0.0
C640 C 0.37338 0.19984 0.69313 0.0
C641 C 0.37842 0.21232 0.68577 0.0
C642 C 0.39096 0.21989 0.69089 0.0
C643 C 0.39874 0.21519 0.70352 0.0
C644 C 0.39358 0.20285 0.71097 0.0
C645 C 0.38108 0.19529 0.70586 0.0
C646 C 0.34026 0.15734 0.69643 0.0
C647 C 0.34242 0.15617 0.71164 0.0
C648 C 0.33611 0.81427 0.63208 0.0
C649 C 0.32412 0.81905 0.6234 0.0
C650 C 0.31735 0.83216 0.62721 0.0
C651 C 0.32246 0.84027 0.63936 0.0
H652 H 0.31297 0.8763 0.66577 0.0
H653 H 0.30103 0.89848 0.67388 0.0
H654 H 0.33645 0.9061 0.70543 0.0
H655 H 0.34844 0.88425 0.6973 0.0
H656 H 0.37478 0.86266 0.70029 0.0
H657 H 0.39625 0.85416 0.71425 0.0
H658 H 0.39179 0.81198 0.69355 0.0
H659 H 0.37032 0.8204 0.67955 0.0
H660 H 0.35054 0.8183 0.65051 0.0
H661 H 0.34172 0.80434 0.62937 0.0
H662 H 0.30799 0.8361 0.62087 0.0
H663 H 0.31696 0.8503 0.64194 0.0
N664 N 0.33359 0.85675 0.66477 0.0
N665 N 0.351 0.85994 0.68398 0.0
N666 N 0.35215 0.83956 0.66868 0.0
C667 C 0.33894 0.86471 0.67636 0.0
C668 C 0.35766 0.84738 0.68025 0.0
C669 C 0.34017 0.84415 0.66082 0.0
C670 C 0.3317 0.87841 0.68086 0.0
C671 C 0.31827 0.88276 0.67437 0.0
C672 C 0.31137 0.89545 0.67906 0.0
C673 C 0.3178 0.90414 0.69026 0.0
C674 C 0.33129 0.89984 0.69661 0.0
C675 C 0.33812 0.88718 0.692 0.0
C676 C 0.37077 0.84223 0.68876 0.0
C677 C 0.37833 0.85156 0.6987 0.0
C678 C 0.3907 0.84673 0.70665 0.0
C679 C 0.39571 0.8324 0.70501 0.0
C680 C 0.38812 0.82304 0.69515 0.0
C681 C 0.37586 0.82792 0.68706 0.0
C682 C 0.3345 0.8355 0.64801 0.0
C683 C 0.34122 0.82236 0.64419 0.0
C684 C 0.62619 0.8213 0.70072 0.0
C685 C 0.61963 0.81017 0.69212 0.0
C686 C 0.62483 0.8077 0.67807 0.0
C687 C 0.63639 0.81617 0.67281 0.0
H688 H 0.67122 0.81702 0.64196 0.0
H689 H 0.68358 0.81221 0.61918 0.0
H690 H 0.70191 0.85581 0.62028 0.0
H691 H 0.68968 0.86067 0.64284 0.0
H692 H 0.69634 0.8723 0.67709 0.0
H693 H 0.70462 0.89374 0.69095 0.0
H694 H 0.66458 0.89309 0.71441 0.0
H695 H 0.65625 0.87151 0.70063 0.0
H696 H 0.64226 0.83828 0.70245 0.0
H697 H 0.62229 0.82369 0.71148 0.0
H698 H 0.62003 0.79918 0.6712 0.0
H699 H 0.64013 0.814 0.66194 0.0
N700 N 0.66137 0.8336 0.66314 0.0
N701 N 0.67685 0.85403 0.66635 0.0
N702 N 0.65956 0.84859 0.6838 0.0
C703 C 0.67235 0.84229 0.65827 0.0
C704 C 0.67054 0.85727 0.6791 0.0
C705 C 0.65491 0.83671 0.67594 0.0
C706 C 0.67945 0.83922 0.64428 0.0
C707 C 0.67784 0.82559 0.6373 0.0
C708 C 0.68497 0.82281 0.62432 0.0
C709 C 0.69368 0.83365 0.61794 0.0
C710 C 0.69515 0.84729 0.62483 0.0
C711 C 0.68819 0.85002 0.63785 0.0
C712 C 0.67561 0.87018 0.68773 0.0
C713 C 0.68928 0.87668 0.68521 0.0
C714 C 0.69408 0.88891 0.6932 0.0
C715 C 0.68525 0.89505 0.70376 0.0
C716 C 0.67157 0.88861 0.70628 0.0
C717 C 0.66685 0.87622 0.69843 0.0
C718 C 0.64287 0.82737 0.68142 0.0
C719 C 0.63761 0.82978 0.69546 0.0
C720 C 0.61164 0.82483 0.32015 0.0
C721 C 0.6064 0.82978 0.30643 0.0
C722 C 0.61384 0.84127 0.29964 0.0
C723 C 0.62626 0.84766 0.30643 0.0
H724 H 0.65109 0.8859 0.30757 0.0
H725 H 0.66234 0.90667 0.29555 0.0
H726 H 0.70282 0.89892 0.31974 0.0
H727 H 0.69156 0.87806 0.33191 0.0
H728 H 0.68419 0.86094 0.36494 0.0
H729 H 0.69468 0.85008 0.38722 0.0
H730 H 0.66787 0.81154 0.38007 0.0
H731 H 0.6573 0.82235 0.35778 0.0
H732 H 0.62786 0.82696 0.33743 0.0
H733 H 0.60627 0.81585 0.32557 0.0
H734 H 0.61002 0.84537 0.28911 0.0
H735 H 0.63173 0.85648 0.30085 0.0
N736 N 0.65131 0.8612 0.3213 0.0
N737 N 0.66963 0.86118 0.33988 0.0
N738 N 0.65109 0.84326 0.33952 0.0
C739 C 0.66362 0.86726 0.32753 0.0
C740 C 0.66339 0.84917 0.34597 0.0
C741 C 0.64497 0.8492 0.32719 0.0
C742 C 0.67042 0.88026 0.3207 0.0
C743 C 0.66238 0.88861 0.3104 0.0
C744 C 0.66879 0.90058 0.30356 0.0
C745 C 0.68345 0.90442 0.3067 0.0
C746 C 0.69151 0.89615 0.31704 0.0
C747 C 0.68503 0.88426 0.32406 0.0
C748 C 0.66987 0.84255 0.35952 0.0
C749 C 0.6805 0.85015 0.36808 0.0
C750 C 0.68645 0.84397 0.38092 0.0
C751 C 0.68205 0.82998 0.38543 0.0
C752 C 0.67152 0.82231 0.37684 0.0
C753 C 0.66543 0.82856 0.36409 0.0
C754 C 0.6316 0.84262 0.32012 0.0
C755 C 0.6241 0.83114 0.3269 0.0
C756 C 0.64514 0.20279 0.33679 0.0
C757 C 0.63636 0.19578 0.32596 0.0
C758 C 0.64063 0.18202 0.32092 0.0
C759 C 0.65344 0.17549 0.32648 0.0
H760 H 0.68299 0.14158 0.31858 0.0
H761 H 0.69381 0.12041 0.30711 0.0
H762 H 0.73079 0.12334 0.33762 0.0
H763 H 0.71993 0.14412 0.34926 0.0
H764 H 0.7215 0.16664 0.37361 0.0
H765 H 0.73417 0.17666 0.39519 0.0
H766 H 0.70023 0.20857 0.39928 0.0
H767 H 0.68735 0.19843 0.37775 0.0
H768 H 0.66433 0.20198 0.35077 0.0
H769 H 0.64211 0.21333 0.34098 0.0
H770 H 0.6342 0.17639 0.31247 0.0
H771 H 0.65641 0.16494 0.32226 0.0
N772 N 0.68152 0.16368 0.3367 0.0
N773 N 0.70101 0.16355 0.35402 0.0
N774 N 0.68304 0.18143 0.35523 0.0
C775 C 0.69412 0.15757 0.34203 0.0
C776 C 0.69558 0.17542 0.36072 0.0
C777 C 0.67591 0.17565 0.34324 0.0
C778 C 0.70052 0.14462 0.3349 0.0
C779 C 0.69341 0.13769 0.32288 0.0
C780 C 0.69966 0.12557 0.31624 0.0
C781 C 0.71319 0.1201 0.32145 0.0
C782 C 0.72026 0.12705 0.33346 0.0
C783 C 0.71403 0.13909 0.34009 0.0
C784 C 0.70335 0.1817 0.37387 0.0
C785 C 0.71668 0.1758 0.37906 0.0
C786 C 0.72402 0.1816 0.39142 0.0
C787 C 0.71824 0.19344 0.39896 0.0
C788 C 0.70491 0.19934 0.39381 0.0
C789 C 0.69756 0.19357 0.3814 0.0
C790 C 0.66224 0.1825 0.33732 0.0
C791 C 0.65786 0.19621 0.34245 0.0
C792 C 0.33462 0.13125 0.33185 0.0
C793 C 0.32208 0.12807 0.33972 0.0
C794 C 0.31838 0.13745 0.3511 0.0
C795 C 0.32702 0.14973 0.35454 0.0
H796 H 0.32764 0.1874 0.37872 0.0
H797 H 0.32117 0.20248 0.39931 0.0
H798 H 0.36362 0.22343 0.39925 0.0
H799 H 0.37022 0.20828 0.37858 0.0
H800 H 0.38545 0.20639 0.34511 0.0
H801 H 0.40667 0.21167 0.33049 0.0
H802 H 0.40389 0.16828 0.31223 0.0
H803 H 0.38273 0.16292 0.32679 0.0
H804 H 0.35282 0.14563 0.32892 0.0
H805 H 0.33767 0.12435 0.32288 0.0
H806 H 0.30887 0.13522 0.35748 0.0
H807 H 0.32384 0.15669 0.36341 0.0
N808 N 0.34518 0.17503 0.3613 0.0
N809 N 0.36557 0.18993 0.35691 0.0
N810 N 0.36083 0.16906 0.3426 0.0
C811 C 0.35351 0.18699 0.36473 0.0
C812 C 0.36928 0.181 0.3458 0.0
C813 C 0.34876 0.16599 0.35028 0.0
C814 C 0.34948 0.19658 0.37698 0.0
C815 C 0.33563 0.19522 0.38303 0.0
C816 C 0.33186 0.20394 0.39479 0.0
C817 C 0.34187 0.21415 0.40088 0.0
C818 C 0.35571 0.21558 0.39483 0.0
C819 C 0.35945 0.20695 0.38294 0.0
C820 C 0.38234 0.18423 0.33715 0.0
C821 C 0.38937 0.19795 0.33802 0.0
C822 C 0.40147 0.20102 0.32958 0.0
C823 C 0.40691 0.19039 0.32021 0.0
C824 C 0.4 0.17664 0.31943 0.0
C825 C 0.38781 0.17362 0.32774 0.0
C826 C 0.33958 0.15294 0.34666 0.0
C827 C 0.34327 0.14353 0.33527 0.0
C828 C 0.30317 0.83696 0.38729 0.0
C829 C 0.31002 0.82717 0.3971 0.0
C830 C 0.3242 0.82247 0.39431 0.0
C831 C 0.33134 0.8273 0.38194 0.0
H832 H 0.36449 0.81585 0.35594 0.0
H833 H 0.38549 0.80227 0.34814 0.0
H834 H 0.38831 0.82997 0.31016 0.0
H835 H 0.36743 0.84381 0.31808 0.0
H836 H 0.34667 0.87177 0.31552 0.0
H837 H 0.33795 0.89329 0.30224 0.0
H838 H 0.30082 0.89522 0.3299 0.0
H839 H 0.30932 0.87371 0.34301 0.0
H840 H 0.30479 0.84945 0.36761 0.0
H841 H 0.29226 0.8408 0.38918 0.0
H842 H 0.3297 0.81477 0.40155 0.0
H843 H 0.34222 0.82333 0.38013 0.0
N844 N 0.34414 0.83483 0.35448 0.0
N845 N 0.34614 0.85077 0.33459 0.0
N846 N 0.32716 0.85354 0.3509 0.0
C847 C 0.3512 0.8391 0.34236 0.0
C848 C 0.33412 0.85807 0.33879 0.0
C849 C 0.33212 0.84196 0.35883 0.0
C850 C 0.36419 0.83096 0.33765 0.0
C851 C 0.36956 0.81911 0.34593 0.0
C852 C 0.38158 0.81124 0.34142 0.0
C853 C 0.38857 0.81498 0.32849 0.0
C854 C 0.38329 0.82689 0.32026 0.0
C855 C 0.37125 0.83479 0.32477 0.0
C856 C 0.32873 0.87095 0.33039 0.0
C857 C 0.3366 0.87672 0.31873 0.0
C858 C 0.33165 0.8891 0.31114 0.0
C859 C 0.31866 0.89594 0.31496 0.0
C860 C 0.31074 0.89009 0.32651 0.0
C861 C 0.3157 0.87778 0.33412 0.0
C862 C 0.32453 0.83707 0.37208 0.0
C863 C 0.31039 0.84194 0.37497 0.0
C864 C 0.62539 0.70033 0.18988 0.0
C865 C 0.61981 0.68989 0.19952 0.0
C866 C 0.62692 0.67644 0.20107 0.0
C867 C 0.63941 0.67353 0.19323 0.0
H868 H 0.67649 0.64792 0.19443 0.0
H869 H 0.69246 0.62793 0.20163 0.0
H870 H 0.71924 0.63687 0.16473 0.0
H871 H 0.70348 0.6571 0.15766 0.0
H872 H 0.69739 0.68499 0.13839 0.0
H873 H 0.7034 0.70049 0.11782 0.0
H874 H 0.6642 0.72524 0.12372 0.0
H875 H 0.6583 0.70996 0.14451 0.0
H876 H 0.64173 0.70566 0.17457 0.0
H877 H 0.62007 0.71074 0.18836 0.0
H878 H 0.62292 0.66823 0.20849 0.0
H879 H 0.64463 0.66307 0.19473 0.0
N880 N 0.6669 0.66944 0.1788 0.0
N881 N 0.68233 0.6753 0.1597 0.0
N882 N 0.66165 0.68945 0.1636 0.0
C883 C 0.67904 0.6666 0.17119 0.0
C884 C 0.67369 0.68675 0.15581 0.0
C885 C 0.65816 0.68085 0.17509 0.0
C886 C 0.68866 0.6542 0.17545 0.0
C887 C 0.68577 0.64566 0.18781 0.0
C888 C 0.69489 0.6341 0.19191 0.0
C889 C 0.70714 0.63075 0.18376 0.0
C890 C 0.71002 0.63925 0.17138 0.0
C891 C 0.7009 0.65083 0.16728 0.0
C892 C 0.67735 0.69618 0.14318 0.0
C893 C 0.69002 0.69372 0.13534 0.0
C894 C 0.69344 0.70257 0.12346 0.0
C895 C 0.68427 0.7141 0.11907 0.0
C896 C 0.6716 0.71657 0.1269 0.0
C897 C 0.66818 0.70773 0.1388 0.0
C898 C 0.64496 0.68394 0.18351 0.0
C899 C 0.63777 0.69736 0.18191 0.0
C900 C 0.34303 0.62453 0.1954 0.0
C901 C 0.32901 0.61818 0.19425 0.0
C902 C 0.31836 0.62477 0.18505 0.0
C903 C 0.32167 0.63747 0.1772 0.0
H904 H 0.31096 0.6621 0.13799 0.0
H905 H 0.29633 0.6716 0.11726 0.0
H906 H 0.32064 0.7122 0.11994 0.0
H907 H 0.33508 0.70291 0.14056 0.0
H908 H 0.36296 0.70641 0.16188 0.0
H909 H 0.38488 0.71978 0.17058 0.0
H910 H 0.39934 0.68165 0.19446 0.0
H911 H 0.37766 0.66831 0.18582 0.0
H912 H 0.35721 0.64184 0.18901 0.0
H913 H 0.35144 0.61983 0.20251 0.0
H914 H 0.30748 0.62006 0.18385 0.0
H915 H 0.31321 0.64231 0.17027 0.0
N916 N 0.33032 0.6631 0.15992 0.0
N917 N 0.34603 0.68337 0.15755 0.0
N918 N 0.35153 0.66535 0.17493 0.0
C919 C 0.33369 0.67591 0.15317 0.0
C920 C 0.35502 0.67815 0.16839 0.0
C921 C 0.33923 0.65777 0.17086 0.0
C922 C 0.32425 0.6817 0.14098 0.0
C923 C 0.3131 0.6731 0.13423 0.0
C924 C 0.30476 0.6785 0.1223 0.0
C925 C 0.30727 0.69268 0.11698 0.0
C926 C 0.31825 0.70132 0.12388 0.0
C927 C 0.32663 0.69592 0.13568 0.0
C928 C 0.36849 0.68627 0.17317 0.0
C929 C 0.37087 0.70085 0.16891 0.0
C930 C 0.38339 0.70853 0.17392 0.0
C931 C 0.39388 0.70174 0.18313 0.0
C932 C 0.39159 0.68713 0.1872 0.0
C933 C 0.37906 0.67951 0.18232 0.0
C934 C 0.33567 0.64393 0.17853 0.0
C935 C 0.3463 0.63724 0.1877 0.0
C936 C 0.35288 0.30226 0.13755 0.0
C937 C 0.34216 0.3089 0.12849 0.0
C938 C 0.33697 0.32267 0.13246 0.0
C939 C 0.34232 0.32963 0.14515 0.0
H940 H 0.33017 0.36015 0.17531 0.0
H941 H 0.31766 0.38186 0.18353 0.0
H942 H 0.35401 0.39177 0.2133 0.0
H943 H 0.36659 0.37006 0.20514 0.0
H944 H 0.38978 0.3444 0.21208 0.0
H945 H 0.41097 0.3349 0.2258 0.0
H946 H 0.41202 0.29815 0.19639 0.0
H947 H 0.3908 0.30744 0.18283 0.0
H948 H 0.36662 0.30388 0.15695 0.0
H949 H 0.35714 0.29168 0.13476 0.0
H950 H 0.32854 0.32799 0.12586 0.0
H951 H 0.33798 0.3402 0.14781 0.0
N952 N 0.35201 0.34284 0.17241 0.0
N953 N 0.3688 0.34474 0.19227 0.0
N954 N 0.37041 0.32544 0.17556 0.0
C955 C 0.35697 0.34999 0.18463 0.0
C956 C 0.37559 0.33244 0.18784 0.0
C957 C 0.35865 0.33059 0.16775 0.0
C958 C 0.34942 0.36331 0.18956 0.0
C959 C 0.33555 0.36696 0.18358 0.0
C960 C 0.32833 0.37937 0.18832 0.0
C961 C 0.33486 0.38854 0.19903 0.0
C962 C 0.34876 0.385 0.20491 0.0
C963 C 0.35593 0.37249 0.2003 0.0
C964 C 0.3885 0.32671 0.1963 0.0
C965 C 0.39448 0.33426 0.20854 0.0
C966 C 0.40669 0.32885 0.2164 0.0
C967 C 0.41318 0.31572 0.21226 0.0
C968 C 0.40717 0.30817 0.20005 0.0
C969 C 0.39502 0.31358 0.19218 0.0
C970 C 0.35309 0.32306 0.15423 0.0
C971 C 0.35835 0.3093 0.15024 0.0
C972 C 0.63745 0.33957 0.19898 0.0
C973 C 0.62986 0.3297 0.18964 0.0
C974 C 0.63393 0.32863 0.17505 0.0
C975 C 0.64545 0.33707 0.16994 0.0
H976 H 0.6709 0.34008 0.13544 0.0
H977 H 0.68146 0.33063 0.11349 0.0
H978 H 0.72063 0.35623 0.12239 0.0
H979 H 0.71005 0.36575 0.14463 0.0
H980 H 0.70408 0.39395 0.16725 0.0
H981 H 0.7139 0.41522 0.18027 0.0
H982 H 0.68576 0.40611 0.21606 0.0
H983 H 0.67595 0.38467 0.20311 0.0
H984 H 0.65465 0.35559 0.2013 0.0
H985 H 0.63448 0.34068 0.21026 0.0
H986 H 0.62839 0.32102 0.16763 0.0
H987 H 0.64832 0.33581 0.15865 0.0
N988 N 0.67169 0.35134 0.16103 0.0
N989 N 0.689 0.37027 0.16327 0.0
N990 N 0.67154 0.36696 0.18125 0.0
C991 C 0.6833 0.35864 0.15571 0.0
C992 C 0.68313 0.37456 0.17604 0.0
C993 C 0.66575 0.35534 0.17375 0.0
C994 C 0.68964 0.35366 0.14188 0.0
C995 C 0.68174 0.3438 0.13276 0.0
C996 C 0.68776 0.33844 0.12008 0.0
C997 C 0.70186 0.3427 0.11618 0.0
C998 C 0.70975 0.35268 0.12517 0.0
C999 C 0.70366 0.35819 0.13785 0.0
C1000 C 0.68919 0.38752 0.18409 0.0
C1001 C 0.69995 0.39642 0.17789 0.0
C1002 C 0.70551 0.40872 0.18531 0.0
C1003 C 0.70054 0.41244 0.19916 0.0
C1004 C 0.68987 0.40352 0.20543 0.0
C1005 C 0.68421 0.39124 0.19796 0.0
C1006 C 0.65316 0.34689 0.17926 0.0
C1007 C 0.64894 0.34816 0.19382 0.0
C1008 C 0.62722 0.32807 0.8313 0.0
C1009 C 0.62137 0.3322 0.81752 0.0
C1010 C 0.6282 0.34355 0.80994 0.0
C1011 C 0.64065 0.35056 0.81594 0.0
H1012 H 0.66319 0.39009 0.81501 0.0
H1013 H 0.67245 0.41144 0.80227 0.0
H1014 H 0.71492 0.40552 0.82323 0.0
H1015 H 0.70568 0.38413 0.83614 0.0
H1016 H 0.70582 0.36446 0.86577 0.0
H1017 H 0.71858 0.35512 0.88752 0.0
H1018 H 0.68472 0.32249 0.89233 0.0
H1019 H 0.67176 0.33194 0.87066 0.0
H1020 H 0.64405 0.33144 0.84784 0.0
H1021 H 0.62227 0.31925 0.83734 0.0
H1022 H 0.62388 0.34706 0.79936 0.0
H1023 H 0.64562 0.35922 0.80971 0.0
N1024 N 0.66556 0.36559 0.82903 0.0
N1025 N 0.68515 0.36678 0.84618 0.0
N1026 N 0.66732 0.34827 0.84784 0.0
C1027 C 0.67802 0.37226 0.83415 0.0
C1028 C 0.67985 0.35481 0.85314 0.0
C1029 C 0.66014 0.35359 0.83573 0.0
C1030 C 0.68369 0.38537 0.8266 0.0
C1031 C 0.67451 0.3933 0.81694 0.0
C1032 C 0.67977 0.40559 0.80969 0.0
C1033 C 0.69439 0.41012 0.81177 0.0
C1034 C 0.70362 0.4022 0.82137 0.0
C1035 C 0.6983 0.39001 0.82881 0.0
C1036 C 0.6877 0.34898 0.86639 0.0
C1037 C 0.70104 0.35529 0.87142 0.0
C1038 C 0.70843 0.34988 0.88388 0.0
C1039 C 0.7027 0.33804 0.89167 0.0
C1040 C 0.68936 0.33173 0.88667 0.0
C1041 C 0.68197 0.33711 0.87418 0.0
C1042 C 0.64667 0.34631 0.82964 0.0
C1043 C 0.63976 0.335 0.83727 0.0
C1044 C 0.64514 0.70448 0.84273 0.0
C1045 C 0.6406 0.70232 0.82807 0.0
C1046 C 0.64909 0.69346 0.81923 0.0
C1047 C 0.6618 0.68684 0.82497 0.0
H1048 H 0.69531 0.65584 0.81652 0.0
H1049 H 0.7073 0.63551 0.80487 0.0
H1050 H 0.73061 0.62594 0.84557 0.0
H1051 H 0.71915 0.64655 0.85697 0.0
H1052 H 0.72513 0.67602 0.87783 0.0
H1053 H 0.73569 0.68642 0.90048 0.0
H1054 H 0.69628 0.71088 0.90614 0.0
H1055 H 0.68569 0.70052 0.8837 0.0
H1056 H 0.66101 0.70004 0.85976 0.0
H1057 H 0.63895 0.71137 0.84979 0.0
H1058 H 0.64582 0.69154 0.8079 0.0
H1059 H 0.66809 0.68008 0.81788 0.0
N1060 N 0.68675 0.67141 0.83891 0.0
N1061 N 0.70473 0.67053 0.85786 0.0
N1062 N 0.68585 0.68745 0.85882 0.0
C1063 C 0.69909 0.66531 0.84492 0.0
C1064 C 0.69821 0.68162 0.86486 0.0
C1065 C 0.68002 0.68248 0.84587 0.0
C1066 C 0.70626 0.6529 0.83769 0.0
C1067 C 0.70302 0.64942 0.82297 0.0
C1068 C 0.70986 0.63768 0.8163 0.0
C1069 C 0.71998 0.629 0.82424 0.0
C1070 C 0.72314 0.6325 0.83898 0.0
C1071 C 0.71646 0.64431 0.84557 0.0
C1072 C 0.70455 0.68744 0.87888 0.0
C1073 C 0.71867 0.68354 0.88396 0.0
C1074 C 0.72476 0.68953 0.8969 0.0
C1075 C 0.7168 0.69941 0.90514 0.0
C1076 C 0.70262 0.70312 0.90017 0.0
C1077 C 0.69659 0.69726 0.88721 0.0
C1078 C 0.6664 0.68912 0.83963 0.0
C1079 C 0.65788 0.69803 0.84841 0.0
C1080 C 0.33243 0.63878 0.81145 0.0
C1081 C 0.32106 0.63248 0.81931 0.0
C1082 C 0.31728 0.63895 0.83254 0.0
C1083 C 0.32469 0.65145 0.83776 0.0
H1084 H 0.32028 0.68747 0.86506 0.0
H1085 H 0.31155 0.7004 0.88625 0.0
H1086 H 0.35272 0.72364 0.89071 0.0
H1087 H 0.36155 0.71073 0.86949 0.0
H1088 H 0.38147 0.71127 0.84094 0.0
H1089 H 0.4035 0.71943 0.82914 0.0
H1090 H 0.39936 0.68341 0.79884 0.0
H1091 H 0.37739 0.67505 0.81076 0.0
H1092 H 0.34866 0.65565 0.81034 0.0
H1093 H 0.33576 0.63394 0.80132 0.0
H1094 H 0.30851 0.6344 0.83881 0.0
H1095 H 0.32149 0.65614 0.848 0.0
N1096 N 0.33955 0.67816 0.84734 0.0
N1097 N 0.35927 0.69461 0.84598 0.0
N1098 N 0.35655 0.67553 0.82901 0.0
C1099 C 0.34697 0.69008 0.85263 0.0
C1100 C 0.36414 0.68742 0.83413 0.0
C1101 C 0.34426 0.6708 0.83555 0.0
C1102 C 0.34165 0.69803 0.86552 0.0
C1103 C 0.32752 0.69532 0.87053 0.0
C1104 C 0.32246 0.7028 0.88263 0.0
C1105 C 0.33144 0.71305 0.89013 0.0
C1106 C 0.34558 0.71572 0.88521 0.0
C1107 C 0.3506 0.70837 0.87299 0.0
C1108 C 0.37758 0.69247 0.82685 0.0
C1109 C 0.3852 0.70505 0.83176 0.0
C1110 C 0.39782 0.70981 0.82492 0.0
C1111 C 0.40318 0.70212 0.81299 0.0
C1112 C 0.3956 0.68953 0.80808 0.0
C1113 C 0.38295 0.68478 0.8149 0.0
C1114 C 0.33616 0.6577 0.82993 0.0
C1115 C 0.33991 0.65119 0.81669 0.0
C1116 C 0.32162 0.34587 0.89307 0.0
C1117 C 0.32561 0.33333 0.90104 0.0
C1118 C 0.33696 0.32468 0.89597 0.0
C1119 C 0.34406 0.32842 0.88322 0.0
H1120 H 0.37562 0.31424 0.85699 0.0
H1121 H 0.39576 0.29926 0.84943 0.0
H1122 H 0.40096 0.32676 0.81162 0.0
H1123 H 0.38095 0.34196 0.81927 0.0
H1124 H 0.34858 0.36252 0.81091 0.0
H1125 H 0.34062 0.38357 0.79663 0.0
H1126 H 0.33389 0.40732 0.83663 0.0
H1127 H 0.34075 0.38581 0.85073 0.0
H1128 H 0.32533 0.35934 0.87443 0.0
H1129 H 0.31303 0.35286 0.89675 0.0
H1130 H 0.34018 0.31483 0.90172 0.0
H1131 H 0.35266 0.32138 0.87964 0.0
N1132 N 0.35804 0.33587 0.85646 0.0
N1133 N 0.36036 0.35068 0.83577 0.0
N1134 N 0.34334 0.35649 0.8534 0.0
C1135 C 0.36465 0.33884 0.84373 0.0
C1136 C 0.34975 0.35957 0.84057 0.0
C1137 C 0.34735 0.34458 0.86137 0.0
C1138 C 0.37662 0.32939 0.83878 0.0
C1139 C 0.38099 0.31712 0.84704 0.0
C1140 C 0.39252 0.30845 0.84266 0.0
C1141 C 0.4 0.31181 0.82993 0.0
C1142 C 0.39556 0.32398 0.82159 0.0
C1143 C 0.38401 0.33265 0.82595 0.0
C1144 C 0.34524 0.37251 0.83192 0.0
C1145 C 0.34534 0.37226 0.8166 0.0
C1146 C 0.34087 0.38442 0.80842 0.0
C1147 C 0.33657 0.39734 0.81536 0.0
C1148 C 0.33672 0.39757 0.83077 0.0
C1149 C 0.34079 0.38525 0.83892 0.0
C1150 C 0.34001 0.3409 0.87516 0.0
C1151 C 0.32874 0.34963 0.88029 0.0
Cu1152 Cu 0.2666 0.26413 0.01784 0.0
N1153 N 0.26791 0.28167 0.00746 0.0
N1154 N 0.27463 0.29733 0.99012 0.0
C1155 C 0.27521 0.28345 0.99508 0.0
C1156 C 0.2667 0.30458 0.99987 0.0
C1157 C 0.26258 0.29489 0.01056 0.0
O1158 O 0.26721 0.24836 1.00354 0.0
C1159 C 0.27992 0.27325 0.04356 0.0
O1160 O 0.2679 0.28095 0.04307 0.0
H1161 H 0.28106 0.27474 0.98997 0.0
H1162 H 0.25622 0.29735 0.01995 0.0
N1163 N 0.24887 0.26222 0.02724 0.0
N1164 N 0.23294 0.25429 0.04347 0.0
C1165 C 0.24626 0.25253 0.03792 0.0
C1166 C 0.23672 0.27032 0.02586 0.0
C1167 C 0.22689 0.26549 0.03594 0.0
C1168 C 0.25742 0.24938 0.99333 0.0
O1169 O 0.24828 0.26032 0.99372 0.0
H1170 H 0.25423 0.24471 0.0419 0.0
H1171 H 0.23521 0.27924 0.01826 0.0
O1172 O 0.28214 0.26447 0.03307 0.0
H1173 H 0.26397 0.31602 0.99929 0.0
H1174 H 0.21616 0.26989 0.03761 0.0
Cu1175 Cu 0.77031 0.27712 1.00064 0.0
N1176 N 0.75355 0.27935 0.013 0.0
N1177 N 0.73958 0.28759 0.03063 0.0
C1178 C 0.75174 0.28989 0.02298 0.0
C1179 C 0.73353 0.27515 0.02513 0.0
C1180 C 0.74219 0.27009 0.01424 0.0
O1181 O 0.78151 0.26748 0.0176 0.0
C1182 C 0.75737 0.29959 0.98161 0.0
O1183 O 0.76338 0.30858 0.99131 0.0
H1184 H 0.75947 0.29875 0.02495 0.0
H1185 H 0.74051 0.26022 0.00791 0.0
N1186 N 0.78723 0.27521 0.98845 0.0
N1187 N 0.80199 0.26805 0.97103 0.0
C1188 C 0.7892 0.26558 0.97761 0.0
C1189 C 0.79908 0.284 0.9888 0.0
C1190 C 0.80821 0.27962 0.97806 0.0
C1191 C 0.78807 0.2747 0.02776 0.0
O1192 O 0.78813 0.28903 0.02717 0.0
H1193 H 0.78128 0.25724 0.97439 0.0
H1194 H 0.80084 0.29306 0.99625 0.0
O1195 O 0.75881 0.28591 0.98341 0.0
H1196 H 0.7236 0.27001 0.02876 0.0
H1197 H 0.81865 0.28454 0.97564 0.0
Cu1198 Cu 0.74863 0.78681 0.00848 0.0
N1199 N 0.74907 0.80281 0.9958 0.0
N1200 N 0.75586 0.81598 0.97657 0.0
C1201 C 0.75759 0.80346 0.98415 0.0
C1202 C 0.74589 0.8236 0.98383 0.0
C1203 C 0.74167 0.81542 0.99569 0.0
O1204 O 0.751 0.76961 0.99628 0.0
C1205 C 0.76019 0.80078 0.03241 0.0
O1206 O 0.74819 0.80808 0.02942 0.0
H1207 H 0.76502 0.79487 0.98137 0.0
H1208 H 0.73373 0.81841 1.00359 0.0
N1209 N 0.73092 0.78437 0.01776 0.0
N1210 N 0.71568 0.77584 0.03438 0.0
C1211 C 0.7295 0.77609 0.02977 0.0
C1212 C 0.71751 0.78957 0.01455 0.0
C1213 C 0.70804 0.78428 0.02479 0.0
C1214 C 0.7416 0.76909 0.98567 0.0
O1215 O 0.7317 0.77935 0.98466 0.0
H1216 H 0.73849 0.77016 0.03484 0.0
H1217 H 0.71478 0.79662 0.0054 0.0
O1218 O 0.76337 0.79025 0.02403 0.0
H1219 H 0.74174 0.8342 0.98068 0.0
H1220 H 0.6965 0.78658 0.0252 0.0
Cu1221 Cu 0.26048 0.76532 0.00816 0.0
N1222 N 0.25849 0.78081 0.02131 0.0
N1223 N 0.25041 0.79297 0.04058 0.0
C1224 C 0.25046 0.78012 0.03335 0.0
C1225 C 0.25879 0.80209 0.03276 0.0
C1226 C 0.26375 0.79457 0.0209 0.0
O1227 O 0.2624 0.74786 0.02027 0.0
C1228 C 0.24245 0.77749 0.98723 0.0
O1229 O 0.25149 0.78829 0.99063 0.0
H1230 H 0.24447 0.77044 0.0365 0.0
H1231 H 0.27045 0.79897 0.01245 0.0
N1232 N 0.2771 0.76697 0.99686 0.0
N1233 N 0.2922 0.76205 0.97887 0.0
C1234 C 0.27956 0.7585 0.98521 0.0
C1235 C 0.28863 0.7762 0.99799 0.0
C1236 C 0.29794 0.77323 0.98686 0.0
C1237 C 0.27447 0.74716 0.02762 0.0
O1238 O 0.28428 0.75753 0.02587 0.0
H1239 H 0.27208 0.75 0.98135 0.0
H1240 H 0.2903 0.78437 0.0064 0.0
O1241 O 0.24392 0.76545 0.9941 0.0
H1242 H 0.2612 0.81339 0.03538 0.0
H1243 H 0.30824 0.77869 0.98496 0.0
Cu1244 Cu 0.01318 0.24881 0.27637 0.0
N1245 N 0.02621 0.23324 0.27682 0.0
N1246 N 0.04438 0.21912 0.26961 0.0
C1247 C 0.03466 0.22952 0.26571 0.0
C1248 C 0.04191 0.2162 0.28378 0.0
C1249 C 0.03074 0.22498 0.2882 0.0
O1250 O 0.02553 0.2662 0.27869 0.0
C1251 C 0.99551 0.23522 0.25553 0.0
O1252 O 0.99904 0.22418 0.26406 0.0
H1253 H 0.03416 0.23492 0.25519 0.0
H1254 H 0.02666 0.22569 0.29911 0.0
N1255 N 0.99999 0.248 0.2915 0.0
N1256 N 0.98181 0.25496 0.30553 0.0
C1257 C 0.99148 0.25909 0.29548 0.0
C1258 C 0.99554 0.23638 0.29922 0.0
C1259 C 0.98436 0.24065 0.30793 0.0
C1260 C 0.03089 0.26843 0.29155 0.0
O1261 O 0.02679 0.25981 0.30215 0.0
H1262 H 0.99195 0.26982 0.29054 0.0
H1263 H 0.99972 0.22546 0.2982 0.0
O1264 O 1.00112 0.24773 0.25842 0.0
H1265 H 0.04792 0.20851 0.29057 0.0
H1266 H 0.97843 0.23368 0.31526 0.0
Cu1267 Cu 0.7601 0.01713 0.24579 0.0
N1268 N 0.7606 0.03045 0.23031 0.0
N1269 N 0.76805 0.0492 0.21667 0.0
C1270 C 0.77142 0.04015 0.2279 0.0
C1271 C 0.75464 0.04488 0.21167 0.0
C1272 C 0.75005 0.03335 0.22015 0.0
O1273 O 0.75617 0.02809 0.26345 0.0
C1274 C 0.7791 0.99369 0.25254 0.0
O1275 O 0.76947 0.99044 0.26235 0.0
H1276 H 0.78152 0.04066 0.23438 0.0
H1277 H 0.73958 0.02779 0.21926 0.0
N1278 N 0.74483 1.00365 0.24302 0.0
N1279 N 0.72973 0.98534 0.24895 0.0
C1280 C 0.73765 0.99703 0.25381 0.0
C1281 C 0.74124 0.99607 0.23084 0.0
C1282 C 0.73189 0.98483 0.23443 0.0
C1283 C 0.76336 0.03932 0.26784 0.0
O1284 O 0.77571 0.04264 0.26171 0.0
H1285 H 0.73899 1.00029 0.26513 0.0
H1286 H 0.74593 0.99794 0.22031 0.0
O1287 O 0.77795 0.00573 0.24565 0.0
H1288 H 0.74835 0.05008 0.20293 0.0
H1289 H 0.7279 0.97637 0.22705 0.0
Cu1290 Cu 0.00896 0.74326 0.24495 0.0
N1291 N 0.99533 0.74586 0.22953 0.0
N1292 N 0.97538 0.75529 0.21844 0.0
C1293 C 0.9813 0.7497 0.23093 0.0
C1294 C 0.98605 0.7545 0.20866 0.0
C1295 C 0.99834 0.74877 0.21555 0.0
O1296 O 0.99844 0.74057 0.26276 0.0
C1297 C 0.03416 0.76098 0.25164 0.0
O1298 O 0.03699 0.75162 0.2622 0.0
H1299 H 0.97583 0.74929 0.24116 0.0
H1300 H 0.00908 0.74809 0.21108 0.0
N1301 N 0.02032 0.72674 0.24246 0.0
N1302 N 0.03796 0.71075 0.24795 0.0
C1303 C 0.0286 0.72059 0.25317 0.0
C1304 C 0.02433 0.72042 0.23 0.0
C1305 C 0.0352 0.71052 0.23336 0.0
C1306 C 0.98998 0.7499 0.2681 0.0
O1307 O 0.98977 0.7632 0.26273 0.0
H1308 H 0.02852 0.7241 0.26444 0.0
H1309 H 0.02024 0.72338 0.21919 0.0
O1310 O 0.02208 0.76 0.2444 0.0
H1311 H 0.98549 0.75896 0.19771 0.0
H1312 H 0.04101 0.70412 0.22557 0.0
Cu1313 Cu 0.25376 0.01064 0.27576 0.0
N1314 N 0.25506 0.02205 0.29268 0.0
N1315 N 0.26245 0.04034 0.30738 0.0
C1316 C 0.26387 0.03381 0.29431 0.0
C1317 C 0.25237 0.03229 0.31429 0.0
C1318 C 0.24777 0.02103 0.30515 0.0
O1319 O 0.25242 0.02418 0.25934 0.0
C1320 C 0.27171 0.99 0.28784 0.0
O1321 O 0.26281 0.99259 0.29844 0.0
H1322 H 0.27124 0.03742 0.28604 0.0
H1323 H 0.23969 0.01273 0.30744 0.0
N1324 N 0.23712 0.99876 0.2749 0.0
N1325 N 0.22295 0.97986 0.26789 0.0
C1326 C 0.2363 0.98616 0.26741 0.0
C1327 C 0.22382 1.0006 0.28034 0.0
C1328 C 0.21502 0.98893 0.27601 0.0
C1329 C 0.24251 0.03371 0.2606 0.0
O1330 O 0.23434 0.0331 0.27209 0.0
H1331 H 0.24528 0.98195 0.26136 0.0
H1332 H 0.22067 0.00985 0.2868 0.0
O1333 O 0.27021 0.99729 0.27603 0.0
H1334 H 0.24842 0.03451 0.32505 0.0
H1335 H 0.20369 0.98728 0.27864 0.0
Cu1336 Cu 0.00758 0.7596 0.75771 0.0
N1337 N 0.01978 0.74341 0.75665 0.0
N1338 N 0.03889 0.73031 0.74994 0.0
C1339 C 0.03213 0.74331 0.74912 0.0
C1340 C 0.03041 0.72187 0.75836 0.0
C1341 C 0.01865 0.73 0.76252 0.0
O1342 O 0.02093 0.77627 0.76046 0.0
C1343 C 0.98736 0.74819 0.73797 0.0
O1344 O 0.9899 0.73706 0.74669 0.0
H1345 H 0.03589 0.75259 0.74291 0.0
H1346 H 0.00983 0.7263 0.76919 0.0
N1347 N 0.99508 0.75885 0.77344 0.0
N1348 N 0.97642 0.76514 0.78716 0.0
C1349 C 0.98326 0.76734 0.77451 0.0
C1350 C 0.99574 0.75092 0.78582 0.0
C1351 C 0.98426 0.75482 0.79434 0.0
C1352 C 0.02754 0.77671 0.77296 0.0
O1353 O 0.02426 0.76678 0.78268 0.0
H1354 H 0.98001 0.77527 0.7663 0.0
H1355 H 1.00413 0.74311 0.78864 0.0
O1356 O 0.99458 0.76001 0.74029 0.0
H1357 H 0.03257 0.71066 0.76139 0.0
H1358 H 0.9819 0.75042 0.80497 0.0
Cu1359 Cu 0.27525 0.00788 0.76925 0.0
N1360 N 0.29255 0.01891 0.76905 0.0
N1361 N 0.30708 0.03745 0.76273 0.0
C1362 C 0.2932 0.03271 0.76402 0.0
C1363 C 0.31555 0.02623 0.76717 0.0
C1364 C 0.30654 0.01481 0.77116 0.0
O1365 O 0.2597 0.02223 0.77077 0.0
C1366 C 0.28361 0.98444 0.75327 0.0
O1367 O 0.29192 0.98351 0.76521 0.0
H1368 H 0.28367 0.03884 0.76049 0.0
H1369 H 0.30998 1.0041 0.77472 0.0
N1370 N 0.27407 0.99534 0.78536 0.0
N1371 N 0.26598 0.97659 0.7986 0.0
C1372 C 0.26411 0.9845 0.78626 0.0
C1373 C 0.28262 0.99431 0.79758 0.0
C1374 C 0.27759 0.98278 0.80583 0.0
C1375 C 0.25981 0.02855 0.78321 0.0
O1376 O 0.26957 0.02455 0.79324 0.0
H1377 H 0.25568 0.98245 0.7779 0.0
H1378 H 0.29195 1.0013 0.80018 0.0
O1379 O 0.27481 0.99513 0.75199 0.0
H1380 H 0.32737 0.02617 0.76715 0.0
H1381 H 0.28234 0.979 0.81612 0.0
Cu1382 Cu 0.03035 0.27225 0.77818 0.0
N1383 N 0.02057 0.29005 0.77848 0.0
N1384 N 1.00368 0.30645 0.77197 0.0
C1385 C 0.00923 0.29319 0.76933 0.0
C1386 C 0.01189 0.31193 0.78326 0.0
C1387 C 0.0224 0.30181 0.7872 0.0
O1388 O 0.01517 0.25717 0.77641 0.0
C1389 C 0.05442 0.2828 0.76518 0.0
O1390 O 0.05465 0.28974 0.77773 0.0
H1391 H 0.0049 0.28568 0.7611 0.0
H1392 H 0.03073 0.30297 0.79579 0.0
N1393 N 0.04139 0.26838 0.7953 0.0
N1394 N 0.05886 0.25832 0.80956 0.0
C1395 C 0.05233 0.2587 0.79613 0.0
C1396 C 0.04085 0.27426 0.80874 0.0
C1397 C 0.0517 0.26813 0.81755 0.0
C1398 C 0.00559 0.25834 0.7861 0.0
O1399 O 0.00726 0.26873 0.79592 0.0
H1400 H 0.05566 0.2523 0.78691 0.0
H1401 H 0.03314 0.28241 0.81193 0.0
O1402 O 0.04403 0.27372 0.76239 0.0
H1403 H 0.01047 0.32251 0.78822 0.0
H1404 H 0.05405 0.2706 0.82895 0.0
Cu1405 Cu 0.75589 0.0168 0.75671 0.0
N1406 N 0.75819 0.03 0.7722 0.0
N1407 N 0.76717 0.04931 0.78462 0.0
C1408 C 0.76691 0.0419 0.77187 0.0
C1409 C 0.75821 0.04173 0.79332 0.0
C1410 C 0.75269 0.02983 0.78564 0.0
O1411 O 0.75465 0.02885 0.73916 0.0
C1412 C 0.77381 0.99674 0.76988 0.0
O1413 O 0.76497 0.99996 0.78035 0.0
H1414 H 0.77328 0.04478 0.76255 0.0
H1415 H 0.74551 0.02147 0.78975 0.0
N1416 N 0.73901 0.00519 0.75772 0.0
N1417 N 0.72363 0.98663 0.75263 0.0
C1418 C 0.7364 0.99321 0.74951 0.0
C1419 C 0.72744 0.0063 0.7663 0.0
C1420 C 0.71796 0.9948 0.76324 0.0
C1421 C 0.74255 0.03535 0.73686 0.0
O1422 O 0.73178 0.03257 0.74557 0.0
H1423 H 0.74387 0.98926 0.74155 0.0
H1424 H 0.72587 0.01493 0.7741 0.0
O1425 O 0.7722 1.00331 0.75766 0.0
H1426 H 0.75583 0.04452 0.80446 0.0
H1427 H 0.7076 0.99274 0.76823 0.0
Cu1428 Cu 0.26097 0.75244 0.50192 0.0
N1429 N 0.27721 0.75349 0.51488 0.0
N1430 N 0.29104 0.76116 0.53409 0.0
C1431 C 0.27798 0.76205 0.52684 0.0
C1432 C 0.2988 0.75161 0.52633 0.0
C1433 C 0.29023 0.74689 0.51449 0.0
O1434 O 0.24403 0.75305 0.51429 0.0
C1435 C 0.27313 0.76666 0.47918 0.0
O1436 O 0.28144 0.75513 0.48081 0.0
H1437 H 0.26918 0.76906 0.52993 0.0
H1438 H 0.29331 0.73929 0.50615 0.0
N1439 N 0.26004 0.7351 0.49092 0.0
N1440 N 0.25354 0.71971 0.47283 0.0
C1441 C 0.25291 0.73351 0.47786 0.0
C1442 C 0.26554 0.72186 0.49413 0.0
C1443 C 0.26141 0.7123 0.48305 0.0
C1444 C 0.24277 0.74185 0.52243 0.0
O1445 O 0.25229 0.73134 0.52135 0.0
H1446 H 0.24712 0.74224 0.47229 0.0
H1447 H 0.27195 0.71928 0.50392 0.0
O1448 O 0.26276 0.76836 0.48793 0.0
H1449 H 0.30985 0.74822 0.52902 0.0
H1450 H 0.26404 0.70083 0.48247 0.0
Cu1451 Cu 0.75912 0.78741 0.49526 0.0
N1452 N 0.7755 0.78768 0.48359 0.0
N1453 N 0.78958 0.78009 0.46573 0.0
C1454 C 0.77673 0.77846 0.4723 0.0
C1455 C 0.79678 0.79081 0.47322 0.0
C1456 C 0.78803 0.79552 0.48423 0.0
O1457 O 0.74238 0.7878 0.48146 0.0
C1458 C 0.77339 0.77052 0.51521 0.0
O1459 O 0.78273 0.78119 0.51296 0.0
H1460 H 0.76844 0.77041 0.46925 0.0
H1461 H 0.79079 0.8038 0.49228 0.0
N1462 N 0.75757 0.80329 0.50783 0.0
N1463 N 0.74931 0.81547 0.52693 0.0
C1464 C 0.74821 0.80323 0.51881 0.0
C1465 C 0.76488 0.81609 0.50894 0.0
C1466 C 0.75985 0.82362 0.52081 0.0
C1467 C 0.74318 0.79854 0.47263 0.0
O1468 O 0.75401 0.80796 0.47451 0.0
H1469 H 0.74097 0.79413 0.521 0.0
H1470 H 0.77328 0.8197 0.50173 0.0
O1471 O 0.76112 0.77052 0.50814 0.0
H1472 H 0.80758 0.79493 0.47093 0.0
H1473 H 0.76356 0.83427 0.52458 0.0
Cu1474 Cu 0.77708 0.26642 0.51836 0.0
N1475 N 0.77736 0.24931 0.50712 0.0
N1476 N 0.7711 0.234 0.48887 0.0
C1477 C 0.76879 0.24709 0.49506 0.0
C1478 C 0.78156 0.22769 0.49744 0.0
C1479 C 0.78544 0.23719 0.50866 0.0
O1480 O 0.7774 0.28237 0.50419 0.0
C1481 C 0.75993 0.2532 0.5381 0.0
O1482 O 0.77064 0.24394 0.53675 0.0
H1483 H 0.76088 0.25494 0.49102 0.0
H1484 H 0.79353 0.23534 0.51734 0.0
N1485 N 0.79333 0.26868 0.53118 0.0
N1486 N 0.80684 0.27725 0.55025 0.0
C1487 C 0.79357 0.27704 0.54328 0.0
C1488 C 0.80691 0.26336 0.53041 0.0
C1489 C 0.81526 0.26862 0.54215 0.0
C1490 C 0.78778 0.28116 0.49534 0.0
O1491 O 0.79704 0.27044 0.49731 0.0
H1492 H 0.78424 0.28316 0.54666 0.0
H1493 H 0.81056 0.25633 0.52183 0.0
O1494 O 0.76012 0.26496 0.53063 0.0
H1495 H 0.78621 0.21707 0.49562 0.0
H1496 H 0.82664 0.26622 0.54453 0.0
Cu1497 Cu 0.27587 0.27254 0.51765 0.0
N1498 N 0.27406 0.28927 0.52904 0.0
N1499 N 0.26658 0.30336 0.54719 0.0
C1500 C 0.26694 0.28973 0.54163 0.0
C1501 C 0.27378 0.31181 0.53765 0.0
C1502 C 0.27835 0.30308 0.52646 0.0
O1503 O 0.27692 0.25614 0.53122 0.0
C1504 C 0.26052 0.28161 0.49321 0.0
O1505 O 0.27176 0.29064 0.49364 0.0
H1506 H 0.26172 0.28027 0.54634 0.0
H1507 H 0.28416 0.30664 0.517 0.0
N1508 N 0.29299 0.27278 0.50706 0.0
N1509 N 0.30841 0.26678 0.48974 0.0
C1510 C 0.29567 0.26361 0.49604 0.0
C1511 C 0.3045 0.28207 0.50785 0.0
C1512 C 0.31402 0.27842 0.49712 0.0
C1513 C 0.28867 0.25585 0.53911 0.0
O1514 O 0.29861 0.26604 0.53716 0.0
H1515 H 0.28813 0.25506 0.49241 0.0
H1516 H 0.30582 0.29093 0.51558 0.0
O1517 O 0.25954 0.27209 0.50332 0.0
H1518 H 0.2756 0.32346 0.53863 0.0
H1519 H 0.32425 0.28388 0.49494 0.0
Cu1520 Cu 0.76382 0.52622 0.74837 0.0
N1521 N 0.76273 0.53833 0.73206 0.0
N1522 N 0.76777 0.55753 0.71798 0.0
C1523 C 0.76917 0.55156 0.73142 0.0
C1524 C 0.76011 0.54759 0.70983 0.0
C1525 C 0.75704 0.53573 0.71856 0.0
O1526 O 0.76609 0.53967 0.7648 0.0
C1527 C 0.78536 0.50383 0.7541 0.0
O1528 O 0.78134 0.50384 0.76772 0.0
H1529 H 0.77531 0.55641 0.74053 0.0
H1530 H 0.7514 0.52578 0.71522 0.0
N1531 N 0.74676 0.51497 0.74975 0.0
N1532 N 0.73159 0.4973 0.7569 0.0
C1533 C 0.74518 0.50306 0.75819 0.0
C1534 C 0.7337 0.51676 0.74278 0.0
C1535 C 0.72432 0.5058 0.74713 0.0
C1536 C 0.75896 0.53894 0.77647 0.0
O1537 O 0.75158 0.52698 0.77936 0.0
H1538 H 0.75381 0.49871 0.76521 0.0
H1539 H 0.73114 0.52547 0.73518 0.0
O1540 O 0.77991 0.51308 0.74515 0.0
H1541 H 0.75707 0.54872 0.69836 0.0
H1542 H 0.71297 0.5044 0.74365 0.0
Cu1543 Cu 0.27752 0.51927 0.75137 0.0
N1544 N 0.29363 0.50679 0.75209 0.0
N1545 N 0.30717 0.48774 0.75916 0.0
C1546 C 0.29379 0.49373 0.75887 0.0
C1547 C 0.31581 0.49732 0.75224 0.0
C1548 C 0.3074 0.50901 0.74777 0.0
O1549 O 0.26035 0.50653 0.75073 0.0
C1550 C 0.2906 0.54028 0.76872 0.0
O1551 O 0.30025 0.53853 0.75864 0.0
H1552 H 0.28442 0.48902 0.76409 0.0
H1553 H 0.31122 0.51865 0.7422 0.0
N1554 N 0.27683 0.53132 0.73486 0.0
N1555 N 0.26941 0.54954 0.72023 0.0
C1556 C 0.26708 0.54205 0.73265 0.0
C1557 C 0.28564 0.53197 0.72341 0.0
C1558 C 0.28111 0.54325 0.71439 0.0
C1559 C 0.25807 0.4998 0.73868 0.0
O1560 O 0.26671 0.50262 0.72786 0.0
H1561 H 0.25867 0.54453 0.74024 0.0
H1562 H 0.29473 0.52481 0.72175 0.0
O1563 O 0.27898 0.53248 0.76809 0.0
H1564 H 0.3274 0.49605 0.75076 0.0
H1565 H 0.28599 0.54651 0.70428 0.0
Cu1566 Cu 0.27971 0.49632 0.26428 0.0
N1567 N 0.27886 0.48563 0.28173 0.0
N1568 N 0.27066 0.46855 0.29697 0.0
C1569 C 0.26972 0.4742 0.28336 0.0
C1570 C 0.28084 0.47681 0.30423 0.0
C1571 C 0.28592 0.48733 0.29478 0.0
O1572 O 0.28244 0.48189 0.24899 0.0
C1573 C 0.26052 0.51582 0.27432 0.0
O1574 O 0.2701 0.51454 0.28525 0.0
H1575 H 0.26224 0.47034 0.27475 0.0
H1576 H 0.29395 0.49575 0.29736 0.0
N1577 N 0.29511 0.50982 0.26347 0.0
N1578 N 0.30719 0.52926 0.25507 0.0
C1579 C 0.29511 0.52075 0.25367 0.0
C1580 C 0.30768 0.51136 0.27141 0.0
C1581 C 0.31515 0.52343 0.26628 0.0
C1582 C 0.29334 0.47368 0.25186 0.0
O1583 O 0.30138 0.47629 0.26376 0.0
H1584 H 0.28623 0.52253 0.24576 0.0
H1585 H 0.31126 0.50421 0.28018 0.0
O1586 O 0.26216 0.50819 0.26286 0.0
H1587 H 0.28439 0.47537 0.31553 0.0
H1588 H 0.32569 0.52744 0.27032 0.0
Cu1589 Cu 0.77774 0.51795 0.25046 0.0
N1590 N 0.79428 0.5062 0.25297 0.0
N1591 N 0.80805 0.4882 0.26224 0.0
C1592 C 0.79568 0.4959 0.2634 0.0
C1593 C 0.81475 0.49391 0.25061 0.0
C1594 C 0.80625 0.50507 0.24494 0.0
O1595 O 0.76109 0.50441 0.24875 0.0
C1596 C 0.7902 0.53881 0.26825 0.0
O1597 O 0.80093 0.53538 0.25981 0.0
H1598 H 0.78748 0.49378 0.27138 0.0
H1599 H 0.80856 0.51172 0.23553 0.0
N1600 N 0.77752 0.52927 0.23346 0.0
N1601 N 0.77019 0.54717 0.21835 0.0
C1602 C 0.76975 0.54159 0.23198 0.0
C1603 C 0.78312 0.52689 0.2203 0.0
C1604 C 0.77862 0.53794 0.21095 0.0
C1605 C 0.76281 0.49457 0.23911 0.0
O1606 O 0.7747 0.49503 0.23151 0.0
H1607 H 0.76336 0.54599 0.24063 0.0
H1608 H 0.7896 0.51758 0.21752 0.0
O1609 O 0.77802 0.532 0.26652 0.0
H1610 H 0.82503 0.49027 0.24649 0.0
H1611 H 0.7812 0.53895 0.19955 0.0
Cu1612 Cu 0.51688 0.25109 0.76809 0.0
N1613 N 0.50539 0.24952 0.78444 0.0
N1614 N 0.48677 0.25461 0.79866 0.0
C1615 C 0.49256 0.25638 0.78544 0.0
C1616 C 0.49639 0.24626 0.80633 0.0
C1617 C 0.50788 0.2431 0.7975 0.0
O1618 O 0.50294 0.25222 0.75154 0.0
C1619 C 0.53989 0.26583 0.78093 0.0
O1620 O 0.54003 0.25336 0.78802 0.0
H1621 H 0.48789 0.26308 0.77676 0.0
H1622 H 0.5175 0.2369 0.80051 0.0
N1623 N 0.52894 0.235 0.76544 0.0
N1624 N 0.54742 0.2222 0.75688 0.0
C1625 C 0.54026 0.23499 0.75648 0.0
C1626 C 0.52888 0.22176 0.7718 0.0
C1627 C 0.54025 0.2138 0.76647 0.0
C1628 C 0.49607 0.24028 0.74891 0.0
O1629 O 0.49962 0.22872 0.75667 0.0
H1630 H 0.54313 0.24424 0.74976 0.0
H1631 H 0.52118 0.21817 0.77977 0.0
O1632 O 0.5299 0.26788 0.7711 0.0
H1633 H 0.49531 0.24282 0.81755 0.0
H1634 H 0.54319 0.20281 0.76965 0.0
Cu1635 Cu 0.5159 0.76508 0.76698 0.0
N1636 N 0.53014 0.76421 0.78226 0.0
N1637 N 0.5503 0.75678 0.79459 0.0
C1638 C 0.54183 0.75539 0.78226 0.0
C1639 C 0.54365 0.76687 0.80267 0.0
C1640 C 0.53121 0.77139 0.79509 0.0
O1641 O 0.52689 0.76602 0.74913 0.0
C1642 C 0.49714 0.74698 0.78125 0.0
O1643 O 0.50182 0.75572 0.79181 0.0
H1644 H 0.5441 0.74815 0.77332 0.0
H1645 H 0.52335 0.77907 0.79889 0.0
N1646 N 0.50387 0.78154 0.76731 0.0
N1647 N 0.48521 0.79594 0.76058 0.0
C1648 C 0.49204 0.7832 0.75832 0.0
C1649 C 0.50462 0.79372 0.77554 0.0
C1650 C 0.49308 0.80259 0.77146 0.0
C1651 C 0.53367 0.77812 0.74752 0.0
O1652 O 0.53211 0.78839 0.75733 0.0
H1653 H 0.48845 0.77512 0.75032 0.0
H1654 H 0.51309 0.7962 0.78369 0.0
O1655 O 0.50247 0.74852 0.76865 0.0
H1656 H 0.54728 0.77045 0.81347 0.0
H1657 H 0.49086 0.81324 0.77591 0.0
Cu1658 Cu 0.50126 0.74838 0.26142 0.0
N1659 N 0.4911 0.74992 0.2787 0.0
N1660 N 0.47418 0.75779 0.29377 0.0
C1661 C 0.47892 0.75783 0.27998 0.0
C1662 C 0.48384 0.74954 0.30149 0.0
C1663 C 0.49428 0.7447 0.29216 0.0
O1664 O 0.48669 0.74788 0.24541 0.0
C1665 C 0.52587 0.76312 0.27056 0.0
O1666 O 0.52624 0.75142 0.27885 0.0
H1667 H 0.4739 0.76385 0.27099 0.0
H1668 H 0.50364 0.73809 0.29506 0.0
N1669 N 0.51209 0.73125 0.26025 0.0
N1670 N 0.5297 0.71654 0.25293 0.0
C1671 C 0.52278 0.72931 0.25076 0.0
C1672 C 0.51212 0.71921 0.26868 0.0
C1673 C 0.52305 0.71013 0.26423 0.0
C1674 C 0.47711 0.73783 0.24686 0.0
O1675 O 0.47828 0.72923 0.25832 0.0
H1676 H 0.52581 0.73744 0.2428 0.0
H1677 H 0.50491 0.71729 0.2776 0.0
O1678 O 0.51522 0.76459 0.26134 0.0
H1679 H 0.48343 0.74715 0.31305 0.0
H1680 H 0.52594 0.69969 0.26898 0.0
Cu1681 Cu 0.5256 0.24702 0.25524 0.0
N1682 N 0.51344 0.23052 0.25525 0.0
N1683 N 0.49498 0.21652 0.2626 0.0
C1684 C 0.5023 0.22927 0.26435 0.0
C1685 C 0.50177 0.20941 0.25192 0.0
C1686 C 0.51327 0.21806 0.24746 0.0
O1687 O 0.51227 0.26353 0.25609 0.0
C1688 C 0.54934 0.2345 0.26846 0.0
O1689 O 0.5474 0.22699 0.25632 0.0
H1690 H 0.49954 0.23768 0.27203 0.0
H1691 H 0.52101 0.2153 0.23931 0.0
N1692 N 0.53615 0.24965 0.23827 0.0
N1693 N 0.55208 0.26041 0.22367 0.0
C1694 C 0.54574 0.26071 0.23672 0.0
C1695 C 0.53636 0.24204 0.2257 0.0
C1696 C 0.54626 0.24863 0.21668 0.0
C1697 C 0.50448 0.26479 0.24431 0.0
O1698 O 0.50642 0.25544 0.2337 0.0
H1699 H 0.54814 0.26873 0.24517 0.0
H1700 H 0.52972 0.23251 0.22315 0.0
O1701 O 0.5403 0.2446 0.2711 0.0
H1702 H 0.49883 0.19865 0.24786 0.0
H1703 H 0.54878 0.24518 0.20577 0.0
C1704 C 0.19212 0.20804 0.10416 0.0
C1705 C 0.20089 0.20713 0.11699 0.0
C1706 C 0.1969 0.21574 0.09191 0.0
C1707 C 0.21071 0.22288 0.09259 0.0
C1708 C 0.21953 0.22215 0.10559 0.0
C1709 C 0.21456 0.21419 0.11759 0.0
C1710 C 0.18727 0.21608 0.07819 0.0
C1711 C 0.23423 0.22977 0.10682 0.0
C1712 C 0.2301 0.23152 0.05752 0.0
C1713 C 0.22691 0.24632 0.05547 0.0
C1714 C 0.22469 0.2237 0.0694 0.0
C1715 C 0.21605 0.23092 0.07962 0.0
C1716 C 0.21273 0.24586 0.07758 0.0
C1717 C 0.21811 0.25335 0.06546 0.0
C1718 C 0.22829 0.20773 0.07105 0.0
C1719 C 0.20373 0.254 0.08834 0.0
H1720 H 0.1816 0.20248 0.10361 0.0
H1721 H 0.22131 0.21364 0.12754 0.0
H1722 H 0.18475 0.22753 0.07517 0.0
H1723 H 0.1931 0.21124 0.06898 0.0
H1724 H 0.17682 0.21001 0.07946 0.0
H1725 H 0.23957 0.22849 0.11782 0.0
H1726 H 0.24157 0.22533 0.09857 0.0
H1727 H 0.23297 0.24158 0.10451 0.0
H1728 H 0.23675 0.22602 0.04972 0.0
H1729 H 0.21577 0.26483 0.06401 0.0
H1730 H 0.21808 0.20116 0.07161 0.0
H1731 H 0.23465 0.20595 0.08143 0.0
H1732 H 0.23472 0.20362 0.06189 0.0
H1733 H 0.19292 0.24857 0.08932 0.0
H1734 H 0.202 0.26555 0.0851 0.0
H1735 H 0.20926 0.25378 0.09932 0.0
C1736 C 0.80959 0.23276 0.10182 0.0
C1737 C 0.82442 0.22911 0.10293 0.0
C1738 C 0.80384 0.24037 0.08963 0.0
C1739 C 0.81313 0.24439 0.07823 0.0
C1740 C 0.82812 0.24078 0.0793 0.0
C1741 C 0.83359 0.23321 0.09164 0.0
C1742 C 0.78781 0.24408 0.08895 0.0
C1743 C 0.83837 0.24479 0.06734 0.0
C1744 C 0.79535 0.25169 0.04079 0.0
C1745 C 0.79496 0.267 0.04046 0.0
C1746 C 0.80137 0.24422 0.05294 0.0
C1747 C 0.8071 0.25221 0.0651 0.0
C1748 C 0.80687 0.26766 0.0648 0.0
C1749 C 0.80084 0.27487 0.05248 0.0
C1750 C 0.80145 0.22774 0.05281 0.0
C1751 C 0.81285 0.27658 0.07756 0.0
H1752 H 0.80248 0.22981 0.11059 0.0
H1753 H 0.84503 0.23027 0.09233 0.0
H1754 H 0.78648 0.25606 0.08788 0.0
H1755 H 0.7824 0.23899 0.07915 0.0
H1756 H 0.78209 0.24032 0.09878 0.0
H1757 H 0.84977 0.24136 0.06992 0.0
H1758 H 0.83458 0.23957 0.05693 0.0
H1759 H 0.83833 0.25676 0.06554 0.0
H1760 H 0.79087 0.2455 0.03157 0.0
H1761 H 0.80057 0.28668 0.05235 0.0
H1762 H 0.79495 0.22344 0.06189 0.0
H1763 H 0.81278 0.22377 0.05457 0.0
H1764 H 0.79689 0.22314 0.04237 0.0
H1765 H 0.80676 0.27388 0.08749 0.0
H1766 H 0.81207 0.2885 0.07553 0.0
H1767 H 0.82447 0.27385 0.07992 0.0
C1768 C 0.80857 0.83704 0.09737 0.0
C1769 C 0.80797 0.8289 0.11031 0.0
C1770 C 0.80197 0.83182 0.08427 0.0
C1771 C 0.79443 0.81823 0.08414 0.0
C1772 C 0.79399 0.80987 0.09712 0.0
C1773 C 0.8008 0.81528 0.11003 0.0
C1774 C 0.80279 0.84101 0.07063 0.0
C1775 C 0.78587 0.79545 0.09753 0.0
C1776 C 0.76314 0.8137 0.05623 0.0
C1777 C 0.76918 0.80473 0.04565 0.0
C1778 C 0.77122 0.81803 0.06879 0.0
C1779 C 0.78583 0.81343 0.07083 0.0
C1780 C 0.79205 0.80432 0.06024 0.0
C1781 C 0.78359 0.79997 0.04779 0.0
C1782 C 0.76407 0.82756 0.07988 0.0
C1783 C 0.80764 0.79929 0.06201 0.0
H1784 H 0.81427 0.84747 0.09749 0.0
H1785 H 0.8002 0.80899 0.12002 0.0
H1786 H 0.80683 0.83441 0.06149 0.0
H1787 H 0.7917 0.84482 0.06729 0.0
H1788 H 0.81006 0.85071 0.07224 0.0
H1789 H 0.78739 0.78983 0.10822 0.0
H1790 H 0.77402 0.79725 0.09543 0.0
H1791 H 0.7896 0.78813 0.0888 0.0
H1792 H 0.75196 0.81734 0.05476 0.0
H1793 H 0.78833 0.79307 0.03964 0.0
H1794 H 0.77016 0.83805 0.08109 0.0
H1795 H 0.76441 0.82215 0.09072 0.0
H1796 H 0.75251 0.82997 0.07677 0.0
H1797 H 0.81513 0.80889 0.06268 0.0
H1798 H 0.81086 0.79225 0.05282 0.0
H1799 H 0.80916 0.79312 0.07237 0.0
C1800 C 0.22035 0.81496 0.11801 0.0
C1801 C 0.20502 0.81473 0.11814 0.0
C1802 C 0.22777 0.81094 0.1055 0.0
C1803 C 0.21969 0.80657 0.09274 0.0
C1804 C 0.20423 0.80605 0.09286 0.0
C1805 C 0.19708 0.81012 0.10555 0.0
C1806 C 0.24426 0.81158 0.10587 0.0
C1807 C 0.19522 0.80146 0.07948 0.0
C1808 C 0.23822 0.81066 0.05638 0.0
C1809 C 0.24267 0.79634 0.05363 0.0
C1810 C 0.23066 0.81409 0.06899 0.0
C1811 C 0.22745 0.80296 0.07916 0.0
C1812 C 0.23187 0.78848 0.07645 0.0
C1813 C 0.23941 0.78535 0.06374 0.0
C1814 C 0.22611 0.82966 0.07143 0.0
C1815 C 0.22873 0.77631 0.08705 0.0
H1816 H 0.22658 0.81827 0.12776 0.0
H1817 H 0.18525 0.81004 0.10549 0.0
H1818 H 0.24868 0.80078 0.10294 0.0
H1819 H 0.24804 0.81954 0.09765 0.0
H1820 H 0.24894 0.8148 0.11677 0.0
H1821 H 0.18333 0.80111 0.0815 0.0
H1822 H 0.19715 0.80918 0.0704 0.0
H1823 H 0.1986 0.79051 0.07581 0.0
H1824 H 0.24048 0.81918 0.04856 0.0
H1825 H 0.24296 0.77431 0.06183 0.0
H1826 H 0.23118 0.83383 0.08182 0.0
H1827 H 0.21409 0.83015 0.07244 0.0
H1828 H 0.22931 0.83702 0.06241 0.0
H1829 H 0.23402 0.77878 0.09786 0.0
H1830 H 0.23269 0.7656 0.08325 0.0
H1831 H 0.2168 0.77542 0.08864 0.0
C1832 C 0.18896 0.79522 0.91766 0.0
C1833 C 0.19841 0.79816 0.90626 0.0
C1834 C 0.19429 0.78962 0.93112 0.0
C1835 C 0.20943 0.78697 0.93324 0.0
C1836 C 0.21884 0.78904 0.92145 0.0
C1837 C 0.21322 0.79458 0.90813 0.0
C1838 C 0.18387 0.78744 0.94335 0.0
C1839 C 0.23504 0.78629 0.92317 0.0
C1840 C 0.22857 0.79358 0.97002 0.0
C1841 C 0.23194 0.77939 0.97468 0.0
C1842 C 0.22061 0.79609 0.95693 0.0
C1843 C 0.21585 0.78411 0.94818 0.0
C1844 C 0.21846 0.7697 0.95321 0.0
C1845 C 0.22649 0.76749 0.96646 0.0
C1846 C 0.21801 0.81165 0.9521 0.0
C1847 C 0.21346 0.75665 0.94427 0.0
H1848 H 0.17751 0.79797 0.91634 0.0
H1849 H 0.22054 0.79651 0.89927 0.0
H1850 H 0.18593 0.77691 0.94899 0.0
H1851 H 0.18562 0.79625 0.95155 0.0
H1852 H 0.17228 0.78767 0.93934 0.0
H1853 H 0.24058 0.78696 0.91259 0.0
H1854 H 0.24012 0.7945 0.93073 0.0
H1855 H 0.23703 0.77537 0.92803 0.0
H1856 H 0.23259 0.80284 0.9764 0.0
H1857 H 0.22908 0.7565 0.96998 0.0
H1858 H 0.20627 0.81329 0.94928 0.0
H1859 H 0.22419 0.81396 0.94213 0.0
H1860 H 0.22149 0.81969 0.96064 0.0
H1861 H 0.20197 0.75795 0.94027 0.0
H1862 H 0.21436 0.74633 0.95059 0.0
H1863 H 0.22027 0.75574 0.93454 0.0
C1864 C 0.2482 0.19888 0.92162 0.0
C1865 C 0.23475 0.1915 0.92249 0.0
C1866 C 0.25417 0.2068 0.93362 0.0
C1867 C 0.24651 0.20733 0.94679 0.0
C1868 C 0.23351 0.19898 0.94804 0.0
C1869 C 0.22779 0.1912 0.93589 0.0
C1870 C 0.26809 0.21548 0.93182 0.0
C1871 C 0.22502 0.19911 0.96187 0.0
C1872 C 0.26256 0.22503 0.98171 0.0
C1873 C 0.25591 0.23875 0.98111 0.0
C1874 C 0.25999 0.21474 0.97043 0.0
C1875 C 0.25065 0.21832 0.95829 0.0
C1876 C 0.24439 0.23235 0.95744 0.0
C1877 C 0.24707 0.24233 0.96882 0.0
C1878 C 0.26689 0.1999 0.9717 0.0
C1879 C 0.23445 0.23673 0.94469 0.0
H1880 H 0.25364 0.1992 0.91131 0.0
H1881 H 0.21753 0.18529 0.93671 0.0
H1882 H 0.26545 0.22722 0.93069 0.0
H1883 H 0.27551 0.21432 0.94159 0.0
H1884 H 0.27396 0.21205 0.92201 0.0
H1885 H 0.21627 0.19061 0.96178 0.0
H1886 H 0.23241 0.19738 0.97156 0.0
H1887 H 0.21989 0.20993 0.96312 0.0
H1888 H 0.26941 0.2222 0.99116 0.0
H1889 H 0.24203 0.25296 0.96814 0.0
H1890 H 0.2724 0.19715 0.96148 0.0
H1891 H 0.25828 0.19149 0.97327 0.0
H1892 H 0.27498 0.1993 0.981 0.0
H1893 H 0.24003 0.23515 0.93426 0.0
H1894 H 0.23103 0.2483 0.94535 0.0
H1895 H 0.2245 0.2297 0.94433 0.0
C1896 C 0.8446 0.22346 0.91147 0.0
C1897 C 0.83647 0.22241 0.89824 0.0
C1898 C 0.83904 0.23071 0.92356 0.0
C1899 C 0.82508 0.23719 0.92233 0.0
C1900 C 0.81687 0.23625 0.90895 0.0
C1901 C 0.82264 0.22883 0.8971 0.0
C1902 C 0.84807 0.23137 0.93766 0.0
C1903 C 0.80203 0.24316 0.90714 0.0
C1904 C 0.80464 0.24538 0.95679 0.0
C1905 C 0.80768 0.26029 0.9588 0.0
C1906 C 0.81031 0.23769 0.94504 0.0
C1907 C 0.81912 0.24512 0.93496 0.0
C1908 C 0.82215 0.26019 0.93688 0.0
C1909 C 0.81645 0.26757 0.9488 0.0
C1910 C 0.80693 0.2216 0.94343 0.0
C1911 C 0.83135 0.26856 0.9263 0.0
H1912 H 0.85522 0.21837 0.91245 0.0
H1913 H 0.81639 0.22819 0.88684 0.0
H1914 H 0.85036 0.24291 0.94071 0.0
H1915 H 0.84188 0.22639 0.94663 0.0
H1916 H 0.85863 0.22563 0.93689 0.0
H1917 H 0.79705 0.24146 0.89602 0.0
H1918 H 0.79453 0.23853 0.91525 0.0
H1919 H 0.80294 0.25506 0.90925 0.0
H1920 H 0.79801 0.23967 0.96458 0.0
H1921 H 0.81866 0.27913 0.95016 0.0
H1922 H 0.81724 0.21535 0.94355 0.0
H1923 H 0.80118 0.21947 0.93276 0.0
H1924 H 0.80003 0.21739 0.95227 0.0
H1925 H 0.84234 0.26364 0.92587 0.0
H1926 H 0.83268 0.28025 0.92933 0.0
H1927 H 0.82628 0.26787 0.91513 0.0
C1928 C 0.78702 0.83813 0.89909 0.0
C1929 C 0.80236 0.83871 0.89976 0.0
C1930 C 0.77906 0.83472 0.9115 0.0
C1931 C 0.78659 0.83185 0.92494 0.0
C1932 C 0.80207 0.83248 0.92572 0.0
C1933 C 0.80975 0.83587 0.91313 0.0
C1934 C 0.76259 0.83406 0.91018 0.0
C1935 C 0.8105 0.82953 0.93986 0.0
C1936 C 0.76612 0.83477 0.96031 0.0
C1937 C 0.76314 0.82007 0.96342 0.0
C1938 C 0.77369 0.83879 0.9478 0.0
C1939 C 0.77831 0.82784 0.93812 0.0
C1940 C 0.77512 0.81301 0.94109 0.0
C1941 C 0.7676 0.80932 0.95368 0.0
C1942 C 0.77692 0.85472 0.94504 0.0
C1943 C 0.77972 0.80101 0.931 0.0
H1944 H 0.78123 0.84012 0.88877 0.0
H1945 H 0.82159 0.83649 0.91379 0.0
H1946 H 0.75866 0.82294 0.91295 0.0
H1947 H 0.75785 0.84171 0.91806 0.0
H1948 H 0.75837 0.83684 0.89901 0.0
H1949 H 0.8225 0.8307 0.93871 0.0
H1950 H 0.80706 0.83717 0.94845 0.0
H1951 H 0.80808 0.81831 0.9437 0.0
H1952 H 0.76282 0.84312 0.96783 0.0
H1953 H 0.7651 0.79796 0.95585 0.0
H1954 H 0.77228 0.85798 0.93418 0.0
H1955 H 0.78891 0.85657 0.94487 0.0
H1956 H 0.77239 0.86191 0.95348 0.0
H1957 H 0.77503 0.80287 0.91982 0.0
H1958 H 0.77619 0.79003 0.93474 0.0
H1959 H 0.79179 0.80112 0.93025 0.0
C1960 C 0.10361 0.17899 0.2221 0.0
C1961 C 0.11419 0.18901 0.21744 0.0
C1962 C 0.09193 0.1835 0.23049 0.0
C1963 C 0.09076 0.19839 0.23434 0.0
C1964 C 0.10132 0.20858 0.22957 0.0
C1965 C 0.11289 0.20377 0.22119 0.0
C1966 C 0.08087 0.1723 0.2353 0.0
C1967 C 0.10048 0.22455 0.23347 0.0
C1968 C 0.05406 0.213 0.24553 0.0
C1969 C 0.05579 0.21339 0.26082 0.0
C1970 C 0.06528 0.20802 0.23679 0.0
C1971 C 0.07859 0.2033 0.24347 0.0
C1972 C 0.08034 0.20348 0.2589 0.0
C1973 C 0.06894 0.20851 0.26737 0.0
C1974 C 0.06294 0.20794 0.22038 0.0
C1975 C 0.09437 0.19857 0.26645 0.0
H1976 H 0.10442 0.1676 0.21909 0.0
H1977 H 0.1211 0.21156 0.21781 0.0
H1978 H 0.08072 0.172 0.2474 0.0
H1979 H 0.06976 0.17538 0.23125 0.0
H1980 H 0.08324 0.16118 0.23127 0.0
H1981 H 0.10942 0.23111 0.22872 0.0
H1982 H 0.08986 0.22902 0.2295 0.0
H1983 H 0.1011 0.22586 0.24552 0.0
H1984 H 0.04388 0.21654 0.24038 0.0
H1985 H 0.07047 0.20893 0.27914 0.0
H1986 H 0.06447 0.19676 0.21608 0.0
H1987 H 0.07118 0.21512 0.21531 0.0
H1988 H 0.05187 0.21171 0.21689 0.0
H1989 H 0.0968 0.18721 0.26324 0.0
H1990 H 0.09389 0.19907 0.27855 0.0
H1991 H 0.1036 0.20556 0.26299 0.0
C1992 C 0.82226 0.11185 0.18944 0.0
C1993 C 0.81537 0.12545 0.1893 0.0
C1994 C 0.81483 0.09913 0.19373 0.0
C1995 C 0.8002 0.10003 0.19815 0.0
C1996 C 0.79323 0.11375 0.19815 0.0
C1997 C 0.80087 0.12626 0.19365 0.0
C1998 C 0.8226 0.08469 0.19342 0.0
C1999 C 0.77773 0.11523 0.20298 0.0
C2000 C 0.77571 0.06611 0.19726 0.0
C2001 C 0.77641 0.06167 0.21192 0.0
C2002 C 0.78356 0.07843 0.19258 0.0
C2003 C 0.79218 0.08664 0.20285 0.0
C2004 C 0.79293 0.08221 0.21767 0.0
C2005 C 0.78511 0.06975 0.222 0.0
C2006 C 0.7826 0.08268 0.17665 0.0
C2007 C 0.80182 0.09075 0.22901 0.0
H2008 H 0.83341 0.11113 0.18594 0.0
H2009 H 0.79553 0.13676 0.19372 0.0
H2010 H 0.82304 0.07979 0.2045 0.0
H2011 H 0.81645 0.07696 0.18612 0.0
H2012 H 0.83392 0.08581 0.18957 0.0
H2013 H 0.77393 0.1267 0.2025 0.0
H2014 H 0.77026 0.10842 0.19595 0.0
H2015 H 0.77686 0.11119 0.21434 0.0
H2016 H 0.76911 0.05984 0.18942 0.0
H2017 H 0.78552 0.06653 0.23339 0.0
H2018 H 0.7937 0.08315 0.17218 0.0
H2019 H 0.77789 0.09374 0.17547 0.0
H2020 H 0.77576 0.07492 0.16998 0.0
H2021 H 0.8134 0.09142 0.2259 0.0
H2022 H 0.80136 0.08579 0.24006 0.0
H2023 H 0.79774 0.10209 0.22955 0.0
C2024 C 0.89778 0.79434 0.20846 0.0
C2025 C 0.89996 0.8092 0.20539 0.0
C2026 C 0.90963 0.78506 0.21134 0.0
C2027 C 0.92405 0.79077 0.21114 0.0
C2028 C 0.92632 0.80585 0.20851 0.0
C2029 C 0.91425 0.81489 0.20569 0.0
C2030 C 0.90674 0.76909 0.21425 0.0
C2031 C 0.94153 0.81235 0.20822 0.0
C2032 C 0.95555 0.76974 0.2289 0.0
C2033 C 0.96186 0.76325 0.21676 0.0
C2034 C 0.94309 0.77846 0.22728 0.0
C2035 C 0.93679 0.78088 0.21317 0.0
C2036 C 0.94286 0.77413 0.20091 0.0
C2037 C 0.95528 0.76537 0.20286 0.0
C2038 C 0.93691 0.7854 0.24064 0.0
C2039 C 0.93641 0.77637 0.18568 0.0
H2040 H 0.88675 0.78992 0.20844 0.0
H2041 H 0.91603 0.82631 0.20318 0.0
H2042 H 0.91142 0.7624 0.20551 0.0
H2043 H 0.91219 0.76579 0.22474 0.0
H2044 H 0.89489 0.76651 0.21472 0.0
H2045 H 0.94142 0.82438 0.20668 0.0
H2046 H 0.94769 0.80985 0.21855 0.0
H2047 H 0.94754 0.80741 0.19919 0.0
H2048 H 0.96058 0.76844 0.23968 0.0
H2049 H 0.95993 0.76028 0.19345 0.0
H2050 H 0.92506 0.78292 0.24115 0.0
H2051 H 0.93815 0.79743 0.23997 0.0
H2052 H 0.94244 0.7816 0.25093 0.0
H2053 H 0.92472 0.77305 0.18523 0.0
H2054 H 0.9422 0.77007 0.17734 0.0
H2055 H 0.93694 0.78812 0.18277 0.0
C2056 C 0.20048 0.91522 0.21353 0.0
C2057 C 0.19565 0.90272 0.22087 0.0
C2058 C 0.20502 0.92779 0.22128 0.0
C2059 C 0.20469 0.92788 0.23673 0.0
C2060 C 0.19997 0.91526 0.24421 0.0
C2061 C 0.19555 0.90284 0.2362 0.0
C2062 C 0.21003 0.94104 0.21293 0.0
C2063 C 0.19952 0.91491 0.26067 0.0
C2064 C 0.22833 0.95572 0.25755 0.0
C2065 C 0.2182 0.96659 0.2606 0.0
C2066 C 0.22408 0.94307 0.24983 0.0
C2067 C 0.20931 0.94117 0.24509 0.0
C2068 C 0.19897 0.95196 0.24833 0.0
C2069 C 0.20353 0.96454 0.25605 0.0
C2070 C 0.23544 0.93178 0.24666 0.0
C2071 C 0.1831 0.95029 0.24349 0.0
H2072 H 0.20044 0.91528 0.2017 0.0
H2073 H 0.19206 0.89315 0.24197 0.0
H2074 H 0.20292 0.95043 0.2152 0.0
H2075 H 0.22132 0.94415 0.21659 0.0
H2076 H 0.20983 0.93914 0.20094 0.0
H2077 H 0.19556 0.90423 0.26482 0.0
H2078 H 0.21057 0.91715 0.26556 0.0
H2079 H 0.19223 0.92359 0.26452 0.0
H2080 H 0.23962 0.95708 0.26125 0.0
H2081 H 0.19567 0.97293 0.25822 0.0
H2082 H 0.23611 0.93028 0.23468 0.0
H2083 H 0.23224 0.92109 0.25134 0.0
H2084 H 0.24645 0.93486 0.25121 0.0
H2085 H 0.18214 0.94954 0.2314 0.0
H2086 H 0.17638 0.95955 0.2471 0.0
H2087 H 0.17851 0.94002 0.24793 0.0
C2088 C 0.09716 0.82653 0.79858 0.0
C2089 C 0.1081 0.81644 0.80232 0.0
C2090 C 0.08377 0.82196 0.79194 0.0
C2091 C 0.08125 0.80695 0.78899 0.0
C2092 C 0.09254 0.79685 0.79207 0.0
C2093 C 0.10579 0.8017 0.79868 0.0
C2094 C 0.07206 0.8331 0.78878 0.0
C2095 C 0.09039 0.78076 0.78903 0.0
C2096 C 0.04353 0.78987 0.79114 0.0
C2097 C 0.03988 0.78687 0.77643 0.0
C2098 C 0.05658 0.79713 0.79525 0.0
C2099 C 0.06636 0.80147 0.7844 0.0
C2100 C 0.06235 0.79927 0.76944 0.0
C2101 C 0.0491 0.79201 0.76561 0.0
C2102 C 0.06028 0.79935 0.81131 0.0
C2103 C 0.07243 0.80379 0.75754 0.0
H2104 H 0.0988 0.83793 0.80139 0.0
H2105 H 0.11429 0.79388 0.80124 0.0
H2106 H 0.06722 0.83157 0.77761 0.0
H2107 H 0.06315 0.83161 0.79655 0.0
H2108 H 0.07635 0.84446 0.78984 0.0
H2109 H 0.10063 0.77452 0.79084 0.0
H2110 H 0.08202 0.77623 0.79629 0.0
H2111 H 0.08633 0.77902 0.7776 0.0
H2112 H 0.03638 0.78603 0.79955 0.0
H2113 H 0.04638 0.78964 0.75424 0.0
H2114 H 0.06352 0.81087 0.81347 0.0
H2115 H 0.06972 0.79245 0.81463 0.0
H2116 H 0.05099 0.79648 0.81828 0.0
H2117 H 0.07674 0.81501 0.75951 0.0
H2118 H 0.06688 0.80336 0.74656 0.0
H2119 H 0.08192 0.79638 0.75757 0.0
C2120 C 0.23744 0.10562 0.81052 0.0
C2121 C 0.22263 0.10777 0.81318 0.0
C2122 C 0.24215 0.09288 0.80367 0.0
C2123 C 0.23181 0.08194 0.79938 0.0
C2124 C 0.21677 0.08433 0.80141 0.0
C2125 C 0.21236 0.0972 0.80828 0.0
C2126 C 0.25829 0.09084 0.80165 0.0
C2127 C 0.20539 0.07297 0.797 0.0
C2128 C 0.24601 0.05116 0.77577 0.0
C2129 C 0.25032 0.04101 0.7865 0.0
C2130 C 0.23939 0.06437 0.77966 0.0
C2131 C 0.23698 0.06736 0.79458 0.0
C2132 C 0.24053 0.0567 0.80528 0.0
C2133 C 0.24718 0.04374 0.80112 0.0
C2134 C 0.23573 0.07542 0.76793 0.0
C2135 C 0.23803 0.0593 0.82129 0.0
H2136 H 0.24542 0.11385 0.814 0.0
H2137 H 0.20089 0.09869 0.81036 0.0
H2138 H 0.26234 0.08192 0.80888 0.0
H2139 H 0.26029 0.08759 0.79024 0.0
H2140 H 0.26475 0.10089 0.80426 0.0
H2141 H 0.19411 0.07723 0.79752 0.0
H2142 H 0.20713 0.06904 0.78575 0.0
H2143 H 0.20639 0.06343 0.80442 0.0
H2144 H 0.24854 0.04915 0.76447 0.0
H2145 H 0.25039 0.03587 0.80945 0.0
H2146 H 0.24346 0.0848 0.76895 0.0
H2147 H 0.22457 0.07971 0.76923 0.0
H2148 H 0.23643 0.07075 0.75679 0.0
H2149 H 0.24516 0.0684 0.82534 0.0
H2150 H 0.2404 0.04949 0.82808 0.0
H2151 H 0.22655 0.06251 0.82287 0.0
C2152 C 0.94426 0.20639 0.81459 0.0
C2153 C 0.93118 0.20598 0.80616 0.0
C2154 C 0.95686 0.21317 0.80937 0.0
C2155 C 0.95637 0.21981 0.79539 0.0
C2156 C 0.94347 0.21862 0.78644 0.0
C2157 C 0.93102 0.21168 0.79193 0.0
C2158 C 0.97042 0.21405 0.81922 0.0
C2159 C 0.94246 0.22555 0.7715 0.0
C2160 C 0.98022 0.25372 0.79361 0.0
C2161 C 0.99258 0.24864 0.78667 0.0
C2162 C 0.96817 0.24458 0.7959 0.0
C2163 C 0.96846 0.22987 0.79125 0.0
C2164 C 0.98066 0.22478 0.78368 0.0
C2165 C 0.99259 0.23429 0.78139 0.0
C2166 C 0.95534 0.25058 0.80382 0.0
C2167 C 0.98137 0.20917 0.77858 0.0
H2168 H 0.94451 0.20176 0.8255 0.0
H2169 H 0.92094 0.21144 0.78536 0.0
H2170 H 0.98021 0.21107 0.81314 0.0
H2171 H 0.97205 0.22543 0.82314 0.0
H2172 H 0.96967 0.20678 0.82889 0.0
H2173 H 0.93265 0.22171 0.76505 0.0
H2174 H 0.94183 0.23758 0.77269 0.0
H2175 H 0.95234 0.22319 0.76529 0.0
H2176 H 0.98004 0.26487 0.79753 0.0
H2177 H 1.00213 0.23032 0.77603 0.0
H2178 H 0.95441 0.24498 0.8145 0.0
H2179 H 0.94502 0.24847 0.79742 0.0
H2180 H 0.9564 0.2625 0.80583 0.0
H2181 H 0.98254 0.20185 0.78819 0.0
H2182 H 0.99073 0.20736 0.77142 0.0
H2183 H 0.97111 0.20598 0.77255 0.0
C2184 C 0.80289 0.91935 0.78867 0.0
C2185 C 0.81767 0.91817 0.79299 0.0
C2186 C 0.79736 0.93234 0.78267 0.0
C2187 C 0.80685 0.94447 0.78091 0.0
C2188 C 0.82198 0.94301 0.78425 0.0
C2189 C 0.82723 0.92987 0.79028 0.0
C2190 C 0.78116 0.93336 0.77918 0.0
C2191 C 0.83248 0.95563 0.7824 0.0
C2192 C 0.78971 0.97674 0.76061 0.0
C2193 C 0.78431 0.98472 0.77228 0.0
C2194 C 0.79779 0.96393 0.7632 0.0
C2195 C 0.8005 0.9591 0.77775 0.0
C2196 C 0.79582 0.96765 0.78952 0.0
C2197 C 0.7878 0.98031 0.78663 0.0
C2198 C 0.80272 0.95519 0.75037 0.0
C2199 C 0.79854 0.96302 0.80521 0.0
H2200 H 0.79551 0.91024 0.79044 0.0
H2201 H 0.83867 0.92904 0.79359 0.0
H2202 H 0.77613 0.94072 0.78715 0.0
H2203 H 0.77917 0.93809 0.76814 0.0
H2204 H 0.77557 0.92256 0.77962 0.0
H2205 H 0.84404 0.95207 0.78303 0.0
H2206 H 0.83034 0.96117 0.77178 0.0
H2207 H 0.83092 0.96377 0.79115 0.0
H2208 H 0.78704 0.98009 0.74949 0.0
H2209 H 0.78383 0.98653 0.79571 0.0
H2210 H 0.79583 0.9452 0.74914 0.0
H2211 H 0.81419 0.95165 0.75219 0.0
H2212 H 0.80186 0.96147 0.74 0.0
H2213 H 0.79236 0.95279 0.80733 0.0
H2214 H 0.79514 0.97143 0.81309 0.0
H2215 H 0.81029 0.96074 0.80733 0.0
C2216 C 0.20685 0.08849 0.20394 0.0
C2217 C 0.21411 0.102 0.20304 0.0
C2218 C 0.21329 0.07671 0.21142 0.0
C2219 C 0.22731 0.07849 0.21827 0.0
C2220 C 0.23511 0.09177 0.21652 0.0
C2221 C 0.22842 0.10338 0.2089 0.0
C2222 C 0.20463 0.0627 0.21289 0.0
C2223 C 0.25007 0.09413 0.22363 0.0
C2224 C 0.23185 0.05767 0.25382 0.0
C2225 C 0.23995 0.04552 0.24977 0.0
C2226 C 0.22816 0.06864 0.24377 0.0
C2227 C 0.23257 0.06747 0.22918 0.0
C2228 C 0.24117 0.05547 0.22506 0.0
C2229 C 0.24483 0.04462 0.23546 0.0
C2230 C 0.21911 0.0813 0.24872 0.0
C2231 C 0.24608 0.05387 0.2096 0.0
H2232 H 0.19589 0.08729 0.19919 0.0
H2233 H 0.23408 0.1138 0.20826 0.0
H2234 H 0.21154 0.05314 0.21072 0.0
H2235 H 0.20089 0.06167 0.22424 0.0
H2236 H 0.19488 0.06233 0.20531 0.0
H2237 H 0.25564 0.10396 0.21928 0.0
H2238 H 0.24901 0.09556 0.23558 0.0
H2239 H 0.25707 0.08451 0.222 0.0
H2240 H 0.22821 0.05857 0.26491 0.0
H2241 H 0.25109 0.03526 0.23227 0.0
H2242 H 0.20835 0.08117 0.24275 0.0
H2243 H 0.22462 0.09179 0.24617 0.0
H2244 H 0.21721 0.08096 0.26063 0.0
H2245 H 0.23643 0.05177 0.20219 0.0
H2246 H 0.25386 0.04476 0.20849 0.0
H2247 H 0.25134 0.06412 0.2059 0.0
C2248 C 0.20842 0.91496 0.82016 0.0
C2249 C 0.21509 0.90141 0.82253 0.0
C2250 C 0.21667 0.92737 0.81648 0.0
C2251 C 0.23196 0.92622 0.81503 0.0
C2252 C 0.23875 0.91257 0.81736 0.0
C2253 C 0.23025 0.90036 0.8211 0.0
C2254 C 0.20902 0.94174 0.81416 0.0
C2255 C 0.255 0.91083 0.8158 0.0
C2256 C 0.25118 0.95469 0.79208 0.0
C2257 C 0.25761 0.9639 0.80279 0.0
C2258 C 0.24286 0.9424 0.79591 0.0
C2259 C 0.24083 0.93923 0.81084 0.0
C2260 C 0.24733 0.94845 0.82172 0.0
C2261 C 0.25569 0.96064 0.81756 0.0
C2262 C 0.23627 0.93277 0.78397 0.0
C2263 C 0.24536 0.9455 0.83775 0.0
H2264 H 0.19674 0.91591 0.82141 0.0
H2265 H 0.23547 0.8899 0.82273 0.0
H2266 H 0.2138 0.95006 0.82178 0.0
H2267 H 0.21068 0.94574 0.80289 0.0
H2268 H 0.1971 0.94087 0.81588 0.0
H2269 H 0.25863 0.8995 0.81808 0.0
H2270 H 0.25804 0.91381 0.80455 0.0
H2271 H 0.26107 0.91834 0.8234 0.0
H2272 H 0.25283 0.95697 0.78065 0.0
H2273 H 0.2605 0.96778 0.82588 0.0
H2274 H 0.22421 0.93231 0.78476 0.0
H2275 H 0.24031 0.92146 0.78531 0.0
H2276 H 0.23892 0.9367 0.77289 0.0
H2277 H 0.23357 0.9455 0.84013 0.0
H2278 H 0.25109 0.95372 0.84486 0.0
H2279 H 0.24957 0.93453 0.84065 0.0
C2280 C 0.13347 0.21575 0.82216 0.0
C2281 C 0.13338 0.20674 0.83454 0.0
C2282 C 0.12129 0.22424 0.81815 0.0
C2283 C 0.10864 0.22355 0.82659 0.0
C2284 C 0.10842 0.21432 0.83899 0.0
C2285 C 0.12083 0.20611 0.84288 0.0
C2286 C 0.12202 0.23408 0.80495 0.0
C2287 C 0.09508 0.21308 0.84815 0.0
C2288 C 0.08172 0.2549 0.82424 0.0
C2289 C 0.07112 0.24949 0.81416 0.0
C2290 C 0.094 0.24659 0.82836 0.0
C2291 C 0.09561 0.23245 0.82243 0.0
C2292 C 0.08481 0.22685 0.81243 0.0
C2293 C 0.07276 0.23548 0.80835 0.0
C2294 C 0.10538 0.25304 0.8389 0.0
C2295 C 0.08597 0.21174 0.80604 0.0
H2296 H 0.14321 0.21639 0.81579 0.0
H2297 H 0.12068 0.19905 0.85238 0.0
H2298 H 0.11324 0.23106 0.79681 0.0
H2299 H 0.12017 0.24556 0.80821 0.0
H2300 H 0.13271 0.23348 0.79964 0.0
H2301 H 0.09658 0.20522 0.8573 0.0
H2302 H 0.09247 0.22391 0.85274 0.0
H2303 H 0.0855 0.20952 0.84123 0.0
H2304 H 0.08057 0.26578 0.82863 0.0
H2305 H 0.06449 0.2312 0.8007 0.0
H2306 H 0.11612 0.25357 0.83367 0.0
H2307 H 0.10668 0.24595 0.84867 0.0
H2308 H 0.10252 0.26418 0.84251 0.0
H2309 H 0.09607 0.21097 0.79975 0.0
H2310 H 0.07646 0.20887 0.79869 0.0
H2311 H 0.08678 0.20354 0.81494 0.0
C2312 C 0.80465 0.12545 0.80675 0.0
C2313 C 0.81993 0.12439 0.80787 0.0
C2314 C 0.79587 0.11344 0.80248 0.0
C2315 C 0.80252 0.10004 0.79915 0.0
C2316 C 0.81794 0.09899 0.79987 0.0
C2317 C 0.82647 0.11117 0.80423 0.0
C2318 C 0.77946 0.11502 0.8018 0.0
C2319 C 0.82544 0.08489 0.79635 0.0
C2320 C 0.78005 0.06518 0.80286 0.0
C2321 C 0.77579 0.06218 0.78829 0.0
C2322 C 0.78872 0.07747 0.80653 0.0
C2323 C 0.7933 0.08699 0.79537 0.0
C2324 C 0.78899 0.0841 0.78065 0.0
C2325 C 0.78027 0.07176 0.7773 0.0
C2326 C 0.79304 0.08021 0.82237 0.0
C2327 C 0.79363 0.09401 0.76844 0.0
H2328 H 0.79952 0.1357 0.8093 0.0
H2329 H 0.83824 0.11021 0.80521 0.0
H2330 H 0.77501 0.11198 0.79078 0.0
H2331 H 0.77449 0.10746 0.80973 0.0
H2332 H 0.77603 0.12631 0.80428 0.0
H2333 H 0.83753 0.08605 0.79679 0.0
H2334 H 0.82228 0.07631 0.80423 0.0
H2335 H 0.82186 0.08105 0.78529 0.0
H2336 H 0.77684 0.05778 0.81141 0.0
H2337 H 0.77686 0.0697 0.76604 0.0
H2338 H 0.7892 0.09109 0.82575 0.0
H2339 H 0.80512 0.08028 0.82382 0.0
H2340 H 0.78847 0.07183 0.82976 0.0
H2341 H 0.78963 0.10522 0.77026 0.0
H2342 H 0.78941 0.09019 0.75755 0.0
H2343 H 0.80572 0.09468 0.76832 0.0
C2344 C 0.90207 0.79922 0.8144 0.0
C2345 C 0.9033 0.81447 0.81525 0.0
C2346 C 0.91381 0.7907 0.81004 0.0
C2347 C 0.92714 0.79759 0.80649 0.0
C2348 C 0.9285 0.81297 0.80745 0.0
C2349 C 0.91656 0.82122 0.81178 0.0
C2350 C 0.91189 0.77434 0.80905 0.0
C2351 C 0.94256 0.82073 0.80387 0.0
C2352 C 0.96202 0.77531 0.80702 0.0
C2353 C 0.96379 0.77276 0.79209 0.0
C2354 C 0.95009 0.78327 0.81188 0.0
C2355 C 0.93963 0.78874 0.80157 0.0
C2356 C 0.94122 0.78598 0.7865 0.0
C2357 C 0.95329 0.77807 0.78195 0.0
C2358 C 0.94883 0.78605 0.82803 0.0
C2359 C 0.93024 0.79149 0.77516 0.0
H2360 H 0.89181 0.79394 0.8169 0.0
H2361 H 0.91765 0.83299 0.81259 0.0
H2362 H 0.91351 0.77068 0.79769 0.0
H2363 H 0.92026 0.76889 0.81614 0.0
H2364 H 0.9009 0.77065 0.81236 0.0
H2365 H 0.94192 0.83273 0.8054 0.0
H2366 H 0.95169 0.81654 0.8109 0.0
H2367 H 0.94524 0.81851 0.79237 0.0
H2368 H 0.97016 0.77139 0.81489 0.0
H2369 H 0.95447 0.77596 0.77042 0.0
H2370 H 0.93816 0.7819 0.83175 0.0
H2371 H 0.94923 0.79796 0.83018 0.0
H2372 H 0.9577 0.78079 0.83466 0.0
H2373 H 0.91915 0.78738 0.77758 0.0
H2374 H 0.93285 0.78808 0.76392 0.0
H2375 H 0.92991 0.80359 0.77552 0.0
C2376 C 0.82876 0.92869 0.22141 0.0
C2377 C 0.81933 0.92017 0.21236 0.0
C2378 C 0.82372 0.9411 0.22867 0.0
C2379 C 0.8089 0.94519 0.22681 0.0
C2380 C 0.79935 0.93669 0.21765 0.0
C2381 C 0.80464 0.9243 0.21062 0.0
C2382 C 0.83424 0.94983 0.23835 0.0
C2383 C 0.78346 0.94063 0.21535 0.0
C2384 C 0.78966 0.96859 0.25441 0.0
C2385 C 0.7889 0.98212 0.24724 0.0
C2386 C 0.79676 0.95667 0.24823 0.0
C2387 C 0.80322 0.95826 0.23448 0.0
C2388 C 0.80317 0.97209 0.22756 0.0
C2389 C 0.79607 0.98385 0.23403 0.0
C2390 C 0.7967 0.94218 0.25608 0.0
C2391 C 0.8099 0.97428 0.2129 0.0
H2392 H 0.84015 0.92575 0.22271 0.0
H2393 H 0.79717 0.9177 0.2039 0.0
H2394 H 0.83489 0.96125 0.23438 0.0
H2395 H 0.83024 0.9502 0.24964 0.0
H2396 H 0.84541 0.9452 0.23872 0.0
H2397 H 0.77753 0.93309 0.20766 0.0
H2398 H 0.77795 0.9404 0.22594 0.0
H2399 H 0.78256 0.9519 0.21099 0.0
H2400 H 0.78423 0.96711 0.26464 0.0
H2401 H 0.79555 0.99423 0.22836 0.0
H2402 H 0.80788 0.93762 0.25678 0.0
H2403 H 0.78965 0.93429 0.24984 0.0
H2404 H 0.79257 0.94309 0.2673 0.0
H2405 H 0.82119 0.97002 0.21309 0.0
H2406 H 0.81019 0.98594 0.20961 0.0
H2407 H 0.80348 0.96805 0.20444 0.0
C2408 C 0.09839 0.81249 0.22151 0.0
C2409 C 0.10704 0.80401 0.21249 0.0
C2410 C 0.08623 0.80647 0.22832 0.0
C2411 C 0.08247 0.79163 0.22595 0.0
C2412 C 0.09094 0.78308 0.21662 0.0
C2413 C 0.10314 0.78935 0.21003 0.0
C2414 C 0.07749 0.81597 0.23818 0.0
C2415 C 0.08721 0.76722 0.21373 0.0
C2416 C 0.05982 0.77082 0.25326 0.0
C2417 C 0.04599 0.77051 0.24616 0.0
C2418 C 0.0717 0.77802 0.247 0.0
C2419 C 0.06973 0.78501 0.23328 0.0
C2420 C 0.05567 0.78523 0.22634 0.0
C2421 C 0.04397 0.77804 0.23289 0.0
C2422 C 0.08648 0.77772 0.25484 0.0
C2423 C 0.05311 0.79254 0.21171 0.0
H2424 H 0.10113 0.82391 0.22325 0.0
H2425 H 0.10981 0.78267 0.20322 0.0
H2426 H 0.06593 0.81629 0.23415 0.0
H2427 H 0.07757 0.81127 0.24935 0.0
H2428 H 0.08183 0.82732 0.23885 0.0
H2429 H 0.09463 0.76217 0.2059 0.0
H2430 H 0.08788 0.76099 0.22412 0.0
H2431 H 0.07581 0.76616 0.20929 0.0
H2432 H 0.0615 0.76507 0.26351 0.0
H2433 H 0.03334 0.77786 0.22728 0.0
H2434 H 0.09097 0.78897 0.25608 0.0
H2435 H 0.09423 0.77149 0.24828 0.0
H2436 H 0.08601 0.77264 0.26583 0.0
H2437 H 0.05707 0.80402 0.21216 0.0
H2438 H 0.04139 0.79244 0.20814 0.0
H2439 H 0.0594 0.78687 0.20332 0.0
C2440 C 0.91935 0.21663 0.21764 0.0
C2441 C 0.91881 0.21536 0.20237 0.0
C2442 C 0.93218 0.22118 0.22525 0.0
C2443 C 0.94487 0.22451 0.21743 0.0
C2444 C 0.94431 0.22363 0.20198 0.0
C2445 C 0.93129 0.21909 0.19463 0.0
C2446 C 0.93227 0.22205 0.24172 0.0
C2447 C 0.9576 0.22701 0.19324 0.0
C2448 C 0.97536 0.24472 0.23883 0.0
C2449 C 0.98387 0.23307 0.24402 0.0
C2450 C 0.96288 0.24221 0.22967 0.0
C2451 C 0.95896 0.22773 0.22556 0.0
C2452 C 0.96801 0.21605 0.23014 0.0
C2453 C 0.98029 0.21886 0.23932 0.0
C2454 C 0.95352 0.25495 0.225 0.0
C2455 C 0.96435 0.20047 0.2259 0.0
H2456 H 0.90969 0.21403 0.22368 0.0
H2457 H 0.93101 0.21803 0.18284 0.0
H2458 H 0.93991 0.21386 0.24648 0.0
H2459 H 0.93623 0.23296 0.24545 0.0
H2460 H 0.92128 0.22001 0.2461 0.0
H2461 H 0.95505 0.22701 0.18129 0.0
H2462 H 0.9623 0.23781 0.19641 0.0
H2463 H 0.96612 0.21875 0.19564 0.0
H2464 H 0.97802 0.25572 0.24246 0.0
H2465 H 0.9869 0.2098 0.24318 0.0
H2466 H 0.94292 0.25425 0.23047 0.0
H2467 H 0.95111 0.2546 0.21305 0.0
H2468 H 0.95882 0.26559 0.22782 0.0
H2469 H 0.95407 0.19701 0.23101 0.0
H2470 H 0.97311 0.1928 0.22938 0.0
H2471 H 0.96253 0.19958 0.21389 0.0
C2472 C 0.19104 0.7275 0.59045 0.0
C2473 C 0.20112 0.72463 0.60198 0.0
C2474 C 0.19571 0.73278 0.57694 0.0
C2475 C 0.21081 0.73518 0.5749 0.0
C2476 C 0.22089 0.73328 0.58683 0.0
C2477 C 0.21592 0.72807 0.6002 0.0
C2478 C 0.1846 0.73487 0.56457 0.0
C2479 C 0.23708 0.7358 0.58521 0.0
C2480 C 0.22796 0.72682 0.53897 0.0
C2481 C 0.23199 0.74074 0.53405 0.0
C2482 C 0.22024 0.72498 0.55176 0.0
C2483 C 0.21643 0.73737 0.55995 0.0
C2484 C 0.21954 0.75153 0.55451 0.0
C2485 C 0.22731 0.75306 0.54156 0.0
C2486 C 0.21708 0.70967 0.55703 0.0
C2487 C 0.21553 0.76502 0.56282 0.0
H2488 H 0.17958 0.72489 0.59172 0.0
H2489 H 0.22373 0.72623 0.60917 0.0
H2490 H 0.18681 0.74514 0.55859 0.0
H2491 H 0.18534 0.72575 0.55668 0.0
H2492 H 0.17327 0.7351 0.56852 0.0
H2493 H 0.24325 0.73533 0.59586 0.0
H2494 H 0.24141 0.72733 0.57792 0.0
H2495 H 0.23915 0.74656 0.5801 0.0
H2496 H 0.23143 0.71726 0.5331 0.0
H2497 H 0.23046 0.76384 0.53783 0.0
H2498 H 0.20541 0.70847 0.55971 0.0
H2499 H 0.2237 0.70748 0.56717 0.0
H2500 H 0.21965 0.70127 0.54879 0.0
H2501 H 0.20437 0.76393 0.56706 0.0
H2502 H 0.21608 0.77497 0.55593 0.0
H2503 H 0.22323 0.76647 0.57236 0.0
C2504 C 0.80313 0.74289 0.59057 0.0
C2505 C 0.80573 0.72793 0.59234 0.0
C2506 C 0.79628 0.7483 0.57775 0.0
C2507 C 0.79195 0.73853 0.56636 0.0
C2508 C 0.79418 0.72338 0.56823 0.0
C2509 C 0.80104 0.71827 0.58118 0.0
C2510 C 0.79406 0.76454 0.57622 0.0
C2511 C 0.7898 0.71263 0.55633 0.0
C2512 C 0.76694 0.75466 0.53646 0.0
C2513 C 0.77723 0.75972 0.52664 0.0
C2514 C 0.77144 0.74707 0.54921 0.0
C2515 C 0.78653 0.74443 0.55201 0.0
C2516 C 0.79676 0.74862 0.54154 0.0
C2517 C 0.79199 0.75627 0.52905 0.0
C2518 C 0.76021 0.74273 0.56009 0.0
C2519 C 0.8129 0.74586 0.54394 0.0
H2520 H 0.80648 0.75039 0.59923 0.0
H2521 H 0.80311 0.7067 0.58241 0.0
H2522 H 0.80086 0.76886 0.56737 0.0
H2523 H 0.78249 0.76683 0.57312 0.0
H2524 H 0.79704 0.77053 0.58646 0.0
H2525 H 0.79089 0.70114 0.56005 0.0
H2526 H 0.77834 0.71444 0.55249 0.0
H2527 H 0.79681 0.71431 0.54683 0.0
H2528 H 0.75554 0.75745 0.53467 0.0
H2529 H 0.79996 0.7601 0.52141 0.0
H2530 H 0.76144 0.74984 0.56987 0.0
H2531 H 0.76189 0.73132 0.56378 0.0
H2532 H 0.74888 0.74376 0.55549 0.0
H2533 H 0.81725 0.7526 0.55321 0.0
H2534 H 0.81922 0.74856 0.53414 0.0
H2535 H 0.8148 0.73427 0.54683 0.0
C2536 C 0.82858 0.33307 0.61473 0.0
C2537 C 0.83335 0.32572 0.62745 0.0
C2538 C 0.82386 0.32534 0.60211 0.0
C2539 C 0.8239 0.30988 0.60219 0.0
C2540 C 0.82846 0.3024 0.61507 0.0
C2541 C 0.83311 0.31039 0.62751 0.0
C2542 C 0.81907 0.33373 0.58862 0.0
C2543 C 0.8286 0.28594 0.61566 0.0
C2544 C 0.80072 0.28914 0.57351 0.0
C2545 C 0.81112 0.28534 0.56331 0.0
C2546 C 0.80469 0.29716 0.58615 0.0
C2547 C 0.81945 0.3015 0.58873 0.0
C2548 C 0.83001 0.29769 0.57851 0.0
C2549 C 0.82573 0.28968 0.56596 0.0
C2550 C 0.79309 0.30094 0.59679 0.0
C2551 C 0.84586 0.30212 0.58083 0.0
H2552 H 0.82887 0.34489 0.6145 0.0
H2553 H 0.83653 0.3046 0.63735 0.0
H2554 H 0.82636 0.33123 0.57955 0.0
H2555 H 0.80784 0.33034 0.58503 0.0
H2556 H 0.81925 0.34571 0.59046 0.0
H2557 H 0.83217 0.28177 0.62659 0.0
H2558 H 0.81753 0.28149 0.61288 0.0
H2559 H 0.83607 0.28168 0.60743 0.0
H2560 H 0.78945 0.28569 0.57171 0.0
H2561 H 0.83383 0.287 0.55809 0.0
H2562 H 0.79265 0.31294 0.59822 0.0
H2563 H 0.79587 0.29616 0.60765 0.0
H2564 H 0.78208 0.29689 0.59312 0.0
H2565 H 0.84684 0.31417 0.58163 0.0
H2566 H 0.85272 0.29833 0.57185 0.0
H2567 H 0.85026 0.29753 0.59128 0.0
C2568 C 0.23664 0.33147 0.62291 0.0
C2569 C 0.22135 0.33022 0.62312 0.0
C2570 C 0.24432 0.32702 0.61071 0.0
C2571 C 0.23655 0.32111 0.59841 0.0
C2572 C 0.22115 0.31965 0.5986 0.0
C2573 C 0.21374 0.32424 0.61093 0.0
C2574 C 0.26075 0.32874 0.61096 0.0
C2575 C 0.21247 0.31338 0.5857 0.0
C2576 C 0.25432 0.32225 0.5615 0.0
C2577 C 0.25938 0.30793 0.56019 0.0
C2578 C 0.24695 0.3267 0.5739 0.0
C2579 C 0.24453 0.31659 0.58529 0.0
C2580 C 0.24969 0.30216 0.5841 0.0
C2581 C 0.25707 0.29802 0.5716 0.0
C2582 C 0.24164 0.34221 0.57477 0.0
C2583 C 0.24737 0.29105 0.59601 0.0
H2584 H 0.24265 0.33586 0.63236 0.0
H2585 H 0.20192 0.32341 0.6109 0.0
H2586 H 0.26588 0.31799 0.60929 0.0
H2587 H 0.26403 0.33593 0.60186 0.0
H2588 H 0.26517 0.33345 0.6214 0.0
H2589 H 0.20059 0.31269 0.58769 0.0
H2590 H 0.2141 0.32024 0.57589 0.0
H2591 H 0.21641 0.30229 0.58318 0.0
H2592 H 0.25586 0.32995 0.55271 0.0
H2593 H 0.26113 0.28701 0.57082 0.0
H2594 H 0.24635 0.34757 0.58475 0.0
H2595 H 0.22958 0.34224 0.5756 0.0
H2596 H 0.2446 0.3488 0.56511 0.0
H2597 H 0.25241 0.29503 0.60648 0.0
H2598 H 0.2521 0.28028 0.59344 0.0
H2599 H 0.23551 0.28955 0.59768 0.0
C2600 C 0.20315 0.31247 0.43571 0.0
C2601 C 0.20149 0.30448 0.42269 0.0
C2602 C 0.21095 0.30682 0.44788 0.0
C2603 C 0.21734 0.29286 0.447 0.0
C2604 C 0.21484 0.28433 0.43424 0.0
C2605 C 0.20691 0.29023 0.42223 0.0
C2606 C 0.21321 0.31625 0.4613 0.0
C2607 C 0.22143 0.26941 0.43283 0.0
C2608 C 0.25342 0.29024 0.46828 0.0
C2609 C 0.24951 0.28289 0.48102 0.0
C2610 C 0.24316 0.29298 0.45695 0.0
C2611 C 0.22848 0.28837 0.45837 0.0
C2612 C 0.22451 0.28045 0.47096 0.0
C2613 C 0.23512 0.27773 0.48216 0.0
C2614 C 0.24797 0.30131 0.44367 0.0
C2615 C 0.20897 0.27536 0.47285 0.0
H2616 H 0.19876 0.32339 0.43621 0.0
H2617 H 0.20568 0.28401 0.41219 0.0
H2618 H 0.21115 0.30986 0.47132 0.0
H2619 H 0.22473 0.32015 0.46208 0.0
H2620 H 0.20598 0.32591 0.46103 0.0
H2621 H 0.21655 0.26326 0.42338 0.0
H2622 H 0.23335 0.27059 0.4313 0.0
H2623 H 0.21997 0.26293 0.44292 0.0
H2624 H 0.26457 0.29409 0.46722 0.0
H2625 H 0.23203 0.27205 0.49198 0.0
H2626 H 0.24238 0.31199 0.44307 0.0
H2627 H 0.24484 0.2952 0.43356 0.0
H2628 H 0.25995 0.30334 0.44387 0.0
H2629 H 0.20191 0.28495 0.47443 0.0
H2630 H 0.20797 0.26798 0.48241 0.0
H2631 H 0.20474 0.26959 0.4629 0.0
C2632 C 0.20676 0.69576 0.40144 0.0
C2633 C 0.21399 0.68525 0.39325 0.0
C2634 C 0.213 0.70144 0.41453 0.0
C2635 C 0.22709 0.69692 0.4194 0.0
C2636 C 0.23461 0.68658 0.4111 0.0
C2637 C 0.2279 0.6807 0.39833 0.0
C2638 C 0.20446 0.71219 0.42322 0.0
C2639 C 0.24978 0.68171 0.41571 0.0
C2640 C 0.24826 0.72166 0.44633 0.0
C2641 C 0.24694 0.71403 0.45948 0.0
C2642 C 0.24205 0.71613 0.43317 0.0
C2643 C 0.2339 0.70289 0.43326 0.0
C2644 C 0.23232 0.69529 0.44661 0.0
C2645 C 0.23907 0.70083 0.45951 0.0
C2646 C 0.2444 0.72434 0.41913 0.0
C2647 C 0.22336 0.68139 0.44731 0.0
H2648 H 0.1962 0.6997 0.39761 0.0
H2649 H 0.23357 0.67238 0.39244 0.0
H2650 H 0.20328 0.70811 0.43453 0.0
H2651 H 0.21043 0.72277 0.42399 0.0
H2652 H 0.1934 0.71414 0.41828 0.0
H2653 H 0.25453 0.67429 0.4076 0.0
H2654 H 0.25714 0.69133 0.41723 0.0
H2655 H 0.2495 0.67596 0.42636 0.0
H2656 H 0.25446 0.7318 0.44633 0.0
H2657 H 0.23794 0.69504 0.46974 0.0
H2658 H 0.23375 0.72767 0.41413 0.0
H2659 H 0.24967 0.71714 0.41118 0.0
H2660 H 0.25135 0.73425 0.42086 0.0
H2661 H 0.2121 0.68336 0.44293 0.0
H2662 H 0.22274 0.67712 0.45863 0.0
H2663 H 0.22815 0.67289 0.44039 0.0
C2664 C 0.8147 0.72073 0.40868 0.0
C2665 C 0.81866 0.7271 0.39545 0.0
C2666 C 0.80987 0.72934 0.42021 0.0
C2667 C 0.80894 0.74466 0.41843 0.0
C2668 C 0.81269 0.75111 0.40502 0.0
C2669 C 0.81751 0.74226 0.3937 0.0
C2670 C 0.80596 0.72206 0.43437 0.0
C2671 C 0.81172 0.76739 0.40264 0.0
C2672 C 0.78444 0.76576 0.4433 0.0
C2673 C 0.79456 0.77164 0.45363 0.0
C2674 C 0.78897 0.75698 0.4318 0.0
C2675 C 0.80399 0.75397 0.43058 0.0
C2676 C 0.81429 0.75998 0.44088 0.0
C2677 C 0.80945 0.76878 0.45226 0.0
C2678 C 0.77765 0.75089 0.42098 0.0
C2679 C 0.83041 0.757 0.43995 0.0
H2680 H 0.81571 0.70904 0.41014 0.0
H2681 H 0.82035 0.74722 0.38342 0.0
H2682 H 0.81309 0.72638 0.44345 0.0
H2683 H 0.79453 0.72461 0.43696 0.0
H2684 H 0.80713 0.71002 0.43394 0.0
H2685 H 0.81492 0.77067 0.39151 0.0
H2686 H 0.8004 0.77107 0.4043 0.0
H2687 H 0.81894 0.77319 0.41076 0.0
H2688 H 0.77294 0.76812 0.44415 0.0
H2689 H 0.8173 0.77315 0.46029 0.0
H2690 H 0.77803 0.7388 0.42099 0.0
H2691 H 0.78009 0.7546 0.40978 0.0
H2692 H 0.7664 0.75428 0.42345 0.0
H2693 H 0.83234 0.74509 0.44064 0.0
H2694 H 0.83701 0.76252 0.44878 0.0
H2695 H 0.83436 0.76076 0.42925 0.0
C2696 C 0.82237 0.33108 0.43619 0.0
C2697 C 0.81473 0.33183 0.42267 0.0
C2698 C 0.81596 0.32481 0.44843 0.0
C2699 C 0.80156 0.31903 0.44713 0.0
C2700 C 0.79343 0.32067 0.43378 0.0
C2701 C 0.80011 0.32708 0.4217 0.0
C2702 C 0.82501 0.32345 0.46247 0.0
C2703 C 0.77806 0.31468 0.43191 0.0
C2704 C 0.79651 0.28534 0.47038 0.0
C2705 C 0.78943 0.29081 0.48251 0.0
C2706 C 0.79984 0.29429 0.45855 0.0
C2707 C 0.79614 0.30923 0.45883 0.0
C2708 C 0.78839 0.31475 0.47074 0.0
C2709 C 0.78503 0.30542 0.48246 0.0
C2710 C 0.80791 0.28784 0.44601 0.0
C2711 C 0.78424 0.3306 0.47142 0.0
H2712 H 0.83359 0.33499 0.43707 0.0
H2713 H 0.79414 0.32762 0.41128 0.0
H2714 H 0.81861 0.32681 0.47193 0.0
H2715 H 0.82806 0.31187 0.46417 0.0
H2716 H 0.83518 0.33015 0.46232 0.0
H2717 H 0.7724 0.31897 0.4219 0.0
H2718 H 0.77841 0.30261 0.43108 0.0
H2719 H 0.77155 0.31737 0.44151 0.0
H2720 H 0.79973 0.27399 0.47023 0.0
H2721 H 0.77955 0.30968 0.49182 0.0
H2722 H 0.81899 0.29281 0.44564 0.0
H2723 H 0.80211 0.29029 0.43547 0.0
H2724 H 0.80906 0.27582 0.44699 0.0
H2725 H 0.79423 0.3374 0.47329 0.0
H2726 H 0.77666 0.33276 0.48035 0.0
H2727 H 0.77903 0.33413 0.4609 0.0
C2728 C 0.10337 0.71123 0.69747 0.0
C2729 C 0.11623 0.70711 0.70511 0.0
C2730 C 0.0908 0.71502 0.7049 0.0
C2731 C 0.09105 0.71469 0.72037 0.0
C2732 C 0.10399 0.71059 0.72816 0.0
C2733 C 0.11641 0.70687 0.72045 0.0
C2734 C 0.07721 0.71932 0.69618 0.0
C2735 C 0.10473 0.71015 0.74465 0.0
C2736 C 0.06268 0.73695 0.73966 0.0
C2737 C 0.05217 0.72629 0.74294 0.0
C2738 C 0.07542 0.73332 0.73244 0.0
C2739 C 0.07776 0.71865 0.72838 0.0
C2740 C 0.06729 0.70779 0.73182 0.0
C2741 C 0.05464 0.71174 0.73905 0.0
C2742 C 0.08634 0.74521 0.72906 0.0
C2743 C 0.06937 0.69203 0.72768 0.0
H2744 H 0.10305 0.71127 0.68562 0.0
H2745 H 0.12635 0.7039 0.72646 0.0
H2746 H 0.06805 0.71179 0.69868 0.0
H2747 H 0.07388 0.73046 0.69931 0.0
H2748 H 0.07882 0.71912 0.68422 0.0
H2749 H 0.11561 0.7067 0.74907 0.0
H2750 H 0.10234 0.72109 0.7491 0.0
H2751 H 0.09631 0.70248 0.74866 0.0
H2752 H 0.06101 0.74817 0.74283 0.0
H2753 H 0.04653 0.70346 0.74139 0.0
H2754 H 0.0876 0.74597 0.71707 0.0
H2755 H 0.09721 0.74255 0.73403 0.0
H2756 H 0.08302 0.75605 0.73315 0.0
H2757 H 0.06993 0.69105 0.71564 0.0
H2758 H 0.06038 0.68486 0.73142 0.0
H2759 H 0.07987 0.68801 0.73249 0.0
C2760 C 0.79321 0.63572 0.68942 0.0
C2761 C 0.80851 0.63693 0.6894 0.0
C2762 C 0.7863 0.62303 0.69444 0.0
C2763 C 0.79487 0.61124 0.69966 0.0
C2764 C 0.81031 0.61252 0.70003 0.0
C2765 C 0.81695 0.62534 0.69489 0.0
C2766 C 0.76981 0.62213 0.69392 0.0
C2767 C 0.81982 0.60021 0.70557 0.0
C2768 C 0.77704 0.58248 0.72332 0.0
C2769 C 0.77411 0.57117 0.71325 0.0
C2770 C 0.7838 0.59556 0.71907 0.0
C2771 C 0.78767 0.59745 0.70436 0.0
C2772 C 0.78458 0.58618 0.69409 0.0
C2773 C 0.77785 0.57319 0.69866 0.0
C2774 C 0.78685 0.60733 0.73034 0.0
C2775 C 0.7885 0.5878 0.67829 0.0
H2776 H 0.7866 0.64473 0.68544 0.0
H2777 H 0.82876 0.62613 0.69478 0.0
H2778 H 0.76606 0.61309 0.68661 0.0
H2779 H 0.76579 0.61968 0.70495 0.0
H2780 H 0.76473 0.6324 0.68993 0.0
H2781 H 0.83163 0.60314 0.7057 0.0
H2782 H 0.81684 0.59711 0.7168 0.0
H2783 H 0.81799 0.59045 0.69855 0.0
H2784 H 0.77399 0.58113 0.73456 0.0
H2785 H 0.7758 0.56449 0.69084 0.0
H2786 H 0.7813 0.61754 0.72694 0.0
H2787 H 0.79874 0.60977 0.73117 0.0
H2788 H 0.78312 0.60416 0.74132 0.0
H2789 H 0.7831 0.59754 0.67346 0.0
H2790 H 0.78522 0.57809 0.67165 0.0
H2791 H 0.80046 0.58952 0.67756 0.0
C2792 C 0.9272 0.32605 0.73419 0.0
C2793 C 0.92705 0.33982 0.72751 0.0
C2794 C 0.93977 0.32099 0.74174 0.0
C2795 C 0.95256 0.32984 0.74248 0.0
C2796 C 0.95247 0.34375 0.73573 0.0
C2797 C 0.93969 0.34861 0.7284 0.0
C2798 C 0.93937 0.30616 0.74893 0.0
C2799 C 0.96594 0.35342 0.73608 0.0
C2800 C 0.98156 0.32164 0.77209 0.0
C2801 C 0.99127 0.31298 0.76449 0.0
C2802 C 0.96895 0.32729 0.76505 0.0
C2803 C 0.96611 0.32437 0.75002 0.0
C2804 C 0.97608 0.31594 0.74222 0.0
C2805 C 0.98848 0.31028 0.74957 0.0
C2806 C 0.9585 0.33609 0.77378 0.0
C2807 C 0.97358 0.31277 0.72614 0.0
H2808 H 0.9174 0.3193 0.73367 0.0
H2809 H 0.93965 0.3592 0.72313 0.0
H2810 H 0.94754 0.29896 0.74407 0.0
H2811 H 0.94232 0.30719 0.76074 0.0
H2812 H 0.92844 0.30082 0.74772 0.0
H2813 H 0.96404 0.36398 0.73041 0.0
H2814 H 0.96957 0.35567 0.74756 0.0
H2815 H 0.97501 0.34776 0.73081 0.0
H2816 H 0.98361 0.32361 0.78364 0.0
H2817 H 0.99607 0.30377 0.74363 0.0
H2818 H 0.94768 0.33053 0.77373 0.0
H2819 H 0.95687 0.34697 0.76869 0.0
H2820 H 0.96244 0.33764 0.78529 0.0
H2821 H 0.9633 0.3064 0.72437 0.0
H2822 H 0.98268 0.30652 0.72155 0.0
H2823 H 0.97234 0.32313 0.71996 0.0
C2824 C 0.20185 0.4327 0.7231 0.0
C2825 C 0.21081 0.42058 0.72114 0.0
C2826 C 0.20779 0.44614 0.72797 0.0
C2827 C 0.22304 0.44747 0.73092 0.0
C2828 C 0.23196 0.43502 0.72986 0.0
C2829 C 0.22574 0.42175 0.725 0.0
C2830 C 0.19789 0.45911 0.72909 0.0
C2831 C 0.24825 0.43591 0.73299 0.0
C2832 C 0.24339 0.4826 0.72294 0.0
C2833 C 0.24717 0.48778 0.737 0.0
C2834 C 0.23491 0.46991 0.72086 0.0
C2835 C 0.23004 0.46211 0.73315 0.0
C2836 C 0.23309 0.46771 0.74738 0.0
C2837 C 0.24163 0.48052 0.74915 0.0
C2838 C 0.23185 0.46442 0.70549 0.0
C2839 C 0.228 0.45978 0.76074 0.0
H2840 H 0.1903 0.43189 0.72012 0.0
H2841 H 0.23267 0.41235 0.72382 0.0
H2842 H 0.20033 0.4652 0.73937 0.0
H2843 H 0.1998 0.46669 0.71989 0.0
H2844 H 0.18616 0.45583 0.72869 0.0
H2845 H 0.25339 0.42498 0.73307 0.0
H2846 H 0.25341 0.44269 0.72451 0.0
H2847 H 0.25065 0.44123 0.74369 0.0
H2848 H 0.24748 0.48823 0.71348 0.0
H2849 H 0.24453 0.48445 0.76004 0.0
H2850 H 0.22 0.46222 0.70362 0.0
H2851 H 0.23762 0.45398 0.70392 0.0
H2852 H 0.23547 0.4723 0.6971 0.0
H2853 H 0.21635 0.45647 0.75929 0.0
H2854 H 0.22933 0.46657 0.77076 0.0
H2855 H 0.23443 0.44969 0.76238 0.0
C2856 C 0.10861 0.29677 0.31557 0.0
C2857 C 0.11062 0.31178 0.31801 0.0
C2858 C 0.09539 0.29117 0.30957 0.0
C2859 C 0.08382 0.30079 0.3059 0.0
C2860 C 0.08601 0.31602 0.30769 0.0
C2861 C 0.09938 0.32134 0.31373 0.0
C2862 C 0.09358 0.27486 0.30776 0.0
C2863 C 0.07399 0.32664 0.30389 0.0
C2864 C 0.05221 0.28362 0.28347 0.0
C2865 C 0.04304 0.27897 0.29455 0.0
C2866 C 0.06524 0.29143 0.28687 0.0
C2867 C 0.06909 0.29468 0.30166 0.0
C2868 C 0.05936 0.29082 0.31273 0.0
C2869 C 0.04651 0.28301 0.30904 0.0
C2870 C 0.07527 0.29543 0.27475 0.0
C2871 C 0.06292 0.29418 0.32862 0.0
H2872 H 0.11734 0.28934 0.31857 0.0
H2873 H 0.10081 0.33294 0.31563 0.0
H2874 H 0.08529 0.27072 0.31533 0.0
H2875 H 0.08958 0.27221 0.29649 0.0
H2876 H 0.10395 0.26897 0.31005 0.0
H2877 H 0.07796 0.33814 0.30419 0.0
H2878 H 0.06915 0.32429 0.29285 0.0
H2879 H 0.06514 0.32542 0.31177 0.0
H2880 H 0.04963 0.2805 0.27225 0.0
H2881 H 0.0394 0.27958 0.31765 0.0
H2882 H 0.08507 0.28842 0.27544 0.0
H2883 H 0.0791 0.30691 0.27589 0.0
H2884 H 0.06987 0.29397 0.26378 0.0
H2885 H 0.07249 0.2877 0.33244 0.0
H2886 H 0.05365 0.2916 0.33571 0.0
H2887 H 0.0659 0.30587 0.33001 0.0
C2888 C 0.20499 0.58141 0.2885 0.0
C2889 C 0.21412 0.59302 0.29323 0.0
C2890 C 0.21082 0.5684 0.28322 0.0
C2891 C 0.22616 0.56692 0.2827 0.0
C2892 C 0.2354 0.57884 0.28681 0.0
C2893 C 0.22927 0.59172 0.29202 0.0
C2894 C 0.20059 0.55597 0.27892 0.0
C2895 C 0.25182 0.57775 0.28637 0.0
C2896 C 0.24427 0.53052 0.28931 0.0
C2897 C 0.24918 0.52706 0.27543 0.0
C2898 C 0.23604 0.54303 0.29161 0.0
C2899 C 0.23269 0.55243 0.27973 0.0
C2900 C 0.23679 0.54851 0.26547 0.0
C2901 C 0.24499 0.53578 0.26346 0.0
C2902 C 0.23177 0.54665 0.30697 0.0
C2903 C 0.23333 0.55821 0.25252 0.0
H2904 H 0.19327 0.58225 0.28948 0.0
H2905 H 0.23639 0.60074 0.29537 0.0
H2906 H 0.20365 0.5512 0.26834 0.0
H2907 H 0.20146 0.54721 0.28726 0.0
H2908 H 0.18903 0.5595 0.27798 0.0
H2909 H 0.25739 0.58838 0.28864 0.0
H2910 H 0.25578 0.56972 0.29464 0.0
H2911 H 0.25505 0.57378 0.27553 0.0
H2912 H 0.24743 0.52372 0.29857 0.0
H2913 H 0.24889 0.5332 0.25274 0.0
H2914 H 0.21996 0.54917 0.30717 0.0
H2915 H 0.2379 0.55649 0.31086 0.0
H2916 H 0.2341 0.53759 0.31474 0.0
H2917 H 0.2218 0.56179 0.25254 0.0
H2918 H 0.23526 0.55264 0.242 0.0
H2919 H 0.24035 0.56815 0.25321 0.0
C2920 C 0.92483 0.72015 0.31766 0.0
C2921 C 0.91441 0.71333 0.30824 0.0
C2922 C 0.93756 0.72657 0.3123 0.0
C2923 C 0.94002 0.72611 0.29715 0.0
C2924 C 0.92966 0.7191 0.28759 0.0
C2925 C 0.91698 0.7128 0.29324 0.0
C2926 C 0.94836 0.7339 0.32285 0.0
C2927 C 0.9319 0.71834 0.27135 0.0
C2928 C 0.96579 0.75327 0.27958 0.0
C2929 C 0.97815 0.7447 0.27755 0.0
C2930 C 0.95345 0.74751 0.28635 0.0
C2931 C 0.95349 0.73284 0.29125 0.0
C2932 C 0.96619 0.72437 0.28987 0.0
C2933 C 0.97836 0.7304 0.28305 0.0
C2934 C 0.94014 0.75693 0.28768 0.0
C2935 C 0.96672 0.70871 0.295 0.0
H2936 H 0.92306 0.72042 0.3293 0.0
H2937 H 0.90893 0.70772 0.28586 0.0
H2938 H 0.95919 0.72865 0.32228 0.0
H2939 H 0.94985 0.74552 0.31978 0.0
H2940 H 0.94481 0.73338 0.33432 0.0
H2941 H 0.92287 0.7124 0.26541 0.0
H2942 H 0.93271 0.72953 0.26678 0.0
H2943 H 0.94232 0.71279 0.26925 0.0
H2944 H 0.96548 0.7643 0.27531 0.0
H2945 H 0.98786 0.72369 0.28158 0.0
H2946 H 0.93655 0.75693 0.29912 0.0
H2947 H 0.931 0.75238 0.28077 0.0
H2948 H 0.9422 0.76838 0.28426 0.0
H2949 H 0.96354 0.70794 0.30655 0.0
H2950 H 0.97773 0.70393 0.29406 0.0
H2951 H 0.95876 0.70203 0.2884 0.0
C2952 C 0.84205 0.42578 0.31355 0.0
C2953 C 0.83207 0.41419 0.31509 0.0
C2954 C 0.83843 0.43805 0.30501 0.0
C2955 C 0.82457 0.43869 0.29769 0.0
C2956 C 0.81447 0.42699 0.29916 0.0
C2957 C 0.81831 0.41494 0.30793 0.0
C2958 C 0.84942 0.45037 0.3039 0.0
C2959 C 0.79965 0.42717 0.2914 0.0
C2960 C 0.80937 0.47553 0.28602 0.0
C2961 C 0.81263 0.476 0.27118 0.0
C2962 C 0.81334 0.46355 0.29481 0.0
C2963 C 0.82059 0.45163 0.28856 0.0
C2964 C 0.82395 0.45206 0.27358 0.0
C2965 C 0.82002 0.46429 0.2651 0.0
C2966 C 0.80976 0.46363 0.31077 0.0
C2967 C 0.8315 0.4395 0.26646 0.0
H2968 H 0.85264 0.42532 0.31919 0.0
H2969 H 0.81063 0.40594 0.30896 0.0
H2970 H 0.85218 0.45208 0.29233 0.0
H2971 H 0.84465 0.46067 0.30781 0.0
H2972 H 0.85967 0.44826 0.31039 0.0
H2973 H 0.79314 0.41714 0.29351 0.0
H2974 H 0.79342 0.43676 0.29497 0.0
H2975 H 0.80096 0.42824 0.27944 0.0
H2976 H 0.80382 0.48464 0.2908 0.0
H2977 H 0.8224 0.46452 0.2536 0.0
H2978 H 0.81988 0.46226 0.31763 0.0
H2979 H 0.80239 0.45431 0.31317 0.0
H2980 H 0.8044 0.47388 0.31402 0.0
H2981 H 0.8422 0.43749 0.27214 0.0
H2982 H 0.83336 0.44153 0.25471 0.0
H2983 H 0.82483 0.42939 0.26745 0.0
C2984 C 0.22242 0.61211 0.68078 0.0
C2985 C 0.22087 0.6241 0.6901 0.0
C2986 C 0.23038 0.5998 0.68535 0.0
C2987 C 0.23708 0.59951 0.69952 0.0
C2988 C 0.23566 0.61164 0.70893 0.0
C2989 C 0.2275 0.62374 0.70414 0.0
C2990 C 0.23147 0.58703 0.67505 0.0
C2991 C 0.24278 0.61184 0.72406 0.0
C2992 C 0.2463 0.56299 0.71715 0.0
C2993 C 0.26128 0.56189 0.7147 0.0
C2994 C 0.23827 0.57508 0.71212 0.0
C2995 C 0.24542 0.58645 0.7046 0.0
C2996 C 0.26054 0.58538 0.70205 0.0
C2997 C 0.26826 0.57307 0.70705 0.0
C2998 C 0.22213 0.57569 0.71489 0.0
C2999 C 0.2686 0.59734 0.69422 0.0
H3000 H 0.21718 0.61227 0.66998 0.0
H3001 H 0.22647 0.63304 0.71133 0.0
H3002 H 0.2431 0.58477 0.67304 0.0
H3003 H 0.22678 0.57709 0.68008 0.0
H3004 H 0.22566 0.58898 0.66439 0.0
H3005 H 0.2409 0.62223 0.72991 0.0
H3006 H 0.23844 0.6027 0.73063 0.0
H3007 H 0.25473 0.61024 0.72337 0.0
H3008 H 0.24081 0.55429 0.72288 0.0
H3009 H 0.27986 0.57236 0.70528 0.0
H3010 H 0.21583 0.57683 0.70439 0.0
H3011 H 0.21981 0.5854 0.72161 0.0
H3012 H 0.21815 0.5658 0.72062 0.0
H3013 H 0.26351 0.59908 0.68318 0.0
H3014 H 0.28033 0.59483 0.69304 0.0
H3015 H 0.26778 0.60775 0.70029 0.0
C3016 C 0.23318 0.3969 0.32917 0.0
C3017 C 0.2179 0.39805 0.32896 0.0
C3018 C 0.24202 0.40831 0.32407 0.0
C3019 C 0.23546 0.42122 0.31863 0.0
C3020 C 0.22004 0.42245 0.31834 0.0
C3021 C 0.21145 0.41085 0.32348 0.0
C3022 C 0.2584 0.40651 0.32446 0.0
C3023 C 0.21262 0.43606 0.31267 0.0
C3024 C 0.25873 0.45589 0.31733 0.0
C3025 C 0.26217 0.45652 0.30253 0.0
C3026 C 0.25005 0.44448 0.32272 0.0
C3027 C 0.24472 0.43338 0.31311 0.0
C3028 C 0.24828 0.43387 0.2982 0.0
C3029 C 0.25694 0.44542 0.2931 0.0
C3030 C 0.24646 0.44438 0.33868 0.0
C3031 C 0.24293 0.4222 0.28761 0.0
H3032 H 0.23825 0.38698 0.33319 0.0
H3033 H 0.19967 0.41189 0.32344 0.0
H3034 H 0.26254 0.4075 0.31326 0.0
H3035 H 0.26371 0.41531 0.33113 0.0
H3036 H 0.26181 0.39581 0.32907 0.0
H3037 H 0.20054 0.43532 0.31323 0.0
H3038 H 0.21656 0.44566 0.3191 0.0
H3039 H 0.21546 0.43802 0.30116 0.0
H3040 H 0.26258 0.46449 0.32465 0.0
H3041 H 0.25972 0.44569 0.28172 0.0
H3042 H 0.25033 0.43412 0.34389 0.0
H3043 H 0.23445 0.44472 0.33979 0.0
H3044 H 0.25151 0.45376 0.34474 0.0
H3045 H 0.24682 0.41136 0.29137 0.0
H3046 H 0.24673 0.42413 0.27637 0.0
H3047 H 0.23082 0.42175 0.28721 0.0
C3048 C 0.10213 0.66822 0.29104 0.0
C3049 C 0.11256 0.67826 0.2967 0.0
C3050 C 0.08948 0.67291 0.28338 0.0
C3051 C 0.08713 0.68802 0.28137 0.0
C3052 C 0.09739 0.69823 0.28739 0.0
C3053 C 0.10998 0.69323 0.29497 0.0
C3054 C 0.07877 0.66167 0.27719 0.0
C3055 C 0.09525 0.71445 0.28551 0.0
C3056 C 0.06294 0.70068 0.24928 0.0
C3057 C 0.04989 0.70399 0.25609 0.0
C3058 C 0.07505 0.69528 0.25735 0.0
C3059 C 0.07414 0.69315 0.27261 0.0
C3060 C 0.06091 0.69615 0.2795 0.0
C3061 C 0.04896 0.70149 0.27116 0.0
C3062 C 0.08895 0.69219 0.24958 0.0
C3063 C 0.05947 0.69396 0.29573 0.0
H3064 H 0.10391 0.65663 0.29253 0.0
H3065 H 0.11804 0.70106 0.29917 0.0
H3066 H 0.0677 0.66369 0.28123 0.0
H3067 H 0.07805 0.6626 0.26511 0.0
H3068 H 0.08196 0.65035 0.28013 0.0
H3069 H 0.10393 0.72097 0.29137 0.0
H3070 H 0.09527 0.71731 0.27374 0.0
H3071 H 0.08449 0.71763 0.28962 0.0
H3072 H 0.06387 0.70274 0.23772 0.0
H3073 H 0.03887 0.70381 0.27648 0.0
H3074 H 0.09233 0.68076 0.25161 0.0
H3075 H 0.0979 0.69939 0.25395 0.0
H3076 H 0.08773 0.69393 0.2376 0.0
H3077 H 0.0621 0.68254 0.29875 0.0
H3078 H 0.04832 0.69642 0.29936 0.0
H3079 H 0.06742 0.70113 0.3018 0.0
C3080 C 0.80891 0.60832 0.32008 0.0
C3081 C 0.81326 0.61942 0.31053 0.0
C3082 C 0.80322 0.59495 0.31473 0.0
C3083 C 0.80185 0.5926 0.29945 0.0
C3084 C 0.80559 0.60401 0.28978 0.0
C3085 C 0.81125 0.61724 0.29542 0.0
C3086 C 0.79936 0.58309 0.32541 0.0
C3087 C 0.80423 0.60203 0.27341 0.0
C3088 C 0.80667 0.55503 0.28318 0.0
C3089 C 0.79239 0.55129 0.27841 0.0
C3090 C 0.80972 0.56808 0.2907 0.0
C3091 C 0.79823 0.57777 0.29348 0.0
C3092 C 0.78364 0.5737 0.28942 0.0
C3093 C 0.78087 0.56044 0.28195 0.0
C3094 C 0.82541 0.57185 0.29494 0.0
C3095 C 0.77108 0.5837 0.29222 0.0
H3096 H 0.81047 0.60987 0.33177 0.0
H3097 H 0.8143 0.62585 0.28797 0.0
H3098 H 0.78849 0.57827 0.32247 0.0
H3099 H 0.80747 0.57421 0.32493 0.0
H3100 H 0.79927 0.5872 0.33682 0.0
H3101 H 0.80635 0.61234 0.26742 0.0
H3102 H 0.81217 0.59376 0.26995 0.0
H3103 H 0.79315 0.59792 0.27017 0.0
H3104 H 0.8156 0.54793 0.28059 0.0
H3105 H 0.76983 0.55764 0.27821 0.0
H3106 H 0.8264 0.57499 0.30663 0.0
H3107 H 0.82908 0.58135 0.28845 0.0
H3108 H 0.8329 0.56264 0.29306 0.0
H3109 H 0.77176 0.5878 0.30363 0.0
H3110 H 0.76033 0.57819 0.29024 0.0
H3111 H 0.77168 0.59333 0.2849 0.0
C3112 C 0.92266 0.30251 0.34619 0.0
C3113 C 0.91223 0.30789 0.33601 0.0
C3114 C 0.93422 0.29378 0.34176 0.0
C3115 C 0.9354 0.29032 0.32678 0.0
C3116 C 0.92489 0.29568 0.31646 0.0
C3117 C 0.91345 0.30438 0.32119 0.0
C3118 C 0.94522 0.28832 0.3531 0.0
C3119 C 0.92572 0.29219 0.3004 0.0
C3120 C 0.97209 0.27895 0.31248 0.0
C3121 C 0.97041 0.26374 0.31145 0.0
C3122 C 0.96087 0.2877 0.31763 0.0
C3123 C 0.94762 0.28111 0.32187 0.0
C3124 C 0.94593 0.26575 0.32107 0.0
C3125 C 0.95733 0.25726 0.31588 0.0
C3126 C 0.96315 0.30404 0.31838 0.0
C3127 C 0.93196 0.2583 0.32545 0.0
H3128 H 0.92191 0.30531 0.35763 0.0
H3129 H 0.90533 0.3083 0.31327 0.0
H3130 H 0.94548 0.27622 0.35289 0.0
H3131 H 0.95632 0.29232 0.35055 0.0
H3132 H 0.94272 0.29191 0.36431 0.0
H3133 H 0.9167 0.2972 0.29377 0.0
H3134 H 0.93628 0.29616 0.29624 0.0
H3135 H 0.92526 0.2802 0.29875 0.0
H3136 H 0.98222 0.28404 0.3093 0.0
H3137 H 0.95584 0.24556 0.31497 0.0
H3138 H 0.96157 0.30796 0.32966 0.0
H3139 H 0.95491 0.30952 0.31116 0.0
H3140 H 0.97422 0.30743 0.31503 0.0
H3141 H 0.92951 0.26123 0.33684 0.0
H3142 H 0.93254 0.24623 0.32463 0.0
H3143 H 0.92271 0.2621 0.31834 0.0
C3144 C 0.83726 0.44101 0.72355 0.0
C3145 C 0.82847 0.42944 0.71809 0.0
C3146 C 0.83107 0.45342 0.72974 0.0
C3147 C 0.8157 0.45437 0.73046 0.0
C3148 C 0.80675 0.4428 0.72487 0.0
C3149 C 0.81323 0.43049 0.71878 0.0
C3150 C 0.841 0.46553 0.73551 0.0
C3151 C 0.79031 0.4434 0.7254 0.0
C3152 C 0.79872 0.48019 0.75754 0.0
C3153 C 0.79447 0.49187 0.74849 0.0
C3154 C 0.80591 0.46805 0.7519 0.0
C3155 C 0.80893 0.46756 0.73684 0.0
C3156 C 0.80509 0.47952 0.72775 0.0
C3157 C 0.79794 0.49151 0.73368 0.0
C3158 C 0.80992 0.45556 0.76197 0.0
C3159 C 0.80814 0.47947 0.71165 0.0
H3160 H 0.84902 0.44042 0.72288 0.0
H3161 H 0.80635 0.42155 0.71477 0.0
H3162 H 0.83852 0.47583 0.72961 0.0
H3163 H 0.83905 0.46746 0.74724 0.0
H3164 H 0.85274 0.46303 0.73432 0.0
H3165 H 0.78489 0.43354 0.72057 0.0
H3166 H 0.78701 0.44448 0.73688 0.0
H3167 H 0.78623 0.45315 0.7194 0.0
H3168 H 0.79609 0.48033 0.76899 0.0
H3169 H 0.79475 0.50046 0.72657 0.0
H3170 H 0.82172 0.45313 0.76133 0.0
H3171 H 0.80377 0.44558 0.75848 0.0
H3172 H 0.80749 0.45791 0.77352 0.0
H3173 H 0.81991 0.47754 0.71004 0.0
H3174 H 0.80505 0.48988 0.70621 0.0
H3175 H 0.80194 0.47042 0.70617 0.0
C3176 C 0.12152 0.30257 0.71399 0.0
C3177 C 0.12046 0.31751 0.71077 0.0
C3178 C 0.11028 0.29513 0.72107 0.0
C3179 C 0.09768 0.3028 0.72502 0.0
C3180 C 0.09618 0.31765 0.72101 0.0
C3181 C 0.10759 0.32482 0.71397 0.0
C3182 C 0.11232 0.2793 0.72514 0.0
C3183 C 0.0829 0.32623 0.72492 0.0
C3184 C 0.06388 0.28374 0.73965 0.0
C3185 C 0.06595 0.28618 0.7547 0.0
C3186 C 0.07433 0.28866 0.72977 0.0
C3187 C 0.08711 0.29606 0.73513 0.0
C3188 C 0.0895 0.29789 0.75037 0.0
C3189 C 0.07891 0.29297 0.75992 0.0
C3190 C 0.07143 0.28648 0.7136 0.0
C3191 C 0.10303 0.30556 0.75662 0.0
H3192 H 0.13145 0.29685 0.71161 0.0
H3193 H 0.10657 0.33629 0.71125 0.0
H3194 H 0.11453 0.27841 0.73709 0.0
H3195 H 0.10223 0.27288 0.72247 0.0
H3196 H 0.12157 0.27436 0.71945 0.0
H3197 H 0.08262 0.33712 0.71959 0.0
H3198 H 0.07275 0.32014 0.7217 0.0
H3199 H 0.0829 0.32783 0.73694 0.0
H3200 H 0.05388 0.27851 0.73556 0.0
H3201 H 0.08069 0.29473 0.77155 0.0
H3202 H 0.08113 0.28177 0.70851 0.0
H3203 H 0.06935 0.29719 0.70831 0.0
H3204 H 0.06184 0.27921 0.71127 0.0
H3205 H 0.11299 0.3004 0.75253 0.0
H3206 H 0.10363 0.30533 0.76876 0.0
H3207 H 0.10312 0.31711 0.753 0.0
C3208 C 0.91938 0.73513 0.68053 0.0
C3209 C 0.90732 0.73216 0.68915 0.0
C3210 C 0.9329 0.73966 0.68692 0.0
C3211 C 0.93441 0.74125 0.70229 0.0
C3212 C 0.92207 0.73899 0.71094 0.0
C3213 C 0.90871 0.73449 0.70428 0.0
C3214 C 0.94575 0.74201 0.67729 0.0
C3215 C 0.92313 0.74062 0.72736 0.0
C3216 C 0.97023 0.73306 0.72251 0.0
C3217 C 0.97519 0.74698 0.72688 0.0
C3218 C 0.95738 0.73116 0.71393 0.0
C3219 C 0.94914 0.74349 0.70957 0.0
C3220 C 0.95447 0.75766 0.71326 0.0
C3221 C 0.96748 0.75926 0.72187 0.0
C3222 C 0.95223 0.71585 0.71017 0.0
C3223 C 0.94605 0.77108 0.70877 0.0
H3224 H 0.91845 0.73332 0.66884 0.0
H3225 H 0.89938 0.73252 0.711 0.0
H3226 H 0.95154 0.75236 0.68017 0.0
H3227 H 0.95365 0.73303 0.67905 0.0
H3228 H 0.94239 0.74228 0.66552 0.0
H3229 H 0.91228 0.73977 0.73237 0.0
H3230 H 0.93025 0.73198 0.7321 0.0
H3231 H 0.92819 0.75129 0.7304 0.0
H3232 H 0.9762 0.72352 0.72622 0.0
H3233 H 0.9712 0.77004 0.72525 0.0
H3234 H 0.94981 0.71485 0.69826 0.0
H3235 H 0.94196 0.71339 0.71582 0.0
H3236 H 0.96043 0.70751 0.71344 0.0
H3237 H 0.94266 0.77053 0.69703 0.0
H3238 H 0.95253 0.78126 0.71075 0.0
H3239 H 0.93596 0.77167 0.71509 0.0
C3240 C 0.72759 0.22827 0.61124 0.0
C3241 C 0.71288 0.22386 0.61119 0.0
C3242 C 0.73348 0.23515 0.59905 0.0
C3243 C 0.72445 0.23769 0.58644 0.0
C3244 C 0.70938 0.23407 0.58664 0.0
C3245 C 0.70376 0.2272 0.59902 0.0
C3246 C 0.74958 0.23892 0.59938 0.0
C3247 C 0.69937 0.23662 0.57346 0.0
C3248 C 0.74216 0.26069 0.55699 0.0
C3249 C 0.7486 0.24979 0.54874 0.0
C3250 C 0.73355 0.25698 0.56895 0.0
C3251 C 0.73131 0.24207 0.57254 0.0
C3252 C 0.73699 0.23111 0.56355 0.0
C3253 C 0.74559 0.23511 0.55184 0.0
C3254 C 0.72762 0.26898 0.57822 0.0
C3255 C 0.73476 0.21509 0.56682 0.0
H3256 H 0.73462 0.226 0.62073 0.0
H3257 H 0.69238 0.22381 0.59889 0.0
H3258 H 0.75526 0.23163 0.59181 0.0
H3259 H 0.75133 0.25029 0.59562 0.0
H3260 H 0.75474 0.23772 0.61048 0.0
H3261 H 0.68768 0.23541 0.5761 0.0
H3262 H 0.70121 0.24768 0.56889 0.0
H3263 H 0.7018 0.22862 0.56482 0.0
H3264 H 0.74453 0.27205 0.55466 0.0
H3265 H 0.75042 0.22664 0.54536 0.0
H3266 H 0.73403 0.2696 0.58872 0.0
H3267 H 0.71609 0.26666 0.58083 0.0
H3268 H 0.72826 0.27978 0.57275 0.0
H3269 H 0.74068 0.21227 0.57721 0.0
H3270 H 0.73879 0.20798 0.55804 0.0
H3271 H 0.72301 0.21261 0.56823 0.0
C3272 C 0.30884 0.19998 0.60468 0.0
C3273 C 0.31041 0.20871 0.61724 0.0
C3274 C 0.30332 0.20579 0.5914 0.0
C3275 C 0.29928 0.22066 0.59068 0.0
C3276 C 0.29996 0.22922 0.60356 0.0
C3277 C 0.30552 0.22315 0.61665 0.0
C3278 C 0.3027 0.19628 0.57795 0.0
C3279 C 0.29567 0.24509 0.60334 0.0
C3280 C 0.30541 0.24297 0.55659 0.0
C3281 C 0.29113 0.2451 0.55102 0.0
C3282 C 0.30819 0.23446 0.56906 0.0
C3283 C 0.29639 0.2279 0.57628 0.0
C3284 C 0.28197 0.22938 0.57032 0.0
C3285 C 0.2795 0.23796 0.5577 0.0
C3286 C 0.32376 0.23309 0.57491 0.0
C3287 C 0.26911 0.22252 0.57767 0.0
H3288 H 0.31261 0.18882 0.60504 0.0
H3289 H 0.30643 0.22986 0.6264 0.0
H3290 H 0.29219 0.1977 0.57172 0.0
H3291 H 0.31159 0.19956 0.57066 0.0
H3292 H 0.30399 0.18455 0.5807 0.0
H3293 H 0.2953 0.24976 0.61451 0.0
H3294 H 0.3037 0.25149 0.59709 0.0
H3295 H 0.28481 0.24642 0.59777 0.0
H3296 H 0.31449 0.24831 0.55138 0.0
H3297 H 0.26843 0.23959 0.55347 0.0
H3298 H 0.32651 0.22144 0.57665 0.0
H3299 H 0.325 0.23865 0.58565 0.0
H3300 H 0.33177 0.23797 0.56744 0.0
H3301 H 0.27137 0.21097 0.58047 0.0
H3302 H 0.25895 0.22298 0.57069 0.0
H3303 H 0.26722 0.22835 0.58803 0.0
C3304 C 0.31482 0.81743 0.59723 0.0
C3305 C 0.31883 0.81043 0.61039 0.0
C3306 C 0.31017 0.8094 0.5848 0.0
C3307 C 0.30949 0.79397 0.58549 0.0
C3308 C 0.3134 0.78683 0.59876 0.0
C3309 C 0.31801 0.79513 0.61102 0.0
C3310 C 0.30613 0.81744 0.57086 0.0
C3311 C 0.31275 0.77041 0.6 0.0
C3312 C 0.28547 0.77375 0.55711 0.0
C3313 C 0.29573 0.76908 0.54713 0.0
C3314 C 0.28979 0.78178 0.56964 0.0
C3315 C 0.30475 0.78528 0.57231 0.0
C3316 C 0.31518 0.78051 0.56235 0.0
C3317 C 0.31055 0.77246 0.54992 0.0
C3318 C 0.27832 0.78656 0.58001 0.0
C3319 C 0.33123 0.78402 0.56477 0.0
H3320 H 0.31558 0.82922 0.59656 0.0
H3321 H 0.32087 0.78961 0.62118 0.0
H3322 H 0.31332 0.81401 0.56203 0.0
H3323 H 0.29474 0.81464 0.56728 0.0
H3324 H 0.30708 0.82947 0.57215 0.0
H3325 H 0.31606 0.76653 0.61111 0.0
H3326 H 0.30149 0.7664 0.59732 0.0
H3327 H 0.32003 0.76544 0.59201 0.0
H3328 H 0.27403 0.77101 0.55521 0.0
H3329 H 0.31854 0.76907 0.54222 0.0
H3330 H 0.27839 0.79864 0.58088 0.0
H3331 H 0.28083 0.78219 0.59111 0.0
H3332 H 0.26716 0.78286 0.57645 0.0
H3333 H 0.33294 0.79602 0.56505 0.0
H3334 H 0.33798 0.77939 0.5561 0.0
H3335 H 0.33519 0.77967 0.57549 0.0
C3336 C 0.70952 0.81809 0.60264 0.0
C3337 C 0.70141 0.83083 0.60424 0.0
C3338 C 0.71745 0.81567 0.59002 0.0
C3339 C 0.71711 0.82618 0.57866 0.0
C3340 C 0.70876 0.83897 0.58013 0.0
C3341 C 0.70107 0.84117 0.59292 0.0
C3342 C 0.72632 0.80196 0.58891 0.0
C3343 C 0.70793 0.85033 0.56818 0.0
C3344 C 0.74758 0.82655 0.5514 0.0
C3345 C 0.74113 0.81871 0.53967 0.0
C3346 C 0.73991 0.82905 0.56418 0.0
C3347 C 0.72538 0.82374 0.56516 0.0
C3348 C 0.71873 0.81606 0.55323 0.0
C3349 C 0.72671 0.81359 0.54068 0.0
C3350 C 0.74742 0.83717 0.57672 0.0
C3351 C 0.70321 0.8104 0.55373 0.0
H3352 H 0.70994 0.81015 0.61142 0.0
H3353 H 0.69469 0.85097 0.59405 0.0
H3354 H 0.72254 0.79556 0.57918 0.0
H3355 H 0.73798 0.80484 0.58746 0.0
H3356 H 0.72552 0.79493 0.59874 0.0
H3357 H 0.70081 0.85958 0.57096 0.0
H3358 H 0.71903 0.85467 0.56612 0.0
H3359 H 0.70364 0.8453 0.55785 0.0
H3360 H 0.75876 0.83039 0.55073 0.0
H3361 H 0.72161 0.8077 0.53156 0.0
H3362 H 0.74787 0.83013 0.58659 0.0
H3363 H 0.7411 0.84699 0.57943 0.0
H3364 H 0.75873 0.84062 0.57422 0.0
H3365 H 0.70222 0.80254 0.56287 0.0
H3366 H 0.69954 0.80489 0.54342 0.0
H3367 H 0.6957 0.81953 0.55581 0.0
C3368 C 0.69029 0.8316 0.4118 0.0
C3369 C 0.68866 0.82336 0.39893 0.0
C3370 C 0.69757 0.82595 0.42428 0.0
C3371 C 0.70356 0.81177 0.42387 0.0
C3372 C 0.70139 0.80316 0.41112 0.0
C3373 C 0.69391 0.80903 0.39882 0.0
C3374 C 0.69948 0.83546 0.43769 0.0
C3375 C 0.70771 0.78807 0.41015 0.0
C3376 C 0.73805 0.80774 0.44753 0.0
C3377 C 0.73301 0.80037 0.45983 0.0
C3378 C 0.72867 0.81095 0.43559 0.0
C3379 C 0.71374 0.8069 0.43595 0.0
C3380 C 0.70862 0.79902 0.44814 0.0
C3381 C 0.71838 0.79572 0.45993 0.0
C3382 C 0.73471 0.81912 0.42274 0.0
C3383 C 0.69276 0.79459 0.44896 0.0
H3384 H 0.68604 0.84258 0.41202 0.0
H3385 H 0.69274 0.80263 0.38889 0.0
H3386 H 0.6965 0.82929 0.4476 0.0
H3387 H 0.71112 0.83881 0.43915 0.0
H3388 H 0.69274 0.84545 0.4369 0.0
H3389 H 0.70351 0.78209 0.40029 0.0
H3390 H 0.71979 0.78893 0.4097 0.0
H3391 H 0.70519 0.78157 0.41998 0.0
H3392 H 0.74941 0.81117 0.44729 0.0
H3393 H 0.71445 0.79004 0.46943 0.0
H3394 H 0.72966 0.83004 0.42187 0.0
H3395 H 0.73196 0.8132 0.41242 0.0
H3396 H 0.74676 0.82059 0.42374 0.0
H3397 H 0.68598 0.80449 0.44982 0.0
H3398 H 0.69076 0.78745 0.45851 0.0
H3399 H 0.68905 0.78878 0.43885 0.0
C3400 C 0.74134 0.20152 0.41239 0.0
C3401 C 0.72611 0.19954 0.41216 0.0
C3402 C 0.74894 0.20708 0.42481 0.0
C3403 C 0.74115 0.21075 0.43735 0.0
C3404 C 0.72578 0.20881 0.43719 0.0
C3405 C 0.71844 0.20325 0.4246 0.0
C3406 C 0.76531 0.20908 0.4245 0.0
C3407 C 0.71707 0.21254 0.45034 0.0
C3408 C 0.76191 0.213 0.4741 0.0
C3409 C 0.76386 0.22811 0.47585 0.0
C3410 C 0.75455 0.20719 0.46163 0.0
C3411 C 0.74907 0.21672 0.4506 0.0
C3412 C 0.75113 0.23197 0.45224 0.0
C3413 C 0.75847 0.23747 0.46483 0.0
C3414 C 0.75254 0.19087 0.46032 0.0
C3415 C 0.74557 0.2425 0.44068 0.0
H3416 H 0.74732 0.19886 0.40276 0.0
H3417 H 0.70671 0.20159 0.42458 0.0
H3418 H 0.76829 0.2207 0.42645 0.0
H3419 H 0.77068 0.20263 0.43338 0.0
H3420 H 0.76976 0.20566 0.41392 0.0
H3421 H 0.70519 0.21037 0.44848 0.0
H3422 H 0.72101 0.20609 0.45992 0.0
H3423 H 0.71868 0.22423 0.45316 0.0
H3424 H 0.76589 0.20571 0.48262 0.0
H3425 H 0.76014 0.24914 0.46596 0.0
H3426 H 0.7575 0.18692 0.4502 0.0
H3427 H 0.74072 0.18807 0.45948 0.0
H3428 H 0.75754 0.18494 0.4698 0.0
H3429 H 0.75045 0.24 0.43007 0.0
H3430 H 0.74816 0.25404 0.44356 0.0
H3431 H 0.73355 0.24127 0.43912 0.0
C3432 C 0.34753 0.22429 0.4259 0.0
C3433 C 0.3379 0.22301 0.41369 0.0
C3434 C 0.34349 0.23184 0.43845 0.0
C3435 C 0.32957 0.23837 0.43874 0.0
C3436 C 0.31998 0.23745 0.42629 0.0
C3437 C 0.32423 0.22973 0.41395 0.0
C3438 C 0.35397 0.23246 0.45156 0.0
C3439 C 0.3051 0.24441 0.4261 0.0
C3440 C 0.3118 0.24463 0.47503 0.0
C3441 C 0.31433 0.25959 0.4773 0.0
C3442 C 0.31696 0.23755 0.46269 0.0
C3443 C 0.32473 0.24564 0.45226 0.0
C3444 C 0.32749 0.26072 0.45457 0.0
C3445 C 0.32232 0.2675 0.46711 0.0
C3446 C 0.31395 0.22142 0.46073 0.0
C3447 C 0.33559 0.26975 0.44363 0.0
H3448 H 0.35805 0.21899 0.42579 0.0
H3449 H 0.31684 0.22891 0.40447 0.0
H3450 H 0.35599 0.24395 0.45492 0.0
H3451 H 0.34907 0.22675 0.46091 0.0
H3452 H 0.36461 0.22735 0.44937 0.0
H3453 H 0.29926 0.24334 0.4153 0.0
H3454 H 0.29831 0.23924 0.4345 0.0
H3455 H 0.30618 0.25617 0.42886 0.0
H3456 H 0.30582 0.23844 0.48299 0.0
H3457 H 0.32416 0.27908 0.46873 0.0
H3458 H 0.32434 0.21554 0.45938 0.0
H3459 H 0.30708 0.21956 0.45066 0.0
H3460 H 0.30826 0.21659 0.47012 0.0
H3461 H 0.34643 0.26493 0.44176 0.0
H3462 H 0.33723 0.28124 0.44725 0.0
H3463 H 0.32942 0.26972 0.43298 0.0
C3464 C 0.30969 0.8204 0.4236 0.0
C3465 C 0.30233 0.82136 0.40994 0.0
C3466 C 0.3033 0.81325 0.43538 0.0
C3467 C 0.28925 0.80678 0.43344 0.0
C3468 C 0.28141 0.80848 0.41993 0.0
C3469 C 0.28803 0.81579 0.40835 0.0
C3470 C 0.312 0.81185 0.44962 0.0
C3471 C 0.26644 0.8017 0.41738 0.0
C3472 C 0.28418 0.77218 0.4554 0.0
C3473 C 0.27598 0.77695 0.4671 0.0
C3474 C 0.28809 0.78169 0.4442 0.0
C3475 C 0.28384 0.79647 0.44469 0.0
C3476 C 0.2752 0.80133 0.45625 0.0
C3477 C 0.27128 0.79146 0.46731 0.0
C3478 C 0.29714 0.77596 0.43201 0.0
C3479 C 0.27051 0.81701 0.45716 0.0
H3480 H 0.32065 0.82491 0.42495 0.0
H3481 H 0.2823 0.81646 0.39781 0.0
H3482 H 0.30515 0.81457 0.45897 0.0
H3483 H 0.31556 0.80039 0.45107 0.0
H3484 H 0.32185 0.81904 0.45 0.0
H3485 H 0.26095 0.80578 0.40719 0.0
H3486 H 0.26746 0.78968 0.41652 0.0
H3487 H 0.2594 0.80395 0.4267 0.0
H3488 H 0.28769 0.76093 0.45504 0.0
H3489 H 0.26495 0.7952 0.47633 0.0
H3490 H 0.30798 0.78149 0.4323 0.0
H3491 H 0.29175 0.77837 0.42125 0.0
H3492 H 0.29885 0.764 0.43282 0.0
H3493 H 0.28026 0.82414 0.45911 0.0
H3494 H 0.26284 0.81879 0.4661 0.0
H3495 H 0.26519 0.82049 0.44667 0.0
C3496 C 0.61014 0.20437 0.70152 0.0
C3497 C 0.62322 0.20061 0.70896 0.0
C3498 C 0.59763 0.20788 0.70919 0.0
C3499 C 0.59822 0.20769 0.72467 0.0
C3500 C 0.61142 0.20401 0.73223 0.0
C3501 C 0.62374 0.20051 0.7243 0.0
C3502 C 0.58374 0.21171 0.70073 0.0
C3503 C 0.61254 0.20379 0.74872 0.0
C3504 C 0.57015 0.22942 0.74488 0.0
C3505 C 0.56019 0.2185 0.74889 0.0
C3506 C 0.58254 0.22606 0.73699 0.0
C3507 C 0.58506 0.21141 0.73297 0.0
C3508 C 0.57507 0.20033 0.73701 0.0
C3509 C 0.56279 0.204 0.74495 0.0
C3510 C 0.59297 0.23818 0.73301 0.0
C3511 C 0.57735 0.18459 0.73289 0.0
H3512 H 0.60961 0.20431 0.68968 0.0
H3513 H 0.63387 0.19782 0.73012 0.0
H3514 H 0.57486 0.20399 0.70355 0.0
H3515 H 0.5802 0.2228 0.70377 0.0
H3516 H 0.58508 0.21137 0.68872 0.0
H3517 H 0.6236 0.20071 0.75295 0.0
H3518 H 0.60992 0.2147 0.7531 0.0
H3519 H 0.60445 0.19593 0.75302 0.0
H3520 H 0.56837 0.24061 0.74809 0.0
H3521 H 0.55507 0.19554 0.74787 0.0
H3522 H 0.59394 0.23867 0.72098 0.0
H3523 H 0.60402 0.23598 0.73781 0.0
H3524 H 0.58941 0.24901 0.7369 0.0
H3525 H 0.57775 0.18357 0.72084 0.0
H3526 H 0.56855 0.17728 0.7368 0.0
H3527 H 0.58798 0.18079 0.73756 0.0
C3528 C 0.31769 0.10822 0.71411 0.0
C3529 C 0.32935 0.11727 0.71904 0.0
C3530 C 0.31437 0.09509 0.72129 0.0
C3531 C 0.32261 0.09103 0.734 0.0
C3532 C 0.33425 0.10014 0.73917 0.0
C3533 C 0.33762 0.11297 0.73153 0.0
C3534 C 0.30204 0.08555 0.71525 0.0
C3535 C 0.34313 0.09636 0.75284 0.0
C3536 C 0.30453 0.06399 0.75948 0.0
C3537 C 0.3116 0.05099 0.75619 0.0
C3538 C 0.30825 0.07717 0.75262 0.0
C3539 C 0.31902 0.07725 0.74189 0.0
C3540 C 0.32621 0.06411 0.73854 0.0
C3541 C 0.32254 0.05118 0.74588 0.0
C3542 C 0.30062 0.09098 0.75682 0.0
C3543 C 0.33746 0.06364 0.72691 0.0
H3544 H 0.311 0.11143 0.70469 0.0
H3545 H 0.34687 0.11958 0.73534 0.0
H3546 H 0.30607 0.07438 0.71322 0.0
H3547 H 0.29335 0.08459 0.72333 0.0
H3548 H 0.29714 0.08989 0.70488 0.0
H3549 H 0.35143 0.10489 0.75578 0.0
H3550 H 0.33581 0.0949 0.76215 0.0
H3551 H 0.3488 0.08587 0.75132 0.0
H3552 H 0.29611 0.06382 0.76751 0.0
H3553 H 0.32784 0.04107 0.74319 0.0
H3554 H 0.2943 0.09534 0.74726 0.0
H3555 H 0.3088 0.09946 0.76022 0.0
H3556 H 0.29304 0.0892 0.76587 0.0
H3557 H 0.33246 0.06714 0.71628 0.0
H3558 H 0.34204 0.05256 0.7256 0.0
H3559 H 0.34657 0.07136 0.72963 0.0
C3560 C 0.42159 0.83585 0.71452 0.0
C3561 C 0.40883 0.82724 0.71351 0.0
C3562 C 0.43414 0.831 0.72228 0.0
C3563 C 0.43389 0.81726 0.72938 0.0
C3564 C 0.42098 0.80859 0.72855 0.0
C3565 C 0.40865 0.81364 0.72056 0.0
C3566 C 0.44773 0.84049 0.72273 0.0
C3567 C 0.42018 0.79398 0.73612 0.0
C3568 C 0.46981 0.79797 0.73798 0.0
C3569 C 0.47241 0.80138 0.75278 0.0
C3570 C 0.4574 0.80316 0.73022 0.0
C3571 C 0.44721 0.81184 0.73747 0.0
C3572 C 0.44975 0.81528 0.75244 0.0
C3573 C 0.46236 0.8101 0.75988 0.0
C3574 C 0.45524 0.7994 0.71423 0.0
C3575 C 0.43907 0.82433 0.76062 0.0
H3576 H 0.42184 0.8463 0.70897 0.0
H3577 H 0.39877 0.80701 0.71995 0.0
H3578 H 0.45107 0.84304 0.73422 0.0
H3579 H 0.45687 0.83454 0.71789 0.0
H3580 H 0.44613 0.8509 0.71669 0.0
H3581 H 0.40922 0.78874 0.73474 0.0
H3582 H 0.42841 0.78653 0.73169 0.0
H3583 H 0.42283 0.79529 0.74796 0.0
H3584 H 0.47763 0.79141 0.73238 0.0
H3585 H 0.46423 0.81264 0.77135 0.0
H3586 H 0.45445 0.80955 0.70764 0.0
H3587 H 0.44483 0.79326 0.71241 0.0
H3588 H 0.46429 0.79274 0.71014 0.0
H3589 H 0.43782 0.83517 0.75535 0.0
H3590 H 0.44258 0.82598 0.77225 0.0
H3591 H 0.42815 0.81894 0.76021 0.0
C3592 C 0.70435 0.90895 0.71839 0.0
C3593 C 0.69026 0.90828 0.71191 0.0
C3594 C 0.70947 0.9216 0.72564 0.0
C3595 C 0.70036 0.93396 0.72621 0.0
C3596 C 0.68606 0.93328 0.71981 0.0
C3597 C 0.68114 0.9204 0.71283 0.0
C3598 C 0.72471 0.9218 0.73253 0.0
C3599 C 0.6761 0.94629 0.71999 0.0
C3600 C 0.70958 0.96358 0.75427 0.0
C3601 C 0.71746 0.97361 0.74599 0.0
C3602 C 0.70394 0.95061 0.748 0.0
C3603 C 0.70602 0.94775 0.73302 0.0
C3604 C 0.71374 0.95799 0.72455 0.0
C3605 C 0.71946 0.97073 0.73117 0.0
C3606 C 0.69597 0.93986 0.75744 0.0
C3607 C 0.716 0.95547 0.7085 0.0
H3608 H 0.71137 0.89953 0.71782 0.0
H3609 H 0.67029 0.91994 0.70771 0.0
H3610 H 0.73153 0.93008 0.72703 0.0
H3611 H 0.72433 0.92496 0.7442 0.0
H3612 H 0.7301 0.91104 0.73181 0.0
H3613 H 0.66516 0.94386 0.71486 0.0
H3614 H 0.67466 0.94994 0.73139 0.0
H3615 H 0.68111 0.95552 0.71405 0.0
H3616 H 0.70816 0.96571 0.76576 0.0
H3617 H 0.72537 0.97857 0.7247 0.0
H3618 H 0.70172 0.92926 0.7576 0.0
H3619 H 0.68478 0.9378 0.75281 0.0
H3620 H 0.69517 0.94376 0.76886 0.0
H3621 H 0.72241 0.94542 0.70702 0.0
H3622 H 0.72183 0.96473 0.70335 0.0
H3623 H 0.7053 0.95382 0.70263 0.0
C3624 C 0.58116 0.81903 0.3071 0.0
C3625 C 0.59346 0.82262 0.2991 0.0
C3626 C 0.56947 0.81094 0.30077 0.0
C3627 C 0.57013 0.80625 0.28607 0.0
C3628 C 0.58216 0.81051 0.27769 0.0
C3629 C 0.59368 0.81866 0.28431 0.0
C3630 C 0.5568 0.80674 0.31007 0.0
C3631 C 0.58329 0.80571 0.26202 0.0
C3632 C 0.55101 0.77 0.27906 0.0
C3633 C 0.53761 0.77423 0.27258 0.0
C3634 C 0.56188 0.78029 0.28288 0.0
C3635 C 0.55929 0.79528 0.28027 0.0
C3636 C 0.54604 0.79961 0.27313 0.0
C3637 C 0.53534 0.78898 0.26928 0.0
C3638 C 0.57591 0.77514 0.29029 0.0
C3639 C 0.54291 0.81548 0.27016 0.0
H3640 H 0.5808 0.8223 0.31846 0.0
H3641 H 0.60319 0.82134 0.27807 0.0
H3642 H 0.54628 0.80911 0.30422 0.0
H3643 H 0.55704 0.79483 0.31225 0.0
H3644 H 0.55715 0.81257 0.3207 0.0
H3645 H 0.59217 0.8116 0.25642 0.0
H3646 H 0.58556 0.79384 0.2617 0.0
H3647 H 0.57283 0.80748 0.25583 0.0
H3648 H 0.55292 0.75858 0.28146 0.0
H3649 H 0.52498 0.79229 0.2643 0.0
H3650 H 0.57669 0.77929 0.30168 0.0
H3651 H 0.58548 0.77953 0.28455 0.0
H3652 H 0.57662 0.76305 0.2906 0.0
H3653 H 0.54141 0.82122 0.28065 0.0
H3654 H 0.53291 0.81692 0.2631 0.0
H3655 H 0.55228 0.82079 0.26484 0.0
C3656 C 0.72746 0.09675 0.32276 0.0
C3657 C 0.72008 0.10736 0.31431 0.0
C3658 C 0.7346 0.08508 0.31619 0.0
C3659 C 0.73432 0.08388 0.30077 0.0
C3660 C 0.72669 0.09438 0.29218 0.0
C3661 C 0.71969 0.10598 0.29904 0.0
C3662 C 0.74258 0.07412 0.32576 0.0
C3663 C 0.72609 0.0935 0.27571 0.0
C3664 C 0.76389 0.06296 0.2817 0.0
C3665 C 0.75659 0.04989 0.27783 0.0
C3666 C 0.75691 0.07392 0.28952 0.0
C3667 C 0.74225 0.07183 0.29357 0.0
C3668 C 0.735 0.05846 0.29019 0.0
C3669 C 0.74225 0.04765 0.2824 0.0
C3670 C 0.76509 0.08796 0.29301 0.0
C3671 C 0.71938 0.05576 0.29431 0.0
H3672 H 0.72763 0.09755 0.33457 0.0
H3673 H 0.7142 0.11417 0.29239 0.0
H3674 H 0.73825 0.06297 0.32346 0.0
H3675 H 0.75434 0.07416 0.32325 0.0
H3676 H 0.74156 0.07644 0.33758 0.0
H3677 H 0.71933 0.10224 0.27061 0.0
H3678 H 0.7373 0.09438 0.27155 0.0
H3679 H 0.72153 0.08276 0.27213 0.0
H3680 H 0.77495 0.06483 0.27826 0.0
H3681 H 0.73648 0.03763 0.27948 0.0
H3682 H 0.76477 0.09035 0.30487 0.0
H3683 H 0.75974 0.09715 0.28712 0.0
H3684 H 0.77669 0.08756 0.28988 0.0
H3685 H 0.7182 0.05772 0.30616 0.0
H3686 H 0.71559 0.04447 0.29171 0.0
H3687 H 0.71211 0.06352 0.28836 0.0
C3688 C 0.43125 0.18365 0.31065 0.0
C3689 C 0.41977 0.19362 0.31125 0.0
C3690 C 0.44358 0.18667 0.30243 0.0
C3691 C 0.44439 0.19991 0.2945 0.0
C3692 C 0.43272 0.2099 0.29488 0.0
C3693 C 0.42059 0.20667 0.30332 0.0
C3694 C 0.45588 0.17584 0.30248 0.0
C3695 C 0.4331 0.22406 0.28645 0.0
C3696 C 0.48149 0.21568 0.28538 0.0
C3697 C 0.4826 0.21169 0.27069 0.0
C3698 C 0.46924 0.21169 0.29331 0.0
C3699 C 0.45771 0.20363 0.28633 0.0
C3700 C 0.45883 0.19941 0.27153 0.0
C3701 C 0.47133 0.20341 0.26391 0.0
C3702 C 0.46859 0.21622 0.30912 0.0
C3703 C 0.4467 0.19094 0.26367 0.0
H3704 H 0.43071 0.1736 0.31687 0.0
H3705 H 0.41166 0.21431 0.30361 0.0
H3706 H 0.45816 0.17258 0.29113 0.0
H3707 H 0.46601 0.18098 0.30721 0.0
H3708 H 0.45339 0.16587 0.30888 0.0
H3709 H 0.42286 0.23033 0.28735 0.0
H3710 H 0.44239 0.23095 0.29057 0.0
H3711 H 0.43484 0.22186 0.27473 0.0
H3712 H 0.49028 0.22188 0.29072 0.0
H3713 H 0.4721 0.20043 0.25252 0.0
H3714 H 0.4669 0.20649 0.31611 0.0
H3715 H 0.45917 0.22352 0.31055 0.0
H3716 H 0.4787 0.222 0.31307 0.0
H3717 H 0.4444 0.18066 0.26961 0.0
H3718 H 0.44938 0.18823 0.25226 0.0
H3719 H 0.43652 0.19741 0.26345 0.0
C3720 C 0.32332 0.92086 0.30444 0.0
C3721 C 0.31352 0.90942 0.30737 0.0
C3722 C 0.31828 0.93433 0.29901 0.0
C3723 C 0.3031 0.93641 0.29649 0.0
C3724 C 0.29328 0.92459 0.29853 0.0
C3725 C 0.29861 0.91127 0.30393 0.0
C3726 C 0.32912 0.9466 0.29684 0.0
C3727 C 0.27701 0.92628 0.29589 0.0
C3728 C 0.28593 0.97294 0.30366 0.0
C3729 C 0.28198 0.97771 0.28953 0.0
C3730 C 0.29349 0.9599 0.30597 0.0
C3731 C 0.2972 0.95132 0.29384 0.0
C3732 C 0.29404 0.95649 0.27949 0.0
C3733 C 0.28645 0.96968 0.27748 0.0
C3734 C 0.29673 0.95492 0.32148 0.0
C3735 C 0.29791 0.94771 0.26628 0.0
H3736 H 0.33486 0.91956 0.30709 0.0
H3737 H 0.29101 0.90237 0.30585 0.0
H3738 H 0.32676 0.95228 0.28634 0.0
H3739 H 0.32819 0.95473 0.30571 0.0
H3740 H 0.34055 0.94264 0.29698 0.0
H3741 H 0.27104 0.91569 0.29651 0.0
H3742 H 0.27271 0.93374 0.30421 0.0
H3743 H 0.27465 0.93121 0.28501 0.0
H3744 H 0.28263 0.97918 0.31302 0.0
H3745 H 0.28336 0.97329 0.26654 0.0
H3746 H 0.30843 0.9521 0.32299 0.0
H3747 H 0.29022 0.94493 0.32374 0.0
H3748 H 0.2941 0.96336 0.32964 0.0
H3749 H 0.30921 0.94354 0.26752 0.0
H3750 H 0.29692 0.95421 0.25606 0.0
H3751 H 0.29045 0.93811 0.2652 0.0
C3752 C 0.7269 0.10456 0.68425 0.0
C3753 C 0.72436 0.11591 0.6941 0.0
C3754 C 0.73195 0.09092 0.68924 0.0
C3755 C 0.73447 0.0886 0.70442 0.0
C3756 C 0.73281 0.10032 0.71427 0.0
C3757 C 0.7278 0.11381 0.70899 0.0
C3758 C 0.73375 0.07877 0.67837 0.0
C3759 C 0.73546 0.09839 0.73053 0.0
C3760 C 0.72682 0.0521 0.72207 0.0
C3761 C 0.7409 0.0474 0.72615 0.0
C3762 C 0.72466 0.06506 0.71421 0.0
C3763 C 0.73689 0.07361 0.71031 0.0
C3764 C 0.75118 0.06843 0.71352 0.0
C3765 C 0.75303 0.05534 0.72142 0.0
C3766 C 0.70922 0.07007 0.71095 0.0
C3767 C 0.76449 0.07715 0.70942 0.0
H3768 H 0.72425 0.10608 0.67273 0.0
H3769 H 0.72617 0.12263 0.71662 0.0
H3770 H 0.7441 0.0729 0.68069 0.0
H3771 H 0.72467 0.07075 0.67932 0.0
H3772 H 0.73367 0.08288 0.66695 0.0
H3773 H 0.73501 0.10889 0.73655 0.0
H3774 H 0.72705 0.09087 0.73483 0.0
H3775 H 0.74627 0.0934 0.73284 0.0
H3776 H 0.7174 0.04593 0.72556 0.0
H3777 H 0.76395 0.05179 0.72457 0.0
H3778 H 0.70774 0.07302 0.69925 0.0
H3779 H 0.70707 0.07999 0.71745 0.0
H3780 H 0.70096 0.06159 0.71359 0.0
H3781 H 0.76321 0.08136 0.69809 0.0
H3782 H 0.7746 0.07057 0.71035 0.0
H3783 H 0.76584 0.0867 0.7168 0.0
C3784 C 0.68314 0.93019 0.29745 0.0
C3785 C 0.69034 0.91681 0.29891 0.0
C3786 C 0.68927 0.94182 0.28967 0.0
C3787 C 0.70283 0.93997 0.28299 0.0
C3788 C 0.71019 0.9265 0.28448 0.0
C3789 C 0.7039 0.91512 0.2925 0.0
C3790 C 0.68121 0.95608 0.28855 0.0
C3791 C 0.72458 0.92402 0.27739 0.0
C3792 C 0.71228 0.96461 0.2511 0.0
C3793 C 0.7224 0.97445 0.25766 0.0
C3794 C 0.70579 0.9534 0.25921 0.0
C3795 C 0.7093 0.95207 0.27433 0.0
C3796 C 0.7192 0.96214 0.28112 0.0
C3797 C 0.72569 0.97311 0.27272 0.0
C3798 C 0.69534 0.94283 0.25154 0.0
C3799 C 0.72312 0.9612 0.29725 0.0
H3800 H 0.67272 0.93158 0.30251 0.0
H3801 H 0.70942 0.90474 0.29346 0.0
H3802 H 0.6883 0.96511 0.29285 0.0
H3803 H 0.67845 0.95859 0.27693 0.0
H3804 H 0.67096 0.95588 0.29468 0.0
H3805 H 0.72892 0.91294 0.27963 0.0
H3806 H 0.72323 0.92547 0.26539 0.0
H3807 H 0.73279 0.93221 0.28138 0.0
H3808 H 0.70943 0.9656 0.23958 0.0
H3809 H 0.73359 0.98041 0.27799 0.0
H3810 H 0.68458 0.94301 0.25672 0.0
H3811 H 0.69955 0.93156 0.25263 0.0
H3812 H 0.69369 0.94538 0.23974 0.0
H3813 H 0.71307 0.96133 0.30367 0.0
H3814 H 0.73041 0.9703 0.30104 0.0
H3815 H 0.7287 0.95074 0.29967 0.0
C3816 C 0.62325 0.21765 0.31558 0.0
C3817 C 0.62296 0.20289 0.3197 0.0
C3818 C 0.61102 0.2242 0.30867 0.0
C3819 C 0.59811 0.21584 0.30588 0.0
C3820 C 0.59754 0.20113 0.31062 0.0
C3821 C 0.60997 0.19482 0.31738 0.0
C3822 C 0.61218 0.23986 0.30366 0.0
C3823 C 0.58398 0.19184 0.308 0.0
C3824 C 0.56231 0.23393 0.2933 0.0
C3825 C 0.56213 0.2311 0.27825 0.0
C3826 C 0.57406 0.22926 0.3025 0.0
C3827 C 0.58593 0.22182 0.29644 0.0
C3828 C 0.58598 0.21949 0.28117 0.0
C3829 C 0.57409 0.22407 0.27233 0.0
C3830 C 0.57357 0.23187 0.31874 0.0
C3831 C 0.59846 0.21183 0.27415 0.0
H3832 H 0.63327 0.22394 0.31724 0.0
H3833 H 0.60958 0.18348 0.32075 0.0
H3834 H 0.61223 0.24021 0.29155 0.0
H3835 H 0.6026 0.24613 0.30707 0.0
H3836 H 0.62229 0.24533 0.30806 0.0
H3837 H 0.58472 0.18116 0.31371 0.0
H3838 H 0.57422 0.19764 0.31174 0.0
H3839 H 0.58229 0.18978 0.29612 0.0
H3840 H 0.55308 0.23932 0.29794 0.0
H3841 H 0.57414 0.22199 0.26068 0.0
H3842 H 0.58377 0.23738 0.32279 0.0
H3843 H 0.57283 0.22125 0.32451 0.0
H3844 H 0.5641 0.23861 0.32165 0.0
H3845 H 0.60898 0.21734 0.27718 0.0
H3846 H 0.59719 0.21157 0.26204 0.0
H3847 H 0.59914 0.20043 0.27818 0.0
C3848 C 0.29756 0.11601 0.33537 0.0
C3849 C 0.31285 0.11505 0.33596 0.0
C3850 C 0.28875 0.10393 0.33135 0.0
C3851 C 0.29539 0.09057 0.32784 0.0
C3852 C 0.31081 0.08946 0.32866 0.0
C3853 C 0.31934 0.10171 0.33272 0.0
C3854 C 0.27235 0.10554 0.33057 0.0
C3855 C 0.3183 0.07539 0.32504 0.0
C3856 C 0.27316 0.05524 0.32763 0.0
C3857 C 0.27014 0.05322 0.31264 0.0
C3858 C 0.2812 0.06746 0.33279 0.0
C3859 C 0.28629 0.0779 0.3227 0.0
C3860 C 0.28301 0.07607 0.30759 0.0
C3861 C 0.27498 0.06377 0.30276 0.0
C3862 C 0.28447 0.06906 0.34898 0.0
C3863 C 0.28816 0.087 0.29649 0.0
H3864 H 0.29247 0.12633 0.33771 0.0
H3865 H 0.33114 0.10082 0.33338 0.0
H3866 H 0.26819 0.10388 0.31916 0.0
H3867 H 0.26714 0.09707 0.33738 0.0
H3868 H 0.26887 0.11645 0.33431 0.0
H3869 H 0.33036 0.07618 0.3267 0.0
H3870 H 0.31417 0.06639 0.33192 0.0
H3871 H 0.31575 0.0724 0.31348 0.0
H3872 H 0.26956 0.04709 0.33531 0.0
H3873 H 0.27244 0.06244 0.2912 0.0
H3874 H 0.28061 0.07977 0.35285 0.0
H3875 H 0.29646 0.06878 0.35121 0.0
H3876 H 0.27925 0.06028 0.35543 0.0
H3877 H 0.28415 0.09803 0.29913 0.0
H3878 H 0.28437 0.08416 0.28518 0.0
H3879 H 0.30028 0.0876 0.29689 0.0
C3880 C 0.41343 0.81344 0.31783 0.0
C3881 C 0.40123 0.80639 0.3236 0.0
C3882 C 0.42541 0.80546 0.31315 0.0
C3883 C 0.42522 0.79004 0.31426 0.0
C3884 C 0.41297 0.78286 0.32011 0.0
C3885 C 0.40113 0.79111 0.32468 0.0
C3886 C 0.43828 0.81352 0.307 0.0
C3887 C 0.41231 0.76644 0.32143 0.0
C3888 C 0.44981 0.76871 0.2896 0.0
C3889 C 0.46173 0.76548 0.29908 0.0
C3890 C 0.43785 0.77661 0.29441 0.0
C3891 C 0.43774 0.78141 0.3091 0.0
C3892 C 0.44963 0.77804 0.31879 0.0
C3893 C 0.46147 0.77012 0.31367 0.0
C3894 C 0.42536 0.7799 0.28374 0.0
C3895 C 0.44993 0.78296 0.33453 0.0
H3896 H 0.4137 0.82524 0.31713 0.0
H3897 H 0.39167 0.78555 0.32892 0.0
H3898 H 0.44839 0.81097 0.3135 0.0
H3899 H 0.43995 0.80988 0.29563 0.0
H3900 H 0.43679 0.82554 0.30697 0.0
H3901 H 0.40211 0.76254 0.32645 0.0
H3902 H 0.41299 0.7614 0.31047 0.0
H3903 H 0.42179 0.76253 0.32816 0.0
H3904 H 0.44978 0.76496 0.27839 0.0
H3905 H 0.47067 0.76783 0.32103 0.0
H3906 H 0.42404 0.79188 0.28269 0.0
H3907 H 0.415 0.77539 0.28787 0.0
H3908 H 0.42706 0.77529 0.27273 0.0
H3909 H 0.44957 0.79505 0.33504 0.0
H3910 H 0.45984 0.77923 0.34073 0.0
H3911 H 0.44013 0.77871 0.34 0.0
C3912 C 0.29541 0.91707 0.69856 0.0
C3913 C 0.3104 0.91736 0.69581 0.0
C3914 C 0.28882 0.92873 0.70576 0.0
C3915 C 0.29743 0.94094 0.71037 0.0
C3916 C 0.31231 0.94172 0.70667 0.0
C3917 C 0.31859 0.92997 0.69944 0.0
C3918 C 0.2729 0.92749 0.70934 0.0
C3919 C 0.32191 0.95453 0.71128 0.0
C3920 C 0.28202 0.97554 0.7271 0.0
C3921 C 0.2849 0.97294 0.74201 0.0
C3922 C 0.28543 0.96497 0.71655 0.0
C3923 C 0.29177 0.95157 0.7211 0.0
C3924 C 0.29388 0.94867 0.7362 0.0
C3925 C 0.29044 0.95935 0.7464 0.0
C3926 C 0.28288 0.96842 0.70057 0.0
C3927 C 0.30046 0.93453 0.74163 0.0
H3928 H 0.28897 0.9074 0.69582 0.0
H3929 H 0.33009 0.93045 0.69704 0.0
H3930 H 0.27199 0.92484 0.7211 0.0
H3931 H 0.26728 0.938 0.70732 0.0
H3932 H 0.26715 0.9188 0.70284 0.0
H3933 H 0.33268 0.95436 0.70606 0.0
H3934 H 0.31646 0.96496 0.70849 0.0
H3935 H 0.32383 0.9543 0.72332 0.0
H3936 H 0.27775 0.98602 0.72365 0.0
H3937 H 0.29247 0.95715 0.75792 0.0
H3938 H 0.27762 0.95901 0.69477 0.0
H3939 H 0.29353 0.97052 0.69551 0.0
H3940 H 0.27594 0.97818 0.69888 0.0
H3941 H 0.29428 0.92508 0.7369 0.0
H3942 H 0.30055 0.93362 0.75373 0.0
H3943 H 0.31188 0.93376 0.73805 0.0
C3944 C 0.5944 0.7991 0.68915 0.0
C3945 C 0.60713 0.80162 0.69783 0.0
C3946 C 0.58179 0.793 0.69517 0.0
C3947 C 0.5819 0.78939 0.71022 0.0
C3948 C 0.59503 0.79096 0.71875 0.0
C3949 C 0.60746 0.79701 0.71245 0.0
C3950 C 0.56808 0.79134 0.68565 0.0
C3951 C 0.59571 0.78719 0.73481 0.0
C3952 C 0.54852 0.79495 0.73266 0.0
C3953 C 0.54429 0.78059 0.7359 0.0
C3954 C 0.56022 0.7979 0.72364 0.0
C3955 C 0.56797 0.78619 0.71764 0.0
C3956 C 0.56318 0.77164 0.72008 0.0
C3957 C 0.55135 0.76899 0.72921 0.0
C3958 C 0.56483 0.81359 0.72128 0.0
C3959 C 0.57105 0.75887 0.71375 0.0
H3960 H 0.59404 0.80262 0.67784 0.0
H3961 H 0.61735 0.79861 0.71914 0.0
H3962 H 0.56258 0.78074 0.68773 0.0
H3963 H 0.56033 0.80009 0.6883 0.0
H3964 H 0.5704 0.79211 0.67385 0.0
H3965 H 0.60706 0.78753 0.73951 0.0
H3966 H 0.58908 0.79507 0.74087 0.0
H3967 H 0.59102 0.77615 0.73662 0.0
H3968 H 0.54299 0.80398 0.73764 0.0
H3969 H 0.54814 0.75787 0.73168 0.0
H3970 H 0.56584 0.81584 0.70946 0.0
H3971 H 0.57572 0.81559 0.72667 0.0
H3972 H 0.55699 0.82143 0.72577 0.0
H3973 H 0.57341 0.76089 0.70212 0.0
H3974 H 0.56462 0.74857 0.71456 0.0
H3975 H 0.58167 0.75743 0.71976 0.0
C3976 C 0.41557 0.22463 0.72367 0.0
C3977 C 0.41252 0.22268 0.70868 0.0
C3978 C 0.42925 0.22987 0.72886 0.0
C3979 C 0.44017 0.23335 0.7188 0.0
C3980 C 0.43683 0.23237 0.70362 0.0
C3981 C 0.42306 0.227 0.69873 0.0
C3982 C 0.4323 0.23082 0.74515 0.0
C3983 C 0.44808 0.23614 0.69254 0.0
C3984 C 0.47444 0.25157 0.73565 0.0
C3985 C 0.48306 0.23935 0.73885 0.0
C3986 C 0.46068 0.24997 0.72838 0.0
C3987 C 0.45552 0.23585 0.72429 0.0
C3988 C 0.46465 0.22366 0.7267 0.0
C3989 C 0.47827 0.22557 0.73392 0.0
C3990 C 0.45134 0.26325 0.72586 0.0
C3991 C 0.45968 0.20841 0.72246 0.0
H3992 H 0.40738 0.22165 0.73142 0.0
H3993 H 0.42084 0.22551 0.68712 0.0
H3994 H 0.44034 0.22238 0.74853 0.0
H3995 H 0.43717 0.2416 0.74811 0.0
H3996 H 0.42228 0.22913 0.75145 0.0
H3997 H 0.44313 0.23713 0.68134 0.0
H3998 H 0.45378 0.24654 0.69547 0.0
H3999 H 0.45645 0.22749 0.69247 0.0
H4000 H 0.47806 0.26224 0.73949 0.0
H4001 H 0.48496 0.2161 0.73622 0.0
H4002 H 0.44248 0.26327 0.73381 0.0
H4003 H 0.44612 0.26306 0.71474 0.0
H4004 H 0.45778 0.27354 0.72724 0.0
H4005 H 0.4503 0.20509 0.7291 0.0
H4006 H 0.46848 0.20027 0.72416 0.0
H4007 H 0.45592 0.20809 0.71082 0.0
C4008 C 0.68607 0.73871 0.10702 0.0
C4009 C 0.68796 0.72354 0.10642 0.0
C4010 C 0.68986 0.74775 0.09531 0.0
C4011 C 0.69571 0.7415 0.08268 0.0
C4012 C 0.69747 0.72619 0.08192 0.0
C4013 C 0.69356 0.71741 0.09377 0.0
C4014 C 0.68784 0.76403 0.09656 0.0
C4015 C 0.70366 0.71909 0.06865 0.0
C4016 C 0.69584 0.76285 0.04695 0.0
C4017 C 0.71036 0.76789 0.04679 0.0
C4018 C 0.69084 0.75444 0.05866 0.0
C4019 C 0.70058 0.751 0.0705 0.0
C4020 C 0.71515 0.75632 0.07054 0.0
C4021 C 0.71984 0.7647 0.05873 0.0
C4022 C 0.67521 0.749 0.05822 0.0
C4023 C 0.72587 0.75297 0.08298 0.0
H4024 H 0.68192 0.74357 0.1168 0.0
H4025 H 0.69484 0.70569 0.09309 0.0
H4026 H 0.69861 0.76967 0.09626 0.0
H4027 H 0.68109 0.76808 0.08714 0.0
H4028 H 0.68253 0.76711 0.10681 0.0
H4029 H 0.70394 0.70701 0.06959 0.0
H4030 H 0.69705 0.72202 0.05871 0.0
H4031 H 0.71494 0.7232 0.0671 0.0
H4032 H 0.68848 0.76516 0.03774 0.0
H4033 H 0.73098 0.76878 0.05886 0.0
H4034 H 0.66972 0.7524 0.06825 0.0
H4035 H 0.67498 0.73689 0.05796 0.0
H4036 H 0.66885 0.75312 0.04855 0.0
H4037 H 0.72153 0.75672 0.09347 0.0
H4038 H 0.73671 0.75824 0.08153 0.0
H4039 H 0.72739 0.741 0.08385 0.0
C4040 C 0.2942 0.71293 0.10373 0.0
C4041 C 0.29896 0.69843 0.10395 0.0
C4042 C 0.28819 0.7192 0.09092 0.0
C4043 C 0.28689 0.7108 0.07795 0.0
C4044 C 0.29079 0.69589 0.07833 0.0
C4045 C 0.29679 0.68987 0.09133 0.0
C4046 C 0.28409 0.73512 0.09106 0.0
C4047 C 0.2895 0.68652 0.0648 0.0
C4048 C 0.26594 0.72879 0.04606 0.0
C4049 C 0.27734 0.73593 0.039 0.0
C4050 C 0.26886 0.71996 0.05842 0.0
C4051 C 0.28348 0.71823 0.06373 0.0
C4052 C 0.29502 0.72475 0.05607 0.0
C4053 C 0.2918 0.73351 0.04386 0.0
C4054 C 0.25627 0.71313 0.06623 0.0
C4055 C 0.31078 0.72312 0.06122 0.0
H4056 H 0.29556 0.71952 0.11351 0.0
H4057 H 0.30047 0.67867 0.09139 0.0
H4058 H 0.29188 0.7415 0.08451 0.0
H4059 H 0.27303 0.73661 0.08598 0.0
H4060 H 0.28426 0.73969 0.10229 0.0
H4061 H 0.29075 0.67474 0.06737 0.0
H4062 H 0.27879 0.68814 0.05901 0.0
H4063 H 0.29812 0.68977 0.05719 0.0
H4064 H 0.25474 0.73066 0.04239 0.0
H4065 H 0.30068 0.73886 0.03836 0.0
H4066 H 0.25481 0.71893 0.0767 0.0
H4067 H 0.25855 0.70155 0.06889 0.0
H4068 H 0.24587 0.71369 0.05963 0.0
H4069 H 0.31256 0.72856 0.07197 0.0
H4070 H 0.3185 0.72799 0.05344 0.0
H4071 H 0.31345 0.71143 0.06271 0.0
C4072 C 0.33166 0.28675 0.11551 0.0
C4073 C 0.33599 0.30148 0.11512 0.0
C4074 C 0.32416 0.2802 0.10349 0.0
C4075 C 0.32093 0.28857 0.09079 0.0
C4076 C 0.32609 0.30318 0.09004 0.0
C4077 C 0.33352 0.30944 0.10219 0.0
C4078 C 0.31888 0.26461 0.10475 0.0
C4079 C 0.323 0.31249 0.0767 0.0
C4080 C 0.30531 0.27199 0.05517 0.0
C4081 C 0.29047 0.2754 0.05606 0.0
C4082 C 0.31539 0.27573 0.06662 0.0
C4083 C 0.31045 0.28292 0.07921 0.0
C4084 C 0.29538 0.28572 0.08038 0.0
C4085 C 0.28563 0.28197 0.06883 0.0
C4086 C 0.33137 0.27253 0.06498 0.0
C4087 C 0.28956 0.29322 0.09363 0.0
H4088 H 0.33349 0.28053 0.12546 0.0
H4089 H 0.33709 0.32075 0.10172 0.0
H4090 H 0.30687 0.26444 0.10603 0.0
H4091 H 0.32112 0.25841 0.0947 0.0
H4092 H 0.32409 0.25895 0.11429 0.0
H4093 H 0.32914 0.32301 0.07716 0.0
H4094 H 0.32586 0.30658 0.06665 0.0
H4095 H 0.31114 0.31488 0.07579 0.0
H4096 H 0.30912 0.26693 0.04534 0.0
H4097 H 0.27416 0.28447 0.0697 0.0
H4098 H 0.33593 0.26712 0.07495 0.0
H4099 H 0.33751 0.28293 0.06366 0.0
H4100 H 0.33324 0.26548 0.05538 0.0
H4101 H 0.29313 0.2874 0.10375 0.0
H4102 H 0.27744 0.29377 0.09325 0.0
H4103 H 0.29404 0.30451 0.09439 0.0
C4104 C 0.69996 0.33487 0.08995 0.0
C4105 C 0.70835 0.33629 0.10301 0.0
C4106 C 0.70541 0.32765 0.07781 0.0
C4107 C 0.71959 0.32163 0.07875 0.0
C4108 C 0.72829 0.32341 0.09175 0.0
C4109 C 0.72258 0.33076 0.10371 0.0
C4110 C 0.69584 0.32611 0.06412 0.0
C4111 C 0.74343 0.31711 0.0932 0.0
C4112 C 0.72677 0.28953 0.05383 0.0
C4113 C 0.7346 0.29615 0.04267 0.0
C4114 C 0.72196 0.29767 0.06568 0.0
C4115 C 0.72498 0.31285 0.06639 0.0
C4116 C 0.73289 0.31962 0.05518 0.0
C4117 C 0.73763 0.31118 0.04348 0.0
C4118 C 0.71365 0.29002 0.07746 0.0
C4119 C 0.73623 0.33578 0.05548 0.0
H4120 H 0.68903 0.33928 0.08928 0.0
H4121 H 0.72906 0.33171 0.11381 0.0
H4122 H 0.70171 0.3302 0.05452 0.0
H4123 H 0.69321 0.31442 0.06212 0.0
H4124 H 0.68543 0.33215 0.06485 0.0
H4125 H 0.74911 0.32016 0.10369 0.0
H4126 H 0.74273 0.30503 0.09253 0.0
H4127 H 0.75015 0.32091 0.08407 0.0
H4128 H 0.72459 0.2779 0.05342 0.0
H4129 H 0.74353 0.3164 0.03483 0.0
H4130 H 0.70262 0.29479 0.07818 0.0
H4131 H 0.71938 0.29164 0.08823 0.0
H4132 H 0.71239 0.27811 0.07541 0.0
H4133 H 0.7259 0.34199 0.05537 0.0
H4134 H 0.74268 0.33934 0.04604 0.0
H4135 H 0.74243 0.33868 0.06572 0.0
C4136 C 0.70297 0.32856 0.91746 0.0
C4137 C 0.7106 0.33232 0.90496 0.0
C4138 C 0.71032 0.32329 0.9301 0.0
C4139 C 0.72569 0.32168 0.93025 0.0
C4140 C 0.73346 0.32541 0.91765 0.0
C4141 C 0.72583 0.33069 0.90519 0.0
C4142 C 0.70165 0.31949 0.94332 0.0
C4143 C 0.74983 0.32377 0.91732 0.0
C4144 C 0.74689 0.3203 0.96678 0.0
C4145 C 0.74911 0.30526 0.96857 0.0
C4146 C 0.73922 0.32578 0.95442 0.0
C4147 C 0.73366 0.31602 0.94354 0.0
C4148 C 0.73583 0.30083 0.9453 0.0
C4149 C 0.7435 0.29565 0.95778 0.0
C4150 C 0.7371 0.34204 0.95298 0.0
C4151 C 0.73011 0.29006 0.93395 0.0
H4152 H 0.69123 0.32996 0.91745 0.0
H4153 H 0.7318 0.33337 0.89551 0.0
H4154 H 0.70328 0.30787 0.94627 0.0
H4155 H 0.70559 0.32613 0.95281 0.0
H4156 H 0.68976 0.32136 0.94145 0.0
H4157 H 0.75426 0.3272 0.9067 0.0
H4158 H 0.75522 0.33039 0.92614 0.0
H4159 H 0.7528 0.31222 0.91937 0.0
H4160 H 0.75116 0.32782 0.97505 0.0
H4161 H 0.74516 0.28402 0.95903 0.0
H4162 H 0.72528 0.3445 0.95191 0.0
H4163 H 0.74222 0.34607 0.94291 0.0
H4164 H 0.74192 0.34816 0.96248 0.0
H4165 H 0.7181 0.29109 0.93243 0.0
H4166 H 0.73264 0.2786 0.93698 0.0
H4167 H 0.73496 0.29249 0.92327 0.0
C4168 C 0.73748 0.71248 0.91855 0.0
C4169 C 0.72333 0.70642 0.91853 0.0
C4170 C 0.74287 0.72106 0.93032 0.0
C4171 C 0.73391 0.72362 0.94232 0.0
C4172 C 0.72007 0.71661 0.94282 0.0
C4173 C 0.71495 0.70812 0.93092 0.0
C4174 C 0.7577 0.72827 0.92937 0.0
C4175 C 0.71019 0.71893 0.95544 0.0
C4176 C 0.74712 0.74368 0.97699 0.0
C4177 C 0.74149 0.75762 0.97428 0.0
C4178 C 0.74526 0.7325 0.96647 0.0
C4179 C 0.73773 0.73546 0.953 0.0
C4180 C 0.73276 0.74975 0.95001 0.0
C4181 C 0.73466 0.76059 0.96067 0.0
C4182 C 0.75077 0.71741 0.97002 0.0
C4183 C 0.72484 0.75349 0.93575 0.0
H4184 H 0.74402 0.71123 0.90901 0.0
H4185 H 0.70413 0.70321 0.9311 0.0
H4186 H 0.75632 0.74 0.9267 0.0
H4187 H 0.76386 0.72763 0.94 0.0
H4188 H 0.7643 0.72323 0.9208 0.0
H4189 H 0.70071 0.71125 0.95513 0.0
H4190 H 0.71634 0.71758 0.96601 0.0
H4191 H 0.70599 0.73024 0.95507 0.0
H4192 H 0.75241 0.74135 0.98749 0.0
H4193 H 0.73051 0.77142 0.95841 0.0
H4194 H 0.75683 0.71298 0.96076 0.0
H4195 H 0.74136 0.70997 0.97177 0.0
H4196 H 0.75802 0.71733 0.98001 0.0
H4197 H 0.73144 0.75025 0.92639 0.0
H4198 H 0.72248 0.76533 0.9348 0.0
H4199 H 0.71434 0.74735 0.93485 0.0
C4200 C 0.31207 0.72692 0.90273 0.0
C4201 C 0.32606 0.72083 0.90311 0.0
C4202 C 0.30672 0.73405 0.91499 0.0
C4203 C 0.31549 0.73495 0.92802 0.0
C4204 C 0.32966 0.72888 0.92845 0.0
C4205 C 0.3348 0.72197 0.91596 0.0
C4206 C 0.29163 0.74054 0.91402 0.0
C4207 C 0.33929 0.72946 0.94217 0.0
C4208 C 0.30646 0.76347 0.95649 0.0
C4209 C 0.29825 0.75526 0.96626 0.0
C4210 C 0.31214 0.75703 0.94399 0.0
C4211 C 0.3097 0.74196 0.94131 0.0
C4212 C 0.30158 0.73358 0.95124 0.0
C4213 C 0.29589 0.74034 0.96353 0.0
C4214 C 0.32057 0.76638 0.93358 0.0
C4215 C 0.2989 0.71745 0.9489 0.0
H4216 H 0.30534 0.72622 0.89278 0.0
H4217 H 0.34557 0.71715 0.91635 0.0
H4218 H 0.28454 0.73515 0.92204 0.0
H4219 H 0.29223 0.75231 0.91685 0.0
H4220 H 0.28639 0.73935 0.90295 0.0
H4221 H 0.3501 0.7244 0.94065 0.0
H4222 H 0.34105 0.74094 0.94568 0.0
H4223 H 0.33382 0.72369 0.95116 0.0
H4224 H 0.30819 0.77503 0.95845 0.0
H4225 H 0.28974 0.7339 0.97115 0.0
H4226 H 0.31508 0.76614 0.92258 0.0
H4227 H 0.3317 0.76198 0.93242 0.0
H4228 H 0.32156 0.77791 0.93726 0.0
H4229 H 0.29274 0.71563 0.93839 0.0
H4230 H 0.29265 0.71242 0.95781 0.0
H4231 H 0.30947 0.71174 0.94818 0.0
C4232 C 0.3026 0.33002 0.9149 0.0
C4233 C 0.31786 0.32908 0.91446 0.0
C4234 C 0.29511 0.32543 0.92726 0.0
C4235 C 0.30307 0.31975 0.93948 0.0
C4236 C 0.3185 0.31901 0.93921 0.0
C4237 C 0.32569 0.32369 0.92673 0.0
C4238 C 0.27866 0.3264 0.92711 0.0
C4239 C 0.32739 0.31307 0.95204 0.0
C4240 C 0.28552 0.31787 0.97652 0.0
C4241 C 0.28133 0.30311 0.97726 0.0
C4242 C 0.29245 0.32349 0.96424 0.0
C4243 C 0.29527 0.31414 0.95238 0.0
C4244 C 0.29089 0.29929 0.95297 0.0
C4245 C 0.28398 0.29397 0.96537 0.0
C4246 C 0.29696 0.33938 0.96403 0.0
C4247 C 0.29363 0.28896 0.94054 0.0
H4248 H 0.29644 0.334 0.90541 0.0
H4249 H 0.3375 0.32313 0.92658 0.0
H4250 H 0.27381 0.3153 0.92798 0.0
H4251 H 0.27519 0.33272 0.93669 0.0
H4252 H 0.27414 0.33164 0.91702 0.0
H4253 H 0.33932 0.31361 0.95027 0.0
H4254 H 0.3251 0.31929 0.96208 0.0
H4255 H 0.32423 0.30153 0.95402 0.0
H4256 H 0.28367 0.32498 0.98569 0.0
H4257 H 0.28055 0.28264 0.9657 0.0
H4258 H 0.29207 0.34481 0.95422 0.0
H4259 H 0.309 0.34034 0.96334 0.0
H4260 H 0.29358 0.34532 0.97391 0.0
H4261 H 0.28845 0.29314 0.93026 0.0
H4262 H 0.28931 0.27779 0.94258 0.0
H4263 H 0.30553 0.28828 0.93884 0.0
C4264 C 0.59511 0.68283 0.20844 0.0
C4265 C 0.60658 0.69306 0.20787 0.0
C4266 C 0.58236 0.6859 0.21591 0.0
C4267 C 0.58113 0.69946 0.22314 0.0
C4268 C 0.5928 0.70972 0.22283 0.0
C4269 C 0.60533 0.70643 0.21513 0.0
C4270 C 0.57009 0.67475 0.21582 0.0
C4271 C 0.592 0.72423 0.23056 0.0
C4272 C 0.5437 0.71482 0.2305 0.0
C4273 C 0.54219 0.71147 0.24532 0.0
C4274 C 0.55615 0.71067 0.22308 0.0
C4275 C 0.56748 0.70313 0.2307 0.0
C4276 C 0.56594 0.69953 0.24562 0.0
C4277 C 0.55326 0.70366 0.25272 0.0
C4278 C 0.55725 0.71454 0.20712 0.0
C4279 C 0.57784 0.69166 0.25417 0.0
H4280 H 0.59598 0.67253 0.20273 0.0
H4281 H 0.61425 0.71431 0.21487 0.0
H4282 H 0.56739 0.67186 0.22717 0.0
H4283 H 0.56012 0.67944 0.21051 0.0
H4284 H 0.57287 0.66462 0.20993 0.0
H4285 H 0.60223 0.73076 0.22974 0.0
H4286 H 0.58281 0.73065 0.2258 0.0
H4287 H 0.58984 0.72249 0.24228 0.0
H4288 H 0.53509 0.72069 0.2247 0.0
H4289 H 0.55222 0.70119 0.26421 0.0
H4290 H 0.55928 0.70459 0.20065 0.0
H4291 H 0.56664 0.72209 0.20567 0.0
H4292 H 0.5472 0.71982 0.20262 0.0
H4293 H 0.58039 0.68124 0.24871 0.0
H4294 H 0.57478 0.68927 0.26556 0.0
H4295 H 0.58799 0.6984 0.25451 0.0
C4296 C 0.33546 0.59325 0.20365 0.0
C4297 C 0.32558 0.60484 0.20284 0.0
C4298 C 0.33267 0.58081 0.21213 0.0
C4299 C 0.31973 0.57996 0.22012 0.0
C4300 C 0.30968 0.59161 0.21931 0.0
C4301 C 0.31269 0.60387 0.21063 0.0
C4302 C 0.34358 0.56857 0.21254 0.0
C4303 C 0.2958 0.59117 0.22773 0.0
C4304 C 0.30571 0.54261 0.23163 0.0
C4305 C 0.31067 0.54184 0.24629 0.0
C4306 C 0.30863 0.55489 0.223 0.0
C4307 C 0.31664 0.56681 0.22917 0.0
C4308 C 0.32173 0.56611 0.24395 0.0
C4309 C 0.31875 0.5536 0.25231 0.0
C4310 C 0.30315 0.55511 0.20725 0.0
C4311 C 0.33021 0.57863 0.25098 0.0
H4312 H 0.34536 0.59386 0.19753 0.0
H4313 H 0.3051 0.61286 0.2102 0.0
H4314 H 0.34766 0.56672 0.22393 0.0
H4315 H 0.3382 0.55829 0.2087 0.0
H4316 H 0.35306 0.57088 0.20563 0.0
H4317 H 0.28917 0.60113 0.22601 0.0
H4318 H 0.28907 0.58153 0.22437 0.0
H4319 H 0.29849 0.59001 0.23958 0.0
H4320 H 0.29965 0.53348 0.22684 0.0
H4321 H 0.32248 0.55315 0.26366 0.0
H4322 H 0.31246 0.55661 0.19995 0.0
H4323 H 0.29573 0.56446 0.20537 0.0
H4324 H 0.29719 0.54491 0.20407 0.0
H4325 H 0.34026 0.58086 0.24491 0.0
H4326 H 0.33337 0.57641 0.26259 0.0
H4327 H 0.32356 0.58868 0.25045 0.0
C4328 C 0.4276 0.29495 0.22308 0.0
C4329 C 0.42633 0.30996 0.22036 0.0
C4330 C 0.44052 0.28909 0.22925 0.0
C4331 C 0.45254 0.29845 0.23283 0.0
C4332 C 0.45104 0.31371 0.23093 0.0
C4333 C 0.43797 0.31928 0.2247 0.0
C4334 C 0.44157 0.27276 0.23115 0.0
C4335 C 0.46353 0.32408 0.23467 0.0
C4336 C 0.48432 0.28033 0.25381 0.0
C4337 C 0.49277 0.2757 0.24225 0.0
C4338 C 0.47149 0.28844 0.25107 0.0
C4339 C 0.46714 0.292 0.23647 0.0
C4340 C 0.47623 0.28815 0.22494 0.0
C4341 C 0.48885 0.28006 0.22797 0.0
C4342 C 0.46218 0.29245 0.26367 0.0
C4343 C 0.47217 0.2918 0.20922 0.0
H4344 H 0.41856 0.28769 0.22009 0.0
H4345 H 0.43714 0.33089 0.22262 0.0
H4346 H 0.44935 0.26836 0.22329 0.0
H4347 H 0.44584 0.27007 0.2423 0.0
H4348 H 0.43085 0.26716 0.22927 0.0
H4349 H 0.45995 0.33562 0.23477 0.0
H4350 H 0.46861 0.32139 0.24551 0.0
H4351 H 0.47208 0.32299 0.22648 0.0
H4352 H 0.48726 0.27692 0.26486 0.0
H4353 H 0.49544 0.27664 0.219 0.0
H4354 H 0.45222 0.28542 0.26348 0.0
H4355 H 0.45855 0.30393 0.2627 0.0
H4356 H 0.46808 0.29099 0.27438 0.0
H4357 H 0.46213 0.28566 0.20574 0.0
H4358 H 0.48097 0.28904 0.20169 0.0
H4359 H 0.46978 0.30359 0.20809 0.0
C4360 C 0.71104 0.42457 0.22191 0.0
C4361 C 0.70678 0.42543 0.20706 0.0
C4362 C 0.71842 0.43625 0.22902 0.0
C4363 C 0.7216 0.44912 0.22109 0.0
C4364 C 0.71652 0.45036 0.20635 0.0
C4365 C 0.70922 0.43852 0.19953 0.0
C4366 C 0.72363 0.43446 0.24473 0.0
C4367 C 0.71958 0.46389 0.1975 0.0
C4368 C 0.73729 0.48376 0.23924 0.0
C4369 C 0.75212 0.48255 0.23619 0.0
C4370 C 0.72716 0.47275 0.23482 0.0
C4371 C 0.73207 0.46027 0.22734 0.0
C4372 C 0.74714 0.45876 0.2249 0.0
C4373 C 0.75691 0.46989 0.2293 0.0
C4374 C 0.71118 0.47473 0.23765 0.0
C4375 C 0.75294 0.4456 0.21713 0.0
H4376 H 0.70924 0.41449 0.22782 0.0
H4377 H 0.70569 0.43938 0.18814 0.0
H4378 H 0.73564 0.43292 0.24521 0.0
H4379 H 0.72133 0.44438 0.25114 0.0
H4380 H 0.71841 0.42489 0.24998 0.0
H4381 H 0.71343 0.46386 0.18682 0.0
H4382 H 0.71669 0.47382 0.20364 0.0
H4383 H 0.73143 0.46461 0.19541 0.0
H4384 H 0.73353 0.49352 0.24455 0.0
H4385 H 0.7684 0.46875 0.2271 0.0
H4386 H 0.70658 0.46474 0.24266 0.0
H4387 H 0.70507 0.47651 0.22713 0.0
H4388 H 0.70932 0.48417 0.24492 0.0
H4389 H 0.74937 0.43542 0.22258 0.0
H4390 H 0.76506 0.4457 0.21686 0.0
H4391 H 0.74844 0.44528 0.20572 0.0
C4392 C 0.60839 0.31982 0.79628 0.0
C4393 C 0.60842 0.32442 0.81089 0.0
C4394 C 0.59669 0.31157 0.79016 0.0
C4395 C 0.58468 0.30791 0.79882 0.0
C4396 C 0.58437 0.31307 0.81339 0.0
C4397 C 0.59628 0.32119 0.81927 0.0
C4398 C 0.59754 0.30613 0.77465 0.0
C4399 C 0.57173 0.30952 0.82296 0.0
C4400 C 0.54968 0.29166 0.78131 0.0
C4401 C 0.55148 0.2768 0.78446 0.0
C4402 C 0.56046 0.30199 0.78576 0.0
C4403 C 0.57335 0.29727 0.79332 0.0
C4404 C 0.57537 0.28222 0.79606 0.0
C4405 C 0.5644 0.27223 0.79168 0.0
C4406 C 0.55791 0.31796 0.78273 0.0
C4407 C 0.58902 0.27666 0.80387 0.0
H4408 H 0.61779 0.32219 0.78978 0.0
H4409 H 0.59615 0.32492 0.8305 0.0
H4410 H 0.59894 0.29412 0.77472 0.0
H4411 H 0.58725 0.30844 0.76837 0.0
H4412 H 0.6068 0.31118 0.7689 0.0
H4413 H 0.57241 0.31561 0.83345 0.0
H4414 H 0.56122 0.3121 0.81718 0.0
H4415 H 0.57159 0.29766 0.82542 0.0
H4416 H 0.5397 0.29524 0.77576 0.0
H4417 H 0.56597 0.26074 0.794 0.0
H4418 H 0.5672 0.32269 0.77681 0.0
H4419 H 0.55731 0.32396 0.79321 0.0
H4420 H 0.54766 0.3198 0.77618 0.0
H4421 H 0.59886 0.28039 0.79813 0.0
H4422 H 0.58917 0.26456 0.80457 0.0
H4423 H 0.58986 0.28116 0.81511 0.0
C4424 C 0.71917 0.60738 0.80721 0.0
C4425 C 0.72705 0.61622 0.81731 0.0
C4426 C 0.72554 0.59513 0.8009 0.0
C4427 C 0.74012 0.59143 0.8049 0.0
C4428 C 0.74818 0.6003 0.81502 0.0
C4429 C 0.74161 0.61262 0.821 0.0
C4430 C 0.7166 0.58605 0.79004 0.0
C4431 C 0.76371 0.59667 0.81966 0.0
C4432 C 0.74943 0.55167 0.79833 0.0
C4433 C 0.75635 0.55243 0.78493 0.0
C4434 C 0.74472 0.56435 0.80531 0.0
C4435 C 0.74677 0.57813 0.79862 0.0
C4436 C 0.75433 0.57903 0.78541 0.0
C4437 C 0.75913 0.5662 0.77879 0.0
C4438 C 0.73698 0.56292 0.81953 0.0
C4439 C 0.75664 0.59347 0.77784 0.0
H4440 H 0.70787 0.60985 0.80442 0.0
H4441 H 0.74794 0.61948 0.82856 0.0
H4442 H 0.72241 0.58515 0.77966 0.0
H4443 H 0.71515 0.57483 0.79435 0.0
H4444 H 0.70563 0.59072 0.78762 0.0
H4445 H 0.7685 0.60465 0.82765 0.0
H4446 H 0.76406 0.58564 0.82466 0.0
H4447 H 0.77065 0.59642 0.80999 0.0
H4448 H 0.7473 0.5411 0.80318 0.0
H4449 H 0.76439 0.56692 0.7684 0.0
H4450 H 0.72533 0.56588 0.8178 0.0
H4451 H 0.74185 0.57057 0.82778 0.0
H4452 H 0.73749 0.55166 0.824 0.0
H4453 H 0.74592 0.59788 0.77404 0.0
H4454 H 0.76368 0.59247 0.76826 0.0
H4455 H 0.76171 0.60154 0.78554 0.0
C4456 C 0.41918 0.7221 0.80336 0.0
C4457 C 0.41674 0.70718 0.80587 0.0
C4458 C 0.43234 0.7272 0.79769 0.0
C4459 C 0.44339 0.71714 0.7944 0.0
C4460 C 0.44077 0.70201 0.79631 0.0
C4461 C 0.42749 0.69721 0.80203 0.0
C4462 C 0.43463 0.74342 0.79576 0.0
C4463 C 0.45225 0.69094 0.79294 0.0
C4464 C 0.47476 0.73276 0.77267 0.0
C4465 C 0.48461 0.73707 0.78396 0.0
C4466 C 0.46151 0.72561 0.77579 0.0
C4467 C 0.45815 0.72268 0.79052 0.0
C4468 C 0.46852 0.72622 0.80183 0.0
C4469 C 0.48156 0.73338 0.79841 0.0
C4470 C 0.45079 0.72193 0.76342 0.0
C4471 C 0.4655 0.72319 0.81766 0.0
H4472 H 0.41083 0.72986 0.80601 0.0
H4473 H 0.42575 0.68567 0.80399 0.0
H4474 H 0.44341 0.74733 0.80352 0.0
H4475 H 0.43822 0.74583 0.78456 0.0
H4476 H 0.42457 0.74969 0.79771 0.0
H4477 H 0.44792 0.67958 0.79333 0.0
H4478 H 0.45661 0.69298 0.78197 0.0
H4479 H 0.46153 0.69198 0.80101 0.0
H4480 H 0.47701 0.73564 0.76149 0.0
H4481 H 0.4892 0.73655 0.8072 0.0
H4482 H 0.44129 0.72931 0.7638 0.0
H4483 H 0.44658 0.7106 0.76454 0.0
H4484 H 0.45574 0.72312 0.75258 0.0
H4485 H 0.45633 0.73006 0.82111 0.0
H4486 H 0.47516 0.72552 0.82501 0.0
H4487 H 0.46215 0.71163 0.81912 0.0
C4488 C 0.3382 0.41354 0.7931 0.0
C4489 C 0.33203 0.41049 0.80663 0.0
C4490 C 0.33398 0.42578 0.78479 0.0
C4491 C 0.32371 0.43559 0.79031 0.0
C4492 C 0.31753 0.43272 0.80398 0.0
C4493 C 0.32155 0.42012 0.81182 0.0
C4494 C 0.34058 0.42826 0.7701 0.0
C4495 C 0.30677 0.44307 0.81042 0.0
C4496 C 0.32409 0.4745 0.77576 0.0
C4497 C 0.31154 0.47457 0.76657 0.0
C4498 C 0.32811 0.46193 0.78365 0.0
C4499 C 0.31961 0.44899 0.78193 0.0
C4500 C 0.30709 0.44894 0.77235 0.0
C4501 C 0.30307 0.46182 0.76498 0.0
C4502 C 0.34125 0.4626 0.79408 0.0
C4503 C 0.29799 0.43527 0.76985 0.0
H4504 H 0.34651 0.40646 0.789 0.0
H4505 H 0.31637 0.41783 0.82203 0.0
H4506 H 0.33179 0.42961 0.76155 0.0
H4507 H 0.34722 0.43846 0.77033 0.0
H4508 H 0.34765 0.41911 0.7669 0.0
H4509 H 0.30335 0.43955 0.82141 0.0
H4510 H 0.31169 0.45417 0.81134 0.0
H4511 H 0.29689 0.44388 0.80312 0.0
H4512 H 0.3305 0.48445 0.7771 0.0
H4513 H 0.29342 0.46192 0.75779 0.0
H4514 H 0.34944 0.45448 0.7909 0.0
H4515 H 0.33793 0.45977 0.80528 0.0
H4516 H 0.34654 0.47357 0.79435 0.0
H4517 H 0.305 0.42628 0.76619 0.0
H4518 H 0.28901 0.43688 0.76155 0.0
H4519 H 0.29316 0.43173 0.78022 0.0
C4520 C 0.711 0.6053 0.1933 0.0
C4521 C 0.7169 0.61848 0.18821 0.0
C4522 C 0.72005 0.59375 0.19783 0.0
C4523 C 0.73542 0.59536 0.19723 0.0
C4524 C 0.74146 0.60855 0.19195 0.0
C4525 C 0.73215 0.61995 0.18753 0.0
C4526 C 0.71316 0.57986 0.20338 0.0
C4527 C 0.75778 0.6107 0.19114 0.0
C4528 C 0.75841 0.57092 0.22229 0.0
C4529 C 0.76227 0.55969 0.2128 0.0
C4530 C 0.74989 0.58269 0.21731 0.0
C4531 C 0.74513 0.58333 0.20245 0.0
C4532 C 0.7493 0.57224 0.19272 0.0
C4533 C 0.75781 0.56056 0.198 0.0
C4534 C 0.74575 0.59431 0.22805 0.0
C4535 C 0.74448 0.57254 0.17678 0.0
H4536 H 0.69924 0.60396 0.19366 0.0
H4537 H 0.73683 0.63013 0.1838 0.0
H4538 H 0.7166 0.57044 0.19678 0.0
H4539 H 0.71696 0.57784 0.21483 0.0
H4540 H 0.70103 0.58026 0.20297 0.0
H4541 H 0.76073 0.62142 0.18634 0.0
H4542 H 0.76297 0.60994 0.20224 0.0
H4543 H 0.76246 0.60193 0.18445 0.0
H4544 H 0.76202 0.5705 0.23366 0.0
H4545 H 0.7606 0.5519 0.19061 0.0
H4546 H 0.7337 0.59453 0.22886 0.0
H4547 H 0.74928 0.60521 0.22416 0.0
H4548 H 0.75071 0.59246 0.23914 0.0
H4549 H 0.73239 0.57172 0.17575 0.0
H4550 H 0.74921 0.56348 0.1705 0.0
H4551 H 0.74774 0.58305 0.17177 0.0
C4552 C 0.7129 0.42225 0.7962 0.0
C4553 C 0.69995 0.42305 0.80385 0.0
C4554 C 0.71804 0.43429 0.7883 0.0
C4555 C 0.71016 0.4475 0.78826 0.0
C4556 C 0.69715 0.4484 0.79611 0.0
C4557 C 0.69215 0.43613 0.80372 0.0
C4558 C 0.73185 0.43284 0.77991 0.0
C4559 C 0.68858 0.46236 0.79655 0.0
C4560 C 0.73077 0.48238 0.77925 0.0
C4561 C 0.72602 0.48493 0.76476 0.0
C4562 C 0.72559 0.47033 0.78706 0.0
C4563 C 0.71559 0.46043 0.78013 0.0
C4564 C 0.71078 0.46293 0.76547 0.0
C4565 C 0.71597 0.47523 0.758 0.0
C4566 C 0.73078 0.46821 0.80275 0.0
C4567 C 0.7003 0.45251 0.75764 0.0
H4568 H 0.71887 0.4121 0.79618 0.0
H4569 H 0.68219 0.4368 0.80973 0.0
H4570 H 0.72956 0.43529 0.76819 0.0
H4571 H 0.74017 0.44087 0.784 0.0
H4572 H 0.73654 0.42174 0.78084 0.0
H4573 H 0.67879 0.46131 0.80331 0.0
H4574 H 0.69563 0.47132 0.80106 0.0
H4575 H 0.68499 0.46559 0.78532 0.0
H4576 H 0.73838 0.48999 0.78456 0.0
H4577 H 0.7124 0.47712 0.74676 0.0
H4578 H 0.73645 0.45762 0.80398 0.0
H4579 H 0.72129 0.46786 0.80995 0.0
H4580 H 0.73837 0.47705 0.80662 0.0
H4581 H 0.70501 0.44141 0.75753 0.0
H4582 H 0.69775 0.45592 0.7462 0.0
H4583 H 0.68994 0.45176 0.76353 0.0
C4584 C 0.61433 0.70929 0.83017 0.0
C4585 C 0.6271 0.70947 0.82214 0.0
C4586 C 0.60173 0.71664 0.82517 0.0
C4587 C 0.60189 0.72452 0.81186 0.0
C4588 C 0.61468 0.72456 0.80358 0.0
C4589 C 0.6271 0.71697 0.80877 0.0
C4590 C 0.58829 0.71614 0.83424 0.0
C4591 C 0.61536 0.73291 0.7894 0.0
C4592 C 0.56528 0.7345 0.79359 0.0
C4593 C 0.56342 0.74884 0.79851 0.0
C4594 C 0.57779 0.7265 0.79771 0.0
C4595 C 0.58881 0.73303 0.80687 0.0
C4596 C 0.58712 0.7476 0.81165 0.0
C4597 C 0.57443 0.75528 0.80748 0.0
C4598 C 0.57907 0.71096 0.7925 0.0
C4599 C 0.59867 0.75504 0.82128 0.0
H4600 H 0.6142 0.70337 0.84041 0.0
H4601 H 0.63696 0.71727 0.80258 0.0
H4602 H 0.58566 0.7273 0.83794 0.0
H4603 H 0.57876 0.71206 0.82755 0.0
H4604 H 0.58973 0.70902 0.844 0.0
H4605 H 0.62594 0.7315 0.78404 0.0
H4606 H 0.60639 0.72929 0.78174 0.0
H4607 H 0.61379 0.74471 0.79148 0.0
H4608 H 0.55676 0.72938 0.7868 0.0
H4609 H 0.57318 0.76641 0.81115 0.0
H4610 H 0.57955 0.70346 0.80203 0.0
H4611 H 0.58935 0.70962 0.78663 0.0
H4612 H 0.56974 0.70759 0.78512 0.0
H4613 H 0.59994 0.74911 0.8318 0.0
H4614 H 0.59597 0.76658 0.82361 0.0
H4615 H 0.60937 0.75479 0.81599 0.0
C4616 C 0.31098 0.60719 0.82316 0.0
C4617 C 0.31348 0.61902 0.81379 0.0
C4618 C 0.30532 0.59385 0.8177 0.0
C4619 C 0.30208 0.59234 0.80253 0.0
C4620 C 0.30379 0.60452 0.79319 0.0
C4621 C 0.30949 0.61768 0.79892 0.0
C4622 C 0.30364 0.58115 0.82803 0.0
C4623 C 0.30037 0.60344 0.77697 0.0
C4624 C 0.30754 0.55661 0.78292 0.0
C4625 C 0.29314 0.55205 0.7796 0.0
C4626 C 0.31054 0.56925 0.79111 0.0
C4627 C 0.29884 0.57768 0.79604 0.0
C4628 C 0.28426 0.57269 0.79348 0.0
C4629 C 0.28156 0.55985 0.7853 0.0
C4630 C 0.32627 0.57402 0.79373 0.0
C4631 C 0.2715 0.58135 0.7986 0.0
H4632 H 0.31408 0.60812 0.83466 0.0
H4633 H 0.31112 0.62687 0.79168 0.0
H4634 H 0.29297 0.57555 0.82599 0.0
H4635 H 0.31231 0.57308 0.82613 0.0
H4636 H 0.30451 0.58463 0.83965 0.0
H4637 H 0.30084 0.61424 0.77148 0.0
H4638 H 0.30835 0.59615 0.7719 0.0
H4639 H 0.28933 0.59859 0.7749 0.0
H4640 H 0.31653 0.55052 0.77867 0.0
H4641 H 0.27041 0.55639 0.7827 0.0
H4642 H 0.32846 0.57647 0.80547 0.0
H4643 H 0.32839 0.58418 0.78751 0.0
H4644 H 0.33408 0.5656 0.79031 0.0
H4645 H 0.2734 0.58484 0.81011 0.0
H4646 H 0.26109 0.57502 0.79767 0.0
H4647 H 0.27033 0.59137 0.79187 0.0
C4648 C 0.42523 0.30942 0.8204 0.0
C4649 C 0.41251 0.30276 0.82549 0.0
C4650 C 0.43718 0.30106 0.8163 0.0
C4651 C 0.43641 0.28565 0.8173 0.0
C4652 C 0.42362 0.27885 0.82244 0.0
C4653 C 0.41183 0.28748 0.82647 0.0
C4654 C 0.45063 0.30874 0.81091 0.0
C4655 C 0.42235 0.26246 0.82359 0.0
C4656 C 0.46218 0.2646 0.79367 0.0
C4657 C 0.47368 0.26135 0.80365 0.0
C4658 C 0.44985 0.2722 0.79803 0.0
C4659 C 0.44896 0.27669 0.81276 0.0
C4660 C 0.46032 0.27308 0.82299 0.0
C4661 C 0.47253 0.26542 0.81832 0.0
C4662 C 0.43793 0.27571 0.78679 0.0
C4663 C 0.45978 0.27767 0.83879 0.0
H4664 H 0.42594 0.32122 0.81981 0.0
H4665 H 0.40199 0.28224 0.83023 0.0
H4666 H 0.4603 0.30583 0.81792 0.0
H4667 H 0.4528 0.3051 0.79965 0.0
H4668 H 0.44954 0.3208 0.81088 0.0
H4669 H 0.41174 0.25887 0.82797 0.0
H4670 H 0.42351 0.25745 0.81267 0.0
H4671 H 0.43132 0.25821 0.83081 0.0
H4672 H 0.46287 0.26127 0.78237 0.0
H4673 H 0.48141 0.26307 0.82606 0.0
H4674 H 0.43711 0.28771 0.78549 0.0
H4675 H 0.42722 0.27167 0.79051 0.0
H4676 H 0.43995 0.27083 0.77596 0.0
H4677 H 0.45995 0.28975 0.83952 0.0
H4678 H 0.46911 0.27338 0.84552 0.0
H4679 H 0.44945 0.27378 0.84352 0.0
C4680 C 0.3345 0.41499 0.20606 0.0
C4681 C 0.32709 0.4016 0.20432 0.0
C4682 C 0.32766 0.42711 0.21209 0.0
C4683 C 0.31309 0.42578 0.21668 0.0
C4684 C 0.30535 0.41245 0.21439 0.0
C4685 C 0.31242 0.40055 0.20818 0.0
C4686 C 0.33626 0.44115 0.21418 0.0
C4687 C 0.28988 0.4105 0.21926 0.0
C4688 C 0.30478 0.44947 0.24916 0.0
C4689 C 0.29699 0.46102 0.24268 0.0
C4690 C 0.30959 0.43776 0.24086 0.0
C4691 C 0.30675 0.43762 0.22558 0.0
C4692 C 0.29852 0.44904 0.21896 0.0
C4693 C 0.29362 0.46059 0.22763 0.0
C4694 C 0.31808 0.42572 0.24845 0.0
C4695 C 0.29537 0.4493 0.20268 0.0
H4696 H 0.34576 0.41593 0.20288 0.0
H4697 H 0.30665 0.3902 0.20692 0.0
H4698 H 0.3298 0.45054 0.21002 0.0
H4699 H 0.33862 0.443 0.226 0.0
H4700 H 0.34679 0.44096 0.20853 0.0
H4701 H 0.2848 0.40016 0.21515 0.0
H4702 H 0.28985 0.4104 0.23138 0.0
H4703 H 0.28302 0.41975 0.21546 0.0
H4704 H 0.30726 0.44963 0.26083 0.0
H4705 H 0.28763 0.46952 0.22258 0.0
H4706 H 0.3294 0.42561 0.24455 0.0
H4707 H 0.31302 0.41495 0.24578 0.0
H4708 H 0.31859 0.42703 0.26052 0.0
H4709 H 0.30576 0.45065 0.19693 0.0
H4710 H 0.28796 0.45832 0.19936 0.0
H4711 H 0.29035 0.4388 0.199 0.0
C4712 C 0.61982 0.31253 0.2082 0.0
C4713 C 0.61794 0.32022 0.19504 0.0
C4714 C 0.60899 0.30282 0.21295 0.0
C4715 C 0.59592 0.30087 0.20439 0.0
C4716 C 0.59385 0.30883 0.19125 0.0
C4717 C 0.6049 0.31836 0.18671 0.0
C4718 C 0.61164 0.29447 0.227 0.0
C4719 C 0.57999 0.30719 0.18191 0.0
C4720 C 0.57368 0.26597 0.20915 0.0
C4721 C 0.56284 0.27059 0.21848 0.0
C4722 C 0.58453 0.2757 0.20449 0.0
C4723 C 0.58444 0.29044 0.20916 0.0
C4724 C 0.5734 0.29521 0.2184 0.0
C4725 C 0.56277 0.28522 0.22299 0.0
C4726 C 0.59618 0.27018 0.19471 0.0
C4727 C 0.57282 0.31086 0.22347 0.0
H4728 H 0.62994 0.3138 0.2146 0.0
H4729 H 0.60333 0.32441 0.1766 0.0
H4730 H 0.60283 0.29671 0.23467 0.0
H4731 H 0.61137 0.28257 0.22474 0.0
H4732 H 0.62232 0.29733 0.23245 0.0
H4733 H 0.57995 0.31441 0.17216 0.0
H4734 H 0.57867 0.29572 0.17818 0.0
H4735 H 0.57038 0.30977 0.18844 0.0
H4736 H 0.57386 0.25466 0.20577 0.0
H4737 H 0.55429 0.2889 0.23001 0.0
H4738 H 0.60712 0.27179 0.20012 0.0
H4739 H 0.59608 0.2765 0.18438 0.0
H4740 H 0.59469 0.25842 0.19203 0.0
H4741 H 0.58303 0.31378 0.22973 0.0
H4742 H 0.56339 0.31286 0.23048 0.0
H4743 H 0.57203 0.31827 0.2139 0.0
C4744 C 0.42062 0.70323 0.18978 0.0
C4745 C 0.4069 0.70988 0.18913 0.0
C4746 C 0.43255 0.70974 0.1974 0.0
C4747 C 0.43072 0.72323 0.20461 0.0
C4748 C 0.41718 0.7305 0.20311 0.0
C4749 C 0.40542 0.72374 0.19536 0.0
C4750 C 0.44682 0.70165 0.19861 0.0
C4751 C 0.41477 0.7449 0.21058 0.0
C4752 C 0.45299 0.72661 0.24009 0.0
C4753 C 0.46482 0.73543 0.23612 0.0
C4754 C 0.44164 0.72304 0.23005 0.0
C4755 C 0.44208 0.72835 0.21556 0.0
C4756 C 0.45372 0.73769 0.21155 0.0
C4757 C 0.46498 0.74118 0.22192 0.0
C4758 C 0.42939 0.71316 0.23487 0.0
C4759 C 0.45453 0.74359 0.19621 0.0
H4760 H 0.4219 0.69264 0.18473 0.0
H4761 H 0.39484 0.72894 0.19493 0.0
H4762 H 0.45613 0.70912 0.19653 0.0
H4763 H 0.44842 0.69733 0.20987 0.0
H4764 H 0.44709 0.69236 0.19084 0.0
H4765 H 0.40464 0.75027 0.2064 0.0
H4766 H 0.41386 0.74306 0.22249 0.0
H4767 H 0.42417 0.75243 0.20908 0.0
H4768 H 0.45266 0.72228 0.25109 0.0
H4769 H 0.47408 0.74801 0.21879 0.0
H4770 H 0.42948 0.70277 0.22867 0.0
H4771 H 0.41867 0.71834 0.23252 0.0
H4772 H 0.43029 0.71058 0.24672 0.0
H4773 H 0.45655 0.7345 0.18857 0.0
H4774 H 0.4634 0.75186 0.19523 0.0
H4775 H 0.44399 0.74857 0.1927 0.0
loop_
_geom_bond_atom_site_label_1
_geom_bond_atom_site_label_2
_geom_bond_distance
_geom_bond_site_symmetry_2
_ccdc_geom_bond_type
C0 C1 1.384 . S
C0 H13 0.947 . S
C0 C35 1.382 . S
C1 C0 1.384 . S
C1 C2 1.378 . S
C2 C1 1.378 . S
C2 C3 1.378 . S
C2 H14 0.952 . S
C3 C2 1.378 . S
C3 H15 0.950 . S
C3 C34 1.383 . S
H4 C23 0.947 . S
H5 C24 0.946 . S
H6 C26 0.953 . S
H7 C27 0.945 . S
H8 C29 0.952 . S
H9 C30 0.949 . S
H10 C32 0.950 . S
H11 C33 0.948 . S
H12 C35 0.951 . S
H13 C0 0.947 . S
H14 C2 0.952 . S
H15 C3 0.950 . S
N16 C19 1.382 . S
N16 C21 1.363 . S
N17 C19 1.371 . S
N17 C20 1.372 . S
N18 C20 1.361 . S
N18 C21 1.377 . S
C19 N16 1.382 . S
C19 N17 1.371 . S
C19 C22 1.480 . S
C20 N17 1.372 . S
C20 N18 1.361 . S
C20 C28 1.457 . S
C21 N16 1.363 . S
C21 N18 1.377 . S
C21 C34 1.479 . S
C22 C19 1.480 . S
C22 C23 1.383 . S
C22 C27 1.385 . S
C23 H4 0.947 . S
C23 C22 1.383 . S
C23 C24 1.388 . S
C24 H5 0.946 . S
C24 C23 1.388 . S
C24 C25 1.384 . S
C25 C24 1.384 . S
C25 C26 1.377 . S
C26 H6 0.953 . S
C26 C25 1.377 . S
C26 C27 1.369 . S
C27 H7 0.945 . S
C27 C22 1.385 . S
C27 C26 1.369 . S
C28 C20 1.457 . S
C28 C29 1.372 . S
C28 C33 1.364 . S
C29 H8 0.952 . S
C29 C28 1.372 . S
C29 C30 1.389 . S
C30 H9 0.949 . S
C30 C29 1.389 . S
C30 C31 1.387 . S
C31 C30 1.387 . S
C31 C32 1.372 . S
C32 H10 0.950 . S
C32 C31 1.372 . S
C32 C33 1.379 . S
C33 H11 0.948 . S
C33 C28 1.364 . S
C33 C32 1.379 . S
C34 C3 1.383 . S
C34 C21 1.479 . S
C34 C35 1.398 . S
C35 C0 1.382 . S
C35 H12 0.951 . S
C35 C34 1.398 . S
C36 C37 1.384 . S
C36 H49 0.947 . S
C36 C71 1.382 . S
C37 C36 1.384 . S
C37 C38 1.378 . S
C38 C37 1.378 . S
C38 C39 1.378 . S
C38 H50 0.952 . S
C39 C38 1.378 . S
C39 H51 0.950 . S
C39 C70 1.383 . S
H40 C59 0.947 . S
H41 C60 0.946 . S
H42 C62 0.953 . S
H43 C63 0.945 . S
H44 C65 0.952 . S
H45 C66 0.949 . S
H46 C68 0.950 . S
H47 C69 0.948 . S
H48 C71 0.951 . S
H49 C36 0.947 . S
H50 C38 0.952 . S
H51 C39 0.950 . S
N52 C55 1.382 . S
N52 C57 1.363 . S
N53 C55 1.371 . S
N53 C56 1.372 . S
N54 C56 1.361 . S
N54 C57 1.377 . S
C55 N52 1.382 . S
C55 N53 1.371 . S
C55 C58 1.480 . S
C56 N53 1.372 . S
C56 N54 1.361 . S
C56 C64 1.457 . S
C57 N52 1.363 . S
C57 N54 1.377 . S
C57 C70 1.479 . S
C58 C55 1.480 . S
C58 C59 1.383 . S
C58 C63 1.385 . S
C59 H40 0.947 . S
C59 C58 1.383 . S
C59 C60 1.388 . S
C60 H41 0.946 . S
C60 C59 1.388 . S
C60 C61 1.384 . S
C61 C60 1.384 . S
C61 C62 1.377 . S
C62 H42 0.953 . S
C62 C61 1.377 . S
C62 C63 1.369 . S
C63 H43 0.945 . S
C63 C58 1.385 . S
C63 C62 1.369 . S
C64 C56 1.457 . S
C64 C65 1.372 . S
C64 C69 1.364 . S
C65 H44 0.952 . S
C65 C64 1.372 . S
C65 C66 1.389 . S
C66 H45 0.949 . S
C66 C65 1.389 . S
C66 C67 1.387 . S
C67 C66 1.387 . S
C67 C68 1.372 . S
C68 H46 0.950 . S
C68 C67 1.372 . S
C68 C69 1.379 . S
C69 H47 0.948 . S
C69 C64 1.364 . S
C69 C68 1.379 . S
C70 C39 1.383 . S
C70 C57 1.479 . S
C70 C71 1.398 . S
C71 C36 1.382 . S
C71 H48 0.951 . S
C71 C70 1.398 . S
C72 C73 1.384 . S
C72 H85 0.947 . S
C72 C107 1.382 . S
C73 C72 1.384 . S
C73 C74 1.378 . S
C74 C73 1.378 . S
C74 C75 1.378 . S
C74 H86 0.952 . S
C75 C74 1.378 . S
C75 H87 0.950 . S
C75 C106 1.383 . S
H76 C95 0.947 . S
H77 C96 0.946 . S
H78 C98 0.953 . S
H79 C99 0.945 . S
H80 C101 0.952 . S
H81 C102 0.949 . S
H82 C104 0.950 . S
H83 C105 0.948 . S
H84 C107 0.951 . S
H85 C72 0.947 . S
H86 C74 0.952 . S
H87 C75 0.950 . S
N88 C91 1.382 . S
N88 C93 1.363 . S
N89 C91 1.371 . S
N89 C92 1.372 . S
N90 C92 1.361 . S
N90 C93 1.377 . S
C91 N88 1.382 . S
C91 N89 1.371 . S
C91 C94 1.480 . S
C92 N89 1.372 . S
C92 N90 1.361 . S
C92 C100 1.457 . S
C93 N88 1.363 . S
C93 N90 1.377 . S
C93 C106 1.479 . S
C94 C91 1.480 . S
C94 C95 1.383 . S
C94 C99 1.385 . S
C95 H76 0.947 . S
C95 C94 1.383 . S
C95 C96 1.388 . S
C96 H77 0.946 . S
C96 C95 1.388 . S
C96 C97 1.384 . S
C97 C96 1.384 . S
C97 C98 1.377 . S
C98 H78 0.953 . S
C98 C97 1.377 . S
C98 C99 1.369 . S
C99 H79 0.945 . S
C99 C94 1.385 . S
C99 C98 1.369 . S
C100 C92 1.457 . S
C100 C101 1.372 . S
C100 C105 1.364 . S
C101 H80 0.952 . S
C101 C100 1.372 . S
C101 C102 1.389 . S
C102 H81 0.949 . S
C102 C101 1.389 . S
C102 C103 1.387 . S
C103 C102 1.387 . S
C103 C104 1.372 . S
C104 H82 0.950 . S
C104 C103 1.372 . S
C104 C105 1.379 . S
C105 H83 0.948 . S
C105 C100 1.364 . S
C105 C104 1.379 . S
C106 C75 1.383 . S
C106 C93 1.479 . S
C106 C107 1.398 . S
C107 C72 1.382 . S
C107 H84 0.951 . S
C107 C106 1.398 . S
C108 C109 1.384 . S
C108 H121 0.947 . S
C108 C143 1.382 . S
C109 C108 1.384 . S
C109 C110 1.378 . S
C110 C109 1.378 . S
C110 C111 1.378 . S
C110 H122 0.952 . S
C111 C110 1.378 . S
C111 H123 0.950 . S
C111 C142 1.383 . S
H112 C131 0.947 . S
H113 C132 0.946 . S
H114 C134 0.953 . S
H115 C135 0.945 . S
H116 C137 0.952 . S
H117 C138 0.949 . S
H118 C140 0.950 . S
H119 C141 0.948 . S
H120 C143 0.951 . S
H121 C108 0.947 . S
H122 C110 0.952 . S
H123 C111 0.950 . S
N124 C127 1.382 . S
N124 C129 1.363 . S
N125 C127 1.371 . S
N125 C128 1.372 . S
N126 C128 1.361 . S
N126 C129 1.377 . S
C127 N124 1.382 . S
C127 N125 1.371 . S
C127 C130 1.480 . S
C128 N125 1.372 . S
C128 N126 1.361 . S
C128 C136 1.457 . S
C129 N124 1.363 . S
C129 N126 1.377 . S
C129 C142 1.479 . S
C130 C127 1.480 . S
C130 C131 1.383 . S
C130 C135 1.385 . S
C131 H112 0.947 . S
C131 C130 1.383 . S
C131 C132 1.388 . S
C132 H113 0.946 . S
C132 C131 1.388 . S
C132 C133 1.384 . S
C133 C132 1.384 . S
C133 C134 1.377 . S
C134 H114 0.953 . S
C134 C133 1.377 . S
C134 C135 1.369 . S
C135 H115 0.945 . S
C135 C130 1.385 . S
C135 C134 1.369 . S
C136 C128 1.457 . S
C136 C137 1.372 . S
C136 C141 1.364 . S
C137 H116 0.952 . S
C137 C136 1.372 . S
C137 C138 1.389 . S
C138 H117 0.949 . S
C138 C137 1.389 . S
C138 C139 1.387 . S
C139 C138 1.387 . S
C139 C140 1.372 . S
C140 H118 0.950 . S
C140 C139 1.372 . S
C140 C141 1.379 . S
C141 H119 0.948 . S
C141 C136 1.364 . S
C141 C140 1.379 . S
C142 C111 1.383 . S
C142 C129 1.479 . S
C142 C143 1.398 . S
C143 C108 1.382 . S
C143 H120 0.951 . S
C143 C142 1.398 . S
C144 C145 1.384 . S
C144 H157 0.947 . S
C144 C179 1.382 . S
C145 C144 1.384 . S
C145 C146 1.378 . S
C146 C145 1.378 . S
C146 C147 1.378 . S
C146 H158 0.952 . S
C147 C146 1.378 . S
C147 H159 0.950 . S
C147 C178 1.383 . S
H148 C167 0.947 . S
H149 C168 0.946 . S
H150 C170 0.953 . S
H151 C171 0.945 . S
H152 C173 0.952 . S
H153 C174 0.949 . S
H154 C176 0.950 . S
H155 C177 0.948 . S
H156 C179 0.951 . S
H157 C144 0.947 . S
H158 C146 0.952 . S
H159 C147 0.950 . S
N160 C163 1.382 . S
N160 C165 1.363 . S
N161 C163 1.371 . S
N161 C164 1.372 . S
N162 C164 1.361 . S
N162 C165 1.377 . S
C163 N160 1.382 . S
C163 N161 1.371 . S
C163 C166 1.480 . S
C164 N161 1.372 . S
C164 N162 1.361 . S
C164 C172 1.457 . S
C165 N160 1.363 . S
C165 N162 1.377 . S
C165 C178 1.479 . S
C166 C163 1.480 . S
C166 C167 1.383 . S
C166 C171 1.385 . S
C167 H148 0.947 . S
C167 C166 1.383 . S
C167 C168 1.388 . S
C168 H149 0.946 . S
C168 C167 1.388 . S
C168 C169 1.384 . S
C169 C168 1.384 . S
C169 C170 1.377 . S
C170 H150 0.953 . S
C170 C169 1.377 . S
C170 C171 1.369 . S
C171 H151 0.945 . S
C171 C166 1.385 . S
C171 C170 1.369 . S
C172 C164 1.457 . S
C172 C173 1.372 . S
C172 C177 1.364 . S
C173 H152 0.952 . S
C173 C172 1.372 . S
C173 C174 1.389 . S
C174 H153 0.949 . S
C174 C173 1.389 . S
C174 C175 1.387 . S
C175 C174 1.387 . S
C175 C176 1.372 . S
C176 H154 0.950 . S
C176 C175 1.372 . S
C176 C177 1.379 . S
C177 H155 0.948 . S
C177 C172 1.364 . S
C177 C176 1.379 . S
C178 C147 1.383 . S
C178 C165 1.479 . S
C178 C179 1.398 . S
C179 C144 1.382 . S
C179 H156 0.951 . S
C179 C178 1.398 . S
C180 C181 1.384 . S
C180 H193 0.947 . S
C180 C215 1.382 . S
C181 C180 1.384 . S
C181 C182 1.378 . S
C182 C181 1.378 . S
C182 C183 1.378 . S
C182 H194 0.952 . S
C183 C182 1.378 . S
C183 H195 0.950 . S
C183 C214 1.383 . S
H184 C203 0.947 . S
H185 C204 0.946 . S
H186 C206 0.953 . S
H187 C207 0.945 . S
H188 C209 0.952 . S
H189 C210 0.949 . S
H190 C212 0.950 . S
H191 C213 0.948 . S
H192 C215 0.951 . S
H193 C180 0.947 . S
H194 C182 0.952 . S
H195 C183 0.950 . S
N196 C199 1.382 . S
N196 C201 1.363 . S
N197 C199 1.371 . S
N197 C200 1.372 . S
N198 C200 1.361 . S
N198 C201 1.377 . S
C199 N196 1.382 . S
C199 N197 1.371 . S
C199 C202 1.480 . S
C200 N197 1.372 . S
C200 N198 1.361 . S
C200 C208 1.457 . S
C201 N196 1.363 . S
C201 N198 1.377 . S
C201 C214 1.479 . S
C202 C199 1.480 . S
C202 C203 1.383 . S
C202 C207 1.385 . S
C203 H184 0.947 . S
C203 C202 1.383 . S
C203 C204 1.388 . S
C204 H185 0.946 . S
C204 C203 1.388 . S
C204 C205 1.384 . S
C205 C204 1.384 . S
C205 C206 1.377 . S
C206 H186 0.953 . S
C206 C205 1.377 . S
C206 C207 1.369 . S
C207 H187 0.945 . S
C207 C202 1.385 . S
C207 C206 1.369 . S
C208 C200 1.457 . S
C208 C209 1.372 . S
C208 C213 1.364 . S
C209 H188 0.952 . S
C209 C208 1.372 . S
C209 C210 1.389 . S
C210 H189 0.949 . S
C210 C209 1.389 . S
C210 C211 1.387 . S
C211 C210 1.387 . S
C211 C212 1.372 . S
C212 H190 0.950 . S
C212 C211 1.372 . S
C212 C213 1.379 . S
C213 H191 0.948 . S
C213 C208 1.364 . S
C213 C212 1.379 . S
C214 C183 1.383 . S
C214 C201 1.479 . S
C214 C215 1.398 . S
C215 C180 1.382 . S
C215 H192 0.951 . S
C215 C214 1.398 . S
C216 C217 1.384 . S
C216 H229 0.947 . S
C216 C251 1.382 . S
C217 C216 1.384 . S
C217 C218 1.378 . S
C218 C217 1.378 . S
C218 C219 1.378 . S
C218 H230 0.952 . S
C219 C218 1.378 . S
C219 H231 0.950 . S
C219 C250 1.383 . S
H220 C239 0.947 . S
H221 C240 0.946 . S
H222 C242 0.953 . S
H223 C243 0.945 . S
H224 C245 0.952 . S
H225 C246 0.949 . S
H226 C248 0.950 . S
H227 C249 0.948 . S
H228 C251 0.951 . S
H229 C216 0.947 . S
H230 C218 0.952 . S
H231 C219 0.950 . S
N232 C235 1.382 . S
N232 C237 1.363 . S
N233 C235 1.371 . S
N233 C236 1.372 . S
N234 C236 1.361 . S
N234 C237 1.377 . S
C235 N232 1.382 . S
C235 N233 1.371 . S
C235 C238 1.480 . S
C236 N233 1.372 . S
C236 N234 1.361 . S
C236 C244 1.457 . S
C237 N232 1.363 . S
C237 N234 1.377 . S
C237 C250 1.479 . S
C238 C235 1.480 . S
C238 C239 1.383 . S
C238 C243 1.385 . S
C239 H220 0.947 . S
C239 C238 1.383 . S
C239 C240 1.388 . S
C240 H221 0.946 . S
C240 C239 1.388 . S
C240 C241 1.384 . S
C241 C240 1.384 . S
C241 C242 1.377 . S
C242 H222 0.953 . S
C242 C241 1.377 . S
C242 C243 1.369 . S
C243 H223 0.945 . S
C243 C238 1.385 . S
C243 C242 1.369 . S
C244 C236 1.457 . S
C244 C245 1.372 . S
C244 C249 1.364 . S
C245 H224 0.952 . S
C245 C244 1.372 . S
C245 C246 1.389 . S
C246 H225 0.949 . S
C246 C245 1.389 . S
C246 C247 1.387 . S
C247 C246 1.387 . S
C247 C248 1.372 . S
C248 H226 0.950 . S
C248 C247 1.372 . S
C248 C249 1.379 . S
C249 H227 0.948 . S
C249 C244 1.364 . S
C249 C248 1.379 . S
C250 C219 1.383 . S
C250 C237 1.479 . S
C250 C251 1.398 . S
C251 C216 1.382 . S
C251 H228 0.951 . S
C251 C250 1.398 . S
C252 C253 1.384 . S
C252 H265 0.947 . S
C252 C287 1.382 . S
C253 C252 1.384 . S
C253 C254 1.378 . S
C254 C253 1.378 . S
C254 C255 1.378 . S
C254 H266 0.952 . S
C255 C254 1.378 . S
C255 H267 0.950 . S
C255 C286 1.383 . S
H256 C275 0.947 . S
H257 C276 0.946 . S
H258 C278 0.953 . S
H259 C279 0.945 . S
H260 C281 0.952 . S
H261 C282 0.949 . S
H262 C284 0.950 . S
H263 C285 0.948 . S
H264 C287 0.951 . S
H265 C252 0.947 . S
H266 C254 0.952 . S
H267 C255 0.950 . S
N268 C271 1.382 . S
N268 C273 1.363 . S
N269 C271 1.371 . S
N269 C272 1.372 . S
N270 C272 1.361 . S
N270 C273 1.377 . S
C271 N268 1.382 . S
C271 N269 1.371 . S
C271 C274 1.480 . S
C272 N269 1.372 . S
C272 N270 1.361 . S
C272 C280 1.457 . S
C273 N268 1.363 . S
C273 N270 1.377 . S
C273 C286 1.479 . S
C274 C271 1.480 . S
C274 C275 1.383 . S
C274 C279 1.385 . S
C275 H256 0.947 . S
C275 C274 1.383 . S
C275 C276 1.388 . S
C276 H257 0.946 . S
C276 C275 1.388 . S
C276 C277 1.384 . S
C277 C276 1.384 . S
C277 C278 1.377 . S
C278 H258 0.953 . S
C278 C277 1.377 . S
C278 C279 1.369 . S
C279 H259 0.945 . S
C279 C274 1.385 . S
C279 C278 1.369 . S
C280 C272 1.457 . S
C280 C281 1.372 . S
C280 C285 1.364 . S
C281 H260 0.952 . S
C281 C280 1.372 . S
C281 C282 1.389 . S
C282 H261 0.949 . S
C282 C281 1.389 . S
C282 C283 1.387 . S
C283 C282 1.387 . S
C283 C284 1.372 . S
C284 H262 0.950 . S
C284 C283 1.372 . S
C284 C285 1.379 . S
C285 H263 0.948 . S
C285 C280 1.364 . S
C285 C284 1.379 . S
C286 C255 1.383 . S
C286 C273 1.479 . S
C286 C287 1.398 . S
C287 C252 1.382 . S
C287 H264 0.951 . S
C287 C286 1.398 . S
C288 C289 1.384 . S
C288 H301 0.947 . S
C288 C323 1.382 . S
C289 C288 1.384 . S
C289 C290 1.378 . S
C290 C289 1.378 . S
C290 C291 1.378 . S
C290 H302 0.952 . S
C291 C290 1.378 . S
C291 H303 0.950 . S
C291 C322 1.383 . S
H292 C311 0.947 . S
H293 C312 0.946 . S
H294 C314 0.953 . S
H295 C315 0.945 . S
H296 C317 0.952 . S
H297 C318 0.949 . S
H298 C320 0.950 . S
H299 C321 0.948 . S
H300 C323 0.951 . S
H301 C288 0.947 . S
H302 C290 0.952 . S
H303 C291 0.950 . S
N304 C307 1.382 . S
N304 C309 1.363 . S
N305 C307 1.371 . S
N305 C308 1.372 . S
N306 C308 1.361 . S
N306 C309 1.377 . S
C307 N304 1.382 . S
C307 N305 1.371 . S
C307 C310 1.480 . S
C308 N305 1.372 . S
C308 N306 1.361 . S
C308 C316 1.457 . S
C309 N304 1.363 . S
C309 N306 1.377 . S
C309 C322 1.479 . S
C310 C307 1.480 . S
C310 C311 1.383 . S
C310 C315 1.385 . S
C311 H292 0.947 . S
C311 C310 1.383 . S
C311 C312 1.388 . S
C312 H293 0.946 . S
C312 C311 1.388 . S
C312 C313 1.384 . S
C313 C312 1.384 . S
C313 C314 1.377 . S
C314 H294 0.953 . S
C314 C313 1.377 . S
C314 C315 1.369 . S
C315 H295 0.945 . S
C315 C310 1.385 . S
C315 C314 1.369 . S
C316 C308 1.457 . S
C316 C317 1.372 . S
C316 C321 1.364 . S
C317 H296 0.952 . S
C317 C316 1.372 . S
C317 C318 1.389 . S
C318 H297 0.949 . S
C318 C317 1.389 . S
C318 C319 1.387 . S
C319 C318 1.387 . S
C319 C320 1.372 . S
C320 H298 0.950 . S
C320 C319 1.372 . S
C320 C321 1.379 . S
C321 H299 0.948 . S
C321 C316 1.364 . S
C321 C320 1.379 . S
C322 C291 1.383 . S
C322 C309 1.479 . S
C322 C323 1.398 . S
C323 C288 1.382 . S
C323 H300 0.951 . S
C323 C322 1.398 . S
C324 C325 1.384 . S
C324 H337 0.947 . S
C324 C359 1.382 . S
C325 C324 1.384 . S
C325 C326 1.378 . S
C326 C325 1.378 . S
C326 C327 1.378 . S
C326 H338 0.952 . S
C327 C326 1.378 . S
C327 H339 0.950 . S
C327 C358 1.383 . S
H328 C347 0.947 . S
H329 C348 0.946 . S
H330 C350 0.953 . S
H331 C351 0.945 . S
H332 C353 0.952 . S
H333 C354 0.949 . S
H334 C356 0.950 . S
H335 C357 0.948 . S
H336 C359 0.951 . S
H337 C324 0.947 . S
H338 C326 0.952 . S
H339 C327 0.950 . S
N340 C343 1.382 . S
N340 C345 1.363 . S
N341 C343 1.371 . S
N341 C344 1.372 . S
N342 C344 1.361 . S
N342 C345 1.377 . S
C343 N340 1.382 . S
C343 N341 1.371 . S
C343 C346 1.480 . S
C344 N341 1.372 . S
C344 N342 1.361 . S
C344 C352 1.457 . S
C345 N340 1.363 . S
C345 N342 1.377 . S
C345 C358 1.479 . S
C346 C343 1.480 . S
C346 C347 1.383 . S
C346 C351 1.385 . S
C347 H328 0.947 . S
C347 C346 1.383 . S
C347 C348 1.388 . S
C348 H329 0.946 . S
C348 C347 1.388 . S
C348 C349 1.384 . S
C349 C348 1.384 . S
C349 C350 1.377 . S
C350 H330 0.953 . S
C350 C349 1.377 . S
C350 C351 1.369 . S
C351 H331 0.945 . S
C351 C346 1.385 . S
C351 C350 1.369 . S
C352 C344 1.457 . S
C352 C353 1.372 . S
C352 C357 1.364 . S
C353 H332 0.952 . S
C353 C352 1.372 . S
C353 C354 1.389 . S
C354 H333 0.949 . S
C354 C353 1.389 . S
C354 C355 1.387 . S
C355 C354 1.387 . S
C355 C356 1.372 . S
C356 H334 0.950 . S
C356 C355 1.372 . S
C356 C357 1.379 . S
C357 H335 0.948 . S
C357 C352 1.364 . S
C357 C356 1.379 . S
C358 C327 1.383 . S
C358 C345 1.479 . S
C358 C359 1.398 . S
C359 C324 1.382 . S
C359 H336 0.951 . S
C359 C358 1.398 . S
C360 C361 1.384 . S
C360 H373 0.947 . S
C360 C395 1.382 . S
C361 C360 1.384 . S
C361 C362 1.378 . S
C362 C361 1.378 . S
C362 C363 1.378 . S
C362 H374 0.952 . S
C363 C362 1.378 . S
C363 H375 0.950 . S
C363 C394 1.383 . S
H364 C383 0.947 . S
H365 C384 0.946 . S
H366 C386 0.953 . S
H367 C387 0.945 . S
H368 C389 0.952 . S
H369 C390 0.949 . S
H370 C392 0.950 . S
H371 C393 0.948 . S
H372 C395 0.951 . S
H373 C360 0.947 . S
H374 C362 0.952 . S
H375 C363 0.950 . S
N376 C379 1.382 . S
N376 C381 1.363 . S
N377 C379 1.371 . S
N377 C380 1.372 . S
N378 C380 1.361 . S
N378 C381 1.377 . S
C379 N376 1.382 . S
C379 N377 1.371 . S
C379 C382 1.480 . S
C380 N377 1.372 . S
C380 N378 1.361 . S
C380 C388 1.457 . S
C381 N376 1.363 . S
C381 N378 1.377 . S
C381 C394 1.479 . S
C382 C379 1.480 . S
C382 C383 1.383 . S
C382 C387 1.385 . S
C383 H364 0.947 . S
C383 C382 1.383 . S
C383 C384 1.388 . S
C384 H365 0.946 . S
C384 C383 1.388 . S
C384 C385 1.384 . S
C385 C384 1.384 . S
C385 C386 1.377 . S
C386 H366 0.953 . S
C386 C385 1.377 . S
C386 C387 1.369 . S
C387 H367 0.945 . S
C387 C382 1.385 . S
C387 C386 1.369 . S
C388 C380 1.457 . S
C388 C389 1.372 . S
C388 C393 1.364 . S
C389 H368 0.952 . S
C389 C388 1.372 . S
C389 C390 1.389 . S
C390 H369 0.949 . S
C390 C389 1.389 . S
C390 C391 1.387 . S
C391 C390 1.387 . S
C391 C392 1.372 . S
C392 H370 0.950 . S
C392 C391 1.372 . S
C392 C393 1.379 . S
C393 H371 0.948 . S
C393 C388 1.364 . S
C393 C392 1.379 . S
C394 C363 1.383 . S
C394 C381 1.479 . S
C394 C395 1.398 . S
C395 C360 1.382 . S
C395 H372 0.951 . S
C395 C394 1.398 . S
C396 C397 1.384 . S
C396 H409 0.947 . S
C396 C431 1.382 . S
C397 C396 1.384 . S
C397 C398 1.378 . S
C398 C397 1.378 . S
C398 C399 1.378 . S
C398 H410 0.952 . S
C399 C398 1.378 . S
C399 H411 0.950 . S
C399 C430 1.383 . S
H400 C419 0.947 . S
H401 C420 0.946 . S
H402 C422 0.953 . S
H403 C423 0.945 . S
H404 C425 0.952 . S
H405 C426 0.949 . S
H406 C428 0.950 . S
H407 C429 0.948 . S
H408 C431 0.951 . S
H409 C396 0.947 . S
H410 C398 0.952 . S
H411 C399 0.950 . S
N412 C415 1.382 . S
N412 C417 1.363 . S
N413 C415 1.371 . S
N413 C416 1.372 . S
N414 C416 1.361 . S
N414 C417 1.377 . S
C415 N412 1.382 . S
C415 N413 1.371 . S
C415 C418 1.480 . S
C416 N413 1.372 . S
C416 N414 1.361 . S
C416 C424 1.457 . S
C417 N412 1.363 . S
C417 N414 1.377 . S
C417 C430 1.479 . S
C418 C415 1.480 . S
C418 C419 1.383 . S
C418 C423 1.385 . S
C419 H400 0.947 . S
C419 C418 1.383 . S
C419 C420 1.388 . S
C420 H401 0.946 . S
C420 C419 1.388 . S
C420 C421 1.384 . S
C421 C420 1.384 . S
C421 C422 1.377 . S
C422 H402 0.953 . S
C422 C421 1.377 . S
C422 C423 1.369 . S
C423 H403 0.945 . S
C423 C418 1.385 . S
C423 C422 1.369 . S
C424 C416 1.457 . S
C424 C425 1.372 . S
C424 C429 1.364 . S
C425 H404 0.952 . S
C425 C424 1.372 . S
C425 C426 1.389 . S
C426 H405 0.949 . S
C426 C425 1.389 . S
C426 C427 1.387 . S
C427 C426 1.387 . S
C427 C428 1.372 . S
C428 H406 0.950 . S
C428 C427 1.372 . S
C428 C429 1.379 . S
C429 H407 0.948 . S
C429 C424 1.364 . S
C429 C428 1.379 . S
C430 C399 1.383 . S
C430 C417 1.479 . S
C430 C431 1.398 . S
C431 C396 1.382 . S
C431 H408 0.951 . S
C431 C430 1.398 . S
C432 C433 1.384 . S
C432 H445 0.947 . S
C432 C467 1.382 . S
C433 C432 1.384 . S
C433 C434 1.378 . S
C434 C433 1.378 . S
C434 C435 1.378 . S
C434 H446 0.952 . S
C435 C434 1.378 . S
C435 H447 0.950 . S
C435 C466 1.383 . S
H436 C455 0.947 . S
H437 C456 0.946 . S
H438 C458 0.953 . S
H439 C459 0.945 . S
H440 C461 0.952 . S
H441 C462 0.949 . S
H442 C464 0.950 . S
H443 C465 0.948 . S
H444 C467 0.951 . S
H445 C432 0.947 . S
H446 C434 0.952 . S
H447 C435 0.950 . S
N448 C451 1.382 . S
N448 C453 1.363 . S
N449 C451 1.371 . S
N449 C452 1.372 . S
N450 C452 1.361 . S
N450 C453 1.377 . S
C451 N448 1.382 . S
C451 N449 1.371 . S
C451 C454 1.480 . S
C452 N449 1.372 . S
C452 N450 1.361 . S
C452 C460 1.457 . S
C453 N448 1.363 . S
C453 N450 1.377 . S
C453 C466 1.479 . S
C454 C451 1.480 . S
C454 C455 1.383 . S
C454 C459 1.385 . S
C455 H436 0.947 . S
C455 C454 1.383 . S
C455 C456 1.388 . S
C456 H437 0.946 . S
C456 C455 1.388 . S
C456 C457 1.384 . S
C457 C456 1.384 . S
C457 C458 1.377 . S
C458 H438 0.953 . S
C458 C457 1.377 . S
C458 C459 1.369 . S
C459 H439 0.945 . S
C459 C454 1.385 . S
C459 C458 1.369 . S
C460 C452 1.457 . S
C460 C461 1.372 . S
C460 C465 1.364 . S
C461 H440 0.952 . S
C461 C460 1.372 . S
C461 C462 1.389 . S
C462 H441 0.949 . S
C462 C461 1.389 . S
C462 C463 1.387 . S
C463 C462 1.387 . S
C463 C464 1.372 . S
C464 H442 0.950 . S
C464 C463 1.372 . S
C464 C465 1.379 . S
C465 H443 0.948 . S
C465 C460 1.364 . S
C465 C464 1.379 . S
C466 C435 1.383 . S
C466 C453 1.479 . S
C466 C467 1.398 . S
C467 C432 1.382 . S
C467 H444 0.951 . S
C467 C466 1.398 . S
C468 C469 1.384 . S
C468 H481 0.947 . S
C468 C503 1.382 . S
C469 C468 1.384 . S
C469 C470 1.378 . S
C470 C469 1.378 . S
C470 C471 1.378 . S
C470 H482 0.952 . S
C471 C470 1.378 . S
C471 H483 0.950 . S
C471 C502 1.383 . S
H472 C491 0.947 . S
H473 C492 0.946 . S
H474 C494 0.953 . S
H475 C495 0.945 . S
H476 C497 0.952 . S
H477 C498 0.949 . S
H478 C500 0.950 . S
H479 C501 0.948 . S
H480 C503 0.951 . S
H481 C468 0.947 . S
H482 C470 0.952 . S
H483 C471 0.950 . S
N484 C487 1.382 . S
N484 C489 1.363 . S
N485 C487 1.371 . S
N485 C488 1.372 . S
N486 C488 1.361 . S
N486 C489 1.377 . S
C487 N484 1.382 . S
C487 N485 1.371 . S
C487 C490 1.480 . S
C488 N485 1.372 . S
C488 N486 1.361 . S
C488 C496 1.457 . S
C489 N484 1.363 . S
C489 N486 1.377 . S
C489 C502 1.479 . S
C490 C487 1.480 . S
C490 C491 1.383 . S
C490 C495 1.385 . S
C491 H472 0.947 . S
C491 C490 1.383 . S
C491 C492 1.388 . S
C492 H473 0.946 . S
C492 C491 1.388 . S
C492 C493 1.384 . S
C493 C492 1.384 . S
C493 C494 1.377 . S
C494 H474 0.953 . S
C494 C493 1.377 . S
C494 C495 1.369 . S
C495 H475 0.945 . S
C495 C490 1.385 . S
C495 C494 1.369 . S
C496 C488 1.457 . S
C496 C497 1.372 . S
C496 C501 1.364 . S
C497 H476 0.952 . S
C497 C496 1.372 . S
C497 C498 1.389 . S
C498 H477 0.949 . S
C498 C497 1.389 . S
C498 C499 1.387 . S
C499 C498 1.387 . S
C499 C500 1.372 . S
C500 H478 0.950 . S
C500 C499 1.372 . S
C500 C501 1.379 . S
C501 H479 0.948 . S
C501 C496 1.364 . S
C501 C500 1.379 . S
C502 C471 1.383 . S
C502 C489 1.479 . S
C502 C503 1.398 . S
C503 C468 1.382 . S
C503 H480 0.951 . S
C503 C502 1.398 . S
C504 C505 1.384 . S
C504 H517 0.947 . S
C504 C539 1.382 . S
C505 C504 1.384 . S
C505 C506 1.378 . S
C506 C505 1.378 . S
C506 C507 1.378 . S
C506 H518 0.952 . S
C507 C506 1.378 . S
C507 H519 0.950 . S
C507 C538 1.383 . S
H508 C527 0.947 . S
H509 C528 0.946 . S
H510 C530 0.953 . S
H511 C531 0.945 . S
H512 C533 0.952 . S
H513 C534 0.949 . S
H514 C536 0.950 . S
H515 C537 0.948 . S
H516 C539 0.951 . S
H517 C504 0.947 . S
H518 C506 0.952 . S
H519 C507 0.950 . S
N520 C523 1.382 . S
N520 C525 1.363 . S
N521 C523 1.371 . S
N521 C524 1.372 . S
N522 C524 1.361 . S
N522 C525 1.377 . S
C523 N520 1.382 . S
C523 N521 1.371 . S
C523 C526 1.480 . S
C524 N521 1.372 . S
C524 N522 1.361 . S
C524 C532 1.457 . S
C525 N520 1.363 . S
C525 N522 1.377 . S
C525 C538 1.479 . S
C526 C523 1.480 . S
C526 C527 1.383 . S
C526 C531 1.385 . S
C527 H508 0.947 . S
C527 C526 1.383 . S
C527 C528 1.388 . S
C528 H509 0.946 . S
C528 C527 1.388 . S
C528 C529 1.384 . S
C529 C528 1.384 . S
C529 C530 1.377 . S
C530 H510 0.953 . S
C530 C529 1.377 . S
C530 C531 1.369 . S
C531 H511 0.945 . S
C531 C526 1.385 . S
C531 C530 1.369 . S
C532 C524 1.457 . S
C532 C533 1.372 . S
C532 C537 1.364 . S
C533 H512 0.952 . S
C533 C532 1.372 . S
C533 C534 1.389 . S
C534 H513 0.949 . S
C534 C533 1.389 . S
C534 C535 1.387 . S
C535 C534 1.387 . S
C535 C536 1.372 . S
C536 H514 0.950 . S
C536 C535 1.372 . S
C536 C537 1.379 . S
C537 H515 0.948 . S
C537 C532 1.364 . S
C537 C536 1.379 . S
C538 C507 1.383 . S
C538 C525 1.479 . S
C538 C539 1.398 . S
C539 C504 1.382 . S
C539 H516 0.951 . S
C539 C538 1.398 . S
C540 C541 1.384 . S
C540 H553 0.947 . S
C540 C575 1.382 . S
C541 C540 1.384 . S
C541 C542 1.378 . S
C542 C541 1.378 . S
C542 C543 1.378 . S
C542 H554 0.952 . S
C543 C542 1.378 . S
C543 H555 0.950 . S
C543 C574 1.383 . S
H544 C563 0.947 . S
H545 C564 0.946 . S
H546 C566 0.953 . S
H547 C567 0.945 . S
H548 C569 0.952 . S
H549 C570 0.949 . S
H550 C572 0.950 . S
H551 C573 0.948 . S
H552 C575 0.951 . S
H553 C540 0.947 . S
H554 C542 0.952 . S
H555 C543 0.950 . S
N556 C559 1.382 . S
N556 C561 1.363 . S
N557 C559 1.371 . S
N557 C560 1.372 . S
N558 C560 1.361 . S
N558 C561 1.377 . S
C559 N556 1.382 . S
C559 N557 1.371 . S
C559 C562 1.480 . S
C560 N557 1.372 . S
C560 N558 1.361 . S
C560 C568 1.457 . S
C561 N556 1.363 . S
C561 N558 1.377 . S
C561 C574 1.479 . S
C562 C559 1.480 . S
C562 C563 1.383 . S
C562 C567 1.385 . S
C563 H544 0.947 . S
C563 C562 1.383 . S
C563 C564 1.388 . S
C564 H545 0.946 . S
C564 C563 1.388 . S
C564 C565 1.384 . S
C565 C564 1.384 . S
C565 C566 1.377 . S
C566 H546 0.953 . S
C566 C565 1.377 . S
C566 C567 1.369 . S
C567 H547 0.945 . S
C567 C562 1.385 . S
C567 C566 1.369 . S
C568 C560 1.457 . S
C568 C569 1.372 . S
C568 C573 1.364 . S
C569 H548 0.952 . S
C569 C568 1.372 . S
C569 C570 1.389 . S
C570 H549 0.949 . S
C570 C569 1.389 . S
C570 C571 1.387 . S
C571 C570 1.387 . S
C571 C572 1.372 . S
C572 H550 0.950 . S
C572 C571 1.372 . S
C572 C573 1.379 . S
C573 H551 0.948 . S
C573 C568 1.364 . S
C573 C572 1.379 . S
C574 C543 1.383 . S
C574 C561 1.479 . S
C574 C575 1.398 . S
C575 C540 1.382 . S
C575 H552 0.951 . S
C575 C574 1.398 . S
C576 C577 1.384 . S
C576 H589 0.947 . S
C576 C611 1.382 . S
C577 C576 1.384 . S
C577 C578 1.378 . S
C578 C577 1.378 . S
C578 C579 1.378 . S
C578 H590 0.952 . S
C579 C578 1.378 . S
C579 H591 0.950 . S
C579 C610 1.383 . S
H580 C599 0.947 . S
H581 C600 0.946 . S
H582 C602 0.953 . S
H583 C603 0.945 . S
H584 C605 0.952 . S
H585 C606 0.949 . S
H586 C608 0.950 . S
H587 C609 0.948 . S
H588 C611 0.951 . S
H589 C576 0.947 . S
H590 C578 0.952 . S
H591 C579 0.950 . S
N592 C595 1.382 . S
N592 C597 1.363 . S
N593 C595 1.371 . S
N593 C596 1.372 . S
N594 C596 1.361 . S
N594 C597 1.377 . S
C595 N592 1.382 . S
C595 N593 1.371 . S
C595 C598 1.480 . S
C596 N593 1.372 . S
C596 N594 1.361 . S
C596 C604 1.457 . S
C597 N592 1.363 . S
C597 N594 1.377 . S
C597 C610 1.479 . S
C598 C595 1.480 . S
C598 C599 1.383 . S
C598 C603 1.385 . S
C599 H580 0.947 . S
C599 C598 1.383 . S
C599 C600 1.388 . S
C600 H581 0.946 . S
C600 C599 1.388 . S
C600 C601 1.384 . S
C601 C600 1.384 . S
C601 C602 1.377 . S
C602 H582 0.953 . S
C602 C601 1.377 . S
C602 C603 1.369 . S
C603 H583 0.945 . S
C603 C598 1.385 . S
C603 C602 1.369 . S
C604 C596 1.457 . S
C604 C605 1.372 . S
C604 C609 1.364 . S
C605 H584 0.952 . S
C605 C604 1.372 . S
C605 C606 1.389 . S
C606 H585 0.949 . S
C606 C605 1.389 . S
C606 C607 1.387 . S
C607 C606 1.387 . S
C607 C608 1.372 . S
C608 H586 0.950 . S
C608 C607 1.372 . S
C608 C609 1.379 . S
C609 H587 0.948 . S
C609 C604 1.364 . S
C609 C608 1.379 . S
C610 C579 1.383 . S
C610 C597 1.479 . S
C610 C611 1.398 . S
C611 C576 1.382 . S
C611 H588 0.951 . S
C611 C610 1.398 . S
C612 C613 1.384 . S
C612 H625 0.947 . S
C612 C647 1.382 . S
C613 C612 1.384 . S
C613 C614 1.378 . S
C614 C613 1.378 . S
C614 C615 1.378 . S
C614 H626 0.952 . S
C615 C614 1.378 . S
C615 H627 0.950 . S
C615 C646 1.383 . S
H616 C635 0.947 . S
H617 C636 0.946 . S
H618 C638 0.953 . S
H619 C639 0.945 . S
H620 C641 0.952 . S
H621 C642 0.949 . S
H622 C644 0.950 . S
H623 C645 0.948 . S
H624 C647 0.951 . S
H625 C612 0.947 . S
H626 C614 0.952 . S
H627 C615 0.950 . S
N628 C631 1.382 . S
N628 C633 1.363 . S
N629 C631 1.371 . S
N629 C632 1.372 . S
N630 C632 1.361 . S
N630 C633 1.377 . S
C631 N628 1.382 . S
C631 N629 1.371 . S
C631 C634 1.480 . S
C632 N629 1.372 . S
C632 N630 1.361 . S
C632 C640 1.457 . S
C633 N628 1.363 . S
C633 N630 1.377 . S
C633 C646 1.479 . S
C634 C631 1.480 . S
C634 C635 1.383 . S
C634 C639 1.385 . S
C635 H616 0.947 . S
C635 C634 1.383 . S
C635 C636 1.388 . S
C636 H617 0.946 . S
C636 C635 1.388 . S
C636 C637 1.384 . S
C637 C636 1.384 . S
C637 C638 1.377 . S
C638 H618 0.953 . S
C638 C637 1.377 . S
C638 C639 1.369 . S
C639 H619 0.945 . S
C639 C634 1.385 . S
C639 C638 1.369 . S
C640 C632 1.457 . S
C640 C641 1.372 . S
C640 C645 1.364 . S
C641 H620 0.952 . S
C641 C640 1.372 . S
C641 C642 1.389 . S
C642 H621 0.949 . S
C642 C641 1.389 . S
C642 C643 1.387 . S
C643 C642 1.387 . S
C643 C644 1.372 . S
C644 H622 0.950 . S
C644 C643 1.372 . S
C644 C645 1.379 . S
C645 H623 0.948 . S
C645 C640 1.364 . S
C645 C644 1.379 . S
C646 C615 1.383 . S
C646 C633 1.479 . S
C646 C647 1.398 . S
C647 C612 1.382 . S
C647 H624 0.951 . S
C647 C646 1.398 . S
C648 C649 1.384 . S
C648 H661 0.947 . S
C648 C683 1.382 . S
C649 C648 1.384 . S
C649 C650 1.378 . S
C650 C649 1.378 . S
C650 C651 1.378 . S
C650 H662 0.952 . S
C651 C650 1.378 . S
C651 H663 0.950 . S
C651 C682 1.383 . S
H652 C671 0.947 . S
H653 C672 0.946 . S
H654 C674 0.953 . S
H655 C675 0.945 . S
H656 C677 0.952 . S
H657 C678 0.949 . S
H658 C680 0.950 . S
H659 C681 0.948 . S
H660 C683 0.951 . S
H661 C648 0.947 . S
H662 C650 0.952 . S
H663 C651 0.950 . S
N664 C667 1.382 . S
N664 C669 1.363 . S
N665 C667 1.371 . S
N665 C668 1.372 . S
N666 C668 1.361 . S
N666 C669 1.377 . S
C667 N664 1.382 . S
C667 N665 1.371 . S
C667 C670 1.480 . S
C668 N665 1.372 . S
C668 N666 1.361 . S
C668 C676 1.457 . S
C669 N664 1.363 . S
C669 N666 1.377 . S
C669 C682 1.479 . S
C670 C667 1.480 . S
C670 C671 1.383 . S
C670 C675 1.385 . S
C671 H652 0.947 . S
C671 C670 1.383 . S
C671 C672 1.388 . S
C672 H653 0.946 . S
C672 C671 1.388 . S
C672 C673 1.384 . S
C673 C672 1.384 . S
C673 C674 1.377 . S
C674 H654 0.953 . S
C674 C673 1.377 . S
C674 C675 1.369 . S
C675 H655 0.945 . S
C675 C670 1.385 . S
C675 C674 1.369 . S
C676 C668 1.457 . S
C676 C677 1.372 . S
C676 C681 1.364 . S
C677 H656 0.952 . S
C677 C676 1.372 . S
C677 C678 1.389 . S
C678 H657 0.949 . S
C678 C677 1.389 . S
C678 C679 1.387 . S
C679 C678 1.387 . S
C679 C680 1.372 . S
C680 H658 0.950 . S
C680 C679 1.372 . S
C680 C681 1.379 . S
C681 H659 0.948 . S
C681 C676 1.364 . S
C681 C680 1.379 . S
C682 C651 1.383 . S
C682 C669 1.479 . S
C682 C683 1.398 . S
C683 C648 1.382 . S
C683 H660 0.951 . S
C683 C682 1.398 . S
C684 C685 1.384 . S
C684 H697 0.947 . S
C684 C719 1.382 . S
C685 C684 1.384 . S
C685 C686 1.378 . S
C686 C685 1.378 . S
C686 C687 1.378 . S
C686 H698 0.952 . S
C687 C686 1.378 . S
C687 H699 0.950 . S
C687 C718 1.383 . S
H688 C707 0.947 . S
H689 C708 0.946 . S
H690 C710 0.953 . S
H691 C711 0.945 . S
H692 C713 0.952 . S
H693 C714 0.949 . S
H694 C716 0.950 . S
H695 C717 0.948 . S
H696 C719 0.951 . S
H697 C684 0.947 . S
H698 C686 0.952 . S
H699 C687 0.950 . S
N700 C703 1.382 . S
N700 C705 1.363 . S
N701 C703 1.371 . S
N701 C704 1.372 . S
N702 C704 1.361 . S
N702 C705 1.377 . S
C703 N700 1.382 . S
C703 N701 1.371 . S
C703 C706 1.480 . S
C704 N701 1.372 . S
C704 N702 1.361 . S
C704 C712 1.457 . S
C705 N700 1.363 . S
C705 N702 1.377 . S
C705 C718 1.479 . S
C706 C703 1.480 . S
C706 C707 1.383 . S
C706 C711 1.385 . S
C707 H688 0.947 . S
C707 C706 1.383 . S
C707 C708 1.388 . S
C708 H689 0.946 . S
C708 C707 1.388 . S
C708 C709 1.384 . S
C709 C708 1.384 . S
C709 C710 1.377 . S
C710 H690 0.953 . S
C710 C709 1.377 . S
C710 C711 1.369 . S
C711 H691 0.945 . S
C711 C706 1.385 . S
C711 C710 1.369 . S
C712 C704 1.457 . S
C712 C713 1.372 . S
C712 C717 1.364 . S
C713 H692 0.952 . S
C713 C712 1.372 . S
C713 C714 1.389 . S
C714 H693 0.949 . S
C714 C713 1.389 . S
C714 C715 1.387 . S
C715 C714 1.387 . S
C715 C716 1.372 . S
C716 H694 0.950 . S
C716 C715 1.372 . S
C716 C717 1.379 . S
C717 H695 0.948 . S
C717 C712 1.364 . S
C717 C716 1.379 . S
C718 C687 1.383 . S
C718 C705 1.479 . S
C718 C719 1.398 . S
C719 C684 1.382 . S
C719 H696 0.951 . S
C719 C718 1.398 . S
C720 C721 1.384 . S
C720 H733 0.947 . S
C720 C755 1.382 . S
C721 C720 1.384 . S
C721 C722 1.378 . S
C722 C721 1.378 . S
C722 C723 1.378 . S
C722 H734 0.952 . S
C723 C722 1.378 . S
C723 H735 0.950 . S
C723 C754 1.383 . S
H724 C743 0.947 . S
H725 C744 0.946 . S
H726 C746 0.953 . S
H727 C747 0.945 . S
H728 C749 0.952 . S
H729 C750 0.949 . S
H730 C752 0.950 . S
H731 C753 0.948 . S
H732 C755 0.951 . S
H733 C720 0.947 . S
H734 C722 0.952 . S
H735 C723 0.950 . S
N736 C739 1.382 . S
N736 C741 1.363 . S
N737 C739 1.371 . S
N737 C740 1.372 . S
N738 C740 1.361 . S
N738 C741 1.377 . S
C739 N736 1.382 . S
C739 N737 1.371 . S
C739 C742 1.480 . S
C740 N737 1.372 . S
C740 N738 1.361 . S
C740 C748 1.457 . S
C741 N736 1.363 . S
C741 N738 1.377 . S
C741 C754 1.479 . S
C742 C739 1.480 . S
C742 C743 1.383 . S
C742 C747 1.385 . S
C743 H724 0.947 . S
C743 C742 1.383 . S
C743 C744 1.388 . S
C744 H725 0.946 . S
C744 C743 1.388 . S
C744 C745 1.384 . S
C745 C744 1.384 . S
C745 C746 1.377 . S
C746 H726 0.953 . S
C746 C745 1.377 . S
C746 C747 1.369 . S
C747 H727 0.945 . S
C747 C742 1.385 . S
C747 C746 1.369 . S
C748 C740 1.457 . S
C748 C749 1.372 . S
C748 C753 1.364 . S
C749 H728 0.952 . S
C749 C748 1.372 . S
C749 C750 1.389 . S
C750 H729 0.949 . S
C750 C749 1.389 . S
C750 C751 1.387 . S
C751 C750 1.387 . S
C751 C752 1.372 . S
C752 H730 0.950 . S
C752 C751 1.372 . S
C752 C753 1.379 . S
C753 H731 0.948 . S
C753 C748 1.364 . S
C753 C752 1.379 . S
C754 C723 1.383 . S
C754 C741 1.479 . S
C754 C755 1.398 . S
C755 C720 1.382 . S
C755 H732 0.951 . S
C755 C754 1.398 . S
C756 C757 1.384 . S
C756 H769 0.947 . S
C756 C791 1.382 . S
C757 C756 1.384 . S
C757 C758 1.378 . S
C758 C757 1.378 . S
C758 C759 1.378 . S
C758 H770 0.952 . S
C759 C758 1.378 . S
C759 H771 0.950 . S
C759 C790 1.383 . S
H760 C779 0.947 . S
H761 C780 0.946 . S
H762 C782 0.953 . S
H763 C783 0.945 . S
H764 C785 0.952 . S
H765 C786 0.949 . S
H766 C788 0.950 . S
H767 C789 0.948 . S
H768 C791 0.951 . S
H769 C756 0.947 . S
H770 C758 0.952 . S
H771 C759 0.950 . S
N772 C775 1.382 . S
N772 C777 1.363 . S
N773 C775 1.371 . S
N773 C776 1.372 . S
N774 C776 1.361 . S
N774 C777 1.377 . S
C775 N772 1.382 . S
C775 N773 1.371 . S
C775 C778 1.480 . S
C776 N773 1.372 . S
C776 N774 1.361 . S
C776 C784 1.457 . S
C777 N772 1.363 . S
C777 N774 1.377 . S
C777 C790 1.479 . S
C778 C775 1.480 . S
C778 C779 1.383 . S
C778 C783 1.385 . S
C779 H760 0.947 . S
C779 C778 1.383 . S
C779 C780 1.388 . S
C780 H761 0.946 . S
C780 C779 1.388 . S
C780 C781 1.384 . S
C781 C780 1.384 . S
C781 C782 1.377 . S
C782 H762 0.953 . S
C782 C781 1.377 . S
C782 C783 1.369 . S
C783 H763 0.945 . S
C783 C778 1.385 . S
C783 C782 1.369 . S
C784 C776 1.457 . S
C784 C785 1.372 . S
C784 C789 1.364 . S
C785 H764 0.952 . S
C785 C784 1.372 . S
C785 C786 1.389 . S
C786 H765 0.949 . S
C786 C785 1.389 . S
C786 C787 1.387 . S
C787 C786 1.387 . S
C787 C788 1.372 . S
C788 H766 0.950 . S
C788 C787 1.372 . S
C788 C789 1.379 . S
C789 H767 0.948 . S
C789 C784 1.364 . S
C789 C788 1.379 . S
C790 C759 1.383 . S
C790 C777 1.479 . S
C790 C791 1.398 . S
C791 C756 1.382 . S
C791 H768 0.951 . S
C791 C790 1.398 . S
C792 C793 1.384 . S
C792 H805 0.947 . S
C792 C827 1.382 . S
C793 C792 1.384 . S
C793 C794 1.378 . S
C794 C793 1.378 . S
C794 C795 1.378 . S
C794 H806 0.952 . S
C795 C794 1.378 . S
C795 H807 0.950 . S
C795 C826 1.383 . S
H796 C815 0.947 . S
H797 C816 0.946 . S
H798 C818 0.953 . S
H799 C819 0.945 . S
H800 C821 0.952 . S
H801 C822 0.949 . S
H802 C824 0.950 . S
H803 C825 0.948 . S
H804 C827 0.951 . S
H805 C792 0.947 . S
H806 C794 0.952 . S
H807 C795 0.950 . S
N808 C811 1.382 . S
N808 C813 1.363 . S
N809 C811 1.371 . S
N809 C812 1.372 . S
N810 C812 1.361 . S
N810 C813 1.377 . S
C811 N808 1.382 . S
C811 N809 1.371 . S
C811 C814 1.480 . S
C812 N809 1.372 . S
C812 N810 1.361 . S
C812 C820 1.457 . S
C813 N808 1.363 . S
C813 N810 1.377 . S
C813 C826 1.479 . S
C814 C811 1.480 . S
C814 C815 1.383 . S
C814 C819 1.385 . S
C815 H796 0.947 . S
C815 C814 1.383 . S
C815 C816 1.388 . S
C816 H797 0.946 . S
C816 C815 1.388 . S
C816 C817 1.384 . S
C817 C816 1.384 . S
C817 C818 1.377 . S
C818 H798 0.953 . S
C818 C817 1.377 . S
C818 C819 1.369 . S
C819 H799 0.945 . S
C819 C814 1.385 . S
C819 C818 1.369 . S
C820 C812 1.457 . S
C820 C821 1.372 . S
C820 C825 1.364 . S
C821 H800 0.952 . S
C821 C820 1.372 . S
C821 C822 1.389 . S
C822 H801 0.949 . S
C822 C821 1.389 . S
C822 C823 1.387 . S
C823 C822 1.387 . S
C823 C824 1.372 . S
C824 H802 0.950 . S
C824 C823 1.372 . S
C824 C825 1.379 . S
C825 H803 0.948 . S
C825 C820 1.364 . S
C825 C824 1.379 . S
C826 C795 1.383 . S
C826 C813 1.479 . S
C826 C827 1.398 . S
C827 C792 1.382 . S
C827 H804 0.951 . S
C827 C826 1.398 . S
C828 C829 1.384 . S
C828 H841 0.947 . S
C828 C863 1.382 . S
C829 C828 1.384 . S
C829 C830 1.378 . S
C830 C829 1.378 . S
C830 C831 1.378 . S
C830 H842 0.952 . S
C831 C830 1.378 . S
C831 H843 0.950 . S
C831 C862 1.383 . S
H832 C851 0.947 . S
H833 C852 0.946 . S
H834 C854 0.953 . S
H835 C855 0.945 . S
H836 C857 0.952 . S
H837 C858 0.949 . S
H838 C860 0.950 . S
H839 C861 0.948 . S
H840 C863 0.951 . S
H841 C828 0.947 . S
H842 C830 0.952 . S
H843 C831 0.950 . S
N844 C847 1.382 . S
N844 C849 1.363 . S
N845 C847 1.371 . S
N845 C848 1.372 . S
N846 C848 1.361 . S
N846 C849 1.377 . S
C847 N844 1.382 . S
C847 N845 1.371 . S
C847 C850 1.480 . S
C848 N845 1.372 . S
C848 N846 1.361 . S
C848 C856 1.457 . S
C849 N844 1.363 . S
C849 N846 1.377 . S
C849 C862 1.479 . S
C850 C847 1.480 . S
C850 C851 1.383 . S
C850 C855 1.385 . S
C851 H832 0.947 . S
C851 C850 1.383 . S
C851 C852 1.388 . S
C852 H833 0.946 . S
C852 C851 1.388 . S
C852 C853 1.384 . S
C853 C852 1.384 . S
C853 C854 1.377 . S
C854 H834 0.953 . S
C854 C853 1.377 . S
C854 C855 1.369 . S
C855 H835 0.945 . S
C855 C850 1.385 . S
C855 C854 1.369 . S
C856 C848 1.457 . S
C856 C857 1.372 . S
C856 C861 1.364 . S
C857 H836 0.952 . S
C857 C856 1.372 . S
C857 C858 1.389 . S
C858 H837 0.949 . S
C858 C857 1.389 . S
C858 C859 1.387 . S
C859 C858 1.387 . S
C859 C860 1.372 . S
C860 H838 0.950 . S
C860 C859 1.372 . S
C860 C861 1.379 . S
C861 H839 0.948 . S
C861 C856 1.364 . S
C861 C860 1.379 . S
C862 C831 1.383 . S
C862 C849 1.479 . S
C862 C863 1.398 . S
C863 C828 1.382 . S
C863 H840 0.951 . S
C863 C862 1.398 . S
C864 C865 1.384 . S
C864 H877 0.947 . S
C864 C899 1.382 . S
C865 C864 1.384 . S
C865 C866 1.378 . S
C866 C865 1.378 . S
C866 C867 1.378 . S
C866 H878 0.952 . S
C867 C866 1.378 . S
C867 H879 0.950 . S
C867 C898 1.383 . S
H868 C887 0.947 . S
H869 C888 0.946 . S
H870 C890 0.953 . S
H871 C891 0.945 . S
H872 C893 0.952 . S
H873 C894 0.949 . S
H874 C896 0.950 . S
H875 C897 0.948 . S
H876 C899 0.951 . S
H877 C864 0.947 . S
H878 C866 0.952 . S
H879 C867 0.950 . S
N880 C883 1.382 . S
N880 C885 1.363 . S
N881 C883 1.371 . S
N881 C884 1.372 . S
N882 C884 1.361 . S
N882 C885 1.377 . S
C883 N880 1.382 . S
C883 N881 1.371 . S
C883 C886 1.480 . S
C884 N881 1.372 . S
C884 N882 1.361 . S
C884 C892 1.457 . S
C885 N880 1.363 . S
C885 N882 1.377 . S
C885 C898 1.479 . S
C886 C883 1.480 . S
C886 C887 1.383 . S
C886 C891 1.385 . S
C887 H868 0.947 . S
C887 C886 1.383 . S
C887 C888 1.388 . S
C888 H869 0.946 . S
C888 C887 1.388 . S
C888 C889 1.384 . S
C889 C888 1.384 . S
C889 C890 1.377 . S
C890 H870 0.953 . S
C890 C889 1.377 . S
C890 C891 1.369 . S
C891 H871 0.945 . S
C891 C886 1.385 . S
C891 C890 1.369 . S
C892 C884 1.457 . S
C892 C893 1.372 . S
C892 C897 1.364 . S
C893 H872 0.952 . S
C893 C892 1.372 . S
C893 C894 1.389 . S
C894 H873 0.949 . S
C894 C893 1.389 . S
C894 C895 1.387 . S
C895 C894 1.387 . S
C895 C896 1.372 . S
C896 H874 0.950 . S
C896 C895 1.372 . S
C896 C897 1.379 . S
C897 H875 0.948 . S
C897 C892 1.364 . S
C897 C896 1.379 . S
C898 C867 1.383 . S
C898 C885 1.479 . S
C898 C899 1.398 . S
C899 C864 1.382 . S
C899 H876 0.951 . S
C899 C898 1.398 . S
C900 C901 1.384 . S
C900 H913 0.947 . S
C900 C935 1.382 . S
C901 C900 1.384 . S
C901 C902 1.378 . S
C902 C901 1.378 . S
C902 C903 1.378 . S
C902 H914 0.952 . S
C903 C902 1.378 . S
C903 H915 0.950 . S
C903 C934 1.383 . S
H904 C923 0.947 . S
H905 C924 0.946 . S
H906 C926 0.953 . S
H907 C927 0.945 . S
H908 C929 0.952 . S
H909 C930 0.949 . S
H910 C932 0.950 . S
H911 C933 0.948 . S
H912 C935 0.951 . S
H913 C900 0.947 . S
H914 C902 0.952 . S
H915 C903 0.950 . S
N916 C919 1.382 . S
N916 C921 1.363 . S
N917 C919 1.371 . S
N917 C920 1.372 . S
N918 C920 1.361 . S
N918 C921 1.377 . S
C919 N916 1.382 . S
C919 N917 1.371 . S
C919 C922 1.480 . S
C920 N917 1.372 . S
C920 N918 1.361 . S
C920 C928 1.457 . S
C921 N916 1.363 . S
C921 N918 1.377 . S
C921 C934 1.479 . S
C922 C919 1.480 . S
C922 C923 1.383 . S
C922 C927 1.385 . S
C923 H904 0.947 . S
C923 C922 1.383 . S
C923 C924 1.388 . S
C924 H905 0.946 . S
C924 C923 1.388 . S
C924 C925 1.384 . S
C925 C924 1.384 . S
C925 C926 1.377 . S
C926 H906 0.953 . S
C926 C925 1.377 . S
C926 C927 1.369 . S
C927 H907 0.945 . S
C927 C922 1.385 . S
C927 C926 1.369 . S
C928 C920 1.457 . S
C928 C929 1.372 . S
C928 C933 1.364 . S
C929 H908 0.952 . S
C929 C928 1.372 . S
C929 C930 1.389 . S
C930 H909 0.949 . S
C930 C929 1.389 . S
C930 C931 1.387 . S
C931 C930 1.387 . S
C931 C932 1.372 . S
C932 H910 0.950 . S
C932 C931 1.372 . S
C932 C933 1.379 . S
C933 H911 0.948 . S
C933 C928 1.364 . S
C933 C932 1.379 . S
C934 C903 1.383 . S
C934 C921 1.479 . S
C934 C935 1.398 . S
C935 C900 1.382 . S
C935 H912 0.951 . S
C935 C934 1.398 . S
C936 C937 1.384 . S
C936 H949 0.947 . S
C936 C971 1.382 . S
C937 C936 1.384 . S
C937 C938 1.378 . S
C938 C937 1.378 . S
C938 C939 1.378 . S
C938 H950 0.952 . S
C939 C938 1.378 . S
C939 H951 0.950 . S
C939 C970 1.383 . S
H940 C959 0.947 . S
H941 C960 0.946 . S
H942 C962 0.953 . S
H943 C963 0.945 . S
H944 C965 0.952 . S
H945 C966 0.949 . S
H946 C968 0.950 . S
H947 C969 0.948 . S
H948 C971 0.951 . S
H949 C936 0.947 . S
H950 C938 0.952 . S
H951 C939 0.950 . S
N952 C955 1.382 . S
N952 C957 1.363 . S
N953 C955 1.371 . S
N953 C956 1.372 . S
N954 C956 1.361 . S
N954 C957 1.377 . S
C955 N952 1.382 . S
C955 N953 1.371 . S
C955 C958 1.480 . S
C956 N953 1.372 . S
C956 N954 1.361 . S
C956 C964 1.457 . S
C957 N952 1.363 . S
C957 N954 1.377 . S
C957 C970 1.479 . S
C958 C955 1.480 . S
C958 C959 1.383 . S
C958 C963 1.385 . S
C959 H940 0.947 . S
C959 C958 1.383 . S
C959 C960 1.388 . S
C960 H941 0.946 . S
C960 C959 1.388 . S
C960 C961 1.384 . S
C961 C960 1.384 . S
C961 C962 1.377 . S
C962 H942 0.953 . S
C962 C961 1.377 . S
C962 C963 1.369 . S
C963 H943 0.945 . S
C963 C958 1.385 . S
C963 C962 1.369 . S
C964 C956 1.457 . S
C964 C965 1.372 . S
C964 C969 1.364 . S
C965 H944 0.952 . S
C965 C964 1.372 . S
C965 C966 1.389 . S
C966 H945 0.949 . S
C966 C965 1.389 . S
C966 C967 1.387 . S
C967 C966 1.387 . S
C967 C968 1.372 . S
C968 H946 0.950 . S
C968 C967 1.372 . S
C968 C969 1.379 . S
C969 H947 0.948 . S
C969 C964 1.364 . S
C969 C968 1.379 . S
C970 C939 1.383 . S
C970 C957 1.479 . S
C970 C971 1.398 . S
C971 C936 1.382 . S
C971 H948 0.951 . S
C971 C970 1.398 . S
C972 C973 1.384 . S
C972 H985 0.947 . S
C972 C1007 1.382 . S
C973 C972 1.384 . S
C973 C974 1.378 . S
C974 C973 1.378 . S
C974 C975 1.378 . S
C974 H986 0.952 . S
C975 C974 1.378 . S
C975 H987 0.950 . S
C975 C1006 1.383 . S
H976 C995 0.947 . S
H977 C996 0.946 . S
H978 C998 0.953 . S
H979 C999 0.945 . S
H980 C1001 0.952 . S
H981 C1002 0.949 . S
H982 C1004 0.950 . S
H983 C1005 0.948 . S
H984 C1007 0.951 . S
H985 C972 0.947 . S
H986 C974 0.952 . S
H987 C975 0.950 . S
N988 C991 1.382 . S
N988 C993 1.363 . S
N989 C991 1.371 . S
N989 C992 1.372 . S
N990 C992 1.361 . S
N990 C993 1.377 . S
C991 N988 1.382 . S
C991 N989 1.371 . S
C991 C994 1.480 . S
C992 N989 1.372 . S
C992 N990 1.361 . S
C992 C1000 1.457 . S
C993 N988 1.363 . S
C993 N990 1.377 . S
C993 C1006 1.479 . S
C994 C991 1.480 . S
C994 C995 1.383 . S
C994 C999 1.385 . S
C995 H976 0.947 . S
C995 C994 1.383 . S
C995 C996 1.388 . S
C996 H977 0.946 . S
C996 C995 1.388 . S
C996 C997 1.384 . S
C997 C996 1.384 . S
C997 C998 1.377 . S
C998 H978 0.953 . S
C998 C997 1.377 . S
C998 C999 1.369 . S
C999 H979 0.945 . S
C999 C994 1.385 . S
C999 C998 1.369 . S
C1000 C992 1.457 . S
C1000 C1001 1.372 . S
C1000 C1005 1.364 . S
C1001 H980 0.952 . S
C1001 C1000 1.372 . S
C1001 C1002 1.389 . S
C1002 H981 0.949 . S
C1002 C1001 1.389 . S
C1002 C1003 1.387 . S
C1003 C1002 1.387 . S
C1003 C1004 1.372 . S
C1004 H982 0.950 . S
C1004 C1003 1.372 . S
C1004 C1005 1.379 . S
C1005 H983 0.948 . S
C1005 C1000 1.364 . S
C1005 C1004 1.379 . S
C1006 C975 1.383 . S
C1006 C993 1.479 . S
C1006 C1007 1.398 . S
C1007 C972 1.382 . S
C1007 H984 0.951 . S
C1007 C1006 1.398 . S
C1008 C1009 1.384 . S
C1008 H1021 0.947 . S
C1008 C1043 1.382 . S
C1009 C1008 1.384 . S
C1009 C1010 1.378 . S
C1010 C1009 1.378 . S
C1010 C1011 1.378 . S
C1010 H1022 0.952 . S
C1011 C1010 1.378 . S
C1011 H1023 0.950 . S
C1011 C1042 1.383 . S
H1012 C1031 0.947 . S
H1013 C1032 0.946 . S
H1014 C1034 0.953 . S
H1015 C1035 0.945 . S
H1016 C1037 0.952 . S
H1017 C1038 0.949 . S
H1018 C1040 0.950 . S
H1019 C1041 0.948 . S
H1020 C1043 0.951 . S
H1021 C1008 0.947 . S
H1022 C1010 0.952 . S
H1023 C1011 0.950 . S
N1024 C1027 1.382 . S
N1024 C1029 1.363 . S
N1025 C1027 1.371 . S
N1025 C1028 1.372 . S
N1026 C1028 1.361 . S
N1026 C1029 1.377 . S
C1027 N1024 1.382 . S
C1027 N1025 1.371 . S
C1027 C1030 1.480 . S
C1028 N1025 1.372 . S
C1028 N1026 1.361 . S
C1028 C1036 1.457 . S
C1029 N1024 1.363 . S
C1029 N1026 1.377 . S
C1029 C1042 1.479 . S
C1030 C1027 1.480 . S
C1030 C1031 1.383 . S
C1030 C1035 1.385 . S
C1031 H1012 0.947 . S
C1031 C1030 1.383 . S
C1031 C1032 1.388 . S
C1032 H1013 0.946 . S
C1032 C1031 1.388 . S
C1032 C1033 1.384 . S
C1033 C1032 1.384 . S
C1033 C1034 1.377 . S
C1034 H1014 0.953 . S
C1034 C1033 1.377 . S
C1034 C1035 1.369 . S
C1035 H1015 0.945 . S
C1035 C1030 1.385 . S
C1035 C1034 1.369 . S
C1036 C1028 1.457 . S
C1036 C1037 1.372 . S
C1036 C1041 1.364 . S
C1037 H1016 0.952 . S
C1037 C1036 1.372 . S
C1037 C1038 1.389 . S
C1038 H1017 0.949 . S
C1038 C1037 1.389 . S
C1038 C1039 1.387 . S
C1039 C1038 1.387 . S
C1039 C1040 1.372 . S
C1040 H1018 0.950 . S
C1040 C1039 1.372 . S
C1040 C1041 1.379 . S
C1041 H1019 0.948 . S
C1041 C1036 1.364 . S
C1041 C1040 1.379 . S
C1042 C1011 1.383 . S
C1042 C1029 1.479 . S
C1042 C1043 1.398 . S
C1043 C1008 1.382 . S
C1043 H1020 0.951 . S
C1043 C1042 1.398 . S
C1044 C1045 1.384 . S
C1044 H1057 0.947 . S
C1044 C1079 1.382 . S
C1045 C1044 1.384 . S
C1045 C1046 1.378 . S
C1046 C1045 1.378 . S
C1046 C1047 1.378 . S
C1046 H1058 0.952 . S
C1047 C1046 1.378 . S
C1047 H1059 0.950 . S
C1047 C1078 1.383 . S
H1048 C1067 0.947 . S
H1049 C1068 0.946 . S
H1050 C1070 0.953 . S
H1051 C1071 0.945 . S
H1052 C1073 0.952 . S
H1053 C1074 0.949 . S
H1054 C1076 0.950 . S
H1055 C1077 0.948 . S
H1056 C1079 0.951 . S
H1057 C1044 0.947 . S
H1058 C1046 0.952 . S
H1059 C1047 0.950 . S
N1060 C1063 1.382 . S
N1060 C1065 1.363 . S
N1061 C1063 1.371 . S
N1061 C1064 1.372 . S
N1062 C1064 1.361 . S
N1062 C1065 1.377 . S
C1063 N1060 1.382 . S
C1063 N1061 1.371 . S
C1063 C1066 1.480 . S
C1064 N1061 1.372 . S
C1064 N1062 1.361 . S
C1064 C1072 1.457 . S
C1065 N1060 1.363 . S
C1065 N1062 1.377 . S
C1065 C1078 1.479 . S
C1066 C1063 1.480 . S
C1066 C1067 1.383 . S
C1066 C1071 1.385 . S
C1067 H1048 0.947 . S
C1067 C1066 1.383 . S
C1067 C1068 1.388 . S
C1068 H1049 0.946 . S
C1068 C1067 1.388 . S
C1068 C1069 1.384 . S
C1069 C1068 1.384 . S
C1069 C1070 1.377 . S
C1070 H1050 0.953 . S
C1070 C1069 1.377 . S
C1070 C1071 1.369 . S
C1071 H1051 0.945 . S
C1071 C1066 1.385 . S
C1071 C1070 1.369 . S
C1072 C1064 1.457 . S
C1072 C1073 1.372 . S
C1072 C1077 1.364 . S
C1073 H1052 0.952 . S
C1073 C1072 1.372 . S
C1073 C1074 1.389 . S
C1074 H1053 0.949 . S
C1074 C1073 1.389 . S
C1074 C1075 1.387 . S
C1075 C1074 1.387 . S
C1075 C1076 1.372 . S
C1076 H1054 0.950 . S
C1076 C1075 1.372 . S
C1076 C1077 1.379 . S
C1077 H1055 0.948 . S
C1077 C1072 1.364 . S
C1077 C1076 1.379 . S
C1078 C1047 1.383 . S
C1078 C1065 1.479 . S
C1078 C1079 1.398 . S
C1079 C1044 1.382 . S
C1079 H1056 0.951 . S
C1079 C1078 1.398 . S
C1080 C1081 1.384 . S
C1080 H1093 0.947 . S
C1080 C1115 1.382 . S
C1081 C1080 1.384 . S
C1081 C1082 1.378 . S
C1082 C1081 1.378 . S
C1082 C1083 1.378 . S
C1082 H1094 0.952 . S
C1083 C1082 1.378 . S
C1083 H1095 0.950 . S
C1083 C1114 1.383 . S
H1084 C1103 0.947 . S
H1085 C1104 0.946 . S
H1086 C1106 0.953 . S
H1087 C1107 0.945 . S
H1088 C1109 0.952 . S
H1089 C1110 0.949 . S
H1090 C1112 0.950 . S
H1091 C1113 0.948 . S
H1092 C1115 0.951 . S
H1093 C1080 0.947 . S
H1094 C1082 0.952 . S
H1095 C1083 0.950 . S
N1096 C1099 1.382 . S
N1096 C1101 1.363 . S
N1097 C1099 1.371 . S
N1097 C1100 1.372 . S
N1098 C1100 1.361 . S
N1098 C1101 1.377 . S
C1099 N1096 1.382 . S
C1099 N1097 1.371 . S
C1099 C1102 1.480 . S
C1100 N1097 1.372 . S
C1100 N1098 1.361 . S
C1100 C1108 1.457 . S
C1101 N1096 1.363 . S
C1101 N1098 1.377 . S
C1101 C1114 1.479 . S
C1102 C1099 1.480 . S
C1102 C1103 1.383 . S
C1102 C1107 1.385 . S
C1103 H1084 0.947 . S
C1103 C1102 1.383 . S
C1103 C1104 1.388 . S
C1104 H1085 0.946 . S
C1104 C1103 1.388 . S
C1104 C1105 1.384 . S
C1105 C1104 1.384 . S
C1105 C1106 1.377 . S
C1106 H1086 0.953 . S
C1106 C1105 1.377 . S
C1106 C1107 1.369 . S
C1107 H1087 0.945 . S
C1107 C1102 1.385 . S
C1107 C1106 1.369 . S
C1108 C1100 1.457 . S
C1108 C1109 1.372 . S
C1108 C1113 1.364 . S
C1109 H1088 0.952 . S
C1109 C1108 1.372 . S
C1109 C1110 1.389 . S
C1110 H1089 0.949 . S
C1110 C1109 1.389 . S
C1110 C1111 1.387 . S
C1111 C1110 1.387 . S
C1111 C1112 1.372 . S
C1112 H1090 0.950 . S
C1112 C1111 1.372 . S
C1112 C1113 1.379 . S
C1113 H1091 0.948 . S
C1113 C1108 1.364 . S
C1113 C1112 1.379 . S
C1114 C1083 1.383 . S
C1114 C1101 1.479 . S
C1114 C1115 1.398 . S
C1115 C1080 1.382 . S
C1115 H1092 0.951 . S
C1115 C1114 1.398 . S
C1116 C1117 1.384 . S
C1116 H1129 0.947 . S
C1116 C1151 1.382 . S
C1117 C1116 1.384 . S
C1117 C1118 1.378 . S
C1118 C1117 1.378 . S
C1118 C1119 1.378 . S
C1118 H1130 0.952 . S
C1119 C1118 1.378 . S
C1119 H1131 0.950 . S
C1119 C1150 1.383 . S
H1120 C1139 0.947 . S
H1121 C1140 0.946 . S
H1122 C1142 0.953 . S
H1123 C1143 0.945 . S
H1124 C1145 0.952 . S
H1125 C1146 0.949 . S
H1126 C1148 0.950 . S
H1127 C1149 0.948 . S
H1128 C1151 0.951 . S
H1129 C1116 0.947 . S
H1130 C1118 0.952 . S
H1131 C1119 0.950 . S
N1132 C1135 1.382 . S
N1132 C1137 1.363 . S
N1133 C1135 1.371 . S
N1133 C1136 1.372 . S
N1134 C1136 1.361 . S
N1134 C1137 1.377 . S
C1135 N1132 1.382 . S
C1135 N1133 1.371 . S
C1135 C1138 1.480 . S
C1136 N1133 1.372 . S
C1136 N1134 1.361 . S
C1136 C1144 1.457 . S
C1137 N1132 1.363 . S
C1137 N1134 1.377 . S
C1137 C1150 1.479 . S
C1138 C1135 1.480 . S
C1138 C1139 1.383 . S
C1138 C1143 1.385 . S
C1139 H1120 0.947 . S
C1139 C1138 1.383 . S
C1139 C1140 1.388 . S
C1140 H1121 0.946 . S
C1140 C1139 1.388 . S
C1140 C1141 1.384 . S
C1141 C1140 1.384 . S
C1141 C1142 1.377 . S
C1142 H1122 0.953 . S
C1142 C1141 1.377 . S
C1142 C1143 1.369 . S
C1143 H1123 0.945 . S
C1143 C1138 1.385 . S
C1143 C1142 1.369 . S
C1144 C1136 1.457 . S
C1144 C1145 1.372 . S
C1144 C1149 1.364 . S
C1145 H1124 0.952 . S
C1145 C1144 1.372 . S
C1145 C1146 1.389 . S
C1146 H1125 0.949 . S
C1146 C1145 1.389 . S
C1146 C1147 1.387 . S
C1147 C1146 1.387 . S
C1147 C1148 1.372 . S
C1148 H1126 0.950 . S
C1148 C1147 1.372 . S
C1148 C1149 1.379 . S
C1149 H1127 0.948 . S
C1149 C1144 1.364 . S
C1149 C1148 1.379 . S
C1150 C1119 1.383 . S
C1150 C1137 1.479 . S
C1150 C1151 1.398 . S
C1151 C1116 1.382 . S
C1151 H1128 0.951 . S
C1151 C1150 1.398 . S
Cu1152 N1153 1.999 . S
Cu1152 O1158 1.974 1_554 S
Cu1152 N1163 1.985 . S
Cu1152 O1172 1.959 . S
N1153 Cu1152 1.999 . S
N1153 C1155 1.263 1_554 S
N1153 C1157 1.389 . S
N1154 C1155 1.358 . S
N1154 C1156 1.400 . S
C1155 N1153 1.263 1_556 S
C1155 N1154 1.358 . S
C1155 H1161 0.930 . S
C1156 N1154 1.400 . S
C1156 C1157 1.351 1_556 S
C1156 H1173 0.930 . S
C1157 N1153 1.389 . S
C1157 C1156 1.351 1_554 S
C1157 H1162 0.930 . S
O1158 Cu1152 1.974 1_556 S
O1158 C1168 1.282 . S
C1159 O1160 1.261 . S
C1159 O1172 1.251 . S
O1160 C1159 1.261 . S
H1161 C1155 0.930 . S
H1162 C1157 0.930 . S
N1163 Cu1152 1.985 . S
N1163 C1165 1.335 . S
N1163 C1166 1.390 . S
N1164 C1165 1.345 . S
N1164 C1167 1.336 . S
C1165 N1163 1.335 . S
C1165 N1164 1.345 . S
C1165 H1170 0.930 . S
C1166 N1163 1.390 . S
C1166 C1167 1.346 . S
C1166 H1171 0.930 . S
C1167 N1164 1.336 . S
C1167 C1166 1.346 . S
C1167 H1174 0.929 . S
C1168 O1158 1.282 . S
C1168 O1169 1.216 . S
O1169 C1168 1.216 . S
H1170 C1165 0.930 . S
H1171 C1166 0.930 . S
O1172 Cu1152 1.959 . S
O1172 C1159 1.251 . S
H1173 C1156 0.930 . S
H1174 C1167 0.929 . S
Cu1175 N1176 1.999 . S
Cu1175 O1181 1.974 . S
Cu1175 N1186 1.985 1_554 S
Cu1175 O1195 1.959 1_554 S
N1176 Cu1175 1.999 . S
N1176 C1178 1.263 . S
N1176 C1180 1.389 . S
N1177 C1178 1.358 . S
N1177 C1179 1.400 . S
C1178 N1176 1.263 . S
C1178 N1177 1.358 . S
C1178 H1184 0.930 . S
C1179 N1177 1.400 . S
C1179 C1180 1.351 . S
C1179 H1196 0.930 . S
C1180 N1176 1.389 . S
C1180 C1179 1.351 . S
C1180 H1185 0.930 . S
O1181 Cu1175 1.974 . S
O1181 C1191 1.282 . S
C1182 O1183 1.261 . S
C1182 O1195 1.251 . S
O1183 C1182 1.261 . S
H1184 C1178 0.930 . S
H1185 C1180 0.930 . S
N1186 Cu1175 1.985 1_556 S
N1186 C1188 1.335 . S
N1186 C1189 1.390 . S
N1187 C1188 1.345 . S
N1187 C1190 1.336 . S
C1188 N1186 1.335 . S
C1188 N1187 1.345 . S
C1188 H1193 0.930 . S
C1189 N1186 1.390 . S
C1189 C1190 1.346 . S
C1189 H1194 0.930 1_556 S
C1190 N1187 1.336 . S
C1190 C1189 1.346 . S
C1190 H1197 0.929 . S
C1191 O1181 1.282 . S
C1191 O1192 1.216 . S
O1192 C1191 1.216 . S
H1193 C1188 0.930 . S
H1194 C1189 0.930 1_554 S
O1195 Cu1175 1.959 1_556 S
O1195 C1182 1.251 . S
H1196 C1179 0.930 . S
H1197 C1190 0.929 . S
Cu1198 N1199 1.959 1_554 S
Cu1198 O1204 1.924 1_554 S
Cu1198 N1209 2.025 . S
Cu1198 O1218 2.009 . S
N1199 Cu1198 1.959 1_556 S
N1199 C1201 1.263 . S
N1199 C1203 1.389 . S
N1200 C1201 1.358 . S
N1200 C1202 1.400 . S
C1201 N1199 1.263 . S
C1201 N1200 1.358 . S
C1201 H1207 0.930 . S
C1202 N1200 1.400 . S
C1202 C1203 1.351 . S
C1202 H1219 0.930 . S
C1203 N1199 1.389 . S
C1203 C1202 1.351 . S
C1203 H1208 0.930 . S
O1204 Cu1198 1.924 1_556 S
O1204 C1214 1.282 . S
C1205 O1206 1.261 . S
C1205 O1218 1.251 . S
O1206 C1205 1.261 . S
H1207 C1201 0.930 . S
H1208 C1203 0.930 . S
N1209 Cu1198 2.025 . S
N1209 C1211 1.335 . S
N1209 C1212 1.390 . S
N1210 C1211 1.345 . S
N1210 C1213 1.336 . S
C1211 N1209 1.335 . S
C1211 N1210 1.345 . S
C1211 H1216 0.930 . S
C1212 N1209 1.390 . S
C1212 C1213 1.346 . S
C1212 H1217 0.968 . S
C1213 N1210 1.336 . S
C1213 C1212 1.346 . S
C1213 H1220 0.929 . S
C1214 O1204 1.282 . S
C1214 O1215 1.216 . S
O1215 C1214 1.216 . S
H1216 C1211 0.930 . S
H1217 C1212 0.968 . S
O1218 Cu1198 2.009 . S
O1218 C1205 1.251 . S
H1219 C1202 0.930 . S
H1220 C1213 0.929 . S
Cu1221 N1222 2.007 . S
Cu1221 O1227 1.982 . S
Cu1221 N1232 1.978 1_554 S
Cu1221 O1241 1.951 1_554 S
N1222 Cu1221 2.007 . S
N1222 C1224 1.263 . S
N1222 C1226 1.389 . S
N1223 C1224 1.358 . S
N1223 C1225 1.400 . S
C1224 N1222 1.263 . S
C1224 N1223 1.358 . S
C1224 H1230 0.930 . S
C1225 N1223 1.400 . S
C1225 C1226 1.351 . S
C1225 H1242 0.930 . S
C1226 N1222 1.389 . S
C1226 C1225 1.351 . S
C1226 H1231 0.930 . S
O1227 Cu1221 1.982 . S
O1227 C1237 1.282 . S
C1228 O1229 1.261 . S
C1228 O1241 1.251 . S
O1229 C1228 1.261 . S
H1230 C1224 0.930 . S
H1231 C1226 0.930 . S
N1232 Cu1221 1.978 1_556 S
N1232 C1234 1.335 . S
N1232 C1235 1.390 . S
N1233 C1234 1.345 . S
N1233 C1236 1.336 . S
C1234 N1232 1.335 . S
C1234 N1233 1.345 . S
C1234 H1239 0.930 . S
C1235 N1232 1.390 . S
C1235 C1236 1.346 . S
C1235 H1240 0.908 1_556 S
C1236 N1233 1.336 . S
C1236 C1235 1.346 . S
C1236 H1243 0.929 . S
C1237 O1227 1.282 . S
C1237 O1238 1.216 . S
O1238 C1237 1.216 . S
H1239 C1234 0.930 . S
H1240 C1235 0.908 1_554 S
O1241 Cu1221 1.951 1_556 S
O1241 C1228 1.251 . S
H1242 C1225 0.930 . S
H1243 C1236 0.929 . S
Cu1244 N1245 1.999 . S
Cu1244 O1250 1.974 . S
Cu1244 N1255 1.985 1_455 S
Cu1244 O1264 1.959 1_455 S
N1245 Cu1244 1.999 . S
N1245 C1247 1.263 . S
N1245 C1249 1.389 . S
N1246 C1247 1.358 . S
N1246 C1248 1.400 . S
C1247 N1245 1.263 . S
C1247 N1246 1.358 . S
C1247 H1253 0.930 . S
C1248 N1246 1.400 . S
C1248 C1249 1.351 . S
C1248 H1265 0.930 . S
C1249 N1245 1.389 . S
C1249 C1248 1.351 . S
C1249 H1254 0.930 . S
O1250 Cu1244 1.974 . S
O1250 C1260 1.282 . S
C1251 O1252 1.261 . S
C1251 O1264 1.251 . S
O1252 C1251 1.261 . S
H1253 C1247 0.930 . S
H1254 C1249 0.930 . S
N1255 Cu1244 1.985 1_655 S
N1255 C1257 1.335 . S
N1255 C1258 1.379 1_655 S
N1256 C1257 1.345 . S
N1256 C1259 1.336 . S
C1257 N1255 1.335 . S
C1257 N1256 1.345 . S
C1257 H1262 0.930 . S
C1258 N1255 1.379 1_455 S
C1258 C1259 1.292 1_455 S
C1258 H1263 0.987 . S
C1259 N1256 1.336 . S
C1259 C1258 1.292 1_655 S
C1259 H1266 0.929 . S
C1260 O1250 1.282 . S
C1260 O1261 1.216 . S
O1261 C1260 1.216 . S
H1262 C1257 0.930 . S
H1263 C1258 0.987 . S
O1264 Cu1244 1.959 1_655 S
O1264 C1251 1.251 . S
H1265 C1248 0.930 . S
H1266 C1259 0.929 . S
Cu1267 N1268 1.999 . S
Cu1267 O1273 1.974 . S
Cu1267 N1278 1.985 1_545 S
Cu1267 O1287 1.959 1_545 S
N1268 Cu1267 1.999 . S
N1268 C1270 1.263 . S
N1268 C1272 1.389 . S
N1269 C1270 1.358 . S
N1269 C1271 1.400 . S
C1270 N1268 1.263 . S
C1270 N1269 1.358 . S
C1270 H1276 0.930 . S
C1271 N1269 1.400 . S
C1271 C1272 1.351 . S
C1271 H1288 0.930 . S
C1272 N1268 1.389 . S
C1272 C1271 1.351 . S
C1272 H1277 0.930 . S
O1273 Cu1267 1.974 . S
O1273 C1283 1.282 . S
C1274 O1275 1.261 . S
C1274 O1287 1.251 . S
O1275 C1274 1.261 . S
H1276 C1270 0.930 . S
H1277 C1272 0.930 . S
N1278 Cu1267 1.985 1_565 S
N1278 C1280 1.335 . S
N1278 C1281 1.390 . S
N1279 C1280 1.345 . S
N1279 C1282 1.336 . S
C1280 N1278 1.335 . S
C1280 N1279 1.345 . S
C1280 H1285 0.930 . S
C1281 N1278 1.390 . S
C1281 C1282 1.346 . S
C1281 H1286 0.930 1_565 S
C1282 N1279 1.336 . S
C1282 C1281 1.346 . S
C1282 H1289 0.929 . S
C1283 O1273 1.282 . S
C1283 O1284 1.216 . S
O1284 C1283 1.216 . S
H1285 C1280 0.930 . S
H1286 C1281 0.930 1_545 S
O1287 Cu1267 1.959 1_565 S
O1287 C1274 1.251 . S
H1288 C1271 0.930 . S
H1289 C1282 0.929 . S
Cu1290 N1291 2.004 1_455 S
Cu1290 O1296 1.979 1_455 S
Cu1290 N1301 1.981 . S
Cu1290 O1310 1.954 . S
N1291 Cu1290 2.004 1_655 S
N1291 C1293 1.263 . S
N1291 C1295 1.389 . S
N1292 C1293 1.358 . S
N1292 C1294 1.400 . S
C1293 N1291 1.263 . S
C1293 N1292 1.358 . S
C1293 H1299 0.930 . S
C1294 N1292 1.400 . S
C1294 C1295 1.351 . S
C1294 H1311 0.930 . S
C1295 N1291 1.389 . S
C1295 C1294 1.351 . S
C1295 H1300 0.930 . S
O1296 Cu1290 1.979 1_655 S
O1296 C1306 1.282 . S
C1297 O1298 1.261 . S
C1297 O1310 1.251 . S
O1298 C1297 1.261 . S
H1299 C1293 0.930 . S
H1300 C1295 0.930 . S
N1301 Cu1290 1.981 . S
N1301 C1303 1.335 . S
N1301 C1304 1.390 . S
N1302 C1303 1.345 . S
N1302 C1305 1.336 . S
C1303 N1301 1.335 . S
C1303 N1302 1.345 . S
C1303 H1308 0.930 . S
C1304 N1301 1.390 . S
C1304 C1305 1.346 . S
C1304 H1309 0.930 . S
C1305 N1302 1.336 . S
C1305 C1304 1.346 . S
C1305 H1312 0.929 . S
C1306 O1296 1.282 . S
C1306 O1307 1.216 . S
O1307 C1306 1.216 . S
H1308 C1303 0.930 . S
H1309 C1304 0.930 . S
O1310 Cu1290 1.954 . S
O1310 C1297 1.251 . S
H1311 C1294 0.930 . S
H1312 C1305 0.929 . S
Cu1313 N1314 1.988 1_565 S
Cu1313 O1319 1.959 1_565 S
Cu1313 N1324 1.996 . S
Cu1313 O1333 1.973 . S
N1314 Cu1313 1.988 1_545 S
N1314 C1316 1.263 . S
N1314 C1318 1.389 . S
N1315 C1316 1.358 . S
N1315 C1317 1.400 . S
C1316 N1314 1.263 . S
C1316 N1315 1.358 . S
C1316 H1322 0.930 . S
C1317 N1315 1.400 . S
C1317 C1318 1.351 . S
C1317 H1334 0.930 . S
C1318 N1314 1.389 . S
C1318 C1317 1.351 . S
C1318 H1323 0.930 . S
O1319 Cu1313 1.959 1_545 S
O1319 C1329 1.282 . S
C1320 O1321 1.261 . S
C1320 O1333 1.251 . S
O1321 C1320 1.261 . S
H1322 C1316 0.930 . S
H1323 C1318 0.930 . S
N1324 Cu1313 1.996 . S
N1324 C1326 1.335 . S
N1324 C1327 1.390 . S
N1325 C1326 1.345 . S
N1325 C1328 1.336 . S
C1326 N1324 1.335 . S
C1326 N1325 1.345 . S
C1326 H1331 0.930 . S
C1327 N1324 1.390 . S
C1327 C1328 1.346 . S
C1327 H1332 0.930 . S
C1328 N1325 1.336 . S
C1328 C1327 1.346 . S
C1328 H1335 0.929 . S
C1329 O1319 1.282 . S
C1329 O1330 1.216 . S
O1330 C1329 1.216 . S
H1331 C1326 0.930 . S
H1332 C1327 0.930 . S
O1333 Cu1313 1.973 . S
O1333 C1320 1.251 . S
H1334 C1317 0.930 . S
H1335 C1328 0.929 . S
Cu1336 N1337 1.999 . S
Cu1336 O1342 1.974 . S
Cu1336 N1347 1.985 1_455 S
Cu1336 O1356 1.959 1_455 S
N1337 Cu1336 1.999 . S
N1337 C1339 1.263 . S
N1337 C1341 1.389 . S
N1338 C1339 1.358 . S
N1338 C1340 1.400 . S
C1339 N1337 1.263 . S
C1339 N1338 1.358 . S
C1339 H1345 0.930 . S
C1340 N1338 1.400 . S
C1340 C1341 1.351 . S
C1340 H1357 0.930 . S
C1341 N1337 1.389 . S
C1341 C1340 1.351 . S
C1341 H1346 0.930 . S
O1342 Cu1336 1.974 . S
O1342 C1352 1.282 . S
C1343 O1344 1.261 . S
C1343 O1356 1.251 . S
O1344 C1343 1.261 . S
H1345 C1339 0.930 . S
H1346 C1341 0.930 . S
N1347 Cu1336 1.985 1_655 S
N1347 C1349 1.335 . S
N1347 C1350 1.390 1_655 S
N1348 C1349 1.345 . S
N1348 C1351 1.336 . S
C1349 N1347 1.335 . S
C1349 N1348 1.345 . S
C1349 H1354 0.930 . S
C1350 N1347 1.390 1_455 S
C1350 C1351 1.345 1_455 S
C1350 H1355 0.931 . S
C1351 N1348 1.336 . S
C1351 C1350 1.345 1_655 S
C1351 H1358 0.929 . S
C1352 O1342 1.282 . S
C1352 O1353 1.216 . S
O1353 C1352 1.216 . S
H1354 C1349 0.930 . S
H1355 C1350 0.931 . S
O1356 Cu1336 1.959 1_655 S
O1356 C1343 1.251 . S
H1357 C1340 0.930 . S
H1358 C1351 0.929 . S
Cu1359 N1360 1.999 . S
Cu1359 O1365 1.974 . S
Cu1359 N1370 1.949 1_545 S
Cu1359 O1379 1.959 1_545 S
N1360 Cu1359 1.999 . S
N1360 C1362 1.263 . S
N1360 C1364 1.389 . S
N1361 C1362 1.358 . S
N1361 C1363 1.400 . S
C1362 N1360 1.263 . S
C1362 N1361 1.358 . S
C1362 H1368 0.930 . S
C1363 N1361 1.400 . S
C1363 C1364 1.351 . S
C1363 H1380 0.930 . S
C1364 N1360 1.389 . S
C1364 C1363 1.351 . S
C1364 H1369 0.930 . S
O1365 Cu1359 1.974 . S
O1365 C1375 1.282 . S
C1366 O1367 1.261 . S
C1366 O1379 1.251 . S
O1367 C1366 1.261 . S
H1368 C1362 0.930 . S
H1369 C1364 0.930 . S
N1370 Cu1359 1.949 1_565 S
N1370 C1372 1.389 . S
N1370 C1373 1.381 1_565 S
N1371 C1372 1.345 . S
N1371 C1374 1.336 . S
C1372 N1370 1.389 . S
C1372 N1371 1.345 . S
C1372 H1377 0.930 . S
C1373 N1370 1.381 1_545 S
C1373 C1374 1.346 1_545 S
C1373 H1378 0.930 . S
C1374 N1371 1.336 . S
C1374 C1373 1.346 1_565 S
C1374 H1381 0.929 . S
C1375 O1365 1.282 . S
C1375 O1376 1.216 . S
O1376 C1375 1.216 . S
H1377 C1372 0.930 . S
H1378 C1373 0.930 . S
O1379 Cu1359 1.959 1_565 S
O1379 C1366 1.251 . S
H1380 C1363 0.930 . S
H1381 C1374 0.929 . S
Cu1382 N1383 1.999 . S
Cu1382 O1388 1.974 . S
Cu1382 N1393 1.985 . S
Cu1382 O1402 1.959 . S
N1383 Cu1382 1.999 . S
N1383 C1385 1.263 1_455 S
N1383 C1387 1.389 . S
N1384 C1385 1.358 . S
N1384 C1386 1.400 . S
C1385 N1383 1.263 1_655 S
C1385 N1384 1.358 . S
C1385 H1391 0.930 . S
C1386 N1384 1.400 . S
C1386 C1387 1.351 1_655 S
C1386 H1403 0.930 . S
C1387 N1383 1.389 . S
C1387 C1386 1.351 1_455 S
C1387 H1392 0.930 . S
O1388 Cu1382 1.974 . S
O1388 C1398 1.282 1_455 S
C1389 O1390 1.261 . S
C1389 O1402 1.251 . S
O1390 C1389 1.261 . S
H1391 C1385 0.930 . S
H1392 C1387 0.930 . S
N1393 Cu1382 1.985 . S
N1393 C1395 1.335 . S
N1393 C1396 1.390 . S
N1394 C1395 1.345 . S
N1394 C1397 1.336 . S
C1395 N1393 1.335 . S
C1395 N1394 1.345 . S
C1395 H1400 0.930 . S
C1396 N1393 1.390 . S
C1396 C1397 1.346 . S
C1396 H1401 0.930 . S
C1397 N1394 1.336 . S
C1397 C1396 1.346 . S
C1397 H1404 0.929 . S
C1398 O1388 1.282 1_655 S
C1398 O1399 1.216 1_655 S
O1399 C1398 1.216 1_455 S
H1400 C1395 0.930 . S
H1401 C1396 0.930 . S
O1402 Cu1382 1.959 . S
O1402 C1389 1.251 . S
H1403 C1386 0.930 . S
H1404 C1397 0.929 . S
Cu1405 N1406 1.999 . S
Cu1405 O1411 1.974 . S
Cu1405 N1416 2.027 . S
Cu1405 O1425 1.959 1_545 S
N1406 Cu1405 1.999 . S
N1406 C1408 1.263 . S
N1406 C1410 1.389 . S
N1407 C1408 1.358 . S
N1407 C1409 1.400 . S
C1408 N1406 1.263 . S
C1408 N1407 1.358 . S
C1408 H1414 0.930 . S
C1409 N1407 1.400 . S
C1409 C1410 1.351 . S
C1409 H1426 0.930 . S
C1410 N1406 1.389 . S
C1410 C1409 1.351 . S
C1410 H1415 0.930 . S
O1411 Cu1405 1.974 . S
O1411 C1421 1.282 . S
C1412 O1413 1.256 1_565 S
C1412 O1425 1.251 . S
O1413 C1412 1.256 1_545 S
H1414 C1408 0.930 . S
H1415 C1410 0.930 . S
N1416 Cu1405 2.027 . S
N1416 C1418 1.269 1_545 S
N1416 C1419 1.407 . S
N1417 C1418 1.345 . S
N1417 C1420 1.336 . S
C1418 N1416 1.269 1_565 S
C1418 N1417 1.345 . S
C1418 H1423 0.930 . S
C1419 N1416 1.407 . S
C1419 C1420 1.346 1_545 S
C1419 H1424 0.930 . S
C1420 N1417 1.336 . S
C1420 C1419 1.346 1_565 S
C1420 H1427 0.929 . S
C1421 O1411 1.282 . S
C1421 O1422 1.216 . S
O1422 C1421 1.216 . S
H1423 C1418 0.930 . S
H1424 C1419 0.930 . S
O1425 Cu1405 1.959 1_565 S
O1425 C1412 1.251 . S
H1426 C1409 0.930 . S
H1427 C1420 0.929 . S
Cu1428 N1429 1.999 . S
Cu1428 O1434 1.974 . S
Cu1428 N1439 1.985 . S
Cu1428 O1448 1.959 . S
N1429 Cu1428 1.999 . S
N1429 C1431 1.263 . S
N1429 C1433 1.389 . S
N1430 C1431 1.358 . S
N1430 C1432 1.400 . S
C1431 N1429 1.263 . S
C1431 N1430 1.358 . S
C1431 H1437 0.930 . S
C1432 N1430 1.400 . S
C1432 C1433 1.351 . S
C1432 H1449 0.930 . S
C1433 N1429 1.389 . S
C1433 C1432 1.351 . S
C1433 H1438 0.930 . S
O1434 Cu1428 1.974 . S
O1434 C1444 1.282 . S
C1435 O1436 1.261 . S
C1435 O1448 1.251 . S
O1436 C1435 1.261 . S
H1437 C1431 0.930 . S
H1438 C1433 0.930 . S
N1439 Cu1428 1.985 . S
N1439 C1441 1.335 . S
N1439 C1442 1.390 . S
N1440 C1441 1.345 . S
N1440 C1443 1.336 . S
C1441 N1439 1.335 . S
C1441 N1440 1.345 . S
C1441 H1446 0.930 . S
C1442 N1439 1.390 . S
C1442 C1443 1.346 . S
C1442 H1447 0.930 . S
C1443 N1440 1.336 . S
C1443 C1442 1.346 . S
C1443 H1450 0.929 . S
C1444 O1434 1.282 . S
C1444 O1445 1.216 . S
O1445 C1444 1.216 . S
H1446 C1441 0.930 . S
H1447 C1442 0.930 . S
O1448 Cu1428 1.959 . S
O1448 C1435 1.251 . S
H1449 C1432 0.930 . S
H1450 C1443 0.929 . S
Cu1451 N1452 1.999 . S
Cu1451 O1457 1.974 . S
Cu1451 N1462 1.985 . S
Cu1451 O1471 1.959 . S
N1452 Cu1451 1.999 . S
N1452 C1454 1.263 . S
N1452 C1456 1.389 . S
N1453 C1454 1.358 . S
N1453 C1455 1.400 . S
C1454 N1452 1.263 . S
C1454 N1453 1.358 . S
C1454 H1460 0.930 . S
C1455 N1453 1.400 . S
C1455 C1456 1.351 . S
C1455 H1472 0.930 . S
C1456 N1452 1.389 . S
C1456 C1455 1.351 . S
C1456 H1461 0.930 . S
O1457 Cu1451 1.974 . S
O1457 C1467 1.282 . S
C1458 O1459 1.261 . S
C1458 O1471 1.251 . S
O1459 C1458 1.261 . S
H1460 C1454 0.930 . S
H1461 C1456 0.930 . S
N1462 Cu1451 1.985 . S
N1462 C1464 1.335 . S
N1462 C1465 1.390 . S
N1463 C1464 1.345 . S
N1463 C1466 1.336 . S
C1464 N1462 1.335 . S
C1464 N1463 1.345 . S
C1464 H1469 0.930 . S
C1465 N1462 1.390 . S
C1465 C1466 1.346 . S
C1465 H1470 0.930 . S
C1466 N1463 1.336 . S
C1466 C1465 1.346 . S
C1466 H1473 0.929 . S
C1467 O1457 1.282 . S
C1467 O1468 1.216 . S
O1468 C1467 1.216 . S
H1469 C1464 0.930 . S
H1470 C1465 0.930 . S
O1471 Cu1451 1.959 . S
O1471 C1458 1.251 . S
H1472 C1455 0.930 . S
H1473 C1466 0.929 . S
Cu1474 N1475 1.999 . S
Cu1474 O1480 1.974 . S
Cu1474 N1485 1.985 . S
Cu1474 O1494 1.959 . S
N1475 Cu1474 1.999 . S
N1475 C1477 1.263 . S
N1475 C1479 1.389 . S
N1476 C1477 1.358 . S
N1476 C1478 1.400 . S
C1477 N1475 1.263 . S
C1477 N1476 1.358 . S
C1477 H1483 0.930 . S
C1478 N1476 1.400 . S
C1478 C1479 1.351 . S
C1478 H1495 0.930 . S
C1479 N1475 1.389 . S
C1479 C1478 1.351 . S
C1479 H1484 0.930 . S
O1480 Cu1474 1.974 . S
O1480 C1490 1.282 . S
C1481 O1482 1.261 . S
C1481 O1494 1.251 . S
O1482 C1481 1.261 . S
H1483 C1477 0.930 . S
H1484 C1479 0.930 . S
N1485 Cu1474 1.985 . S
N1485 C1487 1.335 . S
N1485 C1488 1.390 . S
N1486 C1487 1.345 . S
N1486 C1489 1.336 . S
C1487 N1485 1.335 . S
C1487 N1486 1.345 . S
C1487 H1492 0.930 . S
C1488 N1485 1.390 . S
C1488 C1489 1.346 . S
C1488 H1493 0.930 . S
C1489 N1486 1.336 . S
C1489 C1488 1.346 . S
C1489 H1496 0.929 . S
C1490 O1480 1.282 . S
C1490 O1491 1.216 . S
O1491 C1490 1.216 . S
H1492 C1487 0.930 . S
H1493 C1488 0.930 . S
O1494 Cu1474 1.959 . S
O1494 C1481 1.251 . S
H1495 C1478 0.930 . S
H1496 C1489 0.929 . S
Cu1497 N1498 1.999 . S
Cu1497 O1503 1.974 . S
Cu1497 N1508 1.985 . S
Cu1497 O1517 1.959 . S
N1498 Cu1497 1.999 . S
N1498 C1500 1.263 . S
N1498 C1502 1.389 . S
N1499 C1500 1.358 . S
N1499 C1501 1.400 . S
C1500 N1498 1.263 . S
C1500 N1499 1.358 . S
C1500 H1506 0.930 . S
C1501 N1499 1.400 . S
C1501 C1502 1.351 . S
C1501 H1518 0.930 . S
C1502 N1498 1.389 . S
C1502 C1501 1.351 . S
C1502 H1507 0.930 . S
O1503 Cu1497 1.974 . S
O1503 C1513 1.282 . S
C1504 O1505 1.261 . S
C1504 O1517 1.251 . S
O1505 C1504 1.261 . S
H1506 C1500 0.930 . S
H1507 C1502 0.930 . S
N1508 Cu1497 1.985 . S
N1508 C1510 1.335 . S
N1508 C1511 1.390 . S
N1509 C1510 1.345 . S
N1509 C1512 1.336 . S
C1510 N1508 1.335 . S
C1510 N1509 1.345 . S
C1510 H1515 0.930 . S
C1511 N1508 1.390 . S
C1511 C1512 1.346 . S
C1511 H1516 0.930 . S
C1512 N1509 1.336 . S
C1512 C1511 1.346 . S
C1512 H1519 0.929 . S
C1513 O1503 1.282 . S
C1513 O1514 1.216 . S
O1514 C1513 1.216 . S
H1515 C1510 0.930 . S
H1516 C1511 0.930 . S
O1517 Cu1497 1.959 . S
O1517 C1504 1.251 . S
H1518 C1501 0.930 . S
H1519 C1512 0.929 . S
Cu1520 N1521 1.999 . S
Cu1520 O1526 1.974 . S
Cu1520 N1531 1.985 . S
Cu1520 O1540 1.959 . S
N1521 Cu1520 1.999 . S
N1521 C1523 1.263 . S
N1521 C1525 1.389 . S
N1522 C1523 1.358 . S
N1522 C1524 1.400 . S
C1523 N1521 1.263 . S
C1523 N1522 1.358 . S
C1523 H1529 0.930 . S
C1524 N1522 1.400 . S
C1524 C1525 1.351 . S
C1524 H1541 0.930 . S
C1525 N1521 1.389 . S
C1525 C1524 1.351 . S
C1525 H1530 0.930 . S
O1526 Cu1520 1.974 . S
O1526 C1536 1.282 . S
C1527 O1528 1.261 . S
C1527 O1540 1.251 . S
O1528 C1527 1.261 . S
H1529 C1523 0.930 . S
H1530 C1525 0.930 . S
N1531 Cu1520 1.985 . S
N1531 C1533 1.335 . S
N1531 C1534 1.390 . S
N1532 C1533 1.345 . S
N1532 C1535 1.336 . S
C1533 N1531 1.335 . S
C1533 N1532 1.345 . S
C1533 H1538 0.930 . S
C1534 N1531 1.390 . S
C1534 C1535 1.346 . S
C1534 H1539 0.930 . S
C1535 N1532 1.336 . S
C1535 C1534 1.346 . S
C1535 H1542 0.929 . S
C1536 O1526 1.282 . S
C1536 O1537 1.216 . S
O1537 C1536 1.216 . S
H1538 C1533 0.930 . S
H1539 C1534 0.930 . S
O1540 Cu1520 1.959 . S
O1540 C1527 1.251 . S
H1541 C1524 0.930 . S
H1542 C1535 0.929 . S
Cu1543 N1544 1.999 . S
Cu1543 O1549 1.974 . S
Cu1543 N1554 1.985 . S
Cu1543 O1563 1.959 . S
N1544 Cu1543 1.999 . S
N1544 C1546 1.263 . S
N1544 C1548 1.389 . S
N1545 C1546 1.358 . S
N1545 C1547 1.400 . S
C1546 N1544 1.263 . S
C1546 N1545 1.358 . S
C1546 H1552 0.930 . S
C1547 N1545 1.400 . S
C1547 C1548 1.351 . S
C1547 H1564 0.930 . S
C1548 N1544 1.389 . S
C1548 C1547 1.351 . S
C1548 H1553 0.930 . S
O1549 Cu1543 1.974 . S
O1549 C1559 1.282 . S
C1550 O1551 1.261 . S
C1550 O1563 1.251 . S
O1551 C1550 1.261 . S
H1552 C1546 0.930 . S
H1553 C1548 0.930 . S
N1554 Cu1543 1.985 . S
N1554 C1556 1.335 . S
N1554 C1557 1.390 . S
N1555 C1556 1.345 . S
N1555 C1558 1.336 . S
C1556 N1554 1.335 . S
C1556 N1555 1.345 . S
C1556 H1561 0.930 . S
C1557 N1554 1.390 . S
C1557 C1558 1.346 . S
C1557 H1562 0.930 . S
C1558 N1555 1.336 . S
C1558 C1557 1.346 . S
C1558 H1565 0.929 . S
C1559 O1549 1.282 . S
C1559 O1560 1.216 . S
O1560 C1559 1.216 . S
H1561 C1556 0.930 . S
H1562 C1557 0.930 . S
O1563 Cu1543 1.959 . S
O1563 C1550 1.251 . S
H1564 C1547 0.930 . S
H1565 C1558 0.929 . S
Cu1566 N1567 1.999 . S
Cu1566 O1572 1.974 . S
Cu1566 N1577 1.985 . S
Cu1566 O1586 1.959 . S
N1567 Cu1566 1.999 . S
N1567 C1569 1.263 . S
N1567 C1571 1.389 . S
N1568 C1569 1.358 . S
N1568 C1570 1.400 . S
C1569 N1567 1.263 . S
C1569 N1568 1.358 . S
C1569 H1575 0.930 . S
C1570 N1568 1.400 . S
C1570 C1571 1.351 . S
C1570 H1587 0.930 . S
C1571 N1567 1.389 . S
C1571 C1570 1.351 . S
C1571 H1576 0.930 . S
O1572 Cu1566 1.974 . S
O1572 C1582 1.282 . S
C1573 O1574 1.261 . S
C1573 O1586 1.251 . S
O1574 C1573 1.261 . S
H1575 C1569 0.930 . S
H1576 C1571 0.930 . S
N1577 Cu1566 1.985 . S
N1577 C1579 1.335 . S
N1577 C1580 1.390 . S
N1578 C1579 1.345 . S
N1578 C1581 1.336 . S
C1579 N1577 1.335 . S
C1579 N1578 1.345 . S
C1579 H1584 0.930 . S
C1580 N1577 1.390 . S
C1580 C1581 1.346 . S
C1580 H1585 0.930 . S
C1581 N1578 1.336 . S
C1581 C1580 1.346 . S
C1581 H1588 0.929 . S
C1582 O1572 1.282 . S
C1582 O1583 1.216 . S
O1583 C1582 1.216 . S
H1584 C1579 0.930 . S
H1585 C1580 0.930 . S
O1586 Cu1566 1.959 . S
O1586 C1573 1.251 . S
H1587 C1570 0.930 . S
H1588 C1581 0.929 . S
Cu1589 N1590 1.999 . S
Cu1589 O1595 1.974 . S
Cu1589 N1600 1.985 . S
Cu1589 O1609 1.959 . S
N1590 Cu1589 1.999 . S
N1590 C1592 1.263 . S
N1590 C1594 1.389 . S
N1591 C1592 1.358 . S
N1591 C1593 1.400 . S
C1592 N1590 1.263 . S
C1592 N1591 1.358 . S
C1592 H1598 0.930 . S
C1593 N1591 1.400 . S
C1593 C1594 1.351 . S
C1593 H1610 0.930 . S
C1594 N1590 1.389 . S
C1594 C1593 1.351 . S
C1594 H1599 0.930 . S
O1595 Cu1589 1.974 . S
O1595 C1605 1.282 . S
C1596 O1597 1.261 . S
C1596 O1609 1.251 . S
O1597 C1596 1.261 . S
H1598 C1592 0.930 . S
H1599 C1594 0.930 . S
N1600 Cu1589 1.985 . S
N1600 C1602 1.335 . S
N1600 C1603 1.390 . S
N1601 C1602 1.345 . S
N1601 C1604 1.336 . S
C1602 N1600 1.335 . S
C1602 N1601 1.345 . S
C1602 H1607 0.930 . S
C1603 N1600 1.390 . S
C1603 C1604 1.346 . S
C1603 H1608 0.930 . S
C1604 N1601 1.336 . S
C1604 C1603 1.346 . S
C1604 H1611 0.929 . S
C1605 O1595 1.282 . S
C1605 O1606 1.216 . S
O1606 C1605 1.216 . S
H1607 C1602 0.930 . S
H1608 C1603 0.930 . S
O1609 Cu1589 1.959 . S
O1609 C1596 1.251 . S
H1610 C1593 0.930 . S
H1611 C1604 0.929 . S
Cu1612 N1613 1.999 . S
Cu1612 O1618 1.974 . S
Cu1612 N1623 1.985 . S
Cu1612 O1632 1.959 . S
N1613 Cu1612 1.999 . S
N1613 C1615 1.263 . S
N1613 C1617 1.389 . S
N1614 C1615 1.358 . S
N1614 C1616 1.400 . S
C1615 N1613 1.263 . S
C1615 N1614 1.358 . S
C1615 H1621 0.930 . S
C1616 N1614 1.400 . S
C1616 C1617 1.351 . S
C1616 H1633 0.930 . S
C1617 N1613 1.389 . S
C1617 C1616 1.351 . S
C1617 H1622 0.930 . S
O1618 Cu1612 1.974 . S
O1618 C1628 1.282 . S
C1619 O1620 1.261 . S
C1619 O1632 1.251 . S
O1620 C1619 1.261 . S
H1621 C1615 0.930 . S
H1622 C1617 0.930 . S
N1623 Cu1612 1.985 . S
N1623 C1625 1.335 . S
N1623 C1626 1.390 . S
N1624 C1625 1.345 . S
N1624 C1627 1.336 . S
C1625 N1623 1.335 . S
C1625 N1624 1.345 . S
C1625 H1630 0.930 . S
C1626 N1623 1.390 . S
C1626 C1627 1.346 . S
C1626 H1631 0.930 . S
C1627 N1624 1.336 . S
C1627 C1626 1.346 . S
C1627 H1634 0.929 . S
C1628 O1618 1.282 . S
C1628 O1629 1.216 . S
O1629 C1628 1.216 . S
H1630 C1625 0.930 . S
H1631 C1626 0.930 . S
O1632 Cu1612 1.959 . S
O1632 C1619 1.251 . S
H1633 C1616 0.930 . S
H1634 C1627 0.929 . S
Cu1635 N1636 1.999 . S
Cu1635 O1641 1.974 . S
Cu1635 N1646 1.985 . S
Cu1635 O1655 1.959 . S
N1636 Cu1635 1.999 . S
N1636 C1638 1.263 . S
N1636 C1640 1.389 . S
N1637 C1638 1.358 . S
N1637 C1639 1.400 . S
C1638 N1636 1.263 . S
C1638 N1637 1.358 . S
C1638 H1644 0.930 . S
C1639 N1637 1.400 . S
C1639 C1640 1.351 . S
C1639 H1656 0.930 . S
C1640 N1636 1.389 . S
C1640 C1639 1.351 . S
C1640 H1645 0.930 . S
O1641 Cu1635 1.974 . S
O1641 C1651 1.282 . S
C1642 O1643 1.261 . S
C1642 O1655 1.251 . S
O1643 C1642 1.261 . S
H1644 C1638 0.930 . S
H1645 C1640 0.930 . S
N1646 Cu1635 1.985 . S
N1646 C1648 1.335 . S
N1646 C1649 1.390 . S
N1647 C1648 1.345 . S
N1647 C1650 1.336 . S
C1648 N1646 1.335 . S
C1648 N1647 1.345 . S
C1648 H1653 0.930 . S
C1649 N1646 1.390 . S
C1649 C1650 1.346 . S
C1649 H1654 0.930 . S
C1650 N1647 1.336 . S
C1650 C1649 1.346 . S
C1650 H1657 0.929 . S
C1651 O1641 1.282 . S
C1651 O1652 1.216 . S
O1652 C1651 1.216 . S
H1653 C1648 0.930 . S
H1654 C1649 0.930 . S
O1655 Cu1635 1.959 . S
O1655 C1642 1.251 . S
H1656 C1639 0.930 . S
H1657 C1650 0.929 . S
Cu1658 N1659 1.999 . S
Cu1658 O1664 1.974 . S
Cu1658 N1669 1.985 . S
Cu1658 O1678 1.959 . S
N1659 Cu1658 1.999 . S
N1659 C1661 1.263 . S
N1659 C1663 1.389 . S
N1660 C1661 1.358 . S
N1660 C1662 1.400 . S
C1661 N1659 1.263 . S
C1661 N1660 1.358 . S
C1661 H1667 0.930 . S
C1662 N1660 1.400 . S
C1662 C1663 1.351 . S
C1662 H1679 0.930 . S
C1663 N1659 1.389 . S
C1663 C1662 1.351 . S
C1663 H1668 0.930 . S
O1664 Cu1658 1.974 . S
O1664 C1674 1.282 . S
C1665 O1666 1.261 . S
C1665 O1678 1.251 . S
O1666 C1665 1.261 . S
H1667 C1661 0.930 . S
H1668 C1663 0.930 . S
N1669 Cu1658 1.985 . S
N1669 C1671 1.335 . S
N1669 C1672 1.390 . S
N1670 C1671 1.345 . S
N1670 C1673 1.336 . S
C1671 N1669 1.335 . S
C1671 N1670 1.345 . S
C1671 H1676 0.930 . S
C1672 N1669 1.390 . S
C1672 C1673 1.346 . S
C1672 H1677 0.930 . S
C1673 N1670 1.336 . S
C1673 C1672 1.346 . S
C1673 H1680 0.929 . S
C1674 O1664 1.282 . S
C1674 O1675 1.216 . S
O1675 C1674 1.216 . S
H1676 C1671 0.930 . S
H1677 C1672 0.930 . S
O1678 Cu1658 1.959 . S
O1678 C1665 1.251 . S
H1679 C1662 0.930 . S
H1680 C1673 0.929 . S
Cu1681 N1682 1.999 . S
Cu1681 O1687 1.974 . S
Cu1681 N1692 1.985 . S
Cu1681 O1701 1.959 . S
N1682 Cu1681 1.999 . S
N1682 C1684 1.263 . S
N1682 C1686 1.389 . S
N1683 C1684 1.358 . S
N1683 C1685 1.400 . S
C1684 N1682 1.263 . S
C1684 N1683 1.358 . S
C1684 H1690 0.930 . S
C1685 N1683 1.400 . S
C1685 C1686 1.351 . S
C1685 H1702 0.930 . S
C1686 N1682 1.389 . S
C1686 C1685 1.351 . S
C1686 H1691 0.930 . S
O1687 Cu1681 1.974 . S
O1687 C1697 1.282 . S
C1688 O1689 1.261 . S
C1688 O1701 1.251 . S
O1689 C1688 1.261 . S
H1690 C1684 0.930 . S
H1691 C1686 0.930 . S
N1692 Cu1681 1.985 . S
N1692 C1694 1.335 . S
N1692 C1695 1.390 . S
N1693 C1694 1.345 . S
N1693 C1696 1.336 . S
C1694 N1692 1.335 . S
C1694 N1693 1.345 . S
C1694 H1699 0.930 . S
C1695 N1692 1.390 . S
C1695 C1696 1.346 . S
C1695 H1700 0.930 . S
C1696 N1693 1.336 . S
C1696 C1695 1.346 . S
C1696 H1703 0.929 . S
C1697 O1687 1.282 . S
C1697 O1698 1.216 . S
O1698 C1697 1.216 . S
H1699 C1694 0.930 . S
H1700 C1695 0.930 . S
O1701 Cu1681 1.959 . S
O1701 C1688 1.251 . S
H1702 C1685 0.930 . S
H1703 C1696 0.929 . S
C1704 C1705 1.391 . S
C1704 C1706 1.394 . S
C1704 H1720 0.931 . S
C1705 C1704 1.391 . S
C1705 C1709 1.376 . S
C1706 C1704 1.394 . S
C1706 C1707 1.369 . S
C1706 C1710 1.531 . S
C1707 C1706 1.369 . S
C1707 C1708 1.410 . S
C1707 C1715 1.503 . S
C1708 C1707 1.410 . S
C1708 C1709 1.392 . S
C1708 C1711 1.511 . S
C1709 C1705 1.376 . S
C1709 C1708 1.392 . S
C1709 H1721 0.929 . S
C1710 C1706 1.531 . S
C1710 H1722 0.960 . S
C1710 H1723 0.962 . S
C1710 H1724 0.960 . S
C1711 C1708 1.511 . S
C1711 H1725 0.961 . S
C1711 H1726 0.961 . S
C1711 H1727 0.961 . S
C1712 C1713 1.370 . S
C1712 C1714 1.363 . S
C1712 H1728 0.931 . S
C1713 C1712 1.370 . S
C1713 C1717 1.408 . S
C1714 C1712 1.363 . S
C1714 C1715 1.370 . S
C1714 C1718 1.524 . S
C1715 C1707 1.503 . S
C1715 C1714 1.370 . S
C1715 C1716 1.403 . S
C1716 C1715 1.403 . S
C1716 C1717 1.404 . S
C1716 C1719 1.539 . S
C1717 C1713 1.408 . S
C1717 C1716 1.404 . S
C1717 H1729 0.930 . S
C1718 C1714 1.524 . S
C1718 H1730 0.956 . S
C1718 H1731 0.961 . S
C1718 H1732 0.961 . S
C1719 C1716 1.539 . S
C1719 H1733 0.958 . S
C1719 H1734 0.961 . S
C1719 H1735 0.960 . S
H1720 C1704 0.931 . S
H1721 C1709 0.929 . S
H1722 C1710 0.960 . S
H1723 C1710 0.962 . S
H1724 C1710 0.960 . S
H1725 C1711 0.961 . S
H1726 C1711 0.961 . S
H1727 C1711 0.961 . S
H1728 C1712 0.931 . S
H1729 C1717 0.930 . S
H1730 C1718 0.956 . S
H1731 C1718 0.961 . S
H1732 C1718 0.961 . S
H1733 C1719 0.958 . S
H1734 C1719 0.961 . S
H1735 C1719 0.960 . S
C1736 C1737 1.391 . S
C1736 C1738 1.394 . S
C1736 H1752 0.931 . S
C1737 C1736 1.391 . S
C1737 C1741 1.376 . S
C1738 C1736 1.394 . S
C1738 C1739 1.369 . S
C1738 C1742 1.531 . S
C1739 C1738 1.369 . S
C1739 C1740 1.410 . S
C1739 C1747 1.503 . S
C1740 C1739 1.410 . S
C1740 C1741 1.392 . S
C1740 C1743 1.511 . S
C1741 C1737 1.376 . S
C1741 C1740 1.392 . S
C1741 H1753 0.929 . S
C1742 C1738 1.531 . S
C1742 H1754 0.960 . S
C1742 H1755 0.962 . S
C1742 H1756 0.960 . S
C1743 C1740 1.511 . S
C1743 H1757 0.961 . S
C1743 H1758 0.961 . S
C1743 H1759 0.961 . S
C1744 C1745 1.370 . S
C1744 C1746 1.363 . S
C1744 H1760 0.931 . S
C1745 C1744 1.370 . S
C1745 C1749 1.408 . S
C1746 C1744 1.363 . S
C1746 C1747 1.370 . S
C1746 C1750 1.524 . S
C1747 C1739 1.503 . S
C1747 C1746 1.370 . S
C1747 C1748 1.403 . S
C1748 C1747 1.403 . S
C1748 C1749 1.404 . S
C1748 C1751 1.539 . S
C1749 C1745 1.408 . S
C1749 C1748 1.404 . S
C1749 H1761 0.930 . S
C1750 C1746 1.524 . S
C1750 H1762 0.956 . S
C1750 H1763 0.961 . S
C1750 H1764 0.961 . S
C1751 C1748 1.539 . S
C1751 H1765 0.958 . S
C1751 H1766 0.961 . S
C1751 H1767 0.960 . S
H1752 C1736 0.931 . S
H1753 C1741 0.929 . S
H1754 C1742 0.960 . S
H1755 C1742 0.962 . S
H1756 C1742 0.960 . S
H1757 C1743 0.961 . S
H1758 C1743 0.961 . S
H1759 C1743 0.961 . S
H1760 C1744 0.931 . S
H1761 C1749 0.930 . S
H1762 C1750 0.956 . S
H1763 C1750 0.961 . S
H1764 C1750 0.961 . S
H1765 C1751 0.958 . S
H1766 C1751 0.961 . S
H1767 C1751 0.960 . S
C1768 C1769 1.391 . S
C1768 C1770 1.394 . S
C1768 H1784 0.931 . S
C1769 C1768 1.391 . S
C1769 C1773 1.376 . S
C1770 C1768 1.394 . S
C1770 C1771 1.369 . S
C1770 C1774 1.531 . S
C1771 C1770 1.369 . S
C1771 C1772 1.410 . S
C1771 C1779 1.503 . S
C1772 C1771 1.410 . S
C1772 C1773 1.392 . S
C1772 C1775 1.511 . S
C1773 C1769 1.376 . S
C1773 C1772 1.392 . S
C1773 H1785 0.929 . S
C1774 C1770 1.531 . S
C1774 H1786 0.960 . S
C1774 H1787 0.962 . S
C1774 H1788 0.960 . S
C1775 C1772 1.511 . S
C1775 H1789 0.961 . S
C1775 H1790 0.961 . S
C1775 H1791 0.961 . S
C1776 C1777 1.370 . S
C1776 C1778 1.363 . S
C1776 H1792 0.931 . S
C1777 C1776 1.370 . S
C1777 C1781 1.408 . S
C1778 C1776 1.363 . S
C1778 C1779 1.370 . S
C1778 C1782 1.524 . S
C1779 C1771 1.503 . S
C1779 C1778 1.370 . S
C1779 C1780 1.403 . S
C1780 C1779 1.403 . S
C1780 C1781 1.404 . S
C1780 C1783 1.539 . S
C1781 C1777 1.408 . S
C1781 C1780 1.404 . S
C1781 H1793 0.930 . S
C1782 C1778 1.524 . S
C1782 H1794 0.956 . S
C1782 H1795 0.961 . S
C1782 H1796 0.961 . S
C1783 C1780 1.539 . S
C1783 H1797 0.958 . S
C1783 H1798 0.961 . S
C1783 H1799 0.960 . S
H1784 C1768 0.931 . S
H1785 C1773 0.929 . S
H1786 C1774 0.960 . S
H1787 C1774 0.962 . S
H1788 C1774 0.960 . S
H1789 C1775 0.961 . S
H1790 C1775 0.961 . S
H1791 C1775 0.961 . S
H1792 C1776 0.931 . S
H1793 C1781 0.930 . S
H1794 C1782 0.956 . S
H1795 C1782 0.961 . S
H1796 C1782 0.961 . S
H1797 C1783 0.958 . S
H1798 C1783 0.961 . S
H1799 C1783 0.960 . S
C1800 C1801 1.391 . S
C1800 C1802 1.394 . S
C1800 H1816 0.931 . S
C1801 C1800 1.391 . S
C1801 C1805 1.376 . S
C1802 C1800 1.394 . S
C1802 C1803 1.369 . S
C1802 C1806 1.531 . S
C1803 C1802 1.369 . S
C1803 C1804 1.410 . S
C1803 C1811 1.503 . S
C1804 C1803 1.410 . S
C1804 C1805 1.392 . S
C1804 C1807 1.511 . S
C1805 C1801 1.376 . S
C1805 C1804 1.392 . S
C1805 H1817 0.929 . S
C1806 C1802 1.531 . S
C1806 H1818 0.960 . S
C1806 H1819 0.962 . S
C1806 H1820 0.960 . S
C1807 C1804 1.511 . S
C1807 H1821 0.961 . S
C1807 H1822 0.961 . S
C1807 H1823 0.961 . S
C1808 C1809 1.370 . S
C1808 C1810 1.363 . S
C1808 H1824 0.931 . S
C1809 C1808 1.370 . S
C1809 C1813 1.408 . S
C1810 C1808 1.363 . S
C1810 C1811 1.370 . S
C1810 C1814 1.524 . S
C1811 C1803 1.503 . S
C1811 C1810 1.370 . S
C1811 C1812 1.403 . S
C1812 C1811 1.403 . S
C1812 C1813 1.404 . S
C1812 C1815 1.539 . S
C1813 C1809 1.408 . S
C1813 C1812 1.404 . S
C1813 H1825 0.930 . S
C1814 C1810 1.524 . S
C1814 H1826 0.956 . S
C1814 H1827 0.961 . S
C1814 H1828 0.961 . S
C1815 C1812 1.539 . S
C1815 H1829 0.958 . S
C1815 H1830 0.961 . S
C1815 H1831 0.960 . S
H1816 C1800 0.931 . S
H1817 C1805 0.929 . S
H1818 C1806 0.960 . S
H1819 C1806 0.962 . S
H1820 C1806 0.960 . S
H1821 C1807 0.961 . S
H1822 C1807 0.961 . S
H1823 C1807 0.961 . S
H1824 C1808 0.931 . S
H1825 C1813 0.930 . S
H1826 C1814 0.956 . S
H1827 C1814 0.961 . S
H1828 C1814 0.961 . S
H1829 C1815 0.958 . S
H1830 C1815 0.961 . S
H1831 C1815 0.960 . S
C1832 C1833 1.391 . S
C1832 C1834 1.394 . S
C1832 H1848 0.931 . S
C1833 C1832 1.391 . S
C1833 C1837 1.376 . S
C1834 C1832 1.394 . S
C1834 C1835 1.369 . S
C1834 C1838 1.531 . S
C1835 C1834 1.369 . S
C1835 C1836 1.410 . S
C1835 C1843 1.503 . S
C1836 C1835 1.410 . S
C1836 C1837 1.392 . S
C1836 C1839 1.511 . S
C1837 C1833 1.376 . S
C1837 C1836 1.392 . S
C1837 H1849 0.929 . S
C1838 C1834 1.531 . S
C1838 H1850 0.960 . S
C1838 H1851 0.962 . S
C1838 H1852 0.960 . S
C1839 C1836 1.511 . S
C1839 H1853 0.961 . S
C1839 H1854 0.961 . S
C1839 H1855 0.961 . S
C1840 C1841 1.370 . S
C1840 C1842 1.363 . S
C1840 H1856 0.931 . S
C1841 C1840 1.370 . S
C1841 C1845 1.408 . S
C1842 C1840 1.363 . S
C1842 C1843 1.370 . S
C1842 C1846 1.524 . S
C1843 C1835 1.503 . S
C1843 C1842 1.370 . S
C1843 C1844 1.403 . S
C1844 C1843 1.403 . S
C1844 C1845 1.404 . S
C1844 C1847 1.539 . S
C1845 C1841 1.408 . S
C1845 C1844 1.404 . S
C1845 H1857 0.930 . S
C1846 C1842 1.524 . S
C1846 H1858 0.956 . S
C1846 H1859 0.961 . S
C1846 H1860 0.961 . S
C1847 C1844 1.539 . S
C1847 H1861 0.958 . S
C1847 H1862 0.961 . S
C1847 H1863 0.960 . S
H1848 C1832 0.931 . S
H1849 C1837 0.929 . S
H1850 C1838 0.960 . S
H1851 C1838 0.962 . S
H1852 C1838 0.960 . S
H1853 C1839 0.961 . S
H1854 C1839 0.961 . S
H1855 C1839 0.961 . S
H1856 C1840 0.931 . S
H1857 C1845 0.930 . S
H1858 C1846 0.956 . S
H1859 C1846 0.961 . S
H1860 C1846 0.961 . S
H1861 C1847 0.958 . S
H1862 C1847 0.961 . S
H1863 C1847 0.960 . S
C1864 C1865 1.391 . S
C1864 C1866 1.394 . S
C1864 H1880 0.931 . S
C1865 C1864 1.391 . S
C1865 C1869 1.376 . S
C1866 C1864 1.394 . S
C1866 C1867 1.369 . S
C1866 C1870 1.531 . S
C1867 C1866 1.369 . S
C1867 C1868 1.410 . S
C1867 C1875 1.503 . S
C1868 C1867 1.410 . S
C1868 C1869 1.392 . S
C1868 C1871 1.511 . S
C1869 C1865 1.376 . S
C1869 C1868 1.392 . S
C1869 H1881 0.929 . S
C1870 C1866 1.531 . S
C1870 H1882 0.960 . S
C1870 H1883 0.962 . S
C1870 H1884 0.960 . S
C1871 C1868 1.511 . S
C1871 H1885 0.961 . S
C1871 H1886 0.961 . S
C1871 H1887 0.961 . S
C1872 C1873 1.370 . S
C1872 C1874 1.363 . S
C1872 H1888 0.931 . S
C1873 C1872 1.370 . S
C1873 C1877 1.408 . S
C1874 C1872 1.363 . S
C1874 C1875 1.370 . S
C1874 C1878 1.524 . S
C1875 C1867 1.503 . S
C1875 C1874 1.370 . S
C1875 C1876 1.403 . S
C1876 C1875 1.403 . S
C1876 C1877 1.404 . S
C1876 C1879 1.539 . S
C1877 C1873 1.408 . S
C1877 C1876 1.404 . S
C1877 H1889 0.930 . S
C1878 C1874 1.524 . S
C1878 H1890 0.956 . S
C1878 H1891 0.961 . S
C1878 H1892 0.961 . S
C1879 C1876 1.539 . S
C1879 H1893 0.958 . S
C1879 H1894 0.961 . S
C1879 H1895 0.960 . S
H1880 C1864 0.931 . S
H1881 C1869 0.929 . S
H1882 C1870 0.960 . S
H1883 C1870 0.962 . S
H1884 C1870 0.960 . S
H1885 C1871 0.961 . S
H1886 C1871 0.961 . S
H1887 C1871 0.961 . S
H1888 C1872 0.931 . S
H1889 C1877 0.930 . S
H1890 C1878 0.956 . S
H1891 C1878 0.961 . S
H1892 C1878 0.961 . S
H1893 C1879 0.958 . S
H1894 C1879 0.961 . S
H1895 C1879 0.960 . S
C1896 C1897 1.391 . S
C1896 C1898 1.394 . S
C1896 H1912 0.931 . S
C1897 C1896 1.391 . S
C1897 C1901 1.376 . S
C1898 C1896 1.394 . S
C1898 C1899 1.369 . S
C1898 C1902 1.531 . S
C1899 C1898 1.369 . S
C1899 C1900 1.410 . S
C1899 C1907 1.503 . S
C1900 C1899 1.410 . S
C1900 C1901 1.392 . S
C1900 C1903 1.511 . S
C1901 C1897 1.376 . S
C1901 C1900 1.392 . S
C1901 H1913 0.929 . S
C1902 C1898 1.531 . S
C1902 H1914 0.960 . S
C1902 H1915 0.962 . S
C1902 H1916 0.960 . S
C1903 C1900 1.511 . S
C1903 H1917 0.961 . S
C1903 H1918 0.961 . S
C1903 H1919 0.961 . S
C1904 C1905 1.370 . S
C1904 C1906 1.363 . S
C1904 H1920 0.931 . S
C1905 C1904 1.370 . S
C1905 C1909 1.408 . S
C1906 C1904 1.363 . S
C1906 C1907 1.370 . S
C1906 C1910 1.524 . S
C1907 C1899 1.503 . S
C1907 C1906 1.370 . S
C1907 C1908 1.403 . S
C1908 C1907 1.403 . S
C1908 C1909 1.404 . S
C1908 C1911 1.539 . S
C1909 C1905 1.408 . S
C1909 C1908 1.404 . S
C1909 H1921 0.930 . S
C1910 C1906 1.524 . S
C1910 H1922 0.956 . S
C1910 H1923 0.961 . S
C1910 H1924 0.961 . S
C1911 C1908 1.539 . S
C1911 H1925 0.958 . S
C1911 H1926 0.961 . S
C1911 H1927 0.960 . S
H1912 C1896 0.931 . S
H1913 C1901 0.929 . S
H1914 C1902 0.960 . S
H1915 C1902 0.962 . S
H1916 C1902 0.960 . S
H1917 C1903 0.961 . S
H1918 C1903 0.961 . S
H1919 C1903 0.961 . S
H1920 C1904 0.931 . S
H1921 C1909 0.930 . S
H1922 C1910 0.956 . S
H1923 C1910 0.961 . S
H1924 C1910 0.961 . S
H1925 C1911 0.958 . S
H1926 C1911 0.961 . S
H1927 C1911 0.960 . S
C1928 C1929 1.391 . S
C1928 C1930 1.394 . S
C1928 H1944 0.931 . S
C1929 C1928 1.391 . S
C1929 C1933 1.376 . S
C1930 C1928 1.394 . S
C1930 C1931 1.369 . S
C1930 C1934 1.531 . S
C1931 C1930 1.369 . S
C1931 C1932 1.410 . S
C1931 C1939 1.503 . S
C1932 C1931 1.410 . S
C1932 C1933 1.392 . S
C1932 C1935 1.511 . S
C1933 C1929 1.376 . S
C1933 C1932 1.392 . S
C1933 H1945 0.929 . S
C1934 C1930 1.531 . S
C1934 H1946 0.960 . S
C1934 H1947 0.962 . S
C1934 H1948 0.960 . S
C1935 C1932 1.511 . S
C1935 H1949 0.961 . S
C1935 H1950 0.961 . S
C1935 H1951 0.961 . S
C1936 C1937 1.370 . S
C1936 C1938 1.363 . S
C1936 H1952 0.931 . S
C1937 C1936 1.370 . S
C1937 C1941 1.408 . S
C1938 C1936 1.363 . S
C1938 C1939 1.370 . S
C1938 C1942 1.524 . S
C1939 C1931 1.503 . S
C1939 C1938 1.370 . S
C1939 C1940 1.403 . S
C1940 C1939 1.403 . S
C1940 C1941 1.404 . S
C1940 C1943 1.539 . S
C1941 C1937 1.408 . S
C1941 C1940 1.404 . S
C1941 H1953 0.930 . S
C1942 C1938 1.524 . S
C1942 H1954 0.956 . S
C1942 H1955 0.961 . S
C1942 H1956 0.961 . S
C1943 C1940 1.539 . S
C1943 H1957 0.958 . S
C1943 H1958 0.961 . S
C1943 H1959 0.960 . S
H1944 C1928 0.931 . S
H1945 C1933 0.929 . S
H1946 C1934 0.960 . S
H1947 C1934 0.962 . S
H1948 C1934 0.960 . S
H1949 C1935 0.961 . S
H1950 C1935 0.961 . S
H1951 C1935 0.961 . S
H1952 C1936 0.931 . S
H1953 C1941 0.930 . S
H1954 C1942 0.956 . S
H1955 C1942 0.961 . S
H1956 C1942 0.961 . S
H1957 C1943 0.958 . S
H1958 C1943 0.961 . S
H1959 C1943 0.960 . S
C1960 C1961 1.391 . S
C1960 C1962 1.394 . S
C1960 H1976 0.931 . S
C1961 C1960 1.391 . S
C1961 C1965 1.376 . S
C1962 C1960 1.394 . S
C1962 C1963 1.369 . S
C1962 C1966 1.531 . S
C1963 C1962 1.369 . S
C1963 C1964 1.410 . S
C1963 C1971 1.503 . S
C1964 C1963 1.410 . S
C1964 C1965 1.392 . S
C1964 C1967 1.511 . S
C1965 C1961 1.376 . S
C1965 C1964 1.392 . S
C1965 H1977 0.929 . S
C1966 C1962 1.531 . S
C1966 H1978 0.960 . S
C1966 H1979 0.962 . S
C1966 H1980 0.960 . S
C1967 C1964 1.511 . S
C1967 H1981 0.961 . S
C1967 H1982 0.961 . S
C1967 H1983 0.961 . S
C1968 C1969 1.370 . S
C1968 C1970 1.363 . S
C1968 H1984 0.931 . S
C1969 C1968 1.370 . S
C1969 C1973 1.408 . S
C1970 C1968 1.363 . S
C1970 C1971 1.370 . S
C1970 C1974 1.524 . S
C1971 C1963 1.503 . S
C1971 C1970 1.370 . S
C1971 C1972 1.403 . S
C1972 C1971 1.403 . S
C1972 C1973 1.404 . S
C1972 C1975 1.539 . S
C1973 C1969 1.408 . S
C1973 C1972 1.404 . S
C1973 H1985 0.930 . S
C1974 C1970 1.524 . S
C1974 H1986 0.956 . S
C1974 H1987 0.961 . S
C1974 H1988 0.961 . S
C1975 C1972 1.539 . S
C1975 H1989 0.958 . S
C1975 H1990 0.961 . S
C1975 H1991 0.960 . S
H1976 C1960 0.931 . S
H1977 C1965 0.929 . S
H1978 C1966 0.960 . S
H1979 C1966 0.962 . S
H1980 C1966 0.960 . S
H1981 C1967 0.961 . S
H1982 C1967 0.961 . S
H1983 C1967 0.961 . S
H1984 C1968 0.931 . S
H1985 C1973 0.930 . S
H1986 C1974 0.956 . S
H1987 C1974 0.961 . S
H1988 C1974 0.961 . S
H1989 C1975 0.958 . S
H1990 C1975 0.961 . S
H1991 C1975 0.960 . S
C1992 C1993 1.391 . S
C1992 C1994 1.394 . S
C1992 H2008 0.931 . S
C1993 C1992 1.391 . S
C1993 C1997 1.376 . S
C1994 C1992 1.394 . S
C1994 C1995 1.369 . S
C1994 C1998 1.531 . S
C1995 C1994 1.369 . S
C1995 C1996 1.410 . S
C1995 C2003 1.503 . S
C1996 C1995 1.410 . S
C1996 C1997 1.392 . S
C1996 C1999 1.511 . S
C1997 C1993 1.376 . S
C1997 C1996 1.392 . S
C1997 H2009 0.929 . S
C1998 C1994 1.531 . S
C1998 H2010 0.960 . S
C1998 H2011 0.962 . S
C1998 H2012 0.960 . S
C1999 C1996 1.511 . S
C1999 H2013 0.961 . S
C1999 H2014 0.961 . S
C1999 H2015 0.961 . S
C2000 C2001 1.370 . S
C2000 C2002 1.363 . S
C2000 H2016 0.931 . S
C2001 C2000 1.370 . S
C2001 C2005 1.408 . S
C2002 C2000 1.363 . S
C2002 C2003 1.370 . S
C2002 C2006 1.524 . S
C2003 C1995 1.503 . S
C2003 C2002 1.370 . S
C2003 C2004 1.403 . S
C2004 C2003 1.403 . S
C2004 C2005 1.404 . S
C2004 C2007 1.539 . S
C2005 C2001 1.408 . S
C2005 C2004 1.404 . S
C2005 H2017 0.930 . S
C2006 C2002 1.524 . S
C2006 H2018 0.956 . S
C2006 H2019 0.961 . S
C2006 H2020 0.961 . S
C2007 C2004 1.539 . S
C2007 H2021 0.958 . S
C2007 H2022 0.961 . S
C2007 H2023 0.960 . S
H2008 C1992 0.931 . S
H2009 C1997 0.929 . S
H2010 C1998 0.960 . S
H2011 C1998 0.962 . S
H2012 C1998 0.960 . S
H2013 C1999 0.961 . S
H2014 C1999 0.961 . S
H2015 C1999 0.961 . S
H2016 C2000 0.931 . S
H2017 C2005 0.930 . S
H2018 C2006 0.956 . S
H2019 C2006 0.961 . S
H2020 C2006 0.961 . S
H2021 C2007 0.958 . S
H2022 C2007 0.961 . S
H2023 C2007 0.960 . S
C2024 C2025 1.391 . S
C2024 C2026 1.394 . S
C2024 H2040 0.931 . S
C2025 C2024 1.391 . S
C2025 C2029 1.376 . S
C2026 C2024 1.394 . S
C2026 C2027 1.369 . S
C2026 C2030 1.531 . S
C2027 C2026 1.369 . S
C2027 C2028 1.410 . S
C2027 C2035 1.503 . S
C2028 C2027 1.410 . S
C2028 C2029 1.392 . S
C2028 C2031 1.511 . S
C2029 C2025 1.376 . S
C2029 C2028 1.392 . S
C2029 H2041 0.929 . S
C2030 C2026 1.531 . S
C2030 H2042 0.960 . S
C2030 H2043 0.962 . S
C2030 H2044 0.960 . S
C2031 C2028 1.511 . S
C2031 H2045 0.961 . S
C2031 H2046 0.961 . S
C2031 H2047 0.961 . S
C2032 C2033 1.370 . S
C2032 C2034 1.363 . S
C2032 H2048 0.931 . S
C2033 C2032 1.370 . S
C2033 C2037 1.408 . S
C2034 C2032 1.363 . S
C2034 C2035 1.370 . S
C2034 C2038 1.524 . S
C2035 C2027 1.503 . S
C2035 C2034 1.370 . S
C2035 C2036 1.403 . S
C2036 C2035 1.403 . S
C2036 C2037 1.404 . S
C2036 C2039 1.539 . S
C2037 C2033 1.408 . S
C2037 C2036 1.404 . S
C2037 H2049 0.930 . S
C2038 C2034 1.524 . S
C2038 H2050 0.956 . S
C2038 H2051 0.961 . S
C2038 H2052 0.961 . S
C2039 C2036 1.539 . S
C2039 H2053 0.958 . S
C2039 H2054 0.961 . S
C2039 H2055 0.960 . S
H2040 C2024 0.931 . S
H2041 C2029 0.929 . S
H2042 C2030 0.960 . S
H2043 C2030 0.962 . S
H2044 C2030 0.960 . S
H2045 C2031 0.961 . S
H2046 C2031 0.961 . S
H2047 C2031 0.961 . S
H2048 C2032 0.931 . S
H2049 C2037 0.930 . S
H2050 C2038 0.956 . S
H2051 C2038 0.961 . S
H2052 C2038 0.961 . S
H2053 C2039 0.958 . S
H2054 C2039 0.961 . S
H2055 C2039 0.960 . S
C2056 C2057 1.391 . S
C2056 C2058 1.394 . S
C2056 H2072 0.931 . S
C2057 C2056 1.391 . S
C2057 C2061 1.376 . S
C2058 C2056 1.394 . S
C2058 C2059 1.369 . S
C2058 C2062 1.531 . S
C2059 C2058 1.369 . S
C2059 C2060 1.410 . S
C2059 C2067 1.503 . S
C2060 C2059 1.410 . S
C2060 C2061 1.392 . S
C2060 C2063 1.511 . S
C2061 C2057 1.376 . S
C2061 C2060 1.392 . S
C2061 H2073 0.929 . S
C2062 C2058 1.531 . S
C2062 H2074 0.960 . S
C2062 H2075 0.962 . S
C2062 H2076 0.960 . S
C2063 C2060 1.511 . S
C2063 H2077 0.961 . S
C2063 H2078 0.961 . S
C2063 H2079 0.961 . S
C2064 C2065 1.370 . S
C2064 C2066 1.363 . S
C2064 H2080 0.931 . S
C2065 C2064 1.370 . S
C2065 C2069 1.408 . S
C2066 C2064 1.363 . S
C2066 C2067 1.370 . S
C2066 C2070 1.524 . S
C2067 C2059 1.503 . S
C2067 C2066 1.370 . S
C2067 C2068 1.403 . S
C2068 C2067 1.403 . S
C2068 C2069 1.404 . S
C2068 C2071 1.539 . S
C2069 C2065 1.408 . S
C2069 C2068 1.404 . S
C2069 H2081 0.930 . S
C2070 C2066 1.524 . S
C2070 H2082 0.956 . S
C2070 H2083 0.961 . S
C2070 H2084 0.961 . S
C2071 C2068 1.539 . S
C2071 H2085 0.958 . S
C2071 H2086 0.961 . S
C2071 H2087 0.960 . S
H2072 C2056 0.931 . S
H2073 C2061 0.929 . S
H2074 C2062 0.960 . S
H2075 C2062 0.962 . S
H2076 C2062 0.960 . S
H2077 C2063 0.961 . S
H2078 C2063 0.961 . S
H2079 C2063 0.961 . S
H2080 C2064 0.931 . S
H2081 C2069 0.930 . S
H2082 C2070 0.956 . S
H2083 C2070 0.961 . S
H2084 C2070 0.961 . S
H2085 C2071 0.958 . S
H2086 C2071 0.961 . S
H2087 C2071 0.960 . S
C2088 C2089 1.391 . S
C2088 C2090 1.394 . S
C2088 H2104 0.931 . S
C2089 C2088 1.391 . S
C2089 C2093 1.376 . S
C2090 C2088 1.394 . S
C2090 C2091 1.369 . S
C2090 C2094 1.531 . S
C2091 C2090 1.369 . S
C2091 C2092 1.410 . S
C2091 C2099 1.503 . S
C2092 C2091 1.410 . S
C2092 C2093 1.392 . S
C2092 C2095 1.511 . S
C2093 C2089 1.376 . S
C2093 C2092 1.392 . S
C2093 H2105 0.929 . S
C2094 C2090 1.531 . S
C2094 H2106 0.960 . S
C2094 H2107 0.962 . S
C2094 H2108 0.960 . S
C2095 C2092 1.511 . S
C2095 H2109 0.961 . S
C2095 H2110 0.961 . S
C2095 H2111 0.961 . S
C2096 C2097 1.370 . S
C2096 C2098 1.363 . S
C2096 H2112 0.931 . S
C2097 C2096 1.370 . S
C2097 C2101 1.408 . S
C2098 C2096 1.363 . S
C2098 C2099 1.370 . S
C2098 C2102 1.524 . S
C2099 C2091 1.503 . S
C2099 C2098 1.370 . S
C2099 C2100 1.403 . S
C2100 C2099 1.403 . S
C2100 C2101 1.404 . S
C2100 C2103 1.539 . S
C2101 C2097 1.408 . S
C2101 C2100 1.404 . S
C2101 H2113 0.930 . S
C2102 C2098 1.524 . S
C2102 H2114 0.956 . S
C2102 H2115 0.961 . S
C2102 H2116 0.961 . S
C2103 C2100 1.539 . S
C2103 H2117 0.958 . S
C2103 H2118 0.961 . S
C2103 H2119 0.960 . S
H2104 C2088 0.931 . S
H2105 C2093 0.929 . S
H2106 C2094 0.960 . S
H2107 C2094 0.962 . S
H2108 C2094 0.960 . S
H2109 C2095 0.961 . S
H2110 C2095 0.961 . S
H2111 C2095 0.961 . S
H2112 C2096 0.931 . S
H2113 C2101 0.930 . S
H2114 C2102 0.956 . S
H2115 C2102 0.961 . S
H2116 C2102 0.961 . S
H2117 C2103 0.958 . S
H2118 C2103 0.961 . S
H2119 C2103 0.960 . S
C2120 C2121 1.391 . S
C2120 C2122 1.394 . S
C2120 H2136 0.931 . S
C2121 C2120 1.391 . S
C2121 C2125 1.376 . S
C2122 C2120 1.394 . S
C2122 C2123 1.369 . S
C2122 C2126 1.531 . S
C2123 C2122 1.369 . S
C2123 C2124 1.410 . S
C2123 C2131 1.503 . S
C2124 C2123 1.410 . S
C2124 C2125 1.392 . S
C2124 C2127 1.511 . S
C2125 C2121 1.376 . S
C2125 C2124 1.392 . S
C2125 H2137 0.929 . S
C2126 C2122 1.531 . S
C2126 H2138 0.960 . S
C2126 H2139 0.962 . S
C2126 H2140 0.960 . S
C2127 C2124 1.511 . S
C2127 H2141 0.961 . S
C2127 H2142 0.961 . S
C2127 H2143 0.961 . S
C2128 C2129 1.370 . S
C2128 C2130 1.363 . S
C2128 H2144 0.931 . S
C2129 C2128 1.370 . S
C2129 C2133 1.408 . S
C2130 C2128 1.363 . S
C2130 C2131 1.370 . S
C2130 C2134 1.524 . S
C2131 C2123 1.503 . S
C2131 C2130 1.370 . S
C2131 C2132 1.403 . S
C2132 C2131 1.403 . S
C2132 C2133 1.404 . S
C2132 C2135 1.539 . S
C2133 C2129 1.408 . S
C2133 C2132 1.404 . S
C2133 H2145 0.930 . S
C2134 C2130 1.524 . S
C2134 H2146 0.956 . S
C2134 H2147 0.961 . S
C2134 H2148 0.961 . S
C2135 C2132 1.539 . S
C2135 H2149 0.958 . S
C2135 H2150 0.961 . S
C2135 H2151 0.960 . S
H2136 C2120 0.931 . S
H2137 C2125 0.929 . S
H2138 C2126 0.960 . S
H2139 C2126 0.962 . S
H2140 C2126 0.960 . S
H2141 C2127 0.961 . S
H2142 C2127 0.961 . S
H2143 C2127 0.961 . S
H2144 C2128 0.931 . S
H2145 C2133 0.930 . S
H2146 C2134 0.956 . S
H2147 C2134 0.961 . S
H2148 C2134 0.961 . S
H2149 C2135 0.958 . S
H2150 C2135 0.961 . S
H2151 C2135 0.960 . S
C2152 C2153 1.391 . S
C2152 C2154 1.394 . S
C2152 H2168 0.931 . S
C2153 C2152 1.391 . S
C2153 C2157 1.376 . S
C2154 C2152 1.394 . S
C2154 C2155 1.369 . S
C2154 C2158 1.531 . S
C2155 C2154 1.369 . S
C2155 C2156 1.410 . S
C2155 C2163 1.503 . S
C2156 C2155 1.410 . S
C2156 C2157 1.392 . S
C2156 C2159 1.511 . S
C2157 C2153 1.376 . S
C2157 C2156 1.392 . S
C2157 H2169 0.929 . S
C2158 C2154 1.531 . S
C2158 H2170 0.960 . S
C2158 H2171 0.962 . S
C2158 H2172 0.960 . S
C2159 C2156 1.511 . S
C2159 H2173 0.961 . S
C2159 H2174 0.961 . S
C2159 H2175 0.961 . S
C2160 C2161 1.370 . S
C2160 C2162 1.363 . S
C2160 H2176 0.931 . S
C2161 C2160 1.370 . S
C2161 C2165 1.408 . S
C2162 C2160 1.363 . S
C2162 C2163 1.370 . S
C2162 C2166 1.524 . S
C2163 C2155 1.503 . S
C2163 C2162 1.370 . S
C2163 C2164 1.403 . S
C2164 C2163 1.403 . S
C2164 C2165 1.404 . S
C2164 C2167 1.539 . S
C2165 C2161 1.408 . S
C2165 C2164 1.404 . S
C2165 H2177 0.930 . S
C2166 C2162 1.524 . S
C2166 H2178 0.956 . S
C2166 H2179 0.961 . S
C2166 H2180 0.961 . S
C2167 C2164 1.539 . S
C2167 H2181 0.958 . S
C2167 H2182 0.961 . S
C2167 H2183 0.960 . S
H2168 C2152 0.931 . S
H2169 C2157 0.929 . S
H2170 C2158 0.960 . S
H2171 C2158 0.962 . S
H2172 C2158 0.960 . S
H2173 C2159 0.961 . S
H2174 C2159 0.961 . S
H2175 C2159 0.961 . S
H2176 C2160 0.931 . S
H2177 C2165 0.930 . S
H2178 C2166 0.956 . S
H2179 C2166 0.961 . S
H2180 C2166 0.961 . S
H2181 C2167 0.958 . S
H2182 C2167 0.961 . S
H2183 C2167 0.960 . S
C2184 C2185 1.391 . S
C2184 C2186 1.394 . S
C2184 H2200 0.931 . S
C2185 C2184 1.391 . S
C2185 C2189 1.376 . S
C2186 C2184 1.394 . S
C2186 C2187 1.369 . S
C2186 C2190 1.531 . S
C2187 C2186 1.369 . S
C2187 C2188 1.410 . S
C2187 C2195 1.503 . S
C2188 C2187 1.410 . S
C2188 C2189 1.392 . S
C2188 C2191 1.511 . S
C2189 C2185 1.376 . S
C2189 C2188 1.392 . S
C2189 H2201 0.929 . S
C2190 C2186 1.531 . S
C2190 H2202 0.960 . S
C2190 H2203 0.962 . S
C2190 H2204 0.960 . S
C2191 C2188 1.511 . S
C2191 H2205 0.961 . S
C2191 H2206 0.961 . S
C2191 H2207 0.961 . S
C2192 C2193 1.370 . S
C2192 C2194 1.363 . S
C2192 H2208 0.931 . S
C2193 C2192 1.370 . S
C2193 C2197 1.408 . S
C2194 C2192 1.363 . S
C2194 C2195 1.370 . S
C2194 C2198 1.524 . S
C2195 C2187 1.503 . S
C2195 C2194 1.370 . S
C2195 C2196 1.403 . S
C2196 C2195 1.403 . S
C2196 C2197 1.404 . S
C2196 C2199 1.539 . S
C2197 C2193 1.408 . S
C2197 C2196 1.404 . S
C2197 H2209 0.930 . S
C2198 C2194 1.524 . S
C2198 H2210 0.956 . S
C2198 H2211 0.961 . S
C2198 H2212 0.961 . S
C2199 C2196 1.539 . S
C2199 H2213 0.958 . S
C2199 H2214 0.961 . S
C2199 H2215 0.960 . S
H2200 C2184 0.931 . S
H2201 C2189 0.929 . S
H2202 C2190 0.960 . S
H2203 C2190 0.962 . S
H2204 C2190 0.960 . S
H2205 C2191 0.961 . S
H2206 C2191 0.961 . S
H2207 C2191 0.961 . S
H2208 C2192 0.931 . S
H2209 C2197 0.930 . S
H2210 C2198 0.956 . S
H2211 C2198 0.961 . S
H2212 C2198 0.961 . S
H2213 C2199 0.958 . S
H2214 C2199 0.961 . S
H2215 C2199 0.960 . S
C2216 C2217 1.391 . S
C2216 C2218 1.394 . S
C2216 H2232 0.931 . S
C2217 C2216 1.391 . S
C2217 C2221 1.376 . S
C2218 C2216 1.394 . S
C2218 C2219 1.369 . S
C2218 C2222 1.531 . S
C2219 C2218 1.369 . S
C2219 C2220 1.410 . S
C2219 C2227 1.503 . S
C2220 C2219 1.410 . S
C2220 C2221 1.392 . S
C2220 C2223 1.511 . S
C2221 C2217 1.376 . S
C2221 C2220 1.392 . S
C2221 H2233 0.929 . S
C2222 C2218 1.531 . S
C2222 H2234 0.960 . S
C2222 H2235 0.962 . S
C2222 H2236 0.960 . S
C2223 C2220 1.511 . S
C2223 H2237 0.961 . S
C2223 H2238 0.961 . S
C2223 H2239 0.961 . S
C2224 C2225 1.370 . S
C2224 C2226 1.363 . S
C2224 H2240 0.931 . S
C2225 C2224 1.370 . S
C2225 C2229 1.408 . S
C2226 C2224 1.363 . S
C2226 C2227 1.370 . S
C2226 C2230 1.524 . S
C2227 C2219 1.503 . S
C2227 C2226 1.370 . S
C2227 C2228 1.403 . S
C2228 C2227 1.403 . S
C2228 C2229 1.404 . S
C2228 C2231 1.539 . S
C2229 C2225 1.408 . S
C2229 C2228 1.404 . S
C2229 H2241 0.930 . S
C2230 C2226 1.524 . S
C2230 H2242 0.956 . S
C2230 H2243 0.961 . S
C2230 H2244 0.961 . S
C2231 C2228 1.539 . S
C2231 H2245 0.958 . S
C2231 H2246 0.961 . S
C2231 H2247 0.960 . S
H2232 C2216 0.931 . S
H2233 C2221 0.929 . S
H2234 C2222 0.960 . S
H2235 C2222 0.962 . S
H2236 C2222 0.960 . S
H2237 C2223 0.961 . S
H2238 C2223 0.961 . S
H2239 C2223 0.961 . S
H2240 C2224 0.931 . S
H2241 C2229 0.930 . S
H2242 C2230 0.956 . S
H2243 C2230 0.961 . S
H2244 C2230 0.961 . S
H2245 C2231 0.958 . S
H2246 C2231 0.961 . S
H2247 C2231 0.960 . S
C2248 C2249 1.391 . S
C2248 C2250 1.394 . S
C2248 H2264 0.931 . S
C2249 C2248 1.391 . S
C2249 C2253 1.376 . S
C2250 C2248 1.394 . S
C2250 C2251 1.369 . S
C2250 C2254 1.531 . S
C2251 C2250 1.369 . S
C2251 C2252 1.410 . S
C2251 C2259 1.503 . S
C2252 C2251 1.410 . S
C2252 C2253 1.392 . S
C2252 C2255 1.511 . S
C2253 C2249 1.376 . S
C2253 C2252 1.392 . S
C2253 H2265 0.929 . S
C2254 C2250 1.531 . S
C2254 H2266 0.960 . S
C2254 H2267 0.962 . S
C2254 H2268 0.960 . S
C2255 C2252 1.511 . S
C2255 H2269 0.961 . S
C2255 H2270 0.961 . S
C2255 H2271 0.961 . S
C2256 C2257 1.370 . S
C2256 C2258 1.363 . S
C2256 H2272 0.931 . S
C2257 C2256 1.370 . S
C2257 C2261 1.408 . S
C2258 C2256 1.363 . S
C2258 C2259 1.370 . S
C2258 C2262 1.524 . S
C2259 C2251 1.503 . S
C2259 C2258 1.370 . S
C2259 C2260 1.403 . S
C2260 C2259 1.403 . S
C2260 C2261 1.404 . S
C2260 C2263 1.539 . S
C2261 C2257 1.408 . S
C2261 C2260 1.404 . S
C2261 H2273 0.930 . S
C2262 C2258 1.524 . S
C2262 H2274 0.956 . S
C2262 H2275 0.961 . S
C2262 H2276 0.961 . S
C2263 C2260 1.539 . S
C2263 H2277 0.958 . S
C2263 H2278 0.961 . S
C2263 H2279 0.960 . S
H2264 C2248 0.931 . S
H2265 C2253 0.929 . S
H2266 C2254 0.960 . S
H2267 C2254 0.962 . S
H2268 C2254 0.960 . S
H2269 C2255 0.961 . S
H2270 C2255 0.961 . S
H2271 C2255 0.961 . S
H2272 C2256 0.931 . S
H2273 C2261 0.930 . S
H2274 C2262 0.956 . S
H2275 C2262 0.961 . S
H2276 C2262 0.961 . S
H2277 C2263 0.958 . S
H2278 C2263 0.961 . S
H2279 C2263 0.960 . S
C2280 C2281 1.391 . S
C2280 C2282 1.394 . S
C2280 H2296 0.931 . S
C2281 C2280 1.391 . S
C2281 C2285 1.376 . S
C2282 C2280 1.394 . S
C2282 C2283 1.369 . S
C2282 C2286 1.531 . S
C2283 C2282 1.369 . S
C2283 C2284 1.410 . S
C2283 C2291 1.503 . S
C2284 C2283 1.410 . S
C2284 C2285 1.392 . S
C2284 C2287 1.511 . S
C2285 C2281 1.376 . S
C2285 C2284 1.392 . S
C2285 H2297 0.929 . S
C2286 C2282 1.531 . S
C2286 H2298 0.960 . S
C2286 H2299 0.962 . S
C2286 H2300 0.960 . S
C2287 C2284 1.511 . S
C2287 H2301 0.961 . S
C2287 H2302 0.961 . S
C2287 H2303 0.961 . S
C2288 C2289 1.370 . S
C2288 C2290 1.363 . S
C2288 H2304 0.931 . S
C2289 C2288 1.370 . S
C2289 C2293 1.408 . S
C2290 C2288 1.363 . S
C2290 C2291 1.370 . S
C2290 C2294 1.524 . S
C2291 C2283 1.503 . S
C2291 C2290 1.370 . S
C2291 C2292 1.403 . S
C2292 C2291 1.403 . S
C2292 C2293 1.404 . S
C2292 C2295 1.539 . S
C2293 C2289 1.408 . S
C2293 C2292 1.404 . S
C2293 H2305 0.930 . S
C2294 C2290 1.524 . S
C2294 H2306 0.956 . S
C2294 H2307 0.961 . S
C2294 H2308 0.961 . S
C2295 C2292 1.539 . S
C2295 H2309 0.958 . S
C2295 H2310 0.961 . S
C2295 H2311 0.960 . S
H2296 C2280 0.931 . S
H2297 C2285 0.929 . S
H2298 C2286 0.960 . S
H2299 C2286 0.962 . S
H2300 C2286 0.960 . S
H2301 C2287 0.961 . S
H2302 C2287 0.961 . S
H2303 C2287 0.961 . S
H2304 C2288 0.931 . S
H2305 C2293 0.930 . S
H2306 C2294 0.956 . S
H2307 C2294 0.961 . S
H2308 C2294 0.961 . S
H2309 C2295 0.958 . S
H2310 C2295 0.961 . S
H2311 C2295 0.960 . S
C2312 C2313 1.391 . S
C2312 C2314 1.394 . S
C2312 H2328 0.931 . S
C2313 C2312 1.391 . S
C2313 C2317 1.376 . S
C2314 C2312 1.394 . S
C2314 C2315 1.369 . S
C2314 C2318 1.531 . S
C2315 C2314 1.369 . S
C2315 C2316 1.410 . S
C2315 C2323 1.503 . S
C2316 C2315 1.410 . S
C2316 C2317 1.392 . S
C2316 C2319 1.511 . S
C2317 C2313 1.376 . S
C2317 C2316 1.392 . S
C2317 H2329 0.929 . S
C2318 C2314 1.531 . S
C2318 H2330 0.960 . S
C2318 H2331 0.962 . S
C2318 H2332 0.960 . S
C2319 C2316 1.511 . S
C2319 H2333 0.961 . S
C2319 H2334 0.961 . S
C2319 H2335 0.961 . S
C2320 C2321 1.370 . S
C2320 C2322 1.363 . S
C2320 H2336 0.931 . S
C2321 C2320 1.370 . S
C2321 C2325 1.408 . S
C2322 C2320 1.363 . S
C2322 C2323 1.370 . S
C2322 C2326 1.524 . S
C2323 C2315 1.503 . S
C2323 C2322 1.370 . S
C2323 C2324 1.403 . S
C2324 C2323 1.403 . S
C2324 C2325 1.404 . S
C2324 C2327 1.539 . S
C2325 C2321 1.408 . S
C2325 C2324 1.404 . S
C2325 H2337 0.930 . S
C2326 C2322 1.524 . S
C2326 H2338 0.956 . S
C2326 H2339 0.961 . S
C2326 H2340 0.961 . S
C2327 C2324 1.539 . S
C2327 H2341 0.958 . S
C2327 H2342 0.961 . S
C2327 H2343 0.960 . S
H2328 C2312 0.931 . S
H2329 C2317 0.929 . S
H2330 C2318 0.960 . S
H2331 C2318 0.962 . S
H2332 C2318 0.960 . S
H2333 C2319 0.961 . S
H2334 C2319 0.961 . S
H2335 C2319 0.961 . S
H2336 C2320 0.931 . S
H2337 C2325 0.930 . S
H2338 C2326 0.956 . S
H2339 C2326 0.961 . S
H2340 C2326 0.961 . S
H2341 C2327 0.958 . S
H2342 C2327 0.961 . S
H2343 C2327 0.960 . S
C2344 C2345 1.391 . S
C2344 C2346 1.394 . S
C2344 H2360 0.931 . S
C2345 C2344 1.391 . S
C2345 C2349 1.376 . S
C2346 C2344 1.394 . S
C2346 C2347 1.369 . S
C2346 C2350 1.531 . S
C2347 C2346 1.369 . S
C2347 C2348 1.410 . S
C2347 C2355 1.503 . S
C2348 C2347 1.410 . S
C2348 C2349 1.392 . S
C2348 C2351 1.511 . S
C2349 C2345 1.376 . S
C2349 C2348 1.392 . S
C2349 H2361 0.929 . S
C2350 C2346 1.531 . S
C2350 H2362 0.960 . S
C2350 H2363 0.962 . S
C2350 H2364 0.960 . S
C2351 C2348 1.511 . S
C2351 H2365 0.961 . S
C2351 H2366 0.961 . S
C2351 H2367 0.961 . S
C2352 C2353 1.370 . S
C2352 C2354 1.363 . S
C2352 H2368 0.931 . S
C2353 C2352 1.370 . S
C2353 C2357 1.408 . S
C2354 C2352 1.363 . S
C2354 C2355 1.370 . S
C2354 C2358 1.524 . S
C2355 C2347 1.503 . S
C2355 C2354 1.370 . S
C2355 C2356 1.403 . S
C2356 C2355 1.403 . S
C2356 C2357 1.404 . S
C2356 C2359 1.539 . S
C2357 C2353 1.408 . S
C2357 C2356 1.404 . S
C2357 H2369 0.930 . S
C2358 C2354 1.524 . S
C2358 H2370 0.956 . S
C2358 H2371 0.961 . S
C2358 H2372 0.961 . S
C2359 C2356 1.539 . S
C2359 H2373 0.958 . S
C2359 H2374 0.961 . S
C2359 H2375 0.960 . S
H2360 C2344 0.931 . S
H2361 C2349 0.929 . S
H2362 C2350 0.960 . S
H2363 C2350 0.962 . S
H2364 C2350 0.960 . S
H2365 C2351 0.961 . S
H2366 C2351 0.961 . S
H2367 C2351 0.961 . S
H2368 C2352 0.931 . S
H2369 C2357 0.930 . S
H2370 C2358 0.956 . S
H2371 C2358 0.961 . S
H2372 C2358 0.961 . S
H2373 C2359 0.958 . S
H2374 C2359 0.961 . S
H2375 C2359 0.960 . S
C2376 C2377 1.391 . S
C2376 C2378 1.394 . S
C2376 H2392 0.931 . S
C2377 C2376 1.391 . S
C2377 C2381 1.376 . S
C2378 C2376 1.394 . S
C2378 C2379 1.369 . S
C2378 C2382 1.531 . S
C2379 C2378 1.369 . S
C2379 C2380 1.410 . S
C2379 C2387 1.503 . S
C2380 C2379 1.410 . S
C2380 C2381 1.392 . S
C2380 C2383 1.511 . S
C2381 C2377 1.376 . S
C2381 C2380 1.392 . S
C2381 H2393 0.929 . S
C2382 C2378 1.531 . S
C2382 H2394 0.960 . S
C2382 H2395 0.962 . S
C2382 H2396 0.960 . S
C2383 C2380 1.511 . S
C2383 H2397 0.961 . S
C2383 H2398 0.961 . S
C2383 H2399 0.961 . S
C2384 C2385 1.370 . S
C2384 C2386 1.363 . S
C2384 H2400 0.931 . S
C2385 C2384 1.370 . S
C2385 C2389 1.408 . S
C2386 C2384 1.363 . S
C2386 C2387 1.370 . S
C2386 C2390 1.524 . S
C2387 C2379 1.503 . S
C2387 C2386 1.370 . S
C2387 C2388 1.403 . S
C2388 C2387 1.403 . S
C2388 C2389 1.404 . S
C2388 C2391 1.539 . S
C2389 C2385 1.408 . S
C2389 C2388 1.404 . S
C2389 H2401 0.930 . S
C2390 C2386 1.524 . S
C2390 H2402 0.956 . S
C2390 H2403 0.961 . S
C2390 H2404 0.961 . S
C2391 C2388 1.539 . S
C2391 H2405 0.958 . S
C2391 H2406 0.961 . S
C2391 H2407 0.960 . S
H2392 C2376 0.931 . S
H2393 C2381 0.929 . S
H2394 C2382 0.960 . S
H2395 C2382 0.962 . S
H2396 C2382 0.960 . S
H2397 C2383 0.961 . S
H2398 C2383 0.961 . S
H2399 C2383 0.961 . S
H2400 C2384 0.931 . S
H2401 C2389 0.930 . S
H2402 C2390 0.956 . S
H2403 C2390 0.961 . S
H2404 C2390 0.961 . S
H2405 C2391 0.958 . S
H2406 C2391 0.961 . S
H2407 C2391 0.960 . S
C2408 C2409 1.391 . S
C2408 C2410 1.394 . S
C2408 H2424 0.931 . S
C2409 C2408 1.391 . S
C2409 C2413 1.376 . S
C2410 C2408 1.394 . S
C2410 C2411 1.369 . S
C2410 C2414 1.531 . S
C2411 C2410 1.369 . S
C2411 C2412 1.410 . S
C2411 C2419 1.503 . S
C2412 C2411 1.410 . S
C2412 C2413 1.392 . S
C2412 C2415 1.511 . S
C2413 C2409 1.376 . S
C2413 C2412 1.392 . S
C2413 H2425 0.929 . S
C2414 C2410 1.531 . S
C2414 H2426 0.960 . S
C2414 H2427 0.962 . S
C2414 H2428 0.960 . S
C2415 C2412 1.511 . S
C2415 H2429 0.961 . S
C2415 H2430 0.961 . S
C2415 H2431 0.961 . S
C2416 C2417 1.370 . S
C2416 C2418 1.363 . S
C2416 H2432 0.931 . S
C2417 C2416 1.370 . S
C2417 C2421 1.408 . S
C2418 C2416 1.363 . S
C2418 C2419 1.370 . S
C2418 C2422 1.524 . S
C2419 C2411 1.503 . S
C2419 C2418 1.370 . S
C2419 C2420 1.403 . S
C2420 C2419 1.403 . S
C2420 C2421 1.404 . S
C2420 C2423 1.539 . S
C2421 C2417 1.408 . S
C2421 C2420 1.404 . S
C2421 H2433 0.930 . S
C2422 C2418 1.524 . S
C2422 H2434 0.956 . S
C2422 H2435 0.961 . S
C2422 H2436 0.961 . S
C2423 C2420 1.539 . S
C2423 H2437 0.958 . S
C2423 H2438 0.961 . S
C2423 H2439 0.960 . S
H2424 C2408 0.931 . S
H2425 C2413 0.929 . S
H2426 C2414 0.960 . S
H2427 C2414 0.962 . S
H2428 C2414 0.960 . S
H2429 C2415 0.961 . S
H2430 C2415 0.961 . S
H2431 C2415 0.961 . S
H2432 C2416 0.931 . S
H2433 C2421 0.930 . S
H2434 C2422 0.956 . S
H2435 C2422 0.961 . S
H2436 C2422 0.961 . S
H2437 C2423 0.958 . S
H2438 C2423 0.961 . S
H2439 C2423 0.960 . S
C2440 C2441 1.391 . S
C2440 C2442 1.394 . S
C2440 H2456 0.931 . S
C2441 C2440 1.391 . S
C2441 C2445 1.376 . S
C2442 C2440 1.394 . S
C2442 C2443 1.369 . S
C2442 C2446 1.531 . S
C2443 C2442 1.369 . S
C2443 C2444 1.410 . S
C2443 C2451 1.503 . S
C2444 C2443 1.410 . S
C2444 C2445 1.392 . S
C2444 C2447 1.511 . S
C2445 C2441 1.376 . S
C2445 C2444 1.392 . S
C2445 H2457 0.929 . S
C2446 C2442 1.531 . S
C2446 H2458 0.960 . S
C2446 H2459 0.962 . S
C2446 H2460 0.960 . S
C2447 C2444 1.511 . S
C2447 H2461 0.961 . S
C2447 H2462 0.961 . S
C2447 H2463 0.961 . S
C2448 C2449 1.370 . S
C2448 C2450 1.363 . S
C2448 H2464 0.931 . S
C2449 C2448 1.370 . S
C2449 C2453 1.408 . S
C2450 C2448 1.363 . S
C2450 C2451 1.370 . S
C2450 C2454 1.524 . S
C2451 C2443 1.503 . S
C2451 C2450 1.370 . S
C2451 C2452 1.403 . S
C2452 C2451 1.403 . S
C2452 C2453 1.404 . S
C2452 C2455 1.539 . S
C2453 C2449 1.408 . S
C2453 C2452 1.404 . S
C2453 H2465 0.930 . S
C2454 C2450 1.524 . S
C2454 H2466 0.956 . S
C2454 H2467 0.961 . S
C2454 H2468 0.961 . S
C2455 C2452 1.539 . S
C2455 H2469 0.958 . S
C2455 H2470 0.961 . S
C2455 H2471 0.960 . S
H2456 C2440 0.931 . S
H2457 C2445 0.929 . S
H2458 C2446 0.960 . S
H2459 C2446 0.962 . S
H2460 C2446 0.960 . S
H2461 C2447 0.961 . S
H2462 C2447 0.961 . S
H2463 C2447 0.961 . S
H2464 C2448 0.931 . S
H2465 C2453 0.930 . S
H2466 C2454 0.956 . S
H2467 C2454 0.961 . S
H2468 C2454 0.961 . S
H2469 C2455 0.958 . S
H2470 C2455 0.961 . S
H2471 C2455 0.960 . S
C2472 C2473 1.391 . S
C2472 C2474 1.394 . S
C2472 H2488 0.931 . S
C2473 C2472 1.391 . S
C2473 C2477 1.376 . S
C2474 C2472 1.394 . S
C2474 C2475 1.369 . S
C2474 C2478 1.531 . S
C2475 C2474 1.369 . S
C2475 C2476 1.410 . S
C2475 C2483 1.503 . S
C2476 C2475 1.410 . S
C2476 C2477 1.392 . S
C2476 C2479 1.511 . S
C2477 C2473 1.376 . S
C2477 C2476 1.392 . S
C2477 H2489 0.929 . S
C2478 C2474 1.531 . S
C2478 H2490 0.960 . S
C2478 H2491 0.962 . S
C2478 H2492 0.960 . S
C2479 C2476 1.511 . S
C2479 H2493 0.961 . S
C2479 H2494 0.961 . S
C2479 H2495 0.961 . S
C2480 C2481 1.370 . S
C2480 C2482 1.363 . S
C2480 H2496 0.931 . S
C2481 C2480 1.370 . S
C2481 C2485 1.408 . S
C2482 C2480 1.363 . S
C2482 C2483 1.370 . S
C2482 C2486 1.524 . S
C2483 C2475 1.503 . S
C2483 C2482 1.370 . S
C2483 C2484 1.403 . S
C2484 C2483 1.403 . S
C2484 C2485 1.404 . S
C2484 C2487 1.539 . S
C2485 C2481 1.408 . S
C2485 C2484 1.404 . S
C2485 H2497 0.930 . S
C2486 C2482 1.524 . S
C2486 H2498 0.956 . S
C2486 H2499 0.961 . S
C2486 H2500 0.961 . S
C2487 C2484 1.539 . S
C2487 H2501 0.958 . S
C2487 H2502 0.961 . S
C2487 H2503 0.960 . S
H2488 C2472 0.931 . S
H2489 C2477 0.929 . S
H2490 C2478 0.960 . S
H2491 C2478 0.962 . S
H2492 C2478 0.960 . S
H2493 C2479 0.961 . S
H2494 C2479 0.961 . S
H2495 C2479 0.961 . S
H2496 C2480 0.931 . S
H2497 C2485 0.930 . S
H2498 C2486 0.956 . S
H2499 C2486 0.961 . S
H2500 C2486 0.961 . S
H2501 C2487 0.958 . S
H2502 C2487 0.961 . S
H2503 C2487 0.960 . S
C2504 C2505 1.391 . S
C2504 C2506 1.394 . S
C2504 H2520 0.931 . S
C2505 C2504 1.391 . S
C2505 C2509 1.376 . S
C2506 C2504 1.394 . S
C2506 C2507 1.369 . S
C2506 C2510 1.531 . S
C2507 C2506 1.369 . S
C2507 C2508 1.410 . S
C2507 C2515 1.503 . S
C2508 C2507 1.410 . S
C2508 C2509 1.392 . S
C2508 C2511 1.511 . S
C2509 C2505 1.376 . S
C2509 C2508 1.392 . S
C2509 H2521 0.929 . S
C2510 C2506 1.531 . S
C2510 H2522 0.960 . S
C2510 H2523 0.962 . S
C2510 H2524 0.960 . S
C2511 C2508 1.511 . S
C2511 H2525 0.961 . S
C2511 H2526 0.961 . S
C2511 H2527 0.961 . S
C2512 C2513 1.370 . S
C2512 C2514 1.363 . S
C2512 H2528 0.931 . S
C2513 C2512 1.370 . S
C2513 C2517 1.408 . S
C2514 C2512 1.363 . S
C2514 C2515 1.370 . S
C2514 C2518 1.524 . S
C2515 C2507 1.503 . S
C2515 C2514 1.370 . S
C2515 C2516 1.403 . S
C2516 C2515 1.403 . S
C2516 C2517 1.404 . S
C2516 C2519 1.539 . S
C2517 C2513 1.408 . S
C2517 C2516 1.404 . S
C2517 H2529 0.930 . S
C2518 C2514 1.524 . S
C2518 H2530 0.956 . S
C2518 H2531 0.961 . S
C2518 H2532 0.961 . S
C2519 C2516 1.539 . S
C2519 H2533 0.958 . S
C2519 H2534 0.961 . S
C2519 H2535 0.960 . S
H2520 C2504 0.931 . S
H2521 C2509 0.929 . S
H2522 C2510 0.960 . S
H2523 C2510 0.962 . S
H2524 C2510 0.960 . S
H2525 C2511 0.961 . S
H2526 C2511 0.961 . S
H2527 C2511 0.961 . S
H2528 C2512 0.931 . S
H2529 C2517 0.930 . S
H2530 C2518 0.956 . S
H2531 C2518 0.961 . S
H2532 C2518 0.961 . S
H2533 C2519 0.958 . S
H2534 C2519 0.961 . S
H2535 C2519 0.960 . S
C2536 C2537 1.391 . S
C2536 C2538 1.394 . S
C2536 H2552 0.931 . S
C2537 C2536 1.391 . S
C2537 C2541 1.376 . S
C2538 C2536 1.394 . S
C2538 C2539 1.369 . S
C2538 C2542 1.531 . S
C2539 C2538 1.369 . S
C2539 C2540 1.410 . S
C2539 C2547 1.503 . S
C2540 C2539 1.410 . S
C2540 C2541 1.392 . S
C2540 C2543 1.511 . S
C2541 C2537 1.376 . S
C2541 C2540 1.392 . S
C2541 H2553 0.929 . S
C2542 C2538 1.531 . S
C2542 H2554 0.960 . S
C2542 H2555 0.962 . S
C2542 H2556 0.960 . S
C2543 C2540 1.511 . S
C2543 H2557 0.961 . S
C2543 H2558 0.961 . S
C2543 H2559 0.961 . S
C2544 C2545 1.370 . S
C2544 C2546 1.363 . S
C2544 H2560 0.931 . S
C2545 C2544 1.370 . S
C2545 C2549 1.408 . S
C2546 C2544 1.363 . S
C2546 C2547 1.370 . S
C2546 C2550 1.524 . S
C2547 C2539 1.503 . S
C2547 C2546 1.370 . S
C2547 C2548 1.403 . S
C2548 C2547 1.403 . S
C2548 C2549 1.404 . S
C2548 C2551 1.539 . S
C2549 C2545 1.408 . S
C2549 C2548 1.404 . S
C2549 H2561 0.930 . S
C2550 C2546 1.524 . S
C2550 H2562 0.956 . S
C2550 H2563 0.961 . S
C2550 H2564 0.961 . S
C2551 C2548 1.539 . S
C2551 H2565 0.958 . S
C2551 H2566 0.961 . S
C2551 H2567 0.960 . S
H2552 C2536 0.931 . S
H2553 C2541 0.929 . S
H2554 C2542 0.960 . S
H2555 C2542 0.962 . S
H2556 C2542 0.960 . S
H2557 C2543 0.961 . S
H2558 C2543 0.961 . S
H2559 C2543 0.961 . S
H2560 C2544 0.931 . S
H2561 C2549 0.930 . S
H2562 C2550 0.956 . S
H2563 C2550 0.961 . S
H2564 C2550 0.961 . S
H2565 C2551 0.958 . S
H2566 C2551 0.961 . S
H2567 C2551 0.960 . S
C2568 C2569 1.391 . S
C2568 C2570 1.394 . S
C2568 H2584 0.931 . S
C2569 C2568 1.391 . S
C2569 C2573 1.376 . S
C2570 C2568 1.394 . S
C2570 C2571 1.369 . S
C2570 C2574 1.531 . S
C2571 C2570 1.369 . S
C2571 C2572 1.410 . S
C2571 C2579 1.503 . S
C2572 C2571 1.410 . S
C2572 C2573 1.392 . S
C2572 C2575 1.511 . S
C2573 C2569 1.376 . S
C2573 C2572 1.392 . S
C2573 H2585 0.929 . S
C2574 C2570 1.531 . S
C2574 H2586 0.960 . S
C2574 H2587 0.962 . S
C2574 H2588 0.960 . S
C2575 C2572 1.511 . S
C2575 H2589 0.961 . S
C2575 H2590 0.961 . S
C2575 H2591 0.961 . S
C2576 C2577 1.370 . S
C2576 C2578 1.363 . S
C2576 H2592 0.931 . S
C2577 C2576 1.370 . S
C2577 C2581 1.408 . S
C2578 C2576 1.363 . S
C2578 C2579 1.370 . S
C2578 C2582 1.524 . S
C2579 C2571 1.503 . S
C2579 C2578 1.370 . S
C2579 C2580 1.403 . S
C2580 C2579 1.403 . S
C2580 C2581 1.404 . S
C2580 C2583 1.539 . S
C2581 C2577 1.408 . S
C2581 C2580 1.404 . S
C2581 H2593 0.930 . S
C2582 C2578 1.524 . S
C2582 H2594 0.956 . S
C2582 H2595 0.961 . S
C2582 H2596 0.961 . S
C2583 C2580 1.539 . S
C2583 H2597 0.958 . S
C2583 H2598 0.961 . S
C2583 H2599 0.960 . S
H2584 C2568 0.931 . S
H2585 C2573 0.929 . S
H2586 C2574 0.960 . S
H2587 C2574 0.962 . S
H2588 C2574 0.960 . S
H2589 C2575 0.961 . S
H2590 C2575 0.961 . S
H2591 C2575 0.961 . S
H2592 C2576 0.931 . S
H2593 C2581 0.930 . S
H2594 C2582 0.956 . S
H2595 C2582 0.961 . S
H2596 C2582 0.961 . S
H2597 C2583 0.958 . S
H2598 C2583 0.961 . S
H2599 C2583 0.960 . S
C2600 C2601 1.391 . S
C2600 C2602 1.394 . S
C2600 H2616 0.931 . S
C2601 C2600 1.391 . S
C2601 C2605 1.376 . S
C2602 C2600 1.394 . S
C2602 C2603 1.369 . S
C2602 C2606 1.531 . S
C2603 C2602 1.369 . S
C2603 C2604 1.410 . S
C2603 C2611 1.503 . S
C2604 C2603 1.410 . S
C2604 C2605 1.392 . S
C2604 C2607 1.511 . S
C2605 C2601 1.376 . S
C2605 C2604 1.392 . S
C2605 H2617 0.929 . S
C2606 C2602 1.531 . S
C2606 H2618 0.960 . S
C2606 H2619 0.962 . S
C2606 H2620 0.960 . S
C2607 C2604 1.511 . S
C2607 H2621 0.961 . S
C2607 H2622 0.961 . S
C2607 H2623 0.961 . S
C2608 C2609 1.370 . S
C2608 C2610 1.363 . S
C2608 H2624 0.931 . S
C2609 C2608 1.370 . S
C2609 C2613 1.408 . S
C2610 C2608 1.363 . S
C2610 C2611 1.370 . S
C2610 C2614 1.524 . S
C2611 C2603 1.503 . S
C2611 C2610 1.370 . S
C2611 C2612 1.403 . S
C2612 C2611 1.403 . S
C2612 C2613 1.404 . S
C2612 C2615 1.539 . S
C2613 C2609 1.408 . S
C2613 C2612 1.404 . S
C2613 H2625 0.930 . S
C2614 C2610 1.524 . S
C2614 H2626 0.956 . S
C2614 H2627 0.961 . S
C2614 H2628 0.961 . S
C2615 C2612 1.539 . S
C2615 H2629 0.958 . S
C2615 H2630 0.961 . S
C2615 H2631 0.960 . S
H2616 C2600 0.931 . S
H2617 C2605 0.929 . S
H2618 C2606 0.960 . S
H2619 C2606 0.962 . S
H2620 C2606 0.960 . S
H2621 C2607 0.961 . S
H2622 C2607 0.961 . S
H2623 C2607 0.961 . S
H2624 C2608 0.931 . S
H2625 C2613 0.930 . S
H2626 C2614 0.956 . S
H2627 C2614 0.961 . S
H2628 C2614 0.961 . S
H2629 C2615 0.958 . S
H2630 C2615 0.961 . S
H2631 C2615 0.960 . S
C2632 C2633 1.391 . S
C2632 C2634 1.394 . S
C2632 H2648 0.931 . S
C2633 C2632 1.391 . S
C2633 C2637 1.376 . S
C2634 C2632 1.394 . S
C2634 C2635 1.369 . S
C2634 C2638 1.531 . S
C2635 C2634 1.369 . S
C2635 C2636 1.410 . S
C2635 C2643 1.503 . S
C2636 C2635 1.410 . S
C2636 C2637 1.392 . S
C2636 C2639 1.511 . S
C2637 C2633 1.376 . S
C2637 C2636 1.392 . S
C2637 H2649 0.929 . S
C2638 C2634 1.531 . S
C2638 H2650 0.960 . S
C2638 H2651 0.962 . S
C2638 H2652 0.960 . S
C2639 C2636 1.511 . S
C2639 H2653 0.961 . S
C2639 H2654 0.961 . S
C2639 H2655 0.961 . S
C2640 C2641 1.370 . S
C2640 C2642 1.363 . S
C2640 H2656 0.931 . S
C2641 C2640 1.370 . S
C2641 C2645 1.408 . S
C2642 C2640 1.363 . S
C2642 C2643 1.370 . S
C2642 C2646 1.524 . S
C2643 C2635 1.503 . S
C2643 C2642 1.370 . S
C2643 C2644 1.403 . S
C2644 C2643 1.403 . S
C2644 C2645 1.404 . S
C2644 C2647 1.539 . S
C2645 C2641 1.408 . S
C2645 C2644 1.404 . S
C2645 H2657 0.930 . S
C2646 C2642 1.524 . S
C2646 H2658 0.956 . S
C2646 H2659 0.961 . S
C2646 H2660 0.961 . S
C2647 C2644 1.539 . S
C2647 H2661 0.958 . S
C2647 H2662 0.961 . S
C2647 H2663 0.960 . S
H2648 C2632 0.931 . S
H2649 C2637 0.929 . S
H2650 C2638 0.960 . S
H2651 C2638 0.962 . S
H2652 C2638 0.960 . S
H2653 C2639 0.961 . S
H2654 C2639 0.961 . S
H2655 C2639 0.961 . S
H2656 C2640 0.931 . S
H2657 C2645 0.930 . S
H2658 C2646 0.956 . S
H2659 C2646 0.961 . S
H2660 C2646 0.961 . S
H2661 C2647 0.958 . S
H2662 C2647 0.961 . S
H2663 C2647 0.960 . S
C2664 C2665 1.391 . S
C2664 C2666 1.394 . S
C2664 H2680 0.931 . S
C2665 C2664 1.391 . S
C2665 C2669 1.376 . S
C2666 C2664 1.394 . S
C2666 C2667 1.369 . S
C2666 C2670 1.531 . S
C2667 C2666 1.369 . S
C2667 C2668 1.410 . S
C2667 C2675 1.503 . S
C2668 C2667 1.410 . S
C2668 C2669 1.392 . S
C2668 C2671 1.511 . S
C2669 C2665 1.376 . S
C2669 C2668 1.392 . S
C2669 H2681 0.929 . S
C2670 C2666 1.531 . S
C2670 H2682 0.960 . S
C2670 H2683 0.962 . S
C2670 H2684 0.960 . S
C2671 C2668 1.511 . S
C2671 H2685 0.961 . S
C2671 H2686 0.961 . S
C2671 H2687 0.961 . S
C2672 C2673 1.370 . S
C2672 C2674 1.363 . S
C2672 H2688 0.931 . S
C2673 C2672 1.370 . S
C2673 C2677 1.408 . S
C2674 C2672 1.363 . S
C2674 C2675 1.370 . S
C2674 C2678 1.524 . S
C2675 C2667 1.503 . S
C2675 C2674 1.370 . S
C2675 C2676 1.403 . S
C2676 C2675 1.403 . S
C2676 C2677 1.404 . S
C2676 C2679 1.539 . S
C2677 C2673 1.408 . S
C2677 C2676 1.404 . S
C2677 H2689 0.930 . S
C2678 C2674 1.524 . S
C2678 H2690 0.956 . S
C2678 H2691 0.961 . S
C2678 H2692 0.961 . S
C2679 C2676 1.539 . S
C2679 H2693 0.958 . S
C2679 H2694 0.961 . S
C2679 H2695 0.960 . S
H2680 C2664 0.931 . S
H2681 C2669 0.929 . S
H2682 C2670 0.960 . S
H2683 C2670 0.962 . S
H2684 C2670 0.960 . S
H2685 C2671 0.961 . S
H2686 C2671 0.961 . S
H2687 C2671 0.961 . S
H2688 C2672 0.931 . S
H2689 C2677 0.930 . S
H2690 C2678 0.956 . S
H2691 C2678 0.961 . S
H2692 C2678 0.961 . S
H2693 C2679 0.958 . S
H2694 C2679 0.961 . S
H2695 C2679 0.960 . S
C2696 C2697 1.391 . S
C2696 C2698 1.394 . S
C2696 H2712 0.931 . S
C2697 C2696 1.391 . S
C2697 C2701 1.376 . S
C2698 C2696 1.394 . S
C2698 C2699 1.369 . S
C2698 C2702 1.531 . S
C2699 C2698 1.369 . S
C2699 C2700 1.410 . S
C2699 C2707 1.503 . S
C2700 C2699 1.410 . S
C2700 C2701 1.392 . S
C2700 C2703 1.511 . S
C2701 C2697 1.376 . S
C2701 C2700 1.392 . S
C2701 H2713 0.929 . S
C2702 C2698 1.531 . S
C2702 H2714 0.960 . S
C2702 H2715 0.962 . S
C2702 H2716 0.960 . S
C2703 C2700 1.511 . S
C2703 H2717 0.961 . S
C2703 H2718 0.961 . S
C2703 H2719 0.961 . S
C2704 C2705 1.370 . S
C2704 C2706 1.363 . S
C2704 H2720 0.931 . S
C2705 C2704 1.370 . S
C2705 C2709 1.408 . S
C2706 C2704 1.363 . S
C2706 C2707 1.370 . S
C2706 C2710 1.524 . S
C2707 C2699 1.503 . S
C2707 C2706 1.370 . S
C2707 C2708 1.403 . S
C2708 C2707 1.403 . S
C2708 C2709 1.404 . S
C2708 C2711 1.539 . S
C2709 C2705 1.408 . S
C2709 C2708 1.404 . S
C2709 H2721 0.930 . S
C2710 C2706 1.524 . S
C2710 H2722 0.956 . S
C2710 H2723 0.961 . S
C2710 H2724 0.961 . S
C2711 C2708 1.539 . S
C2711 H2725 0.958 . S
C2711 H2726 0.961 . S
C2711 H2727 0.960 . S
H2712 C2696 0.931 . S
H2713 C2701 0.929 . S
H2714 C2702 0.960 . S
H2715 C2702 0.962 . S
H2716 C2702 0.960 . S
H2717 C2703 0.961 . S
H2718 C2703 0.961 . S
H2719 C2703 0.961 . S
H2720 C2704 0.931 . S
H2721 C2709 0.930 . S
H2722 C2710 0.956 . S
H2723 C2710 0.961 . S
H2724 C2710 0.961 . S
H2725 C2711 0.958 . S
H2726 C2711 0.961 . S
H2727 C2711 0.960 . S
C2728 C2729 1.391 . S
C2728 C2730 1.394 . S
C2728 H2744 0.931 . S
C2729 C2728 1.391 . S
C2729 C2733 1.376 . S
C2730 C2728 1.394 . S
C2730 C2731 1.369 . S
C2730 C2734 1.531 . S
C2731 C2730 1.369 . S
C2731 C2732 1.410 . S
C2731 C2739 1.503 . S
C2732 C2731 1.410 . S
C2732 C2733 1.392 . S
C2732 C2735 1.511 . S
C2733 C2729 1.376 . S
C2733 C2732 1.392 . S
C2733 H2745 0.929 . S
C2734 C2730 1.531 . S
C2734 H2746 0.960 . S
C2734 H2747 0.962 . S
C2734 H2748 0.960 . S
C2735 C2732 1.511 . S
C2735 H2749 0.961 . S
C2735 H2750 0.961 . S
C2735 H2751 0.961 . S
C2736 C2737 1.370 . S
C2736 C2738 1.363 . S
C2736 H2752 0.931 . S
C2737 C2736 1.370 . S
C2737 C2741 1.408 . S
C2738 C2736 1.363 . S
C2738 C2739 1.370 . S
C2738 C2742 1.524 . S
C2739 C2731 1.503 . S
C2739 C2738 1.370 . S
C2739 C2740 1.403 . S
C2740 C2739 1.403 . S
C2740 C2741 1.404 . S
C2740 C2743 1.539 . S
C2741 C2737 1.408 . S
C2741 C2740 1.404 . S
C2741 H2753 0.930 . S
C2742 C2738 1.524 . S
C2742 H2754 0.956 . S
C2742 H2755 0.961 . S
C2742 H2756 0.961 . S
C2743 C2740 1.539 . S
C2743 H2757 0.958 . S
C2743 H2758 0.961 . S
C2743 H2759 0.960 . S
H2744 C2728 0.931 . S
H2745 C2733 0.929 . S
H2746 C2734 0.960 . S
H2747 C2734 0.962 . S
H2748 C2734 0.960 . S
H2749 C2735 0.961 . S
H2750 C2735 0.961 . S
H2751 C2735 0.961 . S
H2752 C2736 0.931 . S
H2753 C2741 0.930 . S
H2754 C2742 0.956 . S
H2755 C2742 0.961 . S
H2756 C2742 0.961 . S
H2757 C2743 0.958 . S
H2758 C2743 0.961 . S
H2759 C2743 0.960 . S
C2760 C2761 1.391 . S
C2760 C2762 1.394 . S
C2760 H2776 0.931 . S
C2761 C2760 1.391 . S
C2761 C2765 1.376 . S
C2762 C2760 1.394 . S
C2762 C2763 1.369 . S
C2762 C2766 1.531 . S
C2763 C2762 1.369 . S
C2763 C2764 1.410 . S
C2763 C2771 1.503 . S
C2764 C2763 1.410 . S
C2764 C2765 1.392 . S
C2764 C2767 1.511 . S
C2765 C2761 1.376 . S
C2765 C2764 1.392 . S
C2765 H2777 0.929 . S
C2766 C2762 1.531 . S
C2766 H2778 0.960 . S
C2766 H2779 0.962 . S
C2766 H2780 0.960 . S
C2767 C2764 1.511 . S
C2767 H2781 0.961 . S
C2767 H2782 0.961 . S
C2767 H2783 0.961 . S
C2768 C2769 1.370 . S
C2768 C2770 1.363 . S
C2768 H2784 0.931 . S
C2769 C2768 1.370 . S
C2769 C2773 1.408 . S
C2770 C2768 1.363 . S
C2770 C2771 1.370 . S
C2770 C2774 1.524 . S
C2771 C2763 1.503 . S
C2771 C2770 1.370 . S
C2771 C2772 1.403 . S
C2772 C2771 1.403 . S
C2772 C2773 1.404 . S
C2772 C2775 1.539 . S
C2773 C2769 1.408 . S
C2773 C2772 1.404 . S
C2773 H2785 0.930 . S
C2774 C2770 1.524 . S
C2774 H2786 0.956 . S
C2774 H2787 0.961 . S
C2774 H2788 0.961 . S
C2775 C2772 1.539 . S
C2775 H2789 0.958 . S
C2775 H2790 0.961 . S
C2775 H2791 0.960 . S
H2776 C2760 0.931 . S
H2777 C2765 0.929 . S
H2778 C2766 0.960 . S
H2779 C2766 0.962 . S
H2780 C2766 0.960 . S
H2781 C2767 0.961 . S
H2782 C2767 0.961 . S
H2783 C2767 0.961 . S
H2784 C2768 0.931 . S
H2785 C2773 0.930 . S
H2786 C2774 0.956 . S
H2787 C2774 0.961 . S
H2788 C2774 0.961 . S
H2789 C2775 0.958 . S
H2790 C2775 0.961 . S
H2791 C2775 0.960 . S
C2792 C2793 1.391 . S
C2792 C2794 1.394 . S
C2792 H2808 0.931 . S
C2793 C2792 1.391 . S
C2793 C2797 1.376 . S
C2794 C2792 1.394 . S
C2794 C2795 1.369 . S
C2794 C2798 1.531 . S
C2795 C2794 1.369 . S
C2795 C2796 1.410 . S
C2795 C2803 1.503 . S
C2796 C2795 1.410 . S
C2796 C2797 1.392 . S
C2796 C2799 1.511 . S
C2797 C2793 1.376 . S
C2797 C2796 1.392 . S
C2797 H2809 0.929 . S
C2798 C2794 1.531 . S
C2798 H2810 0.960 . S
C2798 H2811 0.962 . S
C2798 H2812 0.960 . S
C2799 C2796 1.511 . S
C2799 H2813 0.961 . S
C2799 H2814 0.961 . S
C2799 H2815 0.961 . S
C2800 C2801 1.370 . S
C2800 C2802 1.363 . S
C2800 H2816 0.931 . S
C2801 C2800 1.370 . S
C2801 C2805 1.408 . S
C2802 C2800 1.363 . S
C2802 C2803 1.370 . S
C2802 C2806 1.524 . S
C2803 C2795 1.503 . S
C2803 C2802 1.370 . S
C2803 C2804 1.403 . S
C2804 C2803 1.403 . S
C2804 C2805 1.404 . S
C2804 C2807 1.539 . S
C2805 C2801 1.408 . S
C2805 C2804 1.404 . S
C2805 H2817 0.930 . S
C2806 C2802 1.524 . S
C2806 H2818 0.956 . S
C2806 H2819 0.961 . S
C2806 H2820 0.961 . S
C2807 C2804 1.539 . S
C2807 H2821 0.958 . S
C2807 H2822 0.961 . S
C2807 H2823 0.960 . S
H2808 C2792 0.931 . S
H2809 C2797 0.929 . S
H2810 C2798 0.960 . S
H2811 C2798 0.962 . S
H2812 C2798 0.960 . S
H2813 C2799 0.961 . S
H2814 C2799 0.961 . S
H2815 C2799 0.961 . S
H2816 C2800 0.931 . S
H2817 C2805 0.930 . S
H2818 C2806 0.956 . S
H2819 C2806 0.961 . S
H2820 C2806 0.961 . S
H2821 C2807 0.958 . S
H2822 C2807 0.961 . S
H2823 C2807 0.960 . S
C2824 C2825 1.391 . S
C2824 C2826 1.394 . S
C2824 H2840 0.931 . S
C2825 C2824 1.391 . S
C2825 C2829 1.376 . S
C2826 C2824 1.394 . S
C2826 C2827 1.369 . S
C2826 C2830 1.531 . S
C2827 C2826 1.369 . S
C2827 C2828 1.410 . S
C2827 C2835 1.503 . S
C2828 C2827 1.410 . S
C2828 C2829 1.392 . S
C2828 C2831 1.511 . S
C2829 C2825 1.376 . S
C2829 C2828 1.392 . S
C2829 H2841 0.929 . S
C2830 C2826 1.531 . S
C2830 H2842 0.960 . S
C2830 H2843 0.962 . S
C2830 H2844 0.960 . S
C2831 C2828 1.511 . S
C2831 H2845 0.961 . S
C2831 H2846 0.961 . S
C2831 H2847 0.961 . S
C2832 C2833 1.370 . S
C2832 C2834 1.363 . S
C2832 H2848 0.931 . S
C2833 C2832 1.370 . S
C2833 C2837 1.408 . S
C2834 C2832 1.363 . S
C2834 C2835 1.370 . S
C2834 C2838 1.524 . S
C2835 C2827 1.503 . S
C2835 C2834 1.370 . S
C2835 C2836 1.403 . S
C2836 C2835 1.403 . S
C2836 C2837 1.404 . S
C2836 C2839 1.539 . S
C2837 C2833 1.408 . S
C2837 C2836 1.404 . S
C2837 H2849 0.930 . S
C2838 C2834 1.524 . S
C2838 H2850 0.956 . S
C2838 H2851 0.961 . S
C2838 H2852 0.961 . S
C2839 C2836 1.539 . S
C2839 H2853 0.958 . S
C2839 H2854 0.961 . S
C2839 H2855 0.960 . S
H2840 C2824 0.931 . S
H2841 C2829 0.929 . S
H2842 C2830 0.960 . S
H2843 C2830 0.962 . S
H2844 C2830 0.960 . S
H2845 C2831 0.961 . S
H2846 C2831 0.961 . S
H2847 C2831 0.961 . S
H2848 C2832 0.931 . S
H2849 C2837 0.930 . S
H2850 C2838 0.956 . S
H2851 C2838 0.961 . S
H2852 C2838 0.961 . S
H2853 C2839 0.958 . S
H2854 C2839 0.961 . S
H2855 C2839 0.960 . S
C2856 C2857 1.391 . S
C2856 C2858 1.394 . S
C2856 H2872 0.931 . S
C2857 C2856 1.391 . S
C2857 C2861 1.376 . S
C2858 C2856 1.394 . S
C2858 C2859 1.369 . S
C2858 C2862 1.531 . S
C2859 C2858 1.369 . S
C2859 C2860 1.410 . S
C2859 C2867 1.503 . S
C2860 C2859 1.410 . S
C2860 C2861 1.392 . S
C2860 C2863 1.511 . S
C2861 C2857 1.376 . S
C2861 C2860 1.392 . S
C2861 H2873 0.929 . S
C2862 C2858 1.531 . S
C2862 H2874 0.960 . S
C2862 H2875 0.962 . S
C2862 H2876 0.960 . S
C2863 C2860 1.511 . S
C2863 H2877 0.961 . S
C2863 H2878 0.961 . S
C2863 H2879 0.961 . S
C2864 C2865 1.370 . S
C2864 C2866 1.363 . S
C2864 H2880 0.931 . S
C2865 C2864 1.370 . S
C2865 C2869 1.408 . S
C2866 C2864 1.363 . S
C2866 C2867 1.370 . S
C2866 C2870 1.524 . S
C2867 C2859 1.503 . S
C2867 C2866 1.370 . S
C2867 C2868 1.403 . S
C2868 C2867 1.403 . S
C2868 C2869 1.404 . S
C2868 C2871 1.539 . S
C2869 C2865 1.408 . S
C2869 C2868 1.404 . S
C2869 H2881 0.930 . S
C2870 C2866 1.524 . S
C2870 H2882 0.956 . S
C2870 H2883 0.961 . S
C2870 H2884 0.961 . S
C2871 C2868 1.539 . S
C2871 H2885 0.958 . S
C2871 H2886 0.961 . S
C2871 H2887 0.960 . S
H2872 C2856 0.931 . S
H2873 C2861 0.929 . S
H2874 C2862 0.960 . S
H2875 C2862 0.962 . S
H2876 C2862 0.960 . S
H2877 C2863 0.961 . S
H2878 C2863 0.961 . S
H2879 C2863 0.961 . S
H2880 C2864 0.931 . S
H2881 C2869 0.930 . S
H2882 C2870 0.956 . S
H2883 C2870 0.961 . S
H2884 C2870 0.961 . S
H2885 C2871 0.958 . S
H2886 C2871 0.961 . S
H2887 C2871 0.960 . S
C2888 C2889 1.391 . S
C2888 C2890 1.394 . S
C2888 H2904 0.931 . S
C2889 C2888 1.391 . S
C2889 C2893 1.376 . S
C2890 C2888 1.394 . S
C2890 C2891 1.369 . S
C2890 C2894 1.531 . S
C2891 C2890 1.369 . S
C2891 C2892 1.410 . S
C2891 C2899 1.503 . S
C2892 C2891 1.410 . S
C2892 C2893 1.392 . S
C2892 C2895 1.511 . S
C2893 C2889 1.376 . S
C2893 C2892 1.392 . S
C2893 H2905 0.929 . S
C2894 C2890 1.531 . S
C2894 H2906 0.960 . S
C2894 H2907 0.962 . S
C2894 H2908 0.960 . S
C2895 C2892 1.511 . S
C2895 H2909 0.961 . S
C2895 H2910 0.961 . S
C2895 H2911 0.961 . S
C2896 C2897 1.370 . S
C2896 C2898 1.363 . S
C2896 H2912 0.931 . S
C2897 C2896 1.370 . S
C2897 C2901 1.408 . S
C2898 C2896 1.363 . S
C2898 C2899 1.370 . S
C2898 C2902 1.524 . S
C2899 C2891 1.503 . S
C2899 C2898 1.370 . S
C2899 C2900 1.403 . S
C2900 C2899 1.403 . S
C2900 C2901 1.404 . S
C2900 C2903 1.539 . S
C2901 C2897 1.408 . S
C2901 C2900 1.404 . S
C2901 H2913 0.930 . S
C2902 C2898 1.524 . S
C2902 H2914 0.956 . S
C2902 H2915 0.961 . S
C2902 H2916 0.961 . S
C2903 C2900 1.539 . S
C2903 H2917 0.958 . S
C2903 H2918 0.961 . S
C2903 H2919 0.960 . S
H2904 C2888 0.931 . S
H2905 C2893 0.929 . S
H2906 C2894 0.960 . S
H2907 C2894 0.962 . S
H2908 C2894 0.960 . S
H2909 C2895 0.961 . S
H2910 C2895 0.961 . S
H2911 C2895 0.961 . S
H2912 C2896 0.931 . S
H2913 C2901 0.930 . S
H2914 C2902 0.956 . S
H2915 C2902 0.961 . S
H2916 C2902 0.961 . S
H2917 C2903 0.958 . S
H2918 C2903 0.961 . S
H2919 C2903 0.960 . S
C2920 C2921 1.391 . S
C2920 C2922 1.394 . S
C2920 H2936 0.931 . S
C2921 C2920 1.391 . S
C2921 C2925 1.376 . S
C2922 C2920 1.394 . S
C2922 C2923 1.369 . S
C2922 C2926 1.531 . S
C2923 C2922 1.369 . S
C2923 C2924 1.410 . S
C2923 C2931 1.503 . S
C2924 C2923 1.410 . S
C2924 C2925 1.392 . S
C2924 C2927 1.511 . S
C2925 C2921 1.376 . S
C2925 C2924 1.392 . S
C2925 H2937 0.929 . S
C2926 C2922 1.531 . S
C2926 H2938 0.960 . S
C2926 H2939 0.962 . S
C2926 H2940 0.960 . S
C2927 C2924 1.511 . S
C2927 H2941 0.961 . S
C2927 H2942 0.961 . S
C2927 H2943 0.961 . S
C2928 C2929 1.370 . S
C2928 C2930 1.363 . S
C2928 H2944 0.931 . S
C2929 C2928 1.370 . S
C2929 C2933 1.408 . S
C2930 C2928 1.363 . S
C2930 C2931 1.370 . S
C2930 C2934 1.524 . S
C2931 C2923 1.503 . S
C2931 C2930 1.370 . S
C2931 C2932 1.403 . S
C2932 C2931 1.403 . S
C2932 C2933 1.404 . S
C2932 C2935 1.539 . S
C2933 C2929 1.408 . S
C2933 C2932 1.404 . S
C2933 H2945 0.930 . S
C2934 C2930 1.524 . S
C2934 H2946 0.956 . S
C2934 H2947 0.961 . S
C2934 H2948 0.961 . S
C2935 C2932 1.539 . S
C2935 H2949 0.958 . S
C2935 H2950 0.961 . S
C2935 H2951 0.960 . S
H2936 C2920 0.931 . S
H2937 C2925 0.929 . S
H2938 C2926 0.960 . S
H2939 C2926 0.962 . S
H2940 C2926 0.960 . S
H2941 C2927 0.961 . S
H2942 C2927 0.961 . S
H2943 C2927 0.961 . S
H2944 C2928 0.931 . S
H2945 C2933 0.930 . S
H2946 C2934 0.956 . S
H2947 C2934 0.961 . S
H2948 C2934 0.961 . S
H2949 C2935 0.958 . S
H2950 C2935 0.961 . S
H2951 C2935 0.960 . S
C2952 C2953 1.391 . S
C2952 C2954 1.394 . S
C2952 H2968 0.931 . S
C2953 C2952 1.391 . S
C2953 C2957 1.376 . S
C2954 C2952 1.394 . S
C2954 C2955 1.369 . S
C2954 C2958 1.531 . S
C2955 C2954 1.369 . S
C2955 C2956 1.410 . S
C2955 C2963 1.503 . S
C2956 C2955 1.410 . S
C2956 C2957 1.392 . S
C2956 C2959 1.511 . S
C2957 C2953 1.376 . S
C2957 C2956 1.392 . S
C2957 H2969 0.929 . S
C2958 C2954 1.531 . S
C2958 H2970 0.960 . S
C2958 H2971 0.962 . S
C2958 H2972 0.960 . S
C2959 C2956 1.511 . S
C2959 H2973 0.961 . S
C2959 H2974 0.961 . S
C2959 H2975 0.961 . S
C2960 C2961 1.370 . S
C2960 C2962 1.363 . S
C2960 H2976 0.931 . S
C2961 C2960 1.370 . S
C2961 C2965 1.408 . S
C2962 C2960 1.363 . S
C2962 C2963 1.370 . S
C2962 C2966 1.524 . S
C2963 C2955 1.503 . S
C2963 C2962 1.370 . S
C2963 C2964 1.403 . S
C2964 C2963 1.403 . S
C2964 C2965 1.404 . S
C2964 C2967 1.539 . S
C2965 C2961 1.408 . S
C2965 C2964 1.404 . S
C2965 H2977 0.930 . S
C2966 C2962 1.524 . S
C2966 H2978 0.956 . S
C2966 H2979 0.961 . S
C2966 H2980 0.961 . S
C2967 C2964 1.539 . S
C2967 H2981 0.958 . S
C2967 H2982 0.961 . S
C2967 H2983 0.960 . S
H2968 C2952 0.931 . S
H2969 C2957 0.929 . S
H2970 C2958 0.960 . S
H2971 C2958 0.962 . S
H2972 C2958 0.960 . S
H2973 C2959 0.961 . S
H2974 C2959 0.961 . S
H2975 C2959 0.961 . S
H2976 C2960 0.931 . S
H2977 C2965 0.930 . S
H2978 C2966 0.956 . S
H2979 C2966 0.961 . S
H2980 C2966 0.961 . S
H2981 C2967 0.958 . S
H2982 C2967 0.961 . S
H2983 C2967 0.960 . S
C2984 C2985 1.391 . S
C2984 C2986 1.394 . S
C2984 H3000 0.931 . S
C2985 C2984 1.391 . S
C2985 C2989 1.376 . S
C2986 C2984 1.394 . S
C2986 C2987 1.369 . S
C2986 C2990 1.531 . S
C2987 C2986 1.369 . S
C2987 C2988 1.410 . S
C2987 C2995 1.503 . S
C2988 C2987 1.410 . S
C2988 C2989 1.392 . S
C2988 C2991 1.511 . S
C2989 C2985 1.376 . S
C2989 C2988 1.392 . S
C2989 H3001 0.929 . S
C2990 C2986 1.531 . S
C2990 H3002 0.960 . S
C2990 H3003 0.962 . S
C2990 H3004 0.960 . S
C2991 C2988 1.511 . S
C2991 H3005 0.961 . S
C2991 H3006 0.961 . S
C2991 H3007 0.961 . S
C2992 C2993 1.370 . S
C2992 C2994 1.363 . S
C2992 H3008 0.931 . S
C2993 C2992 1.370 . S
C2993 C2997 1.408 . S
C2994 C2992 1.363 . S
C2994 C2995 1.370 . S
C2994 C2998 1.524 . S
C2995 C2987 1.503 . S
C2995 C2994 1.370 . S
C2995 C2996 1.403 . S
C2996 C2995 1.403 . S
C2996 C2997 1.404 . S
C2996 C2999 1.539 . S
C2997 C2993 1.408 . S
C2997 C2996 1.404 . S
C2997 H3009 0.930 . S
C2998 C2994 1.524 . S
C2998 H3010 0.956 . S
C2998 H3011 0.961 . S
C2998 H3012 0.961 . S
C2999 C2996 1.539 . S
C2999 H3013 0.958 . S
C2999 H3014 0.961 . S
C2999 H3015 0.960 . S
H3000 C2984 0.931 . S
H3001 C2989 0.929 . S
H3002 C2990 0.960 . S
H3003 C2990 0.962 . S
H3004 C2990 0.960 . S
H3005 C2991 0.961 . S
H3006 C2991 0.961 . S
H3007 C2991 0.961 . S
H3008 C2992 0.931 . S
H3009 C2997 0.930 . S
H3010 C2998 0.956 . S
H3011 C2998 0.961 . S
H3012 C2998 0.961 . S
H3013 C2999 0.958 . S
H3014 C2999 0.961 . S
H3015 C2999 0.960 . S
C3016 C3017 1.391 . S
C3016 C3018 1.394 . S
C3016 H3032 0.931 . S
C3017 C3016 1.391 . S
C3017 C3021 1.376 . S
C3018 C3016 1.394 . S
C3018 C3019 1.369 . S
C3018 C3022 1.531 . S
C3019 C3018 1.369 . S
C3019 C3020 1.410 . S
C3019 C3027 1.503 . S
C3020 C3019 1.410 . S
C3020 C3021 1.392 . S
C3020 C3023 1.511 . S
C3021 C3017 1.376 . S
C3021 C3020 1.392 . S
C3021 H3033 0.929 . S
C3022 C3018 1.531 . S
C3022 H3034 0.960 . S
C3022 H3035 0.962 . S
C3022 H3036 0.960 . S
C3023 C3020 1.511 . S
C3023 H3037 0.961 . S
C3023 H3038 0.961 . S
C3023 H3039 0.961 . S
C3024 C3025 1.370 . S
C3024 C3026 1.363 . S
C3024 H3040 0.931 . S
C3025 C3024 1.370 . S
C3025 C3029 1.408 . S
C3026 C3024 1.363 . S
C3026 C3027 1.370 . S
C3026 C3030 1.524 . S
C3027 C3019 1.503 . S
C3027 C3026 1.370 . S
C3027 C3028 1.403 . S
C3028 C3027 1.403 . S
C3028 C3029 1.404 . S
C3028 C3031 1.539 . S
C3029 C3025 1.408 . S
C3029 C3028 1.404 . S
C3029 H3041 0.930 . S
C3030 C3026 1.524 . S
C3030 H3042 0.956 . S
C3030 H3043 0.961 . S
C3030 H3044 0.961 . S
C3031 C3028 1.539 . S
C3031 H3045 0.958 . S
C3031 H3046 0.961 . S
C3031 H3047 0.960 . S
H3032 C3016 0.931 . S
H3033 C3021 0.929 . S
H3034 C3022 0.960 . S
H3035 C3022 0.962 . S
H3036 C3022 0.960 . S
H3037 C3023 0.961 . S
H3038 C3023 0.961 . S
H3039 C3023 0.961 . S
H3040 C3024 0.931 . S
H3041 C3029 0.930 . S
H3042 C3030 0.956 . S
H3043 C3030 0.961 . S
H3044 C3030 0.961 . S
H3045 C3031 0.958 . S
H3046 C3031 0.961 . S
H3047 C3031 0.960 . S
C3048 C3049 1.391 . S
C3048 C3050 1.394 . S
C3048 H3064 0.931 . S
C3049 C3048 1.391 . S
C3049 C3053 1.376 . S
C3050 C3048 1.394 . S
C3050 C3051 1.369 . S
C3050 C3054 1.531 . S
C3051 C3050 1.369 . S
C3051 C3052 1.410 . S
C3051 C3059 1.503 . S
C3052 C3051 1.410 . S
C3052 C3053 1.392 . S
C3052 C3055 1.511 . S
C3053 C3049 1.376 . S
C3053 C3052 1.392 . S
C3053 H3065 0.929 . S
C3054 C3050 1.531 . S
C3054 H3066 0.960 . S
C3054 H3067 0.962 . S
C3054 H3068 0.960 . S
C3055 C3052 1.511 . S
C3055 H3069 0.961 . S
C3055 H3070 0.961 . S
C3055 H3071 0.961 . S
C3056 C3057 1.370 . S
C3056 C3058 1.363 . S
C3056 H3072 0.931 . S
C3057 C3056 1.370 . S
C3057 C3061 1.408 . S
C3058 C3056 1.363 . S
C3058 C3059 1.370 . S
C3058 C3062 1.524 . S
C3059 C3051 1.503 . S
C3059 C3058 1.370 . S
C3059 C3060 1.403 . S
C3060 C3059 1.403 . S
C3060 C3061 1.404 . S
C3060 C3063 1.539 . S
C3061 C3057 1.408 . S
C3061 C3060 1.404 . S
C3061 H3073 0.930 . S
C3062 C3058 1.524 . S
C3062 H3074 0.956 . S
C3062 H3075 0.961 . S
C3062 H3076 0.961 . S
C3063 C3060 1.539 . S
C3063 H3077 0.958 . S
C3063 H3078 0.961 . S
C3063 H3079 0.960 . S
H3064 C3048 0.931 . S
H3065 C3053 0.929 . S
H3066 C3054 0.960 . S
H3067 C3054 0.962 . S
H3068 C3054 0.960 . S
H3069 C3055 0.961 . S
H3070 C3055 0.961 . S
H3071 C3055 0.961 . S
H3072 C3056 0.931 . S
H3073 C3061 0.930 . S
H3074 C3062 0.956 . S
H3075 C3062 0.961 . S
H3076 C3062 0.961 . S
H3077 C3063 0.958 . S
H3078 C3063 0.961 . S
H3079 C3063 0.960 . S
C3080 C3081 1.391 . S
C3080 C3082 1.394 . S
C3080 H3096 0.931 . S
C3081 C3080 1.391 . S
C3081 C3085 1.376 . S
C3082 C3080 1.394 . S
C3082 C3083 1.369 . S
C3082 C3086 1.531 . S
C3083 C3082 1.369 . S
C3083 C3084 1.410 . S
C3083 C3091 1.503 . S
C3084 C3083 1.410 . S
C3084 C3085 1.392 . S
C3084 C3087 1.511 . S
C3085 C3081 1.376 . S
C3085 C3084 1.392 . S
C3085 H3097 0.929 . S
C3086 C3082 1.531 . S
C3086 H3098 0.960 . S
C3086 H3099 0.962 . S
C3086 H3100 0.960 . S
C3087 C3084 1.511 . S
C3087 H3101 0.961 . S
C3087 H3102 0.961 . S
C3087 H3103 0.961 . S
C3088 C3089 1.370 . S
C3088 C3090 1.363 . S
C3088 H3104 0.931 . S
C3089 C3088 1.370 . S
C3089 C3093 1.408 . S
C3090 C3088 1.363 . S
C3090 C3091 1.370 . S
C3090 C3094 1.524 . S
C3091 C3083 1.503 . S
C3091 C3090 1.370 . S
C3091 C3092 1.403 . S
C3092 C3091 1.403 . S
C3092 C3093 1.404 . S
C3092 C3095 1.539 . S
C3093 C3089 1.408 . S
C3093 C3092 1.404 . S
C3093 H3105 0.930 . S
C3094 C3090 1.524 . S
C3094 H3106 0.956 . S
C3094 H3107 0.961 . S
C3094 H3108 0.961 . S
C3095 C3092 1.539 . S
C3095 H3109 0.958 . S
C3095 H3110 0.961 . S
C3095 H3111 0.960 . S
H3096 C3080 0.931 . S
H3097 C3085 0.929 . S
H3098 C3086 0.960 . S
H3099 C3086 0.962 . S
H3100 C3086 0.960 . S
H3101 C3087 0.961 . S
H3102 C3087 0.961 . S
H3103 C3087 0.961 . S
H3104 C3088 0.931 . S
H3105 C3093 0.930 . S
H3106 C3094 0.956 . S
H3107 C3094 0.961 . S
H3108 C3094 0.961 . S
H3109 C3095 0.958 . S
H3110 C3095 0.961 . S
H3111 C3095 0.960 . S
C3112 C3113 1.391 . S
C3112 C3114 1.394 . S
C3112 H3128 0.931 . S
C3113 C3112 1.391 . S
C3113 C3117 1.376 . S
C3114 C3112 1.394 . S
C3114 C3115 1.369 . S
C3114 C3118 1.531 . S
C3115 C3114 1.369 . S
C3115 C3116 1.410 . S
C3115 C3123 1.503 . S
C3116 C3115 1.410 . S
C3116 C3117 1.392 . S
C3116 C3119 1.511 . S
C3117 C3113 1.376 . S
C3117 C3116 1.392 . S
C3117 H3129 0.929 . S
C3118 C3114 1.531 . S
C3118 H3130 0.960 . S
C3118 H3131 0.962 . S
C3118 H3132 0.960 . S
C3119 C3116 1.511 . S
C3119 H3133 0.961 . S
C3119 H3134 0.961 . S
C3119 H3135 0.961 . S
C3120 C3121 1.370 . S
C3120 C3122 1.363 . S
C3120 H3136 0.931 . S
C3121 C3120 1.370 . S
C3121 C3125 1.408 . S
C3122 C3120 1.363 . S
C3122 C3123 1.370 . S
C3122 C3126 1.524 . S
C3123 C3115 1.503 . S
C3123 C3122 1.370 . S
C3123 C3124 1.403 . S
C3124 C3123 1.403 . S
C3124 C3125 1.404 . S
C3124 C3127 1.539 . S
C3125 C3121 1.408 . S
C3125 C3124 1.404 . S
C3125 H3137 0.930 . S
C3126 C3122 1.524 . S
C3126 H3138 0.956 . S
C3126 H3139 0.961 . S
C3126 H3140 0.961 . S
C3127 C3124 1.539 . S
C3127 H3141 0.958 . S
C3127 H3142 0.961 . S
C3127 H3143 0.960 . S
H3128 C3112 0.931 . S
H3129 C3117 0.929 . S
H3130 C3118 0.960 . S
H3131 C3118 0.962 . S
H3132 C3118 0.960 . S
H3133 C3119 0.961 . S
H3134 C3119 0.961 . S
H3135 C3119 0.961 . S
H3136 C3120 0.931 . S
H3137 C3125 0.930 . S
H3138 C3126 0.956 . S
H3139 C3126 0.961 . S
H3140 C3126 0.961 . S
H3141 C3127 0.958 . S
H3142 C3127 0.961 . S
H3143 C3127 0.960 . S
C3144 C3145 1.391 . S
C3144 C3146 1.394 . S
C3144 H3160 0.931 . S
C3145 C3144 1.391 . S
C3145 C3149 1.376 . S
C3146 C3144 1.394 . S
C3146 C3147 1.369 . S
C3146 C3150 1.531 . S
C3147 C3146 1.369 . S
C3147 C3148 1.410 . S
C3147 C3155 1.503 . S
C3148 C3147 1.410 . S
C3148 C3149 1.392 . S
C3148 C3151 1.511 . S
C3149 C3145 1.376 . S
C3149 C3148 1.392 . S
C3149 H3161 0.929 . S
C3150 C3146 1.531 . S
C3150 H3162 0.960 . S
C3150 H3163 0.962 . S
C3150 H3164 0.960 . S
C3151 C3148 1.511 . S
C3151 H3165 0.961 . S
C3151 H3166 0.961 . S
C3151 H3167 0.961 . S
C3152 C3153 1.370 . S
C3152 C3154 1.363 . S
C3152 H3168 0.931 . S
C3153 C3152 1.370 . S
C3153 C3157 1.408 . S
C3154 C3152 1.363 . S
C3154 C3155 1.370 . S
C3154 C3158 1.524 . S
C3155 C3147 1.503 . S
C3155 C3154 1.370 . S
C3155 C3156 1.403 . S
C3156 C3155 1.403 . S
C3156 C3157 1.404 . S
C3156 C3159 1.539 . S
C3157 C3153 1.408 . S
C3157 C3156 1.404 . S
C3157 H3169 0.930 . S
C3158 C3154 1.524 . S
C3158 H3170 0.956 . S
C3158 H3171 0.961 . S
C3158 H3172 0.961 . S
C3159 C3156 1.539 . S
C3159 H3173 0.958 . S
C3159 H3174 0.961 . S
C3159 H3175 0.960 . S
H3160 C3144 0.931 . S
H3161 C3149 0.929 . S
H3162 C3150 0.960 . S
H3163 C3150 0.962 . S
H3164 C3150 0.960 . S
H3165 C3151 0.961 . S
H3166 C3151 0.961 . S
H3167 C3151 0.961 . S
H3168 C3152 0.931 . S
H3169 C3157 0.930 . S
H3170 C3158 0.956 . S
H3171 C3158 0.961 . S
H3172 C3158 0.961 . S
H3173 C3159 0.958 . S
H3174 C3159 0.961 . S
H3175 C3159 0.960 . S
C3176 C3177 1.391 . S
C3176 C3178 1.394 . S
C3176 H3192 0.931 . S
C3177 C3176 1.391 . S
C3177 C3181 1.376 . S
C3178 C3176 1.394 . S
C3178 C3179 1.369 . S
C3178 C3182 1.531 . S
C3179 C3178 1.369 . S
C3179 C3180 1.410 . S
C3179 C3187 1.503 . S
C3180 C3179 1.410 . S
C3180 C3181 1.392 . S
C3180 C3183 1.511 . S
C3181 C3177 1.376 . S
C3181 C3180 1.392 . S
C3181 H3193 0.929 . S
C3182 C3178 1.531 . S
C3182 H3194 0.960 . S
C3182 H3195 0.962 . S
C3182 H3196 0.960 . S
C3183 C3180 1.511 . S
C3183 H3197 0.961 . S
C3183 H3198 0.961 . S
C3183 H3199 0.961 . S
C3184 C3185 1.370 . S
C3184 C3186 1.363 . S
C3184 H3200 0.931 . S
C3185 C3184 1.370 . S
C3185 C3189 1.408 . S
C3186 C3184 1.363 . S
C3186 C3187 1.370 . S
C3186 C3190 1.524 . S
C3187 C3179 1.503 . S
C3187 C3186 1.370 . S
C3187 C3188 1.403 . S
C3188 C3187 1.403 . S
C3188 C3189 1.404 . S
C3188 C3191 1.539 . S
C3189 C3185 1.408 . S
C3189 C3188 1.404 . S
C3189 H3201 0.930 . S
C3190 C3186 1.524 . S
C3190 H3202 0.956 . S
C3190 H3203 0.961 . S
C3190 H3204 0.961 . S
C3191 C3188 1.539 . S
C3191 H3205 0.958 . S
C3191 H3206 0.961 . S
C3191 H3207 0.960 . S
H3192 C3176 0.931 . S
H3193 C3181 0.929 . S
H3194 C3182 0.960 . S
H3195 C3182 0.962 . S
H3196 C3182 0.960 . S
H3197 C3183 0.961 . S
H3198 C3183 0.961 . S
H3199 C3183 0.961 . S
H3200 C3184 0.931 . S
H3201 C3189 0.930 . S
H3202 C3190 0.956 . S
H3203 C3190 0.961 . S
H3204 C3190 0.961 . S
H3205 C3191 0.958 . S
H3206 C3191 0.961 . S
H3207 C3191 0.960 . S
C3208 C3209 1.391 . S
C3208 C3210 1.394 . S
C3208 H3224 0.931 . S
C3209 C3208 1.391 . S
C3209 C3213 1.376 . S
C3210 C3208 1.394 . S
C3210 C3211 1.369 . S
C3210 C3214 1.531 . S
C3211 C3210 1.369 . S
C3211 C3212 1.410 . S
C3211 C3219 1.503 . S
C3212 C3211 1.410 . S
C3212 C3213 1.392 . S
C3212 C3215 1.511 . S
C3213 C3209 1.376 . S
C3213 C3212 1.392 . S
C3213 H3225 0.929 . S
C3214 C3210 1.531 . S
C3214 H3226 0.960 . S
C3214 H3227 0.962 . S
C3214 H3228 0.960 . S
C3215 C3212 1.511 . S
C3215 H3229 0.961 . S
C3215 H3230 0.961 . S
C3215 H3231 0.961 . S
C3216 C3217 1.370 . S
C3216 C3218 1.363 . S
C3216 H3232 0.931 . S
C3217 C3216 1.370 . S
C3217 C3221 1.408 . S
C3218 C3216 1.363 . S
C3218 C3219 1.370 . S
C3218 C3222 1.524 . S
C3219 C3211 1.503 . S
C3219 C3218 1.370 . S
C3219 C3220 1.403 . S
C3220 C3219 1.403 . S
C3220 C3221 1.404 . S
C3220 C3223 1.539 . S
C3221 C3217 1.408 . S
C3221 C3220 1.404 . S
C3221 H3233 0.930 . S
C3222 C3218 1.524 . S
C3222 H3234 0.956 . S
C3222 H3235 0.961 . S
C3222 H3236 0.961 . S
C3223 C3220 1.539 . S
C3223 H3237 0.958 . S
C3223 H3238 0.961 . S
C3223 H3239 0.960 . S
H3224 C3208 0.931 . S
H3225 C3213 0.929 . S
H3226 C3214 0.960 . S
H3227 C3214 0.962 . S
H3228 C3214 0.960 . S
H3229 C3215 0.961 . S
H3230 C3215 0.961 . S
H3231 C3215 0.961 . S
H3232 C3216 0.931 . S
H3233 C3221 0.930 . S
H3234 C3222 0.956 . S
H3235 C3222 0.961 . S
H3236 C3222 0.961 . S
H3237 C3223 0.958 . S
H3238 C3223 0.961 . S
H3239 C3223 0.960 . S
C3240 C3241 1.391 . S
C3240 C3242 1.394 . S
C3240 H3256 0.931 . S
C3241 C3240 1.391 . S
C3241 C3245 1.376 . S
C3242 C3240 1.394 . S
C3242 C3243 1.369 . S
C3242 C3246 1.531 . S
C3243 C3242 1.369 . S
C3243 C3244 1.410 . S
C3243 C3251 1.503 . S
C3244 C3243 1.410 . S
C3244 C3245 1.392 . S
C3244 C3247 1.511 . S
C3245 C3241 1.376 . S
C3245 C3244 1.392 . S
C3245 H3257 0.929 . S
C3246 C3242 1.531 . S
C3246 H3258 0.960 . S
C3246 H3259 0.962 . S
C3246 H3260 0.960 . S
C3247 C3244 1.511 . S
C3247 H3261 0.961 . S
C3247 H3262 0.961 . S
C3247 H3263 0.961 . S
C3248 C3249 1.370 . S
C3248 C3250 1.363 . S
C3248 H3264 0.931 . S
C3249 C3248 1.370 . S
C3249 C3253 1.408 . S
C3250 C3248 1.363 . S
C3250 C3251 1.370 . S
C3250 C3254 1.524 . S
C3251 C3243 1.503 . S
C3251 C3250 1.370 . S
C3251 C3252 1.403 . S
C3252 C3251 1.403 . S
C3252 C3253 1.404 . S
C3252 C3255 1.539 . S
C3253 C3249 1.408 . S
C3253 C3252 1.404 . S
C3253 H3265 0.930 . S
C3254 C3250 1.524 . S
C3254 H3266 0.956 . S
C3254 H3267 0.961 . S
C3254 H3268 0.961 . S
C3255 C3252 1.539 . S
C3255 H3269 0.958 . S
C3255 H3270 0.961 . S
C3255 H3271 0.960 . S
H3256 C3240 0.931 . S
H3257 C3245 0.929 . S
H3258 C3246 0.960 . S
H3259 C3246 0.962 . S
H3260 C3246 0.960 . S
H3261 C3247 0.961 . S
H3262 C3247 0.961 . S
H3263 C3247 0.961 . S
H3264 C3248 0.931 . S
H3265 C3253 0.930 . S
H3266 C3254 0.956 . S
H3267 C3254 0.961 . S
H3268 C3254 0.961 . S
H3269 C3255 0.958 . S
H3270 C3255 0.961 . S
H3271 C3255 0.960 . S
C3272 C3273 1.391 . S
C3272 C3274 1.394 . S
C3272 H3288 0.931 . S
C3273 C3272 1.391 . S
C3273 C3277 1.376 . S
C3274 C3272 1.394 . S
C3274 C3275 1.369 . S
C3274 C3278 1.531 . S
C3275 C3274 1.369 . S
C3275 C3276 1.410 . S
C3275 C3283 1.503 . S
C3276 C3275 1.410 . S
C3276 C3277 1.392 . S
C3276 C3279 1.511 . S
C3277 C3273 1.376 . S
C3277 C3276 1.392 . S
C3277 H3289 0.929 . S
C3278 C3274 1.531 . S
C3278 H3290 0.960 . S
C3278 H3291 0.962 . S
C3278 H3292 0.960 . S
C3279 C3276 1.511 . S
C3279 H3293 0.961 . S
C3279 H3294 0.961 . S
C3279 H3295 0.961 . S
C3280 C3281 1.370 . S
C3280 C3282 1.363 . S
C3280 H3296 0.931 . S
C3281 C3280 1.370 . S
C3281 C3285 1.408 . S
C3282 C3280 1.363 . S
C3282 C3283 1.370 . S
C3282 C3286 1.524 . S
C3283 C3275 1.503 . S
C3283 C3282 1.370 . S
C3283 C3284 1.403 . S
C3284 C3283 1.403 . S
C3284 C3285 1.404 . S
C3284 C3287 1.539 . S
C3285 C3281 1.408 . S
C3285 C3284 1.404 . S
C3285 H3297 0.930 . S
C3286 C3282 1.524 . S
C3286 H3298 0.956 . S
C3286 H3299 0.961 . S
C3286 H3300 0.961 . S
C3287 C3284 1.539 . S
C3287 H3301 0.958 . S
C3287 H3302 0.961 . S
C3287 H3303 0.960 . S
H3288 C3272 0.931 . S
H3289 C3277 0.929 . S
H3290 C3278 0.960 . S
H3291 C3278 0.962 . S
H3292 C3278 0.960 . S
H3293 C3279 0.961 . S
H3294 C3279 0.961 . S
H3295 C3279 0.961 . S
H3296 C3280 0.931 . S
H3297 C3285 0.930 . S
H3298 C3286 0.956 . S
H3299 C3286 0.961 . S
H3300 C3286 0.961 . S
H3301 C3287 0.958 . S
H3302 C3287 0.961 . S
H3303 C3287 0.960 . S
C3304 C3305 1.391 . S
C3304 C3306 1.394 . S
C3304 H3320 0.931 . S
C3305 C3304 1.391 . S
C3305 C3309 1.376 . S
C3306 C3304 1.394 . S
C3306 C3307 1.369 . S
C3306 C3310 1.531 . S
C3307 C3306 1.369 . S
C3307 C3308 1.410 . S
C3307 C3315 1.503 . S
C3308 C3307 1.410 . S
C3308 C3309 1.392 . S
C3308 C3311 1.511 . S
C3309 C3305 1.376 . S
C3309 C3308 1.392 . S
C3309 H3321 0.929 . S
C3310 C3306 1.531 . S
C3310 H3322 0.960 . S
C3310 H3323 0.962 . S
C3310 H3324 0.960 . S
C3311 C3308 1.511 . S
C3311 H3325 0.961 . S
C3311 H3326 0.961 . S
C3311 H3327 0.961 . S
C3312 C3313 1.370 . S
C3312 C3314 1.363 . S
C3312 H3328 0.931 . S
C3313 C3312 1.370 . S
C3313 C3317 1.408 . S
C3314 C3312 1.363 . S
C3314 C3315 1.370 . S
C3314 C3318 1.524 . S
C3315 C3307 1.503 . S
C3315 C3314 1.370 . S
C3315 C3316 1.403 . S
C3316 C3315 1.403 . S
C3316 C3317 1.404 . S
C3316 C3319 1.539 . S
C3317 C3313 1.408 . S
C3317 C3316 1.404 . S
C3317 H3329 0.930 . S
C3318 C3314 1.524 . S
C3318 H3330 0.956 . S
C3318 H3331 0.961 . S
C3318 H3332 0.961 . S
C3319 C3316 1.539 . S
C3319 H3333 0.958 . S
C3319 H3334 0.961 . S
C3319 H3335 0.960 . S
H3320 C3304 0.931 . S
H3321 C3309 0.929 . S
H3322 C3310 0.960 . S
H3323 C3310 0.962 . S
H3324 C3310 0.960 . S
H3325 C3311 0.961 . S
H3326 C3311 0.961 . S
H3327 C3311 0.961 . S
H3328 C3312 0.931 . S
H3329 C3317 0.930 . S
H3330 C3318 0.956 . S
H3331 C3318 0.961 . S
H3332 C3318 0.961 . S
H3333 C3319 0.958 . S
H3334 C3319 0.961 . S
H3335 C3319 0.960 . S
C3336 C3337 1.391 . S
C3336 C3338 1.394 . S
C3336 H3352 0.931 . S
C3337 C3336 1.391 . S
C3337 C3341 1.376 . S
C3338 C3336 1.394 . S
C3338 C3339 1.369 . S
C3338 C3342 1.531 . S
C3339 C3338 1.369 . S
C3339 C3340 1.410 . S
C3339 C3347 1.503 . S
C3340 C3339 1.410 . S
C3340 C3341 1.392 . S
C3340 C3343 1.511 . S
C3341 C3337 1.376 . S
C3341 C3340 1.392 . S
C3341 H3353 0.929 . S
C3342 C3338 1.531 . S
C3342 H3354 0.960 . S
C3342 H3355 0.962 . S
C3342 H3356 0.960 . S
C3343 C3340 1.511 . S
C3343 H3357 0.961 . S
C3343 H3358 0.961 . S
C3343 H3359 0.961 . S
C3344 C3345 1.370 . S
C3344 C3346 1.363 . S
C3344 H3360 0.931 . S
C3345 C3344 1.370 . S
C3345 C3349 1.408 . S
C3346 C3344 1.363 . S
C3346 C3347 1.370 . S
C3346 C3350 1.524 . S
C3347 C3339 1.503 . S
C3347 C3346 1.370 . S
C3347 C3348 1.403 . S
C3348 C3347 1.403 . S
C3348 C3349 1.404 . S
C3348 C3351 1.539 . S
C3349 C3345 1.408 . S
C3349 C3348 1.404 . S
C3349 H3361 0.930 . S
C3350 C3346 1.524 . S
C3350 H3362 0.956 . S
C3350 H3363 0.961 . S
C3350 H3364 0.961 . S
C3351 C3348 1.539 . S
C3351 H3365 0.958 . S
C3351 H3366 0.961 . S
C3351 H3367 0.960 . S
H3352 C3336 0.931 . S
H3353 C3341 0.929 . S
H3354 C3342 0.960 . S
H3355 C3342 0.962 . S
H3356 C3342 0.960 . S
H3357 C3343 0.961 . S
H3358 C3343 0.961 . S
H3359 C3343 0.961 . S
H3360 C3344 0.931 . S
H3361 C3349 0.930 . S
H3362 C3350 0.956 . S
H3363 C3350 0.961 . S
H3364 C3350 0.961 . S
H3365 C3351 0.958 . S
H3366 C3351 0.961 . S
H3367 C3351 0.960 . S
C3368 C3369 1.391 . S
C3368 C3370 1.394 . S
C3368 H3384 0.931 . S
C3369 C3368 1.391 . S
C3369 C3373 1.376 . S
C3370 C3368 1.394 . S
C3370 C3371 1.369 . S
C3370 C3374 1.531 . S
C3371 C3370 1.369 . S
C3371 C3372 1.410 . S
C3371 C3379 1.503 . S
C3372 C3371 1.410 . S
C3372 C3373 1.392 . S
C3372 C3375 1.511 . S
C3373 C3369 1.376 . S
C3373 C3372 1.392 . S
C3373 H3385 0.929 . S
C3374 C3370 1.531 . S
C3374 H3386 0.960 . S
C3374 H3387 0.962 . S
C3374 H3388 0.960 . S
C3375 C3372 1.511 . S
C3375 H3389 0.961 . S
C3375 H3390 0.961 . S
C3375 H3391 0.961 . S
C3376 C3377 1.370 . S
C3376 C3378 1.363 . S
C3376 H3392 0.931 . S
C3377 C3376 1.370 . S
C3377 C3381 1.408 . S
C3378 C3376 1.363 . S
C3378 C3379 1.370 . S
C3378 C3382 1.524 . S
C3379 C3371 1.503 . S
C3379 C3378 1.370 . S
C3379 C3380 1.403 . S
C3380 C3379 1.403 . S
C3380 C3381 1.404 . S
C3380 C3383 1.539 . S
C3381 C3377 1.408 . S
C3381 C3380 1.404 . S
C3381 H3393 0.930 . S
C3382 C3378 1.524 . S
C3382 H3394 0.956 . S
C3382 H3395 0.961 . S
C3382 H3396 0.961 . S
C3383 C3380 1.539 . S
C3383 H3397 0.958 . S
C3383 H3398 0.961 . S
C3383 H3399 0.960 . S
H3384 C3368 0.931 . S
H3385 C3373 0.929 . S
H3386 C3374 0.960 . S
H3387 C3374 0.962 . S
H3388 C3374 0.960 . S
H3389 C3375 0.961 . S
H3390 C3375 0.961 . S
H3391 C3375 0.961 . S
H3392 C3376 0.931 . S
H3393 C3381 0.930 . S
H3394 C3382 0.956 . S
H3395 C3382 0.961 . S
H3396 C3382 0.961 . S
H3397 C3383 0.958 . S
H3398 C3383 0.961 . S
H3399 C3383 0.960 . S
C3400 C3401 1.391 . S
C3400 C3402 1.394 . S
C3400 H3416 0.931 . S
C3401 C3400 1.391 . S
C3401 C3405 1.376 . S
C3402 C3400 1.394 . S
C3402 C3403 1.369 . S
C3402 C3406 1.531 . S
C3403 C3402 1.369 . S
C3403 C3404 1.410 . S
C3403 C3411 1.503 . S
C3404 C3403 1.410 . S
C3404 C3405 1.392 . S
C3404 C3407 1.511 . S
C3405 C3401 1.376 . S
C3405 C3404 1.392 . S
C3405 H3417 0.929 . S
C3406 C3402 1.531 . S
C3406 H3418 0.960 . S
C3406 H3419 0.962 . S
C3406 H3420 0.960 . S
C3407 C3404 1.511 . S
C3407 H3421 0.961 . S
C3407 H3422 0.961 . S
C3407 H3423 0.961 . S
C3408 C3409 1.370 . S
C3408 C3410 1.363 . S
C3408 H3424 0.931 . S
C3409 C3408 1.370 . S
C3409 C3413 1.408 . S
C3410 C3408 1.363 . S
C3410 C3411 1.370 . S
C3410 C3414 1.524 . S
C3411 C3403 1.503 . S
C3411 C3410 1.370 . S
C3411 C3412 1.403 . S
C3412 C3411 1.403 . S
C3412 C3413 1.404 . S
C3412 C3415 1.539 . S
C3413 C3409 1.408 . S
C3413 C3412 1.404 . S
C3413 H3425 0.930 . S
C3414 C3410 1.524 . S
C3414 H3426 0.956 . S
C3414 H3427 0.961 . S
C3414 H3428 0.961 . S
C3415 C3412 1.539 . S
C3415 H3429 0.958 . S
C3415 H3430 0.961 . S
C3415 H3431 0.960 . S
H3416 C3400 0.931 . S
H3417 C3405 0.929 . S
H3418 C3406 0.960 . S
H3419 C3406 0.962 . S
H3420 C3406 0.960 . S
H3421 C3407 0.961 . S
H3422 C3407 0.961 . S
H3423 C3407 0.961 . S
H3424 C3408 0.931 . S
H3425 C3413 0.930 . S
H3426 C3414 0.956 . S
H3427 C3414 0.961 . S
H3428 C3414 0.961 . S
H3429 C3415 0.958 . S
H3430 C3415 0.961 . S
H3431 C3415 0.960 . S
C3432 C3433 1.391 . S
C3432 C3434 1.394 . S
C3432 H3448 0.931 . S
C3433 C3432 1.391 . S
C3433 C3437 1.376 . S
C3434 C3432 1.394 . S
C3434 C3435 1.369 . S
C3434 C3438 1.531 . S
C3435 C3434 1.369 . S
C3435 C3436 1.410 . S
C3435 C3443 1.503 . S
C3436 C3435 1.410 . S
C3436 C3437 1.392 . S
C3436 C3439 1.511 . S
C3437 C3433 1.376 . S
C3437 C3436 1.392 . S
C3437 H3449 0.929 . S
C3438 C3434 1.531 . S
C3438 H3450 0.960 . S
C3438 H3451 0.962 . S
C3438 H3452 0.960 . S
C3439 C3436 1.511 . S
C3439 H3453 0.961 . S
C3439 H3454 0.961 . S
C3439 H3455 0.961 . S
C3440 C3441 1.370 . S
C3440 C3442 1.363 . S
C3440 H3456 0.931 . S
C3441 C3440 1.370 . S
C3441 C3445 1.408 . S
C3442 C3440 1.363 . S
C3442 C3443 1.370 . S
C3442 C3446 1.524 . S
C3443 C3435 1.503 . S
C3443 C3442 1.370 . S
C3443 C3444 1.403 . S
C3444 C3443 1.403 . S
C3444 C3445 1.404 . S
C3444 C3447 1.539 . S
C3445 C3441 1.408 . S
C3445 C3444 1.404 . S
C3445 H3457 0.930 . S
C3446 C3442 1.524 . S
C3446 H3458 0.956 . S
C3446 H3459 0.961 . S
C3446 H3460 0.961 . S
C3447 C3444 1.539 . S
C3447 H3461 0.958 . S
C3447 H3462 0.961 . S
C3447 H3463 0.960 . S
H3448 C3432 0.931 . S
H3449 C3437 0.929 . S
H3450 C3438 0.960 . S
H3451 C3438 0.962 . S
H3452 C3438 0.960 . S
H3453 C3439 0.961 . S
H3454 C3439 0.961 . S
H3455 C3439 0.961 . S
H3456 C3440 0.931 . S
H3457 C3445 0.930 . S
H3458 C3446 0.956 . S
H3459 C3446 0.961 . S
H3460 C3446 0.961 . S
H3461 C3447 0.958 . S
H3462 C3447 0.961 . S
H3463 C3447 0.960 . S
C3464 C3465 1.391 . S
C3464 C3466 1.394 . S
C3464 H3480 0.931 . S
C3465 C3464 1.391 . S
C3465 C3469 1.376 . S
C3466 C3464 1.394 . S
C3466 C3467 1.369 . S
C3466 C3470 1.531 . S
C3467 C3466 1.369 . S
C3467 C3468 1.410 . S
C3467 C3475 1.503 . S
C3468 C3467 1.410 . S
C3468 C3469 1.392 . S
C3468 C3471 1.511 . S
C3469 C3465 1.376 . S
C3469 C3468 1.392 . S
C3469 H3481 0.929 . S
C3470 C3466 1.531 . S
C3470 H3482 0.960 . S
C3470 H3483 0.962 . S
C3470 H3484 0.960 . S
C3471 C3468 1.511 . S
C3471 H3485 0.961 . S
C3471 H3486 0.961 . S
C3471 H3487 0.961 . S
C3472 C3473 1.370 . S
C3472 C3474 1.363 . S
C3472 H3488 0.931 . S
C3473 C3472 1.370 . S
C3473 C3477 1.408 . S
C3474 C3472 1.363 . S
C3474 C3475 1.370 . S
C3474 C3478 1.524 . S
C3475 C3467 1.503 . S
C3475 C3474 1.370 . S
C3475 C3476 1.403 . S
C3476 C3475 1.403 . S
C3476 C3477 1.404 . S
C3476 C3479 1.539 . S
C3477 C3473 1.408 . S
C3477 C3476 1.404 . S
C3477 H3489 0.930 . S
C3478 C3474 1.524 . S
C3478 H3490 0.956 . S
C3478 H3491 0.961 . S
C3478 H3492 0.961 . S
C3479 C3476 1.539 . S
C3479 H3493 0.958 . S
C3479 H3494 0.961 . S
C3479 H3495 0.960 . S
H3480 C3464 0.931 . S
H3481 C3469 0.929 . S
H3482 C3470 0.960 . S
H3483 C3470 0.962 . S
H3484 C3470 0.960 . S
H3485 C3471 0.961 . S
H3486 C3471 0.961 . S
H3487 C3471 0.961 . S
H3488 C3472 0.931 . S
H3489 C3477 0.930 . S
H3490 C3478 0.956 . S
H3491 C3478 0.961 . S
H3492 C3478 0.961 . S
H3493 C3479 0.958 . S
H3494 C3479 0.961 . S
H3495 C3479 0.960 . S
C3496 C3497 1.391 . S
C3496 C3498 1.394 . S
C3496 H3512 0.931 . S
C3497 C3496 1.391 . S
C3497 C3501 1.376 . S
C3498 C3496 1.394 . S
C3498 C3499 1.369 . S
C3498 C3502 1.531 . S
C3499 C3498 1.369 . S
C3499 C3500 1.410 . S
C3499 C3507 1.503 . S
C3500 C3499 1.410 . S
C3500 C3501 1.392 . S
C3500 C3503 1.511 . S
C3501 C3497 1.376 . S
C3501 C3500 1.392 . S
C3501 H3513 0.929 . S
C3502 C3498 1.531 . S
C3502 H3514 0.960 . S
C3502 H3515 0.962 . S
C3502 H3516 0.960 . S
C3503 C3500 1.511 . S
C3503 H3517 0.961 . S
C3503 H3518 0.961 . S
C3503 H3519 0.961 . S
C3504 C3505 1.370 . S
C3504 C3506 1.363 . S
C3504 H3520 0.931 . S
C3505 C3504 1.370 . S
C3505 C3509 1.408 . S
C3506 C3504 1.363 . S
C3506 C3507 1.370 . S
C3506 C3510 1.524 . S
C3507 C3499 1.503 . S
C3507 C3506 1.370 . S
C3507 C3508 1.403 . S
C3508 C3507 1.403 . S
C3508 C3509 1.404 . S
C3508 C3511 1.539 . S
C3509 C3505 1.408 . S
C3509 C3508 1.404 . S
C3509 H3521 0.930 . S
C3510 C3506 1.524 . S
C3510 H3522 0.956 . S
C3510 H3523 0.961 . S
C3510 H3524 0.961 . S
C3511 C3508 1.539 . S
C3511 H3525 0.958 . S
C3511 H3526 0.961 . S
C3511 H3527 0.960 . S
H3512 C3496 0.931 . S
H3513 C3501 0.929 . S
H3514 C3502 0.960 . S
H3515 C3502 0.962 . S
H3516 C3502 0.960 . S
H3517 C3503 0.961 . S
H3518 C3503 0.961 . S
H3519 C3503 0.961 . S
H3520 C3504 0.931 . S
H3521 C3509 0.930 . S
H3522 C3510 0.956 . S
H3523 C3510 0.961 . S
H3524 C3510 0.961 . S
H3525 C3511 0.958 . S
H3526 C3511 0.961 . S
H3527 C3511 0.960 . S
C3528 C3529 1.391 . S
C3528 C3530 1.394 . S
C3528 H3544 0.931 . S
C3529 C3528 1.391 . S
C3529 C3533 1.376 . S
C3530 C3528 1.394 . S
C3530 C3531 1.369 . S
C3530 C3534 1.531 . S
C3531 C3530 1.369 . S
C3531 C3532 1.410 . S
C3531 C3539 1.503 . S
C3532 C3531 1.410 . S
C3532 C3533 1.392 . S
C3532 C3535 1.511 . S
C3533 C3529 1.376 . S
C3533 C3532 1.392 . S
C3533 H3545 0.929 . S
C3534 C3530 1.531 . S
C3534 H3546 0.960 . S
C3534 H3547 0.962 . S
C3534 H3548 0.960 . S
C3535 C3532 1.511 . S
C3535 H3549 0.961 . S
C3535 H3550 0.961 . S
C3535 H3551 0.961 . S
C3536 C3537 1.370 . S
C3536 C3538 1.363 . S
C3536 H3552 0.931 . S
C3537 C3536 1.370 . S
C3537 C3541 1.408 . S
C3538 C3536 1.363 . S
C3538 C3539 1.370 . S
C3538 C3542 1.524 . S
C3539 C3531 1.503 . S
C3539 C3538 1.370 . S
C3539 C3540 1.403 . S
C3540 C3539 1.403 . S
C3540 C3541 1.404 . S
C3540 C3543 1.539 . S
C3541 C3537 1.408 . S
C3541 C3540 1.404 . S
C3541 H3553 0.930 . S
C3542 C3538 1.524 . S
C3542 H3554 0.956 . S
C3542 H3555 0.961 . S
C3542 H3556 0.961 . S
C3543 C3540 1.539 . S
C3543 H3557 0.958 . S
C3543 H3558 0.961 . S
C3543 H3559 0.960 . S
H3544 C3528 0.931 . S
H3545 C3533 0.929 . S
H3546 C3534 0.960 . S
H3547 C3534 0.962 . S
H3548 C3534 0.960 . S
H3549 C3535 0.961 . S
H3550 C3535 0.961 . S
H3551 C3535 0.961 . S
H3552 C3536 0.931 . S
H3553 C3541 0.930 . S
H3554 C3542 0.956 . S
H3555 C3542 0.961 . S
H3556 C3542 0.961 . S
H3557 C3543 0.958 . S
H3558 C3543 0.961 . S
H3559 C3543 0.960 . S
C3560 C3561 1.391 . S
C3560 C3562 1.394 . S
C3560 H3576 0.931 . S
C3561 C3560 1.391 . S
C3561 C3565 1.376 . S
C3562 C3560 1.394 . S
C3562 C3563 1.369 . S
C3562 C3566 1.531 . S
C3563 C3562 1.369 . S
C3563 C3564 1.410 . S
C3563 C3571 1.503 . S
C3564 C3563 1.410 . S
C3564 C3565 1.392 . S
C3564 C3567 1.511 . S
C3565 C3561 1.376 . S
C3565 C3564 1.392 . S
C3565 H3577 0.929 . S
C3566 C3562 1.531 . S
C3566 H3578 0.960 . S
C3566 H3579 0.962 . S
C3566 H3580 0.960 . S
C3567 C3564 1.511 . S
C3567 H3581 0.961 . S
C3567 H3582 0.961 . S
C3567 H3583 0.961 . S
C3568 C3569 1.370 . S
C3568 C3570 1.363 . S
C3568 H3584 0.931 . S
C3569 C3568 1.370 . S
C3569 C3573 1.408 . S
C3570 C3568 1.363 . S
C3570 C3571 1.370 . S
C3570 C3574 1.524 . S
C3571 C3563 1.503 . S
C3571 C3570 1.370 . S
C3571 C3572 1.403 . S
C3572 C3571 1.403 . S
C3572 C3573 1.404 . S
C3572 C3575 1.539 . S
C3573 C3569 1.408 . S
C3573 C3572 1.404 . S
C3573 H3585 0.930 . S
C3574 C3570 1.524 . S
C3574 H3586 0.956 . S
C3574 H3587 0.961 . S
C3574 H3588 0.961 . S
C3575 C3572 1.539 . S
C3575 H3589 0.958 . S
C3575 H3590 0.961 . S
C3575 H3591 0.960 . S
H3576 C3560 0.931 . S
H3577 C3565 0.929 . S
H3578 C3566 0.960 . S
H3579 C3566 0.962 . S
H3580 C3566 0.960 . S
H3581 C3567 0.961 . S
H3582 C3567 0.961 . S
H3583 C3567 0.961 . S
H3584 C3568 0.931 . S
H3585 C3573 0.930 . S
H3586 C3574 0.956 . S
H3587 C3574 0.961 . S
H3588 C3574 0.961 . S
H3589 C3575 0.958 . S
H3590 C3575 0.961 . S
H3591 C3575 0.960 . S
C3592 C3593 1.391 . S
C3592 C3594 1.394 . S
C3592 H3608 0.931 . S
C3593 C3592 1.391 . S
C3593 C3597 1.376 . S
C3594 C3592 1.394 . S
C3594 C3595 1.369 . S
C3594 C3598 1.531 . S
C3595 C3594 1.369 . S
C3595 C3596 1.410 . S
C3595 C3603 1.503 . S
C3596 C3595 1.410 . S
C3596 C3597 1.392 . S
C3596 C3599 1.511 . S
C3597 C3593 1.376 . S
C3597 C3596 1.392 . S
C3597 H3609 0.929 . S
C3598 C3594 1.531 . S
C3598 H3610 0.960 . S
C3598 H3611 0.962 . S
C3598 H3612 0.960 . S
C3599 C3596 1.511 . S
C3599 H3613 0.961 . S
C3599 H3614 0.961 . S
C3599 H3615 0.961 . S
C3600 C3601 1.370 . S
C3600 C3602 1.363 . S
C3600 H3616 0.931 . S
C3601 C3600 1.370 . S
C3601 C3605 1.408 . S
C3602 C3600 1.363 . S
C3602 C3603 1.370 . S
C3602 C3606 1.524 . S
C3603 C3595 1.503 . S
C3603 C3602 1.370 . S
C3603 C3604 1.403 . S
C3604 C3603 1.403 . S
C3604 C3605 1.404 . S
C3604 C3607 1.539 . S
C3605 C3601 1.408 . S
C3605 C3604 1.404 . S
C3605 H3617 0.930 . S
C3606 C3602 1.524 . S
C3606 H3618 0.956 . S
C3606 H3619 0.961 . S
C3606 H3620 0.961 . S
C3607 C3604 1.539 . S
C3607 H3621 0.958 . S
C3607 H3622 0.961 . S
C3607 H3623 0.960 . S
H3608 C3592 0.931 . S
H3609 C3597 0.929 . S
H3610 C3598 0.960 . S
H3611 C3598 0.962 . S
H3612 C3598 0.960 . S
H3613 C3599 0.961 . S
H3614 C3599 0.961 . S
H3615 C3599 0.961 . S
H3616 C3600 0.931 . S
H3617 C3605 0.930 . S
H3618 C3606 0.956 . S
H3619 C3606 0.961 . S
H3620 C3606 0.961 . S
H3621 C3607 0.958 . S
H3622 C3607 0.961 . S
H3623 C3607 0.960 . S
C3624 C3625 1.391 . S
C3624 C3626 1.394 . S
C3624 H3640 0.931 . S
C3625 C3624 1.391 . S
C3625 C3629 1.376 . S
C3626 C3624 1.394 . S
C3626 C3627 1.369 . S
C3626 C3630 1.531 . S
C3627 C3626 1.369 . S
C3627 C3628 1.410 . S
C3627 C3635 1.503 . S
C3628 C3627 1.410 . S
C3628 C3629 1.392 . S
C3628 C3631 1.511 . S
C3629 C3625 1.376 . S
C3629 C3628 1.392 . S
C3629 H3641 0.929 . S
C3630 C3626 1.531 . S
C3630 H3642 0.960 . S
C3630 H3643 0.962 . S
C3630 H3644 0.960 . S
C3631 C3628 1.511 . S
C3631 H3645 0.961 . S
C3631 H3646 0.961 . S
C3631 H3647 0.961 . S
C3632 C3633 1.370 . S
C3632 C3634 1.363 . S
C3632 H3648 0.931 . S
C3633 C3632 1.370 . S
C3633 C3637 1.408 . S
C3634 C3632 1.363 . S
C3634 C3635 1.370 . S
C3634 C3638 1.524 . S
C3635 C3627 1.503 . S
C3635 C3634 1.370 . S
C3635 C3636 1.403 . S
C3636 C3635 1.403 . S
C3636 C3637 1.404 . S
C3636 C3639 1.539 . S
C3637 C3633 1.408 . S
C3637 C3636 1.404 . S
C3637 H3649 0.930 . S
C3638 C3634 1.524 . S
C3638 H3650 0.956 . S
C3638 H3651 0.961 . S
C3638 H3652 0.961 . S
C3639 C3636 1.539 . S
C3639 H3653 0.958 . S
C3639 H3654 0.961 . S
C3639 H3655 0.960 . S
H3640 C3624 0.931 . S
H3641 C3629 0.929 . S
H3642 C3630 0.960 . S
H3643 C3630 0.962 . S
H3644 C3630 0.960 . S
H3645 C3631 0.961 . S
H3646 C3631 0.961 . S
H3647 C3631 0.961 . S
H3648 C3632 0.931 . S
H3649 C3637 0.930 . S
H3650 C3638 0.956 . S
H3651 C3638 0.961 . S
H3652 C3638 0.961 . S
H3653 C3639 0.958 . S
H3654 C3639 0.961 . S
H3655 C3639 0.960 . S
C3656 C3657 1.391 . S
C3656 C3658 1.394 . S
C3656 H3672 0.931 . S
C3657 C3656 1.391 . S
C3657 C3661 1.376 . S
C3658 C3656 1.394 . S
C3658 C3659 1.369 . S
C3658 C3662 1.531 . S
C3659 C3658 1.369 . S
C3659 C3660 1.410 . S
C3659 C3667 1.503 . S
C3660 C3659 1.410 . S
C3660 C3661 1.392 . S
C3660 C3663 1.511 . S
C3661 C3657 1.376 . S
C3661 C3660 1.392 . S
C3661 H3673 0.929 . S
C3662 C3658 1.531 . S
C3662 H3674 0.960 . S
C3662 H3675 0.962 . S
C3662 H3676 0.960 . S
C3663 C3660 1.511 . S
C3663 H3677 0.961 . S
C3663 H3678 0.961 . S
C3663 H3679 0.961 . S
C3664 C3665 1.370 . S
C3664 C3666 1.363 . S
C3664 H3680 0.931 . S
C3665 C3664 1.370 . S
C3665 C3669 1.408 . S
C3666 C3664 1.363 . S
C3666 C3667 1.370 . S
C3666 C3670 1.524 . S
C3667 C3659 1.503 . S
C3667 C3666 1.370 . S
C3667 C3668 1.403 . S
C3668 C3667 1.403 . S
C3668 C3669 1.404 . S
C3668 C3671 1.539 . S
C3669 C3665 1.408 . S
C3669 C3668 1.404 . S
C3669 H3681 0.930 . S
C3670 C3666 1.524 . S
C3670 H3682 0.956 . S
C3670 H3683 0.961 . S
C3670 H3684 0.961 . S
C3671 C3668 1.539 . S
C3671 H3685 0.958 . S
C3671 H3686 0.961 . S
C3671 H3687 0.960 . S
H3672 C3656 0.931 . S
H3673 C3661 0.929 . S
H3674 C3662 0.960 . S
H3675 C3662 0.962 . S
H3676 C3662 0.960 . S
H3677 C3663 0.961 . S
H3678 C3663 0.961 . S
H3679 C3663 0.961 . S
H3680 C3664 0.931 . S
H3681 C3669 0.930 . S
H3682 C3670 0.956 . S
H3683 C3670 0.961 . S
H3684 C3670 0.961 . S
H3685 C3671 0.958 . S
H3686 C3671 0.961 . S
H3687 C3671 0.960 . S
C3688 C3689 1.391 . S
C3688 C3690 1.394 . S
C3688 H3704 0.931 . S
C3689 C3688 1.391 . S
C3689 C3693 1.376 . S
C3690 C3688 1.394 . S
C3690 C3691 1.369 . S
C3690 C3694 1.531 . S
C3691 C3690 1.369 . S
C3691 C3692 1.410 . S
C3691 C3699 1.503 . S
C3692 C3691 1.410 . S
C3692 C3693 1.392 . S
C3692 C3695 1.511 . S
C3693 C3689 1.376 . S
C3693 C3692 1.392 . S
C3693 H3705 0.929 . S
C3694 C3690 1.531 . S
C3694 H3706 0.960 . S
C3694 H3707 0.962 . S
C3694 H3708 0.960 . S
C3695 C3692 1.511 . S
C3695 H3709 0.961 . S
C3695 H3710 0.961 . S
C3695 H3711 0.961 . S
C3696 C3697 1.370 . S
C3696 C3698 1.363 . S
C3696 H3712 0.931 . S
C3697 C3696 1.370 . S
C3697 C3701 1.408 . S
C3698 C3696 1.363 . S
C3698 C3699 1.370 . S
C3698 C3702 1.524 . S
C3699 C3691 1.503 . S
C3699 C3698 1.370 . S
C3699 C3700 1.403 . S
C3700 C3699 1.403 . S
C3700 C3701 1.404 . S
C3700 C3703 1.539 . S
C3701 C3697 1.408 . S
C3701 C3700 1.404 . S
C3701 H3713 0.930 . S
C3702 C3698 1.524 . S
C3702 H3714 0.956 . S
C3702 H3715 0.961 . S
C3702 H3716 0.961 . S
C3703 C3700 1.539 . S
C3703 H3717 0.958 . S
C3703 H3718 0.961 . S
C3703 H3719 0.960 . S
H3704 C3688 0.931 . S
H3705 C3693 0.929 . S
H3706 C3694 0.960 . S
H3707 C3694 0.962 . S
H3708 C3694 0.960 . S
H3709 C3695 0.961 . S
H3710 C3695 0.961 . S
H3711 C3695 0.961 . S
H3712 C3696 0.931 . S
H3713 C3701 0.930 . S
H3714 C3702 0.956 . S
H3715 C3702 0.961 . S
H3716 C3702 0.961 . S
H3717 C3703 0.958 . S
H3718 C3703 0.961 . S
H3719 C3703 0.960 . S
C3720 C3721 1.391 . S
C3720 C3722 1.394 . S
C3720 H3736 0.931 . S
C3721 C3720 1.391 . S
C3721 C3725 1.376 . S
C3722 C3720 1.394 . S
C3722 C3723 1.369 . S
C3722 C3726 1.531 . S
C3723 C3722 1.369 . S
C3723 C3724 1.410 . S
C3723 C3731 1.503 . S
C3724 C3723 1.410 . S
C3724 C3725 1.392 . S
C3724 C3727 1.511 . S
C3725 C3721 1.376 . S
C3725 C3724 1.392 . S
C3725 H3737 0.929 . S
C3726 C3722 1.531 . S
C3726 H3738 0.960 . S
C3726 H3739 0.962 . S
C3726 H3740 0.960 . S
C3727 C3724 1.511 . S
C3727 H3741 0.961 . S
C3727 H3742 0.961 . S
C3727 H3743 0.961 . S
C3728 C3729 1.370 . S
C3728 C3730 1.363 . S
C3728 H3744 0.931 . S
C3729 C3728 1.370 . S
C3729 C3733 1.408 . S
C3730 C3728 1.363 . S
C3730 C3731 1.370 . S
C3730 C3734 1.524 . S
C3731 C3723 1.503 . S
C3731 C3730 1.370 . S
C3731 C3732 1.403 . S
C3732 C3731 1.403 . S
C3732 C3733 1.404 . S
C3732 C3735 1.539 . S
C3733 C3729 1.408 . S
C3733 C3732 1.404 . S
C3733 H3745 0.930 . S
C3734 C3730 1.524 . S
C3734 H3746 0.956 . S
C3734 H3747 0.961 . S
C3734 H3748 0.961 . S
C3735 C3732 1.539 . S
C3735 H3749 0.958 . S
C3735 H3750 0.961 . S
C3735 H3751 0.960 . S
H3736 C3720 0.931 . S
H3737 C3725 0.929 . S
H3738 C3726 0.960 . S
H3739 C3726 0.962 . S
H3740 C3726 0.960 . S
H3741 C3727 0.961 . S
H3742 C3727 0.961 . S
H3743 C3727 0.961 . S
H3744 C3728 0.931 . S
H3745 C3733 0.930 . S
H3746 C3734 0.956 . S
H3747 C3734 0.961 . S
H3748 C3734 0.961 . S
H3749 C3735 0.958 . S
H3750 C3735 0.961 . S
H3751 C3735 0.960 . S
C3752 C3753 1.391 . S
C3752 C3754 1.394 . S
C3752 H3768 0.931 . S
C3753 C3752 1.391 . S
C3753 C3757 1.376 . S
C3754 C3752 1.394 . S
C3754 C3755 1.369 . S
C3754 C3758 1.531 . S
C3755 C3754 1.369 . S
C3755 C3756 1.410 . S
C3755 C3763 1.503 . S
C3756 C3755 1.410 . S
C3756 C3757 1.392 . S
C3756 C3759 1.511 . S
C3757 C3753 1.376 . S
C3757 C3756 1.392 . S
C3757 H3769 0.929 . S
C3758 C3754 1.531 . S
C3758 H3770 0.960 . S
C3758 H3771 0.962 . S
C3758 H3772 0.960 . S
C3759 C3756 1.511 . S
C3759 H3773 0.961 . S
C3759 H3774 0.961 . S
C3759 H3775 0.961 . S
C3760 C3761 1.370 . S
C3760 C3762 1.363 . S
C3760 H3776 0.931 . S
C3761 C3760 1.370 . S
C3761 C3765 1.408 . S
C3762 C3760 1.363 . S
C3762 C3763 1.370 . S
C3762 C3766 1.524 . S
C3763 C3755 1.503 . S
C3763 C3762 1.370 . S
C3763 C3764 1.403 . S
C3764 C3763 1.403 . S
C3764 C3765 1.404 . S
C3764 C3767 1.539 . S
C3765 C3761 1.408 . S
C3765 C3764 1.404 . S
C3765 H3777 0.930 . S
C3766 C3762 1.524 . S
C3766 H3778 0.956 . S
C3766 H3779 0.961 . S
C3766 H3780 0.961 . S
C3767 C3764 1.539 . S
C3767 H3781 0.958 . S
C3767 H3782 0.961 . S
C3767 H3783 0.960 . S
H3768 C3752 0.931 . S
H3769 C3757 0.929 . S
H3770 C3758 0.960 . S
H3771 C3758 0.962 . S
H3772 C3758 0.960 . S
H3773 C3759 0.961 . S
H3774 C3759 0.961 . S
H3775 C3759 0.961 . S
H3776 C3760 0.931 . S
H3777 C3765 0.930 . S
H3778 C3766 0.956 . S
H3779 C3766 0.961 . S
H3780 C3766 0.961 . S
H3781 C3767 0.958 . S
H3782 C3767 0.961 . S
H3783 C3767 0.960 . S
C3784 C3785 1.391 . S
C3784 C3786 1.394 . S
C3784 H3800 0.931 . S
C3785 C3784 1.391 . S
C3785 C3789 1.376 . S
C3786 C3784 1.394 . S
C3786 C3787 1.369 . S
C3786 C3790 1.531 . S
C3787 C3786 1.369 . S
C3787 C3788 1.410 . S
C3787 C3795 1.503 . S
C3788 C3787 1.410 . S
C3788 C3789 1.392 . S
C3788 C3791 1.511 . S
C3789 C3785 1.376 . S
C3789 C3788 1.392 . S
C3789 H3801 0.929 . S
C3790 C3786 1.531 . S
C3790 H3802 0.960 . S
C3790 H3803 0.962 . S
C3790 H3804 0.960 . S
C3791 C3788 1.511 . S
C3791 H3805 0.961 . S
C3791 H3806 0.961 . S
C3791 H3807 0.961 . S
C3792 C3793 1.370 . S
C3792 C3794 1.363 . S
C3792 H3808 0.931 . S
C3793 C3792 1.370 . S
C3793 C3797 1.408 . S
C3794 C3792 1.363 . S
C3794 C3795 1.370 . S
C3794 C3798 1.524 . S
C3795 C3787 1.503 . S
C3795 C3794 1.370 . S
C3795 C3796 1.403 . S
C3796 C3795 1.403 . S
C3796 C3797 1.404 . S
C3796 C3799 1.539 . S
C3797 C3793 1.408 . S
C3797 C3796 1.404 . S
C3797 H3809 0.930 . S
C3798 C3794 1.524 . S
C3798 H3810 0.956 . S
C3798 H3811 0.961 . S
C3798 H3812 0.961 . S
C3799 C3796 1.539 . S
C3799 H3813 0.958 . S
C3799 H3814 0.961 . S
C3799 H3815 0.960 . S
H3800 C3784 0.931 . S
H3801 C3789 0.929 . S
H3802 C3790 0.960 . S
H3803 C3790 0.962 . S
H3804 C3790 0.960 . S
H3805 C3791 0.961 . S
H3806 C3791 0.961 . S
H3807 C3791 0.961 . S
H3808 C3792 0.931 . S
H3809 C3797 0.930 . S
H3810 C3798 0.956 . S
H3811 C3798 0.961 . S
H3812 C3798 0.961 . S
H3813 C3799 0.958 . S
H3814 C3799 0.961 . S
H3815 C3799 0.960 . S
C3816 C3817 1.391 . S
C3816 C3818 1.394 . S
C3816 H3832 0.931 . S
C3817 C3816 1.391 . S
C3817 C3821 1.376 . S
C3818 C3816 1.394 . S
C3818 C3819 1.369 . S
C3818 C3822 1.531 . S
C3819 C3818 1.369 . S
C3819 C3820 1.410 . S
C3819 C3827 1.503 . S
C3820 C3819 1.410 . S
C3820 C3821 1.392 . S
C3820 C3823 1.511 . S
C3821 C3817 1.376 . S
C3821 C3820 1.392 . S
C3821 H3833 0.929 . S
C3822 C3818 1.531 . S
C3822 H3834 0.960 . S
C3822 H3835 0.962 . S
C3822 H3836 0.960 . S
C3823 C3820 1.511 . S
C3823 H3837 0.961 . S
C3823 H3838 0.961 . S
C3823 H3839 0.961 . S
C3824 C3825 1.370 . S
C3824 C3826 1.363 . S
C3824 H3840 0.931 . S
C3825 C3824 1.370 . S
C3825 C3829 1.408 . S
C3826 C3824 1.363 . S
C3826 C3827 1.370 . S
C3826 C3830 1.524 . S
C3827 C3819 1.503 . S
C3827 C3826 1.370 . S
C3827 C3828 1.403 . S
C3828 C3827 1.403 . S
C3828 C3829 1.404 . S
C3828 C3831 1.539 . S
C3829 C3825 1.408 . S
C3829 C3828 1.404 . S
C3829 H3841 0.930 . S
C3830 C3826 1.524 . S
C3830 H3842 0.956 . S
C3830 H3843 0.961 . S
C3830 H3844 0.961 . S
C3831 C3828 1.539 . S
C3831 H3845 0.958 . S
C3831 H3846 0.961 . S
C3831 H3847 0.960 . S
H3832 C3816 0.931 . S
H3833 C3821 0.929 . S
H3834 C3822 0.960 . S
H3835 C3822 0.962 . S
H3836 C3822 0.960 . S
H3837 C3823 0.961 . S
H3838 C3823 0.961 . S
H3839 C3823 0.961 . S
H3840 C3824 0.931 . S
H3841 C3829 0.930 . S
H3842 C3830 0.956 . S
H3843 C3830 0.961 . S
H3844 C3830 0.961 . S
H3845 C3831 0.958 . S
H3846 C3831 0.961 . S
H3847 C3831 0.960 . S
C3848 C3849 1.391 . S
C3848 C3850 1.394 . S
C3848 H3864 0.931 . S
C3849 C3848 1.391 . S
C3849 C3853 1.376 . S
C3850 C3848 1.394 . S
C3850 C3851 1.369 . S
C3850 C3854 1.531 . S
C3851 C3850 1.369 . S
C3851 C3852 1.410 . S
C3851 C3859 1.503 . S
C3852 C3851 1.410 . S
C3852 C3853 1.392 . S
C3852 C3855 1.511 . S
C3853 C3849 1.376 . S
C3853 C3852 1.392 . S
C3853 H3865 0.929 . S
C3854 C3850 1.531 . S
C3854 H3866 0.960 . S
C3854 H3867 0.962 . S
C3854 H3868 0.960 . S
C3855 C3852 1.511 . S
C3855 H3869 0.961 . S
C3855 H3870 0.961 . S
C3855 H3871 0.961 . S
C3856 C3857 1.370 . S
C3856 C3858 1.363 . S
C3856 H3872 0.931 . S
C3857 C3856 1.370 . S
C3857 C3861 1.408 . S
C3858 C3856 1.363 . S
C3858 C3859 1.370 . S
C3858 C3862 1.524 . S
C3859 C3851 1.503 . S
C3859 C3858 1.370 . S
C3859 C3860 1.403 . S
C3860 C3859 1.403 . S
C3860 C3861 1.404 . S
C3860 C3863 1.539 . S
C3861 C3857 1.408 . S
C3861 C3860 1.404 . S
C3861 H3873 0.930 . S
C3862 C3858 1.524 . S
C3862 H3874 0.956 . S
C3862 H3875 0.961 . S
C3862 H3876 0.961 . S
C3863 C3860 1.539 . S
C3863 H3877 0.958 . S
C3863 H3878 0.961 . S
C3863 H3879 0.960 . S
H3864 C3848 0.931 . S
H3865 C3853 0.929 . S
H3866 C3854 0.960 . S
H3867 C3854 0.962 . S
H3868 C3854 0.960 . S
H3869 C3855 0.961 . S
H3870 C3855 0.961 . S
H3871 C3855 0.961 . S
H3872 C3856 0.931 . S
H3873 C3861 0.930 . S
H3874 C3862 0.956 . S
H3875 C3862 0.961 . S
H3876 C3862 0.961 . S
H3877 C3863 0.958 . S
H3878 C3863 0.961 . S
H3879 C3863 0.960 . S
C3880 C3881 1.391 . S
C3880 C3882 1.394 . S
C3880 H3896 0.931 . S
C3881 C3880 1.391 . S
C3881 C3885 1.376 . S
C3882 C3880 1.394 . S
C3882 C3883 1.369 . S
C3882 C3886 1.531 . S
C3883 C3882 1.369 . S
C3883 C3884 1.410 . S
C3883 C3891 1.503 . S
C3884 C3883 1.410 . S
C3884 C3885 1.392 . S
C3884 C3887 1.511 . S
C3885 C3881 1.376 . S
C3885 C3884 1.392 . S
C3885 H3897 0.929 . S
C3886 C3882 1.531 . S
C3886 H3898 0.960 . S
C3886 H3899 0.962 . S
C3886 H3900 0.960 . S
C3887 C3884 1.511 . S
C3887 H3901 0.961 . S
C3887 H3902 0.961 . S
C3887 H3903 0.961 . S
C3888 C3889 1.370 . S
C3888 C3890 1.363 . S
C3888 H3904 0.931 . S
C3889 C3888 1.370 . S
C3889 C3893 1.408 . S
C3890 C3888 1.363 . S
C3890 C3891 1.370 . S
C3890 C3894 1.524 . S
C3891 C3883 1.503 . S
C3891 C3890 1.370 . S
C3891 C3892 1.403 . S
C3892 C3891 1.403 . S
C3892 C3893 1.404 . S
C3892 C3895 1.539 . S
C3893 C3889 1.408 . S
C3893 C3892 1.404 . S
C3893 H3905 0.930 . S
C3894 C3890 1.524 . S
C3894 H3906 0.956 . S
C3894 H3907 0.961 . S
C3894 H3908 0.961 . S
C3895 C3892 1.539 . S
C3895 H3909 0.958 . S
C3895 H3910 0.961 . S
C3895 H3911 0.960 . S
H3896 C3880 0.931 . S
H3897 C3885 0.929 . S
H3898 C3886 0.960 . S
H3899 C3886 0.962 . S
H3900 C3886 0.960 . S
H3901 C3887 0.961 . S
H3902 C3887 0.961 . S
H3903 C3887 0.961 . S
H3904 C3888 0.931 . S
H3905 C3893 0.930 . S
H3906 C3894 0.956 . S
H3907 C3894 0.961 . S
H3908 C3894 0.961 . S
H3909 C3895 0.958 . S
H3910 C3895 0.961 . S
H3911 C3895 0.960 . S
C3912 C3913 1.391 . S
C3912 C3914 1.394 . S
C3912 H3928 0.931 . S
C3913 C3912 1.391 . S
C3913 C3917 1.376 . S
C3914 C3912 1.394 . S
C3914 C3915 1.369 . S
C3914 C3918 1.531 . S
C3915 C3914 1.369 . S
C3915 C3916 1.410 . S
C3915 C3923 1.503 . S
C3916 C3915 1.410 . S
C3916 C3917 1.392 . S
C3916 C3919 1.511 . S
C3917 C3913 1.376 . S
C3917 C3916 1.392 . S
C3917 H3929 0.929 . S
C3918 C3914 1.531 . S
C3918 H3930 0.960 . S
C3918 H3931 0.962 . S
C3918 H3932 0.960 . S
C3919 C3916 1.511 . S
C3919 H3933 0.961 . S
C3919 H3934 0.961 . S
C3919 H3935 0.961 . S
C3920 C3921 1.370 . S
C3920 C3922 1.363 . S
C3920 H3936 0.931 . S
C3921 C3920 1.370 . S
C3921 C3925 1.408 . S
C3922 C3920 1.363 . S
C3922 C3923 1.370 . S
C3922 C3926 1.524 . S
C3923 C3915 1.503 . S
C3923 C3922 1.370 . S
C3923 C3924 1.403 . S
C3924 C3923 1.403 . S
C3924 C3925 1.404 . S
C3924 C3927 1.539 . S
C3925 C3921 1.408 . S
C3925 C3924 1.404 . S
C3925 H3937 0.930 . S
C3926 C3922 1.524 . S
C3926 H3938 0.956 . S
C3926 H3939 0.961 . S
C3926 H3940 0.961 . S
C3927 C3924 1.539 . S
C3927 H3941 0.958 . S
C3927 H3942 0.961 . S
C3927 H3943 0.960 . S
H3928 C3912 0.931 . S
H3929 C3917 0.929 . S
H3930 C3918 0.960 . S
H3931 C3918 0.962 . S
H3932 C3918 0.960 . S
H3933 C3919 0.961 . S
H3934 C3919 0.961 . S
H3935 C3919 0.961 . S
H3936 C3920 0.931 . S
H3937 C3925 0.930 . S
H3938 C3926 0.956 . S
H3939 C3926 0.961 . S
H3940 C3926 0.961 . S
H3941 C3927 0.958 . S
H3942 C3927 0.961 . S
H3943 C3927 0.960 . S
C3944 C3945 1.391 . S
C3944 C3946 1.394 . S
C3944 H3960 0.931 . S
C3945 C3944 1.391 . S
C3945 C3949 1.376 . S
C3946 C3944 1.394 . S
C3946 C3947 1.369 . S
C3946 C3950 1.531 . S
C3947 C3946 1.369 . S
C3947 C3948 1.410 . S
C3947 C3955 1.503 . S
C3948 C3947 1.410 . S
C3948 C3949 1.392 . S
C3948 C3951 1.511 . S
C3949 C3945 1.376 . S
C3949 C3948 1.392 . S
C3949 H3961 0.929 . S
C3950 C3946 1.531 . S
C3950 H3962 0.960 . S
C3950 H3963 0.962 . S
C3950 H3964 0.960 . S
C3951 C3948 1.511 . S
C3951 H3965 0.961 . S
C3951 H3966 0.961 . S
C3951 H3967 0.961 . S
C3952 C3953 1.370 . S
C3952 C3954 1.363 . S
C3952 H3968 0.931 . S
C3953 C3952 1.370 . S
C3953 C3957 1.408 . S
C3954 C3952 1.363 . S
C3954 C3955 1.370 . S
C3954 C3958 1.524 . S
C3955 C3947 1.503 . S
C3955 C3954 1.370 . S
C3955 C3956 1.403 . S
C3956 C3955 1.403 . S
C3956 C3957 1.404 . S
C3956 C3959 1.539 . S
C3957 C3953 1.408 . S
C3957 C3956 1.404 . S
C3957 H3969 0.930 . S
C3958 C3954 1.524 . S
C3958 H3970 0.956 . S
C3958 H3971 0.961 . S
C3958 H3972 0.961 . S
C3959 C3956 1.539 . S
C3959 H3973 0.958 . S
C3959 H3974 0.961 . S
C3959 H3975 0.960 . S
H3960 C3944 0.931 . S
H3961 C3949 0.929 . S
H3962 C3950 0.960 . S
H3963 C3950 0.962 . S
H3964 C3950 0.960 . S
H3965 C3951 0.961 . S
H3966 C3951 0.961 . S
H3967 C3951 0.961 . S
H3968 C3952 0.931 . S
H3969 C3957 0.930 . S
H3970 C3958 0.956 . S
H3971 C3958 0.961 . S
H3972 C3958 0.961 . S
H3973 C3959 0.958 . S
H3974 C3959 0.961 . S
H3975 C3959 0.960 . S
C3976 C3977 1.391 . S
C3976 C3978 1.394 . S
C3976 H3992 0.931 . S
C3977 C3976 1.391 . S
C3977 C3981 1.376 . S
C3978 C3976 1.394 . S
C3978 C3979 1.369 . S
C3978 C3982 1.531 . S
C3979 C3978 1.369 . S
C3979 C3980 1.410 . S
C3979 C3987 1.503 . S
C3980 C3979 1.410 . S
C3980 C3981 1.392 . S
C3980 C3983 1.511 . S
C3981 C3977 1.376 . S
C3981 C3980 1.392 . S
C3981 H3993 0.929 . S
C3982 C3978 1.531 . S
C3982 H3994 0.960 . S
C3982 H3995 0.962 . S
C3982 H3996 0.960 . S
C3983 C3980 1.511 . S
C3983 H3997 0.961 . S
C3983 H3998 0.961 . S
C3983 H3999 0.961 . S
C3984 C3985 1.370 . S
C3984 C3986 1.363 . S
C3984 H4000 0.931 . S
C3985 C3984 1.370 . S
C3985 C3989 1.408 . S
C3986 C3984 1.363 . S
C3986 C3987 1.370 . S
C3986 C3990 1.524 . S
C3987 C3979 1.503 . S
C3987 C3986 1.370 . S
C3987 C3988 1.403 . S
C3988 C3987 1.403 . S
C3988 C3989 1.404 . S
C3988 C3991 1.539 . S
C3989 C3985 1.408 . S
C3989 C3988 1.404 . S
C3989 H4001 0.930 . S
C3990 C3986 1.524 . S
C3990 H4002 0.956 . S
C3990 H4003 0.961 . S
C3990 H4004 0.961 . S
C3991 C3988 1.539 . S
C3991 H4005 0.958 . S
C3991 H4006 0.961 . S
C3991 H4007 0.960 . S
H3992 C3976 0.931 . S
H3993 C3981 0.929 . S
H3994 C3982 0.960 . S
H3995 C3982 0.962 . S
H3996 C3982 0.960 . S
H3997 C3983 0.961 . S
H3998 C3983 0.961 . S
H3999 C3983 0.961 . S
H4000 C3984 0.931 . S
H4001 C3989 0.930 . S
H4002 C3990 0.956 . S
H4003 C3990 0.961 . S
H4004 C3990 0.961 . S
H4005 C3991 0.958 . S
H4006 C3991 0.961 . S
H4007 C3991 0.960 . S
C4008 C4009 1.391 . S
C4008 C4010 1.394 . S
C4008 H4024 0.931 . S
C4009 C4008 1.391 . S
C4009 C4013 1.376 . S
C4010 C4008 1.394 . S
C4010 C4011 1.369 . S
C4010 C4014 1.531 . S
C4011 C4010 1.369 . S
C4011 C4012 1.410 . S
C4011 C4019 1.503 . S
C4012 C4011 1.410 . S
C4012 C4013 1.392 . S
C4012 C4015 1.511 . S
C4013 C4009 1.376 . S
C4013 C4012 1.392 . S
C4013 H4025 0.929 . S
C4014 C4010 1.531 . S
C4014 H4026 0.960 . S
C4014 H4027 0.962 . S
C4014 H4028 0.960 . S
C4015 C4012 1.511 . S
C4015 H4029 0.961 . S
C4015 H4030 0.961 . S
C4015 H4031 0.961 . S
C4016 C4017 1.370 . S
C4016 C4018 1.363 . S
C4016 H4032 0.931 . S
C4017 C4016 1.370 . S
C4017 C4021 1.408 . S
C4018 C4016 1.363 . S
C4018 C4019 1.370 . S
C4018 C4022 1.524 . S
C4019 C4011 1.503 . S
C4019 C4018 1.370 . S
C4019 C4020 1.403 . S
C4020 C4019 1.403 . S
C4020 C4021 1.404 . S
C4020 C4023 1.539 . S
C4021 C4017 1.408 . S
C4021 C4020 1.404 . S
C4021 H4033 0.930 . S
C4022 C4018 1.524 . S
C4022 H4034 0.956 . S
C4022 H4035 0.961 . S
C4022 H4036 0.961 . S
C4023 C4020 1.539 . S
C4023 H4037 0.958 . S
C4023 H4038 0.961 . S
C4023 H4039 0.960 . S
H4024 C4008 0.931 . S
H4025 C4013 0.929 . S
H4026 C4014 0.960 . S
H4027 C4014 0.962 . S
H4028 C4014 0.960 . S
H4029 C4015 0.961 . S
H4030 C4015 0.961 . S
H4031 C4015 0.961 . S
H4032 C4016 0.931 . S
H4033 C4021 0.930 . S
H4034 C4022 0.956 . S
H4035 C4022 0.961 . S
H4036 C4022 0.961 . S
H4037 C4023 0.958 . S
H4038 C4023 0.961 . S
H4039 C4023 0.960 . S
C4040 C4041 1.391 . S
C4040 C4042 1.394 . S
C4040 H4056 0.931 . S
C4041 C4040 1.391 . S
C4041 C4045 1.376 . S
C4042 C4040 1.394 . S
C4042 C4043 1.369 . S
C4042 C4046 1.531 . S
C4043 C4042 1.369 . S
C4043 C4044 1.410 . S
C4043 C4051 1.503 . S
C4044 C4043 1.410 . S
C4044 C4045 1.392 . S
C4044 C4047 1.511 . S
C4045 C4041 1.376 . S
C4045 C4044 1.392 . S
C4045 H4057 0.929 . S
C4046 C4042 1.531 . S
C4046 H4058 0.960 . S
C4046 H4059 0.962 . S
C4046 H4060 0.960 . S
C4047 C4044 1.511 . S
C4047 H4061 0.961 . S
C4047 H4062 0.961 . S
C4047 H4063 0.961 . S
C4048 C4049 1.370 . S
C4048 C4050 1.363 . S
C4048 H4064 0.931 . S
C4049 C4048 1.370 . S
C4049 C4053 1.408 . S
C4050 C4048 1.363 . S
C4050 C4051 1.370 . S
C4050 C4054 1.524 . S
C4051 C4043 1.503 . S
C4051 C4050 1.370 . S
C4051 C4052 1.403 . S
C4052 C4051 1.403 . S
C4052 C4053 1.404 . S
C4052 C4055 1.539 . S
C4053 C4049 1.408 . S
C4053 C4052 1.404 . S
C4053 H4065 0.930 . S
C4054 C4050 1.524 . S
C4054 H4066 0.956 . S
C4054 H4067 0.961 . S
C4054 H4068 0.961 . S
C4055 C4052 1.539 . S
C4055 H4069 0.958 . S
C4055 H4070 0.961 . S
C4055 H4071 0.960 . S
H4056 C4040 0.931 . S
H4057 C4045 0.929 . S
H4058 C4046 0.960 . S
H4059 C4046 0.962 . S
H4060 C4046 0.960 . S
H4061 C4047 0.961 . S
H4062 C4047 0.961 . S
H4063 C4047 0.961 . S
H4064 C4048 0.931 . S
H4065 C4053 0.930 . S
H4066 C4054 0.956 . S
H4067 C4054 0.961 . S
H4068 C4054 0.961 . S
H4069 C4055 0.958 . S
H4070 C4055 0.961 . S
H4071 C4055 0.960 . S
C4072 C4073 1.391 . S
C4072 C4074 1.394 . S
C4072 H4088 0.931 . S
C4073 C4072 1.391 . S
C4073 C4077 1.376 . S
C4074 C4072 1.394 . S
C4074 C4075 1.369 . S
C4074 C4078 1.531 . S
C4075 C4074 1.369 . S
C4075 C4076 1.410 . S
C4075 C4083 1.503 . S
C4076 C4075 1.410 . S
C4076 C4077 1.392 . S
C4076 C4079 1.511 . S
C4077 C4073 1.376 . S
C4077 C4076 1.392 . S
C4077 H4089 0.929 . S
C4078 C4074 1.531 . S
C4078 H4090 0.960 . S
C4078 H4091 0.962 . S
C4078 H4092 0.960 . S
C4079 C4076 1.511 . S
C4079 H4093 0.961 . S
C4079 H4094 0.961 . S
C4079 H4095 0.961 . S
C4080 C4081 1.370 . S
C4080 C4082 1.363 . S
C4080 H4096 0.931 . S
C4081 C4080 1.370 . S
C4081 C4085 1.408 . S
C4082 C4080 1.363 . S
C4082 C4083 1.370 . S
C4082 C4086 1.524 . S
C4083 C4075 1.503 . S
C4083 C4082 1.370 . S
C4083 C4084 1.403 . S
C4084 C4083 1.403 . S
C4084 C4085 1.404 . S
C4084 C4087 1.539 . S
C4085 C4081 1.408 . S
C4085 C4084 1.404 . S
C4085 H4097 0.930 . S
C4086 C4082 1.524 . S
C4086 H4098 0.956 . S
C4086 H4099 0.961 . S
C4086 H4100 0.961 . S
C4087 C4084 1.539 . S
C4087 H4101 0.958 . S
C4087 H4102 0.961 . S
C4087 H4103 0.960 . S
H4088 C4072 0.931 . S
H4089 C4077 0.929 . S
H4090 C4078 0.960 . S
H4091 C4078 0.962 . S
H4092 C4078 0.960 . S
H4093 C4079 0.961 . S
H4094 C4079 0.961 . S
H4095 C4079 0.961 . S
H4096 C4080 0.931 . S
H4097 C4085 0.930 . S
H4098 C4086 0.956 . S
H4099 C4086 0.961 . S
H4100 C4086 0.961 . S
H4101 C4087 0.958 . S
H4102 C4087 0.961 . S
H4103 C4087 0.960 . S
C4104 C4105 1.391 . S
C4104 C4106 1.394 . S
C4104 H4120 0.931 . S
C4105 C4104 1.391 . S
C4105 C4109 1.376 . S
C4106 C4104 1.394 . S
C4106 C4107 1.369 . S
C4106 C4110 1.531 . S
C4107 C4106 1.369 . S
C4107 C4108 1.410 . S
C4107 C4115 1.503 . S
C4108 C4107 1.410 . S
C4108 C4109 1.392 . S
C4108 C4111 1.511 . S
C4109 C4105 1.376 . S
C4109 C4108 1.392 . S
C4109 H4121 0.929 . S
C4110 C4106 1.531 . S
C4110 H4122 0.960 . S
C4110 H4123 0.962 . S
C4110 H4124 0.960 . S
C4111 C4108 1.511 . S
C4111 H4125 0.961 . S
C4111 H4126 0.961 . S
C4111 H4127 0.961 . S
C4112 C4113 1.370 . S
C4112 C4114 1.363 . S
C4112 H4128 0.931 . S
C4113 C4112 1.370 . S
C4113 C4117 1.408 . S
C4114 C4112 1.363 . S
C4114 C4115 1.370 . S
C4114 C4118 1.524 . S
C4115 C4107 1.503 . S
C4115 C4114 1.370 . S
C4115 C4116 1.403 . S
C4116 C4115 1.403 . S
C4116 C4117 1.404 . S
C4116 C4119 1.539 . S
C4117 C4113 1.408 . S
C4117 C4116 1.404 . S
C4117 H4129 0.930 . S
C4118 C4114 1.524 . S
C4118 H4130 0.956 . S
C4118 H4131 0.961 . S
C4118 H4132 0.961 . S
C4119 C4116 1.539 . S
C4119 H4133 0.958 . S
C4119 H4134 0.961 . S
C4119 H4135 0.960 . S
H4120 C4104 0.931 . S
H4121 C4109 0.929 . S
H4122 C4110 0.960 . S
H4123 C4110 0.962 . S
H4124 C4110 0.960 . S
H4125 C4111 0.961 . S
H4126 C4111 0.961 . S
H4127 C4111 0.961 . S
H4128 C4112 0.931 . S
H4129 C4117 0.930 . S
H4130 C4118 0.956 . S
H4131 C4118 0.961 . S
H4132 C4118 0.961 . S
H4133 C4119 0.958 . S
H4134 C4119 0.961 . S
H4135 C4119 0.960 . S
C4136 C4137 1.391 . S
C4136 C4138 1.394 . S
C4136 H4152 0.931 . S
C4137 C4136 1.391 . S
C4137 C4141 1.376 . S
C4138 C4136 1.394 . S
C4138 C4139 1.369 . S
C4138 C4142 1.531 . S
C4139 C4138 1.369 . S
C4139 C4140 1.410 . S
C4139 C4147 1.503 . S
C4140 C4139 1.410 . S
C4140 C4141 1.392 . S
C4140 C4143 1.511 . S
C4141 C4137 1.376 . S
C4141 C4140 1.392 . S
C4141 H4153 0.929 . S
C4142 C4138 1.531 . S
C4142 H4154 0.960 . S
C4142 H4155 0.962 . S
C4142 H4156 0.960 . S
C4143 C4140 1.511 . S
C4143 H4157 0.961 . S
C4143 H4158 0.961 . S
C4143 H4159 0.961 . S
C4144 C4145 1.370 . S
C4144 C4146 1.363 . S
C4144 H4160 0.931 . S
C4145 C4144 1.370 . S
C4145 C4149 1.408 . S
C4146 C4144 1.363 . S
C4146 C4147 1.370 . S
C4146 C4150 1.524 . S
C4147 C4139 1.503 . S
C4147 C4146 1.370 . S
C4147 C4148 1.403 . S
C4148 C4147 1.403 . S
C4148 C4149 1.404 . S
C4148 C4151 1.539 . S
C4149 C4145 1.408 . S
C4149 C4148 1.404 . S
C4149 H4161 0.930 . S
C4150 C4146 1.524 . S
C4150 H4162 0.956 . S
C4150 H4163 0.961 . S
C4150 H4164 0.961 . S
C4151 C4148 1.539 . S
C4151 H4165 0.958 . S
C4151 H4166 0.961 . S
C4151 H4167 0.960 . S
H4152 C4136 0.931 . S
H4153 C4141 0.929 . S
H4154 C4142 0.960 . S
H4155 C4142 0.962 . S
H4156 C4142 0.960 . S
H4157 C4143 0.961 . S
H4158 C4143 0.961 . S
H4159 C4143 0.961 . S
H4160 C4144 0.931 . S
H4161 C4149 0.930 . S
H4162 C4150 0.956 . S
H4163 C4150 0.961 . S
H4164 C4150 0.961 . S
H4165 C4151 0.958 . S
H4166 C4151 0.961 . S
H4167 C4151 0.960 . S
C4168 C4169 1.391 . S
C4168 C4170 1.394 . S
C4168 H4184 0.931 . S
C4169 C4168 1.391 . S
C4169 C4173 1.376 . S
C4170 C4168 1.394 . S
C4170 C4171 1.369 . S
C4170 C4174 1.531 . S
C4171 C4170 1.369 . S
C4171 C4172 1.410 . S
C4171 C4179 1.503 . S
C4172 C4171 1.410 . S
C4172 C4173 1.392 . S
C4172 C4175 1.511 . S
C4173 C4169 1.376 . S
C4173 C4172 1.392 . S
C4173 H4185 0.929 . S
C4174 C4170 1.531 . S
C4174 H4186 0.960 . S
C4174 H4187 0.962 . S
C4174 H4188 0.960 . S
C4175 C4172 1.511 . S
C4175 H4189 0.961 . S
C4175 H4190 0.961 . S
C4175 H4191 0.961 . S
C4176 C4177 1.370 . S
C4176 C4178 1.363 . S
C4176 H4192 0.931 . S
C4177 C4176 1.370 . S
C4177 C4181 1.408 . S
C4178 C4176 1.363 . S
C4178 C4179 1.370 . S
C4178 C4182 1.524 . S
C4179 C4171 1.503 . S
C4179 C4178 1.370 . S
C4179 C4180 1.403 . S
C4180 C4179 1.403 . S
C4180 C4181 1.404 . S
C4180 C4183 1.539 . S
C4181 C4177 1.408 . S
C4181 C4180 1.404 . S
C4181 H4193 0.930 . S
C4182 C4178 1.524 . S
C4182 H4194 0.956 . S
C4182 H4195 0.961 . S
C4182 H4196 0.961 . S
C4183 C4180 1.539 . S
C4183 H4197 0.958 . S
C4183 H4198 0.961 . S
C4183 H4199 0.960 . S
H4184 C4168 0.931 . S
H4185 C4173 0.929 . S
H4186 C4174 0.960 . S
H4187 C4174 0.962 . S
H4188 C4174 0.960 . S
H4189 C4175 0.961 . S
H4190 C4175 0.961 . S
H4191 C4175 0.961 . S
H4192 C4176 0.931 . S
H4193 C4181 0.930 . S
H4194 C4182 0.956 . S
H4195 C4182 0.961 . S
H4196 C4182 0.961 . S
H4197 C4183 0.958 . S
H4198 C4183 0.961 . S
H4199 C4183 0.960 . S
C4200 C4201 1.391 . S
C4200 C4202 1.394 . S
C4200 H4216 0.931 . S
C4201 C4200 1.391 . S
C4201 C4205 1.376 . S
C4202 C4200 1.394 . S
C4202 C4203 1.369 . S
C4202 C4206 1.531 . S
C4203 C4202 1.369 . S
C4203 C4204 1.410 . S
C4203 C4211 1.503 . S
C4204 C4203 1.410 . S
C4204 C4205 1.392 . S
C4204 C4207 1.511 . S
C4205 C4201 1.376 . S
C4205 C4204 1.392 . S
C4205 H4217 0.929 . S
C4206 C4202 1.531 . S
C4206 H4218 0.960 . S
C4206 H4219 0.962 . S
C4206 H4220 0.960 . S
C4207 C4204 1.511 . S
C4207 H4221 0.961 . S
C4207 H4222 0.961 . S
C4207 H4223 0.961 . S
C4208 C4209 1.370 . S
C4208 C4210 1.363 . S
C4208 H4224 0.931 . S
C4209 C4208 1.370 . S
C4209 C4213 1.408 . S
C4210 C4208 1.363 . S
C4210 C4211 1.370 . S
C4210 C4214 1.524 . S
C4211 C4203 1.503 . S
C4211 C4210 1.370 . S
C4211 C4212 1.403 . S
C4212 C4211 1.403 . S
C4212 C4213 1.404 . S
C4212 C4215 1.539 . S
C4213 C4209 1.408 . S
C4213 C4212 1.404 . S
C4213 H4225 0.930 . S
C4214 C4210 1.524 . S
C4214 H4226 0.956 . S
C4214 H4227 0.961 . S
C4214 H4228 0.961 . S
C4215 C4212 1.539 . S
C4215 H4229 0.958 . S
C4215 H4230 0.961 . S
C4215 H4231 0.960 . S
H4216 C4200 0.931 . S
H4217 C4205 0.929 . S
H4218 C4206 0.960 . S
H4219 C4206 0.962 . S
H4220 C4206 0.960 . S
H4221 C4207 0.961 . S
H4222 C4207 0.961 . S
H4223 C4207 0.961 . S
H4224 C4208 0.931 . S
H4225 C4213 0.930 . S
H4226 C4214 0.956 . S
H4227 C4214 0.961 . S
H4228 C4214 0.961 . S
H4229 C4215 0.958 . S
H4230 C4215 0.961 . S
H4231 C4215 0.960 . S
C4232 C4233 1.391 . S
C4232 C4234 1.394 . S
C4232 H4248 0.931 . S
C4233 C4232 1.391 . S
C4233 C4237 1.376 . S
C4234 C4232 1.394 . S
C4234 C4235 1.369 . S
C4234 C4238 1.531 . S
C4235 C4234 1.369 . S
C4235 C4236 1.410 . S
C4235 C4243 1.503 . S
C4236 C4235 1.410 . S
C4236 C4237 1.392 . S
C4236 C4239 1.511 . S
C4237 C4233 1.376 . S
C4237 C4236 1.392 . S
C4237 H4249 0.929 . S
C4238 C4234 1.531 . S
C4238 H4250 0.960 . S
C4238 H4251 0.962 . S
C4238 H4252 0.960 . S
C4239 C4236 1.511 . S
C4239 H4253 0.961 . S
C4239 H4254 0.961 . S
C4239 H4255 0.961 . S
C4240 C4241 1.370 . S
C4240 C4242 1.363 . S
C4240 H4256 0.931 . S
C4241 C4240 1.370 . S
C4241 C4245 1.408 . S
C4242 C4240 1.363 . S
C4242 C4243 1.370 . S
C4242 C4246 1.524 . S
C4243 C4235 1.503 . S
C4243 C4242 1.370 . S
C4243 C4244 1.403 . S
C4244 C4243 1.403 . S
C4244 C4245 1.404 . S
C4244 C4247 1.539 . S
C4245 C4241 1.408 . S
C4245 C4244 1.404 . S
C4245 H4257 0.930 . S
C4246 C4242 1.524 . S
C4246 H4258 0.956 . S
C4246 H4259 0.961 . S
C4246 H4260 0.961 . S
C4247 C4244 1.539 . S
C4247 H4261 0.958 . S
C4247 H4262 0.961 . S
C4247 H4263 0.960 . S
H4248 C4232 0.931 . S
H4249 C4237 0.929 . S
H4250 C4238 0.960 . S
H4251 C4238 0.962 . S
H4252 C4238 0.960 . S
H4253 C4239 0.961 . S
H4254 C4239 0.961 . S
H4255 C4239 0.961 . S
H4256 C4240 0.931 . S
H4257 C4245 0.930 . S
H4258 C4246 0.956 . S
H4259 C4246 0.961 . S
H4260 C4246 0.961 . S
H4261 C4247 0.958 . S
H4262 C4247 0.961 . S
H4263 C4247 0.960 . S
C4264 C4265 1.391 . S
C4264 C4266 1.394 . S
C4264 H4280 0.931 . S
C4265 C4264 1.391 . S
C4265 C4269 1.376 . S
C4266 C4264 1.394 . S
C4266 C4267 1.369 . S
C4266 C4270 1.531 . S
C4267 C4266 1.369 . S
C4267 C4268 1.410 . S
C4267 C4275 1.503 . S
C4268 C4267 1.410 . S
C4268 C4269 1.392 . S
C4268 C4271 1.511 . S
C4269 C4265 1.376 . S
C4269 C4268 1.392 . S
C4269 H4281 0.929 . S
C4270 C4266 1.531 . S
C4270 H4282 0.960 . S
C4270 H4283 0.962 . S
C4270 H4284 0.960 . S
C4271 C4268 1.511 . S
C4271 H4285 0.961 . S
C4271 H4286 0.961 . S
C4271 H4287 0.961 . S
C4272 C4273 1.370 . S
C4272 C4274 1.363 . S
C4272 H4288 0.931 . S
C4273 C4272 1.370 . S
C4273 C4277 1.408 . S
C4274 C4272 1.363 . S
C4274 C4275 1.370 . S
C4274 C4278 1.524 . S
C4275 C4267 1.503 . S
C4275 C4274 1.370 . S
C4275 C4276 1.403 . S
C4276 C4275 1.403 . S
C4276 C4277 1.404 . S
C4276 C4279 1.539 . S
C4277 C4273 1.408 . S
C4277 C4276 1.404 . S
C4277 H4289 0.930 . S
C4278 C4274 1.524 . S
C4278 H4290 0.956 . S
C4278 H4291 0.961 . S
C4278 H4292 0.961 . S
C4279 C4276 1.539 . S
C4279 H4293 0.958 . S
C4279 H4294 0.961 . S
C4279 H4295 0.960 . S
H4280 C4264 0.931 . S
H4281 C4269 0.929 . S
H4282 C4270 0.960 . S
H4283 C4270 0.962 . S
H4284 C4270 0.960 . S
H4285 C4271 0.961 . S
H4286 C4271 0.961 . S
H4287 C4271 0.961 . S
H4288 C4272 0.931 . S
H4289 C4277 0.930 . S
H4290 C4278 0.956 . S
H4291 C4278 0.961 . S
H4292 C4278 0.961 . S
H4293 C4279 0.958 . S
H4294 C4279 0.961 . S
H4295 C4279 0.960 . S
C4296 C4297 1.391 . S
C4296 C4298 1.394 . S
C4296 H4312 0.931 . S
C4297 C4296 1.391 . S
C4297 C4301 1.376 . S
C4298 C4296 1.394 . S
C4298 C4299 1.369 . S
C4298 C4302 1.531 . S
C4299 C4298 1.369 . S
C4299 C4300 1.410 . S
C4299 C4307 1.503 . S
C4300 C4299 1.410 . S
C4300 C4301 1.392 . S
C4300 C4303 1.511 . S
C4301 C4297 1.376 . S
C4301 C4300 1.392 . S
C4301 H4313 0.929 . S
C4302 C4298 1.531 . S
C4302 H4314 0.960 . S
C4302 H4315 0.962 . S
C4302 H4316 0.960 . S
C4303 C4300 1.511 . S
C4303 H4317 0.961 . S
C4303 H4318 0.961 . S
C4303 H4319 0.961 . S
C4304 C4305 1.370 . S
C4304 C4306 1.363 . S
C4304 H4320 0.931 . S
C4305 C4304 1.370 . S
C4305 C4309 1.408 . S
C4306 C4304 1.363 . S
C4306 C4307 1.370 . S
C4306 C4310 1.524 . S
C4307 C4299 1.503 . S
C4307 C4306 1.370 . S
C4307 C4308 1.403 . S
C4308 C4307 1.403 . S
C4308 C4309 1.404 . S
C4308 C4311 1.539 . S
C4309 C4305 1.408 . S
C4309 C4308 1.404 . S
C4309 H4321 0.930 . S
C4310 C4306 1.524 . S
C4310 H4322 0.956 . S
C4310 H4323 0.961 . S
C4310 H4324 0.961 . S
C4311 C4308 1.539 . S
C4311 H4325 0.958 . S
C4311 H4326 0.961 . S
C4311 H4327 0.960 . S
H4312 C4296 0.931 . S
H4313 C4301 0.929 . S
H4314 C4302 0.960 . S
H4315 C4302 0.962 . S
H4316 C4302 0.960 . S
H4317 C4303 0.961 . S
H4318 C4303 0.961 . S
H4319 C4303 0.961 . S
H4320 C4304 0.931 . S
H4321 C4309 0.930 . S
H4322 C4310 0.956 . S
H4323 C4310 0.961 . S
H4324 C4310 0.961 . S
H4325 C4311 0.958 . S
H4326 C4311 0.961 . S
H4327 C4311 0.960 . S
C4328 C4329 1.391 . S
C4328 C4330 1.394 . S
C4328 H4344 0.931 . S
C4329 C4328 1.391 . S
C4329 C4333 1.376 . S
C4330 C4328 1.394 . S
C4330 C4331 1.369 . S
C4330 C4334 1.531 . S
C4331 C4330 1.369 . S
C4331 C4332 1.410 . S
C4331 C4339 1.503 . S
C4332 C4331 1.410 . S
C4332 C4333 1.392 . S
C4332 C4335 1.511 . S
C4333 C4329 1.376 . S
C4333 C4332 1.392 . S
C4333 H4345 0.929 . S
C4334 C4330 1.531 . S
C4334 H4346 0.960 . S
C4334 H4347 0.962 . S
C4334 H4348 0.960 . S
C4335 C4332 1.511 . S
C4335 H4349 0.961 . S
C4335 H4350 0.961 . S
C4335 H4351 0.961 . S
C4336 C4337 1.370 . S
C4336 C4338 1.363 . S
C4336 H4352 0.931 . S
C4337 C4336 1.370 . S
C4337 C4341 1.408 . S
C4338 C4336 1.363 . S
C4338 C4339 1.370 . S
C4338 C4342 1.524 . S
C4339 C4331 1.503 . S
C4339 C4338 1.370 . S
C4339 C4340 1.403 . S
C4340 C4339 1.403 . S
C4340 C4341 1.404 . S
C4340 C4343 1.539 . S
C4341 C4337 1.408 . S
C4341 C4340 1.404 . S
C4341 H4353 0.930 . S
C4342 C4338 1.524 . S
C4342 H4354 0.956 . S
C4342 H4355 0.961 . S
C4342 H4356 0.961 . S
C4343 C4340 1.539 . S
C4343 H4357 0.958 . S
C4343 H4358 0.961 . S
C4343 H4359 0.960 . S
H4344 C4328 0.931 . S
H4345 C4333 0.929 . S
H4346 C4334 0.960 . S
H4347 C4334 0.962 . S
H4348 C4334 0.960 . S
H4349 C4335 0.961 . S
H4350 C4335 0.961 . S
H4351 C4335 0.961 . S
H4352 C4336 0.931 . S
H4353 C4341 0.930 . S
H4354 C4342 0.956 . S
H4355 C4342 0.961 . S
H4356 C4342 0.961 . S
H4357 C4343 0.958 . S
H4358 C4343 0.961 . S
H4359 C4343 0.960 . S
C4360 C4361 1.391 . S
C4360 C4362 1.394 . S
C4360 H4376 0.931 . S
C4361 C4360 1.391 . S
C4361 C4365 1.376 . S
C4362 C4360 1.394 . S
C4362 C4363 1.369 . S
C4362 C4366 1.531 . S
C4363 C4362 1.369 . S
C4363 C4364 1.410 . S
C4363 C4371 1.503 . S
C4364 C4363 1.410 . S
C4364 C4365 1.392 . S
C4364 C4367 1.511 . S
C4365 C4361 1.376 . S
C4365 C4364 1.392 . S
C4365 H4377 0.929 . S
C4366 C4362 1.531 . S
C4366 H4378 0.960 . S
C4366 H4379 0.962 . S
C4366 H4380 0.960 . S
C4367 C4364 1.511 . S
C4367 H4381 0.961 . S
C4367 H4382 0.961 . S
C4367 H4383 0.961 . S
C4368 C4369 1.370 . S
C4368 C4370 1.363 . S
C4368 H4384 0.931 . S
C4369 C4368 1.370 . S
C4369 C4373 1.408 . S
C4370 C4368 1.363 . S
C4370 C4371 1.370 . S
C4370 C4374 1.524 . S
C4371 C4363 1.503 . S
C4371 C4370 1.370 . S
C4371 C4372 1.403 . S
C4372 C4371 1.403 . S
C4372 C4373 1.404 . S
C4372 C4375 1.539 . S
C4373 C4369 1.408 . S
C4373 C4372 1.404 . S
C4373 H4385 0.930 . S
C4374 C4370 1.524 . S
C4374 H4386 0.956 . S
C4374 H4387 0.961 . S
C4374 H4388 0.961 . S
C4375 C4372 1.539 . S
C4375 H4389 0.958 . S
C4375 H4390 0.961 . S
C4375 H4391 0.960 . S
H4376 C4360 0.931 . S
H4377 C4365 0.929 . S
H4378 C4366 0.960 . S
H4379 C4366 0.962 . S
H4380 C4366 0.960 . S
H4381 C4367 0.961 . S
H4382 C4367 0.961 . S
H4383 C4367 0.961 . S
H4384 C4368 0.931 . S
H4385 C4373 0.930 . S
H4386 C4374 0.956 . S
H4387 C4374 0.961 . S
H4388 C4374 0.961 . S
H4389 C4375 0.958 . S
H4390 C4375 0.961 . S
H4391 C4375 0.960 . S
C4392 C4393 1.391 . S
C4392 C4394 1.394 . S
C4392 H4408 0.931 . S
C4393 C4392 1.391 . S
C4393 C4397 1.376 . S
C4394 C4392 1.394 . S
C4394 C4395 1.369 . S
C4394 C4398 1.531 . S
C4395 C4394 1.369 . S
C4395 C4396 1.410 . S
C4395 C4403 1.503 . S
C4396 C4395 1.410 . S
C4396 C4397 1.392 . S
C4396 C4399 1.511 . S
C4397 C4393 1.376 . S
C4397 C4396 1.392 . S
C4397 H4409 0.929 . S
C4398 C4394 1.531 . S
C4398 H4410 0.960 . S
C4398 H4411 0.962 . S
C4398 H4412 0.960 . S
C4399 C4396 1.511 . S
C4399 H4413 0.961 . S
C4399 H4414 0.961 . S
C4399 H4415 0.961 . S
C4400 C4401 1.370 . S
C4400 C4402 1.363 . S
C4400 H4416 0.931 . S
C4401 C4400 1.370 . S
C4401 C4405 1.408 . S
C4402 C4400 1.363 . S
C4402 C4403 1.370 . S
C4402 C4406 1.524 . S
C4403 C4395 1.503 . S
C4403 C4402 1.370 . S
C4403 C4404 1.403 . S
C4404 C4403 1.403 . S
C4404 C4405 1.404 . S
C4404 C4407 1.539 . S
C4405 C4401 1.408 . S
C4405 C4404 1.404 . S
C4405 H4417 0.930 . S
C4406 C4402 1.524 . S
C4406 H4418 0.956 . S
C4406 H4419 0.961 . S
C4406 H4420 0.961 . S
C4407 C4404 1.539 . S
C4407 H4421 0.958 . S
C4407 H4422 0.961 . S
C4407 H4423 0.960 . S
H4408 C4392 0.931 . S
H4409 C4397 0.929 . S
H4410 C4398 0.960 . S
H4411 C4398 0.962 . S
H4412 C4398 0.960 . S
H4413 C4399 0.961 . S
H4414 C4399 0.961 . S
H4415 C4399 0.961 . S
H4416 C4400 0.931 . S
H4417 C4405 0.930 . S
H4418 C4406 0.956 . S
H4419 C4406 0.961 . S
H4420 C4406 0.961 . S
H4421 C4407 0.958 . S
H4422 C4407 0.961 . S
H4423 C4407 0.960 . S
C4424 C4425 1.391 . S
C4424 C4426 1.394 . S
C4424 H4440 0.931 . S
C4425 C4424 1.391 . S
C4425 C4429 1.376 . S
C4426 C4424 1.394 . S
C4426 C4427 1.369 . S
C4426 C4430 1.531 . S
C4427 C4426 1.369 . S
C4427 C4428 1.410 . S
C4427 C4435 1.503 . S
C4428 C4427 1.410 . S
C4428 C4429 1.392 . S
C4428 C4431 1.511 . S
C4429 C4425 1.376 . S
C4429 C4428 1.392 . S
C4429 H4441 0.929 . S
C4430 C4426 1.531 . S
C4430 H4442 0.960 . S
C4430 H4443 0.962 . S
C4430 H4444 0.960 . S
C4431 C4428 1.511 . S
C4431 H4445 0.961 . S
C4431 H4446 0.961 . S
C4431 H4447 0.961 . S
C4432 C4433 1.370 . S
C4432 C4434 1.363 . S
C4432 H4448 0.931 . S
C4433 C4432 1.370 . S
C4433 C4437 1.408 . S
C4434 C4432 1.363 . S
C4434 C4435 1.370 . S
C4434 C4438 1.524 . S
C4435 C4427 1.503 . S
C4435 C4434 1.370 . S
C4435 C4436 1.403 . S
C4436 C4435 1.403 . S
C4436 C4437 1.404 . S
C4436 C4439 1.539 . S
C4437 C4433 1.408 . S
C4437 C4436 1.404 . S
C4437 H4449 0.930 . S
C4438 C4434 1.524 . S
C4438 H4450 0.956 . S
C4438 H4451 0.961 . S
C4438 H4452 0.961 . S
C4439 C4436 1.539 . S
C4439 H4453 0.958 . S
C4439 H4454 0.961 . S
C4439 H4455 0.960 . S
H4440 C4424 0.931 . S
H4441 C4429 0.929 . S
H4442 C4430 0.960 . S
H4443 C4430 0.962 . S
H4444 C4430 0.960 . S
H4445 C4431 0.961 . S
H4446 C4431 0.961 . S
H4447 C4431 0.961 . S
H4448 C4432 0.931 . S
H4449 C4437 0.930 . S
H4450 C4438 0.956 . S
H4451 C4438 0.961 . S
H4452 C4438 0.961 . S
H4453 C4439 0.958 . S
H4454 C4439 0.961 . S
H4455 C4439 0.960 . S
C4456 C4457 1.391 . S
C4456 C4458 1.394 . S
C4456 H4472 0.931 . S
C4457 C4456 1.391 . S
C4457 C4461 1.376 . S
C4458 C4456 1.394 . S
C4458 C4459 1.369 . S
C4458 C4462 1.531 . S
C4459 C4458 1.369 . S
C4459 C4460 1.410 . S
C4459 C4467 1.503 . S
C4460 C4459 1.410 . S
C4460 C4461 1.392 . S
C4460 C4463 1.511 . S
C4461 C4457 1.376 . S
C4461 C4460 1.392 . S
C4461 H4473 0.929 . S
C4462 C4458 1.531 . S
C4462 H4474 0.960 . S
C4462 H4475 0.962 . S
C4462 H4476 0.960 . S
C4463 C4460 1.511 . S
C4463 H4477 0.961 . S
C4463 H4478 0.961 . S
C4463 H4479 0.961 . S
C4464 C4465 1.370 . S
C4464 C4466 1.363 . S
C4464 H4480 0.931 . S
C4465 C4464 1.370 . S
C4465 C4469 1.408 . S
C4466 C4464 1.363 . S
C4466 C4467 1.370 . S
C4466 C4470 1.524 . S
C4467 C4459 1.503 . S
C4467 C4466 1.370 . S
C4467 C4468 1.403 . S
C4468 C4467 1.403 . S
C4468 C4469 1.404 . S
C4468 C4471 1.539 . S
C4469 C4465 1.408 . S
C4469 C4468 1.404 . S
C4469 H4481 0.930 . S
C4470 C4466 1.524 . S
C4470 H4482 0.956 . S
C4470 H4483 0.961 . S
C4470 H4484 0.961 . S
C4471 C4468 1.539 . S
C4471 H4485 0.958 . S
C4471 H4486 0.961 . S
C4471 H4487 0.960 . S
H4472 C4456 0.931 . S
H4473 C4461 0.929 . S
H4474 C4462 0.960 . S
H4475 C4462 0.962 . S
H4476 C4462 0.960 . S
H4477 C4463 0.961 . S
H4478 C4463 0.961 . S
H4479 C4463 0.961 . S
H4480 C4464 0.931 . S
H4481 C4469 0.930 . S
H4482 C4470 0.956 . S
H4483 C4470 0.961 . S
H4484 C4470 0.961 . S
H4485 C4471 0.958 . S
H4486 C4471 0.961 . S
H4487 C4471 0.960 . S
C4488 C4489 1.391 . S
C4488 C4490 1.394 . S
C4488 H4504 0.931 . S
C4489 C4488 1.391 . S
C4489 C4493 1.376 . S
C4490 C4488 1.394 . S
C4490 C4491 1.369 . S
C4490 C4494 1.531 . S
C4491 C4490 1.369 . S
C4491 C4492 1.410 . S
C4491 C4499 1.503 . S
C4492 C4491 1.410 . S
C4492 C4493 1.392 . S
C4492 C4495 1.511 . S
C4493 C4489 1.376 . S
C4493 C4492 1.392 . S
C4493 H4505 0.929 . S
C4494 C4490 1.531 . S
C4494 H4506 0.960 . S
C4494 H4507 0.962 . S
C4494 H4508 0.960 . S
C4495 C4492 1.511 . S
C4495 H4509 0.961 . S
C4495 H4510 0.961 . S
C4495 H4511 0.961 . S
C4496 C4497 1.370 . S
C4496 C4498 1.363 . S
C4496 H4512 0.931 . S
C4497 C4496 1.370 . S
C4497 C4501 1.408 . S
C4498 C4496 1.363 . S
C4498 C4499 1.370 . S
C4498 C4502 1.524 . S
C4499 C4491 1.503 . S
C4499 C4498 1.370 . S
C4499 C4500 1.403 . S
C4500 C4499 1.403 . S
C4500 C4501 1.404 . S
C4500 C4503 1.539 . S
C4501 C4497 1.408 . S
C4501 C4500 1.404 . S
C4501 H4513 0.930 . S
C4502 C4498 1.524 . S
C4502 H4514 0.956 . S
C4502 H4515 0.961 . S
C4502 H4516 0.961 . S
C4503 C4500 1.539 . S
C4503 H4517 0.958 . S
C4503 H4518 0.961 . S
C4503 H4519 0.960 . S
H4504 C4488 0.931 . S
H4505 C4493 0.929 . S
H4506 C4494 0.960 . S
H4507 C4494 0.962 . S
H4508 C4494 0.960 . S
H4509 C4495 0.961 . S
H4510 C4495 0.961 . S
H4511 C4495 0.961 . S
H4512 C4496 0.931 . S
H4513 C4501 0.930 . S
H4514 C4502 0.956 . S
H4515 C4502 0.961 . S
H4516 C4502 0.961 . S
H4517 C4503 0.958 . S
H4518 C4503 0.961 . S
H4519 C4503 0.960 . S
C4520 C4521 1.391 . S
C4520 C4522 1.394 . S
C4520 H4536 0.931 . S
C4521 C4520 1.391 . S
C4521 C4525 1.376 . S
C4522 C4520 1.394 . S
C4522 C4523 1.369 . S
C4522 C4526 1.531 . S
C4523 C4522 1.369 . S
C4523 C4524 1.410 . S
C4523 C4531 1.503 . S
C4524 C4523 1.410 . S
C4524 C4525 1.392 . S
C4524 C4527 1.511 . S
C4525 C4521 1.376 . S
C4525 C4524 1.392 . S
C4525 H4537 0.929 . S
C4526 C4522 1.531 . S
C4526 H4538 0.960 . S
C4526 H4539 0.962 . S
C4526 H4540 0.960 . S
C4527 C4524 1.511 . S
C4527 H4541 0.961 . S
C4527 H4542 0.961 . S
C4527 H4543 0.961 . S
C4528 C4529 1.370 . S
C4528 C4530 1.363 . S
C4528 H4544 0.931 . S
C4529 C4528 1.370 . S
C4529 C4533 1.408 . S
C4530 C4528 1.363 . S
C4530 C4531 1.370 . S
C4530 C4534 1.524 . S
C4531 C4523 1.503 . S
C4531 C4530 1.370 . S
C4531 C4532 1.403 . S
C4532 C4531 1.403 . S
C4532 C4533 1.404 . S
C4532 C4535 1.539 . S
C4533 C4529 1.408 . S
C4533 C4532 1.404 . S
C4533 H4545 0.930 . S
C4534 C4530 1.524 . S
C4534 H4546 0.956 . S
C4534 H4547 0.961 . S
C4534 H4548 0.961 . S
C4535 C4532 1.539 . S
C4535 H4549 0.958 . S
C4535 H4550 0.961 . S
C4535 H4551 0.960 . S
H4536 C4520 0.931 . S
H4537 C4525 0.929 . S
H4538 C4526 0.960 . S
H4539 C4526 0.962 . S
H4540 C4526 0.960 . S
H4541 C4527 0.961 . S
H4542 C4527 0.961 . S
H4543 C4527 0.961 . S
H4544 C4528 0.931 . S
H4545 C4533 0.930 . S
H4546 C4534 0.956 . S
H4547 C4534 0.961 . S
H4548 C4534 0.961 . S
H4549 C4535 0.958 . S
H4550 C4535 0.961 . S
H4551 C4535 0.960 . S
C4552 C4553 1.391 . S
C4552 C4554 1.394 . S
C4552 H4568 0.931 . S
C4553 C4552 1.391 . S
C4553 C4557 1.376 . S
C4554 C4552 1.394 . S
C4554 C4555 1.369 . S
C4554 C4558 1.531 . S
C4555 C4554 1.369 . S
C4555 C4556 1.410 . S
C4555 C4563 1.503 . S
C4556 C4555 1.410 . S
C4556 C4557 1.392 . S
C4556 C4559 1.511 . S
C4557 C4553 1.376 . S
C4557 C4556 1.392 . S
C4557 H4569 0.929 . S
C4558 C4554 1.531 . S
C4558 H4570 0.960 . S
C4558 H4571 0.962 . S
C4558 H4572 0.960 . S
C4559 C4556 1.511 . S
C4559 H4573 0.961 . S
C4559 H4574 0.961 . S
C4559 H4575 0.961 . S
C4560 C4561 1.370 . S
C4560 C4562 1.363 . S
C4560 H4576 0.931 . S
C4561 C4560 1.370 . S
C4561 C4565 1.408 . S
C4562 C4560 1.363 . S
C4562 C4563 1.370 . S
C4562 C4566 1.524 . S
C4563 C4555 1.503 . S
C4563 C4562 1.370 . S
C4563 C4564 1.403 . S
C4564 C4563 1.403 . S
C4564 C4565 1.404 . S
C4564 C4567 1.539 . S
C4565 C4561 1.408 . S
C4565 C4564 1.404 . S
C4565 H4577 0.930 . S
C4566 C4562 1.524 . S
C4566 H4578 0.956 . S
C4566 H4579 0.961 . S
C4566 H4580 0.961 . S
C4567 C4564 1.539 . S
C4567 H4581 0.958 . S
C4567 H4582 0.961 . S
C4567 H4583 0.960 . S
H4568 C4552 0.931 . S
H4569 C4557 0.929 . S
H4570 C4558 0.960 . S
H4571 C4558 0.962 . S
H4572 C4558 0.960 . S
H4573 C4559 0.961 . S
H4574 C4559 0.961 . S
H4575 C4559 0.961 . S
H4576 C4560 0.931 . S
H4577 C4565 0.930 . S
H4578 C4566 0.956 . S
H4579 C4566 0.961 . S
H4580 C4566 0.961 . S
H4581 C4567 0.958 . S
H4582 C4567 0.961 . S
H4583 C4567 0.960 . S
C4584 C4585 1.391 . S
C4584 C4586 1.394 . S
C4584 H4600 0.931 . S
C4585 C4584 1.391 . S
C4585 C4589 1.376 . S
C4586 C4584 1.394 . S
C4586 C4587 1.369 . S
C4586 C4590 1.531 . S
C4587 C4586 1.369 . S
C4587 C4588 1.410 . S
C4587 C4595 1.503 . S
C4588 C4587 1.410 . S
C4588 C4589 1.392 . S
C4588 C4591 1.511 . S
C4589 C4585 1.376 . S
C4589 C4588 1.392 . S
C4589 H4601 0.929 . S
C4590 C4586 1.531 . S
C4590 H4602 0.960 . S
C4590 H4603 0.962 . S
C4590 H4604 0.960 . S
C4591 C4588 1.511 . S
C4591 H4605 0.961 . S
C4591 H4606 0.961 . S
C4591 H4607 0.961 . S
C4592 C4593 1.370 . S
C4592 C4594 1.363 . S
C4592 H4608 0.931 . S
C4593 C4592 1.370 . S
C4593 C4597 1.408 . S
C4594 C4592 1.363 . S
C4594 C4595 1.370 . S
C4594 C4598 1.524 . S
C4595 C4587 1.503 . S
C4595 C4594 1.370 . S
C4595 C4596 1.403 . S
C4596 C4595 1.403 . S
C4596 C4597 1.404 . S
C4596 C4599 1.539 . S
C4597 C4593 1.408 . S
C4597 C4596 1.404 . S
C4597 H4609 0.930 . S
C4598 C4594 1.524 . S
C4598 H4610 0.956 . S
C4598 H4611 0.961 . S
C4598 H4612 0.961 . S
C4599 C4596 1.539 . S
C4599 H4613 0.958 . S
C4599 H4614 0.961 . S
C4599 H4615 0.960 . S
H4600 C4584 0.931 . S
H4601 C4589 0.929 . S
H4602 C4590 0.960 . S
H4603 C4590 0.962 . S
H4604 C4590 0.960 . S
H4605 C4591 0.961 . S
H4606 C4591 0.961 . S
H4607 C4591 0.961 . S
H4608 C4592 0.931 . S
H4609 C4597 0.930 . S
H4610 C4598 0.956 . S
H4611 C4598 0.961 . S
H4612 C4598 0.961 . S
H4613 C4599 0.958 . S
H4614 C4599 0.961 . S
H4615 C4599 0.960 . S
C4616 C4617 1.391 . S
C4616 C4618 1.394 . S
C4616 H4632 0.931 . S
C4617 C4616 1.391 . S
C4617 C4621 1.376 . S
C4618 C4616 1.394 . S
C4618 C4619 1.369 . S
C4618 C4622 1.531 . S
C4619 C4618 1.369 . S
C4619 C4620 1.410 . S
C4619 C4627 1.503 . S
C4620 C4619 1.410 . S
C4620 C4621 1.392 . S
C4620 C4623 1.511 . S
C4621 C4617 1.376 . S
C4621 C4620 1.392 . S
C4621 H4633 0.929 . S
C4622 C4618 1.531 . S
C4622 H4634 0.960 . S
C4622 H4635 0.962 . S
C4622 H4636 0.960 . S
C4623 C4620 1.511 . S
C4623 H4637 0.961 . S
C4623 H4638 0.961 . S
C4623 H4639 0.961 . S
C4624 C4625 1.370 . S
C4624 C4626 1.363 . S
C4624 H4640 0.931 . S
C4625 C4624 1.370 . S
C4625 C4629 1.408 . S
C4626 C4624 1.363 . S
C4626 C4627 1.370 . S
C4626 C4630 1.524 . S
C4627 C4619 1.503 . S
C4627 C4626 1.370 . S
C4627 C4628 1.403 . S
C4628 C4627 1.403 . S
C4628 C4629 1.404 . S
C4628 C4631 1.539 . S
C4629 C4625 1.408 . S
C4629 C4628 1.404 . S
C4629 H4641 0.930 . S
C4630 C4626 1.524 . S
C4630 H4642 0.956 . S
C4630 H4643 0.961 . S
C4630 H4644 0.961 . S
C4631 C4628 1.539 . S
C4631 H4645 0.958 . S
C4631 H4646 0.961 . S
C4631 H4647 0.960 . S
H4632 C4616 0.931 . S
H4633 C4621 0.929 . S
H4634 C4622 0.960 . S
H4635 C4622 0.962 . S
H4636 C4622 0.960 . S
H4637 C4623 0.961 . S
H4638 C4623 0.961 . S
H4639 C4623 0.961 . S
H4640 C4624 0.931 . S
H4641 C4629 0.930 . S
H4642 C4630 0.956 . S
H4643 C4630 0.961 . S
H4644 C4630 0.961 . S
H4645 C4631 0.958 . S
H4646 C4631 0.961 . S
H4647 C4631 0.960 . S
C4648 C4649 1.391 . S
C4648 C4650 1.394 . S
C4648 H4664 0.931 . S
C4649 C4648 1.391 . S
C4649 C4653 1.376 . S
C4650 C4648 1.394 . S
C4650 C4651 1.369 . S
C4650 C4654 1.531 . S
C4651 C4650 1.369 . S
C4651 C4652 1.410 . S
C4651 C4659 1.503 . S
C4652 C4651 1.410 . S
C4652 C4653 1.392 . S
C4652 C4655 1.511 . S
C4653 C4649 1.376 . S
C4653 C4652 1.392 . S
C4653 H4665 0.929 . S
C4654 C4650 1.531 . S
C4654 H4666 0.960 . S
C4654 H4667 0.962 . S
C4654 H4668 0.960 . S
C4655 C4652 1.511 . S
C4655 H4669 0.961 . S
C4655 H4670 0.961 . S
C4655 H4671 0.961 . S
C4656 C4657 1.370 . S
C4656 C4658 1.363 . S
C4656 H4672 0.931 . S
C4657 C4656 1.370 . S
C4657 C4661 1.408 . S
C4658 C4656 1.363 . S
C4658 C4659 1.370 . S
C4658 C4662 1.524 . S
C4659 C4651 1.503 . S
C4659 C4658 1.370 . S
C4659 C4660 1.403 . S
C4660 C4659 1.403 . S
C4660 C4661 1.404 . S
C4660 C4663 1.539 . S
C4661 C4657 1.408 . S
C4661 C4660 1.404 . S
C4661 H4673 0.930 . S
C4662 C4658 1.524 . S
C4662 H4674 0.956 . S
C4662 H4675 0.961 . S
C4662 H4676 0.961 . S
C4663 C4660 1.539 . S
C4663 H4677 0.958 . S
C4663 H4678 0.961 . S
C4663 H4679 0.960 . S
H4664 C4648 0.931 . S
H4665 C4653 0.929 . S
H4666 C4654 0.960 . S
H4667 C4654 0.962 . S
H4668 C4654 0.960 . S
H4669 C4655 0.961 . S
H4670 C4655 0.961 . S
H4671 C4655 0.961 . S
H4672 C4656 0.931 . S
H4673 C4661 0.930 . S
H4674 C4662 0.956 . S
H4675 C4662 0.961 . S
H4676 C4662 0.961 . S
H4677 C4663 0.958 . S
H4678 C4663 0.961 . S
H4679 C4663 0.960 . S
C4680 C4681 1.391 . S
C4680 C4682 1.394 . S
C4680 H4696 0.931 . S
C4681 C4680 1.391 . S
C4681 C4685 1.376 . S
C4682 C4680 1.394 . S
C4682 C4683 1.369 . S
C4682 C4686 1.531 . S
C4683 C4682 1.369 . S
C4683 C4684 1.410 . S
C4683 C4691 1.503 . S
C4684 C4683 1.410 . S
C4684 C4685 1.392 . S
C4684 C4687 1.511 . S
C4685 C4681 1.376 . S
C4685 C4684 1.392 . S
C4685 H4697 0.929 . S
C4686 C4682 1.531 . S
C4686 H4698 0.960 . S
C4686 H4699 0.962 . S
C4686 H4700 0.960 . S
C4687 C4684 1.511 . S
C4687 H4701 0.961 . S
C4687 H4702 0.961 . S
C4687 H4703 0.961 . S
C4688 C4689 1.370 . S
C4688 C4690 1.363 . S
C4688 H4704 0.931 . S
C4689 C4688 1.370 . S
C4689 C4693 1.408 . S
C4690 C4688 1.363 . S
C4690 C4691 1.370 . S
C4690 C4694 1.524 . S
C4691 C4683 1.503 . S
C4691 C4690 1.370 . S
C4691 C4692 1.403 . S
C4692 C4691 1.403 . S
C4692 C4693 1.404 . S
C4692 C4695 1.539 . S
C4693 C4689 1.408 . S
C4693 C4692 1.404 . S
C4693 H4705 0.930 . S
C4694 C4690 1.524 . S
C4694 H4706 0.956 . S
C4694 H4707 0.961 . S
C4694 H4708 0.961 . S
C4695 C4692 1.539 . S
C4695 H4709 0.958 . S
C4695 H4710 0.961 . S
C4695 H4711 0.960 . S
H4696 C4680 0.931 . S
H4697 C4685 0.929 . S
H4698 C4686 0.960 . S
H4699 C4686 0.962 . S
H4700 C4686 0.960 . S
H4701 C4687 0.961 . S
H4702 C4687 0.961 . S
H4703 C4687 0.961 . S
H4704 C4688 0.931 . S
H4705 C4693 0.930 . S
H4706 C4694 0.956 . S
H4707 C4694 0.961 . S
H4708 C4694 0.961 . S
H4709 C4695 0.958 . S
H4710 C4695 0.961 . S
H4711 C4695 0.960 . S
C4712 C4713 1.391 . S
C4712 C4714 1.394 . S
C4712 H4728 0.931 . S
C4713 C4712 1.391 . S
C4713 C4717 1.376 . S
C4714 C4712 1.394 . S
C4714 C4715 1.369 . S
C4714 C4718 1.531 . S
C4715 C4714 1.369 . S
C4715 C4716 1.410 . S
C4715 C4723 1.503 . S
C4716 C4715 1.410 . S
C4716 C4717 1.392 . S
C4716 C4719 1.511 . S
C4717 C4713 1.376 . S
C4717 C4716 1.392 . S
C4717 H4729 0.929 . S
C4718 C4714 1.531 . S
C4718 H4730 0.960 . S
C4718 H4731 0.962 . S
C4718 H4732 0.960 . S
C4719 C4716 1.511 . S
C4719 H4733 0.961 . S
C4719 H4734 0.961 . S
C4719 H4735 0.961 . S
C4720 C4721 1.370 . S
C4720 C4722 1.363 . S
C4720 H4736 0.931 . S
C4721 C4720 1.370 . S
C4721 C4725 1.408 . S
C4722 C4720 1.363 . S
C4722 C4723 1.370 . S
C4722 C4726 1.524 . S
C4723 C4715 1.503 . S
C4723 C4722 1.370 . S
C4723 C4724 1.403 . S
C4724 C4723 1.403 . S
C4724 C4725 1.404 . S
C4724 C4727 1.539 . S
C4725 C4721 1.408 . S
C4725 C4724 1.404 . S
C4725 H4737 0.930 . S
C4726 C4722 1.524 . S
C4726 H4738 0.956 . S
C4726 H4739 0.961 . S
C4726 H4740 0.961 . S
C4727 C4724 1.539 . S
C4727 H4741 0.958 . S
C4727 H4742 0.961 . S
C4727 H4743 0.960 . S
H4728 C4712 0.931 . S
H4729 C4717 0.929 . S
H4730 C4718 0.960 . S
H4731 C4718 0.962 . S
H4732 C4718 0.960 . S
H4733 C4719 0.961 . S
H4734 C4719 0.961 . S
H4735 C4719 0.961 . S
H4736 C4720 0.931 . S
H4737 C4725 0.930 . S
H4738 C4726 0.956 . S
H4739 C4726 0.961 . S
H4740 C4726 0.961 . S
H4741 C4727 0.958 . S
H4742 C4727 0.961 . S
H4743 C4727 0.960 . S
C4744 C4745 1.391 . S
C4744 C4746 1.394 . S
C4744 H4760 0.931 . S
C4745 C4744 1.391 . S
C4745 C4749 1.376 . S
C4746 C4744 1.394 . S
C4746 C4747 1.369 . S
C4746 C4750 1.531 . S
C4747 C4746 1.369 . S
C4747 C4748 1.410 . S
C4747 C4755 1.503 . S
C4748 C4747 1.410 . S
C4748 C4749 1.392 . S
C4748 C4751 1.511 . S
C4749 C4745 1.376 . S
C4749 C4748 1.392 . S
C4749 H4761 0.929 . S
C4750 C4746 1.531 . S
C4750 H4762 0.960 . S
C4750 H4763 0.962 . S
C4750 H4764 0.960 . S
C4751 C4748 1.511 . S
C4751 H4765 0.961 . S
C4751 H4766 0.961 . S
C4751 H4767 0.961 . S
C4752 C4753 1.370 . S
C4752 C4754 1.363 . S
C4752 H4768 0.931 . S
C4753 C4752 1.370 . S
C4753 C4757 1.408 . S
C4754 C4752 1.363 . S
C4754 C4755 1.370 . S
C4754 C4758 1.524 . S
C4755 C4747 1.503 . S
C4755 C4754 1.370 . S
C4755 C4756 1.403 . S
C4756 C4755 1.403 . S
C4756 C4757 1.404 . S
C4756 C4759 1.539 . S
C4757 C4753 1.408 . S
C4757 C4756 1.404 . S
C4757 H4769 0.930 . S
C4758 C4754 1.524 . S
C4758 H4770 0.956 . S
C4758 H4771 0.961 . S
C4758 H4772 0.961 . S
C4759 C4756 1.539 . S
C4759 H4773 0.958 . S
C4759 H4774 0.961 . S
C4759 H4775 0.960 . S
H4760 C4744 0.931 . S
H4761 C4749 0.929 . S
H4762 C4750 0.960 . S
H4763 C4750 0.962 . S
H4764 C4750 0.960 . S
H4765 C4751 0.961 . S
H4766 C4751 0.961 . S
H4767 C4751 0.961 . S
H4768 C4752 0.931 . S
H4769 C4757 0.930 . S
H4770 C4758 0.956 . S
H4771 C4758 0.961 . S
H4772 C4758 0.961 . S
H4773 C4759 0.958 . S
H4774 C4759 0.961 . S
H4775 C4759 0.960 . S
C1713 N1164 1.469 . S
C1705 C31 1.477 . S
C1745 C1191 1.575 . S
C1737 C61 1.571 . S
C1769 C73 1.513 . S
C1777 C1205 1.504 . S
C1809 N1223 1.441 . S
C1801 C133 1.470 . S
C1833 C175 1.555 . S
C1841 C1228 1.569 . S
C1865 C211 1.489 . S
C1873 C1168 1.497 . S
C1897 C241 1.412 . S
C1905 N1187 1.398 . S
C1937 N1200 1.447 . S
C1929 C253 1.485 . S
C1969 N1246 1.420 . S
C1961 C1 1.426 . S
C1993 C37 1.524 . S
C2001 N1269 1.500 . S
C2025 C103 1.548 . S
C2033 N1292 1.535 . S
C2065 N1325 1.424 . S
C2057 C139 1.467 . S
C2089 C145 1.520 . S
C2097 C1352 1.533 . S
C2129 C1375 1.559 . S
C2121 C205 1.553 . S
C2153 C247 1.510 . S
C2161 C1398 1.502 . S
C2193 C1412 1.439 . S
C2185 C283 1.436 . S
C2217 C25 1.429 . S
C2225 C1329 1.431 . S
C2249 C169 1.478 . S
C2257 N1371 1.432 . S
C2289 N1394 1.435 . S
C2281 C181 1.468 . S
C2313 C217 1.474 . S
C2321 N1407 1.434 . S
C2353 N1348 1.415 . S
C2345 C277 1.444 . S
C2385 C1274 1.656 . S
C2377 C97 1.658 . S
C2409 C109 1.521 . S
C2417 C1297 1.512 . S
C2449 C1251 1.582 . S
C2441 C67 1.571 . S
C2481 C1444 1.458 . S
C2473 C319 1.436 . S
C2505 C349 1.587 . S
C2513 C1458 1.593 . S
C2537 C361 1.505 . S
C2545 N1486 1.452 . S
C2577 N1499 1.436 . S
C2569 C421 1.451 . S
C2601 C463 1.580 . S
C2609 C1504 1.576 . S
C2633 C499 1.483 . S
C2641 N1440 1.435 . S
C2665 C529 1.520 . S
C2673 N1453 1.488 . S
C2697 C541 1.450 . S
C2705 C1490 1.443 . S
C2737 N1338 1.416 . S
C2729 C289 1.441 . S
C2761 C325 1.504 . S
C2769 N1522 1.455 . S
C2801 N1384 1.439 . S
C2793 C391 1.468 . S
C2825 C427 1.504 . S
C2833 C1559 1.525 . S
C2857 C433 1.571 . S
C2865 C1260 1.563 . S
C2897 C1573 1.594 . S
C2889 C493 1.592 . S
C2921 C535 1.541 . S
C2929 C1306 1.554 . S
C2961 N1591 1.411 . S
C2953 C571 1.439 . S
C2985 C313 1.440 . S
C2993 N1555 1.436 . S
C3025 N1568 1.465 . S
C3017 C457 1.494 . S
C3049 C469 1.474 . S
C3057 N1302 1.420 . S
C3089 C1596 1.444 . S
C3081 C505 1.426 . S
C3113 C565 1.436 . S
C3121 N1256 1.400 . S
C3145 C385 1.556 . S
C3153 C1527 1.558 . S
C3177 C397 1.552 . S
C3185 C1389 1.563 . S
C3209 C355 1.590 . S
C3217 C1343 1.589 . S
C3241 C607 1.519 . S
C3249 C1481 1.524 . S
C3281 C1513 1.535 . S
C3273 C637 1.537 . S
C3305 C649 1.474 . S
C3313 N1430 1.449 . S
C3337 C709 1.450 . S
C3345 N1463 1.416 . S
C3369 C751 1.581 . S
C3377 C1467 1.576 . S
C3401 C787 1.541 . S
C3409 N1476 1.516 . S
C3441 N1509 1.383 . S
C3433 C817 1.382 . S
C3465 C829 1.497 . S
C3473 C1435 1.496 . S
C3505 N1624 1.432 . S
C3497 C577 1.460 . S
C3529 C613 1.453 . S
C3537 N1361 1.418 . S
C3569 N1647 1.383 . S
C3561 C679 1.436 . S
C3593 C715 1.486 . S
C3601 N1417 1.451 . S
C3625 C721 1.534 . S
C3633 C1665 1.544 . S
C3657 C781 1.651 . S
C3665 C1283 1.653 . S
C3697 N1683 1.408 . S
C3689 C823 1.419 . S
C3721 C859 1.487 . S
C3729 C1320 1.494 . S
C3761 C1421 1.489 . S
C3753 C601 1.474 . S
C3793 N1279 1.470 . S
C3785 C745 1.511 . S
C3817 C757 1.568 . S
C3825 C1688 1.573 . S
C3849 C793 1.396 . S
C3857 N1315 1.352 . S
C3889 N1660 1.472 . S
C3881 C853 1.500 . S
C3921 C1366 1.565 . S
C3913 C673 1.557 . S
C3953 C1651 1.562 . S
C3945 C685 1.552 . S
C3985 C1628 1.548 . S
C3977 C643 1.539 . S
C4009 C895 1.391 . S
C4017 N1210 1.382 . S
C4041 C925 1.542 . S
C4049 C1237 1.542 . S
C4081 C1159 1.545 . S
C4073 C937 1.541 . S
C4113 N1177 1.388 . S
C4105 C997 1.412 . S
C4145 C1182 1.581 . S
C4137 C1039 1.562 . S
C4177 C1214 1.502 . S
C4169 C1075 1.489 . S
C4209 N1233 1.483 . S
C4201 C1105 1.528 . S
C4233 C1117 1.500 . S
C4241 N1154 1.478 . S
C4265 C865 1.369 . S
C4273 N1670 1.351 . S
C4305 N1578 1.456 . S
C4297 C901 1.486 . S
C4337 C1697 1.581 . S
C4329 C967 1.569 . S
C4369 C1605 1.395 . S
C4361 C1003 1.378 . S
C4393 C1009 1.558 . S
C4401 C1619 1.574 . S
C4433 C1536 1.585 . S
C4425 C1069 1.587 . S
C4465 C1642 1.643 . S
C4457 C1111 1.644 . S
C4489 C1147 1.486 . S
C4497 N1545 1.452 . S
C4529 N1601 1.346 . S
C4521 C889 1.381 . S
C4561 N1532 1.452 . S
C4553 C1033 1.472 . S
C4593 N1637 1.409 . S
C4585 C1045 1.429 . S
C4617 C1081 1.493 . S
C4625 C1550 1.512 . S
C4649 C1141 1.448 . S
C4657 N1614 1.415 . S
C4681 C961 1.656 . S
C4689 C1582 1.656 . S
C4713 C973 1.441 . S
C4721 N1693 1.404 . S
C4753 C1674 1.531 . S
C4745 C931 1.534 . S
