# Generated by pormake.
# Topology nom, (4,4)-cn, num edge types: 1
# Building blocks:
#     Node 0, Type 0, BuildingBlock: AZAVOO_clean_linker_0, # of connection points: 4
#     Node 1, Type 0, BuildingBlock: AZAVOO_clean_linker_0, # of connection points: 4
#     Node 2, Type 0, BuildingBlock: AZAVOO_clean_linker_0, # of connection points: 4
#     Node 3, Type 0, BuildingBlock: AZAVOO_clean_linker_0, # of connection points: 4
#     Node 4, Type 0, BuildingBlock: AZAVOO_clean_linker_0, # of connection points: 4
#     Node 5, Type 0, BuildingBlock: AZAVOO_clean_linker_0, # of connection points: 4
#     Node 6, Type 1, BuildingBlock: NAHDIM_clean_sbu_0, # of connection points: 4
#     Node 7, Type 1, BuildingBlock: NAHDIM_clean_sbu_0, # of connection points: 4
#     Node 8, Type 1, BuildingBlock: NAHDIM_clean_sbu_0, # of connection points: 4
#     Node 9, Type 1, BuildingBlock: NAHDIM_clean_sbu_0, # of connection points: 4
#     Node 10, Type 1, BuildingBlock: NAHDIM_clean_sbu_0, # of connection points: 4
#     Node 11, Type 1, BuildingBlock: NAHDIM_clean_sbu_0, # of connection points: 4
#     Edge 12, Type (0, 1), BuildingBlock: TEMPAE_clean_linker_10, # of connection points: 2
#     Edge 13, Type (0, 1), BuildingBlock: TEMPAE_clean_linker_10, # of connection points: 2
#     Edge 14, Type (0, 1), BuildingBlock: TEMPAE_clean_linker_10, # of connection points: 2
#     Edge 15, Type (0, 1), BuildingBlock: TEMPAE_clean_linker_10, # of connection points: 2
#     Edge 16, Type (0, 1), BuildingBlock: TEMPAE_clean_linker_10, # of connection points: 2
#     Edge 17, Type (0, 1), BuildingBlock: TEMPAE_clean_linker_10, # of connection points: 2
#     Edge 18, Type (0, 1), BuildingBlock: TEMPAE_clean_linker_10, # of connection points: 2
#     Edge 19, Type (0, 1), BuildingBlock: TEMPAE_clean_linker_10, # of connection points: 2
#     Edge 20, Type (0, 1), BuildingBlock: TEMPAE_clean_linker_10, # of connection points: 2
#     Edge 21, Type (0, 1), BuildingBlock: TEMPAE_clean_linker_10, # of connection points: 2
#     Edge 22, Type (0, 1), BuildingBlock: TEMPAE_clean_linker_10, # of connection points: 2
#     Edge 23, Type (0, 1), BuildingBlock: TEMPAE_clean_linker_10, # of connection points: 2
#     Edge 24, Type (0, 1), BuildingBlock: TEMPAE_clean_linker_10, # of connection points: 2
#     Edge 25, Type (0, 1), BuildingBlock: TEMPAE_clean_linker_10, # of connection points: 2
#     Edge 26, Type (0, 1), BuildingBlock: TEMPAE_clean_linker_10, # of connection points: 2
#     Edge 27, Type (0, 1), BuildingBlock: TEMPAE_clean_linker_10, # of connection points: 2
#     Edge 28, Type (0, 1), BuildingBlock: TEMPAE_clean_linker_10, # of connection points: 2
#     Edge 29, Type (0, 1), BuildingBlock: TEMPAE_clean_linker_10, # of connection points: 2
#     Edge 30, Type (0, 1), BuildingBlock: TEMPAE_clean_linker_10, # of connection points: 2
#     Edge 31, Type (0, 1), BuildingBlock: TEMPAE_clean_linker_10, # of connection points: 2
#     Edge 32, Type (0, 1), BuildingBlock: TEMPAE_clean_linker_10, # of connection points: 2
#     Edge 33, Type (0, 1), BuildingBlock: TEMPAE_clean_linker_10, # of connection points: 2
#     Edge 34, Type (0, 1), BuildingBlock: TEMPAE_clean_linker_10, # of connection points: 2
#     Edge 35, Type (0, 1), BuildingBlock: TEMPAE_clean_linker_10, # of connection points: 2
# Relax obj value: 0.157
# Max RMSD: 0.225
# Mean RMSD: 0.169
data_MOF--net-nom--node1-NAHDIM_clean_sbu_0--node2-AZAVOO_clean_linker_0--edge1-TEMPAE_clean_linker_10
_symmetry_space_group_name_H-M    P1
_symmetry_Int_Tables_number       1
_symmetry_cell_setting            triclinic
loop_
_symmetry_equiv_pos_as_xyz
'x, y, z'
_cell_length_a     47.592911
_cell_length_b     50.613163
_cell_length_c     60.294004
_cell_angle_alpha  90.025952
_cell_angle_beta   90.395235
_cell_angle_gamma 122.32321
loop_
_atom_site_label
_atom_site_type_symbol
_atom_site_fract_x
_atom_site_fract_y
_atom_site_fract_z
_atom_type_partial_charge
H0 H 0.04069 0.46435 0.15927 0.0
H1 H 0.25525 0.63685 0.37242 0.0
H2 H 0.00157 0.43905 0.27724 0.0
H3 H 0.96181 0.41455 0.24654 0.0
H4 H 0.95225 0.49466 0.24336 0.0
H5 H 0.99209 0.51901 0.27415 0.0
H6 H 0.06911 0.47235 0.25444 0.0
H7 H 0.06081 0.46305 0.21438 0.0
H8 H 0.043 0.5381 0.20863 0.0
H9 H 0.05144 0.54713 0.24868 0.0
H10 H 0.13934 0.5156 0.28513 0.0
H11 H 0.19446 0.54909 0.26872 0.0
H12 H 0.17014 0.61822 0.25368 0.0
H13 H 0.11505 0.58418 0.26937 0.0
H14 H 0.11904 0.5044 0.33813 0.0
H15 H 0.17107 0.531 0.3595 0.0
H16 H 0.18845 0.62037 0.33887 0.0
H17 H 0.13613 0.59345 0.31785 0.0
H18 H 0.04665 0.4704 0.35424 0.0
H19 H 0.05899 0.47546 0.39411 0.0
H20 H 0.09201 0.57323 0.39118 0.0
H21 H 0.07911 0.56778 0.35144 0.0
H22 H 0.98379 0.44623 0.33173 0.0
H23 H 0.93123 0.43357 0.34875 0.0
H24 H 0.95683 0.52818 0.33658 0.0
H25 H 0.00938 0.54063 0.32062 0.0
O26 O 0.04536 0.46932 0.17488 0.0
O27 O 0.03705 0.5085 0.17276 0.0
O28 O 0.22435 0.5792 0.37439 0.0
O29 O 0.23462 0.62573 0.36408 0.0
C30 C 0.03109 0.49907 0.29052 0.0
C31 C 0.06141 0.51306 0.2789 0.0
C32 C 0.09178 0.52955 0.29057 0.0
C33 C 0.09193 0.53074 0.31396 0.0
C34 C 0.06156 0.51717 0.32553 0.0
C35 C 0.03118 0.50227 0.31373 0.0
C36 C -0.0004 0.48072 0.27786 0.0
C37 C 0.98978 0.45068 0.27053 0.0
C38 C 0.96746 0.43694 0.25285 0.0
C39 C 0.95449 0.453 0.24237 0.0
C40 C 0.96184 0.48176 0.2512 0.0
C41 C 0.98437 0.4956 0.26885 0.0
C42 C 0.06095 0.51043 0.25437 0.0
C43 C 0.06401 0.48709 0.24441 0.0
C44 C 0.05902 0.48171 0.22156 0.0
C45 C 0.05101 0.49969 0.20831 0.0
C46 C 0.04903 0.52376 0.21834 0.0
C47 C 0.05401 0.52909 0.24117 0.0
C48 C 0.12337 0.54755 0.27835 0.0
C49 C 0.14584 0.53772 0.27784 0.0
C50 C 0.17732 0.55697 0.26863 0.0
C51 C 0.1868 0.58642 0.25997 0.0
C52 C 0.16356 0.59552 0.25983 0.0
C53 C 0.1321 0.57618 0.26887 0.0
C54 C 0.12395 0.54701 0.3264 0.0
C55 C 0.13416 0.52971 0.33825 0.0
C56 C 0.16387 0.54497 0.35042 0.0
C57 C 0.18395 0.57784 0.35087 0.0
C58 C 0.17363 0.59506 0.33886 0.0
C59 C 0.14383 0.57976 0.32678 0.0
C60 C 0.06206 0.51873 0.35005 0.0
C61 C 0.05557 0.49263 0.36239 0.0
C62 C 0.06294 0.49564 0.38506 0.0
C63 C 0.07679 0.52481 0.39569 0.0
C64 C 0.08111 0.55041 0.3835 0.0
C65 C 0.07382 0.54738 0.36083 0.0
C66 C 0.00022 0.49432 0.32506 0.0
C67 C 0.97804 0.46418 0.3331 0.0
C68 C 0.94803 0.45702 0.34267 0.0
C69 C 0.93978 0.47988 0.34413 0.0
C70 C 0.96255 0.51015 0.33624 0.0
C71 C 0.9925 0.51729 0.32692 0.0
C72 C 0.04412 0.49293 0.18424 0.0
C73 C 0.21548 0.59417 0.36384 0.0
H74 H 0.52094 0.08664 0.34333 0.0
H75 H 0.49312 0.19437 0.57149 0.0
H76 H 0.52356 0.02368 0.4508 0.0
H77 H 0.52395 0.99012 0.42233 0.0
H78 H 0.41965 0.92232 0.43421 0.0
H79 H 0.419 0.95798 0.46129 0.0
H80 H 0.53363 0.08567 0.43981 0.0
H81 H 0.53817 0.09293 0.3996 0.0
H82 H 0.43352 0.02231 0.39239 0.0
H83 H 0.42922 0.0156 0.43267 0.0
H84 H 0.5416 0.12615 0.47947 0.0
H85 H 0.55456 0.17543 0.46277 0.0
H86 H 0.45387 0.13018 0.43749 0.0
H87 H 0.44127 0.08083 0.45412 0.0
H88 H 0.53538 0.09922 0.52794 0.0
H89 H 0.5475 0.14186 0.55332 0.0
H90 H 0.45673 0.13501 0.53231 0.0
H91 H 0.44467 0.09207 0.50724 0.0
H92 H 0.51458 0.02734 0.53426 0.0
H93 H 0.52309 0.03269 0.57446 0.0
H94 H 0.44082 0.04575 0.58053 0.0
H95 H 0.43172 0.03913 0.54042 0.0
H96 H 0.4933 0.97571 0.4989 0.0
H97 H 0.46523 0.92122 0.5115 0.0
H98 H 0.37744 0.92283 0.52632 0.0
H99 H 0.40525 0.9767 0.51331 0.0
O100 O 0.51854 0.08351 0.35919 0.0
O101 O 0.4647 0.04688 0.35637 0.0
O102 O 0.53514 0.17989 0.57198 0.0
O103 O 0.48899 0.17763 0.56154 0.0
C104 C 0.47101 0.01691 0.47272 0.0
C105 C 0.47836 0.04569 0.46361 0.0
C106 C 0.48301 0.07002 0.4777 0.0
C107 C 0.48142 0.06602 0.50092 0.0
C108 C 0.47266 0.0368 0.50998 0.0
C109 C 0.46625 0.0119 0.49582 0.0
C110 C 0.47123 0.99347 0.45799 0.0
C111 C 0.5008 0.00149 0.44731 0.0
C112 C 0.50102 0.98193 0.43117 0.0
C113 C 0.4718 0.95324 0.42576 0.0
C114 C 0.44251 0.94445 0.43748 0.0
C115 C 0.44213 0.96459 0.45324 0.0
C116 C 0.48106 0.05025 0.43916 0.0
C117 C 0.51166 0.07199 0.42953 0.0
C118 C 0.51421 0.07598 0.40655 0.0
C119 C 0.4862 0.05821 0.39278 0.0
C120 C 0.45557 0.03639 0.40252 0.0
C121 C 0.45304 0.03248 0.42551 0.0
C122 C 0.49049 0.10005 0.46807 0.0
C123 C 0.52231 0.12699 0.47048 0.0
C124 C 0.5296 0.15508 0.46098 0.0
C125 C 0.50517 0.15669 0.44889 0.0
C126 C 0.47327 0.12959 0.44654 0.0
C127 C 0.46599 0.10149 0.45609 0.0
C128 C 0.48913 0.09255 0.51579 0.0
C129 C 0.51814 0.10696 0.52887 0.0
C130 C 0.52501 0.13132 0.54333 0.0
C131 C 0.50305 0.14184 0.54486 0.0
C132 C 0.47415 0.12749 0.53155 0.0
C133 C 0.46725 0.10303 0.51716 0.0
C134 C 0.47281 0.03325 0.53442 0.0
C135 C 0.49773 0.03033 0.54437 0.0
C136 C 0.50276 0.03372 0.5673 0.0
C137 C 0.48301 0.0402 0.58064 0.0
C138 C 0.45637 0.04063 0.57077 0.0
C139 C 0.45124 0.03703 0.54784 0.0
C140 C 0.45117 0.98 0.50502 0.0
C141 C 0.46808 0.96426 0.50498 0.0
C142 C 0.4521 0.93328 0.51228 0.0
C143 C 0.41903 0.91771 0.51969 0.0
C144 C 0.40271 0.93402 0.52036 0.0
C145 C 0.41863 0.96484 0.5131 0.0
C146 C 0.48902 0.06243 0.36836 0.0
C147 C 0.51015 0.1676 0.56029 0.0
H148 H 0.61917 0.58918 0.77953 0.0
H149 H 0.59007 0.39558 0.56706 0.0
H150 H 0.59103 0.60694 0.66595 0.0
H151 H 0.58286 0.63381 0.69655 0.0
H152 H 0.47885 0.56017 0.69846 0.0
H153 H 0.48722 0.53383 0.66757 0.0
H154 H 0.62031 0.56815 0.68419 0.0
H155 H 0.63017 0.58127 0.72375 0.0
H156 H 0.52458 0.52161 0.7356 0.0
H157 H 0.51518 0.50844 0.69609 0.0
H158 H 0.62628 0.51405 0.65224 0.0
H159 H 0.63409 0.47348 0.66773 0.0
H160 H 0.5339 0.42509 0.69303 0.0
H161 H 0.52604 0.46497 0.67704 0.0
H162 H 0.6168 0.53316 0.60012 0.0
H163 H 0.63273 0.50326 0.57737 0.0
H164 H 0.5509 0.41731 0.60432 0.0
H165 H 0.5349 0.44747 0.62668 0.0
H166 H 0.58 0.57214 0.58675 0.0
H167 H 0.58414 0.56661 0.54684 0.0
H168 H 0.51689 0.46644 0.55265 0.0
H169 H 0.51103 0.47265 0.59203 0.0
H170 H 0.55053 0.60131 0.6224 0.0
H171 H 0.51014 0.61368 0.60884 0.0
H172 H 0.43864 0.51525 0.59766 0.0
H173 H 0.47837 0.5031 0.61212 0.0
O174 O 0.61492 0.58259 0.76416 0.0
O175 O 0.56045 0.55145 0.76935 0.0
O176 O 0.62587 0.45283 0.56242 0.0
O177 O 0.58454 0.40799 0.57607 0.0
C178 C 0.5471 0.54804 0.65177 0.0
C179 C 0.56084 0.53293 0.66301 0.0
C180 C 0.56816 0.51333 0.65124 0.0
C181 C 0.5643 0.51083 0.62795 0.0
C182 C 0.54973 0.52532 0.6168 0.0
C183 C 0.53965 0.54272 0.6289 0.0
C184 C 0.53974 0.56843 0.66471 0.0
C185 C 0.56623 0.59735 0.67239 0.0
C186 C 0.5616 0.61243 0.69002 0.0
C187 C 0.53039 0.59875 0.70018 0.0
C188 C 0.50316 0.57135 0.69092 0.0
C189 C 0.50783 0.5563 0.67324 0.0
C190 C 0.56706 0.53746 0.68731 0.0
C191 C 0.59944 0.55754 0.69544 0.0
C192 C 0.60495 0.56515 0.71801 0.0
C193 C 0.57812 0.55271 0.73281 0.0
C194 C 0.54579 0.53172 0.72465 0.0
C195 C 0.54035 0.52409 0.70211 0.0
C196 C 0.57558 0.49236 0.6635 0.0
C197 C 0.6063 0.49494 0.66146 0.0
C198 C 0.61071 0.47184 0.67034 0.0
C199 C 0.58443 0.44597 0.68133 0.0
C200 C 0.55438 0.44449 0.68432 0.0
C201 C 0.54998 0.46742 0.67544 0.0
C202 C 0.57486 0.4925 0.61516 0.0
C203 C 0.60247 0.50788 0.60116 0.0
C204 C 0.61147 0.49074 0.58817 0.0
C205 C 0.59308 0.45787 0.58903 0.0
C206 C 0.56562 0.44257 0.60327 0.0
C207 C 0.55653 0.45974 0.61616 0.0
C208 C 0.54588 0.5227 0.59232 0.0
C209 C 0.56528 0.54917 0.57919 0.0
C210 C 0.56794 0.54588 0.55644 0.0
C211 C 0.55163 0.51598 0.54656 0.0
C212 C 0.5298 0.48985 0.55953 0.0
C213 C 0.52662 0.49328 0.58215 0.0
C214 C 0.51732 0.55129 0.61839 0.0
C215 C 0.52617 0.5825 0.61694 0.0
C216 C 0.50316 0.58951 0.60904 0.0
C217 C 0.47104 0.5654 0.6024 0.0
C218 C 0.4629 0.53432 0.60305 0.0
C219 C 0.48572 0.52736 0.61108 0.0
C220 C 0.58384 0.56206 0.75655 0.0
C221 C 0.60227 0.43954 0.57502 0.0
H222 H 0.03102 0.42945 0.95945 0.0
H223 H 0.19999 0.50775 0.72435 0.0
H224 H 0.9745 0.43797 0.8481 0.0
H225 H 0.93866 0.42032 0.88062 0.0
H226 H 0.91243 0.32569 0.86837 0.0
H227 H 0.94884 0.34367 0.83574 0.0
H228 H 0.04489 0.46328 0.86566 0.0
H229 H 0.04387 0.45863 0.9061 0.0
H230 H 0.00903 0.36063 0.89944 0.0
H231 H 0.01046 0.36573 0.85902 0.0
H232 H 0.09989 0.49378 0.83091 0.0
H233 H 0.15522 0.51578 0.84727 0.0
H234 H 0.13667 0.4227 0.85398 0.0
H235 H 0.08151 0.40097 0.83702 0.0
H236 H 0.07845 0.49716 0.78589 0.0
H237 H 0.12625 0.52774 0.76169 0.0
H238 H 0.14049 0.45029 0.75857 0.0
H239 H 0.09245 0.41989 0.78275 0.0
H240 H 0.00663 0.46598 0.77267 0.0
H241 H 0.02581 0.49227 0.73688 0.0
H242 H 0.05105 0.42544 0.71722 0.0
H243 H 0.03164 0.39923 0.75295 0.0
H244 H 0.94211 0.42028 0.80479 0.0
H245 H 0.88506 0.38852 0.79048 0.0
H246 H 0.90856 0.32535 0.76003 0.0
H247 H 0.96519 0.35673 0.77498 0.0
O248 O 0.03238 0.43103 0.94346 0.0
O249 O 0.01474 0.38082 0.93914 0.0
O250 O 0.17475 0.5364 0.73804 0.0
O251 O 0.18149 0.4964 0.73436 0.0
C252 C 0.99353 0.40477 0.82506 0.0
C253 C 0.02513 0.41708 0.83506 0.0
C254 C 0.05399 0.43284 0.8221 0.0
C255 C 0.05143 0.43713 0.79926 0.0
C256 C 0.01975 0.42396 0.78909 0.0
C257 C 0.99073 0.40718 0.80193 0.0
C258 C 0.96423 0.39208 0.83965 0.0
C259 C 0.96004 0.41324 0.85192 0.0
C260 C 0.93989 0.40322 0.87057 0.0
C261 C 0.92335 0.3718 0.87709 0.0
C262 C 0.92501 0.35004 0.86359 0.0
C263 C 0.94553 0.36019 0.84494 0.0
C264 C 0.02783 0.41486 0.85947 0.0
C265 C 0.03757 0.44097 0.873 0.0
C266 C 0.03674 0.43818 0.89607 0.0
C267 C 0.02619 0.40921 0.90601 0.0
C268 C 0.01721 0.38326 0.89233 0.0
C269 C 0.0181 0.38611 0.86926 0.0
C270 C 0.08699 0.4459 0.83264 0.0
C271 C 0.10784 0.47821 0.83591 0.0
C272 C 0.13923 0.49064 0.84546 0.0
C273 C 0.1502 0.47091 0.85199 0.0
C274 C 0.12896 0.43844 0.84895 0.0
C275 C 0.09752 0.42603 0.83937 0.0
C276 C 0.08199 0.45632 0.78597 0.0
C277 C 0.09206 0.48693 0.78005 0.0
C278 C 0.11933 0.50431 0.76621 0.0
C279 C 0.13709 0.49139 0.7581 0.0
C280 C 0.12729 0.46089 0.76446 0.0
C281 C 0.09998 0.44352 0.77833 0.0
C282 C 0.01802 0.43088 0.76542 0.0
C283 C 0.01465 0.45605 0.76018 0.0
C284 C 0.026 0.47126 0.73986 0.0
C285 C 0.0405 0.46124 0.72449 0.0
C286 C 0.03991 0.43363 0.72871 0.0
C287 C 0.0287 0.41852 0.74908 0.0
C288 C 0.95759 0.39058 0.7911 0.0
C289 C 0.93493 0.3997 0.79489 0.0
C290 C 0.90248 0.38166 0.78657 0.0
C291 C 0.89226 0.35428 0.77426 0.0
C292 C 0.91554 0.34603 0.76973 0.0
C293 C 0.94793 0.36403 0.77809 0.0
C294 C 0.02412 0.40605 0.93051 0.0
C295 C 0.16557 0.50952 0.74293 0.0
H296 H 0.38867 0.0064 0.85222 0.0
H297 H 0.38831 0.79347 0.02998 0.0
H298 H 0.41369 0.03918 0.96627 0.0
H299 H 0.4367 0.0827 0.94025 0.0
H300 H 0.53578 0.10478 0.95603 0.0
H301 H 0.51239 0.05993 0.98068 0.0
H302 H 0.37613 0.96868 0.94519 0.0
H303 H 0.37117 0.97919 0.90618 0.0
H304 H 0.47824 0.03062 0.90037 0.0
H305 H 0.48278 0.01937 0.93919 0.0
H306 H 0.3659 0.901 0.96855 0.0
H307 H 0.36169 0.85809 0.94648 0.0
H308 H 0.46395 0.91905 0.92654 0.0
H309 H 0.46808 0.96106 0.94867 0.0
H310 H 0.37173 0.91627 0.025 0.0
H311 H 0.35198 0.86349 0.03835 0.0
H312 H 0.43373 0.8661 0.00521 0.0
H313 H 0.45348 0.91898 0.99231 0.0
H314 H 0.41712 0.98841 0.05292 0.0
H315 H 0.43135 0.98224 0.09097 0.0
H316 H 0.49444 0.95219 0.06508 0.0
H317 H 0.4816 0.96012 0.0275 0.0
H318 H 0.44075 0.05373 0.0223 0.0
H319 H 0.47962 0.10106 0.04375 0.0
H320 H 0.55113 0.0733 0.04406 0.0
H321 H 0.51286 0.02691 0.02246 0.0
O322 O 0.39114 0.00201 0.86748 0.0
O323 O 0.44633 0.02895 0.8656 0.0
O324 O 0.35449 0.81446 0.04218 0.0
O325 O 0.39568 0.81439 0.02505 0.0
C326 C 0.4471 0.0141 0.98415 0.0
C327 C 0.43266 0.98853 0.96912 0.0
C328 C 0.42298 0.95842 0.97656 0.0
C329 C 0.42536 0.95326 -0.00065 0.0
C330 C 0.44041 0.97881 0.01431 0.0
C331 C 0.45211 0.00938 0.00659 0.0
C332 C 0.46128 0.04612 0.9752 0.0
C333 C 0.44044 0.05411 0.96468 0.0
C334 C 0.45369 0.07906 0.94982 0.0
C335 C 0.48805 0.09672 0.94565 0.0
C336 C 0.50913 0.09107 0.95844 0.0
C337 C 0.49584 0.06576 0.9729 0.0
C338 C 0.42979 0.9936 0.94509 0.0
C339 C 0.39844 0.98201 0.9354 0.0
C340 C 0.39571 0.98815 0.91315 0.0
C341 C 0.42433 0.00594 0.9002 0.0
C342 C 0.45571 0.01697 0.90989 0.0
C343 C 0.45837 0.01066 0.93208 0.0
C344 C 0.41725 0.93417 0.96011 0.0
C345 C 0.38702 0.90518 0.95891 0.0
C346 C 0.38471 0.88076 0.94641 0.0
C347 C 0.41248 0.88528 0.93476 0.0
C348 C 0.44194 0.91497 0.93495 0.0
C349 C 0.44434 0.93907 0.9476 0.0
C350 C 0.41376 0.92129 0.00746 0.0
C351 C 0.38532 0.90539 0.02067 0.0
C352 C 0.3741 0.87525 0.02825 0.0
C353 C 0.3912 0.86051 0.02276 0.0
C354 C 0.41989 0.87669 0.00967 0.0
C355 C 0.43116 0.90686 0.0022 0.0
C356 C 0.44781 0.97411 0.03745 0.0
C357 C 0.43402 0.98054 0.05557 0.0
C358 C 0.44213 0.97692 0.07725 0.0
C359 C 0.46412 0.96679 0.08111 0.0
C360 C 0.4779 0.96055 0.06281 0.0
C361 C 0.47007 0.96446 0.04126 0.0
C362 C 0.47382 0.0367 0.02108 0.0
C363 C 0.46466 0.05778 0.02729 0.0
C364 C 0.48679 0.08468 0.03949 0.0
C365 C 0.51819 0.0906 0.04578 0.0
C366 C 0.52683 0.069 0.03993 0.0
C367 C 0.50499 0.04248 0.02757 0.0
C368 C 0.42141 0.01303 0.87672 0.0
C369 C 0.37926 0.82842 0.03063 0.0
H370 H 0.52618 0.48997 0.99075 0.0
H371 H 0.70349 0.49969 0.21354 0.0
H372 H 0.52291 0.5502 0.09651 0.0
H373 H 0.50617 0.57014 0.06551 0.0
H374 H 0.60199 0.65686 0.06804 0.0
H375 H 0.61851 0.63671 0.09913 0.0
H376 H 0.54152 0.49988 0.0873 0.0
H377 H 0.52761 0.48667 0.04804 0.0
H378 H 0.61019 0.57835 0.03011 0.0
H379 H 0.62412 0.59104 0.06941 0.0
H380 H 0.57154 0.47749 0.12279 0.0
H381 H 0.58833 0.4431 0.10748 0.0
H382 H 0.67309 0.523 0.07682 0.0
H383 H 0.65564 0.55685 0.09177 0.0
H384 H 0.5748 0.50129 0.1706 0.0
H385 H 0.59661 0.47989 0.19713 0.0
H386 H 0.6951 0.54006 0.17032 0.0
H387 H 0.67297 0.5615 0.14404 0.0
H388 H 0.56045 0.54798 0.18438 0.0
H389 H 0.5745 0.54532 0.22304 0.0
H390 H 0.67881 0.60714 0.20823 0.0
H391 H 0.66447 0.60889 0.16949 0.0
H392 H 0.53319 0.58228 0.14111 0.0
H393 H 0.52426 0.62187 0.15631 0.0
H394 H 0.62934 0.68068 0.17156 0.0
H395 H 0.63825 0.64194 0.15468 0.0
O396 O 0.5325 0.49546 0.00616 0.0
O397 O 0.57489 0.54308 0.99784 0.0
O398 O 0.64298 0.47688 0.2161 0.0
O399 O 0.69407 0.50705 0.20278 0.0
C400 C 0.58473 0.57704 0.1144 0.0
C401 C 0.59082 0.5549 0.10505 0.0
C402 C 0.6035 0.54073 0.11841 0.0
C403 C 0.60959 0.54822 0.14113 0.0
C404 C 0.60414 0.57078 0.15037 0.0
C405 C 0.59182 0.58536 0.13705 0.0
C406 C 0.57197 0.59196 0.09987 0.0
C407 C 0.53988 0.57384 0.09077 0.0
C408 C 0.5305 0.58514 0.073 0.0
C409 C 0.55303 0.6148 0.06417 0.0
C410 C 0.58414 0.63394 0.07456 0.0
C411 C 0.59357 0.62254 0.09232 0.0
C412 C 0.58374 0.54643 0.08117 0.0
C413 C 0.55675 0.51694 0.07484 0.0
C414 C 0.54879 0.50953 0.05242 0.0
C415 C 0.56769 0.53152 0.03593 0.0
C416 C 0.59506 0.56091 0.04237 0.0
C417 C 0.60307 0.56823 0.0648 0.0
C418 C 0.61243 0.51955 0.10835 0.0
C419 C 0.59355 0.48739 0.1126 0.0
C420 C 0.60325 0.46788 0.10392 0.0
C421 C 0.63205 0.48033 0.09093 0.0
C422 C 0.65049 0.51257 0.08643 0.0
C423 C 0.64072 0.53199 0.09505 0.0
C424 C 0.62233 0.5329 0.15544 0.0
C425 C 0.60102 0.50957 0.17036 0.0
C426 C 0.61356 0.49747 0.18552 0.0
C427 C 0.64765 0.50838 0.18591 0.0
C428 C 0.66876 0.53119 0.17049 0.0
C429 C 0.65617 0.54335 0.15538 0.0
C430 C 0.61147 0.57843 0.17422 0.0
C431 C 0.58619 0.56204 0.18974 0.0
C432 C 0.59431 0.56051 0.21181 0.0
C433 C 0.62782 0.57552 0.21852 0.0
C434 C 0.65283 0.59486 0.2034 0.0
C435 C 0.64469 0.59621 0.18136 0.0
C436 C 0.58635 0.60917 0.14681 0.0
C437 C 0.55429 0.60385 0.14757 0.0
C438 C 0.54921 0.62639 0.15655 0.0
C439 C 0.57605 0.65452 0.16535 0.0
C440 C 0.60813 0.65958 0.1647 0.0
C441 C 0.61324 0.63726 0.15532 0.0
C442 C 0.55871 0.52382 0.01215 0.0
C443 C 0.66127 0.49636 0.2025 0.0
C444 C 0.59185 0.37029 0.38752 0.0
O445 O 0.5779 0.38617 0.39183 0.0
O446 O 0.69909 0.44221 0.38415 0.0
Zn447 Zn 0.65179 0.4317 0.38247 0.0
O448 O 0.64032 0.44806 0.40921 0.0
C449 C 0.66408 0.4803 0.35317 0.0
O450 O 0.68598 0.49652 0.36888 0.0
O451 O 0.62233 0.38494 0.38221 0.0
C452 C 0.6214 0.45857 0.40716 0.0
O453 O 0.60969 0.45902 0.38748 0.0
C454 C 0.71374 0.4446 0.36602 0.0
O455 O 0.698 0.44095 0.34718 0.0
O456 O 0.64582 0.45074 0.35501 0.0
C457 C 0.29092 0.68741 0.555 0.0
O458 O 0.29435 0.66856 0.54191 0.0
O459 O 0.28343 0.61977 0.57732 0.0
Zn460 Zn 0.24737 0.6289 0.5732 0.0
O461 O 0.22217 0.61042 0.5446 0.0
C462 C 0.21399 0.59038 0.61104 0.0
O463 O 0.23553 0.58213 0.60778 0.0
O464 O 0.2705 0.67567 0.57095 0.0
C465 C 0.19465 0.58426 0.5436 0.0
O466 O 0.18232 0.56779 0.56176 0.0
C467 C 0.29057 0.60549 0.56334 0.0
O468 O 0.27325 0.59501 0.54482 0.0
O469 O 0.21487 0.61116 0.59866 0.0
C470 C 0.59133 0.25839 0.72778 0.0
O471 O 0.60444 0.24703 0.71477 0.0
O472 O 0.62785 0.2216 0.75762 0.0
Zn473 Zn 0.57964 0.20671 0.75347 0.0
O474 O 0.55882 0.17568 0.72847 0.0
C475 C 0.56779 0.20569 0.79941 0.0
O476 O 0.59398 0.23419 0.79748 0.0
O477 O 0.57803 0.24443 0.74582 0.0
C478 C 0.55589 0.14922 0.72809 0.0
O479 O 0.5666 0.14071 0.74512 0.0
C480 C 0.64646 0.22161 0.74261 0.0
O481 O 0.63368 0.20957 0.72304 0.0
O482 O 0.55603 0.18859 0.78217 0.0
C483 C 0.4667 0.72638 0.89388 0.0
O484 O 0.49223 0.72916 0.90468 0.0
O485 O 0.40661 0.62783 0.87717 0.0
Zn486 Zn 0.45259 0.6648 0.8822 0.0
O487 O 0.46964 0.66042 0.91157 0.0
C488 C 0.47892 0.64153 0.852 0.0
O489 O 0.46178 0.61717 0.86493 0.0
O490 O 0.44783 0.70171 0.88273 0.0
C491 C 0.49956 0.669 0.91567 0.0
O492 O 0.52178 0.68186 0.89988 0.0
C493 C 0.39182 0.60354 0.88917 0.0
O494 O 0.40732 0.60112 0.90641 0.0
O495 O 0.48041 0.66672 0.85673 0.0
C496 C 0.74069 0.36249 0.05252 0.0
O497 O 0.72662 0.33645 0.04088 0.0
O498 O 0.74893 0.30014 0.06557 0.0
Zn499 Zn 0.78696 0.34454 0.0631 0.0
O500 O 0.81691 0.3562 0.08971 0.0
C501 C 0.81927 0.33189 0.02793 0.0
O502 O 0.81362 0.3086 0.04077 0.0
O503 O 0.76758 0.37127 0.063 0.0
C504 C 0.838 0.38486 0.09388 0.0
O505 O 0.84112 0.4061 0.07983 0.0
C506 C 0.727 0.29297 0.08028 0.0
O507 O 0.73104 0.31449 0.09446 0.0
O508 O 0.81078 0.35051 0.03443 0.0
C509 C 0.51608 0.80689 0.21763 0.0
O510 O 0.50494 0.81806 0.2027 0.0
O511 O 0.43253 0.78603 0.24601 0.0
Zn512 Zn 0.47948 0.82329 0.24548 0.0
O513 O 0.48161 0.85204 0.22153 0.0
C514 C 0.47618 0.85941 0.28026 0.0
O515 O 0.45942 0.86377 0.26487 0.0
O516 O 0.50985 0.80799 0.23799 0.0
C517 C 0.49951 0.88171 0.22095 0.0
O518 O 0.51957 0.89733 0.23762 0.0
C519 C 0.4215 0.76291 0.23279 0.0
O520 O 0.44129 0.76285 0.21776 0.0
O521 O 0.4885 0.8431 0.27585 0.0
C522 C 0.228 0.62864 0.23469 0.0
C523 C 0.2215 0.60879 0.25279 0.0
C524 C 0.26058 0.65268 0.22963 0.0
C525 C 0.2873 0.65665 0.24281 0.0
C526 C 0.2811 0.63565 0.26033 0.0
C527 C 0.24826 0.61211 0.26521 0.0
C528 C 0.26624 0.6747 0.21086 0.0
C529 C 0.30903 0.63897 0.27461 0.0
C530 C 0.37598 0.70846 0.22257 0.0
C531 C 0.38688 0.73601 0.23471 0.0
C532 C 0.34348 0.68245 0.22485 0.0
C533 C 0.3214 0.68418 0.23947 0.0
C534 C 0.33208 0.71211 0.25146 0.0
C535 C 0.36473 0.73764 0.24899 0.0
C536 C 0.33297 0.65295 0.21194 0.0
C537 C 0.3091 0.71493 0.26707 0.0
H538 H 0.2075 0.62587 0.22477 0.0
H539 H 0.24353 0.5972 0.27941 0.0
H540 H 0.27554 0.6984 0.21764 0.0
H541 H 0.28549 0.67669 0.19948 0.0
H542 H 0.24315 0.66699 0.20115 0.0
H543 H 0.30041 0.61895 0.28609 0.0
H544 H 0.32905 0.64085 0.2641 0.0
H545 H 0.32004 0.66076 0.28461 0.0
H546 H 0.39298 0.70702 0.21152 0.0
H547 H 0.37291 0.7589 0.25833 0.0
H548 H 0.31048 0.64604 0.20182 0.0
H549 H 0.32632 0.63351 0.22358 0.0
H550 H 0.35284 0.6557 0.20078 0.0
H551 H 0.28623 0.70969 0.2581 0.0
H552 H 0.32095 0.73862 0.27459 0.0
H553 H 0.30137 0.69759 0.2806 0.0
C554 C 0.50289 0.18712 0.41685 0.0
C555 C 0.51324 0.18656 0.4386 0.0
C556 C 0.51207 0.2155 0.40657 0.0
C557 C 0.53214 0.2439 0.41833 0.0
C558 C 0.54188 0.24339 0.44049 0.0
C559 C 0.53224 0.21473 0.45036 0.0
C560 C 0.50113 0.21516 0.38296 0.0
C561 C 0.56322 0.2732 0.45361 0.0
C562 C 0.5902 0.32018 0.38912 0.0
C563 C 0.57408 0.33638 0.39218 0.0
C564 C 0.57596 0.28941 0.39656 0.0
C565 C 0.54477 0.27441 0.40724 0.0
C566 C 0.5274 0.28987 0.40913 0.0
C567 C 0.54229 0.32075 0.40158 0.0
C568 C 0.59522 0.27364 0.39416 0.0
C569 C 0.49392 0.27446 0.4202 0.0
H570 H 0.48842 0.16543 0.40762 0.0
H571 H 0.53978 0.21437 0.46731 0.0
H572 H 0.48936 0.22901 0.38159 0.0
H573 H 0.52312 0.22623 0.37197 0.0
H574 H 0.48327 0.19107 0.3768 0.0
H575 H 0.56755 0.26866 0.47093 0.0
H576 H 0.58768 0.28782 0.44544 0.0
H577 H 0.55132 0.28698 0.45402 0.0
H578 H 0.61464 0.33196 0.38169 0.0
H579 H 0.52956 0.33301 0.40388 0.0
H580 H 0.57925 0.25002 0.38674 0.0
H581 H 0.60327 0.27064 0.41078 0.0
H582 H 0.61763 0.28734 0.3837 0.0
H583 H 0.47708 0.25048 0.41357 0.0
H584 H 0.48188 0.28799 0.4179 0.0
H585 H 0.497 0.27236 0.43825 0.0
C586 C 0.41269 0.55308 0.60323 0.0
C587 C 0.44546 0.57224 0.59574 0.0
C588 C 0.38802 0.55891 0.5972 0.0
C589 C 0.39633 0.58473 0.58348 0.0
C590 C 0.42935 0.60428 0.57589 0.0
C591 C 0.45355 0.59778 0.5821 0.0
C592 C 0.3531 0.53756 0.60568 0.0
C593 C 0.4391 0.63208 0.56129 0.0
C594 C 0.32457 0.58275 0.55378 0.0
C595 C 0.31832 0.60097 0.56797 0.0
C596 C 0.35035 0.57777 0.55836 0.0
C597 C 0.37043 0.59148 0.57753 0.0
C598 C 0.36467 0.6104 0.59167 0.0
C599 C 0.33864 0.61484 0.58676 0.0
C600 C 0.35565 0.55731 0.54297 0.0
C601 C 0.38565 0.62552 0.61222 0.0
H602 H 0.40636 0.53367 0.61413 0.0
H603 H 0.47875 0.61251 0.5761 0.0
H604 H 0.34587 0.55108 0.61604 0.0
H605 H 0.33528 0.52759 0.59156 0.0
H606 H 0.35056 0.51802 0.61574 0.0
H607 H 0.46578 0.64487 0.5567 0.0
H608 H 0.42382 0.62433 0.54589 0.0
H609 H 0.43415 0.64851 0.56995 0.0
H610 H 0.30902 0.572 0.53921 0.0
H611 H 0.33414 0.62912 0.59776 0.0
H612 H 0.35122 0.53633 0.55201 0.0
H613 H 0.38177 0.57007 0.5372 0.0
H614 H 0.33886 0.54951 0.52826 0.0
H615 H 0.38246 0.60721 0.62392 0.0
H616 H 0.379 0.64079 0.62088 0.0
H617 H 0.41236 0.63972 0.60781 0.0
C618 C 0.84076 0.30104 0.77006 0.0
C619 C 0.857 0.3335 0.76727 0.0
C620 C 0.80686 0.28117 0.76497 0.0
C621 C 0.78875 0.2941 0.75697 0.0
C622 C 0.80518 0.32675 0.75354 0.0
C623 C 0.83913 0.34607 0.75875 0.0
C624 C 0.79018 0.24648 0.76888 0.0
C625 C 0.78669 0.34137 0.74495 0.0
C626 C 0.70434 0.2421 0.72933 0.0
C627 C 0.68276 0.238 0.74659 0.0
C628 C 0.73897 0.25988 0.73253 0.0
C629 C 0.75222 0.27379 0.75349 0.0
C630 C 0.73055 0.26902 0.77113 0.0
C631 C 0.69611 0.25119 0.76747 0.0
C632 C 0.76138 0.26438 0.71338 0.0
C633 C 0.74375 0.28336 0.79376 0.0
H634 H 0.85431 0.2912 0.77692 0.0
H635 H 0.85167 0.37109 0.7563 0.0
H636 H 0.77168 0.23917 0.78233 0.0
H637 H 0.77652 0.2332 0.75375 0.0
H638 H 0.80824 0.2399 0.77361 0.0
H639 H 0.80346 0.36688 0.74207 0.0
H640 H 0.77367 0.32998 0.72917 0.0
H641 H 0.76746 0.33768 0.75705 0.0
H642 H 0.69424 0.23199 0.71315 0.0
H643 H 0.67964 0.24806 0.78093 0.0
H644 H 0.77884 0.25716 0.71822 0.0
H645 H 0.7766 0.28951 0.70897 0.0
H646 H 0.74716 0.25083 0.69845 0.0
H647 H 0.76052 0.27616 0.80028 0.0
H648 H 0.72355 0.2765 0.80591 0.0
H649 H 0.75861 0.30923 0.79246 0.0
C650 C 0.42865 0.86226 0.90452 0.0
C651 C 0.41277 0.85867 0.92481 0.0
C652 C 0.43542 0.83995 0.89718 0.0
C653 C 0.42592 0.81343 0.91043 0.0
C654 C 0.40783 0.80863 0.93016 0.0
C655 C 0.4015 0.83137 0.93714 0.0
C656 C 0.45456 0.84577 0.87598 0.0
C657 C 0.39705 0.78048 0.94464 0.0
C658 C 0.42786 0.7447 0.88738 0.0
C659 C 0.45769 0.75 0.89654 0.0
C660 C 0.41744 0.76546 0.8914 0.0
C661 C 0.4374 0.79219 0.90478 0.0
C662 C 0.46802 0.7982 0.91348 0.0
C663 C 0.47777 0.77699 0.90928 0.0
C664 C 0.38464 0.7583 0.88187 0.0
C665 C 0.49011 0.82667 0.92769 0.0
H666 H 0.43708 0.88322 0.89485 0.0
H667 H 0.38958 0.82867 0.95296 0.0
H668 H 0.47992 0.8512 0.87998 0.0
H669 H 0.44235 0.82456 0.86532 0.0
H670 H 0.45686 0.86558 0.86641 0.0
H671 H 0.38032 0.77858 0.95816 0.0
H672 H 0.38404 0.75871 0.93458 0.0
H673 H 0.41927 0.78217 0.95222 0.0
H674 H 0.41216 0.72389 0.8775 0.0
H675 H 0.50088 0.7813 0.91634 0.0
H676 H 0.38815 0.77864 0.87242 0.0
H677 H 0.36719 0.75392 0.89554 0.0
H678 H 0.373 0.73752 0.87074 0.0
H679 H 0.49609 0.84819 0.91873 0.0
H680 H 0.51375 0.82861 0.93243 0.0
H681 H 0.47685 0.82562 0.94306 0.0
C682 C 0.65762 0.46448 0.0618 0.0
C683 C 0.64396 0.46025 0.08302 0.0
C684 C 0.67195 0.44779 0.05496 0.0
C685 C 0.67238 0.42624 0.06966 0.0
C686 C 0.65741 0.4209 0.09074 0.0
C687 C 0.64349 0.43807 0.09721 0.0
C688 C 0.68766 0.45406 0.03235 0.0
C689 C 0.65724 0.39794 0.10682 0.0
C690 C 0.69065 0.3663 0.04857 0.0
C691 C 0.72392 0.37981 0.0552 0.0
C692 C 0.67363 0.38141 0.05278 0.0
C693 C 0.69043 0.41078 0.06367 0.0
C694 C 0.72432 0.42498 0.06974 0.0
C695 C 0.74062 0.40926 0.06551 0.0
C696 C 0.63743 0.3655 0.04622 0.0
C697 C 0.74316 0.45646 0.0812 0.0
H698 H 0.65756 0.48122 0.05062 0.0
H699 H 0.63335 0.43493 0.11372 0.0
H700 H 0.71488 0.46483 0.03422 0.0
H701 H 0.67775 0.43182 0.02306 0.0
H702 H 0.68326 0.46996 0.02235 0.0
H703 H 0.64231 0.39471 0.12183 0.0
H704 H 0.64706 0.37487 0.09867 0.0
H705 H 0.68308 0.40636 0.11213 0.0
H706 H 0.67756 0.34349 0.04067 0.0
H707 H 0.76639 0.4199 0.07056 0.0
H708 H 0.63334 0.38139 0.036 0.0
H709 H 0.62204 0.35986 0.0613 0.0
H710 H 0.62853 0.34354 0.03673 0.0
H711 H 0.74143 0.47401 0.07129 0.0
H712 H 0.76983 0.46498 0.0838 0.0
H713 H 0.73188 0.45491 0.09757 0.0
C714 C 0.41598 0.87258 0.53941 0.0
C715 C 0.40093 0.8842 0.5259 0.0
C716 C 0.3988 0.84086 0.54532 0.0
C717 C 0.36594 0.82034 0.53738 0.0
C718 C 0.35066 0.83198 0.52374 0.0
C719 C 0.36833 0.86375 0.51819 0.0
C720 C 0.41583 0.82926 0.55994 0.0
C721 C 0.31578 0.81079 0.51476 0.0
C722 C 0.33175 0.73354 0.53265 0.0
C723 C 0.31061 0.72155 0.55101 0.0
C724 C 0.35031 0.76569 0.52826 0.0
C725 C 0.34778 0.78643 0.54262 0.0
C726 C 0.32688 0.77459 0.56137 0.0
C727 C 0.30846 0.74224 0.56533 0.0
C728 C 0.37221 0.77741 0.50803 0.0
C729 C 0.32364 0.79605 0.57707 0.0
H730 H 0.44107 0.88838 0.54556 0.0
H731 H 0.35678 0.87253 0.50745 0.0
H732 H 0.40077 0.81803 0.57496 0.0
H733 H 0.41792 0.81124 0.55099 0.0
H734 H 0.44112 0.84837 0.5652 0.0
H735 H 0.30722 0.82369 0.5048 0.0
H736 H 0.31467 0.79232 0.50416 0.0
H737 H 0.2982 0.79892 0.52861 0.0
H738 H 0.33364 0.71776 0.5215 0.0
H739 H 0.29228 0.73317 0.57959 0.0
H740 H 0.39817 0.79525 0.51294 0.0
H741 H 0.36359 0.78885 0.49658 0.0
H742 H 0.37218 0.75832 0.49891 0.0
H743 H 0.34852 0.81448 0.58342 0.0
H744 H 0.30744 0.78332 0.59139 0.0
H745 H 0.31308 0.80798 0.5681 0.0
C746 C 0.6156 0.42462 0.69975 0.0
C747 C 0.58727 0.41947 0.68843 0.0
C748 C 0.618 0.39939 0.70665 0.0
C749 C 0.59153 0.36843 0.70195 0.0
C750 C 0.56306 0.36318 0.6903 0.0
C751 C 0.5613 0.38876 0.68368 0.0
C752 C 0.6487 0.4058 0.71908 0.0
C753 C 0.53444 0.33052 0.6848 0.0
C754 C 0.60594 0.30167 0.7012 0.0
C755 C 0.59231 0.28712 0.72154 0.0
C756 C 0.60658 0.32863 0.69483 0.0
C757 C 0.59332 0.34134 0.70918 0.0
C758 C 0.58009 0.32713 0.72991 0.0
C759 C 0.57969 0.30014 0.73583 0.0
C760 C 0.62078 0.3431 0.67256 0.0
C761 C 0.56576 0.34009 0.74563 0.0
H762 H 0.63564 0.44835 0.7035 0.0
H763 H 0.53964 0.38472 0.67453 0.0
H764 H 0.64171 0.39477 0.73568 0.0
H765 H 0.66064 0.39524 0.71009 0.0
H766 H 0.66718 0.43122 0.72125 0.0
H767 H 0.51417 0.3305 0.67555 0.0
H768 H 0.54336 0.31817 0.67467 0.0
H769 H 0.52403 0.31694 0.70028 0.0
H770 H 0.61585 0.29183 0.69008 0.0
H771 H 0.56928 0.28912 0.75163 0.0
H772 H 0.64044 0.36818 0.67463 0.0
H773 H 0.601 0.34187 0.66191 0.0
H774 H 0.63152 0.33121 0.66381 0.0
H775 H 0.58431 0.36513 0.74914 0.0
H776 H 0.55801 0.32724 0.7616 0.0
H777 H 0.54381 0.33868 0.73784 0.0
C778 C 0.20457 0.47427 0.8532 0.0
C779 C 0.18429 0.48456 0.86098 0.0
C780 C 0.23823 0.48975 0.85937 0.0
C781 C 0.25179 0.51617 0.87352 0.0
C782 C 0.23095 0.52546 0.88248 0.0
C783 C 0.1974 0.50947 0.87613 0.0
C784 C 0.25966 0.47905 0.84961 0.0
C785 C 0.2445 0.5535 0.89768 0.0
C786 C 0.33833 0.55407 0.89876 0.0
C787 C 0.35666 0.57937 0.88439 0.0
C788 C 0.30424 0.53253 0.89509 0.0
C789 C 0.2883 0.53656 0.87668 0.0
C790 C 0.30695 0.5614 0.86172 0.0
C791 C 0.34087 0.58244 0.86573 0.0
C792 C 0.2851 0.5061 0.91124 0.0
C793 C 0.29085 0.56644 0.84184 0.0
H794 H 0.1946 0.4551 0.84139 0.0
H795 H 0.1816 0.51707 0.88253 0.0
H796 H 0.27618 0.496 0.83688 0.0
H797 H 0.2758 0.47819 0.86259 0.0
H798 H 0.24456 0.45562 0.84169 0.0
H799 H 0.22446 0.55569 0.90498 0.0
H800 H 0.25933 0.55204 0.91134 0.0
H801 H 0.26133 0.5751 0.88823 0.0
H802 H 0.35041 0.55148 0.91316 0.0
H803 H 0.35488 0.60177 0.85443 0.0
H804 H 0.27052 0.48349 0.90224 0.0
H805 H 0.26714 0.50959 0.92035 0.0
H806 H 0.30167 0.50452 0.9235 0.0
H807 H 0.27767 0.54493 0.83152 0.0
H808 H 0.30917 0.58609 0.8313 0.0
H809 H 0.27206 0.57153 0.84748 0.0
C810 C 0.55053 0.14885 0.04748 0.0
C811 C 0.54346 0.12044 0.05649 0.0
C812 C 0.5787 0.17721 0.0544 0.0
C813 C 0.60013 0.17701 0.07073 0.0
C814 C 0.59165 0.14863 0.0811 0.0
C815 C 0.56339 0.12062 0.0738 0.0
C816 C 0.58687 0.20704 0.043 0.0
C817 C 0.61364 0.14753 0.09875 0.0
C818 C 0.69111 0.23966 0.06389 0.0
C819 C 0.69549 0.2621 0.07952 0.0
C820 C 0.66037 0.21154 0.06132 0.0
C821 C 0.63333 0.20567 0.07474 0.0
C822 C 0.63784 0.22766 0.09111 0.0
C823 C 0.66893 0.25569 0.09331 0.0
C824 C 0.65657 0.18854 0.04372 0.0
C825 C 0.60959 0.22205 0.10578 0.0
H826 H 0.53531 0.14877 0.03399 0.0
H827 H 0.55765 0.09865 0.08098 0.0
H828 H 0.59366 0.22582 0.05536 0.0
H829 H 0.60865 0.2151 0.03208 0.0
H830 H 0.56578 0.20383 0.03272 0.0
H831 H 0.60116 0.12464 0.10738 0.0
H832 H 0.63666 0.15146 0.09101 0.0
H833 H 0.62117 0.16633 0.11122 0.0
H834 H 0.71153 0.24436 0.05324 0.0
H835 H 0.67213 0.27291 0.10545 0.0
H836 H 0.63809 0.1857 0.03107 0.0
H837 H 0.64712 0.16526 0.0512 0.0
H838 H 0.68037 0.19614 0.03525 0.0
H839 H 0.59014 0.22212 0.09557 0.0
H840 H 0.6179 0.24016 0.11895 0.0
H841 H 0.59789 0.19876 0.11371 0.0
C842 C 0.54143 0.66963 0.18659 0.0
C843 C 0.57058 0.6786 0.17486 0.0
C844 C 0.53495 0.69193 0.19444 0.0
C845 C 0.55854 0.72409 0.19096 0.0
C846 C 0.58861 0.73344 0.17996 0.0
C847 C 0.5941 0.7106 0.17181 0.0
C848 C 0.50235 0.68099 0.20584 0.0
C849 C 0.6146 0.76754 0.17627 0.0
C850 C 0.52472 0.77689 0.18868 0.0
C851 C 0.53018 0.78841 0.21048 0.0
C852 C 0.53437 0.75636 0.18205 0.0
C853 C 0.55056 0.74768 0.19745 0.0
C854 C 0.55752 0.76033 0.2192 0.0
C855 C 0.54687 0.7803 0.22556 0.0
C856 C 0.52595 0.74295 0.15882 0.0
C857 C 0.57549 0.75218 0.23588 0.0
H858 H 0.52344 0.64507 0.18954 0.0
H859 H 0.61651 0.7179 0.16254 0.0
H860 H 0.50695 0.6919 0.22251 0.0
H861 H 0.48786 0.68843 0.19614 0.0
H862 H 0.48701 0.65518 0.20772 0.0
H863 H 0.63802 0.77104 0.16954 0.0
H864 H 0.60492 0.77763 0.16442 0.0
H865 H 0.62032 0.78083 0.19205 0.0
H866 H 0.51164 0.78288 0.17696 0.0
H867 H 0.55129 0.78928 0.24239 0.0
H868 H 0.50873 0.71719 0.15957 0.0
H869 H 0.54873 0.74766 0.15026 0.0
H870 H 0.51407 0.75276 0.14869 0.0
H871 H 0.55978 0.72703 0.24013 0.0
H872 H 0.58163 0.76613 0.2514 0.0
H873 H 0.59883 0.75615 0.22868 0.0
C874 C 0.87782 0.44366 0.3466 0.0
C875 C 0.90682 0.4721 0.35244 0.0
C876 C 0.84627 0.4379 0.35161 0.0
C877 C 0.84365 0.46135 0.36238 0.0
C878 C 0.87277 0.48936 0.36942 0.0
C879 C 0.90398 0.49425 0.36457 0.0
C880 C 0.81576 0.40746 0.34421 0.0
C881 C 0.87104 0.51502 0.38084 0.0
C882 C 0.76743 0.46331 0.34707 0.0
C883 C 0.74756 0.45027 0.36586 0.0
C884 C 0.79903 0.46764 0.34601 0.0
C885 C 0.81076 0.45805 0.364 0.0
C886 C 0.7909 0.44503 0.38311 0.0
C887 C 0.7596 0.44161 0.38392 0.0
C888 C 0.81974 0.48224 0.32552 0.0
C889 C 0.80234 0.43401 0.40241 0.0
H890 H 0.87963 0.42644 0.33711 0.0
H891 H 0.92624 0.51597 0.36965 0.0
H892 H 0.79737 0.39721 0.3578 0.0
H893 H 0.80374 0.41184 0.33009 0.0
H894 H 0.82186 0.3901 0.33885 0.0
H895 H 0.89571 0.53396 0.3872 0.0
H896 H 0.86165 0.52533 0.36894 0.0
H897 H 0.85341 0.50547 0.39486 0.0
H898 H 0.75829 0.47024 0.33315 0.0
H899 H 0.74415 0.43129 0.39841 0.0
H900 H 0.82422 0.46528 0.31719 0.0
H901 H 0.84436 0.50292 0.33019 0.0
H902 H 0.8076 0.48969 0.31344 0.0
H903 H 0.80561 0.41492 0.39686 0.0
H904 H 0.7844 0.42528 0.41632 0.0
H905 H 0.82684 0.45329 0.40864 0.0
C906 C 0.10948 0.51762 0.42495 0.0
C907 C 0.08981 0.52941 0.41871 0.0
C908 C 0.12504 0.52446 0.44583 0.0
C909 C 0.12079 0.54354 0.46083 0.0
C910 C 0.10001 0.55461 0.45494 0.0
C911 C 0.08483 0.54748 0.4339 0.0
C912 C 0.14712 0.51234 0.45147 0.0
C913 C 0.09472 0.57485 0.47057 0.0
C914 C 0.14451 0.54556 0.52141 0.0
C915 C 0.17605 0.57325 0.52234 0.0
C916 C 0.12619 0.53552 0.50149 0.0
C917 C 0.13978 0.55358 0.48208 0.0
C918 C 0.17172 0.58137 0.48287 0.0
C919 C 0.18945 0.59088 0.50298 0.0
C920 C 0.09222 0.50573 0.50123 0.0
C921 C 0.18712 0.60119 0.46247 0.0
H922 H 0.11385 0.50406 0.41315 0.0
H923 H 0.06943 0.55642 0.42918 0.0
H924 H 0.17329 0.53224 0.45303 0.0
H925 H 0.14 0.50018 0.46767 0.0
H926 H 0.14586 0.49594 0.43866 0.0
H927 H 0.07603 0.57974 0.4641 0.0
H928 H 0.0864 0.56339 0.48696 0.0
H929 H 0.11856 0.59744 0.47326 0.0
H930 H 0.13395 0.53182 0.53629 0.0
H931 H 0.21381 0.61228 0.50354 0.0
H932 H 0.09155 0.48904 0.48899 0.0
H933 H 0.0732 0.51081 0.49598 0.0
H934 H 0.08527 0.49428 0.51772 0.0
H935 H 0.18904 0.58709 0.44917 0.0
H936 H 0.2123 0.62201 0.46584 0.0
H937 H 0.17103 0.60923 0.45605 0.0
C938 C 0.46821 0.04071 0.62052 0.0
C939 C 0.49249 0.05015 0.60411 0.0
C940 C 0.47682 0.05333 0.64205 0.0
C941 C 0.51047 0.07598 0.64722 0.0
C942 C 0.53524 0.08449 0.63102 0.0
C943 C 0.52594 0.07154 0.60967 0.0
C944 C 0.44975 0.04353 0.65894 0.0
C945 C 0.57139 0.10862 0.63583 0.0
C946 C 0.5312 0.13884 0.68999 0.0
C947 C 0.54217 0.12914 0.70806 0.0
C948 C 0.51992 0.12122 0.67036 0.0
C949 C 0.51955 0.09314 0.66871 0.0
C950 C 0.5297 0.08271 0.68707 0.0
C951 C 0.54093 0.10086 0.70656 0.0
C952 C 0.5093 0.13317 0.65113 0.0
C953 C 0.52959 0.05286 0.6859 0.0
H954 H 0.44236 0.02395 0.61638 0.0
H955 H 0.54482 0.07938 0.59702 0.0
H956 H 0.45665 0.0373 0.67482 0.0
H957 H 0.44666 0.06337 0.6624 0.0
H958 H 0.42549 0.0233 0.65313 0.0
H959 H 0.58788 0.11048 0.62216 0.0
H960 H 0.57466 0.13184 0.63829 0.0
H961 H 0.57954 0.10281 0.65136 0.0
H962 H 0.53192 0.16058 0.691 0.0
H963 H 0.54927 0.09315 0.72047 0.0
H964 H 0.48385 0.11497 0.64553 0.0
H965 H 0.52618 0.13847 0.63691 0.0
H966 H 0.5096 0.15466 0.65546 0.0
H967 H 0.50485 0.03318 0.68034 0.0
H968 H 0.5358 0.04676 0.70213 0.0
H969 H 0.54798 0.05538 0.67351 0.0
C970 C 0.49906 0.61168 0.72667 0.0
C971 C 0.52716 0.61054 0.72191 0.0
C972 C 0.49401 0.61922 0.74804 0.0
C973 C 0.51769 0.62585 0.76499 0.0
C974 C 0.5467 0.62583 0.76009 0.0
C975 C 0.55101 0.61803 0.73862 0.0
C976 C 0.46268 0.61889 0.75269 0.0
C977 C 0.57249 0.63271 0.7777 0.0
C978 C 0.5109 0.66428 0.81699 0.0
C979 C 0.49223 0.63832 0.83078 0.0
C980 C 0.52048 0.66078 0.79577 0.0
C981 C 0.51084 0.6306 0.78814 0.0
C982 C 0.49308 0.60451 0.80229 0.0
C983 C 0.48414 0.60872 0.82348 0.0
C984 C 0.53998 0.68918 0.78126 0.0
C985 C 0.48232 0.57193 0.79472 0.0
H986 H 0.4807 0.60607 0.71376 0.0
H987 H 0.57245 0.61655 0.73518 0.0
H988 H 0.44723 0.60015 0.76476 0.0
H989 H 0.46896 0.64139 0.76029 0.0
H990 H 0.44761 0.61483 0.73745 0.0
H991 H 0.59525 0.63514 0.77064 0.0
H992 H 0.57958 0.65453 0.78678 0.0
H993 H 0.56196 0.61347 0.78997 0.0
H994 H 0.51744 0.68726 0.82259 0.0
H995 H 0.46976 0.58855 0.83403 0.0
H996 H 0.52462 0.6873 0.7667 0.0
H997 H 0.56248 0.69047 0.77486 0.0
H998 H 0.54774 0.71126 0.79026 0.0
H999 H 0.4647 0.56489 0.78054 0.0
H1000 H 0.47003 0.55438 0.80811 0.0
H1001 H 0.50406 0.57142 0.78883 0.0
C1002 C 0.92645 0.37934 0.91792 0.0
C1003 C 0.90771 0.36287 0.89914 0.0
C1004 C 0.91218 0.37244 0.93901 0.0
C1005 C 0.87821 0.34872 0.94132 0.0
C1006 C 0.85936 0.33143 0.92245 0.0
C1007 C 0.87448 0.33857 0.90152 0.0
C1008 C 0.93329 0.39107 0.95873 0.0
C1009 C 0.82302 0.3061 0.92428 0.0
C1010 C 0.84724 0.3179 -0.00067 0.0
C1011 C 0.83416 0.33584 0.00575 0.0
C1012 C 0.86135 0.32154 0.97828 0.0
C1013 C 0.86209 0.34342 0.96329 0.0
C1014 C 0.84856 0.36129 0.96958 0.0
C1015 C 0.83491 0.35739 0.99075 0.0
C1016 C 0.87587 0.30233 0.97221 0.0
C1017 C 0.84875 0.38476 0.95401 0.0
H1018 H 0.95238 0.39777 0.91604 0.0
H1019 H 0.86012 0.32583 0.88694 0.0
H1020 H 0.92367 0.40493 0.96585 0.0
H1021 H 0.93193 0.37512 0.97189 0.0
H1022 H 0.95979 0.40733 0.95428 0.0
H1023 H 0.81237 0.29373 0.90827 0.0
H1024 H 0.81957 0.28876 0.93696 0.0
H1025 H 0.80876 0.31649 0.92978 0.0
H1026 H 0.84675 0.3012 0.01082 0.0
H1027 H 0.82467 0.37121 0.99551 0.0
H1028 H 0.90283 0.31801 0.96886 0.0
H1029 H 0.86399 0.28883 0.95679 0.0
H1030 H 0.8726 0.28578 0.98554 0.0
H1031 H 0.87475 0.40337 0.95012 0.0
H1032 H 0.83604 0.39589 0.96111 0.0
H1033 H 0.83631 0.37321 0.93813 0.0
C1034 C 0.50393 0.96847 0.10937 0.0
C1035 C 0.47188 0.96142 0.10397 0.0
C1036 C 0.51049 0.95923 0.12967 0.0
C1037 C 0.48451 0.94306 0.14511 0.0
C1038 C 0.45278 0.93799 0.14049 0.0
C1039 C 0.44675 0.94702 0.11989 0.0
C1040 C 0.54463 0.96494 0.13391 0.0
C1041 C 0.42458 0.92129 0.15673 0.0
C1042 C 0.48516 0.8823 0.18131 0.0
C1043 C 0.49699 0.89818 0.20158 0.0
C1044 C 0.48152 0.8969 0.16278 0.0
C1045 C 0.4893 0.928 0.16468 0.0
C1046 C 0.50135 0.94426 0.18509 0.0
C1047 C 0.50539 0.92922 0.2033 0.0
C1048 C 0.46921 0.87894 0.14119 0.0
C1049 C 0.50935 0.97725 0.18778 0.0
H1050 H 0.52374 0.98034 0.0974 0.0
H1051 H 0.42189 0.94135 0.11588 0.0
H1052 H 0.55386 0.97522 0.15063 0.0
H1053 H 0.5432 0.94233 0.13341 0.0
H1054 H 0.56298 0.98076 0.1214 0.0
H1055 H 0.4031 0.92321 0.15213 0.0
H1056 H 0.416 0.89615 0.15722 0.0
H1057 H 0.43306 0.9309 0.17371 0.0
H1058 H 0.4789 0.85838 0.17986 0.0
H1059 H 0.51434 0.94147 0.21901 0.0
H1060 H 0.48732 0.89203 0.12781 0.0
H1061 H 0.44534 0.87629 0.13623 0.0
H1062 H 0.46533 0.8553 0.14232 0.0
H1063 H 0.52803 0.99278 0.17537 0.0
H1064 H 0.51909 0.98685 0.20462 0.0
H1065 H 0.48664 0.97778 0.18468 0.0
C1066 C 0.61891 0.56357 0.25918 0.0
C1067 C 0.63666 0.56702 0.23981 0.0
C1068 C 0.62438 0.55153 0.27857 0.0
C1069 C 0.64806 0.54274 0.27846 0.0
C1070 C 0.6669 0.54727 0.2592 0.0
C1071 C 0.66088 0.55924 0.24009 0.0
C1072 C 0.60392 0.5471 0.29887 0.0
C1073 C 0.69232 0.5381 0.2584 0.0
C1074 C 0.6792 0.52904 0.33266 0.0
C1075 C 0.65993 0.49632 0.33412 0.0
C1076 C 0.67535 0.54456 0.31477 0.0
C1077 C 0.65169 0.5269 0.29796 0.0
C1078 C 0.63209 0.49389 0.29937 0.0
C1079 C 0.63643 0.47898 0.31745 0.0
C1080 C 0.69679 0.57979 0.31371 0.0
C1081 C 0.60668 0.47428 0.28167 0.0
H1082 H 0.60028 0.56967 0.25903 0.0
H1083 H 0.67416 0.56116 0.22504 0.0
H1084 H 0.5874 0.52178 0.30241 0.0
H1085 H 0.62036 0.55811 0.31356 0.0
H1086 H 0.58832 0.5572 0.29676 0.0
H1087 H 0.7074 0.54638 0.24306 0.0
H1088 H 0.70933 0.54776 0.27295 0.0
H1089 H 0.67949 0.51227 0.25907 0.0
H1090 H 0.69738 0.54261 0.34551 0.0
H1091 H 0.62142 0.4537 0.31847 0.0
H1092 H 0.68092 0.58969 0.31252 0.0
H1093 H 0.71232 0.58701 0.29859 0.0
H1094 H 0.71341 0.59013 0.32842 0.0
H1095 H 0.58846 0.48145 0.27984 0.0
H1096 H 0.59297 0.44891 0.28548 0.0
H1097 H 0.61914 0.47813 0.26545 0.0
C1098 C 0.44364 0.9176 0.39293 0.0
C1099 C 0.47168 0.93407 0.40685 0.0
C1100 C 0.44455 0.90267 0.37358 0.0
C1101 C 0.47455 0.90517 0.36751 0.0
C1102 C 0.50254 0.92065 0.38181 0.0
C1103 C 0.50053 0.93429 0.40151 0.0
C1104 C 0.41379 0.88544 0.35912 0.0
C1105 C 0.53521 0.9244 0.3757 0.0
C1106 C 0.47277 0.85307 0.32132 0.0
C1107 C 0.47871 0.87188 0.30272 0.0
C1108 C 0.47141 0.86356 0.34263 0.0
C1109 C 0.47737 0.89396 0.34533 0.0
C1110 C 0.48488 0.9135 0.32661 0.0
C1111 C 0.48476 0.90194 0.30546 0.0
C1112 C 0.46213 0.84167 0.36205 0.0
C1113 C 0.49251 0.94644 0.32887 0.0
H1114 H 0.42127 0.91739 0.39655 0.0
H1115 H 0.52205 0.94598 0.4124 0.0
H1116 H 0.41746 0.89899 0.34378 0.0
H1117 H 0.40914 0.86233 0.35406 0.0
H1118 H 0.39137 0.88181 0.36765 0.0
H1119 H 0.554 0.93536 0.38925 0.0
H1120 H 0.53156 0.90143 0.37153 0.0
H1121 H 0.54527 0.93927 0.36072 0.0
H1122 H 0.46764 0.82962 0.31907 0.0
H1123 H 0.48947 0.91644 0.291 0.0
H1124 H 0.43803 0.83628 0.36888 0.0
H1125 H 0.48091 0.8529 0.37553 0.0
H1126 H 0.45982 0.81936 0.35733 0.0
H1127 H 0.47007 0.94586 0.33453 0.0
H1128 H 0.50072 0.95944 0.31298 0.0
H1129 H 0.51229 0.9595 0.34155 0.0
C1130 C 0.59348 0.5295 0.5167 0.0
C1131 C 0.56034 0.51153 0.5238 0.0
C1132 C 0.60324 0.52294 0.49663 0.0
C1133 C 0.57949 0.49732 0.48357 0.0
C1134 C 0.5458 0.47981 0.49013 0.0
C1135 C 0.53656 0.48737 0.51004 0.0
C1136 C 0.63931 0.54254 0.48995 0.0
C1137 C 0.51981 0.45214 0.47669 0.0
C1138 C 0.60007 0.48934 0.42422 0.0
C1139 C 0.61144 0.46903 0.42675 0.0
C1140 C 0.58986 0.49903 0.4426 0.0
C1141 C 0.59038 0.48756 0.46389 0.0
C1142 C 0.60165 0.46689 0.46651 0.0
C1143 C 0.61241 0.45814 0.44791 0.0
C1144 C 0.57877 0.52169 0.43928 0.0
C1145 C 0.60204 0.45377 0.48894 0.0
H1146 H 0.61228 0.54787 0.52728 0.0
H1147 H 0.5108 0.47372 0.51515 0.0
H1148 H 0.6508 0.52846 0.49134 0.0
H1149 H 0.64139 0.54991 0.47239 0.0
H1150 H 0.65376 0.56374 0.50051 0.0
H1151 H 0.49439 0.44209 0.48338 0.0
H1152 H 0.52 0.45901 0.4592 0.0
H1153 H 0.52566 0.43365 0.47664 0.0
H1154 H 0.59949 0.49795 0.40787 0.0
H1155 H 0.62092 0.44222 0.44987 0.0
H1156 H 0.59444 0.54299 0.4495 0.0
H1157 H 0.55276 0.51104 0.44489 0.0
H1158 H 0.58028 0.52874 0.42167 0.0
H1159 H 0.61861 0.47306 0.50051 0.0
H1160 H 0.61069 0.43731 0.48804 0.0
H1161 H 0.57672 0.44132 0.49611 0.0
C1162 C 0.08536 0.51349 0.71097 0.0
C1163 C 0.06122 0.48209 0.70625 0.0
C1164 C 0.10893 0.53264 0.69512 0.0
C1165 C 0.10813 0.52018 0.67394 0.0
C1166 C 0.08281 0.48894 0.66871 0.0
C1167 C 0.05978 0.47016 0.68502 0.0
C1168 C 0.13577 0.56566 0.70146 0.0
C1169 C 0.08095 0.47494 0.64623 0.0
C1170 C 0.15947 0.57616 0.62766 0.0
C1171 C 0.18752 0.57376 0.62773 0.0
C1172 C 0.13332 0.55882 0.64257 0.0
C1173 C 0.13549 0.53892 0.65803 0.0
C1174 C 0.16402 0.53688 0.65843 0.0
C1175 C 0.18958 0.55419 0.64322 0.0
C1176 C 0.10318 0.56141 0.64158 0.0
C1177 C 0.16747 0.51621 0.67485 0.0
H1178 H 0.08694 0.52266 0.72749 0.0
H1179 H 0.04113 0.44591 0.68136 0.0
H1180 H 0.16034 0.56803 0.70138 0.0
H1181 H 0.13679 0.58242 0.68915 0.0
H1182 H 0.13181 0.57231 0.71817 0.0
H1183 H 0.05789 0.45151 0.64405 0.0
H1184 H 0.08199 0.49054 0.6329 0.0
H1185 H 0.10266 0.4726 0.64411 0.0
H1186 H 0.15761 0.59108 0.61564 0.0
H1187 H 0.21121 0.55228 0.64343 0.0
H1188 H 0.0994 0.56916 0.65788 0.0
H1189 H 0.08063 0.53813 0.63797 0.0
H1190 H 0.10542 0.5781 0.62869 0.0
H1191 H 0.16464 0.52235 0.69199 0.0
H1192 H 0.19185 0.51829 0.67364 0.0
H1193 H 0.14745 0.49143 0.67198 0.0
C1194 C 0.48878 0.13588 0.9195 0.0
C1195 C 0.50114 0.11728 0.92589 0.0
C1196 C 0.49862 0.15258 0.89948 0.0
C1197 C 0.52143 0.1507 0.88566 0.0
C1198 C 0.53463 0.13266 0.89232 0.0
C1199 C 0.52416 0.11603 0.91222 0.0
C1200 C 0.48394 0.1715 0.89282 0.0
C1201 C 0.55908 0.13009 0.87808 0.0
C1202 C 0.52485 0.16321 0.82355 0.0
C1203 C 0.55387 0.19296 0.82154 0.0
C1204 C 0.51302 0.14982 0.84446 0.0
C1205 C 0.53077 0.16648 0.86377 0.0
C1206 C 0.55931 0.19699 0.86189 0.0
C1207 C 0.57045 0.20992 0.84078 0.0
C1208 C 0.48231 0.11728 0.84583 0.0
C1209 C 0.57904 0.21536 0.8821 0.0
H1210 H 0.47107 0.13703 0.93 0.0
H1211 H 0.53317 0.10107 0.91665 0.0
H1212 H 0.50403 0.19591 0.88913 0.0
H1213 H 0.4689 0.16155 0.87744 0.0
H1214 H 0.46784 0.17184 0.90592 0.0
H1215 H 0.56845 0.11657 0.88627 0.0
H1216 H 0.54703 0.1184 0.86215 0.0
H1217 H 0.58062 0.15371 0.8741 0.0
H1218 H 0.51174 0.15006 0.80877 0.0
H1219 H 0.59284 0.23296 0.83938 0.0
H1220 H 0.46447 0.11679 0.85783 0.0
H1221 H 0.48925 0.10082 0.85193 0.0
H1222 H 0.4696 0.10872 0.8295 0.0
H1223 H 0.56239 0.21577 0.8947 0.0
H1224 H 0.59869 0.23983 0.878 0.0
H1225 H 0.59103 0.20385 0.88977 0.0
C1226 C 0.55163 0.65448 0.0401 0.0
C1227 C 0.54538 0.62431 0.04291 0.0
C1228 C 0.54525 0.66368 0.01968 0.0
C1229 C 0.5326 0.64223 0.00171 0.0
C1230 C 0.52653 0.61184 0.00444 0.0
C1231 C 0.53298 0.60326 0.02502 0.0
C1232 C 0.55187 0.69622 0.01736 0.0
C1233 C 0.51326 0.58837 0.98563 0.0
C1234 C 0.48497 0.65124 0.95487 0.0
C1235 C 0.50877 0.66377 0.93798 0.0
C1236 C 0.4927 0.6449 0.97587 0.0
C1237 C 0.52499 0.65117 0.9801 0.0
C1238 C 0.54936 0.66441 0.96331 0.0
C1239 C 0.54097 0.67061 0.94242 0.0
C1240 C 0.46607 0.63081 0.99338 0.0
C1241 C 0.58404 0.67132 0.96725 0.0
H1242 H 0.56123 0.67075 0.05394 0.0
H1243 H 0.52885 0.58014 0.02701 0.0
H1244 H 0.56972 0.70871 0.00375 0.0
H1245 H 0.5285 0.69491 0.01288 0.0
H1246 H 0.56209 0.71019 0.03285 0.0
H1247 H 0.51051 0.56591 0.99041 0.0
H1248 H 0.48865 0.58355 0.98012 0.0
H1249 H 0.53016 0.59806 0.97123 0.0
H1250 H 0.46006 0.64601 0.95163 0.0
H1251 H 0.5595 0.68034 0.92948 0.0
H1252 H 0.47506 0.64517 0.00875 0.0
H1253 H 0.46029 0.60711 0.9977 0.0
H1254 H 0.44275 0.62891 0.98782 0.0
H1255 H 0.5953 0.68645 0.98211 0.0
H1256 H 0.60055 0.68304 0.95285 0.0
H1257 H 0.58294 0.64922 0.97055 0.0
C1258 C 0.95052 0.433 0.20399 0.0
C1259 C 0.93677 0.44162 0.22086 0.0
C1260 C 0.93523 0.42355 0.18308 0.0
C1261 C 0.90541 0.42263 0.17897 0.0
C1262 C 0.89134 0.43121 0.19597 0.0
C1263 C 0.90732 0.44079 0.21672 0.0
C1264 C 0.95128 0.41503 0.1653 0.0
C1265 C 0.85949 0.43039 0.1922 0.0
C1266 C 0.88065 0.42584 0.11951 0.0
C1267 C 0.8566 0.3943 0.11517 0.0
C1268 C 0.89703 0.43535 0.14013 0.0
C1269 C 0.88901 0.41281 0.15683 0.0
C1270 C 0.86514 0.38089 0.15246 0.0
C1271 C 0.8493 0.372 0.13166 0.0
C1272 C 0.9226 0.46958 0.14413 0.0
C1273 C 0.85601 0.35619 0.16988 0.0
H1274 H 0.97375 0.43435 0.207 0.0
H1275 H 0.89675 0.44751 0.22977 0.0
H1276 H 0.93325 0.39133 0.15864 0.0
H1277 H 0.95884 0.43164 0.15129 0.0
H1278 H 0.97358 0.41553 0.17154 0.0
H1279 H 0.85161 0.43743 0.20721 0.0
H1280 H 0.86271 0.44629 0.17843 0.0
H1281 H 0.83925 0.40648 0.18723 0.0
H1282 H 0.8865 0.44321 0.10685 0.0
H1283 H 0.83072 0.34759 0.12847 0.0
H1284 H 0.94667 0.47274 0.14921 0.0
H1285 H 0.91448 0.47847 0.1579 0.0
H1286 H 0.92669 0.48402 0.1292 0.0
H1287 H 0.87849 0.35649 0.17533 0.0
H1288 H 0.83721 0.33233 0.16376 0.0
H1289 H 0.84594 0.3613 0.18468 0.0
loop_
_geom_bond_atom_site_label_1
_geom_bond_atom_site_label_2
_geom_bond_distance
_geom_bond_site_symmetry_2
_ccdc_geom_bond_type
H0 O26 0.856 . S
H1 O29 0.854 . S
H2 C37 0.930 1_455 S
H3 C38 0.930 . S
H4 C40 0.930 . S
H5 C41 0.930 . S
H6 C43 0.931 . S
H7 C44 0.930 . S
H8 C46 0.930 . S
H9 C47 0.929 . S
H10 C49 0.930 . S
H11 C50 0.931 . S
H12 C52 0.930 . S
H13 C53 0.929 . S
H14 C55 0.931 . S
H15 C56 0.930 . S
H16 C58 0.930 . S
H17 C59 0.932 . S
H18 C61 0.930 . S
H19 C62 0.929 . S
H20 C64 0.931 . S
H21 C65 0.930 . S
H22 C67 0.929 . S
H23 C68 0.931 . S
H24 C70 0.930 . S
H25 C71 0.932 . S
O26 H0 0.856 . S
O26 C72 1.300 . S
O27 C72 1.209 . S
O28 C73 1.199 . S
O29 H1 0.854 . S
O29 C73 1.297 . S
C30 C31 1.404 . S
C30 C35 1.397 . S
C30 C36 1.492 . S
C31 C30 1.404 . S
C31 C32 1.396 . S
C31 C42 1.492 . S
C32 C31 1.396 . S
C32 C33 1.397 . S
C32 C48 1.509 . S
C33 C32 1.397 . S
C33 C34 1.412 . S
C33 C54 1.485 . S
C34 C33 1.412 . S
C34 C35 1.388 . S
C34 C60 1.490 . S
C35 C30 1.397 . S
C35 C34 1.388 . S
C35 C66 1.519 1_455 S
C36 C30 1.492 . S
C36 C37 1.363 1_455 S
C36 C41 1.390 1_455 S
C37 H2 0.930 1_655 S
C37 C36 1.363 1_655 S
C37 C38 1.372 . S
C38 H3 0.930 . S
C38 C37 1.372 . S
C38 C39 1.383 . S
C39 C38 1.383 . S
C39 C40 1.395 . S
C40 H4 0.930 . S
C40 C39 1.395 . S
C40 C41 1.362 . S
C41 H5 0.930 . S
C41 C36 1.390 1_655 S
C41 C40 1.362 . S
C42 C31 1.492 . S
C42 C43 1.377 . S
C42 C47 1.397 . S
C43 H6 0.931 . S
C43 C42 1.377 . S
C43 C44 1.376 . S
C44 H7 0.930 . S
C44 C43 1.376 . S
C44 C45 1.376 . S
C45 C44 1.376 . S
C45 C46 1.378 . S
C45 C72 1.486 . S
C46 H8 0.930 . S
C46 C45 1.378 . S
C46 C47 1.376 . S
C47 H9 0.929 . S
C47 C42 1.397 . S
C47 C46 1.376 . S
C48 C32 1.509 . S
C48 C49 1.391 . S
C48 C53 1.386 . S
C49 H10 0.930 . S
C49 C48 1.391 . S
C49 C50 1.375 . S
C50 H11 0.931 . S
C50 C49 1.375 . S
C50 C51 1.375 . S
C51 C50 1.375 . S
C51 C52 1.361 . S
C52 H12 0.930 . S
C52 C51 1.361 . S
C52 C53 1.399 . S
C53 H13 0.929 . S
C53 C48 1.386 . S
C53 C52 1.399 . S
C54 C33 1.485 . S
C54 C55 1.394 . S
C54 C59 1.360 . S
C55 H14 0.931 . S
C55 C54 1.394 . S
C55 C56 1.372 . S
C56 H15 0.930 . S
C56 C55 1.372 . S
C56 C57 1.397 . S
C57 C56 1.397 . S
C57 C58 1.390 . S
C57 C73 1.476 . S
C58 H16 0.930 . S
C58 C57 1.390 . S
C58 C59 1.366 . S
C59 H17 0.932 . S
C59 C54 1.360 . S
C59 C58 1.366 . S
C60 C34 1.490 . S
C60 C61 1.380 . S
C60 C65 1.386 . S
C61 H18 0.930 . S
C61 C60 1.380 . S
C61 C62 1.381 . S
C62 H19 0.929 . S
C62 C61 1.381 . S
C62 C63 1.371 . S
C63 C62 1.371 . S
C63 C64 1.380 . S
C64 H20 0.931 . S
C64 C63 1.380 . S
C64 C65 1.387 . S
C65 H21 0.930 . S
C65 C60 1.386 . S
C65 C64 1.387 . S
C66 C35 1.519 1_655 S
C66 C67 1.377 . S
C66 C71 1.361 . S
C67 H22 0.929 . S
C67 C66 1.377 . S
C67 C68 1.386 . S
C68 H23 0.931 . S
C68 C67 1.386 . S
C68 C69 1.363 . S
C69 C68 1.363 . S
C69 C70 1.385 . S
C70 H24 0.930 . S
C70 C69 1.385 . S
C70 C71 1.396 . S
C71 H25 0.932 . S
C71 C66 1.361 . S
C71 C70 1.396 . S
C72 O26 1.300 . S
C72 O27 1.209 . S
C72 C45 1.486 . S
C73 O28 1.199 . S
C73 O29 1.297 . S
C73 C57 1.476 . S
H74 O100 0.856 . S
H75 O103 0.854 . S
H76 C111 0.930 . S
H77 C112 0.930 . S
H78 C114 0.930 . S
H79 C115 0.930 . S
H80 C117 0.931 . S
H81 C118 0.930 . S
H82 C120 0.930 . S
H83 C121 0.929 . S
H84 C123 0.930 . S
H85 C124 0.931 . S
H86 C126 0.930 . S
H87 C127 0.929 . S
H88 C129 0.931 . S
H89 C130 0.930 . S
H90 C132 0.930 . S
H91 C133 0.932 . S
H92 C135 0.930 . S
H93 C136 0.929 . S
H94 C138 0.931 . S
H95 C139 0.930 . S
H96 C141 0.929 . S
H97 C142 0.931 . S
H98 C144 0.930 . S
H99 C145 0.929 . S
O100 H74 0.856 . S
O100 C146 1.300 . S
O101 C146 1.209 . S
O102 C147 1.199 . S
O103 H75 0.854 . S
O103 C147 1.297 . S
C104 C105 1.404 . S
C104 C109 1.397 . S
C104 C110 1.492 . S
C105 C104 1.404 . S
C105 C106 1.396 . S
C105 C116 1.492 . S
C106 C105 1.396 . S
C106 C107 1.397 . S
C106 C122 1.509 . S
C107 C106 1.397 . S
C107 C108 1.412 . S
C107 C128 1.485 . S
C108 C107 1.412 . S
C108 C109 1.388 . S
C108 C134 1.490 . S
C109 C104 1.397 . S
C109 C108 1.388 . S
C109 C140 1.484 1_545 S
C110 C104 1.492 . S
C110 C111 1.363 . S
C110 C115 1.390 1_545 S
C111 H76 0.930 . S
C111 C110 1.363 . S
C111 C112 1.372 1_545 S
C112 H77 0.930 . S
C112 C111 1.372 1_565 S
C112 C113 1.383 . S
C113 C112 1.383 . S
C113 C114 1.395 . S
C114 H78 0.930 . S
C114 C113 1.395 . S
C114 C115 1.362 . S
C115 H79 0.930 . S
C115 C110 1.390 1_565 S
C115 C114 1.362 . S
C116 C105 1.492 . S
C116 C117 1.377 . S
C116 C121 1.397 . S
C117 H80 0.931 . S
C117 C116 1.377 . S
C117 C118 1.376 . S
C118 H81 0.930 . S
C118 C117 1.376 . S
C118 C119 1.376 . S
C119 C118 1.376 . S
C119 C120 1.378 . S
C119 C146 1.486 . S
C120 H82 0.930 . S
C120 C119 1.378 . S
C120 C121 1.376 . S
C121 H83 0.929 . S
C121 C116 1.397 . S
C121 C120 1.376 . S
C122 C106 1.509 . S
C122 C123 1.391 . S
C122 C127 1.386 . S
C123 H84 0.930 . S
C123 C122 1.391 . S
C123 C124 1.375 . S
C124 H85 0.931 . S
C124 C123 1.375 . S
C124 C125 1.375 . S
C125 C124 1.375 . S
C125 C126 1.361 . S
C126 H86 0.930 . S
C126 C125 1.361 . S
C126 C127 1.399 . S
C127 H87 0.929 . S
C127 C122 1.386 . S
C127 C126 1.399 . S
C128 C107 1.485 . S
C128 C129 1.394 . S
C128 C133 1.360 . S
C129 H88 0.931 . S
C129 C128 1.394 . S
C129 C130 1.372 . S
C130 H89 0.930 . S
C130 C129 1.372 . S
C130 C131 1.397 . S
C131 C130 1.397 . S
C131 C132 1.390 . S
C131 C147 1.476 . S
C132 H90 0.930 . S
C132 C131 1.390 . S
C132 C133 1.366 . S
C133 H91 0.932 . S
C133 C128 1.360 . S
C133 C132 1.366 . S
C134 C108 1.490 . S
C134 C135 1.380 . S
C134 C139 1.386 . S
C135 H92 0.930 . S
C135 C134 1.380 . S
C135 C136 1.381 . S
C136 H93 0.929 . S
C136 C135 1.381 . S
C136 C137 1.371 . S
C137 C136 1.371 . S
C137 C138 1.380 . S
C138 H94 0.931 . S
C138 C137 1.380 . S
C138 C139 1.387 . S
C139 H95 0.930 . S
C139 C134 1.386 . S
C139 C138 1.387 . S
C140 C109 1.484 1_565 S
C140 C141 1.415 . S
C140 C145 1.358 . S
C141 H96 0.929 . S
C141 C140 1.415 . S
C141 C142 1.386 . S
C142 H97 0.931 . S
C142 C141 1.386 . S
C142 C143 1.363 . S
C143 C142 1.363 . S
C143 C144 1.385 . S
C144 H98 0.930 . S
C144 C143 1.385 . S
C144 C145 1.396 . S
C145 H99 0.929 . S
C145 C140 1.358 . S
C145 C144 1.396 . S
C146 O100 1.300 . S
C146 O101 1.209 . S
C146 C119 1.486 . S
C147 O102 1.199 . S
C147 O103 1.297 . S
C147 C131 1.476 . S
H148 O174 0.856 . S
H149 O177 0.854 . S
H150 C185 0.930 . S
H151 C186 0.930 . S
H152 C188 0.930 . S
H153 C189 0.930 . S
H154 C191 0.931 . S
H155 C192 0.930 . S
H156 C194 0.930 . S
H157 C195 0.929 . S
H158 C197 0.930 . S
H159 C198 0.931 . S
H160 C200 0.930 . S
H161 C201 0.929 . S
H162 C203 0.931 . S
H163 C204 0.930 . S
H164 C206 0.930 . S
H165 C207 0.932 . S
H166 C209 0.930 . S
H167 C210 0.929 . S
H168 C212 0.931 . S
H169 C213 0.930 . S
H170 C215 0.929 . S
H171 C216 0.931 . S
H172 C218 0.930 . S
H173 C219 0.929 . S
O174 H148 0.856 . S
O174 C220 1.300 . S
O175 C220 1.209 . S
O176 C221 1.199 . S
O177 H149 0.854 . S
O177 C221 1.297 . S
C178 C179 1.404 . S
C178 C183 1.397 . S
C178 C184 1.492 . S
C179 C178 1.404 . S
C179 C180 1.396 . S
C179 C190 1.492 . S
C180 C179 1.396 . S
C180 C181 1.397 . S
C180 C196 1.509 . S
C181 C180 1.397 . S
C181 C182 1.412 . S
C181 C202 1.485 . S
C182 C181 1.412 . S
C182 C183 1.388 . S
C182 C208 1.490 . S
C183 C178 1.397 . S
C183 C182 1.388 . S
C183 C214 1.519 . S
C184 C178 1.492 . S
C184 C185 1.363 . S
C184 C189 1.390 . S
C185 H150 0.930 . S
C185 C184 1.363 . S
C185 C186 1.372 . S
C186 H151 0.930 . S
C186 C185 1.372 . S
C186 C187 1.383 . S
C187 C186 1.383 . S
C187 C188 1.395 . S
C188 H152 0.930 . S
C188 C187 1.395 . S
C188 C189 1.362 . S
C189 H153 0.930 . S
C189 C184 1.390 . S
C189 C188 1.362 . S
C190 C179 1.492 . S
C190 C191 1.377 . S
C190 C195 1.397 . S
C191 H154 0.931 . S
C191 C190 1.377 . S
C191 C192 1.376 . S
C192 H155 0.930 . S
C192 C191 1.376 . S
C192 C193 1.376 . S
C193 C192 1.376 . S
C193 C194 1.378 . S
C193 C220 1.486 . S
C194 H156 0.930 . S
C194 C193 1.378 . S
C194 C195 1.376 . S
C195 H157 0.929 . S
C195 C190 1.397 . S
C195 C194 1.376 . S
C196 C180 1.509 . S
C196 C197 1.391 . S
C196 C201 1.386 . S
C197 H158 0.930 . S
C197 C196 1.391 . S
C197 C198 1.375 . S
C198 H159 0.931 . S
C198 C197 1.375 . S
C198 C199 1.375 . S
C199 C198 1.375 . S
C199 C200 1.361 . S
C200 H160 0.930 . S
C200 C199 1.361 . S
C200 C201 1.399 . S
C201 H161 0.929 . S
C201 C196 1.386 . S
C201 C200 1.399 . S
C202 C181 1.485 . S
C202 C203 1.394 . S
C202 C207 1.360 . S
C203 H162 0.931 . S
C203 C202 1.394 . S
C203 C204 1.372 . S
C204 H163 0.930 . S
C204 C203 1.372 . S
C204 C205 1.397 . S
C205 C204 1.397 . S
C205 C206 1.390 . S
C205 C221 1.476 . S
C206 H164 0.930 . S
C206 C205 1.390 . S
C206 C207 1.366 . S
C207 H165 0.932 . S
C207 C202 1.360 . S
C207 C206 1.366 . S
C208 C182 1.490 . S
C208 C209 1.380 . S
C208 C213 1.386 . S
C209 H166 0.930 . S
C209 C208 1.380 . S
C209 C210 1.381 . S
C210 H167 0.929 . S
C210 C209 1.381 . S
C210 C211 1.371 . S
C211 C210 1.371 . S
C211 C212 1.380 . S
C212 H168 0.931 . S
C212 C211 1.380 . S
C212 C213 1.387 . S
C213 H169 0.930 . S
C213 C208 1.386 . S
C213 C212 1.387 . S
C214 C183 1.519 . S
C214 C215 1.377 . S
C214 C219 1.361 . S
C215 H170 0.929 . S
C215 C214 1.377 . S
C215 C216 1.386 . S
C216 H171 0.931 . S
C216 C215 1.386 . S
C216 C217 1.363 . S
C217 C216 1.363 . S
C217 C218 1.385 . S
C218 H172 0.930 . S
C218 C217 1.385 . S
C218 C219 1.396 . S
C219 H173 0.929 . S
C219 C214 1.361 . S
C219 C218 1.396 . S
C220 O174 1.300 . S
C220 O175 1.209 . S
C220 C193 1.486 . S
C221 O176 1.199 . S
C221 O177 1.297 . S
C221 C205 1.476 . S
H222 O248 0.856 . S
H223 O251 0.854 . S
H224 C259 0.930 1_455 S
H225 C260 0.930 . S
H226 C262 0.930 . S
H227 C263 0.930 . S
H228 C265 0.931 . S
H229 C266 0.930 . S
H230 C268 0.930 . S
H231 C269 0.929 . S
H232 C271 0.930 . S
H233 C272 0.931 . S
H234 C274 0.930 . S
H235 C275 0.929 . S
H236 C277 0.931 . S
H237 C278 0.930 . S
H238 C280 0.930 . S
H239 C281 0.932 . S
H240 C283 0.930 . S
H241 C284 0.929 . S
H242 C286 0.931 . S
H243 C287 0.930 . S
H244 C289 0.929 . S
H245 C290 0.931 . S
H246 C292 0.930 . S
H247 C293 0.929 . S
O248 H222 0.856 . S
O248 C294 1.300 . S
O249 C294 1.209 . S
O250 C295 1.199 . S
O251 H223 0.854 . S
O251 C295 1.297 . S
C252 C253 1.404 . S
C252 C257 1.397 . S
C252 C258 1.492 1_455 S
C253 C252 1.404 . S
C253 C254 1.396 . S
C253 C264 1.492 . S
C254 C253 1.396 . S
C254 C255 1.397 . S
C254 C270 1.509 . S
C255 C254 1.397 . S
C255 C256 1.412 . S
C255 C276 1.485 . S
C256 C255 1.412 . S
C256 C257 1.388 . S
C256 C282 1.490 . S
C257 C252 1.397 . S
C257 C256 1.388 . S
C257 C288 1.519 1_455 S
C258 C252 1.492 1_655 S
C258 C259 1.363 . S
C258 C263 1.390 . S
C259 H224 0.930 1_655 S
C259 C258 1.363 . S
C259 C260 1.372 . S
C260 H225 0.930 . S
C260 C259 1.372 . S
C260 C261 1.383 . S
C261 C260 1.383 . S
C261 C262 1.395 . S
C262 H226 0.930 . S
C262 C261 1.395 . S
C262 C263 1.362 . S
C263 H227 0.930 . S
C263 C258 1.390 . S
C263 C262 1.362 . S
C264 C253 1.492 . S
C264 C265 1.377 . S
C264 C269 1.397 . S
C265 H228 0.931 . S
C265 C264 1.377 . S
C265 C266 1.376 . S
C266 H229 0.930 . S
C266 C265 1.376 . S
C266 C267 1.376 . S
C267 C266 1.376 . S
C267 C268 1.378 . S
C267 C294 1.486 . S
C268 H230 0.930 . S
C268 C267 1.378 . S
C268 C269 1.376 . S
C269 H231 0.929 . S
C269 C264 1.397 . S
C269 C268 1.376 . S
C270 C254 1.509 . S
C270 C271 1.391 . S
C270 C275 1.386 . S
C271 H232 0.930 . S
C271 C270 1.391 . S
C271 C272 1.375 . S
C272 H233 0.931 . S
C272 C271 1.375 . S
C272 C273 1.375 . S
C273 C272 1.375 . S
C273 C274 1.361 . S
C274 H234 0.930 . S
C274 C273 1.361 . S
C274 C275 1.399 . S
C275 H235 0.929 . S
C275 C270 1.386 . S
C275 C274 1.399 . S
C276 C255 1.485 . S
C276 C277 1.394 . S
C276 C281 1.360 . S
C277 H236 0.931 . S
C277 C276 1.394 . S
C277 C278 1.372 . S
C278 H237 0.930 . S
C278 C277 1.372 . S
C278 C279 1.397 . S
C279 C278 1.397 . S
C279 C280 1.390 . S
C279 C295 1.476 . S
C280 H238 0.930 . S
C280 C279 1.390 . S
C280 C281 1.366 . S
C281 H239 0.932 . S
C281 C276 1.360 . S
C281 C280 1.366 . S
C282 C256 1.490 . S
C282 C283 1.380 . S
C282 C287 1.386 . S
C283 H240 0.930 . S
C283 C282 1.380 . S
C283 C284 1.381 . S
C284 H241 0.929 . S
C284 C283 1.381 . S
C284 C285 1.371 . S
C285 C284 1.371 . S
C285 C286 1.380 . S
C286 H242 0.931 . S
C286 C285 1.380 . S
C286 C287 1.387 . S
C287 H243 0.930 . S
C287 C282 1.386 . S
C287 C286 1.387 . S
C288 C257 1.519 1_655 S
C288 C289 1.377 . S
C288 C293 1.361 . S
C289 H244 0.929 . S
C289 C288 1.377 . S
C289 C290 1.386 . S
C290 H245 0.931 . S
C290 C289 1.386 . S
C290 C291 1.363 . S
C291 C290 1.363 . S
C291 C292 1.385 . S
C292 H246 0.930 . S
C292 C291 1.385 . S
C292 C293 1.396 . S
C293 H247 0.929 . S
C293 C288 1.361 . S
C293 C292 1.396 . S
C294 O248 1.300 . S
C294 O249 1.209 . S
C294 C267 1.486 . S
C295 O250 1.199 . S
C295 O251 1.297 . S
C295 C279 1.476 . S
H296 O322 0.856 . S
H297 O325 0.854 . S
H298 C333 0.930 . S
H299 C334 0.930 . S
H300 C336 0.930 . S
H301 C337 0.930 . S
H302 C339 0.931 . S
H303 C340 0.930 . S
H304 C342 0.930 . S
H305 C343 0.929 . S
H306 C345 0.930 . S
H307 C346 0.931 . S
H308 C348 0.930 . S
H309 C349 0.929 . S
H310 C351 0.931 . S
H311 C352 0.930 . S
H312 C354 0.930 . S
H313 C355 0.932 . S
H314 C357 0.930 . S
H315 C358 0.929 . S
H316 C360 0.931 . S
H317 C361 0.930 . S
H318 C363 0.948 . S
H319 C364 0.931 . S
H320 C366 0.930 . S
H321 C367 0.929 . S
O322 H296 0.856 . S
O322 C368 1.300 . S
O323 C368 1.209 . S
O324 C369 1.199 . S
O325 H297 0.854 . S
O325 C369 1.297 . S
C326 C327 1.404 . S
C326 C331 1.397 . S
C326 C332 1.492 1_565 S
C327 C326 1.404 . S
C327 C328 1.396 . S
C327 C338 1.492 . S
C328 C327 1.396 . S
C328 C329 1.397 . S
C328 C344 1.509 . S
C329 C328 1.397 . S
C329 C330 1.412 1_556 S
C329 C350 1.485 1_556 S
C330 C329 1.412 1_554 S
C330 C331 1.388 1_554 S
C330 C356 1.490 . S
C331 C326 1.397 . S
C331 C330 1.388 1_556 S
C331 C362 1.517 1_565 S
C332 C326 1.492 1_545 S
C332 C333 1.363 . S
C332 C337 1.390 . S
C333 H298 0.930 . S
C333 C332 1.363 . S
C333 C334 1.372 . S
C334 H299 0.930 . S
C334 C333 1.372 . S
C334 C335 1.383 . S
C335 C334 1.383 . S
C335 C336 1.395 . S
C336 H300 0.930 . S
C336 C335 1.395 . S
C336 C337 1.362 . S
C337 H301 0.930 . S
C337 C332 1.390 . S
C337 C336 1.362 . S
C338 C327 1.492 . S
C338 C339 1.377 . S
C338 C343 1.397 . S
C339 H302 0.931 . S
C339 C338 1.377 . S
C339 C340 1.376 . S
C340 H303 0.930 . S
C340 C339 1.376 . S
C340 C341 1.376 . S
C341 C340 1.376 . S
C341 C342 1.378 . S
C341 C368 1.486 . S
C342 H304 0.930 . S
C342 C341 1.378 . S
C342 C343 1.376 . S
C343 H305 0.929 . S
C343 C338 1.397 . S
C343 C342 1.376 . S
C344 C328 1.509 . S
C344 C345 1.391 . S
C344 C349 1.386 . S
C345 H306 0.930 . S
C345 C344 1.391 . S
C345 C346 1.375 . S
C346 H307 0.931 . S
C346 C345 1.375 . S
C346 C347 1.375 . S
C347 C346 1.375 . S
C347 C348 1.361 . S
C348 H308 0.930 . S
C348 C347 1.361 . S
C348 C349 1.399 . S
C349 H309 0.929 . S
C349 C344 1.386 . S
C349 C348 1.399 . S
C350 C329 1.485 1_554 S
C350 C351 1.394 . S
C350 C355 1.360 . S
C351 H310 0.931 . S
C351 C350 1.394 . S
C351 C352 1.372 . S
C352 H311 0.930 . S
C352 C351 1.372 . S
C352 C353 1.397 . S
C353 C352 1.397 . S
C353 C354 1.390 . S
C353 C369 1.476 . S
C354 H312 0.930 . S
C354 C353 1.390 . S
C354 C355 1.366 . S
C355 H313 0.932 . S
C355 C350 1.360 . S
C355 C354 1.366 . S
C356 C330 1.490 . S
C356 C357 1.380 . S
C356 C361 1.386 . S
C357 H314 0.930 . S
C357 C356 1.380 . S
C357 C358 1.381 . S
C358 H315 0.929 . S
C358 C357 1.381 . S
C358 C359 1.371 . S
C359 C358 1.371 . S
C359 C360 1.380 . S
C360 H316 0.931 . S
C360 C359 1.380 . S
C360 C361 1.387 . S
C361 H317 0.930 . S
C361 C356 1.386 . S
C361 C360 1.387 . S
C362 C331 1.517 1_545 S
C362 C363 1.376 . S
C362 C367 1.362 1_556 S
C363 H318 0.948 . S
C363 C362 1.376 . S
C363 C364 1.370 1_556 S
C364 H319 0.931 . S
C364 C363 1.370 1_554 S
C364 C365 1.363 . S
C365 C364 1.363 . S
C365 C366 1.385 . S
C366 H320 0.930 . S
C366 C365 1.385 . S
C366 C367 1.396 . S
C367 H321 0.929 . S
C367 C362 1.362 1_554 S
C367 C366 1.396 . S
C368 O322 1.300 . S
C368 O323 1.209 . S
C368 C341 1.486 . S
C369 O324 1.199 . S
C369 O325 1.297 . S
C369 C353 1.476 . S
H370 O396 0.856 1_556 S
H371 O399 0.854 . S
H372 C407 0.930 . S
H373 C408 0.930 . S
H374 C410 0.930 . S
H375 C411 0.930 . S
H376 C413 0.931 . S
H377 C414 0.930 . S
H378 C416 0.930 . S
H379 C417 0.929 . S
H380 C419 0.930 . S
H381 C420 0.931 . S
H382 C422 0.930 . S
H383 C423 0.929 . S
H384 C425 0.931 . S
H385 C426 0.930 . S
H386 C428 0.930 . S
H387 C429 0.932 . S
H388 C431 0.930 . S
H389 C432 0.929 . S
H390 C434 0.931 . S
H391 C435 0.930 . S
H392 C437 0.929 . S
H393 C438 0.931 . S
H394 C440 0.930 . S
H395 C441 0.929 . S
O396 H370 0.856 1_554 S
O396 C442 1.300 . S
O397 C442 1.207 1_556 S
O398 C443 1.199 . S
O399 H371 0.854 . S
O399 C443 1.297 . S
C400 C401 1.404 . S
C400 C405 1.397 . S
C400 C406 1.492 . S
C401 C400 1.404 . S
C401 C402 1.396 . S
C401 C412 1.492 . S
C402 C401 1.396 . S
C402 C403 1.397 . S
C402 C418 1.509 . S
C403 C402 1.397 . S
C403 C404 1.412 . S
C403 C424 1.485 . S
C404 C403 1.412 . S
C404 C405 1.388 . S
C404 C430 1.490 . S
C405 C400 1.397 . S
C405 C404 1.388 . S
C405 C436 1.519 . S
C406 C400 1.492 . S
C406 C407 1.363 . S
C406 C411 1.390 . S
C407 H372 0.930 . S
C407 C406 1.363 . S
C407 C408 1.372 . S
C408 H373 0.930 . S
C408 C407 1.372 . S
C408 C409 1.383 . S
C409 C408 1.383 . S
C409 C410 1.395 . S
C410 H374 0.930 . S
C410 C409 1.395 . S
C410 C411 1.362 . S
C411 H375 0.930 . S
C411 C406 1.390 . S
C411 C410 1.362 . S
C412 C401 1.492 . S
C412 C413 1.377 . S
C412 C417 1.397 . S
C413 H376 0.931 . S
C413 C412 1.377 . S
C413 C414 1.376 . S
C414 H377 0.930 . S
C414 C413 1.376 . S
C414 C415 1.376 . S
C415 C414 1.376 . S
C415 C416 1.378 . S
C415 C442 1.486 . S
C416 H378 0.930 . S
C416 C415 1.378 . S
C416 C417 1.376 . S
C417 H379 0.929 . S
C417 C412 1.397 . S
C417 C416 1.376 . S
C418 C402 1.509 . S
C418 C419 1.391 . S
C418 C423 1.386 . S
C419 H380 0.930 . S
C419 C418 1.391 . S
C419 C420 1.375 . S
C420 H381 0.931 . S
C420 C419 1.375 . S
C420 C421 1.375 . S
C421 C420 1.375 . S
C421 C422 1.361 . S
C422 H382 0.930 . S
C422 C421 1.361 . S
C422 C423 1.399 . S
C423 H383 0.929 . S
C423 C418 1.386 . S
C423 C422 1.399 . S
C424 C403 1.485 . S
C424 C425 1.394 . S
C424 C429 1.360 . S
C425 H384 0.931 . S
C425 C424 1.394 . S
C425 C426 1.372 . S
C426 H385 0.930 . S
C426 C425 1.372 . S
C426 C427 1.397 . S
C427 C426 1.397 . S
C427 C428 1.390 . S
C427 C443 1.476 . S
C428 H386 0.930 . S
C428 C427 1.390 . S
C428 C429 1.366 . S
C429 H387 0.932 . S
C429 C424 1.360 . S
C429 C428 1.366 . S
C430 C404 1.490 . S
C430 C431 1.380 . S
C430 C435 1.386 . S
C431 H388 0.930 . S
C431 C430 1.380 . S
C431 C432 1.381 . S
C432 H389 0.929 . S
C432 C431 1.381 . S
C432 C433 1.371 . S
C433 C432 1.371 . S
C433 C434 1.380 . S
C434 H390 0.931 . S
C434 C433 1.380 . S
C434 C435 1.387 . S
C435 H391 0.930 . S
C435 C430 1.386 . S
C435 C434 1.387 . S
C436 C405 1.519 . S
C436 C437 1.377 . S
C436 C441 1.361 . S
C437 H392 0.929 . S
C437 C436 1.377 . S
C437 C438 1.386 . S
C438 H393 0.931 . S
C438 C437 1.386 . S
C438 C439 1.363 . S
C439 C438 1.363 . S
C439 C440 1.385 . S
C440 H394 0.930 . S
C440 C439 1.385 . S
C440 C441 1.396 . S
C441 H395 0.929 . S
C441 C436 1.361 . S
C441 C440 1.396 . S
C442 O396 1.300 . S
C442 O397 1.207 1_554 S
C442 C415 1.486 . S
C443 O398 1.199 . S
C443 O399 1.297 . S
C443 C427 1.476 . S
C444 O445 1.160 . S
C444 O451 1.185 . S
O445 C444 1.160 . S
O446 Zn447 1.899 . S
O446 C454 1.284 . S
Zn447 O446 1.899 . S
Zn447 O448 2.032 . S
Zn447 O451 2.086 . S
Zn447 O456 1.977 . S
O448 Zn447 2.032 . S
O448 C452 1.278 . S
C449 O450 1.203 . S
C449 O456 1.267 . S
O450 C449 1.203 . S
O451 C444 1.185 . S
O451 Zn447 2.086 . S
C452 O448 1.278 . S
C452 O453 1.211 . S
O453 C452 1.211 . S
C454 O446 1.284 . S
C454 O455 1.273 . S
O455 C454 1.273 . S
O456 Zn447 1.977 . S
O456 C449 1.267 . S
C457 O458 1.160 . S
C457 O464 1.185 . S
O458 C457 1.160 . S
O459 Zn460 1.899 . S
O459 C467 1.284 . S
Zn460 O459 1.899 . S
Zn460 O461 2.032 . S
Zn460 O464 2.086 . S
Zn460 O469 1.977 . S
O461 Zn460 2.032 . S
O461 C465 1.278 . S
C462 O463 1.203 . S
C462 O469 1.267 . S
O463 C462 1.203 . S
O464 C457 1.185 . S
O464 Zn460 2.086 . S
C465 O461 1.278 . S
C465 O466 1.211 . S
O466 C465 1.211 . S
C467 O459 1.284 . S
C467 O468 1.273 . S
O468 C467 1.273 . S
O469 Zn460 1.977 . S
O469 C462 1.267 . S
C470 O471 1.160 . S
C470 O477 1.185 . S
O471 C470 1.160 . S
O472 Zn473 1.899 . S
O472 C480 1.284 . S
Zn473 O472 1.899 . S
Zn473 O474 2.032 . S
Zn473 O477 2.086 . S
Zn473 O482 1.977 . S
O474 Zn473 2.032 . S
O474 C478 1.278 . S
C475 O476 1.203 . S
C475 O482 1.267 . S
O476 C475 1.203 . S
O477 C470 1.185 . S
O477 Zn473 2.086 . S
C478 O474 1.278 . S
C478 O479 1.211 . S
O479 C478 1.211 . S
C480 O472 1.284 . S
C480 O481 1.273 . S
O481 C480 1.273 . S
O482 Zn473 1.977 . S
O482 C475 1.267 . S
C483 O484 1.160 . S
C483 O490 1.185 . S
O484 C483 1.160 . S
O485 Zn486 1.899 . S
O485 C493 1.284 . S
Zn486 O485 1.899 . S
Zn486 O487 2.032 . S
Zn486 O490 2.086 . S
Zn486 O495 1.977 . S
O487 Zn486 2.032 . S
O487 C491 1.278 . S
C488 O489 1.203 . S
C488 O495 1.267 . S
O489 C488 1.203 . S
O490 C483 1.185 . S
O490 Zn486 2.086 . S
C491 O487 1.278 . S
C491 O492 1.211 . S
O492 C491 1.211 . S
C493 O485 1.284 . S
C493 O494 1.273 . S
O494 C493 1.273 . S
O495 Zn486 1.977 . S
O495 C488 1.267 . S
C496 O497 1.160 . S
C496 O503 1.185 . S
O497 C496 1.160 . S
O498 Zn499 1.899 . S
O498 C506 1.284 . S
Zn499 O498 1.899 . S
Zn499 O500 2.032 . S
Zn499 O503 2.086 . S
Zn499 O508 1.977 . S
O500 Zn499 2.032 . S
O500 C504 1.278 . S
C501 O502 1.203 . S
C501 O508 1.267 . S
O502 C501 1.203 . S
O503 C496 1.185 . S
O503 Zn499 2.086 . S
C504 O500 1.278 . S
C504 O505 1.211 . S
O505 C504 1.211 . S
C506 O498 1.284 . S
C506 O507 1.273 . S
O507 C506 1.273 . S
O508 Zn499 1.977 . S
O508 C501 1.267 . S
C509 O510 1.160 . S
C509 O516 1.185 . S
O510 C509 1.160 . S
O511 Zn512 1.899 . S
O511 C519 1.284 . S
Zn512 O511 1.899 . S
Zn512 O513 2.032 . S
Zn512 O516 2.086 . S
Zn512 O521 1.977 . S
O513 Zn512 2.032 . S
O513 C517 1.278 . S
C514 O515 1.203 . S
C514 O521 1.267 . S
O515 C514 1.203 . S
O516 C509 1.185 . S
O516 Zn512 2.086 . S
C517 O513 1.278 . S
C517 O518 1.211 . S
O518 C517 1.211 . S
C519 O511 1.284 . S
C519 O520 1.273 . S
O520 C519 1.273 . S
O521 Zn512 1.977 . S
O521 C514 1.267 . S
C522 C523 1.391 . S
C522 C524 1.394 . S
C522 H538 0.931 . S
C523 C522 1.391 . S
C523 C527 1.376 . S
C524 C522 1.394 . S
C524 C525 1.369 . S
C524 C528 1.531 . S
C525 C524 1.369 . S
C525 C526 1.410 . S
C525 C533 1.503 . S
C526 C525 1.410 . S
C526 C527 1.392 . S
C526 C529 1.511 . S
C527 C523 1.376 . S
C527 C526 1.392 . S
C527 H539 0.929 . S
C528 C524 1.531 . S
C528 H540 0.960 . S
C528 H541 0.962 . S
C528 H542 0.960 . S
C529 C526 1.511 . S
C529 H543 0.961 . S
C529 H544 0.961 . S
C529 H545 0.961 . S
C530 C531 1.370 . S
C530 C532 1.363 . S
C530 H546 0.931 . S
C531 C530 1.370 . S
C531 C535 1.408 . S
C532 C530 1.363 . S
C532 C533 1.370 . S
C532 C536 1.524 . S
C533 C525 1.503 . S
C533 C532 1.370 . S
C533 C534 1.403 . S
C534 C533 1.403 . S
C534 C535 1.404 . S
C534 C537 1.539 . S
C535 C531 1.408 . S
C535 C534 1.404 . S
C535 H547 0.930 . S
C536 C532 1.524 . S
C536 H548 0.956 . S
C536 H549 0.961 . S
C536 H550 0.961 . S
C537 C534 1.539 . S
C537 H551 0.958 . S
C537 H552 0.961 . S
C537 H553 0.960 . S
H538 C522 0.931 . S
H539 C527 0.929 . S
H540 C528 0.960 . S
H541 C528 0.962 . S
H542 C528 0.960 . S
H543 C529 0.961 . S
H544 C529 0.961 . S
H545 C529 0.961 . S
H546 C530 0.931 . S
H547 C535 0.930 . S
H548 C536 0.956 . S
H549 C536 0.961 . S
H550 C536 0.961 . S
H551 C537 0.958 . S
H552 C537 0.961 . S
H553 C537 0.960 . S
C554 C555 1.391 . S
C554 C556 1.394 . S
C554 H570 0.931 . S
C555 C554 1.391 . S
C555 C559 1.376 . S
C556 C554 1.394 . S
C556 C557 1.369 . S
C556 C560 1.531 . S
C557 C556 1.369 . S
C557 C558 1.410 . S
C557 C565 1.503 . S
C558 C557 1.410 . S
C558 C559 1.392 . S
C558 C561 1.511 . S
C559 C555 1.376 . S
C559 C558 1.392 . S
C559 H571 0.929 . S
C560 C556 1.531 . S
C560 H572 0.960 . S
C560 H573 0.962 . S
C560 H574 0.960 . S
C561 C558 1.511 . S
C561 H575 0.961 . S
C561 H576 0.961 . S
C561 H577 0.961 . S
C562 C563 1.370 . S
C562 C564 1.363 . S
C562 H578 0.931 . S
C563 C562 1.370 . S
C563 C567 1.408 . S
C564 C562 1.363 . S
C564 C565 1.370 . S
C564 C568 1.524 . S
C565 C557 1.503 . S
C565 C564 1.370 . S
C565 C566 1.403 . S
C566 C565 1.403 . S
C566 C567 1.404 . S
C566 C569 1.539 . S
C567 C563 1.408 . S
C567 C566 1.404 . S
C567 H579 0.930 . S
C568 C564 1.524 . S
C568 H580 0.956 . S
C568 H581 0.961 . S
C568 H582 0.961 . S
C569 C566 1.539 . S
C569 H583 0.958 . S
C569 H584 0.961 . S
C569 H585 0.960 . S
H570 C554 0.931 . S
H571 C559 0.929 . S
H572 C560 0.960 . S
H573 C560 0.962 . S
H574 C560 0.960 . S
H575 C561 0.961 . S
H576 C561 0.961 . S
H577 C561 0.961 . S
H578 C562 0.931 . S
H579 C567 0.930 . S
H580 C568 0.956 . S
H581 C568 0.961 . S
H582 C568 0.961 . S
H583 C569 0.958 . S
H584 C569 0.961 . S
H585 C569 0.960 . S
C586 C587 1.391 . S
C586 C588 1.394 . S
C586 H602 0.931 . S
C587 C586 1.391 . S
C587 C591 1.376 . S
C588 C586 1.394 . S
C588 C589 1.369 . S
C588 C592 1.531 . S
C589 C588 1.369 . S
C589 C590 1.410 . S
C589 C597 1.503 . S
C590 C589 1.410 . S
C590 C591 1.392 . S
C590 C593 1.511 . S
C591 C587 1.376 . S
C591 C590 1.392 . S
C591 H603 0.929 . S
C592 C588 1.531 . S
C592 H604 0.960 . S
C592 H605 0.962 . S
C592 H606 0.960 . S
C593 C590 1.511 . S
C593 H607 0.961 . S
C593 H608 0.961 . S
C593 H609 0.961 . S
C594 C595 1.370 . S
C594 C596 1.363 . S
C594 H610 0.931 . S
C595 C594 1.370 . S
C595 C599 1.408 . S
C596 C594 1.363 . S
C596 C597 1.370 . S
C596 C600 1.524 . S
C597 C589 1.503 . S
C597 C596 1.370 . S
C597 C598 1.403 . S
C598 C597 1.403 . S
C598 C599 1.404 . S
C598 C601 1.539 . S
C599 C595 1.408 . S
C599 C598 1.404 . S
C599 H611 0.930 . S
C600 C596 1.524 . S
C600 H612 0.956 . S
C600 H613 0.961 . S
C600 H614 0.961 . S
C601 C598 1.539 . S
C601 H615 0.958 . S
C601 H616 0.961 . S
C601 H617 0.960 . S
H602 C586 0.931 . S
H603 C591 0.929 . S
H604 C592 0.960 . S
H605 C592 0.962 . S
H606 C592 0.960 . S
H607 C593 0.961 . S
H608 C593 0.961 . S
H609 C593 0.961 . S
H610 C594 0.931 . S
H611 C599 0.930 . S
H612 C600 0.956 . S
H613 C600 0.961 . S
H614 C600 0.961 . S
H615 C601 0.958 . S
H616 C601 0.961 . S
H617 C601 0.960 . S
C618 C619 1.391 . S
C618 C620 1.394 . S
C618 H634 0.931 . S
C619 C618 1.391 . S
C619 C623 1.376 . S
C620 C618 1.394 . S
C620 C621 1.369 . S
C620 C624 1.531 . S
C621 C620 1.369 . S
C621 C622 1.410 . S
C621 C629 1.503 . S
C622 C621 1.410 . S
C622 C623 1.392 . S
C622 C625 1.511 . S
C623 C619 1.376 . S
C623 C622 1.392 . S
C623 H635 0.929 . S
C624 C620 1.531 . S
C624 H636 0.960 . S
C624 H637 0.962 . S
C624 H638 0.960 . S
C625 C622 1.511 . S
C625 H639 0.961 . S
C625 H640 0.961 . S
C625 H641 0.961 . S
C626 C627 1.370 . S
C626 C628 1.363 . S
C626 H642 0.931 . S
C627 C626 1.370 . S
C627 C631 1.408 . S
C628 C626 1.363 . S
C628 C629 1.370 . S
C628 C632 1.524 . S
C629 C621 1.503 . S
C629 C628 1.370 . S
C629 C630 1.403 . S
C630 C629 1.403 . S
C630 C631 1.404 . S
C630 C633 1.539 . S
C631 C627 1.408 . S
C631 C630 1.404 . S
C631 H643 0.930 . S
C632 C628 1.524 . S
C632 H644 0.956 . S
C632 H645 0.961 . S
C632 H646 0.961 . S
C633 C630 1.539 . S
C633 H647 0.958 . S
C633 H648 0.961 . S
C633 H649 0.960 . S
H634 C618 0.931 . S
H635 C623 0.929 . S
H636 C624 0.960 . S
H637 C624 0.962 . S
H638 C624 0.960 . S
H639 C625 0.961 . S
H640 C625 0.961 . S
H641 C625 0.961 . S
H642 C626 0.931 . S
H643 C631 0.930 . S
H644 C632 0.956 . S
H645 C632 0.961 . S
H646 C632 0.961 . S
H647 C633 0.958 . S
H648 C633 0.961 . S
H649 C633 0.960 . S
C650 C651 1.391 . S
C650 C652 1.394 . S
C650 H666 0.931 . S
C651 C650 1.391 . S
C651 C655 1.376 . S
C652 C650 1.394 . S
C652 C653 1.369 . S
C652 C656 1.531 . S
C653 C652 1.369 . S
C653 C654 1.410 . S
C653 C661 1.503 . S
C654 C653 1.410 . S
C654 C655 1.392 . S
C654 C657 1.511 . S
C655 C651 1.376 . S
C655 C654 1.392 . S
C655 H667 0.929 . S
C656 C652 1.531 . S
C656 H668 0.960 . S
C656 H669 0.962 . S
C656 H670 0.960 . S
C657 C654 1.511 . S
C657 H671 0.961 . S
C657 H672 0.961 . S
C657 H673 0.961 . S
C658 C659 1.370 . S
C658 C660 1.363 . S
C658 H674 0.931 . S
C659 C658 1.370 . S
C659 C663 1.408 . S
C660 C658 1.363 . S
C660 C661 1.370 . S
C660 C664 1.524 . S
C661 C653 1.503 . S
C661 C660 1.370 . S
C661 C662 1.403 . S
C662 C661 1.403 . S
C662 C663 1.404 . S
C662 C665 1.539 . S
C663 C659 1.408 . S
C663 C662 1.404 . S
C663 H675 0.930 . S
C664 C660 1.524 . S
C664 H676 0.956 . S
C664 H677 0.961 . S
C664 H678 0.961 . S
C665 C662 1.539 . S
C665 H679 0.958 . S
C665 H680 0.961 . S
C665 H681 0.960 . S
H666 C650 0.931 . S
H667 C655 0.929 . S
H668 C656 0.960 . S
H669 C656 0.962 . S
H670 C656 0.960 . S
H671 C657 0.961 . S
H672 C657 0.961 . S
H673 C657 0.961 . S
H674 C658 0.931 . S
H675 C663 0.930 . S
H676 C664 0.956 . S
H677 C664 0.961 . S
H678 C664 0.961 . S
H679 C665 0.958 . S
H680 C665 0.961 . S
H681 C665 0.960 . S
C682 C683 1.391 . S
C682 C684 1.394 . S
C682 H698 0.931 . S
C683 C682 1.391 . S
C683 C687 1.376 . S
C684 C682 1.394 . S
C684 C685 1.369 . S
C684 C688 1.531 . S
C685 C684 1.369 . S
C685 C686 1.410 . S
C685 C693 1.503 . S
C686 C685 1.410 . S
C686 C687 1.392 . S
C686 C689 1.511 . S
C687 C683 1.376 . S
C687 C686 1.392 . S
C687 H699 0.929 . S
C688 C684 1.531 . S
C688 H700 0.960 . S
C688 H701 0.962 . S
C688 H702 0.960 . S
C689 C686 1.511 . S
C689 H703 0.961 . S
C689 H704 0.961 . S
C689 H705 0.961 . S
C690 C691 1.370 . S
C690 C692 1.363 . S
C690 H706 0.931 . S
C691 C690 1.370 . S
C691 C695 1.408 . S
C692 C690 1.363 . S
C692 C693 1.370 . S
C692 C696 1.524 . S
C693 C685 1.503 . S
C693 C692 1.370 . S
C693 C694 1.403 . S
C694 C693 1.403 . S
C694 C695 1.404 . S
C694 C697 1.539 . S
C695 C691 1.408 . S
C695 C694 1.404 . S
C695 H707 0.930 . S
C696 C692 1.524 . S
C696 H708 0.956 . S
C696 H709 0.961 . S
C696 H710 0.961 . S
C697 C694 1.539 . S
C697 H711 0.958 . S
C697 H712 0.961 . S
C697 H713 0.960 . S
H698 C682 0.931 . S
H699 C687 0.929 . S
H700 C688 0.960 . S
H701 C688 0.962 . S
H702 C688 0.960 . S
H703 C689 0.961 . S
H704 C689 0.961 . S
H705 C689 0.961 . S
H706 C690 0.931 . S
H707 C695 0.930 . S
H708 C696 0.956 . S
H709 C696 0.961 . S
H710 C696 0.961 . S
H711 C697 0.958 . S
H712 C697 0.961 . S
H713 C697 0.960 . S
C714 C715 1.391 . S
C714 C716 1.394 . S
C714 H730 0.931 . S
C715 C714 1.391 . S
C715 C719 1.376 . S
C716 C714 1.394 . S
C716 C717 1.369 . S
C716 C720 1.531 . S
C717 C716 1.369 . S
C717 C718 1.410 . S
C717 C725 1.503 . S
C718 C717 1.410 . S
C718 C719 1.392 . S
C718 C721 1.511 . S
C719 C715 1.376 . S
C719 C718 1.392 . S
C719 H731 0.929 . S
C720 C716 1.531 . S
C720 H732 0.960 . S
C720 H733 0.962 . S
C720 H734 0.960 . S
C721 C718 1.511 . S
C721 H735 0.961 . S
C721 H736 0.961 . S
C721 H737 0.961 . S
C722 C723 1.370 . S
C722 C724 1.363 . S
C722 H738 0.931 . S
C723 C722 1.370 . S
C723 C727 1.408 . S
C724 C722 1.363 . S
C724 C725 1.370 . S
C724 C728 1.524 . S
C725 C717 1.503 . S
C725 C724 1.370 . S
C725 C726 1.403 . S
C726 C725 1.403 . S
C726 C727 1.404 . S
C726 C729 1.539 . S
C727 C723 1.408 . S
C727 C726 1.404 . S
C727 H739 0.930 . S
C728 C724 1.524 . S
C728 H740 0.956 . S
C728 H741 0.961 . S
C728 H742 0.961 . S
C729 C726 1.539 . S
C729 H743 0.958 . S
C729 H744 0.961 . S
C729 H745 0.960 . S
H730 C714 0.931 . S
H731 C719 0.929 . S
H732 C720 0.960 . S
H733 C720 0.962 . S
H734 C720 0.960 . S
H735 C721 0.961 . S
H736 C721 0.961 . S
H737 C721 0.961 . S
H738 C722 0.931 . S
H739 C727 0.930 . S
H740 C728 0.956 . S
H741 C728 0.961 . S
H742 C728 0.961 . S
H743 C729 0.958 . S
H744 C729 0.961 . S
H745 C729 0.960 . S
C746 C747 1.391 . S
C746 C748 1.394 . S
C746 H762 0.931 . S
C747 C746 1.391 . S
C747 C751 1.376 . S
C748 C746 1.394 . S
C748 C749 1.369 . S
C748 C752 1.531 . S
C749 C748 1.369 . S
C749 C750 1.410 . S
C749 C757 1.503 . S
C750 C749 1.410 . S
C750 C751 1.392 . S
C750 C753 1.511 . S
C751 C747 1.376 . S
C751 C750 1.392 . S
C751 H763 0.929 . S
C752 C748 1.531 . S
C752 H764 0.960 . S
C752 H765 0.962 . S
C752 H766 0.960 . S
C753 C750 1.511 . S
C753 H767 0.961 . S
C753 H768 0.961 . S
C753 H769 0.961 . S
C754 C755 1.370 . S
C754 C756 1.363 . S
C754 H770 0.931 . S
C755 C754 1.370 . S
C755 C759 1.408 . S
C756 C754 1.363 . S
C756 C757 1.370 . S
C756 C760 1.524 . S
C757 C749 1.503 . S
C757 C756 1.370 . S
C757 C758 1.403 . S
C758 C757 1.403 . S
C758 C759 1.404 . S
C758 C761 1.539 . S
C759 C755 1.408 . S
C759 C758 1.404 . S
C759 H771 0.930 . S
C760 C756 1.524 . S
C760 H772 0.956 . S
C760 H773 0.961 . S
C760 H774 0.961 . S
C761 C758 1.539 . S
C761 H775 0.958 . S
C761 H776 0.961 . S
C761 H777 0.960 . S
H762 C746 0.931 . S
H763 C751 0.929 . S
H764 C752 0.960 . S
H765 C752 0.962 . S
H766 C752 0.960 . S
H767 C753 0.961 . S
H768 C753 0.961 . S
H769 C753 0.961 . S
H770 C754 0.931 . S
H771 C759 0.930 . S
H772 C760 0.956 . S
H773 C760 0.961 . S
H774 C760 0.961 . S
H775 C761 0.958 . S
H776 C761 0.961 . S
H777 C761 0.960 . S
C778 C779 1.391 . S
C778 C780 1.394 . S
C778 H794 0.931 . S
C779 C778 1.391 . S
C779 C783 1.376 . S
C780 C778 1.394 . S
C780 C781 1.369 . S
C780 C784 1.531 . S
C781 C780 1.369 . S
C781 C782 1.410 . S
C781 C789 1.503 . S
C782 C781 1.410 . S
C782 C783 1.392 . S
C782 C785 1.511 . S
C783 C779 1.376 . S
C783 C782 1.392 . S
C783 H795 0.929 . S
C784 C780 1.531 . S
C784 H796 0.960 . S
C784 H797 0.962 . S
C784 H798 0.960 . S
C785 C782 1.511 . S
C785 H799 0.961 . S
C785 H800 0.961 . S
C785 H801 0.961 . S
C786 C787 1.370 . S
C786 C788 1.363 . S
C786 H802 0.931 . S
C787 C786 1.370 . S
C787 C791 1.408 . S
C788 C786 1.363 . S
C788 C789 1.370 . S
C788 C792 1.524 . S
C789 C781 1.503 . S
C789 C788 1.370 . S
C789 C790 1.403 . S
C790 C789 1.403 . S
C790 C791 1.404 . S
C790 C793 1.539 . S
C791 C787 1.408 . S
C791 C790 1.404 . S
C791 H803 0.930 . S
C792 C788 1.524 . S
C792 H804 0.956 . S
C792 H805 0.961 . S
C792 H806 0.961 . S
C793 C790 1.539 . S
C793 H807 0.958 . S
C793 H808 0.961 . S
C793 H809 0.960 . S
H794 C778 0.931 . S
H795 C783 0.929 . S
H796 C784 0.960 . S
H797 C784 0.962 . S
H798 C784 0.960 . S
H799 C785 0.961 . S
H800 C785 0.961 . S
H801 C785 0.961 . S
H802 C786 0.931 . S
H803 C791 0.930 . S
H804 C792 0.956 . S
H805 C792 0.961 . S
H806 C792 0.961 . S
H807 C793 0.958 . S
H808 C793 0.961 . S
H809 C793 0.960 . S
C810 C811 1.391 . S
C810 C812 1.394 . S
C810 H826 0.931 . S
C811 C810 1.391 . S
C811 C815 1.376 . S
C812 C810 1.394 . S
C812 C813 1.369 . S
C812 C816 1.531 . S
C813 C812 1.369 . S
C813 C814 1.410 . S
C813 C821 1.503 . S
C814 C813 1.410 . S
C814 C815 1.392 . S
C814 C817 1.511 . S
C815 C811 1.376 . S
C815 C814 1.392 . S
C815 H827 0.929 . S
C816 C812 1.531 . S
C816 H828 0.960 . S
C816 H829 0.962 . S
C816 H830 0.960 . S
C817 C814 1.511 . S
C817 H831 0.961 . S
C817 H832 0.961 . S
C817 H833 0.961 . S
C818 C819 1.370 . S
C818 C820 1.363 . S
C818 H834 0.931 . S
C819 C818 1.370 . S
C819 C823 1.408 . S
C820 C818 1.363 . S
C820 C821 1.370 . S
C820 C824 1.524 . S
C821 C813 1.503 . S
C821 C820 1.370 . S
C821 C822 1.403 . S
C822 C821 1.403 . S
C822 C823 1.404 . S
C822 C825 1.539 . S
C823 C819 1.408 . S
C823 C822 1.404 . S
C823 H835 0.930 . S
C824 C820 1.524 . S
C824 H836 0.944 1_554 S
C824 H837 0.961 . S
C824 H838 0.961 . S
C825 C822 1.539 . S
C825 H839 0.958 . S
C825 H840 0.961 . S
C825 H841 0.960 . S
H826 C810 0.931 . S
H827 C815 0.929 . S
H828 C816 0.960 . S
H829 C816 0.962 . S
H830 C816 0.960 . S
H831 C817 0.961 . S
H832 C817 0.961 . S
H833 C817 0.961 . S
H834 C818 0.931 . S
H835 C823 0.930 . S
H836 C824 0.944 1_556 S
H837 C824 0.961 . S
H838 C824 0.961 . S
H839 C825 0.958 . S
H840 C825 0.961 . S
H841 C825 0.960 . S
C842 C843 1.391 . S
C842 C844 1.394 . S
C842 H858 0.931 . S
C843 C842 1.391 . S
C843 C847 1.376 . S
C844 C842 1.394 . S
C844 C845 1.369 . S
C844 C848 1.531 . S
C845 C844 1.369 . S
C845 C846 1.410 . S
C845 C853 1.503 . S
C846 C845 1.410 . S
C846 C847 1.392 . S
C846 C849 1.511 . S
C847 C843 1.376 . S
C847 C846 1.392 . S
C847 H859 0.929 . S
C848 C844 1.531 . S
C848 H860 0.960 . S
C848 H861 0.962 . S
C848 H862 0.960 . S
C849 C846 1.511 . S
C849 H863 0.961 . S
C849 H864 0.961 . S
C849 H865 0.961 . S
C850 C851 1.370 . S
C850 C852 1.363 . S
C850 H866 0.931 . S
C851 C850 1.370 . S
C851 C855 1.408 . S
C852 C850 1.363 . S
C852 C853 1.370 . S
C852 C856 1.524 . S
C853 C845 1.503 . S
C853 C852 1.370 . S
C853 C854 1.403 . S
C854 C853 1.403 . S
C854 C855 1.404 . S
C854 C857 1.539 . S
C855 C851 1.408 . S
C855 C854 1.404 . S
C855 H867 0.930 . S
C856 C852 1.524 . S
C856 H868 0.956 . S
C856 H869 0.961 . S
C856 H870 0.961 . S
C857 C854 1.539 . S
C857 H871 0.958 . S
C857 H872 0.961 . S
C857 H873 0.960 . S
H858 C842 0.931 . S
H859 C847 0.929 . S
H860 C848 0.960 . S
H861 C848 0.962 . S
H862 C848 0.960 . S
H863 C849 0.961 . S
H864 C849 0.961 . S
H865 C849 0.961 . S
H866 C850 0.931 . S
H867 C855 0.930 . S
H868 C856 0.956 . S
H869 C856 0.961 . S
H870 C856 0.961 . S
H871 C857 0.958 . S
H872 C857 0.961 . S
H873 C857 0.960 . S
C874 C875 1.391 . S
C874 C876 1.394 . S
C874 H890 0.931 . S
C875 C874 1.391 . S
C875 C879 1.376 . S
C876 C874 1.394 . S
C876 C877 1.369 . S
C876 C880 1.531 . S
C877 C876 1.369 . S
C877 C878 1.410 . S
C877 C885 1.503 . S
C878 C877 1.410 . S
C878 C879 1.392 . S
C878 C881 1.511 . S
C879 C875 1.376 . S
C879 C878 1.392 . S
C879 H891 0.929 . S
C880 C876 1.531 . S
C880 H892 0.960 . S
C880 H893 0.962 . S
C880 H894 0.960 . S
C881 C878 1.511 . S
C881 H895 0.961 . S
C881 H896 0.961 . S
C881 H897 0.961 . S
C882 C883 1.370 . S
C882 C884 1.363 . S
C882 H898 0.931 . S
C883 C882 1.370 . S
C883 C887 1.408 . S
C884 C882 1.363 . S
C884 C885 1.370 . S
C884 C888 1.524 . S
C885 C877 1.503 . S
C885 C884 1.370 . S
C885 C886 1.403 . S
C886 C885 1.403 . S
C886 C887 1.404 . S
C886 C889 1.539 . S
C887 C883 1.408 . S
C887 C886 1.404 . S
C887 H899 0.930 . S
C888 C884 1.524 . S
C888 H900 0.956 . S
C888 H901 0.961 . S
C888 H902 0.961 . S
C889 C886 1.539 . S
C889 H903 0.958 . S
C889 H904 0.961 . S
C889 H905 0.960 . S
H890 C874 0.931 . S
H891 C879 0.929 . S
H892 C880 0.960 . S
H893 C880 0.962 . S
H894 C880 0.960 . S
H895 C881 0.961 . S
H896 C881 0.961 . S
H897 C881 0.961 . S
H898 C882 0.931 . S
H899 C887 0.930 . S
H900 C888 0.956 . S
H901 C888 0.961 . S
H902 C888 0.961 . S
H903 C889 0.958 . S
H904 C889 0.961 . S
H905 C889 0.960 . S
C906 C907 1.391 . S
C906 C908 1.394 . S
C906 H922 0.931 . S
C907 C906 1.391 . S
C907 C911 1.376 . S
C908 C906 1.394 . S
C908 C909 1.369 . S
C908 C912 1.531 . S
C909 C908 1.369 . S
C909 C910 1.410 . S
C909 C917 1.503 . S
C910 C909 1.410 . S
C910 C911 1.392 . S
C910 C913 1.511 . S
C911 C907 1.376 . S
C911 C910 1.392 . S
C911 H923 0.929 . S
C912 C908 1.531 . S
C912 H924 0.960 . S
C912 H925 0.962 . S
C912 H926 0.960 . S
C913 C910 1.511 . S
C913 H927 0.961 . S
C913 H928 0.961 . S
C913 H929 0.961 . S
C914 C915 1.370 . S
C914 C916 1.363 . S
C914 H930 0.931 . S
C915 C914 1.370 . S
C915 C919 1.408 . S
C916 C914 1.363 . S
C916 C917 1.370 . S
C916 C920 1.524 . S
C917 C909 1.503 . S
C917 C916 1.370 . S
C917 C918 1.403 . S
C918 C917 1.403 . S
C918 C919 1.404 . S
C918 C921 1.539 . S
C919 C915 1.408 . S
C919 C918 1.404 . S
C919 H931 0.930 . S
C920 C916 1.524 . S
C920 H932 0.956 . S
C920 H933 0.961 . S
C920 H934 0.961 . S
C921 C918 1.539 . S
C921 H935 0.958 . S
C921 H936 0.961 . S
C921 H937 0.960 . S
H922 C906 0.931 . S
H923 C911 0.929 . S
H924 C912 0.960 . S
H925 C912 0.962 . S
H926 C912 0.960 . S
H927 C913 0.961 . S
H928 C913 0.961 . S
H929 C913 0.961 . S
H930 C914 0.931 . S
H931 C919 0.930 . S
H932 C920 0.956 . S
H933 C920 0.961 . S
H934 C920 0.961 . S
H935 C921 0.958 . S
H936 C921 0.961 . S
H937 C921 0.960 . S
C938 C939 1.391 . S
C938 C940 1.394 . S
C938 H954 0.931 . S
C939 C938 1.391 . S
C939 C943 1.376 . S
C940 C938 1.394 . S
C940 C941 1.369 . S
C940 C944 1.531 . S
C941 C940 1.369 . S
C941 C942 1.410 . S
C941 C949 1.503 . S
C942 C941 1.410 . S
C942 C943 1.392 . S
C942 C945 1.511 . S
C943 C939 1.376 . S
C943 C942 1.392 . S
C943 H955 0.929 . S
C944 C940 1.531 . S
C944 H956 0.960 . S
C944 H957 0.962 . S
C944 H958 0.960 . S
C945 C942 1.511 . S
C945 H959 0.961 . S
C945 H960 0.961 . S
C945 H961 0.961 . S
C946 C947 1.370 . S
C946 C948 1.363 . S
C946 H962 0.931 . S
C947 C946 1.370 . S
C947 C951 1.408 . S
C948 C946 1.363 . S
C948 C949 1.370 . S
C948 C952 1.524 . S
C949 C941 1.503 . S
C949 C948 1.370 . S
C949 C950 1.403 . S
C950 C949 1.403 . S
C950 C951 1.404 . S
C950 C953 1.539 . S
C951 C947 1.408 . S
C951 C950 1.404 . S
C951 H963 0.930 . S
C952 C948 1.524 . S
C952 H964 0.956 . S
C952 H965 0.961 . S
C952 H966 0.961 . S
C953 C950 1.539 . S
C953 H967 0.958 . S
C953 H968 0.961 . S
C953 H969 0.960 . S
H954 C938 0.931 . S
H955 C943 0.929 . S
H956 C944 0.960 . S
H957 C944 0.962 . S
H958 C944 0.960 . S
H959 C945 0.961 . S
H960 C945 0.961 . S
H961 C945 0.961 . S
H962 C946 0.931 . S
H963 C951 0.930 . S
H964 C952 0.956 . S
H965 C952 0.961 . S
H966 C952 0.961 . S
H967 C953 0.958 . S
H968 C953 0.961 . S
H969 C953 0.960 . S
C970 C971 1.391 . S
C970 C972 1.394 . S
C970 H986 0.931 . S
C971 C970 1.391 . S
C971 C975 1.376 . S
C972 C970 1.394 . S
C972 C973 1.369 . S
C972 C976 1.531 . S
C973 C972 1.369 . S
C973 C974 1.410 . S
C973 C981 1.503 . S
C974 C973 1.410 . S
C974 C975 1.392 . S
C974 C977 1.511 . S
C975 C971 1.376 . S
C975 C974 1.392 . S
C975 H987 0.929 . S
C976 C972 1.531 . S
C976 H988 0.960 . S
C976 H989 0.962 . S
C976 H990 0.960 . S
C977 C974 1.511 . S
C977 H991 0.961 . S
C977 H992 0.961 . S
C977 H993 0.961 . S
C978 C979 1.370 . S
C978 C980 1.363 . S
C978 H994 0.931 . S
C979 C978 1.370 . S
C979 C983 1.408 . S
C980 C978 1.363 . S
C980 C981 1.370 . S
C980 C984 1.524 . S
C981 C973 1.503 . S
C981 C980 1.370 . S
C981 C982 1.403 . S
C982 C981 1.403 . S
C982 C983 1.404 . S
C982 C985 1.539 . S
C983 C979 1.408 . S
C983 C982 1.404 . S
C983 H995 0.930 . S
C984 C980 1.524 . S
C984 H996 0.956 . S
C984 H997 0.961 . S
C984 H998 0.961 . S
C985 C982 1.539 . S
C985 H999 0.958 . S
C985 H1000 0.961 . S
C985 H1001 0.960 . S
H986 C970 0.931 . S
H987 C975 0.929 . S
H988 C976 0.960 . S
H989 C976 0.962 . S
H990 C976 0.960 . S
H991 C977 0.961 . S
H992 C977 0.961 . S
H993 C977 0.961 . S
H994 C978 0.931 . S
H995 C983 0.930 . S
H996 C984 0.956 . S
H997 C984 0.961 . S
H998 C984 0.961 . S
H999 C985 0.958 . S
H1000 C985 0.961 . S
H1001 C985 0.960 . S
C1002 C1003 1.391 . S
C1002 C1004 1.394 . S
C1002 H1018 0.931 . S
C1003 C1002 1.391 . S
C1003 C1007 1.376 . S
C1004 C1002 1.394 . S
C1004 C1005 1.369 . S
C1004 C1008 1.531 . S
C1005 C1004 1.369 . S
C1005 C1006 1.410 . S
C1005 C1013 1.503 . S
C1006 C1005 1.410 . S
C1006 C1007 1.392 . S
C1006 C1009 1.511 . S
C1007 C1003 1.376 . S
C1007 C1006 1.392 . S
C1007 H1019 0.929 . S
C1008 C1004 1.531 . S
C1008 H1020 0.960 . S
C1008 H1021 0.962 . S
C1008 H1022 0.960 . S
C1009 C1006 1.511 . S
C1009 H1023 0.961 . S
C1009 H1024 0.961 . S
C1009 H1025 0.961 . S
C1010 C1011 1.370 1_556 S
C1010 C1012 1.363 . S
C1010 H1026 0.931 1_556 S
C1011 C1010 1.370 1_554 S
C1011 C1015 1.408 1_554 S
C1012 C1010 1.363 . S
C1012 C1013 1.370 . S
C1012 C1016 1.524 . S
C1013 C1005 1.503 . S
C1013 C1012 1.370 . S
C1013 C1014 1.403 . S
C1014 C1013 1.403 . S
C1014 C1015 1.404 . S
C1014 C1017 1.539 . S
C1015 C1011 1.408 1_556 S
C1015 C1014 1.404 . S
C1015 H1027 0.930 . S
C1016 C1012 1.524 . S
C1016 H1028 0.956 . S
C1016 H1029 0.961 . S
C1016 H1030 0.961 . S
C1017 C1014 1.539 . S
C1017 H1031 0.958 . S
C1017 H1032 0.961 . S
C1017 H1033 0.960 . S
H1018 C1002 0.931 . S
H1019 C1007 0.929 . S
H1020 C1008 0.960 . S
H1021 C1008 0.962 . S
H1022 C1008 0.960 . S
H1023 C1009 0.961 . S
H1024 C1009 0.961 . S
H1025 C1009 0.961 . S
H1026 C1010 0.931 1_554 S
H1027 C1015 0.930 . S
H1028 C1016 0.956 . S
H1029 C1016 0.961 . S
H1030 C1016 0.961 . S
H1031 C1017 0.958 . S
H1032 C1017 0.961 . S
H1033 C1017 0.960 . S
C1034 C1035 1.391 . S
C1034 C1036 1.394 . S
C1034 H1050 0.931 1_565 S
C1035 C1034 1.391 . S
C1035 C1039 1.376 . S
C1036 C1034 1.394 . S
C1036 C1037 1.369 . S
C1036 C1040 1.531 . S
C1037 C1036 1.369 . S
C1037 C1038 1.410 . S
C1037 C1045 1.503 . S
C1038 C1037 1.410 . S
C1038 C1039 1.392 . S
C1038 C1041 1.511 . S
C1039 C1035 1.376 . S
C1039 C1038 1.392 . S
C1039 H1051 0.929 . S
C1040 C1036 1.531 . S
C1040 H1052 0.960 . S
C1040 H1053 0.962 . S
C1040 H1054 0.960 . S
C1041 C1038 1.511 . S
C1041 H1055 0.961 . S
C1041 H1056 0.961 . S
C1041 H1057 0.961 . S
C1042 C1043 1.370 . S
C1042 C1044 1.363 . S
C1042 H1058 0.931 . S
C1043 C1042 1.370 . S
C1043 C1047 1.408 . S
C1044 C1042 1.363 . S
C1044 C1045 1.370 . S
C1044 C1048 1.524 . S
C1045 C1037 1.503 . S
C1045 C1044 1.370 . S
C1045 C1046 1.403 . S
C1046 C1045 1.403 . S
C1046 C1047 1.404 . S
C1046 C1049 1.539 . S
C1047 C1043 1.408 . S
C1047 C1046 1.404 . S
C1047 H1059 0.930 . S
C1048 C1044 1.524 . S
C1048 H1060 0.956 . S
C1048 H1061 0.961 . S
C1048 H1062 0.961 . S
C1049 C1046 1.539 . S
C1049 H1063 0.958 . S
C1049 H1064 0.961 . S
C1049 H1065 0.960 . S
H1050 C1034 0.931 1_545 S
H1051 C1039 0.929 . S
H1052 C1040 0.960 . S
H1053 C1040 0.962 . S
H1054 C1040 0.960 . S
H1055 C1041 0.961 . S
H1056 C1041 0.961 . S
H1057 C1041 0.961 . S
H1058 C1042 0.931 . S
H1059 C1047 0.930 . S
H1060 C1048 0.956 . S
H1061 C1048 0.961 . S
H1062 C1048 0.961 . S
H1063 C1049 0.958 . S
H1064 C1049 0.961 . S
H1065 C1049 0.960 . S
C1066 C1067 1.391 . S
C1066 C1068 1.394 . S
C1066 H1082 0.931 . S
C1067 C1066 1.391 . S
C1067 C1071 1.376 . S
C1068 C1066 1.394 . S
C1068 C1069 1.369 . S
C1068 C1072 1.531 . S
C1069 C1068 1.369 . S
C1069 C1070 1.410 . S
C1069 C1077 1.503 . S
C1070 C1069 1.410 . S
C1070 C1071 1.392 . S
C1070 C1073 1.511 . S
C1071 C1067 1.376 . S
C1071 C1070 1.392 . S
C1071 H1083 0.929 . S
C1072 C1068 1.531 . S
C1072 H1084 0.960 . S
C1072 H1085 0.962 . S
C1072 H1086 0.960 . S
C1073 C1070 1.511 . S
C1073 H1087 0.961 . S
C1073 H1088 0.961 . S
C1073 H1089 0.961 . S
C1074 C1075 1.370 . S
C1074 C1076 1.363 . S
C1074 H1090 0.931 . S
C1075 C1074 1.370 . S
C1075 C1079 1.408 . S
C1076 C1074 1.363 . S
C1076 C1077 1.370 . S
C1076 C1080 1.524 . S
C1077 C1069 1.503 . S
C1077 C1076 1.370 . S
C1077 C1078 1.403 . S
C1078 C1077 1.403 . S
C1078 C1079 1.404 . S
C1078 C1081 1.539 . S
C1079 C1075 1.408 . S
C1079 C1078 1.404 . S
C1079 H1091 0.930 . S
C1080 C1076 1.524 . S
C1080 H1092 0.956 . S
C1080 H1093 0.961 . S
C1080 H1094 0.961 . S
C1081 C1078 1.539 . S
C1081 H1095 0.958 . S
C1081 H1096 0.961 . S
C1081 H1097 0.960 . S
H1082 C1066 0.931 . S
H1083 C1071 0.929 . S
H1084 C1072 0.960 . S
H1085 C1072 0.962 . S
H1086 C1072 0.960 . S
H1087 C1073 0.961 . S
H1088 C1073 0.961 . S
H1089 C1073 0.961 . S
H1090 C1074 0.931 . S
H1091 C1079 0.930 . S
H1092 C1080 0.956 . S
H1093 C1080 0.961 . S
H1094 C1080 0.961 . S
H1095 C1081 0.958 . S
H1096 C1081 0.961 . S
H1097 C1081 0.960 . S
C1098 C1099 1.391 . S
C1098 C1100 1.394 . S
C1098 H1114 0.931 . S
C1099 C1098 1.391 . S
C1099 C1103 1.376 . S
C1100 C1098 1.394 . S
C1100 C1101 1.369 . S
C1100 C1104 1.531 . S
C1101 C1100 1.369 . S
C1101 C1102 1.410 . S
C1101 C1109 1.503 . S
C1102 C1101 1.410 . S
C1102 C1103 1.392 . S
C1102 C1105 1.511 . S
C1103 C1099 1.376 . S
C1103 C1102 1.392 . S
C1103 H1115 0.929 . S
C1104 C1100 1.531 . S
C1104 H1116 0.960 . S
C1104 H1117 0.962 . S
C1104 H1118 0.960 . S
C1105 C1102 1.511 . S
C1105 H1119 0.961 . S
C1105 H1120 0.961 . S
C1105 H1121 0.961 . S
C1106 C1107 1.370 . S
C1106 C1108 1.363 . S
C1106 H1122 0.931 . S
C1107 C1106 1.370 . S
C1107 C1111 1.408 . S
C1108 C1106 1.363 . S
C1108 C1109 1.370 . S
C1108 C1112 1.524 . S
C1109 C1101 1.503 . S
C1109 C1108 1.370 . S
C1109 C1110 1.403 . S
C1110 C1109 1.403 . S
C1110 C1111 1.404 . S
C1110 C1113 1.539 . S
C1111 C1107 1.408 . S
C1111 C1110 1.404 . S
C1111 H1123 0.930 . S
C1112 C1108 1.524 . S
C1112 H1124 0.956 . S
C1112 H1125 0.961 . S
C1112 H1126 0.961 . S
C1113 C1110 1.539 . S
C1113 H1127 0.958 . S
C1113 H1128 0.961 . S
C1113 H1129 0.960 . S
H1114 C1098 0.931 . S
H1115 C1103 0.929 . S
H1116 C1104 0.960 . S
H1117 C1104 0.962 . S
H1118 C1104 0.960 . S
H1119 C1105 0.961 . S
H1120 C1105 0.961 . S
H1121 C1105 0.961 . S
H1122 C1106 0.931 . S
H1123 C1111 0.930 . S
H1124 C1112 0.956 . S
H1125 C1112 0.961 . S
H1126 C1112 0.961 . S
H1127 C1113 0.958 . S
H1128 C1113 0.961 . S
H1129 C1113 0.960 . S
C1130 C1131 1.391 . S
C1130 C1132 1.394 . S
C1130 H1146 0.931 . S
C1131 C1130 1.391 . S
C1131 C1135 1.376 . S
C1132 C1130 1.394 . S
C1132 C1133 1.369 . S
C1132 C1136 1.531 . S
C1133 C1132 1.369 . S
C1133 C1134 1.410 . S
C1133 C1141 1.503 . S
C1134 C1133 1.410 . S
C1134 C1135 1.392 . S
C1134 C1137 1.511 . S
C1135 C1131 1.376 . S
C1135 C1134 1.392 . S
C1135 H1147 0.929 . S
C1136 C1132 1.531 . S
C1136 H1148 0.960 . S
C1136 H1149 0.962 . S
C1136 H1150 0.960 . S
C1137 C1134 1.511 . S
C1137 H1151 0.961 . S
C1137 H1152 0.961 . S
C1137 H1153 0.961 . S
C1138 C1139 1.370 . S
C1138 C1140 1.363 . S
C1138 H1154 0.931 . S
C1139 C1138 1.370 . S
C1139 C1143 1.408 . S
C1140 C1138 1.363 . S
C1140 C1141 1.370 . S
C1140 C1144 1.524 . S
C1141 C1133 1.503 . S
C1141 C1140 1.370 . S
C1141 C1142 1.403 . S
C1142 C1141 1.403 . S
C1142 C1143 1.404 . S
C1142 C1145 1.539 . S
C1143 C1139 1.408 . S
C1143 C1142 1.404 . S
C1143 H1155 0.930 . S
C1144 C1140 1.524 . S
C1144 H1156 0.956 . S
C1144 H1157 0.961 . S
C1144 H1158 0.961 . S
C1145 C1142 1.539 . S
C1145 H1159 0.958 . S
C1145 H1160 0.961 . S
C1145 H1161 0.960 . S
H1146 C1130 0.931 . S
H1147 C1135 0.929 . S
H1148 C1136 0.960 . S
H1149 C1136 0.962 . S
H1150 C1136 0.960 . S
H1151 C1137 0.961 . S
H1152 C1137 0.961 . S
H1153 C1137 0.961 . S
H1154 C1138 0.931 . S
H1155 C1143 0.930 . S
H1156 C1144 0.956 . S
H1157 C1144 0.961 . S
H1158 C1144 0.961 . S
H1159 C1145 0.958 . S
H1160 C1145 0.961 . S
H1161 C1145 0.960 . S
C1162 C1163 1.391 . S
C1162 C1164 1.394 . S
C1162 H1178 0.931 . S
C1163 C1162 1.391 . S
C1163 C1167 1.376 . S
C1164 C1162 1.394 . S
C1164 C1165 1.369 . S
C1164 C1168 1.531 . S
C1165 C1164 1.369 . S
C1165 C1166 1.410 . S
C1165 C1173 1.503 . S
C1166 C1165 1.410 . S
C1166 C1167 1.392 . S
C1166 C1169 1.511 . S
C1167 C1163 1.376 . S
C1167 C1166 1.392 . S
C1167 H1179 0.929 . S
C1168 C1164 1.531 . S
C1168 H1180 0.960 . S
C1168 H1181 0.962 . S
C1168 H1182 0.960 . S
C1169 C1166 1.511 . S
C1169 H1183 0.961 . S
C1169 H1184 0.961 . S
C1169 H1185 0.961 . S
C1170 C1171 1.370 . S
C1170 C1172 1.363 . S
C1170 H1186 0.931 . S
C1171 C1170 1.370 . S
C1171 C1175 1.408 . S
C1172 C1170 1.363 . S
C1172 C1173 1.370 . S
C1172 C1176 1.524 . S
C1173 C1165 1.503 . S
C1173 C1172 1.370 . S
C1173 C1174 1.403 . S
C1174 C1173 1.403 . S
C1174 C1175 1.404 . S
C1174 C1177 1.539 . S
C1175 C1171 1.408 . S
C1175 C1174 1.404 . S
C1175 H1187 0.930 . S
C1176 C1172 1.524 . S
C1176 H1188 0.956 . S
C1176 H1189 0.961 . S
C1176 H1190 0.961 . S
C1177 C1174 1.539 . S
C1177 H1191 0.958 . S
C1177 H1192 0.961 . S
C1177 H1193 0.960 . S
H1178 C1162 0.931 . S
H1179 C1167 0.929 . S
H1180 C1168 0.960 . S
H1181 C1168 0.962 . S
H1182 C1168 0.960 . S
H1183 C1169 0.961 . S
H1184 C1169 0.961 . S
H1185 C1169 0.961 . S
H1186 C1170 0.931 . S
H1187 C1175 0.930 . S
H1188 C1176 0.956 . S
H1189 C1176 0.961 . S
H1190 C1176 0.961 . S
H1191 C1177 0.958 . S
H1192 C1177 0.961 . S
H1193 C1177 0.960 . S
C1194 C1195 1.391 . S
C1194 C1196 1.394 . S
C1194 H1210 0.931 . S
C1195 C1194 1.391 . S
C1195 C1199 1.376 . S
C1196 C1194 1.394 . S
C1196 C1197 1.369 . S
C1196 C1200 1.531 . S
C1197 C1196 1.369 . S
C1197 C1198 1.410 . S
C1197 C1205 1.503 . S
C1198 C1197 1.410 . S
C1198 C1199 1.392 . S
C1198 C1201 1.511 . S
C1199 C1195 1.376 . S
C1199 C1198 1.392 . S
C1199 H1211 0.929 . S
C1200 C1196 1.531 . S
C1200 H1212 0.960 . S
C1200 H1213 0.962 . S
C1200 H1214 0.960 . S
C1201 C1198 1.511 . S
C1201 H1215 0.961 . S
C1201 H1216 0.961 . S
C1201 H1217 0.961 . S
C1202 C1203 1.370 . S
C1202 C1204 1.363 . S
C1202 H1218 0.931 . S
C1203 C1202 1.370 . S
C1203 C1207 1.408 . S
C1204 C1202 1.363 . S
C1204 C1205 1.370 . S
C1204 C1208 1.524 . S
C1205 C1197 1.503 . S
C1205 C1204 1.370 . S
C1205 C1206 1.403 . S
C1206 C1205 1.403 . S
C1206 C1207 1.404 . S
C1206 C1209 1.539 . S
C1207 C1203 1.408 . S
C1207 C1206 1.404 . S
C1207 H1219 0.930 . S
C1208 C1204 1.524 . S
C1208 H1220 0.956 . S
C1208 H1221 0.961 . S
C1208 H1222 0.961 . S
C1209 C1206 1.539 . S
C1209 H1223 0.958 . S
C1209 H1224 0.961 . S
C1209 H1225 0.960 . S
H1210 C1194 0.931 . S
H1211 C1199 0.929 . S
H1212 C1200 0.960 . S
H1213 C1200 0.962 . S
H1214 C1200 0.960 . S
H1215 C1201 0.961 . S
H1216 C1201 0.961 . S
H1217 C1201 0.961 . S
H1218 C1202 0.931 . S
H1219 C1207 0.930 . S
H1220 C1208 0.956 . S
H1221 C1208 0.961 . S
H1222 C1208 0.961 . S
H1223 C1209 0.958 . S
H1224 C1209 0.961 . S
H1225 C1209 0.960 . S
C1226 C1227 1.391 . S
C1226 C1228 1.394 . S
C1226 H1242 0.931 . S
C1227 C1226 1.391 . S
C1227 C1231 1.376 . S
C1228 C1226 1.394 . S
C1228 C1229 1.369 . S
C1228 C1232 1.531 . S
C1229 C1228 1.369 . S
C1229 C1230 1.410 . S
C1229 C1237 1.503 1_554 S
C1230 C1229 1.410 . S
C1230 C1231 1.392 . S
C1230 C1233 1.511 . S
C1231 C1227 1.376 . S
C1231 C1230 1.392 . S
C1231 H1243 0.929 . S
C1232 C1228 1.531 . S
C1232 H1244 0.960 . S
C1232 H1245 0.962 . S
C1232 H1246 0.960 . S
C1233 C1230 1.511 . S
C1233 H1247 0.961 . S
C1233 H1248 0.961 1_554 S
C1233 H1249 0.961 1_554 S
C1234 C1235 1.370 . S
C1234 C1236 1.363 . S
C1234 H1250 0.931 . S
C1235 C1234 1.370 . S
C1235 C1239 1.408 . S
C1236 C1234 1.363 . S
C1236 C1237 1.370 . S
C1236 C1240 1.524 1_556 S
C1237 C1229 1.503 1_556 S
C1237 C1236 1.370 . S
C1237 C1238 1.403 . S
C1238 C1237 1.403 . S
C1238 C1239 1.404 . S
C1238 C1241 1.539 . S
C1239 C1235 1.408 . S
C1239 C1238 1.404 . S
C1239 H1251 0.930 . S
C1240 C1236 1.524 1_554 S
C1240 H1252 0.956 . S
C1240 H1253 0.961 . S
C1240 H1254 0.961 1_554 S
C1241 C1238 1.539 . S
C1241 H1255 0.958 . S
C1241 H1256 0.961 . S
C1241 H1257 0.960 . S
H1242 C1226 0.931 . S
H1243 C1231 0.929 . S
H1244 C1232 0.960 . S
H1245 C1232 0.962 . S
H1246 C1232 0.960 . S
H1247 C1233 0.961 . S
H1248 C1233 0.961 1_556 S
H1249 C1233 0.961 1_556 S
H1250 C1234 0.931 . S
H1251 C1239 0.930 . S
H1252 C1240 0.956 . S
H1253 C1240 0.961 . S
H1254 C1240 0.961 1_556 S
H1255 C1241 0.958 . S
H1256 C1241 0.961 . S
H1257 C1241 0.960 . S
C1258 C1259 1.391 . S
C1258 C1260 1.394 . S
C1258 H1274 0.931 . S
C1259 C1258 1.391 . S
C1259 C1263 1.376 . S
C1260 C1258 1.394 . S
C1260 C1261 1.369 . S
C1260 C1264 1.531 . S
C1261 C1260 1.369 . S
C1261 C1262 1.410 . S
C1261 C1269 1.503 . S
C1262 C1261 1.410 . S
C1262 C1263 1.392 . S
C1262 C1265 1.511 . S
C1263 C1259 1.376 . S
C1263 C1262 1.392 . S
C1263 H1275 0.929 . S
C1264 C1260 1.531 . S
C1264 H1276 0.960 . S
C1264 H1277 0.962 . S
C1264 H1278 0.960 . S
C1265 C1262 1.511 . S
C1265 H1279 0.961 . S
C1265 H1280 0.961 . S
C1265 H1281 0.961 . S
C1266 C1267 1.370 . S
C1266 C1268 1.363 . S
C1266 H1282 0.931 . S
C1267 C1266 1.370 . S
C1267 C1271 1.408 . S
C1268 C1266 1.363 . S
C1268 C1269 1.370 . S
C1268 C1272 1.524 . S
C1269 C1261 1.503 . S
C1269 C1268 1.370 . S
C1269 C1270 1.403 . S
C1270 C1269 1.403 . S
C1270 C1271 1.404 . S
C1270 C1273 1.539 . S
C1271 C1267 1.408 . S
C1271 C1270 1.404 . S
C1271 H1283 0.930 . S
C1272 C1268 1.524 . S
C1272 H1284 0.956 . S
C1272 H1285 0.961 . S
C1272 H1286 0.961 . S
C1273 C1270 1.539 . S
C1273 H1287 0.958 . S
C1273 H1288 0.961 . S
C1273 H1289 0.960 . S
H1274 C1258 0.931 . S
H1275 C1263 0.929 . S
H1276 C1264 0.960 . S
H1277 C1264 0.962 . S
H1278 C1264 0.960 . S
H1279 C1265 0.961 . S
H1280 C1265 0.961 . S
H1281 C1265 0.961 . S
H1282 C1266 0.931 . S
H1283 C1271 0.930 . S
H1284 C1272 0.956 . S
H1285 C1272 0.961 . S
H1286 C1272 0.961 . S
H1287 C1273 0.958 . S
H1288 C1273 0.961 . S
H1289 C1273 0.960 . S
C531 C519 1.335 . S
C523 C51 1.271 . S
C555 C125 1.435 . S
C563 C444 1.389 . S
C587 C217 2.590 . S
C595 C467 2.639 . S
C619 C291 1.443 . S
C627 C480 1.454 . S
C659 C483 0.870 . S
C651 C347 0.847 . S
C683 C421 0.754 . S
C691 C496 0.793 . S
C715 C143 2.213 . S
C723 C457 2.135 . S
C747 C199 1.510 . S
C755 C470 1.456 . S
C779 C273 0.412 . S
C787 C493 0.463 . S
C819 C506 1.665 . S
C811 C365 1.646 . S
C851 C509 1.746 . S
C843 C439 1.854 . S
C883 C454 2.441 . S
C875 C69 2.427 . S
C907 C63 1.354 . S
C915 C465 1.454 . S
C939 C137 1.505 . S
C947 C478 1.521 . S
C979 C488 1.277 . S
C971 C187 1.229 . S
C1003 C261 1.422 . S
C1011 C501 1.424 . S
C1043 C517 1.499 . S
C1035 C359 1.459 . S
C1075 C449 1.087 . S
C1067 C433 1.015 . S
C1107 C514 1.516 . S
C1099 C113 1.561 . S
C1131 C211 1.289 . S
C1139 C452 1.406 . S
C1171 C462 1.497 . S
C1163 C285 1.471 . S
C1195 C335 1.332 . S
C1203 C475 1.369 . S
C1227 C409 1.200 . S
C1235 C491 1.275 . S
C1259 C39 1.629 . S
C1267 C504 1.647 . S
