# Generated by pormake.
# Topology anh, (6,3)-cn, num edge types: 1
# Building blocks:
#     Node 0, Type 0, BuildingBlock: BETDAH_clean_sbu_0, # of connection points: 6
#     Node 1, Type 0, BuildingBlock: BETDAH_clean_sbu_0, # of connection points: 6
#     Node 2, Type 0, BuildingBlock: BETDAH_clean_sbu_0, # of connection points: 6
#     Node 3, Type 1, BuildingBlock: KAKCAD_clean_linker_0, # of connection points: 3
#     Node 4, Type 1, BuildingBlock: KAKCAD_clean_linker_0, # of connection points: 3
#     Node 5, Type 1, BuildingBlock: KAKCAD_clean_linker_0, # of connection points: 3
#     Node 6, Type 1, BuildingBlock: KAKCAD_clean_linker_0, # of connection points: 3
#     Node 7, Type 1, BuildingBlock: KAKCAD_clean_linker_0, # of connection points: 3
#     Node 8, Type 1, BuildingBlock: KAKCAD_clean_linker_0, # of connection points: 3
#     Edge 9, Type (0, 1), BuildingBlock: OJICUG_clean_linker_0, # of connection points: 2
#     Edge 10, Type (0, 1), BuildingBlock: OJICUG_clean_linker_0, # of connection points: 2
#     Edge 11, Type (0, 1), BuildingBlock: OJICUG_clean_linker_0, # of connection points: 2
#     Edge 12, Type (0, 1), BuildingBlock: OJICUG_clean_linker_0, # of connection points: 2
#     Edge 13, Type (0, 1), BuildingBlock: OJICUG_clean_linker_0, # of connection points: 2
#     Edge 14, Type (0, 1), BuildingBlock: OJICUG_clean_linker_0, # of connection points: 2
#     Edge 15, Type (0, 1), BuildingBlock: OJICUG_clean_linker_0, # of connection points: 2
#     Edge 16, Type (0, 1), BuildingBlock: OJICUG_clean_linker_0, # of connection points: 2
#     Edge 17, Type (0, 1), BuildingBlock: OJICUG_clean_linker_0, # of connection points: 2
#     Edge 18, Type (0, 1), BuildingBlock: OJICUG_clean_linker_0, # of connection points: 2
#     Edge 19, Type (0, 1), BuildingBlock: OJICUG_clean_linker_0, # of connection points: 2
#     Edge 20, Type (0, 1), BuildingBlock: OJICUG_clean_linker_0, # of connection points: 2
#     Edge 21, Type (0, 1), BuildingBlock: OJICUG_clean_linker_0, # of connection points: 2
#     Edge 22, Type (0, 1), BuildingBlock: OJICUG_clean_linker_0, # of connection points: 2
#     Edge 23, Type (0, 1), BuildingBlock: OJICUG_clean_linker_0, # of connection points: 2
#     Edge 24, Type (0, 1), BuildingBlock: OJICUG_clean_linker_0, # of connection points: 2
#     Edge 25, Type (0, 1), BuildingBlock: OJICUG_clean_linker_0, # of connection points: 2
#     Edge 26, Type (0, 1), BuildingBlock: OJICUG_clean_linker_0, # of connection points: 2
# Relax obj value: 0.212
# Max RMSD: 0.227
# Mean RMSD: 0.165
data_MOF--net-anh--node1-BETDAH_clean_sbu_0--node2-KAKCAD_clean_linker_0--edge1-OJICUG_clean_linker_0
_symmetry_space_group_name_H-M    P1
_symmetry_Int_Tables_number       1
_symmetry_cell_setting            triclinic
loop_
_symmetry_equiv_pos_as_xyz
'x, y, z'
_cell_length_a     30.186365
_cell_length_b     35.591263
_cell_length_c     52.339852
_cell_angle_alpha  92.32173
_cell_angle_beta   89.409572
_cell_angle_gamma 130.34652
loop_
_atom_site_label
_atom_site_type_symbol
_atom_site_fract_x
_atom_site_fract_y
_atom_site_fract_z
_atom_type_partial_charge
Ho0 Ho 0.11244 0.50995 0.14772 0.0
Ho1 Ho 1.05194 0.54829 0.14979 0.0
C2 C 0.18901 0.62996 0.15014 0.0
C3 C 0.18351 0.49442 0.14322 0.0
C4 C 0.23844 0.52011 0.15727 0.0
C5 C 0.28221 0.5717 0.15716 0.0
C6 C 0.33665 0.5945 0.16804 0.0
C7 C 0.34828 0.56536 0.17772 0.0
C8 C 0.301 0.51572 0.18262 0.0
C9 C 0.24661 0.49296 0.17187 0.0
C10 C 0.07654 0.51093 0.19496 0.0
C11 C 0.97782 0.43007 0.14507 0.0
C12 C 0.99925 0.57458 0.1719 0.0
C13 C 0.9474 0.54433 0.18734 0.0
C14 C 0.93968 0.56492 0.20838 0.0
C15 C 0.88571 0.5371 0.22012 0.0
C16 C 0.83914 0.48923 0.21025 0.0
C17 C 0.85102 0.46641 0.19233 0.0
C18 C 0.90435 0.49406 0.18064 0.0
C19 C 0.06126 0.53594 0.09896 0.0
O20 O 0.18853 0.59294 0.15355 0.0
O21 O 0.14028 0.62152 0.14603 0.0
O22 O 0.13752 0.46761 0.15725 0.0
O23 O 0.18122 0.51999 0.12685 0.0
O24 O 0.07117 0.47443 0.18492 0.0
O25 O 0.10072 0.54504 0.17933 0.0
O26 O 0.98097 0.46609 0.15578 0.0
O27 O 1.02433 0.44073 0.13441 0.0
O28 O 0.99132 0.5609 0.14764 0.0
O29 O 1.04544 0.58461 0.18188 0.0
O30 O 1.03684 0.55254 0.10852 0.0
O31 O 0.08013 0.52635 0.11686 0.0
H32 H 0.27603 0.59405 0.14713 0.0
H33 H 0.37177 0.63328 0.16499 0.0
H34 H 0.30749 0.49225 0.19102 0.0
H35 H 0.21218 0.45353 0.17344 0.0
H36 H 0.97366 0.60323 0.21448 0.0
H37 H 0.87834 0.55506 0.23459 0.0
H38 H 0.81705 0.42947 0.18437 0.0
H39 H 0.90965 0.477 0.16477 0.0
Ho40 Ho 0.60857 0.01425 0.46986 0.0
Ho41 Ho 0.53228 0.03677 0.46332 0.0
C42 C 0.46843 0.924 0.46184 0.0
C43 C 0.65605 0.97842 0.48345 0.0
C44 C 0.63521 0.92865 0.48721 0.0
C45 C 0.58539 0.89455 0.50142 0.0
C46 C 0.56782 0.84809 0.50539 0.0
C47 C 0.59947 0.83493 0.49501 0.0
C48 C 0.64791 0.86845 0.47999 0.0
C49 C 0.66567 0.91497 0.47619 0.0
C50 C 0.59825 0.02972 0.42109 0.0
C51 C 0.67363 0.12756 0.46785 0.0
C52 C 0.48703 0.0756 0.45209 0.0
C53 C 0.50211 0.12289 0.46057 0.0
C54 C 0.53594 0.16395 0.44515 0.0
C55 C 0.55314 0.20946 0.45377 0.0
C56 C 0.53671 0.21475 0.47797 0.0
C57 C 0.50226 0.17353 0.49323 0.0
C58 C 0.48511 0.12814 0.48464 0.0
C59 C 0.54564 0.02406 0.51251 0.0
O60 O 0.51744 0.93903 0.47261 0.0
O61 O 0.46617 0.95638 0.45214 0.0
O62 O 0.65459 0.98824 0.45988 0.0
O63 O 0.63881 0.99523 0.49978 0.0
O64 O 0.6467 0.04627 0.43182 0.0
O65 O 0.55689 1.00457 0.43641 0.0
O66 O 0.62223 0.11197 0.46024 0.0
O67 O 0.6791 0.09622 0.4762 0.0
O68 O 0.46614 0.04272 0.46941 0.0
O69 O 0.52483 0.0787 0.43767 0.0
O70 O 0.49703 1.00802 0.50237 0.0
O71 O 0.58544 0.04791 0.49647 0.0
H72 H 0.56049 0.90395 0.50975 0.0
H73 H 0.52995 0.82269 0.51682 0.0
H74 H 0.67344 0.85946 0.47199 0.0
H75 H 0.70386 0.94064 0.46497 0.0
H76 H 0.54982 0.16109 0.42653 0.0
H77 H 0.58009 0.24069 0.44168 0.0
H78 H 0.48807 0.17621 0.5118 0.0
H79 H 0.45891 0.09731 0.49703 0.0
Ho80 Ho 0.65022 0.59521 0.83554 0.0
Ho81 Ho 0.56666 0.48774 0.83664 0.0
C82 C 0.50639 0.53895 0.84023 0.0
C83 C 0.70404 0.68492 0.82354 0.0
C84 C 0.68614 0.71411 0.81915 0.0
C85 C 0.63945 0.69648 0.80248 0.0
C86 C 0.62415 0.72528 0.79812 0.0
C87 C 0.65486 0.77209 0.8105 0.0
C88 C 0.70044 0.78892 0.82772 0.0
C89 C 0.71602 0.76026 0.83192 0.0
C90 C 0.62952 0.55973 0.88218 0.0
C91 C 0.71164 0.54538 0.83768 0.0
C92 C 0.51309 0.39665 0.84561 0.0
C93 C 0.52566 0.36419 0.83827 0.0
C94 C 0.50118 0.3217 0.85173 0.0
C95 C 0.51218 0.29023 0.84445 0.0
C96 C 0.54786 0.30081 0.82355 0.0
C97 C 0.57313 0.34404 0.81039 0.0
C98 C 0.56225 0.37553 0.81774 0.0
C99 C 0.58595 0.52064 0.78903 0.0
O100 O 0.56096 0.57981 0.83517 0.0
O101 O 0.49822 0.49779 0.84398 0.0
O102 O 0.70064 0.67234 0.84705 0.0
O103 O 0.68579 0.64915 0.80667 0.0
O104 O 0.681 0.5973 0.87494 0.0
O105 O 0.59206 0.54467 0.86492 0.0
O106 O 0.65598 0.50373 0.83967 0.0
O107 O 0.72106 0.58712 0.83416 0.0
O108 O 0.49906 0.41029 0.82673 0.0
O109 O 0.55004 0.43317 0.86184 0.0
O110 O 0.53592 0.48336 0.79732 0.0
O111 O 0.62482 0.53798 0.80617 0.0
H112 H 0.61515 0.66071 0.79256 0.0
H113 H 0.58924 0.71137 0.78453 0.0
H114 H 0.72427 0.82436 0.83793 0.0
H115 H 0.75167 0.77427 0.84508 0.0
H116 H 0.47335 0.31275 0.86778 0.0
H117 H 0.49284 0.25765 0.85521 0.0
H118 H 0.60024 0.35301 0.79404 0.0
H119 H 0.58186 0.40844 0.8072 0.0
C120 C 0.60283 0.07743 0.29883 0.0
C121 C 0.58299 0.03528 0.31169 0.0
C122 C 0.60341 0.07713 0.27206 0.0
C123 C 0.58536 0.03495 0.2575 0.0
C124 C 0.56594 0.99295 0.27061 0.0
C125 C 0.56415 0.99296 0.29731 0.0
C126 C 0.58659 0.03444 0.22886 0.0
C127 C 0.62955 0.07735 0.21579 0.0
C128 C 0.63122 0.07693 0.1889 0.0
C129 C 0.58923 0.03191 0.17476 0.0
C130 C 0.54555 0.98845 0.18766 0.0
C131 C 0.54457 0.99059 0.21444 0.0
C132 C 0.49885 0.93977 0.17437 0.0
C133 C 0.44333 0.92479 0.17068 0.0
C134 C 0.50505 0.90396 0.17135 0.0
C135 C 0.45669 0.85418 0.16534 0.0
C136 C 0.40031 0.83848 0.16256 0.0
C137 C 0.67663 0.12486 0.1766 0.0
C138 C 0.67381 0.16274 0.1787 0.0
C139 C 0.72733 0.13614 0.16669 0.0
C140 C 0.77482 0.18462 0.15991 0.0
C141 C 0.77293 0.22329 0.16274 0.0
C142 C 0.72069 0.21085 0.17163 0.0
C143 C 0.3949 0.87506 0.16485 0.0
H144 H 0.61749 0.11053 0.30953 0.0
H145 H 0.6176 0.10991 0.26285 0.0
H146 H 0.55308 0.96011 0.26034 0.0
H147 H 0.54961 0.96025 0.30677 0.0
H148 H 0.66271 0.11148 0.22651 0.0
H149 H 0.50993 0.95751 0.22403 0.0
H150 H 0.58992 0.03091 0.15406 0.0
H151 H 0.4368 0.95119 0.17374 0.0
H152 H 0.54698 0.91409 0.17483 0.0
H153 H 0.46357 0.82792 0.16339 0.0
H154 H 0.63563 0.15538 0.18655 0.0
H155 H 0.73133 0.10801 0.16535 0.0
H156 H 0.35272 0.86519 0.16343 0.0
H157 H 0.71589 0.23843 0.17354 0.0
H158 H 0.81386 0.19198 0.15347 0.0
C159 C 0.57565 0.55218 0.66694 0.0
C160 C 0.61538 0.5516 0.68025 0.0
C161 C 0.5755 0.55237 0.64031 0.0
C162 C 0.61514 0.55203 0.62625 0.0
C163 C 0.65613 0.55291 0.63953 0.0
C164 C 0.65648 0.55301 0.66633 0.0
C165 C 0.6121 0.54941 0.59784 0.0
C166 C 0.60316 0.57787 0.58494 0.0
C167 C 0.59589 0.57327 0.55826 0.0
C168 C 0.59817 0.54021 0.54426 0.0
C169 C 0.60663 0.51111 0.55679 0.0
C170 C 0.61417 0.51626 0.58359 0.0
C171 C 0.60403 0.47321 0.5421 0.0
C172 C 0.56053 0.44262 0.52319 0.0
C173 C 0.64326 0.46586 0.54766 0.0
C174 C 0.63775 0.42751 0.53528 0.0
C175 C 0.59275 0.39559 0.51716 0.0
C176 C 0.58521 0.60281 0.54521 0.0
C177 C 0.54329 0.6052 0.55451 0.0
C178 C 0.61868 0.63066 0.52431 0.0
C179 C 0.61281 0.66277 0.5139 0.0
C180 C 0.57297 0.66717 0.5241 0.0
C181 C 0.537 0.63686 0.54397 0.0
C182 C 0.55496 0.4042 0.51084 0.0
H183 H 0.54375 0.55151 0.67714 0.0
H184 H 0.54304 0.55126 0.63069 0.0
H185 H 0.68756 0.55314 0.62918 0.0
H186 H 0.6874 0.55232 0.67608 0.0
H187 H 0.60217 0.604 0.59569 0.0
H188 H 0.61877 0.49275 0.59348 0.0
H189 H 0.59233 0.53658 0.52364 0.0
H190 H 0.52927 0.44707 0.51865 0.0
H191 H 0.67784 0.48944 0.56181 0.0
H192 H 0.66821 0.42234 0.5402 0.0
H193 H 0.51613 0.58322 0.57029 0.0
H194 H 0.6513 0.62936 0.51684 0.0
H195 H 0.51946 0.37995 0.49717 0.0
H196 H 0.505 0.63858 0.55184 0.0
H197 H 0.64153 0.68591 0.49875 0.0
C198 C 0.14168 0.55684 0.97712 0.0
C199 C 0.08665 0.52832 0.98841 0.0
C200 C 0.14695 0.55916 0.95034 0.0
C201 C 0.09731 0.53269 0.93407 0.0
C202 C 1.04236 0.50285 0.94547 0.0
C203 C 1.03714 0.5009 0.97213 0.0
C204 C 0.10231 0.53674 0.90544 0.0
C205 C 0.14501 0.53878 0.89246 0.0
C206 C 0.1514 0.54183 0.86568 0.0
C207 C 0.10942 0.54265 0.85164 0.0
C208 C 0.06415 0.54084 0.86476 0.0
C209 C 0.06369 0.53824 0.89154 0.0
C210 C 1.01395 0.53959 0.8537 0.0
C211 C 1.02281 0.58162 0.84516 0.0
C212 C 0.95426 0.49931 0.85854 0.0
C213 C 0.90766 0.50041 0.85513 0.0
C214 C 0.91595 0.54234 0.84684 0.0
C215 C 0.20393 0.54495 0.8556 0.0
C216 C 0.2618 0.58266 0.86544 0.0
C217 C 0.19725 0.50579 0.84209 0.0
C218 C 0.24442 0.50472 0.83882 0.0
C219 C 0.3024 0.5426 0.84888 0.0
C220 C 0.30878 0.58185 0.86205 0.0
C221 C 0.9759 0.58282 0.84171 0.0
H222 H 0.18079 0.57877 0.989 0.0
H223 H 0.19008 0.58288 0.94245 0.0
H224 H 1.00298 0.48085 0.93375 0.0
H225 H 0.99401 0.47781 0.98004 0.0
H226 H 0.1736 0.53694 0.90359 0.0
H227 H 1.03231 0.53791 0.90205 0.0
H228 H 0.11197 0.54469 0.83105 0.0
H229 H 0.06689 0.61494 0.84206 0.0
H230 H 0.94332 0.46642 0.86615 0.0
H231 H 0.86461 0.46771 0.85995 0.0
H232 H 0.27076 0.61303 0.87689 0.0
H233 H 0.15444 0.47441 0.83475 0.0
H234 H 0.98764 0.61671 0.83533 0.0
H235 H 0.35036 0.6121 0.87084 0.0
H236 H 0.23466 0.47317 0.82841 0.0
C237 C 1.01057 0.49411 0.31859 0.0
C238 C 0.06283 0.52254 0.30511 0.0
C239 C 1.01113 0.49425 0.34539 0.0
C240 C 0.06402 0.52228 0.35942 0.0
C241 C 0.11624 0.55055 0.34578 0.0
C242 C 0.11563 0.551 0.31905 0.0
C243 C 0.06508 0.52233 0.38806 0.0
C244 C 1.0222 0.47959 0.40126 0.0
C245 C 1.02357 0.47942 0.42814 0.0
C246 C 0.06922 0.52309 0.44213 0.0
C247 C 0.11258 0.56632 0.42912 0.0
C248 C 0.10962 0.5654 0.40234 0.0
C249 C 0.16218 0.61368 0.44239 0.0
C250 C 0.15591 0.64769 0.45143 0.0
C251 C 0.21854 0.62965 0.44055 0.0
C252 C 0.26764 0.67896 0.44657 0.0
C253 C 0.2618 0.71394 0.4543 0.0
C254 C 0.97592 0.43285 0.44072 0.0
C255 C 0.91981 0.41749 0.44124 0.0
C256 C 0.98347 0.39979 0.44817 0.0
C257 C 0.93543 0.35159 0.45488 0.0
C258 C 0.87846 0.33518 0.45439 0.0
C259 C 0.87201 0.36973 0.44826 0.0
C260 C 0.20505 0.69716 0.45735 0.0
H261 H 0.96915 0.47195 0.30839 0.0
H262 H 0.97001 0.47268 0.35508 0.0
H263 H 0.15789 0.57175 0.35567 0.0
H264 H 0.15661 0.57256 0.30922 0.0
H265 H 0.98787 0.44577 0.39064 0.0
H266 H 0.14225 0.59908 0.39264 0.0
H267 H 0.07088 0.52344 0.46281 0.0
H268 H 0.11307 0.63669 0.4525 0.0
H269 H 0.22468 0.60453 0.43303 0.0
H270 H 0.31025 0.69018 0.4437 0.0
H271 H 0.91261 0.44203 0.43536 0.0
H272 H 1.02612 0.41037 0.44752 0.0
H273 H 0.19852 0.72261 0.4636 0.0
H274 H 0.82968 0.35974 0.44832 0.0
H275 H 0.94289 0.3266 0.45923 0.0
C276 C 0.53934 0.97527 0.63455 0.0
C277 C 0.57411 0.01932 0.62133 0.0
C278 C 0.54287 0.97631 0.66125 0.0
C279 C 0.58084 0.02145 0.67533 0.0
C280 C 0.61631 0.0654 0.6621 0.0
C281 C 0.61316 0.06433 0.63541 0.0
C282 C 0.58262 0.02294 0.70375 0.0
C283 C 0.58425 0.99018 0.71681 0.0
C284 C 0.58664 0.99191 0.74371 0.0
C285 C 0.58729 0.02697 0.75753 0.0
C286 C 0.5855 0.05998 0.74478 0.0
C287 C 0.58287 0.05742 0.71789 0.0
C288 C 0.58591 0.09699 0.75931 0.0
C289 C 0.55365 0.0846 0.7817 0.0
C290 C 0.61704 0.14466 0.75028 0.0
C291 C 0.614 0.17838 0.76264 0.0
C292 C 0.58024 0.16553 0.78453 0.0
C293 C 0.59036 0.95806 0.75718 0.0
C294 C 0.55724 0.90856 0.74846 0.0
C295 C 0.62895 0.97549 0.77811 0.0
C296 C 0.63594 0.94464 0.78937 0.0
C297 C 0.60457 0.89573 0.77992 0.0
C298 C 0.56431 0.87777 0.75966 0.0
C299 C 0.55097 0.11855 0.7942 0.0
H300 H 0.50914 0.93997 0.62425 0.0
H301 H 0.51483 0.94186 0.67092 0.0
H302 H 0.64645 0.10071 0.67242 0.0
H303 H 0.64016 0.09892 0.62584 0.0
H304 H 0.58552 0.96432 0.70595 0.0
H305 H 0.57967 0.08165 0.70785 0.0
H306 H 0.58945 0.02869 0.77824 0.0
H307 H 0.52899 0.04818 0.78917 0.0
H308 H 0.64328 0.1558 0.7334 0.0
H309 H 0.63672 0.21402 0.75449 0.0
H310 H 0.52643 0.89379 0.73265 0.0
H311 H 0.65532 0.01348 0.78525 0.0
H312 H 0.52532 0.10772 0.81127 0.0
H313 H 0.53977 0.84041 0.7518 0.0
H314 H 0.66672 0.95936 0.80518 0.0
C315 C 0.5826 0.43597 0.98665 0.0
C316 C 0.57638 0.46919 0.97802 0.0
C317 C 0.56444 0.41765 0.01121 0.0
C318 C 0.54023 0.43269 0.02719 0.0
C319 C 0.53716 0.46796 0.01863 0.0
C320 C 0.55429 0.48545 0.99423 0.0
C321 C 0.51783 0.41248 0.05279 0.0
C322 C 0.55132 0.41068 0.07044 0.0
C323 C 0.53521 0.40197 0.09623 0.0
C324 C 0.4851 0.39369 0.10394 0.0
C325 C 0.45691 0.40215 0.08736 0.0
C326 C 0.46831 0.40488 0.0613 0.0
C327 C 0.44053 0.43037 0.09841 0.0
C328 C 0.40783 0.41554 0.12072 0.0
C329 C 0.47145 0.47889 0.09063 0.0
C330 C 0.47272 0.51267 0.10558 0.0
C331 C 0.44243 0.49869 0.12851 0.0
C332 C 0.57639 0.41363 0.11656 0.0
C333 C 0.60011 0.39048 0.11707 0.0
C334 C 0.58908 0.44675 0.13678 0.0
C335 C 0.62206 0.45456 0.15781 0.0
C336 C 0.64494 0.43075 0.1588 0.0
C337 C 0.63433 0.39904 0.1381 0.0
C338 C 0.40856 0.44938 0.1356 0.0
H339 H 0.60008 0.42344 0.97424 0.0
H340 H 0.56801 0.39104 0.01744 0.0
H341 H 0.52118 0.48213 0.03072 0.0
H342 H 0.55008 0.51167 0.98793 0.0
H343 H 0.5923 0.42071 0.06478 0.0
H344 H 0.44431 0.40943 0.04843 0.0
H345 H 0.47534 0.39043 0.12414 0.0
H346 H 0.38431 0.37861 0.1273 0.0
H347 H 0.49874 0.4922 0.07403 0.0
H348 H 0.49926 0.55029 0.09958 0.0
H349 H 0.59135 0.36528 0.10154 0.0
H350 H 0.57245 0.46611 0.13655 0.0
H351 H 0.38308 0.43703 0.15278 0.0
H352 H 0.65311 0.38145 0.13798 0.0
H353 H 0.62959 0.47932 0.17332 0.0
C354 C 0.4201 0.58835 0.14533 0.0
C355 C 0.40337 0.57672 0.17094 0.0
H356 H 0.44116 0.56916 0.1112 0.0
C357 C 0.42083 0.55469 0.18436 0.0
H358 H 0.40925 0.60669 0.13438 0.0
C359 C 0.43938 0.53266 0.17079 0.0
C360 C 0.44254 0.53437 0.144 0.0
H361 H 0.41064 0.54705 0.20437 0.0
H362 H 0.44571 0.51045 0.1809 0.0
C363 C 0.43797 0.56609 0.13176 0.0
C364 C 0.72339 0.21032 0.44953 0.0
C365 C 0.72596 0.18081 0.46541 0.0
H366 H 0.76834 0.28 0.43285 0.0
C367 C 0.77914 0.2025 0.478 0.0
H368 H 0.6836 0.19492 0.43918 0.0
C369 C 0.8282 0.25243 0.47487 0.0
C370 C 0.82581 0.28201 0.45873 0.0
H371 H 0.78282 0.18099 0.49041 0.0
H372 H 0.86785 0.26778 0.48528 0.0
C373 C 0.7724 0.25973 0.44606 0.0
C374 C 0.58345 0.78405 0.80043 0.0
C375 C 0.64121 0.80414 0.80454 0.0
H376 H 0.52641 0.79735 0.78991 0.0
C377 C 0.68633 0.85501 0.80186 0.0
H378 H 0.5476 0.74516 0.80273 0.0
C379 C 0.67417 0.88486 0.79465 0.0
C380 C 0.6166 0.86458 0.78986 0.0
H381 H 0.73136 0.8716 0.80443 0.0
H382 H 0.71016 0.92354 0.79188 0.0
C383 C 0.57129 0.81395 0.79314 0.0
C384 C 0.73185 0.42144 0.20513 0.0
C385 C 0.77945 0.47191 0.20984 0.0
H386 H 0.65174 0.36849 0.18416 0.0
C387 C 0.77336 0.5066 0.20401 0.0
H388 H 0.73448 0.39369 0.21014 0.0
C389 C 0.72675 0.49235 0.18896 0.0
C390 C 0.68456 0.443 0.18014 0.0
H391 H 0.80849 0.5458 0.20751 0.0
H392 H 0.7275 0.52103 0.18205 0.0
C393 C 0.68507 0.4071 0.18988 0.0
C394 C 0.41706 0.83432 0.46938 0.0
C395 C 0.41552 0.8703 0.46049 0.0
H396 H 0.37036 0.75748 0.47484 0.0
C397 C 0.36257 0.85439 0.45025 0.0
H398 H 0.45683 0.84498 0.47749 0.0
C399 C 0.31287 0.80413 0.44874 0.0
C400 C 0.31439 0.76796 0.45736 0.0
H401 H 0.35941 0.88078 0.4432 0.0
H402 H 0.27352 0.79357 0.44019 0.0
C403 C 0.36732 0.78394 0.46778 0.0
C404 C 0.51078 0.21497 0.81417 0.0
C405 C 0.55724 0.26617 0.81499 0.0
H406 H 0.48136 0.14326 0.80371 0.0
C407 C 0.61211 0.28395 0.80684 0.0
H408 H 0.46774 0.2001 0.81993 0.0
C409 C 0.62004 0.25129 0.79765 0.0
C410 C 0.57321 0.20011 0.79626 0.0
H411 H 0.64901 0.32315 0.80759 0.0
H412 H 0.66288 0.2662 0.79153 0.0
C413 C 0.51864 0.18234 0.80491 0.0
C414 C 0.57551 0.77477 0.52717 0.0
C415 C 0.58546 0.78834 0.50162 0.0
H416 H 0.56488 0.72652 0.55431 0.0
C417 C 0.5869 0.75954 0.48305 0.0
H418 H 0.57522 0.7968 0.54196 0.0
C419 C 0.58058 0.71887 0.49009 0.0
C420 C 0.57294 0.70648 0.51585 0.0
H421 H 0.59397 0.76901 0.46316 0.0
H422 H 0.58266 0.69768 0.47546 0.0
C423 C 0.56951 0.7344 0.53422 0.0
C424 C 0.82404 0.58758 0.83725 0.0
C425 C 0.76419 0.54495 0.83971 0.0
H426 H 0.91509 0.62144 0.83727 0.0
C427 C 0.75607 0.50168 0.84446 0.0
H428 H 0.83481 0.62238 0.83367 0.0
C429 C 0.80335 0.50098 0.84661 0.0
C430 C 0.86355 0.54351 0.84417 0.0
H431 H 0.7122 0.46737 0.84665 0.0
H432 H 0.79154 0.46583 0.85012 0.0
C433 C 0.87149 0.5869 0.83934 0.0
C434 C 0.29418 0.69651 0.16514 0.0
C435 C 0.2446 0.68257 0.15214 0.0
H436 H 0.38073 0.75561 0.17931 0.0
C437 C 0.24746 0.72008 0.14194 0.0
H438 H 0.29354 0.66884 0.17353 0.0
C439 C 0.29789 0.76991 0.14477 0.0
C440 C 0.34731 0.78441 0.15831 0.0
H441 H 0.21043 0.71097 0.13165 0.0
H442 H 0.29787 0.79703 0.13617 0.0
C443 C 0.34455 0.74661 0.16833 0.0
C444 C 0.55249 0.29206 0.47114 0.0
C445 C 0.55484 0.26286 0.48738 0.0
H446 H 0.56326 0.35735 0.46772 0.0
C447 C 0.57266 0.27903 0.51302 0.0
H448 H 0.53856 0.2804 0.45132 0.0
C449 C 0.58622 0.32267 0.52243 0.0
C450 C 0.58252 0.35131 0.5064 0.0
H451 H 0.57565 0.25768 0.52592 0.0
H452 H 0.59797 0.3332 0.5425 0.0
C453 C 0.56609 0.33584 0.48057 0.0
C454 C 0.39401 0.49654 0.83956 0.0
C455 C 0.45401 0.53971 0.84223 0.0
H456 H 0.30277 0.46255 0.83885 0.0
C457 C 0.46231 0.58371 0.84692 0.0
H458 H 0.38318 0.46126 0.83585 0.0
C459 C 0.41495 0.58446 0.84911 0.0
C460 C 0.35474 0.54139 0.84627 0.0
H461 H 0.5063 0.61844 0.84927 0.0
H462 H 0.4264 0.61996 0.85279 0.0
C463 C 0.34659 0.49739 0.84122 0.0
C464 C 0.91596 0.33786 0.13492 0.0
C465 C 0.9244 0.37721 0.14839 0.0
H466 H 0.86206 0.25952 0.12807 0.0
C467 C 0.88269 0.36542 0.16648 0.0
H468 H 0.9472 0.34528 0.12094 0.0
C469 C 0.83445 0.31612 0.17109 0.0
C470 C 0.82525 0.27639 0.15749 0.0
H471 H 0.88798 0.39438 0.17771 0.0
H472 H 0.80508 0.30946 0.18588 0.0
C473 C 0.86707 0.28834 0.13925 0.0
C474 C 0.10698 0.5269 0.0607 0.0
C475 C 0.06743 0.53171 0.07087 0.0
H476 H 0.14475 0.52259 0.02671 0.0
C477 C 1.03438 0.5348 0.05376 0.0
H478 H 0.13335 0.52472 0.07335 0.0
C479 C 1.04045 0.53319 0.02727 0.0
C480 C 0.08034 0.52901 0.01691 0.0
H481 H 1.00365 0.5387 0.06086 0.0
H482 H 1.01453 0.53626 0.01487 0.0
C483 C 0.11375 0.52602 0.034 0.0
C484 C 0.64061 0.07111 0.38 0.0
C485 C 0.59201 0.03308 0.39354 0.0
H486 H 0.67537 0.10203 0.3435 0.0
C487 C 0.53912 0.99735 0.38027 0.0
H488 H 0.68181 0.09923 0.38985 0.0
C489 C 0.53574 0.99844 0.35365 0.0
C490 C 0.58479 0.036 0.34003 0.0
H491 H 0.50105 0.96762 0.3903 0.0
H492 H 0.49501 0.96969 0.34364 0.0
C493 C 0.63688 0.07286 0.35354 0.0
C494 C 0.54771 0.50222 0.7445 0.0
C495 C 0.5958 0.5307 0.76147 0.0
H496 H 0.51655 0.48595 0.70586 0.0
C497 C 0.65144 0.56672 0.75162 0.0
H498 H 0.50427 0.47393 0.7514 0.0
C499 C 0.65848 0.57376 0.72515 0.0
C500 C 0.60992 0.54512 0.7083 0.0
H501 H 0.68927 0.58916 0.76428 0.0
H502 H 0.7016 0.60182 0.7179 0.0
C503 C 0.55466 0.50923 0.71834 0.0
C504 C 0.60969 0.04974 0.55125 0.0
C505 C 0.55389 0.02128 0.53998 0.0
H506 H 0.65995 0.07143 0.58588 0.0
C507 C 0.50516 0.99069 0.55539 0.0
H508 H 0.64803 0.07352 0.53979 0.0
C509 C 0.51189 0.9892 0.58161 0.0
C510 C 0.56757 0.01862 0.59312 0.0
H511 H 0.4616 0.96819 0.54721 0.0
H512 H 0.47335 0.96605 0.59302 0.0
C513 C 0.61647 0.04867 0.57761 0.0
C514 C 0.66189 0.54829 0.92262 0.0
C515 C 0.6168 0.53418 0.90594 0.0
H516 H 0.68398 0.53724 0.95883 0.0
C517 C 0.55888 0.49505 0.91202 0.0
H518 H 0.70689 0.57816 0.91818 0.0
C519 C 0.54607 0.47168 0.93495 0.0
C520 C 0.59097 0.48681 0.95198 0.0
H521 H 0.52337 0.48332 0.89937 0.0
H522 H 0.501 0.443 0.93987 0.0
C523 C 0.64899 0.52462 0.94558 0.0
C524 C 1.03083 0.47217 0.23633 0.0
C525 C 0.06882 0.51526 0.22264 0.0
H526 H 0.99868 0.44076 0.27294 0.0
C527 C 0.10216 0.56126 0.23605 0.0
H528 H 1.00454 0.4362 0.22647 0.0
C529 C 0.09951 0.56384 0.26282 0.0
C530 C 0.06253 0.52053 0.27658 0.0
H531 H 0.13197 0.59505 0.22599 0.0
H532 H 0.12691 0.59967 0.27282 0.0
C533 C 1.0273 0.47476 0.26293 0.0
loop_
_geom_bond_atom_site_label_1
_geom_bond_atom_site_label_2
_geom_bond_distance
_geom_bond_site_symmetry_2
_ccdc_geom_bond_type
Ho0 C3 2.811 . S
Ho0 O20 2.322 . S
Ho0 O22 2.378 . S
Ho0 O23 2.524 . S
Ho0 O24 2.381 . S
Ho0 O25 2.669 . S
Ho0 O27 2.346 1_455 S
Ho0 O31 2.305 . S
Ho1 C12 2.811 . S
Ho1 O21 2.346 1_655 S
Ho1 O25 2.305 1_655 S
Ho1 O26 2.322 . S
Ho1 O28 2.378 . S
Ho1 O29 2.524 . S
Ho1 O30 2.378 1_655 S
Ho1 O31 2.669 1_655 S
C2 O20 1.259 . S
C2 O21 1.268 . S
C3 Ho0 2.811 . S
C3 C4 1.488 . S
C3 O22 1.215 . S
C3 O23 1.289 . S
C4 C3 1.488 . S
C4 C5 1.348 . S
C4 C9 1.413 . S
C5 C4 1.348 . S
C5 C6 1.442 . S
C5 H32 0.930 . S
C6 C5 1.442 . S
C6 C7 1.381 . S
C6 H33 0.931 . S
C7 C6 1.381 . S
C7 C8 1.321 . S
C8 C7 1.321 . S
C8 C9 1.403 . S
C8 H34 0.934 . S
C9 C4 1.413 . S
C9 C8 1.403 . S
C9 H35 0.930 . S
C10 O24 1.275 . S
C10 O25 1.256 . S
C11 O26 1.259 . S
C11 O27 1.268 . S
C12 Ho1 2.811 . S
C12 C13 1.488 . S
C12 O28 1.215 . S
C12 O29 1.289 . S
C13 C12 1.488 . S
C13 C14 1.348 . S
C13 C18 1.413 . S
C14 C13 1.348 . S
C14 C15 1.442 . S
C14 H36 0.930 . S
C15 C14 1.442 . S
C15 C16 1.381 . S
C15 H37 0.931 . S
C16 C15 1.381 . S
C16 C17 1.321 . S
C17 C16 1.321 . S
C17 C18 1.403 . S
C17 H38 0.934 . S
C18 C13 1.413 . S
C18 C17 1.403 . S
C18 H39 0.930 . S
C19 O30 1.292 . S
C19 O31 1.256 . S
O20 Ho0 2.322 . S
O20 C2 1.259 . S
O21 Ho1 2.346 1_455 S
O21 C2 1.268 . S
O22 Ho0 2.378 . S
O22 C3 1.215 . S
O23 Ho0 2.524 . S
O23 C3 1.289 . S
O24 Ho0 2.381 . S
O24 C10 1.275 . S
O25 Ho0 2.669 . S
O25 Ho1 2.305 1_455 S
O25 C10 1.256 . S
O26 Ho1 2.322 . S
O26 C11 1.259 . S
O27 Ho0 2.346 1_655 S
O27 C11 1.268 . S
O28 Ho1 2.378 . S
O28 C12 1.215 . S
O29 Ho1 2.524 . S
O29 C12 1.289 . S
O30 Ho1 2.378 1_455 S
O30 C19 1.292 . S
O31 Ho0 2.305 . S
O31 Ho1 2.669 1_455 S
O31 C19 1.256 . S
H32 C5 0.930 . S
H33 C6 0.931 . S
H34 C8 0.934 . S
H35 C9 0.930 . S
H36 C14 0.930 . S
H37 C15 0.931 . S
H38 C17 0.934 . S
H39 C18 0.930 . S
Ho40 C43 2.811 . S
Ho40 O60 2.322 . S
Ho40 O62 2.378 . S
Ho40 O63 2.524 . S
Ho40 O64 2.381 . S
Ho40 O65 2.669 1_565 S
Ho40 O67 2.346 1_565 S
Ho40 O71 2.313 . S
Ho41 C52 2.811 . S
Ho41 O61 2.346 1_545 S
Ho41 O65 2.305 . S
Ho41 O66 2.322 . S
Ho41 O68 2.378 . S
Ho41 O69 2.524 . S
Ho41 O70 2.381 . S
Ho41 O71 2.656 1_545 S
C42 O60 1.259 . S
C42 O61 1.268 . S
C43 Ho40 2.811 . S
C43 C44 1.488 . S
C43 O62 1.215 . S
C43 O63 1.289 . S
C44 C43 1.488 . S
C44 C45 1.348 . S
C44 C49 1.413 . S
C45 C44 1.348 . S
C45 C46 1.442 . S
C45 H72 0.930 . S
C46 C45 1.442 . S
C46 C47 1.381 . S
C46 H73 0.931 . S
C47 C46 1.381 . S
C47 C48 1.321 . S
C48 C47 1.321 . S
C48 C49 1.403 . S
C48 H74 0.934 . S
C49 C44 1.413 . S
C49 C48 1.403 . S
C49 H75 0.930 . S
C50 O64 1.275 1_545 S
C50 O65 1.256 . S
C51 O66 1.259 . S
C51 O67 1.268 . S
C52 Ho41 2.811 . S
C52 C53 1.488 . S
C52 O68 1.215 . S
C52 O69 1.289 . S
C53 C52 1.488 . S
C53 C54 1.348 . S
C53 C58 1.413 . S
C54 C53 1.348 . S
C54 C55 1.442 . S
C54 H76 0.930 . S
C55 C54 1.442 . S
C55 C56 1.381 . S
C55 H77 0.931 . S
C56 C55 1.381 . S
C56 C57 1.321 . S
C57 C56 1.321 . S
C57 C58 1.403 . S
C57 H78 0.934 . S
C58 C53 1.413 . S
C58 C57 1.403 . S
C58 H79 0.930 . S
C59 O70 1.275 . S
C59 O71 1.249 1_545 S
O60 Ho40 2.322 . S
O60 C42 1.259 . S
O61 Ho41 2.346 1_565 S
O61 C42 1.268 . S
O62 Ho40 2.378 . S
O62 C43 1.215 . S
O63 Ho40 2.524 . S
O63 C43 1.289 . S
O64 Ho40 2.381 . S
O64 C50 1.275 1_565 S
O65 Ho40 2.669 1_545 S
O65 Ho41 2.305 . S
O65 C50 1.256 . S
O66 Ho41 2.322 . S
O66 C51 1.259 . S
O67 Ho40 2.346 1_545 S
O67 C51 1.268 . S
O68 Ho41 2.378 . S
O68 C52 1.215 . S
O69 Ho41 2.524 . S
O69 C52 1.289 . S
O70 Ho41 2.381 . S
O70 C59 1.275 . S
O71 Ho40 2.313 . S
O71 Ho41 2.656 1_565 S
O71 C59 1.249 1_565 S
H72 C45 0.930 . S
H73 C46 0.931 . S
H74 C48 0.934 . S
H75 C49 0.930 . S
H76 C54 0.930 . S
H77 C55 0.931 . S
H78 C57 0.934 . S
H79 C58 0.930 . S
Ho80 C83 2.811 . S
Ho80 O100 2.322 . S
Ho80 O102 2.378 . S
Ho80 O103 2.524 . S
Ho80 O104 2.381 . S
Ho80 O105 2.669 . S
Ho80 O107 2.346 . S
Ho80 O111 2.305 . S
Ho81 C92 2.811 . S
Ho81 O101 2.346 . S
Ho81 O105 2.305 . S
Ho81 O106 2.322 . S
Ho81 O108 2.378 . S
Ho81 O109 2.524 . S
Ho81 O110 2.381 . S
Ho81 O111 2.669 . S
C82 O100 1.259 . S
C82 O101 1.268 . S
C83 Ho80 2.811 . S
C83 C84 1.488 . S
C83 O102 1.215 . S
C83 O103 1.289 . S
C84 C83 1.488 . S
C84 C85 1.348 . S
C84 C89 1.413 . S
C85 C84 1.348 . S
C85 C86 1.442 . S
C85 H112 0.930 . S
C86 C85 1.442 . S
C86 C87 1.381 . S
C86 H113 0.931 . S
C87 C86 1.381 . S
C87 C88 1.321 . S
C88 C87 1.321 . S
C88 C89 1.403 . S
C88 H114 0.934 . S
C89 C84 1.413 . S
C89 C88 1.403 . S
C89 H115 0.930 . S
C90 O104 1.275 . S
C90 O105 1.256 . S
C91 O106 1.259 . S
C91 O107 1.268 . S
C92 Ho81 2.811 . S
C92 C93 1.488 . S
C92 O108 1.215 . S
C92 O109 1.289 . S
C93 C92 1.488 . S
C93 C94 1.348 . S
C93 C98 1.413 . S
C94 C93 1.348 . S
C94 C95 1.442 . S
C94 H116 0.930 . S
C95 C94 1.442 . S
C95 C96 1.381 . S
C95 H117 0.931 . S
C96 C95 1.381 . S
C96 C97 1.321 . S
C97 C96 1.321 . S
C97 C98 1.403 . S
C97 H118 0.934 . S
C98 C93 1.413 . S
C98 C97 1.403 . S
C98 H119 0.930 . S
C99 O110 1.275 . S
C99 O111 1.256 . S
O100 Ho80 2.322 . S
O100 C82 1.259 . S
O101 Ho81 2.346 . S
O101 C82 1.268 . S
O102 Ho80 2.378 . S
O102 C83 1.215 . S
O103 Ho80 2.524 . S
O103 C83 1.289 . S
O104 Ho80 2.381 . S
O104 C90 1.275 . S
O105 Ho80 2.669 . S
O105 Ho81 2.305 . S
O105 C90 1.256 . S
O106 Ho81 2.322 . S
O106 C91 1.259 . S
O107 Ho80 2.346 . S
O107 C91 1.268 . S
O108 Ho81 2.378 . S
O108 C92 1.215 . S
O109 Ho81 2.524 . S
O109 C92 1.289 . S
O110 Ho81 2.381 . S
O110 C99 1.275 . S
O111 Ho80 2.305 . S
O111 Ho81 2.669 . S
O111 C99 1.256 . S
H112 C85 0.930 . S
H113 C86 0.931 . S
H114 C88 0.934 . S
H115 C89 0.930 . S
H116 C94 0.930 . S
H117 C95 0.931 . S
H118 C97 0.934 . S
H119 C98 0.930 . S
C120 C121 1.386 . S
C120 C122 1.397 . S
C120 H144 0.931 . S
C121 C120 1.386 . S
C121 C125 1.397 1_545 S
C122 C120 1.397 . S
C122 C123 1.384 . S
C122 H145 0.930 . S
C123 C122 1.384 . S
C123 C124 1.377 1_545 S
C123 C126 1.481 . S
C124 C123 1.377 1_565 S
C124 C125 1.389 . S
C124 H146 0.929 . S
C125 C121 1.397 1_565 S
C125 C124 1.389 . S
C125 H147 0.931 . S
C126 C123 1.481 . S
C126 C127 1.387 . S
C126 C131 1.390 1_545 S
C127 C126 1.387 . S
C127 C128 1.401 . S
C127 H148 0.930 . S
C128 C127 1.401 . S
C128 C129 1.376 . S
C128 C137 1.511 . S
C129 C128 1.376 . S
C129 C130 1.392 1_545 S
C129 H150 0.931 . S
C130 C129 1.392 1_565 S
C130 C131 1.361 . S
C130 C132 1.500 . S
C131 C126 1.390 1_565 S
C131 C130 1.361 . S
C131 H149 0.931 . S
C132 C130 1.500 . S
C132 C133 1.371 . S
C132 C134 1.365 . S
C133 C132 1.371 . S
C133 C143 1.386 . S
C133 H151 0.931 . S
C134 C132 1.365 . S
C134 C135 1.409 . S
C134 H152 0.929 . S
C135 C134 1.409 . S
C135 C136 1.380 . S
C135 H153 0.930 . S
C136 C135 1.380 . S
C136 C143 1.357 . S
C137 C128 1.511 . S
C137 C138 1.341 . S
C137 C139 1.371 . S
C138 C137 1.341 . S
C138 C142 1.394 . S
C138 H154 0.930 . S
C139 C137 1.371 . S
C139 C140 1.392 . S
C139 H155 0.931 . S
C140 C139 1.392 . S
C140 C141 1.331 . S
C140 H158 0.932 . S
C141 C140 1.331 . S
C141 C142 1.336 . S
C142 C138 1.394 . S
C142 C141 1.336 . S
C142 H157 0.929 . S
C143 C133 1.386 . S
C143 C136 1.357 . S
C143 H156 0.928 . S
H144 C120 0.931 . S
H145 C122 0.930 . S
H146 C124 0.929 . S
H147 C125 0.931 . S
H148 C127 0.930 . S
H149 C131 0.931 . S
H150 C129 0.931 . S
H151 C133 0.931 . S
H152 C134 0.929 . S
H153 C135 0.930 . S
H154 C138 0.930 . S
H155 C139 0.931 . S
H156 C143 0.928 . S
H157 C142 0.929 . S
H158 C140 0.932 . S
C159 C160 1.386 . S
C159 C161 1.397 . S
C159 H183 0.931 . S
C160 C159 1.386 . S
C160 C164 1.397 . S
C161 C159 1.397 . S
C161 C162 1.384 . S
C161 H184 0.930 . S
C162 C161 1.384 . S
C162 C163 1.377 . S
C162 C165 1.481 . S
C163 C162 1.377 . S
C163 C164 1.389 . S
C163 H185 0.929 . S
C164 C160 1.397 . S
C164 C163 1.389 . S
C164 H186 0.931 . S
C165 C162 1.481 . S
C165 C166 1.387 . S
C165 C170 1.390 . S
C166 C165 1.387 . S
C166 C167 1.401 . S
C166 H187 0.930 . S
C167 C166 1.401 . S
C167 C168 1.376 . S
C167 C176 1.511 . S
C168 C167 1.376 . S
C168 C169 1.392 . S
C168 H189 0.931 . S
C169 C168 1.392 . S
C169 C170 1.361 . S
C169 C171 1.500 . S
C170 C165 1.390 . S
C170 C169 1.361 . S
C170 H188 0.931 . S
C171 C169 1.500 . S
C171 C172 1.371 . S
C171 C173 1.365 . S
C172 C171 1.371 . S
C172 C182 1.386 . S
C172 H190 0.931 . S
C173 C171 1.365 . S
C173 C174 1.409 . S
C173 H191 0.929 . S
C174 C173 1.409 . S
C174 C175 1.380 . S
C174 H192 0.930 . S
C175 C174 1.380 . S
C175 C182 1.357 . S
C176 C167 1.511 . S
C176 C177 1.341 . S
C176 C178 1.371 . S
C177 C176 1.341 . S
C177 C181 1.394 . S
C177 H193 0.930 . S
C178 C176 1.371 . S
C178 C179 1.392 . S
C178 H194 0.931 . S
C179 C178 1.392 . S
C179 C180 1.331 . S
C179 H197 0.932 . S
C180 C179 1.331 . S
C180 C181 1.336 . S
C181 C177 1.394 . S
C181 C180 1.336 . S
C181 H196 0.929 . S
C182 C172 1.386 . S
C182 C175 1.357 . S
C182 H195 0.928 . S
H183 C159 0.931 . S
H184 C161 0.930 . S
H185 C163 0.929 . S
H186 C164 0.931 . S
H187 C166 0.930 . S
H188 C170 0.931 . S
H189 C168 0.931 . S
H190 C172 0.931 . S
H191 C173 0.929 . S
H192 C174 0.930 . S
H193 C177 0.930 . S
H194 C178 0.931 . S
H195 C182 0.928 . S
H196 C181 0.929 . S
H197 C179 0.932 . S
C198 C199 1.392 . S
C198 C200 1.397 . S
C198 H222 0.931 . S
C199 C198 1.392 . S
C199 C203 1.417 . S
C200 C198 1.397 . S
C200 C201 1.384 . S
C200 H223 0.930 . S
C201 C200 1.384 . S
C201 C202 1.377 . S
C201 C204 1.481 . S
C202 C201 1.377 . S
C202 C203 1.390 . S
C202 H224 0.929 1_455 S
C203 C199 1.417 . S
C203 C202 1.390 . S
C203 H225 0.917 1_455 S
C204 C201 1.481 . S
C204 C205 1.387 . S
C204 C209 1.390 . S
C205 C204 1.387 . S
C205 C206 1.401 . S
C205 H226 0.930 . S
C206 C205 1.401 . S
C206 C207 1.376 . S
C206 C215 1.511 . S
C207 C206 1.376 . S
C207 C208 1.392 . S
C207 H228 0.931 . S
C208 C207 1.392 . S
C208 C209 1.361 . S
C208 C210 1.500 1_455 S
C209 C204 1.390 . S
C209 C208 1.361 . S
C209 H227 0.931 1_455 S
C210 C208 1.500 1_655 S
C210 C211 1.371 . S
C210 C212 1.365 . S
C211 C210 1.371 . S
C211 C221 1.386 . S
C211 H229 0.931 1_655 S
C212 C210 1.365 . S
C212 C213 1.409 . S
C212 H230 0.929 . S
C213 C212 1.409 . S
C213 C214 1.380 . S
C213 H231 0.930 . S
C214 C213 1.380 . S
C214 C221 1.357 . S
C215 C206 1.511 . S
C215 C216 1.341 . S
C215 C217 1.371 . S
C216 C215 1.341 . S
C216 C220 1.394 . S
C216 H232 0.930 . S
C217 C215 1.371 . S
C217 C218 1.392 . S
C217 H233 0.931 . S
C218 C217 1.392 . S
C218 C219 1.331 . S
C218 H236 0.932 . S
C219 C218 1.331 . S
C219 C220 1.336 . S
C220 C216 1.394 . S
C220 C219 1.336 . S
C220 H235 0.929 . S
C221 C211 1.386 . S
C221 C214 1.357 . S
C221 H234 0.928 . S
H222 C198 0.931 . S
H223 C200 0.930 . S
H224 C202 0.929 1_655 S
H225 C203 0.917 1_655 S
H226 C205 0.930 . S
H227 C209 0.931 1_655 S
H228 C207 0.931 . S
H229 C211 0.931 1_455 S
H230 C212 0.929 . S
H231 C213 0.930 . S
H232 C216 0.930 . S
H233 C217 0.931 . S
H234 C221 0.928 . S
H235 C220 0.929 . S
H236 C218 0.932 . S
C237 C238 1.389 . S
C237 C239 1.397 . S
C237 H261 0.931 . S
C238 C237 1.389 . S
C238 C242 1.394 1_655 S
C239 C237 1.397 . S
C239 C240 1.384 . S
C239 H262 0.930 . S
C240 C239 1.384 . S
C240 C241 1.377 1_655 S
C240 C243 1.481 . S
C241 C240 1.377 1_455 S
C241 C242 1.389 . S
C241 H263 0.929 . S
C242 C238 1.394 1_455 S
C242 C241 1.389 . S
C242 H264 0.931 . S
C243 C240 1.481 . S
C243 C244 1.387 . S
C243 C248 1.390 1_655 S
C244 C243 1.387 . S
C244 C245 1.401 . S
C244 H265 0.930 . S
C245 C244 1.401 . S
C245 C246 1.376 . S
C245 C254 1.511 . S
C246 C245 1.376 . S
C246 C247 1.392 1_655 S
C246 H267 0.931 . S
C247 C246 1.392 1_455 S
C247 C248 1.361 . S
C247 C249 1.500 . S
C248 C243 1.390 1_455 S
C248 C247 1.361 . S
C248 H266 0.931 . S
C249 C247 1.500 . S
C249 C250 1.371 . S
C249 C251 1.365 . S
C250 C249 1.371 . S
C250 C260 1.386 . S
C250 H268 0.931 . S
C251 C249 1.365 . S
C251 C252 1.409 . S
C251 H269 0.929 . S
C252 C251 1.409 . S
C252 C253 1.380 . S
C252 H270 0.930 . S
C253 C252 1.380 . S
C253 C260 1.357 . S
C254 C245 1.511 . S
C254 C255 1.341 . S
C254 C256 1.371 . S
C255 C254 1.341 . S
C255 C259 1.394 . S
C255 H271 0.930 . S
C256 C254 1.371 . S
C256 C257 1.392 . S
C256 H272 0.931 . S
C257 C256 1.392 . S
C257 C258 1.331 . S
C257 H275 0.932 . S
C258 C257 1.331 . S
C258 C259 1.336 . S
C259 C255 1.394 . S
C259 C258 1.336 . S
C259 H274 0.929 . S
C260 C250 1.386 . S
C260 C253 1.357 . S
C260 H273 0.928 . S
H261 C237 0.931 . S
H262 C239 0.930 . S
H263 C241 0.929 . S
H264 C242 0.931 . S
H265 C244 0.930 . S
H266 C248 0.931 . S
H267 C246 0.931 . S
H268 C250 0.931 . S
H269 C251 0.929 . S
H270 C252 0.930 . S
H271 C255 0.930 . S
H272 C256 0.931 . S
H273 C260 0.928 . S
H274 C259 0.929 . S
H275 C257 0.932 . S
C276 C277 1.386 . S
C276 C278 1.397 . S
C276 H300 0.931 . S
C277 C276 1.386 . S
C277 C281 1.397 1_565 S
C278 C276 1.397 . S
C278 C279 1.384 . S
C278 H301 0.930 . S
C279 C278 1.384 . S
C279 C280 1.377 1_565 S
C279 C282 1.481 . S
C280 C279 1.377 1_545 S
C280 C281 1.389 . S
C280 H302 0.929 . S
C281 C277 1.397 1_545 S
C281 C280 1.389 . S
C281 H303 0.931 . S
C282 C279 1.481 . S
C282 C283 1.387 . S
C282 C287 1.390 1_565 S
C283 C282 1.387 . S
C283 C284 1.401 . S
C283 H304 0.930 . S
C284 C283 1.401 . S
C284 C285 1.376 1_565 S
C284 C293 1.511 . S
C285 C284 1.376 1_545 S
C285 C286 1.392 . S
C285 H306 0.931 . S
C286 C285 1.392 . S
C286 C287 1.361 . S
C286 C288 1.500 . S
C287 C282 1.390 1_545 S
C287 C286 1.361 . S
C287 H305 0.931 . S
C288 C286 1.500 . S
C288 C289 1.371 . S
C288 C290 1.365 . S
C289 C288 1.371 . S
C289 C299 1.386 . S
C289 H307 0.931 . S
C290 C288 1.365 . S
C290 C291 1.409 . S
C290 H308 0.929 . S
C291 C290 1.409 . S
C291 C292 1.380 . S
C291 H309 0.930 . S
C292 C291 1.380 . S
C292 C299 1.357 . S
C293 C284 1.511 . S
C293 C294 1.341 . S
C293 C295 1.371 . S
C294 C293 1.341 . S
C294 C298 1.394 . S
C294 H310 0.930 . S
C295 C293 1.371 . S
C295 C296 1.392 . S
C295 H311 0.931 . S
C296 C295 1.392 . S
C296 C297 1.331 . S
C296 H314 0.932 . S
C297 C296 1.331 . S
C297 C298 1.336 . S
C298 C294 1.394 . S
C298 C297 1.336 . S
C298 H313 0.929 . S
C299 C289 1.386 . S
C299 C292 1.357 . S
C299 H312 0.928 . S
H300 C276 0.931 . S
H301 C278 0.930 . S
H302 C280 0.929 . S
H303 C281 0.931 . S
H304 C283 0.930 . S
H305 C287 0.931 . S
H306 C285 0.931 . S
H307 C289 0.931 . S
H308 C290 0.929 . S
H309 C291 0.930 . S
H310 C294 0.930 . S
H311 C295 0.931 . S
H312 C299 0.928 . S
H313 C298 0.929 . S
H314 C296 0.932 . S
C315 C316 1.386 . S
C315 C317 1.397 1_556 S
C315 H339 0.931 . S
C316 C315 1.386 . S
C316 C320 1.397 . S
C317 C315 1.397 1_554 S
C317 C318 1.384 . S
C317 H340 0.930 . S
C318 C317 1.384 . S
C318 C319 1.377 . S
C318 C321 1.481 . S
C319 C318 1.377 . S
C319 C320 1.389 1_554 S
C319 H341 0.929 . S
C320 C316 1.397 . S
C320 C319 1.389 1_556 S
C320 H342 0.931 . S
C321 C318 1.481 . S
C321 C322 1.387 . S
C321 C326 1.390 . S
C322 C321 1.387 . S
C322 C323 1.401 . S
C322 H343 0.930 . S
C323 C322 1.401 . S
C323 C324 1.376 . S
C323 C332 1.511 . S
C324 C323 1.376 . S
C324 C325 1.392 . S
C324 H345 0.931 . S
C325 C324 1.392 . S
C325 C326 1.361 . S
C325 C327 1.500 . S
C326 C321 1.390 . S
C326 C325 1.361 . S
C326 H344 0.931 . S
C327 C325 1.500 . S
C327 C328 1.371 . S
C327 C329 1.365 . S
C328 C327 1.371 . S
C328 C338 1.386 . S
C328 H346 0.931 . S
C329 C327 1.365 . S
C329 C330 1.409 . S
C329 H347 0.929 . S
C330 C329 1.409 . S
C330 C331 1.380 . S
C330 H348 0.930 . S
C331 C330 1.380 . S
C331 C338 1.357 . S
C332 C323 1.511 . S
C332 C333 1.341 . S
C332 C334 1.371 . S
C333 C332 1.341 . S
C333 C337 1.394 . S
C333 H349 0.930 . S
C334 C332 1.371 . S
C334 C335 1.392 . S
C334 H350 0.931 . S
C335 C334 1.392 . S
C335 C336 1.331 . S
C335 H353 0.932 . S
C336 C335 1.331 . S
C336 C337 1.336 . S
C337 C333 1.394 . S
C337 C336 1.336 . S
C337 H352 0.929 . S
C338 C328 1.386 . S
C338 C331 1.357 . S
C338 H351 0.928 . S
H339 C315 0.931 . S
H340 C317 0.930 . S
H341 C319 0.929 . S
H342 C320 0.931 . S
H343 C322 0.930 . S
H344 C326 0.931 . S
H345 C324 0.931 . S
H346 C328 0.931 . S
H347 C329 0.929 . S
H348 C330 0.930 . S
H349 C333 0.930 . S
H350 C334 0.931 . S
H351 C338 0.928 . S
H352 C337 0.929 . S
H353 C335 0.932 . S
C354 C355 1.387 . S
C354 H358 0.950 . S
C354 C363 1.390 . S
C355 C354 1.387 . S
C355 C357 1.387 . S
H356 C363 0.950 . S
C357 C355 1.387 . S
C357 C359 1.390 . S
C357 H361 0.950 . S
H358 C354 0.950 . S
C359 C357 1.390 . S
C359 C360 1.387 . S
C359 H362 0.950 . S
C360 C359 1.387 . S
C360 C363 1.387 . S
H361 C357 0.950 . S
H362 C359 0.950 . S
C363 C354 1.390 . S
C363 H356 0.950 . S
C363 C360 1.387 . S
C364 C365 1.387 . S
C364 H368 0.950 . S
C364 C373 1.390 . S
C365 C364 1.387 . S
C365 C367 1.387 . S
H366 C373 0.950 . S
C367 C365 1.387 . S
C367 C369 1.390 . S
C367 H371 0.950 . S
H368 C364 0.950 . S
C369 C367 1.390 . S
C369 C370 1.387 . S
C369 H372 0.950 . S
C370 C369 1.387 . S
C370 C373 1.387 . S
H371 C367 0.950 . S
H372 C369 0.950 . S
C373 C364 1.390 . S
C373 H366 0.950 . S
C373 C370 1.387 . S
C374 C375 1.387 . S
C374 H378 0.950 . S
C374 C383 1.390 . S
C375 C374 1.387 . S
C375 C377 1.387 . S
H376 C383 0.950 . S
C377 C375 1.387 . S
C377 C379 1.390 . S
C377 H381 0.950 . S
H378 C374 0.950 . S
C379 C377 1.390 . S
C379 C380 1.387 . S
C379 H382 0.950 . S
C380 C379 1.387 . S
C380 C383 1.387 . S
H381 C377 0.950 . S
H382 C379 0.950 . S
C383 C374 1.390 . S
C383 H376 0.950 . S
C383 C380 1.387 . S
C384 C385 1.387 . S
C384 H388 0.950 . S
C384 C393 1.390 . S
C385 C384 1.387 . S
C385 C387 1.387 . S
H386 C393 0.950 . S
C387 C385 1.387 . S
C387 C389 1.390 . S
C387 H391 0.950 . S
H388 C384 0.950 . S
C389 C387 1.390 . S
C389 C390 1.387 . S
C389 H392 0.950 . S
C390 C389 1.387 . S
C390 C393 1.387 . S
H391 C387 0.950 . S
H392 C389 0.950 . S
C393 C384 1.390 . S
C393 H386 0.950 . S
C393 C390 1.387 . S
C394 C395 1.387 . S
C394 H398 0.950 . S
C394 C403 1.390 . S
C395 C394 1.387 . S
C395 C397 1.387 . S
H396 C403 0.950 . S
C397 C395 1.387 . S
C397 C399 1.390 . S
C397 H401 0.950 . S
H398 C394 0.950 . S
C399 C397 1.390 . S
C399 C400 1.387 . S
C399 H402 0.950 . S
C400 C399 1.387 . S
C400 C403 1.387 . S
H401 C397 0.950 . S
H402 C399 0.950 . S
C403 C394 1.390 . S
C403 H396 0.950 . S
C403 C400 1.387 . S
C404 C405 1.387 . S
C404 H408 0.950 . S
C404 C413 1.390 . S
C405 C404 1.387 . S
C405 C407 1.387 . S
H406 C413 0.950 . S
C407 C405 1.387 . S
C407 C409 1.390 . S
C407 H411 0.950 . S
H408 C404 0.950 . S
C409 C407 1.390 . S
C409 C410 1.387 . S
C409 H412 0.950 . S
C410 C409 1.387 . S
C410 C413 1.387 . S
H411 C407 0.950 . S
H412 C409 0.950 . S
C413 C404 1.390 . S
C413 H406 0.950 . S
C413 C410 1.387 . S
C414 C415 1.387 . S
C414 H418 0.950 . S
C414 C423 1.390 . S
C415 C414 1.387 . S
C415 C417 1.387 . S
H416 C423 0.950 . S
C417 C415 1.387 . S
C417 C419 1.390 . S
C417 H421 0.950 . S
H418 C414 0.950 . S
C419 C417 1.390 . S
C419 C420 1.387 . S
C419 H422 0.950 . S
C420 C419 1.387 . S
C420 C423 1.387 . S
H421 C417 0.950 . S
H422 C419 0.950 . S
C423 C414 1.390 . S
C423 H416 0.950 . S
C423 C420 1.387 . S
C424 C425 1.387 . S
C424 H428 0.950 . S
C424 C433 1.390 . S
C425 C424 1.387 . S
C425 C427 1.387 . S
H426 C433 0.950 . S
C427 C425 1.387 . S
C427 C429 1.390 . S
C427 H431 0.950 . S
H428 C424 0.950 . S
C429 C427 1.390 . S
C429 C430 1.387 . S
C429 H432 0.950 . S
C430 C429 1.387 . S
C430 C433 1.387 . S
H431 C427 0.950 . S
H432 C429 0.950 . S
C433 C424 1.390 . S
C433 H426 0.950 . S
C433 C430 1.387 . S
C434 C435 1.387 . S
C434 H438 0.950 . S
C434 C443 1.390 . S
C435 C434 1.387 . S
C435 C437 1.387 . S
H436 C443 0.950 . S
C437 C435 1.387 . S
C437 C439 1.390 . S
C437 H441 0.950 . S
H438 C434 0.950 . S
C439 C437 1.390 . S
C439 C440 1.387 . S
C439 H442 0.950 . S
C440 C439 1.387 . S
C440 C443 1.387 . S
H441 C437 0.950 . S
H442 C439 0.950 . S
C443 C434 1.390 . S
C443 H436 0.950 . S
C443 C440 1.387 . S
C444 C445 1.387 . S
C444 H448 0.950 . S
C444 C453 1.390 . S
C445 C444 1.387 . S
C445 C447 1.387 . S
H446 C453 0.950 . S
C447 C445 1.387 . S
C447 C449 1.390 . S
C447 H451 0.950 . S
H448 C444 0.950 . S
C449 C447 1.390 . S
C449 C450 1.387 . S
C449 H452 0.950 . S
C450 C449 1.387 . S
C450 C453 1.387 . S
H451 C447 0.950 . S
H452 C449 0.950 . S
C453 C444 1.390 . S
C453 H446 0.950 . S
C453 C450 1.387 . S
C454 C455 1.387 . S
C454 H458 0.950 . S
C454 C463 1.390 . S
C455 C454 1.387 . S
C455 C457 1.387 . S
H456 C463 0.950 . S
C457 C455 1.387 . S
C457 C459 1.390 . S
C457 H461 0.950 . S
H458 C454 0.950 . S
C459 C457 1.390 . S
C459 C460 1.387 . S
C459 H462 0.950 . S
C460 C459 1.387 . S
C460 C463 1.387 . S
H461 C457 0.950 . S
H462 C459 0.950 . S
C463 C454 1.390 . S
C463 H456 0.950 . S
C463 C460 1.387 . S
C464 C465 1.387 . S
C464 H468 0.950 . S
C464 C473 1.390 . S
C465 C464 1.387 . S
C465 C467 1.387 . S
H466 C473 0.950 . S
C467 C465 1.387 . S
C467 C469 1.390 . S
C467 H471 0.950 . S
H468 C464 0.950 . S
C469 C467 1.390 . S
C469 C470 1.387 . S
C469 H472 0.950 . S
C470 C469 1.387 . S
C470 C473 1.387 . S
H471 C467 0.950 . S
H472 C469 0.950 . S
C473 C464 1.390 . S
C473 H466 0.950 . S
C473 C470 1.387 . S
C474 C475 1.387 . S
C474 H478 0.950 . S
C474 C483 1.390 . S
C475 C474 1.387 . S
C475 C477 1.387 1_455 S
H476 C483 0.950 . S
C477 C475 1.387 1_655 S
C477 C479 1.390 1_655 S
C477 H481 0.950 . S
H478 C474 0.950 . S
C479 C477 1.390 1_455 S
C479 C480 1.387 . S
C479 H482 0.950 1_455 S
C480 C479 1.387 . S
C480 C483 1.387 . S
H481 C477 0.950 . S
H482 C479 0.950 1_655 S
C483 C474 1.390 . S
C483 H476 0.950 . S
C483 C480 1.387 . S
C484 C485 1.387 . S
C484 H488 0.950 . S
C484 C493 1.390 . S
C485 C484 1.387 . S
C485 C487 1.387 1_545 S
H486 C493 0.950 . S
C487 C485 1.387 1_565 S
C487 C489 1.390 1_565 S
C487 H491 0.950 . S
H488 C484 0.950 . S
C489 C487 1.390 1_545 S
C489 C490 1.387 . S
C489 H492 0.950 1_545 S
C490 C489 1.387 . S
C490 C493 1.387 . S
H491 C487 0.950 . S
H492 C489 0.950 1_565 S
C493 C484 1.390 . S
C493 H486 0.950 . S
C493 C490 1.387 . S
C494 C495 1.387 . S
C494 H498 0.950 . S
C494 C503 1.390 . S
C495 C494 1.387 . S
C495 C497 1.387 . S
H496 C503 0.950 . S
C497 C495 1.387 . S
C497 C499 1.390 . S
C497 H501 0.950 . S
H498 C494 0.950 . S
C499 C497 1.390 . S
C499 C500 1.387 . S
C499 H502 0.950 . S
C500 C499 1.387 . S
C500 C503 1.387 . S
H501 C497 0.950 . S
H502 C499 0.950 . S
C503 C494 1.390 . S
C503 H496 0.950 . S
C503 C500 1.387 . S
C504 C505 1.387 . S
C504 H508 0.950 . S
C504 C513 1.394 . S
C505 C504 1.387 . S
C505 C507 1.387 1_545 S
H506 C513 0.931 . S
C507 C505 1.387 1_565 S
C507 C509 1.390 . S
C507 H511 0.950 . S
H508 C504 0.950 . S
C509 C507 1.390 . S
C509 C510 1.387 . S
C509 H512 0.950 . S
C510 C509 1.387 . S
C510 C513 1.403 1_565 S
H511 C507 0.950 . S
H512 C509 0.950 . S
C513 C504 1.394 . S
C513 H506 0.931 . S
C513 C510 1.403 1_545 S
C514 C515 1.387 . S
C514 H518 0.950 . S
C514 C523 1.390 . S
C515 C514 1.387 . S
C515 C517 1.387 . S
H516 C523 0.950 . S
C517 C515 1.387 . S
C517 C519 1.390 . S
C517 H521 0.950 . S
H518 C514 0.950 . S
C519 C517 1.390 . S
C519 C520 1.387 . S
C519 H522 0.950 . S
C520 C519 1.387 . S
C520 C523 1.387 . S
H521 C517 0.950 . S
H522 C519 0.950 . S
C523 C514 1.390 . S
C523 H516 0.950 . S
C523 C520 1.387 . S
C524 C525 1.387 1_655 S
C524 H528 0.950 . S
C524 C533 1.390 . S
C525 C524 1.387 1_455 S
C525 C527 1.387 . S
H526 C533 0.950 . S
C527 C525 1.387 . S
C527 C529 1.390 . S
C527 H531 0.950 . S
H528 C524 0.950 . S
C529 C527 1.390 . S
C529 C530 1.387 . S
C529 H532 0.950 . S
C530 C529 1.387 . S
C530 C533 1.387 1_455 S
H531 C527 0.950 . S
H532 C529 0.950 . S
C533 C524 1.390 . S
C533 H526 0.950 . S
C533 C530 1.387 1_655 S
C355 C7 0.938 . S
C360 C331 0.997 . S
C365 C51 2.034 . S
C370 C258 1.977 . S
C375 C87 1.362 . S
C380 C297 1.402 . S
C385 C16 0.642 . S
C390 C336 0.563 . S
C400 C253 2.065 . S
C395 C42 2.172 . S
C410 C292 1.386 . S
C405 C96 1.362 . S
C415 C47 1.297 . S
C420 C180 1.321 . S
C425 C91 3.203 . S
C430 C214 3.137 . S
C435 C2 2.203 . S
C440 C136 2.117 . S
C450 C175 1.393 . S
C445 C56 1.351 . S
C460 C219 3.058 . S
C455 C82 3.121 . S
C465 C11 2.033 . S
C470 C141 1.990 . S
C480 C199 1.780 1_554 S
C475 C19 1.727 . S
C485 C50 1.336 . S
C490 C121 1.372 . S
C495 C99 1.462 . S
C500 C160 1.508 . S
C510 C277 1.490 . S
C505 C59 1.455 . S
C520 C316 1.095 . S
C515 C90 1.102 . S
C525 C10 1.329 . S
C530 C238 1.357 1_455 S
