# Generated by pormake.
# Topology pyr, (3,6)-cn, num edge types: 1
# Building blocks:
#     Node 0, Type 0, BuildingBlock: MIDCAF_clean_linker_0, # of connection points: 3
#     Node 1, Type 0, BuildingBlock: MIDCAF_clean_linker_0, # of connection points: 3
#     Node 2, Type 0, BuildingBlock: MIDCAF_clean_linker_0, # of connection points: 3
#     Node 3, Type 0, BuildingBlock: MIDCAF_clean_linker_0, # of connection points: 3
#     Node 4, Type 0, BuildingBlock: MIDCAF_clean_linker_0, # of connection points: 3
#     Node 5, Type 0, BuildingBlock: MIDCAF_clean_linker_0, # of connection points: 3
#     Node 6, Type 0, BuildingBlock: MIDCAF_clean_linker_0, # of connection points: 3
#     Node 7, Type 0, BuildingBlock: MIDCAF_clean_linker_0, # of connection points: 3
#     Node 8, Type 1, BuildingBlock: BETGAK_clean_sbu_0, # of connection points: 6
#     Node 9, Type 1, BuildingBlock: BETGAK_clean_sbu_0, # of connection points: 6
#     Node 10, Type 1, BuildingBlock: BETGAK_clean_sbu_0, # of connection points: 6
#     Node 11, Type 1, BuildingBlock: BETGAK_clean_sbu_0, # of connection points: 6
#     Edge 12, Type (0, 1), BuildingBlock: XUDNAN_clean_linker_2, # of connection points: 2
#     Edge 13, Type (0, 1), BuildingBlock: XUDNAN_clean_linker_2, # of connection points: 2
#     Edge 14, Type (0, 1), BuildingBlock: XUDNAN_clean_linker_2, # of connection points: 2
#     Edge 15, Type (0, 1), BuildingBlock: XUDNAN_clean_linker_2, # of connection points: 2
#     Edge 16, Type (0, 1), BuildingBlock: XUDNAN_clean_linker_2, # of connection points: 2
#     Edge 17, Type (0, 1), BuildingBlock: XUDNAN_clean_linker_2, # of connection points: 2
#     Edge 18, Type (0, 1), BuildingBlock: XUDNAN_clean_linker_2, # of connection points: 2
#     Edge 19, Type (0, 1), BuildingBlock: XUDNAN_clean_linker_2, # of connection points: 2
#     Edge 20, Type (0, 1), BuildingBlock: XUDNAN_clean_linker_2, # of connection points: 2
#     Edge 21, Type (0, 1), BuildingBlock: XUDNAN_clean_linker_2, # of connection points: 2
#     Edge 22, Type (0, 1), BuildingBlock: XUDNAN_clean_linker_2, # of connection points: 2
#     Edge 23, Type (0, 1), BuildingBlock: XUDNAN_clean_linker_2, # of connection points: 2
#     Edge 24, Type (0, 1), BuildingBlock: XUDNAN_clean_linker_2, # of connection points: 2
#     Edge 25, Type (0, 1), BuildingBlock: XUDNAN_clean_linker_2, # of connection points: 2
#     Edge 26, Type (0, 1), BuildingBlock: XUDNAN_clean_linker_2, # of connection points: 2
#     Edge 27, Type (0, 1), BuildingBlock: XUDNAN_clean_linker_2, # of connection points: 2
#     Edge 28, Type (0, 1), BuildingBlock: XUDNAN_clean_linker_2, # of connection points: 2
#     Edge 29, Type (0, 1), BuildingBlock: XUDNAN_clean_linker_2, # of connection points: 2
#     Edge 30, Type (0, 1), BuildingBlock: XUDNAN_clean_linker_2, # of connection points: 2
#     Edge 31, Type (0, 1), BuildingBlock: XUDNAN_clean_linker_2, # of connection points: 2
#     Edge 32, Type (0, 1), BuildingBlock: XUDNAN_clean_linker_2, # of connection points: 2
#     Edge 33, Type (0, 1), BuildingBlock: XUDNAN_clean_linker_2, # of connection points: 2
#     Edge 34, Type (0, 1), BuildingBlock: XUDNAN_clean_linker_2, # of connection points: 2
#     Edge 35, Type (0, 1), BuildingBlock: XUDNAN_clean_linker_2, # of connection points: 2
# Relax obj value: 0.097
# Max RMSD: 0.121
# Mean RMSD: 0.058
data_MOF--net-pyr--node1-BETGAK_clean_sbu_0--node2-MIDCAF_clean_linker_0--edge1-XUDNAN_clean_linker_2
_symmetry_space_group_name_H-M    P1
_symmetry_Int_Tables_number       1
_symmetry_cell_setting            triclinic
loop_
_symmetry_equiv_pos_as_xyz
'x, y, z'
_cell_length_a     45.786263
_cell_length_b     48.553134
_cell_length_c     44.20319
_cell_angle_alpha  90.91531
_cell_angle_beta   88.895361
_cell_angle_gamma 101.68775
loop_
_atom_site_label
_atom_site_type_symbol
_atom_site_fract_x
_atom_site_fract_y
_atom_site_fract_z
_atom_type_partial_charge
C0 C 0.30517 0.26369 0.34973 0.0
C1 C 0.32126 0.2455 0.36338 0.0
C2 C 0.35045 0.24549 0.35265 0.0
C3 C 0.36195 0.26102 0.32716 0.0
H4 H 0.41471 0.25113 0.24791 0.0
H5 H 0.43223 0.21577 0.21649 0.0
H6 H 0.38251 0.23693 0.14133 0.0
H7 H 0.36505 0.27248 0.1726 0.0
H8 H 0.31735 0.31449 0.18566 0.0
H9 H 0.28044 0.3413 0.17066 0.0
H10 H 0.29407 0.38926 0.2543 0.0
H11 H 0.32969 0.36143 0.26977 0.0
H12 H 0.3031 0.29216 0.31399 0.0
H13 H 0.28251 0.26424 0.35668 0.0
H14 H 0.36401 0.23253 0.36306 0.0
H15 H 0.38371 0.25919 0.31829 0.0
N16 N 0.37012 0.27551 0.2632 0.0
N17 N 0.35949 0.30181 0.22215 0.0
N18 N 0.34041 0.30903 0.27062 0.0
C19 C 0.37338 0.28194 0.23335 0.0
C20 C 0.34351 0.31586 0.24093 0.0
C21 C 0.35356 0.28886 0.28195 0.0
C22 C 0.38822 0.26441 0.21285 0.0
C23 C 0.40798 0.24866 0.2245 0.0
C24 C 0.41816 0.22851 0.2065 0.0
C25 C 0.40846 0.22347 0.17662 0.0
C26 C 0.39009 0.24028 0.16441 0.0
C27 C 0.38025 0.26073 0.18228 0.0
C28 C 0.32608 0.33567 0.22903 0.0
C29 C 0.31284 0.33115 0.20051 0.0
C30 C 0.29169 0.3466 0.19192 0.0
C31 C 0.28375 0.36715 0.21152 0.0
C32 C 0.29886 0.37302 0.23902 0.0
C33 C 0.31951 0.35727 0.24781 0.0
C34 C 0.34485 0.27752 0.3124 0.0
C35 C 0.31698 0.27974 0.32485 0.0
C36 C 0.22219 0.90097 0.618 0.0
C37 C 0.20807 0.90008 0.5901 0.0
C38 C 0.22278 0.8934 0.56367 0.0
C39 C 0.25201 0.88918 0.56493 0.0
H40 H 0.31955 0.85137 0.52281 0.0
H41 H 0.33848 0.81486 0.49479 0.0
H42 H 0.41433 0.82657 0.55388 0.0
H43 H 0.39612 0.86357 0.5809 0.0
H44 H 0.39969 0.90645 0.63899 0.0
H45 H 0.42517 0.93349 0.68155 0.0
H46 H 0.35662 0.98288 0.68653 0.0
H47 H 0.3314 0.95624 0.64434 0.0
H48 H 0.2626 0.89959 0.64084 0.0
H49 H 0.21127 0.90651 0.63853 0.0
H50 H 0.21223 0.89303 0.54189 0.0
H51 H 0.26344 0.88534 0.54409 0.0
N52 N 0.31254 0.87788 0.57334 0.0
N53 N 0.35893 0.8952 0.59569 0.0
N54 N 0.31609 0.90965 0.61414 0.0
C55 C 0.34237 0.87872 0.57446 0.0
C56 C 0.34589 0.91102 0.61533 0.0
C57 C 0.29929 0.89311 0.59337 0.0
C58 C 0.35606 0.86001 0.55445 0.0
C59 C 0.34059 0.8465 0.5294 0.0
C60 C 0.35141 0.82555 0.51334 0.0
C61 C 0.37774 0.81747 0.52223 0.0
C62 C 0.3942 0.8324 0.54599 0.0
C63 C 0.38358 0.85355 0.56178 0.0
C64 C 0.36338 0.92902 0.63858 0.0
C65 C 0.3904 0.92341 0.64889 0.0
C66 C 0.40491 0.93878 0.67325 0.0
C67 C 0.39287 0.96027 0.6873 0.0
C68 C 0.36666 0.9667 0.67595 0.0
C69 C 0.35203 0.9512 0.65195 0.0
C70 C 0.26703 0.89236 0.59254 0.0
C71 C 0.25158 0.89735 0.6192 0.0
C72 C 0.6267 0.28075 0.9368 0.0
C73 C 0.60622 0.26231 0.91884 0.0
C74 C 0.59751 0.27272 0.89147 0.0
C75 C 0.60966 0.30027 0.88188 0.0
H76 H 0.5967 0.37403 0.82596 0.0
H77 H 0.5815 0.3964 0.78088 0.0
H78 H 0.66971 0.44795 0.77322 0.0
H79 H 0.68478 0.42624 0.81803 0.0
H80 H 0.72824 0.43423 0.87674 0.0
H81 H 0.77707 0.45283 0.89926 0.0
H82 H 0.76183 0.38445 0.96245 0.0
H83 H 0.71366 0.36591 0.94034 0.0
H84 H 0.65537 0.3213 0.94135 0.0
H85 H 0.63416 0.27362 0.95786 0.0
H86 H 0.58149 0.25936 0.87713 0.0
H87 H 0.60284 0.30711 0.86041 0.0
N88 N 0.6368 0.35909 0.86357 0.0
N89 N 0.67798 0.39701 0.86712 0.0
N90 N 0.67227 0.35999 0.9015 0.0
C91 C 0.65228 0.38441 0.85305 0.0
C92 C 0.68811 0.38504 0.89144 0.0
C93 C 0.64673 0.34671 0.88794 0.0
C94 C 0.64211 0.39808 0.82585 0.0
C95 C 0.61283 0.39023 0.81476 0.0
C96 C 0.604 0.40322 0.78901 0.0
C97 C 0.62435 0.42401 0.77328 0.0
C98 C 0.65343 0.43197 0.78458 0.0
C99 C 0.66207 0.41944 0.81046 0.0
C100 C 0.7169 0.39823 0.90631 0.0
C101 C 0.73517 0.4233 0.89563 0.0
C102 C 0.76312 0.43411 0.90866 0.0
C103 C 0.77356 0.42001 0.93249 0.0
C104 C 0.75475 0.39568 0.94386 0.0
C105 C 0.72696 0.38501 0.93107 0.0
C106 C 0.63117 0.31828 0.89922 0.0
C107 C 0.63907 0.30817 0.9271 0.0
C108 C 0.77733 0.66246 0.43509 0.0
C109 C 0.75801 0.63832 0.42389 0.0
C110 C 0.76393 0.62835 0.39479 0.0
C111 C 0.78918 0.64166 0.37786 0.0
H112 H 0.8411 0.63631 0.29884 0.0
H113 H 0.85832 0.60911 0.25838 0.0
H114 H 0.94758 0.6584 0.26676 0.0
H115 H 0.92978 0.68673 0.30707 0.0
H116 H 0.92919 0.75264 0.34521 0.0
H117 H 0.95298 0.79962 0.36307 0.0
H118 H 0.88395 0.7965 0.43159 0.0
H119 H 0.86077 0.74962 0.41439 0.0
H120 H 0.81651 0.69425 0.42793 0.0
H121 H 0.77338 0.67085 0.45732 0.0
H122 H 0.74963 0.60972 0.38555 0.0
H123 H 0.79339 0.63306 0.35582 0.0
N124 N 0.84708 0.6667 0.34806 0.0
N125 N 0.88792 0.70482 0.34302 0.0
N126 N 0.85179 0.70517 0.38151 0.0
C127 C 0.87281 0.67898 0.33323 0.0
C128 C 0.87734 0.71821 0.36717 0.0
C129 C 0.83644 0.67953 0.37231 0.0
C130 C 0.88399 0.66367 0.30683 0.0
C131 C 0.86444 0.64158 0.29219 0.0
C132 C 0.87448 0.62571 0.26886 0.0
C133 C 0.90469 0.63082 0.25938 0.0
C134 C 0.92419 0.65364 0.2732 0.0
C135 C 0.91397 0.66988 0.29651 0.0
C136 C 0.89286 0.74696 0.37812 0.0
C137 C 0.91913 0.76187 0.36416 0.0
C138 C 0.93272 0.78906 0.37439 0.0
C139 C 0.92052 0.80231 0.39891 0.0
C140 C 0.89447 0.78718 0.41302 0.0
C141 C 0.88094 0.76011 0.40285 0.0
C142 C 0.80884 0.66556 0.3894 0.0
C143 C 0.80215 0.67595 0.41811 0.0
C144 C 0.62045 0.83607 0.88572 0.0
C145 C 0.63085 0.85379 0.91045 0.0
C146 C 0.65633 0.84941 0.92556 0.0
C147 C 0.67179 0.82891 0.91519 0.0
H148 H 0.71511 0.75788 0.9392 0.0
H149 H 0.7441 0.7304 0.96778 0.0
H150 H 0.78273 0.70556 0.88435 0.0
H151 H 0.75445 0.73315 0.85591 0.0
H152 H 0.76247 0.78601 0.80554 0.0
H153 H 0.78163 0.80636 0.75791 0.0
H154 H 0.69354 0.81881 0.73573 0.0
H155 H 0.67497 0.8002 0.78492 0.0
H156 H 0.62866 0.80389 0.85489 0.0
H157 H 0.60037 0.83795 0.87411 0.0
H158 H 0.6653 0.86267 0.94447 0.0
H159 H 0.6921 0.82688 0.92636 0.0
N160 N 0.69647 0.7795 0.89121 0.0
N161 N 0.72197 0.76884 0.84739 0.0
N162 N 0.68751 0.79824 0.84439 0.0
C163 C 0.71621 0.76555 0.87754 0.0
C164 C 0.70771 0.78507 0.83069 0.0
C165 C 0.68184 0.7956 0.87458 0.0
C166 C 0.73257 0.74798 0.89523 0.0
C167 C 0.72973 0.74649 0.92695 0.0
C168 C 0.74623 0.73065 0.94334 0.0
C169 C 0.76592 0.71601 0.92834 0.0
C170 C 0.76822 0.71704 0.89664 0.0
C171 C 0.75182 0.73281 0.88031 0.0
C172 C 0.71732 0.79186 0.79913 0.0
C173 C 0.74704 0.79258 0.79026 0.0
C174 C 0.758 0.80416 0.76261 0.0
C175 C 0.73931 0.81469 0.74274 0.0
C176 C 0.70889 0.81175 0.75069 0.0
C177 C 0.69812 0.80084 0.77878 0.0
C178 C 0.66247 0.81286 0.88917 0.0
C179 C 0.63638 0.81622 0.8749 0.0
C180 C 0.76363 0.23258 0.29081 0.0
C181 C 0.73833 0.24372 0.28495 0.0
C182 C 0.72445 0.25582 0.30885 0.0
C183 C 0.73494 0.25573 0.3383 0.0
H184 H 0.74274 0.29895 0.42375 0.0
H185 H 0.71828 0.32197 0.46309 0.0
H186 H 0.73143 0.25971 0.52736 0.0
H187 H 0.7564 0.23652 0.48774 0.0
H188 H 0.83109 0.22403 0.4604 0.0
H189 H 0.86774 0.19544 0.47109 0.0
H190 H 0.84319 0.1462 0.39006 0.0
H191 H 0.80677 0.17523 0.37871 0.0
H192 H 0.79296 0.22268 0.32417 0.0
H193 H 0.77454 0.2228 0.27286 0.0
H194 H 0.70495 0.26462 0.30489 0.0
H195 H 0.72319 0.26454 0.35633 0.0
N196 N 0.75707 0.25431 0.39889 0.0
N197 N 0.78342 0.23396 0.43432 0.0
N198 N 0.78738 0.22327 0.38263 0.0
C199 C 0.76443 0.25113 0.42805 0.0
C200 C 0.79501 0.22002 0.4117 0.0
C201 C 0.76845 0.24048 0.37604 0.0
C202 C 0.75138 0.26589 0.45263 0.0
C203 C 0.74072 0.29026 0.44629 0.0
C204 C 0.72697 0.30361 0.46891 0.0
C205 C 0.72328 0.29273 0.4983 0.0
C206 C 0.7342 0.26853 0.50488 0.0
C207 C 0.74848 0.25537 0.48226 0.0
C208 C 0.81618 0.20192 0.41866 0.0
C209 C 0.83335 0.20705 0.4449 0.0
C210 C 0.85434 0.19082 0.451 0.0
C211 C 0.85809 0.16885 0.43129 0.0
C212 C 0.84049 0.16311 0.40548 0.0
C213 C 0.81986 0.17975 0.39901 0.0
C214 C 0.75932 0.24324 0.34447 0.0
C215 C 0.77397 0.23224 0.32029 0.0
C216 C 0.2786 0.63459 0.20255 0.0
C217 C 0.25912 0.64785 0.18635 0.0
C218 C 0.26746 0.67718 0.18246 0.0
C219 C 0.29402 0.69266 0.19479 0.0
H220 H 0.35219 0.76604 0.187 0.0
H221 H 0.37248 0.8089 0.16041 0.0
H222 H 0.45532 0.81667 0.2076 0.0
H223 H 0.43481 0.77278 0.23484 0.0
H224 H 0.42852 0.7216 0.29782 0.0
H225 H 0.45045 0.69701 0.33737 0.0
H226 H 0.38532 0.62148 0.31909 0.0
H227 H 0.36364 0.64535 0.28041 0.0
H228 H 0.31892 0.63896 0.22763 0.0
H229 H 0.2738 0.61202 0.20541 0.0
H230 H 0.25317 0.68839 0.17049 0.0
H231 H 0.29944 0.7152 0.19153 0.0
N232 N 0.3533 0.72181 0.21515 0.0
N233 N 0.39271 0.72563 0.24953 0.0
N234 N 0.35468 0.68484 0.24787 0.0
C235 C 0.3791 0.737 0.22671 0.0
C236 C 0.38036 0.69938 0.26041 0.0
C237 C 0.34093 0.6958 0.22536 0.0
C238 C 0.39186 0.76527 0.21302 0.0
C239 C 0.37476 0.77661 0.19209 0.0
C240 C 0.38644 0.80143 0.17662 0.0
C241 C 0.41574 0.81621 0.18137 0.0
C242 C 0.43265 0.80586 0.20332 0.0
C243 C 0.42089 0.78062 0.2189 0.0
C244 C 0.39429 0.68564 0.28537 0.0
C245 C 0.41881 0.69979 0.30235 0.0
C246 C 0.43125 0.68576 0.32525 0.0
C247 C 0.41973 0.65715 0.33149 0.0
C248 C 0.39497 0.64339 0.31493 0.0
C249 C 0.38249 0.65729 0.29251 0.0
C250 C 0.31291 0.67938 0.2117 0.0
C251 C 0.30481 0.65009 0.21525 0.0
C252 C 0.14437 0.27683 0.66994 0.0
C253 C 0.11805 0.26136 0.68328 0.0
C254 C 0.10535 0.27403 0.70788 0.0
C255 C 0.11874 0.3009 0.71904 0.0
H256 H 0.10679 0.37478 0.77976 0.0
H257 H 0.08996 0.40131 0.82242 0.0
H258 H 0.18063 0.44602 0.83456 0.0
H259 H 0.19689 0.42076 0.79198 0.0
H260 H 0.23334 0.4367 0.72767 0.0
H261 H 0.27973 0.46097 0.70448 0.0
H262 H 0.28054 0.38946 0.64537 0.0
H263 H 0.23336 0.36529 0.66816 0.0
H264 H 0.17813 0.31446 0.67017 0.0
H265 H 0.15522 0.26796 0.65129 0.0
H266 H 0.08484 0.26323 0.71859 0.0
H267 H 0.10826 0.30964 0.73806 0.0
N268 N 0.14943 0.35667 0.74297 0.0
N269 N 0.18978 0.39524 0.73996 0.0
N270 N 0.18623 0.35836 0.70457 0.0
C271 C 0.16412 0.3821 0.75414 0.0
C272 C 0.20101 0.38376 0.71515 0.0
C273 C 0.16048 0.34454 0.71813 0.0
C274 C 0.15321 0.39586 0.7818 0.0
C275 C 0.12309 0.39023 0.79167 0.0
C276 C 0.11343 0.40542 0.81629 0.0
C277 C 0.13368 0.42651 0.83185 0.0
C278 C 0.16395 0.43083 0.82279 0.0
C279 C 0.17343 0.41608 0.79821 0.0
C280 C 0.2294 0.39878 0.70012 0.0
C281 C 0.24323 0.42601 0.70971 0.0
C282 C 0.27014 0.43998 0.69641 0.0
C283 C 0.28442 0.4272 0.67314 0.0
C284 C 0.2703 0.40018 0.66303 0.0
C285 C 0.24321 0.38619 0.67631 0.0
C286 C 0.14531 0.31614 0.70595 0.0
C287 C 0.15772 0.30366 0.68105 0.0
La288 La 0.041 0.04552 0.51585 0.0
La289 La 0.9973 1.01953 0.56312 0.0
C290 C 0.07099 0.06629 0.47045 0.0
C291 C 0.10114 0.08367 0.46653 0.0
C292 C 0.12567 0.07711 0.48148 0.0
C293 C 0.15427 0.09321 0.47677 0.0
C294 C 0.15884 0.11637 0.45738 0.0
C295 C 0.13417 0.12337 0.44313 0.0
C296 C 0.10557 0.10708 0.4476 0.0
C297 C 0.06373 1.01813 0.55747 0.0
C298 C 0.04158 0.07893 0.57662 0.0
C299 C 0.96885 0.99773 0.60897 0.0
C300 C 0.94109 0.97689 0.61381 0.0
C301 C 0.91662 0.97553 0.59473 0.0
C302 C 0.88991 0.9565 0.60055 0.0
C303 C 0.8874 0.93829 0.62527 0.0
C304 C 0.91227 0.9391 0.6437 0.0
C305 C 0.93886 0.95831 0.63804 0.0
C306 C 0.97582 0.04774 0.52133 0.0
C307 C 0.99623 0.98648 0.5023 0.0
O308 O 0.06962 0.04056 0.47959 0.0
O309 O 0.05132 0.07832 0.48437 0.0
O310 O 0.07752 0.04095 0.54461 0.0
O311 O 0.03839 1.01084 0.54592 0.0
O312 O 0.04812 0.08126 0.54737 0.0
O313 O 0.02554 0.05514 0.58769 0.0
O314 O 0.96598 1.02179 0.59774 0.0
O315 O 0.99101 0.98827 0.59635 0.0
O316 O 0.96048 1.02542 0.53403 0.0
O317 O 1.00072 0.05409 0.53355 0.0
O318 O 0.99 0.98399 0.53157 0.0
O319 O 1.01185 1.01045 0.49121 0.0
H320 H 0.12284 0.05936 0.49656 0.0
H321 H 0.17286 0.08751 0.48822 0.0
H322 H 0.13711 0.14095 0.42781 0.0
H323 H 0.08695 0.11256 0.43598 0.0
H324 H 0.91799 0.98944 0.57561 0.0
H325 H 0.87115 0.95616 0.58589 0.0
H326 H 0.91084 0.92554 0.66312 0.0
H327 H 0.95755 0.95899 0.6529 0.0
La328 La 0.53756 0.04266 0.06061 0.0
La329 La 0.48686 1.02916 1.02272 0.0
C330 C 0.58832 0.06151 0.08209 0.0
C331 C 0.60349 0.08824 0.09608 0.0
C332 C 0.61088 0.08853 0.12672 0.0
C333 C 0.62476 0.11344 0.14087 0.0
C334 C 0.63188 0.13858 0.12458 0.0
C335 C 0.62489 0.13838 0.09378 0.0
C336 C 0.61059 0.1134 0.07964 0.0
C337 C 0.49786 0.99822 0.08055 0.0
C338 C 0.48402 0.06806 0.07878 0.0
C339 C 0.43797 1.01605 0.99595 0.0
C340 C 0.43196 1.00998 0.96373 0.0
C341 C 0.41047 1.02181 0.94939 0.0
C342 C 0.40778 1.01994 0.91795 0.0
C343 C 0.42654 1.00615 0.90041 0.0
C344 C 0.44735 0.9935 0.91495 0.0
C345 C 0.45016 0.99553 0.94631 0.0
C346 C 0.52838 0.07119 1.00132 0.0
C347 C 0.53936 1.00146 1.00368 0.0
O348 O 0.56603 0.04707 0.0977 0.0
O349 O 0.58251 0.06165 0.05322 0.0
O350 O 0.51376 1.01713 0.09768 0.0
O351 O 0.50542 1.00407 0.05343 0.0
O352 O 0.51333 0.07407 0.07714 0.0
O353 O 0.46926 0.0463 0.06354 0.0
O354 O 0.45112 0.04199 1.00189 0.0
O355 O 0.44996 0.99796 1.01051 0.0
O356 O 0.51325 0.05078 0.98556 0.0
O357 O 0.51988 0.06789 1.02872 0.0
O358 O 0.51117 1.00168 0.99897 0.0
O359 O 0.55419 1.01623 1.02595 0.0
H360 H 0.60587 0.06941 0.1398 0.0
H361 H 0.63043 0.11294 0.16451 0.0
H362 H 0.63025 0.15752 0.08078 0.0
H363 H 0.60512 0.11385 0.05594 0.0
H364 H 0.39647 1.0333 0.96242 0.0
H365 H 0.39131 1.02959 0.90732 0.0
H366 H 0.46228 0.98297 0.90198 0.0
H367 H 0.46726 0.9866 0.95676 0.0
La368 La 0.52271 0.50906 0.52983 0.0
La369 La 0.52124 0.55851 0.56644 0.0
C370 C 0.53783 0.46699 0.50495 0.0
C371 C 0.55575 0.44734 0.51579 0.0
C372 C 0.54631 0.41843 0.51043 0.0
C373 C 0.56245 0.39945 0.52177 0.0
C374 C 0.58823 0.40912 0.53883 0.0
C375 C 0.59729 0.43811 0.54461 0.0
C376 C 0.5813 0.45704 0.53307 0.0
C377 C 0.47163 0.50722 0.56018 0.0
C378 C 0.54886 0.51307 0.597 0.0
C379 C 0.50248 0.59825 0.59189 0.0
C380 C 0.48969 0.62076 0.57886 0.0
C381 C 0.46147 0.62436 0.58886 0.0
C382 C 0.44685 0.64252 0.57377 0.0
C383 C 0.46033 0.65756 0.54852 0.0
C384 C 0.48906 0.65473 0.5392 0.0
C385 C 0.50352 0.63626 0.55403 0.0
C386 C 0.57361 0.56017 0.53991 0.0
C387 C 0.49898 0.55588 0.49676 0.0
O388 O 0.51239 0.46589 0.51915 0.0
O389 O 0.55195 0.4929 0.5006 0.0
O390 O 0.47352 0.49805 0.53267 0.0
O391 O 0.49767 0.51635 0.56944 0.0
O392 O 0.5503 0.50349 0.5689 0.0
O393 O 0.53421 0.53344 0.60302 0.0
O394 O 0.53079 0.59888 0.58622 0.0
O395 O 0.48617 0.57301 0.58838 0.0
O396 O 0.56961 0.56951 0.567 0.0
O397 O 0.54846 0.55133 0.52781 0.0
O398 O 0.50027 0.56865 0.5237 0.0
O399 O 0.50873 0.53224 0.49316 0.0
H400 H 0.52652 0.41055 0.49735 0.0
H401 H 0.5552 0.3773 0.51642 0.0
H402 H 0.61692 0.44619 0.55784 0.0
H403 H 0.58899 0.47928 0.53761 0.0
H404 H 0.45033 0.61243 0.60778 0.0
H405 H 0.42495 0.64477 0.58183 0.0
H406 H 0.50001 0.6662 0.51994 0.0
H407 H 0.52511 0.63355 0.54549 0.0
La408 La 0.0258 0.49893 0.06156 0.0
La409 La 1.02044 0.55329 0.03941 0.0
C410 C 0.04522 0.45518 0.07279 0.0
C411 C 0.06846 0.44814 0.09195 0.0
C412 C 0.07753 0.46367 0.11836 0.0
C413 C 0.10059 0.45738 0.13558 0.0
C414 C 0.11498 0.43549 0.12659 0.0
C415 C 0.10576 0.42004 0.10006 0.0
C416 C 0.08271 0.42635 0.0829 0.0
C417 C 0.99098 0.52432 0.09656 0.0
C418 C 0.07551 0.55293 0.08009 0.0
C419 C 1.00212 0.5973 1.02666 0.0
C420 C 0.97321 0.60494 1.02001 0.0
C421 C 0.9645 0.60677 0.98993 0.0
C422 C 0.938 0.6154 0.98351 0.0
C423 C 0.91971 0.62262 1.007 0.0
C424 C 0.92819 0.62042 1.03712 0.0
C425 C 0.95469 0.61176 0.04356 0.0
C426 C 0.05501 0.52752 1.00446 0.0
C427 C 0.97049 0.49904 1.02309 0.0
O428 O 0.02211 0.46196 0.08663 0.0
O429 O 0.05499 0.472 0.05039 0.0
O430 O 0.98659 0.49748 0.09105 0.0
O431 O 1.01517 0.53585 0.08368 0.0
O432 O 0.06653 0.52527 0.07961 0.0
O433 O 0.06016 0.56933 0.06648 0.0
O434 O 1.01278 0.58173 1.00657 0.0
O435 O 1.00572 0.58946 0.05426 0.0
O436 O 0.06012 0.55422 1.01079 0.0
O437 O 0.03059 0.51629 1.01712 0.0
O438 O 0.97614 0.52659 1.0284 0.0
O439 O 0.99008 0.48398 1.03057 0.0
H440 H 0.0669 0.48071 0.12557 0.0
H441 H 0.10739 0.46987 0.1557 0.0
H442 H 0.1161 0.40283 0.09274 0.0
H443 H 0.07607 0.41426 0.06247 0.0
H444 H 0.97834 0.60183 0.97128 0.0
H445 H 0.93191 0.61653 0.96007 0.0
H446 H 0.9148 0.62617 0.05572 0.0
H447 H 0.96087 0.61086 0.06701 0.0
H448 H 0.27644 0.25024 0.40494 0.0
H449 H 0.33022 0.19167 0.37144 0.0
H450 H 0.29891 0.15399 0.40052 0.0
H451 H 0.25286 0.21613 0.47978 0.0
H452 H 0.21563 0.22248 0.47628 0.0
H453 H 0.24692 0.24673 0.46013 0.0
H454 H 0.22143 0.24075 0.40793 0.0
H455 H 0.1903 0.21637 0.42376 0.0
H456 H 0.21051 0.20601 0.39157 0.0
H457 H 0.25723 0.12076 0.42529 0.0
H458 H 0.20785 0.09477 0.44257 0.0
H459 H 0.17832 0.17358 0.45584 0.0
C460 C 0.2821 0.22967 0.40403 0.0
C461 C 0.30612 0.22429 0.38574 0.0
C462 C 0.31262 0.19691 0.38571 0.0
C463 C 0.29475 0.17513 0.40209 0.0
C464 C 0.2703 0.18087 0.41836 0.0
C465 C 0.26399 0.20751 0.41954 0.0
C466 C 0.23393 0.20728 0.4346 0.0
C467 C 0.23756 0.22416 0.46448 0.0
C468 C 0.21281 0.21824 0.41318 0.0
C469 C 0.22368 0.17613 0.44027 0.0
C470 C 0.24536 0.16138 0.43158 0.0
C471 C 0.2403 0.13213 0.43273 0.0
C472 C 0.21221 0.11755 0.44258 0.0
C473 C 0.18939 0.13222 0.45061 0.0
C474 C 0.19544 0.16189 0.4499 0.0
H475 H 0.4099 0.93512 0.73685 0.0
H476 H 0.40258 1.01638 0.70193 0.0
H477 H 0.41455 1.03794 0.75237 0.0
H478 H 0.37443 0.94105 0.80456 0.0
H479 H 0.39751 0.92374 0.82715 0.0
H480 H 0.39334 0.9154 0.7875 0.0
H481 H 0.45067 0.92805 0.77933 0.0
H482 H 0.45512 0.936 0.81916 0.0
H483 H 0.4711 0.96198 0.79162 0.0
H484 H 0.42045 0.04917 0.8076 0.0
H485 H 0.42319 0.04998 0.8634 0.0
H486 H 0.42663 0.96131 0.8621 0.0
C487 C 0.41197 0.95764 0.73953 0.0
C488 C 0.40551 0.97415 0.71552 0.0
C489 C 0.40745 1.0034 0.72012 0.0
C490 C 0.41431 1.01581 0.74861 0.0
C491 C 0.41939 0.99871 0.77214 0.0
C492 C 0.41874 0.97033 0.76782 0.0
C493 C 0.42254 0.95617 0.79733 0.0
C494 C 0.39533 0.93272 0.80454 0.0
C495 C 0.45159 0.94489 0.79682 0.0
C496 C 0.42438 0.98081 0.81906 0.0
C497 C 0.42279 1.00521 0.80407 0.0
C498 C 0.42217 1.0303 0.81956 0.0
C499 C 0.42342 1.03049 0.85122 0.0
C500 C 0.42515 1.00572 0.86698 0.0
C501 C 0.42579 0.98066 0.85059 0.0
H502 H 0.57533 0.44799 0.76014 0.0
H503 H 0.65579 0.42784 0.72011 0.0
H504 H 0.64528 0.44866 0.672 0.0
H505 H 0.52981 0.43513 0.69246 0.0
H506 H 0.51159 0.4643 0.69933 0.0
H507 H 0.52468 0.44707 0.73066 0.0
H508 H 0.55573 0.4948 0.74896 0.0
H509 H 0.54283 0.51213 0.71761 0.0
H510 H 0.58227 0.51544 0.72337 0.0
H511 H 0.62614 0.47074 0.62773 0.0
H512 H 0.60045 0.49418 0.59051 0.0
H513 H 0.53286 0.5031 0.65801 0.0
C514 C 0.59058 0.44782 0.74114 0.0
C515 C 0.61651 0.43617 0.74408 0.0
C516 C 0.63599 0.43672 0.71867 0.0
C517 C 0.63014 0.44847 0.69113 0.0
C518 C 0.60475 0.46003 0.68906 0.0
C519 C 0.58529 0.45999 0.71335 0.0
C520 C 0.56002 0.47457 0.7049 0.0
C521 C 0.52973 0.45404 0.70696 0.0
C522 C 0.56023 0.50079 0.72491 0.0
C523 C 0.56832 0.48265 0.67213 0.0
C524 C 0.59414 0.47378 0.66355 0.0
C525 C 0.60599 0.47788 0.6343 0.0
C526 C 0.59112 0.49118 0.61319 0.0
C527 C 0.56464 0.50066 0.62114 0.0
C528 C 0.55327 0.49652 0.65126 0.0
H529 H 0.94903 0.64253 0.21331 0.0
H530 H 0.8854 0.57378 0.25383 0.0
H531 H 0.89972 0.54103 0.21635 0.0
H532 H 0.93925 0.61809 0.13514 0.0
H533 H 0.97817 0.6281 0.12477 0.0
H534 H 0.9628 0.64711 0.15437 0.0
H535 H 1.00265 0.6372 0.1912 0.0
H536 H 1.01806 0.61819 0.16163 0.0
H537 H 1.00632 0.60142 0.19716 0.0
H538 H 0.91933 0.51509 0.17433 0.0
H539 H 0.94571 0.49687 0.13193 0.0
H540 H 0.9996 0.58028 0.11796 0.0
C541 C 0.93819 0.62058 0.21442 0.0
C542 C 0.91537 0.6112 0.23655 0.0
C543 C 0.9021 0.58209 0.23687 0.0
C544 C 0.91028 0.56307 0.21568 0.0
C545 C 0.93221 0.57302 0.19403 0.0
C546 C 0.94628 0.60099 0.19326 0.0
C547 C 0.96963 0.60561 0.1676 0.0
C548 C 0.962 0.62594 0.14408 0.0
C549 C 1.00103 0.61624 0.18015 0.0
C550 C 0.96639 0.57589 0.15431 0.0
C551 C 0.94442 0.5576 0.16995 0.0
C552 C 0.9367 0.52919 0.16204 0.0
C553 C 0.95188 0.51901 0.13777 0.0
C554 C 0.97492 0.53693 0.12147 0.0
C555 C 0.98216 0.56593 0.1299 0.0
H556 H 0.46258 0.20776 0.16774 0.0
H557 H 0.36843 0.18326 0.14759 0.0
H558 H 0.37748 0.14006 0.1222 0.0
H559 H 0.48911 0.1824 0.09644 0.0
H560 H 0.5199 0.17073 0.11338 0.0
H561 H 0.50603 0.19978 0.12999 0.0
H562 H 0.49807 0.17381 0.1812 0.0
H563 H 0.51163 0.14457 0.16461 0.0
H564 H 0.47533 0.13888 0.18273 0.0
H565 H 0.39601 0.09899 0.10091 0.0
H566 H 0.42376 0.06443 0.07996 0.0
H567 H 0.50655 0.11586 0.1121 0.0
C568 C 0.44396 0.1933 0.15784 0.0
C569 C 0.41481 0.19882 0.15949 0.0
C570 C 0.39097 0.17956 0.1462 0.0
C571 C 0.39585 0.15489 0.13197 0.0
C572 C 0.42474 0.1499 0.13099 0.0
C573 C 0.44851 0.16869 0.14314 0.0
C574 C 0.47746 0.15849 0.13817 0.0
C575 C 0.49941 0.17908 0.11831 0.0
C576 C 0.49144 0.15365 0.16849 0.0
C577 C 0.46614 0.13094 0.12158 0.0
C578 C 0.43562 0.12635 0.11795 0.0
C579 C 0.41994 0.10237 0.10347 0.0
C580 C 0.43593 0.0828 0.09176 0.0
C581 C 0.46736 0.0874 0.09436 0.0
C582 C 0.48254 0.11168 0.10981 0.0
H583 H 0.20526 0.94935 0.56533 0.0
H584 H 0.15147 0.87826 0.61155 0.0
H585 H 0.10768 0.9014 0.61028 0.0
H586 H 0.17518 1.00189 0.6053 0.0
H587 H 0.17731 1.02448 0.57303 0.0
H588 H 0.20335 1.00147 0.57634 0.0
H589 H 0.18791 0.97917 0.52381 0.0
H590 H 0.16216 1.00239 0.52018 0.0
H591 H 0.1491 0.96489 0.51675 0.0
H592 H 0.06952 0.93242 0.60113 0.0
H593 H 0.04142 0.96892 0.58719 0.0
H594 H 0.12316 1.02076 0.55234 0.0
C595 C 0.18409 0.93854 0.57477 0.0
C596 C 0.18118 0.91194 0.5879 0.0
C597 C 0.15364 0.89855 0.60095 0.0
C598 C 0.12887 0.91156 0.60041 0.0
C599 C 0.13253 0.93808 0.58738 0.0
C600 C 0.1596 0.95143 0.57503 0.0
C601 C 0.15839 0.98015 0.5633 0.0
C602 C 0.17982 1.00336 0.58054 0.0
C603 C 0.16475 0.98173 0.52898 0.0
C604 C 0.12629 0.98093 0.57065 0.0
C605 C 0.11151 0.95646 0.58424 0.0
C606 C 0.08101 0.95185 0.59097 0.0
C607 C 0.06527 0.97266 0.58313 0.0
C608 C 0.08026 0.99777 0.56928 0.0
C609 C 0.1112 1.00205 0.56357 0.0
H610 H 0.80508 0.47329 0.95045 0.0
H611 H 0.81287 0.38597 0.94039 0.0
H612 H 0.86335 0.39759 0.96114 0.0
H613 H 0.88356 0.50401 0.93151 0.0
H614 H 0.88649 0.53205 0.95921 0.0
H615 H 0.85101 0.51762 0.9424 0.0
H616 H 0.82743 0.50705 0.99569 0.0
H617 H 0.86286 0.52138 1.0126 0.0
H618 H 0.84376 0.48608 1.02126 0.0
H619 H 0.91169 0.41712 0.9837 0.0
H620 H 0.95666 0.44372 1.00739 0.0
H621 H 0.92054 0.51986 1.00467 0.0
C622 C 0.81761 0.45675 0.95239 0.0
C623 C 0.80476 0.42856 0.94393 0.0
C624 C 0.82188 0.40754 0.94704 0.0
C625 C 0.85071 0.41397 0.95869 0.0
C626 C 0.8625 0.44164 0.96727 0.0
C627 C 0.84671 0.46282 0.96432 0.0
C628 C 0.86495 0.49066 0.97623 0.0
C629 C 0.87191 0.51237 0.95082 0.0
C630 C 0.84878 0.50195 1.00304 0.0
C631 C 0.89322 0.48158 0.98642 0.0
C632 C 0.89106 0.45317 0.98077 0.0
C633 C 0.91371 0.4394 0.98818 0.0
C634 C 0.9393 0.45487 1.00178 0.0
C635 C 0.94249 0.48408 1.00813 0.0
C636 C 0.91898 0.49763 1.00017 0.0
H637 H 0.6975 0.61969 0.41134 0.0
H638 H 0.76265 0.62216 0.48182 0.0
H639 H 0.72299 0.59901 0.51676 0.0
H640 H 0.63966 0.63566 0.45986 0.0
H641 H 0.60941 0.61274 0.44091 0.0
H642 H 0.64306 0.62745 0.42019 0.0
H643 H 0.64895 0.57741 0.40388 0.0
H644 H 0.61531 0.56255 0.42464 0.0
H645 H 0.64961 0.55138 0.43235 0.0
H646 H 0.67689 0.5784 0.54527 0.0
H647 H 0.62626 0.56266 0.56655 0.0
H648 H 0.58861 0.57259 0.47908 0.0
C649 C 0.70338 0.61493 0.434 0.0
C650 C 0.73336 0.6228 0.44379 0.0
C651 C 0.73998 0.61658 0.4738 0.0
C652 C 0.71757 0.60326 0.49381 0.0
C653 C 0.68832 0.59616 0.48372 0.0
C654 C 0.68101 0.60176 0.45458 0.0
C655 C 0.64732 0.5932 0.45043 0.0
C656 C 0.63408 0.61879 0.44237 0.0
C657 C 0.63986 0.56974 0.42639 0.0
C658 C 0.63696 0.58235 0.48187 0.0
C659 C 0.66122 0.58412 0.50049 0.0
C660 C 0.65776 0.57669 0.53084 0.0
C661 C 0.62886 0.56776 0.54274 0.0
C662 C 0.60346 0.56612 0.52453 0.0
C663 C 0.6076 0.57308 0.49344 0.0
H664 H 0.26666 0.38342 0.15589 0.0
H665 H 0.24207 0.38062 0.25142 0.0
H666 H 0.19841 0.40075 0.24034 0.0
H667 H 0.24152 0.44798 0.13834 0.0
H668 H 0.22729 0.43505 0.10195 0.0
H669 H 0.25835 0.4228 0.11757 0.0
H670 H 0.22945 0.37127 0.1122 0.0
H671 H 0.19831 0.38336 0.09663 0.0
H672 H 0.19291 0.36122 0.12945 0.0
H673 H 0.15582 0.41867 0.21897 0.0
H674 H 0.11667 0.4323 0.1883 0.0
H675 H 0.16777 0.42228 0.10654 0.0
C676 C 0.25221 0.38711 0.17454 0.0
C677 C 0.25824 0.38072 0.20462 0.0
C678 C 0.23861 0.386 0.22827 0.0
C679 C 0.21352 0.39726 0.22221 0.0
C680 C 0.20815 0.40305 0.19235 0.0
C681 C 0.22688 0.39816 0.16887 0.0
C682 C 0.21511 0.40491 0.13864 0.0
C683 C 0.23686 0.42913 0.12322 0.0
C684 C 0.20855 0.37862 0.11803 0.0
C685 C 0.18663 0.41391 0.14882 0.0
C686 C 0.1832 0.41294 0.17991 0.0
C687 C 0.15836 0.41974 0.1946 0.0
C688 C 0.13631 0.42758 0.177 0.0
C689 C 0.13916 0.42842 0.14504 0.0
C690 C 0.16482 0.42164 0.1309 0.0
H691 H 0.58857 0.23865 0.97555 0.0
H692 H 0.60078 0.21645 0.88126 0.0
H693 H 0.58494 0.16635 0.89349 0.0
H694 H 0.61403 0.17862 1.00793 0.0
H695 H 0.58665 0.17355 1.03823 0.0
H696 H 0.59978 0.20814 1.02292 0.0
H697 H 0.54548 0.21201 1.01176 0.0
H698 H 0.53224 0.17754 1.02723 0.0
H699 H 0.52248 0.18499 0.98934 0.0
H700 H 0.56811 0.11886 0.91484 0.0
H701 H 0.54752 0.07618 0.94344 0.0
H702 H 0.54419 0.12653 1.02499 0.0
C703 C 0.58803 0.22322 0.95752 0.0
C704 C 0.59584 0.23184 0.92722 0.0
C705 C 0.59452 0.21076 0.90443 0.0
C706 C 0.58578 0.1821 0.91123 0.0
C707 C 0.57822 0.17439 0.94106 0.0
C708 C 0.579 0.19421 0.96392 0.0
C709 C 0.56863 0.17976 0.99389 0.0
C710 C 0.59377 0.18536 1.01712 0.0
C711 C 0.54054 0.18914 1.00628 0.0
C712 C 0.56168 0.14883 0.98411 0.0
C713 C 0.56781 0.14647 0.95352 0.0
C714 C 0.5632 0.12047 0.93875 0.0
C715 C 0.55146 0.09626 0.95532 0.0
C716 C 0.54408 0.09777 0.98651 0.0
C717 C 0.54973 0.12455 1.00125 0.0
H718 H 0.92398 0.82555 0.45733 0.0
H719 H 0.94797 0.84707 0.36388 0.0
H720 H 0.96948 0.89569 0.37992 0.0
H721 H 0.90251 0.89114 0.47803 0.0
H722 H 0.91734 0.89234 0.51561 0.0
H723 H 0.90431 0.85895 0.49701 0.0
H724 H 0.95563 0.84571 0.50471 0.0
H725 H 0.96879 0.87904 0.52339 0.0
H726 H 0.98898 0.86888 0.49108 0.0
H727 H 0.98823 0.9429 0.40619 0.0
H728 H 1.00321 0.98385 0.4404 0.0
H729 H 0.96636 0.93247 0.51688 0.0
C730 C 0.93356 0.84043 0.44009 0.0
C731 C 0.93421 0.83196 0.40914 0.0
C732 C 0.94749 0.85244 0.38771 0.0
C733 C 0.95962 0.88036 0.39661 0.0
C734 C 0.95846 0.8879 0.42715 0.0
C735 C 0.9458 0.8685 0.44859 0.0
C736 C 0.94745 0.8821 0.47999 0.0
C737 C 0.91603 0.88107 0.49345 0.0
C738 C 0.96634 0.8681 0.50103 0.0
C739 C 0.96295 0.91215 0.47286 0.0
C740 C 0.9691 0.91505 0.44222 0.0
C741 C 0.98347 0.94079 0.43021 0.0
C742 C 0.99189 0.96405 0.44991 0.0
C743 C 0.98602 0.96172 0.4815 0.0
C744 C 0.97118 0.93524 0.49291 0.0
H745 H 0.43375 0.80693 0.51119 0.0
H746 H 0.33978 0.76794 0.50821 0.0
H747 H 0.35279 0.72164 0.50191 0.0
H748 H 0.46278 0.75101 0.46176 0.0
H749 H 0.4946 0.75381 0.48583 0.0
H750 H 0.47894 0.78435 0.47909 0.0
H751 H 0.47308 0.7914 0.53696 0.0
H752 H 0.4882 0.76084 0.54386 0.0
H753 H 0.45194 0.76308 0.55911 0.0
H754 H 0.37394 0.68003 0.51073 0.0
H755 H 0.40211 0.6465 0.53124 0.0
H756 H 0.48257 0.71135 0.53055 0.0
C757 C 0.41597 0.78874 0.50808 0.0
C758 C 0.38577 0.79119 0.51019 0.0
C759 C 0.36312 0.76686 0.50608 0.0
C760 C 0.3703 0.74031 0.50256 0.0
C761 C 0.40024 0.7384 0.50291 0.0
C762 C 0.42282 0.76203 0.50499 0.0
C763 C 0.45265 0.75411 0.51026 0.0
C764 C 0.47347 0.76124 0.48258 0.0
C765 C 0.46728 0.76817 0.53927 0.0
C766 C 0.44284 0.72262 0.51365 0.0
C767 C 0.41269 0.71387 0.50833 0.0
C768 C 0.39771 0.68644 0.51406 0.0
C769 C 0.41378 0.66766 0.52608 0.0
C770 C 0.44447 0.67642 0.53236 0.0
C771 C 0.45929 0.70398 0.52521 0.0
H772 H 0.78793 0.80833 0.70715 0.0
H773 H 0.72143 0.86031 0.71827 0.0
H774 H 0.74811 0.89294 0.68057 0.0
H775 H 0.84674 0.86299 0.7104 0.0
H776 H 0.87053 0.84923 0.68367 0.0
H777 H 0.8423 0.82555 0.70447 0.0
H778 H 0.81978 0.80318 0.6543 0.0
H779 H 0.84819 0.82675 0.63325 0.0
H780 H 0.80935 0.82528 0.62573 0.0
H781 H 0.786 0.92443 0.64926 0.0
H782 H 0.83285 0.95274 0.62863 0.0
H783 H 0.87699 0.88281 0.64119 0.0
C784 C 0.77855 0.82625 0.70136 0.0
C785 C 0.75232 0.83141 0.71587 0.0
C786 C 0.74093 0.85517 0.70717 0.0
C787 C 0.75609 0.87406 0.68576 0.0
C788 C 0.78269 0.86909 0.67321 0.0
C789 C 0.79381 0.8457 0.68063 0.0
C790 C 0.82505 0.84745 0.66782 0.0
C791 C 0.84745 0.84625 0.6931 0.0
C792 C 0.82561 0.82429 0.64384 0.0
C793 C 0.83037 0.87619 0.65353 0.0
C794 C 0.80532 0.88794 0.65604 0.0
C795 C 0.80555 0.91523 0.64659 0.0
C796 C 0.83224 0.93114 0.63487 0.0
C797 C 0.85844 0.91988 0.63324 0.0
C798 C 0.85722 0.89185 0.64208 0.0
H799 H 0.68017 0.22247 0.27333 0.0
H800 H 0.76554 0.25325 0.22911 0.0
H801 H 0.74339 0.23752 0.17959 0.0
H802 H 0.66444 0.16157 0.23558 0.0
H803 H 0.62476 0.1591 0.23282 0.0
H804 H 0.64475 0.17917 0.26304 0.0
H805 H 0.62517 0.2232 0.24712 0.0
H806 H 0.60482 0.20312 0.21681 0.0
H807 H 0.63085 0.2354 0.20874 0.0
H808 H 0.71472 0.21095 0.13701 0.0
H809 H 0.68311 0.17406 0.10604 0.0
H810 H 0.61686 0.16009 0.17843 0.0
C811 C 0.69382 0.2271 0.25305 0.0
C812 C 0.72439 0.23943 0.25487 0.0
C813 C 0.74198 0.24401 0.22805 0.0
C814 C 0.72952 0.23532 0.19986 0.0
C815 C 0.69947 0.22221 0.19895 0.0
C816 C 0.6818 0.21828 0.2249 0.0
C817 C 0.65168 0.19976 0.21882 0.0
C818 C 0.64612 0.17335 0.23873 0.0
C819 C 0.62665 0.21637 0.22312 0.0
C820 C 0.65578 0.19247 0.18586 0.0
C821 C 0.6831 0.20625 0.17448 0.0
C822 C 0.69299 0.20057 0.14543 0.0
C823 C 0.67492 0.17965 0.12798 0.0
C824 C 0.64763 0.16443 0.13995 0.0
C825 C 0.63757 0.17166 0.16877 0.0
H826 H 0.43563 0.66783 0.39259 0.0
H827 H 0.43663 0.60781 0.31897 0.0
H828 H 0.45685 0.57692 0.35295 0.0
H829 H 0.50453 0.65717 0.42838 0.0
H830 H 0.49069 0.65974 0.46652 0.0
H831 H 0.47713 0.67832 0.43662 0.0
H832 H 0.42351 0.65441 0.45082 0.0
H833 H 0.43626 0.63441 0.48004 0.0
H834 H 0.41293 0.61654 0.45052 0.0
H835 H 0.47515 0.55135 0.39413 0.0
H836 H 0.49203 0.53257 0.44027 0.0
H837 H 0.48026 0.60754 0.49015 0.0
C838 C 0.44051 0.64836 0.38361 0.0
C839 C 0.43439 0.64033 0.35284 0.0
C840 C 0.44082 0.61445 0.34228 0.0
C841 C 0.4524 0.5967 0.36147 0.0
C842 C 0.45761 0.60482 0.39158 0.0
C843 C 0.45204 0.63002 0.40277 0.0
C844 C 0.45929 0.63292 0.4365 0.0
C845 C 0.48441 0.65857 0.44234 0.0
C846 C 0.43131 0.6347 0.45557 0.0
C847 C 0.46964 0.60542 0.44232 0.0
C848 C 0.4684 0.58973 0.41587 0.0
C849 C 0.47632 0.56352 0.41496 0.0
C850 C 0.48592 0.55297 0.44156 0.0
C851 C 0.4877 0.56835 0.46929 0.0
C852 C 0.47927 0.59509 0.46953 0.0
H853 H 0.089 0.41385 0.87754 0.0
H854 H 0.15545 0.48271 0.84114 0.0
H855 H 0.14323 0.51394 0.88139 0.0
H856 H 0.03468 0.45744 0.89851 0.0
H857 H 0.0223 0.43863 0.93277 0.0
H858 H 0.03617 0.42074 0.90125 0.0
H859 H 0.075 0.40592 0.93594 0.0
H860 H 0.06136 0.42391 0.96752 0.0
H861 H 0.10029 0.43249 0.95678 0.0
H862 H 0.12579 0.53814 0.9259 0.0
H863 H 0.10122 0.55501 0.97038 0.0
H864 H 0.0432 0.47281 0.9791 0.0
C865 C 0.10085 0.43553 0.87791 0.0
C866 C 0.1239 0.44532 0.85613 0.0
C867 C 0.13853 0.47405 0.85774 0.0
C868 C 0.13156 0.49221 0.88054 0.0
C869 C 0.10945 0.48182 0.90185 0.0
C870 C 0.09397 0.45429 0.90071 0.0
C871 C 0.07082 0.4491 0.92653 0.0
C872 C 0.03911 0.441 0.91401 0.0
C873 C 0.07726 0.42651 0.94796 0.0
C874 C 0.07591 0.47796 0.94221 0.0
C875 C 0.09851 0.49632 0.92748 0.0
C876 C 0.10792 0.524 0.93749 0.0
C877 C 0.09377 0.5334 0.96295 0.0
C878 C 0.07008 0.51546 0.9784 0.0
C879 C 0.06116 0.48716 0.96786 0.0
H880 H 0.62512 0.87721 0.96744 0.0
H881 H 0.60412 0.88557 0.87289 0.0
H882 H 0.5796 0.9246 0.88657 0.0
H883 H 0.55926 0.89384 1.00012 0.0
H884 H 0.57796 0.91418 1.03114 0.0
H885 H 0.59342 0.88621 1.01421 0.0
H886 H 0.64332 0.92114 1.004 0.0
H887 H 0.62799 0.94925 1.02087 0.0
H888 H 0.6433 0.95262 0.98291 0.0
H889 H 0.5548 0.96082 0.91043 0.0
H890 H 0.534 0.9942 0.94309 0.0
H891 H 0.5758 0.96651 1.02107 0.0
C892 C 0.61572 0.88735 0.94947 0.0
C893 C 0.61623 0.87768 0.91908 0.0
C894 C 0.60328 0.89168 0.89649 0.0
C895 C 0.58957 0.91421 0.90395 0.0
C896 C 0.58944 0.92304 0.93401 0.0
C897 C 0.60245 0.91032 0.95639 0.0
C898 C 0.59955 0.92432 0.98691 0.0
C899 C 0.58147 0.90339 1.00941 0.0
C900 C 0.63038 0.93763 0.9994 0.0
C901 C 0.58252 0.94663 0.97817 0.0
C902 C 0.57674 0.94532 0.94754 0.0
C903 C 0.55961 0.96241 0.93435 0.0
C904 C 0.5479 0.98123 0.953 0.0
C905 C 0.55385 0.98314 0.98432 0.0
C906 C 0.57165 0.96588 0.99701 0.0
H907 H 0.84994 0.11307 0.4446 0.0
H908 H 0.91753 0.18894 0.43341 0.0
H909 H 0.95623 0.16361 0.44933 0.0
H910 H 0.87713 0.09286 0.51138 0.0
H911 H 0.86877 0.05552 0.50383 0.0
H912 H 0.84707 0.07785 0.4866 0.0
H913 H 0.85937 0.05947 0.43347 0.0
H914 H 0.88103 1.0369 0.45059 0.0
H915 H 0.89776 0.06155 0.42205 0.0
H916 H 0.98586 0.13288 0.47218 0.0
H917 H 1.00548 0.0983 0.50146 0.0
H918 H 0.91929 0.04133 0.49863 0.0
C919 C 0.87307 0.12393 0.4447 0.0
C920 C 0.88112 0.1527 0.43751 0.0
C921 C 0.91126 0.16679 0.43868 0.0
C922 C 0.93329 0.15257 0.44754 0.0
C923 C 0.92466 0.12434 0.45519 0.0
C924 C 0.89533 0.11007 0.45385 0.0
C925 C 0.89172 0.08067 0.46643 0.0
C926 C 0.86989 0.0765 0.49367 0.0
C927 C 0.88189 0.05833 0.44165 0.0
C928 C 0.9234 0.08106 0.476 0.0
C929 C 0.94203 0.10634 0.4688 0.0
C930 C 0.97173 0.11274 0.4773 0.0
C931 C 0.9827 0.0929 0.49386 0.0
C932 C 0.96405 0.06696 0.50172 0.0
C933 C 0.93411 0.06082 0.49238 0.0
H934 H 0.2278 0.65622 0.13436 0.0
H935 H 0.22321 0.60153 0.21202 0.0
H936 H 0.17702 0.5725 0.19284 0.0
H937 H 0.14729 0.65372 0.13246 0.0
H938 H 0.14607 0.65413 0.09174 0.0
H939 H 0.17951 0.67087 0.11093 0.0
H940 H 0.2099 0.64075 0.07943 0.0
H941 H 0.17654 0.62387 0.06021 0.0
H942 H 0.19855 0.60296 0.07952 0.0
H943 H 0.13266 0.54786 0.16506 0.0
H944 H 0.09036 0.53065 0.13178 0.0
H945 H 0.11929 0.60213 0.07303 0.0
C946 C 0.21702 0.63833 0.14757 0.0
C947 C 0.23001 0.6311 0.17461 0.0
C948 C 0.21477 0.60729 0.19083 0.0
C949 C 0.18814 0.59069 0.18026 0.0
C950 C 0.17633 0.59816 0.15353 0.0
C951 C 0.18996 0.62156 0.1375 0.0
C952 C 0.17189 0.62486 0.10959 0.0
C953 C 0.16051 0.65254 0.11129 0.0
C954 C 0.19032 0.623 0.08046 0.0
C955 C 0.1462 0.5995 0.11242 0.0
C956 C 0.14956 0.5844 0.13793 0.0
C957 C 0.12968 0.55962 0.14515 0.0
C958 C 0.10573 0.54991 0.12592 0.0
C959 C 0.10133 0.56492 0.0997 0.0
C960 C 0.12182 0.5903 0.09303 0.0
H961 H 0.30672 0.42761 0.61369 0.0
H962 H 0.33075 0.45957 0.7041 0.0
H963 H 0.37943 0.48443 0.68453 0.0
H964 H 0.38005 0.41582 0.59214 0.0
H965 H 0.3779 0.42638 0.55347 0.0
H966 H 0.34432 0.41146 0.57424 0.0
H967 H 0.3226 0.45537 0.56288 0.0
H968 H 0.35618 0.47049 0.5422 0.0
H969 H 0.34335 0.48978 0.57319 0.0
H970 H 0.42606 0.50566 0.6558 0.0
H971 H 0.46797 0.52067 0.61992 0.0
H972 H 0.4155 0.47511 0.54751 0.0
C973 C 0.32223 0.43971 0.62945 0.0
C974 C 0.31434 0.44176 0.66057 0.0
C975 C 0.33557 0.45804 0.68014 0.0
C976 C 0.36353 0.47217 0.66924 0.0
C977 C 0.3704 0.46995 0.63858 0.0
C978 C 0.35047 0.45406 0.6189 0.0
C979 C 0.36387 0.45498 0.587 0.0
C980 C 0.3667 0.4254 0.57607 0.0
C981 C 0.34539 0.46846 0.56502 0.0
C982 C 0.39441 0.47374 0.59192 0.0
C983 C 0.39757 0.48216 0.6219 0.0
C984 C 0.42378 0.49924 0.63226 0.0
C985 C 0.44751 0.50774 0.61163 0.0
C986 C 0.44512 0.49926 0.58081 0.0
C987 C 0.41801 0.48215 0.57085 0.0
H988 H 0.82471 0.71464 0.91815 0.0
H989 H 0.74936 0.68153 0.97716 0.0
H990 H 0.78049 0.65413 1.00435 0.0
H991 H 0.85264 0.65129 0.91098 0.0
H992 H 0.89124 0.66905 0.91081 0.0
H993 H 0.86322 0.68659 0.89684 0.0
H994 H 0.88027 0.72799 0.93446 0.0
H995 H 0.90842 0.71063 0.94848 0.0
H996 H 0.88151 0.72095 0.97429 0.0
H997 H 0.82002 0.62938 1.02412 0.0
H998 H 0.8647 0.6102 1.03539 0.0
H999 H 0.91346 0.65995 0.96302 0.0
C1000 C 0.81464 0.70151 0.93668 0.0
C1001 C 0.78455 0.70012 0.94546 0.0
C1002 C 0.77243 0.68309 0.97021 0.0
C1003 C 0.78989 0.66735 0.98566 0.0
C1004 C 0.8194 0.66898 0.97612 0.0
C1005 C 0.83166 0.68573 0.95226 0.0
C1006 C 0.86382 0.68383 0.94627 0.0
C1007 C 0.86795 0.67198 0.91433 0.0
C1008 C 0.88473 0.71256 0.95118 0.0
C1009 C 0.86776 0.66321 0.97036 0.0
C1010 C 0.84196 0.65488 0.98742 0.0
C1011 C 0.84037 0.63585 1.01097 0.0
C1012 C 0.86587 0.62517 1.01728 0.0
C1013 C 0.89255 0.63351 1.00005 0.0
C1014 C 0.89331 0.6528 0.97632 0.0
H1015 H 0.44783 0.86976 0.19769 0.0
H1016 H 0.41208 0.81897 0.12014 0.0
H1017 H 0.42868 0.85952 0.08683 0.0
H1018 H 0.4271 0.93366 0.1739 0.0
H1019 H 0.46036 0.95677 0.18728 0.0
H1020 H 0.44685 0.92354 0.20542 0.0
H1021 H 0.49799 0.9097 0.19603 0.0
H1022 H 0.51171 0.94298 0.17805 0.0
H1023 H 0.51341 0.91065 0.15813 0.0
H1024 H 0.44798 0.90568 0.06146 0.0
H1025 H 0.46997 0.95416 0.04576 0.0
H1026 H 0.49332 0.97669 0.13883 0.0
C1027 C 0.44385 0.86713 0.17365 0.0
C1028 C 0.4284 0.84098 0.16168 0.0
C1029 C 0.42347 0.83869 0.13005 0.0
C1030 C 0.43291 0.86166 0.11085 0.0
C1031 C 0.44742 0.88718 0.12333 0.0
C1032 C 0.45304 0.89013 0.15397 0.0
C1033 C 0.46868 0.92026 0.16134 0.0
C1034 C 0.4496 0.93439 0.18329 0.0
C1035 C 0.4998 0.92093 0.17415 0.0
C1036 C 0.47084 0.93364 0.13016 0.0
C1037 C 0.45845 0.91406 0.1086 0.0
C1038 C 0.45776 0.92117 0.07817 0.0
C1039 C 0.47026 0.94885 0.06944 0.0
C1040 C 0.48332 0.9694 0.09094 0.0
C1041 C 0.4834 0.96158 0.1218 0.0
H1042 H 0.11538 0.23909 0.62435 0.0
H1043 H 0.0903 0.21606 0.71721 0.0
H1044 H 0.06853 0.16787 0.70015 0.0
H1045 H 0.05038 0.19692 0.58941 0.0
H1046 H 0.07062 0.18695 0.55704 0.0
H1047 H 0.08408 0.21991 0.57633 0.0
H1048 H 0.13498 0.20584 0.5841 0.0
H1049 H 0.12166 0.17282 0.56485 0.0
H1050 H 0.13613 0.17322 0.60252 0.0
H1051 H 0.04943 0.12146 0.67313 0.0
H1052 H 0.03416 0.08109 0.63836 0.0
H1053 H 0.07211 0.13306 0.56267 0.0
C1054 C 0.10551 0.22395 0.64122 0.0
C1055 C 0.10456 0.23191 0.67233 0.0
C1056 C 0.09098 0.21111 0.69328 0.0
C1057 C 0.07869 0.18342 0.6838 0.0
C1058 C 0.08002 0.1764 0.65315 0.0
C1059 C 0.09308 0.19606 0.63213 0.0
C1060 C 0.09149 0.18293 0.60048 0.0
C1061 C 0.07304 0.19755 0.57959 0.0
C1062 C 0.12294 0.18376 0.58721 0.0
C1063 C 0.07552 0.15286 0.60701 0.0
C1064 C 0.06915 0.14959 0.63758 0.0
C1065 C 0.05436 0.12384 0.64917 0.0
C1066 C 0.04576 0.10091 0.62912 0.0
C1067 C 0.05186 0.10356 0.59759 0.0
C1068 C 0.06711 0.13007 0.58658 0.0
H1069 H 0.7305 0.34809 0.51287 0.0
H1070 H 0.67557 0.26655 0.53226 0.0
H1071 H 0.63818 0.28959 0.55758 0.0
H1072 H 0.70482 0.38805 0.58231 0.0
H1073 H 0.70598 0.41847 0.55912 0.0
H1074 H 0.73254 0.39611 0.55251 0.0
H1075 H 0.71656 0.3899 0.49649 0.0
H1076 H 0.68986 0.41175 0.50292 0.0
H1077 H 0.67785 0.3766 0.48796 0.0
H1078 H 0.60162 0.32028 0.56693 0.0
H1079 H 0.57036 0.35577 0.56152 0.0
H1080 H 0.64867 0.41734 0.53487 0.0
C1081 C 0.71123 0.33521 0.5238 0.0
C1082 C 0.70582 0.3057 0.52083 0.0
C1083 C 0.68026 0.28924 0.5348 0.0
C1084 C 0.65891 0.30218 0.54919 0.0
C1085 C 0.66383 0.33151 0.54981 0.0
C1086 C 0.68976 0.34785 0.53803 0.0
C1087 C 0.68761 0.37847 0.53653 0.0
C1088 C 0.70901 0.39633 0.55896 0.0
C1089 C 0.69327 0.38979 0.50406 0.0
C1090 C 0.65552 0.37644 0.54656 0.0
C1091 C 0.64242 0.34941 0.5551 0.0
C1092 C 0.61186 0.34169 0.5612 0.0
C1093 C 0.59422 0.36189 0.55775 0.0
C1094 C 0.60715 0.38934 0.54792 0.0
C1095 C 0.6383 0.39681 0.5433 0.0
loop_
_geom_bond_atom_site_label_1
_geom_bond_atom_site_label_2
_geom_bond_distance
_geom_bond_site_symmetry_2
_ccdc_geom_bond_type
C0 C1 1.384 . S
C0 H13 0.947 . S
C0 C35 1.382 . S
C1 C0 1.384 . S
C1 C2 1.378 . S
C2 C1 1.378 . S
C2 C3 1.378 . S
C2 H14 0.952 . S
C3 C2 1.378 . S
C3 H15 0.950 . S
C3 C34 1.383 . S
H4 C23 0.947 . S
H5 C24 0.946 . S
H6 C26 0.953 . S
H7 C27 0.945 . S
H8 C29 0.952 . S
H9 C30 0.949 . S
H10 C32 0.950 . S
H11 C33 0.948 . S
H12 C35 0.951 . S
H13 C0 0.947 . S
H14 C2 0.952 . S
H15 C3 0.950 . S
N16 C19 1.382 . S
N16 C21 1.363 . S
N17 C19 1.371 . S
N17 C20 1.372 . S
N18 C20 1.361 . S
N18 C21 1.377 . S
C19 N16 1.382 . S
C19 N17 1.371 . S
C19 C22 1.480 . S
C20 N17 1.372 . S
C20 N18 1.361 . S
C20 C28 1.457 . S
C21 N16 1.363 . S
C21 N18 1.377 . S
C21 C34 1.479 . S
C22 C19 1.480 . S
C22 C23 1.383 . S
C22 C27 1.385 . S
C23 H4 0.947 . S
C23 C22 1.383 . S
C23 C24 1.388 . S
C24 H5 0.946 . S
C24 C23 1.388 . S
C24 C25 1.384 . S
C25 C24 1.384 . S
C25 C26 1.377 . S
C26 H6 0.953 . S
C26 C25 1.377 . S
C26 C27 1.369 . S
C27 H7 0.945 . S
C27 C22 1.385 . S
C27 C26 1.369 . S
C28 C20 1.457 . S
C28 C29 1.372 . S
C28 C33 1.364 . S
C29 H8 0.952 . S
C29 C28 1.372 . S
C29 C30 1.389 . S
C30 H9 0.949 . S
C30 C29 1.389 . S
C30 C31 1.387 . S
C31 C30 1.387 . S
C31 C32 1.372 . S
C32 H10 0.950 . S
C32 C31 1.372 . S
C32 C33 1.379 . S
C33 H11 0.948 . S
C33 C28 1.364 . S
C33 C32 1.379 . S
C34 C3 1.383 . S
C34 C21 1.479 . S
C34 C35 1.398 . S
C35 C0 1.382 . S
C35 H12 0.951 . S
C35 C34 1.398 . S
C36 C37 1.384 . S
C36 H49 0.947 . S
C36 C71 1.382 . S
C37 C36 1.384 . S
C37 C38 1.378 . S
C38 C37 1.378 . S
C38 C39 1.378 . S
C38 H50 0.952 . S
C39 C38 1.378 . S
C39 H51 0.950 . S
C39 C70 1.383 . S
H40 C59 0.947 . S
H41 C60 0.946 . S
H42 C62 0.953 . S
H43 C63 0.945 . S
H44 C65 0.952 . S
H45 C66 0.949 . S
H46 C68 0.950 . S
H47 C69 0.948 . S
H48 C71 0.951 . S
H49 C36 0.947 . S
H50 C38 0.952 . S
H51 C39 0.950 . S
N52 C55 1.382 . S
N52 C57 1.363 . S
N53 C55 1.371 . S
N53 C56 1.372 . S
N54 C56 1.361 . S
N54 C57 1.377 . S
C55 N52 1.382 . S
C55 N53 1.371 . S
C55 C58 1.480 . S
C56 N53 1.372 . S
C56 N54 1.361 . S
C56 C64 1.457 . S
C57 N52 1.363 . S
C57 N54 1.377 . S
C57 C70 1.479 . S
C58 C55 1.480 . S
C58 C59 1.383 . S
C58 C63 1.385 . S
C59 H40 0.947 . S
C59 C58 1.383 . S
C59 C60 1.388 . S
C60 H41 0.946 . S
C60 C59 1.388 . S
C60 C61 1.384 . S
C61 C60 1.384 . S
C61 C62 1.377 . S
C62 H42 0.953 . S
C62 C61 1.377 . S
C62 C63 1.369 . S
C63 H43 0.945 . S
C63 C58 1.385 . S
C63 C62 1.369 . S
C64 C56 1.457 . S
C64 C65 1.372 . S
C64 C69 1.364 . S
C65 H44 0.952 . S
C65 C64 1.372 . S
C65 C66 1.389 . S
C66 H45 0.949 . S
C66 C65 1.389 . S
C66 C67 1.387 . S
C67 C66 1.387 . S
C67 C68 1.372 . S
C68 H46 0.950 . S
C68 C67 1.372 . S
C68 C69 1.379 . S
C69 H47 0.948 . S
C69 C64 1.364 . S
C69 C68 1.379 . S
C70 C39 1.383 . S
C70 C57 1.479 . S
C70 C71 1.398 . S
C71 C36 1.382 . S
C71 H48 0.951 . S
C71 C70 1.398 . S
C72 C73 1.384 . S
C72 H85 0.947 . S
C72 C107 1.382 . S
C73 C72 1.384 . S
C73 C74 1.378 . S
C74 C73 1.378 . S
C74 C75 1.378 . S
C74 H86 0.952 . S
C75 C74 1.378 . S
C75 H87 0.950 . S
C75 C106 1.383 . S
H76 C95 0.947 . S
H77 C96 0.946 . S
H78 C98 0.953 . S
H79 C99 0.945 . S
H80 C101 0.952 . S
H81 C102 0.949 . S
H82 C104 0.950 . S
H83 C105 0.948 . S
H84 C107 0.951 . S
H85 C72 0.947 . S
H86 C74 0.952 . S
H87 C75 0.950 . S
N88 C91 1.382 . S
N88 C93 1.363 . S
N89 C91 1.371 . S
N89 C92 1.372 . S
N90 C92 1.361 . S
N90 C93 1.377 . S
C91 N88 1.382 . S
C91 N89 1.371 . S
C91 C94 1.480 . S
C92 N89 1.372 . S
C92 N90 1.361 . S
C92 C100 1.457 . S
C93 N88 1.363 . S
C93 N90 1.377 . S
C93 C106 1.479 . S
C94 C91 1.480 . S
C94 C95 1.383 . S
C94 C99 1.385 . S
C95 H76 0.947 . S
C95 C94 1.383 . S
C95 C96 1.388 . S
C96 H77 0.946 . S
C96 C95 1.388 . S
C96 C97 1.384 . S
C97 C96 1.384 . S
C97 C98 1.377 . S
C98 H78 0.953 . S
C98 C97 1.377 . S
C98 C99 1.369 . S
C99 H79 0.945 . S
C99 C94 1.385 . S
C99 C98 1.369 . S
C100 C92 1.457 . S
C100 C101 1.372 . S
C100 C105 1.364 . S
C101 H80 0.952 . S
C101 C100 1.372 . S
C101 C102 1.389 . S
C102 H81 0.949 . S
C102 C101 1.389 . S
C102 C103 1.387 . S
C103 C102 1.387 . S
C103 C104 1.372 . S
C104 H82 0.950 . S
C104 C103 1.372 . S
C104 C105 1.379 . S
C105 H83 0.948 . S
C105 C100 1.364 . S
C105 C104 1.379 . S
C106 C75 1.383 . S
C106 C93 1.479 . S
C106 C107 1.398 . S
C107 C72 1.382 . S
C107 H84 0.951 . S
C107 C106 1.398 . S
C108 C109 1.384 . S
C108 H121 0.947 . S
C108 C143 1.382 . S
C109 C108 1.384 . S
C109 C110 1.378 . S
C110 C109 1.378 . S
C110 C111 1.378 . S
C110 H122 0.952 . S
C111 C110 1.378 . S
C111 H123 0.950 . S
C111 C142 1.383 . S
H112 C131 0.947 . S
H113 C132 0.946 . S
H114 C134 0.953 . S
H115 C135 0.945 . S
H116 C137 0.952 . S
H117 C138 0.949 . S
H118 C140 0.950 . S
H119 C141 0.948 . S
H120 C143 0.951 . S
H121 C108 0.947 . S
H122 C110 0.952 . S
H123 C111 0.950 . S
N124 C127 1.382 . S
N124 C129 1.363 . S
N125 C127 1.371 . S
N125 C128 1.372 . S
N126 C128 1.361 . S
N126 C129 1.377 . S
C127 N124 1.382 . S
C127 N125 1.371 . S
C127 C130 1.480 . S
C128 N125 1.372 . S
C128 N126 1.361 . S
C128 C136 1.457 . S
C129 N124 1.363 . S
C129 N126 1.377 . S
C129 C142 1.479 . S
C130 C127 1.480 . S
C130 C131 1.383 . S
C130 C135 1.385 . S
C131 H112 0.947 . S
C131 C130 1.383 . S
C131 C132 1.388 . S
C132 H113 0.946 . S
C132 C131 1.388 . S
C132 C133 1.384 . S
C133 C132 1.384 . S
C133 C134 1.377 . S
C134 H114 0.953 . S
C134 C133 1.377 . S
C134 C135 1.369 . S
C135 H115 0.945 . S
C135 C130 1.385 . S
C135 C134 1.369 . S
C136 C128 1.457 . S
C136 C137 1.372 . S
C136 C141 1.364 . S
C137 H116 0.952 . S
C137 C136 1.372 . S
C137 C138 1.389 . S
C138 H117 0.949 . S
C138 C137 1.389 . S
C138 C139 1.387 . S
C139 C138 1.387 . S
C139 C140 1.372 . S
C140 H118 0.950 . S
C140 C139 1.372 . S
C140 C141 1.379 . S
C141 H119 0.948 . S
C141 C136 1.364 . S
C141 C140 1.379 . S
C142 C111 1.383 . S
C142 C129 1.479 . S
C142 C143 1.398 . S
C143 C108 1.382 . S
C143 H120 0.951 . S
C143 C142 1.398 . S
C144 C145 1.384 . S
C144 H157 0.947 . S
C144 C179 1.382 . S
C145 C144 1.384 . S
C145 C146 1.378 . S
C146 C145 1.378 . S
C146 C147 1.378 . S
C146 H158 0.952 . S
C147 C146 1.378 . S
C147 H159 0.950 . S
C147 C178 1.383 . S
H148 C167 0.947 . S
H149 C168 0.946 . S
H150 C170 0.953 . S
H151 C171 0.945 . S
H152 C173 0.952 . S
H153 C174 0.949 . S
H154 C176 0.950 . S
H155 C177 0.948 . S
H156 C179 0.951 . S
H157 C144 0.947 . S
H158 C146 0.952 . S
H159 C147 0.950 . S
N160 C163 1.382 . S
N160 C165 1.363 . S
N161 C163 1.371 . S
N161 C164 1.372 . S
N162 C164 1.361 . S
N162 C165 1.377 . S
C163 N160 1.382 . S
C163 N161 1.371 . S
C163 C166 1.480 . S
C164 N161 1.372 . S
C164 N162 1.361 . S
C164 C172 1.457 . S
C165 N160 1.363 . S
C165 N162 1.377 . S
C165 C178 1.479 . S
C166 C163 1.480 . S
C166 C167 1.383 . S
C166 C171 1.385 . S
C167 H148 0.947 . S
C167 C166 1.383 . S
C167 C168 1.388 . S
C168 H149 0.946 . S
C168 C167 1.388 . S
C168 C169 1.384 . S
C169 C168 1.384 . S
C169 C170 1.377 . S
C170 H150 0.953 . S
C170 C169 1.377 . S
C170 C171 1.369 . S
C171 H151 0.945 . S
C171 C166 1.385 . S
C171 C170 1.369 . S
C172 C164 1.457 . S
C172 C173 1.372 . S
C172 C177 1.364 . S
C173 H152 0.952 . S
C173 C172 1.372 . S
C173 C174 1.389 . S
C174 H153 0.949 . S
C174 C173 1.389 . S
C174 C175 1.387 . S
C175 C174 1.387 . S
C175 C176 1.372 . S
C176 H154 0.950 . S
C176 C175 1.372 . S
C176 C177 1.379 . S
C177 H155 0.948 . S
C177 C172 1.364 . S
C177 C176 1.379 . S
C178 C147 1.383 . S
C178 C165 1.479 . S
C178 C179 1.398 . S
C179 C144 1.382 . S
C179 H156 0.951 . S
C179 C178 1.398 . S
C180 C181 1.384 . S
C180 H193 0.947 . S
C180 C215 1.382 . S
C181 C180 1.384 . S
C181 C182 1.378 . S
C182 C181 1.378 . S
C182 C183 1.378 . S
C182 H194 0.952 . S
C183 C182 1.378 . S
C183 H195 0.950 . S
C183 C214 1.383 . S
H184 C203 0.947 . S
H185 C204 0.946 . S
H186 C206 0.953 . S
H187 C207 0.945 . S
H188 C209 0.952 . S
H189 C210 0.949 . S
H190 C212 0.950 . S
H191 C213 0.948 . S
H192 C215 0.951 . S
H193 C180 0.947 . S
H194 C182 0.952 . S
H195 C183 0.950 . S
N196 C199 1.382 . S
N196 C201 1.363 . S
N197 C199 1.371 . S
N197 C200 1.372 . S
N198 C200 1.361 . S
N198 C201 1.377 . S
C199 N196 1.382 . S
C199 N197 1.371 . S
C199 C202 1.480 . S
C200 N197 1.372 . S
C200 N198 1.361 . S
C200 C208 1.457 . S
C201 N196 1.363 . S
C201 N198 1.377 . S
C201 C214 1.479 . S
C202 C199 1.480 . S
C202 C203 1.383 . S
C202 C207 1.385 . S
C203 H184 0.947 . S
C203 C202 1.383 . S
C203 C204 1.388 . S
C204 H185 0.946 . S
C204 C203 1.388 . S
C204 C205 1.384 . S
C205 C204 1.384 . S
C205 C206 1.377 . S
C206 H186 0.953 . S
C206 C205 1.377 . S
C206 C207 1.369 . S
C207 H187 0.945 . S
C207 C202 1.385 . S
C207 C206 1.369 . S
C208 C200 1.457 . S
C208 C209 1.372 . S
C208 C213 1.364 . S
C209 H188 0.952 . S
C209 C208 1.372 . S
C209 C210 1.389 . S
C210 H189 0.949 . S
C210 C209 1.389 . S
C210 C211 1.387 . S
C211 C210 1.387 . S
C211 C212 1.372 . S
C212 H190 0.950 . S
C212 C211 1.372 . S
C212 C213 1.379 . S
C213 H191 0.948 . S
C213 C208 1.364 . S
C213 C212 1.379 . S
C214 C183 1.383 . S
C214 C201 1.479 . S
C214 C215 1.398 . S
C215 C180 1.382 . S
C215 H192 0.951 . S
C215 C214 1.398 . S
C216 C217 1.384 . S
C216 H229 0.947 . S
C216 C251 1.382 . S
C217 C216 1.384 . S
C217 C218 1.378 . S
C218 C217 1.378 . S
C218 C219 1.378 . S
C218 H230 0.952 . S
C219 C218 1.378 . S
C219 H231 0.950 . S
C219 C250 1.383 . S
H220 C239 0.947 . S
H221 C240 0.946 . S
H222 C242 0.953 . S
H223 C243 0.945 . S
H224 C245 0.952 . S
H225 C246 0.949 . S
H226 C248 0.950 . S
H227 C249 0.948 . S
H228 C251 0.951 . S
H229 C216 0.947 . S
H230 C218 0.952 . S
H231 C219 0.950 . S
N232 C235 1.382 . S
N232 C237 1.363 . S
N233 C235 1.371 . S
N233 C236 1.372 . S
N234 C236 1.361 . S
N234 C237 1.377 . S
C235 N232 1.382 . S
C235 N233 1.371 . S
C235 C238 1.480 . S
C236 N233 1.372 . S
C236 N234 1.361 . S
C236 C244 1.457 . S
C237 N232 1.363 . S
C237 N234 1.377 . S
C237 C250 1.479 . S
C238 C235 1.480 . S
C238 C239 1.383 . S
C238 C243 1.385 . S
C239 H220 0.947 . S
C239 C238 1.383 . S
C239 C240 1.388 . S
C240 H221 0.946 . S
C240 C239 1.388 . S
C240 C241 1.384 . S
C241 C240 1.384 . S
C241 C242 1.377 . S
C242 H222 0.953 . S
C242 C241 1.377 . S
C242 C243 1.369 . S
C243 H223 0.945 . S
C243 C238 1.385 . S
C243 C242 1.369 . S
C244 C236 1.457 . S
C244 C245 1.372 . S
C244 C249 1.364 . S
C245 H224 0.952 . S
C245 C244 1.372 . S
C245 C246 1.389 . S
C246 H225 0.949 . S
C246 C245 1.389 . S
C246 C247 1.387 . S
C247 C246 1.387 . S
C247 C248 1.372 . S
C248 H226 0.950 . S
C248 C247 1.372 . S
C248 C249 1.379 . S
C249 H227 0.948 . S
C249 C244 1.364 . S
C249 C248 1.379 . S
C250 C219 1.383 . S
C250 C237 1.479 . S
C250 C251 1.398 . S
C251 C216 1.382 . S
C251 H228 0.951 . S
C251 C250 1.398 . S
C252 C253 1.384 . S
C252 H265 0.947 . S
C252 C287 1.382 . S
C253 C252 1.384 . S
C253 C254 1.378 . S
C254 C253 1.378 . S
C254 C255 1.378 . S
C254 H266 0.952 . S
C255 C254 1.378 . S
C255 H267 0.950 . S
C255 C286 1.383 . S
H256 C275 0.947 . S
H257 C276 0.946 . S
H258 C278 0.953 . S
H259 C279 0.945 . S
H260 C281 0.952 . S
H261 C282 0.949 . S
H262 C284 0.950 . S
H263 C285 0.948 . S
H264 C287 0.951 . S
H265 C252 0.947 . S
H266 C254 0.952 . S
H267 C255 0.950 . S
N268 C271 1.382 . S
N268 C273 1.363 . S
N269 C271 1.371 . S
N269 C272 1.372 . S
N270 C272 1.361 . S
N270 C273 1.377 . S
C271 N268 1.382 . S
C271 N269 1.371 . S
C271 C274 1.480 . S
C272 N269 1.372 . S
C272 N270 1.361 . S
C272 C280 1.457 . S
C273 N268 1.363 . S
C273 N270 1.377 . S
C273 C286 1.479 . S
C274 C271 1.480 . S
C274 C275 1.383 . S
C274 C279 1.385 . S
C275 H256 0.947 . S
C275 C274 1.383 . S
C275 C276 1.388 . S
C276 H257 0.946 . S
C276 C275 1.388 . S
C276 C277 1.384 . S
C277 C276 1.384 . S
C277 C278 1.377 . S
C278 H258 0.953 . S
C278 C277 1.377 . S
C278 C279 1.369 . S
C279 H259 0.945 . S
C279 C274 1.385 . S
C279 C278 1.369 . S
C280 C272 1.457 . S
C280 C281 1.372 . S
C280 C285 1.364 . S
C281 H260 0.952 . S
C281 C280 1.372 . S
C281 C282 1.389 . S
C282 H261 0.949 . S
C282 C281 1.389 . S
C282 C283 1.387 . S
C283 C282 1.387 . S
C283 C284 1.372 . S
C284 H262 0.950 . S
C284 C283 1.372 . S
C284 C285 1.379 . S
C285 H263 0.948 . S
C285 C280 1.364 . S
C285 C284 1.379 . S
C286 C255 1.383 . S
C286 C273 1.479 . S
C286 C287 1.398 . S
C287 C252 1.382 . S
C287 H264 0.951 . S
C287 C286 1.398 . S
La288 C290 2.928 . S
La288 O308 2.521 . S
La288 O309 2.628 . S
La288 O310 2.554 1_545 S
La288 O311 2.757 1_545 S
La288 O312 2.470 . S
La288 O317 2.482 1_455 S
La288 O319 2.503 1_445 S
La289 C299 2.928 . S
La289 O311 2.482 1_655 S
La289 O313 2.503 1_665 S
La289 O314 2.521 . S
La289 O315 2.628 . S
La289 O316 2.554 1_565 S
La289 O317 2.757 1_565 S
La289 O318 2.470 . S
C290 La288 2.928 . S
C290 C291 1.503 . S
C290 O308 1.261 . S
C290 O309 1.243 . S
C291 C290 1.503 . S
C291 C292 1.394 . S
C291 C296 1.373 . S
C292 C291 1.394 . S
C292 C293 1.380 . S
C292 H320 0.930 . S
C293 C292 1.380 . S
C293 C294 1.376 . S
C293 H321 0.930 . S
C294 C293 1.376 . S
C294 C295 1.370 . S
C295 C294 1.370 . S
C295 C296 1.396 . S
C295 H322 0.929 . S
C296 C291 1.373 . S
C296 C295 1.396 . S
C296 H323 0.929 . S
C297 O310 1.240 . S
C297 O311 1.289 . S
C298 O312 1.258 . S
C298 O313 1.256 . S
C299 La289 2.928 . S
C299 C300 1.503 . S
C299 O314 1.261 . S
C299 O315 1.243 . S
C300 C299 1.503 . S
C300 C301 1.394 . S
C300 C305 1.373 . S
C301 C300 1.394 . S
C301 C302 1.380 . S
C301 H324 0.930 . S
C302 C301 1.380 . S
C302 C303 1.376 . S
C302 H325 0.930 . S
C303 C302 1.376 . S
C303 C304 1.370 . S
C304 C303 1.370 . S
C304 C305 1.396 . S
C304 H326 0.929 . S
C305 C300 1.373 . S
C305 C304 1.396 . S
C305 H327 0.929 . S
C306 O316 1.240 . S
C306 O317 1.289 . S
C307 O318 1.258 . S
C307 O319 1.256 . S
O308 La288 2.521 . S
O308 C290 1.261 . S
O309 La288 2.628 . S
O309 C290 1.243 . S
O310 La288 2.554 1_565 S
O310 C297 1.240 . S
O311 La288 2.757 1_565 S
O311 La289 2.482 1_455 S
O311 C297 1.289 . S
O312 La288 2.470 . S
O312 C298 1.258 . S
O313 La289 2.503 1_445 S
O313 C298 1.256 . S
O314 La289 2.521 . S
O314 C299 1.261 . S
O315 La289 2.628 . S
O315 C299 1.243 . S
O316 La289 2.554 1_545 S
O316 C306 1.240 . S
O317 La288 2.482 1_655 S
O317 La289 2.757 1_545 S
O317 C306 1.289 . S
O318 La289 2.470 . S
O318 C307 1.258 . S
O319 La288 2.503 1_665 S
O319 C307 1.256 . S
H320 C292 0.930 . S
H321 C293 0.930 . S
H322 C295 0.929 . S
H323 C296 0.929 . S
H324 C301 0.930 . S
H325 C302 0.930 . S
H326 C304 0.929 . S
H327 C305 0.929 . S
La328 C330 2.916 1_565 S
La328 O348 2.519 1_565 S
La328 O349 2.607 1_565 S
La328 O350 2.572 . S
La328 O351 2.767 . S
La328 O352 2.458 1_565 S
La328 O357 2.464 1_564 S
La328 O359 2.517 1_554 S
La329 C339 2.928 1_545 S
La329 O351 2.482 1_546 S
La329 O353 2.503 1_556 S
La329 O354 2.521 1_545 S
La329 O355 2.628 1_545 S
La329 O356 2.554 . S
La329 O357 2.757 . S
La329 O358 2.470 1_545 S
C330 La328 2.916 1_545 S
C330 C331 1.503 . S
C330 O348 1.261 . S
C330 O349 1.243 . S
C331 C330 1.503 . S
C331 C332 1.394 . S
C331 C336 1.373 . S
C332 C331 1.394 . S
C332 C333 1.380 . S
C332 H360 0.930 . S
C333 C332 1.380 . S
C333 C334 1.376 . S
C333 H361 0.930 . S
C334 C333 1.376 . S
C334 C335 1.370 . S
C335 C334 1.370 . S
C335 C336 1.396 . S
C335 H362 0.929 . S
C336 C331 1.373 . S
C336 C335 1.396 . S
C336 H363 0.929 . S
C337 O350 1.240 . S
C337 O351 1.289 . S
C338 O352 1.258 . S
C338 O353 1.256 . S
C339 La329 2.928 1_565 S
C339 C340 1.503 . S
C339 O354 1.261 . S
C339 O355 1.243 . S
C340 C339 1.503 . S
C340 C341 1.394 . S
C340 C345 1.373 . S
C341 C340 1.394 . S
C341 C342 1.380 . S
C341 H364 0.930 . S
C342 C341 1.380 . S
C342 C343 1.376 . S
C342 H365 0.930 . S
C343 C342 1.376 . S
C343 C344 1.370 . S
C344 C343 1.370 . S
C344 C345 1.396 . S
C344 H366 0.929 . S
C345 C340 1.373 . S
C345 C344 1.396 . S
C345 H367 0.929 . S
C346 O356 1.240 . S
C346 O357 1.289 . S
C347 O358 1.258 . S
C347 O359 1.256 . S
O348 La328 2.519 1_545 S
O348 C330 1.261 . S
O349 La328 2.607 1_545 S
O349 C330 1.243 . S
O350 La328 2.572 . S
O350 C337 1.240 . S
O351 La328 2.767 . S
O351 La329 2.482 1_564 S
O351 C337 1.289 . S
O352 La328 2.458 1_545 S
O352 C338 1.258 . S
O353 La329 2.503 1_554 S
O353 C338 1.256 . S
O354 La329 2.521 1_565 S
O354 C339 1.261 . S
O355 La329 2.628 1_565 S
O355 C339 1.243 . S
O356 La329 2.554 . S
O356 C346 1.240 . S
O357 La328 2.464 1_546 S
O357 La329 2.757 . S
O357 C346 1.289 . S
O358 La329 2.470 1_565 S
O358 C347 1.258 . S
O359 La328 2.517 1_556 S
O359 C347 1.256 . S
H360 C332 0.930 . S
H361 C333 0.930 . S
H362 C335 0.929 . S
H363 C336 0.929 . S
H364 C341 0.930 . S
H365 C342 0.930 . S
H366 C344 0.929 . S
H367 C345 0.929 . S
La368 C370 2.928 . S
La368 O388 2.521 . S
La368 O389 2.628 . S
La368 O390 2.554 . S
La368 O391 2.757 . S
La368 O392 2.470 . S
La368 O397 2.482 . S
La368 O399 2.503 . S
La369 C379 2.928 . S
La369 O391 2.482 . S
La369 O393 2.503 . S
La369 O394 2.521 . S
La369 O395 2.628 . S
La369 O396 2.554 . S
La369 O397 2.757 . S
La369 O398 2.470 . S
C370 La368 2.928 . S
C370 C371 1.503 . S
C370 O388 1.261 . S
C370 O389 1.243 . S
C371 C370 1.503 . S
C371 C372 1.394 . S
C371 C376 1.373 . S
C372 C371 1.394 . S
C372 C373 1.380 . S
C372 H400 0.930 . S
C373 C372 1.380 . S
C373 C374 1.376 . S
C373 H401 0.930 . S
C374 C373 1.376 . S
C374 C375 1.370 . S
C375 C374 1.370 . S
C375 C376 1.396 . S
C375 H402 0.929 . S
C376 C371 1.373 . S
C376 C375 1.396 . S
C376 H403 0.929 . S
C377 O390 1.240 . S
C377 O391 1.289 . S
C378 O392 1.258 . S
C378 O393 1.256 . S
C379 La369 2.928 . S
C379 C380 1.503 . S
C379 O394 1.261 . S
C379 O395 1.243 . S
C380 C379 1.503 . S
C380 C381 1.394 . S
C380 C385 1.373 . S
C381 C380 1.394 . S
C381 C382 1.380 . S
C381 H404 0.930 . S
C382 C381 1.380 . S
C382 C383 1.376 . S
C382 H405 0.930 . S
C383 C382 1.376 . S
C383 C384 1.370 . S
C384 C383 1.370 . S
C384 C385 1.396 . S
C384 H406 0.929 . S
C385 C380 1.373 . S
C385 C384 1.396 . S
C385 H407 0.929 . S
C386 O396 1.240 . S
C386 O397 1.289 . S
C387 O398 1.258 . S
C387 O399 1.256 . S
O388 La368 2.521 . S
O388 C370 1.261 . S
O389 La368 2.628 . S
O389 C370 1.243 . S
O390 La368 2.554 . S
O390 C377 1.240 . S
O391 La368 2.757 . S
O391 La369 2.482 . S
O391 C377 1.289 . S
O392 La368 2.470 . S
O392 C378 1.258 . S
O393 La369 2.503 . S
O393 C378 1.256 . S
O394 La369 2.521 . S
O394 C379 1.261 . S
O395 La369 2.628 . S
O395 C379 1.243 . S
O396 La369 2.554 . S
O396 C386 1.240 . S
O397 La368 2.482 . S
O397 La369 2.757 . S
O397 C386 1.289 . S
O398 La369 2.470 . S
O398 C387 1.258 . S
O399 La368 2.503 . S
O399 C387 1.256 . S
H400 C372 0.930 . S
H401 C373 0.930 . S
H402 C375 0.929 . S
H403 C376 0.929 . S
H404 C381 0.930 . S
H405 C382 0.930 . S
H406 C384 0.929 . S
H407 C385 0.929 . S
La408 C410 2.928 . S
La408 O428 2.521 . S
La408 O429 2.628 . S
La408 O430 2.554 1_455 S
La408 O431 2.757 1_455 S
La408 O432 2.470 . S
La408 O437 2.482 1_554 S
La408 O439 2.503 1_454 S
La409 C419 2.940 . S
La409 O431 2.486 1_556 S
La409 O433 2.491 1_656 S
La409 O434 2.528 . S
La409 O435 2.641 . S
La409 O436 2.547 1_655 S
La409 O437 2.749 1_655 S
La409 O438 2.478 . S
C410 La408 2.928 . S
C410 C411 1.503 . S
C410 O428 1.261 . S
C410 O429 1.243 . S
C411 C410 1.503 . S
C411 C412 1.394 . S
C411 C416 1.373 . S
C412 C411 1.394 . S
C412 C413 1.380 . S
C412 H440 0.930 . S
C413 C412 1.380 . S
C413 C414 1.376 . S
C413 H441 0.930 . S
C414 C413 1.376 . S
C414 C415 1.370 . S
C415 C414 1.370 . S
C415 C416 1.396 . S
C415 H442 0.929 . S
C416 C411 1.373 . S
C416 C415 1.396 . S
C416 H443 0.929 . S
C417 O430 1.240 . S
C417 O431 1.289 . S
C418 O432 1.258 . S
C418 O433 1.256 . S
C419 La409 2.940 . S
C419 C420 1.503 . S
C419 O434 1.261 . S
C419 O435 1.243 . S
C420 C419 1.503 . S
C420 C421 1.394 . S
C420 C425 1.373 . S
C421 C420 1.394 . S
C421 C422 1.380 . S
C421 H444 0.930 . S
C422 C421 1.380 . S
C422 C423 1.376 . S
C422 H445 0.930 . S
C423 C422 1.376 . S
C423 C424 1.370 . S
C424 C423 1.370 . S
C424 C425 1.396 . S
C424 H446 0.929 . S
C425 C420 1.373 . S
C425 C424 1.396 . S
C425 H447 0.929 . S
C426 O436 1.240 . S
C426 O437 1.289 . S
C427 O438 1.258 . S
C427 O439 1.256 . S
O428 La408 2.521 . S
O428 C410 1.261 . S
O429 La408 2.628 . S
O429 C410 1.243 . S
O430 La408 2.554 1_655 S
O430 C417 1.240 . S
O431 La408 2.757 1_655 S
O431 La409 2.486 1_554 S
O431 C417 1.289 . S
O432 La408 2.470 . S
O432 C418 1.258 . S
O433 La409 2.491 1_454 S
O433 C418 1.256 . S
O434 La409 2.528 . S
O434 C419 1.261 . S
O435 La409 2.641 . S
O435 C419 1.243 . S
O436 La409 2.547 1_455 S
O436 C426 1.240 . S
O437 La408 2.482 1_556 S
O437 La409 2.749 1_455 S
O437 C426 1.289 . S
O438 La409 2.478 . S
O438 C427 1.258 . S
O439 La408 2.503 1_656 S
O439 C427 1.256 . S
H440 C412 0.930 . S
H441 C413 0.930 . S
H442 C415 0.929 . S
H443 C416 0.929 . S
H444 C421 0.930 . S
H445 C422 0.930 . S
H446 C424 0.929 . S
H447 C425 0.929 . S
H448 C460 0.930 . S
H449 C462 0.930 . S
H450 C463 0.930 . S
H451 C467 0.959 . S
H452 C467 0.959 . S
H453 C467 0.961 . S
H454 C468 0.960 . S
H455 C468 0.961 . S
H456 C468 0.959 . S
H457 C471 0.929 . S
H458 C472 0.931 . S
H459 C474 0.930 . S
C460 H448 0.930 . S
C460 C461 1.399 . S
C460 C465 1.399 . S
C461 C460 1.399 . S
C461 C462 1.376 . S
C462 H449 0.930 . S
C462 C461 1.376 . S
C462 C463 1.388 . S
C463 H450 0.930 . S
C463 C462 1.388 . S
C463 C464 1.390 . S
C464 C463 1.390 . S
C464 C465 1.394 . S
C464 C470 1.465 . S
C465 C460 1.399 . S
C465 C464 1.394 . S
C465 C466 1.516 . S
C466 C465 1.516 . S
C466 C467 1.502 . S
C466 C468 1.561 . S
C466 C469 1.526 . S
C467 H451 0.959 . S
C467 H452 0.959 . S
C467 H453 0.961 . S
C467 C466 1.502 . S
C468 H454 0.960 . S
C468 H455 0.961 . S
C468 H456 0.959 . S
C468 C466 1.561 . S
C469 C466 1.526 . S
C469 C470 1.396 . S
C469 C474 1.390 . S
C470 C464 1.465 . S
C470 C469 1.396 . S
C470 C471 1.399 . S
C471 H457 0.929 . S
C471 C470 1.399 . S
C471 C472 1.385 . S
C472 H458 0.931 . S
C472 C471 1.385 . S
C472 C473 1.389 . S
C473 C472 1.389 . S
C473 C474 1.387 . S
C474 H459 0.930 . S
C474 C469 1.390 . S
C474 C473 1.387 . S
H475 C487 0.930 . S
H476 C489 0.930 . S
H477 C490 0.930 . S
H478 C494 0.959 . S
H479 C494 0.959 . S
H480 C494 0.961 . S
H481 C495 0.960 . S
H482 C495 0.961 . S
H483 C495 0.959 . S
H484 C498 0.929 . S
H485 C499 0.931 . S
H486 C501 0.930 . S
C487 H475 0.930 . S
C487 C488 1.399 . S
C487 C492 1.399 . S
C488 C487 1.399 . S
C488 C489 1.376 . S
C489 H476 0.930 . S
C489 C488 1.376 . S
C489 C490 1.388 . S
C490 H477 0.930 . S
C490 C489 1.388 . S
C490 C491 1.390 . S
C491 C490 1.390 . S
C491 C492 1.394 . S
C491 C497 1.465 . S
C492 C487 1.399 . S
C492 C491 1.394 . S
C492 C493 1.516 . S
C493 C492 1.516 . S
C493 C494 1.502 . S
C493 C495 1.561 . S
C493 C496 1.526 . S
C494 H478 0.959 . S
C494 H479 0.959 . S
C494 H480 0.961 . S
C494 C493 1.502 . S
C495 H481 0.960 . S
C495 H482 0.961 . S
C495 H483 0.959 . S
C495 C493 1.561 . S
C496 C493 1.526 . S
C496 C497 1.396 . S
C496 C501 1.390 . S
C497 C491 1.465 . S
C497 C496 1.396 . S
C497 C498 1.399 . S
C498 H484 0.929 . S
C498 C497 1.399 . S
C498 C499 1.385 . S
C499 H485 0.931 . S
C499 C498 1.385 . S
C499 C500 1.389 . S
C500 C499 1.389 . S
C500 C501 1.387 . S
C501 H486 0.930 . S
C501 C496 1.390 . S
C501 C500 1.387 . S
H502 C514 0.930 . S
H503 C516 0.930 . S
H504 C517 0.930 . S
H505 C521 0.959 . S
H506 C521 0.959 . S
H507 C521 0.961 . S
H508 C522 0.960 . S
H509 C522 0.961 . S
H510 C522 0.959 . S
H511 C525 0.929 . S
H512 C526 0.931 . S
H513 C528 0.930 . S
C514 H502 0.930 . S
C514 C515 1.399 . S
C514 C519 1.399 . S
C515 C514 1.399 . S
C515 C516 1.376 . S
C516 H503 0.930 . S
C516 C515 1.376 . S
C516 C517 1.388 . S
C517 H504 0.930 . S
C517 C516 1.388 . S
C517 C518 1.390 . S
C518 C517 1.390 . S
C518 C519 1.394 . S
C518 C524 1.465 . S
C519 C514 1.399 . S
C519 C518 1.394 . S
C519 C520 1.516 . S
C520 C519 1.516 . S
C520 C521 1.502 . S
C520 C522 1.561 . S
C520 C523 1.526 . S
C521 H505 0.959 . S
C521 H506 0.959 . S
C521 H507 0.961 . S
C521 C520 1.502 . S
C522 H508 0.960 . S
C522 H509 0.961 . S
C522 H510 0.959 . S
C522 C520 1.561 . S
C523 C520 1.526 . S
C523 C524 1.396 . S
C523 C528 1.390 . S
C524 C518 1.465 . S
C524 C523 1.396 . S
C524 C525 1.399 . S
C525 H511 0.929 . S
C525 C524 1.399 . S
C525 C526 1.385 . S
C526 H512 0.931 . S
C526 C525 1.385 . S
C526 C527 1.389 . S
C527 C526 1.389 . S
C527 C528 1.387 . S
C528 H513 0.930 . S
C528 C523 1.390 . S
C528 C527 1.387 . S
H529 C541 0.930 . S
H530 C543 0.930 . S
H531 C544 0.930 . S
H532 C548 0.959 . S
H533 C548 0.959 . S
H534 C548 0.961 . S
H535 C549 0.960 . S
H536 C549 0.961 . S
H537 C549 0.959 . S
H538 C552 0.929 . S
H539 C553 0.931 . S
H540 C555 0.930 . S
C541 H529 0.930 . S
C541 C542 1.399 . S
C541 C546 1.399 . S
C542 C541 1.399 . S
C542 C543 1.376 . S
C543 H530 0.930 . S
C543 C542 1.376 . S
C543 C544 1.388 . S
C544 H531 0.930 . S
C544 C543 1.388 . S
C544 C545 1.390 . S
C545 C544 1.390 . S
C545 C546 1.394 . S
C545 C551 1.465 . S
C546 C541 1.399 . S
C546 C545 1.394 . S
C546 C547 1.516 . S
C547 C546 1.516 . S
C547 C548 1.502 . S
C547 C549 1.561 . S
C547 C550 1.526 . S
C548 H532 0.959 . S
C548 H533 0.959 . S
C548 H534 0.961 . S
C548 C547 1.502 . S
C549 H535 0.960 . S
C549 H536 0.961 . S
C549 H537 0.959 . S
C549 C547 1.561 . S
C550 C547 1.526 . S
C550 C551 1.396 . S
C550 C555 1.390 . S
C551 C545 1.465 . S
C551 C550 1.396 . S
C551 C552 1.399 . S
C552 H538 0.929 . S
C552 C551 1.399 . S
C552 C553 1.385 . S
C553 H539 0.931 . S
C553 C552 1.385 . S
C553 C554 1.389 . S
C554 C553 1.389 . S
C554 C555 1.387 . S
C555 H540 0.930 . S
C555 C550 1.390 . S
C555 C554 1.387 . S
H556 C568 0.930 . S
H557 C570 0.930 . S
H558 C571 0.930 . S
H559 C575 0.959 . S
H560 C575 0.959 . S
H561 C575 0.961 . S
H562 C576 0.960 . S
H563 C576 0.961 . S
H564 C576 0.959 . S
H565 C579 0.929 . S
H566 C580 0.931 . S
H567 C582 0.930 . S
C568 H556 0.930 . S
C568 C569 1.399 . S
C568 C573 1.399 . S
C569 C568 1.399 . S
C569 C570 1.376 . S
C570 H557 0.930 . S
C570 C569 1.376 . S
C570 C571 1.388 . S
C571 H558 0.930 . S
C571 C570 1.388 . S
C571 C572 1.390 . S
C572 C571 1.390 . S
C572 C573 1.394 . S
C572 C578 1.465 . S
C573 C568 1.399 . S
C573 C572 1.394 . S
C573 C574 1.516 . S
C574 C573 1.516 . S
C574 C575 1.502 . S
C574 C576 1.561 . S
C574 C577 1.526 . S
C575 H559 0.959 . S
C575 H560 0.959 . S
C575 H561 0.961 . S
C575 C574 1.502 . S
C576 H562 0.960 . S
C576 H563 0.961 . S
C576 H564 0.959 . S
C576 C574 1.561 . S
C577 C574 1.526 . S
C577 C578 1.396 . S
C577 C582 1.390 . S
C578 C572 1.465 . S
C578 C577 1.396 . S
C578 C579 1.399 . S
C579 H565 0.929 . S
C579 C578 1.399 . S
C579 C580 1.385 . S
C580 H566 0.931 . S
C580 C579 1.385 . S
C580 C581 1.389 . S
C581 C580 1.389 . S
C581 C582 1.387 . S
C582 H567 0.930 . S
C582 C577 1.390 . S
C582 C581 1.387 . S
H583 C595 0.930 . S
H584 C597 0.930 . S
H585 C598 0.930 . S
H586 C602 0.959 . S
H587 C602 0.959 . S
H588 C602 0.961 . S
H589 C603 0.960 . S
H590 C603 0.961 . S
H591 C603 0.959 . S
H592 C606 0.929 . S
H593 C607 0.931 . S
H594 C609 0.930 . S
C595 H583 0.930 . S
C595 C596 1.399 . S
C595 C600 1.399 . S
C596 C595 1.399 . S
C596 C597 1.376 . S
C597 H584 0.930 . S
C597 C596 1.376 . S
C597 C598 1.388 . S
C598 H585 0.930 . S
C598 C597 1.388 . S
C598 C599 1.390 . S
C599 C598 1.390 . S
C599 C600 1.394 . S
C599 C605 1.465 . S
C600 C595 1.399 . S
C600 C599 1.394 . S
C600 C601 1.516 . S
C601 C600 1.516 . S
C601 C602 1.502 . S
C601 C603 1.561 . S
C601 C604 1.526 . S
C602 H586 0.959 . S
C602 H587 0.959 . S
C602 H588 0.961 . S
C602 C601 1.502 . S
C603 H589 0.960 . S
C603 H590 0.961 . S
C603 H591 0.959 . S
C603 C601 1.561 . S
C604 C601 1.526 . S
C604 C605 1.396 . S
C604 C609 1.390 . S
C605 C599 1.465 . S
C605 C604 1.396 . S
C605 C606 1.399 . S
C606 H592 0.929 . S
C606 C605 1.399 . S
C606 C607 1.385 . S
C607 H593 0.931 . S
C607 C606 1.385 . S
C607 C608 1.389 . S
C608 C607 1.389 . S
C608 C609 1.387 . S
C609 H594 0.930 . S
C609 C604 1.390 . S
C609 C608 1.387 . S
H610 C622 0.930 . S
H611 C624 0.930 . S
H612 C625 0.930 . S
H613 C629 0.959 . S
H614 C629 0.959 . S
H615 C629 0.961 . S
H616 C630 0.960 . S
H617 C630 0.961 . S
H618 C630 0.959 . S
H619 C633 0.929 . S
H620 C634 0.931 . S
H621 C636 0.930 . S
C622 H610 0.930 . S
C622 C623 1.399 . S
C622 C627 1.399 . S
C623 C622 1.399 . S
C623 C624 1.376 . S
C624 H611 0.930 . S
C624 C623 1.376 . S
C624 C625 1.388 . S
C625 H612 0.930 . S
C625 C624 1.388 . S
C625 C626 1.390 . S
C626 C625 1.390 . S
C626 C627 1.394 . S
C626 C632 1.465 . S
C627 C622 1.399 . S
C627 C626 1.394 . S
C627 C628 1.516 . S
C628 C627 1.516 . S
C628 C629 1.502 . S
C628 C630 1.561 . S
C628 C631 1.526 . S
C629 H613 0.959 . S
C629 H614 0.959 . S
C629 H615 0.961 . S
C629 C628 1.502 . S
C630 H616 0.960 . S
C630 H617 0.961 . S
C630 H618 0.959 . S
C630 C628 1.561 . S
C631 C628 1.526 . S
C631 C632 1.396 . S
C631 C636 1.390 . S
C632 C626 1.465 . S
C632 C631 1.396 . S
C632 C633 1.399 . S
C633 H619 0.929 . S
C633 C632 1.399 . S
C633 C634 1.385 . S
C634 H620 0.931 . S
C634 C633 1.385 . S
C634 C635 1.389 . S
C635 C634 1.389 . S
C635 C636 1.387 . S
C636 H621 0.930 . S
C636 C631 1.390 . S
C636 C635 1.387 . S
H637 C649 0.930 . S
H638 C651 0.930 . S
H639 C652 0.930 . S
H640 C656 0.959 . S
H641 C656 0.959 . S
H642 C656 0.961 . S
H643 C657 0.960 . S
H644 C657 0.961 . S
H645 C657 0.959 . S
H646 C660 0.929 . S
H647 C661 0.931 . S
H648 C663 0.930 . S
C649 H637 0.930 . S
C649 C650 1.399 . S
C649 C654 1.399 . S
C650 C649 1.399 . S
C650 C651 1.376 . S
C651 H638 0.930 . S
C651 C650 1.376 . S
C651 C652 1.388 . S
C652 H639 0.930 . S
C652 C651 1.388 . S
C652 C653 1.390 . S
C653 C652 1.390 . S
C653 C654 1.394 . S
C653 C659 1.465 . S
C654 C649 1.399 . S
C654 C653 1.394 . S
C654 C655 1.516 . S
C655 C654 1.516 . S
C655 C656 1.502 . S
C655 C657 1.561 . S
C655 C658 1.526 . S
C656 H640 0.959 . S
C656 H641 0.959 . S
C656 H642 0.961 . S
C656 C655 1.502 . S
C657 H643 0.960 . S
C657 H644 0.961 . S
C657 H645 0.959 . S
C657 C655 1.561 . S
C658 C655 1.526 . S
C658 C659 1.396 . S
C658 C663 1.390 . S
C659 C653 1.465 . S
C659 C658 1.396 . S
C659 C660 1.399 . S
C660 H646 0.929 . S
C660 C659 1.399 . S
C660 C661 1.385 . S
C661 H647 0.931 . S
C661 C660 1.385 . S
C661 C662 1.389 . S
C662 C661 1.389 . S
C662 C663 1.387 . S
C663 H648 0.930 . S
C663 C658 1.390 . S
C663 C662 1.387 . S
H664 C676 0.930 . S
H665 C678 0.930 . S
H666 C679 0.930 . S
H667 C683 0.959 . S
H668 C683 0.959 . S
H669 C683 0.961 . S
H670 C684 0.960 . S
H671 C684 0.961 . S
H672 C684 0.959 . S
H673 C687 0.929 . S
H674 C688 0.931 . S
H675 C690 0.930 . S
C676 H664 0.930 . S
C676 C677 1.399 . S
C676 C681 1.399 . S
C677 C676 1.399 . S
C677 C678 1.376 . S
C678 H665 0.930 . S
C678 C677 1.376 . S
C678 C679 1.388 . S
C679 H666 0.930 . S
C679 C678 1.388 . S
C679 C680 1.390 . S
C680 C679 1.390 . S
C680 C681 1.394 . S
C680 C686 1.465 . S
C681 C676 1.399 . S
C681 C680 1.394 . S
C681 C682 1.516 . S
C682 C681 1.516 . S
C682 C683 1.502 . S
C682 C684 1.561 . S
C682 C685 1.526 . S
C683 H667 0.959 . S
C683 H668 0.959 . S
C683 H669 0.961 . S
C683 C682 1.502 . S
C684 H670 0.960 . S
C684 H671 0.961 . S
C684 H672 0.959 . S
C684 C682 1.561 . S
C685 C682 1.526 . S
C685 C686 1.396 . S
C685 C690 1.390 . S
C686 C680 1.465 . S
C686 C685 1.396 . S
C686 C687 1.399 . S
C687 H673 0.929 . S
C687 C686 1.399 . S
C687 C688 1.385 . S
C688 H674 0.931 . S
C688 C687 1.385 . S
C688 C689 1.389 . S
C689 C688 1.389 . S
C689 C690 1.387 . S
C690 H675 0.930 . S
C690 C685 1.390 . S
C690 C689 1.387 . S
H691 C703 0.930 . S
H692 C705 0.930 . S
H693 C706 0.930 . S
H694 C710 0.959 . S
H695 C710 0.959 . S
H696 C710 0.961 . S
H697 C711 0.960 . S
H698 C711 0.961 . S
H699 C711 0.959 . S
H700 C714 0.929 . S
H701 C715 0.931 . S
H702 C717 0.930 . S
C703 H691 0.930 . S
C703 C704 1.399 . S
C703 C708 1.399 . S
C704 C703 1.399 . S
C704 C705 1.376 . S
C705 H692 0.930 . S
C705 C704 1.376 . S
C705 C706 1.388 . S
C706 H693 0.930 . S
C706 C705 1.388 . S
C706 C707 1.390 . S
C707 C706 1.390 . S
C707 C708 1.394 . S
C707 C713 1.465 . S
C708 C703 1.399 . S
C708 C707 1.394 . S
C708 C709 1.516 . S
C709 C708 1.516 . S
C709 C710 1.502 . S
C709 C711 1.561 . S
C709 C712 1.526 . S
C710 H694 0.959 . S
C710 H695 0.959 . S
C710 H696 0.961 . S
C710 C709 1.502 . S
C711 H697 0.960 . S
C711 H698 0.961 . S
C711 H699 0.959 . S
C711 C709 1.561 . S
C712 C709 1.526 . S
C712 C713 1.396 . S
C712 C717 1.390 . S
C713 C707 1.465 . S
C713 C712 1.396 . S
C713 C714 1.399 . S
C714 H700 0.929 . S
C714 C713 1.399 . S
C714 C715 1.385 . S
C715 H701 0.931 . S
C715 C714 1.385 . S
C715 C716 1.389 . S
C716 C715 1.389 . S
C716 C717 1.387 . S
C717 H702 0.930 . S
C717 C712 1.390 . S
C717 C716 1.387 . S
H718 C730 0.930 . S
H719 C732 0.930 . S
H720 C733 0.930 . S
H721 C737 0.959 . S
H722 C737 0.959 . S
H723 C737 0.961 . S
H724 C738 0.960 . S
H725 C738 0.961 . S
H726 C738 0.959 . S
H727 C741 0.929 . S
H728 C742 0.931 . S
H729 C744 0.930 . S
C730 H718 0.930 . S
C730 C731 1.399 . S
C730 C735 1.399 . S
C731 C730 1.399 . S
C731 C732 1.376 . S
C732 H719 0.930 . S
C732 C731 1.376 . S
C732 C733 1.388 . S
C733 H720 0.930 . S
C733 C732 1.388 . S
C733 C734 1.390 . S
C734 C733 1.390 . S
C734 C735 1.394 . S
C734 C740 1.465 . S
C735 C730 1.399 . S
C735 C734 1.394 . S
C735 C736 1.516 . S
C736 C735 1.516 . S
C736 C737 1.502 . S
C736 C738 1.561 . S
C736 C739 1.526 . S
C737 H721 0.959 . S
C737 H722 0.959 . S
C737 H723 0.961 . S
C737 C736 1.502 . S
C738 H724 0.960 . S
C738 H725 0.961 . S
C738 H726 0.959 . S
C738 C736 1.561 . S
C739 C736 1.526 . S
C739 C740 1.396 . S
C739 C744 1.390 . S
C740 C734 1.465 . S
C740 C739 1.396 . S
C740 C741 1.399 . S
C741 H727 0.929 . S
C741 C740 1.399 . S
C741 C742 1.385 . S
C742 H728 0.931 . S
C742 C741 1.385 . S
C742 C743 1.389 . S
C743 C742 1.389 . S
C743 C744 1.387 . S
C744 H729 0.930 . S
C744 C739 1.390 . S
C744 C743 1.387 . S
H745 C757 0.930 . S
H746 C759 0.930 . S
H747 C760 0.930 . S
H748 C764 0.959 . S
H749 C764 0.959 . S
H750 C764 0.961 . S
H751 C765 0.960 . S
H752 C765 0.961 . S
H753 C765 0.959 . S
H754 C768 0.929 . S
H755 C769 0.931 . S
H756 C771 0.930 . S
C757 H745 0.930 . S
C757 C758 1.399 . S
C757 C762 1.399 . S
C758 C757 1.399 . S
C758 C759 1.376 . S
C759 H746 0.930 . S
C759 C758 1.376 . S
C759 C760 1.388 . S
C760 H747 0.930 . S
C760 C759 1.388 . S
C760 C761 1.390 . S
C761 C760 1.390 . S
C761 C762 1.394 . S
C761 C767 1.465 . S
C762 C757 1.399 . S
C762 C761 1.394 . S
C762 C763 1.516 . S
C763 C762 1.516 . S
C763 C764 1.502 . S
C763 C765 1.561 . S
C763 C766 1.526 . S
C764 H748 0.959 . S
C764 H749 0.959 . S
C764 H750 0.961 . S
C764 C763 1.502 . S
C765 H751 0.960 . S
C765 H752 0.961 . S
C765 H753 0.959 . S
C765 C763 1.561 . S
C766 C763 1.526 . S
C766 C767 1.396 . S
C766 C771 1.390 . S
C767 C761 1.465 . S
C767 C766 1.396 . S
C767 C768 1.399 . S
C768 H754 0.929 . S
C768 C767 1.399 . S
C768 C769 1.385 . S
C769 H755 0.931 . S
C769 C768 1.385 . S
C769 C770 1.389 . S
C770 C769 1.389 . S
C770 C771 1.387 . S
C771 H756 0.930 . S
C771 C766 1.390 . S
C771 C770 1.387 . S
H772 C784 0.930 . S
H773 C786 0.930 . S
H774 C787 0.930 . S
H775 C791 0.959 . S
H776 C791 0.959 . S
H777 C791 0.961 . S
H778 C792 0.960 . S
H779 C792 0.961 . S
H780 C792 0.959 . S
H781 C795 0.929 . S
H782 C796 0.931 . S
H783 C798 0.930 . S
C784 H772 0.930 . S
C784 C785 1.399 . S
C784 C789 1.399 . S
C785 C784 1.399 . S
C785 C786 1.376 . S
C786 H773 0.930 . S
C786 C785 1.376 . S
C786 C787 1.388 . S
C787 H774 0.930 . S
C787 C786 1.388 . S
C787 C788 1.390 . S
C788 C787 1.390 . S
C788 C789 1.394 . S
C788 C794 1.465 . S
C789 C784 1.399 . S
C789 C788 1.394 . S
C789 C790 1.516 . S
C790 C789 1.516 . S
C790 C791 1.502 . S
C790 C792 1.561 . S
C790 C793 1.526 . S
C791 H775 0.959 . S
C791 H776 0.959 . S
C791 H777 0.961 . S
C791 C790 1.502 . S
C792 H778 0.960 . S
C792 H779 0.961 . S
C792 H780 0.959 . S
C792 C790 1.561 . S
C793 C790 1.526 . S
C793 C794 1.396 . S
C793 C798 1.390 . S
C794 C788 1.465 . S
C794 C793 1.396 . S
C794 C795 1.399 . S
C795 H781 0.929 . S
C795 C794 1.399 . S
C795 C796 1.385 . S
C796 H782 0.931 . S
C796 C795 1.385 . S
C796 C797 1.389 . S
C797 C796 1.389 . S
C797 C798 1.387 . S
C798 H783 0.930 . S
C798 C793 1.390 . S
C798 C797 1.387 . S
H799 C811 0.930 . S
H800 C813 0.930 . S
H801 C814 0.930 . S
H802 C818 0.959 . S
H803 C818 0.959 . S
H804 C818 0.961 . S
H805 C819 0.960 . S
H806 C819 0.961 . S
H807 C819 0.959 . S
H808 C822 0.929 . S
H809 C823 0.931 . S
H810 C825 0.930 . S
C811 H799 0.930 . S
C811 C812 1.399 . S
C811 C816 1.399 . S
C812 C811 1.399 . S
C812 C813 1.376 . S
C813 H800 0.930 . S
C813 C812 1.376 . S
C813 C814 1.388 . S
C814 H801 0.930 . S
C814 C813 1.388 . S
C814 C815 1.390 . S
C815 C814 1.390 . S
C815 C816 1.394 . S
C815 C821 1.465 . S
C816 C811 1.399 . S
C816 C815 1.394 . S
C816 C817 1.516 . S
C817 C816 1.516 . S
C817 C818 1.502 . S
C817 C819 1.561 . S
C817 C820 1.526 . S
C818 H802 0.959 . S
C818 H803 0.959 . S
C818 H804 0.961 . S
C818 C817 1.502 . S
C819 H805 0.960 . S
C819 H806 0.961 . S
C819 H807 0.959 . S
C819 C817 1.561 . S
C820 C817 1.526 . S
C820 C821 1.396 . S
C820 C825 1.390 . S
C821 C815 1.465 . S
C821 C820 1.396 . S
C821 C822 1.399 . S
C822 H808 0.929 . S
C822 C821 1.399 . S
C822 C823 1.385 . S
C823 H809 0.931 . S
C823 C822 1.385 . S
C823 C824 1.389 . S
C824 C823 1.389 . S
C824 C825 1.387 . S
C825 H810 0.930 . S
C825 C820 1.390 . S
C825 C824 1.387 . S
H826 C838 0.930 . S
H827 C840 0.930 . S
H828 C841 0.930 . S
H829 C845 0.959 . S
H830 C845 0.959 . S
H831 C845 0.961 . S
H832 C846 0.960 . S
H833 C846 0.961 . S
H834 C846 0.959 . S
H835 C849 0.929 . S
H836 C850 0.931 . S
H837 C852 0.930 . S
C838 H826 0.930 . S
C838 C839 1.399 . S
C838 C843 1.399 . S
C839 C838 1.399 . S
C839 C840 1.376 . S
C840 H827 0.930 . S
C840 C839 1.376 . S
C840 C841 1.388 . S
C841 H828 0.930 . S
C841 C840 1.388 . S
C841 C842 1.390 . S
C842 C841 1.390 . S
C842 C843 1.394 . S
C842 C848 1.465 . S
C843 C838 1.399 . S
C843 C842 1.394 . S
C843 C844 1.516 . S
C844 C843 1.516 . S
C844 C845 1.502 . S
C844 C846 1.561 . S
C844 C847 1.526 . S
C845 H829 0.959 . S
C845 H830 0.959 . S
C845 H831 0.961 . S
C845 C844 1.502 . S
C846 H832 0.960 . S
C846 H833 0.961 . S
C846 H834 0.959 . S
C846 C844 1.561 . S
C847 C844 1.526 . S
C847 C848 1.396 . S
C847 C852 1.390 . S
C848 C842 1.465 . S
C848 C847 1.396 . S
C848 C849 1.399 . S
C849 H835 0.929 . S
C849 C848 1.399 . S
C849 C850 1.385 . S
C850 H836 0.931 . S
C850 C849 1.385 . S
C850 C851 1.389 . S
C851 C850 1.389 . S
C851 C852 1.387 . S
C852 H837 0.930 . S
C852 C847 1.390 . S
C852 C851 1.387 . S
H853 C865 0.930 . S
H854 C867 0.930 . S
H855 C868 0.930 . S
H856 C872 0.959 . S
H857 C872 0.959 . S
H858 C872 0.961 . S
H859 C873 0.960 . S
H860 C873 0.961 . S
H861 C873 0.959 . S
H862 C876 0.929 . S
H863 C877 0.931 . S
H864 C879 0.930 . S
C865 H853 0.930 . S
C865 C866 1.399 . S
C865 C870 1.399 . S
C866 C865 1.399 . S
C866 C867 1.376 . S
C867 H854 0.930 . S
C867 C866 1.376 . S
C867 C868 1.388 . S
C868 H855 0.930 . S
C868 C867 1.388 . S
C868 C869 1.390 . S
C869 C868 1.390 . S
C869 C870 1.394 . S
C869 C875 1.465 . S
C870 C865 1.399 . S
C870 C869 1.394 . S
C870 C871 1.516 . S
C871 C870 1.516 . S
C871 C872 1.502 . S
C871 C873 1.561 . S
C871 C874 1.526 . S
C872 H856 0.959 . S
C872 H857 0.959 . S
C872 H858 0.961 . S
C872 C871 1.502 . S
C873 H859 0.960 . S
C873 H860 0.961 . S
C873 H861 0.959 . S
C873 C871 1.561 . S
C874 C871 1.526 . S
C874 C875 1.396 . S
C874 C879 1.390 . S
C875 C869 1.465 . S
C875 C874 1.396 . S
C875 C876 1.399 . S
C876 H862 0.929 . S
C876 C875 1.399 . S
C876 C877 1.385 . S
C877 H863 0.931 . S
C877 C876 1.385 . S
C877 C878 1.389 . S
C878 C877 1.389 . S
C878 C879 1.387 . S
C879 H864 0.930 . S
C879 C874 1.390 . S
C879 C878 1.387 . S
H880 C892 0.930 . S
H881 C894 0.930 . S
H882 C895 0.930 . S
H883 C899 0.959 . S
H884 C899 0.959 . S
H885 C899 0.961 . S
H886 C900 0.960 . S
H887 C900 0.961 . S
H888 C900 0.959 . S
H889 C903 0.929 . S
H890 C904 0.931 . S
H891 C906 0.930 . S
C892 H880 0.930 . S
C892 C893 1.399 . S
C892 C897 1.399 . S
C893 C892 1.399 . S
C893 C894 1.376 . S
C894 H881 0.930 . S
C894 C893 1.376 . S
C894 C895 1.388 . S
C895 H882 0.930 . S
C895 C894 1.388 . S
C895 C896 1.390 . S
C896 C895 1.390 . S
C896 C897 1.394 . S
C896 C902 1.465 . S
C897 C892 1.399 . S
C897 C896 1.394 . S
C897 C898 1.516 . S
C898 C897 1.516 . S
C898 C899 1.502 . S
C898 C900 1.561 . S
C898 C901 1.526 . S
C899 H883 0.959 . S
C899 H884 0.959 . S
C899 H885 0.961 . S
C899 C898 1.502 . S
C900 H886 0.960 . S
C900 H887 0.961 . S
C900 H888 0.959 . S
C900 C898 1.561 . S
C901 C898 1.526 . S
C901 C902 1.396 . S
C901 C906 1.390 . S
C902 C896 1.465 . S
C902 C901 1.396 . S
C902 C903 1.399 . S
C903 H889 0.929 . S
C903 C902 1.399 . S
C903 C904 1.385 . S
C904 H890 0.931 . S
C904 C903 1.385 . S
C904 C905 1.389 . S
C905 C904 1.389 . S
C905 C906 1.387 . S
C906 H891 0.930 . S
C906 C901 1.390 . S
C906 C905 1.387 . S
H907 C919 0.930 . S
H908 C921 0.930 . S
H909 C922 0.930 . S
H910 C926 0.959 . S
H911 C926 0.959 . S
H912 C926 0.961 . S
H913 C927 0.960 . S
H914 C927 0.961 . S
H915 C927 0.959 . S
H916 C930 0.929 . S
H917 C931 0.931 . S
H918 C933 0.930 . S
C919 H907 0.930 . S
C919 C920 1.399 . S
C919 C924 1.399 . S
C920 C919 1.399 . S
C920 C921 1.376 . S
C921 H908 0.930 . S
C921 C920 1.376 . S
C921 C922 1.388 . S
C922 H909 0.930 . S
C922 C921 1.388 . S
C922 C923 1.390 . S
C923 C922 1.390 . S
C923 C924 1.394 . S
C923 C929 1.465 . S
C924 C919 1.399 . S
C924 C923 1.394 . S
C924 C925 1.516 . S
C925 C924 1.516 . S
C925 C926 1.502 . S
C925 C927 1.561 . S
C925 C928 1.526 . S
C926 H910 0.959 . S
C926 H911 0.959 . S
C926 H912 0.961 . S
C926 C925 1.502 . S
C927 H913 0.960 . S
C927 H914 0.961 . S
C927 H915 0.959 . S
C927 C925 1.561 . S
C928 C925 1.526 . S
C928 C929 1.396 . S
C928 C933 1.390 . S
C929 C923 1.465 . S
C929 C928 1.396 . S
C929 C930 1.399 . S
C930 H916 0.929 . S
C930 C929 1.399 . S
C930 C931 1.385 . S
C931 H917 0.931 . S
C931 C930 1.385 . S
C931 C932 1.389 . S
C932 C931 1.389 . S
C932 C933 1.387 . S
C933 H918 0.930 . S
C933 C928 1.390 . S
C933 C932 1.387 . S
H934 C946 0.930 . S
H935 C948 0.930 . S
H936 C949 0.930 . S
H937 C953 0.959 . S
H938 C953 0.959 . S
H939 C953 0.961 . S
H940 C954 0.960 . S
H941 C954 0.961 . S
H942 C954 0.959 . S
H943 C957 0.929 . S
H944 C958 0.931 . S
H945 C960 0.930 . S
C946 H934 0.930 . S
C946 C947 1.399 . S
C946 C951 1.399 . S
C947 C946 1.399 . S
C947 C948 1.376 . S
C948 H935 0.930 . S
C948 C947 1.376 . S
C948 C949 1.388 . S
C949 H936 0.930 . S
C949 C948 1.388 . S
C949 C950 1.390 . S
C950 C949 1.390 . S
C950 C951 1.394 . S
C950 C956 1.465 . S
C951 C946 1.399 . S
C951 C950 1.394 . S
C951 C952 1.516 . S
C952 C951 1.516 . S
C952 C953 1.502 . S
C952 C954 1.561 . S
C952 C955 1.526 . S
C953 H937 0.959 . S
C953 H938 0.959 . S
C953 H939 0.961 . S
C953 C952 1.502 . S
C954 H940 0.960 . S
C954 H941 0.961 . S
C954 H942 0.959 . S
C954 C952 1.561 . S
C955 C952 1.526 . S
C955 C956 1.396 . S
C955 C960 1.390 . S
C956 C950 1.465 . S
C956 C955 1.396 . S
C956 C957 1.399 . S
C957 H943 0.929 . S
C957 C956 1.399 . S
C957 C958 1.385 . S
C958 H944 0.931 . S
C958 C957 1.385 . S
C958 C959 1.389 . S
C959 C958 1.389 . S
C959 C960 1.387 . S
C960 H945 0.930 . S
C960 C955 1.390 . S
C960 C959 1.387 . S
H961 C973 0.930 . S
H962 C975 0.930 . S
H963 C976 0.930 . S
H964 C980 0.959 . S
H965 C980 0.959 . S
H966 C980 0.961 . S
H967 C981 0.960 . S
H968 C981 0.961 . S
H969 C981 0.959 . S
H970 C984 0.929 . S
H971 C985 0.931 . S
H972 C987 0.930 . S
C973 H961 0.930 . S
C973 C974 1.399 . S
C973 C978 1.399 . S
C974 C973 1.399 . S
C974 C975 1.376 . S
C975 H962 0.930 . S
C975 C974 1.376 . S
C975 C976 1.388 . S
C976 H963 0.930 . S
C976 C975 1.388 . S
C976 C977 1.390 . S
C977 C976 1.390 . S
C977 C978 1.394 . S
C977 C983 1.465 . S
C978 C973 1.399 . S
C978 C977 1.394 . S
C978 C979 1.516 . S
C979 C978 1.516 . S
C979 C980 1.502 . S
C979 C981 1.561 . S
C979 C982 1.526 . S
C980 H964 0.959 . S
C980 H965 0.959 . S
C980 H966 0.961 . S
C980 C979 1.502 . S
C981 H967 0.960 . S
C981 H968 0.961 . S
C981 H969 0.959 . S
C981 C979 1.561 . S
C982 C979 1.526 . S
C982 C983 1.396 . S
C982 C987 1.390 . S
C983 C977 1.465 . S
C983 C982 1.396 . S
C983 C984 1.399 . S
C984 H970 0.929 . S
C984 C983 1.399 . S
C984 C985 1.385 . S
C985 H971 0.931 . S
C985 C984 1.385 . S
C985 C986 1.389 . S
C986 C985 1.389 . S
C986 C987 1.387 . S
C987 H972 0.930 . S
C987 C982 1.390 . S
C987 C986 1.387 . S
H988 C1000 0.930 . S
H989 C1002 0.930 . S
H990 C1003 0.930 . S
H991 C1007 0.959 . S
H992 C1007 0.959 . S
H993 C1007 0.961 . S
H994 C1008 0.960 . S
H995 C1008 0.961 . S
H996 C1008 0.959 . S
H997 C1011 0.929 . S
H998 C1012 0.931 . S
H999 C1014 0.930 . S
C1000 H988 0.930 . S
C1000 C1001 1.399 . S
C1000 C1005 1.399 . S
C1001 C1000 1.399 . S
C1001 C1002 1.376 . S
C1002 H989 0.930 . S
C1002 C1001 1.376 . S
C1002 C1003 1.388 . S
C1003 H990 0.930 . S
C1003 C1002 1.388 . S
C1003 C1004 1.390 . S
C1004 C1003 1.390 . S
C1004 C1005 1.394 . S
C1004 C1010 1.465 . S
C1005 C1000 1.399 . S
C1005 C1004 1.394 . S
C1005 C1006 1.516 . S
C1006 C1005 1.516 . S
C1006 C1007 1.502 . S
C1006 C1008 1.561 . S
C1006 C1009 1.526 . S
C1007 H991 0.959 . S
C1007 H992 0.959 . S
C1007 H993 0.961 . S
C1007 C1006 1.502 . S
C1008 H994 0.960 . S
C1008 H995 0.961 . S
C1008 H996 0.959 . S
C1008 C1006 1.561 . S
C1009 C1006 1.526 . S
C1009 C1010 1.396 . S
C1009 C1014 1.390 . S
C1010 C1004 1.465 . S
C1010 C1009 1.396 . S
C1010 C1011 1.399 . S
C1011 H997 0.929 . S
C1011 C1010 1.399 . S
C1011 C1012 1.385 . S
C1012 H998 0.931 . S
C1012 C1011 1.385 . S
C1012 C1013 1.389 . S
C1013 C1012 1.389 . S
C1013 C1014 1.387 . S
C1014 H999 0.930 . S
C1014 C1009 1.390 . S
C1014 C1013 1.387 . S
H1015 C1027 0.930 . S
H1016 C1029 0.930 . S
H1017 C1030 0.930 . S
H1018 C1034 0.959 . S
H1019 C1034 0.959 . S
H1020 C1034 0.961 . S
H1021 C1035 0.960 . S
H1022 C1035 0.961 . S
H1023 C1035 0.959 . S
H1024 C1038 0.929 . S
H1025 C1039 0.931 . S
H1026 C1041 0.930 . S
C1027 H1015 0.930 . S
C1027 C1028 1.399 . S
C1027 C1032 1.399 . S
C1028 C1027 1.399 . S
C1028 C1029 1.376 . S
C1029 H1016 0.930 . S
C1029 C1028 1.376 . S
C1029 C1030 1.388 . S
C1030 H1017 0.930 . S
C1030 C1029 1.388 . S
C1030 C1031 1.390 . S
C1031 C1030 1.390 . S
C1031 C1032 1.394 . S
C1031 C1037 1.465 . S
C1032 C1027 1.399 . S
C1032 C1031 1.394 . S
C1032 C1033 1.516 . S
C1033 C1032 1.516 . S
C1033 C1034 1.502 . S
C1033 C1035 1.561 . S
C1033 C1036 1.526 . S
C1034 H1018 0.959 . S
C1034 H1019 0.959 . S
C1034 H1020 0.961 . S
C1034 C1033 1.502 . S
C1035 H1021 0.960 . S
C1035 H1022 0.961 . S
C1035 H1023 0.959 . S
C1035 C1033 1.561 . S
C1036 C1033 1.526 . S
C1036 C1037 1.396 . S
C1036 C1041 1.390 . S
C1037 C1031 1.465 . S
C1037 C1036 1.396 . S
C1037 C1038 1.399 . S
C1038 H1024 0.929 . S
C1038 C1037 1.399 . S
C1038 C1039 1.385 . S
C1039 H1025 0.931 . S
C1039 C1038 1.385 . S
C1039 C1040 1.389 . S
C1040 C1039 1.389 . S
C1040 C1041 1.387 . S
C1041 H1026 0.930 . S
C1041 C1036 1.390 . S
C1041 C1040 1.387 . S
H1042 C1054 0.930 . S
H1043 C1056 0.930 . S
H1044 C1057 0.930 . S
H1045 C1061 0.959 . S
H1046 C1061 0.959 . S
H1047 C1061 0.961 . S
H1048 C1062 0.960 . S
H1049 C1062 0.961 . S
H1050 C1062 0.959 . S
H1051 C1065 0.929 . S
H1052 C1066 0.931 . S
H1053 C1068 0.930 . S
C1054 H1042 0.930 . S
C1054 C1055 1.399 . S
C1054 C1059 1.399 . S
C1055 C1054 1.399 . S
C1055 C1056 1.376 . S
C1056 H1043 0.930 . S
C1056 C1055 1.376 . S
C1056 C1057 1.388 . S
C1057 H1044 0.930 . S
C1057 C1056 1.388 . S
C1057 C1058 1.390 . S
C1058 C1057 1.390 . S
C1058 C1059 1.394 . S
C1058 C1064 1.465 . S
C1059 C1054 1.399 . S
C1059 C1058 1.394 . S
C1059 C1060 1.516 . S
C1060 C1059 1.516 . S
C1060 C1061 1.502 . S
C1060 C1062 1.561 . S
C1060 C1063 1.526 . S
C1061 H1045 0.959 . S
C1061 H1046 0.959 . S
C1061 H1047 0.961 . S
C1061 C1060 1.502 . S
C1062 H1048 0.960 . S
C1062 H1049 0.961 . S
C1062 H1050 0.959 . S
C1062 C1060 1.561 . S
C1063 C1060 1.526 . S
C1063 C1064 1.396 . S
C1063 C1068 1.390 . S
C1064 C1058 1.465 . S
C1064 C1063 1.396 . S
C1064 C1065 1.399 . S
C1065 H1051 0.929 . S
C1065 C1064 1.399 . S
C1065 C1066 1.385 . S
C1066 H1052 0.931 . S
C1066 C1065 1.385 . S
C1066 C1067 1.389 . S
C1067 C1066 1.389 . S
C1067 C1068 1.387 . S
C1068 H1053 0.930 . S
C1068 C1063 1.390 . S
C1068 C1067 1.387 . S
H1069 C1081 0.930 . S
H1070 C1083 0.930 . S
H1071 C1084 0.930 . S
H1072 C1088 0.959 . S
H1073 C1088 0.959 . S
H1074 C1088 0.961 . S
H1075 C1089 0.960 . S
H1076 C1089 0.961 . S
H1077 C1089 0.959 . S
H1078 C1092 0.929 . S
H1079 C1093 0.931 . S
H1080 C1095 0.930 . S
C1081 H1069 0.930 . S
C1081 C1082 1.399 . S
C1081 C1086 1.399 . S
C1082 C1081 1.399 . S
C1082 C1083 1.376 . S
C1083 H1070 0.930 . S
C1083 C1082 1.376 . S
C1083 C1084 1.388 . S
C1084 H1071 0.930 . S
C1084 C1083 1.388 . S
C1084 C1085 1.390 . S
C1085 C1084 1.390 . S
C1085 C1086 1.394 . S
C1085 C1091 1.465 . S
C1086 C1081 1.399 . S
C1086 C1085 1.394 . S
C1086 C1087 1.516 . S
C1087 C1086 1.516 . S
C1087 C1088 1.502 . S
C1087 C1089 1.561 . S
C1087 C1090 1.526 . S
C1088 H1072 0.959 . S
C1088 H1073 0.959 . S
C1088 H1074 0.961 . S
C1088 C1087 1.502 . S
C1089 H1075 0.960 . S
C1089 H1076 0.961 . S
C1089 H1077 0.959 . S
C1089 C1087 1.561 . S
C1090 C1087 1.526 . S
C1090 C1091 1.396 . S
C1090 C1095 1.390 . S
C1091 C1085 1.465 . S
C1091 C1090 1.396 . S
C1091 C1092 1.399 . S
C1092 H1078 0.929 . S
C1092 C1091 1.399 . S
C1092 C1093 1.385 . S
C1093 H1079 0.931 . S
C1093 C1092 1.385 . S
C1093 C1094 1.389 . S
C1094 C1093 1.389 . S
C1094 C1095 1.387 . S
C1095 H1080 0.930 . S
C1095 C1090 1.390 . S
C1095 C1094 1.387 . S
C461 C1 1.188 . S
C473 C294 1.256 . S
C488 C67 0.978 . S
C500 C343 0.922 . S
C527 C378 2.478 . S
C515 C97 2.498 . S
C542 C133 2.417 . S
C554 C417 2.337 . S
C581 C338 2.461 . S
C569 C25 2.358 . S
C608 C297 0.906 . S
C596 C37 0.806 . S
C635 C427 1.875 . S
C623 C103 1.937 . S
C662 C386 1.595 . S
C650 C109 1.644 . S
C677 C31 1.633 . S
C689 C414 1.723 . S
C716 C346 2.282 . S
C704 C73 2.402 . S
C731 C139 2.368 . S
C743 C307 2.336 . S
C758 C61 0.773 . S
C770 C383 0.856 . S
C797 C303 1.233 . S
C785 C175 1.203 . S
C812 C181 0.961 . S
C824 C334 0.891 . S
C839 C247 2.523 . S
C851 C387 2.477 . S
C866 C277 2.399 . S
C878 C426 2.324 . S
C893 C145 2.269 . S
C905 C347 2.451 . S
C932 C306 0.789 . S
C920 C211 0.867 . S
C959 C418 1.847 . S
C947 C217 1.932 . S
C986 C377 1.612 . S
C974 C283 1.663 . S
C1001 C169 1.618 . S
C1013 C423 1.695 . S
C1040 C337 2.313 . S
C1028 C241 2.397 . S
C1067 C298 2.319 . S
C1055 C253 2.352 . S
C1082 C205 0.857 . S
C1094 C374 0.873 . S
