# Generated by pormake.
# Topology eea, (3,6)-cn, num edge types: 1
# Building blocks:
#     Node 0, Type 0, BuildingBlock: ESEHIV_clean_linker_0, # of connection points: 3
#     Node 1, Type 0, BuildingBlock: ESEHIV_clean_linker_0, # of connection points: 3
#     Node 2, Type 0, BuildingBlock: ESEHIV_clean_linker_0, # of connection points: 3
#     Node 3, Type 0, BuildingBlock: ESEHIV_clean_linker_0, # of connection points: 3
#     Node 4, Type 0, BuildingBlock: ESEHIV_clean_linker_0, # of connection points: 3
#     Node 5, Type 0, BuildingBlock: ESEHIV_clean_linker_0, # of connection points: 3
#     Node 6, Type 0, BuildingBlock: ESEHIV_clean_linker_0, # of connection points: 3
#     Node 7, Type 0, BuildingBlock: ESEHIV_clean_linker_0, # of connection points: 3
#     Node 8, Type 0, BuildingBlock: ESEHIV_clean_linker_0, # of connection points: 3
#     Node 9, Type 0, BuildingBlock: ESEHIV_clean_linker_0, # of connection points: 3
#     Node 10, Type 0, BuildingBlock: ESEHIV_clean_linker_0, # of connection points: 3
#     Node 11, Type 0, BuildingBlock: ESEHIV_clean_linker_0, # of connection points: 3
#     Node 12, Type 0, BuildingBlock: ESEHIV_clean_linker_0, # of connection points: 3
#     Node 13, Type 0, BuildingBlock: ESEHIV_clean_linker_0, # of connection points: 3
#     Node 14, Type 0, BuildingBlock: ESEHIV_clean_linker_0, # of connection points: 3
#     Node 15, Type 0, BuildingBlock: ESEHIV_clean_linker_0, # of connection points: 3
#     Node 16, Type 0, BuildingBlock: ESEHIV_clean_linker_0, # of connection points: 3
#     Node 17, Type 0, BuildingBlock: ESEHIV_clean_linker_0, # of connection points: 3
#     Node 18, Type 1, BuildingBlock: CUWYAW_clean_sbu_0, # of connection points: 6
#     Node 19, Type 1, BuildingBlock: CUWYAW_clean_sbu_0, # of connection points: 6
#     Node 20, Type 1, BuildingBlock: CUWYAW_clean_sbu_0, # of connection points: 6
#     Node 21, Type 1, BuildingBlock: CUWYAW_clean_sbu_0, # of connection points: 6
#     Node 22, Type 1, BuildingBlock: CUWYAW_clean_sbu_0, # of connection points: 6
#     Node 23, Type 1, BuildingBlock: CUWYAW_clean_sbu_0, # of connection points: 6
#     Node 24, Type 1, BuildingBlock: CUWYAW_clean_sbu_0, # of connection points: 6
#     Node 25, Type 1, BuildingBlock: CUWYAW_clean_sbu_0, # of connection points: 6
#     Node 26, Type 1, BuildingBlock: CUWYAW_clean_sbu_0, # of connection points: 6
#     Edge 27, Type (0, 1), BuildingBlock: AJUNOK_clean_linker_0, # of connection points: 2
#     Edge 28, Type (0, 1), BuildingBlock: AJUNOK_clean_linker_0, # of connection points: 2
#     Edge 29, Type (0, 1), BuildingBlock: AJUNOK_clean_linker_0, # of connection points: 2
#     Edge 30, Type (0, 1), BuildingBlock: AJUNOK_clean_linker_0, # of connection points: 2
#     Edge 31, Type (0, 1), BuildingBlock: AJUNOK_clean_linker_0, # of connection points: 2
#     Edge 32, Type (0, 1), BuildingBlock: AJUNOK_clean_linker_0, # of connection points: 2
#     Edge 33, Type (0, 1), BuildingBlock: AJUNOK_clean_linker_0, # of connection points: 2
#     Edge 34, Type (0, 1), BuildingBlock: AJUNOK_clean_linker_0, # of connection points: 2
#     Edge 35, Type (0, 1), BuildingBlock: AJUNOK_clean_linker_0, # of connection points: 2
#     Edge 36, Type (0, 1), BuildingBlock: AJUNOK_clean_linker_0, # of connection points: 2
#     Edge 37, Type (0, 1), BuildingBlock: AJUNOK_clean_linker_0, # of connection points: 2
#     Edge 38, Type (0, 1), BuildingBlock: AJUNOK_clean_linker_0, # of connection points: 2
#     Edge 39, Type (0, 1), BuildingBlock: AJUNOK_clean_linker_0, # of connection points: 2
#     Edge 40, Type (0, 1), BuildingBlock: AJUNOK_clean_linker_0, # of connection points: 2
#     Edge 41, Type (0, 1), BuildingBlock: AJUNOK_clean_linker_0, # of connection points: 2
#     Edge 42, Type (0, 1), BuildingBlock: AJUNOK_clean_linker_0, # of connection points: 2
#     Edge 43, Type (0, 1), BuildingBlock: AJUNOK_clean_linker_0, # of connection points: 2
#     Edge 44, Type (0, 1), BuildingBlock: AJUNOK_clean_linker_0, # of connection points: 2
#     Edge 45, Type (0, 1), BuildingBlock: AJUNOK_clean_linker_0, # of connection points: 2
#     Edge 46, Type (0, 1), BuildingBlock: AJUNOK_clean_linker_0, # of connection points: 2
#     Edge 47, Type (0, 1), BuildingBlock: AJUNOK_clean_linker_0, # of connection points: 2
#     Edge 48, Type (0, 1), BuildingBlock: AJUNOK_clean_linker_0, # of connection points: 2
#     Edge 49, Type (0, 1), BuildingBlock: AJUNOK_clean_linker_0, # of connection points: 2
#     Edge 50, Type (0, 1), BuildingBlock: AJUNOK_clean_linker_0, # of connection points: 2
#     Edge 51, Type (0, 1), BuildingBlock: AJUNOK_clean_linker_0, # of connection points: 2
#     Edge 52, Type (0, 1), BuildingBlock: AJUNOK_clean_linker_0, # of connection points: 2
#     Edge 53, Type (0, 1), BuildingBlock: AJUNOK_clean_linker_0, # of connection points: 2
#     Edge 54, Type (0, 1), BuildingBlock: AJUNOK_clean_linker_0, # of connection points: 2
#     Edge 55, Type (0, 1), BuildingBlock: AJUNOK_clean_linker_0, # of connection points: 2
#     Edge 56, Type (0, 1), BuildingBlock: AJUNOK_clean_linker_0, # of connection points: 2
#     Edge 57, Type (0, 1), BuildingBlock: AJUNOK_clean_linker_0, # of connection points: 2
#     Edge 58, Type (0, 1), BuildingBlock: AJUNOK_clean_linker_0, # of connection points: 2
#     Edge 59, Type (0, 1), BuildingBlock: AJUNOK_clean_linker_0, # of connection points: 2
#     Edge 60, Type (0, 1), BuildingBlock: AJUNOK_clean_linker_0, # of connection points: 2
#     Edge 61, Type (0, 1), BuildingBlock: AJUNOK_clean_linker_0, # of connection points: 2
#     Edge 62, Type (0, 1), BuildingBlock: AJUNOK_clean_linker_0, # of connection points: 2
#     Edge 63, Type (0, 1), BuildingBlock: AJUNOK_clean_linker_0, # of connection points: 2
#     Edge 64, Type (0, 1), BuildingBlock: AJUNOK_clean_linker_0, # of connection points: 2
#     Edge 65, Type (0, 1), BuildingBlock: AJUNOK_clean_linker_0, # of connection points: 2
#     Edge 66, Type (0, 1), BuildingBlock: AJUNOK_clean_linker_0, # of connection points: 2
#     Edge 67, Type (0, 1), BuildingBlock: AJUNOK_clean_linker_0, # of connection points: 2
#     Edge 68, Type (0, 1), BuildingBlock: AJUNOK_clean_linker_0, # of connection points: 2
#     Edge 69, Type (0, 1), BuildingBlock: AJUNOK_clean_linker_0, # of connection points: 2
#     Edge 70, Type (0, 1), BuildingBlock: AJUNOK_clean_linker_0, # of connection points: 2
#     Edge 71, Type (0, 1), BuildingBlock: AJUNOK_clean_linker_0, # of connection points: 2
#     Edge 72, Type (0, 1), BuildingBlock: AJUNOK_clean_linker_0, # of connection points: 2
#     Edge 73, Type (0, 1), BuildingBlock: AJUNOK_clean_linker_0, # of connection points: 2
#     Edge 74, Type (0, 1), BuildingBlock: AJUNOK_clean_linker_0, # of connection points: 2
#     Edge 75, Type (0, 1), BuildingBlock: AJUNOK_clean_linker_0, # of connection points: 2
#     Edge 76, Type (0, 1), BuildingBlock: AJUNOK_clean_linker_0, # of connection points: 2
#     Edge 77, Type (0, 1), BuildingBlock: AJUNOK_clean_linker_0, # of connection points: 2
#     Edge 78, Type (0, 1), BuildingBlock: AJUNOK_clean_linker_0, # of connection points: 2
#     Edge 79, Type (0, 1), BuildingBlock: AJUNOK_clean_linker_0, # of connection points: 2
#     Edge 80, Type (0, 1), BuildingBlock: AJUNOK_clean_linker_0, # of connection points: 2
# Relax obj value: 0.034
# Max RMSD: 0.130
# Mean RMSD: 0.112
data_MOF--net-eea--node1-CUWYAW_clean_sbu_0--node2-ESEHIV_clean_linker_0--edge1-AJUNOK_clean_linker_0
_symmetry_space_group_name_H-M    P1
_symmetry_Int_Tables_number       1
_symmetry_cell_setting            triclinic
loop_
_symmetry_equiv_pos_as_xyz
'x, y, z'
_cell_length_a     34.12554
_cell_length_b     33.47359
_cell_length_c     56.387486
_cell_angle_alpha  93.097932
_cell_angle_beta   92.580001
_cell_angle_gamma 119.89279
loop_
_atom_site_label
_atom_site_type_symbol
_atom_site_fract_x
_atom_site_fract_y
_atom_site_fract_z
_atom_type_partial_charge
H0 H 0.24219 0.19287 0.44127 0.0
H1 H 0.23889 0.0623 0.44083 0.0
H2 H 0.18647 0.09523 0.37907 0.0
C3 C 0.23377 0.15986 0.43219 0.0
C4 C 0.21288 0.14758 0.4088 0.0
C5 C 0.2438 0.12943 0.44381 0.0
C6 C 0.23227 0.08652 0.43193 0.0
C7 C 0.2119 0.07445 0.40865 0.0
C8 C 0.20216 0.10482 0.39718 0.0
H9 H 0.8206 0.07103 0.4433 0.0
H10 H 0.94064 0.20588 0.44854 0.0
H11 H 0.90399 0.1141 0.38461 0.0
C12 C 0.84987 0.09732 0.4354 0.0
C13 C 0.85846 0.08809 0.4123 0.0
C14 C 0.87941 0.1395 0.44871 0.0
C15 C 0.91801 0.17295 0.43854 0.0
C16 C 0.92669 0.16432 0.41517 0.0
C17 C 0.89703 0.12152 0.40238 0.0
H18 H 0.81763 0.74589 0.44939 0.0
H19 H 0.94709 0.75333 0.45255 0.0
H20 H 0.88402 0.75747 0.38548 0.0
C21 C 0.84589 0.74801 0.44044 0.0
C22 C 0.84784 0.75417 0.41604 0.0
C23 C 0.88018 0.7449 0.45353 0.0
C24 C 0.91893 0.75195 0.44216 0.0
C25 C 0.92178 0.75854 0.4176 0.0
C26 C 0.88445 0.7564 0.40463 0.0
H27 H 0.06459 0.26502 0.57866 0.0
H28 H 0.1889 0.26112 0.58346 0.0
H29 H 0.10983 0.2345 0.64399 0.0
C30 C 0.08971 0.26076 0.5889 0.0
C31 C 0.08289 0.24927 0.61258 0.0
C32 C 0.12847 0.26606 0.57836 0.0
C33 C 0.15949 0.25815 0.5916 0.0
C34 C 0.15275 0.24596 0.61514 0.0
C35 C 0.115 0.24298 0.62569 0.0
H36 H 0.76954 0.94643 0.59156 0.0
H37 H 0.76782 0.81655 0.58848 0.0
H38 H 0.82483 0.91158 0.65152 0.0
C39 C 0.77666 0.92204 0.59989 0.0
C40 C 0.79786 0.93351 0.62305 0.0
C41 C 0.76544 0.87982 0.58727 0.0
C42 C 0.77631 0.84919 0.59803 0.0
C43 C 0.79803 0.86071 0.6212 0.0
C44 C 0.80887 0.90298 0.63347 0.0
H45 H 0.07421 0.8036 0.58465 0.0
H46 H 0.19305 0.93919 0.59157 0.0
H47 H 0.10809 0.89215 0.64955 0.0
C48 C 0.09654 0.83606 0.59512 0.0
C49 C 0.08639 0.84392 0.61824 0.0
C50 C 0.13571 0.8699 0.58558 0.0
C51 C 0.16408 0.91202 0.59922 0.0
C52 C 0.15467 0.92005 0.62235 0.0
C53 C 0.11586 0.88581 0.63178 0.0
H54 H 0.89576 0.52282 0.77894 0.0
H55 H 0.89761 0.39475 0.77301 0.0
H56 H 0.84957 0.43637 0.71284 0.0
C57 C 0.88977 0.49187 0.76847 0.0
C58 C 0.87187 0.48337 0.74464 0.0
C59 C 0.89813 0.45936 0.779 0.0
C60 C 0.89047 0.41954 0.76516 0.0
C61 C 0.87301 0.41114 0.74133 0.0
C62 C 0.8633 0.44288 0.73127 0.0
H63 H 0.48776 0.3993 0.77689 0.0
H64 H 0.6103 0.5322 0.78603 0.0
H65 H 0.56879 0.4521 0.71792 0.0
C66 C 0.51729 0.42659 0.76966 0.0
C67 C 0.52457 0.42139 0.74573 0.0
C68 C 0.54824 0.46616 0.78445 0.0
C69 C 0.58631 0.50147 0.77477 0.0
C70 C 0.59387 0.49667 0.75066 0.0
C71 C 0.56278 0.45651 0.73635 0.0
H72 H 0.48563 0.08268 0.78094 0.0
H73 H 0.61116 0.08152 0.785 0.0
H74 H 0.56133 0.10596 0.71918 0.0
C75 C 0.51445 0.08518 0.7724 0.0
C76 C 0.51904 0.09442 0.74836 0.0
C77 C 0.54714 0.07994 0.78573 0.0
C78 C 0.58522 0.08454 0.77477 0.0
C79 C 0.5905 0.0942 0.75079 0.0
C80 C 0.55699 0.09825 0.73763 0.0
H81 H 0.74044 0.61098 0.91516 0.0
H82 H 0.86366 0.60493 0.91786 0.0
H83 H 0.77857 0.56134 0.97592 0.0
C84 C 0.76376 0.60276 0.92435 0.0
C85 C 0.75529 0.58626 0.94711 0.0
C86 C 0.80327 0.61019 0.91387 0.0
C87 C 0.8334 0.59965 0.92597 0.0
C88 C 0.82502 0.58259 0.94845 0.0
C89 C 0.78583 0.57576 0.95883 0.0
H90 H 0.43368 0.27684 0.92541 0.0
H91 H 0.4307 0.14617 0.92208 0.0
H92 H 0.48735 0.24048 0.98534 0.0
C93 C 0.44001 0.25195 0.93377 0.0
C94 C 0.46182 0.2634 0.95677 0.0
C95 C 0.42819 0.20949 0.92114 0.0
C96 C 0.43881 0.17855 0.9318 0.0
C97 C 0.46073 0.18996 0.9549 0.0
C98 C 0.47122 0.23195 0.96733 0.0
H99 H 0.73199 0.1522 0.9154 0.0
H100 H 0.86074 0.27918 0.92161 0.0
H101 H 0.79376 0.22679 0.98406 0.0
C102 C 0.75971 0.18055 0.92644 0.0
C103 C 0.7564 0.18573 0.95123 0.0
C104 C 0.79835 0.21305 0.91567 0.0
C105 C 0.83204 0.25248 0.92966 0.0
C106 C 0.82852 0.25837 0.95399 0.0
C107 C 0.79309 0.22324 0.96484 0.0
H108 H 0.58151 0.86442 0.11058 0.0
H109 H 0.57863 0.73404 0.10787 0.0
H110 H 0.52586 0.76986 0.04729 0.0
C111 C 0.57324 0.83189 0.10098 0.0
C112 C 0.55222 0.82069 0.07766 0.0
C113 C 0.58349 0.801 0.1119 0.0
C114 C 0.57218 0.75871 0.09935 0.0
C115 C 0.55158 0.74746 0.07608 0.0
C116 C 0.54141 0.77837 0.06542 0.0
H117 H 0.16015 0.73382 0.11024 0.0
H118 H 0.28362 0.86591 0.11799 0.0
H119 H 0.23982 0.78239 0.05075 0.0
C120 C 0.18957 0.76062 0.10269 0.0
C121 C 0.1971 0.75354 0.07906 0.0
C122 C 0.2202 0.80144 0.11682 0.0
C123 C 0.25943 0.83497 0.10701 0.0
C124 C 0.2672 0.82839 0.08308 0.0
C125 C 0.23526 0.78771 0.06933 0.0
H126 H 0.15674 0.42166 0.11342 0.0
H127 H 0.28133 0.41874 0.12182 0.0
H128 H 0.2395 0.44703 0.05471 0.0
C129 C 0.18719 0.42536 0.10626 0.0
C130 C 0.19516 0.43654 0.08268 0.0
C131 C 0.21803 0.41912 0.1207 0.0
C132 C 0.25707 0.42324 0.11092 0.0
C133 C 0.26494 0.43333 0.08705 0.0
C134 C 0.23352 0.43931 0.07306 0.0
H135 H 0.39644 0.93157 0.24783 0.0
H136 H 0.51992 0.92631 0.24924 0.0
H137 H 0.44493 0.89857 0.31133 0.0
C138 C 0.42187 0.92676 0.25736 0.0
C139 C 0.41653 0.9151 0.28108 0.0
C140 C 0.45968 0.93179 0.24587 0.0
C141 C 0.49151 0.92383 0.25824 0.0
C142 C 0.48689 0.91241 0.28196 0.0
C143 C 0.44924 0.90815 0.29318 0.0
H144 H 0.11522 0.61239 0.25428 0.0
H145 H 0.11453 0.48299 0.25288 0.0
H146 H 0.161 0.57511 0.31698 0.0
C147 C 0.12156 0.58797 0.26315 0.0
C148 C 0.13938 0.5986 0.28697 0.0
C149 C 0.11255 0.54636 0.25063 0.0
C150 C 0.12068 0.51484 0.26243 0.0
C151 C 0.13832 0.52525 0.28637 0.0
C152 C 0.14768 0.56716 0.29843 0.0
H153 H 0.41405 0.46686 0.25116 0.0
H154 H 0.52742 0.60577 0.25658 0.0
H155 H 0.43964 0.55971 0.31341 0.0
C156 C 0.43375 0.50056 0.26096 0.0
C157 C 0.4215 0.50902 0.28345 0.0
C158 C 0.47173 0.53546 0.25107 0.0
C159 C 0.49841 0.57851 0.26419 0.0
C160 C 0.48697 0.58737 0.28662 0.0
C161 C 0.44862 0.55257 0.29613 0.0
C162 C 0.56164 0.05228 0.08622 0.0
Eu163 Eu 0.53378 0.03326 0.04114 0.0
C164 C 0.54271 0.03269 0.10863 0.0
C165 C 0.4988 0.02229 0.1138 0.0
C166 C 0.48183 1.00406 0.13526 0.0
C167 C 0.50827 0.99553 0.1518 0.0
C168 C 0.55175 1.0051 0.14637 0.0
C169 C 0.56884 0.02366 0.12504 0.0
C170 C 0.51084 0.08172 1.01247 0.0
C171 C 0.42553 0.95511 0.0361 0.0
C172 C 0.45626 0.96465 0.94728 0.0
Eu173 Eu 0.486 0.98318 0.99208 0.0
C174 C 0.47322 0.98441 0.92463 0.0
C175 C 0.51685 0.99571 0.91846 0.0
C176 C 0.53184 0.01396 0.89674 0.0
C177 C 0.50378 0.02187 0.88103 0.0
C178 C 0.46039 0.01094 0.88735 0.0
C179 C 0.44526 0.99233 0.90893 0.0
C180 C 0.50893 0.93451 0.02047 0.0
C181 C 0.5952 0.06013 0.9976 0.0
O182 O 0.57084 0.02662 0.0718 0.0
O183 O 0.54315 0.0728 0.07496 0.0
O184 O 0.54704 0.10049 0.02719 0.0
O185 O 0.48684 0.03909 0.01487 0.0
O186 O 0.46354 0.97952 0.04991 0.0
O187 O 0.424 0.95375 1.0126 0.0
O188 O 0.44724 0.98974 0.96223 0.0
O189 O 0.47622 0.94481 0.95784 0.0
O190 O 0.47276 0.91573 1.0057 0.0
O191 O 0.53279 0.97723 0.01822 0.0
O192 O 0.55718 0.03646 0.98357 0.0
O193 O 0.59611 0.06073 0.02108 0.0
H194 H 0.47756 0.02822 0.10131 0.0
H195 H 0.44794 0.99632 0.13886 0.0
H196 H 0.57284 0.99892 0.15883 0.0
H197 H 0.60262 0.03111 0.12137 0.0
H198 H 0.53934 0.99039 0.93035 0.0
H199 H 0.56546 0.02222 0.89228 0.0
H200 H 0.43784 0.01607 0.87539 0.0
H201 H 0.41155 0.98391 0.91332 0.0
C202 C 0.98654 0.52772 0.08335 0.0
Eu203 Eu 0.99443 0.51155 0.03861 0.0
C204 C 1.00538 0.52474 0.10673 0.0
C205 C 0.97847 0.514 0.12605 0.0
C206 C 0.99612 0.51262 0.14864 0.0
C207 C 0.04102 0.52195 0.15226 0.0
C208 C 0.06774 0.53201 0.13277 0.0
C209 C 0.04999 0.53316 0.11013 0.0
C210 C 0.94144 0.43283 1.01058 0.0
C211 C 0.07096 0.48033 0.03313 0.0
C212 C 0.0382 0.49175 0.94517 0.0
Eu213 Eu 0.0287 0.50653 0.98981 0.0
C214 C 0.01562 0.4883 0.92175 0.0
C215 C 0.04051 0.49785 0.90166 0.0
C216 C 0.01981 0.49485 0.87918 0.0
C217 C 0.97382 0.48219 0.87644 0.0
C218 C 0.94909 0.47332 0.8967 0.0
C219 C 0.96984 0.47625 0.9192 0.0
C220 C 0.08119 0.58534 0.01812 0.0
C221 C 0.9512 0.53625 0.99508 0.0
O222 O 0.01464 0.55942 0.07037 0.0
O223 O 0.95936 0.48844 0.07088 0.0
O224 O 0.92574 0.45246 0.02469 0.0
O225 O 0.98417 0.45401 1.01286 0.0
O226 O 0.05091 0.4961 0.04729 0.0
O227 O 0.0646 0.47645 1.00971 0.0
O228 O 0.01564 0.45856 0.95886 0.0
O229 O 0.05904 0.53276 0.95682 0.0
O230 O 0.09742 0.56578 1.00434 0.0
O231 O 0.03855 0.56381 0.01544 0.0
O232 O 0.96861 0.5167 0.98134 0.0
O233 O 0.96134 0.5442 0.01836 0.0
H234 H 0.944 0.50744 0.12375 0.0
H235 H 0.97509 0.5057 0.16343 0.0
H236 H 0.10247 0.53938 0.13513 0.0
H237 H 0.07128 0.54125 0.0954 0.0
H238 H 0.07593 0.50739 0.90335 0.0
H239 H 0.03957 0.50165 0.86386 0.0
H240 H 0.9138 0.46425 0.89515 0.0
H241 H 0.95017 0.469 0.93456 0.0
C242 C 0.44829 0.47486 0.94983 0.0
Eu243 Eu 0.48233 0.49727 0.99405 0.0
C244 C 0.4657 0.47421 0.92643 0.0
C245 C 0.44758 0.48461 0.90647 0.0
C246 C 0.46413 0.48499 0.88418 0.0
C247 C 0.49909 0.47485 0.88144 0.0
C248 C 0.51762 0.46499 0.90156 0.0
C249 C 0.50103 0.46461 0.92386 0.0
C250 C 0.50563 0.5768 0.02031 0.0
C251 C 0.59297 0.54103 0.99574 0.0
C252 C 0.57256 0.53234 0.08545 0.0
Eu253 Eu 0.53772 0.51297 0.04138 0.0
C254 C 0.55663 0.53135 0.10948 0.0
C255 C 0.56506 0.50676 0.12644 0.0
C256 C 0.54969 0.50455 0.14917 0.0
C257 C 0.52543 0.52678 0.15535 0.0
C258 C 0.51753 0.55193 0.13849 0.0
C259 C 0.53286 0.55412 0.11573 0.0
C260 C 0.51477 0.43413 0.0143 0.0
C261 C 0.42812 0.47374 0.0403 0.0
O262 O 0.44701 0.44488 0.96423 0.0
O263 O 0.46286 0.51579 0.96082 0.0
O264 O 0.46717 0.55242 1.0076 0.0
O265 O 0.53083 0.55961 0.01759 0.0
O266 O 0.55302 0.51689 0.98331 0.0
O267 O 0.59619 0.5499 0.01908 0.0
O268 O 0.57336 0.56335 0.07197 0.0
O269 O 0.55778 0.49212 0.0736 0.0
O270 O 0.55347 0.45882 0.0267 0.0
O271 O 0.48935 0.45078 0.01771 0.0
O272 O 0.46838 0.49638 0.05242 0.0
O273 O 0.42378 0.46355 0.01697 0.0
H274 H 0.4205 0.49237 0.90812 0.0
H275 H 0.44909 0.49251 0.86899 0.0
H276 H 0.54512 0.45785 0.90008 0.0
H277 H 0.51583 0.45689 0.93908 0.0
H278 H 0.58346 0.48908 0.12205 0.0
H279 H 0.55646 0.48517 0.1619 0.0
H280 H 0.50004 0.57046 0.14305 0.0
H281 H 0.52612 0.57365 0.10309 0.0
C282 C 0.22989 0.37678 0.41688 0.0
Eu283 Eu 0.1987 0.35886 0.37225 0.0
C284 C 0.21165 0.35882 0.43966 0.0
C285 C 0.16774 0.34844 0.44477 0.0
C286 C 0.15133 0.33182 0.46658 0.0
C287 C 0.17838 0.32497 0.48355 0.0
C288 C 0.22187 0.33447 0.47817 0.0
C289 C 0.23838 0.35139 0.45646 0.0
C290 C 0.1765 0.41053 0.34567 0.0
C291 C 0.08877 0.28561 0.36882 0.0
C292 C 0.11414 0.29182 0.27932 0.0
Eu293 Eu 0.14641 0.31123 0.32383 0.0
C294 C 0.12887 0.31317 0.25681 0.0
C295 C 0.11977 0.28485 0.23571 0.0
C296 C 0.13524 0.30436 0.21435 0.0
C297 C 0.16026 0.3527 0.21364 0.0
C298 C 0.16872 0.38101 0.23484 0.0
C299 C 0.15322 0.36145 0.25622 0.0
C300 C 0.16937 0.26009 0.35052 0.0
C301 C 0.25597 0.38527 0.3272 0.0
O302 O 0.23491 0.34856 0.40204 0.0
O303 O 0.21359 0.39982 0.40621 0.0
O304 O 0.21398 0.42752 0.35928 0.0
O305 O 0.1515 0.36797 0.34784 0.0
O306 O 0.12821 0.30595 0.38177 0.0
O307 O 0.08626 0.2873 0.34548 0.0
O308 O 0.10324 0.31394 0.2951 0.0
O309 O 0.1381 0.27524 0.28888 0.0
O310 O 0.13163 0.24273 0.33712 0.0
O311 O 0.19391 0.30252 0.34807 0.0
O312 O 0.21624 0.36626 0.31457 0.0
O313 O 0.25878 0.38205 0.35043 0.0
H314 H 0.14612 0.35317 0.43195 0.0
H315 H 0.1174 0.32401 0.47012 0.0
H316 H 0.2434 0.32951 0.49095 0.0
H317 H 0.27216 0.35883 0.4528 0.0
H318 H 0.10098 0.24753 0.2358 0.0
H319 H 0.12755 0.28152 0.19833 0.0
H320 H 0.18867 0.4183 0.23515 0.0
H321 H 0.16107 0.38407 0.27235 0.0
C322 C 0.63804 0.85041 0.41808 0.0
Eu323 Eu 0.65029 0.83781 0.37366 0.0
C324 C 0.65655 0.84984 0.44213 0.0
C325 C 0.62651 0.82477 0.45891 0.0
C326 C 0.64276 0.8255 0.48221 0.0
C327 C 0.68941 0.85179 0.48926 0.0
C328 C 0.71965 0.87569 0.47222 0.0
C329 C 0.7034 0.87474 0.44884 0.0
C330 C 0.5979 0.76277 0.34306 0.0
C331 C 0.72474 0.80346 0.36931 0.0
C332 C 0.70399 0.82639 0.28192 0.0
Eu333 Eu 0.68972 0.83717 0.32616 0.0
C334 C 0.68649 0.82756 0.25775 0.0
C335 C 0.71737 0.85297 0.24137 0.0
C336 C 0.70213 0.85292 0.21797 0.0
C337 C 0.65569 0.82698 0.21043 0.0
C338 C 0.6246 0.80276 0.22707 0.0
C339 C 0.63985 0.80305 0.25056 0.0
C340 C 0.74156 0.91253 0.35688 0.0
C341 C 0.613 0.8684 0.32998 0.0
O342 O 0.66416 0.88411 0.40545 0.0
O343 O 0.61503 0.81054 0.4054 0.0
O344 O 0.58182 0.78184 0.35728 0.0
O345 O 0.64047 0.78229 0.34665 0.0
O346 O 0.70436 0.8192 0.38327 0.0
O347 O 0.72098 0.80245 0.3459 0.0
O348 O 0.67751 0.79202 0.2941 0.0
O349 O 0.72604 0.86594 0.29493 0.0
O350 O 0.75794 0.89299 0.34321 0.0
O351 O 0.69907 0.89273 0.35298 0.0
O352 O 0.63411 0.85328 0.31621 0.0
O353 O 0.6172 0.87045 0.35344 0.0
H354 H 0.5903 0.80503 0.45406 0.0
H355 H 0.61875 0.80584 0.49479 0.0
H356 H 0.75578 0.89621 0.47716 0.0
H357 H 0.72739 0.89409 0.43618 0.0
H358 H 0.75344 0.87245 0.24663 0.0
H359 H 0.72675 0.87282 0.20569 0.0
H360 H 0.58861 0.78252 0.22173 0.0
H361 H 0.61526 0.78351 0.26293 0.0
C362 C 0.11387 0.81043 0.28075 0.0
Eu363 Eu 0.14322 0.82682 0.32562 0.0
C364 C 0.13307 0.81187 0.25764 0.0
C365 C 0.12377 0.83351 0.23938 0.0
C366 C 0.14138 0.83549 0.2173 0.0
C367 C 0.16861 0.81571 0.21294 0.0
C368 C 0.17832 0.79441 0.23136 0.0
C369 C 0.16092 0.79272 0.25356 0.0
C370 C 0.16448 0.90396 0.35359 0.0
C371 C 0.25324 0.8692 0.32908 0.0
C372 C 0.22668 0.85959 0.41808 0.0
Eu373 Eu 0.19455 0.83916 0.3736 0.0
C374 C 0.20964 0.8571 0.44191 0.0
C375 C 0.21986 0.8339 0.45895 0.0
C376 C 0.20578 0.83241 0.48193 0.0
C377 C 0.18166 0.85465 0.48847 0.0
C378 C 0.17029 0.87679 0.4712 0.0
C379 C 0.18412 0.87801 0.44811 0.0
C380 C 0.17685 0.76338 0.34553 0.0
C381 C 0.08362 0.79591 0.36962 0.0
O382 O 0.10952 0.77801 0.29425 0.0
O383 O 0.12866 0.85042 0.29285 0.0
O384 O 0.12619 0.87987 0.34078 0.0
O385 O 0.19018 0.88766 0.35041 0.0
O386 O 0.21404 0.8459 0.31604 0.0
O387 O 0.25507 0.87718 0.35244 0.0
O388 O 0.22558 0.88962 0.40449 0.0
O389 O 0.21526 0.82011 0.40625 0.0
O390 O 0.21358 0.78751 0.35959 0.0
O391 O 0.14963 0.77822 0.34818 0.0
O392 O 0.12239 0.81599 0.38318 0.0
O393 O 0.0819 0.79097 0.34614 0.0
H394 H 0.10268 0.84881 0.24219 0.0
H395 H 0.13348 0.85235 0.20354 0.0
H396 H 0.19838 0.778 0.22846 0.0
H397 H 0.16889 0.77608 0.26742 0.0
H398 H 0.23915 0.8172 0.45453 0.0
H399 H 0.21404 0.81407 0.49465 0.0
H400 H 0.15169 0.89418 0.47572 0.0
H401 H 0.17536 0.89582 0.43527 0.0
C402 C 0.89671 0.71946 0.75117 0.0
Eu403 Eu 0.86409 0.69771 0.70677 0.0
C404 C 0.88094 0.70327 0.77465 0.0
C405 C 0.88311 0.73504 0.79269 0.0
C406 C 0.86862 0.72091 0.81511 0.0
C407 C 0.85198 0.67473 0.82002 0.0
C408 C 0.84928 0.64275 0.80188 0.0
C409 C 0.86359 0.65683 0.77937 0.0
C410 C 0.84074 0.7479 0.67952 0.0
C411 C 0.75499 0.62212 0.70469 0.0
C412 C 0.77805 0.62792 0.61439 0.0
Eu413 Eu 0.81038 0.64824 0.6589 0.0
C414 C 0.7939 0.64724 0.59147 0.0
C415 C 0.78877 0.61742 0.57164 0.0
C416 C 0.80549 0.63499 0.55006 0.0
C417 C 0.82829 0.68296 0.54788 0.0
C418 C 0.83182 0.7126 0.5676 0.0
C419 C 0.81517 0.69502 0.58922 0.0
C420 C 0.83197 0.59721 0.68631 0.0
C421 C 0.92031 0.72214 0.6616 0.0
O422 O 0.90366 0.69225 0.73654 0.0
O423 O 0.87712 0.73935 0.74037 0.0
O424 O 0.87885 0.7654 0.69258 0.0
O425 O 0.81593 0.70567 0.68242 0.0
O426 O 0.79499 0.64384 0.71706 0.0
O427 O 0.75085 0.6239 0.68137 0.0
O428 O 0.7689 0.65241 0.62968 0.0
O429 O 0.79972 0.60946 0.62454 0.0
O430 O 0.79475 0.58008 0.67251 0.0
O431 O 0.85758 0.63941 0.68349 0.0
O432 O 0.8804 0.70218 0.64909 0.0
O433 O 0.92363 0.71963 0.68484 0.0
H434 H 0.8961 0.77094 0.78944 0.0
H435 H 0.87045 0.74616 0.82864 0.0
H436 H 0.83684 0.607 0.80524 0.0
H437 H 0.86122 0.63143 0.76576 0.0
H438 H 0.77195 0.58039 0.57288 0.0
H439 H 0.80002 0.61079 0.53501 0.0
H440 H 0.84832 0.74961 0.56649 0.0
H441 H 0.8195 0.7189 0.60422 0.0
C442 C 0.31021 0.18925 0.75107 0.0
Eu443 Eu 0.31983 0.1747 0.7064 0.0
C444 C 0.32746 0.1866 0.77508 0.0
C445 C 0.29642 0.16018 0.79118 0.0
C446 C 0.31136 0.15953 0.81456 0.0
C447 C 0.35766 0.18573 0.82238 0.0
C448 C 0.38895 0.21095 0.80603 0.0
C449 C 0.37401 0.21142 0.78258 0.0
C450 C 0.26828 0.09664 0.67753 0.0
C451 C 0.39612 0.14301 0.70122 0.0
C452 C 0.3673 0.15895 0.61348 0.0
Eu453 Eu 0.35636 0.17228 0.65804 0.0
C454 C 0.34922 0.16031 0.58947 0.0
C455 C 0.37963 0.18632 0.57304 0.0
C456 C 0.36393 0.18607 0.5497 0.0
C457 C 0.31749 0.15932 0.54226 0.0
C458 C 0.28682 0.13457 0.55896 0.0
C459 C 0.30253 0.13504 0.58239 0.0
C460 C 0.40817 0.24985 0.6872 0.0
C461 C 0.27886 0.20213 0.66299 0.0
O462 O 0.33838 0.22166 0.73843 0.0
O463 O 0.28406 0.15001 0.73832 0.0
O464 O 0.25161 0.11553 0.69147 0.0
O465 O 0.31099 0.11838 0.6803 0.0
O466 O 0.37556 0.1582 0.71538 0.0
O467 O 0.39085 0.14058 0.6778 0.0
O468 O 0.34049 0.12565 0.62613 0.0
O469 O 0.39147 0.19865 0.62617 0.0
O470 O 0.42462 0.23066 0.67334 0.0
O471 O 0.36547 0.22862 0.68422 0.0
O472 O 0.29909 0.1864 0.64893 0.0
O473 O 0.28505 0.20592 0.68643 0.0
H474 H 0.26041 0.1406 0.78578 0.0
H475 H 0.28659 0.13897 0.82662 0.0
H476 H 0.42483 0.23148 0.8116 0.0
H477 H 0.39881 0.23194 0.77051 0.0
H478 H 0.41573 0.20633 0.57817 0.0
H479 H 0.38821 0.20631 0.53736 0.0
H480 H 0.25085 0.11367 0.5537 0.0
H481 H 0.27825 0.11493 0.59476 0.0
C482 C 0.77552 0.14116 0.61358 0.0
Eu483 Eu 0.80906 0.16407 0.65788 0.0
C484 C 0.79321 0.14361 0.58989 0.0
C485 C 0.78723 0.17033 0.57329 0.0
C486 C 0.80387 0.17349 0.55084 0.0
C487 C 0.82692 0.15003 0.54453 0.0
C488 C 0.83253 0.12291 0.56103 0.0
C489 C 0.81596 0.11978 0.58352 0.0
C490 C 0.83259 0.24498 0.68286 0.0
C491 C 0.91937 0.20534 0.65967 0.0
C492 C 0.89788 0.20499 0.7499 0.0
Eu493 Eu 0.86465 0.18262 0.70552 0.0
C494 C 0.8804 0.20531 0.7734 0.0
C495 C 0.88915 0.18323 0.79164 0.0
C496 C 0.87216 0.18206 0.81386 0.0
C497 C 0.84567 0.20268 0.8183 0.0
C498 C 0.83763 0.22551 0.8001 0.0
C499 C 0.85465 0.22669 0.77786 0.0
C500 C 0.84097 0.10179 0.68033 0.0
C501 C 0.75448 0.14139 0.70359 0.0
O502 O 0.77738 0.11209 0.62759 0.0
O503 O 0.78617 0.1807 0.62507 0.0
O504 O 0.79393 0.21971 0.67049 0.0
O505 O 0.85783 0.22769 0.68062 0.0
O506 O 0.8792 0.18198 0.64747 0.0
O507 O 0.92348 0.21627 0.68289 0.0
O508 O 0.89926 0.23494 0.73547 0.0
O509 O 0.88388 0.16422 0.73887 0.0
O510 O 0.87975 0.12698 0.69261 0.0
O511 O 0.81588 0.11915 0.68284 0.0
O512 O 0.79465 0.16598 0.71569 0.0
O513 O 0.75049 0.12939 0.68051 0.0
H514 H 0.7696 0.18881 0.5777 0.0
H515 H 0.7988 0.19436 0.53838 0.0
H516 H 0.84901 0.10339 0.55635 0.0
H517 H 0.82084 0.09858 0.59582 0.0
H518 H 0.90932 0.16692 0.7887 0.0
H519 H 0.88056 0.16574 0.82771 0.0
H520 H 0.81799 0.24235 0.80306 0.0
H521 H 0.84755 0.24426 0.76418 0.0
C522 C 0.32939 0.84617 0.05608 0.0
C523 C 0.3086 0.8625 0.07198 0.0
C524 C 0.36613 0.87645 0.04388 0.0
C525 C 0.3845 0.92436 0.04759 0.0
H526 H 0.31736 0.80951 0.05302 0.0
H527 H 0.38102 0.8623 0.03191 0.0
S528 S 0.34489 0.9861 0.08743 0.0
N529 N 0.30975 0.93079 0.09032 0.0
N530 N 0.38117 0.9876 0.06856 0.0
C531 C 0.36544 0.94165 0.06381 0.0
C532 C 0.32702 0.91078 0.07578 0.0
C533 C 0.11657 0.41832 0.06898 0.0
C534 C 0.16388 0.44668 0.06849 0.0
C535 C 0.08646 0.42908 0.05718 0.0
C536 C 0.10264 0.46794 0.04411 0.0
H537 H 0.10271 0.38779 0.07874 0.0
H538 H 0.05033 0.407 0.05833 0.0
S539 S 0.22249 0.55439 0.03775 0.0
N540 N 0.22507 0.51669 0.05453 0.0
N541 N 0.16797 0.53526 0.03143 0.0
C542 C 0.14944 0.4962 0.04308 0.0
C543 C 0.18023 0.48591 0.05546 0.0
C544 C 0.49626 0.67356 0.05238 0.0
C545 C 0.54054 0.70335 0.06272 0.0
C546 C 0.48532 0.63245 0.03891 0.0
C547 C 0.51835 0.61988 0.03512 0.0
H548 H 0.46987 0.6821 0.05477 0.0
H549 H 0.4507 0.61047 0.03132 0.0
S550 S 0.63975 0.6871 0.05769 0.0
N551 N 0.61781 0.71807 0.0681 0.0
N552 N 0.59749 0.64114 0.04235 0.0
C553 C 0.56281 0.64941 0.04536 0.0
C554 C 0.57384 0.69108 0.05929 0.0
C555 C 0.9051 0.32332 0.97039 0.0
C556 C 0.85777 0.30358 0.96768 0.0
C557 C 0.93228 0.36563 0.98413 0.0
C558 C 0.91285 0.38944 0.99537 0.0
H559 H 0.921 0.30556 0.96225 0.0
H560 H 0.96858 0.37938 0.98626 0.0
S561 S 0.79086 0.35425 0.99129 0.0
N562 N 0.79297 0.31241 0.9756 0.0
N563 N 0.84374 0.39158 1.00138 0.0
C564 C 0.86569 0.37063 0.99204 0.0
C565 C 0.83821 0.32776 0.97817 0.0
C566 C 0.67099 0.5515 0.94721 0.0
C567 C 0.7145 0.57924 0.95889 0.0
C568 C 0.63196 0.54028 0.95909 0.0
C569 C 0.63494 0.55648 0.98311 0.0
H570 H 0.66703 0.53699 0.92902 0.0
H571 H 0.59926 0.51772 0.94946 0.0
S572 S 0.74162 0.63512 0.02065 0.0
N573 N 0.75866 0.62603 0.99501 0.0
N574 N 0.68567 0.60514 0.01741 0.0
C575 C 0.67849 0.586 0.99462 0.0
C576 C 0.71812 0.59731 0.9825 0.0
C577 C 0.44257 0.11422 0.9706 0.0
C578 C 0.47472 0.15969 0.96633 0.0
C579 C 0.45468 0.0884 0.98503 0.0
C580 C 0.4992 0.10742 0.99566 0.0
H581 H 0.40754 0.09937 0.96367 0.0
H582 H 0.42866 0.05407 0.98859 0.0
S583 S 0.59686 0.22282 0.9871 0.0
N584 N 0.55362 0.22067 0.97158 0.0
N585 N 0.57616 0.1729 0.99896 0.0
C586 C 0.53195 0.15194 0.99041 0.0
C587 C 0.51977 0.17786 0.97564 0.0
C588 C 0.68859 0.10627 0.95506 0.0
C589 C 0.71462 0.15372 0.96305 0.0
C590 C 0.65 0.07587 0.96632 0.0
C591 C 0.63714 0.09128 0.98663 0.0
H592 H 0.69812 0.09223 0.94011 0.0
H593 H 0.63046 0.03992 0.95931 0.0
S594 S 0.69014 0.21167 1.01395 0.0
N595 N 0.71992 0.21483 0.99119 0.0
N596 N 0.65196 0.15641 1.01401 0.0
C597 C 0.66262 0.13809 0.99496 0.0
C598 C 0.70013 0.16959 0.98277 0.0
C599 C 0.8714 0.54374 0.94872 0.0
C600 C 0.85707 0.57132 0.96089 0.0
C601 C 0.90174 0.53267 0.95996 0.0
C602 C 0.91908 0.54879 0.98384 0.0
H603 H 0.8587 0.53019 0.9304 0.0
H604 H 0.91134 0.51099 0.9498 0.0
S605 S 0.89375 0.62442 0.02312 0.0
N606 N 0.86352 0.61603 0.99775 0.0
N607 N 0.92041 0.59513 0.01905 0.0
C608 C 0.90517 0.57674 0.99618 0.0
C609 C 0.8742 0.58799 0.98467 0.0
C610 C 0.44454 0.32255 0.97452 0.0
C611 C 0.47636 0.30878 0.96979 0.0
C612 C 0.4573 0.36356 0.98874 0.0
C613 C 0.50233 0.3922 0.9985 0.0
H614 H 0.40934 0.30078 0.9678 0.0
H615 H 0.43152 0.37234 0.99251 0.0
S616 S 0.59925 0.37364 0.98907 0.0
N617 N 0.55521 0.32835 0.97437 0.0
N618 N 0.57935 0.40545 1.00093 0.0
C619 C 0.53473 0.37956 0.9931 0.0
C620 C 0.5217 0.33783 0.97876 0.0
C621 C 0.18388 0.68453 0.05317 0.0
C622 C 0.1661 0.70981 0.06444 0.0
C623 C 0.15595 0.64412 0.03836 0.0
C624 C 0.10925 0.62762 0.03421 0.0
H625 H 0.21975 0.69616 0.05583 0.0
H626 H 0.17117 0.6258 0.03007 0.0
S627 S 0.04641 0.68228 0.05879 0.0
N628 N 0.09923 0.71613 0.07022 0.0
N629 N 0.04658 0.64036 0.04204 0.0
C630 C 0.09098 0.65258 0.04535 0.0
C631 C 0.11945 0.69362 0.0606 0.0
C632 C 0.30456 0.4175 0.05453 0.0
C633 C 0.30704 0.44049 0.07669 0.0
C634 C 0.34382 0.42781 0.04306 0.0
C635 C 0.38711 0.46161 0.05328 0.0
H636 H 0.27188 0.39183 0.04581 0.0
H637 H 0.3401 0.40944 0.02594 0.0
S638 S 0.41139 0.53354 0.11052 0.0
N639 N 0.35581 0.49936 0.10809 0.0
N640 N 0.42961 0.51901 0.08676 0.0
C641 C 0.38994 0.48458 0.0756 0.0
C642 C 0.34995 0.47393 0.08725 0.0
C643 C 0.49739 0.83575 0.05476 0.0
C644 C 0.54136 0.85261 0.06555 0.0
C645 C 0.48722 0.86306 0.04067 0.0
C646 C 0.52065 0.90824 0.03676 0.0
H647 H 0.47081 0.80077 0.05687 0.0
H648 H 0.45298 0.84831 0.03248 0.0
S649 S 0.641 0.96876 0.06114 0.0
N650 N 0.61847 0.91751 0.07175 0.0
N651 N 0.59946 0.96889 0.045 0.0
C652 C 0.56452 0.92603 0.04791 0.0
C653 C 0.57484 0.8982 0.0624 0.0
C654 C 0.01065 0.21827 0.41586 0.0
C655 C 0.96716 0.19912 0.40402 0.0
C656 C 0.04962 0.2471 0.40453 0.0
C657 C 0.04666 0.25798 0.38092 0.0
H658 H 0.0147 0.20956 0.43369 0.0
H659 H 0.08236 0.25981 0.41422 0.0
S660 S 0.94001 0.22125 0.34339 0.0
N661 N 0.92298 0.19644 0.36834 0.0
N662 N 0.99596 0.25032 0.34698 0.0
C663 C 1.00313 0.24064 0.36932 0.0
C664 C 0.96351 0.21133 0.38088 0.0
C665 C 0.82975 0.79817 0.38715 0.0
C666 C 0.81429 0.76292 0.40288 0.0
C667 C 0.80018 0.8102 0.37588 0.0
C668 C 0.75432 0.7883 0.38036 0.0
H669 H 0.86531 0.81771 0.38399 0.0
H670 H 0.8136 0.8379 0.36418 0.0
S671 S 0.69511 0.69128 0.41788 0.0
N672 N 0.74838 0.70329 0.42033 0.0
N673 N 0.69367 0.72843 0.40024 0.0
C674 C 0.73794 0.75266 0.39559 0.0
C675 C 0.76772 0.73937 0.40659 0.0
C676 C 0.23115 0.02738 0.38107 0.0
C677 C 0.20063 0.02993 0.39611 0.0
C678 C 0.21974 0.98581 0.36783 0.0
C679 C 0.17714 0.94613 0.36893 0.0
H680 H 0.26369 0.05783 0.37932 0.0
H681 H 0.24374 0.9851 0.35611 0.0
S682 S 0.08763 0.93419 0.40759 0.0
N683 N 0.12795 0.98894 0.41286 0.0
N684 N 0.10614 0.91092 0.38764 0.0
C685 C 0.14702 0.94804 0.38444 0.0
C686 C 0.15889 0.99005 0.39816 0.0
C687 C 0.56213 0.65236 0.30409 0.0
C688 C 0.51494 0.63328 0.30006 0.0
C689 C 0.58898 0.69482 0.31765 0.0
C690 C 0.56953 0.71962 0.3276 0.0
H691 H 0.57824 0.6338 0.29717 0.0
H692 H 0.62505 0.70777 0.32074 0.0
S693 S 0.44836 0.68709 0.31993 0.0
N694 N 0.45047 0.64412 0.30539 0.0
N695 N 0.5008 0.72376 0.33101 0.0
C696 C 0.52263 0.70168 0.32301 0.0
C697 C 0.49535 0.65851 0.30922 0.0
C698 C 0.3322 0.87811 0.28153 0.0
C699 C 0.37562 0.90753 0.293 0.0
C700 C 0.29304 0.86675 0.29323 0.0
C701 C 0.29562 0.88431 0.31692 0.0
H702 H 0.32841 0.8625 0.26361 0.0
H703 H 0.2605 0.84303 0.2837 0.0
S704 S 0.40146 0.96688 0.35394 0.0
N705 N 0.41906 0.95706 0.32865 0.0
N706 N 0.34557 0.9354 0.35078 0.0
C707 C 0.33891 0.91507 0.32832 0.0
C708 C 0.37881 0.92673 0.31634 0.0
C709 C 0.19152 0.50928 0.31016 0.0
C710 C 0.14784 0.49321 0.2992 0.0
C711 C 0.20045 0.48184 0.32483 0.0
C712 C 0.16594 0.4375 0.32927 0.0
H713 H 0.21883 0.54369 0.30767 0.0
H714 H 0.23459 0.4958 0.333 0.0
S715 S 0.04558 0.3799 0.30505 0.0
N716 N 0.06979 0.43029 0.29351 0.0
N717 N 0.08618 0.37897 0.32167 0.0
C718 C 0.12219 0.42076 0.31815 0.0
C719 C 0.11325 0.44857 0.30294 0.0
C720 C 0.3803 0.46693 0.31805 0.0
C721 C 0.37964 0.47368 0.29361 0.0
C722 C 0.3405 0.43748 0.32858 0.0
C723 C 0.29821 0.41331 0.31514 0.0
H724 H 0.41185 0.48508 0.32927 0.0
H725 H 0.34297 0.43445 0.34754 0.0
S726 S 0.27857 0.41655 0.25 0.0
N727 N 0.33332 0.4526 0.2561 0.0
N728 N 0.2589 0.39606 0.2755 0.0
C729 C 0.29738 0.41834 0.29044 0.0
C730 C 0.33793 0.44869 0.27979 0.0
C731 C 0.50488 0.86502 0.30869 0.0
C732 C 0.52028 0.90306 0.29479 0.0
C733 C 0.53531 0.8547 0.32054 0.0
C734 C 0.58209 0.88148 0.31854 0.0
H735 H 0.46894 0.84244 0.3101 0.0
H736 H 0.5221 0.82489 0.33085 0.0
S737 S 0.64073 0.98616 0.28601 0.0
N738 N 0.58638 0.96948 0.28134 0.0
N739 N 0.64305 0.94808 0.30259 0.0
C740 C 0.59821 0.91958 0.30496 0.0
C741 C 0.56743 0.93086 0.29332 0.0
C742 C 0.11592 0.65391 0.30332 0.0
C743 C 0.1501 0.64277 0.30008 0.0
C744 C 0.12488 0.69359 0.31772 0.0
C745 C 0.16831 0.72335 0.3292 0.0
H746 H 0.08178 0.63104 0.29531 0.0
H747 H 0.09739 0.70035 0.32034 0.0
S748 S 0.27054 0.71215 0.32372 0.0
N749 N 0.22957 0.66634 0.30766 0.0
N750 N 0.24671 0.74097 0.33451 0.0
C751 C 0.20316 0.71352 0.32514 0.0
C752 C 0.19396 0.67318 0.31062 0.0
C753 C 0.84523 0.01644 0.38874 0.0
C754 C 0.82761 0.04303 0.39865 0.0
C755 C 0.81688 0.97392 0.37557 0.0
C756 C 0.76993 0.95657 0.37173 0.0
H757 H 0.88119 0.02851 0.39131 0.0
H758 H 0.83196 0.95461 0.36828 0.0
S759 S 0.70739 0.01396 0.3931 0.0
N760 N 0.7606 0.04966 0.40336 0.0
N761 N 0.70723 0.96983 0.37842 0.0
C762 C 0.75186 0.98283 0.38152 0.0
C763 C 0.78074 0.02606 0.39504 0.0
C764 C 0.98928 0.74764 0.41161 0.0
C765 C 0.96361 0.76862 0.40537 0.0
C766 C 0.02807 0.75627 0.39996 0.0
C767 C 0.04155 0.78463 0.381 0.0
H768 H 0.97928 0.7241 0.42548 0.0
H769 H 0.04728 0.74016 0.4056 0.0
S770 S 0.99001 0.85162 0.35893 0.0
N771 N 0.95912 0.82409 0.38059 0.0
N772 N 0.02795 0.83503 0.35698 0.0
C773 C 0.01646 0.80563 0.37446 0.0
C774 C 0.97859 0.79898 0.38706 0.0
C775 C 0.15784 0.16225 0.38579 0.0
C776 C 0.20217 0.17888 0.396 0.0
C777 C 0.14756 0.18914 0.37138 0.0
C778 C 0.1813 0.23352 0.36651 0.0
H779 H 0.13101 0.12787 0.38872 0.0
H780 H 0.11297 0.17479 0.36381 0.0
S781 S 0.30295 0.29244 0.38851 0.0
N782 N 0.28009 0.2423 0.40028 0.0
N783 N 0.26107 0.29266 0.37276 0.0
C784 C 0.22572 0.25078 0.3768 0.0
C785 C 0.23608 0.22351 0.39168 0.0
C786 C 0.63178 0.54896 0.71856 0.0
C787 C 0.63531 0.53186 0.74036 0.0
C788 C 0.67054 0.57865 0.70728 0.0
C789 C 0.71434 0.59239 0.71738 0.0
H790 H 0.5987 0.53881 0.71 0.0
H791 H 0.66606 0.59065 0.69046 0.0
S792 S 0.74159 0.55446 0.77351 0.0
N793 N 0.68576 0.52919 0.77111 0.0
N794 N 0.75858 0.5849 0.75022 0.0
C795 C 0.71823 0.57553 0.73927 0.0
C796 C 0.67876 0.54535 0.75069 0.0
C797 C 0.50245 0.14174 0.72102 0.0
C798 C 0.48626 0.10384 0.73505 0.0
C799 C 0.4728 0.15351 0.70956 0.0
C800 C 0.42614 0.12838 0.71214 0.0
H801 H 0.53845 0.16334 0.71937 0.0
H802 H 0.48659 0.18329 0.69923 0.0
S803 S 0.3655 0.02411 0.74475 0.0
N804 N 0.41943 0.03886 0.7489 0.0
N805 N 0.36427 0.06297 0.72837 0.0
C806 C 0.40917 0.09012 0.72562 0.0
C807 C 0.43911 0.07736 0.73685 0.0
C808 C 0.81984 0.33847 0.71621 0.0
C809 C 0.86369 0.3686 0.72696 0.0
C810 C 0.81023 0.29846 0.70208 0.0
C811 C 0.84423 0.28739 0.69802 0.0
H812 H 0.79271 0.3458 0.71886 0.0
H813 H 0.77583 0.27604 0.6943 0.0
S814 S 0.96514 0.35655 0.72123 0.0
N815 N 0.94165 0.38552 0.73233 0.0
N816 N 0.92394 0.31082 0.7052 0.0
C817 C 0.88836 0.3175 0.70852 0.0
C818 C 0.898 0.35798 0.72317 0.0
C819 C 0.16571 0.98998 0.64683 0.0
C820 C 0.18453 0.965 0.63635 0.0
C821 C 0.19323 0.03276 0.65994 0.0
C822 C 0.24054 0.05204 0.66309 0.0
H823 H 0.12946 0.97658 0.64467 0.0
H824 H 0.17726 0.05085 0.66763 0.0
S825 S 0.30625 0.99934 0.64014 0.0
N826 N 0.25312 0.96188 0.63051 0.0
N827 N 0.30493 0.04228 0.65521 0.0
C828 C 0.2598 0.02733 0.65279 0.0
C829 C 0.23176 0.98381 0.63939 0.0
C830 C 0.04296 0.26366 0.6454 0.0
C831 C 0.04077 0.24041 0.62339 0.0
C832 C 1.00356 0.25263 0.6569 0.0
C833 C 0.96054 0.21775 0.64686 0.0
H834 H 0.07546 0.29027 0.65388 0.0
H835 H 0.00691 0.27141 0.67383 0.0
S836 S 0.93755 0.14404 0.59043 0.0
N837 N 0.99286 0.17973 0.59255 0.0
N838 N 0.91884 0.15851 0.614 0.0
C839 C 0.95812 0.19416 0.62484 0.0
C840 C 0.9982 0.20562 0.61315 0.0
C841 C 0.85318 0.84483 0.64319 0.0
C842 C 0.80873 0.82875 0.63336 0.0
C843 C 0.86324 0.81789 0.65767 0.0
C844 C 0.82915 0.77402 0.66302 0.0
H845 H 0.88021 0.87898 0.64007 0.0
H846 H 0.89791 0.83194 0.66505 0.0
S847 S 0.7073 0.7162 0.64162 0.0
N848 N 0.73047 0.76606 0.62957 0.0
N849 N 0.74913 0.71559 0.65721 0.0
C850 C 0.78471 0.75707 0.65287 0.0
C851 C 0.77456 0.7844 0.6379 0.0
C852 C 0.04526 0.79488 0.65083 0.0
C853 C 0.04394 0.80973 0.62809 0.0
C854 C 1.00521 0.76576 0.66127 0.0
C855 C 0.96221 0.75055 0.64945 0.0
H856 H 0.07756 0.80628 0.66072 0.0
H857 H 0.00808 0.75559 0.67889 0.0
S858 S 0.94104 0.78191 0.58988 0.0
N859 N 0.99675 0.8083 0.5943 0.0
N860 N 0.92136 0.7538 0.61368 0.0
C861 C 0.96065 0.76503 0.62655 0.0
C862 C 1.0015 0.79453 0.61595 0.0
C863 C 0.23178 0.2634 0.62737 0.0
C864 C 0.18457 0.23513 0.62835 0.0
C865 C 0.26234 0.25273 0.63881 0.0
C866 C 0.24674 0.21399 0.65195 0.0
H867 H 0.24525 0.29397 0.61765 0.0
H868 H 0.29837 0.27494 0.63742 0.0
S869 S 0.12731 0.1273 0.65914 0.0
N870 N 0.12408 0.16496 0.64259 0.0
N871 N 0.18198 0.14655 0.66494 0.0
C872 C 0.20002 0.18559 0.65327 0.0
C873 C 0.16879 0.1958 0.64129 0.0
C874 C 0.85244 0.00757 0.64686 0.0
C875 C 0.80819 0.97716 0.63666 0.0
C876 C 0.86264 0.048 0.66078 0.0
C877 C 0.82888 0.05926 0.66517 0.0
H878 H 0.87936 1.0 0.64404 0.0
H879 H 0.89727 0.07051 0.66821 0.0
S880 S 0.70727 0.9899 0.64326 0.0
N881 N 0.73018 0.96041 0.63209 0.0
N882 N 0.74912 0.03603 0.65871 0.0
C883 C 0.78444 0.02907 0.6551 0.0
C884 C 0.77416 0.98811 0.6407 0.0
C885 C 0.51176 0.35303 0.71938 0.0
C886 C 0.49381 0.37791 0.73086 0.0
C887 C 0.48356 0.31147 0.70546 0.0
C888 C 0.43642 0.29341 0.70239 0.0
H889 H 0.54786 0.36555 0.72141 0.0
H890 H 0.49891 0.29334 0.69708 0.0
S891 S 0.373 0.34668 0.7278 0.0
N892 N 0.42632 0.38237 0.73789 0.0
N893 N 0.37319 0.30446 0.71132 0.0
C894 C 0.41804 0.31816 0.71361 0.0
C895 C 0.44678 0.36037 0.72797 0.0
C896 C 0.63129 0.07946 0.71857 0.0
C897 C 0.6328 0.10433 0.73984 0.0
C898 C 0.67083 0.0913 0.70702 0.0
C899 C 0.71317 0.12863 0.71628 0.0
H900 H 0.59927 0.05085 0.71074 0.0
H901 H 0.66813 0.07112 0.69072 0.0
S902 S 0.73373 0.20749 0.77024 0.0
N903 N 0.67905 0.1693 0.76894 0.0
N904 N 0.75324 0.19212 0.74732 0.0
C905 C 0.7148 0.15402 0.73745 0.0
C906 C 0.67465 0.14174 0.7492 0.0
C907 C 0.89568 0.55886 0.72754 0.0
C908 C 0.86089 0.51573 0.73329 0.0
C909 C 0.88603 0.58618 0.71296 0.0
C910 C 0.84138 0.5709 0.70366 0.0
H911 H 0.93066 0.57048 0.73341 0.0
H912 H 0.91385 0.61844 0.70816 0.0
S913 S 0.73786 0.46389 0.71686 0.0
N914 N 0.77999 0.46145 0.73096 0.0
N915 N 0.76164 0.51253 0.70371 0.0
C916 C 0.80615 0.52916 0.7106 0.0
C917 C 0.81598 0.50159 0.72539 0.0
C918 C 0.48045 0.92271 0.20457 0.0
C919 C 0.46686 0.94568 0.22104 0.0
C920 C 0.4926 0.93831 0.18201 0.0
C921 C 0.49119 0.97721 0.17489 0.0
H922 H 0.48253 0.89285 0.20931 0.0
H923 H 0.50376 0.92012 0.17013 0.0
S924 S 0.45763 0.04947 0.211 0.0
N925 N 0.4525 0.00932 0.22844 0.0
N926 N 0.47448 0.038 0.18584 0.0
C927 C 0.47625 0.99963 0.19079 0.0
C928 C 0.46423 0.98399 0.21389 0.0
C929 C 0.11818 0.57121 0.20934 0.0
C930 C 0.09579 0.53702 0.22508 0.0
C931 C 0.10117 0.56516 0.18555 0.0
C932 C 0.06091 0.52485 0.17666 0.0
H933 H 0.14876 0.60326 0.21558 0.0
H934 H 0.11877 0.59299 0.17427 0.0
S935 S 0.99115 0.42362 0.21008 0.0
N936 N 0.03253 0.4605 0.22981 0.0
N937 N 1.00061 0.44899 0.18496 0.0
C938 C 0.03903 0.4897 0.19196 0.0
C939 C 0.05653 0.49576 0.21618 0.0
C940 C 0.52799 0.53987 0.2228 0.0
C941 C 0.48325 0.52834 0.2267 0.0
C942 C 0.541 0.53804 0.19971 0.0
C943 C 0.50988 0.52517 0.17964 0.0
H944 H 0.55334 0.55109 0.23772 0.0
H945 H 0.57603 0.54813 0.19752 0.0
S946 S 0.38818 0.48974 0.18017 0.0
N947 N 0.40743 0.50221 0.20857 0.0
N948 N 0.43187 0.49851 0.16517 0.0
C949 C 0.46477 0.51244 0.18329 0.0
C950 C 0.45143 0.51398 0.20682 0.0
C951 C 0.95427 0.50723 0.8134 0.0
C952 C 0.91462 0.46635 0.80449 0.0
C953 C 0.9727 0.5125 0.83687 0.0
C954 C 0.95183 0.47729 0.85231 0.0
H955 H 0.97193 0.53468 0.80192 0.0
H956 H 1.00381 0.54416 0.84292 0.0
S957 S 0.84576 0.36477 0.8379 0.0
N958 N 0.85367 0.39114 0.81317 0.0
N959 N 0.88857 0.40075 0.85716 0.0
C960 C 0.91135 0.43687 0.8438 0.0
C961 C 0.89273 0.43146 0.81991 0.0
C962 C 0.53894 0.5087 0.81982 0.0
C963 C 0.54021 0.46988 0.80999 0.0
C964 C 0.52642 0.51044 0.84309 0.0
C965 C 0.51524 0.47367 0.85747 0.0
H966 H 0.54614 0.53721 0.80917 0.0
H967 H 0.52501 0.54059 0.8498 0.0
S968 S 0.51571 0.36527 0.84049 0.0
N969 N 0.53147 0.39485 0.81682 0.0
N970 N 0.50738 0.39784 0.86032 0.0
C971 C 0.51777 0.43532 0.84808 0.0
C972 C 0.53035 0.43348 0.82441 0.0
C973 C 0.54465 0.03184 0.81888 0.0
C974 C 0.54077 0.06901 0.811 0.0
C975 C 0.53403 0.0177 0.84185 0.0
C976 C 0.51895 0.0401 0.85771 0.0
H977 H 0.55434 0.01244 0.80691 0.0
H978 H 0.53603 0.98798 0.84693 0.0
S979 S 0.50915 0.14322 0.84704 0.0
N980 N 0.52553 0.13102 0.82188 0.0
N981 N 0.50481 0.10385 0.86483 0.0
C982 C 0.51688 0.07854 0.85046 0.0
C983 C 0.52799 0.09315 0.82718 0.0
C984 C 0.15145 0.25596 0.53778 0.0
C985 C 0.13694 0.27927 0.55348 0.0
C986 C 0.16384 0.27035 0.51505 0.0
C987 C 0.16179 0.30833 0.50698 0.0
H988 H 0.1538 0.22663 0.54322 0.0
H989 H 0.17547 0.25181 0.50375 0.0
S990 S 0.12632 0.38133 0.54093 0.0
N991 N 0.12144 0.34246 0.55921 0.0
N992 N 0.14394 0.36889 0.51629 0.0
C993 C 0.14625 0.33123 0.52216 0.0
C994 C 0.13396 0.31682 0.54542 0.0
C995 C 0.76157 0.85595 0.54388 0.0
C996 C 0.74314 0.86866 0.56269 0.0
C997 C 0.74366 0.8499 0.5202 0.0
C998 C 0.70642 0.8559 0.51452 0.0
H999 H 0.79093 0.85209 0.54741 0.0
H1000 H 0.75928 0.84079 0.5062 0.0
S1001 S 0.64467 0.88714 0.55747 0.0
N1002 N 0.68434 0.88488 0.57421 0.0
N1003 N 0.65137 0.87458 0.52977 0.0
C1004 C 0.68703 0.86748 0.53326 0.0
C1005 C 0.70523 0.87362 0.55731 0.0
C1006 C 0.11426 0.84844 0.54163 0.0
C1007 C 0.14684 0.86245 0.56114 0.0
C1008 C 0.12557 0.84556 0.51819 0.0
C1009 C 0.16976 0.85615 0.51345 0.0
H1010 H 0.08014 0.84097 0.54445 0.0
H1011 H 0.09961 0.83514 0.50367 0.0
S1012 S 0.26695 0.89297 0.55843 0.0
N1013 N 0.22453 0.88517 0.57425 0.0
N1014 N 0.24608 0.88087 0.53032 0.0
C1015 C 0.20234 0.8693 0.53287 0.0
C1016 C 0.19082 0.87218 0.55666 0.0
C1017 C 0.58595 0.8244 0.15517 0.0
C1018 C 0.60496 0.8118 0.13662 0.0
C1019 C 0.60294 0.82996 0.17899 0.0
C1020 C 0.63977 0.82352 0.18505 0.0
H1021 H 0.55684 0.82853 0.15132 0.0
H1022 H 0.5869 0.83898 0.19279 0.0
S1023 S 0.7027 0.79234 0.14289 0.0
N1024 N 0.66383 0.79521 0.12574 0.0
N1025 N 0.69508 0.80457 0.17046 0.0
C1026 C 0.65975 0.81206 0.16657 0.0
C1027 C 0.64249 0.80644 0.14238 0.0
C1028 C 0.16544 0.7987 0.14558 0.0
C1029 C 0.20965 0.80849 0.14154 0.0
C1030 C 0.15291 0.80172 0.16861 0.0
C1031 C 0.18406 0.8148 0.1887 0.0
H1032 H 0.14001 0.78819 0.13075 0.0
H1033 H 0.11813 0.79273 0.1707 0.0
S1034 S 0.30485 0.8464 0.18797 0.0
N1035 N 0.28511 0.83284 0.15965 0.0
N1036 N 0.26187 0.83984 0.20301 0.0
C1037 C 0.22876 0.82577 0.18497 0.0
C1038 C 0.24153 0.82253 0.16141 0.0
C1039 C 0.21205 0.36978 0.1539 0.0
C1040 C 0.20801 0.40656 0.14561 0.0
C1041 C 0.1975 0.35343 0.17608 0.0
C1042 C 0.17807 0.37297 0.19089 0.0
H1043 H 0.22508 0.35234 0.14282 0.0
H1044 H 0.20103 0.32477 0.18154 0.0
S1045 S 0.16305 0.47254 0.1783 0.0
N1046 N 0.18682 0.46481 0.15496 0.0
N1047 N 0.1571 0.43238 0.19591 0.0
C1048 C 0.17522 0.41081 0.18317 0.0
C1049 C 0.19067 0.42793 0.16073 0.0
C1050 C 0.7842 0.60622 0.86996 0.0
C1051 C 0.81411 0.62938 0.89038 0.0
C1052 C 0.79646 0.62121 0.84723 0.0
C1053 C 0.83877 0.66024 0.84423 0.0
H1054 H 0.75176 0.5755 0.87148 0.0
H1055 H 0.77279 0.60203 0.83188 0.0
S1056 S 0.92832 0.73369 0.89226 0.0
N1057 N 0.88706 0.69393 0.90629 0.0
N1058 N 0.91018 0.72196 0.86373 0.0
C1059 C 0.86841 0.68425 0.86463 0.0
C1060 C 0.85606 0.66885 0.88765 0.0
C1061 C 0.42654 0.18718 0.87777 0.0
C1062 C 0.40708 0.19918 0.89633 0.0
C1063 C 0.41001 0.18221 0.85389 0.0
C1064 C 0.37316 0.18858 0.84779 0.0
H1065 H 0.45568 0.18312 0.88165 0.0
H1066 H 0.42641 0.1737 0.8401 0.0
S1067 S 0.3093 0.21851 0.8899 0.0
N1068 N 0.34796 0.21542 0.90711 0.0
N1069 N 0.31741 0.20691 0.86233 0.0
C1070 C 0.35277 0.19948 0.86626 0.0
C1071 C 0.36962 0.2046 0.8905 0.0
C1072 C 0.82082 0.24595 0.87628 0.0
C1073 C 0.80409 0.20739 0.88984 0.0
C1074 C 0.83303 0.24369 0.85307 0.0
C1075 C 0.82858 0.20264 0.84221 0.0
H1076 H 0.8257 0.27869 0.8839 0.0
H1077 H 0.84764 0.27492 0.84389 0.0
S1078 S 0.78164 0.09029 0.86887 0.0
N1079 N 0.78114 0.12602 0.89007 0.0
N1080 N 0.80199 0.12116 0.84597 0.0
C1081 C 0.80953 0.16308 0.85503 0.0
C1082 C 0.79758 0.16553 0.87886 0.0
C1083 C 0.2465 0.1542 0.4869 0.0
C1084 C 0.26566 0.14152 0.46847 0.0
C1085 C 0.26386 0.16068 0.51073 0.0
C1086 C 0.30125 0.15519 0.51688 0.0
H1087 H 0.21699 0.1576 0.48297 0.0
H1088 H 0.24765 0.16961 0.52447 0.0
S1089 S 0.36477 0.12433 0.47498 0.0
N1090 N 0.3252 0.12588 0.45776 0.0
N1091 N 0.35727 0.13715 0.50247 0.0
C1092 C 0.3214 0.14376 0.49849 0.0
C1093 C 0.30374 0.13713 0.47431 0.0
C1094 C 0.82501 0.13896 0.47711 0.0
C1095 C 0.86891 0.14758 0.4732 0.0
C1096 C 0.81224 0.14118 0.50019 0.0
C1097 C 0.84274 0.15172 0.52029 0.0
H1098 H 0.80002 0.12954 0.46218 0.0
H1099 H 0.77773 0.1331 0.50235 0.0
S1100 S 0.96254 0.18004 0.51975 0.0
N1101 N 0.94355 0.16905 0.49132 0.0
N1102 N 0.9196 0.17363 0.53478 0.0
C1103 C 0.88718 0.16187 0.51664 0.0
C1104 C 0.9003 0.15986 0.49308 0.0
C1105 C 0.85486 0.75323 0.49385 0.0
C1106 C 0.87405 0.7336 0.47891 0.0
C1107 C 0.84126 0.7375 0.51623 0.0
C1108 C 0.84688 0.70188 0.52493 0.0
H1109 H 0.84894 0.78016 0.48792 0.0
H1110 H 0.82467 0.75234 0.52637 0.0
S1111 S 0.90151 0.64345 0.49448 0.0
N1112 N 0.90111 0.67886 0.47533 0.0
N1113 N 0.87836 0.65148 0.51801 0.0
C1114 C 0.86893 0.68416 0.51092 0.0
C1115 C 0.88204 0.69962 0.48787 0.0
loop_
_geom_bond_atom_site_label_1
_geom_bond_atom_site_label_2
_geom_bond_distance
_geom_bond_site_symmetry_2
_ccdc_geom_bond_type
H0 C3 0.931 . S
H1 C6 0.928 . S
H2 C8 0.930 . S
C3 H0 0.931 . S
C3 C4 1.413 . S
C3 C5 1.360 . S
C4 C3 1.413 . S
C4 C8 1.429 . S
C5 C3 1.360 . S
C5 C6 1.372 . S
C6 H1 0.928 . S
C6 C5 1.372 . S
C6 C7 1.404 . S
C7 C6 1.404 . S
C7 C8 1.391 . S
C8 H2 0.930 . S
C8 C4 1.429 . S
C8 C7 1.391 . S
H9 C12 0.931 . S
H10 C15 0.928 . S
H11 C17 0.930 . S
C12 H9 0.931 . S
C12 C13 1.413 . S
C12 C14 1.360 . S
C13 C12 1.413 . S
C13 C17 1.429 . S
C14 C12 1.360 . S
C14 C15 1.372 . S
C15 H10 0.928 . S
C15 C14 1.372 . S
C15 C16 1.404 . S
C16 C15 1.404 . S
C16 C17 1.391 . S
C17 H11 0.930 . S
C17 C13 1.429 . S
C17 C16 1.391 . S
H18 C21 0.931 . S
H19 C24 0.928 . S
H20 C26 0.930 . S
C21 H18 0.931 . S
C21 C22 1.413 . S
C21 C23 1.360 . S
C22 C21 1.413 . S
C22 C26 1.429 . S
C23 C21 1.360 . S
C23 C24 1.372 . S
C24 H19 0.928 . S
C24 C23 1.372 . S
C24 C25 1.404 . S
C25 C24 1.404 . S
C25 C26 1.391 . S
C26 H20 0.930 . S
C26 C22 1.429 . S
C26 C25 1.391 . S
H27 C30 0.931 . S
H28 C33 0.928 . S
H29 C35 0.930 . S
C30 H27 0.931 . S
C30 C31 1.413 . S
C30 C32 1.360 . S
C31 C30 1.413 . S
C31 C35 1.429 . S
C32 C30 1.360 . S
C32 C33 1.372 . S
C33 H28 0.928 . S
C33 C32 1.372 . S
C33 C34 1.404 . S
C34 C33 1.404 . S
C34 C35 1.391 . S
C35 H29 0.930 . S
C35 C31 1.429 . S
C35 C34 1.391 . S
H36 C39 0.931 . S
H37 C42 0.928 . S
H38 C44 0.930 . S
C39 H36 0.931 . S
C39 C40 1.413 . S
C39 C41 1.360 . S
C40 C39 1.413 . S
C40 C44 1.429 . S
C41 C39 1.360 . S
C41 C42 1.372 . S
C42 H37 0.928 . S
C42 C41 1.372 . S
C42 C43 1.404 . S
C43 C42 1.404 . S
C43 C44 1.391 . S
C44 H38 0.930 . S
C44 C40 1.429 . S
C44 C43 1.391 . S
H45 C48 0.931 . S
H46 C51 0.928 . S
H47 C53 0.930 . S
C48 H45 0.931 . S
C48 C49 1.413 . S
C48 C50 1.360 . S
C49 C48 1.413 . S
C49 C53 1.429 . S
C50 C48 1.360 . S
C50 C51 1.372 . S
C51 H46 0.928 . S
C51 C50 1.372 . S
C51 C52 1.404 . S
C52 C51 1.404 . S
C52 C53 1.391 . S
C53 H47 0.930 . S
C53 C49 1.429 . S
C53 C52 1.391 . S
H54 C57 0.931 . S
H55 C60 0.928 . S
H56 C62 0.930 . S
C57 H54 0.931 . S
C57 C58 1.413 . S
C57 C59 1.360 . S
C58 C57 1.413 . S
C58 C62 1.429 . S
C59 C57 1.360 . S
C59 C60 1.372 . S
C60 H55 0.928 . S
C60 C59 1.372 . S
C60 C61 1.404 . S
C61 C60 1.404 . S
C61 C62 1.391 . S
C62 H56 0.930 . S
C62 C58 1.429 . S
C62 C61 1.391 . S
H63 C66 0.931 . S
H64 C69 0.928 . S
H65 C71 0.930 . S
C66 H63 0.931 . S
C66 C67 1.413 . S
C66 C68 1.360 . S
C67 C66 1.413 . S
C67 C71 1.429 . S
C68 C66 1.360 . S
C68 C69 1.372 . S
C69 H64 0.928 . S
C69 C68 1.372 . S
C69 C70 1.404 . S
C70 C69 1.404 . S
C70 C71 1.391 . S
C71 H65 0.930 . S
C71 C67 1.429 . S
C71 C70 1.391 . S
H72 C75 0.931 . S
H73 C78 0.928 . S
H74 C80 0.930 . S
C75 H72 0.931 . S
C75 C76 1.413 . S
C75 C77 1.360 . S
C76 C75 1.413 . S
C76 C80 1.429 . S
C77 C75 1.360 . S
C77 C78 1.372 . S
C78 H73 0.928 . S
C78 C77 1.372 . S
C78 C79 1.404 . S
C79 C78 1.404 . S
C79 C80 1.391 . S
C80 H74 0.930 . S
C80 C76 1.429 . S
C80 C79 1.391 . S
H81 C84 0.931 . S
H82 C87 0.928 . S
H83 C89 0.930 . S
C84 H81 0.931 . S
C84 C85 1.413 . S
C84 C86 1.360 . S
C85 C84 1.413 . S
C85 C89 1.429 . S
C86 C84 1.360 . S
C86 C87 1.372 . S
C87 H82 0.928 . S
C87 C86 1.372 . S
C87 C88 1.404 . S
C88 C87 1.404 . S
C88 C89 1.391 . S
C89 H83 0.930 . S
C89 C85 1.429 . S
C89 C88 1.391 . S
H90 C93 0.931 . S
H91 C96 0.928 . S
H92 C98 0.930 . S
C93 H90 0.931 . S
C93 C94 1.413 . S
C93 C95 1.360 . S
C94 C93 1.413 . S
C94 C98 1.429 . S
C95 C93 1.360 . S
C95 C96 1.372 . S
C96 H91 0.928 . S
C96 C95 1.372 . S
C96 C97 1.404 . S
C97 C96 1.404 . S
C97 C98 1.391 . S
C98 H92 0.930 . S
C98 C94 1.429 . S
C98 C97 1.391 . S
H99 C102 0.931 . S
H100 C105 0.928 . S
H101 C107 0.930 . S
C102 H99 0.931 . S
C102 C103 1.413 . S
C102 C104 1.360 . S
C103 C102 1.413 . S
C103 C107 1.429 . S
C104 C102 1.360 . S
C104 C105 1.372 . S
C105 H100 0.928 . S
C105 C104 1.372 . S
C105 C106 1.404 . S
C106 C105 1.404 . S
C106 C107 1.391 . S
C107 H101 0.930 . S
C107 C103 1.429 . S
C107 C106 1.391 . S
H108 C111 0.931 . S
H109 C114 0.928 . S
H110 C116 0.930 . S
C111 H108 0.931 . S
C111 C112 1.413 . S
C111 C113 1.360 . S
C112 C111 1.413 . S
C112 C116 1.429 . S
C113 C111 1.360 . S
C113 C114 1.372 . S
C114 H109 0.928 . S
C114 C113 1.372 . S
C114 C115 1.404 . S
C115 C114 1.404 . S
C115 C116 1.391 . S
C116 H110 0.930 . S
C116 C112 1.429 . S
C116 C115 1.391 . S
H117 C120 0.931 . S
H118 C123 0.928 . S
H119 C125 0.930 . S
C120 H117 0.931 . S
C120 C121 1.413 . S
C120 C122 1.360 . S
C121 C120 1.413 . S
C121 C125 1.429 . S
C122 C120 1.360 . S
C122 C123 1.372 . S
C123 H118 0.928 . S
C123 C122 1.372 . S
C123 C124 1.404 . S
C124 C123 1.404 . S
C124 C125 1.391 . S
C125 H119 0.930 . S
C125 C121 1.429 . S
C125 C124 1.391 . S
H126 C129 0.931 . S
H127 C132 0.928 . S
H128 C134 0.930 . S
C129 H126 0.931 . S
C129 C130 1.413 . S
C129 C131 1.360 . S
C130 C129 1.413 . S
C130 C134 1.429 . S
C131 C129 1.360 . S
C131 C132 1.372 . S
C132 H127 0.928 . S
C132 C131 1.372 . S
C132 C133 1.404 . S
C133 C132 1.404 . S
C133 C134 1.391 . S
C134 H128 0.930 . S
C134 C130 1.429 . S
C134 C133 1.391 . S
H135 C138 0.931 . S
H136 C141 0.928 . S
H137 C143 0.930 . S
C138 H135 0.931 . S
C138 C139 1.413 . S
C138 C140 1.360 . S
C139 C138 1.413 . S
C139 C143 1.429 . S
C140 C138 1.360 . S
C140 C141 1.372 . S
C141 H136 0.928 . S
C141 C140 1.372 . S
C141 C142 1.404 . S
C142 C141 1.404 . S
C142 C143 1.391 . S
C143 H137 0.930 . S
C143 C139 1.429 . S
C143 C142 1.391 . S
H144 C147 0.931 . S
H145 C150 0.928 . S
H146 C152 0.930 . S
C147 H144 0.931 . S
C147 C148 1.413 . S
C147 C149 1.360 . S
C148 C147 1.413 . S
C148 C152 1.429 . S
C149 C147 1.360 . S
C149 C150 1.372 . S
C150 H145 0.928 . S
C150 C149 1.372 . S
C150 C151 1.404 . S
C151 C150 1.404 . S
C151 C152 1.391 . S
C152 H146 0.930 . S
C152 C148 1.429 . S
C152 C151 1.391 . S
H153 C156 0.931 . S
H154 C159 0.928 . S
H155 C161 0.930 . S
C156 H153 0.931 . S
C156 C157 1.413 . S
C156 C158 1.360 . S
C157 C156 1.413 . S
C157 C161 1.429 . S
C158 C156 1.360 . S
C158 C159 1.372 . S
C159 H154 0.928 . S
C159 C158 1.372 . S
C159 C160 1.404 . S
C160 C159 1.404 . S
C160 C161 1.391 . S
C161 H155 0.930 . S
C161 C157 1.429 . S
C161 C160 1.391 . S
C162 Eu163 2.835 . S
C162 C164 1.500 . S
C162 O182 1.257 1_545 S
C162 O183 1.260 . S
Eu163 C162 2.835 . S
Eu163 O182 2.473 1_545 S
Eu163 O183 2.480 . S
Eu163 O184 2.430 . S
Eu163 O185 2.670 1_554 S
Eu163 O186 2.394 1_545 S
Eu163 O191 2.355 1_545 S
Eu163 O193 2.374 . S
C164 C162 1.500 . S
C164 C165 1.377 . S
C164 C169 1.377 1_545 S
C165 C164 1.377 . S
C165 C166 1.395 . S
C165 H194 0.931 . S
C166 C165 1.395 . S
C166 C167 1.383 1_545 S
C166 H195 0.931 . S
C167 C166 1.383 1_565 S
C167 C168 1.394 . S
C168 C167 1.394 . S
C168 C169 1.378 . S
C168 H196 0.931 . S
C169 C164 1.377 1_565 S
C169 C168 1.378 . S
C169 H197 0.931 . S
C170 O184 1.259 1_556 S
C170 O185 1.270 . S
C171 O186 1.251 . S
C171 O187 1.251 1_554 S
C172 Eu173 2.835 . S
C172 C174 1.500 . S
C172 O188 1.257 1_565 S
C172 O189 1.260 . S
Eu173 C172 2.835 . S
Eu173 O185 2.355 1_565 S
Eu173 O187 2.374 . S
Eu173 O188 2.473 1_565 S
Eu173 O189 2.480 . S
Eu173 O190 2.430 . S
Eu173 O191 2.670 1_556 S
Eu173 O192 2.394 1_565 S
C174 C172 1.500 . S
C174 C175 1.377 . S
C174 C179 1.377 1_565 S
C175 C174 1.377 . S
C175 C176 1.395 . S
C175 H198 0.931 . S
C176 C175 1.395 . S
C176 C177 1.383 1_565 S
C176 H199 0.931 . S
C177 C176 1.383 1_545 S
C177 C178 1.394 . S
C178 C177 1.394 . S
C178 C179 1.378 . S
C178 H200 0.931 . S
C179 C174 1.377 1_545 S
C179 C178 1.378 . S
C179 H201 0.931 . S
C180 O190 1.259 1_554 S
C180 O191 1.270 . S
C181 O192 1.251 . S
C181 O193 1.251 1_556 S
O182 C162 1.257 1_565 S
O182 Eu163 2.473 1_565 S
O183 C162 1.260 . S
O183 Eu163 2.480 . S
O184 Eu163 2.430 . S
O184 C170 1.259 1_554 S
O185 Eu163 2.670 1_556 S
O185 C170 1.270 . S
O185 Eu173 2.355 1_545 S
O186 Eu163 2.394 1_565 S
O186 C171 1.251 . S
O187 C171 1.251 1_556 S
O187 Eu173 2.374 . S
O188 C172 1.257 1_545 S
O188 Eu173 2.473 1_545 S
O189 C172 1.260 . S
O189 Eu173 2.480 . S
O190 Eu173 2.430 . S
O190 C180 1.259 1_556 S
O191 Eu163 2.355 1_565 S
O191 Eu173 2.670 1_554 S
O191 C180 1.270 . S
O192 Eu173 2.394 1_545 S
O192 C181 1.251 . S
O193 Eu163 2.374 . S
O193 C181 1.251 1_554 S
H194 C165 0.931 . S
H195 C166 0.931 . S
H196 C168 0.931 . S
H197 C169 0.931 . S
H198 C175 0.931 . S
H199 C176 0.931 . S
H200 C178 0.931 . S
H201 C179 0.931 . S
C202 Eu203 2.835 . S
C202 C204 1.500 1_655 S
C202 O222 1.257 1_655 S
C202 O223 1.260 . S
Eu203 C202 2.835 . S
Eu203 O222 2.473 1_655 S
Eu203 O223 2.480 . S
Eu203 O224 2.430 . S
Eu203 O225 2.670 1_554 S
Eu203 O226 2.394 1_655 S
Eu203 O231 2.355 1_655 S
Eu203 O233 2.374 . S
C204 C202 1.500 1_455 S
C204 C205 1.377 1_455 S
C204 C209 1.377 . S
C205 C204 1.377 1_655 S
C205 C206 1.395 . S
C205 H234 0.931 . S
C206 C205 1.395 . S
C206 C207 1.383 1_655 S
C206 H235 0.931 . S
C207 C206 1.383 1_455 S
C207 C208 1.394 . S
C208 C207 1.394 . S
C208 C209 1.378 . S
C208 H236 0.931 . S
C209 C204 1.377 . S
C209 C208 1.378 . S
C209 H237 0.931 . S
C210 O224 1.259 1_556 S
C210 O225 1.270 . S
C211 O226 1.251 . S
C211 O227 1.251 . S
C212 Eu213 2.835 . S
C212 C214 1.500 1_455 S
C212 O228 1.257 1_455 S
C212 O229 1.260 . S
Eu213 C212 2.835 . S
Eu213 O225 2.355 1_455 S
Eu213 O227 2.374 1_556 S
Eu213 O228 2.473 1_455 S
Eu213 O229 2.480 . S
Eu213 O230 2.430 . S
Eu213 O231 2.670 1_556 S
Eu213 O232 2.394 1_455 S
C214 C212 1.500 1_655 S
C214 C215 1.377 1_655 S
C214 C219 1.377 . S
C215 C214 1.377 1_455 S
C215 C216 1.395 . S
C215 H238 0.931 . S
C216 C215 1.395 . S
C216 C217 1.383 1_455 S
C216 H239 0.931 . S
C217 C216 1.383 1_655 S
C217 C218 1.394 . S
C218 C217 1.394 . S
C218 C219 1.378 . S
C218 H240 0.931 . S
C219 C214 1.377 . S
C219 C218 1.378 . S
C219 H241 0.931 . S
C220 O230 1.259 1_554 S
C220 O231 1.270 . S
C221 O232 1.251 . S
C221 O233 1.251 1_556 S
O222 C202 1.257 1_455 S
O222 Eu203 2.473 1_455 S
O223 C202 1.260 . S
O223 Eu203 2.480 . S
O224 Eu203 2.430 . S
O224 C210 1.259 1_554 S
O225 Eu203 2.670 1_556 S
O225 C210 1.270 . S
O225 Eu213 2.355 1_655 S
O226 Eu203 2.394 1_455 S
O226 C211 1.251 . S
O227 C211 1.251 . S
O227 Eu213 2.374 1_554 S
O228 C212 1.257 1_655 S
O228 Eu213 2.473 1_655 S
O229 C212 1.260 . S
O229 Eu213 2.480 . S
O230 Eu213 2.430 . S
O230 C220 1.259 1_556 S
O231 Eu203 2.355 1_455 S
O231 Eu213 2.670 1_554 S
O231 C220 1.270 . S
O232 Eu213 2.394 1_655 S
O232 C221 1.251 . S
O233 Eu203 2.374 . S
O233 C221 1.251 1_554 S
H234 C205 0.931 . S
H235 C206 0.931 . S
H236 C208 0.931 . S
H237 C209 0.931 . S
H238 C215 0.931 . S
H239 C216 0.931 . S
H240 C218 0.931 . S
H241 C219 0.931 . S
C242 Eu243 2.835 . S
C242 C244 1.500 . S
C242 O262 1.257 . S
C242 O263 1.260 . S
Eu243 C242 2.835 . S
Eu243 O262 2.473 . S
Eu243 O263 2.480 . S
Eu243 O264 2.430 . S
Eu243 O265 2.670 1_556 S
Eu243 O266 2.394 . S
Eu243 O271 2.355 . S
Eu243 O273 2.374 . S
C244 C242 1.500 . S
C244 C245 1.377 . S
C244 C249 1.377 . S
C245 C244 1.377 . S
C245 C246 1.395 . S
C245 H274 0.931 . S
C246 C245 1.395 . S
C246 C247 1.383 . S
C246 H275 0.931 . S
C247 C246 1.383 . S
C247 C248 1.394 . S
C248 C247 1.394 . S
C248 C249 1.378 . S
C248 H276 0.931 . S
C249 C244 1.377 . S
C249 C248 1.378 . S
C249 H277 0.931 . S
C250 O264 1.259 1_554 S
C250 O265 1.270 . S
C251 O266 1.251 . S
C251 O267 1.251 1_556 S
C252 Eu253 2.835 . S
C252 C254 1.500 . S
C252 O268 1.257 . S
C252 O269 1.260 . S
Eu253 C252 2.835 . S
Eu253 O265 2.355 . S
Eu253 O267 2.374 . S
Eu253 O268 2.473 . S
Eu253 O269 2.480 . S
Eu253 O270 2.430 . S
Eu253 O271 2.670 1_554 S
Eu253 O272 2.394 . S
C254 C252 1.500 . S
C254 C255 1.377 . S
C254 C259 1.377 . S
C255 C254 1.377 . S
C255 C256 1.395 . S
C255 H278 0.931 . S
C256 C255 1.395 . S
C256 C257 1.383 . S
C256 H279 0.931 . S
C257 C256 1.383 . S
C257 C258 1.394 . S
C258 C257 1.394 . S
C258 C259 1.378 . S
C258 H280 0.931 . S
C259 C254 1.377 . S
C259 C258 1.378 . S
C259 H281 0.931 . S
C260 O270 1.259 1_556 S
C260 O271 1.270 . S
C261 O272 1.251 . S
C261 O273 1.251 1_554 S
O262 C242 1.257 . S
O262 Eu243 2.473 . S
O263 C242 1.260 . S
O263 Eu243 2.480 . S
O264 Eu243 2.430 . S
O264 C250 1.259 1_556 S
O265 Eu243 2.670 1_554 S
O265 C250 1.270 . S
O265 Eu253 2.355 . S
O266 Eu243 2.394 . S
O266 C251 1.251 . S
O267 C251 1.251 1_554 S
O267 Eu253 2.374 . S
O268 C252 1.257 . S
O268 Eu253 2.473 . S
O269 C252 1.260 . S
O269 Eu253 2.480 . S
O270 Eu253 2.430 . S
O270 C260 1.259 1_554 S
O271 Eu243 2.355 . S
O271 Eu253 2.670 1_556 S
O271 C260 1.270 . S
O272 Eu253 2.394 . S
O272 C261 1.251 . S
O273 Eu243 2.374 . S
O273 C261 1.251 1_556 S
H274 C245 0.931 . S
H275 C246 0.931 . S
H276 C248 0.931 . S
H277 C249 0.931 . S
H278 C255 0.931 . S
H279 C256 0.931 . S
H280 C258 0.931 . S
H281 C259 0.931 . S
C282 Eu283 2.835 . S
C282 C284 1.500 . S
C282 O302 1.257 . S
C282 O303 1.260 . S
Eu283 C282 2.835 . S
Eu283 O302 2.473 . S
Eu283 O303 2.480 . S
Eu283 O304 2.430 . S
Eu283 O305 2.670 . S
Eu283 O306 2.394 . S
Eu283 O311 2.355 . S
Eu283 O313 2.374 . S
C284 C282 1.500 . S
C284 C285 1.377 . S
C284 C289 1.377 . S
C285 C284 1.377 . S
C285 C286 1.395 . S
C285 H314 0.931 . S
C286 C285 1.395 . S
C286 C287 1.383 . S
C286 H315 0.931 . S
C287 C286 1.383 . S
C287 C288 1.394 . S
C288 C287 1.394 . S
C288 C289 1.378 . S
C288 H316 0.931 . S
C289 C284 1.377 . S
C289 C288 1.378 . S
C289 H317 0.931 . S
C290 O304 1.259 . S
C290 O305 1.270 . S
C291 O306 1.251 . S
C291 O307 1.251 . S
C292 Eu293 2.835 . S
C292 C294 1.500 . S
C292 O308 1.257 . S
C292 O309 1.260 . S
Eu293 C292 2.835 . S
Eu293 O305 2.355 . S
Eu293 O307 2.374 . S
Eu293 O308 2.473 . S
Eu293 O309 2.480 . S
Eu293 O310 2.430 . S
Eu293 O311 2.670 . S
Eu293 O312 2.394 . S
C294 C292 1.500 . S
C294 C295 1.377 . S
C294 C299 1.377 . S
C295 C294 1.377 . S
C295 C296 1.395 . S
C295 H318 0.931 . S
C296 C295 1.395 . S
C296 C297 1.383 . S
C296 H319 0.931 . S
C297 C296 1.383 . S
C297 C298 1.394 . S
C298 C297 1.394 . S
C298 C299 1.378 . S
C298 H320 0.931 . S
C299 C294 1.377 . S
C299 C298 1.378 . S
C299 H321 0.931 . S
C300 O310 1.259 . S
C300 O311 1.270 . S
C301 O312 1.251 . S
C301 O313 1.251 . S
O302 C282 1.257 . S
O302 Eu283 2.473 . S
O303 C282 1.260 . S
O303 Eu283 2.480 . S
O304 Eu283 2.430 . S
O304 C290 1.259 . S
O305 Eu283 2.670 . S
O305 C290 1.270 . S
O305 Eu293 2.355 . S
O306 Eu283 2.394 . S
O306 C291 1.251 . S
O307 C291 1.251 . S
O307 Eu293 2.374 . S
O308 C292 1.257 . S
O308 Eu293 2.473 . S
O309 C292 1.260 . S
O309 Eu293 2.480 . S
O310 Eu293 2.430 . S
O310 C300 1.259 . S
O311 Eu283 2.355 . S
O311 Eu293 2.670 . S
O311 C300 1.270 . S
O312 Eu293 2.394 . S
O312 C301 1.251 . S
O313 Eu283 2.374 . S
O313 C301 1.251 . S
H314 C285 0.931 . S
H315 C286 0.931 . S
H316 C288 0.931 . S
H317 C289 0.931 . S
H318 C295 0.931 . S
H319 C296 0.931 . S
H320 C298 0.931 . S
H321 C299 0.931 . S
C322 Eu323 2.835 . S
C322 C324 1.500 . S
C322 O342 1.257 . S
C322 O343 1.260 . S
Eu323 C322 2.835 . S
Eu323 O342 2.473 . S
Eu323 O343 2.480 . S
Eu323 O344 2.430 . S
Eu323 O345 2.670 . S
Eu323 O346 2.394 . S
Eu323 O351 2.355 . S
Eu323 O353 2.374 . S
C324 C322 1.500 . S
C324 C325 1.377 . S
C324 C329 1.377 . S
C325 C324 1.377 . S
C325 C326 1.395 . S
C325 H354 0.931 . S
C326 C325 1.395 . S
C326 C327 1.383 . S
C326 H355 0.931 . S
C327 C326 1.383 . S
C327 C328 1.394 . S
C328 C327 1.394 . S
C328 C329 1.378 . S
C328 H356 0.931 . S
C329 C324 1.377 . S
C329 C328 1.378 . S
C329 H357 0.931 . S
C330 O344 1.259 . S
C330 O345 1.270 . S
C331 O346 1.251 . S
C331 O347 1.251 . S
C332 Eu333 2.835 . S
C332 C334 1.500 . S
C332 O348 1.257 . S
C332 O349 1.260 . S
Eu333 C332 2.835 . S
Eu333 O345 2.355 . S
Eu333 O347 2.374 . S
Eu333 O348 2.473 . S
Eu333 O349 2.480 . S
Eu333 O350 2.430 . S
Eu333 O351 2.670 . S
Eu333 O352 2.394 . S
C334 C332 1.500 . S
C334 C335 1.377 . S
C334 C339 1.377 . S
C335 C334 1.377 . S
C335 C336 1.395 . S
C335 H358 0.931 . S
C336 C335 1.395 . S
C336 C337 1.383 . S
C336 H359 0.931 . S
C337 C336 1.383 . S
C337 C338 1.394 . S
C338 C337 1.394 . S
C338 C339 1.378 . S
C338 H360 0.931 . S
C339 C334 1.377 . S
C339 C338 1.378 . S
C339 H361 0.931 . S
C340 O350 1.259 . S
C340 O351 1.270 . S
C341 O352 1.251 . S
C341 O353 1.251 . S
O342 C322 1.257 . S
O342 Eu323 2.473 . S
O343 C322 1.260 . S
O343 Eu323 2.480 . S
O344 Eu323 2.430 . S
O344 C330 1.259 . S
O345 Eu323 2.670 . S
O345 C330 1.270 . S
O345 Eu333 2.355 . S
O346 Eu323 2.394 . S
O346 C331 1.251 . S
O347 C331 1.251 . S
O347 Eu333 2.374 . S
O348 C332 1.257 . S
O348 Eu333 2.473 . S
O349 C332 1.260 . S
O349 Eu333 2.480 . S
O350 Eu333 2.430 . S
O350 C340 1.259 . S
O351 Eu323 2.355 . S
O351 Eu333 2.670 . S
O351 C340 1.270 . S
O352 Eu333 2.394 . S
O352 C341 1.251 . S
O353 Eu323 2.374 . S
O353 C341 1.251 . S
H354 C325 0.931 . S
H355 C326 0.931 . S
H356 C328 0.931 . S
H357 C329 0.931 . S
H358 C335 0.931 . S
H359 C336 0.931 . S
H360 C338 0.931 . S
H361 C339 0.931 . S
C362 Eu363 2.835 . S
C362 C364 1.500 . S
C362 O382 1.257 . S
C362 O383 1.260 . S
Eu363 C362 2.835 . S
Eu363 O382 2.473 . S
Eu363 O383 2.480 . S
Eu363 O384 2.430 . S
Eu363 O385 2.670 . S
Eu363 O386 2.394 . S
Eu363 O391 2.355 . S
Eu363 O393 2.374 . S
C364 C362 1.500 . S
C364 C365 1.377 . S
C364 C369 1.377 . S
C365 C364 1.377 . S
C365 C366 1.395 . S
C365 H394 0.931 . S
C366 C365 1.395 . S
C366 C367 1.383 . S
C366 H395 0.931 . S
C367 C366 1.383 . S
C367 C368 1.394 . S
C368 C367 1.394 . S
C368 C369 1.378 . S
C368 H396 0.931 . S
C369 C364 1.377 . S
C369 C368 1.378 . S
C369 H397 0.931 . S
C370 O384 1.259 . S
C370 O385 1.270 . S
C371 O386 1.251 . S
C371 O387 1.251 . S
C372 Eu373 2.835 . S
C372 C374 1.500 . S
C372 O388 1.257 . S
C372 O389 1.260 . S
Eu373 C372 2.835 . S
Eu373 O385 2.355 . S
Eu373 O387 2.374 . S
Eu373 O388 2.473 . S
Eu373 O389 2.480 . S
Eu373 O390 2.430 . S
Eu373 O391 2.670 . S
Eu373 O392 2.394 . S
C374 C372 1.500 . S
C374 C375 1.377 . S
C374 C379 1.377 . S
C375 C374 1.377 . S
C375 C376 1.395 . S
C375 H398 0.931 . S
C376 C375 1.395 . S
C376 C377 1.383 . S
C376 H399 0.931 . S
C377 C376 1.383 . S
C377 C378 1.394 . S
C378 C377 1.394 . S
C378 C379 1.378 . S
C378 H400 0.931 . S
C379 C374 1.377 . S
C379 C378 1.378 . S
C379 H401 0.931 . S
C380 O390 1.259 . S
C380 O391 1.270 . S
C381 O392 1.251 . S
C381 O393 1.251 . S
O382 C362 1.257 . S
O382 Eu363 2.473 . S
O383 C362 1.260 . S
O383 Eu363 2.480 . S
O384 Eu363 2.430 . S
O384 C370 1.259 . S
O385 Eu363 2.670 . S
O385 C370 1.270 . S
O385 Eu373 2.355 . S
O386 Eu363 2.394 . S
O386 C371 1.251 . S
O387 C371 1.251 . S
O387 Eu373 2.374 . S
O388 C372 1.257 . S
O388 Eu373 2.473 . S
O389 C372 1.260 . S
O389 Eu373 2.480 . S
O390 Eu373 2.430 . S
O390 C380 1.259 . S
O391 Eu363 2.355 . S
O391 Eu373 2.670 . S
O391 C380 1.270 . S
O392 Eu373 2.394 . S
O392 C381 1.251 . S
O393 Eu363 2.374 . S
O393 C381 1.251 . S
H394 C365 0.931 . S
H395 C366 0.931 . S
H396 C368 0.931 . S
H397 C369 0.931 . S
H398 C375 0.931 . S
H399 C376 0.931 . S
H400 C378 0.931 . S
H401 C379 0.931 . S
C402 Eu403 2.835 . S
C402 C404 1.500 . S
C402 O422 1.257 . S
C402 O423 1.260 . S
Eu403 C402 2.835 . S
Eu403 O422 2.473 . S
Eu403 O423 2.480 . S
Eu403 O424 2.430 . S
Eu403 O425 2.670 . S
Eu403 O426 2.394 . S
Eu403 O431 2.355 . S
Eu403 O433 2.374 . S
C404 C402 1.500 . S
C404 C405 1.377 . S
C404 C409 1.377 . S
C405 C404 1.377 . S
C405 C406 1.395 . S
C405 H434 0.931 . S
C406 C405 1.395 . S
C406 C407 1.383 . S
C406 H435 0.931 . S
C407 C406 1.383 . S
C407 C408 1.394 . S
C408 C407 1.394 . S
C408 C409 1.378 . S
C408 H436 0.931 . S
C409 C404 1.377 . S
C409 C408 1.378 . S
C409 H437 0.931 . S
C410 O424 1.259 . S
C410 O425 1.270 . S
C411 O426 1.251 . S
C411 O427 1.251 . S
C412 Eu413 2.835 . S
C412 C414 1.500 . S
C412 O428 1.257 . S
C412 O429 1.260 . S
Eu413 C412 2.835 . S
Eu413 O425 2.355 . S
Eu413 O427 2.374 . S
Eu413 O428 2.473 . S
Eu413 O429 2.480 . S
Eu413 O430 2.430 . S
Eu413 O431 2.670 . S
Eu413 O432 2.394 . S
C414 C412 1.500 . S
C414 C415 1.377 . S
C414 C419 1.377 . S
C415 C414 1.377 . S
C415 C416 1.395 . S
C415 H438 0.931 . S
C416 C415 1.395 . S
C416 C417 1.383 . S
C416 H439 0.931 . S
C417 C416 1.383 . S
C417 C418 1.394 . S
C418 C417 1.394 . S
C418 C419 1.378 . S
C418 H440 0.931 . S
C419 C414 1.377 . S
C419 C418 1.378 . S
C419 H441 0.931 . S
C420 O430 1.259 . S
C420 O431 1.270 . S
C421 O432 1.251 . S
C421 O433 1.251 . S
O422 C402 1.257 . S
O422 Eu403 2.473 . S
O423 C402 1.260 . S
O423 Eu403 2.480 . S
O424 Eu403 2.430 . S
O424 C410 1.259 . S
O425 Eu403 2.670 . S
O425 C410 1.270 . S
O425 Eu413 2.355 . S
O426 Eu403 2.394 . S
O426 C411 1.251 . S
O427 C411 1.251 . S
O427 Eu413 2.374 . S
O428 C412 1.257 . S
O428 Eu413 2.473 . S
O429 C412 1.260 . S
O429 Eu413 2.480 . S
O430 Eu413 2.430 . S
O430 C420 1.259 . S
O431 Eu403 2.355 . S
O431 Eu413 2.670 . S
O431 C420 1.270 . S
O432 Eu413 2.394 . S
O432 C421 1.251 . S
O433 Eu403 2.374 . S
O433 C421 1.251 . S
H434 C405 0.931 . S
H435 C406 0.931 . S
H436 C408 0.931 . S
H437 C409 0.931 . S
H438 C415 0.931 . S
H439 C416 0.931 . S
H440 C418 0.931 . S
H441 C419 0.931 . S
C442 Eu443 2.835 . S
C442 C444 1.500 . S
C442 O462 1.257 . S
C442 O463 1.260 . S
Eu443 C442 2.835 . S
Eu443 O462 2.473 . S
Eu443 O463 2.480 . S
Eu443 O464 2.430 . S
Eu443 O465 2.670 . S
Eu443 O466 2.394 . S
Eu443 O471 2.355 . S
Eu443 O473 2.374 . S
C444 C442 1.500 . S
C444 C445 1.377 . S
C444 C449 1.377 . S
C445 C444 1.377 . S
C445 C446 1.395 . S
C445 H474 0.931 . S
C446 C445 1.395 . S
C446 C447 1.383 . S
C446 H475 0.931 . S
C447 C446 1.383 . S
C447 C448 1.394 . S
C448 C447 1.394 . S
C448 C449 1.378 . S
C448 H476 0.931 . S
C449 C444 1.377 . S
C449 C448 1.378 . S
C449 H477 0.931 . S
C450 O464 1.259 . S
C450 O465 1.270 . S
C451 O466 1.251 . S
C451 O467 1.251 . S
C452 Eu453 2.835 . S
C452 C454 1.500 . S
C452 O468 1.257 . S
C452 O469 1.260 . S
Eu453 C452 2.835 . S
Eu453 O465 2.355 . S
Eu453 O467 2.374 . S
Eu453 O468 2.473 . S
Eu453 O469 2.480 . S
Eu453 O470 2.430 . S
Eu453 O471 2.670 . S
Eu453 O472 2.394 . S
C454 C452 1.500 . S
C454 C455 1.377 . S
C454 C459 1.377 . S
C455 C454 1.377 . S
C455 C456 1.395 . S
C455 H478 0.931 . S
C456 C455 1.395 . S
C456 C457 1.383 . S
C456 H479 0.931 . S
C457 C456 1.383 . S
C457 C458 1.394 . S
C458 C457 1.394 . S
C458 C459 1.378 . S
C458 H480 0.931 . S
C459 C454 1.377 . S
C459 C458 1.378 . S
C459 H481 0.931 . S
C460 O470 1.259 . S
C460 O471 1.270 . S
C461 O472 1.251 . S
C461 O473 1.251 . S
O462 C442 1.257 . S
O462 Eu443 2.473 . S
O463 C442 1.260 . S
O463 Eu443 2.480 . S
O464 Eu443 2.430 . S
O464 C450 1.259 . S
O465 Eu443 2.670 . S
O465 C450 1.270 . S
O465 Eu453 2.355 . S
O466 Eu443 2.394 . S
O466 C451 1.251 . S
O467 C451 1.251 . S
O467 Eu453 2.374 . S
O468 C452 1.257 . S
O468 Eu453 2.473 . S
O469 C452 1.260 . S
O469 Eu453 2.480 . S
O470 Eu453 2.430 . S
O470 C460 1.259 . S
O471 Eu443 2.355 . S
O471 Eu453 2.670 . S
O471 C460 1.270 . S
O472 Eu453 2.394 . S
O472 C461 1.251 . S
O473 Eu443 2.374 . S
O473 C461 1.251 . S
H474 C445 0.931 . S
H475 C446 0.931 . S
H476 C448 0.931 . S
H477 C449 0.931 . S
H478 C455 0.931 . S
H479 C456 0.931 . S
H480 C458 0.931 . S
H481 C459 0.931 . S
C482 Eu483 2.835 . S
C482 C484 1.500 . S
C482 O502 1.257 . S
C482 O503 1.260 . S
Eu483 C482 2.835 . S
Eu483 O502 2.473 . S
Eu483 O503 2.480 . S
Eu483 O504 2.430 . S
Eu483 O505 2.670 . S
Eu483 O506 2.394 . S
Eu483 O511 2.355 . S
Eu483 O513 2.374 . S
C484 C482 1.500 . S
C484 C485 1.377 . S
C484 C489 1.377 . S
C485 C484 1.377 . S
C485 C486 1.395 . S
C485 H514 0.931 . S
C486 C485 1.395 . S
C486 C487 1.383 . S
C486 H515 0.931 . S
C487 C486 1.383 . S
C487 C488 1.394 . S
C488 C487 1.394 . S
C488 C489 1.378 . S
C488 H516 0.931 . S
C489 C484 1.377 . S
C489 C488 1.378 . S
C489 H517 0.931 . S
C490 O504 1.259 . S
C490 O505 1.270 . S
C491 O506 1.251 . S
C491 O507 1.251 . S
C492 Eu493 2.835 . S
C492 C494 1.500 . S
C492 O508 1.257 . S
C492 O509 1.260 . S
Eu493 C492 2.835 . S
Eu493 O505 2.355 . S
Eu493 O507 2.374 . S
Eu493 O508 2.473 . S
Eu493 O509 2.480 . S
Eu493 O510 2.430 . S
Eu493 O511 2.670 . S
Eu493 O512 2.394 . S
C494 C492 1.500 . S
C494 C495 1.377 . S
C494 C499 1.377 . S
C495 C494 1.377 . S
C495 C496 1.395 . S
C495 H518 0.931 . S
C496 C495 1.395 . S
C496 C497 1.383 . S
C496 H519 0.931 . S
C497 C496 1.383 . S
C497 C498 1.394 . S
C498 C497 1.394 . S
C498 C499 1.378 . S
C498 H520 0.931 . S
C499 C494 1.377 . S
C499 C498 1.378 . S
C499 H521 0.931 . S
C500 O510 1.259 . S
C500 O511 1.270 . S
C501 O512 1.251 . S
C501 O513 1.251 . S
O502 C482 1.257 . S
O502 Eu483 2.473 . S
O503 C482 1.260 . S
O503 Eu483 2.480 . S
O504 Eu483 2.430 . S
O504 C490 1.259 . S
O505 Eu483 2.670 . S
O505 C490 1.270 . S
O505 Eu493 2.355 . S
O506 Eu483 2.394 . S
O506 C491 1.251 . S
O507 C491 1.251 . S
O507 Eu493 2.374 . S
O508 C492 1.257 . S
O508 Eu493 2.473 . S
O509 C492 1.260 . S
O509 Eu493 2.480 . S
O510 Eu493 2.430 . S
O510 C500 1.259 . S
O511 Eu483 2.355 . S
O511 Eu493 2.670 . S
O511 C500 1.270 . S
O512 Eu493 2.394 . S
O512 C501 1.251 . S
O513 Eu483 2.374 . S
O513 C501 1.251 . S
H514 C485 0.931 . S
H515 C486 0.931 . S
H516 C488 0.931 . S
H517 C489 0.931 . S
H518 C495 0.931 . S
H519 C496 0.931 . S
H520 C498 0.931 . S
H521 C499 0.931 . S
C522 C523 1.369 . S
C522 C524 1.419 . S
C522 H526 0.930 . S
C523 C522 1.369 . S
C523 C532 1.429 . S
C524 C522 1.419 . S
C524 C525 1.363 . S
C524 H527 0.929 . S
C525 C524 1.363 . S
C525 C531 1.428 . S
H526 C522 0.930 . S
H527 C524 0.929 . S
S528 N529 1.613 . S
S528 N530 1.610 . S
N529 S528 1.613 . S
N529 C532 1.350 . S
N530 S528 1.610 . S
N530 C531 1.351 . S
C531 C525 1.428 . S
C531 N530 1.351 . S
C531 C532 1.434 . S
C532 C523 1.429 . S
C532 N529 1.350 . S
C532 C531 1.434 . S
C533 C534 1.369 . S
C533 C535 1.419 . S
C533 H537 0.930 . S
C534 C533 1.369 . S
C534 C543 1.429 . S
C535 C533 1.419 . S
C535 C536 1.363 . S
C535 H538 0.929 . S
C536 C535 1.363 . S
C536 C542 1.428 . S
H537 C533 0.930 . S
H538 C535 0.929 . S
S539 N540 1.613 . S
S539 N541 1.610 . S
N540 S539 1.613 . S
N540 C543 1.350 . S
N541 S539 1.610 . S
N541 C542 1.351 . S
C542 C536 1.428 . S
C542 N541 1.351 . S
C542 C543 1.434 . S
C543 C534 1.429 . S
C543 N540 1.350 . S
C543 C542 1.434 . S
C544 C545 1.369 . S
C544 C546 1.419 . S
C544 H548 0.930 . S
C545 C544 1.369 . S
C545 C554 1.429 . S
C546 C544 1.419 . S
C546 C547 1.363 . S
C546 H549 0.929 . S
C547 C546 1.363 . S
C547 C553 1.428 . S
H548 C544 0.930 . S
H549 C546 0.929 . S
S550 N551 1.613 . S
S550 N552 1.610 . S
N551 S550 1.613 . S
N551 C554 1.350 . S
N552 S550 1.610 . S
N552 C553 1.351 . S
C553 C547 1.428 . S
C553 N552 1.351 . S
C553 C554 1.434 . S
C554 C545 1.429 . S
C554 N551 1.350 . S
C554 C553 1.434 . S
C555 C556 1.369 . S
C555 C557 1.419 . S
C555 H559 0.930 . S
C556 C555 1.369 . S
C556 C565 1.429 . S
C557 C555 1.419 . S
C557 C558 1.363 . S
C557 H560 0.929 . S
C558 C557 1.363 . S
C558 C564 1.428 . S
H559 C555 0.930 . S
H560 C557 0.929 . S
S561 N562 1.613 1_554 S
S561 N563 1.610 . S
N562 S561 1.613 1_556 S
N562 C565 1.350 . S
N563 S561 1.610 . S
N563 C564 1.351 1_554 S
C564 C558 1.428 . S
C564 N563 1.351 1_556 S
C564 C565 1.434 . S
C565 C556 1.429 . S
C565 N562 1.350 . S
C565 C564 1.434 . S
C566 C567 1.369 . S
C566 C568 1.419 . S
C566 H570 0.930 . S
C567 C566 1.369 . S
C567 C576 1.429 . S
C568 C566 1.419 . S
C568 C569 1.363 . S
C568 H571 0.929 . S
C569 C568 1.363 . S
C569 C575 1.428 . S
H570 C566 0.930 . S
H571 C568 0.929 . S
S572 N573 1.613 1_554 S
S572 N574 1.610 1_554 S
N573 S572 1.613 1_556 S
N573 C576 1.350 . S
N574 S572 1.610 1_556 S
N574 C575 1.366 . S
C575 C569 1.428 . S
C575 N574 1.366 . S
C575 C576 1.434 . S
C576 C567 1.429 . S
C576 N573 1.350 . S
C576 C575 1.434 . S
C577 C578 1.369 . S
C577 C579 1.419 . S
C577 H581 0.930 . S
C578 C577 1.369 . S
C578 C587 1.429 . S
C579 C577 1.419 . S
C579 C580 1.363 . S
C579 H582 0.929 . S
C580 C579 1.363 . S
C580 C586 1.444 . S
H581 C577 0.930 . S
H582 C579 0.929 . S
S583 N584 1.613 . S
S583 N585 1.610 . S
N584 S583 1.613 . S
N584 C587 1.350 1_554 S
N585 S583 1.610 . S
N585 C586 1.326 1_554 S
C586 C580 1.444 . S
C586 N585 1.326 1_556 S
C586 C587 1.444 . S
C587 C578 1.429 . S
C587 N584 1.350 1_556 S
C587 C586 1.444 . S
C588 C589 1.369 . S
C588 C590 1.419 . S
C588 H592 0.930 . S
C589 C588 1.369 . S
C589 C598 1.429 . S
C590 C588 1.419 . S
C590 C591 1.363 . S
C590 H593 0.929 . S
C591 C590 1.363 . S
C591 C597 1.428 . S
H592 C588 0.930 . S
H593 C590 0.929 . S
S594 N595 1.613 . S
S594 N596 1.610 . S
N595 S594 1.613 . S
N595 C598 1.350 . S
N596 S594 1.610 . S
N596 C597 1.351 . S
C597 C591 1.428 . S
C597 N596 1.351 . S
C597 C598 1.434 . S
C598 C589 1.429 . S
C598 N595 1.350 . S
C598 C597 1.434 . S
C599 C600 1.369 . S
C599 C601 1.419 . S
C599 H603 0.930 . S
C600 C599 1.369 . S
C600 C609 1.429 . S
C601 C599 1.419 . S
C601 C602 1.363 . S
C601 H604 0.929 . S
C602 C601 1.363 . S
C602 C608 1.428 . S
H603 C599 0.930 . S
H604 C601 0.929 . S
S605 N606 1.613 1_554 S
S605 N607 1.610 . S
N606 S605 1.613 1_556 S
N606 C609 1.350 . S
N607 S605 1.610 . S
N607 C608 1.351 1_554 S
C608 C602 1.428 . S
C608 N607 1.351 1_556 S
C608 C609 1.434 . S
C609 C600 1.429 . S
C609 N606 1.350 . S
C609 C608 1.434 . S
C610 C611 1.369 . S
C610 C612 1.419 . S
C610 H614 0.930 . S
C611 C610 1.369 . S
C611 C620 1.429 . S
C612 C610 1.419 . S
C612 C613 1.363 . S
C612 H615 0.929 . S
C613 C612 1.363 . S
C613 C619 1.428 . S
H614 C610 0.930 . S
H615 C612 0.929 . S
S616 N617 1.613 1_554 S
S616 N618 1.619 . S
N617 S616 1.613 1_556 S
N617 C620 1.350 . S
N618 S616 1.619 . S
N618 C619 1.329 1_554 S
C619 C613 1.428 . S
C619 N618 1.329 1_556 S
C619 C620 1.434 . S
C620 C611 1.429 . S
C620 N617 1.350 . S
C620 C619 1.434 . S
C621 C622 1.369 . S
C621 C623 1.419 . S
C621 H625 0.930 . S
C622 C621 1.369 . S
C622 C631 1.429 . S
C623 C621 1.419 . S
C623 C624 1.363 . S
C623 H626 0.929 . S
C624 C623 1.363 . S
C624 C630 1.428 . S
H625 C621 0.930 . S
H626 C623 0.929 . S
S627 N628 1.613 . S
S627 N629 1.610 . S
N628 S627 1.613 . S
N628 C631 1.350 . S
N629 S627 1.610 . S
N629 C630 1.351 . S
C630 C624 1.428 . S
C630 N629 1.351 . S
C630 C631 1.434 . S
C631 C622 1.429 . S
C631 N628 1.350 . S
C631 C630 1.434 . S
C632 C633 1.369 . S
C632 C634 1.419 . S
C632 H636 0.930 . S
C633 C632 1.369 . S
C633 C642 1.429 . S
C634 C632 1.419 . S
C634 C635 1.363 . S
C634 H637 0.929 . S
C635 C634 1.363 . S
C635 C641 1.428 . S
H636 C632 0.930 . S
H637 C634 0.929 . S
S638 N639 1.613 . S
S638 N640 1.610 . S
N639 S638 1.613 . S
N639 C642 1.350 . S
N640 S638 1.610 . S
N640 C641 1.351 . S
C641 C635 1.428 . S
C641 N640 1.351 . S
C641 C642 1.434 . S
C642 C633 1.429 . S
C642 N639 1.350 . S
C642 C641 1.434 . S
C643 C644 1.369 . S
C643 C645 1.419 . S
C643 H647 0.930 . S
C644 C643 1.369 . S
C644 C653 1.429 . S
C645 C643 1.419 . S
C645 C646 1.363 . S
C645 H648 0.929 1_554 S
C646 C645 1.363 . S
C646 C652 1.428 . S
H647 C643 0.930 . S
H648 C645 0.929 1_556 S
S649 N650 1.613 . S
S649 N651 1.610 . S
N650 S649 1.613 . S
N650 C653 1.350 . S
N651 S649 1.610 . S
N651 C652 1.351 . S
C652 C646 1.428 . S
C652 N651 1.351 . S
C652 C653 1.434 . S
C653 C644 1.429 . S
C653 N650 1.350 . S
C653 C652 1.434 . S
C654 C655 1.369 . S
C654 C656 1.419 1_655 S
C654 H658 0.930 . S
C655 C654 1.369 . S
C655 C664 1.429 . S
C656 C654 1.419 1_455 S
C656 C657 1.363 . S
C656 H659 0.929 . S
C657 C656 1.363 . S
C657 C663 1.428 . S
H658 C654 0.930 . S
H659 C656 0.929 . S
S660 N661 1.613 . S
S660 N662 1.610 1_655 S
N661 S660 1.613 . S
N661 C664 1.350 . S
N662 S660 1.610 1_455 S
N662 C663 1.351 . S
C663 C657 1.428 . S
C663 N662 1.351 . S
C663 C664 1.434 1_455 S
C664 C655 1.429 . S
C664 N661 1.350 . S
C664 C663 1.434 1_655 S
C665 C666 1.369 . S
C665 C667 1.419 . S
C665 H669 0.930 . S
C666 C665 1.369 . S
C666 C675 1.429 . S
C667 C665 1.419 . S
C667 C668 1.363 . S
C667 H670 0.929 . S
C668 C667 1.363 . S
C668 C674 1.428 . S
H669 C665 0.930 . S
H670 C667 0.929 . S
S671 N672 1.613 . S
S671 N673 1.610 . S
N672 S671 1.613 . S
N672 C675 1.350 . S
N673 S671 1.610 . S
N673 C674 1.351 . S
C674 C668 1.428 . S
C674 N673 1.351 . S
C674 C675 1.434 . S
C675 C666 1.429 . S
C675 N672 1.350 . S
C675 C674 1.434 . S
C676 C677 1.369 . S
C676 C678 1.424 . S
C676 H680 0.930 . S
C677 C676 1.369 . S
C677 C686 1.429 . S
C678 C676 1.424 . S
C678 C679 1.359 1_545 S
C678 H681 0.927 1_545 S
C679 C678 1.359 1_565 S
C679 C685 1.428 . S
H680 C676 0.930 . S
H681 C678 0.927 1_565 S
S682 N683 1.613 . S
S682 N684 1.610 1_545 S
N683 S682 1.613 . S
N683 C686 1.350 . S
N684 S682 1.610 1_565 S
N684 C685 1.351 . S
C685 C679 1.428 . S
C685 N684 1.351 . S
C685 C686 1.434 1_565 S
C686 C677 1.429 . S
C686 N683 1.350 . S
C686 C685 1.434 1_545 S
C687 C688 1.369 . S
C687 C689 1.419 . S
C687 H691 0.930 . S
C688 C687 1.369 . S
C688 C697 1.429 . S
C689 C687 1.419 . S
C689 C690 1.363 . S
C689 H692 0.929 . S
C690 C689 1.363 . S
C690 C696 1.428 . S
H691 C687 0.930 . S
H692 C689 0.929 . S
S693 N694 1.613 . S
S693 N695 1.610 . S
N694 S693 1.613 . S
N694 C697 1.350 . S
N695 S693 1.610 . S
N695 C696 1.351 . S
C696 C690 1.428 . S
C696 N695 1.351 . S
C696 C697 1.434 . S
C697 C688 1.429 . S
C697 N694 1.350 . S
C697 C696 1.434 . S
C698 C699 1.369 . S
C698 C700 1.419 . S
C698 H702 0.930 . S
C699 C698 1.369 . S
C699 C708 1.429 . S
C700 C698 1.419 . S
C700 C701 1.363 . S
C700 H703 0.929 . S
C701 C700 1.363 . S
C701 C707 1.428 . S
H702 C698 0.930 . S
H703 C700 0.929 . S
S704 N705 1.613 . S
S704 N706 1.610 . S
N705 S704 1.613 . S
N705 C708 1.350 . S
N706 S704 1.610 . S
N706 C707 1.351 . S
C707 C701 1.428 . S
C707 N706 1.351 . S
C707 C708 1.434 . S
C708 C699 1.429 . S
C708 N705 1.350 . S
C708 C707 1.434 . S
C709 C710 1.369 . S
C709 C711 1.419 . S
C709 H713 0.930 . S
C710 C709 1.369 . S
C710 C719 1.429 . S
C711 C709 1.419 . S
C711 C712 1.363 . S
C711 H714 0.929 . S
C712 C711 1.363 . S
C712 C718 1.428 . S
H713 C709 0.930 . S
H714 C711 0.929 . S
S715 N716 1.619 1_655 S
S715 N717 1.591 1_655 S
N716 S715 1.619 1_455 S
N716 C719 1.350 . S
N717 S715 1.591 1_455 S
N717 C718 1.351 . S
C718 C712 1.428 . S
C718 N717 1.351 . S
C718 C719 1.434 . S
C719 C710 1.429 . S
C719 N716 1.350 . S
C719 C718 1.434 . S
C720 C721 1.369 . S
C720 C722 1.419 . S
C720 H724 0.930 . S
C721 C720 1.369 . S
C721 C730 1.429 . S
C722 C720 1.419 . S
C722 C723 1.363 . S
C722 H725 0.929 . S
C723 C722 1.363 . S
C723 C729 1.428 . S
H724 C720 0.930 . S
H725 C722 0.929 . S
S726 N727 1.613 . S
S726 N728 1.610 . S
N727 S726 1.613 . S
N727 C730 1.350 . S
N728 S726 1.610 . S
N728 C729 1.351 . S
C729 C723 1.428 . S
C729 N728 1.351 . S
C729 C730 1.434 . S
C730 C721 1.429 . S
C730 N727 1.350 . S
C730 C729 1.434 . S
C731 C732 1.369 . S
C731 C733 1.419 . S
C731 H735 0.930 . S
C732 C731 1.369 . S
C732 C741 1.429 . S
C733 C731 1.419 . S
C733 C734 1.363 . S
C733 H736 0.929 . S
C734 C733 1.363 . S
C734 C740 1.428 . S
H735 C731 0.930 . S
H736 C733 0.929 . S
S737 N738 1.613 1_545 S
S737 N739 1.610 1_545 S
N738 S737 1.613 1_565 S
N738 C741 1.350 . S
N739 S737 1.610 1_565 S
N739 C740 1.351 . S
C740 C734 1.428 . S
C740 N739 1.351 . S
C740 C741 1.434 . S
C741 C732 1.429 . S
C741 N738 1.350 . S
C741 C740 1.434 . S
C742 C743 1.369 . S
C742 C744 1.419 . S
C742 H746 0.930 . S
C743 C742 1.369 . S
C743 C752 1.429 . S
C744 C742 1.419 . S
C744 C745 1.363 . S
C744 H747 0.929 . S
C745 C744 1.363 . S
C745 C751 1.428 . S
H746 C742 0.930 . S
H747 C744 0.929 . S
S748 N749 1.613 . S
S748 N750 1.610 . S
N749 S748 1.613 . S
N749 C752 1.350 . S
N750 S748 1.610 . S
N750 C751 1.351 . S
C751 C745 1.428 . S
C751 N750 1.351 . S
C751 C752 1.434 . S
C752 C743 1.429 . S
C752 N749 1.350 . S
C752 C751 1.434 . S
C753 C754 1.369 . S
C753 C755 1.419 1_545 S
C753 H757 0.930 . S
C754 C753 1.369 . S
C754 C763 1.429 . S
C755 C753 1.419 1_565 S
C755 C756 1.363 . S
C755 H758 0.929 . S
C756 C755 1.363 . S
C756 C762 1.425 1_565 S
H757 C753 0.930 . S
H758 C755 0.929 . S
S759 N760 1.613 . S
S759 N761 1.610 1_545 S
N760 S759 1.613 . S
N760 C763 1.350 . S
N761 S759 1.610 1_565 S
N761 C762 1.351 1_565 S
C762 C756 1.425 1_545 S
C762 N761 1.351 1_545 S
C762 C763 1.438 . S
C763 C754 1.429 . S
C763 N760 1.350 . S
C763 C762 1.438 . S
C764 C765 1.369 . S
C764 C766 1.419 1_655 S
C764 H768 0.930 . S
C765 C764 1.369 . S
C765 C774 1.429 . S
C766 C764 1.419 1_455 S
C766 C767 1.363 . S
C766 H769 0.929 . S
C767 C766 1.363 . S
C767 C773 1.428 . S
H768 C764 0.930 . S
H769 C766 0.929 . S
S770 N771 1.613 . S
S770 N772 1.610 1_655 S
N771 S770 1.613 . S
N771 C774 1.350 . S
N772 S770 1.610 1_455 S
N772 C773 1.351 . S
C773 C767 1.428 . S
C773 N772 1.351 . S
C773 C774 1.434 1_455 S
C774 C765 1.429 . S
C774 N771 1.350 . S
C774 C773 1.434 1_655 S
C775 C776 1.369 . S
C775 C777 1.419 . S
C775 H779 0.930 . S
C776 C775 1.369 . S
C776 C785 1.429 . S
C777 C775 1.419 . S
C777 C778 1.363 . S
C777 H780 0.929 . S
C778 C777 1.363 . S
C778 C784 1.428 . S
H779 C775 0.930 . S
H780 C777 0.929 . S
S781 N782 1.613 . S
S781 N783 1.610 . S
N782 S781 1.613 . S
N782 C785 1.350 . S
N783 S781 1.610 . S
N783 C784 1.351 . S
C784 C778 1.428 . S
C784 N783 1.351 . S
C784 C785 1.434 . S
C785 C776 1.429 . S
C785 N782 1.350 . S
C785 C784 1.434 . S
C786 C787 1.369 . S
C786 C788 1.419 . S
C786 H790 0.930 . S
C787 C786 1.369 . S
C787 C796 1.429 . S
C788 C786 1.419 . S
C788 C789 1.363 . S
C788 H791 0.929 . S
C789 C788 1.363 . S
C789 C795 1.428 . S
H790 C786 0.930 . S
H791 C788 0.929 . S
S792 N793 1.613 . S
S792 N794 1.610 . S
N793 S792 1.613 . S
N793 C796 1.350 . S
N794 S792 1.610 . S
N794 C795 1.351 . S
C795 C789 1.428 . S
C795 N794 1.351 . S
C795 C796 1.434 . S
C796 C787 1.429 . S
C796 N793 1.350 . S
C796 C795 1.434 . S
C797 C798 1.369 . S
C797 C799 1.419 . S
C797 H801 0.930 . S
C798 C797 1.369 . S
C798 C807 1.429 . S
C799 C797 1.419 . S
C799 C800 1.363 . S
C799 H802 0.929 . S
C800 C799 1.363 . S
C800 C806 1.428 . S
H801 C797 0.930 . S
H802 C799 0.929 . S
S803 N804 1.613 . S
S803 N805 1.610 . S
N804 S803 1.613 . S
N804 C807 1.350 . S
N805 S803 1.610 . S
N805 C806 1.351 . S
C806 C800 1.428 . S
C806 N805 1.351 . S
C806 C807 1.434 . S
C807 C798 1.429 . S
C807 N804 1.350 . S
C807 C806 1.434 . S
C808 C809 1.369 . S
C808 C810 1.419 . S
C808 H812 0.930 . S
C809 C808 1.369 . S
C809 C818 1.429 . S
C810 C808 1.419 . S
C810 C811 1.363 . S
C810 H813 0.929 . S
C811 C810 1.363 . S
C811 C817 1.428 . S
H812 C808 0.930 . S
H813 C810 0.929 . S
S814 N815 1.613 . S
S814 N816 1.610 . S
N815 S814 1.613 . S
N815 C818 1.350 . S
N816 S814 1.610 . S
N816 C817 1.351 . S
C817 C811 1.428 . S
C817 N816 1.351 . S
C817 C818 1.434 . S
C818 C809 1.429 . S
C818 N815 1.350 . S
C818 C817 1.434 . S
C819 C820 1.369 . S
C819 C821 1.419 1_565 S
C819 H823 0.930 . S
C820 C819 1.369 . S
C820 C829 1.429 . S
C821 C819 1.419 1_545 S
C821 C822 1.363 . S
C821 H824 0.929 . S
C822 C821 1.363 . S
C822 C828 1.428 . S
H823 C819 0.930 . S
H824 C821 0.929 . S
S825 N826 1.613 . S
S825 N827 1.610 1_565 S
N826 S825 1.613 . S
N826 C829 1.350 . S
N827 S825 1.610 1_545 S
N827 C828 1.351 . S
C828 C822 1.428 . S
C828 N827 1.351 . S
C828 C829 1.434 1_545 S
C829 C820 1.429 . S
C829 N826 1.350 . S
C829 C828 1.434 1_565 S
C830 C831 1.369 . S
C830 C832 1.419 1_455 S
C830 H834 0.930 . S
C831 C830 1.369 . S
C831 C840 1.429 1_455 S
C832 C830 1.419 1_655 S
C832 C833 1.363 . S
C832 H835 0.929 . S
C833 C832 1.363 . S
C833 C839 1.428 . S
H834 C830 0.930 . S
H835 C832 0.929 . S
S836 N837 1.613 . S
S836 N838 1.610 . S
N837 S836 1.613 . S
N837 C840 1.350 . S
N838 S836 1.610 . S
N838 C839 1.351 . S
C839 C833 1.428 . S
C839 N838 1.351 . S
C839 C840 1.434 . S
C840 C831 1.429 1_655 S
C840 N837 1.350 . S
C840 C839 1.434 . S
C841 C842 1.369 . S
C841 C843 1.419 . S
C841 H845 0.930 . S
C842 C841 1.369 . S
C842 C851 1.429 . S
C843 C841 1.419 . S
C843 C844 1.363 . S
C843 H846 0.929 . S
C844 C843 1.363 . S
C844 C850 1.428 . S
H845 C841 0.930 . S
H846 C843 0.929 . S
S847 N848 1.613 . S
S847 N849 1.610 . S
N848 S847 1.613 . S
N848 C851 1.350 . S
N849 S847 1.610 . S
N849 C850 1.351 . S
C850 C844 1.428 . S
C850 N849 1.351 . S
C850 C851 1.434 . S
C851 C842 1.429 . S
C851 N848 1.350 . S
C851 C850 1.434 . S
C852 C853 1.369 . S
C852 C854 1.419 1_455 S
C852 H856 0.930 . S
C853 C852 1.369 . S
C853 C862 1.429 . S
C854 C852 1.419 1_655 S
C854 C855 1.363 . S
C854 H857 0.929 . S
C855 C854 1.363 . S
C855 C861 1.428 . S
H856 C852 0.930 . S
H857 C854 0.929 . S
S858 N859 1.613 1_655 S
S858 N860 1.610 . S
N859 S858 1.613 1_455 S
N859 C862 1.350 . S
N860 S858 1.610 . S
N860 C861 1.351 . S
C861 C855 1.428 . S
C861 N860 1.351 . S
C861 C862 1.434 1_655 S
C862 C853 1.429 . S
C862 N859 1.350 . S
C862 C861 1.434 1_455 S
C863 C864 1.369 . S
C863 C865 1.419 . S
C863 H867 0.930 . S
C864 C863 1.369 . S
C864 C873 1.429 . S
C865 C863 1.419 . S
C865 C866 1.363 . S
C865 H868 0.929 . S
C866 C865 1.363 . S
C866 C872 1.428 . S
H867 C863 0.930 . S
H868 C865 0.929 . S
S869 N870 1.613 . S
S869 N871 1.610 . S
N870 S869 1.613 . S
N870 C873 1.350 . S
N871 S869 1.610 . S
N871 C872 1.351 . S
C872 C866 1.428 . S
C872 N871 1.351 . S
C872 C873 1.434 . S
C873 C864 1.429 . S
C873 N870 1.350 . S
C873 C872 1.434 . S
C874 C875 1.369 . S
C874 C876 1.419 1_565 S
C874 H878 0.930 . S
C875 C874 1.369 . S
C875 C884 1.429 . S
C876 C874 1.419 1_545 S
C876 C877 1.363 . S
C876 H879 0.929 . S
C877 C876 1.363 . S
C877 C883 1.410 1_545 S
H878 C874 0.930 . S
H879 C876 0.929 . S
S880 N881 1.613 . S
S880 N882 1.610 1_565 S
N881 S880 1.613 . S
N881 C884 1.350 . S
N882 S880 1.610 1_545 S
N882 C883 1.351 1_545 S
C883 C877 1.410 1_565 S
C883 N882 1.351 1_565 S
C883 C884 1.455 . S
C884 C875 1.429 . S
C884 N881 1.350 . S
C884 C883 1.455 . S
C885 C886 1.369 . S
C885 C887 1.419 . S
C885 H889 0.930 . S
C886 C885 1.369 . S
C886 C895 1.429 . S
C887 C885 1.419 . S
C887 C888 1.363 . S
C887 H890 0.929 . S
C888 C887 1.363 . S
C888 C894 1.428 . S
H889 C885 0.930 . S
H890 C887 0.929 . S
S891 N892 1.613 . S
S891 N893 1.610 . S
N892 S891 1.613 . S
N892 C895 1.350 . S
N893 S891 1.610 . S
N893 C894 1.351 . S
C894 C888 1.428 . S
C894 N893 1.351 . S
C894 C895 1.434 . S
C895 C886 1.429 . S
C895 N892 1.350 . S
C895 C894 1.434 . S
C896 C897 1.369 . S
C896 C898 1.419 . S
C896 H900 0.930 . S
C897 C896 1.369 . S
C897 C906 1.429 . S
C898 C896 1.419 . S
C898 C899 1.363 . S
C898 H901 0.929 . S
C899 C898 1.363 . S
C899 C905 1.428 . S
H900 C896 0.930 . S
H901 C898 0.929 . S
S902 N903 1.613 . S
S902 N904 1.610 . S
N903 S902 1.613 . S
N903 C906 1.350 . S
N904 S902 1.610 . S
N904 C905 1.351 . S
C905 C899 1.428 . S
C905 N904 1.351 . S
C905 C906 1.434 . S
C906 C897 1.429 . S
C906 N903 1.350 . S
C906 C905 1.434 . S
C907 C908 1.369 . S
C907 C909 1.419 . S
C907 H911 0.930 . S
C908 C907 1.369 . S
C908 C917 1.429 . S
C909 C907 1.419 . S
C909 C910 1.363 . S
C909 H912 0.929 . S
C910 C909 1.363 . S
C910 C916 1.428 . S
H911 C907 0.930 . S
H912 C909 0.929 . S
S913 N914 1.613 . S
S913 N915 1.610 . S
N914 S913 1.613 . S
N914 C917 1.350 . S
N915 S913 1.610 . S
N915 C916 1.351 . S
C916 C910 1.428 . S
C916 N915 1.351 . S
C916 C917 1.434 . S
C917 C908 1.429 . S
C917 N914 1.350 . S
C917 C916 1.434 . S
C918 C919 1.369 . S
C918 C920 1.419 . S
C918 H922 0.930 . S
C919 C918 1.369 . S
C919 C928 1.429 1_565 S
C920 C918 1.419 . S
C920 C921 1.363 . S
C920 H923 0.929 . S
C921 C920 1.363 . S
C921 C927 1.428 1_565 S
H922 C918 0.930 . S
H923 C920 0.929 . S
S924 N925 1.613 . S
S924 N926 1.610 . S
N925 S924 1.613 . S
N925 C928 1.350 . S
N926 S924 1.610 . S
N926 C927 1.351 . S
C927 C921 1.428 1_545 S
C927 N926 1.351 . S
C927 C928 1.434 . S
C928 C919 1.429 1_545 S
C928 N925 1.350 . S
C928 C927 1.434 . S
C929 C930 1.369 . S
C929 C931 1.419 . S
C929 H933 0.930 . S
C930 C929 1.369 . S
C930 C939 1.429 . S
C931 C929 1.419 . S
C931 C932 1.363 . S
C931 H934 0.929 . S
C932 C931 1.363 . S
C932 C938 1.428 . S
H933 C929 0.930 . S
H934 C931 0.929 . S
S935 N936 1.613 . S
S935 N937 1.610 . S
N936 S935 1.613 . S
N936 C939 1.350 . S
N937 S935 1.610 . S
N937 C938 1.351 . S
C938 C932 1.428 . S
C938 N937 1.351 . S
C938 C939 1.434 . S
C939 C930 1.429 . S
C939 N936 1.350 . S
C939 C938 1.434 . S
C940 C941 1.369 . S
C940 C942 1.419 . S
C940 H944 0.930 . S
C941 C940 1.369 . S
C941 C950 1.429 . S
C942 C940 1.419 . S
C942 C943 1.363 . S
C942 H945 0.929 . S
C943 C942 1.363 . S
C943 C949 1.428 . S
H944 C940 0.930 . S
H945 C942 0.929 . S
S946 N947 1.613 . S
S946 N948 1.610 . S
N947 S946 1.613 . S
N947 C950 1.350 . S
N948 S946 1.610 . S
N948 C949 1.351 . S
C949 C943 1.428 . S
C949 N948 1.351 . S
C949 C950 1.434 . S
C950 C941 1.429 . S
C950 N947 1.350 . S
C950 C949 1.434 . S
C951 C952 1.369 . S
C951 C953 1.419 . S
C951 H955 0.930 1_655 S
C952 C951 1.369 . S
C952 C961 1.429 . S
C953 C951 1.419 . S
C953 C954 1.363 . S
C953 H956 0.929 1_655 S
C954 C953 1.363 . S
C954 C960 1.428 . S
H955 C951 0.930 1_455 S
H956 C953 0.929 1_455 S
S957 N958 1.613 . S
S957 N959 1.610 . S
N958 S957 1.613 . S
N958 C961 1.350 . S
N959 S957 1.610 . S
N959 C960 1.351 . S
C960 C954 1.428 . S
C960 N959 1.351 . S
C960 C961 1.434 . S
C961 C952 1.429 . S
C961 N958 1.350 . S
C961 C960 1.434 . S
C962 C963 1.369 . S
C962 C964 1.419 . S
C962 H966 0.930 . S
C963 C962 1.369 . S
C963 C972 1.429 . S
C964 C962 1.419 . S
C964 C965 1.363 . S
C964 H967 0.929 . S
C965 C964 1.363 . S
C965 C971 1.428 . S
H966 C962 0.930 . S
H967 C964 0.929 . S
S968 N969 1.613 . S
S968 N970 1.610 . S
N969 S968 1.613 . S
N969 C972 1.350 . S
N970 S968 1.610 . S
N970 C971 1.351 . S
C971 C965 1.428 . S
C971 N970 1.351 . S
C971 C972 1.434 . S
C972 C963 1.429 . S
C972 N969 1.350 . S
C972 C971 1.434 . S
C973 C974 1.369 . S
C973 C975 1.419 1_545 S
C973 H977 0.930 1_545 S
C974 C973 1.369 . S
C974 C983 1.429 . S
C975 C973 1.419 1_565 S
C975 C976 1.363 1_565 S
C975 H978 0.929 . S
C976 C975 1.363 1_545 S
C976 C982 1.428 . S
H977 C973 0.930 1_565 S
H978 C975 0.929 . S
S979 N980 1.613 . S
S979 N981 1.610 . S
N980 S979 1.613 . S
N980 C983 1.350 . S
N981 S979 1.610 . S
N981 C982 1.351 . S
C982 C976 1.428 . S
C982 N981 1.351 . S
C982 C983 1.434 . S
C983 C974 1.429 . S
C983 N980 1.350 . S
C983 C982 1.434 . S
C984 C985 1.369 . S
C984 C986 1.419 . S
C984 H988 0.930 . S
C985 C984 1.369 . S
C985 C994 1.429 . S
C986 C984 1.419 . S
C986 C987 1.363 . S
C986 H989 0.929 . S
C987 C986 1.363 . S
C987 C993 1.428 . S
H988 C984 0.930 . S
H989 C986 0.929 . S
S990 N991 1.613 . S
S990 N992 1.610 . S
N991 S990 1.613 . S
N991 C994 1.350 . S
N992 S990 1.610 . S
N992 C993 1.351 . S
C993 C987 1.428 . S
C993 N992 1.351 . S
C993 C994 1.434 . S
C994 C985 1.429 . S
C994 N991 1.350 . S
C994 C993 1.434 . S
C995 C996 1.369 . S
C995 C997 1.419 . S
C995 H999 0.930 . S
C996 C995 1.369 . S
C996 C1005 1.429 . S
C997 C995 1.419 . S
C997 C998 1.363 . S
C997 H1000 0.929 . S
C998 C997 1.363 . S
C998 C1004 1.428 . S
H999 C995 0.930 . S
H1000 C997 0.929 . S
S1001 N1002 1.613 . S
S1001 N1003 1.610 . S
N1002 S1001 1.613 . S
N1002 C1005 1.350 . S
N1003 S1001 1.610 . S
N1003 C1004 1.351 . S
C1004 C998 1.428 . S
C1004 N1003 1.351 . S
C1004 C1005 1.434 . S
C1005 C996 1.429 . S
C1005 N1002 1.350 . S
C1005 C1004 1.434 . S
C1006 C1007 1.369 . S
C1006 C1008 1.419 . S
C1006 H1010 0.930 . S
C1007 C1006 1.369 . S
C1007 C1016 1.429 . S
C1008 C1006 1.419 . S
C1008 C1009 1.363 . S
C1008 H1011 0.929 . S
C1009 C1008 1.363 . S
C1009 C1015 1.428 . S
H1010 C1006 0.930 . S
H1011 C1008 0.929 . S
S1012 N1013 1.613 . S
S1012 N1014 1.610 . S
N1013 S1012 1.613 . S
N1013 C1016 1.350 . S
N1014 S1012 1.610 . S
N1014 C1015 1.351 . S
C1015 C1009 1.428 . S
C1015 N1014 1.351 . S
C1015 C1016 1.434 . S
C1016 C1007 1.429 . S
C1016 N1013 1.350 . S
C1016 C1015 1.434 . S
C1017 C1018 1.369 . S
C1017 C1019 1.419 . S
C1017 H1021 0.930 . S
C1018 C1017 1.369 . S
C1018 C1027 1.429 . S
C1019 C1017 1.419 . S
C1019 C1020 1.363 . S
C1019 H1022 0.929 . S
C1020 C1019 1.363 . S
C1020 C1026 1.428 . S
H1021 C1017 0.930 . S
H1022 C1019 0.929 . S
S1023 N1024 1.613 . S
S1023 N1025 1.610 . S
N1024 S1023 1.613 . S
N1024 C1027 1.350 . S
N1025 S1023 1.610 . S
N1025 C1026 1.351 . S
C1026 C1020 1.428 . S
C1026 N1025 1.351 . S
C1026 C1027 1.434 . S
C1027 C1018 1.429 . S
C1027 N1024 1.350 . S
C1027 C1026 1.434 . S
C1028 C1029 1.369 . S
C1028 C1030 1.419 . S
C1028 H1032 0.930 . S
C1029 C1028 1.369 . S
C1029 C1038 1.429 . S
C1030 C1028 1.419 . S
C1030 C1031 1.363 . S
C1030 H1033 0.929 . S
C1031 C1030 1.363 . S
C1031 C1037 1.428 . S
H1032 C1028 0.930 . S
H1033 C1030 0.929 . S
S1034 N1035 1.613 . S
S1034 N1036 1.610 . S
N1035 S1034 1.613 . S
N1035 C1038 1.350 . S
N1036 S1034 1.610 . S
N1036 C1037 1.351 . S
C1037 C1031 1.428 . S
C1037 N1036 1.351 . S
C1037 C1038 1.434 . S
C1038 C1029 1.429 . S
C1038 N1035 1.350 . S
C1038 C1037 1.434 . S
C1039 C1040 1.369 . S
C1039 C1041 1.419 . S
C1039 H1043 0.930 . S
C1040 C1039 1.369 . S
C1040 C1049 1.429 . S
C1041 C1039 1.419 . S
C1041 C1042 1.363 . S
C1041 H1044 0.929 . S
C1042 C1041 1.363 . S
C1042 C1048 1.428 . S
H1043 C1039 0.930 . S
H1044 C1041 0.929 . S
S1045 N1046 1.613 . S
S1045 N1047 1.610 . S
N1046 S1045 1.613 . S
N1046 C1049 1.350 . S
N1047 S1045 1.610 . S
N1047 C1048 1.351 . S
C1048 C1042 1.428 . S
C1048 N1047 1.351 . S
C1048 C1049 1.434 . S
C1049 C1040 1.429 . S
C1049 N1046 1.350 . S
C1049 C1048 1.434 . S
C1050 C1051 1.369 . S
C1050 C1052 1.419 . S
C1050 H1054 0.930 . S
C1051 C1050 1.369 . S
C1051 C1060 1.429 . S
C1052 C1050 1.419 . S
C1052 C1053 1.363 . S
C1052 H1055 0.929 . S
C1053 C1052 1.363 . S
C1053 C1059 1.428 . S
H1054 C1050 0.930 . S
H1055 C1052 0.929 . S
S1056 N1057 1.613 . S
S1056 N1058 1.610 . S
N1057 S1056 1.613 . S
N1057 C1060 1.350 . S
N1058 S1056 1.610 . S
N1058 C1059 1.351 . S
C1059 C1053 1.428 . S
C1059 N1058 1.351 . S
C1059 C1060 1.434 . S
C1060 C1051 1.429 . S
C1060 N1057 1.350 . S
C1060 C1059 1.434 . S
C1061 C1062 1.369 . S
C1061 C1063 1.419 . S
C1061 H1065 0.930 . S
C1062 C1061 1.369 . S
C1062 C1071 1.429 . S
C1063 C1061 1.419 . S
C1063 C1064 1.363 . S
C1063 H1066 0.929 . S
C1064 C1063 1.363 . S
C1064 C1070 1.428 . S
H1065 C1061 0.930 . S
H1066 C1063 0.929 . S
S1067 N1068 1.613 . S
S1067 N1069 1.610 . S
N1068 S1067 1.613 . S
N1068 C1071 1.350 . S
N1069 S1067 1.610 . S
N1069 C1070 1.351 . S
C1070 C1064 1.428 . S
C1070 N1069 1.351 . S
C1070 C1071 1.434 . S
C1071 C1062 1.429 . S
C1071 N1068 1.350 . S
C1071 C1070 1.434 . S
C1072 C1073 1.369 . S
C1072 C1074 1.419 . S
C1072 H1076 0.930 . S
C1073 C1072 1.369 . S
C1073 C1082 1.429 . S
C1074 C1072 1.419 . S
C1074 C1075 1.363 . S
C1074 H1077 0.929 . S
C1075 C1074 1.363 . S
C1075 C1081 1.428 . S
H1076 C1072 0.930 . S
H1077 C1074 0.929 . S
S1078 N1079 1.613 . S
S1078 N1080 1.610 . S
N1079 S1078 1.613 . S
N1079 C1082 1.350 . S
N1080 S1078 1.610 . S
N1080 C1081 1.351 . S
C1081 C1075 1.428 . S
C1081 N1080 1.351 . S
C1081 C1082 1.434 . S
C1082 C1073 1.429 . S
C1082 N1079 1.350 . S
C1082 C1081 1.434 . S
C1083 C1084 1.369 . S
C1083 C1085 1.419 . S
C1083 H1087 0.930 . S
C1084 C1083 1.369 . S
C1084 C1093 1.429 . S
C1085 C1083 1.419 . S
C1085 C1086 1.363 . S
C1085 H1088 0.929 . S
C1086 C1085 1.363 . S
C1086 C1092 1.428 . S
H1087 C1083 0.930 . S
H1088 C1085 0.929 . S
S1089 N1090 1.613 . S
S1089 N1091 1.610 . S
N1090 S1089 1.613 . S
N1090 C1093 1.350 . S
N1091 S1089 1.610 . S
N1091 C1092 1.351 . S
C1092 C1086 1.428 . S
C1092 N1091 1.351 . S
C1092 C1093 1.434 . S
C1093 C1084 1.429 . S
C1093 N1090 1.350 . S
C1093 C1092 1.434 . S
C1094 C1095 1.369 . S
C1094 C1096 1.419 . S
C1094 H1098 0.930 . S
C1095 C1094 1.369 . S
C1095 C1104 1.429 . S
C1096 C1094 1.419 . S
C1096 C1097 1.363 . S
C1096 H1099 0.929 . S
C1097 C1096 1.363 . S
C1097 C1103 1.428 . S
H1098 C1094 0.930 . S
H1099 C1096 0.929 . S
S1100 N1101 1.613 . S
S1100 N1102 1.610 . S
N1101 S1100 1.613 . S
N1101 C1104 1.350 . S
N1102 S1100 1.610 . S
N1102 C1103 1.351 . S
C1103 C1097 1.428 . S
C1103 N1102 1.351 . S
C1103 C1104 1.434 . S
C1104 C1095 1.429 . S
C1104 N1101 1.350 . S
C1104 C1103 1.434 . S
C1105 C1106 1.369 . S
C1105 C1107 1.419 . S
C1105 H1109 0.930 . S
C1106 C1105 1.369 . S
C1106 C1115 1.429 . S
C1107 C1105 1.419 . S
C1107 C1108 1.363 . S
C1107 H1110 0.929 . S
C1108 C1107 1.363 . S
C1108 C1114 1.428 . S
H1109 C1105 0.930 . S
H1110 C1107 0.929 . S
S1111 N1112 1.613 . S
S1111 N1113 1.610 . S
N1112 S1111 1.613 . S
N1112 C1115 1.350 . S
N1113 S1111 1.610 . S
N1113 C1114 1.351 . S
C1114 C1108 1.428 . S
C1114 N1113 1.351 . S
C1114 C1115 1.434 . S
C1115 C1106 1.429 . S
C1115 N1112 1.350 . S
C1115 C1114 1.434 . S
C523 C124 1.565 . S
C525 C171 1.543 . S
C534 C130 1.669 . S
C536 C211 1.652 . S
C545 C115 1.569 . S
C547 C250 1.572 . S
C556 C106 1.494 . S
C558 C210 1.487 . S
C569 C251 1.455 . S
C567 C85 1.469 . S
C578 C97 1.377 . S
C580 C170 1.399 . S
C591 C181 1.564 . S
C589 C103 1.578 . S
C602 C221 1.632 . S
C600 C88 1.651 . S
C611 C94 1.565 . S
C613 C260 1.567 . S
C622 C121 1.495 . S
C624 C220 1.489 . S
C633 C133 1.445 . S
C635 C261 1.440 . S
C646 C180 1.421 . S
C644 C112 1.395 . S
C657 C291 1.541 . S
C655 C16 1.566 . S
C666 C22 1.672 . S
C668 C331 1.649 . S
C677 C7 1.564 . S
C679 C370 1.576 . S
C688 C160 1.491 . S
C690 C330 1.490 . S
C699 C139 1.469 . S
C701 C371 1.455 . S
C710 C151 1.382 . S
C712 C290 1.400 . S
C721 C157 1.578 . S
C723 C301 1.564 . S
C732 C142 1.650 . S
C734 C341 1.632 . S
C745 C380 1.573 . S
C743 C148 1.562 . S
C754 C13 1.497 . S
C756 C340 1.485 . S
C767 C381 1.438 . S
C765 C25 1.448 . S
C776 C4 1.396 . S
C778 C300 1.421 . S
C789 C411 1.547 . S
C787 C70 1.560 . S
C798 C76 1.671 . S
C800 C451 1.650 . S
C811 C490 1.575 . S
C809 C61 1.566 . S
C822 C450 1.488 . S
C820 C52 1.498 . S
C833 C491 1.458 . S
C831 C31 1.469 . S
C842 C43 1.383 . S
C844 C410 1.400 . S
C853 C49 1.576 . S
C855 C421 1.566 . S
C864 C34 1.649 . S
C866 C461 1.633 . S
C877 C500 1.567 . S
C875 C40 1.568 . S
C886 C67 1.494 . S
C888 C460 1.489 . S
C897 C79 1.447 . S
C899 C501 1.438 . S
C908 C58 1.391 . S
C910 C420 1.419 . S
C919 C140 1.498 . S
C921 C167 1.478 . S
C932 C207 1.693 . S
C930 C149 1.689 . S
C941 C158 1.548 . S
C943 C257 1.548 . S
C952 C59 1.706 . S
C954 C217 1.705 . S
C963 C68 1.533 . S
C965 C247 1.531 . S
C976 C177 1.475 . S
C974 C77 1.500 . S
C985 C32 1.498 . S
C987 C287 1.478 . S
C996 C41 1.693 . S
C998 C327 1.690 . S
C1007 C50 1.548 . S
C1009 C377 1.547 . S
C1018 C113 1.709 . S
C1020 C337 1.704 . S
C1031 C367 1.532 . S
C1029 C122 1.532 . S
C1040 C131 1.500 . S
C1042 C297 1.474 . S
C1051 C86 1.499 . S
C1053 C407 1.477 . S
C1062 C95 1.693 . S
C1064 C447 1.690 . S
C1075 C497 1.548 . S
C1073 C104 1.549 . S
C1084 C5 1.709 . S
C1086 C457 1.704 . S
C1095 C14 1.532 . S
C1097 C487 1.532 . S
C1106 C23 1.498 . S
C1108 C417 1.479 . S
