# Generated by pormake.
# Topology hwx, (6,3)-cn, num edge types: 1
# Building blocks:
#     Node 0, Type 0, BuildingBlock: OJICUG_clean_sbu_0, # of connection points: 6
#     Node 1, Type 0, BuildingBlock: OJICUG_clean_sbu_0, # of connection points: 6
#     Node 2, Type 0, BuildingBlock: OJICUG_clean_sbu_0, # of connection points: 6
#     Node 3, Type 0, BuildingBlock: OJICUG_clean_sbu_0, # of connection points: 6
#     Node 4, Type 1, BuildingBlock: ESEHIV_clean_linker_0, # of connection points: 3
#     Node 5, Type 1, BuildingBlock: ESEHIV_clean_linker_0, # of connection points: 3
#     Node 6, Type 1, BuildingBlock: ESEHIV_clean_linker_0, # of connection points: 3
#     Node 7, Type 1, BuildingBlock: ESEHIV_clean_linker_0, # of connection points: 3
#     Node 8, Type 1, BuildingBlock: ESEHIV_clean_linker_0, # of connection points: 3
#     Node 9, Type 1, BuildingBlock: ESEHIV_clean_linker_0, # of connection points: 3
#     Node 10, Type 1, BuildingBlock: ESEHIV_clean_linker_0, # of connection points: 3
#     Node 11, Type 1, BuildingBlock: ESEHIV_clean_linker_0, # of connection points: 3
#     Edge 12, Type (0, 1), BuildingBlock: OJICUG_clean_linker_0, # of connection points: 2
#     Edge 13, Type (0, 1), BuildingBlock: OJICUG_clean_linker_0, # of connection points: 2
#     Edge 14, Type (0, 1), BuildingBlock: OJICUG_clean_linker_0, # of connection points: 2
#     Edge 15, Type (0, 1), BuildingBlock: OJICUG_clean_linker_0, # of connection points: 2
#     Edge 16, Type (0, 1), BuildingBlock: OJICUG_clean_linker_0, # of connection points: 2
#     Edge 17, Type (0, 1), BuildingBlock: OJICUG_clean_linker_0, # of connection points: 2
#     Edge 18, Type (0, 1), BuildingBlock: OJICUG_clean_linker_0, # of connection points: 2
#     Edge 19, Type (0, 1), BuildingBlock: OJICUG_clean_linker_0, # of connection points: 2
#     Edge 20, Type (0, 1), BuildingBlock: OJICUG_clean_linker_0, # of connection points: 2
#     Edge 21, Type (0, 1), BuildingBlock: OJICUG_clean_linker_0, # of connection points: 2
#     Edge 22, Type (0, 1), BuildingBlock: OJICUG_clean_linker_0, # of connection points: 2
#     Edge 23, Type (0, 1), BuildingBlock: OJICUG_clean_linker_0, # of connection points: 2
#     Edge 24, Type (0, 1), BuildingBlock: OJICUG_clean_linker_0, # of connection points: 2
#     Edge 25, Type (0, 1), BuildingBlock: OJICUG_clean_linker_0, # of connection points: 2
#     Edge 26, Type (0, 1), BuildingBlock: OJICUG_clean_linker_0, # of connection points: 2
#     Edge 27, Type (0, 1), BuildingBlock: OJICUG_clean_linker_0, # of connection points: 2
#     Edge 28, Type (0, 1), BuildingBlock: OJICUG_clean_linker_0, # of connection points: 2
#     Edge 29, Type (0, 1), BuildingBlock: OJICUG_clean_linker_0, # of connection points: 2
#     Edge 30, Type (0, 1), BuildingBlock: OJICUG_clean_linker_0, # of connection points: 2
#     Edge 31, Type (0, 1), BuildingBlock: OJICUG_clean_linker_0, # of connection points: 2
#     Edge 32, Type (0, 1), BuildingBlock: OJICUG_clean_linker_0, # of connection points: 2
#     Edge 33, Type (0, 1), BuildingBlock: OJICUG_clean_linker_0, # of connection points: 2
#     Edge 34, Type (0, 1), BuildingBlock: OJICUG_clean_linker_0, # of connection points: 2
#     Edge 35, Type (0, 1), BuildingBlock: OJICUG_clean_linker_0, # of connection points: 2
# Relax obj value: 0.076
# Max RMSD: 0.101
# Mean RMSD: 0.093
data_MOF--net-hwx--node1-OJICUG_clean_sbu_0--node2-ESEHIV_clean_linker_0--edge1-OJICUG_clean_linker_0
_symmetry_space_group_name_H-M    P1
_symmetry_Int_Tables_number       1
_symmetry_cell_setting            triclinic
loop_
_symmetry_equiv_pos_as_xyz
'x, y, z'
_cell_length_a     34.199682
_cell_length_b     34.248534
_cell_length_c     15.577207
_cell_angle_alpha  90.116119
_cell_angle_beta   90.331945
_cell_angle_gamma 89.973478
loop_
_atom_site_label
_atom_site_type_symbol
_atom_site_fract_x
_atom_site_fract_y
_atom_site_fract_z
_atom_type_partial_charge
Sc0 Sc 0.22763 0.21908 0.06387 0.0
Sc1 Sc 0.16607 0.15595 0.94562 0.0
Sc2 Sc 0.22558 0.22545 0.84018 0.0
O3 O 0.20638 0.20008 0.94975 0.0
C4 C 0.21794 0.29913 0.96364 0.0
C5 C 0.13707 0.20679 0.10383 0.0
C6 C 0.13508 0.21324 0.79888 0.0
C7 C 0.22394 0.12727 0.09422 0.0
C8 C 0.304 0.222 0.94957 0.0
C9 C 0.2224 0.13504 0.78976 0.0
O10 O 0.2203 0.2793 0.03214 0.0
O11 O 0.1301 0.18263 0.04348 0.0
O12 O 0.16763 0.23047 0.78974 0.0
O13 O 0.23795 0.161 0.10806 0.0
O14 O 0.28609 0.22326 0.87805 0.0
O15 O 0.19795 0.12515 0.84709 0.0
O16 O 0.28669 0.22039 0.02119 0.0
O17 O 0.19684 0.12086 0.03975 0.0
O18 O 0.23399 0.16995 0.77967 0.0
O19 O 0.17077 0.22078 0.11861 0.0
O20 O 0.21922 0.28394 0.88925 0.0
O21 O 0.13017 0.18517 0.85099 0.0
Sc22 Sc 0.25841 0.71733 0.38751 0.0
Sc23 Sc 0.32165 0.65082 0.48826 0.0
Sc24 Sc 0.2745 0.72351 0.6086 0.0
O25 O 0.28485 0.69721 0.49465 0.0
C26 C 0.27482 0.79671 0.48214 0.0
C27 C 0.34545 0.69905 0.3239 0.0
C28 C 0.36438 0.70735 0.6242 0.0
C29 C 0.25472 0.62656 0.35403 0.0
C30 C 0.19019 0.72096 0.52724 0.0
C31 C 0.27796 0.63298 0.65908 0.0
O32 O 0.27377 0.77685 0.41344 0.0
O33 O 0.35507 0.67758 0.38724 0.0
O34 O 0.33581 0.73082 0.63173 0.0
O35 O 0.23986 0.66039 0.3496 0.0
O36 O 0.21223 0.71855 0.59304 0.0
O37 O 0.2907 0.62061 0.58766 0.0
O38 O 0.203 0.72315 0.45088 0.0
O39 O 0.28588 0.61943 0.39614 0.0
O40 O 0.27454 0.66901 0.67736 0.0
O41 O 0.31121 0.71294 0.31394 0.0
O42 O 0.27279 0.78149 0.55619 0.0
O43 O 0.3622 0.67568 0.58134 0.0
Sc44 Sc 0.76245 0.77623 0.93271 0.0
Sc45 Sc 0.82936 0.83082 0.05648 0.0
Sc46 Sc 0.76316 0.76546 0.15549 0.0
O47 O 0.78505 0.79091 0.04847 0.0
C48 C 0.68552 0.77801 0.04286 0.0
C49 C 0.77639 0.86751 0.90938 0.0
C50 C 0.77406 0.85434 0.21303 0.0
C51 C 0.85411 0.7786 0.89624 0.0
C52 C 0.76282 0.69384 0.02766 0.0
C53 C 0.85432 0.77013 0.20108 0.0
O54 O 0.70328 0.78412 0.97291 0.0
O55 O 0.80199 0.8712 0.96819 0.0
O56 O 0.75713 0.8213 0.21783 0.0
O57 O 0.81963 0.7663 0.88178 0.0
O58 O 0.76723 0.70721 0.10328 0.0
O59 O 0.8625 0.79628 0.14638 0.0
O60 O 0.75958 0.71546 0.96205 0.0
O61 O 0.86223 0.80328 0.95486 0.0
O62 O 0.81992 0.75712 0.21154 0.0
O63 O 0.76111 0.83505 0.88957 0.0
O64 O 0.70317 0.76972 0.11257 0.0
O65 O 0.801 0.86167 0.15937 0.0
Sc66 Sc 0.72994 0.28127 0.5812 0.0
Sc67 Sc 0.65538 0.32767 0.46291 0.0
Sc68 Sc 0.72086 0.26357 0.36068 0.0
O69 O 0.70211 0.29087 0.46814 0.0
C70 C 0.80181 0.28028 0.45224 0.0
C71 C 0.71291 0.37121 0.59546 0.0
C72 C 0.70308 0.35067 0.29644 0.0
C73 C 0.63974 0.28342 0.6354 0.0
C74 C 0.72644 0.19625 0.50124 0.0
C75 C 0.62933 0.26095 0.33106 0.0
O76 O 0.7874 0.28272 0.52688 0.0
O77 O 0.68153 0.36943 0.55121 0.0
O78 O 0.71831 0.31694 0.28798 0.0
O79 O 0.67593 0.27866 0.65123 0.0
O80 O 0.72478 0.2081 0.42402 0.0
O81 O 0.62218 0.29118 0.3757 0.0
O82 O 0.72753 0.21902 0.56575 0.0
O83 O 0.62668 0.29805 0.56615 0.0
O84 O 0.66342 0.24724 0.32259 0.0
O85 O 0.7355 0.34222 0.60579 0.0
O86 O 0.78125 0.27504 0.38532 0.0
O87 O 0.6805 0.35969 0.35809 0.0
H88 H 0.22251 0.57975 0.01665 0.0
H89 H 0.23224 0.47613 0.86224 0.0
H90 H 0.20266 0.46808 0.1305 0.0
C91 C 0.22018 0.54834 0.00961 0.0
C92 C 0.21228 0.52575 0.0821 0.0
C93 C 0.22807 0.53081 0.93017 0.0
C94 C 0.22492 0.49008 0.92251 0.0
C95 C 0.21511 0.46705 -0.00598 0.0
C96 C 0.2091 0.48525 0.07398 0.0
H97 H 0.90939 0.74233 0.55513 0.0
H98 H 0.0161 0.73299 0.41451 0.0
H99 H 0.01801 0.73197 0.69223 0.0
C100 C 0.94087 0.73834 0.55462 0.0
C101 C 0.9615 0.73733 0.63237 0.0
C102 C 0.96037 0.73645 0.47619 0.0
C103 C 0.00115 0.73339 0.47563 0.0
C104 C 0.02249 0.73107 0.5532 0.0
C105 C 0.00232 0.73357 0.63173 0.0
H106 H 0.72379 0.41794 0.9312 0.0
H107 H 0.7375 0.5139 0.1069 0.0
H108 H 0.74554 0.53246 0.83318 0.0
C109 C 0.7294 0.44866 0.94318 0.0
C110 C 0.73421 0.47384 0.87364 0.0
C111 C 0.73096 0.4628 0.02752 0.0
C112 C 0.73702 0.50281 0.04172 0.0
C113 C 0.74226 0.52845 0.97218 0.0
C114 C 0.74099 0.51351 0.88785 0.0
H115 H 0.0792 0.23255 0.45144 0.0
H116 H 0.97172 0.25275 0.58415 0.0
H117 H 0.97463 0.25414 0.30634 0.0
C118 C 0.0481 0.23884 0.44956 0.0
C119 C 0.0289 0.24211 0.37051 0.0
C120 C 0.0276 0.24295 0.52628 0.0
C121 C 0.98742 0.25032 0.52416 0.0
C122 C 0.96783 0.25489 0.44493 0.0
C123 C 0.98888 0.25031 0.36805 0.0
H124 H 0.75159 0.9177 0.57427 0.0
H125 H 0.74028 0.03107 0.68789 0.0
H126 H 0.74292 0.0183 0.41175 0.0
C127 C 0.74797 0.94898 0.56664 0.0
C128 C 0.74655 0.96517 0.48437 0.0
C129 C 0.74631 0.97276 0.63957 0.0
C130 C 0.74255 0.01316 0.63073 0.0
C131 C 0.74066 0.03003 0.54847 0.0
C132 C 0.74332 0.00576 0.47554 0.0
H133 H 0.58478 0.22689 -0.00604 0.0
H134 H 0.47164 0.21189 0.10382 0.0
H135 H 0.48214 0.24079 0.83579 0.0
C136 C 0.55332 0.22589 0.98568 0.0
C137 C 0.53654 0.23442 0.90546 0.0
C138 C 0.52992 0.21913 0.05743 0.0
C139 C 0.48942 0.21755 0.04784 0.0
C140 C 0.47194 0.22439 0.96741 0.0
C141 C 0.49565 0.23304 0.89647 0.0
H142 H 0.25786 0.07717 0.4346 0.0
H143 H 0.2649 0.96504 0.31308 0.0
H144 H 0.27144 0.97489 0.58964 0.0
C145 C 0.26213 0.04586 0.43967 0.0
C146 C 0.26422 0.02848 0.5207 0.0
C147 C 0.26294 0.02317 0.3649 0.0
C148 C 0.26576 0.98247 0.37117 0.0
C149 C 0.26904 0.96451 0.45227 0.0
C150 C 0.26857 0.98797 0.52666 0.0
H151 H 0.41368 0.71491 0.95858 0.0
H152 H 0.52611 0.74667 0.86142 0.0
H153 H 0.50517 0.74692 0.13493 0.0
C154 C 0.44353 0.72424 0.97066 0.0
C155 C 0.45666 0.72985 0.05503 0.0
C156 C 0.46837 0.73071 0.90129 0.0
C157 C 0.50702 0.74242 0.91586 0.0
C158 C 0.52094 0.74792 0.00046 0.0
C159 C 0.49536 0.74168 0.06965 0.0
C160 C 0.07071 0.1974 0.1697 0.0
C161 C 0.10544 0.21905 0.16202 0.0
H162 H 0.01842 0.18824 0.24295 0.0
C163 C 0.11138 0.25166 0.21557 0.0
H164 H 0.06524 0.17231 0.12896 0.0
C165 C 0.08486 0.26061 0.27981 0.0
C166 C 0.05171 0.23736 0.29154 0.0
H167 H 0.13739 0.26952 0.21023 0.0
H168 H 0.09114 0.28468 0.32302 0.0
C169 C 0.04391 0.20656 0.23436 0.0
C170 C 0.27929 0.61178 0.81042 0.0
C171 C 0.26754 0.60472 0.72562 0.0
H172 H 0.27795 0.5929 0.94027 0.0
C173 C 0.24455 0.57188 0.70651 0.0
H174 H 0.29762 0.63662 0.82619 0.0
C175 C 0.23185 0.54741 0.7726 0.0
C176 C 0.24269 0.55511 0.85829 0.0
H177 H 0.23517 0.56607 0.64117 0.0
H178 H 0.21273 0.5232 0.75687 0.0
C179 C 0.26758 0.58692 0.87578 0.0
C180 C 0.87728 0.72618 0.31864 0.0
C181 C 0.88516 0.75666 0.26097 0.0
H182 H 0.89552 0.69549 0.43137 0.0
C183 C 0.92109 0.7765 0.26737 0.0
H184 H 0.85022 0.70983 0.31477 0.0
C185 C 0.9471 0.76813 0.33442 0.0
C186 C 0.93752 0.73983 0.39584 0.0
H187 H 0.92818 0.79998 0.22366 0.0
H188 H 0.97342 0.78547 0.34131 0.0
C189 C 0.90318 0.7179 0.38542 0.0
C190 C 0.69036 0.4307 0.67447 0.0
C191 C 0.72104 0.40612 0.64835 0.0
H192 H 0.67093 0.47234 0.76822 0.0
C193 C 0.75825 0.41078 0.68602 0.0
H194 H 0.66139 0.42778 0.64676 0.0
C195 C 0.76354 0.43618 0.75507 0.0
C196 C 0.73187 0.45757 0.78664 0.0
H197 H 0.78259 0.3926 0.66657 0.0
H198 H 0.79154 0.43684 0.78798 0.0
C199 C 0.69574 0.45618 0.74376 0.0
C200 C 0.56225 0.26277 0.26586 0.0
C201 C 0.59808 0.24342 0.27779 0.0
H202 H 0.51165 0.26928 0.18569 0.0
C203 C 0.60615 0.20986 0.22855 0.0
H204 H 0.55494 0.28837 0.30343 0.0
C205 C 0.58143 0.19905 0.16133 0.0
C206 C 0.54804 0.22125 0.14319 0.0
H207 H 0.63309 0.19367 0.23741 0.0
H208 H 0.58999 0.17531 0.11934 0.0
C209 C 0.53732 0.25167 0.1989 0.0
C210 C 0.22009 0.06788 0.72494 0.0
C211 C 0.23694 0.10528 0.72889 0.0
H212 H 0.21578 0.01401 0.65544 0.0
C213 C 0.26645 0.11504 0.67015 0.0
H214 H 0.19748 0.05935 0.76953 0.0
C215 C 0.27702 0.08905 0.60547 0.0
C216 C 0.25839 0.05273 0.59815 0.0
H217 H 0.28059 0.14333 0.67218 0.0
H218 H 0.29883 0.09791 0.55923 0.0
C219 C 0.23075 0.04181 0.66003 0.0
C220 C 0.41342 0.69389 0.26388 0.0
C221 C 0.37493 0.70822 0.25777 0.0
H222 H 0.46964 0.6896 0.20416 0.0
C223 C 0.36443 0.73125 0.18662 0.0
H224 H 0.42253 0.67621 0.31799 0.0
C225 C 0.39132 0.73892 0.12213 0.0
C226 C 0.42939 0.72381 0.12708 0.0
H227 H 0.33521 0.74312 0.17992 0.0
H228 H 0.38222 0.75655 0.0679 0.0
C229 C 0.44046 0.70172 0.19911 0.0
C230 C 0.72885 0.90041 0.81314 0.0
C231 C 0.76493 0.90133 0.85677 0.0
H232 H 0.6945 0.92338 0.70982 0.0
C233 C 0.79143 0.93164 0.83972 0.0
H234 H 0.70756 0.87779 0.82615 0.0
C235 C 0.78362 0.95802 0.77327 0.0
C236 C 0.74928 0.95424 0.72418 0.0
H237 H 0.81938 0.93302 0.87265 0.0
H238 H 0.80573 0.97915 0.75568 0.0
C239 C 0.72117 0.92658 0.74713 0.0
C240 C 0.87896 0.73088 0.78872 0.0
C241 C 0.88553 0.76416 0.83975 0.0
H242 H 0.89882 0.69565 0.6843 0.0
C243 C 0.92103 0.78453 0.83152 0.0
H244 H 0.85234 0.71399 0.79474 0.0
C245 C 0.94783 0.77374 0.76814 0.0
C246 C 0.93945 0.74243 0.71269 0.0
H247 H 0.92706 0.81008 0.87046 0.0
H248 H 0.97367 0.79147 0.75859 0.0
C249 C 0.90566 0.72013 0.72594 0.0
C250 C 0.6937 0.41739 0.23289 0.0
C251 C 0.7117 0.38045 0.23055 0.0
H252 H 0.68557 0.47245 0.1701 0.0
C253 C 0.73761 0.37183 0.16339 0.0
H254 H 0.67366 0.42505 0.28381 0.0
C255 C 0.74455 0.39902 0.09892 0.0
C256 C 0.72573 0.43545 0.09992 0.0
H257 H 0.75232 0.34386 0.15987 0.0
H258 H 0.7645 0.39141 0.04775 0.0
C259 C 0.70068 0.44466 0.16814 0.0
C260 C 0.06965 0.20088 0.72972 0.0
C261 C 0.1028 0.22475 0.74078 0.0
H262 H 0.01902 0.1884 0.65203 0.0
C263 C 0.10695 0.25808 0.68902 0.0
H264 H 0.06551 0.17513 0.76887 0.0
C265 C 0.08055 0.26544 0.62282 0.0
C266 C 0.0493 0.23993 0.60763 0.0
H267 H 0.13173 0.2775 0.69667 0.0
H268 H 0.08567 0.28998 0.58052 0.0
C269 C 0.04299 0.20847 0.66333 0.0
C270 C 0.20421 0.60403 0.24851 0.0
C271 C 0.23722 0.59562 0.29969 0.0
H272 H 0.16978 0.58756 0.13909 0.0
C273 C 0.25585 0.55929 0.29008 0.0
H274 H 0.18861 0.63139 0.25524 0.0
C275 C 0.24447 0.53394 0.22417 0.0
C276 C 0.21448 0.54468 0.167 0.0
H277 H 0.281 0.55165 0.32916 0.0
H278 H 0.26151 0.50774 0.21305 0.0
C279 C 0.1931 0.57886 0.18239 0.0
C280 C 0.40649 0.75271 0.70961 0.0
C281 C 0.39932 0.71488 0.67793 0.0
H282 H 0.43547 0.78737 0.8054 0.0
C283 C 0.42176 0.68357 0.70953 0.0
H284 H 0.38986 0.77743 0.68604 0.0
C285 C 0.44773 0.68938 0.77802 0.0
C286 C 0.45211 0.72662 0.81428 0.0
H287 H 0.41679 0.65408 0.68666 0.0
H288 H 0.46206 0.66437 0.80687 0.0
C289 C 0.43275 0.75851 0.77731 0.0
C290 C 0.73558 0.87721 0.33976 0.0
C291 C 0.76359 0.88485 0.27628 0.0
H292 H 0.70783 0.89704 0.45456 0.0
C293 C 0.78318 0.92099 0.27727 0.0
H294 H 0.71963 0.8499 0.3406 0.0
C295 C 0.77637 0.94799 0.34284 0.0
C296 C 0.74991 0.93931 0.40862 0.0
H297 H 0.80478 0.92797 0.22911 0.0
H298 H 0.79311 0.97483 0.34418 0.0
C299 C 0.72886 0.90415 0.40523 0.0
C300 C 0.62004 0.28256 0.78759 0.0
C301 C 0.61198 0.2724 0.70231 0.0
H302 H 0.60154 0.28063 0.91745 0.0
C303 C 0.57814 0.25099 0.68251 0.0
H304 H 0.64568 0.29969 0.80387 0.0
C305 C 0.55341 0.2385 0.74822 0.0
C306 C 0.5618 0.24809 0.83429 0.0
H307 H 0.57155 0.24286 0.61675 0.0
H308 H 0.52829 0.22072 0.73173 0.0
C309 C 0.59489 0.27117 0.85265 0.0
C310 C 0.2154 0.06165 0.16367 0.0
C311 C 0.23819 0.09519 0.14948 0.0
H312 H 0.20588 0.01171 0.24414 0.0
C313 C 0.27304 0.10017 0.19655 0.0
H314 H 0.18851 0.05693 0.1281 0.0
C315 C 0.2829 0.07439 0.26209 0.0
C316 C 0.25824 0.04303 0.28165 0.0
H317 H 0.29168 0.12527 0.18607 0.0
H318 H 0.30852 0.08037 0.30123 0.0
C319 C 0.22538 0.0357 0.22963 0.0
C320 C 0.20063 0.36489 0.90453 0.0
C321 C 0.21559 0.34191 0.97163 0.0
H322 H 0.18751 0.42252 0.86006 0.0
C323 C 0.22955 0.3602 0.04648 0.0
H324 H 0.18946 0.35148 0.8463 0.0
C325 C 0.22927 0.40069 0.05363 0.0
C326 C 0.21431 0.42388 0.98675 0.0
H327 H 0.24174 0.34327 0.09888 0.0
H328 H 0.24171 0.41374 0.11095 0.0
C329 C 0.1997 0.40552 0.9123 0.0
C330 C 0.12365 0.70205 0.47894 0.0
C331 C 0.14763 0.72122 0.53882 0.0
H332 H 0.06557 0.6884 0.43907 0.0
C333 C 0.13055 0.74188 0.60679 0.0
H334 H 0.13628 0.68543 0.42669 0.0
C335 C 0.08987 0.7448 0.61242 0.0
C336 C 0.06567 0.72634 0.55116 0.0
H337 H 0.14862 0.75705 0.65346 0.0
H338 H 0.07754 0.76251 0.66314 0.0
C339 C 0.08315 0.70409 0.48574 0.0
C340 C 0.73663 0.63787 0.94406 0.0
C341 C 0.7585 0.6515 0.01455 0.0
H342 H 0.71314 0.58879 0.87744 0.0
C343 C 0.77509 0.62451 0.07176 0.0
H344 H 0.7229 0.65804 0.89963 0.0
C345 C 0.77027 0.58445 0.05775 0.0
C346 C 0.74815 0.57082 0.98723 0.0
H347 H 0.79217 0.63432 0.12646 0.0
H348 H 0.7842 0.56424 0.10166 0.0
C349 C 0.7312 0.59808 0.93103 0.0
C350 C 0.8688 0.29544 0.50673 0.0
C351 C 0.84453 0.27835 0.44432 0.0
H352 H 0.92705 0.30267 0.55405 0.0
C353 C 0.86119 0.25555 0.37907 0.0
H354 H 0.85661 0.31332 0.55742 0.0
C355 C 0.90123 0.2483 0.37872 0.0
C356 C 0.92557 0.26439 0.44259 0.0
H357 H 0.84304 0.24157 0.33076 0.0
H358 H 0.91277 0.22886 0.33016 0.0
C359 C 0.90903 0.2889 0.5053 0.0
C360 C 0.70999 0.12816 0.45883 0.0
C361 C 0.7284 0.15399 0.51609 0.0
H362 H 0.69802 0.06886 0.42616 0.0
C363 C 0.74997 0.1391 0.58552 0.0
H364 H 0.69284 0.13904 0.40527 0.0
C365 C 0.75403 0.09888 0.5961 0.0
C366 C 0.73587 0.07282 0.53844 0.0
H367 H 0.76476 0.15854 0.63004 0.0
H368 H 0.77215 0.08832 0.64834 0.0
C369 C 0.71329 0.08798 0.47047 0.0
C370 C 0.369 0.20874 0.88283 0.0
C371 C 0.34684 0.22379 0.95085 0.0
H372 H 0.42638 0.19622 0.83567 0.0
C373 C 0.36589 0.24052 0.02185 0.0
H374 H 0.35484 0.19571 0.82738 0.0
C375 C 0.40643 0.2416 0.02579 0.0
C376 C 0.42886 0.22519 0.95964 0.0
H377 H 0.34942 0.25307 0.07435 0.0
H378 H 0.42016 0.25534 0.08091 0.0
C379 C 0.40981 0.20918 0.88748 0.0
C380 C 0.25563 0.86189 0.53741 0.0
C381 C 0.27522 0.8395 0.47573 0.0
H382 H 0.23653 0.91834 0.57613 0.0
C383 C 0.29315 0.85822 0.40624 0.0
H384 H 0.24092 0.84808 0.59077 0.0
C385 C 0.29169 0.89885 0.399 0.0
C386 C 0.27149 0.92136 0.4601 0.0
H387 H 0.3085 0.84148 0.3579 0.0
H388 H 0.30656 0.91255 0.3458 0.0
C389 C 0.25331 0.90227 0.5291 0.0
C390 C 0.62146 0.7927 0.97196 0.0
C391 C 0.64249 0.77547 0.03976 0.0
H392 H 0.56637 0.7985 0.90775 0.0
C393 C 0.62261 0.75171 0.09844 0.0
H394 H 0.63599 0.81139 0.92606 0.0
C395 C 0.58302 0.74345 0.08664 0.0
C396 C 0.56224 0.75932 0.01673 0.0
H397 H 0.6381 0.73766 0.15081 0.0
H398 H 0.56921 0.72323 0.13037 0.0
C399 C 0.58168 0.78494 0.96094 0.0
loop_
_geom_bond_atom_site_label_1
_geom_bond_atom_site_label_2
_geom_bond_distance
_geom_bond_site_symmetry_2
_ccdc_geom_bond_type
Sc0 O3 2.028 . S
Sc0 O10 2.105 . S
Sc0 O13 2.105 . S
Sc0 O16 2.105 . S
Sc0 O19 2.105 . S
Sc1 O3 2.025 . S
Sc1 O11 2.107 . S
Sc1 O15 2.103 1_554 S
Sc1 O17 2.107 . S
Sc1 O21 2.103 1_554 S
Sc2 O3 2.023 1_556 S
Sc2 O12 2.105 . S
Sc2 O14 2.105 . S
Sc2 O18 2.105 . S
Sc2 O20 2.105 . S
O3 Sc0 2.028 . S
O3 Sc1 2.025 . S
O3 Sc2 2.023 1_554 S
C4 O10 1.269 . S
C4 O20 1.267 1_554 S
C5 O11 1.268 . S
C5 O19 1.268 . S
C6 O12 1.268 . S
C6 O21 1.268 . S
C7 O13 1.268 . S
C7 O17 1.268 . S
C8 O14 1.264 1_554 S
C8 O16 1.272 . S
C9 O15 1.268 . S
C9 O18 1.268 . S
O10 Sc0 2.105 . S
O10 C4 1.269 . S
O11 Sc1 2.107 . S
O11 C5 1.268 . S
O12 Sc2 2.105 . S
O12 C6 1.268 . S
O13 Sc0 2.105 . S
O13 C7 1.268 . S
O14 Sc2 2.105 . S
O14 C8 1.264 1_556 S
O15 Sc1 2.103 1_556 S
O15 C9 1.268 . S
O16 Sc0 2.105 . S
O16 C8 1.272 . S
O17 Sc1 2.107 . S
O17 C7 1.268 . S
O18 Sc2 2.105 . S
O18 C9 1.268 . S
O19 Sc0 2.105 . S
O19 C5 1.268 . S
O20 Sc2 2.105 . S
O20 C4 1.267 1_556 S
O21 Sc1 2.103 1_556 S
O21 C6 1.268 . S
Sc22 O25 2.025 . S
Sc22 O32 2.105 . S
Sc22 O35 2.105 . S
Sc22 O38 2.105 . S
Sc22 O41 2.105 . S
Sc23 O25 2.025 . S
Sc23 O33 2.105 . S
Sc23 O37 2.105 . S
Sc23 O39 2.105 . S
Sc23 O43 2.105 . S
Sc24 O25 2.025 . S
Sc24 O34 2.105 . S
Sc24 O36 2.105 . S
Sc24 O40 2.105 . S
Sc24 O42 2.105 . S
O25 Sc22 2.025 . S
O25 Sc23 2.025 . S
O25 Sc24 2.025 . S
C26 O32 1.268 . S
C26 O42 1.268 . S
C27 O33 1.268 . S
C27 O41 1.268 . S
C28 O34 1.268 . S
C28 O43 1.268 . S
C29 O35 1.268 . S
C29 O39 1.268 . S
C30 O36 1.268 . S
C30 O38 1.268 . S
C31 O37 1.268 . S
C31 O40 1.268 . S
O32 Sc22 2.105 . S
O32 C26 1.268 . S
O33 Sc23 2.105 . S
O33 C27 1.268 . S
O34 Sc24 2.105 . S
O34 C28 1.268 . S
O35 Sc22 2.105 . S
O35 C29 1.268 . S
O36 Sc24 2.105 . S
O36 C30 1.268 . S
O37 Sc23 2.105 . S
O37 C31 1.268 . S
O38 Sc22 2.105 . S
O38 C30 1.268 . S
O39 Sc23 2.105 . S
O39 C29 1.268 . S
O40 Sc24 2.105 . S
O40 C31 1.268 . S
O41 Sc22 2.105 . S
O41 C27 1.268 . S
O42 Sc24 2.105 . S
O42 C26 1.268 . S
O43 Sc23 2.105 . S
O43 C28 1.268 . S
Sc44 O47 2.023 1_556 S
Sc44 O54 2.105 . S
Sc44 O57 2.105 . S
Sc44 O60 2.105 . S
Sc44 O63 2.105 . S
Sc45 O47 2.025 . S
Sc45 O55 2.103 1_554 S
Sc45 O59 2.107 . S
Sc45 O61 2.103 1_554 S
Sc45 O65 2.107 . S
Sc46 O47 2.028 . S
Sc46 O56 2.105 . S
Sc46 O58 2.105 . S
Sc46 O62 2.105 . S
Sc46 O64 2.105 . S
O47 Sc44 2.023 1_554 S
O47 Sc45 2.025 . S
O47 Sc46 2.028 . S
C48 O54 1.267 1_554 S
C48 O64 1.269 . S
C49 O55 1.268 . S
C49 O63 1.268 . S
C50 O56 1.268 . S
C50 O65 1.268 . S
C51 O57 1.268 . S
C51 O61 1.268 . S
C52 O58 1.272 . S
C52 O60 1.264 1_554 S
C53 O59 1.268 . S
C53 O62 1.268 . S
O54 Sc44 2.105 . S
O54 C48 1.267 1_556 S
O55 Sc45 2.103 1_556 S
O55 C49 1.268 . S
O56 Sc46 2.105 . S
O56 C50 1.268 . S
O57 Sc44 2.105 . S
O57 C51 1.268 . S
O58 Sc46 2.105 . S
O58 C52 1.272 . S
O59 Sc45 2.107 . S
O59 C53 1.268 . S
O60 Sc44 2.105 . S
O60 C52 1.264 1_556 S
O61 Sc45 2.103 1_556 S
O61 C51 1.268 . S
O62 Sc46 2.105 . S
O62 C53 1.268 . S
O63 Sc44 2.105 . S
O63 C49 1.268 . S
O64 Sc46 2.105 . S
O64 C48 1.269 . S
O65 Sc45 2.107 . S
O65 C50 1.268 . S
Sc66 O69 2.025 . S
Sc66 O76 2.105 . S
Sc66 O79 2.105 . S
Sc66 O82 2.105 . S
Sc66 O85 2.105 . S
Sc67 O69 2.025 . S
Sc67 O77 2.105 . S
Sc67 O81 2.105 . S
Sc67 O83 2.105 . S
Sc67 O87 2.105 . S
Sc68 O69 2.025 . S
Sc68 O78 2.105 . S
Sc68 O80 2.105 . S
Sc68 O84 2.105 . S
Sc68 O86 2.105 . S
O69 Sc66 2.025 . S
O69 Sc67 2.025 . S
O69 Sc68 2.025 . S
C70 O76 1.268 . S
C70 O86 1.268 . S
C71 O77 1.268 . S
C71 O85 1.268 . S
C72 O78 1.268 . S
C72 O87 1.268 . S
C73 O79 1.268 . S
C73 O83 1.268 . S
C74 O80 1.268 . S
C74 O82 1.268 . S
C75 O81 1.268 . S
C75 O84 1.268 . S
O76 Sc66 2.105 . S
O76 C70 1.268 . S
O77 Sc67 2.105 . S
O77 C71 1.268 . S
O78 Sc68 2.105 . S
O78 C72 1.268 . S
O79 Sc66 2.105 . S
O79 C73 1.268 . S
O80 Sc68 2.105 . S
O80 C74 1.268 . S
O81 Sc67 2.105 . S
O81 C75 1.268 . S
O82 Sc66 2.105 . S
O82 C74 1.268 . S
O83 Sc67 2.105 . S
O83 C73 1.268 . S
O84 Sc68 2.105 . S
O84 C75 1.268 . S
O85 Sc66 2.105 . S
O85 C71 1.268 . S
O86 Sc68 2.105 . S
O86 C70 1.268 . S
O87 Sc67 2.105 . S
O87 C72 1.268 . S
H88 C91 0.931 . S
H89 C94 0.928 . S
H90 C96 0.930 . S
C91 H88 0.931 . S
C91 C92 1.413 1_556 S
C91 C93 1.360 . S
C92 C91 1.413 1_554 S
C92 C96 1.429 . S
C93 C91 1.360 . S
C93 C94 1.372 . S
C94 H89 0.928 . S
C94 C93 1.372 . S
C94 C95 1.410 . S
C95 C94 1.410 . S
C95 C96 1.384 1_556 S
C96 H90 0.930 . S
C96 C92 1.429 . S
C96 C95 1.384 1_554 S
H97 C100 0.931 . S
H98 C103 0.927 1_455 S
H99 C105 0.930 . S
C100 H97 0.931 . S
C100 C101 1.413 . S
C100 C102 1.360 . S
C101 C100 1.413 . S
C101 C105 1.429 1_655 S
C102 C100 1.360 . S
C102 C103 1.376 . S
C103 H98 0.927 1_655 S
C103 C102 1.376 . S
C103 C104 1.402 1_655 S
C104 C103 1.402 1_455 S
C104 C105 1.391 . S
C105 H99 0.930 . S
C105 C101 1.429 1_455 S
C105 C104 1.391 . S
H106 C109 0.931 . S
H107 C112 0.928 . S
H108 C114 0.930 . S
C109 H106 0.931 . S
C109 C110 1.413 1_554 S
C109 C111 1.360 . S
C110 C109 1.413 1_556 S
C110 C114 1.429 . S
C111 C109 1.360 . S
C111 C112 1.372 . S
C112 H107 0.928 . S
C112 C111 1.372 . S
C112 C113 1.404 . S
C113 C112 1.404 . S
C113 C114 1.391 1_554 S
C114 H108 0.930 . S
C114 C110 1.429 . S
C114 C113 1.391 1_556 S
H115 C118 0.931 . S
H116 C121 0.933 . S
H117 C123 0.930 . S
C118 H115 0.931 . S
C118 C119 1.413 . S
C118 C120 1.360 . S
C119 C118 1.413 . S
C119 C123 1.429 1_455 S
C120 C118 1.360 . S
C120 C121 1.362 1_455 S
C121 H116 0.933 . S
C121 C120 1.362 1_655 S
C121 C122 1.409 . S
C122 C121 1.409 . S
C122 C123 1.391 . S
C123 H117 0.930 . S
C123 C119 1.429 1_655 S
C123 C122 1.391 . S
H124 C127 0.931 . S
H125 C130 0.927 1_545 S
H126 C132 0.930 . S
C127 H124 0.931 . S
C127 C128 1.413 . S
C127 C129 1.360 . S
C128 C127 1.413 . S
C128 C132 1.429 1_565 S
C129 C127 1.360 . S
C129 C130 1.375 . S
C130 H125 0.927 1_565 S
C130 C129 1.375 . S
C130 C131 1.402 1_565 S
C131 C130 1.402 1_545 S
C131 C132 1.391 . S
C132 H126 0.930 . S
C132 C128 1.429 1_545 S
C132 C131 1.391 . S
H133 C136 0.931 . S
H134 C139 0.928 . S
H135 C141 0.930 . S
C136 H133 0.931 . S
C136 C137 1.413 1_554 S
C136 C138 1.360 . S
C137 C136 1.413 1_556 S
C137 C141 1.429 . S
C138 C136 1.360 . S
C138 C139 1.372 . S
C139 H134 0.928 . S
C139 C138 1.372 . S
C139 C140 1.404 . S
C140 C139 1.404 . S
C140 C141 1.391 1_554 S
C141 H135 0.930 . S
C141 C137 1.429 . S
C141 C140 1.391 1_556 S
H142 C145 0.931 . S
H143 C148 0.933 . S
H144 C150 0.930 . S
C145 H142 0.931 . S
C145 C146 1.413 . S
C145 C147 1.360 . S
C146 C145 1.413 . S
C146 C150 1.429 1_545 S
C147 C145 1.360 . S
C147 C148 1.362 1_545 S
C148 H143 0.933 . S
C148 C147 1.362 1_565 S
C148 C149 1.409 . S
C149 C148 1.409 . S
C149 C150 1.391 . S
C150 H144 0.930 . S
C150 C146 1.429 1_565 S
C150 C149 1.391 . S
H151 C154 0.931 . S
H152 C157 0.928 . S
H153 C159 0.930 . S
C154 H151 0.931 . S
C154 C155 1.413 1_556 S
C154 C156 1.360 . S
C155 C154 1.413 1_554 S
C155 C159 1.429 . S
C156 C154 1.360 . S
C156 C157 1.372 . S
C157 H152 0.928 . S
C157 C156 1.372 . S
C157 C158 1.410 . S
C158 C157 1.410 . S
C158 C159 1.384 1_556 S
C159 H153 0.930 . S
C159 C155 1.429 . S
C159 C158 1.384 1_554 S
C160 C161 1.387 . S
C160 H164 0.950 . S
C160 C169 1.390 . S
C161 C160 1.387 . S
C161 C163 1.387 . S
H162 C169 0.950 . S
C163 C161 1.387 . S
C163 C165 1.390 . S
C163 H167 0.950 . S
H164 C160 0.950 . S
C165 C163 1.390 . S
C165 C166 1.387 . S
C165 H168 0.950 . S
C166 C165 1.387 . S
C166 C169 1.387 . S
H167 C163 0.950 . S
H168 C165 0.950 . S
C169 C160 1.390 . S
C169 H162 0.950 . S
C169 C166 1.387 . S
C170 C171 1.387 . S
C170 H174 0.950 . S
C170 C179 1.390 . S
C171 C170 1.387 . S
C171 C173 1.387 . S
H172 C179 0.950 . S
C173 C171 1.387 . S
C173 C175 1.390 . S
C173 H177 0.950 . S
H174 C170 0.950 . S
C175 C173 1.390 . S
C175 C176 1.387 . S
C175 H178 0.950 . S
C176 C175 1.387 . S
C176 C179 1.387 . S
H177 C173 0.950 . S
H178 C175 0.950 . S
C179 C170 1.390 . S
C179 H172 0.950 . S
C179 C176 1.387 . S
C180 C181 1.387 . S
C180 H184 0.950 . S
C180 C189 1.390 . S
C181 C180 1.387 . S
C181 C183 1.387 . S
H182 C189 0.950 . S
C183 C181 1.387 . S
C183 C185 1.390 . S
C183 H187 0.950 . S
H184 C180 0.950 . S
C185 C183 1.390 . S
C185 C186 1.387 . S
C185 H188 0.950 . S
C186 C185 1.387 . S
C186 C189 1.387 . S
H187 C183 0.950 . S
H188 C185 0.950 . S
C189 C180 1.390 . S
C189 H182 0.950 . S
C189 C186 1.387 . S
C190 C191 1.387 . S
C190 H194 0.950 . S
C190 C199 1.390 . S
C191 C190 1.387 . S
C191 C193 1.387 . S
H192 C199 0.950 . S
C193 C191 1.387 . S
C193 C195 1.390 . S
C193 H197 0.950 . S
H194 C190 0.950 . S
C195 C193 1.390 . S
C195 C196 1.387 . S
C195 H198 0.950 . S
C196 C195 1.387 . S
C196 C199 1.387 . S
H197 C193 0.950 . S
H198 C195 0.950 . S
C199 C190 1.390 . S
C199 H192 0.950 . S
C199 C196 1.387 . S
C200 C201 1.387 . S
C200 H204 0.950 . S
C200 C209 1.390 . S
C201 C200 1.387 . S
C201 C203 1.387 . S
H202 C209 0.950 . S
C203 C201 1.387 . S
C203 C205 1.390 . S
C203 H207 0.950 . S
H204 C200 0.950 . S
C205 C203 1.390 . S
C205 C206 1.387 . S
C205 H208 0.950 . S
C206 C205 1.387 . S
C206 C209 1.387 . S
H207 C203 0.950 . S
H208 C205 0.950 . S
C209 C200 1.390 . S
C209 H202 0.950 . S
C209 C206 1.387 . S
C210 C211 1.387 . S
C210 H214 0.950 . S
C210 C219 1.390 . S
C211 C210 1.387 . S
C211 C213 1.387 . S
H212 C219 0.950 . S
C213 C211 1.387 . S
C213 C215 1.390 . S
C213 H217 0.950 . S
H214 C210 0.950 . S
C215 C213 1.390 . S
C215 C216 1.387 . S
C215 H218 0.950 . S
C216 C215 1.387 . S
C216 C219 1.387 . S
H217 C213 0.950 . S
H218 C215 0.950 . S
C219 C210 1.390 . S
C219 H212 0.950 . S
C219 C216 1.387 . S
C220 C221 1.387 . S
C220 H224 0.950 . S
C220 C229 1.390 . S
C221 C220 1.387 . S
C221 C223 1.387 . S
H222 C229 0.950 . S
C223 C221 1.387 . S
C223 C225 1.390 . S
C223 H227 0.950 . S
H224 C220 0.950 . S
C225 C223 1.390 . S
C225 C226 1.387 . S
C225 H228 0.950 . S
C226 C225 1.387 . S
C226 C229 1.387 . S
H227 C223 0.950 . S
H228 C225 0.950 . S
C229 C220 1.390 . S
C229 H222 0.950 . S
C229 C226 1.387 . S
C230 C231 1.387 . S
C230 H234 0.950 . S
C230 C239 1.390 . S
C231 C230 1.387 . S
C231 C233 1.387 . S
H232 C239 0.950 . S
C233 C231 1.387 . S
C233 C235 1.390 . S
C233 H237 0.950 . S
H234 C230 0.950 . S
C235 C233 1.390 . S
C235 C236 1.387 . S
C235 H238 0.950 . S
C236 C235 1.387 . S
C236 C239 1.387 . S
H237 C233 0.950 . S
H238 C235 0.950 . S
C239 C230 1.390 . S
C239 H232 0.950 . S
C239 C236 1.387 . S
C240 C241 1.387 . S
C240 H244 0.950 . S
C240 C249 1.390 . S
C241 C240 1.387 . S
C241 C243 1.387 . S
H242 C249 0.950 . S
C243 C241 1.387 . S
C243 C245 1.390 . S
C243 H247 0.950 . S
H244 C240 0.950 . S
C245 C243 1.390 . S
C245 C246 1.387 . S
C245 H248 0.950 . S
C246 C245 1.387 . S
C246 C249 1.387 . S
H247 C243 0.950 . S
H248 C245 0.950 . S
C249 C240 1.390 . S
C249 H242 0.950 . S
C249 C246 1.387 . S
C250 C251 1.387 . S
C250 H254 0.950 . S
C250 C259 1.390 . S
C251 C250 1.387 . S
C251 C253 1.387 . S
H252 C259 0.950 . S
C253 C251 1.387 . S
C253 C255 1.390 . S
C253 H257 0.950 . S
H254 C250 0.950 . S
C255 C253 1.390 . S
C255 C256 1.387 . S
C255 H258 0.950 . S
C256 C255 1.387 . S
C256 C259 1.387 . S
H257 C253 0.950 . S
H258 C255 0.950 . S
C259 C250 1.390 . S
C259 H252 0.950 . S
C259 C256 1.387 . S
C260 C261 1.387 . S
C260 H264 0.950 . S
C260 C269 1.390 . S
C261 C260 1.387 . S
C261 C263 1.387 . S
H262 C269 0.950 . S
C263 C261 1.387 . S
C263 C265 1.390 . S
C263 H267 0.950 . S
H264 C260 0.950 . S
C265 C263 1.390 . S
C265 C266 1.387 . S
C265 H268 0.950 . S
C266 C265 1.387 . S
C266 C269 1.387 . S
H267 C263 0.950 . S
H268 C265 0.950 . S
C269 C260 1.390 . S
C269 H262 0.950 . S
C269 C266 1.387 . S
C270 C271 1.387 . S
C270 H274 0.950 . S
C270 C279 1.390 . S
C271 C270 1.387 . S
C271 C273 1.387 . S
H272 C279 0.950 . S
C273 C271 1.387 . S
C273 C275 1.390 . S
C273 H277 0.950 . S
H274 C270 0.950 . S
C275 C273 1.390 . S
C275 C276 1.387 . S
C275 H278 0.950 . S
C276 C275 1.387 . S
C276 C279 1.387 . S
H277 C273 0.950 . S
H278 C275 0.950 . S
C279 C270 1.390 . S
C279 H272 0.950 . S
C279 C276 1.387 . S
C280 C281 1.387 . S
C280 H284 0.950 . S
C280 C289 1.390 . S
C281 C280 1.387 . S
C281 C283 1.387 . S
H282 C289 0.950 . S
C283 C281 1.387 . S
C283 C285 1.390 . S
C283 H287 0.950 . S
H284 C280 0.950 . S
C285 C283 1.390 . S
C285 C286 1.387 . S
C285 H288 0.950 . S
C286 C285 1.387 . S
C286 C289 1.387 . S
H287 C283 0.950 . S
H288 C285 0.950 . S
C289 C280 1.390 . S
C289 H282 0.950 . S
C289 C286 1.387 . S
C290 C291 1.387 . S
C290 H294 0.950 . S
C290 C299 1.390 . S
C291 C290 1.387 . S
C291 C293 1.387 . S
H292 C299 0.950 . S
C293 C291 1.387 . S
C293 C295 1.390 . S
C293 H297 0.950 . S
H294 C290 0.950 . S
C295 C293 1.390 . S
C295 C296 1.387 . S
C295 H298 0.950 . S
C296 C295 1.387 . S
C296 C299 1.387 . S
H297 C293 0.950 . S
H298 C295 0.950 . S
C299 C290 1.390 . S
C299 H292 0.950 . S
C299 C296 1.387 . S
C300 C301 1.387 . S
C300 H304 0.950 . S
C300 C309 1.390 . S
C301 C300 1.387 . S
C301 C303 1.387 . S
H302 C309 0.950 . S
C303 C301 1.387 . S
C303 C305 1.390 . S
C303 H307 0.950 . S
H304 C300 0.950 . S
C305 C303 1.390 . S
C305 C306 1.387 . S
C305 H308 0.950 . S
C306 C305 1.387 . S
C306 C309 1.387 . S
H307 C303 0.950 . S
H308 C305 0.950 . S
C309 C300 1.390 . S
C309 H302 0.950 . S
C309 C306 1.387 . S
C310 C311 1.387 . S
C310 H314 0.950 . S
C310 C319 1.390 . S
C311 C310 1.387 . S
C311 C313 1.387 . S
H312 C319 0.950 . S
C313 C311 1.387 . S
C313 C315 1.390 . S
C313 H317 0.950 . S
H314 C310 0.950 . S
C315 C313 1.390 . S
C315 C316 1.387 . S
C315 H318 0.950 . S
C316 C315 1.387 . S
C316 C319 1.387 . S
H317 C313 0.950 . S
H318 C315 0.950 . S
C319 C310 1.390 . S
C319 H312 0.950 . S
C319 C316 1.387 . S
C320 C321 1.387 1_556 S
C320 H324 0.950 . S
C320 C329 1.390 . S
C321 C320 1.387 1_554 S
C321 C323 1.388 . S
H322 C329 0.950 . S
C323 C321 1.388 . S
C323 C325 1.390 . S
C323 H327 0.950 . S
H324 C320 0.950 . S
C325 C323 1.390 . S
C325 C326 1.389 . S
C325 H328 0.950 . S
C326 C325 1.389 . S
C326 C329 1.386 1_554 S
H327 C323 0.950 . S
H328 C325 0.950 . S
C329 C320 1.390 . S
C329 H322 0.950 . S
C329 C326 1.386 1_556 S
C330 C331 1.387 . S
C330 H334 0.950 . S
C330 C339 1.390 . S
C331 C330 1.387 . S
C331 C333 1.387 . S
H332 C339 0.950 . S
C333 C331 1.387 . S
C333 C335 1.390 . S
C333 H337 0.950 . S
H334 C330 0.950 . S
C335 C333 1.390 . S
C335 C336 1.387 . S
C335 H338 0.950 . S
C336 C335 1.387 . S
C336 C339 1.387 . S
H337 C333 0.950 . S
H338 C335 0.950 . S
C339 C330 1.390 . S
C339 H332 0.950 . S
C339 C336 1.387 . S
C340 C341 1.384 1_556 S
C340 H344 0.950 . S
C340 C349 1.390 . S
C341 C340 1.384 1_554 S
C341 C343 1.391 . S
H342 C349 0.950 . S
C343 C341 1.391 . S
C343 C345 1.390 . S
C343 H347 0.950 . S
H344 C340 0.950 . S
C345 C343 1.390 . S
C345 C346 1.390 . S
C345 H348 0.950 . S
C346 C345 1.390 . S
C346 C349 1.385 1_554 S
H347 C343 0.950 . S
H348 C345 0.950 . S
C349 C340 1.390 . S
C349 H342 0.950 . S
C349 C346 1.385 1_556 S
C350 C351 1.387 . S
C350 H354 0.950 . S
C350 C359 1.390 . S
C351 C350 1.387 . S
C351 C353 1.387 . S
H352 C359 0.950 . S
C353 C351 1.387 . S
C353 C355 1.390 . S
C353 H357 0.950 . S
H354 C350 0.950 . S
C355 C353 1.390 . S
C355 C356 1.387 . S
C355 H358 0.950 . S
C356 C355 1.387 . S
C356 C359 1.387 . S
H357 C353 0.950 . S
H358 C355 0.950 . S
C359 C350 1.390 . S
C359 H352 0.950 . S
C359 C356 1.387 . S
C360 C361 1.387 . S
C360 H364 0.950 . S
C360 C369 1.390 . S
C361 C360 1.387 . S
C361 C363 1.387 . S
H362 C369 0.950 . S
C363 C361 1.387 . S
C363 C365 1.390 . S
C363 H367 0.950 . S
H364 C360 0.950 . S
C365 C363 1.390 . S
C365 C366 1.387 . S
C365 H368 0.950 . S
C366 C365 1.387 . S
C366 C369 1.387 . S
H367 C363 0.950 . S
H368 C365 0.950 . S
C369 C360 1.390 . S
C369 H362 0.950 . S
C369 C366 1.387 . S
C370 C371 1.384 1_556 S
C370 H374 0.950 . S
C370 C379 1.390 . S
C371 C370 1.384 1_554 S
C371 C373 1.391 . S
H372 C379 0.950 . S
C373 C371 1.391 . S
C373 C375 1.390 . S
C373 H377 0.950 . S
H374 C370 0.950 . S
C375 C373 1.390 . S
C375 C376 1.390 . S
C375 H378 0.950 . S
C376 C375 1.390 . S
C376 C379 1.385 1_554 S
H377 C373 0.950 . S
H378 C375 0.950 . S
C379 C370 1.390 . S
C379 H372 0.950 . S
C379 C376 1.385 1_556 S
C380 C381 1.387 . S
C380 H384 0.950 . S
C380 C389 1.390 . S
C381 C380 1.387 . S
C381 C383 1.387 . S
H382 C389 0.950 . S
C383 C381 1.387 . S
C383 C385 1.390 . S
C383 H387 0.950 . S
H384 C380 0.950 . S
C385 C383 1.390 . S
C385 C386 1.387 . S
C385 H388 0.950 . S
C386 C385 1.387 . S
C386 C389 1.387 . S
H387 C383 0.950 . S
H388 C385 0.950 . S
C389 C380 1.390 . S
C389 H382 0.950 . S
C389 C386 1.387 . S
C390 C391 1.387 1_556 S
C390 H394 0.950 . S
C390 C399 1.390 . S
C391 C390 1.387 1_554 S
C391 C393 1.388 . S
H392 C399 0.950 . S
C393 C391 1.388 . S
C393 C395 1.390 . S
C393 H397 0.950 . S
H394 C390 0.950 . S
C395 C393 1.390 . S
C395 C396 1.389 . S
C395 H398 0.950 . S
C396 C395 1.389 . S
C396 C399 1.386 1_554 S
H397 C393 0.950 . S
H398 C395 0.950 . S
C399 C390 1.390 . S
C399 H392 0.950 . S
C399 C396 1.386 1_556 S
C161 C5 1.447 . S
C166 C119 1.467 . S
C171 C31 1.448 . S
C176 C93 1.470 . S
C186 C102 1.470 . S
C181 C53 1.447 . S
C191 C71 1.447 . S
C196 C110 1.468 . S
C206 C138 1.470 . S
C201 C75 1.448 . S
C216 C146 1.466 . S
C211 C9 1.448 . S
C226 C155 1.466 . S
C221 C27 1.448 . S
C236 C129 1.470 . S
C231 C49 1.446 . S
C241 C51 1.448 . S
C246 C101 1.468 . S
C251 C72 1.448 . S
C256 C111 1.465 . S
C261 C6 1.447 . S
C266 C120 1.466 . S
C276 C92 1.468 . S
C271 C29 1.448 . S
C281 C28 1.449 . S
C286 C156 1.466 . S
C296 C128 1.468 . S
C291 C50 1.448 . S
C306 C137 1.468 . S
C301 C73 1.448 . S
C311 C7 1.447 . S
C316 C147 1.467 . S
C326 C95 1.491 1_554 S
C321 C4 1.487 . S
C336 C104 1.491 . S
C331 C30 1.487 . S
C341 C52 1.487 . S
C346 C113 1.488 . S
C351 C70 1.488 . S
C356 C122 1.487 . S
C366 C131 1.490 . S
C361 C74 1.488 . S
C371 C8 1.489 . S
C376 C140 1.490 . S
C381 C26 1.487 . S
C386 C149 1.488 . S
C391 C48 1.489 . S
C396 C158 1.487 1_554 S
