# Generated by pormake.
# Topology pyr, (3,6)-cn, num edge types: 1
# Building blocks:
#     Node 0, Type 0, BuildingBlock: BETDIP_clean_linker_0, # of connection points: 3
#     Node 1, Type 0, BuildingBlock: BETDIP_clean_linker_0, # of connection points: 3
#     Node 2, Type 0, BuildingBlock: BETDIP_clean_linker_0, # of connection points: 3
#     Node 3, Type 0, BuildingBlock: BETDIP_clean_linker_0, # of connection points: 3
#     Node 4, Type 0, BuildingBlock: BETDIP_clean_linker_0, # of connection points: 3
#     Node 5, Type 0, BuildingBlock: BETDIP_clean_linker_0, # of connection points: 3
#     Node 6, Type 0, BuildingBlock: BETDIP_clean_linker_0, # of connection points: 3
#     Node 7, Type 0, BuildingBlock: BETDIP_clean_linker_0, # of connection points: 3
#     Node 8, Type 1, BuildingBlock: BETFAJ_clean_sbu_0, # of connection points: 6
#     Node 9, Type 1, BuildingBlock: BETFAJ_clean_sbu_0, # of connection points: 6
#     Node 10, Type 1, BuildingBlock: BETFAJ_clean_sbu_0, # of connection points: 6
#     Node 11, Type 1, BuildingBlock: BETFAJ_clean_sbu_0, # of connection points: 6
#     Edge 12, Type (0, 1), BuildingBlock: XUDNAN_clean_linker_2, # of connection points: 2
#     Edge 13, Type (0, 1), BuildingBlock: XUDNAN_clean_linker_2, # of connection points: 2
#     Edge 14, Type (0, 1), BuildingBlock: XUDNAN_clean_linker_2, # of connection points: 2
#     Edge 15, Type (0, 1), BuildingBlock: XUDNAN_clean_linker_2, # of connection points: 2
#     Edge 16, Type (0, 1), BuildingBlock: XUDNAN_clean_linker_2, # of connection points: 2
#     Edge 17, Type (0, 1), BuildingBlock: XUDNAN_clean_linker_2, # of connection points: 2
#     Edge 18, Type (0, 1), BuildingBlock: XUDNAN_clean_linker_2, # of connection points: 2
#     Edge 19, Type (0, 1), BuildingBlock: XUDNAN_clean_linker_2, # of connection points: 2
#     Edge 20, Type (0, 1), BuildingBlock: XUDNAN_clean_linker_2, # of connection points: 2
#     Edge 21, Type (0, 1), BuildingBlock: XUDNAN_clean_linker_2, # of connection points: 2
#     Edge 22, Type (0, 1), BuildingBlock: XUDNAN_clean_linker_2, # of connection points: 2
#     Edge 23, Type (0, 1), BuildingBlock: XUDNAN_clean_linker_2, # of connection points: 2
#     Edge 24, Type (0, 1), BuildingBlock: XUDNAN_clean_linker_2, # of connection points: 2
#     Edge 25, Type (0, 1), BuildingBlock: XUDNAN_clean_linker_2, # of connection points: 2
#     Edge 26, Type (0, 1), BuildingBlock: XUDNAN_clean_linker_2, # of connection points: 2
#     Edge 27, Type (0, 1), BuildingBlock: XUDNAN_clean_linker_2, # of connection points: 2
#     Edge 28, Type (0, 1), BuildingBlock: XUDNAN_clean_linker_2, # of connection points: 2
#     Edge 29, Type (0, 1), BuildingBlock: XUDNAN_clean_linker_2, # of connection points: 2
#     Edge 30, Type (0, 1), BuildingBlock: XUDNAN_clean_linker_2, # of connection points: 2
#     Edge 31, Type (0, 1), BuildingBlock: XUDNAN_clean_linker_2, # of connection points: 2
#     Edge 32, Type (0, 1), BuildingBlock: XUDNAN_clean_linker_2, # of connection points: 2
#     Edge 33, Type (0, 1), BuildingBlock: XUDNAN_clean_linker_2, # of connection points: 2
#     Edge 34, Type (0, 1), BuildingBlock: XUDNAN_clean_linker_2, # of connection points: 2
#     Edge 35, Type (0, 1), BuildingBlock: XUDNAN_clean_linker_2, # of connection points: 2
# Relax obj value: 0.130
# Max RMSD: 0.169
# Mean RMSD: 0.137
data_MOF--net-pyr--node1-BETFAJ_clean_sbu_0--node2-BETDIP_clean_linker_0--edge1-XUDNAN_clean_linker_2
_symmetry_space_group_name_H-M    P1
_symmetry_Int_Tables_number       1
_symmetry_cell_setting            triclinic
loop_
_symmetry_equiv_pos_as_xyz
'x, y, z'
_cell_length_a     37.601481
_cell_length_b     40.361516
_cell_length_c     38.246863
_cell_angle_alpha  93.811478
_cell_angle_beta   86.443112
_cell_angle_gamma 106.4178
loop_
_atom_site_label
_atom_site_type_symbol
_atom_site_fract_x
_atom_site_fract_y
_atom_site_fract_z
_atom_type_partial_charge
H0 H 0.28752 0.29375 0.18251 0.0
H1 H 0.37751 0.26412 0.12678 0.0
H2 H 0.30744 0.19683 0.2014 0.0
H3 H 0.33689 0.35076 0.17589 0.0
C4 C 0.33459 0.34401 0.14795 0.0
C5 C 0.30388 0.27559 0.17754 0.0
C6 C 0.29373 0.24449 0.19487 0.0
C7 C 0.33438 0.28295 0.15325 0.0
C8 C 0.35438 0.2587 0.14593 0.0
C9 C 0.34527 0.22796 0.16387 0.0
C10 C 0.31512 0.2211 0.18844 0.0
N11 N 0.34393 0.31375 0.1346 0.0
H12 H 0.3057 0.95893 0.61094 0.0
H13 H 0.3012 0.85815 0.56367 0.0
H14 H 0.34238 0.88699 0.66719 0.0
H15 H 0.32891 0.96598 0.54214 0.0
C16 C 0.30004 0.95115 0.5398 0.0
C17 C 0.31055 0.93382 0.61214 0.0
C18 C 0.32481 0.92565 0.64233 0.0
C19 C 0.30252 0.90958 0.58355 0.0
C20 C 0.30789 0.87687 0.58565 0.0
C21 C 0.32237 0.86852 0.61577 0.0
C22 C 0.33084 0.8931 0.64395 0.0
N23 N 0.28798 0.91759 0.55295 0.0
H24 H 0.71248 0.41584 0.83562 0.0
H25 H 0.62805 0.31831 0.84262 0.0
H26 H 0.71865 0.34391 0.91231 0.0
H27 H 0.6901 0.40456 0.77156 0.0
C28 C 0.66076 0.39948 0.77888 0.0
C29 C 0.70157 0.39131 0.84769 0.0
C30 C 0.72058 0.38314 0.87589 0.0
C31 C 0.66786 0.36848 0.83537 0.0
C32 C 0.65353 0.33605 0.85171 0.0
C33 C 0.67243 0.32586 0.87868 0.0
C34 C 0.70531 0.35033 0.89051 0.0
N35 N 0.6466 0.37827 0.80886 0.0
H36 H 0.82527 0.65293 0.33705 0.0
H37 H 0.91487 0.74686 0.34394 0.0
H38 H 0.82357 0.72987 0.42011 0.0
H39 H 0.93163 0.73038 0.29034 0.0
C40 C 0.91838 0.70323 0.28417 0.0
C41 C 0.83745 0.67798 0.34991 0.0
C42 C 0.81981 0.68873 0.38035 0.0
C43 C 0.87115 0.6987 0.33584 0.0
C44 C 0.88817 0.73096 0.35323 0.0
C45 C 0.87137 0.74198 0.38421 0.0
C46 C 0.83698 0.72093 0.39695 0.0
N47 N 0.88711 0.68519 0.30509 0.0
H48 H 0.67753 0.7971 0.9264 0.0
H49 H 0.74865 0.75815 0.85236 0.0
H50 H 0.75464 0.86617 0.85795 0.0
H51 H 0.67432 0.6889 0.87885 0.0
C52 C 0.69869 0.70879 0.88748 0.0
C53 C 0.69917 0.80168 0.90575 0.0
C54 C 0.71484 0.83524 0.8942 0.0
C55 C 0.71105 0.77374 0.89082 0.0
C56 C 0.73923 0.77948 0.86407 0.0
C57 C 0.75591 0.813 0.8528 0.0
C58 C 0.74313 0.84054 0.86769 0.0
N59 N 0.69308 0.74016 0.9026 0.0
H60 H 0.65994 0.07057 0.46733 0.0
H61 H 0.68962 0.15388 0.5455 0.0
H62 H 0.60744 0.1522 0.4712 0.0
H63 H 0.71976 0.11504 0.57 0.0
C64 C 0.72924 0.10548 0.54497 0.0
C65 C 0.65503 0.09368 0.48036 0.0
C66 C 0.63028 0.10901 0.46664 0.0
C67 C 0.67641 0.10947 0.50866 0.0
C68 C 0.67227 0.14086 0.52435 0.0
C69 C 0.6467 0.15622 0.51138 0.0
C70 C 0.62578 0.13986 0.48264 0.0
N71 N 0.70512 0.09522 0.51677 0.0
H72 H 0.34523 0.65819 0.2188 0.0
H73 H 0.43054 0.75586 0.21981 0.0
H74 H 0.34575 0.73398 0.14408 0.0
H75 H 0.39084 0.63936 0.24916 0.0
C76 C 0.40399 0.66175 0.26585 0.0
C77 C 0.35799 0.68291 0.20764 0.0
C78 C 0.34064 0.69321 0.17943 0.0
C79 C 0.39081 0.705 0.22263 0.0
C80 C 0.40623 0.73834 0.2083 0.0
C81 C 0.39008 0.74964 0.18002 0.0
C82 C 0.35766 0.72629 0.16617 0.0
N83 N 0.40742 0.6959 0.25314 0.0
H84 H 0.13228 0.33478 0.71804 0.0
H85 H 0.21659 0.43133 0.71188 0.0
H86 H 0.21126 0.35086 0.63036 0.0
H87 H 0.17425 0.45215 0.745 0.0
C88 C 0.16012 0.43139 0.76187 0.0
C89 C 0.15581 0.35138 0.70396 0.0
C90 C 0.17016 0.33874 0.67263 0.0
C91 C 0.17131 0.38518 0.71751 0.0
C92 C 0.20291 0.40627 0.70003 0.0
C93 C 0.21806 0.39441 0.6684 0.0
C94 C 0.20062 0.36067 0.6546 0.0
N95 N 0.15545 0.39631 0.74959 0.0
Sm96 Sm 0.02422 0.05549 0.49698 0.0
Sm97 Sm 0.02325 1.02169 0.56596 0.0
C98 C 1.0148 0.08066 0.43719 0.0
C99 C 0.04025 0.10157 0.41091 0.0
C100 C 0.03329 0.13135 0.39949 0.0
C101 C 0.05784 0.15182 0.37526 0.0
C102 C 0.08973 0.14274 0.36186 0.0
C103 C 0.09645 0.11275 0.37333 0.0
C104 C 0.07216 0.09254 0.39773 0.0
C105 C 0.09042 0.04349 0.509 0.0
C106 C 0.06222 0.10482 0.56285 0.0
C107 C 0.0318 0.9955 0.62544 0.0
C108 C 1.00786 0.96723 0.6455 0.0
C109 C 0.97572 0.94542 0.63083 0.0
C110 C 0.95108 0.92038 0.65079 0.0
C111 C 0.95809 0.91678 0.68584 0.0
C112 C 0.99093 0.93814 0.70009 0.0
C113 C 1.01561 0.96321 0.68004 0.0
C114 C 0.95788 0.0356 0.55238 0.0
C115 C 0.98697 0.97056 0.50217 0.0
O116 O 1.01121 0.09627 0.46771 0.0
O117 O 1.01693 0.04914 0.4397 0.0
O118 O 0.0589 1.02307 0.51586 0.0
O119 O 0.08765 0.06979 0.4929 0.0
O120 O 0.0444 0.10453 0.53397 0.0
O121 O 0.06344 0.07566 0.57577 0.0
O122 O 0.04511 0.98639 0.59504 0.0
O123 O 0.01931 1.02249 0.62411 0.0
O124 O 0.98997 0.05479 0.54657 0.0
O125 O 0.95876 1.00877 0.56875 0.0
O126 O 1.00475 0.97287 0.53118 0.0
O127 O 0.98588 0.99876 0.48668 0.0
H128 H 1.00899 0.13892 0.40954 0.0
H129 H 0.05203 0.17497 0.36736 0.0
H130 H 0.1203 0.10454 0.36315 0.0
H131 H 0.07844 0.06983 0.40624 0.0
H132 H 0.9692 0.9484 0.60423 0.0
H133 H 0.92582 0.90479 0.63917 0.0
H134 H 0.99729 0.93577 0.72688 0.0
H135 H 0.0403 0.97992 0.69172 0.0
Sm136 Sm 0.56188 0.04433 0.05394 0.0
Sm137 Sm 0.51288 0.02896 1.00524 0.0
C138 C 0.60846 0.07069 0.1044 0.0
C139 C 0.60477 0.06904 0.14259 0.0
C140 C 0.63275 0.08966 0.16341 0.0
C141 C 0.62883 0.08861 0.19989 0.0
C142 C 0.59681 0.06688 0.21602 0.0
C143 C 0.56889 0.0461 0.19492 0.0
C144 C 0.57279 0.04727 0.15845 0.0
C145 C 0.51495 0.9771 0.06644 0.0
C146 C 0.48852 0.07124 0.06994 0.0
C147 C 0.46773 1.00098 0.95393 0.0
C148 C 0.44828 1.01103 0.92597 0.0
C149 C 0.41046 0.99443 0.92225 0.0
C150 C 0.39256 0.99967 0.89306 0.0
C151 C 0.41236 1.02139 0.86698 0.0
C152 C 0.44964 0.0397 0.87184 0.0
C153 C 0.46745 0.0347 0.90121 0.0
C154 C 0.5579 0.09692 0.99368 0.0
C155 C 0.58586 1.00415 0.99133 0.0
O156 O 0.58843 0.08782 0.09089 0.0
O157 O 0.60731 0.04154 0.08698 0.0
O158 O 0.5044 1.00289 0.05819 0.0
O159 O 0.55077 0.98631 0.06673 0.0
O160 O 0.52261 0.07474 0.0785 0.0
O161 O 0.47514 0.05166 0.0425 0.0
O162 O 0.5038 1.00833 0.95042 0.0
O163 O 0.45593 1.00546 0.98617 0.0
O164 O 0.56949 0.07151 1.00142 0.0
O165 O 0.52212 0.08668 0.99303 0.0
O166 O 0.5496 0.9917 0.99237 0.0
O167 O 0.59972 0.03325 1.00895 0.0
H168 H 0.65756 0.10659 0.15146 0.0
H169 H 0.65101 0.10457 0.21549 0.0
H170 H 0.5438 0.02938 0.20662 0.0
H171 H 0.5508 0.03133 0.14259 0.0
H172 H 0.39519 0.97613 0.94109 0.0
H173 H 0.36393 0.98491 0.88976 0.0
H174 H 0.46541 0.05671 0.85215 0.0
H175 H 0.49657 0.04819 0.90368 0.0
Sm176 Sm 0.52414 0.50453 0.50705 0.0
Sm177 Sm 0.5265 0.56593 0.5547 0.0
C178 C 0.54462 0.45414 0.4712 0.0
C179 C 0.56027 0.42675 0.48151 0.0
C180 C 0.58628 0.43339 0.50782 0.0
C181 C 0.60016 0.40708 0.51818 0.0
C182 C 0.58834 0.37354 0.50248 0.0
C183 C 0.56231 0.367 0.47612 0.0
C184 C 0.54841 0.39336 0.46578 0.0
C185 C 0.45756 0.49975 0.54283 0.0
C186 C 0.55415 0.50559 0.58983 0.0
C187 C 0.51233 0.61627 0.59641 0.0
C188 C 0.48975 0.64053 0.59858 0.0
C189 C 0.46858 0.64333 0.57057 0.0
C190 C 0.44485 0.66462 0.57447 0.0
C191 C 0.44178 0.68299 0.60656 0.0
C192 C 0.46361 0.68046 0.63425 0.0
C193 C 0.4874 0.65939 0.63025 0.0
C194 C 0.59151 0.57055 0.51505 0.0
C195 C 0.49415 0.56496 0.47346 0.0
O196 O 0.56609 0.48585 0.47452 0.0
O197 O 0.51018 0.45139 0.48171 0.0
O198 O 0.48914 0.51143 0.55581 0.0
O199 O 0.46039 0.4876 0.51076 0.0
O200 O 0.55181 0.4911 0.55735 0.0
O201 O 0.54383 0.53425 0.59626 0.0
O202 O 0.4939 0.58373 0.59836 0.0
O203 O 0.53992 0.6214 0.57303 0.0
O204 O 0.55898 0.55941 0.50462 0.0
O205 O 0.59087 0.58024 0.54816 0.0
O206 O 0.49543 0.57769 0.50669 0.0
O207 O 0.50616 0.53713 0.46539 0.0
H208 H 0.59587 0.45891 0.52051 0.0
H209 H 0.61985 0.41292 0.53877 0.0
H210 H 0.55303 0.34158 0.46311 0.0
H211 H 0.52835 0.38767 0.4455 0.0
H212 H 0.46987 0.62858 0.54605 0.0
H213 H 0.42821 0.66601 0.55278 0.0
H214 H 0.46226 0.69477 0.65905 0.0
H215 H 0.50351 0.65735 0.65214 0.0
Sm216 Sm 0.02041 0.51273 0.04751 0.0
Sm217 Sm 0.03111 0.58511 1.01474 0.0
C218 C 0.03125 0.45496 0.06713 0.0
C219 C 0.06454 0.443 0.06863 0.0
C220 C 0.09458 0.45381 0.04434 0.0
C221 C 0.1267 0.4434 0.04672 0.0
C222 C 0.12951 0.42244 0.07371 0.0
C223 C 0.09942 0.41176 0.09803 0.0
C224 C 0.06713 0.42191 0.09544 0.0
C225 C 0.99232 0.55998 0.08756 0.0
C226 C 0.10069 0.57694 0.05909 0.0
C227 C 1.01547 0.64395 1.00716 0.0
C228 C 0.99021 0.65505 0.98559 0.0
C229 C 0.96866 0.67558 1.00151 0.0
C230 C 0.93957 0.68124 0.98393 0.0
C231 C 0.93152 0.66661 0.94987 0.0
C232 C 0.95453 0.64751 0.93333 0.0
C233 C 0.98337 0.64151 0.95113 0.0
C234 C 0.05652 0.54222 0.96596 0.0
C235 C 0.95511 0.51736 0.99614 0.0
O236 O 0.02123 0.45847 0.03572 0.0
O237 O 0.02919 0.48051 0.08932 0.0
O238 O 0.02215 0.56591 0.06913 0.0
O239 O 0.97584 0.52687 0.08647 0.0
O240 O 0.08269 0.5432 0.05827 0.0
O241 O 0.0858 0.5995 0.04592 0.0
O242 O 0.99848 0.62177 0.03044 0.0
O243 O 0.04458 0.63656 0.99139 0.0
O244 O 0.04255 0.53522 0.99638 0.0
O245 O 0.05845 0.57421 0.96056 0.0
O246 O 0.97212 0.55128 0.99639 0.0
O247 O 0.96915 0.49625 1.01247 0.0
H248 H 0.09337 0.47059 0.02374 0.0
H249 H 0.14964 0.45232 0.0279 0.0
H250 H 0.10078 0.39537 0.11893 0.0
H251 H 0.04432 0.41354 0.11452 0.0
H252 H 0.97314 0.68581 0.0283 0.0
H253 H 0.92227 0.69559 0.99786 0.0
H254 H 0.94969 0.63636 0.90692 0.0
H255 H 0.99933 0.62521 0.93843 0.0
H256 H 0.28451 0.21572 0.25908 0.0
H257 H 0.22576 0.25239 0.18266 0.0
H258 H 0.16792 0.23432 0.21935 0.0
H259 H 0.21354 0.14058 0.27821 0.0
H260 H 0.22173 0.14273 0.32435 0.0
H261 H 0.25921 0.16137 0.29372 0.0
H262 H 0.27116 0.22045 0.32866 0.0
H263 H 0.23375 0.20194 0.35952 0.0
H264 H 0.23364 0.23991 0.33729 0.0
H265 H 0.11546 0.20763 0.26164 0.0
H266 H 0.07252 0.17531 0.30703 0.0
H267 H 0.16588 0.15773 0.35682 0.0
C268 C 0.25952 0.22016 0.25021 0.0
C269 C 0.25966 0.23559 0.21811 0.0
C270 C 0.22643 0.2411 0.20744 0.0
C271 C 0.19341 0.23081 0.22802 0.0
C272 C 0.19413 0.21528 0.25931 0.0
C273 C 0.22637 0.21021 0.27051 0.0
C274 C 0.21936 0.19173 0.30448 0.0
C275 C 0.22903 0.15705 0.29989 0.0
C276 C 0.24075 0.2149 0.33425 0.0
C277 C 0.17796 0.18633 0.31011 0.0
C278 C 0.16396 0.2003 0.28391 0.0
C279 C 0.12617 0.19705 0.28262 0.0
C280 C 0.102 0.17878 0.30865 0.0
C281 C 0.11571 0.16398 0.33564 0.0
C282 C 0.15434 0.16837 0.33644 0.0
H283 H 0.39143 0.95105 0.67174 0.0
H284 H 0.27748 0.95537 0.68114 0.0
H285 H 0.29036 0.99022 0.73719 0.0
H286 H 0.40043 0.93745 0.75637 0.0
H287 H 0.44777 0.96365 0.75981 0.0
H288 H 0.43124 0.94508 0.71788 0.0
H289 H 0.45074 1.006 0.69259 0.0
H290 H 0.46742 1.02484 0.73465 0.0
H291 H 0.43364 0.04003 0.71392 0.0
H292 H 0.31272 1.01407 0.79696 0.0
H293 H 0.34342 0.02736 0.85373 0.0
H294 H 0.44345 1.00994 0.80335 0.0
C295 C 0.3696 0.96031 0.68518 0.0
C296 C 0.3336 0.95085 0.67243 0.0
C297 C 0.30536 0.96285 0.69058 0.0
C298 C 0.31246 0.98262 0.7223 0.0
C299 C 0.34813 0.9907 0.73486 0.0
C300 C 0.37641 0.98042 0.71646 0.0
C301 C 0.41129 0.98951 0.73688 0.0
C302 C 0.42334 0.95699 0.74311 0.0
C303 C 0.44262 1.01672 0.7184 0.0
C304 C 0.39765 1.00459 0.77055 0.0
C305 C 0.36133 1.00556 0.76882 0.0
C306 C 0.3415 1.01445 0.79829 0.0
C307 C 0.35903 1.02183 0.8304 0.0
C308 C 0.39598 1.02032 0.83262 0.0
C309 C 0.41566 1.01253 0.80208 0.0
H310 H 0.67485 0.4154 0.70806 0.0
H311 H 0.5928 0.41424 0.7929 0.0
H312 H 0.55795 0.44014 0.7546 0.0
H313 H 0.67416 0.49481 0.67094 0.0
H314 H 0.67784 0.47972 0.6258 0.0
H315 H 0.69637 0.46116 0.65954 0.0
H316 H 0.65656 0.40018 0.63986 0.0
H317 H 0.63813 0.41861 0.60592 0.0
H318 H 0.60709 0.39209 0.6374 0.0
H319 H 0.53415 0.47169 0.70709 0.0
H320 H 0.51996 0.49803 0.6551 0.0
H321 H 0.61275 0.47384 0.59683 0.0
C322 C 0.64929 0.42023 0.71858 0.0
C323 C 0.63695 0.41238 0.75422 0.0
C324 C 0.60319 0.41942 0.7662 0.0
C325 C 0.58318 0.43445 0.74439 0.0
C326 C 0.59629 0.44205 0.70973 0.0
C327 C 0.62828 0.43442 0.69664 0.0
C328 C 0.63573 0.44415 0.65801 0.0
C329 C 0.67326 0.47159 0.6533 0.0
C330 C 0.6343 0.41183 0.63387 0.0
C331 C 0.60347 0.45907 0.65142 0.0
C332 C 0.58135 0.45796 0.68191 0.0
C333 C 0.55118 0.47199 0.68317 0.0
C334 C 0.54329 0.48716 0.65317 0.0
C335 C 0.56454 0.4881 0.62095 0.0
C336 C 0.59518 0.47337 0.6204 0.0
H337 H 0.89399 0.63493 0.25665 0.0
H338 H 0.9754 0.73357 0.24004 0.0
H339 H 1.00111 0.70801 0.18747 0.0
H340 H 0.95452 0.58162 0.23019 0.0
H341 H 0.91934 0.54798 0.20856 0.0
H342 H 0.90644 0.57394 0.24459 0.0
H343 H 0.86119 0.59068 0.20538 0.0
H344 H 0.87404 0.56482 0.16919 0.0
H345 H 0.87831 0.60989 0.1642 0.0
H346 H 0.01933 0.67222 0.13789 0.0
H347 H 0.02963 0.62807 0.09408 0.0
H348 H 0.93639 0.55142 0.14051 0.0
C349 C 0.91715 0.65114 0.24187 0.0
C350 C 0.9327 0.68643 0.25251 0.0
C351 C 0.96304 0.7066 0.23244 0.0
C352 C 0.97781 0.6923 0.20248 0.0
C353 C 0.96199 0.65761 0.19266 0.0
C354 C 0.93235 0.63718 0.21165 0.0
C355 C 0.92115 0.60041 0.19533 0.0
C356 C 0.92564 0.57446 0.22121 0.0
C357 C 0.8813 0.5909 0.18278 0.0
C358 C 0.94928 0.60342 0.16442 0.0
C359 C 0.97243 0.63677 0.16352 0.0
C360 C 1.00119 0.6461 0.13818 0.0
C361 C 1.00673 0.62075 0.11325 0.0
C362 C 0.98358 0.58627 0.1134 0.0
C363 C 0.95429 0.5776 0.13936 0.0
H364 H 0.35873 0.19695 0.10068 0.0
H365 H 0.38017 0.20224 0.21126 0.0
H366 H 0.41732 0.16053 0.19962 0.0
H367 H 0.34874 0.10478 0.08634 0.0
H368 H 0.37056 0.10903 0.04293 0.0
H369 H 0.34568 0.1392 0.05999 0.0
H370 H 0.40419 0.19029 0.04858 0.0
H371 H 0.42919 0.16031 0.03137 0.0
H372 H 0.4473 0.1907 0.06703 0.0
H373 H 0.45562 0.12193 0.17523 0.0
H374 H 0.4894 0.0857 0.14029 0.0
H375 H 0.43893 0.10174 0.04626 0.0
C376 C 0.37132 0.18925 0.12234 0.0
C377 C 0.36697 0.20277 0.15681 0.0
C378 C 0.38332 0.19198 0.1847 0.0
C379 C 0.4044 0.16841 0.17833 0.0
C380 C 0.40823 0.15552 0.14401 0.0
C381 C 0.39183 0.16524 0.11652 0.0
C382 C 0.39999 0.14728 0.08218 0.0
C383 C 0.3641 0.12367 0.06698 0.0
C384 C 0.42145 0.17373 0.05574 0.0
C385 C 0.42408 0.12639 0.09454 0.0
C386 C 0.42868 0.13171 0.13027 0.0
C387 C 0.45175 0.11708 0.14736 0.0
C388 C 0.47082 0.09664 0.12735 0.0
C389 C 0.46617 0.09061 0.09083 0.0
C390 C 0.44217 0.10532 0.07433 0.0
H391 H 0.22375 0.92852 0.5458 0.0
H392 H 0.31598 1.01374 0.51189 0.0
H393 H 0.27197 0.04636 0.49928 0.0
H394 H 0.15811 0.93619 0.4825 0.0
H395 H 0.11905 0.92585 0.5136 0.0
H396 H 0.15763 0.90837 0.51761 0.0
H397 H 0.16506 0.93437 0.58143 0.0
H398 H 0.12678 0.95224 0.57752 0.0
H399 H 0.17126 0.98009 0.58989 0.0
H400 H 0.21877 0.07047 0.49298 0.0
H401 H 0.1591 0.08441 0.49174 0.0
H402 H 0.10138 0.98391 0.53097 0.0
C403 C 0.23465 0.95379 0.53515 0.0
C404 C 0.27319 0.96866 0.52944 0.0
C405 C 0.28646 1.00198 0.51612 0.0
C406 C 0.26174 1.02064 0.50898 0.0
C407 C 0.22394 1.00555 0.51549 0.0
C408 C 0.21038 0.97286 0.52815 0.0
C409 C 0.16859 0.96321 0.53414 0.0
C410 C 0.14974 0.93153 0.51054 0.0
C411 C 0.15727 0.95713 0.57306 0.0
C412 C 0.16082 0.99566 0.523 0.0
C413 C 0.19316 1.0197 0.51228 0.0
C414 C 0.19323 0.05183 0.50114 0.0
C415 C 0.15925 0.05951 0.50059 0.0
C416 C 0.12579 0.03517 0.51117 0.0
C417 C 0.12662 1.00294 0.52273 0.0
H418 H 0.78043 0.37102 0.91036 0.0
H419 H 0.7415 0.45531 0.87768 0.0
H420 H 0.79593 0.49708 0.90308 0.0
H421 H 0.8134 0.41241 0.99407 0.0
H422 H 0.853 0.39546 0.99275 0.0
H423 H 0.81178 0.37179 0.97063 0.0
H424 H 0.85069 0.37138 0.91255 0.0
H425 H 0.89203 0.39506 0.93448 0.0
H426 H 0.87899 0.41172 0.89614 0.0
H427 H 0.85609 0.53129 0.9334 0.0
H428 H 0.91385 0.55335 0.96537 0.0
H429 H 0.9137 0.44798 0.98175 0.0
C430 C 0.78278 0.39819 0.90857 0.0
C431 C 0.7555 0.409 0.89116 0.0
C432 C 0.76141 0.44535 0.88967 0.0
C433 C 0.79248 0.46966 0.90452 0.0
C434 C 0.8183 0.45801 0.92146 0.0
C435 C 0.8137 0.42303 0.92363 0.0
C436 C 0.84531 0.41734 0.94383 0.0
C437 C 0.82995 0.3981 0.97731 0.0
C438 C 0.8681 0.39771 0.92035 0.0
C439 C 0.86836 0.45449 0.95277 0.0
C440 C 0.85229 0.47755 0.93942 0.0
C441 C 0.8686 0.51323 0.94394 0.0
C442 C 0.90176 0.52564 0.96233 0.0
C443 C 0.91908 0.50284 0.97668 0.0
C444 C 0.90163 0.46653 0.97158 0.0
H445 H 0.79537 0.67982 0.45009 0.0
H446 H 0.76151 0.64704 0.34375 0.0
H447 H 0.70201 0.61029 0.36719 0.0
H448 H 0.75098 0.59865 0.49036 0.0
H449 H 0.7367 0.61896 0.53008 0.0
H450 H 0.77789 0.64114 0.50526 0.0
H451 H 0.75158 0.69345 0.5011 0.0
H452 H 0.71044 0.67154 0.52606 0.0
H453 H 0.70651 0.6867 0.48358 0.0
H454 H 0.64526 0.57844 0.40169 0.0
H455 H 0.59392 0.55598 0.44475 0.0
H456 H 0.66264 0.6108 0.52909 0.0
C457 C 0.77547 0.6651 0.4316 0.0
C458 C 0.78365 0.66633 0.39486 0.0
C459 C 0.75662 0.64617 0.37191 0.0
C460 C 0.72252 0.62528 0.38499 0.0
C461 C 0.71548 0.62477 0.42119 0.0
C462 C 0.74107 0.64428 0.4442 0.0
C463 C 0.72583 0.64015 0.48192 0.0
C464 C 0.74925 0.62375 0.50315 0.0
C465 C 0.72344 0.67503 0.49917 0.0
C466 C 0.6875 0.61557 0.47645 0.0
C467 C 0.68234 0.60681 0.44119 0.0
C468 C 0.64904 0.58504 0.42936 0.0
C469 C 0.62003 0.57236 0.45408 0.0
C470 C 0.62422 0.58154 0.49032 0.0
C471 C 0.65867 0.6031 0.50162 0.0
H472 H 0.28924 0.38145 0.17534 0.0
H473 H 0.32408 0.33759 0.07707 0.0
H474 H 0.2779 0.35672 0.04627 0.0
H475 H 0.19445 0.354 0.16105 0.0
H476 H 0.18404 0.3918 0.18183 0.0
H477 H 0.2229 0.37879 0.19525 0.0
H478 H 0.26695 0.43933 0.18248 0.0
H479 H 0.22812 0.45268 0.16932 0.0
H480 H 0.26814 0.45617 0.1398 0.0
H481 H 0.22506 0.37735 0.02717 0.0
H482 H 0.16879 0.39652 1.02148 0.0
H483 H 0.1675 0.4248 0.13287 0.0
C484 C 0.28769 0.37664 0.14719 0.0
C485 C 0.31027 0.35841 0.12843 0.0
C486 C 0.30704 0.35173 0.0918 0.0
C487 C 0.28098 0.36253 0.07413 0.0
C488 C 0.25843 0.37979 0.09358 0.0
C489 C 0.26157 0.38682 0.12932 0.0
C490 C 0.23218 0.40326 0.14468 0.0
C491 C 0.20691 0.3806 0.17232 0.0
C492 C 0.24992 0.44005 0.15997 0.0
C493 C 0.21157 0.40386 0.11214 0.0
C494 C 0.22739 0.39066 0.08283 0.0
C495 C 0.21261 0.38797 0.04989 0.0
C496 C 0.18075 0.39895 0.04689 0.0
C497 C 0.16385 0.41202 0.07676 0.0
C498 C 0.17969 0.41464 0.10967 0.0
H499 H 0.59997 0.28226 0.89827 0.0
H500 H 0.71647 0.28562 0.89521 0.0
H501 H 0.70053 0.2301 0.92355 0.0
H502 H 0.57585 0.24369 0.98309 0.0
H503 H 0.53106 0.21617 0.97117 0.0
H504 H 0.55088 0.25623 0.94991 0.0
H505 H 0.5444 0.22313 0.88939 0.0
H506 H 0.52443 0.183 0.9105 0.0
H507 H 0.56473 0.18776 0.88112 0.0
H508 H 0.6723 0.17279 0.95416 0.0
H509 H 0.63422 0.11985 0.98212 0.0
H510 H 0.53504 0.15052 0.96646 0.0
C511 C 0.62219 0.27127 0.90324 0.0
C512 C 0.65998 0.28966 0.89434 0.0
C513 C 0.68753 0.27342 0.90193 0.0
C514 C 0.67866 0.24135 0.91807 0.0
C515 C 0.64167 0.22446 0.92703 0.0
C516 C 0.61372 0.23877 0.91974 0.0
C517 C 0.57616 0.2149 0.9325 0.0
C518 C 0.55737 0.23389 0.96085 0.0
C519 C 0.55093 0.20141 0.90154 0.0
C520 C 0.58739 0.18526 0.948 0.0
C521 C 0.62543 0.1914 0.9445 0.0
C522 C 0.64248 0.16792 0.95686 0.0
C523 C 0.62048 0.13764 0.97291 0.0
C524 C 0.58128 0.13022 0.97692 0.0
C525 C 0.56482 0.15487 0.9641 0.0
H526 H 0.9026 0.80989 0.36372 0.0
H527 H 0.88265 0.74588 0.45368 0.0
H528 H 0.90833 0.79733 0.49211 0.0
H529 H 0.99019 0.87002 0.39293 0.0
H530 H 0.98092 0.90765 0.37698 0.0
H531 H 0.96188 0.86571 0.35562 0.0
H532 H 0.89596 0.87367 0.36471 0.0
H533 H 0.91476 0.91549 0.3864 0.0
H534 H 0.87893 0.88294 0.40831 0.0
H535 H 0.9338 0.85411 0.52144 0.0
H536 H 0.9618 0.91439 0.54083 0.0
H537 H 0.96703 0.94544 0.43356 0.0
C538 C 0.90413 0.80681 0.39144 0.0
C539 C 0.89031 0.77372 0.40572 0.0
C540 C 0.89259 0.77084 0.44218 0.0
C541 C 0.90719 0.79996 0.46426 0.0
C542 C 0.91965 0.83214 0.4497 0.0
C543 C 0.91866 0.83598 0.41419 0.0
C544 C 0.93394 0.87408 0.40602 0.0
C545 C 0.96881 0.8797 0.38143 0.0
C546 C 0.90411 0.88732 0.39043 0.0
C547 C 0.94346 0.8908 0.44251 0.0
C548 C 0.9348 0.86578 0.46707 0.0
C549 C 0.94088 0.87395 0.50246 0.0
C550 C 0.95691 0.90846 0.5132 0.0
C551 C 0.96691 0.93494 0.48884 0.0
C552 C 0.95953 0.92595 0.45291 0.0
H553 H 0.36036 0.83758 0.56695 0.0
H554 H 0.30354 0.8246 0.66944 0.0
H555 H 0.32321 0.77189 0.67567 0.0
H556 H 0.34228 0.74396 0.54062 0.0
H557 H 0.38762 0.75042 0.5192 0.0
H558 H 0.36487 0.78431 0.52082 0.0
H559 H 0.42202 0.82668 0.54959 0.0
H560 H 0.4448 0.79295 0.54829 0.0
H561 H 0.43815 0.81547 0.58939 0.0
H562 H 0.35407 0.72468 0.67341 0.0
H563 H 0.39402 0.68557 0.66276 0.0
H564 H 0.43147 0.72955 0.56194 0.0
C565 C 0.35116 0.82299 0.5902 0.0
C566 C 0.33024 0.83484 0.61762 0.0
C567 C 0.31958 0.8158 0.64817 0.0
C568 C 0.33046 0.78581 0.65184 0.0
C569 C 0.35186 0.77525 0.62468 0.0
C570 C 0.36196 0.79312 0.59436 0.0
C571 C 0.38767 0.77799 0.57046 0.0
C572 C 0.36951 0.76329 0.53572 0.0
C573 C 0.42539 0.80487 0.56408 0.0
C574 C 0.39124 0.74942 0.59251 0.0
C575 C 0.37003 0.74806 0.62351 0.0
C576 C 0.37045 0.72519 0.64906 0.0
C577 C 0.39341 0.70329 0.6429 0.0
C578 C 0.41576 0.70458 0.61154 0.0
C579 C 0.41419 0.72763 0.58587 0.0
H580 H 0.81854 0.86779 0.85101 0.0
H581 H 0.76251 0.77357 0.79243 0.0
H582 H 0.81192 0.78698 0.74554 0.0
H583 H 0.8426 0.91968 0.77854 0.0
H584 H 0.88667 0.94502 0.79451 0.0
H585 H 0.84938 0.92575 0.82504 0.0
H586 H 0.89174 0.89489 0.8528 0.0
H587 H 0.92919 0.91399 0.82222 0.0
H588 H 0.91383 0.8677 0.82535 0.0
H589 H 0.86485 0.81341 0.70283 0.0
H590 H 0.91622 0.85082 0.66772 0.0
H591 H 0.93537 0.92858 0.75374 0.0
C592 C 0.81665 0.84984 0.82841 0.0
C593 C 0.7866 0.81961 0.82544 0.0
C594 C 0.7855 0.79665 0.79556 0.0
C595 C 0.81338 0.80412 0.76873 0.0
C596 C 0.8422 0.83454 0.77225 0.0
C597 C 0.84401 0.85698 0.8014 0.0
C598 C 0.87638 0.88905 0.79795 0.0
C599 C 0.86294 0.92179 0.79906 0.0
C600 C 0.90445 0.89154 0.82626 0.0
C601 C 0.89212 0.88157 0.76192 0.0
C602 C 0.87232 0.84986 0.74763 0.0
C603 C 0.88072 0.83816 0.71388 0.0
C604 C 0.90979 0.85967 0.69408 0.0
C605 C 0.92994 0.89259 0.70801 0.0
C606 C 0.92113 0.90329 0.74258 0.0
H607 H 0.63042 0.14637 0.41004 0.0
H608 H 0.5957 0.04177 0.44556 0.0
H609 H 0.5772 1.01957 0.3855 0.0
H610 H 0.55825 0.13511 0.34427 0.0
H611 H 0.5907 0.16251 0.3144 0.0
H612 H 0.5956 0.17011 0.36106 0.0
H613 H 0.66319 0.16593 0.35336 0.0
H614 H 0.65841 0.15783 0.30687 0.0
H615 H 0.67195 0.12759 0.3321 0.0
H616 H 0.5691 1.00869 0.32036 0.0
H617 H 0.57228 1.00994 0.25565 0.0
H618 H 0.61256 0.12193 0.26367 0.0
C619 C 0.61761 0.11892 0.40552 0.0
C620 C 0.61392 0.09578 0.43248 0.0
C621 C 0.59849 0.05988 0.42522 0.0
C622 C 0.58782 0.04711 0.39128 0.0
C623 C 0.59275 0.07063 0.36507 0.0
C624 C 0.60707 0.10581 0.37191 0.0
C625 C 0.61293 0.12544 0.33874 0.0
C626 C 0.58786 0.14972 0.33968 0.0
C627 C 0.65405 0.14535 0.33241 0.0
C628 C 0.60076 0.09574 0.31196 0.0
C629 C 0.5887 0.06435 0.32761 0.0
C630 C 0.57793 0.03316 0.30787 0.0
C631 C 0.57978 0.03411 0.27118 0.0
C632 C 0.59268 0.06603 0.25473 0.0
C633 C 0.60281 0.09714 0.27553 0.0
H634 H 0.41664 0.60032 0.28533 0.0
H635 H 0.42833 0.70574 0.32483 0.0
H636 H 0.45109 0.69237 0.38037 0.0
H637 H 0.38702 0.55821 0.36727 0.0
H638 H 0.41307 0.52701 0.35928 0.0
H639 H 0.39751 0.54461 0.32292 0.0
H640 H 0.46485 0.56455 0.29725 0.0
H641 H 0.48061 0.54689 0.33346 0.0
H642 H 0.50065 0.59168 0.32404 0.0
H643 H 0.47047 0.66565 0.43468 0.0
H644 H 0.48891 0.63178 0.47802 0.0
H645 H 0.46964 0.5435 0.40348 0.0
C646 C 0.42415 0.62079 0.30557 0.0
C647 C 0.42031 0.65447 0.29987 0.0
C648 C 0.4308 0.67998 0.32762 0.0
C649 C 0.44376 0.67241 0.35963 0.0
C650 C 0.44697 0.63907 0.3643 0.0
C651 C 0.43787 0.61376 0.33765 0.0
C652 C 0.44477 0.5802 0.34895 0.0
C653 C 0.40843 0.55076 0.34963 0.0
C654 C 0.47448 0.57023 0.32446 0.0
C655 C 0.45885 0.59022 0.38621 0.0
C656 C 0.45949 0.6243 0.39459 0.0
C657 C 0.47022 0.63914 0.42783 0.0
C658 C 0.48067 0.61933 0.45268 0.0
C659 C 0.48127 0.58441 0.44515 0.0
C660 C 0.47005 0.56996 0.41083 0.0
H661 H 0.15558 0.4952 0.78593 0.0
H662 H 0.12508 0.38841 0.81472 0.0
H663 H 0.09634 0.40485 0.87085 0.0
H664 H 0.17739 0.5345 0.87244 0.0
H665 H 0.15835 0.56989 0.8664 0.0
H666 H 0.17711 0.54959 0.82916 0.0
H667 H 0.11476 0.53746 0.79862 0.0
H668 H 0.09584 0.55776 0.83574 0.0
H669 H 0.0724 0.5141 0.82105 0.0
H670 H 0.07069 0.43406 0.92488 0.0
H671 H 0.04896 0.47246 0.96943 0.0
H672 H 0.09512 0.55934 0.9039 0.0
C673 C 0.14293 0.47528 0.80411 0.0
C674 C 0.14265 0.44053 0.79591 0.0
C675 C 0.12565 0.4152 0.82033 0.0
C676 C 0.10929 0.42434 0.85236 0.0
C677 C 0.10999 0.4589 0.8596 0.0
C678 C 0.12629 0.48391 0.83598 0.0
C679 C 0.12274 0.51909 0.84943 0.0
C680 C 0.16119 0.54478 0.85467 0.0
C681 C 0.10008 0.5329 0.82474 0.0
C682 C 0.10181 0.5101 0.88426 0.0
C683 C 0.09486 0.47533 0.88991 0.0
C684 C 0.07601 0.46129 0.92056 0.0
C685 C 0.0638 0.48328 0.94581 0.0
C686 C 0.07028 0.51886 0.9402 0.0
C687 C 0.08964 0.53223 0.90899 0.0
H688 H 0.64292 0.83721 0.91069 0.0
H689 H 0.75744 0.90045 0.91223 0.0
H690 H 0.7364 0.95069 0.9348 0.0
H691 H 0.6039 0.90262 0.88401 0.0
H692 H 0.56226 0.88944 0.91162 0.0
H693 H 0.586 0.85813 0.89536 0.0
H694 H 0.59093 0.84178 0.9589 0.0
H695 H 0.56693 0.87283 0.97533 0.0
H696 H 0.6118 0.87517 0.9911 0.0
H697 H 0.70355 0.99392 0.95723 0.0
H698 H 0.66083 0.02727 0.9805 0.0
H699 H 0.56719 0.9364 0.96527 0.0
C700 C 0.66359 0.86153 0.91611 0.0
C701 C 0.70187 0.86491 0.90945 0.0
C702 C 0.72797 0.89733 0.91657 0.0
C703 C 0.7163 0.92601 0.92952 0.0
C704 C 0.67842 0.92191 0.93535 0.0
C705 C 0.65241 0.89051 0.9291 0.0
C706 C 0.61339 0.89318 0.93801 0.0
C707 C 0.59002 0.88538 0.90529 0.0
C708 C 0.59467 0.86933 0.9676 0.0
C709 C 0.62162 0.93098 0.9503 0.0
C710 C 0.65934 0.94701 0.94842 0.0
C711 C 0.67395 0.98169 0.9588 0.0
C712 C 0.64943 1.00041 0.97197 0.0
C713 C 0.61068 0.98448 0.97465 0.0
C714 C 0.59664 0.94937 0.96326 0.0
H715 H 0.76555 0.08171 0.59381 0.0
H716 H 0.77395 0.1119 0.4862 0.0
H717 H 0.83294 0.09658 0.47659 0.0
H718 H 0.86421 0.11026 0.61015 0.0
H719 H 0.86289 0.07372 0.63536 0.0
H720 H 0.82233 0.08898 0.63458 0.0
H721 H 0.78397 0.02768 0.61348 0.0
H722 H 0.82451 1.01233 0.61389 0.0
H723 H 0.79935 1.00726 0.57436 0.0
H724 H 0.89097 0.07937 0.47856 0.0
H725 H 0.9444 0.0587 0.49155 0.0
H726 H 0.89696 0.03465 0.59612 0.0
C727 C 0.78019 0.08542 0.56844 0.0
C728 C 0.76554 0.09812 0.54076 0.0
C729 C 0.78486 0.10214 0.50767 0.0
C730 C 0.81834 0.09355 0.50198 0.0
C731 C 0.83182 0.08047 0.5295 0.0
C732 C 0.81338 0.07616 0.56204 0.0
C733 C 0.8334 0.06015 0.58652 0.0
C734 C 0.84649 0.08475 0.61855 0.0
C735 C 0.80883 1.02475 0.59771 0.0
C736 C 0.86596 0.05639 0.56267 0.0
C737 C 0.86458 0.06864 0.53003 0.0
C738 C 0.89226 0.06944 0.50391 0.0
C739 C 0.92246 0.05776 0.51147 0.0
C740 C 0.92434 0.04492 0.54456 0.0
C741 C 0.89558 0.04377 0.57037 0.0
H742 H 0.28219 0.71103 0.14865 0.0
H743 H 0.3167 0.62126 0.17221 0.0
H744 H 0.26095 0.58338 0.1447 0.0
H745 H 0.18306 0.67272 0.16309 0.0
H746 H 0.17038 0.69352 0.12746 0.0
H747 H 0.21258 0.71381 0.14962 0.0
H748 H 0.25014 0.71688 0.09041 0.0
H749 H 0.20805 0.69655 0.06806 0.0
H750 H 0.24645 0.67787 0.06329 0.0
H751 H 0.20041 0.55412 0.11302 0.0
H752 H 0.1418 0.53683 0.08228 0.0
H753 H 0.14533 0.64479 0.07705 0.0
C754 C 0.27851 0.68344 0.14794 0.0
C755 C 0.30501 0.66976 0.1632 0.0
C756 C 0.29749 0.63312 0.16167 0.0
C757 C 0.26568 0.61114 0.14565 0.0
C758 C 0.24068 0.62555 0.13078 0.0
C759 C 0.24672 0.66095 0.13187 0.0
C760 C 0.21541 0.66981 0.11389 0.0
C761 C 0.1941 0.68859 0.14007 0.0
C762 C 0.23095 0.69157 0.08202 0.0
C763 C 0.19085 0.63396 0.10238 0.0
C764 C 0.20606 0.60881 0.11249 0.0
C765 C 0.18852 0.57379 0.10512 0.0
C766 C 0.15487 0.56415 0.08742 0.0
C767 C 0.13809 0.58909 0.07665 0.0
C768 C 0.15693 0.62471 0.08438 0.0
H769 H 0.27361 0.37406 0.62846 0.0
H770 H 0.24201 0.46594 0.66742 0.0
H771 H 0.30042 0.50239 0.64181 0.0
H772 H 0.37071 0.406 0.6391 0.0
H773 H 0.38345 0.38591 0.59859 0.0
H774 H 0.33977 0.36666 0.62125 0.0
H775 H 0.30487 0.3684 0.5654 0.0
H776 H 0.34847 0.38737 0.54246 0.0
H777 H 0.3123 0.40884 0.54477 0.0
H778 H 0.36442 0.52938 0.61384 0.0
H779 H 0.42482 0.54406 0.57999 0.0
H780 H 0.41107 0.43529 0.55356 0.0
C781 C 0.27831 0.40178 0.63129 0.0
C782 C 0.25275 0.4167 0.65076 0.0
C783 C 0.26115 0.45338 0.65381 0.0
C784 C 0.29431 0.47451 0.63901 0.0
C785 C 0.31882 0.45885 0.62046 0.0
C786 C 0.31088 0.42331 0.61599 0.0
C787 C 0.34119 0.41294 0.59365 0.0
C788 C 0.35988 0.39162 0.61439 0.0
C789 C 0.32578 0.39323 0.55955 0.0
C790 C 0.36751 0.44819 0.5864 0.0
C791 C 0.3544 0.47437 0.60256 0.0
C792 C 0.37472 0.50908 0.60081 0.0
C793 C 0.40904 0.51721 0.58174 0.0
C794 C 0.42234 0.49083 0.56419 0.0
C795 C 0.40125 0.45594 0.56654 0.0
H796 H 0.763 0.74488 0.92102 0.0
H797 H 0.71212 0.64945 0.86184 0.0
H798 H 0.76772 0.62965 0.86814 0.0
H799 H 0.858 0.75393 0.88444 0.0
H800 H 0.87875 0.77132 0.92538 0.0
H801 H 0.83562 0.77862 0.91479 0.0
H802 H 0.80491 0.7522 0.97293 0.0
H803 H 0.84782 0.74466 0.98361 0.0
H804 H 0.80597 0.70927 0.98215 0.0
H805 H 0.82639 0.61842 0.88443 0.0
H806 H 0.88484 0.61669 0.9087 0.0
H807 H 0.90006 0.72117 0.95397 0.0
C808 C 0.76376 0.72009 0.90888 0.0
C809 C 0.73333 0.69873 0.89065 0.0
C810 C 0.73524 0.66621 0.87576 0.0
C811 C 0.7667 0.65479 0.87913 0.0
C812 C 0.79621 0.67638 0.89723 0.0
C813 C 0.7952 0.70844 0.91164 0.0
C814 C 0.83041 0.72617 0.93049 0.0
C815 C 0.85197 0.75948 0.91271 0.0
C816 C 0.82174 0.73349 0.96961 0.0
C817 C 0.85084 0.69862 0.92527 0.0
C818 C 0.83067 0.67022 0.90585 0.0
C819 C 0.84281 0.64077 0.89911 0.0
C820 C 0.87633 0.64018 0.91283 0.0
C821 C 0.8976 0.66894 0.933 0.0
C822 C 0.88463 0.69867 0.93881 0.0
H823 H 0.46381 0.79075 0.16127 0.0
H824 H 0.34891 0.79272 0.16465 0.0
H825 H 0.36766 0.84865 0.13685 0.0
H826 H 0.50375 0.88491 0.17886 0.0
H827 H 0.54367 0.88795 0.14931 0.0
H828 H 0.52183 0.84813 0.17036 0.0
H829 H 0.5136 0.81523 0.10977 0.0
H830 H 0.53525 0.85499 0.08855 0.0
H831 H 0.48963 0.82929 0.0768 0.0
H832 H 0.39848 0.9054 0.10636 0.0
H833 H 0.43873 0.95729 0.07829 0.0
H834 H 0.53491 0.92172 0.0935 0.0
C835 C 0.44258 0.80307 0.15658 0.0
C836 C 0.40436 0.78617 0.16543 0.0
C837 C 0.3781 0.80396 0.15811 0.0
C838 C 0.38858 0.8362 0.14222 0.0
C839 C 0.42594 0.85163 0.13325 0.0
C840 C 0.4527 0.83577 0.14033 0.0
C841 C 0.49097 0.85822 0.12747 0.0
C842 C 0.51658 0.87053 0.15834 0.0
C843 C 0.5084 0.83824 0.09896 0.0
C844 C 0.4815 0.88887 0.11215 0.0
C845 C 0.4437 0.88442 0.11582 0.0
C846 C 0.42812 0.90897 0.10356 0.0
C847 C 0.45136 0.93864 0.08744 0.0
C848 C 0.49038 0.94439 0.08328 0.0
C849 C 0.50534 0.91866 0.09601 0.0
H850 H 0.14595 0.31059 0.60688 0.0
H851 H 0.16067 0.28299 0.71167 0.0
H852 H 0.13602 0.22126 0.69401 0.0
H853 H 0.05903 0.24449 0.59393 0.0
H854 H 0.06888 0.23564 0.54809 0.0
H855 H 0.08898 0.27799 0.56811 0.0
H856 H 0.15463 0.27396 0.54771 0.0
H857 H 0.13472 0.23159 0.52763 0.0
H858 H 0.16962 0.2377 0.55955 0.0
H859 H 0.11101 0.16322 0.66598 0.0
H860 H 0.08337 0.11085 0.63003 0.0
H861 H 0.08082 0.1734 0.54247 0.0
C862 C 0.14408 0.29144 0.62595 0.0
C863 C 0.1552 0.30163 0.66077 0.0
C864 C 0.15205 0.27585 0.68505 0.0
C865 C 0.13823 0.2407 0.6752 0.0
C866 C 0.12729 0.23148 0.64094 0.0
C867 C 0.12971 0.25593 0.61664 0.0
C868 C 0.11471 0.2385 0.58185 0.0
C869 C 0.08089 0.24983 0.57245 0.0
C870 C 0.14525 0.24588 0.55245 0.0
C871 C 0.10357 0.20052 0.59054 0.0
C872 C 0.11154 0.19737 0.62476 0.0
C873 C 0.10456 0.16533 0.63918 0.0
C874 C 0.08886 0.1356 0.61831 0.0
C875 C 0.07979 0.13769 0.5832 0.0
C876 C 0.08726 0.1708 0.56917 0.0
H877 H 0.58443 0.17846 0.52233 0.0
H878 H 0.70432 0.2137 0.52651 0.0
H879 H 0.70141 0.27416 0.53346 0.0
H880 H 0.5775 0.23833 0.46744 0.0
H881 H 0.5346 0.24472 0.48619 0.0
H882 H 0.54474 0.20431 0.49051 0.0
H883 H 0.53644 0.21069 0.55816 0.0
H884 H 0.52557 0.25096 0.55409 0.0
H885 H 0.56252 0.24948 0.58127 0.0
H886 H 0.68635 0.33073 0.52926 0.0
H887 H 0.6605 0.37809 0.51595 0.0
H888 H 0.55062 0.30566 0.51222 0.0
C889 C 0.61 0.19884 0.52579 0.0
C890 C 0.64459 0.19131 0.52403 0.0
C891 C 0.67744 0.21871 0.52845 0.0
C892 C 0.67605 0.2532 0.53219 0.0
C893 C 0.6416 0.25979 0.53172 0.0
C894 C 0.6091 0.23328 0.52906 0.0
C895 C 0.57619 0.24702 0.52474 0.0
C896 C 0.55717 0.23275 0.49017 0.0
C897 C 0.54855 0.23907 0.55646 0.0
C898 C 0.59542 0.28532 0.52377 0.0
C899 C 0.63302 0.2923 0.52852 0.0
C900 C 0.65683 0.32562 0.52625 0.0
C901 C 0.64187 0.35238 0.51869 0.0
C902 C 0.6035 0.34562 0.51307 0.0
C903 C 0.58007 0.31166 0.51622 0.0
loop_
_geom_bond_atom_site_label_1
_geom_bond_atom_site_label_2
_geom_bond_distance
_geom_bond_site_symmetry_2
_ccdc_geom_bond_type
H0 C5 0.930 . S
H1 C8 0.930 . S
H2 C10 0.930 . S
H3 C4 1.016 . S
C4 H3 1.016 . S
C4 N11 1.286 . S
C5 H0 0.930 . S
C5 C6 1.397 . S
C5 C7 1.361 . S
C6 C5 1.397 . S
C6 C10 1.390 . S
C7 C5 1.361 . S
C7 C8 1.393 . S
C7 N11 1.413 . S
C8 H1 0.930 . S
C8 C7 1.393 . S
C8 C9 1.399 . S
C9 C8 1.399 . S
C9 C10 1.381 . S
C10 H2 0.930 . S
C10 C6 1.390 . S
C10 C9 1.381 . S
N11 C4 1.286 . S
N11 C7 1.413 . S
H12 C17 0.930 . S
H13 C20 0.930 . S
H14 C22 0.930 . S
H15 C16 1.016 . S
C16 H15 1.016 . S
C16 N23 1.286 . S
C17 H12 0.930 . S
C17 C18 1.397 . S
C17 C19 1.361 . S
C18 C17 1.397 . S
C18 C22 1.390 . S
C19 C17 1.361 . S
C19 C20 1.393 . S
C19 N23 1.413 . S
C20 H13 0.930 . S
C20 C19 1.393 . S
C20 C21 1.399 . S
C21 C20 1.399 . S
C21 C22 1.381 . S
C22 H14 0.930 . S
C22 C18 1.390 . S
C22 C21 1.381 . S
N23 C16 1.286 . S
N23 C19 1.413 . S
H24 C29 0.930 . S
H25 C32 0.930 . S
H26 C34 0.930 . S
H27 C28 1.016 . S
C28 H27 1.016 . S
C28 N35 1.286 . S
C29 H24 0.930 . S
C29 C30 1.397 . S
C29 C31 1.361 . S
C30 C29 1.397 . S
C30 C34 1.390 . S
C31 C29 1.361 . S
C31 C32 1.393 . S
C31 N35 1.413 . S
C32 H25 0.930 . S
C32 C31 1.393 . S
C32 C33 1.399 . S
C33 C32 1.399 . S
C33 C34 1.381 . S
C34 H26 0.930 . S
C34 C30 1.390 . S
C34 C33 1.381 . S
N35 C28 1.286 . S
N35 C31 1.413 . S
H36 C41 0.930 . S
H37 C44 0.930 . S
H38 C46 0.930 . S
H39 C40 1.016 . S
C40 H39 1.016 . S
C40 N47 1.286 . S
C41 H36 0.930 . S
C41 C42 1.397 . S
C41 C43 1.361 . S
C42 C41 1.397 . S
C42 C46 1.390 . S
C43 C41 1.361 . S
C43 C44 1.393 . S
C43 N47 1.413 . S
C44 H37 0.930 . S
C44 C43 1.393 . S
C44 C45 1.399 . S
C45 C44 1.399 . S
C45 C46 1.381 . S
C46 H38 0.930 . S
C46 C42 1.390 . S
C46 C45 1.381 . S
N47 C40 1.286 . S
N47 C43 1.413 . S
H48 C53 0.930 . S
H49 C56 0.930 . S
H50 C58 0.930 . S
H51 C52 1.016 . S
C52 H51 1.016 . S
C52 N59 1.286 . S
C53 H48 0.930 . S
C53 C54 1.397 . S
C53 C55 1.361 . S
C54 C53 1.397 . S
C54 C58 1.390 . S
C55 C53 1.361 . S
C55 C56 1.393 . S
C55 N59 1.413 . S
C56 H49 0.930 . S
C56 C55 1.393 . S
C56 C57 1.399 . S
C57 C56 1.399 . S
C57 C58 1.381 . S
C58 H50 0.930 . S
C58 C54 1.390 . S
C58 C57 1.381 . S
N59 C52 1.286 . S
N59 C55 1.413 . S
H60 C65 0.930 . S
H61 C68 0.930 . S
H62 C70 0.930 . S
H63 C64 1.016 . S
C64 H63 1.016 . S
C64 N71 1.286 . S
C65 H60 0.930 . S
C65 C66 1.397 . S
C65 C67 1.361 . S
C66 C65 1.397 . S
C66 C70 1.390 . S
C67 C65 1.361 . S
C67 C68 1.393 . S
C67 N71 1.413 . S
C68 H61 0.930 . S
C68 C67 1.393 . S
C68 C69 1.399 . S
C69 C68 1.399 . S
C69 C70 1.381 . S
C70 H62 0.930 . S
C70 C66 1.390 . S
C70 C69 1.381 . S
N71 C64 1.286 . S
N71 C67 1.413 . S
H72 C77 0.930 . S
H73 C80 0.930 . S
H74 C82 0.930 . S
H75 C76 1.016 . S
C76 H75 1.016 . S
C76 N83 1.286 . S
C77 H72 0.930 . S
C77 C78 1.397 . S
C77 C79 1.361 . S
C78 C77 1.397 . S
C78 C82 1.390 . S
C79 C77 1.361 . S
C79 C80 1.393 . S
C79 N83 1.413 . S
C80 H73 0.930 . S
C80 C79 1.393 . S
C80 C81 1.399 . S
C81 C80 1.399 . S
C81 C82 1.381 . S
C82 H74 0.930 . S
C82 C78 1.390 . S
C82 C81 1.381 . S
N83 C76 1.286 . S
N83 C79 1.413 . S
H84 C89 0.930 . S
H85 C92 0.930 . S
H86 C94 0.930 . S
H87 C88 1.016 . S
C88 H87 1.016 . S
C88 N95 1.286 . S
C89 H84 0.930 . S
C89 C90 1.397 . S
C89 C91 1.361 . S
C90 C89 1.397 . S
C90 C94 1.390 . S
C91 C89 1.361 . S
C91 C92 1.393 . S
C91 N95 1.413 . S
C92 H85 0.930 . S
C92 C91 1.393 . S
C92 C93 1.399 . S
C93 C92 1.399 . S
C93 C94 1.381 . S
C94 H86 0.930 . S
C94 C90 1.390 . S
C94 C93 1.381 . S
N95 C88 1.286 . S
N95 C91 1.413 . S
Sm96 C98 2.846 . S
Sm96 O116 2.543 . S
Sm96 O117 2.450 . S
Sm96 O118 2.681 1_545 S
Sm96 O119 2.464 1_545 S
Sm96 O120 2.396 . S
Sm96 O124 2.386 1_455 S
Sm96 O127 2.408 1_445 S
Sm97 C107 2.844 . S
Sm97 O118 2.385 1_655 S
Sm97 O121 2.410 1_665 S
Sm97 O122 2.540 . S
Sm97 O123 2.449 . S
Sm97 O124 2.682 1_565 S
Sm97 O125 2.465 1_565 S
Sm97 O126 2.394 . S
C98 Sm96 2.846 . S
C98 C99 1.506 . S
C98 O116 1.261 . S
C98 O117 1.242 . S
C99 C98 1.506 . S
C99 C100 1.358 . S
C99 C104 1.382 . S
C100 C99 1.358 . S
C100 C101 1.385 . S
C100 H128 0.930 . S
C101 C100 1.385 . S
C101 C102 1.395 . S
C101 H129 0.929 . S
C102 C101 1.395 . S
C102 C103 1.335 . S
C103 C102 1.335 . S
C103 C104 1.398 . S
C103 H130 0.930 . S
C104 C99 1.382 . S
C104 C103 1.398 . S
C104 H131 0.929 . S
C105 O118 1.271 . S
C105 O119 1.251 . S
C106 O120 1.252 . S
C106 O121 1.272 . S
C107 Sm97 2.844 . S
C107 C108 1.506 . S
C107 O122 1.261 . S
C107 O123 1.242 . S
C108 C107 1.506 . S
C108 C109 1.358 . S
C108 C113 1.382 . S
C109 C108 1.358 . S
C109 C110 1.385 . S
C109 H132 0.930 . S
C110 C109 1.385 . S
C110 C111 1.395 . S
C110 H133 0.929 . S
C111 C110 1.395 . S
C111 C112 1.335 . S
C112 C111 1.335 . S
C112 C113 1.398 . S
C112 H134 0.930 . S
C113 C108 1.382 . S
C113 C112 1.398 . S
C113 H135 0.929 . S
C114 O124 1.271 . S
C114 O125 1.251 . S
C115 O126 1.252 . S
C115 O127 1.272 . S
O116 Sm96 2.543 . S
O116 C98 1.261 . S
O117 Sm96 2.450 . S
O117 C98 1.242 . S
O118 Sm96 2.681 1_565 S
O118 Sm97 2.385 1_455 S
O118 C105 1.271 . S
O119 Sm96 2.464 1_565 S
O119 C105 1.251 . S
O120 Sm96 2.396 . S
O120 C106 1.252 . S
O121 Sm97 2.410 1_445 S
O121 C106 1.272 . S
O122 Sm97 2.540 . S
O122 C107 1.261 . S
O123 Sm97 2.449 . S
O123 C107 1.242 . S
O124 Sm96 2.386 1_655 S
O124 Sm97 2.682 1_545 S
O124 C114 1.271 . S
O125 Sm97 2.465 1_545 S
O125 C114 1.251 . S
O126 Sm97 2.394 . S
O126 C115 1.252 . S
O127 Sm96 2.408 1_665 S
O127 C115 1.272 . S
H128 C100 0.930 . S
H129 C101 0.929 . S
H130 C103 0.930 . S
H131 C104 0.929 . S
H132 C109 0.930 . S
H133 C110 0.929 . S
H134 C112 0.930 . S
H135 C113 0.929 . S
Sm136 C138 2.846 . S
Sm136 O156 2.543 . S
Sm136 O157 2.450 . S
Sm136 O158 2.681 1_545 S
Sm136 O159 2.464 1_545 S
Sm136 O160 2.396 . S
Sm136 O164 2.386 . S
Sm136 O167 2.408 1_544 S
Sm137 C147 2.846 1_545 S
Sm137 O158 2.386 1_546 S
Sm137 O161 2.408 1_556 S
Sm137 O162 2.543 1_545 S
Sm137 O163 2.449 1_545 S
Sm137 O164 2.681 1_556 S
Sm137 O165 2.464 . S
Sm137 O166 2.396 1_545 S
C138 Sm136 2.846 . S
C138 C139 1.506 . S
C138 O156 1.261 . S
C138 O157 1.242 . S
C139 C138 1.506 . S
C139 C140 1.358 . S
C139 C144 1.382 . S
C140 C139 1.358 . S
C140 C141 1.385 . S
C140 H168 0.930 . S
C141 C140 1.385 . S
C141 C142 1.395 . S
C141 H169 0.929 . S
C142 C141 1.395 . S
C142 C143 1.335 . S
C143 C142 1.335 . S
C143 C144 1.398 . S
C143 H170 0.930 . S
C144 C139 1.382 . S
C144 C143 1.398 . S
C144 H171 0.929 . S
C145 O158 1.271 . S
C145 O159 1.251 . S
C146 O160 1.252 . S
C146 O161 1.272 . S
C147 Sm137 2.846 1_565 S
C147 C148 1.506 . S
C147 O162 1.261 . S
C147 O163 1.273 . S
C148 C147 1.506 . S
C148 C149 1.358 . S
C148 C153 1.382 . S
C149 C148 1.358 . S
C149 C150 1.385 . S
C149 H172 0.930 . S
C150 C149 1.385 . S
C150 C151 1.395 . S
C150 H173 0.929 . S
C151 C150 1.395 . S
C151 C152 1.335 . S
C152 C151 1.335 . S
C152 C153 1.398 . S
C152 H174 0.930 . S
C153 C148 1.382 . S
C153 C152 1.398 . S
C153 H175 0.929 . S
C154 O164 1.271 1_556 S
C154 O165 1.251 . S
C155 O166 1.252 . S
C155 O167 1.272 . S
O156 Sm136 2.543 . S
O156 C138 1.261 . S
O157 Sm136 2.450 . S
O157 C138 1.242 . S
O158 Sm136 2.681 1_565 S
O158 Sm137 2.386 1_564 S
O158 C145 1.271 . S
O159 Sm136 2.464 1_565 S
O159 C145 1.251 . S
O160 Sm136 2.396 . S
O160 C146 1.252 . S
O161 Sm137 2.408 1_554 S
O161 C146 1.272 . S
O162 Sm137 2.543 1_565 S
O162 C147 1.261 . S
O163 Sm137 2.449 1_565 S
O163 C147 1.273 . S
O164 Sm136 2.386 . S
O164 Sm137 2.681 1_554 S
O164 C154 1.271 1_554 S
O165 Sm137 2.464 . S
O165 C154 1.251 . S
O166 Sm137 2.396 1_565 S
O166 C155 1.252 . S
O167 Sm136 2.408 1_566 S
O167 C155 1.272 . S
H168 C140 0.930 . S
H169 C141 0.929 . S
H170 C143 0.930 . S
H171 C144 0.929 . S
H172 C149 0.930 . S
H173 C150 0.929 . S
H174 C152 0.930 . S
H175 C153 0.929 . S
Sm176 C178 2.846 . S
Sm176 O196 2.543 . S
Sm176 O197 2.450 . S
Sm176 O198 2.681 . S
Sm176 O199 2.464 . S
Sm176 O200 2.396 . S
Sm176 O204 2.386 . S
Sm176 O207 2.408 . S
Sm177 C187 2.846 . S
Sm177 O198 2.386 . S
Sm177 O201 2.408 . S
Sm177 O202 2.543 . S
Sm177 O203 2.450 . S
Sm177 O204 2.681 . S
Sm177 O205 2.464 . S
Sm177 O206 2.396 . S
C178 Sm176 2.846 . S
C178 C179 1.506 . S
C178 O196 1.261 . S
C178 O197 1.242 . S
C179 C178 1.506 . S
C179 C180 1.358 . S
C179 C184 1.382 . S
C180 C179 1.358 . S
C180 C181 1.385 . S
C180 H208 0.930 . S
C181 C180 1.385 . S
C181 C182 1.395 . S
C181 H209 0.929 . S
C182 C181 1.395 . S
C182 C183 1.335 . S
C183 C182 1.335 . S
C183 C184 1.398 . S
C183 H210 0.930 . S
C184 C179 1.382 . S
C184 C183 1.398 . S
C184 H211 0.929 . S
C185 O198 1.271 . S
C185 O199 1.251 . S
C186 O200 1.252 . S
C186 O201 1.272 . S
C187 Sm177 2.846 . S
C187 C188 1.506 . S
C187 O202 1.261 . S
C187 O203 1.242 . S
C188 C187 1.506 . S
C188 C189 1.358 . S
C188 C193 1.382 . S
C189 C188 1.358 . S
C189 C190 1.385 . S
C189 H212 0.930 . S
C190 C189 1.385 . S
C190 C191 1.395 . S
C190 H213 0.929 . S
C191 C190 1.395 . S
C191 C192 1.335 . S
C192 C191 1.335 . S
C192 C193 1.398 . S
C192 H214 0.930 . S
C193 C188 1.382 . S
C193 C192 1.398 . S
C193 H215 0.929 . S
C194 O204 1.271 . S
C194 O205 1.251 . S
C195 O206 1.252 . S
C195 O207 1.272 . S
O196 Sm176 2.543 . S
O196 C178 1.261 . S
O197 Sm176 2.450 . S
O197 C178 1.242 . S
O198 Sm176 2.681 . S
O198 Sm177 2.386 . S
O198 C185 1.271 . S
O199 Sm176 2.464 . S
O199 C185 1.251 . S
O200 Sm176 2.396 . S
O200 C186 1.252 . S
O201 Sm177 2.408 . S
O201 C186 1.272 . S
O202 Sm177 2.543 . S
O202 C187 1.261 . S
O203 Sm177 2.450 . S
O203 C187 1.242 . S
O204 Sm176 2.386 . S
O204 Sm177 2.681 . S
O204 C194 1.271 . S
O205 Sm177 2.464 . S
O205 C194 1.251 . S
O206 Sm177 2.396 . S
O206 C195 1.252 . S
O207 Sm176 2.408 . S
O207 C195 1.272 . S
H208 C180 0.930 . S
H209 C181 0.929 . S
H210 C183 0.930 . S
H211 C184 0.929 . S
H212 C189 0.930 . S
H213 C190 0.929 . S
H214 C192 0.930 . S
H215 C193 0.929 . S
Sm216 C218 2.846 . S
Sm216 O236 2.543 . S
Sm216 O237 2.450 . S
Sm216 O238 2.681 1_455 S
Sm216 O239 2.464 1_455 S
Sm216 O240 2.396 . S
Sm216 O244 2.386 1_554 S
Sm216 O247 2.408 1_454 S
Sm217 C227 2.846 1_455 S
Sm217 O238 2.386 1_456 S
Sm217 O241 2.408 1_556 S
Sm217 O242 2.543 1_455 S
Sm217 O243 2.450 1_455 S
Sm217 O244 2.681 . S
Sm217 O245 2.464 . S
Sm217 O246 2.396 1_455 S
C218 Sm216 2.846 . S
C218 C219 1.506 . S
C218 O236 1.261 . S
C218 O237 1.242 . S
C219 C218 1.506 . S
C219 C220 1.358 . S
C219 C224 1.382 . S
C220 C219 1.358 . S
C220 C221 1.385 . S
C220 H248 0.930 . S
C221 C220 1.385 . S
C221 C222 1.395 . S
C221 H249 0.929 . S
C222 C221 1.395 . S
C222 C223 1.335 . S
C223 C222 1.335 . S
C223 C224 1.398 . S
C223 H250 0.930 . S
C224 C219 1.382 . S
C224 C223 1.398 . S
C224 H251 0.929 . S
C225 O238 1.271 . S
C225 O239 1.251 . S
C226 O240 1.252 . S
C226 O241 1.272 . S
C227 Sm217 2.846 1_655 S
C227 C228 1.506 . S
C227 O242 1.261 . S
C227 O243 1.242 . S
C228 C227 1.506 . S
C228 C229 1.358 . S
C228 C233 1.382 . S
C229 C228 1.358 . S
C229 C230 1.385 . S
C229 H252 0.930 . S
C230 C229 1.385 . S
C230 C231 1.395 . S
C230 H253 0.929 . S
C231 C230 1.395 . S
C231 C232 1.335 . S
C232 C231 1.335 . S
C232 C233 1.398 . S
C232 H254 0.930 . S
C233 C228 1.382 . S
C233 C232 1.398 . S
C233 H255 0.929 . S
C234 O244 1.271 . S
C234 O245 1.251 . S
C235 O246 1.252 . S
C235 O247 1.272 . S
O236 Sm216 2.543 . S
O236 C218 1.261 . S
O237 Sm216 2.450 . S
O237 C218 1.242 . S
O238 Sm216 2.681 1_655 S
O238 Sm217 2.386 1_654 S
O238 C225 1.271 . S
O239 Sm216 2.464 1_655 S
O239 C225 1.251 . S
O240 Sm216 2.396 . S
O240 C226 1.252 . S
O241 Sm217 2.408 1_554 S
O241 C226 1.272 . S
O242 Sm217 2.543 1_655 S
O242 C227 1.261 . S
O243 Sm217 2.450 1_655 S
O243 C227 1.242 . S
O244 Sm216 2.386 1_556 S
O244 Sm217 2.681 . S
O244 C234 1.271 . S
O245 Sm217 2.464 . S
O245 C234 1.251 . S
O246 Sm217 2.396 1_655 S
O246 C235 1.252 . S
O247 Sm216 2.408 1_656 S
O247 C235 1.272 . S
H248 C220 0.930 . S
H249 C221 0.929 . S
H250 C223 0.930 . S
H251 C224 0.929 . S
H252 C229 0.930 . S
H253 C230 0.929 . S
H254 C232 0.930 . S
H255 C233 0.929 . S
H256 C268 0.930 . S
H257 C270 0.930 . S
H258 C271 0.930 . S
H259 C275 0.959 . S
H260 C275 0.959 . S
H261 C275 0.961 . S
H262 C276 0.960 . S
H263 C276 0.961 . S
H264 C276 0.959 . S
H265 C279 0.929 . S
H266 C280 0.931 . S
H267 C282 0.930 . S
C268 H256 0.930 . S
C268 C269 1.399 . S
C268 C273 1.399 . S
C269 C268 1.399 . S
C269 C270 1.376 . S
C270 H257 0.930 . S
C270 C269 1.376 . S
C270 C271 1.388 . S
C271 H258 0.930 . S
C271 C270 1.388 . S
C271 C272 1.390 . S
C272 C271 1.390 . S
C272 C273 1.394 . S
C272 C278 1.465 . S
C273 C268 1.399 . S
C273 C272 1.394 . S
C273 C274 1.516 . S
C274 C273 1.516 . S
C274 C275 1.502 . S
C274 C276 1.561 . S
C274 C277 1.526 . S
C275 H259 0.959 . S
C275 H260 0.959 . S
C275 H261 0.961 . S
C275 C274 1.502 . S
C276 H262 0.960 . S
C276 H263 0.961 . S
C276 H264 0.959 . S
C276 C274 1.561 . S
C277 C274 1.526 . S
C277 C278 1.396 . S
C277 C282 1.390 . S
C278 C272 1.465 . S
C278 C277 1.396 . S
C278 C279 1.399 . S
C279 H265 0.929 . S
C279 C278 1.399 . S
C279 C280 1.385 . S
C280 H266 0.931 . S
C280 C279 1.385 . S
C280 C281 1.389 . S
C281 C280 1.389 . S
C281 C282 1.387 . S
C282 H267 0.930 . S
C282 C277 1.390 . S
C282 C281 1.387 . S
H283 C295 0.930 . S
H284 C297 0.930 . S
H285 C298 0.930 . S
H286 C302 0.959 . S
H287 C302 0.959 . S
H288 C302 0.961 . S
H289 C303 0.960 . S
H290 C303 0.961 . S
H291 C303 0.959 . S
H292 C306 0.929 . S
H293 C307 0.931 . S
H294 C309 0.930 . S
C295 H283 0.930 . S
C295 C296 1.399 . S
C295 C300 1.399 . S
C296 C295 1.399 . S
C296 C297 1.376 . S
C297 H284 0.930 . S
C297 C296 1.376 . S
C297 C298 1.388 . S
C298 H285 0.930 . S
C298 C297 1.388 . S
C298 C299 1.390 . S
C299 C298 1.390 . S
C299 C300 1.394 . S
C299 C305 1.465 . S
C300 C295 1.399 . S
C300 C299 1.394 . S
C300 C301 1.516 . S
C301 C300 1.516 . S
C301 C302 1.502 . S
C301 C303 1.561 . S
C301 C304 1.526 . S
C302 H286 0.959 . S
C302 H287 0.959 . S
C302 H288 0.961 . S
C302 C301 1.502 . S
C303 H289 0.960 . S
C303 H290 0.961 . S
C303 H291 0.959 . S
C303 C301 1.561 . S
C304 C301 1.526 . S
C304 C305 1.396 . S
C304 C309 1.390 . S
C305 C299 1.465 . S
C305 C304 1.396 . S
C305 C306 1.399 . S
C306 H292 0.929 . S
C306 C305 1.399 . S
C306 C307 1.385 . S
C307 H293 0.931 . S
C307 C306 1.385 . S
C307 C308 1.389 . S
C308 C307 1.389 . S
C308 C309 1.387 . S
C309 H294 0.930 . S
C309 C304 1.390 . S
C309 C308 1.387 . S
H310 C322 0.930 . S
H311 C324 0.930 . S
H312 C325 0.930 . S
H313 C329 0.959 . S
H314 C329 0.959 . S
H315 C329 0.961 . S
H316 C330 0.960 . S
H317 C330 0.961 . S
H318 C330 0.959 . S
H319 C333 0.929 . S
H320 C334 0.931 . S
H321 C336 0.930 . S
C322 H310 0.930 . S
C322 C323 1.399 . S
C322 C327 1.399 . S
C323 C322 1.399 . S
C323 C324 1.376 . S
C324 H311 0.930 . S
C324 C323 1.376 . S
C324 C325 1.388 . S
C325 H312 0.930 . S
C325 C324 1.388 . S
C325 C326 1.390 . S
C326 C325 1.390 . S
C326 C327 1.394 . S
C326 C332 1.465 . S
C327 C322 1.399 . S
C327 C326 1.394 . S
C327 C328 1.516 . S
C328 C327 1.516 . S
C328 C329 1.502 . S
C328 C330 1.561 . S
C328 C331 1.526 . S
C329 H313 0.959 . S
C329 H314 0.959 . S
C329 H315 0.961 . S
C329 C328 1.502 . S
C330 H316 0.960 . S
C330 H317 0.961 . S
C330 H318 0.959 . S
C330 C328 1.561 . S
C331 C328 1.526 . S
C331 C332 1.396 . S
C331 C336 1.390 . S
C332 C326 1.465 . S
C332 C331 1.396 . S
C332 C333 1.399 . S
C333 H319 0.929 . S
C333 C332 1.399 . S
C333 C334 1.385 . S
C334 H320 0.931 . S
C334 C333 1.385 . S
C334 C335 1.389 . S
C335 C334 1.389 . S
C335 C336 1.387 . S
C336 H321 0.930 . S
C336 C331 1.390 . S
C336 C335 1.387 . S
H337 C349 0.930 . S
H338 C351 0.930 . S
H339 C352 0.930 . S
H340 C356 0.959 . S
H341 C356 0.959 . S
H342 C356 0.961 . S
H343 C357 0.960 . S
H344 C357 0.961 . S
H345 C357 0.959 . S
H346 C360 0.929 . S
H347 C361 0.931 . S
H348 C363 0.930 . S
C349 H337 0.930 . S
C349 C350 1.399 . S
C349 C354 1.399 . S
C350 C349 1.399 . S
C350 C351 1.376 . S
C351 H338 0.930 . S
C351 C350 1.376 . S
C351 C352 1.388 . S
C352 H339 0.930 . S
C352 C351 1.388 . S
C352 C353 1.390 . S
C353 C352 1.390 . S
C353 C354 1.394 . S
C353 C359 1.465 . S
C354 C349 1.399 . S
C354 C353 1.394 . S
C354 C355 1.516 . S
C355 C354 1.516 . S
C355 C356 1.502 . S
C355 C357 1.561 . S
C355 C358 1.526 . S
C356 H340 0.959 . S
C356 H341 0.959 . S
C356 H342 0.961 . S
C356 C355 1.502 . S
C357 H343 0.960 . S
C357 H344 0.961 . S
C357 H345 0.959 . S
C357 C355 1.561 . S
C358 C355 1.526 . S
C358 C359 1.396 . S
C358 C363 1.390 . S
C359 C353 1.465 . S
C359 C358 1.396 . S
C359 C360 1.399 . S
C360 H346 0.929 . S
C360 C359 1.399 . S
C360 C361 1.385 . S
C361 H347 0.931 . S
C361 C360 1.385 . S
C361 C362 1.389 . S
C362 C361 1.389 . S
C362 C363 1.387 . S
C363 H348 0.930 . S
C363 C358 1.390 . S
C363 C362 1.387 . S
H364 C376 0.930 . S
H365 C378 0.930 . S
H366 C379 0.930 . S
H367 C383 0.959 . S
H368 C383 0.959 . S
H369 C383 0.961 . S
H370 C384 0.960 . S
H371 C384 0.961 . S
H372 C384 0.959 . S
H373 C387 0.929 . S
H374 C388 0.931 . S
H375 C390 0.930 . S
C376 H364 0.930 . S
C376 C377 1.399 . S
C376 C381 1.399 . S
C377 C376 1.399 . S
C377 C378 1.376 . S
C378 H365 0.930 . S
C378 C377 1.376 . S
C378 C379 1.388 . S
C379 H366 0.930 . S
C379 C378 1.388 . S
C379 C380 1.390 . S
C380 C379 1.390 . S
C380 C381 1.394 . S
C380 C386 1.465 . S
C381 C376 1.399 . S
C381 C380 1.394 . S
C381 C382 1.516 . S
C382 C381 1.516 . S
C382 C383 1.502 . S
C382 C384 1.561 . S
C382 C385 1.526 . S
C383 H367 0.959 . S
C383 H368 0.959 . S
C383 H369 0.961 . S
C383 C382 1.502 . S
C384 H370 0.960 . S
C384 H371 0.961 . S
C384 H372 0.959 . S
C384 C382 1.561 . S
C385 C382 1.526 . S
C385 C386 1.396 . S
C385 C390 1.390 . S
C386 C380 1.465 . S
C386 C385 1.396 . S
C386 C387 1.399 . S
C387 H373 0.929 . S
C387 C386 1.399 . S
C387 C388 1.385 . S
C388 H374 0.931 . S
C388 C387 1.385 . S
C388 C389 1.389 . S
C389 C388 1.389 . S
C389 C390 1.387 . S
C390 H375 0.930 . S
C390 C385 1.390 . S
C390 C389 1.387 . S
H391 C403 0.930 . S
H392 C405 0.930 . S
H393 C406 0.930 . S
H394 C410 0.959 . S
H395 C410 0.959 . S
H396 C410 0.961 . S
H397 C411 0.960 . S
H398 C411 0.961 . S
H399 C411 0.959 . S
H400 C414 0.929 . S
H401 C415 0.931 . S
H402 C417 0.930 . S
C403 H391 0.930 . S
C403 C404 1.399 . S
C403 C408 1.399 . S
C404 C403 1.399 . S
C404 C405 1.376 . S
C405 H392 0.930 . S
C405 C404 1.376 . S
C405 C406 1.388 . S
C406 H393 0.930 . S
C406 C405 1.388 . S
C406 C407 1.390 . S
C407 C406 1.390 . S
C407 C408 1.394 . S
C407 C413 1.465 . S
C408 C403 1.399 . S
C408 C407 1.394 . S
C408 C409 1.516 . S
C409 C408 1.516 . S
C409 C410 1.502 . S
C409 C411 1.561 . S
C409 C412 1.526 . S
C410 H394 0.959 . S
C410 H395 0.959 . S
C410 H396 0.961 . S
C410 C409 1.502 . S
C411 H397 0.960 . S
C411 H398 0.961 . S
C411 H399 0.959 . S
C411 C409 1.561 . S
C412 C409 1.526 . S
C412 C413 1.396 . S
C412 C417 1.390 . S
C413 C407 1.465 . S
C413 C412 1.396 . S
C413 C414 1.399 . S
C414 H400 0.929 . S
C414 C413 1.399 . S
C414 C415 1.385 . S
C415 H401 0.931 . S
C415 C414 1.385 . S
C415 C416 1.389 . S
C416 C415 1.389 . S
C416 C417 1.387 . S
C417 H402 0.930 . S
C417 C412 1.390 . S
C417 C416 1.387 . S
H418 C430 0.930 . S
H419 C432 0.930 . S
H420 C433 0.930 . S
H421 C437 0.959 . S
H422 C437 0.959 . S
H423 C437 0.961 . S
H424 C438 0.960 . S
H425 C438 0.961 . S
H426 C438 0.959 . S
H427 C441 0.929 . S
H428 C442 0.931 . S
H429 C444 0.930 . S
C430 H418 0.930 . S
C430 C431 1.399 . S
C430 C435 1.399 . S
C431 C430 1.399 . S
C431 C432 1.376 . S
C432 H419 0.930 . S
C432 C431 1.376 . S
C432 C433 1.388 . S
C433 H420 0.930 . S
C433 C432 1.388 . S
C433 C434 1.390 . S
C434 C433 1.390 . S
C434 C435 1.394 . S
C434 C440 1.465 . S
C435 C430 1.399 . S
C435 C434 1.394 . S
C435 C436 1.516 . S
C436 C435 1.516 . S
C436 C437 1.502 . S
C436 C438 1.561 . S
C436 C439 1.526 . S
C437 H421 0.959 . S
C437 H422 0.959 . S
C437 H423 0.961 . S
C437 C436 1.502 . S
C438 H424 0.960 . S
C438 H425 0.961 . S
C438 H426 0.959 . S
C438 C436 1.561 . S
C439 C436 1.526 . S
C439 C440 1.396 . S
C439 C444 1.390 . S
C440 C434 1.465 . S
C440 C439 1.396 . S
C440 C441 1.399 . S
C441 H427 0.929 . S
C441 C440 1.399 . S
C441 C442 1.385 . S
C442 H428 0.931 . S
C442 C441 1.385 . S
C442 C443 1.389 . S
C443 C442 1.389 . S
C443 C444 1.387 . S
C444 H429 0.930 . S
C444 C439 1.390 . S
C444 C443 1.387 . S
H445 C457 0.930 . S
H446 C459 0.930 . S
H447 C460 0.930 . S
H448 C464 0.959 . S
H449 C464 0.959 . S
H450 C464 0.961 . S
H451 C465 0.960 . S
H452 C465 0.961 . S
H453 C465 0.959 . S
H454 C468 0.929 . S
H455 C469 0.931 . S
H456 C471 0.930 . S
C457 H445 0.930 . S
C457 C458 1.399 . S
C457 C462 1.399 . S
C458 C457 1.399 . S
C458 C459 1.376 . S
C459 H446 0.930 . S
C459 C458 1.376 . S
C459 C460 1.388 . S
C460 H447 0.930 . S
C460 C459 1.388 . S
C460 C461 1.390 . S
C461 C460 1.390 . S
C461 C462 1.394 . S
C461 C467 1.465 . S
C462 C457 1.399 . S
C462 C461 1.394 . S
C462 C463 1.516 . S
C463 C462 1.516 . S
C463 C464 1.502 . S
C463 C465 1.561 . S
C463 C466 1.526 . S
C464 H448 0.959 . S
C464 H449 0.959 . S
C464 H450 0.961 . S
C464 C463 1.502 . S
C465 H451 0.960 . S
C465 H452 0.961 . S
C465 H453 0.959 . S
C465 C463 1.561 . S
C466 C463 1.526 . S
C466 C467 1.396 . S
C466 C471 1.390 . S
C467 C461 1.465 . S
C467 C466 1.396 . S
C467 C468 1.399 . S
C468 H454 0.929 . S
C468 C467 1.399 . S
C468 C469 1.385 . S
C469 H455 0.931 . S
C469 C468 1.385 . S
C469 C470 1.389 . S
C470 C469 1.389 . S
C470 C471 1.387 . S
C471 H456 0.930 . S
C471 C466 1.390 . S
C471 C470 1.387 . S
H472 C484 0.930 . S
H473 C486 0.930 . S
H474 C487 0.930 . S
H475 C491 0.959 . S
H476 C491 0.959 . S
H477 C491 0.961 . S
H478 C492 0.960 . S
H479 C492 0.961 . S
H480 C492 0.959 . S
H481 C495 0.929 . S
H482 C496 0.931 . S
H483 C498 0.930 . S
C484 H472 0.930 . S
C484 C485 1.399 . S
C484 C489 1.399 . S
C485 C484 1.399 . S
C485 C486 1.376 . S
C486 H473 0.930 . S
C486 C485 1.376 . S
C486 C487 1.388 . S
C487 H474 0.930 . S
C487 C486 1.388 . S
C487 C488 1.390 . S
C488 C487 1.390 . S
C488 C489 1.394 . S
C488 C494 1.465 . S
C489 C484 1.399 . S
C489 C488 1.394 . S
C489 C490 1.516 . S
C490 C489 1.516 . S
C490 C491 1.502 . S
C490 C492 1.561 . S
C490 C493 1.526 . S
C491 H475 0.959 . S
C491 H476 0.959 . S
C491 H477 0.961 . S
C491 C490 1.502 . S
C492 H478 0.960 . S
C492 H479 0.961 . S
C492 H480 0.959 . S
C492 C490 1.561 . S
C493 C490 1.526 . S
C493 C494 1.396 . S
C493 C498 1.390 . S
C494 C488 1.465 . S
C494 C493 1.396 . S
C494 C495 1.399 . S
C495 H481 0.929 . S
C495 C494 1.399 . S
C495 C496 1.385 . S
C496 H482 0.931 . S
C496 C495 1.385 . S
C496 C497 1.389 . S
C497 C496 1.389 . S
C497 C498 1.387 . S
C498 H483 0.930 . S
C498 C493 1.390 . S
C498 C497 1.387 . S
H499 C511 0.930 . S
H500 C513 0.930 . S
H501 C514 0.930 . S
H502 C518 0.959 . S
H503 C518 0.959 . S
H504 C518 0.961 . S
H505 C519 0.960 . S
H506 C519 0.961 . S
H507 C519 0.959 . S
H508 C522 0.929 . S
H509 C523 0.931 . S
H510 C525 0.930 . S
C511 H499 0.930 . S
C511 C512 1.399 . S
C511 C516 1.399 . S
C512 C511 1.399 . S
C512 C513 1.376 . S
C513 H500 0.930 . S
C513 C512 1.376 . S
C513 C514 1.388 . S
C514 H501 0.930 . S
C514 C513 1.388 . S
C514 C515 1.390 . S
C515 C514 1.390 . S
C515 C516 1.394 . S
C515 C521 1.465 . S
C516 C511 1.399 . S
C516 C515 1.394 . S
C516 C517 1.516 . S
C517 C516 1.516 . S
C517 C518 1.502 . S
C517 C519 1.561 . S
C517 C520 1.526 . S
C518 H502 0.959 . S
C518 H503 0.959 . S
C518 H504 0.961 . S
C518 C517 1.502 . S
C519 H505 0.960 . S
C519 H506 0.961 . S
C519 H507 0.959 . S
C519 C517 1.561 . S
C520 C517 1.526 . S
C520 C521 1.396 . S
C520 C525 1.390 . S
C521 C515 1.465 . S
C521 C520 1.396 . S
C521 C522 1.399 . S
C522 H508 0.929 . S
C522 C521 1.399 . S
C522 C523 1.385 . S
C523 H509 0.931 . S
C523 C522 1.385 . S
C523 C524 1.389 . S
C524 C523 1.389 . S
C524 C525 1.387 . S
C525 H510 0.930 . S
C525 C520 1.390 . S
C525 C524 1.387 . S
H526 C538 0.930 . S
H527 C540 0.930 . S
H528 C541 0.930 . S
H529 C545 0.959 . S
H530 C545 0.959 . S
H531 C545 0.961 . S
H532 C546 0.960 . S
H533 C546 0.961 . S
H534 C546 0.959 . S
H535 C549 0.929 . S
H536 C550 0.931 . S
H537 C552 0.930 . S
C538 H526 0.930 . S
C538 C539 1.399 . S
C538 C543 1.399 . S
C539 C538 1.399 . S
C539 C540 1.376 . S
C540 H527 0.930 . S
C540 C539 1.376 . S
C540 C541 1.388 . S
C541 H528 0.930 . S
C541 C540 1.388 . S
C541 C542 1.390 . S
C542 C541 1.390 . S
C542 C543 1.394 . S
C542 C548 1.465 . S
C543 C538 1.399 . S
C543 C542 1.394 . S
C543 C544 1.516 . S
C544 C543 1.516 . S
C544 C545 1.502 . S
C544 C546 1.561 . S
C544 C547 1.526 . S
C545 H529 0.959 . S
C545 H530 0.959 . S
C545 H531 0.961 . S
C545 C544 1.502 . S
C546 H532 0.960 . S
C546 H533 0.961 . S
C546 H534 0.959 . S
C546 C544 1.561 . S
C547 C544 1.526 . S
C547 C548 1.396 . S
C547 C552 1.390 . S
C548 C542 1.465 . S
C548 C547 1.396 . S
C548 C549 1.399 . S
C549 H535 0.929 . S
C549 C548 1.399 . S
C549 C550 1.385 . S
C550 H536 0.931 . S
C550 C549 1.385 . S
C550 C551 1.389 . S
C551 C550 1.389 . S
C551 C552 1.387 . S
C552 H537 0.930 . S
C552 C547 1.390 . S
C552 C551 1.387 . S
H553 C565 0.930 . S
H554 C567 0.930 . S
H555 C568 0.930 . S
H556 C572 0.959 . S
H557 C572 0.959 . S
H558 C572 0.961 . S
H559 C573 0.960 . S
H560 C573 0.961 . S
H561 C573 0.959 . S
H562 C576 0.929 . S
H563 C577 0.931 . S
H564 C579 0.930 . S
C565 H553 0.930 . S
C565 C566 1.399 . S
C565 C570 1.399 . S
C566 C565 1.399 . S
C566 C567 1.376 . S
C567 H554 0.930 . S
C567 C566 1.376 . S
C567 C568 1.388 . S
C568 H555 0.930 . S
C568 C567 1.388 . S
C568 C569 1.390 . S
C569 C568 1.390 . S
C569 C570 1.394 . S
C569 C575 1.465 . S
C570 C565 1.399 . S
C570 C569 1.394 . S
C570 C571 1.516 . S
C571 C570 1.516 . S
C571 C572 1.502 . S
C571 C573 1.561 . S
C571 C574 1.526 . S
C572 H556 0.959 . S
C572 H557 0.959 . S
C572 H558 0.961 . S
C572 C571 1.502 . S
C573 H559 0.960 . S
C573 H560 0.961 . S
C573 H561 0.959 . S
C573 C571 1.561 . S
C574 C571 1.526 . S
C574 C575 1.396 . S
C574 C579 1.390 . S
C575 C569 1.465 . S
C575 C574 1.396 . S
C575 C576 1.399 . S
C576 H562 0.929 . S
C576 C575 1.399 . S
C576 C577 1.385 . S
C577 H563 0.931 . S
C577 C576 1.385 . S
C577 C578 1.389 . S
C578 C577 1.389 . S
C578 C579 1.387 . S
C579 H564 0.930 . S
C579 C574 1.390 . S
C579 C578 1.387 . S
H580 C592 0.930 . S
H581 C594 0.930 . S
H582 C595 0.930 . S
H583 C599 0.959 . S
H584 C599 0.959 . S
H585 C599 0.961 . S
H586 C600 0.960 . S
H587 C600 0.961 . S
H588 C600 0.959 . S
H589 C603 0.929 . S
H590 C604 0.931 . S
H591 C606 0.930 . S
C592 H580 0.930 . S
C592 C593 1.399 . S
C592 C597 1.399 . S
C593 C592 1.399 . S
C593 C594 1.376 . S
C594 H581 0.930 . S
C594 C593 1.376 . S
C594 C595 1.388 . S
C595 H582 0.930 . S
C595 C594 1.388 . S
C595 C596 1.390 . S
C596 C595 1.390 . S
C596 C597 1.394 . S
C596 C602 1.465 . S
C597 C592 1.399 . S
C597 C596 1.394 . S
C597 C598 1.516 . S
C598 C597 1.516 . S
C598 C599 1.502 . S
C598 C600 1.561 . S
C598 C601 1.526 . S
C599 H583 0.959 . S
C599 H584 0.959 . S
C599 H585 0.961 . S
C599 C598 1.502 . S
C600 H586 0.960 . S
C600 H587 0.961 . S
C600 H588 0.959 . S
C600 C598 1.561 . S
C601 C598 1.526 . S
C601 C602 1.396 . S
C601 C606 1.390 . S
C602 C596 1.465 . S
C602 C601 1.396 . S
C602 C603 1.399 . S
C603 H589 0.929 . S
C603 C602 1.399 . S
C603 C604 1.385 . S
C604 H590 0.931 . S
C604 C603 1.385 . S
C604 C605 1.389 . S
C605 C604 1.389 . S
C605 C606 1.387 . S
C606 H591 0.930 . S
C606 C601 1.390 . S
C606 C605 1.387 . S
H607 C619 0.930 . S
H608 C621 0.930 . S
H609 C622 0.930 . S
H610 C626 0.959 . S
H611 C626 0.959 . S
H612 C626 0.961 . S
H613 C627 0.960 . S
H614 C627 0.961 . S
H615 C627 0.959 . S
H616 C630 0.929 . S
H617 C631 0.931 . S
H618 C633 0.930 . S
C619 H607 0.930 . S
C619 C620 1.399 . S
C619 C624 1.399 . S
C620 C619 1.399 . S
C620 C621 1.376 . S
C621 H608 0.930 . S
C621 C620 1.376 . S
C621 C622 1.388 . S
C622 H609 0.930 . S
C622 C621 1.388 . S
C622 C623 1.390 . S
C623 C622 1.390 . S
C623 C624 1.394 . S
C623 C629 1.465 . S
C624 C619 1.399 . S
C624 C623 1.394 . S
C624 C625 1.516 . S
C625 C624 1.516 . S
C625 C626 1.502 . S
C625 C627 1.561 . S
C625 C628 1.526 . S
C626 H610 0.959 . S
C626 H611 0.959 . S
C626 H612 0.961 . S
C626 C625 1.502 . S
C627 H613 0.960 . S
C627 H614 0.961 . S
C627 H615 0.959 . S
C627 C625 1.561 . S
C628 C625 1.526 . S
C628 C629 1.396 . S
C628 C633 1.390 . S
C629 C623 1.465 . S
C629 C628 1.396 . S
C629 C630 1.399 . S
C630 H616 0.929 . S
C630 C629 1.399 . S
C630 C631 1.385 . S
C631 H617 0.931 . S
C631 C630 1.385 . S
C631 C632 1.389 . S
C632 C631 1.389 . S
C632 C633 1.387 . S
C633 H618 0.930 . S
C633 C628 1.390 . S
C633 C632 1.387 . S
H634 C646 0.930 . S
H635 C648 0.930 . S
H636 C649 0.930 . S
H637 C653 0.959 . S
H638 C653 0.959 . S
H639 C653 0.961 . S
H640 C654 0.960 . S
H641 C654 0.961 . S
H642 C654 0.959 . S
H643 C657 0.929 . S
H644 C658 0.931 . S
H645 C660 0.930 . S
C646 H634 0.930 . S
C646 C647 1.399 . S
C646 C651 1.399 . S
C647 C646 1.399 . S
C647 C648 1.376 . S
C648 H635 0.930 . S
C648 C647 1.376 . S
C648 C649 1.388 . S
C649 H636 0.930 . S
C649 C648 1.388 . S
C649 C650 1.390 . S
C650 C649 1.390 . S
C650 C651 1.394 . S
C650 C656 1.465 . S
C651 C646 1.399 . S
C651 C650 1.394 . S
C651 C652 1.516 . S
C652 C651 1.516 . S
C652 C653 1.502 . S
C652 C654 1.561 . S
C652 C655 1.526 . S
C653 H637 0.959 . S
C653 H638 0.959 . S
C653 H639 0.961 . S
C653 C652 1.502 . S
C654 H640 0.960 . S
C654 H641 0.961 . S
C654 H642 0.959 . S
C654 C652 1.561 . S
C655 C652 1.526 . S
C655 C656 1.396 . S
C655 C660 1.390 . S
C656 C650 1.465 . S
C656 C655 1.396 . S
C656 C657 1.399 . S
C657 H643 0.929 . S
C657 C656 1.399 . S
C657 C658 1.385 . S
C658 H644 0.931 . S
C658 C657 1.385 . S
C658 C659 1.389 . S
C659 C658 1.389 . S
C659 C660 1.387 . S
C660 H645 0.930 . S
C660 C655 1.390 . S
C660 C659 1.387 . S
H661 C673 0.930 . S
H662 C675 0.930 . S
H663 C676 0.930 . S
H664 C680 0.959 . S
H665 C680 0.959 . S
H666 C680 0.961 . S
H667 C681 0.960 . S
H668 C681 0.961 . S
H669 C681 0.959 . S
H670 C684 0.929 . S
H671 C685 0.931 . S
H672 C687 0.930 . S
C673 H661 0.930 . S
C673 C674 1.399 . S
C673 C678 1.399 . S
C674 C673 1.399 . S
C674 C675 1.376 . S
C675 H662 0.930 . S
C675 C674 1.376 . S
C675 C676 1.388 . S
C676 H663 0.930 . S
C676 C675 1.388 . S
C676 C677 1.390 . S
C677 C676 1.390 . S
C677 C678 1.394 . S
C677 C683 1.465 . S
C678 C673 1.399 . S
C678 C677 1.394 . S
C678 C679 1.516 . S
C679 C678 1.516 . S
C679 C680 1.502 . S
C679 C681 1.561 . S
C679 C682 1.526 . S
C680 H664 0.959 . S
C680 H665 0.959 . S
C680 H666 0.961 . S
C680 C679 1.502 . S
C681 H667 0.960 . S
C681 H668 0.961 . S
C681 H669 0.959 . S
C681 C679 1.561 . S
C682 C679 1.526 . S
C682 C683 1.396 . S
C682 C687 1.390 . S
C683 C677 1.465 . S
C683 C682 1.396 . S
C683 C684 1.399 . S
C684 H670 0.929 . S
C684 C683 1.399 . S
C684 C685 1.385 . S
C685 H671 0.931 . S
C685 C684 1.385 . S
C685 C686 1.389 . S
C686 C685 1.389 . S
C686 C687 1.387 . S
C687 H672 0.930 . S
C687 C682 1.390 . S
C687 C686 1.387 . S
H688 C700 0.930 . S
H689 C702 0.930 . S
H690 C703 0.930 . S
H691 C707 0.959 . S
H692 C707 0.959 . S
H693 C707 0.961 . S
H694 C708 0.960 . S
H695 C708 0.961 . S
H696 C708 0.959 . S
H697 C711 0.929 . S
H698 C712 0.931 . S
H699 C714 0.930 . S
C700 H688 0.930 . S
C700 C701 1.399 . S
C700 C705 1.399 . S
C701 C700 1.399 . S
C701 C702 1.376 . S
C702 H689 0.930 . S
C702 C701 1.376 . S
C702 C703 1.388 . S
C703 H690 0.930 . S
C703 C702 1.388 . S
C703 C704 1.390 . S
C704 C703 1.390 . S
C704 C705 1.394 . S
C704 C710 1.465 . S
C705 C700 1.399 . S
C705 C704 1.394 . S
C705 C706 1.516 . S
C706 C705 1.516 . S
C706 C707 1.502 . S
C706 C708 1.561 . S
C706 C709 1.526 . S
C707 H691 0.959 . S
C707 H692 0.959 . S
C707 H693 0.961 . S
C707 C706 1.502 . S
C708 H694 0.960 . S
C708 H695 0.961 . S
C708 H696 0.959 . S
C708 C706 1.561 . S
C709 C706 1.526 . S
C709 C710 1.396 . S
C709 C714 1.390 . S
C710 C704 1.465 . S
C710 C709 1.396 . S
C710 C711 1.399 . S
C711 H697 0.929 . S
C711 C710 1.399 . S
C711 C712 1.385 . S
C712 H698 0.931 . S
C712 C711 1.385 . S
C712 C713 1.389 . S
C713 C712 1.389 . S
C713 C714 1.387 . S
C714 H699 0.930 . S
C714 C709 1.390 . S
C714 C713 1.387 . S
H715 C727 0.930 . S
H716 C729 0.930 . S
H717 C730 0.930 . S
H718 C734 0.959 . S
H719 C734 0.959 . S
H720 C734 0.961 . S
H721 C735 0.960 . S
H722 C735 0.961 . S
H723 C735 0.959 . S
H724 C738 0.929 . S
H725 C739 0.931 . S
H726 C741 0.930 . S
C727 H715 0.930 . S
C727 C728 1.399 . S
C727 C732 1.399 . S
C728 C727 1.399 . S
C728 C729 1.376 . S
C729 H716 0.930 . S
C729 C728 1.376 . S
C729 C730 1.388 . S
C730 H717 0.930 . S
C730 C729 1.388 . S
C730 C731 1.390 . S
C731 C730 1.390 . S
C731 C732 1.394 . S
C731 C737 1.465 . S
C732 C727 1.399 . S
C732 C731 1.394 . S
C732 C733 1.516 . S
C733 C732 1.516 . S
C733 C734 1.502 . S
C733 C735 1.561 . S
C733 C736 1.526 . S
C734 H718 0.959 . S
C734 H719 0.959 . S
C734 H720 0.961 . S
C734 C733 1.502 . S
C735 H721 0.960 . S
C735 H722 0.961 . S
C735 H723 0.959 . S
C735 C733 1.561 . S
C736 C733 1.526 . S
C736 C737 1.396 . S
C736 C741 1.390 . S
C737 C731 1.465 . S
C737 C736 1.396 . S
C737 C738 1.399 . S
C738 H724 0.929 . S
C738 C737 1.399 . S
C738 C739 1.385 . S
C739 H725 0.931 . S
C739 C738 1.385 . S
C739 C740 1.389 . S
C740 C739 1.389 . S
C740 C741 1.387 . S
C741 H726 0.930 . S
C741 C736 1.390 . S
C741 C740 1.387 . S
H742 C754 0.930 . S
H743 C756 0.930 . S
H744 C757 0.930 . S
H745 C761 0.959 . S
H746 C761 0.959 . S
H747 C761 0.961 . S
H748 C762 0.960 . S
H749 C762 0.961 . S
H750 C762 0.959 . S
H751 C765 0.929 . S
H752 C766 0.931 . S
H753 C768 0.930 . S
C754 H742 0.930 . S
C754 C755 1.399 . S
C754 C759 1.399 . S
C755 C754 1.399 . S
C755 C756 1.376 . S
C756 H743 0.930 . S
C756 C755 1.376 . S
C756 C757 1.388 . S
C757 H744 0.930 . S
C757 C756 1.388 . S
C757 C758 1.390 . S
C758 C757 1.390 . S
C758 C759 1.394 . S
C758 C764 1.465 . S
C759 C754 1.399 . S
C759 C758 1.394 . S
C759 C760 1.516 . S
C760 C759 1.516 . S
C760 C761 1.502 . S
C760 C762 1.561 . S
C760 C763 1.526 . S
C761 H745 0.959 . S
C761 H746 0.959 . S
C761 H747 0.961 . S
C761 C760 1.502 . S
C762 H748 0.960 . S
C762 H749 0.961 . S
C762 H750 0.959 . S
C762 C760 1.561 . S
C763 C760 1.526 . S
C763 C764 1.396 . S
C763 C768 1.390 . S
C764 C758 1.465 . S
C764 C763 1.396 . S
C764 C765 1.399 . S
C765 H751 0.929 . S
C765 C764 1.399 . S
C765 C766 1.385 . S
C766 H752 0.931 . S
C766 C765 1.385 . S
C766 C767 1.389 . S
C767 C766 1.389 . S
C767 C768 1.387 . S
C768 H753 0.930 . S
C768 C763 1.390 . S
C768 C767 1.387 . S
H769 C781 0.930 . S
H770 C783 0.930 . S
H771 C784 0.930 . S
H772 C788 0.959 . S
H773 C788 0.959 . S
H774 C788 0.961 . S
H775 C789 0.960 . S
H776 C789 0.961 . S
H777 C789 0.959 . S
H778 C792 0.929 . S
H779 C793 0.931 . S
H780 C795 0.930 . S
C781 H769 0.930 . S
C781 C782 1.399 . S
C781 C786 1.399 . S
C782 C781 1.399 . S
C782 C783 1.376 . S
C783 H770 0.930 . S
C783 C782 1.376 . S
C783 C784 1.388 . S
C784 H771 0.930 . S
C784 C783 1.388 . S
C784 C785 1.390 . S
C785 C784 1.390 . S
C785 C786 1.394 . S
C785 C791 1.465 . S
C786 C781 1.399 . S
C786 C785 1.394 . S
C786 C787 1.516 . S
C787 C786 1.516 . S
C787 C788 1.502 . S
C787 C789 1.561 . S
C787 C790 1.526 . S
C788 H772 0.959 . S
C788 H773 0.959 . S
C788 H774 0.961 . S
C788 C787 1.502 . S
C789 H775 0.960 . S
C789 H776 0.961 . S
C789 H777 0.959 . S
C789 C787 1.561 . S
C790 C787 1.526 . S
C790 C791 1.396 . S
C790 C795 1.390 . S
C791 C785 1.465 . S
C791 C790 1.396 . S
C791 C792 1.399 . S
C792 H778 0.929 . S
C792 C791 1.399 . S
C792 C793 1.385 . S
C793 H779 0.931 . S
C793 C792 1.385 . S
C793 C794 1.389 . S
C794 C793 1.389 . S
C794 C795 1.387 . S
C795 H780 0.930 . S
C795 C790 1.390 . S
C795 C794 1.387 . S
H796 C808 0.930 . S
H797 C810 0.930 . S
H798 C811 0.930 . S
H799 C815 0.959 . S
H800 C815 0.959 . S
H801 C815 0.961 . S
H802 C816 0.960 . S
H803 C816 0.961 . S
H804 C816 0.959 . S
H805 C819 0.929 . S
H806 C820 0.931 . S
H807 C822 0.930 . S
C808 H796 0.930 . S
C808 C809 1.399 . S
C808 C813 1.399 . S
C809 C808 1.399 . S
C809 C810 1.376 . S
C810 H797 0.930 . S
C810 C809 1.376 . S
C810 C811 1.388 . S
C811 H798 0.930 . S
C811 C810 1.388 . S
C811 C812 1.390 . S
C812 C811 1.390 . S
C812 C813 1.394 . S
C812 C818 1.465 . S
C813 C808 1.399 . S
C813 C812 1.394 . S
C813 C814 1.516 . S
C814 C813 1.516 . S
C814 C815 1.502 . S
C814 C816 1.561 . S
C814 C817 1.526 . S
C815 H799 0.959 . S
C815 H800 0.959 . S
C815 H801 0.961 . S
C815 C814 1.502 . S
C816 H802 0.960 . S
C816 H803 0.961 . S
C816 H804 0.959 . S
C816 C814 1.561 . S
C817 C814 1.526 . S
C817 C818 1.396 . S
C817 C822 1.390 . S
C818 C812 1.465 . S
C818 C817 1.396 . S
C818 C819 1.399 . S
C819 H805 0.929 . S
C819 C818 1.399 . S
C819 C820 1.385 . S
C820 H806 0.931 . S
C820 C819 1.385 . S
C820 C821 1.389 . S
C821 C820 1.389 . S
C821 C822 1.387 . S
C822 H807 0.930 . S
C822 C817 1.390 . S
C822 C821 1.387 . S
H823 C835 0.930 . S
H824 C837 0.930 . S
H825 C838 0.930 . S
H826 C842 0.959 . S
H827 C842 0.959 . S
H828 C842 0.961 . S
H829 C843 0.960 . S
H830 C843 0.961 . S
H831 C843 0.959 . S
H832 C846 0.929 . S
H833 C847 0.931 . S
H834 C849 0.930 . S
C835 H823 0.930 . S
C835 C836 1.399 . S
C835 C840 1.399 . S
C836 C835 1.399 . S
C836 C837 1.376 . S
C837 H824 0.930 . S
C837 C836 1.376 . S
C837 C838 1.388 . S
C838 H825 0.930 . S
C838 C837 1.388 . S
C838 C839 1.390 . S
C839 C838 1.390 . S
C839 C840 1.394 . S
C839 C845 1.465 . S
C840 C835 1.399 . S
C840 C839 1.394 . S
C840 C841 1.516 . S
C841 C840 1.516 . S
C841 C842 1.502 . S
C841 C843 1.561 . S
C841 C844 1.526 . S
C842 H826 0.959 . S
C842 H827 0.959 . S
C842 H828 0.961 . S
C842 C841 1.502 . S
C843 H829 0.960 . S
C843 H830 0.961 . S
C843 H831 0.959 . S
C843 C841 1.561 . S
C844 C841 1.526 . S
C844 C845 1.396 . S
C844 C849 1.390 . S
C845 C839 1.465 . S
C845 C844 1.396 . S
C845 C846 1.399 . S
C846 H832 0.929 . S
C846 C845 1.399 . S
C846 C847 1.385 . S
C847 H833 0.931 . S
C847 C846 1.385 . S
C847 C848 1.389 . S
C848 C847 1.389 . S
C848 C849 1.387 . S
C849 H834 0.930 . S
C849 C844 1.390 . S
C849 C848 1.387 . S
H850 C862 0.930 . S
H851 C864 0.930 . S
H852 C865 0.930 . S
H853 C869 0.959 . S
H854 C869 0.959 . S
H855 C869 0.961 . S
H856 C870 0.960 . S
H857 C870 0.961 . S
H858 C870 0.959 . S
H859 C873 0.929 . S
H860 C874 0.931 . S
H861 C876 0.930 . S
C862 H850 0.930 . S
C862 C863 1.399 . S
C862 C867 1.399 . S
C863 C862 1.399 . S
C863 C864 1.376 . S
C864 H851 0.930 . S
C864 C863 1.376 . S
C864 C865 1.388 . S
C865 H852 0.930 . S
C865 C864 1.388 . S
C865 C866 1.390 . S
C866 C865 1.390 . S
C866 C867 1.394 . S
C866 C872 1.465 . S
C867 C862 1.399 . S
C867 C866 1.394 . S
C867 C868 1.516 . S
C868 C867 1.516 . S
C868 C869 1.502 . S
C868 C870 1.561 . S
C868 C871 1.526 . S
C869 H853 0.959 . S
C869 H854 0.959 . S
C869 H855 0.961 . S
C869 C868 1.502 . S
C870 H856 0.960 . S
C870 H857 0.961 . S
C870 H858 0.959 . S
C870 C868 1.561 . S
C871 C868 1.526 . S
C871 C872 1.396 . S
C871 C876 1.390 . S
C872 C866 1.465 . S
C872 C871 1.396 . S
C872 C873 1.399 . S
C873 H859 0.929 . S
C873 C872 1.399 . S
C873 C874 1.385 . S
C874 H860 0.931 . S
C874 C873 1.385 . S
C874 C875 1.389 . S
C875 C874 1.389 . S
C875 C876 1.387 . S
C876 H861 0.930 . S
C876 C871 1.390 . S
C876 C875 1.387 . S
H877 C889 0.930 . S
H878 C891 0.930 . S
H879 C892 0.930 . S
H880 C896 0.959 . S
H881 C896 0.959 . S
H882 C896 0.961 . S
H883 C897 0.960 . S
H884 C897 0.961 . S
H885 C897 0.959 . S
H886 C900 0.929 . S
H887 C901 0.931 . S
H888 C903 0.930 . S
C889 H877 0.930 . S
C889 C890 1.399 . S
C889 C894 1.399 . S
C890 C889 1.399 . S
C890 C891 1.376 . S
C891 H878 0.930 . S
C891 C890 1.376 . S
C891 C892 1.388 . S
C892 H879 0.930 . S
C892 C891 1.388 . S
C892 C893 1.390 . S
C893 C892 1.390 . S
C893 C894 1.394 . S
C893 C899 1.465 . S
C894 C889 1.399 . S
C894 C893 1.394 . S
C894 C895 1.516 . S
C895 C894 1.516 . S
C895 C896 1.502 . S
C895 C897 1.561 . S
C895 C898 1.526 . S
C896 H880 0.959 . S
C896 H881 0.959 . S
C896 H882 0.961 . S
C896 C895 1.502 . S
C897 H883 0.960 . S
C897 H884 0.961 . S
C897 H885 0.959 . S
C897 C895 1.561 . S
C898 C895 1.526 . S
C898 C899 1.396 . S
C898 C903 1.390 . S
C899 C893 1.465 . S
C899 C898 1.396 . S
C899 C900 1.399 . S
C900 H886 0.929 . S
C900 C899 1.399 . S
C900 C901 1.385 . S
C901 H887 0.931 . S
C901 C900 1.385 . S
C901 C902 1.389 . S
C902 C901 1.389 . S
C902 C903 1.387 . S
C903 H888 0.930 . S
C903 C898 1.390 . S
C903 C902 1.387 . S
C269 C6 0.993 . S
C281 C102 1.068 . S
C296 C18 1.233 . S
C308 C151 1.254 . S
C335 C186 2.574 . S
C323 C28 2.624 . S
C350 C40 1.792 . S
C362 C225 1.780 . S
C389 C146 2.334 . S
C377 C9 2.249 . S
C416 C105 0.762 . S
C404 C16 0.834 . S
C443 C235 1.869 . S
C431 C30 1.928 . S
C470 C194 1.277 . S
C458 C42 1.335 . S
C485 C4 1.469 . S
C497 C222 1.485 . S
C524 C154 2.523 . S
C512 C33 2.575 . S
C539 C45 2.064 . S
C551 C115 2.068 . S
C566 C21 0.960 . S
C578 C191 1.038 . S
C605 C111 1.100 . S
C593 C57 1.041 . S
C620 C66 1.294 . S
C632 C142 1.211 . S
C647 C76 2.667 . S
C659 C195 2.612 . S
C674 C88 1.716 . S
C686 C234 1.686 . S
C701 C54 2.188 . S
C713 C155 2.312 . S
C740 C114 0.987 . S
C728 C64 0.944 . S
C767 C226 1.822 . S
C755 C78 1.839 . S
C794 C185 1.370 . S
C782 C93 1.370 . S
C809 C52 1.469 . S
C821 C231 1.482 . S
C848 C145 2.508 . S
C836 C81 2.557 . S
C875 C106 2.028 . S
C863 C90 2.048 . S
C890 C69 1.038 . S
C902 C182 1.018 . S
