# Generated by pormake.
# Topology ptr, (4,4)-cn, num edge types: 1
# Building blocks:
#     Node 0, Type 0, BuildingBlock: GALJAG_clean_sbu_0, # of connection points: 4
#     Node 1, Type 0, BuildingBlock: GALJAG_clean_sbu_0, # of connection points: 4
#     Node 2, Type 0, BuildingBlock: GALJAG_clean_sbu_0, # of connection points: 4
#     Node 3, Type 0, BuildingBlock: GALJAG_clean_sbu_0, # of connection points: 4
#     Node 4, Type 0, BuildingBlock: GALJAG_clean_sbu_0, # of connection points: 4
#     Node 5, Type 0, BuildingBlock: GALJAG_clean_sbu_0, # of connection points: 4
#     Node 6, Type 0, BuildingBlock: GALJAG_clean_sbu_0, # of connection points: 4
#     Node 7, Type 0, BuildingBlock: GALJAG_clean_sbu_0, # of connection points: 4
#     Node 8, Type 0, BuildingBlock: GALJAG_clean_sbu_0, # of connection points: 4
#     Node 9, Type 0, BuildingBlock: GALJAG_clean_sbu_0, # of connection points: 4
#     Node 10, Type 0, BuildingBlock: GALJAG_clean_sbu_0, # of connection points: 4
#     Node 11, Type 0, BuildingBlock: GALJAG_clean_sbu_0, # of connection points: 4
#     Node 12, Type 0, BuildingBlock: GALJAG_clean_sbu_0, # of connection points: 4
#     Node 13, Type 0, BuildingBlock: GALJAG_clean_sbu_0, # of connection points: 4
#     Node 14, Type 0, BuildingBlock: GALJAG_clean_sbu_0, # of connection points: 4
#     Node 15, Type 0, BuildingBlock: GALJAG_clean_sbu_0, # of connection points: 4
#     Node 16, Type 0, BuildingBlock: GALJAG_clean_sbu_0, # of connection points: 4
#     Node 17, Type 0, BuildingBlock: GALJAG_clean_sbu_0, # of connection points: 4
#     Node 18, Type 1, BuildingBlock: GIZVER_clean_linker_0, # of connection points: 4
#     Node 19, Type 1, BuildingBlock: GIZVER_clean_linker_0, # of connection points: 4
#     Node 20, Type 1, BuildingBlock: GIZVER_clean_linker_0, # of connection points: 4
#     Node 21, Type 1, BuildingBlock: GIZVER_clean_linker_0, # of connection points: 4
#     Node 22, Type 1, BuildingBlock: GIZVER_clean_linker_0, # of connection points: 4
#     Node 23, Type 1, BuildingBlock: GIZVER_clean_linker_0, # of connection points: 4
#     Node 24, Type 1, BuildingBlock: GIZVER_clean_linker_0, # of connection points: 4
#     Node 25, Type 1, BuildingBlock: GIZVER_clean_linker_0, # of connection points: 4
#     Node 26, Type 1, BuildingBlock: GIZVER_clean_linker_0, # of connection points: 4
#     Node 27, Type 1, BuildingBlock: GIZVER_clean_linker_0, # of connection points: 4
#     Node 28, Type 1, BuildingBlock: GIZVER_clean_linker_0, # of connection points: 4
#     Node 29, Type 1, BuildingBlock: GIZVER_clean_linker_0, # of connection points: 4
#     Node 30, Type 1, BuildingBlock: GIZVER_clean_linker_0, # of connection points: 4
#     Node 31, Type 1, BuildingBlock: GIZVER_clean_linker_0, # of connection points: 4
#     Node 32, Type 1, BuildingBlock: GIZVER_clean_linker_0, # of connection points: 4
#     Node 33, Type 1, BuildingBlock: GIZVER_clean_linker_0, # of connection points: 4
#     Node 34, Type 1, BuildingBlock: GIZVER_clean_linker_0, # of connection points: 4
#     Node 35, Type 1, BuildingBlock: GIZVER_clean_linker_0, # of connection points: 4
#     Edge 36, Type (0, 1), BuildingBlock: XUDNAN_clean_linker_2, # of connection points: 2
#     Edge 37, Type (0, 1), BuildingBlock: XUDNAN_clean_linker_2, # of connection points: 2
#     Edge 38, Type (0, 1), BuildingBlock: XUDNAN_clean_linker_2, # of connection points: 2
#     Edge 39, Type (0, 1), BuildingBlock: XUDNAN_clean_linker_2, # of connection points: 2
#     Edge 40, Type (0, 1), BuildingBlock: XUDNAN_clean_linker_2, # of connection points: 2
#     Edge 41, Type (0, 1), BuildingBlock: XUDNAN_clean_linker_2, # of connection points: 2
#     Edge 42, Type (0, 1), BuildingBlock: XUDNAN_clean_linker_2, # of connection points: 2
#     Edge 43, Type (0, 1), BuildingBlock: XUDNAN_clean_linker_2, # of connection points: 2
#     Edge 44, Type (0, 1), BuildingBlock: XUDNAN_clean_linker_2, # of connection points: 2
#     Edge 45, Type (0, 1), BuildingBlock: XUDNAN_clean_linker_2, # of connection points: 2
#     Edge 46, Type (0, 1), BuildingBlock: XUDNAN_clean_linker_2, # of connection points: 2
#     Edge 47, Type (0, 1), BuildingBlock: XUDNAN_clean_linker_2, # of connection points: 2
#     Edge 48, Type (0, 1), BuildingBlock: XUDNAN_clean_linker_2, # of connection points: 2
#     Edge 49, Type (0, 1), BuildingBlock: XUDNAN_clean_linker_2, # of connection points: 2
#     Edge 50, Type (0, 1), BuildingBlock: XUDNAN_clean_linker_2, # of connection points: 2
#     Edge 51, Type (0, 1), BuildingBlock: XUDNAN_clean_linker_2, # of connection points: 2
#     Edge 52, Type (0, 1), BuildingBlock: XUDNAN_clean_linker_2, # of connection points: 2
#     Edge 53, Type (0, 1), BuildingBlock: XUDNAN_clean_linker_2, # of connection points: 2
#     Edge 54, Type (0, 1), BuildingBlock: XUDNAN_clean_linker_2, # of connection points: 2
#     Edge 55, Type (0, 1), BuildingBlock: XUDNAN_clean_linker_2, # of connection points: 2
#     Edge 56, Type (0, 1), BuildingBlock: XUDNAN_clean_linker_2, # of connection points: 2
#     Edge 57, Type (0, 1), BuildingBlock: XUDNAN_clean_linker_2, # of connection points: 2
#     Edge 58, Type (0, 1), BuildingBlock: XUDNAN_clean_linker_2, # of connection points: 2
#     Edge 59, Type (0, 1), BuildingBlock: XUDNAN_clean_linker_2, # of connection points: 2
#     Edge 60, Type (0, 1), BuildingBlock: XUDNAN_clean_linker_2, # of connection points: 2
#     Edge 61, Type (0, 1), BuildingBlock: XUDNAN_clean_linker_2, # of connection points: 2
#     Edge 62, Type (0, 1), BuildingBlock: XUDNAN_clean_linker_2, # of connection points: 2
#     Edge 63, Type (0, 1), BuildingBlock: XUDNAN_clean_linker_2, # of connection points: 2
#     Edge 64, Type (0, 1), BuildingBlock: XUDNAN_clean_linker_2, # of connection points: 2
#     Edge 65, Type (0, 1), BuildingBlock: XUDNAN_clean_linker_2, # of connection points: 2
#     Edge 66, Type (0, 1), BuildingBlock: XUDNAN_clean_linker_2, # of connection points: 2
#     Edge 67, Type (0, 1), BuildingBlock: XUDNAN_clean_linker_2, # of connection points: 2
#     Edge 68, Type (0, 1), BuildingBlock: XUDNAN_clean_linker_2, # of connection points: 2
#     Edge 69, Type (0, 1), BuildingBlock: XUDNAN_clean_linker_2, # of connection points: 2
#     Edge 70, Type (0, 1), BuildingBlock: XUDNAN_clean_linker_2, # of connection points: 2
#     Edge 71, Type (0, 1), BuildingBlock: XUDNAN_clean_linker_2, # of connection points: 2
#     Edge 72, Type (0, 1), BuildingBlock: XUDNAN_clean_linker_2, # of connection points: 2
#     Edge 73, Type (0, 1), BuildingBlock: XUDNAN_clean_linker_2, # of connection points: 2
#     Edge 74, Type (0, 1), BuildingBlock: XUDNAN_clean_linker_2, # of connection points: 2
#     Edge 75, Type (0, 1), BuildingBlock: XUDNAN_clean_linker_2, # of connection points: 2
#     Edge 76, Type (0, 1), BuildingBlock: XUDNAN_clean_linker_2, # of connection points: 2
#     Edge 77, Type (0, 1), BuildingBlock: XUDNAN_clean_linker_2, # of connection points: 2
#     Edge 78, Type (0, 1), BuildingBlock: XUDNAN_clean_linker_2, # of connection points: 2
#     Edge 79, Type (0, 1), BuildingBlock: XUDNAN_clean_linker_2, # of connection points: 2
#     Edge 80, Type (0, 1), BuildingBlock: XUDNAN_clean_linker_2, # of connection points: 2
#     Edge 81, Type (0, 1), BuildingBlock: XUDNAN_clean_linker_2, # of connection points: 2
#     Edge 82, Type (0, 1), BuildingBlock: XUDNAN_clean_linker_2, # of connection points: 2
#     Edge 83, Type (0, 1), BuildingBlock: XUDNAN_clean_linker_2, # of connection points: 2
#     Edge 84, Type (0, 1), BuildingBlock: XUDNAN_clean_linker_2, # of connection points: 2
#     Edge 85, Type (0, 1), BuildingBlock: XUDNAN_clean_linker_2, # of connection points: 2
#     Edge 86, Type (0, 1), BuildingBlock: XUDNAN_clean_linker_2, # of connection points: 2
#     Edge 87, Type (0, 1), BuildingBlock: XUDNAN_clean_linker_2, # of connection points: 2
#     Edge 88, Type (0, 1), BuildingBlock: XUDNAN_clean_linker_2, # of connection points: 2
#     Edge 89, Type (0, 1), BuildingBlock: XUDNAN_clean_linker_2, # of connection points: 2
#     Edge 90, Type (0, 1), BuildingBlock: XUDNAN_clean_linker_2, # of connection points: 2
#     Edge 91, Type (0, 1), BuildingBlock: XUDNAN_clean_linker_2, # of connection points: 2
#     Edge 92, Type (0, 1), BuildingBlock: XUDNAN_clean_linker_2, # of connection points: 2
#     Edge 93, Type (0, 1), BuildingBlock: XUDNAN_clean_linker_2, # of connection points: 2
#     Edge 94, Type (0, 1), BuildingBlock: XUDNAN_clean_linker_2, # of connection points: 2
#     Edge 95, Type (0, 1), BuildingBlock: XUDNAN_clean_linker_2, # of connection points: 2
#     Edge 96, Type (0, 1), BuildingBlock: XUDNAN_clean_linker_2, # of connection points: 2
#     Edge 97, Type (0, 1), BuildingBlock: XUDNAN_clean_linker_2, # of connection points: 2
#     Edge 98, Type (0, 1), BuildingBlock: XUDNAN_clean_linker_2, # of connection points: 2
#     Edge 99, Type (0, 1), BuildingBlock: XUDNAN_clean_linker_2, # of connection points: 2
#     Edge 100, Type (0, 1), BuildingBlock: XUDNAN_clean_linker_2, # of connection points: 2
#     Edge 101, Type (0, 1), BuildingBlock: XUDNAN_clean_linker_2, # of connection points: 2
#     Edge 102, Type (0, 1), BuildingBlock: XUDNAN_clean_linker_2, # of connection points: 2
#     Edge 103, Type (0, 1), BuildingBlock: XUDNAN_clean_linker_2, # of connection points: 2
#     Edge 104, Type (0, 1), BuildingBlock: XUDNAN_clean_linker_2, # of connection points: 2
#     Edge 105, Type (0, 1), BuildingBlock: XUDNAN_clean_linker_2, # of connection points: 2
#     Edge 106, Type (0, 1), BuildingBlock: XUDNAN_clean_linker_2, # of connection points: 2
#     Edge 107, Type (0, 1), BuildingBlock: XUDNAN_clean_linker_2, # of connection points: 2
# Relax obj value: 0.069
# Max RMSD: 0.094
# Mean RMSD: 0.093
data_MOF--net-ptr--node1-GALJAG_clean_sbu_0--node2-GIZVER_clean_linker_0--edge1-XUDNAN_clean_linker_2
_symmetry_space_group_name_H-M    P1
_symmetry_Int_Tables_number       1
_symmetry_cell_setting            triclinic
loop_
_symmetry_equiv_pos_as_xyz
'x, y, z'
_cell_length_a     79.093759
_cell_length_b     79.104312
_cell_length_c     51.233996
_cell_angle_alpha  90.240047
_cell_angle_beta   90.36749
_cell_angle_gamma 120.13169
loop_
_atom_site_label
_atom_site_type_symbol
_atom_site_fract_x
_atom_site_fract_y
_atom_site_fract_z
_atom_type_partial_charge
In0 In 0.01343 0.38703 0.01154 0.0
O1 O 0.02351 0.41684 0.02952 0.0
O2 O 0.99963 0.39279 0.04768 0.0
C3 C 0.98071 0.35147 0.00619 0.0
C4 C 0.04328 0.38009 0.02047 0.0
C5 C 0.01919 0.4087 0.96854 0.0
O6 O 0.99106 0.3566 0.02672 0.0
O7 O 0.98684 0.3642 0.98857 0.0
O8 O 0.03272 0.40701 0.97917 0.0
O9 O 1.00267 0.39893 0.97905 0.0
C10 C 0.01104 0.41105 0.04735 0.0
O11 O 0.03821 0.38868 0.0367 0.0
O12 O 0.03321 0.37479 -0.00029 0.0
In13 In 0.63106 0.6369 0.01559 0.0
O14 O 0.62679 0.62359 0.05635 0.0
O15 O 0.60288 0.62447 0.03845 0.0
C16 C 0.66456 0.63649 0.00563 0.0
C17 C 0.63922 0.67407 0.02443 0.0
C18 C 0.60795 0.61489 0.97554 0.0
O19 O 0.66044 0.64841 0.9953 0.0
O20 O 0.65179 0.62467 0.0211 0.0
O21 O 0.62077 0.63263 0.97279 0.0
O22 O 0.60712 0.60829 0.99807 0.0
C23 C 0.6091 0.61929 0.05778 0.0
O24 O 0.62717 0.66324 0.00713 0.0
O25 O 0.647 0.66613 0.03724 0.0
In26 In 0.38632 0.01375 0.0148 0.0
O27 O 0.39724 0.04647 0.01702 0.0
O28 O 0.37162 0.0289 0.99444 0.0
C29 C 0.40805 0.01738 0.05782 0.0
C30 C 0.40595 0.00765 0.97611 0.0
C31 C 0.3492 0.98494 0.02439 0.0
O32 O 0.40099 0.02832 0.05363 0.0
O33 O 0.404 0.00451 0.04049 0.0
O34 O 0.35624 0.98872 0.00176 0.0
O35 O 0.36072 0.99588 0.04206 0.0
C36 C 0.3838 0.04578 0.00284 0.0
O37 O 0.39401 0.99426 0.99071 0.0
O38 O 0.40786 0.02419 0.98066 0.0
In39 In 0.00844 0.63795 0.0065 0.0
O40 O 0.01824 0.63284 0.96651 0.0
O41 O 0.9928 0.60948 0.98328 0.0
C42 C 0.0399 0.67303 0.018 0.0
C43 C 0.97925 0.64648 0.00157 0.0
C44 C 0.01452 0.61811 0.04476 0.0
O45 O 0.03599 0.66644 0.99485 0.0
O46 O 0.02797 0.66202 0.03494 0.0
O47 O 1.00122 0.62252 0.0463 0.0
O48 O 0.0244 0.62362 0.02412 0.0
C49 C 0.00468 0.61525 0.96465 0.0
O50 O 0.97643 0.63079 0.01181 0.0
O51 O 0.99646 0.65754 0.99405 0.0
In52 In 0.38071 0.37663 0.01783 0.0
O53 O 0.39086 0.39808 0.98309 0.0
O54 O 0.40759 0.38502 0.99338 0.0
C55 C 0.34686 0.37639 0.0256 0.0
C56 C 0.36768 0.33795 0.00961 0.0
C57 C 0.40247 0.39534 0.06037 0.0
O58 O 0.35331 0.37644 0.00306 0.0
O59 O 0.35757 0.37666 0.04422 0.0
O60 O 0.3964 0.3775 0.05576 0.0
O61 O 0.39691 0.40356 0.04415 0.0
C62 C 0.40584 0.39678 0.9788 0.0
O63 O 0.38404 0.34934 0.01998 0.0
O64 O 0.35787 0.34593 0.00369 0.0
In65 In 0.63998 0.00927 0.01438 0.0
O66 O 0.63006 0.01655 0.05267 0.0
O67 O 0.60944 0.9918 0.03037 0.0
C68 C 0.67624 0.0408 0.0083 0.0
C69 C 0.64654 0.97949 0.02451 0.0
C70 C 0.61953 0.01173 0.97371 0.0
O71 O 0.66511 0.04 0.02642 0.0
O72 O 0.66915 0.02581 0.99391 0.0
O73 O 0.62411 0.99859 0.97509 0.0
O74 O 0.62572 0.02384 0.99238 0.0
C75 C 0.61268 1.00243 0.05036 0.0
O76 O 0.64405 0.98374 0.00165 0.0
O77 O 0.64596 0.99033 0.04218 0.0
In78 In 0.68288 0.71786 0.34629 0.0
O79 O 0.67625 0.72683 0.3857 0.0
O80 O 0.70002 0.74834 0.36355 0.0
C81 C 0.65225 0.68078 0.34194 0.0
C82 C 0.71397 0.71286 0.35373 0.0
C83 C 0.67802 0.73758 0.3068 0.0
O84 O 0.6532 0.69231 0.35975 0.0
O85 O 0.6666 0.68794 0.32675 0.0
O86 O 0.6919 0.73406 0.30748 0.0
O87 O 0.66631 0.73068 0.32557 0.0
C88 C 0.68994 0.74441 0.38399 0.0
O89 O 0.70815 0.71424 0.33127 0.0
O90 O 0.70405 0.71379 0.37226 0.0
In91 In 0.29597 0.96535 0.34449 0.0
O92 O 0.29568 0.95003 0.38222 0.0
O93 O 0.26965 0.95 0.37163 0.0
C94 C 0.32999 0.96567 0.33543 0.0
C95 C 0.30552 0.00282 0.35389 0.0
C96 C 0.27121 0.94819 0.30315 0.0
O97 O 0.32876 0.98095 0.3345 0.0
O98 O 0.3142 0.95044 0.34086 0.0
O99 O 0.27365 0.96358 0.3139 0.0
O100 O 0.28139 0.94166 0.31291 0.0
C101 C 0.27811 0.94446 0.38749 0.0
O102 O 0.29843 0.98977 0.37117 0.0
O103 O 0.30818 0.99707 0.33207 0.0
In104 In 0.03899 0.33375 0.33775 0.0
O105 O 0.04107 0.36266 0.35019 0.0
O106 O 0.03404 0.35363 0.31056 0.0
C107 C 0.0601 0.32896 0.37588 0.0
C108 C 0.05932 0.33093 0.29753 0.0
C109 C 1.00106 0.30695 0.34699 0.0
O110 O 0.06018 0.34486 0.37316 0.0
O111 O 0.04928 0.31576 0.35989 0.0
O112 O 0.00952 0.3073 0.32607 0.0
O113 O 0.01154 0.32038 0.36299 0.0
C114 C 0.0371 0.36635 0.32775 0.0
O115 O 0.04294 0.317 0.30442 0.0
O116 O 0.06533 0.34656 0.31052 0.0
In117 In 0.67009 0.96439 0.35479 0.0
O118 O 0.69172 0.96107 0.32899 0.0
O119 O 0.6614 0.94137 0.32263 0.0
C120 C 0.69783 1.00205 0.36478 0.0
C121 C 0.63908 0.96851 0.34146 0.0
C122 C 0.66541 0.93939 0.39393 0.0
O123 O 0.69359 0.99506 0.34195 0.0
O124 O 0.68797 0.99016 0.38241 0.0
O125 O 0.6513 0.94057 0.38438 0.0
O126 O 0.6817 0.95083 0.38391 0.0
C127 C 0.67873 0.94677 0.31605 0.0
O128 O 0.64873 0.96486 0.32518 0.0
O129 O 0.64502 0.97014 0.36476 0.0
In130 In 0.05138 0.718 0.35131 0.0
O131 O 0.05991 0.73443 0.31244 0.0
O132 O 0.08111 0.73029 0.33267 0.0
C133 C 0.0146 0.71116 0.35783 0.0
C134 C 0.04585 0.68186 0.34228 0.0
C135 C 0.06968 0.74213 0.3923 0.0
O136 O 0.02533 0.7218 0.33963 0.0
O137 O 0.02248 0.70424 0.37244 0.0
O138 O 0.06395 0.72408 0.39292 0.0
O139 O 0.06588 0.74783 0.37129 0.0
C140 C 0.07716 0.73734 0.31311 0.0
O141 O 0.05633 0.69258 0.36092 0.0
O142 O 0.03817 0.68935 0.3283 0.0
In143 In 0.30484 0.34366 0.34669 0.0
O144 O 0.30788 0.32237 0.37413 0.0
O145 O 0.3133 0.32113 0.33395 0.0
C146 C 0.27959 0.33835 0.30723 0.0
C147 C 0.28575 0.35002 0.38561 0.0
C148 C 0.34133 0.37376 0.33788 0.0
O149 O 0.27832 0.32447 0.32064 0.0
O150 O 0.2937 0.35489 0.31345 0.0
O151 O 0.33295 0.37152 0.35952 0.0
O152 O 0.33143 0.36078 0.32099 0.0
C153 C 0.31237 0.31429 0.35637 0.0
O154 O 0.30163 0.36341 0.37651 0.0
O155 O 0.2797 0.3334 0.3754 0.0
In156 In 0.35123 0.05182 0.67274 0.0
O157 O 0.37724 0.04797 0.66257 0.0
O158 O 0.36497 0.03921 0.70019 0.0
C159 C 0.35494 0.07353 0.63035 0.0
C160 C 0.35614 0.07786 0.71076 0.0
C161 C 0.31764 0.01775 0.66349 0.0
O162 O 0.36905 0.07265 0.64043 0.0
O163 O 0.33868 0.06299 0.64119 0.0
O164 O 0.31866 0.03038 0.67957 0.0
O165 O 0.33348 0.02235 0.65214 0.0
C166 C 0.37793 0.04103 0.68437 0.0
O167 O 0.36661 0.08223 0.69077 0.0
O168 O 0.343 0.0601 0.71193 0.0
In169 In 0.97795 0.30488 0.68623 0.0
O170 O 0.96817 0.32739 0.67947 0.0
O171 O 0.9918 0.3349 0.7058 0.0
C172 C 0.956 0.27887 0.64827 0.0
C173 C 0.95968 0.28401 0.72919 0.0
C174 C 0.0149 0.31374 0.67461 0.0
O175 O 0.96085 0.29668 0.64713 0.0
O176 O 0.96222 0.27444 0.66823 0.0
O177 O 0.00702 0.30676 0.69622 0.0
O178 O 0.00432 0.31667 0.65887 0.0
C179 C 0.98078 0.34005 0.69481 0.0
O180 O 0.97461 0.2846 0.71965 0.0
O181 O 0.95414 0.29445 0.71754 0.0
In182 In 0.71387 0.6738 0.67574 0.0
O183 O 0.72642 0.70679 0.68202 0.0
O184 O 0.70106 0.69157 0.6582 0.0
C185 C 0.73559 0.67014 0.7142 0.0
C186 C 0.73064 0.66828 0.63319 0.0
C187 C 0.67652 0.64632 0.68666 0.0
O188 O 0.72854 0.68128 0.71662 0.0
O189 O 0.73178 0.6612 0.69266 0.0
O190 O 0.68296 0.64986 0.6637 0.0
O191 O 0.68877 0.65684 0.70396 0.0
C192 C 0.71363 0.70768 0.66818 0.0
O193 O 0.7163 0.65453 0.64464 0.0
O194 O 0.73631 0.68505 0.64273 0.0
In195 In 0.34398 0.30004 0.67666 0.0
O196 O 0.36418 0.295 0.65 0.0
O197 O 0.33356 0.27689 0.6444 0.0
C198 C 0.37307 0.33659 0.68924 0.0
C199 C 0.31455 0.30705 0.6655 0.0
C200 C 0.33734 0.27417 0.71518 0.0
O201 O 0.36769 0.33133 0.66595 0.0
O202 O 0.36376 0.32356 0.7059 0.0
O203 O 0.32384 0.2761 0.705 0.0
O204 O 0.35406 0.28521 0.7059 0.0
C205 C 0.35047 0.28112 0.63736 0.0
O206 O 0.32525 0.30586 0.64829 0.0
O207 O 0.3187 0.30477 0.68857 0.0
In208 In 0.71687 0.055 0.68105 0.0
O209 O 0.71842 0.07752 0.65151 0.0
O210 O 0.74221 0.07241 0.65333 0.0
C211 C 0.67922 0.04538 0.68864 0.0
C212 C 0.71253 0.01926 0.67182 0.0
C213 C 0.74106 0.07389 0.72187 0.0
O214 O 0.69252 0.05431 0.70553 0.0
O215 O 0.68484 0.04116 0.66789 0.0
O216 O 0.74235 0.0612 0.70841 0.0
O217 O 0.72735 0.07676 0.7151 0.0
C218 C 0.73495 0.08173 0.6429 0.0
O219 O 0.71159 0.02501 0.69451 0.0
O220 O 0.71561 0.03147 0.65409 0.0
In221 In 0.96982 0.67629 0.68242 0.0
O222 O 0.96916 0.65031 0.70201 0.0
O223 O 0.9816 0.6574 0.66432 0.0
C224 C 0.94753 0.67647 0.64248 0.0
C225 C 0.94419 0.66947 0.72105 0.0
C226 C 0.00502 0.71001 0.68226 0.0
O227 O 0.95598 0.66649 0.64163 0.0
O228 O 0.95071 0.68648 0.66302 0.0
O229 O 1.00034 0.69746 0.7 0.0
O230 O 0.99186 0.70578 0.66535 0.0
C231 C 0.9771 0.64623 0.68376 0.0
O232 O 0.96104 0.68457 0.72124 0.0
O233 O 0.94071 0.65817 0.70181 0.0
H234 H 0.15305 0.32529 0.15134 0.0
H235 H 0.1569 0.34817 0.07413 0.0
H236 H 0.1209 0.35376 0.13226 0.0
H237 H 0.16104 0.31165 0.11024 0.0
H238 H 0.16828 0.32592 0.08144 0.0
H239 H 0.182 0.32708 0.15266 0.0
H240 H 0.2426 0.35258 0.13547 0.0
H241 H 0.20212 0.34728 0.07493 0.0
C242 C 0.1499 0.33372 0.13763 0.0
C243 C 0.13733 0.34053 0.14515 0.0
C244 C 0.15749 0.33685 0.1122 0.0
C245 C 0.15176 0.34641 0.09402 0.0
C246 C 0.13844 0.35255 0.10096 0.0
C247 C 0.13179 0.34995 0.1268 0.0
C248 C 0.16867 0.32697 0.10312 0.0
C249 C 0.18968 0.33674 0.11286 0.0
C250 C 0.19377 0.3345 0.13898 0.0
C251 C 0.21299 0.341 0.14735 0.0
C252 C 0.22814 0.34923 0.12919 0.0
C253 C 0.22461 0.35162 0.10291 0.0
C254 C 0.20526 0.34571 0.09509 0.0
H255 H 0.69256 0.83873 0.15948 0.0
H256 H 0.68382 0.82345 0.0775 0.0
H257 H 0.66649 0.77893 0.13569 0.0
H258 H 0.71458 0.86156 0.12007 0.0
H259 H 0.7026 0.8569 0.08926 0.0
H260 H 0.70078 0.87001 0.15939 0.0
H261 H 0.67352 0.9032 0.14027 0.0
H262 H 0.67974 0.86784 0.08106 0.0
C263 C 0.68668 0.82795 0.144 0.0
C264 C 0.67883 0.80823 0.15041 0.0
C265 C 0.68829 0.83369 0.11767 0.0
C266 C 0.68186 0.81923 0.09784 0.0
C267 C 0.67433 0.79948 0.10427 0.0
C268 C 0.67244 0.79417 0.13056 0.0
C269 C 0.69991 0.85516 0.11063 0.0
C270 C 0.69062 0.86694 0.1194 0.0
C271 C 0.693 0.87379 0.14532 0.0
C272 C 0.68589 0.88606 0.15306 0.0
C273 C 0.67738 0.89243 0.13437 0.0
C274 C 0.67524 0.88627 0.10815 0.0
C275 C 0.68138 0.87295 0.10106 0.0
H276 H 0.18118 0.81778 0.16372 0.0
H277 H 0.16779 0.80456 0.08216 0.0
H278 H 0.12278 0.77628 0.13948 0.0
H279 H 0.20699 0.82498 0.12967 0.0
H280 H 0.20088 0.82391 0.0959 0.0
H281 H 0.19426 0.84904 0.15616 0.0
H282 H 0.23054 0.90606 0.12551 0.0
H283 H 0.22078 0.8558 0.08082 0.0
C284 C 0.17052 0.81065 0.14823 0.0
C285 C 0.15104 0.79737 0.15467 0.0
C286 C 0.17645 0.81432 0.12201 0.0
C287 C 0.16292 0.80304 0.10218 0.0
C288 C 0.14367 0.78866 0.10846 0.0
C289 C 0.1377 0.78691 0.13456 0.0
C290 C 0.19788 0.82772 0.1156 0.0
C291 C 0.2048 0.84947 0.117 0.0
C292 C 0.20234 0.85795 0.1399 0.0
C293 C 0.21147 0.8783 0.14289 0.0
C294 C 0.22305 0.89033 0.12278 0.0
C295 C 0.22696 0.88243 0.10064 0.0
C296 C 0.21735 0.86198 0.0975 0.0
H297 H 0.36492 0.20285 0.86126 0.0
H298 H 0.37056 0.21571 0.94372 0.0
H299 H 0.33377 0.22846 0.89549 0.0
H300 H 0.39556 0.20994 0.89095 0.0
H301 H 0.39132 0.20568 0.92492 0.0
H302 H 0.37615 0.18232 0.85853 0.0
H303 H 0.36606 0.12707 0.88616 0.0
H304 H 0.37715 0.17294 0.941 0.0
C305 C 0.36048 0.2074 0.87856 0.0
C306 C 0.34761 0.21464 0.87584 0.0
C307 C 0.36833 0.20699 0.90316 0.0
C308 C 0.36373 0.21483 0.92497 0.0
C309 C 0.35121 0.22255 0.92234 0.0
C310 C 0.34279 0.22182 0.89788 0.0
C311 C 0.384 0.20137 0.90545 0.0
C312 C 0.3766 0.17984 0.90039 0.0
C313 C 0.37397 0.17267 0.87463 0.0
C314 C 0.3695 0.15342 0.8694 0.0
C315 C 0.36801 0.14138 0.89031 0.0
C316 C 0.37083 0.14819 0.91624 0.0
C317 C 0.37471 0.16738 0.92114 0.0
H318 H 0.86895 0.18695 0.8786 0.0
H319 H 0.86394 0.20613 0.95546 0.0
H320 H 0.90055 0.24776 0.89789 0.0
H321 H 0.85981 0.16512 0.9189 0.0
H322 H 0.85309 0.17245 0.94805 0.0
H323 H 0.83864 0.1622 0.87628 0.0
H324 H 0.77796 0.12622 0.89382 0.0
H325 H 0.81927 0.15629 0.95589 0.0
C326 C 0.87184 0.19858 0.89225 0.0
C327 C 0.88437 0.21801 0.88483 0.0
C328 C 0.86388 0.19413 0.91749 0.0
C329 C 0.86934 0.20949 0.93568 0.0
C330 C 0.88271 0.22899 0.92893 0.0
C331 C 0.88965 0.23301 0.90322 0.0
C332 C 0.8525 0.17303 0.92639 0.0
C333 C 0.83137 0.16194 0.91697 0.0
C334 C 0.82702 0.15699 0.89035 0.0
C335 C 0.80776 0.14434 0.88182 0.0
C336 C 0.79276 0.13651 0.90021 0.0
C337 C 0.79677 0.1404 0.92697 0.0
C338 C 0.81602 0.15361 0.9352 0.0
H339 H 0.83626 0.63826 0.86653 0.0
H340 H 0.84761 0.6438 0.94929 0.0
H341 H 0.89505 0.6637 0.89554 0.0
H342 H 0.81124 0.61612 0.90049 0.0
H343 H 0.81504 0.6237 0.9337 0.0
H344 H 0.81235 0.64397 0.86718 0.0
H345 H 0.76573 0.65272 0.89179 0.0
H346 H 0.79516 0.63585 0.94765 0.0
C347 C 0.84645 0.64385 0.88271 0.0
C348 C 0.86656 0.65238 0.87773 0.0
C349 C 0.83936 0.64134 0.9084 0.0
C350 C 0.85281 0.64678 0.92939 0.0
C351 C 0.87289 0.65497 0.92464 0.0
C352 C 0.87963 0.65813 0.89893 0.0
C353 C 0.81751 0.62928 0.91337 0.0
C354 C 0.80585 0.63952 0.90822 0.0
C355 C 0.8037 0.64479 0.8827 0.0
C356 C 0.78953 0.65 0.87661 0.0
C357 C 0.77759 0.65015 0.89665 0.0
C358 C 0.77954 0.64526 0.9224 0.0
C359 C 0.7939 0.64019 0.92804 0.0
H360 H 0.8178 0.65304 0.48532 0.0
H361 H 0.82423 0.67694 0.40827 0.0
H362 H 0.788 0.68365 0.465 0.0
H363 H 0.827 0.63962 0.44652 0.0
H364 H 0.83274 0.6522 0.41623 0.0
H365 H 0.8493 0.66009 0.48735 0.0
H366 H 0.90964 0.68605 0.46698 0.0
H367 H 0.86632 0.67035 0.40649 0.0
C368 C 0.81516 0.66173 0.47141 0.0
C369 C 0.80323 0.66939 0.47851 0.0
C370 C 0.82308 0.66467 0.44619 0.0
C371 C 0.8185 0.67505 0.42785 0.0
C372 C 0.80578 0.68202 0.43432 0.0
C373 C 0.79854 0.67929 0.45987 0.0
C374 C 0.83401 0.65443 0.43777 0.0
C375 C 0.85533 0.66516 0.44605 0.0
C376 C 0.8605 0.66608 0.47263 0.0
C377 C 0.88005 0.67347 0.4802 0.0
C378 C 0.89449 0.6802 0.46111 0.0
C379 C 0.88971 0.6789 0.43453 0.0
C380 C 0.87014 0.67179 0.42705 0.0
H381 H 0.36428 0.17095 0.47908 0.0
H382 H 0.34098 0.15094 0.40169 0.0
H383 H 0.3348 0.11001 0.46126 0.0
H384 H 0.37796 0.19202 0.43734 0.0
H385 H 0.36295 0.18485 0.40884 0.0
H386 H 0.36357 0.19811 0.48038 0.0
H387 H 0.33763 0.23293 0.4643 0.0
H388 H 0.3428 0.19866 0.40263 0.0
C389 C 0.35563 0.15924 0.46547 0.0
C390 C 0.34846 0.13992 0.47346 0.0
C391 C 0.35251 0.16342 0.43979 0.0
C392 C 0.34272 0.14782 0.42178 0.0
C393 C 0.33624 0.12837 0.42924 0.0
C394 C 0.33884 0.12469 0.45533 0.0
C395 C 0.36247 0.18444 0.43054 0.0
C396 C 0.3533 0.19608 0.44057 0.0
C397 C 0.35592 0.20237 0.46682 0.0
C398 C 0.34943 0.21494 0.47556 0.0
C399 C 0.34107 0.22199 0.45767 0.0
C400 C 0.33873 0.2165 0.43119 0.0
C401 C 0.34444 0.20306 0.42296 0.0
H402 H 0.83366 0.15915 0.49768 0.0
H403 H 0.82415 0.13236 0.4216 0.0
H404 H 0.77539 0.12312 0.46834 0.0
H405 H 0.85647 0.14648 0.4708 0.0
H406 H 0.85637 0.15058 0.43689 0.0
H407 H 0.8669 0.1737 0.50282 0.0
H408 H 0.90986 0.22923 0.47303 0.0
H409 H 0.87048 0.18361 0.42021 0.0
C410 C 0.824 0.15102 0.48163 0.0
C411 C 0.80374 0.14217 0.48517 0.0
C412 C 0.83161 0.14824 0.45826 0.0
C413 C 0.81851 0.13589 0.43873 0.0
C414 C 0.79819 0.12646 0.44244 0.0
C415 C 0.79103 0.1305 0.46518 0.0
C416 C 0.85315 0.15479 0.45618 0.0
C417 C 0.8669 0.17643 0.461 0.0
C418 C 0.87322 0.18351 0.48652 0.0
C419 C 0.88819 0.20286 0.49102 0.0
C420 C 0.89718 0.21497 0.46954 0.0
C421 C 0.89109 0.20836 0.44376 0.0
C422 C 0.87545 0.18913 0.43981 0.0
H423 H 0.04321 0.54223 0.19523 0.0
H424 H 0.0373 0.54793 0.2776 0.0
H425 H 0.02832 0.58404 0.22315 0.0
H426 H 0.06159 0.53434 0.23009 0.0
H427 H 0.05414 0.53216 0.26317 0.0
H428 H 0.02593 0.51064 0.19935 0.0
H429 H 0.01331 0.45295 0.2188 0.0
H430 H 0.04357 0.49978 0.27401 0.0
C431 C 0.03905 0.54829 0.21122 0.0
C432 C 0.03364 0.56239 0.20602 0.0
C433 C 0.03985 0.54251 0.23696 0.0
C434 C 0.03606 0.55182 0.25773 0.0
C435 C 0.03219 0.56711 0.25307 0.0
C436 C 0.03057 0.57187 0.22711 0.0
C437 C 0.0486 0.52961 0.24268 0.0
C438 C 0.03527 0.50777 0.23787 0.0
C439 C 0.02624 0.50073 0.21336 0.0
C440 C 0.01885 0.48112 0.20584 0.0
C441 C 0.01897 0.46808 0.22424 0.0
C442 C 0.02766 0.47453 0.249 0.0
C443 C 0.03575 0.49442 0.25565 0.0
H444 H 0.52689 0.52046 0.20878 0.0
H445 H 0.53768 0.53394 0.29116 0.0
H446 H 0.56497 0.57929 0.23418 0.0
H447 H 0.52714 0.49639 0.24842 0.0
H448 H 0.51925 0.5008 0.27867 0.0
H449 H 0.50603 0.48865 0.20777 0.0
H450 H 0.44461 0.45812 0.22224 0.0
H451 H 0.48512 0.48778 0.28543 0.0
C452 C 0.5331 0.53086 0.22465 0.0
C453 C 0.54587 0.55054 0.21866 0.0
C454 C 0.52967 0.5246 0.25085 0.0
C455 C 0.53933 0.53856 0.27099 0.0
C456 C 0.55237 0.55825 0.265 0.0
C457 C 0.55508 0.56407 0.23889 0.0
C458 C 0.51891 0.50293 0.25726 0.0
C459 C 0.49797 0.49155 0.24719 0.0
C460 C 0.49411 0.48527 0.22092 0.0
C461 C 0.47486 0.47364 0.2118 0.0
C462 C 0.45943 0.46762 0.22927 0.0
C463 C 0.46294 0.47169 0.25608 0.0
C464 C 0.48221 0.48451 0.26478 0.0
H465 H 0.50159 0.97488 0.1912 0.0
H466 H 0.51121 0.9693 0.27266 0.0
H467 H 0.55901 0.99106 0.21903 0.0
H468 H 0.47483 0.95141 0.2209 0.0
H469 H 0.47875 0.9532 0.25524 0.0
H470 H 0.48178 0.98659 0.19928 0.0
H471 H 0.44124 0.99968 0.23566 0.0
H472 H 0.46032 0.96458 0.27608 0.0
C473 C 0.51151 0.97745 0.2073 0.0
C474 C 0.53136 0.98442 0.20217 0.0
C475 C 0.50417 0.97263 0.23283 0.0
C476 C 0.51696 0.97426 0.2533 0.0
C477 C 0.53671 0.98047 0.24828 0.0
C478 C 0.54383 0.98629 0.22293 0.0
C479 C 0.48224 0.96203 0.23716 0.0
C480 C 0.4733 0.97513 0.23833 0.0
C481 C 0.47365 0.98602 0.21641 0.0
C482 C 0.46259 0.99541 0.21585 0.0
C483 C 0.45082 0.99361 0.23716 0.0
C484 C 0.44963 0.98235 0.25891 0.0
C485 C 0.46132 0.97354 0.25958 0.0
H486 H 0.48869 0.98842 0.82504 0.0
H487 H 0.48351 1.00148 0.74494 0.0
H488 H 0.45638 0.01681 0.80585 0.0
H489 H 0.49283 0.97035 0.78533 0.0
H490 H 0.49743 0.98167 0.75423 0.0
H491 H 0.51696 0.98997 0.82378 0.0
H492 H 0.57628 0.01726 0.79935 0.0
H493 H 0.53062 1.00245 0.74224 0.0
C494 C 0.48414 0.9953 0.81068 0.0
C495 C 0.47273 0.00337 0.81869 0.0
C496 C 0.48888 0.99532 0.78421 0.0
C497 C 0.48107 0.00261 0.76549 0.0
C498 C 0.46883 0.00988 0.77313 0.0
C499 C 0.46559 0.01101 0.79982 0.0
C500 C 0.49953 0.9848 0.77556 0.0
C501 C 0.52119 0.99573 0.78231 0.0
C502 C 0.52745 0.99652 0.8083 0.0
C503 C 0.54731 0.00461 0.81439 0.0
C504 C 0.56103 0.01173 0.7944 0.0
C505 C 0.55531 0.01116 0.76826 0.0
C506 C 0.53529 0.00327 0.76236 0.0
H507 H 0.03113 0.50839 0.81718 0.0
H508 H 0.01119 0.48645 0.73912 0.0
H509 H 1.00231 0.44693 0.8017 0.0
H510 H 0.04492 0.5292 0.77643 0.0
H511 H 0.03222 0.52076 0.74611 0.0
H512 H 0.02289 0.53117 0.81599 0.0
H513 H 0.99941 0.56648 0.79017 0.0
H514 H 0.01446 0.53596 0.73358 0.0
C515 C 0.02296 0.49632 0.8038 0.0
C516 C 0.01583 0.47721 0.81274 0.0
C517 C 0.02044 0.49984 0.77749 0.0
C518 C 0.01185 0.48387 0.75977 0.0
C519 C 0.00584 0.46482 0.76838 0.0
C520 C 0.00698 0.46162 0.79502 0.0
C521 C 0.03006 0.52067 0.76756 0.0
C522 C 0.01912 0.53138 0.77402 0.0
C523 C 0.01755 0.53618 0.80011 0.0
C524 C 0.01029 0.54869 0.80584 0.0
C525 C 0.00444 0.55636 0.78548 0.0
C526 C 0.00563 0.55173 0.75933 0.0
C527 C 0.01299 0.5392 0.75373 0.0
H528 H 0.51241 0.48223 0.8342 0.0
H529 H 0.49905 0.46907 0.75256 0.0
H530 H 0.45369 0.44231 0.8097 0.0
H531 H 0.53815 0.4881 0.80009 0.0
H532 H 0.53227 0.48749 0.76633 0.0
H533 H 0.5323 0.51326 0.82916 0.0
H534 H 0.56041 0.56965 0.79372 0.0
H535 H 0.54882 0.51903 0.74869 0.0
C536 C 0.50179 0.47551 0.8186 0.0
C537 C 0.48217 0.46276 0.82495 0.0
C538 C 0.50788 0.47882 0.7924 0.0
C539 C 0.4942 0.46789 0.77255 0.0
C540 C 0.47475 0.45413 0.77881 0.0
C541 C 0.46872 0.45267 0.80483 0.0
C542 C 0.52944 0.49141 0.78605 0.0
C543 C 0.53695 0.51324 0.78772 0.0
C544 C 0.53738 0.52206 0.81188 0.0
C545 C 0.54616 0.54244 0.81445 0.0
C546 C 0.55406 0.55394 0.79224 0.0
C547 C 0.55635 0.54586 0.76907 0.0
C548 C 0.547 0.5254 0.76646 0.0
H549 H 0.69731 0.86593 0.5372 0.0
H550 H 0.71547 0.89159 0.61403 0.0
H551 H 0.67625 0.90216 0.56785 0.0
H552 H 0.7331 0.87758 0.56455 0.0
H553 H 0.72883 0.87307 0.59833 0.0
H554 H 0.71404 0.85069 0.53164 0.0
H555 H 0.70104 0.79431 0.5585 0.0
H556 H 0.71316 0.84003 0.61405 0.0
C557 C 0.69616 0.8739 0.55357 0.0
C558 C 0.68491 0.88296 0.5505 0.0
C559 C 0.70665 0.87615 0.57697 0.0
C560 C 0.70629 0.88842 0.59683 0.0
C561 C 0.69569 0.89818 0.59341 0.0
C562 C 0.68435 0.89457 0.57073 0.0
C563 C 0.72138 0.86918 0.57892 0.0
C564 C 0.71329 0.84755 0.57349 0.0
C565 C 0.71102 0.84069 0.54759 0.0
C566 C 0.70582 0.82126 0.54209 0.0
C567 C 0.70354 0.80882 0.56283 0.0
C568 C 0.70626 0.81535 0.58887 0.0
C569 C 0.71074 0.8347 0.59409 0.0
H570 H 0.19306 0.84985 0.54408 0.0
H571 H 0.19669 0.87477 0.6203 0.0
H572 H 0.2254 0.91181 0.55488 0.0
H573 H 0.18664 0.83073 0.58666 0.0
H574 H 0.18263 0.84035 0.61593 0.0
H575 H 0.16222 0.82792 0.54623 0.0
H576 H 0.10364 0.79222 0.5721 0.0
H577 H 0.14967 0.82408 0.62846 0.0
C578 C 0.19697 0.8624 0.55648 0.0
C579 C 0.20854 0.88113 0.54613 0.0
C580 C 0.19143 0.85991 0.58294 0.0
C581 C 0.19931 0.87655 0.59948 0.0
C582 C 0.21218 0.89523 0.58956 0.0
C583 C 0.21562 0.89741 0.56266 0.0
C584 C 0.18034 0.83951 0.59441 0.0
C585 C 0.15856 0.82837 0.58804 0.0
C586 C 0.15198 0.82308 0.56207 0.0
C587 C 0.13219 0.81026 0.55633 0.0
C588 C 0.1188 0.80261 0.57672 0.0
C589 C 0.12482 0.80754 0.60286 0.0
C590 C 0.14478 0.82054 0.60835 0.0
H591 H 0.18159 0.32733 0.52541 0.0
H592 H 0.18861 0.31025 0.60262 0.0
H593 H 0.23893 0.34853 0.55735 0.0
H594 H 0.157 0.29272 0.55193 0.0
H595 H 0.15682 0.29686 0.58589 0.0
H596 H 0.14811 0.31046 0.51982 0.0
H597 H 0.10688 0.32572 0.54867 0.0
H598 H 0.14399 0.31701 0.60238 0.0
C599 C 0.19077 0.32877 0.54197 0.0
C600 C 0.21114 0.33972 0.53927 0.0
C601 C 0.18241 0.31874 0.56529 0.0
C602 C 0.19486 0.3192 0.58551 0.0
C603 C 0.21528 0.32957 0.58255 0.0
C604 C 0.2232 0.34058 0.55991 0.0
C605 C 0.16065 0.30441 0.56674 0.0
C606 C 0.14783 0.31327 0.56167 0.0
C607 C 0.14206 0.31443 0.53604 0.0
C608 C 0.12787 0.31977 0.53129 0.0
C609 C 0.11904 0.32341 0.55255 0.0
C610 C 0.12447 0.32236 0.57846 0.0
C611 C 0.13946 0.31791 0.5827 0.0
H612 H 0.99018 0.40263 0.09302 0.0
H613 H 0.03093 0.45062 0.04465 0.0
H614 H 0.03257 0.47419 0.07749 0.0
H615 H 0.96501 0.42827 0.12122 0.0
H616 H 0.96296 0.41755 0.15286 0.0
H617 H 0.96232 0.40431 0.12376 0.0
H618 H 0.99106 0.40078 0.14187 0.0
H619 H 0.99177 0.41395 0.17093 0.0
H620 H 0.01347 0.4224 0.1516 0.0
H621 H 0.03421 0.49212 0.11752 0.0
H622 H 0.03631 0.5034 0.16247 0.0
H623 H 0.99236 0.44457 0.18512 0.0
C624 C 0.99903 0.41811 0.08911 0.0
C625 C 0.01038 0.42482 0.06628 0.0
C626 C 0.02211 0.44516 0.06202 0.0
C627 C 0.02303 0.45868 0.08047 0.0
C628 C 0.01202 0.45166 0.10302 0.0
C629 C 1.00014 0.43187 0.10743 0.0
C630 C 0.99143 0.42828 0.13452 0.0
C631 C 0.9691 0.41906 0.13299 0.0
C632 C 0.99729 0.41561 0.15067 0.0
C633 C 1.00106 0.44907 0.145 0.0
C634 C 0.01262 0.4623 0.12633 0.0
C635 C 0.02476 0.48202 0.13214 0.0
C636 C 0.02568 0.48834 0.15793 0.0
C637 C 0.0144 0.47501 0.17778 0.0
C638 C 1.00132 0.45524 0.17073 0.0
H639 H 0.61967 0.61166 0.10551 0.0
H640 H 0.56929 0.60084 0.05859 0.0
H641 H 0.54733 0.58025 0.09355 0.0
H642 H 0.59874 0.56394 0.13444 0.0
H643 H 0.60993 0.57317 0.16597 0.0
H644 H 0.62171 0.58656 0.13693 0.0
H645 H 0.62247 0.61737 0.15595 0.0
H646 H 0.61086 0.60411 0.18512 0.0
H647 H 0.60004 0.61572 0.16674 0.0
H648 H 0.53077 0.56036 0.1337 0.0
H649 H 0.52126 0.54572 0.17774 0.0
H650 H 0.58245 0.57057 0.19854 0.0
C651 C 0.60402 0.60494 0.10262 0.0
C652 C 0.59617 0.60779 0.07935 0.0
C653 C 0.57562 0.59889 0.07633 0.0
C654 C 0.56302 0.58708 0.096 0.0
C655 C 0.57121 0.58442 0.11865 0.0
C656 C 0.59124 0.59331 0.12219 0.0
C657 C 0.59633 0.58881 0.1488 0.0
C658 C 0.60732 0.57744 0.14638 0.0
C659 C 0.60812 0.60762 0.16511 0.0
C660 C 0.57606 0.57609 0.15969 0.0
C661 C 0.56173 0.57349 0.14193 0.0
C662 C 0.54188 0.56232 0.14779 0.0
C663 C 0.53659 0.55398 0.17271 0.0
C664 C 0.55113 0.55714 0.19141 0.0
C665 C 0.57106 0.56805 0.18458 0.0
H666 H 0.41999 0.99215 0.07451 0.0
H667 H 0.42243 0.04672 0.09436 0.0
H668 H 0.44105 0.04926 0.13455 0.0
H669 H 0.41128 0.97348 0.1377 0.0
H670 H 0.42568 0.96172 0.13481 0.0
H671 H 0.41476 0.96551 0.10619 0.0
H672 H 0.44884 0.98408 0.08461 0.0
H673 H 0.45989 0.98047 0.11335 0.0
H674 H 0.46857 0.0048 0.10123 0.0
H675 H 0.45658 0.04438 0.17429 0.0
H676 H 0.4662 0.03145 0.21188 0.0
H677 H 0.45359 0.98002 0.16645 0.0
C678 C 0.42474 0.00481 0.08709 0.0
C679 C 0.41988 0.01931 0.08128 0.0
C680 C 0.42605 0.03547 0.09843 0.0
C681 C 0.43673 0.0371 0.12121 0.0
C682 C 0.44115 0.02246 0.12651 0.0
C683 C 0.43532 0.0066 0.10997 0.0
C684 C 0.44044 0.99204 0.12129 0.0
C685 C 0.42194 0.97201 0.12524 0.0
C686 C 0.45532 0.99025 0.10409 0.0
C687 C 0.44954 1.00191 0.14712 0.0
C688 C 0.45009 0.0196 0.14956 0.0
C689 C 0.45651 0.03071 0.17245 0.0
C690 C 0.46196 0.02329 0.19367 0.0
C691 C 0.46088 0.0049 0.19188 0.0
C692 C 0.45509 0.99436 0.16807 0.0
H693 H 0.42912 0.03299 0.93828 0.0
H694 H 0.40746 0.97436 0.96768 0.0
H695 H 0.42539 0.96815 0.93319 0.0
H696 H 0.42434 0.02014 0.87155 0.0
H697 H 0.44608 0.04209 0.86167 0.0
H698 H 0.433 0.04247 0.89006 0.0
H699 H 0.46466 0.05559 0.91796 0.0
H700 H 0.47782 0.05512 0.88962 0.0
H701 H 0.47756 0.04219 0.91864 0.0
H702 H 0.44382 0.96754 0.89391 0.0
H703 H 0.45969 0.97189 0.85122 0.0
H704 H 0.46988 0.0311 0.8477 0.0
C705 C 0.42835 0.01893 0.93763 0.0
C706 C 0.41698 0.00418 0.95569 0.0
C707 C 0.41611 0.98588 0.95403 0.0
C708 C 0.42632 0.98225 0.9346 0.0
C709 C 0.43735 0.99708 0.91702 0.0
C710 C 0.43838 0.01503 0.91828 0.0
C711 C 0.4502 0.028 0.89597 0.0
C712 C 0.43765 0.03349 0.8788 0.0
C713 C 0.46866 0.04631 0.90616 0.0
C714 C 0.4553 0.01438 0.88168 0.0
C715 C 0.44797 0.99671 0.8943 0.0
C716 C 0.44988 0.98142 0.88402 0.0
C717 C 0.45907 0.98408 0.85983 0.0
C718 C 0.46615 1.00187 0.84615 0.0
C719 C 0.46463 0.01733 0.85767 0.0
H720 H 0.99186 0.40918 0.93617 0.0
H721 H 0.05427 0.43845 0.95172 0.0
H722 H 0.05985 0.46193 0.91647 0.0
H723 H 0.99579 0.41255 0.86708 0.0
H724 H 0.97512 0.41606 0.86273 0.0
H725 H 0.97619 0.40266 0.89036 0.0
H726 H 0.97192 0.42624 0.92134 0.0
H727 H 0.97115 0.4399 0.89375 0.0
H728 H 0.9888 0.45216 0.91959 0.0
H729 H 0.05859 0.48177 0.87885 0.0
H730 H 0.05103 0.49363 0.83825 0.0
H731 H 0.98962 0.45076 0.84676 0.0
C732 C 0.00669 0.4206 0.93223 0.0
C733 C 0.02264 0.42211 0.94669 0.0
C734 C 0.04186 0.43705 0.94078 0.0
C735 C 0.04515 0.45054 0.92097 0.0
C736 C 0.02907 0.44877 0.90721 0.0
C737 C 0.01025 0.434 0.91235 0.0
C738 C 0.99564 0.43439 0.8935 0.0
C739 C 0.98507 0.41528 0.87747 0.0
C740 C 0.98102 0.43841 0.90791 0.0
C741 C 0.0092 0.45152 0.87672 0.0
C742 C 0.02839 0.45987 0.88521 0.0
C743 C 0.04361 0.47546 0.87214 0.0
C744 C 0.03918 0.48222 0.84926 0.0
C745 C 0.01975 0.4732 0.83962 0.0
C746 C 0.00457 0.45802 0.85393 0.0
H747 H 0.61459 0.61915 0.92307 0.0
H748 H 0.57172 0.58293 0.98047 0.0
H749 H 0.54963 0.56185 0.94513 0.0
H750 H 0.58072 0.61534 0.8715 0.0
H751 H 0.59539 0.61373 0.8459 0.0
H752 H 0.60689 0.62709 0.87549 0.0
H753 H 0.62307 0.60589 0.8825 0.0
H754 H 0.61174 0.59265 0.85284 0.0
H755 H 0.60792 0.57964 0.88304 0.0
H756 H 0.53255 0.54425 0.90322 0.0
H757 H 0.52329 0.52999 0.85879 0.0
H758 H 0.57902 0.57628 0.83022 0.0
C759 C 0.60042 0.60695 0.92811 0.0
C760 C 0.5947 0.60272 0.95435 0.0
C761 C 0.57629 0.58639 0.96037 0.0
C762 C 0.56362 0.57441 0.94046 0.0
C763 C 0.56972 0.57887 0.91471 0.0
C764 C 0.58779 0.59462 0.90853 0.0
C765 C 0.59161 0.59526 0.87959 0.0
C766 C 0.59378 0.61397 0.86741 0.0
C767 C 0.60964 0.59323 0.87419 0.0
C768 C 0.57295 0.57736 0.8705 0.0
C769 C 0.56034 0.56826 0.89088 0.0
C770 C 0.54233 0.55126 0.88708 0.0
C771 C 0.53724 0.5432 0.86179 0.0
C772 C 0.55027 0.55199 0.84072 0.0
C773 C 0.5683 0.56938 0.84542 0.0
H774 H 0.02385 0.62491 0.91775 0.0
H775 H 0.98281 0.57547 0.96379 0.0
H776 H 0.98165 0.55285 0.92951 0.0
H777 H 1.00092 0.60471 0.85593 0.0
H778 H 0.02362 0.61491 0.83844 0.0
H779 H 0.02191 0.62708 0.86723 0.0
H780 H 0.05136 0.62591 0.88774 0.0
H781 H 0.05301 0.61355 0.85908 0.0
H782 H 0.05038 0.60273 0.89078 0.0
H783 H 0.98521 0.53551 0.89024 0.0
H784 H 0.99035 0.52509 0.84667 0.0
H785 H 0.02769 0.58576 0.82561 0.0
C786 C 0.01466 0.60932 0.92061 0.0
C787 C 1.00348 0.60193 0.94345 0.0
C788 C 0.99147 0.58145 0.94639 0.0
C789 C 0.99081 0.56848 0.92712 0.0
C790 C 1.00211 0.57621 0.9049 0.0
C791 C 0.01361 0.59616 0.90138 0.0
C792 C 0.02354 0.60071 0.87511 0.0
C793 C 0.01711 0.61255 0.85818 0.0
C794 C 0.0459 0.61135 0.87839 0.0
C795 C 0.0157 0.58023 0.86432 0.0
C796 C 1.00362 0.56627 0.88196 0.0
C797 C 0.99463 0.54631 0.87626 0.0
C798 C 0.9977 0.54051 0.85161 0.0
C799 C 0.00938 0.55464 0.83298 0.0
C800 C 0.01869 0.5747 0.83961 0.0
H801 H 0.4026 0.41674 0.93687 0.0
H802 H 0.4429 0.40329 0.97688 0.0
H803 H 0.4683 0.42253 0.94468 0.0
H804 H 0.41631 0.4115 0.87329 0.0
H805 H 0.41378 0.43099 0.85931 0.0
H806 H 0.39944 0.41802 0.88714 0.0
H807 H 0.41295 0.4508 0.91249 0.0
H808 H 0.42746 0.46385 0.88473 0.0
H809 H 0.439 0.46657 0.91613 0.0
H810 H 0.48856 0.44111 0.90693 0.0
H811 H 0.5014 0.45544 0.86392 0.0
H812 H 0.4483 0.45709 0.84772 0.0
C813 C 0.41687 0.41811 0.93899 0.0
C814 C 0.42084 0.40863 0.95941 0.0
C815 C 0.43955 0.41043 0.96135 0.0
C816 C 0.45413 0.42145 0.94328 0.0
C817 C 0.44977 0.43054 0.92328 0.0
C818 C 0.43158 0.4289 0.92087 0.0
C819 C 0.43025 0.43874 0.89623 0.0
C820 C 0.41398 0.42393 0.87792 0.0
C821 C 0.42724 0.45602 0.9028 0.0
C822 C 0.45035 0.44572 0.88496 0.0
C823 C 0.46148 0.44113 0.90112 0.0
C824 C 0.48012 0.44506 0.89425 0.0
C825 C 0.48737 0.45337 0.86983 0.0
C826 C 0.47595 0.45755 0.85248 0.0
C827 C 0.45741 0.45412 0.86057 0.0
H828 H 0.6125 0.99458 0.92535 0.0
H829 H 0.59814 0.03003 0.97505 0.0
H830 H 0.57597 0.02998 0.94076 0.0
H831 H 0.61416 0.01917 0.86614 0.0
H832 H 0.6041 0.99735 0.84622 0.0
H833 H 0.61784 0.99926 0.87532 0.0
H834 H 0.58854 0.96714 0.8924 0.0
H835 H 0.57464 0.96524 0.86342 0.0
H836 H 0.56491 0.96519 0.89516 0.0
H837 H 0.55519 0.02585 0.90102 0.0
H838 H 0.54039 0.02116 0.85684 0.0
H839 H 0.56973 0.98994 0.83265 0.0
C840 C 0.60461 1.00225 0.92901 0.0
C841 C 0.6069 0.01222 0.95282 0.0
C842 C 0.59658 0.02233 0.95686 0.0
C843 C 0.58388 0.02228 0.9376 0.0
C844 C 0.58185 0.01222 0.91434 0.0
C845 C 0.59214 0.00262 0.90983 0.0
C846 C 0.58829 0.99395 0.88259 0.0
C847 C 0.60722 0.00298 0.86663 0.0
C848 C 0.57851 0.97155 0.88346 0.0
C849 C 0.57429 1.00023 0.87245 0.0
C850 C 0.5705 0.01048 0.89117 0.0
C851 C 0.55806 0.01785 0.88619 0.0
C852 C 0.54965 0.01505 0.86119 0.0
C853 C 0.55401 0.00526 0.84154 0.0
C854 C 0.56623 0.99752 0.84741 0.0
H855 H 0.61575 0.02168 0.09662 0.0
H856 H 0.57433 0.97425 0.04661 0.0
H857 H 0.54806 0.96695 0.07793 0.0
H858 H 0.59751 0.99735 0.15619 0.0
H859 H 0.60131 0.01868 0.17403 0.0
H860 H 0.61652 0.02131 0.14661 0.0
H861 H 0.60705 0.04503 0.12503 0.0
H862 H 0.5917 0.04237 0.15238 0.0
H863 H 0.5816 0.03725 0.11975 0.0
H864 H 0.52694 0.96298 0.11599 0.0
H865 H 0.51276 0.96174 0.15902 0.0
H866 H 0.56724 0.01264 0.18393 0.0
C867 C 0.6011 0.00991 0.09216 0.0
C868 C 0.59707 0.99855 0.06916 0.0
C869 C 0.57776 0.98315 0.0641 0.0
C870 C 0.56271 0.97895 0.08171 0.0
C871 C 0.56714 0.99033 0.10425 0.0
C872 C 0.58585 0.0055 0.10956 0.0
C873 C 0.5869 0.01469 0.13597 0.0
C874 C 0.60141 0.01289 0.15427 0.0
C875 C 0.59212 0.03611 0.1331 0.0
C876 C 0.56599 1.00199 0.14489 0.0
C877 C 0.5548 0.98817 0.12619 0.0
C878 C 0.53544 0.97395 0.13064 0.0
C879 C 0.52744 0.97349 0.15515 0.0
C880 C 0.53878 0.98718 0.17495 0.0
C881 C 0.55815 1.00193 0.16931 0.0
H882 H 0.99663 0.60564 0.09249 0.0
H883 H 0.04259 0.60782 0.04425 0.0
H884 H 0.05138 0.59229 0.07926 0.0
H885 H 0.02283 0.61702 0.15258 0.0
H886 H 1.00205 0.60071 0.1719 0.0
H887 H 0.99855 0.61104 0.14252 0.0
H888 H 0.97452 0.57628 0.12469 0.0
H889 H 0.97791 0.56584 0.15407 0.0
H890 H 0.98233 0.55847 0.12271 0.0
H891 H 0.0566 0.57841 0.12035 0.0
H892 H 0.05762 0.56683 0.16459 0.0
H893 H 0.00741 0.57221 0.18578 0.0
C894 C 0.0084 0.60266 0.08922 0.0
C895 C 0.01891 0.60793 0.06561 0.0
C896 C 0.03431 0.6039 0.06215 0.0
C897 C 0.03942 0.59506 0.08192 0.0
C898 C 0.02892 0.5902 0.10505 0.0
C899 C 0.01368 0.59376 0.10879 0.0
C900 C 0.00516 0.58758 0.13582 0.0
C901 C 0.00728 0.60514 0.15163 0.0
C902 C 0.98371 0.57106 0.13422 0.0
C903 C 0.01819 0.5803 0.14675 0.0
C904 C 0.03176 0.58189 0.12866 0.0
C905 C 0.04587 0.57683 0.1346 0.0
C906 C 0.04623 0.57011 0.15978 0.0
C907 C 0.03251 0.56841 0.17878 0.0
C908 C 0.0182 0.57342 0.17187 0.0
H909 H 0.40597 0.42679 0.0876 0.0
H910 H 0.42989 0.3882 0.08144 0.0
H911 H 0.45427 0.40729 0.11588 0.0
H912 H 0.45121 0.47204 0.10211 0.0
H913 H 0.44013 0.48027 0.12581 0.0
H914 H 0.42573 0.46479 0.099 0.0
H915 H 0.40076 0.43977 0.13144 0.0
H916 H 0.4149 0.45534 0.15825 0.0
H917 H 0.40928 0.43027 0.15707 0.0
H918 H 0.47572 0.43028 0.15124 0.0
H919 H 0.48896 0.45182 0.19009 0.0
H920 H 0.44968 0.47405 0.1753 0.0
C921 C 0.41645 0.42249 0.09343 0.0
C922 C 0.41624 0.40617 0.08184 0.0
C923 C 0.42986 0.40067 0.09021 0.0
C924 C 0.44386 0.41153 0.10953 0.0
C925 C 0.44382 0.42766 0.1205 0.0
C926 C 0.43021 0.43288 0.11315 0.0
C927 C 0.43206 0.4496 0.12982 0.0
C928 C 0.43762 0.46775 0.11318 0.0
C929 C 0.41313 0.44336 0.14505 0.0
C930 C 0.44871 0.45285 0.14782 0.0
C931 C 0.45559 0.44036 0.14172 0.0
C932 C 0.47054 0.44022 0.15612 0.0
C933 C 0.4781 0.45262 0.17798 0.0
C934 C 0.47047 0.4647 0.1854 0.0
C935 C 0.45594 0.46514 0.16974 0.0
H936 H 0.67102 0.73977 0.43048 0.0
H937 H 0.71822 0.78286 0.38317 0.0
H938 H 0.72578 0.80797 0.41705 0.0
H939 H 0.65546 0.77278 0.4571 0.0
H940 H 0.6503 0.76161 0.48883 0.0
H941 H 0.6478 0.74723 0.46016 0.0
H942 H 0.67158 0.73724 0.4805 0.0
H943 H 0.67411 0.75154 0.50921 0.0
H944 H 0.6955 0.75599 0.49135 0.0
H945 H 0.72956 0.82787 0.4571 0.0
H946 H 0.72975 0.84092 0.50097 0.0
H947 H 0.67935 0.78529 0.52168 0.0
C948 C 0.68283 0.75454 0.42717 0.0
C949 C 0.69402 0.75939 0.4042 0.0
C950 C 0.70945 0.77883 0.40063 0.0
C951 C 0.71381 0.79321 0.41972 0.0
C952 C 0.70256 0.78795 0.44221 0.0
C953 C 0.68737 0.7691 0.44603 0.0
C954 C 0.67809 0.76712 0.47243 0.0
C955 C 0.65664 0.76188 0.46944 0.0
C956 C 0.67994 0.75208 0.48937 0.0
C957 C 0.69069 0.78769 0.48302 0.0
C958 C 0.70462 0.79951 0.46522 0.0
C959 C 0.71854 0.81884 0.4711 0.0
C960 C 0.71843 0.82618 0.49603 0.0
C961 C 0.70449 0.8142 0.51478 0.0
C962 C 0.69024 0.79482 0.50785 0.0
H963 H 0.2481 0.94254 0.41616 0.0
H964 H 0.28557 0.91742 0.40869 0.0
H965 H 0.26833 0.89503 0.44512 0.0
H966 H 0.24895 0.94326 0.48535 0.0
H967 H 0.22411 0.93805 0.48859 0.0
H968 H 0.23785 0.95035 0.46005 0.0
H969 H 0.21062 0.9236 0.43076 0.0
H970 H 0.19693 0.91108 0.45931 0.0
H971 H 0.20336 0.89831 0.43575 0.0
H972 H 0.24772 0.87606 0.48302 0.0
H973 H 0.22884 0.86551 0.52392 0.0
H974 H 0.20636 0.90448 0.50871 0.0
C975 C 0.25247 0.93214 0.42206 0.0
C976 C 0.26798 0.93149 0.40957 0.0
C977 C 0.27368 0.91807 0.41809 0.0
C978 C 0.26387 0.9052 0.43857 0.0
C979 C 0.24858 0.90615 0.45052 0.0
C980 C 0.24314 0.91951 0.4429 0.0
C981 C 0.22769 0.91896 0.46076 0.0
C982 C 0.2351 0.93883 0.4745 0.0
C983 C 0.20851 0.9126 0.44574 0.0
C984 C 0.2255 0.9034 0.4798 0.0
C985 C 0.23732 0.89585 0.47317 0.0
C986 C 0.23829 0.88175 0.48832 0.0
C987 C 0.22742 0.87572 0.51137 0.0
C988 C 0.21604 0.88405 0.51919 0.0
C989 C 0.21476 0.89772 0.50289 0.0
H990 H 0.07872 0.35142 0.41943 0.0
H991 H 0.06769 0.29909 0.37727 0.0
H992 H 0.08633 0.29268 0.41059 0.0
H993 H 0.12816 0.36566 0.44283 0.0
H994 H 0.12463 0.37367 0.47426 0.0
H995 H 0.11179 0.37518 0.44598 0.0
H996 H 0.07877 0.35468 0.46958 0.0
H997 H 0.0915 0.35315 0.4979 0.0
H998 H 0.07258 0.33113 0.48255 0.0
H999 H 0.10452 0.29081 0.44935 0.0
H1000 H 0.11968 0.29278 0.49231 0.0
H1001 H 0.11905 0.34621 0.50978 0.0
C1002 C 0.08046 0.33877 0.4171 0.0
C1003 C 0.07184 0.32579 0.39573 0.0
C1004 C 0.07417 0.30922 0.3935 0.0
C1005 C 0.08482 0.30549 0.41226 0.0
C1006 C 0.09301 0.31844 0.4332 0.0
C1007 C 0.09093 0.33471 0.43583 0.0
C1008 C 0.10018 0.34556 0.46111 0.0
C1009 C 0.1172 0.36625 0.45571 0.0
C1010 C 0.08484 0.34615 0.47883 0.0
C1011 C 0.10746 0.33266 0.47239 0.0
C1012 C 0.10338 0.31724 0.45582 0.0
C1013 C 0.10801 0.30295 0.46239 0.0
C1014 C 0.11675 0.30427 0.48678 0.0
C1015 C 0.12069 0.31971 0.50437 0.0
C1016 C 0.11622 0.33422 0.49678 0.0
H1017 H 0.08777 0.35981 0.2678 0.0
H1018 H 0.05657 0.29714 0.27984 0.0
H1019 H 0.07586 0.29324 0.24502 0.0
H1020 H 0.08819 0.35685 0.19863 0.0
H1021 H 0.11202 0.37822 0.19519 0.0
H1022 H 0.09709 0.37622 0.22268 0.0
H1023 H 0.12515 0.38144 0.25413 0.0
H1024 H 0.14012 0.3833 0.22669 0.0
H1025 H 0.13529 0.36555 0.25175 0.0
H1026 H 0.09792 0.29604 0.2082 0.0
H1027 H 0.11834 0.30486 0.16867 0.0
H1028 H 0.13405 0.36546 0.17918 0.0
C1029 C 0.08519 0.34531 0.26326 0.0
C1030 C 0.07083 0.32878 0.27658 0.0
C1031 C 0.06753 0.30998 0.26982 0.0
C1032 C 0.0785 0.30764 0.25022 0.0
C1033 C 0.09256 0.32423 0.2374 0.0
C1034 C 0.09576 0.34268 0.24339 0.0
C1035 C 0.11056 0.35787 0.22521 0.0
C1036 C 0.10142 0.36787 0.2095 0.0
C1037 C 0.12887 0.37293 0.24036 0.0
C1038 C 0.11503 0.34506 0.2079 0.0
C1039 C 0.10477 0.32576 0.21555 0.0
C1040 C 0.10612 0.31112 0.20211 0.0
C1041 C 0.11785 0.31628 0.17981 0.0
C1042 C 0.12783 0.33584 0.17104 0.0
C1043 C 0.12664 0.35042 0.18559 0.0
H1044 H 0.69578 0.74711 0.25927 0.0
H1045 H 0.65623 0.75555 0.30865 0.0
H1046 H 0.65418 0.77704 0.27535 0.0
H1047 H 0.72172 0.79573 0.23229 0.0
H1048 H 0.72328 0.78727 0.20016 0.0
H1049 H 0.72244 0.77343 0.22846 0.0
H1050 H 0.69227 0.74264 0.20907 0.0
H1051 H 0.69314 0.75633 0.18064 0.0
H1052 H 0.67103 0.74399 0.19937 0.0
H1053 H 0.65648 0.79765 0.23624 0.0
H1054 H 0.66013 0.81256 0.19254 0.0
H1055 H 0.697 0.78935 0.16874 0.0
C1056 C 0.68676 0.75355 0.2631 0.0
C1057 C 0.67623 0.74979 0.28651 0.0
C1058 C 0.66438 0.75826 0.29075 0.0
C1059 C 0.66323 0.77057 0.27205 0.0
C1060 C 0.6739 0.7741 0.24918 0.0
C1061 C 0.68523 0.76563 0.24452 0.0
C1062 C 0.69434 0.77079 0.21777 0.0
C1063 C 0.71678 0.7825 0.21981 0.0
C1064 C 0.68727 0.75234 0.20071 0.0
C1065 C 0.68627 0.78338 0.20804 0.0
C1066 C 0.67475 0.7854 0.22652 0.0
C1067 C 0.6655 0.79619 0.22163 0.0
C1068 C 0.6677 0.80468 0.19692 0.0
C1069 C 0.67881 0.80203 0.17753 0.0
C1070 C 0.68846 0.79157 0.18338 0.0
H1071 H 0.26121 0.91298 0.28082 0.0
H1072 H 0.25096 0.96181 0.27509 0.0
H1073 H 0.22985 0.94638 0.23627 0.0
H1074 H 0.26573 0.90736 0.21471 0.0
H1075 H 0.25366 0.88105 0.2151 0.0
H1076 H 0.26585 0.89487 0.244 0.0
H1077 H 0.23374 0.87532 0.26996 0.0
H1078 H 0.22138 0.86156 0.24094 0.0
H1079 H 0.21177 0.87461 0.25858 0.0
H1080 H 0.21354 0.92773 0.19496 0.0
H1081 H 0.20387 0.90768 0.15448 0.0
H1082 H 0.22363 0.87048 0.18845 0.0
C1083 C 0.25427 0.92028 0.27165 0.0
C1084 C 0.25769 0.93858 0.28091 0.0
C1085 C 0.24847 0.94774 0.26831 0.0
C1086 C 0.23639 0.93905 0.24635 0.0
C1087 C 0.23347 0.92106 0.23752 0.0
C1088 C 0.24206 0.91173 0.24991 0.0
C1089 C 0.23783 0.89325 0.23553 0.0
C1090 C 0.2569 0.89421 0.22681 0.0
C1091 C 0.22544 0.87511 0.25226 0.0
C1092 C 0.22618 0.89402 0.2125 0.0
C1093 C 0.22359 0.91004 0.21412 0.0
C1094 C 0.21504 0.91489 0.19378 0.0
C1095 C 0.20956 0.90343 0.17092 0.0
C1096 C 0.2126 0.88732 0.16869 0.0
C1097 C 0.22047 0.88227 0.19006 0.0
H1098 H 0.65387 0.92236 0.27824 0.0
H1099 H 0.71416 0.95033 0.30499 0.0
H1100 H 0.72208 0.93531 0.26807 0.0
H1101 H 0.64998 0.87702 0.25394 0.0
H1102 H 0.6353 0.87565 0.22608 0.0
H1103 H 0.63406 0.88715 0.25588 0.0
H1104 H 0.64277 0.91875 0.2305 0.0
H1105 H 0.64398 0.90734 0.20067 0.0
H1106 H 0.66466 0.93021 0.2112 0.0
H1107 H 0.7236 0.91822 0.22701 0.0
H1108 H 0.71908 0.90253 0.18359 0.0
H1109 H 0.65805 0.88669 0.18345 0.0
C1110 C 0.66867 0.92509 0.27653 0.0
C1111 C 0.68338 0.93735 0.29454 0.0
C1112 C 0.70267 0.94091 0.29141 0.0
C1113 C 0.70728 0.93239 0.27058 0.0
C1114 C 0.69244 0.92044 0.25304 0.0
C1115 C 0.67356 0.91691 0.25573 0.0
C1116 C 0.66061 0.90472 0.23325 0.0
C1117 C 0.64401 0.88496 0.24287 0.0
C1118 C 0.65254 0.91593 0.21801 0.0
C1119 C 0.6752 0.90216 0.21729 0.0
C1120 C 0.69342 0.91107 0.22917 0.0
C1121 C 0.70936 0.91108 0.21762 0.0
C1122 C 0.70665 0.90206 0.19307 0.0
C1123 C 0.68823 0.8934 0.18028 0.0
C1124 C 0.6723 0.89322 0.19282 0.0
H1125 H 0.0722 0.75285 0.26769 0.0
H1126 H 0.11527 0.7465 0.31288 0.0
H1127 H 0.13991 0.76423 0.27911 0.0
H1128 H 0.08658 0.74483 0.20595 0.0
H1129 H 0.08247 0.76241 0.1891 0.0
H1130 H 0.06863 0.75059 0.2178 0.0
H1131 H 0.08017 0.78443 0.2393 0.0
H1132 H 0.09412 0.79636 0.21065 0.0
H1133 H 0.10597 0.80175 0.24223 0.0
H1134 H 0.15918 0.78044 0.23922 0.0
H1135 H 0.17131 0.7929 0.19522 0.0
H1136 H 0.11628 0.78999 0.17641 0.0
C1137 C 0.08688 0.75538 0.27058 0.0
C1138 C 0.09184 0.74833 0.29292 0.0
C1139 C 0.11115 0.75177 0.29592 0.0
C1140 C 0.12528 0.76191 0.2769 0.0
C1141 C 0.11992 0.76861 0.25505 0.0
C1142 C 0.1012 0.76549 0.25176 0.0
C1143 C 0.09899 0.7733 0.22578 0.0
C1144 C 0.08324 0.7568 0.20865 0.0
C1145 C 0.09455 0.78995 0.22974 0.0
C1146 C 0.11925 0.78085 0.21478 0.0
C1147 C 0.13115 0.77817 0.23207 0.0
C1148 C 0.15011 0.78291 0.22564 0.0
C1149 C 0.15695 0.79015 0.20063 0.0
C1150 C 0.14484 0.79257 0.18231 0.0
C1151 C 0.12591 0.78828 0.18988 0.0
H1152 H 0.28264 0.36504 0.27106 0.0
H1153 H 0.24521 0.30506 0.29534 0.0
H1154 H 0.22214 0.30006 0.25932 0.0
H1155 H 0.24391 0.37453 0.25012 0.0
H1156 H 0.25755 0.38886 0.22255 0.0
H1157 H 0.27025 0.38816 0.25149 0.0
H1158 H 0.28997 0.37663 0.22378 0.0
H1159 H 0.27741 0.37738 0.1948 0.0
H1160 H 0.27706 0.35514 0.20339 0.0
H1161 H 0.20408 0.30117 0.21917 0.0
H1162 H 0.19365 0.30769 0.17659 0.0
H1163 H 0.24299 0.3669 0.17879 0.0
C1164 C 0.26948 0.35093 0.26898 0.0
C1165 C 0.26563 0.33546 0.28603 0.0
C1166 C 0.2484 0.31711 0.28248 0.0
C1167 C 0.23518 0.31416 0.26217 0.0
C1168 C 0.23943 0.32971 0.24561 0.0
C1169 C 0.25622 0.34771 0.24874 0.0
C1170 C 0.25806 0.36163 0.22732 0.0
C1171 C 0.2574 0.37934 0.23855 0.0
C1172 C 0.27673 0.36806 0.21139 0.0
C1173 C 0.23986 0.34856 0.2114 0.0
C1174 C 0.22917 0.33029 0.22241 0.0
C1175 C 0.21222 0.3155 0.21051 0.0
C1176 C 0.20634 0.31936 0.18643 0.0
C1177 C 0.21747 0.33782 0.17446 0.0
C1178 C 0.23419 0.35266 0.18749 0.0
H1179 H 0.25079 0.32351 0.40697 0.0
H1180 H 0.29681 0.38426 0.41192 0.0
H1181 H 0.27964 0.3896 0.44837 0.0
H1182 H 0.2098 0.33145 0.42389 0.0
H1183 H 0.1977 0.3093 0.44262 0.0
H1184 H 0.21245 0.31081 0.41507 0.0
H1185 H 0.23318 0.30142 0.44459 0.0
H1186 H 0.21837 0.29967 0.47205 0.0
H1187 H 0.24451 0.31556 0.47378 0.0
H1188 H 0.25966 0.38724 0.48753 0.0
H1189 H 0.23885 0.37704 0.52683 0.0
H1190 H 0.20523 0.31832 0.49526 0.0
C1191 C 0.2571 0.33802 0.41546 0.0
C1192 C 0.2751 0.35349 0.40662 0.0
C1193 C 0.28299 0.37221 0.41837 0.0
C1194 C 0.2733 0.3754 0.43898 0.0
C1195 C 0.25563 0.35978 0.44739 0.0
C1196 C 0.24757 0.34147 0.43592 0.0
C1197 C 0.22923 0.32677 0.44983 0.0
C1198 C 0.21123 0.31914 0.43177 0.0
C1199 C 0.23147 0.30987 0.46071 0.0
C1200 C 0.22857 0.3395 0.47149 0.0
C1201 C 0.2438 0.35856 0.46959 0.0
C1202 C 0.2474 0.3725 0.48888 0.0
C1203 C 0.2355 0.36664 0.51104 0.0
C1204 C 0.22019 0.34708 0.51359 0.0
C1205 C 0.21637 0.33354 0.49323 0.0
H1206 H 0.69385 0.9337 0.41547 0.0
H1207 H 0.63229 0.91526 0.42131 0.0
H1208 H 0.62943 0.89458 0.45903 0.0
H1209 H 0.68958 0.88668 0.43503 0.0
H1210 H 0.71233 0.89868 0.45306 0.0
H1211 H 0.70898 0.91026 0.42484 0.0
H1212 H 0.71749 0.94102 0.45269 0.0
H1213 H 0.72102 0.92961 0.48083 0.0
H1214 H 0.70397 0.9384 0.48205 0.0
H1215 H 0.63435 0.87929 0.49929 0.0
H1216 H 0.64679 0.87104 0.53889 0.0
H1217 H 0.70469 0.8983 0.50568 0.0
C1218 C 0.67968 0.92506 0.4244 0.0
C1219 C 0.66327 0.92605 0.41545 0.0
C1220 C 0.64503 0.91467 0.42781 0.0
C1221 C 0.64326 0.90282 0.44917 0.0
C1222 C 0.65981 0.90235 0.45771 0.0
C1223 C 0.67765 0.9131 0.4456 0.0
C1224 C 0.69351 0.91118 0.45962 0.0
C1225 C 0.70157 0.90109 0.44209 0.0
C1226 C 0.70995 0.93124 0.46938 0.0
C1227 C 0.68198 0.89819 0.48206 0.0
C1228 C 0.66251 0.89308 0.48049 0.0
C1229 C 0.64943 0.88278 0.50039 0.0
C1230 C 0.65656 0.87809 0.52273 0.0
C1231 C 0.67652 0.88357 0.52487 0.0
C1232 C 0.68922 0.89329 0.504 0.0
H1233 H 0.07346 0.73293 0.44273 0.0
H1234 H 0.09034 0.78197 0.39086 0.0
H1235 H 0.10916 0.80484 0.42677 0.0
H1236 H 0.0667 0.75584 0.49928 0.0
H1237 H 0.07598 0.74496 0.52185 0.0
H1238 H 0.06441 0.73248 0.49181 0.0
H1239 H 0.09532 0.73079 0.47982 0.0
H1240 H 0.10701 0.74332 0.5098 0.0
H1241 H 0.11872 0.753 0.47901 0.0
H1242 H 0.12668 0.82236 0.4683 0.0
H1243 H 0.13939 0.8332 0.5133 0.0
H1244 H 0.10995 0.77278 0.53816 0.0
C1245 C 0.08116 0.74848 0.43894 0.0
C1246 C 0.08053 0.7557 0.41402 0.0
C1247 C 0.09063 0.77614 0.40985 0.0
C1248 C 0.10141 0.78924 0.43008 0.0
C1249 C 0.10179 0.78165 0.45442 0.0
C1250 C 0.09178 0.76176 0.459 0.0
C1251 C 0.09401 0.75742 0.48715 0.0
C1252 C 0.07409 0.74707 0.50082 0.0
C1253 C 0.10439 0.74542 0.48905 0.0
C1254 C 0.10682 0.77796 0.49768 0.0
C1255 C 0.11133 0.79175 0.47846 0.0
C1256 C 0.12318 0.81171 0.48354 0.0
C1257 C 0.13039 0.81773 0.50905 0.0
C1258 C 0.1255 0.80384 0.52912 0.0
C1259 C 0.1137 0.78372 0.52322 0.0
H1260 H 0.33708 0.07213 0.75751 0.0
H1261 H 0.3827 0.11676 0.70983 0.0
H1262 H 0.38929 0.14147 0.74387 0.0
H1263 H 0.31955 0.10342 0.78523 0.0
H1264 H 0.3152 0.09222 0.81689 0.0
H1265 H 0.31307 0.07816 0.78801 0.0
H1266 H 0.33818 0.06965 0.80751 0.0
H1267 H 0.34038 0.08365 0.83641 0.0
H1268 H 0.36185 0.08912 0.818 0.0
H1269 H 0.39253 0.16087 0.78395 0.0
H1270 H 0.39257 0.1736 0.82792 0.0
H1271 H 0.34416 0.11683 0.84939 0.0
C1272 C 0.3483 0.08715 0.75415 0.0
C1273 C 0.35936 0.09254 0.73102 0.0
C1274 C 0.37404 0.1123 0.7274 0.0
C1275 C 0.37785 0.12646 0.74658 0.0
C1276 C 0.36681 0.12067 0.76924 0.0
C1277 C 0.35231 0.10152 0.77314 0.0
C1278 C 0.34321 0.09906 0.7998 0.0
C1279 C 0.32147 0.09285 0.79732 0.0
C1280 C 0.34609 0.08451 0.8164 0.0
C1281 C 0.35517 0.11973 0.81042 0.0
C1282 C 0.36858 0.13198 0.79239 0.0
C1283 C 0.38189 0.1515 0.79814 0.0
C1284 C 0.3817 0.15865 0.82314 0.0
C1285 C 0.36826 0.14629 0.84213 0.0
C1286 C 0.35464 0.12665 0.83538 0.0
H1287 H 0.93294 0.28597 0.76119 0.0
H1288 H 0.96232 0.25301 0.74684 0.0
H1289 H 0.94398 0.23072 0.78278 0.0
H1290 H 0.93427 0.28345 0.83078 0.0
H1291 H 0.91077 0.28148 0.8353 0.0
H1292 H 0.92523 0.29401 0.80732 0.0
H1293 H 0.89629 0.27121 0.77681 0.0
H1294 H 0.88179 0.25849 0.80474 0.0
H1295 H 0.8857 0.24509 0.77923 0.0
H1296 H 0.92279 0.21223 0.82057 0.0
H1297 H 0.90287 0.201 0.86054 0.0
H1298 H 0.88812 0.24658 0.85138 0.0
C1299 C 0.9354 0.27399 0.76555 0.0
C1300 C 0.94895 0.27113 0.75119 0.0
C1301 C 0.95201 0.25547 0.75766 0.0
C1302 C 0.94157 0.24266 0.77791 0.0
C1303 C 0.92826 0.24581 0.79167 0.0
C1304 C 0.92531 0.26122 0.786 0.0
C1305 C 0.9111 0.26208 0.80489 0.0
C1306 C 0.92093 0.2814 0.82049 0.0
C1307 C 0.89262 0.25903 0.79055 0.0
C1308 C 0.90664 0.24484 0.82214 0.0
C1309 C 0.91646 0.23547 0.81394 0.0
C1310 C 0.91495 0.21939 0.82712 0.0
C1311 C 0.9035 0.21302 0.84967 0.0
C1312 C 0.89389 0.22286 0.85893 0.0
C1313 C 0.89527 0.23876 0.84467 0.0
H1314 H 0.74459 0.686 0.76396 0.0
H1315 H 0.75162 0.64678 0.71149 0.0
H1316 H 0.76857 0.6395 0.7463 0.0
H1317 H 0.79196 0.70477 0.79842 0.0
H1318 H 0.78202 0.70573 0.82959 0.0
H1319 H 0.77167 0.70909 0.79997 0.0
H1320 H 0.73751 0.68088 0.81309 0.0
H1321 H 0.74775 0.67741 0.84268 0.0
H1322 H 0.73444 0.65721 0.82036 0.0
H1323 H 0.78196 0.63406 0.78749 0.0
H1324 H 0.79134 0.63111 0.8323 0.0
H1325 H 0.77773 0.67533 0.85812 0.0
C1326 C 0.74996 0.67611 0.75973 0.0
C1327 C 0.7468 0.66698 0.73498 0.0
C1328 C 0.75388 0.65397 0.73026 0.0
C1329 C 0.76357 0.64976 0.74991 0.0
C1330 C 0.76625 0.65878 0.77417 0.0
C1331 C 0.75978 0.67178 0.77917 0.0
C1332 C 0.76385 0.67878 0.80734 0.0
C1333 C 0.77823 0.70091 0.80891 0.0
C1334 C 0.74475 0.67323 0.82171 0.0
C1335 C 0.77316 0.66731 0.81746 0.0
C1336 C 0.77447 0.65596 0.79795 0.0
C1337 C 0.78138 0.64318 0.80286 0.0
C1338 C 0.78687 0.64176 0.82846 0.0
C1339 C 0.78558 0.65315 0.84898 0.0
C1340 C 0.7789 0.66634 0.84308 0.0
H1341 H 0.75757 0.6952 0.59974 0.0
H1342 H 0.72639 0.63333 0.61769 0.0
H1343 H 0.74384 0.62726 0.58237 0.0
H1344 H 0.75574 0.68891 0.53052 0.0
H1345 H 0.77963 0.7098 0.52528 0.0
H1346 H 0.76552 0.70934 0.55297 0.0
H1347 H 0.79421 0.7155 0.58381 0.0
H1348 H 0.80834 0.71578 0.55619 0.0
H1349 H 0.80387 0.69915 0.58266 0.0
H1350 H 0.76431 0.62783 0.54459 0.0
H1351 H 0.78385 0.6346 0.50444 0.0
H1352 H 0.8011 0.69589 0.51065 0.0
C1353 C 0.75449 0.6804 0.59629 0.0
C1354 C 0.7407 0.66474 0.61148 0.0
C1355 C 0.73689 0.64554 0.60622 0.0
C1356 C 0.74682 0.64196 0.58633 0.0
C1357 C 0.76041 0.65772 0.57177 0.0
C1358 C 0.76411 0.67653 0.5763 0.0
C1359 C 0.77857 0.69071 0.55689 0.0
C1360 C 0.7693 0.70024 0.54044 0.0
C1361 C 0.79736 0.7062 0.57072 0.0
C1362 C 0.78229 0.6769 0.5406 0.0
C1363 C 0.77189 0.65799 0.5497 0.0
C1364 C 0.77261 0.64261 0.53736 0.0
C1365 C 0.78384 0.64659 0.51471 0.0
C1366 C 0.79401 0.66576 0.50455 0.0
C1367 C 0.79348 0.68111 0.51804 0.0
H1368 H 0.32677 0.07229 0.59765 0.0
H1369 H 0.38913 0.10446 0.6139 0.0
H1370 H 0.39378 0.12713 0.57803 0.0
H1371 H 0.33116 0.075 0.52856 0.0
H1372 H 0.30987 0.07732 0.52321 0.0
H1373 H 0.31131 0.06464 0.55146 0.0
H1374 H 0.30546 0.08771 0.58135 0.0
H1375 H 0.30417 0.10058 0.55315 0.0
H1376 H 0.3214 0.11379 0.57908 0.0
H1377 H 0.39181 0.14576 0.53977 0.0
H1378 H 0.38378 0.15688 0.49891 0.0
H1379 H 0.32292 0.11205 0.50681 0.0
C1380 C 0.34136 0.08421 0.59376 0.0
C1381 C 0.35758 0.08673 0.60857 0.0
C1382 C 0.37651 0.10229 0.60271 0.0
C1383 C 0.37928 0.11531 0.58252 0.0
C1384 C 0.36299 0.11247 0.56829 0.0
C1385 C 0.34442 0.09718 0.57343 0.0
C1386 C 0.3296 0.09655 0.55402 0.0
C1387 C 0.31993 0.07724 0.53839 0.0
C1388 C 0.31425 0.09986 0.56773 0.0
C1389 C 0.34277 0.11373 0.53701 0.0
C1390 C 0.36192 0.12292 0.54581 0.0
C1391 C 0.37684 0.13878 0.53277 0.0
C1392 C 0.37214 0.14509 0.50972 0.0
C1393 C 0.35274 0.13538 0.49987 0.0
C1394 C 0.33786 0.11977 0.51402 0.0
H1395 H 0.9413 0.28446 0.60225 0.0
H1396 H 0.94422 0.24011 0.64847 0.0
H1397 H 0.92545 0.21543 0.61451 0.0
H1398 H 0.89181 0.25276 0.57638 0.0
H1399 H 0.89751 0.264 0.54469 0.0
H1400 H 0.91036 0.27811 0.57325 0.0
H1401 H 0.94342 0.28704 0.55193 0.0
H1402 H 0.93068 0.27297 0.52335 0.0
H1403 H 0.94748 0.26778 0.54056 0.0
H1404 H 0.90812 0.19595 0.57464 0.0
H1405 H 0.89351 0.18304 0.53131 0.0
H1406 H 0.90053 0.23954 0.51141 0.0
C1407 C 0.93783 0.26952 0.60529 0.0
C1408 C 0.94421 0.2642 0.628 0.0
C1409 C 0.93948 0.24452 0.63123 0.0
C1410 C 0.92878 0.23037 0.61207 0.0
C1411 C 0.92281 0.23608 0.58984 0.0
C1412 C 0.9271 0.25515 0.58634 0.0
C1413 C 0.91945 0.25749 0.56021 0.0
C1414 C 0.90385 0.26344 0.56386 0.0
C1415 C 0.93626 0.27219 0.543 0.0
C1416 C 0.91053 0.23685 0.54945 0.0
C1417 C 0.91254 0.22472 0.56691 0.0
C1418 C 0.9062 0.20523 0.56092 0.0
C1419 C 0.89776 0.19798 0.53628 0.0
C1420 C 0.89569 0.21018 0.5179 0.0
C1421 C 0.90196 0.22981 0.52489 0.0
H1422 H 0.32389 0.25636 0.60131 0.0
H1423 H 0.3848 0.28269 0.62468 0.0
H1424 H 0.39052 0.26572 0.58806 0.0
H1425 H 0.31704 0.20934 0.57901 0.0
H1426 H 0.30175 0.20778 0.55179 0.0
H1427 H 0.30211 0.22057 0.58117 0.0
H1428 H 0.31131 0.25168 0.55428 0.0
H1429 H 0.31087 0.23896 0.52487 0.0
H1430 H 0.3325 0.26163 0.53365 0.0
H1431 H 0.38981 0.247 0.54747 0.0
H1432 H 0.38334 0.23031 0.5045 0.0
H1433 H 0.32308 0.21691 0.50763 0.0
C1434 C 0.33837 0.25835 0.59893 0.0
C1435 C 0.35388 0.2707 0.61589 0.0
C1436 C 0.37271 0.27323 0.6119 0.0
C1437 C 0.37607 0.26358 0.59125 0.0
C1438 C 0.36045 0.25153 0.57478 0.0
C1439 C 0.342 0.249 0.57831 0.0
C1440 C 0.32804 0.23647 0.55684 0.0
C1441 C 0.31125 0.21741 0.56787 0.0
C1442 C 0.32023 0.24787 0.54151 0.0
C1443 C 0.34157 0.23258 0.54042 0.0
C1444 C 0.36013 0.24113 0.55124 0.0
C1445 C 0.37529 0.2401 0.53894 0.0
C1446 C 0.37146 0.2305 0.51465 0.0
C1447 C 0.35271 0.22228 0.50287 0.0
C1448 C 0.33754 0.22303 0.51626 0.0
H1449 H 0.77043 0.0924 0.62162 0.0
H1450 H 0.72159 0.1027 0.61613 0.0
H1451 H 0.7372 0.12451 0.5786 0.0
H1452 H 0.80917 0.14209 0.60119 0.0
H1453 H 0.82187 0.13236 0.58305 0.0
H1454 H 0.80829 0.11996 0.61174 0.0
H1455 H 0.78828 0.08802 0.58475 0.0
H1456 H 0.8019 0.10026 0.55618 0.0
H1457 H 0.77559 0.08842 0.55561 0.0
H1458 H 0.75575 0.14124 0.53818 0.0
H1459 H 0.77518 0.15061 0.49768 0.0
H1460 H 0.81229 0.13015 0.53029 0.0
C1461 C 0.76322 0.09958 0.61288 0.0
C1462 C 0.74485 0.09594 0.6218 0.0
C1463 C 0.73572 0.10537 0.60964 0.0
C1464 C 0.74453 0.11785 0.58841 0.0
C1465 C 0.76255 0.12091 0.57981 0.0
C1466 C 0.77182 0.11209 0.59177 0.0
C1467 C 0.79013 0.11621 0.57734 0.0
C1468 C 0.80845 0.12838 0.59435 0.0
C1469 C 0.78888 0.0971 0.56791 0.0
C1470 C 0.78929 0.12805 0.55476 0.0
C1471 C 0.77345 0.13087 0.55672 0.0
C1472 C 0.76847 0.13956 0.53675 0.0
C1473 C 0.77958 0.14487 0.51387 0.0
C1474 C 0.79545 0.1415 0.51121 0.0
C1475 C 0.80069 0.13357 0.53226 0.0
H1476 H 0.94315 0.66179 0.5927 0.0
H1477 H 0.92275 0.69096 0.64493 0.0
H1478 H 0.90115 0.69111 0.61003 0.0
H1479 H 0.94527 0.68863 0.5363 0.0
H1480 H 0.93734 0.66827 0.51405 0.0
H1481 H 0.95008 0.66917 0.54373 0.0
H1482 H 0.92136 0.63522 0.55671 0.0
H1483 H 0.9085 0.63426 0.52707 0.0
H1484 H 0.89695 0.6315 0.55821 0.0
H1485 H 0.88241 0.68895 0.56887 0.0
H1486 H 0.86991 0.68665 0.52368 0.0
H1487 H 0.90306 0.65951 0.49856 0.0
C1488 C 0.934 0.66803 0.59683 0.0
C1489 C 0.93454 0.67628 0.6215 0.0
C1490 C 0.92255 0.68456 0.62611 0.0
C1491 C 0.91017 0.68463 0.60647 0.0
C1492 C 0.91 0.67644 0.5823 0.0
C1493 C 0.92168 0.6684 0.57736 0.0
C1494 C 0.91959 0.66155 0.5493 0.0
C1495 C 0.93923 0.67256 0.53501 0.0
C1496 C 0.91109 0.63931 0.54775 0.0
C1497 C 0.90513 0.66724 0.53918 0.0
C1498 C 0.89955 0.67557 0.55854 0.0
C1499 C 0.88662 0.68237 0.55355 0.0
C1500 C 0.87953 0.68095 0.52794 0.0
C1501 C 0.88563 0.67304 0.50773 0.0
C1502 C 0.89829 0.66578 0.51365 0.0
H1503 H 0.9473 0.69055 0.7658 0.0
H1504 H 0.90753 0.63799 0.72224 0.0
H1505 H 0.88257 0.62935 0.75595 0.0
H1506 H 0.93461 0.66942 0.82872 0.0
H1507 H 0.93624 0.69061 0.84448 0.0
H1508 H 0.95074 0.69348 0.81612 0.0
H1509 H 0.93602 0.71231 0.79299 0.0
H1510 H 0.92143 0.70945 0.8213 0.0
H1511 H 0.90984 0.70113 0.78978 0.0
H1512 H 0.86276 0.62502 0.79528 0.0
H1513 H 0.84933 0.62513 0.83835 0.0
H1514 H 0.90089 0.68119 0.85621 0.0
C1515 C 0.93327 0.67733 0.7633 0.0
C1516 C 0.92937 0.66496 0.74138 0.0
C1517 C 0.91088 0.64771 0.73885 0.0
C1518 C 0.89655 0.64268 0.75786 0.0
C1519 C 0.90085 0.65508 0.77927 0.0
C1520 C 0.9187 0.67207 0.78214 0.0
C1521 C 0.9197 0.68236 0.80763 0.0
C1522 C 0.93631 0.68406 0.82527 0.0
C1523 C 0.92187 0.70251 0.80261 0.0
C1524 C 0.89979 0.66827 0.81877 0.0
C1525 C 0.88914 0.65272 0.80197 0.0
C1526 C 0.87079 0.63729 0.80846 0.0
C1527 C 0.86319 0.63759 0.83296 0.0
C1528 C 0.87387 0.65328 0.85073 0.0
C1529 C 0.89231 0.66895 0.84319 0.0
H1530 H 0.36469 0.26867 0.74058 0.0
H1531 H 0.3028 0.24962 0.73934 0.0
H1532 H 0.29794 0.22889 0.77777 0.0
H1533 H 0.35978 0.22189 0.76248 0.0
H1534 H 0.3814 0.23402 0.78279 0.0
H1535 H 0.37958 0.24561 0.75352 0.0
H1536 H 0.38617 0.27614 0.78055 0.0
H1537 H 0.38808 0.2647 0.8098 0.0
H1538 H 0.37084 0.27325 0.80803 0.0
H1539 H 0.30053 0.21315 0.81901 0.0
H1540 H 0.31045 0.20384 0.85995 0.0
H1541 H 0.37047 0.2327 0.83373 0.0
C1542 C 0.35004 0.25987 0.7481 0.0
C1543 C 0.33409 0.26069 0.73695 0.0
C1544 C 0.31521 0.24914 0.74754 0.0
C1545 C 0.3123 0.23728 0.7693 0.0
C1546 C 0.32841 0.23702 0.78007 0.0
C1547 C 0.3469 0.24794 0.76974 0.0
C1548 C 0.36199 0.24617 0.78599 0.0
C1549 C 0.37123 0.23633 0.77025 0.0
C1550 C 0.37768 0.26626 0.79673 0.0
C1551 C 0.34922 0.23302 0.80754 0.0
C1552 C 0.32985 0.22773 0.80364 0.0
C1553 C 0.31558 0.2169 0.82202 0.0
C1554 C 0.32132 0.21169 0.84518 0.0
C1555 C 0.34114 0.2173 0.84973 0.0
C1556 C 0.35514 0.22774 0.83039 0.0
H1557 H 0.73745 0.09706 0.75862 0.0
H1558 H 0.77553 0.07541 0.73386 0.0
H1559 H 0.79864 0.09406 0.76971 0.0
H1560 H 0.77556 0.14574 0.77921 0.0
H1561 H 0.76203 0.14634 0.80703 0.0
H1562 H 0.7492 0.13247 0.77832 0.0
H1563 H 0.73027 0.10131 0.8063 0.0
H1564 H 0.7429 0.11512 0.83507 0.0
H1565 H 0.74372 0.09342 0.82651 0.0
H1566 H 0.81694 0.11407 0.80927 0.0
H1567 H 0.8275 0.13139 0.85169 0.0
H1568 H 0.77731 0.13973 0.85078 0.0
C1569 C 0.75074 0.09638 0.76061 0.0
C1570 C 0.75479 0.08489 0.74342 0.0
C1571 C 0.77218 0.08414 0.74684 0.0
C1572 C 0.78543 0.09477 0.76703 0.0
C1573 C 0.78104 0.10601 0.78364 0.0
C1574 C 0.76403 0.10675 0.78078 0.0
C1575 C 0.7621 0.11887 0.80225 0.0
C1576 C 0.76224 0.13693 0.79102 0.0
C1577 C 0.74366 0.10644 0.81849 0.0
C1578 C 0.78054 0.1246 0.81788 0.0
C1579 C 0.79141 0.11729 0.80663 0.0
C1580 C 0.80865 0.12003 0.81813 0.0
C1581 C 0.81462 0.13004 0.84212 0.0
C1582 C 0.8033 0.13703 0.85445 0.0
C1583 C 0.78629 0.13461 0.84177 0.0
H1584 H 0.06908 0.39356 0.06159 0.0
H1585 H 0.05419 0.35816 0.99112 0.0
H1586 H 0.08042 0.35072 0.00106 0.0
H1587 H 0.12249 0.41316 0.05887 0.0
H1588 H 0.12464 0.41228 0.09382 0.0
H1589 H 0.10601 0.4163 0.07979 0.0
H1590 H 0.0794 0.38657 0.10504 0.0
H1591 H 0.09793 0.38255 0.1192 0.0
H1592 H 0.07776 0.36311 0.1014 0.0
H1593 H 0.10572 0.34419 0.02147 0.0
H1594 H 0.12721 0.33858 0.0508 0.0
H1595 H 0.1273 0.38024 0.10634 0.0
C1596 C 0.07151 0.38446 0.04805 0.0
C1597 C 0.05961 0.37643 0.02557 0.0
C1598 C 0.06318 0.36451 0.00841 0.0
C1599 C 0.07809 0.36027 0.01385 0.0
C1600 C 0.08947 0.3683 0.03633 0.0
C1601 C 0.08642 0.38025 0.05306 0.0
C1602 C 0.09984 0.3861 0.07669 0.0
C1603 C 0.11409 0.40828 0.07732 0.0
C1604 C 0.08803 0.37916 0.10207 0.0
C1605 C 0.11043 0.375 0.07115 0.0
C1606 C 0.1044 0.36496 0.04768 0.0
C1607 C 0.11087 0.35232 0.03962 0.0
C1608 C 0.12326 0.34936 0.05637 0.0
C1609 C 0.1291 0.359 0.08096 0.0
C1610 C 0.12312 0.37256 0.08778 0.0
H1611 H 0.66581 0.69998 0.05939 0.0
H1612 H 0.62277 0.69383 0.00153 0.0
H1613 H 0.62961 0.7273 0.01208 0.0
H1614 H 0.65417 0.72442 0.10646 0.0
H1615 H 0.67901 0.74011 0.11743 0.0
H1616 H 0.67189 0.71656 0.10341 0.0
H1617 H 0.69939 0.73302 0.06917 0.0
H1618 H 0.70654 0.75667 0.08306 0.0
H1619 H 0.70045 0.75206 0.04883 0.0
H1620 H 0.63952 0.76081 0.03207 0.0
H1621 H 0.65072 0.79014 0.06051 0.0
H1622 H 0.68761 0.7739 0.10375 0.0
C1623 C 0.65798 0.70574 0.04867 0.0
C1624 C 0.64378 0.69434 0.02963 0.0
C1625 C 0.63376 0.70237 0.01617 0.0
C1626 C 0.63759 0.72138 0.02197 0.0
C1627 C 0.65161 0.7322 0.04109 0.0
C1628 C 0.66167 0.72462 0.05414 0.0
C1629 C 0.67519 0.7386 0.07486 0.0
C1630 C 0.66973 0.72937 0.10214 0.0
C1631 C 0.69667 0.7455 0.06859 0.0
C1632 C 0.67081 0.75502 0.07199 0.0
C1633 C 0.65734 0.75127 0.05228 0.0
C1634 C 0.65026 0.76399 0.04732 0.0
C1635 C 0.65674 0.78064 0.06342 0.0
C1636 C 0.66996 0.78419 0.08426 0.0
C1637 C 0.67746 0.7715 0.08794 0.0
H1638 H 0.33265 0.97251 0.07216 0.0
H1639 H 0.32105 0.9603 0.98932 0.0
H1640 H 0.28825 0.93236 -0.0008 0.0
H1641 H 0.30926 0.92272 0.09262 0.0
H1642 H 0.29992 0.92728 0.1222 0.0
H1643 H 0.32214 0.9464 0.10829 0.0
H1644 H 0.3073 0.9691 0.10693 0.0
H1645 H 0.28504 0.95005 0.12086 0.0
H1646 H 0.28426 0.96093 0.09036 0.0
H1647 H 0.25636 0.9052 0.01897 0.0
H1648 H 0.2287 0.88218 0.04669 0.0
H1649 H 0.26257 0.91241 0.11583 0.0
C1650 C 0.32319 0.96404 0.05606 0.0
C1651 C 0.32935 0.9686 0.02998 0.0
C1652 C 0.31658 0.95707 0.00948 0.0
C1653 C 0.29794 0.94117 0.0149 0.0
C1654 C 0.29236 0.93699 0.04092 0.0
C1655 C 0.30467 0.94814 0.06111 0.0
C1656 C 0.29547 0.94062 0.08739 0.0
C1657 C 0.30741 0.93385 0.10357 0.0
C1658 C 0.29286 0.9561 0.10225 0.0
C1659 C 0.27601 0.92354 0.07891 0.0
C1660 C 0.27436 0.92156 0.05208 0.0
C1661 C 0.25751 0.90667 0.04002 0.0
C1662 C 0.24191 0.89363 0.05585 0.0
C1663 C 0.24332 0.89568 0.08338 0.0
C1664 C 0.26077 0.91071 0.09483 0.0
H1665 H 0.3576 0.04841 0.97008 0.0
H1666 H 0.4078 0.0831 0.02046 0.0
H1667 H 0.40716 0.11291 0.00805 0.0
H1668 H 0.37231 0.08174 0.91889 0.0
H1669 H 0.34815 0.07709 0.91062 0.0
H1670 H 0.35122 0.05829 0.92569 0.0
H1671 H 0.3278 0.05553 0.96273 0.0
H1672 H 0.32473 0.07441 0.94777 0.0
H1673 H 0.33288 0.07703 0.98125 0.0
H1674 H 0.40315 0.13927 0.98686 0.0
H1675 H 0.39693 0.16011 0.95731 0.0
H1676 H 0.34843 0.10828 0.92203 0.0
C1677 C 0.36826 0.06224 0.97882 0.0
C1678 C 0.38271 0.06343 0.99631 0.0
C1679 C 0.39656 0.08183 0.00707 0.0
C1680 C 0.39626 0.09884 0.00023 0.0
C1681 C 0.38194 0.0972 0.98274 0.0
C1682 C 0.36816 0.07936 0.97221 0.0
C1683 C 0.35521 0.08178 0.95244 0.0
C1684 C 0.35683 0.07429 0.92531 0.0
C1685 C 0.33389 0.07158 0.9616 0.0
C1686 C 0.36426 0.10381 0.95289 0.0
C1687 C 0.3795 0.11243 0.97072 0.0
C1688 C 0.39101 0.13268 0.97317 0.0
C1689 C 0.38725 0.14443 0.9564 0.0
C1690 C 0.37212 0.13592 0.93733 0.0
C1691 C 0.36013 0.11531 0.93631 0.0
H1692 H 0.95393 0.33934 0.96637 0.0
H1693 H 0.96833 0.3193 0.03724 0.0
H1694 H 0.94083 0.28585 0.02859 0.0
H1695 H 0.89984 0.3068 0.9704 0.0
H1696 H 0.8974 0.30321 0.93551 0.0
H1697 H 0.91657 0.32591 0.9491 0.0
H1698 H 0.94241 0.32151 0.92379 0.0
H1699 H 0.92336 0.2989 0.91013 0.0
H1700 H 0.94334 0.29936 0.92788 0.0
H1701 H 0.91494 0.2539 0.00868 0.0
H1702 H 0.89335 0.22654 0.97943 0.0
H1703 H 0.89393 0.26783 0.92338 0.0
C1704 C 0.95106 0.328 0.98035 0.0
C1705 C 0.96323 0.33189 0.00249 0.0
C1706 C 0.95911 0.31664 0.02022 0.0
C1707 C 0.94349 0.29762 0.0155 0.0
C1708 C 0.93193 0.29419 0.99322 0.0
C1709 C 0.93542 0.30904 0.97609 0.0
C1710 C 0.92183 0.30135 0.95262 0.0
C1711 C 0.90809 0.30982 0.95188 0.0
C1712 C 0.93343 0.30552 0.92712 0.0
C1713 C 0.91072 0.27972 0.95861 0.0
C1714 C 0.91659 0.27587 0.98222 0.0
C1715 C 0.90987 0.25677 0.99046 0.0
C1716 C 0.89743 0.24126 0.97375 0.0
C1717 C 0.89181 0.24491 0.94901 0.0
C1718 C 0.89794 0.26445 0.94206 0.0
H1719 H 0.69479 0.66205 0.97502 0.0
H1720 H 0.6751 0.61005 0.02192 0.0
H1721 H 0.70449 0.60856 0.0094 0.0
H1722 H 0.71252 0.64707 0.92278 0.0
H1723 H 0.73328 0.67088 0.91666 0.0
H1724 H 0.71168 0.66879 0.93121 0.0
H1725 H 0.73244 0.69023 0.97033 0.0
H1726 H 0.75413 0.69236 0.95587 0.0
H1727 H 0.74747 0.68321 0.98858 0.0
H1728 H 0.73444 0.61101 0.98818 0.0
H1729 H 0.76202 0.61697 0.96001 0.0
H1730 H 0.76314 0.66853 0.92902 0.0
C1731 C 0.69678 0.6505 0.98295 0.0
C1732 C 0.68267 0.63617 -0.00053 0.0
C1733 C 0.68576 0.62121 0.0093 0.0
C1734 C 0.70243 0.62028 0.00235 0.0
C1735 C 0.71597 0.63454 0.98578 0.0
C1736 C 0.71338 0.64944 0.97636 0.0
C1737 C 0.72955 0.66238 0.95783 0.0
C1738 C 0.72126 0.66226 0.93051 0.0
C1739 C 0.74161 0.68328 0.96882 0.0
C1740 C 0.74135 0.65211 0.95768 0.0
C1741 C 0.7334 0.63618 0.97406 0.0
C1742 C 0.741 0.62367 0.97567 0.0
C1743 C 0.75683 0.62729 0.9597 0.0
C1744 C 0.76494 0.64331 0.94229 0.0
C1745 C 0.75732 0.65612 0.94197 0.0
H1746 H 0.93964 0.6216 0.99546 0.0
H1747 H 0.98427 0.6829 0.99747 0.0
H1748 H 0.95954 0.69194 0.98587 0.0
H1749 H 0.91681 0.62449 0.93964 0.0
H1750 H 0.89221 0.60708 0.94916 0.0
H1751 H 0.91243 0.60555 0.96263 0.0
H1752 H 0.90104 0.60741 0.00934 0.0
H1753 H 0.88079 0.60907 0.99591 0.0
H1754 H 0.89768 0.62759 0.0183 0.0
H1755 H 0.93165 0.69431 0.9678 0.0
H1756 H 0.90292 0.68958 0.94228 0.0
H1757 H 0.8759 0.62696 0.95133 0.0
C1758 C 0.94401 0.63692 0.9943 0.0
C1759 C 0.96379 0.65158 0.9977 0.0
C1760 C 0.96915 0.67146 0.99511 0.0
C1761 C 0.95518 0.67675 0.98868 0.0
C1762 C 0.93586 0.66198 0.98481 0.0
C1763 C 0.93023 0.64245 0.98748 0.0
C1764 C 0.90911 0.62943 0.9789 0.0
C1765 C 0.90756 0.61585 0.95624 0.0
C1766 C 0.8964 0.61768 0.00199 0.0
C1767 C 0.90403 0.64465 0.97004 0.0
C1768 C 0.91957 0.66336 0.97415 0.0
C1769 C 0.91919 0.67978 0.96512 0.0
C1770 C 0.90281 0.67701 0.95078 0.0
C1771 C 0.88704 0.65798 0.94568 0.0
C1772 C 0.88745 0.64166 0.95602 0.0
H1773 H 0.3901 0.32102 0.00164 0.0
H1774 H 0.33012 0.30859 0.00211 0.0
H1775 H 0.31886 0.27482 0.98713 0.0
H1776 H 0.3861 0.29756 0.94327 0.0
H1777 H 0.40211 0.28836 0.95194 0.0
H1778 H 0.40507 0.31008 0.96754 0.0
H1779 H 0.40158 0.2942 0.01282 0.0
H1780 H 0.39849 0.27232 0.99726 0.0
H1781 H 0.38028 0.2709 0.01953 0.0
H1782 H 0.31443 0.24414 0.96696 0.0
H1783 H 0.31738 0.21985 0.9399 0.0
H1784 H 0.38027 0.25231 0.95093 0.0
C1785 C 0.37456 0.31096 -0.00062 0.0
C1786 C 0.36092 0.31726 0.00338 0.0
C1787 C 0.34076 0.30396 -0.00066 0.0
C1788 C 0.33424 0.28473 0.99099 0.0
C1789 C 0.34806 0.27904 0.98666 0.0
C1790 C 0.36783 0.29179 0.99061 0.0
C1791 C 0.37983 0.2829 0.98119 0.0
C1792 C 0.3941 0.29547 0.95971 0.0
C1793 C 0.39068 0.2799 0.00407 0.0
C1794 C 0.36379 0.26349 0.97044 0.0
C1795 C 0.34554 0.26137 0.97436 0.0
C1796 C 0.3286 0.24547 0.96419 0.0
C1797 C 0.3304 0.23174 0.94885 0.0
C1798 C 0.34901 0.23408 0.94362 0.0
C1799 C 0.36582 0.24983 0.95528 0.0
H1800 H 0.70238 0.04361 0.97199 0.0
H1801 H 0.69378 0.07703 0.03242 0.0
H1802 H 0.7253 0.10627 0.02067 0.0
H1803 H 0.75539 0.06643 0.9793 0.0
H1804 H 0.7588 0.06552 0.94468 0.0
H1805 H 0.73653 0.04723 0.95954 0.0
H1806 H 0.71637 0.05547 0.92722 0.0
H1807 H 0.73855 0.07381 0.91235 0.0
H1808 H 0.72136 0.0803 0.92509 0.0
H1809 H 0.7573 0.13263 -0.00063 0.0
H1810 H 0.78564 0.15286 0.97079 0.0
H1811 H 0.77236 0.10109 0.92567 0.0
C1812 C 0.7072 0.05699 0.98305 0.0
C1813 C 0.69566 0.05805 0.00316 0.0
C1814 C 0.70247 0.07588 0.01701 0.0
C1815 C 0.72034 0.09254 0.01046 0.0
C1816 C 0.73125 0.09103 0.99018 0.0
C1817 C 0.72489 0.0736 0.97684 0.0
C1818 C 0.7386 0.07574 0.95507 0.0
C1819 C 0.74788 0.06298 0.95995 0.0
C1820 C 0.72809 0.07106 0.92837 0.0
C1821 C 0.75352 0.0972 0.95777 0.0
C1822 C 0.74925 0.10588 0.97818 0.0
C1823 C 0.76081 0.1259 0.98349 0.0
C1824 C 0.77689 0.13727 0.96725 0.0
C1825 C 0.78106 0.12859 0.94588 0.0
C1826 C 0.76939 0.10823 0.94162 0.0
H1827 H 0.63628 0.95733 0.06842 0.0
H1828 H 0.66435 0.96492 0.99358 0.0
H1829 H 0.67182 0.93886 0.00462 0.0
H1830 H 0.66827 0.9493 0.10604 0.0
H1831 H 0.64978 0.93075 0.12632 0.0
H1832 H 0.64563 0.94899 0.11164 0.0
H1833 H 0.61368 0.92175 0.09012 0.0
H1834 H 0.61775 0.90341 0.10476 0.0
H1835 H 0.61444 0.90344 0.06992 0.0
H1836 H 0.68009 0.91528 0.02682 0.0
H1837 H 0.68688 0.89515 0.05681 0.0
H1838 H 0.649 0.89937 0.11439 0.0
C1839 C 0.64381 0.95333 0.05427 0.0
C1840 C 0.6499 0.96314 0.03026 0.0
C1841 C 0.65957 0.95749 0.01208 0.0
C1842 C 0.66384 0.94272 0.01818 0.0
C1843 C 0.6578 0.93341 0.0422 0.0
C1844 C 0.64766 0.93826 0.05973 0.0
C1845 C 0.6431 0.92633 0.08438 0.0
C1846 C 0.65225 0.93964 0.10851 0.0
C1847 C 0.62092 0.91294 0.08747 0.0
C1848 C 0.653 0.91463 0.07851 0.0
C1849 C 0.66141 0.91888 0.05412 0.0
C1850 C 0.67312 0.91143 0.04568 0.0
C1851 C 0.67676 0.8998 0.06288 0.0
C1852 C 0.66854 0.89551 0.08822 0.0
C1853 C 0.65584 0.90247 0.09545 0.0
H1854 H 0.05772 0.68366 0.06538 0.0
H1855 H 0.06079 0.70517 0.98689 0.0
H1856 H 0.08856 0.73749 0.00054 0.0
H1857 H 0.0682 0.7266 0.09972 0.0
H1858 H 0.08282 0.72376 0.12454 0.0
H1859 H 0.06362 0.70256 0.10815 0.0
H1860 H 0.08846 0.69193 0.09446 0.0
H1861 H 0.10772 0.71304 0.11098 0.0
H1862 H 0.11011 0.70878 0.07696 0.0
H1863 H 0.11505 0.76846 0.02479 0.0
H1864 H 0.13829 0.79369 0.05596 0.0
H1865 H 0.11876 0.74972 0.11648 0.0
C1866 C 0.06426 0.69515 0.05102 0.0
C1867 C 0.05708 0.69204 0.02517 0.0
C1868 C 0.06615 0.70733 0.00683 0.0
C1869 C 0.08187 0.7257 0.01443 0.0
C1870 C 0.0885 0.72834 0.04028 0.0
C1871 C 0.08009 0.71331 0.05812 0.0
C1872 C 0.08985 0.71953 0.08458 0.0
C1873 C 0.07525 0.71802 0.10547 0.0
C1874 C 0.09961 0.70761 0.09218 0.0
C1875 C 0.10484 0.74055 0.07914 0.0
C1876 C 0.10391 0.74555 0.05361 0.0
C1877 C 0.11599 0.76459 0.04476 0.0
C1878 C 0.12921 0.77882 0.06257 0.0
C1879 C 0.13025 0.77388 0.08888 0.0
C1880 C 0.11809 0.75432 0.09681 0.0
H1881 H 0.33504 0.38822 0.06854 0.0
H1882 H 0.31524 0.3604 0.99269 0.0
H1883 H 0.28197 0.35436 0.00185 0.0
H1884 H 0.29395 0.35716 0.10371 0.0
H1885 H 0.29402 0.37575 0.12425 0.0
H1886 H 0.31652 0.37947 0.11065 0.0
H1887 H 0.32259 0.41182 0.08976 0.0
H1888 H 0.30006 0.4082 0.1034 0.0
H1889 H 0.30414 0.41168 0.06877 0.0
H1890 H 0.24994 0.34682 0.02244 0.0
H1891 H 0.22257 0.34029 0.05123 0.0
H1892 H 0.26408 0.37732 0.11109 0.0
C1893 C 0.32376 0.38119 0.05369 0.0
C1894 C 0.32763 0.37473 0.02994 0.0
C1895 C 0.31256 0.36556 0.01095 0.0
C1896 C 0.29364 0.36207 0.01599 0.0
C1897 C 0.29019 0.36833 0.03982 0.0
C1898 C 0.30495 0.37807 0.05814 0.0
C1899 C 0.29731 0.38272 0.08253 0.0
C1900 C 0.30065 0.3732 0.1067 0.0
C1901 C 0.30658 0.40493 0.08633 0.0
C1902 C 0.2758 0.3733 0.0756 0.0
C1903 C 0.27194 0.36508 0.0509 0.0
C1904 C 0.25284 0.35368 0.04152 0.0
C1905 C 0.23731 0.35019 0.05805 0.0
C1906 C 0.24091 0.35822 0.08369 0.0
C1907 C 0.26056 0.37062 0.09189 0.0
H1908 H 0.73801 0.72438 0.39629 0.0
H1909 H 0.72775 0.69499 0.3214 0.0
H1910 H 0.75423 0.68777 0.33106 0.0
H1911 H 0.79231 0.74578 0.39645 0.0
H1912 H 0.79298 0.74277 0.43123 0.0
H1913 H 0.7747 0.74727 0.41705 0.0
H1914 H 0.74741 0.71587 0.43865 0.0
H1915 H 0.76556 0.71131 0.45286 0.0
H1916 H 0.74634 0.69287 0.43267 0.0
H1917 H 0.7778 0.67911 0.35247 0.0
H1918 H 0.79716 0.67108 0.38249 0.0
H1919 H 0.79547 0.71025 0.44074 0.0
C1920 C 0.7416 0.71673 0.38176 0.0
C1921 C 0.73087 0.71013 0.35819 0.0
C1922 C 0.73592 0.70021 0.33955 0.0
C1923 C 0.75093 0.69609 0.34486 0.0
C1924 C 0.76108 0.70253 0.36854 0.0
C1925 C 0.75685 0.71299 0.38645 0.0
C1926 C 0.76923 0.71752 0.41092 0.0
C1927 C 0.78313 0.73965 0.41408 0.0
C1928 C 0.75637 0.70887 0.43519 0.0
C1929 C 0.78036 0.7071 0.40461 0.0
C1930 C 0.77556 0.6986 0.38006 0.0
C1931 C 0.78214 0.68618 0.37141 0.0
C1932 C 0.79331 0.68182 0.38862 0.0
C1933 C 0.79794 0.68997 0.41417 0.0
C1934 C 0.7921 0.70354 0.42154 0.0
H1935 H 0.29381 0.01665 0.3949 0.0
H1936 H 0.32752 0.03487 0.32369 0.0
H1937 H 0.3358 0.069 0.33226 0.0
H1938 H 0.27458 0.05043 0.38984 0.0
H1939 H 0.27603 0.05463 0.4246 0.0
H1940 H 0.27175 0.0315 0.4119 0.0
H1941 H 0.30188 0.03551 0.4377 0.0
H1942 H 0.30613 0.05851 0.4506 0.0
H1943 H 0.32529 0.05728 0.43338 0.0
H1944 H 0.3432 0.10163 0.35128 0.0
H1945 H 0.3494 0.12967 0.37921 0.0
H1946 H 0.30814 0.08973 0.43571 0.0
C1947 C 0.3028 0.0278 0.381 0.0
C1948 C 0.31009 0.02316 0.35868 0.0
C1949 C 0.32177 0.03813 0.34091 0.0
C1950 C 0.32649 0.05754 0.34557 0.0
C1951 C 0.3191 0.06166 0.36783 0.0
C1952 C 0.30737 0.04716 0.38514 0.0
C1953 C 0.30192 0.0555 0.40811 0.0
C1954 C 0.27975 0.04754 0.40863 0.0
C1955 C 0.30925 0.05146 0.43396 0.0
C1956 C 0.31296 0.07703 0.40152 0.0
C1957 C 0.3227 0.08032 0.37815 0.0
C1958 C 0.33531 0.09921 0.36934 0.0
C1959 C 0.3386 0.11511 0.38528 0.0
C1960 C 0.32928 0.11204 0.40977 0.0
C1961 C 0.31564 0.09269 0.41724 0.0
H1962 H 0.97746 0.30613 0.38643 0.0
H1963 H 0.98021 0.27153 0.32248 0.0
H1964 H 0.94922 0.24316 0.33685 0.0
H1965 H 0.96104 0.27078 0.43319 0.0
H1966 H 0.94468 0.27715 0.449 0.0
H1967 H 0.96545 0.29544 0.43161 0.0
H1968 H 0.94271 0.30272 0.40307 0.0
H1969 H 0.92181 0.28447 0.42053 0.0
H1970 H 0.9226 0.28304 0.38548 0.0
H1971 H 0.92157 0.21732 0.36278 0.0
H1972 H 0.89847 0.19666 0.39631 0.0
H1973 H 0.91097 0.24874 0.44063 0.0
C1974 C 0.97125 0.29272 0.37508 0.0
C1975 C 0.9812 0.291 0.35334 0.0
C1976 C 0.97275 0.2732 0.33908 0.0
C1977 C 0.95514 0.257 0.3471 0.0
C1978 C 0.94594 0.259 0.36904 0.0
C1979 C 0.9535 0.27654 0.38253 0.0
C1980 C 0.94141 0.27451 0.40637 0.0
C1981 C 0.95389 0.27978 0.43151 0.0
C1982 C 0.93154 0.28692 0.40369 0.0
C1983 C 0.92652 0.25288 0.40496 0.0
C1984 C 0.92929 0.24421 0.38322 0.0
C1985 C 0.91883 0.22402 0.37944 0.0
C1986 C 0.90554 0.21236 0.39865 0.0
C1987 C 0.90263 0.22089 0.42138 0.0
C1988 C 0.91283 0.24154 0.42381 0.0
H1989 H 0.03904 0.38205 0.27986 0.0
H1990 H 0.03335 0.39093 0.36217 0.0
H1991 H 0.03105 0.42029 0.3516 0.0
H1992 H 0.06932 0.43336 0.2644 0.0
H1993 H 0.05831 0.43057 0.23259 0.0
H1994 H 0.05949 0.41045 0.24697 0.0
H1995 H 0.02193 0.38852 0.24147 0.0
H1996 H 0.02064 0.40859 0.22717 0.0
H1997 H 0.0061 0.3964 0.2553 0.0
H1998 H 0.02769 0.44802 0.33103 0.0
H1999 H 0.02501 0.47195 0.3028 0.0
H2000 H 0.03579 0.4458 0.23489 0.0
C2001 C 0.03731 0.39017 0.29568 0.0
C2002 C 0.03623 0.38419 0.32181 0.0
C2003 C 0.0342 0.39531 0.342 0.0
C2004 C 0.03286 0.41197 0.33617 0.0
C2005 C 0.0339 0.41744 0.31011 0.0
C2006 C 0.0363 0.40695 0.29026 0.0
C2007 C 0.03728 0.41591 0.26391 0.0
C2008 C 0.05729 0.423 0.25123 0.0
C2009 C 0.02049 0.4015 0.24591 0.0
C2010 C 0.0347 0.43289 0.2719 0.0
C2011 C 0.0327 0.43358 0.29857 0.0
C2012 C 0.02943 0.44769 0.31014 0.0
C2013 C 0.02802 0.4613 0.29396 0.0
C2014 C 0.02994 0.46073 0.26652 0.0
C2015 C 0.03371 0.44648 0.25565 0.0
H2016 H 0.64942 0.65351 0.30701 0.0
H2017 H 0.61717 0.66291 0.36796 0.0
H2018 H 0.58851 0.63014 0.35866 0.0
H2019 H 0.61118 0.63125 0.26233 0.0
H2020 H 0.61811 0.61426 0.24993 0.0
H2021 H 0.63639 0.63728 0.2636 0.0
H2022 H 0.64687 0.61913 0.29618 0.0
H2023 H 0.62853 0.596 0.2826 0.0
H2024 H 0.62885 0.60072 0.31711 0.0
H2025 H 0.56217 0.59728 0.33898 0.0
H2026 H 0.54119 0.56863 0.31046 0.0
H2027 H 0.5917 0.58133 0.26395 0.0
C2028 C 0.63645 0.64859 0.31873 0.0
C2029 C 0.63551 0.66072 0.33823 0.0
C2030 C 0.61822 0.65378 0.35299 0.0
C2031 C 0.6019 0.63518 0.34787 0.0
C2032 C 0.60324 0.62368 0.32815 0.0
C2033 C 0.62019 0.63016 0.31397 0.0
C2034 C 0.61773 0.6158 0.29269 0.0
C2035 C 0.62104 0.62521 0.26555 0.0
C2036 C 0.6313 0.60741 0.29744 0.0
C2037 C 0.59657 0.60043 0.29652 0.0
C2038 C 0.58839 0.605 0.31719 0.0
C2039 C 0.56854 0.59344 0.32302 0.0
C2040 C 0.55674 0.57717 0.30686 0.0
C2041 C 0.56487 0.57284 0.2851 0.0
C2042 C 0.58513 0.5843 0.28052 0.0
H2043 H 0.36543 0.99617 0.31992 0.0
H2044 H 0.33551 0.93432 0.33789 0.0
H2045 H 0.36501 0.93299 0.32605 0.0
H2046 H 0.38894 0.99328 0.26432 0.0
H2047 H 0.41136 0.01605 0.26978 0.0
H2048 H 0.3888 0.01269 0.28272 0.0
H2049 H 0.40422 0.02109 0.32914 0.0
H2050 H 0.42685 0.02441 0.31629 0.0
H2051 H 0.41487 0.00746 0.34246 0.0
H2052 H 0.3962 0.93744 0.30754 0.0
H2053 H 0.42608 0.94705 0.28248 0.0
H2054 H 0.43679 0.00647 0.27849 0.0
C2055 C 0.36523 0.98244 0.32183 0.0
C2056 C 0.34819 0.96536 0.32992 0.0
C2057 C 0.34841 0.94761 0.33181 0.0
C2058 C 0.36514 0.94672 0.32524 0.0
C2059 C 0.38162 0.96375 0.31701 0.0
C2060 C 0.38184 0.98131 0.31538 0.0
C2061 C 0.40091 0.99711 0.30407 0.0
C2062 C 0.39728 0.00525 0.27872 0.0
C2063 C 0.41239 0.01349 0.3242 0.0
C2064 C 0.41106 0.98553 0.29874 0.0
C2065 C 0.3998 0.96638 0.30665 0.0
C2066 C 0.40535 0.9525 0.30175 0.0
C2067 C 0.42252 0.95818 0.28765 0.0
C2068 C 0.43399 0.97759 0.27853 0.0
C2069 C 0.42841 0.99151 0.28508 0.0
H2070 H 0.62141 0.96066 0.29365 0.0
H2071 H 0.61874 0.98128 0.37122 0.0
H2072 H 0.59115 0.98563 0.35685 0.0
H2073 H 0.61164 0.99317 0.2582 0.0
H2074 H 0.59708 0.9754 0.23347 0.0
H2075 H 0.61607 0.9735 0.25036 0.0
H2076 H 0.5909 0.93817 0.26421 0.0
H2077 H 0.57183 0.93996 0.2473 0.0
H2078 H 0.56923 0.93369 0.2814 0.0
H2079 H 0.56426 0.98892 0.33243 0.0
H2080 H 0.54115 0.99052 0.3008 0.0
H2081 H 0.56134 0.96618 0.24075 0.0
C2082 C 0.615 0.96603 0.30769 0.0
C2083 C 0.62223 0.97068 0.33353 0.0
C2084 C 0.61339 0.97761 0.35131 0.0
C2085 C 0.59772 0.98012 0.34331 0.0
C2086 C 0.591 0.97547 0.31756 0.0
C2087 C 0.59935 0.96845 0.30013 0.0
C2088 C 0.58974 0.96463 0.27352 0.0
C2089 C 0.60451 0.97744 0.25267 0.0
C2090 C 0.57983 0.94282 0.26619 0.0
C2091 C 0.57482 0.97084 0.27847 0.0
C2092 C 0.57564 0.97705 0.30392 0.0
C2093 C 0.56346 0.98398 0.3125 0.0
C2094 C 0.55033 0.98478 0.29446 0.0
C2095 C 0.54959 0.97875 0.26819 0.0
C2096 C 0.56179 0.97134 0.2605 0.0
H2097 H 0.02091 0.65478 0.30669 0.0
H2098 H 0.0656 0.66527 0.36438 0.0
H2099 H 0.06356 0.63407 0.35189 0.0
H2100 H 0.99213 0.60061 0.31443 0.0
H2101 H 0.98651 0.59669 0.28002 0.0
H2102 H 0.9898 0.61859 0.29571 0.0
H2103 H 0.0165 0.63968 0.26221 0.0
H2104 H 0.01329 0.61789 0.24647 0.0
H2105 H 0.03715 0.63615 0.25816 0.0
H2106 H 0.06001 0.60436 0.32881 0.0
H2107 H 0.05516 0.57861 0.29752 0.0
H2108 H 0.01066 0.58573 0.25719 0.0
C2109 C 0.03 0.65032 0.31704 0.0
C2110 C 0.04341 0.66241 0.33651 0.0
C2111 C 0.05516 0.65617 0.34949 0.0
C2112 C 0.05406 0.63845 0.34257 0.0
C2113 C 0.04091 0.62701 0.32296 0.0
C2114 C 0.02892 0.63259 0.31058 0.0
C2115 C 0.01699 0.61834 0.28899 0.0
C2116 C 0.99505 0.60794 0.29517 0.0
C2117 C 0.02125 0.62863 0.2624 0.0
C2118 C 0.02476 0.60434 0.29037 0.0
C2119 C 0.0384 0.60946 0.31024 0.0
C2120 C 0.04899 0.59989 0.31361 0.0
C2121 C 0.04598 0.58509 0.29577 0.0
C2122 C 0.03242 0.57992 0.27478 0.0
C2123 C 0.02121 0.58929 0.27283 0.0
H2124 H 0.36517 0.37668 0.29802 0.0
H2125 H 0.36158 0.40862 0.36468 0.0
H2126 H 0.3934 0.43734 0.35274 0.0
H2127 H 0.41791 0.39623 0.30232 0.0
H2128 H 0.42041 0.39661 0.26735 0.0
H2129 H 0.39796 0.37865 0.28221 0.0
H2130 H 0.37863 0.39011 0.25327 0.0
H2131 H 0.40101 0.40817 0.23848 0.0
H2132 H 0.38524 0.41549 0.25389 0.0
H2133 H 0.42506 0.46362 0.33064 0.0
H2134 H 0.45331 0.48373 0.30189 0.0
H2135 H 0.43603 0.43293 0.2523 0.0
C2136 C 0.37114 0.38965 0.31026 0.0
C2137 C 0.36092 0.39049 0.3322 0.0
C2138 C 0.36925 0.40769 0.3478 0.0
C2139 C 0.38729 0.42406 0.34114 0.0
C2140 C 0.39689 0.42283 0.31908 0.0
C2141 C 0.38915 0.40591 0.30414 0.0
C2142 C 0.40202 0.40815 0.28126 0.0
C2143 C 0.41005 0.39408 0.28343 0.0
C2144 C 0.39107 0.40532 0.2552 0.0
C2145 C 0.41801 0.42913 0.28518 0.0
C2146 C 0.41496 0.43749 0.30703 0.0
C2147 C 0.42764 0.45711 0.31361 0.0
C2148 C 0.44366 0.46843 0.29724 0.0
C2149 C 0.44675 0.46006 0.27457 0.0
C2150 C 0.4339 0.44002 0.26906 0.0
H2151 H 0.30098 0.28986 0.39843 0.0
H2152 H 0.33222 0.30211 0.32535 0.0
H2153 H 0.33941 0.2756 0.33404 0.0
H2154 H 0.33213 0.27975 0.43578 0.0
H2155 H 0.31291 0.26011 0.45393 0.0
H2156 H 0.30938 0.27926 0.4411 0.0
H2157 H 0.27809 0.25344 0.41671 0.0
H2158 H 0.28161 0.23419 0.42939 0.0
H2159 H 0.27946 0.23634 0.39467 0.0
H2160 H 0.34622 0.25021 0.35327 0.0
H2161 H 0.35166 0.22794 0.38092 0.0
H2162 H 0.31254 0.22943 0.43888 0.0
C2163 C 0.30922 0.28685 0.38419 0.0
C2164 C 0.31615 0.29807 0.36129 0.0
C2165 C 0.32677 0.29366 0.34302 0.0
C2166 C 0.33088 0.27861 0.34776 0.0
C2167 C 0.32388 0.26783 0.37058 0.0
C2168 C 0.31308 0.27162 0.38835 0.0
C2169 C 0.30765 0.25822 0.41165 0.0
C2170 C 0.31602 0.27004 0.4371 0.0
C2171 C 0.28538 0.24475 0.41318 0.0
C2172 C 0.31769 0.24681 0.40468 0.0
C2173 C 0.32694 0.2525 0.38091 0.0
C2174 C 0.33867 0.2453 0.37165 0.0
C2175 C 0.34153 0.23245 0.38746 0.0
C2176 C 0.33257 0.22678 0.41225 0.0
C2177 C 0.31985 0.23354 0.42026 0.0
H2178 H 0.71002 0.01922 0.41275 0.0
H2179 H 0.7211 0.03056 0.33005 0.0
H2180 H 0.74791 0.06411 0.34034 0.0
H2181 H 0.71922 0.06709 0.43142 0.0
H2182 H 0.73072 0.0672 0.46195 0.0
H2183 H 0.71225 0.04441 0.44777 0.0
H2184 H 0.73638 0.03125 0.44909 0.0
H2185 H 0.7549 0.05398 0.46329 0.0
H2186 H 0.75984 0.04495 0.43364 0.0
H2187 H 0.77436 0.09657 0.36048 0.0
H2188 H 0.79727 0.12462 0.38848 0.0
H2189 H 0.76845 0.09089 0.45729 0.0
C2190 C 0.71799 0.02878 0.39676 0.0
C2191 C 0.71346 0.02232 0.3706 0.0
C2192 C 0.72432 0.03525 0.35025 0.0
C2193 C 0.73957 0.05432 0.35592 0.0
C2194 C 0.74373 0.06019 0.382 0.0
C2195 C 0.7332 0.04775 0.40205 0.0
C2196 C 0.74065 0.05731 0.42844 0.0
C2197 C 0.72476 0.05911 0.44326 0.0
C2198 C 0.74841 0.04621 0.44455 0.0
C2199 C 0.75705 0.07709 0.42021 0.0
C2200 C 0.75869 0.07859 0.39339 0.0
C2201 C 0.77311 0.09556 0.38151 0.0
C2202 C 0.78609 0.11138 0.39751 0.0
C2203 C 0.78446 0.1101 0.42504 0.0
C2204 C 0.76979 0.09261 0.43632 0.0
H2205 H 0.98851 0.68554 0.39233 0.0
H2206 H 0.99531 0.72779 0.33363 0.0
H2207 H 0.96211 0.7219 0.34357 0.0
H2208 H 0.93631 0.65155 0.38111 0.0
H2209 H 0.93187 0.64606 0.41534 0.0
H2210 H 0.95532 0.65256 0.40183 0.0
H2211 H 0.97239 0.68056 0.43601 0.0
H2212 H 0.94904 0.67413 0.44962 0.0
H2213 H 0.96504 0.6987 0.43858 0.0
H2214 H 0.92877 0.71298 0.36327 0.0
H2215 H 0.89953 0.70244 0.39107 0.0
H2216 H 0.91525 0.6656 0.43507 0.0
C2217 C 0.98297 0.69341 0.3813 0.0
C2218 C 0.99445 0.70713 0.36223 0.0
C2219 C 0.98668 0.71716 0.3483 0.0
C2220 C 0.96785 0.71388 0.35378 0.0
C2221 C 0.95696 0.70036 0.373 0.0
C2222 C 0.96429 0.69023 0.38639 0.0
C2223 C 0.95034 0.67722 0.40702 0.0
C2224 C 0.94302 0.65557 0.40095 0.0
C2225 C 0.95977 0.68301 0.43441 0.0
C2226 C 0.93419 0.68195 0.40374 0.0
C2227 C 0.93805 0.69517 0.38393 0.0
C2228 C 0.92553 0.70244 0.3786 0.0
C2229 C 0.90894 0.69635 0.39436 0.0
C2230 C 0.90525 0.68331 0.41522 0.0
C2231 C 0.91778 0.67568 0.41932 0.0
H2232 H 0.37848 0.02002 0.72614 0.0
H2233 H 0.41196 0.05152 0.65847 0.0
H2234 H 0.4386 0.04554 0.67209 0.0
H2235 H 0.41752 0.03721 0.77067 0.0
H2236 H 0.40836 0.01438 0.78762 0.0
H2237 H 0.3916 0.02014 0.77156 0.0
H2238 H 0.3772 0.98793 0.74465 0.0
H2239 H 0.39386 0.98201 0.76077 0.0
H2240 H 0.3933 0.98289 0.72564 0.0
H2241 H 0.46283 0.03825 0.6957 0.0
H2242 H 0.48151 0.02925 0.72615 0.0
H2243 H 0.43073 1.00084 0.77607 0.0
C2244 C 0.39132 0.02548 0.71402 0.0
C2245 C 0.39321 0.03625 0.69131 0.0
C2246 C 0.41022 0.04315 0.67594 0.0
C2247 C 0.42542 0.03985 0.68352 0.0
C2248 C 0.42322 0.02937 0.70629 0.0
C2249 C 0.40646 0.02209 0.72111 0.0
C2250 C 0.40773 0.01163 0.74497 0.0
C2251 C 0.40622 0.02143 0.77018 0.0
C2252 C 0.3921 0.98982 0.74393 0.0
C2253 C 0.42802 0.01459 0.7417 0.0
C2254 C 0.43679 0.02481 0.71932 0.0
C2255 C 0.45598 0.03003 0.71313 0.0
C2256 C 0.46647 0.02482 0.73047 0.0
C2257 C 0.45772 0.01455 0.75368 0.0
C2258 C 0.43808 0.00906 0.75884 0.0
H2259 H 0.00735 0.36931 0.7264 0.0
H2260 H 0.95795 0.35421 0.67492 0.0
H2261 H 0.96045 0.38609 0.68489 0.0
H2262 H 0.99453 0.39199 0.77531 0.0
H2263 H 0.01935 0.4106 0.78266 0.0
H2264 H 0.01431 0.38731 0.76983 0.0
H2265 H 0.03827 0.40474 0.73183 0.0
H2266 H 0.04333 0.42811 0.74453 0.0
H2267 H 0.03484 0.42127 0.71133 0.0
H2268 H 0.96756 0.41949 0.70317 0.0
H2269 H 0.9779 0.44995 0.72895 0.0
H2270 H 0.02271 0.44241 0.76705 0.0
C2271 C 0.99715 0.37275 0.71699 0.0
C2272 C 0.98248 0.3593 0.69985 0.0
C2273 C 0.96936 0.36434 0.68809 0.0
C2274 C 0.9707 0.38243 0.69359 0.0
C2275 C 0.98532 0.39535 0.71075 0.0
C2276 C 0.99832 0.39066 0.7222 0.0
C2277 C 0.01216 0.40651 0.74085 0.0
C2278 C 0.00994 0.39863 0.76881 0.0
C2279 C 0.03341 0.4157 0.73157 0.0
C2280 C 0.00475 0.42071 0.73856 0.0
C2281 C 0.98936 0.41423 0.721 0.0
C2282 C 0.97971 0.42475 0.71678 0.0
C2283 C 0.98569 0.44205 0.73136 0.0
C2284 C 1.00101 0.44842 0.74999 0.0
C2285 C 0.01088 0.43782 0.75298 0.0
H2286 H 0.66112 0.63468 0.73505 0.0
H2287 H 0.64699 0.6222 0.65274 0.0
H2288 H 0.61408 0.59498 0.66408 0.0
H2289 H 0.6375 0.58527 0.75578 0.0
H2290 H 0.62934 0.59025 0.7861 0.0
H2291 H 0.65125 0.609 0.77111 0.0
H2292 H 0.63702 0.63226 0.77136 0.0
H2293 H 0.61508 0.61355 0.78637 0.0
H2294 H 0.61356 0.62441 0.75623 0.0
H2295 H 0.58244 0.56819 0.6855 0.0
H2296 H 0.55574 0.54539 0.71477 0.0
H2297 H 0.59233 0.57589 0.78192 0.0
C2298 C 0.65108 0.62635 0.71936 0.0
C2299 C 0.65655 0.63058 0.69303 0.0
C2300 C 0.64303 0.61921 0.67308 0.0
C2301 C 0.62433 0.60373 0.67934 0.0
C2302 C 0.61945 0.59983 0.70561 0.0
C2303 C 0.63251 0.61089 0.72524 0.0
C2304 C 0.62411 0.60365 0.75193 0.0
C2305 C 0.63627 0.59662 0.76711 0.0
C2306 C 0.62234 0.6194 0.76737 0.0
C2307 C 0.60428 0.58678 0.74436 0.0
C2308 C 0.60167 0.58469 0.71764 0.0
C2309 C 0.58433 0.5698 0.70648 0.0
C2310 C 0.56928 0.55689 0.72317 0.0
C2311 C 0.57174 0.5591 0.75061 0.0
C2312 C 0.58964 0.57412 0.76106 0.0
H2313 H 0.68802 0.71285 0.63774 0.0
H2314 H 0.73946 0.74429 0.6872 0.0
H2315 H 0.74047 0.77533 0.67697 0.0
H2316 H 0.70346 0.74723 0.58805 0.0
H2317 H 0.67965 0.74399 0.58102 0.0
H2318 H 0.68176 0.72422 0.59466 0.0
H2319 H 0.65948 0.72199 0.63296 0.0
H2320 H 0.65739 0.74187 0.61946 0.0
H2321 H 0.66596 0.74341 0.65255 0.0
H2322 H 0.73779 0.8033 0.65762 0.0
H2323 H 0.73255 0.82559 0.62953 0.0
H2324 H 0.68204 0.77572 0.59419 0.0
C2325 C 0.69931 0.72622 0.64679 0.0
C2326 C 0.71363 0.72615 0.66335 0.0
C2327 C 0.7283 0.74399 0.67452 0.0
C2328 C 0.72894 0.76168 0.66891 0.0
C2329 C 0.71471 0.76127 0.65226 0.0
C2330 C 0.70013 0.74397 0.64143 0.0
C2331 C 0.68743 0.74759 0.62267 0.0
C2332 C 0.68813 0.74034 0.59497 0.0
C2333 C 0.66631 0.73816 0.63251 0.0
C2334 C 0.69749 0.76968 0.62397 0.0
C2335 C 0.71305 0.77733 0.64138 0.0
C2336 C 0.72543 0.79746 0.64429 0.0
C2337 C 0.72223 0.81005 0.62837 0.0
C2338 C 0.70683 0.80248 0.60966 0.0
C2339 C 0.69394 0.78202 0.60828 0.0
H2340 H 0.31251 0.98921 0.62897 0.0
H2341 H 0.28145 0.00431 0.68533 0.0
H2342 H 0.25086 0.97342 0.67485 0.0
H2343 H 0.27492 0.96904 0.58128 0.0
H2344 H 0.27991 0.95009 0.57144 0.0
H2345 H 0.29926 0.97277 0.58463 0.0
H2346 H 0.30634 0.95376 0.62009 0.0
H2347 H 0.28697 0.93101 0.60699 0.0
H2348 H 0.28684 0.93705 0.64092 0.0
H2349 H 0.22308 0.94072 0.65628 0.0
H2350 H 0.20132 0.91059 0.63058 0.0
H2351 H 0.25152 0.9179 0.58754 0.0
C2352 C 0.29932 0.98599 0.63929 0.0
C2353 C 0.29935 0.99913 0.65799 0.0
C2354 C 0.28175 0.9944 0.67094 0.0
C2355 C 0.26432 0.97688 0.66515 0.0
C2356 C 0.26479 0.96425 0.64644 0.0
C2357 C 0.28191 0.96867 0.63376 0.0
C2358 C 0.27862 0.95318 0.61381 0.0
C2359 C 0.28346 0.96179 0.58616 0.0
C2360 C 0.29039 0.94316 0.62089 0.0
C2361 C 0.25694 0.93944 0.61693 0.0
C2362 C 0.2491 0.94587 0.6359 0.0
C2363 C 0.22912 0.93555 0.64146 0.0
C2364 C 0.21688 0.91846 0.62689 0.0
C2365 C 0.22472 0.91209 0.60693 0.0
C2366 C 0.24506 0.92257 0.60244 0.0
H2367 H 0.03852 0.33547 0.63443 0.0
H2368 H 0.03478 0.29821 0.69864 0.0
H2369 H 0.0653 0.29986 0.68426 0.0
H2370 H 0.05473 0.3157 0.58758 0.0
H2371 H 0.07151 0.33839 0.57206 0.0
H2372 H 0.0507 0.33619 0.58909 0.0
H2373 H 0.07353 0.36621 0.61795 0.0
H2374 H 0.09446 0.36855 0.60089 0.0
H2375 H 0.09328 0.36636 0.63593 0.0
H2376 H 0.09275 0.30099 0.65869 0.0
H2377 H 0.11608 0.30313 0.62574 0.0
H2378 H 0.10511 0.34343 0.58124 0.0
C2379 C 0.04438 0.32801 0.64575 0.0
C2380 C 0.03431 0.3167 0.66762 0.0
C2381 C 0.04233 0.30705 0.6819 0.0
C2382 C 0.05967 0.30791 0.6739 0.0
C2383 C 0.06907 0.31887 0.65194 0.0
C2384 C 0.06192 0.32907 0.63835 0.0
C2385 C 0.07433 0.33901 0.61473 0.0
C2386 C 0.06209 0.33189 0.58938 0.0
C2387 C 0.08451 0.36136 0.61755 0.0
C2388 C 0.08895 0.33199 0.61642 0.0
C2389 C 0.08571 0.32045 0.63806 0.0
C2390 C 0.09586 0.3105 0.64209 0.0
C2391 C 0.10931 0.31197 0.62322 0.0
C2392 C 0.11275 0.32353 0.60058 0.0
C2393 C 0.10285 0.33423 0.59793 0.0
H2394 H 0.3024 0.31042 0.61692 0.0
H2395 H 0.29019 0.31175 0.69908 0.0
H2396 H 0.26316 0.3177 0.68739 0.0
H2397 H 0.29326 0.34831 0.59653 0.0
H2398 H 0.2822 0.3365 0.5659 0.0
H2399 H 0.30041 0.33239 0.58103 0.0
H2400 H 0.27625 0.295 0.58 0.0
H2401 H 0.25798 0.29901 0.56481 0.0
H2402 H 0.25255 0.28539 0.5947 0.0
H2403 H 0.23708 0.32355 0.66582 0.0
H2404 H 0.21501 0.32886 0.63658 0.0
H2405 H 0.24469 0.32281 0.56936 0.0
C2406 C 0.29407 0.31199 0.63251 0.0
C2407 C 0.2984 0.31066 0.65891 0.0
C2408 C 0.28711 0.31273 0.6787 0.0
C2409 C 0.27174 0.31611 0.67224 0.0
C2410 C 0.26786 0.31733 0.64592 0.0
C2411 C 0.27874 0.31529 0.62642 0.0
C2412 C 0.27171 0.31706 0.59964 0.0
C2413 C 0.28786 0.33461 0.58492 0.0
C2414 C 0.26417 0.29798 0.58387 0.0
C2415 C 0.25523 0.32052 0.60702 0.0
C2416 C 0.25312 0.32063 0.63374 0.0
C2417 C 0.23866 0.32352 0.64485 0.0
C2418 C 0.22617 0.32647 0.62815 0.0
C2419 C 0.22831 0.32659 0.60071 0.0
C2420 C 0.24295 0.32335 0.59024 0.0
H2421 H 0.71299 0.00424 0.62408 0.0
H2422 H 0.70663 0.99034 0.70651 0.0
H2423 H 0.70247 0.95778 0.69614 0.0
H2424 H 0.67715 0.9571 0.60099 0.0
H2425 H 0.69067 0.9582 0.57224 0.0
H2426 H 0.69367 0.98037 0.58656 0.0
H2427 H 0.73107 0.9942 0.59041 0.0
H2428 H 0.72817 0.97206 0.57609 0.0
H2429 H 0.74009 0.98036 0.60743 0.0
H2430 H 0.69869 0.92616 0.67575 0.0
H2431 H 0.69473 0.89878 0.64739 0.0
H2432 H 0.70376 0.9345 0.57917 0.0
C2433 C 0.71079 0.99441 0.64002 0.0
C2434 C 0.71016 0.99982 0.66611 0.0
C2435 C 0.70718 0.98647 0.68636 0.0
C2436 C 0.70483 0.96798 0.68064 0.0
C2437 C 0.7055 0.9631 0.65461 0.0
C2438 C 0.7084 0.976 0.63467 0.0
C2439 C 0.7082 0.96732 0.60828 0.0
C2440 C 0.69142 0.96565 0.59101 0.0
C2441 C 0.72806 0.97919 0.59477 0.0
C2442 C 0.7046 0.94745 0.61634 0.0
C2443 C 0.70317 0.94518 0.6431 0.0
C2444 C 0.69978 0.92782 0.65477 0.0
C2445 C 0.6976 0.91238 0.63858 0.0
C2446 C 0.69864 0.91441 0.6111 0.0
C2447 C 0.70246 0.93232 0.60008 0.0
H2448 H 0.01634 0.74034 0.64864 0.0
H2449 H 0.03848 0.71826 0.70922 0.0
H2450 H 0.07222 0.74464 0.6999 0.0
H2451 H 0.05187 0.75021 0.60392 0.0
H2452 H 0.05339 0.77217 0.59134 0.0
H2453 H 0.03106 0.7537 0.60568 0.0
H2454 H 0.03183 0.77928 0.63821 0.0
H2455 H 0.0542 0.79791 0.62385 0.0
H2456 H 0.05319 0.79342 0.65843 0.0
H2457 H 0.10375 0.77015 0.67885 0.0
H2458 H 0.12966 0.79234 0.64876 0.0
H2459 H 0.08664 0.79894 0.60391 0.0
C2460 C 0.02823 0.74136 0.66045 0.0
C2461 C 0.02481 0.72731 0.67972 0.0
C2462 C 0.04077 0.72899 0.69452 0.0
C2463 C 0.05998 0.74393 0.68936 0.0
C2464 C 0.06291 0.75725 0.66965 0.0
C2465 C 0.04739 0.75623 0.6557 0.0
C2466 C 0.05439 0.77117 0.6341 0.0
C2467 C 0.04726 0.76121 0.60719 0.0
C2468 C 0.04803 0.78635 0.63895 0.0
C2469 C 0.07628 0.7802 0.63726 0.0
C2470 C 0.08099 0.77218 0.65802 0.0
C2471 C 0.10025 0.77687 0.66295 0.0
C2472 C 0.11493 0.78961 0.64581 0.0
C2473 C 0.11026 0.79747 0.62393 0.0
C2474 C 0.09075 0.79319 0.62038 0.0
H2475 H 0.95987 0.61539 0.7165 0.0
H2476 H 0.00393 0.64081 0.65653 0.0
H2477 H 0.01318 0.6156 0.66478 0.0
H2478 H 0.98665 0.60606 0.76073 0.0
H2479 H 0.96667 0.58328 0.77213 0.0
H2480 H 0.96192 0.60146 0.75878 0.0
H2481 H 0.93785 0.57621 0.72497 0.0
H2482 H 0.94254 0.55788 0.73829 0.0
H2483 H 0.94604 0.56345 0.70399 0.0
H2484 H 0.02082 0.59065 0.68492 0.0
H2485 H 0.02564 0.56852 0.7141 0.0
H2486 H 0.97472 0.5581 0.75821 0.0
C2487 C 0.97119 0.6154 0.70468 0.0
C2488 C 0.98122 0.63001 0.6859 0.0
C2489 C 0.99599 0.62962 0.6709 0.0
C2490 C 1.00131 0.61536 0.67546 0.0
C2491 C 0.99139 0.60138 0.69464 0.0
C2492 C 0.97642 0.60116 0.7087 0.0
C2493 C 0.9689 0.5856 0.72947 0.0
C2494 C 0.97119 0.59465 0.75688 0.0
C2495 C 0.94757 0.56985 0.72383 0.0
C2496 C 0.98254 0.57763 0.7258 0.0
C2497 C 0.99533 0.58671 0.7055 0.0
C2498 C 0.01057 0.5831 0.70042 0.0
C2499 C 0.01313 0.5704 0.71701 0.0
C2500 C 1.00055 0.56153 0.73845 0.0
C2501 C 0.98462 0.56465 0.74204 0.0
H2502 H 0.3911 0.34791 0.73657 0.0
H2503 H 0.39148 0.3695 0.6588 0.0
H2504 H 0.41825 0.40237 0.67236 0.0
H2505 H 0.39987 0.39031 0.7719 0.0
H2506 H 0.41535 0.38813 0.796 0.0
H2507 H 0.39646 0.36661 0.77979 0.0
H2508 H 0.42218 0.35751 0.76481 0.0
H2509 H 0.44115 0.37898 0.78105 0.0
H2510 H 0.4432 0.37503 0.74683 0.0
H2511 H 0.44481 0.43356 0.696 0.0
H2512 H 0.46837 0.45906 0.72673 0.0
H2513 H 0.4508 0.41525 0.78714 0.0
C2514 C 0.39678 0.35953 0.72234 0.0
C2515 C 0.38918 0.35623 0.6967 0.0
C2516 C 0.39713 0.37178 0.6786 0.0
C2517 C 0.4123 0.39047 0.68613 0.0
C2518 C 0.41945 0.39323 0.71172 0.0
C2519 C 0.41196 0.37807 0.72942 0.0
C2520 C 0.42208 0.38451 0.75563 0.0
C2521 C 0.40757 0.38226 0.77708 0.0
C2522 C 0.43279 0.37335 0.76247 0.0
C2523 C 0.43631 0.40574 0.75015 0.0
C2524 C 0.43468 0.41067 0.72482 0.0
C2525 C 0.44623 0.42978 0.71585 0.0
C2526 C 0.4596 0.44416 0.73337 0.0
C2527 C 0.46123 0.43928 0.75949 0.0
C2528 C 0.44961 0.41969 0.76756 0.0
H2529 H 0.6655 0.05971 0.72638 0.0
H2530 H 0.64666 0.01893 0.66118 0.0
H2531 H 0.61215 0.00856 0.67074 0.0
H2532 H 0.6289 0.03013 0.76925 0.0
H2533 H 0.62615 0.04947 0.78348 0.0
H2534 H 0.64916 0.05488 0.76971 0.0
H2535 H 0.64817 0.08059 0.73948 0.0
H2536 H 0.62504 0.07517 0.75313 0.0
H2537 H 0.62729 0.07343 0.71837 0.0
H2538 H 0.57963 0.99973 0.69131 0.0
H2539 H 0.55246 0.99345 0.72071 0.0
H2540 H 0.59279 0.04226 0.7697 0.0
C2541 C 0.65413 0.0488 0.71387 0.0
C2542 C 0.6587 0.04008 0.69309 0.0
C2543 C 0.64344 0.02584 0.67717 0.0
C2544 C 0.62381 0.01991 0.68241 0.0
C2545 C 0.61977 0.02865 0.70329 0.0
C2546 C 0.63455 0.04297 0.71856 0.0
C2547 C 0.62641 0.04939 0.74066 0.0
C2548 C 0.63305 0.04574 0.76734 0.0
C2549 C 0.63206 0.07092 0.73772 0.0
C2550 C 0.60473 0.03591 0.73611 0.0
C2551 C 0.60111 0.02412 0.7144 0.0
C2552 C 0.58226 0.00918 0.70801 0.0
C2553 C 0.56686 0.00581 0.72474 0.0
C2554 C 0.57042 0.01733 0.74759 0.0
C2555 C 0.58952 0.03308 0.75251 0.0
loop_
_geom_bond_atom_site_label_1
_geom_bond_atom_site_label_2
_geom_bond_distance
_geom_bond_site_symmetry_2
_ccdc_geom_bond_type
In0 O1 2.294 1_455 S
In0 O2 2.326 . S
In0 O6 2.266 1_455 S
In0 O7 2.326 1_454 S
In0 O8 2.266 1_554 S
In0 O9 2.326 1_454 S
In0 O11 2.294 . S
In0 O12 2.326 . S
O1 In0 2.294 1_655 S
O1 C10 1.240 1_655 S
O2 In0 2.326 . S
O2 C10 1.252 . S
C3 O6 1.252 1_556 S
C3 O7 1.260 . S
C4 O11 1.240 . S
C4 O12 1.252 . S
C5 O8 1.252 . S
C5 O9 1.260 1_455 S
O6 In0 2.266 1_655 S
O6 C3 1.252 1_554 S
O7 In0 2.326 1_656 S
O7 C3 1.260 . S
O8 In0 2.266 1_556 S
O8 C5 1.252 . S
O9 In0 2.326 1_656 S
O9 C5 1.260 1_655 S
C10 O1 1.240 1_455 S
C10 O2 1.252 . S
O11 In0 2.294 . S
O11 C4 1.240 . S
O12 In0 2.326 . S
O12 C4 1.252 . S
In13 O14 2.294 . S
In13 O15 2.326 . S
In13 O19 2.266 . S
In13 O20 2.326 1_554 S
In13 O21 2.266 1_554 S
In13 O22 2.326 1_554 S
In13 O24 2.294 . S
In13 O25 2.326 . S
O14 In13 2.294 . S
O14 C23 1.240 . S
O15 In13 2.326 . S
O15 C23 1.252 . S
C16 O19 1.252 1_556 S
C16 O20 1.260 . S
C17 O24 1.240 . S
C17 O25 1.252 . S
C18 O21 1.252 . S
C18 O22 1.260 . S
O19 In13 2.266 . S
O19 C16 1.252 1_554 S
O20 In13 2.326 1_556 S
O20 C16 1.260 . S
O21 In13 2.266 1_556 S
O21 C18 1.252 . S
O22 In13 2.326 1_556 S
O22 C18 1.260 . S
C23 O14 1.240 . S
C23 O15 1.252 . S
O24 In13 2.294 . S
O24 C17 1.240 . S
O25 In13 2.326 . S
O25 C17 1.252 . S
In26 O27 2.294 . S
In26 O28 2.326 1_554 S
In26 O32 2.266 . S
In26 O33 2.326 1_545 S
In26 O34 2.266 1_545 S
In26 O35 2.326 1_545 S
In26 O37 2.294 1_544 S
In26 O38 2.326 1_554 S
O27 In26 2.294 . S
O27 C36 1.240 1_554 S
O28 In26 2.326 1_556 S
O28 C36 1.252 . S
C29 O32 1.252 . S
C29 O33 1.260 1_545 S
C30 O37 1.240 1_545 S
C30 O38 1.252 . S
C31 O34 1.252 . S
C31 O35 1.260 . S
O32 In26 2.266 . S
O32 C29 1.252 . S
O33 In26 2.326 1_565 S
O33 C29 1.260 1_565 S
O34 In26 2.266 1_565 S
O34 C31 1.252 . S
O35 In26 2.326 1_565 S
O35 C31 1.260 . S
C36 O27 1.240 1_556 S
C36 O28 1.252 . S
O37 In26 2.294 1_566 S
O37 C30 1.240 1_565 S
O38 In26 2.326 1_556 S
O38 C30 1.252 . S
In39 O40 2.294 1_554 S
In39 O41 2.326 1_454 S
In39 O45 2.266 . S
In39 O46 2.326 . S
In39 O47 2.266 1_455 S
In39 O48 2.326 . S
In39 O50 2.294 1_455 S
In39 O51 2.326 1_454 S
O40 In39 2.294 1_556 S
O40 C49 1.240 . S
O41 In39 2.326 1_656 S
O41 C49 1.252 1_655 S
C42 O45 1.252 . S
C42 O46 1.260 . S
C43 O50 1.240 1_556 S
C43 O51 1.252 . S
C44 O47 1.252 1_455 S
C44 O48 1.260 . S
O45 In39 2.266 . S
O45 C42 1.252 . S
O46 In39 2.326 . S
O46 C42 1.260 . S
O47 In39 2.266 1_655 S
O47 C44 1.252 1_655 S
O48 In39 2.326 . S
O48 C44 1.260 . S
C49 O40 1.240 . S
C49 O41 1.252 1_455 S
O50 In39 2.294 1_655 S
O50 C43 1.240 1_554 S
O51 In39 2.326 1_656 S
O51 C43 1.252 . S
In52 O53 2.294 1_554 S
In52 O54 2.326 1_554 S
In52 O58 2.266 . S
In52 O59 2.326 . S
In52 O60 2.266 . S
In52 O61 2.326 . S
In52 O63 2.294 . S
In52 O64 2.326 1_554 S
O53 In52 2.294 1_556 S
O53 C62 1.240 . S
O54 In52 2.326 1_556 S
O54 C62 1.252 . S
C55 O58 1.252 . S
C55 O59 1.260 . S
C56 O63 1.240 1_556 S
C56 O64 1.252 . S
C57 O60 1.252 . S
C57 O61 1.260 . S
O58 In52 2.266 . S
O58 C55 1.252 . S
O59 In52 2.326 . S
O59 C55 1.260 . S
O60 In52 2.266 . S
O60 C57 1.252 . S
O61 In52 2.326 . S
O61 C57 1.260 . S
C62 O53 1.240 . S
C62 O54 1.252 . S
O63 In52 2.294 . S
O63 C56 1.240 1_554 S
O64 In52 2.326 1_556 S
O64 C56 1.252 . S
In65 O66 2.294 . S
In65 O67 2.326 1_545 S
In65 O71 2.266 . S
In65 O72 2.326 1_554 S
In65 O73 2.266 1_544 S
In65 O74 2.326 1_554 S
In65 O76 2.294 1_545 S
In65 O77 2.326 1_545 S
O66 In65 2.294 . S
O66 C75 1.240 . S
O67 In65 2.326 1_565 S
O67 C75 1.252 1_565 S
C68 O71 1.252 1_556 S
C68 O72 1.260 . S
C69 O76 1.240 . S
C69 O77 1.252 . S
C70 O73 1.252 1_545 S
C70 O74 1.260 . S
O71 In65 2.266 . S
O71 C68 1.252 1_554 S
O72 In65 2.326 1_556 S
O72 C68 1.260 . S
O73 In65 2.266 1_566 S
O73 C70 1.252 1_565 S
O74 In65 2.326 1_556 S
O74 C70 1.260 . S
C75 O66 1.240 . S
C75 O67 1.252 1_545 S
O76 In65 2.294 1_565 S
O76 C69 1.240 . S
O77 In65 2.326 1_565 S
O77 C69 1.252 . S
In78 O79 2.294 . S
In78 O80 2.326 . S
In78 O84 2.266 . S
In78 O85 2.326 . S
In78 O86 2.266 . S
In78 O87 2.326 . S
In78 O89 2.294 . S
In78 O90 2.326 . S
O79 In78 2.294 . S
O79 C88 1.240 . S
O80 In78 2.326 . S
O80 C88 1.252 . S
C81 O84 1.252 . S
C81 O85 1.260 . S
C82 O89 1.240 . S
C82 O90 1.252 . S
C83 O86 1.252 . S
C83 O87 1.260 . S
O84 In78 2.266 . S
O84 C81 1.252 . S
O85 In78 2.326 . S
O85 C81 1.260 . S
O86 In78 2.266 . S
O86 C83 1.252 . S
O87 In78 2.326 . S
O87 C83 1.260 . S
C88 O79 1.240 . S
C88 O80 1.252 . S
O89 In78 2.294 . S
O89 C82 1.240 . S
O90 In78 2.326 . S
O90 C82 1.252 . S
In91 O92 2.294 . S
In91 O93 2.326 . S
In91 O97 2.266 . S
In91 O98 2.326 1_565 S
In91 O99 2.266 . S
In91 O100 2.326 . S
In91 O102 2.294 1_565 S
In91 O103 2.326 1_565 S
O92 In91 2.294 . S
O92 C101 1.240 . S
O93 In91 2.326 . S
O93 C101 1.252 . S
C94 O97 1.252 . S
C94 O98 1.260 1_565 S
C95 O102 1.240 . S
C95 O103 1.252 . S
C96 O99 1.252 . S
C96 O100 1.260 . S
O97 In91 2.266 . S
O97 C94 1.252 . S
O98 In91 2.326 1_545 S
O98 C94 1.260 1_545 S
O99 In91 2.266 . S
O99 C96 1.252 . S
O100 In91 2.326 . S
O100 C96 1.260 . S
C101 O92 1.240 . S
C101 O93 1.252 . S
O102 In91 2.294 1_545 S
O102 C95 1.240 . S
O103 In91 2.326 1_545 S
O103 C95 1.252 . S
In104 O105 2.294 . S
In104 O106 2.326 . S
In104 O110 2.266 . S
In104 O111 2.326 . S
In104 O112 2.287 . S
In104 O113 2.326 . S
In104 O115 2.294 . S
In104 O116 2.326 . S
O105 In104 2.294 . S
O105 C114 1.240 . S
O106 In104 2.326 . S
O106 C114 1.252 . S
C107 O110 1.252 . S
C107 O111 1.260 . S
C108 O115 1.240 . S
C108 O116 1.252 . S
C109 O112 1.220 1_655 S
C109 O113 1.260 1_655 S
O110 In104 2.266 . S
O110 C107 1.252 . S
O111 In104 2.326 . S
O111 C107 1.260 . S
O112 In104 2.287 . S
O112 C109 1.220 1_455 S
O113 In104 2.326 . S
O113 C109 1.260 1_455 S
C114 O105 1.240 . S
C114 O106 1.252 . S
O115 In104 2.294 . S
O115 C108 1.240 . S
O116 In104 2.326 . S
O116 C108 1.252 . S
In117 O118 2.294 . S
In117 O119 2.326 . S
In117 O123 2.266 1_565 S
In117 O124 2.326 1_565 S
In117 O125 2.266 . S
In117 O126 2.326 . S
In117 O128 2.294 . S
In117 O129 2.331 . S
O118 In117 2.294 . S
O118 C127 1.240 . S
O119 In117 2.326 . S
O119 C127 1.252 . S
C120 O123 1.252 . S
C120 O124 1.260 . S
C121 O128 1.240 . S
C121 O129 1.252 . S
C122 O125 1.252 . S
C122 O126 1.260 . S
O123 In117 2.266 1_545 S
O123 C120 1.252 . S
O124 In117 2.326 1_545 S
O124 C120 1.260 . S
O125 In117 2.266 . S
O125 C122 1.252 . S
O126 In117 2.326 . S
O126 C122 1.260 . S
C127 O118 1.240 . S
C127 O119 1.252 . S
O128 In117 2.294 . S
O128 C121 1.240 . S
O129 In117 2.331 . S
O129 C121 1.252 . S
In130 O131 2.294 . S
In130 O132 2.326 . S
In130 O136 2.296 . S
In130 O137 2.326 . S
In130 O138 2.266 . S
In130 O139 2.326 . S
In130 O141 2.294 . S
In130 O142 2.326 . S
O131 In130 2.294 . S
O131 C140 1.240 . S
O132 In130 2.326 . S
O132 C140 1.252 . S
C133 O136 1.249 1_655 S
C133 O137 1.260 1_655 S
C134 O141 1.240 . S
C134 O142 1.252 . S
C135 O138 1.252 . S
C135 O139 1.260 . S
O136 In130 2.296 . S
O136 C133 1.249 1_455 S
O137 In130 2.326 . S
O137 C133 1.260 1_455 S
O138 In130 2.266 . S
O138 C135 1.252 . S
O139 In130 2.326 . S
O139 C135 1.260 . S
C140 O131 1.240 . S
C140 O132 1.252 . S
O141 In130 2.294 . S
O141 C134 1.240 . S
O142 In130 2.326 . S
O142 C134 1.252 . S
In143 O144 2.294 . S
In143 O145 2.326 . S
In143 O149 2.266 . S
In143 O150 2.326 . S
In143 O151 2.266 . S
In143 O152 2.326 . S
In143 O154 2.294 . S
In143 O155 2.326 . S
O144 In143 2.294 . S
O144 C153 1.240 . S
O145 In143 2.326 . S
O145 C153 1.252 . S
C146 O149 1.252 . S
C146 O150 1.260 . S
C147 O154 1.240 . S
C147 O155 1.252 . S
C148 O151 1.252 . S
C148 O152 1.260 . S
O149 In143 2.266 . S
O149 C146 1.252 . S
O150 In143 2.326 . S
O150 C146 1.260 . S
O151 In143 2.266 . S
O151 C148 1.252 . S
O152 In143 2.326 . S
O152 C148 1.260 . S
C153 O144 1.240 . S
C153 O145 1.252 . S
O154 In143 2.294 . S
O154 C147 1.240 . S
O155 In143 2.326 . S
O155 C147 1.252 . S
In156 O157 2.294 . S
In156 O158 2.326 . S
In156 O162 2.266 . S
In156 O163 2.326 . S
In156 O164 2.283 . S
In156 O165 2.326 . S
In156 O167 2.294 . S
In156 O168 2.326 . S
O157 In156 2.294 . S
O157 C166 1.240 . S
O158 In156 2.326 . S
O158 C166 1.252 . S
C159 O162 1.252 . S
C159 O163 1.260 . S
C160 O167 1.240 . S
C160 O168 1.252 . S
C161 O164 1.226 1_565 S
C161 O165 1.260 1_565 S
O162 In156 2.266 . S
O162 C159 1.252 . S
O163 In156 2.326 . S
O163 C159 1.260 . S
O164 In156 2.283 . S
O164 C161 1.226 1_545 S
O165 In156 2.326 . S
O165 C161 1.260 1_545 S
C166 O157 1.240 . S
C166 O158 1.252 . S
O167 In156 2.294 . S
O167 C160 1.240 . S
O168 In156 2.326 . S
O168 C160 1.252 . S
In169 O170 2.294 . S
In169 O171 2.326 . S
In169 O175 2.266 . S
In169 O176 2.326 . S
In169 O177 2.266 1_655 S
In169 O178 2.326 1_655 S
In169 O180 2.294 . S
In169 O181 2.326 . S
O170 In169 2.294 . S
O170 C179 1.240 . S
O171 In169 2.326 . S
O171 C179 1.253 . S
C172 O175 1.252 . S
C172 O176 1.260 . S
C173 O180 1.240 . S
C173 O181 1.252 . S
C174 O177 1.252 . S
C174 O178 1.260 . S
O175 In169 2.266 . S
O175 C172 1.252 . S
O176 In169 2.326 . S
O176 C172 1.260 . S
O177 In169 2.266 1_455 S
O177 C174 1.252 . S
O178 In169 2.326 1_455 S
O178 C174 1.260 . S
C179 O170 1.240 . S
C179 O171 1.253 . S
O180 In169 2.294 . S
O180 C173 1.240 . S
O181 In169 2.326 . S
O181 C173 1.252 . S
In182 O183 2.294 . S
In182 O184 2.326 . S
In182 O188 2.266 . S
In182 O189 2.326 . S
In182 O190 2.266 . S
In182 O191 2.326 . S
In182 O193 2.294 . S
In182 O194 2.326 . S
O183 In182 2.294 . S
O183 C192 1.240 . S
O184 In182 2.326 . S
O184 C192 1.252 . S
C185 O188 1.252 . S
C185 O189 1.260 . S
C186 O193 1.240 . S
C186 O194 1.252 . S
C187 O190 1.252 . S
C187 O191 1.260 . S
O188 In182 2.266 . S
O188 C185 1.252 . S
O189 In182 2.326 . S
O189 C185 1.260 . S
O190 In182 2.266 . S
O190 C187 1.252 . S
O191 In182 2.326 . S
O191 C187 1.260 . S
C192 O183 1.240 . S
C192 O184 1.252 . S
O193 In182 2.294 . S
O193 C186 1.240 . S
O194 In182 2.326 . S
O194 C186 1.252 . S
In195 O196 2.294 . S
In195 O197 2.326 . S
In195 O201 2.266 . S
In195 O202 2.326 . S
In195 O203 2.266 . S
In195 O204 2.326 . S
In195 O206 2.294 . S
In195 O207 2.326 . S
O196 In195 2.294 . S
O196 C205 1.240 . S
O197 In195 2.326 . S
O197 C205 1.252 . S
C198 O201 1.252 . S
C198 O202 1.260 . S
C199 O206 1.240 . S
C199 O207 1.252 . S
C200 O203 1.252 . S
C200 O204 1.260 . S
O201 In195 2.266 . S
O201 C198 1.252 . S
O202 In195 2.326 . S
O202 C198 1.260 . S
O203 In195 2.266 . S
O203 C200 1.252 . S
O204 In195 2.326 . S
O204 C200 1.260 . S
C205 O196 1.240 . S
C205 O197 1.252 . S
O206 In195 2.294 . S
O206 C199 1.240 . S
O207 In195 2.326 . S
O207 C199 1.252 . S
In208 O209 2.294 . S
In208 O210 2.326 . S
In208 O214 2.266 . S
In208 O215 2.326 . S
In208 O216 2.266 . S
In208 O217 2.326 . S
In208 O219 2.295 1_545 S
In208 O220 2.326 . S
O209 In208 2.294 . S
O209 C218 1.240 . S
O210 In208 2.326 . S
O210 C218 1.252 . S
C211 O214 1.252 . S
C211 O215 1.260 . S
C212 O219 1.240 . S
C212 O220 1.252 1_565 S
C213 O216 1.252 . S
C213 O217 1.260 . S
O214 In208 2.266 . S
O214 C211 1.252 . S
O215 In208 2.326 . S
O215 C211 1.260 . S
O216 In208 2.266 . S
O216 C213 1.252 . S
O217 In208 2.326 . S
O217 C213 1.260 . S
C218 O209 1.240 . S
C218 O210 1.252 . S
O219 In208 2.295 1_565 S
O219 C212 1.240 . S
O220 In208 2.326 . S
O220 C212 1.252 1_545 S
In221 O222 2.294 . S
In221 O223 2.344 . S
In221 O227 2.266 . S
In221 O228 2.326 . S
In221 O229 2.266 1_655 S
In221 O230 2.326 1_655 S
In221 O232 2.294 . S
In221 O233 2.326 . S
O222 In221 2.294 . S
O222 C231 1.240 . S
O223 In221 2.344 . S
O223 C231 1.251 . S
C224 O227 1.252 . S
C224 O228 1.260 . S
C225 O232 1.240 . S
C225 O233 1.252 . S
C226 O229 1.252 . S
C226 O230 1.260 . S
O227 In221 2.266 . S
O227 C224 1.252 . S
O228 In221 2.326 . S
O228 C224 1.260 . S
O229 In221 2.266 1_455 S
O229 C226 1.252 . S
O230 In221 2.326 1_455 S
O230 C226 1.260 . S
C231 O222 1.240 . S
C231 O223 1.251 . S
O232 In221 2.294 . S
O232 C225 1.240 . S
O233 In221 2.326 . S
O233 C225 1.252 . S
H234 C242 0.930 . S
H235 C245 0.930 . S
H236 C247 0.930 . S
H237 C248 0.970 . S
H238 C248 0.970 . S
H239 C250 0.930 . S
H240 C252 0.930 . S
H241 C254 0.930 . S
C242 H234 0.930 . S
C242 C243 1.382 . S
C242 C244 1.426 . S
C243 C242 1.382 . S
C243 C247 1.389 . S
C244 C242 1.426 . S
C244 C245 1.375 . S
C244 C248 1.532 . S
C245 H235 0.930 . S
C245 C244 1.375 . S
C245 C246 1.416 . S
C246 C245 1.416 . S
C246 C247 1.371 . S
C247 H236 0.930 . S
C247 C243 1.389 . S
C247 C246 1.371 . S
C248 H237 0.970 . S
C248 H238 0.970 . S
C248 C244 1.532 . S
C248 C249 1.499 . S
C249 C248 1.499 . S
C249 C250 1.370 . S
C249 C254 1.415 . S
C250 H239 0.930 . S
C250 C249 1.370 . S
C250 C251 1.407 . S
C251 C250 1.407 . S
C251 C252 1.365 . S
C252 H240 0.930 . S
C252 C251 1.365 . S
C252 C253 1.393 . S
C253 C252 1.393 . S
C253 C254 1.387 . S
C254 H241 0.930 . S
C254 C249 1.415 . S
C254 C253 1.387 . S
H255 C263 0.930 . S
H256 C266 0.930 . S
H257 C268 0.930 . S
H258 C269 0.970 . S
H259 C269 0.970 . S
H260 C271 0.930 . S
H261 C273 0.930 . S
H262 C275 0.930 . S
C263 H255 0.930 . S
C263 C264 1.382 . S
C263 C265 1.426 . S
C264 C263 1.382 . S
C264 C268 1.389 . S
C265 C263 1.426 . S
C265 C266 1.375 . S
C265 C269 1.532 . S
C266 H256 0.930 . S
C266 C265 1.375 . S
C266 C267 1.416 . S
C267 C266 1.416 . S
C267 C268 1.371 . S
C268 H257 0.930 . S
C268 C264 1.389 . S
C268 C267 1.371 . S
C269 H258 0.970 . S
C269 H259 0.970 . S
C269 C265 1.532 . S
C269 C270 1.499 . S
C270 C269 1.499 . S
C270 C271 1.370 . S
C270 C275 1.415 . S
C271 H260 0.930 . S
C271 C270 1.370 . S
C271 C272 1.407 . S
C272 C271 1.407 . S
C272 C273 1.365 . S
C273 H261 0.930 . S
C273 C272 1.365 . S
C273 C274 1.393 . S
C274 C273 1.393 . S
C274 C275 1.387 . S
C275 H262 0.930 . S
C275 C270 1.415 . S
C275 C274 1.387 . S
H276 C284 0.930 . S
H277 C287 0.930 . S
H278 C289 0.930 . S
H279 C290 0.970 . S
H280 C290 0.970 . S
H281 C292 0.930 . S
H282 C294 0.930 . S
H283 C296 0.930 . S
C284 H276 0.930 . S
C284 C285 1.382 . S
C284 C286 1.426 . S
C285 C284 1.382 . S
C285 C289 1.389 . S
C286 C284 1.426 . S
C286 C287 1.375 . S
C286 C290 1.532 . S
C287 H277 0.930 . S
C287 C286 1.375 . S
C287 C288 1.416 . S
C288 C287 1.416 . S
C288 C289 1.371 . S
C289 H278 0.930 . S
C289 C285 1.389 . S
C289 C288 1.371 . S
C290 H279 0.970 . S
C290 H280 0.970 . S
C290 C286 1.532 . S
C290 C291 1.499 . S
C291 C290 1.499 . S
C291 C292 1.370 . S
C291 C296 1.415 . S
C292 H281 0.930 . S
C292 C291 1.370 . S
C292 C293 1.407 . S
C293 C292 1.407 . S
C293 C294 1.365 . S
C294 H282 0.930 . S
C294 C293 1.365 . S
C294 C295 1.393 . S
C295 C294 1.393 . S
C295 C296 1.387 . S
C296 H283 0.930 . S
C296 C291 1.415 . S
C296 C295 1.387 . S
H297 C305 0.930 . S
H298 C308 0.930 . S
H299 C310 0.930 . S
H300 C311 0.970 . S
H301 C311 0.970 . S
H302 C313 0.930 . S
H303 C315 0.930 . S
H304 C317 0.930 . S
C305 H297 0.930 . S
C305 C306 1.382 . S
C305 C307 1.426 . S
C306 C305 1.382 . S
C306 C310 1.389 . S
C307 C305 1.426 . S
C307 C308 1.375 . S
C307 C311 1.532 . S
C308 H298 0.930 . S
C308 C307 1.375 . S
C308 C309 1.416 . S
C309 C308 1.416 . S
C309 C310 1.371 . S
C310 H299 0.930 . S
C310 C306 1.389 . S
C310 C309 1.371 . S
C311 H300 0.970 . S
C311 H301 0.970 . S
C311 C307 1.532 . S
C311 C312 1.499 . S
C312 C311 1.499 . S
C312 C313 1.370 . S
C312 C317 1.415 . S
C313 H302 0.930 . S
C313 C312 1.370 . S
C313 C314 1.407 . S
C314 C313 1.407 . S
C314 C315 1.365 . S
C315 H303 0.930 . S
C315 C314 1.365 . S
C315 C316 1.393 . S
C316 C315 1.393 . S
C316 C317 1.387 . S
C317 H304 0.930 . S
C317 C312 1.415 . S
C317 C316 1.387 . S
H318 C326 0.930 . S
H319 C329 0.930 . S
H320 C331 0.930 . S
H321 C332 0.970 . S
H322 C332 0.970 . S
H323 C334 0.930 . S
H324 C336 0.930 . S
H325 C338 0.930 . S
C326 H318 0.930 . S
C326 C327 1.382 . S
C326 C328 1.426 . S
C327 C326 1.382 . S
C327 C331 1.389 . S
C328 C326 1.426 . S
C328 C329 1.375 . S
C328 C332 1.532 . S
C329 H319 0.930 . S
C329 C328 1.375 . S
C329 C330 1.416 . S
C330 C329 1.416 . S
C330 C331 1.371 . S
C331 H320 0.930 . S
C331 C327 1.389 . S
C331 C330 1.371 . S
C332 H321 0.970 . S
C332 H322 0.970 . S
C332 C328 1.532 . S
C332 C333 1.499 . S
C333 C332 1.499 . S
C333 C334 1.370 . S
C333 C338 1.415 . S
C334 H323 0.930 . S
C334 C333 1.370 . S
C334 C335 1.407 . S
C335 C334 1.407 . S
C335 C336 1.365 . S
C336 H324 0.930 . S
C336 C335 1.365 . S
C336 C337 1.393 . S
C337 C336 1.393 . S
C337 C338 1.387 . S
C338 H325 0.930 . S
C338 C333 1.415 . S
C338 C337 1.387 . S
H339 C347 0.930 . S
H340 C350 0.930 . S
H341 C352 0.930 . S
H342 C353 0.970 . S
H343 C353 0.970 . S
H344 C355 0.930 . S
H345 C357 0.930 . S
H346 C359 0.930 . S
C347 H339 0.930 . S
C347 C348 1.382 . S
C347 C349 1.426 . S
C348 C347 1.382 . S
C348 C352 1.389 . S
C349 C347 1.426 . S
C349 C350 1.375 . S
C349 C353 1.532 . S
C350 H340 0.930 . S
C350 C349 1.375 . S
C350 C351 1.416 . S
C351 C350 1.416 . S
C351 C352 1.371 . S
C352 H341 0.930 . S
C352 C348 1.389 . S
C352 C351 1.371 . S
C353 H342 0.970 . S
C353 H343 0.970 . S
C353 C349 1.532 . S
C353 C354 1.499 . S
C354 C353 1.499 . S
C354 C355 1.370 . S
C354 C359 1.415 . S
C355 H344 0.930 . S
C355 C354 1.370 . S
C355 C356 1.407 . S
C356 C355 1.407 . S
C356 C357 1.365 . S
C357 H345 0.930 . S
C357 C356 1.365 . S
C357 C358 1.393 . S
C358 C357 1.393 . S
C358 C359 1.387 . S
C359 H346 0.930 . S
C359 C354 1.415 . S
C359 C358 1.387 . S
H360 C368 0.930 . S
H361 C371 0.930 . S
H362 C373 0.930 . S
H363 C374 0.970 . S
H364 C374 0.970 . S
H365 C376 0.930 . S
H366 C378 0.930 . S
H367 C380 0.930 . S
C368 H360 0.930 . S
C368 C369 1.382 . S
C368 C370 1.426 . S
C369 C368 1.382 . S
C369 C373 1.389 . S
C370 C368 1.426 . S
C370 C371 1.375 . S
C370 C374 1.532 . S
C371 H361 0.930 . S
C371 C370 1.375 . S
C371 C372 1.416 . S
C372 C371 1.416 . S
C372 C373 1.371 . S
C373 H362 0.930 . S
C373 C369 1.389 . S
C373 C372 1.371 . S
C374 H363 0.970 . S
C374 H364 0.970 . S
C374 C370 1.532 . S
C374 C375 1.499 . S
C375 C374 1.499 . S
C375 C376 1.370 . S
C375 C380 1.415 . S
C376 H365 0.930 . S
C376 C375 1.370 . S
C376 C377 1.407 . S
C377 C376 1.407 . S
C377 C378 1.365 . S
C378 H366 0.930 . S
C378 C377 1.365 . S
C378 C379 1.393 . S
C379 C378 1.393 . S
C379 C380 1.387 . S
C380 H367 0.930 . S
C380 C375 1.415 . S
C380 C379 1.387 . S
H381 C389 0.930 . S
H382 C392 0.930 . S
H383 C394 0.930 . S
H384 C395 0.970 . S
H385 C395 0.970 . S
H386 C397 0.930 . S
H387 C399 0.930 . S
H388 C401 0.930 . S
C389 H381 0.930 . S
C389 C390 1.382 . S
C389 C391 1.426 . S
C390 C389 1.382 . S
C390 C394 1.389 . S
C391 C389 1.426 . S
C391 C392 1.375 . S
C391 C395 1.532 . S
C392 H382 0.930 . S
C392 C391 1.375 . S
C392 C393 1.416 . S
C393 C392 1.416 . S
C393 C394 1.371 . S
C394 H383 0.930 . S
C394 C390 1.389 . S
C394 C393 1.371 . S
C395 H384 0.970 . S
C395 H385 0.970 . S
C395 C391 1.532 . S
C395 C396 1.499 . S
C396 C395 1.499 . S
C396 C397 1.370 . S
C396 C401 1.415 . S
C397 H386 0.930 . S
C397 C396 1.370 . S
C397 C398 1.407 . S
C398 C397 1.407 . S
C398 C399 1.365 . S
C399 H387 0.930 . S
C399 C398 1.365 . S
C399 C400 1.393 . S
C400 C399 1.393 . S
C400 C401 1.387 . S
C401 H388 0.930 . S
C401 C396 1.415 . S
C401 C400 1.387 . S
H402 C410 0.930 . S
H403 C413 0.930 . S
H404 C415 0.930 . S
H405 C416 0.970 . S
H406 C416 0.970 . S
H407 C418 0.930 . S
H408 C420 0.930 . S
H409 C422 0.930 . S
C410 H402 0.930 . S
C410 C411 1.382 . S
C410 C412 1.426 . S
C411 C410 1.382 . S
C411 C415 1.389 . S
C412 C410 1.426 . S
C412 C413 1.375 . S
C412 C416 1.532 . S
C413 H403 0.930 . S
C413 C412 1.375 . S
C413 C414 1.416 . S
C414 C413 1.416 . S
C414 C415 1.371 . S
C415 H404 0.930 . S
C415 C411 1.389 . S
C415 C414 1.371 . S
C416 H405 0.970 . S
C416 H406 0.970 . S
C416 C412 1.532 . S
C416 C417 1.499 . S
C417 C416 1.499 . S
C417 C418 1.370 . S
C417 C422 1.415 . S
C418 H407 0.930 . S
C418 C417 1.370 . S
C418 C419 1.407 . S
C419 C418 1.407 . S
C419 C420 1.365 . S
C420 H408 0.930 . S
C420 C419 1.365 . S
C420 C421 1.393 . S
C421 C420 1.393 . S
C421 C422 1.387 . S
C422 H409 0.930 . S
C422 C417 1.415 . S
C422 C421 1.387 . S
H423 C431 0.930 . S
H424 C434 0.930 . S
H425 C436 0.930 . S
H426 C437 0.970 . S
H427 C437 0.970 . S
H428 C439 0.930 . S
H429 C441 0.930 . S
H430 C443 0.930 . S
C431 H423 0.930 . S
C431 C432 1.382 . S
C431 C433 1.426 . S
C432 C431 1.382 . S
C432 C436 1.389 . S
C433 C431 1.426 . S
C433 C434 1.375 . S
C433 C437 1.532 . S
C434 H424 0.930 . S
C434 C433 1.375 . S
C434 C435 1.416 . S
C435 C434 1.416 . S
C435 C436 1.371 . S
C436 H425 0.930 . S
C436 C432 1.389 . S
C436 C435 1.371 . S
C437 H426 0.970 . S
C437 H427 0.970 . S
C437 C433 1.532 . S
C437 C438 1.499 . S
C438 C437 1.499 . S
C438 C439 1.370 . S
C438 C443 1.415 . S
C439 H428 0.930 . S
C439 C438 1.370 . S
C439 C440 1.407 . S
C440 C439 1.407 . S
C440 C441 1.365 . S
C441 H429 0.930 . S
C441 C440 1.365 . S
C441 C442 1.393 . S
C442 C441 1.393 . S
C442 C443 1.387 . S
C443 H430 0.930 . S
C443 C438 1.415 . S
C443 C442 1.387 . S
H444 C452 0.930 . S
H445 C455 0.930 . S
H446 C457 0.930 . S
H447 C458 0.970 . S
H448 C458 0.970 . S
H449 C460 0.930 . S
H450 C462 0.930 . S
H451 C464 0.930 . S
C452 H444 0.930 . S
C452 C453 1.382 . S
C452 C454 1.426 . S
C453 C452 1.382 . S
C453 C457 1.389 . S
C454 C452 1.426 . S
C454 C455 1.375 . S
C454 C458 1.532 . S
C455 H445 0.930 . S
C455 C454 1.375 . S
C455 C456 1.416 . S
C456 C455 1.416 . S
C456 C457 1.371 . S
C457 H446 0.930 . S
C457 C453 1.389 . S
C457 C456 1.371 . S
C458 H447 0.970 . S
C458 H448 0.970 . S
C458 C454 1.532 . S
C458 C459 1.499 . S
C459 C458 1.499 . S
C459 C460 1.370 . S
C459 C464 1.415 . S
C460 H449 0.930 . S
C460 C459 1.370 . S
C460 C461 1.407 . S
C461 C460 1.407 . S
C461 C462 1.365 . S
C462 H450 0.930 . S
C462 C461 1.365 . S
C462 C463 1.393 . S
C463 C462 1.393 . S
C463 C464 1.387 . S
C464 H451 0.930 . S
C464 C459 1.415 . S
C464 C463 1.387 . S
H465 C473 0.930 . S
H466 C476 0.930 . S
H467 C478 0.930 . S
H468 C479 0.970 . S
H469 C479 0.970 . S
H470 C481 0.930 . S
H471 C483 0.930 . S
H472 C485 0.930 . S
C473 H465 0.930 . S
C473 C474 1.382 . S
C473 C475 1.426 . S
C474 C473 1.382 . S
C474 C478 1.389 1_565 S
C475 C473 1.426 . S
C475 C476 1.375 . S
C475 C479 1.532 . S
C476 H466 0.930 . S
C476 C475 1.375 . S
C476 C477 1.416 . S
C477 C476 1.416 . S
C477 C478 1.371 1_565 S
C478 H467 0.930 . S
C478 C474 1.389 1_545 S
C478 C477 1.371 1_545 S
C479 H468 0.970 . S
C479 H469 0.970 . S
C479 C475 1.532 . S
C479 C480 1.499 . S
C480 C479 1.499 . S
C480 C481 1.370 . S
C480 C485 1.415 . S
C481 H470 0.930 . S
C481 C480 1.370 . S
C481 C482 1.443 . S
C482 C481 1.443 . S
C482 C483 1.350 1_565 S
C483 H471 0.930 . S
C483 C482 1.350 1_545 S
C483 C484 1.393 1_545 S
C484 C483 1.393 1_565 S
C484 C485 1.387 . S
C485 H472 0.930 . S
C485 C480 1.415 . S
C485 C484 1.387 . S
H486 C494 0.930 . S
H487 C497 0.922 1_565 S
H488 C499 0.930 . S
H489 C500 0.970 . S
H490 C500 0.970 . S
H491 C502 0.930 . S
H492 C504 0.930 . S
H493 C506 0.930 . S
C494 H486 0.930 . S
C494 C495 1.382 1_565 S
C494 C496 1.426 . S
C495 C494 1.382 1_545 S
C495 C499 1.389 . S
C496 C494 1.426 . S
C496 C497 1.361 1_565 S
C496 C500 1.532 . S
C497 H487 0.922 1_545 S
C497 C496 1.361 1_545 S
C497 C498 1.439 . S
C498 C497 1.439 . S
C498 C499 1.371 . S
C499 H488 0.930 . S
C499 C495 1.389 . S
C499 C498 1.371 . S
C500 H489 0.970 . S
C500 H490 0.970 . S
C500 C496 1.532 . S
C500 C501 1.499 . S
C501 C500 1.499 . S
C501 C502 1.370 . S
C501 C506 1.415 . S
C502 H491 0.930 . S
C502 C501 1.370 . S
C502 C503 1.407 1_565 S
C503 C502 1.407 1_545 S
C503 C504 1.365 . S
C504 H492 0.930 . S
C504 C503 1.365 . S
C504 C505 1.393 . S
C505 C504 1.393 . S
C505 C506 1.387 1_545 S
C506 H493 0.930 . S
C506 C501 1.415 . S
C506 C505 1.387 1_565 S
H507 C515 0.930 . S
H508 C518 0.930 . S
H509 C520 0.930 . S
H510 C521 0.970 . S
H511 C521 0.970 . S
H512 C523 0.930 . S
H513 C525 0.930 . S
H514 C527 0.930 . S
C515 H507 0.930 . S
C515 C516 1.382 . S
C515 C517 1.426 . S
C516 C515 1.382 . S
C516 C520 1.389 1_455 S
C517 C515 1.426 . S
C517 C518 1.375 . S
C517 C521 1.532 . S
C518 H508 0.930 . S
C518 C517 1.375 . S
C518 C519 1.416 . S
C519 C518 1.416 . S
C519 C520 1.371 1_455 S
C520 H509 0.930 . S
C520 C516 1.389 1_655 S
C520 C519 1.371 1_655 S
C521 H510 0.970 . S
C521 H511 0.970 . S
C521 C517 1.532 . S
C521 C522 1.499 . S
C522 C521 1.499 . S
C522 C523 1.370 . S
C522 C527 1.415 . S
C523 H512 0.930 . S
C523 C522 1.370 . S
C523 C524 1.407 . S
C524 C523 1.407 . S
C524 C525 1.365 1_455 S
C525 H513 0.930 . S
C525 C524 1.365 1_655 S
C525 C526 1.393 1_655 S
C526 C525 1.393 1_455 S
C526 C527 1.387 . S
C527 H514 0.930 . S
C527 C522 1.415 . S
C527 C526 1.387 . S
H528 C536 0.930 . S
H529 C539 0.930 . S
H530 C541 0.930 . S
H531 C542 0.970 . S
H532 C542 0.970 . S
H533 C544 0.930 . S
H534 C546 0.930 . S
H535 C548 0.930 . S
C536 H528 0.930 . S
C536 C537 1.382 . S
C536 C538 1.426 . S
C537 C536 1.382 . S
C537 C541 1.389 . S
C538 C536 1.426 . S
C538 C539 1.375 . S
C538 C542 1.532 . S
C539 H529 0.930 . S
C539 C538 1.375 . S
C539 C540 1.416 . S
C540 C539 1.416 . S
C540 C541 1.371 . S
C541 H530 0.930 . S
C541 C537 1.389 . S
C541 C540 1.371 . S
C542 H531 0.970 . S
C542 H532 0.970 . S
C542 C538 1.532 . S
C542 C543 1.499 . S
C543 C542 1.499 . S
C543 C544 1.370 . S
C543 C548 1.415 . S
C544 H533 0.930 . S
C544 C543 1.370 . S
C544 C545 1.407 . S
C545 C544 1.407 . S
C545 C546 1.365 . S
C546 H534 0.930 . S
C546 C545 1.365 . S
C546 C547 1.393 . S
C547 C546 1.393 . S
C547 C548 1.387 . S
C548 H535 0.930 . S
C548 C543 1.415 . S
C548 C547 1.387 . S
H549 C557 0.930 . S
H550 C560 0.930 . S
H551 C562 0.930 . S
H552 C563 0.970 . S
H553 C563 0.970 . S
H554 C565 0.930 . S
H555 C567 0.930 . S
H556 C569 0.930 . S
C557 H549 0.930 . S
C557 C558 1.382 . S
C557 C559 1.426 . S
C558 C557 1.382 . S
C558 C562 1.389 . S
C559 C557 1.426 . S
C559 C560 1.375 . S
C559 C563 1.532 . S
C560 H550 0.930 . S
C560 C559 1.375 . S
C560 C561 1.416 . S
C561 C560 1.416 . S
C561 C562 1.371 . S
C562 H551 0.930 . S
C562 C558 1.389 . S
C562 C561 1.371 . S
C563 H552 0.970 . S
C563 H553 0.970 . S
C563 C559 1.532 . S
C563 C564 1.499 . S
C564 C563 1.499 . S
C564 C565 1.370 . S
C564 C569 1.415 . S
C565 H554 0.930 . S
C565 C564 1.370 . S
C565 C566 1.407 . S
C566 C565 1.407 . S
C566 C567 1.365 . S
C567 H555 0.930 . S
C567 C566 1.365 . S
C567 C568 1.393 . S
C568 C567 1.393 . S
C568 C569 1.387 . S
C569 H556 0.930 . S
C569 C564 1.415 . S
C569 C568 1.387 . S
H570 C578 0.930 . S
H571 C581 0.930 . S
H572 C583 0.930 . S
H573 C584 0.970 . S
H574 C584 0.970 . S
H575 C586 0.930 . S
H576 C588 0.930 . S
H577 C590 0.930 . S
C578 H570 0.930 . S
C578 C579 1.382 . S
C578 C580 1.426 . S
C579 C578 1.382 . S
C579 C583 1.389 . S
C580 C578 1.426 . S
C580 C581 1.375 . S
C580 C584 1.532 . S
C581 H571 0.930 . S
C581 C580 1.375 . S
C581 C582 1.416 . S
C582 C581 1.416 . S
C582 C583 1.371 . S
C583 H572 0.930 . S
C583 C579 1.389 . S
C583 C582 1.371 . S
C584 H573 0.970 . S
C584 H574 0.970 . S
C584 C580 1.532 . S
C584 C585 1.499 . S
C585 C584 1.499 . S
C585 C586 1.370 . S
C585 C590 1.415 . S
C586 H575 0.930 . S
C586 C585 1.370 . S
C586 C587 1.407 . S
C587 C586 1.407 . S
C587 C588 1.365 . S
C588 H576 0.930 . S
C588 C587 1.365 . S
C588 C589 1.393 . S
C589 C588 1.393 . S
C589 C590 1.387 . S
C590 H577 0.930 . S
C590 C585 1.415 . S
C590 C589 1.387 . S
H591 C599 0.930 . S
H592 C602 0.930 . S
H593 C604 0.930 . S
H594 C605 0.970 . S
H595 C605 0.970 . S
H596 C607 0.930 . S
H597 C609 0.930 . S
H598 C611 0.930 . S
C599 H591 0.930 . S
C599 C600 1.382 . S
C599 C601 1.426 . S
C600 C599 1.382 . S
C600 C604 1.389 . S
C601 C599 1.426 . S
C601 C602 1.375 . S
C601 C605 1.532 . S
C602 H592 0.930 . S
C602 C601 1.375 . S
C602 C603 1.416 . S
C603 C602 1.416 . S
C603 C604 1.371 . S
C604 H593 0.930 . S
C604 C600 1.389 . S
C604 C603 1.371 . S
C605 H594 0.970 . S
C605 H595 0.970 . S
C605 C601 1.532 . S
C605 C606 1.499 . S
C606 C605 1.499 . S
C606 C607 1.370 . S
C606 C611 1.415 . S
C607 H596 0.930 . S
C607 C606 1.370 . S
C607 C608 1.407 . S
C608 C607 1.407 . S
C608 C609 1.365 . S
C609 H597 0.930 . S
C609 C608 1.365 . S
C609 C610 1.393 . S
C610 C609 1.393 . S
C610 C611 1.387 . S
C611 H598 0.930 . S
C611 C606 1.415 . S
C611 C610 1.387 . S
H612 C624 0.930 1_655 S
H613 C626 0.930 . S
H614 C627 0.930 . S
H615 C631 0.959 . S
H616 C631 0.993 . S
H617 C631 0.961 . S
H618 C632 0.960 . S
H619 C632 0.961 . S
H620 C632 0.959 . S
H621 C635 0.929 . S
H622 C636 0.931 . S
H623 C638 0.930 1_655 S
C624 H612 0.930 1_455 S
C624 C625 1.399 . S
C624 C629 1.399 . S
C625 C624 1.399 . S
C625 C626 1.376 . S
C626 H613 0.930 . S
C626 C625 1.376 . S
C626 C627 1.388 . S
C627 H614 0.930 . S
C627 C626 1.388 . S
C627 C628 1.390 . S
C628 C627 1.390 . S
C628 C629 1.394 . S
C628 C634 1.465 . S
C629 C624 1.399 . S
C629 C628 1.394 . S
C629 C630 1.516 1_455 S
C630 C629 1.516 1_655 S
C630 C631 1.502 1_655 S
C630 C632 1.561 . S
C630 C633 1.526 1_655 S
C631 H615 0.959 . S
C631 H616 0.993 . S
C631 H617 0.961 . S
C631 C630 1.502 1_455 S
C632 H618 0.960 . S
C632 H619 0.961 . S
C632 H620 0.959 . S
C632 C630 1.561 . S
C633 C630 1.526 1_455 S
C633 C634 1.396 . S
C633 C638 1.390 . S
C634 C628 1.465 . S
C634 C633 1.396 . S
C634 C635 1.399 . S
C635 H621 0.929 . S
C635 C634 1.399 . S
C635 C636 1.385 . S
C636 H622 0.931 . S
C636 C635 1.385 . S
C636 C637 1.389 . S
C637 C636 1.389 . S
C637 C638 1.387 . S
C638 H623 0.930 1_455 S
C638 C633 1.390 . S
C638 C637 1.387 . S
H639 C651 0.930 . S
H640 C653 0.930 . S
H641 C654 0.930 . S
H642 C658 0.959 . S
H643 C658 0.959 . S
H644 C658 0.961 . S
H645 C659 0.960 . S
H646 C659 0.961 . S
H647 C659 0.959 . S
H648 C662 0.929 . S
H649 C663 0.931 . S
H650 C665 0.930 . S
C651 H639 0.930 . S
C651 C652 1.399 . S
C651 C656 1.399 . S
C652 C651 1.399 . S
C652 C653 1.376 . S
C653 H640 0.930 . S
C653 C652 1.376 . S
C653 C654 1.388 . S
C654 H641 0.930 . S
C654 C653 1.388 . S
C654 C655 1.390 . S
C655 C654 1.390 . S
C655 C656 1.394 . S
C655 C661 1.465 . S
C656 C651 1.399 . S
C656 C655 1.394 . S
C656 C657 1.516 . S
C657 C656 1.516 . S
C657 C658 1.502 . S
C657 C659 1.561 . S
C657 C660 1.526 . S
C658 H642 0.959 . S
C658 H643 0.959 . S
C658 H644 0.961 . S
C658 C657 1.502 . S
C659 H645 0.960 . S
C659 H646 0.961 . S
C659 H647 0.959 . S
C659 C657 1.561 . S
C660 C657 1.526 . S
C660 C661 1.396 . S
C660 C665 1.390 . S
C661 C655 1.465 . S
C661 C660 1.396 . S
C661 C662 1.399 . S
C662 H648 0.929 . S
C662 C661 1.399 . S
C662 C663 1.385 . S
C663 H649 0.931 . S
C663 C662 1.385 . S
C663 C664 1.389 . S
C664 C663 1.389 . S
C664 C665 1.387 . S
C665 H650 0.930 . S
C665 C660 1.390 . S
C665 C664 1.387 . S
H666 C678 0.930 . S
H667 C680 0.930 . S
H668 C681 0.930 . S
H669 C685 0.959 . S
H670 C685 0.959 . S
H671 C685 0.961 . S
H672 C686 0.960 . S
H673 C686 0.961 . S
H674 C686 0.959 . S
H675 C689 0.929 . S
H676 C690 0.931 . S
H677 C692 0.930 . S
C678 H666 0.930 . S
C678 C679 1.399 1_565 S
C678 C683 1.399 . S
C679 C678 1.399 1_545 S
C679 C680 1.376 . S
C680 H667 0.930 . S
C680 C679 1.376 . S
C680 C681 1.388 . S
C681 H668 0.930 . S
C681 C680 1.388 . S
C681 C682 1.390 . S
C682 C681 1.390 . S
C682 C683 1.394 1_545 S
C682 C688 1.465 . S
C683 C678 1.399 . S
C683 C682 1.394 1_565 S
C683 C684 1.516 . S
C684 C683 1.516 . S
C684 C685 1.502 . S
C684 C686 1.561 . S
C684 C687 1.526 . S
C685 H669 0.959 . S
C685 H670 0.959 . S
C685 H671 0.961 . S
C685 C684 1.502 . S
C686 H672 0.960 . S
C686 H673 0.961 . S
C686 H674 0.959 . S
C686 C684 1.561 . S
C687 C684 1.526 . S
C687 C688 1.396 1_565 S
C687 C692 1.390 . S
C688 C682 1.465 . S
C688 C687 1.396 1_545 S
C688 C689 1.399 . S
C689 H675 0.929 . S
C689 C688 1.399 . S
C689 C690 1.385 . S
C690 H676 0.931 . S
C690 C689 1.385 . S
C690 C691 1.389 . S
C691 C690 1.389 . S
C691 C692 1.387 1_545 S
C692 H677 0.930 . S
C692 C687 1.390 . S
C692 C691 1.387 1_565 S
H693 C705 0.930 . S
H694 C707 0.930 . S
H695 C708 0.930 . S
H696 C712 0.959 . S
H697 C712 0.959 . S
H698 C712 0.961 . S
H699 C713 0.960 . S
H700 C713 0.961 . S
H701 C713 0.959 . S
H702 C716 0.929 . S
H703 C717 0.931 . S
H704 C719 0.930 . S
C705 H693 0.930 . S
C705 C706 1.399 . S
C705 C710 1.399 . S
C706 C705 1.399 . S
C706 C707 1.376 1_545 S
C707 H694 0.930 . S
C707 C706 1.376 1_565 S
C707 C708 1.388 . S
C708 H695 0.930 . S
C708 C707 1.388 . S
C708 C709 1.401 . S
C709 C708 1.401 . S
C709 C710 1.370 1_565 S
C709 C715 1.460 . S
C710 C705 1.399 . S
C710 C709 1.370 1_545 S
C710 C711 1.516 . S
C711 C710 1.516 . S
C711 C712 1.502 . S
C711 C713 1.561 . S
C711 C714 1.526 . S
C712 H696 0.959 . S
C712 H697 0.959 . S
C712 H698 0.961 . S
C712 C711 1.502 . S
C713 H699 0.960 . S
C713 H700 0.961 . S
C713 H701 0.959 . S
C713 C711 1.561 . S
C714 C711 1.526 . S
C714 C715 1.368 1_545 S
C714 C719 1.390 . S
C715 C709 1.460 . S
C715 C714 1.368 1_565 S
C715 C716 1.434 . S
C716 H702 0.929 . S
C716 C715 1.434 . S
C716 C717 1.385 . S
C717 H703 0.931 . S
C717 C716 1.385 . S
C717 C718 1.389 1_565 S
C718 C717 1.389 1_545 S
C718 C719 1.387 . S
C719 H704 0.930 . S
C719 C714 1.390 . S
C719 C718 1.387 . S
H720 C732 0.930 . S
H721 C734 0.930 . S
H722 C735 0.930 . S
H723 C739 0.959 . S
H724 C739 0.959 . S
H725 C739 0.961 . S
H726 C740 0.960 . S
H727 C740 0.961 . S
H728 C740 0.959 1_455 S
H729 C743 0.929 . S
H730 C744 0.931 . S
H731 C746 0.930 . S
C732 H720 0.930 . S
C732 C733 1.399 1_655 S
C732 C737 1.399 . S
C733 C732 1.399 1_455 S
C733 C734 1.376 . S
C734 H721 0.930 . S
C734 C733 1.376 . S
C734 C735 1.388 . S
C735 H722 0.930 . S
C735 C734 1.388 . S
C735 C736 1.390 . S
C736 C735 1.390 . S
C736 C737 1.394 1_455 S
C736 C742 1.465 . S
C737 C732 1.399 . S
C737 C736 1.394 1_655 S
C737 C738 1.516 . S
C738 C737 1.516 . S
C738 C739 1.502 . S
C738 C740 1.561 . S
C738 C741 1.526 . S
C739 H723 0.959 . S
C739 H724 0.959 . S
C739 H725 0.961 . S
C739 C738 1.502 . S
C740 H726 0.960 . S
C740 H727 0.961 . S
C740 H728 0.959 1_655 S
C740 C738 1.561 . S
C741 C738 1.526 . S
C741 C742 1.396 1_655 S
C741 C746 1.390 . S
C742 C736 1.465 . S
C742 C741 1.396 1_455 S
C742 C743 1.399 . S
C743 H729 0.929 . S
C743 C742 1.399 . S
C743 C744 1.385 . S
C744 H730 0.931 . S
C744 C743 1.385 . S
C744 C745 1.389 . S
C745 C744 1.389 . S
C745 C746 1.387 1_455 S
C746 H731 0.930 . S
C746 C741 1.390 . S
C746 C745 1.387 1_655 S
H747 C759 0.930 . S
H748 C761 0.930 . S
H749 C762 0.930 . S
H750 C766 0.959 . S
H751 C766 0.959 . S
H752 C766 0.961 . S
H753 C767 0.960 . S
H754 C767 0.961 . S
H755 C767 0.959 . S
H756 C770 0.929 . S
H757 C771 0.931 . S
H758 C773 0.930 . S
C759 H747 0.930 . S
C759 C760 1.399 . S
C759 C764 1.399 . S
C760 C759 1.399 . S
C760 C761 1.376 . S
C761 H748 0.930 . S
C761 C760 1.376 . S
C761 C762 1.388 . S
C762 H749 0.930 . S
C762 C761 1.388 . S
C762 C763 1.390 . S
C763 C762 1.390 . S
C763 C764 1.394 . S
C763 C769 1.465 . S
C764 C759 1.399 . S
C764 C763 1.394 . S
C764 C765 1.516 . S
C765 C764 1.516 . S
C765 C766 1.502 . S
C765 C767 1.561 . S
C765 C768 1.526 . S
C766 H750 0.959 . S
C766 H751 0.959 . S
C766 H752 0.961 . S
C766 C765 1.502 . S
C767 H753 0.960 . S
C767 H754 0.961 . S
C767 H755 0.959 . S
C767 C765 1.561 . S
C768 C765 1.526 . S
C768 C769 1.396 . S
C768 C773 1.390 . S
C769 C763 1.465 . S
C769 C768 1.396 . S
C769 C770 1.399 . S
C770 H756 0.929 . S
C770 C769 1.399 . S
C770 C771 1.385 . S
C771 H757 0.931 . S
C771 C770 1.385 . S
C771 C772 1.389 . S
C772 C771 1.389 . S
C772 C773 1.387 . S
C773 H758 0.930 . S
C773 C768 1.390 . S
C773 C772 1.387 . S
H774 C786 0.930 . S
H775 C788 0.930 . S
H776 C789 0.930 . S
H777 C793 0.959 . S
H778 C793 0.959 . S
H779 C793 0.961 . S
H780 C794 0.960 . S
H781 C794 0.961 . S
H782 C794 0.959 . S
H783 C797 0.929 . S
H784 C798 0.931 . S
H785 C800 0.930 . S
C786 H774 0.930 . S
C786 C787 1.462 . S
C786 C791 1.399 . S
C787 C786 1.462 . S
C787 C788 1.330 1_455 S
C788 H775 0.930 . S
C788 C787 1.330 1_655 S
C788 C789 1.388 . S
C789 H776 0.930 . S
C789 C788 1.388 . S
C789 C790 1.390 . S
C790 C789 1.390 . S
C790 C791 1.394 1_655 S
C790 C796 1.465 . S
C791 C786 1.399 . S
C791 C790 1.394 1_455 S
C791 C792 1.516 . S
C792 C791 1.516 . S
C792 C793 1.502 . S
C792 C794 1.561 . S
C792 C795 1.526 . S
C793 H777 0.959 . S
C793 H778 0.959 . S
C793 H779 0.961 . S
C793 C792 1.502 . S
C794 H780 0.960 . S
C794 H781 0.961 . S
C794 H782 0.959 . S
C794 C792 1.561 . S
C795 C792 1.526 . S
C795 C796 1.396 1_455 S
C795 C800 1.390 . S
C796 C790 1.465 . S
C796 C795 1.396 1_655 S
C796 C797 1.399 . S
C797 H783 0.929 . S
C797 C796 1.399 . S
C797 C798 1.385 . S
C798 H784 0.931 . S
C798 C797 1.385 . S
C798 C799 1.389 . S
C799 C798 1.389 . S
C799 C800 1.387 1_655 S
C800 H785 0.930 . S
C800 C795 1.390 . S
C800 C799 1.387 1_455 S
H801 C813 0.930 . S
H802 C815 0.930 . S
H803 C816 0.930 . S
H804 C820 0.959 . S
H805 C820 0.959 . S
H806 C820 0.961 . S
H807 C821 0.960 . S
H808 C821 0.961 . S
H809 C821 0.959 . S
H810 C824 0.929 . S
H811 C825 0.931 . S
H812 C827 0.930 . S
C813 H801 0.930 . S
C813 C814 1.399 . S
C813 C818 1.399 . S
C814 C813 1.399 . S
C814 C815 1.376 . S
C815 H802 0.930 . S
C815 C814 1.376 . S
C815 C816 1.388 . S
C816 H803 0.930 . S
C816 C815 1.388 . S
C816 C817 1.390 . S
C817 C816 1.390 . S
C817 C818 1.394 . S
C817 C823 1.465 . S
C818 C813 1.399 . S
C818 C817 1.394 . S
C818 C819 1.516 . S
C819 C818 1.516 . S
C819 C820 1.502 . S
C819 C821 1.561 . S
C819 C822 1.526 . S
C820 H804 0.959 . S
C820 H805 0.959 . S
C820 H806 0.961 . S
C820 C819 1.502 . S
C821 H807 0.960 . S
C821 H808 0.961 . S
C821 H809 0.959 . S
C821 C819 1.561 . S
C822 C819 1.526 . S
C822 C823 1.396 . S
C822 C827 1.390 . S
C823 C817 1.465 . S
C823 C822 1.396 . S
C823 C824 1.399 . S
C824 H810 0.929 . S
C824 C823 1.399 . S
C824 C825 1.385 . S
C825 H811 0.931 . S
C825 C824 1.385 . S
C825 C826 1.389 . S
C826 C825 1.389 . S
C826 C827 1.387 . S
C827 H812 0.930 . S
C827 C822 1.390 . S
C827 C826 1.387 . S
H828 C840 0.930 . S
H829 C842 0.930 . S
H830 C843 0.930 . S
H831 C847 0.959 . S
H832 C847 0.959 . S
H833 C847 0.961 . S
H834 C848 0.960 . S
H835 C848 0.961 . S
H836 C848 0.959 . S
H837 C851 0.929 . S
H838 C852 0.931 . S
H839 C854 0.930 . S
C840 H828 0.930 . S
C840 C841 1.399 1_565 S
C840 C845 1.376 1_565 S
C841 C840 1.399 1_545 S
C841 C842 1.376 . S
C842 H829 0.930 . S
C842 C841 1.376 . S
C842 C843 1.388 . S
C843 H830 0.930 . S
C843 C842 1.388 . S
C843 C844 1.390 . S
C844 C843 1.390 . S
C844 C845 1.433 . S
C844 C850 1.465 . S
C845 C840 1.376 1_545 S
C845 C844 1.433 . S
C845 C846 1.507 1_545 S
C846 C845 1.507 1_565 S
C846 C847 1.502 . S
C846 C848 1.561 . S
C846 C849 1.526 1_565 S
C847 H831 0.959 . S
C847 H832 0.959 . S
C847 H833 0.961 . S
C847 C846 1.502 . S
C848 H834 0.960 . S
C848 H835 0.961 . S
C848 H836 0.959 . S
C848 C846 1.561 . S
C849 C846 1.526 1_545 S
C849 C850 1.396 . S
C849 C854 1.390 1_545 S
C850 C844 1.465 . S
C850 C849 1.396 . S
C850 C851 1.399 . S
C851 H837 0.929 . S
C851 C850 1.399 . S
C851 C852 1.385 . S
C852 H838 0.931 . S
C852 C851 1.385 . S
C852 C853 1.389 . S
C853 C852 1.389 . S
C853 C854 1.387 1_545 S
C854 H839 0.930 . S
C854 C849 1.390 1_565 S
C854 C853 1.387 1_565 S
H855 C867 0.930 . S
H856 C869 0.930 . S
H857 C870 0.930 . S
H858 C874 0.959 . S
H859 C874 0.959 . S
H860 C874 0.961 . S
H861 C875 0.960 . S
H862 C875 0.961 . S
H863 C875 0.959 . S
H864 C878 0.929 . S
H865 C879 0.931 . S
H866 C881 0.930 . S
C867 H855 0.930 . S
C867 C868 1.399 . S
C867 C872 1.399 . S
C868 C867 1.399 . S
C868 C869 1.376 1_545 S
C869 H856 0.930 . S
C869 C868 1.376 1_565 S
C869 C870 1.388 . S
C870 H857 0.930 . S
C870 C869 1.388 . S
C870 C871 1.390 . S
C871 C870 1.390 . S
C871 C872 1.394 1_565 S
C871 C877 1.465 . S
C872 C867 1.399 . S
C872 C871 1.394 1_545 S
C872 C873 1.516 . S
C873 C872 1.516 . S
C873 C874 1.502 . S
C873 C875 1.561 . S
C873 C876 1.526 . S
C874 H858 0.959 . S
C874 H859 0.959 . S
C874 H860 0.961 . S
C874 C873 1.502 . S
C875 H861 0.960 . S
C875 H862 0.961 . S
C875 H863 0.959 . S
C875 C873 1.561 . S
C876 C873 1.526 . S
C876 C877 1.396 1_545 S
C876 C881 1.390 . S
C877 C871 1.465 . S
C877 C876 1.396 1_565 S
C877 C878 1.399 . S
C878 H864 0.929 . S
C878 C877 1.399 . S
C878 C879 1.385 . S
C879 H865 0.931 . S
C879 C878 1.385 . S
C879 C880 1.423 . S
C880 C879 1.423 . S
C880 C881 1.376 1_565 S
C881 H866 0.930 . S
C881 C876 1.390 . S
C881 C880 1.376 1_545 S
H882 C894 0.930 . S
H883 C896 0.930 . S
H884 C897 0.930 . S
H885 C901 0.959 . S
H886 C901 0.959 . S
H887 C901 0.961 . S
H888 C902 0.960 . S
H889 C902 0.961 . S
H890 C902 0.959 . S
H891 C905 0.929 . S
H892 C906 0.931 . S
H893 C908 0.930 . S
C894 H882 0.930 . S
C894 C895 1.399 1_655 S
C894 C899 1.377 1_655 S
C895 C894 1.399 1_455 S
C895 C896 1.376 . S
C896 H883 0.930 . S
C896 C895 1.376 . S
C896 C897 1.388 . S
C897 H884 0.930 . S
C897 C896 1.388 . S
C897 C898 1.390 . S
C898 C897 1.390 . S
C898 C899 1.433 . S
C898 C904 1.465 . S
C899 C894 1.377 1_455 S
C899 C898 1.433 . S
C899 C900 1.506 1_455 S
C900 C899 1.506 1_655 S
C900 C901 1.502 . S
C900 C902 1.561 . S
C900 C903 1.526 1_655 S
C901 H885 0.959 . S
C901 H886 0.959 . S
C901 H887 0.961 . S
C901 C900 1.502 . S
C902 H888 0.960 . S
C902 H889 0.961 . S
C902 H890 0.959 . S
C902 C900 1.561 . S
C903 C900 1.526 1_455 S
C903 C904 1.396 . S
C903 C908 1.390 1_455 S
C904 C898 1.465 . S
C904 C903 1.396 . S
C904 C905 1.399 . S
C905 H891 0.929 . S
C905 C904 1.399 . S
C905 C906 1.385 . S
C906 H892 0.931 . S
C906 C905 1.385 . S
C906 C907 1.389 . S
C907 C906 1.389 . S
C907 C908 1.387 1_455 S
C908 H893 0.930 . S
C908 C903 1.390 1_655 S
C908 C907 1.387 1_655 S
H909 C921 0.930 . S
H910 C923 0.930 . S
H911 C924 0.930 . S
H912 C928 0.959 . S
H913 C928 0.959 . S
H914 C928 0.961 . S
H915 C929 0.960 . S
H916 C929 0.961 . S
H917 C929 0.959 . S
H918 C932 0.929 . S
H919 C933 0.931 . S
H920 C935 0.930 . S
C921 H909 0.930 . S
C921 C922 1.399 . S
C921 C926 1.399 . S
C922 C921 1.399 . S
C922 C923 1.376 . S
C923 H910 0.930 . S
C923 C922 1.376 . S
C923 C924 1.388 . S
C924 H911 0.930 . S
C924 C923 1.388 . S
C924 C925 1.390 . S
C925 C924 1.390 . S
C925 C926 1.394 . S
C925 C931 1.465 . S
C926 C921 1.399 . S
C926 C925 1.394 . S
C926 C927 1.516 . S
C927 C926 1.516 . S
C927 C928 1.502 . S
C927 C929 1.561 . S
C927 C930 1.526 . S
C928 H912 0.959 . S
C928 H913 0.959 . S
C928 H914 0.961 . S
C928 C927 1.502 . S
C929 H915 0.960 . S
C929 H916 0.961 . S
C929 H917 0.959 . S
C929 C927 1.561 . S
C930 C927 1.526 . S
C930 C931 1.396 . S
C930 C935 1.390 . S
C931 C925 1.465 . S
C931 C930 1.396 . S
C931 C932 1.399 . S
C932 H918 0.929 . S
C932 C931 1.399 . S
C932 C933 1.385 . S
C933 H919 0.931 . S
C933 C932 1.385 . S
C933 C934 1.389 . S
C934 C933 1.389 . S
C934 C935 1.387 . S
C935 H920 0.930 . S
C935 C930 1.390 . S
C935 C934 1.387 . S
H936 C948 0.930 . S
H937 C950 0.930 . S
H938 C951 0.930 . S
H939 C955 0.959 . S
H940 C955 0.959 . S
H941 C955 0.961 . S
H942 C956 0.960 . S
H943 C956 0.961 . S
H944 C956 0.959 . S
H945 C959 0.929 . S
H946 C960 0.931 . S
H947 C962 0.930 . S
C948 H936 0.930 . S
C948 C949 1.399 . S
C948 C953 1.399 . S
C949 C948 1.399 . S
C949 C950 1.376 . S
C950 H937 0.930 . S
C950 C949 1.376 . S
C950 C951 1.388 . S
C951 H938 0.930 . S
C951 C950 1.388 . S
C951 C952 1.390 . S
C952 C951 1.390 . S
C952 C953 1.394 . S
C952 C958 1.465 . S
C953 C948 1.399 . S
C953 C952 1.394 . S
C953 C954 1.516 . S
C954 C953 1.516 . S
C954 C955 1.502 . S
C954 C956 1.561 . S
C954 C957 1.526 . S
C955 H939 0.959 . S
C955 H940 0.959 . S
C955 H941 0.961 . S
C955 C954 1.502 . S
C956 H942 0.960 . S
C956 H943 0.961 . S
C956 H944 0.959 . S
C956 C954 1.561 . S
C957 C954 1.526 . S
C957 C958 1.396 . S
C957 C962 1.390 . S
C958 C952 1.465 . S
C958 C957 1.396 . S
C958 C959 1.399 . S
C959 H945 0.929 . S
C959 C958 1.399 . S
C959 C960 1.385 . S
C960 H946 0.931 . S
C960 C959 1.385 . S
C960 C961 1.389 . S
C961 C960 1.389 . S
C961 C962 1.387 . S
C962 H947 0.930 . S
C962 C957 1.390 . S
C962 C961 1.387 . S
H963 C975 0.930 . S
H964 C977 0.930 . S
H965 C978 0.930 . S
H966 C982 0.959 . S
H967 C982 0.959 . S
H968 C982 0.961 . S
H969 C983 0.960 . S
H970 C983 0.961 . S
H971 C983 0.959 . S
H972 C986 0.929 . S
H973 C987 0.931 . S
H974 C989 0.930 . S
C975 H963 0.930 . S
C975 C976 1.399 . S
C975 C980 1.399 . S
C976 C975 1.399 . S
C976 C977 1.376 . S
C977 H964 0.930 . S
C977 C976 1.376 . S
C977 C978 1.388 . S
C978 H965 0.930 . S
C978 C977 1.388 . S
C978 C979 1.390 . S
C979 C978 1.390 . S
C979 C980 1.394 . S
C979 C985 1.465 . S
C980 C975 1.399 . S
C980 C979 1.394 . S
C980 C981 1.516 . S
C981 C980 1.516 . S
C981 C982 1.502 . S
C981 C983 1.561 . S
C981 C984 1.526 . S
C982 H966 0.959 . S
C982 H967 0.959 . S
C982 H968 0.961 . S
C982 C981 1.502 . S
C983 H969 0.960 . S
C983 H970 0.961 . S
C983 H971 0.959 . S
C983 C981 1.561 . S
C984 C981 1.526 . S
C984 C985 1.396 . S
C984 C989 1.390 . S
C985 C979 1.465 . S
C985 C984 1.396 . S
C985 C986 1.399 . S
C986 H972 0.929 . S
C986 C985 1.399 . S
C986 C987 1.385 . S
C987 H973 0.931 . S
C987 C986 1.385 . S
C987 C988 1.389 . S
C988 C987 1.389 . S
C988 C989 1.387 . S
C989 H974 0.930 . S
C989 C984 1.390 . S
C989 C988 1.387 . S
H990 C1002 0.930 . S
H991 C1004 0.930 . S
H992 C1005 0.930 . S
H993 C1009 0.959 . S
H994 C1009 0.959 . S
H995 C1009 0.961 . S
H996 C1010 0.960 . S
H997 C1010 0.961 . S
H998 C1010 0.959 . S
H999 C1013 0.929 . S
H1000 C1014 0.931 . S
H1001 C1016 0.930 . S
C1002 H990 0.930 . S
C1002 C1003 1.399 . S
C1002 C1007 1.399 . S
C1003 C1002 1.399 . S
C1003 C1004 1.376 . S
C1004 H991 0.930 . S
C1004 C1003 1.376 . S
C1004 C1005 1.388 . S
C1005 H992 0.930 . S
C1005 C1004 1.388 . S
C1005 C1006 1.390 . S
C1006 C1005 1.390 . S
C1006 C1007 1.394 . S
C1006 C1012 1.465 . S
C1007 C1002 1.399 . S
C1007 C1006 1.394 . S
C1007 C1008 1.516 . S
C1008 C1007 1.516 . S
C1008 C1009 1.502 . S
C1008 C1010 1.561 . S
C1008 C1011 1.526 . S
C1009 H993 0.959 . S
C1009 H994 0.959 . S
C1009 H995 0.961 . S
C1009 C1008 1.502 . S
C1010 H996 0.960 . S
C1010 H997 0.961 . S
C1010 H998 0.959 . S
C1010 C1008 1.561 . S
C1011 C1008 1.526 . S
C1011 C1012 1.396 . S
C1011 C1016 1.390 . S
C1012 C1006 1.465 . S
C1012 C1011 1.396 . S
C1012 C1013 1.399 . S
C1013 H999 0.929 . S
C1013 C1012 1.399 . S
C1013 C1014 1.385 . S
C1014 H1000 0.931 . S
C1014 C1013 1.385 . S
C1014 C1015 1.389 . S
C1015 C1014 1.389 . S
C1015 C1016 1.387 . S
C1016 H1001 0.930 . S
C1016 C1011 1.390 . S
C1016 C1015 1.387 . S
H1017 C1029 0.930 . S
H1018 C1031 0.930 . S
H1019 C1032 0.930 . S
H1020 C1036 0.959 . S
H1021 C1036 0.959 . S
H1022 C1036 0.961 . S
H1023 C1037 0.960 . S
H1024 C1037 0.961 . S
H1025 C1037 0.959 . S
H1026 C1040 0.929 . S
H1027 C1041 0.931 . S
H1028 C1043 0.930 . S
C1029 H1017 0.930 . S
C1029 C1030 1.399 . S
C1029 C1034 1.399 . S
C1030 C1029 1.399 . S
C1030 C1031 1.376 . S
C1031 H1018 0.930 . S
C1031 C1030 1.376 . S
C1031 C1032 1.388 . S
C1032 H1019 0.930 . S
C1032 C1031 1.388 . S
C1032 C1033 1.390 . S
C1033 C1032 1.390 . S
C1033 C1034 1.394 . S
C1033 C1039 1.465 . S
C1034 C1029 1.399 . S
C1034 C1033 1.394 . S
C1034 C1035 1.516 . S
C1035 C1034 1.516 . S
C1035 C1036 1.502 . S
C1035 C1037 1.561 . S
C1035 C1038 1.526 . S
C1036 H1020 0.959 . S
C1036 H1021 0.959 . S
C1036 H1022 0.961 . S
C1036 C1035 1.502 . S
C1037 H1023 0.960 . S
C1037 H1024 0.961 . S
C1037 H1025 0.959 . S
C1037 C1035 1.561 . S
C1038 C1035 1.526 . S
C1038 C1039 1.396 . S
C1038 C1043 1.390 . S
C1039 C1033 1.465 . S
C1039 C1038 1.396 . S
C1039 C1040 1.399 . S
C1040 H1026 0.929 . S
C1040 C1039 1.399 . S
C1040 C1041 1.385 . S
C1041 H1027 0.931 . S
C1041 C1040 1.385 . S
C1041 C1042 1.389 . S
C1042 C1041 1.389 . S
C1042 C1043 1.387 . S
C1043 H1028 0.930 . S
C1043 C1038 1.390 . S
C1043 C1042 1.387 . S
H1044 C1056 0.930 . S
H1045 C1058 0.930 . S
H1046 C1059 0.930 . S
H1047 C1063 0.959 . S
H1048 C1063 0.959 . S
H1049 C1063 0.961 . S
H1050 C1064 0.960 . S
H1051 C1064 0.961 . S
H1052 C1064 0.959 . S
H1053 C1067 0.929 . S
H1054 C1068 0.931 . S
H1055 C1070 0.930 . S
C1056 H1044 0.930 . S
C1056 C1057 1.399 . S
C1056 C1061 1.399 . S
C1057 C1056 1.399 . S
C1057 C1058 1.376 . S
C1058 H1045 0.930 . S
C1058 C1057 1.376 . S
C1058 C1059 1.388 . S
C1059 H1046 0.930 . S
C1059 C1058 1.388 . S
C1059 C1060 1.390 . S
C1060 C1059 1.390 . S
C1060 C1061 1.394 . S
C1060 C1066 1.465 . S
C1061 C1056 1.399 . S
C1061 C1060 1.394 . S
C1061 C1062 1.516 . S
C1062 C1061 1.516 . S
C1062 C1063 1.502 . S
C1062 C1064 1.561 . S
C1062 C1065 1.526 . S
C1063 H1047 0.959 . S
C1063 H1048 0.959 . S
C1063 H1049 0.961 . S
C1063 C1062 1.502 . S
C1064 H1050 0.960 . S
C1064 H1051 0.961 . S
C1064 H1052 0.959 . S
C1064 C1062 1.561 . S
C1065 C1062 1.526 . S
C1065 C1066 1.396 . S
C1065 C1070 1.390 . S
C1066 C1060 1.465 . S
C1066 C1065 1.396 . S
C1066 C1067 1.399 . S
C1067 H1053 0.929 . S
C1067 C1066 1.399 . S
C1067 C1068 1.385 . S
C1068 H1054 0.931 . S
C1068 C1067 1.385 . S
C1068 C1069 1.389 . S
C1069 C1068 1.389 . S
C1069 C1070 1.387 . S
C1070 H1055 0.930 . S
C1070 C1065 1.390 . S
C1070 C1069 1.387 . S
H1071 C1083 0.930 . S
H1072 C1085 0.930 . S
H1073 C1086 0.930 . S
H1074 C1090 0.959 . S
H1075 C1090 0.959 . S
H1076 C1090 0.961 . S
H1077 C1091 0.960 . S
H1078 C1091 0.961 . S
H1079 C1091 0.959 . S
H1080 C1094 0.929 . S
H1081 C1095 0.931 . S
H1082 C1097 0.930 . S
C1083 H1071 0.930 . S
C1083 C1084 1.399 . S
C1083 C1088 1.399 . S
C1084 C1083 1.399 . S
C1084 C1085 1.376 . S
C1085 H1072 0.930 . S
C1085 C1084 1.376 . S
C1085 C1086 1.388 . S
C1086 H1073 0.930 . S
C1086 C1085 1.388 . S
C1086 C1087 1.390 . S
C1087 C1086 1.390 . S
C1087 C1088 1.394 . S
C1087 C1093 1.465 . S
C1088 C1083 1.399 . S
C1088 C1087 1.394 . S
C1088 C1089 1.516 . S
C1089 C1088 1.516 . S
C1089 C1090 1.502 . S
C1089 C1091 1.561 . S
C1089 C1092 1.526 . S
C1090 H1074 0.959 . S
C1090 H1075 0.959 . S
C1090 H1076 0.961 . S
C1090 C1089 1.502 . S
C1091 H1077 0.960 . S
C1091 H1078 0.961 . S
C1091 H1079 0.959 . S
C1091 C1089 1.561 . S
C1092 C1089 1.526 . S
C1092 C1093 1.396 . S
C1092 C1097 1.390 . S
C1093 C1087 1.465 . S
C1093 C1092 1.396 . S
C1093 C1094 1.399 . S
C1094 H1080 0.929 . S
C1094 C1093 1.399 . S
C1094 C1095 1.385 . S
C1095 H1081 0.931 . S
C1095 C1094 1.385 . S
C1095 C1096 1.389 . S
C1096 C1095 1.389 . S
C1096 C1097 1.387 . S
C1097 H1082 0.930 . S
C1097 C1092 1.390 . S
C1097 C1096 1.387 . S
H1098 C1110 0.930 . S
H1099 C1112 0.930 . S
H1100 C1113 0.930 . S
H1101 C1117 0.959 . S
H1102 C1117 0.959 . S
H1103 C1117 0.961 . S
H1104 C1118 0.960 . S
H1105 C1118 0.961 . S
H1106 C1118 0.959 . S
H1107 C1121 0.929 . S
H1108 C1122 0.931 . S
H1109 C1124 0.930 . S
C1110 H1098 0.930 . S
C1110 C1111 1.399 . S
C1110 C1115 1.399 . S
C1111 C1110 1.399 . S
C1111 C1112 1.376 . S
C1112 H1099 0.930 . S
C1112 C1111 1.376 . S
C1112 C1113 1.388 . S
C1113 H1100 0.930 . S
C1113 C1112 1.388 . S
C1113 C1114 1.390 . S
C1114 C1113 1.390 . S
C1114 C1115 1.394 . S
C1114 C1120 1.465 . S
C1115 C1110 1.399 . S
C1115 C1114 1.394 . S
C1115 C1116 1.516 . S
C1116 C1115 1.516 . S
C1116 C1117 1.502 . S
C1116 C1118 1.561 . S
C1116 C1119 1.526 . S
C1117 H1101 0.959 . S
C1117 H1102 0.959 . S
C1117 H1103 0.961 . S
C1117 C1116 1.502 . S
C1118 H1104 0.960 . S
C1118 H1105 0.961 . S
C1118 H1106 0.959 . S
C1118 C1116 1.561 . S
C1119 C1116 1.526 . S
C1119 C1120 1.396 . S
C1119 C1124 1.390 . S
C1120 C1114 1.465 . S
C1120 C1119 1.396 . S
C1120 C1121 1.399 . S
C1121 H1107 0.929 . S
C1121 C1120 1.399 . S
C1121 C1122 1.385 . S
C1122 H1108 0.931 . S
C1122 C1121 1.385 . S
C1122 C1123 1.389 . S
C1123 C1122 1.389 . S
C1123 C1124 1.387 . S
C1124 H1109 0.930 . S
C1124 C1119 1.390 . S
C1124 C1123 1.387 . S
H1125 C1137 0.930 . S
H1126 C1139 0.930 . S
H1127 C1140 0.930 . S
H1128 C1144 0.959 . S
H1129 C1144 0.959 . S
H1130 C1144 0.961 . S
H1131 C1145 0.960 . S
H1132 C1145 0.961 . S
H1133 C1145 0.959 . S
H1134 C1148 0.929 . S
H1135 C1149 0.931 . S
H1136 C1151 0.930 . S
C1137 H1125 0.930 . S
C1137 C1138 1.399 . S
C1137 C1142 1.399 . S
C1138 C1137 1.399 . S
C1138 C1139 1.376 . S
C1139 H1126 0.930 . S
C1139 C1138 1.376 . S
C1139 C1140 1.388 . S
C1140 H1127 0.930 . S
C1140 C1139 1.388 . S
C1140 C1141 1.390 . S
C1141 C1140 1.390 . S
C1141 C1142 1.394 . S
C1141 C1147 1.465 . S
C1142 C1137 1.399 . S
C1142 C1141 1.394 . S
C1142 C1143 1.516 . S
C1143 C1142 1.516 . S
C1143 C1144 1.502 . S
C1143 C1145 1.561 . S
C1143 C1146 1.526 . S
C1144 H1128 0.959 . S
C1144 H1129 0.959 . S
C1144 H1130 0.961 . S
C1144 C1143 1.502 . S
C1145 H1131 0.960 . S
C1145 H1132 0.961 . S
C1145 H1133 0.959 . S
C1145 C1143 1.561 . S
C1146 C1143 1.526 . S
C1146 C1147 1.396 . S
C1146 C1151 1.390 . S
C1147 C1141 1.465 . S
C1147 C1146 1.396 . S
C1147 C1148 1.399 . S
C1148 H1134 0.929 . S
C1148 C1147 1.399 . S
C1148 C1149 1.385 . S
C1149 H1135 0.931 . S
C1149 C1148 1.385 . S
C1149 C1150 1.389 . S
C1150 C1149 1.389 . S
C1150 C1151 1.387 . S
C1151 H1136 0.930 . S
C1151 C1146 1.390 . S
C1151 C1150 1.387 . S
H1152 C1164 0.930 . S
H1153 C1166 0.930 . S
H1154 C1167 0.930 . S
H1155 C1171 0.959 . S
H1156 C1171 0.959 . S
H1157 C1171 0.961 . S
H1158 C1172 0.960 . S
H1159 C1172 0.961 . S
H1160 C1172 0.959 . S
H1161 C1175 0.929 . S
H1162 C1176 0.931 . S
H1163 C1178 0.930 . S
C1164 H1152 0.930 . S
C1164 C1165 1.399 . S
C1164 C1169 1.399 . S
C1165 C1164 1.399 . S
C1165 C1166 1.376 . S
C1166 H1153 0.930 . S
C1166 C1165 1.376 . S
C1166 C1167 1.388 . S
C1167 H1154 0.930 . S
C1167 C1166 1.388 . S
C1167 C1168 1.390 . S
C1168 C1167 1.390 . S
C1168 C1169 1.394 . S
C1168 C1174 1.465 . S
C1169 C1164 1.399 . S
C1169 C1168 1.394 . S
C1169 C1170 1.516 . S
C1170 C1169 1.516 . S
C1170 C1171 1.502 . S
C1170 C1172 1.561 . S
C1170 C1173 1.526 . S
C1171 H1155 0.959 . S
C1171 H1156 0.959 . S
C1171 H1157 0.961 . S
C1171 C1170 1.502 . S
C1172 H1158 0.960 . S
C1172 H1159 0.961 . S
C1172 H1160 0.959 . S
C1172 C1170 1.561 . S
C1173 C1170 1.526 . S
C1173 C1174 1.396 . S
C1173 C1178 1.390 . S
C1174 C1168 1.465 . S
C1174 C1173 1.396 . S
C1174 C1175 1.399 . S
C1175 H1161 0.929 . S
C1175 C1174 1.399 . S
C1175 C1176 1.385 . S
C1176 H1162 0.931 . S
C1176 C1175 1.385 . S
C1176 C1177 1.389 . S
C1177 C1176 1.389 . S
C1177 C1178 1.387 . S
C1178 H1163 0.930 . S
C1178 C1173 1.390 . S
C1178 C1177 1.387 . S
H1179 C1191 0.930 . S
H1180 C1193 0.930 . S
H1181 C1194 0.930 . S
H1182 C1198 0.959 . S
H1183 C1198 0.959 . S
H1184 C1198 0.961 . S
H1185 C1199 0.960 . S
H1186 C1199 0.961 . S
H1187 C1199 0.959 . S
H1188 C1202 0.929 . S
H1189 C1203 0.931 . S
H1190 C1205 0.930 . S
C1191 H1179 0.930 . S
C1191 C1192 1.399 . S
C1191 C1196 1.399 . S
C1192 C1191 1.399 . S
C1192 C1193 1.376 . S
C1193 H1180 0.930 . S
C1193 C1192 1.376 . S
C1193 C1194 1.388 . S
C1194 H1181 0.930 . S
C1194 C1193 1.388 . S
C1194 C1195 1.390 . S
C1195 C1194 1.390 . S
C1195 C1196 1.394 . S
C1195 C1201 1.465 . S
C1196 C1191 1.399 . S
C1196 C1195 1.394 . S
C1196 C1197 1.516 . S
C1197 C1196 1.516 . S
C1197 C1198 1.502 . S
C1197 C1199 1.561 . S
C1197 C1200 1.526 . S
C1198 H1182 0.959 . S
C1198 H1183 0.959 . S
C1198 H1184 0.961 . S
C1198 C1197 1.502 . S
C1199 H1185 0.960 . S
C1199 H1186 0.961 . S
C1199 H1187 0.959 . S
C1199 C1197 1.561 . S
C1200 C1197 1.526 . S
C1200 C1201 1.396 . S
C1200 C1205 1.390 . S
C1201 C1195 1.465 . S
C1201 C1200 1.396 . S
C1201 C1202 1.399 . S
C1202 H1188 0.929 . S
C1202 C1201 1.399 . S
C1202 C1203 1.385 . S
C1203 H1189 0.931 . S
C1203 C1202 1.385 . S
C1203 C1204 1.389 . S
C1204 C1203 1.389 . S
C1204 C1205 1.387 . S
C1205 H1190 0.930 . S
C1205 C1200 1.390 . S
C1205 C1204 1.387 . S
H1206 C1218 0.930 . S
H1207 C1220 0.930 . S
H1208 C1221 0.930 . S
H1209 C1225 0.959 . S
H1210 C1225 0.959 . S
H1211 C1225 0.961 . S
H1212 C1226 0.960 . S
H1213 C1226 0.961 . S
H1214 C1226 0.959 . S
H1215 C1229 0.929 . S
H1216 C1230 0.931 . S
H1217 C1232 0.930 . S
C1218 H1206 0.930 . S
C1218 C1219 1.399 . S
C1218 C1223 1.399 . S
C1219 C1218 1.399 . S
C1219 C1220 1.376 . S
C1220 H1207 0.930 . S
C1220 C1219 1.376 . S
C1220 C1221 1.388 . S
C1221 H1208 0.930 . S
C1221 C1220 1.388 . S
C1221 C1222 1.390 . S
C1222 C1221 1.390 . S
C1222 C1223 1.394 . S
C1222 C1228 1.465 . S
C1223 C1218 1.399 . S
C1223 C1222 1.394 . S
C1223 C1224 1.516 . S
C1224 C1223 1.516 . S
C1224 C1225 1.502 . S
C1224 C1226 1.561 . S
C1224 C1227 1.526 . S
C1225 H1209 0.959 . S
C1225 H1210 0.959 . S
C1225 H1211 0.961 . S
C1225 C1224 1.502 . S
C1226 H1212 0.960 . S
C1226 H1213 0.961 . S
C1226 H1214 0.959 . S
C1226 C1224 1.561 . S
C1227 C1224 1.526 . S
C1227 C1228 1.396 . S
C1227 C1232 1.390 . S
C1228 C1222 1.465 . S
C1228 C1227 1.396 . S
C1228 C1229 1.399 . S
C1229 H1215 0.929 . S
C1229 C1228 1.399 . S
C1229 C1230 1.385 . S
C1230 H1216 0.931 . S
C1230 C1229 1.385 . S
C1230 C1231 1.389 . S
C1231 C1230 1.389 . S
C1231 C1232 1.387 . S
C1232 H1217 0.930 . S
C1232 C1227 1.390 . S
C1232 C1231 1.387 . S
H1233 C1245 0.930 . S
H1234 C1247 0.930 . S
H1235 C1248 0.930 . S
H1236 C1252 0.959 . S
H1237 C1252 0.959 . S
H1238 C1252 0.961 . S
H1239 C1253 0.960 . S
H1240 C1253 0.961 . S
H1241 C1253 0.959 . S
H1242 C1256 0.929 . S
H1243 C1257 0.931 . S
H1244 C1259 0.930 . S
C1245 H1233 0.930 . S
C1245 C1246 1.399 . S
C1245 C1250 1.399 . S
C1246 C1245 1.399 . S
C1246 C1247 1.376 . S
C1247 H1234 0.930 . S
C1247 C1246 1.376 . S
C1247 C1248 1.388 . S
C1248 H1235 0.930 . S
C1248 C1247 1.388 . S
C1248 C1249 1.390 . S
C1249 C1248 1.390 . S
C1249 C1250 1.394 . S
C1249 C1255 1.465 . S
C1250 C1245 1.399 . S
C1250 C1249 1.394 . S
C1250 C1251 1.516 . S
C1251 C1250 1.516 . S
C1251 C1252 1.502 . S
C1251 C1253 1.561 . S
C1251 C1254 1.526 . S
C1252 H1236 0.959 . S
C1252 H1237 0.959 . S
C1252 H1238 0.961 . S
C1252 C1251 1.502 . S
C1253 H1239 0.960 . S
C1253 H1240 0.961 . S
C1253 H1241 0.959 . S
C1253 C1251 1.561 . S
C1254 C1251 1.526 . S
C1254 C1255 1.396 . S
C1254 C1259 1.390 . S
C1255 C1249 1.465 . S
C1255 C1254 1.396 . S
C1255 C1256 1.399 . S
C1256 H1242 0.929 . S
C1256 C1255 1.399 . S
C1256 C1257 1.385 . S
C1257 H1243 0.931 . S
C1257 C1256 1.385 . S
C1257 C1258 1.389 . S
C1258 C1257 1.389 . S
C1258 C1259 1.387 . S
C1259 H1244 0.930 . S
C1259 C1254 1.390 . S
C1259 C1258 1.387 . S
H1260 C1272 0.930 . S
H1261 C1274 0.930 . S
H1262 C1275 0.930 . S
H1263 C1279 0.959 . S
H1264 C1279 0.959 . S
H1265 C1279 0.961 . S
H1266 C1280 0.960 . S
H1267 C1280 0.961 . S
H1268 C1280 0.959 . S
H1269 C1283 0.929 . S
H1270 C1284 0.931 . S
H1271 C1286 0.930 . S
C1272 H1260 0.930 . S
C1272 C1273 1.399 . S
C1272 C1277 1.399 . S
C1273 C1272 1.399 . S
C1273 C1274 1.376 . S
C1274 H1261 0.930 . S
C1274 C1273 1.376 . S
C1274 C1275 1.388 . S
C1275 H1262 0.930 . S
C1275 C1274 1.388 . S
C1275 C1276 1.390 . S
C1276 C1275 1.390 . S
C1276 C1277 1.394 . S
C1276 C1282 1.465 . S
C1277 C1272 1.399 . S
C1277 C1276 1.394 . S
C1277 C1278 1.516 . S
C1278 C1277 1.516 . S
C1278 C1279 1.502 . S
C1278 C1280 1.561 . S
C1278 C1281 1.526 . S
C1279 H1263 0.959 . S
C1279 H1264 0.959 . S
C1279 H1265 0.961 . S
C1279 C1278 1.502 . S
C1280 H1266 0.960 . S
C1280 H1267 0.961 . S
C1280 H1268 0.959 . S
C1280 C1278 1.561 . S
C1281 C1278 1.526 . S
C1281 C1282 1.396 . S
C1281 C1286 1.390 . S
C1282 C1276 1.465 . S
C1282 C1281 1.396 . S
C1282 C1283 1.399 . S
C1283 H1269 0.929 . S
C1283 C1282 1.399 . S
C1283 C1284 1.385 . S
C1284 H1270 0.931 . S
C1284 C1283 1.385 . S
C1284 C1285 1.389 . S
C1285 C1284 1.389 . S
C1285 C1286 1.387 . S
C1286 H1271 0.930 . S
C1286 C1281 1.390 . S
C1286 C1285 1.387 . S
H1287 C1299 0.930 . S
H1288 C1301 0.930 . S
H1289 C1302 0.930 . S
H1290 C1306 0.959 . S
H1291 C1306 0.959 . S
H1292 C1306 0.961 . S
H1293 C1307 0.960 . S
H1294 C1307 0.961 . S
H1295 C1307 0.959 . S
H1296 C1310 0.929 . S
H1297 C1311 0.931 . S
H1298 C1313 0.930 . S
C1299 H1287 0.930 . S
C1299 C1300 1.399 . S
C1299 C1304 1.399 . S
C1300 C1299 1.399 . S
C1300 C1301 1.376 . S
C1301 H1288 0.930 . S
C1301 C1300 1.376 . S
C1301 C1302 1.388 . S
C1302 H1289 0.930 . S
C1302 C1301 1.388 . S
C1302 C1303 1.390 . S
C1303 C1302 1.390 . S
C1303 C1304 1.394 . S
C1303 C1309 1.465 . S
C1304 C1299 1.399 . S
C1304 C1303 1.394 . S
C1304 C1305 1.516 . S
C1305 C1304 1.516 . S
C1305 C1306 1.502 . S
C1305 C1307 1.561 . S
C1305 C1308 1.526 . S
C1306 H1290 0.959 . S
C1306 H1291 0.959 . S
C1306 H1292 0.961 . S
C1306 C1305 1.502 . S
C1307 H1293 0.960 . S
C1307 H1294 0.961 . S
C1307 H1295 0.959 . S
C1307 C1305 1.561 . S
C1308 C1305 1.526 . S
C1308 C1309 1.396 . S
C1308 C1313 1.390 . S
C1309 C1303 1.465 . S
C1309 C1308 1.396 . S
C1309 C1310 1.399 . S
C1310 H1296 0.929 . S
C1310 C1309 1.399 . S
C1310 C1311 1.385 . S
C1311 H1297 0.931 . S
C1311 C1310 1.385 . S
C1311 C1312 1.389 . S
C1312 C1311 1.389 . S
C1312 C1313 1.387 . S
C1313 H1298 0.930 . S
C1313 C1308 1.390 . S
C1313 C1312 1.387 . S
H1314 C1326 0.930 . S
H1315 C1328 0.930 . S
H1316 C1329 0.930 . S
H1317 C1333 0.959 . S
H1318 C1333 0.959 . S
H1319 C1333 0.961 . S
H1320 C1334 0.960 . S
H1321 C1334 0.961 . S
H1322 C1334 0.959 . S
H1323 C1337 0.929 . S
H1324 C1338 0.931 . S
H1325 C1340 0.930 . S
C1326 H1314 0.930 . S
C1326 C1327 1.399 . S
C1326 C1331 1.399 . S
C1327 C1326 1.399 . S
C1327 C1328 1.376 . S
C1328 H1315 0.930 . S
C1328 C1327 1.376 . S
C1328 C1329 1.388 . S
C1329 H1316 0.930 . S
C1329 C1328 1.388 . S
C1329 C1330 1.390 . S
C1330 C1329 1.390 . S
C1330 C1331 1.394 . S
C1330 C1336 1.465 . S
C1331 C1326 1.399 . S
C1331 C1330 1.394 . S
C1331 C1332 1.516 . S
C1332 C1331 1.516 . S
C1332 C1333 1.502 . S
C1332 C1334 1.561 . S
C1332 C1335 1.526 . S
C1333 H1317 0.959 . S
C1333 H1318 0.959 . S
C1333 H1319 0.961 . S
C1333 C1332 1.502 . S
C1334 H1320 0.960 . S
C1334 H1321 0.961 . S
C1334 H1322 0.959 . S
C1334 C1332 1.561 . S
C1335 C1332 1.526 . S
C1335 C1336 1.396 . S
C1335 C1340 1.390 . S
C1336 C1330 1.465 . S
C1336 C1335 1.396 . S
C1336 C1337 1.399 . S
C1337 H1323 0.929 . S
C1337 C1336 1.399 . S
C1337 C1338 1.385 . S
C1338 H1324 0.931 . S
C1338 C1337 1.385 . S
C1338 C1339 1.389 . S
C1339 C1338 1.389 . S
C1339 C1340 1.387 . S
C1340 H1325 0.930 . S
C1340 C1335 1.390 . S
C1340 C1339 1.387 . S
H1341 C1353 0.930 . S
H1342 C1355 0.930 . S
H1343 C1356 0.930 . S
H1344 C1360 0.959 . S
H1345 C1360 0.959 . S
H1346 C1360 0.961 . S
H1347 C1361 0.960 . S
H1348 C1361 0.961 . S
H1349 C1361 0.959 . S
H1350 C1364 0.929 . S
H1351 C1365 0.931 . S
H1352 C1367 0.930 . S
C1353 H1341 0.930 . S
C1353 C1354 1.399 . S
C1353 C1358 1.399 . S
C1354 C1353 1.399 . S
C1354 C1355 1.376 . S
C1355 H1342 0.930 . S
C1355 C1354 1.376 . S
C1355 C1356 1.388 . S
C1356 H1343 0.930 . S
C1356 C1355 1.388 . S
C1356 C1357 1.390 . S
C1357 C1356 1.390 . S
C1357 C1358 1.394 . S
C1357 C1363 1.465 . S
C1358 C1353 1.399 . S
C1358 C1357 1.394 . S
C1358 C1359 1.516 . S
C1359 C1358 1.516 . S
C1359 C1360 1.502 . S
C1359 C1361 1.561 . S
C1359 C1362 1.526 . S
C1360 H1344 0.959 . S
C1360 H1345 0.959 . S
C1360 H1346 0.961 . S
C1360 C1359 1.502 . S
C1361 H1347 0.960 . S
C1361 H1348 0.961 . S
C1361 H1349 0.959 . S
C1361 C1359 1.561 . S
C1362 C1359 1.526 . S
C1362 C1363 1.396 . S
C1362 C1367 1.390 . S
C1363 C1357 1.465 . S
C1363 C1362 1.396 . S
C1363 C1364 1.399 . S
C1364 H1350 0.929 . S
C1364 C1363 1.399 . S
C1364 C1365 1.385 . S
C1365 H1351 0.931 . S
C1365 C1364 1.385 . S
C1365 C1366 1.389 . S
C1366 C1365 1.389 . S
C1366 C1367 1.387 . S
C1367 H1352 0.930 . S
C1367 C1362 1.390 . S
C1367 C1366 1.387 . S
H1368 C1380 0.930 . S
H1369 C1382 0.930 . S
H1370 C1383 0.930 . S
H1371 C1387 0.959 . S
H1372 C1387 0.959 . S
H1373 C1387 0.961 . S
H1374 C1388 0.960 . S
H1375 C1388 0.961 . S
H1376 C1388 0.959 . S
H1377 C1391 0.929 . S
H1378 C1392 0.931 . S
H1379 C1394 0.930 . S
C1380 H1368 0.930 . S
C1380 C1381 1.399 . S
C1380 C1385 1.399 . S
C1381 C1380 1.399 . S
C1381 C1382 1.376 . S
C1382 H1369 0.930 . S
C1382 C1381 1.376 . S
C1382 C1383 1.388 . S
C1383 H1370 0.930 . S
C1383 C1382 1.388 . S
C1383 C1384 1.390 . S
C1384 C1383 1.390 . S
C1384 C1385 1.394 . S
C1384 C1390 1.465 . S
C1385 C1380 1.399 . S
C1385 C1384 1.394 . S
C1385 C1386 1.516 . S
C1386 C1385 1.516 . S
C1386 C1387 1.502 . S
C1386 C1388 1.561 . S
C1386 C1389 1.526 . S
C1387 H1371 0.959 . S
C1387 H1372 0.959 . S
C1387 H1373 0.961 . S
C1387 C1386 1.502 . S
C1388 H1374 0.960 . S
C1388 H1375 0.961 . S
C1388 H1376 0.959 . S
C1388 C1386 1.561 . S
C1389 C1386 1.526 . S
C1389 C1390 1.396 . S
C1389 C1394 1.390 . S
C1390 C1384 1.465 . S
C1390 C1389 1.396 . S
C1390 C1391 1.399 . S
C1391 H1377 0.929 . S
C1391 C1390 1.399 . S
C1391 C1392 1.385 . S
C1392 H1378 0.931 . S
C1392 C1391 1.385 . S
C1392 C1393 1.389 . S
C1393 C1392 1.389 . S
C1393 C1394 1.387 . S
C1394 H1379 0.930 . S
C1394 C1389 1.390 . S
C1394 C1393 1.387 . S
H1395 C1407 0.930 . S
H1396 C1409 0.930 . S
H1397 C1410 0.930 . S
H1398 C1414 0.959 . S
H1399 C1414 0.959 . S
H1400 C1414 0.961 . S
H1401 C1415 0.960 . S
H1402 C1415 0.961 . S
H1403 C1415 0.959 . S
H1404 C1418 0.929 . S
H1405 C1419 0.931 . S
H1406 C1421 0.930 . S
C1407 H1395 0.930 . S
C1407 C1408 1.399 . S
C1407 C1412 1.399 . S
C1408 C1407 1.399 . S
C1408 C1409 1.376 . S
C1409 H1396 0.930 . S
C1409 C1408 1.376 . S
C1409 C1410 1.388 . S
C1410 H1397 0.930 . S
C1410 C1409 1.388 . S
C1410 C1411 1.390 . S
C1411 C1410 1.390 . S
C1411 C1412 1.394 . S
C1411 C1417 1.465 . S
C1412 C1407 1.399 . S
C1412 C1411 1.394 . S
C1412 C1413 1.516 . S
C1413 C1412 1.516 . S
C1413 C1414 1.502 . S
C1413 C1415 1.561 . S
C1413 C1416 1.526 . S
C1414 H1398 0.959 . S
C1414 H1399 0.959 . S
C1414 H1400 0.961 . S
C1414 C1413 1.502 . S
C1415 H1401 0.960 . S
C1415 H1402 0.961 . S
C1415 H1403 0.959 . S
C1415 C1413 1.561 . S
C1416 C1413 1.526 . S
C1416 C1417 1.396 . S
C1416 C1421 1.390 . S
C1417 C1411 1.465 . S
C1417 C1416 1.396 . S
C1417 C1418 1.399 . S
C1418 H1404 0.929 . S
C1418 C1417 1.399 . S
C1418 C1419 1.385 . S
C1419 H1405 0.931 . S
C1419 C1418 1.385 . S
C1419 C1420 1.389 . S
C1420 C1419 1.389 . S
C1420 C1421 1.387 . S
C1421 H1406 0.930 . S
C1421 C1416 1.390 . S
C1421 C1420 1.387 . S
H1422 C1434 0.930 . S
H1423 C1436 0.930 . S
H1424 C1437 0.930 . S
H1425 C1441 0.959 . S
H1426 C1441 0.959 . S
H1427 C1441 0.961 . S
H1428 C1442 0.960 . S
H1429 C1442 0.961 . S
H1430 C1442 0.959 . S
H1431 C1445 0.929 . S
H1432 C1446 0.931 . S
H1433 C1448 0.930 . S
C1434 H1422 0.930 . S
C1434 C1435 1.399 . S
C1434 C1439 1.399 . S
C1435 C1434 1.399 . S
C1435 C1436 1.376 . S
C1436 H1423 0.930 . S
C1436 C1435 1.376 . S
C1436 C1437 1.388 . S
C1437 H1424 0.930 . S
C1437 C1436 1.388 . S
C1437 C1438 1.390 . S
C1438 C1437 1.390 . S
C1438 C1439 1.394 . S
C1438 C1444 1.465 . S
C1439 C1434 1.399 . S
C1439 C1438 1.394 . S
C1439 C1440 1.516 . S
C1440 C1439 1.516 . S
C1440 C1441 1.502 . S
C1440 C1442 1.561 . S
C1440 C1443 1.526 . S
C1441 H1425 0.959 . S
C1441 H1426 0.959 . S
C1441 H1427 0.961 . S
C1441 C1440 1.502 . S
C1442 H1428 0.960 . S
C1442 H1429 0.961 . S
C1442 H1430 0.959 . S
C1442 C1440 1.561 . S
C1443 C1440 1.526 . S
C1443 C1444 1.396 . S
C1443 C1448 1.390 . S
C1444 C1438 1.465 . S
C1444 C1443 1.396 . S
C1444 C1445 1.399 . S
C1445 H1431 0.929 . S
C1445 C1444 1.399 . S
C1445 C1446 1.385 . S
C1446 H1432 0.931 . S
C1446 C1445 1.385 . S
C1446 C1447 1.389 . S
C1447 C1446 1.389 . S
C1447 C1448 1.387 . S
C1448 H1433 0.930 . S
C1448 C1443 1.390 . S
C1448 C1447 1.387 . S
H1449 C1461 0.930 . S
H1450 C1463 0.930 . S
H1451 C1464 0.930 . S
H1452 C1468 0.959 . S
H1453 C1468 0.959 . S
H1454 C1468 0.961 . S
H1455 C1469 0.960 . S
H1456 C1469 0.961 . S
H1457 C1469 0.959 . S
H1458 C1472 0.929 . S
H1459 C1473 0.931 . S
H1460 C1475 0.930 . S
C1461 H1449 0.930 . S
C1461 C1462 1.399 . S
C1461 C1466 1.399 . S
C1462 C1461 1.399 . S
C1462 C1463 1.376 . S
C1463 H1450 0.930 . S
C1463 C1462 1.376 . S
C1463 C1464 1.388 . S
C1464 H1451 0.930 . S
C1464 C1463 1.388 . S
C1464 C1465 1.390 . S
C1465 C1464 1.390 . S
C1465 C1466 1.394 . S
C1465 C1471 1.465 . S
C1466 C1461 1.399 . S
C1466 C1465 1.394 . S
C1466 C1467 1.516 . S
C1467 C1466 1.516 . S
C1467 C1468 1.502 . S
C1467 C1469 1.561 . S
C1467 C1470 1.526 . S
C1468 H1452 0.959 . S
C1468 H1453 0.959 . S
C1468 H1454 0.961 . S
C1468 C1467 1.502 . S
C1469 H1455 0.960 . S
C1469 H1456 0.961 . S
C1469 H1457 0.959 . S
C1469 C1467 1.561 . S
C1470 C1467 1.526 . S
C1470 C1471 1.396 . S
C1470 C1475 1.390 . S
C1471 C1465 1.465 . S
C1471 C1470 1.396 . S
C1471 C1472 1.399 . S
C1472 H1458 0.929 . S
C1472 C1471 1.399 . S
C1472 C1473 1.385 . S
C1473 H1459 0.931 . S
C1473 C1472 1.385 . S
C1473 C1474 1.389 . S
C1474 C1473 1.389 . S
C1474 C1475 1.387 . S
C1475 H1460 0.930 . S
C1475 C1470 1.390 . S
C1475 C1474 1.387 . S
H1476 C1488 0.930 . S
H1477 C1490 0.930 . S
H1478 C1491 0.930 . S
H1479 C1495 0.959 . S
H1480 C1495 0.959 . S
H1481 C1495 0.961 . S
H1482 C1496 0.960 . S
H1483 C1496 0.961 . S
H1484 C1496 0.959 . S
H1485 C1499 0.929 . S
H1486 C1500 0.931 . S
H1487 C1502 0.930 . S
C1488 H1476 0.930 . S
C1488 C1489 1.399 . S
C1488 C1493 1.399 . S
C1489 C1488 1.399 . S
C1489 C1490 1.376 . S
C1490 H1477 0.930 . S
C1490 C1489 1.376 . S
C1490 C1491 1.388 . S
C1491 H1478 0.930 . S
C1491 C1490 1.388 . S
C1491 C1492 1.390 . S
C1492 C1491 1.390 . S
C1492 C1493 1.394 . S
C1492 C1498 1.465 . S
C1493 C1488 1.399 . S
C1493 C1492 1.394 . S
C1493 C1494 1.516 . S
C1494 C1493 1.516 . S
C1494 C1495 1.502 . S
C1494 C1496 1.561 . S
C1494 C1497 1.526 . S
C1495 H1479 0.959 . S
C1495 H1480 0.959 . S
C1495 H1481 0.961 . S
C1495 C1494 1.502 . S
C1496 H1482 0.960 . S
C1496 H1483 0.961 . S
C1496 H1484 0.959 . S
C1496 C1494 1.561 . S
C1497 C1494 1.526 . S
C1497 C1498 1.396 . S
C1497 C1502 1.390 . S
C1498 C1492 1.465 . S
C1498 C1497 1.396 . S
C1498 C1499 1.399 . S
C1499 H1485 0.929 . S
C1499 C1498 1.399 . S
C1499 C1500 1.385 . S
C1500 H1486 0.931 . S
C1500 C1499 1.385 . S
C1500 C1501 1.389 . S
C1501 C1500 1.389 . S
C1501 C1502 1.387 . S
C1502 H1487 0.930 . S
C1502 C1497 1.390 . S
C1502 C1501 1.387 . S
H1503 C1515 0.930 . S
H1504 C1517 0.930 . S
H1505 C1518 0.930 . S
H1506 C1522 0.959 . S
H1507 C1522 0.959 . S
H1508 C1522 0.961 . S
H1509 C1523 0.960 . S
H1510 C1523 0.961 . S
H1511 C1523 0.959 . S
H1512 C1526 0.929 . S
H1513 C1527 0.931 . S
H1514 C1529 0.930 . S
C1515 H1503 0.930 . S
C1515 C1516 1.399 . S
C1515 C1520 1.399 . S
C1516 C1515 1.399 . S
C1516 C1517 1.376 . S
C1517 H1504 0.930 . S
C1517 C1516 1.376 . S
C1517 C1518 1.388 . S
C1518 H1505 0.930 . S
C1518 C1517 1.388 . S
C1518 C1519 1.390 . S
C1519 C1518 1.390 . S
C1519 C1520 1.394 . S
C1519 C1525 1.465 . S
C1520 C1515 1.399 . S
C1520 C1519 1.394 . S
C1520 C1521 1.516 . S
C1521 C1520 1.516 . S
C1521 C1522 1.502 . S
C1521 C1523 1.561 . S
C1521 C1524 1.526 . S
C1522 H1506 0.959 . S
C1522 H1507 0.959 . S
C1522 H1508 0.961 . S
C1522 C1521 1.502 . S
C1523 H1509 0.960 . S
C1523 H1510 0.961 . S
C1523 H1511 0.959 . S
C1523 C1521 1.561 . S
C1524 C1521 1.526 . S
C1524 C1525 1.396 . S
C1524 C1529 1.390 . S
C1525 C1519 1.465 . S
C1525 C1524 1.396 . S
C1525 C1526 1.399 . S
C1526 H1512 0.929 . S
C1526 C1525 1.399 . S
C1526 C1527 1.385 . S
C1527 H1513 0.931 . S
C1527 C1526 1.385 . S
C1527 C1528 1.389 . S
C1528 C1527 1.389 . S
C1528 C1529 1.387 . S
C1529 H1514 0.930 . S
C1529 C1524 1.390 . S
C1529 C1528 1.387 . S
H1530 C1542 0.930 . S
H1531 C1544 0.930 . S
H1532 C1545 0.930 . S
H1533 C1549 0.959 . S
H1534 C1549 0.959 . S
H1535 C1549 0.961 . S
H1536 C1550 0.960 . S
H1537 C1550 0.961 . S
H1538 C1550 0.959 . S
H1539 C1553 0.929 . S
H1540 C1554 0.931 . S
H1541 C1556 0.930 . S
C1542 H1530 0.930 . S
C1542 C1543 1.399 . S
C1542 C1547 1.399 . S
C1543 C1542 1.399 . S
C1543 C1544 1.376 . S
C1544 H1531 0.930 . S
C1544 C1543 1.376 . S
C1544 C1545 1.388 . S
C1545 H1532 0.930 . S
C1545 C1544 1.388 . S
C1545 C1546 1.390 . S
C1546 C1545 1.390 . S
C1546 C1547 1.394 . S
C1546 C1552 1.465 . S
C1547 C1542 1.399 . S
C1547 C1546 1.394 . S
C1547 C1548 1.516 . S
C1548 C1547 1.516 . S
C1548 C1549 1.502 . S
C1548 C1550 1.561 . S
C1548 C1551 1.526 . S
C1549 H1533 0.959 . S
C1549 H1534 0.959 . S
C1549 H1535 0.961 . S
C1549 C1548 1.502 . S
C1550 H1536 0.960 . S
C1550 H1537 0.961 . S
C1550 H1538 0.959 . S
C1550 C1548 1.561 . S
C1551 C1548 1.526 . S
C1551 C1552 1.396 . S
C1551 C1556 1.390 . S
C1552 C1546 1.465 . S
C1552 C1551 1.396 . S
C1552 C1553 1.399 . S
C1553 H1539 0.929 . S
C1553 C1552 1.399 . S
C1553 C1554 1.385 . S
C1554 H1540 0.931 . S
C1554 C1553 1.385 . S
C1554 C1555 1.389 . S
C1555 C1554 1.389 . S
C1555 C1556 1.387 . S
C1556 H1541 0.930 . S
C1556 C1551 1.390 . S
C1556 C1555 1.387 . S
H1557 C1569 0.930 . S
H1558 C1571 0.930 . S
H1559 C1572 0.930 . S
H1560 C1576 0.959 . S
H1561 C1576 0.959 . S
H1562 C1576 0.961 . S
H1563 C1577 0.960 . S
H1564 C1577 0.961 . S
H1565 C1577 0.959 . S
H1566 C1580 0.929 . S
H1567 C1581 0.931 . S
H1568 C1583 0.930 . S
C1569 H1557 0.930 . S
C1569 C1570 1.399 . S
C1569 C1574 1.399 . S
C1570 C1569 1.399 . S
C1570 C1571 1.376 . S
C1571 H1558 0.930 . S
C1571 C1570 1.376 . S
C1571 C1572 1.388 . S
C1572 H1559 0.930 . S
C1572 C1571 1.388 . S
C1572 C1573 1.390 . S
C1573 C1572 1.390 . S
C1573 C1574 1.394 . S
C1573 C1579 1.465 . S
C1574 C1569 1.399 . S
C1574 C1573 1.394 . S
C1574 C1575 1.516 . S
C1575 C1574 1.516 . S
C1575 C1576 1.502 . S
C1575 C1577 1.561 . S
C1575 C1578 1.526 . S
C1576 H1560 0.959 . S
C1576 H1561 0.959 . S
C1576 H1562 0.961 . S
C1576 C1575 1.502 . S
C1577 H1563 0.960 . S
C1577 H1564 0.961 . S
C1577 H1565 0.959 . S
C1577 C1575 1.561 . S
C1578 C1575 1.526 . S
C1578 C1579 1.396 . S
C1578 C1583 1.390 . S
C1579 C1573 1.465 . S
C1579 C1578 1.396 . S
C1579 C1580 1.399 . S
C1580 H1566 0.929 . S
C1580 C1579 1.399 . S
C1580 C1581 1.385 . S
C1581 H1567 0.931 . S
C1581 C1580 1.385 . S
C1581 C1582 1.389 . S
C1582 C1581 1.389 . S
C1582 C1583 1.387 . S
C1583 H1568 0.930 . S
C1583 C1578 1.390 . S
C1583 C1582 1.387 . S
H1584 C1596 0.930 . S
H1585 C1598 0.930 . S
H1586 C1599 0.930 . S
H1587 C1603 0.959 . S
H1588 C1603 0.959 . S
H1589 C1603 0.961 . S
H1590 C1604 0.960 . S
H1591 C1604 0.961 . S
H1592 C1604 0.959 . S
H1593 C1607 0.929 . S
H1594 C1608 0.931 . S
H1595 C1610 0.930 . S
C1596 H1584 0.930 . S
C1596 C1597 1.399 . S
C1596 C1601 1.399 . S
C1597 C1596 1.399 . S
C1597 C1598 1.376 . S
C1598 H1585 0.930 . S
C1598 C1597 1.376 . S
C1598 C1599 1.388 . S
C1599 H1586 0.930 . S
C1599 C1598 1.388 . S
C1599 C1600 1.390 . S
C1600 C1599 1.390 . S
C1600 C1601 1.394 . S
C1600 C1606 1.465 . S
C1601 C1596 1.399 . S
C1601 C1600 1.394 . S
C1601 C1602 1.516 . S
C1602 C1601 1.516 . S
C1602 C1603 1.502 . S
C1602 C1604 1.561 . S
C1602 C1605 1.526 . S
C1603 H1587 0.959 . S
C1603 H1588 0.959 . S
C1603 H1589 0.961 . S
C1603 C1602 1.502 . S
C1604 H1590 0.960 . S
C1604 H1591 0.961 . S
C1604 H1592 0.959 . S
C1604 C1602 1.561 . S
C1605 C1602 1.526 . S
C1605 C1606 1.396 . S
C1605 C1610 1.390 . S
C1606 C1600 1.465 . S
C1606 C1605 1.396 . S
C1606 C1607 1.399 . S
C1607 H1593 0.929 . S
C1607 C1606 1.399 . S
C1607 C1608 1.385 . S
C1608 H1594 0.931 . S
C1608 C1607 1.385 . S
C1608 C1609 1.389 . S
C1609 C1608 1.389 . S
C1609 C1610 1.387 . S
C1610 H1595 0.930 . S
C1610 C1605 1.390 . S
C1610 C1609 1.387 . S
H1611 C1623 0.930 . S
H1612 C1625 0.930 . S
H1613 C1626 0.930 . S
H1614 C1630 0.959 . S
H1615 C1630 0.959 . S
H1616 C1630 0.961 . S
H1617 C1631 0.960 . S
H1618 C1631 0.961 . S
H1619 C1631 0.959 . S
H1620 C1634 0.929 . S
H1621 C1635 0.931 . S
H1622 C1637 0.930 . S
C1623 H1611 0.930 . S
C1623 C1624 1.399 . S
C1623 C1628 1.399 . S
C1624 C1623 1.399 . S
C1624 C1625 1.376 . S
C1625 H1612 0.930 . S
C1625 C1624 1.376 . S
C1625 C1626 1.388 . S
C1626 H1613 0.930 . S
C1626 C1625 1.388 . S
C1626 C1627 1.390 . S
C1627 C1626 1.390 . S
C1627 C1628 1.394 . S
C1627 C1633 1.465 . S
C1628 C1623 1.399 . S
C1628 C1627 1.394 . S
C1628 C1629 1.516 . S
C1629 C1628 1.516 . S
C1629 C1630 1.502 . S
C1629 C1631 1.561 . S
C1629 C1632 1.526 . S
C1630 H1614 0.959 . S
C1630 H1615 0.959 . S
C1630 H1616 0.961 . S
C1630 C1629 1.502 . S
C1631 H1617 0.960 . S
C1631 H1618 0.961 . S
C1631 H1619 0.959 . S
C1631 C1629 1.561 . S
C1632 C1629 1.526 . S
C1632 C1633 1.396 . S
C1632 C1637 1.390 . S
C1633 C1627 1.465 . S
C1633 C1632 1.396 . S
C1633 C1634 1.399 . S
C1634 H1620 0.929 . S
C1634 C1633 1.399 . S
C1634 C1635 1.385 . S
C1635 H1621 0.931 . S
C1635 C1634 1.385 . S
C1635 C1636 1.389 . S
C1636 C1635 1.389 . S
C1636 C1637 1.387 . S
C1637 H1622 0.930 . S
C1637 C1632 1.390 . S
C1637 C1636 1.387 . S
H1638 C1650 0.930 . S
H1639 C1652 0.930 . S
H1640 C1653 0.930 . S
H1641 C1657 0.959 . S
H1642 C1657 0.959 . S
H1643 C1657 0.961 . S
H1644 C1658 0.960 . S
H1645 C1658 0.961 . S
H1646 C1658 0.959 . S
H1647 C1661 0.929 . S
H1648 C1662 0.931 . S
H1649 C1664 0.930 . S
C1650 H1638 0.930 . S
C1650 C1651 1.399 . S
C1650 C1655 1.399 . S
C1651 C1650 1.399 . S
C1651 C1652 1.376 . S
C1652 H1639 0.930 . S
C1652 C1651 1.376 . S
C1652 C1653 1.388 . S
C1653 H1640 0.930 . S
C1653 C1652 1.388 . S
C1653 C1654 1.390 . S
C1654 C1653 1.390 . S
C1654 C1655 1.394 . S
C1654 C1660 1.465 . S
C1655 C1650 1.399 . S
C1655 C1654 1.394 . S
C1655 C1656 1.516 . S
C1656 C1655 1.516 . S
C1656 C1657 1.502 . S
C1656 C1658 1.561 . S
C1656 C1659 1.526 . S
C1657 H1641 0.959 . S
C1657 H1642 0.959 . S
C1657 H1643 0.961 . S
C1657 C1656 1.502 . S
C1658 H1644 0.960 . S
C1658 H1645 0.961 . S
C1658 H1646 0.959 . S
C1658 C1656 1.561 . S
C1659 C1656 1.526 . S
C1659 C1660 1.396 . S
C1659 C1664 1.390 . S
C1660 C1654 1.465 . S
C1660 C1659 1.396 . S
C1660 C1661 1.399 . S
C1661 H1647 0.929 . S
C1661 C1660 1.399 . S
C1661 C1662 1.385 . S
C1662 H1648 0.931 . S
C1662 C1661 1.385 . S
C1662 C1663 1.389 . S
C1663 C1662 1.389 . S
C1663 C1664 1.387 . S
C1664 H1649 0.930 . S
C1664 C1659 1.390 . S
C1664 C1663 1.387 . S
H1665 C1677 0.930 1_554 S
H1666 C1679 0.930 . S
H1667 C1680 0.930 . S
H1668 C1684 0.959 . S
H1669 C1684 0.959 . S
H1670 C1684 0.995 . S
H1671 C1685 0.960 . S
H1672 C1685 0.961 . S
H1673 C1685 0.959 . S
H1674 C1688 0.929 . S
H1675 C1689 0.931 . S
H1676 C1691 0.930 . S
C1677 H1665 0.930 1_556 S
C1677 C1678 1.399 . S
C1677 C1682 1.399 . S
C1678 C1677 1.399 . S
C1678 C1679 1.376 . S
C1679 H1666 0.930 . S
C1679 C1678 1.376 . S
C1679 C1680 1.388 . S
C1680 H1667 0.930 . S
C1680 C1679 1.388 . S
C1680 C1681 1.390 . S
C1681 C1680 1.390 . S
C1681 C1682 1.394 . S
C1681 C1687 1.465 . S
C1682 C1677 1.399 . S
C1682 C1681 1.394 . S
C1682 C1683 1.516 . S
C1683 C1682 1.516 . S
C1683 C1684 1.502 . S
C1683 C1685 1.561 1_556 S
C1683 C1686 1.526 . S
C1684 H1668 0.959 . S
C1684 H1669 0.959 . S
C1684 H1670 0.995 . S
C1684 C1683 1.502 . S
C1685 H1671 0.960 . S
C1685 H1672 0.961 . S
C1685 H1673 0.959 . S
C1685 C1683 1.561 1_554 S
C1686 C1683 1.526 . S
C1686 C1687 1.396 . S
C1686 C1691 1.390 . S
C1687 C1681 1.465 . S
C1687 C1686 1.396 . S
C1687 C1688 1.399 . S
C1688 H1674 0.929 . S
C1688 C1687 1.399 . S
C1688 C1689 1.385 . S
C1689 H1675 0.931 . S
C1689 C1688 1.385 . S
C1689 C1690 1.389 . S
C1690 C1689 1.389 . S
C1690 C1691 1.387 . S
C1691 H1676 0.930 . S
C1691 C1686 1.390 . S
C1691 C1690 1.387 . S
H1692 C1704 0.930 . S
H1693 C1706 0.930 1_554 S
H1694 C1707 0.930 . S
H1695 C1711 0.959 . S
H1696 C1711 0.959 . S
H1697 C1711 0.961 . S
H1698 C1712 0.960 . S
H1699 C1712 0.961 . S
H1700 C1712 0.959 . S
H1701 C1715 0.929 . S
H1702 C1716 0.931 . S
H1703 C1718 0.930 . S
C1704 H1692 0.930 . S
C1704 C1705 1.399 . S
C1704 C1709 1.399 . S
C1705 C1704 1.399 . S
C1705 C1706 1.376 . S
C1706 H1693 0.930 1_556 S
C1706 C1705 1.376 . S
C1706 C1707 1.388 . S
C1707 H1694 0.930 . S
C1707 C1706 1.388 . S
C1707 C1708 1.390 . S
C1708 C1707 1.390 . S
C1708 C1709 1.394 . S
C1708 C1714 1.465 . S
C1709 C1704 1.399 . S
C1709 C1708 1.394 . S
C1709 C1710 1.516 . S
C1710 C1709 1.516 . S
C1710 C1711 1.502 . S
C1710 C1712 1.561 . S
C1710 C1713 1.526 . S
C1711 H1695 0.959 . S
C1711 H1696 0.959 . S
C1711 H1697 0.961 . S
C1711 C1710 1.502 . S
C1712 H1698 0.960 . S
C1712 H1699 0.961 . S
C1712 H1700 0.959 . S
C1712 C1710 1.561 . S
C1713 C1710 1.526 . S
C1713 C1714 1.396 . S
C1713 C1718 1.390 . S
C1714 C1708 1.465 . S
C1714 C1713 1.396 . S
C1714 C1715 1.399 . S
C1715 H1701 0.929 . S
C1715 C1714 1.399 . S
C1715 C1716 1.385 . S
C1716 H1702 0.931 . S
C1716 C1715 1.385 . S
C1716 C1717 1.389 . S
C1717 C1716 1.389 . S
C1717 C1718 1.387 . S
C1718 H1703 0.930 . S
C1718 C1713 1.390 . S
C1718 C1717 1.387 . S
H1719 C1731 0.930 1_554 S
H1720 C1733 0.930 . S
H1721 C1734 0.930 . S
H1722 C1738 0.959 . S
H1723 C1738 0.956 1_554 S
H1724 C1738 0.961 1_554 S
H1725 C1739 0.960 . S
H1726 C1739 0.961 . S
H1727 C1739 0.959 1_556 S
H1728 C1742 0.929 . S
H1729 C1743 0.931 . S
H1730 C1745 0.930 . S
C1731 H1719 0.930 1_556 S
C1731 C1732 1.399 . S
C1731 C1736 1.399 . S
C1732 C1731 1.399 . S
C1732 C1733 1.376 . S
C1733 H1720 0.930 . S
C1733 C1732 1.376 . S
C1733 C1734 1.388 . S
C1734 H1721 0.930 . S
C1734 C1733 1.388 . S
C1734 C1735 1.390 . S
C1735 C1734 1.390 . S
C1735 C1736 1.394 . S
C1735 C1741 1.465 . S
C1736 C1731 1.399 . S
C1736 C1735 1.394 . S
C1736 C1737 1.516 . S
C1737 C1736 1.516 . S
C1737 C1738 1.502 . S
C1737 C1739 1.561 1_556 S
C1737 C1740 1.526 . S
C1738 H1722 0.959 . S
C1738 H1723 0.956 1_556 S
C1738 H1724 0.961 1_556 S
C1738 C1737 1.502 . S
C1739 H1725 0.960 . S
C1739 H1726 0.961 . S
C1739 H1727 0.959 1_554 S
C1739 C1737 1.561 1_554 S
C1740 C1737 1.526 . S
C1740 C1741 1.396 . S
C1740 C1745 1.390 . S
C1741 C1735 1.465 . S
C1741 C1740 1.396 . S
C1741 C1742 1.399 . S
C1742 H1728 0.929 . S
C1742 C1741 1.399 . S
C1742 C1743 1.385 . S
C1743 H1729 0.931 . S
C1743 C1742 1.385 . S
C1743 C1744 1.389 . S
C1744 C1743 1.389 . S
C1744 C1745 1.387 . S
C1745 H1730 0.930 . S
C1745 C1740 1.390 . S
C1745 C1744 1.387 . S
H1746 C1758 0.930 . S
H1747 C1760 0.930 1_554 S
H1748 C1761 0.930 . S
H1749 C1765 0.959 . S
H1750 C1765 0.959 . S
H1751 C1765 0.961 . S
H1752 C1766 0.960 . S
H1753 C1766 0.961 . S
H1754 C1766 0.959 . S
H1755 C1769 0.929 . S
H1756 C1770 0.931 . S
H1757 C1772 0.930 . S
C1758 H1746 0.930 . S
C1758 C1759 1.399 . S
C1758 C1763 1.399 . S
C1759 C1758 1.399 . S
C1759 C1760 1.376 . S
C1760 H1747 0.930 1_556 S
C1760 C1759 1.376 . S
C1760 C1761 1.388 . S
C1761 H1748 0.930 . S
C1761 C1760 1.388 . S
C1761 C1762 1.390 . S
C1762 C1761 1.390 . S
C1762 C1763 1.394 . S
C1762 C1768 1.465 . S
C1763 C1758 1.399 . S
C1763 C1762 1.394 . S
C1763 C1764 1.516 . S
C1764 C1763 1.516 . S
C1764 C1765 1.502 . S
C1764 C1766 1.561 . S
C1764 C1767 1.526 . S
C1765 H1749 0.959 . S
C1765 H1750 0.959 . S
C1765 H1751 0.961 . S
C1765 C1764 1.502 . S
C1766 H1752 0.960 . S
C1766 H1753 0.961 . S
C1766 H1754 0.959 . S
C1766 C1764 1.561 . S
C1767 C1764 1.526 . S
C1767 C1768 1.396 . S
C1767 C1772 1.390 . S
C1768 C1762 1.465 . S
C1768 C1767 1.396 . S
C1768 C1769 1.399 . S
C1769 H1755 0.929 . S
C1769 C1768 1.399 . S
C1769 C1770 1.385 . S
C1770 H1756 0.931 . S
C1770 C1769 1.385 . S
C1770 C1771 1.389 . S
C1771 C1770 1.389 . S
C1771 C1772 1.387 . S
C1772 H1757 0.930 . S
C1772 C1767 1.390 . S
C1772 C1771 1.387 . S
H1773 C1785 0.930 1_554 S
H1774 C1787 0.930 . S
H1775 C1788 0.930 . S
H1776 C1792 0.959 . S
H1777 C1792 0.959 . S
H1778 C1792 0.961 1_554 S
H1779 C1793 0.960 . S
H1780 C1793 0.961 . S
H1781 C1793 0.959 1_556 S
H1782 C1796 0.929 . S
H1783 C1797 0.931 . S
H1784 C1799 0.930 . S
C1785 H1773 0.930 1_556 S
C1785 C1786 1.399 . S
C1785 C1790 1.399 . S
C1786 C1785 1.399 . S
C1786 C1787 1.376 . S
C1787 H1774 0.930 . S
C1787 C1786 1.376 . S
C1787 C1788 1.388 . S
C1788 H1775 0.930 . S
C1788 C1787 1.388 . S
C1788 C1789 1.390 . S
C1789 C1788 1.390 . S
C1789 C1790 1.394 . S
C1789 C1795 1.465 . S
C1790 C1785 1.399 . S
C1790 C1789 1.394 . S
C1790 C1791 1.516 . S
C1791 C1790 1.516 . S
C1791 C1792 1.502 . S
C1791 C1793 1.561 1_556 S
C1791 C1794 1.526 . S
C1792 H1776 0.959 . S
C1792 H1777 0.959 . S
C1792 H1778 0.961 1_556 S
C1792 C1791 1.502 . S
C1793 H1779 0.960 . S
C1793 H1780 0.961 . S
C1793 H1781 0.959 1_554 S
C1793 C1791 1.561 1_554 S
C1794 C1791 1.526 . S
C1794 C1795 1.396 . S
C1794 C1799 1.390 . S
C1795 C1789 1.465 . S
C1795 C1794 1.396 . S
C1795 C1796 1.399 . S
C1796 H1782 0.929 . S
C1796 C1795 1.399 . S
C1796 C1797 1.385 . S
C1797 H1783 0.931 . S
C1797 C1796 1.385 . S
C1797 C1798 1.389 . S
C1798 C1797 1.389 . S
C1798 C1799 1.387 . S
C1799 H1784 0.930 . S
C1799 C1794 1.390 . S
C1799 C1798 1.387 . S
H1800 C1812 0.930 . S
H1801 C1814 0.930 1_554 S
H1802 C1815 0.930 1_554 S
H1803 C1819 0.959 . S
H1804 C1819 0.959 . S
H1805 C1819 0.961 . S
H1806 C1820 0.960 . S
H1807 C1820 0.961 . S
H1808 C1820 0.959 . S
H1809 C1823 0.929 . S
H1810 C1824 0.931 . S
H1811 C1826 0.930 . S
C1812 H1800 0.930 . S
C1812 C1813 1.399 . S
C1812 C1817 1.399 . S
C1813 C1812 1.399 . S
C1813 C1814 1.376 . S
C1814 H1801 0.930 1_556 S
C1814 C1813 1.376 . S
C1814 C1815 1.388 . S
C1815 H1802 0.930 1_556 S
C1815 C1814 1.388 . S
C1815 C1816 1.390 . S
C1816 C1815 1.390 . S
C1816 C1817 1.394 . S
C1816 C1822 1.465 . S
C1817 C1812 1.399 . S
C1817 C1816 1.394 . S
C1817 C1818 1.516 . S
C1818 C1817 1.516 . S
C1818 C1819 1.502 . S
C1818 C1820 1.561 . S
C1818 C1821 1.526 . S
C1819 H1803 0.959 . S
C1819 H1804 0.959 . S
C1819 H1805 0.961 . S
C1819 C1818 1.502 . S
C1820 H1806 0.960 . S
C1820 H1807 0.961 . S
C1820 H1808 0.959 . S
C1820 C1818 1.561 . S
C1821 C1818 1.526 . S
C1821 C1822 1.396 . S
C1821 C1826 1.390 . S
C1822 C1816 1.465 . S
C1822 C1821 1.396 . S
C1822 C1823 1.399 . S
C1823 H1809 0.929 . S
C1823 C1822 1.399 . S
C1823 C1824 1.385 . S
C1824 H1810 0.931 . S
C1824 C1823 1.385 . S
C1824 C1825 1.389 . S
C1825 C1824 1.389 . S
C1825 C1826 1.387 . S
C1826 H1811 0.930 . S
C1826 C1821 1.390 . S
C1826 C1825 1.387 . S
H1827 C1839 0.930 . S
H1828 C1841 0.930 . S
H1829 C1842 0.930 . S
H1830 C1846 0.959 . S
H1831 C1846 0.959 . S
H1832 C1846 0.961 . S
H1833 C1847 0.960 . S
H1834 C1847 0.961 . S
H1835 C1847 0.959 . S
H1836 C1850 0.929 . S
H1837 C1851 0.931 . S
H1838 C1853 0.930 . S
C1839 H1827 0.930 . S
C1839 C1840 1.399 . S
C1839 C1844 1.399 . S
C1840 C1839 1.399 . S
C1840 C1841 1.376 . S
C1841 H1828 0.930 . S
C1841 C1840 1.376 . S
C1841 C1842 1.388 . S
C1842 H1829 0.930 . S
C1842 C1841 1.388 . S
C1842 C1843 1.390 . S
C1843 C1842 1.390 . S
C1843 C1844 1.394 . S
C1843 C1849 1.465 . S
C1844 C1839 1.399 . S
C1844 C1843 1.394 . S
C1844 C1845 1.516 . S
C1845 C1844 1.516 . S
C1845 C1846 1.502 . S
C1845 C1847 1.561 . S
C1845 C1848 1.526 . S
C1846 H1830 0.959 . S
C1846 H1831 0.959 . S
C1846 H1832 0.961 . S
C1846 C1845 1.502 . S
C1847 H1833 0.960 . S
C1847 H1834 0.961 . S
C1847 H1835 0.959 . S
C1847 C1845 1.561 . S
C1848 C1845 1.526 . S
C1848 C1849 1.396 . S
C1848 C1853 1.390 . S
C1849 C1843 1.465 . S
C1849 C1848 1.396 . S
C1849 C1850 1.399 . S
C1850 H1836 0.929 . S
C1850 C1849 1.399 . S
C1850 C1851 1.385 . S
C1851 H1837 0.931 . S
C1851 C1850 1.385 . S
C1851 C1852 1.389 . S
C1852 C1851 1.389 . S
C1852 C1853 1.387 . S
C1853 H1838 0.930 . S
C1853 C1848 1.390 . S
C1853 C1852 1.387 . S
H1854 C1866 0.930 . S
H1855 C1868 0.930 . S
H1856 C1869 0.930 . S
H1857 C1873 0.959 . S
H1858 C1873 0.959 . S
H1859 C1873 0.961 . S
H1860 C1874 0.960 . S
H1861 C1874 0.961 . S
H1862 C1874 0.959 . S
H1863 C1877 0.929 . S
H1864 C1878 0.931 . S
H1865 C1880 0.930 . S
C1866 H1854 0.930 . S
C1866 C1867 1.399 . S
C1866 C1871 1.399 . S
C1867 C1866 1.399 . S
C1867 C1868 1.376 . S
C1868 H1855 0.930 . S
C1868 C1867 1.376 . S
C1868 C1869 1.388 . S
C1869 H1856 0.930 . S
C1869 C1868 1.388 . S
C1869 C1870 1.390 . S
C1870 C1869 1.390 . S
C1870 C1871 1.394 . S
C1870 C1876 1.465 . S
C1871 C1866 1.399 . S
C1871 C1870 1.394 . S
C1871 C1872 1.516 . S
C1872 C1871 1.516 . S
C1872 C1873 1.502 . S
C1872 C1874 1.561 . S
C1872 C1875 1.526 . S
C1873 H1857 0.959 . S
C1873 H1858 0.959 . S
C1873 H1859 0.961 . S
C1873 C1872 1.502 . S
C1874 H1860 0.960 . S
C1874 H1861 0.961 . S
C1874 H1862 0.959 . S
C1874 C1872 1.561 . S
C1875 C1872 1.526 . S
C1875 C1876 1.396 . S
C1875 C1880 1.390 . S
C1876 C1870 1.465 . S
C1876 C1875 1.396 . S
C1876 C1877 1.399 . S
C1877 H1863 0.929 . S
C1877 C1876 1.399 . S
C1877 C1878 1.385 . S
C1878 H1864 0.931 . S
C1878 C1877 1.385 . S
C1878 C1879 1.389 . S
C1879 C1878 1.389 . S
C1879 C1880 1.387 . S
C1880 H1865 0.930 . S
C1880 C1875 1.390 . S
C1880 C1879 1.387 . S
H1881 C1893 0.930 . S
H1882 C1895 0.930 . S
H1883 C1896 0.930 . S
H1884 C1900 0.959 . S
H1885 C1900 0.959 . S
H1886 C1900 0.961 . S
H1887 C1901 0.960 . S
H1888 C1901 0.961 . S
H1889 C1901 0.959 . S
H1890 C1904 0.929 . S
H1891 C1905 0.931 . S
H1892 C1907 0.930 . S
C1893 H1881 0.930 . S
C1893 C1894 1.399 . S
C1893 C1898 1.399 . S
C1894 C1893 1.399 . S
C1894 C1895 1.376 . S
C1895 H1882 0.930 . S
C1895 C1894 1.376 . S
C1895 C1896 1.388 . S
C1896 H1883 0.930 . S
C1896 C1895 1.388 . S
C1896 C1897 1.390 . S
C1897 C1896 1.390 . S
C1897 C1898 1.394 . S
C1897 C1903 1.465 . S
C1898 C1893 1.399 . S
C1898 C1897 1.394 . S
C1898 C1899 1.516 . S
C1899 C1898 1.516 . S
C1899 C1900 1.502 . S
C1899 C1901 1.561 . S
C1899 C1902 1.526 . S
C1900 H1884 0.959 . S
C1900 H1885 0.959 . S
C1900 H1886 0.961 . S
C1900 C1899 1.502 . S
C1901 H1887 0.960 . S
C1901 H1888 0.961 . S
C1901 H1889 0.959 . S
C1901 C1899 1.561 . S
C1902 C1899 1.526 . S
C1902 C1903 1.396 . S
C1902 C1907 1.390 . S
C1903 C1897 1.465 . S
C1903 C1902 1.396 . S
C1903 C1904 1.399 . S
C1904 H1890 0.929 . S
C1904 C1903 1.399 . S
C1904 C1905 1.385 . S
C1905 H1891 0.931 . S
C1905 C1904 1.385 . S
C1905 C1906 1.389 . S
C1906 C1905 1.389 . S
C1906 C1907 1.387 . S
C1907 H1892 0.930 . S
C1907 C1902 1.390 . S
C1907 C1906 1.387 . S
H1908 C1920 0.930 . S
H1909 C1922 0.930 . S
H1910 C1923 0.930 . S
H1911 C1927 0.959 . S
H1912 C1927 0.959 . S
H1913 C1927 0.961 . S
H1914 C1928 0.960 . S
H1915 C1928 0.961 . S
H1916 C1928 0.959 . S
H1917 C1931 0.929 . S
H1918 C1932 0.931 . S
H1919 C1934 0.930 . S
C1920 H1908 0.930 . S
C1920 C1921 1.399 . S
C1920 C1925 1.399 . S
C1921 C1920 1.399 . S
C1921 C1922 1.376 . S
C1922 H1909 0.930 . S
C1922 C1921 1.376 . S
C1922 C1923 1.388 . S
C1923 H1910 0.930 . S
C1923 C1922 1.388 . S
C1923 C1924 1.390 . S
C1924 C1923 1.390 . S
C1924 C1925 1.394 . S
C1924 C1930 1.465 . S
C1925 C1920 1.399 . S
C1925 C1924 1.394 . S
C1925 C1926 1.516 . S
C1926 C1925 1.516 . S
C1926 C1927 1.502 . S
C1926 C1928 1.561 . S
C1926 C1929 1.526 . S
C1927 H1911 0.959 . S
C1927 H1912 0.959 . S
C1927 H1913 0.961 . S
C1927 C1926 1.502 . S
C1928 H1914 0.960 . S
C1928 H1915 0.961 . S
C1928 H1916 0.959 . S
C1928 C1926 1.561 . S
C1929 C1926 1.526 . S
C1929 C1930 1.396 . S
C1929 C1934 1.390 . S
C1930 C1924 1.465 . S
C1930 C1929 1.396 . S
C1930 C1931 1.399 . S
C1931 H1917 0.929 . S
C1931 C1930 1.399 . S
C1931 C1932 1.385 . S
C1932 H1918 0.931 . S
C1932 C1931 1.385 . S
C1932 C1933 1.389 . S
C1933 C1932 1.389 . S
C1933 C1934 1.387 . S
C1934 H1919 0.930 . S
C1934 C1929 1.390 . S
C1934 C1933 1.387 . S
H1935 C1947 0.930 . S
H1936 C1949 0.930 . S
H1937 C1950 0.930 . S
H1938 C1954 0.959 . S
H1939 C1954 0.959 . S
H1940 C1954 0.961 . S
H1941 C1955 0.960 . S
H1942 C1955 0.961 . S
H1943 C1955 0.959 . S
H1944 C1958 0.929 . S
H1945 C1959 0.931 . S
H1946 C1961 0.930 . S
C1947 H1935 0.930 . S
C1947 C1948 1.399 . S
C1947 C1952 1.399 . S
C1948 C1947 1.399 . S
C1948 C1949 1.376 . S
C1949 H1936 0.930 . S
C1949 C1948 1.376 . S
C1949 C1950 1.388 . S
C1950 H1937 0.930 . S
C1950 C1949 1.388 . S
C1950 C1951 1.390 . S
C1951 C1950 1.390 . S
C1951 C1952 1.394 . S
C1951 C1957 1.465 . S
C1952 C1947 1.399 . S
C1952 C1951 1.394 . S
C1952 C1953 1.516 . S
C1953 C1952 1.516 . S
C1953 C1954 1.502 . S
C1953 C1955 1.561 . S
C1953 C1956 1.526 . S
C1954 H1938 0.959 . S
C1954 H1939 0.959 . S
C1954 H1940 0.961 . S
C1954 C1953 1.502 . S
C1955 H1941 0.960 . S
C1955 H1942 0.961 . S
C1955 H1943 0.959 . S
C1955 C1953 1.561 . S
C1956 C1953 1.526 . S
C1956 C1957 1.396 . S
C1956 C1961 1.390 . S
C1957 C1951 1.465 . S
C1957 C1956 1.396 . S
C1957 C1958 1.399 . S
C1958 H1944 0.929 . S
C1958 C1957 1.399 . S
C1958 C1959 1.385 . S
C1959 H1945 0.931 . S
C1959 C1958 1.385 . S
C1959 C1960 1.389 . S
C1960 C1959 1.389 . S
C1960 C1961 1.387 . S
C1961 H1946 0.930 . S
C1961 C1956 1.390 . S
C1961 C1960 1.387 . S
H1962 C1974 0.930 . S
H1963 C1976 0.930 . S
H1964 C1977 0.930 . S
H1965 C1981 0.959 . S
H1966 C1981 0.959 . S
H1967 C1981 0.961 . S
H1968 C1982 0.960 . S
H1969 C1982 0.961 . S
H1970 C1982 0.959 . S
H1971 C1985 0.929 . S
H1972 C1986 0.931 . S
H1973 C1988 0.930 . S
C1974 H1962 0.930 . S
C1974 C1975 1.399 . S
C1974 C1979 1.399 . S
C1975 C1974 1.399 . S
C1975 C1976 1.376 . S
C1976 H1963 0.930 . S
C1976 C1975 1.376 . S
C1976 C1977 1.388 . S
C1977 H1964 0.930 . S
C1977 C1976 1.388 . S
C1977 C1978 1.390 . S
C1978 C1977 1.390 . S
C1978 C1979 1.394 . S
C1978 C1984 1.465 . S
C1979 C1974 1.399 . S
C1979 C1978 1.394 . S
C1979 C1980 1.516 . S
C1980 C1979 1.516 . S
C1980 C1981 1.502 . S
C1980 C1982 1.561 . S
C1980 C1983 1.526 . S
C1981 H1965 0.959 . S
C1981 H1966 0.959 . S
C1981 H1967 0.961 . S
C1981 C1980 1.502 . S
C1982 H1968 0.960 . S
C1982 H1969 0.961 . S
C1982 H1970 0.959 . S
C1982 C1980 1.561 . S
C1983 C1980 1.526 . S
C1983 C1984 1.396 . S
C1983 C1988 1.390 . S
C1984 C1978 1.465 . S
C1984 C1983 1.396 . S
C1984 C1985 1.399 . S
C1985 H1971 0.929 . S
C1985 C1984 1.399 . S
C1985 C1986 1.385 . S
C1986 H1972 0.931 . S
C1986 C1985 1.385 . S
C1986 C1987 1.389 . S
C1987 C1986 1.389 . S
C1987 C1988 1.387 . S
C1988 H1973 0.930 . S
C1988 C1983 1.390 . S
C1988 C1987 1.387 . S
H1989 C2001 0.930 . S
H1990 C2003 0.930 . S
H1991 C2004 0.930 . S
H1992 C2008 0.959 . S
H1993 C2008 0.959 . S
H1994 C2008 0.961 . S
H1995 C2009 0.960 . S
H1996 C2009 0.961 . S
H1997 C2009 0.959 . S
H1998 C2012 0.929 . S
H1999 C2013 0.931 . S
H2000 C2015 0.930 . S
C2001 H1989 0.930 . S
C2001 C2002 1.399 . S
C2001 C2006 1.399 . S
C2002 C2001 1.399 . S
C2002 C2003 1.376 . S
C2003 H1990 0.930 . S
C2003 C2002 1.376 . S
C2003 C2004 1.388 . S
C2004 H1991 0.930 . S
C2004 C2003 1.388 . S
C2004 C2005 1.390 . S
C2005 C2004 1.390 . S
C2005 C2006 1.394 . S
C2005 C2011 1.465 . S
C2006 C2001 1.399 . S
C2006 C2005 1.394 . S
C2006 C2007 1.516 . S
C2007 C2006 1.516 . S
C2007 C2008 1.502 . S
C2007 C2009 1.561 1_455 S
C2007 C2010 1.526 . S
C2008 H1992 0.959 . S
C2008 H1993 0.959 . S
C2008 H1994 0.961 . S
C2008 C2007 1.502 . S
C2009 H1995 0.960 . S
C2009 H1996 0.961 . S
C2009 H1997 0.959 . S
C2009 C2007 1.561 1_655 S
C2010 C2007 1.526 . S
C2010 C2011 1.396 . S
C2010 C2015 1.390 . S
C2011 C2005 1.465 . S
C2011 C2010 1.396 . S
C2011 C2012 1.399 . S
C2012 H1998 0.929 . S
C2012 C2011 1.399 . S
C2012 C2013 1.385 . S
C2013 H1999 0.931 . S
C2013 C2012 1.385 . S
C2013 C2014 1.389 . S
C2014 C2013 1.389 . S
C2014 C2015 1.387 . S
C2015 H2000 0.930 . S
C2015 C2010 1.390 . S
C2015 C2014 1.387 . S
H2016 C2028 0.930 . S
H2017 C2030 0.930 . S
H2018 C2031 0.930 . S
H2019 C2035 0.959 . S
H2020 C2035 0.959 . S
H2021 C2035 0.961 . S
H2022 C2036 0.960 . S
H2023 C2036 0.961 . S
H2024 C2036 0.959 . S
H2025 C2039 0.929 . S
H2026 C2040 0.931 . S
H2027 C2042 0.930 . S
C2028 H2016 0.930 . S
C2028 C2029 1.399 . S
C2028 C2033 1.399 . S
C2029 C2028 1.399 . S
C2029 C2030 1.376 . S
C2030 H2017 0.930 . S
C2030 C2029 1.376 . S
C2030 C2031 1.388 . S
C2031 H2018 0.930 . S
C2031 C2030 1.388 . S
C2031 C2032 1.390 . S
C2032 C2031 1.390 . S
C2032 C2033 1.394 . S
C2032 C2038 1.465 . S
C2033 C2028 1.399 . S
C2033 C2032 1.394 . S
C2033 C2034 1.516 . S
C2034 C2033 1.516 . S
C2034 C2035 1.502 . S
C2034 C2036 1.561 . S
C2034 C2037 1.526 . S
C2035 H2019 0.959 . S
C2035 H2020 0.959 . S
C2035 H2021 0.961 . S
C2035 C2034 1.502 . S
C2036 H2022 0.960 . S
C2036 H2023 0.961 . S
C2036 H2024 0.959 . S
C2036 C2034 1.561 . S
C2037 C2034 1.526 . S
C2037 C2038 1.396 . S
C2037 C2042 1.390 . S
C2038 C2032 1.465 . S
C2038 C2037 1.396 . S
C2038 C2039 1.399 . S
C2039 H2025 0.929 . S
C2039 C2038 1.399 . S
C2039 C2040 1.385 . S
C2040 H2026 0.931 . S
C2040 C2039 1.385 . S
C2040 C2041 1.389 . S
C2041 C2040 1.389 . S
C2041 C2042 1.387 . S
C2042 H2027 0.930 . S
C2042 C2037 1.390 . S
C2042 C2041 1.387 . S
H2043 C2055 0.930 . S
H2044 C2057 0.930 . S
H2045 C2058 0.930 . S
H2046 C2062 0.959 . S
H2047 C2062 0.951 1_565 S
H2048 C2062 0.961 . S
H2049 C2063 0.960 . S
H2050 C2063 0.961 . S
H2051 C2063 0.959 . S
H2052 C2066 0.950 . S
H2053 C2067 0.932 1_545 S
H2054 C2069 0.930 . S
C2055 H2043 0.930 . S
C2055 C2056 1.399 . S
C2055 C2060 1.399 . S
C2056 C2055 1.399 . S
C2056 C2057 1.376 . S
C2057 H2044 0.930 . S
C2057 C2056 1.376 . S
C2057 C2058 1.388 . S
C2058 H2045 0.930 . S
C2058 C2057 1.388 . S
C2058 C2059 1.390 . S
C2059 C2058 1.390 . S
C2059 C2060 1.394 . S
C2059 C2065 1.465 . S
C2060 C2055 1.399 . S
C2060 C2059 1.394 . S
C2060 C2061 1.516 . S
C2061 C2060 1.516 . S
C2061 C2062 1.502 1_565 S
C2061 C2063 1.561 . S
C2061 C2064 1.526 . S
C2062 H2046 0.959 . S
C2062 H2047 0.951 1_545 S
C2062 H2048 0.961 . S
C2062 C2061 1.502 1_545 S
C2063 H2049 0.960 . S
C2063 H2050 0.961 . S
C2063 H2051 0.959 . S
C2063 C2061 1.561 . S
C2064 C2061 1.526 . S
C2064 C2065 1.396 . S
C2064 C2069 1.390 . S
C2065 C2059 1.465 . S
C2065 C2064 1.396 . S
C2065 C2066 1.399 . S
C2066 H2052 0.950 . S
C2066 C2065 1.399 . S
C2066 C2067 1.385 . S
C2067 H2053 0.932 1_565 S
C2067 C2066 1.385 . S
C2067 C2068 1.389 . S
C2068 C2067 1.389 . S
C2068 C2069 1.387 . S
C2069 H2054 0.930 . S
C2069 C2064 1.390 . S
C2069 C2068 1.387 . S
H2070 C2082 0.930 . S
H2071 C2084 0.930 . S
H2072 C2085 0.930 . S
H2073 C2089 0.959 . S
H2074 C2089 0.959 . S
H2075 C2089 0.961 . S
H2076 C2090 0.960 . S
H2077 C2090 0.961 . S
H2078 C2090 0.959 . S
H2079 C2093 0.929 . S
H2080 C2094 0.931 . S
H2081 C2096 0.930 . S
C2082 H2070 0.930 . S
C2082 C2083 1.399 . S
C2082 C2087 1.399 . S
C2083 C2082 1.399 . S
C2083 C2084 1.376 1_565 S
C2084 H2071 0.930 . S
C2084 C2083 1.376 1_545 S
C2084 C2085 1.388 . S
C2085 H2072 0.930 . S
C2085 C2084 1.388 . S
C2085 C2086 1.390 . S
C2086 C2085 1.390 . S
C2086 C2087 1.394 1_545 S
C2086 C2092 1.465 . S
C2087 C2082 1.399 . S
C2087 C2086 1.394 1_565 S
C2087 C2088 1.516 . S
C2088 C2087 1.516 . S
C2088 C2089 1.502 . S
C2088 C2090 1.561 . S
C2088 C2091 1.526 . S
C2089 H2073 0.959 . S
C2089 H2074 0.959 . S
C2089 H2075 0.961 . S
C2089 C2088 1.502 . S
C2090 H2076 0.960 . S
C2090 H2077 0.961 . S
C2090 H2078 0.959 . S
C2090 C2088 1.561 . S
C2091 C2088 1.526 . S
C2091 C2092 1.396 1_565 S
C2091 C2096 1.390 . S
C2092 C2086 1.465 . S
C2092 C2091 1.396 1_545 S
C2092 C2093 1.399 . S
C2093 H2079 0.929 . S
C2093 C2092 1.399 . S
C2093 C2094 1.385 . S
C2094 H2080 0.931 . S
C2094 C2093 1.385 . S
C2094 C2095 1.418 . S
C2095 C2094 1.418 . S
C2095 C2096 1.343 1_545 S
C2096 H2081 0.930 . S
C2096 C2091 1.390 . S
C2096 C2095 1.343 1_565 S
H2097 C2109 0.930 . S
H2098 C2111 0.930 . S
H2099 C2112 0.930 . S
H2100 C2116 0.959 . S
H2101 C2116 0.959 . S
H2102 C2116 0.961 . S
H2103 C2117 0.960 . S
H2104 C2117 0.992 . S
H2105 C2117 0.959 . S
H2106 C2120 0.929 . S
H2107 C2121 0.931 . S
H2108 C2123 0.930 . S
C2109 H2097 0.930 . S
C2109 C2110 1.399 . S
C2109 C2114 1.399 . S
C2110 C2109 1.399 . S
C2110 C2111 1.376 . S
C2111 H2098 0.930 . S
C2111 C2110 1.376 . S
C2111 C2112 1.388 . S
C2112 H2099 0.930 . S
C2112 C2111 1.388 . S
C2112 C2113 1.390 . S
C2113 C2112 1.390 . S
C2113 C2114 1.394 . S
C2113 C2119 1.465 . S
C2114 C2109 1.399 . S
C2114 C2113 1.394 . S
C2114 C2115 1.516 . S
C2115 C2114 1.516 . S
C2115 C2116 1.502 . S
C2115 C2117 1.561 1_455 S
C2115 C2118 1.526 . S
C2116 H2100 0.959 . S
C2116 H2101 0.959 . S
C2116 H2102 0.961 . S
C2116 C2115 1.502 . S
C2117 H2103 0.960 . S
C2117 H2104 0.992 . S
C2117 H2105 0.959 . S
C2117 C2115 1.561 1_655 S
C2118 C2115 1.526 . S
C2118 C2119 1.396 . S
C2118 C2123 1.390 . S
C2119 C2113 1.465 . S
C2119 C2118 1.396 . S
C2119 C2120 1.399 . S
C2120 H2106 0.929 . S
C2120 C2119 1.399 . S
C2120 C2121 1.385 . S
C2121 H2107 0.931 . S
C2121 C2120 1.385 . S
C2121 C2122 1.389 . S
C2122 C2121 1.389 . S
C2122 C2123 1.387 . S
C2123 H2108 0.930 . S
C2123 C2118 1.390 . S
C2123 C2122 1.387 . S
H2124 C2136 0.930 . S
H2125 C2138 0.930 . S
H2126 C2139 0.930 . S
H2127 C2143 0.959 . S
H2128 C2143 0.959 . S
H2129 C2143 0.961 . S
H2130 C2144 0.960 . S
H2131 C2144 0.961 . S
H2132 C2144 0.959 . S
H2133 C2147 0.929 . S
H2134 C2148 0.931 . S
H2135 C2150 0.930 . S
C2136 H2124 0.930 . S
C2136 C2137 1.399 . S
C2136 C2141 1.399 . S
C2137 C2136 1.399 . S
C2137 C2138 1.376 . S
C2138 H2125 0.930 . S
C2138 C2137 1.376 . S
C2138 C2139 1.388 . S
C2139 H2126 0.930 . S
C2139 C2138 1.388 . S
C2139 C2140 1.390 . S
C2140 C2139 1.390 . S
C2140 C2141 1.394 . S
C2140 C2146 1.465 . S
C2141 C2136 1.399 . S
C2141 C2140 1.394 . S
C2141 C2142 1.516 . S
C2142 C2141 1.516 . S
C2142 C2143 1.502 . S
C2142 C2144 1.561 . S
C2142 C2145 1.526 . S
C2143 H2127 0.959 . S
C2143 H2128 0.959 . S
C2143 H2129 0.961 . S
C2143 C2142 1.502 . S
C2144 H2130 0.960 . S
C2144 H2131 0.961 . S
C2144 H2132 0.959 . S
C2144 C2142 1.561 . S
C2145 C2142 1.526 . S
C2145 C2146 1.396 . S
C2145 C2150 1.390 . S
C2146 C2140 1.465 . S
C2146 C2145 1.396 . S
C2146 C2147 1.399 . S
C2147 H2133 0.929 . S
C2147 C2146 1.399 . S
C2147 C2148 1.385 . S
C2148 H2134 0.931 . S
C2148 C2147 1.385 . S
C2148 C2149 1.389 . S
C2149 C2148 1.389 . S
C2149 C2150 1.387 . S
C2150 H2135 0.930 . S
C2150 C2145 1.390 . S
C2150 C2149 1.387 . S
H2151 C2163 0.930 . S
H2152 C2165 0.930 . S
H2153 C2166 0.930 . S
H2154 C2170 0.959 . S
H2155 C2170 0.959 . S
H2156 C2170 0.961 . S
H2157 C2171 0.960 . S
H2158 C2171 0.961 . S
H2159 C2171 0.959 . S
H2160 C2174 0.929 . S
H2161 C2175 0.931 . S
H2162 C2177 0.930 . S
C2163 H2151 0.930 . S
C2163 C2164 1.399 . S
C2163 C2168 1.399 . S
C2164 C2163 1.399 . S
C2164 C2165 1.376 . S
C2165 H2152 0.930 . S
C2165 C2164 1.376 . S
C2165 C2166 1.388 . S
C2166 H2153 0.930 . S
C2166 C2165 1.388 . S
C2166 C2167 1.390 . S
C2167 C2166 1.390 . S
C2167 C2168 1.394 . S
C2167 C2173 1.465 . S
C2168 C2163 1.399 . S
C2168 C2167 1.394 . S
C2168 C2169 1.516 . S
C2169 C2168 1.516 . S
C2169 C2170 1.502 . S
C2169 C2171 1.561 . S
C2169 C2172 1.526 . S
C2170 H2154 0.959 . S
C2170 H2155 0.959 . S
C2170 H2156 0.961 . S
C2170 C2169 1.502 . S
C2171 H2157 0.960 . S
C2171 H2158 0.961 . S
C2171 H2159 0.959 . S
C2171 C2169 1.561 . S
C2172 C2169 1.526 . S
C2172 C2173 1.396 . S
C2172 C2177 1.390 . S
C2173 C2167 1.465 . S
C2173 C2172 1.396 . S
C2173 C2174 1.399 . S
C2174 H2160 0.929 . S
C2174 C2173 1.399 . S
C2174 C2175 1.385 . S
C2175 H2161 0.931 . S
C2175 C2174 1.385 . S
C2175 C2176 1.389 . S
C2176 C2175 1.389 . S
C2176 C2177 1.387 . S
C2177 H2162 0.930 . S
C2177 C2172 1.390 . S
C2177 C2176 1.387 . S
H2178 C2190 0.930 . S
H2179 C2192 0.930 . S
H2180 C2193 0.930 . S
H2181 C2197 0.959 . S
H2182 C2197 0.959 . S
H2183 C2197 0.961 . S
H2184 C2198 0.960 . S
H2185 C2198 0.961 . S
H2186 C2198 0.959 . S
H2187 C2201 0.929 . S
H2188 C2202 0.931 . S
H2189 C2204 0.930 . S
C2190 H2178 0.930 . S
C2190 C2191 1.399 . S
C2190 C2195 1.399 . S
C2191 C2190 1.399 . S
C2191 C2192 1.376 . S
C2192 H2179 0.930 . S
C2192 C2191 1.376 . S
C2192 C2193 1.388 . S
C2193 H2180 0.930 . S
C2193 C2192 1.388 . S
C2193 C2194 1.390 . S
C2194 C2193 1.390 . S
C2194 C2195 1.394 . S
C2194 C2200 1.465 . S
C2195 C2190 1.399 . S
C2195 C2194 1.394 . S
C2195 C2196 1.516 . S
C2196 C2195 1.516 . S
C2196 C2197 1.502 . S
C2196 C2198 1.561 . S
C2196 C2199 1.526 . S
C2197 H2181 0.959 . S
C2197 H2182 0.959 . S
C2197 H2183 0.961 . S
C2197 C2196 1.502 . S
C2198 H2184 0.960 . S
C2198 H2185 0.961 . S
C2198 H2186 0.959 . S
C2198 C2196 1.561 . S
C2199 C2196 1.526 . S
C2199 C2200 1.396 . S
C2199 C2204 1.390 . S
C2200 C2194 1.465 . S
C2200 C2199 1.396 . S
C2200 C2201 1.399 . S
C2201 H2187 0.929 . S
C2201 C2200 1.399 . S
C2201 C2202 1.385 . S
C2202 H2188 0.931 . S
C2202 C2201 1.385 . S
C2202 C2203 1.389 . S
C2203 C2202 1.389 . S
C2203 C2204 1.387 . S
C2204 H2189 0.930 . S
C2204 C2199 1.390 . S
C2204 C2203 1.387 . S
H2205 C2217 0.930 . S
H2206 C2219 0.930 . S
H2207 C2220 0.930 . S
H2208 C2224 0.959 . S
H2209 C2224 0.959 . S
H2210 C2224 0.961 . S
H2211 C2225 0.960 . S
H2212 C2225 0.961 . S
H2213 C2225 0.959 . S
H2214 C2228 0.929 . S
H2215 C2229 0.931 . S
H2216 C2231 0.930 . S
C2217 H2205 0.930 . S
C2217 C2218 1.399 . S
C2217 C2222 1.399 . S
C2218 C2217 1.399 . S
C2218 C2219 1.376 . S
C2219 H2206 0.930 . S
C2219 C2218 1.376 . S
C2219 C2220 1.388 . S
C2220 H2207 0.930 . S
C2220 C2219 1.388 . S
C2220 C2221 1.390 . S
C2221 C2220 1.390 . S
C2221 C2222 1.394 . S
C2221 C2227 1.465 . S
C2222 C2217 1.399 . S
C2222 C2221 1.394 . S
C2222 C2223 1.516 . S
C2223 C2222 1.516 . S
C2223 C2224 1.502 . S
C2223 C2225 1.561 . S
C2223 C2226 1.526 . S
C2224 H2208 0.959 . S
C2224 H2209 0.959 . S
C2224 H2210 0.961 . S
C2224 C2223 1.502 . S
C2225 H2211 0.960 . S
C2225 H2212 0.961 . S
C2225 H2213 0.959 . S
C2225 C2223 1.561 . S
C2226 C2223 1.526 . S
C2226 C2227 1.396 . S
C2226 C2231 1.390 . S
C2227 C2221 1.465 . S
C2227 C2226 1.396 . S
C2227 C2228 1.399 . S
C2228 H2214 0.929 . S
C2228 C2227 1.399 . S
C2228 C2229 1.385 . S
C2229 H2215 0.931 . S
C2229 C2228 1.385 . S
C2229 C2230 1.389 . S
C2230 C2229 1.389 . S
C2230 C2231 1.387 . S
C2231 H2216 0.930 . S
C2231 C2226 1.390 . S
C2231 C2230 1.387 . S
H2232 C2244 0.930 1_565 S
H2233 C2246 0.930 . S
H2234 C2247 0.930 . S
H2235 C2251 0.959 . S
H2236 C2251 0.959 . S
H2237 C2251 0.961 . S
H2238 C2252 0.960 . S
H2239 C2252 0.961 . S
H2240 C2252 0.959 . S
H2241 C2255 0.929 . S
H2242 C2256 0.931 . S
H2243 C2258 0.930 1_565 S
C2244 H2232 0.930 1_545 S
C2244 C2245 1.399 . S
C2244 C2249 1.399 . S
C2245 C2244 1.399 . S
C2245 C2246 1.376 . S
C2246 H2233 0.930 . S
C2246 C2245 1.376 . S
C2246 C2247 1.388 . S
C2247 H2234 0.930 . S
C2247 C2246 1.388 . S
C2247 C2248 1.390 . S
C2248 C2247 1.390 . S
C2248 C2249 1.394 . S
C2248 C2254 1.465 . S
C2249 C2244 1.399 . S
C2249 C2248 1.394 . S
C2249 C2250 1.516 . S
C2250 C2249 1.516 . S
C2250 C2251 1.502 1_545 S
C2250 C2252 1.561 . S
C2250 C2253 1.526 . S
C2251 H2235 0.959 . S
C2251 H2236 0.959 . S
C2251 H2237 0.961 . S
C2251 C2250 1.502 1_565 S
C2252 H2238 0.960 . S
C2252 H2239 0.961 . S
C2252 H2240 0.959 . S
C2252 C2250 1.561 . S
C2253 C2250 1.526 . S
C2253 C2254 1.396 . S
C2253 C2258 1.390 . S
C2254 C2248 1.465 . S
C2254 C2253 1.396 . S
C2254 C2255 1.399 . S
C2255 H2241 0.929 . S
C2255 C2254 1.399 . S
C2255 C2256 1.385 . S
C2256 H2242 0.931 . S
C2256 C2255 1.385 . S
C2256 C2257 1.389 . S
C2257 C2256 1.389 . S
C2257 C2258 1.387 . S
C2258 H2243 0.930 1_545 S
C2258 C2253 1.390 . S
C2258 C2257 1.387 . S
H2259 C2271 0.930 . S
H2260 C2273 0.930 . S
H2261 C2274 0.930 . S
H2262 C2278 0.959 . S
H2263 C2278 0.959 . S
H2264 C2278 0.961 . S
H2265 C2279 0.960 . S
H2266 C2279 0.961 . S
H2267 C2279 0.959 . S
H2268 C2282 0.929 . S
H2269 C2283 0.931 . S
H2270 C2285 0.937 . S
C2271 H2259 0.930 . S
C2271 C2272 1.399 . S
C2271 C2276 1.399 . S
C2272 C2271 1.399 . S
C2272 C2273 1.376 . S
C2273 H2260 0.930 . S
C2273 C2272 1.376 . S
C2273 C2274 1.388 . S
C2274 H2261 0.930 . S
C2274 C2273 1.388 . S
C2274 C2275 1.390 . S
C2275 C2274 1.390 . S
C2275 C2276 1.394 . S
C2275 C2281 1.465 . S
C2276 C2271 1.399 . S
C2276 C2275 1.394 . S
C2276 C2277 1.517 1_655 S
C2277 C2276 1.517 1_455 S
C2277 C2278 1.501 1_455 S
C2277 C2279 1.563 . S
C2277 C2280 1.524 1_455 S
C2278 H2262 0.959 . S
C2278 H2263 0.959 . S
C2278 H2264 0.961 . S
C2278 C2277 1.501 1_655 S
C2279 H2265 0.960 . S
C2279 H2266 0.961 . S
C2279 H2267 0.959 . S
C2279 C2277 1.563 . S
C2280 C2277 1.524 1_655 S
C2280 C2281 1.396 . S
C2280 C2285 1.390 . S
C2281 C2275 1.465 . S
C2281 C2280 1.396 . S
C2281 C2282 1.399 . S
C2282 H2268 0.929 . S
C2282 C2281 1.399 . S
C2282 C2283 1.385 . S
C2283 H2269 0.931 . S
C2283 C2282 1.385 . S
C2283 C2284 1.389 . S
C2284 C2283 1.389 . S
C2284 C2285 1.387 . S
C2285 H2270 0.937 . S
C2285 C2280 1.390 . S
C2285 C2284 1.387 . S
H2286 C2298 0.930 . S
H2287 C2300 0.930 . S
H2288 C2301 0.930 . S
H2289 C2305 0.959 . S
H2290 C2305 0.959 . S
H2291 C2305 0.961 . S
H2292 C2306 0.960 . S
H2293 C2306 0.961 . S
H2294 C2306 0.959 . S
H2295 C2309 0.929 . S
H2296 C2310 0.931 . S
H2297 C2312 0.930 . S
C2298 H2286 0.930 . S
C2298 C2299 1.399 . S
C2298 C2303 1.399 . S
C2299 C2298 1.399 . S
C2299 C2300 1.376 . S
C2300 H2287 0.930 . S
C2300 C2299 1.376 . S
C2300 C2301 1.388 . S
C2301 H2288 0.930 . S
C2301 C2300 1.388 . S
C2301 C2302 1.390 . S
C2302 C2301 1.390 . S
C2302 C2303 1.394 . S
C2302 C2308 1.465 . S
C2303 C2298 1.399 . S
C2303 C2302 1.394 . S
C2303 C2304 1.516 . S
C2304 C2303 1.516 . S
C2304 C2305 1.502 . S
C2304 C2306 1.561 . S
C2304 C2307 1.526 . S
C2305 H2289 0.959 . S
C2305 H2290 0.959 . S
C2305 H2291 0.961 . S
C2305 C2304 1.502 . S
C2306 H2292 0.960 . S
C2306 H2293 0.961 . S
C2306 H2294 0.959 . S
C2306 C2304 1.561 . S
C2307 C2304 1.526 . S
C2307 C2308 1.396 . S
C2307 C2312 1.390 . S
C2308 C2302 1.465 . S
C2308 C2307 1.396 . S
C2308 C2309 1.399 . S
C2309 H2295 0.929 . S
C2309 C2308 1.399 . S
C2309 C2310 1.385 . S
C2310 H2296 0.931 . S
C2310 C2309 1.385 . S
C2310 C2311 1.389 . S
C2311 C2310 1.389 . S
C2311 C2312 1.387 . S
C2312 H2297 0.930 . S
C2312 C2307 1.390 . S
C2312 C2311 1.387 . S
H2313 C2325 0.930 . S
H2314 C2327 0.930 . S
H2315 C2328 0.930 . S
H2316 C2332 0.959 . S
H2317 C2332 0.959 . S
H2318 C2332 0.961 . S
H2319 C2333 0.960 . S
H2320 C2333 0.961 . S
H2321 C2333 0.959 . S
H2322 C2336 0.929 . S
H2323 C2337 0.931 . S
H2324 C2339 0.930 . S
C2325 H2313 0.930 . S
C2325 C2326 1.399 . S
C2325 C2330 1.399 . S
C2326 C2325 1.399 . S
C2326 C2327 1.376 . S
C2327 H2314 0.930 . S
C2327 C2326 1.376 . S
C2327 C2328 1.388 . S
C2328 H2315 0.930 . S
C2328 C2327 1.388 . S
C2328 C2329 1.390 . S
C2329 C2328 1.390 . S
C2329 C2330 1.394 . S
C2329 C2335 1.465 . S
C2330 C2325 1.399 . S
C2330 C2329 1.394 . S
C2330 C2331 1.516 . S
C2331 C2330 1.516 . S
C2331 C2332 1.502 . S
C2331 C2333 1.561 . S
C2331 C2334 1.526 . S
C2332 H2316 0.959 . S
C2332 H2317 0.959 . S
C2332 H2318 0.961 . S
C2332 C2331 1.502 . S
C2333 H2319 0.960 . S
C2333 H2320 0.961 . S
C2333 H2321 0.959 . S
C2333 C2331 1.561 . S
C2334 C2331 1.526 . S
C2334 C2335 1.396 . S
C2334 C2339 1.390 . S
C2335 C2329 1.465 . S
C2335 C2334 1.396 . S
C2335 C2336 1.399 . S
C2336 H2322 0.929 . S
C2336 C2335 1.399 . S
C2336 C2337 1.385 . S
C2337 H2323 0.931 . S
C2337 C2336 1.385 . S
C2337 C2338 1.389 . S
C2338 C2337 1.389 . S
C2338 C2339 1.387 . S
C2339 H2324 0.930 . S
C2339 C2334 1.390 . S
C2339 C2338 1.387 . S
H2340 C2352 0.930 . S
H2341 C2354 0.930 . S
H2342 C2355 0.930 . S
H2343 C2359 0.959 . S
H2344 C2359 0.959 . S
H2345 C2359 0.961 . S
H2346 C2360 0.960 . S
H2347 C2360 0.961 . S
H2348 C2360 0.959 . S
H2349 C2363 0.929 . S
H2350 C2364 0.931 . S
H2351 C2366 0.930 . S
C2352 H2340 0.930 . S
C2352 C2353 1.399 . S
C2352 C2357 1.399 . S
C2353 C2352 1.399 . S
C2353 C2354 1.376 . S
C2354 H2341 0.930 . S
C2354 C2353 1.376 . S
C2354 C2355 1.388 . S
C2355 H2342 0.930 . S
C2355 C2354 1.388 . S
C2355 C2356 1.390 . S
C2356 C2355 1.390 . S
C2356 C2357 1.394 . S
C2356 C2362 1.465 . S
C2357 C2352 1.399 . S
C2357 C2356 1.394 . S
C2357 C2358 1.516 . S
C2358 C2357 1.516 . S
C2358 C2359 1.502 . S
C2358 C2360 1.561 . S
C2358 C2361 1.526 . S
C2359 H2343 0.959 . S
C2359 H2344 0.959 . S
C2359 H2345 0.961 . S
C2359 C2358 1.502 . S
C2360 H2346 0.960 . S
C2360 H2347 0.961 . S
C2360 H2348 0.959 . S
C2360 C2358 1.561 . S
C2361 C2358 1.526 . S
C2361 C2362 1.396 . S
C2361 C2366 1.390 . S
C2362 C2356 1.465 . S
C2362 C2361 1.396 . S
C2362 C2363 1.399 . S
C2363 H2349 0.929 . S
C2363 C2362 1.399 . S
C2363 C2364 1.385 . S
C2364 H2350 0.931 . S
C2364 C2363 1.385 . S
C2364 C2365 1.389 . S
C2365 C2364 1.389 . S
C2365 C2366 1.387 . S
C2366 H2351 0.930 . S
C2366 C2361 1.390 . S
C2366 C2365 1.387 . S
H2367 C2379 0.930 . S
H2368 C2381 0.930 . S
H2369 C2382 0.930 . S
H2370 C2386 0.959 . S
H2371 C2386 0.959 . S
H2372 C2386 0.961 . S
H2373 C2387 0.960 . S
H2374 C2387 0.961 . S
H2375 C2387 0.959 . S
H2376 C2390 0.929 . S
H2377 C2391 0.931 . S
H2378 C2393 0.930 . S
C2379 H2367 0.930 . S
C2379 C2380 1.399 . S
C2379 C2384 1.399 . S
C2380 C2379 1.399 . S
C2380 C2381 1.376 . S
C2381 H2368 0.930 . S
C2381 C2380 1.376 . S
C2381 C2382 1.388 . S
C2382 H2369 0.930 . S
C2382 C2381 1.388 . S
C2382 C2383 1.390 . S
C2383 C2382 1.390 . S
C2383 C2384 1.394 . S
C2383 C2389 1.465 . S
C2384 C2379 1.399 . S
C2384 C2383 1.394 . S
C2384 C2385 1.516 . S
C2385 C2384 1.516 . S
C2385 C2386 1.502 . S
C2385 C2387 1.561 . S
C2385 C2388 1.526 . S
C2386 H2370 0.959 . S
C2386 H2371 0.959 . S
C2386 H2372 0.961 . S
C2386 C2385 1.502 . S
C2387 H2373 0.960 . S
C2387 H2374 0.961 . S
C2387 H2375 0.959 . S
C2387 C2385 1.561 . S
C2388 C2385 1.526 . S
C2388 C2389 1.396 . S
C2388 C2393 1.390 . S
C2389 C2383 1.465 . S
C2389 C2388 1.396 . S
C2389 C2390 1.399 . S
C2390 H2376 0.929 . S
C2390 C2389 1.399 . S
C2390 C2391 1.385 . S
C2391 H2377 0.931 . S
C2391 C2390 1.385 . S
C2391 C2392 1.389 . S
C2392 C2391 1.389 . S
C2392 C2393 1.387 . S
C2393 H2378 0.930 . S
C2393 C2388 1.390 . S
C2393 C2392 1.387 . S
H2394 C2406 0.930 . S
H2395 C2408 0.930 . S
H2396 C2409 0.930 . S
H2397 C2413 0.959 . S
H2398 C2413 0.959 . S
H2399 C2413 0.961 . S
H2400 C2414 0.960 . S
H2401 C2414 0.961 . S
H2402 C2414 0.959 . S
H2403 C2417 0.929 . S
H2404 C2418 0.931 . S
H2405 C2420 0.930 . S
C2406 H2394 0.930 . S
C2406 C2407 1.399 . S
C2406 C2411 1.399 . S
C2407 C2406 1.399 . S
C2407 C2408 1.376 . S
C2408 H2395 0.930 . S
C2408 C2407 1.376 . S
C2408 C2409 1.388 . S
C2409 H2396 0.930 . S
C2409 C2408 1.388 . S
C2409 C2410 1.390 . S
C2410 C2409 1.390 . S
C2410 C2411 1.394 . S
C2410 C2416 1.465 . S
C2411 C2406 1.399 . S
C2411 C2410 1.394 . S
C2411 C2412 1.516 . S
C2412 C2411 1.516 . S
C2412 C2413 1.502 . S
C2412 C2414 1.561 . S
C2412 C2415 1.526 . S
C2413 H2397 0.959 . S
C2413 H2398 0.959 . S
C2413 H2399 0.961 . S
C2413 C2412 1.502 . S
C2414 H2400 0.960 . S
C2414 H2401 0.961 . S
C2414 H2402 0.959 . S
C2414 C2412 1.561 . S
C2415 C2412 1.526 . S
C2415 C2416 1.396 . S
C2415 C2420 1.390 . S
C2416 C2410 1.465 . S
C2416 C2415 1.396 . S
C2416 C2417 1.399 . S
C2417 H2403 0.929 . S
C2417 C2416 1.399 . S
C2417 C2418 1.385 . S
C2418 H2404 0.931 . S
C2418 C2417 1.385 . S
C2418 C2419 1.389 . S
C2419 C2418 1.389 . S
C2419 C2420 1.387 . S
C2420 H2405 0.930 . S
C2420 C2415 1.390 . S
C2420 C2419 1.387 . S
H2421 C2433 0.930 . S
H2422 C2435 0.930 . S
H2423 C2436 0.930 . S
H2424 C2440 0.959 . S
H2425 C2440 0.959 . S
H2426 C2440 0.961 . S
H2427 C2441 0.960 . S
H2428 C2441 0.961 . S
H2429 C2441 0.959 . S
H2430 C2444 0.929 . S
H2431 C2445 0.931 . S
H2432 C2447 0.930 . S
C2433 H2421 0.930 . S
C2433 C2434 1.399 . S
C2433 C2438 1.399 . S
C2434 C2433 1.399 . S
C2434 C2435 1.376 . S
C2435 H2422 0.930 . S
C2435 C2434 1.376 . S
C2435 C2436 1.388 . S
C2436 H2423 0.930 . S
C2436 C2435 1.388 . S
C2436 C2437 1.390 . S
C2437 C2436 1.390 . S
C2437 C2438 1.394 . S
C2437 C2443 1.465 . S
C2438 C2433 1.399 . S
C2438 C2437 1.394 . S
C2438 C2439 1.516 . S
C2439 C2438 1.516 . S
C2439 C2440 1.502 . S
C2439 C2441 1.561 . S
C2439 C2442 1.526 . S
C2440 H2424 0.959 . S
C2440 H2425 0.959 . S
C2440 H2426 0.961 . S
C2440 C2439 1.502 . S
C2441 H2427 0.960 . S
C2441 H2428 0.961 . S
C2441 H2429 0.959 . S
C2441 C2439 1.561 . S
C2442 C2439 1.526 . S
C2442 C2443 1.396 . S
C2442 C2447 1.390 . S
C2443 C2437 1.465 . S
C2443 C2442 1.396 . S
C2443 C2444 1.399 . S
C2444 H2430 0.929 . S
C2444 C2443 1.399 . S
C2444 C2445 1.385 . S
C2445 H2431 0.931 . S
C2445 C2444 1.385 . S
C2445 C2446 1.389 . S
C2446 C2445 1.389 . S
C2446 C2447 1.387 . S
C2447 H2432 0.930 . S
C2447 C2442 1.390 . S
C2447 C2446 1.387 . S
H2448 C2460 0.930 . S
H2449 C2462 0.930 . S
H2450 C2463 0.930 . S
H2451 C2467 0.959 . S
H2452 C2467 0.959 . S
H2453 C2467 0.961 . S
H2454 C2468 0.960 . S
H2455 C2468 0.961 . S
H2456 C2468 0.959 . S
H2457 C2471 0.929 . S
H2458 C2472 0.931 . S
H2459 C2474 0.930 . S
C2460 H2448 0.930 . S
C2460 C2461 1.399 . S
C2460 C2465 1.399 . S
C2461 C2460 1.399 . S
C2461 C2462 1.376 . S
C2462 H2449 0.930 . S
C2462 C2461 1.376 . S
C2462 C2463 1.388 . S
C2463 H2450 0.930 . S
C2463 C2462 1.388 . S
C2463 C2464 1.390 . S
C2464 C2463 1.390 . S
C2464 C2465 1.394 . S
C2464 C2470 1.465 . S
C2465 C2460 1.399 . S
C2465 C2464 1.394 . S
C2465 C2466 1.516 . S
C2466 C2465 1.516 . S
C2466 C2467 1.502 . S
C2466 C2468 1.561 . S
C2466 C2469 1.526 . S
C2467 H2451 0.959 . S
C2467 H2452 0.959 . S
C2467 H2453 0.961 . S
C2467 C2466 1.502 . S
C2468 H2454 0.960 . S
C2468 H2455 0.961 . S
C2468 H2456 0.959 . S
C2468 C2466 1.561 . S
C2469 C2466 1.526 . S
C2469 C2470 1.396 . S
C2469 C2474 1.390 . S
C2470 C2464 1.465 . S
C2470 C2469 1.396 . S
C2470 C2471 1.399 . S
C2471 H2457 0.929 . S
C2471 C2470 1.399 . S
C2471 C2472 1.385 . S
C2472 H2458 0.931 . S
C2472 C2471 1.385 . S
C2472 C2473 1.389 . S
C2473 C2472 1.389 . S
C2473 C2474 1.387 . S
C2474 H2459 0.930 . S
C2474 C2469 1.390 . S
C2474 C2473 1.387 . S
H2475 C2487 0.930 . S
H2476 C2489 0.930 . S
H2477 C2490 0.930 . S
H2478 C2494 0.959 . S
H2479 C2494 0.959 . S
H2480 C2494 0.961 . S
H2481 C2495 0.960 . S
H2482 C2495 0.961 . S
H2483 C2495 0.959 1_455 S
H2484 C2498 0.929 . S
H2485 C2499 0.931 . S
H2486 C2501 0.930 . S
C2487 H2475 0.930 . S
C2487 C2488 1.399 . S
C2487 C2492 1.399 . S
C2488 C2487 1.399 . S
C2488 C2489 1.376 1_655 S
C2489 H2476 0.930 . S
C2489 C2488 1.376 1_455 S
C2489 C2490 1.388 . S
C2490 H2477 0.930 . S
C2490 C2489 1.388 . S
C2490 C2491 1.390 . S
C2491 C2490 1.390 . S
C2491 C2492 1.394 1_455 S
C2491 C2497 1.465 . S
C2492 C2487 1.399 . S
C2492 C2491 1.394 1_655 S
C2492 C2493 1.516 . S
C2493 C2492 1.516 . S
C2493 C2494 1.502 . S
C2493 C2495 1.561 . S
C2493 C2496 1.526 . S
C2494 H2478 0.959 . S
C2494 H2479 0.959 . S
C2494 H2480 0.961 . S
C2494 C2493 1.502 . S
C2495 H2481 0.960 . S
C2495 H2482 0.961 . S
C2495 H2483 0.959 1_655 S
C2495 C2493 1.561 . S
C2496 C2493 1.526 . S
C2496 C2497 1.396 1_655 S
C2496 C2501 1.390 . S
C2497 C2491 1.465 . S
C2497 C2496 1.396 1_455 S
C2497 C2498 1.399 . S
C2498 H2484 0.929 . S
C2498 C2497 1.399 . S
C2498 C2499 1.385 . S
C2499 H2485 0.931 . S
C2499 C2498 1.385 . S
C2499 C2500 1.389 . S
C2500 C2499 1.389 . S
C2500 C2501 1.387 1_455 S
C2501 H2486 0.930 . S
C2501 C2496 1.390 . S
C2501 C2500 1.387 1_655 S
H2502 C2514 0.930 . S
H2503 C2516 0.930 . S
H2504 C2517 0.930 . S
H2505 C2521 0.959 . S
H2506 C2521 0.959 . S
H2507 C2521 0.961 . S
H2508 C2522 0.960 . S
H2509 C2522 0.961 . S
H2510 C2522 0.959 . S
H2511 C2525 0.929 . S
H2512 C2526 0.931 . S
H2513 C2528 0.930 . S
C2514 H2502 0.930 . S
C2514 C2515 1.399 . S
C2514 C2519 1.399 . S
C2515 C2514 1.399 . S
C2515 C2516 1.376 . S
C2516 H2503 0.930 . S
C2516 C2515 1.376 . S
C2516 C2517 1.388 . S
C2517 H2504 0.930 . S
C2517 C2516 1.388 . S
C2517 C2518 1.390 . S
C2518 C2517 1.390 . S
C2518 C2519 1.394 . S
C2518 C2524 1.465 . S
C2519 C2514 1.399 . S
C2519 C2518 1.394 . S
C2519 C2520 1.516 . S
C2520 C2519 1.516 . S
C2520 C2521 1.502 . S
C2520 C2522 1.561 . S
C2520 C2523 1.526 . S
C2521 H2505 0.959 . S
C2521 H2506 0.959 . S
C2521 H2507 0.961 . S
C2521 C2520 1.502 . S
C2522 H2508 0.960 . S
C2522 H2509 0.961 . S
C2522 H2510 0.959 . S
C2522 C2520 1.561 . S
C2523 C2520 1.526 . S
C2523 C2524 1.396 . S
C2523 C2528 1.390 . S
C2524 C2518 1.465 . S
C2524 C2523 1.396 . S
C2524 C2525 1.399 . S
C2525 H2511 0.929 . S
C2525 C2524 1.399 . S
C2525 C2526 1.385 . S
C2526 H2512 0.931 . S
C2526 C2525 1.385 . S
C2526 C2527 1.389 . S
C2527 C2526 1.389 . S
C2527 C2528 1.387 . S
C2528 H2513 0.930 . S
C2528 C2523 1.390 . S
C2528 C2527 1.387 . S
H2529 C2541 0.930 . S
H2530 C2543 0.930 1_565 S
H2531 C2544 0.931 1_565 S
H2532 C2548 0.959 . S
H2533 C2548 0.959 . S
H2534 C2548 0.961 . S
H2535 C2549 0.960 . S
H2536 C2549 0.961 . S
H2537 C2549 0.959 . S
H2538 C2552 0.929 . S
H2539 C2553 0.931 1_565 S
H2540 C2555 0.930 . S
C2541 H2529 0.930 . S
C2541 C2542 1.399 . S
C2541 C2546 1.399 . S
C2542 C2541 1.399 . S
C2542 C2543 1.376 . S
C2543 H2530 0.930 1_545 S
C2543 C2542 1.376 . S
C2543 C2544 1.389 . S
C2544 H2531 0.931 1_545 S
C2544 C2543 1.389 . S
C2544 C2545 1.389 . S
C2545 C2544 1.389 . S
C2545 C2546 1.394 . S
C2545 C2551 1.465 . S
C2546 C2541 1.399 . S
C2546 C2545 1.394 . S
C2546 C2547 1.516 . S
C2547 C2546 1.516 . S
C2547 C2548 1.502 . S
C2547 C2549 1.561 . S
C2547 C2550 1.526 . S
C2548 H2532 0.959 . S
C2548 H2533 0.959 . S
C2548 H2534 0.961 . S
C2548 C2547 1.502 . S
C2549 H2535 0.960 . S
C2549 H2536 0.961 . S
C2549 H2537 0.959 . S
C2549 C2547 1.561 . S
C2550 C2547 1.526 . S
C2550 C2551 1.396 . S
C2550 C2555 1.390 . S
C2551 C2545 1.465 . S
C2551 C2550 1.396 . S
C2551 C2552 1.399 1_545 S
C2552 H2538 0.929 . S
C2552 C2551 1.399 1_565 S
C2552 C2553 1.385 1_565 S
C2553 H2539 0.931 1_545 S
C2553 C2552 1.385 1_545 S
C2553 C2554 1.389 . S
C2554 C2553 1.389 . S
C2554 C2555 1.387 . S
C2555 H2540 0.930 . S
C2555 C2550 1.390 . S
C2555 C2554 1.387 . S
C625 C10 1.644 . S
C637 C440 1.538 . S
C652 C23 1.626 . S
C664 C453 1.589 . S
C691 C482 1.576 1_545 S
C679 C29 1.613 . S
C706 C30 1.614 . S
C718 C495 1.576 . S
C733 C5 1.637 . S
C745 C516 1.574 . S
C760 C18 1.615 . S
C772 C545 1.569 . S
C787 C49 1.605 . S
C799 C524 1.599 1_655 S
C826 C537 1.558 . S
C814 C62 1.607 . S
C853 C503 1.596 . S
C841 C70 1.606 . S
C868 C75 1.606 . S
C880 C474 1.557 . S
C907 C432 1.572 . S
C895 C44 1.619 . S
C922 C57 1.630 . S
C934 C461 1.537 . S
C949 C88 1.644 . S
C961 C566 1.533 . S
C976 C101 1.623 . S
C988 C579 1.553 . S
C1015 C608 1.525 . S
C1003 C107 1.631 . S
C1030 C108 1.613 . S
C1042 C243 1.580 . S
C1057 C83 1.624 . S
C1069 C264 1.629 . S
C1084 C96 1.608 . S
C1096 C293 1.595 . S
C1111 C127 1.637 . S
C1123 C272 1.559 . S
C1138 C140 1.604 . S
C1150 C285 1.583 . S
C1177 C251 1.547 . S
C1165 C146 1.622 . S
C1204 C600 1.569 . S
C1192 C147 1.625 . S
C1231 C558 1.570 . S
C1219 C122 1.642 . S
C1258 C587 1.588 . S
C1246 C135 1.613 . S
C1273 C160 1.642 . S
C1285 C314 1.550 . S
C1300 C173 1.613 . S
C1312 C327 1.572 . S
C1327 C185 1.628 . S
C1339 C356 1.530 . S
C1354 C186 1.609 . S
C1366 C369 1.601 . S
C1393 C390 1.573 . S
C1381 C159 1.645 . S
C1420 C419 1.544 . S
C1408 C172 1.624 . S
C1447 C398 1.562 . S
C1435 C205 1.636 . S
C1474 C411 1.580 . S
C1462 C218 1.622 . S
C1489 C224 1.605 . S
C1501 C377 1.599 . S
C1528 C348 1.558 . S
C1516 C225 1.608 . S
C1543 C200 1.625 . S
C1555 C306 1.616 . S
C1582 C335 1.538 . S
C1570 C213 1.631 . S
C1609 C246 1.331 . S
C1597 C4 1.518 . S
C1624 C17 1.484 . S
C1636 C267 1.416 . S
C1663 C295 1.459 . S
C1651 C31 1.507 . S
C1690 C316 1.356 . S
C1678 C36 1.477 . S
C1717 C330 1.376 . S
C1705 C3 1.522 . S
C1744 C358 1.362 . S
C1732 C16 1.496 . S
C1759 C43 1.518 . S
C1771 C351 1.433 . S
C1786 C56 1.503 . S
C1798 C309 1.342 . S
C1813 C68 1.496 . S
C1825 C337 1.458 . S
C1840 C69 1.503 . S
C1852 C274 1.367 . S
C1879 C288 1.440 . S
C1867 C42 1.515 . S
C1894 C55 1.512 . S
C1906 C253 1.406 . S
C1933 C372 1.340 . S
C1921 C82 1.520 . S
C1948 C95 1.491 . S
C1960 C393 1.313 . S
C1975 C109 1.495 . S
C1987 C421 1.360 . S
C2014 C442 1.449 . S
C2002 C114 1.496 . S
C2029 C81 1.519 . S
C2041 C456 1.413 . S
C2056 C94 1.499 . S
C2068 C484 1.368 . S
C2083 C121 1.518 . S
C2095 C477 1.438 1_545 S
C2110 C134 1.500 . S
C2122 C435 1.328 . S
C2149 C463 1.457 . S
C2137 C148 1.496 . S
C2164 C153 1.502 . S
C2176 C400 1.363 . S
C2191 C120 1.506 . S
C2203 C414 1.409 . S
C2230 C379 1.418 . S
C2218 C133 1.497 . S
C2257 C498 1.384 . S
C2245 C166 1.496 . S
C2272 C179 1.500 . S
C2284 C519 1.416 1_655 S
C2299 C187 1.506 . S
C2311 C547 1.459 . S
C2338 C568 1.356 . S
C2326 C192 1.477 . S
C2365 C582 1.438 . S
C2353 C161 1.511 . S
C2380 C174 1.498 . S
C2392 C610 1.424 . S
C2407 C199 1.517 . S
C2419 C603 1.435 . S
C2434 C212 1.492 . S
C2446 C561 1.419 . S
C2473 C589 1.367 . S
C2461 C226 1.510 . S
C2500 C526 1.352 . S
C2488 C231 1.495 . S
C2527 C540 1.424 . S
C2515 C198 1.508 . S
C2542 C211 1.511 . S
C2554 C505 1.363 . S
