# Generated by pormake.
# Topology pyr, (3,6)-cn, num edge types: 1
# Building blocks:
#     Node 0, Type 0, BuildingBlock: BETDAH_clean_linker_0, # of connection points: 3
#     Node 1, Type 0, BuildingBlock: BETDAH_clean_linker_0, # of connection points: 3
#     Node 2, Type 0, BuildingBlock: BETDAH_clean_linker_0, # of connection points: 3
#     Node 3, Type 0, BuildingBlock: BETDAH_clean_linker_0, # of connection points: 3
#     Node 4, Type 0, BuildingBlock: BETDAH_clean_linker_0, # of connection points: 3
#     Node 5, Type 0, BuildingBlock: BETDAH_clean_linker_0, # of connection points: 3
#     Node 6, Type 0, BuildingBlock: BETDAH_clean_linker_0, # of connection points: 3
#     Node 7, Type 0, BuildingBlock: BETDAH_clean_linker_0, # of connection points: 3
#     Node 8, Type 1, BuildingBlock: JUFBIX_clean_sbu_0, # of connection points: 6
#     Node 9, Type 1, BuildingBlock: JUFBIX_clean_sbu_0, # of connection points: 6
#     Node 10, Type 1, BuildingBlock: JUFBIX_clean_sbu_0, # of connection points: 6
#     Node 11, Type 1, BuildingBlock: JUFBIX_clean_sbu_0, # of connection points: 6
#     Edge 12, Type (0, 1), BuildingBlock: MIFKUJ_clean_linker_0, # of connection points: 2
#     Edge 13, Type (0, 1), BuildingBlock: MIFKUJ_clean_linker_0, # of connection points: 2
#     Edge 14, Type (0, 1), BuildingBlock: MIFKUJ_clean_linker_0, # of connection points: 2
#     Edge 15, Type (0, 1), BuildingBlock: MIFKUJ_clean_linker_0, # of connection points: 2
#     Edge 16, Type (0, 1), BuildingBlock: MIFKUJ_clean_linker_0, # of connection points: 2
#     Edge 17, Type (0, 1), BuildingBlock: MIFKUJ_clean_linker_0, # of connection points: 2
#     Edge 18, Type (0, 1), BuildingBlock: MIFKUJ_clean_linker_0, # of connection points: 2
#     Edge 19, Type (0, 1), BuildingBlock: MIFKUJ_clean_linker_0, # of connection points: 2
#     Edge 20, Type (0, 1), BuildingBlock: MIFKUJ_clean_linker_0, # of connection points: 2
#     Edge 21, Type (0, 1), BuildingBlock: MIFKUJ_clean_linker_0, # of connection points: 2
#     Edge 22, Type (0, 1), BuildingBlock: MIFKUJ_clean_linker_0, # of connection points: 2
#     Edge 23, Type (0, 1), BuildingBlock: MIFKUJ_clean_linker_0, # of connection points: 2
#     Edge 24, Type (0, 1), BuildingBlock: MIFKUJ_clean_linker_0, # of connection points: 2
#     Edge 25, Type (0, 1), BuildingBlock: MIFKUJ_clean_linker_0, # of connection points: 2
#     Edge 26, Type (0, 1), BuildingBlock: MIFKUJ_clean_linker_0, # of connection points: 2
#     Edge 27, Type (0, 1), BuildingBlock: MIFKUJ_clean_linker_0, # of connection points: 2
#     Edge 28, Type (0, 1), BuildingBlock: MIFKUJ_clean_linker_0, # of connection points: 2
#     Edge 29, Type (0, 1), BuildingBlock: MIFKUJ_clean_linker_0, # of connection points: 2
#     Edge 30, Type (0, 1), BuildingBlock: MIFKUJ_clean_linker_0, # of connection points: 2
#     Edge 31, Type (0, 1), BuildingBlock: MIFKUJ_clean_linker_0, # of connection points: 2
#     Edge 32, Type (0, 1), BuildingBlock: MIFKUJ_clean_linker_0, # of connection points: 2
#     Edge 33, Type (0, 1), BuildingBlock: MIFKUJ_clean_linker_0, # of connection points: 2
#     Edge 34, Type (0, 1), BuildingBlock: MIFKUJ_clean_linker_0, # of connection points: 2
#     Edge 35, Type (0, 1), BuildingBlock: MIFKUJ_clean_linker_0, # of connection points: 2
# Relax obj value: 0.105
# Max RMSD: 0.197
# Mean RMSD: 0.127
data_MOF--net-pyr--node1-JUFBIX_clean_sbu_0--node2-BETDAH_clean_linker_0--edge1-MIFKUJ_clean_linker_0
_symmetry_space_group_name_H-M    P1
_symmetry_Int_Tables_number       1
_symmetry_cell_setting            triclinic
loop_
_symmetry_equiv_pos_as_xyz
'x, y, z'
_cell_length_a     47.712995
_cell_length_b     45.76145
_cell_length_c     49.877053
_cell_angle_alpha  86.791381
_cell_angle_beta   91.056281
_cell_angle_gamma 98.049535
loop_
_atom_site_label
_atom_site_type_symbol
_atom_site_fract_x
_atom_site_fract_y
_atom_site_fract_z
_atom_type_partial_charge
H0 H 0.21213 0.15913 0.22191 0.0
H1 H 0.22059 0.22143 0.15372 0.0
H2 H 0.15562 0.22563 0.2112 0.0
C3 C 0.20485 0.1773 0.21026 0.0
C4 C 0.18157 0.19032 0.21994 0.0
C5 C 0.21969 0.1882 0.1864 0.0
C6 C 0.21023 0.21276 0.1722 0.0
C7 C 0.18737 0.22659 0.18068 0.0
C8 C 0.17313 0.21522 0.20463 0.0
N9 N 0.18117 0.25223 0.16438 0.0
C10 C 0.15917 0.27019 0.16324 0.0
H11 H 0.45274 0.87502 0.70253 0.0
H12 H 0.41261 0.95092 0.67719 0.0
H13 H 0.43426 0.89273 0.61889 0.0
C14 C 0.44438 0.88874 0.68675 0.0
C15 C 0.4448 0.88079 0.66002 0.0
C16 C 0.43319 0.9143 0.69318 0.0
C17 C 0.42144 0.93122 0.67262 0.0
C18 C 0.4221 0.92347 0.64587 0.0
C19 C 0.43429 0.89875 0.63961 0.0
N20 N 0.4103 0.94013 0.62496 0.0
C21 C 0.38243 0.94535 0.62587 0.0
H22 H 0.69736 0.36091 0.92157 0.0
H23 H 0.70854 0.41457 0.84766 0.0
H24 H 0.64614 0.33768 0.85193 0.0
C25 C 0.69099 0.36577 0.90102 0.0
C26 C 0.66945 0.34654 0.88893 0.0
C27 C 0.70541 0.39034 0.88632 0.0
C28 C 0.69766 0.39584 0.85934 0.0
C29 C 0.67654 0.37646 0.84705 0.0
C30 C 0.66271 0.35204 0.86178 0.0
N31 N 0.66983 0.37995 0.81945 0.0
C32 C 0.66641 0.40691 0.80666 0.0
H33 H 0.92074 0.69938 0.45587 0.0
H34 H 1.00193 0.67899 0.43286 0.0
H35 H 0.93084 0.61038 0.43793 0.0
C36 C 0.93388 0.68343 0.44991 0.0
C37 C 0.92203 0.65367 0.44794 0.0
C38 C 0.96266 0.69284 0.44471 0.0
C39 C 0.9797 0.67216 0.43708 0.0
C40 C 0.96801 0.64271 0.43408 0.0
C41 C 0.93931 0.63346 0.43955 0.0
N42 N 0.9854 0.62233 0.42593 0.0
C43 C 0.98393 0.61336 0.39978 0.0
H44 H 0.89257 0.87052 0.83507 0.0
H45 H 0.82708 0.8725 0.89412 0.0
H46 H 0.83534 0.93493 0.82608 0.0
C47 C 0.87469 0.8798 0.84227 0.0
C48 C 0.86552 0.90383 0.82685 0.0
C49 C 0.86123 0.86757 0.86662 0.0
C50 C 0.83793 0.88105 0.87588 0.0
C51 C 0.82847 0.9055 0.86118 0.0
C52 C 0.84248 0.91615 0.83697 0.0
N53 N 0.80553 0.921 0.86895 0.0
C54 C 0.78557 0.91777 0.89008 0.0
H55 H 0.66401 0.1497 0.40083 0.0
H56 H 0.69634 0.2338 0.43237 0.0
H57 H 0.63567 0.22939 0.36783 0.0
C58 C 0.66414 0.17339 0.40111 0.0
C59 C 0.64723 0.18736 0.38254 0.0
C60 C 0.68237 0.18987 0.41894 0.0
C61 C 0.68189 0.2205 0.4194 0.0
C62 C 0.66462 0.23452 0.40121 0.0
C63 C 0.64764 0.21802 0.38276 0.0
N64 N 0.66696 0.26563 0.39874 0.0
C65 C 0.65878 0.28199 0.41903 0.0
H66 H 0.32855 0.72082 0.14948 0.0
H67 H 0.30525 0.63995 0.19657 0.0
H68 H 0.38452 0.69373 0.21212 0.0
C69 C 0.33355 0.70499 0.16521 0.0
C70 C 0.35921 0.71021 0.17969 0.0
C71 C 0.31385 0.67995 0.17136 0.0
C72 C 0.32006 0.65975 0.19198 0.0
C73 C 0.34517 0.66469 0.20692 0.0
C74 C 0.36476 0.69013 0.20095 0.0
N75 N 0.35019 0.6429 0.22707 0.0
C76 C 0.36831 0.64757 0.24896 0.0
H77 H 0.14163 0.40188 0.59663 0.0
H78 H 0.13933 0.44848 0.66897 0.0
H79 H 0.06991 0.38275 0.64896 0.0
C80 C 0.1306 0.40624 0.61447 0.0
C81 C 0.10416 0.38978 0.62056 0.0
C82 C 0.14337 0.42755 0.63178 0.0
C83 C 0.12949 0.43223 0.65546 0.0
C84 C 0.10276 0.41626 0.66141 0.0
C85 C 0.09012 0.39555 0.64374 0.0
N86 N 0.08817 0.41991 0.68523 0.0
C87 C 0.10101 0.43237 0.70789 0.0
Co88 Co 1.00241 0.04849 0.51435 0.0
C89 C 0.02357 0.9948 0.50925 0.0
Co90 Co 0.04463 0.04628 0.53203 0.0
C91 C 0.9454 0.06239 0.50584 0.0
C92 C 0.95751 0.0342 0.47658 0.0
N93 N 0.96691 0.04824 0.49873 0.0
N94 N 0.92292 0.05783 0.48891 0.0
C95 C 0.93056 0.03987 0.4706 0.0
H96 H 0.9466 0.07637 0.52272 0.0
H97 H 0.96963 0.02096 0.46524 0.0
C98 C 0.02392 0.10017 0.53668 0.0
N99 N 0.08039 0.04715 0.54715 0.0
C100 C 0.09251 0.02546 0.5603 0.0
C101 C 0.10046 0.07107 0.54677 0.0
N102 N 0.11922 0.03512 0.56835 0.0
C103 C 0.12424 0.0638 0.55988 0.0
C104 C 0.04682 0.0682 0.47699 0.0
O105 O 1.0024 0.08813 0.52407 0.0
O106 O 0.04392 0.0853 0.54248 0.0
O107 O 0.06189 0.06217 0.49748 0.0
O108 O 0.01994 0.06354 0.47969 0.0
O109 O 0.04524 0.00723 0.52142 0.0
H110 H 0.09814 0.09239 0.53717 0.0
H111 H 0.082 1.00306 0.56385 0.0
O112 O 1.00276 0.00894 0.50459 0.0
O113 O 0.98509 0.03343 0.54914 0.0
O114 O 0.02711 0.03038 0.56646 0.0
C115 C 1.00021 0.02654 0.5694 0.0
H116 H 0.91772 0.03135 0.45393 0.0
H117 H 0.14406 0.0782 0.56218 0.0
Co118 Co 0.48883 0.0336 0.03143 0.0
C119 C 0.48772 0.9906 0.07358 0.0
Co120 Co 0.51603 0.04675 0.06589 0.0
C121 C 0.47103 0.02026 0.97746 0.0
C122 C 0.43698 0.01084 1.00535 0.0
N123 N 0.4647 0.02163 1.00356 0.0
N124 N 0.44839 0.00889 0.96287 0.0
C125 C 0.42688 1.00305 0.98038 0.0
H126 H 0.49195 0.02724 0.96939 0.0
H127 H 0.42505 0.00808 0.02377 0.0
C128 C 0.51748 0.08968 0.02404 0.0
N129 N 0.54048 0.05876 0.09348 0.0
C130 C 0.53536 0.06006 0.11989 0.0
C131 C 0.56827 0.06886 0.0907 0.0
N132 N 0.559 0.07029 0.13364 0.0
C133 C 0.57972 0.07583 0.11533 0.0
C134 C 0.54431 0.01844 0.02573 0.0
O135 O 0.50022 0.07053 0.01249 0.0
O136 O 0.5266 0.08357 0.04743 0.0
O137 O 0.54727 0.03044 0.04834 0.0
O138 O 0.5199 0.01694 0.01453 0.0
O139 O 0.50535 0.00984 0.08455 0.0
H140 H 0.57946 0.07146 0.07186 0.0
H141 H 0.51477 0.0536 0.12884 0.0
O142 O 0.47779 0.99663 0.05041 0.0
O143 O 0.45782 0.05049 0.04851 0.0
O144 O 0.48472 0.06297 0.08302 0.0
C145 C 0.46057 0.0622 0.07127 0.0
H146 H 0.40564 0.99283 0.97571 0.0
H147 H 0.60142 0.08514 0.11935 0.0
Co148 Co 0.55057 0.58085 0.53404 0.0
C149 C 0.5065 0.57917 0.49631 0.0
Co150 Co 0.51025 0.55499 0.54775 0.0
C151 C 0.60944 0.59493 0.51986 0.0
C152 C 0.58706 0.63211 0.51293 0.0
N153 N 0.58359 0.60342 0.52177 0.0
N154 N 0.62884 0.61719 0.51036 0.0
C155 C 0.61492 0.64069 0.50608 0.0
H156 H 0.61408 0.57295 0.52567 0.0
H157 H 0.57038 0.6459 0.51147 0.0
C158 C 0.55438 0.55721 0.58549 0.0
N159 N 0.47764 0.532 0.56051 0.0
C160 C 0.45073 0.53803 0.56105 0.0
C161 C 0.47695 0.50535 0.5737 0.0
N162 N 0.43346 0.5163 0.57439 0.0
C163 C 0.4499 0.4957 0.58227 0.0
C164 C 0.54625 0.52213 0.52289 0.0
O165 O 0.56867 0.57276 0.56726 0.0
O166 O 0.52861 0.54737 0.5809 0.0
O167 O 0.5223 0.52087 0.53391 0.0
O168 O 0.56211 0.54678 0.52043 0.0
O169 O 0.49219 0.56322 0.51439 0.0
H170 H 0.49514 0.49394 0.57738 0.0
H171 H 0.44416 0.55837 0.55268 0.0
O172 O 0.53235 0.58883 0.50092 0.0
O173 O 0.53859 0.61467 0.54798 0.0
O174 O 0.49861 0.58901 0.56163 0.0
C175 C 0.51489 0.61347 0.55946 0.0
H176 H 0.62415 0.66233 0.49813 0.0
H177 H 0.44288 0.47514 0.59352 0.0
Co178 Co 0.01425 0.56559 1.00397 0.0
C179 C 0.95938 0.53593 0.00638 0.0
Co180 Co 0.99274 0.56994 0.0419 0.0
C181 C 0.05508 0.55269 0.9644 0.0
C182 C 0.01938 0.57094 0.94735 0.0
N183 N 0.03088 0.56269 0.97103 0.0
N184 N 0.05919 0.55504 0.93756 0.0
C185 C 0.03672 0.56646 0.92689 0.0
H186 H 0.06927 0.54376 0.97886 0.0
H187 H 0.99925 0.57914 0.94496 0.0
C188 C 0.0477 0.59932 0.03952 0.0
N189 N 0.97502 0.57343 0.07401 0.0
C190 C 0.98509 0.57081 0.09938 0.0
C191 C 0.94862 0.58008 0.0766 0.0
N192 N 0.96599 0.57566 0.11779 0.0
C193 C 0.94304 0.58153 0.10335 0.0
C194 C 0.02415 0.52051 0.04345 0.0
O195 O 0.04729 0.58926 0.01624 0.0
O196 O 0.02564 0.59396 0.05389 0.0
O197 O 0.00834 0.53456 0.05697 0.0
O198 O 0.02927 0.52985 0.01909 0.0
O199 O 0.95994 0.54573 0.02972 0.0
H200 H 0.93442 0.58396 0.06003 0.0
H201 H 1.00605 0.56541 0.1041 0.0
O202 O 0.9812 0.54187 0.99183 0.0
O203 O 0.99911 0.60137 0.9894 0.0
O204 O 0.97731 0.6054 0.02665 0.0
C205 C 0.9829 0.61511 1.00257 0.0
H206 H 0.03254 0.57013 0.90565 0.0
H207 H 0.9237 0.58717 0.11136 0.0
H208 H 0.15664 0.21978 0.25902 0.0
H209 H 0.13382 0.1999 0.30102 0.0
H210 H 0.14988 0.11264 0.28383 0.0
H211 H 0.17176 0.13213 0.24143 0.0
H212 H 0.10086 0.10563 0.30551 0.0
H213 H 0.18914 0.1591 0.33297 0.0
H214 H 0.22615 0.20222 0.33601 0.0
H215 H 0.16703 0.25055 0.37196 0.0
H216 H 0.12956 0.20781 0.36881 0.0
H217 H 0.10375 0.08465 0.46507 0.0
H218 H 0.12555 0.10477 0.42253 0.0
H219 H 0.04294 0.10118 0.38555 0.0
H220 H 0.02113 0.08083 0.42798 0.0
H221 H 0.12658 0.15258 0.39137 0.0
H222 H 0.04566 0.09315 0.31769 0.0
H223 H 0.01294 0.0465 0.31565 0.0
H224 H 0.06413 0.00454 0.37359 0.0
H225 H 0.09733 0.0508 0.37571 0.0
C226 C 0.1552 0.19627 0.26385 0.0
C227 C 0.16663 0.17796 0.24616 0.0
C228 C 0.14226 0.18482 0.28839 0.0
C229 C 0.14015 0.15447 0.29658 0.0
C230 C 0.15101 0.13608 0.2787 0.0
C231 C 0.16398 0.1475 0.25421 0.0
C232 C 0.1268 0.14188 0.32342 0.0
C233 C 0.10651 0.1162 0.32414 0.0
C234 C 0.13404 0.15467 0.34849 0.0
C235 C 0.15649 0.18037 0.3504 0.0
C236 C 0.18399 0.179 0.34134 0.0
C237 C 0.20505 0.20336 0.34311 0.0
C238 C 0.19893 0.22914 0.3541 0.0
C239 C 0.17173 0.23058 0.36341 0.0
C240 C 0.15058 0.2063 0.36165 0.0
C241 C 0.09009 0.088 0.44792 0.0
C242 C 0.06041 0.08071 0.45045 0.0
C243 C 0.10271 0.09977 0.42335 0.0
C244 C 0.0863 0.10454 0.40002 0.0
C245 C 0.0566 0.09749 0.40262 0.0
C246 C 0.04397 0.08584 0.42721 0.0
C247 C 0.10017 0.11676 0.37332 0.0
C248 C 0.12067 0.14225 0.37267 0.0
C249 C 0.09347 0.10352 0.34838 0.0
C250 C 0.07379 0.07554 0.34707 0.0
C251 C 0.04997 0.07393 0.32993 0.0
C252 C 0.03133 0.04757 0.32877 0.0
C253 C 0.0364 0.0226 0.34455 0.0
C254 C 0.06017 0.02392 0.36146 0.0
C255 C 0.07888 0.05022 0.36267 0.0
H256 H 0.02194 1.00222 0.34364 0.0
H257 H 0.21526 0.24797 0.35546 0.0
H258 H 0.39138 0.9335 0.72156 0.0
H259 H 0.39441 0.9505 0.76732 0.0
H260 H 0.48118 0.93381 0.77348 0.0
H261 H 0.47812 0.91644 0.72791 0.0
H262 H 0.45433 0.91521 0.81821 0.0
H263 H 0.46417 0.00427 0.76193 0.0
H264 H 0.45079 0.03864 0.72563 0.0
H265 H 0.37318 0.0447 0.76585 0.0
H266 H 0.38592 0.01002 0.80224 0.0
H267 H 0.49193 0.99589 0.93358 0.0
H268 H 0.48991 0.98148 0.88708 0.0
H269 H 0.40126 0.99104 0.88261 0.0
H270 H 0.4033 0.00624 0.92892 0.0
H271 H 0.42971 0.01382 0.83707 0.0
H272 H 0.42065 0.9237 0.89321 0.0
H273 H 0.43534 0.89003 0.92949 0.0
H274 H 0.51356 0.88719 0.88913 0.0
H275 H 0.49948 0.92118 0.85277 0.0
C276 C 0.4111 0.93354 0.73268 0.0
C277 C 0.43453 0.92372 0.72118 0.0
C278 C 0.41283 0.94329 0.75878 0.0
C279 C 0.43817 0.94383 0.77368 0.0
C280 C 0.46143 0.93358 0.76237 0.0
C281 C 0.45963 0.9236 0.73637 0.0
C282 C 0.44049 0.95512 0.80105 0.0
C283 C 0.44931 0.93694 0.82224 0.0
C284 C 0.4335 0.98328 0.80642 0.0
C285 C 0.42588 0.00432 0.78468 0.0
C286 C 0.44415 0.01277 0.76294 0.0
C287 C 0.4367 0.03233 0.74236 0.0
C288 C 0.41112 0.04378 0.7434 0.0
C289 C 0.39297 0.03577 0.76506 0.0
C290 C 0.40031 0.01619 0.78568 0.0
C291 C 0.47212 0.99541 0.9226 0.0
C292 C 0.44771 1.00206 0.93501 0.0
C293 C 0.47094 0.98691 0.8961 0.0
C294 C 0.44534 0.98481 0.88156 0.0
C295 C 0.42118 0.99238 0.89355 0.0
C296 C 0.42233 1.00083 0.92006 0.0
C297 C 0.4435 0.9739 0.85411 0.0
C298 C 0.43477 0.99214 0.83295 0.0
C299 C 0.45076 0.94589 0.84872 0.0
C300 C 0.45911 0.92519 0.8704 0.0
C301 C 0.44106 0.91605 0.89217 0.0
C302 C 0.44926 0.89689 0.91273 0.0
C303 C 0.47539 0.88653 0.91165 0.0
C304 C 0.49334 0.89525 0.88995 0.0
C305 C 0.48524 0.91444 0.86935 0.0
H306 H 0.48171 0.87171 0.92759 0.0
H307 H 0.40538 0.05892 0.72744 0.0
H308 H 0.69889 0.44366 0.77172 0.0
H309 H 0.68155 0.47849 0.73811 0.0
H310 H 0.59785 0.45869 0.7716 0.0
H311 H 0.61521 0.4241 0.80513 0.0
H312 H 0.6006 0.44737 0.71766 0.0
H313 H 0.63176 0.52574 0.77593 0.0
H314 H 0.66593 0.55633 0.80401 0.0
H315 H 0.71883 0.58168 0.73553 0.0
H316 H 0.68515 0.55087 0.70709 0.0
H317 H 0.52755 0.53473 0.6313 0.0
H318 H 0.54894 0.51733 0.67289 0.0
H319 H 0.63218 0.54423 0.64007 0.0
H320 H 0.61085 0.56249 0.59842 0.0
H321 H 0.63097 0.55373 0.69401 0.0
H322 H 0.60262 0.47436 0.63639 0.0
H323 H 0.56967 0.44363 0.60728 0.0
H324 H 0.51377 0.41892 0.67374 0.0
H325 H 0.5462 0.4499 0.70315 0.0
C326 C 0.67705 0.4476 0.77231 0.0
C327 C 0.65827 0.43158 0.79081 0.0
C328 C 0.66718 0.46742 0.75321 0.0
C329 C 0.63843 0.47111 0.75243 0.0
C330 C 0.6201 0.45618 0.77196 0.0
C331 C 0.63 0.43657 0.79108 0.0
C332 C 0.62663 0.4871 0.72925 0.0
C333 C 0.60689 0.47075 0.71276 0.0
C334 C 0.63572 0.51729 0.72236 0.0
C335 C 0.65607 0.53573 0.73943 0.0
C336 C 0.65082 0.53758 0.7669 0.0
C337 C 0.67007 0.55503 0.78287 0.0
C338 C 0.69458 0.57087 0.77158 0.0
C339 C 0.69986 0.56936 0.74426 0.0
C340 C 0.68068 0.55193 0.7282 0.0
C341 C 0.55042 0.53729 0.63301 0.0
C342 C 0.56754 0.54957 0.61146 0.0
C343 C 0.5626 0.52736 0.6568 0.0
C344 C 0.59211 0.529 0.65933 0.0
C345 C 0.60935 0.54271 0.63845 0.0
C346 C 0.59715 0.55299 0.61466 0.0
C347 C 0.60461 0.51405 0.68279 0.0
C348 C 0.62461 0.53042 0.69909 0.0
C349 C 0.59608 0.48368 0.68945 0.0
C350 C 0.57671 0.46467 0.67191 0.0
C351 C 0.58321 0.46252 0.64475 0.0
C352 C 0.56464 0.44505 0.6282 0.0
C353 C 0.53961 0.42939 0.63864 0.0
C354 C 0.53315 0.4311 0.66567 0.0
C355 C 0.55163 0.4486 0.6823 0.0
H356 H 0.52525 0.41588 0.62579 0.0
H357 H 0.70945 0.58438 0.78397 0.0
H358 H 0.02814 0.60413 0.37025 0.0
H359 H 0.02728 0.59349 0.32247 0.0
H360 H 0.93704 0.59529 0.31962 0.0
H361 H 0.93797 0.60563 0.3675 0.0
H362 H 0.95205 0.5494 0.29266 0.0
H363 H 0.98245 0.65453 0.29661 0.0
H364 H 0.01323 0.6986 0.31162 0.0
H365 H 0.08532 0.66844 0.2775 0.0
H366 H 0.055 0.62397 0.26258 0.0
H367 H 0.92438 0.5715 0.15496 0.0
H368 H 0.93004 0.5744 0.20317 0.0
H369 H 0.02062 0.58076 0.19554 0.0
H370 H 0.01532 0.57969 0.14684 0.0
H371 H 0.00889 0.61939 0.22841 0.0
H372 H 0.97886 0.51629 0.22128 0.0
H373 H 0.94881 0.47179 0.20622 0.0
H374 H 0.87751 0.49653 0.24631 0.0
H375 H 0.90703 0.5414 0.26132 0.0
C376 C 0.00817 0.602 0.35934 0.0
C377 C 0.98311 0.60561 0.37218 0.0
C378 C 0.00769 0.59606 0.33213 0.0
C379 C 0.98213 0.5939 0.31743 0.0
C380 C 0.95697 0.59685 0.33059 0.0
C381 C 0.95748 0.60279 0.3578 0.0
C382 C 0.98167 0.58935 0.2882 0.0
C383 C 0.96428 0.56481 0.27854 0.0
C384 C 0.99833 0.60897 0.26993 0.0
C385 C 0.01651 0.63579 0.27873 0.0
C386 C 1.0049 0.65719 0.29248 0.0
C387 C 0.02225 0.68226 0.30094 0.0
C388 C 0.05122 0.68627 0.29558 0.0
C389 C 0.06288 0.66527 0.28167 0.0
C390 C 0.04562 0.64015 0.27319 0.0
C391 C 0.94559 0.57374 0.1633 0.0
C392 C 0.96938 0.57552 0.14668 0.0
C393 C 0.94875 0.57495 0.19109 0.0
C394 C 0.97573 0.57731 0.20312 0.0
C395 C 0.99956 0.57879 0.18673 0.0
C396 C 0.99644 0.57792 0.15882 0.0
C397 C 0.97896 0.57956 0.23268 0.0
C398 C 0.99687 0.60372 0.24245 0.0
C399 C 0.96293 0.55944 0.25107 0.0
C400 C 0.94513 0.53233 0.24227 0.0
C401 C 0.95673 0.51234 0.22675 0.0
C402 C 0.93979 0.48703 0.21824 0.0
C403 C 0.91126 0.48136 0.22526 0.0
C404 C 0.89962 0.50095 0.24087 0.0
C405 C 0.91645 0.52631 0.24942 0.0
H406 H 0.89818 0.46177 0.21864 0.0
H407 H 0.06462 0.70569 0.30215 0.0
H408 H 0.26738 0.21544 0.15823 0.0
H409 H 0.30636 0.19394 0.13996 0.0
H410 H 0.27078 0.10804 0.17272 0.0
H411 H 0.23121 0.12943 0.19092 0.0
H412 H 0.32603 0.11132 0.17822 0.0
H413 H 0.26787 0.13096 0.10229 0.0
H414 H 0.2411 0.16079 0.07117 0.0
H415 H 0.31728 0.21956 0.05225 0.0
H416 H 0.34445 0.19027 0.08354 0.0
H417 H 0.406 0.06416 0.05137 0.0
H418 H 0.36642 0.08389 0.07127 0.0
H419 H 0.41898 0.10946 0.1395 0.0
H420 H 0.45845 0.08924 0.11984 0.0
H421 H 0.35334 0.13379 0.08311 0.0
H422 H 0.38007 0.11462 0.19564 0.0
H423 H 0.40347 0.08012 0.22524 0.0
H424 H 0.38461 0.01268 0.16853 0.0
H425 H 0.3608 0.04666 0.13877 0.0
C426 C 0.26726 0.19184 0.16141 0.0
C427 C 0.24507 0.17451 0.17607 0.0
C428 C 0.29004 0.1794 0.15081 0.0
C429 C 0.29199 0.14888 0.15416 0.0
C430 C 0.27037 0.13157 0.16944 0.0
C431 C 0.24746 0.14403 0.18006 0.0
C432 C 0.31624 0.1353 0.14169 0.0
C433 C 0.33192 0.1165 0.15742 0.0
C434 C 0.32437 0.14097 0.1143 0.0
C435 C 0.30814 0.15859 0.09545 0.0
C436 C 0.27888 0.15036 0.09163 0.0
C437 C 0.26364 0.16715 0.07394 0.0
C438 C 0.27747 0.1921 0.0598 0.0
C439 C 0.30659 0.20025 0.06325 0.0
C440 C 0.32192 0.18356 0.08094 0.0
C441 C 0.40928 0.07387 0.07069 0.0
C442 C 0.43593 0.07472 0.08378 0.0
C443 C 0.38637 0.0854 0.08216 0.0
C444 C 0.3888 0.0982 0.10742 0.0
C445 C 0.41558 0.09934 0.1204 0.0
C446 C 0.43852 0.0878 0.10892 0.0
C447 C 0.36365 0.1104 0.11979 0.0
C448 C 0.34768 0.12884 0.10398 0.0
C449 C 0.355 0.104 0.14699 0.0
C450 C 0.36892 0.08329 0.16488 0.0
C451 C 0.38083 0.09239 0.18955 0.0
C452 C 0.39418 0.07294 0.20634 0.0
C453 C 0.39561 0.04426 0.19872 0.0
C454 C 0.38358 0.03493 0.17435 0.0
C455 C 0.37018 0.05429 0.15751 0.0
H456 H 0.40598 0.02925 0.21173 0.0
H457 H 0.26563 0.20507 0.04611 0.0
H458 H 0.34054 0.90803 0.60497 0.0
H459 H 0.29045 0.91465 0.6007 0.0
H460 H 0.30822 0.99668 0.64054 0.0
H461 H 0.35834 0.98979 0.64504 0.0
H462 H 0.25764 0.96411 0.65682 0.0
H463 H 0.3051 0.99766 0.57361 0.0
H464 H 0.33381 0.99261 0.53396 0.0
H465 H 0.27286 0.9207 0.50929 0.0
H466 H 0.24396 0.92509 0.54903 0.0
H467 H 0.1592 0.05414 0.60453 0.0
H468 H 0.19864 0.02887 0.62044 0.0
H469 H 0.16508 0.95288 0.57652 0.0
H470 H 0.12553 0.9784 0.56033 0.0
H471 H 0.21965 0.97348 0.56393 0.0
H472 H 0.16802 0.94635 0.64383 0.0
H473 H 0.13925 0.95324 0.68293 0.0
H474 H 0.2073 0.01421 0.71365 0.0
H475 H 0.23635 0.00807 0.67452 0.0
C476 C 0.33354 0.92728 0.61301 0.0
C477 C 0.3529 0.94857 0.62512 0.0
C478 C 0.30506 0.93105 0.61058 0.0
C479 C 0.29571 0.9563 0.62008 0.0
C480 C 0.31502 0.97704 0.63312 0.0
C481 C 0.34354 0.97322 0.63556 0.0
C482 C 0.26631 0.96213 0.61481 0.0
C483 C 0.2493 0.9663 0.63654 0.0
C484 C 0.25523 0.96411 0.58835 0.0
C485 C 0.27257 0.96145 0.56446 0.0
C486 C 0.29795 0.9806 0.55985 0.0
C487 C 0.31423 0.97789 0.53734 0.0
C488 C 0.30521 0.95628 0.51916 0.0
C489 C 0.27985 0.93739 0.52342 0.0
C490 C 0.26351 0.93998 0.54593 0.0
C491 C 0.16001 0.03186 0.59866 0.0
C492 C 0.13953 0.01829 0.58104 0.0
C493 C 0.18238 0.01733 0.60794 0.0
C494 C 0.18471 0.98894 0.59976 0.0
C495 C 0.16355 0.97474 0.58316 0.0
C496 C 0.14096 0.98923 0.57404 0.0
C497 C 0.21102 0.97602 0.60592 0.0
C498 C 0.22761 0.97064 0.58429 0.0
C499 C 0.22168 0.97309 0.63245 0.0
C500 C 0.20432 0.97687 0.65611 0.0
C501 C 0.17679 0.96141 0.6588 0.0
C502 C 0.16044 0.96515 0.681 0.0
C503 C 0.17143 0.98418 0.70074 0.0
C504 C 0.19882 0.99948 0.69834 0.0
C505 C 0.21525 0.99584 0.67617 0.0
H506 H 0.15873 0.98705 0.71791 0.0
H507 H 0.31784 0.95422 0.50174 0.0
H508 H 0.7564 0.41135 0.86349 0.0
H509 H 0.79816 0.43763 0.88495 0.0
H510 H 0.7522 0.43626 0.95877 0.0
H511 H 0.70991 0.41069 0.93714 0.0
H512 H 0.78646 0.48915 0.94881 0.0
H513 H 0.79499 0.38593 0.95156 0.0
H514 H 0.79493 0.33727 0.93267 0.0
H515 H 0.86408 0.37321 0.88144 0.0
H516 H 0.86427 0.42223 0.89976 0.0
H517 H 0.90884 0.51955 0.03191 0.0
H518 H 0.8647 0.4951 0.01276 0.0
H519 H 0.90624 0.49127 0.93718 0.0
H520 H 0.95051 0.51516 0.95625 0.0
H521 H 0.87312 0.4404 0.94993 0.0
H522 H 0.86452 0.54424 0.94816 0.0
H523 H 0.86462 0.59218 0.96848 0.0
H524 H 0.79526 0.55479 0.01878 0.0
H525 H 0.7952 0.50638 0.99934 0.0
C526 C 0.75493 0.41718 0.88411 0.0
C527 C 0.72986 0.40878 0.89866 0.0
C528 C 0.77891 0.43197 0.89642 0.0
C529 C 0.77839 0.43845 0.92357 0.0
C530 C 0.75307 0.43131 0.93784 0.0
C531 C 0.72903 0.41651 0.92552 0.0
C532 C 0.80468 0.45129 0.93731 0.0
C533 C 0.80533 0.47836 0.94937 0.0
C534 C 0.82935 0.43732 0.93775 0.0
C535 C 0.82947 0.40781 0.92686 0.0
C536 C 0.81005 0.38351 0.93613 0.0
C537 C 0.81001 0.35586 0.92554 0.0
C538 C 0.82944 0.35217 0.90582 0.0
C539 C 0.84901 0.37611 0.8967 0.0
C540 C 0.84911 0.40383 0.90719 0.0
C541 C 0.90863 0.51329 0.01128 0.0
C542 C 0.93315 0.51938 0.99557 0.0
C543 C 0.88336 0.49947 1.00032 0.0
C544 C 0.8821 0.49178 0.97342 0.0
C545 C 0.90673 0.4971 0.95796 0.0
C546 C 0.93201 0.51078 0.9689 0.0
C547 C 0.85509 0.47849 0.96116 0.0
C548 C 0.85428 0.45124 0.94941 0.0
C549 C 0.8303 0.4923 0.96112 0.0
C550 C 0.83004 0.52157 0.97247 0.0
C551 C 0.84942 0.54616 0.9637 0.0
C552 C 0.84946 0.57343 0.97503 0.0
C553 C 0.82996 0.57652 0.99487 0.0
C554 C 0.81036 0.55235 1.00342 0.0
C555 C 0.81034 0.52498 0.99228 0.0
H556 H 0.83003 0.59766 1.00361 0.0
H557 H 0.82938 0.33074 0.89765 0.0
H558 H 0.89265 0.67269 0.48866 0.0
H559 H 0.84289 0.6597 0.49912 0.0
H560 H 0.83329 0.59784 0.43627 0.0
H561 H 0.88295 0.61257 0.42418 0.0
H562 H 0.79064 0.62595 0.43403 0.0
H563 H 0.83302 0.57521 0.50548 0.0
H564 H 0.86619 0.56733 0.54281 0.0
H565 H 0.83316 0.63249 0.58709 0.0
H566 H 0.80005 0.6411 0.54987 0.0
H567 H 0.65132 0.57267 0.48932 0.0
H568 H 0.70145 0.57195 0.47906 0.0
H569 H 0.72267 0.65822 0.51054 0.0
H570 H 0.67258 0.65931 0.52017 0.0
H571 H 0.7581 0.60849 0.52824 0.0
H572 H 0.72022 0.66184 0.45067 0.0
H573 H 0.6861 0.66545 0.41329 0.0
H574 H 0.71024 0.58769 0.38099 0.0
H575 H 0.74423 0.5834 0.41846 0.0
C576 C 0.87999 0.65658 0.47675 0.0
C577 C 0.89189 0.64395 0.45534 0.0
C578 C 0.85153 0.64872 0.48314 0.0
C579 C 0.83432 0.62732 0.46887 0.0
C580 C 0.84614 0.61429 0.4477 0.0
C581 C 0.87464 0.62254 0.44097 0.0
C582 C 0.80375 0.6199 0.47539 0.0
C583 C 0.78364 0.62151 0.4546 0.0
C584 C 0.79434 0.61406 0.50223 0.0
C585 C 0.81415 0.60892 0.52477 0.0
C586 C 0.83295 0.58801 0.5231 0.0
C587 C 0.85172 0.58339 0.54426 0.0
C588 C 0.85181 0.59943 0.56729 0.0
C589 C 0.83307 0.62008 0.56924 0.0
C590 C 0.81426 0.62481 0.54813 0.0
C591 C 0.66679 0.59133 0.49418 0.0
C592 C 0.65823 0.6161 0.50543 0.0
C593 C 0.69528 0.59092 0.48828 0.0
C594 C 0.7156 0.61503 0.49409 0.0
C595 C 0.70721 0.63942 0.50598 0.0
C596 C 0.67869 0.64011 0.51131 0.0
C597 C 0.74558 0.61545 0.48703 0.0
C598 C 0.76539 0.61245 0.50771 0.0
C599 C 0.75467 0.61931 0.46012 0.0
C600 C 0.73447 0.62209 0.43752 0.0
C601 C 0.71804 0.64535 0.43574 0.0
C602 C 0.69878 0.64756 0.41451 0.0
C603 C 0.69594 0.62675 0.39482 0.0
C604 C 0.71243 0.60375 0.39628 0.0
C605 C 0.73169 0.60143 0.4175 0.0
H606 H 0.68101 0.6285 0.3784 0.0
H607 H 0.86637 0.59583 0.58365 0.0
H608 H 0.15098 0.28724 0.11115 0.0
H609 H 0.1277 0.3283 0.09221 0.0
H610 H 0.10655 0.34912 0.17186 0.0
H611 H 0.12998 0.30762 0.1909 0.0
H612 H 0.06255 0.35704 0.13839 0.0
H613 H 0.16189 0.39111 0.13406 0.0
H614 H 0.21165 0.3895 0.12246 0.0
H615 H 0.18907 0.38851 0.03875 0.0
H616 H 0.13909 0.38973 0.04988 0.0
H617 H 0.02276 0.49878 0.0966 0.0
H618 H 0.04425 0.4575 0.1175 0.0
H619 H 0.07617 0.43989 0.04066 0.0
H620 H 0.05549 0.48196 0.01988 0.0
H621 H 0.11484 0.43048 0.07402 0.0
H622 H 0.01552 0.39501 0.07783 0.0
H623 H 0.96552 0.39606 0.08895 0.0
H624 H 0.98745 0.39892 0.17274 0.0
H625 H 0.03765 0.39822 0.16208 0.0
C626 C 0.14112 0.30031 0.12473 0.0
C627 C 0.14231 0.29362 0.15266 0.0
C628 C 0.12791 0.32422 0.1138 0.0
C629 C 0.11536 0.34279 0.1303 0.0
C630 C 0.11589 0.33563 0.15831 0.0
C631 C 0.12934 0.31166 0.16931 0.0
C632 C 0.10222 0.36953 0.11827 0.0
C633 C 0.07427 0.37325 0.12463 0.0
C634 C 0.11668 0.39091 0.0996 0.0
C635 C 0.1467 0.39022 0.09283 0.0
C636 C 0.1675 0.39033 0.11319 0.0
C637 C 0.19575 0.38952 0.1067 0.0
C638 C 0.2035 0.38883 0.07989 0.0
C639 C 0.18303 0.38901 0.05951 0.0
C640 C 0.15474 0.38978 0.06589 0.0
C641 C 0.03421 0.48611 0.08397 0.0
C642 C 0.03693 0.4941 0.05624 0.0
C643 C 0.0465 0.46203 0.09607 0.0
C644 C 0.06175 0.44434 0.08096 0.0
C645 C 0.06467 0.45253 0.05325 0.0
C646 C 0.05258 0.4768 0.04118 0.0
C647 C 0.07495 0.41797 0.0939 0.0
C648 C 0.103 0.41431 0.08774 0.0
C649 C 0.0605 0.39657 0.11264 0.0
C650 C 0.03037 0.39686 0.11912 0.0
C651 C 0.00969 0.39605 0.09861 0.0
C652 C 0.98132 0.39655 0.10483 0.0
C653 C 0.97333 0.39764 0.13153 0.0
C654 C 0.99368 0.39812 0.15207 0.0
C655 C 0.02209 0.39765 0.14595 0.0
H656 H 0.95136 0.39804 0.13631 0.0
H657 H 0.22539 0.38821 0.0749 0.0
H658 H 0.65126 0.29132 0.87124 0.0
H659 H 0.62288 0.25003 0.8954 0.0
H660 H 0.6256 0.30048 0.96604 0.0
H661 H 0.65285 0.34271 0.94164 0.0
H662 H 0.63843 0.23842 0.97303 0.0
H663 H 0.56863 0.29637 0.93604 0.0
H664 H 0.54575 0.32363 0.89977 0.0
H665 H 0.52823 0.24459 0.85634 0.0
H666 H 0.55143 0.21694 0.89219 0.0
H667 H 0.53983 0.14012 0.04719 0.0
H668 H 0.56298 0.18572 0.02493 0.0
H669 H 0.54416 0.14903 0.94771 0.0
H670 H 0.51991 0.10357 0.96997 0.0
H671 H 0.53915 0.20585 0.94478 0.0
H672 H 0.60939 0.14789 0.97883 0.0
H673 H 0.63334 0.11911 0.01323 0.0
H674 H 0.65198 0.19584 0.05964 0.0
H675 H 0.62775 0.22499 0.02568 0.0
C676 C 0.64557 0.29392 0.8918 0.0
C677 C 0.65408 0.32058 0.90435 0.0
C678 C 0.62952 0.27018 0.9056 0.0
C679 C 0.62202 0.27242 0.93234 0.0
C680 C 0.63123 0.29847 0.94535 0.0
C681 C 0.64695 0.32247 0.93141 0.0
C682 C 0.60428 0.24748 0.94649 0.0
C683 C 0.61657 0.23153 0.96723 0.0
C684 C 0.57612 0.23813 0.9382 0.0
C685 C 0.56203 0.25466 0.91668 0.0
C686 C 0.56014 0.28486 0.91864 0.0
C687 C 0.54707 0.30037 0.89818 0.0
C688 C 0.53561 0.28587 0.87573 0.0
C689 C 0.53715 0.2558 0.87373 0.0
C690 C 0.55024 0.24019 0.89413 0.0
C691 C 0.54031 0.1419 0.02544 0.0
C692 C 0.52835 0.11823 0.01027 0.0
C693 C 0.55366 0.16792 0.01276 0.0
C694 C 0.55596 0.17048 0.9847 0.0
C695 C 0.54278 0.14744 0.96941 0.0
C696 C 0.52895 0.12151 0.98212 0.0
C697 C 0.57322 0.19662 0.97148 0.0
C698 C 0.56093 0.21276 0.95079 0.0
C699 C 0.60157 0.2059 0.97956 0.0
C700 C 0.61652 0.18855 0.99984 0.0
C701 C 0.61845 0.15858 0.99645 0.0
C702 C 0.63208 0.1422 0.01586 0.0
C703 C 0.64411 0.15562 0.03864 0.0
C704 C 0.64262 0.18547 0.042 0.0
C705 C 0.62895 0.20194 0.02267 0.0
H706 H 0.65465 0.1429 0.05365 0.0
H707 H 0.52549 0.29792 0.85992 0.0
H708 H 0.94 0.74214 0.4272 0.0
H709 H 0.95749 0.79349 0.43583 0.0
H710 H 0.03022 0.76603 0.47758 0.0
H711 H 0.01234 0.71432 0.4696 0.0
H712 H 1.00572 0.80342 0.50619 0.0
H713 H 0.03763 0.80272 0.41639 0.0
H714 H 0.03403 0.79305 0.36823 0.0
H715 H 0.9711 0.85128 0.35719 0.0
H716 H 0.97399 0.86097 0.40538 0.0
H717 H 0.06113 0.9555 0.52085 0.0
H718 H 0.05754 0.90434 0.5075 0.0
H719 H 0.97951 0.91398 0.46505 0.0
H720 H 0.98293 0.96493 0.47813 0.0
H721 H 0.01444 0.88535 0.43604 0.0
H722 H 0.97803 0.88035 0.52629 0.0
H723 H 0.98059 0.88977 0.57454 0.0
H724 H 0.05169 0.84194 0.5844 0.0
H725 H 0.04979 0.83259 0.53609 0.0
C726 C 0.95976 0.74703 0.43815 0.0
C727 C 0.97473 0.72419 0.44783 0.0
C728 C 0.96989 0.77642 0.44285 0.0
C729 C 0.99531 0.78364 0.45714 0.0
C730 C 0.01061 0.76094 0.46641 0.0
C731 C 1.00048 0.73147 0.46168 0.0
C732 C 1.00482 0.81472 0.46368 0.0
C733 C 0.00828 0.82128 0.4908 0.0
C734 C 0.00764 0.83807 0.44363 0.0
C735 C 1.00591 0.83242 0.41457 0.0
C736 C 0.02287 0.81331 0.40375 0.0
C737 C 0.02098 0.80785 0.37643 0.0
C738 C 1.00232 0.82151 0.35967 0.0
C739 C 0.98555 0.84071 0.3702 0.0
C740 C 0.98733 0.84623 0.39751 0.0
C741 C 0.04329 0.94675 0.50856 0.0
C742 C 0.02222 0.96421 0.50067 0.0
C743 C 0.04126 0.91753 0.501 0.0
C744 C 0.01817 0.90535 0.48542 0.0
C745 C 0.99752 0.92297 0.47702 0.0
C746 C 0.99944 0.95205 0.48466 0.0
C747 C 0.01477 0.87397 0.47851 0.0
C748 C 0.01242 0.8674 0.45134 0.0
C749 C 0.01291 0.85061 0.49849 0.0
C750 C 0.01399 0.8561 0.52754 0.0
C751 C 0.99436 0.87206 0.53871 0.0
C752 C 0.99566 0.87735 0.56607 0.0
C753 C 0.01635 0.86655 0.58251 0.0
C754 C 0.03572 0.85035 0.57163 0.0
C755 C 0.03454 0.84505 0.54427 0.0
H756 H 0.01732 0.87066 0.60369 0.0
H757 H 1.00089 0.81725 0.33853 0.0
H758 H 0.48272 0.87334 0.62173 0.0
H759 H 0.49486 0.82662 0.60702 0.0
H760 H 0.44037 0.77881 0.66761 0.0
H761 H 0.42883 0.82566 0.68287 0.0
H762 H 0.48608 0.75314 0.66309 0.0
H763 H 0.41767 0.78659 0.60235 0.0
H764 H 0.39679 0.82177 0.57142 0.0
H765 H 0.46772 0.82617 0.51888 0.0
H766 H 0.48926 0.79135 0.54973 0.0
H767 H 0.47304 0.61688 0.59541 0.0
H768 H 0.46083 0.66154 0.61468 0.0
H769 H 0.5258 0.71487 0.56754 0.0
H770 H 0.53837 0.67048 0.54845 0.0
H771 H 0.47182 0.73567 0.56614 0.0
H772 H 0.53985 0.70158 0.62974 0.0
H773 H 0.55775 0.66456 0.66092 0.0
H774 H 0.4827 0.65884 0.70823 0.0
H775 H 0.46415 0.69553 0.67707 0.0
C776 C 0.47363 0.85284 0.63206 0.0
C777 C 0.45472 0.85297 0.65327 0.0
C778 C 0.48046 0.8262 0.62361 0.0
C779 C 0.46798 0.79921 0.63581 0.0
C780 C 0.45013 0.79937 0.65784 0.0
C781 C 0.44359 0.82609 0.66656 0.0
C782 C 0.47266 0.77092 0.62478 0.0
C783 C 0.4826 0.74918 0.64196 0.0
C784 C 0.46815 0.76574 0.59719 0.0
C785 C 0.4552 0.78657 0.57849 0.0
C786 C 0.42892 0.79522 0.5843 0.0
C787 C 0.41695 0.81508 0.56677 0.0
C788 C 0.43095 0.82625 0.54323 0.0
C789 C 0.45692 0.81753 0.53714 0.0
C790 C 0.46901 0.79772 0.55463 0.0
C791 C 0.48465 0.63814 0.58911 0.0
C792 C 0.50671 0.64023 0.57049 0.0
C793 C 0.47772 0.66355 0.60019 0.0
C794 C 0.49256 0.69135 0.59258 0.0
C795 C 0.51418 0.69354 0.57363 0.0
C796 C 0.52136 0.66818 0.56283 0.0
C797 C 0.48569 0.71832 0.60433 0.0
C798 C 0.47519 0.73971 0.58727 0.0
C799 C 0.48922 0.7229 0.63205 0.0
C800 C 0.50048 0.70106 0.65091 0.0
C801 C 0.52705 0.69224 0.64666 0.0
C802 C 0.53734 0.67135 0.66435 0.0
C803 C 0.52134 0.65929 0.6865 0.0
C804 C 0.49505 0.66817 0.69104 0.0
C805 C 0.48465 0.68902 0.67338 0.0
H806 H 0.52934 0.64312 0.70018 0.0
H807 H 0.42165 0.84162 0.52968 0.0
H808 H 0.84162 0.92779 0.78052 0.0
H809 H 0.86407 0.94815 0.73866 0.0
H810 H 0.94459 0.92809 0.76912 0.0
H811 H 0.92239 0.90856 0.81157 0.0
H812 H 0.95424 0.97935 0.74233 0.0
H813 H 0.90216 0.88701 0.71854 0.0
H814 H 0.86012 0.84941 0.71453 0.0
H815 H 0.81811 0.91114 0.66627 0.0
H816 H 0.85979 0.94925 0.67027 0.0
H817 H 0.02562 0.00479 0.61557 0.0
H818 H 1.00393 0.98401 0.65783 0.0
H819 H 0.92196 0.99901 0.62691 0.0
H820 H 0.94357 0.01898 0.58426 0.0
H821 H 0.91332 0.94997 0.65419 0.0
H822 H 0.96459 0.04257 0.67829 0.0
H823 H 1.00627 0.08064 0.68232 0.0
H824 H 0.04929 0.01928 0.73 0.0
H825 H 0.00797 0.98072 0.72598 0.0
C826 C 0.86418 0.9278 0.77869 0.0
C827 C 0.87978 0.91614 0.80022 0.0
C828 C 0.87713 0.93929 0.7542 0.0
C829 C 0.90636 0.93961 0.74978 0.0
C830 C 0.92208 0.92829 0.77131 0.0
C831 C 0.90912 0.9167 0.79584 0.0
C832 C 0.92039 0.95181 0.72309 0.0
C833 C 0.94535 0.97246 0.72315 0.0
C834 C 0.90904 0.94392 0.69742 0.0
C835 C 0.88399 0.92106 0.69493 0.0
C836 C 0.88388 0.89263 0.70723 0.0
C837 C 0.86013 0.87122 0.70494 0.0
C838 C 0.83643 0.87791 0.69022 0.0
C839 C 0.83647 0.90601 0.6777 0.0
C840 C 0.86016 0.92751 0.67996 0.0
C841 C 1.00296 1.00383 0.61765 0.0
C842 C 0.98666 0.01399 0.596 0.0
C843 C 0.9904 0.99198 0.64223 0.0
C844 C 0.96093 0.99008 0.64659 0.0
C845 C 0.94462 0.99996 0.6248 0.0
C846 C 0.95715 0.01164 0.60014 0.0
C847 C 0.94717 0.97764 0.67337 0.0
C848 C 0.92224 0.95691 0.67334 0.0
C849 C 0.9585 0.98555 0.69907 0.0
C850 C 0.9833 0.00869 0.7016 0.0
C851 C 0.98301 0.03715 0.68949 0.0
C852 C 1.00656 0.05882 0.69179 0.0
C853 C 0.03044 0.05236 0.70635 0.0
C854 C 0.03079 0.02423 0.7187 0.0
C855 C 0.00731 1.00247 0.71643 0.0
H856 H 0.04865 0.06916 0.7081 0.0
H857 H 0.81806 0.8613 0.68847 0.0
H858 H 0.59323 0.1894 0.36327 0.0
H859 H 0.57135 0.16592 0.3234 0.0
H860 H 0.64623 0.12519 0.31235 0.0
H861 H 0.66814 0.14847 0.3518 0.0
H862 H 0.62934 0.15974 0.26735 0.0
H863 H 0.58999 0.08319 0.33259 0.0
H864 H 0.56223 0.06399 0.37257 0.0
H865 H 0.4879 0.09308 0.3363 0.0
H866 H 0.51535 0.11286 0.29623 0.0
H867 H 0.60392 0.06389 0.16562 0.0
H868 H 0.612 0.08083 0.21102 0.0
H869 H 0.5288 0.1076 0.21036 0.0
H870 H 0.52051 0.09027 0.16474 0.0
H871 H 0.54438 0.08416 0.26092 0.0
H872 H 0.58158 0.15833 0.19523 0.0
H873 H 0.60828 0.17851 0.1549 0.0
H874 H 0.68526 0.15688 0.19189 0.0
H875 H 0.65893 0.1361 0.23229 0.0
C876 C 0.60479 0.1751 0.35248 0.0
C877 C 0.63234 0.17069 0.36064 0.0
C878 C 0.59225 0.16164 0.32987 0.0
C879 C 0.60724 0.14386 0.31506 0.0
C880 C 0.63435 0.13878 0.32363 0.0
C881 C 0.64675 0.15194 0.34627 0.0
C882 C 0.596 0.13253 0.28929 0.0
C883 C 0.61089 0.14305 0.26596 0.0
C884 C 0.57128 0.11169 0.28748 0.0
C885 C 0.55481 0.09984 0.31156 0.0
C886 C 0.5678 0.08579 0.33326 0.0
C887 C 0.5521 0.07473 0.35591 0.0
C888 C 0.52334 0.07741 0.35702 0.0
C889 C 0.51019 0.09108 0.33544 0.0
C890 C 0.52581 0.1022 0.31275 0.0
C891 C 0.58724 0.07308 0.17528 0.0
C892 C 0.5618 0.07624 0.16159 0.0
C893 C 0.59182 0.08266 0.20119 0.0
C894 C 0.57121 0.09601 0.21376 0.0
C895 C 0.54499 0.09745 0.2009 0.0
C896 C 0.54028 0.08756 0.17493 0.0
C897 C 0.57838 0.11064 0.23918 0.0
C898 C 0.56266 0.10103 0.26231 0.0
C899 C 0.60221 0.13268 0.24088 0.0
C900 C 0.61823 0.14545 0.21672 0.0
C901 C 0.60417 0.15768 0.1947 0.0
C902 C 0.61924 0.16925 0.17183 0.0
C903 C 0.64844 0.16893 0.17081 0.0
C904 C 0.66263 0.1571 0.1927 0.0
C905 C 0.64765 0.14544 0.2156 0.0
H906 H 0.66007 0.1779 0.15309 0.0
H907 H 0.51122 0.06882 0.37457 0.0
H908 H 0.42475 0.66282 0.25705 0.0
H909 H 0.45071 0.65602 0.29955 0.0
H910 H 0.37192 0.62292 0.33904 0.0
H911 H 0.34617 0.63041 0.29689 0.0
H912 H 0.40489 0.65647 0.37143 0.0
H913 H 0.41594 0.57628 0.31531 0.0
H914 H 0.42956 0.55413 0.27437 0.0
H915 H 0.51554 0.59473 0.28468 0.0
H916 H 0.50233 0.61744 0.32551 0.0
H917 H 0.45037 0.56967 0.48197 0.0
H918 H 0.42874 0.58533 0.43961 0.0
H919 H 0.51101 0.62294 0.40992 0.0
H920 H 0.53281 0.60737 0.45206 0.0
H921 H 0.47926 0.59069 0.37247 0.0
H922 H 0.46811 0.66749 0.43128 0.0
H923 H 0.45384 0.68784 0.47287 0.0
H924 H 0.36723 0.652 0.45804 0.0
H925 H 0.38105 0.63103 0.41655 0.0
C926 C 0.41313 0.65462 0.27502 0.0
C927 C 0.38365 0.64714 0.27405 0.0
C928 C 0.42788 0.65055 0.29917 0.0
C929 C 0.41329 0.63854 0.32242 0.0
C930 C 0.38364 0.63221 0.32144 0.0
C931 C 0.36896 0.63644 0.29741 0.0
C932 C 0.42869 0.63106 0.34746 0.0
C933 C 0.42102 0.64193 0.37166 0.0
C934 C 0.4501 0.6125 0.34776 0.0
C935 C 0.45808 0.59883 0.32326 0.0
C936 C 0.4377 0.58066 0.30872 0.0
C937 C 0.44536 0.56798 0.28556 0.0
C938 C 0.47338 0.5731 0.27688 0.0
C939 C 0.49383 0.59084 0.2914 0.0
C940 C 0.48627 0.60361 0.31455 0.0
C941 C 0.46386 0.58115 0.46638 0.0
C942 C 0.49329 0.58734 0.4704 0.0
C943 C 0.45147 0.59021 0.44226 0.0
C944 C 0.46827 0.60557 0.42176 0.0
C945 C 0.49768 0.61119 0.42551 0.0
C946 C 0.51007 0.60232 0.44964 0.0
C947 C 0.45519 0.61579 0.39639 0.0
C948 C 0.46331 0.60544 0.37217 0.0
C949 C 0.43408 0.63466 0.39611 0.0
C950 C 0.42566 0.64746 0.42093 0.0
C951 C 0.44605 0.66375 0.43699 0.0
C952 C 0.43804 0.67543 0.46053 0.0
C953 C 0.40965 0.67116 0.46813 0.0
C954 C 0.38921 0.65527 0.45215 0.0
C955 C 0.39712 0.6435 0.4286 0.0
H956 H 0.40349 0.68022 0.48636 0.0
H957 H 0.47927 0.56325 0.25895 0.0
H958 H 0.11084 0.48935 0.72062 0.0
H959 H 0.1209 0.50735 0.76568 0.0
H960 H 0.12386 0.41791 0.79695 0.0
H961 H 0.11349 0.39999 0.75186 0.0
H962 H 0.08701 0.44361 0.82322 0.0
H963 H 0.18311 0.46943 0.79852 0.0
H964 H 0.22312 0.49096 0.76984 0.0
H965 H 0.19973 0.57749 0.77639 0.0
H966 H 0.15928 0.55647 0.80473 0.0
H967 H 0.08236 0.50465 0.94741 0.0
H968 H 0.10791 0.48066 0.91453 0.0
H969 H 0.10822 0.55705 0.85967 0.0
H970 H 0.08351 0.58111 0.89262 0.0
H971 H 0.15367 0.52996 0.8512 0.0
H972 H 0.05172 0.50249 0.86184 0.0
H973 H 0.00897 0.48297 0.88776 0.0
H974 H 0.0418 0.40109 0.90464 0.0
H975 H 0.08495 0.42035 0.8791 0.0
C976 C 0.1144 0.47375 0.73707 0.0
C977 C 0.1115 0.44344 0.73311 0.0
C978 C 0.1203 0.48399 0.76273 0.0
C979 C 0.12339 0.46398 0.78469 0.0
C980 C 0.12173 0.43373 0.78031 0.0
C981 C 0.11585 0.42353 0.75464 0.0
C982 C 0.12415 0.4742 0.81243 0.0
C983 C 0.10219 0.46187 0.82966 0.0
C984 C 0.14356 0.49844 0.82061 0.0
C985 C 0.16804 0.51131 0.80372 0.0
C986 C 0.18636 0.49303 0.79372 0.0
C987 C 0.20915 0.50515 0.77753 0.0
C988 C 0.21396 0.53557 0.7713 0.0
C989 C 0.196 0.55393 0.78126 0.0
C990 C 0.17315 0.54193 0.79743 0.0
C991 C 0.08899 0.5167 0.92879 0.0
C992 C 0.0805 0.54441 0.92222 0.0
C993 C 0.10345 0.50297 0.90997 0.0
C994 C 0.10936 0.51679 0.88438 0.0
C995 C 0.10377 0.54586 0.87916 0.0
C996 C 0.08943 0.55951 0.8979 0.0
C997 C 0.11618 0.49975 0.86149 0.0
C998 C 0.13931 0.51091 0.84511 0.0
C999 C 0.09763 0.47463 0.85376 0.0
C1000 C 0.07166 0.46297 0.86892 0.0
C1001 C 0.04987 0.48039 0.87123 0.0
C1002 C 0.02558 0.46939 0.88584 0.0
C1003 C 0.02271 0.44084 0.89792 0.0
C1004 C 0.04409 0.42322 0.89535 0.0
C1005 C 0.06847 0.43417 0.88083 0.0
H1006 H 1.00389 0.43234 0.90921 0.0
H1007 H 0.23164 0.54491 0.7588 0.0
H1008 H 0.78657 0.94531 0.93801 0.0
H1009 H 0.74672 0.96098 0.96142 0.0
H1010 H 0.68892 0.92091 0.90228 0.0
H1011 H 0.72888 0.90565 0.87878 0.0
H1012 H 0.67229 0.97077 0.91136 0.0
H1013 H 0.69535 0.89278 0.97246 0.0
H1014 H 0.72604 0.86586 1.00219 0.0
H1015 H 0.74411 0.94121 0.05042 0.0
H1016 H 0.71378 0.96872 0.02077 0.0
H1017 H 0.54448 0.98708 0.9795 0.0
H1018 H 0.58392 0.96858 0.95828 0.0
H1019 H 0.64071 0.00531 0.01974 0.0
H1020 H 0.60099 0.02293 0.04153 0.0
H1021 H 0.65804 0.95706 0.00964 0.0
H1022 H 0.63597 0.03546 0.94861 0.0
H1023 H 0.60533 0.06282 0.91919 0.0
H1024 H 0.58596 0.98761 0.87096 0.0
H1025 H 0.61626 0.95969 0.90028 0.0
C1026 C 0.76532 0.93919 0.9303 0.0
C1027 C 0.76121 0.9234 0.90669 0.0
C1028 C 0.74224 0.94829 0.94379 0.0
C1029 C 0.71397 0.9421 0.93423 0.0
C1030 C 0.71002 0.92622 0.9106 0.0
C1031 C 0.73308 0.91709 0.89717 0.0
C1032 C 0.68885 0.95275 0.94814 0.0
C1033 C 0.66915 0.96726 0.93283 0.0
C1034 C 0.68429 0.94936 0.9764 0.0
C1035 C 0.70253 0.9329 0.99424 0.0
C1036 C 0.70603 0.90368 0.98929 0.0
C1037 C 0.72334 0.88831 0.00615 0.0
C1038 C 0.73708 0.90184 0.02814 0.0
C1039 C 0.73349 0.93077 0.03336 0.0
C1040 C 0.71623 0.94625 0.01655 0.0
C1041 C 0.56532 0.99131 0.98863 0.0
C1042 C 0.56902 0.00682 0.01248 0.0
C1043 C 0.58827 0.98081 0.97619 0.0
C1044 C 0.61624 0.98573 0.98666 0.0
C1045 C 0.61984 1.00091 0.01072 0.0
C1046 C 0.59683 0.0112 0.0233 0.0
C1047 C 0.64144 0.97507 0.97285 0.0
C1048 C 0.66117 0.96058 0.98817 0.0
C1049 C 0.64613 0.9786 0.9446 0.0
C1050 C 0.62816 0.99541 0.92678 0.0
C1051 C 0.62506 0.02472 0.93181 0.0
C1052 C 0.60777 0.04033 0.91514 0.0
C1053 C 0.59365 0.02693 0.89326 0.0
C1054 C 0.59688 0.99794 0.88794 0.0
C1055 C 0.61413 0.98223 0.90455 0.0
H1056 H 0.58025 0.03904 0.8804 0.0
H1057 H 0.75047 0.8899 0.04117 0.0
H1058 H 0.70151 0.19794 0.47096 0.0
H1059 H 0.73939 0.17495 0.49441 0.0
H1060 H 0.75083 0.12731 0.42408 0.0
H1061 H 0.71382 0.15017 0.4007 0.0
H1062 H 0.75011 0.09173 0.46914 0.0
H1063 H 0.79389 0.19059 0.43805 0.0
H1064 H 0.79937 0.24506 0.43672 0.0
H1065 H 0.814 0.24346 0.52197 0.0
H1066 H 0.80824 0.18892 0.52382 0.0
H1067 H 0.88557 0.0624 0.44761 0.0
H1068 H 0.84172 0.08339 0.44795 0.0
H1069 H 0.8569 0.10502 0.53043 0.0
H1070 H 0.90085 0.083 0.53073 0.0
H1071 H 0.84021 0.15216 0.49472 0.0
H1072 H 0.80762 0.05206 0.52195 0.0
H1073 H 0.80415 0.99789 0.52065 0.0
H1074 H 0.76942 1.0018 0.44071 0.0
H1075 H 0.77308 0.05604 0.44135 0.0
C1076 C 0.71213 0.1825 0.46061 0.0
C1077 C 0.70435 0.17556 0.43411 0.0
C1078 C 0.73368 0.16937 0.47402 0.0
C1079 C 0.7478 0.1493 0.46101 0.0
C1080 C 0.73994 0.14238 0.43466 0.0
C1081 C 0.71862 0.15541 0.42134 0.0
C1082 C 0.77149 0.13583 0.4739 0.0
C1083 C 0.76975 0.10492 0.47492 0.0
C1084 C 0.79681 0.15301 0.48227 0.0
C1085 C 0.80023 0.18573 0.48113 0.0
C1086 C 0.79802 0.20186 0.45653 0.0
C1087 C 0.80122 0.23274 0.45568 0.0
C1088 C 0.80691 0.24771 0.47926 0.0
C1089 C 0.8095 0.23183 0.50373 0.0
C1090 C 0.80627 0.20095 0.5047 0.0
C1091 C 0.87963 0.07106 0.46607 0.0
C1092 C 0.89689 0.07059 0.48924 0.0
C1093 C 0.85449 0.08326 0.46615 0.0
C1094 C 0.84596 0.09543 0.48929 0.0
C1095 C 0.86316 0.09561 0.51239 0.0
C1096 C 0.88833 0.08309 0.51244 0.0
C1097 C 0.81913 0.10822 0.4886 0.0
C1098 C 0.82027 0.13891 0.4899 0.0
C1099 C 0.79327 0.09087 0.48212 0.0
C1100 C 0.7907 0.05817 0.4817 0.0
C1101 C 0.79939 0.04139 0.50403 0.0
C1102 C 0.79737 0.01067 0.50342 0.0
C1103 C 0.78658 0.99642 0.48061 0.0
C1104 C 0.77774 0.01287 0.45838 0.0
C1105 C 0.77974 0.04361 0.45888 0.0
H1106 H 0.78505 0.97263 0.48016 0.0
H1107 H 0.80941 0.27162 0.47856 0.0
H1108 H 0.26112 0.6655 0.1922 0.0
H1109 H 0.21621 0.65561 0.16782 0.0
H1110 H 0.26025 0.6727 0.09253 0.0
H1111 H 0.30527 0.68331 0.11698 0.0
H1112 H 0.21259 0.69597 0.08969 0.0
H1113 H 0.23802 0.60173 0.11714 0.0
H1114 H 0.25301 0.56308 0.14842 0.0
H1115 H 0.1776 0.56185 0.19437 0.0
H1116 H 0.16233 0.60083 0.16359 0.0
H1117 H 0.09808 0.61702 0.01399 0.0
H1118 H 0.1436 0.63541 0.03474 0.0
H1119 H 0.10331 0.63284 0.11169 0.0
H1120 H 0.05779 0.61468 0.09122 0.0
H1121 H 0.15002 0.6019 0.11147 0.0
H1122 H 0.12543 0.69736 0.08168 0.0
H1123 H 0.11142 0.73444 0.04816 0.0
H1124 H 0.18668 0.7306 1.00335 0.0
H1125 H 0.20096 0.69317 0.03643 0.0
C1126 C 0.26119 0.66709 0.17045 0.0
C1127 C 0.28664 0.67487 0.15644 0.0
C1128 C 0.23556 0.66142 0.15653 0.0
C1129 C 0.23492 0.66286 0.12833 0.0
C1130 C 0.26025 0.67138 0.11428 0.0
C1131 C 0.28592 0.67741 0.12823 0.0
C1132 C 0.20784 0.65492 0.11366 0.0
C1133 C 0.19908 0.67523 0.09419 0.0
C1134 C 0.19011 0.62794 0.11965 0.0
C1135 C 0.19916 0.60441 0.13819 0.0
C1136 C 0.22473 0.59338 0.13403 0.0
C1137 C 0.23326 0.57139 0.15166 0.0
C1138 C 0.2163 0.56007 0.17341 0.0
C1139 C 0.19073 0.57067 0.17754 0.0
C1140 C 0.18212 0.5927 0.15999 0.0
C1141 C 0.09882 0.62088 0.03524 0.0
C1142 C 0.07435 0.61429 0.05097 0.0
C1143 C 0.12482 0.63142 0.04703 0.0
C1144 C 0.12675 0.63541 0.07473 0.0
C1145 C 0.10221 0.62985 0.09028 0.0
C1146 C 0.0762 0.61958 0.0785 0.0
C1147 C 0.1546 0.64316 0.08794 0.0
C1148 C 0.16356 0.62265 0.10701 0.0
C1149 C 0.17264 0.66967 0.08123 0.0
C1150 C 0.16411 0.69223 0.06139 0.0
C1151 C 0.13887 0.70422 0.06455 0.0
C1152 C 0.13091 0.72535 0.04566 0.0
C1153 C 0.14811 0.73481 0.0236 0.0
C1154 C 0.17336 0.72322 0.02043 0.0
C1155 C 0.1814 0.70207 0.03925 0.0
H1156 H 0.14191 0.75117 0.009 0.0
H1157 H 0.22294 0.54303 0.18703 0.0
H1158 H 0.18957 0.43454 0.66493 0.0
H1159 H 0.23744 0.45793 0.65376 0.0
H1160 H 0.20905 0.481 0.57364 0.0
H1161 H 0.1613 0.45658 0.58457 0.0
H1162 H 0.25524 0.45933 0.57023 0.0
H1163 H 0.22785 0.5341 0.62248 0.0
H1164 H 0.20788 0.55469 0.66136 0.0
H1165 H 0.27255 0.52479 0.71262 0.0
H1166 H 0.29274 0.50368 0.67411 0.0
H1167 H 0.39332 0.53686 0.54226 0.0
H1168 H 0.34215 0.53063 0.55069 0.0
H1169 H 0.35584 0.48709 0.62781 0.0
H1170 H 0.40669 0.4933 0.61949 0.0
H1171 H 0.31564 0.52658 0.62911 0.0
H1172 H 0.33784 0.44633 0.57665 0.0
H1173 H 0.35706 0.42591 0.53727 0.0
H1174 H 0.30063 0.46869 0.48534 0.0
H1175 H 0.28135 0.4897 0.52443 0.0
C1176 C 0.19351 0.44499 0.64507 0.0
C1177 C 0.17179 0.44382 0.62562 0.0
C1178 C 0.22084 0.45849 0.63871 0.0
C1179 C 0.22686 0.47171 0.61295 0.0
C1180 C 0.20498 0.47102 0.59365 0.0
C1181 C 0.17774 0.45708 0.59989 0.0
C1182 C 0.25635 0.48441 0.60569 0.0
C1183 C 0.26817 0.47461 0.58281 0.0
C1184 C 0.27349 0.50408 0.62221 0.0
C1185 C 0.26171 0.51714 0.6454 0.0
C1186 C 0.23774 0.53177 0.64207 0.0
C1187 C 0.22639 0.54356 0.66404 0.0
C1188 C 0.23891 0.541 0.68945 0.0
C1189 C 0.26288 0.52675 0.69292 0.0
C1190 C 0.27433 0.51492 0.67101 0.0
C1191 C 0.38536 0.5264 0.56114 0.0
C1192 C 0.40386 0.51524 0.58009 0.0
C1193 C 0.35621 0.52278 0.56591 0.0
C1194 C 0.34524 0.50823 0.58982 0.0
C1195 C 0.36387 0.49838 0.60925 0.0
C1196 C 0.39286 0.50168 0.60437 0.0
C1197 C 0.31431 0.50113 0.59399 0.0
C1198 C 0.30234 0.51187 0.61631 0.0
C1199 C 0.29691 0.48258 0.57684 0.0
C1200 C 0.30842 0.46987 0.5534 0.0
C1201 C 0.32972 0.45158 0.55681 0.0
C1202 C 0.34058 0.43987 0.53455 0.0
C1203 C 0.33014 0.44608 0.50881 0.0
C1204 C 0.30874 0.46396 0.50528 0.0
C1205 C 0.29784 0.47576 0.52748 0.0
H1206 H 0.33857 0.43698 0.4916 0.0
H1207 H 0.23006 0.55011 0.70642 0.0
H1208 H 0.85946 0.85029 0.92174 0.0
H1209 H 0.87753 0.80835 0.94527 0.0
H1210 H 0.90721 0.78215 0.87043 0.0
H1211 H 0.88725 0.82223 0.84664 0.0
H1212 H 0.89224 0.73498 0.89503 0.0
H1213 H 0.95131 0.81976 0.92675 0.0
H1214 H 0.96266 0.8676 0.94773 0.0
H1215 H 0.92346 0.82969 0.02084 0.0
H1216 H 0.91159 0.78169 1.00018 0.0
H1217 H 0.98804 0.63897 0.95028 0.0
H1218 H 0.96705 0.6804 0.92893 0.0
H1219 H 0.92731 0.69307 1.00342 0.0
H1220 H 0.94851 0.6516 0.02497 0.0
H1221 H 0.9463 0.7463 0.98045 0.0
H1222 H 0.89016 0.65976 0.94691 0.0
H1223 H 0.88215 0.61253 0.92447 0.0
H1224 H 0.9203 0.65525 0.85268 0.0
H1225 H 0.92886 0.70266 0.87473 0.0
C1226 C 0.86949 0.83556 0.91002 0.0
C1227 C 0.87192 0.84087 0.88185 0.0
C1228 C 0.88045 0.81146 0.92379 0.0
C1229 C 0.89485 0.7917 0.91019 0.0
C1230 C 0.89667 0.79661 0.88204 0.0
C1231 C 0.88541 0.82033 0.86826 0.0
C1232 C 0.90764 0.76592 0.92474 0.0
C1233 C 0.90436 0.73791 0.91352 0.0
C1234 C 0.92327 0.76845 0.94938 0.0
C1235 C 0.93028 0.79725 0.96182 0.0
C1236 C 0.94494 0.82169 0.94724 0.0
C1237 C 0.95149 0.84882 0.95908 0.0
C1238 C 0.94371 0.85171 0.98557 0.0
C1239 C 0.92942 0.82744 1.0003 0.0
C1240 C 0.92279 0.80026 0.98854 0.0
C1241 C 0.97487 0.65047 0.96228 0.0
C1242 C 0.97019 0.64141 0.9896 0.0
C1243 C 0.96258 0.67433 0.94986 0.0
C1244 C 0.94491 0.69026 0.96412 0.0
C1245 C 0.94061 0.68156 0.99156 0.0
C1246 C 0.95282 0.65757 1.00398 0.0
C1247 C 0.9311 0.71572 0.95052 0.0
C1248 C 0.93416 0.74355 0.96195 0.0
C1249 C 0.91569 0.7132 0.92583 0.0
C1250 C 0.91037 0.68472 0.91255 0.0
C1251 C 0.897 0.65905 0.92639 0.0
C1252 C 0.89234 0.63225 0.91375 0.0
C1253 C 0.90077 0.63089 0.88723 0.0
C1254 C 0.91381 0.65633 0.87324 0.0
C1255 C 0.91854 0.68318 0.88579 0.0
H1256 H 0.89714 0.61012 0.87749 0.0
H1257 H 0.94881 0.87272 0.99471 0.0
H1258 H 0.38995 0.74895 0.21297 0.0
H1259 H 0.4196 0.79557 0.19971 0.0
H1260 H 0.4035 0.77828 0.11625 0.0
H1261 H 0.37503 0.73141 0.1293 0.0
H1262 H 0.456 0.80277 0.12223 0.0
H1263 H 0.3645 0.82227 0.15132 0.0
H1264 H 0.32563 0.82112 0.18345 0.0
H1265 H 0.38241 0.86921 0.23846 0.0
H1266 H 0.42172 0.8703 0.20675 0.0
H1267 H 0.45931 0.94128 0.05213 0.0
H1268 H 0.44485 0.89299 0.07489 0.0
H1269 H 0.48141 0.92548 0.14907 0.0
H1270 H 0.49626 0.97397 0.12636 0.0
H1271 H 0.42561 0.89426 0.15377 0.0
H1272 H 0.5154 0.88106 0.11894 0.0
H1273 H 0.5518 0.88343 0.08414 0.0
H1274 H 0.49566 0.82424 0.0372 0.0
H1275 H 0.45875 0.82187 0.07154 0.0
C1276 C 0.39326 0.75485 0.19182 0.0
C1277 C 0.37978 0.73675 0.17218 0.0
C1278 C 0.40999 0.78159 0.18426 0.0
C1279 C 0.41333 0.79071 0.15697 0.0
C1280 C 0.40114 0.77185 0.13742 0.0
C1281 C 0.38462 0.74517 0.14492 0.0
C1282 C 0.42795 0.82051 0.14843 0.0
C1283 C 0.44932 0.82276 0.12912 0.0
C1284 C 0.41968 0.84667 0.15779 0.0
C1285 C 0.3961 0.84601 0.17684 0.0
C1286 C 0.36874 0.83238 0.17036 0.0
C1287 C 0.34663 0.83178 0.18848 0.0
C1288 C 0.35157 0.84499 0.21302 0.0
C1289 C 0.37863 0.85892 0.21947 0.0
C1290 C 0.40083 0.85953 0.20144 0.0
C1291 C 0.46434 0.93818 0.07327 0.0
C1292 C 0.47897 0.96142 0.08744 0.0
C1293 C 0.45617 0.91054 0.08621 0.0
C1294 C 0.46231 0.90564 0.11358 0.0
C1295 C 0.47661 0.92884 0.1279 0.0
C1296 C 0.48511 0.95646 0.11489 0.0
C1297 C 0.45305 0.87637 0.12716 0.0
C1298 C 0.4327 0.87426 0.14735 0.0
C1299 C 0.46196 0.85034 0.11834 0.0
C1300 C 0.48423 0.85144 0.09776 0.0
C1301 C 0.51073 0.86871 0.10111 0.0
C1302 C 0.53148 0.87003 0.08148 0.0
C1303 C 0.52603 0.85403 0.05845 0.0
C1304 C 0.49985 0.83663 0.05505 0.0
C1305 C 0.47902 0.83525 0.07461 0.0
H1306 H 0.54211 0.8551 0.04327 0.0
H1307 H 0.33442 0.84452 0.22702 0.0
H1308 H 0.13228 0.34697 0.60288 0.0
H1309 H 0.11238 0.30197 0.58165 0.0
H1310 H 0.02959 0.32982 0.58105 0.0
H1311 H 0.0495 0.37494 0.6029 0.0
H1312 H 0.0259 0.27527 0.59985 0.0
H1313 H 0.06637 0.32612 0.5216 0.0
H1314 H 0.10264 0.35634 0.49348 0.0
H1315 H 0.15705 0.28931 0.50443 0.0
H1316 H 0.1213 0.25886 0.53295 0.0
H1317 H 0.98423 0.13844 0.53154 0.0
H1318 H 0.99145 0.1915 0.53974 0.0
H1319 H 0.07803 0.18586 0.56325 0.0
H1320 H 0.07106 0.13332 0.55558 0.0
H1321 H 0.07098 0.23304 0.5249 0.0
H1322 H 0.03257 0.18791 0.61004 0.0
H1323 H 0.99564 0.158 0.63769 0.0
H1324 H 0.9357 0.21558 0.61127 0.0
H1325 H 0.97223 0.24562 0.58317 0.0
C1326 C 0.10997 0.3439 0.59762 0.0
C1327 C 0.09247 0.36454 0.60443 0.0
C1328 C 0.09858 0.31813 0.58543 0.0
C1329 C 0.06951 0.31263 0.57937 0.0
C1330 C 0.05207 0.33361 0.58548 0.0
C1331 C 0.06345 0.35934 0.59793 0.0
C1332 C 0.0573 0.28385 0.56874 0.0
C1333 C 0.03529 0.26637 0.58299 0.0
C1334 C 0.06955 0.27207 0.54682 0.0
C1335 C 0.09114 0.29024 0.52953 0.0
C1336 C 0.08613 0.31788 0.51815 0.0
C1337 C 0.1066 0.33505 0.50212 0.0
C1338 C 0.13215 0.32476 0.49719 0.0
C1339 C 0.13725 0.29725 0.50825 0.0
C1340 C 0.11686 0.28 0.52432 0.0
C1341 C 1.00472 0.14853 0.53863 0.0
C1342 C 0.02706 0.13167 0.54292 0.0
C1343 C 0.0088 0.17877 0.54324 0.0
C1344 C 0.03533 0.19251 0.55191 0.0
C1345 C 0.05748 0.17567 0.55636 0.0
C1346 C 0.05336 0.14556 0.5521 0.0
C1347 C 0.04052 0.22443 0.55664 0.0
C1348 C 0.06116 0.2424 0.54125 0.0
C1349 C 0.02686 0.23673 0.57728 0.0
C1350 C 1.005 0.21875 0.59425 0.0
C1351 C 0.01144 0.19402 0.60994 0.0
C1352 C 0.9906 0.17708 0.62573 0.0
C1353 C 0.96331 0.18482 0.62616 0.0
C1354 C 0.95683 0.20957 0.61087 0.0
C1355 C 0.97759 0.22656 0.59502 0.0
H1356 H 0.9472 0.17168 0.63841 0.0
H1357 H 0.14797 0.3381 0.48478 0.0
H1358 H 0.68491 0.33494 0.43261 0.0
H1359 H 0.66412 0.37146 0.45706 0.0
H1360 H 0.58808 0.30922 0.46943 0.0
H1361 H 0.60888 0.27284 0.4445 0.0
H1362 H 0.57574 0.36042 0.44905 0.0
H1363 H 0.63169 0.33057 0.52252 0.0
H1364 H 0.6745 0.31809 0.5464 0.0
H1365 H 0.71601 0.40664 0.53031 0.0
H1366 H 0.67359 0.41957 0.50599 0.0
H1367 H 0.51774 0.46581 0.52496 0.0
H1368 H 0.53546 0.42077 0.51257 0.0
H1369 H 0.61507 0.47202 0.48958 0.0
H1370 H 0.59767 0.51705 0.50198 0.0
H1371 H 0.62202 0.42181 0.52062 0.0
H1372 H 0.56744 0.4489 0.44256 0.0
H1373 H 0.52436 0.46096 0.41886 0.0
H1374 H 0.47981 0.37626 0.44471 0.0
H1375 H 0.52255 0.36386 0.46889 0.0
C1376 C 0.66405 0.32894 0.44118 0.0
C1377 C 0.64843 0.3013 0.43707 0.0
C1378 C 0.6522 0.34971 0.45517 0.0
C1379 C 0.62461 0.34298 0.46529 0.0
C1380 C 0.60941 0.31481 0.46188 0.0
C1381 C 0.62129 0.29407 0.44783 0.0
C1382 C 0.61083 0.36635 0.477 0.0
C1383 C 0.58554 0.3734 0.46514 0.0
C1384 C 0.62387 0.38362 0.49765 0.0
C1385 C 0.64949 0.37597 0.51225 0.0
C1386 C 0.65002 0.34733 0.52388 0.0
C1387 C 0.67421 0.34018 0.53753 0.0
C1388 C 0.69798 0.36154 0.53983 0.0
C1389 C 0.69759 0.39011 0.52851 0.0
C1390 C 0.67346 0.39737 0.51482 0.0
C1391 C 0.53897 0.46751 0.51713 0.0
C1392 C 0.55626 0.49502 0.51432 0.0
C1393 C 0.54904 0.44176 0.51009 0.0
C1394 C 0.57653 0.44313 0.50011 0.0
C1395 C 0.59382 0.47052 0.49734 0.0
C1396 C 0.58376 0.49625 0.50427 0.0
C1397 C 0.58737 0.41611 0.49226 0.0
C1398 C 0.61206 0.40845 0.50485 0.0
C1399 C 0.57374 0.39818 0.47237 0.0
C1400 C 0.54808 0.4056 0.45779 0.0
C1401 C 0.54838 0.43296 0.44339 0.0
C1402 C 0.52404 0.43983 0.42983 0.0
C1403 C 0.49933 0.41942 0.43035 0.0
C1404 C 0.49894 0.39206 0.44437 0.0
C1405 C 0.52322 0.3851 0.45799 0.0
H1406 H 0.48051 0.42478 0.41984 0.0
H1407 H 0.71668 0.35597 0.55041 0.0
loop_
_geom_bond_atom_site_label_1
_geom_bond_atom_site_label_2
_geom_bond_distance
_geom_bond_site_symmetry_2
_ccdc_geom_bond_type
H0 C3 0.929 . S
H1 C6 0.929 . S
H2 C8 0.930 . S
C3 H0 0.929 . S
C3 C4 1.398 . S
C3 C5 1.396 . S
C4 C3 1.398 . S
C4 C8 1.407 . S
C5 C3 1.396 . S
C5 C6 1.394 . S
C6 H1 0.929 . S
C6 C5 1.394 . S
C6 C7 1.382 . S
C7 C6 1.382 . S
C7 C8 1.392 . S
C7 N9 1.420 . S
C8 H2 0.930 . S
C8 C4 1.407 . S
C8 C7 1.392 . S
N9 C7 1.420 . S
N9 C10 1.244 . S
C10 N9 1.244 . S
H11 C14 0.929 . S
H12 C17 0.929 . S
H13 C19 0.930 . S
C14 H11 0.929 . S
C14 C15 1.398 . S
C14 C16 1.396 . S
C15 C14 1.398 . S
C15 C19 1.407 . S
C16 C14 1.396 . S
C16 C17 1.394 . S
C17 H12 0.929 . S
C17 C16 1.394 . S
C17 C18 1.382 . S
C18 C17 1.382 . S
C18 C19 1.392 . S
C18 N20 1.420 . S
C19 H13 0.930 . S
C19 C15 1.407 . S
C19 C18 1.392 . S
N20 C18 1.420 . S
N20 C21 1.244 . S
C21 N20 1.244 . S
H22 C25 0.929 . S
H23 C28 0.929 . S
H24 C30 0.930 . S
C25 H22 0.929 . S
C25 C26 1.398 . S
C25 C27 1.396 . S
C26 C25 1.398 . S
C26 C30 1.407 . S
C27 C25 1.396 . S
C27 C28 1.394 . S
C28 H23 0.929 . S
C28 C27 1.394 . S
C28 C29 1.382 . S
C29 C28 1.382 . S
C29 C30 1.392 . S
C29 N31 1.420 . S
C30 H24 0.930 . S
C30 C26 1.407 . S
C30 C29 1.392 . S
N31 C29 1.420 . S
N31 C32 1.244 . S
C32 N31 1.244 . S
H33 C36 0.929 . S
H34 C39 0.929 . S
H35 C41 0.930 . S
C36 H33 0.929 . S
C36 C37 1.398 . S
C36 C38 1.396 . S
C37 C36 1.398 . S
C37 C41 1.407 . S
C38 C36 1.396 . S
C38 C39 1.394 . S
C39 H34 0.929 . S
C39 C38 1.394 . S
C39 C40 1.382 . S
C40 C39 1.382 . S
C40 C41 1.392 . S
C40 N42 1.420 . S
C41 H35 0.930 . S
C41 C37 1.407 . S
C41 C40 1.392 . S
N42 C40 1.420 . S
N42 C43 1.244 . S
C43 N42 1.244 . S
H44 C47 0.929 . S
H45 C50 0.929 . S
H46 C52 0.930 . S
C47 H44 0.929 . S
C47 C48 1.398 . S
C47 C49 1.396 . S
C48 C47 1.398 . S
C48 C52 1.407 . S
C49 C47 1.396 . S
C49 C50 1.394 . S
C50 H45 0.929 . S
C50 C49 1.394 . S
C50 C51 1.382 . S
C51 C50 1.382 . S
C51 C52 1.392 . S
C51 N53 1.420 . S
C52 H46 0.930 . S
C52 C48 1.407 . S
C52 C51 1.392 . S
N53 C51 1.420 . S
N53 C54 1.244 . S
C54 N53 1.244 . S
H55 C58 0.929 . S
H56 C61 0.929 . S
H57 C63 0.930 . S
C58 H55 0.929 . S
C58 C59 1.398 . S
C58 C60 1.396 . S
C59 C58 1.398 . S
C59 C63 1.407 . S
C60 C58 1.396 . S
C60 C61 1.394 . S
C61 H56 0.929 . S
C61 C60 1.394 . S
C61 C62 1.382 . S
C62 C61 1.382 . S
C62 C63 1.392 . S
C62 N64 1.420 . S
C63 H57 0.930 . S
C63 C59 1.407 . S
C63 C62 1.392 . S
N64 C62 1.420 . S
N64 C65 1.244 . S
C65 N64 1.244 . S
H66 C69 0.929 . S
H67 C72 0.929 . S
H68 C74 0.930 . S
C69 H66 0.929 . S
C69 C70 1.398 . S
C69 C71 1.396 . S
C70 C69 1.398 . S
C70 C74 1.407 . S
C71 C69 1.396 . S
C71 C72 1.394 . S
C72 H67 0.929 . S
C72 C71 1.394 . S
C72 C73 1.382 . S
C73 C72 1.382 . S
C73 C74 1.392 . S
C73 N75 1.420 . S
C74 H68 0.930 . S
C74 C70 1.407 . S
C74 C73 1.392 . S
N75 C73 1.420 . S
N75 C76 1.244 . S
C76 N75 1.244 . S
H77 C80 0.929 . S
H78 C83 0.929 . S
H79 C85 0.930 . S
C80 H77 0.929 . S
C80 C81 1.398 . S
C80 C82 1.396 . S
C81 C80 1.398 . S
C81 C85 1.407 . S
C82 C80 1.396 . S
C82 C83 1.394 . S
C83 H78 0.929 . S
C83 C82 1.394 . S
C83 C84 1.382 . S
C84 C83 1.382 . S
C84 C85 1.392 . S
C84 N86 1.420 . S
C85 H79 0.930 . S
C85 C81 1.407 . S
C85 C84 1.392 . S
N86 C84 1.420 . S
N86 C87 1.244 . S
C87 N86 1.244 . S
Co88 N93 2.057 . S
Co88 O105 2.021 . S
Co88 O108 2.063 1_655 S
Co88 O112 2.117 . S
Co88 O113 2.020 . S
C89 O109 1.259 1_655 S
C89 O112 1.258 1_565 S
Co90 N99 2.057 . S
Co90 O106 2.117 . S
Co90 O107 2.020 . S
Co90 O109 2.021 1_545 S
Co90 O114 2.062 . S
C91 N93 1.316 . S
C91 N94 1.347 . S
C91 H96 0.931 . S
C92 N93 1.375 . S
C92 C95 1.350 . S
C92 H97 0.930 . S
N93 Co88 2.057 . S
N93 C91 1.316 . S
N93 C92 1.375 . S
N94 C91 1.347 . S
N94 C95 1.373 . S
C95 C92 1.350 . S
C95 N94 1.373 . S
C95 H116 0.931 . S
H96 C91 0.931 . S
H97 C92 0.930 . S
C98 O105 1.259 1_455 S
C98 O106 1.258 . S
N99 Co90 2.057 . S
N99 C100 1.353 . S
N99 C101 1.375 . S
C100 N99 1.353 . S
C100 N102 1.351 . S
C100 H111 0.896 1_545 S
C101 N99 1.375 . S
C101 C103 1.350 . S
C101 H110 0.930 . S
N102 C100 1.351 . S
N102 C103 1.373 . S
C103 C101 1.350 . S
C103 N102 1.373 . S
C103 H117 0.931 . S
C104 O107 1.256 . S
C104 O108 1.252 . S
O105 Co88 2.021 . S
O105 C98 1.259 1_655 S
O106 Co90 2.117 . S
O106 C98 1.258 . S
O107 Co90 2.020 . S
O107 C104 1.256 . S
O108 Co88 2.063 1_455 S
O108 C104 1.252 . S
O109 C89 1.259 1_455 S
O109 Co90 2.021 1_565 S
H110 C101 0.930 . S
H111 C100 0.896 1_565 S
O112 Co88 2.117 . S
O112 C89 1.258 1_545 S
O113 Co88 2.020 . S
O113 C115 1.256 . S
O114 Co90 2.062 . S
O114 C115 1.255 1_455 S
C115 O113 1.256 . S
C115 O114 1.255 1_655 S
H116 C95 0.931 . S
H117 C103 0.931 . S
Co118 N123 2.057 1_554 S
Co118 O135 2.021 . S
Co118 O138 2.062 . S
Co118 O142 2.117 1_545 S
Co118 O143 2.020 . S
C119 O139 1.259 . S
C119 O142 1.258 . S
Co120 N129 2.057 . S
Co120 O136 2.117 . S
Co120 O137 2.020 . S
Co120 O139 2.021 1_545 S
Co120 O144 2.062 . S
C121 N123 1.316 . S
C121 N124 1.347 1_545 S
C121 H126 0.931 . S
C122 N123 1.375 1_565 S
C122 C125 1.350 . S
C122 H127 0.930 . S
N123 Co118 2.057 1_556 S
N123 C121 1.316 . S
N123 C122 1.375 1_545 S
N124 C121 1.347 1_565 S
N124 C125 1.373 . S
C125 C122 1.350 . S
C125 N124 1.373 . S
C125 H146 0.931 . S
H126 C121 0.931 . S
H127 C122 0.930 . S
C128 O135 1.259 . S
C128 O136 1.258 . S
N129 Co120 2.057 . S
N129 C130 1.316 . S
N129 C131 1.375 . S
C130 N129 1.316 . S
C130 N132 1.347 . S
C130 H141 0.931 . S
C131 N129 1.375 . S
C131 C133 1.350 . S
C131 H140 0.930 . S
N132 C130 1.347 . S
N132 C133 1.373 . S
C133 C131 1.350 . S
C133 N132 1.373 . S
C133 H147 0.931 . S
C134 O137 1.256 . S
C134 O138 1.255 . S
O135 Co118 2.021 . S
O135 C128 1.259 . S
O136 Co120 2.117 . S
O136 C128 1.258 . S
O137 Co120 2.020 . S
O137 C134 1.256 . S
O138 Co118 2.062 . S
O138 C134 1.255 . S
O139 C119 1.259 . S
O139 Co120 2.021 1_565 S
H140 C131 0.930 . S
H141 C130 0.931 . S
O142 Co118 2.117 1_565 S
O142 C119 1.258 . S
O143 Co118 2.020 . S
O143 C145 1.256 . S
O144 Co120 2.062 . S
O144 C145 1.255 . S
C145 O143 1.256 . S
C145 O144 1.255 . S
H146 C125 0.931 . S
H147 C133 0.931 . S
Co148 N153 2.057 . S
Co148 O165 2.021 . S
Co148 O168 2.062 . S
Co148 O172 2.117 . S
Co148 O173 2.020 . S
C149 O169 1.259 . S
C149 O172 1.258 . S
Co150 N159 2.057 . S
Co150 O166 2.117 . S
Co150 O167 2.020 . S
Co150 O169 2.021 . S
Co150 O174 2.062 . S
C151 N153 1.316 . S
C151 N154 1.347 . S
C151 H156 0.931 . S
C152 N153 1.375 . S
C152 C155 1.350 . S
C152 H157 0.930 . S
N153 Co148 2.057 . S
N153 C151 1.316 . S
N153 C152 1.375 . S
N154 C151 1.347 . S
N154 C155 1.373 . S
C155 C152 1.350 . S
C155 N154 1.373 . S
C155 H176 0.931 . S
H156 C151 0.931 . S
H157 C152 0.930 . S
C158 O165 1.259 . S
C158 O166 1.258 . S
N159 Co150 2.057 . S
N159 C160 1.316 . S
N159 C161 1.375 . S
C160 N159 1.316 . S
C160 N162 1.347 . S
C160 H171 0.931 . S
C161 N159 1.375 . S
C161 C163 1.350 . S
C161 H170 0.930 . S
N162 C160 1.347 . S
N162 C163 1.373 . S
C163 C161 1.350 . S
C163 N162 1.373 . S
C163 H177 0.931 . S
C164 O167 1.256 . S
C164 O168 1.255 . S
O165 Co148 2.021 . S
O165 C158 1.259 . S
O166 Co150 2.117 . S
O166 C158 1.258 . S
O167 Co150 2.020 . S
O167 C164 1.256 . S
O168 Co148 2.062 . S
O168 C164 1.255 . S
O169 C149 1.259 . S
O169 Co150 2.021 . S
H170 C161 0.930 . S
H171 C160 0.931 . S
O172 Co148 2.117 . S
O172 C149 1.258 . S
O173 Co148 2.020 . S
O173 C175 1.256 . S
O174 Co150 2.062 . S
O174 C175 1.255 . S
C175 O173 1.256 . S
C175 O174 1.255 . S
H176 C155 0.931 . S
H177 C163 0.931 . S
Co178 N183 2.057 . S
Co178 O195 2.021 1_556 S
Co178 O198 2.062 1_556 S
Co178 O202 2.117 1_455 S
Co178 O203 2.020 . S
C179 O199 1.259 . S
C179 O202 1.258 1_554 S
Co180 N189 2.057 . S
Co180 O196 2.117 . S
Co180 O197 2.020 . S
Co180 O199 2.021 1_455 S
Co180 O204 2.062 . S
C181 N183 1.316 . S
C181 N184 1.347 . S
C181 H186 0.931 . S
C182 N183 1.375 . S
C182 C185 1.350 . S
C182 H187 0.930 1_455 S
N183 Co178 2.057 . S
N183 C181 1.316 . S
N183 C182 1.375 . S
N184 C181 1.347 . S
N184 C185 1.373 . S
C185 C182 1.350 . S
C185 N184 1.373 . S
C185 H206 0.931 . S
H186 C181 0.931 . S
H187 C182 0.930 1_655 S
C188 O195 1.259 . S
C188 O196 1.258 . S
N189 Co180 2.057 . S
N189 C190 1.316 1_455 S
N189 C191 1.375 . S
C190 N189 1.316 1_655 S
C190 N192 1.347 . S
C190 H201 0.931 . S
C191 N189 1.375 . S
C191 C193 1.350 . S
C191 H200 0.930 . S
N192 C190 1.347 . S
N192 C193 1.373 1_655 S
C193 C191 1.350 . S
C193 N192 1.373 1_455 S
C193 H207 0.931 . S
C194 O197 1.256 . S
C194 O198 1.255 . S
O195 Co178 2.021 1_554 S
O195 C188 1.259 . S
O196 Co180 2.117 . S
O196 C188 1.258 . S
O197 Co180 2.020 . S
O197 C194 1.256 . S
O198 Co178 2.062 1_554 S
O198 C194 1.255 . S
O199 C179 1.259 . S
O199 Co180 2.021 1_655 S
H200 C191 0.930 . S
H201 C190 0.931 . S
O202 Co178 2.117 1_655 S
O202 C179 1.258 1_556 S
O203 Co178 2.020 . S
O203 C205 1.256 1_556 S
O204 Co180 2.062 . S
O204 C205 1.255 . S
C205 O203 1.256 1_554 S
C205 O204 1.255 . S
H206 C185 0.931 . S
H207 C193 0.931 . S
H208 C226 0.951 . S
H209 C228 0.951 . S
H210 C230 0.950 . S
H211 C231 0.950 . S
H212 C233 0.950 . S
H213 C236 0.950 . S
H214 C237 0.950 . S
H215 C239 0.950 . S
H216 C240 0.950 . S
H217 C241 0.951 . S
H218 C243 0.951 . S
H219 C245 0.950 . S
H220 C246 0.950 . S
H221 C248 0.950 . S
H222 C251 0.950 . S
H223 C252 0.950 . S
H224 C254 0.950 . S
H225 C255 0.950 . S
C226 H208 0.951 . S
C226 C227 1.366 . S
C226 C228 1.388 . S
C227 C226 1.366 . S
C227 C231 1.385 . S
C228 H209 0.951 . S
C228 C226 1.388 . S
C228 C229 1.366 . S
C229 C228 1.366 . S
C229 C230 1.414 . S
C229 C232 1.499 . S
C230 H210 0.950 . S
C230 C229 1.414 . S
C230 C231 1.374 . S
C231 H211 0.950 . S
C231 C227 1.385 . S
C231 C230 1.374 . S
C232 C229 1.499 . S
C232 C233 1.373 . S
C232 C234 1.389 . S
C233 H212 0.950 . S
C233 C232 1.373 . S
C233 C249 1.377 . S
C234 C232 1.389 . S
C234 C235 1.524 . S
C234 C248 1.377 . S
C235 C234 1.524 . S
C235 C236 1.397 . S
C235 C240 1.363 . S
C236 H213 0.950 . S
C236 C235 1.397 . S
C236 C237 1.334 . S
C237 H214 0.950 . S
C237 C236 1.334 . S
C237 C238 1.287 . S
C238 C237 1.287 . S
C238 C239 1.524 . S
C238 H257 0.913 . S
C239 H215 0.950 . S
C239 C238 1.524 . S
C239 C240 1.415 . S
C240 H216 0.950 . S
C240 C235 1.363 . S
C240 C239 1.415 . S
C241 H217 0.951 . S
C241 C242 1.366 . S
C241 C243 1.388 . S
C242 C241 1.366 . S
C242 C246 1.385 . S
C243 H218 0.951 . S
C243 C241 1.388 . S
C243 C244 1.366 . S
C244 C243 1.366 . S
C244 C245 1.414 . S
C244 C247 1.499 . S
C245 H219 0.950 . S
C245 C244 1.414 . S
C245 C246 1.374 . S
C246 H220 0.950 . S
C246 C242 1.385 . S
C246 C245 1.374 . S
C247 C244 1.499 . S
C247 C248 1.373 . S
C247 C249 1.389 . S
C248 H221 0.950 . S
C248 C234 1.377 . S
C248 C247 1.373 . S
C249 C233 1.377 . S
C249 C247 1.389 . S
C249 C250 1.524 . S
C250 C249 1.524 . S
C250 C251 1.397 . S
C250 C255 1.363 . S
C251 H222 0.950 . S
C251 C250 1.397 . S
C251 C252 1.334 1_455 S
C252 H223 0.950 . S
C252 C251 1.334 1_655 S
C252 C253 1.287 . S
C253 C252 1.287 . S
C253 C254 1.524 1_645 S
C253 H256 0.999 1_545 S
C254 H224 0.950 . S
C254 C253 1.524 1_465 S
C254 C255 1.415 1_565 S
C255 H225 0.950 . S
C255 C250 1.363 . S
C255 C254 1.415 1_545 S
H256 C253 0.999 1_565 S
H257 C238 0.913 . S
H258 C276 0.951 . S
H259 C278 0.951 . S
H260 C280 0.950 . S
H261 C281 0.950 . S
H262 C283 0.950 . S
H263 C286 0.950 1_565 S
H264 C287 0.950 . S
H265 C289 0.950 . S
H266 C290 0.950 . S
H267 C291 0.951 . S
H268 C293 0.951 . S
H269 C295 0.950 1_545 S
H270 C296 0.950 . S
H271 C298 0.950 1_545 S
H272 C301 0.950 . S
H273 C302 0.950 . S
H274 C304 0.950 . S
H275 C305 0.950 . S
C276 H258 0.951 . S
C276 C277 1.366 . S
C276 C278 1.388 . S
C277 C276 1.366 . S
C277 C281 1.385 . S
C278 H259 0.951 . S
C278 C276 1.388 . S
C278 C279 1.366 . S
C279 C278 1.366 . S
C279 C280 1.414 . S
C279 C282 1.499 . S
C280 H260 0.950 . S
C280 C279 1.414 . S
C280 C281 1.374 . S
C281 H261 0.950 . S
C281 C277 1.385 . S
C281 C280 1.374 . S
C282 C279 1.499 . S
C282 C283 1.373 . S
C282 C284 1.389 . S
C283 H262 0.950 . S
C283 C282 1.373 . S
C283 C299 1.377 . S
C284 C282 1.389 . S
C284 C285 1.524 1_565 S
C284 C298 1.377 . S
C285 C284 1.524 1_545 S
C285 C286 1.397 . S
C285 C290 1.363 . S
C286 H263 0.950 1_545 S
C286 C285 1.397 . S
C286 C287 1.334 . S
C287 H264 0.950 . S
C287 C286 1.334 . S
C287 C288 1.287 . S
C288 C287 1.287 . S
C288 C289 1.524 . S
C288 H307 0.913 . S
C289 H265 0.950 . S
C289 C288 1.524 . S
C289 C290 1.415 . S
C290 H266 0.950 . S
C290 C285 1.363 . S
C290 C289 1.415 . S
C291 H267 0.951 . S
C291 C292 1.366 . S
C291 C293 1.388 . S
C292 C291 1.366 . S
C292 C296 1.385 1_565 S
C293 H268 0.951 . S
C293 C291 1.388 . S
C293 C294 1.366 . S
C294 C293 1.366 . S
C294 C295 1.414 . S
C294 C297 1.499 . S
C295 H269 0.950 1_565 S
C295 C294 1.414 . S
C295 C296 1.374 1_565 S
C296 H270 0.950 . S
C296 C292 1.385 1_545 S
C296 C295 1.374 1_545 S
C297 C294 1.499 . S
C297 C298 1.373 . S
C297 C299 1.389 . S
C298 H271 0.950 1_565 S
C298 C284 1.377 . S
C298 C297 1.373 . S
C299 C283 1.377 . S
C299 C297 1.389 . S
C299 C300 1.524 . S
C300 C299 1.524 . S
C300 C301 1.397 . S
C300 C305 1.363 . S
C301 H272 0.950 . S
C301 C300 1.397 . S
C301 C302 1.334 . S
C302 H273 0.950 . S
C302 C301 1.334 . S
C302 C303 1.287 . S
C303 C302 1.287 . S
C303 C304 1.524 . S
C303 H306 0.999 . S
C304 H274 0.950 . S
C304 C303 1.524 . S
C304 C305 1.415 . S
C305 H275 0.950 . S
C305 C300 1.363 . S
C305 C304 1.415 . S
H306 C303 0.999 . S
H307 C288 0.913 . S
H308 C326 0.951 . S
H309 C328 0.951 . S
H310 C330 0.950 . S
H311 C331 0.950 . S
H312 C333 0.950 . S
H313 C336 0.950 . S
H314 C337 0.950 . S
H315 C339 0.950 . S
H316 C340 0.950 . S
H317 C341 0.951 . S
H318 C343 0.951 . S
H319 C345 0.950 . S
H320 C346 0.950 . S
H321 C348 0.950 . S
H322 C351 0.950 . S
H323 C352 0.950 . S
H324 C354 0.950 . S
H325 C355 0.950 . S
C326 H308 0.951 . S
C326 C327 1.366 . S
C326 C328 1.388 . S
C327 C326 1.366 . S
C327 C331 1.385 . S
C328 H309 0.951 . S
C328 C326 1.388 . S
C328 C329 1.366 . S
C329 C328 1.366 . S
C329 C330 1.414 . S
C329 C332 1.499 . S
C330 H310 0.950 . S
C330 C329 1.414 . S
C330 C331 1.374 . S
C331 H311 0.950 . S
C331 C327 1.385 . S
C331 C330 1.374 . S
C332 C329 1.499 . S
C332 C333 1.373 . S
C332 C334 1.389 . S
C333 H312 0.950 . S
C333 C332 1.373 . S
C333 C349 1.377 . S
C334 C332 1.389 . S
C334 C335 1.524 . S
C334 C348 1.377 . S
C335 C334 1.524 . S
C335 C336 1.397 . S
C335 C340 1.363 . S
C336 H313 0.950 . S
C336 C335 1.397 . S
C336 C337 1.334 . S
C337 H314 0.950 . S
C337 C336 1.334 . S
C337 C338 1.287 . S
C338 C337 1.287 . S
C338 C339 1.524 . S
C338 H357 0.913 . S
C339 H315 0.950 . S
C339 C338 1.524 . S
C339 C340 1.415 . S
C340 H316 0.950 . S
C340 C335 1.363 . S
C340 C339 1.415 . S
C341 H317 0.951 . S
C341 C342 1.366 . S
C341 C343 1.388 . S
C342 C341 1.366 . S
C342 C346 1.385 . S
C343 H318 0.951 . S
C343 C341 1.388 . S
C343 C344 1.366 . S
C344 C343 1.366 . S
C344 C345 1.414 . S
C344 C347 1.499 . S
C345 H319 0.950 . S
C345 C344 1.414 . S
C345 C346 1.374 . S
C346 H320 0.950 . S
C346 C342 1.385 . S
C346 C345 1.374 . S
C347 C344 1.499 . S
C347 C348 1.373 . S
C347 C349 1.389 . S
C348 H321 0.950 . S
C348 C334 1.377 . S
C348 C347 1.373 . S
C349 C333 1.377 . S
C349 C347 1.389 . S
C349 C350 1.524 . S
C350 C349 1.524 . S
C350 C351 1.397 . S
C350 C355 1.363 . S
C351 H322 0.950 . S
C351 C350 1.397 . S
C351 C352 1.334 . S
C352 H323 0.950 . S
C352 C351 1.334 . S
C352 C353 1.287 . S
C353 C352 1.287 . S
C353 C354 1.524 . S
C353 H356 0.999 . S
C354 H324 0.950 . S
C354 C353 1.524 . S
C354 C355 1.415 . S
C355 H325 0.950 . S
C355 C350 1.363 . S
C355 C354 1.415 . S
H356 C353 0.999 . S
H357 C338 0.913 . S
H358 C376 0.951 . S
H359 C378 0.951 . S
H360 C380 0.950 . S
H361 C381 0.950 . S
H362 C383 0.950 . S
H363 C386 0.950 . S
H364 C387 0.950 . S
H365 C389 0.950 . S
H366 C390 0.950 . S
H367 C391 0.951 . S
H368 C393 0.951 . S
H369 C395 0.950 1_455 S
H370 C396 0.917 1_455 S
H371 C398 0.919 1_455 S
H372 C401 0.950 . S
H373 C402 0.950 . S
H374 C404 0.950 . S
H375 C405 0.950 . S
C376 H358 0.951 . S
C376 C377 1.366 . S
C376 C378 1.388 . S
C377 C376 1.366 . S
C377 C381 1.385 . S
C378 H359 0.951 . S
C378 C376 1.388 . S
C378 C379 1.366 . S
C379 C378 1.366 . S
C379 C380 1.414 . S
C379 C382 1.499 . S
C380 H360 0.950 . S
C380 C379 1.414 . S
C380 C381 1.374 . S
C381 H361 0.950 . S
C381 C377 1.385 . S
C381 C380 1.374 . S
C382 C379 1.499 . S
C382 C383 1.373 . S
C382 C384 1.389 . S
C383 H362 0.950 . S
C383 C382 1.373 . S
C383 C399 1.377 . S
C384 C382 1.389 . S
C384 C385 1.524 1_655 S
C384 C398 1.377 . S
C385 C384 1.524 1_455 S
C385 C386 1.397 1_455 S
C385 C390 1.363 . S
C386 H363 0.950 . S
C386 C385 1.397 1_655 S
C386 C387 1.334 1_655 S
C387 H364 0.950 . S
C387 C386 1.334 1_455 S
C387 C388 1.287 . S
C388 C387 1.287 . S
C388 C389 1.524 . S
C388 H407 0.913 . S
C389 H365 0.950 . S
C389 C388 1.524 . S
C389 C390 1.415 . S
C390 H366 0.950 . S
C390 C385 1.363 . S
C390 C389 1.415 . S
C391 H367 0.951 . S
C391 C392 1.366 . S
C391 C393 1.388 . S
C392 C391 1.366 . S
C392 C396 1.410 . S
C393 H368 0.951 . S
C393 C391 1.388 . S
C393 C394 1.366 . S
C394 C393 1.366 . S
C394 C395 1.414 . S
C394 C397 1.499 . S
C395 H369 0.950 1_655 S
C395 C394 1.414 . S
C395 C396 1.382 . S
C396 H370 0.917 1_655 S
C396 C392 1.410 . S
C396 C395 1.382 . S
C397 C394 1.499 . S
C397 C398 1.373 . S
C397 C399 1.389 . S
C398 H371 0.919 1_655 S
C398 C384 1.377 . S
C398 C397 1.373 . S
C399 C383 1.377 . S
C399 C397 1.389 . S
C399 C400 1.524 . S
C400 C399 1.524 . S
C400 C401 1.397 . S
C400 C405 1.363 . S
C401 H372 0.950 . S
C401 C400 1.397 . S
C401 C402 1.334 . S
C402 H373 0.950 . S
C402 C401 1.334 . S
C402 C403 1.287 . S
C403 C402 1.287 . S
C403 C404 1.524 . S
C403 H406 0.999 . S
C404 H374 0.950 . S
C404 C403 1.524 . S
C404 C405 1.415 . S
C405 H375 0.950 . S
C405 C400 1.363 . S
C405 C404 1.415 . S
H406 C403 0.999 . S
H407 C388 0.913 . S
H408 C426 0.951 . S
H409 C428 0.951 . S
H410 C430 0.950 . S
H411 C431 0.950 . S
H412 C433 0.950 . S
H413 C436 0.950 . S
H414 C437 0.950 . S
H415 C439 0.950 . S
H416 C440 0.950 . S
H417 C441 0.951 . S
H418 C443 0.951 . S
H419 C445 0.950 . S
H420 C446 0.950 . S
H421 C448 0.950 . S
H422 C451 0.950 . S
H423 C452 0.950 . S
H424 C454 0.950 1_565 S
H425 C455 0.950 . S
C426 H408 0.951 . S
C426 C427 1.366 . S
C426 C428 1.388 . S
C427 C426 1.366 . S
C427 C431 1.385 . S
C428 H409 0.951 . S
C428 C426 1.388 . S
C428 C429 1.366 . S
C429 C428 1.366 . S
C429 C430 1.414 . S
C429 C432 1.499 . S
C430 H410 0.950 . S
C430 C429 1.414 . S
C430 C431 1.374 . S
C431 H411 0.950 . S
C431 C427 1.385 . S
C431 C430 1.374 . S
C432 C429 1.499 . S
C432 C433 1.373 . S
C432 C434 1.389 . S
C433 H412 0.950 . S
C433 C432 1.373 . S
C433 C449 1.377 . S
C434 C432 1.389 . S
C434 C435 1.524 . S
C434 C448 1.377 . S
C435 C434 1.524 . S
C435 C436 1.397 . S
C435 C440 1.363 . S
C436 H413 0.950 . S
C436 C435 1.397 . S
C436 C437 1.334 . S
C437 H414 0.950 . S
C437 C436 1.334 . S
C437 C438 1.287 . S
C438 C437 1.287 . S
C438 C439 1.524 . S
C438 H457 0.913 . S
C439 H415 0.950 . S
C439 C438 1.524 . S
C439 C440 1.415 . S
C440 H416 0.950 . S
C440 C435 1.363 . S
C440 C439 1.415 . S
C441 H417 0.951 . S
C441 C442 1.366 . S
C441 C443 1.388 . S
C442 C441 1.366 . S
C442 C446 1.385 . S
C443 H418 0.951 . S
C443 C441 1.388 . S
C443 C444 1.366 . S
C444 C443 1.366 . S
C444 C445 1.414 . S
C444 C447 1.499 . S
C445 H419 0.950 . S
C445 C444 1.414 . S
C445 C446 1.374 . S
C446 H420 0.950 . S
C446 C442 1.385 . S
C446 C445 1.374 . S
C447 C444 1.499 . S
C447 C448 1.373 . S
C447 C449 1.389 . S
C448 H421 0.950 . S
C448 C434 1.377 . S
C448 C447 1.373 . S
C449 C433 1.377 . S
C449 C447 1.389 . S
C449 C450 1.524 . S
C450 C449 1.524 . S
C450 C451 1.397 . S
C450 C455 1.363 . S
C451 H422 0.950 . S
C451 C450 1.397 . S
C451 C452 1.334 . S
C452 H423 0.950 . S
C452 C451 1.334 . S
C452 C453 1.287 . S
C453 C452 1.287 . S
C453 C454 1.524 . S
C453 H456 1.002 1_545 S
C454 H424 0.950 1_545 S
C454 C453 1.524 . S
C454 C455 1.415 . S
C455 H425 0.950 . S
C455 C450 1.363 . S
C455 C454 1.415 . S
H456 C453 1.002 1_565 S
H457 C438 0.913 . S
H458 C476 0.951 . S
H459 C478 0.951 . S
H460 C480 0.950 . S
H461 C481 0.950 . S
H462 C483 0.950 . S
H463 C486 0.950 . S
H464 C487 0.950 . S
H465 C489 0.950 . S
H466 C490 0.950 . S
H467 C491 0.951 . S
H468 C493 0.951 1_545 S
H469 C495 0.950 . S
H470 C496 0.950 . S
H471 C498 0.950 . S
H472 C501 0.950 . S
H473 C502 0.950 . S
H474 C504 0.950 . S
H475 C505 0.950 . S
C476 H458 0.951 . S
C476 C477 1.366 . S
C476 C478 1.388 . S
C477 C476 1.366 . S
C477 C481 1.385 . S
C478 H459 0.951 . S
C478 C476 1.388 . S
C478 C479 1.366 . S
C479 C478 1.366 . S
C479 C480 1.414 . S
C479 C482 1.499 . S
C480 H460 0.950 . S
C480 C479 1.414 . S
C480 C481 1.374 . S
C481 H461 0.950 . S
C481 C477 1.385 . S
C481 C480 1.374 . S
C482 C479 1.499 . S
C482 C483 1.373 . S
C482 C484 1.389 . S
C483 H462 0.950 . S
C483 C482 1.373 . S
C483 C499 1.377 . S
C484 C482 1.389 . S
C484 C485 1.524 . S
C484 C498 1.377 . S
C485 C484 1.524 . S
C485 C486 1.397 1_565 S
C485 C490 1.363 . S
C486 H463 0.950 . S
C486 C485 1.397 1_545 S
C486 C487 1.334 . S
C487 H464 0.950 . S
C487 C486 1.334 . S
C487 C488 1.287 . S
C488 C487 1.287 . S
C488 C489 1.524 1_545 S
C488 H507 0.913 . S
C489 H465 0.950 . S
C489 C488 1.524 1_565 S
C489 C490 1.415 . S
C490 H466 0.950 . S
C490 C485 1.363 . S
C490 C489 1.415 . S
C491 H467 0.951 . S
C491 C492 1.366 1_545 S
C491 C493 1.388 1_545 S
C492 C491 1.366 1_565 S
C492 C496 1.385 . S
C493 H468 0.951 1_565 S
C493 C491 1.388 1_565 S
C493 C494 1.366 . S
C494 C493 1.366 . S
C494 C495 1.414 . S
C494 C497 1.499 . S
C495 H469 0.950 . S
C495 C494 1.414 . S
C495 C496 1.374 . S
C496 H470 0.950 . S
C496 C492 1.385 . S
C496 C495 1.374 . S
C497 C494 1.499 . S
C497 C498 1.373 . S
C497 C499 1.389 . S
C498 H471 0.950 . S
C498 C484 1.377 . S
C498 C497 1.373 . S
C499 C483 1.377 . S
C499 C497 1.389 . S
C499 C500 1.524 . S
C500 C499 1.524 . S
C500 C501 1.397 . S
C500 C505 1.363 . S
C501 H472 0.950 . S
C501 C500 1.397 . S
C501 C502 1.334 . S
C502 H473 0.950 . S
C502 C501 1.334 . S
C502 C503 1.287 . S
C503 C502 1.287 . S
C503 C504 1.524 . S
C503 H506 0.999 . S
C504 H474 0.950 . S
C504 C503 1.524 . S
C504 C505 1.415 . S
C505 H475 0.950 . S
C505 C500 1.363 . S
C505 C504 1.415 . S
H506 C503 0.999 . S
H507 C488 0.913 . S
H508 C526 0.951 . S
H509 C528 0.951 . S
H510 C530 0.950 . S
H511 C531 0.950 . S
H512 C533 0.950 . S
H513 C536 0.950 . S
H514 C537 0.950 . S
H515 C539 0.950 . S
H516 C540 0.950 . S
H517 C541 0.951 . S
H518 C543 0.951 . S
H519 C545 0.950 . S
H520 C546 0.950 . S
H521 C548 0.950 . S
H522 C551 0.950 . S
H523 C552 0.950 . S
H524 C554 0.950 1_554 S
H525 C555 0.950 1_554 S
C526 H508 0.951 . S
C526 C527 1.366 . S
C526 C528 1.388 . S
C527 C526 1.366 . S
C527 C531 1.385 . S
C528 H509 0.951 . S
C528 C526 1.388 . S
C528 C529 1.366 . S
C529 C528 1.366 . S
C529 C530 1.414 . S
C529 C532 1.499 . S
C530 H510 0.950 . S
C530 C529 1.414 . S
C530 C531 1.374 . S
C531 H511 0.950 . S
C531 C527 1.385 . S
C531 C530 1.374 . S
C532 C529 1.499 . S
C532 C533 1.373 . S
C532 C534 1.389 . S
C533 H512 0.950 . S
C533 C532 1.373 . S
C533 C549 1.377 . S
C534 C532 1.389 . S
C534 C535 1.524 . S
C534 C548 1.377 . S
C535 C534 1.524 . S
C535 C536 1.397 . S
C535 C540 1.363 . S
C536 H513 0.950 . S
C536 C535 1.397 . S
C536 C537 1.334 . S
C537 H514 0.950 . S
C537 C536 1.334 . S
C537 C538 1.287 . S
C538 C537 1.287 . S
C538 C539 1.524 . S
C538 H557 0.913 . S
C539 H515 0.950 . S
C539 C538 1.524 . S
C539 C540 1.415 . S
C540 H516 0.950 . S
C540 C535 1.363 . S
C540 C539 1.415 . S
C541 H517 0.951 . S
C541 C542 1.366 1_554 S
C541 C543 1.388 . S
C542 C541 1.366 1_556 S
C542 C546 1.385 . S
C543 H518 0.951 . S
C543 C541 1.388 . S
C543 C544 1.366 1_554 S
C544 C543 1.366 1_556 S
C544 C545 1.414 . S
C544 C547 1.499 . S
C545 H519 0.950 . S
C545 C544 1.414 . S
C545 C546 1.374 . S
C546 H520 0.950 . S
C546 C542 1.385 . S
C546 C545 1.374 . S
C547 C544 1.499 . S
C547 C548 1.373 . S
C547 C549 1.389 . S
C548 H521 0.950 . S
C548 C534 1.377 . S
C548 C547 1.373 . S
C549 C533 1.377 . S
C549 C547 1.389 . S
C549 C550 1.524 . S
C550 C549 1.524 . S
C550 C551 1.397 . S
C550 C555 1.363 . S
C551 H522 0.950 . S
C551 C550 1.397 . S
C551 C552 1.334 . S
C552 H523 0.950 . S
C552 C551 1.334 . S
C552 C553 1.287 . S
C553 C552 1.287 . S
C553 C554 1.524 . S
C553 H556 0.999 . S
C554 H524 0.950 1_556 S
C554 C553 1.524 . S
C554 C555 1.415 . S
C555 H525 0.950 1_556 S
C555 C550 1.363 . S
C555 C554 1.415 . S
H556 C553 0.999 . S
H557 C538 0.913 . S
H558 C576 0.951 . S
H559 C578 0.951 . S
H560 C580 0.950 . S
H561 C581 0.950 . S
H562 C583 0.950 . S
H563 C586 0.950 . S
H564 C587 0.950 . S
H565 C589 0.950 . S
H566 C590 0.950 . S
H567 C591 0.951 . S
H568 C593 0.951 . S
H569 C595 0.950 . S
H570 C596 0.950 . S
H571 C598 0.950 . S
H572 C601 0.950 . S
H573 C602 0.950 . S
H574 C604 0.950 . S
H575 C605 0.950 . S
C576 H558 0.951 . S
C576 C577 1.366 . S
C576 C578 1.388 . S
C577 C576 1.366 . S
C577 C581 1.385 . S
C578 H559 0.951 . S
C578 C576 1.388 . S
C578 C579 1.366 . S
C579 C578 1.366 . S
C579 C580 1.414 . S
C579 C582 1.499 . S
C580 H560 0.950 . S
C580 C579 1.414 . S
C580 C581 1.374 . S
C581 H561 0.950 . S
C581 C577 1.385 . S
C581 C580 1.374 . S
C582 C579 1.499 . S
C582 C583 1.373 . S
C582 C584 1.389 . S
C583 H562 0.950 . S
C583 C582 1.373 . S
C583 C599 1.377 . S
C584 C582 1.389 . S
C584 C585 1.524 . S
C584 C598 1.377 . S
C585 C584 1.524 . S
C585 C586 1.397 . S
C585 C590 1.363 . S
C586 H563 0.950 . S
C586 C585 1.397 . S
C586 C587 1.334 . S
C587 H564 0.950 . S
C587 C586 1.334 . S
C587 C588 1.287 . S
C588 C587 1.287 . S
C588 C589 1.524 . S
C588 H607 0.913 . S
C589 H565 0.950 . S
C589 C588 1.524 . S
C589 C590 1.415 . S
C590 H566 0.950 . S
C590 C585 1.363 . S
C590 C589 1.415 . S
C591 H567 0.951 . S
C591 C592 1.366 . S
C591 C593 1.388 . S
C592 C591 1.366 . S
C592 C596 1.385 . S
C593 H568 0.951 . S
C593 C591 1.388 . S
C593 C594 1.366 . S
C594 C593 1.366 . S
C594 C595 1.414 . S
C594 C597 1.499 . S
C595 H569 0.950 . S
C595 C594 1.414 . S
C595 C596 1.374 . S
C596 H570 0.950 . S
C596 C592 1.385 . S
C596 C595 1.374 . S
C597 C594 1.499 . S
C597 C598 1.373 . S
C597 C599 1.389 . S
C598 H571 0.950 . S
C598 C584 1.377 . S
C598 C597 1.373 . S
C599 C583 1.377 . S
C599 C597 1.389 . S
C599 C600 1.524 . S
C600 C599 1.524 . S
C600 C601 1.397 . S
C600 C605 1.363 . S
C601 H572 0.950 . S
C601 C600 1.397 . S
C601 C602 1.334 . S
C602 H573 0.950 . S
C602 C601 1.334 . S
C602 C603 1.287 . S
C603 C602 1.287 . S
C603 C604 1.524 . S
C603 H606 0.999 . S
C604 H574 0.950 . S
C604 C603 1.524 . S
C604 C605 1.415 . S
C605 H575 0.950 . S
C605 C600 1.363 . S
C605 C604 1.415 . S
H606 C603 0.999 . S
H607 C588 0.913 . S
H608 C626 0.951 . S
H609 C628 0.951 . S
H610 C630 0.950 . S
H611 C631 0.950 . S
H612 C633 0.950 . S
H613 C636 0.950 . S
H614 C637 0.950 . S
H615 C639 0.950 . S
H616 C640 0.950 . S
H617 C641 0.951 . S
H618 C643 0.951 . S
H619 C645 0.950 . S
H620 C646 0.950 . S
H621 C648 0.950 . S
H622 C651 0.950 . S
H623 C652 0.950 . S
H624 C654 0.950 . S
H625 C655 0.950 1_455 S
C626 H608 0.951 . S
C626 C627 1.366 . S
C626 C628 1.388 . S
C627 C626 1.366 . S
C627 C631 1.385 . S
C628 H609 0.951 . S
C628 C626 1.388 . S
C628 C629 1.366 . S
C629 C628 1.366 . S
C629 C630 1.414 . S
C629 C632 1.499 . S
C630 H610 0.950 . S
C630 C629 1.414 . S
C630 C631 1.374 . S
C631 H611 0.950 . S
C631 C627 1.385 . S
C631 C630 1.374 . S
C632 C629 1.499 . S
C632 C633 1.373 . S
C632 C634 1.389 . S
C633 H612 0.950 . S
C633 C632 1.373 . S
C633 C649 1.377 . S
C634 C632 1.389 . S
C634 C635 1.524 . S
C634 C648 1.377 . S
C635 C634 1.524 . S
C635 C636 1.397 . S
C635 C640 1.363 . S
C636 H613 0.950 . S
C636 C635 1.397 . S
C636 C637 1.334 . S
C637 H614 0.950 . S
C637 C636 1.334 . S
C637 C638 1.287 . S
C638 C637 1.287 . S
C638 C639 1.524 . S
C638 H657 0.913 . S
C639 H615 0.950 . S
C639 C638 1.524 . S
C639 C640 1.415 . S
C640 H616 0.950 . S
C640 C635 1.363 . S
C640 C639 1.415 . S
C641 H617 0.951 . S
C641 C642 1.366 . S
C641 C643 1.388 . S
C642 C641 1.366 . S
C642 C646 1.385 . S
C643 H618 0.951 . S
C643 C641 1.388 . S
C643 C644 1.366 . S
C644 C643 1.366 . S
C644 C645 1.414 . S
C644 C647 1.499 . S
C645 H619 0.950 . S
C645 C644 1.414 . S
C645 C646 1.374 . S
C646 H620 0.950 . S
C646 C642 1.385 . S
C646 C645 1.374 . S
C647 C644 1.499 . S
C647 C648 1.373 . S
C647 C649 1.389 . S
C648 H621 0.950 . S
C648 C634 1.377 . S
C648 C647 1.373 . S
C649 C633 1.377 . S
C649 C647 1.389 . S
C649 C650 1.524 . S
C650 C649 1.524 . S
C650 C651 1.397 . S
C650 C655 1.363 1_455 S
C651 H622 0.950 . S
C651 C650 1.397 . S
C651 C652 1.334 1_455 S
C652 H623 0.950 . S
C652 C651 1.334 1_655 S
C652 C653 1.287 . S
C653 C652 1.287 . S
C653 C654 1.524 . S
C653 H656 0.999 . S
C654 H624 0.950 . S
C654 C653 1.524 . S
C654 C655 1.415 . S
C655 H625 0.950 1_655 S
C655 C650 1.363 1_655 S
C655 C654 1.415 . S
H656 C653 0.999 . S
H657 C638 0.913 . S
H658 C676 0.951 . S
H659 C678 0.951 . S
H660 C680 0.950 . S
H661 C681 0.950 . S
H662 C683 0.950 . S
H663 C686 0.950 . S
H664 C687 0.950 . S
H665 C689 0.950 . S
H666 C690 0.950 . S
H667 C691 0.951 . S
H668 C693 0.951 . S
H669 C695 0.950 . S
H670 C696 0.950 . S
H671 C698 0.950 . S
H672 C701 0.950 . S
H673 C702 0.946 1_556 S
H674 C704 0.950 . S
H675 C705 0.950 . S
C676 H658 0.951 . S
C676 C677 1.366 . S
C676 C678 1.388 . S
C677 C676 1.366 . S
C677 C681 1.385 . S
C678 H659 0.951 . S
C678 C676 1.388 . S
C678 C679 1.366 . S
C679 C678 1.366 . S
C679 C680 1.414 . S
C679 C682 1.499 . S
C680 H660 0.950 . S
C680 C679 1.414 . S
C680 C681 1.374 . S
C681 H661 0.950 . S
C681 C677 1.385 . S
C681 C680 1.374 . S
C682 C679 1.499 . S
C682 C683 1.373 . S
C682 C684 1.389 . S
C683 H662 0.950 . S
C683 C682 1.373 . S
C683 C699 1.377 . S
C684 C682 1.389 . S
C684 C685 1.524 . S
C684 C698 1.377 . S
C685 C684 1.524 . S
C685 C686 1.397 . S
C685 C690 1.363 . S
C686 H663 0.950 . S
C686 C685 1.397 . S
C686 C687 1.334 . S
C687 H664 0.950 . S
C687 C686 1.334 . S
C687 C688 1.287 . S
C688 C687 1.287 . S
C688 C689 1.524 . S
C688 H707 0.913 . S
C689 H665 0.950 . S
C689 C688 1.524 . S
C689 C690 1.415 . S
C690 H666 0.950 . S
C690 C685 1.363 . S
C690 C689 1.415 . S
C691 H667 0.951 . S
C691 C692 1.366 . S
C691 C693 1.388 . S
C692 C691 1.366 . S
C692 C696 1.385 1_554 S
C693 H668 0.951 . S
C693 C691 1.388 . S
C693 C694 1.366 1_554 S
C694 C693 1.366 1_556 S
C694 C695 1.414 . S
C694 C697 1.499 . S
C695 H669 0.950 . S
C695 C694 1.414 . S
C695 C696 1.374 . S
C696 H670 0.950 . S
C696 C692 1.385 1_556 S
C696 C695 1.374 . S
C697 C694 1.499 . S
C697 C698 1.373 . S
C697 C699 1.389 . S
C698 H671 0.950 . S
C698 C684 1.377 . S
C698 C697 1.373 . S
C699 C683 1.377 . S
C699 C697 1.389 . S
C699 C700 1.524 1_556 S
C700 C699 1.524 1_554 S
C700 C701 1.397 1_554 S
C700 C705 1.363 . S
C701 H672 0.950 . S
C701 C700 1.397 1_556 S
C701 C702 1.334 1_556 S
C702 H673 0.946 1_554 S
C702 C701 1.334 1_554 S
C702 C703 1.287 . S
C703 C702 1.287 . S
C703 C704 1.524 . S
C703 H706 0.999 . S
C704 H674 0.950 . S
C704 C703 1.524 . S
C704 C705 1.415 . S
C705 H675 0.950 . S
C705 C700 1.363 . S
C705 C704 1.415 . S
H706 C703 0.999 . S
H707 C688 0.913 . S
H708 C726 0.951 . S
H709 C728 0.951 . S
H710 C730 0.950 . S
H711 C731 0.950 . S
H712 C733 0.950 . S
H713 C736 0.950 . S
H714 C737 0.950 . S
H715 C739 0.950 . S
H716 C740 0.950 . S
H717 C741 0.951 . S
H718 C743 0.951 . S
H719 C745 0.950 . S
H720 C746 0.950 . S
H721 C748 0.950 . S
H722 C751 0.950 . S
H723 C752 0.950 . S
H724 C754 0.950 . S
H725 C755 0.950 . S
C726 H708 0.951 . S
C726 C727 1.366 . S
C726 C728 1.388 . S
C727 C726 1.366 . S
C727 C731 1.385 . S
C728 H709 0.951 . S
C728 C726 1.388 . S
C728 C729 1.366 . S
C729 C728 1.366 . S
C729 C730 1.414 . S
C729 C732 1.499 . S
C730 H710 0.950 . S
C730 C729 1.414 . S
C730 C731 1.374 . S
C731 H711 0.950 . S
C731 C727 1.385 . S
C731 C730 1.374 . S
C732 C729 1.499 . S
C732 C733 1.373 . S
C732 C734 1.389 . S
C733 H712 0.950 . S
C733 C732 1.373 . S
C733 C749 1.377 . S
C734 C732 1.389 . S
C734 C735 1.524 . S
C734 C748 1.377 . S
C735 C734 1.524 . S
C735 C736 1.397 1_655 S
C735 C740 1.363 . S
C736 H713 0.950 . S
C736 C735 1.397 1_455 S
C736 C737 1.334 . S
C737 H714 0.950 . S
C737 C736 1.334 . S
C737 C738 1.287 . S
C738 C737 1.287 . S
C738 C739 1.524 . S
C738 H757 0.913 . S
C739 H715 0.950 . S
C739 C738 1.524 . S
C739 C740 1.415 1_455 S
C740 H716 0.950 . S
C740 C735 1.363 . S
C740 C739 1.415 1_655 S
C741 H717 0.951 . S
C741 C742 1.366 . S
C741 C743 1.388 . S
C742 C741 1.366 . S
C742 C746 1.385 . S
C743 H718 0.951 . S
C743 C741 1.388 . S
C743 C744 1.366 . S
C744 C743 1.366 . S
C744 C745 1.414 . S
C744 C747 1.499 . S
C745 H719 0.950 . S
C745 C744 1.414 . S
C745 C746 1.374 . S
C746 H720 0.950 . S
C746 C742 1.385 . S
C746 C745 1.374 . S
C747 C744 1.499 . S
C747 C748 1.373 . S
C747 C749 1.389 . S
C748 H721 0.950 . S
C748 C734 1.377 . S
C748 C747 1.373 . S
C749 C733 1.377 . S
C749 C747 1.389 . S
C749 C750 1.524 . S
C750 C749 1.524 . S
C750 C751 1.397 . S
C750 C755 1.363 . S
C751 H722 0.950 . S
C751 C750 1.397 . S
C751 C752 1.334 . S
C752 H723 0.950 . S
C752 C751 1.334 . S
C752 C753 1.287 . S
C753 C752 1.287 . S
C753 C754 1.524 . S
C753 H756 0.999 . S
C754 H724 0.950 . S
C754 C753 1.524 . S
C754 C755 1.415 . S
C755 H725 0.950 . S
C755 C750 1.363 . S
C755 C754 1.415 . S
H756 C753 0.999 . S
H757 C738 0.913 . S
H758 C776 0.951 . S
H759 C778 0.951 . S
H760 C780 0.950 . S
H761 C781 0.950 . S
H762 C783 0.950 . S
H763 C786 0.950 . S
H764 C787 0.950 . S
H765 C789 0.950 . S
H766 C790 0.950 . S
H767 C791 0.951 . S
H768 C793 0.951 . S
H769 C795 0.950 . S
H770 C796 0.950 . S
H771 C798 0.950 . S
H772 C801 0.950 . S
H773 C802 0.950 . S
H774 C804 0.950 . S
H775 C805 0.950 . S
C776 H758 0.951 . S
C776 C777 1.366 . S
C776 C778 1.388 . S
C777 C776 1.366 . S
C777 C781 1.385 . S
C778 H759 0.951 . S
C778 C776 1.388 . S
C778 C779 1.366 . S
C779 C778 1.366 . S
C779 C780 1.414 . S
C779 C782 1.499 . S
C780 H760 0.950 . S
C780 C779 1.414 . S
C780 C781 1.374 . S
C781 H761 0.950 . S
C781 C777 1.385 . S
C781 C780 1.374 . S
C782 C779 1.499 . S
C782 C783 1.373 . S
C782 C784 1.389 . S
C783 H762 0.950 . S
C783 C782 1.373 . S
C783 C799 1.377 . S
C784 C782 1.389 . S
C784 C785 1.524 . S
C784 C798 1.377 . S
C785 C784 1.524 . S
C785 C786 1.397 . S
C785 C790 1.363 . S
C786 H763 0.950 . S
C786 C785 1.397 . S
C786 C787 1.334 . S
C787 H764 0.950 . S
C787 C786 1.334 . S
C787 C788 1.287 . S
C788 C787 1.287 . S
C788 C789 1.524 . S
C788 H807 0.913 . S
C789 H765 0.950 . S
C789 C788 1.524 . S
C789 C790 1.415 . S
C790 H766 0.950 . S
C790 C785 1.363 . S
C790 C789 1.415 . S
C791 H767 0.951 . S
C791 C792 1.366 . S
C791 C793 1.388 . S
C792 C791 1.366 . S
C792 C796 1.385 . S
C793 H768 0.951 . S
C793 C791 1.388 . S
C793 C794 1.366 . S
C794 C793 1.366 . S
C794 C795 1.414 . S
C794 C797 1.499 . S
C795 H769 0.950 . S
C795 C794 1.414 . S
C795 C796 1.374 . S
C796 H770 0.950 . S
C796 C792 1.385 . S
C796 C795 1.374 . S
C797 C794 1.499 . S
C797 C798 1.373 . S
C797 C799 1.389 . S
C798 H771 0.950 . S
C798 C784 1.377 . S
C798 C797 1.373 . S
C799 C783 1.377 . S
C799 C797 1.389 . S
C799 C800 1.524 . S
C800 C799 1.524 . S
C800 C801 1.397 . S
C800 C805 1.363 . S
C801 H772 0.950 . S
C801 C800 1.397 . S
C801 C802 1.334 . S
C802 H773 0.950 . S
C802 C801 1.334 . S
C802 C803 1.287 . S
C803 C802 1.287 . S
C803 C804 1.524 . S
C803 H806 0.999 . S
C804 H774 0.950 . S
C804 C803 1.524 . S
C804 C805 1.415 . S
C805 H775 0.950 . S
C805 C800 1.363 . S
C805 C804 1.415 . S
H806 C803 0.999 . S
H807 C788 0.913 . S
H808 C826 0.951 . S
H809 C828 0.951 . S
H810 C830 0.950 . S
H811 C831 0.950 . S
H812 C833 0.950 1_545 S
H813 C836 0.950 . S
H814 C837 0.950 . S
H815 C839 0.950 . S
H816 C840 0.950 . S
H817 C841 0.951 . S
H818 C843 0.951 1_455 S
H819 C845 0.950 . S
H820 C846 0.950 . S
H821 C848 0.950 . S
H822 C851 0.950 . S
H823 C852 0.950 . S
H824 C854 0.950 . S
H825 C855 0.950 . S
C826 H808 0.951 . S
C826 C827 1.366 . S
C826 C828 1.388 . S
C827 C826 1.366 . S
C827 C831 1.385 . S
C828 H809 0.951 . S
C828 C826 1.388 . S
C828 C829 1.366 . S
C829 C828 1.366 . S
C829 C830 1.414 . S
C829 C832 1.499 . S
C830 H810 0.950 . S
C830 C829 1.414 . S
C830 C831 1.374 . S
C831 H811 0.950 . S
C831 C827 1.385 . S
C831 C830 1.374 . S
C832 C829 1.499 . S
C832 C833 1.373 . S
C832 C834 1.389 . S
C833 H812 0.950 1_565 S
C833 C832 1.373 . S
C833 C849 1.377 1_565 S
C834 C832 1.389 . S
C834 C835 1.524 . S
C834 C848 1.377 . S
C835 C834 1.524 . S
C835 C836 1.397 . S
C835 C840 1.363 . S
C836 H813 0.950 . S
C836 C835 1.397 . S
C836 C837 1.334 . S
C837 H814 0.950 . S
C837 C836 1.334 . S
C837 C838 1.287 . S
C838 C837 1.287 . S
C838 C839 1.524 . S
C838 H857 0.913 . S
C839 H815 0.950 . S
C839 C838 1.524 . S
C839 C840 1.415 . S
C840 H816 0.950 . S
C840 C835 1.363 . S
C840 C839 1.415 . S
C841 H817 0.951 . S
C841 C842 1.366 1_455 S
C841 C843 1.388 1_455 S
C842 C841 1.366 1_655 S
C842 C846 1.385 1_545 S
C843 H818 0.951 1_655 S
C843 C841 1.388 1_655 S
C843 C844 1.366 1_545 S
C844 C843 1.366 1_565 S
C844 C845 1.414 . S
C844 C847 1.499 . S
C845 H819 0.950 . S
C845 C844 1.414 . S
C845 C846 1.374 . S
C846 H820 0.950 . S
C846 C842 1.385 1_565 S
C846 C845 1.374 . S
C847 C844 1.499 . S
C847 C848 1.373 . S
C847 C849 1.389 1_565 S
C848 H821 0.950 . S
C848 C834 1.377 . S
C848 C847 1.373 . S
C849 C833 1.377 1_545 S
C849 C847 1.389 1_545 S
C849 C850 1.524 . S
C850 C849 1.524 . S
C850 C851 1.397 . S
C850 C855 1.363 1_655 S
C851 H822 0.950 . S
C851 C850 1.397 . S
C851 C852 1.334 . S
C852 H823 0.950 . S
C852 C851 1.334 . S
C852 C853 1.287 . S
C853 C852 1.287 . S
C853 C854 1.524 1_655 S
C853 H856 0.999 1_655 S
C854 H824 0.950 . S
C854 C853 1.524 1_455 S
C854 C855 1.415 . S
C855 H825 0.950 . S
C855 C850 1.363 1_455 S
C855 C854 1.415 . S
H856 C853 0.999 1_455 S
H857 C838 0.913 . S
H858 C876 0.951 . S
H859 C878 0.951 . S
H860 C880 0.950 . S
H861 C881 0.950 . S
H862 C883 0.950 . S
H863 C886 0.950 . S
H864 C887 0.950 . S
H865 C889 0.950 . S
H866 C890 0.950 . S
H867 C891 0.951 . S
H868 C893 0.951 . S
H869 C895 0.950 . S
H870 C896 0.950 . S
H871 C898 0.950 . S
H872 C901 0.950 . S
H873 C902 0.950 . S
H874 C904 0.950 . S
H875 C905 0.950 . S
C876 H858 0.951 . S
C876 C877 1.366 . S
C876 C878 1.388 . S
C877 C876 1.366 . S
C877 C881 1.385 . S
C878 H859 0.951 . S
C878 C876 1.388 . S
C878 C879 1.366 . S
C879 C878 1.366 . S
C879 C880 1.414 . S
C879 C882 1.499 . S
C880 H860 0.950 . S
C880 C879 1.414 . S
C880 C881 1.374 . S
C881 H861 0.950 . S
C881 C877 1.385 . S
C881 C880 1.374 . S
C882 C879 1.499 . S
C882 C883 1.373 . S
C882 C884 1.389 . S
C883 H862 0.950 . S
C883 C882 1.373 . S
C883 C899 1.377 . S
C884 C882 1.389 . S
C884 C885 1.524 . S
C884 C898 1.377 . S
C885 C884 1.524 . S
C885 C886 1.397 . S
C885 C890 1.363 . S
C886 H863 0.950 . S
C886 C885 1.397 . S
C886 C887 1.334 . S
C887 H864 0.950 . S
C887 C886 1.334 . S
C887 C888 1.287 . S
C888 C887 1.287 . S
C888 C889 1.524 . S
C888 H907 0.913 . S
C889 H865 0.950 . S
C889 C888 1.524 . S
C889 C890 1.415 . S
C890 H866 0.950 . S
C890 C885 1.363 . S
C890 C889 1.415 . S
C891 H867 0.951 . S
C891 C892 1.366 . S
C891 C893 1.388 . S
C892 C891 1.366 . S
C892 C896 1.385 . S
C893 H868 0.951 . S
C893 C891 1.388 . S
C893 C894 1.366 . S
C894 C893 1.366 . S
C894 C895 1.414 . S
C894 C897 1.499 . S
C895 H869 0.950 . S
C895 C894 1.414 . S
C895 C896 1.374 . S
C896 H870 0.950 . S
C896 C892 1.385 . S
C896 C895 1.374 . S
C897 C894 1.499 . S
C897 C898 1.373 . S
C897 C899 1.389 . S
C898 H871 0.950 . S
C898 C884 1.377 . S
C898 C897 1.373 . S
C899 C883 1.377 . S
C899 C897 1.389 . S
C899 C900 1.524 . S
C900 C899 1.524 . S
C900 C901 1.397 . S
C900 C905 1.363 . S
C901 H872 0.950 . S
C901 C900 1.397 . S
C901 C902 1.334 . S
C902 H873 0.950 . S
C902 C901 1.334 . S
C902 C903 1.287 . S
C903 C902 1.287 . S
C903 C904 1.524 . S
C903 H906 0.999 . S
C904 H874 0.950 . S
C904 C903 1.524 . S
C904 C905 1.415 . S
C905 H875 0.950 . S
C905 C900 1.363 . S
C905 C904 1.415 . S
H906 C903 0.999 . S
H907 C888 0.913 . S
H908 C926 0.951 . S
H909 C928 0.951 . S
H910 C930 0.950 . S
H911 C931 0.950 . S
H912 C933 0.950 . S
H913 C936 0.950 . S
H914 C937 0.950 . S
H915 C939 0.950 . S
H916 C940 0.950 . S
H917 C941 0.951 . S
H918 C943 0.951 . S
H919 C945 0.950 . S
H920 C946 0.950 . S
H921 C948 0.950 . S
H922 C951 0.950 . S
H923 C952 0.950 . S
H924 C954 0.950 . S
H925 C955 0.950 . S
C926 H908 0.951 . S
C926 C927 1.366 . S
C926 C928 1.388 . S
C927 C926 1.366 . S
C927 C931 1.385 . S
C928 H909 0.951 . S
C928 C926 1.388 . S
C928 C929 1.366 . S
C929 C928 1.366 . S
C929 C930 1.414 . S
C929 C932 1.499 . S
C930 H910 0.950 . S
C930 C929 1.414 . S
C930 C931 1.374 . S
C931 H911 0.950 . S
C931 C927 1.385 . S
C931 C930 1.374 . S
C932 C929 1.499 . S
C932 C933 1.373 . S
C932 C934 1.389 . S
C933 H912 0.950 . S
C933 C932 1.373 . S
C933 C949 1.377 . S
C934 C932 1.389 . S
C934 C935 1.524 . S
C934 C948 1.377 . S
C935 C934 1.524 . S
C935 C936 1.397 . S
C935 C940 1.363 . S
C936 H913 0.950 . S
C936 C935 1.397 . S
C936 C937 1.334 . S
C937 H914 0.950 . S
C937 C936 1.334 . S
C937 C938 1.287 . S
C938 C937 1.287 . S
C938 C939 1.524 . S
C938 H957 0.913 . S
C939 H915 0.950 . S
C939 C938 1.524 . S
C939 C940 1.415 . S
C940 H916 0.950 . S
C940 C935 1.363 . S
C940 C939 1.415 . S
C941 H917 0.951 . S
C941 C942 1.366 . S
C941 C943 1.388 . S
C942 C941 1.366 . S
C942 C946 1.385 . S
C943 H918 0.951 . S
C943 C941 1.388 . S
C943 C944 1.366 . S
C944 C943 1.366 . S
C944 C945 1.414 . S
C944 C947 1.499 . S
C945 H919 0.950 . S
C945 C944 1.414 . S
C945 C946 1.374 . S
C946 H920 0.950 . S
C946 C942 1.385 . S
C946 C945 1.374 . S
C947 C944 1.499 . S
C947 C948 1.373 . S
C947 C949 1.389 . S
C948 H921 0.950 . S
C948 C934 1.377 . S
C948 C947 1.373 . S
C949 C933 1.377 . S
C949 C947 1.389 . S
C949 C950 1.524 . S
C950 C949 1.524 . S
C950 C951 1.397 . S
C950 C955 1.363 . S
C951 H922 0.950 . S
C951 C950 1.397 . S
C951 C952 1.334 . S
C952 H923 0.950 . S
C952 C951 1.334 . S
C952 C953 1.287 . S
C953 C952 1.287 . S
C953 C954 1.524 . S
C953 H956 0.999 . S
C954 H924 0.950 . S
C954 C953 1.524 . S
C954 C955 1.415 . S
C955 H925 0.950 . S
C955 C950 1.363 . S
C955 C954 1.415 . S
H956 C953 0.999 . S
H957 C938 0.913 . S
H958 C976 0.951 . S
H959 C978 0.951 . S
H960 C980 0.950 . S
H961 C981 0.950 . S
H962 C983 0.950 . S
H963 C986 0.950 . S
H964 C987 0.950 . S
H965 C989 0.950 . S
H966 C990 0.950 . S
H967 C991 0.951 . S
H968 C993 0.951 . S
H969 C995 0.950 . S
H970 C996 0.950 . S
H971 C998 0.950 . S
H972 C1001 0.950 . S
H973 C1002 0.950 . S
H974 C1004 0.950 . S
H975 C1005 0.950 . S
C976 H958 0.951 . S
C976 C977 1.366 . S
C976 C978 1.388 . S
C977 C976 1.366 . S
C977 C981 1.385 . S
C978 H959 0.951 . S
C978 C976 1.388 . S
C978 C979 1.366 . S
C979 C978 1.366 . S
C979 C980 1.414 . S
C979 C982 1.499 . S
C980 H960 0.950 . S
C980 C979 1.414 . S
C980 C981 1.374 . S
C981 H961 0.950 . S
C981 C977 1.385 . S
C981 C980 1.374 . S
C982 C979 1.499 . S
C982 C983 1.373 . S
C982 C984 1.389 . S
C983 H962 0.950 . S
C983 C982 1.373 . S
C983 C999 1.377 . S
C984 C982 1.389 . S
C984 C985 1.524 . S
C984 C998 1.377 . S
C985 C984 1.524 . S
C985 C986 1.397 . S
C985 C990 1.363 . S
C986 H963 0.950 . S
C986 C985 1.397 . S
C986 C987 1.334 . S
C987 H964 0.950 . S
C987 C986 1.334 . S
C987 C988 1.287 . S
C988 C987 1.287 . S
C988 C989 1.524 . S
C988 H1007 0.913 . S
C989 H965 0.950 . S
C989 C988 1.524 . S
C989 C990 1.415 . S
C990 H966 0.950 . S
C990 C985 1.363 . S
C990 C989 1.415 . S
C991 H967 0.951 . S
C991 C992 1.366 . S
C991 C993 1.388 . S
C992 C991 1.366 . S
C992 C996 1.385 . S
C993 H968 0.951 . S
C993 C991 1.388 . S
C993 C994 1.366 . S
C994 C993 1.366 . S
C994 C995 1.414 . S
C994 C997 1.499 . S
C995 H969 0.950 . S
C995 C994 1.414 . S
C995 C996 1.374 . S
C996 H970 0.950 . S
C996 C992 1.385 . S
C996 C995 1.374 . S
C997 C994 1.499 . S
C997 C998 1.373 . S
C997 C999 1.389 . S
C998 H971 0.950 . S
C998 C984 1.377 . S
C998 C997 1.373 . S
C999 C983 1.377 . S
C999 C997 1.389 . S
C999 C1000 1.524 . S
C1000 C999 1.524 . S
C1000 C1001 1.397 . S
C1000 C1005 1.363 . S
C1001 H972 0.950 . S
C1001 C1000 1.397 . S
C1001 C1002 1.334 1_455 S
C1002 H973 0.950 . S
C1002 C1001 1.334 1_655 S
C1002 C1003 1.287 . S
C1003 C1002 1.287 . S
C1003 C1004 1.524 . S
C1003 H1006 0.999 . S
C1004 H974 0.950 . S
C1004 C1003 1.524 . S
C1004 C1005 1.415 1_655 S
C1005 H975 0.950 . S
C1005 C1000 1.363 . S
C1005 C1004 1.415 1_455 S
H1006 C1003 0.999 . S
H1007 C988 0.913 . S
H1008 C1026 0.951 . S
H1009 C1028 0.951 . S
H1010 C1030 0.950 . S
H1011 C1031 0.950 . S
H1012 C1033 0.950 . S
H1013 C1036 0.950 1_556 S
H1014 C1037 0.950 . S
H1015 C1039 0.950 . S
H1016 C1040 0.950 . S
H1017 C1041 0.951 . S
H1018 C1043 0.951 . S
H1019 C1045 0.950 . S
H1020 C1046 0.950 . S
H1021 C1048 0.950 . S
H1022 C1051 0.950 . S
H1023 C1052 0.950 . S
H1024 C1054 0.950 . S
H1025 C1055 0.950 1_565 S
C1026 H1008 0.951 . S
C1026 C1027 1.366 . S
C1026 C1028 1.388 . S
C1027 C1026 1.366 . S
C1027 C1031 1.385 . S
C1028 H1009 0.951 . S
C1028 C1026 1.388 . S
C1028 C1029 1.366 . S
C1029 C1028 1.366 . S
C1029 C1030 1.414 . S
C1029 C1032 1.499 . S
C1030 H1010 0.950 . S
C1030 C1029 1.414 . S
C1030 C1031 1.374 . S
C1031 H1011 0.950 . S
C1031 C1027 1.385 . S
C1031 C1030 1.374 . S
C1032 C1029 1.499 . S
C1032 C1033 1.373 . S
C1032 C1034 1.389 . S
C1033 H1012 0.950 . S
C1033 C1032 1.373 . S
C1033 C1049 1.377 . S
C1034 C1032 1.389 . S
C1034 C1035 1.524 1_556 S
C1034 C1048 1.377 1_556 S
C1035 C1034 1.524 1_554 S
C1035 C1036 1.397 . S
C1035 C1040 1.363 . S
C1036 H1013 0.950 1_554 S
C1036 C1035 1.397 . S
C1036 C1037 1.334 . S
C1037 H1014 0.950 . S
C1037 C1036 1.334 . S
C1037 C1038 1.287 . S
C1038 C1037 1.287 . S
C1038 C1039 1.524 . S
C1038 H1057 0.913 . S
C1039 H1015 0.950 . S
C1039 C1038 1.524 . S
C1039 C1040 1.415 . S
C1040 H1016 0.950 . S
C1040 C1035 1.363 . S
C1040 C1039 1.415 . S
C1041 H1017 0.951 . S
C1041 C1042 1.366 1_566 S
C1041 C1043 1.388 . S
C1042 C1041 1.366 1_544 S
C1042 C1046 1.385 . S
C1043 H1018 0.951 . S
C1043 C1041 1.388 . S
C1043 C1044 1.371 . S
C1044 C1043 1.371 . S
C1044 C1045 1.399 1_566 S
C1044 C1047 1.509 . S
C1045 H1019 0.950 . S
C1045 C1044 1.399 1_544 S
C1045 C1046 1.374 . S
C1046 H1020 0.950 . S
C1046 C1042 1.385 . S
C1046 C1045 1.374 . S
C1047 C1044 1.509 . S
C1047 C1048 1.373 1_556 S
C1047 C1049 1.389 . S
C1048 H1021 0.950 . S
C1048 C1034 1.377 1_554 S
C1048 C1047 1.373 1_554 S
C1049 C1033 1.377 . S
C1049 C1047 1.389 . S
C1049 C1050 1.524 1_565 S
C1050 C1049 1.524 1_545 S
C1050 C1051 1.397 . S
C1050 C1055 1.363 . S
C1051 H1022 0.950 . S
C1051 C1050 1.397 . S
C1051 C1052 1.334 . S
C1052 H1023 0.950 . S
C1052 C1051 1.334 . S
C1052 C1053 1.287 . S
C1053 C1052 1.287 . S
C1053 C1054 1.524 . S
C1053 H1056 0.999 . S
C1054 H1024 0.950 . S
C1054 C1053 1.524 . S
C1054 C1055 1.415 . S
C1055 H1025 0.950 1_545 S
C1055 C1050 1.363 . S
C1055 C1054 1.415 . S
H1056 C1053 0.999 . S
H1057 C1038 0.913 . S
H1058 C1076 0.951 . S
H1059 C1078 0.951 . S
H1060 C1080 0.950 . S
H1061 C1081 0.950 . S
H1062 C1083 0.950 . S
H1063 C1086 0.950 . S
H1064 C1087 0.950 . S
H1065 C1089 0.950 . S
H1066 C1090 0.950 . S
H1067 C1091 0.951 . S
H1068 C1093 0.951 . S
H1069 C1095 0.950 . S
H1070 C1096 0.950 . S
H1071 C1098 0.950 . S
H1072 C1101 0.950 . S
H1073 C1102 0.950 . S
H1074 C1104 0.950 1_565 S
H1075 C1105 0.950 . S
C1076 H1058 0.951 . S
C1076 C1077 1.366 . S
C1076 C1078 1.388 . S
C1077 C1076 1.366 . S
C1077 C1081 1.385 . S
C1078 H1059 0.951 . S
C1078 C1076 1.388 . S
C1078 C1079 1.366 . S
C1079 C1078 1.366 . S
C1079 C1080 1.414 . S
C1079 C1082 1.499 . S
C1080 H1060 0.950 . S
C1080 C1079 1.414 . S
C1080 C1081 1.374 . S
C1081 H1061 0.950 . S
C1081 C1077 1.385 . S
C1081 C1080 1.374 . S
C1082 C1079 1.499 . S
C1082 C1083 1.373 . S
C1082 C1084 1.389 . S
C1083 H1062 0.950 . S
C1083 C1082 1.373 . S
C1083 C1099 1.377 . S
C1084 C1082 1.389 . S
C1084 C1085 1.524 . S
C1084 C1098 1.377 . S
C1085 C1084 1.524 . S
C1085 C1086 1.397 . S
C1085 C1090 1.363 . S
C1086 H1063 0.950 . S
C1086 C1085 1.397 . S
C1086 C1087 1.334 . S
C1087 H1064 0.950 . S
C1087 C1086 1.334 . S
C1087 C1088 1.287 . S
C1088 C1087 1.287 . S
C1088 C1089 1.524 . S
C1088 H1107 0.913 . S
C1089 H1065 0.950 . S
C1089 C1088 1.524 . S
C1089 C1090 1.415 . S
C1090 H1066 0.950 . S
C1090 C1085 1.363 . S
C1090 C1089 1.415 . S
C1091 H1067 0.951 . S
C1091 C1092 1.366 . S
C1091 C1093 1.388 . S
C1092 C1091 1.366 . S
C1092 C1096 1.385 . S
C1093 H1068 0.951 . S
C1093 C1091 1.388 . S
C1093 C1094 1.366 . S
C1094 C1093 1.366 . S
C1094 C1095 1.414 . S
C1094 C1097 1.499 . S
C1095 H1069 0.950 . S
C1095 C1094 1.414 . S
C1095 C1096 1.374 . S
C1096 H1070 0.950 . S
C1096 C1092 1.385 . S
C1096 C1095 1.374 . S
C1097 C1094 1.499 . S
C1097 C1098 1.373 . S
C1097 C1099 1.389 . S
C1098 H1071 0.950 . S
C1098 C1084 1.377 . S
C1098 C1097 1.373 . S
C1099 C1083 1.377 . S
C1099 C1097 1.389 . S
C1099 C1100 1.524 . S
C1100 C1099 1.524 . S
C1100 C1101 1.397 . S
C1100 C1105 1.363 . S
C1101 H1072 0.950 . S
C1101 C1100 1.397 . S
C1101 C1102 1.334 . S
C1102 H1073 0.950 . S
C1102 C1101 1.334 . S
C1102 C1103 1.287 . S
C1103 C1102 1.287 . S
C1103 C1104 1.524 . S
C1103 H1106 0.999 1_545 S
C1104 H1074 0.950 1_545 S
C1104 C1103 1.524 . S
C1104 C1105 1.415 . S
C1105 H1075 0.950 . S
C1105 C1100 1.363 . S
C1105 C1104 1.415 . S
H1106 C1103 0.999 1_565 S
H1107 C1088 0.913 . S
H1108 C1126 0.951 . S
H1109 C1128 0.951 . S
H1110 C1130 0.950 . S
H1111 C1131 0.950 . S
H1112 C1133 0.950 . S
H1113 C1136 0.950 . S
H1114 C1137 0.950 . S
H1115 C1139 0.950 . S
H1116 C1140 0.950 . S
H1117 C1141 0.951 . S
H1118 C1143 0.951 . S
H1119 C1145 0.950 . S
H1120 C1146 0.950 . S
H1121 C1148 0.950 . S
H1122 C1151 0.950 . S
H1123 C1152 0.950 . S
H1124 C1154 0.950 . S
H1125 C1155 0.950 . S
C1126 H1108 0.951 . S
C1126 C1127 1.366 . S
C1126 C1128 1.388 . S
C1127 C1126 1.366 . S
C1127 C1131 1.385 . S
C1128 H1109 0.951 . S
C1128 C1126 1.388 . S
C1128 C1129 1.366 . S
C1129 C1128 1.366 . S
C1129 C1130 1.414 . S
C1129 C1132 1.499 . S
C1130 H1110 0.950 . S
C1130 C1129 1.414 . S
C1130 C1131 1.374 . S
C1131 H1111 0.950 . S
C1131 C1127 1.385 . S
C1131 C1130 1.374 . S
C1132 C1129 1.499 . S
C1132 C1133 1.373 . S
C1132 C1134 1.389 . S
C1133 H1112 0.950 . S
C1133 C1132 1.373 . S
C1133 C1149 1.377 . S
C1134 C1132 1.389 . S
C1134 C1135 1.524 . S
C1134 C1148 1.377 . S
C1135 C1134 1.524 . S
C1135 C1136 1.397 . S
C1135 C1140 1.363 . S
C1136 H1113 0.950 . S
C1136 C1135 1.397 . S
C1136 C1137 1.334 . S
C1137 H1114 0.950 . S
C1137 C1136 1.334 . S
C1137 C1138 1.287 . S
C1138 C1137 1.287 . S
C1138 C1139 1.524 . S
C1138 H1157 0.913 . S
C1139 H1115 0.950 . S
C1139 C1138 1.524 . S
C1139 C1140 1.415 . S
C1140 H1116 0.950 . S
C1140 C1135 1.363 . S
C1140 C1139 1.415 . S
C1141 H1117 0.951 . S
C1141 C1142 1.366 . S
C1141 C1143 1.388 . S
C1142 C1141 1.366 . S
C1142 C1146 1.385 . S
C1143 H1118 0.951 . S
C1143 C1141 1.388 . S
C1143 C1144 1.366 . S
C1144 C1143 1.366 . S
C1144 C1145 1.414 . S
C1144 C1147 1.499 . S
C1145 H1119 0.950 . S
C1145 C1144 1.414 . S
C1145 C1146 1.374 . S
C1146 H1120 0.950 . S
C1146 C1142 1.385 . S
C1146 C1145 1.374 . S
C1147 C1144 1.499 . S
C1147 C1148 1.373 . S
C1147 C1149 1.389 . S
C1148 H1121 0.950 . S
C1148 C1134 1.377 . S
C1148 C1147 1.373 . S
C1149 C1133 1.377 . S
C1149 C1147 1.389 . S
C1149 C1150 1.524 . S
C1150 C1149 1.524 . S
C1150 C1151 1.397 . S
C1150 C1155 1.363 . S
C1151 H1122 0.950 . S
C1151 C1150 1.397 . S
C1151 C1152 1.334 . S
C1152 H1123 0.950 . S
C1152 C1151 1.334 . S
C1152 C1153 1.287 . S
C1153 C1152 1.287 . S
C1153 C1154 1.524 . S
C1153 H1156 0.999 . S
C1154 H1124 0.950 . S
C1154 C1153 1.524 . S
C1154 C1155 1.415 . S
C1155 H1125 0.950 . S
C1155 C1150 1.363 . S
C1155 C1154 1.415 . S
H1156 C1153 0.999 . S
H1157 C1138 0.913 . S
H1158 C1176 0.951 . S
H1159 C1178 0.951 . S
H1160 C1180 0.950 . S
H1161 C1181 0.950 . S
H1162 C1183 0.950 . S
H1163 C1186 0.950 . S
H1164 C1187 0.950 . S
H1165 C1189 0.950 . S
H1166 C1190 0.950 . S
H1167 C1191 0.951 . S
H1168 C1193 0.951 . S
H1169 C1195 0.950 . S
H1170 C1196 0.950 . S
H1171 C1198 0.950 . S
H1172 C1201 0.950 . S
H1173 C1202 0.950 . S
H1174 C1204 0.950 . S
H1175 C1205 0.950 . S
C1176 H1158 0.951 . S
C1176 C1177 1.366 . S
C1176 C1178 1.388 . S
C1177 C1176 1.366 . S
C1177 C1181 1.385 . S
C1178 H1159 0.951 . S
C1178 C1176 1.388 . S
C1178 C1179 1.366 . S
C1179 C1178 1.366 . S
C1179 C1180 1.414 . S
C1179 C1182 1.499 . S
C1180 H1160 0.950 . S
C1180 C1179 1.414 . S
C1180 C1181 1.374 . S
C1181 H1161 0.950 . S
C1181 C1177 1.385 . S
C1181 C1180 1.374 . S
C1182 C1179 1.499 . S
C1182 C1183 1.373 . S
C1182 C1184 1.389 . S
C1183 H1162 0.950 . S
C1183 C1182 1.373 . S
C1183 C1199 1.377 . S
C1184 C1182 1.389 . S
C1184 C1185 1.524 . S
C1184 C1198 1.377 . S
C1185 C1184 1.524 . S
C1185 C1186 1.397 . S
C1185 C1190 1.363 . S
C1186 H1163 0.950 . S
C1186 C1185 1.397 . S
C1186 C1187 1.334 . S
C1187 H1164 0.950 . S
C1187 C1186 1.334 . S
C1187 C1188 1.287 . S
C1188 C1187 1.287 . S
C1188 C1189 1.524 . S
C1188 H1207 0.913 . S
C1189 H1165 0.950 . S
C1189 C1188 1.524 . S
C1189 C1190 1.415 . S
C1190 H1166 0.950 . S
C1190 C1185 1.363 . S
C1190 C1189 1.415 . S
C1191 H1167 0.951 . S
C1191 C1192 1.366 . S
C1191 C1193 1.388 . S
C1192 C1191 1.366 . S
C1192 C1196 1.385 . S
C1193 H1168 0.951 . S
C1193 C1191 1.388 . S
C1193 C1194 1.366 . S
C1194 C1193 1.366 . S
C1194 C1195 1.414 . S
C1194 C1197 1.499 . S
C1195 H1169 0.950 . S
C1195 C1194 1.414 . S
C1195 C1196 1.374 . S
C1196 H1170 0.950 . S
C1196 C1192 1.385 . S
C1196 C1195 1.374 . S
C1197 C1194 1.499 . S
C1197 C1198 1.373 . S
C1197 C1199 1.389 . S
C1198 H1171 0.950 . S
C1198 C1184 1.377 . S
C1198 C1197 1.373 . S
C1199 C1183 1.377 . S
C1199 C1197 1.389 . S
C1199 C1200 1.524 . S
C1200 C1199 1.524 . S
C1200 C1201 1.397 . S
C1200 C1205 1.363 . S
C1201 H1172 0.950 . S
C1201 C1200 1.397 . S
C1201 C1202 1.334 . S
C1202 H1173 0.950 . S
C1202 C1201 1.334 . S
C1202 C1203 1.287 . S
C1203 C1202 1.287 . S
C1203 C1204 1.524 . S
C1203 H1206 0.999 . S
C1204 H1174 0.950 . S
C1204 C1203 1.524 . S
C1204 C1205 1.415 . S
C1205 H1175 0.950 . S
C1205 C1200 1.363 . S
C1205 C1204 1.415 . S
H1206 C1203 0.999 . S
H1207 C1188 0.913 . S
H1208 C1226 0.951 . S
H1209 C1228 0.951 . S
H1210 C1230 0.950 . S
H1211 C1231 0.950 . S
H1212 C1233 0.950 . S
H1213 C1236 0.950 . S
H1214 C1237 0.950 1_455 S
H1215 C1239 0.950 . S
H1216 C1240 0.950 . S
H1217 C1241 0.951 . S
H1218 C1243 0.942 1_455 S
H1219 C1245 0.950 1_554 S
H1220 C1246 0.950 . S
H1221 C1248 0.950 1_554 S
H1222 C1251 0.950 . S
H1223 C1252 0.950 . S
H1224 C1254 0.950 . S
H1225 C1255 0.950 . S
C1226 H1208 0.951 . S
C1226 C1227 1.366 . S
C1226 C1228 1.388 . S
C1227 C1226 1.366 . S
C1227 C1231 1.385 . S
C1228 H1209 0.951 . S
C1228 C1226 1.388 . S
C1228 C1229 1.366 . S
C1229 C1228 1.366 . S
C1229 C1230 1.414 . S
C1229 C1232 1.499 . S
C1230 H1210 0.950 . S
C1230 C1229 1.414 . S
C1230 C1231 1.374 . S
C1231 H1211 0.950 . S
C1231 C1227 1.385 . S
C1231 C1230 1.374 . S
C1232 C1229 1.499 . S
C1232 C1233 1.373 . S
C1232 C1234 1.389 . S
C1233 H1212 0.950 . S
C1233 C1232 1.373 . S
C1233 C1249 1.377 . S
C1234 C1232 1.389 . S
C1234 C1235 1.524 . S
C1234 C1248 1.377 . S
C1235 C1234 1.524 . S
C1235 C1236 1.397 . S
C1235 C1240 1.363 1_556 S
C1236 H1213 0.950 . S
C1236 C1235 1.397 . S
C1236 C1237 1.334 1_556 S
C1237 H1214 0.950 1_655 S
C1237 C1236 1.334 1_554 S
C1237 C1238 1.287 . S
C1238 C1237 1.287 . S
C1238 C1239 1.524 . S
C1238 H1257 0.913 . S
C1239 H1215 0.950 . S
C1239 C1238 1.524 . S
C1239 C1240 1.415 . S
C1240 H1216 0.950 . S
C1240 C1235 1.363 1_554 S
C1240 C1239 1.415 . S
C1241 H1217 0.951 . S
C1241 C1242 1.358 1_455 S
C1241 C1243 1.374 1_455 S
C1242 C1241 1.358 1_655 S
C1242 C1246 1.406 1_556 S
C1243 H1218 0.942 1_655 S
C1243 C1241 1.374 1_655 S
C1243 C1244 1.389 . S
C1244 C1243 1.389 . S
C1244 C1245 1.414 . S
C1244 C1247 1.499 . S
C1245 H1219 0.950 1_556 S
C1245 C1244 1.414 . S
C1245 C1246 1.374 1_556 S
C1246 H1220 0.950 . S
C1246 C1242 1.406 1_554 S
C1246 C1245 1.374 1_554 S
C1247 C1244 1.499 . S
C1247 C1248 1.373 . S
C1247 C1249 1.389 . S
C1248 H1221 0.950 1_556 S
C1248 C1234 1.377 . S
C1248 C1247 1.373 . S
C1249 C1233 1.377 . S
C1249 C1247 1.389 . S
C1249 C1250 1.524 . S
C1250 C1249 1.524 . S
C1250 C1251 1.397 . S
C1250 C1255 1.363 . S
C1251 H1222 0.950 . S
C1251 C1250 1.397 . S
C1251 C1252 1.334 . S
C1252 H1223 0.950 . S
C1252 C1251 1.334 . S
C1252 C1253 1.287 . S
C1253 C1252 1.287 . S
C1253 C1254 1.524 . S
C1253 H1256 0.999 . S
C1254 H1224 0.950 . S
C1254 C1253 1.524 . S
C1254 C1255 1.415 . S
C1255 H1225 0.950 . S
C1255 C1250 1.363 . S
C1255 C1254 1.415 . S
H1256 C1253 0.999 . S
H1257 C1238 0.913 . S
H1258 C1276 0.951 . S
H1259 C1278 0.951 . S
H1260 C1280 0.950 . S
H1261 C1281 0.950 . S
H1262 C1283 0.950 . S
H1263 C1286 0.950 . S
H1264 C1287 0.950 . S
H1265 C1289 0.950 . S
H1266 C1290 0.950 . S
H1267 C1291 0.951 . S
H1268 C1293 0.951 . S
H1269 C1295 0.950 . S
H1270 C1296 0.950 . S
H1271 C1298 0.950 . S
H1272 C1301 0.950 . S
H1273 C1302 0.950 . S
H1274 C1304 0.950 . S
H1275 C1305 0.950 . S
C1276 H1258 0.951 . S
C1276 C1277 1.366 . S
C1276 C1278 1.388 . S
C1277 C1276 1.366 . S
C1277 C1281 1.385 . S
C1278 H1259 0.951 . S
C1278 C1276 1.388 . S
C1278 C1279 1.366 . S
C1279 C1278 1.366 . S
C1279 C1280 1.414 . S
C1279 C1282 1.499 . S
C1280 H1260 0.950 . S
C1280 C1279 1.414 . S
C1280 C1281 1.374 . S
C1281 H1261 0.950 . S
C1281 C1277 1.385 . S
C1281 C1280 1.374 . S
C1282 C1279 1.499 . S
C1282 C1283 1.373 . S
C1282 C1284 1.389 . S
C1283 H1262 0.950 . S
C1283 C1282 1.373 . S
C1283 C1299 1.377 . S
C1284 C1282 1.389 . S
C1284 C1285 1.524 . S
C1284 C1298 1.377 . S
C1285 C1284 1.524 . S
C1285 C1286 1.397 . S
C1285 C1290 1.363 . S
C1286 H1263 0.950 . S
C1286 C1285 1.397 . S
C1286 C1287 1.334 . S
C1287 H1264 0.950 . S
C1287 C1286 1.334 . S
C1287 C1288 1.287 . S
C1288 C1287 1.287 . S
C1288 C1289 1.524 . S
C1288 H1307 0.913 . S
C1289 H1265 0.950 . S
C1289 C1288 1.524 . S
C1289 C1290 1.415 . S
C1290 H1266 0.950 . S
C1290 C1285 1.363 . S
C1290 C1289 1.415 . S
C1291 H1267 0.951 . S
C1291 C1292 1.366 . S
C1291 C1293 1.388 . S
C1292 C1291 1.366 . S
C1292 C1296 1.385 . S
C1293 H1268 0.951 . S
C1293 C1291 1.388 . S
C1293 C1294 1.366 . S
C1294 C1293 1.366 . S
C1294 C1295 1.414 . S
C1294 C1297 1.499 . S
C1295 H1269 0.950 . S
C1295 C1294 1.414 . S
C1295 C1296 1.374 . S
C1296 H1270 0.950 . S
C1296 C1292 1.385 . S
C1296 C1295 1.374 . S
C1297 C1294 1.499 . S
C1297 C1298 1.373 . S
C1297 C1299 1.389 . S
C1298 H1271 0.950 . S
C1298 C1284 1.377 . S
C1298 C1297 1.373 . S
C1299 C1283 1.377 . S
C1299 C1297 1.389 . S
C1299 C1300 1.524 . S
C1300 C1299 1.524 . S
C1300 C1301 1.397 . S
C1300 C1305 1.363 . S
C1301 H1272 0.950 . S
C1301 C1300 1.397 . S
C1301 C1302 1.334 . S
C1302 H1273 0.950 . S
C1302 C1301 1.334 . S
C1302 C1303 1.287 . S
C1303 C1302 1.287 . S
C1303 C1304 1.524 . S
C1303 H1306 0.999 . S
C1304 H1274 0.950 . S
C1304 C1303 1.524 . S
C1304 C1305 1.415 . S
C1305 H1275 0.950 . S
C1305 C1300 1.363 . S
C1305 C1304 1.415 . S
H1306 C1303 0.999 . S
H1307 C1288 0.913 . S
H1308 C1326 0.951 . S
H1309 C1328 0.951 . S
H1310 C1330 0.950 . S
H1311 C1331 0.950 . S
H1312 C1333 0.950 . S
H1313 C1336 0.950 . S
H1314 C1337 0.950 . S
H1315 C1339 0.950 . S
H1316 C1340 0.950 . S
H1317 C1341 0.951 1_655 S
H1318 C1343 0.951 . S
H1319 C1345 0.950 . S
H1320 C1346 0.950 . S
H1321 C1348 0.950 . S
H1322 C1351 0.950 . S
H1323 C1352 0.950 . S
H1324 C1354 0.950 . S
H1325 C1355 0.950 . S
C1326 H1308 0.951 . S
C1326 C1327 1.366 . S
C1326 C1328 1.388 . S
C1327 C1326 1.366 . S
C1327 C1331 1.385 . S
C1328 H1309 0.951 . S
C1328 C1326 1.388 . S
C1328 C1329 1.366 . S
C1329 C1328 1.366 . S
C1329 C1330 1.414 . S
C1329 C1332 1.499 . S
C1330 H1310 0.950 . S
C1330 C1329 1.414 . S
C1330 C1331 1.374 . S
C1331 H1311 0.950 . S
C1331 C1327 1.385 . S
C1331 C1330 1.374 . S
C1332 C1329 1.499 . S
C1332 C1333 1.373 . S
C1332 C1334 1.389 . S
C1333 H1312 0.950 . S
C1333 C1332 1.373 . S
C1333 C1349 1.377 . S
C1334 C1332 1.389 . S
C1334 C1335 1.524 . S
C1334 C1348 1.377 . S
C1335 C1334 1.524 . S
C1335 C1336 1.397 . S
C1335 C1340 1.363 . S
C1336 H1313 0.950 . S
C1336 C1335 1.397 . S
C1336 C1337 1.334 . S
C1337 H1314 0.950 . S
C1337 C1336 1.334 . S
C1337 C1338 1.287 . S
C1338 C1337 1.287 . S
C1338 C1339 1.524 . S
C1338 H1357 0.913 . S
C1339 H1315 0.950 . S
C1339 C1338 1.524 . S
C1339 C1340 1.415 . S
C1340 H1316 0.950 . S
C1340 C1335 1.363 . S
C1340 C1339 1.415 . S
C1341 H1317 0.951 1_455 S
C1341 C1342 1.366 . S
C1341 C1343 1.388 . S
C1342 C1341 1.366 . S
C1342 C1346 1.385 . S
C1343 H1318 0.951 . S
C1343 C1341 1.388 . S
C1343 C1344 1.366 . S
C1344 C1343 1.366 . S
C1344 C1345 1.414 . S
C1344 C1347 1.499 . S
C1345 H1319 0.950 . S
C1345 C1344 1.414 . S
C1345 C1346 1.374 . S
C1346 H1320 0.950 . S
C1346 C1342 1.385 . S
C1346 C1345 1.374 . S
C1347 C1344 1.499 . S
C1347 C1348 1.373 . S
C1347 C1349 1.389 . S
C1348 H1321 0.950 . S
C1348 C1334 1.377 . S
C1348 C1347 1.373 . S
C1349 C1333 1.377 . S
C1349 C1347 1.389 . S
C1349 C1350 1.524 . S
C1350 C1349 1.524 . S
C1350 C1351 1.397 . S
C1350 C1355 1.363 1_455 S
C1351 H1322 0.950 . S
C1351 C1350 1.397 . S
C1351 C1352 1.334 1_455 S
C1352 H1323 0.950 . S
C1352 C1351 1.334 1_655 S
C1352 C1353 1.287 . S
C1353 C1352 1.287 . S
C1353 C1354 1.524 . S
C1353 H1356 0.999 . S
C1354 H1324 0.950 . S
C1354 C1353 1.524 . S
C1354 C1355 1.415 . S
C1355 H1325 0.950 . S
C1355 C1350 1.363 1_655 S
C1355 C1354 1.415 . S
H1356 C1353 0.999 . S
H1357 C1338 0.913 . S
H1358 C1376 0.951 . S
H1359 C1378 0.951 . S
H1360 C1380 0.950 . S
H1361 C1381 0.950 . S
H1362 C1383 0.950 . S
H1363 C1386 0.950 . S
H1364 C1387 0.950 . S
H1365 C1389 0.950 . S
H1366 C1390 0.950 . S
H1367 C1391 0.951 . S
H1368 C1393 0.951 . S
H1369 C1395 0.950 . S
H1370 C1396 0.950 . S
H1371 C1398 0.950 . S
H1372 C1401 0.950 . S
H1373 C1402 0.950 . S
H1374 C1404 0.950 . S
H1375 C1405 0.950 . S
C1376 H1358 0.951 . S
C1376 C1377 1.366 . S
C1376 C1378 1.388 . S
C1377 C1376 1.366 . S
C1377 C1381 1.385 . S
C1378 H1359 0.951 . S
C1378 C1376 1.388 . S
C1378 C1379 1.366 . S
C1379 C1378 1.366 . S
C1379 C1380 1.414 . S
C1379 C1382 1.499 . S
C1380 H1360 0.950 . S
C1380 C1379 1.414 . S
C1380 C1381 1.374 . S
C1381 H1361 0.950 . S
C1381 C1377 1.385 . S
C1381 C1380 1.374 . S
C1382 C1379 1.499 . S
C1382 C1383 1.373 . S
C1382 C1384 1.389 . S
C1383 H1362 0.950 . S
C1383 C1382 1.373 . S
C1383 C1399 1.377 . S
C1384 C1382 1.389 . S
C1384 C1385 1.524 . S
C1384 C1398 1.377 . S
C1385 C1384 1.524 . S
C1385 C1386 1.397 . S
C1385 C1390 1.363 . S
C1386 H1363 0.950 . S
C1386 C1385 1.397 . S
C1386 C1387 1.334 . S
C1387 H1364 0.950 . S
C1387 C1386 1.334 . S
C1387 C1388 1.287 . S
C1388 C1387 1.287 . S
C1388 C1389 1.524 . S
C1388 H1407 0.913 . S
C1389 H1365 0.950 . S
C1389 C1388 1.524 . S
C1389 C1390 1.415 . S
C1390 H1366 0.950 . S
C1390 C1385 1.363 . S
C1390 C1389 1.415 . S
C1391 H1367 0.951 . S
C1391 C1392 1.366 . S
C1391 C1393 1.388 . S
C1392 C1391 1.366 . S
C1392 C1396 1.385 . S
C1393 H1368 0.951 . S
C1393 C1391 1.388 . S
C1393 C1394 1.366 . S
C1394 C1393 1.366 . S
C1394 C1395 1.414 . S
C1394 C1397 1.499 . S
C1395 H1369 0.950 . S
C1395 C1394 1.414 . S
C1395 C1396 1.374 . S
C1396 H1370 0.950 . S
C1396 C1392 1.385 . S
C1396 C1395 1.374 . S
C1397 C1394 1.499 . S
C1397 C1398 1.373 . S
C1397 C1399 1.389 . S
C1398 H1371 0.950 . S
C1398 C1384 1.377 . S
C1398 C1397 1.373 . S
C1399 C1383 1.377 . S
C1399 C1397 1.389 . S
C1399 C1400 1.524 . S
C1400 C1399 1.524 . S
C1400 C1401 1.397 . S
C1400 C1405 1.363 . S
C1401 H1372 0.950 . S
C1401 C1400 1.397 . S
C1401 C1402 1.334 . S
C1402 H1373 0.950 . S
C1402 C1401 1.334 . S
C1402 C1403 1.287 . S
C1403 C1402 1.287 . S
C1403 C1404 1.524 . S
C1403 H1406 0.999 . S
C1404 H1374 0.950 . S
C1404 C1403 1.524 . S
C1404 C1405 1.415 . S
C1405 H1375 0.950 . S
C1405 C1400 1.363 . S
C1405 C1404 1.415 . S
H1406 C1403 0.999 . S
H1407 C1388 0.913 . S
C227 C4 2.340 . S
C242 C104 2.348 . S
C277 C16 1.426 . S
C292 N124 1.408 . S
C342 C158 1.479 . S
C327 C32 1.472 . S
C377 C43 1.091 . S
C392 N192 1.057 . S
C442 C145 2.882 . S
C427 C5 2.867 . S
C492 N102 0.921 1_565 S
C477 C21 0.933 . S
C542 C179 1.724 1_556 S
C527 C27 1.711 . S
C592 N154 0.870 . S
C577 C37 0.879 . S
C627 C10 1.832 . S
C642 C194 1.845 . S
C692 C128 1.763 . S
C677 C26 1.747 . S
C727 C38 1.097 . S
C742 C89 1.106 . S
C777 C15 1.623 . S
C792 C175 1.629 . S
C842 C115 2.523 . S
C827 C48 2.518 . S
C877 C59 1.184 . S
C892 N132 1.169 . S
C927 C76 1.811 . S
C942 C149 1.820 . S
C977 C87 0.918 . S
C992 N184 0.901 . S
C1027 C54 2.145 . S
C1042 C134 2.162 . S
C1092 N94 1.583 . S
C1077 C60 1.596 . S
C1142 C188 1.782 . S
C1127 C71 1.762 . S
C1192 N162 0.834 . S
C1177 C82 0.837 . S
C1227 C49 2.110 . S
C1242 C205 2.108 1_656 S
C1292 C119 1.327 . S
C1277 C70 1.323 . S
C1342 C98 1.500 . S
C1327 C81 1.497 . S
C1377 C65 1.428 . S
C1392 C164 1.435 . S
