# Generated by pormake.
# Topology hwx, (6,3)-cn, num edge types: 1
# Building blocks:
#     Node 0, Type 0, BuildingBlock: OJICUG_clean_sbu_0, # of connection points: 6
#     Node 1, Type 0, BuildingBlock: OJICUG_clean_sbu_0, # of connection points: 6
#     Node 2, Type 0, BuildingBlock: OJICUG_clean_sbu_0, # of connection points: 6
#     Node 3, Type 0, BuildingBlock: OJICUG_clean_sbu_0, # of connection points: 6
#     Node 4, Type 1, BuildingBlock: BETDIP_clean_linker_0, # of connection points: 3
#     Node 5, Type 1, BuildingBlock: BETDIP_clean_linker_0, # of connection points: 3
#     Node 6, Type 1, BuildingBlock: BETDIP_clean_linker_0, # of connection points: 3
#     Node 7, Type 1, BuildingBlock: BETDIP_clean_linker_0, # of connection points: 3
#     Node 8, Type 1, BuildingBlock: BETDIP_clean_linker_0, # of connection points: 3
#     Node 9, Type 1, BuildingBlock: BETDIP_clean_linker_0, # of connection points: 3
#     Node 10, Type 1, BuildingBlock: BETDIP_clean_linker_0, # of connection points: 3
#     Node 11, Type 1, BuildingBlock: BETDIP_clean_linker_0, # of connection points: 3
#     Edge 12, Type (0, 1), BuildingBlock: CIFDUS_clean_linker_0, # of connection points: 2
#     Edge 13, Type (0, 1), BuildingBlock: CIFDUS_clean_linker_0, # of connection points: 2
#     Edge 14, Type (0, 1), BuildingBlock: CIFDUS_clean_linker_0, # of connection points: 2
#     Edge 15, Type (0, 1), BuildingBlock: CIFDUS_clean_linker_0, # of connection points: 2
#     Edge 16, Type (0, 1), BuildingBlock: CIFDUS_clean_linker_0, # of connection points: 2
#     Edge 17, Type (0, 1), BuildingBlock: CIFDUS_clean_linker_0, # of connection points: 2
#     Edge 18, Type (0, 1), BuildingBlock: CIFDUS_clean_linker_0, # of connection points: 2
#     Edge 19, Type (0, 1), BuildingBlock: CIFDUS_clean_linker_0, # of connection points: 2
#     Edge 20, Type (0, 1), BuildingBlock: CIFDUS_clean_linker_0, # of connection points: 2
#     Edge 21, Type (0, 1), BuildingBlock: CIFDUS_clean_linker_0, # of connection points: 2
#     Edge 22, Type (0, 1), BuildingBlock: CIFDUS_clean_linker_0, # of connection points: 2
#     Edge 23, Type (0, 1), BuildingBlock: CIFDUS_clean_linker_0, # of connection points: 2
#     Edge 24, Type (0, 1), BuildingBlock: CIFDUS_clean_linker_0, # of connection points: 2
#     Edge 25, Type (0, 1), BuildingBlock: CIFDUS_clean_linker_0, # of connection points: 2
#     Edge 26, Type (0, 1), BuildingBlock: CIFDUS_clean_linker_0, # of connection points: 2
#     Edge 27, Type (0, 1), BuildingBlock: CIFDUS_clean_linker_0, # of connection points: 2
#     Edge 28, Type (0, 1), BuildingBlock: CIFDUS_clean_linker_0, # of connection points: 2
#     Edge 29, Type (0, 1), BuildingBlock: CIFDUS_clean_linker_0, # of connection points: 2
#     Edge 30, Type (0, 1), BuildingBlock: CIFDUS_clean_linker_0, # of connection points: 2
#     Edge 31, Type (0, 1), BuildingBlock: CIFDUS_clean_linker_0, # of connection points: 2
#     Edge 32, Type (0, 1), BuildingBlock: CIFDUS_clean_linker_0, # of connection points: 2
#     Edge 33, Type (0, 1), BuildingBlock: CIFDUS_clean_linker_0, # of connection points: 2
#     Edge 34, Type (0, 1), BuildingBlock: CIFDUS_clean_linker_0, # of connection points: 2
#     Edge 35, Type (0, 1), BuildingBlock: CIFDUS_clean_linker_0, # of connection points: 2
# Relax obj value: 0.006
# Max RMSD: 0.043
# Mean RMSD: 0.040
data_MOF--net-hwx--node1-OJICUG_clean_sbu_0--node2-BETDIP_clean_linker_0--edge1-CIFDUS_clean_linker_0
_symmetry_space_group_name_H-M    P1
_symmetry_Int_Tables_number       1
_symmetry_cell_setting            triclinic
loop_
_symmetry_equiv_pos_as_xyz
'x, y, z'
_cell_length_a     46.843042
_cell_length_b     46.870442
_cell_length_c     17.789473
_cell_angle_alpha  91.580425
_cell_angle_beta   91.612109
_cell_angle_gamma 89.910504
loop_
_atom_site_label
_atom_site_type_symbol
_atom_site_fract_x
_atom_site_fract_y
_atom_site_fract_z
_atom_type_partial_charge
Sc0 Sc 0.23003 0.23236 0.15599 0.0
Sc1 Sc 0.18832 0.18272 0.04816 0.0
Sc2 Sc 0.23247 0.23207 0.9594 0.0
O3 O 0.2169 0.21566 0.05446 0.0
C4 C 0.22375 0.28859 0.06025 0.0
C5 C 0.16394 0.22185 0.18124 0.0
C6 C 0.16666 0.22203 0.91414 0.0
C7 C 0.22853 0.16555 0.18737 0.0
C8 C 0.28798 0.23147 0.06709 0.0
C9 C 0.23111 0.1652 0.91817 0.0
O10 O 0.22453 0.27567 0.12208 0.0
O11 O 0.16092 0.20239 0.13039 0.0
O12 O 0.19067 0.23415 0.90706 0.0
O13 O 0.23686 0.19097 0.20144 0.0
O14 O 0.27591 0.23149 0.00219 0.0
O15 O 0.21229 0.15903 0.96523 0.0
O16 O 0.27413 0.23206 0.12738 0.0
O17 O 0.21092 0.15902 0.13389 0.0
O18 O 0.24012 0.19047 0.91037 0.0
O19 O 0.18751 0.23437 0.19584 0.0
O20 O 0.22659 0.27574 -0.00294 0.0
O21 O 0.16257 0.20287 0.962 0.0
Sc22 Sc 0.26908 0.73221 0.39336 0.0
Sc23 Sc 0.31246 0.67869 0.47385 0.0
Sc24 Sc 0.27168 0.72472 0.58917 0.0
O25 O 0.28438 0.71186 0.48542 0.0
C26 C 0.2781 0.78453 0.50957 0.0
C27 C 0.33447 0.72163 0.35198 0.0
C28 C 0.33851 0.71378 0.61511 0.0
C29 C 0.2676 0.66664 0.33881 0.0
C30 C 0.21343 0.72939 0.4943 0.0
C31 C 0.27337 0.65682 0.60374 0.0
O32 O 0.27612 0.77392 0.44316 0.0
O33 O 0.33748 0.7004 0.39422 0.0
O34 O 0.31479 0.72506 0.63208 0.0
O35 O 0.26003 0.6926 0.33431 0.0
O36 O 0.22748 0.72643 0.55566 0.0
O37 O 0.29114 0.65267 0.55207 0.0
O38 O 0.22535 0.73164 0.43117 0.0
O39 O 0.28645 0.65818 0.38605 0.0
O40 O 0.26447 0.68152 0.62307 0.0
O41 O 0.31113 0.73548 0.34589 0.0
O42 O 0.27672 0.7695 0.56775 0.0
O43 O 0.34127 0.69599 0.56049 0.0
Sc44 Sc 0.76203 0.76194 0.90347 0.0
Sc45 Sc 0.80858 0.80904 0.00592 0.0
Sc46 Sc 0.76235 0.76355 0.10053 0.0
O47 O 0.77769 0.77822 0.00325 0.0
C48 C 0.70526 0.76573 -0.00085 0.0
C49 C 0.76774 0.82823 0.86948 0.0
C50 C 0.76781 0.8303 0.13713 0.0
C51 C 0.82887 0.76783 0.87161 0.0
C52 C 0.76703 0.70619 0.00201 0.0
C53 C 0.82885 0.77027 0.14185 0.0
O54 O 0.71796 0.76493 0.93682 0.0
O55 O 0.78674 0.83341 0.9205 0.0
O56 O 0.7571 0.80582 0.14652 0.0
O57 O 0.80414 0.75726 0.85863 0.0
O58 O 0.76605 0.71974 0.06465 0.0
O59 O 0.83398 0.78831 0.09185 0.0
O60 O 0.76563 0.71845 0.93913 0.0
O61 O 0.83384 0.7868 0.92284 0.0
O62 O 0.80418 0.75998 0.15085 0.0
O63 O 0.75701 0.80357 0.85736 0.0
O64 O 0.71858 0.76521 0.0622 0.0
O65 O 0.78691 0.8348 0.08938 0.0
Sc66 Sc 0.71782 0.26558 0.58802 0.0
Sc67 Sc 0.68019 0.3184 0.4896 0.0
Sc68 Sc 0.73412 0.27815 0.40091 0.0
O69 O 0.71074 0.28738 0.4927 0.0
C70 C 0.78116 0.27475 0.53313 0.0
C71 C 0.71166 0.33025 0.64715 0.0
C72 C 0.72791 0.34543 0.38819 0.0
C73 C 0.65067 0.27213 0.59054 0.0
C74 C 0.72452 0.21597 0.46443 0.0
C75 C 0.67006 0.28395 0.33482 0.0
O76 O 0.76325 0.27041 0.5838 0.0
O77 O 0.69862 0.33972 0.58913 0.0
O78 O 0.7417 0.32236 0.37811 0.0
O79 O 0.67335 0.25806 0.60316 0.0
O80 O 0.72976 0.2326 0.41132 0.0
O81 O 0.66038 0.29875 0.38972 0.0
O82 O 0.71966 0.22492 0.53079 0.0
O83 O 0.6504 0.2952 0.5548 0.0
O84 O 0.6962 0.2768 0.33034 0.0
O85 O 0.71745 0.30401 0.65512 0.0
O86 O 0.77395 0.27795 0.46438 0.0
O87 O 0.70489 0.34658 0.424 0.0
H88 H 0.21083 0.50957 0.83799 0.0
H89 H 0.22262 0.5061 0.07903 0.0
H90 H 0.22349 0.58659 0.97068 0.0
H91 H 0.19723 0.46569 0.0629 0.0
C92 C 0.20539 0.45632 0.01127 0.0
C93 C 0.21371 0.52028 0.89244 0.0
C94 C 0.21608 0.55009 0.8973 0.0
C95 C 0.21495 0.50422 0.95792 0.0
C96 C 0.22009 0.51817 0.02833 0.0
C97 C 0.22272 0.54796 0.03336 0.0
C98 C 0.22032 0.56366 0.96768 0.0
N99 N 0.21235 0.47405 0.95095 0.0
H100 H 0.99712 0.74703 0.63682 0.0
H101 H 0.99328 0.75415 0.39508 0.0
H102 H 0.91681 0.76084 0.51998 0.0
H103 H 0.03079 0.72551 0.40069 0.0
C104 C 0.04308 0.73306 0.44991 0.0
C105 C 0.98496 0.75009 0.58495 0.0
C106 C 0.95516 0.75389 0.58665 0.0
C107 C -0.00108 0.74914 0.51576 0.0
C108 C 0.98298 0.75367 0.44868 0.0
C109 C 0.95336 0.75728 0.4501 0.0
C110 C 0.93972 0.75742 0.51898 0.0
N111 N 0.02882 0.74351 0.51485 0.0
H112 H 0.78787 0.49209 0.13027 0.0
H113 H 0.76436 0.48912 0.8938 0.0
H114 H 0.75829 0.4139 0.02449 0.0
H115 H 0.79408 0.5269 0.89088 0.0
C116 C 0.78909 0.53848 0.94259 0.0
C117 C 0.78049 0.48025 0.08027 0.0
C118 C 0.77408 0.45119 0.0843 0.0
C119 C 0.77767 0.49401 0.01136 0.0
C120 C 0.76736 0.47867 0.9469 0.0
C121 C 0.7607 0.44962 0.95092 0.0
C122 C 0.7641 0.43617 0.01998 0.0
N123 N 0.78419 0.52352 0.00938 0.0
H124 H -0.00023 0.22575 0.41747 0.0
H125 H -0.00113 0.23147 0.6599 0.0
H126 H 0.07837 0.22376 0.54667 0.0
H127 H 0.95471 0.24801 0.64236 0.0
C128 C 0.94721 0.24371 0.58493 0.0
C129 C 0.01106 0.22599 0.47154 0.0
C130 C 0.04083 0.22459 0.47464 0.0
C131 C 0.99572 0.22922 0.5376 0.0
C132 C 0.01034 0.22964 0.60809 0.0
C133 C 0.04028 0.22788 0.61145 0.0
C134 C 0.05526 0.22545 0.54449 0.0
N135 N 0.96579 0.23281 0.52954 0.0
H136 H 0.75083 0.99489 0.63717 0.0
H137 H 0.75369 0.99473 0.39466 0.0
H138 H 0.75894 0.91608 0.51023 0.0
H139 H 0.74055 0.03864 0.4033 0.0
C140 C 0.74218 0.04697 0.46066 0.0
C141 C 0.75242 0.98345 0.58366 0.0
C142 C 0.75475 0.95361 0.58168 0.0
C143 C 0.75136 -0.00137 0.51668 0.0
C144 C 0.75375 0.98372 0.44717 0.0
C145 C 0.75598 0.95393 0.4449 0.0
C146 C 0.75647 0.93911 0.5121 0.0
N147 N 0.74759 0.0287 0.52194 0.0
H148 H 0.50492 0.21657 0.84886 0.0
H149 H 0.50937 0.23774 0.08643 0.0
H150 H 0.58521 0.23819 0.95663 0.0
H151 H 0.46671 0.2184 0.08822 0.0
C152 C 0.45678 0.22065 0.03286 0.0
C153 C 0.51728 0.22224 0.89951 0.0
C154 C 0.54676 0.22607 0.89606 0.0
C155 C 0.5036 0.2258 0.96808 0.0
C156 C 0.51963 0.23414 0.0334 0.0
C157 C 0.54926 0.23827 0.03011 0.0
C158 C 0.56255 0.23407 0.96101 0.0
N159 N 0.47357 0.2221 0.96798 0.0
H160 H 0.25854 0.0021 0.42059 0.0
H161 H 0.26218 0.00025 0.66323 0.0
H162 H 0.24472 0.07873 0.55115 0.0
H163 H 0.28909 0.96565 0.43112 0.0
C164 C 0.28157 0.95372 0.47812 0.0
C165 C 0.25748 0.01281 0.47509 0.0
C166 C 0.25173 0.04213 0.4784 0.0
C167 C 0.26197 0.99767 0.5419 0.0
C168 C 0.2591 0.0119 0.61183 0.0
C169 C 0.25336 0.04128 0.61538 0.0
C170 C 0.24972 0.05612 0.54855 0.0
N171 N 0.26925 0.96822 0.54055 0.0
H172 H 0.48652 0.77912 0.11942 0.0
H173 H 0.48533 0.77376 0.87654 0.0
H174 H 0.40682 0.77739 0.99341 0.0
H175 H 0.52654 0.79737 0.89121 0.0
C176 C 0.53687 0.78773 0.93969 0.0
C177 C 0.47486 0.77871 0.06594 0.0
C178 C 0.44481 0.77883 0.06419 0.0
C179 C 0.48984 0.77834 -0.00166 0.0
C180 C 0.47442 0.77607 0.92915 0.0
C181 C 0.44456 0.77624 0.92753 0.0
C182 C 0.42999 0.77819 0.99488 0.0
N183 N 0.52024 0.77938 0.00121 0.0
H184 H 0.11382 0.19285 0.19397 0.0
H185 H 0.15964 0.2678 0.27699 0.0
H186 H 0.12359 0.27673 0.37032 0.0
H187 H 0.08223 0.26048 0.43746 0.0
H188 H 0.03631 0.18547 0.35825 0.0
H189 H 0.06896 0.17953 0.25336 0.0
C190 C 0.11567 0.21138 0.23167 0.0
C191 C 0.13971 0.22927 0.22941 0.0
C192 C 0.09498 0.21627 0.28615 0.0
C193 C 0.14165 0.25334 0.27832 0.0
C194 C 0.12104 0.25853 0.33178 0.0
C195 C 0.07926 0.24304 0.39657 0.0
C196 C 0.05739 0.22318 0.40553 0.0
C197 C 0.09817 0.23965 0.33767 0.0
C198 C 0.0532 0.20091 0.35204 0.0
C199 C 0.07191 0.19747 0.29256 0.0
H200 H 0.22578 0.65329 0.68678 0.0
H201 H 0.29775 0.60393 0.61017 0.0
H202 H 0.28317 0.56393 0.68516 0.0
H203 H 0.25337 0.54534 0.78459 0.0
H204 H 0.18237 0.59527 0.86338 0.0
H205 H 0.19267 0.63239 0.77411 0.0
C206 C 0.23818 0.63373 0.68613 0.0
C207 C 0.26311 0.63183 0.64413 0.0
C208 C 0.22971 0.61082 0.72941 0.0
C209 C 0.2786 0.60608 0.64258 0.0
C210 C 0.27028 0.58316 0.68543 0.0
C211 C 0.23963 0.56391 0.78013 0.0
C212 C 0.21719 0.56772 0.83003 0.0
C213 C 0.24628 0.58555 0.73049 0.0
C214 C 0.19971 0.59201 0.82502 0.0
C215 C 0.20578 0.61331 0.77466 0.0
H216 H 0.88179 0.79429 0.16408 0.0
H217 H 0.82795 0.72646 0.23891 0.0
H218 H 0.86313 0.71503 0.33635 0.0
H219 H 0.907 0.72669 0.4074 0.0
H220 H 0.961 0.7947 0.33683 0.0
H221 H 0.92824 0.80334 0.22971 0.0
C222 C 0.87793 0.77679 0.20107 0.0
C223 C 0.85202 0.76159 0.19475 0.0
C224 C 0.89822 0.7704 0.2579 0.0
C225 C 0.84746 0.73885 0.24302 0.0
C226 C 0.86759 0.73221 0.29885 0.0
C227 C 0.91165 0.74326 0.36812 0.0
C228 C 0.93602 0.7603 0.3801 0.0
C229 C 0.89265 0.74828 0.30792 0.0
C230 C 0.94225 0.78136 0.32842 0.0
C231 C 0.92347 0.78639 0.26762 0.0
H232 H 0.69791 0.38674 0.6736 0.0
H233 H 0.75283 0.31876 0.7517 0.0
H234 H 0.77418 0.35048 0.84666 0.0
H235 H 0.77717 0.39666 0.9097 0.0
H236 H 0.72096 0.46479 0.84192 0.0
H237 H 0.70103 0.43424 0.73922 0.0
C238 C 0.71447 0.37894 0.71158 0.0
C239 C 0.7234 0.35028 0.70578 0.0
C240 C 0.72674 0.39735 0.7674 0.0
C241 C 0.74506 0.34053 0.75528 0.0
C242 C 0.75755 0.3587 0.80953 0.0
C243 C 0.76038 0.40483 0.87288 0.0
C244 C 0.7503 0.43275 0.884 0.0
C245 C 0.74844 0.387 0.81637 0.0
C246 C 0.72918 0.44332 0.83432 0.0
C247 C 0.7176 0.42579 0.7761 0.0
H248 H 0.61416 0.299 0.30709 0.0
H249 H 0.6809 0.24248 0.22974 0.0
H250 H 0.64859 0.2219 0.13434 0.0
H251 H 0.60206 0.22005 0.07121 0.0
H252 H 0.53564 0.27831 0.13951 0.0
H253 H 0.56678 0.29721 0.24186 0.0
C254 C 0.62162 0.28224 0.26924 0.0
C255 C 0.65005 0.27256 0.27548 0.0
C256 C 0.6029 0.27046 0.21348 0.0
C257 C 0.6593 0.25071 0.22599 0.0
C258 C 0.64078 0.23871 0.1715 0.0
C259 C 0.59439 0.23705 0.10805 0.0
C260 C 0.56666 0.24791 0.09714 0.0
C261 C 0.61265 0.24851 0.16453 0.0
C262 C 0.55682 0.26935 0.14692 0.0
C263 C 0.57473 0.2804 0.20496 0.0
H264 H 0.21267 0.10986 0.90074 0.0
H265 H 0.27485 0.16918 0.82118 0.0
H266 H 0.28983 0.13413 0.72713 0.0
H267 H 0.28187 0.08895 0.65838 0.0
H268 H 0.21902 0.02979 0.73273 0.0
H269 H 0.20823 0.06211 0.83917 0.0
C270 C 0.22974 0.11501 0.86349 0.0
C271 C 0.24221 0.14239 0.86738 0.0
C272 C 0.23816 0.09477 0.80858 0.0
C273 C 0.2645 0.14852 0.81894 0.0
C274 C 0.27318 0.12845 0.76506 0.0
C275 C 0.26614 0.08298 0.69875 0.0
C276 C 0.25102 0.05731 0.68771 0.0
C277 C 0.25963 0.10188 0.75807 0.0
C278 C 0.23094 0.04948 0.74049 0.0
C279 C 0.22461 0.06807 0.80077 0.0
H280 H 0.343 0.77206 0.28215 0.0
H281 H 0.38257 0.69058 0.32469 0.0
H282 H 0.42302 0.70333 0.24955 0.0
H283 H 0.445 0.73558 0.1611 0.0
H284 H 0.40503 0.81626 0.11513 0.0
H285 H 0.36746 0.80631 0.2036 0.0
C286 C 0.3605 0.75713 0.27516 0.0
C287 C 0.35943 0.73024 0.30823 0.0
C288 C 0.38388 0.7646 0.23185 0.0
C289 C 0.38261 0.71136 0.29956 0.0
C290 C 0.40587 0.71864 0.25665 0.0
C291 C 0.4286 0.75135 0.17272 0.0
C292 C 0.42783 0.77669 0.13259 0.0
C293 C 0.40653 0.74498 0.22148 0.0
C294 C 0.40613 0.79675 0.14637 0.0
C295 C 0.38448 0.79089 0.19612 0.0
H296 H 0.78945 0.88229 0.86362 0.0
H297 H 0.72487 0.82649 0.76243 0.0
H298 H 0.71276 0.86228 0.67049 0.0
H299 H 0.72362 0.90711 0.61077 0.0
H300 H 0.78904 0.96257 0.70713 0.0
H301 H 0.79716 0.92959 0.81027 0.0
C302 C 0.77251 0.87806 0.82204 0.0
C303 C 0.75848 0.85145 0.81936 0.0
C304 C 0.76576 0.89869 0.76846 0.0
C305 C 0.73638 0.84654 0.76536 0.0
C306 C 0.72935 0.86703 0.71268 0.0
C307 C 0.73941 0.9121 0.65496 0.0
C308 C 0.75597 0.93693 0.65114 0.0
C309 C 0.7444 0.8928 0.71251 0.0
C310 C 0.77602 0.94354 0.70915 0.0
C311 C 0.78083 0.92457 0.76761 0.0
H312 H 0.88338 0.78917 0.8672 0.0
H313 H 0.82763 0.7247 0.7654 0.0
H314 H 0.86398 0.71187 0.67564 0.0
H315 H 0.90919 0.72225 0.61706 0.0
H316 H 0.96467 0.78762 0.71315 0.0
H317 H 0.9313 0.7962 0.81543 0.0
C318 C 0.87928 0.77209 0.82598 0.0
C319 C 0.85248 0.75831 0.82258 0.0
C320 C 0.9003 0.7649 0.77354 0.0
C321 C 0.84777 0.73604 0.76897 0.0
C322 C 0.86861 0.72859 0.71753 0.0
C323 C 0.9142 0.738 0.66131 0.0
C324 C 0.93916 0.75446 0.65747 0.0
C325 C 0.89458 0.74336 0.71806 0.0
C326 C 0.94563 0.77461 0.71526 0.0
C327 C 0.92639 0.77972 0.77313 0.0
H328 H 0.7761 0.35238 0.30822 0.0
H329 H 0.70151 0.39756 0.38542 0.0
H330 H 0.71292 0.43773 0.30771 0.0
H331 H 0.73948 0.45643 0.20221 0.0
H332 H 0.81215 0.41003 0.12015 0.0
H333 H 0.80659 0.37431 0.2164 0.0
C334 C 0.76256 0.37117 0.30907 0.0
C335 C 0.73762 0.37157 0.35134 0.0
C336 C 0.76895 0.39406 0.26323 0.0
C337 C 0.72063 0.39638 0.3526 0.0
C338 C 0.7271 0.41943 0.30808 0.0
C339 C 0.75468 0.43907 0.20767 0.0
C340 C 0.77626 0.43576 0.15514 0.0
C341 C 0.75058 0.41805 0.26104 0.0
C342 C 0.79559 0.41297 0.16098 0.0
C343 C 0.79219 0.39243 0.21531 0.0
H344 H 0.11343 0.19807 0.89933 0.0
H345 H 0.16627 0.2643 0.81178 0.0
H346 H 0.12959 0.27457 0.71706 0.0
H347 H 0.08504 0.26154 0.65055 0.0
H348 H 0.03259 0.19438 0.73274 0.0
H349 H 0.06616 0.18826 0.83947 0.0
C350 C 0.11682 0.21496 0.8601 0.0
C351 C 0.14288 0.22999 0.86206 0.0
C352 C 0.09567 0.22065 0.80488 0.0
C353 C 0.14668 0.25202 0.81111 0.0
C354 C 0.12567 0.25801 0.75686 0.0
C355 C 0.08079 0.24586 0.6926 0.0
C356 C 0.0567 0.22819 0.68369 0.0
C357 C 0.10049 0.24197 0.75201 0.0
C358 C 0.05105 0.20824 0.73877 0.0
C359 C 0.07037 0.20456 0.79922 0.0
H360 H 0.28324 0.61126 0.30963 0.0
H361 H 0.2198 0.67458 0.25129 0.0
H362 H 0.19783 0.64149 0.15947 0.0
H363 H 0.19893 0.59645 0.08796 0.0
H364 H 0.26373 0.53391 0.13879 0.0
H365 H 0.28214 0.56433 0.24323 0.0
C366 C 0.26448 0.61773 0.27727 0.0
C367 C 0.25353 0.64556 0.2866 0.0
C368 C 0.25203 0.59866 0.22357 0.0
C369 C 0.22905 0.6535 0.24449 0.0
C370 C 0.21633 0.63455 0.19212 0.0
C371 C 0.21692 0.58937 0.12245 0.0
C372 C 0.23017 0.5632 0.10529 0.0
C373 C 0.22801 0.60737 0.18006 0.0
C374 C 0.25308 0.55395 0.15118 0.0
C375 C 0.26382 0.57149 0.21027 0.0
H376 H 0.34649 0.76464 0.68557 0.0
H377 H 0.3876 0.6835 0.64458 0.0
H378 H 0.42719 0.69776 0.73071 0.0
H379 H 0.44678 0.73128 0.8291 0.0
H380 H 0.40409 0.81145 0.87101 0.0
H381 H 0.36855 0.79987 0.77173 0.0
C382 C 0.36419 0.75009 0.69521 0.0
C383 C 0.3639 0.72283 0.66037 0.0
C384 C 0.38656 0.75836 0.74459 0.0
C385 C 0.38729 0.7045 0.67155 0.0
C386 C 0.40985 0.71263 0.72076 0.0
C387 C 0.43014 0.74646 0.81466 0.0
C388 C 0.42782 0.77211 0.85679 0.0
C389 C 0.40932 0.73924 0.75906 0.0
C390 C 0.40609 0.7916 0.83886 0.0
C391 C 0.38574 0.7849 0.78268 0.0
H392 H 0.79234 0.88291 0.15905 0.0
H393 H 0.72224 0.83089 0.22879 0.0
H394 H 0.71043 0.86659 0.32456 0.0
H395 H 0.72308 0.90975 0.39767 0.0
H396 H 0.7936 0.9616 0.33253 0.0
H397 H 0.80183 0.92914 0.22469 0.0
C398 C 0.77423 0.87958 0.19441 0.0
C399 C 0.75857 0.85398 0.18754 0.0
C400 C 0.76768 0.90011 0.25037 0.0
C401 C 0.73501 0.85014 0.23356 0.0
C402 C 0.72816 0.87056 0.2884 0.0
C403 C 0.74 0.91408 0.35912 0.0
C404 C 0.75796 0.93765 0.37303 0.0
C405 C 0.74486 0.89515 0.29873 0.0
C406 C 0.77955 0.94347 0.32253 0.0
C407 C 0.78436 0.92483 0.26139 0.0
H408 H 0.64227 0.22285 0.6633 0.0
H409 H 0.59935 0.30019 0.59678 0.0
H410 H 0.55943 0.28904 0.67606 0.0
H411 H 0.54124 0.26198 0.78136 0.0
H412 H 0.58643 0.18719 0.8547 0.0
H413 H 0.62071 0.19228 0.7547 0.0
C414 C 0.624 0.23709 0.66506 0.0
C415 C 0.62418 0.26269 0.6257 0.0
C416 C 0.60155 0.23099 0.7123 0.0
C417 C 0.60001 0.28054 0.62742 0.0
C418 C 0.57718 0.27423 0.67292 0.0
C419 C 0.55803 0.2463 0.7733 0.0
C420 C 0.56153 0.22425 0.82441 0.0
C421 C 0.57833 0.25018 0.71806 0.0
C422 C 0.58348 0.2042 0.81516 0.0
C423 C 0.60315 0.20729 0.75862 0.0
H424 H 0.20937 0.11057 0.197 0.0
H425 H 0.272 0.16999 0.29173 0.0
H426 H 0.28662 0.13556 0.3848 0.0
H427 H 0.27885 0.09063 0.44686 0.0
H428 H 0.21588 0.03113 0.35681 0.0
H429 H 0.20459 0.06323 0.25332 0.0
C430 C 0.22644 0.11585 0.2374 0.0
C431 C 0.23918 0.14307 0.23795 0.0
C432 C 0.23467 0.09596 0.29171 0.0
C433 C 0.26143 0.14943 0.29053 0.0
C434 C 0.26991 0.12973 0.34386 0.0
C435 C 0.26285 0.08461 0.40402 0.0
C436 C 0.24794 0.05886 0.40956 0.0
C437 C 0.2562 0.10329 0.34611 0.0
C438 C 0.22761 0.05092 0.35338 0.0
C439 C 0.22104 0.06935 0.29469 0.0
H440 H 0.22835 0.32545 0.94504 0.0
H441 H 0.20843 0.32216 0.18037 0.0
H442 H 0.20047 0.37352 0.18467 0.0
H443 H 0.19943 0.41951 0.12235 0.0
H444 H 0.22031 0.42333 0.88829 0.0
H445 H 0.22749 0.37163 0.88272 0.0
C446 C 0.22222 0.33592 -0.00273 0.0
C447 C 0.21904 0.31987 0.06225 0.0
C448 C 0.21781 0.36558 -0.00038 0.0
C449 C 0.21119 0.33391 0.1295 0.0
C450 C 0.20655 0.36332 0.13208 0.0
C451 C 0.20548 0.40894 0.07012 0.0
C452 C 0.2093 0.42508 0.00596 0.0
C453 C 0.20984 0.37934 0.06759 0.0
C454 C 0.21726 0.41132 0.93857 0.0
C455 C 0.22137 0.38177 0.93535 0.0
H456 H 0.174 0.72234 0.3791 0.0
H457 H 0.18182 0.74008 0.61829 0.0
H458 H 0.1301 0.74324 0.62606 0.0
H459 H 0.08238 0.74101 0.56537 0.0
H460 H 0.07419 0.72159 0.32743 0.0
H461 H 0.12615 0.7191 0.3188 0.0
C462 C 0.16439 0.72696 0.43286 0.0
C463 C 0.18186 0.731 0.49785 0.0
C464 C 0.13449 0.72847 0.43728 0.0
C465 C 0.16897 0.73673 0.56724 0.0
C466 C 0.13933 0.73863 0.57186 0.0
C467 C 0.09199 0.7363 0.51168 0.0
C468 C 0.07457 0.73162 0.44702 0.0
C469 C 0.12186 0.73454 0.50731 0.0
C470 C 0.08728 0.72529 0.37795 0.0
C471 C 0.11695 0.72388 0.37295 0.0
H472 H 0.77918 0.6701 0.8844 0.0
H473 H 0.76256 0.67171 0.12223 0.0
H474 H 0.76851 0.62016 0.12508 0.0
H475 H 0.77802 0.57466 0.06053 0.0
H476 H 0.79493 0.57243 0.82331 0.0
H477 H 0.78939 0.62436 0.81989 0.0
C478 C 0.77675 0.65919 0.93682 0.0
C479 C 0.77033 0.67481 0.00287 0.0
C480 C 0.78035 0.62948 0.9383 0.0
C481 C 0.76751 0.66029 0.07045 0.0
C482 C 0.77091 0.63078 0.07224 0.0
C483 C 0.78058 0.5855 0.00808 0.0
C484 C 0.78684 0.56985 0.94214 0.0
C485 C 0.77731 0.61518 0.00658 0.0
C486 C 0.79013 0.58419 0.87473 0.0
C487 C 0.78691 0.61379 0.87274 0.0
H488 H 0.82537 0.26571 0.44062 0.0
H489 H 0.80569 0.28082 0.67401 0.0
H490 H 0.85581 0.27366 0.71045 0.0
H491 H 0.90481 0.26025 0.67635 0.0
H492 H 0.92327 0.24335 0.44289 0.0
H493 H 0.87411 0.25407 0.40638 0.0
C494 C 0.83206 0.26784 0.49938 0.0
C495 C 0.81182 0.27369 0.55445 0.0
C496 C 0.86069 0.26306 0.52009 0.0
C497 C 0.82085 0.27615 0.63046 0.0
C498 C 0.84948 0.27202 0.65141 0.0
C499 C 0.89798 0.25902 0.61757 0.0
C500 C 0.91752 0.25079 0.56272 0.0
C501 C 0.86949 0.26494 0.5968 0.0
C502 C 0.90859 0.24935 0.48655 0.0
C503 C 0.88046 0.25557 0.46542 0.0
H504 H 0.7267 0.1748 0.56829 0.0
H505 H 0.72547 0.18696 0.32841 0.0
H506 H 0.73015 0.13546 0.30642 0.0
H507 H 0.73601 0.08709 0.35588 0.0
H508 H 0.73868 0.07588 0.596 0.0
H509 H 0.73201 0.12702 0.61726 0.0
C510 C 0.72721 0.16627 0.51104 0.0
C511 C 0.72572 0.18476 0.4501 0.0
C512 C 0.73033 0.13682 0.49889 0.0
C513 C 0.72665 0.17323 0.37639 0.0
C514 C 0.72935 0.14379 0.36376 0.0
C515 C 0.73507 0.09594 0.41277 0.0
C516 C 0.73791 0.07784 0.47415 0.0
C517 C 0.73147 0.12543 0.42464 0.0
C518 C 0.73668 0.08939 0.54771 0.0
C519 C 0.73281 0.11862 0.55996 0.0
H520 H 0.32537 0.22899 0.95275 0.0
H521 H 0.32154 0.2303 0.19529 0.0
H522 H 0.37335 0.22658 0.20546 0.0
H523 H 0.41987 0.22289 0.1457 0.0
H524 H 0.4236 0.22194 0.90356 0.0
H525 H 0.37171 0.22546 0.89321 0.0
C526 C 0.33581 0.22854 0.0079 0.0
C527 C 0.3195 0.22997 0.07304 0.0
C528 C 0.36562 0.22637 0.01353 0.0
C529 C 0.3335 0.22929 0.14405 0.0
C530 C 0.36316 0.22712 0.15005 0.0
C531 C 0.40923 0.22339 0.09078 0.0
C532 C 0.42542 0.22216 0.02572 0.0
C533 C 0.37941 0.2256 0.0852 0.0
C534 C 0.41157 0.2229 0.95467 0.0
C535 C 0.3819 0.22493 0.94863 0.0
H536 H 0.29213 0.8223 0.40371 0.0
H537 H 0.26948 0.81738 0.63664 0.0
H538 H 0.26921 0.86942 0.64845 0.0
H539 H 0.27295 0.91632 0.59065 0.0
H540 H 0.29628 0.92098 0.35843 0.0
H541 H 0.29869 0.86892 0.3483 0.0
C542 C 0.28724 0.83256 0.45723 0.0
C543 C 0.28056 0.81592 0.51895 0.0
C544 C 0.28707 0.86243 0.46362 0.0
C545 C 0.27468 0.82963 0.58814 0.0
C546 C 0.2744 0.85941 0.5949 0.0
C547 C 0.27862 0.90593 0.53793 0.0
C548 C 0.28416 0.92234 0.47502 0.0
C549 C 0.28013 0.87601 0.53269 0.0
C550 C 0.29182 0.90866 0.4074 0.0
C551 C 0.29318 0.87895 0.40159 0.0
H552 H 0.66911 0.78064 0.8838 0.0
H553 H 0.67025 0.75522 0.11533 0.0
H554 H 0.6184 0.75926 0.11762 0.0
H555 H 0.57255 0.77059 0.05458 0.0
H556 H 0.57146 0.79741 0.82456 0.0
H557 H 0.62334 0.79222 0.82103 0.0
C558 C 0.65802 0.77583 0.93463 0.0
C559 C 0.67364 0.76761 -0.00084 0.0
C560 C 0.62814 0.77852 0.93599 0.0
C561 C 0.65885 0.76171 0.06479 0.0
C562 C 0.62914 0.76398 0.06624 0.0
C563 C 0.58368 0.77524 0.00371 0.0
C564 C 0.56826 0.78433 0.93983 0.0
C565 C 0.61356 0.77248 0.0023 0.0
C566 C 0.58296 0.7904 0.87444 0.0
C567 C 0.6126 0.78742 0.87235 0.0
loop_
_geom_bond_atom_site_label_1
_geom_bond_atom_site_label_2
_geom_bond_distance
_geom_bond_site_symmetry_2
_ccdc_geom_bond_type
Sc0 O3 2.025 . S
Sc0 O10 2.105 . S
Sc0 O13 2.105 . S
Sc0 O16 2.105 . S
Sc0 O19 2.105 . S
Sc1 O3 2.025 . S
Sc1 O11 2.105 . S
Sc1 O15 2.105 1_554 S
Sc1 O17 2.105 . S
Sc1 O21 2.105 1_554 S
Sc2 O3 2.025 1_556 S
Sc2 O12 2.105 . S
Sc2 O14 2.105 . S
Sc2 O18 2.105 . S
Sc2 O20 2.105 . S
O3 Sc0 2.025 . S
O3 Sc1 2.025 . S
O3 Sc2 2.025 1_554 S
C4 O10 1.268 . S
C4 O20 1.268 1_554 S
C5 O11 1.268 . S
C5 O19 1.268 . S
C6 O12 1.268 . S
C6 O21 1.268 . S
C7 O13 1.268 . S
C7 O17 1.268 . S
C8 O14 1.268 1_554 S
C8 O16 1.268 . S
C9 O15 1.268 . S
C9 O18 1.268 . S
O10 Sc0 2.105 . S
O10 C4 1.268 . S
O11 Sc1 2.105 . S
O11 C5 1.268 . S
O12 Sc2 2.105 . S
O12 C6 1.268 . S
O13 Sc0 2.105 . S
O13 C7 1.268 . S
O14 Sc2 2.105 . S
O14 C8 1.268 1_556 S
O15 Sc1 2.105 1_556 S
O15 C9 1.268 . S
O16 Sc0 2.105 . S
O16 C8 1.268 . S
O17 Sc1 2.105 . S
O17 C7 1.268 . S
O18 Sc2 2.105 . S
O18 C9 1.268 . S
O19 Sc0 2.105 . S
O19 C5 1.268 . S
O20 Sc2 2.105 . S
O20 C4 1.268 1_556 S
O21 Sc1 2.105 1_556 S
O21 C6 1.268 . S
Sc22 O25 2.025 . S
Sc22 O32 2.105 . S
Sc22 O35 2.105 . S
Sc22 O38 2.105 . S
Sc22 O41 2.105 . S
Sc23 O25 2.025 . S
Sc23 O33 2.105 . S
Sc23 O37 2.105 . S
Sc23 O39 2.105 . S
Sc23 O43 2.105 . S
Sc24 O25 2.025 . S
Sc24 O34 2.105 . S
Sc24 O36 2.105 . S
Sc24 O40 2.105 . S
Sc24 O42 2.105 . S
O25 Sc22 2.025 . S
O25 Sc23 2.025 . S
O25 Sc24 2.025 . S
C26 O32 1.268 . S
C26 O42 1.268 . S
C27 O33 1.268 . S
C27 O41 1.268 . S
C28 O34 1.268 . S
C28 O43 1.268 . S
C29 O35 1.268 . S
C29 O39 1.268 . S
C30 O36 1.268 . S
C30 O38 1.268 . S
C31 O37 1.268 . S
C31 O40 1.268 . S
O32 Sc22 2.105 . S
O32 C26 1.268 . S
O33 Sc23 2.105 . S
O33 C27 1.268 . S
O34 Sc24 2.105 . S
O34 C28 1.268 . S
O35 Sc22 2.105 . S
O35 C29 1.268 . S
O36 Sc24 2.105 . S
O36 C30 1.268 . S
O37 Sc23 2.105 . S
O37 C31 1.268 . S
O38 Sc22 2.105 . S
O38 C30 1.268 . S
O39 Sc23 2.105 . S
O39 C29 1.268 . S
O40 Sc24 2.105 . S
O40 C31 1.268 . S
O41 Sc22 2.105 . S
O41 C27 1.268 . S
O42 Sc24 2.105 . S
O42 C26 1.268 . S
O43 Sc23 2.105 . S
O43 C28 1.268 . S
Sc44 O47 2.025 1_556 S
Sc44 O54 2.105 . S
Sc44 O57 2.105 . S
Sc44 O60 2.105 . S
Sc44 O63 2.105 . S
Sc45 O47 2.025 . S
Sc45 O55 2.105 1_554 S
Sc45 O59 2.105 . S
Sc45 O61 2.105 1_554 S
Sc45 O65 2.105 . S
Sc46 O47 2.025 . S
Sc46 O56 2.105 . S
Sc46 O58 2.105 . S
Sc46 O62 2.105 . S
Sc46 O64 2.105 . S
O47 Sc44 2.025 1_554 S
O47 Sc45 2.025 . S
O47 Sc46 2.025 . S
C48 O54 1.268 1_554 S
C48 O64 1.268 . S
C49 O55 1.268 . S
C49 O63 1.268 . S
C50 O56 1.268 . S
C50 O65 1.268 . S
C51 O57 1.268 . S
C51 O61 1.268 . S
C52 O58 1.268 . S
C52 O60 1.268 1_554 S
C53 O59 1.268 . S
C53 O62 1.268 . S
O54 Sc44 2.105 . S
O54 C48 1.268 1_556 S
O55 Sc45 2.105 1_556 S
O55 C49 1.268 . S
O56 Sc46 2.105 . S
O56 C50 1.268 . S
O57 Sc44 2.105 . S
O57 C51 1.268 . S
O58 Sc46 2.105 . S
O58 C52 1.268 . S
O59 Sc45 2.105 . S
O59 C53 1.268 . S
O60 Sc44 2.105 . S
O60 C52 1.268 1_556 S
O61 Sc45 2.105 1_556 S
O61 C51 1.268 . S
O62 Sc46 2.105 . S
O62 C53 1.268 . S
O63 Sc44 2.105 . S
O63 C49 1.268 . S
O64 Sc46 2.105 . S
O64 C48 1.268 . S
O65 Sc45 2.105 . S
O65 C50 1.268 . S
Sc66 O69 2.025 . S
Sc66 O76 2.105 . S
Sc66 O79 2.105 . S
Sc66 O82 2.105 . S
Sc66 O85 2.105 . S
Sc67 O69 2.025 . S
Sc67 O77 2.105 . S
Sc67 O81 2.105 . S
Sc67 O83 2.105 . S
Sc67 O87 2.105 . S
Sc68 O69 2.025 . S
Sc68 O78 2.105 . S
Sc68 O80 2.105 . S
Sc68 O84 2.105 . S
Sc68 O86 2.105 . S
O69 Sc66 2.025 . S
O69 Sc67 2.025 . S
O69 Sc68 2.025 . S
C70 O76 1.268 . S
C70 O86 1.268 . S
C71 O77 1.268 . S
C71 O85 1.268 . S
C72 O78 1.268 . S
C72 O87 1.268 . S
C73 O79 1.268 . S
C73 O83 1.268 . S
C74 O80 1.268 . S
C74 O82 1.268 . S
C75 O81 1.268 . S
C75 O84 1.268 . S
O76 Sc66 2.105 . S
O76 C70 1.268 . S
O77 Sc67 2.105 . S
O77 C71 1.268 . S
O78 Sc68 2.105 . S
O78 C72 1.268 . S
O79 Sc66 2.105 . S
O79 C73 1.268 . S
O80 Sc68 2.105 . S
O80 C74 1.268 . S
O81 Sc67 2.105 . S
O81 C75 1.268 . S
O82 Sc66 2.105 . S
O82 C74 1.268 . S
O83 Sc67 2.105 . S
O83 C73 1.268 . S
O84 Sc68 2.105 . S
O84 C75 1.268 . S
O85 Sc66 2.105 . S
O85 C71 1.268 . S
O86 Sc68 2.105 . S
O86 C70 1.268 . S
O87 Sc67 2.105 . S
O87 C72 1.268 . S
H88 C93 0.930 . S
H89 C96 0.930 . S
H90 C98 0.930 . S
H91 C92 1.016 . S
C92 H91 1.016 . S
C92 N99 1.286 1_554 S
C93 H88 0.930 . S
C93 C94 1.397 . S
C93 C95 1.361 . S
C94 C93 1.397 . S
C94 C98 1.390 1_556 S
C95 C93 1.361 . S
C95 C96 1.393 1_556 S
C95 N99 1.413 . S
C96 H89 0.930 . S
C96 C95 1.393 1_554 S
C96 C97 1.399 . S
C97 C96 1.399 . S
C97 C98 1.381 . S
C98 H90 0.930 . S
C98 C94 1.390 1_554 S
C98 C97 1.381 . S
N99 C92 1.286 1_556 S
N99 C95 1.413 . S
H100 C105 0.930 . S
H101 C108 0.930 . S
H102 C110 0.930 . S
H103 C104 1.016 . S
C104 H103 1.016 . S
C104 N111 1.286 . S
C105 H100 0.930 . S
C105 C106 1.397 . S
C105 C107 1.358 1_655 S
C106 C105 1.397 . S
C106 C110 1.390 . S
C107 C105 1.358 1_455 S
C107 C108 1.391 1_455 S
C107 N111 1.418 . S
C108 H101 0.930 . S
C108 C107 1.391 1_655 S
C108 C109 1.399 . S
C109 C108 1.399 . S
C109 C110 1.381 . S
C110 H102 0.930 . S
C110 C106 1.390 . S
C110 C109 1.381 . S
N111 C104 1.286 . S
N111 C107 1.418 . S
H112 C117 0.930 . S
H113 C120 0.930 . S
H114 C122 0.930 . S
H115 C116 1.016 1_556 S
C116 H115 1.016 1_554 S
C116 N123 1.286 . S
C117 H112 0.930 . S
C117 C118 1.397 . S
C117 C119 1.361 . S
C118 C117 1.397 . S
C118 C122 1.390 . S
C119 C117 1.361 . S
C119 C120 1.393 1_554 S
C119 N123 1.413 . S
C120 H113 0.930 . S
C120 C119 1.393 1_556 S
C120 C121 1.399 . S
C121 C120 1.399 . S
C121 C122 1.381 1_556 S
C122 H114 0.930 . S
C122 C118 1.390 . S
C122 C121 1.381 1_554 S
N123 C116 1.286 . S
N123 C119 1.413 . S
H124 C129 0.930 . S
H125 C132 0.930 . S
H126 C134 0.930 . S
H127 C128 1.016 . S
C128 H127 1.016 . S
C128 N135 1.286 . S
C129 H124 0.930 . S
C129 C130 1.397 . S
C129 C131 1.361 . S
C130 C129 1.397 . S
C130 C134 1.390 . S
C131 C129 1.361 . S
C131 C132 1.393 . S
C131 N135 1.413 1_455 S
C132 H125 0.930 . S
C132 C131 1.393 . S
C132 C133 1.399 . S
C133 C132 1.399 . S
C133 C134 1.381 . S
C134 H126 0.930 . S
C134 C130 1.390 . S
C134 C133 1.381 . S
N135 C128 1.286 . S
N135 C131 1.413 1_655 S
H136 C141 0.930 . S
H137 C144 0.930 . S
H138 C146 0.930 . S
H139 C140 1.016 . S
C140 H139 1.016 . S
C140 N147 1.286 . S
C141 H136 0.930 . S
C141 C142 1.397 . S
C141 C143 1.361 . S
C142 C141 1.397 . S
C142 C146 1.390 . S
C143 C141 1.361 . S
C143 C144 1.393 . S
C143 N147 1.413 1_565 S
C144 H137 0.930 . S
C144 C143 1.393 . S
C144 C145 1.399 . S
C145 C144 1.399 . S
C145 C146 1.381 . S
C146 H138 0.930 . S
C146 C142 1.390 . S
C146 C145 1.381 . S
N147 C140 1.286 . S
N147 C143 1.413 1_545 S
H148 C153 0.930 . S
H149 C156 0.930 . S
H150 C158 0.930 . S
H151 C152 1.016 . S
C152 H151 1.016 . S
C152 N159 1.286 1_554 S
C153 H148 0.930 . S
C153 C154 1.397 . S
C153 C155 1.361 . S
C154 C153 1.397 . S
C154 C158 1.390 1_556 S
C155 C153 1.361 . S
C155 C156 1.393 1_556 S
C155 N159 1.413 . S
C156 H149 0.930 . S
C156 C155 1.393 1_554 S
C156 C157 1.399 . S
C157 C156 1.399 . S
C157 C158 1.381 . S
C158 H150 0.930 . S
C158 C154 1.390 1_554 S
C158 C157 1.381 . S
N159 C152 1.286 1_556 S
N159 C155 1.413 . S
H160 C165 0.930 . S
H161 C168 0.930 . S
H162 C170 0.930 . S
H163 C164 1.016 . S
C164 H163 1.016 . S
C164 N171 1.286 . S
C165 H160 0.930 . S
C165 C166 1.397 . S
C165 C167 1.361 1_545 S
C166 C165 1.397 . S
C166 C170 1.390 . S
C167 C165 1.361 1_565 S
C167 C168 1.393 1_565 S
C167 N171 1.413 . S
C168 H161 0.930 . S
C168 C167 1.393 1_545 S
C168 C169 1.399 . S
C169 C168 1.399 . S
C169 C170 1.381 . S
C170 H162 0.930 . S
C170 C166 1.390 . S
C170 C169 1.381 . S
N171 C164 1.286 . S
N171 C167 1.413 . S
H172 C177 0.930 . S
H173 C180 0.930 . S
H174 C182 0.930 . S
H175 C176 1.016 1_556 S
C176 H175 1.016 1_554 S
C176 N183 1.286 . S
C177 H172 0.930 . S
C177 C178 1.397 . S
C177 C179 1.361 . S
C178 C177 1.397 . S
C178 C182 1.390 . S
C179 C177 1.361 . S
C179 C180 1.393 1_554 S
C179 N183 1.413 . S
C180 H173 0.930 . S
C180 C179 1.393 1_556 S
C180 C181 1.399 . S
C181 C180 1.399 . S
C181 C182 1.381 1_556 S
C182 H174 0.930 . S
C182 C178 1.390 . S
C182 C181 1.381 1_554 S
N183 C176 1.286 . S
N183 C179 1.413 . S
H184 C190 0.930 . S
H185 C193 0.930 . S
H186 C194 0.930 . S
H187 C195 0.930 . S
H188 C198 0.930 . S
H189 C199 0.930 . S
C190 H184 0.930 . S
C190 C191 1.355 . S
C190 C192 1.415 . S
C191 C190 1.355 . S
C191 C193 1.419 . S
C192 C190 1.415 . S
C192 C197 1.425 . S
C192 C199 1.409 . S
C193 H185 0.930 . S
C193 C191 1.419 . S
C193 C194 1.362 . S
C194 H186 0.930 . S
C194 C193 1.362 . S
C194 C197 1.409 . S
C195 H187 0.930 . S
C195 C196 1.355 . S
C195 C197 1.415 . S
C196 C195 1.355 . S
C196 C198 1.419 . S
C197 C192 1.425 . S
C197 C194 1.409 . S
C197 C195 1.415 . S
C198 H188 0.930 . S
C198 C196 1.419 . S
C198 C199 1.362 . S
C199 H189 0.930 . S
C199 C192 1.409 . S
C199 C198 1.362 . S
H200 C206 0.930 . S
H201 C209 0.930 . S
H202 C210 0.930 . S
H203 C211 0.930 . S
H204 C214 0.930 . S
H205 C215 0.930 . S
C206 H200 0.930 . S
C206 C207 1.355 . S
C206 C208 1.415 . S
C207 C206 1.355 . S
C207 C209 1.419 . S
C208 C206 1.415 . S
C208 C213 1.425 . S
C208 C215 1.409 . S
C209 H201 0.930 . S
C209 C207 1.419 . S
C209 C210 1.362 . S
C210 H202 0.930 . S
C210 C209 1.362 . S
C210 C213 1.409 . S
C211 H203 0.930 . S
C211 C212 1.355 . S
C211 C213 1.415 . S
C212 C211 1.355 . S
C212 C214 1.419 . S
C213 C208 1.425 . S
C213 C210 1.409 . S
C213 C211 1.415 . S
C214 H204 0.930 . S
C214 C212 1.419 . S
C214 C215 1.362 . S
C215 H205 0.930 . S
C215 C208 1.409 . S
C215 C214 1.362 . S
H216 C222 0.930 . S
H217 C225 0.930 . S
H218 C226 0.930 . S
H219 C227 0.930 . S
H220 C230 0.930 . S
H221 C231 0.930 . S
C222 H216 0.930 . S
C222 C223 1.355 . S
C222 C224 1.415 . S
C223 C222 1.355 . S
C223 C225 1.419 . S
C224 C222 1.415 . S
C224 C229 1.425 . S
C224 C231 1.409 . S
C225 H217 0.930 . S
C225 C223 1.419 . S
C225 C226 1.362 . S
C226 H218 0.930 . S
C226 C225 1.362 . S
C226 C229 1.409 . S
C227 H219 0.930 . S
C227 C228 1.355 . S
C227 C229 1.415 . S
C228 C227 1.355 . S
C228 C230 1.419 . S
C229 C224 1.425 . S
C229 C226 1.409 . S
C229 C227 1.415 . S
C230 H220 0.930 . S
C230 C228 1.419 . S
C230 C231 1.362 . S
C231 H221 0.930 . S
C231 C224 1.409 . S
C231 C230 1.362 . S
H232 C238 0.930 . S
H233 C241 0.930 . S
H234 C242 0.930 . S
H235 C243 0.930 . S
H236 C246 0.930 . S
H237 C247 0.930 . S
C238 H232 0.930 . S
C238 C239 1.355 . S
C238 C240 1.415 . S
C239 C238 1.355 . S
C239 C241 1.419 . S
C240 C238 1.415 . S
C240 C245 1.425 . S
C240 C247 1.409 . S
C241 H233 0.930 . S
C241 C239 1.419 . S
C241 C242 1.362 . S
C242 H234 0.930 . S
C242 C241 1.362 . S
C242 C245 1.409 . S
C243 H235 0.930 . S
C243 C244 1.355 . S
C243 C245 1.415 . S
C244 C243 1.355 . S
C244 C246 1.419 . S
C245 C240 1.425 . S
C245 C242 1.409 . S
C245 C243 1.415 . S
C246 H236 0.930 . S
C246 C244 1.419 . S
C246 C247 1.362 . S
C247 H237 0.930 . S
C247 C240 1.409 . S
C247 C246 1.362 . S
H248 C254 0.930 . S
H249 C257 0.930 . S
H250 C258 0.930 . S
H251 C259 0.930 . S
H252 C262 0.930 . S
H253 C263 0.930 . S
C254 H248 0.930 . S
C254 C255 1.355 . S
C254 C256 1.415 . S
C255 C254 1.355 . S
C255 C257 1.419 . S
C256 C254 1.415 . S
C256 C261 1.425 . S
C256 C263 1.409 . S
C257 H249 0.930 . S
C257 C255 1.419 . S
C257 C258 1.362 . S
C258 H250 0.930 . S
C258 C257 1.362 . S
C258 C261 1.409 . S
C259 H251 0.930 . S
C259 C260 1.355 . S
C259 C261 1.415 . S
C260 C259 1.355 . S
C260 C262 1.419 . S
C261 C256 1.425 . S
C261 C258 1.409 . S
C261 C259 1.415 . S
C262 H252 0.930 . S
C262 C260 1.419 . S
C262 C263 1.362 . S
C263 H253 0.930 . S
C263 C256 1.409 . S
C263 C262 1.362 . S
H264 C270 0.930 . S
H265 C273 0.930 . S
H266 C274 0.930 . S
H267 C275 0.930 . S
H268 C278 0.930 . S
H269 C279 0.930 . S
C270 H264 0.930 . S
C270 C271 1.355 . S
C270 C272 1.415 . S
C271 C270 1.355 . S
C271 C273 1.419 . S
C272 C270 1.415 . S
C272 C277 1.425 . S
C272 C279 1.409 . S
C273 H265 0.930 . S
C273 C271 1.419 . S
C273 C274 1.362 . S
C274 H266 0.930 . S
C274 C273 1.362 . S
C274 C277 1.409 . S
C275 H267 0.930 . S
C275 C276 1.355 . S
C275 C277 1.415 . S
C276 C275 1.355 . S
C276 C278 1.419 . S
C277 C272 1.425 . S
C277 C274 1.409 . S
C277 C275 1.415 . S
C278 H268 0.930 . S
C278 C276 1.419 . S
C278 C279 1.362 . S
C279 H269 0.930 . S
C279 C272 1.409 . S
C279 C278 1.362 . S
H280 C286 0.930 . S
H281 C289 0.930 . S
H282 C290 0.930 . S
H283 C291 0.930 . S
H284 C294 0.930 . S
H285 C295 0.930 . S
C286 H280 0.930 . S
C286 C287 1.355 . S
C286 C288 1.415 . S
C287 C286 1.355 . S
C287 C289 1.419 . S
C288 C286 1.415 . S
C288 C293 1.425 . S
C288 C295 1.409 . S
C289 H281 0.930 . S
C289 C287 1.419 . S
C289 C290 1.362 . S
C290 H282 0.930 . S
C290 C289 1.362 . S
C290 C293 1.409 . S
C291 H283 0.930 . S
C291 C292 1.355 . S
C291 C293 1.415 . S
C292 C291 1.355 . S
C292 C294 1.419 . S
C293 C288 1.425 . S
C293 C290 1.409 . S
C293 C291 1.415 . S
C294 H284 0.930 . S
C294 C292 1.419 . S
C294 C295 1.362 . S
C295 H285 0.930 . S
C295 C288 1.409 . S
C295 C294 1.362 . S
H296 C302 0.930 . S
H297 C305 0.930 . S
H298 C306 0.930 . S
H299 C307 0.930 . S
H300 C310 0.930 . S
H301 C311 0.930 . S
C302 H296 0.930 . S
C302 C303 1.355 . S
C302 C304 1.415 . S
C303 C302 1.355 . S
C303 C305 1.419 . S
C304 C302 1.415 . S
C304 C309 1.425 . S
C304 C311 1.409 . S
C305 H297 0.930 . S
C305 C303 1.419 . S
C305 C306 1.362 . S
C306 H298 0.930 . S
C306 C305 1.362 . S
C306 C309 1.409 . S
C307 H299 0.930 . S
C307 C308 1.355 . S
C307 C309 1.415 . S
C308 C307 1.355 . S
C308 C310 1.419 . S
C309 C304 1.425 . S
C309 C306 1.409 . S
C309 C307 1.415 . S
C310 H300 0.930 . S
C310 C308 1.419 . S
C310 C311 1.362 . S
C311 H301 0.930 . S
C311 C304 1.409 . S
C311 C310 1.362 . S
H312 C318 0.930 . S
H313 C321 0.930 . S
H314 C322 0.930 . S
H315 C323 0.930 . S
H316 C326 0.930 . S
H317 C327 0.930 . S
C318 H312 0.930 . S
C318 C319 1.355 . S
C318 C320 1.415 . S
C319 C318 1.355 . S
C319 C321 1.419 . S
C320 C318 1.415 . S
C320 C325 1.425 . S
C320 C327 1.409 . S
C321 H313 0.930 . S
C321 C319 1.419 . S
C321 C322 1.362 . S
C322 H314 0.930 . S
C322 C321 1.362 . S
C322 C325 1.409 . S
C323 H315 0.930 . S
C323 C324 1.355 . S
C323 C325 1.415 . S
C324 C323 1.355 . S
C324 C326 1.419 . S
C325 C320 1.425 . S
C325 C322 1.409 . S
C325 C323 1.415 . S
C326 H316 0.930 . S
C326 C324 1.419 . S
C326 C327 1.362 . S
C327 H317 0.930 . S
C327 C320 1.409 . S
C327 C326 1.362 . S
H328 C334 0.930 . S
H329 C337 0.930 . S
H330 C338 0.930 . S
H331 C339 0.930 . S
H332 C342 0.930 . S
H333 C343 0.930 . S
C334 H328 0.930 . S
C334 C335 1.355 . S
C334 C336 1.415 . S
C335 C334 1.355 . S
C335 C337 1.419 . S
C336 C334 1.415 . S
C336 C341 1.425 . S
C336 C343 1.409 . S
C337 H329 0.930 . S
C337 C335 1.419 . S
C337 C338 1.362 . S
C338 H330 0.930 . S
C338 C337 1.362 . S
C338 C341 1.409 . S
C339 H331 0.930 . S
C339 C340 1.355 . S
C339 C341 1.415 . S
C340 C339 1.355 . S
C340 C342 1.419 . S
C341 C336 1.425 . S
C341 C338 1.409 . S
C341 C339 1.415 . S
C342 H332 0.930 . S
C342 C340 1.419 . S
C342 C343 1.362 . S
C343 H333 0.930 . S
C343 C336 1.409 . S
C343 C342 1.362 . S
H344 C350 0.930 . S
H345 C353 0.930 . S
H346 C354 0.930 . S
H347 C355 0.930 . S
H348 C358 0.930 . S
H349 C359 0.930 . S
C350 H344 0.930 . S
C350 C351 1.355 . S
C350 C352 1.415 . S
C351 C350 1.355 . S
C351 C353 1.419 . S
C352 C350 1.415 . S
C352 C357 1.425 . S
C352 C359 1.409 . S
C353 H345 0.930 . S
C353 C351 1.419 . S
C353 C354 1.362 . S
C354 H346 0.930 . S
C354 C353 1.362 . S
C354 C357 1.409 . S
C355 H347 0.930 . S
C355 C356 1.355 . S
C355 C357 1.415 . S
C356 C355 1.355 . S
C356 C358 1.419 . S
C357 C352 1.425 . S
C357 C354 1.409 . S
C357 C355 1.415 . S
C358 H348 0.930 . S
C358 C356 1.419 . S
C358 C359 1.362 . S
C359 H349 0.930 . S
C359 C352 1.409 . S
C359 C358 1.362 . S
H360 C366 0.930 . S
H361 C369 0.930 . S
H362 C370 0.930 . S
H363 C371 0.930 . S
H364 C374 0.930 . S
H365 C375 0.930 . S
C366 H360 0.930 . S
C366 C367 1.355 . S
C366 C368 1.415 . S
C367 C366 1.355 . S
C367 C369 1.419 . S
C368 C366 1.415 . S
C368 C373 1.425 . S
C368 C375 1.409 . S
C369 H361 0.930 . S
C369 C367 1.419 . S
C369 C370 1.362 . S
C370 H362 0.930 . S
C370 C369 1.362 . S
C370 C373 1.409 . S
C371 H363 0.930 . S
C371 C372 1.355 . S
C371 C373 1.415 . S
C372 C371 1.355 . S
C372 C374 1.419 . S
C373 C368 1.425 . S
C373 C370 1.409 . S
C373 C371 1.415 . S
C374 H364 0.930 . S
C374 C372 1.419 . S
C374 C375 1.362 . S
C375 H365 0.930 . S
C375 C368 1.409 . S
C375 C374 1.362 . S
H376 C382 0.930 . S
H377 C385 0.930 . S
H378 C386 0.930 . S
H379 C387 0.930 . S
H380 C390 0.930 . S
H381 C391 0.930 . S
C382 H376 0.930 . S
C382 C383 1.355 . S
C382 C384 1.415 . S
C383 C382 1.355 . S
C383 C385 1.419 . S
C384 C382 1.415 . S
C384 C389 1.425 . S
C384 C391 1.409 . S
C385 H377 0.930 . S
C385 C383 1.419 . S
C385 C386 1.362 . S
C386 H378 0.930 . S
C386 C385 1.362 . S
C386 C389 1.409 . S
C387 H379 0.930 . S
C387 C388 1.355 . S
C387 C389 1.415 . S
C388 C387 1.355 . S
C388 C390 1.419 . S
C389 C384 1.425 . S
C389 C386 1.409 . S
C389 C387 1.415 . S
C390 H380 0.930 . S
C390 C388 1.419 . S
C390 C391 1.362 . S
C391 H381 0.930 . S
C391 C384 1.409 . S
C391 C390 1.362 . S
H392 C398 0.930 . S
H393 C401 0.930 . S
H394 C402 0.930 . S
H395 C403 0.930 . S
H396 C406 0.930 . S
H397 C407 0.930 . S
C398 H392 0.930 . S
C398 C399 1.355 . S
C398 C400 1.415 . S
C399 C398 1.355 . S
C399 C401 1.419 . S
C400 C398 1.415 . S
C400 C405 1.425 . S
C400 C407 1.409 . S
C401 H393 0.930 . S
C401 C399 1.419 . S
C401 C402 1.362 . S
C402 H394 0.930 . S
C402 C401 1.362 . S
C402 C405 1.409 . S
C403 H395 0.930 . S
C403 C404 1.355 . S
C403 C405 1.415 . S
C404 C403 1.355 . S
C404 C406 1.419 . S
C405 C400 1.425 . S
C405 C402 1.409 . S
C405 C403 1.415 . S
C406 H396 0.930 . S
C406 C404 1.419 . S
C406 C407 1.362 . S
C407 H397 0.930 . S
C407 C400 1.409 . S
C407 C406 1.362 . S
H408 C414 0.930 . S
H409 C417 0.930 . S
H410 C418 0.930 . S
H411 C419 0.930 . S
H412 C422 0.930 . S
H413 C423 0.930 . S
C414 H408 0.930 . S
C414 C415 1.355 . S
C414 C416 1.415 . S
C415 C414 1.355 . S
C415 C417 1.419 . S
C416 C414 1.415 . S
C416 C421 1.425 . S
C416 C423 1.409 . S
C417 H409 0.930 . S
C417 C415 1.419 . S
C417 C418 1.362 . S
C418 H410 0.930 . S
C418 C417 1.362 . S
C418 C421 1.409 . S
C419 H411 0.930 . S
C419 C420 1.355 . S
C419 C421 1.415 . S
C420 C419 1.355 . S
C420 C422 1.419 . S
C421 C416 1.425 . S
C421 C418 1.409 . S
C421 C419 1.415 . S
C422 H412 0.930 . S
C422 C420 1.419 . S
C422 C423 1.362 . S
C423 H413 0.930 . S
C423 C416 1.409 . S
C423 C422 1.362 . S
H424 C430 0.930 . S
H425 C433 0.930 . S
H426 C434 0.930 . S
H427 C435 0.930 . S
H428 C438 0.930 . S
H429 C439 0.930 . S
C430 H424 0.930 . S
C430 C431 1.355 . S
C430 C432 1.415 . S
C431 C430 1.355 . S
C431 C433 1.419 . S
C432 C430 1.415 . S
C432 C437 1.425 . S
C432 C439 1.409 . S
C433 H425 0.930 . S
C433 C431 1.419 . S
C433 C434 1.362 . S
C434 H426 0.930 . S
C434 C433 1.362 . S
C434 C437 1.409 . S
C435 H427 0.930 . S
C435 C436 1.355 . S
C435 C437 1.415 . S
C436 C435 1.355 . S
C436 C438 1.419 . S
C437 C432 1.425 . S
C437 C434 1.409 . S
C437 C435 1.415 . S
C438 H428 0.930 . S
C438 C436 1.419 . S
C438 C439 1.362 . S
C439 H429 0.930 . S
C439 C432 1.409 . S
C439 C438 1.362 . S
H440 C446 0.930 . S
H441 C449 0.930 . S
H442 C450 0.930 . S
H443 C451 0.930 . S
H444 C454 0.930 . S
H445 C455 0.930 . S
C446 H440 0.930 . S
C446 C447 1.355 1_556 S
C446 C448 1.415 . S
C447 C446 1.355 1_554 S
C447 C449 1.419 . S
C448 C446 1.415 . S
C448 C453 1.425 1_556 S
C448 C455 1.409 . S
C449 H441 0.930 . S
C449 C447 1.419 . S
C449 C450 1.362 . S
C450 H442 0.930 . S
C450 C449 1.362 . S
C450 C453 1.409 . S
C451 H443 0.930 . S
C451 C452 1.355 . S
C451 C453 1.415 . S
C452 C451 1.355 . S
C452 C454 1.419 1_554 S
C453 C448 1.425 1_554 S
C453 C450 1.409 . S
C453 C451 1.415 . S
C454 H444 0.930 . S
C454 C452 1.419 1_556 S
C454 C455 1.362 . S
C455 H445 0.930 . S
C455 C448 1.409 . S
C455 C454 1.362 . S
H456 C462 0.930 . S
H457 C465 0.930 . S
H458 C466 0.930 . S
H459 C467 0.930 . S
H460 C470 0.930 . S
H461 C471 0.930 . S
C462 H456 0.930 . S
C462 C463 1.355 . S
C462 C464 1.415 . S
C463 C462 1.355 . S
C463 C465 1.419 . S
C464 C462 1.415 . S
C464 C469 1.425 . S
C464 C471 1.409 . S
C465 H457 0.930 . S
C465 C463 1.419 . S
C465 C466 1.362 . S
C466 H458 0.930 . S
C466 C465 1.362 . S
C466 C469 1.409 . S
C467 H459 0.930 . S
C467 C468 1.355 . S
C467 C469 1.415 . S
C468 C467 1.355 . S
C468 C470 1.419 . S
C469 C464 1.425 . S
C469 C466 1.409 . S
C469 C467 1.415 . S
C470 H460 0.930 . S
C470 C468 1.419 . S
C470 C471 1.362 . S
C471 H461 0.930 . S
C471 C464 1.409 . S
C471 C470 1.362 . S
H472 C478 0.930 1_556 S
H473 C481 0.930 . S
H474 C482 0.930 . S
H475 C483 0.930 . S
H476 C486 0.930 1_556 S
H477 C487 0.929 1_556 S
C478 H472 0.930 1_554 S
C478 C479 1.355 . S
C478 C480 1.415 . S
C479 C478 1.355 . S
C479 C481 1.419 . S
C480 C478 1.415 . S
C480 C485 1.425 . S
C480 C487 1.409 . S
C481 H473 0.930 . S
C481 C479 1.419 . S
C481 C482 1.362 . S
C482 H474 0.930 . S
C482 C481 1.362 . S
C482 C485 1.409 . S
C483 H475 0.930 . S
C483 C484 1.355 . S
C483 C485 1.415 . S
C484 C483 1.355 . S
C484 C486 1.419 . S
C485 C480 1.425 . S
C485 C482 1.409 . S
C485 C483 1.415 . S
C486 H476 0.930 1_554 S
C486 C484 1.419 . S
C486 C487 1.362 . S
C487 H477 0.929 1_554 S
C487 C480 1.409 . S
C487 C486 1.362 . S
H488 C494 0.930 . S
H489 C497 0.930 . S
H490 C498 0.930 . S
H491 C499 0.930 . S
H492 C502 0.930 . S
H493 C503 0.930 . S
C494 H488 0.930 . S
C494 C495 1.355 . S
C494 C496 1.415 . S
C495 C494 1.355 . S
C495 C497 1.419 . S
C496 C494 1.415 . S
C496 C501 1.425 . S
C496 C503 1.409 . S
C497 H489 0.930 . S
C497 C495 1.419 . S
C497 C498 1.362 . S
C498 H490 0.930 . S
C498 C497 1.362 . S
C498 C501 1.409 . S
C499 H491 0.930 . S
C499 C500 1.355 . S
C499 C501 1.415 . S
C500 C499 1.355 . S
C500 C502 1.419 . S
C501 C496 1.425 . S
C501 C498 1.409 . S
C501 C499 1.415 . S
C502 H492 0.930 . S
C502 C500 1.419 . S
C502 C503 1.362 . S
C503 H493 0.930 . S
C503 C496 1.409 . S
C503 C502 1.362 . S
H504 C510 0.930 . S
H505 C513 0.930 . S
H506 C514 0.930 . S
H507 C515 0.930 . S
H508 C518 0.930 . S
H509 C519 0.930 . S
C510 H504 0.930 . S
C510 C511 1.355 . S
C510 C512 1.415 . S
C511 C510 1.355 . S
C511 C513 1.419 . S
C512 C510 1.415 . S
C512 C517 1.425 . S
C512 C519 1.409 . S
C513 H505 0.930 . S
C513 C511 1.419 . S
C513 C514 1.362 . S
C514 H506 0.930 . S
C514 C513 1.362 . S
C514 C517 1.409 . S
C515 H507 0.930 . S
C515 C516 1.355 . S
C515 C517 1.415 . S
C516 C515 1.355 . S
C516 C518 1.419 . S
C517 C512 1.425 . S
C517 C514 1.409 . S
C517 C515 1.415 . S
C518 H508 0.930 . S
C518 C516 1.419 . S
C518 C519 1.362 . S
C519 H509 0.930 . S
C519 C512 1.409 . S
C519 C518 1.362 . S
H520 C526 0.930 . S
H521 C529 0.930 . S
H522 C530 0.930 . S
H523 C531 0.930 . S
H524 C534 0.930 . S
H525 C535 0.930 . S
C526 H520 0.930 . S
C526 C527 1.355 1_556 S
C526 C528 1.415 . S
C527 C526 1.355 1_554 S
C527 C529 1.419 . S
C528 C526 1.415 . S
C528 C533 1.425 1_556 S
C528 C535 1.409 . S
C529 H521 0.930 . S
C529 C527 1.419 . S
C529 C530 1.362 . S
C530 H522 0.930 . S
C530 C529 1.362 . S
C530 C533 1.409 . S
C531 H523 0.930 . S
C531 C532 1.355 . S
C531 C533 1.415 . S
C532 C531 1.355 . S
C532 C534 1.419 1_554 S
C533 C528 1.425 1_554 S
C533 C530 1.409 . S
C533 C531 1.415 . S
C534 H524 0.930 . S
C534 C532 1.419 1_556 S
C534 C535 1.362 . S
C535 H525 0.930 . S
C535 C528 1.409 . S
C535 C534 1.362 . S
H536 C542 0.930 . S
H537 C545 0.930 . S
H538 C546 0.930 . S
H539 C547 0.930 . S
H540 C550 0.930 . S
H541 C551 0.930 . S
C542 H536 0.930 . S
C542 C543 1.355 . S
C542 C544 1.415 . S
C543 C542 1.355 . S
C543 C545 1.419 . S
C544 C542 1.415 . S
C544 C549 1.425 . S
C544 C551 1.409 . S
C545 H537 0.930 . S
C545 C543 1.419 . S
C545 C546 1.362 . S
C546 H538 0.930 . S
C546 C545 1.362 . S
C546 C549 1.409 . S
C547 H539 0.930 . S
C547 C548 1.355 . S
C547 C549 1.415 . S
C548 C547 1.355 . S
C548 C550 1.419 . S
C549 C544 1.425 . S
C549 C546 1.409 . S
C549 C547 1.415 . S
C550 H540 0.930 . S
C550 C548 1.419 . S
C550 C551 1.362 . S
C551 H541 0.930 . S
C551 C544 1.409 . S
C551 C550 1.362 . S
H552 C558 0.930 . S
H553 C561 0.930 . S
H554 C562 0.930 . S
H555 C563 0.930 . S
H556 C566 0.930 . S
H557 C567 0.930 . S
C558 H552 0.930 . S
C558 C559 1.355 1_556 S
C558 C560 1.415 . S
C559 C558 1.355 1_554 S
C559 C561 1.419 . S
C560 C558 1.415 . S
C560 C565 1.425 1_556 S
C560 C567 1.409 . S
C561 H553 0.930 . S
C561 C559 1.419 . S
C561 C562 1.362 . S
C562 H554 0.930 . S
C562 C561 1.362 . S
C562 C565 1.409 . S
C563 H555 0.930 . S
C563 C564 1.355 . S
C563 C565 1.415 . S
C564 C563 1.355 . S
C564 C566 1.419 1_554 S
C565 C560 1.425 1_554 S
C565 C562 1.409 . S
C565 C563 1.415 . S
C566 H556 0.930 . S
C566 C564 1.419 1_556 S
C566 C567 1.362 . S
C567 H557 0.930 . S
C567 C560 1.409 . S
C567 C566 1.362 . S
C191 C5 1.450 . S
C196 C130 1.467 . S
C207 C31 1.469 . S
C212 C94 1.465 . S
C228 C109 1.444 . S
C223 C53 1.501 . S
C239 C71 1.466 . S
C244 C121 1.468 . S
C260 C157 1.430 . S
C255 C75 1.491 . S
C276 C169 1.442 . S
C271 C9 1.502 . S
C292 C178 1.480 . S
C287 C27 1.447 . S
C308 C142 1.448 . S
C303 C49 1.470 . S
C319 C51 1.460 . S
C324 C106 1.441 . S
C335 C72 1.447 . S
C340 C118 1.483 . S
C351 C6 1.486 . S
C356 C133 1.481 . S
C372 C97 1.487 . S
C367 C29 1.454 . S
C383 C28 1.447 . S
C388 C181 1.486 . S
C404 C145 1.458 . S
C399 C50 1.502 . S
C420 C154 1.483 . S
C415 C73 1.442 . S
C431 C7 1.470 . S
C436 C166 1.436 . S
C452 C92 1.503 . S
C447 C4 1.507 . S
C468 C104 1.499 . S
C463 C30 1.486 . S
C479 C52 1.481 . S
C484 C116 1.513 . S
C495 C70 1.498 . S
C500 C128 1.511 . S
C516 C140 1.486 . S
C511 C74 1.516 . S
C527 C8 1.516 . S
C532 C152 1.501 . S
C543 C26 1.485 . S
C548 C164 1.517 . S
C559 C48 1.487 . S
C564 C176 1.498 . S
