# Generated by pormake.
# Topology pyr, (3,6)-cn, num edge types: 1
# Building blocks:
#     Node 0, Type 0, BuildingBlock: CUQRIR_clean_linker_1, # of connection points: 3
#     Node 1, Type 0, BuildingBlock: CUQRIR_clean_linker_1, # of connection points: 3
#     Node 2, Type 0, BuildingBlock: CUQRIR_clean_linker_1, # of connection points: 3
#     Node 3, Type 0, BuildingBlock: CUQRIR_clean_linker_1, # of connection points: 3
#     Node 4, Type 0, BuildingBlock: CUQRIR_clean_linker_1, # of connection points: 3
#     Node 5, Type 0, BuildingBlock: CUQRIR_clean_linker_1, # of connection points: 3
#     Node 6, Type 0, BuildingBlock: CUQRIR_clean_linker_1, # of connection points: 3
#     Node 7, Type 0, BuildingBlock: CUQRIR_clean_linker_1, # of connection points: 3
#     Node 8, Type 1, BuildingBlock: BETDEL_clean_sbu_0, # of connection points: 6
#     Node 9, Type 1, BuildingBlock: BETDEL_clean_sbu_0, # of connection points: 6
#     Node 10, Type 1, BuildingBlock: BETDEL_clean_sbu_0, # of connection points: 6
#     Node 11, Type 1, BuildingBlock: BETDEL_clean_sbu_0, # of connection points: 6
#     Edge 12, Type (0, 1), BuildingBlock: EZIPEK_clean_linker_0, # of connection points: 2
#     Edge 13, Type (0, 1), BuildingBlock: EZIPEK_clean_linker_0, # of connection points: 2
#     Edge 14, Type (0, 1), BuildingBlock: EZIPEK_clean_linker_0, # of connection points: 2
#     Edge 15, Type (0, 1), BuildingBlock: EZIPEK_clean_linker_0, # of connection points: 2
#     Edge 16, Type (0, 1), BuildingBlock: EZIPEK_clean_linker_0, # of connection points: 2
#     Edge 17, Type (0, 1), BuildingBlock: EZIPEK_clean_linker_0, # of connection points: 2
#     Edge 18, Type (0, 1), BuildingBlock: EZIPEK_clean_linker_0, # of connection points: 2
#     Edge 19, Type (0, 1), BuildingBlock: EZIPEK_clean_linker_0, # of connection points: 2
#     Edge 20, Type (0, 1), BuildingBlock: EZIPEK_clean_linker_0, # of connection points: 2
#     Edge 21, Type (0, 1), BuildingBlock: EZIPEK_clean_linker_0, # of connection points: 2
#     Edge 22, Type (0, 1), BuildingBlock: EZIPEK_clean_linker_0, # of connection points: 2
#     Edge 23, Type (0, 1), BuildingBlock: EZIPEK_clean_linker_0, # of connection points: 2
#     Edge 24, Type (0, 1), BuildingBlock: EZIPEK_clean_linker_0, # of connection points: 2
#     Edge 25, Type (0, 1), BuildingBlock: EZIPEK_clean_linker_0, # of connection points: 2
#     Edge 26, Type (0, 1), BuildingBlock: EZIPEK_clean_linker_0, # of connection points: 2
#     Edge 27, Type (0, 1), BuildingBlock: EZIPEK_clean_linker_0, # of connection points: 2
#     Edge 28, Type (0, 1), BuildingBlock: EZIPEK_clean_linker_0, # of connection points: 2
#     Edge 29, Type (0, 1), BuildingBlock: EZIPEK_clean_linker_0, # of connection points: 2
#     Edge 30, Type (0, 1), BuildingBlock: EZIPEK_clean_linker_0, # of connection points: 2
#     Edge 31, Type (0, 1), BuildingBlock: EZIPEK_clean_linker_0, # of connection points: 2
#     Edge 32, Type (0, 1), BuildingBlock: EZIPEK_clean_linker_0, # of connection points: 2
#     Edge 33, Type (0, 1), BuildingBlock: EZIPEK_clean_linker_0, # of connection points: 2
#     Edge 34, Type (0, 1), BuildingBlock: EZIPEK_clean_linker_0, # of connection points: 2
#     Edge 35, Type (0, 1), BuildingBlock: EZIPEK_clean_linker_0, # of connection points: 2
# Relax obj value: 0.118
# Max RMSD: 0.234
# Mean RMSD: 0.156
data_MOF--net-pyr--node1-BETDEL_clean_sbu_0--node2-CUQRIR_clean_linker_1--edge1-EZIPEK_clean_linker_0
_symmetry_space_group_name_H-M    P1
_symmetry_Int_Tables_number       1
_symmetry_cell_setting            triclinic
loop_
_symmetry_equiv_pos_as_xyz
'x, y, z'
_cell_length_a     23.82741
_cell_length_b     24.840539
_cell_length_c     22.675071
_cell_angle_alpha  89.517787
_cell_angle_beta   90.732126
_cell_angle_gamma 100.20451
loop_
_atom_site_label
_atom_site_type_symbol
_atom_site_fract_x
_atom_site_fract_y
_atom_site_fract_z
_atom_type_partial_charge
C0 C 0.2194 0.2784 0.2216 0.0
N1 N 0.25628 0.24344 0.21798 0.0
N2 N 0.23525 0.32183 0.18569 0.0
C3 C 0.16464 0.26736 0.25556 0.0
C4 C 0.28437 0.3128 0.16131 0.0
N5 N 0.29696 0.26446 0.18062 0.0
C6 C 0.31678 0.34901 0.11524 0.0
H7 H 0.13216 0.23938 0.22967 0.0
H8 H 0.14842 0.30581 0.26377 0.0
H9 H 0.17108 0.247 0.29824 0.0
H10 H 0.32646 0.39164 0.13162 0.0
H11 H 0.28968 0.34919 0.07509 0.0
H12 H 0.35705 0.33519 0.10377 0.0
C13 C 0.28384 0.84168 0.66026 0.0
N14 N 0.27569 0.89003 0.68338 0.0
N15 N 0.3213 0.81919 0.69343 0.0
C16 C 0.25805 0.81754 0.60332 0.0
C17 C 0.33438 0.85391 0.73883 0.0
N18 N 0.30681 0.89687 0.73327 0.0
C19 C 0.37788 0.84819 0.78639 0.0
H20 H 0.2199 0.83491 0.59021 0.0
H21 H 0.24577 0.77252 0.60778 0.0
H22 H 0.2903 0.82573 0.56801 0.0
H23 H 0.41187 0.88505 0.78639 0.0
H24 H 0.39731 0.81125 0.78049 0.0
H25 H 0.35746 0.84542 0.83021 0.0
C26 C 0.61112 0.35086 0.84258 0.0
N27 N 0.64437 0.3445 0.8904 0.0
N28 N 0.62545 0.40159 0.81923 0.0
C29 C 0.56306 0.30828 0.82001 0.0
C30 C 0.66849 0.42625 0.85416 0.0
N31 N 0.68063 0.39182 0.89736 0.0
C32 C 0.70095 0.48314 0.84369 0.0
H33 H 0.57194 0.26654 0.82862 0.0
H34 H 0.55594 0.31387 0.77206 0.0
H35 H 0.52345 0.31257 0.84332 0.0
H36 H 0.67244 0.50977 0.82471 0.0
H37 H 0.73528 0.48123 0.81157 0.0
H38 H 0.72066 0.50133 0.88519 0.0
C39 C 0.84193 0.66446 0.33739 0.0
N40 N 0.88723 0.7007 0.31657 0.0
N41 N 0.80747 0.68937 0.37092 0.0
C42 C 0.83071 0.60439 0.3233 0.0
C43 C 0.83359 0.7424 0.36996 0.0
N44 N 0.88325 0.7498 0.33909 0.0
C45 C 0.81097 0.78762 0.4004 0.0
H46 H 0.8093 0.59812 0.27954 0.0
H47 H 0.80296 0.5806 0.35682 0.0
H48 H 0.87152 0.58888 0.321 0.0
H49 H 0.82545 0.78977 0.44713 0.0
H50 H 0.76364 0.77959 0.39961 0.0
H51 H 0.827 0.82763 0.37896 0.0
C52 C 0.77335 0.85593 0.89957 0.0
N53 N 0.81844 0.85531 0.86442 0.0
N54 N 0.74548 0.89619 0.88257 0.0
C55 C 0.75961 0.82025 0.95323 0.0
C56 C 0.77503 0.92029 0.83625 0.0
N57 N 0.82042 0.89626 0.82581 0.0
C58 C 0.76096 0.96929 0.80366 0.0
H59 H 0.74519 0.77731 0.93922 0.0
H60 H 0.7257 0.83317 0.97994 0.0
H61 H 0.79866 0.82141 0.98074 0.0
H62 H 0.77889 1.0069 0.82837 0.0
H63 H 0.71404 0.96678 0.80075 0.0
H64 H 0.77907 0.97236 0.75866 0.0
C65 C 0.79455 0.27095 0.43093 0.0
N66 N 0.80837 0.22683 0.40267 0.0
N67 N 0.74552 0.28399 0.40829 0.0
C68 C 0.82807 0.30085 0.48074 0.0
C69 C 0.72997 0.24696 0.36566 0.0
N70 N 0.76815 0.21308 0.36132 0.0
C71 C 0.67764 0.2449 0.32689 0.0
H72 H 0.80754 0.28649 0.52303 0.0
H73 H 0.82784 0.34537 0.47671 0.0
H74 H 0.87261 0.2933 0.48148 0.0
H75 H 0.68869 0.27232 0.2883 0.0
H76 H 0.64285 0.25921 0.35093 0.0
H77 H 0.66184 0.2029 0.31064 0.0
C78 C 0.33951 0.68162 0.18287 0.0
N79 N 0.38382 0.71281 0.21192 0.0
N80 N 0.30863 0.71311 0.15226 0.0
C81 C 0.32335 0.62044 0.18819 0.0
C82 C 0.33485 0.76453 0.16277 0.0
N83 N 0.38087 0.765 0.1985 0.0
C84 C 0.31775 0.81455 0.13458 0.0
H85 H 0.3056 0.60262 0.14576 0.0
H86 H 0.28978 0.61037 0.222 0.0
H87 H 0.36064 0.6018 0.20151 0.0
H88 H 0.27263 0.80668 0.11948 0.0
H89 H 0.3449 0.82681 0.09565 0.0
H90 H 0.32422 0.84914 0.166 0.0
C91 C 0.12956 0.37037 0.71307 0.0
N92 N 0.16625 0.36132 0.67022 0.0
N93 N 0.1453 0.42059 0.73741 0.0
C94 C 0.07715 0.33042 0.73011 0.0
C95 C 0.19329 0.44213 0.70754 0.0
N96 N 0.20641 0.40657 0.66653 0.0
C97 C 0.22772 0.49803 0.71831 0.0
H98 H 0.06087 0.34062 0.77348 0.0
H99 H 0.08645 0.28822 0.73171 0.0
H100 H 0.04348 0.33157 0.69609 0.0
H101 H 0.27087 0.49385 0.73458 0.0
H102 H 0.20737 0.52122 0.75095 0.0
H103 H 0.23314 0.52133 0.67623 0.0
Dy104 Dy 0.09217 0.06229 0.45361 0.0
C105 C 0.9702 0.99071 0.64671 0.0
C106 C 0.15355 0.08005 0.35342 0.0
Dy107 Dy 0.02296 0.03021 0.5459 0.0
O108 O 0.15451 0.03951 0.38906 0.0
O109 O 0.11851 0.11044 0.37189 0.0
O110 O 0.16895 0.06679 0.51311 0.0
O111 O 0.10087 1.00193 0.52417 0.0
C112 C 0.14934 0.02367 0.54379 0.0
C113 C 0.96528 0.08137 0.46528 0.0
O114 O 0.07039 0.1116 0.58307 0.0
O115 O 0.11083 0.14501 0.49572 0.0
O116 O 0.94825 0.984 0.59435 0.0
O117 O 0.0206 1.02023 0.64461 0.0
O118 O 0.94452 0.03653 0.4927 0.0
O119 O 0.01684 0.09589 0.48066 0.0
O120 O 0.02861 0.99365 0.41198 0.0
O121 O 0.02268 0.9502 0.49872 0.0
C122 C 0.10064 0.15217 0.55198 0.0
C123 C 0.01396 0.94735 0.44122 0.0
Dy124 Dy 0.56139 0.0716 0.11441 0.0
C125 C 0.39919 1.01494 0.92959 0.0
C126 C 0.65832 0.10711 0.17743 0.0
Dy127 Dy 0.47599 0.04922 0.01853 0.0
O128 O 0.61438 0.13165 0.17544 0.0
O129 O 0.64973 0.06422 0.14454 0.0
O130 O 0.5351 1.00769 0.18191 0.0
O131 O 0.48781 1.00418 0.10151 0.0
C132 C 0.49562 0.97944 0.14979 0.0
C133 C 0.54336 0.14926 1.01089 0.0
O134 O 0.42341 0.07063 0.09164 0.0
O135 O 0.49952 0.12822 0.13187 0.0
O136 O 0.4198 0.06525 0.94199 0.0
O137 O 0.41929 0.98288 0.96678 0.0
O138 O 0.4895 0.13917 0.99871 0.0
O139 O 0.55953 0.10511 0.02532 0.0
O140 O 0.60632 0.02472 0.05336 0.0
O141 O 0.54048 1.00882 0.9771 0.0
C142 C 0.4439 0.11472 0.12198 0.0
C143 C 0.58952 1.00379 1.00153 0.0
Dy144 Dy 0.51537 0.49341 0.47121 0.0
C145 C 0.44179 0.65757 0.60784 0.0
C146 C 0.58987 0.43288 0.42659 0.0
Dy147 Dy 0.48934 0.58867 0.53974 0.0
O148 O 0.5346 0.4221 0.41781 0.0
O149 O 0.60342 0.47717 0.45688 0.0
O150 O 0.44803 0.43158 0.51428 0.0
O151 O 0.43548 0.51295 0.5075 0.0
C152 C 0.41717 0.46658 0.53176 0.0
C153 C 0.58962 0.60894 0.48067 0.0
O154 O 0.52507 0.54729 0.61521 0.0
O155 O 0.54284 0.47269 0.56262 0.0
O156 O 0.47276 0.67175 0.56182 0.0
O157 O 0.43877 0.60573 0.61855 0.0
O158 O 0.55972 0.64614 0.49299 0.0
O159 O 0.56824 0.56564 0.50768 0.0
O160 O 0.48715 0.5477 0.39771 0.0
O161 O 0.44095 0.60016 0.45797 0.0
C162 C 0.54253 0.49987 0.61254 0.0
C163 C 0.45559 0.58662 0.405 0.0
Dy164 Dy 0.01227 0.52104 0.05893 0.0
C165 C 0.94135 0.68921 0.9266 0.0
C166 C 0.07258 0.45145 0.11184 0.0
Dy167 Dy 0.98104 0.60373 0.97541 0.0
O168 O 0.05574 0.49169 0.13827 0.0
O169 O 0.05336 0.4472 0.05812 0.0
O170 O 0.9489 0.53948 0.12488 0.0
O171 O 0.9912 0.60338 0.07271 0.0
C172 C 0.95417 0.59149 0.113 0.0
C173 C 0.02872 0.53416 0.90834 0.0
O174 O 0.06245 0.65166 1.00975 0.0
O175 O 0.09481 0.57805 0.05274 0.0
O176 O 0.99254 0.67962 0.91975 0.0
O177 O 0.91148 0.65188 0.95939 0.0
O178 O 1.00917 0.57612 0.88799 0.0
O179 O 0.02124 0.53182 0.96375 0.0
O180 O 0.93314 0.4701 0.02394 0.0
O181 O 0.89894 0.54295 0.9807 0.0
C182 C 0.10269 0.6295 0.0357 0.0
C183 C 0.89262 0.49078 0.99656 0.0
C184 C 0.26712 0.18355 0.30217 0.0
C185 C 0.24742 0.18971 0.24389 0.0
C186 C 0.1815 0.10257 0.25138 0.0
C187 C 0.19793 0.09995 0.31088 0.0
N188 N 0.27009 0.12276 0.38577 0.0
N189 N 0.19458 0.1514 0.1585 0.0
C190 C 0.24658 0.13471 0.33316 0.0
C191 C 0.20844 0.14705 0.21651 0.0
N192 N 0.29959 0.22683 0.33013 0.0
N193 N 0.13728 0.0647 0.23036 0.0
H194 H 0.21086 0.18577 0.13393 0.0
H195 H 0.16955 0.12055 0.13427 0.0
H196 H 0.11894 0.03109 0.2559 0.0
H197 H 0.11842 0.06655 0.18894 0.0
H198 H 0.31063 0.22648 0.3747 0.0
H199 H 0.31072 0.26499 0.30998 0.0
H200 H 0.30797 0.14512 0.40258 0.0
H201 H 0.25459 0.08695 0.40913 0.0
C202 C 0.29048 0.92662 0.83377 0.0
C203 C 0.3125 0.9401 0.77643 0.0
C204 C 0.38605 1.01127 0.81913 0.0
C205 C 0.36461 0.99645 0.87632 0.0
N206 N 0.28648 0.95331 0.93602 0.0
N207 N 0.37167 1.00381 0.71346 0.0
C208 C 0.31309 0.9589 0.88276 0.0
C209 C 0.35625 0.98621 0.7689 0.0
N210 N 0.25295 0.87896 0.8425 0.0
N211 N 0.43745 0.04533 0.8127 0.0
H212 H 0.35284 0.98397 0.67635 0.0
H213 H 0.39903 0.04042 0.70441 0.0
H214 H 0.46168 0.06399 0.84784 0.0
H215 H 0.45861 0.05202 0.77271 0.0
H216 H 0.24049 0.86363 0.88412 0.0
H217 H 0.23863 0.85188 0.80844 0.0
H218 H 0.24608 0.92996 0.94199 0.0
H219 H 0.30241 0.97652 0.97268 0.0
C220 C 0.63181 0.42461 0.71333 0.0
C221 C 0.60267 0.42411 0.7672 0.0
C222 C 0.53149 0.47076 0.71977 0.0
C223 C 0.564 0.47608 0.66702 0.0
N224 N 0.65258 0.46933 0.61905 0.0
N225 N 0.53007 0.4528 0.82528 0.0
C226 C 0.61624 0.45596 0.6652 0.0
C227 C 0.55401 0.44906 0.77144 0.0
N228 N 0.67396 0.39433 0.70812 0.0
N229 N 0.47814 0.48389 0.72008 0.0
H230 H 0.54512 0.43603 0.8634 0.0
H231 H 0.49838 0.47581 0.83289 0.0
H232 H 0.45911 0.49878 0.68327 0.0
H233 H 0.45035 0.47514 0.75533 0.0
H234 H 0.69323 0.38859 0.66822 0.0
H235 H 0.68546 0.37048 0.74271 0.0
H236 H 0.69339 0.45977 0.61809 0.0
H237 H 0.64477 0.49534 0.58475 0.0
C238 C 0.88259 0.68861 0.20732 0.0
C239 C 0.91457 0.6901 0.26115 0.0
C240 C 0.98034 0.6378 0.21246 0.0
C241 C 0.94461 0.63109 0.16106 0.0
N242 N 0.86836 0.65864 0.10496 0.0
N243 N 0.99425 0.66786 0.31483 0.0
C244 C 0.89798 0.65958 0.15707 0.0
C245 C 0.96433 0.66611 0.26299 0.0
N246 N 0.83485 0.71201 0.20609 0.0
N247 N 0.03016 0.6177 0.21245 0.0
H248 H 0.98435 0.69026 0.35074 0.0
H249 H 0.02731 0.64647 0.32315 0.0
H250 H 0.04314 0.59734 0.17643 0.0
H251 H 0.06089 0.62457 0.24581 0.0
H252 H 0.80513 0.70804 0.17175 0.0
H253 H 0.82402 0.73501 0.24104 0.0
H254 H 0.83691 0.6818 0.09603 0.0
H255 H 0.87752 0.63633 0.06868 0.0
C256 C 0.33325 0.20858 0.105 0.0
C257 C 0.34018 0.23558 0.15983 0.0
C258 C 0.41199 0.18188 0.19056 0.0
C259 C 0.40609 0.15463 0.13545 0.0
N260 N 0.36925 0.15241 0.03439 0.0
N261 N 0.40011 0.26348 0.24323 0.0
C262 C 0.36907 0.17081 0.09095 0.0
C263 C 0.38403 0.22698 0.19905 0.0
N264 N 0.29138 0.21787 0.06655 0.0
N265 N 0.44191 0.16324 0.23583 0.0
H266 H 0.38225 0.29877 0.24694 0.0
H267 H 0.43498 0.26207 0.27105 0.0
H268 H 0.46048 0.1284 0.23257 0.0
H269 H 0.44301 0.17892 0.2784 0.0
H270 H 0.27784 0.19312 0.03042 0.0
H271 H 0.26698 0.24802 0.07287 0.0
H272 H 0.3513 0.17041 0.99885 0.0
H273 H 0.38984 0.1215 0.0211 0.0
C274 C 0.26758 0.94764 0.59432 0.0
C275 C 0.24876 0.93028 0.65197 0.0
C276 C 0.17433 0.98638 0.64238 0.0
C277 C 0.18611 0.9946 0.58158 0.0
N278 N 0.2409 0.97668 0.49741 0.0
N279 N 0.17569 0.92494 0.72505 0.0
C280 C 0.2322 0.97381 0.55688 0.0
C281 C 0.2 0.94778 0.67472 0.0
N282 N 0.31953 0.93938 0.57539 0.0
N283 N 0.1403 1.0168 0.66987 0.0
H284 H 0.19047 0.89295 0.74626 0.0
H285 H 0.13722 0.93311 0.74098 0.0
H286 H 0.12504 0.04847 0.64814 0.0
H287 H 0.13367 1.01515 0.71526 0.0
H288 H 0.33778 0.95581 0.53622 0.0
H289 H 0.3469 0.92089 0.60172 0.0
H290 H 0.26998 0.95674 0.47645 0.0
H291 H 0.21553 0.9947 0.46824 0.0
C292 C 0.73523 0.42648 0.98711 0.0
C293 C 0.73365 0.4014 0.93095 0.0
C294 C 0.83847 0.42177 0.92813 0.0
C295 C 0.83912 0.45384 0.97946 0.0
N296 N 0.79019 0.48537 0.06073 0.0
N297 N 0.78376 0.38208 0.84407 0.0
C298 C 0.78805 0.45519 1.01032 0.0
C299 C 0.78546 0.39987 0.901 0.0
N300 N 0.6856 0.42447 0.01685 0.0
N301 N 0.8886 0.413 0.90457 0.0
H302 H 0.7459 0.3656 0.82244 0.0
H303 H 0.81925 0.38713 0.8169 0.0
H304 H 0.92845 0.42972 0.92217 0.0
H305 H 0.89059 0.38537 0.87069 0.0
H306 H 0.68287 0.43813 0.05976 0.0
H307 H 0.64676 0.4059 0.99906 0.0
H308 H 0.75453 0.49277 0.0831 0.0
H309 H 0.82854 0.50471 0.07974 0.0
C310 C 0.70707 0.6396 0.36621 0.0
C311 C 0.75441 0.66545 0.39997 0.0
C312 C 0.695 0.65074 0.48921 0.0
C313 C 0.64887 0.62167 0.45549 0.0
N314 N 0.62087 0.57224 0.3657 0.0
N315 N 0.79729 0.68285 0.49605 0.0
C316 C 0.65803 0.61093 0.39522 0.0
C317 C 0.74948 0.66733 0.46235 0.0
N318 N 0.70767 0.6445 0.30624 0.0
N319 N 0.68689 0.66265 0.54682 0.0
H320 H 0.83758 0.69278 0.47755 0.0
H321 H 0.79771 0.68062 0.54193 0.0
H322 H 0.64888 0.64833 0.56876 0.0
H323 H 0.71678 0.68899 0.57173 0.0
H324 H 0.67204 0.63073 0.27973 0.0
H325 H 0.74174 0.66749 0.28378 0.0
H326 H 0.62779 0.56002 0.32294 0.0
H327 H 0.58609 0.54901 0.38632 0.0
C328 C 0.20548 0.41177 0.18158 0.0
C329 C 0.19764 0.35669 0.16379 0.0
C330 C 0.10356 0.36236 0.1237 0.0
C331 C 0.11372 0.41906 0.13532 0.0
N332 N 0.18038 0.50058 0.16392 0.0
N333 N 0.14618 0.2833 0.10538 0.0
C334 C 0.16624 0.44485 0.16146 0.0
C335 C 0.14878 0.33321 0.13078 0.0
N336 N 0.24985 0.43197 0.21837 0.0
N337 N 0.05025 0.33593 0.10788 0.0
H338 H 0.17991 0.26205 0.10823 0.0
H339 H 0.11368 0.26619 0.07645 0.0
H340 H 0.01511 0.35564 0.10487 0.0
H341 H 0.03965 0.29354 0.10421 0.0
H342 H 0.25452 0.47039 0.23783 0.0
H343 H 0.27966 0.40843 0.23266 0.0
H344 H 0.22052 0.52087 0.17727 0.0
H345 H 0.15445 0.52692 0.14741 0.0
C346 C 0.5833 0.29894 0.97043 0.0
C347 C 0.63077 0.3001 0.93293 0.0
C348 C 0.62501 0.20119 0.94954 0.0
C349 C 0.58012 0.20113 0.99043 0.0
N350 N 0.52743 0.25392 0.05075 0.0
N351 N 0.70369 0.25437 0.89632 0.0
C352 C 0.56322 0.25144 1.00467 0.0
C353 C 0.6544 0.25199 0.92662 0.0
N354 N 0.55437 0.34174 0.97005 0.0
N355 N 0.63608 0.15312 0.92766 0.0
H356 H 0.72434 0.29049 0.87738 0.0
H357 H 0.72638 0.2222 0.89497 0.0
H358 H 0.61305 0.11498 0.93899 0.0
H359 H 0.6642 0.15116 0.89328 0.0
H360 H 0.51531 0.34025 0.99073 0.0
H361 H 0.56722 0.37722 0.9453 0.0
H362 H 0.51778 0.29055 0.06629 0.0
H363 H 0.51222 0.22017 0.07721 0.0
C364 C 0.95019 0.83923 0.32247 0.0
C365 C 0.931 0.79233 0.35764 0.0
C366 C 0.96212 0.84684 0.44558 0.0
C367 C 0.98723 0.8933 0.4112 0.0
N368 N 0.02081 0.9218 0.31272 0.0
N369 N 0.94121 0.74801 0.45058 0.0
C370 C 0.98612 0.88616 0.34822 0.0
C371 C 0.94645 0.79496 0.41814 0.0
N372 N 0.9336 0.83957 0.26485 0.0
N373 N 0.94638 0.85212 0.50262 0.0
H374 H 0.92886 0.70965 0.43136 0.0
H375 H 0.95463 0.74758 0.49454 0.0
H376 H 0.94355 0.88958 0.52133 0.0
H377 H 0.92569 0.81909 0.52741 0.0
H378 H 0.9414 0.8746 0.23844 0.0
H379 H 0.90912 0.80539 0.24513 0.0
H380 H 0.02321 0.916 0.2674 0.0
H381 H 0.05308 0.952 0.32887 0.0
C382 C 0.40932 0.79178 0.65788 0.0
C383 C 0.35202 0.77719 0.67602 0.0
C384 C 0.35319 0.68132 0.6541 0.0
C385 C 0.41198 0.69567 0.63955 0.0
N386 N 0.49936 0.76162 0.64592 0.0
N387 N 0.2735 0.70812 0.70494 0.0
C388 C 0.44111 0.75007 0.64717 0.0
C389 C 0.32534 0.72179 0.67869 0.0
N390 N 0.4329 0.84545 0.64929 0.0
N391 N 0.32275 0.63079 0.64099 0.0
H392 H 0.2522 0.73749 0.72253 0.0
H393 H 0.25425 0.66785 0.71359 0.0
H394 H 0.34015 0.59991 0.62137 0.0
H395 H 0.2786 0.62098 0.64491 0.0
H396 H 0.47267 0.85791 0.63018 0.0
H397 H 0.41072 0.87732 0.65632 0.0
H398 H 0.52285 0.79993 0.65631 0.0
H399 H 0.5243 0.73138 0.64135 0.0
C400 C 0.8989 0.97002 0.79524 0.0
C401 C 0.86632 0.91682 0.78642 0.0
C402 C 0.91841 0.90811 0.6964 0.0
C403 C 0.9427 0.96426 0.69954 0.0
N404 N 0.95373 0.05077 0.74999 0.0
N405 N 0.83697 0.84035 0.72205 0.0
C406 C 0.93342 0.99571 0.749 0.0
C407 C 0.87445 0.88676 0.73564 0.0
N408 N 0.89567 0.99657 0.84715 0.0
N409 N 0.93744 0.87531 0.65594 0.0
H410 H 0.80064 0.82726 0.74678 0.0
H411 H 0.8381 0.81921 0.68271 0.0
H412 H 0.97149 0.88963 0.62814 0.0
H413 H 0.9239 0.83305 0.65487 0.0
H414 H 0.92348 0.03218 0.85893 0.0
H415 H 0.8675 0.98114 0.88023 0.0
H416 H 0.94198 0.0769 0.78141 0.0
H417 H 0.97917 0.07145 0.71704 0.0
C418 C 0.73691 0.12149 0.32119 0.0
C419 C 0.76719 0.17548 0.31326 0.0
C420 C 0.74657 0.1698 0.20707 0.0
C421 C 0.70709 0.12174 0.21801 0.0
N422 N 0.67876 0.04109 0.27729 0.0
N423 N 0.80238 0.25137 0.24908 0.0
C424 C 0.7077 0.09355 0.27232 0.0
C425 C 0.77516 0.1985 0.25559 0.0
N426 N 0.72988 0.10043 0.37686 0.0
N427 N 0.75497 0.1884 0.15044 0.0
H428 H 0.81892 0.27533 0.28479 0.0
H429 H 0.80449 0.27311 0.20952 0.0
H430 H 0.73351 0.16741 0.11472 0.0
H431 H 0.78649 0.22107 0.13834 0.0
H432 H 0.70315 0.064 0.3877 0.0
H433 H 0.74946 0.12131 0.41317 0.0
H434 H 0.6805 1.0165 0.31439 0.0
H435 H 0.65649 1.02034 0.242 0.0
C436 C 0.37029 0.67407 0.31236 0.0
C437 C 0.40786 0.69283 0.26553 0.0
C438 C 0.48026 0.64848 0.31476 0.0
C439 C 0.43879 0.6204 0.35424 0.0
N440 N 0.34019 0.60228 0.38372 0.0
N441 N 0.49809 0.69289 0.21962 0.0
C442 C 0.38264 0.63236 0.3513 0.0
C443 C 0.46273 0.67846 0.26594 0.0
N444 N 0.32199 0.69568 0.3187 0.0
N445 N 0.53677 0.65072 0.32652 0.0
H446 H 0.48726 0.71678 0.18493 0.0
H447 H 0.53626 0.67848 0.21455 0.0
H448 H 0.55067 0.63602 0.36605 0.0
H449 H 0.56901 0.67386 0.3017 0.0
H450 H 0.29493 0.68712 0.3546 0.0
H451 H 0.31289 0.72693 0.29127 0.0
H452 H 0.29741 0.60574 0.37905 0.0
H453 H 0.34683 0.56977 0.41057 0.0
C454 C 0.13614 0.45148 0.84106 0.0
C455 C 0.11526 0.44619 0.78213 0.0
C456 C 0.03128 0.48406 0.81217 0.0
C457 C 0.05585 0.49692 0.86916 0.0
N458 N 0.13552 0.4959 0.936 0.0
N459 N 0.04668 0.46393 0.70956 0.0
C460 C 0.1091 0.48087 0.88343 0.0
C461 C 0.06375 0.46421 0.76728 0.0
N462 N 0.18149 0.42748 0.85663 0.0
N463 N 0.97575 0.4887 0.80148 0.0
H464 H 0.06971 0.44994 0.67585 0.0
H465 H 0.01282 0.48195 0.69459 0.0
H466 H 0.94957 0.50031 0.83378 0.0
H467 H 0.95376 0.47507 0.7629 0.0
H468 H 0.19559 0.42447 0.89999 0.0
H469 H 0.20214 0.40657 0.82632 0.0
H470 H 0.17718 0.4913 0.94605 0.0
H471 H 0.11732 0.51638 0.96837 0.0
C472 C 0.72614 0.96443 0.95216 0.0
C473 C 0.70566 0.91931 0.916 0.0
C474 C 0.60799 0.92476 0.94062 0.0
C475 C 0.6285 0.97524 0.96966 0.0
N476 N 0.7074 0.04991 0.98825 0.0
N477 N 0.62866 0.85907 0.86911 0.0
C478 C 0.68773 0.99713 0.97138 0.0
C479 C 0.6469 0.90023 0.90807 0.0
N480 N 0.78223 0.97548 0.96865 0.0
N481 N 0.55274 0.89876 0.94641 0.0
H482 H 0.65697 0.83944 0.8463 0.0
H483 H 0.58606 0.84725 0.85656 0.0
H484 H 0.52291 0.91338 0.9721 0.0
H485 H 0.53788 0.85954 0.93051 0.0
H486 H 0.79842 1.00567 0.99907 0.0
H487 H 0.81079 0.95008 0.95744 0.0
H488 H 0.75006 0.06843 0.98485 0.0
H489 H 0.68076 0.07731 0.99889 0.0
C490 C 0.84596 0.16528 0.47511 0.0
C491 C 0.85111 0.19429 0.42062 0.0
C492 C 0.93229 0.15003 0.39533 0.0
C493 C 0.92815 0.12249 0.4506 0.0
N494 N 0.89392 0.12043 0.55067 0.0
N495 N 0.91158 0.22834 0.34004 0.0
C496 C 0.8888 0.13501 0.49285 0.0
C497 C 0.89782 0.19056 0.3837 0.0
N498 N 0.79901 0.16481 0.50914 0.0
N499 N 0.96864 0.13725 0.35373 0.0
H500 H 0.89156 0.26222 0.33657 0.0
H501 H 0.9474 0.23044 0.3137 0.0
H502 H 0.99522 0.10867 0.36126 0.0
H503 H 0.96929 0.15209 0.31058 0.0
H504 H 0.79025 0.13979 0.5462 0.0
H505 H 0.76577 0.18484 0.49688 0.0
H506 H 0.86967 0.13305 0.5841 0.0
H507 H 0.92696 0.10163 0.56649 0.0
C508 C 0.25935 0.67631 0.06154 0.0
C509 C 0.2569 0.69655 0.11932 0.0
C510 C 0.15414 0.69174 0.1098 0.0
C511 C 0.1555 0.66377 0.05591 0.0
N512 N 0.2074 0.62885 0.97895 0.0
N513 N 0.20322 0.71997 0.20136 0.0
C514 C 0.20772 0.65634 0.03093 0.0
C515 C 0.20461 0.70372 0.14411 0.0
N516 N 0.31113 0.67697 0.03618 0.0
N517 N 0.10458 0.70638 0.12825 0.0
H518 H 0.16571 0.71986 0.22445 0.0
H519 H 0.23985 0.72973 0.22732 0.0
H520 H 0.06659 0.69807 0.1041 0.0
H521 H 0.10211 0.73105 0.16468 0.0
H522 H 0.31621 0.66727 0.99223 0.0
H523 H 0.34946 0.69092 0.05845 0.0
H524 H 0.24318 0.61623 0.96168 0.0
H525 H 0.17024 0.61708 0.9539 0.0
C526 C 0.30979 0.40486 0.65201 0.0
C527 C 0.25734 0.41654 0.62953 0.0
C528 C 0.30904 0.46101 0.54255 0.0
C529 C 0.36172 0.44946 0.56516 0.0
N530 N 0.4087 0.39859 0.63616 0.0
N531 N 0.21089 0.46953 0.56166 0.0
C532 C 0.36086 0.41768 0.61812 0.0
C533 C 0.25806 0.44817 0.57682 0.0
N534 N 0.31206 0.38651 0.70878 0.0
N535 N 0.30658 0.48041 0.48624 0.0
H536 H 0.17437 0.46355 0.58733 0.0
H537 H 0.2101 0.49792 0.52775 0.0
H538 H 0.34167 0.4863 0.45849 0.0
H539 H 0.2687 0.4845 0.46469 0.0
H540 H 0.34982 0.38331 0.73104 0.0
H541 H 0.27674 0.38063 0.73617 0.0
H542 H 0.40853 0.36892 0.66891 0.0
H543 H 0.44825 0.40971 0.61647 0.0
C544 C 0.90818 0.83019 0.90087 0.0
C545 C 0.85631 0.81643 0.86873 0.0
C546 C 0.86931 0.72125 0.86248 0.0
C547 C 0.91841 0.73425 0.8987 0.0
N548 N 0.993 0.80156 0.94136 0.0
N549 N 0.78242 0.74815 0.82674 0.0
C550 C 0.941 0.78907 0.91374 0.0
C551 C 0.83598 0.76188 0.85059 0.0
N552 N 0.92237 0.88107 0.92479 0.0
N553 N 0.85553 0.67022 0.83842 0.0
H554 H 0.75582 0.77659 0.81889 0.0
H555 H 0.76225 0.70805 0.81921 0.0
H556 H 0.88011 0.63987 0.84561 0.0
H557 H 0.82347 0.65962 0.80684 0.0
H558 H 0.95644 0.89296 0.95372 0.0
H559 H 0.89646 0.9103 0.91991 0.0
H560 H 0.01464 0.84132 0.94777 0.0
H561 H 0.01695 0.77218 0.95429 0.0
C562 C 0.45768 0.82374 0.14501 0.0
C563 C 0.42659 0.81181 0.19801 0.0
C564 C 0.44075 0.91017 0.21952 0.0
C565 C 0.47093 0.92181 0.16586 0.0
N566 N 0.52641 0.88783 0.09099 0.0
N567 N 0.4012 0.84142 0.29224 0.0
C568 C 0.48516 0.87804 0.13278 0.0
C569 C 0.42332 0.85457 0.23782 0.0
N570 N 0.45632 0.78406 0.10345 0.0
N571 N 0.42653 0.95206 0.25151 0.0
H572 H 0.38876 0.80076 0.30529 0.0
H573 H 0.40044 0.86973 0.32566 0.0
H574 H 0.43768 0.99299 0.2388 0.0
H575 H 0.40017 0.94625 0.2881 0.0
H576 H 0.47178 0.79212 0.0609 0.0
H577 H 0.43582 0.74384 0.11013 0.0
H578 H 0.54237 0.85667 0.06992 0.0
H579 H 0.54896 0.92681 0.08229 0.0
C580 C 0.17877 0.26465 0.65479 0.0
C581 C 0.15829 0.31187 0.6341 0.0
C582 C 0.09772 0.25374 0.56095 0.0
C583 C 0.1213 0.20745 0.57944 0.0
N584 N 0.1929 0.17186 0.63601 0.0
N585 N 0.09887 0.35182 0.56667 0.0
C586 C 0.16452 0.21393 0.62389 0.0
C587 C 0.11848 0.30643 0.58629 0.0
N588 N 0.20835 0.26717 0.70687 0.0
N589 N 0.053 0.24667 0.52166 0.0
H590 H 0.1086 0.38912 0.58831 0.0
H591 H 0.07518 0.35338 0.52804 0.0
H592 H 0.03631 0.20899 0.50282 0.0
H593 H 0.02956 0.27687 0.51043 0.0
H594 H 0.21942 0.23308 0.72796 0.0
H595 H 0.21652 0.30255 0.73205 0.0
H596 H 0.22876 0.17579 0.66345 0.0
H597 H 0.18378 0.13441 0.61435 0.0
C598 C 0.71936 0.3726 0.38332 0.0
C599 C 0.71473 0.32722 0.42219 0.0
C600 C 0.62918 0.35225 0.46548 0.0
C601 C 0.62983 0.3937 0.42168 0.0
N602 N 0.67351 0.44255 0.33723 0.0
N603 N 0.66412 0.27048 0.49712 0.0
C604 C 0.67476 0.404 0.38036 0.0
C605 C 0.66967 0.31659 0.46297 0.0
N606 N 0.76645 0.38458 0.3487 0.0
N607 N 0.59099 0.34798 0.51054 0.0
H608 H 0.69437 0.24485 0.49738 0.0
H609 H 0.62842 0.25613 0.52253 0.0
H610 H 0.55945 0.37204 0.51323 0.0
H611 H 0.59296 0.32317 0.54749 0.0
H612 H 0.77552 0.41911 0.32186 0.0
H613 H 0.79905 0.36151 0.35053 0.0
H614 H 0.70247 0.44981 0.30291 0.0
H615 H 0.64049 0.4649 0.33329 0.0
loop_
_geom_bond_atom_site_label_1
_geom_bond_atom_site_label_2
_geom_bond_distance
_geom_bond_site_symmetry_2
_ccdc_geom_bond_type
C0 N1 1.317 . S
C0 N2 1.348 . S
C0 C3 1.485 . S
N1 C0 1.317 . S
N1 N5 1.370 . S
N2 C0 1.348 . S
N2 C4 1.346 . S
C3 C0 1.485 . S
C3 H7 0.960 . S
C3 H8 0.961 . S
C3 H9 0.960 . S
C4 N2 1.346 . S
C4 N5 1.307 . S
C4 C6 1.486 . S
N5 N1 1.370 . S
N5 C4 1.307 . S
C6 C4 1.486 . S
C6 H10 0.960 . S
C6 H11 0.960 . S
C6 H12 0.959 . S
H7 C3 0.960 . S
H8 C3 0.961 . S
H9 C3 0.960 . S
H10 C6 0.960 . S
H11 C6 0.960 . S
H12 C6 0.959 . S
C13 N14 1.317 . S
C13 N15 1.348 . S
C13 C16 1.485 . S
N14 C13 1.317 . S
N14 N18 1.370 . S
N15 C13 1.348 . S
N15 C17 1.346 . S
C16 C13 1.485 . S
C16 H20 0.960 . S
C16 H21 0.961 . S
C16 H22 0.960 . S
C17 N15 1.346 . S
C17 N18 1.307 . S
C17 C19 1.486 . S
N18 N14 1.370 . S
N18 C17 1.307 . S
C19 C17 1.486 . S
C19 H23 0.960 . S
C19 H24 0.960 . S
C19 H25 0.959 . S
H20 C16 0.960 . S
H21 C16 0.961 . S
H22 C16 0.960 . S
H23 C19 0.960 . S
H24 C19 0.960 . S
H25 C19 0.959 . S
C26 N27 1.317 . S
C26 N28 1.348 . S
C26 C29 1.485 . S
N27 C26 1.317 . S
N27 N31 1.370 . S
N28 C26 1.348 . S
N28 C30 1.346 . S
C29 C26 1.485 . S
C29 H33 0.960 . S
C29 H34 0.961 . S
C29 H35 0.960 . S
C30 N28 1.346 . S
C30 N31 1.307 . S
C30 C32 1.486 . S
N31 N27 1.370 . S
N31 C30 1.307 . S
C32 C30 1.486 . S
C32 H36 0.960 . S
C32 H37 0.960 . S
C32 H38 0.959 . S
H33 C29 0.960 . S
H34 C29 0.961 . S
H35 C29 0.960 . S
H36 C32 0.960 . S
H37 C32 0.960 . S
H38 C32 0.959 . S
C39 N40 1.317 . S
C39 N41 1.348 . S
C39 C42 1.485 . S
N40 C39 1.317 . S
N40 N44 1.370 . S
N41 C39 1.348 . S
N41 C43 1.346 . S
C42 C39 1.485 . S
C42 H46 0.960 . S
C42 H47 0.961 . S
C42 H48 0.960 . S
C43 N41 1.346 . S
C43 N44 1.307 . S
C43 C45 1.486 . S
N44 N40 1.370 . S
N44 C43 1.307 . S
C45 C43 1.486 . S
C45 H49 0.960 . S
C45 H50 0.960 . S
C45 H51 0.959 . S
H46 C42 0.960 . S
H47 C42 0.961 . S
H48 C42 0.960 . S
H49 C45 0.960 . S
H50 C45 0.960 . S
H51 C45 0.959 . S
C52 N53 1.317 . S
C52 N54 1.348 . S
C52 C55 1.485 . S
N53 C52 1.317 . S
N53 N57 1.370 . S
N54 C52 1.348 . S
N54 C56 1.346 . S
C55 C52 1.485 . S
C55 H59 0.960 . S
C55 H60 0.961 . S
C55 H61 0.960 . S
C56 N54 1.346 . S
C56 N57 1.307 . S
C56 C58 1.486 . S
N57 N53 1.370 . S
N57 C56 1.307 . S
C58 C56 1.486 . S
C58 H62 0.960 . S
C58 H63 0.960 . S
C58 H64 0.959 . S
H59 C55 0.960 . S
H60 C55 0.961 . S
H61 C55 0.960 . S
H62 C58 0.960 . S
H63 C58 0.960 . S
H64 C58 0.959 . S
C65 N66 1.317 . S
C65 N67 1.348 . S
C65 C68 1.485 . S
N66 C65 1.317 . S
N66 N70 1.370 . S
N67 C65 1.348 . S
N67 C69 1.346 . S
C68 C65 1.485 . S
C68 H72 0.960 . S
C68 H73 0.961 . S
C68 H74 0.960 . S
C69 N67 1.346 . S
C69 N70 1.307 . S
C69 C71 1.486 . S
N70 N66 1.370 . S
N70 C69 1.307 . S
C71 C69 1.486 . S
C71 H75 0.960 . S
C71 H76 0.960 . S
C71 H77 0.959 . S
H72 C68 0.960 . S
H73 C68 0.961 . S
H74 C68 0.960 . S
H75 C71 0.960 . S
H76 C71 0.960 . S
H77 C71 0.959 . S
C78 N79 1.317 . S
C78 N80 1.348 . S
C78 C81 1.485 . S
N79 C78 1.317 . S
N79 N83 1.370 . S
N80 C78 1.348 . S
N80 C82 1.346 . S
C81 C78 1.485 . S
C81 H85 0.960 . S
C81 H86 0.961 . S
C81 H87 0.960 . S
C82 N80 1.346 . S
C82 N83 1.307 . S
C82 C84 1.486 . S
N83 N79 1.370 . S
N83 C82 1.307 . S
C84 C82 1.486 . S
C84 H88 0.960 . S
C84 H89 0.960 . S
C84 H90 0.959 . S
H85 C81 0.960 . S
H86 C81 0.961 . S
H87 C81 0.960 . S
H88 C84 0.960 . S
H89 C84 0.960 . S
H90 C84 0.959 . S
C91 N92 1.317 . S
C91 N93 1.348 . S
C91 C94 1.485 . S
N92 C91 1.317 . S
N92 N96 1.370 . S
N93 C91 1.348 . S
N93 C95 1.346 . S
C94 C91 1.485 . S
C94 H98 0.960 . S
C94 H99 0.961 . S
C94 H100 0.960 . S
C95 N93 1.346 . S
C95 N96 1.307 . S
C95 C97 1.486 . S
N96 N92 1.370 . S
N96 C95 1.307 . S
C97 C95 1.486 . S
C97 H101 0.960 . S
C97 H102 0.960 . S
C97 H103 0.959 . S
H98 C94 0.960 . S
H99 C94 0.961 . S
H100 C94 0.960 . S
H101 C97 0.960 . S
H102 C97 0.960 . S
H103 C97 0.959 . S
Dy104 O108 2.398 . S
Dy104 O109 2.491 . S
Dy104 O110 2.400 1_545 S
Dy104 O111 2.664 1_545 S
Dy104 O115 2.326 . S
Dy104 O119 2.310 . S
Dy104 O120 2.351 1_545 S
C105 O116 1.185 . S
C105 O117 1.355 . S
C106 O108 1.185 . S
C106 O109 1.355 . S
Dy107 O111 2.315 1_545 S
Dy107 O114 2.354 . S
Dy107 O116 2.393 1_445 S
Dy107 O117 2.492 1_445 S
Dy107 O118 2.398 1_455 S
Dy107 O119 2.664 . S
Dy107 O121 2.325 1_445 S
O108 Dy104 2.398 . S
O108 C106 1.185 . S
O109 Dy104 2.491 . S
O109 C106 1.355 . S
O110 Dy104 2.400 1_565 S
O110 C112 1.256 . S
O111 Dy104 2.664 1_565 S
O111 Dy107 2.315 1_565 S
O111 C112 1.268 . S
C112 O110 1.256 . S
C112 O111 1.268 . S
C113 O118 1.254 . S
C113 O119 1.268 1_655 S
O114 Dy107 2.354 . S
O114 C122 1.249 . S
O115 Dy104 2.326 . S
O115 C122 1.267 . S
O116 C105 1.185 . S
O116 Dy107 2.393 1_665 S
O117 C105 1.355 . S
O117 Dy107 2.492 1_665 S
O118 Dy107 2.398 1_655 S
O118 C113 1.254 . S
O119 Dy104 2.310 . S
O119 Dy107 2.664 . S
O119 C113 1.268 1_455 S
O120 Dy104 2.351 1_565 S
O120 C123 1.249 1_455 S
O121 Dy107 2.325 1_665 S
O121 C123 1.267 . S
C122 O114 1.249 . S
C122 O115 1.267 . S
C123 O120 1.249 1_655 S
C123 O121 1.267 . S
Dy124 O128 2.398 . S
Dy124 O129 2.491 . S
Dy124 O130 2.403 1_545 S
Dy124 O131 2.664 1_545 S
Dy124 O135 2.326 . S
Dy124 O139 2.310 . S
Dy124 O140 2.351 1_545 S
C125 O136 1.185 1_565 S
C125 O137 1.355 . S
C126 O128 1.185 . S
C126 O129 1.355 . S
Dy127 O131 2.310 1_546 S
Dy127 O134 2.351 1_556 S
Dy127 O136 2.398 . S
Dy127 O137 2.491 1_545 S
Dy127 O138 2.403 . S
Dy127 O139 2.664 1_556 S
Dy127 O141 2.326 . S
O128 Dy124 2.398 . S
O128 C126 1.185 . S
O129 Dy124 2.491 . S
O129 C126 1.355 . S
O130 Dy124 2.403 1_565 S
O130 C132 1.254 . S
O131 Dy124 2.664 1_565 S
O131 Dy127 2.310 1_564 S
O131 C132 1.268 . S
C132 O130 1.254 . S
C132 O131 1.268 . S
C133 O138 1.254 . S
C133 O139 1.268 1_556 S
O134 Dy127 2.351 1_554 S
O134 C142 1.249 . S
O135 Dy124 2.326 . S
O135 C142 1.267 . S
O136 C125 1.185 1_545 S
O136 Dy127 2.398 . S
O137 C125 1.355 . S
O137 Dy127 2.491 1_565 S
O138 Dy127 2.403 . S
O138 C133 1.254 . S
O139 Dy124 2.310 . S
O139 Dy127 2.664 1_554 S
O139 C133 1.268 1_554 S
O140 Dy124 2.351 1_565 S
O140 C143 1.249 1_554 S
O141 Dy127 2.326 . S
O141 C143 1.267 1_545 S
C142 O134 1.249 . S
C142 O135 1.267 . S
C143 O140 1.249 1_556 S
C143 O141 1.267 1_565 S
Dy144 O148 2.398 . S
Dy144 O149 2.491 . S
Dy144 O150 2.403 . S
Dy144 O151 2.664 . S
Dy144 O155 2.326 . S
Dy144 O159 2.310 . S
Dy144 O160 2.351 . S
C145 O156 1.185 . S
C145 O157 1.355 . S
C146 O148 1.185 . S
C146 O149 1.355 . S
Dy147 O151 2.310 . S
Dy147 O154 2.351 . S
Dy147 O156 2.398 . S
Dy147 O157 2.491 . S
Dy147 O158 2.403 . S
Dy147 O159 2.664 . S
Dy147 O161 2.326 . S
O148 Dy144 2.398 . S
O148 C146 1.185 . S
O149 Dy144 2.491 . S
O149 C146 1.355 . S
O150 Dy144 2.403 . S
O150 C152 1.254 . S
O151 Dy144 2.664 . S
O151 Dy147 2.310 . S
O151 C152 1.268 . S
C152 O150 1.254 . S
C152 O151 1.268 . S
C153 O158 1.254 . S
C153 O159 1.268 . S
O154 Dy147 2.351 . S
O154 C162 1.249 . S
O155 Dy144 2.326 . S
O155 C162 1.267 . S
O156 C145 1.185 . S
O156 Dy147 2.398 . S
O157 C145 1.355 . S
O157 Dy147 2.491 . S
O158 Dy147 2.403 . S
O158 C153 1.254 . S
O159 Dy144 2.310 . S
O159 Dy147 2.664 . S
O159 C153 1.268 . S
O160 Dy144 2.351 . S
O160 C163 1.249 . S
O161 Dy147 2.326 . S
O161 C163 1.267 . S
C162 O154 1.249 . S
C162 O155 1.267 . S
C163 O160 1.249 . S
C163 O161 1.267 . S
Dy164 O168 2.398 . S
Dy164 O169 2.491 . S
Dy164 O170 2.403 1_455 S
Dy164 O171 2.664 1_455 S
Dy164 O175 2.326 . S
Dy164 O179 2.310 1_554 S
Dy164 O180 2.351 1_454 S
C165 O176 1.185 . S
C165 O177 1.355 . S
C166 O168 1.185 . S
C166 O169 1.355 . S
Dy167 O171 2.310 1_556 S
Dy167 O174 2.351 1_656 S
Dy167 O176 2.398 . S
Dy167 O177 2.491 . S
Dy167 O178 2.403 1_655 S
Dy167 O179 2.664 1_655 S
Dy167 O181 2.326 . S
O168 Dy164 2.398 . S
O168 C166 1.185 . S
O169 Dy164 2.491 . S
O169 C166 1.355 . S
O170 Dy164 2.403 1_655 S
O170 C172 1.254 . S
O171 Dy164 2.664 1_655 S
O171 Dy167 2.310 1_554 S
O171 C172 1.268 . S
C172 O170 1.254 . S
C172 O171 1.268 . S
C173 O178 1.254 . S
C173 O179 1.268 . S
O174 Dy167 2.351 1_454 S
O174 C182 1.249 . S
O175 Dy164 2.326 . S
O175 C182 1.267 . S
O176 C165 1.185 . S
O176 Dy167 2.398 . S
O177 C165 1.355 . S
O177 Dy167 2.491 . S
O178 Dy167 2.403 1_455 S
O178 C173 1.254 . S
O179 Dy164 2.310 1_556 S
O179 Dy167 2.664 1_455 S
O179 C173 1.268 . S
O180 Dy164 2.351 1_656 S
O180 C183 1.249 . S
O181 Dy167 2.326 . S
O181 C183 1.267 . S
C182 O174 1.249 . S
C182 O175 1.267 . S
C183 O180 1.249 . S
C183 O181 1.267 . S
C184 C185 1.363 . S
C184 C190 1.379 . S
C184 N192 1.356 . S
C185 C184 1.363 . S
C185 C191 1.363 . S
C186 C187 1.363 . S
C186 C191 1.379 . S
C186 N193 1.356 . S
C187 C186 1.363 . S
C187 C190 1.363 . S
N188 C190 1.356 . S
N188 H200 0.984 . S
N188 H201 0.985 . S
N189 C191 1.356 . S
N189 H194 0.984 . S
N189 H195 0.985 . S
C190 C184 1.379 . S
C190 C187 1.363 . S
C190 N188 1.356 . S
C191 C185 1.363 . S
C191 C186 1.379 . S
C191 N189 1.356 . S
N192 C184 1.356 . S
N192 H198 0.984 . S
N192 H199 0.984 . S
N193 C186 1.356 . S
N193 H196 0.984 . S
N193 H197 0.985 . S
H194 N189 0.984 . S
H195 N189 0.985 . S
H196 N193 0.984 . S
H197 N193 0.985 . S
H198 N192 0.984 . S
H199 N192 0.984 . S
H200 N188 0.984 . S
H201 N188 0.985 . S
C202 C203 1.363 . S
C202 C208 1.379 . S
C202 N210 1.356 . S
C203 C202 1.363 . S
C203 C209 1.363 . S
C204 C205 1.363 . S
C204 C209 1.379 . S
C204 N211 1.356 1_565 S
C205 C204 1.363 . S
C205 C208 1.363 . S
N206 C208 1.356 . S
N206 H218 0.984 . S
N206 H219 0.985 . S
N207 C209 1.356 . S
N207 H212 0.984 . S
N207 H213 0.985 1_565 S
C208 C202 1.379 . S
C208 C205 1.363 . S
C208 N206 1.356 . S
C209 C203 1.363 . S
C209 C204 1.379 . S
C209 N207 1.356 . S
N210 C202 1.356 . S
N210 H216 0.984 . S
N210 H217 0.984 . S
N211 C204 1.356 1_545 S
N211 H214 0.984 . S
N211 H215 0.985 . S
H212 N207 0.984 . S
H213 N207 0.985 1_545 S
H214 N211 0.984 . S
H215 N211 0.985 . S
H216 N210 0.984 . S
H217 N210 0.984 . S
H218 N206 0.984 . S
H219 N206 0.985 . S
C220 C221 1.363 . S
C220 C226 1.379 . S
C220 N228 1.356 . S
C221 C220 1.363 . S
C221 C227 1.363 . S
C222 C223 1.363 . S
C222 C227 1.379 . S
C222 N229 1.356 . S
C223 C222 1.363 . S
C223 C226 1.363 . S
N224 C226 1.356 . S
N224 H236 0.984 . S
N224 H237 0.985 . S
N225 C227 1.356 . S
N225 H230 0.984 . S
N225 H231 0.985 . S
C226 C220 1.379 . S
C226 C223 1.363 . S
C226 N224 1.356 . S
C227 C221 1.363 . S
C227 C222 1.379 . S
C227 N225 1.356 . S
N228 C220 1.356 . S
N228 H234 0.984 . S
N228 H235 0.984 . S
N229 C222 1.356 . S
N229 H232 0.984 . S
N229 H233 0.985 . S
H230 N225 0.984 . S
H231 N225 0.985 . S
H232 N229 0.984 . S
H233 N229 0.985 . S
H234 N228 0.984 . S
H235 N228 0.984 . S
H236 N224 0.984 . S
H237 N224 0.985 . S
C238 C239 1.363 . S
C238 C244 1.379 . S
C238 N246 1.356 . S
C239 C238 1.363 . S
C239 C245 1.363 . S
C240 C241 1.363 . S
C240 C245 1.379 . S
C240 N247 1.356 1_655 S
C241 C240 1.363 . S
C241 C244 1.363 . S
N242 C244 1.356 . S
N242 H254 0.984 . S
N242 H255 0.985 . S
N243 C245 1.356 . S
N243 H248 0.984 . S
N243 H249 0.998 . S
C244 C238 1.379 . S
C244 C241 1.363 . S
C244 N242 1.356 . S
C245 C239 1.363 . S
C245 C240 1.379 . S
C245 N243 1.356 . S
N246 C238 1.356 . S
N246 H252 0.984 . S
N246 H253 0.984 . S
N247 C240 1.356 1_455 S
N247 H250 0.984 . S
N247 H251 0.985 . S
H248 N243 0.984 . S
H249 N243 0.998 . S
H250 N247 0.984 . S
H251 N247 0.985 . S
H252 N246 0.984 . S
H253 N246 0.984 . S
H254 N242 0.984 . S
H255 N242 0.985 . S
C256 C257 1.363 . S
C256 C262 1.379 . S
C256 N264 1.356 . S
C257 C256 1.363 . S
C257 C263 1.363 . S
C258 C259 1.363 . S
C258 C263 1.379 . S
C258 N265 1.356 . S
C259 C258 1.363 . S
C259 C262 1.363 . S
N260 C262 1.356 . S
N260 H272 0.984 . S
N260 H273 0.985 . S
N261 C263 1.356 . S
N261 H266 0.984 . S
N261 H267 0.985 . S
C262 C256 1.379 . S
C262 C259 1.363 . S
C262 N260 1.356 . S
C263 C257 1.363 . S
C263 C258 1.379 . S
C263 N261 1.356 . S
N264 C256 1.356 . S
N264 H270 0.984 . S
N264 H271 0.984 . S
N265 C258 1.356 . S
N265 H268 0.984 . S
N265 H269 0.985 . S
H266 N261 0.984 . S
H267 N261 0.985 . S
H268 N265 0.984 . S
H269 N265 0.985 . S
H270 N264 0.984 . S
H271 N264 0.984 . S
H272 N260 0.984 . S
H273 N260 0.985 . S
C274 C275 1.363 . S
C274 C280 1.379 . S
C274 N282 1.356 . S
C275 C274 1.363 . S
C275 C281 1.363 . S
C276 C277 1.363 . S
C276 C281 1.379 . S
C276 N283 1.356 1_565 S
C277 C276 1.363 . S
C277 C280 1.363 . S
N278 C280 1.356 . S
N278 H290 0.984 . S
N278 H291 0.985 . S
N279 C281 1.356 . S
N279 H284 0.984 . S
N279 H285 0.985 . S
C280 C274 1.379 . S
C280 C277 1.363 . S
C280 N278 1.356 . S
C281 C275 1.363 . S
C281 C276 1.379 . S
C281 N279 1.356 . S
N282 C274 1.356 . S
N282 H288 0.984 . S
N282 H289 0.984 . S
N283 C276 1.356 1_545 S
N283 H286 0.984 . S
N283 H287 0.985 . S
H284 N279 0.984 . S
H285 N279 0.985 . S
H286 N283 0.984 . S
H287 N283 0.985 . S
H288 N282 0.984 . S
H289 N282 0.984 . S
H290 N278 0.984 . S
H291 N278 0.985 . S
C292 C293 1.363 . S
C292 C298 1.379 . S
C292 N300 1.356 . S
C293 C292 1.363 . S
C293 C299 1.363 . S
C294 C295 1.363 . S
C294 C299 1.379 . S
C294 N301 1.356 . S
C295 C294 1.363 . S
C295 C298 1.363 . S
N296 C298 1.356 1_554 S
N296 H308 0.984 . S
N296 H309 0.985 . S
N297 C299 1.356 . S
N297 H302 0.984 . S
N297 H303 0.985 . S
C298 C292 1.379 . S
C298 C295 1.363 . S
C298 N296 1.356 1_556 S
C299 C293 1.363 . S
C299 C294 1.379 . S
C299 N297 1.356 . S
N300 C292 1.356 . S
N300 H306 0.984 1_556 S
N300 H307 0.984 . S
N301 C294 1.356 . S
N301 H304 0.984 . S
N301 H305 0.985 . S
H302 N297 0.984 . S
H303 N297 0.985 . S
H304 N301 0.984 . S
H305 N301 0.985 . S
H306 N300 0.984 1_554 S
H307 N300 0.984 . S
H308 N296 0.984 . S
H309 N296 0.985 . S
C310 C311 1.363 . S
C310 C316 1.379 . S
C310 N318 1.356 . S
C311 C310 1.363 . S
C311 C317 1.363 . S
C312 C313 1.363 . S
C312 C317 1.379 . S
C312 N319 1.356 . S
C313 C312 1.363 . S
C313 C316 1.363 . S
N314 C316 1.356 . S
N314 H326 0.984 . S
N314 H327 0.985 . S
N315 C317 1.356 . S
N315 H320 0.984 . S
N315 H321 0.985 . S
C316 C310 1.379 . S
C316 C313 1.363 . S
C316 N314 1.356 . S
C317 C311 1.363 . S
C317 C312 1.379 . S
C317 N315 1.356 . S
N318 C310 1.356 . S
N318 H324 0.984 . S
N318 H325 0.984 . S
N319 C312 1.356 . S
N319 H322 0.984 . S
N319 H323 0.985 . S
H320 N315 0.984 . S
H321 N315 0.985 . S
H322 N319 0.984 . S
H323 N319 0.985 . S
H324 N318 0.984 . S
H325 N318 0.984 . S
H326 N314 0.984 . S
H327 N314 0.985 . S
C328 C329 1.363 . S
C328 C334 1.379 . S
C328 N336 1.356 . S
C329 C328 1.363 . S
C329 C335 1.363 . S
C330 C331 1.363 . S
C330 C335 1.379 . S
C330 N337 1.356 . S
C331 C330 1.363 . S
C331 C334 1.363 . S
N332 C334 1.356 . S
N332 H344 0.984 . S
N332 H345 0.985 . S
N333 C335 1.356 . S
N333 H338 0.984 . S
N333 H339 0.985 . S
C334 C328 1.379 . S
C334 C331 1.363 . S
C334 N332 1.356 . S
C335 C329 1.363 . S
C335 C330 1.379 . S
C335 N333 1.356 . S
N336 C328 1.356 . S
N336 H342 0.984 . S
N336 H343 0.984 . S
N337 C330 1.356 . S
N337 H340 0.984 . S
N337 H341 0.985 . S
H338 N333 0.984 . S
H339 N333 0.985 . S
H340 N337 0.984 . S
H341 N337 0.985 . S
H342 N336 0.984 . S
H343 N336 0.984 . S
H344 N332 0.984 . S
H345 N332 0.985 . S
C346 C347 1.363 . S
C346 C352 1.379 . S
C346 N354 1.356 . S
C347 C346 1.363 . S
C347 C353 1.363 . S
C348 C349 1.363 . S
C348 C353 1.379 . S
C348 N355 1.356 . S
C349 C348 1.363 . S
C349 C352 1.363 . S
N350 C352 1.356 1_554 S
N350 H362 0.984 . S
N350 H363 0.985 . S
N351 C353 1.356 . S
N351 H356 0.984 . S
N351 H357 0.985 . S
C352 C346 1.379 . S
C352 C349 1.363 . S
C352 N350 1.356 1_556 S
C353 C347 1.363 . S
C353 C348 1.379 . S
C353 N351 1.356 . S
N354 C346 1.356 . S
N354 H360 0.984 1_556 S
N354 H361 0.984 . S
N355 C348 1.356 . S
N355 H358 0.984 . S
N355 H359 0.985 . S
H356 N351 0.984 . S
H357 N351 0.985 . S
H358 N355 0.984 . S
H359 N355 0.985 . S
H360 N354 0.984 1_554 S
H361 N354 0.984 . S
H362 N350 0.984 . S
H363 N350 0.985 . S
C364 C365 1.363 . S
C364 C370 1.379 . S
C364 N372 1.356 . S
C365 C364 1.363 . S
C365 C371 1.363 . S
C366 C367 1.363 . S
C366 C371 1.379 . S
C366 N373 1.356 . S
C367 C366 1.363 . S
C367 C370 1.363 . S
N368 C370 1.356 1_455 S
N368 H380 0.984 . S
N368 H381 0.985 . S
N369 C371 1.356 . S
N369 H374 0.984 . S
N369 H375 0.985 . S
C370 C364 1.379 . S
C370 C367 1.363 . S
C370 N368 1.356 1_655 S
C371 C365 1.363 . S
C371 C366 1.379 . S
C371 N369 1.356 . S
N372 C364 1.356 . S
N372 H378 0.984 . S
N372 H379 0.984 . S
N373 C366 1.356 . S
N373 H376 0.984 . S
N373 H377 0.985 . S
H374 N369 0.984 . S
H375 N369 0.985 . S
H376 N373 0.984 . S
H377 N373 0.985 . S
H378 N372 0.984 . S
H379 N372 0.984 . S
H380 N368 0.984 . S
H381 N368 0.985 . S
C382 C383 1.363 . S
C382 C388 1.379 . S
C382 N390 1.356 . S
C383 C382 1.363 . S
C383 C389 1.363 . S
C384 C385 1.363 . S
C384 C389 1.379 . S
C384 N391 1.356 . S
C385 C384 1.363 . S
C385 C388 1.363 . S
N386 C388 1.356 . S
N386 H398 0.984 . S
N386 H399 0.985 . S
N387 C389 1.356 . S
N387 H392 0.984 . S
N387 H393 0.985 . S
C388 C382 1.379 . S
C388 C385 1.363 . S
C388 N386 1.356 . S
C389 C383 1.363 . S
C389 C384 1.379 . S
C389 N387 1.356 . S
N390 C382 1.356 . S
N390 H396 0.984 . S
N390 H397 0.984 . S
N391 C384 1.356 . S
N391 H394 0.984 . S
N391 H395 0.985 . S
H392 N387 0.984 . S
H393 N387 0.985 . S
H394 N391 0.984 . S
H395 N391 0.985 . S
H396 N390 0.984 . S
H397 N390 0.984 . S
H398 N386 0.984 . S
H399 N386 0.985 . S
C400 C401 1.363 . S
C400 C406 1.379 . S
C400 N408 1.356 . S
C401 C400 1.363 . S
C401 C407 1.363 . S
C402 C403 1.363 . S
C402 C407 1.379 . S
C402 N409 1.356 . S
C403 C402 1.363 . S
C403 C406 1.363 . S
N404 C406 1.356 . S
N404 H416 0.984 . S
N404 H417 0.985 . S
N405 C407 1.356 . S
N405 H410 0.984 . S
N405 H411 0.985 . S
C406 C400 1.379 . S
C406 C403 1.363 . S
C406 N404 1.356 . S
C407 C401 1.363 . S
C407 C402 1.379 . S
C407 N405 1.356 . S
N408 C400 1.356 . S
N408 H414 0.984 . S
N408 H415 0.984 . S
N409 C402 1.356 . S
N409 H412 0.984 . S
N409 H413 0.985 . S
H410 N405 0.984 . S
H411 N405 0.985 . S
H412 N409 0.984 . S
H413 N409 0.985 . S
H414 N408 0.984 . S
H415 N408 0.984 . S
H416 N404 0.984 . S
H417 N404 0.985 . S
C418 C419 1.363 . S
C418 C424 1.379 . S
C418 N426 1.356 . S
C419 C418 1.363 . S
C419 C425 1.363 . S
C420 C421 1.363 . S
C420 C425 1.379 . S
C420 N427 1.356 . S
C421 C420 1.363 . S
C421 C424 1.363 . S
N422 C424 1.356 . S
N422 H434 0.984 . S
N422 H435 0.985 . S
N423 C425 1.356 . S
N423 H428 0.984 . S
N423 H429 0.985 . S
C424 C418 1.379 . S
C424 C421 1.363 . S
C424 N422 1.356 . S
C425 C419 1.363 . S
C425 C420 1.379 . S
C425 N423 1.356 . S
N426 C418 1.356 . S
N426 H432 0.984 . S
N426 H433 0.984 . S
N427 C420 1.356 . S
N427 H430 0.984 . S
N427 H431 0.985 . S
H428 N423 0.984 . S
H429 N423 0.985 . S
H430 N427 0.984 . S
H431 N427 0.985 . S
H432 N426 0.984 . S
H433 N426 0.984 . S
H434 N422 0.984 . S
H435 N422 0.985 . S
C436 C437 1.363 . S
C436 C442 1.379 . S
C436 N444 1.356 . S
C437 C436 1.363 . S
C437 C443 1.363 . S
C438 C439 1.363 . S
C438 C443 1.379 . S
C438 N445 1.356 . S
C439 C438 1.363 . S
C439 C442 1.363 . S
N440 C442 1.356 . S
N440 H452 0.984 . S
N440 H453 0.985 . S
N441 C443 1.356 . S
N441 H446 0.984 . S
N441 H447 0.985 . S
C442 C436 1.379 . S
C442 C439 1.363 . S
C442 N440 1.356 . S
C443 C437 1.363 . S
C443 C438 1.379 . S
C443 N441 1.356 . S
N444 C436 1.356 . S
N444 H450 0.984 . S
N444 H451 0.984 . S
N445 C438 1.356 . S
N445 H448 0.984 . S
N445 H449 0.985 . S
H446 N441 0.984 . S
H447 N441 0.985 . S
H448 N445 0.984 . S
H449 N445 0.985 . S
H450 N444 0.984 . S
H451 N444 0.984 . S
H452 N440 0.984 . S
H453 N440 0.985 . S
C454 C455 1.363 . S
C454 C460 1.379 . S
C454 N462 1.356 . S
C455 C454 1.363 . S
C455 C461 1.363 . S
C456 C457 1.363 . S
C456 C461 1.379 . S
C456 N463 1.356 1_455 S
C457 C456 1.363 . S
C457 C460 1.363 . S
N458 C460 1.356 . S
N458 H470 0.984 . S
N458 H471 0.985 . S
N459 C461 1.356 . S
N459 H464 0.984 . S
N459 H465 0.985 1_455 S
C460 C454 1.379 . S
C460 C457 1.363 . S
C460 N458 1.356 . S
C461 C455 1.363 . S
C461 C456 1.379 . S
C461 N459 1.356 . S
N462 C454 1.356 . S
N462 H468 0.984 . S
N462 H469 0.984 . S
N463 C456 1.356 1_655 S
N463 H466 0.984 . S
N463 H467 0.985 . S
H464 N459 0.984 . S
H465 N459 0.985 1_655 S
H466 N463 0.984 . S
H467 N463 0.985 . S
H468 N462 0.984 . S
H469 N462 0.984 . S
H470 N458 0.984 . S
H471 N458 0.985 . S
C472 C473 1.363 . S
C472 C478 1.379 . S
C472 N480 1.356 . S
C473 C472 1.363 . S
C473 C479 1.363 . S
C474 C475 1.363 . S
C474 C479 1.379 . S
C474 N481 1.356 . S
C475 C474 1.363 . S
C475 C478 1.363 . S
N476 C478 1.356 . S
N476 H488 0.984 1_565 S
N476 H489 0.985 1_565 S
N477 C479 1.356 . S
N477 H482 0.984 . S
N477 H483 0.985 . S
C478 C472 1.379 . S
C478 C475 1.363 . S
C478 N476 1.356 . S
C479 C473 1.363 . S
C479 C474 1.379 . S
C479 N477 1.356 . S
N480 C472 1.356 . S
N480 H486 0.984 . S
N480 H487 0.984 . S
N481 C474 1.356 . S
N481 H484 0.984 . S
N481 H485 0.985 . S
H482 N477 0.984 . S
H483 N477 0.985 . S
H484 N481 0.984 . S
H485 N481 0.985 . S
H486 N480 0.984 . S
H487 N480 0.984 . S
H488 N476 0.984 1_545 S
H489 N476 0.985 1_545 S
C490 C491 1.363 . S
C490 C496 1.379 . S
C490 N498 1.356 . S
C491 C490 1.363 . S
C491 C497 1.363 . S
C492 C493 1.363 . S
C492 C497 1.379 . S
C492 N499 1.356 . S
C493 C492 1.363 . S
C493 C496 1.363 . S
N494 C496 1.356 . S
N494 H506 0.984 . S
N494 H507 0.985 . S
N495 C497 1.356 . S
N495 H500 0.984 . S
N495 H501 0.985 . S
C496 C490 1.379 . S
C496 C493 1.363 . S
C496 N494 1.356 . S
C497 C491 1.363 . S
C497 C492 1.379 . S
C497 N495 1.356 . S
N498 C490 1.356 . S
N498 H504 0.984 . S
N498 H505 0.984 . S
N499 C492 1.356 . S
N499 H502 0.984 . S
N499 H503 0.985 . S
H500 N495 0.984 . S
H501 N495 0.985 . S
H502 N499 0.984 . S
H503 N499 0.985 . S
H504 N498 0.984 . S
H505 N498 0.984 . S
H506 N494 0.984 . S
H507 N494 0.985 . S
C508 C509 1.363 . S
C508 C514 1.379 . S
C508 N516 1.356 . S
C509 C508 1.363 . S
C509 C515 1.363 . S
C510 C511 1.363 . S
C510 C515 1.379 . S
C510 N517 1.356 . S
C511 C510 1.363 . S
C511 C514 1.363 . S
N512 C514 1.356 . S
N512 H524 0.984 1_554 S
N512 H525 0.985 1_554 S
N513 C515 1.356 . S
N513 H518 0.984 . S
N513 H519 0.985 . S
C514 C508 1.379 . S
C514 C511 1.363 . S
C514 N512 1.356 . S
C515 C509 1.363 . S
C515 C510 1.379 . S
C515 N513 1.356 . S
N516 C508 1.356 . S
N516 H522 0.984 . S
N516 H523 0.984 . S
N517 C510 1.356 . S
N517 H520 0.984 . S
N517 H521 0.985 . S
H518 N513 0.984 . S
H519 N513 0.985 . S
H520 N517 0.984 . S
H521 N517 0.985 . S
H522 N516 0.984 . S
H523 N516 0.984 . S
H524 N512 0.984 1_556 S
H525 N512 0.985 1_556 S
C526 C527 1.363 . S
C526 C532 1.379 . S
C526 N534 1.356 . S
C527 C526 1.363 . S
C527 C533 1.363 . S
C528 C529 1.363 . S
C528 C533 1.379 . S
C528 N535 1.356 . S
C529 C528 1.363 . S
C529 C532 1.363 . S
N530 C532 1.356 . S
N530 H542 0.984 . S
N530 H543 0.985 . S
N531 C533 1.356 . S
N531 H536 0.984 . S
N531 H537 0.985 . S
C532 C526 1.379 . S
C532 C529 1.363 . S
C532 N530 1.356 . S
C533 C527 1.363 . S
C533 C528 1.379 . S
C533 N531 1.356 . S
N534 C526 1.356 . S
N534 H540 0.984 . S
N534 H541 0.984 . S
N535 C528 1.356 . S
N535 H538 0.984 . S
N535 H539 0.985 . S
H536 N531 0.984 . S
H537 N531 0.985 . S
H538 N535 0.984 . S
H539 N535 0.985 . S
H540 N534 0.984 . S
H541 N534 0.984 . S
H542 N530 0.984 . S
H543 N530 0.985 . S
C544 C545 1.363 . S
C544 C550 1.379 . S
C544 N552 1.356 . S
C545 C544 1.363 . S
C545 C551 1.363 . S
C546 C547 1.363 . S
C546 C551 1.379 . S
C546 N553 1.356 . S
C547 C546 1.363 . S
C547 C550 1.363 . S
N548 C550 1.356 . S
N548 H560 0.984 . S
N548 H561 0.985 . S
N549 C551 1.356 . S
N549 H554 0.984 . S
N549 H555 0.985 . S
C550 C544 1.379 . S
C550 C547 1.363 . S
C550 N548 1.356 . S
C551 C545 1.363 . S
C551 C546 1.379 . S
C551 N549 1.356 . S
N552 C544 1.356 . S
N552 H558 0.984 . S
N552 H559 0.984 . S
N553 C546 1.356 . S
N553 H556 0.984 . S
N553 H557 0.985 . S
H554 N549 0.984 . S
H555 N549 0.985 . S
H556 N553 0.984 . S
H557 N553 0.985 . S
H558 N552 0.984 . S
H559 N552 0.984 . S
H560 N548 0.984 . S
H561 N548 0.985 . S
C562 C563 1.363 . S
C562 C568 1.379 . S
C562 N570 1.356 . S
C563 C562 1.363 . S
C563 C569 1.363 . S
C564 C565 1.363 . S
C564 C569 1.379 . S
C564 N571 1.356 . S
C565 C564 1.363 . S
C565 C568 1.363 . S
N566 C568 1.356 . S
N566 H578 0.984 . S
N566 H579 0.985 . S
N567 C569 1.356 . S
N567 H572 0.984 . S
N567 H573 0.985 . S
C568 C562 1.379 . S
C568 C565 1.363 . S
C568 N566 1.356 . S
C569 C563 1.363 . S
C569 C564 1.379 . S
C569 N567 1.356 . S
N570 C562 1.356 . S
N570 H576 0.984 . S
N570 H577 0.984 . S
N571 C564 1.356 . S
N571 H574 0.984 . S
N571 H575 0.985 . S
H572 N567 0.984 . S
H573 N567 0.985 . S
H574 N571 0.984 . S
H575 N571 0.985 . S
H576 N570 0.984 . S
H577 N570 0.984 . S
H578 N566 0.984 . S
H579 N566 0.985 . S
C580 C581 1.363 . S
C580 C586 1.379 . S
C580 N588 1.356 . S
C581 C580 1.363 . S
C581 C587 1.363 . S
C582 C583 1.363 . S
C582 C587 1.379 . S
C582 N589 1.356 . S
C583 C582 1.363 . S
C583 C586 1.363 . S
N584 C586 1.356 . S
N584 H596 0.984 . S
N584 H597 0.985 . S
N585 C587 1.356 . S
N585 H590 0.984 . S
N585 H591 0.985 . S
C586 C580 1.379 . S
C586 C583 1.363 . S
C586 N584 1.356 . S
C587 C581 1.363 . S
C587 C582 1.379 . S
C587 N585 1.356 . S
N588 C580 1.356 . S
N588 H594 0.984 . S
N588 H595 0.984 . S
N589 C582 1.356 . S
N589 H592 0.984 . S
N589 H593 0.985 . S
H590 N585 0.984 . S
H591 N585 0.985 . S
H592 N589 0.984 . S
H593 N589 0.985 . S
H594 N588 0.984 . S
H595 N588 0.984 . S
H596 N584 0.984 . S
H597 N584 0.985 . S
C598 C599 1.363 . S
C598 C604 1.379 . S
C598 N606 1.356 . S
C599 C598 1.363 . S
C599 C605 1.363 . S
C600 C601 1.363 . S
C600 C605 1.379 . S
C600 N607 1.356 . S
C601 C600 1.363 . S
C601 C604 1.363 . S
N602 C604 1.356 . S
N602 H614 0.984 . S
N602 H615 0.985 . S
N603 C605 1.356 . S
N603 H608 0.984 . S
N603 H609 0.985 . S
C604 C598 1.379 . S
C604 C601 1.363 . S
C604 N602 1.356 . S
C605 C599 1.363 . S
C605 C600 1.379 . S
C605 N603 1.356 . S
N606 C598 1.356 . S
N606 H612 0.984 . S
N606 H613 0.984 . S
N607 C600 1.356 . S
N607 H610 0.984 . S
N607 H611 0.985 . S
H608 N603 0.984 . S
H609 N603 0.985 . S
H610 N607 0.984 . S
H611 N607 0.985 . S
H612 N606 0.984 . S
H613 N606 0.984 . S
H614 N602 0.984 . S
H615 N602 0.985 . S
C185 N1 1.316 . S
C187 C106 1.350 . S
C203 N18 1.454 . S
C205 C125 1.475 . S
C223 C162 1.495 . S
C221 N28 1.526 . S
C239 N40 1.864 . S
C241 C172 1.873 . S
C259 C142 1.997 . S
C257 N5 1.970 . S
C277 C112 1.380 . S
C275 N14 1.407 . S
C295 C183 1.621 . S
C293 N31 1.611 . S
C313 C153 1.278 . S
C311 N41 1.297 . S
C329 N2 1.470 . S
C331 C166 1.499 . S
C349 C133 1.775 . S
C347 N27 1.827 . S
C365 N44 1.789 . S
C367 C123 1.824 . S
C383 N15 1.157 . S
C385 C145 1.132 . S
C403 C105 1.568 . S
C401 N57 1.607 . S
C419 N70 1.238 . S
C421 C126 1.261 . S
C437 N79 1.680 . S
C439 C163 1.713 . S
C455 N93 1.709 . S
C457 C173 1.692 . S
C473 N54 1.617 . S
C475 C143 1.676 . S
C493 C113 1.690 . S
C491 N66 1.783 . S
C511 C182 1.199 . S
C509 N80 1.232 . S
C529 C152 1.527 . S
C527 N96 1.531 . S
C545 N53 1.492 . S
C547 C165 1.521 . S
C565 C132 1.655 . S
C563 N83 1.654 . S
C583 C122 1.925 . S
C581 N92 1.898 . S
C599 N67 1.272 . S
C601 C146 1.307 . S
