# Generated by pormake.
# Topology ctn, (3,4)-cn, num edge types: 1
# Building blocks:
#     Node 0, Type 0, BuildingBlock: MIDCAF_clean_linker_0, # of connection points: 3
#     Node 1, Type 0, BuildingBlock: MIDCAF_clean_linker_0, # of connection points: 3
#     Node 2, Type 0, BuildingBlock: MIDCAF_clean_linker_0, # of connection points: 3
#     Node 3, Type 0, BuildingBlock: MIDCAF_clean_linker_0, # of connection points: 3
#     Node 4, Type 0, BuildingBlock: MIDCAF_clean_linker_0, # of connection points: 3
#     Node 5, Type 0, BuildingBlock: MIDCAF_clean_linker_0, # of connection points: 3
#     Node 6, Type 0, BuildingBlock: MIDCAF_clean_linker_0, # of connection points: 3
#     Node 7, Type 0, BuildingBlock: MIDCAF_clean_linker_0, # of connection points: 3
#     Node 8, Type 0, BuildingBlock: MIDCAF_clean_linker_0, # of connection points: 3
#     Node 9, Type 0, BuildingBlock: MIDCAF_clean_linker_0, # of connection points: 3
#     Node 10, Type 0, BuildingBlock: MIDCAF_clean_linker_0, # of connection points: 3
#     Node 11, Type 0, BuildingBlock: MIDCAF_clean_linker_0, # of connection points: 3
#     Node 12, Type 0, BuildingBlock: MIDCAF_clean_linker_0, # of connection points: 3
#     Node 13, Type 0, BuildingBlock: MIDCAF_clean_linker_0, # of connection points: 3
#     Node 14, Type 0, BuildingBlock: MIDCAF_clean_linker_0, # of connection points: 3
#     Node 15, Type 0, BuildingBlock: MIDCAF_clean_linker_0, # of connection points: 3
#     Node 16, Type 1, BuildingBlock: TATPOV_clean_sbu_0, # of connection points: 4
#     Node 17, Type 1, BuildingBlock: TATPOV_clean_sbu_0, # of connection points: 4
#     Node 18, Type 1, BuildingBlock: TATPOV_clean_sbu_0, # of connection points: 4
#     Node 19, Type 1, BuildingBlock: TATPOV_clean_sbu_0, # of connection points: 4
#     Node 20, Type 1, BuildingBlock: TATPOV_clean_sbu_0, # of connection points: 4
#     Node 21, Type 1, BuildingBlock: TATPOV_clean_sbu_0, # of connection points: 4
#     Node 22, Type 1, BuildingBlock: TATPOV_clean_sbu_0, # of connection points: 4
#     Node 23, Type 1, BuildingBlock: TATPOV_clean_sbu_0, # of connection points: 4
#     Node 24, Type 1, BuildingBlock: TATPOV_clean_sbu_0, # of connection points: 4
#     Node 25, Type 1, BuildingBlock: TATPOV_clean_sbu_0, # of connection points: 4
#     Node 26, Type 1, BuildingBlock: TATPOV_clean_sbu_0, # of connection points: 4
#     Node 27, Type 1, BuildingBlock: TATPOV_clean_sbu_0, # of connection points: 4
#     Edge 28, Type (0, 1), BuildingBlock: KIFKEQ_clean_linker_1, # of connection points: 2
#     Edge 29, Type (0, 1), BuildingBlock: KIFKEQ_clean_linker_1, # of connection points: 2
#     Edge 30, Type (0, 1), BuildingBlock: KIFKEQ_clean_linker_1, # of connection points: 2
#     Edge 31, Type (0, 1), BuildingBlock: KIFKEQ_clean_linker_1, # of connection points: 2
#     Edge 32, Type (0, 1), BuildingBlock: KIFKEQ_clean_linker_1, # of connection points: 2
#     Edge 33, Type (0, 1), BuildingBlock: KIFKEQ_clean_linker_1, # of connection points: 2
#     Edge 34, Type (0, 1), BuildingBlock: KIFKEQ_clean_linker_1, # of connection points: 2
#     Edge 35, Type (0, 1), BuildingBlock: KIFKEQ_clean_linker_1, # of connection points: 2
#     Edge 36, Type (0, 1), BuildingBlock: KIFKEQ_clean_linker_1, # of connection points: 2
#     Edge 37, Type (0, 1), BuildingBlock: KIFKEQ_clean_linker_1, # of connection points: 2
#     Edge 38, Type (0, 1), BuildingBlock: KIFKEQ_clean_linker_1, # of connection points: 2
#     Edge 39, Type (0, 1), BuildingBlock: KIFKEQ_clean_linker_1, # of connection points: 2
#     Edge 40, Type (0, 1), BuildingBlock: KIFKEQ_clean_linker_1, # of connection points: 2
#     Edge 41, Type (0, 1), BuildingBlock: KIFKEQ_clean_linker_1, # of connection points: 2
#     Edge 42, Type (0, 1), BuildingBlock: KIFKEQ_clean_linker_1, # of connection points: 2
#     Edge 43, Type (0, 1), BuildingBlock: KIFKEQ_clean_linker_1, # of connection points: 2
#     Edge 44, Type (0, 1), BuildingBlock: KIFKEQ_clean_linker_1, # of connection points: 2
#     Edge 45, Type (0, 1), BuildingBlock: KIFKEQ_clean_linker_1, # of connection points: 2
#     Edge 46, Type (0, 1), BuildingBlock: KIFKEQ_clean_linker_1, # of connection points: 2
#     Edge 47, Type (0, 1), BuildingBlock: KIFKEQ_clean_linker_1, # of connection points: 2
#     Edge 48, Type (0, 1), BuildingBlock: KIFKEQ_clean_linker_1, # of connection points: 2
#     Edge 49, Type (0, 1), BuildingBlock: KIFKEQ_clean_linker_1, # of connection points: 2
#     Edge 50, Type (0, 1), BuildingBlock: KIFKEQ_clean_linker_1, # of connection points: 2
#     Edge 51, Type (0, 1), BuildingBlock: KIFKEQ_clean_linker_1, # of connection points: 2
#     Edge 52, Type (0, 1), BuildingBlock: KIFKEQ_clean_linker_1, # of connection points: 2
#     Edge 53, Type (0, 1), BuildingBlock: KIFKEQ_clean_linker_1, # of connection points: 2
#     Edge 54, Type (0, 1), BuildingBlock: KIFKEQ_clean_linker_1, # of connection points: 2
#     Edge 55, Type (0, 1), BuildingBlock: KIFKEQ_clean_linker_1, # of connection points: 2
#     Edge 56, Type (0, 1), BuildingBlock: KIFKEQ_clean_linker_1, # of connection points: 2
#     Edge 57, Type (0, 1), BuildingBlock: KIFKEQ_clean_linker_1, # of connection points: 2
#     Edge 58, Type (0, 1), BuildingBlock: KIFKEQ_clean_linker_1, # of connection points: 2
#     Edge 59, Type (0, 1), BuildingBlock: KIFKEQ_clean_linker_1, # of connection points: 2
#     Edge 60, Type (0, 1), BuildingBlock: KIFKEQ_clean_linker_1, # of connection points: 2
#     Edge 61, Type (0, 1), BuildingBlock: KIFKEQ_clean_linker_1, # of connection points: 2
#     Edge 62, Type (0, 1), BuildingBlock: KIFKEQ_clean_linker_1, # of connection points: 2
#     Edge 63, Type (0, 1), BuildingBlock: KIFKEQ_clean_linker_1, # of connection points: 2
#     Edge 64, Type (0, 1), BuildingBlock: KIFKEQ_clean_linker_1, # of connection points: 2
#     Edge 65, Type (0, 1), BuildingBlock: KIFKEQ_clean_linker_1, # of connection points: 2
#     Edge 66, Type (0, 1), BuildingBlock: KIFKEQ_clean_linker_1, # of connection points: 2
#     Edge 67, Type (0, 1), BuildingBlock: KIFKEQ_clean_linker_1, # of connection points: 2
#     Edge 68, Type (0, 1), BuildingBlock: KIFKEQ_clean_linker_1, # of connection points: 2
#     Edge 69, Type (0, 1), BuildingBlock: KIFKEQ_clean_linker_1, # of connection points: 2
#     Edge 70, Type (0, 1), BuildingBlock: KIFKEQ_clean_linker_1, # of connection points: 2
#     Edge 71, Type (0, 1), BuildingBlock: KIFKEQ_clean_linker_1, # of connection points: 2
#     Edge 72, Type (0, 1), BuildingBlock: KIFKEQ_clean_linker_1, # of connection points: 2
#     Edge 73, Type (0, 1), BuildingBlock: KIFKEQ_clean_linker_1, # of connection points: 2
#     Edge 74, Type (0, 1), BuildingBlock: KIFKEQ_clean_linker_1, # of connection points: 2
#     Edge 75, Type (0, 1), BuildingBlock: KIFKEQ_clean_linker_1, # of connection points: 2
# Relax obj value: 0.003
# Max RMSD: 0.048
# Mean RMSD: 0.021
data_MOF--net-ctn--node1-TATPOV_clean_sbu_0--node2-MIDCAF_clean_linker_0--edge1-KIFKEQ_clean_linker_1
_symmetry_space_group_name_H-M    P1
_symmetry_Int_Tables_number       1
_symmetry_cell_setting            triclinic
loop_
_symmetry_equiv_pos_as_xyz
'x, y, z'
_cell_length_a     68.041567
_cell_length_b     68.034349
_cell_length_c     68.046179
_cell_angle_alpha  91.043974
_cell_angle_beta   90.974569
_cell_angle_gamma 91.088448
loop_
_atom_site_label
_atom_site_type_symbol
_atom_site_fract_x
_atom_site_fract_y
_atom_site_fract_z
_atom_type_partial_charge
C0 C 0.9815 0.03786 0.07997 0.0
C1 C 0.98203 0.02101 0.09161 0.0
C2 C 0.99649 0.00698 0.08795 0.0
C3 C 0.01007 0.0097 0.07299 0.0
H4 H 0.06258 0.989 0.05213 0.0
H5 H 0.08908 0.96581 0.04764 0.0
H6 H 0.10335 0.99256 0.9925 0.0
H7 H 0.07678 0.01568 0.9968 0.0
H8 H 0.05472 0.05353 0.98363 0.0
H9 H 0.05129 0.08084 0.96128 0.0
H10 H 0.00613 0.10514 0.99776 0.0
H11 H 0.00962 0.07794 0.02031 0.0
H12 H 0.99405 0.05365 0.0562 0.0
H13 H 0.97043 0.04885 0.08227 0.0
H14 H 0.99745 0.99395 0.09681 0.0
H15 H 0.02097 0.99854 0.07062 0.0
N16 N 0.03844 0.01626 0.04244 0.0
N17 N 0.04922 0.0337 0.01511 0.0
N18 N 0.02186 0.04442 0.03254 0.0
C19 C 0.05131 0.01842 0.02753 0.0
C20 C 0.03457 0.0468 0.01751 0.0
C21 C 0.02365 0.02917 0.04504 0.0
C22 C 0.06747 0.00426 0.02483 0.0
C23 C 0.07132 0.98997 0.03901 0.0
C24 C 0.0866 0.97672 0.03651 0.0
C25 C 0.09833 0.97734 0.01972 0.0
C26 C 0.09446 0.99156 0.0055 0.0
C27 C 0.07927 0.0049 0.00805 0.0
C28 C 0.03245 0.06346 0.00384 0.0
C29 C 0.04405 0.06467 0.98696 0.0
C30 C 0.04201 0.08029 0.97404 0.0
C31 C 0.02842 0.09516 0.97771 0.0
C32 C 0.01687 0.09402 0.99461 0.0
C33 C 0.01881 0.07834 0.00748 0.0
C34 C 0.00946 0.02648 0.06121 0.0
C35 C 0.99501 0.04054 0.06493 0.0
C36 C 0.23234 0.65769 0.25237 0.0
C37 C 0.21493 0.65617 0.24099 0.0
C38 C 0.21128 0.67048 0.2268 0.0
C39 C 0.22476 0.68593 0.22405 0.0
H40 H 0.23398 0.73731 0.19233 0.0
H41 H 0.23074 0.75901 0.16418 0.0
H42 H 0.29017 0.7805 0.17434 0.0
H43 H 0.29353 0.75911 0.20234 0.0
H44 H 0.31121 0.7508 0.24813 0.0
H45 H 0.34273 0.75185 0.2654 0.0
H46 H 0.33822 0.68917 0.2744 0.0
H47 H 0.30607 0.68839 0.25794 0.0
H48 H 0.2591 0.67362 0.25861 0.0
H49 H 0.23576 0.64675 0.26321 0.0
H50 H 0.19791 0.66983 0.21793 0.0
H51 H 0.22147 0.69668 0.21298 0.0
N52 N 0.2535 0.71734 0.2185 0.0
N53 N 0.28385 0.7326 0.22648 0.0
N54 N 0.27388 0.70433 0.24304 0.0
C55 C 0.26699 0.73194 0.21548 0.0
C56 C 0.2874 0.71889 0.24027 0.0
C57 C 0.25681 0.70351 0.23231 0.0
C58 C 0.26409 0.74627 0.19953 0.0
C59 C 0.2463 0.7468 0.1887 0.0
C60 C 0.24437 0.75929 0.17264 0.0
C61 C 0.26027 0.77126 0.16702 0.0
C62 C 0.27776 0.77124 0.17824 0.0
C63 C 0.27963 0.75898 0.19434 0.0
C64 C 0.30619 0.7195 0.25157 0.0
C65 C 0.3169 0.73726 0.25388 0.0
C66 C 0.33509 0.73781 0.26367 0.0
C67 C 0.34329 0.72053 0.27108 0.0
C68 C 0.33235 0.70281 0.26909 0.0
C69 C 0.31394 0.70233 0.25957 0.0
C70 C 0.24224 0.68738 0.23538 0.0
C71 C 0.24581 0.67308 0.24962 0.0
C72 C 0.98749 0.38674 0.01872 0.0
C73 C 0.97164 0.37985 0.00681 0.0
C74 C 0.95313 0.38834 0.00921 0.0
C75 C 0.95068 0.40381 0.02267 0.0
H76 H 0.91446 0.44966 0.03303 0.0
H77 H 0.8865 0.47072 0.02836 0.0
H78 H 0.90778 0.50889 0.07584 0.0
H79 H 0.93619 0.488 0.08029 0.0
H80 H 0.97444 0.47394 0.10512 0.0
H81 H -0.00044 0.48074 0.1303 0.0
H82 H 0.04025 0.44468 0.09832 0.0
H83 H 0.0149 0.4373 0.0735 0.0
H84 H 0.99766 0.40736 0.0409 0.0
H85 H 0.002 0.38072 0.01711 0.0
H86 H 0.94052 0.38315 0.00054 0.0
H87 H 0.93627 0.41016 0.02389 0.0
N88 N 0.94773 0.43904 0.04675 0.0
N89 N 0.96012 0.46007 0.07186 0.0
N90 N 0.9788 0.43359 0.06073 0.0
C91 C 0.94553 0.45501 0.05875 0.0
C92 C 0.97681 0.44945 0.07292 0.0
C93 C 0.96429 0.42823 0.04766 0.0
C94 C 0.92772 0.46716 0.05696 0.0
C95 C 0.91319 0.46244 0.04262 0.0
C96 C 0.89701 0.47447 0.04002 0.0
C97 C 0.89486 0.49151 0.05174 0.0
C98 C 0.90912 0.496 0.06642 0.0
C99 C 0.92536 0.48395 0.06901 0.0
C100 C 0.99256 0.45487 0.08741 0.0
C101 C 0.98879 0.46758 0.10336 0.0
C102 C 0.00328 0.47161 0.11775 0.0
C103 C 0.02194 0.46318 0.11643 0.0
C104 C 0.02593 0.45111 0.10003 0.0
C105 C 0.01139 0.44692 0.08576 0.0
C106 C 0.96666 0.41109 0.03418 0.0
C107 C 0.98502 0.40214 0.03229 0.0
C108 C 0.74308 0.73518 0.14937 0.0
C109 C 0.73311 0.71689 0.14934 0.0
C110 C 0.7204 0.7127 0.16485 0.0
C111 C 0.71761 0.72654 0.17995 0.0
H112 H 0.68942 0.73517 0.23326 0.0
H113 H 0.66472 0.72942 0.25815 0.0
H114 H 0.66678 0.79127 0.27395 0.0
H115 H 0.69184 0.79686 0.24968 0.0
H116 H 0.72364 0.82437 0.2319 0.0
H117 H 0.7411 0.85586 0.23176 0.0
H118 H 0.77842 0.83441 0.1857 0.0
H119 H 0.76105 0.80267 0.18588 0.0
H120 H 0.74812 0.76299 0.16382 0.0
H121 H 0.75277 0.73901 0.13751 0.0
H122 H 0.71268 0.69866 0.1654 0.0
H123 H 0.70765 0.72281 0.19162 0.0
N124 N 0.71092 0.75633 0.20995 0.0
N125 N 0.71711 0.78782 0.22348 0.0
N126 N 0.73376 0.77755 0.19536 0.0
C127 C 0.70736 0.77023 0.22398 0.0
C128 C 0.73038 0.7916 0.20928 0.0
C129 C 0.72408 0.75989 0.19555 0.0
C130 C 0.69265 0.76649 0.23941 0.0
C131 C 0.68468 0.74752 0.24213 0.0
C132 C 0.67044 0.74423 0.25637 0.0
C133 C 0.66372 0.75985 0.26814 0.0
C134 C 0.67184 0.77877 0.26549 0.0
C135 C 0.68617 0.78203 0.2514 0.0
C136 C 0.74092 0.8109 0.20892 0.0
C137 C 0.73553 0.82629 0.22169 0.0
C138 C 0.74545 0.84444 0.22151 0.0
C139 C 0.76108 0.84766 0.20864 0.0
C140 C 0.76651 0.83233 0.19585 0.0
C141 C 0.75648 0.81417 0.19593 0.0
C142 C 0.72746 0.74491 0.17989 0.0
C143 C 0.74031 0.749 0.16445 0.0
C144 C 0.05214 0.90835 0.49336 0.0
C145 C 0.0412 0.89141 0.48754 0.0
C146 C 0.03585 0.88888 0.46756 0.0
C147 C 0.04038 0.90337 0.454 0.0
H148 H 0.00798 0.93574 0.41258 0.0
H149 H 0.98319 0.94209 0.38739 0.0
H150 H 0.02241 0.98397 0.36065 0.0
H151 H 0.04738 0.97781 0.386 0.0
H152 H 0.07726 0.00035 0.41839 0.0
H153 H 0.10356 0.02451 0.42449 0.0
H154 H 0.12812 0.98779 0.46949 0.0
H155 H 0.10153 0.96387 0.46383 0.0
H156 H 0.06493 0.93581 0.48479 0.0
H157 H 0.05633 0.91098 0.50862 0.0
H158 H 0.02789 0.87581 0.46238 0.0
H159 H 0.03561 0.90116 0.43883 0.0
N160 N 0.04172 0.93851 0.43025 0.0
N161 N 0.05885 0.96704 0.42112 0.0
N162 N 0.06875 0.95008 0.44921 0.0
C163 C 0.044 0.9537 0.41775 0.0
C164 C 0.07132 0.9653 0.43679 0.0
C165 C 0.05405 0.93658 0.44596 0.0
C166 C 0.02965 0.95638 0.40143 0.0
C167 C 0.01148 0.94618 0.40127 0.0
C168 C 0.99721 0.94986 0.38689 0.0
C169 C 0.00087 0.96361 0.3722 0.0
C170 C 0.01928 0.97326 0.37181 0.0
C171 C 0.0335 0.96979 0.38639 0.0
C172 C 0.08728 0.98009 0.44056 0.0
C173 C 0.08823 0.99741 0.42962 0.0
C174 C 0.10337 0.01126 0.43307 0.0
C175 C 0.118 0.00809 0.44745 0.0
C176 C 0.11694 0.99086 0.45851 0.0
C177 C 0.10174 0.97705 0.45515 0.0
C178 C 0.05073 0.92056 0.45998 0.0
C179 C 0.05699 0.92269 0.4797 0.0
C180 C 0.22559 0.74665 0.84302 0.0
C181 C 0.21297 0.76223 0.84727 0.0
C182 C 0.19946 0.76802 0.83274 0.0
C183 C 0.19854 0.75837 0.81439 0.0
H184 H 0.16428 0.75185 0.76456 0.0
H185 H 0.13692 0.75737 0.74202 0.0
H186 H 0.16129 0.71652 0.70013 0.0
H187 H 0.18892 0.71113 0.72253 0.0
H188 H 0.23035 0.69129 0.73272 0.0
H189 H 0.25407 0.66578 0.72564 0.0
H190 H 0.27311 0.66734 0.78659 0.0
H191 H 0.25004 0.69315 0.79348 0.0
H192 H 0.23479 0.72521 0.82199 0.0
H193 H 0.23638 0.74204 0.85379 0.0
H194 H 0.18947 0.7799 0.83562 0.0
H195 H 0.18793 0.76319 0.80355 0.0
N196 N 0.19603 0.73652 0.77733 0.0
N197 N 0.20895 0.71356 0.75513 0.0
N198 N 0.22408 0.719 0.78601 0.0
C199 C 0.19513 0.72706 0.75955 0.0
C200 C 0.22349 0.70945 0.76829 0.0
C201 C 0.21047 0.7326 0.79064 0.0
C202 C 0.17884 0.73097 0.74545 0.0
C203 C 0.16392 0.74407 0.75053 0.0
C204 C 0.14813 0.74717 0.73765 0.0
C205 C 0.14686 0.73729 0.71934 0.0
C206 C 0.16193 0.72447 0.71407 0.0
C207 C 0.17772 0.72132 0.72698 0.0
C208 C 0.23823 0.6943 0.76369 0.0
C209 C 0.23969 0.68626 0.74458 0.0
C210 C 0.25325 0.67157 0.74053 0.0
C211 C 0.26559 0.66447 0.75551 0.0
C212 C 0.2642 0.67268 0.77455 0.0
C213 C 0.25079 0.68744 0.77856 0.0
C214 C 0.21124 0.74282 0.81012 0.0
C215 C 0.22477 0.73709 0.82469 0.0
C216 C 0.97347 0.60193 0.51296 0.0
C217 C 0.95809 0.61006 0.52381 0.0
C218 C 0.9388 0.60292 0.52024 0.0
C219 C 0.93494 0.58818 0.50608 0.0
H220 H 0.89227 0.54746 0.48802 0.0
H221 H 0.86262 0.52698 0.48994 0.0
H222 H 0.88497 0.48805 0.44503 0.0
H223 H 0.91419 0.50874 0.44265 0.0
H224 H 0.94977 0.52755 0.41634 0.0
H225 H 0.97404 0.51948 0.39185 0.0
H226 H 0.01935 0.54835 0.42781 0.0
H227 H 0.99488 0.55707 0.45202 0.0
H228 H 0.98175 0.58146 0.49047 0.0
H229 H 0.98854 0.60683 0.51551 0.0
H230 H 0.92651 0.60907 0.52799 0.0
H231 H 0.91986 0.58325 0.50358 0.0
N232 N 0.92848 0.55524 0.47908 0.0
N233 N 0.93804 0.53748 0.45113 0.0
N234 N 0.95953 0.56109 0.46564 0.0
C235 C 0.92441 0.5413 0.46498 0.0
C236 C 0.9556 0.54734 0.45132 0.0
C237 C 0.946 0.56518 0.47952 0.0
C238 C 0.90572 0.52971 0.46526 0.0
C239 C 0.89078 0.53463 0.47841 0.0
C240 C 0.87379 0.52284 0.47958 0.0
C241 C 0.87138 0.5058 0.4677 0.0
C242 C 0.88611 0.50122 0.45419 0.0
C243 C 0.90301 0.51305 0.45293 0.0
C244 C 0.97038 0.54287 0.43622 0.0
C245 C 0.9649 0.53223 0.41903 0.0
C246 C 0.97887 0.52751 0.405 0.0
C247 C -0.00127 0.5331 0.40789 0.0
C248 C 0.00416 0.54401 0.42496 0.0
C249 C 0.99013 0.54891 0.43891 0.0
C250 C 0.95025 0.58035 0.49497 0.0
C251 C 0.96958 0.58732 0.49863 0.0
C252 C 0.88194 0.80441 0.78635 0.0
C253 C 0.87909 0.81529 0.76924 0.0
C254 C 0.8641 0.82917 0.76866 0.0
C255 C 0.85172 0.83166 0.78461 0.0
H256 H 0.811 0.86948 0.80943 0.0
H257 H 0.78363 0.89151 0.80415 0.0
H258 H 0.74814 0.85724 0.8434 0.0
H259 H 0.77543 0.83513 0.84874 0.0
H260 H 0.8006 0.80462 0.87704 0.0
H261 H 0.79559 0.77632 0.89809 0.0
H262 H 0.83793 0.74381 0.86472 0.0
H263 H 0.84305 0.77196 0.84368 0.0
H264 H 0.87156 0.79768 0.81503 0.0
H265 H 0.89337 0.79356 0.78712 0.0
H266 H 0.86175 0.8379 0.7557 0.0
H267 H 0.84002 0.84217 0.78342 0.0
N268 N 0.82562 0.83549 0.81727 0.0
N269 N 0.81036 0.82137 0.84437 0.0
N270 N 0.83833 0.80698 0.83102 0.0
C271 C 0.81115 0.83574 0.83077 0.0
C272 C 0.82396 0.80699 0.84466 0.0
C273 C 0.83931 0.82122 0.81732 0.0
C274 C 0.79538 0.8504 0.82937 0.0
C275 C 0.79745 0.86673 0.81712 0.0
C276 C 0.78182 0.87944 0.81417 0.0
C277 C 0.76373 0.87598 0.82324 0.0
C278 C 0.76187 0.86011 0.83605 0.0
C279 C 0.77755 0.84752 0.83918 0.0
C280 C 0.82213 0.79055 0.85856 0.0
C281 C 0.80898 0.79151 0.87427 0.0
C282 C 0.80617 0.77536 0.88641 0.0
C283 C 0.81627 0.75786 0.88293 0.0
C284 C 0.8298 0.75706 0.86759 0.0
C285 C 0.83278 0.77325 0.85561 0.0
C286 C 0.8539 0.82013 0.80143 0.0
C287 C 0.86938 0.80672 0.80227 0.0
C288 C 0.3817 0.29995 0.28865 0.0
C289 C 0.38664 0.31295 0.27365 0.0
C290 C 0.37949 0.33218 0.27439 0.0
C291 C 0.36692 0.33801 0.28937 0.0
H292 H 0.3218 0.37583 0.29802 0.0
H293 H 0.29783 0.4007 0.28991 0.0
H294 H 0.26861 0.39053 0.34471 0.0
H295 H 0.29256 0.3657 0.35299 0.0
H296 H 0.30352 0.32569 0.37791 0.0
H297 H 0.29082 0.29961 0.39906 0.0
H298 H 0.32176 0.25643 0.36496 0.0
H299 H 0.33473 0.28213 0.34417 0.0
H300 H 0.36542 0.29519 0.31472 0.0
H301 H 0.3872 0.28511 0.28857 0.0
H302 H 0.38294 0.34248 0.26294 0.0
H303 H 0.36119 0.35275 0.28916 0.0
N304 N 0.33626 0.34703 0.317 0.0
N305 N 0.3167 0.33819 0.34364 0.0
N306 N 0.34137 0.31724 0.3328 0.0
C307 C 0.32145 0.35123 0.32948 0.0
C308 C 0.32664 0.32117 0.3454 0.0
C309 C 0.3464 0.33012 0.31866 0.0
C310 C 0.30896 0.36851 0.32605 0.0
C311 C 0.31051 0.37911 0.30856 0.0
C312 C 0.29674 0.39333 0.30384 0.0
C313 C 0.28126 0.3974 0.31658 0.0
C314 C 0.28046 0.38778 0.33465 0.0
C315 C 0.29412 0.37344 0.33932 0.0
C316 C 0.32011 0.306 0.35932 0.0
C317 C 0.30776 0.31065 0.37507 0.0
C318 C 0.30053 0.29581 0.38718 0.0
C319 C 0.30523 0.27613 0.38342 0.0
C320 C 0.31784 0.27154 0.36799 0.0
C321 C 0.32533 0.28631 0.35617 0.0
C322 C 0.36134 0.32476 0.30398 0.0
C323 C 0.36927 0.30579 0.30369 0.0
C324 C 0.48052 0.88522 0.51338 0.0
C325 C 0.46934 0.88471 0.49584 0.0
C326 C 0.4556 0.89948 0.49253 0.0
C327 C 0.45351 0.91483 0.50617 0.0
H328 H 0.41497 0.95775 0.52556 0.0
H329 H 0.39017 0.98196 0.51862 0.0
H330 H 0.424 0.02584 0.55195 0.0
H331 H 0.44868 0.00138 0.55944 0.0
H332 H 0.48962 0.98831 0.57983 0.0
H333 H 0.51568 0.99431 0.60429 0.0
H334 H 0.52902 0.93241 0.60298 0.0
H335 H 0.50359 0.92661 0.57797 0.0
H336 H 0.48782 0.901 0.54011 0.0
H337 H 0.49127 0.87404 0.51625 0.0
H338 H 0.44664 0.8993 0.47921 0.0
H339 H 0.44307 0.92618 0.50289 0.0
N340 N 0.44993 0.94652 0.53454 0.0
N341 N 0.46414 0.96648 0.5596 0.0
N342 N 0.47866 0.93666 0.55069 0.0
C343 C 0.44962 0.96312 0.54593 0.0
C344 C 0.47865 0.95325 0.56213 0.0
C345 C 0.46439 0.93323 0.5368 0.0
C346 C 0.43396 0.97765 0.54287 0.0
C347 C 0.41713 0.97252 0.53152 0.0
C348 C 0.40291 0.98644 0.52747 0.0
C349 C 0.40522 0.00593 0.53449 0.0
C350 C 0.4217 0.01093 0.54643 0.0
C351 C 0.4359 0.99692 0.55062 0.0
C352 C 0.49449 0.95697 0.57698 0.0
C353 C 0.49816 0.976 0.58473 0.0
C354 C 0.51309 0.97943 0.59882 0.0
C355 C 0.52451 0.96386 0.60567 0.0
C356 C 0.52084 0.94485 0.5978 0.0
C357 C 0.50611 0.94148 0.58354 0.0
C358 C 0.46529 0.91588 0.52336 0.0
C359 C 0.4786 0.90073 0.52697 0.0
C360 C 0.25016 0.22717 0.65349 0.0
C361 C 0.2361 0.21223 0.64934 0.0
C362 C 0.21945 0.21077 0.66121 0.0
C363 C 0.21696 0.22396 0.67695 0.0
H364 H 0.18769 0.23081 0.73096 0.0
H365 H 0.16035 0.22746 0.75373 0.0
H366 H 0.17332 0.28571 0.77717 0.0
H367 H 0.20045 0.28916 0.75474 0.0
H368 H 0.24587 0.30631 0.7456 0.0
H369 H 0.26315 0.33786 0.74707 0.0
H370 H 0.2707 0.33507 0.68411 0.0
H371 H 0.25423 0.30288 0.68287 0.0
H372 H 0.2587 0.25186 0.67173 0.0
H373 H 0.26304 0.22879 0.64447 0.0
H374 H 0.20843 0.19931 0.65842 0.0
H375 H 0.20396 0.22245 0.6858 0.0
N376 N 0.21442 0.25007 0.71123 0.0
N377 N 0.22325 0.27992 0.72704 0.0
N378 N 0.23934 0.27024 0.6984 0.0
C379 C 0.21188 0.2633 0.72616 0.0
C380 C 0.23697 0.28352 0.71326 0.0
C381 C 0.22822 0.25341 0.69735 0.0
C382 C 0.19621 0.26034 0.74082 0.0
C383 C 0.18481 0.24284 0.74108 0.0
C384 C 0.16923 0.24085 0.75417 0.0
C385 C 0.16464 0.2564 0.76706 0.0
C386 C 0.17639 0.27359 0.76721 0.0
C387 C 0.192 0.27551 0.75434 0.0
C388 C 0.24856 0.30216 0.71411 0.0
C389 C 0.25133 0.31237 0.73208 0.0
C390 C 0.26113 0.33058 0.73288 0.0
C391 C 0.26808 0.33929 0.71565 0.0
C392 C 0.26574 0.32881 0.69771 0.0
C393 C 0.25621 0.31037 0.69697 0.0
C394 C 0.23096 0.23906 0.68099 0.0
C395 C 0.24759 0.24048 0.66906 0.0
C396 C 0.73815 0.15495 0.75073 0.0
C397 C 0.72389 0.14918 0.7365 0.0
C398 C 0.72287 0.15941 0.71878 0.0
C399 C 0.7359 0.17506 0.71532 0.0
H400 H 0.74145 0.22882 0.6841 0.0
H401 H 0.7374 0.25017 0.65576 0.0
H402 H 0.79809 0.26919 0.66193 0.0
H403 H 0.80223 0.2481 0.69009 0.0
H404 H 0.82323 0.24212 0.73054 0.0
H405 H 0.85291 0.24655 0.75048 0.0
H406 H 0.83694 0.19576 0.7843 0.0
H407 H 0.80712 0.19104 0.76409 0.0
H408 H 0.76223 0.17438 0.75843 0.0
H409 H 0.73939 0.14722 0.76446 0.0
H410 H 0.71191 0.15538 0.70762 0.0
H411 H 0.73476 0.18256 0.70145 0.0
N412 N 0.76176 0.209 0.71015 0.0
N413 N 0.79141 0.22566 0.71791 0.0
N414 N 0.78115 0.19922 0.73701 0.0
C415 C 0.77507 0.22351 0.70629 0.0
C416 C 0.79459 0.21364 0.7333 0.0
C417 C 0.7647 0.19679 0.7255 0.0
C418 C 0.77219 0.23666 0.68935 0.0
C419 C 0.75392 0.23758 0.67943 0.0
C420 C 0.75154 0.24988 0.66329 0.0
C421 C 0.76746 0.26124 0.65662 0.0
C422 C 0.78563 0.26044 0.66664 0.0
C423 C 0.78795 0.24839 0.68285 0.0
C424 C 0.81266 0.21624 0.74569 0.0
C425 C 0.82593 0.23184 0.7422 0.0
C426 C 0.84294 0.23448 0.75374 0.0
C427 C 0.84721 0.2216 0.76908 0.0
C428 C 0.8341 0.20587 0.77252 0.0
C429 C 0.81696 0.20325 0.76098 0.0
C430 C 0.75039 0.18067 0.72942 0.0
C431 C 0.75131 0.17045 0.7472 0.0
C432 C 0.479 0.53757 0.58206 0.0
C433 C 0.47903 0.52041 0.59324 0.0
C434 C 0.49289 0.50593 0.58902 0.0
C435 C 0.50644 0.50857 0.57401 0.0
H436 H 0.55346 0.48235 0.54647 0.0
H437 H 0.5794 0.45884 0.54068 0.0
H438 H 0.6065 0.49879 0.50008 0.0
H439 H 0.58033 0.52198 0.50538 0.0
H440 H 0.55743 0.55883 0.49131 0.0
H441 H 0.55381 0.58605 0.46893 0.0
H442 H 0.49839 0.60029 0.49524 0.0
H443 H 0.50222 0.57339 0.51799 0.0
H444 H 0.49191 0.55359 0.55866 0.0
H445 H 0.46837 0.54891 0.58478 0.0
H446 H 0.49342 0.49262 0.5975 0.0
H447 H 0.51692 0.49711 0.57122 0.0
N448 N 0.53544 0.51563 0.54397 0.0
N449 N 0.54686 0.53397 0.51748 0.0
N450 N 0.51914 0.54416 0.53461 0.0
C451 C 0.54863 0.51826 0.5294 0.0
C452 C 0.53214 0.54697 0.51993 0.0
C453 C 0.52068 0.52857 0.54673 0.0
C454 C 0.5647 0.50407 0.52634 0.0
C455 C 0.56495 0.48614 0.53632 0.0
C456 C 0.57992 0.47268 0.53307 0.0
C457 C 0.59506 0.47684 0.51985 0.0
C458 C 0.5949 0.49488 0.51007 0.0
C459 C 0.5799 0.50827 0.51322 0.0
C460 C 0.5301 0.56383 0.50649 0.0
C461 C 0.54447 0.56776 0.49239 0.0
C462 C 0.54235 0.58334 0.47944 0.0
C463 C 0.52577 0.59536 0.48019 0.0
C464 C 0.51148 0.59152 0.49439 0.0
C465 C 0.51364 0.57599 0.5074 0.0
C466 C 0.50637 0.52573 0.56275 0.0
C467 C 0.49245 0.54018 0.56697 0.0
C468 C 0.5377 0.42113 0.00767 0.0
C469 C 0.51988 0.41037 0.00648 0.0
C470 C 0.50618 0.41466 0.99158 0.0
C471 C 0.5101 0.42948 0.97822 0.0
H472 H 0.48776 0.45409 0.92882 0.0
H473 H 0.46633 0.45693 0.90019 0.0
H474 H 0.50778 0.49768 0.87474 0.0
H475 H 0.529 0.49535 0.90378 0.0
H476 H 0.55663 0.51933 0.93797 0.0
H477 H 0.58445 0.54199 0.94275 0.0
H478 H 0.61002 0.50282 0.98502 0.0
H479 H 0.58187 0.4805 0.98077 0.0
H480 H 0.55539 0.44425 0.99576 0.0
H481 H 0.54849 0.41817 0.01908 0.0
H482 H 0.49243 0.40642 0.99013 0.0
H483 H 0.49913 0.43237 0.96697 0.0
N484 N 0.51981 0.45829 0.94931 0.0
N485 N 0.5384 0.48561 0.93949 0.0
N486 N 0.54702 0.46923 0.96836 0.0
C487 C 0.52309 0.4728 0.93626 0.0
C488 C 0.5504 0.48396 0.95553 0.0
C489 C 0.53169 0.45637 0.96537 0.0
C490 C 0.51013 0.4745 0.91866 0.0
C491 C 0.49237 0.46365 0.91713 0.0
C492 C 0.48011 0.46517 0.9006 0.0
C493 C 0.48535 0.47744 0.88504 0.0
C494 C 0.50315 0.48826 0.88653 0.0
C495 C 0.51537 0.48686 0.90317 0.0
C496 C 0.56706 0.49802 0.95889 0.0
C497 C 0.56815 0.51557 0.94835 0.0
C498 C 0.58415 0.52856 0.95105 0.0
C499 C 0.59957 0.52422 0.96419 0.0
C500 C 0.59829 0.50682 0.97499 0.0
C501 C 0.58219 0.49392 0.97244 0.0
C502 C 0.5278 0.44047 0.9795 0.0
C503 C 0.54158 0.43613 0.99438 0.0
C504 C 0.73207 0.24914 0.33595 0.0
C505 C 0.71867 0.26389 0.34069 0.0
C506 C 0.70297 0.26733 0.32758 0.0
C507 C 0.70099 0.25651 0.30992 0.0
H508 H 0.66605 0.24875 0.26066 0.0
H509 H 0.63837 0.25386 0.23844 0.0
H510 H 0.66143 0.21123 0.19752 0.0
H511 H 0.68941 0.20624 0.21963 0.0
H512 H 0.73146 0.18663 0.22962 0.0
H513 H 0.75571 0.16144 0.22309 0.0
H514 H 0.77653 0.16661 0.28337 0.0
H515 H 0.75296 0.19204 0.28967 0.0
H516 H 0.74084 0.22719 0.31528 0.0
H517 H 0.74411 0.24585 0.3459 0.0
H518 H 0.69246 0.27866 0.33078 0.0
H519 H 0.68888 0.25969 0.30004 0.0
N520 N 0.69809 0.23391 0.27319 0.0
N521 N 0.7104 0.20998 0.2516 0.0
N522 N 0.72653 0.21698 0.28169 0.0
C523 C 0.69665 0.22363 0.25588 0.0
C524 C 0.72539 0.20657 0.26449 0.0
C525 C 0.713 0.2307 0.28618 0.0
C526 C 0.68001 0.22702 0.24203 0.0
C527 C 0.66533 0.24046 0.24693 0.0
C528 C 0.64936 0.24333 0.23422 0.0
C529 C 0.64764 0.23287 0.21626 0.0
C530 C 0.66242 0.21963 0.21118 0.0
C531 C 0.6784 0.21672 0.22393 0.0
C532 C 0.74022 0.19141 0.26017 0.0
C533 C 0.74129 0.18244 0.24144 0.0
C534 C 0.75517 0.16794 0.23771 0.0
C535 C 0.7682 0.162 0.25265 0.0
C536 C 0.7671 0.17107 0.27133 0.0
C537 C 0.7534 0.18561 0.27501 0.0
C538 C 0.71464 0.24197 0.30505 0.0
C539 C 0.7301 0.23835 0.31838 0.0
C540 C 0.47742 0.10552 0.00331 0.0
C541 C 0.46929 0.1034 0.02204 0.0
C542 C 0.45822 0.08626 0.02587 0.0
C543 C 0.4545 0.07213 0.01107 0.0
H544 H 0.41468 0.02762 0.99582 0.0
H545 H 0.38718 0.0046 -0.00096 0.0
H546 H 0.38859 0.99154 0.93668 0.0
H547 H 0.41651 0.01405 0.93357 0.0
H548 H 0.45744 0.02211 0.91275 0.0
H549 H 0.47876 0.01817 0.88481 0.0
H550 H 0.51664 0.06526 0.90753 0.0
H551 H 0.49551 0.06896 0.93588 0.0
H552 H 0.47992 0.09366 0.97415 0.0
H553 H 0.48579 0.11862 -0.00031 0.0
H554 H 0.45209 0.08391 0.04024 0.0
H555 H 0.44553 0.05934 0.01441 0.0
N556 N 0.44077 0.04838 0.9776 0.0
N557 N 0.44637 0.03521 0.94619 0.0
N558 N 0.46752 0.0598 0.95944 0.0
C559 C 0.43541 0.03576 0.96268 0.0
C560 C 0.46248 0.04712 0.94446 0.0
C561 C 0.45676 0.06049 0.97607 0.0
C562 C 0.41796 0.02256 0.96446 0.0
C563 C 0.40908 0.01992 0.98276 0.0
C564 C 0.39318 0.00681 0.98459 0.0
C565 C 0.38567 0.99613 0.96814 0.0
C566 C 0.39421 -0.00077 0.94974 0.0
C567 C 0.41021 0.01221 0.94794 0.0
C568 C 0.47478 0.04576 0.92671 0.0
C569 C 0.47021 0.03176 0.9118 0.0
C570 C 0.48239 0.02959 0.89564 0.0
C571 C 0.49942 0.04141 0.8939 0.0
C572 C 0.50376 0.05576 0.90854 0.0
C573 C 0.49157 0.05792 0.92476 0.0
C574 C 0.46201 0.07465 0.99215 0.0
C575 C 0.47392 0.09125 0.98857 0.0
Zn576 Zn 0.28037 0.84491 0.00133 0.0
Zn577 Zn 0.24898 0.86732 0.00407 0.0
O578 O 0.25045 0.85369 0.0312 0.0
O579 O 0.27815 0.83753 0.02954 0.0
O580 O 0.22573 0.88535 0.00693 0.0
O581 O 0.29735 0.868 0.99452 0.0
O582 O 0.27185 0.88701 0.99835 0.0
C583 C 0.26335 0.84285 0.03913 0.0
C584 C 0.25025 0.83385 0.97307 0.0
O585 O 0.24166 0.84869 0.98049 0.0
O586 O 0.26677 0.82877 0.97991 0.0
C587 C 0.20827 0.88088 0.00128 0.0
O588 O 0.20463 0.86356 0.99301 0.0
C589 C 0.29002 0.88495 0.99461 0.0
Zn590 Zn 0.11105 0.45782 0.28087 0.0
Zn591 Zn 0.12554 0.49416 0.27451 0.0
O592 O 0.10664 0.49874 0.29737 0.0
O593 O 0.09633 0.46875 0.30405 0.0
O594 O 0.13799 0.52087 0.27045 0.0
O595 O 0.13834 0.44749 0.2845 0.0
O596 O 0.14987 0.47765 0.28102 0.0
C597 C 0.09643 0.48708 0.30772 0.0
C598 C 0.10121 0.47219 0.2424 0.0
O599 O 0.11146 0.48715 0.24818 0.0
O600 O 0.09867 0.45785 0.25375 0.0
C601 C 0.13133 0.53389 0.25908 0.0
O602 O 0.1149 0.53033 0.24912 0.0
C603 C 0.15274 0.45952 0.28422 0.0
Zn604 Zn 0.77292 0.59435 0.96088 0.0
Zn605 Zn 0.76542 0.61488 0.99392 0.0
O606 O 0.78582 0.59486 0.00323 0.0
O607 O 0.79091 0.57711 0.97648 0.0
O608 O 0.76067 0.63123 0.01829 0.0
O609 O 0.78347 0.61889 0.94821 0.0
O610 O 0.77542 0.63571 0.97471 0.0
C611 C 0.79419 0.58057 0.9946 0.0
C612 C 0.73224 0.59201 0.97202 0.0
O613 O 0.73832 0.60255 0.98665 0.0
O614 O 0.74407 0.58702 0.95873 0.0
C615 C 0.75043 0.62531 0.03255 0.0
O616 O 0.7423 0.60763 0.03161 0.0
C617 C 0.78234 0.63515 0.95742 0.0
Zn618 Zn 0.84745 0.00078 0.27191 0.0
Zn619 Zn 0.86919 0.00343 0.24002 0.0
O620 O 0.85526 0.0303 0.24166 0.0
O621 O 0.84035 0.02921 0.27011 0.0
O622 O 0.88704 0.00659 0.21666 0.0
O623 O 0.87073 0.99287 0.28817 0.0
O624 O 0.88926 0.99786 0.26247 0.0
C625 C 0.84493 0.03849 0.25485 0.0
C626 C 0.8356 0.97275 0.24171 0.0
O627 O 0.85053 0.97978 0.23295 0.0
O628 O 0.83074 0.97985 0.25821 0.0
C629 C 0.88328 0.00017 0.1993 0.0
O630 O 0.8666 0.99068 0.19559 0.0
C631 C 0.88752 0.99336 0.28049 0.0
Zn632 Zn 0.27799 0.10808 0.45227 0.0
Zn633 Zn 0.2668 0.1237 0.48643 0.0
O634 O 0.29179 0.10842 0.49399 0.0
O635 O 0.30197 0.09726 0.46541 0.0
O636 O 0.25855 0.13652 0.51194 0.0
O637 O 0.27943 0.13466 0.44026 0.0
O638 O 0.27127 0.14778 0.46869 0.0
C639 C 0.30426 0.09904 0.48385 0.0
C640 C 0.23995 0.09399 0.46386 0.0
O641 O 0.24307 0.1058 0.4784 0.0
O642 O 0.25281 0.09212 0.45075 0.0
C643 C 0.2614 0.12894 0.52867 0.0
O644 O 0.2698 0.11175 0.52969 0.0
C645 C 0.27603 0.14971 0.45076 0.0
Zn646 Zn 0.34021 0.50015 0.77031 0.0
Zn647 Zn 0.36406 0.50418 0.74027 0.0
O648 O 0.34922 0.53063 0.74119 0.0
O649 O 0.33294 0.52851 0.7688 0.0
O650 O 0.38289 0.50761 0.71774 0.0
O651 O 0.3629 0.49244 0.78771 0.0
O652 O 0.38298 0.49986 0.76382 0.0
C653 C 0.33813 0.53829 0.75406 0.0
C654 C 0.33148 0.47215 0.73965 0.0
O655 O 0.34722 0.47937 0.73257 0.0
O656 O 0.32445 0.47941 0.7552 0.0
C657 C 0.37893 0.50222 0.70009 0.0
O658 O 0.36168 0.49407 0.69585 0.0
C659 C 0.38021 0.49452 0.78145 0.0
Zn660 Zn 0.77907 0.34918 0.49639 0.0
Zn661 Zn 0.74514 0.36666 0.50125 0.0
O662 O 0.74948 0.35167 0.52731 0.0
O663 O 0.77944 0.34042 0.52435 0.0
O664 O 0.72001 0.38145 0.50614 0.0
O665 O 0.79234 0.3744 0.48899 0.0
O666 O 0.76491 0.38952 0.49587 0.0
C667 C 0.76414 0.34259 0.53443 0.0
C668 C 0.74951 0.33513 0.46881 0.0
O669 O 0.73929 0.34846 0.47691 0.0
O670 O 0.76675 0.33198 0.47514 0.0
C671 C 0.70682 0.38429 0.49308 0.0
O672 O 0.70895 0.37684 0.47532 0.0
C673 C 0.78281 0.39012 0.49057 0.0
Zn674 Zn 0.60506 0.95648 0.76946 0.0
Zn675 Zn 0.6259 0.98994 0.7648 0.0
O676 O 0.60544 0.99812 0.78522 0.0
O677 O 0.58666 0.97151 0.7869 0.0
O678 O 0.64225 0.01453 0.7604 0.0
O679 O 0.62886 0.94375 0.78122 0.0
O680 O 0.64642 0.97032 0.77486 0.0
C681 C 0.5904 0.98923 0.79192 0.0
C682 C 0.60434 0.96932 0.72975 0.0
O683 O 0.61383 0.98397 0.73734 0.0
O684 O 0.59965 0.95483 0.74023 0.0
C685 C 0.63562 0.03179 0.76234 0.0
O686 O 0.61731 0.03406 0.76765 0.0
C687 C 0.64525 0.95286 0.7813 0.0
Zn688 Zn 0.00581 0.28114 0.85172 0.0
Zn689 Zn 0.00716 0.24859 0.87237 0.0
O690 O 0.034 0.24929 0.85793 0.0
O691 O 0.03339 0.27769 0.84291 0.0
O692 O 0.00847 0.22434 0.88923 0.0
O693 O 0.00094 0.29753 0.87571 0.0
O694 O 0.00303 0.2708 0.89327 0.0
C695 C 0.04228 0.26216 0.84727 0.0
C696 C 0.97535 0.25324 0.8403 0.0
O697 O 0.9828 0.24331 0.8542 0.0
O698 O 0.98294 0.26971 0.83598 0.0
C699 C 0.01791 0.20905 0.88448 0.0
O700 O 0.02714 0.20856 0.86768 0.0
C701 C 0.00061 0.28932 0.89223 0.0
Zn702 Zn 0.50158 0.77574 0.34679 0.0
Zn703 Zn 0.50574 0.74575 0.3704 0.0
O704 O 0.53232 0.74732 0.35581 0.0
O705 O 0.53011 0.77512 0.33992 0.0
O706 O 0.50943 0.72311 0.38891 0.0
O707 O 0.49276 0.7927 0.36941 0.0
O708 O 0.50039 0.76893 0.38951 0.0
C709 C 0.53998 0.76042 0.34497 0.0
C710 C 0.47445 0.74443 0.33733 0.0
O711 O 0.48141 0.73748 0.35322 0.0
O712 O 0.4816 0.76015 0.3305 0.0
C713 C 0.50733 0.70522 0.3834 0.0
O714 O 0.5026 0.70112 0.36495 0.0
C715 C 0.49455 0.78637 0.38672 0.0
Zn716 Zn 0.95383 0.77643 0.60406 0.0
Zn717 Zn 0.98858 0.77075 0.62243 0.0
O718 O 0.99569 0.79142 0.60185 0.0
O719 O 0.96729 0.79613 0.58678 0.0
O720 O 0.01393 0.7671 0.63753 0.0
O721 O 0.94193 0.78576 0.62926 0.0
O722 O 0.96993 0.77964 0.64443 0.0
C723 C 0.98551 0.79998 0.58876 0.0
C724 C 0.96743 0.73658 0.60056 0.0
O725 O 0.98229 0.74353 0.61018 0.0
O726 O 0.95307 0.74748 0.59652 0.0
C727 C 0.02815 0.75717 0.63105 0.0
O728 O 0.02664 0.74886 0.6135 0.0
C729 C 0.95221 0.78535 0.64492 0.0
Zn730 Zn 0.45166 0.26866 0.10555 0.0
Zn731 Zn 0.48759 0.26539 0.12214 0.0
O732 O 0.49183 0.28833 0.10325 0.0
O733 O 0.46239 0.29115 0.08974 0.0
O734 O 0.51382 0.2627 0.13601 0.0
O735 O 0.43989 0.27374 0.13206 0.0
O736 O 0.4695 0.27175 0.14531 0.0
C737 C 0.48021 0.29681 0.09136 0.0
C738 C 0.46839 0.23094 0.09828 0.0
O739 O 0.4827 0.23832 0.10845 0.0
O740 O 0.45325 0.24099 0.09499 0.0
C741 C 0.52782 0.25252 0.12942 0.0
O742 O 0.52566 0.24341 0.11231 0.0
C743 C 0.45113 0.2745 0.14708 0.0
H744 H 0.21664 0.74597 0.88351 0.0
H745 H 0.21248 0.80191 0.85488 0.0
H746 H 0.22243 0.76291 0.91501 0.0
H747 H 0.21838 0.8189 0.88643 0.0
H748 H 0.21862 0.84353 0.94962 0.0
H749 H 0.2063 0.8259 0.92003 0.0
H750 H 0.25037 0.7818 0.92836 0.0
H751 H 0.26241 0.79905 0.95775 0.0
C752 C 0.2169 0.7619 0.88397 0.0
C753 C 0.21437 0.7726 0.86667 0.0
C754 C 0.22019 0.77161 0.90201 0.0
C755 C 0.22109 0.79226 0.9032 0.0
C756 C 0.21761 0.80299 0.88605 0.0
C757 C 0.21427 0.79325 0.86797 0.0
C758 C 0.22549 0.82994 0.94522 0.0
C759 C 0.24155 0.82275 0.95601 0.0
C760 C 0.21851 0.81992 0.92823 0.0
C761 C 0.22734 0.80243 0.92186 0.0
C762 C 0.24303 0.79505 0.93299 0.0
C763 C 0.25004 0.80507 0.9498 0.0
H764 H 0.00063 0.49813 0.38763 0.0
H765 H 0.03096 0.5542 0.39546 0.0
H766 H 0.02475 0.48809 0.36384 0.0
H767 H 0.05594 0.54359 0.37248 0.0
H768 H 0.08442 0.52492 0.31382 0.0
H769 H 0.06131 0.5366 0.33831 0.0
H770 H 0.0578 0.47827 0.36233 0.0
H771 H 0.08018 0.46653 0.3375 0.0
C772 C 0.01243 0.50837 0.38427 0.0
C773 C 0.01375 0.52703 0.39344 0.0
C774 C 0.02649 0.50246 0.37083 0.0
C775 C 0.04244 0.51494 0.36634 0.0
C776 C 0.04379 0.53365 0.37547 0.0
C777 C 0.02959 0.53964 0.38884 0.0
C778 C 0.07879 0.51466 0.32444 0.0
C779 C 0.08396 0.49476 0.3236 0.0
C780 C 0.0656 0.52136 0.33853 0.0
C781 C 0.05747 0.50832 0.35216 0.0
C782 C 0.06333 0.48862 0.35175 0.0
C783 C 0.0763 0.4819 0.33758 0.0
H784 H 0.81412 0.75509 0.92294 0.0
H785 H 0.80859 0.72075 0.86911 0.0
H786 H 0.80713 0.72566 0.9419 0.0
H787 H 0.80095 0.69156 0.8878 0.0
H788 H 0.80582 0.63868 0.92561 0.0
H789 H 0.81513 0.66848 0.90868 0.0
H790 H 0.78175 0.70289 0.94993 0.0
H791 H 0.77316 0.67302 0.96741 0.0
C792 C 0.81128 0.74125 0.91519 0.0
C793 C 0.81205 0.74013 0.89459 0.0
C794 C 0.8072 0.7244 0.92601 0.0
C795 C 0.80357 0.70614 0.91642 0.0
C796 C 0.80414 0.7052 0.89576 0.0
C797 C 0.80845 0.72195 0.88501 0.0
C798 C 0.80055 0.65262 0.93113 0.0
C799 C 0.78866 0.65348 0.94778 0.0
C800 C 0.80578 0.66973 0.92134 0.0
C801 C 0.79901 0.68813 0.92775 0.0
C802 C 0.78742 0.68903 0.94467 0.0
C803 C 0.7824 0.67189 0.95465 0.0
H804 H 0.96351 0.97351 0.38054 0.0
H805 H 0.00268 0.96509 0.33204 0.0
H806 H 0.93699 0.9811 0.35774 0.0
H807 H 0.97581 0.97191 0.30887 0.0
H808 H 0.92636 0.00297 0.27445 0.0
H809 H 0.95444 0.99631 0.29614 0.0
H810 H 0.91576 0.96504 0.33507 0.0
H811 H 0.8879 0.97245 0.31404 0.0
C812 C 0.96634 0.97308 0.36492 0.0
C813 C 0.98504 0.96853 0.35802 0.0
C814 C 0.95112 0.97734 0.3518 0.0
C815 C 0.95411 0.97682 0.33138 0.0
C816 C 0.97299 0.97259 0.32448 0.0
C817 C 0.98835 0.9686 0.3377 0.0
C818 C 0.92396 0.99466 0.28765 0.0
C819 C 0.90491 0.98846 0.29267 0.0
C820 C 0.94004 0.99075 0.30004 0.0
C821 C 0.93738 0.98036 0.31755 0.0
C822 C 0.91836 0.97359 0.32207 0.0
C823 C 0.90235 0.97773 0.30991 0.0
H824 H 0.20887 0.20055 0.62128 0.0
H825 H 0.26936 0.19291 0.63929 0.0
H826 H 0.2138 0.17913 0.59258 0.0
H827 H 0.27435 0.17173 0.61052 0.0
H828 H 0.27086 0.12002 0.56666 0.0
H829 H 0.26366 0.13892 0.59644 0.0
H830 H 0.23309 0.18145 0.56157 0.0
H831 H 0.2402 0.16258 0.53178 0.0
C832 C 0.22315 0.19414 0.61919 0.0
C833 C 0.23875 0.19844 0.63248 0.0
C834 C 0.22602 0.18203 0.60269 0.0
C835 C 0.24447 0.17379 0.59929 0.0
C836 C 0.25993 0.17773 0.61284 0.0
C837 C 0.25712 0.18999 0.6292 0.0
C838 C 0.26249 0.13333 0.56534 0.0
C839 C 0.25618 0.13983 0.54683 0.0
C840 C 0.25845 0.14419 0.5824 0.0
C841 C 0.24786 0.16168 0.58133 0.0
C842 C 0.24113 0.16793 0.56287 0.0
C843 C 0.24532 0.15718 0.5458 0.0
H844 H 0.45771 0.48714 0.60158 0.0
H845 H 0.46765 0.54738 0.62093 0.0
H846 H 0.43384 0.48265 0.62759 0.0
H847 H 0.44344 0.54302 0.64664 0.0
H848 H 0.41486 0.52097 0.70317 0.0
H849 H 0.43919 0.52516 0.67757 0.0
H850 H 0.40072 0.49391 0.63611 0.0
H851 H 0.37645 0.48954 0.66172 0.0
C852 C 0.45485 0.4994 0.61143 0.0
C853 C 0.46458 0.51762 0.60918 0.0
C854 C 0.44103 0.49689 0.62621 0.0
C855 C 0.4367 0.51249 0.63917 0.0
C856 C 0.44655 0.53066 0.63701 0.0
C857 C 0.46028 0.53321 0.62216 0.0
C858 C 0.41157 0.51498 0.6886 0.0
C859 C 0.39368 0.50491 0.68451 0.0
C860 C 0.42549 0.51748 0.6739 0.0
C861 C 0.4219 0.50986 0.6548 0.0
C862 C 0.40404 0.49976 0.65073 0.0
C863 C 0.39007 0.49736 0.66539 0.0
H864 H 0.79182 0.26242 0.6255 0.0
H865 H 0.73871 0.28758 0.6478 0.0
H866 H 0.7899 0.28326 0.59696 0.0
H867 H 0.737 0.30912 0.61936 0.0
H868 H 0.73169 0.3297 0.55429 0.0
H869 H 0.73143 0.31039 0.58432 0.0
H870 H 0.79472 0.31649 0.58886 0.0
H871 H 0.79495 0.33488 0.55864 0.0
C872 C 0.7798 0.27259 0.62434 0.0
C873 C 0.76552 0.27352 0.63894 0.0
C874 C 0.77874 0.28465 0.60803 0.0
C875 C 0.76348 0.29819 0.60598 0.0
C876 C 0.7489 0.29882 0.6204 0.0
C877 C 0.74987 0.28653 0.63669 0.0
C878 C 0.74547 0.32707 0.5619 0.0
C879 C 0.76336 0.33355 0.554 0.0
C880 C 0.74535 0.31604 0.57912 0.0
C881 C 0.7631 0.3115 0.58882 0.0
C882 C 0.78082 0.31911 0.58147 0.0
C883 C 0.78095 0.32982 0.56421 0.0
H884 H 0.56035 0.9463 0.60988 0.0
H885 H 0.52286 0.98886 0.63767 0.0
H886 H 0.58309 0.9489 0.63799 0.0
H887 H 0.54602 0.99194 0.66525 0.0
H888 H 0.59838 0.00146 0.707 0.0
H889 H 0.58196 0.00203 0.6747 0.0
H890 H 0.57786 0.93862 0.67384 0.0
H891 H 0.59398 0.938 0.7061 0.0
C892 C 0.55699 0.95631 0.62186 0.0
C893 C 0.53959 0.96717 0.62157 0.0
C894 C 0.57011 0.95789 0.63786 0.0
C895 C 0.56628 0.9706 0.65375 0.0
C896 C 0.54945 0.98221 0.65305 0.0
C897 C 0.53619 0.98044 0.6372 0.0
C898 C 0.59431 0.98764 0.69972 0.0
C899 C 0.5973 0.96969 0.70911 0.0
C900 C 0.58485 0.98799 0.68132 0.0
C901 C 0.57861 0.97037 0.67186 0.0
C902 C 0.58265 0.9524 0.68075 0.0
C903 C 0.59177 0.95206 0.69926 0.0
H904 H 0.8735 0.19417 0.78174 0.0
H905 H 0.86175 0.25633 0.78424 0.0
H906 H 0.90472 0.20029 0.79951 0.0
H907 H 0.89274 0.26239 0.80184 0.0
H908 H 0.9583 0.26975 0.80834 0.0
H909 H 0.9273 0.26077 0.79223 0.0
H910 H 0.91983 0.21241 0.83183 0.0
H911 H 0.95131 0.22132 0.84804 0.0
C912 C 0.87745 0.20908 0.78631 0.0
C913 C 0.86531 0.22481 0.78133 0.0
C914 C 0.89531 0.21257 0.79647 0.0
C915 C 0.90133 0.23185 0.80178 0.0
C916 C 0.88875 0.24742 0.79752 0.0
C917 C 0.87099 0.24395 0.78743 0.0
C918 C 0.95017 0.25712 0.81363 0.0
C919 C 0.95723 0.24638 0.82964 0.0
C920 C 0.93231 0.25205 0.80444 0.0
C921 C 0.92094 0.2361 0.81098 0.0
C922 C 0.92828 0.2248 0.82648 0.0
C923 C 0.94627 0.22992 0.83577 0.0
H924 H 0.47155 0.8448 0.50002 0.0
H925 H 0.47517 0.89053 0.45704 0.0
H926 H 0.47676 0.82 0.4742 0.0
H927 H 0.48108 0.8661 0.43146 0.0
H928 H 0.47177 0.81869 0.38602 0.0
H929 H 0.46482 0.84128 0.41288 0.0
H930 H 0.50033 0.80687 0.4522 0.0
H931 H 0.50653 0.78363 0.42528 0.0
C932 C 0.47359 0.84951 0.48506 0.0
C933 C 0.47273 0.86952 0.48046 0.0
C934 C 0.47667 0.83535 0.47028 0.0
C935 C 0.47917 0.84099 0.45066 0.0
C936 C 0.47868 0.86111 0.44626 0.0
C937 C 0.47537 0.87516 0.46093 0.0
C938 C 0.47805 0.81588 0.40041 0.0
C939 C 0.48985 0.79947 0.4035 0.0
C940 C 0.47417 0.82893 0.41583 0.0
C941 C 0.48227 0.82614 0.4347 0.0
C942 C 0.49372 0.80943 0.43792 0.0
C943 C 0.49737 0.79616 0.42248 0.0
H944 H 0.13633 0.28362 0.77015 0.0
H945 H 0.15304 0.227 0.79181 0.0
H946 H 0.10792 0.2834 0.79119 0.0
H947 H 0.12466 0.22696 0.81364 0.0
H948 H 0.05865 0.22794 0.83386 0.0
H949 H 0.08901 0.22513 0.8151 0.0
H950 H 0.10086 0.28725 0.82476 0.0
H951 H 0.07032 0.29009 0.84243 0.0
C952 C 0.13399 0.27119 0.77963 0.0
C953 C 0.14701 0.25546 0.77955 0.0
C954 C 0.11775 0.27109 0.79181 0.0
C955 C 0.11418 0.25536 0.8045 0.0
C956 C 0.12695 0.23931 0.80407 0.0
C957 C 0.14319 0.23932 0.79162 0.0
C958 C 0.06799 0.24086 0.83216 0.0
C959 C 0.06206 0.25928 0.83929 0.0
C960 C 0.08536 0.23928 0.82145 0.0
C961 C 0.09715 0.25607 0.81796 0.0
C962 C 0.09183 0.27414 0.82651 0.0
C963 C 0.07441 0.27576 0.83681 0.0
H964 H 0.51134 0.63217 0.48729 0.0
H965 H 0.53451 0.59547 0.441 0.0
H966 H 0.50655 0.65847 0.46396 0.0
H967 H 0.53065 0.6221 0.41793 0.0
H968 H 0.50132 0.66571 0.37716 0.0
H969 H 0.50561 0.63941 0.40057 0.0
H970 H 0.52448 0.68208 0.44513 0.0
H971 H 0.51967 0.70844 0.42186 0.0
C972 C 0.51542 0.6297 0.47214 0.0
C973 C 0.52328 0.61165 0.46606 0.0
C974 C 0.51291 0.64489 0.4588 0.0
C975 C 0.51822 0.64245 0.43903 0.0
C976 C 0.52616 0.62444 0.43297 0.0
C977 C 0.52863 0.60923 0.44629 0.0
C978 C 0.50638 0.6695 0.39195 0.0
C979 C 0.51013 0.6892 0.39762 0.0
C980 C 0.50896 0.65438 0.40536 0.0
C981 C 0.51543 0.65858 0.42476 0.0
C982 C 0.51921 0.67831 0.43041 0.0
C983 C 0.51656 0.69343 0.41701 0.0
H984 H 0.86532 0.80835 0.73213 0.0
H985 H 0.91913 0.81297 0.76651 0.0
H986 H 0.88397 0.80158 0.70274 0.0
H987 H 0.93812 0.80692 0.73682 0.0
H988 H 0.96331 0.77514 0.68223 0.0
H989 H 0.94635 0.78265 0.71278 0.0
H990 H 0.90453 0.81715 0.68036 0.0
H991 H 0.92085 0.80887 0.64997 0.0
C992 C 0.88122 0.80819 0.73329 0.0
C993 C 0.89081 0.81136 0.75152 0.0
C994 C 0.89196 0.8044 0.71644 0.0
C995 C 0.91262 0.80396 0.71729 0.0
C996 C 0.92224 0.80698 0.73562 0.0
C997 C 0.91141 0.81053 0.7526 0.0
C998 C 0.95054 0.78441 0.68173 0.0
C999 C 0.94325 0.79121 0.66371 0.0
C1000 C 0.94087 0.78879 0.69923 0.0
C1001 C 0.92387 0.80029 0.69905 0.0
C1002 C 0.91719 0.80777 0.68105 0.0
C1003 C 0.92664 0.80314 0.6636 0.0
H1004 H 0.00605 0.8712 0.48786 0.0
H1005 H 0.06048 0.87924 0.52103 0.0
H1006 H 0.99404 0.84885 0.51233 0.0
H1007 H 0.04771 0.85792 0.54645 0.0
H1008 H 0.02442 0.80344 0.57919 0.0
H1009 H 0.03881 0.82497 0.55466 0.0
H1010 H 0.98188 0.85039 0.54431 0.0
H1011 H 0.9675 0.82839 0.568 0.0
C1012 C 0.01557 0.86813 0.5003 0.0
C1013 C 0.0343 0.87709 0.50236 0.0
C1014 C 0.00848 0.85555 0.5146 0.0
C1015 C 0.01974 0.85179 0.53158 0.0
C1016 C 0.03864 0.86041 0.53353 0.0
C1017 C 0.04587 0.87286 0.51906 0.0
C1018 C 0.01506 0.81373 0.57171 0.0
C1019 C 0.99481 0.81409 0.57535 0.0
C1020 C 0.0233 0.82611 0.55769 0.0
C1021 C 0.01147 0.83924 0.54725 0.0
C1022 C 0.99136 0.84008 0.55158 0.0
C1023 C 0.98312 0.82756 0.56531 0.0
H1024 H 0.14664 0.74196 0.6794 0.0
H1025 H 0.10817 0.73885 0.72914 0.0
H1026 H 0.11829 0.74696 0.65769 0.0
H1027 H 0.07989 0.7437 0.7075 0.0
H1028 H 0.03634 0.77361 0.66725 0.0
H1029 H 0.06527 0.76904 0.68804 0.0
H1030 H 0.08915 0.73006 0.64406 0.0
H1031 H 0.06034 0.735 0.62299 0.0
C1032 C 0.13212 0.74218 0.68567 0.0
C1033 C 0.12967 0.74012 0.70601 0.0
C1034 C 0.11587 0.74503 0.67323 0.0
C1035 C 0.09681 0.74583 0.68086 0.0
C1036 C 0.09439 0.74356 0.70118 0.0
C1037 C 0.1106 0.74077 0.71359 0.0
C1038 C 0.04777 0.7641 0.66196 0.0
C1039 C 0.04599 0.75463 0.64347 0.0
C1040 C 0.06432 0.76138 0.67395 0.0
C1041 C 0.07949 0.74909 0.66778 0.0
C1042 C 0.07783 0.73979 0.64918 0.0
C1043 C 0.06126 0.74254 0.63715 0.0
H1044 H 0.98437 0.64091 0.52089 0.0
H1045 H 0.94042 0.61668 0.55925 0.0
H1046 H 0.98828 0.66951 0.54276 0.0
H1047 H 0.94391 0.64573 0.58068 0.0
H1048 H 0.93547 0.7141 0.58956 0.0
H1049 H 0.93507 0.6816 0.57387 0.0
H1050 H 0.99839 0.68028 0.57835 0.0
H1051 H -0.00115 0.71286 0.59433 0.0
C1052 C 0.97581 0.64145 0.53415 0.0
C1053 C 0.96192 0.62652 0.53816 0.0
C1054 C 0.97806 0.65787 0.54666 0.0
C1055 C 0.96632 0.65984 0.56332 0.0
C1056 C 0.95299 0.64464 0.56779 0.0
C1057 C 0.95092 0.62809 0.55543 0.0
C1058 C 0.9493 0.70678 0.58745 0.0
C1059 C 0.9672 0.71606 0.59306 0.0
C1060 C 0.94905 0.68813 0.57858 0.0
C1061 C 0.9667 0.67848 0.57488 0.0
C1062 C 0.98459 0.68748 0.58099 0.0
C1063 C 0.98483 0.70604 0.59019 0.0
H1064 H 0.8009 0.85428 0.20789 0.0
H1065 H 0.74569 0.88442 0.21039 0.0
H1066 H 0.81863 0.88564 0.21248 0.0
H1067 H 0.76336 0.91573 0.21484 0.0
H1068 H 0.80016 0.95893 0.25377 0.0
H1069 H 0.78224 0.92966 0.24247 0.0
H1070 H 0.82665 0.91858 0.19924 0.0
H1071 H 0.84496 0.94809 0.21083 0.0
C1072 C 0.79257 0.86764 0.20901 0.0
C1073 C 0.7719 0.86685 0.20907 0.0
C1074 C 0.80272 0.88562 0.21159 0.0
C1075 C 0.7924 0.90315 0.21425 0.0
C1076 C 0.77174 0.90244 0.21323 0.0
C1077 C 0.76162 0.8845 0.21071 0.0
C1078 C 0.80611 0.9504 0.24173 0.0
C1079 C 0.82408 0.95581 0.23329 0.0
C1080 C 0.7957 0.93366 0.23513 0.0
C1081 C 0.80298 0.92179 0.21991 0.0
C1082 C 0.82075 0.92737 0.21109 0.0
C1083 C 0.83116 0.94431 0.21765 0.0
H1084 H 0.80591 0.15927 0.26716 0.0
H1085 H 0.76269 0.1281 0.23047 0.0
H1086 H 0.8272 0.13087 0.26558 0.0
H1087 H 0.78443 0.10004 0.22836 0.0
H1088 H 0.83588 0.05708 0.22052 0.0
H1089 H 0.81953 0.08879 0.21716 0.0
H1090 H 0.8208 0.09654 0.28027 0.0
H1091 H 0.83667 0.06495 0.28365 0.0
C1092 C 0.80099 0.14647 0.25862 0.0
C1093 C 0.78238 0.14589 0.24924 0.0
C1094 C 0.81328 0.13028 0.25761 0.0
C1095 C 0.8074 0.11326 0.24694 0.0
C1096 C 0.78939 0.11306 0.23654 0.0
C1097 C 0.77695 0.12918 0.23775 0.0
C1098 C 0.83292 0.06576 0.23361 0.0
C1099 C 0.83745 0.05856 0.25235 0.0
C1100 C 0.8235 0.08379 0.23169 0.0
C1101 C 0.81894 0.09508 0.24846 0.0
C1102 C 0.82431 0.08824 0.2671 0.0
C1103 C 0.83329 0.07011 0.26903 0.0
H1104 H 0.35316 0.99781 0.99158 0.0
H1105 H 0.38225 0.96008 0.94987 0.0
H1106 H 0.32905 0.97161 0.99743 0.0
H1107 H 0.35767 0.93445 0.95492 0.0
H1108 H 0.32941 0.88497 0.98852 0.0
H1109 H 0.35095 0.91251 0.98129 0.0
H1110 H 0.30167 0.95159 0.98326 0.0
H1111 H 0.2799 0.92378 0.99101 0.0
C1112 C 0.35433 0.98402 0.98354 0.0
C1113 C 0.36978 0.98103 0.97038 0.0
C1114 C 0.34036 0.96909 0.98672 0.0
C1115 C 0.34154 0.95086 0.97679 0.0
C1116 C 0.35653 0.94819 0.96307 0.0
C1117 C 0.3705 0.96302 0.95997 0.0
C1118 C 0.32305 0.89939 0.9874 0.0
C1119 C 0.30287 0.90212 0.99029 0.0
C1120 C 0.33544 0.9152 0.9831 0.0
C1121 C 0.32802 0.93424 0.98145 0.0
C1122 C 0.30785 0.9371 0.98451 0.0
C1123 C 0.29538 0.92118 0.98888 0.0
H1124 H 0.26206 0.39627 0.28121 0.0
H1125 H 0.26303 0.42632 0.3377 0.0
H1126 H 0.23223 0.41343 0.27198 0.0
H1127 H 0.233 0.44349 0.3284 0.0
H1128 H 0.18582 0.48071 0.29571 0.0
H1129 H 0.21874 0.46798 0.30237 0.0
H1130 H 0.19778 0.40941 0.2867 0.0
H1131 H 0.16504 0.42191 0.28032 0.0
C1132 C 0.25615 0.40689 0.29148 0.0
C1133 C 0.26483 0.40993 0.3102 0.0
C1134 C 0.23901 0.41658 0.28624 0.0
C1135 C 0.2303 0.42966 0.29953 0.0
C1136 C 0.23951 0.43353 0.31786 0.0
C1137 C 0.25657 0.42364 0.32322 0.0
C1138 C 0.18831 0.46515 0.2936 0.0
C1139 C 0.17285 0.45229 0.28756 0.0
C1140 C 0.20709 0.45789 0.29747 0.0
C1141 C 0.21076 0.43776 0.29494 0.0
C1142 C 0.19538 0.42503 0.28855 0.0
C1143 C 0.17662 0.43218 0.28503 0.0
H1144 H 0.13583 0.02035 0.48218 0.0
H1145 H 0.13808 0.02796 0.41933 0.0
H1146 H 0.16478 0.04181 0.48656 0.0
H1147 H 0.16629 0.05012 0.4238 0.0
H1148 H 0.23035 0.06613 0.43594 0.0
H1149 H 0.20033 0.04654 0.43261 0.0
H1150 H 0.17719 0.07565 0.48398 0.0
H1151 H 0.20769 0.09512 0.48765 0.0
C1152 C 0.14242 0.02668 0.46931 0.0
C1153 C 0.1347 0.02231 0.45039 0.0
C1154 C 0.15886 0.03918 0.47185 0.0
C1155 C 0.16793 0.04757 0.45552 0.0
C1156 C 0.15985 0.04365 0.43667 0.0
C1157 C 0.14349 0.03113 0.43413 0.0
C1158 C 0.2189 0.06844 0.44656 0.0
C1159 C 0.22143 0.08226 0.46205 0.0
C1160 C 0.20159 0.05727 0.44455 0.0
C1161 C 0.18627 0.05965 0.45791 0.0
C1162 C 0.18878 0.07338 0.47351 0.0
C1163 C 0.2062 0.08459 0.47556 0.0
H1164 H 0.71411 0.11868 0.71135 0.0
H1165 H 0.70322 0.14154 0.76969 0.0
H1166 H 0.69241 0.09046 0.71743 0.0
H1167 H 0.68168 0.11321 0.77584 0.0
H1168 H 0.62812 0.07046 0.77022 0.0
H1169 H 0.6491 0.09906 0.76374 0.0
H1170 H 0.69284 0.06101 0.73925 0.0
H1171 H 0.67192 0.03239 0.74569 0.0
C1172 C 0.70698 0.11772 0.72542 0.0
C1173 C 0.71035 0.1323 0.74005 0.0
C1174 C 0.69471 0.1015 0.72896 0.0
C1175 C 0.68539 0.09963 0.74712 0.0
C1176 C 0.68856 0.11434 0.76166 0.0
C1177 C 0.701 0.13045 0.7582 0.0
C1178 C 0.6422 0.06819 0.76345 0.0
C1179 C 0.64835 0.04915 0.75848 0.0
C1180 C 0.65425 0.08456 0.75983 0.0
C1181 C 0.67259 0.08226 0.75098 0.0
C1182 C 0.67869 0.06324 0.74592 0.0
C1183 C 0.66675 0.04685 0.74972 0.0
H1184 H 0.3883 0.01009 0.4983 0.0
H1185 H 0.39019 0.03623 0.55668 0.0
H1186 H 0.36496 0.03437 0.48785 0.0
H1187 H 0.36731 0.06137 0.54584 0.0
H1188 H 0.30744 0.08646 0.52187 0.0
H1189 H 0.33286 0.0653 0.5354 0.0
H1190 H 0.36421 0.06861 0.48082 0.0
H1191 H 0.33864 0.08903 0.4672 0.0
C1192 C 0.38369 0.02101 0.50895 0.0
C1193 C 0.39103 0.0211 0.52837 0.0
C1194 C 0.37051 0.03517 0.50286 0.0
C1195 C 0.36442 0.04999 0.51594 0.0
C1196 C 0.37167 0.05012 0.53543 0.0
C1197 C 0.3849 0.03583 0.54157 0.0
C1198 C 0.31994 0.08288 0.51293 0.0
C1199 C 0.32091 0.0891 0.49338 0.0
C1200 C 0.33451 0.0708 0.52067 0.0
C1201 C 0.35035 0.06492 0.50903 0.0
C1202 C 0.35192 0.07237 0.48998 0.0
C1203 C 0.33732 0.08417 0.48221 0.0
H1204 H 0.61251 0.46783 0.48488 0.0
H1205 H 0.61358 0.45313 0.5464 0.0
H1206 H 0.63912 0.44527 0.47894 0.0
H1207 H 0.63946 0.42966 0.54022 0.0
H1208 H 0.70075 0.40664 0.52622 0.0
H1209 H 0.67353 0.42841 0.53278 0.0
H1210 H 0.64662 0.41136 0.4769 0.0
H1211 H 0.67418 0.39011 0.47008 0.0
C1212 C 0.6184 0.45978 0.49716 0.0
C1213 C 0.61092 0.46245 0.51616 0.0
C1214 C 0.6335 0.44658 0.49369 0.0
C1215 C 0.64147 0.43555 0.50908 0.0
C1216 C 0.63387 0.43806 0.52805 0.0
C1217 C 0.61881 0.45135 0.53154 0.0
C1218 C 0.68898 0.40747 0.51537 0.0
C1219 C 0.6897 0.39669 0.49758 0.0
C1220 C 0.67328 0.41989 0.51918 0.0
C1221 C 0.65784 0.42175 0.50536 0.0
C1222 C 0.6584 0.41062 0.48774 0.0
C1223 C 0.67416 0.39831 0.48387 0.0
H1224 H 0.69071 0.2753 0.36713 0.0
H1225 H 0.75294 0.27942 0.35587 0.0
H1226 H 0.6962 0.2927 0.39869 0.0
H1227 H 0.75836 0.29657 0.38719 0.0
H1228 H 0.76549 0.30259 0.45243 0.0
H1229 H 0.75635 0.28608 0.42167 0.0
H1230 H 0.70795 0.32552 0.41408 0.0
H1231 H 0.71703 0.34218 0.44533 0.0
C1232 C 0.7055 0.2801 0.37128 0.0
C1233 C 0.72144 0.2757 0.35915 0.0
C1234 C 0.70862 0.29004 0.38933 0.0
C1235 C 0.72774 0.29569 0.39555 0.0
C1236 C 0.74351 0.29197 0.38303 0.0
C1237 C 0.74041 0.28212 0.36508 0.0
C1238 C 0.75279 0.30774 0.44435 0.0
C1239 C 0.74215 0.3239 0.45124 0.0
C1240 C 0.74762 0.2983 0.42664 0.0
C1241 C 0.73168 0.30476 0.41527 0.0
C1242 C 0.72034 0.32027 0.42254 0.0
C1243 C 0.72555 0.3298 0.4404 0.0
H1244 H 0.49002 0.0333 0.85528 0.0
H1245 H 0.5397 0.04146 0.89521 0.0
H1246 H 0.51214 0.02321 0.82929 0.0
H1247 H 0.5618 0.03168 0.86908 0.0
H1248 H 0.59671 0.02428 0.81194 0.0
H1249 H 0.57472 0.04011 0.83533 0.0
H1250 H 0.53212 0.99288 0.82584 0.0
H1251 H 0.55386 0.97714 0.80267 0.0
C1252 C 0.50566 0.03308 0.85848 0.0
C1253 C 0.51305 0.03792 0.87741 0.0
C1254 C 0.51832 0.02737 0.84358 0.0
C1255 C 0.53866 0.02648 0.84723 0.0
C1256 C 0.5462 0.03238 0.8658 0.0
C1257 C 0.53352 0.03799 0.88076 0.0
C1258 C 0.5826 0.01737 0.81479 0.0
C1259 C 0.57708 -0.0006 0.80554 0.0
C1260 C 0.57006 0.0264 0.82819 0.0
C1261 C 0.55169 0.01776 0.83232 0.0
C1262 C 0.54607 3e-05 0.82275 0.0
C1263 C 0.55863 0.99092 0.80959 0.0
H1264 H 0.30894 0.27013 0.42291 0.0
H1265 H 0.28249 0.24585 0.36957 0.0
H1266 H 0.29937 0.24033 0.44045 0.0
H1267 H 0.27225 0.21652 0.38702 0.0
H1268 H 0.28695 0.15797 0.41356 0.0
H1269 H 0.29109 0.18975 0.39877 0.0
H1270 H 0.27338 0.21825 0.45274 0.0
H1271 H 0.26963 0.18601 0.46793 0.0
C1272 C 0.30062 0.2586 0.41513 0.0
C1273 C 0.29664 0.26002 0.39491 0.0
C1274 C 0.29509 0.2416 0.42513 0.0
C1275 C 0.28537 0.22589 0.41503 0.0
C1276 C 0.28018 0.22811 0.39511 0.0
C1277 C 0.28591 0.24491 0.38513 0.0
C1278 C 0.28382 0.17093 0.42235 0.0
C1279 C 0.27792 0.1694 0.44196 0.0
C1280 C 0.28604 0.18923 0.41377 0.0
C1281 C 0.28232 0.20657 0.42447 0.0
C1282 C 0.27641 0.20515 0.44412 0.0
C1283 C 0.27419 0.1867 0.45279 0.0
H1284 H 0.47701 0.51051 0.86414 0.0
H1285 H 0.46349 0.44824 0.86634 0.0
H1286 H 0.45326 0.51362 0.83713 0.0
H1287 H 0.43938 0.45158 0.83976 0.0
H1288 H 0.37974 0.4741 0.81541 0.0
H1289 H 0.40679 0.46921 0.83855 0.0
H1290 H 0.44583 0.50196 0.80136 0.0
H1291 H 0.41864 0.5068 0.77792 0.0
C1292 C 0.46923 0.49743 0.8587 0.0
C1293 C 0.47203 0.47916 0.8676 0.0
C1294 C 0.45561 0.49925 0.84324 0.0
C1295 C 0.4444 0.48287 0.83648 0.0
C1296 C 0.44764 0.4645 0.84489 0.0
C1297 C 0.46137 0.46263 0.86019 0.0
C1298 C 0.3941 0.48018 0.81206 0.0
C1299 C 0.39704 0.49089 0.79486 0.0
C1300 C 0.40961 0.47726 0.82527 0.0
C1301 C 0.42839 0.48517 0.82172 0.0
C1302 C 0.43145 0.49577 0.80446 0.0
C1303 C 0.41594 0.49846 0.79104 0.0
H1304 H 0.76725 0.70746 0.13098 0.0
H1305 H 0.705 0.69361 0.13064 0.0
H1306 H 0.77142 0.68488 0.10321 0.0
H1307 H 0.70922 0.67092 0.10292 0.0
H1308 H 0.72838 0.61808 0.06506 0.0
H1309 H 0.72438 0.63946 0.09388 0.0
H1310 H 0.76239 0.68325 0.06823 0.0
H1311 H 0.76661 0.66186 0.03961 0.0
C1312 C 0.75444 0.69966 0.12493 0.0
C1313 C 0.73578 0.70243 0.13298 0.0
C1314 C 0.75683 0.68671 0.10902 0.0
C1315 C 0.74064 0.67618 0.10079 0.0
C1316 C 0.72203 0.67865 0.10906 0.0
C1317 C 0.71962 0.69164 0.12496 0.0
C1318 C 0.7359 0.63226 0.06558 0.0
C1319 C 0.74784 0.63824 0.05003 0.0
C1320 C 0.73353 0.64454 0.08205 0.0
C1321 C 0.74311 0.66303 0.08337 0.0
C1322 C 0.75503 0.66898 0.06781 0.0
C1323 C 0.75735 0.65675 0.05133 0.0
H1324 H 0.96213 0.98709 0.10061 0.0
H1325 H 0.96898 0.04814 0.11836 0.0
H1326 H 0.93843 0.98208 0.12667 0.0
H1327 H 0.94489 0.04326 0.1441 0.0
H1328 H 0.918 0.02118 0.20143 0.0
H1329 H 0.94176 0.02616 0.17547 0.0
H1330 H 0.90487 0.9915 0.13526 0.0
H1331 H 0.88118 0.98631 0.16127 0.0
C1332 C 0.95861 -0.00057 0.11011 0.0
C1333 C 0.96748 0.01801 0.10742 0.0
C1334 C 0.94487 0.99661 0.12491 0.0
C1335 C 0.93975 0.01227 0.13746 0.0
C1336 C 0.94865 0.03084 0.1348 0.0
C1337 C 0.9623 0.03369 0.11993 0.0
C1338 C 0.91493 0.01461 0.18706 0.0
C1339 C 0.89766 0.00333 0.18345 0.0
C1340 C 0.92851 0.01757 0.17214 0.0
C1341 C 0.92522 0.00924 0.15328 0.0
C1342 C 0.90796 0.99794 0.14968 0.0
C1343 C 0.89432 0.99506 0.16458 0.0
H1344 H 0.23173 0.79674 0.15508 0.0
H1345 H 0.28655 0.77139 0.13765 0.0
H1346 H 0.23144 0.81651 0.12527 0.0
H1347 H 0.28601 0.79031 0.1078 0.0
H1348 H 0.29269 0.83793 0.06563 0.0
H1349 H 0.29086 0.8226 0.09749 0.0
H1350 H 0.22786 0.81561 0.09 0.0
H1351 H 0.22973 0.83209 0.05831 0.0
C1352 C 0.24361 0.79532 0.14478 0.0
C1353 C 0.25932 0.78278 0.14876 0.0
C1354 C 0.24344 0.80657 0.12771 0.0
C1355 C 0.25887 0.8053 0.11424 0.0
C1356 C 0.2742 0.79224 0.11808 0.0
C1357 C 0.27449 0.78126 0.13516 0.0
C1358 C 0.27841 0.83337 0.07093 0.0
C1359 C 0.26138 0.83598 0.05946 0.0
C1360 C 0.27736 0.82441 0.08913 0.0
C1361 C 0.25928 0.81732 0.09614 0.0
C1362 C 0.24203 0.82087 0.0851 0.0
C1363 C 0.24307 0.83027 0.06694 0.0
H1364 H 0.03029 0.49642 0.1389 0.0
H1365 H 0.04674 0.43574 0.13119 0.0
H1366 H 0.05135 0.49915 0.16825 0.0
H1367 H 0.06851 0.43882 0.15973 0.0
H1368 H 0.07924 0.44216 0.22598 0.0
H1369 H 0.0624 0.44102 0.19434 0.0
H1370 H 0.08499 0.49917 0.18188 0.0
H1371 H 0.10168 0.50055 0.21406 0.0
C1372 C 0.03855 0.48374 0.1433 0.0
C1373 C 0.03662 0.46579 0.13277 0.0
C1374 C 0.05082 0.48539 0.15998 0.0
C1375 C 0.06144 0.46913 0.16646 0.0
C1376 C 0.06026 0.45153 0.15534 0.0
C1377 C 0.04795 0.44984 0.13878 0.0
C1378 C 0.08076 0.45472 0.21652 0.0
C1379 C 0.0918 0.47147 0.2226 0.0
C1380 C 0.0712 0.45398 0.19826 0.0
C1381 C 0.07246 0.46995 0.1855 0.0
C1382 C 0.08364 0.48668 0.19144 0.0
C1383 C 0.09327 0.48743 0.20982 0.0
H1384 H 0.3751 0.74306 0.2608 0.0
H1385 H 0.35716 0.69911 0.3023 0.0
H1386 H 0.407 0.74568 0.27674 0.0
H1387 H 0.38994 0.70048 0.3173 0.0
H1388 H 0.44193 0.72837 0.35418 0.0
H1389 H 0.41059 0.72008 0.33776 0.0
H1390 H 0.43691 0.73114 0.28147 0.0
H1391 H 0.46762 0.7407 0.29813 0.0
C1392 C 0.37795 0.73386 0.27331 0.0
C1393 C 0.36332 0.72108 0.28037 0.0
C1394 C 0.39652 0.73505 0.28225 0.0
C1395 C 0.40129 0.72317 0.2983 0.0
C1396 C 0.38682 0.71002 0.30512 0.0
C1397 C 0.36805 0.70905 0.29633 0.0
C1398 C 0.441 0.72865 0.33828 0.0
C1399 C 0.45704 0.73538 0.3274 0.0
C1400 C 0.42305 0.72387 0.32881 0.0
C1401 C 0.42097 0.72534 0.30824 0.0
C1402 C 0.43765 0.73051 0.29735 0.0
C1403 C 0.45536 0.73577 0.30685 0.0
H1404 H 0.99437 0.34684 0.00825 0.0
H1405 H 0.95594 0.37884 0.96961 0.0
H1406 H 0.00146 0.32397 0.98125 0.0
H1407 H 0.9623 0.35561 0.94309 0.0
H1408 H 0.99793 0.3291 0.89449 0.0
H1409 H 0.99052 0.34948 0.92284 0.0
H1410 H 0.98712 0.29793 0.95884 0.0
H1411 H 0.99495 0.27726 0.93023 0.0
C1412 C 0.98732 0.34892 0.99407 0.0
C1413 C 0.97468 0.36477 0.99109 0.0
C1414 C 0.99122 0.33569 0.97868 0.0
C1415 C 0.9826 0.3381 0.95998 0.0
C1416 C 0.96944 0.35353 0.95723 0.0
C1417 C 0.96559 0.36672 0.97255 0.0
C1418 C 0.99565 0.322 0.90841 0.0
C1419 C 0.99691 0.30149 0.91003 0.0
C1420 C 0.99126 0.33373 0.92467 0.0
C1421 C 0.98793 0.32531 0.94304 0.0
C1422 C 0.98964 0.30484 0.94487 0.0
C1423 C 0.99407 0.29302 0.92849 0.0
H1424 H 0.65994 0.77719 0.3046 0.0
H1425 H 0.63108 0.73557 0.26435 0.0
H1426 H 0.63166 0.77547 0.3261 0.0
H1427 H 0.60316 0.73343 0.28627 0.0
H1428 H 0.56037 0.72668 0.33773 0.0
H1429 H 0.5923 0.72411 0.3216 0.0
H1430 H 0.59672 0.78742 0.31945 0.0
H1431 H 0.56497 0.78998 0.33515 0.0
C1432 C 0.64768 0.76756 0.30038 0.0
C1433 C 0.64771 0.75677 0.28253 0.0
C1434 C 0.63156 0.76648 0.31279 0.0
C1435 C 0.61521 0.75439 0.30779 0.0
C1436 C 0.61567 0.74272 0.29058 0.0
C1437 C 0.6317 0.74396 0.27803 0.0
C1438 C 0.56836 0.74001 0.33407 0.0
C1439 C 0.56017 0.75852 0.33758 0.0
C1440 C 0.58653 0.73854 0.32478 0.0
C1441 C 0.59695 0.75557 0.31931 0.0
C1442 C 0.58912 0.77405 0.32367 0.0
C1443 C 0.57088 0.77551 0.33255 0.0
H1444 H 0.02501 0.13429 0.98686 0.0
H1445 H 0.02712 0.09365 0.9375 0.0
H1446 H 0.02219 0.16161 0.96435 0.0
H1447 H 0.024 0.12089 0.91495 0.0
H1448 H 0.03968 0.17588 0.88053 0.0
H1449 H 0.04203 0.14857 0.90302 0.0
H1450 H 0.00034 0.17642 0.94123 0.0
H1451 H 0.99844 0.20403 0.91899 0.0
C1452 C 0.02466 0.13118 0.97119 0.0
C1453 C 0.02634 0.1118 0.96398 0.0
C1454 C 0.023 0.14684 0.95826 0.0
C1455 C 0.02288 0.14351 0.93778 0.0
C1456 C 0.0244 0.12408 0.9306 0.0
C1457 C 0.02616 0.10844 0.94353 0.0
C1458 C 0.03098 0.17618 0.89371 0.0
C1459 C 0.01889 0.19218 0.89795 0.0
C1460 C 0.03224 0.16043 0.90658 0.0
C1461 C 0.02137 0.16023 0.92398 0.0
C1462 C 0.00916 0.17619 0.92814 0.0
C1463 C 0.00797 0.19199 0.91531 0.0
H1464 H 0.38134 0.27873 0.2527 0.0
H1465 H 0.41737 0.3317 0.25584 0.0
H1466 H 0.39826 0.26823 0.2231 0.0
H1467 H 0.43421 0.32123 0.22599 0.0
H1468 H 0.47078 0.28569 0.18111 0.0
H1469 H 0.45648 0.29405 0.21292 0.0
H1470 H 0.39842 0.28154 0.18873 0.0
H1471 H 0.41255 0.27327 0.15708 0.0
C1472 C 0.39308 0.28799 0.24722 0.0
C1473 C 0.39804 0.30605 0.25656 0.0
C1474 C 0.40264 0.28206 0.2302 0.0
C1475 C 0.41747 0.29397 0.22223 0.0
C1476 C 0.4229 0.31172 0.2319 0.0
C1477 C 0.41318 0.31777 0.24886 0.0
C1478 C 0.45498 0.28462 0.18264 0.0
C1479 C 0.44279 0.27886 0.16658 0.0
C1480 C 0.44682 0.2895 0.2008 0.0
C1481 C 0.42637 0.28839 0.20326 0.0
C1482 C 0.41425 0.28232 0.1873 0.0
C1483 C 0.42235 0.2777 0.16914 0.0
H1484 H 0.54384 0.381 0.019 0.0
H1485 H 0.48579 0.40443 0.02601 0.0
H1486 H 0.53519 0.35367 0.04031 0.0
H1487 H 0.47725 0.37745 0.04746 0.0
H1488 H 0.45999 0.31522 0.0624 0.0
H1489 H 0.47065 0.34284 0.04301 0.0
H1490 H 0.52673 0.34423 0.07381 0.0
H1491 H 0.51617 0.31602 0.09309 0.0
C1492 C 0.52934 0.38045 0.02534 0.0
C1493 C 0.51539 0.39468 0.02066 0.0
C1494 C 0.5244 0.36483 0.03755 0.0
C1495 C 0.50544 0.36324 0.04537 0.0
C1496 C 0.49182 0.37796 0.04129 0.0
C1497 C 0.49671 0.39345 0.02904 0.0
C1498 C 0.47461 0.32135 0.06511 0.0
C1499 C 0.48718 0.31345 0.0794 0.0
C1500 C 0.48068 0.33732 0.05404 0.0
C1501 C 0.49945 0.34593 0.05702 0.0
C1502 C 0.51221 0.33787 0.0711 0.0
C1503 C 0.50613 0.32177 0.08219 0.0
H1504 H 0.60915 0.23561 0.22652 0.0
H1505 H 0.64693 0.23622 0.17615 0.0
H1506 H 0.58071 0.24059 0.20513 0.0
H1507 H 0.61841 0.24133 0.15468 0.0
H1508 H 0.55951 0.22966 0.12131 0.0
H1509 H 0.58864 0.22483 0.14196 0.0
H1510 H 0.5665 0.26578 0.18512 0.0
H1511 H 0.53725 0.27028 0.16475 0.0
C1512 C 0.6114 0.23699 0.21088 0.0
C1513 C 0.63032 0.23562 0.20305 0.0
C1514 C 0.59509 0.23987 0.19861 0.0
C1515 C 0.59728 0.24149 0.17819 0.0
C1516 C 0.61618 0.23993 0.17031 0.0
C1517 C 0.63252 0.23701 0.18261 0.0
C1518 C 0.5609 0.23769 0.13517 0.0
C1519 C 0.546 0.25028 0.14141 0.0
C1520 C 0.57764 0.23498 0.14697 0.0
C1521 C 0.57986 0.24483 0.16525 0.0
C1522 C 0.56511 0.25769 0.17129 0.0
C1523 C 0.54838 0.26037 0.15953 0.0
H1524 H 0.44118 0.11577 0.04745 0.0
H1525 H 0.50092 0.12828 0.03016 0.0
H1526 H 0.44218 0.14458 0.06896 0.0
H1527 H 0.50145 0.15792 0.05092 0.0
H1528 H 0.49915 0.20525 0.0997 0.0
H1529 H 0.50051 0.17251 0.08421 0.0
H1530 H 0.44124 0.17893 0.06176 0.0
H1531 H 0.4397 0.21107 0.07739 0.0
C1532 C 0.45467 0.12445 0.04844 0.0
C1533 C 0.47091 0.11973 0.03688 0.0
C1534 C 0.45514 0.14117 0.06061 0.0
C1535 C 0.47176 0.15375 0.06138 0.0
C1536 C 0.48841 0.14852 0.05068 0.0
C1537 C 0.48801 0.13166 0.03857 0.0
C1538 C 0.48638 0.19954 0.09159 0.0
C1539 C 0.46933 0.21079 0.08977 0.0
C1540 C 0.48719 0.18085 0.08266 0.0
C1541 C 0.47094 0.17306 0.07185 0.0
C1542 C 0.45388 0.18428 0.0703 0.0
C1543 C 0.45307 0.20284 0.07915 0.0
H1544 H 0.29862 0.35425 0.69388 0.0
H1545 H 0.2578 0.37036 0.73916 0.0
H1546 H 0.31299 0.38736 0.69554 0.0
H1547 H 0.27311 0.40258 0.74199 0.0
H1548 H 0.29244 0.46395 0.73684 0.0
H1549 H 0.27655 0.43277 0.72752 0.0
H1550 H 0.33337 0.40836 0.71508 0.0
H1551 H 0.34901 0.44017 0.7232 0.0
C1552 C 0.29268 0.36479 0.70418 0.0
C1553 C 0.27709 0.35947 0.71647 0.0
C1554 C 0.30111 0.38375 0.70531 0.0
C1555 C 0.29425 0.39781 0.71887 0.0
C1556 C 0.27861 0.39243 0.73105 0.0
C1557 C 0.27004 0.37367 0.72973 0.0
C1558 C 0.30144 0.45201 0.73169 0.0
C1559 C 0.32192 0.45437 0.73086 0.0
C1560 C 0.29239 0.43403 0.72656 0.0
C1561 C 0.30367 0.41775 0.72105 0.0
C1562 C 0.32413 0.42051 0.71915 0.0
C1563 C 0.33315 0.43872 0.72384 0.0
H1564 H 0.25949 0.63189 0.73152 0.0
H1565 H 0.30269 0.65958 0.77089 0.0
H1566 H 0.2802 0.60313 0.72856 0.0
H1567 H 0.32293 0.63047 0.7684 0.0
H1568 H 0.32928 0.56356 0.78362 0.0
H1569 H 0.31454 0.59577 0.7812 0.0
H1570 H 0.31528 0.59095 0.71788 0.0
H1571 H 0.33053 0.55856 0.72029 0.0
C1572 C 0.27355 0.63207 0.73922 0.0
C1573 C 0.27924 0.648 0.75169 0.0
C1574 C 0.2854 0.61556 0.73751 0.0
C1575 C 0.30306 0.61455 0.74838 0.0
C1576 C 0.30926 0.63081 0.76004 0.0
C1577 C 0.29756 0.6474 0.76156 0.0
C1578 C 0.32654 0.56945 0.76916 0.0
C1579 C 0.33097 0.55854 0.75213 0.0
C1580 C 0.31822 0.58794 0.76779 0.0
C1581 C 0.3138 0.59584 0.74936 0.0
C1582 C 0.31855 0.58515 0.73226 0.0
C1583 C 0.32732 0.56671 0.73364 0.0
H1584 H 0.85061 0.48502 0.43904 0.0
H1585 H 0.85348 0.49537 0.50192 0.0
H1586 H 0.82625 0.4588 0.44358 0.0
H1587 H 0.82864 0.46956 0.50627 0.0
H1588 H 0.7741 0.42733 0.50378 0.0
H1589 H 0.79245 0.45796 0.49734 0.0
H1590 H 0.8319 0.4257 0.46027 0.0
H1591 H 0.81396 0.39534 0.46683 0.0
C1592 C 0.84592 0.48188 0.4538 0.0
C1593 C 0.85429 0.49211 0.47013 0.0
C1594 C 0.83187 0.46696 0.45636 0.0
C1595 C 0.8257 0.46209 0.47528 0.0
C1596 C 0.83303 0.47314 0.49151 0.0
C1597 C 0.84726 0.48795 0.48898 0.0
C1598 C 0.78658 0.42689 0.49412 0.0
C1599 C 0.79269 0.40895 0.48591 0.0
C1600 C 0.79708 0.44435 0.4905 0.0
C1601 C 0.8135 0.44416 0.47824 0.0
C1602 C 0.81916 0.42632 0.46958 0.0
C1603 C 0.80897 0.40891 0.47348 0.0
H1604 H 0.76187 0.91613 0.82171 0.0
H1605 H 0.72685 0.863 0.81328 0.0
H1606 H 0.73343 0.93574 0.81277 0.0
H1607 H 0.6987 0.88233 0.80375 0.0
H1608 H 0.64646 0.92106 0.80486 0.0
H1609 H 0.67512 0.90366 0.81637 0.0
H1610 H 0.71282 0.94426 0.78566 0.0
H1611 H 0.68397 0.96225 0.77484 0.0
C1612 C 0.74809 0.90868 0.81788 0.0
C1613 C 0.74649 0.88807 0.81836 0.0
C1614 C 0.73183 0.91987 0.81266 0.0
C1615 C 0.71369 0.91066 0.80761 0.0
C1616 C 0.71224 0.89001 0.80801 0.0
C1617 C 0.7284 0.87888 0.81342 0.0
C1618 C 0.66086 0.92633 0.80062 0.0
C1619 C 0.66294 0.94294 0.78881 0.0
C1620 C 0.67733 0.91627 0.80713 0.0
C1621 C 0.69633 0.92235 0.80175 0.0
C1622 C 0.69845 0.93925 0.79026 0.0
C1623 C 0.68192 0.94951 0.78395 0.0
H1624 H 0.62149 0.53411 0.99734 0.0
H1625 H 0.61815 0.5437 0.93475 0.0
H1626 H 0.65258 0.55253 -0.00078 0.0
H1627 H 0.6485 0.56302 0.93686 0.0
H1628 H 0.71524 0.56918 0.94293 0.0
H1629 H 0.68227 0.55513 0.94151 0.0
H1630 H 0.66908 0.58435 0.99651 0.0
H1631 H 0.70255 0.59813 0.99823 0.0
C1632 C 0.62727 0.54029 0.98402 0.0
C1633 C 0.61739 0.53721 0.96586 0.0
C1634 C 0.64496 0.5511 0.98515 0.0
C1635 C 0.65313 0.55912 0.96816 0.0
C1636 C 0.64279 0.55676 0.95018 0.0
C1637 C 0.62521 0.54588 0.94902 0.0
C1638 C 0.70533 0.57277 0.9547 0.0
C1639 C 0.71159 0.58474 0.97074 0.0
C1640 C 0.68631 0.56481 0.95379 0.0
C1641 C 0.67297 0.56866 0.96885 0.0
C1642 C 0.67907 0.58095 0.98476 0.0
C1643 C 0.6982 0.58893 0.98569 0.0
H1644 H 0.19506 0.63416 0.21267 0.0
H1645 H 0.20304 0.6404 0.27561 0.0
H1646 H 0.17368 0.60546 0.21727 0.0
H1647 H 0.18173 0.61172 0.2802 0.0
H1648 H 0.16494 0.54609 0.2785 0.0
H1649 H 0.18381 0.57636 0.27416 0.0
H1650 H 0.14172 0.59466 0.23025 0.0
H1651 H 0.12288 0.56412 0.23438 0.0
C1652 C 0.19202 0.62959 0.2275 0.0
C1653 C 0.20088 0.63948 0.24377 0.0
C1654 C 0.17977 0.61313 0.23013 0.0
C1655 C 0.17612 0.60622 0.2491 0.0
C1656 C 0.18455 0.61645 0.26538 0.0
C1657 C 0.19677 0.63288 0.26275 0.0
C1658 C 0.15963 0.55657 0.26796 0.0
C1659 C 0.14239 0.55266 0.25678 0.0
C1660 C 0.17041 0.574 0.26556 0.0
C1661 C 0.16424 0.58796 0.2519 0.0
C1662 C 0.14694 0.58412 0.24077 0.0
C1663 C 0.1361 0.56667 0.24322 0.0
H1664 H 0.85653 0.4817 0.04263 0.0
H1665 H 0.89583 0.53182 0.05172 0.0
H1666 H 0.83076 0.50348 0.03139 0.0
H1667 H 0.86986 0.55359 0.04085 0.0
H1668 H 0.81212 0.58745 0.03064 0.0
H1669 H 0.83512 0.56603 0.04783 0.0
H1670 H 0.82916 0.52321 0.00038 0.0
H1671 H 0.80647 0.5444 0.98328 0.0
C1672 C 0.85962 0.49737 0.0424 0.0
C1673 C 0.87835 0.50497 0.04778 0.0
C1674 C 0.84485 0.50983 0.03605 0.0
C1675 C 0.8484 0.53019 0.03507 0.0
C1676 C 0.86668 0.53797 0.04159 0.0
C1677 C 0.88154 0.52547 0.04783 0.0
C1678 C 0.81567 0.57341 0.02398 0.0
C1679 C 0.80756 0.56766 0.00556 0.0
C1680 C 0.82884 0.56121 0.03378 0.0
C1681 C 0.8338 0.54293 0.02548 0.0
C1682 C 0.82539 0.53709 0.00727 0.0
C1683 C 0.81252 0.54933 0.99739 0.0
H1684 H 0.12547 0.96572 0.04708 0.0
H1685 H 0.10779 0.95698 0.98624 0.0
H1686 H 0.15191 0.94232 0.04269 0.0
H1687 H 0.13448 0.9339 0.98175 0.0
H1688 H 0.17019 0.87744 0.98787 0.0
H1689 H 0.14371 0.90069 0.9924 0.0
H1690 H 0.18342 0.93974 0.02521 0.0
H1691 H 0.2099 0.91644 0.02084 0.0
C1692 C 0.12721 0.95876 0.03278 0.0
C1693 C 0.11452 0.9632 0.01701 0.0
C1694 C 0.14247 0.94551 0.03022 0.0
C1695 C 0.1453 0.93626 0.01186 0.0
C1696 C 0.13258 0.94064 0.99611 0.0
C1697 C 0.11741 0.95401 -0.00136 0.0
C1698 C 0.17329 0.89097 0.99606 0.0
C1699 C 0.19218 0.89505 0.00399 0.0
C1700 C 0.15813 0.90435 -0.00144 0.0
C1701 C 0.16146 0.92207 0.00916 0.0
C1702 C 0.18032 0.92612 0.01715 0.0
C1703 C 0.19553 0.91281 0.01454 0.0
loop_
_geom_bond_atom_site_label_1
_geom_bond_atom_site_label_2
_geom_bond_distance
_geom_bond_site_symmetry_2
_ccdc_geom_bond_type
C0 C1 1.384 . S
C0 H13 0.947 . S
C0 C35 1.382 1_655 S
C1 C0 1.384 . S
C1 C2 1.378 1_655 S
C2 C1 1.378 1_455 S
C2 C3 1.378 . S
C2 H14 0.952 . S
C3 C2 1.378 . S
C3 H15 0.950 . S
C3 C34 1.383 . S
H4 C23 0.946 . S
H5 C24 0.946 . S
H6 C26 0.953 . S
H7 C27 0.945 . S
H8 C29 0.952 1_556 S
H9 C30 0.949 . S
H10 C32 0.950 . S
H11 C33 0.948 . S
H12 C35 0.951 1_655 S
H13 C0 0.947 . S
H14 C2 0.952 . S
H15 C3 0.950 . S
N16 C19 1.382 . S
N16 C21 1.363 . S
N17 C19 1.371 . S
N17 C20 1.372 . S
N18 C20 1.361 . S
N18 C21 1.377 . S
C19 N16 1.382 . S
C19 N17 1.371 . S
C19 C22 1.480 . S
C20 N17 1.372 . S
C20 N18 1.361 . S
C20 C28 1.457 . S
C21 N16 1.363 . S
C21 N18 1.377 . S
C21 C34 1.479 . S
C22 C19 1.480 . S
C22 C23 1.383 . S
C22 C27 1.385 . S
C23 H4 0.946 . S
C23 C22 1.383 . S
C23 C24 1.388 1_545 S
C24 H5 0.946 . S
C24 C23 1.388 1_565 S
C24 C25 1.384 . S
C25 C24 1.384 . S
C25 C26 1.377 1_565 S
C26 H6 0.953 . S
C26 C25 1.377 1_545 S
C26 C27 1.369 . S
C27 H7 0.945 . S
C27 C22 1.385 . S
C27 C26 1.369 . S
C28 C20 1.457 . S
C28 C29 1.372 . S
C28 C33 1.364 . S
C29 H8 0.952 1_554 S
C29 C28 1.372 . S
C29 C30 1.389 1_554 S
C30 H9 0.949 . S
C30 C29 1.389 1_556 S
C30 C31 1.387 . S
C31 C30 1.387 . S
C31 C32 1.372 1_556 S
C32 H10 0.950 . S
C32 C31 1.372 1_554 S
C32 C33 1.379 . S
C33 H11 0.948 . S
C33 C28 1.364 . S
C33 C32 1.379 . S
C34 C3 1.383 . S
C34 C21 1.479 . S
C34 C35 1.398 . S
C35 C0 1.382 1_455 S
C35 H12 0.951 1_455 S
C35 C34 1.398 . S
C36 C37 1.384 . S
C36 H49 0.947 . S
C36 C71 1.382 . S
C37 C36 1.384 . S
C37 C38 1.378 . S
C38 C37 1.378 . S
C38 C39 1.378 . S
C38 H50 0.952 . S
C39 C38 1.378 . S
C39 H51 0.950 . S
C39 C70 1.383 . S
H40 C59 0.947 . S
H41 C60 0.946 . S
H42 C62 0.953 . S
H43 C63 0.945 . S
H44 C65 0.952 . S
H45 C66 0.949 . S
H46 C68 0.950 . S
H47 C69 0.948 . S
H48 C71 0.951 . S
H49 C36 0.947 . S
H50 C38 0.952 . S
H51 C39 0.950 . S
N52 C55 1.382 . S
N52 C57 1.363 . S
N53 C55 1.371 . S
N53 C56 1.372 . S
N54 C56 1.361 . S
N54 C57 1.377 . S
C55 N52 1.382 . S
C55 N53 1.371 . S
C55 C58 1.480 . S
C56 N53 1.372 . S
C56 N54 1.361 . S
C56 C64 1.457 . S
C57 N52 1.363 . S
C57 N54 1.377 . S
C57 C70 1.479 . S
C58 C55 1.480 . S
C58 C59 1.383 . S
C58 C63 1.385 . S
C59 H40 0.947 . S
C59 C58 1.383 . S
C59 C60 1.388 . S
C60 H41 0.946 . S
C60 C59 1.388 . S
C60 C61 1.384 . S
C61 C60 1.384 . S
C61 C62 1.377 . S
C62 H42 0.953 . S
C62 C61 1.377 . S
C62 C63 1.369 . S
C63 H43 0.945 . S
C63 C58 1.385 . S
C63 C62 1.369 . S
C64 C56 1.457 . S
C64 C65 1.372 . S
C64 C69 1.364 . S
C65 H44 0.952 . S
C65 C64 1.372 . S
C65 C66 1.389 . S
C66 H45 0.949 . S
C66 C65 1.389 . S
C66 C67 1.387 . S
C67 C66 1.387 . S
C67 C68 1.372 . S
C68 H46 0.950 . S
C68 C67 1.372 . S
C68 C69 1.379 . S
C69 H47 0.948 . S
C69 C64 1.364 . S
C69 C68 1.379 . S
C70 C39 1.383 . S
C70 C57 1.479 . S
C70 C71 1.398 . S
C71 C36 1.382 . S
C71 H48 0.951 . S
C71 C70 1.398 . S
C72 C73 1.384 . S
C72 H85 0.947 . S
C72 C107 1.382 . S
C73 C72 1.384 . S
C73 C74 1.378 1_554 S
C74 C73 1.378 1_556 S
C74 C75 1.378 1_556 S
C74 H86 0.952 . S
C75 C74 1.378 1_554 S
C75 H87 0.950 . S
C75 C106 1.383 . S
H76 C95 0.947 . S
H77 C96 0.946 . S
H78 C98 0.953 . S
H79 C99 0.945 . S
H80 C101 0.952 . S
H81 C102 0.949 . S
H82 C104 0.950 . S
H83 C105 0.948 . S
H84 C107 0.951 . S
H85 C72 0.947 . S
H86 C74 0.952 . S
H87 C75 0.950 . S
N88 C91 1.382 . S
N88 C93 1.363 . S
N89 C91 1.371 . S
N89 C92 1.372 . S
N90 C92 1.361 . S
N90 C93 1.377 . S
C91 N88 1.382 . S
C91 N89 1.371 . S
C91 C94 1.480 . S
C92 N89 1.372 . S
C92 N90 1.361 . S
C92 C100 1.457 . S
C93 N88 1.363 . S
C93 N90 1.377 . S
C93 C106 1.479 . S
C94 C91 1.480 . S
C94 C95 1.383 . S
C94 C99 1.385 . S
C95 H76 0.947 . S
C95 C94 1.383 . S
C95 C96 1.388 . S
C96 H77 0.946 . S
C96 C95 1.388 . S
C96 C97 1.384 . S
C97 C96 1.384 . S
C97 C98 1.377 . S
C98 H78 0.953 . S
C98 C97 1.377 . S
C98 C99 1.369 . S
C99 H79 0.945 . S
C99 C94 1.385 . S
C99 C98 1.369 . S
C100 C92 1.457 . S
C100 C101 1.372 . S
C100 C105 1.364 . S
C101 H80 0.952 . S
C101 C100 1.372 . S
C101 C102 1.389 . S
C102 H81 0.949 . S
C102 C101 1.389 . S
C102 C103 1.387 1_655 S
C103 C102 1.387 1_455 S
C103 C104 1.372 . S
C104 H82 0.950 . S
C104 C103 1.372 . S
C104 C105 1.379 1_455 S
C105 H83 0.948 . S
C105 C100 1.364 . S
C105 C104 1.379 1_655 S
C106 C75 1.383 . S
C106 C93 1.479 . S
C106 C107 1.398 . S
C107 C72 1.382 . S
C107 H84 0.951 . S
C107 C106 1.398 . S
C108 C109 1.384 . S
C108 H121 0.947 . S
C108 C143 1.382 . S
C109 C108 1.384 . S
C109 C110 1.378 . S
C110 C109 1.378 . S
C110 C111 1.378 . S
C110 H122 0.952 . S
C111 C110 1.378 . S
C111 H123 0.950 . S
C111 C142 1.383 . S
H112 C131 0.947 . S
H113 C132 0.946 . S
H114 C134 0.953 . S
H115 C135 0.945 . S
H116 C137 0.952 . S
H117 C138 0.949 . S
H118 C140 0.950 . S
H119 C141 0.948 . S
H120 C143 0.951 . S
H121 C108 0.947 . S
H122 C110 0.952 . S
H123 C111 0.950 . S
N124 C127 1.382 . S
N124 C129 1.363 . S
N125 C127 1.371 . S
N125 C128 1.372 . S
N126 C128 1.361 . S
N126 C129 1.377 . S
C127 N124 1.382 . S
C127 N125 1.371 . S
C127 C130 1.480 . S
C128 N125 1.372 . S
C128 N126 1.361 . S
C128 C136 1.457 . S
C129 N124 1.363 . S
C129 N126 1.377 . S
C129 C142 1.479 . S
C130 C127 1.480 . S
C130 C131 1.383 . S
C130 C135 1.385 . S
C131 H112 0.947 . S
C131 C130 1.383 . S
C131 C132 1.388 . S
C132 H113 0.946 . S
C132 C131 1.388 . S
C132 C133 1.384 . S
C133 C132 1.384 . S
C133 C134 1.377 . S
C134 H114 0.953 . S
C134 C133 1.377 . S
C134 C135 1.369 . S
C135 H115 0.945 . S
C135 C130 1.385 . S
C135 C134 1.369 . S
C136 C128 1.457 . S
C136 C137 1.372 . S
C136 C141 1.364 . S
C137 H116 0.952 . S
C137 C136 1.372 . S
C137 C138 1.389 . S
C138 H117 0.949 . S
C138 C137 1.389 . S
C138 C139 1.387 . S
C139 C138 1.387 . S
C139 C140 1.372 . S
C140 H118 0.950 . S
C140 C139 1.372 . S
C140 C141 1.379 . S
C141 H119 0.948 . S
C141 C136 1.364 . S
C141 C140 1.379 . S
C142 C111 1.383 . S
C142 C129 1.479 . S
C142 C143 1.398 . S
C143 C108 1.382 . S
C143 H120 0.951 . S
C143 C142 1.398 . S
C144 C145 1.384 . S
C144 H157 0.947 . S
C144 C179 1.382 . S
C145 C144 1.384 . S
C145 C146 1.378 . S
C146 C145 1.378 . S
C146 C147 1.378 . S
C146 H158 0.952 . S
C147 C146 1.378 . S
C147 H159 0.950 . S
C147 C178 1.383 . S
H148 C167 0.947 . S
H149 C168 0.948 1_655 S
H150 C170 0.953 . S
H151 C171 0.945 . S
H152 C173 0.952 . S
H153 C174 0.949 . S
H154 C176 0.950 . S
H155 C177 0.948 . S
H156 C179 0.951 . S
H157 C144 0.947 . S
H158 C146 0.952 . S
H159 C147 0.950 . S
N160 C163 1.382 . S
N160 C165 1.363 . S
N161 C163 1.371 . S
N161 C164 1.372 . S
N162 C164 1.361 . S
N162 C165 1.377 . S
C163 N160 1.382 . S
C163 N161 1.371 . S
C163 C166 1.480 . S
C164 N161 1.372 . S
C164 N162 1.361 . S
C164 C172 1.457 . S
C165 N160 1.363 . S
C165 N162 1.377 . S
C165 C178 1.479 . S
C166 C163 1.480 . S
C166 C167 1.383 . S
C166 C171 1.385 . S
C167 H148 0.947 . S
C167 C166 1.383 . S
C167 C168 1.387 . S
C168 H149 0.948 1_455 S
C168 C167 1.387 . S
C168 C169 1.383 . S
C169 C168 1.383 . S
C169 C170 1.377 . S
C170 H150 0.953 . S
C170 C169 1.377 . S
C170 C171 1.369 . S
C171 H151 0.945 . S
C171 C166 1.385 . S
C171 C170 1.369 . S
C172 C164 1.457 . S
C172 C173 1.372 . S
C172 C177 1.364 . S
C173 H152 0.952 . S
C173 C172 1.372 . S
C173 C174 1.389 1_565 S
C174 H153 0.949 . S
C174 C173 1.389 1_545 S
C174 C175 1.383 1_545 S
C175 C174 1.383 1_565 S
C175 C176 1.384 . S
C176 H154 0.950 . S
C176 C175 1.384 . S
C176 C177 1.379 . S
C177 H155 0.948 . S
C177 C172 1.364 . S
C177 C176 1.379 . S
C178 C147 1.383 . S
C178 C165 1.479 . S
C178 C179 1.398 . S
C179 C144 1.382 . S
C179 H156 0.951 . S
C179 C178 1.398 . S
C180 C181 1.384 . S
C180 H193 0.947 . S
C180 C215 1.382 . S
C181 C180 1.384 . S
C181 C182 1.378 . S
C182 C181 1.378 . S
C182 C183 1.378 . S
C182 H194 0.952 . S
C183 C182 1.378 . S
C183 H195 0.950 . S
C183 C214 1.383 . S
H184 C203 0.947 . S
H185 C204 0.946 . S
H186 C206 0.953 . S
H187 C207 0.945 . S
H188 C209 0.952 . S
H189 C210 0.949 . S
H190 C212 0.950 . S
H191 C213 0.948 . S
H192 C215 0.951 . S
H193 C180 0.947 . S
H194 C182 0.952 . S
H195 C183 0.950 . S
N196 C199 1.382 . S
N196 C201 1.363 . S
N197 C199 1.371 . S
N197 C200 1.372 . S
N198 C200 1.361 . S
N198 C201 1.377 . S
C199 N196 1.382 . S
C199 N197 1.371 . S
C199 C202 1.480 . S
C200 N197 1.372 . S
C200 N198 1.361 . S
C200 C208 1.457 . S
C201 N196 1.363 . S
C201 N198 1.377 . S
C201 C214 1.479 . S
C202 C199 1.480 . S
C202 C203 1.383 . S
C202 C207 1.385 . S
C203 H184 0.947 . S
C203 C202 1.383 . S
C203 C204 1.388 . S
C204 H185 0.946 . S
C204 C203 1.388 . S
C204 C205 1.384 . S
C205 C204 1.384 . S
C205 C206 1.377 . S
C206 H186 0.953 . S
C206 C205 1.377 . S
C206 C207 1.369 . S
C207 H187 0.945 . S
C207 C202 1.385 . S
C207 C206 1.369 . S
C208 C200 1.457 . S
C208 C209 1.372 . S
C208 C213 1.364 . S
C209 H188 0.952 . S
C209 C208 1.372 . S
C209 C210 1.389 . S
C210 H189 0.949 . S
C210 C209 1.389 . S
C210 C211 1.387 . S
C211 C210 1.387 . S
C211 C212 1.372 . S
C212 H190 0.950 . S
C212 C211 1.372 . S
C212 C213 1.379 . S
C213 H191 0.948 . S
C213 C208 1.364 . S
C213 C212 1.379 . S
C214 C183 1.383 . S
C214 C201 1.479 . S
C214 C215 1.398 . S
C215 C180 1.382 . S
C215 H192 0.951 . S
C215 C214 1.398 . S
C216 C217 1.384 . S
C216 H229 0.947 . S
C216 C251 1.382 . S
C217 C216 1.384 . S
C217 C218 1.378 . S
C218 C217 1.378 . S
C218 C219 1.378 . S
C218 H230 0.952 . S
C219 C218 1.378 . S
C219 H231 0.950 . S
C219 C250 1.383 . S
H220 C239 0.947 . S
H221 C240 0.946 . S
H222 C242 0.953 . S
H223 C243 0.945 . S
H224 C245 0.952 . S
H225 C246 0.949 . S
H226 C248 0.950 . S
H227 C249 0.948 . S
H228 C251 0.951 . S
H229 C216 0.947 . S
H230 C218 0.952 . S
H231 C219 0.950 . S
N232 C235 1.382 . S
N232 C237 1.363 . S
N233 C235 1.371 . S
N233 C236 1.372 . S
N234 C236 1.361 . S
N234 C237 1.377 . S
C235 N232 1.382 . S
C235 N233 1.371 . S
C235 C238 1.480 . S
C236 N233 1.372 . S
C236 N234 1.361 . S
C236 C244 1.457 . S
C237 N232 1.363 . S
C237 N234 1.377 . S
C237 C250 1.479 . S
C238 C235 1.480 . S
C238 C239 1.383 . S
C238 C243 1.385 . S
C239 H220 0.947 . S
C239 C238 1.383 . S
C239 C240 1.388 . S
C240 H221 0.946 . S
C240 C239 1.388 . S
C240 C241 1.384 . S
C241 C240 1.384 . S
C241 C242 1.377 . S
C242 H222 0.953 . S
C242 C241 1.377 . S
C242 C243 1.369 . S
C243 H223 0.945 . S
C243 C238 1.385 . S
C243 C242 1.369 . S
C244 C236 1.457 . S
C244 C245 1.372 . S
C244 C249 1.364 1_655 S
C245 H224 0.952 . S
C245 C244 1.372 . S
C245 C246 1.389 . S
C246 H225 0.949 . S
C246 C245 1.389 . S
C246 C247 1.387 1_655 S
C247 C246 1.387 1_455 S
C247 C248 1.372 . S
C248 H226 0.950 . S
C248 C247 1.372 . S
C248 C249 1.379 . S
C249 H227 0.948 . S
C249 C244 1.364 1_455 S
C249 C248 1.379 . S
C250 C219 1.383 . S
C250 C237 1.479 . S
C250 C251 1.398 . S
C251 C216 1.382 . S
C251 H228 0.951 . S
C251 C250 1.398 . S
C252 C253 1.384 . S
C252 H265 0.947 . S
C252 C287 1.382 . S
C253 C252 1.384 . S
C253 C254 1.378 . S
C254 C253 1.378 . S
C254 C255 1.378 . S
C254 H266 0.952 . S
C255 C254 1.378 . S
C255 H267 0.950 . S
C255 C286 1.383 . S
H256 C275 0.947 . S
H257 C276 0.946 . S
H258 C278 0.953 . S
H259 C279 0.945 . S
H260 C281 0.952 . S
H261 C282 0.949 . S
H262 C284 0.950 . S
H263 C285 0.948 . S
H264 C287 0.951 . S
H265 C252 0.947 . S
H266 C254 0.952 . S
H267 C255 0.950 . S
N268 C271 1.382 . S
N268 C273 1.363 . S
N269 C271 1.371 . S
N269 C272 1.372 . S
N270 C272 1.361 . S
N270 C273 1.377 . S
C271 N268 1.382 . S
C271 N269 1.371 . S
C271 C274 1.480 . S
C272 N269 1.372 . S
C272 N270 1.361 . S
C272 C280 1.457 . S
C273 N268 1.363 . S
C273 N270 1.377 . S
C273 C286 1.479 . S
C274 C271 1.480 . S
C274 C275 1.383 . S
C274 C279 1.385 . S
C275 H256 0.947 . S
C275 C274 1.383 . S
C275 C276 1.388 . S
C276 H257 0.946 . S
C276 C275 1.388 . S
C276 C277 1.384 . S
C277 C276 1.384 . S
C277 C278 1.377 . S
C278 H258 0.953 . S
C278 C277 1.377 . S
C278 C279 1.369 . S
C279 H259 0.945 . S
C279 C274 1.385 . S
C279 C278 1.369 . S
C280 C272 1.457 . S
C280 C281 1.372 . S
C280 C285 1.364 . S
C281 H260 0.952 . S
C281 C280 1.372 . S
C281 C282 1.389 . S
C282 H261 0.949 . S
C282 C281 1.389 . S
C282 C283 1.387 . S
C283 C282 1.387 . S
C283 C284 1.372 . S
C284 H262 0.950 . S
C284 C283 1.372 . S
C284 C285 1.379 . S
C285 H263 0.948 . S
C285 C280 1.364 . S
C285 C284 1.379 . S
C286 C255 1.383 . S
C286 C273 1.479 . S
C286 C287 1.398 . S
C287 C252 1.382 . S
C287 H264 0.951 . S
C287 C286 1.398 . S
C288 C289 1.384 . S
C288 H301 0.947 . S
C288 C323 1.382 . S
C289 C288 1.384 . S
C289 C290 1.378 . S
C290 C289 1.378 . S
C290 C291 1.378 . S
C290 H302 0.952 . S
C291 C290 1.378 . S
C291 H303 0.950 . S
C291 C322 1.383 . S
H292 C311 0.947 . S
H293 C312 0.946 . S
H294 C314 0.953 . S
H295 C315 0.945 . S
H296 C317 0.952 . S
H297 C318 0.949 . S
H298 C320 0.950 . S
H299 C321 0.948 . S
H300 C323 0.951 . S
H301 C288 0.947 . S
H302 C290 0.952 . S
H303 C291 0.950 . S
N304 C307 1.382 . S
N304 C309 1.363 . S
N305 C307 1.371 . S
N305 C308 1.372 . S
N306 C308 1.361 . S
N306 C309 1.377 . S
C307 N304 1.382 . S
C307 N305 1.371 . S
C307 C310 1.480 . S
C308 N305 1.372 . S
C308 N306 1.361 . S
C308 C316 1.457 . S
C309 N304 1.363 . S
C309 N306 1.377 . S
C309 C322 1.479 . S
C310 C307 1.480 . S
C310 C311 1.383 . S
C310 C315 1.385 . S
C311 H292 0.947 . S
C311 C310 1.383 . S
C311 C312 1.388 . S
C312 H293 0.946 . S
C312 C311 1.388 . S
C312 C313 1.384 . S
C313 C312 1.384 . S
C313 C314 1.377 . S
C314 H294 0.953 . S
C314 C313 1.377 . S
C314 C315 1.369 . S
C315 H295 0.945 . S
C315 C310 1.385 . S
C315 C314 1.369 . S
C316 C308 1.457 . S
C316 C317 1.372 . S
C316 C321 1.364 . S
C317 H296 0.952 . S
C317 C316 1.372 . S
C317 C318 1.389 . S
C318 H297 0.949 . S
C318 C317 1.389 . S
C318 C319 1.387 . S
C319 C318 1.387 . S
C319 C320 1.372 . S
C320 H298 0.950 . S
C320 C319 1.372 . S
C320 C321 1.379 . S
C321 H299 0.948 . S
C321 C316 1.364 . S
C321 C320 1.379 . S
C322 C291 1.383 . S
C322 C309 1.479 . S
C322 C323 1.398 . S
C323 C288 1.382 . S
C323 H300 0.951 . S
C323 C322 1.398 . S
C324 C325 1.384 . S
C324 H337 0.947 . S
C324 C359 1.382 . S
C325 C324 1.384 . S
C325 C326 1.378 . S
C326 C325 1.378 . S
C326 C327 1.378 . S
C326 H338 0.952 . S
C327 C326 1.378 . S
C327 H339 0.950 . S
C327 C358 1.383 . S
H328 C347 0.947 . S
H329 C348 0.946 . S
H330 C350 0.953 . S
H331 C351 0.945 . S
H332 C353 0.952 . S
H333 C354 0.949 . S
H334 C356 0.950 . S
H335 C357 0.948 . S
H336 C359 0.951 . S
H337 C324 0.947 . S
H338 C326 0.952 . S
H339 C327 0.950 . S
N340 C343 1.382 . S
N340 C345 1.363 . S
N341 C343 1.371 . S
N341 C344 1.372 . S
N342 C344 1.361 . S
N342 C345 1.377 . S
C343 N340 1.382 . S
C343 N341 1.371 . S
C343 C346 1.480 . S
C344 N341 1.372 . S
C344 N342 1.361 . S
C344 C352 1.457 . S
C345 N340 1.363 . S
C345 N342 1.377 . S
C345 C358 1.479 . S
C346 C343 1.480 . S
C346 C347 1.383 . S
C346 C351 1.385 1_565 S
C347 H328 0.947 . S
C347 C346 1.383 . S
C347 C348 1.388 . S
C348 H329 0.946 . S
C348 C347 1.388 . S
C348 C349 1.384 1_565 S
C349 C348 1.384 1_545 S
C349 C350 1.377 . S
C350 H330 0.953 . S
C350 C349 1.377 . S
C350 C351 1.369 . S
C351 H331 0.945 . S
C351 C346 1.385 1_545 S
C351 C350 1.369 . S
C352 C344 1.457 . S
C352 C353 1.372 . S
C352 C357 1.364 . S
C353 H332 0.952 . S
C353 C352 1.372 . S
C353 C354 1.389 . S
C354 H333 0.949 . S
C354 C353 1.389 . S
C354 C355 1.387 . S
C355 C354 1.387 . S
C355 C356 1.372 . S
C356 H334 0.950 . S
C356 C355 1.372 . S
C356 C357 1.379 . S
C357 H335 0.948 . S
C357 C352 1.364 . S
C357 C356 1.379 . S
C358 C327 1.383 . S
C358 C345 1.479 . S
C358 C359 1.398 . S
C359 C324 1.382 . S
C359 H336 0.951 . S
C359 C358 1.398 . S
C360 C361 1.384 . S
C360 H373 0.947 . S
C360 C395 1.382 . S
C361 C360 1.384 . S
C361 C362 1.378 . S
C362 C361 1.378 . S
C362 C363 1.378 . S
C362 H374 0.952 . S
C363 C362 1.378 . S
C363 H375 0.950 . S
C363 C394 1.383 . S
H364 C383 0.947 . S
H365 C384 0.946 . S
H366 C386 0.953 . S
H367 C387 0.945 . S
H368 C389 0.952 . S
H369 C390 0.949 . S
H370 C392 0.950 . S
H371 C393 0.948 . S
H372 C395 0.951 . S
H373 C360 0.947 . S
H374 C362 0.952 . S
H375 C363 0.950 . S
N376 C379 1.382 . S
N376 C381 1.363 . S
N377 C379 1.371 . S
N377 C380 1.372 . S
N378 C380 1.361 . S
N378 C381 1.377 . S
C379 N376 1.382 . S
C379 N377 1.371 . S
C379 C382 1.480 . S
C380 N377 1.372 . S
C380 N378 1.361 . S
C380 C388 1.457 . S
C381 N376 1.363 . S
C381 N378 1.377 . S
C381 C394 1.479 . S
C382 C379 1.480 . S
C382 C383 1.383 . S
C382 C387 1.385 . S
C383 H364 0.947 . S
C383 C382 1.383 . S
C383 C384 1.388 . S
C384 H365 0.946 . S
C384 C383 1.388 . S
C384 C385 1.384 . S
C385 C384 1.384 . S
C385 C386 1.377 . S
C386 H366 0.953 . S
C386 C385 1.377 . S
C386 C387 1.369 . S
C387 H367 0.945 . S
C387 C382 1.385 . S
C387 C386 1.369 . S
C388 C380 1.457 . S
C388 C389 1.372 . S
C388 C393 1.364 . S
C389 H368 0.952 . S
C389 C388 1.372 . S
C389 C390 1.389 . S
C390 H369 0.949 . S
C390 C389 1.389 . S
C390 C391 1.387 . S
C391 C390 1.387 . S
C391 C392 1.372 . S
C392 H370 0.950 . S
C392 C391 1.372 . S
C392 C393 1.379 . S
C393 H371 0.948 . S
C393 C388 1.364 . S
C393 C392 1.379 . S
C394 C363 1.383 . S
C394 C381 1.479 . S
C394 C395 1.398 . S
C395 C360 1.382 . S
C395 H372 0.951 . S
C395 C394 1.398 . S
C396 C397 1.384 . S
C396 H409 0.947 . S
C396 C431 1.382 . S
C397 C396 1.384 . S
C397 C398 1.378 . S
C398 C397 1.378 . S
C398 C399 1.378 . S
C398 H410 0.952 . S
C399 C398 1.378 . S
C399 H411 0.950 . S
C399 C430 1.383 . S
H400 C419 0.947 . S
H401 C420 0.946 . S
H402 C422 0.953 . S
H403 C423 0.945 . S
H404 C425 0.952 . S
H405 C426 0.949 . S
H406 C428 0.950 . S
H407 C429 0.948 . S
H408 C431 0.951 . S
H409 C396 0.947 . S
H410 C398 0.952 . S
H411 C399 0.950 . S
N412 C415 1.382 . S
N412 C417 1.363 . S
N413 C415 1.371 . S
N413 C416 1.372 . S
N414 C416 1.361 . S
N414 C417 1.377 . S
C415 N412 1.382 . S
C415 N413 1.371 . S
C415 C418 1.480 . S
C416 N413 1.372 . S
C416 N414 1.361 . S
C416 C424 1.457 . S
C417 N412 1.363 . S
C417 N414 1.377 . S
C417 C430 1.479 . S
C418 C415 1.480 . S
C418 C419 1.383 . S
C418 C423 1.385 . S
C419 H400 0.947 . S
C419 C418 1.383 . S
C419 C420 1.388 . S
C420 H401 0.946 . S
C420 C419 1.388 . S
C420 C421 1.384 . S
C421 C420 1.384 . S
C421 C422 1.377 . S
C422 H402 0.953 . S
C422 C421 1.377 . S
C422 C423 1.369 . S
C423 H403 0.945 . S
C423 C418 1.385 . S
C423 C422 1.369 . S
C424 C416 1.457 . S
C424 C425 1.372 . S
C424 C429 1.364 . S
C425 H404 0.952 . S
C425 C424 1.372 . S
C425 C426 1.389 . S
C426 H405 0.949 . S
C426 C425 1.389 . S
C426 C427 1.387 . S
C427 C426 1.387 . S
C427 C428 1.372 . S
C428 H406 0.950 . S
C428 C427 1.372 . S
C428 C429 1.379 . S
C429 H407 0.948 . S
C429 C424 1.364 . S
C429 C428 1.379 . S
C430 C399 1.383 . S
C430 C417 1.479 . S
C430 C431 1.398 . S
C431 C396 1.382 . S
C431 H408 0.951 . S
C431 C430 1.398 . S
C432 C433 1.384 . S
C432 H445 0.947 . S
C432 C467 1.382 . S
C433 C432 1.384 . S
C433 C434 1.378 . S
C434 C433 1.378 . S
C434 C435 1.378 . S
C434 H446 0.952 . S
C435 C434 1.378 . S
C435 H447 0.950 . S
C435 C466 1.383 . S
H436 C455 0.947 . S
H437 C456 0.946 . S
H438 C458 0.953 . S
H439 C459 0.945 . S
H440 C461 0.952 . S
H441 C462 0.949 . S
H442 C464 0.950 . S
H443 C465 0.948 . S
H444 C467 0.951 . S
H445 C432 0.947 . S
H446 C434 0.952 . S
H447 C435 0.950 . S
N448 C451 1.382 . S
N448 C453 1.363 . S
N449 C451 1.371 . S
N449 C452 1.372 . S
N450 C452 1.361 . S
N450 C453 1.377 . S
C451 N448 1.382 . S
C451 N449 1.371 . S
C451 C454 1.480 . S
C452 N449 1.372 . S
C452 N450 1.361 . S
C452 C460 1.457 . S
C453 N448 1.363 . S
C453 N450 1.377 . S
C453 C466 1.479 . S
C454 C451 1.480 . S
C454 C455 1.383 . S
C454 C459 1.385 . S
C455 H436 0.947 . S
C455 C454 1.383 . S
C455 C456 1.388 . S
C456 H437 0.946 . S
C456 C455 1.388 . S
C456 C457 1.384 . S
C457 C456 1.384 . S
C457 C458 1.377 . S
C458 H438 0.953 . S
C458 C457 1.377 . S
C458 C459 1.369 . S
C459 H439 0.945 . S
C459 C454 1.385 . S
C459 C458 1.369 . S
C460 C452 1.457 . S
C460 C461 1.372 . S
C460 C465 1.364 . S
C461 H440 0.952 . S
C461 C460 1.372 . S
C461 C462 1.389 . S
C462 H441 0.949 . S
C462 C461 1.389 . S
C462 C463 1.387 . S
C463 C462 1.387 . S
C463 C464 1.372 . S
C464 H442 0.950 . S
C464 C463 1.372 . S
C464 C465 1.379 . S
C465 H443 0.948 . S
C465 C460 1.364 . S
C465 C464 1.379 . S
C466 C435 1.383 . S
C466 C453 1.479 . S
C466 C467 1.398 . S
C467 C432 1.382 . S
C467 H444 0.951 . S
C467 C466 1.398 . S
C468 C469 1.384 . S
C468 H481 0.947 . S
C468 C503 1.382 1_554 S
C469 C468 1.384 . S
C469 C470 1.378 1_554 S
C470 C469 1.378 1_556 S
C470 C471 1.378 . S
C470 H482 0.952 . S
C471 C470 1.378 . S
C471 H483 0.950 . S
C471 C502 1.383 . S
H472 C491 0.947 . S
H473 C492 0.946 . S
H474 C494 0.953 . S
H475 C495 0.945 . S
H476 C497 0.952 . S
H477 C498 0.949 . S
H478 C500 0.950 . S
H479 C501 0.948 . S
H480 C503 0.952 1_554 S
H481 C468 0.947 . S
H482 C470 0.952 . S
H483 C471 0.950 . S
N484 C487 1.382 . S
N484 C489 1.363 . S
N485 C487 1.371 . S
N485 C488 1.372 . S
N486 C488 1.361 . S
N486 C489 1.377 . S
C487 N484 1.382 . S
C487 N485 1.371 . S
C487 C490 1.480 . S
C488 N485 1.372 . S
C488 N486 1.361 . S
C488 C496 1.457 . S
C489 N484 1.363 . S
C489 N486 1.377 . S
C489 C502 1.479 . S
C490 C487 1.480 . S
C490 C491 1.383 . S
C490 C495 1.385 . S
C491 H472 0.947 . S
C491 C490 1.383 . S
C491 C492 1.388 . S
C492 H473 0.946 . S
C492 C491 1.388 . S
C492 C493 1.384 . S
C493 C492 1.384 . S
C493 C494 1.377 . S
C494 H474 0.953 . S
C494 C493 1.377 . S
C494 C495 1.369 . S
C495 H475 0.945 . S
C495 C490 1.385 . S
C495 C494 1.369 . S
C496 C488 1.457 . S
C496 C497 1.372 . S
C496 C501 1.364 . S
C497 H476 0.952 . S
C497 C496 1.372 . S
C497 C498 1.389 . S
C498 H477 0.949 . S
C498 C497 1.389 . S
C498 C499 1.387 . S
C499 C498 1.387 . S
C499 C500 1.372 . S
C500 H478 0.950 . S
C500 C499 1.372 . S
C500 C501 1.379 . S
C501 H479 0.948 . S
C501 C496 1.364 . S
C501 C500 1.379 . S
C502 C471 1.383 . S
C502 C489 1.479 . S
C502 C503 1.398 . S
C503 C468 1.382 1_556 S
C503 H480 0.952 1_556 S
C503 C502 1.398 . S
C504 C505 1.384 . S
C504 H517 0.947 . S
C504 C539 1.382 . S
C505 C504 1.384 . S
C505 C506 1.378 . S
C506 C505 1.378 . S
C506 C507 1.378 . S
C506 H518 0.952 . S
C507 C506 1.378 . S
C507 H519 0.950 . S
C507 C538 1.383 . S
H508 C527 0.947 . S
H509 C528 0.946 . S
H510 C530 0.953 . S
H511 C531 0.945 . S
H512 C533 0.952 . S
H513 C534 0.949 . S
H514 C536 0.950 . S
H515 C537 0.948 . S
H516 C539 0.951 . S
H517 C504 0.947 . S
H518 C506 0.952 . S
H519 C507 0.950 . S
N520 C523 1.382 . S
N520 C525 1.363 . S
N521 C523 1.371 . S
N521 C524 1.372 . S
N522 C524 1.361 . S
N522 C525 1.377 . S
C523 N520 1.382 . S
C523 N521 1.371 . S
C523 C526 1.480 . S
C524 N521 1.372 . S
C524 N522 1.361 . S
C524 C532 1.457 . S
C525 N520 1.363 . S
C525 N522 1.377 . S
C525 C538 1.479 . S
C526 C523 1.480 . S
C526 C527 1.383 . S
C526 C531 1.385 . S
C527 H508 0.947 . S
C527 C526 1.383 . S
C527 C528 1.388 . S
C528 H509 0.946 . S
C528 C527 1.388 . S
C528 C529 1.384 . S
C529 C528 1.384 . S
C529 C530 1.377 . S
C530 H510 0.953 . S
C530 C529 1.377 . S
C530 C531 1.369 . S
C531 H511 0.945 . S
C531 C526 1.385 . S
C531 C530 1.369 . S
C532 C524 1.457 . S
C532 C533 1.372 . S
C532 C537 1.364 . S
C533 H512 0.952 . S
C533 C532 1.372 . S
C533 C534 1.389 . S
C534 H513 0.949 . S
C534 C533 1.389 . S
C534 C535 1.387 . S
C535 C534 1.387 . S
C535 C536 1.372 . S
C536 H514 0.950 . S
C536 C535 1.372 . S
C536 C537 1.379 . S
C537 H515 0.948 . S
C537 C532 1.364 . S
C537 C536 1.379 . S
C538 C507 1.383 . S
C538 C525 1.479 . S
C538 C539 1.398 . S
C539 C504 1.382 . S
C539 H516 0.951 . S
C539 C538 1.398 . S
C540 C541 1.384 1_556 S
C540 H553 0.947 . S
C540 C575 1.382 . S
C541 C540 1.384 1_554 S
C541 C542 1.378 . S
C542 C541 1.378 . S
C542 C543 1.378 1_554 S
C542 H554 0.952 . S
C543 C542 1.378 1_556 S
C543 H555 0.950 . S
C543 C574 1.383 . S
H544 C563 0.947 . S
H545 C564 0.946 . S
H546 C566 0.953 . S
H547 C567 0.945 . S
H548 C569 0.952 . S
H549 C570 0.949 . S
H550 C572 0.950 . S
H551 C573 0.948 . S
H552 C575 0.951 . S
H553 C540 0.947 . S
H554 C542 0.952 . S
H555 C543 0.950 . S
N556 C559 1.382 . S
N556 C561 1.363 . S
N557 C559 1.371 . S
N557 C560 1.372 . S
N558 C560 1.361 . S
N558 C561 1.377 . S
C559 N556 1.382 . S
C559 N557 1.371 . S
C559 C562 1.480 . S
C560 N557 1.372 . S
C560 N558 1.361 . S
C560 C568 1.457 . S
C561 N556 1.363 . S
C561 N558 1.377 . S
C561 C574 1.479 . S
C562 C559 1.480 . S
C562 C563 1.383 . S
C562 C567 1.385 . S
C563 H544 0.947 . S
C563 C562 1.383 . S
C563 C564 1.388 . S
C564 H545 0.946 . S
C564 C563 1.388 . S
C564 C565 1.424 . S
C565 C564 1.424 . S
C565 C566 1.367 1_545 S
C566 H546 0.953 . S
C566 C565 1.367 1_565 S
C566 C567 1.369 1_565 S
C567 H547 0.945 . S
C567 C562 1.385 . S
C567 C566 1.369 1_545 S
C568 C560 1.457 . S
C568 C569 1.372 . S
C568 C573 1.364 . S
C569 H548 0.952 . S
C569 C568 1.372 . S
C569 C570 1.389 . S
C570 H549 0.949 . S
C570 C569 1.389 . S
C570 C571 1.387 . S
C571 C570 1.387 . S
C571 C572 1.372 . S
C572 H550 0.950 . S
C572 C571 1.372 . S
C572 C573 1.379 . S
C573 H551 0.948 . S
C573 C568 1.364 . S
C573 C572 1.379 . S
C574 C543 1.383 . S
C574 C561 1.479 . S
C574 C575 1.398 . S
C575 C540 1.382 . S
C575 H552 0.951 . S
C575 C574 1.398 . S
Zn576 O579 2.036 . S
Zn576 O581 2.046 1_554 S
Zn576 O586 2.060 1_554 S
Zn577 O578 1.962 . S
Zn577 O580 1.986 . S
Zn577 O582 1.996 . S
Zn577 O585 1.943 1_554 S
O578 Zn577 1.962 . S
O578 C583 1.254 . S
O579 Zn576 2.036 . S
O579 C583 1.269 . S
O580 Zn577 1.986 . S
O580 C587 1.262 . S
O581 Zn576 2.046 1_556 S
O581 C589 1.260 . S
O582 Zn577 1.996 . S
O582 C589 1.257 1_554 S
C583 O578 1.254 . S
C583 O579 1.269 . S
C584 O585 1.249 . S
C584 O586 1.270 . S
O585 Zn577 1.943 1_556 S
O585 C584 1.249 . S
O586 Zn576 2.060 1_556 S
O586 C584 1.270 . S
C587 O580 1.262 . S
C587 O588 1.232 . S
O588 C587 1.232 . S
C589 O581 1.260 . S
C589 O582 1.257 1_556 S
Zn590 O593 2.031 . S
Zn590 O595 2.049 . S
Zn590 O600 2.067 . S
Zn591 O592 1.962 . S
Zn591 O594 1.986 . S
Zn591 O596 1.996 . S
Zn591 O599 1.943 . S
O592 Zn591 1.962 . S
O592 C597 1.254 . S
O593 Zn590 2.031 . S
O593 C597 1.269 . S
O594 Zn591 1.986 . S
O594 C601 1.262 . S
O595 Zn590 2.049 . S
O595 C603 1.260 . S
O596 Zn591 1.996 . S
O596 C603 1.257 . S
C597 O592 1.254 . S
C597 O593 1.269 . S
C598 O599 1.249 . S
C598 O600 1.270 . S
O599 Zn591 1.943 . S
O599 C598 1.249 . S
O600 Zn590 2.067 . S
O600 C598 1.270 . S
C601 O594 1.262 . S
C601 O602 1.232 . S
O602 C601 1.232 . S
C603 O595 1.260 . S
C603 O596 1.257 . S
Zn604 O607 2.031 . S
Zn604 O609 2.049 . S
Zn604 O614 2.067 . S
Zn605 O606 1.962 . S
Zn605 O608 1.986 . S
Zn605 O610 1.996 1_554 S
Zn605 O613 1.943 . S
O606 Zn605 1.962 . S
O606 C611 1.254 . S
O607 Zn604 2.031 . S
O607 C611 1.269 1_556 S
O608 Zn605 1.986 . S
O608 C615 1.262 . S
O609 Zn604 2.049 . S
O609 C617 1.260 . S
O610 Zn605 1.996 1_556 S
O610 C617 1.257 . S
C611 O606 1.254 . S
C611 O607 1.269 1_554 S
C612 O613 1.249 1_556 S
C612 O614 1.270 . S
O613 Zn605 1.943 . S
O613 C612 1.249 1_554 S
O614 Zn604 2.067 . S
O614 C612 1.270 . S
C615 O608 1.262 . S
C615 O616 1.232 . S
O616 C615 1.232 . S
C617 O609 1.260 . S
C617 O610 1.257 . S
Zn618 O621 2.047 . S
Zn618 O623 2.038 1_545 S
Zn618 O628 2.046 1_545 S
Zn619 O620 1.962 . S
Zn619 O622 1.986 . S
Zn619 O624 1.996 . S
Zn619 O627 1.943 1_545 S
O620 Zn619 1.962 . S
O620 C625 1.254 . S
O621 Zn618 2.047 . S
O621 C625 1.269 . S
O622 Zn619 1.986 . S
O622 C629 1.262 . S
O623 Zn618 2.038 1_565 S
O623 C631 1.260 . S
O624 Zn619 1.996 . S
O624 C631 1.257 1_545 S
C625 O620 1.254 . S
C625 O621 1.269 . S
C626 O627 1.249 . S
C626 O628 1.270 . S
O627 Zn619 1.943 1_565 S
O627 C626 1.249 . S
O628 Zn618 2.046 1_565 S
O628 C626 1.270 . S
C629 O622 1.262 . S
C629 O630 1.232 . S
O630 C629 1.232 . S
C631 O623 1.260 . S
C631 O624 1.257 1_565 S
Zn632 O635 2.031 . S
Zn632 O637 2.049 . S
Zn632 O642 2.067 . S
Zn633 O634 1.962 . S
Zn633 O636 1.986 . S
Zn633 O638 1.996 . S
Zn633 O641 1.943 . S
O634 Zn633 1.962 . S
O634 C639 1.254 . S
O635 Zn632 2.031 . S
O635 C639 1.269 . S
O636 Zn633 1.986 . S
O636 C643 1.262 . S
O637 Zn632 2.049 . S
O637 C645 1.260 . S
O638 Zn633 1.996 . S
O638 C645 1.257 . S
C639 O634 1.254 . S
C639 O635 1.269 . S
C640 O641 1.249 . S
C640 O642 1.270 . S
O641 Zn633 1.943 . S
O641 C640 1.249 . S
O642 Zn632 2.067 . S
O642 C640 1.270 . S
C643 O636 1.262 . S
C643 O644 1.232 . S
O644 C643 1.232 . S
C645 O637 1.260 . S
C645 O638 1.257 . S
Zn646 O649 2.031 . S
Zn646 O651 2.049 . S
Zn646 O656 2.067 . S
Zn647 O648 1.962 . S
Zn647 O650 1.986 . S
Zn647 O652 1.996 . S
Zn647 O655 1.943 . S
O648 Zn647 1.962 . S
O648 C653 1.254 . S
O649 Zn646 2.031 . S
O649 C653 1.269 . S
O650 Zn647 1.986 . S
O650 C657 1.262 . S
O651 Zn646 2.049 . S
O651 C659 1.260 . S
O652 Zn647 1.996 . S
O652 C659 1.257 . S
C653 O648 1.254 . S
C653 O649 1.269 . S
C654 O655 1.249 . S
C654 O656 1.270 . S
O655 Zn647 1.943 . S
O655 C654 1.249 . S
O656 Zn646 2.067 . S
O656 C654 1.270 . S
C657 O650 1.262 . S
C657 O658 1.232 . S
O658 C657 1.232 . S
C659 O651 1.260 . S
C659 O652 1.257 . S
Zn660 O663 2.031 . S
Zn660 O665 2.049 . S
Zn660 O670 2.067 . S
Zn661 O662 1.962 . S
Zn661 O664 1.986 . S
Zn661 O666 1.996 . S
Zn661 O669 1.943 . S
O662 Zn661 1.962 . S
O662 C667 1.254 . S
O663 Zn660 2.031 . S
O663 C667 1.269 . S
O664 Zn661 1.986 . S
O664 C671 1.262 . S
O665 Zn660 2.049 . S
O665 C673 1.260 . S
O666 Zn661 1.996 . S
O666 C673 1.257 . S
C667 O662 1.254 . S
C667 O663 1.269 . S
C668 O669 1.249 . S
C668 O670 1.270 . S
O669 Zn661 1.943 . S
O669 C668 1.249 . S
O670 Zn660 2.067 . S
O670 C668 1.270 . S
C671 O664 1.262 . S
C671 O672 1.232 . S
O672 C671 1.232 . S
C673 O665 1.260 . S
C673 O666 1.257 . S
Zn674 O677 2.031 . S
Zn674 O679 2.049 . S
Zn674 O684 2.067 . S
Zn675 O676 1.962 . S
Zn675 O678 1.986 . S
Zn675 O680 1.996 1_545 S
Zn675 O683 1.943 . S
O676 Zn675 1.962 . S
O676 C681 1.254 . S
O677 Zn674 2.031 . S
O677 C681 1.269 1_565 S
O678 Zn675 1.986 . S
O678 C685 1.262 . S
O679 Zn674 2.049 . S
O679 C687 1.260 . S
O680 Zn675 1.996 1_565 S
O680 C687 1.257 . S
C681 O676 1.254 . S
C681 O677 1.269 1_545 S
C682 O683 1.249 1_565 S
C682 O684 1.270 . S
O683 Zn675 1.943 . S
O683 C682 1.249 1_545 S
O684 Zn674 2.067 . S
O684 C682 1.270 . S
C685 O678 1.262 . S
C685 O686 1.232 . S
O686 C685 1.232 . S
C687 O679 1.260 . S
C687 O680 1.257 . S
Zn688 O691 2.035 . S
Zn688 O693 2.047 1_455 S
Zn688 O698 2.062 1_455 S
Zn689 O690 1.962 . S
Zn689 O692 1.986 . S
Zn689 O694 1.996 . S
Zn689 O697 1.943 1_455 S
O690 Zn689 1.962 . S
O690 C695 1.254 . S
O691 Zn688 2.035 . S
O691 C695 1.269 . S
O692 Zn689 1.986 . S
O692 C699 1.262 . S
O693 Zn688 2.047 1_655 S
O693 C701 1.260 . S
O694 Zn689 1.996 . S
O694 C701 1.257 1_455 S
C695 O690 1.254 . S
C695 O691 1.269 . S
C696 O697 1.249 . S
C696 O698 1.270 . S
O697 Zn689 1.943 1_655 S
O697 C696 1.249 . S
O698 Zn688 2.062 1_655 S
O698 C696 1.270 . S
C699 O692 1.262 . S
C699 O700 1.232 . S
O700 C699 1.232 . S
C701 O693 1.260 . S
C701 O694 1.257 1_655 S
Zn702 O705 2.031 . S
Zn702 O707 2.049 . S
Zn702 O712 2.067 . S
Zn703 O704 1.962 . S
Zn703 O706 1.986 . S
Zn703 O708 1.996 . S
Zn703 O711 1.943 . S
O704 Zn703 1.962 . S
O704 C709 1.254 . S
O705 Zn702 2.031 . S
O705 C709 1.269 . S
O706 Zn703 1.986 . S
O706 C713 1.262 . S
O707 Zn702 2.049 . S
O707 C715 1.260 . S
O708 Zn703 1.996 . S
O708 C715 1.257 . S
C709 O704 1.254 . S
C709 O705 1.269 . S
C710 O711 1.249 . S
C710 O712 1.270 . S
O711 Zn703 1.943 . S
O711 C710 1.249 . S
O712 Zn702 2.067 . S
O712 C710 1.270 . S
C713 O706 1.262 . S
C713 O714 1.232 . S
O714 C713 1.232 . S
C715 O707 1.260 . S
C715 O708 1.257 . S
Zn716 O719 2.031 . S
Zn716 O721 2.049 . S
Zn716 O726 2.067 . S
Zn717 O718 1.962 . S
Zn717 O720 1.986 . S
Zn717 O722 1.996 1_455 S
Zn717 O725 1.943 . S
O718 Zn717 1.962 . S
O718 C723 1.254 . S
O719 Zn716 2.031 . S
O719 C723 1.269 1_655 S
O720 Zn717 1.986 . S
O720 C727 1.262 . S
O721 Zn716 2.049 . S
O721 C729 1.260 . S
O722 Zn717 1.996 1_655 S
O722 C729 1.257 . S
C723 O718 1.254 . S
C723 O719 1.269 1_455 S
C724 O725 1.249 1_655 S
C724 O726 1.270 . S
O725 Zn717 1.943 . S
O725 C724 1.249 1_455 S
O726 Zn716 2.067 . S
O726 C724 1.270 . S
C727 O720 1.262 . S
C727 O728 1.232 . S
O728 C727 1.232 . S
C729 O721 1.260 . S
C729 O722 1.257 . S
Zn730 O733 2.031 . S
Zn730 O735 2.049 . S
Zn730 O740 2.067 . S
Zn731 O732 1.962 . S
Zn731 O734 1.986 . S
Zn731 O736 1.996 . S
Zn731 O739 1.943 . S
O732 Zn731 1.962 . S
O732 C737 1.254 . S
O733 Zn730 2.031 . S
O733 C737 1.269 . S
O734 Zn731 1.986 . S
O734 C741 1.262 . S
O735 Zn730 2.049 . S
O735 C743 1.260 . S
O736 Zn731 1.996 . S
O736 C743 1.257 . S
C737 O732 1.254 . S
C737 O733 1.269 . S
C738 O739 1.249 . S
C738 O740 1.270 . S
O739 Zn731 1.943 . S
O739 C738 1.249 . S
O740 Zn730 2.067 . S
O740 C738 1.270 . S
C741 O734 1.262 . S
C741 O742 1.232 . S
O742 C741 1.232 . S
C743 O735 1.260 . S
C743 O736 1.257 . S
H744 C752 0.950 . S
H745 C757 0.950 . S
H746 C754 0.950 . S
H747 C756 0.950 . S
H748 C758 0.950 . S
H749 C760 0.950 . S
H750 C762 0.950 . S
H751 C763 0.950 . S
C752 H744 0.950 . S
C752 C753 1.386 . S
C752 C754 1.391 . S
C753 C752 1.386 . S
C753 C757 1.393 . S
C754 H746 0.950 . S
C754 C752 1.391 . S
C754 C755 1.400 . S
C755 C754 1.400 . S
C755 C756 1.398 . S
C755 C761 1.491 . S
C756 H747 0.950 . S
C756 C755 1.398 . S
C756 C757 1.391 . S
C757 H745 0.950 . S
C757 C753 1.393 . S
C757 C756 1.391 . S
C758 H748 0.950 . S
C758 C759 1.386 . S
C758 C760 1.391 . S
C759 C758 1.386 . S
C759 C763 1.393 . S
C760 H749 0.950 . S
C760 C758 1.391 . S
C760 C761 1.400 . S
C761 C755 1.491 . S
C761 C760 1.400 . S
C761 C762 1.398 . S
C762 H750 0.950 . S
C762 C761 1.398 . S
C762 C763 1.391 . S
C763 H751 0.950 . S
C763 C759 1.393 . S
C763 C762 1.391 . S
H764 C772 0.950 . S
H765 C777 0.950 . S
H766 C774 0.950 . S
H767 C776 0.950 . S
H768 C778 0.950 . S
H769 C780 0.950 . S
H770 C782 0.950 . S
H771 C783 0.950 . S
C772 H764 0.950 . S
C772 C773 1.386 . S
C772 C774 1.391 . S
C773 C772 1.386 . S
C773 C777 1.393 . S
C774 H766 0.950 . S
C774 C772 1.391 . S
C774 C775 1.400 . S
C775 C774 1.400 . S
C775 C776 1.398 . S
C775 C781 1.491 . S
C776 H767 0.950 . S
C776 C775 1.398 . S
C776 C777 1.391 . S
C777 H765 0.950 . S
C777 C773 1.393 . S
C777 C776 1.391 . S
C778 H768 0.950 . S
C778 C779 1.386 . S
C778 C780 1.391 . S
C779 C778 1.386 . S
C779 C783 1.393 . S
C780 H769 0.950 . S
C780 C778 1.391 . S
C780 C781 1.400 . S
C781 C775 1.491 . S
C781 C780 1.400 . S
C781 C782 1.398 . S
C782 H770 0.950 . S
C782 C781 1.398 . S
C782 C783 1.391 . S
C783 H771 0.950 . S
C783 C779 1.393 . S
C783 C782 1.391 . S
H784 C792 0.950 . S
H785 C797 0.950 . S
H786 C794 0.950 . S
H787 C796 0.950 . S
H788 C798 0.950 . S
H789 C800 0.950 . S
H790 C802 0.950 . S
H791 C803 0.950 . S
C792 H784 0.950 . S
C792 C793 1.386 . S
C792 C794 1.391 . S
C793 C792 1.386 . S
C793 C797 1.393 . S
C794 H786 0.950 . S
C794 C792 1.391 . S
C794 C795 1.400 . S
C795 C794 1.400 . S
C795 C796 1.398 . S
C795 C801 1.491 . S
C796 H787 0.950 . S
C796 C795 1.398 . S
C796 C797 1.391 . S
C797 H785 0.950 . S
C797 C793 1.393 . S
C797 C796 1.391 . S
C798 H788 0.950 . S
C798 C799 1.386 . S
C798 C800 1.391 . S
C799 C798 1.386 . S
C799 C803 1.393 . S
C800 H789 0.950 . S
C800 C798 1.391 . S
C800 C801 1.400 . S
C801 C795 1.491 . S
C801 C800 1.400 . S
C801 C802 1.398 . S
C802 H790 0.950 . S
C802 C801 1.398 . S
C802 C803 1.391 . S
C803 H791 0.950 . S
C803 C799 1.393 . S
C803 C802 1.391 . S
H804 C812 0.950 . S
H805 C817 0.950 1_455 S
H806 C814 0.950 . S
H807 C816 0.950 . S
H808 C818 0.950 . S
H809 C820 0.950 . S
H810 C822 0.950 . S
H811 C823 0.950 . S
C812 H804 0.950 . S
C812 C813 1.386 . S
C812 C814 1.391 . S
C813 C812 1.386 . S
C813 C817 1.393 . S
C814 H806 0.950 . S
C814 C812 1.391 . S
C814 C815 1.400 . S
C815 C814 1.400 . S
C815 C816 1.398 . S
C815 C821 1.491 . S
C816 H807 0.950 . S
C816 C815 1.398 . S
C816 C817 1.391 . S
C817 H805 0.950 1_655 S
C817 C813 1.393 . S
C817 C816 1.391 . S
C818 H808 0.950 . S
C818 C819 1.386 . S
C818 C820 1.391 . S
C819 C818 1.386 . S
C819 C823 1.393 . S
C820 H809 0.950 . S
C820 C818 1.391 . S
C820 C821 1.400 . S
C821 C815 1.491 . S
C821 C820 1.400 . S
C821 C822 1.398 . S
C822 H810 0.950 . S
C822 C821 1.398 . S
C822 C823 1.391 . S
C823 H811 0.950 . S
C823 C819 1.393 . S
C823 C822 1.391 . S
H824 C832 0.950 . S
H825 C837 0.950 . S
H826 C834 0.950 . S
H827 C836 0.950 . S
H828 C838 0.950 . S
H829 C840 0.950 . S
H830 C842 0.950 . S
H831 C843 0.950 . S
C832 H824 0.950 . S
C832 C833 1.386 . S
C832 C834 1.391 . S
C833 C832 1.386 . S
C833 C837 1.393 . S
C834 H826 0.950 . S
C834 C832 1.391 . S
C834 C835 1.400 . S
C835 C834 1.400 . S
C835 C836 1.398 . S
C835 C841 1.491 . S
C836 H827 0.950 . S
C836 C835 1.398 . S
C836 C837 1.391 . S
C837 H825 0.950 . S
C837 C833 1.393 . S
C837 C836 1.391 . S
C838 H828 0.950 . S
C838 C839 1.386 . S
C838 C840 1.391 . S
C839 C838 1.386 . S
C839 C843 1.393 . S
C840 H829 0.950 . S
C840 C838 1.391 . S
C840 C841 1.400 . S
C841 C835 1.491 . S
C841 C840 1.400 . S
C841 C842 1.398 . S
C842 H830 0.950 . S
C842 C841 1.398 . S
C842 C843 1.391 . S
C843 H831 0.950 . S
C843 C839 1.393 . S
C843 C842 1.391 . S
H844 C852 0.950 . S
H845 C857 0.950 . S
H846 C854 0.950 . S
H847 C856 0.950 . S
H848 C858 0.950 . S
H849 C860 0.950 . S
H850 C862 0.950 . S
H851 C863 0.950 . S
C852 H844 0.950 . S
C852 C853 1.386 . S
C852 C854 1.391 . S
C853 C852 1.386 . S
C853 C857 1.393 . S
C854 H846 0.950 . S
C854 C852 1.391 . S
C854 C855 1.400 . S
C855 C854 1.400 . S
C855 C856 1.398 . S
C855 C861 1.491 . S
C856 H847 0.950 . S
C856 C855 1.398 . S
C856 C857 1.391 . S
C857 H845 0.950 . S
C857 C853 1.393 . S
C857 C856 1.391 . S
C858 H848 0.950 . S
C858 C859 1.386 . S
C858 C860 1.391 . S
C859 C858 1.386 . S
C859 C863 1.393 . S
C860 H849 0.950 . S
C860 C858 1.391 . S
C860 C861 1.400 . S
C861 C855 1.491 . S
C861 C860 1.400 . S
C861 C862 1.398 . S
C862 H850 0.950 . S
C862 C861 1.398 . S
C862 C863 1.391 . S
C863 H851 0.950 . S
C863 C859 1.393 . S
C863 C862 1.391 . S
H864 C872 0.950 . S
H865 C877 0.950 . S
H866 C874 0.950 . S
H867 C876 0.950 . S
H868 C878 0.950 . S
H869 C880 0.950 . S
H870 C882 0.950 . S
H871 C883 0.950 . S
C872 H864 0.950 . S
C872 C873 1.386 . S
C872 C874 1.391 . S
C873 C872 1.386 . S
C873 C877 1.393 . S
C874 H866 0.950 . S
C874 C872 1.391 . S
C874 C875 1.400 . S
C875 C874 1.400 . S
C875 C876 1.398 . S
C875 C881 1.491 . S
C876 H867 0.950 . S
C876 C875 1.398 . S
C876 C877 1.391 . S
C877 H865 0.950 . S
C877 C873 1.393 . S
C877 C876 1.391 . S
C878 H868 0.950 . S
C878 C879 1.386 . S
C878 C880 1.391 . S
C879 C878 1.386 . S
C879 C883 1.393 . S
C880 H869 0.950 . S
C880 C878 1.391 . S
C880 C881 1.400 . S
C881 C875 1.491 . S
C881 C880 1.400 . S
C881 C882 1.398 . S
C882 H870 0.950 . S
C882 C881 1.398 . S
C882 C883 1.391 . S
C883 H871 0.950 . S
C883 C879 1.393 . S
C883 C882 1.391 . S
H884 C892 0.950 . S
H885 C897 0.950 . S
H886 C894 0.950 . S
H887 C896 0.960 . S
H888 C898 0.978 . S
H889 C900 0.950 1_545 S
H890 C902 0.950 . S
H891 C903 0.950 . S
C892 H884 0.950 . S
C892 C893 1.386 . S
C892 C894 1.391 . S
C893 C892 1.386 . S
C893 C897 1.393 . S
C894 H886 0.950 . S
C894 C892 1.391 . S
C894 C895 1.400 . S
C895 C894 1.400 . S
C895 C896 1.398 . S
C895 C901 1.491 . S
C896 H887 0.960 . S
C896 C895 1.398 . S
C896 C897 1.391 . S
C897 H885 0.950 . S
C897 C893 1.393 . S
C897 C896 1.391 . S
C898 H888 0.978 . S
C898 C899 1.366 1_545 S
C898 C900 1.385 1_545 S
C899 C898 1.366 1_565 S
C899 C903 1.393 . S
C900 H889 0.950 1_565 S
C900 C898 1.385 1_565 S
C900 C901 1.400 . S
C901 C895 1.491 . S
C901 C900 1.400 . S
C901 C902 1.398 . S
C902 H890 0.950 . S
C902 C901 1.398 . S
C902 C903 1.391 . S
C903 H891 0.950 . S
C903 C899 1.393 . S
C903 C902 1.391 . S
H904 C912 0.950 . S
H905 C917 0.950 . S
H906 C914 0.950 . S
H907 C916 0.950 . S
H908 C918 0.950 . S
H909 C920 0.950 . S
H910 C922 0.950 . S
H911 C923 0.950 . S
C912 H904 0.950 . S
C912 C913 1.386 . S
C912 C914 1.391 . S
C913 C912 1.386 . S
C913 C917 1.393 . S
C914 H906 0.950 . S
C914 C912 1.391 . S
C914 C915 1.400 . S
C915 C914 1.400 . S
C915 C916 1.398 . S
C915 C921 1.491 . S
C916 H907 0.950 . S
C916 C915 1.398 . S
C916 C917 1.391 . S
C917 H905 0.950 . S
C917 C913 1.393 . S
C917 C916 1.391 . S
C918 H908 0.950 . S
C918 C919 1.386 . S
C918 C920 1.391 . S
C919 C918 1.386 . S
C919 C923 1.393 . S
C920 H909 0.950 . S
C920 C918 1.391 . S
C920 C921 1.400 . S
C921 C915 1.491 . S
C921 C920 1.400 . S
C921 C922 1.398 . S
C922 H910 0.950 . S
C922 C921 1.398 . S
C922 C923 1.391 . S
C923 H911 0.950 . S
C923 C919 1.393 . S
C923 C922 1.391 . S
H924 C932 0.950 . S
H925 C937 0.950 . S
H926 C934 0.950 . S
H927 C936 0.950 . S
H928 C938 0.950 . S
H929 C940 0.950 . S
H930 C942 0.950 . S
H931 C943 0.950 . S
C932 H924 0.950 . S
C932 C933 1.386 . S
C932 C934 1.391 . S
C933 C932 1.386 . S
C933 C937 1.393 . S
C934 H926 0.950 . S
C934 C932 1.391 . S
C934 C935 1.400 . S
C935 C934 1.400 . S
C935 C936 1.398 . S
C935 C941 1.491 . S
C936 H927 0.950 . S
C936 C935 1.398 . S
C936 C937 1.391 . S
C937 H925 0.950 . S
C937 C933 1.393 . S
C937 C936 1.391 . S
C938 H928 0.950 . S
C938 C939 1.386 . S
C938 C940 1.391 . S
C939 C938 1.386 . S
C939 C943 1.393 . S
C940 H929 0.950 . S
C940 C938 1.391 . S
C940 C941 1.400 . S
C941 C935 1.491 . S
C941 C940 1.400 . S
C941 C942 1.398 . S
C942 H930 0.950 . S
C942 C941 1.398 . S
C942 C943 1.391 . S
C943 H931 0.950 . S
C943 C939 1.393 . S
C943 C942 1.391 . S
H944 C952 0.950 . S
H945 C957 0.950 . S
H946 C954 0.950 . S
H947 C956 0.950 . S
H948 C958 0.950 . S
H949 C960 0.950 . S
H950 C962 0.950 . S
H951 C963 0.950 . S
C952 H944 0.950 . S
C952 C953 1.386 . S
C952 C954 1.391 . S
C953 C952 1.386 . S
C953 C957 1.393 . S
C954 H946 0.950 . S
C954 C952 1.391 . S
C954 C955 1.400 . S
C955 C954 1.400 . S
C955 C956 1.398 . S
C955 C961 1.491 . S
C956 H947 0.950 . S
C956 C955 1.398 . S
C956 C957 1.391 . S
C957 H945 0.950 . S
C957 C953 1.393 . S
C957 C956 1.391 . S
C958 H948 0.950 . S
C958 C959 1.386 . S
C958 C960 1.391 . S
C959 C958 1.386 . S
C959 C963 1.393 . S
C960 H949 0.950 . S
C960 C958 1.391 . S
C960 C961 1.400 . S
C961 C955 1.491 . S
C961 C960 1.400 . S
C961 C962 1.398 . S
C962 H950 0.950 . S
C962 C961 1.398 . S
C962 C963 1.391 . S
C963 H951 0.950 . S
C963 C959 1.393 . S
C963 C962 1.391 . S
H964 C972 0.950 . S
H965 C977 0.950 . S
H966 C974 0.950 . S
H967 C976 0.950 . S
H968 C978 0.950 . S
H969 C980 0.950 . S
H970 C982 0.950 . S
H971 C983 0.950 . S
C972 H964 0.950 . S
C972 C973 1.386 . S
C972 C974 1.391 . S
C973 C972 1.386 . S
C973 C977 1.393 . S
C974 H966 0.950 . S
C974 C972 1.391 . S
C974 C975 1.400 . S
C975 C974 1.400 . S
C975 C976 1.398 . S
C975 C981 1.491 . S
C976 H967 0.950 . S
C976 C975 1.398 . S
C976 C977 1.391 . S
C977 H965 0.950 . S
C977 C973 1.393 . S
C977 C976 1.391 . S
C978 H968 0.950 . S
C978 C979 1.386 . S
C978 C980 1.391 . S
C979 C978 1.386 . S
C979 C983 1.393 . S
C980 H969 0.950 . S
C980 C978 1.391 . S
C980 C981 1.400 . S
C981 C975 1.491 . S
C981 C980 1.400 . S
C981 C982 1.398 . S
C982 H970 0.950 . S
C982 C981 1.398 . S
C982 C983 1.391 . S
C983 H971 0.950 . S
C983 C979 1.393 . S
C983 C982 1.391 . S
H984 C992 0.950 . S
H985 C997 0.950 . S
H986 C994 0.950 . S
H987 C996 0.950 . S
H988 C998 0.950 . S
H989 C1000 0.950 . S
H990 C1002 0.950 . S
H991 C1003 0.950 . S
C992 H984 0.950 . S
C992 C993 1.386 . S
C992 C994 1.391 . S
C993 C992 1.386 . S
C993 C997 1.393 . S
C994 H986 0.950 . S
C994 C992 1.391 . S
C994 C995 1.400 . S
C995 C994 1.400 . S
C995 C996 1.398 . S
C995 C1001 1.491 . S
C996 H987 0.950 . S
C996 C995 1.398 . S
C996 C997 1.391 . S
C997 H985 0.950 . S
C997 C993 1.393 . S
C997 C996 1.391 . S
C998 H988 0.950 . S
C998 C999 1.386 . S
C998 C1000 1.391 . S
C999 C998 1.386 . S
C999 C1003 1.393 . S
C1000 H989 0.950 . S
C1000 C998 1.391 . S
C1000 C1001 1.400 . S
C1001 C995 1.491 . S
C1001 C1000 1.400 . S
C1001 C1002 1.398 . S
C1002 H990 0.950 . S
C1002 C1001 1.398 . S
C1002 C1003 1.391 . S
C1003 H991 0.950 . S
C1003 C999 1.393 . S
C1003 C1002 1.391 . S
H1004 C1012 0.950 . S
H1005 C1017 0.950 . S
H1006 C1014 0.950 . S
H1007 C1016 0.950 . S
H1008 C1018 0.950 . S
H1009 C1020 0.950 . S
H1010 C1022 0.950 . S
H1011 C1023 0.950 1_655 S
C1012 H1004 0.950 . S
C1012 C1013 1.386 . S
C1012 C1014 1.391 . S
C1013 C1012 1.386 . S
C1013 C1017 1.393 . S
C1014 H1006 0.950 . S
C1014 C1012 1.391 . S
C1014 C1015 1.400 . S
C1015 C1014 1.400 . S
C1015 C1016 1.398 . S
C1015 C1021 1.491 . S
C1016 H1007 0.950 . S
C1016 C1015 1.398 . S
C1016 C1017 1.391 . S
C1017 H1005 0.950 . S
C1017 C1013 1.393 . S
C1017 C1016 1.391 . S
C1018 H1008 0.950 . S
C1018 C1019 1.386 . S
C1018 C1020 1.391 . S
C1019 C1018 1.386 . S
C1019 C1023 1.393 . S
C1020 H1009 0.950 . S
C1020 C1018 1.391 . S
C1020 C1021 1.400 . S
C1021 C1015 1.491 . S
C1021 C1020 1.400 . S
C1021 C1022 1.398 . S
C1022 H1010 0.950 . S
C1022 C1021 1.398 . S
C1022 C1023 1.391 . S
C1023 H1011 0.950 1_455 S
C1023 C1019 1.393 . S
C1023 C1022 1.391 . S
H1024 C1032 0.950 . S
H1025 C1037 0.950 . S
H1026 C1034 0.950 . S
H1027 C1036 0.950 . S
H1028 C1038 0.950 . S
H1029 C1040 0.950 . S
H1030 C1042 0.950 . S
H1031 C1043 0.950 . S
C1032 H1024 0.950 . S
C1032 C1033 1.386 . S
C1032 C1034 1.391 . S
C1033 C1032 1.386 . S
C1033 C1037 1.393 . S
C1034 H1026 0.950 . S
C1034 C1032 1.391 . S
C1034 C1035 1.400 . S
C1035 C1034 1.400 . S
C1035 C1036 1.398 . S
C1035 C1041 1.491 . S
C1036 H1027 0.950 . S
C1036 C1035 1.398 . S
C1036 C1037 1.391 . S
C1037 H1025 0.950 . S
C1037 C1033 1.393 . S
C1037 C1036 1.391 . S
C1038 H1028 0.950 . S
C1038 C1039 1.386 . S
C1038 C1040 1.391 . S
C1039 C1038 1.386 . S
C1039 C1043 1.393 . S
C1040 H1029 0.950 . S
C1040 C1038 1.391 . S
C1040 C1041 1.400 . S
C1041 C1035 1.491 . S
C1041 C1040 1.400 . S
C1041 C1042 1.398 . S
C1042 H1030 0.950 . S
C1042 C1041 1.398 . S
C1042 C1043 1.391 . S
C1043 H1031 0.950 . S
C1043 C1039 1.393 . S
C1043 C1042 1.391 . S
H1044 C1052 0.950 . S
H1045 C1057 0.950 . S
H1046 C1054 0.950 . S
H1047 C1056 0.950 . S
H1048 C1058 0.950 . S
H1049 C1060 0.950 . S
H1050 C1062 0.937 1_455 S
H1051 C1063 0.950 . S
C1052 H1044 0.950 . S
C1052 C1053 1.386 . S
C1052 C1054 1.391 . S
C1053 C1052 1.386 . S
C1053 C1057 1.393 . S
C1054 H1046 0.950 . S
C1054 C1052 1.391 . S
C1054 C1055 1.400 . S
C1055 C1054 1.400 . S
C1055 C1056 1.398 . S
C1055 C1061 1.491 . S
C1056 H1047 0.950 . S
C1056 C1055 1.398 . S
C1056 C1057 1.391 . S
C1057 H1045 0.950 . S
C1057 C1053 1.393 . S
C1057 C1056 1.391 . S
C1058 H1048 0.950 . S
C1058 C1059 1.386 . S
C1058 C1060 1.391 . S
C1059 C1058 1.386 . S
C1059 C1063 1.393 1_655 S
C1060 H1049 0.950 . S
C1060 C1058 1.391 . S
C1060 C1061 1.400 . S
C1061 C1055 1.491 . S
C1061 C1060 1.400 . S
C1061 C1062 1.416 . S
C1062 H1050 0.937 1_655 S
C1062 C1061 1.416 . S
C1062 C1063 1.387 1_655 S
C1063 H1051 0.950 . S
C1063 C1059 1.393 1_455 S
C1063 C1062 1.387 1_455 S
H1064 C1072 0.950 . S
H1065 C1077 0.950 . S
H1066 C1074 0.950 . S
H1067 C1076 0.950 . S
H1068 C1078 0.950 . S
H1069 C1080 0.950 . S
H1070 C1082 0.950 . S
H1071 C1083 0.950 . S
C1072 H1064 0.950 . S
C1072 C1073 1.386 . S
C1072 C1074 1.391 . S
C1073 C1072 1.386 . S
C1073 C1077 1.393 . S
C1074 H1066 0.950 . S
C1074 C1072 1.391 . S
C1074 C1075 1.400 . S
C1075 C1074 1.400 . S
C1075 C1076 1.398 . S
C1075 C1081 1.491 . S
C1076 H1067 0.950 . S
C1076 C1075 1.398 . S
C1076 C1077 1.391 . S
C1077 H1065 0.950 . S
C1077 C1073 1.393 . S
C1077 C1076 1.391 . S
C1078 H1068 0.950 . S
C1078 C1079 1.386 . S
C1078 C1080 1.391 . S
C1079 C1078 1.386 . S
C1079 C1083 1.393 . S
C1080 H1069 0.950 . S
C1080 C1078 1.391 . S
C1080 C1081 1.400 . S
C1081 C1075 1.491 . S
C1081 C1080 1.400 . S
C1081 C1082 1.398 . S
C1082 H1070 0.950 . S
C1082 C1081 1.398 . S
C1082 C1083 1.391 . S
C1083 H1071 0.950 . S
C1083 C1079 1.393 . S
C1083 C1082 1.391 . S
H1084 C1092 0.950 . S
H1085 C1097 0.950 . S
H1086 C1094 0.950 . S
H1087 C1096 0.950 . S
H1088 C1098 0.950 . S
H1089 C1100 0.950 . S
H1090 C1102 0.950 . S
H1091 C1103 0.950 . S
C1092 H1084 0.950 . S
C1092 C1093 1.386 . S
C1092 C1094 1.391 . S
C1093 C1092 1.386 . S
C1093 C1097 1.393 . S
C1094 H1086 0.950 . S
C1094 C1092 1.391 . S
C1094 C1095 1.400 . S
C1095 C1094 1.400 . S
C1095 C1096 1.398 . S
C1095 C1101 1.491 . S
C1096 H1087 0.950 . S
C1096 C1095 1.398 . S
C1096 C1097 1.391 . S
C1097 H1085 0.950 . S
C1097 C1093 1.393 . S
C1097 C1096 1.391 . S
C1098 H1088 0.950 . S
C1098 C1099 1.386 . S
C1098 C1100 1.391 . S
C1099 C1098 1.386 . S
C1099 C1103 1.393 . S
C1100 H1089 0.950 . S
C1100 C1098 1.391 . S
C1100 C1101 1.400 . S
C1101 C1095 1.491 . S
C1101 C1100 1.400 . S
C1101 C1102 1.398 . S
C1102 H1090 0.950 . S
C1102 C1101 1.398 . S
C1102 C1103 1.391 . S
C1103 H1091 0.950 . S
C1103 C1099 1.393 . S
C1103 C1102 1.391 . S
H1104 C1112 0.950 1_545 S
H1105 C1117 0.950 . S
H1106 C1114 0.950 . S
H1107 C1116 0.950 . S
H1108 C1118 0.950 . S
H1109 C1120 0.950 . S
H1110 C1122 0.950 . S
H1111 C1123 0.950 . S
C1112 H1104 0.950 1_565 S
C1112 C1113 1.386 . S
C1112 C1114 1.391 . S
C1113 C1112 1.386 . S
C1113 C1117 1.393 . S
C1114 H1106 0.950 . S
C1114 C1112 1.391 . S
C1114 C1115 1.400 . S
C1115 C1114 1.400 . S
C1115 C1116 1.398 . S
C1115 C1121 1.491 . S
C1116 H1107 0.950 . S
C1116 C1115 1.398 . S
C1116 C1117 1.391 . S
C1117 H1105 0.950 . S
C1117 C1113 1.393 . S
C1117 C1116 1.391 . S
C1118 H1108 0.950 . S
C1118 C1119 1.386 . S
C1118 C1120 1.391 . S
C1119 C1118 1.386 . S
C1119 C1123 1.393 . S
C1120 H1109 0.950 . S
C1120 C1118 1.391 . S
C1120 C1121 1.400 . S
C1121 C1115 1.491 . S
C1121 C1120 1.400 . S
C1121 C1122 1.398 . S
C1122 H1110 0.950 . S
C1122 C1121 1.398 . S
C1122 C1123 1.391 . S
C1123 H1111 0.950 . S
C1123 C1119 1.393 . S
C1123 C1122 1.391 . S
H1124 C1132 0.950 . S
H1125 C1137 0.950 . S
H1126 C1134 0.950 . S
H1127 C1136 0.950 . S
H1128 C1138 0.950 . S
H1129 C1140 0.950 . S
H1130 C1142 0.950 . S
H1131 C1143 0.950 . S
C1132 H1124 0.950 . S
C1132 C1133 1.386 . S
C1132 C1134 1.391 . S
C1133 C1132 1.386 . S
C1133 C1137 1.393 . S
C1134 H1126 0.950 . S
C1134 C1132 1.391 . S
C1134 C1135 1.400 . S
C1135 C1134 1.400 . S
C1135 C1136 1.398 . S
C1135 C1141 1.491 . S
C1136 H1127 0.950 . S
C1136 C1135 1.398 . S
C1136 C1137 1.391 . S
C1137 H1125 0.950 . S
C1137 C1133 1.393 . S
C1137 C1136 1.391 . S
C1138 H1128 0.950 . S
C1138 C1139 1.386 . S
C1138 C1140 1.391 . S
C1139 C1138 1.386 . S
C1139 C1143 1.393 . S
C1140 H1129 0.950 . S
C1140 C1138 1.391 . S
C1140 C1141 1.400 . S
C1141 C1135 1.491 . S
C1141 C1140 1.400 . S
C1141 C1142 1.398 . S
C1142 H1130 0.950 . S
C1142 C1141 1.398 . S
C1142 C1143 1.391 . S
C1143 H1131 0.950 . S
C1143 C1139 1.393 . S
C1143 C1142 1.391 . S
H1144 C1152 0.950 . S
H1145 C1157 0.950 . S
H1146 C1154 0.950 . S
H1147 C1156 0.950 . S
H1148 C1158 0.950 . S
H1149 C1160 0.950 . S
H1150 C1162 0.950 . S
H1151 C1163 0.950 . S
C1152 H1144 0.950 . S
C1152 C1153 1.386 . S
C1152 C1154 1.391 . S
C1153 C1152 1.386 . S
C1153 C1157 1.393 . S
C1154 H1146 0.950 . S
C1154 C1152 1.391 . S
C1154 C1155 1.400 . S
C1155 C1154 1.400 . S
C1155 C1156 1.398 . S
C1155 C1161 1.491 . S
C1156 H1147 0.950 . S
C1156 C1155 1.398 . S
C1156 C1157 1.391 . S
C1157 H1145 0.950 . S
C1157 C1153 1.393 . S
C1157 C1156 1.391 . S
C1158 H1148 0.950 . S
C1158 C1159 1.386 . S
C1158 C1160 1.391 . S
C1159 C1158 1.386 . S
C1159 C1163 1.393 . S
C1160 H1149 0.950 . S
C1160 C1158 1.391 . S
C1160 C1161 1.400 . S
C1161 C1155 1.491 . S
C1161 C1160 1.400 . S
C1161 C1162 1.398 . S
C1162 H1150 0.950 . S
C1162 C1161 1.398 . S
C1162 C1163 1.391 . S
C1163 H1151 0.950 . S
C1163 C1159 1.393 . S
C1163 C1162 1.391 . S
H1164 C1172 0.950 . S
H1165 C1177 0.950 . S
H1166 C1174 0.950 . S
H1167 C1176 0.950 . S
H1168 C1178 0.950 . S
H1169 C1180 0.950 . S
H1170 C1182 0.950 . S
H1171 C1183 0.950 . S
C1172 H1164 0.950 . S
C1172 C1173 1.386 . S
C1172 C1174 1.391 . S
C1173 C1172 1.386 . S
C1173 C1177 1.393 . S
C1174 H1166 0.950 . S
C1174 C1172 1.391 . S
C1174 C1175 1.400 . S
C1175 C1174 1.400 . S
C1175 C1176 1.398 . S
C1175 C1181 1.491 . S
C1176 H1167 0.950 . S
C1176 C1175 1.398 . S
C1176 C1177 1.391 . S
C1177 H1165 0.950 . S
C1177 C1173 1.393 . S
C1177 C1176 1.391 . S
C1178 H1168 0.950 . S
C1178 C1179 1.386 . S
C1178 C1180 1.391 . S
C1179 C1178 1.386 . S
C1179 C1183 1.393 . S
C1180 H1169 0.950 . S
C1180 C1178 1.391 . S
C1180 C1181 1.400 . S
C1181 C1175 1.491 . S
C1181 C1180 1.400 . S
C1181 C1182 1.398 . S
C1182 H1170 0.950 . S
C1182 C1181 1.398 . S
C1182 C1183 1.391 . S
C1183 H1171 0.950 . S
C1183 C1179 1.393 . S
C1183 C1182 1.391 . S
H1184 C1192 0.950 . S
H1185 C1197 0.950 . S
H1186 C1194 0.950 . S
H1187 C1196 0.950 . S
H1188 C1198 0.950 . S
H1189 C1200 0.950 . S
H1190 C1202 0.950 . S
H1191 C1203 0.950 . S
C1192 H1184 0.950 . S
C1192 C1193 1.386 . S
C1192 C1194 1.391 . S
C1193 C1192 1.386 . S
C1193 C1197 1.393 . S
C1194 H1186 0.950 . S
C1194 C1192 1.391 . S
C1194 C1195 1.400 . S
C1195 C1194 1.400 . S
C1195 C1196 1.398 . S
C1195 C1201 1.491 . S
C1196 H1187 0.950 . S
C1196 C1195 1.398 . S
C1196 C1197 1.391 . S
C1197 H1185 0.950 . S
C1197 C1193 1.393 . S
C1197 C1196 1.391 . S
C1198 H1188 0.950 . S
C1198 C1199 1.386 . S
C1198 C1200 1.391 . S
C1199 C1198 1.386 . S
C1199 C1203 1.393 . S
C1200 H1189 0.950 . S
C1200 C1198 1.391 . S
C1200 C1201 1.400 . S
C1201 C1195 1.491 . S
C1201 C1200 1.400 . S
C1201 C1202 1.398 . S
C1202 H1190 0.950 . S
C1202 C1201 1.398 . S
C1202 C1203 1.391 . S
C1203 H1191 0.950 . S
C1203 C1199 1.393 . S
C1203 C1202 1.391 . S
H1204 C1212 0.950 . S
H1205 C1217 0.950 . S
H1206 C1214 0.950 . S
H1207 C1216 0.950 . S
H1208 C1218 0.950 . S
H1209 C1220 0.950 . S
H1210 C1222 0.950 . S
H1211 C1223 0.950 . S
C1212 H1204 0.950 . S
C1212 C1213 1.386 . S
C1212 C1214 1.391 . S
C1213 C1212 1.386 . S
C1213 C1217 1.393 . S
C1214 H1206 0.950 . S
C1214 C1212 1.391 . S
C1214 C1215 1.400 . S
C1215 C1214 1.400 . S
C1215 C1216 1.398 . S
C1215 C1221 1.491 . S
C1216 H1207 0.950 . S
C1216 C1215 1.398 . S
C1216 C1217 1.391 . S
C1217 H1205 0.950 . S
C1217 C1213 1.393 . S
C1217 C1216 1.391 . S
C1218 H1208 0.950 . S
C1218 C1219 1.386 . S
C1218 C1220 1.391 . S
C1219 C1218 1.386 . S
C1219 C1223 1.393 . S
C1220 H1209 0.950 . S
C1220 C1218 1.391 . S
C1220 C1221 1.400 . S
C1221 C1215 1.491 . S
C1221 C1220 1.400 . S
C1221 C1222 1.398 . S
C1222 H1210 0.950 . S
C1222 C1221 1.398 . S
C1222 C1223 1.391 . S
C1223 H1211 0.950 . S
C1223 C1219 1.393 . S
C1223 C1222 1.391 . S
H1224 C1232 0.950 . S
H1225 C1237 0.950 . S
H1226 C1234 0.950 . S
H1227 C1236 0.950 . S
H1228 C1238 0.950 . S
H1229 C1240 0.950 . S
H1230 C1242 0.950 . S
H1231 C1243 0.950 . S
C1232 H1224 0.950 . S
C1232 C1233 1.386 . S
C1232 C1234 1.391 . S
C1233 C1232 1.386 . S
C1233 C1237 1.393 . S
C1234 H1226 0.950 . S
C1234 C1232 1.391 . S
C1234 C1235 1.400 . S
C1235 C1234 1.400 . S
C1235 C1236 1.398 . S
C1235 C1241 1.491 . S
C1236 H1227 0.950 . S
C1236 C1235 1.398 . S
C1236 C1237 1.391 . S
C1237 H1225 0.950 . S
C1237 C1233 1.393 . S
C1237 C1236 1.391 . S
C1238 H1228 0.950 . S
C1238 C1239 1.386 . S
C1238 C1240 1.391 . S
C1239 C1238 1.386 . S
C1239 C1243 1.393 . S
C1240 H1229 0.950 . S
C1240 C1238 1.391 . S
C1240 C1241 1.400 . S
C1241 C1235 1.491 . S
C1241 C1240 1.400 . S
C1241 C1242 1.398 . S
C1242 H1230 0.950 . S
C1242 C1241 1.398 . S
C1242 C1243 1.391 . S
C1243 H1231 0.950 . S
C1243 C1239 1.393 . S
C1243 C1242 1.391 . S
H1244 C1252 0.950 . S
H1245 C1257 0.950 . S
H1246 C1254 0.950 . S
H1247 C1256 0.950 . S
H1248 C1258 0.950 . S
H1249 C1260 0.950 . S
H1250 C1262 0.950 . S
H1251 C1263 0.950 . S
C1252 H1244 0.950 . S
C1252 C1253 1.386 . S
C1252 C1254 1.391 . S
C1253 C1252 1.386 . S
C1253 C1257 1.393 . S
C1254 H1246 0.950 . S
C1254 C1252 1.391 . S
C1254 C1255 1.400 . S
C1255 C1254 1.400 . S
C1255 C1256 1.398 . S
C1255 C1261 1.491 . S
C1256 H1247 0.950 . S
C1256 C1255 1.398 . S
C1256 C1257 1.391 . S
C1257 H1245 0.950 . S
C1257 C1253 1.393 . S
C1257 C1256 1.391 . S
C1258 H1248 0.950 . S
C1258 C1259 1.386 . S
C1258 C1260 1.391 . S
C1259 C1258 1.386 . S
C1259 C1263 1.393 . S
C1260 H1249 0.950 . S
C1260 C1258 1.391 . S
C1260 C1261 1.400 . S
C1261 C1255 1.491 . S
C1261 C1260 1.400 . S
C1261 C1262 1.398 . S
C1262 H1250 0.950 . S
C1262 C1261 1.398 . S
C1262 C1263 1.391 . S
C1263 H1251 0.950 . S
C1263 C1259 1.393 . S
C1263 C1262 1.391 . S
H1264 C1272 0.950 . S
H1265 C1277 0.950 . S
H1266 C1274 0.950 . S
H1267 C1276 0.950 . S
H1268 C1278 0.950 . S
H1269 C1280 0.950 . S
H1270 C1282 0.950 . S
H1271 C1283 0.950 . S
C1272 H1264 0.950 . S
C1272 C1273 1.386 . S
C1272 C1274 1.391 . S
C1273 C1272 1.386 . S
C1273 C1277 1.393 . S
C1274 H1266 0.950 . S
C1274 C1272 1.391 . S
C1274 C1275 1.400 . S
C1275 C1274 1.400 . S
C1275 C1276 1.398 . S
C1275 C1281 1.491 . S
C1276 H1267 0.950 . S
C1276 C1275 1.398 . S
C1276 C1277 1.391 . S
C1277 H1265 0.950 . S
C1277 C1273 1.393 . S
C1277 C1276 1.391 . S
C1278 H1268 0.950 . S
C1278 C1279 1.386 . S
C1278 C1280 1.391 . S
C1279 C1278 1.386 . S
C1279 C1283 1.393 . S
C1280 H1269 0.950 . S
C1280 C1278 1.391 . S
C1280 C1281 1.400 . S
C1281 C1275 1.491 . S
C1281 C1280 1.400 . S
C1281 C1282 1.398 . S
C1282 H1270 0.950 . S
C1282 C1281 1.398 . S
C1282 C1283 1.391 . S
C1283 H1271 0.950 . S
C1283 C1279 1.393 . S
C1283 C1282 1.391 . S
H1284 C1292 0.950 . S
H1285 C1297 0.950 . S
H1286 C1294 0.950 . S
H1287 C1296 0.950 . S
H1288 C1298 0.950 . S
H1289 C1300 0.950 . S
H1290 C1302 0.950 . S
H1291 C1303 0.950 . S
C1292 H1284 0.950 . S
C1292 C1293 1.386 . S
C1292 C1294 1.391 . S
C1293 C1292 1.386 . S
C1293 C1297 1.393 . S
C1294 H1286 0.950 . S
C1294 C1292 1.391 . S
C1294 C1295 1.400 . S
C1295 C1294 1.400 . S
C1295 C1296 1.398 . S
C1295 C1301 1.491 . S
C1296 H1287 0.950 . S
C1296 C1295 1.398 . S
C1296 C1297 1.391 . S
C1297 H1285 0.950 . S
C1297 C1293 1.393 . S
C1297 C1296 1.391 . S
C1298 H1288 0.950 . S
C1298 C1299 1.386 . S
C1298 C1300 1.391 . S
C1299 C1298 1.386 . S
C1299 C1303 1.393 . S
C1300 H1289 0.950 . S
C1300 C1298 1.391 . S
C1300 C1301 1.400 . S
C1301 C1295 1.491 . S
C1301 C1300 1.400 . S
C1301 C1302 1.398 . S
C1302 H1290 0.950 . S
C1302 C1301 1.398 . S
C1302 C1303 1.391 . S
C1303 H1291 0.950 . S
C1303 C1299 1.393 . S
C1303 C1302 1.391 . S
H1304 C1312 0.950 . S
H1305 C1317 0.950 . S
H1306 C1314 0.950 . S
H1307 C1316 0.950 . S
H1308 C1318 0.950 . S
H1309 C1320 0.950 . S
H1310 C1322 0.950 . S
H1311 C1323 0.950 . S
C1312 H1304 0.950 . S
C1312 C1313 1.386 . S
C1312 C1314 1.391 . S
C1313 C1312 1.386 . S
C1313 C1317 1.393 . S
C1314 H1306 0.950 . S
C1314 C1312 1.391 . S
C1314 C1315 1.400 . S
C1315 C1314 1.400 . S
C1315 C1316 1.398 . S
C1315 C1321 1.491 . S
C1316 H1307 0.950 . S
C1316 C1315 1.398 . S
C1316 C1317 1.391 . S
C1317 H1305 0.950 . S
C1317 C1313 1.393 . S
C1317 C1316 1.391 . S
C1318 H1308 0.950 . S
C1318 C1319 1.386 . S
C1318 C1320 1.391 . S
C1319 C1318 1.386 . S
C1319 C1323 1.393 . S
C1320 H1309 0.950 . S
C1320 C1318 1.391 . S
C1320 C1321 1.400 . S
C1321 C1315 1.491 . S
C1321 C1320 1.400 . S
C1321 C1322 1.398 . S
C1322 H1310 0.950 . S
C1322 C1321 1.398 . S
C1322 C1323 1.391 . S
C1323 H1311 0.950 . S
C1323 C1319 1.393 . S
C1323 C1322 1.391 . S
H1324 C1332 0.950 . S
H1325 C1337 0.950 . S
H1326 C1334 0.950 1_565 S
H1327 C1336 0.950 . S
H1328 C1338 0.950 . S
H1329 C1340 0.950 . S
H1330 C1342 0.950 1_565 S
H1331 C1343 0.950 1_565 S
C1332 H1324 0.950 . S
C1332 C1333 1.386 . S
C1332 C1334 1.391 . S
C1333 C1332 1.386 . S
C1333 C1337 1.393 . S
C1334 H1326 0.950 1_545 S
C1334 C1332 1.391 . S
C1334 C1335 1.400 . S
C1335 C1334 1.400 . S
C1335 C1336 1.398 . S
C1335 C1341 1.491 . S
C1336 H1327 0.950 . S
C1336 C1335 1.398 . S
C1336 C1337 1.391 . S
C1337 H1325 0.950 . S
C1337 C1333 1.393 . S
C1337 C1336 1.391 . S
C1338 H1328 0.950 . S
C1338 C1339 1.386 . S
C1338 C1340 1.391 . S
C1339 C1338 1.386 . S
C1339 C1343 1.393 . S
C1340 H1329 0.950 . S
C1340 C1338 1.391 . S
C1340 C1341 1.400 . S
C1341 C1335 1.491 . S
C1341 C1340 1.400 . S
C1341 C1342 1.398 . S
C1342 H1330 0.950 1_545 S
C1342 C1341 1.398 . S
C1342 C1343 1.391 . S
C1343 H1331 0.950 1_545 S
C1343 C1339 1.393 . S
C1343 C1342 1.391 . S
H1344 C1352 0.950 . S
H1345 C1357 0.950 . S
H1346 C1354 0.950 . S
H1347 C1356 0.950 . S
H1348 C1358 0.950 . S
H1349 C1360 0.950 . S
H1350 C1362 0.950 . S
H1351 C1363 0.950 . S
C1352 H1344 0.950 . S
C1352 C1353 1.386 . S
C1352 C1354 1.391 . S
C1353 C1352 1.386 . S
C1353 C1357 1.393 . S
C1354 H1346 0.950 . S
C1354 C1352 1.391 . S
C1354 C1355 1.400 . S
C1355 C1354 1.400 . S
C1355 C1356 1.398 . S
C1355 C1361 1.491 . S
C1356 H1347 0.950 . S
C1356 C1355 1.398 . S
C1356 C1357 1.391 . S
C1357 H1345 0.950 . S
C1357 C1353 1.393 . S
C1357 C1356 1.391 . S
C1358 H1348 0.950 . S
C1358 C1359 1.386 . S
C1358 C1360 1.391 . S
C1359 C1358 1.386 . S
C1359 C1363 1.393 . S
C1360 H1349 0.950 . S
C1360 C1358 1.391 . S
C1360 C1361 1.400 . S
C1361 C1355 1.491 . S
C1361 C1360 1.400 . S
C1361 C1362 1.398 . S
C1362 H1350 0.950 . S
C1362 C1361 1.398 . S
C1362 C1363 1.391 . S
C1363 H1351 0.950 . S
C1363 C1359 1.393 . S
C1363 C1362 1.391 . S
H1364 C1372 0.950 . S
H1365 C1377 0.950 . S
H1366 C1374 0.950 . S
H1367 C1376 0.950 . S
H1368 C1378 0.950 . S
H1369 C1380 0.950 . S
H1370 C1382 0.950 . S
H1371 C1383 0.950 . S
C1372 H1364 0.950 . S
C1372 C1373 1.386 . S
C1372 C1374 1.391 . S
C1373 C1372 1.386 . S
C1373 C1377 1.393 . S
C1374 H1366 0.950 . S
C1374 C1372 1.391 . S
C1374 C1375 1.400 . S
C1375 C1374 1.400 . S
C1375 C1376 1.398 . S
C1375 C1381 1.491 . S
C1376 H1367 0.950 . S
C1376 C1375 1.398 . S
C1376 C1377 1.391 . S
C1377 H1365 0.950 . S
C1377 C1373 1.393 . S
C1377 C1376 1.391 . S
C1378 H1368 0.950 . S
C1378 C1379 1.386 . S
C1378 C1380 1.391 . S
C1379 C1378 1.386 . S
C1379 C1383 1.393 . S
C1380 H1369 0.950 . S
C1380 C1378 1.391 . S
C1380 C1381 1.400 . S
C1381 C1375 1.491 . S
C1381 C1380 1.400 . S
C1381 C1382 1.398 . S
C1382 H1370 0.950 . S
C1382 C1381 1.398 . S
C1382 C1383 1.391 . S
C1383 H1371 0.950 . S
C1383 C1379 1.393 . S
C1383 C1382 1.391 . S
H1384 C1392 0.950 . S
H1385 C1397 0.950 . S
H1386 C1394 0.950 . S
H1387 C1396 0.950 . S
H1388 C1398 0.950 . S
H1389 C1400 0.950 . S
H1390 C1402 0.950 . S
H1391 C1403 0.950 . S
C1392 H1384 0.950 . S
C1392 C1393 1.386 . S
C1392 C1394 1.391 . S
C1393 C1392 1.386 . S
C1393 C1397 1.393 . S
C1394 H1386 0.950 . S
C1394 C1392 1.391 . S
C1394 C1395 1.400 . S
C1395 C1394 1.400 . S
C1395 C1396 1.398 . S
C1395 C1401 1.491 . S
C1396 H1387 0.950 . S
C1396 C1395 1.398 . S
C1396 C1397 1.391 . S
C1397 H1385 0.950 . S
C1397 C1393 1.393 . S
C1397 C1396 1.391 . S
C1398 H1388 0.950 . S
C1398 C1399 1.386 . S
C1398 C1400 1.391 . S
C1399 C1398 1.386 . S
C1399 C1403 1.393 . S
C1400 H1389 0.950 . S
C1400 C1398 1.391 . S
C1400 C1401 1.400 . S
C1401 C1395 1.491 . S
C1401 C1400 1.400 . S
C1401 C1402 1.398 . S
C1402 H1390 0.950 . S
C1402 C1401 1.398 . S
C1402 C1403 1.391 . S
C1403 H1391 0.950 . S
C1403 C1399 1.393 . S
C1403 C1402 1.391 . S
H1404 C1412 0.950 1_554 S
H1405 C1417 0.950 . S
H1406 C1414 0.950 . S
H1407 C1416 0.950 . S
H1408 C1418 0.950 1_455 S
H1409 C1420 0.950 . S
H1410 C1422 0.950 . S
H1411 C1423 0.950 . S
C1412 H1404 0.950 1_556 S
C1412 C1413 1.386 . S
C1412 C1414 1.391 . S
C1413 C1412 1.386 . S
C1413 C1417 1.393 . S
C1414 H1406 0.950 . S
C1414 C1412 1.391 . S
C1414 C1415 1.400 . S
C1415 C1414 1.400 . S
C1415 C1416 1.398 . S
C1415 C1421 1.491 . S
C1416 H1407 0.950 . S
C1416 C1415 1.398 . S
C1416 C1417 1.391 . S
C1417 H1405 0.950 . S
C1417 C1413 1.393 . S
C1417 C1416 1.391 . S
C1418 H1408 0.950 1_655 S
C1418 C1419 1.386 . S
C1418 C1420 1.391 . S
C1419 C1418 1.386 . S
C1419 C1423 1.393 . S
C1420 H1409 0.950 . S
C1420 C1418 1.391 . S
C1420 C1421 1.400 . S
C1421 C1415 1.491 . S
C1421 C1420 1.400 . S
C1421 C1422 1.398 . S
C1422 H1410 0.950 . S
C1422 C1421 1.398 . S
C1422 C1423 1.391 . S
C1423 H1411 0.950 . S
C1423 C1419 1.393 . S
C1423 C1422 1.391 . S
H1424 C1432 0.950 . S
H1425 C1437 0.950 . S
H1426 C1434 0.950 . S
H1427 C1436 0.950 . S
H1428 C1438 0.950 . S
H1429 C1440 0.950 . S
H1430 C1442 0.950 . S
H1431 C1443 0.950 . S
C1432 H1424 0.950 . S
C1432 C1433 1.386 . S
C1432 C1434 1.391 . S
C1433 C1432 1.386 . S
C1433 C1437 1.393 . S
C1434 H1426 0.950 . S
C1434 C1432 1.391 . S
C1434 C1435 1.400 . S
C1435 C1434 1.400 . S
C1435 C1436 1.398 . S
C1435 C1441 1.491 . S
C1436 H1427 0.950 . S
C1436 C1435 1.398 . S
C1436 C1437 1.391 . S
C1437 H1425 0.950 . S
C1437 C1433 1.393 . S
C1437 C1436 1.391 . S
C1438 H1428 0.950 . S
C1438 C1439 1.386 . S
C1438 C1440 1.391 . S
C1439 C1438 1.386 . S
C1439 C1443 1.393 . S
C1440 H1429 0.950 . S
C1440 C1438 1.391 . S
C1440 C1441 1.400 . S
C1441 C1435 1.491 . S
C1441 C1440 1.400 . S
C1441 C1442 1.398 . S
C1442 H1430 0.950 . S
C1442 C1441 1.398 . S
C1442 C1443 1.391 . S
C1443 H1431 0.950 . S
C1443 C1439 1.393 . S
C1443 C1442 1.391 . S
H1444 C1452 0.950 1_554 S
H1445 C1457 0.950 . S
H1446 C1454 0.950 . S
H1447 C1456 0.950 . S
H1448 C1458 0.950 . S
H1449 C1460 0.950 . S
H1450 C1462 0.950 . S
H1451 C1463 0.950 . S
C1452 H1444 0.950 1_556 S
C1452 C1453 1.386 . S
C1452 C1454 1.391 . S
C1453 C1452 1.386 . S
C1453 C1457 1.393 . S
C1454 H1446 0.950 . S
C1454 C1452 1.391 . S
C1454 C1455 1.400 . S
C1455 C1454 1.400 . S
C1455 C1456 1.398 . S
C1455 C1461 1.491 . S
C1456 H1447 0.950 . S
C1456 C1455 1.398 . S
C1456 C1457 1.391 . S
C1457 H1445 0.950 . S
C1457 C1453 1.393 . S
C1457 C1456 1.391 . S
C1458 H1448 0.950 . S
C1458 C1459 1.386 . S
C1458 C1460 1.391 . S
C1459 C1458 1.386 . S
C1459 C1463 1.393 . S
C1460 H1449 0.950 . S
C1460 C1458 1.391 . S
C1460 C1461 1.400 . S
C1461 C1455 1.491 . S
C1461 C1460 1.400 . S
C1461 C1462 1.398 . S
C1462 H1450 0.950 . S
C1462 C1461 1.398 . S
C1462 C1463 1.391 . S
C1463 H1451 0.950 . S
C1463 C1459 1.393 . S
C1463 C1462 1.391 . S
H1464 C1472 0.950 . S
H1465 C1477 0.950 . S
H1466 C1474 0.950 . S
H1467 C1476 0.950 . S
H1468 C1478 0.950 . S
H1469 C1480 0.950 . S
H1470 C1482 0.950 . S
H1471 C1483 0.950 . S
C1472 H1464 0.950 . S
C1472 C1473 1.386 . S
C1472 C1474 1.391 . S
C1473 C1472 1.386 . S
C1473 C1477 1.393 . S
C1474 H1466 0.950 . S
C1474 C1472 1.391 . S
C1474 C1475 1.400 . S
C1475 C1474 1.400 . S
C1475 C1476 1.398 . S
C1475 C1481 1.491 . S
C1476 H1467 0.950 . S
C1476 C1475 1.398 . S
C1476 C1477 1.391 . S
C1477 H1465 0.950 . S
C1477 C1473 1.393 . S
C1477 C1476 1.391 . S
C1478 H1468 0.950 . S
C1478 C1479 1.386 . S
C1478 C1480 1.391 . S
C1479 C1478 1.386 . S
C1479 C1483 1.393 . S
C1480 H1469 0.950 . S
C1480 C1478 1.391 . S
C1480 C1481 1.400 . S
C1481 C1475 1.491 . S
C1481 C1480 1.400 . S
C1481 C1482 1.398 . S
C1482 H1470 0.950 . S
C1482 C1481 1.398 . S
C1482 C1483 1.391 . S
C1483 H1471 0.950 . S
C1483 C1479 1.393 . S
C1483 C1482 1.391 . S
H1484 C1492 0.950 . S
H1485 C1497 0.950 . S
H1486 C1494 0.950 . S
H1487 C1496 0.950 . S
H1488 C1498 0.950 . S
H1489 C1500 0.950 . S
H1490 C1502 0.950 . S
H1491 C1503 0.950 . S
C1492 H1484 0.950 . S
C1492 C1493 1.386 . S
C1492 C1494 1.391 . S
C1493 C1492 1.386 . S
C1493 C1497 1.393 . S
C1494 H1486 0.950 . S
C1494 C1492 1.391 . S
C1494 C1495 1.400 . S
C1495 C1494 1.400 . S
C1495 C1496 1.398 . S
C1495 C1501 1.491 . S
C1496 H1487 0.950 . S
C1496 C1495 1.398 . S
C1496 C1497 1.391 . S
C1497 H1485 0.950 . S
C1497 C1493 1.393 . S
C1497 C1496 1.391 . S
C1498 H1488 0.950 . S
C1498 C1499 1.386 . S
C1498 C1500 1.391 . S
C1499 C1498 1.386 . S
C1499 C1503 1.393 . S
C1500 H1489 0.950 . S
C1500 C1498 1.391 . S
C1500 C1501 1.400 . S
C1501 C1495 1.491 . S
C1501 C1500 1.400 . S
C1501 C1502 1.398 . S
C1502 H1490 0.950 . S
C1502 C1501 1.398 . S
C1502 C1503 1.391 . S
C1503 H1491 0.950 . S
C1503 C1499 1.393 . S
C1503 C1502 1.391 . S
H1504 C1512 0.950 . S
H1505 C1517 0.950 . S
H1506 C1514 0.950 . S
H1507 C1516 0.950 . S
H1508 C1518 0.950 . S
H1509 C1520 0.950 . S
H1510 C1522 0.950 . S
H1511 C1523 0.950 . S
C1512 H1504 0.950 . S
C1512 C1513 1.386 . S
C1512 C1514 1.391 . S
C1513 C1512 1.386 . S
C1513 C1517 1.393 . S
C1514 H1506 0.950 . S
C1514 C1512 1.391 . S
C1514 C1515 1.400 . S
C1515 C1514 1.400 . S
C1515 C1516 1.398 . S
C1515 C1521 1.491 . S
C1516 H1507 0.950 . S
C1516 C1515 1.398 . S
C1516 C1517 1.391 . S
C1517 H1505 0.950 . S
C1517 C1513 1.393 . S
C1517 C1516 1.391 . S
C1518 H1508 0.950 . S
C1518 C1519 1.386 . S
C1518 C1520 1.391 . S
C1519 C1518 1.386 . S
C1519 C1523 1.393 . S
C1520 H1509 0.950 . S
C1520 C1518 1.391 . S
C1520 C1521 1.400 . S
C1521 C1515 1.491 . S
C1521 C1520 1.400 . S
C1521 C1522 1.398 . S
C1522 H1510 0.950 . S
C1522 C1521 1.398 . S
C1522 C1523 1.391 . S
C1523 H1511 0.950 . S
C1523 C1519 1.393 . S
C1523 C1522 1.391 . S
H1524 C1532 0.950 . S
H1525 C1537 0.950 . S
H1526 C1534 0.950 . S
H1527 C1536 0.950 . S
H1528 C1538 0.950 . S
H1529 C1540 0.950 . S
H1530 C1542 0.950 . S
H1531 C1543 0.950 . S
C1532 H1524 0.950 . S
C1532 C1533 1.386 . S
C1532 C1534 1.391 . S
C1533 C1532 1.386 . S
C1533 C1537 1.393 . S
C1534 H1526 0.950 . S
C1534 C1532 1.391 . S
C1534 C1535 1.400 . S
C1535 C1534 1.400 . S
C1535 C1536 1.398 . S
C1535 C1541 1.491 . S
C1536 H1527 0.950 . S
C1536 C1535 1.398 . S
C1536 C1537 1.391 . S
C1537 H1525 0.950 . S
C1537 C1533 1.393 . S
C1537 C1536 1.391 . S
C1538 H1528 0.950 . S
C1538 C1539 1.386 . S
C1538 C1540 1.391 . S
C1539 C1538 1.386 . S
C1539 C1543 1.393 . S
C1540 H1529 0.950 . S
C1540 C1538 1.391 . S
C1540 C1541 1.400 . S
C1541 C1535 1.491 . S
C1541 C1540 1.400 . S
C1541 C1542 1.398 . S
C1542 H1530 0.950 . S
C1542 C1541 1.398 . S
C1542 C1543 1.391 . S
C1543 H1531 0.950 . S
C1543 C1539 1.393 . S
C1543 C1542 1.391 . S
H1544 C1552 0.950 . S
H1545 C1557 0.950 . S
H1546 C1554 0.950 . S
H1547 C1556 0.950 . S
H1548 C1558 0.950 . S
H1549 C1560 0.950 . S
H1550 C1562 0.950 . S
H1551 C1563 0.950 . S
C1552 H1544 0.950 . S
C1552 C1553 1.386 . S
C1552 C1554 1.391 . S
C1553 C1552 1.386 . S
C1553 C1557 1.393 . S
C1554 H1546 0.950 . S
C1554 C1552 1.391 . S
C1554 C1555 1.400 . S
C1555 C1554 1.400 . S
C1555 C1556 1.398 . S
C1555 C1561 1.491 . S
C1556 H1547 0.950 . S
C1556 C1555 1.398 . S
C1556 C1557 1.391 . S
C1557 H1545 0.950 . S
C1557 C1553 1.393 . S
C1557 C1556 1.391 . S
C1558 H1548 0.950 . S
C1558 C1559 1.386 . S
C1558 C1560 1.391 . S
C1559 C1558 1.386 . S
C1559 C1563 1.393 . S
C1560 H1549 0.950 . S
C1560 C1558 1.391 . S
C1560 C1561 1.400 . S
C1561 C1555 1.491 . S
C1561 C1560 1.400 . S
C1561 C1562 1.398 . S
C1562 H1550 0.950 . S
C1562 C1561 1.398 . S
C1562 C1563 1.391 . S
C1563 H1551 0.950 . S
C1563 C1559 1.393 . S
C1563 C1562 1.391 . S
H1564 C1572 0.950 . S
H1565 C1577 0.950 . S
H1566 C1574 0.950 . S
H1567 C1576 0.950 . S
H1568 C1578 0.950 . S
H1569 C1580 0.950 . S
H1570 C1582 0.950 . S
H1571 C1583 0.950 . S
C1572 H1564 0.950 . S
C1572 C1573 1.386 . S
C1572 C1574 1.391 . S
C1573 C1572 1.386 . S
C1573 C1577 1.393 . S
C1574 H1566 0.950 . S
C1574 C1572 1.391 . S
C1574 C1575 1.400 . S
C1575 C1574 1.400 . S
C1575 C1576 1.398 . S
C1575 C1581 1.491 . S
C1576 H1567 0.950 . S
C1576 C1575 1.398 . S
C1576 C1577 1.391 . S
C1577 H1565 0.950 . S
C1577 C1573 1.393 . S
C1577 C1576 1.391 . S
C1578 H1568 0.950 . S
C1578 C1579 1.386 . S
C1578 C1580 1.391 . S
C1579 C1578 1.386 . S
C1579 C1583 1.393 . S
C1580 H1569 0.950 . S
C1580 C1578 1.391 . S
C1580 C1581 1.400 . S
C1581 C1575 1.491 . S
C1581 C1580 1.400 . S
C1581 C1582 1.398 . S
C1582 H1570 0.950 . S
C1582 C1581 1.398 . S
C1582 C1583 1.391 . S
C1583 H1571 0.950 . S
C1583 C1579 1.393 . S
C1583 C1582 1.391 . S
H1584 C1592 0.950 . S
H1585 C1597 0.950 . S
H1586 C1594 0.950 . S
H1587 C1596 0.950 . S
H1588 C1598 0.950 . S
H1589 C1600 0.950 . S
H1590 C1602 0.950 . S
H1591 C1603 0.950 . S
C1592 H1584 0.950 . S
C1592 C1593 1.386 . S
C1592 C1594 1.391 . S
C1593 C1592 1.386 . S
C1593 C1597 1.393 . S
C1594 H1586 0.950 . S
C1594 C1592 1.391 . S
C1594 C1595 1.400 . S
C1595 C1594 1.400 . S
C1595 C1596 1.398 . S
C1595 C1601 1.491 . S
C1596 H1587 0.950 . S
C1596 C1595 1.398 . S
C1596 C1597 1.391 . S
C1597 H1585 0.950 . S
C1597 C1593 1.393 . S
C1597 C1596 1.391 . S
C1598 H1588 0.950 . S
C1598 C1599 1.386 . S
C1598 C1600 1.391 . S
C1599 C1598 1.386 . S
C1599 C1603 1.393 . S
C1600 H1589 0.950 . S
C1600 C1598 1.391 . S
C1600 C1601 1.400 . S
C1601 C1595 1.491 . S
C1601 C1600 1.400 . S
C1601 C1602 1.398 . S
C1602 H1590 0.950 . S
C1602 C1601 1.398 . S
C1602 C1603 1.391 . S
C1603 H1591 0.950 . S
C1603 C1599 1.393 . S
C1603 C1602 1.391 . S
H1604 C1612 0.950 . S
H1605 C1617 0.950 . S
H1606 C1614 0.950 . S
H1607 C1616 0.950 . S
H1608 C1618 0.950 . S
H1609 C1620 0.950 . S
H1610 C1622 0.950 . S
H1611 C1623 0.950 . S
C1612 H1604 0.950 . S
C1612 C1613 1.386 . S
C1612 C1614 1.391 . S
C1613 C1612 1.386 . S
C1613 C1617 1.393 . S
C1614 H1606 0.950 . S
C1614 C1612 1.391 . S
C1614 C1615 1.400 . S
C1615 C1614 1.400 . S
C1615 C1616 1.398 . S
C1615 C1621 1.491 . S
C1616 H1607 0.950 . S
C1616 C1615 1.398 . S
C1616 C1617 1.391 . S
C1617 H1605 0.950 . S
C1617 C1613 1.393 . S
C1617 C1616 1.391 . S
C1618 H1608 0.950 . S
C1618 C1619 1.386 . S
C1618 C1620 1.391 . S
C1619 C1618 1.386 . S
C1619 C1623 1.393 . S
C1620 H1609 0.950 . S
C1620 C1618 1.391 . S
C1620 C1621 1.400 . S
C1621 C1615 1.491 . S
C1621 C1620 1.400 . S
C1621 C1622 1.398 . S
C1622 H1610 0.950 . S
C1622 C1621 1.398 . S
C1622 C1623 1.391 . S
C1623 H1611 0.950 . S
C1623 C1619 1.393 . S
C1623 C1622 1.391 . S
H1624 C1632 0.947 1_554 S
H1625 C1637 0.950 . S
H1626 C1634 0.950 1_554 S
H1627 C1636 0.950 . S
H1628 C1638 0.950 . S
H1629 C1640 0.950 . S
H1630 C1642 0.950 . S
H1631 C1643 0.950 . S
C1632 H1624 0.947 1_556 S
C1632 C1633 1.386 . S
C1632 C1634 1.391 . S
C1633 C1632 1.386 . S
C1633 C1637 1.393 . S
C1634 H1626 0.950 1_556 S
C1634 C1632 1.391 . S
C1634 C1635 1.400 . S
C1635 C1634 1.400 . S
C1635 C1636 1.398 . S
C1635 C1641 1.491 . S
C1636 H1627 0.950 . S
C1636 C1635 1.398 . S
C1636 C1637 1.391 . S
C1637 H1625 0.950 . S
C1637 C1633 1.393 . S
C1637 C1636 1.391 . S
C1638 H1628 0.950 . S
C1638 C1639 1.386 . S
C1638 C1640 1.391 . S
C1639 C1638 1.386 . S
C1639 C1643 1.393 1_556 S
C1640 H1629 0.950 . S
C1640 C1638 1.391 . S
C1640 C1641 1.400 . S
C1641 C1635 1.491 . S
C1641 C1640 1.400 . S
C1641 C1642 1.398 1_556 S
C1642 H1630 0.950 . S
C1642 C1641 1.398 1_554 S
C1642 C1643 1.391 . S
C1643 H1631 0.950 . S
C1643 C1639 1.393 1_554 S
C1643 C1642 1.391 . S
H1644 C1652 0.950 . S
H1645 C1657 0.950 . S
H1646 C1654 0.950 . S
H1647 C1656 0.950 . S
H1648 C1658 0.950 . S
H1649 C1660 0.950 . S
H1650 C1662 0.950 . S
H1651 C1663 0.950 . S
C1652 H1644 0.950 . S
C1652 C1653 1.386 . S
C1652 C1654 1.391 . S
C1653 C1652 1.386 . S
C1653 C1657 1.393 . S
C1654 H1646 0.950 . S
C1654 C1652 1.391 . S
C1654 C1655 1.400 . S
C1655 C1654 1.400 . S
C1655 C1656 1.398 . S
C1655 C1661 1.491 . S
C1656 H1647 0.950 . S
C1656 C1655 1.398 . S
C1656 C1657 1.391 . S
C1657 H1645 0.950 . S
C1657 C1653 1.393 . S
C1657 C1656 1.391 . S
C1658 H1648 0.950 . S
C1658 C1659 1.386 . S
C1658 C1660 1.391 . S
C1659 C1658 1.386 . S
C1659 C1663 1.393 . S
C1660 H1649 0.950 . S
C1660 C1658 1.391 . S
C1660 C1661 1.400 . S
C1661 C1655 1.491 . S
C1661 C1660 1.400 . S
C1661 C1662 1.398 . S
C1662 H1650 0.950 . S
C1662 C1661 1.398 . S
C1662 C1663 1.391 . S
C1663 H1651 0.950 . S
C1663 C1659 1.393 . S
C1663 C1662 1.391 . S
H1664 C1672 0.950 . S
H1665 C1677 0.950 . S
H1666 C1674 0.950 . S
H1667 C1676 0.950 . S
H1668 C1678 0.950 . S
H1669 C1680 0.950 . S
H1670 C1682 0.950 . S
H1671 C1683 0.950 . S
C1672 H1664 0.950 . S
C1672 C1673 1.386 . S
C1672 C1674 1.391 . S
C1673 C1672 1.386 . S
C1673 C1677 1.393 . S
C1674 H1666 0.950 . S
C1674 C1672 1.391 . S
C1674 C1675 1.400 . S
C1675 C1674 1.400 . S
C1675 C1676 1.398 . S
C1675 C1681 1.491 . S
C1676 H1667 0.950 . S
C1676 C1675 1.398 . S
C1676 C1677 1.391 . S
C1677 H1665 0.950 . S
C1677 C1673 1.393 . S
C1677 C1676 1.391 . S
C1678 H1668 0.950 . S
C1678 C1679 1.386 . S
C1678 C1680 1.391 . S
C1679 C1678 1.386 . S
C1679 C1683 1.393 . S
C1680 H1669 0.950 . S
C1680 C1678 1.391 . S
C1680 C1681 1.400 . S
C1681 C1675 1.491 . S
C1681 C1680 1.400 . S
C1681 C1682 1.398 . S
C1682 H1670 0.950 . S
C1682 C1681 1.398 . S
C1682 C1683 1.391 . S
C1683 H1671 0.950 . S
C1683 C1679 1.393 . S
C1683 C1682 1.391 . S
H1684 C1692 0.950 . S
H1685 C1697 0.950 . S
H1686 C1694 0.950 . S
H1687 C1696 0.950 1_556 S
H1688 C1698 0.943 1_556 S
H1689 C1700 0.950 1_556 S
H1690 C1702 0.950 . S
H1691 C1703 0.950 . S
C1692 H1684 0.950 . S
C1692 C1693 1.386 . S
C1692 C1694 1.391 . S
C1693 C1692 1.386 . S
C1693 C1697 1.393 . S
C1694 H1686 0.950 . S
C1694 C1692 1.391 . S
C1694 C1695 1.400 . S
C1695 C1694 1.400 . S
C1695 C1696 1.398 . S
C1695 C1701 1.491 . S
C1696 H1687 0.950 1_554 S
C1696 C1695 1.398 . S
C1696 C1697 1.391 . S
C1697 H1685 0.950 . S
C1697 C1693 1.393 . S
C1697 C1696 1.391 . S
C1698 H1688 0.943 1_554 S
C1698 C1699 1.391 . S
C1698 C1700 1.392 . S
C1699 C1698 1.391 . S
C1699 C1703 1.393 . S
C1700 H1689 0.950 1_554 S
C1700 C1698 1.392 . S
C1700 C1701 1.400 . S
C1701 C1695 1.491 . S
C1701 C1700 1.400 . S
C1701 C1702 1.398 . S
C1702 H1690 0.950 . S
C1702 C1701 1.398 . S
C1702 C1703 1.391 . S
C1703 H1691 0.950 . S
C1703 C1699 1.393 . S
C1703 C1702 1.391 . S
C759 C584 1.487 . S
C753 C181 1.507 . S
C779 C597 1.481 . S
C773 C247 1.479 . S
C793 C283 1.653 . S
C799 C617 1.551 . S
C819 C631 1.374 . S
C813 C169 1.441 1_655 S
C839 C643 1.515 . S
C833 C361 1.520 . S
C859 C657 1.418 . S
C853 C433 1.417 . S
C873 C421 1.485 . S
C879 C667 1.477 . S
C899 C682 1.512 . S
C893 C355 1.541 . S
C913 C427 1.526 . S
C919 C696 1.496 . S
C939 C715 1.362 . S
C933 C325 1.443 . S
C953 C385 1.488 . S
C959 C695 1.483 . S
C979 C713 1.430 . S
C973 C463 1.422 . S
C993 C253 1.646 . S
C999 C729 1.548 . S
C1013 C145 1.487 . S
C1019 C723 1.486 . S
C1033 C205 1.497 . S
C1039 C727 1.494 . S
C1053 C217 1.529 . S
C1059 C724 1.512 . S
C1073 C139 1.523 . S
C1079 C626 1.493 . S
C1093 C535 1.485 . S
C1099 C625 1.485 . S
C1119 C589 1.357 . S
C1113 C565 1.389 1_565 S
C1139 C603 1.557 . S
C1133 C313 1.640 . S
C1153 C175 1.549 1_545 S
C1159 C640 1.517 . S
C1179 C685 1.512 . S
C1173 C397 1.516 . S
C1199 C639 1.482 . S
C1193 C349 1.483 . S
C1219 C671 1.427 . S
C1213 C457 1.424 . S
C1239 C668 1.477 . S
C1233 C505 1.506 . S
C1253 C571 1.474 . S
C1259 C681 1.474 . S
C1273 C319 1.653 . S
C1279 C645 1.560 . S
C1299 C659 1.356 . S
C1293 C493 1.441 . S
C1313 C109 1.520 . S
C1319 C615 1.519 . S
C1339 C629 1.418 . S
C1333 C1 1.416 . S
C1359 C583 1.481 . S
C1353 C61 1.488 . S
C1379 C598 1.514 . S
C1373 C103 1.548 . S
C1393 C67 1.531 . S
C1399 C710 1.511 . S
C1413 C73 1.436 1_556 S
C1419 C701 1.382 . S
C1433 C133 1.487 . S
C1439 C709 1.487 . S
C1453 C31 1.421 . S
C1459 C699 1.429 . S
C1479 C743 1.566 . S
C1473 C289 1.653 . S
C1499 C737 1.483 . S
C1493 C469 1.490 . S
C1519 C741 1.502 . S
C1513 C529 1.503 . S
C1533 C541 1.521 . S
C1539 C738 1.505 . S
C1553 C391 1.522 . S
C1559 C654 1.491 . S
C1579 C653 1.475 . S
C1573 C211 1.490 . S
C1599 C673 1.368 . S
C1593 C241 1.409 . S
C1619 C687 1.548 . S
C1613 C277 1.645 . S
C1633 C499 1.558 . S
C1639 C612 1.520 . S
C1659 C601 1.508 . S
C1653 C37 1.513 . S
C1673 C97 1.479 . S
C1679 C611 1.476 . S
C1699 C587 1.434 . S
C1693 C25 1.429 . S
