# Generated by pormake.
# Topology anh, (6,3)-cn, num edge types: 1
# Building blocks:
#     Node 0, Type 0, BuildingBlock: GEDQOX_clean_sbu_0, # of connection points: 6
#     Node 1, Type 0, BuildingBlock: GEDQOX_clean_sbu_0, # of connection points: 6
#     Node 2, Type 0, BuildingBlock: GEDQOX_clean_sbu_0, # of connection points: 6
#     Node 3, Type 1, BuildingBlock: MIDCAF_clean_linker_0, # of connection points: 3
#     Node 4, Type 1, BuildingBlock: MIDCAF_clean_linker_0, # of connection points: 3
#     Node 5, Type 1, BuildingBlock: MIDCAF_clean_linker_0, # of connection points: 3
#     Node 6, Type 1, BuildingBlock: MIDCAF_clean_linker_0, # of connection points: 3
#     Node 7, Type 1, BuildingBlock: MIDCAF_clean_linker_0, # of connection points: 3
#     Node 8, Type 1, BuildingBlock: MIDCAF_clean_linker_0, # of connection points: 3
#     Edge 9, Type (0, 1), None
#     Edge 10, Type (0, 1), None
#     Edge 11, Type (0, 1), None
#     Edge 12, Type (0, 1), None
#     Edge 13, Type (0, 1), None
#     Edge 14, Type (0, 1), None
#     Edge 15, Type (0, 1), None
#     Edge 16, Type (0, 1), None
#     Edge 17, Type (0, 1), None
#     Edge 18, Type (0, 1), None
#     Edge 19, Type (0, 1), None
#     Edge 20, Type (0, 1), None
#     Edge 21, Type (0, 1), None
#     Edge 22, Type (0, 1), None
#     Edge 23, Type (0, 1), None
#     Edge 24, Type (0, 1), None
#     Edge 25, Type (0, 1), None
#     Edge 26, Type (0, 1), None
# Relax obj value: 0.283
# Max RMSD: 0.263
# Mean RMSD: 0.184
data_MOF--net-anh--node1-GEDQOX_clean_sbu_0--node2-MIDCAF_clean_linker_0--edge1-none
_symmetry_space_group_name_H-M    P1
_symmetry_Int_Tables_number       1
_symmetry_cell_setting            triclinic
loop_
_symmetry_equiv_pos_as_xyz
'x, y, z'
_cell_length_a     20.597613
_cell_length_b     19.431097
_cell_length_c     37.232387
_cell_angle_alpha  92.024003
_cell_angle_beta   91.076768
_cell_angle_gamma 96.418027
loop_
_atom_site_label
_atom_site_type_symbol
_atom_site_fract_x
_atom_site_fract_y
_atom_site_fract_z
_atom_type_partial_charge
Nd0 Nd 0.11829 0.63132 0.13587 0.0
Nd1 Nd 1.09158 0.47662 0.13853 0.0
C2 C 0.14491 0.76598 0.12764 0.0
C3 C 0.20572 0.81275 0.13622 0.0
C4 C 0.26755 0.79185 0.12887 0.0
C5 C 0.32479 0.83123 0.1421 0.0
C6 C 0.32157 0.89225 0.16319 0.0
C7 C 0.25972 0.91469 0.16899 0.0
C8 C 0.20254 0.87535 0.15571 0.0
C9 C 0.12532 0.58042 0.20322 0.0
C10 C 0.25272 0.54762 0.13417 0.0
C11 C 1.06994 0.34583 0.15744 0.0
C12 C 1.0113 0.30104 0.16868 0.0
C13 C 1.01809 0.24524 0.19082 0.0
C14 C 0.96282 0.20397 0.20258 0.0
C15 C 0.8993 0.21756 0.19247 0.0
C16 C 0.89283 0.27333 0.16997 0.0
C17 C 0.94813 0.31466 0.15831 0.0
C18 C 1.09022 0.52746 0.07101 0.0
C19 C 0.95782 0.5592 0.13232 0.0
O20 O 0.14696 0.72 0.10121 0.0
O21 O 0.1143 0.74011 0.15542 0.0
O22 O 0.16696 0.6286 0.19132 0.0
O23 O 1.08133 0.56079 0.17993 0.0
O24 O 0.22791 0.60741 0.12991 0.0
O25 O 0.21067 0.49067 0.13956 0.0
O26 O 1.09211 0.39675 0.17992 0.0
O27 O 1.07035 0.3645 0.12401 0.0
O28 O 1.04963 0.47578 0.08071 0.0
O29 O 0.13108 0.54717 0.09569 0.0
O30 O 0.9817 0.50152 0.14221 0.0
O31 O 1.0009 0.61411 0.12497 0.0
H32 H 0.27169 0.74363 0.11408 0.0
H33 H 0.37132 0.81189 0.13735 0.0
H34 H 0.25534 0.96188 0.18468 0.0
H35 H 0.1556 0.89255 0.16186 0.0
H36 H 1.06624 0.23376 0.19921 0.0
H37 H 0.96992 0.16115 0.21952 0.0
H38 H 0.84493 0.28616 0.16202 0.0
H39 H 0.94146 0.35773 0.14145 0.0
Nd40 Nd 0.54664 0.98346 0.52452 0.0
Nd41 Nd 0.68843 1.00135 0.51334 0.0
C42 C 0.42626 0.94541 0.54521 0.0
C43 C 0.37587 0.88772 0.5348 0.0
C44 C 0.38911 0.81831 0.53559 0.0
C45 C 0.34439 0.76521 0.52051 0.0
C46 C 0.28599 0.78072 0.5042 0.0
C47 C 0.27123 0.84965 0.50531 0.0
C48 C 0.31569 0.9026 0.52058 0.0
C49 C 0.57667 1.00373 0.4538 0.0
C50 C 0.62438 0.84215 0.51568 0.0
C51 C 0.81008 0.03824 0.49428 0.0
C52 C 0.84736 0.10012 0.48049 0.0
C53 C 0.81686 0.14606 0.45931 0.0
C54 C 0.85288 0.2055 0.44705 0.0
C55 C 0.9197 0.2202 0.4561 0.0
C56 C 0.94981 0.1743 0.47758 0.0
C57 C 0.91388 0.11463 0.48961 0.0
C58 C 0.65479 0.98261 0.58357 0.0
C59 C 0.61167 0.14033 0.52471 0.0
O60 O 0.47828 0.93001 0.56256 0.0
O61 O 0.44016 0.99061 0.52053 0.0
O62 O 0.52824 0.02779 0.46978 0.0
O63 O 0.60561 0.96588 0.47433 0.0
O64 O 0.5702 0.86919 0.52403 0.0
O65 O 0.6777 0.88227 0.50753 0.0
O66 O 0.76555 1.00507 0.47262 0.0
O67 O 0.79044 0.04417 0.52726 0.0
O68 O 0.69981 0.95174 0.5679 0.0
O69 O 0.62934 0.02184 0.56248 0.0
O70 O 0.65935 0.1136 0.50756 0.0
O71 O 0.56631 0.09894 0.54027 0.0
H72 H 0.43507 0.8052 0.54647 0.0
H73 H 0.3572 0.71261 0.51981 0.0
H74 H 0.2262 0.86288 0.49325 0.0
H75 H 0.30427 0.95565 0.51985 0.0
H76 H 0.76524 0.13615 0.45239 0.0
H77 H 0.8283 0.24043 0.43088 0.0
H78 H 1.00135 0.18408 0.48468 0.0
H79 H 0.938 0.07984 0.50611 0.0
Nd80 Nd 0.54335 0.48952 0.82317 0.0
Nd81 Nd 0.68189 0.50921 0.83654 0.0
C82 C 0.42485 0.48663 0.79665 0.0
C83 C 0.38523 0.54544 0.79961 0.0
C84 C 0.39809 0.60361 0.77799 0.0
C85 C 0.37328 0.6661 0.78691 0.0
C86 C 0.33629 0.67139 0.81779 0.0
C87 C 0.32002 0.61213 0.83787 0.0
C88 C 0.34366 0.54981 0.82872 0.0
C89 C 0.57409 0.52738 0.89456 0.0
C90 C 0.61341 0.64718 0.83109 0.0
C91 C 0.80502 0.49961 0.8529 0.0
C92 C 0.85587 0.46963 0.83194 0.0
C93 C 0.86922 0.40112 0.83653 0.0
C94 C 0.92282 0.37637 0.81993 0.0
C95 C 0.9658 0.42085 0.7998 0.0
C96 C 0.94519 0.48506 0.79053 0.0
C97 C 0.89174 0.50955 0.80693 0.0
C98 C 0.64967 0.51918 0.76516 0.0
C99 C 0.61198 0.34782 0.82531 0.0
O100 O 0.47642 0.49687 0.7767 0.0
O101 O 0.43709 0.45704 0.82686 0.0
O102 O 0.5273 0.54992 0.87624 0.0
O103 O 0.60184 0.48481 0.87567 0.0
O104 O 0.57058 0.60479 0.81197 0.0
O105 O 0.65806 0.62084 0.8507 0.0
O106 O 0.75755 0.45637 0.86432 0.0
O107 O 0.78471 0.55597 0.84095 0.0
O108 O 0.69432 0.56061 0.78203 0.0
O109 O 0.62479 0.4737 0.7856 0.0
O110 O 0.66714 0.38995 0.82626 0.0
O111 O 0.55511 0.37317 0.82564 0.0
H112 H 0.42976 0.60196 0.75515 0.0
H113 H 0.38451 0.71055 0.77044 0.0
H114 H 0.28946 0.61419 0.86115 0.0
H115 H 0.33226 0.50612 0.8457 0.0
H116 H 0.84039 0.36776 0.85439 0.0
H117 H 0.93417 0.32494 0.82602 0.0
H118 H 0.97404 0.52074 0.7739 0.0
H119 H 0.88106 0.56155 0.80145 0.0
C120 C 0.37852 0.95108 0.21803 0.0
C121 C 0.38144 0.92858 0.18188 0.0
C122 C 0.4423 0.9377 0.1649 0.0
C123 C 0.49887 0.96752 0.18391 0.0
H124 H 0.68596 0.10654 0.17982 0.0
H125 H 0.78367 0.17117 0.15629 0.0
H126 H 0.88041 0.1681 0.26001 0.0
H127 H 0.78375 0.10293 0.28334 0.0
H128 H 0.70038 1.00035 0.34986 0.0
H129 H 0.68693 0.98739 0.41496 0.0
H130 H 0.48688 0.03143 0.4041 0.0
H131 H 0.49932 0.04158 0.33964 0.0
H132 H 0.43018 0.99524 0.26501 0.0
H133 H 0.33299 0.94412 0.23223 0.0
H134 H 0.44629 0.9213 0.13701 0.0
H135 H 0.54512 0.97259 0.17035 0.0
N136 N 0.612 0.04139 0.22769 0.0
N137 N 0.66243 0.05562 0.28526 0.0
N138 N 0.55356 1.0068 0.27871 0.0
C139 C 0.66569 0.06347 0.24903 0.0
C140 C 0.60642 0.02745 0.30022 0.0
C141 C 0.55564 1.01272 0.24254 0.0
C142 C 0.72643 0.09931 0.2336 0.0
C143 C 0.72821 0.11907 0.19757 0.0
C144 C 0.78422 0.1567 0.18411 0.0
C145 C 0.84019 0.17523 0.20621 0.0
C146 C 0.83875 0.15423 0.24199 0.0
C147 C 0.78282 0.11702 0.25547 0.0
C148 C 0.60085 0.02187 0.33968 0.0
C149 C 0.65366 1.00715 0.36155 0.0
C150 C 0.64591 0.99939 0.39869 0.0
C151 C 0.5859 1.00835 0.41458 0.0
C152 C 0.53374 0.02414 0.39269 0.0
C153 C 0.54084 0.02989 0.3557 0.0
C154 C 0.49591 0.98777 0.22045 0.0
C155 C 0.43474 0.97996 0.23699 0.0
C156 C 0.55993 0.24403 0.54773 0.0
C157 C 0.60977 0.21728 0.52807 0.0
C158 C 0.65801 0.2649 0.51331 0.0
C159 C 0.65799 0.33706 0.51974 0.0
H160 H 0.52266 0.61881 0.53236 0.0
H161 H 0.52065 0.74033 0.51758 0.0
H162 H 0.73154 0.76959 0.5212 0.0
H163 H 0.73297 0.6479 0.53642 0.0
H164 H 0.67807 0.61512 0.65355 0.0
H165 H 0.68837 0.62052 0.71914 0.0
H166 H 0.58856 0.41343 0.72267 0.0
H167 H 0.57917 0.40726 0.65713 0.0
H168 H 0.52302 0.33356 0.57127 0.0
H169 H 0.52161 0.20964 0.55937 0.0
H170 H 0.69709 0.24642 0.49791 0.0
H171 H 0.69775 0.37213 0.50991 0.0
N172 N 0.62206 0.49329 0.5369 0.0
N173 N 0.63041 0.56263 0.59054 0.0
N174 N 0.61915 0.44196 0.5933 0.0
C175 C 0.62817 0.55759 0.55403 0.0
C176 C 0.62583 0.50511 0.61033 0.0
C177 C 0.61787 0.43501 0.55692 0.0
C178 C 0.62797 0.62319 0.53458 0.0
C179 C 0.56854 0.65055 0.52859 0.0
C180 C 0.5675 0.72063 0.5206 0.0
C181 C 0.62594 0.76544 0.51842 0.0
C182 C 0.68553 0.73689 0.5224 0.0
C183 C 0.68647 0.66688 0.53082 0.0
C184 C 0.62833 0.51056 0.65011 0.0
C185 C 0.65795 0.57092 0.6683 0.0
C186 C 0.66404 0.57395 0.70581 0.0
C187 C 0.63967 0.51718 0.72583 0.0
C188 C 0.60795 0.45782 0.70783 0.0
C189 C 0.60285 0.45429 0.67031 0.0
C190 C 0.60983 0.36293 0.54108 0.0
C191 C 0.56026 0.31545 0.5543 0.0
C192 C 1.06287 0.38834 0.83162 0.0
C193 C 1.03742 0.41261 0.79964 0.0
C194 C 1.07887 0.46329 0.78239 0.0
C195 C 0.11985 0.51101 0.8039 0.0
H196 H 0.14757 0.7471 0.81569 0.0
H197 H 0.24439 0.734 0.78134 0.0
H198 H 0.36021 0.75271 0.87937 0.0
H199 H 0.26267 0.76293 0.91358 0.0
H200 H 0.18762 0.67045 0.98561 0.0
H201 H 0.17361 0.63427 0.0475 0.0
H202 H 1.01786 0.47766 0.01211 0.0
H203 H 1.03311 0.51242 0.95024 0.0
H204 H 0.11237 0.4221 0.88117 0.0
H205 H 1.03982 0.34245 0.84384 0.0
H206 H 1.06754 0.477 0.75522 0.0
H207 H 0.13975 0.55924 0.79255 0.0
N208 N 0.15529 0.62476 0.85571 0.0
N209 N 0.14897 0.67116 0.91456 0.0
N210 N 0.12119 0.55209 0.90175 0.0
C211 C 0.16173 0.68053 0.87921 0.0
C212 C 0.12676 0.60685 0.92559 0.0
C213 C 0.13639 0.56032 0.8669 0.0
C214 C 0.19772 0.74518 0.86709 0.0
C215 C 0.1945 0.75432 0.82978 0.0
C216 C 0.25031 0.74659 0.80989 0.0
C217 C 0.30795 0.7353 0.82833 0.0
C218 C 0.31488 0.757 0.86481 0.0
C219 C 0.25854 0.76311 0.88453 0.0
C220 C 0.11167 0.59399 0.96332 0.0
C221 C 0.1496 0.62933 0.99125 0.0
C222 C 0.14167 0.60845 0.02656 0.0
C223 C 1.09482 0.55299 0.0344 0.0
C224 C 1.05454 0.52025 0.0067 0.0
C225 C 1.06325 0.54023 0.97139 0.0
C226 C 0.12489 0.50073 0.841 0.0
C227 C 1.10425 0.43458 0.85342 0.0
C228 C 0.22506 0.74098 0.44749 0.0
C229 C 0.24435 0.72683 0.48256 0.0
C230 C 0.22688 0.66038 0.49556 0.0
C231 C 0.19105 0.60891 0.47364 0.0
H232 H 1.07072 0.41567 0.47197 0.0
H233 H 1.0063 0.31338 0.49412 0.0
H234 H 0.91977 0.26805 0.3882 0.0
H235 H 0.98355 0.37016 0.36596 0.0
H236 H 1.03215 0.46351 0.29975 0.0
H237 H 1.03809 0.48616 0.23546 0.0
H238 H 0.20778 0.63474 0.25675 0.0
H239 H 0.20173 0.61311 0.32039 0.0
H240 H 0.17712 0.70228 0.39845 0.0
H241 H 0.23862 0.79138 0.43656 0.0
H242 H 0.24119 0.64823 0.52254 0.0
H243 H 0.17877 0.55791 0.48412 0.0
N244 N 1.10406 0.51137 0.42651 0.0
N245 N 1.07532 0.47137 0.36736 0.0
N246 N 0.14254 0.57566 0.37768 0.0
C247 C 1.07169 0.46279 0.4034 0.0
C248 C 0.11113 0.5275 0.35434 0.0
C249 C 0.13921 0.56831 0.41369 0.0
C250 C 1.03243 0.40116 0.41716 0.0
C251 C 1.03785 0.38406 0.4534 0.0
C252 C 1.00127 0.3253 0.46607 0.0
C253 C 0.95809 0.28287 0.44286 0.0
C254 C 0.95222 0.30022 0.40676 0.0
C255 C 0.98917 0.35853 0.39401 0.0
C256 C 0.11603 0.53709 0.31523 0.0
C257 C 1.07091 0.50065 0.2906 0.0
C258 C 1.07422 0.51358 0.25387 0.0
C259 C 0.12309 0.56251 0.24128 0.0
C260 C 0.16931 0.59703 0.26573 0.0
C261 C 0.16566 0.58475 0.30228 0.0
C262 C 0.17335 0.62281 0.43819 0.0
C263 C 0.1903 0.68959 0.42554 0.0
C264 C 0.55722 0.22386 0.82121 0.0
C265 C 0.6146 0.27094 0.8219 0.0
C266 C 0.6748 0.24379 0.81768 0.0
C267 C 0.67723 0.17248 0.81103 0.0
H268 H 0.70836 0.87923 0.83792 0.0
H269 H 0.70671 0.75637 0.85306 0.0
H270 H 0.51714 0.71239 0.80062 0.0
H271 H 0.51943 0.83336 0.78563 0.0
H272 H 0.67654 0.89083 0.69587 0.0
H273 H 0.68838 0.88798 0.63061 0.0
H274 H 0.59882 0.07788 0.62459 0.0
H275 H 0.58835 0.08186 0.68991 0.0
H276 H 0.51456 0.11811 0.81223 0.0
H277 H 0.50995 0.24247 0.82437 0.0
H278 H 0.72014 0.27795 0.81803 0.0
H279 H 0.72395 0.15405 0.80563 0.0
N280 N 0.61863 0.99643 0.81094 0.0
N281 N 0.6245 0.93154 0.7566 0.0
N282 N 0.62545 0.05189 0.75557 0.0
C283 C 0.62035 0.93375 0.79299 0.0
C284 C 0.62717 0.99014 0.73773 0.0
C285 C 0.62136 0.05591 0.79191 0.0
C286 C 0.61347 0.86622 0.8111 0.0
C287 C 0.66547 0.84348 0.8309 0.0
C288 C 0.66474 0.77292 0.83926 0.0
C289 C 0.61215 0.7238 0.82772 0.0
C290 C 0.55882 0.74802 0.80975 0.0
C291 C 0.55969 0.81781 0.80142 0.0
C292 C 0.63191 0.98682 0.69808 0.0
C293 C 0.65915 0.93183 0.68063 0.0
C294 C 0.66608 0.93024 0.64332 0.0
C295 C 0.64465 0.98276 0.62268 0.0
C296 C 0.6157 0.03668 0.63991 0.0
C297 C 0.61005 0.03911 0.6773 0.0
C298 C 0.61979 0.12598 0.80908 0.0
C299 C 0.55982 0.15233 0.81477 0.0
C300 C 0.85199 0.61613 0.1136 0.0
C301 C 0.8812 0.56078 0.12893 0.0
C302 C 0.83492 0.50553 0.13997 0.0
C303 C 0.76497 0.50515 0.13533 0.0
H304 H 0.47093 0.65822 0.12134 0.0
H305 H 0.35312 0.65762 0.12998 0.0
H306 H 0.33174 0.43522 0.13188 0.0
H307 H 0.45037 0.43626 0.12287 0.0
H308 H 0.4996 0.58537 0.00756 0.0
H309 H 0.48995 0.57769 0.94204 0.0
H310 H 0.67577 0.49543 0.93679 0.0
H311 H 0.68639 0.50453 0.00251 0.0
H312 H 0.76465 0.65795 0.09487 0.0
H313 H 0.8833 0.65998 0.10418 0.0
H314 H 0.85287 0.46089 0.1517 0.0
H315 H 0.73366 0.45963 0.14278 0.0
N316 N 0.60517 0.55158 0.12411 0.0
N317 N 0.54277 0.54648 0.06984 0.0
N318 N 0.65722 0.5514 0.06789 0.0
C319 C 0.54356 0.54796 0.10632 0.0
C320 C 0.59816 0.54783 0.0505 0.0
C321 C 0.66332 0.55341 0.10439 0.0
C322 C 0.47426 0.54766 0.12338 0.0
C323 C 0.44232 0.60889 0.12514 0.0
C324 C 0.37293 0.60832 0.12949 0.0
C325 C 0.32933 0.54632 0.13188 0.0
C326 C 0.36113 0.48483 0.13064 0.0
C327 C 0.4308 0.48551 0.12603 0.0
C328 C 0.59369 0.5453 0.01044 0.0
C329 C 0.53863 0.56588 -0.00748 0.0
C330 C 0.53316 0.56176 0.95491 0.0
C331 C 0.58194 0.53563 0.93427 0.0
C332 C 0.63727 0.51556 0.95202 0.0
C333 C 0.6434 0.52097 0.98967 0.0
C334 C 0.73594 0.56017 0.11941 0.0
C335 C 0.78237 0.61529 0.10861 0.0
loop_
_geom_bond_atom_site_label_1
_geom_bond_atom_site_label_2
_geom_bond_distance
_geom_bond_site_symmetry_2
_ccdc_geom_bond_type
Nd0 C2 2.836 . S
Nd0 O20 2.500 . S
Nd0 O21 2.492 . S
Nd0 O22 2.487 . S
Nd0 O23 2.682 . S
Nd0 O24 2.410 . S
Nd0 O29 2.414 . S
Nd0 O31 2.424 1_455 S
Nd1 C11 2.836 . S
Nd1 O23 2.414 1_655 S
Nd1 O25 2.424 1_655 S
Nd1 O26 2.500 . S
Nd1 O27 2.492 . S
Nd1 O28 2.487 . S
Nd1 O29 2.682 1_655 S
Nd1 O30 2.410 . S
C2 Nd0 2.836 . S
C2 C3 1.498 . S
C2 O20 1.258 . S
C2 O21 1.239 . S
C3 C2 1.498 . S
C3 C4 1.366 . S
C3 C8 1.407 . S
C4 C3 1.366 . S
C4 C5 1.392 . S
C4 H32 0.930 . S
C5 C4 1.392 . S
C5 C6 1.398 . S
C5 H33 0.929 . S
C6 C5 1.398 . S
C6 C7 1.352 . S
C7 C6 1.352 . S
C7 C8 1.384 . S
C7 H34 0.930 . S
C8 C3 1.407 . S
C8 C7 1.384 . S
C8 H35 0.929 . S
C9 O22 1.241 . S
C9 O23 1.273 . S
C10 O24 1.251 . S
C10 O25 1.268 . S
C11 Nd1 2.836 . S
C11 C12 1.498 . S
C11 O26 1.258 . S
C11 O27 1.239 . S
C12 C11 1.498 . S
C12 C13 1.366 . S
C12 C17 1.407 . S
C13 C12 1.366 . S
C13 C14 1.392 . S
C13 H36 0.930 . S
C14 C13 1.392 . S
C14 C15 1.398 . S
C14 H37 0.929 . S
C15 C14 1.398 . S
C15 C16 1.352 . S
C16 C15 1.352 . S
C16 C17 1.384 . S
C16 H38 0.930 . S
C17 C12 1.407 . S
C17 C16 1.384 . S
C17 H39 0.929 . S
C18 O28 1.241 1_455 S
C18 O29 1.273 . S
C19 O30 1.251 . S
C19 O31 1.268 . S
O20 Nd0 2.500 . S
O20 C2 1.258 . S
O21 Nd0 2.492 . S
O21 C2 1.239 . S
O22 Nd0 2.487 . S
O22 C9 1.241 . S
O23 Nd0 2.682 . S
O23 Nd1 2.414 1_455 S
O23 C9 1.273 . S
O24 Nd0 2.410 . S
O24 C10 1.251 . S
O25 Nd1 2.424 1_455 S
O25 C10 1.268 . S
O26 Nd1 2.500 . S
O26 C11 1.258 . S
O27 Nd1 2.492 . S
O27 C11 1.239 . S
O28 Nd1 2.487 . S
O28 C18 1.241 1_655 S
O29 Nd0 2.414 . S
O29 Nd1 2.682 1_455 S
O29 C18 1.273 . S
O30 Nd1 2.410 . S
O30 C19 1.251 . S
O31 Nd0 2.424 1_655 S
O31 C19 1.268 . S
H32 C4 0.930 . S
H33 C5 0.929 . S
H34 C7 0.930 . S
H35 C8 0.929 . S
H36 C13 0.930 . S
H37 C14 0.929 . S
H38 C16 0.930 . S
H39 C17 0.929 . S
Nd40 C42 2.836 1_545 S
Nd40 O60 2.500 1_545 S
Nd40 O61 2.492 1_545 S
Nd40 O62 2.487 1_545 S
Nd40 O63 2.682 . S
Nd40 O64 2.409 1_545 S
Nd40 O69 2.414 . S
Nd40 O71 2.424 . S
Nd41 C51 2.836 . S
Nd41 O63 2.414 . S
Nd41 O65 2.424 1_545 S
Nd41 O66 2.500 . S
Nd41 O67 2.492 . S
Nd41 O68 2.487 . S
Nd41 O69 2.682 . S
Nd41 O70 2.410 . S
C42 Nd40 2.836 1_565 S
C42 C43 1.498 . S
C42 O60 1.258 . S
C42 O61 1.239 . S
C43 C42 1.498 . S
C43 C44 1.366 . S
C43 C48 1.407 . S
C44 C43 1.366 . S
C44 C45 1.392 . S
C44 H72 0.930 . S
C45 C44 1.392 . S
C45 C46 1.398 . S
C45 H73 0.929 . S
C46 C45 1.398 . S
C46 C47 1.352 . S
C47 C46 1.352 . S
C47 C48 1.384 . S
C47 H74 0.930 . S
C48 C43 1.407 . S
C48 C47 1.384 . S
C48 H75 0.929 . S
C49 O62 1.241 1_545 S
C49 O63 1.273 . S
C50 O64 1.251 . S
C50 O65 1.268 . S
C51 Nd41 2.836 . S
C51 C52 1.498 . S
C51 O66 1.258 . S
C51 O67 1.239 . S
C52 C51 1.498 . S
C52 C53 1.366 . S
C52 C57 1.407 . S
C53 C52 1.366 . S
C53 C54 1.392 . S
C53 H76 0.930 . S
C54 C53 1.392 . S
C54 C55 1.398 . S
C54 H77 0.929 . S
C55 C54 1.398 . S
C55 C56 1.352 . S
C56 C55 1.352 . S
C56 C57 1.384 . S
C56 H78 0.930 . S
C57 C52 1.407 . S
C57 C56 1.384 . S
C57 H79 0.929 . S
C58 O68 1.241 . S
C58 O69 1.273 . S
C59 O70 1.251 . S
C59 O71 1.268 . S
O60 Nd40 2.500 1_565 S
O60 C42 1.258 . S
O61 Nd40 2.492 1_565 S
O61 C42 1.239 . S
O62 Nd40 2.487 1_565 S
O62 C49 1.241 1_565 S
O63 Nd40 2.682 . S
O63 Nd41 2.414 . S
O63 C49 1.273 . S
O64 Nd40 2.409 1_565 S
O64 C50 1.251 . S
O65 Nd41 2.424 1_565 S
O65 C50 1.268 . S
O66 Nd41 2.500 . S
O66 C51 1.258 . S
O67 Nd41 2.492 . S
O67 C51 1.239 . S
O68 Nd41 2.487 . S
O68 C58 1.241 . S
O69 Nd40 2.414 . S
O69 Nd41 2.682 . S
O69 C58 1.273 . S
O70 Nd41 2.410 . S
O70 C59 1.251 . S
O71 Nd40 2.424 . S
O71 C59 1.268 . S
H72 C44 0.930 . S
H73 C45 0.929 . S
H74 C47 0.930 . S
H75 C48 0.929 . S
H76 C53 0.930 . S
H77 C54 0.929 . S
H78 C56 0.930 . S
H79 C57 0.929 . S
Nd80 C82 2.836 . S
Nd80 O100 2.500 . S
Nd80 O101 2.492 . S
Nd80 O102 2.487 . S
Nd80 O103 2.682 . S
Nd80 O104 2.410 . S
Nd80 O109 2.414 . S
Nd80 O111 2.424 . S
Nd81 C91 2.836 . S
Nd81 O103 2.414 . S
Nd81 O105 2.424 . S
Nd81 O106 2.500 . S
Nd81 O107 2.492 . S
Nd81 O108 2.487 . S
Nd81 O109 2.682 . S
Nd81 O110 2.410 . S
C82 Nd80 2.836 . S
C82 C83 1.498 . S
C82 O100 1.258 . S
C82 O101 1.239 . S
C83 C82 1.498 . S
C83 C84 1.366 . S
C83 C88 1.407 . S
C84 C83 1.366 . S
C84 C85 1.392 . S
C84 H112 0.930 . S
C85 C84 1.392 . S
C85 C86 1.398 . S
C85 H113 0.929 . S
C86 C85 1.398 . S
C86 C87 1.352 . S
C87 C86 1.352 . S
C87 C88 1.384 . S
C87 H114 0.930 . S
C88 C83 1.407 . S
C88 C87 1.384 . S
C88 H115 0.929 . S
C89 O102 1.241 . S
C89 O103 1.273 . S
C90 O104 1.251 . S
C90 O105 1.268 . S
C91 Nd81 2.836 . S
C91 C92 1.498 . S
C91 O106 1.258 . S
C91 O107 1.239 . S
C92 C91 1.498 . S
C92 C93 1.366 . S
C92 C97 1.407 . S
C93 C92 1.366 . S
C93 C94 1.392 . S
C93 H116 0.930 . S
C94 C93 1.392 . S
C94 C95 1.398 . S
C94 H117 0.929 . S
C95 C94 1.398 . S
C95 C96 1.352 . S
C96 C95 1.352 . S
C96 C97 1.384 . S
C96 H118 0.930 . S
C97 C92 1.407 . S
C97 C96 1.384 . S
C97 H119 0.929 . S
C98 O108 1.241 . S
C98 O109 1.273 . S
C99 O110 1.251 . S
C99 O111 1.268 . S
O100 Nd80 2.500 . S
O100 C82 1.258 . S
O101 Nd80 2.492 . S
O101 C82 1.239 . S
O102 Nd80 2.487 . S
O102 C89 1.241 . S
O103 Nd80 2.682 . S
O103 Nd81 2.414 . S
O103 C89 1.273 . S
O104 Nd80 2.410 . S
O104 C90 1.251 . S
O105 Nd81 2.424 . S
O105 C90 1.268 . S
O106 Nd81 2.500 . S
O106 C91 1.258 . S
O107 Nd81 2.492 . S
O107 C91 1.239 . S
O108 Nd81 2.487 . S
O108 C98 1.241 . S
O109 Nd80 2.414 . S
O109 Nd81 2.682 . S
O109 C98 1.273 . S
O110 Nd81 2.410 . S
O110 C99 1.251 . S
O111 Nd80 2.424 . S
O111 C99 1.268 . S
H112 C84 0.930 . S
H113 C85 0.929 . S
H114 C87 0.930 . S
H115 C88 0.929 . S
H116 C93 0.930 . S
H117 C94 0.929 . S
H118 C96 0.930 . S
H119 C97 0.929 . S
C120 C121 1.384 . S
C120 H133 0.947 . S
C120 C155 1.382 . S
C121 C120 1.384 . S
C121 C122 1.378 . S
C122 C121 1.378 . S
C122 C123 1.378 . S
C122 H134 0.952 . S
C123 C122 1.378 . S
C123 H135 0.950 . S
C123 C154 1.383 . S
H124 C143 0.947 . S
H125 C144 0.946 . S
H126 C146 0.953 . S
H127 C147 0.945 . S
H128 C149 0.952 . S
H129 C150 0.949 . S
H130 C152 0.950 . S
H131 C153 0.948 . S
H132 C155 0.951 . S
H133 C120 0.947 . S
H134 C122 0.952 . S
H135 C123 0.950 . S
N136 C139 1.382 . S
N136 C141 1.363 1_545 S
N137 C139 1.371 . S
N137 C140 1.372 . S
N138 C140 1.361 1_565 S
N138 C141 1.377 . S
C139 N136 1.382 . S
C139 N137 1.371 . S
C139 C142 1.480 . S
C140 N137 1.372 . S
C140 N138 1.361 1_545 S
C140 C148 1.457 . S
C141 N136 1.363 1_565 S
C141 N138 1.377 . S
C141 C154 1.479 . S
C142 C139 1.480 . S
C142 C143 1.383 . S
C142 C147 1.385 . S
C143 H124 0.947 . S
C143 C142 1.383 . S
C143 C144 1.388 . S
C144 H125 0.946 . S
C144 C143 1.388 . S
C144 C145 1.384 . S
C145 C144 1.384 . S
C145 C146 1.377 . S
C146 H126 0.953 . S
C146 C145 1.377 . S
C146 C147 1.369 . S
C147 H127 0.945 . S
C147 C142 1.385 . S
C147 C146 1.369 . S
C148 C140 1.457 . S
C148 C149 1.372 . S
C148 C153 1.364 1_545 S
C149 H128 0.952 . S
C149 C148 1.372 . S
C149 C150 1.389 . S
C150 H129 0.949 . S
C150 C149 1.389 . S
C150 C151 1.387 . S
C151 C150 1.387 . S
C151 C152 1.372 1_545 S
C152 H130 0.950 . S
C152 C151 1.372 1_565 S
C152 C153 1.379 . S
C153 H131 0.948 . S
C153 C148 1.364 1_565 S
C153 C152 1.379 . S
C154 C123 1.383 . S
C154 C141 1.479 . S
C154 C155 1.398 . S
C155 C120 1.382 . S
C155 H132 0.951 . S
C155 C154 1.398 . S
C156 C157 1.384 . S
C156 H169 0.947 . S
C156 C191 1.382 . S
C157 C156 1.384 . S
C157 C158 1.378 . S
C158 C157 1.378 . S
C158 C159 1.378 . S
C158 H170 0.952 . S
C159 C158 1.378 . S
C159 H171 0.950 . S
C159 C190 1.383 . S
H160 C179 0.947 . S
H161 C180 0.946 . S
H162 C182 0.953 . S
H163 C183 0.945 . S
H164 C185 0.952 . S
H165 C186 0.949 . S
H166 C188 0.950 . S
H167 C189 0.948 . S
H168 C191 0.951 . S
H169 C156 0.947 . S
H170 C158 0.952 . S
H171 C159 0.950 . S
N172 C175 1.382 . S
N172 C177 1.363 . S
N173 C175 1.371 . S
N173 C176 1.372 . S
N174 C176 1.361 . S
N174 C177 1.377 . S
C175 N172 1.382 . S
C175 N173 1.371 . S
C175 C178 1.480 . S
C176 N173 1.372 . S
C176 N174 1.361 . S
C176 C184 1.457 . S
C177 N172 1.363 . S
C177 N174 1.377 . S
C177 C190 1.479 . S
C178 C175 1.480 . S
C178 C179 1.383 . S
C178 C183 1.385 . S
C179 H160 0.947 . S
C179 C178 1.383 . S
C179 C180 1.388 . S
C180 H161 0.946 . S
C180 C179 1.388 . S
C180 C181 1.384 . S
C181 C180 1.384 . S
C181 C182 1.377 . S
C182 H162 0.953 . S
C182 C181 1.377 . S
C182 C183 1.369 . S
C183 H163 0.945 . S
C183 C178 1.385 . S
C183 C182 1.369 . S
C184 C176 1.457 . S
C184 C185 1.372 . S
C184 C189 1.364 . S
C185 H164 0.952 . S
C185 C184 1.372 . S
C185 C186 1.389 . S
C186 H165 0.949 . S
C186 C185 1.389 . S
C186 C187 1.387 . S
C187 C186 1.387 . S
C187 C188 1.372 . S
C188 H166 0.950 . S
C188 C187 1.372 . S
C188 C189 1.379 . S
C189 H167 0.948 . S
C189 C184 1.364 . S
C189 C188 1.379 . S
C190 C159 1.383 . S
C190 C177 1.479 . S
C190 C191 1.398 . S
C191 C156 1.382 . S
C191 H168 0.951 . S
C191 C190 1.398 . S
C192 C193 1.384 . S
C192 H205 0.947 . S
C192 C227 1.382 . S
C193 C192 1.384 . S
C193 C194 1.378 . S
C194 C193 1.378 . S
C194 C195 1.378 . S
C194 H206 0.952 . S
C195 C194 1.378 . S
C195 H207 0.950 . S
C195 C226 1.383 . S
H196 C215 0.947 . S
H197 C216 0.946 . S
H198 C218 0.953 . S
H199 C219 0.945 . S
H200 C221 0.952 . S
H201 C222 0.949 . S
H202 C224 0.950 . S
H203 C225 0.948 . S
H204 C227 0.951 . S
H205 C192 0.947 . S
H206 C194 0.952 . S
H207 C195 0.950 . S
N208 C211 1.382 . S
N208 C213 1.363 1_455 S
N209 C211 1.371 . S
N209 C212 1.372 . S
N210 C212 1.361 1_655 S
N210 C213 1.377 . S
C211 N208 1.382 . S
C211 N209 1.371 . S
C211 C214 1.480 . S
C212 N209 1.372 . S
C212 N210 1.361 1_455 S
C212 C220 1.457 1_556 S
C213 N208 1.363 1_655 S
C213 N210 1.377 . S
C213 C226 1.479 . S
C214 C211 1.480 . S
C214 C215 1.383 . S
C214 C219 1.385 . S
C215 H196 0.947 . S
C215 C214 1.383 . S
C215 C216 1.388 . S
C216 H197 0.946 . S
C216 C215 1.388 . S
C216 C217 1.384 . S
C217 C216 1.384 . S
C217 C218 1.377 . S
C218 H198 0.953 . S
C218 C217 1.377 . S
C218 C219 1.369 . S
C219 H199 0.945 . S
C219 C214 1.385 . S
C219 C218 1.369 . S
C220 C212 1.457 1_554 S
C220 C221 1.372 . S
C220 C225 1.364 1_455 S
C221 H200 0.952 . S
C221 C220 1.372 . S
C221 C222 1.389 . S
C222 H201 0.949 . S
C222 C221 1.389 . S
C222 C223 1.387 . S
C223 C222 1.387 . S
C223 C224 1.372 1_455 S
C224 H202 0.950 . S
C224 C223 1.372 1_655 S
C224 C225 1.379 . S
C225 H203 0.948 . S
C225 C220 1.364 1_655 S
C225 C224 1.379 . S
C226 C195 1.383 . S
C226 C213 1.479 . S
C226 C227 1.398 . S
C227 C192 1.382 . S
C227 H204 0.951 . S
C227 C226 1.398 . S
C228 C229 1.384 . S
C228 H241 0.947 . S
C228 C263 1.382 . S
C229 C228 1.384 . S
C229 C230 1.378 . S
C230 C229 1.378 . S
C230 C231 1.378 . S
C230 H242 0.952 . S
C231 C230 1.378 . S
C231 H243 0.950 . S
C231 C262 1.383 . S
H232 C251 0.947 . S
H233 C252 0.946 . S
H234 C254 0.953 . S
H235 C255 0.945 . S
H236 C257 0.952 . S
H237 C258 0.949 . S
H238 C260 0.950 . S
H239 C261 0.948 . S
H240 C263 0.951 . S
H241 C228 0.947 . S
H242 C230 0.952 . S
H243 C231 0.950 . S
N244 C247 1.382 1_455 S
N244 C249 1.363 . S
N245 C247 1.371 . S
N245 C248 1.372 1_655 S
N246 C248 1.361 . S
N246 C249 1.377 . S
C247 N244 1.382 1_655 S
C247 N245 1.371 . S
C247 C250 1.480 . S
C248 N245 1.372 1_455 S
C248 N246 1.361 . S
C248 C256 1.457 . S
C249 N244 1.363 . S
C249 N246 1.377 . S
C249 C262 1.479 . S
C250 C247 1.480 . S
C250 C251 1.383 . S
C250 C255 1.385 . S
C251 H232 0.947 . S
C251 C250 1.383 . S
C251 C252 1.388 . S
C252 H233 0.946 . S
C252 C251 1.388 . S
C252 C253 1.384 . S
C253 C252 1.384 . S
C253 C254 1.377 . S
C254 H234 0.953 . S
C254 C253 1.377 . S
C254 C255 1.369 . S
C255 H235 0.945 . S
C255 C250 1.385 . S
C255 C254 1.369 . S
C256 C248 1.457 . S
C256 C257 1.372 1_455 S
C256 C261 1.364 . S
C257 H236 0.952 . S
C257 C256 1.372 1_655 S
C257 C258 1.389 . S
C258 H237 0.949 . S
C258 C257 1.389 . S
C258 C259 1.387 1_655 S
C259 C258 1.387 1_455 S
C259 C260 1.372 . S
C260 H238 0.950 . S
C260 C259 1.372 . S
C260 C261 1.379 . S
C261 H239 0.948 . S
C261 C256 1.364 . S
C261 C260 1.379 . S
C262 C231 1.383 . S
C262 C249 1.479 . S
C262 C263 1.398 . S
C263 C228 1.382 . S
C263 H240 0.951 . S
C263 C262 1.398 . S
C264 C265 1.384 . S
C264 H277 0.947 . S
C264 C299 1.382 . S
C265 C264 1.384 . S
C265 C266 1.378 . S
C266 C265 1.378 . S
C266 C267 1.378 . S
C266 H278 0.952 . S
C267 C266 1.378 . S
C267 H279 0.950 . S
C267 C298 1.383 . S
H268 C287 0.947 . S
H269 C288 0.946 . S
H270 C290 0.953 . S
H271 C291 0.945 . S
H272 C293 0.952 . S
H273 C294 0.949 . S
H274 C296 0.950 . S
H275 C297 0.948 . S
H276 C299 0.951 . S
H277 C264 0.947 . S
H278 C266 0.952 . S
H279 C267 0.950 . S
N280 C283 1.382 1_545 S
N280 C285 1.363 . S
N281 C283 1.371 . S
N281 C284 1.372 1_565 S
N282 C284 1.361 . S
N282 C285 1.377 . S
C283 N280 1.382 1_565 S
C283 N281 1.371 . S
C283 C286 1.480 . S
C284 N281 1.372 1_545 S
C284 N282 1.361 . S
C284 C292 1.457 . S
C285 N280 1.363 . S
C285 N282 1.377 . S
C285 C298 1.479 . S
C286 C283 1.480 . S
C286 C287 1.383 . S
C286 C291 1.385 . S
C287 H268 0.947 . S
C287 C286 1.383 . S
C287 C288 1.388 . S
C288 H269 0.946 . S
C288 C287 1.388 . S
C288 C289 1.384 . S
C289 C288 1.384 . S
C289 C290 1.377 . S
C290 H270 0.953 . S
C290 C289 1.377 . S
C290 C291 1.369 . S
C291 H271 0.945 . S
C291 C286 1.385 . S
C291 C290 1.369 . S
C292 C284 1.457 . S
C292 C293 1.372 1_545 S
C292 C297 1.364 . S
C293 H272 0.952 . S
C293 C292 1.372 1_565 S
C293 C294 1.389 . S
C294 H273 0.949 . S
C294 C293 1.389 . S
C294 C295 1.387 . S
C295 C294 1.387 . S
C295 C296 1.372 1_565 S
C296 H274 0.950 . S
C296 C295 1.372 1_545 S
C296 C297 1.379 . S
C297 H275 0.948 . S
C297 C292 1.364 . S
C297 C296 1.379 . S
C298 C267 1.383 . S
C298 C285 1.479 . S
C298 C299 1.398 . S
C299 C264 1.382 . S
C299 H276 0.951 . S
C299 C298 1.398 . S
C300 C301 1.384 . S
C300 H313 0.947 . S
C300 C335 1.382 . S
C301 C300 1.384 . S
C301 C302 1.378 . S
C302 C301 1.378 . S
C302 C303 1.378 . S
C302 H314 0.952 . S
C303 C302 1.378 . S
C303 H315 0.950 . S
C303 C334 1.383 . S
H304 C323 0.947 . S
H305 C324 0.946 . S
H306 C326 0.953 . S
H307 C327 0.945 . S
H308 C329 0.952 1_554 S
H309 C330 0.949 . S
H310 C332 0.950 . S
H311 C333 0.948 1_554 S
H312 C335 0.951 . S
H313 C300 0.947 . S
H314 C302 0.952 . S
H315 C303 0.950 . S
N316 C319 1.382 . S
N316 C321 1.363 . S
N317 C319 1.371 . S
N317 C320 1.372 . S
N318 C320 1.361 . S
N318 C321 1.377 . S
C319 N316 1.382 . S
C319 N317 1.371 . S
C319 C322 1.480 . S
C320 N317 1.372 . S
C320 N318 1.361 . S
C320 C328 1.457 . S
C321 N316 1.363 . S
C321 N318 1.377 . S
C321 C334 1.479 . S
C322 C319 1.480 . S
C322 C323 1.383 . S
C322 C327 1.385 . S
C323 H304 0.947 . S
C323 C322 1.383 . S
C323 C324 1.388 . S
C324 H305 0.946 . S
C324 C323 1.388 . S
C324 C325 1.384 . S
C325 C324 1.384 . S
C325 C326 1.377 . S
C326 H306 0.953 . S
C326 C325 1.377 . S
C326 C327 1.369 . S
C327 H307 0.945 . S
C327 C322 1.385 . S
C327 C326 1.369 . S
C328 C320 1.457 . S
C328 C329 1.372 1_554 S
C328 C333 1.364 1_554 S
C329 H308 0.952 1_556 S
C329 C328 1.372 1_556 S
C329 C330 1.389 . S
C330 H309 0.949 . S
C330 C329 1.389 . S
C330 C331 1.387 . S
C331 C330 1.387 . S
C331 C332 1.372 . S
C332 H310 0.950 . S
C332 C331 1.372 . S
C332 C333 1.379 . S
C333 H311 0.948 1_556 S
C333 C328 1.364 1_556 S
C333 C332 1.379 . S
C334 C303 1.383 . S
C334 C321 1.479 . S
C334 C335 1.398 . S
C335 C300 1.382 . S
C335 H312 0.951 . S
C335 C334 1.398 . S
C10 C325 4.968 . S
C55 C253 1.841 . S
C90 C289 2.805 . S
C19 C301 4.939 . S
C229 C46 1.712 . S
C265 C99 3.372 . S
C50 C181 2.733 . S
C95 C193 3.217 . S
C6 C121 1.503 . S
C157 C59 3.234 . S
C217 C86 1.878 . S
C15 C145 2.633 . S
C223 C18 1.581 . S
C49 C151 1.458 . S
C98 C187 1.136 . S
C295 C58 1.156 1_565 S
C331 C89 2.054 . S
C9 C259 1.452 . S
