# Generated by pormake.
# Topology nom, (4,4)-cn, num edge types: 1
# Building blocks:
#     Node 0, Type 0, BuildingBlock: NAHDIM_clean_linker_0, # of connection points: 4
#     Node 1, Type 0, BuildingBlock: NAHDIM_clean_linker_0, # of connection points: 4
#     Node 2, Type 0, BuildingBlock: NAHDIM_clean_linker_0, # of connection points: 4
#     Node 3, Type 0, BuildingBlock: NAHDIM_clean_linker_0, # of connection points: 4
#     Node 4, Type 0, BuildingBlock: NAHDIM_clean_linker_0, # of connection points: 4
#     Node 5, Type 0, BuildingBlock: NAHDIM_clean_linker_0, # of connection points: 4
#     Node 6, Type 1, BuildingBlock: CEKHIL_clean_sbu_0, # of connection points: 4
#     Node 7, Type 1, BuildingBlock: CEKHIL_clean_sbu_0, # of connection points: 4
#     Node 8, Type 1, BuildingBlock: CEKHIL_clean_sbu_0, # of connection points: 4
#     Node 9, Type 1, BuildingBlock: CEKHIL_clean_sbu_0, # of connection points: 4
#     Node 10, Type 1, BuildingBlock: CEKHIL_clean_sbu_0, # of connection points: 4
#     Node 11, Type 1, BuildingBlock: CEKHIL_clean_sbu_0, # of connection points: 4
#     Edge 12, Type (0, 1), BuildingBlock: AJUNOK_clean_linker_0, # of connection points: 2
#     Edge 13, Type (0, 1), BuildingBlock: AJUNOK_clean_linker_0, # of connection points: 2
#     Edge 14, Type (0, 1), BuildingBlock: AJUNOK_clean_linker_0, # of connection points: 2
#     Edge 15, Type (0, 1), BuildingBlock: AJUNOK_clean_linker_0, # of connection points: 2
#     Edge 16, Type (0, 1), BuildingBlock: AJUNOK_clean_linker_0, # of connection points: 2
#     Edge 17, Type (0, 1), BuildingBlock: AJUNOK_clean_linker_0, # of connection points: 2
#     Edge 18, Type (0, 1), BuildingBlock: AJUNOK_clean_linker_0, # of connection points: 2
#     Edge 19, Type (0, 1), BuildingBlock: AJUNOK_clean_linker_0, # of connection points: 2
#     Edge 20, Type (0, 1), BuildingBlock: AJUNOK_clean_linker_0, # of connection points: 2
#     Edge 21, Type (0, 1), BuildingBlock: AJUNOK_clean_linker_0, # of connection points: 2
#     Edge 22, Type (0, 1), BuildingBlock: AJUNOK_clean_linker_0, # of connection points: 2
#     Edge 23, Type (0, 1), BuildingBlock: AJUNOK_clean_linker_0, # of connection points: 2
#     Edge 24, Type (0, 1), BuildingBlock: AJUNOK_clean_linker_0, # of connection points: 2
#     Edge 25, Type (0, 1), BuildingBlock: AJUNOK_clean_linker_0, # of connection points: 2
#     Edge 26, Type (0, 1), BuildingBlock: AJUNOK_clean_linker_0, # of connection points: 2
#     Edge 27, Type (0, 1), BuildingBlock: AJUNOK_clean_linker_0, # of connection points: 2
#     Edge 28, Type (0, 1), BuildingBlock: AJUNOK_clean_linker_0, # of connection points: 2
#     Edge 29, Type (0, 1), BuildingBlock: AJUNOK_clean_linker_0, # of connection points: 2
#     Edge 30, Type (0, 1), BuildingBlock: AJUNOK_clean_linker_0, # of connection points: 2
#     Edge 31, Type (0, 1), BuildingBlock: AJUNOK_clean_linker_0, # of connection points: 2
#     Edge 32, Type (0, 1), BuildingBlock: AJUNOK_clean_linker_0, # of connection points: 2
#     Edge 33, Type (0, 1), BuildingBlock: AJUNOK_clean_linker_0, # of connection points: 2
#     Edge 34, Type (0, 1), BuildingBlock: AJUNOK_clean_linker_0, # of connection points: 2
#     Edge 35, Type (0, 1), BuildingBlock: AJUNOK_clean_linker_0, # of connection points: 2
# Relax obj value: 0.044
# Max RMSD: 0.130
# Mean RMSD: 0.097
data_MOF--net-nom--node1-CEKHIL_clean_sbu_0--node2-NAHDIM_clean_linker_0--edge1-AJUNOK_clean_linker_0
_symmetry_space_group_name_H-M    P1
_symmetry_Int_Tables_number       1
_symmetry_cell_setting            triclinic
loop_
_symmetry_equiv_pos_as_xyz
'x, y, z'
_cell_length_a     47.604466
_cell_length_b     47.023477
_cell_length_c     56.891806
_cell_angle_alpha  90.143561
_cell_angle_beta   90.115067
_cell_angle_gamma 121.30418
loop_
_atom_site_label
_atom_site_type_symbol
_atom_site_fract_x
_atom_site_fract_y
_atom_site_fract_z
_atom_type_partial_charge
C0 C 0.19097 0.66074 0.20651 0.0
C1 C 0.2047 0.65636 0.22975 0.0
C2 C 0.15841 0.63355 0.2569 0.0
C3 C 0.15137 0.60067 0.25872 0.0
C4 C 0.12064 0.57522 0.26678 0.0
C5 C 0.09671 0.58293 0.27327 0.0
C6 C 0.1042 0.61624 0.27229 0.0
C7 C 0.13518 0.64119 0.26435 0.0
C8 C 0.11365 0.54009 0.26833 0.0
C9 C 0.07931 0.62541 0.27925 0.0
C10 C 0.94291 0.49348 0.1575 0.0
C11 C 0.91298 0.47199 0.17314 0.0
C12 C 0.94086 0.47183 0.20956 0.0
C13 C 0.95096 0.50441 0.21678 0.0
C14 C 0.97217 0.51908 0.23605 0.0
C15 C 0.98382 0.50099 0.2482 0.0
C16 C 0.97355 0.46813 0.2411 0.0
C17 C 0.95186 0.45386 0.222 0.0
C18 C 0.98239 0.5541 0.24328 0.0
C19 C 0.98578 0.44825 0.2535 0.0
C20 C 0.86328 0.44317 0.37607 0.0
C21 C 0.87874 0.47623 0.36857 0.0
C22 C 0.91291 0.49503 0.3656 0.0
C23 C 0.93167 0.47997 0.36963 0.0
C24 C 0.91615 0.44699 0.3782 0.0
C25 C 0.88204 0.42916 0.38171 0.0
C26 C 0.92874 0.53065 0.3575 0.0
C27 C 0.93534 0.43019 0.38278 0.0
C28 C 0.17362 0.5953 0.42977 0.0
C29 C 0.14812 0.57726 0.44914 0.0
C30 C 0.0978 0.56853 0.42993 0.0
C31 C 0.0797 0.58376 0.42573 0.0
C32 C 0.05523 0.57171 0.40829 0.0
C33 C 0.04816 0.54312 0.39519 0.0
C34 C 0.06529 0.52663 0.40009 0.0
C35 C 0.09027 0.53977 0.41713 0.0
C36 C 0.0375 0.58995 0.40347 0.0
C37 C 0.05755 0.49531 0.38708 0.0
C38 C 0.0634 0.5562 0.28039 0.0
C39 C 0.0402 0.53927 0.26266 0.0
C40 C 0.00725 0.51681 0.26802 0.0
C41 C 0.99697 0.51122 0.29172 0.0
C42 C 0.96373 0.49024 0.29771 0.0
C43 C 0.95383 0.48559 0.32107 0.0
C44 C 0.97682 0.50163 0.33935 0.0
C45 C 0.96691 0.4979 0.36312 0.0
C46 C 0.99055 0.51213 0.38095 0.0
C47 C 0.02402 0.53117 0.3756 0.0
C48 C 0.0342 0.53746 0.35188 0.0
C49 C 0.06743 0.55875 0.34587 0.0
C50 C 0.07711 0.56493 0.32246 0.0
C51 C 0.054 0.54958 0.30421 0.0
C52 C 0.02054 0.52744 0.30987 0.0
C53 C 0.01052 0.5221 0.33372 0.0
C54 C 0.79037 0.38353 0.35239 0.0
C55 C 0.80842 0.42008 0.36012 0.0
O56 O 0.18737 0.65864 0.24842 0.0
O57 O 0.12219 0.58251 0.44633 0.0
O58 O 0.83021 0.42426 0.37788 0.0
O59 O 0.92092 0.45689 0.19066 0.0
H60 H 0.20162 0.63135 0.22863 0.0
H61 H 0.16608 0.63867 0.20331 0.0
H62 H 0.18858 0.683 0.20707 0.0
H63 H 0.207 0.6629 0.1916 0.0
H64 H 0.1698 0.5947 0.25425 0.0
H65 H 0.14113 0.66674 0.26329 0.0
H66 H 0.09358 0.52389 0.25589 0.0
H67 H 0.13558 0.5385 0.26414 0.0
H68 H 0.10511 0.5302 0.2863 0.0
H69 H 0.08846 0.65219 0.27636 0.0
H70 H 0.05627 0.6103 0.26902 0.0
H71 H 0.07314 0.61973 0.29813 0.0
H72 H 0.90469 0.48792 0.18125 0.0
H73 H 0.93624 0.5049 0.14314 0.0
H74 H 0.96312 0.51391 0.16787 0.0
H75 H 0.95215 0.47823 0.14963 0.0
H76 H 0.94256 0.51869 0.20753 0.0
H77 H 0.94387 0.42873 0.21636 0.0
H78 H 0.00877 0.57111 0.23909 0.0
H79 H 0.96792 0.56316 0.23407 0.0
H80 H 0.97944 0.55542 0.26253 0.0
H81 H 0.97755 0.42407 0.24463 0.0
H82 H 0.01307 0.46274 0.2543 0.0
H83 H 0.9766 0.44329 0.27184 0.0
H84 H 0.82184 0.43539 0.3445 0.0
H85 H 0.86401 0.48718 0.36495 0.0
H86 H 0.86966 0.40368 0.38786 0.0
H87 H 0.93482 0.53205 0.33855 0.0
H88 H 0.91219 0.54052 0.35985 0.0
H89 H 0.95198 0.54685 0.36728 0.0
H90 H 0.91922 0.4037 0.38791 0.0
H91 H 0.94931 0.43138 0.36682 0.0
H92 H 0.95343 0.44349 0.39711 0.0
H93 H 0.13885 0.55022 0.4483 0.0
H94 H 0.19461 0.59145 0.43199 0.0
H95 H 0.1624 0.58541 0.41225 0.0
H96 H 0.18298 0.62242 0.43027 0.0
H97 H 0.08548 0.60577 0.43578 0.0
H98 H 0.10357 0.52725 0.42022 0.0
H99 H 0.03958 0.59656 0.38456 0.0
H100 H 0.01096 0.57346 0.40745 0.0
H101 H 0.04736 0.61304 0.41415 0.0
H102 H 0.0691 0.48256 0.39552 0.0
H103 H 0.03056 0.47769 0.38618 0.0
H104 H 0.0668 0.50169 0.3688 0.0
H105 H 0.04769 0.54441 0.2444 0.0
H106 H 0.94494 0.47742 0.2844 0.0
H107 H 0.9279 0.46918 0.3246 0.0
H108 H 0.98283 0.50828 0.39918 0.0
H109 H 0.08628 0.57128 0.35919 0.0
H110 H 0.10295 0.58175 0.31884 0.0
H111 H 0.77555 0.36708 0.36711 0.0
H112 H 0.77389 0.37917 0.3372 0.0
H113 H 0.80848 0.37667 0.34691 0.0
C114 C 0.40655 0.81628 0.59987 0.0
C115 C 0.39349 0.80985 0.57454 0.0
C116 C 0.40759 0.86457 0.55933 0.0
C117 C 0.44164 0.8776 0.55742 0.0
C118 C 0.46264 0.90982 0.54886 0.0
C119 C 0.44947 0.92953 0.54235 0.0
C120 C 0.4153 0.91657 0.5442 0.0
C121 C 0.39479 0.88415 0.55262 0.0
C122 C 0.49901 0.92297 0.54705 0.0
C123 C 0.40055 0.93712 0.53752 0.0
C124 C 0.57719 0.15072 0.65338 0.0
C125 C 0.55625 0.13185 0.63287 0.0
C126 C 0.54934 0.08889 0.60499 0.0
C127 C 0.52235 0.0864 0.5929 0.0
C128 C 0.50845 0.06496 0.5735 0.0
C129 C 0.52246 0.04647 0.56563 0.0
C130 C 0.55018 0.04967 0.5774 0.0
C131 C 0.563 0.07058 0.5971 0.0
C132 C 0.47841 0.06155 0.5617 0.0
C133 C 0.56595 0.03055 0.56944 0.0
C134 C 0.57159 0.16051 0.42834 0.0
C135 C 0.53761 0.14007 0.43066 0.0
C136 C 0.5233 0.10703 0.43805 0.0
C137 C 0.54359 0.09388 0.44257 0.0
C138 C 0.57804 0.11426 0.44001 0.0
C139 C 0.59179 0.14756 0.43318 0.0
C140 C 0.4865 0.08622 0.44109 0.0
C141 C 0.60026 0.10085 0.4446 0.0
C142 C 0.44015 0.85472 0.3742 0.0
C143 C 0.45454 0.88367 0.35672 0.0
C144 C 0.46016 0.92934 0.38176 0.0
C145 C 0.44496 0.94696 0.38771 0.0
C146 C 0.45651 0.96977 0.40643 0.0
C147 C 0.48455 0.97561 0.41925 0.0
C148 C 0.50048 0.95826 0.4131 0.0
C149 C 0.48796 0.93506 0.39456 0.0
C150 C 0.43888 0.98783 0.41224 0.0
C151 C 0.53088 0.96439 0.42603 0.0
C152 C 0.47164 0.96425 0.53459 0.0
C153 C 0.48618 0.98882 0.55193 0.0
C154 C 0.50702 0.02222 0.54606 0.0
C155 C 0.51306 0.03163 0.52216 0.0
C156 C 0.53292 0.06515 0.51558 0.0
C157 C 0.53776 0.07418 0.492 0.0
C158 C 0.52398 0.04991 0.47413 0.0
C159 C 0.52844 0.05882 0.45014 0.0
C160 C 0.5159 0.0341 0.4328 0.0
C161 C 0.49762 0.0004 0.43871 0.0
C162 C 0.49122 0.99101 0.46262 0.0
C163 C 0.47122 0.95749 0.46922 0.0
C164 C 0.46474 0.94861 0.49278 0.0
C165 C 0.47822 0.97291 0.51063 0.0
C166 C 0.49875 0.0068 0.5044 0.0
C167 C 0.50484 0.01589 0.48037 0.0
C168 C 0.63379 0.21883 0.39934 0.0
C169 C 0.61579 0.21849 0.42177 0.0
O170 O 0.38626 0.83359 0.56772 0.0
O171 O 0.44713 0.90734 0.36358 0.0
O172 O 0.58351 0.19227 0.42113 0.0
O173 O 0.56264 0.10811 0.62447 0.0
H174 H 0.4126 0.81082 0.56279 0.0
H175 H 0.4298 0.84075 0.60122 0.0
H176 H 0.38854 0.81639 0.61219 0.0
H177 H 0.41166 0.79675 0.6054 0.0
H178 H 0.45225 0.86313 0.56272 0.0
H179 H 0.36857 0.87397 0.55418 0.0
H180 H 0.51254 0.94379 0.55971 0.0
H181 H 0.50505 0.90358 0.55086 0.0
H182 H 0.50791 0.93292 0.52915 0.0
H183 H 0.37353 0.92352 0.54024 0.0
H184 H 0.41209 0.96038 0.54813 0.0
H185 H 0.40575 0.94438 0.51875 0.0
H186 H 0.52954 0.12221 0.63529 0.0
H187 H 0.55954 0.14415 0.66842 0.0
H188 H 0.5881 0.13612 0.66039 0.0
H189 H 0.60594 0.19925 0.64064 0.0
H190 H 0.51157 0.10054 0.59875 0.0
H191 H 0.58387 0.07276 0.6065 0.0
H192 H 0.48441 0.07061 0.54334 0.0
H193 H 0.45848 0.03494 0.56097 0.0
H194 H 0.46911 0.07585 0.57095 0.0
H195 H 0.58991 0.03929 0.57832 0.0
H196 H 0.54929 0.00377 0.57347 0.0
H197 H 0.56985 0.03286 0.55014 0.0
H198 H 0.62853 0.21587 0.43727 0.0
H199 H 0.52228 0.15032 0.42691 0.0
H200 H 0.61818 0.16303 0.43148 0.0
H201 H 0.48047 0.07529 0.45898 0.0
H202 H 0.47448 0.10087 0.43841 0.0
H203 H 0.47601 0.06536 0.42828 0.0
H204 H 0.62641 0.11936 0.44062 0.0
H205 H 0.59838 0.0935 0.46332 0.0
H206 H 0.59226 0.07821 0.43376 0.0
H207 H 0.48168 0.89526 0.35598 0.0
H208 H 0.44565 0.83552 0.36847 0.0
H209 H 0.45107 0.86361 0.39192 0.0
H210 H 0.41307 0.84312 0.37554 0.0
H211 H 0.42366 0.94254 0.37767 0.0
H212 H 0.5002 0.9218 0.39016 0.0
H213 H 0.43615 0.98897 0.43154 0.0
H214 H 0.45361 0.01372 0.40565 0.0
H215 H 0.41414 0.97583 0.40393 0.0
H216 H 0.54236 0.95159 0.41757 0.0
H217 H 0.54928 0.99149 0.42689 0.0
H218 H 0.52433 0.95527 0.44435 0.0
H219 H 0.48129 0.9818 0.5703 0.0
H220 H 0.54446 0.08483 0.52858 0.0
H221 H 0.55273 0.10042 0.48797 0.0
H222 H 0.51975 0.04123 0.41442 0.0
H223 H 0.46011 0.93775 0.45623 0.0
H224 H 0.44905 0.92245 0.49685 0.0
H225 H 0.62136 0.22103 0.3835 0.0
H226 H 0.65961 0.24013 0.3998 0.0
H227 H 0.63427 0.19559 0.3977 0.0
C228 C 0.59375 0.39869 0.76162 0.0
C229 C 0.59158 0.3891 0.7356 0.0
C230 C 0.5525 0.40292 0.71887 0.0
C231 C 0.574 0.43771 0.71913 0.0
C232 C 0.56336 0.45895 0.71164 0.0
C233 C 0.53049 0.44523 0.7041 0.0
C234 C 0.50878 0.41031 0.70381 0.0
C235 C 0.52022 0.38962 0.71103 0.0
C236 C 0.58715 0.49612 0.71202 0.0
C237 C 0.47338 0.39489 0.6962 0.0
C238 C 0.47442 0.51556 0.82569 0.0
C239 C 0.45514 0.52979 0.8143 0.0
C240 C 0.47581 0.53744 0.7739 0.0
C241 C 0.45292 0.50561 0.7651 0.0
C242 C 0.45865 0.49425 0.74389 0.0
C243 C 0.48805 0.51487 0.73144 0.0
C244 C 0.51066 0.5473 0.73985 0.0
C245 C 0.50391 0.55834 0.76082 0.0
C246 C 0.43362 0.45985 0.73507 0.0
C247 C 0.54249 0.56979 0.72716 0.0
C248 C 0.42586 0.57552 0.60322 0.0
C249 C 0.40836 0.54211 0.60996 0.0
C250 C 0.42454 0.5246 0.61313 0.0
C251 C 0.45909 0.54137 0.61018 0.0
C252 C 0.47657 0.57488 0.60256 0.0
C253 C 0.4595 0.59139 0.59877 0.0
C254 C 0.40477 0.48845 0.62018 0.0
C255 C 0.51334 0.59353 0.59913 0.0
C256 C 0.60745 0.45652 0.54953 0.0
C257 C 0.59141 0.46405 0.52899 0.0
C258 C 0.54604 0.46471 0.54931 0.0
C259 C 0.5125 0.44546 0.55435 0.0
C260 C 0.49818 0.45568 0.57132 0.0
C261 C 0.51798 0.48616 0.58332 0.0
C262 C 0.55163 0.50657 0.57754 0.0
C263 C 0.56538 0.49561 0.56067 0.0
C264 C 0.46218 0.43346 0.57699 0.0
C265 C 0.57326 0.53959 0.58969 0.0
C266 C 0.5184 0.46746 0.69756 0.0
C267 C 0.50936 0.48106 0.7157 0.0
C268 C 0.49658 0.50127 0.71099 0.0
C269 C 0.49196 0.50764 0.68748 0.0
C270 C 0.47791 0.52673 0.68208 0.0
C271 C 0.47321 0.53251 0.65883 0.0
C272 C 0.48241 0.51942 0.64011 0.0
C273 C 0.47703 0.52444 0.61641 0.0
C274 C 0.48832 0.51286 0.59825 0.0
C275 C 0.50431 0.49565 0.60314 0.0
C276 C 0.50808 0.48859 0.62668 0.0
C277 C 0.52237 0.46967 0.63213 0.0
C278 C 0.52576 0.46267 0.65533 0.0
C279 C 0.51538 0.47468 0.67395 0.0
C280 C 0.50162 0.49443 0.66889 0.0
C281 C 0.49736 0.50081 0.64521 0.0
C282 C 0.41406 0.6341 0.62686 0.0
C283 C 0.39406 0.59757 0.61918 0.0
O284 O 0.56154 0.38131 0.72621 0.0
O285 O 0.55858 0.45223 0.53374 0.0
O286 O 0.41066 0.59292 0.60106 0.0
O287 O 0.47196 0.54883 0.7949 0.0
H288 H 0.61176 0.41043 0.72591 0.0
H289 H 0.59206 0.42123 0.76359 0.0
H290 H 0.57347 0.37825 0.77182 0.0
H291 H 0.61764 0.40427 0.76919 0.0
H292 H 0.59904 0.4487 0.72526 0.0
H293 H 0.50382 0.36282 0.71092 0.0
H294 H 0.57946 0.50762 0.72565 0.0
H295 H 0.61273 0.50272 0.71592 0.0
H296 H 0.58679 0.50705 0.69482 0.0
H297 H 0.45914 0.36744 0.69843 0.0
H298 H 0.46138 0.40573 0.70653 0.0
H299 H 0.47236 0.40061 0.67742 0.0
H300 H 0.43057 0.50899 0.80884 0.0
H301 H 0.46138 0.50083 0.84152 0.0
H302 H 0.47685 0.49884 0.81313 0.0
H303 H 0.49945 0.53593 0.83088 0.0
H304 H 0.43055 0.48939 0.77456 0.0
H305 H 0.52125 0.58296 0.76763 0.0
H306 H 0.44357 0.44324 0.73714 0.0
H307 H 0.41005 0.44887 0.74481 0.0
H308 H 0.42866 0.46064 0.71607 0.0
H309 H 0.55787 0.59398 0.73637 0.0
H310 H 0.55681 0.55731 0.72552 0.0
H311 H 0.53718 0.57469 0.70912 0.0
H312 H 0.392 0.58212 0.63468 0.0
H313 H 0.38208 0.52989 0.61278 0.0
H314 H 0.47254 0.61718 0.59325 0.0
H315 H 0.40843 0.48627 0.6392 0.0
H316 H 0.37805 0.4775 0.61696 0.0
H317 H 0.41307 0.47368 0.61038 0.0
H318 H 0.52357 0.62028 0.59523 0.0
H319 H 0.5256 0.59154 0.61514 0.0
H320 H 0.51938 0.58223 0.58433 0.0
H321 H 0.60448 0.49136 0.52607 0.0
H322 H 0.63358 0.46546 0.5455 0.0
H323 H 0.60687 0.46931 0.56578 0.0
H324 H 0.59425 0.42932 0.55295 0.0
H325 H 0.4977 0.42184 0.54535 0.0
H326 H 0.59127 0.51116 0.55677 0.0
H327 H 0.45937 0.42593 0.59573 0.0
H328 H 0.44937 0.44735 0.57446 0.0
H329 H 0.45002 0.4107 0.56584 0.0
H330 H 0.59799 0.55408 0.58156 0.0
H331 H 0.56148 0.5547 0.58917 0.0
H332 H 0.57634 0.53527 0.60844 0.0
H333 H 0.51221 0.47571 0.73381 0.0
H334 H 0.47023 0.53725 0.69577 0.0
H335 H 0.46232 0.54745 0.65574 0.0
H336 H 0.48477 0.51743 0.58012 0.0
H337 H 0.53079 0.45975 0.61852 0.0
H338 H 0.53674 0.44782 0.65849 0.0
H339 H 0.4162 0.65063 0.61216 0.0
H340 H 0.40234 0.63867 0.64209 0.0
H341 H 0.43917 0.6406 0.63224 0.0
C342 C 0.21106 0.59091 0.91338 0.0
C343 C 0.21162 0.57729 0.8889 0.0
C344 C 0.15305 0.5381 0.88058 0.0
C345 C 0.14417 0.56226 0.8783 0.0
C346 C 0.11144 0.55292 0.87392 0.0
C347 C 0.08722 0.51887 0.87128 0.0
C348 C 0.09618 0.49457 0.87297 0.0
C349 C 0.12895 0.50455 0.87781 0.0
C350 C 0.10271 0.57944 0.87202 0.0
C351 C 0.07112 0.45805 0.86971 0.0
C352 C 0.8618 0.39003 0.98037 0.0
C353 C 0.88652 0.3988 0.96139 0.0
C354 C 0.92548 0.44482 0.9368 0.0
C355 C 0.93893 0.42703 0.9269 0.0
C356 C 0.96323 0.44126 0.90958 0.0
C357 C 0.97502 0.47428 0.90224 0.0
C358 C 0.96286 0.49294 0.91298 0.0
C359 C 0.93797 0.47781 0.92999 0.0
C360 C 0.97594 0.42066 0.8989 0.0
C361 C 0.97542 0.52846 0.90594 0.0
C362 C 0.84459 0.43128 0.78223 0.0
C363 C 0.85591 0.40988 0.78774 0.0
C364 C 0.88971 0.42179 0.78843 0.0
C365 C 0.91247 0.45598 0.78425 0.0
C366 C 0.90095 0.47713 0.77751 0.0
C367 C 0.86702 0.46424 0.77619 0.0
C368 C 0.901 0.39805 0.79445 0.0
C369 C 0.92439 0.51354 0.77245 0.0
C370 C 0.0618 0.47677 0.66399 0.0
C371 C 0.08949 0.50577 0.67796 0.0
C372 C 0.06082 0.51479 0.71068 0.0
C373 C 0.05121 0.48513 0.72285 0.0
C374 C 0.03255 0.47736 0.74352 0.0
C375 C 0.024 0.50001 0.75239 0.0
C376 C 0.03448 0.53028 0.74051 0.0
C377 C 0.05254 0.53709 0.71971 0.0
C378 C 0.02158 0.44476 0.7557 0.0
C379 C 0.02623 0.55524 0.74961 0.0
C380 C 0.05259 0.50861 0.86636 0.0
C381 C 0.03103 0.49975 0.88537 0.0
C382 C 0.99761 0.48777 0.88181 0.0
C383 C 0.98537 0.48489 0.8587 0.0
C384 C 0.9519 0.47284 0.85449 0.0
C385 C 0.93979 0.46886 0.83174 0.0
C386 C 0.96047 0.47593 0.81223 0.0
C387 C 0.94797 0.47019 0.78902 0.0
C388 C 0.96924 0.47798 0.77001 0.0
C389 C 0.00295 0.49156 0.77352 0.0
C390 C 0.01586 0.49703 0.79661 0.0
C391 C 0.04956 0.51027 0.8008 0.0
C392 C 0.06173 0.51434 0.82362 0.0
C393 C 0.04075 0.50578 0.84313 0.0
C394 C 0.00693 0.49354 0.83931 0.0
C395 C 0.99444 0.48894 0.81603 0.0
C396 C 0.76769 0.41186 0.80635 0.0
C397 C 0.78933 0.39846 0.79834 0.0
O398 O 0.18424 0.54583 0.88557 0.0
O399 O 0.07753 0.52288 0.69006 0.0
O400 O 0.81223 0.42099 0.78264 0.0
O401 O 0.90047 0.43088 0.95268 0.0
H402 H 0.2118 0.59442 0.87536 0.0
H403 H 0.18951 0.5938 0.91532 0.0
H404 H 0.20975 0.5739 0.92742 0.0
H405 H 0.23356 0.61577 0.9161 0.0
H406 H 0.1624 0.58844 0.88001 0.0
H407 H 0.13598 0.4861 0.87943 0.0
H408 H 0.08319 0.5745 0.8849 0.0
H409 H 0.12419 0.60483 0.87524 0.0
H410 H 0.09275 0.57866 0.85421 0.0
H411 H 0.08248 0.44254 0.86988 0.0
H412 H 0.05278 0.44959 0.88404 0.0
H413 H 0.0578 0.45391 0.85281 0.0
H414 H 0.87836 0.37965 0.9472 0.0
H415 H 0.88438 0.3834 0.00971 0.0
H416 H 0.85449 0.40928 0.97971 0.0
H417 H 0.8379 0.36939 0.97286 0.0
H418 H 0.93024 0.40174 0.93227 0.0
H419 H 0.92787 0.49158 0.93787 0.0
H420 H 0.97513 0.42132 0.87941 0.0
H421 H 0.00194 0.43134 0.90427 0.0
H422 H 0.9617 0.39428 0.90464 0.0
H423 H 0.9669 0.54097 0.91808 0.0
H424 H 0.00272 0.54283 0.90558 0.0
H425 H 0.96661 0.52889 0.88794 0.0
H426 H 0.80197 0.39673 0.81432 0.0
H427 H 0.8384 0.38398 0.79158 0.0
H428 H 0.85782 0.48026 0.77145 0.0
H429 H 0.90874 0.40145 0.81317 0.0
H430 H 0.88109 0.37169 0.79185 0.0
H431 H 0.92245 0.40312 0.78355 0.0
H432 H 0.91141 0.52723 0.76967 0.0
H433 H 0.94217 0.52548 0.78717 0.0
H434 H 0.93861 0.51597 0.75637 0.0
H435 H 0.10029 0.49606 0.69064 0.0
H436 H 0.07159 0.46339 0.65409 0.0
H437 H 0.04231 0.45872 0.67593 0.0
H438 H 0.05047 0.48598 0.65139 0.0
H439 H 0.05766 0.4677 0.71623 0.0
H440 H 0.0602 0.55996 0.71025 0.0
H441 H 0.03274 0.44966 0.77351 0.0
H442 H 0.99446 0.43069 0.7579 0.0
H443 H 0.02864 0.42899 0.74586 0.0
H444 H 0.03932 0.57912 0.73986 0.0
H445 H -0.00062 0.54478 0.74787 0.0
H446 H 0.03262 0.56032 0.76856 0.0
H447 H 0.04015 0.50117 0.90309 0.0
H448 H 0.93455 0.46621 0.86871 0.0
H449 H 0.91385 0.45971 0.82971 0.0
H450 H 0.95946 0.47355 0.75225 0.0
H451 H 0.06682 0.51719 0.78647 0.0
H452 H 0.0878 0.52413 0.82575 0.0
H453 H 0.75392 0.41366 0.79119 0.0
H454 H 0.74989 0.39542 0.8199 0.0
H455 H 0.78326 0.43705 0.81417 0.0
C456 C 0.42014 0.81524 0.89514 0.0
C457 C 0.43378 0.81358 0.91921 0.0
C458 C 0.48013 0.87025 0.92693 0.0
C459 C 0.46096 0.88461 0.93095 0.0
C460 C 0.47567 0.91811 0.9375 0.0
C461 C 0.51021 0.93773 0.93999 0.0
C462 C 0.52966 0.92362 0.93564 0.0
C463 C 0.51428 0.88996 0.92917 0.0
C464 C 0.45426 0.93255 0.94189 0.0
C465 C 0.56658 0.94403 0.93809 0.0
C466 C 0.59121 0.14841 0.82481 0.0
C467 C 0.57143 0.12743 0.84496 0.0
C468 C 0.57845 0.10074 0.87949 0.0
C469 C 0.60111 0.09737 0.89291 0.0
C470 C 0.59084 0.07446 0.91138 0.0
C471 C 0.55697 0.05477 0.91675 0.0
C472 C 0.53383 0.05824 0.90339 0.0
C473 C 0.54478 0.08111 0.8848 0.0
C474 C 0.6162 0.07109 0.92502 0.0
C475 C 0.49756 0.0377 0.90873 0.0
C476 C 0.58013 0.16636 0.04475 0.0
C477 C 0.60532 0.16094 0.03813 0.0
C478 C 0.59923 0.12851 0.03589 0.0
C479 C 0.56692 0.10113 0.03935 0.0
C480 C 0.54198 0.10666 0.04733 0.0
C481 C 0.54918 0.13938 0.05037 0.0
C482 C 0.62694 0.12363 0.02872 0.0
C483 C 0.50737 0.07813 0.05155 0.0
C484 C 0.51164 0.85473 0.09855 0.0
C485 C 0.50008 0.87879 0.10456 0.0
C486 C 0.53095 0.93706 0.09295 0.0
C487 C 0.56235 0.9603 0.08488 0.0
C488 C 0.56727 0.98569 0.06943 0.0
C489 C 0.54007 0.9881 0.06233 0.0
C490 C 0.50863 0.96617 0.07188 0.0
C491 C 0.50437 0.94082 0.08713 0.0
C492 C 0.60123 0.00903 0.05987 0.0
C493 C 0.47934 0.96877 0.06525 0.0
C494 C 0.52567 0.9729 0.94746 0.0
C495 C 0.53431 0.99696 0.93009 0.0
C496 C 0.54589 0.03009 0.93603 0.0
C497 C 0.54802 0.03937 0.95992 0.0
C498 C 0.55684 0.07179 0.96648 0.0
C499 C 0.55932 0.08073 0.99004 0.0
C500 C 0.55428 0.05796 0.00798 0.0
C501 C 0.55829 0.06725 0.03201 0.0
C502 C 0.55349 0.04409 0.04933 0.0
C503 C 0.54401 0.01144 0.04332 0.0
C504 C 0.53904 0.00145 0.01943 0.0
C505 C 0.52852 0.96852 0.01281 0.0
C506 C 0.52368 0.95897 0.98928 0.0
C507 C 0.53006 0.98218 0.97144 0.0
C508 C 0.54097 0.01551 0.97768 0.0
C509 C 0.54478 0.02498 0.00172 0.0
C510 C 0.58218 0.23954 0.02474 0.0
C511 C 0.6002 0.22071 0.02772 0.0
O512 O 0.46687 0.83774 0.92084 0.0
O513 O 0.52701 0.91097 0.10584 0.0
O514 O 0.58481 0.19731 0.04531 0.0
O515 O 0.59012 0.12292 0.86153 0.0
H516 H 0.42001 0.81763 0.93324 0.0
H517 H 0.42267 0.83985 0.89261 0.0
H518 H 0.43365 0.81141 0.88078 0.0
H519 H 0.39362 0.7958 0.89381 0.0
H520 H 0.43454 0.87005 0.92901 0.0
H521 H 0.52889 0.87877 0.92594 0.0
H522 H 0.46158 0.95393 0.92996 0.0
H523 H 0.42773 0.91401 0.93911 0.0
H524 H 0.45786 0.94206 0.9602 0.0
H525 H 0.57828 0.92952 0.93365 0.0
H526 H 0.57669 0.96605 0.92639 0.0
H527 H 0.5733 0.95337 0.95641 0.0
H528 H 0.55448 0.13446 0.85295 0.0
H529 H 0.57261 0.11569 0.79615 0.0
H530 H 0.58964 0.17145 0.82602 0.0
H531 H 0.61782 0.16143 0.83035 0.0
H532 H 0.627 0.11257 0.88863 0.0
H533 H 0.52694 0.0835 0.87456 0.0
H534 H 0.61703 0.07928 0.94346 0.0
H535 H 0.60929 0.04462 0.92544 0.0
H536 H 0.64119 0.08621 0.91738 0.0
H537 H 0.48307 0.04563 0.89827 0.0
H538 H 0.48832 0.01114 0.90475 0.0
H539 H 0.49331 0.03957 0.92771 0.0
H540 H 0.59806 0.20787 0.01072 0.0
H541 H 0.62962 0.18198 0.03448 0.0
H542 H 0.53015 0.14406 0.05587 0.0
H543 H 0.62534 0.11859 0.00954 0.0
H544 H 0.65134 0.14611 0.03247 0.0
H545 H 0.62525 0.10202 0.03797 0.0
H546 H 0.49049 0.08678 0.0566 0.0
H547 H 0.49761 0.06252 0.03546 0.0
H548 H 0.50749 0.06213 0.06581 0.0
H549 H 0.48359 0.87633 0.08975 0.0
H550 H 0.49039 0.8287 0.09813 0.0
H551 H 0.52325 0.86076 0.0809 0.0
H552 H 0.53002 0.85656 0.11145 0.0
H553 H 0.5828 0.95754 0.08986 0.0
H554 H 0.48023 0.92369 0.09421 0.0
H555 H 0.60118 0.00559 0.04055 0.0
H556 H 0.6083 0.03523 0.06314 0.0
H557 H 0.62004 0.00482 0.06791 0.0
H558 H 0.45727 0.95194 0.07584 0.0
H559 H 0.48527 0.99477 0.06765 0.0
H560 H 0.47338 0.96227 0.04638 0.0
H561 H 0.53178 0.98975 0.91171 0.0
H562 H 0.56158 0.09051 0.95345 0.0
H563 H 0.56569 0.10593 0.99393 0.0
H564 H 0.55707 0.05152 0.06768 0.0
H565 H 0.52367 0.94966 0.02573 0.0
H566 H 0.51534 0.93325 0.98525 0.0
H567 H 0.58353 0.25297 0.04122 0.0
H568 H 0.59307 0.25778 0.01018 0.0
H569 H 0.55591 0.22173 0.02046 0.0
C570 C 0.65973 0.47105 0.03907 0.0
C571 C 0.65991 0.45812 0.06379 0.0
C572 C 0.63511 0.48329 0.08754 0.0
C573 C 0.60187 0.4591 0.08318 0.0
C574 C 0.57661 0.46414 0.0905 0.0
C575 C 0.58469 0.49424 0.10188 0.0
C576 C 0.6181 0.51857 0.10633 0.0
C577 C 0.64274 0.51239 0.09951 0.0
C578 C 0.54128 0.43739 0.08588 0.0
C579 C 0.62802 0.55154 0.11776 0.0
C580 C 0.4683 0.60888 0.00201 0.0
C581 C 0.47702 0.5998 0.02474 0.0
C582 C 0.48579 0.55683 0.04032 0.0
C583 C 0.51884 0.57689 0.04727 0.0
C584 C 0.53236 0.56587 0.06428 0.0
C585 C 0.51261 0.53389 0.07417 0.0
C586 C 0.48 0.51276 0.06603 0.0
C587 C 0.46704 0.52453 0.0491 0.0
C588 C 0.56747 0.58875 0.07218 0.0
C589 C 0.45856 0.47818 0.07578 0.0
C590 C 0.46652 0.60816 0.20713 0.0
C591 C 0.50022 0.62056 0.20608 0.0
C592 C 0.51228 0.60002 0.19984 0.0
C593 C 0.48991 0.56592 0.19501 0.0
C594 C 0.4557 0.55297 0.19632 0.0
C595 C 0.44431 0.57429 0.20208 0.0
C596 C 0.54896 0.61477 0.19854 0.0
C597 C 0.43124 0.51661 0.19163 0.0
C598 C 0.58749 0.51918 0.31216 0.0
C599 C 0.59019 0.4917 0.29968 0.0
C600 C 0.55703 0.48311 0.26406 0.0
C601 C 0.57959 0.51306 0.25286 0.0
C602 C 0.5709 0.52291 0.23219 0.0
C603 C 0.53918 0.5023 0.22244 0.0
C604 C 0.51687 0.47161 0.23319 0.0
C605 C 0.52617 0.46241 0.25386 0.0
C606 C 0.59533 0.55575 0.22107 0.0
C607 C 0.48294 0.44895 0.22313 0.0
C608 C 0.55861 0.50145 0.10784 0.0
C609 C 0.54555 0.51097 0.08956 0.0
C610 C 0.52522 0.52355 0.09421 0.0
C611 C 0.51859 0.5279 0.11772 0.0
C612 C 0.50118 0.54376 0.1231 0.0
C613 C 0.49606 0.54925 0.14629 0.0
C614 C 0.50712 0.53804 0.16499 0.0
C615 C 0.5026 0.54405 0.18862 0.0
C616 C 0.51273 0.53146 0.20678 0.0
C617 C 0.52847 0.51395 0.20205 0.0
C618 C 0.53473 0.50911 0.17855 0.0
C619 C 0.55205 0.49316 0.17315 0.0
C620 C 0.5597 0.49032 0.14997 0.0
C621 C 0.54954 0.50253 0.13133 0.0
C622 C 0.53032 0.51681 0.13631 0.0
C623 C 0.52376 0.52101 0.15996 0.0
C624 C 0.40659 0.60636 0.23515 0.0
C625 C 0.42523 0.62408 0.21268 0.0
O626 O 0.6606 0.47995 0.0805 0.0
O627 O 0.5636 0.47336 0.28479 0.0
O628 O 0.4568 0.6297 0.21331 0.0
O629 O 0.47139 0.56773 0.02516 0.0
H630 H 0.63717 0.43328 0.06534 0.0
H631 H 0.63679 0.47139 0.03638 0.0
H632 H 0.6809 0.49684 0.0368 0.0
H633 H 0.66049 0.45448 0.02546 0.0
H634 H 0.59514 0.43618 0.07417 0.0
H635 H 0.66835 0.53084 0.10288 0.0
H636 H 0.53117 0.4456 0.07162 0.0
H637 H 0.5388 0.41346 0.08048 0.0
H638 H 0.52617 0.43311 0.10182 0.0
H639 H 0.65489 0.5696 0.11651 0.0
H640 H 0.61482 0.56269 0.10948 0.0
H641 H 0.6213 0.5476 0.13664 0.0
H642 H 0.50111 0.61918 0.03226 0.0
H643 H 0.49225 0.6297 0.99487 0.0
H644 H 0.46595 0.59001 0.98865 0.0
H645 H 0.42917 0.61512 0.01085 0.0
H646 H 0.53424 0.60115 0.03949 0.0
H647 H 0.4418 0.50893 0.04321 0.0
H648 H 0.56826 0.59301 0.09144 0.0
H649 H 0.582 0.57687 0.06859 0.0
H650 H 0.57935 0.6132 0.06316 0.0
H651 H 0.43518 0.46356 0.0658 0.0
H652 H 0.47193 0.46461 0.07544 0.0
H653 H 0.45263 0.4799 0.0944 0.0
H654 H 0.41179 0.60808 0.19731 0.0
H655 H 0.51716 0.64664 0.21003 0.0
H656 H 0.41809 0.56411 0.20279 0.0
H657 H 0.55559 0.60831 0.18148 0.0
H658 H 0.56292 0.64229 0.20055 0.0
H659 H 0.55669 0.60409 0.21272 0.0
H660 H 0.40552 0.5099 0.19492 0.0
H661 H 0.43324 0.51058 0.17306 0.0
H662 H 0.43688 0.50096 0.20293 0.0
H663 H 0.61332 0.50326 0.28932 0.0
H664 H 0.60836 0.53302 0.32461 0.0
H665 H 0.58832 0.53726 0.29928 0.0
H666 H 0.56407 0.50847 0.32205 0.0
H667 H 0.6038 0.52916 0.26025 0.0
H668 H 0.50904 0.43924 0.26251 0.0
H669 H 0.59972 0.5517 0.20255 0.0
H670 H 0.58512 0.57227 0.22089 0.0
H671 H 0.61925 0.56866 0.23056 0.0
H672 H 0.46939 0.42484 0.23257 0.0
H673 H 0.46856 0.46141 0.22427 0.0
H674 H 0.4847 0.44401 0.20426 0.0
H675 H 0.5522 0.50968 0.07152 0.0
H676 H 0.49195 0.55283 0.10946 0.0
H677 H 0.48316 0.56225 0.14937 0.0
H678 H 0.50906 0.53609 0.22488 0.0
H679 H 0.56052 0.48339 0.18684 0.0
H680 H 0.57366 0.47844 0.14678 0.0
H681 H 0.41981 0.62114 0.25102 0.0
H682 H 0.38153 0.60259 0.2348 0.0
H683 H 0.40398 0.5816 0.23669 0.0
Co684 Co 0.64484 0.3992 0.40395 0.0
O685 O 0.67069 0.39584 0.37959 0.0
O686 O 0.68824 0.43887 0.40382 0.0
C687 C 0.6277 0.34787 0.41804 0.0
O688 O 0.62605 0.41105 0.43176 0.0
Co689 Co 0.57047 0.35286 0.40596 0.0
O690 O 0.57369 0.37105 0.43791 0.0
C691 C 0.5989 0.40803 0.37194 0.0
C692 C 0.69465 0.42423 0.38706 0.0
C693 C 0.59963 0.3979 0.44408 0.0
O694 O 0.62743 0.4189 0.38111 0.0
O695 O 0.57331 0.3808 0.37832 0.0
O696 O 0.65538 0.37356 0.42465 0.0
O697 O 0.61141 0.35358 0.40237 0.0
Co698 Co 0.249 0.61882 0.58202 0.0
O699 O 0.27674 0.61882 0.60649 0.0
O700 O 0.25483 0.58144 0.57778 0.0
C701 C 0.28273 0.67313 0.57363 0.0
O702 O 0.22085 0.61144 0.55309 0.0
Co703 Co 0.2173 0.66095 0.58455 0.0
O704 O 0.2074 0.65039 0.55074 0.0
C705 C 0.18965 0.5994 0.61255 0.0
C706 C 0.27441 0.59325 0.59587 0.0
C707 C 0.20858 0.62618 0.54186 0.0
O708 O 0.20925 0.59222 0.60233 0.0
O709 O 0.19029 0.6266 0.60889 0.0
O710 O 0.28725 0.65051 0.56454 0.0
O711 O 0.25867 0.66256 0.58842 0.0
Co712 Co 0.63803 0.24807 0.74171 0.0
O713 O 0.64789 0.28905 0.72738 0.0
O714 O 0.60032 0.25315 0.74378 0.0
C715 C 0.68574 0.27282 0.76211 0.0
O716 O 0.61886 0.20443 0.75938 0.0
Co717 Co 0.67895 0.21688 0.73407 0.0
O718 O 0.65463 0.18712 0.76069 0.0
C719 C 0.63462 0.21261 0.69648 0.0
C720 C 0.61869 0.28173 0.73356 0.0
C721 C 0.62797 0.18482 0.76702 0.0
O722 O 0.62247 0.22457 0.71068 0.0
O723 O 0.65904 0.20954 0.70172 0.0
O724 O 0.65965 0.27148 0.77023 0.0
O725 O 0.68256 0.25914 0.74166 0.0
Co726 Co 0.39198 0.62549 0.91122 0.0
O727 O 0.36488 0.62402 0.88569 0.0
O728 O 0.34913 0.5853 0.91296 0.0
C729 C 0.40867 0.67851 0.92082 0.0
O730 O 0.41195 0.61911 0.94092 0.0
Co731 Co 0.46664 0.67384 0.91225 0.0
O732 O 0.46174 0.66475 0.94648 0.0
C733 C 0.43842 0.61339 0.88252 0.0
C734 C 0.34136 0.59685 0.89494 0.0
C735 C 0.43714 0.6378 0.95384 0.0
O736 O 0.40991 0.60322 0.89136 0.0
O737 O 0.46376 0.64182 0.88746 0.0
O738 O 0.38114 0.65391 0.92861 0.0
O739 O 0.42481 0.67053 0.9067 0.0
Co740 Co 0.77001 0.37817 0.06592 0.0
O741 O 0.73851 0.38375 0.08291 0.0
O742 O 0.77747 0.42234 0.06049 0.0
C743 C 0.73161 0.32835 0.05101 0.0
O744 O 0.8062 0.38091 0.04511 0.0
Co745 Co 0.7803 0.32058 0.07674 0.0
O746 O 0.80266 0.33146 0.0459 0.0
C747 C 0.81192 0.38036 0.10709 0.0
C748 C 0.75175 0.41302 0.07364 0.0
C749 C 0.81422 0.36039 0.03738 0.0
O750 O 0.80041 0.39406 0.09381 0.0
O751 O 0.80532 0.35052 0.10399 0.0
O752 O 0.73853 0.35583 0.04079 0.0
O753 O 0.74697 0.33152 0.07056 0.0
Co754 Co 0.39962 0.77722 0.22703 0.0
O755 O 0.39361 0.74351 0.205 0.0
O756 O 0.43268 0.76567 0.23208 0.0
C757 C 0.34593 0.75049 0.23666 0.0
O758 O 0.41248 0.81068 0.25375 0.0
Co759 Co 0.36673 0.81794 0.2207 0.0
O760 O 0.37942 0.83141 0.25392 0.0
C761 C 0.42146 0.83003 0.18991 0.0
C762 C 0.41792 0.74369 0.21545 0.0
C763 C 0.40128 0.82745 0.26359 0.0
O764 O 0.42814 0.81284 0.20385 0.0
O765 O 0.39608 0.83253 0.1923 0.0
O766 O 0.36586 0.74327 0.24681 0.0
O767 O 0.35879 0.77301 0.22048 0.0
C768 C 0.25517 0.71503 0.2261 0.0
C769 C 0.241 0.68167 0.23333 0.0
C770 C 0.28905 0.73765 0.22824 0.0
C771 C 0.30988 0.72815 0.23838 0.0
H772 H 0.24034 0.72371 0.21815 0.0
H773 H 0.29909 0.76256 0.22139 0.0
S774 S 0.28404 0.64566 0.26425 0.0
N775 N 0.24976 0.64166 0.25387 0.0
N776 N 0.31328 0.68426 0.25835 0.0
C777 C 0.29565 0.69575 0.24751 0.0
C778 C 0.26125 0.67259 0.24498 0.0
C779 C 0.59531 0.25622 0.40919 0.0
C780 C 0.61604 0.25076 0.42373 0.0
C781 C 0.59761 0.28713 0.40867 0.0
C782 C 0.62094 0.31389 0.42251 0.0
H783 H 0.57795 0.23676 0.39747 0.0
H784 H 0.58208 0.29047 0.39645 0.0
S785 S 0.6789 0.31165 0.46522 0.0
N786 N 0.65912 0.27404 0.45345 0.0
N787 N 0.6633 0.33208 0.4527 0.0
C788 C 0.64063 0.30827 0.43806 0.0
C789 C 0.63832 0.27679 0.43853 0.0
C790 C 0.3374 0.58481 0.62961 0.0
C791 C 0.35963 0.58849 0.61186 0.0
C792 C 0.3079 0.58323 0.62424 0.0
C793 C 0.29906 0.5842 0.60086 0.0
H794 H 0.34393 0.58541 0.64794 0.0
H795 H 0.29281 0.58314 0.63851 0.0
S796 S 0.34646 0.59039 0.54755 0.0
N797 N 0.36941 0.59112 0.56959 0.0
N798 N 0.31316 0.58648 0.55967 0.0
C799 C 0.31958 0.58516 0.58281 0.0
C800 C 0.35014 0.58781 0.58824 0.0
C801 C 0.74916 0.33709 0.80286 0.0
C802 C 0.76807 0.36396 0.78762 0.0
C803 C 0.7241 0.30622 0.79429 0.0
C804 C 0.71769 0.30076 0.77011 0.0
H805 H 0.75233 0.34068 0.82171 0.0
H806 H 0.70843 0.28711 0.80674 0.0
S807 S 0.76177 0.36137 0.72239 0.0
N808 N 0.77956 0.38208 0.74678 0.0
N809 N 0.7335 0.32355 0.7308 0.0
C810 C 0.73795 0.3264 0.7545 0.0
C811 C 0.76287 0.35819 0.76321 0.0
C812 C 0.45072 0.77147 0.91149 0.0
C813 C 0.42926 0.77952 0.92252 0.0
C814 C 0.44487 0.73906 0.91216 0.0
C815 C 0.41717 0.71338 0.92367 0.0
H816 H 0.47166 0.79016 0.90166 0.0
H817 H 0.46154 0.7339 0.90281 0.0
S818 S 0.35417 0.72179 0.9561 0.0
N819 N 0.37982 0.75943 0.94588 0.0
N820 N 0.3689 0.69859 0.94735 0.0
C821 C 0.39615 0.72135 0.93548 0.0
C822 C 0.40208 0.75433 0.93475 0.0
C823 C 0.71537 0.46359 0.05341 0.0
C824 C 0.68806 0.45231 0.06851 0.0
C825 C 0.73794 0.45315 0.0564 0.0
C826 C 0.73425 0.43138 0.07464 0.0
H827 H 0.71877 0.47923 0.03849 0.0
H828 H 0.75707 0.46043 0.0434 0.0
S829 S 0.67178 0.40114 0.12199 0.0
N830 N 0.66213 0.42281 0.10454 0.0
N831 N 0.70466 0.40356 0.11028 0.0
C832 C 0.70923 0.42286 0.09121 0.0
C833 C 0.68623 0.43332 0.08814 0.0
C834 C 0.36512 0.75005 0.56121 0.0
C835 C 0.36298 0.77554 0.57237 0.0
C836 C 0.33834 0.71739 0.56062 0.0
C837 C 0.3084 0.70872 0.57151 0.0
H838 H 0.38799 0.75519 0.55331 0.0
H839 H 0.3417 0.6986 0.55234 0.0
S840 S 0.28913 0.7667 0.60145 0.0
N841 N 0.3278 0.79044 0.59317 0.0
N842 N 0.27742 0.72868 0.59244 0.0
C843 C 0.30541 0.73413 0.58196 0.0
C844 C 0.33271 0.76759 0.58236 0.0
C845 C 0.62641 0.36509 0.72495 0.0
C846 C 0.59609 0.35969 0.73287 0.0
C847 C 0.63267 0.3392 0.72413 0.0
C848 C 0.60903 0.30686 0.73151 0.0
H849 H 0.64584 0.38976 0.71984 0.0
H850 H 0.6568 0.34504 0.71846 0.0
S851 S 0.52489 0.27914 0.7525 0.0
N852 N 0.54145 0.31923 0.74716 0.0
N853 N 0.55338 0.27042 0.74588 0.0
C854 C 0.57816 0.30076 0.73877 0.0
C855 C 0.57169 0.32721 0.73946 0.0
C856 C 0.26887 0.60076 0.87298 0.0
C857 C 0.24271 0.57612 0.88628 0.0
C858 C 0.30013 0.6049 0.87399 0.0
C859 C 0.30672 0.58502 0.88875 0.0
H860 H 0.26566 0.61823 0.86268 0.0
H861 H 0.31978 0.62555 0.86445 0.0
S862 S 0.24527 0.51312 0.92388 0.0
N863 N 0.22421 0.52838 0.91197 0.0
N864 N 0.28335 0.5367 0.91434 0.0
C865 C 0.28015 0.55838 0.90051 0.0
C866 C 0.24809 0.55388 0.89924 0.0
C867 C 0.64747 0.25154 0.05685 0.0
C868 C 0.63616 0.24492 0.03341 0.0
C869 C 0.67965 0.27691 0.06229 0.0
C870 C 0.70129 0.29716 0.04457 0.0
H871 H 0.63108 0.23785 0.0712 0.0
H872 H 0.68684 0.28211 0.08062 0.0
S873 S 0.68473 0.2888 0.98051 0.0
N874 N 0.6501 0.25925 0.99231 0.0
N875 N 0.71021 0.30781 0.00272 0.0
C876 C 0.69084 0.29007 0.02109 0.0
C877 C 0.65835 0.26381 0.01548 0.0
C878 C 0.44637 0.6832 0.2264 0.0
C879 C 0.42709 0.65716 0.21047 0.0
C880 C 0.44508 0.7123 0.22683 0.0
C881 C 0.42448 0.71652 0.21133 0.0
H882 H 0.46156 0.68042 0.23929 0.0
H883 H 0.45908 0.73082 0.24021 0.0
S884 S 0.37253 0.65779 0.16407 0.0
N885 N 0.38918 0.63889 0.17737 0.0
N886 N 0.38712 0.69372 0.17785 0.0
C887 C 0.40682 0.69169 0.19424 0.0
C888 C 0.40797 0.66196 0.19393 0.0
C889 C 0.76334 0.43113 0.35073 0.0
C890 C 0.78384 0.42962 0.36796 0.0
C891 C 0.73574 0.43271 0.35695 0.0
C892 C 0.72836 0.43418 0.38059 0.0
H893 H 0.76737 0.42867 0.33229 0.0
H894 H 0.71898 0.43075 0.34323 0.0
S895 S 0.77593 0.43553 0.4326 0.0
N896 N 0.79591 0.43257 0.40996 0.0
N897 N 0.74488 0.43722 0.42131 0.0
C898 C 0.75012 0.43584 0.39796 0.0
C899 C 0.77768 0.43312 0.39175 0.0
C900 C 0.16435 0.61685 0.48399 0.0
C901 C 0.16399 0.58978 0.47306 0.0
C902 C 0.1789 0.62845 0.50611 0.0
C903 C 0.19423 0.61387 0.51808 0.0
H904 H 0.1531 0.6291 0.47549 0.0
H905 H 0.17796 0.649 0.51386 0.0
S906 S 0.20322 0.54467 0.49564 0.0
N907 N 0.18232 0.55033 0.47492 0.0
N908 N 0.21005 0.5722 0.51635 0.0
C909 C 0.19513 0.58755 0.50689 0.0
C910 C 0.18008 0.57564 0.48442 0.0
C911 C 0.56002 0.18561 0.63968 0.0
C912 C 0.57472 0.16272 0.62151 0.0
C913 C 0.58185 0.20186 0.66723 0.0
C914 C 0.61899 0.20116 0.67341 0.0
H915 H 0.53636 0.18305 0.63667 0.0
H916 H 0.57234 0.21152 0.6802 0.0
S917 S 0.66336 0.16562 0.6293 0.0
N918 N 0.63114 0.1568 0.6118 0.0
N919 N 0.66357 0.18464 0.65456 0.0
C920 C 0.63663 0.18669 0.65188 0.0
C921 C 0.61704 0.17026 0.62437 0.0
C922 C 0.47492 0.58459 0.83552 0.0
C923 C 0.4503 0.55103 0.83196 0.0
C924 C 0.47087 0.60442 0.85192 0.0
C925 C 0.44221 0.59144 0.86566 0.0
H926 H 0.49747 0.59569 0.82548 0.0
H927 H 0.49038 0.63024 0.85368 0.0
S928 S 0.37207 0.50387 0.86489 0.0
N929 N 0.39747 0.50493 0.84473 0.0
N930 N 0.38975 0.54202 0.87563 0.0
C931 C 0.41786 0.55757 0.8628 0.0
C932 C 0.42201 0.53741 0.84605 0.0
C933 C 0.90825 0.42956 0.00037 0.0
C934 C 0.90534 0.39696 0.97968 0.0
C935 C 0.87247 0.41555 0.01899 0.0
C936 C 0.84066 0.37168 0.02013 0.0
H937 H 0.92639 0.45572 0.99828 0.0
H938 H 0.87054 0.43333 0.02988 0.0
S939 S 0.83967 0.29461 0.98377 0.0
N940 N 0.87509 0.32613 0.97275 0.0
N941 N 0.8226 0.3077 0.00373 0.0
C942 C 0.84436 0.34064 0.0041 0.0
C943 C 0.87822 0.35181 0.98536 0.0
C944 C 0.44725 0.8575 0.12715 0.0
C945 C 0.48115 0.86939 0.12746 0.0
C946 C 0.42843 0.84611 0.14767 0.0
C947 C 0.44268 0.8456 0.16922 0.0
H948 H 0.43498 0.85638 0.1108 0.0
H949 H 0.40226 0.83641 0.14643 0.0
S950 S 0.53095 0.87712 0.18006 0.0
N951 N 0.52873 0.88278 0.15163 0.0
N952 N 0.49303 0.86009 0.19007 0.0
C953 C 0.4767 0.85837 0.16999 0.0
C954 C 0.49601 0.87062 0.14916 0.0
C955 C 0.62171 0.47254 0.32406 0.0
C956 C 0.59135 0.46874 0.31779 0.0
C957 C 0.62382 0.45267 0.34142 0.0
C958 C 0.59565 0.42822 0.35332 0.0
H959 H 0.64411 0.49119 0.31553 0.0
H960 H 0.64782 0.45655 0.34551 0.0
S961 S 0.51037 0.40968 0.34439 0.0
N962 N 0.53261 0.43961 0.32548 0.0
N963 N 0.53644 0.40214 0.35806 0.0
C964 C 0.5651 0.42433 0.34736 0.0
C965 C 0.563 0.44467 0.3297 0.0
C966 C 0.45798 0.86213 0.31672 0.0
C967 C 0.44061 0.87065 0.33234 0.0
C968 C 0.44521 0.84846 0.29452 0.0
C969 C 0.4145 0.84275 0.28698 0.0
H970 H 0.4816 0.86581 0.32181 0.0
H971 H 0.45961 0.84235 0.28319 0.0
S972 S 0.35804 0.85855 0.32184 0.0
N973 N 0.39016 0.87065 0.33919 0.0
N974 N 0.36642 0.84558 0.29735 0.0
C975 C 0.39669 0.8509 0.3025 0.0
C976 C 0.40957 0.86452 0.32521 0.0
C977 C 0.57029 0.41408 0.50182 0.0
C978 C 0.59397 0.44755 0.50684 0.0
C979 C 0.57247 0.39832 0.48161 0.0
C980 C 0.59877 0.41511 0.46576 0.0
H981 H 0.54979 0.39992 0.51359 0.0
H982 H 0.55336 0.37265 0.47848 0.0
S983 S 0.66867 0.50232 0.47194 0.0
N984 N 0.64548 0.49644 0.49511 0.0
N985 N 0.64985 0.46691 0.45713 0.0
C986 C 0.6232 0.44832 0.47097 0.0
C987 C 0.62079 0.46443 0.49151 0.0
C988 C 0.11215 0.55353 0.6491 0.0
C989 C 0.11598 0.52965 0.66119 0.0
C990 C 0.13615 0.57595 0.63356 0.0
C991 C 0.1647 0.57501 0.62902 0.0
H992 H 0.09042 0.55501 0.65173 0.0
H993 H 0.13204 0.59394 0.62485 0.0
S994 S 0.18565 0.51595 0.65505 0.0
N995 N 0.14988 0.50547 0.66684 0.0
N996 N 0.19503 0.54748 0.63741 0.0
C997 C 0.16849 0.55068 0.64048 0.0
C998 C 0.1441 0.528 0.65653 0.0
C999 C 0.53825 0.12074 0.80972 0.0
C1000 C 0.55767 0.10222 0.82772 0.0
C1001 C 0.56566 0.15192 0.78888 0.0
C1002 C 0.6062 0.15846 0.78332 0.0
H1003 H 0.51534 0.11863 0.81475 0.0
H1004 H 0.55787 0.16693 0.77991 0.0
S1005 S 0.64618 0.10723 0.81388 0.0
N1006 N 0.60997 0.08801 0.82824 0.0
N1007 N 0.649 0.13561 0.7944 0.0
C1008 C 0.61964 0.13286 0.79695 0.0
C1009 C 0.59459 0.10172 0.81767 0.0
C1010 C 0.41601 0.56892 0.01418 0.0
C1011 C 0.45003 0.60128 0.03305 0.0
C1012 C 0.41355 0.58321 0.9851 0.0
C1013 C 0.43825 0.62711 0.97775 0.0
H1014 H 0.40352 0.54268 0.0183 0.0
H1015 H 0.39757 0.56539 0.97199 0.0
S1016 S 0.50304 0.70377 0.02194 0.0
N1017 N 0.49143 0.67212 0.04094 0.0
N1018 N 0.48347 0.69094 0.99581 0.0
C1019 C 0.46399 0.65805 -0.00067 0.0
C1020 C 0.46808 0.64658 0.02826 0.0
C1021 C 0.86132 0.45221 0.14927 0.0
C1022 C 0.88504 0.44578 0.15819 0.0
C1023 C 0.83707 0.43029 0.13345 0.0
C1024 C 0.83557 0.40103 0.12583 0.0
H1025 H 0.86199 0.47484 0.15412 0.0
H1026 H 0.81976 0.43675 0.12681 0.0
S1027 S 0.89233 0.37285 0.14371 0.0
N1028 N 0.9058 0.40817 0.15807 0.0
N1029 N 0.86001 0.3667 0.12857 0.0
C1030 C 0.8588 0.39393 0.13495 0.0
C1031 C 0.88366 0.41642 0.15096 0.0
loop_
_geom_bond_atom_site_label_1
_geom_bond_atom_site_label_2
_geom_bond_distance
_geom_bond_site_symmetry_2
_ccdc_geom_bond_type
C0 C1 1.560 . S
C0 H61 0.959 . S
C0 H62 0.959 . S
C0 H63 0.960 . S
C1 C0 1.560 . S
C1 O56 1.426 . S
C1 H60 0.980 . S
C2 C3 1.407 . S
C2 C7 1.418 . S
C2 O56 1.334 . S
C3 C2 1.407 . S
C3 C4 1.360 . S
C3 H64 0.929 . S
C4 C3 1.360 . S
C4 C5 1.401 . S
C4 C8 1.527 . S
C5 C4 1.401 . S
C5 C6 1.405 . S
C5 C38 1.587 . S
C6 C5 1.405 . S
C6 C7 1.332 . S
C6 C9 1.496 . S
C7 C2 1.418 . S
C7 C6 1.332 . S
C7 H65 0.929 . S
C8 C4 1.527 . S
C8 H66 0.959 . S
C8 H67 0.961 . S
C8 H68 0.961 . S
C9 C6 1.496 . S
C9 H69 0.960 . S
C9 H70 0.960 . S
C9 H71 0.961 . S
C10 C11 1.517 . S
C10 H73 0.961 . S
C10 H74 0.960 . S
C10 H75 0.959 . S
C11 C10 1.517 . S
C11 O59 1.468 . S
C11 H72 0.980 . S
C12 C13 1.349 . S
C12 C17 1.367 . S
C12 O59 1.408 . S
C13 C12 1.349 . S
C13 C14 1.407 . S
C13 H76 0.930 . S
C14 C13 1.407 . S
C14 C15 1.449 . S
C14 C18 1.535 . S
C15 C14 1.449 . S
C15 C16 1.384 . S
C15 C40 1.553 1_655 S
C16 C15 1.384 . S
C16 C17 1.364 . S
C16 C19 1.450 . S
C17 C12 1.367 . S
C17 C16 1.364 . S
C17 H77 0.931 . S
C18 C14 1.535 . S
C18 H78 0.959 1_655 S
C18 H79 0.961 1_655 S
C18 H80 0.959 . S
C19 C16 1.450 . S
C19 H81 0.960 . S
C19 H82 0.960 1_655 S
C19 H83 0.960 . S
C20 C21 1.309 . S
C20 C25 1.304 . S
C20 O58 1.435 . S
C21 C20 1.309 . S
C21 C22 1.476 . S
C21 H85 0.930 . S
C22 C21 1.476 . S
C22 C23 1.400 . S
C22 C26 1.567 . S
C23 C22 1.400 . S
C23 C24 1.373 . S
C23 C45 1.432 . S
C24 C23 1.373 . S
C24 C25 1.339 . S
C24 C27 1.530 . S
C25 C20 1.304 . S
C25 C24 1.339 . S
C25 H86 0.930 . S
C26 C22 1.567 . S
C26 H87 0.961 . S
C26 H88 0.960 . S
C26 H89 0.958 . S
C27 C24 1.530 . S
C27 H90 0.961 . S
C27 H91 0.960 . S
C27 H92 0.960 . S
C28 C29 1.530 . S
C28 H94 0.961 . S
C28 H95 0.961 . S
C28 H96 0.959 . S
C29 C28 1.530 . S
C29 O57 1.412 . S
C29 H93 0.980 . S
C30 C31 1.288 . S
C30 C35 1.377 . S
C30 O57 1.393 . S
C31 C30 1.288 . S
C31 C32 1.369 . S
C31 H97 0.932 . S
C32 C31 1.369 . S
C32 C33 1.398 . S
C32 C36 1.527 . S
C33 C32 1.398 . S
C33 C34 1.380 . S
C33 C47 1.497 . S
C34 C33 1.380 . S
C34 C35 1.383 . S
C34 C37 1.603 . S
C35 C30 1.377 . S
C35 C34 1.383 . S
C35 H98 0.929 . S
C36 C32 1.527 . S
C36 H99 0.961 . S
C36 H100 0.959 . S
C36 H101 0.959 . S
C37 C34 1.603 . S
C37 H102 0.960 . S
C37 H103 0.962 . S
C37 H104 0.961 . S
C38 C5 1.587 . S
C38 C39 1.360 . S
C38 C51 1.412 . S
C39 C38 1.360 . S
C39 C40 1.365 . S
C39 H105 0.929 . S
C40 C15 1.553 1_455 S
C40 C39 1.365 . S
C40 C41 1.404 . S
C41 C40 1.404 . S
C41 C42 1.395 1_455 S
C41 C52 1.451 . S
C42 C41 1.395 1_655 S
C42 C43 1.322 . S
C42 H106 0.930 . S
C43 C42 1.322 . S
C43 C44 1.459 . S
C43 H107 0.929 . S
C44 C43 1.459 . S
C44 C45 1.445 . S
C44 C53 1.395 1_655 S
C45 C23 1.432 . S
C45 C44 1.445 . S
C45 C46 1.370 . S
C46 C45 1.370 . S
C46 C47 1.438 1_655 S
C46 H108 0.930 . S
C47 C33 1.497 . S
C47 C46 1.438 1_455 S
C47 C48 1.360 . S
C48 C47 1.360 . S
C48 C49 1.401 . S
C48 C53 1.446 . S
C49 C48 1.401 . S
C49 C50 1.347 . S
C49 H109 0.929 . S
C50 C49 1.347 . S
C50 C51 1.455 . S
C50 H110 0.930 . S
C51 C38 1.412 . S
C51 C50 1.455 . S
C51 C52 1.331 . S
C52 C41 1.451 . S
C52 C51 1.331 . S
C52 C53 1.497 . S
C53 C44 1.395 1_455 S
C53 C48 1.446 . S
C53 C52 1.497 . S
C54 C55 1.582 . S
C54 H111 0.962 . S
C54 H112 0.959 . S
C54 H113 0.958 . S
C55 C54 1.582 . S
C55 O58 1.458 . S
C55 H84 0.980 . S
O56 C1 1.426 . S
O56 C2 1.334 . S
O57 C29 1.412 . S
O57 C30 1.393 . S
O58 C20 1.435 . S
O58 C55 1.458 . S
O59 C11 1.468 . S
O59 C12 1.408 . S
H60 C1 0.980 . S
H61 C0 0.959 . S
H62 C0 0.959 . S
H63 C0 0.960 . S
H64 C3 0.929 . S
H65 C7 0.929 . S
H66 C8 0.959 . S
H67 C8 0.961 . S
H68 C8 0.961 . S
H69 C9 0.960 . S
H70 C9 0.960 . S
H71 C9 0.961 . S
H72 C11 0.980 . S
H73 C10 0.961 . S
H74 C10 0.960 . S
H75 C10 0.959 . S
H76 C13 0.930 . S
H77 C17 0.931 . S
H78 C18 0.959 1_455 S
H79 C18 0.961 1_455 S
H80 C18 0.959 . S
H81 C19 0.960 . S
H82 C19 0.960 1_455 S
H83 C19 0.960 . S
H84 C55 0.980 . S
H85 C21 0.930 . S
H86 C25 0.930 . S
H87 C26 0.961 . S
H88 C26 0.960 . S
H89 C26 0.958 . S
H90 C27 0.961 . S
H91 C27 0.960 . S
H92 C27 0.960 . S
H93 C29 0.980 . S
H94 C28 0.961 . S
H95 C28 0.961 . S
H96 C28 0.959 . S
H97 C31 0.932 . S
H98 C35 0.929 . S
H99 C36 0.961 . S
H100 C36 0.959 . S
H101 C36 0.959 . S
H102 C37 0.960 . S
H103 C37 0.962 . S
H104 C37 0.961 . S
H105 C39 0.929 . S
H106 C42 0.930 . S
H107 C43 0.929 . S
H108 C46 0.930 . S
H109 C49 0.929 . S
H110 C50 0.930 . S
H111 C54 0.962 . S
H112 C54 0.959 . S
H113 C54 0.958 . S
C114 C115 1.560 . S
C114 H175 0.959 . S
C114 H176 0.959 . S
C114 H177 0.960 . S
C115 C114 1.560 . S
C115 O170 1.426 . S
C115 H174 0.980 . S
C116 C117 1.407 . S
C116 C121 1.418 . S
C116 O170 1.334 . S
C117 C116 1.407 . S
C117 C118 1.360 . S
C117 H178 0.929 . S
C118 C117 1.360 . S
C118 C119 1.401 . S
C118 C122 1.527 . S
C119 C118 1.401 . S
C119 C120 1.405 . S
C119 C152 1.587 . S
C120 C119 1.405 . S
C120 C121 1.332 . S
C120 C123 1.496 . S
C121 C116 1.418 . S
C121 C120 1.332 . S
C121 H179 0.929 . S
C122 C118 1.527 . S
C122 H180 0.959 . S
C122 H181 0.961 . S
C122 H182 0.961 . S
C123 C120 1.496 . S
C123 H183 0.960 . S
C123 H184 0.960 . S
C123 H185 0.961 . S
C124 C125 1.517 . S
C124 H187 0.961 . S
C124 H188 0.960 . S
C124 H189 0.959 . S
C125 C124 1.517 . S
C125 O173 1.468 . S
C125 H186 0.980 . S
C126 C127 1.349 . S
C126 C131 1.367 . S
C126 O173 1.408 . S
C127 C126 1.349 . S
C127 C128 1.407 . S
C127 H190 0.930 . S
C128 C127 1.407 . S
C128 C129 1.449 . S
C128 C132 1.535 . S
C129 C128 1.449 . S
C129 C130 1.384 . S
C129 C154 1.553 . S
C130 C129 1.384 . S
C130 C131 1.364 . S
C130 C133 1.450 . S
C131 C126 1.367 . S
C131 C130 1.364 . S
C131 H191 0.931 . S
C132 C128 1.535 . S
C132 H192 0.959 . S
C132 H193 0.961 . S
C132 H194 0.959 . S
C133 C130 1.450 . S
C133 H195 0.960 . S
C133 H196 0.960 . S
C133 H197 0.960 . S
C134 C135 1.309 . S
C134 C139 1.304 . S
C134 O172 1.435 . S
C135 C134 1.309 . S
C135 C136 1.476 . S
C135 H199 0.930 . S
C136 C135 1.476 . S
C136 C137 1.400 . S
C136 C140 1.567 . S
C137 C136 1.400 . S
C137 C138 1.373 . S
C137 C159 1.432 . S
C138 C137 1.373 . S
C138 C139 1.339 . S
C138 C141 1.530 . S
C139 C134 1.304 . S
C139 C138 1.339 . S
C139 H200 0.930 . S
C140 C136 1.567 . S
C140 H201 0.961 . S
C140 H202 0.960 . S
C140 H203 0.958 . S
C141 C138 1.530 . S
C141 H204 0.961 . S
C141 H205 0.960 . S
C141 H206 0.960 . S
C142 C143 1.530 . S
C142 H208 0.961 . S
C142 H209 0.961 . S
C142 H210 0.959 . S
C143 C142 1.530 . S
C143 O171 1.412 . S
C143 H207 0.980 . S
C144 C145 1.288 . S
C144 C149 1.377 . S
C144 O171 1.393 . S
C145 C144 1.288 . S
C145 C146 1.369 . S
C145 H211 0.932 . S
C146 C145 1.369 . S
C146 C147 1.398 . S
C146 C150 1.527 1_565 S
C147 C146 1.398 . S
C147 C148 1.380 . S
C147 C161 1.497 1_565 S
C148 C147 1.380 . S
C148 C149 1.383 . S
C148 C151 1.603 . S
C149 C144 1.377 . S
C149 C148 1.383 . S
C149 H212 0.929 . S
C150 C146 1.527 1_545 S
C150 H213 0.961 . S
C150 H214 0.959 . S
C150 H215 0.959 1_545 S
C151 C148 1.603 . S
C151 H216 0.960 . S
C151 H217 0.962 . S
C151 H218 0.961 . S
C152 C119 1.587 . S
C152 C153 1.360 . S
C152 C165 1.412 . S
C153 C152 1.360 . S
C153 C154 1.365 1_565 S
C153 H219 0.929 . S
C154 C129 1.553 . S
C154 C153 1.365 1_545 S
C154 C155 1.404 . S
C155 C154 1.404 . S
C155 C156 1.395 . S
C155 C166 1.451 . S
C156 C155 1.395 . S
C156 C157 1.322 . S
C156 H220 0.930 . S
C157 C156 1.322 . S
C157 C158 1.459 . S
C157 H221 0.929 . S
C158 C157 1.459 . S
C158 C159 1.445 . S
C158 C167 1.395 . S
C159 C137 1.432 . S
C159 C158 1.445 . S
C159 C160 1.370 . S
C160 C159 1.370 . S
C160 C161 1.438 . S
C160 H222 0.930 . S
C161 C147 1.497 1_545 S
C161 C160 1.438 . S
C161 C162 1.360 1_545 S
C162 C161 1.360 1_565 S
C162 C163 1.401 . S
C162 C167 1.446 1_565 S
C163 C162 1.401 . S
C163 C164 1.347 . S
C163 H223 0.929 . S
C164 C163 1.347 . S
C164 C165 1.455 . S
C164 H224 0.930 . S
C165 C152 1.412 . S
C165 C164 1.455 . S
C165 C166 1.331 1_565 S
C166 C155 1.451 . S
C166 C165 1.331 1_545 S
C166 C167 1.497 . S
C167 C158 1.395 . S
C167 C162 1.446 1_545 S
C167 C166 1.497 . S
C168 C169 1.582 . S
C168 H225 0.962 . S
C168 H226 0.959 . S
C168 H227 0.958 . S
C169 C168 1.582 . S
C169 O172 1.458 . S
C169 H198 0.980 . S
O170 C115 1.426 . S
O170 C116 1.334 . S
O171 C143 1.412 . S
O171 C144 1.393 . S
O172 C134 1.435 . S
O172 C169 1.458 . S
O173 C125 1.468 . S
O173 C126 1.408 . S
H174 C115 0.980 . S
H175 C114 0.959 . S
H176 C114 0.959 . S
H177 C114 0.960 . S
H178 C117 0.929 . S
H179 C121 0.929 . S
H180 C122 0.959 . S
H181 C122 0.961 . S
H182 C122 0.961 . S
H183 C123 0.960 . S
H184 C123 0.960 . S
H185 C123 0.961 . S
H186 C125 0.980 . S
H187 C124 0.961 . S
H188 C124 0.960 . S
H189 C124 0.959 . S
H190 C127 0.930 . S
H191 C131 0.931 . S
H192 C132 0.959 . S
H193 C132 0.961 . S
H194 C132 0.959 . S
H195 C133 0.960 . S
H196 C133 0.960 . S
H197 C133 0.960 . S
H198 C169 0.980 . S
H199 C135 0.930 . S
H200 C139 0.930 . S
H201 C140 0.961 . S
H202 C140 0.960 . S
H203 C140 0.958 . S
H204 C141 0.961 . S
H205 C141 0.960 . S
H206 C141 0.960 . S
H207 C143 0.980 . S
H208 C142 0.961 . S
H209 C142 0.961 . S
H210 C142 0.959 . S
H211 C145 0.932 . S
H212 C149 0.929 . S
H213 C150 0.961 . S
H214 C150 0.959 . S
H215 C150 0.959 1_565 S
H216 C151 0.960 . S
H217 C151 0.962 . S
H218 C151 0.961 . S
H219 C153 0.929 . S
H220 C156 0.930 . S
H221 C157 0.929 . S
H222 C160 0.930 . S
H223 C163 0.929 . S
H224 C164 0.930 . S
H225 C168 0.962 . S
H226 C168 0.959 . S
H227 C168 0.958 . S
C228 C229 1.560 . S
C228 H289 0.959 . S
C228 H290 0.959 . S
C228 H291 0.960 . S
C229 C228 1.560 . S
C229 O284 1.426 . S
C229 H288 0.980 . S
C230 C231 1.407 . S
C230 C235 1.418 . S
C230 O284 1.334 . S
C231 C230 1.407 . S
C231 C232 1.360 . S
C231 H292 0.929 . S
C232 C231 1.360 . S
C232 C233 1.401 . S
C232 C236 1.527 . S
C233 C232 1.401 . S
C233 C234 1.405 . S
C233 C266 1.587 . S
C234 C233 1.405 . S
C234 C235 1.332 . S
C234 C237 1.496 . S
C235 C230 1.418 . S
C235 C234 1.332 . S
C235 H293 0.929 . S
C236 C232 1.527 . S
C236 H294 0.959 . S
C236 H295 0.961 . S
C236 H296 0.961 . S
C237 C234 1.496 . S
C237 H297 0.960 . S
C237 H298 0.960 . S
C237 H299 0.961 . S
C238 C239 1.517 . S
C238 H301 0.961 . S
C238 H302 0.960 . S
C238 H303 0.959 . S
C239 C238 1.517 . S
C239 O287 1.468 . S
C239 H300 0.980 . S
C240 C241 1.349 . S
C240 C245 1.367 . S
C240 O287 1.408 . S
C241 C240 1.349 . S
C241 C242 1.407 . S
C241 H304 0.930 . S
C242 C241 1.407 . S
C242 C243 1.449 . S
C242 C246 1.535 . S
C243 C242 1.449 . S
C243 C244 1.384 . S
C243 C268 1.553 . S
C244 C243 1.384 . S
C244 C245 1.364 . S
C244 C247 1.450 . S
C245 C240 1.367 . S
C245 C244 1.364 . S
C245 H305 0.931 . S
C246 C242 1.535 . S
C246 H306 0.959 . S
C246 H307 0.961 . S
C246 H308 0.959 . S
C247 C244 1.450 . S
C247 H309 0.960 . S
C247 H310 0.960 . S
C247 H311 0.960 . S
C248 C249 1.309 . S
C248 C253 1.304 . S
C248 O286 1.435 . S
C249 C248 1.309 . S
C249 C250 1.476 . S
C249 H313 0.930 . S
C250 C249 1.476 . S
C250 C251 1.400 . S
C250 C254 1.567 . S
C251 C250 1.400 . S
C251 C252 1.373 . S
C251 C273 1.432 . S
C252 C251 1.373 . S
C252 C253 1.339 . S
C252 C255 1.530 . S
C253 C248 1.304 . S
C253 C252 1.339 . S
C253 H314 0.930 . S
C254 C250 1.567 . S
C254 H315 0.961 . S
C254 H316 0.960 . S
C254 H317 0.958 . S
C255 C252 1.530 . S
C255 H318 0.961 . S
C255 H319 0.960 . S
C255 H320 0.960 . S
C256 C257 1.530 . S
C256 H322 0.961 . S
C256 H323 0.961 . S
C256 H324 0.959 . S
C257 C256 1.530 . S
C257 O285 1.412 . S
C257 H321 0.980 . S
C258 C259 1.288 . S
C258 C263 1.377 . S
C258 O285 1.393 . S
C259 C258 1.288 . S
C259 C260 1.369 . S
C259 H325 0.932 . S
C260 C259 1.369 . S
C260 C261 1.398 . S
C260 C264 1.527 . S
C261 C260 1.398 . S
C261 C262 1.380 . S
C261 C275 1.497 . S
C262 C261 1.380 . S
C262 C263 1.383 . S
C262 C265 1.603 . S
C263 C258 1.377 . S
C263 C262 1.383 . S
C263 H326 0.929 . S
C264 C260 1.527 . S
C264 H327 0.961 . S
C264 H328 0.959 . S
C264 H329 0.959 . S
C265 C262 1.603 . S
C265 H330 0.960 . S
C265 H331 0.962 . S
C265 H332 0.961 . S
C266 C233 1.587 . S
C266 C267 1.360 . S
C266 C279 1.412 . S
C267 C266 1.360 . S
C267 C268 1.365 . S
C267 H333 0.929 . S
C268 C243 1.553 . S
C268 C267 1.365 . S
C268 C269 1.404 . S
C269 C268 1.404 . S
C269 C270 1.395 . S
C269 C280 1.451 . S
C270 C269 1.395 . S
C270 C271 1.322 . S
C270 H334 0.930 . S
C271 C270 1.322 . S
C271 C272 1.459 . S
C271 H335 0.929 . S
C272 C271 1.459 . S
C272 C273 1.445 . S
C272 C281 1.395 . S
C273 C251 1.432 . S
C273 C272 1.445 . S
C273 C274 1.370 . S
C274 C273 1.370 . S
C274 C275 1.438 . S
C274 H336 0.930 . S
C275 C261 1.497 . S
C275 C274 1.438 . S
C275 C276 1.360 . S
C276 C275 1.360 . S
C276 C277 1.401 . S
C276 C281 1.446 . S
C277 C276 1.401 . S
C277 C278 1.347 . S
C277 H337 0.929 . S
C278 C277 1.347 . S
C278 C279 1.455 . S
C278 H338 0.930 . S
C279 C266 1.412 . S
C279 C278 1.455 . S
C279 C280 1.331 . S
C280 C269 1.451 . S
C280 C279 1.331 . S
C280 C281 1.497 . S
C281 C272 1.395 . S
C281 C276 1.446 . S
C281 C280 1.497 . S
C282 C283 1.582 . S
C282 H339 0.962 . S
C282 H340 0.959 . S
C282 H341 0.958 . S
C283 C282 1.582 . S
C283 O286 1.458 . S
C283 H312 0.980 . S
O284 C229 1.426 . S
O284 C230 1.334 . S
O285 C257 1.412 . S
O285 C258 1.393 . S
O286 C248 1.435 . S
O286 C283 1.458 . S
O287 C239 1.468 . S
O287 C240 1.408 . S
H288 C229 0.980 . S
H289 C228 0.959 . S
H290 C228 0.959 . S
H291 C228 0.960 . S
H292 C231 0.929 . S
H293 C235 0.929 . S
H294 C236 0.959 . S
H295 C236 0.961 . S
H296 C236 0.961 . S
H297 C237 0.960 . S
H298 C237 0.960 . S
H299 C237 0.961 . S
H300 C239 0.980 . S
H301 C238 0.961 . S
H302 C238 0.960 . S
H303 C238 0.959 . S
H304 C241 0.930 . S
H305 C245 0.931 . S
H306 C246 0.959 . S
H307 C246 0.961 . S
H308 C246 0.959 . S
H309 C247 0.960 . S
H310 C247 0.960 . S
H311 C247 0.960 . S
H312 C283 0.980 . S
H313 C249 0.930 . S
H314 C253 0.930 . S
H315 C254 0.961 . S
H316 C254 0.960 . S
H317 C254 0.958 . S
H318 C255 0.961 . S
H319 C255 0.960 . S
H320 C255 0.960 . S
H321 C257 0.980 . S
H322 C256 0.961 . S
H323 C256 0.961 . S
H324 C256 0.959 . S
H325 C259 0.932 . S
H326 C263 0.929 . S
H327 C264 0.961 . S
H328 C264 0.959 . S
H329 C264 0.959 . S
H330 C265 0.960 . S
H331 C265 0.962 . S
H332 C265 0.961 . S
H333 C267 0.929 . S
H334 C270 0.930 . S
H335 C271 0.929 . S
H336 C274 0.930 . S
H337 C277 0.929 . S
H338 C278 0.930 . S
H339 C282 0.962 . S
H340 C282 0.959 . S
H341 C282 0.958 . S
C342 C343 1.560 . S
C342 H403 0.959 . S
C342 H404 0.959 . S
C342 H405 0.960 . S
C343 C342 1.560 . S
C343 O398 1.426 . S
C343 H402 0.980 . S
C344 C345 1.407 . S
C344 C349 1.418 . S
C344 O398 1.334 . S
C345 C344 1.407 . S
C345 C346 1.360 . S
C345 H406 0.929 . S
C346 C345 1.360 . S
C346 C347 1.401 . S
C346 C350 1.527 . S
C347 C346 1.401 . S
C347 C348 1.405 . S
C347 C380 1.587 . S
C348 C347 1.405 . S
C348 C349 1.332 . S
C348 C351 1.496 . S
C349 C344 1.418 . S
C349 C348 1.332 . S
C349 H407 0.929 . S
C350 C346 1.527 . S
C350 H408 0.959 . S
C350 H409 0.961 . S
C350 H410 0.961 . S
C351 C348 1.496 . S
C351 H411 0.960 . S
C351 H412 0.960 . S
C351 H413 0.961 . S
C352 C353 1.517 . S
C352 H415 0.961 . S
C352 H416 0.960 . S
C352 H417 0.959 . S
C353 C352 1.517 . S
C353 O401 1.468 . S
C353 H414 0.980 . S
C354 C355 1.349 . S
C354 C359 1.367 . S
C354 O401 1.408 . S
C355 C354 1.349 . S
C355 C356 1.407 . S
C355 H418 0.930 . S
C356 C355 1.407 . S
C356 C357 1.449 . S
C356 C360 1.535 . S
C357 C356 1.449 . S
C357 C358 1.384 . S
C357 C382 1.553 1_655 S
C358 C357 1.384 . S
C358 C359 1.364 . S
C358 C361 1.450 . S
C359 C354 1.367 . S
C359 C358 1.364 . S
C359 H419 0.931 . S
C360 C356 1.535 . S
C360 H420 0.959 1_655 S
C360 H421 0.961 1_655 S
C360 H422 0.959 . S
C361 C358 1.450 . S
C361 H423 0.960 . S
C361 H424 0.960 1_655 S
C361 H425 0.960 . S
C362 C363 1.309 . S
C362 C367 1.304 . S
C362 O400 1.435 . S
C363 C362 1.309 . S
C363 C364 1.476 . S
C363 H427 0.930 . S
C364 C363 1.476 . S
C364 C365 1.400 . S
C364 C368 1.567 . S
C365 C364 1.400 . S
C365 C366 1.373 . S
C365 C387 1.432 . S
C366 C365 1.373 . S
C366 C367 1.339 . S
C366 C369 1.530 . S
C367 C362 1.304 . S
C367 C366 1.339 . S
C367 H428 0.930 . S
C368 C364 1.567 . S
C368 H429 0.961 . S
C368 H430 0.960 . S
C368 H431 0.958 . S
C369 C366 1.530 . S
C369 H432 0.961 . S
C369 H433 0.960 . S
C369 H434 0.960 . S
C370 C371 1.530 . S
C370 H436 0.961 . S
C370 H437 0.961 . S
C370 H438 0.959 . S
C371 C370 1.530 . S
C371 O399 1.412 . S
C371 H435 0.980 . S
C372 C373 1.288 . S
C372 C377 1.377 . S
C372 O399 1.393 . S
C373 C372 1.288 . S
C373 C374 1.369 . S
C373 H439 0.932 . S
C374 C373 1.369 . S
C374 C375 1.398 . S
C374 C378 1.527 . S
C375 C374 1.398 . S
C375 C376 1.380 . S
C375 C389 1.497 . S
C376 C375 1.380 . S
C376 C377 1.383 . S
C376 C379 1.603 . S
C377 C372 1.377 . S
C377 C376 1.383 . S
C377 H440 0.929 . S
C378 C374 1.527 . S
C378 H441 0.961 . S
C378 H442 0.959 1_455 S
C378 H443 0.959 . S
C379 C376 1.603 . S
C379 H444 0.960 . S
C379 H445 0.962 . S
C379 H446 0.961 . S
C380 C347 1.587 . S
C380 C381 1.360 . S
C380 C393 1.412 . S
C381 C380 1.360 . S
C381 C382 1.365 . S
C381 H447 0.929 . S
C382 C357 1.553 1_455 S
C382 C381 1.365 . S
C382 C383 1.404 . S
C383 C382 1.404 . S
C383 C384 1.395 1_455 S
C383 C394 1.451 . S
C384 C383 1.395 1_655 S
C384 C385 1.322 . S
C384 H448 0.930 . S
C385 C384 1.322 . S
C385 C386 1.459 . S
C385 H449 0.929 . S
C386 C385 1.459 . S
C386 C387 1.445 . S
C386 C395 1.395 1_655 S
C387 C365 1.432 . S
C387 C386 1.445 . S
C387 C388 1.370 . S
C388 C387 1.370 . S
C388 C389 1.438 1_655 S
C388 H450 0.930 . S
C389 C375 1.497 . S
C389 C388 1.438 1_455 S
C389 C390 1.360 . S
C390 C389 1.360 . S
C390 C391 1.401 . S
C390 C395 1.446 . S
C391 C390 1.401 . S
C391 C392 1.347 . S
C391 H451 0.929 . S
C392 C391 1.347 . S
C392 C393 1.455 . S
C392 H452 0.930 . S
C393 C380 1.412 . S
C393 C392 1.455 . S
C393 C394 1.331 . S
C394 C383 1.451 . S
C394 C393 1.331 . S
C394 C395 1.497 . S
C395 C386 1.395 1_455 S
C395 C390 1.446 . S
C395 C394 1.497 . S
C396 C397 1.582 . S
C396 H453 0.962 . S
C396 H454 0.959 . S
C396 H455 0.958 . S
C397 C396 1.582 . S
C397 O400 1.458 . S
C397 H426 0.980 . S
O398 C343 1.426 . S
O398 C344 1.334 . S
O399 C371 1.412 . S
O399 C372 1.393 . S
O400 C362 1.435 . S
O400 C397 1.458 . S
O401 C353 1.468 . S
O401 C354 1.408 . S
H402 C343 0.980 . S
H403 C342 0.959 . S
H404 C342 0.959 . S
H405 C342 0.960 . S
H406 C345 0.929 . S
H407 C349 0.929 . S
H408 C350 0.959 . S
H409 C350 0.961 . S
H410 C350 0.961 . S
H411 C351 0.960 . S
H412 C351 0.960 . S
H413 C351 0.961 . S
H414 C353 0.980 . S
H415 C352 0.961 . S
H416 C352 0.960 . S
H417 C352 0.959 . S
H418 C355 0.930 . S
H419 C359 0.931 . S
H420 C360 0.959 1_455 S
H421 C360 0.961 1_455 S
H422 C360 0.959 . S
H423 C361 0.960 . S
H424 C361 0.960 1_455 S
H425 C361 0.960 . S
H426 C397 0.980 . S
H427 C363 0.930 . S
H428 C367 0.930 . S
H429 C368 0.961 . S
H430 C368 0.960 . S
H431 C368 0.958 . S
H432 C369 0.961 . S
H433 C369 0.960 . S
H434 C369 0.960 . S
H435 C371 0.980 . S
H436 C370 0.961 . S
H437 C370 0.961 . S
H438 C370 0.959 . S
H439 C373 0.932 . S
H440 C377 0.929 . S
H441 C378 0.961 . S
H442 C378 0.959 1_655 S
H443 C378 0.959 . S
H444 C379 0.960 . S
H445 C379 0.962 . S
H446 C379 0.961 . S
H447 C381 0.929 . S
H448 C384 0.930 . S
H449 C385 0.929 . S
H450 C388 0.930 . S
H451 C391 0.929 . S
H452 C392 0.930 . S
H453 C396 0.962 . S
H454 C396 0.959 . S
H455 C396 0.958 . S
C456 C457 1.560 . S
C456 H517 0.959 . S
C456 H518 0.959 . S
C456 H519 0.960 . S
C457 C456 1.560 . S
C457 O512 1.426 . S
C457 H516 0.980 . S
C458 C459 1.407 . S
C458 C463 1.418 . S
C458 O512 1.334 . S
C459 C458 1.407 . S
C459 C460 1.360 . S
C459 H520 0.929 . S
C460 C459 1.360 . S
C460 C461 1.401 . S
C460 C464 1.527 . S
C461 C460 1.401 . S
C461 C462 1.405 . S
C461 C494 1.587 . S
C462 C461 1.405 . S
C462 C463 1.332 . S
C462 C465 1.496 . S
C463 C458 1.418 . S
C463 C462 1.332 . S
C463 H521 0.929 . S
C464 C460 1.527 . S
C464 H522 0.959 . S
C464 H523 0.961 . S
C464 H524 0.961 . S
C465 C462 1.496 . S
C465 H525 0.960 . S
C465 H526 0.960 . S
C465 H527 0.961 . S
C466 C467 1.517 . S
C466 H529 0.961 . S
C466 H530 0.960 . S
C466 H531 0.959 . S
C467 C466 1.517 . S
C467 O515 1.468 . S
C467 H528 0.980 . S
C468 C469 1.349 . S
C468 C473 1.367 . S
C468 O515 1.408 . S
C469 C468 1.349 . S
C469 C470 1.407 . S
C469 H532 0.930 . S
C470 C469 1.407 . S
C470 C471 1.449 . S
C470 C474 1.535 . S
C471 C470 1.449 . S
C471 C472 1.384 . S
C471 C496 1.553 . S
C472 C471 1.384 . S
C472 C473 1.364 . S
C472 C475 1.450 . S
C473 C468 1.367 . S
C473 C472 1.364 . S
C473 H533 0.931 . S
C474 C470 1.535 . S
C474 H534 0.959 . S
C474 H535 0.961 . S
C474 H536 0.959 . S
C475 C472 1.450 . S
C475 H537 0.960 . S
C475 H538 0.960 . S
C475 H539 0.960 . S
C476 C477 1.309 . S
C476 C481 1.304 . S
C476 O514 1.435 . S
C477 C476 1.309 . S
C477 C478 1.476 . S
C477 H541 0.930 . S
C478 C477 1.476 . S
C478 C479 1.400 . S
C478 C482 1.567 . S
C479 C478 1.400 . S
C479 C480 1.373 . S
C479 C501 1.432 . S
C480 C479 1.373 . S
C480 C481 1.339 . S
C480 C483 1.530 . S
C481 C476 1.304 . S
C481 C480 1.339 . S
C481 H542 0.930 . S
C482 C478 1.567 . S
C482 H543 0.961 . S
C482 H544 0.960 . S
C482 H545 0.958 . S
C483 C480 1.530 . S
C483 H546 0.961 . S
C483 H547 0.960 . S
C483 H548 0.960 . S
C484 C485 1.530 . S
C484 H550 0.961 . S
C484 H551 0.961 . S
C484 H552 0.959 . S
C485 C484 1.530 . S
C485 O513 1.412 . S
C485 H549 0.980 . S
C486 C487 1.288 . S
C486 C491 1.377 . S
C486 O513 1.393 . S
C487 C486 1.288 . S
C487 C488 1.369 . S
C487 H553 0.932 . S
C488 C487 1.369 . S
C488 C489 1.398 . S
C488 C492 1.527 1_565 S
C489 C488 1.398 . S
C489 C490 1.380 . S
C489 C503 1.497 1_565 S
C490 C489 1.380 . S
C490 C491 1.383 . S
C490 C493 1.603 . S
C491 C486 1.377 . S
C491 C490 1.383 . S
C491 H554 0.929 . S
C492 C488 1.527 1_545 S
C492 H555 0.961 1_545 S
C492 H556 0.959 . S
C492 H557 0.959 1_545 S
C493 C490 1.603 . S
C493 H558 0.960 . S
C493 H559 0.962 . S
C493 H560 0.961 . S
C494 C461 1.587 . S
C494 C495 1.360 . S
C494 C507 1.412 . S
C495 C494 1.360 . S
C495 C496 1.365 1_565 S
C495 H561 0.929 . S
C496 C471 1.553 . S
C496 C495 1.365 1_545 S
C496 C497 1.404 . S
C497 C496 1.404 . S
C497 C498 1.395 . S
C497 C508 1.451 1_545 S
C498 C497 1.395 . S
C498 C499 1.322 . S
C498 H562 0.930 . S
C499 C498 1.322 . S
C499 C500 1.459 1_556 S
C499 H563 0.929 . S
C500 C499 1.459 1_554 S
C500 C501 1.445 . S
C500 C509 1.395 1_554 S
C501 C479 1.432 . S
C501 C500 1.445 . S
C501 C502 1.370 . S
C502 C501 1.370 . S
C502 C503 1.438 . S
C502 H564 0.930 . S
C503 C489 1.497 1_545 S
C503 C502 1.438 . S
C503 C504 1.360 1_545 S
C504 C503 1.360 1_565 S
C504 C505 1.401 . S
C504 C509 1.446 1_564 S
C505 C504 1.401 . S
C505 C506 1.347 1_554 S
C505 H565 0.929 . S
C506 C505 1.347 1_556 S
C506 C507 1.455 . S
C506 H566 0.930 . S
C507 C494 1.412 . S
C507 C506 1.455 . S
C507 C508 1.331 . S
C508 C497 1.451 1_565 S
C508 C507 1.331 . S
C508 C509 1.497 1_565 S
C509 C500 1.395 1_556 S
C509 C504 1.446 1_546 S
C509 C508 1.497 1_545 S
C510 C511 1.582 . S
C510 H567 0.962 . S
C510 H568 0.959 . S
C510 H569 0.958 . S
C511 C510 1.582 . S
C511 O514 1.458 . S
C511 H540 0.980 . S
O512 C457 1.426 . S
O512 C458 1.334 . S
O513 C485 1.412 . S
O513 C486 1.393 . S
O514 C476 1.435 . S
O514 C511 1.458 . S
O515 C467 1.468 . S
O515 C468 1.408 . S
H516 C457 0.980 . S
H517 C456 0.959 . S
H518 C456 0.959 . S
H519 C456 0.960 . S
H520 C459 0.929 . S
H521 C463 0.929 . S
H522 C464 0.959 . S
H523 C464 0.961 . S
H524 C464 0.961 . S
H525 C465 0.960 . S
H526 C465 0.960 . S
H527 C465 0.961 . S
H528 C467 0.980 . S
H529 C466 0.961 . S
H530 C466 0.960 . S
H531 C466 0.959 . S
H532 C469 0.930 . S
H533 C473 0.931 . S
H534 C474 0.959 . S
H535 C474 0.961 . S
H536 C474 0.959 . S
H537 C475 0.960 . S
H538 C475 0.960 . S
H539 C475 0.960 . S
H540 C511 0.980 . S
H541 C477 0.930 . S
H542 C481 0.930 . S
H543 C482 0.961 . S
H544 C482 0.960 . S
H545 C482 0.958 . S
H546 C483 0.961 . S
H547 C483 0.960 . S
H548 C483 0.960 . S
H549 C485 0.980 . S
H550 C484 0.961 . S
H551 C484 0.961 . S
H552 C484 0.959 . S
H553 C487 0.932 . S
H554 C491 0.929 . S
H555 C492 0.961 1_565 S
H556 C492 0.959 . S
H557 C492 0.959 1_565 S
H558 C493 0.960 . S
H559 C493 0.962 . S
H560 C493 0.961 . S
H561 C495 0.929 . S
H562 C498 0.930 . S
H563 C499 0.929 . S
H564 C502 0.930 . S
H565 C505 0.929 . S
H566 C506 0.930 . S
H567 C510 0.962 . S
H568 C510 0.959 . S
H569 C510 0.958 . S
C570 C571 1.560 . S
C570 H631 0.959 . S
C570 H632 0.959 . S
C570 H633 0.960 . S
C571 C570 1.560 . S
C571 O626 1.426 . S
C571 H630 0.980 . S
C572 C573 1.407 . S
C572 C577 1.418 . S
C572 O626 1.334 . S
C573 C572 1.407 . S
C573 C574 1.360 . S
C573 H634 0.929 . S
C574 C573 1.360 . S
C574 C575 1.401 . S
C574 C578 1.527 . S
C575 C574 1.401 . S
C575 C576 1.405 . S
C575 C608 1.587 . S
C576 C575 1.405 . S
C576 C577 1.332 . S
C576 C579 1.496 . S
C577 C572 1.418 . S
C577 C576 1.332 . S
C577 H635 0.929 . S
C578 C574 1.527 . S
C578 H636 0.959 . S
C578 H637 0.961 . S
C578 H638 0.961 . S
C579 C576 1.496 . S
C579 H639 0.960 . S
C579 H640 0.960 . S
C579 H641 0.961 . S
C580 C581 1.517 1_556 S
C580 H643 0.961 . S
C580 H644 0.960 . S
C580 H645 0.951 1_556 S
C581 C580 1.517 1_554 S
C581 O629 1.468 . S
C581 H642 0.980 . S
C582 C583 1.349 . S
C582 C587 1.367 . S
C582 O629 1.408 . S
C583 C582 1.349 . S
C583 C584 1.407 . S
C583 H646 0.930 . S
C584 C583 1.407 . S
C584 C585 1.449 . S
C584 C588 1.535 . S
C585 C584 1.449 . S
C585 C586 1.384 . S
C585 C610 1.553 . S
C586 C585 1.384 . S
C586 C587 1.364 . S
C586 C589 1.450 . S
C587 C582 1.367 . S
C587 C586 1.364 . S
C587 H647 0.931 . S
C588 C584 1.535 . S
C588 H648 0.959 . S
C588 H649 0.961 . S
C588 H650 0.959 . S
C589 C586 1.450 . S
C589 H651 0.960 . S
C589 H652 0.960 . S
C589 H653 0.960 . S
C590 C591 1.309 . S
C590 C595 1.304 . S
C590 O628 1.435 . S
C591 C590 1.309 . S
C591 C592 1.476 . S
C591 H655 0.930 . S
C592 C591 1.476 . S
C592 C593 1.400 . S
C592 C596 1.567 . S
C593 C592 1.400 . S
C593 C594 1.373 . S
C593 C615 1.432 . S
C594 C593 1.373 . S
C594 C595 1.339 . S
C594 C597 1.530 . S
C595 C590 1.304 . S
C595 C594 1.339 . S
C595 H656 0.930 . S
C596 C592 1.567 . S
C596 H657 0.961 . S
C596 H658 0.960 . S
C596 H659 0.958 . S
C597 C594 1.530 . S
C597 H660 0.961 . S
C597 H661 0.960 . S
C597 H662 0.960 . S
C598 C599 1.530 . S
C598 H664 0.961 . S
C598 H665 0.961 . S
C598 H666 0.959 . S
C599 C598 1.530 . S
C599 O627 1.412 . S
C599 H663 0.980 . S
C600 C601 1.288 . S
C600 C605 1.377 . S
C600 O627 1.393 . S
C601 C600 1.288 . S
C601 C602 1.369 . S
C601 H667 0.932 . S
C602 C601 1.369 . S
C602 C603 1.398 . S
C602 C606 1.527 . S
C603 C602 1.398 . S
C603 C604 1.380 . S
C603 C617 1.497 . S
C604 C603 1.380 . S
C604 C605 1.383 . S
C604 C607 1.603 . S
C605 C600 1.377 . S
C605 C604 1.383 . S
C605 H668 0.929 . S
C606 C602 1.527 . S
C606 H669 0.961 . S
C606 H670 0.959 . S
C606 H671 0.959 . S
C607 C604 1.603 . S
C607 H672 0.960 . S
C607 H673 0.962 . S
C607 H674 0.961 . S
C608 C575 1.587 . S
C608 C609 1.360 . S
C608 C621 1.412 . S
C609 C608 1.360 . S
C609 C610 1.365 . S
C609 H675 0.929 . S
C610 C585 1.553 . S
C610 C609 1.365 . S
C610 C611 1.404 . S
C611 C610 1.404 . S
C611 C612 1.395 . S
C611 C622 1.451 . S
C612 C611 1.395 . S
C612 C613 1.322 . S
C612 H676 0.930 . S
C613 C612 1.322 . S
C613 C614 1.459 . S
C613 H677 0.929 . S
C614 C613 1.459 . S
C614 C615 1.445 . S
C614 C623 1.395 . S
C615 C593 1.432 . S
C615 C614 1.445 . S
C615 C616 1.370 . S
C616 C615 1.370 . S
C616 C617 1.438 . S
C616 H678 0.930 . S
C617 C603 1.497 . S
C617 C616 1.438 . S
C617 C618 1.360 . S
C618 C617 1.360 . S
C618 C619 1.401 . S
C618 C623 1.446 . S
C619 C618 1.401 . S
C619 C620 1.347 . S
C619 H679 0.929 . S
C620 C619 1.347 . S
C620 C621 1.455 . S
C620 H680 0.930 . S
C621 C608 1.412 . S
C621 C620 1.455 . S
C621 C622 1.331 . S
C622 C611 1.451 . S
C622 C621 1.331 . S
C622 C623 1.497 . S
C623 C614 1.395 . S
C623 C618 1.446 . S
C623 C622 1.497 . S
C624 C625 1.582 . S
C624 H681 0.962 . S
C624 H682 0.959 . S
C624 H683 0.958 . S
C625 C624 1.582 . S
C625 O628 1.458 . S
C625 H654 0.980 . S
O626 C571 1.426 . S
O626 C572 1.334 . S
O627 C599 1.412 . S
O627 C600 1.393 . S
O628 C590 1.435 . S
O628 C625 1.458 . S
O629 C581 1.468 . S
O629 C582 1.408 . S
H630 C571 0.980 . S
H631 C570 0.959 . S
H632 C570 0.959 . S
H633 C570 0.960 . S
H634 C573 0.929 . S
H635 C577 0.929 . S
H636 C578 0.959 . S
H637 C578 0.961 . S
H638 C578 0.961 . S
H639 C579 0.960 . S
H640 C579 0.960 . S
H641 C579 0.961 . S
H642 C581 0.980 . S
H643 C580 0.961 . S
H644 C580 0.960 . S
H645 C580 0.951 1_554 S
H646 C583 0.930 . S
H647 C587 0.931 . S
H648 C588 0.959 . S
H649 C588 0.961 . S
H650 C588 0.959 . S
H651 C589 0.960 . S
H652 C589 0.960 . S
H653 C589 0.960 . S
H654 C625 0.980 . S
H655 C591 0.930 . S
H656 C595 0.930 . S
H657 C596 0.961 . S
H658 C596 0.960 . S
H659 C596 0.958 . S
H660 C597 0.961 . S
H661 C597 0.960 . S
H662 C597 0.960 . S
H663 C599 0.980 . S
H664 C598 0.961 . S
H665 C598 0.961 . S
H666 C598 0.959 . S
H667 C601 0.932 . S
H668 C605 0.929 . S
H669 C606 0.961 . S
H670 C606 0.959 . S
H671 C606 0.959 . S
H672 C607 0.960 . S
H673 C607 0.962 . S
H674 C607 0.961 . S
H675 C609 0.929 . S
H676 C612 0.930 . S
H677 C613 0.929 . S
H678 C616 0.930 . S
H679 C619 0.929 . S
H680 C620 0.930 . S
H681 C624 0.962 . S
H682 C624 0.959 . S
H683 C624 0.958 . S
Co684 O685 2.216 . S
Co684 O686 2.091 . S
Co684 O688 2.004 . S
Co684 O694 2.021 . S
Co684 O696 2.137 . S
Co684 O697 2.244 . S
O685 Co684 2.216 . S
O685 C692 1.247 . S
O686 Co684 2.091 . S
O686 C692 1.261 . S
C687 O696 1.247 . S
C687 O697 1.272 . S
O688 Co684 2.004 . S
O688 C693 1.259 . S
Co689 O690 2.061 . S
Co689 O695 2.052 . S
Co689 O697 2.135 . S
O690 Co689 2.061 . S
O690 C693 1.235 . S
C691 O694 1.238 . S
C691 O695 1.241 . S
C692 O685 1.247 . S
C692 O686 1.261 . S
C693 O688 1.259 . S
C693 O690 1.235 . S
O694 Co684 2.021 . S
O694 C691 1.238 . S
O695 Co689 2.052 . S
O695 C691 1.241 . S
O696 Co684 2.137 . S
O696 C687 1.247 . S
O697 Co684 2.244 . S
O697 C687 1.272 . S
O697 Co689 2.135 . S
Co698 O699 2.216 . S
Co698 O700 2.091 . S
Co698 O702 2.004 . S
Co698 O708 2.021 . S
Co698 O710 2.137 . S
Co698 O711 2.244 . S
O699 Co698 2.216 . S
O699 C706 1.247 . S
O700 Co698 2.091 . S
O700 C706 1.261 . S
C701 O710 1.247 . S
C701 O711 1.272 . S
O702 Co698 2.004 . S
O702 C707 1.259 . S
Co703 O704 2.061 . S
Co703 O709 2.052 . S
Co703 O711 2.135 . S
O704 Co703 2.061 . S
O704 C707 1.235 . S
C705 O708 1.238 . S
C705 O709 1.241 . S
C706 O699 1.247 . S
C706 O700 1.261 . S
C707 O702 1.259 . S
C707 O704 1.235 . S
O708 Co698 2.021 . S
O708 C705 1.238 . S
O709 Co703 2.052 . S
O709 C705 1.241 . S
O710 Co698 2.137 . S
O710 C701 1.247 . S
O711 Co698 2.244 . S
O711 C701 1.272 . S
O711 Co703 2.135 . S
Co712 O713 2.216 . S
Co712 O714 2.091 . S
Co712 O716 2.004 . S
Co712 O722 2.021 . S
Co712 O724 2.137 . S
Co712 O725 2.244 . S
O713 Co712 2.216 . S
O713 C720 1.247 . S
O714 Co712 2.091 . S
O714 C720 1.261 . S
C715 O724 1.247 . S
C715 O725 1.272 . S
O716 Co712 2.004 . S
O716 C721 1.259 . S
Co717 O718 2.061 . S
Co717 O723 2.052 . S
Co717 O725 2.135 . S
O718 Co717 2.061 . S
O718 C721 1.235 . S
C719 O722 1.238 . S
C719 O723 1.241 . S
C720 O713 1.247 . S
C720 O714 1.261 . S
C721 O716 1.259 . S
C721 O718 1.235 . S
O722 Co712 2.021 . S
O722 C719 1.238 . S
O723 Co717 2.052 . S
O723 C719 1.241 . S
O724 Co712 2.137 . S
O724 C715 1.247 . S
O725 Co712 2.244 . S
O725 C715 1.272 . S
O725 Co717 2.135 . S
Co726 O727 2.216 . S
Co726 O728 2.091 . S
Co726 O730 2.004 . S
Co726 O736 2.021 . S
Co726 O738 2.137 . S
Co726 O739 2.244 . S
O727 Co726 2.216 . S
O727 C734 1.247 . S
O728 Co726 2.091 . S
O728 C734 1.261 . S
C729 O738 1.247 . S
C729 O739 1.272 . S
O730 Co726 2.004 . S
O730 C735 1.259 . S
Co731 O732 2.061 . S
Co731 O737 2.052 . S
Co731 O739 2.135 . S
O732 Co731 2.061 . S
O732 C735 1.235 . S
C733 O736 1.238 . S
C733 O737 1.241 . S
C734 O727 1.247 . S
C734 O728 1.261 . S
C735 O730 1.259 . S
C735 O732 1.235 . S
O736 Co726 2.021 . S
O736 C733 1.238 . S
O737 Co731 2.052 . S
O737 C733 1.241 . S
O738 Co726 2.137 . S
O738 C729 1.247 . S
O739 Co726 2.244 . S
O739 C729 1.272 . S
O739 Co731 2.135 . S
Co740 O741 2.216 . S
Co740 O742 2.091 . S
Co740 O744 2.004 . S
Co740 O750 2.021 . S
Co740 O752 2.137 . S
Co740 O753 2.244 . S
O741 Co740 2.216 . S
O741 C748 1.247 . S
O742 Co740 2.091 . S
O742 C748 1.261 . S
C743 O752 1.247 . S
C743 O753 1.272 . S
O744 Co740 2.004 . S
O744 C749 1.259 . S
Co745 O746 2.061 . S
Co745 O751 2.052 . S
Co745 O753 2.135 . S
O746 Co745 2.061 . S
O746 C749 1.235 . S
C747 O750 1.238 . S
C747 O751 1.241 . S
C748 O741 1.247 . S
C748 O742 1.261 . S
C749 O744 1.259 . S
C749 O746 1.235 . S
O750 Co740 2.021 . S
O750 C747 1.238 . S
O751 Co745 2.052 . S
O751 C747 1.241 . S
O752 Co740 2.137 . S
O752 C743 1.247 . S
O753 Co740 2.244 . S
O753 C743 1.272 . S
O753 Co745 2.135 . S
Co754 O755 2.216 . S
Co754 O756 2.091 . S
Co754 O758 2.004 . S
Co754 O764 2.021 . S
Co754 O766 2.137 . S
Co754 O767 2.244 . S
O755 Co754 2.216 . S
O755 C762 1.247 . S
O756 Co754 2.091 . S
O756 C762 1.261 . S
C757 O766 1.247 . S
C757 O767 1.272 . S
O758 Co754 2.004 . S
O758 C763 1.259 . S
Co759 O760 2.061 . S
Co759 O765 2.052 . S
Co759 O767 2.135 . S
O760 Co759 2.061 . S
O760 C763 1.235 . S
C761 O764 1.238 . S
C761 O765 1.241 . S
C762 O755 1.247 . S
C762 O756 1.261 . S
C763 O758 1.259 . S
C763 O760 1.235 . S
O764 Co754 2.021 . S
O764 C761 1.238 . S
O765 Co759 2.052 . S
O765 C761 1.241 . S
O766 Co754 2.137 . S
O766 C757 1.247 . S
O767 Co754 2.244 . S
O767 C757 1.272 . S
O767 Co759 2.135 . S
C768 C769 1.369 . S
C768 C770 1.419 . S
C768 H772 0.930 . S
C769 C768 1.369 . S
C769 C778 1.429 . S
C770 C768 1.419 . S
C770 C771 1.363 . S
C770 H773 0.929 . S
C771 C770 1.363 . S
C771 C777 1.428 . S
H772 C768 0.930 . S
H773 C770 0.929 . S
S774 N775 1.613 . S
S774 N776 1.610 . S
N775 S774 1.613 . S
N775 C778 1.350 . S
N776 S774 1.610 . S
N776 C777 1.351 . S
C777 C771 1.428 . S
C777 N776 1.351 . S
C777 C778 1.434 . S
C778 C769 1.429 . S
C778 N775 1.350 . S
C778 C777 1.434 . S
C779 C780 1.369 . S
C779 C781 1.419 . S
C779 H783 0.930 . S
C780 C779 1.369 . S
C780 C789 1.429 . S
C781 C779 1.419 . S
C781 C782 1.363 . S
C781 H784 0.929 . S
C782 C781 1.363 . S
C782 C788 1.428 . S
H783 C779 0.930 . S
H784 C781 0.929 . S
S785 N786 1.613 . S
S785 N787 1.610 . S
N786 S785 1.613 . S
N786 C789 1.350 . S
N787 S785 1.610 . S
N787 C788 1.351 . S
C788 C782 1.428 . S
C788 N787 1.351 . S
C788 C789 1.434 . S
C789 C780 1.429 . S
C789 N786 1.350 . S
C789 C788 1.434 . S
C790 C791 1.369 . S
C790 C792 1.419 . S
C790 H794 0.930 . S
C791 C790 1.369 . S
C791 C800 1.429 . S
C792 C790 1.419 . S
C792 C793 1.363 . S
C792 H795 0.929 . S
C793 C792 1.363 . S
C793 C799 1.428 . S
H794 C790 0.930 . S
H795 C792 0.929 . S
S796 N797 1.613 . S
S796 N798 1.610 . S
N797 S796 1.613 . S
N797 C800 1.350 . S
N798 S796 1.610 . S
N798 C799 1.351 . S
C799 C793 1.428 . S
C799 N798 1.351 . S
C799 C800 1.434 . S
C800 C791 1.429 . S
C800 N797 1.350 . S
C800 C799 1.434 . S
C801 C802 1.369 . S
C801 C803 1.419 . S
C801 H805 0.930 . S
C802 C801 1.369 . S
C802 C811 1.429 . S
C803 C801 1.419 . S
C803 C804 1.363 . S
C803 H806 0.929 . S
C804 C803 1.363 . S
C804 C810 1.428 . S
H805 C801 0.930 . S
H806 C803 0.929 . S
S807 N808 1.613 . S
S807 N809 1.610 . S
N808 S807 1.613 . S
N808 C811 1.350 . S
N809 S807 1.610 . S
N809 C810 1.351 . S
C810 C804 1.428 . S
C810 N809 1.351 . S
C810 C811 1.434 . S
C811 C802 1.429 . S
C811 N808 1.350 . S
C811 C810 1.434 . S
C812 C813 1.369 . S
C812 C814 1.419 . S
C812 H816 0.930 . S
C813 C812 1.369 . S
C813 C822 1.429 . S
C814 C812 1.419 . S
C814 C815 1.363 . S
C814 H817 0.929 . S
C815 C814 1.363 . S
C815 C821 1.428 . S
H816 C812 0.930 . S
H817 C814 0.929 . S
S818 N819 1.613 . S
S818 N820 1.610 . S
N819 S818 1.613 . S
N819 C822 1.350 . S
N820 S818 1.610 . S
N820 C821 1.351 . S
C821 C815 1.428 . S
C821 N820 1.351 . S
C821 C822 1.434 . S
C822 C813 1.429 . S
C822 N819 1.350 . S
C822 C821 1.434 . S
C823 C824 1.369 . S
C823 C825 1.419 . S
C823 H827 0.930 . S
C824 C823 1.369 . S
C824 C833 1.429 . S
C825 C823 1.419 . S
C825 C826 1.363 . S
C825 H828 0.929 . S
C826 C825 1.363 . S
C826 C832 1.428 . S
H827 C823 0.930 . S
H828 C825 0.929 . S
S829 N830 1.613 . S
S829 N831 1.610 . S
N830 S829 1.613 . S
N830 C833 1.350 . S
N831 S829 1.610 . S
N831 C832 1.351 . S
C832 C826 1.428 . S
C832 N831 1.351 . S
C832 C833 1.434 . S
C833 C824 1.429 . S
C833 N830 1.350 . S
C833 C832 1.434 . S
C834 C835 1.369 . S
C834 C836 1.419 . S
C834 H838 0.930 . S
C835 C834 1.369 . S
C835 C844 1.429 . S
C836 C834 1.419 . S
C836 C837 1.363 . S
C836 H839 0.929 . S
C837 C836 1.363 . S
C837 C843 1.428 . S
H838 C834 0.930 . S
H839 C836 0.929 . S
S840 N841 1.613 . S
S840 N842 1.610 . S
N841 S840 1.613 . S
N841 C844 1.350 . S
N842 S840 1.610 . S
N842 C843 1.351 . S
C843 C837 1.428 . S
C843 N842 1.351 . S
C843 C844 1.434 . S
C844 C835 1.429 . S
C844 N841 1.350 . S
C844 C843 1.434 . S
C845 C846 1.369 . S
C845 C847 1.419 . S
C845 H849 0.930 . S
C846 C845 1.369 . S
C846 C855 1.429 . S
C847 C845 1.419 . S
C847 C848 1.363 . S
C847 H850 0.929 . S
C848 C847 1.363 . S
C848 C854 1.428 . S
H849 C845 0.930 . S
H850 C847 0.929 . S
S851 N852 1.613 . S
S851 N853 1.610 . S
N852 S851 1.613 . S
N852 C855 1.350 . S
N853 S851 1.610 . S
N853 C854 1.351 . S
C854 C848 1.428 . S
C854 N853 1.351 . S
C854 C855 1.434 . S
C855 C846 1.429 . S
C855 N852 1.350 . S
C855 C854 1.434 . S
C856 C857 1.369 . S
C856 C858 1.419 . S
C856 H860 0.930 . S
C857 C856 1.369 . S
C857 C866 1.429 . S
C858 C856 1.419 . S
C858 C859 1.363 . S
C858 H861 0.929 . S
C859 C858 1.363 . S
C859 C865 1.428 . S
H860 C856 0.930 . S
H861 C858 0.929 . S
S862 N863 1.613 . S
S862 N864 1.610 . S
N863 S862 1.613 . S
N863 C866 1.350 . S
N864 S862 1.610 . S
N864 C865 1.351 . S
C865 C859 1.428 . S
C865 N864 1.351 . S
C865 C866 1.434 . S
C866 C857 1.429 . S
C866 N863 1.350 . S
C866 C865 1.434 . S
C867 C868 1.369 . S
C867 C869 1.419 . S
C867 H871 0.930 . S
C868 C867 1.369 . S
C868 C877 1.429 . S
C869 C867 1.419 . S
C869 C870 1.363 . S
C869 H872 0.929 . S
C870 C869 1.363 . S
C870 C876 1.428 . S
H871 C867 0.930 . S
H872 C869 0.929 . S
S873 N874 1.613 1_556 S
S873 N875 1.610 1_556 S
N874 S873 1.613 1_554 S
N874 C877 1.350 . S
N875 S873 1.610 1_554 S
N875 C876 1.351 . S
C876 C870 1.428 . S
C876 N875 1.351 . S
C876 C877 1.434 . S
C877 C868 1.429 . S
C877 N874 1.350 . S
C877 C876 1.434 . S
C878 C879 1.369 . S
C878 C880 1.419 . S
C878 H882 0.930 . S
C879 C878 1.369 . S
C879 C888 1.429 . S
C880 C878 1.419 . S
C880 C881 1.363 . S
C880 H883 0.929 . S
C881 C880 1.363 . S
C881 C887 1.428 . S
H882 C878 0.930 . S
H883 C880 0.929 . S
S884 N885 1.613 . S
S884 N886 1.610 . S
N885 S884 1.613 . S
N885 C888 1.350 . S
N886 S884 1.610 . S
N886 C887 1.351 . S
C887 C881 1.428 . S
C887 N886 1.351 . S
C887 C888 1.434 . S
C888 C879 1.429 . S
C888 N885 1.350 . S
C888 C887 1.434 . S
C889 C890 1.369 . S
C889 C891 1.419 . S
C889 H893 0.930 . S
C890 C889 1.369 . S
C890 C899 1.429 . S
C891 C889 1.419 . S
C891 C892 1.363 . S
C891 H894 0.929 . S
C892 C891 1.363 . S
C892 C898 1.428 . S
H893 C889 0.930 . S
H894 C891 0.929 . S
S895 N896 1.613 . S
S895 N897 1.610 . S
N896 S895 1.613 . S
N896 C899 1.350 . S
N897 S895 1.610 . S
N897 C898 1.351 . S
C898 C892 1.428 . S
C898 N897 1.351 . S
C898 C899 1.434 . S
C899 C890 1.429 . S
C899 N896 1.350 . S
C899 C898 1.434 . S
C900 C901 1.369 . S
C900 C902 1.419 . S
C900 H904 0.930 . S
C901 C900 1.369 . S
C901 C910 1.429 . S
C902 C900 1.419 . S
C902 C903 1.363 . S
C902 H905 0.929 . S
C903 C902 1.363 . S
C903 C909 1.428 . S
H904 C900 0.930 . S
H905 C902 0.929 . S
S906 N907 1.613 . S
S906 N908 1.610 . S
N907 S906 1.613 . S
N907 C910 1.350 . S
N908 S906 1.610 . S
N908 C909 1.351 . S
C909 C903 1.428 . S
C909 N908 1.351 . S
C909 C910 1.434 . S
C910 C901 1.429 . S
C910 N907 1.350 . S
C910 C909 1.434 . S
C911 C912 1.369 . S
C911 C913 1.419 . S
C911 H915 0.930 . S
C912 C911 1.369 . S
C912 C921 1.429 . S
C913 C911 1.419 . S
C913 C914 1.363 . S
C913 H916 0.929 . S
C914 C913 1.363 . S
C914 C920 1.428 . S
H915 C911 0.930 . S
H916 C913 0.929 . S
S917 N918 1.613 . S
S917 N919 1.610 . S
N918 S917 1.613 . S
N918 C921 1.350 . S
N919 S917 1.610 . S
N919 C920 1.351 . S
C920 C914 1.428 . S
C920 N919 1.351 . S
C920 C921 1.434 . S
C921 C912 1.429 . S
C921 N918 1.350 . S
C921 C920 1.434 . S
C922 C923 1.369 . S
C922 C924 1.419 . S
C922 H926 0.930 . S
C923 C922 1.369 . S
C923 C932 1.429 . S
C924 C922 1.419 . S
C924 C925 1.363 . S
C924 H927 0.929 . S
C925 C924 1.363 . S
C925 C931 1.428 . S
H926 C922 0.930 . S
H927 C924 0.929 . S
S928 N929 1.613 . S
S928 N930 1.610 . S
N929 S928 1.613 . S
N929 C932 1.350 . S
N930 S928 1.610 . S
N930 C931 1.351 . S
C931 C925 1.428 . S
C931 N930 1.351 . S
C931 C932 1.434 . S
C932 C923 1.429 . S
C932 N929 1.350 . S
C932 C931 1.434 . S
C933 C934 1.369 . S
C933 C935 1.419 1_556 S
C933 H937 0.930 . S
C934 C933 1.369 . S
C934 C943 1.429 . S
C935 C933 1.419 1_554 S
C935 C936 1.363 . S
C935 H938 0.929 . S
C936 C935 1.363 . S
C936 C942 1.428 1_554 S
H937 C933 0.930 . S
H938 C935 0.929 . S
S939 N940 1.613 . S
S939 N941 1.640 . S
N940 S939 1.613 . S
N940 C943 1.350 . S
N941 S939 1.640 . S
N941 C942 1.356 . S
C942 C936 1.428 1_556 S
C942 N941 1.356 . S
C942 C943 1.434 . S
C943 C934 1.429 . S
C943 N940 1.350 . S
C943 C942 1.434 . S
C944 C945 1.369 . S
C944 C946 1.419 . S
C944 H948 0.930 . S
C945 C944 1.369 . S
C945 C954 1.429 . S
C946 C944 1.419 . S
C946 C947 1.363 . S
C946 H949 0.929 . S
C947 C946 1.363 . S
C947 C953 1.428 . S
H948 C944 0.930 . S
H949 C946 0.929 . S
S950 N951 1.613 . S
S950 N952 1.610 . S
N951 S950 1.613 . S
N951 C954 1.350 . S
N952 S950 1.610 . S
N952 C953 1.351 . S
C953 C947 1.428 . S
C953 N952 1.351 . S
C953 C954 1.434 . S
C954 C945 1.429 . S
C954 N951 1.350 . S
C954 C953 1.434 . S
C955 C956 1.369 . S
C955 C957 1.419 . S
C955 H959 0.930 . S
C956 C955 1.369 . S
C956 C965 1.429 . S
C957 C955 1.419 . S
C957 C958 1.363 . S
C957 H960 0.929 . S
C958 C957 1.363 . S
C958 C964 1.428 . S
H959 C955 0.930 . S
H960 C957 0.929 . S
S961 N962 1.613 . S
S961 N963 1.610 . S
N962 S961 1.613 . S
N962 C965 1.350 . S
N963 S961 1.610 . S
N963 C964 1.351 . S
C964 C958 1.428 . S
C964 N963 1.351 . S
C964 C965 1.434 . S
C965 C956 1.429 . S
C965 N962 1.350 . S
C965 C964 1.434 . S
C966 C967 1.369 . S
C966 C968 1.419 . S
C966 H970 0.930 . S
C967 C966 1.369 . S
C967 C976 1.429 . S
C968 C966 1.419 . S
C968 C969 1.363 . S
C968 H971 0.929 . S
C969 C968 1.363 . S
C969 C975 1.428 . S
H970 C966 0.930 . S
H971 C968 0.929 . S
S972 N973 1.613 . S
S972 N974 1.610 . S
N973 S972 1.613 . S
N973 C976 1.350 . S
N974 S972 1.610 . S
N974 C975 1.351 . S
C975 C969 1.428 . S
C975 N974 1.351 . S
C975 C976 1.434 . S
C976 C967 1.429 . S
C976 N973 1.350 . S
C976 C975 1.434 . S
C977 C978 1.369 . S
C977 C979 1.419 . S
C977 H981 0.930 . S
C978 C977 1.369 . S
C978 C987 1.429 . S
C979 C977 1.419 . S
C979 C980 1.363 . S
C979 H982 0.929 . S
C980 C979 1.363 . S
C980 C986 1.428 . S
H981 C977 0.930 . S
H982 C979 0.929 . S
S983 N984 1.613 . S
S983 N985 1.610 . S
N984 S983 1.613 . S
N984 C987 1.350 . S
N985 S983 1.610 . S
N985 C986 1.351 . S
C986 C980 1.428 . S
C986 N985 1.351 . S
C986 C987 1.434 . S
C987 C978 1.429 . S
C987 N984 1.350 . S
C987 C986 1.434 . S
C988 C989 1.369 . S
C988 C990 1.419 . S
C988 H992 0.930 . S
C989 C988 1.369 . S
C989 C998 1.429 . S
C990 C988 1.419 . S
C990 C991 1.363 . S
C990 H993 0.929 . S
C991 C990 1.363 . S
C991 C997 1.428 . S
H992 C988 0.930 . S
H993 C990 0.929 . S
S994 N995 1.613 . S
S994 N996 1.610 . S
N995 S994 1.613 . S
N995 C998 1.350 . S
N996 S994 1.610 . S
N996 C997 1.351 . S
C997 C991 1.428 . S
C997 N996 1.351 . S
C997 C998 1.434 . S
C998 C989 1.429 . S
C998 N995 1.350 . S
C998 C997 1.434 . S
C999 C1000 1.369 . S
C999 C1001 1.419 . S
C999 H1003 0.930 . S
C1000 C999 1.369 . S
C1000 C1009 1.429 . S
C1001 C999 1.419 . S
C1001 C1002 1.363 . S
C1001 H1004 0.929 . S
C1002 C1001 1.363 . S
C1002 C1008 1.428 . S
H1003 C999 0.930 . S
H1004 C1001 0.929 . S
S1005 N1006 1.613 . S
S1005 N1007 1.610 . S
N1006 S1005 1.613 . S
N1006 C1009 1.350 . S
N1007 S1005 1.610 . S
N1007 C1008 1.351 . S
C1008 C1002 1.428 . S
C1008 N1007 1.351 . S
C1008 C1009 1.434 . S
C1009 C1000 1.429 . S
C1009 N1006 1.350 . S
C1009 C1008 1.434 . S
C1010 C1011 1.369 1_556 S
C1010 C1012 1.419 . S
C1010 H1014 0.940 . S
C1011 C1010 1.369 1_554 S
C1011 C1020 1.429 . S
C1012 C1010 1.419 . S
C1012 C1013 1.363 . S
C1012 H1015 0.929 . S
C1013 C1012 1.363 . S
C1013 C1019 1.428 . S
H1014 C1010 0.940 . S
H1015 C1012 0.929 . S
S1016 N1017 1.636 . S
S1016 N1018 1.577 1_554 S
N1017 S1016 1.636 . S
N1017 C1020 1.350 . S
N1018 S1016 1.577 1_556 S
N1018 C1019 1.351 . S
C1019 C1013 1.428 . S
C1019 N1018 1.351 . S
C1019 C1020 1.434 1_556 S
C1020 C1011 1.429 . S
C1020 N1017 1.350 . S
C1020 C1019 1.434 1_554 S
C1021 C1022 1.369 . S
C1021 C1023 1.419 . S
C1021 H1025 0.930 . S
C1022 C1021 1.369 . S
C1022 C1031 1.429 . S
C1023 C1021 1.419 . S
C1023 C1024 1.363 . S
C1023 H1026 0.929 . S
C1024 C1023 1.363 . S
C1024 C1030 1.428 . S
H1025 C1021 0.930 . S
H1026 C1023 0.929 . S
S1027 N1028 1.613 . S
S1027 N1029 1.610 . S
N1028 S1027 1.613 . S
N1028 C1031 1.350 . S
N1029 S1027 1.610 . S
N1029 C1030 1.351 . S
C1030 C1024 1.428 . S
C1030 N1029 1.351 . S
C1030 C1031 1.434 . S
C1031 C1022 1.429 . S
C1031 N1028 1.350 . S
C1031 C1030 1.434 . S
C771 C757 1.750 . S
C769 C1 1.356 . S
C780 C169 1.605 . S
C782 C687 1.844 . S
C791 C283 1.625 . S
C793 C706 1.853 . S
C802 C397 1.499 . S
C804 C715 1.734 . S
C815 C729 1.591 . S
C813 C457 1.234 . S
C824 C571 1.277 . S
C826 C748 1.684 . S
C835 C115 1.313 . S
C837 C701 1.725 . S
C846 C229 1.246 . S
C848 C720 1.645 . S
C857 C343 1.216 . S
C859 C734 1.619 . S
C870 C743 1.662 . S
C868 C511 1.408 . S
C881 C762 1.849 . S
C879 C625 1.607 . S
C892 C692 1.833 . S
C890 C55 1.607 . S
C901 C29 1.170 . S
C903 C707 1.460 . S
C912 C125 0.890 . S
C914 C719 1.523 . S
C925 C733 1.469 . S
C923 C239 0.905 . S
C934 C353 0.923 . S
C936 C749 1.467 . S
C947 C761 1.400 . S
C945 C485 1.115 . S
C958 C691 1.455 . S
C956 C599 1.151 . S
C969 C763 1.470 . S
C967 C143 1.191 . S
C978 C257 1.166 . S
C980 C693 1.497 . S
C991 C705 1.413 . S
C989 C371 1.096 . S
C1000 C467 0.917 . S
C1002 C721 1.469 . S
C1011 C581 0.950 . S
C1013 C735 1.491 . S
C1022 C11 0.942 . S
C1024 C747 1.528 . S
