# Generated by pormake.
# Topology pyr, (3,6)-cn, num edge types: 1
# Building blocks:
#     Node 0, Type 0, BuildingBlock: VETTIZ_charged_linker_0, # of connection points: 3
#     Node 1, Type 0, BuildingBlock: VETTIZ_charged_linker_0, # of connection points: 3
#     Node 2, Type 0, BuildingBlock: VETTIZ_charged_linker_0, # of connection points: 3
#     Node 3, Type 0, BuildingBlock: VETTIZ_charged_linker_0, # of connection points: 3
#     Node 4, Type 0, BuildingBlock: VETTIZ_charged_linker_0, # of connection points: 3
#     Node 5, Type 0, BuildingBlock: VETTIZ_charged_linker_0, # of connection points: 3
#     Node 6, Type 0, BuildingBlock: VETTIZ_charged_linker_0, # of connection points: 3
#     Node 7, Type 0, BuildingBlock: VETTIZ_charged_linker_0, # of connection points: 3
#     Node 8, Type 1, BuildingBlock: PAMTOO_clean_sbu_0, # of connection points: 6
#     Node 9, Type 1, BuildingBlock: PAMTOO_clean_sbu_0, # of connection points: 6
#     Node 10, Type 1, BuildingBlock: PAMTOO_clean_sbu_0, # of connection points: 6
#     Node 11, Type 1, BuildingBlock: PAMTOO_clean_sbu_0, # of connection points: 6
#     Edge 12, Type (0, 1), BuildingBlock: KIFKEQ_clean_linker_1, # of connection points: 2
#     Edge 13, Type (0, 1), BuildingBlock: KIFKEQ_clean_linker_1, # of connection points: 2
#     Edge 14, Type (0, 1), BuildingBlock: KIFKEQ_clean_linker_1, # of connection points: 2
#     Edge 15, Type (0, 1), BuildingBlock: KIFKEQ_clean_linker_1, # of connection points: 2
#     Edge 16, Type (0, 1), BuildingBlock: KIFKEQ_clean_linker_1, # of connection points: 2
#     Edge 17, Type (0, 1), BuildingBlock: KIFKEQ_clean_linker_1, # of connection points: 2
#     Edge 18, Type (0, 1), BuildingBlock: KIFKEQ_clean_linker_1, # of connection points: 2
#     Edge 19, Type (0, 1), BuildingBlock: KIFKEQ_clean_linker_1, # of connection points: 2
#     Edge 20, Type (0, 1), BuildingBlock: KIFKEQ_clean_linker_1, # of connection points: 2
#     Edge 21, Type (0, 1), BuildingBlock: KIFKEQ_clean_linker_1, # of connection points: 2
#     Edge 22, Type (0, 1), BuildingBlock: KIFKEQ_clean_linker_1, # of connection points: 2
#     Edge 23, Type (0, 1), BuildingBlock: KIFKEQ_clean_linker_1, # of connection points: 2
#     Edge 24, Type (0, 1), BuildingBlock: KIFKEQ_clean_linker_1, # of connection points: 2
#     Edge 25, Type (0, 1), BuildingBlock: KIFKEQ_clean_linker_1, # of connection points: 2
#     Edge 26, Type (0, 1), BuildingBlock: KIFKEQ_clean_linker_1, # of connection points: 2
#     Edge 27, Type (0, 1), BuildingBlock: KIFKEQ_clean_linker_1, # of connection points: 2
#     Edge 28, Type (0, 1), BuildingBlock: KIFKEQ_clean_linker_1, # of connection points: 2
#     Edge 29, Type (0, 1), BuildingBlock: KIFKEQ_clean_linker_1, # of connection points: 2
#     Edge 30, Type (0, 1), BuildingBlock: KIFKEQ_clean_linker_1, # of connection points: 2
#     Edge 31, Type (0, 1), BuildingBlock: KIFKEQ_clean_linker_1, # of connection points: 2
#     Edge 32, Type (0, 1), BuildingBlock: KIFKEQ_clean_linker_1, # of connection points: 2
#     Edge 33, Type (0, 1), BuildingBlock: KIFKEQ_clean_linker_1, # of connection points: 2
#     Edge 34, Type (0, 1), BuildingBlock: KIFKEQ_clean_linker_1, # of connection points: 2
#     Edge 35, Type (0, 1), BuildingBlock: KIFKEQ_clean_linker_1, # of connection points: 2
# Relax obj value: 0.090
# Max RMSD: 0.157
# Mean RMSD: 0.068
data_MOF--net-pyr--node1-PAMTOO_clean_sbu_0--node2-VETTIZ_charged_linker_0--edge1-KIFKEQ_clean_linker_1
_symmetry_space_group_name_H-M    P1
_symmetry_Int_Tables_number       1
_symmetry_cell_setting            triclinic
loop_
_symmetry_equiv_pos_as_xyz
'x, y, z'
_cell_length_a     46.194347
_cell_length_b     47.69315
_cell_length_c     46.712366
_cell_angle_alpha  89.934477
_cell_angle_beta   89.924744
_cell_angle_gamma 102.44943
loop_
_atom_site_label
_atom_site_type_symbol
_atom_site_fract_x
_atom_site_fract_y
_atom_site_fract_z
_atom_type_partial_charge
C0 C 0.29579 0.24523 0.33264 0.0
C1 C 0.27365 0.25691 0.34588 0.0
C2 C 0.26383 0.27949 0.33213 0.0
C3 C 0.29329 0.27423 0.29044 0.0
C4 C 0.30526 0.25417 0.30493 0.0
C5 C 0.32642 0.24207 0.28649 0.0
H6 H 0.37096 0.21581 0.1538 0.0
C7 C 0.30331 0.27489 0.26041 0.0
C8 C 0.32297 0.25637 0.25792 0.0
H9 H 0.40452 0.19189 0.23479 0.0
H10 H 0.37409 0.21888 0.25993 0.0
H11 H 0.37744 0.28328 0.1726 0.0
H12 H 0.30383 0.21022 0.17193 0.0
H13 H 0.29108 0.24007 0.15923 0.0
H14 H 0.31947 0.22759 0.13961 0.0
H15 H 0.36055 0.2679 0.14 0.0
H16 H 0.34621 0.29465 0.15942 0.0
C17 C 0.35813 0.25195 0.29887 0.0
C18 C 0.31544 0.20904 0.28506 0.0
C19 C 0.25158 0.325 0.18708 0.0
C20 C 0.25066 0.32459 0.15705 0.0
C21 C 0.26907 0.30967 0.14196 0.0
C22 C 0.28793 0.29515 0.15671 0.0
C23 C 0.28805 0.29523 0.18685 0.0
C24 C 0.27011 0.31012 0.20144 0.0
C25 C 0.27135 0.3064 0.23328 0.0
C26 C 0.29336 0.2871 0.23556 0.0
C27 C 0.30325 0.28074 0.20837 0.0
C28 C 0.28383 0.33622 0.24673 0.0
C29 C 0.23984 0.29156 0.24399 0.0
C30 C 0.37222 0.21657 0.17692 0.0
C31 C 0.38989 0.20096 0.19217 0.0
C32 C 0.39049 0.20278 0.22236 0.0
C33 C 0.373 0.21868 0.23702 0.0
C34 C 0.3547 0.23311 0.22147 0.0
C35 C 0.35526 0.23275 0.19194 0.0
C36 C 0.33589 0.25111 0.17907 0.0
C37 C 0.32358 0.26238 0.20584 0.0
C38 C 0.33406 0.25104 0.23056 0.0
C39 C 0.35583 0.27549 0.16164 0.0
C40 C 0.31131 0.23146 0.16132 0.0
H41 H 0.26426 0.30459 0.29469 0.0
H42 H 0.30395 0.22799 0.34269 0.0
H43 H 0.29135 0.20335 0.28003 0.0
H44 H 0.3266 0.19894 0.26836 0.0
H45 H 0.3189 0.1989 0.30583 0.0
H46 H 0.35994 0.27081 0.31328 0.0
H47 H 0.36472 0.23458 0.31148 0.0
H48 H 0.37485 0.2592 0.28187 0.0
H49 H 0.23712 0.3356 0.19931 0.0
H50 H 0.26871 0.30911 0.11878 0.0
H51 H 0.30126 0.28397 0.1441 0.0
H52 H 0.30226 0.34863 0.23349 0.0
H53 H 0.26643 0.34901 0.24821 0.0
H54 H 0.29347 0.33479 0.26818 0.0
H55 H 0.22579 0.28028 0.22639 0.0
H56 H 0.24024 0.2745 0.25994 0.0
H57 H 0.228 0.30736 0.25328 0.0
H58 H 0.24744 0.28944 0.34219 0.0
C59 C 0.27356 0.28823 0.30453 0.0
C60 C 0.12413 0.81681 0.67428 0.0
C61 C 0.10636 0.83328 0.68804 0.0
C62 C 0.10306 0.83144 0.71801 0.0
C63 C 0.13822 0.80061 0.72045 0.0
C64 C 0.13984 0.8006 0.69092 0.0
C65 C 0.16134 0.78327 0.68022 0.0
H66 H 0.27097 0.714 0.71115 0.0
C67 C 0.1596 0.78447 0.73171 0.0
C68 C 0.1728 0.77361 0.70826 0.0
H69 H 0.23915 0.73112 0.62735 0.0
H70 H 0.20018 0.75079 0.64923 0.0
H71 H 0.27376 0.76875 0.73492 0.0
H72 H 0.20434 0.69394 0.74269 0.0
H73 H 0.21011 0.70988 0.77685 0.0
H74 H 0.24038 0.69891 0.75876 0.0
H75 H 0.27284 0.74465 0.76441 0.0
H76 H 0.2558 0.77526 0.76642 0.0
C77 C 0.18602 0.80357 0.66306 0.0
C78 C 0.14383 0.75761 0.66277 0.0
C79 C 0.19192 0.79808 0.83521 0.0
C80 C 0.21663 0.79183 0.84948 0.0
C81 C 0.23055 0.77089 0.8377 0.0
C82 C 0.22225 0.75902 0.81077 0.0
C83 C 0.20034 0.76865 0.79511 0.0
C84 C 0.18459 0.78679 0.80785 0.0
C85 C 0.16311 0.79587 0.78743 0.0
C86 C 0.16989 0.78143 0.75994 0.0
C87 C 0.19186 0.76574 0.76462 0.0
C88 C 0.17124 0.82912 0.78512 0.0
C89 C 0.13117 0.78348 0.79827 0.0
C90 C 0.2556 0.72193 0.69742 0.0
C91 C 0.25845 0.72148 0.66752 0.0
C92 C 0.2375 0.73137 0.65048 0.0
C93 C 0.21506 0.74295 0.66323 0.0
C94 C 0.21374 0.74482 0.69328 0.0
C95 C 0.23351 0.73384 0.70975 0.0
C96 C 0.23006 0.73856 0.74118 0.0
C97 C 0.20473 0.75413 0.74108 0.0
C98 C 0.19523 0.75786 0.71302 0.0
C99 C 0.25952 0.7576 0.75252 0.0
C100 C 0.22092 0.70884 0.75588 0.0
H101 H 0.11574 0.81495 0.75699 0.0
H102 H 0.12694 0.81768 0.65124 0.0
H103 H 0.12165 0.74916 0.67248 0.0
H104 H 0.15474 0.73917 0.66247 0.0
H105 H 0.14032 0.7641 0.64041 0.0
H106 H 0.19248 0.82481 0.67381 0.0
H107 H 0.17837 0.80727 0.64112 0.0
H108 H 0.20667 0.79565 0.66144 0.0
H109 H 0.18015 0.81341 0.84405 0.0
H110 H 0.24952 0.76538 0.84807 0.0
H111 H 0.23464 0.74429 0.80238 0.0
H112 H 0.19568 0.83689 0.78329 0.0
H113 H 0.16372 0.83922 0.80437 0.0
H114 H 0.16198 0.83766 0.76616 0.0
H115 H 0.13014 0.76412 0.81188 0.0
H116 H 0.11556 0.77602 0.78049 0.0
H117 H 0.12267 0.79947 0.81126 0.0
H118 H 0.08893 0.84339 0.72899 0.0
C119 C 0.11864 0.81496 0.73423 0.0
C120 C 0.61862 0.26669 0.90575 0.0
C121 C 0.59165 0.24931 0.89684 0.0
C122 C 0.57586 0.2594 0.87457 0.0
C123 C 0.61434 0.30318 0.87037 0.0
C124 C 0.6293 0.29328 0.89254 0.0
C125 C 0.65711 0.31424 0.9007 0.0
H126 H 0.75254 0.44198 0.88451 0.0
C127 C 0.63189 0.33199 0.86164 0.0
C128 C 0.6568 0.33841 0.87971 0.0
H129 H 0.7564 0.37356 0.94421 0.0
H130 H 0.71135 0.3453 0.92505 0.0
H131 H 0.67999 0.4371 0.88863 0.0
H132 H 0.73498 0.40098 0.8311 0.0
H133 H 0.70605 0.40895 0.81053 0.0
H134 H 0.73163 0.43765 0.82822 0.0
H135 H 0.70495 0.4582 0.8634 0.0
H136 H 0.66775 0.44078 0.85342 0.0
C137 C 0.65367 0.32362 0.93213 0.0
C138 C 0.68369 0.29978 0.89534 0.0
C139 C 0.60029 0.38767 0.77735 0.0
C140 C 0.61275 0.41465 0.76493 0.0
C141 C 0.63919 0.43091 0.77679 0.0
C142 C 0.65276 0.42092 0.8004 0.0
C143 C 0.64004 0.39417 0.81261 0.0
C144 C 0.61423 0.37792 0.80114 0.0
C145 C 0.60397 0.35004 0.81734 0.0
C146 C 0.62818 0.35206 0.8399 0.0
C147 C 0.6492 0.37817 0.83703 0.0
C148 C 0.57349 0.35014 0.83098 0.0
C149 C 0.60358 0.32488 0.79643 0.0
C150 C 0.74339 0.42098 0.89349 0.0
C151 C 0.75807 0.40994 0.91592 0.0
C152 C 0.74571 0.38241 0.9268 0.0
C153 C 0.71939 0.36603 0.91565 0.0
C154 C 0.70505 0.37705 0.89312 0.0
C155 C 0.71706 0.40402 0.88225 0.0
C156 C 0.69902 0.41144 0.85753 0.0
C157 C 0.67402 0.38471 0.85586 0.0
C158 C 0.67775 0.36482 0.8769 0.0
C159 C 0.68736 0.43841 0.86588 0.0
C160 C 0.7188 0.4152 0.83036 0.0
H161 H 0.57425 0.29251 0.84423 0.0
H162 H 0.63104 0.25998 0.92318 0.0
H163 H 0.67938 0.28484 0.87679 0.0
H164 H 0.7043 0.31529 0.88957 0.0
H165 H 0.68794 0.28715 0.91427 0.0
H166 H 0.63013 0.3237 0.93719 0.0
H167 H 0.66106 0.3088 0.94748 0.0
H168 H 0.66573 0.34582 0.93655 0.0
H169 H 0.57991 0.37464 0.76906 0.0
H170 H 0.64974 0.45141 0.76756 0.0
H171 H 0.67277 0.43448 0.80821 0.0
H172 H 0.57287 0.37185 0.83932 0.0
H173 H 0.5554 0.34417 0.81503 0.0
H174 H 0.56855 0.33565 0.8496 0.0
H175 H 0.62415 0.32889 0.78326 0.0
H176 H 0.6028 0.30429 0.80748 0.0
H177 H 0.58437 0.32228 0.78165 0.0
H178 H 0.55497 0.24645 0.86728 0.0
C179 C 0.58713 0.28611 0.86118 0.0
C180 C 0.91187 0.7735 0.38527 0.0
C181 C 0.9006 0.78866 0.40707 0.0
C182 C 0.87382 0.77568 0.42061 0.0
C183 C 0.86948 0.73348 0.39078 0.0
C184 C 0.8957 0.74604 0.37722 0.0
C185 C 0.90313 0.72707 0.35357 0.0
H186 H 0.86182 0.60528 0.27377 0.0
C187 C 0.8577 0.70522 0.37744 0.0
C188 C 0.87706 0.70125 0.35534 0.0
H189 H 0.94203 0.67136 0.2659 0.0
H190 H 0.92688 0.69661 0.30584 0.0
H191 H 0.86667 0.60138 0.34283 0.0
H192 H 0.81647 0.64641 0.28835 0.0
H193 H 0.79319 0.62923 0.31596 0.0
H194 H 0.8089 0.60793 0.29094 0.0
H195 H 0.83474 0.58296 0.32336 0.0
H196 H 0.83141 0.59831 0.35818 0.0
C197 C 0.93283 0.71884 0.36108 0.0
C198 C 0.90358 0.74342 0.32491 0.0
C199 C 0.76296 0.64321 0.41736 0.0
C200 C 0.74569 0.61615 0.41005 0.0
C201 C 0.75453 0.60152 0.3864 0.0
C202 C 0.78021 0.61353 0.37062 0.0
C203 C 0.79734 0.64054 0.37844 0.0
C204 C 0.78843 0.65486 0.40143 0.0
C205 C 0.80878 0.68347 0.40659 0.0
C206 C 0.83187 0.6838 0.38338 0.0
C207 C 0.82515 0.65869 0.36683 0.0
C208 C 0.82215 0.68293 0.43698 0.0
C209 C 0.79085 0.70716 0.40188 0.0
C210 C 0.87639 0.62502 0.28064 0.0
C211 C 0.90308 0.63629 0.26588 0.0
C212 C 0.92097 0.66231 0.27596 0.0
C213 C 0.91226 0.67698 0.29945 0.0
C214 C 0.88539 0.66562 0.31353 0.0
C215 C 0.8682 0.63979 0.30433 0.0
C216 C 0.84103 0.63018 0.32272 0.0
C217 C 0.84434 0.65478 0.34397 0.0
C218 C 0.87032 0.67573 0.33841 0.0
C219 C 0.84325 0.60162 0.3375 0.0
C220 C 0.81329 0.62808 0.30364 0.0
H221 H 0.83822 0.73982 0.4241 0.0
H222 H 0.93234 0.78304 0.37438 0.0
H223 H 0.88474 0.75451 0.32387 0.0
H224 H 0.90098 0.72919 0.30608 0.0
H225 H 0.92443 0.75996 0.32255 0.0
H226 H 0.93435 0.7151 0.38449 0.0
H227 H 0.95198 0.73621 0.35492 0.0
H228 H 0.93527 0.69857 0.35095 0.0
H229 H 0.75658 0.65539 0.43495 0.0
H230 H 0.74179 0.58058 0.38032 0.0
H231 H 0.78574 0.60131 0.35294 0.0
H232 H 0.82712 0.66156 0.44162 0.0
H233 H 0.80645 0.68717 0.45363 0.0
H234 H 0.84352 0.69834 0.43962 0.0
H235 H 0.77195 0.6999 0.38697 0.0
H236 H 0.80416 0.72666 0.39162 0.0
H237 H 0.78155 0.71321 0.42233 0.0
H238 H 0.86488 0.78676 0.43761 0.0
C239 C 0.85836 0.7483 0.41273 0.0
C240 C 0.73599 0.72563 0.91753 0.0
C241 C 0.75547 0.71067 0.90423 0.0
C242 C 0.75563 0.70865 0.87415 0.0
C243 C 0.71921 0.73809 0.87092 0.0
C244 C 0.71774 0.7388 0.90044 0.0
C245 C 0.69522 0.7552 0.91068 0.0
H246 H 0.59931 0.83993 0.87809 0.0
C247 C 0.69885 0.75512 0.85929 0.0
C248 C 0.684 0.76459 0.88238 0.0
H249 H 0.62308 0.81395 0.96208 0.0
H250 H 0.65319 0.78414 0.94055 0.0
H251 H 0.59442 0.77644 0.84567 0.0
H252 H 0.65894 0.85487 0.85556 0.0
H253 H 0.66892 0.8409 0.82331 0.0
H254 H 0.63313 0.85 0.8265 0.0
H255 H 0.59223 0.81018 0.82968 0.0
H256 H 0.61112 0.78564 0.81199 0.0
C257 C 0.67062 0.7342 0.92723 0.0
C258 C 0.71167 0.78107 0.92856 0.0
C259 C 0.71029 0.78866 0.75623 0.0
C260 C 0.69794 0.8087 0.74102 0.0
C261 C 0.67246 0.81667 0.75206 0.0
C262 C 0.6614 0.80723 0.77913 0.0
C263 C 0.6761 0.78983 0.79542 0.0
C264 C 0.69917 0.77965 0.78341 0.0
C265 C 0.7122 0.76148 0.80403 0.0
C266 C 0.69457 0.76432 0.831 0.0
C267 C 0.6737 0.78115 0.82583 0.0
C268 C 0.70578 0.73019 0.79266 0.0
C269 C 0.74562 0.77518 0.80764 0.0
C270 C 0.61091 0.82781 0.89194 0.0
C271 C 0.60881 0.82952 0.92188 0.0
C272 C 0.624 0.81292 0.93895 0.0
C273 C 0.64175 0.7958 0.92641 0.0
C274 C 0.64464 0.79542 0.89646 0.0
C275 C 0.62903 0.811 0.87979 0.0
C276 C 0.63582 0.8094 0.84847 0.0
C277 C 0.65794 0.79007 0.849 0.0
C278 C 0.66304 0.78187 0.87714 0.0
C279 C 0.60693 0.79483 0.8329 0.0
C280 C 0.64976 0.84025 0.83768 0.0
H281 H 0.73909 0.72031 0.8347 0.0
H282 H 0.73504 0.72706 0.94064 0.0
H283 H 0.73336 0.79093 0.91855 0.0
H284 H 0.69959 0.7986 0.92993 0.0
H285 H 0.71612 0.77429 0.95059 0.0
H286 H 0.66636 0.71243 0.91748 0.0
H287 H 0.67706 0.73207 0.9499 0.0
H288 H 0.64903 0.74059 0.92657 0.0
H289 H 0.72984 0.78208 0.74834 0.0
H290 H 0.66211 0.83157 0.74044 0.0
H291 H 0.64284 0.81512 0.78696 0.0
H292 H 0.6873 0.72617 0.77691 0.0
H293 H 0.72552 0.72526 0.78184 0.0
H294 H 0.69848 0.71426 0.80993 0.0
H295 H 0.74895 0.79876 0.81089 0.0
H296 H 0.75579 0.76698 0.82629 0.0
H297 H 0.75838 0.77151 0.78835 0.0
H298 H 0.77049 0.6973 0.86344 0.0
C299 C 0.73755 0.72217 0.85747 0.0
C300 C 0.88315 0.22649 0.42038 0.0
C301 C 0.89861 0.20753 0.40707 0.0
C302 C 0.89652 0.20423 0.37706 0.0
C303 C 0.86238 0.23619 0.37466 0.0
C304 C 0.86503 0.2403 0.40388 0.0
C305 C 0.84496 0.25894 0.41494 0.0
H306 H 0.73615 0.33075 0.38789 0.0
C307 C 0.84009 0.25166 0.36405 0.0
C308 C 0.82983 0.2652 0.38751 0.0
H309 H 0.77491 0.3184 0.46978 0.0
H310 H 0.80888 0.29317 0.44668 0.0
H311 H 0.72951 0.27022 0.36837 0.0
H312 H 0.79864 0.34386 0.34994 0.0
H313 H 0.78933 0.32502 0.31767 0.0
H314 H 0.76145 0.33898 0.3366 0.0
H315 H 0.72563 0.2951 0.3406 0.0
H316 H 0.74162 0.26439 0.3338 0.0
C317 C 0.82278 0.24101 0.43641 0.0
C318 C 0.86449 0.28647 0.42781 0.0
C319 C 0.80516 0.23804 0.26108 0.0
C320 C 0.78121 0.24546 0.2465 0.0
C321 C 0.76632 0.26507 0.2595 0.0
C322 C 0.77383 0.27548 0.28713 0.0
C323 C 0.7961 0.26587 0.30227 0.0
C324 C 0.81185 0.24805 0.28896 0.0
C325 C 0.83355 0.23866 0.30885 0.0
C326 C 0.82772 0.25332 0.33646 0.0
C327 C 0.80581 0.26921 0.33243 0.0
C328 C 0.82507 0.20541 0.31134 0.0
C329 C 0.86521 0.25078 0.29727 0.0
C330 C 0.75237 0.32312 0.40078 0.0
C331 C 0.75316 0.32677 0.43059 0.0
C332 C 0.77396 0.31577 0.44675 0.0
C333 C 0.79359 0.30115 0.43329 0.0
C334 C 0.79197 0.29702 0.40345 0.0
C335 C 0.77165 0.3081 0.38777 0.0
C336 C 0.77157 0.30031 0.35665 0.0
C337 C 0.79556 0.2831 0.35601 0.0
C338 C 0.8075 0.28119 0.38342 0.0
C339 C 0.74054 0.28171 0.34921 0.0
C340 C 0.78051 0.32841 0.33907 0.0
H341 H 0.87783 0.21469 0.33824 0.0
H342 H 0.88444 0.23003 0.44327 0.0
H343 H 0.88429 0.29444 0.41412 0.0
H344 H 0.85295 0.30443 0.42909 0.0
H345 H 0.87245 0.28226 0.4495 0.0
H346 H 0.81691 0.21804 0.42992 0.0
H347 H 0.83237 0.24197 0.45827 0.0
H348 H 0.80138 0.24772 0.43734 0.0
H349 H 0.81749 0.22346 0.25166 0.0
H350 H 0.74765 0.27111 0.24909 0.0
H351 H 0.76102 0.28959 0.29612 0.0
H352 H 0.8007 0.19732 0.30919 0.0
H353 H 0.83596 0.19507 0.29435 0.0
H354 H 0.83039 0.19735 0.33242 0.0
H355 H 0.86692 0.27253 0.28789 0.0
H356 H 0.88227 0.25374 0.3142 0.0
H357 H 0.87113 0.23676 0.28025 0.0
H358 H 0.90757 0.18953 0.36603 0.0
C359 C 0.87882 0.21863 0.36085 0.0
C360 C 0.40039 0.64731 0.31292 0.0
C361 C 0.38653 0.62071 0.32544 0.0
C362 C 0.35913 0.60614 0.31384 0.0
C363 C 0.36067 0.64325 0.27786 0.0
C364 C 0.387 0.65822 0.28948 0.0
C365 C 0.39805 0.68659 0.27436 0.0
H366 H 0.37741 0.77907 0.16847 0.0
C367 C 0.35269 0.66003 0.25345 0.0
C368 C 0.37449 0.68571 0.25136 0.0
H369 H 0.44763 0.79319 0.23124 0.0
H370 H 0.42808 0.74584 0.25147 0.0
H371 H 0.32582 0.75312 0.21099 0.0
H372 H 0.38028 0.71634 0.15411 0.0
H373 H 0.34552 0.69272 0.1531 0.0
H374 H 0.349 0.72949 0.14164 0.0
H375 H 0.32133 0.75251 0.17285 0.0
H376 H 0.30215 0.72351 0.19518 0.0
C377 C 0.39817 0.71101 0.29614 0.0
C378 C 0.42879 0.68666 0.26125 0.0
C379 C 0.26121 0.61963 0.1921 0.0
C380 C 0.24957 0.63016 0.16733 0.0
C381 C 0.26398 0.65707 0.15632 0.0
C382 C 0.28941 0.67313 0.16933 0.0
C383 C 0.30095 0.66239 0.19382 0.0
C384 C 0.28704 0.63602 0.20483 0.0
C385 C 0.30309 0.62817 0.23084 0.0
C386 C 0.32886 0.65416 0.23339 0.0
C387 C 0.32719 0.67407 0.2117 0.0
C388 C 0.28182 0.62555 0.25684 0.0
C389 C 0.31388 0.60039 0.22389 0.0
C390 C 0.38848 0.77233 0.18685 0.0
C391 C 0.41386 0.79029 0.19847 0.0
C392 C 0.42799 0.7799 0.22182 0.0
C393 C 0.41647 0.75247 0.23367 0.0
C394 C 0.39055 0.73511 0.22205 0.0
C395 C 0.37731 0.74529 0.19886 0.0
C396 C 0.35024 0.72447 0.18871 0.0
C397 C 0.34876 0.70016 0.2099 0.0
C398 C 0.37237 0.70617 0.22951 0.0
C399 C 0.32338 0.739 0.19181 0.0
C400 C 0.35626 0.7153 0.15774 0.0
H401 H 0.3256 0.60475 0.28263 0.0
H402 H 0.42136 0.65939 0.3209 0.0
H403 H 0.42877 0.66573 0.25075 0.0
H404 H 0.43517 0.70309 0.24444 0.0
H405 H 0.44622 0.69016 0.27802 0.0
H406 H 0.37818 0.70592 0.31009 0.0
H407 H 0.41801 0.7141 0.31016 0.0
H408 H 0.39737 0.73163 0.28581 0.0
H409 H 0.25074 0.59899 0.20109 0.0
H410 H 0.25528 0.66601 0.13769 0.0
H411 H 0.29899 0.69344 0.15975 0.0
H412 H 0.26695 0.64098 0.25503 0.0
H413 H 0.26758 0.60363 0.25837 0.0
H414 H 0.29362 0.63101 0.27731 0.0
H415 H 0.32284 0.60122 0.20171 0.0
H416 H 0.33216 0.59715 0.23778 0.0
H417 H 0.29538 0.58123 0.2255 0.0
H418 H 0.34706 0.58629 0.32324 0.0
C419 C 0.34636 0.61708 0.29024 0.0
C420 C 0.0929 0.26854 0.70636 0.0
C421 C 0.10318 0.25534 0.68243 0.0
C422 C 0.12737 0.27099 0.66667 0.0
C423 C 0.13226 0.31106 0.69935 0.0
C424 C 0.10794 0.29642 0.71451 0.0
C425 C 0.10108 0.31391 0.73969 0.0
H426 H 0.14018 0.43473 0.82165 0.0
C427 C 0.14404 0.33872 0.71381 0.0
C428 C 0.12603 0.34073 0.7376 0.0
H429 H 0.06288 0.36577 0.83083 0.0
H430 H 0.07825 0.3416 0.7899 0.0
H431 H 0.13681 0.43901 0.75188 0.0
H432 H 0.18657 0.39398 0.80702 0.0
H433 H 0.20966 0.40947 0.77869 0.0
H434 H 0.19567 0.43238 0.80348 0.0
H435 H 0.16586 0.45735 0.77497 0.0
H436 H 0.17388 0.44518 0.74 0.0
C437 C 0.07028 0.3209 0.73467 0.0
C438 C 0.1032 0.29676 0.76742 0.0
C439 C 0.23775 0.4025 0.67434 0.0
C440 C 0.25717 0.42756 0.68407 0.0
C441 C 0.2495 0.44064 0.70932 0.0
C442 C 0.22341 0.42868 0.72463 0.0
C443 C 0.20474 0.40317 0.71482 0.0
C444 C 0.2123 0.39058 0.6901 0.0
C445 C 0.19129 0.36273 0.68347 0.0
C446 C 0.16943 0.36069 0.70802 0.0
C447 C 0.17705 0.38452 0.72626 0.0
C448 C 0.17646 0.36607 0.65425 0.0
C449 C 0.20899 0.33846 0.68456 0.0
C450 C 0.12669 0.41431 0.815 0.0
C451 C 0.10022 0.40223 0.82965 0.0
C452 C 0.08316 0.37577 0.81987 0.0
C453 C 0.09217 0.36168 0.7961 0.0
C454 C 0.1185 0.37414 0.7816 0.0
C455 C 0.13523 0.40012 0.79106 0.0
C456 C 0.1622 0.41056 0.77261 0.0
C457 C 0.15873 0.38686 0.75033 0.0
C458 C 0.1332 0.36529 0.75584 0.0
C459 C 0.15986 0.43965 0.75918 0.0
C460 C 0.19013 0.41194 0.79128 0.0
H461 H 0.16011 0.30896 0.66188 0.0
H462 H 0.07419 0.2572 0.71878 0.0
H463 H 0.12321 0.2873 0.76689 0.0
H464 H 0.10546 0.31018 0.78684 0.0
H465 H 0.08349 0.27889 0.76992 0.0
H466 H 0.06661 0.32437 0.71151 0.0
H467 H 0.05223 0.30304 0.74212 0.0
H468 H 0.06791 0.34102 0.74515 0.0
H469 H 0.24225 0.39194 0.65485 0.0
H470 H 0.26398 0.45977 0.71771 0.0
H471 H 0.219 0.43952 0.74375 0.0
H472 H 0.17229 0.38808 0.65181 0.0
H473 H 0.19081 0.36238 0.63616 0.0
H474 H 0.15442 0.35162 0.65193 0.0
H475 H 0.22869 0.34423 0.69877 0.0
H476 H 0.19603 0.31824 0.69377 0.0
H477 H 0.2171 0.33406 0.66298 0.0
H478 H 0.13526 0.26179 0.64777 0.0
C479 C 0.14181 0.29857 0.67489 0.0
Dy480 Dy 0.03713 0.02744 0.52886 0.0
Dy481 Dy 0.97334 1.01311 0.56377 0.0
C482 C 0.02488 0.06831 0.57949 0.0
O483 O 0.04297 1.00384 0.56904 0.0
O484 O 0.99587 0.97743 0.57375 0.0
O485 O 0.08475 0.03616 0.53137 0.0
O486 O 0.06317 0.03147 0.48993 0.0
O487 O 0.96561 0.98606 0.52422 0.0
O488 O 0.01356 0.98423 0.51293 0.0
O489 O 0.97146 0.05169 0.53787 0.0
O490 O 0.00841 0.0515 0.50465 0.0
O491 O 0.92557 1.00652 0.5648 0.0
O492 O 0.9503 1.00468 0.60401 0.0
C493 C 0.02431 0.98109 0.57865 0.0
O494 O 0.03712 0.06693 0.55429 0.0
O495 O 0.00389 0.04723 0.58921 0.0
C496 C 0.10929 0.06404 0.49348 0.0
C497 C 0.15036 0.11267 0.47355 0.0
C498 C 0.13056 0.11521 0.49584 0.0
C499 C 0.11012 0.0911 0.50566 0.0
C500 C 0.12894 0.06137 0.47136 0.0
C501 C 0.14925 0.08545 0.46141 0.0
C502 C 0.08824 0.03843 0.50371 0.0
C503 C 0.98483 0.9744 0.51034 0.0
C504 C 0.98519 0.06069 0.51389 0.0
C505 C 0.90178 0.9751 0.60135 0.0
C506 C 0.8564 0.93099 0.62317 0.0
C507 C 0.85099 0.94738 0.59958 0.0
C508 C 0.87344 0.96937 0.58888 0.0
C509 C 0.90753 0.95776 0.62409 0.0
C510 C 0.88504 0.93595 0.63489 0.0
C511 C 0.92415 1.00053 0.5921 0.0
H512 H 0.13095 0.13577 0.5058 0.0
H513 H 0.09501 0.09356 0.52276 0.0
H514 H 0.12847 0.04065 0.46165 0.0
H515 H 0.16368 0.08278 0.4438 0.0
H516 H 0.82902 0.94419 0.59035 0.0
H517 H 0.86835 0.98254 0.57148 0.0
H518 H 0.92911 0.96154 0.63419 0.0
H519 H 0.88982 0.92343 0.65296 0.0
Dy520 Dy 0.47071 1.01408 1.033 0.0
Dy521 Dy 0.53421 0.02869 0.06817 0.0
C522 C 0.482 0.97515 0.08629 0.0
O523 O 0.46366 0.04076 0.07046 0.0
O524 O 0.51151 0.06332 0.0814 0.0
O525 O 0.42304 1.00183 1.03377 0.0
O526 O 0.44622 1.01209 0.99339 0.0
O527 O 0.54145 0.05639 1.02869 0.0
O528 O 0.4933 0.05794 1.01838 0.0
O529 O 0.53227 0.98726 1.04569 0.0
O530 O 0.50156 0.99253 1.00861 0.0
O531 O 0.58154 0.03215 0.06713 0.0
O532 O 0.55964 0.03878 0.10691 0.0
C533 C 0.4828 0.06131 0.08314 0.0
O534 O 0.46978 0.97573 0.06094 0.0
O535 O 0.50341 0.99625 0.09516 0.0
C536 C 0.40013 0.97918 0.99231 0.0
C537 C 0.35916 0.93458 0.96583 0.0
C538 C 0.37919 0.92827 0.98626 0.0
C539 C 0.39966 0.95046 0.99937 0.0
C540 C 0.38014 0.9855 0.97211 0.0
C541 C 0.35984 0.96344 0.95899 0.0
C542 C 0.42071 1.00304 1.00601 0.0
C543 C 0.52189 0.06807 1.01534 0.0
C544 C 0.5214 0.98005 1.02021 0.0
C545 C 0.60858 0.06464 0.10019 0.0
C546 C 0.65376 0.11214 0.11477 0.0
C547 C 0.62863 0.11607 0.09957 0.0
C548 C 0.60619 0.09244 0.09229 0.0
C549 C 0.63376 0.06058 0.11478 0.0
C550 C 0.65616 0.08408 0.12204 0.0
C551 C 0.58487 0.03967 0.09396 0.0
H552 H 0.3793 0.90623 0.99177 0.0
H553 H 0.41503 0.94526 1.01497 0.0
H554 H 0.38014 1.00758 0.96658 0.0
H555 H 0.3444 0.96901 0.94367 0.0
H556 H 0.62623 0.13738 0.09353 0.0
H557 H 0.58684 0.09584 0.08085 0.0
H558 H 0.63586 0.03922 0.12105 0.0
H559 H 0.67489 0.08031 0.13421 0.0
Dy560 Dy 0.4988 0.48757 0.53016 0.0
Dy561 Dy 0.50386 0.55001 0.56134 0.0
C562 C 0.52913 0.49961 0.59087 0.0
O563 O 0.46202 0.48153 0.56236 0.0
O564 O 0.45614 0.5279 0.56537 0.0
O565 O 0.49618 0.44191 0.53453 0.0
O566 O 0.49665 0.46102 0.49248 0.0
O567 O 0.48876 0.55573 0.51666 0.0
O568 O 0.46886 0.50905 0.50402 0.0
O569 O 0.54969 0.55157 0.54449 0.0
O570 O 0.53773 0.51674 0.51 0.0
O571 O 0.5084 0.59612 0.55912 0.0
O572 O 0.50482 0.57469 0.60014 0.0
C573 C 0.4466 0.50036 0.57029 0.0
O574 O 0.53253 0.48995 0.56506 0.0
O575 O 0.51377 0.51948 0.5947 0.0
C576 C 0.52509 0.42567 0.49926 0.0
C577 C 0.57636 0.40366 0.48949 0.0
C578 C 0.55307 0.3885 0.50662 0.0
C579 C 0.52768 0.3994 0.51141 0.0
C580 C 0.54803 0.44051 0.48162 0.0
C581 C 0.57327 0.42957 0.47669 0.0
C582 C 0.49987 0.43861 0.50717 0.0
C583 C 0.4724 0.53687 0.49961 0.0
C584 C 0.55634 0.53867 0.52125 0.0
C585 C 0.47911 0.61228 0.59428 0.0
C586 C 0.43097 0.63802 0.60657 0.0
C587 C 0.45369 0.65156 0.58801 0.0
C588 C 0.47765 0.63885 0.58205 0.0
C589 C 0.45628 0.59873 0.61277 0.0
C590 C 0.43256 0.61154 0.61894 0.0
C591 C 0.50353 0.5982 0.58643 0.0
H592 H 0.55479 0.36862 0.517 0.0
H593 H 0.5104 0.3877 0.52528 0.0
H594 H 0.54682 0.46091 0.47201 0.0
H595 H 0.59045 0.44153 0.4629 0.0
H596 H 0.4531 0.6721 0.5784 0.0
H597 H 0.4949 0.64965 0.56764 0.0
H598 H 0.45648 0.57806 0.62229 0.0
H599 H 0.41517 0.6005 0.63308 0.0
Dy600 Dy 0.00274 0.55232 1.0278 0.0
Dy601 Dy 0.99933 0.49119 0.06183 0.0
C602 C 0.97254 0.54075 0.09092 0.0
O603 O 0.049 0.55468 1.04392 0.0
O604 O 0.03781 0.52202 0.08053 0.0
O605 O 0.0056 0.59824 1.02876 0.0
O606 O 0.00478 0.57626 0.9883 0.0
O607 O 0.03194 0.49313 1.02588 0.0
O608 O 0.01105 0.52025 0.99544 0.0
O609 O 0.95993 0.48364 1.03278 0.0
O610 O 0.95526 0.5298 1.02358 0.0
O611 O 0.99257 0.44505 0.05922 0.0
O612 O 0.00438 0.46646 0.09964 0.0
C613 C 0.05615 0.54324 0.06785 0.0
O614 O 0.98743 0.55904 0.07229 0.0
O615 O 0.97015 0.51285 0.08846 0.0
C616 C 0.97699 0.61239 0.99207 0.0
C617 C 0.92686 0.63519 0.97946 0.0
C618 C 0.95154 0.65201 0.9935 0.0
C619 C 0.97638 0.64069 0.99972 0.0
C620 C 0.95257 0.59572 0.97768 0.0
C621 C 0.92787 0.60702 0.97134 0.0
C622 C 0.00195 0.59972 1.00122 0.0
C623 C 0.02727 0.50122 0.99977 0.0
C624 C 0.94489 0.50193 1.02263 0.0
C625 C 0.02697 0.42848 0.0879 0.0
C626 C 0.07682 0.40393 0.0947 0.0
C627 C 0.07712 0.42588 0.07454 0.0
C628 C 0.05251 0.43812 0.07129 0.0
C629 C 0.02622 0.40624 0.10766 0.0
C630 C 0.05097 0.39401 0.11104 0.0
C631 C 0.00187 0.44266 0.08526 0.0
H632 H 0.95141 0.67368 1.0003 0.0
H633 H 0.99484 0.65383 1.01109 0.0
H634 H 0.95229 0.57374 0.97165 0.0
H635 H 0.90955 0.59363 0.96002 0.0
H636 H 0.09646 0.43375 0.06133 0.0
H637 H 0.05357 0.45537 0.05601 0.0
H638 H 0.00673 0.3987 0.12078 0.0
H639 H 0.05017 0.37738 0.12701 0.0
H640 H 0.2967 0.23541 0.39342 0.0
H641 H 0.2142 0.2452 0.35544 0.0
H642 H 0.26897 0.20486 0.43072 0.0
H643 H 0.18679 0.21488 0.39218 0.0
H644 H 0.14035 0.16663 0.4649 0.0
H645 H 0.17266 0.20701 0.44113 0.0
H646 H 0.23936 0.15665 0.43086 0.0
H647 H 0.20779 0.11691 0.45612 0.0
C648 C 0.27272 0.23141 0.39328 0.0
C649 C 0.2577 0.24271 0.37141 0.0
C650 C 0.25683 0.21389 0.41459 0.0
C651 C 0.22563 0.20726 0.41437 0.0
C652 C 0.21076 0.21988 0.39339 0.0
C653 C 0.22657 0.23737 0.37222 0.0
C654 C 0.16223 0.16442 0.4583 0.0
C655 C 0.17129 0.13834 0.46204 0.0
C656 C 0.18065 0.1875 0.44439 0.0
C657 C 0.20845 0.18497 0.43371 0.0
C658 C 0.21819 0.15947 0.43893 0.0
C659 C 0.19986 0.13648 0.45302 0.0
H660 H 0.24659 0.77774 0.89676 0.0
H661 H 0.22135 0.84961 0.85446 0.0
H662 H 0.28038 0.81126 0.92751 0.0
H663 H 0.25359 0.88244 0.88591 0.0
H664 H 0.34575 0.93073 0.90918 0.0
H665 H 0.30807 0.8951 0.88527 0.0
H666 H 0.28623 0.85008 0.96535 0.0
H667 H 0.32425 0.88612 0.98953 0.0
C668 C 0.24767 0.80053 0.89442 0.0
C669 C 0.23142 0.81086 0.87282 0.0
C670 C 0.26686 0.81969 0.91217 0.0
C671 C 0.27007 0.84946 0.90862 0.0
C672 C 0.25205 0.85961 0.88869 0.0
C673 C 0.2331 0.84062 0.87094 0.0
C674 C 0.33282 0.91335 0.92176 0.0
C675 C 0.33766 0.91144 0.95129 0.0
C676 C 0.31118 0.89297 0.90809 0.0
C677 C 0.29378 0.87014 0.92357 0.0
C678 C 0.29927 0.86751 0.95293 0.0
C679 C 0.32105 0.88805 0.9667 0.0
H680 H 0.60745 0.47009 0.7554 0.0
H681 H 0.5862 0.38572 0.71733 0.0
H682 H 0.58805 0.49003 0.71353 0.0
H683 H 0.56558 0.4056 0.67562 0.0
H684 H 0.56076 0.45678 0.59214 0.0
H685 H 0.57979 0.43573 0.63395 0.0
H686 H 0.54352 0.49222 0.6891 0.0
H687 H 0.52516 0.5136 0.64744 0.0
C688 C 0.59857 0.4557 0.73811 0.0
C689 C 0.5987 0.42623 0.73983 0.0
C690 C 0.58707 0.46715 0.7141 0.0
C691 C 0.57517 0.44955 0.69094 0.0
C692 C 0.57487 0.41996 0.69279 0.0
C693 C 0.58637 0.40846 0.71692 0.0
C694 C 0.55698 0.46483 0.61317 0.0
C695 C 0.54153 0.48709 0.61625 0.0
C696 C 0.56768 0.45254 0.63725 0.0
C697 C 0.5633 0.46218 0.66512 0.0
C698 C 0.54781 0.48444 0.66809 0.0
C699 C 0.53713 0.49668 0.64408 0.0
H700 H 0.93456 0.66024 0.21838 0.0
H701 H 0.89242 0.57796 0.25426 0.0
H702 H 0.95052 0.63638 0.17755 0.0
H703 H 0.9061 0.55415 0.21196 0.0
H704 H 0.96044 0.51719 0.1446 0.0
H705 H 0.94347 0.53948 0.18668 0.0
H706 H 0.93636 0.61322 0.13536 0.0
H707 H 0.95486 0.5916 0.09409 0.0
C708 C 0.92859 0.63703 0.2177 0.0
C709 C 0.9122 0.62127 0.24011 0.0
C710 C 0.93731 0.62322 0.19374 0.0
C711 C 0.9295 0.59311 0.19091 0.0
C712 C 0.91296 0.57729 0.21323 0.0
C713 C 0.90461 0.59111 0.23747 0.0
C714 C 0.95504 0.53809 0.14236 0.0
C715 C 0.95924 0.55267 0.116 0.0
C716 C 0.94517 0.55093 0.16653 0.0
C717 C 0.93874 0.57853 0.16488 0.0
C718 C 0.94187 0.59245 0.13806 0.0
C719 C 0.95225 0.57988 0.11414 0.0
H720 H 0.41675 0.2095 0.13917 0.0
H721 H 0.40143 0.14953 0.21009 0.0
H722 H 0.44077 0.1766 0.11275 0.0
H723 H 0.42728 0.11793 0.18414 0.0
H724 H 0.50836 0.09324 0.12874 0.0
H725 H 0.48812 0.12876 0.15596 0.0
H726 H 0.4119 0.11484 0.1004 0.0
H727 H 0.43143 0.07883 0.07374 0.0
C728 C 0.41853 0.1895 0.14926 0.0
C729 C 0.40685 0.18224 0.17683 0.0
C730 C 0.43258 0.17089 0.13419 0.0
C731 C 0.43588 0.14502 0.14663 0.0
C732 C 0.42521 0.13802 0.17437 0.0
C733 C 0.41058 0.15629 0.18923 0.0
C734 C 0.48732 0.09783 0.12236 0.0
C735 C 0.47135 0.0832 0.09927 0.0
C736 C 0.47582 0.11804 0.13789 0.0
C737 C 0.44864 0.1244 0.13002 0.0
C738 C 0.43299 0.11026 0.10666 0.0
C739 C 0.44409 0.08961 0.09159 0.0
H740 H 0.07507 0.82483 0.63772 0.0
H741 H 0.10853 0.889 0.70159 0.0
H742 H 0.05453 0.86033 0.61089 0.0
H743 H 0.088 0.92418 0.67503 0.0
H744 H 0.07954 0.98579 0.60135 0.0
H745 H 0.09875 0.94929 0.62724 0.0
H746 H 0.01441 0.88989 0.61805 0.0
H747 H 0.995 0.92645 0.59213 0.0
C748 C 0.07797 0.84646 0.64599 0.0
C749 C 0.09321 0.85414 0.67179 0.0
C750 C 0.0661 0.86667 0.63079 0.0
C751 C 0.06974 0.89498 0.64091 0.0
C752 C 0.08505 0.90258 0.66665 0.0
C753 C 0.09655 0.88237 0.68196 0.0
C754 C 0.06504 0.96498 0.60486 0.0
C755 C 0.03571 0.95906 0.59479 0.0
C756 C 0.07603 0.94413 0.61976 0.0
C757 C 0.05804 0.9168 0.62464 0.0
C758 C 0.0288 0.91073 0.61438 0.0
C759 C 0.01766 0.93173 0.59975 0.0
H760 H 0.80899 0.39121 0.92359 0.0
H761 H 0.77093 0.46527 0.9363 0.0
H762 H 0.85356 0.41497 0.94881 0.0
H763 H 0.81542 0.48906 0.96255 0.0
H764 H 0.91216 0.53085 0.98883 0.0
H765 H 0.8677 0.51053 0.96122 0.0
H766 H 0.86777 0.42678 0.99657 0.0
H767 H 0.91251 0.4468 1.0232 0.0
C768 C 0.81025 0.41269 0.93179 0.0
C769 C 0.7864 0.42629 0.9282 0.0
C770 C 0.83571 0.42626 0.9465 0.0
C771 C 0.83796 0.45375 0.95838 0.0
C772 C 0.81456 0.46793 0.95369 0.0
C773 C 0.78907 0.45435 0.93865 0.0
C774 C 0.90258 0.50812 0.99081 0.0
C775 C 0.91616 0.49043 1.00806 0.0
C776 C 0.87699 0.49647 0.97501 0.0
C777 C 0.86429 0.46687 0.97621 0.0
C778 C 0.87731 0.4495 0.99437 0.0
C779 C 0.90292 0.46106 1.00992 0.0
H780 H 0.73817 0.61672 0.46829 0.0
H781 H 0.69159 0.58722 0.39018 0.0
H782 H 0.69339 0.59772 0.49588 0.0
H783 H 0.64675 0.56833 0.41773 0.0
H784 H 0.57961 0.51345 0.47683 0.0
H785 H 0.62555 0.53119 0.45097 0.0
H786 H 0.64451 0.60595 0.50557 0.0
H787 H 0.59859 0.58779 0.53201 0.0
C788 C 0.71832 0.60633 0.45696 0.0
C789 C 0.71853 0.60356 0.42695 0.0
C790 C 0.69259 0.59546 0.47281 0.0
C791 C 0.66633 0.5815 0.45911 0.0
C792 C 0.66663 0.57854 0.42911 0.0
C793 C 0.69239 0.58937 0.41326 0.0
C794 C 0.59354 0.53366 0.48346 0.0
C795 C 0.58522 0.54924 0.50651 0.0
C796 C 0.61989 0.54394 0.46844 0.0
C797 C 0.63873 0.57016 0.47593 0.0
C798 C 0.63072 0.58553 0.49932 0.0
C799 C 0.6043 0.57518 0.51445 0.0
H800 H 0.23945 0.37751 0.16681 0.0
H801 H 0.21245 0.30205 0.11419 0.0
H802 H 0.19857 0.3968 0.14815 0.0
H803 H 0.17181 0.32174 0.0948 0.0
H804 H 0.08056 0.34799 0.10377 0.0
H805 H 0.12487 0.32983 0.11453 0.0
H806 H 0.17859 0.41561 0.1061 0.0
H807 H 0.13429 0.43391 0.09655 0.0
C808 C 0.22503 0.3653 0.15085 0.0
C809 C 0.22898 0.33821 0.14209 0.0
C810 C 0.20173 0.37643 0.13999 0.0
C811 C 0.18182 0.36071 0.12012 0.0
C812 C 0.18658 0.33418 0.11036 0.0
C813 C 0.21003 0.32307 0.12118 0.0
C814 C 0.10183 0.36295 0.10428 0.0
C815 C 0.10385 0.39241 0.09946 0.0
C816 C 0.12727 0.3525 0.11005 0.0
C817 C 0.15525 0.3713 0.11118 0.0
C818 C 0.15733 0.40062 0.10563 0.0
C819 C 0.13194 0.41105 0.09988 0.0
H820 H 0.62226 0.20787 0.90964 0.0
H821 H 0.53559 0.2272 0.91732 0.0
H822 H 0.60542 0.16368 0.93668 0.0
H823 H 0.51877 0.18341 0.94532 0.0
H824 H 0.48953 0.09109 0.97613 0.0
H825 H 0.5057 0.13316 0.94591 0.0
H826 H 0.59331 0.14619 0.98289 0.0
H827 H 0.57733 0.10337 1.01227 0.0
C828 C 0.59955 0.20266 0.9172 0.0
C829 C 0.5803 0.22114 0.91136 0.0
C830 C 0.58989 0.17735 0.93295 0.0
C831 C 0.56073 0.16983 0.94366 0.0
C832 C 0.54127 0.18808 0.93724 0.0
C833 C 0.55088 0.21329 0.92117 0.0
C834 C 0.5123 0.10287 0.97777 0.0
C835 C 0.53212 0.0937 0.99666 0.0
C836 C 0.52157 0.12723 0.9605 0.0
C837 C 0.5509 0.1434 0.96177 0.0
C838 C 0.57071 0.13416 0.98075 0.0
C839 C 0.5615 0.1096 0.9978 0.0
H840 H 0.87745 0.8363 0.40959 0.0
H841 H 0.95777 0.80687 0.42604 0.0
H842 H 0.89902 0.8824 0.43143 0.0
H843 H 0.9793 0.85279 0.44903 0.0
H844 H 0.01652 0.9465 0.47435 0.0
H845 H 0.99808 0.90351 0.44578 0.0
H846 H 0.90966 0.90014 0.478 0.0
H847 H 0.92784 0.94338 0.50564 0.0
C848 C 0.89991 0.83987 0.41772 0.0
C849 C 0.91589 0.81798 0.41623 0.0
C850 C 0.91221 0.86621 0.43053 0.0
C851 C 0.94076 0.87131 0.44264 0.0
C852 C 0.95734 0.84982 0.43987 0.0
C853 C 0.94506 0.82347 0.42669 0.0
C854 C 0.9931 0.93667 0.47518 0.0
C855 C 0.97369 0.94858 0.49228 0.0
C856 C 0.98254 0.91186 0.45889 0.0
C857 C 0.95229 0.89823 0.45933 0.0
C858 C 0.93297 0.91025 0.47647 0.0
C859 C 0.94347 0.93507 0.49257 0.0
H860 H 0.31571 0.73577 0.68523 0.0
H861 H 0.25969 0.68643 0.62093 0.0
H862 H 0.35745 0.71669 0.66853 0.0
H863 H 0.30204 0.66755 0.60381 0.0
H864 H 0.39677 0.6616 0.56962 0.0
H865 H 0.35486 0.68354 0.58169 0.0
H866 H 0.36676 0.66641 0.67121 0.0
H867 H 0.40846 0.6448 0.65925 0.0
C868 C 0.31232 0.72083 0.66748 0.0
C869 C 0.28424 0.71209 0.6548 0.0
C870 C 0.33627 0.70999 0.65789 0.0
C871 C 0.33283 0.69032 0.6352 0.0
C872 C 0.30523 0.68271 0.62136 0.0
C873 C 0.28106 0.6935 0.63113 0.0
C874 C 0.39044 0.66272 0.59186 0.0
C875 C 0.40583 0.65156 0.61353 0.0
C876 C 0.36638 0.67502 0.5987 0.0
C877 C 0.3577 0.67675 0.62736 0.0
C878 C 0.37317 0.66562 0.64896 0.0
C879 C 0.39689 0.65307 0.64211 0.0
H880 H 0.72685 0.78843 0.6965 0.0
H881 H 0.70836 0.8663 0.73226 0.0
H882 H 0.7636 0.81732 0.6643 0.0
H883 H 0.74447 0.89472 0.70005 0.0
H884 H 0.84354 0.92799 0.67979 0.0
H885 H 0.80148 0.89733 0.70371 0.0
H886 H 0.77072 0.8583 0.62288 0.0
H887 H 0.81317 0.88934 0.59862 0.0
C888 C 0.73007 0.8116 0.69699 0.0
C889 C 0.7148 0.82505 0.71704 0.0
C890 C 0.75095 0.82806 0.67851 0.0
C891 C 0.75702 0.85815 0.68008 0.0
C892 C 0.74031 0.87151 0.69867 0.0
C893 C 0.71938 0.85517 0.71689 0.0
C894 C 0.82802 0.91267 0.66712 0.0
C895 C 0.83164 0.91093 0.63739 0.0
C896 C 0.80381 0.89536 0.68076 0.0
C897 C 0.78279 0.87574 0.66503 0.0
C898 C 0.78666 0.87336 0.63538 0.0
C899 C 0.81079 0.89109 0.62158 0.0
H900 H 0.77881 0.18921 0.23322 0.0
H901 H 0.75533 0.26603 0.19993 0.0
H902 H 0.75275 0.1617 0.19411 0.0
H903 H 0.728 0.23777 0.16106 0.0
H904 H 0.64475 0.16232 0.1377 0.0
H905 H 0.68083 0.19884 0.16273 0.0
H906 H 0.75005 0.1545 0.14098 0.0
H907 H 0.71404 0.1181 0.11553 0.0
C908 C 0.7689 0.20053 0.21714 0.0
C909 C 0.7692 0.22996 0.21995 0.0
C910 C 0.7538 0.18461 0.19467 0.0
C911 C 0.73827 0.19757 0.17457 0.0
C912 C 0.73961 0.22722 0.17644 0.0
C913 C 0.75513 0.24332 0.19878 0.0
C914 C 0.66781 0.16083 0.13742 0.0
C915 C 0.67645 0.13703 0.12506 0.0
C916 C 0.6885 0.1818 0.15176 0.0
C917 C 0.71816 0.17929 0.15408 0.0
C918 C 0.72722 0.1567 0.13987 0.0
C919 C 0.70659 0.13583 0.12543 0.0
H920 H 0.42215 0.64895 0.36889 0.0
H921 H 0.38204 0.56353 0.33949 0.0
H922 H 0.44326 0.62852 0.40927 0.0
H923 H 0.40045 0.54328 0.38134 0.0
H924 H 0.45762 0.51079 0.44757 0.0
H925 H 0.43865 0.53091 0.40531 0.0
H926 H 0.43511 0.60772 0.45318 0.0
H927 H 0.45587 0.58821 0.49448 0.0
C928 C 0.41767 0.62581 0.37089 0.0
C929 C 0.4 0.60816 0.35054 0.0
C930 C 0.4294 0.61396 0.39463 0.0
C931 C 0.42349 0.58399 0.39926 0.0
C932 C 0.40602 0.56637 0.37878 0.0
C933 C 0.39481 0.57818 0.35477 0.0
C934 C 0.45264 0.53193 0.449 0.0
C935 C 0.45837 0.54787 0.47442 0.0
C936 C 0.44157 0.54356 0.42471 0.0
C937 C 0.43526 0.57128 0.4253 0.0
C938 C 0.44032 0.58676 0.45118 0.0
C939 C 0.45198 0.57539 0.47517 0.0
H940 H 0.13346 0.42903 0.87458 0.0
H941 H 0.04416 0.40952 0.84155 0.0
H942 H 0.11682 0.45357 0.91546 0.0
H943 H 0.02751 0.43373 0.88247 0.0
H944 H 0.01487 0.50614 0.94284 0.0
H945 H 0.03298 0.48283 0.90212 0.0
H946 H 0.08515 0.44245 0.95917 0.0
H947 H 0.06704 0.46578 1.00002 0.0
C948 C 0.1103 0.43004 0.87597 0.0
C949 C 0.09017 0.41724 0.85472 0.0
C950 C 0.10071 0.44391 0.89955 0.0
C951 C 0.0708 0.44569 0.90231 0.0
C952 C 0.05074 0.43303 0.88096 0.0
C953 C 0.06024 0.41888 0.85759 0.0
C954 C 0.03031 0.49242 0.94677 0.0
C955 C 0.03944 0.4879 0.97483 0.0
C956 C 0.04056 0.47888 0.92338 0.0
C957 C 0.06047 0.46064 0.9273 0.0
C958 C 0.07003 0.45651 0.9553 0.0
C959 C 0.05952 0.46982 0.97877 0.0
H960 H 0.57437 0.82207 0.97049 0.0
H961 H 0.60659 0.88353 0.90346 0.0
H962 H 0.55035 0.85705 0.9935 0.0
H963 H 0.582 0.91799 0.92609 0.0
H964 H 0.51355 0.96472 0.96362 0.0
H965 H 0.53153 0.92649 0.9389 0.0
H966 H 0.5692 0.90406 1.01803 0.0
H967 H 0.55136 0.94191 1.04265 0.0
C968 C 0.57629 0.84294 0.96061 0.0
C969 C 0.59247 0.84993 0.93512 0.0
C970 C 0.56242 0.86292 0.97373 0.0
C971 C 0.56428 0.89022 0.96155 0.0
C972 C 0.57979 0.89696 0.93573 0.0
C973 C 0.59384 0.87712 0.92275 0.0
C974 C 0.52553 0.95151 0.97572 0.0
C975 C 0.5312 0.9565 1.00503 0.0
C976 C 0.53588 0.92971 0.96157 0.0
C977 C 0.55172 0.91228 0.97657 0.0
C978 C 0.55678 0.91691 1.00597 0.0
C979 C 0.54676 0.93881 1.02 0.0
H980 H 0.94912 0.18862 0.39272 0.0
H981 H 0.8848 0.18497 0.46075 0.0
H982 H 0.9706 0.15341 0.41775 0.0
H983 H 0.90814 0.15218 0.48701 0.0
H984 H 0.92859 0.06748 0.51095 0.0
H985 H 0.90981 0.10426 0.48568 0.0
H986 H 0.99845 0.14152 0.45567 0.0
H987 H 0.01683 0.10331 0.47982 0.0
C988 C 0.9397 0.18061 0.41314 0.0
C989 C 0.91477 0.18945 0.42433 0.0
C990 C 0.9524 0.16067 0.42778 0.0
C991 C 0.94089 0.14943 0.45429 0.0
C992 C 0.91713 0.15961 0.46626 0.0
C993 C 0.90405 0.17904 0.45138 0.0
C994 C 0.94403 0.08348 0.49884 0.0
C995 C 0.97415 0.08258 0.49735 0.0
C996 C 0.93334 0.10484 0.48456 0.0
C997 C 0.95261 0.12634 0.46891 0.0
C998 C 0.98282 0.12523 0.46722 0.0
C999 C 0.99343 0.1034 0.48109 0.0
H1000 H 0.19721 0.60199 0.19176 0.0
H1001 H 0.24025 0.62184 0.10991 0.0
H1002 H 0.15105 0.58014 0.1674 0.0
H1003 H 0.19439 0.59986 0.08556 0.0
H1004 H 0.09918 0.59027 0.05234 0.0
H1005 H 0.14617 0.60941 0.07639 0.0
H1006 H 0.12661 0.5405 0.13826 0.0
H1007 H 0.07955 0.52177 0.11469 0.0
C1008 C 0.19696 0.60124 0.16859 0.0
C1009 C 0.22235 0.6139 0.15282 0.0
C1010 C 0.17048 0.58875 0.15457 0.0
C1011 C 0.16881 0.5885 0.12443 0.0
C1012 C 0.19457 0.60025 0.10874 0.0
C1013 C 0.22094 0.61276 0.12273 0.0
C1014 C 0.10494 0.57916 0.07101 0.0
C1015 C 0.08542 0.55454 0.08156 0.0
C1016 C 0.13199 0.59004 0.08476 0.0
C1017 C 0.14026 0.57656 0.10939 0.0
C1018 C 0.12086 0.55175 0.11969 0.0
C1019 C 0.09385 0.54091 0.10599 0.0
H1020 H 0.28688 0.48412 0.67684 0.0
H1021 H 0.29238 0.39729 0.65533 0.0
H1022 H 0.3328 0.5022 0.65068 0.0
H1023 H 0.33616 0.41531 0.62714 0.0
H1024 H 0.42989 0.45046 0.6002 0.0
H1025 H 0.38575 0.4344 0.62899 0.0
H1026 H 0.35526 0.51103 0.60589 0.0
H1027 H 0.40071 0.52788 0.5784 0.0
C1028 C 0.29772 0.46883 0.66654 0.0
C1029 C 0.28549 0.43915 0.66822 0.0
C1030 C 0.32392 0.47927 0.65105 0.0
C1031 C 0.33851 0.46035 0.63654 0.0
C1032 C 0.32617 0.43072 0.63829 0.0
C1033 C 0.30043 0.42032 0.65413 0.0
C1034 C 0.41371 0.46385 0.60114 0.0
C1035 C 0.41873 0.49033 0.58674 0.0
C1036 C 0.38815 0.45455 0.61761 0.0
C1037 C 0.3664 0.47113 0.61971 0.0
C1038 C 0.3715 0.49772 0.60524 0.0
C1039 C 0.39747 0.50731 0.58918 0.0
H1040 H 0.76626 0.6569 0.90001 0.0
H1041 H 0.79321 0.73681 0.9458 0.0
H1042 H 0.80634 0.63884 0.92242 0.0
H1043 H 0.83337 0.71867 0.96847 0.0
H1044 H 0.92436 0.68952 0.96181 0.0
H1045 H 0.8805 0.70739 0.94875 0.0
H1046 H 0.8249 0.62492 0.96951 0.0
H1047 H 0.86861 0.60713 0.98318 0.0
C1048 C 0.78052 0.6704 0.91524 0.0
C1049 C 0.77677 0.69827 0.92111 0.0
C1050 C 0.80334 0.66003 0.92819 0.0
C1051 C 0.82308 0.67743 0.94707 0.0
C1052 C 0.81862 0.70491 0.95381 0.0
C1053 C 0.79553 0.71517 0.94107 0.0
C1054 C 0.90277 0.67534 0.96414 0.0
C1055 C 0.90008 0.64678 0.97325 0.0
C1056 C 0.87763 0.6856 0.95667 0.0
C1057 C 0.8493 0.66749 0.958 0.0
C1058 C 0.8465 0.63923 0.96792 0.0
C1059 C 0.87158 0.62903 0.97559 0.0
H1060 H 0.38112 0.82839 0.18047 0.0
H1061 H 0.47162 0.81868 0.18788 0.0
H1062 H 0.39792 0.87352 0.15507 0.0
H1063 H 0.48854 0.86437 0.16258 0.0
H1064 H 0.5077 0.96078 0.13581 0.0
H1065 H 0.49216 0.91752 0.16506 0.0
H1066 H 0.41898 0.88752 0.10756 0.0
H1067 H 0.43429 0.93058 0.0785 0.0
C1068 C 0.40466 0.83586 0.17668 0.0
C1069 C 0.42495 0.81953 0.18587 0.0
C1070 C 0.41429 0.86181 0.16208 0.0
C1071 C 0.44455 0.87243 0.15636 0.0
C1072 C 0.46506 0.85687 0.16669 0.0
C1073 C 0.45537 0.83069 0.18125 0.0
C1074 C 0.48819 0.94504 0.12948 0.0
C1075 C 0.47221 0.94932 0.10478 0.0
C1076 C 0.47942 0.92012 0.14617 0.0
C1077 C 0.45426 0.89903 0.13876 0.0
C1078 C 0.43823 0.90345 0.11416 0.0
C1079 C 0.44713 0.92816 0.09738 0.0
H1080 H 0.04407 0.2296 0.67542 0.0
H1081 H 0.13215 0.2133 0.66864 0.0
H1082 H 0.02378 0.18293 0.65286 0.0
H1083 H 0.11213 0.1672 0.64622 0.0
H1084 H 0.07321 0.11168 0.57028 0.0
H1085 H 0.09022 0.15491 0.59837 0.0
H1086 H 0.01711 0.12838 0.65699 0.0
H1087 H 0.9998 0.08471 0.62864 0.0
C1088 C 0.05899 0.21584 0.66967 0.0
C1089 C 0.08976 0.22537 0.67337 0.0
C1090 C 0.04741 0.18916 0.6567 0.0
C1091 C 0.06642 0.1716 0.6472 0.0
C1092 C 0.09694 0.18047 0.6526 0.0
C1093 C 0.10841 0.20689 0.66554 0.0
C1094 C 0.06068 0.11489 0.58916 0.0
C1095 C 0.03516 0.09453 0.59719 0.0
C1096 C 0.07057 0.13969 0.6054 0.0
C1097 C 0.05518 0.14505 0.6301 0.0
C1098 C 0.02942 0.12493 0.63805 0.0
C1099 C 0.01963 0.09983 0.62188 0.0
H1100 H 0.71704 0.30674 0.47579 0.0
H1101 H 0.73867 0.37728 0.41604 0.0
H1102 H 0.67553 0.32605 0.49401 0.0
H1103 H 0.69725 0.39646 0.43402 0.0
H1104 H 0.63356 0.4348 0.48759 0.0
H1105 H 0.67847 0.41754 0.47743 0.0
H1106 H 0.62684 0.33073 0.47213 0.0
H1107 H 0.58174 0.34796 0.48168 0.0
C1108 C 0.71326 0.32668 0.467 0.0
C1109 C 0.73096 0.34052 0.44449 0.0
C1110 C 0.68939 0.33755 0.4772 0.0
C1111 C 0.68306 0.36266 0.46531 0.0
C1112 C 0.70169 0.3772 0.44375 0.0
C1113 C 0.72529 0.36617 0.43335 0.0
C1114 C 0.6317 0.41204 0.48409 0.0
C1115 C 0.60393 0.39282 0.48511 0.0
C1116 C 0.65748 0.40217 0.47844 0.0
C1117 C 0.65615 0.37282 0.47393 0.0
C1118 C 0.62859 0.35344 0.47588 0.0
C1119 C 0.60274 0.36334 0.48133 0.0
loop_
_geom_bond_atom_site_label_1
_geom_bond_atom_site_label_2
_geom_bond_distance
_geom_bond_site_symmetry_2
_ccdc_geom_bond_type
C0 C1 1.391 . S
C0 C4 1.391 . S
C0 H42 0.948 . S
C1 C0 1.391 . S
C1 C2 1.391 . S
C2 C1 1.391 . S
C2 H58 0.947 . S
C2 C59 1.392 . S
C3 C4 1.391 . S
C3 C7 1.397 . S
C3 C59 1.419 . S
C4 C0 1.391 . S
C4 C3 1.391 . S
C4 C5 1.399 . S
C5 C4 1.399 . S
C5 C8 1.396 . S
C5 C17 1.453 . S
C5 C18 1.684 . S
H6 C30 0.948 . S
C7 C3 1.397 . S
C7 C8 1.394 . S
C7 C26 1.723 . S
C8 C5 1.396 . S
C8 C7 1.394 . S
C8 C38 1.723 . S
H9 C32 0.947 . S
H10 C33 0.948 . S
H11 C39 0.982 . S
H12 C40 0.979 . S
H13 C40 0.980 . S
H14 C40 0.983 . S
H15 C39 0.979 . S
H16 C39 0.977 . S
C17 C5 1.453 . S
C17 H46 0.982 . S
C17 H47 0.979 . S
C17 H48 0.977 . S
C18 C5 1.684 . S
C18 H43 0.979 . S
C18 H44 0.980 . S
C18 H45 0.983 . S
C19 C20 1.391 . S
C19 C24 1.391 . S
C19 H49 0.948 . S
C20 C19 1.391 . S
C20 C21 1.391 . S
C21 C20 1.391 . S
C21 C22 1.392 . S
C21 H50 0.947 . S
C22 C21 1.392 . S
C22 C23 1.419 . S
C22 H51 0.948 . S
C23 C22 1.419 . S
C23 C24 1.391 . S
C23 C27 1.397 . S
C24 C19 1.391 . S
C24 C23 1.391 . S
C24 C25 1.399 . S
C25 C24 1.399 . S
C25 C26 1.396 . S
C25 C28 1.453 . S
C25 C29 1.684 . S
C26 C7 1.723 . S
C26 C25 1.396 . S
C26 C27 1.394 . S
C27 C23 1.397 . S
C27 C26 1.394 . S
C27 C37 1.723 . S
C28 C25 1.453 . S
C28 H52 0.982 . S
C28 H53 0.979 . S
C28 H54 0.977 . S
C29 C25 1.684 . S
C29 H55 0.979 . S
C29 H56 0.980 . S
C29 H57 0.983 . S
C30 H6 0.948 . S
C30 C31 1.391 . S
C30 C35 1.391 . S
C31 C30 1.391 . S
C31 C32 1.391 . S
C32 H9 0.947 . S
C32 C31 1.391 . S
C32 C33 1.392 . S
C33 H10 0.948 . S
C33 C32 1.392 . S
C33 C34 1.419 . S
C34 C33 1.419 . S
C34 C35 1.391 . S
C34 C38 1.397 . S
C35 C30 1.391 . S
C35 C34 1.391 . S
C35 C36 1.399 . S
C36 C35 1.399 . S
C36 C37 1.396 . S
C36 C39 1.453 . S
C36 C40 1.684 . S
C37 C27 1.723 . S
C37 C36 1.396 . S
C37 C38 1.394 . S
C38 C8 1.723 . S
C38 C34 1.397 . S
C38 C37 1.394 . S
C39 H11 0.982 . S
C39 H15 0.979 . S
C39 H16 0.977 . S
C39 C36 1.453 . S
C40 H12 0.979 . S
C40 H13 0.980 . S
C40 H14 0.983 . S
C40 C36 1.684 . S
H41 C59 0.948 . S
H42 C0 0.948 . S
H43 C18 0.979 . S
H44 C18 0.980 . S
H45 C18 0.983 . S
H46 C17 0.982 . S
H47 C17 0.979 . S
H48 C17 0.977 . S
H49 C19 0.948 . S
H50 C21 0.947 . S
H51 C22 0.948 . S
H52 C28 0.982 . S
H53 C28 0.979 . S
H54 C28 0.977 . S
H55 C29 0.979 . S
H56 C29 0.980 . S
H57 C29 0.983 . S
H58 C2 0.947 . S
C59 C2 1.392 . S
C59 C3 1.419 . S
C59 H41 0.948 . S
C60 C61 1.391 . S
C60 C64 1.391 . S
C60 H102 0.948 . S
C61 C60 1.391 . S
C61 C62 1.391 . S
C62 C61 1.391 . S
C62 H118 0.947 . S
C62 C119 1.392 . S
C63 C64 1.391 . S
C63 C67 1.397 . S
C63 C119 1.419 . S
C64 C60 1.391 . S
C64 C63 1.391 . S
C64 C65 1.399 . S
C65 C64 1.399 . S
C65 C68 1.396 . S
C65 C77 1.453 . S
C65 C78 1.684 . S
H66 C90 0.948 . S
C67 C63 1.397 . S
C67 C68 1.394 . S
C67 C86 1.723 . S
C68 C65 1.396 . S
C68 C67 1.394 . S
C68 C98 1.723 . S
H69 C92 0.947 . S
H70 C93 0.948 . S
H71 C99 0.982 . S
H72 C100 0.979 . S
H73 C100 0.980 . S
H74 C100 0.983 . S
H75 C99 0.979 . S
H76 C99 0.977 . S
C77 C65 1.453 . S
C77 H106 0.982 . S
C77 H107 0.979 . S
C77 H108 0.977 . S
C78 C65 1.684 . S
C78 H103 0.979 . S
C78 H104 0.980 . S
C78 H105 0.983 . S
C79 C80 1.391 . S
C79 C84 1.391 . S
C79 H109 0.948 . S
C80 C79 1.391 . S
C80 C81 1.391 . S
C81 C80 1.391 . S
C81 C82 1.392 . S
C81 H110 0.947 . S
C82 C81 1.392 . S
C82 C83 1.419 . S
C82 H111 0.948 . S
C83 C82 1.419 . S
C83 C84 1.391 . S
C83 C87 1.397 . S
C84 C79 1.391 . S
C84 C83 1.391 . S
C84 C85 1.399 . S
C85 C84 1.399 . S
C85 C86 1.396 . S
C85 C88 1.453 . S
C85 C89 1.684 . S
C86 C67 1.723 . S
C86 C85 1.396 . S
C86 C87 1.394 . S
C87 C83 1.397 . S
C87 C86 1.394 . S
C87 C97 1.723 . S
C88 C85 1.453 . S
C88 H112 0.982 . S
C88 H113 0.979 . S
C88 H114 0.977 . S
C89 C85 1.684 . S
C89 H115 0.979 . S
C89 H116 0.980 . S
C89 H117 0.983 . S
C90 H66 0.948 . S
C90 C91 1.391 . S
C90 C95 1.391 . S
C91 C90 1.391 . S
C91 C92 1.391 . S
C92 H69 0.947 . S
C92 C91 1.391 . S
C92 C93 1.392 . S
C93 H70 0.948 . S
C93 C92 1.392 . S
C93 C94 1.419 . S
C94 C93 1.419 . S
C94 C95 1.391 . S
C94 C98 1.397 . S
C95 C90 1.391 . S
C95 C94 1.391 . S
C95 C96 1.399 . S
C96 C95 1.399 . S
C96 C97 1.396 . S
C96 C99 1.453 . S
C96 C100 1.684 . S
C97 C87 1.723 . S
C97 C96 1.396 . S
C97 C98 1.394 . S
C98 C68 1.723 . S
C98 C94 1.397 . S
C98 C97 1.394 . S
C99 H71 0.982 . S
C99 H75 0.979 . S
C99 H76 0.977 . S
C99 C96 1.453 . S
C100 H72 0.979 . S
C100 H73 0.980 . S
C100 H74 0.983 . S
C100 C96 1.684 . S
H101 C119 0.948 . S
H102 C60 0.948 . S
H103 C78 0.979 . S
H104 C78 0.980 . S
H105 C78 0.983 . S
H106 C77 0.982 . S
H107 C77 0.979 . S
H108 C77 0.977 . S
H109 C79 0.948 . S
H110 C81 0.947 . S
H111 C82 0.948 . S
H112 C88 0.982 . S
H113 C88 0.979 . S
H114 C88 0.977 . S
H115 C89 0.979 . S
H116 C89 0.980 . S
H117 C89 0.983 . S
H118 C62 0.947 . S
C119 C62 1.392 . S
C119 C63 1.419 . S
C119 H101 0.948 . S
C120 C121 1.391 . S
C120 C124 1.391 . S
C120 H162 0.948 . S
C121 C120 1.391 . S
C121 C122 1.391 . S
C122 C121 1.391 . S
C122 H178 0.947 . S
C122 C179 1.392 . S
C123 C124 1.391 . S
C123 C127 1.397 . S
C123 C179 1.419 . S
C124 C120 1.391 . S
C124 C123 1.391 . S
C124 C125 1.399 . S
C125 C124 1.399 . S
C125 C128 1.396 . S
C125 C137 1.453 . S
C125 C138 1.684 . S
H126 C150 0.948 . S
C127 C123 1.397 . S
C127 C128 1.394 . S
C127 C146 1.723 . S
C128 C125 1.396 . S
C128 C127 1.394 . S
C128 C158 1.723 . S
H129 C152 0.947 . S
H130 C153 0.948 . S
H131 C159 0.982 . S
H132 C160 0.979 . S
H133 C160 0.980 . S
H134 C160 0.983 . S
H135 C159 0.979 . S
H136 C159 0.977 . S
C137 C125 1.453 . S
C137 H166 0.982 . S
C137 H167 0.979 . S
C137 H168 0.977 . S
C138 C125 1.684 . S
C138 H163 0.979 . S
C138 H164 0.980 . S
C138 H165 0.983 . S
C139 C140 1.391 . S
C139 C144 1.391 . S
C139 H169 0.948 . S
C140 C139 1.391 . S
C140 C141 1.391 . S
C141 C140 1.391 . S
C141 C142 1.392 . S
C141 H170 0.947 . S
C142 C141 1.392 . S
C142 C143 1.419 . S
C142 H171 0.948 . S
C143 C142 1.419 . S
C143 C144 1.391 . S
C143 C147 1.397 . S
C144 C139 1.391 . S
C144 C143 1.391 . S
C144 C145 1.399 . S
C145 C144 1.399 . S
C145 C146 1.396 . S
C145 C148 1.453 . S
C145 C149 1.684 . S
C146 C127 1.723 . S
C146 C145 1.396 . S
C146 C147 1.394 . S
C147 C143 1.397 . S
C147 C146 1.394 . S
C147 C157 1.723 . S
C148 C145 1.453 . S
C148 H172 0.982 . S
C148 H173 0.979 . S
C148 H174 0.977 . S
C149 C145 1.684 . S
C149 H175 0.979 . S
C149 H176 0.980 . S
C149 H177 0.983 . S
C150 H126 0.948 . S
C150 C151 1.391 . S
C150 C155 1.391 . S
C151 C150 1.391 . S
C151 C152 1.391 . S
C152 H129 0.947 . S
C152 C151 1.391 . S
C152 C153 1.392 . S
C153 H130 0.948 . S
C153 C152 1.392 . S
C153 C154 1.419 . S
C154 C153 1.419 . S
C154 C155 1.391 . S
C154 C158 1.397 . S
C155 C150 1.391 . S
C155 C154 1.391 . S
C155 C156 1.399 . S
C156 C155 1.399 . S
C156 C157 1.396 . S
C156 C159 1.453 . S
C156 C160 1.684 . S
C157 C147 1.723 . S
C157 C156 1.396 . S
C157 C158 1.394 . S
C158 C128 1.723 . S
C158 C154 1.397 . S
C158 C157 1.394 . S
C159 H131 0.982 . S
C159 H135 0.979 . S
C159 H136 0.977 . S
C159 C156 1.453 . S
C160 H132 0.979 . S
C160 H133 0.980 . S
C160 H134 0.983 . S
C160 C156 1.684 . S
H161 C179 0.948 . S
H162 C120 0.948 . S
H163 C138 0.979 . S
H164 C138 0.980 . S
H165 C138 0.983 . S
H166 C137 0.982 . S
H167 C137 0.979 . S
H168 C137 0.977 . S
H169 C139 0.948 . S
H170 C141 0.947 . S
H171 C142 0.948 . S
H172 C148 0.982 . S
H173 C148 0.979 . S
H174 C148 0.977 . S
H175 C149 0.979 . S
H176 C149 0.980 . S
H177 C149 0.983 . S
H178 C122 0.947 . S
C179 C122 1.392 . S
C179 C123 1.419 . S
C179 H161 0.948 . S
C180 C181 1.391 . S
C180 C184 1.391 . S
C180 H222 0.948 . S
C181 C180 1.391 . S
C181 C182 1.391 . S
C182 C181 1.391 . S
C182 H238 0.947 . S
C182 C239 1.392 . S
C183 C184 1.391 . S
C183 C187 1.397 . S
C183 C239 1.419 . S
C184 C180 1.391 . S
C184 C183 1.391 . S
C184 C185 1.399 . S
C185 C184 1.399 . S
C185 C188 1.396 . S
C185 C197 1.453 . S
C185 C198 1.684 . S
H186 C210 0.948 . S
C187 C183 1.397 . S
C187 C188 1.394 . S
C187 C206 1.723 . S
C188 C185 1.396 . S
C188 C187 1.394 . S
C188 C218 1.723 . S
H189 C212 0.947 . S
H190 C213 0.948 . S
H191 C219 0.982 . S
H192 C220 0.979 . S
H193 C220 0.980 . S
H194 C220 0.983 . S
H195 C219 0.979 . S
H196 C219 0.977 . S
C197 C185 1.453 . S
C197 H226 0.982 . S
C197 H227 0.979 . S
C197 H228 0.977 . S
C198 C185 1.684 . S
C198 H223 0.979 . S
C198 H224 0.980 . S
C198 H225 0.983 . S
C199 C200 1.391 . S
C199 C204 1.391 . S
C199 H229 0.948 . S
C200 C199 1.391 . S
C200 C201 1.391 . S
C201 C200 1.391 . S
C201 C202 1.392 . S
C201 H230 0.947 . S
C202 C201 1.392 . S
C202 C203 1.419 . S
C202 H231 0.948 . S
C203 C202 1.419 . S
C203 C204 1.391 . S
C203 C207 1.397 . S
C204 C199 1.391 . S
C204 C203 1.391 . S
C204 C205 1.399 . S
C205 C204 1.399 . S
C205 C206 1.396 . S
C205 C208 1.453 . S
C205 C209 1.684 . S
C206 C187 1.723 . S
C206 C205 1.396 . S
C206 C207 1.394 . S
C207 C203 1.397 . S
C207 C206 1.394 . S
C207 C217 1.723 . S
C208 C205 1.453 . S
C208 H232 0.982 . S
C208 H233 0.979 . S
C208 H234 0.977 . S
C209 C205 1.684 . S
C209 H235 0.979 . S
C209 H236 0.980 . S
C209 H237 0.983 . S
C210 H186 0.948 . S
C210 C211 1.391 . S
C210 C215 1.391 . S
C211 C210 1.391 . S
C211 C212 1.391 . S
C212 H189 0.947 . S
C212 C211 1.391 . S
C212 C213 1.392 . S
C213 H190 0.948 . S
C213 C212 1.392 . S
C213 C214 1.419 . S
C214 C213 1.419 . S
C214 C215 1.391 . S
C214 C218 1.397 . S
C215 C210 1.391 . S
C215 C214 1.391 . S
C215 C216 1.399 . S
C216 C215 1.399 . S
C216 C217 1.396 . S
C216 C219 1.453 . S
C216 C220 1.684 . S
C217 C207 1.723 . S
C217 C216 1.396 . S
C217 C218 1.394 . S
C218 C188 1.723 . S
C218 C214 1.397 . S
C218 C217 1.394 . S
C219 H191 0.982 . S
C219 H195 0.979 . S
C219 H196 0.977 . S
C219 C216 1.453 . S
C220 H192 0.979 . S
C220 H193 0.980 . S
C220 H194 0.983 . S
C220 C216 1.684 . S
H221 C239 0.948 . S
H222 C180 0.948 . S
H223 C198 0.979 . S
H224 C198 0.980 . S
H225 C198 0.983 . S
H226 C197 0.982 . S
H227 C197 0.979 . S
H228 C197 0.977 . S
H229 C199 0.948 . S
H230 C201 0.947 . S
H231 C202 0.948 . S
H232 C208 0.982 . S
H233 C208 0.979 . S
H234 C208 0.977 . S
H235 C209 0.979 . S
H236 C209 0.980 . S
H237 C209 0.983 . S
H238 C182 0.947 . S
C239 C182 1.392 . S
C239 C183 1.419 . S
C239 H221 0.948 . S
C240 C241 1.391 . S
C240 C244 1.391 . S
C240 H282 0.948 . S
C241 C240 1.391 . S
C241 C242 1.391 . S
C242 C241 1.391 . S
C242 H298 0.947 . S
C242 C299 1.392 . S
C243 C244 1.391 . S
C243 C247 1.397 . S
C243 C299 1.419 . S
C244 C240 1.391 . S
C244 C243 1.391 . S
C244 C245 1.399 . S
C245 C244 1.399 . S
C245 C248 1.396 . S
C245 C257 1.453 . S
C245 C258 1.684 . S
H246 C270 0.948 . S
C247 C243 1.397 . S
C247 C248 1.394 . S
C247 C266 1.723 . S
C248 C245 1.396 . S
C248 C247 1.394 . S
C248 C278 1.723 . S
H249 C272 0.947 . S
H250 C273 0.948 . S
H251 C279 0.982 . S
H252 C280 0.979 . S
H253 C280 0.980 . S
H254 C280 0.983 . S
H255 C279 0.979 . S
H256 C279 0.977 . S
C257 C245 1.453 . S
C257 H286 0.982 . S
C257 H287 0.979 . S
C257 H288 0.977 . S
C258 C245 1.684 . S
C258 H283 0.979 . S
C258 H284 0.980 . S
C258 H285 0.983 . S
C259 C260 1.391 . S
C259 C264 1.391 . S
C259 H289 0.948 . S
C260 C259 1.391 . S
C260 C261 1.391 . S
C261 C260 1.391 . S
C261 C262 1.392 . S
C261 H290 0.947 . S
C262 C261 1.392 . S
C262 C263 1.419 . S
C262 H291 0.948 . S
C263 C262 1.419 . S
C263 C264 1.391 . S
C263 C267 1.397 . S
C264 C259 1.391 . S
C264 C263 1.391 . S
C264 C265 1.399 . S
C265 C264 1.399 . S
C265 C266 1.396 . S
C265 C268 1.453 . S
C265 C269 1.684 . S
C266 C247 1.723 . S
C266 C265 1.396 . S
C266 C267 1.394 . S
C267 C263 1.397 . S
C267 C266 1.394 . S
C267 C277 1.723 . S
C268 C265 1.453 . S
C268 H292 0.982 . S
C268 H293 0.979 . S
C268 H294 0.977 . S
C269 C265 1.684 . S
C269 H295 0.979 . S
C269 H296 0.980 . S
C269 H297 0.983 . S
C270 H246 0.948 . S
C270 C271 1.391 . S
C270 C275 1.391 . S
C271 C270 1.391 . S
C271 C272 1.391 . S
C272 H249 0.947 . S
C272 C271 1.391 . S
C272 C273 1.392 . S
C273 H250 0.948 . S
C273 C272 1.392 . S
C273 C274 1.419 . S
C274 C273 1.419 . S
C274 C275 1.391 . S
C274 C278 1.397 . S
C275 C270 1.391 . S
C275 C274 1.391 . S
C275 C276 1.399 . S
C276 C275 1.399 . S
C276 C277 1.396 . S
C276 C279 1.453 . S
C276 C280 1.684 . S
C277 C267 1.723 . S
C277 C276 1.396 . S
C277 C278 1.394 . S
C278 C248 1.723 . S
C278 C274 1.397 . S
C278 C277 1.394 . S
C279 H251 0.982 . S
C279 H255 0.979 . S
C279 H256 0.977 . S
C279 C276 1.453 . S
C280 H252 0.979 . S
C280 H253 0.980 . S
C280 H254 0.983 . S
C280 C276 1.684 . S
H281 C299 0.948 . S
H282 C240 0.948 . S
H283 C258 0.979 . S
H284 C258 0.980 . S
H285 C258 0.983 . S
H286 C257 0.982 . S
H287 C257 0.979 . S
H288 C257 0.977 . S
H289 C259 0.948 . S
H290 C261 0.947 . S
H291 C262 0.948 . S
H292 C268 0.982 . S
H293 C268 0.979 . S
H294 C268 0.977 . S
H295 C269 0.979 . S
H296 C269 0.980 . S
H297 C269 0.983 . S
H298 C242 0.947 . S
C299 C242 1.392 . S
C299 C243 1.419 . S
C299 H281 0.948 . S
C300 C301 1.391 . S
C300 C304 1.391 . S
C300 H342 0.948 . S
C301 C300 1.391 . S
C301 C302 1.391 . S
C302 C301 1.391 . S
C302 H358 0.947 . S
C302 C359 1.392 . S
C303 C304 1.391 . S
C303 C307 1.397 . S
C303 C359 1.419 . S
C304 C300 1.391 . S
C304 C303 1.391 . S
C304 C305 1.399 . S
C305 C304 1.399 . S
C305 C308 1.396 . S
C305 C317 1.453 . S
C305 C318 1.684 . S
H306 C330 0.948 . S
C307 C303 1.397 . S
C307 C308 1.394 . S
C307 C326 1.723 . S
C308 C305 1.396 . S
C308 C307 1.394 . S
C308 C338 1.723 . S
H309 C332 0.947 . S
H310 C333 0.948 . S
H311 C339 0.982 . S
H312 C340 0.979 . S
H313 C340 0.980 . S
H314 C340 0.983 . S
H315 C339 0.979 . S
H316 C339 0.977 . S
C317 C305 1.453 . S
C317 H346 0.982 . S
C317 H347 0.979 . S
C317 H348 0.977 . S
C318 C305 1.684 . S
C318 H343 0.979 . S
C318 H344 0.980 . S
C318 H345 0.983 . S
C319 C320 1.391 . S
C319 C324 1.391 . S
C319 H349 0.948 . S
C320 C319 1.391 . S
C320 C321 1.391 . S
C321 C320 1.391 . S
C321 C322 1.392 . S
C321 H350 0.947 . S
C322 C321 1.392 . S
C322 C323 1.419 . S
C322 H351 0.948 . S
C323 C322 1.419 . S
C323 C324 1.391 . S
C323 C327 1.397 . S
C324 C319 1.391 . S
C324 C323 1.391 . S
C324 C325 1.399 . S
C325 C324 1.399 . S
C325 C326 1.396 . S
C325 C328 1.453 . S
C325 C329 1.684 . S
C326 C307 1.723 . S
C326 C325 1.396 . S
C326 C327 1.394 . S
C327 C323 1.397 . S
C327 C326 1.394 . S
C327 C337 1.723 . S
C328 C325 1.453 . S
C328 H352 0.982 . S
C328 H353 0.979 . S
C328 H354 0.977 . S
C329 C325 1.684 . S
C329 H355 0.979 . S
C329 H356 0.980 . S
C329 H357 0.983 . S
C330 H306 0.948 . S
C330 C331 1.391 . S
C330 C335 1.391 . S
C331 C330 1.391 . S
C331 C332 1.391 . S
C332 H309 0.947 . S
C332 C331 1.391 . S
C332 C333 1.392 . S
C333 H310 0.948 . S
C333 C332 1.392 . S
C333 C334 1.419 . S
C334 C333 1.419 . S
C334 C335 1.391 . S
C334 C338 1.397 . S
C335 C330 1.391 . S
C335 C334 1.391 . S
C335 C336 1.399 . S
C336 C335 1.399 . S
C336 C337 1.396 . S
C336 C339 1.453 . S
C336 C340 1.684 . S
C337 C327 1.723 . S
C337 C336 1.396 . S
C337 C338 1.394 . S
C338 C308 1.723 . S
C338 C334 1.397 . S
C338 C337 1.394 . S
C339 H311 0.982 . S
C339 H315 0.979 . S
C339 H316 0.977 . S
C339 C336 1.453 . S
C340 H312 0.979 . S
C340 H313 0.980 . S
C340 H314 0.983 . S
C340 C336 1.684 . S
H341 C359 0.948 . S
H342 C300 0.948 . S
H343 C318 0.979 . S
H344 C318 0.980 . S
H345 C318 0.983 . S
H346 C317 0.982 . S
H347 C317 0.979 . S
H348 C317 0.977 . S
H349 C319 0.948 . S
H350 C321 0.947 . S
H351 C322 0.948 . S
H352 C328 0.982 . S
H353 C328 0.979 . S
H354 C328 0.977 . S
H355 C329 0.979 . S
H356 C329 0.980 . S
H357 C329 0.983 . S
H358 C302 0.947 . S
C359 C302 1.392 . S
C359 C303 1.419 . S
C359 H341 0.948 . S
C360 C361 1.391 . S
C360 C364 1.391 . S
C360 H402 0.948 . S
C361 C360 1.391 . S
C361 C362 1.391 . S
C362 C361 1.391 . S
C362 H418 0.947 . S
C362 C419 1.392 . S
C363 C364 1.391 . S
C363 C367 1.397 . S
C363 C419 1.419 . S
C364 C360 1.391 . S
C364 C363 1.391 . S
C364 C365 1.399 . S
C365 C364 1.399 . S
C365 C368 1.396 . S
C365 C377 1.453 . S
C365 C378 1.684 . S
H366 C390 0.948 . S
C367 C363 1.397 . S
C367 C368 1.394 . S
C367 C386 1.723 . S
C368 C365 1.396 . S
C368 C367 1.394 . S
C368 C398 1.723 . S
H369 C392 0.947 . S
H370 C393 0.948 . S
H371 C399 0.982 . S
H372 C400 0.979 . S
H373 C400 0.980 . S
H374 C400 0.983 . S
H375 C399 0.979 . S
H376 C399 0.977 . S
C377 C365 1.453 . S
C377 H406 0.982 . S
C377 H407 0.979 . S
C377 H408 0.977 . S
C378 C365 1.684 . S
C378 H403 0.979 . S
C378 H404 0.980 . S
C378 H405 0.983 . S
C379 C380 1.391 . S
C379 C384 1.391 . S
C379 H409 0.948 . S
C380 C379 1.391 . S
C380 C381 1.391 . S
C381 C380 1.391 . S
C381 C382 1.392 . S
C381 H410 0.947 . S
C382 C381 1.392 . S
C382 C383 1.419 . S
C382 H411 0.948 . S
C383 C382 1.419 . S
C383 C384 1.391 . S
C383 C387 1.397 . S
C384 C379 1.391 . S
C384 C383 1.391 . S
C384 C385 1.399 . S
C385 C384 1.399 . S
C385 C386 1.396 . S
C385 C388 1.453 . S
C385 C389 1.684 . S
C386 C367 1.723 . S
C386 C385 1.396 . S
C386 C387 1.394 . S
C387 C383 1.397 . S
C387 C386 1.394 . S
C387 C397 1.723 . S
C388 C385 1.453 . S
C388 H412 0.982 . S
C388 H413 0.979 . S
C388 H414 0.977 . S
C389 C385 1.684 . S
C389 H415 0.979 . S
C389 H416 0.980 . S
C389 H417 0.983 . S
C390 H366 0.948 . S
C390 C391 1.391 . S
C390 C395 1.391 . S
C391 C390 1.391 . S
C391 C392 1.391 . S
C392 H369 0.947 . S
C392 C391 1.391 . S
C392 C393 1.392 . S
C393 H370 0.948 . S
C393 C392 1.392 . S
C393 C394 1.419 . S
C394 C393 1.419 . S
C394 C395 1.391 . S
C394 C398 1.397 . S
C395 C390 1.391 . S
C395 C394 1.391 . S
C395 C396 1.399 . S
C396 C395 1.399 . S
C396 C397 1.396 . S
C396 C399 1.453 . S
C396 C400 1.684 . S
C397 C387 1.723 . S
C397 C396 1.396 . S
C397 C398 1.394 . S
C398 C368 1.723 . S
C398 C394 1.397 . S
C398 C397 1.394 . S
C399 H371 0.982 . S
C399 H375 0.979 . S
C399 H376 0.977 . S
C399 C396 1.453 . S
C400 H372 0.979 . S
C400 H373 0.980 . S
C400 H374 0.983 . S
C400 C396 1.684 . S
H401 C419 0.948 . S
H402 C360 0.948 . S
H403 C378 0.979 . S
H404 C378 0.980 . S
H405 C378 0.983 . S
H406 C377 0.982 . S
H407 C377 0.979 . S
H408 C377 0.977 . S
H409 C379 0.948 . S
H410 C381 0.947 . S
H411 C382 0.948 . S
H412 C388 0.982 . S
H413 C388 0.979 . S
H414 C388 0.977 . S
H415 C389 0.979 . S
H416 C389 0.980 . S
H417 C389 0.983 . S
H418 C362 0.947 . S
C419 C362 1.392 . S
C419 C363 1.419 . S
C419 H401 0.948 . S
C420 C421 1.391 . S
C420 C424 1.391 . S
C420 H462 0.948 . S
C421 C420 1.391 . S
C421 C422 1.391 . S
C422 C421 1.391 . S
C422 H478 0.947 . S
C422 C479 1.392 . S
C423 C424 1.391 . S
C423 C427 1.397 . S
C423 C479 1.419 . S
C424 C420 1.391 . S
C424 C423 1.391 . S
C424 C425 1.399 . S
C425 C424 1.399 . S
C425 C428 1.396 . S
C425 C437 1.453 . S
C425 C438 1.684 . S
H426 C450 0.948 . S
C427 C423 1.397 . S
C427 C428 1.394 . S
C427 C446 1.723 . S
C428 C425 1.396 . S
C428 C427 1.394 . S
C428 C458 1.723 . S
H429 C452 0.947 . S
H430 C453 0.948 . S
H431 C459 0.982 . S
H432 C460 0.979 . S
H433 C460 0.980 . S
H434 C460 0.983 . S
H435 C459 0.979 . S
H436 C459 0.977 . S
C437 C425 1.453 . S
C437 H466 0.982 . S
C437 H467 0.979 . S
C437 H468 0.977 . S
C438 C425 1.684 . S
C438 H463 0.979 . S
C438 H464 0.980 . S
C438 H465 0.983 . S
C439 C440 1.391 . S
C439 C444 1.391 . S
C439 H469 0.948 . S
C440 C439 1.391 . S
C440 C441 1.391 . S
C441 C440 1.391 . S
C441 C442 1.392 . S
C441 H470 0.947 . S
C442 C441 1.392 . S
C442 C443 1.419 . S
C442 H471 0.948 . S
C443 C442 1.419 . S
C443 C444 1.391 . S
C443 C447 1.397 . S
C444 C439 1.391 . S
C444 C443 1.391 . S
C444 C445 1.399 . S
C445 C444 1.399 . S
C445 C446 1.396 . S
C445 C448 1.453 . S
C445 C449 1.684 . S
C446 C427 1.723 . S
C446 C445 1.396 . S
C446 C447 1.394 . S
C447 C443 1.397 . S
C447 C446 1.394 . S
C447 C457 1.723 . S
C448 C445 1.453 . S
C448 H472 0.982 . S
C448 H473 0.979 . S
C448 H474 0.977 . S
C449 C445 1.684 . S
C449 H475 0.979 . S
C449 H476 0.980 . S
C449 H477 0.983 . S
C450 H426 0.948 . S
C450 C451 1.391 . S
C450 C455 1.391 . S
C451 C450 1.391 . S
C451 C452 1.391 . S
C452 H429 0.947 . S
C452 C451 1.391 . S
C452 C453 1.392 . S
C453 H430 0.948 . S
C453 C452 1.392 . S
C453 C454 1.419 . S
C454 C453 1.419 . S
C454 C455 1.391 . S
C454 C458 1.397 . S
C455 C450 1.391 . S
C455 C454 1.391 . S
C455 C456 1.399 . S
C456 C455 1.399 . S
C456 C457 1.396 . S
C456 C459 1.453 . S
C456 C460 1.684 . S
C457 C447 1.723 . S
C457 C456 1.396 . S
C457 C458 1.394 . S
C458 C428 1.723 . S
C458 C454 1.397 . S
C458 C457 1.394 . S
C459 H431 0.982 . S
C459 H435 0.979 . S
C459 H436 0.977 . S
C459 C456 1.453 . S
C460 H432 0.979 . S
C460 H433 0.980 . S
C460 H434 0.983 . S
C460 C456 1.684 . S
H461 C479 0.948 . S
H462 C420 0.948 . S
H463 C438 0.979 . S
H464 C438 0.980 . S
H465 C438 0.983 . S
H466 C437 0.982 . S
H467 C437 0.979 . S
H468 C437 0.977 . S
H469 C439 0.948 . S
H470 C441 0.947 . S
H471 C442 0.948 . S
H472 C448 0.982 . S
H473 C448 0.979 . S
H474 C448 0.977 . S
H475 C449 0.979 . S
H476 C449 0.980 . S
H477 C449 0.983 . S
H478 C422 0.947 . S
C479 C422 1.392 . S
C479 C423 1.419 . S
C479 H461 0.948 . S
Dy480 O483 2.307 1_545 S
Dy480 O485 2.395 . S
Dy480 O486 2.379 . S
Dy480 O488 2.339 1_545 S
Dy480 O490 2.298 1_455 S
Dy480 O494 2.275 . S
Dy480 C502 2.738 . S
Dy481 O484 2.298 1_655 S
Dy481 O487 2.275 . S
Dy481 O489 2.307 1_565 S
Dy481 O491 2.395 . S
Dy481 O492 2.379 . S
Dy481 O495 2.339 1_565 S
Dy481 C511 2.738 . S
C482 O494 1.254 . S
C482 O495 1.257 1_455 S
O483 Dy480 2.307 1_565 S
O483 C493 1.266 . S
O484 Dy481 2.298 1_455 S
O484 C493 1.236 . S
O485 Dy480 2.395 . S
O485 C502 1.255 . S
O486 Dy480 2.379 . S
O486 C502 1.249 . S
O487 Dy481 2.275 . S
O487 C503 1.254 . S
O488 Dy480 2.339 1_565 S
O488 C503 1.257 1_455 S
O489 Dy481 2.307 1_545 S
O489 C504 1.266 . S
O490 Dy480 2.298 1_655 S
O490 C504 1.236 . S
O491 Dy481 2.395 . S
O491 C511 1.255 . S
O492 Dy481 2.379 . S
O492 C511 1.249 . S
C493 O483 1.266 . S
C493 O484 1.236 . S
O494 Dy480 2.275 . S
O494 C482 1.254 . S
O495 Dy481 2.339 1_545 S
O495 C482 1.257 1_655 S
C496 C499 1.344 . S
C496 C500 1.328 . S
C496 C502 1.516 . S
C497 C498 1.304 . S
C497 C501 1.323 . S
C498 C497 1.304 . S
C498 C499 1.371 . S
C498 H512 0.930 . S
C499 C496 1.344 . S
C499 C498 1.371 . S
C499 H513 0.931 . S
C500 C496 1.328 . S
C500 C501 1.433 . S
C500 H514 0.931 . S
C501 C497 1.323 . S
C501 C500 1.433 . S
C501 H515 0.933 . S
C502 Dy480 2.738 . S
C502 O485 1.255 . S
C502 O486 1.249 . S
C502 C496 1.516 . S
C503 O487 1.254 . S
C503 O488 1.257 1_655 S
C504 O489 1.266 . S
C504 O490 1.236 . S
C505 C508 1.344 . S
C505 C509 1.328 . S
C505 C511 1.516 . S
C506 C507 1.304 . S
C506 C510 1.323 . S
C507 C506 1.304 . S
C507 C508 1.371 . S
C507 H516 0.930 . S
C508 C505 1.344 . S
C508 C507 1.371 . S
C508 H517 0.931 . S
C509 C505 1.328 . S
C509 C510 1.433 . S
C509 H518 0.931 . S
C510 C506 1.323 . S
C510 C509 1.433 . S
C510 H519 0.933 . S
C511 Dy481 2.738 . S
C511 O491 1.255 . S
C511 O492 1.249 . S
C511 C505 1.516 . S
H512 C498 0.930 . S
H513 C499 0.931 . S
H514 C500 0.931 . S
H515 C501 0.933 . S
H516 C507 0.930 . S
H517 C508 0.931 . S
H518 C509 0.931 . S
H519 C510 0.933 . S
Dy520 O523 2.307 1_566 S
Dy520 O525 2.395 . S
Dy520 O526 2.379 . S
Dy520 O528 2.339 1_565 S
Dy520 O530 2.298 . S
Dy520 O534 2.275 1_556 S
Dy520 C542 2.738 . S
Dy521 O524 2.298 . S
Dy521 O527 2.275 1_554 S
Dy521 O529 2.307 1_544 S
Dy521 O531 2.395 . S
Dy521 O532 2.379 . S
Dy521 O535 2.339 1_545 S
Dy521 C551 2.738 . S
C522 O534 1.254 . S
C522 O535 1.257 . S
O523 Dy520 2.307 1_544 S
O523 C533 1.266 . S
O524 Dy521 2.298 . S
O524 C533 1.236 . S
O525 Dy520 2.395 . S
O525 C542 1.255 . S
O526 Dy520 2.379 . S
O526 C542 1.249 . S
O527 Dy521 2.275 1_556 S
O527 C543 1.254 . S
O528 Dy520 2.339 1_545 S
O528 C543 1.257 . S
O529 Dy521 2.307 1_566 S
O529 C544 1.266 . S
O530 Dy520 2.298 . S
O530 C544 1.236 . S
O531 Dy521 2.395 . S
O531 C551 1.255 . S
O532 Dy521 2.379 . S
O532 C551 1.249 . S
C533 O523 1.266 . S
C533 O524 1.236 . S
O534 Dy520 2.275 1_554 S
O534 C522 1.254 . S
O535 Dy521 2.339 1_565 S
O535 C522 1.257 . S
C536 C539 1.344 . S
C536 C540 1.328 . S
C536 C542 1.516 . S
C537 C538 1.304 . S
C537 C541 1.323 . S
C538 C537 1.304 . S
C538 C539 1.371 . S
C538 H552 0.930 . S
C539 C536 1.344 . S
C539 C538 1.371 . S
C539 H553 0.931 . S
C540 C536 1.328 . S
C540 C541 1.433 . S
C540 H554 0.931 . S
C541 C537 1.323 . S
C541 C540 1.433 . S
C541 H555 0.933 . S
C542 Dy520 2.738 . S
C542 O525 1.255 . S
C542 O526 1.249 . S
C542 C536 1.516 . S
C543 O527 1.254 . S
C543 O528 1.257 . S
C544 O529 1.266 . S
C544 O530 1.236 . S
C545 C548 1.344 . S
C545 C549 1.328 . S
C545 C551 1.516 . S
C546 C547 1.304 . S
C546 C550 1.323 . S
C547 C546 1.304 . S
C547 C548 1.371 . S
C547 H556 0.930 . S
C548 C545 1.344 . S
C548 C547 1.371 . S
C548 H557 0.931 . S
C549 C545 1.328 . S
C549 C550 1.433 . S
C549 H558 0.931 . S
C550 C546 1.323 . S
C550 C549 1.433 . S
C550 H559 0.933 . S
C551 Dy521 2.738 . S
C551 O531 1.255 . S
C551 O532 1.249 . S
C551 C545 1.516 . S
H552 C538 0.930 . S
H553 C539 0.931 . S
H554 C540 0.931 . S
H555 C541 0.933 . S
H556 C547 0.930 . S
H557 C548 0.931 . S
H558 C549 0.931 . S
H559 C550 0.933 . S
Dy560 O563 2.307 . S
Dy560 O565 2.395 . S
Dy560 O566 2.379 . S
Dy560 O568 2.339 . S
Dy560 O570 2.298 . S
Dy560 O574 2.275 . S
Dy560 C582 2.738 . S
Dy561 O564 2.298 . S
Dy561 O567 2.275 . S
Dy561 O569 2.307 . S
Dy561 O571 2.395 . S
Dy561 O572 2.379 . S
Dy561 O575 2.339 . S
Dy561 C591 2.738 . S
C562 O574 1.254 . S
C562 O575 1.257 . S
O563 Dy560 2.307 . S
O563 C573 1.266 . S
O564 Dy561 2.298 . S
O564 C573 1.236 . S
O565 Dy560 2.395 . S
O565 C582 1.255 . S
O566 Dy560 2.379 . S
O566 C582 1.249 . S
O567 Dy561 2.275 . S
O567 C583 1.254 . S
O568 Dy560 2.339 . S
O568 C583 1.257 . S
O569 Dy561 2.307 . S
O569 C584 1.266 . S
O570 Dy560 2.298 . S
O570 C584 1.236 . S
O571 Dy561 2.395 . S
O571 C591 1.255 . S
O572 Dy561 2.379 . S
O572 C591 1.249 . S
C573 O563 1.266 . S
C573 O564 1.236 . S
O574 Dy560 2.275 . S
O574 C562 1.254 . S
O575 Dy561 2.339 . S
O575 C562 1.257 . S
C576 C579 1.344 . S
C576 C580 1.328 . S
C576 C582 1.516 . S
C577 C578 1.304 . S
C577 C581 1.323 . S
C578 C577 1.304 . S
C578 C579 1.371 . S
C578 H592 0.930 . S
C579 C576 1.344 . S
C579 C578 1.371 . S
C579 H593 0.931 . S
C580 C576 1.328 . S
C580 C581 1.433 . S
C580 H594 0.931 . S
C581 C577 1.323 . S
C581 C580 1.433 . S
C581 H595 0.933 . S
C582 Dy560 2.738 . S
C582 O565 1.255 . S
C582 O566 1.249 . S
C582 C576 1.516 . S
C583 O567 1.254 . S
C583 O568 1.257 . S
C584 O569 1.266 . S
C584 O570 1.236 . S
C585 C588 1.344 . S
C585 C589 1.328 . S
C585 C591 1.516 . S
C586 C587 1.304 . S
C586 C590 1.323 . S
C587 C586 1.304 . S
C587 C588 1.371 . S
C587 H596 0.930 . S
C588 C585 1.344 . S
C588 C587 1.371 . S
C588 H597 0.931 . S
C589 C585 1.328 . S
C589 C590 1.433 . S
C589 H598 0.931 . S
C590 C586 1.323 . S
C590 C589 1.433 . S
C590 H599 0.933 . S
C591 Dy561 2.738 . S
C591 O571 1.255 . S
C591 O572 1.249 . S
C591 C585 1.516 . S
H592 C578 0.930 . S
H593 C579 0.931 . S
H594 C580 0.931 . S
H595 C581 0.933 . S
H596 C587 0.930 . S
H597 C588 0.931 . S
H598 C589 0.931 . S
H599 C590 0.933 . S
Dy600 O603 2.307 1_656 S
Dy600 O605 2.395 . S
Dy600 O606 2.379 . S
Dy600 O608 2.339 1_655 S
Dy600 O610 2.298 . S
Dy600 O614 2.275 1_556 S
Dy600 C622 2.738 . S
Dy601 O604 2.298 . S
Dy601 O607 2.275 1_554 S
Dy601 O609 2.307 1_455 S
Dy601 O611 2.395 . S
Dy601 O612 2.379 . S
Dy601 O615 2.339 1_455 S
Dy601 C631 2.738 . S
C602 O614 1.254 . S
C602 O615 1.257 . S
O603 Dy600 2.307 1_454 S
O603 C613 1.266 . S
O604 Dy601 2.298 . S
O604 C613 1.236 . S
O605 Dy600 2.395 . S
O605 C622 1.255 . S
O606 Dy600 2.379 . S
O606 C622 1.249 . S
O607 Dy601 2.275 1_556 S
O607 C623 1.254 . S
O608 Dy600 2.339 1_455 S
O608 C623 1.257 . S
O609 Dy601 2.307 1_655 S
O609 C624 1.266 1_554 S
O610 Dy600 2.298 . S
O610 C624 1.236 . S
O611 Dy601 2.395 . S
O611 C631 1.255 . S
O612 Dy601 2.379 . S
O612 C631 1.249 . S
C613 O603 1.266 . S
C613 O604 1.236 . S
O614 Dy600 2.275 1_554 S
O614 C602 1.254 . S
O615 Dy601 2.339 1_655 S
O615 C602 1.257 . S
C616 C619 1.344 . S
C616 C620 1.328 . S
C616 C622 1.516 . S
C617 C618 1.304 . S
C617 C621 1.323 . S
C618 C617 1.304 . S
C618 C619 1.371 . S
C618 H632 0.930 . S
C619 C616 1.344 . S
C619 C618 1.371 . S
C619 H633 0.931 . S
C620 C616 1.328 . S
C620 C621 1.433 . S
C620 H634 0.931 . S
C621 C617 1.323 . S
C621 C620 1.433 . S
C621 H635 0.933 . S
C622 Dy600 2.738 . S
C622 O605 1.255 . S
C622 O606 1.249 . S
C622 C616 1.516 . S
C623 O607 1.254 . S
C623 O608 1.257 . S
C624 O609 1.266 1_556 S
C624 O610 1.236 . S
C625 C628 1.344 . S
C625 C629 1.328 . S
C625 C631 1.516 . S
C626 C627 1.304 . S
C626 C630 1.323 . S
C627 C626 1.304 . S
C627 C628 1.371 . S
C627 H636 0.930 . S
C628 C625 1.344 . S
C628 C627 1.371 . S
C628 H637 0.931 . S
C629 C625 1.328 . S
C629 C630 1.433 . S
C629 H638 0.931 . S
C630 C626 1.323 . S
C630 C629 1.433 . S
C630 H639 0.933 . S
C631 Dy601 2.738 . S
C631 O611 1.255 . S
C631 O612 1.249 . S
C631 C625 1.516 . S
H632 C618 0.930 . S
H633 C619 0.931 . S
H634 C620 0.931 . S
H635 C621 0.933 . S
H636 C627 0.930 . S
H637 C628 0.931 . S
H638 C629 0.931 . S
H639 C630 0.933 . S
H640 C648 0.950 . S
H641 C653 0.950 . S
H642 C650 0.950 . S
H643 C652 0.950 . S
H644 C654 0.950 . S
H645 C656 0.950 . S
H646 C658 0.950 . S
H647 C659 0.950 . S
C648 H640 0.950 . S
C648 C649 1.386 . S
C648 C650 1.391 . S
C649 C648 1.386 . S
C649 C653 1.393 . S
C650 H642 0.950 . S
C650 C648 1.391 . S
C650 C651 1.400 . S
C651 C650 1.400 . S
C651 C652 1.398 . S
C651 C657 1.491 . S
C652 H643 0.950 . S
C652 C651 1.398 . S
C652 C653 1.391 . S
C653 H641 0.950 . S
C653 C649 1.393 . S
C653 C652 1.391 . S
C654 H644 0.950 . S
C654 C655 1.386 . S
C654 C656 1.391 . S
C655 C654 1.386 . S
C655 C659 1.393 . S
C656 H645 0.950 . S
C656 C654 1.391 . S
C656 C657 1.400 . S
C657 C651 1.491 . S
C657 C656 1.400 . S
C657 C658 1.398 . S
C658 H646 0.950 . S
C658 C657 1.398 . S
C658 C659 1.391 . S
C659 H647 0.950 . S
C659 C655 1.393 . S
C659 C658 1.391 . S
H660 C668 0.950 . S
H661 C673 0.950 . S
H662 C670 0.950 . S
H663 C672 0.950 . S
H664 C674 0.950 . S
H665 C676 0.950 . S
H666 C678 0.950 . S
H667 C679 0.950 . S
C668 H660 0.950 . S
C668 C669 1.386 . S
C668 C670 1.391 . S
C669 C668 1.386 . S
C669 C673 1.393 . S
C670 H662 0.950 . S
C670 C668 1.391 . S
C670 C671 1.400 . S
C671 C670 1.400 . S
C671 C672 1.398 . S
C671 C677 1.491 . S
C672 H663 0.950 . S
C672 C671 1.398 . S
C672 C673 1.391 . S
C673 H661 0.950 . S
C673 C669 1.393 . S
C673 C672 1.391 . S
C674 H664 0.950 . S
C674 C675 1.386 . S
C674 C676 1.391 . S
C675 C674 1.386 . S
C675 C679 1.393 . S
C676 H665 0.950 . S
C676 C674 1.391 . S
C676 C677 1.400 . S
C677 C671 1.491 . S
C677 C676 1.400 . S
C677 C678 1.398 . S
C678 H666 0.950 . S
C678 C677 1.398 . S
C678 C679 1.391 . S
C679 H667 0.950 . S
C679 C675 1.393 . S
C679 C678 1.391 . S
H680 C688 0.950 . S
H681 C693 0.950 . S
H682 C690 0.950 . S
H683 C692 0.950 . S
H684 C694 0.950 . S
H685 C696 0.950 . S
H686 C698 0.950 . S
H687 C699 0.950 . S
C688 H680 0.950 . S
C688 C689 1.386 . S
C688 C690 1.391 . S
C689 C688 1.386 . S
C689 C693 1.393 . S
C690 H682 0.950 . S
C690 C688 1.391 . S
C690 C691 1.400 . S
C691 C690 1.400 . S
C691 C692 1.398 . S
C691 C697 1.491 . S
C692 H683 0.950 . S
C692 C691 1.398 . S
C692 C693 1.391 . S
C693 H681 0.950 . S
C693 C689 1.393 . S
C693 C692 1.391 . S
C694 H684 0.950 . S
C694 C695 1.386 . S
C694 C696 1.391 . S
C695 C694 1.386 . S
C695 C699 1.393 . S
C696 H685 0.950 . S
C696 C694 1.391 . S
C696 C697 1.400 . S
C697 C691 1.491 . S
C697 C696 1.400 . S
C697 C698 1.398 . S
C698 H686 0.950 . S
C698 C697 1.398 . S
C698 C699 1.391 . S
C699 H687 0.950 . S
C699 C695 1.393 . S
C699 C698 1.391 . S
H700 C708 0.950 . S
H701 C713 0.950 . S
H702 C710 0.950 . S
H703 C712 0.950 . S
H704 C714 0.950 . S
H705 C716 0.950 . S
H706 C718 0.950 . S
H707 C719 0.950 . S
C708 H700 0.950 . S
C708 C709 1.386 . S
C708 C710 1.391 . S
C709 C708 1.386 . S
C709 C713 1.393 . S
C710 H702 0.950 . S
C710 C708 1.391 . S
C710 C711 1.400 . S
C711 C710 1.400 . S
C711 C712 1.398 . S
C711 C717 1.491 . S
C712 H703 0.950 . S
C712 C711 1.398 . S
C712 C713 1.391 . S
C713 H701 0.950 . S
C713 C709 1.393 . S
C713 C712 1.391 . S
C714 H704 0.950 . S
C714 C715 1.386 . S
C714 C716 1.391 . S
C715 C714 1.386 . S
C715 C719 1.393 . S
C716 H705 0.950 . S
C716 C714 1.391 . S
C716 C717 1.400 . S
C717 C711 1.491 . S
C717 C716 1.400 . S
C717 C718 1.398 . S
C718 H706 0.950 . S
C718 C717 1.398 . S
C718 C719 1.391 . S
C719 H707 0.950 . S
C719 C715 1.393 . S
C719 C718 1.391 . S
H720 C728 0.950 . S
H721 C733 0.950 . S
H722 C730 0.950 . S
H723 C732 0.950 . S
H724 C734 0.950 . S
H725 C736 0.950 . S
H726 C738 0.950 . S
H727 C739 0.950 . S
C728 H720 0.950 . S
C728 C729 1.386 . S
C728 C730 1.391 . S
C729 C728 1.386 . S
C729 C733 1.393 . S
C730 H722 0.950 . S
C730 C728 1.391 . S
C730 C731 1.400 . S
C731 C730 1.400 . S
C731 C732 1.398 . S
C731 C737 1.491 . S
C732 H723 0.950 . S
C732 C731 1.398 . S
C732 C733 1.391 . S
C733 H721 0.950 . S
C733 C729 1.393 . S
C733 C732 1.391 . S
C734 H724 0.950 . S
C734 C735 1.386 . S
C734 C736 1.391 . S
C735 C734 1.386 . S
C735 C739 1.393 . S
C736 H725 0.950 . S
C736 C734 1.391 . S
C736 C737 1.400 . S
C737 C731 1.491 . S
C737 C736 1.400 . S
C737 C738 1.398 . S
C738 H726 0.950 . S
C738 C737 1.398 . S
C738 C739 1.391 . S
C739 H727 0.950 . S
C739 C735 1.393 . S
C739 C738 1.391 . S
H740 C748 0.950 . S
H741 C753 0.950 . S
H742 C750 0.950 . S
H743 C752 0.950 . S
H744 C754 0.950 . S
H745 C756 0.950 . S
H746 C758 0.950 . S
H747 C759 0.950 1_655 S
C748 H740 0.950 . S
C748 C749 1.386 . S
C748 C750 1.391 . S
C749 C748 1.386 . S
C749 C753 1.393 . S
C750 H742 0.950 . S
C750 C748 1.391 . S
C750 C751 1.400 . S
C751 C750 1.400 . S
C751 C752 1.398 . S
C751 C757 1.491 . S
C752 H743 0.950 . S
C752 C751 1.398 . S
C752 C753 1.391 . S
C753 H741 0.950 . S
C753 C749 1.393 . S
C753 C752 1.391 . S
C754 H744 0.950 . S
C754 C755 1.386 . S
C754 C756 1.391 . S
C755 C754 1.386 . S
C755 C759 1.393 . S
C756 H745 0.950 . S
C756 C754 1.391 . S
C756 C757 1.400 . S
C757 C751 1.491 . S
C757 C756 1.400 . S
C757 C758 1.398 . S
C758 H746 0.950 . S
C758 C757 1.398 . S
C758 C759 1.391 . S
C759 H747 0.950 1_455 S
C759 C755 1.393 . S
C759 C758 1.391 . S
H760 C768 0.950 . S
H761 C773 0.950 . S
H762 C770 0.950 . S
H763 C772 0.950 . S
H764 C774 0.950 . S
H765 C776 0.950 . S
H766 C778 0.950 . S
H767 C779 0.950 . S
C768 H760 0.950 . S
C768 C769 1.386 . S
C768 C770 1.391 . S
C769 C768 1.386 . S
C769 C773 1.393 . S
C770 H762 0.950 . S
C770 C768 1.391 . S
C770 C771 1.400 . S
C771 C770 1.400 . S
C771 C772 1.398 . S
C771 C777 1.491 . S
C772 H763 0.950 . S
C772 C771 1.398 . S
C772 C773 1.391 . S
C773 H761 0.950 . S
C773 C769 1.393 . S
C773 C772 1.391 . S
C774 H764 0.950 . S
C774 C775 1.386 . S
C774 C776 1.391 . S
C775 C774 1.386 . S
C775 C779 1.393 . S
C776 H765 0.950 . S
C776 C774 1.391 . S
C776 C777 1.400 . S
C777 C771 1.491 . S
C777 C776 1.400 . S
C777 C778 1.398 . S
C778 H766 0.950 . S
C778 C777 1.398 . S
C778 C779 1.391 . S
C779 H767 0.950 . S
C779 C775 1.393 . S
C779 C778 1.391 . S
H780 C788 0.950 . S
H781 C793 0.950 . S
H782 C790 0.950 . S
H783 C792 0.950 . S
H784 C794 0.950 . S
H785 C796 0.950 . S
H786 C798 0.950 . S
H787 C799 0.950 . S
C788 H780 0.950 . S
C788 C789 1.386 . S
C788 C790 1.391 . S
C789 C788 1.386 . S
C789 C793 1.393 . S
C790 H782 0.950 . S
C790 C788 1.391 . S
C790 C791 1.400 . S
C791 C790 1.400 . S
C791 C792 1.398 . S
C791 C797 1.491 . S
C792 H783 0.950 . S
C792 C791 1.398 . S
C792 C793 1.391 . S
C793 H781 0.950 . S
C793 C789 1.393 . S
C793 C792 1.391 . S
C794 H784 0.950 . S
C794 C795 1.386 . S
C794 C796 1.391 . S
C795 C794 1.386 . S
C795 C799 1.393 . S
C796 H785 0.950 . S
C796 C794 1.391 . S
C796 C797 1.400 . S
C797 C791 1.491 . S
C797 C796 1.400 . S
C797 C798 1.398 . S
C798 H786 0.950 . S
C798 C797 1.398 . S
C798 C799 1.391 . S
C799 H787 0.950 . S
C799 C795 1.393 . S
C799 C798 1.391 . S
H800 C808 0.950 . S
H801 C813 0.950 . S
H802 C810 0.950 . S
H803 C812 0.950 . S
H804 C814 0.950 . S
H805 C816 0.950 . S
H806 C818 0.950 . S
H807 C819 0.950 . S
C808 H800 0.950 . S
C808 C809 1.386 . S
C808 C810 1.391 . S
C809 C808 1.386 . S
C809 C813 1.393 . S
C810 H802 0.950 . S
C810 C808 1.391 . S
C810 C811 1.400 . S
C811 C810 1.400 . S
C811 C812 1.398 . S
C811 C817 1.491 . S
C812 H803 0.950 . S
C812 C811 1.398 . S
C812 C813 1.391 . S
C813 H801 0.950 . S
C813 C809 1.393 . S
C813 C812 1.391 . S
C814 H804 0.950 . S
C814 C815 1.386 . S
C814 C816 1.391 . S
C815 C814 1.386 . S
C815 C819 1.393 . S
C816 H805 0.950 . S
C816 C814 1.391 . S
C816 C817 1.400 . S
C817 C811 1.491 . S
C817 C816 1.400 . S
C817 C818 1.398 . S
C818 H806 0.950 . S
C818 C817 1.398 . S
C818 C819 1.391 . S
C819 H807 0.950 . S
C819 C815 1.393 . S
C819 C818 1.391 . S
H820 C828 0.950 . S
H821 C833 0.950 . S
H822 C830 0.950 . S
H823 C832 0.950 . S
H824 C834 0.950 . S
H825 C836 0.950 . S
H826 C838 0.950 . S
H827 C839 0.950 . S
C828 H820 0.950 . S
C828 C829 1.386 . S
C828 C830 1.391 . S
C829 C828 1.386 . S
C829 C833 1.393 . S
C830 H822 0.950 . S
C830 C828 1.391 . S
C830 C831 1.400 . S
C831 C830 1.400 . S
C831 C832 1.398 . S
C831 C837 1.491 . S
C832 H823 0.950 . S
C832 C831 1.398 . S
C832 C833 1.391 . S
C833 H821 0.950 . S
C833 C829 1.393 . S
C833 C832 1.391 . S
C834 H824 0.950 . S
C834 C835 1.386 . S
C834 C836 1.391 . S
C835 C834 1.386 . S
C835 C839 1.393 . S
C836 H825 0.950 . S
C836 C834 1.391 . S
C836 C837 1.400 . S
C837 C831 1.491 . S
C837 C836 1.400 . S
C837 C838 1.398 . S
C838 H826 0.950 . S
C838 C837 1.398 . S
C838 C839 1.391 . S
C839 H827 0.950 . S
C839 C835 1.393 . S
C839 C838 1.391 . S
H840 C848 0.950 . S
H841 C853 0.950 . S
H842 C850 0.950 . S
H843 C852 0.950 . S
H844 C854 0.932 1_455 S
H845 C856 0.950 . S
H846 C858 0.950 . S
H847 C859 0.950 . S
C848 H840 0.950 . S
C848 C849 1.386 . S
C848 C850 1.391 . S
C849 C848 1.386 . S
C849 C853 1.393 . S
C850 H842 0.950 . S
C850 C848 1.391 . S
C850 C851 1.400 . S
C851 C850 1.400 . S
C851 C852 1.398 . S
C851 C857 1.491 . S
C852 H843 0.950 . S
C852 C851 1.398 . S
C852 C853 1.391 . S
C853 H841 0.950 . S
C853 C849 1.393 . S
C853 C852 1.391 . S
C854 H844 0.932 1_655 S
C854 C855 1.386 . S
C854 C856 1.391 . S
C855 C854 1.386 . S
C855 C859 1.393 . S
C856 H845 0.950 . S
C856 C854 1.391 . S
C856 C857 1.400 . S
C857 C851 1.491 . S
C857 C856 1.400 . S
C857 C858 1.398 . S
C858 H846 0.950 . S
C858 C857 1.398 . S
C858 C859 1.391 . S
C859 H847 0.950 . S
C859 C855 1.393 . S
C859 C858 1.391 . S
H860 C868 0.950 . S
H861 C873 0.950 . S
H862 C870 0.950 . S
H863 C872 0.950 . S
H864 C874 0.950 . S
H865 C876 0.950 . S
H866 C878 0.950 . S
H867 C879 0.950 . S
C868 H860 0.950 . S
C868 C869 1.386 . S
C868 C870 1.391 . S
C869 C868 1.386 . S
C869 C873 1.393 . S
C870 H862 0.950 . S
C870 C868 1.391 . S
C870 C871 1.400 . S
C871 C870 1.400 . S
C871 C872 1.398 . S
C871 C877 1.491 . S
C872 H863 0.950 . S
C872 C871 1.398 . S
C872 C873 1.391 . S
C873 H861 0.950 . S
C873 C869 1.393 . S
C873 C872 1.391 . S
C874 H864 0.950 . S
C874 C875 1.386 . S
C874 C876 1.391 . S
C875 C874 1.386 . S
C875 C879 1.393 . S
C876 H865 0.950 . S
C876 C874 1.391 . S
C876 C877 1.400 . S
C877 C871 1.491 . S
C877 C876 1.400 . S
C877 C878 1.398 . S
C878 H866 0.950 . S
C878 C877 1.398 . S
C878 C879 1.391 . S
C879 H867 0.950 . S
C879 C875 1.393 . S
C879 C878 1.391 . S
H880 C888 0.950 . S
H881 C893 0.950 . S
H882 C890 0.950 . S
H883 C892 0.950 . S
H884 C894 0.950 . S
H885 C896 0.950 . S
H886 C898 0.950 . S
H887 C899 0.950 . S
C888 H880 0.950 . S
C888 C889 1.386 . S
C888 C890 1.391 . S
C889 C888 1.386 . S
C889 C893 1.393 . S
C890 H882 0.950 . S
C890 C888 1.391 . S
C890 C891 1.400 . S
C891 C890 1.400 . S
C891 C892 1.398 . S
C891 C897 1.491 . S
C892 H883 0.950 . S
C892 C891 1.398 . S
C892 C893 1.391 . S
C893 H881 0.950 . S
C893 C889 1.393 . S
C893 C892 1.391 . S
C894 H884 0.950 . S
C894 C895 1.386 . S
C894 C896 1.391 . S
C895 C894 1.386 . S
C895 C899 1.393 . S
C896 H885 0.950 . S
C896 C894 1.391 . S
C896 C897 1.400 . S
C897 C891 1.491 . S
C897 C896 1.400 . S
C897 C898 1.398 . S
C898 H886 0.950 . S
C898 C897 1.398 . S
C898 C899 1.391 . S
C899 H887 0.950 . S
C899 C895 1.393 . S
C899 C898 1.391 . S
H900 C908 0.950 . S
H901 C913 0.950 . S
H902 C910 0.950 . S
H903 C912 0.950 . S
H904 C914 0.950 . S
H905 C916 0.950 . S
H906 C918 0.950 . S
H907 C919 0.950 . S
C908 H900 0.950 . S
C908 C909 1.386 . S
C908 C910 1.391 . S
C909 C908 1.386 . S
C909 C913 1.393 . S
C910 H902 0.950 . S
C910 C908 1.391 . S
C910 C911 1.400 . S
C911 C910 1.400 . S
C911 C912 1.398 . S
C911 C917 1.491 . S
C912 H903 0.950 . S
C912 C911 1.398 . S
C912 C913 1.391 . S
C913 H901 0.950 . S
C913 C909 1.393 . S
C913 C912 1.391 . S
C914 H904 0.950 . S
C914 C915 1.386 . S
C914 C916 1.391 . S
C915 C914 1.386 . S
C915 C919 1.393 . S
C916 H905 0.950 . S
C916 C914 1.391 . S
C916 C917 1.400 . S
C917 C911 1.491 . S
C917 C916 1.400 . S
C917 C918 1.398 . S
C918 H906 0.950 . S
C918 C917 1.398 . S
C918 C919 1.391 . S
C919 H907 0.950 . S
C919 C915 1.393 . S
C919 C918 1.391 . S
H920 C928 0.950 . S
H921 C933 0.950 . S
H922 C930 0.950 . S
H923 C932 0.950 . S
H924 C934 0.950 . S
H925 C936 0.950 . S
H926 C938 0.950 . S
H927 C939 0.950 . S
C928 H920 0.950 . S
C928 C929 1.386 . S
C928 C930 1.391 . S
C929 C928 1.386 . S
C929 C933 1.393 . S
C930 H922 0.950 . S
C930 C928 1.391 . S
C930 C931 1.400 . S
C931 C930 1.400 . S
C931 C932 1.398 . S
C931 C937 1.491 . S
C932 H923 0.950 . S
C932 C931 1.398 . S
C932 C933 1.391 . S
C933 H921 0.950 . S
C933 C929 1.393 . S
C933 C932 1.391 . S
C934 H924 0.950 . S
C934 C935 1.386 . S
C934 C936 1.391 . S
C935 C934 1.386 . S
C935 C939 1.393 . S
C936 H925 0.950 . S
C936 C934 1.391 . S
C936 C937 1.400 . S
C937 C931 1.491 . S
C937 C936 1.400 . S
C937 C938 1.398 . S
C938 H926 0.950 . S
C938 C937 1.398 . S
C938 C939 1.391 . S
C939 H927 0.950 . S
C939 C935 1.393 . S
C939 C938 1.391 . S
H940 C948 0.950 . S
H941 C953 0.950 . S
H942 C950 0.950 . S
H943 C952 0.950 . S
H944 C954 0.950 . S
H945 C956 0.950 . S
H946 C958 0.950 . S
H947 C959 0.950 . S
C948 H940 0.950 . S
C948 C949 1.386 . S
C948 C950 1.391 . S
C949 C948 1.386 . S
C949 C953 1.393 . S
C950 H942 0.950 . S
C950 C948 1.391 . S
C950 C951 1.400 . S
C951 C950 1.400 . S
C951 C952 1.398 . S
C951 C957 1.491 . S
C952 H943 0.950 . S
C952 C951 1.398 . S
C952 C953 1.391 . S
C953 H941 0.950 . S
C953 C949 1.393 . S
C953 C952 1.391 . S
C954 H944 0.950 . S
C954 C955 1.386 . S
C954 C956 1.391 . S
C955 C954 1.386 . S
C955 C959 1.393 . S
C956 H945 0.950 . S
C956 C954 1.391 . S
C956 C957 1.400 . S
C957 C951 1.491 . S
C957 C956 1.400 . S
C957 C958 1.398 . S
C958 H946 0.950 . S
C958 C957 1.398 . S
C958 C959 1.391 . S
C959 H947 0.950 . S
C959 C955 1.393 . S
C959 C958 1.391 . S
H960 C968 0.950 . S
H961 C973 0.950 . S
H962 C970 0.950 . S
H963 C972 0.950 . S
H964 C974 0.950 . S
H965 C976 0.950 . S
H966 C978 0.950 . S
H967 C979 0.950 . S
C968 H960 0.950 . S
C968 C969 1.386 . S
C968 C970 1.391 . S
C969 C968 1.386 . S
C969 C973 1.393 . S
C970 H962 0.950 . S
C970 C968 1.391 . S
C970 C971 1.400 . S
C971 C970 1.400 . S
C971 C972 1.398 . S
C971 C977 1.491 . S
C972 H963 0.950 . S
C972 C971 1.398 . S
C972 C973 1.391 . S
C973 H961 0.950 . S
C973 C969 1.393 . S
C973 C972 1.391 . S
C974 H964 0.950 . S
C974 C975 1.386 . S
C974 C976 1.391 . S
C975 C974 1.386 . S
C975 C979 1.393 . S
C976 H965 0.950 . S
C976 C974 1.391 . S
C976 C977 1.400 . S
C977 C971 1.491 . S
C977 C976 1.400 . S
C977 C978 1.398 . S
C978 H966 0.950 . S
C978 C977 1.398 . S
C978 C979 1.391 . S
C979 H967 0.950 . S
C979 C975 1.393 . S
C979 C978 1.391 . S
H980 C988 0.950 . S
H981 C993 0.950 . S
H982 C990 0.950 . S
H983 C992 0.950 . S
H984 C994 0.950 . S
H985 C996 0.950 . S
H986 C998 0.950 . S
H987 C999 0.950 1_455 S
C988 H980 0.950 . S
C988 C989 1.386 . S
C988 C990 1.391 . S
C989 C988 1.386 . S
C989 C993 1.393 . S
C990 H982 0.950 . S
C990 C988 1.391 . S
C990 C991 1.400 . S
C991 C990 1.400 . S
C991 C992 1.398 . S
C991 C997 1.491 . S
C992 H983 0.950 . S
C992 C991 1.398 . S
C992 C993 1.391 . S
C993 H981 0.950 . S
C993 C989 1.393 . S
C993 C992 1.391 . S
C994 H984 0.950 . S
C994 C995 1.386 . S
C994 C996 1.391 . S
C995 C994 1.386 . S
C995 C999 1.393 . S
C996 H985 0.950 . S
C996 C994 1.391 . S
C996 C997 1.400 . S
C997 C991 1.491 . S
C997 C996 1.400 . S
C997 C998 1.398 . S
C998 H986 0.950 . S
C998 C997 1.398 . S
C998 C999 1.391 . S
C999 H987 0.950 1_655 S
C999 C995 1.393 . S
C999 C998 1.391 . S
H1000 C1008 0.950 . S
H1001 C1013 0.950 . S
H1002 C1010 0.950 . S
H1003 C1012 0.950 . S
H1004 C1014 0.950 . S
H1005 C1016 0.950 . S
H1006 C1018 0.950 . S
H1007 C1019 0.950 . S
C1008 H1000 0.950 . S
C1008 C1009 1.386 . S
C1008 C1010 1.391 . S
C1009 C1008 1.386 . S
C1009 C1013 1.393 . S
C1010 H1002 0.950 . S
C1010 C1008 1.391 . S
C1010 C1011 1.400 . S
C1011 C1010 1.400 . S
C1011 C1012 1.398 . S
C1011 C1017 1.491 . S
C1012 H1003 0.950 . S
C1012 C1011 1.398 . S
C1012 C1013 1.391 . S
C1013 H1001 0.950 . S
C1013 C1009 1.393 . S
C1013 C1012 1.391 . S
C1014 H1004 0.950 . S
C1014 C1015 1.386 . S
C1014 C1016 1.391 . S
C1015 C1014 1.386 . S
C1015 C1019 1.393 . S
C1016 H1005 0.950 . S
C1016 C1014 1.391 . S
C1016 C1017 1.400 . S
C1017 C1011 1.491 . S
C1017 C1016 1.400 . S
C1017 C1018 1.398 . S
C1018 H1006 0.950 . S
C1018 C1017 1.398 . S
C1018 C1019 1.391 . S
C1019 H1007 0.950 . S
C1019 C1015 1.393 . S
C1019 C1018 1.391 . S
H1020 C1028 0.950 . S
H1021 C1033 0.950 . S
H1022 C1030 0.950 . S
H1023 C1032 0.950 . S
H1024 C1034 0.950 . S
H1025 C1036 0.950 . S
H1026 C1038 0.950 . S
H1027 C1039 0.950 . S
C1028 H1020 0.950 . S
C1028 C1029 1.386 . S
C1028 C1030 1.391 . S
C1029 C1028 1.386 . S
C1029 C1033 1.393 . S
C1030 H1022 0.950 . S
C1030 C1028 1.391 . S
C1030 C1031 1.400 . S
C1031 C1030 1.400 . S
C1031 C1032 1.398 . S
C1031 C1037 1.491 . S
C1032 H1023 0.950 . S
C1032 C1031 1.398 . S
C1032 C1033 1.391 . S
C1033 H1021 0.950 . S
C1033 C1029 1.393 . S
C1033 C1032 1.391 . S
C1034 H1024 0.950 . S
C1034 C1035 1.386 . S
C1034 C1036 1.391 . S
C1035 C1034 1.386 . S
C1035 C1039 1.393 . S
C1036 H1025 0.950 . S
C1036 C1034 1.391 . S
C1036 C1037 1.400 . S
C1037 C1031 1.491 . S
C1037 C1036 1.400 . S
C1037 C1038 1.398 . S
C1038 H1026 0.950 . S
C1038 C1037 1.398 . S
C1038 C1039 1.391 . S
C1039 H1027 0.950 . S
C1039 C1035 1.393 . S
C1039 C1038 1.391 . S
H1040 C1048 0.950 . S
H1041 C1053 0.950 . S
H1042 C1050 0.950 . S
H1043 C1052 0.950 . S
H1044 C1054 0.950 . S
H1045 C1056 0.950 . S
H1046 C1058 0.950 . S
H1047 C1059 0.950 . S
C1048 H1040 0.950 . S
C1048 C1049 1.386 . S
C1048 C1050 1.391 . S
C1049 C1048 1.386 . S
C1049 C1053 1.393 . S
C1050 H1042 0.950 . S
C1050 C1048 1.391 . S
C1050 C1051 1.400 . S
C1051 C1050 1.400 . S
C1051 C1052 1.398 . S
C1051 C1057 1.491 . S
C1052 H1043 0.950 . S
C1052 C1051 1.398 . S
C1052 C1053 1.391 . S
C1053 H1041 0.950 . S
C1053 C1049 1.393 . S
C1053 C1052 1.391 . S
C1054 H1044 0.950 . S
C1054 C1055 1.386 . S
C1054 C1056 1.391 . S
C1055 C1054 1.386 . S
C1055 C1059 1.393 . S
C1056 H1045 0.950 . S
C1056 C1054 1.391 . S
C1056 C1057 1.400 . S
C1057 C1051 1.491 . S
C1057 C1056 1.400 . S
C1057 C1058 1.398 . S
C1058 H1046 0.950 . S
C1058 C1057 1.398 . S
C1058 C1059 1.391 . S
C1059 H1047 0.950 . S
C1059 C1055 1.393 . S
C1059 C1058 1.391 . S
H1060 C1068 0.950 . S
H1061 C1073 0.950 . S
H1062 C1070 0.950 . S
H1063 C1072 0.950 . S
H1064 C1074 0.950 . S
H1065 C1076 0.950 . S
H1066 C1078 0.950 . S
H1067 C1079 0.950 . S
C1068 H1060 0.950 . S
C1068 C1069 1.386 . S
C1068 C1070 1.391 . S
C1069 C1068 1.386 . S
C1069 C1073 1.393 . S
C1070 H1062 0.950 . S
C1070 C1068 1.391 . S
C1070 C1071 1.400 . S
C1071 C1070 1.400 . S
C1071 C1072 1.398 . S
C1071 C1077 1.491 . S
C1072 H1063 0.950 . S
C1072 C1071 1.398 . S
C1072 C1073 1.391 . S
C1073 H1061 0.950 . S
C1073 C1069 1.393 . S
C1073 C1072 1.391 . S
C1074 H1064 0.950 . S
C1074 C1075 1.386 . S
C1074 C1076 1.391 . S
C1075 C1074 1.386 . S
C1075 C1079 1.393 . S
C1076 H1065 0.950 . S
C1076 C1074 1.391 . S
C1076 C1077 1.400 . S
C1077 C1071 1.491 . S
C1077 C1076 1.400 . S
C1077 C1078 1.398 . S
C1078 H1066 0.950 . S
C1078 C1077 1.398 . S
C1078 C1079 1.391 . S
C1079 H1067 0.950 . S
C1079 C1075 1.393 . S
C1079 C1078 1.391 . S
H1080 C1088 0.950 . S
H1081 C1093 0.950 . S
H1082 C1090 0.950 . S
H1083 C1092 0.950 . S
H1084 C1094 0.950 . S
H1085 C1096 0.950 . S
H1086 C1098 0.950 . S
H1087 C1099 0.950 1_655 S
C1088 H1080 0.950 . S
C1088 C1089 1.386 . S
C1088 C1090 1.391 . S
C1089 C1088 1.386 . S
C1089 C1093 1.393 . S
C1090 H1082 0.950 . S
C1090 C1088 1.391 . S
C1090 C1091 1.400 . S
C1091 C1090 1.400 . S
C1091 C1092 1.398 . S
C1091 C1097 1.491 . S
C1092 H1083 0.950 . S
C1092 C1091 1.398 . S
C1092 C1093 1.391 . S
C1093 H1081 0.950 . S
C1093 C1089 1.393 . S
C1093 C1092 1.391 . S
C1094 H1084 0.950 . S
C1094 C1095 1.386 . S
C1094 C1096 1.391 . S
C1095 C1094 1.386 . S
C1095 C1099 1.393 . S
C1096 H1085 0.950 . S
C1096 C1094 1.391 . S
C1096 C1097 1.400 . S
C1097 C1091 1.491 . S
C1097 C1096 1.400 . S
C1097 C1098 1.398 . S
C1098 H1086 0.950 . S
C1098 C1097 1.398 . S
C1098 C1099 1.391 . S
C1099 H1087 0.950 1_455 S
C1099 C1095 1.393 . S
C1099 C1098 1.391 . S
H1100 C1108 0.950 . S
H1101 C1113 0.950 . S
H1102 C1110 0.950 . S
H1103 C1112 0.950 . S
H1104 C1114 0.950 . S
H1105 C1116 0.950 . S
H1106 C1118 0.950 . S
H1107 C1119 0.950 . S
C1108 H1100 0.950 . S
C1108 C1109 1.386 . S
C1108 C1110 1.391 . S
C1109 C1108 1.386 . S
C1109 C1113 1.393 . S
C1110 H1102 0.950 . S
C1110 C1108 1.391 . S
C1110 C1111 1.400 . S
C1111 C1110 1.400 . S
C1111 C1112 1.398 . S
C1111 C1117 1.491 . S
C1112 H1103 0.950 . S
C1112 C1111 1.398 . S
C1112 C1113 1.391 . S
C1113 H1101 0.950 . S
C1113 C1109 1.393 . S
C1113 C1112 1.391 . S
C1114 H1104 0.950 . S
C1114 C1115 1.386 . S
C1114 C1116 1.391 . S
C1115 C1114 1.386 . S
C1115 C1119 1.393 . S
C1116 H1105 0.950 . S
C1116 C1114 1.391 . S
C1116 C1117 1.400 . S
C1117 C1111 1.491 . S
C1117 C1116 1.400 . S
C1117 C1118 1.398 . S
C1118 H1106 0.950 . S
C1118 C1117 1.398 . S
C1118 C1119 1.391 . S
C1119 H1107 0.950 . S
C1119 C1115 1.393 . S
C1119 C1118 1.391 . S
C649 C1 1.131 . S
C655 C497 1.234 . S
C669 C80 1.176 . S
C675 C537 1.226 . S
C695 C562 2.377 . S
C689 C140 2.382 . S
C709 C211 2.417 . S
C715 C602 2.386 . S
C735 C533 1.811 . S
C729 C31 1.646 . S
C755 C493 1.809 . S
C749 C61 1.727 . S
C775 C624 1.682 . S
C769 C151 1.643 . S
C795 C584 1.676 . S
C789 C200 1.697 . S
C809 C20 1.329 . S
C815 C626 1.389 . S
C835 C543 2.142 . S
C829 C121 2.183 . S
C849 C181 2.124 . S
C855 C503 2.146 . S
C869 C91 1.418 . S
C875 C586 1.397 . S
C895 C506 1.241 . S
C889 C260 1.188 . S
C909 C320 1.176 . S
C915 C546 1.218 . S
C929 C361 2.405 . S
C935 C583 2.374 . S
C949 C451 2.418 . S
C955 C623 2.385 . S
C969 C271 1.668 . S
C975 C544 1.807 . S
C995 C504 1.808 . S
C989 C301 1.740 . S
C1015 C613 1.673 . S
C1009 C380 1.632 . S
C1035 C573 1.682 . S
C1029 C440 1.695 . S
C1049 C241 1.241 . S
C1055 C617 1.379 . S
C1075 C522 2.150 . S
C1069 C391 2.190 . S
C1095 C482 2.144 . S
C1089 C421 2.120 . S
C1109 C331 1.414 . S
C1115 C577 1.402 . S
