# Generated by pormake.
# Topology ssa, (4,4)-cn, num edge types: 1
# Building blocks:
#     Node 0, Type 0, BuildingBlock: IZENUY_clean_linker_0, # of connection points: 4
#     Node 1, Type 0, BuildingBlock: IZENUY_clean_linker_0, # of connection points: 4
#     Node 2, Type 0, BuildingBlock: IZENUY_clean_linker_0, # of connection points: 4
#     Node 3, Type 0, BuildingBlock: IZENUY_clean_linker_0, # of connection points: 4
#     Node 4, Type 0, BuildingBlock: IZENUY_clean_linker_0, # of connection points: 4
#     Node 5, Type 0, BuildingBlock: IZENUY_clean_linker_0, # of connection points: 4
#     Node 6, Type 1, BuildingBlock: NAWXER_clean_sbu_0, # of connection points: 4
#     Node 7, Type 1, BuildingBlock: NAWXER_clean_sbu_0, # of connection points: 4
#     Node 8, Type 1, BuildingBlock: NAWXER_clean_sbu_0, # of connection points: 4
#     Node 9, Type 1, BuildingBlock: NAWXER_clean_sbu_0, # of connection points: 4
#     Node 10, Type 1, BuildingBlock: NAWXER_clean_sbu_0, # of connection points: 4
#     Node 11, Type 1, BuildingBlock: NAWXER_clean_sbu_0, # of connection points: 4
#     Edge 12, Type (0, 1), BuildingBlock: AJUNOK_clean_linker_0, # of connection points: 2
#     Edge 13, Type (0, 1), BuildingBlock: AJUNOK_clean_linker_0, # of connection points: 2
#     Edge 14, Type (0, 1), BuildingBlock: AJUNOK_clean_linker_0, # of connection points: 2
#     Edge 15, Type (0, 1), BuildingBlock: AJUNOK_clean_linker_0, # of connection points: 2
#     Edge 16, Type (0, 1), BuildingBlock: AJUNOK_clean_linker_0, # of connection points: 2
#     Edge 17, Type (0, 1), BuildingBlock: AJUNOK_clean_linker_0, # of connection points: 2
#     Edge 18, Type (0, 1), BuildingBlock: AJUNOK_clean_linker_0, # of connection points: 2
#     Edge 19, Type (0, 1), BuildingBlock: AJUNOK_clean_linker_0, # of connection points: 2
#     Edge 20, Type (0, 1), BuildingBlock: AJUNOK_clean_linker_0, # of connection points: 2
#     Edge 21, Type (0, 1), BuildingBlock: AJUNOK_clean_linker_0, # of connection points: 2
#     Edge 22, Type (0, 1), BuildingBlock: AJUNOK_clean_linker_0, # of connection points: 2
#     Edge 23, Type (0, 1), BuildingBlock: AJUNOK_clean_linker_0, # of connection points: 2
#     Edge 24, Type (0, 1), BuildingBlock: AJUNOK_clean_linker_0, # of connection points: 2
#     Edge 25, Type (0, 1), BuildingBlock: AJUNOK_clean_linker_0, # of connection points: 2
#     Edge 26, Type (0, 1), BuildingBlock: AJUNOK_clean_linker_0, # of connection points: 2
#     Edge 27, Type (0, 1), BuildingBlock: AJUNOK_clean_linker_0, # of connection points: 2
#     Edge 28, Type (0, 1), BuildingBlock: AJUNOK_clean_linker_0, # of connection points: 2
#     Edge 29, Type (0, 1), BuildingBlock: AJUNOK_clean_linker_0, # of connection points: 2
#     Edge 30, Type (0, 1), BuildingBlock: AJUNOK_clean_linker_0, # of connection points: 2
#     Edge 31, Type (0, 1), BuildingBlock: AJUNOK_clean_linker_0, # of connection points: 2
#     Edge 32, Type (0, 1), BuildingBlock: AJUNOK_clean_linker_0, # of connection points: 2
#     Edge 33, Type (0, 1), BuildingBlock: AJUNOK_clean_linker_0, # of connection points: 2
#     Edge 34, Type (0, 1), BuildingBlock: AJUNOK_clean_linker_0, # of connection points: 2
#     Edge 35, Type (0, 1), BuildingBlock: AJUNOK_clean_linker_0, # of connection points: 2
# Relax obj value: 0.000
# Max RMSD: 0.033
# Mean RMSD: 0.016
data_MOF--net-ssa--node1-NAWXER_clean_sbu_0--node2-IZENUY_clean_linker_0--edge1-AJUNOK_clean_linker_0
_symmetry_space_group_name_H-M    P1
_symmetry_Int_Tables_number       1
_symmetry_cell_setting            triclinic
loop_
_symmetry_equiv_pos_as_xyz
'x, y, z'
_cell_length_a     36.274212
_cell_length_b     36.497628
_cell_length_c     29.324631
_cell_angle_alpha  88.886217
_cell_angle_beta   91.836663
_cell_angle_gamma 120.1426
loop_
_atom_site_label
_atom_site_type_symbol
_atom_site_fract_x
_atom_site_fract_y
_atom_site_fract_z
_atom_type_partial_charge
H0 H 0.95615 0.4468 0.99605 0.0
H1 H 0.99876 0.5804 0.99724 0.0
H2 H 0.91185 0.50123 0.89189 0.0
H3 H 0.0676 0.56629 0.0988 0.0
H4 H 0.0237 0.43238 0.09955 0.0
H5 H 0.11183 0.51246 0.20365 0.0
N6 N 1.00945 0.52103 1.03906 0.0
N7 N 0.01363 0.49179 0.05672 0.0
C8 C 0.95658 0.47411 0.98043 0.0
C9 C 0.93071 0.46884 0.94133 0.0
C10 C 0.9822 0.51461 1.00017 0.0
C11 C 0.98045 0.54957 0.98138 0.0
C12 C 0.95502 0.54464 0.94226 0.0
C13 C 0.9312 0.50461 0.92223 0.0
C14 C 0.06699 0.53901 0.11477 0.0
C15 C 0.09301 0.54454 0.15378 0.0
C16 C 0.04097 0.49834 0.09558 0.0
C17 C 0.04241 0.4634 0.11492 0.0
C18 C 0.06799 0.46857 0.15399 0.0
C19 C 0.09233 0.50885 0.17337 0.0
H20 H 0.58889 0.05469 0.57498 0.0
H21 H 0.47455 0.06223 0.58998 0.0
H22 H 0.59474 0.15991 0.64397 0.0
H23 H 0.43159 0.95254 0.5239 0.0
H24 H 0.54582 0.94551 0.50538 0.0
H25 H 0.42504 0.84851 0.45174 0.0
N26 N 0.50281 0.01445 0.55606 0.0
N27 N 0.51791 0.99316 0.54079 0.0
C28 C 0.57309 0.07133 0.58608 0.0
C29 C 0.59699 0.11039 0.60853 0.0
C30 C 0.52856 0.05393 0.57865 0.0
C31 C 0.5087 0.07581 0.59469 0.0
C32 C 0.5328 0.11483 0.61719 0.0
C33 C 0.57647 0.13122 0.62404 0.0
C34 C 0.44733 0.93618 0.51174 0.0
C35 C 0.42315 0.89731 0.48905 0.0
C36 C 0.49197 0.95371 0.51817 0.0
C37 C 0.51164 0.93198 0.50115 0.0
C38 C 0.48725 0.89314 0.47832 0.0
C39 C 0.44355 0.87691 0.47205 0.0
H40 H 0.49069 0.42818 1.02188 0.0
H41 H 0.60996 0.5468 1.01445 0.0
H42 H 0.59909 0.43343 0.96064 0.0
H43 H 0.53246 0.57865 0.07597 0.0
H44 H 0.41396 0.45954 0.08569 0.0
H45 H 0.42437 0.57318 0.13821 0.0
N46 N 0.53067 0.51233 1.0433 0.0
N47 N 0.49286 0.49425 0.0557 0.0
C48 C 0.52394 0.44605 1.01294 0.0
C49 C 0.54251 0.42535 0.99134 0.0
C50 C 0.54843 0.49007 1.02206 0.0
C51 C 0.59134 0.51293 1.0088 0.0
C52 C 0.6099 0.49203 0.98786 0.0
C53 C 0.58526 0.44872 0.97948 0.0
C54 C 0.49934 0.56065 0.08538 0.0
C55 C 0.4807 0.58132 0.10685 0.0
C56 C 0.47507 0.51649 0.07692 0.0
C57 C 0.43238 0.49349 0.09086 0.0
C58 C 0.41384 0.51432 0.11203 0.0
C59 C 0.43817 0.55781 0.11945 0.0
H60 H 0.06928 0.5026 0.49995 0.0
H61 H 0.0228 0.5909 0.49959 0.0
H62 H 0.11402 0.6039 0.40163 0.0
H63 H 0.95719 0.50882 0.59873 0.0
H64 H 0.99901 0.41698 0.59676 0.0
H65 H 0.90914 0.40613 0.69549 0.0
N66 N 0.01388 0.52133 0.54019 0.0
N67 N 1.01029 0.48803 0.55727 0.0
C68 C 0.06879 0.52991 0.48555 0.0
C69 C 0.09598 0.5525 0.44947 0.0
C70 C 0.04172 0.5433 0.50357 0.0
C71 C 0.04254 0.57974 0.48528 0.0
C72 C 0.06858 0.60147 0.44838 0.0
C73 C 0.09436 0.58717 0.43047 0.0
C74 C 0.95677 0.48099 0.61286 0.0
C75 C 0.92987 0.45915 0.64939 0.0
C76 C 0.98243 0.4663 0.59398 0.0
C77 C 0.98023 0.42903 0.6116 0.0
C78 C 0.95385 0.40746 0.64836 0.0
C79 C 0.92936 0.42297 0.66705 0.0
H80 H 0.47073 0.03166 0.99672 0.0
H81 H 0.59949 0.05456 0.99411 0.0
H82 H 0.55701 0.11595 0.89659 0.0
H83 H 0.54821 0.97216 0.09684 0.0
H84 H 0.42372 0.95871 0.10772 0.0
H85 H 0.46619 0.89614 0.20397 0.0
N86 N 0.52728 0.01222 1.03786 0.0
N87 N 0.49306 0.99489 0.05873 0.0
C88 C 0.50183 0.04667 0.98151 0.0
C89 C 0.50987 0.07396 0.944 0.0
C90 C 0.53403 0.03904 0.99934 0.0
C91 C 0.57446 0.05953 0.97967 0.0
C92 C 0.58327 0.08788 0.94304 0.0
C93 C 0.55048 0.09413 0.9249 0.0
C94 C 0.5182 0.95945 0.11404 0.0
C95 C 0.51117 0.93413 0.15305 0.0
C96 C 0.48661 0.96852 0.09761 0.0
C97 C 0.44779 0.95152 0.12034 0.0
C98 C 0.44015 0.92591 0.15941 0.0
C99 C 0.47207 0.9172 0.17509 0.0
H100 H 0.44193 0.48224 0.49985 0.0
H101 H 0.56887 0.59012 0.4898 0.0
H102 H 0.4693 0.57674 0.39611 0.0
H103 H 0.57934 0.52421 0.59511 0.0
H104 H 0.45173 0.41777 0.60659 0.0
H105 H 0.55096 0.43106 0.70071 0.0
N106 N 0.52247 0.5201 0.53702 0.0
N107 N 0.4986 0.48705 0.55857 0.0
C108 C 0.46458 0.51124 0.48293 0.0
C109 C 0.45054 0.52664 0.44601 0.0
C110 C 0.50744 0.53413 0.49891 0.0
C111 C 0.53609 0.57233 0.47734 0.0
C112 C 0.52263 0.58761 0.43992 0.0
C113 C 0.47994 0.56457 0.42451 0.0
C114 C 0.5565 0.49561 0.61249 0.0
C115 C 0.57031 0.48044 0.64984 0.0
C116 C 0.51354 0.47304 0.59675 0.0
C117 C 0.48459 0.43529 0.61884 0.0
C118 C 0.4978 0.4202 0.65665 0.0
C119 C 0.54056 0.44302 0.6719 0.0
C120 C 0.28225 0.45928 0.36226 0.0
C121 C 0.15737 0.41553 0.25775 0.0
O122 O 0.25124 0.42139 0.35828 0.0
Zn123 Zn 0.2173 0.43313 0.31202 0.0
O124 O 0.28167 0.4888 0.33869 0.0
Zn125 Zn 0.2438 0.49812 0.28921 0.0
O126 O 0.22905 0.53502 0.32025 0.0
O127 O 0.19676 0.47013 0.34868 0.0
O128 O 0.18541 0.45483 0.25792 0.0
O129 O 0.16196 0.38985 0.28417 0.0
O130 O 0.25867 0.45053 0.25509 0.0
O131 O 0.27997 0.51718 0.23697 0.0
C132 C 0.20334 0.50812 0.34852 0.0
C133 C 0.28015 0.48299 0.2297 0.0
C134 C 0.86454 0.2655 0.7473 0.0
C135 C 0.74369 0.18777 0.85108 0.0
O136 O 0.83681 0.27723 0.74717 0.0
Zn137 Zn 0.77967 0.26326 0.77787 0.0
O138 O 0.86045 0.23548 0.77357 0.0
Zn139 Zn 0.80608 0.22438 0.80044 0.0
O140 O 0.76259 0.20014 0.74263 0.0
O141 O 0.74176 0.24626 0.72528 0.0
O142 O 0.77392 0.17994 0.84664 0.0
O143 O 0.74347 0.21741 0.82734 0.0
O144 O 0.79638 0.3157 0.80899 0.0
O145 O 0.82869 0.28256 0.83774 0.0
C146 C 0.74094 0.21175 0.71705 0.0
C147 C 0.82297 0.31453 0.83751 0.0
C148 C 0.52735 0.80123 0.35207 0.0
C149 C 0.53059 0.72424 0.21853 0.0
O150 O 0.56498 0.81324 0.33866 0.0
Zn151 Zn 0.5951 0.79724 0.28766 0.0
O152 O 0.49512 0.7715 0.33126 0.0
Zn153 Zn 0.52569 0.7613 0.28488 0.0
O154 O 0.55398 0.733 0.32407 0.0
O155 O 0.62419 0.77322 0.32596 0.0
O156 O 0.49746 0.72066 0.2366 0.0
O157 O 0.56769 0.75093 0.23453 0.0
O158 O 0.62285 0.85147 0.25287 0.0
O159 O 0.55248 0.8181 0.24799 0.0
C160 C 0.59048 0.7395 0.33776 0.0
C161 C 0.58856 0.84957 0.23774 0.0
C162 C 0.86389 0.59558 0.83958 0.0
C163 C 0.73844 0.54838 0.7351 0.0
O164 O 0.83688 0.55597 0.83918 0.0
Zn165 Zn 0.77907 0.51134 0.8077 0.0
O166 O 0.85822 0.62074 0.8134 0.0
Zn167 Zn 0.80356 0.57617 0.78559 0.0
O168 O 0.76259 0.55733 0.84317 0.0
O169 O 0.74344 0.49096 0.86019 0.0
O170 O 0.76869 0.58659 0.73931 0.0
O171 O 0.74004 0.51928 0.75852 0.0
O172 O 0.79589 0.476 0.77665 0.0
O173 O 0.82662 0.54119 0.74911 0.0
C174 C 0.74245 0.52454 0.86856 0.0
C175 C 0.82175 0.50385 0.74922 0.0
C176 C 0.27989 0.82931 0.25207 0.0
C177 C 0.1557 0.74335 0.34873 0.0
O178 O 0.24665 0.83274 0.25294 0.0
Zn179 Zn 0.21468 0.78668 0.29736 0.0
O180 O 0.28131 0.79988 0.27498 0.0
Zn181 Zn 0.2425 0.74901 0.31883 0.0
O182 O 0.22829 0.69855 0.28454 0.0
O183 O 0.19383 0.7302 0.25818 0.0
O184 O 0.18406 0.73243 0.34873 0.0
O185 O 0.1596 0.77387 0.32346 0.0
O186 O 0.2568 0.80952 0.35696 0.0
O187 O 0.27803 0.76339 0.37293 0.0
C188 C 0.20097 0.69924 0.25679 0.0
C189 C 0.27808 0.79732 0.38243 0.0
C190 C 0.49098 0.28314 0.87768 0.0
C191 C 0.49287 0.20697 0.74284 0.0
O192 O 0.52388 0.28675 0.85903 0.0
Zn193 Zn 0.49515 0.24657 0.81047 0.0
O194 O 0.45372 0.25667 0.8619 0.0
Zn195 Zn 0.42574 0.21069 0.80848 0.0
O196 O 0.39826 0.15637 0.84311 0.0
O197 O 0.46866 0.18941 0.84668 0.0
O198 O 0.45537 0.19486 0.75678 0.0
O199 O 0.52529 0.23675 0.76335 0.0
O200 O 0.46652 0.27521 0.77249 0.0
O201 O 0.39633 0.23492 0.77102 0.0
C202 C 0.43267 0.15792 0.85715 0.0
C203 C 0.42992 0.2688 0.75933 0.0
C204 C 0.06397 0.42257 0.21972 0.0
C205 C 0.074 0.43409 0.17373 0.0
C206 C 0.08624 0.40725 0.24648 0.0
C207 C 0.11948 0.40342 0.22812 0.0
H208 H 0.04263 0.4304 0.2365 0.0
H209 H 0.08166 0.40441 0.28299 0.0
S210 S 0.15209 0.42142 0.10766 0.0
N211 N 0.11416 0.43381 0.10936 0.0
N212 N 0.1563 0.40556 0.15973 0.0
C213 C 0.1254 0.40905 0.18084 0.0
C214 C 0.10262 0.42441 0.15356 0.0
C215 C 0.65385 0.11291 0.65957 0.0
C216 C 0.64268 0.12974 0.6216 0.0
C217 C 0.68848 0.13931 0.68852 0.0
C218 C 0.71235 0.18331 0.68065 0.0
H219 H 0.63292 0.08036 0.66989 0.0
H220 H 0.69393 0.12583 0.71948 0.0
S221 S 0.70163 0.24074 0.58029 0.0
N222 N 0.66297 0.19123 0.57302 0.0
N223 N 0.72716 0.24104 0.62808 0.0
C224 C 0.70458 0.19944 0.63998 0.0
C225 C 0.67015 0.17244 0.61003 0.0
C226 C 0.48544 0.65108 0.11725 0.0
C227 C 0.50483 0.62598 0.12257 0.0
C228 C 0.49535 0.68441 0.14715 0.0
C229 C 0.5264 0.69508 0.18198 0.0
H230 H 0.4592 0.64198 0.0929 0.0
H231 H 0.47716 0.70056 0.1444 0.0
S232 S 0.59266 0.6453 0.20443 0.0
N233 N 0.56028 0.61775 0.16171 0.0
N234 N 0.58116 0.68254 0.21582 0.0
C235 C 0.54988 0.67393 0.18393 0.0
C236 C 0.53879 0.63901 0.15442 0.0
C237 C 0.8592 0.44219 0.68024 0.0
C238 C 0.90151 0.47281 0.66981 0.0
C239 C 0.83334 0.4526 0.70508 0.0
C240 C 0.84836 0.49426 0.71976 0.0
H241 H 0.8462 0.40953 0.67002 0.0
H242 H 0.80147 0.4277 0.71322 0.0
S243 S 0.95631 0.58651 0.70111 0.0
N244 N 0.95705 0.54668 0.67623 0.0
N245 N 0.90802 0.56663 0.72149 0.0
C246 C 0.89 0.52558 0.70817 0.0
C247 C 0.91662 0.51482 0.68346 0.0
C248 C 0.35941 0.88669 0.15852 0.0
C249 C 0.39861 0.90699 0.18335 0.0
C250 C 0.32023 0.86384 0.18083 0.0
C251 C 0.319 0.86051 0.22865 0.0
H252 H 0.35911 0.88662 0.12158 0.0
H253 H 0.29107 0.84677 0.16053 0.0
S254 S 0.41133 0.91232 0.30968 0.0
N255 N 0.43258 0.92621 0.25882 0.0
N256 N 0.3595 0.8821 0.30015 0.0
C257 C 0.35754 0.88243 0.25378 0.0
C258 C 0.39717 0.90601 0.23133 0.0
C259 C 0.4623 0.37973 0.7271 0.0
C260 C 0.4681 0.37979 0.67991 0.0
C261 C 0.44333 0.3418 0.75224 0.0
C262 C 0.42954 0.30254 0.73121 0.0
H263 H 0.47521 0.40945 0.74522 0.0
H264 H 0.44318 0.34363 0.78902 0.0
S265 S 0.43456 0.28521 0.6081 0.0
N266 N 0.45556 0.33705 0.61252 0.0
N267 N 0.42054 0.2658 0.6601 0.0
C268 C 0.4322 0.30189 0.68359 0.0
C269 C 0.45134 0.34054 0.65784 0.0
C270 C 0.53772 0.89146 0.42342 0.0
C271 C 0.50595 0.87032 0.45581 0.0
C272 C 0.546 0.86861 0.39134 0.0
C273 C 0.52201 0.82404 0.38989 0.0
H274 H 0.55405 0.92569 0.42067 0.0
H275 H 0.56952 0.88599 0.36578 0.0
S276 S 0.4417 0.75384 0.47289 0.0
N277 N 0.45598 0.80227 0.48954 0.0
N278 N 0.46988 0.75963 0.4274 0.0
C279 C 0.49271 0.80257 0.42421 0.0
C280 C 0.48529 0.82569 0.45777 0.0
C281 C 0.66041 0.53935 0.92952 0.0
C282 C 0.65308 0.51394 0.9686 0.0
C283 C 0.69178 0.54522 0.89861 0.0
C284 C 0.71611 0.52521 0.90557 0.0
H285 H 0.63914 0.55126 0.92049 0.0
H286 H 0.69453 0.56263 0.86734 0.0
S287 S 0.71504 0.46301 1.00731 0.0
N288 N 0.6775 0.47483 1.0164 0.0
N289 N 0.73556 0.48489 0.95778 0.0
C290 C 0.71199 0.50339 0.94669 0.0
C291 C 0.68084 0.49824 0.97851 0.0
C292 C 0.10293 0.67968 0.45003 0.0
C293 C 0.07312 0.64134 0.4291 0.0
C294 C 0.12522 0.71694 0.42411 0.0
C295 C 0.1182 0.717 0.37661 0.0
H296 H 0.11321 0.67965 0.48513 0.0
H297 H 0.15203 0.74418 0.4402 0.0
S298 S 0.03712 0.62688 0.30792 0.0
N299 N 0.03262 0.60734 0.36005 0.0
N300 N 0.07433 0.67739 0.31147 0.0
C301 C 0.08414 0.68049 0.35685 0.0
C302 C 0.06162 0.64254 0.38312 0.0
C303 C 0.46393 0.07672 0.88002 0.0
C304 C 0.47752 0.08455 0.92607 0.0
C305 C 0.4424 0.09582 0.85898 0.0
C306 C 0.43403 0.12366 0.88316 0.0
H307 H 0.47273 0.05818 0.85931 0.0
H308 H 0.43626 0.09224 0.82245 0.0
S309 S 0.46036 0.15222 1.00512 0.0
N310 N 0.47814 0.11931 0.99604 0.0
N311 N 0.43861 0.15596 0.95615 0.0
C312 C 0.44461 0.12917 0.92998 0.0
C313 C 0.46616 0.10943 0.95154 0.0
C314 C 0.38386 0.52889 0.42942 0.0
C315 C 0.4048 0.5053 0.43115 0.0
C316 C 0.3428 0.51216 0.41008 0.0
C317 C 0.32077 0.47106 0.39153 0.0
H318 H 0.39998 0.56119 0.44182 0.0
H319 H 0.32886 0.53237 0.40794 0.0
S320 S 0.36066 0.39542 0.38955 0.0
N321 N 0.39979 0.43793 0.41473 0.0
N322 N 0.32232 0.40639 0.37798 0.0
C323 C 0.34034 0.44618 0.39515 0.0
C324 C 0.38244 0.46335 0.41502 0.0
C325 C 0.86107 0.41638 0.90353 0.0
C326 C 0.90213 0.42653 0.91994 0.0
C327 C 0.83541 0.37976 0.87788 0.0
C328 C 0.84912 0.35098 0.86836 0.0
H329 H 0.84886 0.43746 0.90972 0.0
H330 H 0.80471 0.37423 0.86498 0.0
S331 S 0.95225 0.3604 0.90642 0.0
N332 N 0.95444 0.40352 0.92614 0.0
N333 N 0.90538 0.33361 0.87991 0.0
C334 C 0.88906 0.35937 0.88663 0.0
C335 C 0.91566 0.39725 0.91203 0.0
C336 C 0.95878 0.59156 0.87762 0.0
C337 C 0.94837 0.57896 0.92333 0.0
C338 C 0.93599 0.60647 0.85112 0.0
C339 C 0.90183 0.60872 0.86942 0.0
H340 H 0.98087 0.58485 0.86075 0.0
H341 H 0.94099 0.61013 0.81469 0.0
S342 S 0.8677 0.58739 0.98932 0.0
N343 N 0.90672 0.57657 0.98752 0.0
N344 N 0.86363 0.60401 0.9376 0.0
C345 C 0.89547 0.60211 0.91657 0.0
C346 C 0.91876 0.58718 0.9436 0.0
C347 C 0.3644 0.89522 0.44165 0.0
C348 C 0.3771 0.87766 0.47761 0.0
C349 C 0.32909 0.86925 0.41329 0.0
C350 C 0.30624 0.82497 0.41956 0.0
H351 H 0.3846 0.92814 0.43213 0.0
H352 H 0.3224 0.88342 0.38372 0.0
S353 S 0.32082 0.76549 0.51538 0.0
N354 N 0.35901 0.81506 0.52352 0.0
N355 N 0.2938 0.76604 0.4692 0.0
C356 C 0.31541 0.80801 0.45869 0.0
C357 C 0.35041 0.83456 0.48824 0.0
C358 C 0.53726 0.35551 0.97946 0.0
C359 C 0.51816 0.38092 0.97486 0.0
C360 C 0.52689 0.32232 0.94917 0.0
C361 C 0.49564 0.3121 0.91467 0.0
H362 H 0.56358 0.36419 1.0036 0.0
H363 H 0.54486 0.30593 0.95137 0.0
S364 S 0.42987 0.36267 0.89417 0.0
N365 N 0.46269 0.38984 0.93677 0.0
N366 N 0.44092 0.32529 0.882 0.0
C367 C 0.47242 0.33352 0.91347 0.0
C368 C 0.484 0.36831 0.94335 0.0
C369 C 0.11143 0.49846 0.41688 0.0
C370 C 0.12596 0.54045 0.43014 0.0
C371 C 0.13735 0.48804 0.39195 0.0
C372 C 0.17857 0.5193 0.37894 0.0
H373 H 0.07915 0.47382 0.42395 0.0
H374 H 0.12422 0.45553 0.38106 0.0
S375 S 0.23398 0.63274 0.41121 0.0
N376 N 0.18635 0.61247 0.43343 0.0
N377 N 0.23418 0.59312 0.3852 0.0
C378 C 0.19424 0.56095 0.39397 0.0
C379 C 0.16821 0.57143 0.41997 0.0
C380 C 0.64891 0.0942 0.90742 0.0
C381 C 0.62724 0.11351 0.92535 0.0
C382 C 0.68835 0.11848 0.88582 0.0
C383 C 0.70728 0.1628 0.88163 0.0
H384 H 0.63438 0.06003 0.90825 0.0
H385 H 0.70285 0.10229 0.87024 0.0
S386 S 0.6668 0.22888 0.92983 0.0
N387 N 0.63024 0.17978 0.9424 0.0
N388 N 0.70369 0.22515 0.90215 0.0
C389 C 0.68714 0.18245 0.90219 0.0
C390 C 0.64731 0.1579 0.92394 0.0
C391 C 0.56032 0.62919 0.37082 0.0
C392 C 0.55201 0.62852 0.41742 0.0
C393 C 0.57938 0.66733 0.34598 0.0
C394 C 0.59064 0.70612 0.36674 0.0
H395 H 0.54942 0.59972 0.35279 0.0
H396 H 0.58163 0.6659 0.30941 0.0
S397 S 0.57771 0.72167 0.48836 0.0
N398 N 0.559 0.67017 0.48406 0.0
N399 N 0.59403 0.74172 0.43703 0.0
C400 C 0.58515 0.70618 0.41393 0.0
C401 C 0.56601 0.66738 0.43937 0.0
C402 C 0.48259 0.11639 0.67235 0.0
C403 C 0.51371 0.13744 0.63928 0.0
C404 C 0.4745 0.13934 0.70448 0.0
C405 C 0.49787 0.18395 0.70505 0.0
H406 H 0.46684 0.08224 0.67568 0.0
H407 H 0.4518 0.12206 0.73086 0.0
S408 S 0.57656 0.25373 0.62047 0.0
N409 N 0.56266 0.20524 0.60442 0.0
N410 N 0.54883 0.24816 0.66629 0.0
C411 C 0.52648 0.20525 0.6701 0.0
C412 C 0.53383 0.18199 0.63667 0.0
C413 C 0.34332 0.50817 0.12212 0.0
C414 C 0.37102 0.49235 0.1322 0.0
C415 C 0.31241 0.50331 0.15291 0.0
C416 C 0.3073 0.4814 0.19422 0.0
H417 H 0.34851 0.52813 0.09238 0.0
H418 H 0.29384 0.51855 0.14537 0.0
S419 S 0.36744 0.42872 0.23368 0.0
N420 N 0.3885 0.45049 0.18428 0.0
N421 N 0.32899 0.43954 0.24132 0.0
C422 C 0.33164 0.46158 0.20248 0.0
C423 C 0.36373 0.46728 0.17149 0.0
C424 C 0.91688 0.32903 0.64594 0.0
C425 C 0.94792 0.36679 0.66689 0.0
C426 C 0.89419 0.29167 0.6716 0.0
C427 C 0.90192 0.29093 0.7189 0.0
H428 H 0.90617 0.32972 0.61118 0.0
H429 H 0.8666 0.26505 0.65567 0.0
S430 S 0.98623 0.37908 0.78716 0.0
N431 N 0.99027 0.3993 0.73545 0.0
N432 N 0.94776 0.32906 0.78355 0.0
C433 C 0.93708 0.32668 0.73845 0.0
C434 C 0.96002 0.36475 0.71244 0.0
C435 C 0.55248 0.89651 0.14526 0.0
C436 C 0.54346 0.92331 0.17055 0.0
C437 C 0.57369 0.87682 0.16579 0.0
C438 C 0.58738 0.88401 0.2119 0.0
H439 H 0.53973 0.88777 0.11076 0.0
H440 H 0.57573 0.85275 0.1468 0.0
S441 S 0.57656 0.95596 0.29067 0.0
N442 N 0.55359 0.95938 0.24247 0.0
N443 N 0.5942 0.92312 0.28054 0.0
C444 C 0.5822 0.91393 0.23596 0.0
C445 C 0.55998 0.93336 0.21543 0.0
C446 C 0.63595 0.47709 0.66975 0.0
C447 C 0.61604 0.50154 0.66496 0.0
C448 C 0.67678 0.4938 0.68966 0.0
C449 C 0.69971 0.53578 0.70575 0.0
H450 H 0.61921 0.44419 0.6593 0.0
H451 H 0.68986 0.47296 0.69404 0.0
S452 S 0.66313 0.61413 0.69833 0.0
N453 N 0.62323 0.57077 0.67534 0.0
N454 N 0.70036 0.60234 0.71295 0.0
C455 C 0.6813 0.56148 0.69881 0.0
C456 C 0.63938 0.54431 0.6784 0.0
C457 C 0.16294 0.59731 0.19084 0.0
C458 C 0.12178 0.58702 0.17468 0.0
C459 C 0.18875 0.63413 0.21617 0.0
C460 C 0.17502 0.66291 0.22567 0.0
H461 H 0.17508 0.57616 0.18477 0.0
H462 H 0.21948 0.63971 0.229 0.0
S463 S 0.07151 0.653 0.18819 0.0
N464 N 0.06933 0.60983 0.16864 0.0
N465 N 0.11854 0.68003 0.2143 0.0
C466 C 0.13494 0.65434 0.2076 0.0
C467 C 0.10824 0.6163 0.1825 0.0
loop_
_geom_bond_atom_site_label_1
_geom_bond_atom_site_label_2
_geom_bond_distance
_geom_bond_site_symmetry_2
_ccdc_geom_bond_type
H0 C8 0.940 . S
H1 C11 0.940 . S
H2 C13 0.940 . S
H3 C14 0.940 . S
H4 C17 0.940 . S
H5 C19 0.940 . S
N6 N7 1.190 . S
N6 C10 1.477 1_554 S
N7 N6 1.190 . S
N7 C16 1.477 1_655 S
C8 H0 0.940 . S
C8 C9 1.390 . S
C8 C10 1.322 . S
C9 C8 1.390 . S
C9 C13 1.370 . S
C10 N6 1.477 1_556 S
C10 C8 1.322 . S
C10 C11 1.447 . S
C11 H1 0.940 . S
C11 C10 1.447 . S
C11 C12 1.373 . S
C12 C11 1.373 . S
C12 C13 1.417 . S
C13 H2 0.940 . S
C13 C9 1.370 . S
C13 C12 1.417 . S
C14 H3 0.940 . S
C14 C15 1.390 . S
C14 C16 1.322 . S
C15 C14 1.390 . S
C15 C19 1.370 . S
C16 N7 1.477 1_455 S
C16 C14 1.322 . S
C16 C17 1.447 . S
C17 H4 0.940 . S
C17 C16 1.447 . S
C17 C18 1.373 . S
C18 C17 1.373 . S
C18 C19 1.417 . S
C19 H5 0.940 . S
C19 C15 1.370 . S
C19 C18 1.417 . S
H20 C28 0.940 . S
H21 C31 0.940 . S
H22 C33 0.940 . S
H23 C34 0.940 . S
H24 C37 0.940 . S
H25 C39 0.940 . S
N26 N27 1.190 . S
N26 C30 1.477 . S
N27 N26 1.190 . S
N27 C36 1.477 1_545 S
C28 H20 0.940 . S
C28 C29 1.390 . S
C28 C30 1.322 . S
C29 C28 1.390 . S
C29 C33 1.370 . S
C30 N26 1.477 . S
C30 C28 1.322 . S
C30 C31 1.447 . S
C31 H21 0.940 . S
C31 C30 1.447 . S
C31 C32 1.373 . S
C32 C31 1.373 . S
C32 C33 1.417 . S
C33 H22 0.940 . S
C33 C29 1.370 . S
C33 C32 1.417 . S
C34 H23 0.940 . S
C34 C35 1.390 . S
C34 C36 1.322 . S
C35 C34 1.390 . S
C35 C39 1.370 . S
C36 N27 1.477 1_565 S
C36 C34 1.322 . S
C36 C37 1.447 . S
C37 H24 0.940 . S
C37 C36 1.447 . S
C37 C38 1.373 . S
C38 C37 1.373 . S
C38 C39 1.417 . S
C39 H25 0.940 . S
C39 C35 1.370 . S
C39 C38 1.417 . S
H40 C48 0.940 . S
H41 C51 0.940 . S
H42 C53 0.940 . S
H43 C54 0.940 . S
H44 C57 0.940 . S
H45 C59 0.940 . S
N46 N47 1.190 . S
N46 C50 1.477 . S
N47 N46 1.190 . S
N47 C56 1.477 1_556 S
C48 H40 0.940 . S
C48 C49 1.390 . S
C48 C50 1.322 . S
C49 C48 1.390 . S
C49 C53 1.370 . S
C50 N46 1.477 . S
C50 C48 1.322 . S
C50 C51 1.447 . S
C51 H41 0.940 . S
C51 C50 1.447 . S
C51 C52 1.373 . S
C52 C51 1.373 . S
C52 C53 1.417 . S
C53 H42 0.940 . S
C53 C49 1.370 . S
C53 C52 1.417 . S
C54 H43 0.940 . S
C54 C55 1.390 . S
C54 C56 1.322 . S
C55 C54 1.390 . S
C55 C59 1.370 . S
C56 N47 1.477 1_554 S
C56 C54 1.322 . S
C56 C57 1.447 . S
C57 H44 0.940 . S
C57 C56 1.447 . S
C57 C58 1.373 . S
C58 C57 1.373 . S
C58 C59 1.417 . S
C59 H45 0.940 . S
C59 C55 1.370 . S
C59 C58 1.417 . S
H60 C68 0.940 . S
H61 C71 0.940 . S
H62 C73 0.940 . S
H63 C74 0.940 . S
H64 C77 0.940 . S
H65 C79 0.940 . S
N66 N67 1.190 . S
N66 C70 1.477 1_655 S
N67 N66 1.190 . S
N67 C76 1.477 . S
C68 H60 0.940 . S
C68 C69 1.390 . S
C68 C70 1.322 . S
C69 C68 1.390 . S
C69 C73 1.370 . S
C70 N66 1.477 1_455 S
C70 C68 1.322 . S
C70 C71 1.447 . S
C71 H61 0.940 . S
C71 C70 1.447 . S
C71 C72 1.373 . S
C72 C71 1.373 . S
C72 C73 1.417 . S
C73 H62 0.940 . S
C73 C69 1.370 . S
C73 C72 1.417 . S
C74 H63 0.940 . S
C74 C75 1.390 . S
C74 C76 1.322 . S
C75 C74 1.390 . S
C75 C79 1.370 . S
C76 N67 1.477 . S
C76 C74 1.322 . S
C76 C77 1.447 . S
C77 H64 0.940 . S
C77 C76 1.447 . S
C77 C78 1.373 . S
C78 C77 1.373 . S
C78 C79 1.417 . S
C79 H65 0.940 . S
C79 C75 1.370 . S
C79 C78 1.417 . S
H80 C88 0.940 . S
H81 C91 0.940 . S
H82 C93 0.940 . S
H83 C94 0.940 . S
H84 C97 0.940 . S
H85 C99 0.940 . S
N86 N87 1.190 . S
N86 C90 1.477 1_554 S
N87 N86 1.190 . S
N87 C96 1.477 1_545 S
C88 H80 0.940 . S
C88 C89 1.390 . S
C88 C90 1.322 . S
C89 C88 1.390 . S
C89 C93 1.370 . S
C90 N86 1.477 1_556 S
C90 C88 1.322 . S
C90 C91 1.447 . S
C91 H81 0.940 . S
C91 C90 1.447 . S
C91 C92 1.373 . S
C92 C91 1.373 . S
C92 C93 1.417 . S
C93 H82 0.940 . S
C93 C89 1.370 . S
C93 C92 1.417 . S
C94 H83 0.940 . S
C94 C95 1.390 . S
C94 C96 1.322 . S
C95 C94 1.390 . S
C95 C99 1.370 . S
C96 N87 1.477 1_565 S
C96 C94 1.322 . S
C96 C97 1.447 . S
C97 H84 0.940 . S
C97 C96 1.447 . S
C97 C98 1.373 . S
C98 C97 1.373 . S
C98 C99 1.417 . S
C99 H85 0.940 . S
C99 C95 1.370 . S
C99 C98 1.417 . S
H100 C108 0.940 . S
H101 C111 0.940 . S
H102 C113 0.940 . S
H103 C114 0.940 . S
H104 C117 0.940 . S
H105 C119 0.940 . S
N106 N107 1.190 . S
N106 C110 1.477 . S
N107 N106 1.190 . S
N107 C116 1.477 . S
C108 H100 0.940 . S
C108 C109 1.390 . S
C108 C110 1.322 . S
C109 C108 1.390 . S
C109 C113 1.370 . S
C110 N106 1.477 . S
C110 C108 1.322 . S
C110 C111 1.447 . S
C111 H101 0.940 . S
C111 C110 1.447 . S
C111 C112 1.373 . S
C112 C111 1.373 . S
C112 C113 1.417 . S
C113 H102 0.940 . S
C113 C109 1.370 . S
C113 C112 1.417 . S
C114 H103 0.940 . S
C114 C115 1.390 . S
C114 C116 1.322 . S
C115 C114 1.390 . S
C115 C119 1.370 . S
C116 N107 1.477 . S
C116 C114 1.322 . S
C116 C117 1.447 . S
C117 H104 0.940 . S
C117 C116 1.447 . S
C117 C118 1.373 . S
C118 C117 1.373 . S
C118 C119 1.417 . S
C119 H105 0.940 . S
C119 C115 1.370 . S
C119 C118 1.417 . S
C120 O122 1.247 . S
C120 O124 1.258 . S
C121 O128 1.247 . S
C121 O129 1.258 . S
O122 C120 1.247 . S
O122 Zn123 2.028 . S
Zn123 O122 2.028 . S
Zn123 O127 2.035 . S
Zn123 O129 2.035 . S
Zn123 O130 2.028 . S
O124 C120 1.258 . S
O124 Zn125 2.035 . S
Zn125 O124 2.035 . S
Zn125 O126 2.028 . S
Zn125 O128 2.028 . S
Zn125 O131 2.035 . S
O126 Zn125 2.028 . S
O126 C132 1.247 . S
O127 Zn123 2.035 . S
O127 C132 1.258 . S
O128 C121 1.247 . S
O128 Zn125 2.028 . S
O129 C121 1.258 . S
O129 Zn123 2.035 . S
O130 Zn123 2.028 . S
O130 C133 1.247 . S
O131 Zn125 2.035 . S
O131 C133 1.258 . S
C132 O126 1.247 . S
C132 O127 1.258 . S
C133 O130 1.247 . S
C133 O131 1.258 . S
C134 O136 1.247 . S
C134 O138 1.258 . S
C135 O142 1.247 . S
C135 O143 1.258 . S
O136 C134 1.247 . S
O136 Zn137 2.028 . S
Zn137 O136 2.028 . S
Zn137 O141 2.035 . S
Zn137 O143 2.035 . S
Zn137 O144 2.028 . S
O138 C134 1.258 . S
O138 Zn139 2.035 . S
Zn139 O138 2.035 . S
Zn139 O140 2.028 . S
Zn139 O142 2.028 . S
Zn139 O145 2.035 . S
O140 Zn139 2.028 . S
O140 C146 1.247 . S
O141 Zn137 2.035 . S
O141 C146 1.258 . S
O142 C135 1.247 . S
O142 Zn139 2.028 . S
O143 C135 1.258 . S
O143 Zn137 2.035 . S
O144 Zn137 2.028 . S
O144 C147 1.247 . S
O145 Zn139 2.035 . S
O145 C147 1.258 . S
C146 O140 1.247 . S
C146 O141 1.258 . S
C147 O144 1.247 . S
C147 O145 1.258 . S
C148 O150 1.247 . S
C148 O152 1.258 . S
C149 O156 1.247 . S
C149 O157 1.258 . S
O150 C148 1.247 . S
O150 Zn151 2.028 . S
Zn151 O150 2.028 . S
Zn151 O155 2.035 . S
Zn151 O157 2.035 . S
Zn151 O158 2.028 . S
O152 C148 1.258 . S
O152 Zn153 2.035 . S
Zn153 O152 2.035 . S
Zn153 O154 2.028 . S
Zn153 O156 2.028 . S
Zn153 O159 2.035 . S
O154 Zn153 2.028 . S
O154 C160 1.247 . S
O155 Zn151 2.035 . S
O155 C160 1.258 . S
O156 C149 1.247 . S
O156 Zn153 2.028 . S
O157 C149 1.258 . S
O157 Zn151 2.035 . S
O158 Zn151 2.028 . S
O158 C161 1.247 . S
O159 Zn153 2.035 . S
O159 C161 1.258 . S
C160 O154 1.247 . S
C160 O155 1.258 . S
C161 O158 1.247 . S
C161 O159 1.258 . S
C162 O164 1.247 . S
C162 O166 1.258 . S
C163 O170 1.247 . S
C163 O171 1.258 . S
O164 C162 1.247 . S
O164 Zn165 2.028 . S
Zn165 O164 2.028 . S
Zn165 O169 2.035 . S
Zn165 O171 2.035 . S
Zn165 O172 2.028 . S
O166 C162 1.258 . S
O166 Zn167 2.035 . S
Zn167 O166 2.035 . S
Zn167 O168 2.028 . S
Zn167 O170 2.028 . S
Zn167 O173 2.035 . S
O168 Zn167 2.028 . S
O168 C174 1.247 . S
O169 Zn165 2.035 . S
O169 C174 1.258 . S
O170 C163 1.247 . S
O170 Zn167 2.028 . S
O171 C163 1.258 . S
O171 Zn165 2.035 . S
O172 Zn165 2.028 . S
O172 C175 1.247 . S
O173 Zn167 2.035 . S
O173 C175 1.258 . S
C174 O168 1.247 . S
C174 O169 1.258 . S
C175 O172 1.247 . S
C175 O173 1.258 . S
C176 O178 1.247 . S
C176 O180 1.258 . S
C177 O184 1.247 . S
C177 O185 1.258 . S
O178 C176 1.247 . S
O178 Zn179 2.028 . S
Zn179 O178 2.028 . S
Zn179 O183 2.035 . S
Zn179 O185 2.035 . S
Zn179 O186 2.028 . S
O180 C176 1.258 . S
O180 Zn181 2.035 . S
Zn181 O180 2.035 . S
Zn181 O182 2.028 . S
Zn181 O184 2.028 . S
Zn181 O187 2.035 . S
O182 Zn181 2.028 . S
O182 C188 1.247 . S
O183 Zn179 2.035 . S
O183 C188 1.258 . S
O184 C177 1.247 . S
O184 Zn181 2.028 . S
O185 C177 1.258 . S
O185 Zn179 2.035 . S
O186 Zn179 2.028 . S
O186 C189 1.247 . S
O187 Zn181 2.035 . S
O187 C189 1.258 . S
C188 O182 1.247 . S
C188 O183 1.258 . S
C189 O186 1.247 . S
C189 O187 1.258 . S
C190 O192 1.247 . S
C190 O194 1.258 . S
C191 O198 1.247 . S
C191 O199 1.258 . S
O192 C190 1.247 . S
O192 Zn193 2.028 . S
Zn193 O192 2.028 . S
Zn193 O197 2.035 . S
Zn193 O199 2.035 . S
Zn193 O200 2.028 . S
O194 C190 1.258 . S
O194 Zn195 2.035 . S
Zn195 O194 2.035 . S
Zn195 O196 2.028 . S
Zn195 O198 2.028 . S
Zn195 O201 2.035 . S
O196 Zn195 2.028 . S
O196 C202 1.247 . S
O197 Zn193 2.035 . S
O197 C202 1.258 . S
O198 C191 1.247 . S
O198 Zn195 2.028 . S
O199 C191 1.258 . S
O199 Zn193 2.035 . S
O200 Zn193 2.028 . S
O200 C203 1.247 . S
O201 Zn195 2.035 . S
O201 C203 1.258 . S
C202 O196 1.247 . S
C202 O197 1.258 . S
C203 O200 1.247 . S
C203 O201 1.258 . S
C204 C205 1.369 . S
C204 C206 1.419 . S
C204 H208 0.930 . S
C205 C204 1.369 . S
C205 C214 1.429 . S
C206 C204 1.419 . S
C206 C207 1.363 . S
C206 H209 0.929 . S
C207 C206 1.363 . S
C207 C213 1.428 . S
H208 C204 0.930 . S
H209 C206 0.929 . S
S210 N211 1.613 . S
S210 N212 1.610 . S
N211 S210 1.613 . S
N211 C214 1.350 . S
N212 S210 1.610 . S
N212 C213 1.351 . S
C213 C207 1.428 . S
C213 N212 1.351 . S
C213 C214 1.434 . S
C214 C205 1.429 . S
C214 N211 1.350 . S
C214 C213 1.434 . S
C215 C216 1.369 . S
C215 C217 1.419 . S
C215 H219 0.930 . S
C216 C215 1.369 . S
C216 C225 1.429 . S
C217 C215 1.419 . S
C217 C218 1.363 . S
C217 H220 0.929 . S
C218 C217 1.363 . S
C218 C224 1.428 . S
H219 C215 0.930 . S
H220 C217 0.929 . S
S221 N222 1.613 . S
S221 N223 1.610 . S
N222 S221 1.613 . S
N222 C225 1.350 . S
N223 S221 1.610 . S
N223 C224 1.351 . S
C224 C218 1.428 . S
C224 N223 1.351 . S
C224 C225 1.434 . S
C225 C216 1.429 . S
C225 N222 1.350 . S
C225 C224 1.434 . S
C226 C227 1.369 . S
C226 C228 1.419 . S
C226 H230 0.930 . S
C227 C226 1.369 . S
C227 C236 1.429 . S
C228 C226 1.419 . S
C228 C229 1.363 . S
C228 H231 0.929 . S
C229 C228 1.363 . S
C229 C235 1.428 . S
H230 C226 0.930 . S
H231 C228 0.929 . S
S232 N233 1.613 . S
S232 N234 1.610 . S
N233 S232 1.613 . S
N233 C236 1.350 . S
N234 S232 1.610 . S
N234 C235 1.351 . S
C235 C229 1.428 . S
C235 N234 1.351 . S
C235 C236 1.434 . S
C236 C227 1.429 . S
C236 N233 1.350 . S
C236 C235 1.434 . S
C237 C238 1.369 . S
C237 C239 1.419 . S
C237 H241 0.930 . S
C238 C237 1.369 . S
C238 C247 1.429 . S
C239 C237 1.419 . S
C239 C240 1.363 . S
C239 H242 0.929 . S
C240 C239 1.363 . S
C240 C246 1.428 . S
H241 C237 0.930 . S
H242 C239 0.929 . S
S243 N244 1.613 . S
S243 N245 1.610 . S
N244 S243 1.613 . S
N244 C247 1.350 . S
N245 S243 1.610 . S
N245 C246 1.351 . S
C246 C240 1.428 . S
C246 N245 1.351 . S
C246 C247 1.434 . S
C247 C238 1.429 . S
C247 N244 1.350 . S
C247 C246 1.434 . S
C248 C249 1.369 . S
C248 C250 1.419 . S
C248 H252 0.930 . S
C249 C248 1.369 . S
C249 C258 1.429 . S
C250 C248 1.419 . S
C250 C251 1.363 . S
C250 H253 0.929 . S
C251 C250 1.363 . S
C251 C257 1.428 . S
H252 C248 0.930 . S
H253 C250 0.929 . S
S254 N255 1.613 . S
S254 N256 1.610 . S
N255 S254 1.613 . S
N255 C258 1.350 . S
N256 S254 1.610 . S
N256 C257 1.351 . S
C257 C251 1.428 . S
C257 N256 1.351 . S
C257 C258 1.434 . S
C258 C249 1.429 . S
C258 N255 1.350 . S
C258 C257 1.434 . S
C259 C260 1.369 . S
C259 C261 1.419 . S
C259 H263 0.930 . S
C260 C259 1.369 . S
C260 C269 1.429 . S
C261 C259 1.419 . S
C261 C262 1.363 . S
C261 H264 0.929 . S
C262 C261 1.363 . S
C262 C268 1.428 . S
H263 C259 0.930 . S
H264 C261 0.929 . S
S265 N266 1.613 . S
S265 N267 1.610 . S
N266 S265 1.613 . S
N266 C269 1.350 . S
N267 S265 1.610 . S
N267 C268 1.351 . S
C268 C262 1.428 . S
C268 N267 1.351 . S
C268 C269 1.434 . S
C269 C260 1.429 . S
C269 N266 1.350 . S
C269 C268 1.434 . S
C270 C271 1.369 . S
C270 C272 1.419 . S
C270 H274 0.930 . S
C271 C270 1.369 . S
C271 C280 1.429 . S
C272 C270 1.419 . S
C272 C273 1.363 . S
C272 H275 0.929 . S
C273 C272 1.363 . S
C273 C279 1.428 . S
H274 C270 0.930 . S
H275 C272 0.929 . S
S276 N277 1.613 . S
S276 N278 1.610 . S
N277 S276 1.613 . S
N277 C280 1.350 . S
N278 S276 1.610 . S
N278 C279 1.351 . S
C279 C273 1.428 . S
C279 N278 1.351 . S
C279 C280 1.434 . S
C280 C271 1.429 . S
C280 N277 1.350 . S
C280 C279 1.434 . S
C281 C282 1.369 . S
C281 C283 1.419 . S
C281 H285 0.930 . S
C282 C281 1.369 . S
C282 C291 1.429 . S
C283 C281 1.419 . S
C283 C284 1.363 . S
C283 H286 0.929 . S
C284 C283 1.363 . S
C284 C290 1.428 . S
H285 C281 0.930 . S
H286 C283 0.929 . S
S287 N288 1.613 . S
S287 N289 1.610 . S
N288 S287 1.613 . S
N288 C291 1.350 . S
N289 S287 1.610 . S
N289 C290 1.351 . S
C290 C284 1.428 . S
C290 N289 1.351 . S
C290 C291 1.434 . S
C291 C282 1.429 . S
C291 N288 1.350 . S
C291 C290 1.434 . S
C292 C293 1.369 . S
C292 C294 1.419 . S
C292 H296 0.930 . S
C293 C292 1.369 . S
C293 C302 1.429 . S
C294 C292 1.419 . S
C294 C295 1.363 . S
C294 H297 0.929 . S
C295 C294 1.363 . S
C295 C301 1.428 . S
H296 C292 0.930 . S
H297 C294 0.929 . S
S298 N299 1.613 . S
S298 N300 1.610 . S
N299 S298 1.613 . S
N299 C302 1.350 . S
N300 S298 1.610 . S
N300 C301 1.351 . S
C301 C295 1.428 . S
C301 N300 1.351 . S
C301 C302 1.434 . S
C302 C293 1.429 . S
C302 N299 1.350 . S
C302 C301 1.434 . S
C303 C304 1.369 . S
C303 C305 1.419 . S
C303 H307 0.930 . S
C304 C303 1.369 . S
C304 C313 1.429 . S
C305 C303 1.419 . S
C305 C306 1.363 . S
C305 H308 0.929 . S
C306 C305 1.363 . S
C306 C312 1.428 . S
H307 C303 0.930 . S
H308 C305 0.929 . S
S309 N310 1.613 . S
S309 N311 1.610 . S
N310 S309 1.613 . S
N310 C313 1.350 . S
N311 S309 1.610 . S
N311 C312 1.351 . S
C312 C306 1.428 . S
C312 N311 1.351 . S
C312 C313 1.434 . S
C313 C304 1.429 . S
C313 N310 1.350 . S
C313 C312 1.434 . S
C314 C315 1.369 . S
C314 C316 1.419 . S
C314 H318 0.930 . S
C315 C314 1.369 . S
C315 C324 1.429 . S
C316 C314 1.419 . S
C316 C317 1.363 . S
C316 H319 0.929 . S
C317 C316 1.363 . S
C317 C323 1.428 . S
H318 C314 0.930 . S
H319 C316 0.929 . S
S320 N321 1.613 . S
S320 N322 1.610 . S
N321 S320 1.613 . S
N321 C324 1.350 . S
N322 S320 1.610 . S
N322 C323 1.351 . S
C323 C317 1.428 . S
C323 N322 1.351 . S
C323 C324 1.434 . S
C324 C315 1.429 . S
C324 N321 1.350 . S
C324 C323 1.434 . S
C325 C326 1.369 . S
C325 C327 1.419 . S
C325 H329 0.930 . S
C326 C325 1.369 . S
C326 C335 1.429 . S
C327 C325 1.419 . S
C327 C328 1.363 . S
C327 H330 0.929 . S
C328 C327 1.363 . S
C328 C334 1.428 . S
H329 C325 0.930 . S
H330 C327 0.929 . S
S331 N332 1.613 . S
S331 N333 1.610 . S
N332 S331 1.613 . S
N332 C335 1.350 . S
N333 S331 1.610 . S
N333 C334 1.351 . S
C334 C328 1.428 . S
C334 N333 1.351 . S
C334 C335 1.434 . S
C335 C326 1.429 . S
C335 N332 1.350 . S
C335 C334 1.434 . S
C336 C337 1.369 . S
C336 C338 1.419 . S
C336 H340 0.930 . S
C337 C336 1.369 . S
C337 C346 1.429 . S
C338 C336 1.419 . S
C338 C339 1.363 . S
C338 H341 0.929 . S
C339 C338 1.363 . S
C339 C345 1.428 . S
H340 C336 0.930 . S
H341 C338 0.929 . S
S342 N343 1.613 . S
S342 N344 1.610 . S
N343 S342 1.613 . S
N343 C346 1.350 . S
N344 S342 1.610 . S
N344 C345 1.351 . S
C345 C339 1.428 . S
C345 N344 1.351 . S
C345 C346 1.434 . S
C346 C337 1.429 . S
C346 N343 1.350 . S
C346 C345 1.434 . S
C347 C348 1.369 . S
C347 C349 1.419 . S
C347 H351 0.930 . S
C348 C347 1.369 . S
C348 C357 1.429 . S
C349 C347 1.419 . S
C349 C350 1.363 . S
C349 H352 0.929 . S
C350 C349 1.363 . S
C350 C356 1.428 . S
H351 C347 0.930 . S
H352 C349 0.929 . S
S353 N354 1.613 . S
S353 N355 1.610 . S
N354 S353 1.613 . S
N354 C357 1.350 . S
N355 S353 1.610 . S
N355 C356 1.351 . S
C356 C350 1.428 . S
C356 N355 1.351 . S
C356 C357 1.434 . S
C357 C348 1.429 . S
C357 N354 1.350 . S
C357 C356 1.434 . S
C358 C359 1.369 . S
C358 C360 1.419 . S
C358 H362 0.930 . S
C359 C358 1.369 . S
C359 C368 1.429 . S
C360 C358 1.419 . S
C360 C361 1.363 . S
C360 H363 0.929 . S
C361 C360 1.363 . S
C361 C367 1.428 . S
H362 C358 0.930 . S
H363 C360 0.929 . S
S364 N365 1.613 . S
S364 N366 1.610 . S
N365 S364 1.613 . S
N365 C368 1.350 . S
N366 S364 1.610 . S
N366 C367 1.351 . S
C367 C361 1.428 . S
C367 N366 1.351 . S
C367 C368 1.434 . S
C368 C359 1.429 . S
C368 N365 1.350 . S
C368 C367 1.434 . S
C369 C370 1.369 . S
C369 C371 1.419 . S
C369 H373 0.930 . S
C370 C369 1.369 . S
C370 C379 1.429 . S
C371 C369 1.419 . S
C371 C372 1.363 . S
C371 H374 0.929 . S
C372 C371 1.363 . S
C372 C378 1.428 . S
H373 C369 0.930 . S
H374 C371 0.929 . S
S375 N376 1.613 . S
S375 N377 1.610 . S
N376 S375 1.613 . S
N376 C379 1.350 . S
N377 S375 1.610 . S
N377 C378 1.351 . S
C378 C372 1.428 . S
C378 N377 1.351 . S
C378 C379 1.434 . S
C379 C370 1.429 . S
C379 N376 1.350 . S
C379 C378 1.434 . S
C380 C381 1.369 . S
C380 C382 1.419 . S
C380 H384 0.930 . S
C381 C380 1.369 . S
C381 C390 1.429 . S
C382 C380 1.419 . S
C382 C383 1.363 . S
C382 H385 0.929 . S
C383 C382 1.363 . S
C383 C389 1.428 . S
H384 C380 0.930 . S
H385 C382 0.929 . S
S386 N387 1.613 . S
S386 N388 1.610 . S
N387 S386 1.613 . S
N387 C390 1.350 . S
N388 S386 1.610 . S
N388 C389 1.351 . S
C389 C383 1.428 . S
C389 N388 1.351 . S
C389 C390 1.434 . S
C390 C381 1.429 . S
C390 N387 1.350 . S
C390 C389 1.434 . S
C391 C392 1.369 . S
C391 C393 1.419 . S
C391 H395 0.930 . S
C392 C391 1.369 . S
C392 C401 1.429 . S
C393 C391 1.419 . S
C393 C394 1.363 . S
C393 H396 0.929 . S
C394 C393 1.363 . S
C394 C400 1.428 . S
H395 C391 0.930 . S
H396 C393 0.929 . S
S397 N398 1.613 . S
S397 N399 1.610 . S
N398 S397 1.613 . S
N398 C401 1.350 . S
N399 S397 1.610 . S
N399 C400 1.351 . S
C400 C394 1.428 . S
C400 N399 1.351 . S
C400 C401 1.434 . S
C401 C392 1.429 . S
C401 N398 1.350 . S
C401 C400 1.434 . S
C402 C403 1.369 . S
C402 C404 1.419 . S
C402 H406 0.930 . S
C403 C402 1.369 . S
C403 C412 1.429 . S
C404 C402 1.419 . S
C404 C405 1.363 . S
C404 H407 0.929 . S
C405 C404 1.363 . S
C405 C411 1.428 . S
H406 C402 0.930 . S
H407 C404 0.929 . S
S408 N409 1.613 . S
S408 N410 1.610 . S
N409 S408 1.613 . S
N409 C412 1.350 . S
N410 S408 1.610 . S
N410 C411 1.351 . S
C411 C405 1.428 . S
C411 N410 1.351 . S
C411 C412 1.434 . S
C412 C403 1.429 . S
C412 N409 1.350 . S
C412 C411 1.434 . S
C413 C414 1.369 . S
C413 C415 1.419 . S
C413 H417 0.930 . S
C414 C413 1.369 . S
C414 C423 1.429 . S
C415 C413 1.419 . S
C415 C416 1.363 . S
C415 H418 0.929 . S
C416 C415 1.363 . S
C416 C422 1.428 . S
H417 C413 0.930 . S
H418 C415 0.929 . S
S419 N420 1.613 . S
S419 N421 1.610 . S
N420 S419 1.613 . S
N420 C423 1.350 . S
N421 S419 1.610 . S
N421 C422 1.351 . S
C422 C416 1.428 . S
C422 N421 1.351 . S
C422 C423 1.434 . S
C423 C414 1.429 . S
C423 N420 1.350 . S
C423 C422 1.434 . S
C424 C425 1.369 . S
C424 C426 1.419 . S
C424 H428 0.930 . S
C425 C424 1.369 . S
C425 C434 1.429 . S
C426 C424 1.419 . S
C426 C427 1.363 . S
C426 H429 0.929 . S
C427 C426 1.363 . S
C427 C433 1.428 . S
H428 C424 0.930 . S
H429 C426 0.929 . S
S430 N431 1.613 . S
S430 N432 1.610 . S
N431 S430 1.613 . S
N431 C434 1.350 . S
N432 S430 1.610 . S
N432 C433 1.351 . S
C433 C427 1.428 . S
C433 N432 1.351 . S
C433 C434 1.434 . S
C434 C425 1.429 . S
C434 N431 1.350 . S
C434 C433 1.434 . S
C435 C436 1.369 . S
C435 C437 1.419 . S
C435 H439 0.930 . S
C436 C435 1.369 . S
C436 C445 1.429 . S
C437 C435 1.419 . S
C437 C438 1.363 . S
C437 H440 0.929 . S
C438 C437 1.363 . S
C438 C444 1.428 . S
H439 C435 0.930 . S
H440 C437 0.929 . S
S441 N442 1.613 . S
S441 N443 1.610 . S
N442 S441 1.613 . S
N442 C445 1.350 . S
N443 S441 1.610 . S
N443 C444 1.351 . S
C444 C438 1.428 . S
C444 N443 1.351 . S
C444 C445 1.434 . S
C445 C436 1.429 . S
C445 N442 1.350 . S
C445 C444 1.434 . S
C446 C447 1.369 . S
C446 C448 1.419 . S
C446 H450 0.930 . S
C447 C446 1.369 . S
C447 C456 1.429 . S
C448 C446 1.419 . S
C448 C449 1.363 . S
C448 H451 0.929 . S
C449 C448 1.363 . S
C449 C455 1.428 . S
H450 C446 0.930 . S
H451 C448 0.929 . S
S452 N453 1.613 . S
S452 N454 1.610 . S
N453 S452 1.613 . S
N453 C456 1.350 . S
N454 S452 1.610 . S
N454 C455 1.351 . S
C455 C449 1.428 . S
C455 N454 1.351 . S
C455 C456 1.434 . S
C456 C447 1.429 . S
C456 N453 1.350 . S
C456 C455 1.434 . S
C457 C458 1.369 . S
C457 C459 1.419 . S
C457 H461 0.930 . S
C458 C457 1.369 . S
C458 C467 1.429 . S
C459 C457 1.419 . S
C459 C460 1.363 . S
C459 H462 0.929 . S
C460 C459 1.363 . S
C460 C466 1.428 . S
H461 C457 0.930 . S
H462 C459 0.929 . S
S463 N464 1.613 . S
S463 N465 1.610 . S
N464 S463 1.613 . S
N464 C467 1.350 . S
N465 S463 1.610 . S
N465 C466 1.351 . S
C466 C460 1.428 . S
C466 N465 1.351 . S
C466 C467 1.434 . S
C467 C458 1.429 . S
C467 N464 1.350 . S
C467 C466 1.434 . S
C205 C18 1.406 . S
C207 C121 1.453 . S
C216 C29 1.435 . S
C218 C146 1.538 . S
C229 C149 1.491 . S
C227 C55 1.383 . S
C240 C175 1.555 . S
C238 C75 1.453 . S
C251 C176 1.469 . S
C249 C98 1.411 . S
C262 C203 1.516 . S
C260 C118 1.465 . S
C271 C38 1.405 . S
C273 C148 1.456 . S
C282 C52 1.465 . S
C284 C174 1.516 . S
C295 C177 1.469 . S
C293 C72 1.414 . S
C306 C202 1.555 . S
C304 C89 1.452 . S
C315 C109 1.395 . S
C317 C120 1.492 . S
C328 C147 1.539 . S
C326 C9 1.437 . S
C339 C162 1.454 . S
C337 C12 1.400 . S
C348 C35 1.437 . S
C350 C189 1.538 . S
C361 C190 1.490 . S
C359 C49 1.392 . S
C370 C69 1.449 . S
C372 C132 1.550 . S
C381 C92 1.412 . S
C383 C135 1.468 . S
C392 C112 1.464 . S
C394 C160 1.515 . S
C403 C32 1.400 . S
C405 C191 1.452 . S
C416 C133 1.517 . S
C414 C58 1.464 . S
C425 C78 1.415 . S
C427 C134 1.469 . S
C436 C95 1.454 . S
C438 C161 1.554 . S
C447 C115 1.394 . S
C449 C163 1.490 . S
C458 C15 1.432 . S
C460 C188 1.538 . S
