# Generated by pormake.
# Topology nom, (4,4)-cn, num edge types: 1
# Building blocks:
#     Node 0, Type 0, BuildingBlock: MUDLON_clean_linker_0, # of connection points: 4
#     Node 1, Type 0, BuildingBlock: MUDLON_clean_linker_0, # of connection points: 4
#     Node 2, Type 0, BuildingBlock: MUDLON_clean_linker_0, # of connection points: 4
#     Node 3, Type 0, BuildingBlock: MUDLON_clean_linker_0, # of connection points: 4
#     Node 4, Type 0, BuildingBlock: MUDLON_clean_linker_0, # of connection points: 4
#     Node 5, Type 0, BuildingBlock: MUDLON_clean_linker_0, # of connection points: 4
#     Node 6, Type 1, BuildingBlock: QUQFOY_clean_sbu_1, # of connection points: 4
#     Node 7, Type 1, BuildingBlock: QUQFOY_clean_sbu_1, # of connection points: 4
#     Node 8, Type 1, BuildingBlock: QUQFOY_clean_sbu_1, # of connection points: 4
#     Node 9, Type 1, BuildingBlock: QUQFOY_clean_sbu_1, # of connection points: 4
#     Node 10, Type 1, BuildingBlock: QUQFOY_clean_sbu_1, # of connection points: 4
#     Node 11, Type 1, BuildingBlock: QUQFOY_clean_sbu_1, # of connection points: 4
#     Edge 12, Type (0, 1), BuildingBlock: UVAHIK_clean_linker_0, # of connection points: 2
#     Edge 13, Type (0, 1), BuildingBlock: UVAHIK_clean_linker_0, # of connection points: 2
#     Edge 14, Type (0, 1), BuildingBlock: UVAHIK_clean_linker_0, # of connection points: 2
#     Edge 15, Type (0, 1), BuildingBlock: UVAHIK_clean_linker_0, # of connection points: 2
#     Edge 16, Type (0, 1), BuildingBlock: UVAHIK_clean_linker_0, # of connection points: 2
#     Edge 17, Type (0, 1), BuildingBlock: UVAHIK_clean_linker_0, # of connection points: 2
#     Edge 18, Type (0, 1), BuildingBlock: UVAHIK_clean_linker_0, # of connection points: 2
#     Edge 19, Type (0, 1), BuildingBlock: UVAHIK_clean_linker_0, # of connection points: 2
#     Edge 20, Type (0, 1), BuildingBlock: UVAHIK_clean_linker_0, # of connection points: 2
#     Edge 21, Type (0, 1), BuildingBlock: UVAHIK_clean_linker_0, # of connection points: 2
#     Edge 22, Type (0, 1), BuildingBlock: UVAHIK_clean_linker_0, # of connection points: 2
#     Edge 23, Type (0, 1), BuildingBlock: UVAHIK_clean_linker_0, # of connection points: 2
#     Edge 24, Type (0, 1), BuildingBlock: UVAHIK_clean_linker_0, # of connection points: 2
#     Edge 25, Type (0, 1), BuildingBlock: UVAHIK_clean_linker_0, # of connection points: 2
#     Edge 26, Type (0, 1), BuildingBlock: UVAHIK_clean_linker_0, # of connection points: 2
#     Edge 27, Type (0, 1), BuildingBlock: UVAHIK_clean_linker_0, # of connection points: 2
#     Edge 28, Type (0, 1), BuildingBlock: UVAHIK_clean_linker_0, # of connection points: 2
#     Edge 29, Type (0, 1), BuildingBlock: UVAHIK_clean_linker_0, # of connection points: 2
#     Edge 30, Type (0, 1), BuildingBlock: UVAHIK_clean_linker_0, # of connection points: 2
#     Edge 31, Type (0, 1), BuildingBlock: UVAHIK_clean_linker_0, # of connection points: 2
#     Edge 32, Type (0, 1), BuildingBlock: UVAHIK_clean_linker_0, # of connection points: 2
#     Edge 33, Type (0, 1), BuildingBlock: UVAHIK_clean_linker_0, # of connection points: 2
#     Edge 34, Type (0, 1), BuildingBlock: UVAHIK_clean_linker_0, # of connection points: 2
#     Edge 35, Type (0, 1), BuildingBlock: UVAHIK_clean_linker_0, # of connection points: 2
# Relax obj value: 0.009
# Max RMSD: 0.104
# Mean RMSD: 0.097
data_MOF--net-nom--node1-QUQFOY_clean_sbu_1--node2-MUDLON_clean_linker_0--edge1-UVAHIK_clean_linker_0
_symmetry_space_group_name_H-M    P1
_symmetry_Int_Tables_number       1
_symmetry_cell_setting            triclinic
loop_
_symmetry_equiv_pos_as_xyz
'x, y, z'
_cell_length_a     76.393641
_cell_length_b     77.257876
_cell_length_c     69.866257
_cell_angle_alpha  90.372155
_cell_angle_beta   89.822177
_cell_angle_gamma 120.38878
loop_
_atom_site_label
_atom_site_type_symbol
_atom_site_fract_x
_atom_site_fract_y
_atom_site_fract_z
_atom_type_partial_charge
H0 H 0.09655 0.5739 0.30829 0.0
N1 N 0.08063 0.59778 0.31721 0.0
H2 H 0.12463 0.58219 0.28664 0.0
H3 H 0.098 0.62862 0.29337 0.0
H4 H 0.12713 0.63786 0.27258 0.0
H5 H 0.10217 0.6313 0.33737 0.0
H6 H 0.12074 0.63552 0.36712 0.0
H7 H 0.07871 0.56753 0.33895 0.0
H8 H 0.09684 0.57149 0.36893 0.0
H9 H 0.06412 0.56348 0.29403 0.0
H10 H 0.0491 0.59594 0.33522 0.0
H11 H 0.02896 0.53735 0.29253 0.0
H12 H 0.01362 0.56917 0.33414 0.0
H13 H 0.91521 0.45061 0.29322 0.0
H14 H 0.89664 0.44103 0.26296 0.0
H15 H 0.9179 0.50349 0.25137 0.0
H16 H 0.93564 0.51277 0.28188 0.0
H17 H 0.91427 0.50686 0.3116 0.0
H18 H 0.88653 0.49929 0.33351 0.0
H19 H 0.8951 0.45392 0.3604 0.0
H20 H 0.92323 0.4618 0.33835 0.0
H21 H 0.96814 0.48356 0.30882 0.0
H22 H 0.00361 0.51046 0.31089 0.0
H23 H 0.98419 0.55412 0.31445 0.0
N24 N 0.93529 0.48683 0.30893 0.0
H25 H 0.949 0.52722 0.31317 0.0
C26 C 0.09491 0.60055 0.30224 0.0
C27 C 0.1027 0.58758 0.30009 0.0
C28 C 0.11903 0.59252 0.28786 0.0
C29 C 0.12847 0.61086 0.27797 0.0
C30 C 0.12016 0.62346 0.27965 0.0
C31 C 0.10351 0.61826 0.29159 0.0
C32 C 0.08911 0.5992 0.33597 0.0
C33 C 0.10072 0.61819 0.3444 0.0
C34 C 0.11125 0.62052 0.36141 0.0
C35 C 0.11035 0.60384 0.37036 0.0
C36 C 0.09809 0.58467 0.36224 0.0
C37 C 0.0876 0.58237 0.34518 0.0
C38 C 0.05965 0.58192 0.31506 0.0
C39 C 0.05351 0.5651 0.30299 0.0
C40 C 0.03316 0.5499 0.30214 0.0
C41 C 0.01841 0.55098 0.31334 0.0
C42 C 0.02448 0.56788 0.32515 0.0
C43 C 0.0448 0.58316 0.32587 0.0
C44 C 0.92692 0.48232 0.28985 0.0
C45 C 0.91608 0.46221 0.28397 0.0
C46 C 0.90554 0.45681 0.26663 0.0
C47 C 0.90571 0.47149 0.2547 0.0
C48 C 0.91717 0.49176 0.26032 0.0
C49 C 0.92757 0.49713 0.27776 0.0
C50 C 0.92104 0.485 0.32348 0.0
C51 C 0.91073 0.49577 0.32257 0.0
C52 C 0.89477 0.49138 0.33512 0.0
C53 C 0.88862 0.47598 0.34866 0.0
C54 C 0.89944 0.46578 0.35004 0.0
C55 C 0.91556 0.47034 0.33758 0.0
C56 C 0.95588 0.50323 0.31083 0.0
C57 C 0.97162 0.49896 0.31019 0.0
C58 C 0.99186 0.51437 0.3112 0.0
C59 C 0.99681 0.53452 0.31272 0.0
C60 C 0.98097 0.53879 0.31353 0.0
C61 C 0.96072 0.52332 0.31268 0.0
H62 H 0.44309 0.92434 0.47078 0.0
N63 N 0.41959 0.94081 0.46214 0.0
H64 H 0.43457 0.89726 0.49322 0.0
H65 H 0.3897 0.92607 0.48763 0.0
H66 H 0.38044 0.89825 0.50958 0.0
H67 H 0.38555 0.91833 0.44269 0.0
H68 H 0.38127 0.89907 0.41339 0.0
H69 H 0.4502 0.94255 0.44024 0.0
H70 H 0.44617 0.92369 0.41073 0.0
H71 H 0.45622 0.95797 0.4819 0.0
H72 H 0.41881 0.97127 0.44578 0.0
H73 H 0.48193 0.99309 0.48272 0.0
H74 H 0.4452 0.00665 0.44576 0.0
H75 H 0.56532 0.10573 0.48534 0.0
H76 H 0.57414 0.12208 0.5167 0.0
H77 H 0.51042 0.0977 0.52898 0.0
H78 H 0.5019 0.08234 0.4974 0.0
H79 H 0.5083 0.10625 0.46942 0.0
H80 H 0.51728 0.13622 0.45095 0.0
H81 H 0.56304 0.12947 0.42092 0.0
H82 H 0.55412 0.09953 0.43985 0.0
H83 H 0.53352 0.05409 0.46666 0.0
H84 H 0.50713 0.01879 0.46419 0.0
H85 H 0.46137 0.03605 0.46431 0.0
N86 N 0.52887 0.08571 0.4694 0.0
H87 H 0.48791 0.0712 0.46565 0.0
C88 C 0.41708 0.92744 0.47764 0.0
C89 C 0.42972 0.91918 0.47959 0.0
C90 C 0.42467 0.90346 0.49231 0.0
C91 C 0.40666 0.89531 0.50309 0.0
C92 C 0.39456 0.90424 0.50174 0.0
C93 C 0.39978 0.92015 0.48918 0.0
C94 C 0.41809 0.93182 0.44361 0.0
C95 C 0.39883 0.91978 0.43556 0.0
C96 C 0.39646 0.90885 0.41881 0.0
C97 C 0.41338 0.90977 0.40977 0.0
C98 C 0.4328 0.92244 0.41751 0.0
C99 C 0.43515 0.93334 0.43429 0.0
C100 C 0.43526 0.96172 0.46374 0.0
C101 C 0.45341 0.96827 0.47401 0.0
C102 C 0.46838 0.98858 0.47434 0.0
C103 C 0.46582 0.00283 0.46419 0.0
C104 C 0.44766 0.99624 0.45399 0.0
C105 C 0.43258 0.97599 0.4539 0.0
C106 C 0.53304 0.09269 0.48897 0.0
C107 C 0.55329 0.1037 0.49496 0.0
C108 C 0.55826 0.11296 0.51293 0.0
C109 C 0.54299 0.11127 0.52541 0.0
C110 C 0.5226 0.0996 0.51965 0.0
C111 C 0.51767 0.09054 0.50157 0.0
C112 C 0.5306 0.1006 0.456 0.0
C113 C 0.51982 0.1108 0.45848 0.0
C114 C 0.52501 0.12802 0.44787 0.0
C115 C 0.54106 0.13541 0.4346 0.0
C116 C 0.55084 0.12438 0.43126 0.0
C117 C 0.54564 0.10716 0.44188 0.0
C118 C 0.51278 0.06529 0.46643 0.0
C119 C 0.51778 0.05018 0.46588 0.0
C120 C 0.50263 0.03 0.46471 0.0
C121 C 0.48201 0.02443 0.46432 0.0
C122 C 0.47704 0.03969 0.46439 0.0
C123 C 0.49227 0.05991 0.46529 0.0
H124 H 0.4372 0.54117 0.64755 0.0
N125 N 0.41818 0.50054 0.65362 0.0
H126 H 0.42804 0.55783 0.62375 0.0
H127 H 0.39441 0.48361 0.62327 0.0
H128 H 0.38614 0.50028 0.59821 0.0
H129 H 0.38353 0.49035 0.67138 0.0
H130 H 0.37867 0.50584 0.7 0.0
H131 H 0.44836 0.52854 0.67672 0.0
H132 H 0.44372 0.54365 0.70562 0.0
H133 H 0.45651 0.52296 0.63821 0.0
H134 H 0.41624 0.46764 0.66715 0.0
H135 H 0.4826 0.51383 0.63711 0.0
H136 H 0.44281 0.4589 0.66728 0.0
H137 H 0.56532 0.4827 0.63223 0.0
H138 H 0.57602 0.47706 0.60098 0.0
H139 H 0.51314 0.44053 0.58416 0.0
H140 H 0.50267 0.44549 0.61554 0.0
H141 H 0.50633 0.42468 0.64211 0.0
H142 H 0.51315 0.40116 0.65877 0.0
H143 H 0.55882 0.44985 0.69291 0.0
H144 H 0.55143 0.47331 0.67644 0.0
H145 H 0.53258 0.5016 0.65222 0.0
H146 H 0.50625 0.51055 0.65523 0.0
H147 H 0.46032 0.44803 0.64811 0.0
N148 N 0.52788 0.46566 0.64598 0.0
H149 H 0.48662 0.43926 0.64641 0.0
C150 C 0.41604 0.51099 0.63752 0.0
C151 C 0.4261 0.53208 0.63682 0.0
C152 C 0.42099 0.54167 0.62292 0.0
C153 C 0.40603 0.53047 0.6091 0.0
C154 C 0.39726 0.50944 0.60893 0.0
C155 C 0.40212 0.49984 0.62309 0.0
C156 C 0.4162 0.50815 0.67194 0.0
C157 C 0.3967 0.50174 0.67902 0.0
C158 C 0.39399 0.51059 0.69539 0.0
C159 C 0.41082 0.52607 0.70506 0.0
C160 C 0.43043 0.53198 0.69835 0.0
C161 C 0.43311 0.52317 0.68192 0.0
C162 C 0.43414 0.49573 0.65247 0.0
C163 C 0.45321 0.50881 0.64434 0.0
C164 C 0.46833 0.50367 0.64398 0.0
C165 C 0.46493 0.48558 0.65211 0.0
C166 C 0.44593 0.47274 0.6605 0.0
C167 C 0.43072 0.47773 0.66055 0.0
C168 C 0.53328 0.46468 0.62634 0.0
C169 C 0.55389 0.47381 0.62163 0.0
C170 C 0.55995 0.47059 0.60372 0.0
C171 C 0.54543 0.45821 0.59005 0.0
C172 C 0.52473 0.44985 0.59445 0.0
C173 C 0.5187 0.45291 0.61244 0.0
C174 C 0.52835 0.45086 0.65811 0.0
C175 C 0.51727 0.43026 0.65363 0.0
C176 C 0.5214 0.41681 0.66302 0.0
C177 C 0.53676 0.42366 0.67697 0.0
C178 C 0.54682 0.44403 0.68233 0.0
C179 C 0.54263 0.45747 0.67295 0.0
C180 C 0.51171 0.46987 0.64899 0.0
C181 C 0.51679 0.48986 0.65158 0.0
C182 C 0.50169 0.49494 0.65306 0.0
C183 C 0.48105 0.48007 0.65167 0.0
C184 C 0.47598 0.45992 0.64948 0.0
C185 C 0.49111 0.45484 0.64835 0.0
H186 H 0.10043 0.53735 0.80431 0.0
N187 N 0.07679 0.49685 0.79762 0.0
H188 H 0.12641 0.55334 0.82862 0.0
H189 H 0.08314 0.47919 0.82726 0.0
H190 H 0.10842 0.49522 0.8527 0.0
H191 H 0.09984 0.48568 0.77895 0.0
H192 H 0.12032 0.50094 0.75032 0.0
H193 H 0.07603 0.52562 0.77539 0.0
H194 H 0.09592 0.54054 0.7465 0.0
H195 H 0.06302 0.51991 0.81511 0.0
H196 H 0.04405 0.46532 0.7831 0.0
H197 H 0.02813 0.51211 0.81728 0.0
H198 H 0.00902 0.45804 0.78397 0.0
H199 H 0.91488 0.48547 0.82349 0.0
H200 H 0.897 0.47772 0.8541 0.0
H201 H 0.91614 0.43491 0.86592 0.0
H202 H 0.93314 0.44212 0.83513 0.0
H203 H 0.91055 0.42661 0.80582 0.0
H204 H 0.88162 0.40701 0.78486 0.0
H205 H 0.89299 0.46136 0.75666 0.0
H206 H 0.92192 0.48098 0.77802 0.0
H207 H 0.96644 0.50326 0.80415 0.0
H208 H 0.00143 0.51086 0.80067 0.0
H209 H 0.98069 0.44739 0.80316 0.0
N210 N 0.93326 0.46764 0.80766 0.0
H211 H 0.94585 0.44006 0.80514 0.0
C212 C 0.09008 0.50692 0.81367 0.0
C213 C 0.10198 0.52798 0.8148 0.0
C214 C 0.11675 0.53718 0.82898 0.0
C215 C 0.11978 0.52562 0.84262 0.0
C216 C 0.10691 0.50462 0.84219 0.0
C217 C 0.09231 0.4954 0.82779 0.0
C218 C 0.08637 0.50438 0.77929 0.0
C219 C 0.09869 0.49742 0.7717 0.0
C220 C 0.11033 0.50613 0.75532 0.0
C221 C 0.10985 0.52205 0.74616 0.0
C222 C 0.09688 0.52852 0.75337 0.0
C223 C 0.0853 0.51983 0.76979 0.0
C224 C 0.05622 0.49294 0.79919 0.0
C225 C 0.0514 0.50622 0.80848 0.0
C226 C 0.0313 0.50185 0.80948 0.0
C227 C 0.01556 0.4844 0.80081 0.0
C228 C 0.02054 0.47138 0.79122 0.0
C229 C 0.04059 0.47556 0.79057 0.0
C230 C 0.92548 0.46457 0.82695 0.0
C231 C 0.91546 0.47466 0.83287 0.0
C232 C 0.90531 0.47023 0.85041 0.0
C233 C 0.90504 0.4556 0.86249 0.0
C234 C 0.91574 0.44602 0.85685 0.0
C235 C 0.92574 0.45034 0.83922 0.0
C236 C 0.91843 0.45535 0.79346 0.0
C237 C 0.90721 0.43431 0.79482 0.0
C238 C 0.89062 0.42307 0.78278 0.0
C239 C 0.88488 0.43264 0.76918 0.0
C240 C 0.89684 0.45358 0.76717 0.0
C241 C 0.91344 0.46478 0.77921 0.0
C242 C 0.95355 0.4712 0.80514 0.0
C243 C 0.96954 0.49104 0.80378 0.0
C244 C 0.98955 0.49533 0.802 0.0
C245 C 0.99409 0.47978 0.80186 0.0
C246 C 0.97791 0.45981 0.80297 0.0
C247 C 0.95785 0.45555 0.80436 0.0
H248 H 0.56419 0.09995 0.98334 0.0
N249 N 0.5912 0.08911 0.97081 0.0
H250 H 0.5716 0.12691 0.00632 0.0
H251 H 0.62283 0.10677 0.99402 0.0
H252 H 0.63055 0.13378 0.01678 0.0
H253 H 0.625 0.10917 0.95058 0.0
H254 H 0.62979 0.12813 0.9211 0.0
H255 H 0.56121 0.08946 0.94986 0.0
H256 H 0.5658 0.10822 0.92049 0.0
H257 H 0.5499 0.06486 0.97263 0.0
H258 H 0.60641 0.0652 0.97346 0.0
H259 H 0.53117 0.02822 0.97303 0.0
H260 H 0.58801 0.02868 0.97532 0.0
H261 H 0.48366 0.92866 -0.00208 0.0
H262 H 0.47216 0.91135 0.02842 0.0
H263 H 0.52957 0.91388 0.03535 0.0
H264 H 0.54113 0.93153 0.0047 0.0
H265 H 0.5285 0.91454 0.96257 0.0
H266 H 0.5067 0.88698 0.94107 0.0
H267 H 0.46243 0.90613 0.94236 0.0
H268 H 0.48461 0.93384 0.96399 0.0
H269 H 0.50464 0.9632 0.99328 0.0
H270 H 0.52146 0.99953 0.99126 0.0
H271 H 0.56899 1.00003 0.95701 0.0
N272 N 0.51972 0.93957 0.98016 0.0
H273 H 0.55271 0.96372 0.96037 0.0
C274 C 0.59307 0.10147 0.987 0.0
C275 C 0.57844 0.10689 0.99101 0.0
C276 C 0.58277 0.12241 0.00404 0.0
C277 C 0.60174 0.13265 0.01329 0.0
C278 C 0.6157 0.12612 0.01015 0.0
C279 C 0.61136 0.1107 -0.00287 0.0
C280 C 0.59281 0.09781 0.95232 0.0
C281 C 0.612 0.10866 0.94384 0.0
C282 C 0.6147 0.11956 0.92715 0.0
C283 C 0.59817 0.11971 0.91858 0.0
C284 C 0.57877 0.10822 0.92669 0.0
C285 C 0.57612 0.09745 0.9435 0.0
C286 C 0.57958 0.06767 0.97262 0.0
C287 C 0.55828 0.05704 0.97295 0.0
C288 C 0.54758 0.03603 0.97341 0.0
C289 C 0.558 0.02531 0.97394 0.0
C290 C 0.57937 0.03623 0.97431 0.0
C291 C 0.58997 0.05713 0.9735 0.0
C292 C 0.51342 0.93159 -0.00087 0.0
C293 C 0.494 0.92599 0.00616 0.0
C294 C 0.48742 0.91607 0.02363 0.0
C295 C 0.49997 0.91127 0.03423 0.0
C296 C 0.51956 0.91732 0.02741 0.0
C297 C 0.52622 0.92747 0.01003 0.0
C298 C 0.50812 0.92606 0.96491 0.0
C299 C 0.51433 0.91306 0.95778 0.0
C300 C 0.50185 0.89737 0.94546 0.0
C301 C 0.48275 0.89428 0.94004 0.0
C302 C 0.47695 0.90798 0.94645 0.0
C303 C 0.4896 0.92384 0.95873 0.0
C304 C 0.52771 0.96071 0.97732 0.0
C305 C 0.51869 0.97104 0.9854 0.0
C306 C 0.52829 0.99196 0.98406 0.0
C307 C 0.54686 0.00292 0.97426 0.0
C308 C 0.55511 0.99229 0.96523 0.0
C309 C 0.54571 0.97148 0.96691 0.0
H310 H 0.53878 0.4457 0.13952 0.0
N311 N 0.54796 0.48294 0.14721 0.0
H312 H 0.55647 0.43482 0.11794 0.0
H313 H 0.57545 0.50635 0.11919 0.0
H314 H 0.59239 0.49548 0.09694 0.0
H315 H 0.58851 0.50284 0.15579 0.0
H316 H 0.60378 0.49968 0.18528 0.0
H317 H 0.52882 0.46434 0.17906 0.0
H318 H 0.54398 0.46106 0.20865 0.0
H319 H 0.51136 0.47809 0.14246 0.0
H320 H 0.57448 0.52359 0.1467 0.0
H321 H 0.50218 0.50401 0.14005 0.0
H322 H 0.56582 0.54959 0.14272 0.0
H323 H 0.47506 0.57314 0.12042 0.0
H324 H 0.46189 0.57825 0.09083 0.0
H325 H 0.52311 0.61875 0.07148 0.0
H326 H 0.53622 0.61411 0.10185 0.0
H327 H 0.52736 0.62893 0.14535 0.0
H328 H 0.50959 0.63906 0.1678 0.0
H329 H 0.46401 0.5768 0.17617 0.0
H330 H 0.48193 0.56684 0.15351 0.0
H331 H 0.49302 0.5536 0.11763 0.0
H332 H 0.50161 0.52766 0.12085 0.0
H333 H 0.55222 0.56687 0.15733 0.0
N334 N 0.51488 0.59242 0.1318 0.0
H335 H 0.54439 0.59349 0.15265 0.0
C336 C 0.55569 0.4768 0.13124 0.0
C337 C 0.55016 0.45654 0.12993 0.0
C338 C 0.5603 0.45035 0.11749 0.0
C339 C 0.57614 0.4643 0.10579 0.0
C340 C 0.58066 0.48438 0.10607 0.0
C341 C 0.57072 0.49062 0.11877 0.0
C342 C 0.55745 0.48365 0.16523 0.0
C343 C 0.57868 0.494 0.16737 0.0
C344 C 0.5874 0.49209 0.18419 0.0
C345 C 0.57507 0.48001 0.19921 0.0
C346 C 0.55387 0.4706 0.1974 0.0
C347 C 0.54518 0.47239 0.18053 0.0
C348 C 0.54353 0.4988 0.14437 0.0
C349 C 0.52326 0.49371 0.14242 0.0
C350 C 0.5181 0.50861 0.14094 0.0
C351 C 0.53323 0.52907 0.14106 0.0
C352 C 0.55364 0.53411 0.14289 0.0
C353 C 0.55871 0.51917 0.14483 0.0
C354 C 0.50674 0.59344 0.11347 0.0
C355 C 0.48573 0.58309 0.10988 0.0
C356 C 0.47818 0.58587 0.09275 0.0
C357 C 0.49142 0.59894 0.07872 0.0
C358 C 0.51247 0.60878 0.08208 0.0
C359 C 0.52001 0.60605 0.09932 0.0
C360 C 0.506 0.59724 0.14771 0.0
C361 C 0.51383 0.61748 0.15243 0.0
C362 C 0.50365 0.6232 0.1653 0.0
C363 C 0.48529 0.60873 0.1737 0.0
C364 C 0.47799 0.58831 0.16976 0.0
C365 C 0.48829 0.58259 0.15692 0.0
C366 C 0.51836 0.57586 0.13463 0.0
C367 C 0.50607 0.55684 0.12621 0.0
C368 C 0.51091 0.54175 0.12827 0.0
C369 C 0.52777 0.54504 0.13925 0.0
C370 C 0.53948 0.56383 0.1483 0.0
C371 C 0.53491 0.57905 0.14585 0.0
O372 O 0.6082 0.38413 0.41754 0.0
Cd373 Cd 0.61543 0.37409 0.39292 0.0
Cd374 Cd 0.65218 0.40825 0.39801 0.0
O375 O 0.63844 0.4107 0.42238 0.0
O376 O 0.594 0.34536 0.39029 0.0
O377 O 0.6264 0.35534 0.3949 0.0
C378 C 0.60793 0.34082 0.39265 0.0
C379 C 0.68559 0.41511 0.40029 0.0
C380 C 0.62009 0.3995 0.42745 0.0
C381 C 0.62904 0.40519 0.36216 0.0
O382 O 0.64447 0.41592 0.37256 0.0
O383 O 0.6158 0.38759 0.36735 0.0
O384 O 0.68116 0.4291 0.40155 0.0
O385 O 0.67086 0.39689 0.39802 0.0
O386 O 0.25139 0.61637 0.57887 0.0
Cd387 Cd 0.26812 0.62672 0.55402 0.0
Cd388 Cd 0.26753 0.66059 0.56439 0.0
O389 O 0.25466 0.64487 0.5892 0.0
O390 O 0.27445 0.60531 0.54784 0.0
O391 O 0.29815 0.63649 0.55457 0.0
C392 C 0.29335 0.61828 0.55046 0.0
C393 C 0.29378 0.69393 0.56591 0.0
C394 C 0.24822 0.62631 0.59157 0.0
C395 C 0.24601 0.63985 0.528 0.0
O396 O 0.24911 0.65305 0.54058 0.0
O397 O 0.25344 0.6285 0.53005 0.0
O398 O 0.27543 0.68882 0.57044 0.0
O399 O 0.29745 0.67991 0.561 0.0
O400 O 0.64171 0.24898 0.74442 0.0
Cd401 Cd 0.6488 0.2645 0.7191 0.0
Cd402 Cd 0.61248 0.26193 0.7254 0.0
O403 O 0.61344 0.24898 0.75087 0.0
O404 O 0.67804 0.27377 0.71529 0.0
O405 O 0.66648 0.29462 0.71934 0.0
C406 C 0.68172 0.29193 0.71691 0.0
C407 C 0.60563 0.28811 0.7257 0.0
C408 C 0.62672 0.24444 0.75539 0.0
C409 C 0.61606 0.24106 0.6904 0.0
O410 O 0.60448 0.24445 0.70088 0.0
O411 O 0.63461 0.24834 0.69482 0.0
O412 O 0.59154 0.2698 0.72863 0.0
O413 O 0.6239 0.29166 0.72297 0.0
O414 O 0.4008 0.65331 0.91467 0.0
Cd415 Cd 0.38976 0.66012 0.89068 0.0
Cd416 Cd 0.35564 0.62489 0.89919 0.0
O417 O 0.37242 0.62582 0.92258 0.0
O418 O 0.40883 0.68907 0.88577 0.0
O419 O 0.37664 0.67698 0.89365 0.0
C420 C 0.39416 0.69226 0.88951 0.0
C421 C 0.32155 0.61527 0.90329 0.0
C422 C 0.39096 0.63854 0.92584 0.0
C423 C 0.37631 0.62712 0.86173 0.0
O424 O 0.36232 0.61639 0.8735 0.0
O425 O 0.38868 0.64549 0.86546 0.0
O426 O 0.32771 0.60259 0.90463 0.0
O427 O 0.33497 0.63382 0.90016 0.0
O428 O 0.76683 0.38075 0.03452 0.0
Cd429 Cd 0.7508 0.37089 0.0598 0.0
Cd430 Cd 0.75124 0.40619 0.05792 0.0
O431 O 0.76741 0.40955 0.03313 0.0
O432 O 0.74314 0.34226 0.06203 0.0
O433 O 0.72049 0.35189 0.05906 0.0
C434 C 0.72442 0.33756 0.06088 0.0
C435 C 0.72378 0.41149 0.05698 0.0
C436 C 0.77224 0.39728 0.02619 0.0
C437 C 0.77157 0.4006 0.09189 0.0
O438 O 0.76674 0.4121 0.08346 0.0
O439 O 0.76645 0.38348 0.08486 0.0
O440 O 0.74225 0.42622 0.05659 0.0
O441 O 0.72082 0.39348 0.05765 0.0
O442 O 0.40933 0.77289 0.2034 0.0
Cd443 Cd 0.39722 0.75479 0.22706 0.0
Cd444 Cd 0.36377 0.75451 0.21585 0.0
O445 O 0.38042 0.76791 0.19155 0.0
O446 O 0.41645 0.74541 0.23334 0.0
O447 O 0.38485 0.72495 0.22391 0.0
C448 C 0.40228 0.7275 0.22892 0.0
C449 C 0.33115 0.72675 0.21402 0.0
C450 C 0.39952 0.7755 0.19018 0.0
C451 C 0.38227 0.77509 0.25311 0.0
O452 O 0.36971 0.77231 0.23988 0.0
O453 O 0.39397 0.76795 0.25152 0.0
O454 O 0.33481 0.74443 0.20946 0.0
O455 O 0.34629 0.7247 0.21896 0.0
C456 C 0.15282 0.62989 0.25114 0.0
C457 C 0.14787 0.61764 0.26742 0.0
C458 C 0.17199 0.63805 0.24266 0.0
C459 C 0.2243 0.6508 0.25508 0.0
H460 H 0.23432 0.66368 0.20115 0.0
C461 C 0.30539 0.69234 0.22519 0.0
C462 C 0.31001 0.70985 0.21515 0.0
C463 C 0.2852 0.67782 0.22893 0.0
C464 C 0.23171 0.66009 0.21623 0.0
H465 H 0.15927 0.60387 0.287 0.0
H466 H 0.19196 0.61704 0.27162 0.0
H467 H 0.19942 0.64393 0.21274 0.0
H468 H 0.29711 0.7252 0.19997 0.0
H469 H 0.26193 0.6998 0.20636 0.0
H470 H 0.25652 0.66705 0.25858 0.0
C471 C 0.18128 0.62089 0.26573 0.0
C472 C 0.21173 0.64889 0.22291 0.0
C473 C 0.16228 0.613 0.27437 0.0
C474 C 0.29404 0.71192 0.20784 0.0
C475 C 0.27387 0.69731 0.2114 0.0
C476 C 0.2442 0.66176 0.24837 0.0
C477 C 0.18662 0.63398 0.25009 0.0
C478 C 0.20776 0.64437 0.24249 0.0
C479 C 0.26926 0.68043 0.22249 0.0
C480 C 0.24813 0.6668 0.22894 0.0
H481 H 0.14204 0.63353 0.24513 0.0
H482 H 0.17553 0.64816 0.23072 0.0
H483 H 0.22195 0.64806 0.2703 0.0
H484 H 0.31735 0.69029 0.23098 0.0
H485 H 0.28205 0.66484 0.23735 0.0
C486 C 0.56987 0.16905 0.42481 0.0
C487 C 0.54885 0.15549 0.42582 0.0
C488 C 0.57734 0.18869 0.41853 0.0
C489 C 0.56341 0.22188 0.39292 0.0
H490 H 0.60587 0.26364 0.42411 0.0
C491 C 0.58228 0.30415 0.39126 0.0
C492 C 0.6026 0.31954 0.39339 0.0
C493 C 0.57686 0.28405 0.39304 0.0
C494 C 0.59427 0.2522 0.41503 0.0
H495 H 0.51923 0.15176 0.4202 0.0
H496 H 0.53227 0.18616 0.40943 0.0
H497 H 0.59421 0.22859 0.43088 0.0
H498 H 0.63325 0.32584 0.39853 0.0
H499 H 0.6238 0.29065 0.40147 0.0
H500 H 0.56328 0.24553 0.37723 0.0
C501 C 0.54298 0.18153 0.41341 0.0
C502 C 0.58756 0.23208 0.41892 0.0
C503 C 0.5355 0.16187 0.41975 0.0
C504 C 0.61746 0.31434 0.39689 0.0
C505 C 0.61202 0.29418 0.39868 0.0
C506 C 0.57015 0.24202 0.38899 0.0
C507 C 0.56399 0.19528 0.41307 0.0
C508 C 0.5719 0.21666 0.40806 0.0
C509 C 0.59161 0.2788 0.39698 0.0
C510 C 0.58549 0.25743 0.40015 0.0
H511 H 0.5806 0.16475 0.42959 0.0
H512 H 0.5936 0.19883 0.41822 0.0
H513 H 0.55152 0.21037 0.38412 0.0
H514 H 0.57043 0.30761 0.38857 0.0
H515 H 0.56097 0.27265 0.39191 0.0
C516 C 0.41109 0.56041 0.59007 0.0
C517 C 0.39832 0.54053 0.59625 0.0
C518 C 0.40311 0.5707 0.58039 0.0
C519 C 0.35933 0.56445 0.55294 0.0
H520 H 0.36784 0.61249 0.57917 0.0
C521 C 0.30233 0.59148 0.54775 0.0
C522 C 0.30866 0.6119 0.55 0.0
C523 C 0.31616 0.58483 0.54932 0.0
C524 C 0.36564 0.59942 0.57129 0.0
H525 H 0.36709 0.51579 0.59622 0.0
H526 H 0.35355 0.53343 0.57868 0.0
H527 H 0.38726 0.59685 0.5887 0.0
H528 H 0.33473 0.64154 0.55473 0.0
H529 H 0.35911 0.62998 0.557 0.0
H530 H 0.33763 0.56681 0.53561 0.0
C531 C 0.36972 0.54104 0.58146 0.0
C532 C 0.37676 0.59043 0.57683 0.0
C533 C 0.37757 0.53089 0.59146 0.0
C534 C 0.32936 0.62568 0.55303 0.0
C535 C 0.3433 0.61902 0.55445 0.0
C536 C 0.34844 0.5736 0.54719 0.0
C537 C 0.3823 0.56118 0.57627 0.0
C538 C 0.37321 0.57251 0.56812 0.0
C539 C 0.3368 0.59843 0.55299 0.0
C540 C 0.3509 0.59079 0.55676 0.0
H541 H 0.4272 0.56824 0.59307 0.0
H542 H 0.41315 0.58619 0.57638 0.0
H543 H 0.3565 0.55076 0.54585 0.0
H544 H 0.28649 0.58043 0.54544 0.0
H545 H 0.31042 0.56885 0.54846 0.0
C546 C 0.85934 0.40173 0.75131 0.0
C547 C 0.86551 0.42102 0.75848 0.0
C548 C 0.84011 0.39001 0.74314 0.0
C549 C 0.78916 0.38344 0.74548 0.0
H550 H 0.7783 0.34769 0.70225 0.0
C551 C 0.70729 0.32863 0.72057 0.0
C552 C 0.70289 0.30891 0.71703 0.0
C553 C 0.72742 0.34424 0.72249 0.0
C554 C 0.78108 0.35755 0.71439 0.0
H555 H 0.85646 0.44332 0.76221 0.0
H556 H 0.8231 0.42301 0.74771 0.0
H557 H 0.81334 0.3715 0.71133 0.0
H558 H 0.71619 0.29024 0.71197 0.0
H559 H 0.75108 0.31726 0.71557 0.0
H560 H 0.75701 0.36913 0.74899 0.0
C561 C 0.83307 0.41688 0.74855 0.0
C562 C 0.80115 0.37118 0.71957 0.0
C563 C 0.85229 0.42861 0.75666 0.0
C564 C 0.71903 0.30526 0.71472 0.0
C565 C 0.7391 0.32081 0.71665 0.0
C566 C 0.76912 0.36978 0.74035 0.0
C567 C 0.8266 0.39731 0.74204 0.0
C568 C 0.80541 0.38406 0.73537 0.0
C569 C 0.74355 0.34044 0.7209 0.0
C570 C 0.76482 0.35642 0.72494 0.0
H571 H 0.86924 0.39553 0.75235 0.0
H572 H 0.83554 0.37494 0.73839 0.0
H573 H 0.79191 0.39296 0.75789 0.0
H574 H 0.69519 0.33194 0.72234 0.0
H575 H 0.73034 0.35924 0.72551 0.0
C576 C 0.44809 0.86414 0.93513 0.0
C577 C 0.46845 0.87576 0.92932 0.0
C578 C 0.43557 0.845 0.92736 0.0
C579 C 0.43239 0.80968 0.88885 0.0
H580 H 0.40361 0.76926 0.92758 0.0
C581 C 0.41601 0.72877 0.88251 0.0
C582 C 0.39781 0.71298 0.88988 0.0
C583 C 0.42062 0.74863 0.88444 0.0
C584 C 0.41119 0.78033 0.91648 0.0
H585 H 0.49111 0.87705 0.9097 0.0
H586 H 0.46954 0.84362 0.8965 0.0
H587 H 0.41886 0.80459 0.93595 0.0
H588 H 0.36979 0.70559 0.90445 0.0
H589 H 0.37798 0.74047 0.908 0.0
H590 H 0.42549 0.7853 0.86965 0.0
C591 C 0.46311 0.84924 0.90695 0.0
C592 C 0.41993 0.80064 0.92126 0.0
C593 C 0.47559 0.86836 0.91468 0.0
C594 C 0.38395 0.71744 0.89863 0.0
C595 C 0.38867 0.73739 0.90074 0.0
C596 C 0.42372 0.78937 0.8841 0.0
C597 C 0.44313 0.83706 0.91362 0.0
C598 C 0.43114 0.81559 0.90765 0.0
C599 C 0.40721 0.75322 0.89392 0.0
C600 C 0.41351 0.77449 0.89801 0.0
H601 H 0.44213 0.86935 0.94645 0.0
H602 H 0.42017 0.83616 0.9326 0.0
H603 H 0.44056 0.82078 0.87791 0.0
H604 H 0.42699 0.72584 0.87563 0.0
H605 H 0.43513 0.76046 0.87923 0.0
C606 C 0.61016 0.47154 0.09355 0.0
C607 C 0.58908 0.45831 0.09486 0.0
C608 C 0.62273 0.46533 0.08523 0.0
C609 C 0.62634 0.42069 0.07848 0.0
H610 H 0.67152 0.45476 0.04538 0.0
C611 C 0.68644 0.39957 0.05684 0.0
C612 C 0.70669 0.41539 0.05729 0.0
C613 C 0.67047 0.40351 0.05807 0.0
C614 C 0.65906 0.4451 0.05472 0.0
H615 H 0.5647 0.42837 0.08745 0.0
H616 H 0.58686 0.41739 0.07348 0.0
H617 H 0.64645 0.46433 0.05341 0.0
H618 H 0.72605 0.44774 0.05913 0.0
H619 H 0.69844 0.45454 0.06174 0.0
H620 H 0.63939 0.40196 0.08064 0.0
C621 C 0.59353 0.43258 0.07896 0.0
C622 C 0.64466 0.45056 0.05922 0.0
C623 C 0.58088 0.43888 0.08705 0.0
C624 C 0.71063 0.43519 0.05866 0.0
C625 C 0.69473 0.43911 0.06 0.0
C626 C 0.64087 0.41533 0.07415 0.0
C627 C 0.61461 0.44567 0.07822 0.0
C628 C 0.62839 0.43862 0.07146 0.0
C629 C 0.67443 0.42334 0.05985 0.0
C630 C 0.65768 0.42771 0.06257 0.0
H631 H 0.61718 0.48646 0.09972 0.0
H632 H 0.63897 0.47567 0.0851 0.0
H633 H 0.61404 0.4113 0.08811 0.0
H634 H 0.68291 0.38415 0.05571 0.0
H635 H 0.65502 0.39101 0.05768 0.0
C636 C 0.40232 0.86103 0.50702 0.0
C637 C 0.39957 0.87654 0.51427 0.0
C638 C 0.39391 0.84259 0.51637 0.0
C639 C 0.35077 0.8101 0.54637 0.0
H640 H 0.37746 0.77896 0.55131 0.0
C641 C 0.30674 0.72973 0.5748 0.0
C642 C 0.30961 0.71538 0.5651 0.0
C643 C 0.32012 0.7502 0.57205 0.0
C644 C 0.36973 0.78739 0.54991 0.0
H645 H 0.38664 0.88502 0.53767 0.0
H646 H 0.37157 0.85261 0.55374 0.0
H647 H 0.39671 0.81359 0.5401 0.0
H648 H 0.32922 0.71116 0.54556 0.0
H649 H 0.35225 0.74689 0.54019 0.0
H650 H 0.32362 0.78387 0.55521 0.0
C651 C 0.38019 0.85479 0.54073 0.0
C652 C 0.3808 0.80725 0.54357 0.0
C653 C 0.38876 0.87333 0.53148 0.0
C654 C 0.32668 0.7219 0.55328 0.0
C655 C 0.33993 0.74242 0.55028 0.0
C656 C 0.33968 0.79023 0.5525 0.0
C657 C 0.38238 0.83912 0.53308 0.0
C658 C 0.37136 0.81873 0.54153 0.0
C659 C 0.33651 0.75683 0.55925 0.0
C660 C 0.34893 0.7785 0.55417 0.0
H661 H 0.41019 0.86274 0.49363 0.0
H662 H 0.39563 0.83072 0.50997 0.0
H663 H 0.34298 0.81844 0.54463 0.0
H664 H 0.29384 0.72514 0.5842 0.0
H665 H 0.3173 0.76081 0.57964 0.0
C666 C 0.54598 0.39716 0.67175 0.0
C667 C 0.54369 0.41012 0.68438 0.0
C668 C 0.55384 0.3854 0.67815 0.0
C669 C 0.56229 0.36339 0.72114 0.0
H670 H 0.6005 0.3584 0.68821 0.0
C671 C 0.58073 0.29998 0.72837 0.0
C672 C 0.60061 0.30425 0.72462 0.0
C673 C 0.57536 0.3146 0.72576 0.0
C674 C 0.59007 0.35983 0.69772 0.0
H675 H 0.54752 0.42056 0.71379 0.0
H676 H 0.56138 0.39996 0.72501 0.0
H677 H 0.588 0.38058 0.67909 0.0
H678 H 0.63067 0.32749 0.71589 0.0
H679 H 0.62128 0.35311 0.71139 0.0
H680 H 0.56432 0.34251 0.73972 0.0
C681 C 0.557 0.39892 0.71013 0.0
C682 C 0.5827 0.37235 0.69236 0.0
C683 C 0.54918 0.41079 0.70369 0.0
C684 C 0.6152 0.3237 0.71883 0.0
C685 C 0.6098 0.33834 0.71616 0.0
C686 C 0.56962 0.35078 0.72647 0.0
C687 C 0.55963 0.38627 0.69736 0.0
C688 C 0.56847 0.37403 0.70385 0.0
C689 C 0.58973 0.33385 0.7193 0.0
C690 C 0.58337 0.34864 0.71468 0.0
H691 H 0.54221 0.39648 0.65673 0.0
H692 H 0.55539 0.3756 0.66801 0.0
H693 H 0.5513 0.36432 0.73027 0.0
H694 H 0.56912 0.28515 0.73288 0.0
H695 H 0.55972 0.31056 0.72811 0.0
C696 C 0.14454 0.55495 0.863 0.0
C697 C 0.1374 0.53535 0.85601 0.0
C698 C 0.16276 0.56509 0.87323 0.0
C699 C 0.20038 0.55863 0.90018 0.0
H700 H 0.24036 0.60833 0.87633 0.0
C701 C 0.28547 0.58765 0.90531 0.0
C702 C 0.29959 0.60827 0.90405 0.0
C703 C 0.26472 0.58052 0.90387 0.0
C704 C 0.22936 0.59477 0.88356 0.0
H705 H 0.14364 0.51085 0.8552 0.0
H706 H 0.17486 0.52826 0.87357 0.0
H707 H 0.20502 0.59228 0.86634 0.0
H708 H 0.30293 0.63773 0.90133 0.0
H709 H 0.26652 0.62531 0.89928 0.0
H710 H 0.22463 0.5609 0.91727 0.0
C711 C 0.16635 0.53577 0.87104 0.0
C712 C 0.20908 0.58555 0.87777 0.0
C713 C 0.14835 0.52576 0.86055 0.0
C714 C 0.29242 0.62173 0.90223 0.0
C715 C 0.27156 0.61458 0.90094 0.0
C716 C 0.22059 0.56799 0.90619 0.0
C717 C 0.174 0.5557 0.87703 0.0
C718 C 0.19455 0.56707 0.88558 0.0
C719 C 0.25746 0.59383 0.90132 0.0
C720 C 0.23549 0.58581 0.89746 0.0
H721 H 0.13632 0.56269 0.8602 0.0
H722 H 0.16826 0.5804 0.87786 0.0
H723 H 0.18939 0.5445 0.90659 0.0
H724 H 0.29045 0.57684 0.90669 0.0
H725 H 0.25446 0.56444 0.9039 0.0
C726 C 0.60393 0.16602 0.01724 0.0
C727 C 0.60813 0.15148 0.02429 0.0
C728 C 0.61322 0.18527 0.02532 0.0
C729 C 0.66088 0.2199 0.04827 0.0
H730 H 0.63748 0.25375 0.05595 0.0
C731 C 0.71179 0.30206 0.06993 0.0
C732 C 0.7082 0.31626 0.06116 0.0
C733 C 0.69745 0.28164 0.06877 0.0
C734 C 0.64428 0.24455 0.05371 0.0
H735 H 0.62387 0.14521 0.04652 0.0
H736 H 0.64027 0.17887 0.06045 0.0
H737 H 0.61541 0.21813 0.04826 0.0
H738 H 0.68653 0.32039 0.04487 0.0
H739 H 0.66175 0.28457 0.04203 0.0
H740 H 0.68973 0.24612 0.05262 0.0
C741 C 0.63001 0.17544 0.04849 0.0
C742 C 0.63161 0.22414 0.04942 0.0
C743 C 0.62064 0.15618 0.0405 0.0
C744 C 0.68965 0.30972 0.05179 0.0
C745 C 0.67541 0.28918 0.05027 0.0
C746 C 0.67352 0.24025 0.05229 0.0
C747 C 0.62696 0.19037 0.04056 0.0
C748 C 0.63983 0.21164 0.0466 0.0
C749 C 0.67935 0.27484 0.05839 0.0
C750 C 0.66546 0.25292 0.05502 0.0
H751 H 0.59454 0.16301 0.00466 0.0
H752 H 0.61067 0.1965 0.01883 0.0
H753 H 0.66773 0.21076 0.04573 0.0
H754 H 0.72584 0.30672 0.07753 0.0
H755 H 0.70079 0.27117 0.07575 0.0
C756 C 0.48252 0.63165 0.19764 0.0
C757 C 0.47306 0.61521 0.185 0.0
C758 C 0.47151 0.63966 0.20602 0.0
C759 C 0.42698 0.64431 0.19611 0.0
H760 H 0.43858 0.66929 0.24635 0.0
C761 C 0.39234 0.69198 0.22071 0.0
C762 C 0.40646 0.71077 0.2285 0.0
C763 C 0.39739 0.67702 0.21838 0.0
C764 C 0.43517 0.66239 0.23228 0.0
H765 H 0.44433 0.59372 0.17198 0.0
H766 H 0.42504 0.60747 0.1869 0.0
H767 H 0.45304 0.6486 0.23708 0.0
H768 H 0.43658 0.72823 0.24079 0.0
H769 H 0.44539 0.70231 0.23662 0.0
H770 H 0.40968 0.6586 0.19103 0.0
C771 C 0.44106 0.61432 0.19013 0.0
C772 C 0.44346 0.65055 0.22697 0.0
C773 C 0.45208 0.6063 0.18175 0.0
C774 C 0.42535 0.71394 0.2347 0.0
C775 C 0.43036 0.699 0.23243 0.0
C776 C 0.41869 0.65614 0.20141 0.0
C777 C 0.45076 0.63143 0.20195 0.0
C778 C 0.43985 0.64176 0.20865 0.0
C779 C 0.41662 0.68051 0.22388 0.0
C780 C 0.42309 0.66572 0.21938 0.0
H781 H 0.49862 0.63872 0.2006 0.0
H782 H 0.47952 0.65293 0.21494 0.0
H783 H 0.4241 0.63802 0.18179 0.0
H784 H 0.37763 0.68904 0.21585 0.0
H785 H 0.38638 0.66284 0.21195 0.0
C786 C 0.85501 0.449 0.36099 0.0
C787 C 0.86982 0.46946 0.35993 0.0
C788 C 0.83609 0.44295 0.36922 0.0
C789 C 0.80206 0.4628 0.37814 0.0
H790 H 0.76971 0.41288 0.40545 0.0
C791 C 0.7224 0.43999 0.40464 0.0
C792 C 0.70705 0.42023 0.40048 0.0
C793 C 0.74279 0.44565 0.40288 0.0
C794 C 0.77856 0.42682 0.39777 0.0
H795 H 0.87696 0.4995 0.36779 0.0
H796 H 0.84407 0.48896 0.38249 0.0
H797 H 0.80494 0.42378 0.39717 0.0
H798 H 0.70107 0.39066 0.39209 0.0
H799 H 0.73685 0.40065 0.38877 0.0
H800 H 0.77575 0.46576 0.37842 0.0
C801 C 0.84686 0.4776 0.37652 0.0
C802 C 0.79872 0.43307 0.39303 0.0
C803 C 0.86572 0.48366 0.36818 0.0
C804 C 0.71256 0.406 0.39537 0.0
C805 C 0.73305 0.41171 0.39355 0.0
C806 C 0.78201 0.45661 0.38292 0.0
C807 C 0.83161 0.45722 0.37665 0.0
C808 C 0.81066 0.45108 0.38303 0.0
C809 C 0.74837 0.43173 0.39683 0.0
C810 C 0.76997 0.4385 0.39268 0.0
H811 H 0.85765 0.43772 0.35455 0.0
H812 H 0.82466 0.42716 0.36888 0.0
H813 H 0.81061 0.4765 0.37004 0.0
H814 H 0.71868 0.45127 0.40884 0.0
H815 H 0.75423 0.46108 0.4059 0.0
C816 C 0.13349 0.59601 0.38899 0.0
C817 C 0.12311 0.60663 0.38743 0.0
C818 C 0.14656 0.59954 0.40435 0.0
C819 C 0.15961 0.62132 0.45313 0.0
H820 H 0.21094 0.62431 0.44253 0.0
C821 C 0.22329 0.64839 0.50959 0.0
C822 C 0.23298 0.6371 0.51126 0.0
C823 C 0.21013 0.64505 0.49434 0.0
C824 C 0.1966 0.62334 0.44575 0.0
H825 H 0.11788 0.62891 0.4011 0.0
H826 H 0.14101 0.63537 0.42773 0.0
H827 H 0.18703 0.61732 0.41652 0.0
H828 H 0.23671 0.61369 0.49798 0.0
H829 H 0.21373 0.60787 0.47141 0.0
H830 H 0.16926 0.62743 0.48236 0.0
C831 C 0.13891 0.62417 0.41715 0.0
C832 C 0.18287 0.61929 0.43086 0.0
C833 C 0.12581 0.62061 0.40179 0.0
C834 C 0.22951 0.62267 0.49713 0.0
C835 C 0.21641 0.61938 0.48185 0.0
C836 C 0.17337 0.62542 0.46802 0.0
C837 C 0.1496 0.61382 0.4185 0.0
C838 C 0.16418 0.61817 0.43438 0.0
C839 C 0.20644 0.63041 0.48038 0.0
C840 C 0.19199 0.62642 0.4645 0.0
H841 H 0.13196 0.58531 0.37808 0.0
H842 H 0.15434 0.59111 0.4051 0.0
H843 H 0.14524 0.62029 0.45637 0.0
H844 H 0.22564 0.65966 0.52019 0.0
H845 H 0.20289 0.65398 0.49345 0.0
C846 C 0.56503 0.12511 0.55467 0.0
C847 C 0.5484 0.12257 0.54384 0.0
C848 C 0.57102 0.13699 0.57121 0.0
C849 C 0.56656 0.17775 0.5947 0.0
H850 H 0.58962 0.16508 0.63801 0.0
C851 C 0.58839 0.22226 0.66631 0.0
C852 C 0.60773 0.22779 0.67344 0.0
C853 C 0.58028 0.20907 0.65075 0.0
C854 C 0.58328 0.16882 0.62597 0.0
H855 H 0.52479 0.13031 0.54225 0.0
H856 H 0.53464 0.15019 0.57149 0.0
H857 H 0.57628 0.14188 0.61095 0.0
H858 H 0.63374 0.22385 0.66979 0.0
H859 H 0.61947 0.2007 0.64279 0.0
H860 H 0.57338 0.2046 0.60996 0.0
C861 C 0.54339 0.14341 0.56695 0.0
C862 C 0.5757 0.15558 0.61043 0.0
C863 C 0.53753 0.13171 0.55031 0.0
C864 C 0.61882 0.21994 0.66463 0.0
C865 C 0.61061 0.20657 0.64926 0.0
C866 C 0.57393 0.19086 0.61035 0.0
C867 C 0.56039 0.14646 0.57746 0.0
C868 C 0.56745 0.15998 0.59449 0.0
C869 C 0.59125 0.20096 0.64222 0.0
C870 C 0.58258 0.18664 0.62602 0.0
H871 H 0.57359 0.11808 0.55029 0.0
H872 H 0.58432 0.13914 0.5788 0.0
H873 H 0.56065 0.18183 0.58256 0.0
H874 H 0.57947 0.22806 0.67278 0.0
H875 H 0.56528 0.20491 0.64562 0.0
C876 C 0.41989 0.5577 0.72315 0.0
C877 C 0.40784 0.53672 0.72141 0.0
C878 C 0.41649 0.56789 0.73794 0.0
C879 C 0.37696 0.56312 0.77124 0.0
H880 H 0.42205 0.60565 0.79939 0.0
C881 C 0.366 0.5971 0.84074 0.0
C882 C 0.37881 0.61775 0.84416 0.0
C883 C 0.36921 0.58782 0.82501 0.0
C884 C 0.4093 0.59403 0.79148 0.0
H885 H 0.38309 0.50996 0.73421 0.0
H886 H 0.37708 0.5278 0.75998 0.0
H887 H 0.42862 0.58805 0.77382 0.0
H888 H 0.40469 0.64498 0.83333 0.0
H889 H 0.41009 0.6288 0.80566 0.0
H890 H 0.35762 0.56909 0.78884 0.0
C891 C 0.389 0.53636 0.74972 0.0
C892 C 0.41307 0.5839 0.77687 0.0
C893 C 0.39245 0.52615 0.73497 0.0
C894 C 0.39458 0.62902 0.83117 0.0
C895 C 0.39777 0.61973 0.81538 0.0
C896 C 0.37318 0.5733 0.78579 0.0
C897 C 0.40091 0.55736 0.75129 0.0
C898 C 0.39693 0.56826 0.76668 0.0
C899 C 0.38527 0.59897 0.81226 0.0
C900 C 0.38931 0.58879 0.79617 0.0
H901 H 0.43163 0.56636 0.71276 0.0
H902 H 0.42575 0.5841 0.73864 0.0
H903 H 0.36422 0.55136 0.76342 0.0
H904 H 0.35372 0.58794 0.85046 0.0
H905 H 0.35944 0.57177 0.82319 0.0
C906 C 0.88164 0.42935 0.8858 0.0
C907 C 0.89273 0.44962 0.88036 0.0
C908 C 0.86911 0.42351 0.90192 0.0
C909 C 0.85823 0.44334 0.94621 0.0
H910 H 0.80618 0.39401 0.9431 0.0
C911 C 0.79461 0.42241 0.00172 0.0
C912 C 0.78508 0.40272 0.00882 0.0
C913 C 0.80775 0.4279 0.98606 0.0
C914 C 0.82073 0.40773 0.94422 0.0
H915 H 0.89973 0.47972 0.88804 0.0
H916 H 0.87736 0.46948 0.91572 0.0
H917 H 0.82951 0.40416 0.91606 0.0
H918 H 0.78154 0.37324 0.00474 0.0
H919 H 0.80433 0.38283 0.97724 0.0
H920 H 0.84916 0.44705 0.97426 0.0
C921 C 0.87857 0.45809 0.9077 0.0
C922 C 0.83416 0.41353 0.92877 0.0
C923 C 0.89122 0.46395 0.89165 0.0
C924 C 0.78864 0.38853 -0.00036 0.0
C925 C 0.80163 0.39399 0.98385 0.0
C926 C 0.84472 0.43762 0.96159 0.0
C927 C 0.86721 0.43777 0.91295 0.0
C928 C 0.85309 0.43142 0.92956 0.0
C929 C 0.81149 0.41378 0.97705 0.0
C930 C 0.82582 0.41978 0.96073 0.0
H931 H 0.88219 0.41785 0.87734 0.0
H932 H 0.86085 0.40778 0.90569 0.0
H933 H 0.8728 0.45702 0.94748 0.0
H934 H 0.79223 0.43372 0.00846 0.0
H935 H 0.81496 0.44321 0.98097 0.0
C936 C 0.48121 0.90282 0.06542 0.0
C937 C 0.49203 0.89874 0.05159 0.0
C938 C 0.47234 0.89001 0.08099 0.0
C939 C 0.44392 0.85405 0.10475 0.0
H940 H 0.46897 0.82663 0.12831 0.0
C941 C 0.39995 0.78936 0.15773 0.0
C942 C 0.41055 0.78843 0.17371 0.0
C943 C 0.41032 0.80254 0.14276 0.0
C944 C 0.46182 0.83428 0.12203 0.0
H945 H 0.50216 0.87818 0.04319 0.0
H946 H 0.48637 0.8556 0.07007 0.0
H947 H 0.48711 0.85136 0.10354 0.0
H948 H 0.44041 0.80047 0.1864 0.0
H949 H 0.4584 0.82379 0.16059 0.0
H950 H 0.41895 0.83753 0.1237 0.0
C951 C 0.48511 0.86892 0.06925 0.0
C952 C 0.47214 0.84831 0.10763 0.0
C953 C 0.49415 0.88184 0.0538 0.0
C954 C 0.43178 0.80072 0.17424 0.0
C955 C 0.44213 0.81405 0.15937 0.0
C956 C 0.43369 0.84017 0.11926 0.0
C957 C 0.47389 0.87271 0.08293 0.0
C958 C 0.46328 0.8583 0.09874 0.0
C959 C 0.43152 0.81526 0.14351 0.0
C960 C 0.44246 0.83003 0.12803 0.0
H961 H 0.47953 0.91587 0.06414 0.0
H962 H 0.46419 0.89364 0.09146 0.0
H963 H 0.43647 0.86121 0.09807 0.0
H964 H 0.38359 0.77998 0.15683 0.0
H965 H 0.40169 0.80276 0.13059 0.0
C966 C 0.57683 0.4756 0.23458 0.0
C967 C 0.58413 0.47586 0.21603 0.0
C968 C 0.58405 0.46976 0.25015 0.0
C969 C 0.60556 0.43825 0.26147 0.0
H970 H 0.61758 0.46512 0.31081 0.0
C971 C 0.61018 0.40163 0.33168 0.0
C972 C 0.62607 0.41368 0.34435 0.0
C973 C 0.60677 0.40998 0.31543 0.0
C974 C 0.61443 0.45756 0.29707 0.0
H975 H 0.60498 0.4706 0.19931 0.0
H976 H 0.61762 0.46047 0.22654 0.0
H977 H 0.6091 0.47935 0.28367 0.0
H978 H 0.65105 0.4439 0.34967 0.0
H979 H 0.64497 0.45841 0.32137 0.0
H980 H 0.61064 0.41633 0.2749 0.0
C981 C 0.60629 0.46473 0.229 0.0
C982 C 0.60943 0.46561 0.2816 0.0
C983 C 0.5992 0.47072 0.21346 0.0
C984 C 0.63867 0.43418 0.34023 0.0
C985 C 0.63513 0.44254 0.32409 0.0
C986 C 0.61037 0.4301 0.27697 0.0
C987 C 0.59857 0.4639 0.24746 0.0
C988 C 0.60484 0.45598 0.26367 0.0
C989 C 0.61906 0.43056 0.31161 0.0
C990 C 0.61474 0.43961 0.29495 0.0
H991 H 0.56531 0.4796 0.23698 0.0
H992 H 0.57774 0.46916 0.26421 0.0
H993 H 0.6019 0.43039 0.24785 0.0
H994 H 0.60022 0.38579 0.33441 0.0
H995 H 0.59417 0.40042 0.30613 0.0
C996 C 0.39633 0.89344 0.3787 0.0
C997 C 0.41059 0.8967 0.39301 0.0
C998 C 0.39289 0.88017 0.36357 0.0
C999 C 0.39866 0.83694 0.35045 0.0
H1000 H 0.39104 0.84964 0.29865 0.0
C1001 C 0.39804 0.79111 0.28458 0.0
C1002 C 0.38393 0.78753 0.27 0.0
C1003 C 0.40048 0.80385 0.29991 0.0
C1004 C 0.39288 0.84577 0.31308 0.0
H1005 H 0.43249 0.88859 0.40257 0.0
H1006 H 0.42686 0.86586 0.37595 0.0
H1007 H 0.39737 0.87351 0.32446 0.0
H1008 H 0.36097 0.79416 0.26039 0.0
H1009 H 0.36515 0.81625 0.28721 0.0
H1010 H 0.3943 0.80926 0.33903 0.0
C1011 C 0.41813 0.87336 0.37656 0.0
C1012 C 0.39653 0.85945 0.32787 0.0
C1013 C 0.42157 0.88662 0.39167 0.0
C1014 C 0.37202 0.79664 0.27132 0.0
C1015 C 0.3745 0.80941 0.28663 0.0
C1016 C 0.39505 0.82328 0.33566 0.0
C1017 C 0.40362 0.86984 0.36243 0.0
C1018 C 0.39954 0.85523 0.34671 0.0
C1019 C 0.3889 0.81331 0.30099 0.0
C1020 C 0.39219 0.82757 0.3168 0.0
H1021 H 0.38775 0.90111 0.37923 0.0
H1022 H 0.3815 0.87768 0.35299 0.0
H1023 H 0.40054 0.83307 0.36486 0.0
H1024 H 0.40748 0.78436 0.284 0.0
H1025 H 0.41183 0.80669 0.31065 0.0
C1026 C 0.54092 0.4332 0.56456 0.0
C1027 C 0.55186 0.45289 0.57188 0.0
C1028 C 0.54774 0.4277 0.54834 0.0
C1029 C 0.59424 0.44085 0.52233 0.0
H1030 H 0.55815 0.40888 0.48118 0.0
C1031 C 0.62414 0.4239 0.4532 0.0
C1032 C 0.61235 0.405 0.44449 0.0
C1033 C 0.61655 0.42964 0.46864 0.0
C1034 C 0.56838 0.41756 0.49268 0.0
H1035 H 0.57816 0.48242 0.56736 0.0
H1036 H 0.59027 0.47265 0.53924 0.0
H1037 H 0.54498 0.41947 0.50787 0.0
H1038 H 0.58347 0.37712 0.44544 0.0
H1039 H 0.57042 0.38691 0.47278 0.0
H1040 H 0.61754 0.43863 0.50752 0.0
C1041 C 0.57647 0.46149 0.5462 0.0
C1042 C 0.56084 0.4237 0.5079 0.0
C1043 C 0.56955 0.46705 0.56232 0.0
C1044 C 0.5929 0.39182 0.45178 0.0
C1045 C 0.58537 0.39751 0.46737 0.0
C1046 C 0.60174 0.43456 0.50723 0.0
C1047 C 0.56575 0.4417 0.53919 0.0
C1048 C 0.57372 0.43546 0.52284 0.0
C1049 C 0.59705 0.41655 0.4759 0.0
C1050 C 0.58892 0.42289 0.49217 0.0
H1051 H 0.52744 0.42178 0.57172 0.0
H1052 H 0.53929 0.41229 0.54336 0.0
H1053 H 0.60443 0.44963 0.53383 0.0
H1054 H 0.63913 0.43449 0.44785 0.0
H1055 H 0.62585 0.44454 0.47462 0.0
C1056 C 0.12751 0.52178 0.7158 0.0
C1057 C 0.12366 0.53256 0.72984 0.0
C1058 C 0.14132 0.53183 0.70104 0.0
C1059 C 0.18474 0.58164 0.68844 0.0
H1060 H 0.17342 0.56018 0.63675 0.0
C1061 C 0.23168 0.6264 0.62266 0.0
C1062 C 0.23589 0.61587 0.60863 0.0
C1063 C 0.21875 0.61621 0.63795 0.0
C1064 C 0.17691 0.56624 0.65116 0.0
H1065 H 0.13134 0.56239 0.73931 0.0
H1066 H 0.15491 0.57984 0.71328 0.0
H1067 H 0.14889 0.54241 0.66209 0.0
H1068 H 0.23024 0.58641 0.60004 0.0
H1069 H 0.2078 0.56873 0.62675 0.0
H1070 H 0.21269 0.60559 0.6774 0.0
C1071 C 0.14749 0.56363 0.71384 0.0
C1072 C 0.16285 0.55606 0.66569 0.0
C1073 C 0.13373 0.55359 0.72861 0.0
C1074 C 0.22728 0.595 0.61053 0.0
C1075 C 0.2143 0.58483 0.62577 0.0
C1076 C 0.19877 0.59186 0.67389 0.0
C1077 C 0.15157 0.55289 0.69995 0.0
C1078 C 0.16658 0.56365 0.6845 0.0
C1079 C 0.20969 0.59527 0.63951 0.0
C1080 C 0.195 0.58428 0.65508 0.0
H1081 H 0.11988 0.50556 0.71623 0.0
H1082 H 0.14422 0.5231 0.69067 0.0
H1083 H 0.18826 0.58773 0.70283 0.0
H1084 H 0.23805 0.64247 0.62163 0.0
H1085 H 0.21537 0.62466 0.64824 0.0
C1086 C 0.61736 0.15269 0.90188 0.0
C1087 C 0.60134 0.13269 0.90187 0.0
C1088 C 0.62011 0.16523 0.88647 0.0
C1089 C 0.59332 0.17034 0.84465 0.0
H1090 H 0.64797 0.20867 0.82817 0.0
C1091 C 0.63714 0.22516 0.77646 0.0
C1092 C 0.62438 0.23302 0.77309 0.0
C1093 C 0.63442 0.21352 0.7926 0.0
C1094 C 0.63259 0.19795 0.83247 0.0
H1095 H 0.57579 0.11001 0.88565 0.0
H1096 H 0.58084 0.13176 0.85845 0.0
H1097 H 0.64292 0.18646 0.85473 0.0
H1098 H 0.59904 0.2352 0.78429 0.0
H1099 H 0.59463 0.21528 0.81278 0.0
H1100 H 0.583 0.18132 0.82187 0.0
C1101 C 0.59102 0.13792 0.87056 0.0
C1102 C 0.6297 0.18538 0.8479 0.0
C1103 C 0.58817 0.12542 0.88608 0.0
C1104 C 0.60907 0.22928 0.78643 0.0
C1105 C 0.60645 0.21774 0.80269 0.0
C1106 C 0.59622 0.18283 0.82912 0.0
C1107 C 0.607 0.158 0.8706 0.0
C1108 C 0.61003 0.17139 0.85417 0.0
C1109 C 0.61901 0.2096 0.80589 0.0
C1110 C 0.61589 0.19675 0.8228 0.0
H1111 H 0.62753 0.1588 0.91402 0.0
H1112 H 0.63232 0.18069 0.88717 0.0
H1113 H 0.57796 0.15995 0.84925 0.0
H1114 H 0.649 0.22763 0.76643 0.0
H1115 H 0.64416 0.20723 0.79441 0.0
C1116 C 0.49177 0.62253 0.05388 0.0
C1117 C 0.48308 0.60296 0.06119 0.0
C1118 C 0.48268 0.62664 0.03859 0.0
C1119 C 0.43303 0.60847 0.01695 0.0
H1120 H 0.46281 0.64081 0.97329 0.0
C1121 C 0.39224 0.61702 0.95176 0.0
C1122 C 0.40142 0.63546 0.94213 0.0
C1123 C 0.40254 0.61354 0.96631 0.0
C1124 C 0.45431 0.63202 0.98553 0.0
H1125 H 0.45868 0.57217 0.05735 0.0
H1126 H 0.44264 0.57948 0.03098 0.0
H1127 H 0.4807 0.63367 -0.0019 0.0
H1128 H 0.42846 0.66493 0.94056 0.0
H1129 H 0.44621 0.65908 0.96639 0.0
H1130 H 0.40674 0.60712 0.0048 0.0
C1131 C 0.45635 0.59164 0.03726 0.0
C1132 C 0.46456 0.62786 -0.00033 0.0
C1133 C 0.46552 0.58749 0.05238 0.0
C1134 C 0.421 0.65051 0.94765 0.0
C1135 C 0.43124 0.6471 0.96236 0.0
C1136 C 0.42283 0.61281 0.00297 0.0
C1137 C 0.46465 0.61131 0.03043 0.0
C1138 C 0.45397 0.61591 0.01542 0.0
C1139 C 0.42221 0.62849 0.97176 0.0
C1140 C 0.43329 0.62451 0.98699 0.0
H1141 H 0.50513 0.63485 0.06044 0.0
H1142 H 0.48932 0.64196 0.03366 0.0
H1143 H 0.42456 0.59951 0.02914 0.0
H1144 H 0.37724 0.60503 0.94776 0.0
H1145 H 0.39522 0.5989 0.97297 0.0
C1146 C 0.88259 0.47535 0.23184 0.0
C1147 C 0.89314 0.46554 0.23701 0.0
C1148 C 0.86984 0.46904 0.21586 0.0
C1149 C 0.85753 0.43826 0.17146 0.0
H1150 H 0.80642 0.4374 0.17517 0.0
C1151 C 0.79312 0.39689 0.11658 0.0
C1152 C 0.78424 0.40762 0.10939 0.0
C1153 C 0.80629 0.40421 0.13222 0.0
C1154 C 0.82071 0.43771 0.17389 0.0
H1155 H 0.89896 0.44173 0.22901 0.0
H1156 H 0.87622 0.43028 0.2016 0.0
H1157 H 0.83009 0.45 0.20201 0.0
H1158 H 0.78179 0.4342 0.11337 0.0
H1159 H 0.80465 0.44686 0.14088 0.0
H1160 H 0.84786 0.42554 0.14347 0.0
C1161 C 0.87802 0.44307 0.20971 0.0
C1162 C 0.83433 0.445 0.18922 0.0
C1163 C 0.89088 0.44947 0.22561 0.0
C1164 C 0.7884 0.42558 0.11853 0.0
C1165 C 0.80142 0.4328 0.13432 0.0
C1166 C 0.84383 0.4308 0.15622 0.0
C1167 C 0.8672 0.45267 0.20472 0.0
C1168 C 0.85291 0.44534 0.18822 0.0
C1169 C 0.81071 0.42232 0.14115 0.0
C1170 C 0.82526 0.4304 0.1573 0.0
H1171 H 0.88374 0.48762 0.2404 0.0
H1172 H 0.86201 0.47699 0.21228 0.0
H1173 H 0.87183 0.43863 0.17003 0.0
H1174 H 0.79026 0.38301 0.10988 0.0
H1175 H 0.81304 0.3957 0.13734 0.0
loop_
_geom_bond_atom_site_label_1
_geom_bond_atom_site_label_2
_geom_bond_distance
_geom_bond_site_symmetry_2
_ccdc_geom_bond_type
H0 C27 0.929 . S
N1 C26 1.433 . S
N1 C32 1.435 . S
N1 C38 1.423 . S
H2 C28 0.930 . S
H3 C31 0.931 . S
H4 C30 0.929 . S
H5 C33 0.930 . S
H6 C34 0.932 . S
H7 C37 0.929 . S
H8 C36 0.931 . S
H9 C39 0.929 . S
H10 C43 0.932 . S
H11 C40 0.931 . S
H12 C42 0.929 . S
H13 C45 0.929 . S
H14 C46 0.930 . S
H15 C48 0.929 . S
H16 C49 0.931 . S
H17 C51 0.930 . S
H18 C52 0.932 . S
H19 C54 0.931 . S
H20 C55 0.929 . S
H21 C57 0.929 . S
H22 C58 0.931 . S
H23 C60 0.929 . S
N24 C44 1.433 . S
N24 C50 1.435 . S
N24 C56 1.423 . S
H25 C61 0.932 . S
C26 N1 1.433 . S
C26 C27 1.363 . S
C26 C31 1.370 . S
C27 H0 0.929 . S
C27 C26 1.363 . S
C27 C28 1.385 . S
C28 H2 0.930 . S
C28 C27 1.385 . S
C28 C29 1.357 . S
C29 C28 1.357 . S
C29 C30 1.406 . S
C30 H4 0.929 . S
C30 C29 1.406 . S
C30 C31 1.391 . S
C31 H3 0.931 . S
C31 C26 1.370 . S
C31 C30 1.391 . S
C32 N1 1.435 . S
C32 C33 1.358 . S
C32 C37 1.371 . S
C33 H5 0.930 . S
C33 C32 1.358 . S
C33 C34 1.405 . S
C34 H6 0.932 . S
C34 C33 1.405 . S
C34 C35 1.383 . S
C35 C34 1.383 . S
C35 C36 1.393 . S
C36 H8 0.931 . S
C36 C35 1.393 . S
C36 C37 1.382 . S
C37 H7 0.929 . S
C37 C32 1.371 . S
C37 C36 1.382 . S
C38 N1 1.423 . S
C38 C39 1.362 . S
C38 C43 1.388 . S
C39 H9 0.929 . S
C39 C38 1.362 . S
C39 C40 1.376 . S
C40 H11 0.931 . S
C40 C39 1.376 . S
C40 C41 1.396 . S
C41 C40 1.396 . S
C41 C42 1.348 . S
C41 C59 1.472 1_455 S
C42 H12 0.929 . S
C42 C41 1.348 . S
C42 C43 1.443 . S
C43 H10 0.932 . S
C43 C38 1.388 . S
C43 C42 1.443 . S
C44 N24 1.433 . S
C44 C45 1.363 . S
C44 C49 1.370 . S
C45 H13 0.929 . S
C45 C44 1.363 . S
C45 C46 1.385 . S
C46 H14 0.930 . S
C46 C45 1.385 . S
C46 C47 1.357 . S
C47 C46 1.357 . S
C47 C48 1.406 . S
C48 H15 0.929 . S
C48 C47 1.406 . S
C48 C49 1.391 . S
C49 H16 0.931 . S
C49 C44 1.370 . S
C49 C48 1.391 . S
C50 N24 1.435 . S
C50 C51 1.358 . S
C50 C55 1.371 . S
C51 H17 0.930 . S
C51 C50 1.358 . S
C51 C52 1.405 . S
C52 H18 0.932 . S
C52 C51 1.405 . S
C52 C53 1.383 . S
C53 C52 1.383 . S
C53 C54 1.393 . S
C54 H19 0.931 . S
C54 C53 1.393 . S
C54 C55 1.382 . S
C55 H20 0.929 . S
C55 C50 1.371 . S
C55 C54 1.382 . S
C56 N24 1.423 . S
C56 C57 1.362 . S
C56 C61 1.388 . S
C57 H21 0.929 . S
C57 C56 1.362 . S
C57 C58 1.376 . S
C58 H22 0.931 . S
C58 C57 1.376 . S
C58 C59 1.396 . S
C59 C41 1.472 1_655 S
C59 C58 1.396 . S
C59 C60 1.348 . S
C60 H23 0.929 . S
C60 C59 1.348 . S
C60 C61 1.443 . S
C61 H25 0.932 . S
C61 C56 1.388 . S
C61 C60 1.443 . S
H62 C89 0.929 . S
N63 C88 1.433 . S
N63 C94 1.435 . S
N63 C100 1.423 . S
H64 C90 0.930 . S
H65 C93 0.931 . S
H66 C92 0.929 . S
H67 C95 0.930 . S
H68 C96 0.932 . S
H69 C99 0.929 . S
H70 C98 0.931 . S
H71 C101 0.929 . S
H72 C105 0.932 . S
H73 C102 0.931 . S
H74 C104 0.929 1_545 S
H75 C107 0.929 . S
H76 C108 0.930 . S
H77 C110 0.929 . S
H78 C111 0.931 . S
H79 C113 0.930 . S
H80 C114 0.932 . S
H81 C116 0.931 . S
H82 C117 0.929 . S
H83 C119 0.929 . S
H84 C120 0.931 . S
H85 C122 0.929 . S
N86 C106 1.433 . S
N86 C112 1.435 . S
N86 C118 1.423 . S
H87 C123 0.932 . S
C88 N63 1.433 . S
C88 C89 1.363 . S
C88 C93 1.370 . S
C89 H62 0.929 . S
C89 C88 1.363 . S
C89 C90 1.385 . S
C90 H64 0.930 . S
C90 C89 1.385 . S
C90 C91 1.357 . S
C91 C90 1.357 . S
C91 C92 1.406 . S
C92 H66 0.929 . S
C92 C91 1.406 . S
C92 C93 1.391 . S
C93 H65 0.931 . S
C93 C88 1.370 . S
C93 C92 1.391 . S
C94 N63 1.435 . S
C94 C95 1.358 . S
C94 C99 1.371 . S
C95 H67 0.930 . S
C95 C94 1.358 . S
C95 C96 1.405 . S
C96 H68 0.932 . S
C96 C95 1.405 . S
C96 C97 1.383 . S
C97 C96 1.383 . S
C97 C98 1.393 . S
C98 H70 0.931 . S
C98 C97 1.393 . S
C98 C99 1.382 . S
C99 H69 0.929 . S
C99 C94 1.371 . S
C99 C98 1.382 . S
C100 N63 1.423 . S
C100 C101 1.362 . S
C100 C105 1.388 . S
C101 H71 0.929 . S
C101 C100 1.362 . S
C101 C102 1.376 . S
C102 H73 0.931 . S
C102 C101 1.376 . S
C102 C103 1.396 1_565 S
C103 C102 1.396 1_545 S
C103 C104 1.348 1_545 S
C103 C121 1.472 . S
C104 H74 0.929 1_565 S
C104 C103 1.348 1_565 S
C104 C105 1.443 . S
C105 H72 0.932 . S
C105 C100 1.388 . S
C105 C104 1.443 . S
C106 N86 1.433 . S
C106 C107 1.363 . S
C106 C111 1.370 . S
C107 H75 0.929 . S
C107 C106 1.363 . S
C107 C108 1.385 . S
C108 H76 0.930 . S
C108 C107 1.385 . S
C108 C109 1.357 . S
C109 C108 1.357 . S
C109 C110 1.406 . S
C110 H77 0.929 . S
C110 C109 1.406 . S
C110 C111 1.391 . S
C111 H78 0.931 . S
C111 C106 1.370 . S
C111 C110 1.391 . S
C112 N86 1.435 . S
C112 C113 1.358 . S
C112 C117 1.371 . S
C113 H79 0.930 . S
C113 C112 1.358 . S
C113 C114 1.405 . S
C114 H80 0.932 . S
C114 C113 1.405 . S
C114 C115 1.383 . S
C115 C114 1.383 . S
C115 C116 1.393 . S
C116 H81 0.931 . S
C116 C115 1.393 . S
C116 C117 1.382 . S
C117 H82 0.929 . S
C117 C112 1.371 . S
C117 C116 1.382 . S
C118 N86 1.423 . S
C118 C119 1.362 . S
C118 C123 1.388 . S
C119 H83 0.929 . S
C119 C118 1.362 . S
C119 C120 1.376 . S
C120 H84 0.931 . S
C120 C119 1.376 . S
C120 C121 1.396 . S
C121 C103 1.472 . S
C121 C120 1.396 . S
C121 C122 1.348 . S
C122 H85 0.929 . S
C122 C121 1.348 . S
C122 C123 1.443 . S
C123 H87 0.932 . S
C123 C118 1.388 . S
C123 C122 1.443 . S
H124 C151 0.929 . S
N125 C150 1.433 . S
N125 C156 1.435 . S
N125 C162 1.423 . S
H126 C152 0.930 . S
H127 C155 0.931 . S
H128 C154 0.929 . S
H129 C157 0.930 . S
H130 C158 0.932 . S
H131 C161 0.929 . S
H132 C160 0.931 . S
H133 C163 0.929 . S
H134 C167 0.932 . S
H135 C164 0.931 . S
H136 C166 0.929 . S
H137 C169 0.929 . S
H138 C170 0.930 . S
H139 C172 0.929 . S
H140 C173 0.931 . S
H141 C175 0.930 . S
H142 C176 0.932 . S
H143 C178 0.931 . S
H144 C179 0.929 . S
H145 C181 0.929 . S
H146 C182 0.931 . S
H147 C184 0.929 . S
N148 C168 1.433 . S
N148 C174 1.435 . S
N148 C180 1.423 . S
H149 C185 0.932 . S
C150 N125 1.433 . S
C150 C151 1.363 . S
C150 C155 1.370 . S
C151 H124 0.929 . S
C151 C150 1.363 . S
C151 C152 1.385 . S
C152 H126 0.930 . S
C152 C151 1.385 . S
C152 C153 1.357 . S
C153 C152 1.357 . S
C153 C154 1.406 . S
C154 H128 0.929 . S
C154 C153 1.406 . S
C154 C155 1.391 . S
C155 H127 0.931 . S
C155 C150 1.370 . S
C155 C154 1.391 . S
C156 N125 1.435 . S
C156 C157 1.358 . S
C156 C161 1.371 . S
C157 H129 0.930 . S
C157 C156 1.358 . S
C157 C158 1.405 . S
C158 H130 0.932 . S
C158 C157 1.405 . S
C158 C159 1.383 . S
C159 C158 1.383 . S
C159 C160 1.393 . S
C160 H132 0.931 . S
C160 C159 1.393 . S
C160 C161 1.382 . S
C161 H131 0.929 . S
C161 C156 1.371 . S
C161 C160 1.382 . S
C162 N125 1.423 . S
C162 C163 1.362 . S
C162 C167 1.388 . S
C163 H133 0.929 . S
C163 C162 1.362 . S
C163 C164 1.376 . S
C164 H135 0.931 . S
C164 C163 1.376 . S
C164 C165 1.396 . S
C165 C164 1.396 . S
C165 C166 1.348 . S
C165 C183 1.472 . S
C166 H136 0.929 . S
C166 C165 1.348 . S
C166 C167 1.443 . S
C167 H134 0.932 . S
C167 C162 1.388 . S
C167 C166 1.443 . S
C168 N148 1.433 . S
C168 C169 1.363 . S
C168 C173 1.370 . S
C169 H137 0.929 . S
C169 C168 1.363 . S
C169 C170 1.385 . S
C170 H138 0.930 . S
C170 C169 1.385 . S
C170 C171 1.357 . S
C171 C170 1.357 . S
C171 C172 1.406 . S
C172 H139 0.929 . S
C172 C171 1.406 . S
C172 C173 1.391 . S
C173 H140 0.931 . S
C173 C168 1.370 . S
C173 C172 1.391 . S
C174 N148 1.435 . S
C174 C175 1.358 . S
C174 C179 1.371 . S
C175 H141 0.930 . S
C175 C174 1.358 . S
C175 C176 1.405 . S
C176 H142 0.932 . S
C176 C175 1.405 . S
C176 C177 1.383 . S
C177 C176 1.383 . S
C177 C178 1.393 . S
C178 H143 0.931 . S
C178 C177 1.393 . S
C178 C179 1.382 . S
C179 H144 0.929 . S
C179 C174 1.371 . S
C179 C178 1.382 . S
C180 N148 1.423 . S
C180 C181 1.362 . S
C180 C185 1.388 . S
C181 H145 0.929 . S
C181 C180 1.362 . S
C181 C182 1.376 . S
C182 H146 0.931 . S
C182 C181 1.376 . S
C182 C183 1.396 . S
C183 C165 1.472 . S
C183 C182 1.396 . S
C183 C184 1.348 . S
C184 H147 0.929 . S
C184 C183 1.348 . S
C184 C185 1.443 . S
C185 H149 0.932 . S
C185 C180 1.388 . S
C185 C184 1.443 . S
H186 C213 0.929 . S
N187 C212 1.433 . S
N187 C218 1.435 . S
N187 C224 1.423 . S
H188 C214 0.930 . S
H189 C217 0.931 . S
H190 C216 0.929 . S
H191 C219 0.930 . S
H192 C220 0.932 . S
H193 C223 0.929 . S
H194 C222 0.931 . S
H195 C225 0.929 . S
H196 C229 0.932 . S
H197 C226 0.931 . S
H198 C228 0.929 . S
H199 C231 0.929 . S
H200 C232 0.930 . S
H201 C234 0.929 . S
H202 C235 0.931 . S
H203 C237 0.930 . S
H204 C238 0.932 . S
H205 C240 0.931 . S
H206 C241 0.929 . S
H207 C243 0.929 . S
H208 C244 0.931 . S
H209 C246 0.929 . S
N210 C230 1.433 . S
N210 C236 1.435 . S
N210 C242 1.423 . S
H211 C247 0.932 . S
C212 N187 1.433 . S
C212 C213 1.363 . S
C212 C217 1.370 . S
C213 H186 0.929 . S
C213 C212 1.363 . S
C213 C214 1.385 . S
C214 H188 0.930 . S
C214 C213 1.385 . S
C214 C215 1.357 . S
C215 C214 1.357 . S
C215 C216 1.406 . S
C216 H190 0.929 . S
C216 C215 1.406 . S
C216 C217 1.391 . S
C217 H189 0.931 . S
C217 C212 1.370 . S
C217 C216 1.391 . S
C218 N187 1.435 . S
C218 C219 1.358 . S
C218 C223 1.371 . S
C219 H191 0.930 . S
C219 C218 1.358 . S
C219 C220 1.405 . S
C220 H192 0.932 . S
C220 C219 1.405 . S
C220 C221 1.383 . S
C221 C220 1.383 . S
C221 C222 1.393 . S
C222 H194 0.931 . S
C222 C221 1.393 . S
C222 C223 1.382 . S
C223 H193 0.929 . S
C223 C218 1.371 . S
C223 C222 1.382 . S
C224 N187 1.423 . S
C224 C225 1.362 . S
C224 C229 1.388 . S
C225 H195 0.929 . S
C225 C224 1.362 . S
C225 C226 1.376 . S
C226 H197 0.931 . S
C226 C225 1.376 . S
C226 C227 1.396 . S
C227 C226 1.396 . S
C227 C228 1.348 . S
C227 C245 1.472 1_455 S
C228 H198 0.929 . S
C228 C227 1.348 . S
C228 C229 1.443 . S
C229 H196 0.932 . S
C229 C224 1.388 . S
C229 C228 1.443 . S
C230 N210 1.433 . S
C230 C231 1.363 . S
C230 C235 1.370 . S
C231 H199 0.929 . S
C231 C230 1.363 . S
C231 C232 1.385 . S
C232 H200 0.930 . S
C232 C231 1.385 . S
C232 C233 1.357 . S
C233 C232 1.357 . S
C233 C234 1.406 . S
C234 H201 0.929 . S
C234 C233 1.406 . S
C234 C235 1.391 . S
C235 H202 0.931 . S
C235 C230 1.370 . S
C235 C234 1.391 . S
C236 N210 1.435 . S
C236 C237 1.358 . S
C236 C241 1.371 . S
C237 H203 0.930 . S
C237 C236 1.358 . S
C237 C238 1.405 . S
C238 H204 0.932 . S
C238 C237 1.405 . S
C238 C239 1.383 . S
C239 C238 1.383 . S
C239 C240 1.393 . S
C240 H205 0.931 . S
C240 C239 1.393 . S
C240 C241 1.382 . S
C241 H206 0.929 . S
C241 C236 1.371 . S
C241 C240 1.382 . S
C242 N210 1.423 . S
C242 C243 1.362 . S
C242 C247 1.388 . S
C243 H207 0.929 . S
C243 C242 1.362 . S
C243 C244 1.376 . S
C244 H208 0.931 . S
C244 C243 1.376 . S
C244 C245 1.396 . S
C245 C227 1.472 1_655 S
C245 C244 1.396 . S
C245 C246 1.348 . S
C246 H209 0.929 . S
C246 C245 1.348 . S
C246 C247 1.443 . S
C247 H211 0.932 . S
C247 C242 1.388 . S
C247 C246 1.443 . S
H248 C275 0.929 . S
N249 C274 1.433 . S
N249 C280 1.435 . S
N249 C286 1.423 . S
H250 C276 0.930 . S
H251 C279 0.931 . S
H252 C278 0.929 . S
H253 C281 0.930 . S
H254 C282 0.932 . S
H255 C285 0.929 . S
H256 C284 0.931 . S
H257 C287 0.929 . S
H258 C291 0.932 . S
H259 C288 0.931 . S
H260 C290 0.929 . S
H261 C293 0.929 . S
H262 C294 0.930 . S
H263 C296 0.929 . S
H264 C297 0.931 . S
H265 C299 0.930 1_554 S
H266 C300 0.932 . S
H267 C302 0.931 . S
H268 C303 0.929 . S
H269 C305 0.929 1_554 S
H270 C306 0.921 1_545 S
H271 C308 0.929 . S
N272 C292 1.433 1_556 S
N272 C298 1.435 . S
N272 C304 1.423 . S
H273 C309 0.932 . S
C274 N249 1.433 . S
C274 C275 1.363 . S
C274 C279 1.370 . S
C275 H248 0.929 . S
C275 C274 1.363 . S
C275 C276 1.385 . S
C276 H250 0.930 . S
C276 C275 1.385 . S
C276 C277 1.357 1_556 S
C277 C276 1.357 1_554 S
C277 C278 1.406 . S
C278 H252 0.929 . S
C278 C277 1.406 . S
C278 C279 1.391 1_554 S
C279 H251 0.931 . S
C279 C274 1.370 . S
C279 C278 1.391 1_556 S
C280 N249 1.435 . S
C280 C281 1.358 . S
C280 C285 1.371 . S
C281 H253 0.930 . S
C281 C280 1.358 . S
C281 C282 1.405 . S
C282 H254 0.932 . S
C282 C281 1.405 . S
C282 C283 1.383 . S
C283 C282 1.383 . S
C283 C284 1.393 . S
C284 H256 0.931 . S
C284 C283 1.393 . S
C284 C285 1.382 . S
C285 H255 0.929 . S
C285 C280 1.371 . S
C285 C284 1.382 . S
C286 N249 1.423 . S
C286 C287 1.362 . S
C286 C291 1.388 . S
C287 H257 0.929 . S
C287 C286 1.362 . S
C287 C288 1.376 . S
C288 H259 0.931 . S
C288 C287 1.376 . S
C288 C289 1.396 . S
C289 C288 1.396 . S
C289 C290 1.348 . S
C289 C307 1.472 1_545 S
C290 H260 0.929 . S
C290 C289 1.348 . S
C290 C291 1.443 . S
C291 H258 0.932 . S
C291 C286 1.388 . S
C291 C290 1.443 . S
C292 N272 1.433 1_554 S
C292 C293 1.363 . S
C292 C297 1.370 . S
C293 H261 0.929 . S
C293 C292 1.363 . S
C293 C294 1.385 . S
C294 H262 0.930 . S
C294 C293 1.385 . S
C294 C295 1.357 . S
C295 C294 1.357 . S
C295 C296 1.406 . S
C296 H263 0.929 . S
C296 C295 1.406 . S
C296 C297 1.391 . S
C297 H264 0.931 . S
C297 C292 1.370 . S
C297 C296 1.391 . S
C298 N272 1.435 . S
C298 C299 1.358 . S
C298 C303 1.371 . S
C299 H265 0.930 1_556 S
C299 C298 1.358 . S
C299 C300 1.405 . S
C300 H266 0.932 . S
C300 C299 1.405 . S
C300 C301 1.383 . S
C301 C300 1.383 . S
C301 C302 1.393 . S
C302 H267 0.931 . S
C302 C301 1.393 . S
C302 C303 1.382 . S
C303 H268 0.929 . S
C303 C298 1.371 . S
C303 C302 1.382 . S
C304 N272 1.423 . S
C304 C305 1.362 . S
C304 C309 1.388 . S
C305 H269 0.929 1_556 S
C305 C304 1.362 . S
C305 C306 1.376 . S
C306 H270 0.921 1_565 S
C306 C305 1.376 . S
C306 C307 1.396 . S
C307 C289 1.472 1_565 S
C307 C306 1.396 . S
C307 C308 1.348 . S
C308 H271 0.929 . S
C308 C307 1.348 . S
C308 C309 1.443 . S
C309 H273 0.932 . S
C309 C304 1.388 . S
C309 C308 1.443 . S
H310 C337 0.929 . S
N311 C336 1.433 . S
N311 C342 1.435 . S
N311 C348 1.423 . S
H312 C338 0.930 . S
H313 C341 0.931 . S
H314 C340 0.929 . S
H315 C343 0.930 . S
H316 C344 0.932 . S
H317 C347 0.929 . S
H318 C346 0.931 . S
H319 C349 0.929 . S
H320 C353 0.932 . S
H321 C350 0.931 . S
H322 C352 0.929 . S
H323 C355 0.929 . S
H324 C356 0.930 . S
H325 C358 0.929 . S
H326 C359 0.931 . S
H327 C361 0.930 . S
H328 C362 0.932 . S
H329 C364 0.931 . S
H330 C365 0.929 . S
H331 C367 0.929 . S
H332 C368 0.931 . S
H333 C370 0.929 . S
N334 C354 1.433 . S
N334 C360 1.435 . S
N334 C366 1.423 . S
H335 C371 0.932 . S
C336 N311 1.433 . S
C336 C337 1.363 . S
C336 C341 1.370 . S
C337 H310 0.929 . S
C337 C336 1.363 . S
C337 C338 1.385 . S
C338 H312 0.930 . S
C338 C337 1.385 . S
C338 C339 1.357 . S
C339 C338 1.357 . S
C339 C340 1.406 . S
C340 H314 0.929 . S
C340 C339 1.406 . S
C340 C341 1.391 . S
C341 H313 0.931 . S
C341 C336 1.370 . S
C341 C340 1.391 . S
C342 N311 1.435 . S
C342 C343 1.358 . S
C342 C347 1.371 . S
C343 H315 0.930 . S
C343 C342 1.358 . S
C343 C344 1.405 . S
C344 H316 0.932 . S
C344 C343 1.405 . S
C344 C345 1.383 . S
C345 C344 1.383 . S
C345 C346 1.393 . S
C346 H318 0.931 . S
C346 C345 1.393 . S
C346 C347 1.382 . S
C347 H317 0.929 . S
C347 C342 1.371 . S
C347 C346 1.382 . S
C348 N311 1.423 . S
C348 C349 1.362 . S
C348 C353 1.388 . S
C349 H319 0.929 . S
C349 C348 1.362 . S
C349 C350 1.376 . S
C350 H321 0.931 . S
C350 C349 1.376 . S
C350 C351 1.396 . S
C351 C350 1.396 . S
C351 C352 1.348 . S
C351 C369 1.472 . S
C352 H322 0.929 . S
C352 C351 1.348 . S
C352 C353 1.443 . S
C353 H320 0.932 . S
C353 C348 1.388 . S
C353 C352 1.443 . S
C354 N334 1.433 . S
C354 C355 1.363 . S
C354 C359 1.370 . S
C355 H323 0.929 . S
C355 C354 1.363 . S
C355 C356 1.385 . S
C356 H324 0.930 . S
C356 C355 1.385 . S
C356 C357 1.357 . S
C357 C356 1.357 . S
C357 C358 1.406 . S
C358 H325 0.929 . S
C358 C357 1.406 . S
C358 C359 1.391 . S
C359 H326 0.931 . S
C359 C354 1.370 . S
C359 C358 1.391 . S
C360 N334 1.435 . S
C360 C361 1.358 . S
C360 C365 1.371 . S
C361 H327 0.930 . S
C361 C360 1.358 . S
C361 C362 1.405 . S
C362 H328 0.932 . S
C362 C361 1.405 . S
C362 C363 1.383 . S
C363 C362 1.383 . S
C363 C364 1.393 . S
C364 H329 0.931 . S
C364 C363 1.393 . S
C364 C365 1.382 . S
C365 H330 0.929 . S
C365 C360 1.371 . S
C365 C364 1.382 . S
C366 N334 1.423 . S
C366 C367 1.362 . S
C366 C371 1.388 . S
C367 H331 0.929 . S
C367 C366 1.362 . S
C367 C368 1.376 . S
C368 H332 0.931 . S
C368 C367 1.376 . S
C368 C369 1.396 . S
C369 C351 1.472 . S
C369 C368 1.396 . S
C369 C370 1.348 . S
C370 H333 0.929 . S
C370 C369 1.348 . S
C370 C371 1.443 . S
C371 H335 0.932 . S
C371 C366 1.388 . S
C371 C370 1.443 . S
O372 Cd373 2.223 . S
O372 C380 1.315 . S
Cd373 O372 2.223 . S
Cd373 O376 2.297 . S
Cd373 O377 2.439 . S
Cd373 O383 2.240 . S
Cd374 O375 2.240 . S
Cd374 O382 2.223 . S
Cd374 O384 2.297 . S
Cd374 O385 2.439 . S
O375 Cd374 2.240 . S
O375 C380 1.279 . S
O376 Cd373 2.297 . S
O376 C378 1.247 . S
O377 Cd373 2.439 . S
O377 C378 1.208 . S
C378 O376 1.247 . S
C378 O377 1.208 . S
C379 O384 1.247 . S
C379 O385 1.208 . S
C380 O372 1.315 . S
C380 O375 1.279 . S
C381 O382 1.315 . S
C381 O383 1.279 . S
O382 Cd374 2.223 . S
O382 C381 1.315 . S
O383 Cd373 2.240 . S
O383 C381 1.279 . S
O384 Cd374 2.297 . S
O384 C379 1.247 . S
O385 Cd374 2.439 . S
O385 C379 1.208 . S
O386 Cd387 2.223 . S
O386 C394 1.315 . S
Cd387 O386 2.223 . S
Cd387 O390 2.297 . S
Cd387 O391 2.439 . S
Cd387 O397 2.240 . S
Cd388 O389 2.240 . S
Cd388 O396 2.223 . S
Cd388 O398 2.297 . S
Cd388 O399 2.439 . S
O389 Cd388 2.240 . S
O389 C394 1.279 . S
O390 Cd387 2.297 . S
O390 C392 1.247 . S
O391 Cd387 2.439 . S
O391 C392 1.208 . S
C392 O390 1.247 . S
C392 O391 1.208 . S
C393 O398 1.247 . S
C393 O399 1.208 . S
C394 O386 1.315 . S
C394 O389 1.279 . S
C395 O396 1.315 . S
C395 O397 1.279 . S
O396 Cd388 2.223 . S
O396 C395 1.315 . S
O397 Cd387 2.240 . S
O397 C395 1.279 . S
O398 Cd388 2.297 . S
O398 C393 1.247 . S
O399 Cd388 2.439 . S
O399 C393 1.208 . S
O400 Cd401 2.223 . S
O400 C408 1.315 . S
Cd401 O400 2.223 . S
Cd401 O404 2.297 . S
Cd401 O405 2.439 . S
Cd401 O411 2.240 . S
Cd402 O403 2.240 . S
Cd402 O410 2.223 . S
Cd402 O412 2.297 . S
Cd402 O413 2.439 . S
O403 Cd402 2.240 . S
O403 C408 1.279 . S
O404 Cd401 2.297 . S
O404 C406 1.247 . S
O405 Cd401 2.439 . S
O405 C406 1.208 . S
C406 O404 1.247 . S
C406 O405 1.208 . S
C407 O412 1.247 . S
C407 O413 1.208 . S
C408 O400 1.315 . S
C408 O403 1.279 . S
C409 O410 1.315 . S
C409 O411 1.279 . S
O410 Cd402 2.223 . S
O410 C409 1.315 . S
O411 Cd401 2.240 . S
O411 C409 1.279 . S
O412 Cd402 2.297 . S
O412 C407 1.247 . S
O413 Cd402 2.439 . S
O413 C407 1.208 . S
O414 Cd415 2.223 . S
O414 C422 1.315 . S
Cd415 O414 2.223 . S
Cd415 O418 2.297 . S
Cd415 O419 2.439 . S
Cd415 O425 2.240 . S
Cd416 O417 2.240 . S
Cd416 O424 2.223 . S
Cd416 O426 2.297 . S
Cd416 O427 2.439 . S
O417 Cd416 2.240 . S
O417 C422 1.279 . S
O418 Cd415 2.297 . S
O418 C420 1.247 . S
O419 Cd415 2.439 . S
O419 C420 1.208 . S
C420 O418 1.247 . S
C420 O419 1.208 . S
C421 O426 1.247 . S
C421 O427 1.208 . S
C422 O414 1.315 . S
C422 O417 1.279 . S
C423 O424 1.315 . S
C423 O425 1.279 . S
O424 Cd416 2.223 . S
O424 C423 1.315 . S
O425 Cd415 2.240 . S
O425 C423 1.279 . S
O426 Cd416 2.297 . S
O426 C421 1.247 . S
O427 Cd416 2.439 . S
O427 C421 1.208 . S
O428 Cd429 2.223 . S
O428 C436 1.315 . S
Cd429 O428 2.223 . S
Cd429 O432 2.297 . S
Cd429 O433 2.439 . S
Cd429 O439 2.240 . S
Cd430 O431 2.240 . S
Cd430 O438 2.223 . S
Cd430 O440 2.297 . S
Cd430 O441 2.439 . S
O431 Cd430 2.240 . S
O431 C436 1.279 . S
O432 Cd429 2.297 . S
O432 C434 1.247 . S
O433 Cd429 2.439 . S
O433 C434 1.208 . S
C434 O432 1.247 . S
C434 O433 1.208 . S
C435 O440 1.247 . S
C435 O441 1.208 . S
C436 O428 1.315 . S
C436 O431 1.279 . S
C437 O438 1.315 . S
C437 O439 1.279 . S
O438 Cd430 2.223 . S
O438 C437 1.315 . S
O439 Cd429 2.240 . S
O439 C437 1.279 . S
O440 Cd430 2.297 . S
O440 C435 1.247 . S
O441 Cd430 2.439 . S
O441 C435 1.208 . S
O442 Cd443 2.223 . S
O442 C450 1.315 . S
Cd443 O442 2.223 . S
Cd443 O446 2.297 . S
Cd443 O447 2.439 . S
Cd443 O453 2.240 . S
Cd444 O445 2.240 . S
Cd444 O452 2.223 . S
Cd444 O454 2.297 . S
Cd444 O455 2.439 . S
O445 Cd444 2.240 . S
O445 C450 1.279 . S
O446 Cd443 2.297 . S
O446 C448 1.247 . S
O447 Cd443 2.439 . S
O447 C448 1.208 . S
C448 O446 1.247 . S
C448 O447 1.208 . S
C449 O454 1.247 . S
C449 O455 1.208 . S
C450 O442 1.315 . S
C450 O445 1.279 . S
C451 O452 1.315 . S
C451 O453 1.279 . S
O452 Cd444 2.223 . S
O452 C451 1.315 . S
O453 Cd443 2.240 . S
O453 C451 1.279 . S
O454 Cd444 2.297 . S
O454 C449 1.247 . S
O455 Cd444 2.439 . S
O455 C449 1.208 . S
C456 C457 1.349 . S
C456 C458 1.327 . S
C456 H481 0.950 . S
C457 C456 1.349 . S
C457 C473 1.349 . S
C458 C456 1.327 . S
C458 C477 1.429 . S
C458 H482 0.950 . S
C459 C476 1.574 . S
C459 C478 1.368 . S
C459 H483 0.949 . S
H460 C464 0.949 . S
C461 C462 1.349 . S
C461 C463 1.327 . S
C461 H484 0.950 . S
C462 C461 1.349 . S
C462 C474 1.349 . S
C463 C461 1.327 . S
C463 C479 1.429 . S
C463 H485 0.950 . S
C464 H460 0.949 . S
C464 C472 1.574 . S
C464 C480 1.368 . S
H465 C473 0.950 . S
H466 C471 0.950 . S
H467 C472 0.949 . S
H468 C474 0.950 . S
H469 C475 0.950 . S
H470 C476 0.949 . S
C471 H466 0.950 . S
C471 C473 1.327 . S
C471 C477 1.429 . S
C472 C464 1.574 . S
C472 H467 0.949 . S
C472 C478 1.368 . S
C473 C457 1.349 . S
C473 H465 0.950 . S
C473 C471 1.327 . S
C474 C462 1.349 . S
C474 H468 0.950 . S
C474 C475 1.327 . S
C475 H469 0.950 . S
C475 C474 1.327 . S
C475 C479 1.429 . S
C476 C459 1.574 . S
C476 H470 0.949 . S
C476 C480 1.368 . S
C477 C458 1.429 . S
C477 C471 1.429 . S
C477 C478 1.523 . S
C478 C459 1.368 . S
C478 C472 1.368 . S
C478 C477 1.523 . S
C479 C463 1.429 . S
C479 C475 1.429 . S
C479 C480 1.523 . S
C480 C464 1.368 . S
C480 C476 1.368 . S
C480 C479 1.523 . S
H481 C456 0.950 . S
H482 C458 0.950 . S
H483 C459 0.949 . S
H484 C461 0.950 . S
H485 C463 0.950 . S
C486 C487 1.349 . S
C486 C488 1.327 . S
C486 H511 0.950 . S
C487 C486 1.349 . S
C487 C503 1.349 . S
C488 C486 1.327 . S
C488 C507 1.429 . S
C488 H512 0.950 . S
C489 C506 1.574 . S
C489 C508 1.368 . S
C489 H513 0.949 . S
H490 C494 0.949 . S
C491 C492 1.349 . S
C491 C493 1.327 . S
C491 H514 0.950 . S
C492 C491 1.349 . S
C492 C504 1.349 . S
C493 C491 1.327 . S
C493 C509 1.429 . S
C493 H515 0.950 . S
C494 H490 0.949 . S
C494 C502 1.574 . S
C494 C510 1.368 . S
H495 C503 0.950 . S
H496 C501 0.950 . S
H497 C502 0.949 . S
H498 C504 0.950 . S
H499 C505 0.950 . S
H500 C506 0.949 . S
C501 H496 0.950 . S
C501 C503 1.327 . S
C501 C507 1.429 . S
C502 C494 1.574 . S
C502 H497 0.949 . S
C502 C508 1.368 . S
C503 C487 1.349 . S
C503 H495 0.950 . S
C503 C501 1.327 . S
C504 C492 1.349 . S
C504 H498 0.950 . S
C504 C505 1.327 . S
C505 H499 0.950 . S
C505 C504 1.327 . S
C505 C509 1.429 . S
C506 C489 1.574 . S
C506 H500 0.949 . S
C506 C510 1.368 . S
C507 C488 1.429 . S
C507 C501 1.429 . S
C507 C508 1.523 . S
C508 C489 1.368 . S
C508 C502 1.368 . S
C508 C507 1.523 . S
C509 C493 1.429 . S
C509 C505 1.429 . S
C509 C510 1.523 . S
C510 C494 1.368 . S
C510 C506 1.368 . S
C510 C509 1.523 . S
H511 C486 0.950 . S
H512 C488 0.950 . S
H513 C489 0.949 . S
H514 C491 0.950 . S
H515 C493 0.950 . S
C516 C517 1.349 . S
C516 C518 1.327 . S
C516 H541 0.950 . S
C517 C516 1.349 . S
C517 C533 1.349 . S
C518 C516 1.327 . S
C518 C537 1.429 . S
C518 H542 0.950 . S
C519 C536 1.574 . S
C519 C538 1.368 . S
C519 H543 0.949 . S
H520 C524 0.949 . S
C521 C522 1.349 . S
C521 C523 1.327 . S
C521 H544 0.950 . S
C522 C521 1.349 . S
C522 C534 1.349 . S
C523 C521 1.327 . S
C523 C539 1.429 . S
C523 H545 0.950 . S
C524 H520 0.949 . S
C524 C532 1.574 . S
C524 C540 1.368 . S
H525 C533 0.950 . S
H526 C531 0.950 . S
H527 C532 0.949 . S
H528 C534 0.950 . S
H529 C535 0.950 . S
H530 C536 0.949 . S
C531 H526 0.950 . S
C531 C533 1.327 . S
C531 C537 1.429 . S
C532 C524 1.574 . S
C532 H527 0.949 . S
C532 C538 1.368 . S
C533 C517 1.349 . S
C533 H525 0.950 . S
C533 C531 1.327 . S
C534 C522 1.349 . S
C534 H528 0.950 . S
C534 C535 1.327 . S
C535 H529 0.950 . S
C535 C534 1.327 . S
C535 C539 1.429 . S
C536 C519 1.574 . S
C536 H530 0.949 . S
C536 C540 1.368 . S
C537 C518 1.429 . S
C537 C531 1.429 . S
C537 C538 1.523 . S
C538 C519 1.368 . S
C538 C532 1.368 . S
C538 C537 1.523 . S
C539 C523 1.429 . S
C539 C535 1.429 . S
C539 C540 1.523 . S
C540 C524 1.368 . S
C540 C536 1.368 . S
C540 C539 1.523 . S
H541 C516 0.950 . S
H542 C518 0.950 . S
H543 C519 0.949 . S
H544 C521 0.950 . S
H545 C523 0.950 . S
C546 C547 1.349 . S
C546 C548 1.327 . S
C546 H571 0.950 . S
C547 C546 1.349 . S
C547 C563 1.349 . S
C548 C546 1.327 . S
C548 C567 1.429 . S
C548 H572 0.950 . S
C549 C566 1.574 . S
C549 C568 1.368 . S
C549 H573 0.949 . S
H550 C554 0.949 . S
C551 C552 1.349 . S
C551 C553 1.327 . S
C551 H574 0.950 . S
C552 C551 1.349 . S
C552 C564 1.349 . S
C553 C551 1.327 . S
C553 C569 1.429 . S
C553 H575 0.950 . S
C554 H550 0.949 . S
C554 C562 1.574 . S
C554 C570 1.368 . S
H555 C563 0.950 . S
H556 C561 0.950 . S
H557 C562 0.949 . S
H558 C564 0.950 . S
H559 C565 0.950 . S
H560 C566 0.949 . S
C561 H556 0.950 . S
C561 C563 1.327 . S
C561 C567 1.429 . S
C562 C554 1.574 . S
C562 H557 0.949 . S
C562 C568 1.368 . S
C563 C547 1.349 . S
C563 H555 0.950 . S
C563 C561 1.327 . S
C564 C552 1.349 . S
C564 H558 0.950 . S
C564 C565 1.327 . S
C565 H559 0.950 . S
C565 C564 1.327 . S
C565 C569 1.429 . S
C566 C549 1.574 . S
C566 H560 0.949 . S
C566 C570 1.368 . S
C567 C548 1.429 . S
C567 C561 1.429 . S
C567 C568 1.523 . S
C568 C549 1.368 . S
C568 C562 1.368 . S
C568 C567 1.523 . S
C569 C553 1.429 . S
C569 C565 1.429 . S
C569 C570 1.523 . S
C570 C554 1.368 . S
C570 C566 1.368 . S
C570 C569 1.523 . S
H571 C546 0.950 . S
H572 C548 0.950 . S
H573 C549 0.949 . S
H574 C551 0.950 . S
H575 C553 0.950 . S
C576 C577 1.349 . S
C576 C578 1.327 . S
C576 H601 0.950 . S
C577 C576 1.349 . S
C577 C593 1.349 . S
C578 C576 1.327 . S
C578 C597 1.429 . S
C578 H602 0.950 . S
C579 C596 1.574 . S
C579 C598 1.368 . S
C579 H603 0.949 . S
H580 C584 0.949 . S
C581 C582 1.349 . S
C581 C583 1.327 . S
C581 H604 0.950 . S
C582 C581 1.349 . S
C582 C594 1.349 . S
C583 C581 1.327 . S
C583 C599 1.429 . S
C583 H605 0.950 . S
C584 H580 0.949 . S
C584 C592 1.574 . S
C584 C600 1.368 . S
H585 C593 0.950 . S
H586 C591 0.950 . S
H587 C592 0.949 . S
H588 C594 0.950 . S
H589 C595 0.950 . S
H590 C596 0.949 . S
C591 H586 0.950 . S
C591 C593 1.327 . S
C591 C597 1.429 . S
C592 C584 1.574 . S
C592 H587 0.949 . S
C592 C598 1.368 . S
C593 C577 1.349 . S
C593 H585 0.950 . S
C593 C591 1.327 . S
C594 C582 1.349 . S
C594 H588 0.950 . S
C594 C595 1.327 . S
C595 H589 0.950 . S
C595 C594 1.327 . S
C595 C599 1.429 . S
C596 C579 1.574 . S
C596 H590 0.949 . S
C596 C600 1.368 . S
C597 C578 1.429 . S
C597 C591 1.429 . S
C597 C598 1.523 . S
C598 C579 1.368 . S
C598 C592 1.368 . S
C598 C597 1.523 . S
C599 C583 1.429 . S
C599 C595 1.429 . S
C599 C600 1.523 . S
C600 C584 1.368 . S
C600 C596 1.368 . S
C600 C599 1.523 . S
H601 C576 0.950 . S
H602 C578 0.950 . S
H603 C579 0.949 . S
H604 C581 0.950 . S
H605 C583 0.950 . S
C606 C607 1.349 . S
C606 C608 1.327 . S
C606 H631 0.950 . S
C607 C606 1.349 . S
C607 C623 1.349 . S
C608 C606 1.327 . S
C608 C627 1.429 . S
C608 H632 0.950 . S
C609 C626 1.574 . S
C609 C628 1.368 . S
C609 H633 0.949 . S
H610 C614 0.949 . S
C611 C612 1.349 . S
C611 C613 1.327 . S
C611 H634 0.950 . S
C612 C611 1.349 . S
C612 C624 1.349 . S
C613 C611 1.327 . S
C613 C629 1.429 . S
C613 H635 0.950 . S
C614 H610 0.949 . S
C614 C622 1.574 . S
C614 C630 1.368 . S
H615 C623 0.950 . S
H616 C621 0.950 . S
H617 C622 0.949 . S
H618 C624 0.950 . S
H619 C625 0.950 . S
H620 C626 0.949 . S
C621 H616 0.950 . S
C621 C623 1.327 . S
C621 C627 1.429 . S
C622 C614 1.574 . S
C622 H617 0.949 . S
C622 C628 1.368 . S
C623 C607 1.349 . S
C623 H615 0.950 . S
C623 C621 1.327 . S
C624 C612 1.349 . S
C624 H618 0.950 . S
C624 C625 1.327 . S
C625 H619 0.950 . S
C625 C624 1.327 . S
C625 C629 1.429 . S
C626 C609 1.574 . S
C626 H620 0.949 . S
C626 C630 1.368 . S
C627 C608 1.429 . S
C627 C621 1.429 . S
C627 C628 1.523 . S
C628 C609 1.368 . S
C628 C622 1.368 . S
C628 C627 1.523 . S
C629 C613 1.429 . S
C629 C625 1.429 . S
C629 C630 1.523 . S
C630 C614 1.368 . S
C630 C626 1.368 . S
C630 C629 1.523 . S
H631 C606 0.950 . S
H632 C608 0.950 . S
H633 C609 0.949 . S
H634 C611 0.950 . S
H635 C613 0.950 . S
C636 C637 1.349 . S
C636 C638 1.327 . S
C636 H661 0.950 . S
C637 C636 1.349 . S
C637 C653 1.349 . S
C638 C636 1.327 . S
C638 C657 1.429 . S
C638 H662 0.950 . S
C639 C656 1.574 . S
C639 C658 1.368 . S
C639 H663 0.949 . S
H640 C644 0.949 . S
C641 C642 1.349 . S
C641 C643 1.327 . S
C641 H664 0.950 . S
C642 C641 1.349 . S
C642 C654 1.349 . S
C643 C641 1.327 . S
C643 C659 1.429 . S
C643 H665 0.950 . S
C644 H640 0.949 . S
C644 C652 1.574 . S
C644 C660 1.368 . S
H645 C653 0.950 . S
H646 C651 0.950 . S
H647 C652 0.949 . S
H648 C654 0.950 . S
H649 C655 0.950 . S
H650 C656 0.949 . S
C651 H646 0.950 . S
C651 C653 1.327 . S
C651 C657 1.429 . S
C652 C644 1.574 . S
C652 H647 0.949 . S
C652 C658 1.368 . S
C653 C637 1.349 . S
C653 H645 0.950 . S
C653 C651 1.327 . S
C654 C642 1.349 . S
C654 H648 0.950 . S
C654 C655 1.327 . S
C655 H649 0.950 . S
C655 C654 1.327 . S
C655 C659 1.429 . S
C656 C639 1.574 . S
C656 H650 0.949 . S
C656 C660 1.368 . S
C657 C638 1.429 . S
C657 C651 1.429 . S
C657 C658 1.523 . S
C658 C639 1.368 . S
C658 C652 1.368 . S
C658 C657 1.523 . S
C659 C643 1.429 . S
C659 C655 1.429 . S
C659 C660 1.523 . S
C660 C644 1.368 . S
C660 C656 1.368 . S
C660 C659 1.523 . S
H661 C636 0.950 . S
H662 C638 0.950 . S
H663 C639 0.949 . S
H664 C641 0.950 . S
H665 C643 0.950 . S
C666 C667 1.349 . S
C666 C668 1.327 . S
C666 H691 0.950 . S
C667 C666 1.349 . S
C667 C683 1.349 . S
C668 C666 1.327 . S
C668 C687 1.429 . S
C668 H692 0.950 . S
C669 C686 1.574 . S
C669 C688 1.368 . S
C669 H693 0.949 . S
H670 C674 0.949 . S
C671 C672 1.349 . S
C671 C673 1.327 . S
C671 H694 0.950 . S
C672 C671 1.349 . S
C672 C684 1.349 . S
C673 C671 1.327 . S
C673 C689 1.429 . S
C673 H695 0.950 . S
C674 H670 0.949 . S
C674 C682 1.574 . S
C674 C690 1.368 . S
H675 C683 0.950 . S
H676 C681 0.950 . S
H677 C682 0.949 . S
H678 C684 0.950 . S
H679 C685 0.950 . S
H680 C686 0.949 . S
C681 H676 0.950 . S
C681 C683 1.327 . S
C681 C687 1.429 . S
C682 C674 1.574 . S
C682 H677 0.949 . S
C682 C688 1.368 . S
C683 C667 1.349 . S
C683 H675 0.950 . S
C683 C681 1.327 . S
C684 C672 1.349 . S
C684 H678 0.950 . S
C684 C685 1.327 . S
C685 H679 0.950 . S
C685 C684 1.327 . S
C685 C689 1.429 . S
C686 C669 1.574 . S
C686 H680 0.949 . S
C686 C690 1.368 . S
C687 C668 1.429 . S
C687 C681 1.429 . S
C687 C688 1.523 . S
C688 C669 1.368 . S
C688 C682 1.368 . S
C688 C687 1.523 . S
C689 C673 1.429 . S
C689 C685 1.429 . S
C689 C690 1.523 . S
C690 C674 1.368 . S
C690 C686 1.368 . S
C690 C689 1.523 . S
H691 C666 0.950 . S
H692 C668 0.950 . S
H693 C669 0.949 . S
H694 C671 0.950 . S
H695 C673 0.950 . S
C696 C697 1.349 . S
C696 C698 1.327 . S
C696 H721 0.950 . S
C697 C696 1.349 . S
C697 C713 1.349 . S
C698 C696 1.327 . S
C698 C717 1.429 . S
C698 H722 0.950 . S
C699 C716 1.574 . S
C699 C718 1.368 . S
C699 H723 0.949 . S
H700 C704 0.949 . S
C701 C702 1.349 . S
C701 C703 1.327 . S
C701 H724 0.950 . S
C702 C701 1.349 . S
C702 C714 1.349 . S
C703 C701 1.327 . S
C703 C719 1.429 . S
C703 H725 0.950 . S
C704 H700 0.949 . S
C704 C712 1.574 . S
C704 C720 1.368 . S
H705 C713 0.950 . S
H706 C711 0.950 . S
H707 C712 0.949 . S
H708 C714 0.950 . S
H709 C715 0.950 . S
H710 C716 0.949 . S
C711 H706 0.950 . S
C711 C713 1.327 . S
C711 C717 1.429 . S
C712 C704 1.574 . S
C712 H707 0.949 . S
C712 C718 1.368 . S
C713 C697 1.349 . S
C713 H705 0.950 . S
C713 C711 1.327 . S
C714 C702 1.349 . S
C714 H708 0.950 . S
C714 C715 1.327 . S
C715 H709 0.950 . S
C715 C714 1.327 . S
C715 C719 1.429 . S
C716 C699 1.574 . S
C716 H710 0.949 . S
C716 C720 1.368 . S
C717 C698 1.429 . S
C717 C711 1.429 . S
C717 C718 1.523 . S
C718 C699 1.368 . S
C718 C712 1.368 . S
C718 C717 1.523 . S
C719 C703 1.429 . S
C719 C715 1.429 . S
C719 C720 1.523 . S
C720 C704 1.368 . S
C720 C716 1.368 . S
C720 C719 1.523 . S
H721 C696 0.950 . S
H722 C698 0.950 . S
H723 C699 0.949 . S
H724 C701 0.950 . S
H725 C703 0.950 . S
C726 C727 1.349 . S
C726 C728 1.327 . S
C726 H751 0.950 1_554 S
C727 C726 1.349 . S
C727 C743 1.349 . S
C728 C726 1.327 . S
C728 C747 1.429 . S
C728 H752 0.950 1_554 S
C729 C746 1.574 . S
C729 C748 1.368 . S
C729 H753 0.949 . S
H730 C734 0.949 . S
C731 C732 1.349 . S
C731 C733 1.327 . S
C731 H754 0.950 . S
C732 C731 1.349 . S
C732 C744 1.349 . S
C733 C731 1.327 . S
C733 C749 1.429 . S
C733 H755 0.950 . S
C734 H730 0.949 . S
C734 C742 1.574 . S
C734 C750 1.368 . S
H735 C743 0.950 . S
H736 C741 0.950 . S
H737 C742 0.949 . S
H738 C744 0.950 . S
H739 C745 0.950 . S
H740 C746 0.949 . S
C741 H736 0.950 . S
C741 C743 1.327 . S
C741 C747 1.429 . S
C742 C734 1.574 . S
C742 H737 0.949 . S
C742 C748 1.368 . S
C743 C727 1.349 . S
C743 H735 0.950 . S
C743 C741 1.327 . S
C744 C732 1.349 . S
C744 H738 0.950 . S
C744 C745 1.327 . S
C745 H739 0.950 . S
C745 C744 1.327 . S
C745 C749 1.429 . S
C746 C729 1.574 . S
C746 H740 0.949 . S
C746 C750 1.368 . S
C747 C728 1.429 . S
C747 C741 1.429 . S
C747 C748 1.523 . S
C748 C729 1.368 . S
C748 C742 1.368 . S
C748 C747 1.523 . S
C749 C733 1.429 . S
C749 C745 1.429 . S
C749 C750 1.523 . S
C750 C734 1.368 . S
C750 C746 1.368 . S
C750 C749 1.523 . S
H751 C726 0.950 1_556 S
H752 C728 0.950 1_556 S
H753 C729 0.949 . S
H754 C731 0.950 . S
H755 C733 0.950 . S
C756 C757 1.349 . S
C756 C758 1.327 . S
C756 H781 0.950 . S
C757 C756 1.349 . S
C757 C773 1.349 . S
C758 C756 1.327 . S
C758 C777 1.429 . S
C758 H782 0.950 . S
C759 C776 1.574 . S
C759 C778 1.368 . S
C759 H783 0.949 . S
H760 C764 0.949 . S
C761 C762 1.349 . S
C761 C763 1.327 . S
C761 H784 0.950 . S
C762 C761 1.349 . S
C762 C774 1.349 . S
C763 C761 1.327 . S
C763 C779 1.429 . S
C763 H785 0.950 . S
C764 H760 0.949 . S
C764 C772 1.574 . S
C764 C780 1.368 . S
H765 C773 0.950 . S
H766 C771 0.950 . S
H767 C772 0.949 . S
H768 C774 0.950 . S
H769 C775 0.950 . S
H770 C776 0.949 . S
C771 H766 0.950 . S
C771 C773 1.327 . S
C771 C777 1.429 . S
C772 C764 1.574 . S
C772 H767 0.949 . S
C772 C778 1.368 . S
C773 C757 1.349 . S
C773 H765 0.950 . S
C773 C771 1.327 . S
C774 C762 1.349 . S
C774 H768 0.950 . S
C774 C775 1.327 . S
C775 H769 0.950 . S
C775 C774 1.327 . S
C775 C779 1.429 . S
C776 C759 1.574 . S
C776 H770 0.949 . S
C776 C780 1.368 . S
C777 C758 1.429 . S
C777 C771 1.429 . S
C777 C778 1.523 . S
C778 C759 1.368 . S
C778 C772 1.368 . S
C778 C777 1.523 . S
C779 C763 1.429 . S
C779 C775 1.429 . S
C779 C780 1.523 . S
C780 C764 1.368 . S
C780 C776 1.368 . S
C780 C779 1.523 . S
H781 C756 0.950 . S
H782 C758 0.950 . S
H783 C759 0.949 . S
H784 C761 0.950 . S
H785 C763 0.950 . S
C786 C787 1.349 . S
C786 C788 1.327 . S
C786 H811 0.950 . S
C787 C786 1.349 . S
C787 C803 1.349 . S
C788 C786 1.327 . S
C788 C807 1.429 . S
C788 H812 0.950 . S
C789 C806 1.574 . S
C789 C808 1.368 . S
C789 H813 0.949 . S
H790 C794 0.949 . S
C791 C792 1.349 . S
C791 C793 1.327 . S
C791 H814 0.950 . S
C792 C791 1.349 . S
C792 C804 1.349 . S
C793 C791 1.327 . S
C793 C809 1.429 . S
C793 H815 0.950 . S
C794 H790 0.949 . S
C794 C802 1.574 . S
C794 C810 1.368 . S
H795 C803 0.950 . S
H796 C801 0.950 . S
H797 C802 0.949 . S
H798 C804 0.950 . S
H799 C805 0.950 . S
H800 C806 0.949 . S
C801 H796 0.950 . S
C801 C803 1.327 . S
C801 C807 1.429 . S
C802 C794 1.574 . S
C802 H797 0.949 . S
C802 C808 1.368 . S
C803 C787 1.349 . S
C803 H795 0.950 . S
C803 C801 1.327 . S
C804 C792 1.349 . S
C804 H798 0.950 . S
C804 C805 1.327 . S
C805 H799 0.950 . S
C805 C804 1.327 . S
C805 C809 1.429 . S
C806 C789 1.574 . S
C806 H800 0.949 . S
C806 C810 1.368 . S
C807 C788 1.429 . S
C807 C801 1.429 . S
C807 C808 1.523 . S
C808 C789 1.368 . S
C808 C802 1.368 . S
C808 C807 1.523 . S
C809 C793 1.429 . S
C809 C805 1.429 . S
C809 C810 1.523 . S
C810 C794 1.368 . S
C810 C806 1.368 . S
C810 C809 1.523 . S
H811 C786 0.950 . S
H812 C788 0.950 . S
H813 C789 0.949 . S
H814 C791 0.950 . S
H815 C793 0.950 . S
C816 C817 1.349 . S
C816 C818 1.327 . S
C816 H841 0.950 . S
C817 C816 1.349 . S
C817 C833 1.349 . S
C818 C816 1.327 . S
C818 C837 1.429 . S
C818 H842 0.950 . S
C819 C836 1.574 . S
C819 C838 1.368 . S
C819 H843 0.949 . S
H820 C824 0.949 . S
C821 C822 1.349 . S
C821 C823 1.327 . S
C821 H844 0.950 . S
C822 C821 1.349 . S
C822 C834 1.349 . S
C823 C821 1.327 . S
C823 C839 1.429 . S
C823 H845 0.950 . S
C824 H820 0.949 . S
C824 C832 1.574 . S
C824 C840 1.368 . S
H825 C833 0.950 . S
H826 C831 0.950 . S
H827 C832 0.949 . S
H828 C834 0.950 . S
H829 C835 0.950 . S
H830 C836 0.949 . S
C831 H826 0.950 . S
C831 C833 1.327 . S
C831 C837 1.429 . S
C832 C824 1.574 . S
C832 H827 0.949 . S
C832 C838 1.368 . S
C833 C817 1.349 . S
C833 H825 0.950 . S
C833 C831 1.327 . S
C834 C822 1.349 . S
C834 H828 0.950 . S
C834 C835 1.327 . S
C835 H829 0.950 . S
C835 C834 1.327 . S
C835 C839 1.429 . S
C836 C819 1.574 . S
C836 H830 0.949 . S
C836 C840 1.368 . S
C837 C818 1.429 . S
C837 C831 1.429 . S
C837 C838 1.523 . S
C838 C819 1.368 . S
C838 C832 1.368 . S
C838 C837 1.523 . S
C839 C823 1.429 . S
C839 C835 1.429 . S
C839 C840 1.523 . S
C840 C824 1.368 . S
C840 C836 1.368 . S
C840 C839 1.523 . S
H841 C816 0.950 . S
H842 C818 0.950 . S
H843 C819 0.949 . S
H844 C821 0.950 . S
H845 C823 0.950 . S
C846 C847 1.349 . S
C846 C848 1.327 . S
C846 H871 0.950 . S
C847 C846 1.349 . S
C847 C863 1.349 . S
C848 C846 1.327 . S
C848 C867 1.429 . S
C848 H872 0.950 . S
C849 C866 1.574 . S
C849 C868 1.368 . S
C849 H873 0.949 . S
H850 C854 0.949 . S
C851 C852 1.349 . S
C851 C853 1.327 . S
C851 H874 0.950 . S
C852 C851 1.349 . S
C852 C864 1.349 . S
C853 C851 1.327 . S
C853 C869 1.429 . S
C853 H875 0.950 . S
C854 H850 0.949 . S
C854 C862 1.574 . S
C854 C870 1.368 . S
H855 C863 0.950 . S
H856 C861 0.950 . S
H857 C862 0.949 . S
H858 C864 0.950 . S
H859 C865 0.950 . S
H860 C866 0.949 . S
C861 H856 0.950 . S
C861 C863 1.327 . S
C861 C867 1.429 . S
C862 C854 1.574 . S
C862 H857 0.949 . S
C862 C868 1.368 . S
C863 C847 1.349 . S
C863 H855 0.950 . S
C863 C861 1.327 . S
C864 C852 1.349 . S
C864 H858 0.950 . S
C864 C865 1.327 . S
C865 H859 0.950 . S
C865 C864 1.327 . S
C865 C869 1.429 . S
C866 C849 1.574 . S
C866 H860 0.949 . S
C866 C870 1.368 . S
C867 C848 1.429 . S
C867 C861 1.429 . S
C867 C868 1.523 . S
C868 C849 1.368 . S
C868 C862 1.368 . S
C868 C867 1.523 . S
C869 C853 1.429 . S
C869 C865 1.429 . S
C869 C870 1.523 . S
C870 C854 1.368 . S
C870 C866 1.368 . S
C870 C869 1.523 . S
H871 C846 0.950 . S
H872 C848 0.950 . S
H873 C849 0.949 . S
H874 C851 0.950 . S
H875 C853 0.950 . S
C876 C877 1.349 . S
C876 C878 1.327 . S
C876 H901 0.950 . S
C877 C876 1.349 . S
C877 C893 1.349 . S
C878 C876 1.327 . S
C878 C897 1.429 . S
C878 H902 0.950 . S
C879 C896 1.574 . S
C879 C898 1.368 . S
C879 H903 0.949 . S
H880 C884 0.949 . S
C881 C882 1.349 . S
C881 C883 1.327 . S
C881 H904 0.950 . S
C882 C881 1.349 . S
C882 C894 1.349 . S
C883 C881 1.327 . S
C883 C899 1.429 . S
C883 H905 0.950 . S
C884 H880 0.949 . S
C884 C892 1.574 . S
C884 C900 1.368 . S
H885 C893 0.950 . S
H886 C891 0.950 . S
H887 C892 0.949 . S
H888 C894 0.950 . S
H889 C895 0.950 . S
H890 C896 0.949 . S
C891 H886 0.950 . S
C891 C893 1.327 . S
C891 C897 1.429 . S
C892 C884 1.574 . S
C892 H887 0.949 . S
C892 C898 1.368 . S
C893 C877 1.349 . S
C893 H885 0.950 . S
C893 C891 1.327 . S
C894 C882 1.349 . S
C894 H888 0.950 . S
C894 C895 1.327 . S
C895 H889 0.950 . S
C895 C894 1.327 . S
C895 C899 1.429 . S
C896 C879 1.574 . S
C896 H890 0.949 . S
C896 C900 1.368 . S
C897 C878 1.429 . S
C897 C891 1.429 . S
C897 C898 1.523 . S
C898 C879 1.368 . S
C898 C892 1.368 . S
C898 C897 1.523 . S
C899 C883 1.429 . S
C899 C895 1.429 . S
C899 C900 1.523 . S
C900 C884 1.368 . S
C900 C896 1.368 . S
C900 C899 1.523 . S
H901 C876 0.950 . S
H902 C878 0.950 . S
H903 C879 0.949 . S
H904 C881 0.950 . S
H905 C883 0.950 . S
C906 C907 1.349 . S
C906 C908 1.327 . S
C906 H931 0.950 . S
C907 C906 1.349 . S
C907 C923 1.349 . S
C908 C906 1.327 . S
C908 C927 1.429 . S
C908 H932 0.950 . S
C909 C926 1.574 . S
C909 C928 1.368 . S
C909 H933 0.949 . S
H910 C914 0.949 . S
C911 C912 1.349 . S
C911 C913 1.327 . S
C911 H934 0.950 . S
C912 C911 1.349 . S
C912 C924 1.349 . S
C913 C911 1.327 . S
C913 C929 1.429 1_554 S
C913 H935 0.950 . S
C914 H910 0.949 . S
C914 C922 1.574 . S
C914 C930 1.368 . S
H915 C923 0.950 . S
H916 C921 0.950 . S
H917 C922 0.949 . S
H918 C924 0.950 . S
H919 C925 0.950 . S
H920 C926 0.949 . S
C921 H916 0.950 . S
C921 C923 1.327 . S
C921 C927 1.429 . S
C922 C914 1.574 . S
C922 H917 0.949 . S
C922 C928 1.368 . S
C923 C907 1.349 . S
C923 H915 0.950 . S
C923 C921 1.327 . S
C924 C912 1.349 . S
C924 H918 0.950 . S
C924 C925 1.327 1_554 S
C925 H919 0.950 . S
C925 C924 1.327 1_556 S
C925 C929 1.429 . S
C926 C909 1.574 . S
C926 H920 0.949 . S
C926 C930 1.368 . S
C927 C908 1.429 . S
C927 C921 1.429 . S
C927 C928 1.523 . S
C928 C909 1.368 . S
C928 C922 1.368 . S
C928 C927 1.523 . S
C929 C913 1.429 1_556 S
C929 C925 1.429 . S
C929 C930 1.523 . S
C930 C914 1.368 . S
C930 C926 1.368 . S
C930 C929 1.523 . S
H931 C906 0.950 . S
H932 C908 0.950 . S
H933 C909 0.949 . S
H934 C911 0.950 . S
H935 C913 0.950 . S
C936 C937 1.349 . S
C936 C938 1.327 . S
C936 H961 0.950 . S
C937 C936 1.349 . S
C937 C953 1.349 . S
C938 C936 1.327 . S
C938 C957 1.429 . S
C938 H962 0.950 . S
C939 C956 1.574 . S
C939 C958 1.368 . S
C939 H963 0.949 . S
H940 C944 0.949 . S
C941 C942 1.349 . S
C941 C943 1.327 . S
C941 H964 0.950 . S
C942 C941 1.349 . S
C942 C954 1.349 . S
C943 C941 1.327 . S
C943 C959 1.429 . S
C943 H965 0.950 . S
C944 H940 0.949 . S
C944 C952 1.574 . S
C944 C960 1.368 . S
H945 C953 0.950 . S
H946 C951 0.950 . S
H947 C952 0.949 . S
H948 C954 0.950 . S
H949 C955 0.950 . S
H950 C956 0.949 . S
C951 H946 0.950 . S
C951 C953 1.327 . S
C951 C957 1.429 . S
C952 C944 1.574 . S
C952 H947 0.949 . S
C952 C958 1.368 . S
C953 C937 1.349 . S
C953 H945 0.950 . S
C953 C951 1.327 . S
C954 C942 1.349 . S
C954 H948 0.950 . S
C954 C955 1.327 . S
C955 H949 0.950 . S
C955 C954 1.327 . S
C955 C959 1.429 . S
C956 C939 1.574 . S
C956 H950 0.949 . S
C956 C960 1.368 . S
C957 C938 1.429 . S
C957 C951 1.429 . S
C957 C958 1.523 . S
C958 C939 1.368 . S
C958 C952 1.368 . S
C958 C957 1.523 . S
C959 C943 1.429 . S
C959 C955 1.429 . S
C959 C960 1.523 . S
C960 C944 1.368 . S
C960 C956 1.368 . S
C960 C959 1.523 . S
H961 C936 0.950 . S
H962 C938 0.950 . S
H963 C939 0.949 . S
H964 C941 0.950 . S
H965 C943 0.950 . S
C966 C967 1.349 . S
C966 C968 1.327 . S
C966 H991 0.950 . S
C967 C966 1.349 . S
C967 C983 1.349 . S
C968 C966 1.327 . S
C968 C987 1.429 . S
C968 H992 0.950 . S
C969 C986 1.574 . S
C969 C988 1.368 . S
C969 H993 0.949 . S
H970 C974 0.949 . S
C971 C972 1.349 . S
C971 C973 1.327 . S
C971 H994 0.950 . S
C972 C971 1.349 . S
C972 C984 1.349 . S
C973 C971 1.327 . S
C973 C989 1.429 . S
C973 H995 0.950 . S
C974 H970 0.949 . S
C974 C982 1.574 . S
C974 C990 1.368 . S
H975 C983 0.950 . S
H976 C981 0.950 . S
H977 C982 0.949 . S
H978 C984 0.950 . S
H979 C985 0.950 . S
H980 C986 0.949 . S
C981 H976 0.950 . S
C981 C983 1.327 . S
C981 C987 1.429 . S
C982 C974 1.574 . S
C982 H977 0.949 . S
C982 C988 1.368 . S
C983 C967 1.349 . S
C983 H975 0.950 . S
C983 C981 1.327 . S
C984 C972 1.349 . S
C984 H978 0.950 . S
C984 C985 1.327 . S
C985 H979 0.950 . S
C985 C984 1.327 . S
C985 C989 1.429 . S
C986 C969 1.574 . S
C986 H980 0.949 . S
C986 C990 1.368 . S
C987 C968 1.429 . S
C987 C981 1.429 . S
C987 C988 1.523 . S
C988 C969 1.368 . S
C988 C982 1.368 . S
C988 C987 1.523 . S
C989 C973 1.429 . S
C989 C985 1.429 . S
C989 C990 1.523 . S
C990 C974 1.368 . S
C990 C986 1.368 . S
C990 C989 1.523 . S
H991 C966 0.950 . S
H992 C968 0.950 . S
H993 C969 0.949 . S
H994 C971 0.950 . S
H995 C973 0.950 . S
C996 C997 1.349 . S
C996 C998 1.327 . S
C996 H1021 0.950 . S
C997 C996 1.349 . S
C997 C1013 1.349 . S
C998 C996 1.327 . S
C998 C1017 1.429 . S
C998 H1022 0.950 . S
C999 C1016 1.574 . S
C999 C1018 1.368 . S
C999 H1023 0.949 . S
H1000 C1004 0.949 . S
C1001 C1002 1.349 . S
C1001 C1003 1.327 . S
C1001 H1024 0.950 . S
C1002 C1001 1.349 . S
C1002 C1014 1.349 . S
C1003 C1001 1.327 . S
C1003 C1019 1.429 . S
C1003 H1025 0.950 . S
C1004 H1000 0.949 . S
C1004 C1012 1.574 . S
C1004 C1020 1.368 . S
H1005 C1013 0.950 . S
H1006 C1011 0.950 . S
H1007 C1012 0.949 . S
H1008 C1014 0.950 . S
H1009 C1015 0.950 . S
H1010 C1016 0.949 . S
C1011 H1006 0.950 . S
C1011 C1013 1.327 . S
C1011 C1017 1.429 . S
C1012 C1004 1.574 . S
C1012 H1007 0.949 . S
C1012 C1018 1.368 . S
C1013 C997 1.349 . S
C1013 H1005 0.950 . S
C1013 C1011 1.327 . S
C1014 C1002 1.349 . S
C1014 H1008 0.950 . S
C1014 C1015 1.327 . S
C1015 H1009 0.950 . S
C1015 C1014 1.327 . S
C1015 C1019 1.429 . S
C1016 C999 1.574 . S
C1016 H1010 0.949 . S
C1016 C1020 1.368 . S
C1017 C998 1.429 . S
C1017 C1011 1.429 . S
C1017 C1018 1.523 . S
C1018 C999 1.368 . S
C1018 C1012 1.368 . S
C1018 C1017 1.523 . S
C1019 C1003 1.429 . S
C1019 C1015 1.429 . S
C1019 C1020 1.523 . S
C1020 C1004 1.368 . S
C1020 C1016 1.368 . S
C1020 C1019 1.523 . S
H1021 C996 0.950 . S
H1022 C998 0.950 . S
H1023 C999 0.949 . S
H1024 C1001 0.950 . S
H1025 C1003 0.950 . S
C1026 C1027 1.349 . S
C1026 C1028 1.327 . S
C1026 H1051 0.950 . S
C1027 C1026 1.349 . S
C1027 C1043 1.349 . S
C1028 C1026 1.327 . S
C1028 C1047 1.429 . S
C1028 H1052 0.950 . S
C1029 C1046 1.574 . S
C1029 C1048 1.368 . S
C1029 H1053 0.949 . S
H1030 C1034 0.949 . S
C1031 C1032 1.349 . S
C1031 C1033 1.327 . S
C1031 H1054 0.950 . S
C1032 C1031 1.349 . S
C1032 C1044 1.349 . S
C1033 C1031 1.327 . S
C1033 C1049 1.429 . S
C1033 H1055 0.950 . S
C1034 H1030 0.949 . S
C1034 C1042 1.574 . S
C1034 C1050 1.368 . S
H1035 C1043 0.950 . S
H1036 C1041 0.950 . S
H1037 C1042 0.949 . S
H1038 C1044 0.950 . S
H1039 C1045 0.950 . S
H1040 C1046 0.949 . S
C1041 H1036 0.950 . S
C1041 C1043 1.327 . S
C1041 C1047 1.429 . S
C1042 C1034 1.574 . S
C1042 H1037 0.949 . S
C1042 C1048 1.368 . S
C1043 C1027 1.349 . S
C1043 H1035 0.950 . S
C1043 C1041 1.327 . S
C1044 C1032 1.349 . S
C1044 H1038 0.950 . S
C1044 C1045 1.327 . S
C1045 H1039 0.950 . S
C1045 C1044 1.327 . S
C1045 C1049 1.429 . S
C1046 C1029 1.574 . S
C1046 H1040 0.949 . S
C1046 C1050 1.368 . S
C1047 C1028 1.429 . S
C1047 C1041 1.429 . S
C1047 C1048 1.523 . S
C1048 C1029 1.368 . S
C1048 C1042 1.368 . S
C1048 C1047 1.523 . S
C1049 C1033 1.429 . S
C1049 C1045 1.429 . S
C1049 C1050 1.523 . S
C1050 C1034 1.368 . S
C1050 C1046 1.368 . S
C1050 C1049 1.523 . S
H1051 C1026 0.950 . S
H1052 C1028 0.950 . S
H1053 C1029 0.949 . S
H1054 C1031 0.950 . S
H1055 C1033 0.950 . S
C1056 C1057 1.349 . S
C1056 C1058 1.327 . S
C1056 H1081 0.950 . S
C1057 C1056 1.349 . S
C1057 C1073 1.349 . S
C1058 C1056 1.327 . S
C1058 C1077 1.429 . S
C1058 H1082 0.950 . S
C1059 C1076 1.574 . S
C1059 C1078 1.368 . S
C1059 H1083 0.949 . S
H1060 C1064 0.949 . S
C1061 C1062 1.349 . S
C1061 C1063 1.327 . S
C1061 H1084 0.950 . S
C1062 C1061 1.349 . S
C1062 C1074 1.349 . S
C1063 C1061 1.327 . S
C1063 C1079 1.429 . S
C1063 H1085 0.950 . S
C1064 H1060 0.949 . S
C1064 C1072 1.574 . S
C1064 C1080 1.368 . S
H1065 C1073 0.950 . S
H1066 C1071 0.950 . S
H1067 C1072 0.949 . S
H1068 C1074 0.950 . S
H1069 C1075 0.950 . S
H1070 C1076 0.949 . S
C1071 H1066 0.950 . S
C1071 C1073 1.327 . S
C1071 C1077 1.429 . S
C1072 C1064 1.574 . S
C1072 H1067 0.949 . S
C1072 C1078 1.368 . S
C1073 C1057 1.349 . S
C1073 H1065 0.950 . S
C1073 C1071 1.327 . S
C1074 C1062 1.349 . S
C1074 H1068 0.950 . S
C1074 C1075 1.327 . S
C1075 H1069 0.950 . S
C1075 C1074 1.327 . S
C1075 C1079 1.429 . S
C1076 C1059 1.574 . S
C1076 H1070 0.949 . S
C1076 C1080 1.368 . S
C1077 C1058 1.429 . S
C1077 C1071 1.429 . S
C1077 C1078 1.523 . S
C1078 C1059 1.368 . S
C1078 C1072 1.368 . S
C1078 C1077 1.523 . S
C1079 C1063 1.429 . S
C1079 C1075 1.429 . S
C1079 C1080 1.523 . S
C1080 C1064 1.368 . S
C1080 C1076 1.368 . S
C1080 C1079 1.523 . S
H1081 C1056 0.950 . S
H1082 C1058 0.950 . S
H1083 C1059 0.949 . S
H1084 C1061 0.950 . S
H1085 C1063 0.950 . S
C1086 C1087 1.349 . S
C1086 C1088 1.327 . S
C1086 H1111 0.950 . S
C1087 C1086 1.349 . S
C1087 C1103 1.349 . S
C1088 C1086 1.327 . S
C1088 C1107 1.429 . S
C1088 H1112 0.950 . S
C1089 C1106 1.574 . S
C1089 C1108 1.368 . S
C1089 H1113 0.949 . S
H1090 C1094 0.949 . S
C1091 C1092 1.349 . S
C1091 C1093 1.327 . S
C1091 H1114 0.950 . S
C1092 C1091 1.349 . S
C1092 C1104 1.349 . S
C1093 C1091 1.327 . S
C1093 C1109 1.429 . S
C1093 H1115 0.950 . S
C1094 H1090 0.949 . S
C1094 C1102 1.574 . S
C1094 C1110 1.368 . S
H1095 C1103 0.950 . S
H1096 C1101 0.950 . S
H1097 C1102 0.949 . S
H1098 C1104 0.950 . S
H1099 C1105 0.950 . S
H1100 C1106 0.949 . S
C1101 H1096 0.950 . S
C1101 C1103 1.327 . S
C1101 C1107 1.429 . S
C1102 C1094 1.574 . S
C1102 H1097 0.949 . S
C1102 C1108 1.368 . S
C1103 C1087 1.349 . S
C1103 H1095 0.950 . S
C1103 C1101 1.327 . S
C1104 C1092 1.349 . S
C1104 H1098 0.950 . S
C1104 C1105 1.327 . S
C1105 H1099 0.950 . S
C1105 C1104 1.327 . S
C1105 C1109 1.429 . S
C1106 C1089 1.574 . S
C1106 H1100 0.949 . S
C1106 C1110 1.368 . S
C1107 C1088 1.429 . S
C1107 C1101 1.429 . S
C1107 C1108 1.523 . S
C1108 C1089 1.368 . S
C1108 C1102 1.368 . S
C1108 C1107 1.523 . S
C1109 C1093 1.429 . S
C1109 C1105 1.429 . S
C1109 C1110 1.523 . S
C1110 C1094 1.368 . S
C1110 C1106 1.368 . S
C1110 C1109 1.523 . S
H1111 C1086 0.950 . S
H1112 C1088 0.950 . S
H1113 C1089 0.949 . S
H1114 C1091 0.950 . S
H1115 C1093 0.950 . S
C1116 C1117 1.349 . S
C1116 C1118 1.327 . S
C1116 H1141 0.950 . S
C1117 C1116 1.349 . S
C1117 C1133 1.349 . S
C1118 C1116 1.327 . S
C1118 C1137 1.429 . S
C1118 H1142 0.950 . S
C1119 C1136 1.574 1_554 S
C1119 C1138 1.368 . S
C1119 H1143 0.949 . S
H1120 C1124 0.949 . S
C1121 C1122 1.349 . S
C1121 C1123 1.327 . S
C1121 H1144 0.950 . S
C1122 C1121 1.349 . S
C1122 C1134 1.349 . S
C1123 C1121 1.327 . S
C1123 C1139 1.429 . S
C1123 H1145 0.950 . S
C1124 H1120 0.949 . S
C1124 C1132 1.574 . S
C1124 C1140 1.368 . S
H1125 C1133 0.950 . S
H1126 C1131 0.950 . S
H1127 C1132 0.949 1_554 S
H1128 C1134 0.950 . S
H1129 C1135 0.950 . S
H1130 C1136 0.949 . S
C1131 H1126 0.950 . S
C1131 C1133 1.327 . S
C1131 C1137 1.429 . S
C1132 C1124 1.574 . S
C1132 H1127 0.949 1_556 S
C1132 C1138 1.368 1_556 S
C1133 C1117 1.349 . S
C1133 H1125 0.950 . S
C1133 C1131 1.327 . S
C1134 C1122 1.349 . S
C1134 H1128 0.950 . S
C1134 C1135 1.327 . S
C1135 H1129 0.950 . S
C1135 C1134 1.327 . S
C1135 C1139 1.429 . S
C1136 C1119 1.574 1_556 S
C1136 H1130 0.949 . S
C1136 C1140 1.368 . S
C1137 C1118 1.429 . S
C1137 C1131 1.429 . S
C1137 C1138 1.523 . S
C1138 C1119 1.368 . S
C1138 C1132 1.368 1_554 S
C1138 C1137 1.523 . S
C1139 C1123 1.429 . S
C1139 C1135 1.429 . S
C1139 C1140 1.523 . S
C1140 C1124 1.368 . S
C1140 C1136 1.368 . S
C1140 C1139 1.523 . S
H1141 C1116 0.950 . S
H1142 C1118 0.950 . S
H1143 C1119 0.949 . S
H1144 C1121 0.950 . S
H1145 C1123 0.950 . S
C1146 C1147 1.349 . S
C1146 C1148 1.327 . S
C1146 H1171 0.950 . S
C1147 C1146 1.349 . S
C1147 C1163 1.349 . S
C1148 C1146 1.327 . S
C1148 C1167 1.429 . S
C1148 H1172 0.950 . S
C1149 C1166 1.574 . S
C1149 C1168 1.368 . S
C1149 H1173 0.949 . S
H1150 C1154 0.949 . S
C1151 C1152 1.349 . S
C1151 C1153 1.327 . S
C1151 H1174 0.950 . S
C1152 C1151 1.349 . S
C1152 C1164 1.349 . S
C1153 C1151 1.327 . S
C1153 C1169 1.429 . S
C1153 H1175 0.950 . S
C1154 H1150 0.949 . S
C1154 C1162 1.574 . S
C1154 C1170 1.368 . S
H1155 C1163 0.950 . S
H1156 C1161 0.950 . S
H1157 C1162 0.949 . S
H1158 C1164 0.950 . S
H1159 C1165 0.950 . S
H1160 C1166 0.949 . S
C1161 H1156 0.950 . S
C1161 C1163 1.327 . S
C1161 C1167 1.429 . S
C1162 C1154 1.574 . S
C1162 H1157 0.949 . S
C1162 C1168 1.368 . S
C1163 C1147 1.349 . S
C1163 H1155 0.950 . S
C1163 C1161 1.327 . S
C1164 C1152 1.349 . S
C1164 H1158 0.950 . S
C1164 C1165 1.327 . S
C1165 H1159 0.950 . S
C1165 C1164 1.327 . S
C1165 C1169 1.429 . S
C1166 C1149 1.574 . S
C1166 H1160 0.949 . S
C1166 C1170 1.368 . S
C1167 C1148 1.429 . S
C1167 C1161 1.429 . S
C1167 C1168 1.523 . S
C1168 C1149 1.368 . S
C1168 C1162 1.368 . S
C1168 C1167 1.523 . S
C1169 C1153 1.429 . S
C1169 C1165 1.429 . S
C1169 C1170 1.523 . S
C1170 C1154 1.368 . S
C1170 C1166 1.368 . S
C1170 C1169 1.523 . S
H1171 C1146 0.950 . S
H1172 C1148 0.950 . S
H1173 C1149 0.949 . S
H1174 C1151 0.950 . S
H1175 C1153 0.950 . S
C462 C449 1.517 . S
C457 C29 1.434 . S
C487 C115 1.402 . S
C492 C378 1.404 . S
C517 C153 1.458 . S
C522 C392 1.534 . S
C547 C239 1.375 . S
C552 C406 1.379 . S
C582 C420 1.462 . S
C577 C301 1.460 . S
C607 C339 1.702 . S
C612 C435 1.802 . S
C637 C91 1.458 . S
C642 C393 1.535 . S
C667 C177 1.402 . S
C672 C407 1.404 . S
C697 C215 1.434 . S
C702 C421 1.517 . S
C732 C434 1.802 . S
C727 C277 1.702 . S
C762 C448 1.462 . S
C757 C363 1.460 . S
C792 C379 1.379 . S
C787 C53 1.375 . S
C817 C35 1.610 . S
C822 C395 1.632 . S
C847 C109 1.439 . S
C852 C409 1.555 . S
C882 C423 1.486 . S
C877 C159 1.471 . S
C907 C233 1.668 . S
C912 C436 1.791 . S
C942 C450 1.601 . S
C937 C295 1.467 . S
C972 C381 1.450 . S
C967 C345 1.439 . S
C1002 C451 1.486 . S
C997 C97 1.471 . S
C1027 C171 1.439 . S
C1032 C380 1.555 . S
C1062 C394 1.633 . S
C1057 C221 1.611 . S
C1087 C283 1.439 . S
C1092 C408 1.450 . S
C1117 C357 1.467 . S
C1122 C422 1.601 . S
C1147 C47 1.667 . S
C1152 C437 1.790 . S
