# Generated by pormake.
# Topology tsx, (6,3)-cn, num edge types: 1
# Building blocks:
#     Node 0, Type 0, BuildingBlock: FUNLAD_clean_sbu_0, # of connection points: 6
#     Node 1, Type 0, BuildingBlock: FUNLAD_clean_sbu_0, # of connection points: 6
#     Node 2, Type 1, BuildingBlock: MIDCAF_clean_linker_0, # of connection points: 3
#     Node 3, Type 1, BuildingBlock: MIDCAF_clean_linker_0, # of connection points: 3
#     Node 4, Type 1, BuildingBlock: MIDCAF_clean_linker_0, # of connection points: 3
#     Node 5, Type 1, BuildingBlock: MIDCAF_clean_linker_0, # of connection points: 3
#     Edge 6, Type (0, 1), BuildingBlock: ZUJKAS_clean_linker_0, # of connection points: 2
#     Edge 7, Type (0, 1), BuildingBlock: ZUJKAS_clean_linker_0, # of connection points: 2
#     Edge 8, Type (0, 1), BuildingBlock: ZUJKAS_clean_linker_0, # of connection points: 2
#     Edge 9, Type (0, 1), BuildingBlock: ZUJKAS_clean_linker_0, # of connection points: 2
#     Edge 10, Type (0, 1), BuildingBlock: ZUJKAS_clean_linker_0, # of connection points: 2
#     Edge 11, Type (0, 1), BuildingBlock: ZUJKAS_clean_linker_0, # of connection points: 2
#     Edge 12, Type (0, 1), BuildingBlock: ZUJKAS_clean_linker_0, # of connection points: 2
#     Edge 13, Type (0, 1), BuildingBlock: ZUJKAS_clean_linker_0, # of connection points: 2
#     Edge 14, Type (0, 1), BuildingBlock: ZUJKAS_clean_linker_0, # of connection points: 2
#     Edge 15, Type (0, 1), BuildingBlock: ZUJKAS_clean_linker_0, # of connection points: 2
#     Edge 16, Type (0, 1), BuildingBlock: ZUJKAS_clean_linker_0, # of connection points: 2
#     Edge 17, Type (0, 1), BuildingBlock: ZUJKAS_clean_linker_0, # of connection points: 2
# Relax obj value: 0.166
# Max RMSD: 0.156
# Mean RMSD: 0.096
data_MOF--net-tsx--node1-FUNLAD_clean_sbu_0--node2-MIDCAF_clean_linker_0--edge1-ZUJKAS_clean_linker_0
_symmetry_space_group_name_H-M    P1
_symmetry_Int_Tables_number       1
_symmetry_cell_setting            triclinic
loop_
_symmetry_equiv_pos_as_xyz
'x, y, z'
_cell_length_a     28.95489
_cell_length_b     32.23028
_cell_length_c     60.565508
_cell_angle_alpha  91.112817
_cell_angle_beta   91.989668
_cell_angle_gamma 89.939522
loop_
_atom_site_label
_atom_site_type_symbol
_atom_site_fract_x
_atom_site_fract_y
_atom_site_fract_z
_atom_type_partial_charge
C0 C 0.92643 0.94447 0.0002 0.0
N1 N -0.00361 0.00349 0.05404 0.0
C2 C 0.95588 0.0024 0.06474 0.0
C3 C 0.95601 0.00112 0.08776 0.0
C4 C -0.00176 0.00105 0.0999 0.0
C5 C 0.03951 0.00235 0.08842 0.0
C6 C 0.03778 0.00351 0.06538 0.0
Zn7 Zn 0.99503 0.00467 0.02035 0.0
C8 C 0.06114 0.94498 0.00145 0.0
N9 N 0.99158 0.00676 0.94991 0.0
C10 C 0.95096 0.00546 0.93793 0.0
C11 C 0.0328 0.00826 0.93984 0.0
C12 C 0.03429 0.00836 0.91686 0.0
C13 C 0.99299 0.00655 0.90401 0.0
C14 C 0.95087 0.00525 0.91485 0.0
Zn15 Zn 0.99214 0.00579 0.98362 0.0
O16 O 0.943 0.95801 0.01869 0.0
C17 C 0.92618 0.06557 0.00299 0.0
O18 O 0.94116 0.95916 0.98246 0.0
H19 H 0.06471 0.0093 0.94965 0.0
H20 H 0.92336 0.00254 0.0554 0.0
H21 H 0.91859 0.00424 0.94628 0.0
O22 O 0.94382 0.05105 0.02072 0.0
O23 O 0.93996 0.05207 0.98447 0.0
H24 H 0.06957 0.00423 0.05653 0.0
O25 O 0.04313 0.05235 0.98508 0.0
O26 O 0.04723 0.05121 0.02128 0.0
O27 O 0.04444 0.95947 0.9835 0.0
O28 O 0.0462 0.95837 0.01971 0.0
C29 C 0.061 0.06573 0.00328 0.0
H30 H 0.92338 0.00068 0.09597 0.0
H31 H 0.07281 0.00185 0.09712 0.0
H32 H 0.06754 0.01014 0.90928 0.0
H33 H 0.91821 0.00336 0.90563 0.0
C34 C 0.42472 0.4492 0.5 0.0
N35 N 0.4985 0.50565 0.55344 0.0
C36 C 0.45822 0.50764 0.56433 0.0
C37 C 0.4586 0.5066 0.58736 0.0
C38 C 0.50084 0.50333 0.59936 0.0
C39 C 0.54188 0.50144 0.58766 0.0
C40 C 0.53992 0.50272 0.56462 0.0
Zn41 Zn 0.49672 0.5064 0.51971 0.0
C42 C 0.55809 0.44273 0.50087 0.0
N43 N 0.49262 0.50744 0.44918 0.0
C44 C 0.45173 0.50954 0.43749 0.0
C45 C 0.53348 0.50499 0.43879 0.0
C46 C 0.53426 0.50427 0.41577 0.0
C47 C 0.49259 0.50603 0.40324 0.0
C48 C 0.45091 0.50891 0.4144 0.0
Zn49 Zn 0.49374 0.50707 0.48294 0.0
O50 O 0.44234 0.46212 0.5184 0.0
C51 C 0.43228 0.57066 0.50236 0.0
O52 O 0.43957 0.46339 0.48216 0.0
H53 H 0.56562 0.50346 0.44838 0.0
H54 H 0.42568 0.51001 0.55512 0.0
H55 H 0.41965 0.51137 0.44609 0.0
O56 O 0.44847 0.55501 0.52007 0.0
O57 O 0.44529 0.5565 0.48383 0.0
H58 H 0.57153 0.50109 0.55564 0.0
O59 O 0.54804 0.55059 0.48403 0.0
O60 O 0.55136 0.55043 0.52027 0.0
O61 O 0.54221 0.45754 0.48284 0.0
O62 O 0.54482 0.45783 0.51907 0.0
C63 C 0.56625 0.56373 0.50221 0.0
H64 H 0.42616 0.50875 0.59568 0.0
H65 H 0.57518 0.49837 0.59617 0.0
H66 H 0.56723 0.50267 0.40788 0.0
H67 H 0.41797 0.50991 0.4054 0.0
C68 C 0.85937 0.09287 0.45014 0.0
C69 C 0.86287 0.10196 0.4729 0.0
C70 C 0.89935 0.08469 0.48558 0.0
C71 C 0.93234 0.05962 0.47553 0.0
H72 H 0.03564 0.97047 0.4875 0.0
H73 H 0.09178 0.92779 0.50788 0.0
H74 H 0.16772 0.9093 0.44829 0.0
H75 H 0.11255 0.95197 0.42814 0.0
H76 H 0.06177 0.96498 0.38209 0.0
H77 H 0.06234 0.96327 0.34187 0.0
H78 H 0.94108 0.04142 0.33925 0.0
H79 H 0.94073 0.04381 0.3794 0.0
H80 H 0.88889 0.06249 0.42243 0.0
H81 H 0.83208 0.10624 0.43985 0.0
H82 H 0.9027 0.091 0.50319 0.0
H83 H 0.96053 0.04737 0.48567 0.0
N84 N -0.00045 0.008 0.45345 0.0
N85 N 0.03394 0.98604 0.42072 0.0
N86 N 0.96699 0.02665 0.41906 0.0
C87 C 0.0336 0.98698 0.44316 0.0
C88 C 0.00075 0.00579 0.40854 0.0
C89 C 0.96612 0.02794 0.44147 0.0
C90 C 0.06932 0.96427 0.45613 0.0
C91 C 0.06468 0.95771 0.47885 0.0
C92 C 0.09671 0.93323 0.49052 0.0
C93 C 0.13418 0.91528 0.4797 0.0
C94 C 0.13966 0.92322 0.45721 0.0
C95 C 0.10764 0.94737 0.44557 0.0
C96 C 0.00122 0.00457 0.38406 0.0
C97 C 0.03522 0.98188 0.37298 0.0
C98 C 0.03543 0.98067 0.34991 0.0
C99 C 0.00177 0.00222 0.33739 0.0
C100 C 0.96785 0.02493 0.34844 0.0
C101 C 0.96753 0.02607 0.37149 0.0
C102 C 0.9296 0.05171 0.45259 0.0
C103 C 0.89231 0.06808 0.4401 0.0
C104 C 0.94953 0.84815 0.55195 0.0
C105 C 0.93673 0.85144 0.52948 0.0
C106 C 0.95312 0.88522 0.51765 0.0
C107 C 0.98087 0.91561 0.52831 0.0
H108 H 0.06582 0.02159 0.51917 0.0
H109 H 0.11103 0.07435 0.5009 0.0
H110 H 0.17188 0.1128 0.56412 0.0
H111 H 0.12762 0.06051 0.58225 0.0
H112 H 0.07638 0.039 0.62541 0.0
H113 H 0.06973 0.04443 0.66534 0.0
H114 H 0.98404 0.93472 0.66381 0.0
H115 H 0.99126 0.92867 0.62402 0.0
H116 H 0.9851 0.87523 0.58004 0.0
H117 H 0.93693 0.8229 0.56163 0.0
H118 H 0.94392 0.88843 0.50028 0.0
H119 H 0.99212 0.94181 0.51896 0.0
N120 N 0.04238 0.97505 0.55223 0.0
N121 N 0.06283 0.00812 0.58606 0.0
N122 N 0.01565 0.94936 0.58545 0.0
C123 C 0.06535 0.00584 0.56369 0.0
C124 C 0.03794 0.9801 0.59707 0.0
C125 C 0.01767 0.94651 0.56311 0.0
C126 C 0.09304 0.0368 0.55218 0.0
C127 C 0.08912 0.04113 0.52911 0.0
C128 C 0.11478 0.07141 0.51866 0.0
C129 C 0.14519 0.09743 0.53108 0.0
C130 C 0.14931 0.09275 0.55406 0.0
C131 C 0.12355 0.06293 0.56448 0.0
C132 C 0.03442 0.98335 0.62142 0.0
C133 C 0.0562 0.01592 0.63355 0.0
C134 C 0.05216 0.01923 0.65645 0.0
C135 C 0.02634 0.99002 0.66776 0.0
C136 C 0.00468 0.95743 0.65565 0.0
C137 C 0.00866 0.95412 0.63277 0.0
C138 C 0.99215 0.91293 0.55101 0.0
C139 C 0.97681 0.87849 0.56258 0.0
C140 C 0.42232 0.64266 0.95006 0.0
C141 C 0.41262 0.64161 0.9726 0.0
C142 C 0.42908 0.60816 0.98518 0.0
C143 C 0.45362 0.57581 0.97522 0.0
H144 H 0.54048 0.47224 0.98719 0.0
H145 H 0.57883 0.41611 0.00733 0.0
H146 H 0.58507 0.34408 0.94658 0.0
H147 H 0.54646 0.39932 0.92665 0.0
H148 H 0.54683 0.44925 0.88148 0.0
H149 H 0.54841 0.44773 0.8413 0.0
H150 H 0.46377 0.55816 0.83908 0.0
H151 H 0.46315 0.56043 0.87918 0.0
H152 H 0.45237 0.612 0.92258 0.0
H153 H 0.40957 0.66767 0.93982 0.0
H154 H 0.42243 0.60671 0.00264 0.0
H155 H 0.46508 0.55008 0.98526 0.0
N156 N 0.50183 0.5085 0.95302 0.0
N157 N 0.52173 0.47442 0.92009 0.0
N158 N 0.48519 0.53909 0.91884 0.0
C159 C 0.52076 0.47528 0.94253 0.0
C160 C 0.50404 0.50621 0.90812 0.0
C161 C 0.48395 0.54056 0.94124 0.0
C162 C 0.54079 0.44047 0.95526 0.0
C163 C 0.54952 0.44418 0.97821 0.0
C164 C 0.57157 0.41212 0.98974 0.0
C165 C 0.58489 0.37565 0.97855 0.0
C166 C 0.57461 0.37147 0.95578 0.0
C167 C 0.5529 0.40345 0.94428 0.0
C168 C 0.50493 0.505 0.88364 0.0
C169 C 0.52857 0.47326 0.87245 0.0
C170 C 0.52929 0.47224 0.84938 0.0
C171 C 0.50625 0.50283 0.83694 0.0
C172 C 0.48253 0.53449 0.84814 0.0
C173 C 0.48197 0.53563 0.87119 0.0
C174 C 0.46175 0.57621 0.95245 0.0
C175 C 0.44656 0.61042 0.94012 0.0
C176 C 0.44767 0.34703 0.05008 0.0
C177 C 0.43355 0.35111 0.02781 0.0
C178 C 0.44844 0.38578 0.01624 0.0
C179 C 0.47563 0.41642 0.027 0.0
H180 H 0.55298 0.52767 0.01859 0.0
H181 H 0.59711 0.58121 0.00031 0.0
H182 H 0.66731 0.61251 0.06246 0.0
H183 H 0.62386 0.55954 0.08064 0.0
H184 H 0.57107 0.53873 0.12445 0.0
H185 H 0.56354 0.54417 0.16433 0.0
H186 H 0.48069 0.43271 0.16261 0.0
H187 H 0.4874 0.42751 0.12274 0.0
H188 H 0.48375 0.37378 0.07814 0.0
H189 H 0.43629 0.32104 0.05958 0.0
H190 H 0.43831 0.38959 -0.00099 0.0
H191 H 0.48546 0.4434 0.01788 0.0
N192 N 0.53613 0.47643 0.05099 0.0
N193 N 0.55656 0.50905 0.08494 0.0
N194 N 0.5113 0.44904 0.08418 0.0
C195 C 0.55843 0.50748 0.06254 0.0
C196 C 0.53291 0.48007 0.09589 0.0
C197 C 0.51276 0.4469 0.06179 0.0
C198 C 0.58495 0.53929 0.05107 0.0
C199 C 0.57804 0.54586 0.02829 0.0
C200 C 0.60306 0.57657 0.01784 0.0
C201 C 0.63586 0.60069 0.02995 0.0
C202 C 0.64276 0.59394 0.05265 0.0
C203 C 0.61753 0.56376 0.0631 0.0
C204 C 0.52975 0.48273 0.12029 0.0
C205 C 0.55129 0.51529 0.13253 0.0
C206 C 0.54718 0.51834 0.15544 0.0
C207 C 0.5214 0.48895 0.16664 0.0
C208 C 0.50022 0.45621 0.15444 0.0
C209 C 0.50435 0.45312 0.13156 0.0
C210 C 0.48802 0.41304 0.04955 0.0
C211 C 0.4745 0.3776 0.06081 0.0
H212 H 0.11027 0.09876 0.03883 0.0
H213 H 0.17363 0.14889 0.0383 0.0
H214 H 0.15946 0.1535 0.96727 0.0
H215 H 0.09661 0.10306 0.96756 0.0
H216 H 0.25031 0.14435 0.98239 0.0
H217 H 0.16399 0.27331 0.02674 0.0
H218 H 0.16406 0.22535 0.04133 0.0
H219 H 0.13277 0.22901 0.01527 0.0
C220 C 0.12042 0.11065 0.02311 0.0
C221 C 0.09825 0.09708 0.00325 0.0
C222 C 0.15649 0.13941 0.02284 0.0
C223 C 0.17075 0.15529 0.00276 0.0
C224 C 0.14881 0.14173 0.98293 0.0
H225 H 0.35622 0.36795 0.00244 0.0
H226 H 0.29353 0.31999 0.99182 0.0
C227 C 0.11282 0.11297 0.98316 0.0
C228 C 0.20939 0.18526 0.00238 0.0
H229 H 0.2452 0.2798 0.02252 0.0
C230 C 0.24911 0.17415 0.99099 0.0
C231 C 0.20735 0.22438 0.01326 0.0
C232 C 0.16459 0.23899 0.02466 0.0
C233 C 0.28762 0.20056 0.9909 0.0
C234 C 0.28648 0.23872 0.00278 0.0
C235 C 0.24611 0.25043 0.01349 0.0
C236 C 0.32747 0.266 0.00557 0.0
C237 C 0.32911 0.18734 0.9781 0.0
C238 C 0.36785 0.2513 0.01625 0.0
C239 C 0.40386 0.27852 0.02214 0.0
C240 C 0.39992 0.32106 0.01768 0.0
C241 C 0.36052 0.3353 0.0059 0.0
C242 C 0.32452 0.308 -3e-05 0.0
H243 H 0.31932 0.16501 0.96454 0.0
H244 H 0.34645 0.21443 0.97095 0.0
H245 H 0.35427 0.17167 0.98939 0.0
H246 H 0.3706 0.21919 0.02108 0.0
H247 H 0.43398 0.2666 0.03104 0.0
H248 H 0.10216 0.90633 0.0368 0.0
H249 H 0.16363 0.8543 0.03633 0.0
H250 H 0.16544 0.86025 0.96529 0.0
H251 H 0.10351 0.91187 0.96552 0.0
H252 H 0.16412 0.77968 0.98112 0.0
H253 H 0.30043 0.8748 0.0246 0.0
H254 H 0.2473 0.8705 0.03885 0.0
H255 H 0.2479 0.89707 0.01306 0.0
C256 C 0.11566 0.89663 0.02106 0.0
C257 C 0.09804 0.91329 0.00118 0.0
C258 C 0.15097 0.86709 0.02086 0.0
C259 C 0.16948 0.85396 0.00082 0.0
C260 C 0.15169 0.8702 0.98094 0.0
H261 H 0.41499 0.72535 0.96632 0.0
H262 H 0.35624 0.77619 0.97635 0.0
C263 C 0.11633 0.89967 0.98111 0.0
C264 C 0.20668 0.82253 0.00039 0.0
H265 H 0.31923 0.80493 0.01621 0.0
C266 C 0.19799 0.78505 0.98887 0.0
C267 C 0.25083 0.82992 0.01042 0.0
C268 C 0.26251 0.87036 0.02229 0.0
C269 C 0.23248 0.75483 0.98684 0.0
C270 C 0.27657 0.76204 0.997 0.0
C271 C 0.28518 0.79937 0.00871 0.0
C272 C 0.31511 0.73259 0.99397 0.0
C273 C 0.22194 0.71614 0.97313 0.0
C274 C 0.31236 0.69172 0.00137 0.0
C275 C 0.34565 0.6625 0.99549 0.0
C276 C 0.3823 0.67384 0.98221 0.0
C277 C 0.38667 0.71555 0.97622 0.0
C278 C 0.35333 0.74466 0.98205 0.0
H279 H 0.18984 0.71944 0.96271 0.0
H280 H 0.25091 0.70849 0.96222 0.0
H281 H 0.21719 0.68966 0.98427 0.0
H282 H 0.28346 0.68205 0.01093 0.0
H283 H 0.34124 0.6306 0.00031 0.0
H284 H 0.88438 0.9088 0.96342 0.0
H285 H 0.82717 0.85293 0.96192 0.0
H286 H 0.83152 0.84924 0.03311 0.0
H287 H 0.88822 0.90537 0.03482 0.0
H288 H 0.83799 0.77385 0.97765 0.0
H289 H 0.69309 0.8532 0.01819 0.0
H290 H 0.74157 0.88102 0.00772 0.0
H291 H 0.74614 0.85707 0.03431 0.0
C292 C 0.87288 0.89635 0.97878 0.0
C293 C 0.89082 0.91157 -0.00074 0.0
C294 C 0.84018 0.86446 0.97787 0.0
C295 C 0.82459 0.84743 0.99739 0.0
C296 C 0.8423 0.86262 0.01785 0.0
H297 H 0.72836 0.61454 0.03416 0.0
H298 H 0.77113 0.67409 0.02133 0.0
C299 C 0.87498 0.8945 0.01879 0.0
C300 C 0.79195 0.81207 0.99649 0.0
H301 H 0.69083 0.77849 0.01721 0.0
C302 C 0.80543 0.77503 0.98598 0.0
C303 C 0.74907 0.8139 0.00696 0.0
C304 C 0.73134 0.85358 0.01722 0.0
C305 C 0.77851 0.73898 0.98689 0.0
C306 C 0.7375 0.73998 -0.0011 0.0
C307 C 0.72254 0.77768 0.00818 0.0
C308 C 0.71232 0.70164 0.0041 0.0
C309 C 0.79473 0.69994 0.97541 0.0
C310 C 0.66499 0.69736 0.99868 0.0
C311 C 0.64034 0.66332 0.00613 0.0
C312 C 0.66262 0.63351 0.01938 0.0
C313 C 0.7103 0.63722 0.0241 0.0
C314 C 0.73486 0.67101 0.01659 0.0
H315 H 0.81663 0.70724 0.96128 0.0
H316 H 0.81593 0.68147 0.98726 0.0
H317 H 0.76511 0.6806 0.96926 0.0
H318 H 0.64693 0.72091 0.98921 0.0
H319 H 0.60353 0.66135 0.00242 0.0
H320 H 0.88044 0.10333 0.96856 0.0
H321 H 0.82121 0.15728 0.97065 0.0
H322 H 0.83116 0.15511 0.04183 0.0
H323 H 0.88998 0.10081 0.03996 0.0
H324 H 0.74012 0.15527 0.02484 0.0
H325 H 0.8444 0.27911 0.98849 0.0
H326 H 0.84096 0.23268 0.97165 0.0
H327 H 0.86954 0.23144 0.99848 0.0
C328 C 0.87011 0.11436 0.98466 0.0
C329 C 0.89013 0.09797 0.00409 0.0
C330 C 0.83644 0.14531 0.98583 0.0
C331 C 0.82243 0.16058 0.0064 0.0
C332 C 0.84175 0.14386 0.02581 0.0
H333 H 0.65839 0.38725 0.00752 0.0
H334 H 0.71414 0.33486 0.01991 0.0
C335 C 0.8754 0.1129 0.02468 0.0
C336 C 0.78723 0.19375 0.0076 0.0
H337 H 0.7634 0.29182 0.99052 0.0
C338 C 0.7453 0.18534 0.01757 0.0
C339 C 0.79454 0.23319 0.99854 0.0
C340 C 0.83997 0.24489 0.98889 0.0
C341 C 0.70951 0.21475 0.01775 0.0
C342 C 0.71575 0.25319 0.0074 0.0
C343 C 0.75852 0.26224 0.99837 0.0
C344 C 0.67759 0.28326 0.004 0.0
C345 C 0.66533 0.20426 0.02888 0.0
C346 C 0.6378 0.27142 0.99159 0.0
C347 C 0.60571 0.3012 0.98468 0.0
C348 C 0.61314 0.34345 0.98981 0.0
C349 C 0.65148 0.35493 0.00344 0.0
C350 C 0.68353 0.32506 0.01042 0.0
H351 H 0.67157 0.18136 0.04214 0.0
H352 H 0.6491 0.23237 0.03614 0.0
H353 H 0.64062 0.19016 0.0165 0.0
H354 H 0.63287 0.23951 0.98609 0.0
H355 H 0.57621 0.2914 0.97439 0.0
H356 H 0.6024 0.60104 0.46656 0.0
H357 H 0.66593 0.65086 0.46645 0.0
H358 H 0.68083 0.64434 0.5374 0.0
H359 H 0.61674 0.59499 0.53775 0.0
H360 H 0.68065 0.72472 0.52205 0.0
H361 H 0.80342 0.62557 0.4762 0.0
H362 H 0.74798 0.63243 0.46252 0.0
H363 H 0.75209 0.60511 0.4881 0.0
C364 C 0.61923 0.61012 0.48216 0.0
C365 C 0.60461 0.59396 0.50218 0.0
C366 C 0.65571 0.6384 0.48203 0.0
C367 C 0.67851 0.65074 0.50187 0.0
C368 C 0.66376 0.63501 0.5219 0.0
H369 H 0.93655 0.76723 0.53365 0.0
H370 H 0.87337 0.71964 0.5235 0.0
C371 C 0.62717 0.60682 0.52207 0.0
C372 C 0.71713 0.68077 0.50191 0.0
H373 H 0.82683 0.69461 0.48444 0.0
C374 C 0.71256 0.71828 0.51375 0.0
C375 C 0.75874 0.67204 0.49115 0.0
C376 C 0.76622 0.63148 0.47892 0.0
C377 C 0.74875 0.74715 0.51543 0.0
C378 C 0.79029 0.73858 0.50455 0.0
C379 C 0.79469 0.70127 0.49248 0.0
C380 C 0.83095 0.76619 0.50739 0.0
C381 C 0.74285 0.78577 0.52957 0.0
C382 C 0.82888 0.80767 0.50078 0.0
C383 C 0.8648 0.83506 0.50674 0.0
C384 C 0.90338 0.82123 0.51929 0.0
C385 C 0.90686 0.77891 0.52432 0.0
C386 C 0.87094 0.75165 0.51843 0.0
H387 H 0.71283 0.78338 0.54042 0.0
H388 H 0.77435 0.79193 0.5401 0.0
H389 H 0.73702 0.81278 0.51874 0.0
H390 H 0.79862 0.81925 0.49185 0.0
H391 H 0.86108 0.86749 0.50265 0.0
H392 H 0.58967 0.39966 0.46511 0.0
H393 H 0.64219 0.34018 0.4653 0.0
H394 H 0.65376 0.34755 0.53646 0.0
H395 H 0.60078 0.40661 0.53651 0.0
H396 H 0.73283 0.33597 0.48234 0.0
H397 H 0.61791 0.22593 0.52382 0.0
H398 H 0.59711 0.27386 0.51216 0.0
H399 H 0.62819 0.27435 0.53835 0.0
C400 C 0.60333 0.38861 0.4808 0.0
C401 C 0.59088 0.40766 0.50079 0.0
C402 C 0.6333 0.35467 0.48088 0.0
C403 C 0.65118 0.33919 0.50091 0.0
C404 C 0.63951 0.35855 0.52087 0.0
H405 H 0.88336 0.16575 0.50197 0.0
H406 H 0.83213 0.22242 0.51288 0.0
C407 C 0.60946 0.39242 0.52083 0.0
C408 C 0.68273 0.30319 0.50078 0.0
H409 H 0.69316 0.20224 0.51624 0.0
C410 C 0.72436 0.30677 0.48984 0.0
C411 C 0.6712 0.26518 0.51049 0.0
C412 C 0.62602 0.25928 0.52172 0.0
C413 C 0.75466 0.27307 0.48804 0.0
C414 C 0.74331 0.2351 0.49786 0.0
C415 C 0.70191 0.23163 0.50903 0.0
C416 C 0.77211 0.19774 0.49486 0.0
C417 C 0.79765 0.27794 0.47491 0.0
C418 C 0.75445 0.16408 0.48225 0.0
C419 C 0.78338 0.13146 0.47624 0.0
C420 C 0.83046 0.13207 0.48274 0.0
C421 C 0.84722 0.16437 0.49675 0.0
C422 C 0.81817 0.19695 0.50282 0.0
H423 H 0.79637 0.30627 0.46474 0.0
H424 H 0.82822 0.2804 0.48643 0.0
H425 H 0.80262 0.25058 0.46382 0.0
H426 H 0.71884 0.16404 0.47612 0.0
H427 H 0.76935 0.10658 0.46578 0.0
H428 H 0.38801 0.40974 0.53485 0.0
H429 H 0.33433 0.35122 0.53344 0.0
H430 H 0.32698 0.35563 0.46228 0.0
H431 H 0.38117 0.41392 0.46347 0.0
H432 H 0.24385 0.34328 0.51457 0.0
H433 H 0.36859 0.23578 0.47517 0.0
H434 H 0.38602 0.2849 0.48759 0.0
H435 H 0.35646 0.28331 0.46104 0.0
C436 C 0.37479 0.39849 0.51889 0.0
C437 C 0.38919 0.41624 0.49927 0.0
C438 C 0.34407 0.36509 0.51812 0.0
C439 C 0.32729 0.34879 0.49775 0.0
C440 C 0.34021 0.36735 0.47815 0.0
H441 H 0.11419 0.1536 0.50058 0.0
H442 H 0.15596 0.21437 0.48775 0.0
C443 C 0.371 0.40076 0.47889 0.0
C444 C 0.29745 0.31155 0.49723 0.0
H445 H 0.29657 0.20812 0.48394 0.0
C446 C 0.25498 0.3138 0.50763 0.0
C447 C 0.31242 0.27319 0.48825 0.0
C448 C 0.35848 0.26879 0.47751 0.0
C449 C 0.22765 0.27834 0.50997 0.0
C450 C 0.24302 0.23981 0.50135 0.0
C451 C 0.28477 0.23783 0.4903 0.0
C452 C 0.2193 0.20055 0.50619 0.0
C453 C 0.18383 0.28197 0.52266 0.0
C454 C 0.24187 0.17178 0.51987 0.0
C455 C 0.21836 0.1371 0.52703 0.0
C456 C 0.17181 0.13049 0.5206 0.0
C457 C 0.15006 0.15794 0.50577 0.0
C458 C 0.17369 0.1928 0.4986 0.0
H459 H 0.18096 0.31251 0.53134 0.0
H460 H 0.15354 0.27836 0.51105 0.0
H461 H 0.18218 0.25711 0.53505 0.0
H462 H 0.27716 0.17709 0.52579 0.0
H463 H 0.23619 0.11608 0.53817 0.0
H464 H 0.39707 0.61673 0.46826 0.0
H465 H 0.34477 0.67617 0.47062 0.0
H466 H 0.34006 0.66241 0.54121 0.0
H467 H 0.39294 0.60347 0.53911 0.0
H468 H 0.2562 0.67999 0.48643 0.0
H469 H 0.37559 0.78435 0.53519 0.0
H470 H 0.39487 0.73731 0.52172 0.0
H471 H 0.36533 0.73487 0.54726 0.0
C472 C 0.38494 0.62636 0.48429 0.0
C473 C 0.39939 0.6056 0.50351 0.0
C474 C 0.35509 0.66028 0.48561 0.0
C475 C 0.33922 0.67401 0.50614 0.0
C476 C 0.35275 0.65284 0.52528 0.0
H477 H 0.1107 0.85236 0.5068 0.0
H478 H 0.15986 0.79432 0.51839 0.0
C479 C 0.38276 0.61903 0.52401 0.0
C480 C 0.30803 0.71025 0.50732 0.0
H481 H 0.3005 0.80983 0.52714 0.0
C482 C 0.26565 0.70831 0.49545 0.0
C483 C 0.32078 0.74711 0.51904 0.0
C484 C 0.36676 0.75137 0.53139 0.0
C485 C 0.23598 0.74264 0.49451 0.0
C486 C 0.2487 0.77957 0.50621 0.0
C487 C 0.29067 0.78124 0.51847 0.0
C488 C 0.22133 0.81802 0.5037 0.0
C489 C 0.19238 0.73966 0.48014 0.0
C490 C 0.24055 0.85177 0.49302 0.0
C491 C 0.21283 0.88517 0.48669 0.0
C492 C 0.16539 0.88527 0.49088 0.0
C493 C 0.14713 0.85314 0.50332 0.0
C494 C 0.17502 0.81977 0.50975 0.0
H495 H 0.19244 0.71201 0.4689 0.0
H496 H 0.16213 0.73722 0.49079 0.0
H497 H 0.18787 0.7678 0.46999 0.0
H498 H 0.27637 0.85116 0.4884 0.0
H499 H 0.22801 0.90993 0.47751 0.0
H500 H 0.05379 0.04526 0.12925 0.0
H501 H 0.05505 0.04294 0.16961 0.0
H502 H 0.94608 0.95169 0.16631 0.0
H503 H 0.94466 0.95371 0.12592 0.0
H504 H 0.9305 0.01576 0.19626 0.0
H505 H 0.10678 0.95081 0.20887 0.0
H506 H 0.10472 -0.00339 0.19245 0.0
H507 H 0.07655 0.94999 0.18229 0.0
C508 C 0.03048 0.02432 0.13711 0.0
C509 C -0.00077 -0.00044 0.12439 0.0
C510 C 0.03128 0.02301 0.16016 0.0
C511 C 0.00114 -0.00332 0.17091 0.0
C512 C 0.96971 0.97212 0.1583 0.0
H513 H 0.01652 0.93507 0.31017 0.0
H514 H 0.0156 0.9331 0.26973 0.0
C515 C 0.96881 0.97347 0.13525 0.0
C516 C 0.00138 -0.00431 0.19533 0.0
H517 H 0.07004 0.97642 0.24095 0.0
C518 C 0.96092 0.00699 0.20605 0.0
C519 C 0.04095 0.9837 0.20801 0.0
C520 C 0.0846 0.9692 0.19735 0.0
C521 C 0.95923 0.00744 0.22917 0.0
C522 C -0.00066 -0.00301 0.24187 0.0
C523 C 0.0395 0.98484 0.23115 0.0
C524 C 0.00028 -0.00158 0.26632 0.0
C525 C 0.91437 0.01861 0.23979 0.0
C526 C 0.9927 0.03594 0.27775 0.0
C527 C 0.9933 0.03719 0.30082 0.0
C528 C 0.00187 0.00097 0.31288 0.0
C529 C 0.01022 0.96355 0.30136 0.0
C530 C 0.00951 0.96233 0.27827 0.0
H531 H 0.88435 0.0149 0.22798 0.0
H532 H 0.90867 -0.00089 0.25436 0.0
H533 H 0.91569 0.05155 0.24544 0.0
H534 H 0.9866 0.06434 0.26883 0.0
H535 H 0.9876 0.06663 0.30922 0.0
H536 H 0.93431 0.04552 0.87443 0.0
H537 H 0.93717 0.04423 0.83405 0.0
H538 H 0.0575 0.96551 0.83771 0.0
H539 H 0.0543 0.96555 0.87795 0.0
H540 H 0.06243 0.04049 0.80988 0.0
H541 H 0.9089 0.93984 0.79197 0.0
H542 H 0.9021 0.98272 0.8111 0.0
H543 H 0.93966 0.94054 0.81845 0.0
C544 C 0.96101 0.02745 0.86665 0.0
C545 C 0.99411 0.00567 0.87947 0.0
C546 C 0.96268 0.02692 0.8436 0.0
C547 C -0.00256 0.00466 0.833 0.0
C548 C 0.0305 0.98296 0.84566 0.0
H549 H 0.03051 0.9275 0.69767 0.0
H550 H 0.02262 0.93302 0.73768 0.0
C551 C 0.02874 0.98325 0.86866 0.0
C552 C -6e-05 0.00432 0.80868 0.0
H553 H 0.94693 0.96607 0.76139 0.0
C554 C 0.03713 0.02441 0.79922 0.0
C555 C 0.96701 0.98298 0.79498 0.0
C556 C 0.92722 0.96 0.80452 0.0
C557 C 0.04234 0.02368 0.77626 0.0
C558 C 0.00926 0.00254 0.76251 0.0
C559 C 0.97204 0.98245 0.77201 0.0
C560 C 0.01356 -0.00035 0.73827 0.0
C561 C 0.08376 0.04465 0.76694 0.0
C562 C 0.01065 0.03529 0.72537 0.0
C563 C 0.01496 0.03224 0.70248 0.0
C564 C 0.022 -0.00657 0.69209 0.0
C565 C 0.02457 0.95777 0.70511 0.0
C566 C 0.02025 0.96087 0.72797 0.0
H567 H 0.1108 0.05181 0.77992 0.0
H568 H 0.09916 0.02486 0.7539 0.0
H569 H 0.07271 0.07426 0.75934 0.0
H570 H 0.00469 0.06541 0.73299 0.0
H571 H 0.01205 0.06018 0.69288 0.0
H572 H 0.56281 0.54079 0.6286 0.0
H573 H 0.56463 0.53804 0.66894 0.0
H574 H 0.44314 0.46066 0.66609 0.0
H575 H 0.44148 0.46249 0.62571 0.0
H576 H 0.44001 0.53039 0.69628 0.0
H577 H 0.60002 0.43663 0.70755 0.0
H578 H 0.60507 0.48105 0.6903 0.0
H579 H 0.56793 0.43886 0.68148 0.0
C580 C 0.53684 0.52269 0.63651 0.0
C581 C 0.50206 0.50177 0.62389 0.0
C582 C 0.53791 0.52122 0.65956 0.0
C583 C 0.50433 0.49878 0.67042 0.0
C584 C 0.46941 0.47809 0.65796 0.0
H585 H 0.49911 0.43485 0.80908 0.0
H586 H 0.4987 0.43348 0.76865 0.0
C587 C 0.46838 0.4794 0.6349 0.0
C588 C 0.50483 0.49784 0.69484 0.0
H589 H 0.56838 0.46601 0.73995 0.0
C590 C 0.46797 0.51623 0.70585 0.0
C591 C 0.54117 0.47897 0.70719 0.0
C592 C 0.58067 0.45741 0.69609 0.0
C593 C 0.46693 0.51695 0.729 0.0
C594 C 0.50389 0.49908 0.74137 0.0
C595 C 0.54031 0.47996 0.73036 0.0
C596 C 0.50527 0.49997 0.7658 0.0
C597 C 0.42616 0.53648 0.74006 0.0
C598 C 0.50987 0.53777 0.7775 0.0
C599 C 0.51057 0.53867 0.80058 0.0
C600 C 0.50667 0.50172 0.81239 0.0
C601 C 0.5027 0.46381 0.80054 0.0
C602 C 0.5022 0.46296 0.77745 0.0
H603 H 0.39628 0.54063 0.7283 0.0
H604 H 0.41508 0.51728 0.75396 0.0
H605 H 0.43629 0.56747 0.7469 0.0
H606 H 0.5131 0.56658 0.76877 0.0
H607 H 0.51459 0.56829 0.80916 0.0
H608 H 0.43973 0.55149 0.37407 0.0
H609 H 0.44053 0.54885 0.33364 0.0
H610 H 0.54764 0.45586 0.33656 0.0
H611 H 0.54608 0.45731 0.37687 0.0
H612 H 0.51424 0.56519 0.30655 0.0
H613 H 0.45075 0.40393 0.29365 0.0
H614 H 0.44596 0.43192 0.31958 0.0
H615 H 0.49985 0.40823 0.31249 0.0
C616 C 0.46299 0.53006 0.3661 0.0
C617 C 0.49275 0.50452 0.3787 0.0
C618 C 0.46362 0.5288 0.34302 0.0
C619 C 0.49371 0.50177 0.33213 0.0
C620 C 0.52359 0.47643 0.34464 0.0
H621 H 0.58795 0.50902 0.19827 0.0
H622 H 0.57958 0.51401 0.23829 0.0
C623 C 0.52302 0.47766 0.36768 0.0
C624 C 0.49481 0.50082 0.3077 0.0
H625 H 0.48183 0.4365 0.26247 0.0
C626 C 0.50689 0.53715 0.29688 0.0
C627 C 0.48463 0.46432 0.29513 0.0
C628 C 0.46913 0.42497 0.30575 0.0
C629 C 0.51021 0.53768 0.27381 0.0
C630 C 0.50189 0.50072 0.26134 0.0
C631 C 0.48866 0.46468 0.27211 0.0
C632 C 0.50677 0.49869 0.23707 0.0
C633 C 0.52216 0.57787 0.263 0.0
C634 C 0.46884 0.48763 0.22317 0.0
C635 C 0.47353 0.48466 0.20031 0.0
C636 C 0.51636 0.4925 0.19093 0.0
C637 C 0.55434 0.50346 0.20494 0.0
C638 C 0.54961 0.50636 0.22781 0.0
H639 H 0.51524 0.60515 0.27389 0.0
H640 H 0.5595 0.5779 0.25945 0.0
H641 H 0.50226 0.58143 0.24714 0.0
H642 H 0.43551 0.48148 0.23001 0.0
H643 H 0.44348 0.47662 0.18997 0.0
loop_
_geom_bond_atom_site_label_1
_geom_bond_atom_site_label_2
_geom_bond_distance
_geom_bond_site_symmetry_2
_ccdc_geom_bond_type
C0 O16 1.251 . S
C0 O18 1.254 1_554 S
N1 C2 1.333 1_445 S
N1 C6 1.307 . S
N1 Zn7 2.020 . S
C2 N1 1.333 1_665 S
C2 C3 1.379 . S
C2 H20 0.952 . S
C3 C2 1.379 . S
C3 C4 1.390 1_665 S
C3 H30 0.949 . S
C4 C3 1.390 1_445 S
C4 C5 1.357 . S
C5 C4 1.357 . S
C5 C6 1.370 . S
C5 H31 0.950 . S
C6 N1 1.307 . S
C6 C5 1.370 . S
C6 H24 0.948 . S
Zn7 N1 2.020 . S
Zn7 O16 2.039 1_445 S
Zn7 O22 2.034 1_455 S
Zn7 O26 2.025 . S
Zn7 O28 2.024 1_545 S
C8 O27 1.246 1_554 S
C8 O28 1.249 . S
N9 C10 1.307 1_445 S
N9 C11 1.333 . S
N9 Zn15 2.020 . S
C10 N9 1.307 1_665 S
C10 C14 1.370 . S
C10 H21 0.948 . S
C11 N9 1.333 . S
C11 C12 1.379 . S
C11 H19 0.952 . S
C12 C11 1.379 . S
C12 C13 1.390 . S
C12 H32 0.949 . S
C13 C12 1.390 . S
C13 C14 1.357 1_445 S
C14 C10 1.370 . S
C14 C13 1.357 1_665 S
C14 H33 0.950 . S
Zn15 N9 2.020 . S
Zn15 O18 2.025 1_445 S
Zn15 O23 2.024 1_455 S
Zn15 O25 2.039 . S
Zn15 O27 2.034 1_545 S
O16 C0 1.251 . S
O16 Zn7 2.039 1_665 S
C17 O22 1.246 . S
C17 O23 1.249 1_554 S
O18 C0 1.254 1_556 S
O18 Zn15 2.025 1_665 S
H19 C11 0.952 . S
H20 C2 0.952 . S
H21 C10 0.948 . S
O22 Zn7 2.034 1_655 S
O22 C17 1.246 . S
O23 Zn15 2.024 1_655 S
O23 C17 1.249 1_556 S
H24 C6 0.948 . S
O25 Zn15 2.039 . S
O25 C29 1.251 1_556 S
O26 Zn7 2.025 . S
O26 C29 1.254 . S
O27 C8 1.246 1_556 S
O27 Zn15 2.034 1_565 S
O28 Zn7 2.024 1_565 S
O28 C8 1.249 . S
C29 O25 1.251 1_554 S
C29 O26 1.254 . S
H30 C3 0.949 . S
H31 C5 0.950 . S
H32 C12 0.949 . S
H33 C14 0.950 . S
C34 O50 1.251 . S
C34 O52 1.254 . S
N35 C36 1.333 . S
N35 C40 1.307 . S
N35 Zn41 2.020 . S
C36 N35 1.333 . S
C36 C37 1.379 . S
C36 H54 0.952 . S
C37 C36 1.379 . S
C37 C38 1.390 . S
C37 H64 0.949 . S
C38 C37 1.390 . S
C38 C39 1.357 . S
C39 C38 1.357 . S
C39 C40 1.370 . S
C39 H65 0.950 . S
C40 N35 1.307 . S
C40 C39 1.370 . S
C40 H58 0.948 . S
Zn41 N35 2.020 . S
Zn41 O50 2.039 . S
Zn41 O56 2.034 . S
Zn41 O60 2.025 . S
Zn41 O62 2.024 . S
C42 O61 1.246 . S
C42 O62 1.249 . S
N43 C44 1.307 . S
N43 C45 1.333 . S
N43 Zn49 2.020 . S
C44 N43 1.307 . S
C44 C48 1.370 . S
C44 H55 0.948 . S
C45 N43 1.333 . S
C45 C46 1.379 . S
C45 H53 0.952 . S
C46 C45 1.379 . S
C46 C47 1.390 . S
C46 H66 0.949 . S
C47 C46 1.390 . S
C47 C48 1.357 . S
C48 C44 1.370 . S
C48 C47 1.357 . S
C48 H67 0.950 . S
Zn49 N43 2.020 . S
Zn49 O52 2.025 . S
Zn49 O57 2.024 . S
Zn49 O59 2.039 . S
Zn49 O61 2.034 . S
O50 C34 1.251 . S
O50 Zn41 2.039 . S
C51 O56 1.246 . S
C51 O57 1.249 . S
O52 C34 1.254 . S
O52 Zn49 2.025 . S
H53 C45 0.952 . S
H54 C36 0.952 . S
H55 C44 0.948 . S
O56 Zn41 2.034 . S
O56 C51 1.246 . S
O57 Zn49 2.024 . S
O57 C51 1.249 . S
H58 C40 0.948 . S
O59 Zn49 2.039 . S
O59 C63 1.251 . S
O60 Zn41 2.025 . S
O60 C63 1.254 . S
O61 C42 1.246 . S
O61 Zn49 2.034 . S
O62 Zn41 2.024 . S
O62 C42 1.249 . S
C63 O59 1.251 . S
C63 O60 1.254 . S
H64 C37 0.949 . S
H65 C39 0.950 . S
H66 C46 0.949 . S
H67 C48 0.950 . S
C68 C69 1.384 . S
C68 H81 0.947 . S
C68 C103 1.382 . S
C69 C68 1.384 . S
C69 C70 1.378 . S
C70 C69 1.378 . S
C70 C71 1.378 . S
C70 H82 0.952 . S
C71 C70 1.378 . S
C71 H83 0.950 . S
C71 C102 1.383 . S
H72 C91 0.947 . S
H73 C92 0.946 . S
H74 C94 0.953 . S
H75 C95 0.945 . S
H76 C97 0.952 . S
H77 C98 0.949 . S
H78 C100 0.950 . S
H79 C101 0.948 . S
H80 C103 0.951 . S
H81 C68 0.947 . S
H82 C70 0.952 . S
H83 C71 0.950 . S
N84 C87 1.382 1_545 S
N84 C89 1.363 1_455 S
N85 C87 1.371 . S
N85 C88 1.372 1_565 S
N86 C88 1.361 1_655 S
N86 C89 1.377 . S
C87 N84 1.382 1_565 S
C87 N85 1.371 . S
C87 C90 1.480 . S
C88 N85 1.372 1_545 S
C88 N86 1.361 1_455 S
C88 C96 1.457 . S
C89 N84 1.363 1_655 S
C89 N86 1.377 . S
C89 C102 1.479 . S
C90 C87 1.480 . S
C90 C91 1.383 . S
C90 C95 1.385 . S
C91 H72 0.947 . S
C91 C90 1.383 . S
C91 C92 1.388 . S
C92 H73 0.946 . S
C92 C91 1.388 . S
C92 C93 1.384 . S
C93 C92 1.384 . S
C93 C94 1.377 . S
C94 H74 0.953 . S
C94 C93 1.377 . S
C94 C95 1.369 . S
C95 H75 0.945 . S
C95 C90 1.385 . S
C95 C94 1.369 . S
C96 C88 1.457 . S
C96 C97 1.372 1_545 S
C96 C101 1.364 1_455 S
C97 H76 0.952 . S
C97 C96 1.372 1_565 S
C97 C98 1.389 . S
C98 H77 0.949 . S
C98 C97 1.389 . S
C98 C99 1.398 1_565 S
C99 C98 1.398 1_545 S
C99 C100 1.361 1_455 S
C100 H78 0.950 . S
C100 C99 1.361 1_655 S
C100 C101 1.379 . S
C101 H79 0.948 . S
C101 C96 1.364 1_655 S
C101 C100 1.379 . S
C102 C71 1.383 . S
C102 C89 1.479 . S
C102 C103 1.398 . S
C103 C68 1.382 . S
C103 H80 0.951 . S
C103 C102 1.398 . S
C104 C105 1.384 . S
C104 H117 0.947 . S
C104 C139 1.382 . S
C105 C104 1.384 . S
C105 C106 1.378 . S
C106 C105 1.378 . S
C106 C107 1.378 . S
C106 H118 0.952 . S
C107 C106 1.378 . S
C107 H119 0.950 . S
C107 C138 1.383 . S
H108 C127 0.947 . S
H109 C128 0.946 . S
H110 C130 0.953 . S
H111 C131 0.945 . S
H112 C133 0.952 . S
H113 C134 0.949 . S
H114 C136 0.950 1_655 S
H115 C137 0.948 1_655 S
H116 C139 0.951 . S
H117 C104 0.947 . S
H118 C106 0.952 . S
H119 C107 0.950 . S
N120 C123 1.397 . S
N120 C125 1.347 1_445 S
N121 C123 1.371 . S
N121 C124 1.372 . S
N122 C124 1.360 1_665 S
N122 C125 1.377 . S
C123 N120 1.397 . S
C123 N121 1.371 . S
C123 C126 1.480 . S
C124 N121 1.372 . S
C124 N122 1.360 1_445 S
C124 C132 1.457 . S
C125 N120 1.347 1_665 S
C125 N122 1.377 . S
C125 C138 1.480 . S
C126 C123 1.480 . S
C126 C127 1.383 . S
C126 C131 1.385 . S
C127 H108 0.947 . S
C127 C126 1.383 . S
C127 C128 1.388 . S
C128 H109 0.946 . S
C128 C127 1.388 . S
C128 C129 1.384 . S
C129 C128 1.384 . S
C129 C130 1.377 . S
C130 H110 0.953 . S
C130 C129 1.377 . S
C130 C131 1.369 . S
C131 H111 0.945 . S
C131 C126 1.385 . S
C131 C130 1.369 . S
C132 C124 1.457 . S
C132 C133 1.372 . S
C132 C137 1.364 1_545 S
C133 H112 0.952 . S
C133 C132 1.372 . S
C133 C134 1.389 . S
C134 H113 0.949 . S
C134 C133 1.389 . S
C134 C135 1.387 . S
C135 C134 1.387 . S
C135 C136 1.372 1_545 S
C136 H114 0.950 1_455 S
C136 C135 1.372 1_565 S
C136 C137 1.379 . S
C137 H115 0.948 1_455 S
C137 C132 1.364 1_565 S
C137 C136 1.379 . S
C138 C107 1.383 . S
C138 C125 1.480 . S
C138 C139 1.398 . S
C139 C104 1.382 . S
C139 H116 0.951 . S
C139 C138 1.398 . S
C140 C141 1.384 . S
C140 H153 0.947 . S
C140 C175 1.382 . S
C141 C140 1.384 . S
C141 C142 1.378 . S
C142 C141 1.378 . S
C142 C143 1.378 . S
C142 H154 0.952 1_556 S
C143 C142 1.378 . S
C143 H155 0.950 . S
C143 C174 1.383 . S
H144 C163 0.947 . S
H145 C164 0.946 1_554 S
H146 C166 0.953 . S
H147 C167 0.945 . S
H148 C169 0.952 . S
H149 C170 0.949 . S
H150 C172 0.950 . S
H151 C173 0.948 . S
H152 C175 0.951 . S
H153 C140 0.947 . S
H154 C142 0.952 1_554 S
H155 C143 0.950 . S
N156 C159 1.382 . S
N156 C161 1.363 . S
N157 C159 1.371 . S
N157 C160 1.372 . S
N158 C160 1.361 . S
N158 C161 1.377 . S
C159 N156 1.382 . S
C159 N157 1.371 . S
C159 C162 1.480 . S
C160 N157 1.372 . S
C160 N158 1.361 . S
C160 C168 1.457 . S
C161 N156 1.363 . S
C161 N158 1.377 . S
C161 C174 1.479 . S
C162 C159 1.480 . S
C162 C163 1.383 . S
C162 C167 1.385 . S
C163 H144 0.947 . S
C163 C162 1.383 . S
C163 C164 1.388 . S
C164 H145 0.946 1_556 S
C164 C163 1.388 . S
C164 C165 1.384 . S
C165 C164 1.384 . S
C165 C166 1.377 . S
C166 H146 0.953 . S
C166 C165 1.377 . S
C166 C167 1.369 . S
C167 H147 0.945 . S
C167 C162 1.385 . S
C167 C166 1.369 . S
C168 C160 1.457 . S
C168 C169 1.372 . S
C168 C173 1.364 . S
C169 H148 0.952 . S
C169 C168 1.372 . S
C169 C170 1.389 . S
C170 H149 0.949 . S
C170 C169 1.389 . S
C170 C171 1.387 . S
C171 C170 1.387 . S
C171 C172 1.372 . S
C172 H150 0.950 . S
C172 C171 1.372 . S
C172 C173 1.379 . S
C173 H151 0.948 . S
C173 C168 1.364 . S
C173 C172 1.379 . S
C174 C143 1.383 . S
C174 C161 1.479 . S
C174 C175 1.398 . S
C175 C140 1.382 . S
C175 H152 0.951 . S
C175 C174 1.398 . S
C176 C177 1.384 . S
C176 H189 0.947 . S
C176 C211 1.382 . S
C177 C176 1.384 . S
C177 C178 1.378 . S
C178 C177 1.378 . S
C178 C179 1.378 . S
C178 H190 0.952 1_554 S
C179 C178 1.378 . S
C179 H191 0.950 . S
C179 C210 1.383 . S
H180 C199 0.947 . S
H181 C200 0.946 . S
H182 C202 0.953 . S
H183 C203 0.945 . S
H184 C205 0.952 . S
H185 C206 0.949 . S
H186 C208 0.950 . S
H187 C209 0.948 . S
H188 C211 0.951 . S
H189 C176 0.947 . S
H190 C178 0.952 1_556 S
H191 C179 0.950 . S
N192 C195 1.382 . S
N192 C197 1.363 . S
N193 C195 1.371 . S
N193 C196 1.372 . S
N194 C196 1.361 . S
N194 C197 1.377 . S
C195 N192 1.382 . S
C195 N193 1.371 . S
C195 C198 1.480 . S
C196 N193 1.372 . S
C196 N194 1.361 . S
C196 C204 1.457 . S
C197 N192 1.363 . S
C197 N194 1.377 . S
C197 C210 1.479 . S
C198 C195 1.480 . S
C198 C199 1.383 . S
C198 C203 1.385 . S
C199 H180 0.947 . S
C199 C198 1.383 . S
C199 C200 1.388 . S
C200 H181 0.946 . S
C200 C199 1.388 . S
C200 C201 1.384 . S
C201 C200 1.384 . S
C201 C202 1.377 . S
C202 H182 0.953 . S
C202 C201 1.377 . S
C202 C203 1.369 . S
C203 H183 0.945 . S
C203 C198 1.385 . S
C203 C202 1.369 . S
C204 C196 1.457 . S
C204 C205 1.372 . S
C204 C209 1.364 . S
C205 H184 0.952 . S
C205 C204 1.372 . S
C205 C206 1.389 . S
C206 H185 0.949 . S
C206 C205 1.389 . S
C206 C207 1.387 . S
C207 C206 1.387 . S
C207 C208 1.372 . S
C208 H186 0.950 . S
C208 C207 1.372 . S
C208 C209 1.379 . S
C209 H187 0.948 . S
C209 C204 1.364 . S
C209 C208 1.379 . S
C210 C179 1.383 . S
C210 C197 1.479 . S
C210 C211 1.398 . S
C211 C176 1.382 . S
C211 H188 0.951 . S
C211 C210 1.398 . S
H212 C220 0.929 . S
H213 C222 0.930 . S
H214 C224 0.930 . S
H215 C227 0.929 . S
H216 C230 0.930 . S
H217 C232 0.960 . S
H218 C232 0.960 . S
H219 C232 0.960 . S
C220 H212 0.929 . S
C220 C221 1.377 . S
C220 C222 1.384 . S
C221 C220 1.377 . S
C221 C227 1.390 1_554 S
C222 H213 0.930 . S
C222 C220 1.384 . S
C222 C223 1.372 . S
C223 C222 1.372 . S
C223 C224 1.400 1_554 S
C223 C228 1.490 . S
C224 H214 0.930 . S
C224 C223 1.400 1_556 S
C224 C227 1.386 . S
H225 C241 0.944 . S
H226 C242 0.931 . S
C227 H215 0.929 . S
C227 C221 1.390 1_556 S
C227 C224 1.386 . S
C228 C223 1.490 . S
C228 C230 1.395 . S
C228 C231 1.403 . S
H229 C235 0.930 . S
C230 H216 0.930 . S
C230 C228 1.395 . S
C230 C233 1.403 . S
C231 C228 1.403 . S
C231 C232 1.524 . S
C231 C235 1.400 . S
C232 H217 0.960 . S
C232 H218 0.960 . S
C232 H219 0.960 . S
C232 C231 1.524 . S
C233 C230 1.403 . S
C233 C234 1.392 . S
C233 C237 1.495 . S
C234 C233 1.392 . S
C234 C235 1.385 . S
C234 C236 1.478 . S
C235 H229 0.930 . S
C235 C231 1.400 . S
C235 C234 1.385 . S
C236 C234 1.478 . S
C236 C238 1.381 . S
C236 C242 1.383 1_554 S
C237 C233 1.495 . S
C237 H243 0.959 . S
C237 H244 0.961 1_554 S
C237 H245 0.960 . S
C238 C236 1.381 . S
C238 C239 1.394 . S
C238 H246 0.930 . S
C239 C238 1.394 . S
C239 C240 1.383 . S
C239 H247 0.929 . S
C240 C239 1.383 . S
C240 C241 1.362 1_554 S
C241 H225 0.944 . S
C241 C240 1.362 1_556 S
C241 C242 1.380 . S
C242 H226 0.931 . S
C242 C236 1.383 1_556 S
C242 C241 1.380 . S
H243 C237 0.959 . S
H244 C237 0.961 1_556 S
H245 C237 0.960 . S
H246 C238 0.930 . S
H247 C239 0.929 . S
H248 C256 0.929 . S
H249 C258 0.930 . S
H250 C260 0.930 . S
H251 C263 0.929 . S
H252 C266 0.930 . S
H253 C268 0.960 . S
H254 C268 0.960 . S
H255 C268 0.960 . S
C256 H248 0.929 . S
C256 C257 1.377 . S
C256 C258 1.384 . S
C257 C256 1.377 . S
C257 C263 1.390 1_554 S
C258 H249 0.930 . S
C258 C256 1.384 . S
C258 C259 1.360 1_554 S
C259 C258 1.360 1_556 S
C259 C260 1.410 . S
C259 C264 1.492 . S
C260 H250 0.930 . S
C260 C259 1.410 . S
C260 C263 1.386 . S
H261 C277 0.930 . S
H262 C278 0.931 . S
C263 H251 0.929 . S
C263 C257 1.390 1_556 S
C263 C260 1.386 . S
C264 C259 1.492 . S
C264 C266 1.395 . S
C264 C267 1.403 1_556 S
H265 C271 0.927 1_554 S
C266 H252 0.930 . S
C266 C264 1.395 . S
C266 C269 1.403 . S
C267 C264 1.403 1_554 S
C267 C268 1.524 . S
C267 C271 1.397 1_554 S
C268 H253 0.960 . S
C268 H254 0.960 . S
C268 H255 0.960 . S
C268 C267 1.524 . S
C269 C266 1.403 . S
C269 C270 1.392 . S
C269 C273 1.495 . S
C270 C269 1.392 . S
C270 C271 1.391 . S
C270 C272 1.478 . S
C271 H265 0.927 1_556 S
C271 C267 1.397 1_556 S
C271 C270 1.391 . S
C272 C270 1.478 . S
C272 C274 1.381 1_556 S
C272 C278 1.383 . S
C273 C269 1.495 . S
C273 H279 0.959 . S
C273 H280 0.961 . S
C273 H281 0.960 . S
C274 C272 1.381 1_554 S
C274 C275 1.394 . S
C274 H282 0.930 . S
C275 C274 1.394 . S
C275 C276 1.383 1_554 S
C275 H283 0.929 . S
C276 C275 1.383 1_556 S
C276 C277 1.377 . S
C277 H261 0.930 . S
C277 C276 1.377 . S
C277 C278 1.379 . S
C278 H262 0.931 . S
C278 C272 1.383 . S
C278 C277 1.379 . S
H279 C273 0.959 . S
H280 C273 0.961 . S
H281 C273 0.960 . S
H282 C274 0.930 . S
H283 C275 0.929 . S
H284 C292 0.928 . S
H285 C294 0.930 1_556 S
H286 C296 0.930 . S
H287 C299 0.929 . S
H288 C302 0.930 . S
H289 C304 0.960 . S
H290 C304 0.960 . S
H291 C304 0.960 . S
C292 H284 0.928 . S
C292 C293 1.378 1_556 S
C292 C294 1.384 1_556 S
C293 C292 1.378 1_554 S
C293 C299 1.390 . S
C294 H285 0.930 1_554 S
C294 C292 1.384 1_554 S
C294 C295 1.372 . S
C295 C294 1.372 . S
C295 C296 1.400 . S
C295 C300 1.490 . S
C296 H286 0.930 . S
C296 C295 1.400 . S
C296 C299 1.386 . S
H297 C313 0.930 . S
H298 C314 0.931 . S
C299 H287 0.929 . S
C299 C293 1.390 . S
C299 C296 1.386 . S
C300 C295 1.490 . S
C300 C302 1.395 1_554 S
C300 C303 1.403 . S
H301 C307 0.930 . S
C302 H288 0.930 . S
C302 C300 1.395 1_556 S
C302 C305 1.403 . S
C303 C300 1.403 . S
C303 C304 1.524 . S
C303 C307 1.400 . S
C304 H289 0.960 . S
C304 H290 0.960 . S
C304 H291 0.960 . S
C304 C303 1.524 . S
C305 C302 1.403 . S
C305 C306 1.392 1_556 S
C305 C309 1.495 . S
C306 C305 1.392 1_554 S
C306 C307 1.385 . S
C306 C308 1.478 . S
C307 H301 0.930 . S
C307 C303 1.400 . S
C307 C306 1.385 . S
C308 C306 1.478 . S
C308 C310 1.381 . S
C308 C314 1.383 . S
C309 C305 1.495 . S
C309 H315 0.959 . S
C309 H316 0.961 . S
C309 H317 0.960 . S
C310 C308 1.381 . S
C310 C311 1.394 . S
C310 H318 0.930 . S
C311 C310 1.394 . S
C311 C312 1.383 . S
C311 H319 0.929 . S
C312 C311 1.383 . S
C312 C313 1.377 . S
C313 H297 0.930 . S
C313 C312 1.377 . S
C313 C314 1.379 . S
C314 H298 0.931 . S
C314 C308 1.383 . S
C314 C313 1.379 . S
H315 C309 0.959 . S
H316 C309 0.961 . S
H317 C309 0.960 . S
H318 C310 0.930 . S
H319 C311 0.929 . S
H320 C328 0.929 . S
H321 C330 0.930 . S
H322 C332 0.930 . S
H323 C335 0.929 . S
H324 C338 0.927 1_554 S
H325 C340 0.960 . S
H326 C340 0.960 . S
H327 C340 0.960 1_554 S
C328 H320 0.929 . S
C328 C329 1.377 1_556 S
C328 C330 1.384 . S
C329 C328 1.377 1_554 S
C329 C335 1.390 . S
C330 H321 0.930 . S
C330 C328 1.384 . S
C330 C331 1.372 . S
C331 C330 1.372 . S
C331 C332 1.400 1_556 S
C331 C336 1.490 . S
C332 H322 0.930 . S
C332 C331 1.400 1_554 S
C332 C335 1.386 . S
H333 C349 0.930 . S
H334 C350 0.931 . S
C335 H323 0.929 . S
C335 C329 1.390 . S
C335 C332 1.386 . S
C336 C331 1.490 . S
C336 C338 1.395 . S
C336 C339 1.403 . S
H337 C343 0.930 . S
C338 H324 0.927 1_556 S
C338 C336 1.395 . S
C338 C341 1.403 . S
C339 C336 1.403 . S
C339 C340 1.524 . S
C339 C343 1.400 . S
C340 H325 0.960 . S
C340 H326 0.960 . S
C340 H327 0.960 1_556 S
C340 C339 1.524 . S
C341 C338 1.403 . S
C341 C342 1.392 . S
C341 C345 1.498 . S
C342 C341 1.392 . S
C342 C343 1.385 . S
C342 C344 1.478 . S
C343 H337 0.930 . S
C343 C339 1.400 . S
C343 C342 1.385 . S
C344 C342 1.478 . S
C344 C346 1.381 . S
C344 C350 1.383 1_556 S
C345 C341 1.498 . S
C345 H351 0.957 1_556 S
C345 H352 0.948 1_556 S
C345 H353 0.973 . S
C346 C344 1.381 . S
C346 C347 1.394 . S
C346 H354 0.930 . S
C347 C346 1.394 . S
C347 C348 1.383 . S
C347 H355 0.929 . S
C348 C347 1.383 . S
C348 C349 1.377 1_556 S
C349 H333 0.930 . S
C349 C348 1.377 1_554 S
C349 C350 1.379 . S
C350 H334 0.931 . S
C350 C344 1.383 1_554 S
C350 C349 1.379 . S
H351 C345 0.957 1_554 S
H352 C345 0.948 1_554 S
H353 C345 0.973 . S
H354 C346 0.930 . S
H355 C347 0.929 . S
H356 C364 0.929 . S
H357 C366 0.930 . S
H358 C368 0.930 . S
H359 C371 0.929 . S
H360 C374 0.930 . S
H361 C376 0.960 . S
H362 C376 0.960 . S
H363 C376 0.960 . S
C364 H356 0.929 . S
C364 C365 1.377 . S
C364 C366 1.384 . S
C365 C364 1.377 . S
C365 C371 1.390 . S
C366 H357 0.930 . S
C366 C364 1.384 . S
C366 C367 1.372 . S
C367 C366 1.372 . S
C367 C368 1.400 . S
C367 C372 1.490 . S
C368 H358 0.930 . S
C368 C367 1.400 . S
C368 C371 1.386 . S
H369 C385 0.930 . S
H370 C386 0.931 . S
C371 H359 0.929 . S
C371 C365 1.390 . S
C371 C368 1.386 . S
C372 C367 1.490 . S
C372 C374 1.395 . S
C372 C375 1.403 . S
H373 C379 0.930 . S
C374 H360 0.930 . S
C374 C372 1.395 . S
C374 C377 1.403 . S
C375 C372 1.403 . S
C375 C376 1.524 . S
C375 C379 1.400 . S
C376 H361 0.960 . S
C376 H362 0.960 . S
C376 H363 0.960 . S
C376 C375 1.524 . S
C377 C374 1.403 . S
C377 C378 1.392 . S
C377 C381 1.495 . S
C378 C377 1.392 . S
C378 C379 1.385 . S
C378 C380 1.478 . S
C379 H373 0.930 . S
C379 C375 1.400 . S
C379 C378 1.385 . S
C380 C378 1.478 . S
C380 C382 1.381 . S
C380 C386 1.383 . S
C381 C377 1.495 . S
C381 H387 0.959 . S
C381 H388 0.961 . S
C381 H389 0.960 . S
C382 C380 1.381 . S
C382 C383 1.394 . S
C382 H390 0.930 . S
C383 C382 1.394 . S
C383 C384 1.383 . S
C383 H391 0.929 . S
C384 C383 1.383 . S
C384 C385 1.377 . S
C385 H369 0.930 . S
C385 C384 1.377 . S
C385 C386 1.379 . S
C386 H370 0.931 . S
C386 C380 1.383 . S
C386 C385 1.379 . S
H387 C381 0.959 . S
H388 C381 0.961 . S
H389 C381 0.960 . S
H390 C382 0.930 . S
H391 C383 0.929 . S
H392 C400 0.929 . S
H393 C402 0.930 . S
H394 C404 0.930 . S
H395 C407 0.929 . S
H396 C410 0.930 . S
H397 C412 0.960 . S
H398 C412 0.960 . S
H399 C412 0.960 . S
C400 H392 0.929 . S
C400 C401 1.377 . S
C400 C402 1.384 . S
C401 C400 1.377 . S
C401 C407 1.390 . S
C402 H393 0.930 . S
C402 C400 1.384 . S
C402 C403 1.372 . S
C403 C402 1.372 . S
C403 C404 1.400 . S
C403 C408 1.490 . S
C404 H394 0.930 . S
C404 C403 1.400 . S
C404 C407 1.386 . S
H405 C421 0.930 . S
H406 C422 0.931 . S
C407 H395 0.929 . S
C407 C401 1.390 . S
C407 C404 1.386 . S
C408 C403 1.490 . S
C408 C410 1.395 . S
C408 C411 1.403 . S
H409 C415 0.930 . S
C410 H396 0.930 . S
C410 C408 1.395 . S
C410 C413 1.403 . S
C411 C408 1.403 . S
C411 C412 1.524 . S
C411 C415 1.400 . S
C412 H397 0.960 . S
C412 H398 0.960 . S
C412 H399 0.960 . S
C412 C411 1.524 . S
C413 C410 1.403 . S
C413 C414 1.392 . S
C413 C417 1.495 . S
C414 C413 1.392 . S
C414 C415 1.385 . S
C414 C416 1.478 . S
C415 H409 0.930 . S
C415 C411 1.400 . S
C415 C414 1.385 . S
C416 C414 1.478 . S
C416 C418 1.381 . S
C416 C422 1.383 . S
C417 C413 1.495 . S
C417 H423 0.959 . S
C417 H424 0.961 . S
C417 H425 0.960 . S
C418 C416 1.381 . S
C418 C419 1.394 . S
C418 H426 0.930 . S
C419 C418 1.394 . S
C419 C420 1.383 . S
C419 H427 0.929 . S
C420 C419 1.383 . S
C420 C421 1.377 . S
C421 H405 0.930 . S
C421 C420 1.377 . S
C421 C422 1.379 . S
C422 H406 0.931 . S
C422 C416 1.383 . S
C422 C421 1.379 . S
H423 C417 0.959 . S
H424 C417 0.961 . S
H425 C417 0.960 . S
H426 C418 0.930 . S
H427 C419 0.929 . S
H428 C436 0.929 . S
H429 C438 0.930 . S
H430 C440 0.930 . S
H431 C443 0.929 . S
H432 C446 0.930 . S
H433 C448 0.960 . S
H434 C448 0.960 . S
H435 C448 0.960 . S
C436 H428 0.929 . S
C436 C437 1.377 . S
C436 C438 1.384 . S
C437 C436 1.377 . S
C437 C443 1.390 . S
C438 H429 0.930 . S
C438 C436 1.384 . S
C438 C439 1.372 . S
C439 C438 1.372 . S
C439 C440 1.400 . S
C439 C444 1.490 . S
C440 H430 0.930 . S
C440 C439 1.400 . S
C440 C443 1.386 . S
H441 C457 0.930 . S
H442 C458 0.931 . S
C443 H431 0.929 . S
C443 C437 1.390 . S
C443 C440 1.386 . S
C444 C439 1.490 . S
C444 C446 1.395 . S
C444 C447 1.403 . S
H445 C451 0.930 . S
C446 H432 0.930 . S
C446 C444 1.395 . S
C446 C449 1.403 . S
C447 C444 1.403 . S
C447 C448 1.524 . S
C447 C451 1.400 . S
C448 H433 0.960 . S
C448 H434 0.960 . S
C448 H435 0.960 . S
C448 C447 1.524 . S
C449 C446 1.403 . S
C449 C450 1.392 . S
C449 C453 1.495 . S
C450 C449 1.392 . S
C450 C451 1.385 . S
C450 C452 1.478 . S
C451 H445 0.930 . S
C451 C447 1.400 . S
C451 C450 1.385 . S
C452 C450 1.478 . S
C452 C454 1.381 . S
C452 C458 1.383 . S
C453 C449 1.495 . S
C453 H459 0.959 . S
C453 H460 0.961 . S
C453 H461 0.960 . S
C454 C452 1.381 . S
C454 C455 1.394 . S
C454 H462 0.930 . S
C455 C454 1.394 . S
C455 C456 1.383 . S
C455 H463 0.929 . S
C456 C455 1.383 . S
C456 C457 1.377 . S
C457 H441 0.930 . S
C457 C456 1.377 . S
C457 C458 1.379 . S
C458 H442 0.931 . S
C458 C452 1.383 . S
C458 C457 1.379 . S
H459 C453 0.959 . S
H460 C453 0.961 . S
H461 C453 0.960 . S
H462 C454 0.930 . S
H463 C455 0.929 . S
H464 C472 0.929 . S
H465 C474 0.930 . S
H466 C476 0.930 . S
H467 C479 0.929 . S
H468 C482 0.930 . S
H469 C484 0.960 . S
H470 C484 0.960 . S
H471 C484 0.960 . S
C472 H464 0.929 . S
C472 C473 1.377 . S
C472 C474 1.384 . S
C473 C472 1.377 . S
C473 C479 1.390 . S
C474 H465 0.930 . S
C474 C472 1.384 . S
C474 C475 1.372 . S
C475 C474 1.372 . S
C475 C476 1.400 . S
C475 C480 1.490 . S
C476 H466 0.930 . S
C476 C475 1.400 . S
C476 C479 1.386 . S
H477 C493 0.930 . S
H478 C494 0.931 . S
C479 H467 0.929 . S
C479 C473 1.390 . S
C479 C476 1.386 . S
C480 C475 1.490 . S
C480 C482 1.395 . S
C480 C483 1.403 . S
H481 C487 0.930 . S
C482 H468 0.930 . S
C482 C480 1.395 . S
C482 C485 1.403 . S
C483 C480 1.403 . S
C483 C484 1.524 . S
C483 C487 1.400 . S
C484 H469 0.960 . S
C484 H470 0.960 . S
C484 H471 0.960 . S
C484 C483 1.524 . S
C485 C482 1.403 . S
C485 C486 1.392 . S
C485 C489 1.495 . S
C486 C485 1.392 . S
C486 C487 1.385 . S
C486 C488 1.478 . S
C487 H481 0.930 . S
C487 C483 1.400 . S
C487 C486 1.385 . S
C488 C486 1.478 . S
C488 C490 1.381 . S
C488 C494 1.383 . S
C489 C485 1.495 . S
C489 H495 0.959 . S
C489 H496 0.961 . S
C489 H497 0.960 . S
C490 C488 1.381 . S
C490 C491 1.394 . S
C490 H498 0.930 . S
C491 C490 1.394 . S
C491 C492 1.383 . S
C491 H499 0.929 . S
C492 C491 1.383 . S
C492 C493 1.377 . S
C493 H477 0.930 . S
C493 C492 1.377 . S
C493 C494 1.379 . S
C494 H478 0.931 . S
C494 C488 1.383 . S
C494 C493 1.379 . S
H495 C489 0.959 . S
H496 C489 0.961 . S
H497 C489 0.960 . S
H498 C490 0.930 . S
H499 C491 0.929 . S
H500 C508 0.929 . S
H501 C510 0.930 1_655 S
H502 C512 0.930 . S
H503 C515 0.929 . S
H504 C518 0.930 . S
H505 C520 0.960 . S
H506 C520 0.973 . S
H507 C520 0.960 . S
C508 H500 0.929 . S
C508 C509 1.377 . S
C508 C510 1.384 . S
C509 C508 1.377 . S
C509 C515 1.390 1_545 S
C510 H501 0.930 1_455 S
C510 C508 1.384 . S
C510 C511 1.372 . S
C511 C510 1.372 . S
C511 C512 1.400 1_545 S
C511 C516 1.490 . S
C512 H502 0.930 . S
C512 C511 1.400 1_565 S
C512 C515 1.386 . S
H513 C529 0.930 . S
H514 C530 0.931 . S
C515 H503 0.929 . S
C515 C509 1.390 1_565 S
C515 C512 1.386 . S
C516 C511 1.490 . S
C516 C518 1.395 1_455 S
C516 C519 1.403 1_545 S
H517 C523 0.930 . S
C518 H504 0.930 . S
C518 C516 1.395 1_655 S
C518 C521 1.403 . S
C519 C516 1.403 1_565 S
C519 C520 1.524 . S
C519 C523 1.400 . S
C520 H505 0.960 . S
C520 H506 0.973 . S
C520 H507 0.960 . S
C520 C519 1.524 . S
C521 C518 1.403 . S
C521 C522 1.392 . S
C521 C525 1.495 . S
C522 C521 1.392 . S
C522 C523 1.385 1_645 S
C522 C524 1.478 . S
C523 H517 0.930 . S
C523 C519 1.400 . S
C523 C522 1.385 1_465 S
C524 C522 1.478 . S
C524 C526 1.381 . S
C524 C530 1.383 1_545 S
C525 C521 1.495 . S
C525 H531 0.959 . S
C525 H532 0.961 . S
C525 H533 0.960 . S
C526 C524 1.381 . S
C526 C527 1.394 . S
C526 H534 0.930 . S
C527 C526 1.394 . S
C527 C528 1.383 . S
C527 H535 0.929 . S
C528 C527 1.383 . S
C528 C529 1.377 1_545 S
C529 H513 0.930 . S
C529 C528 1.377 1_565 S
C529 C530 1.379 . S
C530 H514 0.931 . S
C530 C524 1.383 1_565 S
C530 C529 1.379 . S
H531 C525 0.959 . S
H532 C525 0.961 . S
H533 C525 0.960 . S
H534 C526 0.930 . S
H535 C527 0.929 . S
H536 C544 0.929 . S
H537 C546 0.930 . S
H538 C548 0.930 . S
H539 C551 0.929 . S
H540 C554 0.930 . S
H541 C556 0.960 . S
H542 C556 0.960 . S
H543 C556 0.960 . S
C544 H536 0.929 . S
C544 C545 1.377 1_655 S
C544 C546 1.384 . S
C545 C544 1.377 1_455 S
C545 C551 1.390 1_545 S
C546 H537 0.930 . S
C546 C544 1.384 . S
C546 C547 1.372 1_655 S
C547 C546 1.372 1_455 S
C547 C548 1.400 1_545 S
C547 C552 1.490 . S
C548 H538 0.930 . S
C548 C547 1.400 1_565 S
C548 C551 1.386 . S
H549 C565 0.930 . S
H550 C566 0.931 . S
C551 H539 0.929 . S
C551 C545 1.390 1_565 S
C551 C548 1.386 . S
C552 C547 1.490 . S
C552 C554 1.395 . S
C552 C555 1.403 1_445 S
H553 C559 0.930 1_655 S
C554 H540 0.930 . S
C554 C552 1.395 . S
C554 C557 1.403 . S
C555 C552 1.403 1_665 S
C555 C556 1.524 . S
C555 C559 1.400 1_655 S
C556 H541 0.960 . S
C556 H542 0.960 . S
C556 H543 0.960 . S
C556 C555 1.524 . S
C557 C554 1.403 . S
C557 C558 1.392 . S
C557 C561 1.495 . S
C558 C557 1.392 . S
C558 C559 1.385 1_545 S
C558 C560 1.478 . S
C559 H553 0.930 1_455 S
C559 C555 1.400 1_455 S
C559 C558 1.385 1_565 S
C560 C558 1.478 . S
C560 C562 1.381 1_455 S
C560 C566 1.383 1_545 S
C561 C557 1.495 . S
C561 H567 0.959 . S
C561 H568 0.961 . S
C561 H569 0.960 . S
C562 C560 1.381 1_655 S
C562 C563 1.394 . S
C562 H570 0.930 . S
C563 C562 1.394 . S
C563 C564 1.383 1_655 S
C563 H571 0.929 . S
C564 C563 1.383 1_455 S
C564 C565 1.377 1_545 S
C565 H549 0.930 . S
C565 C564 1.377 1_565 S
C565 C566 1.379 . S
C566 H550 0.931 . S
C566 C560 1.383 1_565 S
C566 C565 1.379 . S
H567 C561 0.959 . S
H568 C561 0.961 . S
H569 C561 0.960 . S
H570 C562 0.930 . S
H571 C563 0.929 . S
H572 C580 0.929 . S
H573 C582 0.930 . S
H574 C584 0.930 . S
H575 C587 0.929 . S
H576 C590 0.930 . S
H577 C592 0.960 . S
H578 C592 0.960 . S
H579 C592 0.960 . S
C580 H572 0.929 . S
C580 C581 1.377 . S
C580 C582 1.384 . S
C581 C580 1.377 . S
C581 C587 1.390 . S
C582 H573 0.930 . S
C582 C580 1.384 . S
C582 C583 1.372 . S
C583 C582 1.372 . S
C583 C584 1.400 . S
C583 C588 1.490 . S
C584 H574 0.930 . S
C584 C583 1.400 . S
C584 C587 1.386 . S
H585 C601 0.930 . S
H586 C602 0.931 . S
C587 H575 0.929 . S
C587 C581 1.390 . S
C587 C584 1.386 . S
C588 C583 1.490 . S
C588 C590 1.395 . S
C588 C591 1.403 . S
H589 C595 0.930 . S
C590 H576 0.930 . S
C590 C588 1.395 . S
C590 C593 1.403 . S
C591 C588 1.403 . S
C591 C592 1.524 . S
C591 C595 1.400 . S
C592 H577 0.960 . S
C592 H578 0.960 . S
C592 H579 0.960 . S
C592 C591 1.524 . S
C593 C590 1.403 . S
C593 C594 1.392 . S
C593 C597 1.495 . S
C594 C593 1.392 . S
C594 C595 1.385 . S
C594 C596 1.478 . S
C595 H589 0.930 . S
C595 C591 1.400 . S
C595 C594 1.385 . S
C596 C594 1.478 . S
C596 C598 1.381 . S
C596 C602 1.383 . S
C597 C593 1.495 . S
C597 H603 0.959 . S
C597 H604 0.961 . S
C597 H605 0.960 . S
C598 C596 1.381 . S
C598 C599 1.394 . S
C598 H606 0.930 . S
C599 C598 1.394 . S
C599 C600 1.383 . S
C599 H607 0.929 . S
C600 C599 1.383 . S
C600 C601 1.377 . S
C601 H585 0.930 . S
C601 C600 1.377 . S
C601 C602 1.379 . S
C602 H586 0.931 . S
C602 C596 1.383 . S
C602 C601 1.379 . S
H603 C597 0.959 . S
H604 C597 0.961 . S
H605 C597 0.960 . S
H606 C598 0.930 . S
H607 C599 0.929 . S
H608 C616 0.929 . S
H609 C618 0.930 . S
H610 C620 0.930 . S
H611 C623 0.929 . S
H612 C626 0.930 . S
H613 C628 0.960 . S
H614 C628 0.960 . S
H615 C628 0.960 . S
C616 H608 0.929 . S
C616 C617 1.377 . S
C616 C618 1.384 . S
C617 C616 1.377 . S
C617 C623 1.390 . S
C618 H609 0.930 . S
C618 C616 1.384 . S
C618 C619 1.372 . S
C619 C618 1.372 . S
C619 C620 1.400 . S
C619 C624 1.490 . S
C620 H610 0.930 . S
C620 C619 1.400 . S
C620 C623 1.386 . S
H621 C637 0.930 . S
H622 C638 0.931 . S
C623 H611 0.929 . S
C623 C617 1.390 . S
C623 C620 1.386 . S
C624 C619 1.490 . S
C624 C626 1.395 . S
C624 C627 1.403 . S
H625 C631 0.930 . S
C626 H612 0.930 . S
C626 C624 1.395 . S
C626 C629 1.403 . S
C627 C624 1.403 . S
C627 C628 1.524 . S
C627 C631 1.400 . S
C628 H613 0.960 . S
C628 H614 0.960 . S
C628 H615 0.960 . S
C628 C627 1.524 . S
C629 C626 1.403 . S
C629 C630 1.392 . S
C629 C633 1.495 . S
C630 C629 1.392 . S
C630 C631 1.385 . S
C630 C632 1.478 . S
C631 H625 0.930 . S
C631 C627 1.400 . S
C631 C630 1.385 . S
C632 C630 1.478 . S
C632 C634 1.381 . S
C632 C638 1.383 . S
C633 C629 1.495 . S
C633 H639 0.959 . S
C633 H640 0.961 . S
C633 H641 0.960 . S
C634 C632 1.381 . S
C634 C635 1.394 . S
C634 H642 0.930 . S
C635 C634 1.394 . S
C635 C636 1.383 . S
C635 H643 0.929 . S
C636 C635 1.383 . S
C636 C637 1.377 . S
C637 H621 0.930 . S
C637 C636 1.377 . S
C637 C638 1.379 . S
C638 H622 0.931 . S
C638 C632 1.383 . S
C638 C637 1.379 . S
H639 C633 0.959 . S
H640 C633 0.961 . S
H641 C633 0.960 . S
H642 C634 0.930 . S
H643 C635 0.929 . S
C240 C177 1.377 . S
C221 C29 1.406 . S
C257 C8 1.397 . S
C276 C141 1.369 . S
C293 C0 1.389 . S
C312 C201 1.370 . S
C329 C17 1.399 . S
C348 C165 1.368 . S
C365 C63 1.408 . S
C384 C105 1.383 . S
C401 C42 1.397 . S
C420 C69 1.350 . S
C456 C129 1.335 . S
C437 C34 1.389 . S
C492 C93 1.327 . S
C473 C51 1.403 . S
C509 C4 1.478 . S
C528 C99 1.475 1_655 S
C545 C13 1.478 . S
C564 C135 1.478 . S
C600 C171 1.475 . S
C581 C38 1.478 . S
C617 C47 1.477 . S
C636 C207 1.481 . S
