# Generated by pormake.
# Topology zzz, (3,6)-cn, num edge types: 1
# Building blocks:
#     Node 0, Type 0, BuildingBlock: KAKCAD_clean_linker_0, # of connection points: 3
#     Node 1, Type 0, BuildingBlock: KAKCAD_clean_linker_0, # of connection points: 3
#     Node 2, Type 0, BuildingBlock: KAKCAD_clean_linker_0, # of connection points: 3
#     Node 3, Type 0, BuildingBlock: KAKCAD_clean_linker_0, # of connection points: 3
#     Node 4, Type 0, BuildingBlock: KAKCAD_clean_linker_0, # of connection points: 3
#     Node 5, Type 0, BuildingBlock: KAKCAD_clean_linker_0, # of connection points: 3
#     Node 6, Type 0, BuildingBlock: KAKCAD_clean_linker_0, # of connection points: 3
#     Node 7, Type 0, BuildingBlock: KAKCAD_clean_linker_0, # of connection points: 3
#     Node 8, Type 1, BuildingBlock: JUFBIX_clean_sbu_0, # of connection points: 6
#     Node 9, Type 1, BuildingBlock: JUFBIX_clean_sbu_0, # of connection points: 6
#     Node 10, Type 1, BuildingBlock: JUFBIX_clean_sbu_0, # of connection points: 6
#     Node 11, Type 1, BuildingBlock: JUFBIX_clean_sbu_0, # of connection points: 6
#     Edge 12, Type (0, 1), BuildingBlock: KIFKEQ_clean_linker_1, # of connection points: 2
#     Edge 13, Type (0, 1), BuildingBlock: KIFKEQ_clean_linker_1, # of connection points: 2
#     Edge 14, Type (0, 1), BuildingBlock: KIFKEQ_clean_linker_1, # of connection points: 2
#     Edge 15, Type (0, 1), BuildingBlock: KIFKEQ_clean_linker_1, # of connection points: 2
#     Edge 16, Type (0, 1), BuildingBlock: KIFKEQ_clean_linker_1, # of connection points: 2
#     Edge 17, Type (0, 1), BuildingBlock: KIFKEQ_clean_linker_1, # of connection points: 2
#     Edge 18, Type (0, 1), BuildingBlock: KIFKEQ_clean_linker_1, # of connection points: 2
#     Edge 19, Type (0, 1), BuildingBlock: KIFKEQ_clean_linker_1, # of connection points: 2
#     Edge 20, Type (0, 1), BuildingBlock: KIFKEQ_clean_linker_1, # of connection points: 2
#     Edge 21, Type (0, 1), BuildingBlock: KIFKEQ_clean_linker_1, # of connection points: 2
#     Edge 22, Type (0, 1), BuildingBlock: KIFKEQ_clean_linker_1, # of connection points: 2
#     Edge 23, Type (0, 1), BuildingBlock: KIFKEQ_clean_linker_1, # of connection points: 2
#     Edge 24, Type (0, 1), BuildingBlock: KIFKEQ_clean_linker_1, # of connection points: 2
#     Edge 25, Type (0, 1), BuildingBlock: KIFKEQ_clean_linker_1, # of connection points: 2
#     Edge 26, Type (0, 1), BuildingBlock: KIFKEQ_clean_linker_1, # of connection points: 2
#     Edge 27, Type (0, 1), BuildingBlock: KIFKEQ_clean_linker_1, # of connection points: 2
#     Edge 28, Type (0, 1), BuildingBlock: KIFKEQ_clean_linker_1, # of connection points: 2
#     Edge 29, Type (0, 1), BuildingBlock: KIFKEQ_clean_linker_1, # of connection points: 2
#     Edge 30, Type (0, 1), BuildingBlock: KIFKEQ_clean_linker_1, # of connection points: 2
#     Edge 31, Type (0, 1), BuildingBlock: KIFKEQ_clean_linker_1, # of connection points: 2
#     Edge 32, Type (0, 1), BuildingBlock: KIFKEQ_clean_linker_1, # of connection points: 2
#     Edge 33, Type (0, 1), BuildingBlock: KIFKEQ_clean_linker_1, # of connection points: 2
#     Edge 34, Type (0, 1), BuildingBlock: KIFKEQ_clean_linker_1, # of connection points: 2
#     Edge 35, Type (0, 1), BuildingBlock: KIFKEQ_clean_linker_1, # of connection points: 2
# Relax obj value: 0.289
# Max RMSD: 0.223
# Mean RMSD: 0.188
data_MOF--net-zzz--node1-JUFBIX_clean_sbu_0--node2-KAKCAD_clean_linker_0--edge1-KIFKEQ_clean_linker_1
_symmetry_space_group_name_H-M    P1
_symmetry_Int_Tables_number       1
_symmetry_cell_setting            triclinic
loop_
_symmetry_equiv_pos_as_xyz
'x, y, z'
_cell_length_a     58.672558
_cell_length_b     60.134381
_cell_length_c     23.174407
_cell_angle_alpha  83.060545
_cell_angle_beta   90.093417
_cell_angle_gamma 86.567369
loop_
_atom_site_label
_atom_site_type_symbol
_atom_site_fract_x
_atom_site_fract_y
_atom_site_fract_z
_atom_type_partial_charge
C0 C 0.8294 0.52115 0.11207 0.0
C1 C 0.84911 0.5088 0.13527 0.0
C2 C 0.81086 0.52538 0.14763 0.0
C3 C 0.81171 0.51742 0.20714 0.0
C4 C 0.83113 0.50447 0.22998 0.0
C5 C 0.84964 0.50016 0.19435 0.0
C6 C 0.79277 0.52333 0.24573 0.0
C7 C 0.77001 0.52195 0.22907 0.0
C8 C 0.75201 0.52763 0.26556 0.0
C9 C 0.75696 0.53483 0.31959 0.0
C10 C 0.7798 0.53639 0.33634 0.0
C11 C 0.79748 0.53068 0.29923 0.0
C12 C 0.78623 0.54229 0.39388 0.0
C13 C 0.80012 0.56034 0.3971 0.0
C14 C 0.78384 0.52667 0.4432 0.0
C15 C 0.79721 0.52762 0.49276 0.0
C16 C 0.81302 0.54428 0.49364 0.0
C17 C 0.72827 0.52636 0.24506 0.0
C18 C 0.71283 0.54524 0.2413 0.0
C19 C 0.72206 0.50716 0.22134 0.0
C20 C 0.70157 0.50734 0.19073 0.0
C21 C 0.68677 0.52675 0.18313 0.0
C22 C 0.69225 0.54547 0.2104 0.0
C23 C 0.81333 0.56141 0.44677 0.0
H24 H 0.82843 0.5278 0.0665 0.0
H25 H 0.79617 0.53549 0.12891 0.0
H26 H 0.8321 0.49788 0.27559 0.0
H27 H 0.86465 0.49071 0.21346 0.0
H28 H 0.76627 0.51645 0.18738 0.0
H29 H 0.81508 0.53185 0.31242 0.0
H30 H 0.74325 0.53902 0.3484 0.0
H31 H 0.80234 0.57244 0.35922 0.0
H32 H 0.77341 0.5125 0.44137 0.0
H33 H 0.79649 0.51434 0.5286 0.0
H34 H 0.71728 0.56028 0.25909 0.0
H35 H 0.73365 0.49234 0.22396 0.0
H36 H 0.8254 0.57438 0.44603 0.0
H37 H 0.68105 0.56057 0.20604 0.0
H38 H 0.69806 0.49269 0.17 0.0
C39 C 0.04375 0.81208 0.05245 0.0
C40 C 0.05505 0.83122 0.06264 0.0
C41 C 0.03865 0.796 0.09838 0.0
C42 C 0.04524 0.79832 0.15564 0.0
C43 C 0.05823 0.81649 0.16509 0.0
C44 C 0.0629 0.83286 0.11926 0.0
C45 C 0.03697 0.7829 0.20538 0.0
C46 C 0.0338 0.76038 0.19961 0.0
C47 C 0.0233 0.74649 0.24342 0.0
C48 C 0.01655 0.75503 0.29531 0.0
C49 C 0.02082 0.77735 0.30313 0.0
C50 C 0.03055 0.79111 0.25748 0.0
C51 C 0.01508 0.78734 0.35745 0.0
C52 C 0.99285 0.78757 0.37986 0.0
C53 C 0.0313 0.79982 0.38189 0.0
C54 C 0.02513 0.8135 0.42455 0.0
C55 C 0.00254 0.81501 0.44467 0.0
C56 C 0.019 0.72353 0.231 0.0
C57 C 0.99769 0.71925 0.20848 0.0
C58 C 0.03766 0.7082 0.22575 0.0
C59 C 0.03551 0.68987 0.19469 0.0
C60 C 0.01469 0.68661 0.16754 0.0
C61 C 0.99552 0.70092 0.17713 0.0
C62 C 0.98663 0.80128 0.42305 0.0
H63 H 0.03796 0.80992 0.00919 0.0
H64 H 0.02852 0.78238 0.08904 0.0
H65 H 0.06417 0.81854 0.20829 0.0
H66 H 0.07161 0.84735 0.12898 0.0
H67 H 0.03903 0.75359 0.1601 0.0
H68 H 0.03232 0.80865 0.26207 0.0
H69 H 0.0085 0.74435 0.32938 0.0
H70 H 0.97997 0.77819 0.36171 0.0
H71 H 0.04861 0.79992 0.36564 0.0
H72 H 0.0379 0.82389 0.4391 0.0
H73 H 0.9832 0.73115 0.21073 0.0
H74 H 0.05435 0.71138 0.24192 0.0
H75 H 0.96918 0.80162 0.43813 0.0
H76 H 0.97927 0.69904 0.15664 0.0
H77 H 0.05051 0.67896 0.1892 0.0
C78 C 0.69354 0.01276 0.04991 0.0
C79 C 0.67502 0.02656 0.06597 0.0
C80 C 0.71241 0.00759 0.08686 0.0
C81 C 0.71319 0.01616 0.14056 0.0
C82 C 0.69505 0.03066 0.15558 0.0
C83 C 0.67613 0.03576 0.11872 0.0
C84 C 0.73218 0.0089 0.18221 0.0
C85 C 0.75474 0.00684 0.16313 0.0
C86 C 0.77265 0.99884 0.20207 0.0
C87 C 0.76768 0.9925 0.2611 0.0
C88 C 0.74509 0.99499 0.28066 0.0
C89 C 0.72758 1.00311 0.24111 0.0
C90 C 0.73856 0.98911 0.34178 0.0
C91 C 0.73461 0.96678 0.36228 0.0
C92 C 0.73013 0.0063 0.37324 0.0
C93 C 0.7162 1.00149 0.42139 0.0
C94 C 0.71031 0.97936 0.4388 0.0
C95 C 0.79622 0.99721 0.17912 0.0
C96 C 0.80997 0.97713 0.18887 0.0
C97 C 0.80395 0.01514 0.14115 0.0
C98 C 0.82411 0.01259 0.11034 0.0
C99 C 0.83715 0.99209 0.11696 0.0
C100 C 0.83035 0.9746 0.15803 0.0
C101 C 0.72064 0.96192 0.41056 0.0
H102 H 0.69302 0.00518 0.00988 0.0
H103 H 0.72596 0.99614 0.07437 0.0
H104 H 0.69535 0.03783 0.19625 0.0
H105 H 0.66224 0.04669 0.13181 0.0
H106 H 0.7584 0.01137 0.11752 0.0
H107 H 0.71012 1.00427 0.25631 0.0
H108 H 0.78124 0.9862 0.29162 0.0
H109 H 0.74066 0.95331 0.33803 0.0
H110 H 0.73264 0.02369 0.35743 0.0
H111 H 0.70847 0.01539 0.44155 0.0
H112 H 0.80436 0.96303 0.21776 0.0
H113 H 0.79389 0.03094 0.13357 0.0
H114 H 0.71676 0.94465 0.42346 0.0
H115 H 0.84015 0.95863 0.16408 0.0
H116 H 0.82922 0.02653 0.08004 0.0
C117 C 0.45726 0.70846 0.42814 0.0
C118 C 0.47905 0.69937 0.4469 0.0
C119 C 0.45479 0.72444 0.37912 0.0
C120 C 0.47406 0.73171 0.3482 0.0
C121 C 0.49587 0.72478 0.3711 0.0
C122 C 0.49837 0.70872 0.42018 0.0
C123 C 0.47171 0.73878 0.28507 0.0
C124 C 0.47661 0.7602 0.25856 0.0
C125 C 0.47665 0.76479 0.19728 0.0
C126 C 0.47276 0.74733 0.16347 0.0
C127 C 0.46829 0.72576 0.18991 0.0
C128 C 0.46678 0.72214 0.25055 0.0
C129 C 0.46702 0.70638 0.1557 0.0
C130 C 0.45734 0.70879 0.09951 0.0
C131 C 0.47604 0.68502 0.17954 0.0
C132 C 0.47519 0.66663 0.1488 0.0
C133 C 0.46615 0.66903 0.09211 0.0
C134 C 0.481 0.78757 0.16789 0.0
C135 C 0.4701 0.8069 0.18646 0.0
C136 C 0.49505 0.79005 0.11869 0.0
C137 C 0.49752 0.81117 0.08765 0.0
C138 C 0.48604 0.83045 0.10496 0.0
C139 C 0.47253 0.82808 0.15525 0.0
C140 C 0.45702 0.69033 0.06791 0.0
H141 H 0.44205 0.70191 0.44855 0.0
H142 H 0.43781 0.72929 0.3618 0.0
H143 H 0.51097 0.7298 0.3473 0.0
H144 H 0.51538 0.70209 0.4335 0.0
H145 H 0.48067 0.77303 0.28533 0.0
H146 H 0.46274 0.7058 0.27178 0.0
H147 H 0.4736 0.75047 0.11655 0.0
H148 H 0.45005 0.7249 0.07985 0.0
H149 H 0.48421 0.6824 0.22193 0.0
H150 H 0.48192 0.65048 0.16966 0.0
H151 H 0.45909 0.80556 0.22404 0.0
H152 H 0.50396 0.77556 0.10364 0.0
H153 H 0.45008 0.69289 0.02413 0.0
H154 H 0.46369 0.8426 0.17031 0.0
H155 H 0.50791 0.81226 0.04895 0.0
C156 C 0.15229 0.52956 0.33816 0.0
C157 C 0.15266 0.52075 0.39712 0.0
C158 C 0.17077 0.5251 0.30254 0.0
C159 C 0.18999 0.5118 0.32526 0.0
C160 C 0.19077 0.50384 0.38479 0.0
C161 C 0.17229 0.50826 0.42034 0.0
C162 C 0.20855 0.50508 0.28644 0.0
C163 C 0.23148 0.50499 0.30329 0.0
C164 C 0.24898 0.49757 0.26767 0.0
C165 C 0.24351 0.49039 0.21404 0.0
C166 C 0.22052 0.49057 0.19675 0.0
C167 C 0.20325 0.49781 0.23315 0.0
C168 C 0.2136 0.48448 0.13981 0.0
C169 C 0.21622 0.49972 0.08985 0.0
C170 C 0.19914 0.4668 0.13777 0.0
C171 C 0.18577 0.46568 0.08839 0.0
C172 C 0.18645 0.48242 0.04069 0.0
C173 C 0.27269 0.49663 0.28947 0.0
C174 C 0.28208 0.51635 0.30257 0.0
C175 C 0.28412 0.47581 0.30778 0.0
C176 C 0.30378 0.47467 0.34255 0.0
C177 C 0.31239 0.49437 0.35889 0.0
C178 C 0.30187 0.51525 0.33659 0.0
C179 C 0.20268 0.49873 0.04061 0.0
H180 H 0.13735 0.53915 0.31902 0.0
H181 H 0.16984 0.53171 0.25694 0.0
H182 H 0.20528 0.49344 0.40349 0.0
H183 H 0.17317 0.50151 0.46584 0.0
H184 H 0.23579 0.51048 0.34465 0.0
H185 H 0.18554 0.49767 0.21979 0.0
H186 H 0.25693 0.48475 0.18619 0.0
H187 H 0.22706 0.51364 0.09085 0.0
H188 H 0.1967 0.45505 0.17622 0.0
H189 H 0.17335 0.453 0.08987 0.0
H190 H 0.27333 0.53256 0.28935 0.0
H191 H 0.27696 0.46039 0.29873 0.0
H192 H 0.20365 0.51173 0.00416 0.0
H193 H 0.30796 0.53069 0.34885 0.0
H194 H 0.31166 0.45837 0.35887 0.0
C195 C 0.94765 0.20203 0.4556 0.0
C196 C 0.96364 0.18392 0.47023 0.0
C197 C 0.9522 0.21883 0.41063 0.0
C198 C 0.97257 0.21743 0.37908 0.0
C199 C 0.98828 0.19906 0.39307 0.0
C200 C 0.98392 0.18253 0.43848 0.0
C201 C 0.97782 0.23529 0.33237 0.0
C202 C 0.97683 0.2577 0.34295 0.0
C203 C 0.98301 0.27481 0.3 0.0
C204 C 0.99016 0.26909 0.24506 0.0
C205 C 0.99078 0.24646 0.23402 0.0
C206 C 0.98477 0.22981 0.27799 0.0
C207 C 0.99705 0.23901 0.17727 0.0
C208 C 0.97959 0.23599 0.138 0.0
C209 C 0.01876 0.22851 0.17068 0.0
C210 C 0.02248 0.2139 0.12838 0.0
C211 C 0.00443 0.20925 0.09246 0.0
C212 C 0.98253 0.29813 0.31576 0.0
C213 C 0.96381 0.3062 0.34662 0.0
C214 C 0.00191 0.31081 0.30951 0.0
C215 C 0.00316 0.3302 0.33747 0.0
C216 C 0.98508 0.33725 0.37249 0.0
C217 C 0.96511 0.3253 0.3749 0.0
C218 C 0.98324 0.22129 0.09597 0.0
H219 H 0.9319 0.20339 0.47963 0.0
H220 H 0.9398 0.23285 0.40031 0.0
H221 H 0.00416 0.19772 0.36957 0.0
H222 H 0.9964 0.16858 0.44876 0.0
H223 H 0.97203 0.26171 0.38585 0.0
H224 H 0.98533 0.21242 0.26956 0.0
H225 H 0.99492 0.28202 0.21134 0.0
H226 H 0.96256 0.24347 0.14313 0.0
H227 H 0.0323 0.23009 0.2015 0.0
H228 H 0.03895 0.20481 0.12725 0.0
H229 H 0.94855 0.29688 0.35189 0.0
H230 H 0.01663 0.30499 0.28612 0.0
H231 H 0.96905 0.21829 0.06854 0.0
H232 H 0.95084 0.32978 0.40157 0.0
H233 H 0.01863 0.33918 0.33324 0.0
C234 C 0.30104 0.01957 0.48469 0.0
C235 C 0.32244 0.02734 0.46737 0.0
C236 C 0.28217 0.02355 0.44715 0.0
C237 C 0.28421 0.03562 0.39173 0.0
C238 C 0.30532 0.04424 0.37559 0.0
C239 C 0.32423 0.03994 0.41254 0.0
C240 C 0.26496 0.03806 0.34925 0.0
C241 C 0.24231 0.04175 0.36664 0.0
C242 C 0.22428 0.04334 0.3261 0.0
C243 C 0.22895 0.04179 0.26706 0.0
C244 C 0.25163 0.0382 0.24932 0.0
C245 C 0.26932 0.03612 0.29062 0.0
C246 C 0.25809 0.03736 0.18798 0.0
C247 C 0.27104 0.0185 0.17338 0.0
C248 C 0.25706 0.05717 0.1491 0.0
C249 C 0.27078 0.0588 0.0995 0.0
C250 C 0.28582 0.04067 0.08832 0.0
C251 C 0.2007 0.04526 0.34769 0.0
C252 C 0.18777 0.0263 0.3545 0.0
C253 C 0.19263 0.06473 0.3707 0.0
C254 C 0.17226 0.06499 0.40195 0.0
C255 C 0.15984 0.04556 0.41207 0.0
C256 C 0.16762 0.02638 0.38662 0.0
C257 C 0.28478 0.02012 0.12412 0.0
H258 H 0.29887 0.01021 0.52704 0.0
H259 H 0.26619 0.01657 0.46091 0.0
H260 H 0.30742 0.05403 0.33374 0.0
H261 H 0.34039 0.046 0.39711 0.0
H262 H 0.23858 0.04317 0.4119 0.0
H263 H 0.28671 0.03292 0.27661 0.0
H264 H 0.21512 0.04315 0.23553 0.0
H265 H 0.27224 1.00311 0.20313 0.0
H266 H 0.24734 0.07199 0.1598 0.0
H267 H 0.27075 0.07473 0.07215 0.0
H268 H 0.19399 0.01097 0.33802 0.0
H269 H 0.20253 0.07948 0.36626 0.0
H270 H 0.29612 0.0058 0.11744 0.0
H271 H 0.15886 0.01096 0.39399 0.0
H272 H 0.16662 0.08025 0.41951 0.0
C273 C 0.49205 0.32274 0.14587 0.0
C274 C 0.51028 0.33385 0.11812 0.0
C275 C 0.49597 0.30712 0.19544 0.0
C276 C 0.51817 0.30228 0.21789 0.0
C277 C 0.53652 0.31193 0.18759 0.0
C278 C 0.53266 0.32749 0.1382 0.0
C279 C 0.52164 0.29282 0.27936 0.0
C280 C 0.52023 0.26989 0.29922 0.0
C281 C 0.5242 0.26204 0.35856 0.0
C282 C 0.5289 0.27751 0.39747 0.0
C283 C 0.52983 0.30045 0.37803 0.0
C284 C 0.52629 0.30782 0.31891 0.0
C285 C 0.53316 0.31716 0.41912 0.0
C286 C 0.52167 0.31581 0.47245 0.0
C287 C 0.54612 0.3358 0.40275 0.0
C288 C 0.54625 0.35341 0.43676 0.0
C289 C 0.53366 0.3527 0.48844 0.0
C290 C 0.52328 0.23789 0.38137 0.0
C291 C 0.50473 0.22554 0.36842 0.0
C292 C 0.54018 0.22756 0.42045 0.0
C293 C 0.53817 0.20576 0.44777 0.0
C294 C 0.51917 0.19367 0.43686 0.0
C295 C 0.50263 0.20369 0.39612 0.0
C296 C 0.52201 0.33334 0.50686 0.0
H297 H 0.47464 0.32695 0.13105 0.0
H298 H 0.48152 0.30019 0.21875 0.0
H299 H 0.55374 0.30879 0.20489 0.0
H300 H 0.54713 0.33577 0.11862 0.0
H301 H 0.51656 0.25826 0.26866 0.0
H302 H 0.52644 0.32557 0.30339 0.0
H303 H 0.5316 0.27169 0.44322 0.0
H304 H 0.51149 0.30173 0.48635 0.0
H305 H 0.55556 0.33715 0.36247 0.0
H306 H 0.55535 0.36804 0.42093 0.0
H307 H 0.49139 0.23309 0.33869 0.0
H308 H 0.55478 0.23658 0.43094 0.0
H309 H 0.51256 0.33198 0.54711 0.0
H310 H 0.48791 0.19475 0.38619 0.0
H311 H 0.55114 0.19872 0.47918 0.0
Co312 Co 0.00982 0.01945 0.80755 0.0
C313 C 0.97016 0.99822 0.84513 0.0
Co314 Co 0.99375 1.00061 0.7426 0.0
C315 C 0.01983 0.0583 0.8666 0.0
C316 C 0.02889 0.02699 0.91781 0.0
N317 N 0.02118 0.03579 0.86451 0.0
N318 N 0.02592 0.06372 0.91923 0.0
C319 C 0.03181 0.04401 0.9513 0.0
H320 H 0.01303 0.07044 0.83164 0.0
H321 H 0.03096 0.00925 0.93288 0.0
C322 C 0.03327 0.02198 0.70484 0.0
N323 N 0.98235 0.98438 0.68581 0.0
C324 C 0.98193 0.96186 0.68572 0.0
C325 C 0.97596 0.99303 0.63144 0.0
N326 N 0.97582 0.95613 0.63325 0.0
C327 C 0.97193 0.97588 0.59933 0.0
C328 C 0.97742 0.0447 0.73461 0.0
O329 O 0.0337 0.02822 0.75545 0.0
O330 O 0.01742 0.00998 0.69127 0.0
O331 O 0.97534 0.02651 0.71292 0.0
O332 O 0.99141 0.04501 0.77632 0.0
O333 O 0.9701 0.9916 0.79494 0.0
H334 H 0.97554 0.01067 0.61498 0.0
H335 H 0.98685 0.94992 0.72296 0.0
O336 O 0.98588 0.01042 0.85854 0.0
O337 O 0.02801 0.99339 0.8376 0.0
O338 O 0.01237 0.97513 0.77298 0.0
C339 C 0.02621 0.97533 0.81506 0.0
H340 H 0.03696 0.04194 0.9966 0.0
H341 H 0.9678 0.97796 0.55343 0.0
Co342 Co 0.48831 0.02116 0.79738 0.0
C343 C 0.49496 0.97585 0.83661 0.0
Co344 Co 0.51 1.00272 0.73885 0.0
C345 C 0.44768 0.03165 0.86037 0.0
C346 C 0.4724 0.05613 0.86539 0.0
N347 N 0.46899 0.03675 0.84377 0.0
N348 N 0.43755 0.04712 0.89115 0.0
C349 C 0.45314 0.0625 0.89472 0.0
H350 H 0.43972 0.01685 0.84988 0.0
H351 H 0.48771 0.06527 0.85918 0.0
C352 C 0.5034 0.04801 0.69953 0.0
N353 N 0.52919 0.98696 0.69252 0.0
C354 C 0.55056 0.99163 0.67542 0.0
C355 C 0.52541 0.96748 0.67188 0.0
N356 N 0.56039 0.97576 0.64529 0.0
C357 C 0.54451 0.96057 0.64284 0.0
C358 C 0.46457 1.004 0.71012 0.0
O359 O 0.49135 0.04803 0.74519 0.0
O360 O 0.51351 0.02971 0.6885 0.0
O361 O 0.48418 0.99709 0.69423 0.0
O362 O 0.46282 0.01455 0.75423 0.0
O363 O 0.50632 0.97578 0.78989 0.0
H364 H 0.5099 0.95867 0.67841 0.0
H365 H 0.55896 0.00609 0.68651 0.0
O366 O 0.48546 0.99425 0.84885 0.0
O367 O 0.51411 0.02766 0.84032 0.0
O368 O 0.53549 0.00868 0.78351 0.0
C369 C 0.53373 0.02013 0.82606 0.0
H370 H 0.45058 0.07761 0.91557 0.0
H371 H 0.54647 0.94551 0.6216 0.0
Co372 Co 0.51504 0.5162 0.78201 0.0
C373 C 0.49684 0.47997 0.85024 0.0
Co374 Co 0.47828 0.51309 0.76751 0.0
C375 C 0.55392 0.51953 0.85394 0.0
C376 C 0.56307 0.52287 0.76412 0.0
N377 N 0.54525 0.51948 0.80003 0.0
N378 N 0.57646 0.52289 0.85348 0.0
C379 C 0.58229 0.52498 0.79684 0.0
H380 H 0.54365 0.51761 0.89274 0.0
H381 H 0.5621 0.52387 0.71725 0.0
C382 C 0.49623 0.5494 0.69967 0.0
N383 N 0.44809 0.50967 0.74955 0.0
C384 C 0.43935 0.51008 0.69556 0.0
C385 C 0.43076 0.50428 0.78556 0.0
N386 N 0.41726 0.50487 0.69599 0.0
C387 C 0.41179 0.50132 0.75283 0.0
C388 C 0.48555 0.54059 0.84991 0.0
O389 O 0.51498 0.54201 0.72468 0.0
O390 O 0.47837 0.53883 0.71144 0.0
O391 O 0.46943 0.53215 0.82484 0.0
O392 O 0.50606 0.53519 0.83773 0.0
O393 O 0.47836 0.48733 0.82406 0.0
H394 H 0.43205 0.50196 0.8325 0.0
H395 H 0.44929 0.51381 0.65674 0.0
O396 O 0.51484 0.49044 0.83912 0.0
O397 O 0.52387 0.49716 0.72602 0.0
O398 O 0.48741 0.49413 0.7103 0.0
C399 C 0.50812 0.48889 0.69936 0.0
H400 H 0.59923 0.52768 0.78007 0.0
H401 H 0.39554 0.49616 0.76993 0.0
Co402 Co 0.001 0.53171 0.77172 0.0
C403 C 0.03851 0.50418 0.81593 0.0
Co404 Co 0.99954 0.4959 0.75769 0.0
C405 C 0.0048 0.56753 0.84323 0.0
C406 C 0.99916 0.58026 0.75375 0.0
N407 N 0.00194 0.56098 0.78997 0.0
N408 N 0.00388 0.59011 0.84181 0.0
C409 C 0.00041 0.59815 0.78539 0.0
H410 H 0.00761 0.5559 0.88235 0.0
H411 H 0.99611 0.58123 0.70744 0.0
C412 C 0.96199 0.52334 0.71361 0.0
N413 N 0.9984 0.46657 0.73929 0.0
C414 C 0.9974 0.45999 0.68552 0.0
C415 C 0.99763 0.44741 0.77594 0.0
N416 N 0.99594 0.4376 0.68721 0.0
C417 C 0.99595 0.42961 0.74407 0.0
C418 C 0.97897 0.5044 0.85871 0.0
O419 O 0.97236 0.539 0.73266 0.0
O420 O 0.97123 0.50352 0.71919 0.0
O421 O 0.98356 0.48862 0.82794 0.0
O422 O 0.98537 0.52391 0.84183 0.0
O423 O 0.02804 0.48851 0.79722 0.0
H424 H 0.9981 0.44642 0.82284 0.0
H425 H 0.99717 0.47145 0.64571 0.0
O426 O 0.02944 0.52408 0.80983 0.0
O427 O 0.01678 0.53913 0.70139 0.0
O428 O 0.01543 0.50376 0.68778 0.0
C429 C 0.02163 0.52335 0.67084 0.0
H430 H 0.99838 0.61572 0.76825 0.0
H431 H 0.99504 0.41214 0.7613 0.0
H432 H 0.12097 0.02246 0.40565 0.0
H433 H 0.15342 0.06653 0.51049 0.0
H434 H 0.09071 0.01795 0.47629 0.0
H435 H 0.12203 0.06368 0.57837 0.0
H436 H 0.07716 0.03247 0.72452 0.0
H437 H 0.10701 0.03956 0.65262 0.0
H438 H 0.05846 0.03394 0.51515 0.0
H439 H 0.02923 0.02555 0.58731 0.0
C440 C 0.1216 0.03139 0.44342 0.0
C441 C 0.13989 0.04474 0.45216 0.0
C442 C 0.10394 0.0291 0.48372 0.0
C443 C 0.10377 0.04042 0.53351 0.0
C444 C 0.12167 0.05435 0.54128 0.0
C445 C 0.13955 0.05633 0.50148 0.0
C446 C 0.07294 0.03287 0.67887 0.0
C447 C 0.05097 0.02825 0.66155 0.0
C448 C 0.09 0.03707 0.63745 0.0
C449 C 0.08533 0.03718 0.57767 0.0
C450 C 0.063 0.0334 0.56061 0.0
C451 C 0.04613 0.02876 0.60202 0.0
H452 H 0.55173 0.15941 0.46546 0.0
H453 H 0.47998 0.1772 0.48485 0.0
H454 H 0.54764 0.12422 0.52774 0.0
H455 H 0.47571 0.14162 0.54553 0.0
H456 H 0.4833 0.08975 0.70858 0.0
H457 H 0.48667 0.12415 0.64249 0.0
H458 H 0.53104 0.08811 0.53247 0.0
H459 H 0.52801 0.05379 0.59906 0.0
C460 C 0.53504 0.15575 0.48268 0.0
C461 C 0.51621 0.17122 0.47028 0.0
C462 C 0.53264 0.13545 0.518 0.0
C463 C 0.51136 0.13008 0.54199 0.0
C464 C 0.49242 0.14532 0.52848 0.0
C465 C 0.49481 0.16561 0.49301 0.0
C466 C 0.49379 0.08915 0.67031 0.0
C467 C 0.50542 0.06898 0.65928 0.0
C468 C 0.49558 0.10886 0.63213 0.0
C469 C 0.50909 0.10894 0.58198 0.0
C470 C 0.5207 0.08875 0.57096 0.0
C471 C 0.51887 0.06903 0.60907 0.0
H472 H 0.35009 0.51912 0.35935 0.0
H473 H 0.31455 0.46762 0.46245 0.0
H474 H 0.37645 0.52065 0.44064 0.0
H475 H 0.34091 0.46908 0.54338 0.0
H476 H 0.37095 0.50359 0.69281 0.0
H477 H 0.34717 0.49901 0.6095 0.0
H478 H 0.40699 0.49648 0.50193 0.0
H479 H 0.43099 0.50035 0.58519 0.0
C480 C 0.34813 0.50793 0.39908 0.0
C481 C 0.33031 0.49323 0.40454 0.0
C482 C 0.36323 0.50875 0.44546 0.0
C483 C 0.36057 0.49511 0.49842 0.0
C484 C 0.34319 0.47994 0.50324 0.0
C485 C 0.32829 0.47892 0.45669 0.0
C486 C 0.37919 0.5018 0.65179 0.0
C487 C 0.40304 0.50242 0.64633 0.0
C488 C 0.3655 0.49918 0.60395 0.0
C489 C 0.37526 0.49736 0.5493 0.0
C490 C 0.399 0.49806 0.54347 0.0
C491 C 0.41274 0.50041 0.59142 0.0
H492 H 0.95172 0.36743 0.40576 0.0
H493 H 0.02388 0.34867 0.42684 0.0
H494 H 0.95449 0.39259 0.48013 0.0
H495 H 0.02664 0.37506 0.49838 0.0
H496 H 0.01914 0.44342 0.58621 0.0
H497 H 0.01722 0.42103 0.50438 0.0
H498 H 0.96694 0.38114 0.59603 0.0
H499 H 0.96936 0.40305 0.67827 0.0
C500 C 0.96822 0.3687 0.42565 0.0
C501 C 0.98749 0.35553 0.41047 0.0
C502 C 0.96977 0.38328 0.46803 0.0
C503 C 0.99073 0.38561 0.49519 0.0
C504 C 0.01028 0.37361 0.47785 0.0
C505 C 0.00867 0.3586 0.43639 0.0
C506 C 0.00766 0.42989 0.58861 0.0
C507 C 0.99442 0.4249 0.63853 0.0
C508 C 0.00664 0.41707 0.54205 0.0
C509 C 0.99188 0.39945 0.54394 0.0
C510 C 0.97836 0.39473 0.59341 0.0
C511 C 0.97983 0.40714 0.64049 0.0
H512 H 0.88041 0.97431 0.1466 0.0
H513 H 0.83832 1.00253 0.99974 0.0
H514 H 0.91335 0.97171 0.0821 0.0
H515 H 0.87103 1.00022 0.93578 0.0
H516 H 0.92996 0.97907 0.8263 0.0
H517 H 0.89821 0.9736 0.89375 0.0
H518 H 0.93688 0.99994 0.02611 0.0
H519 H 0.96859 0.00525 0.9592 0.0
C520 C 0.87817 0.97973 0.10053 0.0
C521 C 0.85691 0.98887 0.07827 0.0
C522 C 0.89701 0.97836 0.0637 0.0
C523 C 0.89479 0.9858 0.00385 0.0
C524 C 0.87328 0.99413 0.98149 0.0
C525 C 0.8546 0.9957 0.01826 0.0
C526 C 0.93179 0.98341 0.87002 0.0
C527 C 0.95171 0.9928 0.88716 0.0
C528 C 0.91358 0.98036 0.90857 0.0
C529 C 0.915 0.98644 0.96518 0.0
C530 C 0.93532 0.99489 0.98304 0.0
C531 C 0.95342 0.9981 0.94445 0.0
H532 H 0.52372 0.84811 0.05133 0.0
H533 H 0.45183 0.8632 0.07724 0.0
H534 H 0.52571 0.88333 0.98784 0.0
H535 H 0.45385 0.89849 0.01388 0.0
H536 H 0.47153 0.96981 0.93908 0.0
H537 H 0.46966 0.93538 0.00611 0.0
H538 H 0.51245 0.89979 0.89175 0.0
H539 H 0.51463 0.93421 0.82528 0.0
C540 C 0.50831 0.8589 0.04339 0.0
C541 C 0.48759 0.8527 0.0693 0.0
C542 C 0.50945 0.87911 0.0069 0.0
C543 C 0.4899 0.89371 0.99534 0.0
C544 C 0.46929 0.88778 0.02227 0.0
C545 C 0.46815 0.86753 0.05875 0.0
C546 C 0.48053 0.95463 0.9282 0.0
C547 C 0.49326 0.95481 0.87678 0.0
C548 C 0.47937 0.93486 0.96655 0.0
C549 C 0.49097 0.9148 0.95452 0.0
C550 C 0.50359 0.91499 0.90291 0.0
C551 C 0.50471 0.93472 0.86453 0.0
H552 H 0.65714 0.49422 0.16867 0.0
H553 H 0.67236 0.562 0.10299 0.0
H554 H 0.62949 0.49412 0.0903 0.0
H555 H 0.64386 0.56232 0.02636 0.0
H556 H 0.61652 0.54329 0.85475 0.0
H557 H 0.64113 0.54529 0.93823 0.0
H558 H 0.59344 0.5089 0.04957 0.0
H559 H 0.56944 0.50586 0.96572 0.0
C560 C 0.65433 0.50923 0.13804 0.0
C561 C 0.66714 0.52803 0.14188 0.0
C562 C 0.6383 0.50926 0.09336 0.0
C563 C 0.63461 0.52814 0.05155 0.0
C564 C 0.64658 0.54735 0.05716 0.0
C565 C 0.66268 0.54729 0.10173 0.0
C566 C 0.61135 0.53552 0.89684 0.0
C567 C 0.59095 0.52437 0.90316 0.0
C568 C 0.62532 0.53697 0.94499 0.0
C569 C 0.61923 0.52736 1.00079 0.0
C570 C 0.59877 0.51634 0.00721 0.0
C571 C 0.58484 0.51482 0.95904 0.0
H572 H 0.9805 0.65859 0.14911 0.0
H573 H 0.04649 0.67806 0.08583 0.0
H574 H 0.978 0.63449 0.07161 0.0
H575 H 0.04423 0.65369 0.00988 0.0
H576 H 0.01943 0.63173 0.83953 0.0
H577 H 0.02196 0.65385 0.92046 0.0
H578 H 0.9954 0.59988 0.03592 0.0
H579 H 0.99241 0.57786 0.95437 0.0
C580 C 0.99455 0.65759 0.11909 0.0
C581 C 0.01372 0.67025 0.12401 0.0
C582 C 0.99319 0.64366 0.07492 0.0
C583 C 0.01086 0.64225 0.03424 0.0
C584 C 0.03019 0.65456 0.03995 0.0
C585 C 0.03161 0.66833 0.08415 0.0
C586 C 0.014 0.6246 0.88203 0.0
C587 C 0.00573 0.60299 0.8903 0.0
C588 C 0.01566 0.63721 0.92865 0.0
C589 C 0.00898 0.62862 0.98486 0.0
C590 C 0.00058 0.60705 0.99318 0.0
C591 C 0.99909 0.59434 0.94653 0.0
H592 H 0.99185 0.16983 0.56141 0.0
H593 H 0.92657 0.15857 0.48766 0.0
H594 H 0.98815 0.1377 0.63464 0.0
H595 H 0.9227 0.12614 0.56157 0.0
H596 H 0.9758 0.08548 0.77515 0.0
H597 H 0.96604 0.12178 0.71937 0.0
H598 H 0.94471 0.08854 0.57503 0.0
H599 H 0.95422 0.05217 0.63095 0.0
C600 C 0.97652 0.16063 0.56167 0.0
C601 C 0.95959 0.16644 0.51885 0.0
C602 C 0.97426 0.14238 0.60389 0.0
C603 C 0.9551 0.12943 0.60385 0.0
C604 C 0.93765 0.13583 0.56245 0.0
C605 C 0.93981 0.15436 0.52046 0.0
C606 C 0.96849 0.08588 0.73206 0.0
C607 C 0.96629 0.06599 0.70687 0.0
C608 C 0.96291 0.10668 0.70017 0.0
C609 C 0.95505 0.10796 0.64253 0.0
C610 C 0.95069 0.08806 0.61943 0.0
C611 C 0.95625 0.06722 0.6514 0.0
H612 H 0.33338 0.98859 0.54051 0.0
H613 H 0.3584 0.05356 0.4802 0.0
H614 H 0.36786 0.97942 0.60016 0.0
H615 H 0.3933 0.04353 0.53681 0.0
H616 H 0.46176 1.00235 0.59338 0.0
H617 H 0.42676 0.0058 0.5341 0.0
H618 H 0.38616 0.00438 0.68937 0.0
H619 H 0.42102 1.00162 0.74868 0.0
C620 C 0.34606 1.00096 0.53999 0.0
C621 C 0.34304 0.02183 0.50518 0.0
C622 C 0.36587 0.99554 0.57361 0.0
C623 C 0.38317 0.01067 0.57195 0.0
C624 C 0.38025 0.03148 0.53766 0.0
C625 C 0.36029 0.03713 0.50513 0.0
C626 C 0.44537 1.00226 0.61483 0.0
C627 C 0.444 1.00182 0.67542 0.0
C628 C 0.42545 1.00433 0.58102 0.0
C629 C 0.40399 0.00536 0.60756 0.0
C630 C 0.4026 1.00348 0.66827 0.0
C631 C 0.42248 1.00196 0.70198 0.0
H632 H 0.49558 0.36873 0.54156 0.0
H633 H 0.56605 0.38246 0.50654 0.0
H634 H 0.49075 0.40237 0.58929 0.0
H635 H 0.56071 0.41711 0.55081 0.0
H636 H 0.54837 0.46415 0.69269 0.0
H637 H 0.55536 0.43146 0.64119 0.0
H638 H 0.4873 0.4418 0.56713 0.0
H639 H 0.48003 0.47388 0.62066 0.0
C640 C 0.51013 0.37883 0.54432 0.0
C641 C 0.53125 0.37276 0.52028 0.0
C642 C 0.50721 0.39843 0.57073 0.0
C643 C 0.52523 0.41269 0.57322 0.0
C644 C 0.54647 0.4065 0.54993 0.0
C645 C 0.54947 0.38672 0.52398 0.0
C646 C 0.53503 0.45961 0.66473 0.0
C647 C 0.51359 0.47145 0.66106 0.0
C648 C 0.53905 0.44087 0.63509 0.0
C649 C 0.52178 0.43375 0.60064 0.0
C650 C 0.50077 0.44641 0.59454 0.0
C651 C 0.49667 0.46495 0.62474 0.0
H652 H 0.1243 0.55837 0.40371 0.0
H653 H 0.13438 0.48832 0.47158 0.0
H654 H 0.08964 0.5614 0.46195 0.0
H655 H 0.10039 0.49147 0.53039 0.0
H656 H 0.02891 0.49552 0.58779 0.0
H657 H 0.05888 0.49692 0.51536 0.0
H658 H 0.079 0.55956 0.56734 0.0
H659 H 0.0486 0.5584 0.63953 0.0
C660 C 0.11911 0.54367 0.43104 0.0
C661 C 0.13209 0.52314 0.43335 0.0
C662 C 0.09939 0.54543 0.46449 0.0
C663 C 0.09221 0.52663 0.50023 0.0
C664 C 0.10526 0.50617 0.50249 0.0
C665 C 0.12494 0.50444 0.46946 0.0
C666 C 0.03942 0.50983 0.58308 0.0
C667 C 0.03664 0.52669 0.61991 0.0
C668 C 0.05666 0.51056 0.54179 0.0
C669 C 0.07157 0.5281 0.53662 0.0
C670 C 0.06774 0.54585 0.5704 0.0
C671 C 0.05036 0.54516 0.61173 0.0
H672 H 0.02292 0.8461 0.97942 0.0
H673 H 0.08944 0.86048 0.04127 0.0
H674 H 0.02223 0.87974 0.91086 0.0
H675 H 0.08825 0.89496 0.97303 0.0
H676 H 0.02812 0.935 0.77229 0.0
H677 H 0.0408 0.89864 0.82364 0.0
H678 H 0.06329 0.93104 0.96834 0.0
H679 H 0.05085 0.96756 0.91671 0.0
C680 C 0.03774 0.85605 0.97743 0.0
C681 C 0.05627 0.85044 0.01607 0.0
C682 C 0.03729 0.87546 0.93802 0.0
C683 C 0.05522 0.88995 0.93649 0.0
C684 C 0.07414 0.88411 0.97359 0.0
C685 C 0.07474 0.86445 0.01278 0.0
C686 C 0.03621 0.93445 0.81453 0.0
C687 C 0.03806 0.95411 0.84101 0.0
C688 C 0.04346 0.91362 0.84389 0.0
C689 C 0.05268 0.91201 0.9003 0.0
C690 C 0.05632 0.93179 0.92478 0.0
C691 C 0.04907 0.95269 0.89534 0.0
H692 H 0.63095 0.02447 0.10222 0.0
H693 H 0.67174 0.03601 0.94771 0.0
H694 H 0.59665 0.02592 0.04232 0.0
H695 H 0.63734 0.0377 0.88757 0.0
H696 H 0.57758 0.00551 0.80698 0.0
H697 H 0.61142 0.01034 0.86352 0.0
H698 H 0.57069 0.04919 0.97521 0.0
H699 H 0.53655 0.04389 0.91921 0.0
C700 C 0.63251 0.02783 0.05546 0.0
C701 C 0.65403 0.03 0.0296 0.0
C702 C 0.61284 0.02868 0.02111 0.0
C703 C 0.61429 0.03178 0.96018 0.0
C704 C 0.63572 0.03488 0.9344 0.0
C705 C 0.6554 0.03395 0.96876 0.0
C706 C 0.57581 0.01518 0.84341 0.0
C707 C 0.55435 0.02419 0.85889 0.0
C708 C 0.59528 0.01812 0.87554 0.0
C709 C 0.59376 0.03018 0.92381 0.0
C710 C 0.57236 0.0396 0.9386 0.0
C711 C 0.55283 0.03663 0.90644 0.0
H712 H 0.4351 0.65768 0.01236 0.0
H713 H 0.50025 0.63598 0.09441 0.0
H714 H 0.43849 0.626 0.9553 0.0
H715 H 0.50253 0.60368 0.04209 0.0
H716 H 0.5167 0.56642 0.89016 0.0
H717 H 0.51047 0.59705 0.94733 0.0
H718 H 0.43843 0.58558 0.95641 0.0
H719 H 0.44462 0.55508 0.89561 0.0
C720 C 0.45004 0.64615 0.01858 0.0
C721 C 0.46738 0.64949 0.05816 0.0
C722 C 0.45179 0.62779 0.98656 0.0
C723 C 0.47086 0.61233 0.99376 0.0
C724 C 0.48781 0.61543 0.03441 0.0
C725 C 0.48628 0.63387 0.06539 0.0
C726 C 0.49949 0.5702 0.90453 0.0
C727 C 0.48116 0.55814 0.88867 0.0
C728 C 0.49593 0.58779 0.93778 0.0
C729 C 0.47399 0.59366 0.95734 0.0
C730 C 0.45554 0.58159 0.94175 0.0
C731 C 0.45909 0.56401 0.90744 0.0
H732 H 0.86748 0.54091 0.06 0.0
H733 H 0.87698 0.4709 0.12868 0.0
H734 H 0.90122 0.53726 1.00041 0.0
H735 H 0.91134 0.46735 0.06954 0.0
H736 H 0.95146 0.46979 0.89026 0.0
H737 H 0.92132 0.46904 0.96321 0.0
H738 H 0.94289 0.53115 0.01527 0.0
H739 H 0.97263 0.53212 0.94223 0.0
C740 C 0.87675 0.5247 0.06214 0.0
C741 C 0.86954 0.50617 0.09872 0.0
C742 C 0.89627 0.52268 0.02864 0.0
C743 C 0.90905 0.50207 0.03085 0.0
C744 C 0.90179 0.48342 0.06705 0.0
C745 C 0.88225 0.48549 0.10101 0.0
C746 C 0.95007 0.48298 0.91825 0.0
C747 C 0.96413 0.50119 0.90995 0.0
C748 C 0.93285 0.48254 0.96 0.0
C749 C 0.92951 0.50028 0.99401 0.0
C750 C 0.94475 0.51753 0.98868 0.0
C751 C 0.96184 0.51801 0.94704 0.0
H752 H 0.04006 0.19709 0.02284 0.0
H753 H 0.97431 0.17685 0.08589 0.0
H754 H 0.04515 0.16257 0.97617 0.0
H755 H 0.97942 0.14266 0.0395 0.0
H756 H 0.01285 0.07209 0.02664 0.0
H757 H 0.00741 0.10846 0.06251 0.0
H758 H 0.02683 0.14134 0.89553 0.0
H759 H 0.03223 0.10458 0.85921 0.0
C760 C 0.0266 0.18545 0.02613 0.0
C761 C 0.00675 0.18981 0.05798 0.0
C762 C 0.02947 0.16576 0.9992 0.0
C763 C 0.01274 0.14985 0.00451 0.0
C764 C 0.99268 0.15452 0.03498 0.0
C765 C 0.98967 0.17426 0.06109 0.0
C766 C 0.01616 0.08701 0.9976 0.0
C767 C 0.02311 0.08542 0.94012 0.0
C768 C 0.01282 0.10789 0.01802 0.0
C769 C 0.0166 0.12778 0.98181 0.0
C770 C 0.02385 0.12628 0.92447 0.0
C771 C 0.02682 0.1053 0.90362 0.0
H772 H 0.31093 0.07761 0.06521 0.0
H773 H 0.30462 0.01095 0.01735 0.0
H774 H 0.34605 0.08071 0.01051 0.0
H775 H 0.34061 0.01354 0.96555 0.0
H776 H 0.40055 0.02983 0.84699 0.0
H777 H 0.36191 0.03019 0.88572 0.0
H778 H 0.38413 0.06532 0.02587 0.0
H779 H 0.42254 0.06527 0.98642 0.0
C780 C 0.31673 0.06374 0.0421 0.0
C781 C 0.30489 0.04394 0.0462 0.0
C782 C 0.33719 0.06538 0.01153 0.0
C783 C 0.34651 0.04721 0.98459 0.0
C784 C 0.334 0.02791 0.98567 0.0
C785 C 0.31342 0.02634 0.01591 0.0
C786 C 0.39717 0.03755 0.88619 0.0
C787 C 0.41465 0.04747 0.91375 0.0
C788 C 0.375 0.03778 0.90839 0.0
C789 C 0.36979 0.04784 0.95889 0.0
C790 C 0.38731 0.05785 0.9862 0.0
C791 C 0.40941 0.05774 0.96377 0.0
H792 H 0.53526 0.3461 0.02022 0.0
H793 H 0.47605 0.36709 0.11516 0.0
H794 H 0.53132 0.38121 0.95519 0.0
H795 H 0.47195 0.40196 0.04957 0.0
H796 H 0.46139 0.45426 0.88704 0.0
H797 H 0.4634 0.41807 0.94796 0.0
H798 H 0.53643 0.42118 0.96425 0.0
H799 H 0.5345 0.45722 0.90317 0.0
C800 C 0.52132 0.3581 0.02707 0.0
C801 C 0.50605 0.35371 0.07326 0.0
C802 C 0.51909 0.37826 0.98983 0.0
C803 C 0.50146 0.39451 0.99755 0.0
C804 C 0.48562 0.38974 0.04211 0.0
C805 C 0.48792 0.36964 0.07958 0.0
C806 C 0.47787 0.44728 0.90387 0.0
C807 C 0.49778 0.45868 0.8902 0.0
C808 C 0.479 0.42655 0.93886 0.0
C809 C 0.5001 0.41663 0.96062 0.0
C810 C 0.51996 0.42815 0.94741 0.0
C811 C 0.51881 0.44894 0.91281 0.0
H812 H 0.16871 0.45058 0.98049 0.0
H813 H 0.16079 0.52054 0.00578 0.0
H814 H 0.13434 0.45504 0.91912 0.0
H815 H 0.12624 0.52487 0.94756 0.0
H816 H 0.07207 0.53324 0.81286 0.0
H817 H 0.10981 0.52718 0.85692 0.0
H818 H 0.09441 0.45955 0.92471 0.0
H819 H 0.057 0.46535 0.87679 0.0
C820 C 0.15973 0.46694 0.97237 0.0
C821 C 0.16759 0.48528 0.99723 0.0
C822 C 0.13991 0.46948 0.93774 0.0
C823 C 0.12734 0.49033 0.92815 0.0
C824 C 0.13561 0.50868 0.95238 0.0
C825 C 0.15552 0.50622 0.98599 0.0
C826 C 0.07681 0.51704 0.83702 0.0
C827 C 0.06153 0.49985 0.84212 0.0
C828 C 0.09845 0.51356 0.86261 0.0
C829 C 0.1052 0.49298 0.89545 0.0
C830 C 0.09002 0.47555 0.89933 0.0
C831 C 0.06848 0.47889 0.87236 0.0
H832 H 0.02733 0.82953 0.53266 0.0
H833 H 0.96177 0.84023 0.44529 0.0
H834 H 0.01875 0.86211 0.5828 0.0
H835 H 0.95238 0.8717 0.49923 0.0
H836 H 0.95661 0.94431 0.53513 0.0
H837 H 0.96126 0.9087 0.49709 0.0
H838 H 0.99907 0.88057 0.65169 0.0
H839 H 0.99587 0.91685 0.68799 0.0
C840 C 0.01091 0.83861 0.52464 0.0
C841 C 0.99549 0.83234 0.48369 0.0
C842 C 0.00581 0.85722 0.55431 0.0
C843 C 0.98494 0.86998 0.54477 0.0
C844 C 0.96889 0.86277 0.5068 0.0
C845 C 0.97414 0.84435 0.47645 0.0
C846 C 0.96608 0.93069 0.56113 0.0
C847 C 0.97622 0.93392 0.61439 0.0
C848 C 0.96843 0.90994 0.53955 0.0
C849 C 0.98069 0.89151 0.57087 0.0
C850 C 0.98991 0.89439 0.6255 0.0
C851 C 0.9878 0.91529 0.64683 0.0
H852 H 0.67599 0.95108 0.43056 0.0
H853 H 0.70025 0.99877 0.53816 0.0
H854 H 0.6411 0.94882 0.48658 0.0
H855 H 0.66504 0.99661 0.59416 0.0
H856 H 0.58696 0.01077 0.61564 0.0
H857 H 0.62501 0.0094 0.57406 0.0
H858 H 0.62401 0.93739 0.58038 0.0
H859 H 0.58598 0.93873 0.62225 0.0
C860 C 0.67422 0.96062 0.46722 0.0
C861 C 0.69099 0.97517 0.47964 0.0
C862 C 0.65408 0.95939 0.49927 0.0
C863 C 0.65014 0.97271 0.54451 0.0
C864 C 0.66737 0.98644 0.55886 0.0
C865 C 0.68757 0.98763 0.52687 0.0
C866 C 0.59492 0.9946 0.60897 0.0
C867 C 0.58324 0.97489 0.62205 0.0
C868 C 0.61682 0.9938 0.58521 0.0
C869 C 0.62759 0.97328 0.57385 0.0
C870 C 0.61609 0.95352 0.58785 0.0
C871 C 0.59421 0.95431 0.61168 0.0
H872 H 0.50916 0.68765 0.53868 0.0
H873 H 0.45506 0.66232 0.44346 0.0
H874 H 0.51394 0.65141 0.59967 0.0
H875 H 0.46012 0.62628 0.5026 0.0
H876 H 0.45756 0.5719 0.65331 0.0
H877 H 0.45369 0.60839 0.59605 0.0
H878 H 0.52694 0.61269 0.60004 0.0
H879 H 0.53073 0.57621 0.65989 0.0
C880 C 0.49827 0.67438 0.53092 0.0
C881 C 0.48144 0.67803 0.48696 0.0
C882 C 0.5011 0.65355 0.56551 0.0
C883 C 0.48732 0.63585 0.55645 0.0
C884 C 0.47067 0.63958 0.51207 0.0
C885 C 0.46772 0.66035 0.47808 0.0
C886 C 0.47291 0.5805 0.64179 0.0
C887 C 0.49449 0.57101 0.661 0.0
C888 C 0.47069 0.60149 0.60861 0.0
C889 C 0.49 0.61358 0.59294 0.0
C890 C 0.51166 0.60404 0.61182 0.0
C891 C 0.51387 0.58301 0.64564 0.0
H892 H 0.83928 0.50637 0.52666 0.0
H893 H 0.83041 0.57595 0.55509 0.0
H894 H 0.87407 0.50223 0.58385 0.0
H895 H 0.86508 0.57167 0.61536 0.0
H896 H 0.9428 0.56223 0.65441 0.0
H897 H 0.90508 0.56778 0.60795 0.0
H898 H 0.89084 0.49967 0.67423 0.0
H899 H 0.92884 0.49389 0.7168 0.0
C900 C 0.84439 0.52062 0.54696 0.0
C901 C 0.83197 0.54142 0.53686 0.0
C902 C 0.86445 0.51828 0.57995 0.0
C903 C 0.87254 0.53659 0.60468 0.0
C904 C 0.85964 0.55727 0.59631 0.0
C905 C 0.83965 0.5597 0.56233 0.0
C906 C 0.93151 0.54852 0.65878 0.0
C907 C 0.93885 0.52752 0.68813 0.0
C908 C 0.9098 0.55172 0.63268 0.0
C909 C 0.89486 0.53409 0.63657 0.0
C910 C 0.90201 0.51345 0.66855 0.0
C911 C 0.9238 0.51013 0.69327 0.0
loop_
_geom_bond_atom_site_label_1
_geom_bond_atom_site_label_2
_geom_bond_distance
_geom_bond_site_symmetry_2
_ccdc_geom_bond_type
C0 C1 1.386 . S
C0 C2 1.397 . S
C0 H24 0.931 . S
C1 C0 1.386 . S
C1 C5 1.397 1_556 S
C2 C0 1.397 . S
C2 C3 1.384 1_556 S
C2 H25 0.930 . S
C3 C2 1.384 1_554 S
C3 C4 1.377 . S
C3 C6 1.481 . S
C4 C3 1.377 . S
C4 C5 1.389 . S
C4 H26 0.929 . S
C5 C1 1.397 1_554 S
C5 C4 1.389 . S
C5 H27 0.931 . S
C6 C3 1.481 . S
C6 C7 1.387 . S
C6 C11 1.390 . S
C7 C6 1.387 . S
C7 C8 1.401 . S
C7 H28 0.930 . S
C8 C7 1.401 . S
C8 C9 1.376 . S
C8 C17 1.511 . S
C9 C8 1.376 . S
C9 C10 1.392 . S
C9 H30 0.931 . S
C10 C9 1.392 . S
C10 C11 1.361 . S
C10 C12 1.500 . S
C11 C6 1.390 . S
C11 C10 1.361 . S
C11 H29 0.931 . S
C12 C10 1.500 . S
C12 C13 1.371 . S
C12 C14 1.365 . S
C13 C12 1.371 . S
C13 C23 1.386 . S
C13 H31 0.931 . S
C14 C12 1.365 . S
C14 C15 1.409 . S
C14 H32 0.929 . S
C15 C14 1.409 . S
C15 C16 1.380 . S
C15 H33 0.930 . S
C16 C15 1.380 . S
C16 C23 1.357 . S
C17 C8 1.511 . S
C17 C18 1.341 . S
C17 C19 1.371 . S
C18 C17 1.341 . S
C18 C22 1.394 . S
C18 H34 0.930 . S
C19 C17 1.371 . S
C19 C20 1.392 . S
C19 H35 0.931 . S
C20 C19 1.392 . S
C20 C21 1.331 . S
C20 H38 0.932 . S
C21 C20 1.331 . S
C21 C22 1.336 . S
C22 C18 1.394 . S
C22 C21 1.336 . S
C22 H37 0.929 1_554 S
C23 C13 1.386 . S
C23 C16 1.357 . S
C23 H36 0.928 . S
H24 C0 0.931 . S
H25 C2 0.930 . S
H26 C4 0.929 . S
H27 C5 0.931 . S
H28 C7 0.930 . S
H29 C11 0.931 . S
H30 C9 0.931 . S
H31 C13 0.931 . S
H32 C14 0.929 . S
H33 C15 0.930 . S
H34 C18 0.930 . S
H35 C19 0.931 . S
H36 C23 0.928 . S
H37 C22 0.929 1_556 S
H38 C20 0.932 . S
C39 C40 1.395 . S
C39 C41 1.397 . S
C39 H63 0.931 . S
C40 C39 1.395 . S
C40 C44 1.389 1_655 S
C41 C39 1.397 . S
C41 C42 1.389 1_556 S
C41 H64 0.930 . S
C42 C41 1.389 1_554 S
C42 C43 1.372 1_655 S
C42 C45 1.479 . S
C43 C42 1.372 1_455 S
C43 C44 1.389 1_554 S
C43 H65 0.929 . S
C44 C40 1.389 1_455 S
C44 C43 1.389 1_556 S
C44 H66 0.931 . S
C45 C42 1.479 . S
C45 C46 1.390 . S
C45 C50 1.390 . S
C46 C45 1.390 . S
C46 C47 1.401 . S
C46 H67 0.930 . S
C47 C46 1.401 . S
C47 C48 1.376 . S
C47 C56 1.515 . S
C48 C47 1.376 . S
C48 C49 1.389 . S
C48 H69 0.936 . S
C49 C48 1.389 . S
C49 C50 1.362 . S
C49 C51 1.499 1_655 S
C50 C45 1.390 . S
C50 C49 1.362 . S
C50 H68 0.931 . S
C51 C49 1.499 1_455 S
C51 C52 1.361 1_455 S
C51 C53 1.376 . S
C52 C51 1.361 1_655 S
C52 C62 1.386 . S
C52 H70 0.931 . S
C53 C51 1.376 . S
C53 C54 1.409 . S
C53 H71 0.929 . S
C54 C53 1.409 . S
C54 C55 1.379 . S
C54 H72 0.930 . S
C55 C54 1.379 . S
C55 C62 1.359 1_455 S
C56 C47 1.515 . S
C56 C57 1.341 . S
C56 C58 1.371 1_655 S
C57 C56 1.341 . S
C57 C61 1.394 . S
C57 H73 0.930 . S
C58 C56 1.371 1_455 S
C58 C59 1.392 . S
C58 H74 0.931 . S
C59 C58 1.392 . S
C59 C60 1.322 1_455 S
C59 H77 0.932 . S
C60 C59 1.322 1_655 S
C60 C61 1.344 . S
C61 C57 1.394 . S
C61 C60 1.344 . S
C61 H76 0.929 . S
C62 C52 1.386 . S
C62 C55 1.359 1_655 S
C62 H75 0.928 . S
H63 C39 0.931 . S
H64 C41 0.930 . S
H65 C43 0.929 . S
H66 C44 0.931 . S
H67 C46 0.930 . S
H68 C50 0.931 . S
H69 C48 0.936 . S
H70 C52 0.931 . S
H71 C53 0.929 . S
H72 C54 0.930 . S
H73 C57 0.930 . S
H74 C58 0.931 . S
H75 C62 0.928 . S
H76 C61 0.929 . S
H77 C59 0.932 . S
C78 C79 1.386 . S
C78 C80 1.397 . S
C78 H102 0.931 . S
C79 C78 1.386 . S
C79 C83 1.397 . S
C80 C78 1.397 . S
C80 C81 1.384 1_556 S
C80 H103 0.930 . S
C81 C80 1.384 1_554 S
C81 C82 1.377 . S
C81 C84 1.481 . S
C82 C81 1.377 . S
C82 C83 1.389 1_554 S
C82 H104 0.929 . S
C83 C79 1.397 . S
C83 C82 1.389 1_556 S
C83 H105 0.931 . S
C84 C81 1.481 . S
C84 C85 1.387 . S
C84 C89 1.390 . S
C85 C84 1.387 . S
C85 C86 1.401 . S
C85 H106 0.930 . S
C86 C85 1.401 . S
C86 C87 1.376 . S
C86 C95 1.511 . S
C87 C86 1.376 . S
C87 C88 1.392 . S
C87 H108 0.931 . S
C88 C87 1.392 . S
C88 C89 1.361 . S
C88 C90 1.500 . S
C89 C84 1.390 . S
C89 C88 1.361 . S
C89 H107 0.931 . S
C90 C88 1.500 . S
C90 C91 1.371 . S
C90 C92 1.365 . S
C91 C90 1.371 . S
C91 C101 1.386 . S
C91 H109 0.931 . S
C92 C90 1.365 . S
C92 C93 1.409 . S
C92 H110 0.929 . S
C93 C92 1.409 . S
C93 C94 1.380 . S
C93 H111 0.930 . S
C94 C93 1.380 . S
C94 C101 1.357 . S
C95 C86 1.511 . S
C95 C96 1.341 . S
C95 C97 1.371 . S
C96 C95 1.341 . S
C96 C100 1.394 . S
C96 H112 0.941 . S
C97 C95 1.371 . S
C97 C98 1.392 . S
C97 H113 0.931 . S
C98 C97 1.392 . S
C98 C99 1.331 . S
C98 H116 0.932 . S
C99 C98 1.331 . S
C99 C100 1.336 . S
C100 C96 1.394 . S
C100 C99 1.336 . S
C100 H115 0.929 1_554 S
C101 C91 1.386 . S
C101 C94 1.357 . S
C101 H114 0.928 . S
H102 C78 0.931 . S
H103 C80 0.930 . S
H104 C82 0.929 . S
H105 C83 0.931 . S
H106 C85 0.930 . S
H107 C89 0.931 . S
H108 C87 0.931 . S
H109 C91 0.931 . S
H110 C92 0.929 . S
H111 C93 0.930 . S
H112 C96 0.941 . S
H113 C97 0.931 . S
H114 C101 0.928 . S
H115 C100 0.929 1_556 S
H116 C98 0.932 . S
C117 C118 1.386 . S
C117 C119 1.397 . S
C117 H141 0.931 . S
C118 C117 1.386 . S
C118 C122 1.397 . S
C119 C117 1.397 . S
C119 C120 1.384 . S
C119 H142 0.930 . S
C120 C119 1.384 . S
C120 C121 1.377 . S
C120 C123 1.481 . S
C121 C120 1.377 . S
C121 C122 1.389 . S
C121 H143 0.929 . S
C122 C118 1.397 . S
C122 C121 1.389 . S
C122 H144 0.931 . S
C123 C120 1.481 . S
C123 C124 1.387 . S
C123 C128 1.390 . S
C124 C123 1.387 . S
C124 C125 1.401 . S
C124 H145 0.930 . S
C125 C124 1.401 . S
C125 C126 1.376 . S
C125 C134 1.511 . S
C126 C125 1.376 . S
C126 C127 1.392 . S
C126 H147 0.931 . S
C127 C126 1.392 . S
C127 C128 1.361 . S
C127 C129 1.500 . S
C128 C123 1.390 . S
C128 C127 1.361 . S
C128 H146 0.931 . S
C129 C127 1.500 . S
C129 C130 1.371 1_554 S
C129 C131 1.365 . S
C130 C129 1.371 1_556 S
C130 C140 1.386 . S
C130 H148 0.931 . S
C131 C129 1.365 . S
C131 C132 1.409 . S
C131 H149 0.929 . S
C132 C131 1.409 . S
C132 C133 1.380 1_554 S
C132 H150 0.930 . S
C133 C132 1.380 1_556 S
C133 C140 1.357 . S
C134 C125 1.511 . S
C134 C135 1.341 . S
C134 C136 1.371 . S
C135 C134 1.341 . S
C135 C139 1.394 . S
C135 H151 0.930 . S
C136 C134 1.371 . S
C136 C137 1.392 . S
C136 H152 0.931 . S
C137 C136 1.392 . S
C137 C138 1.331 . S
C137 H155 0.932 1_554 S
C138 C137 1.331 . S
C138 C139 1.336 . S
C139 C135 1.394 . S
C139 C138 1.336 . S
C139 H154 0.929 . S
C140 C130 1.386 . S
C140 C133 1.357 . S
C140 H153 0.928 . S
H141 C117 0.931 . S
H142 C119 0.930 . S
H143 C121 0.929 . S
H144 C122 0.931 . S
H145 C124 0.930 . S
H146 C128 0.931 . S
H147 C126 0.931 . S
H148 C130 0.931 . S
H149 C131 0.929 . S
H150 C132 0.930 . S
H151 C135 0.930 . S
H152 C136 0.931 . S
H153 C140 0.928 . S
H154 C139 0.929 . S
H155 C137 0.932 1_556 S
C156 C157 1.386 . S
C156 C158 1.397 . S
C156 H180 0.931 . S
C157 C156 1.386 . S
C157 C161 1.397 . S
C158 C156 1.397 . S
C158 C159 1.384 . S
C158 H181 0.930 . S
C159 C158 1.384 . S
C159 C160 1.377 . S
C159 C162 1.481 . S
C160 C159 1.377 . S
C160 C161 1.389 . S
C160 H182 0.929 . S
C161 C157 1.397 . S
C161 C160 1.389 . S
C161 H183 0.931 . S
C162 C159 1.481 . S
C162 C163 1.387 . S
C162 C167 1.390 . S
C163 C162 1.387 . S
C163 C164 1.401 . S
C163 H184 0.930 . S
C164 C163 1.401 . S
C164 C165 1.376 . S
C164 C173 1.511 . S
C165 C164 1.376 . S
C165 C166 1.392 . S
C165 H186 0.931 . S
C166 C165 1.392 . S
C166 C167 1.361 . S
C166 C168 1.500 . S
C167 C162 1.390 . S
C167 C166 1.361 . S
C167 H185 0.931 . S
C168 C166 1.500 . S
C168 C169 1.371 . S
C168 C170 1.365 . S
C169 C168 1.371 . S
C169 C179 1.386 . S
C169 H187 0.931 . S
C170 C168 1.365 . S
C170 C171 1.409 . S
C170 H188 0.929 . S
C171 C170 1.409 . S
C171 C172 1.380 . S
C171 H189 0.930 . S
C172 C171 1.380 . S
C172 C179 1.357 . S
C173 C164 1.511 . S
C173 C174 1.341 . S
C173 C175 1.371 . S
C174 C173 1.341 . S
C174 C178 1.394 . S
C174 H190 0.930 . S
C175 C173 1.371 . S
C175 C176 1.392 . S
C175 H191 0.931 . S
C176 C175 1.392 . S
C176 C177 1.331 . S
C176 H194 0.932 . S
C177 C176 1.331 . S
C177 C178 1.336 . S
C178 C174 1.394 . S
C178 C177 1.336 . S
C178 H193 0.929 . S
C179 C169 1.386 . S
C179 C172 1.357 . S
C179 H192 0.928 . S
H180 C156 0.931 . S
H181 C158 0.930 . S
H182 C160 0.929 . S
H183 C161 0.931 . S
H184 C163 0.930 . S
H185 C167 0.931 . S
H186 C165 0.931 . S
H187 C169 0.931 . S
H188 C170 0.929 . S
H189 C171 0.930 . S
H190 C174 0.930 . S
H191 C175 0.931 . S
H192 C179 0.928 . S
H193 C178 0.929 . S
H194 C176 0.932 . S
C195 C196 1.387 . S
C195 C197 1.397 . S
C195 H219 0.931 . S
C196 C195 1.387 . S
C196 C200 1.396 1_655 S
C197 C195 1.397 . S
C197 C198 1.382 . S
C197 H220 0.930 . S
C198 C197 1.382 . S
C198 C199 1.379 1_655 S
C198 C201 1.482 . S
C199 C198 1.379 1_455 S
C199 C200 1.389 . S
C199 H221 0.929 . S
C200 C196 1.396 1_455 S
C200 C199 1.389 . S
C200 H222 0.931 . S
C201 C198 1.482 . S
C201 C202 1.387 . S
C201 C206 1.390 . S
C202 C201 1.387 . S
C202 C203 1.403 . S
C202 H223 0.930 . S
C203 C202 1.403 . S
C203 C204 1.376 . S
C203 C212 1.511 . S
C204 C203 1.376 . S
C204 C205 1.393 1_655 S
C204 H225 0.932 . S
C205 C204 1.393 1_455 S
C205 C206 1.361 1_455 S
C205 C207 1.499 . S
C206 C201 1.390 . S
C206 C205 1.361 1_655 S
C206 H224 0.931 . S
C207 C205 1.499 . S
C207 C208 1.358 1_455 S
C207 C209 1.379 . S
C208 C207 1.358 1_655 S
C208 C218 1.386 . S
C208 H226 0.931 . S
C209 C207 1.379 . S
C209 C210 1.409 . S
C209 H227 0.929 . S
C210 C209 1.409 . S
C210 C211 1.384 . S
C210 H228 0.930 . S
C211 C210 1.384 . S
C211 C218 1.354 1_455 S
C212 C203 1.511 . S
C212 C213 1.341 . S
C212 C214 1.371 1_655 S
C213 C212 1.341 . S
C213 C217 1.394 . S
C213 H229 0.930 . S
C214 C212 1.371 1_455 S
C214 C215 1.392 . S
C214 H230 0.931 . S
C215 C214 1.392 . S
C215 C216 1.326 1_455 S
C215 H233 0.932 . S
C216 C215 1.326 1_655 S
C216 C217 1.342 . S
C217 C213 1.394 . S
C217 C216 1.342 . S
C217 H232 0.929 . S
C218 C208 1.386 . S
C218 C211 1.354 1_655 S
C218 H231 0.928 . S
H219 C195 0.931 . S
H220 C197 0.930 . S
H221 C199 0.929 . S
H222 C200 0.931 . S
H223 C202 0.930 . S
H224 C206 0.931 . S
H225 C204 0.932 . S
H226 C208 0.931 . S
H227 C209 0.929 . S
H228 C210 0.930 . S
H229 C213 0.930 . S
H230 C214 0.931 . S
H231 C218 0.928 . S
H232 C217 0.929 . S
H233 C215 0.932 . S
C234 C235 1.386 . S
C234 C236 1.397 . S
C234 H258 0.931 . S
C235 C234 1.386 . S
C235 C239 1.397 . S
C236 C234 1.397 . S
C236 C237 1.384 . S
C236 H259 0.930 . S
C237 C236 1.384 . S
C237 C238 1.377 . S
C237 C240 1.481 . S
C238 C237 1.377 . S
C238 C239 1.389 . S
C238 H260 0.929 . S
C239 C235 1.397 . S
C239 C238 1.389 . S
C239 H261 0.931 . S
C240 C237 1.481 . S
C240 C241 1.387 . S
C240 C245 1.390 . S
C241 C240 1.387 . S
C241 C242 1.401 . S
C241 H262 0.930 . S
C242 C241 1.401 . S
C242 C243 1.376 . S
C242 C251 1.511 . S
C243 C242 1.376 . S
C243 C244 1.392 . S
C243 H264 0.931 . S
C244 C243 1.392 . S
C244 C245 1.361 . S
C244 C246 1.500 . S
C245 C240 1.390 . S
C245 C244 1.361 . S
C245 H263 0.931 . S
C246 C244 1.500 . S
C246 C247 1.371 . S
C246 C248 1.365 . S
C247 C246 1.371 . S
C247 C257 1.386 . S
C247 H265 0.931 . S
C248 C246 1.365 . S
C248 C249 1.409 . S
C248 H266 0.929 . S
C249 C248 1.409 . S
C249 C250 1.380 . S
C249 H267 0.930 . S
C250 C249 1.380 . S
C250 C257 1.357 . S
C251 C242 1.511 . S
C251 C252 1.341 . S
C251 C253 1.371 . S
C252 C251 1.341 . S
C252 C256 1.394 . S
C252 H268 0.930 . S
C253 C251 1.371 . S
C253 C254 1.392 . S
C253 H269 0.931 . S
C254 C253 1.392 . S
C254 C255 1.331 . S
C254 H272 0.932 . S
C255 C254 1.331 . S
C255 C256 1.336 . S
C256 C252 1.394 . S
C256 C255 1.336 . S
C256 H271 0.929 . S
C257 C247 1.386 . S
C257 C250 1.357 . S
C257 H270 0.928 . S
H258 C234 0.931 . S
H259 C236 0.930 . S
H260 C238 0.929 . S
H261 C239 0.931 . S
H262 C241 0.930 . S
H263 C245 0.931 . S
H264 C243 0.931 . S
H265 C247 0.931 . S
H266 C248 0.929 . S
H267 C249 0.930 . S
H268 C252 0.930 . S
H269 C253 0.931 . S
H270 C257 0.928 . S
H271 C256 0.929 . S
H272 C254 0.932 . S
C273 C274 1.386 . S
C273 C275 1.397 . S
C273 H297 0.931 . S
C274 C273 1.386 . S
C274 C278 1.397 . S
C275 C273 1.397 . S
C275 C276 1.384 . S
C275 H298 0.930 . S
C276 C275 1.384 . S
C276 C277 1.377 . S
C276 C279 1.481 . S
C277 C276 1.377 . S
C277 C278 1.389 . S
C277 H299 0.929 . S
C278 C274 1.397 . S
C278 C277 1.389 . S
C278 H300 0.931 . S
C279 C276 1.481 . S
C279 C280 1.387 . S
C279 C284 1.390 . S
C280 C279 1.387 . S
C280 C281 1.401 . S
C280 H301 0.930 . S
C281 C280 1.401 . S
C281 C282 1.376 . S
C281 C290 1.511 . S
C282 C281 1.376 . S
C282 C283 1.392 . S
C282 H303 0.931 . S
C283 C282 1.392 . S
C283 C284 1.361 . S
C283 C285 1.500 . S
C284 C279 1.390 . S
C284 C283 1.361 . S
C284 H302 0.931 . S
C285 C283 1.500 . S
C285 C286 1.371 . S
C285 C287 1.365 . S
C286 C285 1.371 . S
C286 C296 1.386 . S
C286 H304 0.931 . S
C287 C285 1.365 . S
C287 C288 1.409 . S
C287 H305 0.929 . S
C288 C287 1.409 . S
C288 C289 1.380 . S
C288 H306 0.930 . S
C289 C288 1.380 . S
C289 C296 1.357 . S
C290 C281 1.511 . S
C290 C291 1.341 . S
C290 C292 1.371 . S
C291 C290 1.341 . S
C291 C295 1.394 . S
C291 H307 0.930 . S
C292 C290 1.371 . S
C292 C293 1.392 . S
C292 H308 0.931 . S
C293 C292 1.392 . S
C293 C294 1.331 . S
C293 H311 0.932 . S
C294 C293 1.331 . S
C294 C295 1.336 . S
C295 C291 1.394 . S
C295 C294 1.336 . S
C295 H310 0.929 . S
C296 C286 1.386 . S
C296 C289 1.357 . S
C296 H309 0.928 . S
H297 C273 0.931 . S
H298 C275 0.930 . S
H299 C277 0.929 . S
H300 C278 0.931 . S
H301 C280 0.930 . S
H302 C284 0.931 . S
H303 C282 0.931 . S
H304 C286 0.931 . S
H305 C287 0.929 . S
H306 C288 0.930 . S
H307 C291 0.930 . S
H308 C292 0.931 . S
H309 C296 0.928 . S
H310 C295 0.929 . S
H311 C293 0.932 . S
Co312 N317 2.057 . S
Co312 O329 2.021 . S
Co312 O332 2.062 1_455 S
Co312 O336 2.117 1_455 S
Co312 O337 2.020 1_545 S
C313 O333 1.259 1_545 S
C313 O336 1.258 . S
Co314 N323 2.057 . S
Co314 O330 2.117 1_665 S
Co314 O331 2.020 1_565 S
Co314 O333 2.021 . S
Co314 O338 2.062 1_655 S
C315 N317 1.316 . S
C315 N318 1.347 . S
C315 H320 0.931 . S
C316 N317 1.375 1_655 S
C316 C319 1.350 . S
C316 H321 0.930 . S
N317 Co312 2.057 . S
N317 C315 1.316 . S
N317 C316 1.375 1_455 S
N318 C315 1.347 . S
N318 C319 1.373 1_455 S
C319 C316 1.350 . S
C319 N318 1.373 1_655 S
C319 H340 0.931 . S
H320 C315 0.931 . S
H321 C316 0.930 . S
C322 O329 1.259 . S
C322 O330 1.258 . S
N323 Co314 2.057 . S
N323 C324 1.316 . S
N323 C325 1.375 1_655 S
C324 N323 1.316 . S
C324 N326 1.347 . S
C324 H335 0.931 . S
C325 N323 1.375 1_455 S
C325 C327 1.350 . S
C325 H334 0.930 . S
N326 C324 1.347 . S
N326 C327 1.373 1_655 S
C327 C325 1.350 . S
C327 N326 1.373 1_455 S
C327 H341 0.931 . S
C328 O331 1.256 . S
C328 O332 1.255 . S
O329 Co312 2.021 . S
O329 C322 1.259 . S
O330 Co314 2.117 1_445 S
O330 C322 1.258 . S
O331 Co314 2.020 1_545 S
O331 C328 1.256 . S
O332 Co312 2.062 1_655 S
O332 C328 1.255 . S
O333 C313 1.259 1_565 S
O333 Co314 2.021 . S
H334 C325 0.930 . S
H335 C324 0.931 . S
O336 Co312 2.117 1_655 S
O336 C313 1.258 . S
O337 Co312 2.020 1_565 S
O337 C339 1.256 . S
O338 Co314 2.062 1_455 S
O338 C339 1.255 . S
C339 O337 1.256 . S
C339 O338 1.255 . S
H340 C319 0.931 . S
H341 C327 0.931 . S
Co342 N347 2.057 . S
Co342 O359 2.021 . S
Co342 O362 2.062 . S
Co342 O366 2.117 1_545 S
Co342 O367 2.020 . S
C343 O363 1.259 . S
C343 O366 1.258 . S
Co344 N353 2.055 1_545 S
Co344 O360 2.132 . S
Co344 O361 2.021 . S
Co344 O363 2.007 1_545 S
Co344 O368 2.062 1_545 S
C345 N347 1.316 . S
C345 N348 1.347 . S
C345 H350 0.931 . S
C346 N347 1.375 . S
C346 C349 1.350 . S
C346 H351 0.930 1_545 S
N347 Co342 2.057 . S
N347 C345 1.316 . S
N347 C346 1.375 . S
N348 C345 1.347 . S
N348 C349 1.373 . S
C349 C346 1.350 . S
C349 N348 1.373 . S
C349 H370 0.931 . S
H350 C345 0.931 . S
H351 C346 0.930 1_565 S
C352 O359 1.259 . S
C352 O360 1.258 . S
N353 Co344 2.055 1_565 S
N353 C354 1.316 . S
N353 C355 1.375 1_565 S
C354 N353 1.316 . S
C354 N356 1.347 . S
C354 H365 0.931 . S
C355 N353 1.375 1_545 S
C355 C357 1.350 . S
C355 H364 0.930 . S
N356 C354 1.347 . S
N356 C357 1.373 1_565 S
C357 C355 1.350 . S
C357 N356 1.373 1_545 S
C357 H371 0.931 . S
C358 O361 1.256 . S
C358 O362 1.255 . S
O359 Co342 2.021 . S
O359 C352 1.259 . S
O360 Co344 2.132 . S
O360 C352 1.258 . S
O361 Co344 2.021 . S
O361 C358 1.256 . S
O362 Co342 2.062 . S
O362 C358 1.255 . S
O363 C343 1.259 . S
O363 Co344 2.007 1_565 S
H364 C355 0.930 . S
H365 C354 0.931 . S
O366 Co342 2.117 1_565 S
O366 C343 1.258 . S
O367 Co342 2.020 . S
O367 C369 1.256 . S
O368 Co344 2.062 1_565 S
O368 C369 1.255 1_565 S
C369 O367 1.256 . S
C369 O368 1.255 1_545 S
H370 C349 0.931 . S
H371 C357 0.931 . S
Co372 N377 2.057 . S
Co372 O389 2.021 . S
Co372 O392 2.062 . S
Co372 O396 2.117 . S
Co372 O397 2.020 . S
C373 O393 1.259 . S
C373 O396 1.258 . S
Co374 N383 2.057 . S
Co374 O390 2.117 . S
Co374 O391 2.020 . S
Co374 O393 2.021 . S
Co374 O398 2.062 . S
C375 N377 1.316 . S
C375 N378 1.347 . S
C375 H380 0.931 . S
C376 N377 1.375 . S
C376 C379 1.350 . S
C376 H381 0.930 . S
N377 Co372 2.057 . S
N377 C375 1.316 . S
N377 C376 1.375 . S
N378 C375 1.347 . S
N378 C379 1.373 . S
C379 C376 1.350 . S
C379 N378 1.373 . S
C379 H400 0.931 . S
H380 C375 0.931 . S
H381 C376 0.930 . S
C382 O389 1.259 . S
C382 O390 1.258 . S
N383 Co374 2.057 . S
N383 C384 1.316 . S
N383 C385 1.375 . S
C384 N383 1.316 . S
C384 N386 1.347 . S
C384 H395 0.931 . S
C385 N383 1.375 . S
C385 C387 1.350 . S
C385 H394 0.930 . S
N386 C384 1.347 . S
N386 C387 1.373 . S
C387 C385 1.350 . S
C387 N386 1.373 . S
C387 H401 0.931 . S
C388 O391 1.256 . S
C388 O392 1.255 . S
O389 Co372 2.021 . S
O389 C382 1.259 . S
O390 Co374 2.117 . S
O390 C382 1.258 . S
O391 Co374 2.020 . S
O391 C388 1.256 . S
O392 Co372 2.062 . S
O392 C388 1.255 . S
O393 C373 1.259 . S
O393 Co374 2.021 . S
H394 C385 0.930 . S
H395 C384 0.931 . S
O396 Co372 2.117 . S
O396 C373 1.258 . S
O397 Co372 2.020 . S
O397 C399 1.256 . S
O398 Co374 2.062 . S
O398 C399 1.255 . S
C399 O397 1.256 . S
C399 O398 1.255 . S
H400 C379 0.931 . S
H401 C387 0.931 . S
Co402 N407 2.057 . S
Co402 O419 2.021 1_455 S
Co402 O422 2.062 1_455 S
Co402 O426 2.117 . S
Co402 O427 2.020 . S
C403 O423 1.259 . S
C403 O426 1.258 . S
Co404 N413 2.057 . S
Co404 O420 2.117 . S
Co404 O421 2.020 . S
Co404 O423 2.021 1_655 S
Co404 O428 2.062 1_655 S
C405 N407 1.316 . S
C405 N408 1.347 . S
C405 H410 0.931 1_455 S
C406 N407 1.375 . S
C406 C409 1.350 . S
C406 H411 0.930 . S
N407 Co402 2.057 . S
N407 C405 1.316 . S
N407 C406 1.375 . S
N408 C405 1.347 . S
N408 C409 1.373 . S
C409 C406 1.350 . S
C409 N408 1.373 . S
C409 H430 0.931 . S
H410 C405 0.931 1_655 S
H411 C406 0.930 . S
C412 O419 1.259 . S
C412 O420 1.258 . S
N413 Co404 2.057 . S
N413 C414 1.316 . S
N413 C415 1.375 . S
C414 N413 1.316 . S
C414 N416 1.347 . S
C414 H425 0.931 1_655 S
C415 N413 1.375 . S
C415 C417 1.350 . S
C415 H424 0.930 . S
N416 C414 1.347 . S
N416 C417 1.373 . S
C417 C415 1.350 . S
C417 N416 1.373 . S
C417 H431 0.931 . S
C418 O421 1.256 . S
C418 O422 1.255 . S
O419 Co402 2.021 1_655 S
O419 C412 1.259 . S
O420 Co404 2.117 . S
O420 C412 1.258 . S
O421 Co404 2.020 . S
O421 C418 1.256 . S
O422 Co402 2.062 1_655 S
O422 C418 1.255 . S
O423 C403 1.259 . S
O423 Co404 2.021 1_455 S
H424 C415 0.930 . S
H425 C414 0.931 1_455 S
O426 Co402 2.117 . S
O426 C403 1.258 . S
O427 Co402 2.020 . S
O427 C429 1.256 . S
O428 Co404 2.062 1_455 S
O428 C429 1.255 . S
C429 O427 1.256 . S
C429 O428 1.255 . S
H430 C409 0.931 . S
H431 C417 0.931 . S
H432 C440 0.950 . S
H433 C445 0.950 . S
H434 C442 0.950 . S
H435 C444 0.950 . S
H436 C446 0.950 . S
H437 C448 0.950 . S
H438 C450 0.950 . S
H439 C451 0.950 1_565 S
C440 H432 0.950 . S
C440 C441 1.386 . S
C440 C442 1.391 . S
C441 C440 1.386 . S
C441 C445 1.393 . S
C442 H434 0.950 . S
C442 C440 1.391 . S
C442 C443 1.400 . S
C443 C442 1.400 . S
C443 C444 1.398 . S
C443 C449 1.491 . S
C444 H435 0.950 . S
C444 C443 1.398 . S
C444 C445 1.391 . S
C445 H433 0.950 . S
C445 C441 1.393 . S
C445 C444 1.391 . S
C446 H436 0.950 . S
C446 C447 1.386 . S
C446 C448 1.391 . S
C447 C446 1.386 . S
C447 C451 1.393 . S
C448 H437 0.950 . S
C448 C446 1.391 . S
C448 C449 1.400 . S
C449 C443 1.491 . S
C449 C448 1.400 . S
C449 C450 1.398 . S
C450 H438 0.950 . S
C450 C449 1.398 . S
C450 C451 1.391 . S
C451 H439 0.950 1_545 S
C451 C447 1.393 . S
C451 C450 1.391 . S
H452 C460 0.950 . S
H453 C465 0.950 . S
H454 C462 0.950 . S
H455 C464 0.950 . S
H456 C466 0.950 . S
H457 C468 0.950 . S
H458 C470 0.950 . S
H459 C471 0.950 . S
C460 H452 0.950 . S
C460 C461 1.386 . S
C460 C462 1.391 . S
C461 C460 1.386 . S
C461 C465 1.393 . S
C462 H454 0.950 . S
C462 C460 1.391 . S
C462 C463 1.400 . S
C463 C462 1.400 . S
C463 C464 1.398 . S
C463 C469 1.491 . S
C464 H455 0.950 . S
C464 C463 1.398 . S
C464 C465 1.391 . S
C465 H453 0.950 . S
C465 C461 1.393 . S
C465 C464 1.391 . S
C466 H456 0.950 . S
C466 C467 1.386 . S
C466 C468 1.391 . S
C467 C466 1.386 . S
C467 C471 1.393 . S
C468 H457 0.950 . S
C468 C466 1.391 . S
C468 C469 1.400 . S
C469 C463 1.491 . S
C469 C468 1.400 . S
C469 C470 1.398 . S
C470 H458 0.950 . S
C470 C469 1.398 . S
C470 C471 1.391 . S
C471 H459 0.950 . S
C471 C467 1.393 . S
C471 C470 1.391 . S
H472 C480 0.950 . S
H473 C485 0.950 . S
H474 C482 0.950 . S
H475 C484 0.950 . S
H476 C486 0.950 . S
H477 C488 0.950 . S
H478 C490 0.950 . S
H479 C491 0.950 . S
C480 H472 0.950 . S
C480 C481 1.386 . S
C480 C482 1.391 . S
C481 C480 1.386 . S
C481 C485 1.393 . S
C482 H474 0.950 . S
C482 C480 1.391 . S
C482 C483 1.400 . S
C483 C482 1.400 . S
C483 C484 1.398 . S
C483 C489 1.491 . S
C484 H475 0.950 . S
C484 C483 1.398 . S
C484 C485 1.391 . S
C485 H473 0.950 . S
C485 C481 1.393 . S
C485 C484 1.391 . S
C486 H476 0.950 . S
C486 C487 1.386 . S
C486 C488 1.391 . S
C487 C486 1.386 . S
C487 C491 1.393 . S
C488 H477 0.950 . S
C488 C486 1.391 . S
C488 C489 1.400 . S
C489 C483 1.491 . S
C489 C488 1.400 . S
C489 C490 1.398 . S
C490 H478 0.950 . S
C490 C489 1.398 . S
C490 C491 1.391 . S
C491 H479 0.950 . S
C491 C487 1.393 . S
C491 C490 1.391 . S
H492 C500 0.950 . S
H493 C505 0.950 . S
H494 C502 0.950 . S
H495 C504 0.950 . S
H496 C506 0.950 . S
H497 C508 0.950 . S
H498 C510 0.950 . S
H499 C511 0.950 . S
C500 H492 0.950 . S
C500 C501 1.420 . S
C500 C502 1.391 . S
C501 C500 1.420 . S
C501 C505 1.361 1_655 S
C502 H494 0.950 . S
C502 C500 1.391 . S
C502 C503 1.400 . S
C503 C502 1.400 . S
C503 C504 1.398 1_655 S
C503 C509 1.491 . S
C504 H495 0.950 . S
C504 C503 1.398 1_455 S
C504 C505 1.391 . S
C505 H493 0.950 . S
C505 C501 1.361 1_455 S
C505 C504 1.391 . S
C506 H496 0.950 . S
C506 C507 1.386 1_455 S
C506 C508 1.391 . S
C507 C506 1.386 1_655 S
C507 C511 1.393 . S
C508 H497 0.950 . S
C508 C506 1.391 . S
C508 C509 1.400 1_455 S
C509 C503 1.491 . S
C509 C508 1.400 1_655 S
C509 C510 1.398 . S
C510 H498 0.950 . S
C510 C509 1.398 . S
C510 C511 1.391 . S
C511 H499 0.950 . S
C511 C507 1.393 . S
C511 C510 1.391 . S
H512 C520 0.950 . S
H513 C525 0.950 . S
H514 C522 0.950 . S
H515 C524 0.950 . S
H516 C526 0.950 . S
H517 C528 0.950 . S
H518 C530 0.950 . S
H519 C531 0.950 . S
C520 H512 0.950 . S
C520 C521 1.386 . S
C520 C522 1.391 1_554 S
C521 C520 1.386 . S
C521 C525 1.393 1_554 S
C522 H514 0.950 . S
C522 C520 1.391 1_556 S
C522 C523 1.400 . S
C523 C522 1.400 . S
C523 C524 1.398 . S
C523 C529 1.491 . S
C524 H515 0.950 . S
C524 C523 1.398 . S
C524 C525 1.391 . S
C525 H513 0.950 . S
C525 C521 1.393 1_556 S
C525 C524 1.391 . S
C526 H516 0.950 . S
C526 C527 1.386 1_545 S
C526 C528 1.391 1_545 S
C527 C526 1.386 1_565 S
C527 C531 1.393 . S
C528 H517 0.950 . S
C528 C526 1.391 1_565 S
C528 C529 1.400 . S
C529 C523 1.491 . S
C529 C528 1.400 . S
C529 C530 1.398 . S
C530 H518 0.950 . S
C530 C529 1.398 . S
C530 C531 1.391 . S
C531 H519 0.950 . S
C531 C527 1.393 . S
C531 C530 1.391 . S
H532 C540 0.950 . S
H533 C545 0.950 . S
H534 C542 0.950 . S
H535 C544 0.950 . S
H536 C546 0.950 . S
H537 C548 0.950 . S
H538 C550 0.950 . S
H539 C551 0.950 . S
C540 H532 0.950 . S
C540 C541 1.386 . S
C540 C542 1.391 1_554 S
C541 C540 1.386 . S
C541 C545 1.393 1_554 S
C542 H534 0.950 . S
C542 C540 1.391 1_556 S
C542 C543 1.400 . S
C543 C542 1.400 . S
C543 C544 1.398 . S
C543 C549 1.491 . S
C544 H535 0.950 . S
C544 C543 1.398 . S
C544 C545 1.391 . S
C545 H533 0.950 . S
C545 C541 1.393 1_556 S
C545 C544 1.391 . S
C546 H536 0.950 . S
C546 C547 1.386 . S
C546 C548 1.391 . S
C547 C546 1.386 . S
C547 C551 1.393 . S
C548 H537 0.950 . S
C548 C546 1.391 . S
C548 C549 1.400 . S
C549 C543 1.491 . S
C549 C548 1.400 . S
C549 C550 1.398 . S
C550 H538 0.950 . S
C550 C549 1.398 . S
C550 C551 1.391 . S
C551 H539 0.950 . S
C551 C547 1.393 . S
C551 C550 1.391 . S
H552 C560 0.950 . S
H553 C565 0.950 . S
H554 C562 0.950 . S
H555 C564 0.950 . S
H556 C566 0.950 . S
H557 C568 0.950 . S
H558 C570 0.950 . S
H559 C571 0.950 . S
C560 H552 0.950 . S
C560 C561 1.386 . S
C560 C562 1.391 . S
C561 C560 1.386 . S
C561 C565 1.393 1_554 S
C562 H554 0.950 . S
C562 C560 1.391 . S
C562 C563 1.400 1_554 S
C563 C562 1.400 1_556 S
C563 C564 1.398 . S
C563 C569 1.491 . S
C564 H555 0.950 . S
C564 C563 1.398 . S
C564 C565 1.391 . S
C565 H553 0.950 . S
C565 C561 1.393 1_556 S
C565 C564 1.391 . S
C566 H556 0.950 . S
C566 C567 1.386 . S
C566 C568 1.391 . S
C567 C566 1.386 . S
C567 C571 1.393 . S
C568 H557 0.950 . S
C568 C566 1.391 . S
C568 C569 1.400 . S
C569 C563 1.491 . S
C569 C568 1.400 . S
C569 C570 1.398 . S
C570 H558 0.950 . S
C570 C569 1.398 . S
C570 C571 1.391 . S
C571 H559 0.950 . S
C571 C567 1.393 . S
C571 C570 1.391 . S
H572 C580 0.950 . S
H573 C585 0.950 . S
H574 C582 0.950 . S
H575 C584 0.950 . S
H576 C586 0.950 . S
H577 C588 0.950 . S
H578 C590 0.950 . S
H579 C591 0.950 . S
C580 H572 0.950 . S
C580 C581 1.362 1_655 S
C580 C582 1.391 . S
C581 C580 1.362 1_455 S
C581 C585 1.418 . S
C582 H574 0.950 . S
C582 C580 1.391 . S
C582 C583 1.400 1_654 S
C583 C582 1.400 1_456 S
C583 C584 1.398 . S
C583 C589 1.491 . S
C584 H575 0.950 . S
C584 C583 1.398 . S
C584 C585 1.391 1_556 S
C585 H573 0.950 . S
C585 C581 1.418 . S
C585 C584 1.391 1_554 S
C586 H576 0.950 . S
C586 C587 1.386 . S
C586 C588 1.391 . S
C587 C586 1.386 . S
C587 C591 1.393 1_455 S
C588 H577 0.950 . S
C588 C586 1.391 . S
C588 C589 1.400 . S
C589 C583 1.491 . S
C589 C588 1.400 . S
C589 C590 1.398 1_455 S
C590 H578 0.950 . S
C590 C589 1.398 1_655 S
C590 C591 1.391 . S
C591 H579 0.950 . S
C591 C587 1.393 1_655 S
C591 C590 1.391 . S
H592 C600 0.950 . S
H593 C605 0.950 . S
H594 C602 0.950 . S
H595 C604 0.950 . S
H596 C606 0.950 . S
H597 C608 0.950 . S
H598 C610 0.950 . S
H599 C611 0.950 . S
C600 H592 0.950 . S
C600 C601 1.386 . S
C600 C602 1.391 . S
C601 C600 1.386 . S
C601 C605 1.393 1_455 S
C602 H594 0.950 . S
C602 C600 1.391 . S
C602 C603 1.400 1_455 S
C603 C602 1.400 1_655 S
C603 C604 1.398 . S
C603 C609 1.491 . S
C604 H595 0.950 . S
C604 C603 1.398 . S
C604 C605 1.391 . S
C605 H593 0.950 . S
C605 C601 1.393 1_655 S
C605 C604 1.391 . S
C606 H596 0.950 . S
C606 C607 1.386 . S
C606 C608 1.391 . S
C607 C606 1.386 . S
C607 C611 1.393 1_655 S
C608 H597 0.950 . S
C608 C606 1.391 . S
C608 C609 1.400 . S
C609 C603 1.491 . S
C609 C608 1.400 . S
C609 C610 1.398 1_655 S
C610 H598 0.950 . S
C610 C609 1.398 1_455 S
C610 C611 1.391 . S
C611 H599 0.950 . S
C611 C607 1.393 1_455 S
C611 C610 1.391 . S
H612 C620 0.950 . S
H613 C625 0.950 . S
H614 C622 0.950 . S
H615 C624 0.950 . S
H616 C626 0.950 . S
H617 C628 0.950 . S
H618 C630 0.950 . S
H619 C631 0.950 1_565 S
C620 H612 0.950 . S
C620 C621 1.386 . S
C620 C622 1.391 . S
C621 C620 1.386 . S
C621 C625 1.393 . S
C622 H614 0.950 . S
C622 C620 1.391 . S
C622 C623 1.400 . S
C623 C622 1.400 . S
C623 C624 1.398 . S
C623 C629 1.491 . S
C624 H615 0.950 . S
C624 C623 1.398 . S
C624 C625 1.391 . S
C625 H613 0.950 . S
C625 C621 1.393 . S
C625 C624 1.391 . S
C626 H616 0.950 . S
C626 C627 1.386 . S
C626 C628 1.391 . S
C627 C626 1.386 . S
C627 C631 1.393 . S
C628 H617 0.950 . S
C628 C626 1.391 . S
C628 C629 1.400 . S
C629 C623 1.491 . S
C629 C628 1.400 . S
C629 C630 1.398 . S
C630 H618 0.950 . S
C630 C629 1.398 . S
C630 C631 1.391 . S
C631 H619 0.950 1_545 S
C631 C627 1.393 . S
C631 C630 1.391 . S
H632 C640 0.950 . S
H633 C645 0.950 . S
H634 C642 0.950 . S
H635 C644 0.950 . S
H636 C646 0.950 . S
H637 C648 0.950 . S
H638 C650 0.950 . S
H639 C651 0.950 . S
C640 H632 0.950 . S
C640 C641 1.386 . S
C640 C642 1.391 . S
C641 C640 1.386 . S
C641 C645 1.393 . S
C642 H634 0.950 . S
C642 C640 1.391 . S
C642 C643 1.400 . S
C643 C642 1.400 . S
C643 C644 1.398 . S
C643 C649 1.491 . S
C644 H635 0.950 . S
C644 C643 1.398 . S
C644 C645 1.391 . S
C645 H633 0.950 . S
C645 C641 1.393 . S
C645 C644 1.391 . S
C646 H636 0.950 . S
C646 C647 1.386 . S
C646 C648 1.391 . S
C647 C646 1.386 . S
C647 C651 1.393 . S
C648 H637 0.950 . S
C648 C646 1.391 . S
C648 C649 1.400 . S
C649 C643 1.491 . S
C649 C648 1.400 . S
C649 C650 1.398 . S
C650 H638 0.950 . S
C650 C649 1.398 . S
C650 C651 1.391 . S
C651 H639 0.950 . S
C651 C647 1.393 . S
C651 C650 1.391 . S
H652 C660 0.950 . S
H653 C665 0.950 . S
H654 C662 0.950 . S
H655 C664 0.950 . S
H656 C666 0.950 . S
H657 C668 0.950 . S
H658 C670 0.950 . S
H659 C671 0.950 . S
C660 H652 0.950 . S
C660 C661 1.386 . S
C660 C662 1.391 . S
C661 C660 1.386 . S
C661 C665 1.393 . S
C662 H654 0.950 . S
C662 C660 1.391 . S
C662 C663 1.400 . S
C663 C662 1.400 . S
C663 C664 1.398 . S
C663 C669 1.491 . S
C664 H655 0.950 . S
C664 C663 1.398 . S
C664 C665 1.391 . S
C665 H653 0.950 . S
C665 C661 1.393 . S
C665 C664 1.391 . S
C666 H656 0.950 . S
C666 C667 1.386 . S
C666 C668 1.391 . S
C667 C666 1.386 . S
C667 C671 1.393 . S
C668 H657 0.950 . S
C668 C666 1.391 . S
C668 C669 1.400 . S
C669 C663 1.491 . S
C669 C668 1.400 . S
C669 C670 1.398 . S
C670 H658 0.950 . S
C670 C669 1.398 . S
C670 C671 1.391 . S
C671 H659 0.950 . S
C671 C667 1.393 . S
C671 C670 1.391 . S
H672 C680 0.950 . S
H673 C685 0.950 . S
H674 C682 0.950 . S
H675 C684 0.950 . S
H676 C686 0.950 . S
H677 C688 0.950 . S
H678 C690 0.950 . S
H679 C691 0.950 . S
C680 H672 0.950 . S
C680 C681 1.386 . S
C680 C682 1.391 . S
C681 C680 1.386 . S
C681 C685 1.393 1_655 S
C682 H674 0.950 . S
C682 C680 1.391 . S
C682 C683 1.400 1_655 S
C683 C682 1.400 1_455 S
C683 C684 1.398 . S
C683 C689 1.491 . S
C684 H675 0.950 . S
C684 C683 1.398 . S
C684 C685 1.391 . S
C685 H673 0.950 . S
C685 C681 1.393 1_455 S
C685 C684 1.391 . S
C686 H676 0.950 . S
C686 C687 1.386 . S
C686 C688 1.391 . S
C687 C686 1.386 . S
C687 C691 1.393 1_455 S
C688 H677 0.950 . S
C688 C686 1.391 . S
C688 C689 1.400 . S
C689 C683 1.491 . S
C689 C688 1.400 . S
C689 C690 1.398 1_455 S
C690 H678 0.950 . S
C690 C689 1.398 1_655 S
C690 C691 1.391 . S
C691 H679 0.950 . S
C691 C687 1.393 1_655 S
C691 C690 1.391 . S
H692 C700 0.950 . S
H693 C705 0.950 . S
H694 C702 0.950 . S
H695 C704 0.950 . S
H696 C706 0.950 . S
H697 C708 0.950 1_545 S
H698 C710 0.950 . S
H699 C711 0.950 . S
C700 H692 0.950 . S
C700 C701 1.386 . S
C700 C702 1.391 . S
C701 C700 1.386 . S
C701 C705 1.393 . S
C702 H694 0.950 . S
C702 C700 1.391 . S
C702 C703 1.400 . S
C703 C702 1.400 . S
C703 C704 1.398 . S
C703 C709 1.491 . S
C704 H695 0.950 . S
C704 C703 1.398 . S
C704 C705 1.391 . S
C705 H693 0.950 . S
C705 C701 1.393 . S
C705 C704 1.391 . S
C706 H696 0.950 . S
C706 C707 1.386 . S
C706 C708 1.391 1_545 S
C707 C706 1.386 . S
C707 C711 1.393 1_545 S
C708 H697 0.950 1_565 S
C708 C706 1.391 1_565 S
C708 C709 1.400 . S
C709 C703 1.491 . S
C709 C708 1.400 . S
C709 C710 1.398 . S
C710 H698 0.950 . S
C710 C709 1.398 . S
C710 C711 1.391 . S
C711 H699 0.950 . S
C711 C707 1.393 1_565 S
C711 C710 1.391 . S
H712 C720 0.950 . S
H713 C725 0.950 . S
H714 C722 0.950 . S
H715 C724 0.950 . S
H716 C726 0.950 . S
H717 C728 0.950 . S
H718 C730 0.950 . S
H719 C731 0.950 . S
C720 H712 0.950 . S
C720 C721 1.386 . S
C720 C722 1.391 . S
C721 C720 1.386 . S
C721 C725 1.393 . S
C722 H714 0.950 . S
C722 C720 1.391 . S
C722 C723 1.400 . S
C723 C722 1.400 . S
C723 C724 1.398 . S
C723 C729 1.491 . S
C724 H715 0.950 . S
C724 C723 1.398 . S
C724 C725 1.391 . S
C725 H713 0.950 . S
C725 C721 1.393 . S
C725 C724 1.391 . S
C726 H716 0.950 . S
C726 C727 1.386 . S
C726 C728 1.391 . S
C727 C726 1.386 . S
C727 C731 1.393 . S
C728 H717 0.950 . S
C728 C726 1.391 . S
C728 C729 1.400 . S
C729 C723 1.491 . S
C729 C728 1.400 . S
C729 C730 1.398 . S
C730 H718 0.950 . S
C730 C729 1.398 . S
C730 C731 1.391 . S
C731 H719 0.950 . S
C731 C727 1.393 . S
C731 C730 1.391 . S
H732 C740 0.950 . S
H733 C745 0.950 . S
H734 C742 0.950 . S
H735 C744 0.950 . S
H736 C746 0.950 . S
H737 C748 0.950 . S
H738 C750 0.950 . S
H739 C751 0.950 . S
C740 H732 0.950 . S
C740 C741 1.386 . S
C740 C742 1.391 . S
C741 C740 1.386 . S
C741 C745 1.393 . S
C742 H734 0.950 . S
C742 C740 1.391 . S
C742 C743 1.400 . S
C743 C742 1.400 . S
C743 C744 1.398 . S
C743 C749 1.491 . S
C744 H735 0.950 . S
C744 C743 1.398 . S
C744 C745 1.391 . S
C745 H733 0.950 . S
C745 C741 1.393 . S
C745 C744 1.391 . S
C746 H736 0.950 . S
C746 C747 1.386 . S
C746 C748 1.391 . S
C747 C746 1.386 . S
C747 C751 1.393 . S
C748 H737 0.950 . S
C748 C746 1.391 . S
C748 C749 1.400 . S
C749 C743 1.491 . S
C749 C748 1.400 . S
C749 C750 1.398 . S
C750 H738 0.950 . S
C750 C749 1.398 . S
C750 C751 1.391 . S
C751 H739 0.950 . S
C751 C747 1.393 . S
C751 C750 1.391 . S
H752 C760 0.950 . S
H753 C765 0.950 . S
H754 C762 0.950 . S
H755 C764 0.950 . S
H756 C766 0.950 1_556 S
H757 C768 0.950 . S
H758 C770 0.950 . S
H759 C771 0.950 . S
C760 H752 0.950 . S
C760 C761 1.386 . S
C760 C762 1.391 . S
C761 C760 1.386 . S
C761 C765 1.393 1_455 S
C762 H754 0.950 . S
C762 C760 1.391 . S
C762 C763 1.400 . S
C763 C762 1.400 . S
C763 C764 1.398 1_455 S
C763 C769 1.491 . S
C764 H755 0.950 . S
C764 C763 1.398 1_655 S
C764 C765 1.391 . S
C765 H753 0.950 . S
C765 C761 1.393 1_655 S
C765 C764 1.391 . S
C766 H756 0.950 1_554 S
C766 C767 1.386 1_654 S
C766 C768 1.391 . S
C767 C766 1.386 1_456 S
C767 C771 1.393 . S
C768 H757 0.950 . S
C768 C766 1.391 . S
C768 C769 1.400 1_655 S
C769 C763 1.491 . S
C769 C768 1.400 1_455 S
C769 C770 1.398 . S
C770 H758 0.950 . S
C770 C769 1.398 . S
C770 C771 1.391 1_554 S
C771 H759 0.950 . S
C771 C767 1.393 . S
C771 C770 1.391 1_556 S
H772 C780 0.950 . S
H773 C785 0.950 . S
H774 C782 0.950 . S
H775 C784 0.950 . S
H776 C786 0.950 . S
H777 C788 0.950 . S
H778 C790 0.950 . S
H779 C791 0.950 . S
C780 H772 0.950 . S
C780 C781 1.386 . S
C780 C782 1.391 . S
C781 C780 1.386 . S
C781 C785 1.393 . S
C782 H774 0.950 . S
C782 C780 1.391 . S
C782 C783 1.400 . S
C783 C782 1.400 . S
C783 C784 1.398 . S
C783 C789 1.491 . S
C784 H775 0.950 . S
C784 C783 1.398 . S
C784 C785 1.391 . S
C785 H773 0.950 . S
C785 C781 1.393 . S
C785 C784 1.391 . S
C786 H776 0.950 . S
C786 C787 1.386 . S
C786 C788 1.391 . S
C787 C786 1.386 . S
C787 C791 1.393 1_556 S
C788 H777 0.950 . S
C788 C786 1.391 . S
C788 C789 1.400 1_556 S
C789 C783 1.491 . S
C789 C788 1.400 1_554 S
C789 C790 1.398 . S
C790 H778 0.950 . S
C790 C789 1.398 . S
C790 C791 1.391 . S
C791 H779 0.950 . S
C791 C787 1.393 1_554 S
C791 C790 1.391 . S
H792 C800 0.950 . S
H793 C805 0.950 . S
H794 C802 0.950 . S
H795 C804 0.950 . S
H796 C806 0.950 . S
H797 C808 0.950 1_554 S
H798 C810 0.950 . S
H799 C811 0.950 . S
C800 H792 0.950 . S
C800 C801 1.386 . S
C800 C802 1.391 . S
C801 C800 1.386 . S
C801 C805 1.393 . S
C802 H794 0.950 . S
C802 C800 1.391 . S
C802 C803 1.400 . S
C803 C802 1.400 . S
C803 C804 1.398 . S
C803 C809 1.491 1_554 S
C804 H795 0.950 . S
C804 C803 1.398 . S
C804 C805 1.391 . S
C805 H793 0.950 . S
C805 C801 1.393 . S
C805 C804 1.391 . S
C806 H796 0.950 . S
C806 C807 1.386 . S
C806 C808 1.391 . S
C807 C806 1.386 . S
C807 C811 1.393 . S
C808 H797 0.950 1_556 S
C808 C806 1.391 . S
C808 C809 1.400 . S
C809 C803 1.491 1_556 S
C809 C808 1.400 . S
C809 C810 1.398 . S
C810 H798 0.950 . S
C810 C809 1.398 . S
C810 C811 1.391 . S
C811 H799 0.950 . S
C811 C807 1.393 . S
C811 C810 1.391 . S
H812 C820 0.950 . S
H813 C825 0.950 . S
H814 C822 0.950 1_556 S
H815 C824 0.950 . S
H816 C826 0.950 . S
H817 C828 0.950 . S
H818 C830 0.950 . S
H819 C831 0.950 . S
C820 H812 0.950 . S
C820 C821 1.386 . S
C820 C822 1.391 . S
C821 C820 1.386 . S
C821 C825 1.393 . S
C822 H814 0.950 1_554 S
C822 C820 1.391 . S
C822 C823 1.400 . S
C823 C822 1.400 . S
C823 C824 1.398 . S
C823 C829 1.491 1_554 S
C824 H815 0.950 . S
C824 C823 1.398 . S
C824 C825 1.391 . S
C825 H813 0.950 . S
C825 C821 1.393 . S
C825 C824 1.391 . S
C826 H816 0.950 . S
C826 C827 1.386 . S
C826 C828 1.391 1_556 S
C827 C826 1.386 . S
C827 C831 1.393 . S
C828 H817 0.950 . S
C828 C826 1.391 1_554 S
C828 C829 1.400 1_554 S
C829 C823 1.491 1_556 S
C829 C828 1.400 1_556 S
C829 C830 1.398 . S
C830 H818 0.950 . S
C830 C829 1.398 . S
C830 C831 1.391 . S
C831 H819 0.950 . S
C831 C827 1.393 . S
C831 C830 1.391 . S
H832 C840 0.950 . S
H833 C845 0.950 . S
H834 C842 0.950 . S
H835 C844 0.950 . S
H836 C846 0.950 . S
H837 C848 0.950 . S
H838 C850 0.950 . S
H839 C851 0.950 . S
C840 H832 0.950 . S
C840 C841 1.386 1_455 S
C840 C842 1.391 . S
C841 C840 1.386 1_655 S
C841 C845 1.393 . S
C842 H834 0.950 . S
C842 C840 1.391 . S
C842 C843 1.400 1_455 S
C843 C842 1.400 1_655 S
C843 C844 1.398 . S
C843 C849 1.491 . S
C844 H835 0.950 . S
C844 C843 1.398 . S
C844 C845 1.391 . S
C845 H833 0.950 . S
C845 C841 1.393 . S
C845 C844 1.391 . S
C846 H836 0.950 . S
C846 C847 1.386 . S
C846 C848 1.391 . S
C847 C846 1.386 . S
C847 C851 1.393 1_655 S
C848 H837 0.950 . S
C848 C846 1.391 . S
C848 C849 1.400 . S
C849 C843 1.491 . S
C849 C848 1.400 . S
C849 C850 1.398 1_655 S
C850 H838 0.950 . S
C850 C849 1.398 1_455 S
C850 C851 1.391 . S
C851 H839 0.950 . S
C851 C847 1.393 1_455 S
C851 C850 1.391 . S
H852 C860 0.950 . S
H853 C865 0.950 . S
H854 C862 0.950 . S
H855 C864 0.950 . S
H856 C866 0.950 1_545 S
H857 C868 0.950 . S
H858 C870 0.950 . S
H859 C871 0.950 . S
C860 H852 0.950 . S
C860 C861 1.386 . S
C860 C862 1.391 . S
C861 C860 1.386 . S
C861 C865 1.393 . S
C862 H854 0.950 . S
C862 C860 1.391 . S
C862 C863 1.400 . S
C863 C862 1.400 . S
C863 C864 1.398 . S
C863 C869 1.491 . S
C864 H855 0.950 . S
C864 C863 1.398 . S
C864 C865 1.391 . S
C865 H853 0.950 . S
C865 C861 1.393 . S
C865 C864 1.391 . S
C866 H856 0.950 1_565 S
C866 C867 1.386 . S
C866 C868 1.391 . S
C867 C866 1.386 . S
C867 C871 1.393 . S
C868 H857 0.950 . S
C868 C866 1.391 . S
C868 C869 1.400 . S
C869 C863 1.491 . S
C869 C868 1.400 . S
C869 C870 1.398 . S
C870 H858 0.950 . S
C870 C869 1.398 . S
C870 C871 1.391 . S
C871 H859 0.950 . S
C871 C867 1.393 . S
C871 C870 1.391 . S
H872 C880 0.950 . S
H873 C885 0.950 . S
H874 C882 0.950 . S
H875 C884 0.950 . S
H876 C886 0.950 . S
H877 C888 0.950 . S
H878 C890 0.950 . S
H879 C891 0.950 . S
C880 H872 0.950 . S
C880 C881 1.386 . S
C880 C882 1.391 . S
C881 C880 1.386 . S
C881 C885 1.393 . S
C882 H874 0.950 . S
C882 C880 1.391 . S
C882 C883 1.400 . S
C883 C882 1.400 . S
C883 C884 1.398 . S
C883 C889 1.491 . S
C884 H875 0.950 . S
C884 C883 1.398 . S
C884 C885 1.391 . S
C885 H873 0.950 . S
C885 C881 1.393 . S
C885 C884 1.391 . S
C886 H876 0.950 . S
C886 C887 1.386 . S
C886 C888 1.391 . S
C887 C886 1.386 . S
C887 C891 1.393 . S
C888 H877 0.950 . S
C888 C886 1.391 . S
C888 C889 1.400 . S
C889 C883 1.491 . S
C889 C888 1.400 . S
C889 C890 1.398 . S
C890 H878 0.950 . S
C890 C889 1.398 . S
C890 C891 1.391 . S
C891 H879 0.950 . S
C891 C887 1.393 . S
C891 C890 1.391 . S
H892 C900 0.950 . S
H893 C905 0.950 . S
H894 C902 0.950 . S
H895 C904 0.950 . S
H896 C906 0.950 . S
H897 C908 0.950 . S
H898 C910 0.950 . S
H899 C911 0.950 . S
C900 H892 0.950 . S
C900 C901 1.386 . S
C900 C902 1.391 . S
C901 C900 1.386 . S
C901 C905 1.393 . S
C902 H894 0.950 . S
C902 C900 1.391 . S
C902 C903 1.400 . S
C903 C902 1.400 . S
C903 C904 1.398 . S
C903 C909 1.491 . S
C904 H895 0.950 . S
C904 C903 1.398 . S
C904 C905 1.391 . S
C905 H893 0.950 . S
C905 C901 1.393 . S
C905 C904 1.391 . S
C906 H896 0.950 . S
C906 C907 1.386 . S
C906 C908 1.391 . S
C907 C906 1.386 . S
C907 C911 1.393 . S
C908 H897 0.950 . S
C908 C906 1.391 . S
C908 C909 1.400 . S
C909 C903 1.491 . S
C909 C908 1.400 . S
C909 C910 1.398 . S
C910 H898 0.950 . S
C910 C909 1.398 . S
C910 C911 1.391 . S
C911 H899 0.950 . S
C911 C907 1.393 . S
C911 C910 1.391 . S
C441 C255 1.814 . S
C447 C322 1.850 . S
C467 C352 1.741 . S
C461 C294 1.708 . S
C487 N386 1.756 . S
C481 C177 1.723 . S
C507 N416 1.336 . S
C501 C216 1.393 . S
C527 C313 1.859 1_565 S
C521 C99 1.840 . S
C541 C138 1.712 . S
C547 C343 1.742 . S
C561 C21 1.755 . S
C567 N378 1.748 . S
C581 C60 1.396 1_455 S
C587 N408 1.338 . S
C607 C328 0.469 . S
C601 C196 0.539 1_455 S
C627 C358 0.634 . S
C621 C235 0.652 . S
C647 C399 0.540 . S
C641 C289 0.565 . S
C661 C157 0.593 . S
C667 C429 0.566 . S
C681 C40 0.483 . S
C687 C339 0.444 . S
C707 C369 0.609 . S
C701 C79 0.622 . S
C727 C388 0.531 . S
C721 C133 0.564 . S
C741 C1 0.588 . S
C747 C418 0.579 . S
C761 C211 1.622 . S
C767 N318 1.697 . S
C781 C250 1.765 . S
C787 N348 1.848 . S
C807 C373 1.896 . S
C801 C274 1.822 . S
C827 C403 2.141 . S
C821 C172 2.029 . S
C841 C55 1.623 1_655 S
C847 N326 1.700 . S
C867 N356 1.845 . S
C861 C94 1.776 . S
C887 C382 1.896 . S
C881 C118 1.825 . S
C901 C16 2.035 . S
C907 C412 2.147 . S
