# Generated by pormake.
# Topology pts, (4,4)-cn, num edge types: 1
# Building blocks:
#     Node 0, Type 0, BuildingBlock: NAHDIM_clean_linker_0, # of connection points: 4
#     Node 1, Type 0, BuildingBlock: NAHDIM_clean_linker_0, # of connection points: 4
#     Node 2, Type 1, BuildingBlock: QUQFOY_clean_sbu_1, # of connection points: 4
#     Node 3, Type 1, BuildingBlock: QUQFOY_clean_sbu_1, # of connection points: 4
#     Edge 4, Type (0, 1), BuildingBlock: ZUJKAS_clean_linker_0, # of connection points: 2
#     Edge 5, Type (0, 1), BuildingBlock: ZUJKAS_clean_linker_0, # of connection points: 2
#     Edge 6, Type (0, 1), BuildingBlock: ZUJKAS_clean_linker_0, # of connection points: 2
#     Edge 7, Type (0, 1), BuildingBlock: ZUJKAS_clean_linker_0, # of connection points: 2
#     Edge 8, Type (0, 1), BuildingBlock: ZUJKAS_clean_linker_0, # of connection points: 2
#     Edge 9, Type (0, 1), BuildingBlock: ZUJKAS_clean_linker_0, # of connection points: 2
#     Edge 10, Type (0, 1), BuildingBlock: ZUJKAS_clean_linker_0, # of connection points: 2
#     Edge 11, Type (0, 1), BuildingBlock: ZUJKAS_clean_linker_0, # of connection points: 2
# Relax obj value: 0.113
# Max RMSD: 0.245
# Mean RMSD: 0.150
data_MOF--net-pts--node1-QUQFOY_clean_sbu_1--node2-NAHDIM_clean_linker_0--edge1-ZUJKAS_clean_linker_0
_symmetry_space_group_name_H-M    P1
_symmetry_Int_Tables_number       1
_symmetry_cell_setting            triclinic
loop_
_symmetry_equiv_pos_as_xyz
'x, y, z'
_cell_length_a     36.605338
_cell_length_b     40.502797
_cell_length_c     67.329262
_cell_angle_alpha  90.213254
_cell_angle_beta   89.369614
_cell_angle_gamma 90.01354
loop_
_atom_site_label
_atom_site_type_symbol
_atom_site_fract_x
_atom_site_fract_y
_atom_site_fract_z
_atom_type_partial_charge
C0 C 0.63685 0.06107 0.13745 0.0
C1 C 0.66083 0.03739 0.12528 0.0
C2 C 0.64644 0.04032 0.09054 0.0
C3 C 0.64842 0.00775 0.08364 0.0
C4 C 0.6256 0.99681 0.06836 0.0
C5 C 0.59992 0.0189 0.06013 0.0
C6 C 0.59893 0.05221 0.06662 0.0
C7 C 0.62277 0.06264 0.08159 0.0
C8 C 0.62797 0.96133 0.06156 0.0
C9 C 0.57153 0.07631 0.05847 0.0
C10 C 0.40636 0.86962 0.1153 0.0
C11 C 0.41001 0.90581 0.10924 0.0
C12 C 0.4315 0.92452 0.07736 0.0
C13 C 0.43132 0.95899 0.07696 0.0
C14 C 0.45718 0.97629 0.06552 0.0
C15 C 0.48411 0.95851 0.05462 0.0
C16 C 0.48414 0.92353 0.05503 0.0
C17 C 0.45728 0.90694 0.06617 0.0
C18 C 0.4561 0.01353 0.06535 0.0
C19 C 0.51304 0.90367 0.04418 0.0
C20 C 0.43461 0.948 0.92459 0.0
C21 C 0.42934 0.97926 0.93317 0.0
C22 C 0.45699 0.99414 0.9444 0.0
C23 C 0.4903 0.97711 0.94727 0.0
C24 C 0.49601 0.94603 0.93807 0.0
C25 C 0.46818 0.93209 0.92659 0.0
C26 C 0.45051 0.02784 0.95338 0.0
C27 C 0.53123 0.92727 0.9407 0.0
C28 C 0.74428 0.12497 0.93401 0.0
C29 C 0.72679 0.09152 0.92952 0.0
C30 C 0.66255 0.077 0.93523 0.0
C31 C 0.62883 0.09175 0.93929 0.0
C32 C 0.60028 0.07387 0.94821 0.0
C33 C 0.60549 0.04013 0.95275 0.0
C34 C 0.63906 0.0246 0.94783 0.0
C35 C 0.66738 0.04326 0.93917 0.0
C36 C 0.56478 0.09116 0.9531 0.0
C37 C 0.64505 0.98841 0.95189 0.0
C38 C 0.57134 0.00613 0.04665 0.0
C39 C 0.54195 0.98946 0.05541 0.0
C40 C 0.51373 0.97651 0.044 0.0
C41 C 0.51455 0.98033 0.02314 0.0
C42 C 0.48644 0.96787 0.0112 0.0
C43 C 0.48791 0.97112 0.99065 0.0
C44 C 0.51716 0.98761 0.98126 0.0
C45 C 0.51875 0.99124 0.96037 0.0
C46 C 0.54799 0.00811 0.95155 0.0
C47 C 0.57603 0.02142 0.96303 0.0
C48 C 0.57519 0.01767 0.98392 0.0
C49 C 0.60314 0.03042 0.99592 0.0
C50 C 0.60216 0.02642 0.01645 0.0
C51 C 0.57287 0.01003 0.0258 0.0
C52 C 0.54432 0.99707 0.01401 0.0
C53 C 0.54556 1.00078 0.99305 0.0
C54 C 0.36511 0.89398 0.92638 0.0
C55 C 0.37191 0.92968 0.92002 0.0
O56 O 0.66616 0.05014 0.10638 0.0
O57 O 0.68952 0.09609 0.92739 0.0
O58 O 0.40809 0.93289 0.914 0.0
O59 O 0.40718 0.90796 0.08879 0.0
H60 H 0.64625 0.01323 0.12448 0.0
H61 H 0.60995 0.06401 0.13018 0.0
H62 H 0.64999 0.08574 0.13859 0.0
H63 H 0.6321 0.05117 0.15263 0.0
H64 H 0.66735 0.99082 0.09052 0.0
H65 H 0.62175 0.08783 0.08706 0.0
H66 H 0.60387 0.94757 0.06731 0.0
H67 H 0.65306 0.949 0.06696 0.0
H68 H 0.62756 0.95989 0.04509 0.0
H69 H 0.57349 0.10102 0.0656 0.0
H70 H 0.5434 0.06665 0.06077 0.0
H71 H 0.57595 0.07918 0.04224 0.0
H72 H 0.43751 0.91443 0.11406 0.0
H73 H 0.40952 0.86699 0.13162 0.0
H74 H 0.42801 0.85475 0.10781 0.0
H75 H 0.37927 0.85969 0.11097 0.0
H76 H 0.41098 0.97224 0.08568 0.0
H77 H 0.45695 0.8802 0.06669 0.0
H78 H 0.45879 0.02284 0.04991 0.0
H79 H 0.47949 0.02333 0.07392 0.0
H80 H 0.43043 0.02336 0.07206 0.0
H81 H 0.51178 0.87703 0.04799 0.0
H82 H 0.54067 0.91317 0.04775 0.0
H83 H 0.50933 0.90617 0.02792 0.0
H84 H 0.36589 0.94572 0.93313 0.0
H85 H 0.40377 0.99212 0.93094 0.0
H86 H 0.47208 0.90819 0.91959 0.0
H87 H 0.44889 0.02576 0.9698 0.0
H88 H 0.42483 0.03925 0.94807 0.0
H89 H 0.47374 0.04448 0.94973 0.0
H90 H 0.53074 0.90272 0.9333 0.0
H91 H 0.53652 0.92373 0.95677 0.0
H92 H 0.55431 0.9418 0.93443 0.0
H93 H 0.73238 0.07532 0.94248 0.0
H94 H 0.7741 0.12215 0.93642 0.0
H95 H 0.73185 0.13566 0.94773 0.0
H96 H 0.7399 0.14241 0.92155 0.0
H97 H 0.62527 0.11768 0.9359 0.0
H98 H 0.69305 0.0314 0.93539 0.0
H99 H 0.55843 0.08865 0.96919 0.0
H100 H 0.5422 0.07934 0.9448 0.0
H101 H 0.56559 0.11783 0.94931 0.0
H102 H 0.67154 0.9794 0.94576 0.0
H103 H 0.62259 0.97362 0.94537 0.0
H104 H 0.64457 0.98413 0.96817 0.0
H105 H 0.54112 0.98638 0.07142 0.0
H106 H 0.46307 0.95526 0.01761 0.0
H107 H 0.46567 0.96066 0.98223 0.0
H108 H 0.54889 0.01101 0.93554 0.0
H109 H 0.62624 0.0435 0.98957 0.0
H110 H 0.62456 0.03647 0.02493 0.0
H111 H 0.37043 0.87674 0.9138 0.0
H112 H 0.33644 0.8908 0.93164 0.0
H113 H 0.38358 0.8875 0.93876 0.0
C114 C 0.11116 0.32984 0.56868 0.0
C115 C 0.09829 0.34382 0.58878 0.0
C116 C 0.06382 0.393 0.57833 0.0
C117 C 0.02874 0.40527 0.57505 0.0
C118 C 0.02341 0.43595 0.56591 0.0
C119 C 0.05406 0.4549 0.55999 0.0
C120 C 0.08969 0.44317 0.56375 0.0
C121 C 0.09426 0.41234 0.57288 0.0
C122 C 0.98503 0.44784 0.5622 0.0
C123 C 0.12294 0.46296 0.55774 0.0
C124 C 0.06429 0.71727 0.60808 0.0
C125 C 0.07332 0.68781 0.59574 0.0
C126 C 0.04625 0.63549 0.58505 0.0
C127 C 0.07631 0.62551 0.57331 0.0
C128 C 0.07524 0.59604 0.56231 0.0
C129 C 0.04308 0.5766 0.56256 0.0
C130 C 0.01272 0.58664 0.57427 0.0
C131 C 0.01487 0.61584 0.58551 0.0
C132 C 0.10858 0.58575 0.55041 0.0
C133 C 0.97792 0.56668 0.57478 0.0
C134 C 0.01119 0.64289 0.43825 0.0
C135 C 0.0465 0.63399 0.44406 0.0
C136 C 0.05316 0.60309 0.45267 0.0
C137 C 0.02376 0.58086 0.45569 0.0
C138 C 0.98842 0.58931 0.44907 0.0
C139 C 0.98271 0.62015 0.44018 0.0
C140 C 0.09148 0.59441 0.45884 0.0
C141 C 0.95654 0.5661 0.45185 0.0
C142 C 0.08851 0.33116 0.44866 0.0
C143 C 0.06037 0.33998 0.43288 0.0
C144 C 0.06082 0.39998 0.43313 0.0
C145 C 0.08851 0.42349 0.43485 0.0
C146 C 0.08217 0.45354 0.44475 0.0
C147 C 0.04694 0.46041 0.4526 0.0
C148 C 0.0182 0.43756 0.44971 0.0
C149 C 0.02551 0.40744 0.44009 0.0
C150 C 0.11336 0.47747 0.44738 0.0
C151 C 0.98001 0.44464 0.45724 0.0
C152 C 0.04882 0.48626 0.54902 0.0
C153 C 0.04676 0.5157 0.55988 0.0
C154 C 0.04137 0.54596 0.5504 0.0
C155 C 0.03686 0.54687 0.52957 0.0
C156 C 0.02938 0.57659 0.51968 0.0
C157 C 0.02638 0.57745 0.4991 0.0
C158 C 0.03118 0.54868 0.48758 0.0
C159 C 0.02967 0.54952 0.46659 0.0
C160 C 0.0345 0.52043 0.45561 0.0
C161 C 0.04087 0.4903 0.46505 0.0
C162 C 0.04241 0.48898 0.48603 0.0
C163 C 0.0488 0.4591 0.496 0.0
C164 C 0.05038 0.45805 0.51662 0.0
C165 C 0.0464 0.48695 0.52807 0.0
C166 C 0.04017 0.51736 0.51834 0.0
C167 C 0.03776 0.51832 0.4973 0.0
C168 C 0.98482 0.7147 0.45335 0.0
C169 C 0.01444 0.70288 0.43877 0.0
O170 O 0.06681 0.36243 0.5865 0.0
O171 O 0.06891 0.3704 0.42464 0.0
O172 O 0.00394 0.673 0.43046 0.0
O173 O 0.04644 0.66366 0.59612 0.0
H174 H 0.1202 0.35953 0.59515 0.0
H175 H 0.11818 0.35008 0.55826 0.0
H176 H 0.08939 0.31451 0.5619 0.0
H177 H 0.13597 0.31442 0.57062 0.0
H178 H 0.00542 0.39035 0.57939 0.0
H179 H 0.12167 0.40355 0.57546 0.0
H180 H 0.9811 0.47271 0.56888 0.0
H181 H 0.96406 0.43085 0.56845 0.0
H182 H 0.98069 0.45012 0.54597 0.0
H183 H 0.14883 0.45085 0.56215 0.0
H184 H 0.12162 0.48785 0.56468 0.0
H185 H 0.12331 0.4664 0.54139 0.0
H186 H 0.10139 0.6779 0.59799 0.0
H187 H 0.08562 0.71769 0.62 0.0
H188 H 0.04137 0.70969 0.6184 0.0
H189 H 0.05905 0.75531 0.58721 0.0
H190 H 0.10081 0.64041 0.57271 0.0
H191 H 0.99181 0.62371 0.59459 0.0
H192 H 0.10312 0.58879 0.53434 0.0
H193 H 0.1149 0.55931 0.553 0.0
H194 H 0.133 0.60073 0.55416 0.0
H195 H 0.95571 0.57932 0.58322 0.0
H196 H 0.98322 0.54243 0.58181 0.0
H197 H 0.96851 0.56184 0.55941 0.0
H198 H 0.0402 0.70002 0.44721 0.0
H199 H 0.06892 0.65103 0.44173 0.0
H200 H 0.95569 0.62709 0.43527 0.0
H201 H 0.09291 0.59408 0.47529 0.0
H202 H 0.11196 0.61236 0.45313 0.0
H203 H 0.09886 0.56935 0.45337 0.0
H204 H 0.93051 0.57685 0.44655 0.0
H205 H 0.95336 0.55976 0.46781 0.0
H206 H 0.96189 0.54278 0.44361 0.0
H207 H 0.033 0.34084 0.4402 0.0
H208 H 0.08219 0.30665 0.45522 0.0
H209 H 0.08785 0.34984 0.46078 0.0
H210 H 0.11649 0.33057 0.44209 0.0
H211 H 0.11551 0.41766 0.42908 0.0
H212 H 0.00363 0.38983 0.43796 0.0
H213 H 0.11761 0.48226 0.46344 0.0
H214 H 0.1065 0.50139 0.44034 0.0
H215 H 0.1393 0.46814 0.44074 0.0
H216 H 0.95985 0.42644 0.45162 0.0
H217 H 0.97144 0.46979 0.45272 0.0
H218 H 0.9796 0.44386 0.47371 0.0
H219 H 0.04992 0.5151 0.57588 0.0
H220 H 0.02578 0.59956 0.52774 0.0
H221 H 0.02063 0.60106 0.49234 0.0
H222 H 0.0336 0.52129 0.43952 0.0
H223 H 0.05262 0.4361 0.48801 0.0
H224 H 0.05526 0.43432 0.52344 0.0
H225 H 0.9583 0.71769 0.44568 0.0
H226 H 0.99274 0.73869 0.46012 0.0
H227 H 0.98125 0.69637 0.46545 0.0
O228 O 0.006 0.99079 0.2429 0.0
Cd229 Cd 0.05382 0.98431 0.25845 0.0
Cd230 Cd 0.05773 0.05113 0.25454 0.0
O231 O 0.00793 0.04511 0.24109 0.0
O232 O 0.05168 0.93754 0.26733 0.0
O233 O 0.05256 0.97964 0.28829 0.0
C234 C 0.0514 0.9481 0.28539 0.0
C235 C 0.06118 0.08897 0.28059 0.0
C236 C 0.99196 0.01794 0.23745 0.0
C237 C 0.11792 0.01236 0.23542 0.0
O238 O 0.10408 0.04087 0.23789 0.0
O239 O 0.10263 0.98711 0.24297 0.0
O240 O 0.06044 0.09844 0.26233 0.0
O241 O 0.06035 0.05761 0.2841 0.0
O242 O 0.99889 0.04152 0.77 0.0
Cd243 Cd 0.04645 0.03891 0.75326 0.0
Cd244 Cd 0.02838 0.97487 0.75179 0.0
O245 O 0.98013 0.99059 0.76476 0.0
O246 O 0.05779 0.08564 0.74654 0.0
O247 O 0.04531 0.04781 0.72385 0.0
C248 C 0.05326 0.07808 0.72812 0.0
C249 C 0.02692 0.9429 0.72304 0.0
C250 C 0.97492 0.01909 0.7722 0.0
C251 C 0.09674 0.99189 0.77354 0.0
O252 O 0.07306 0.9697 0.77003 0.0
O253 O 0.09251 0.02099 0.76695 0.0
O254 O 0.01761 0.93082 0.74005 0.0
O255 O 0.03681 0.9735 0.72224 0.0
H256 H 0.3412 0.92333 0.09598 0.0
H257 H 0.2927 0.95157 0.11461 0.0
H258 H 0.3634 0.95942 0.16528 0.0
H259 H 0.41248 0.93261 0.14637 0.0
H260 H 0.25972 0.9292 0.14576 0.0
H261 H 0.31933 0.04935 0.16662 0.0
H262 H 0.33998 0.02297 0.14798 0.0
H263 H 0.34873 0.01631 0.17396 0.0
C264 C 0.34677 0.93199 0.11088 0.0
C265 C 0.38092 0.92636 0.11961 0.0
C266 C 0.31897 0.94802 0.12155 0.0
C267 C 0.32454 0.95825 0.14125 0.0
C268 C 0.35874 0.95286 0.14991 0.0
H269 H 0.16321 0.95904 0.23374 0.0
H270 H 0.21343 0.94903 0.21037 0.0
C271 C 0.38669 0.93727 0.13916 0.0
C272 C 0.2935 0.97082 0.1535 0.0
H273 H 0.26914 0.03011 0.18737 0.0
C274 C 0.26165 0.95157 0.1546 0.0
C275 C 0.29558 1.00029 0.16483 0.0
C276 C 0.32762 0.02357 0.16311 0.0
C277 C 0.23262 0.96009 0.16734 0.0
C278 C 0.23599 0.98801 0.17987 0.0
C279 C 0.26696 0.00827 0.17808 0.0
C280 C 0.20798 0.99581 0.19525 0.0
C281 C 0.19863 0.93896 0.16722 0.0
C282 C 0.18965 0.02625 0.19526 0.0
C283 C 0.16124 0.0323 0.20889 0.0
C284 C 0.15068 0.00791 0.22263 0.0
C285 C 0.1703 0.97812 0.22315 0.0
C286 C 0.19888 0.97228 0.20973 0.0
H287 H 0.19556 0.92584 0.15282 0.0
H288 H 0.2006 0.92003 0.17903 0.0
H289 H 0.17372 0.95398 0.17004 0.0
H290 H 0.19651 0.04487 0.18433 0.0
H291 H 0.14669 0.05554 0.20814 0.0
H292 H 0.14332 0.31913 0.61738 0.0
H293 H 0.13288 0.27186 0.6393 0.0
H294 H 0.02693 0.25667 0.61342 0.0
H295 H 0.03716 0.30409 0.59149 0.0
H296 H 0.02692 0.25448 0.65542 0.0
H297 H 0.13426 0.17397 0.62243 0.0
H298 H 0.15035 0.21418 0.62952 0.0
H299 H 0.11732 0.2103 0.61008 0.0
C300 C 0.1177 0.30585 0.61649 0.0
C301 C 0.0908 0.31565 0.60298 0.0
C302 C 0.1119 0.27871 0.62887 0.0
C303 C 0.07931 0.26057 0.62781 0.0
C304 C 0.05229 0.27034 0.61443 0.0
H305 H 0.04567 0.07084 0.6878 0.0
H306 H 0.04954 0.1142 0.6625 0.0
C307 C 0.05809 0.29746 0.602 0.0
C308 C 0.07328 0.23177 0.64094 0.0
H309 H 0.10876 0.15682 0.65351 0.0
C310 C 0.0446 0.23299 0.65491 0.0
C311 C 0.09603 0.20356 0.64001 0.0
C312 C 0.12601 0.20015 0.62458 0.0
C313 C 0.03894 0.20727 0.66852 0.0
C314 C 0.06289 0.17985 0.66827 0.0
C315 C 0.09067 0.17803 0.65379 0.0
C316 C 0.06047 0.15353 0.68344 0.0
C317 C 0.00743 0.2097 0.68309 0.0
C318 C 0.06599 0.16122 0.70351 0.0
C319 C 0.0639 0.13661 0.71793 0.0
C320 C 0.0564 0.10372 0.71257 0.0
C321 C 0.0514 0.09594 0.69241 0.0
C322 C 0.05359 0.12066 0.67795 0.0
H323 H 0.98609 0.22701 0.67784 0.0
H324 H 0.99475 0.18515 0.68565 0.0
H325 H 0.0176 0.2191 0.69751 0.0
H326 H 0.0721 0.18631 0.70801 0.0
H327 H 0.06807 0.14346 0.7333 0.0
H328 H 0.67973 0.98773 0.15058 0.0
H329 H 0.73625 0.98156 0.16941 0.0
H330 H 0.77905 0.07018 0.14256 0.0
H331 H 0.7225 0.0766 0.12374 0.0
H332 H 0.82893 0.01161 0.14422 0.0
H333 H 0.76325 0.04619 0.21634 0.0
H334 H 0.74091 0.01474 0.20195 0.0
H335 H 0.74324 0.05618 0.1927 0.0
C336 C 0.70142 0.00563 0.14851 0.0
C337 C 0.69701 0.03231 0.13545 0.0
C338 C 0.73352 0.00218 0.15932 0.0
C339 C 0.76162 0.02549 0.15738 0.0
C340 C 0.75763 0.05189 0.14416 0.0
H341 H 0.94939 0.071 0.22815 0.0
H342 H 0.89329 0.07119 0.20875 0.0
C343 C 0.72544 0.05546 0.1334 0.0
C344 C 0.7948 0.02291 0.16958 0.0
H345 H 0.82538 0.03065 0.21709 0.0
C346 C 0.82822 0.01564 0.16016 0.0
C347 C 0.79362 0.02841 0.19032 0.0
C348 C 0.75844 0.03705 0.20101 0.0
C349 C 0.86065 0.01362 0.17103 0.0
C350 C 0.85942 0.01903 0.19177 0.0
C351 C 0.82603 0.02636 0.20118 0.0
C352 C 0.89284 0.01841 0.20385 0.0
C353 C 0.89614 0.00635 0.16029 0.0
C354 C 0.91071 0.98855 0.2077 0.0
C355 C 0.94265 0.98827 0.2189 0.0
C356 C 0.9573 0.01793 0.22632 0.0
C357 C 0.93895 0.04775 0.22259 0.0
C358 C 0.9069 0.04794 0.21154 0.0
H359 H 0.89323 0.00731 0.1439 0.0
H360 H 0.91749 0.02426 0.16483 0.0
H361 H 0.9057 0.9813 0.16438 0.0
H362 H 0.89999 0.9655 0.202 0.0
H363 H 0.9561 0.96489 0.2215 0.0
H364 H 0.13609 0.7311 0.58255 0.0
H365 H 0.12031 0.78286 0.61114 0.0
H366 H 0.98611 0.76069 0.60735 0.0
H367 H 0.99795 0.70845 0.57841 0.0
H368 H 0.04761 0.84052 0.60695 0.0
H369 H 0.03647 0.75528 0.67155 0.0
H370 H 0.06807 0.7464 0.65149 0.0
H371 H 0.01983 0.74344 0.64743 0.0
C372 C 0.10822 0.73766 0.58634 0.0
C373 C 0.06903 0.71036 0.58016 0.0
C374 C 0.09826 0.7686 0.60485 0.0
C375 C 0.05196 0.77584 0.61319 0.0
C376 C 0.01353 0.75458 0.60248 0.0
H377 H 0.98139 0.89182 0.71496 0.0
H378 H 0.98443 0.85377 0.68673 0.0
C379 C 0.02044 0.72314 0.58383 0.0
C380 C 0.04534 0.80133 0.62837 0.0
H381 H 0.03368 0.81202 0.67821 0.0
C382 C 0.04432 0.83446 0.62256 0.0
C383 C 0.04072 0.79307 0.64854 0.0
C384 C 0.04124 0.75763 0.6553 0.0
C385 C 0.03866 0.85986 0.63654 0.0
C386 C 0.03536 0.85178 0.65697 0.0
C387 C 0.03616 0.81838 0.66262 0.0
C388 C 0.03136 0.87724 0.67286 0.0
C389 C 0.03544 0.89485 0.62915 0.0
C390 C 0.05631 0.90352 0.67441 0.0
C391 C 0.05384 0.92591 0.69026 0.0
C392 C 0.02722 0.92169 0.70519 0.0
C393 C 0.00222 0.89555 0.70364 0.0
C394 C 0.00402 0.87378 0.68753 0.0
H395 H 0.02571 0.89547 0.61358 0.0
H396 H 0.01639 0.90962 0.63855 0.0
H397 H 0.06276 0.9067 0.62937 0.0
H398 H 0.07845 0.90618 0.66375 0.0
H399 H 0.07377 0.9456 0.69131 0.0
H400 H 0.30236 0.95331 0.92333 0.0
H401 H 0.2584 0.96375 0.89695 0.0
H402 H 0.3397 0.93683 0.85293 0.0
H403 H 0.38319 0.92496 0.87928 0.0
H404 H 0.25799 0.00602 0.86691 0.0
H405 H 0.25661 0.87834 0.83699 0.0
H406 H 0.27844 0.88888 0.86004 0.0
H407 H 0.30127 0.89655 0.83669 0.0
C408 C 0.31086 0.94985 0.908 0.0
C409 C 0.34635 0.93882 0.90338 0.0
C410 C 0.28576 0.95576 0.89295 0.0
C411 C 0.29557 0.95064 0.87296 0.0
C412 C 0.33124 0.94026 0.86825 0.0
H413 H 0.16016 0.02699 0.7771 0.0
H414 H 0.21027 0.01675 0.8 0.0
C415 C 0.35624 0.93393 0.88332 0.0
C416 C 0.26828 0.95617 0.85715 0.0
H417 H 0.22475 0.91871 0.81852 0.0
C418 C 0.25069 0.98693 0.85633 0.0
C419 C 0.25838 0.93107 0.84354 0.0
C420 C 0.27437 0.89676 0.84444 0.0
C421 C 0.22345 0.99328 0.84235 0.0
C422 C 0.21438 0.96854 0.82832 0.0
C423 C 0.23201 0.93779 0.82912 0.0
C424 C 0.18549 0.97349 0.8133 0.0
C425 C 0.20384 0.02606 0.84325 0.0
C426 C 0.15581 0.95158 0.81238 0.0
C427 C 0.12755 0.95692 0.79898 0.0
C428 C 0.12827 0.98447 0.78635 0.0
C429 C 0.15858 0.00579 0.78683 0.0
C430 C 0.18712 1.00011 0.80002 0.0
H431 H 0.20646 0.03797 0.85806 0.0
H432 H 0.21605 0.04296 0.83207 0.0
H433 H 0.17435 0.02315 0.83998 0.0
H434 H 0.15405 0.93073 0.82239 0.0
H435 H 0.10458 0.94005 0.79898 0.0
H436 H 0.1072 0.33239 0.40079 0.0
H437 H 0.10703 0.28868 0.3755 0.0
H438 H 0.01446 0.24318 0.40463 0.0
H439 H 0.01407 0.28716 0.4297 0.0
H440 H 0.11447 0.22068 0.38015 0.0
H441 H 0.9804 0.25185 0.34723 0.0
H442 H 0.00435 0.27969 0.36355 0.0
H443 H 0.97909 0.24544 0.3736 0.0
C444 C 0.08649 0.31333 0.40159 0.0
C445 C 0.05993 0.31369 0.41686 0.0
C446 C 0.08657 0.28828 0.38725 0.0
C447 C 0.06029 0.26306 0.38798 0.0
C448 C 0.03438 0.26287 0.4035 0.0
H449 H 0.06576 0.07779 0.32068 0.0
H450 H 0.06622 0.11918 0.34737 0.0
C451 C 0.03421 0.28795 0.4178 0.0
C452 C 0.0603 0.23673 0.37264 0.0
H453 H 0.00871 0.20253 0.33597 0.0
C454 C 0.09137 0.21666 0.37048 0.0
C455 C 0.03021 0.23178 0.35995 0.0
C456 C 0.99673 0.25349 0.36101 0.0
C457 C 0.09309 0.19162 0.35601 0.0
C458 C 0.06277 0.18635 0.34357 0.0
C459 C 0.03177 0.20649 0.34568 0.0
C460 C 0.06323 0.16109 0.32761 0.0
C461 C 0.1276 0.17152 0.35382 0.0
C462 C 0.06094 0.17096 0.30773 0.0
C463 C 0.06064 0.14749 0.29251 0.0
C464 C 0.06234 0.11359 0.29688 0.0
C465 C 0.06455 0.10371 0.31683 0.0
C466 C 0.06498 0.1273 0.33209 0.0
H467 H 0.15089 0.18304 0.3617 0.0
H468 H 0.12296 0.1466 0.36017 0.0
H469 H 0.13518 0.16843 0.33791 0.0
H470 H 0.05945 0.19692 0.30399 0.0
H471 H 0.0588 0.15597 0.27732 0.0
H472 H 0.70295 0.0948 0.89053 0.0
H473 H 0.73504 0.07596 0.86055 0.0
H474 H 0.82344 0.04002 0.89642 0.0
H475 H 0.79052 0.05721 0.92645 0.0
H476 H 0.79565 0.09754 0.84635 0.0
H477 H 0.81509 0.96451 0.8592 0.0
H478 H 0.78422 0.989 0.87425 0.0
H479 H 0.83227 0.98741 0.87989 0.0
C480 C 0.72867 0.08192 0.89206 0.0
C481 C 0.74389 0.07679 0.91091 0.0
C482 C 0.74711 0.07133 0.87489 0.0
C483 C 0.78139 0.05592 0.87617 0.0
C484 C 0.7965 0.05071 0.89499 0.0
H485 H 0.96306 0.07087 0.79744 0.0
H486 H 0.91187 0.07892 0.82033 0.0
C487 C 0.77781 0.06077 0.91216 0.0
C488 C 0.8031 0.04843 0.85791 0.0
H489 H 0.85899 0.99036 0.83681 0.0
C490 C 0.80892 0.07386 0.84409 0.0
C491 C 0.81988 0.01737 0.85459 0.0
C492 C 0.81216 0.98796 0.86768 0.0
C493 C 0.83263 0.06971 0.82776 0.0
C494 C 0.85213 0.03973 0.82557 0.0
C495 C 0.84464 0.01362 0.83867 0.0
C496 C 0.88204 0.03566 0.81066 0.0
C497 C 0.83657 0.09764 0.81312 0.0
C498 C 0.88293 0.00818 0.79788 0.0
C499 C 0.91268 0.00312 0.78499 0.0
C500 C 0.94204 0.02555 0.78461 0.0
C501 C 0.94072 0.05334 0.79716 0.0
C502 C 0.91126 0.05812 0.81019 0.0
H503 H 0.81107 0.11245 0.81244 0.0
H504 H 0.85874 0.11438 0.81803 0.0
H505 H 0.84329 0.08843 0.79797 0.0
H506 H 0.86082 0.99039 0.79805 0.0
H507 H 0.91289 0.98144 0.77553 0.0
H508 H 0.97485 0.71259 0.40463 0.0
H509 H 0.98348 0.75543 0.37941 0.0
H510 H 0.07392 0.79516 0.41236 0.0
H511 H 0.06591 0.75192 0.43738 0.0
H512 H 0.98019 0.82319 0.38389 0.0
H513 H 0.11756 0.78472 0.35668 0.0
H514 H 0.08907 0.75843 0.37192 0.0
H515 H 0.11452 0.79153 0.38302 0.0
C516 C 0.99697 0.73012 0.40629 0.0
C517 C 0.02041 0.72836 0.42266 0.0
C518 C 0.00171 0.75469 0.39197 0.0
C519 C 0.02978 0.77809 0.39382 0.0
C520 C 0.05271 0.77683 0.41037 0.0
H521 H 0.04432 0.96159 0.32527 0.0
H522 H 0.03977 0.92162 0.35251 0.0
C523 C 0.04808 0.75219 0.42465 0.0
C524 C 0.03442 0.80426 0.37866 0.0
H525 H 0.09447 0.83514 0.34428 0.0
C526 C 0.00518 0.82586 0.37524 0.0
C527 C 0.06698 0.80751 0.36732 0.0
C528 C 0.09874 0.78416 0.36974 0.0
C529 C 0.00761 0.85064 0.36075 0.0
C530 C 0.04033 0.85414 0.3496 0.0
C531 C 0.06958 0.83258 0.35303 0.0
C532 C 0.04392 0.87864 0.33342 0.0
C533 C 0.97482 0.87225 0.35708 0.0
C534 C 0.0485 0.86768 0.31379 0.0
C535 C 0.05112 0.89033 0.29827 0.0
C536 C 0.04948 0.92447 0.30209 0.0
C537 C 0.04554 0.93546 0.32184 0.0
C538 C 0.04278 0.91269 0.33739 0.0
H539 H 0.9496 0.86217 0.3641 0.0
H540 H 0.97983 0.89717 0.3634 0.0
H541 H 0.97018 0.87506 0.3409 0.0
H542 H 0.04956 0.84151 0.31043 0.0
H543 H 0.0543 0.88101 0.28326 0.0
loop_
_geom_bond_atom_site_label_1
_geom_bond_atom_site_label_2
_geom_bond_distance
_geom_bond_site_symmetry_2
_ccdc_geom_bond_type
C0 C1 1.560 . S
C0 H61 0.959 . S
C0 H62 0.959 . S
C0 H63 0.960 . S
C1 C0 1.560 . S
C1 O56 1.426 . S
C1 H60 0.980 . S
C2 C3 1.407 1_545 S
C2 C7 1.418 . S
C2 O56 1.334 . S
C3 C2 1.407 1_565 S
C3 C4 1.360 . S
C3 H64 0.929 . S
C4 C3 1.360 . S
C4 C5 1.401 1_565 S
C4 C8 1.527 . S
C5 C4 1.401 1_545 S
C5 C6 1.405 . S
C5 C38 1.587 1_545 S
C6 C5 1.405 . S
C6 C7 1.332 . S
C6 C9 1.496 . S
C7 C2 1.418 . S
C7 C6 1.332 . S
C7 H65 0.929 . S
C8 C4 1.527 . S
C8 H66 0.959 . S
C8 H67 0.961 . S
C8 H68 0.961 . S
C9 C6 1.496 . S
C9 H69 0.960 . S
C9 H70 0.960 . S
C9 H71 0.961 . S
C10 C11 1.517 . S
C10 H73 0.961 . S
C10 H74 0.960 . S
C10 H75 0.959 . S
C11 C10 1.517 . S
C11 O59 1.468 . S
C11 H72 0.980 1_565 S
C12 C13 1.349 . S
C12 C17 1.367 . S
C12 O59 1.408 . S
C13 C12 1.349 . S
C13 C14 1.407 1_565 S
C13 H76 0.930 1_565 S
C14 C13 1.407 1_545 S
C14 C15 1.449 1_545 S
C14 C18 1.535 . S
C15 C14 1.449 1_565 S
C15 C16 1.384 . S
C15 C40 1.553 . S
C16 C15 1.384 . S
C16 C17 1.364 . S
C16 C19 1.450 . S
C17 C12 1.367 . S
C17 C16 1.364 . S
C17 H77 0.931 . S
C18 C14 1.535 . S
C18 H78 0.959 . S
C18 H79 0.961 . S
C18 H80 0.959 . S
C19 C16 1.450 . S
C19 H81 0.960 . S
C19 H82 0.960 . S
C19 H83 0.960 . S
C20 C21 1.309 1_565 S
C20 C25 1.304 . S
C20 O58 1.435 . S
C21 C20 1.309 1_545 S
C21 C22 1.476 . S
C21 H85 0.930 . S
C22 C21 1.476 . S
C22 C23 1.400 1_545 S
C22 C26 1.567 . S
C23 C22 1.400 1_565 S
C23 C24 1.373 . S
C23 C45 1.432 . S
C24 C23 1.373 . S
C24 C25 1.339 . S
C24 C27 1.530 . S
C25 C20 1.304 . S
C25 C24 1.339 . S
C25 H86 0.930 . S
C26 C22 1.567 . S
C26 H87 0.961 . S
C26 H88 0.960 . S
C26 H89 0.958 . S
C27 C24 1.530 . S
C27 H90 0.961 . S
C27 H91 0.960 . S
C27 H92 0.960 . S
C28 C29 1.530 . S
C28 H94 0.961 . S
C28 H95 0.961 . S
C28 H96 0.959 . S
C29 C28 1.530 . S
C29 O57 1.412 . S
C29 H93 0.978 1_545 S
C30 C31 1.288 . S
C30 C35 1.377 1_545 S
C30 O57 1.393 . S
C31 C30 1.288 . S
C31 C32 1.369 . S
C31 H97 0.932 . S
C32 C31 1.369 . S
C32 C33 1.398 . S
C32 C36 1.527 . S
C33 C32 1.398 . S
C33 C34 1.380 1_545 S
C33 C47 1.497 1_545 S
C34 C33 1.380 1_565 S
C34 C35 1.383 . S
C34 C37 1.603 . S
C35 C30 1.377 1_565 S
C35 C34 1.383 . S
C35 H98 0.929 . S
C36 C32 1.527 . S
C36 H99 0.961 . S
C36 H100 0.959 . S
C36 H101 0.959 . S
C37 C34 1.603 . S
C37 H102 0.960 . S
C37 H103 0.962 . S
C37 H104 0.961 . S
C38 C5 1.587 1_565 S
C38 C39 1.360 . S
C38 C51 1.412 . S
C39 C38 1.360 . S
C39 C40 1.365 . S
C39 H105 0.929 . S
C40 C15 1.553 . S
C40 C39 1.365 . S
C40 C41 1.404 . S
C41 C40 1.404 . S
C41 C42 1.395 . S
C41 C52 1.451 . S
C42 C41 1.395 . S
C42 C43 1.322 . S
C42 H106 0.930 . S
C43 C42 1.322 . S
C43 C44 1.459 1_554 S
C43 H107 0.929 1_554 S
C44 C43 1.459 1_556 S
C44 C45 1.445 . S
C44 C53 1.405 . S
C45 C23 1.432 . S
C45 C44 1.445 . S
C45 C46 1.370 . S
C46 C45 1.370 . S
C46 C47 1.438 . S
C46 H108 0.930 . S
C47 C33 1.497 1_565 S
C47 C46 1.438 . S
C47 C48 1.360 . S
C48 C47 1.360 . S
C48 C49 1.419 . S
C48 C53 1.456 . S
C49 C48 1.419 . S
C49 C50 1.318 1_556 S
C49 H109 0.941 1_565 S
C50 C49 1.318 1_554 S
C50 C51 1.455 . S
C50 H110 0.927 1_565 S
C51 C38 1.412 . S
C51 C50 1.455 . S
C51 C52 1.331 . S
C52 C41 1.451 . S
C52 C51 1.331 . S
C52 C53 1.477 1_554 S
C53 C44 1.405 . S
C53 C48 1.456 . S
C53 C52 1.477 1_556 S
C54 C55 1.582 . S
C54 H111 0.962 . S
C54 H112 0.959 . S
C54 H113 0.958 . S
C55 C54 1.582 . S
C55 O58 1.458 . S
C55 H84 0.980 1_565 S
O56 C1 1.426 . S
O56 C2 1.334 . S
O57 C29 1.412 . S
O57 C30 1.393 . S
O58 C20 1.435 . S
O58 C55 1.458 . S
O59 C11 1.468 . S
O59 C12 1.408 . S
H60 C1 0.980 . S
H61 C0 0.959 . S
H62 C0 0.959 . S
H63 C0 0.960 . S
H64 C3 0.929 . S
H65 C7 0.929 . S
H66 C8 0.959 . S
H67 C8 0.961 . S
H68 C8 0.961 . S
H69 C9 0.960 . S
H70 C9 0.960 . S
H71 C9 0.961 . S
H72 C11 0.980 1_545 S
H73 C10 0.961 . S
H74 C10 0.960 . S
H75 C10 0.959 . S
H76 C13 0.930 1_545 S
H77 C17 0.931 . S
H78 C18 0.959 . S
H79 C18 0.961 . S
H80 C18 0.959 . S
H81 C19 0.960 . S
H82 C19 0.960 . S
H83 C19 0.960 . S
H84 C55 0.980 1_545 S
H85 C21 0.930 . S
H86 C25 0.930 . S
H87 C26 0.961 . S
H88 C26 0.960 . S
H89 C26 0.958 . S
H90 C27 0.961 . S
H91 C27 0.960 . S
H92 C27 0.960 . S
H93 C29 0.978 1_565 S
H94 C28 0.961 . S
H95 C28 0.961 . S
H96 C28 0.959 . S
H97 C31 0.932 . S
H98 C35 0.929 . S
H99 C36 0.961 . S
H100 C36 0.959 . S
H101 C36 0.959 . S
H102 C37 0.960 . S
H103 C37 0.962 . S
H104 C37 0.961 . S
H105 C39 0.929 . S
H106 C42 0.930 . S
H107 C43 0.929 1_556 S
H108 C46 0.930 . S
H109 C49 0.941 1_545 S
H110 C50 0.927 1_545 S
H111 C54 0.962 . S
H112 C54 0.959 . S
H113 C54 0.958 . S
C114 C115 1.560 . S
C114 H175 0.959 . S
C114 H176 0.959 . S
C114 H177 0.960 . S
C115 C114 1.560 . S
C115 O170 1.426 . S
C115 H174 0.980 . S
C116 C117 1.407 . S
C116 C121 1.418 . S
C116 O170 1.334 . S
C117 C116 1.407 . S
C117 C118 1.360 . S
C117 H178 0.929 . S
C118 C117 1.360 . S
C118 C119 1.401 . S
C118 C122 1.527 1_455 S
C119 C118 1.401 . S
C119 C120 1.405 . S
C119 C152 1.587 . S
C120 C119 1.405 . S
C120 C121 1.332 . S
C120 C123 1.496 . S
C121 C116 1.418 . S
C121 C120 1.332 . S
C121 H179 0.929 . S
C122 C118 1.527 1_655 S
C122 H180 0.959 . S
C122 H181 0.961 . S
C122 H182 0.961 . S
C123 C120 1.496 . S
C123 H183 0.960 . S
C123 H184 0.960 . S
C123 H185 0.961 . S
C124 C125 1.517 . S
C124 H187 0.961 . S
C124 H188 0.935 1_455 S
C124 H189 0.959 . S
C125 C124 1.517 . S
C125 O173 1.468 1_455 S
C125 H186 0.980 . S
C126 C127 1.349 . S
C126 C131 1.367 1_455 S
C126 O173 1.408 1_455 S
C127 C126 1.349 . S
C127 C128 1.407 . S
C127 H190 0.930 . S
C128 C127 1.407 . S
C128 C129 1.449 . S
C128 C132 1.535 . S
C129 C128 1.449 . S
C129 C130 1.384 1_455 S
C129 C154 1.553 . S
C130 C129 1.384 1_655 S
C130 C131 1.364 . S
C130 C133 1.450 . S
C131 C126 1.367 1_655 S
C131 C130 1.364 . S
C131 H191 0.931 . S
C132 C128 1.535 . S
C132 H192 0.959 . S
C132 H193 0.961 . S
C132 H194 0.959 . S
C133 C130 1.450 . S
C133 H195 0.960 . S
C133 H196 0.960 . S
C133 H197 0.960 . S
C134 C135 1.309 . S
C134 C139 1.304 1_455 S
C134 O172 1.435 . S
C135 C134 1.309 . S
C135 C136 1.476 . S
C135 H199 0.930 . S
C136 C135 1.476 . S
C136 C137 1.400 . S
C136 C140 1.567 . S
C137 C136 1.400 . S
C137 C138 1.373 1_455 S
C137 C159 1.432 . S
C138 C137 1.373 1_655 S
C138 C139 1.339 . S
C138 C141 1.530 . S
C139 C134 1.304 1_655 S
C139 C138 1.339 . S
C139 H200 0.930 . S
C140 C136 1.567 . S
C140 H201 0.961 . S
C140 H202 0.960 . S
C140 H203 0.958 . S
C141 C138 1.530 . S
C141 H204 0.961 . S
C141 H205 0.960 . S
C141 H206 0.960 . S
C142 C143 1.530 . S
C142 H208 0.961 . S
C142 H209 0.961 . S
C142 H210 0.959 . S
C143 C142 1.530 . S
C143 O171 1.412 . S
C143 H207 0.980 . S
C144 C145 1.288 . S
C144 C149 1.377 . S
C144 O171 1.393 . S
C145 C144 1.288 . S
C145 C146 1.369 . S
C145 H211 0.932 . S
C146 C145 1.369 . S
C146 C147 1.398 . S
C146 C150 1.527 . S
C147 C146 1.398 . S
C147 C148 1.380 . S
C147 C161 1.497 . S
C148 C147 1.380 . S
C148 C149 1.383 . S
C148 C151 1.603 1_455 S
C149 C144 1.377 . S
C149 C148 1.383 . S
C149 H212 0.929 . S
C150 C146 1.527 . S
C150 H213 0.961 . S
C150 H214 0.959 . S
C150 H215 0.959 . S
C151 C148 1.603 1_655 S
C151 H216 0.960 . S
C151 H217 0.962 . S
C151 H218 0.961 . S
C152 C119 1.587 . S
C152 C153 1.360 . S
C152 C165 1.412 . S
C153 C152 1.360 . S
C153 C154 1.365 . S
C153 H219 0.929 . S
C154 C129 1.553 . S
C154 C153 1.365 . S
C154 C155 1.404 . S
C155 C154 1.404 . S
C155 C156 1.395 . S
C155 C166 1.451 . S
C156 C155 1.395 . S
C156 C157 1.322 . S
C156 H220 0.930 . S
C157 C156 1.322 . S
C157 C158 1.459 . S
C157 H221 0.929 . S
C158 C157 1.459 . S
C158 C159 1.445 . S
C158 C167 1.395 . S
C159 C137 1.432 . S
C159 C158 1.445 . S
C159 C160 1.370 . S
C160 C159 1.370 . S
C160 C161 1.438 . S
C160 H222 0.930 . S
C161 C147 1.497 . S
C161 C160 1.438 . S
C161 C162 1.360 . S
C162 C161 1.360 . S
C162 C163 1.401 . S
C162 C167 1.446 . S
C163 C162 1.401 . S
C163 C164 1.347 . S
C163 H223 0.929 . S
C164 C163 1.347 . S
C164 C165 1.455 . S
C164 H224 0.930 . S
C165 C152 1.412 . S
C165 C164 1.455 . S
C165 C166 1.331 . S
C166 C155 1.451 . S
C166 C165 1.331 . S
C166 C167 1.497 . S
C167 C158 1.395 . S
C167 C162 1.446 . S
C167 C166 1.497 . S
C168 C169 1.582 . S
C168 H225 0.962 . S
C168 H226 0.959 . S
C168 H227 0.934 1_455 S
C169 C168 1.582 . S
C169 O172 1.458 . S
C169 H198 0.980 . S
O170 C115 1.426 . S
O170 C116 1.334 . S
O171 C143 1.412 . S
O171 C144 1.393 . S
O172 C134 1.435 . S
O172 C169 1.458 . S
O173 C125 1.468 1_655 S
O173 C126 1.408 1_655 S
H174 C115 0.980 . S
H175 C114 0.959 . S
H176 C114 0.959 . S
H177 C114 0.960 . S
H178 C117 0.929 . S
H179 C121 0.929 . S
H180 C122 0.959 . S
H181 C122 0.961 . S
H182 C122 0.961 . S
H183 C123 0.960 . S
H184 C123 0.960 . S
H185 C123 0.961 . S
H186 C125 0.980 . S
H187 C124 0.961 . S
H188 C124 0.935 1_655 S
H189 C124 0.959 . S
H190 C127 0.930 . S
H191 C131 0.931 . S
H192 C132 0.959 . S
H193 C132 0.961 . S
H194 C132 0.959 . S
H195 C133 0.960 . S
H196 C133 0.960 . S
H197 C133 0.960 . S
H198 C169 0.980 . S
H199 C135 0.930 . S
H200 C139 0.930 . S
H201 C140 0.961 . S
H202 C140 0.960 . S
H203 C140 0.958 . S
H204 C141 0.961 . S
H205 C141 0.960 . S
H206 C141 0.960 . S
H207 C143 0.980 . S
H208 C142 0.961 . S
H209 C142 0.961 . S
H210 C142 0.959 . S
H211 C145 0.932 . S
H212 C149 0.929 . S
H213 C150 0.961 . S
H214 C150 0.959 . S
H215 C150 0.959 . S
H216 C151 0.960 . S
H217 C151 0.962 . S
H218 C151 0.961 . S
H219 C153 0.929 . S
H220 C156 0.930 . S
H221 C157 0.929 . S
H222 C160 0.930 . S
H223 C163 0.929 . S
H224 C164 0.930 . S
H225 C168 0.962 . S
H226 C168 0.959 . S
H227 C168 0.934 1_655 S
O228 Cd229 2.223 . S
O228 C236 1.315 . S
Cd229 O228 2.223 . S
Cd229 O232 2.297 . S
Cd229 O233 2.439 . S
Cd229 O239 2.240 1_565 S
Cd230 O231 2.240 . S
Cd230 O238 2.223 . S
Cd230 O240 2.297 . S
Cd230 O241 2.439 . S
O231 Cd230 2.240 . S
O231 C236 1.279 1_545 S
O232 Cd229 2.297 . S
O232 C234 1.247 . S
O233 Cd229 2.439 . S
O233 C234 1.208 . S
C234 O232 1.247 . S
C234 O233 1.208 . S
C235 O240 1.247 . S
C235 O241 1.208 . S
C236 O228 1.315 . S
C236 O231 1.279 1_565 S
C237 O238 1.315 . S
C237 O239 1.279 . S
O238 Cd230 2.223 . S
O238 C237 1.315 . S
O239 Cd229 2.240 1_545 S
O239 C237 1.279 . S
O240 Cd230 2.297 . S
O240 C235 1.247 . S
O241 Cd230 2.439 . S
O241 C235 1.208 . S
O242 Cd243 2.223 . S
O242 C250 1.315 . S
Cd243 O242 2.223 . S
Cd243 O246 2.297 . S
Cd243 O247 2.439 . S
Cd243 O253 2.240 . S
Cd244 O245 2.240 1_565 S
Cd244 O252 2.223 . S
Cd244 O254 2.297 . S
Cd244 O255 2.439 . S
O245 Cd244 2.240 1_545 S
O245 C250 1.279 . S
O246 Cd243 2.297 . S
O246 C248 1.247 . S
O247 Cd243 2.439 . S
O247 C248 1.208 . S
C248 O246 1.247 . S
C248 O247 1.208 . S
C249 O254 1.247 . S
C249 O255 1.208 . S
C250 O242 1.315 . S
C250 O245 1.279 . S
C251 O252 1.315 . S
C251 O253 1.279 1_565 S
O252 Cd244 2.223 . S
O252 C251 1.315 . S
O253 Cd243 2.240 . S
O253 C251 1.279 1_545 S
O254 Cd244 2.297 . S
O254 C249 1.247 . S
O255 Cd244 2.439 . S
O255 C249 1.208 . S
H256 C264 0.938 . S
H257 C266 0.930 1_565 S
H258 C268 0.930 . S
H259 C271 0.929 . S
H260 C274 0.930 . S
H261 C276 0.960 . S
H262 C276 0.960 . S
H263 C276 0.960 . S
C264 H256 0.938 . S
C264 C265 1.373 1_565 S
C264 C266 1.381 1_565 S
C265 C264 1.373 1_545 S
C265 C271 1.390 . S
C266 H257 0.930 1_545 S
C266 C264 1.381 1_545 S
C266 C267 1.372 . S
C267 C266 1.372 . S
C267 C268 1.400 . S
C267 C272 1.490 . S
C268 H258 0.930 . S
C268 C267 1.400 . S
C268 C271 1.386 . S
H269 C285 0.930 . S
H270 C286 0.931 . S
C271 H259 0.929 . S
C271 C265 1.390 . S
C271 C268 1.386 . S
C272 C267 1.490 . S
C272 C274 1.395 1_545 S
C272 C275 1.403 . S
H273 C279 0.930 . S
C274 H260 0.930 . S
C274 C272 1.395 1_565 S
C274 C277 1.403 . S
C275 C272 1.403 . S
C275 C276 1.524 . S
C275 C279 1.400 . S
C276 H261 0.960 . S
C276 H262 0.960 . S
C276 H263 0.960 . S
C276 C275 1.524 . S
C277 C274 1.403 . S
C277 C278 1.392 1_565 S
C277 C281 1.495 . S
C278 C277 1.392 1_545 S
C278 C279 1.385 . S
C278 C280 1.478 . S
C279 H273 0.930 . S
C279 C275 1.400 . S
C279 C278 1.385 . S
C280 C278 1.478 . S
C280 C282 1.381 . S
C280 C286 1.383 . S
C281 C277 1.495 . S
C281 H287 0.959 . S
C281 H288 0.961 . S
C281 H289 0.960 . S
C282 C280 1.381 . S
C282 C283 1.394 . S
C282 H290 0.930 . S
C283 C282 1.394 . S
C283 C284 1.383 . S
C283 H291 0.929 . S
C284 C283 1.383 . S
C284 C285 1.377 . S
C285 H269 0.930 . S
C285 C284 1.377 . S
C285 C286 1.379 . S
C286 H270 0.931 . S
C286 C280 1.383 . S
C286 C285 1.379 . S
H287 C281 0.959 . S
H288 C281 0.961 . S
H289 C281 0.960 . S
H290 C282 0.930 . S
H291 C283 0.929 . S
H292 C300 0.929 . S
H293 C302 0.930 . S
H294 C304 0.930 . S
H295 C307 0.929 . S
H296 C310 0.930 . S
H297 C312 0.960 . S
H298 C312 0.960 . S
H299 C312 0.960 . S
C300 H292 0.929 . S
C300 C301 1.377 . S
C300 C302 1.384 . S
C301 C300 1.377 . S
C301 C307 1.390 . S
C302 H293 0.930 . S
C302 C300 1.384 . S
C302 C303 1.372 . S
C303 C302 1.372 . S
C303 C304 1.400 . S
C303 C308 1.490 . S
C304 H294 0.930 . S
C304 C303 1.400 . S
C304 C307 1.386 . S
H305 C321 0.909 1_655 S
H306 C322 0.931 1_655 S
C307 H295 0.929 . S
C307 C301 1.390 . S
C307 C304 1.386 . S
C308 C303 1.490 . S
C308 C310 1.395 . S
C308 C311 1.403 . S
H309 C315 0.930 . S
C310 H296 0.930 . S
C310 C308 1.395 . S
C310 C313 1.403 . S
C311 C308 1.403 . S
C311 C312 1.524 . S
C311 C315 1.400 . S
C312 H297 0.960 . S
C312 H298 0.960 . S
C312 H299 0.960 . S
C312 C311 1.524 . S
C313 C310 1.403 . S
C313 C314 1.392 . S
C313 C317 1.495 . S
C314 C313 1.392 . S
C314 C315 1.385 . S
C314 C316 1.478 . S
C315 H309 0.930 . S
C315 C311 1.400 . S
C315 C314 1.385 . S
C316 C314 1.478 . S
C316 C318 1.381 . S
C316 C322 1.383 . S
C317 C313 1.495 . S
C317 H323 0.959 . S
C317 H324 0.961 1_455 S
C317 H325 0.960 . S
C318 C316 1.381 . S
C318 C319 1.394 . S
C318 H326 0.930 . S
C319 C318 1.394 . S
C319 C320 1.383 . S
C319 H327 0.929 . S
C320 C319 1.383 . S
C320 C321 1.395 . S
C321 H305 0.909 1_455 S
C321 C320 1.395 . S
C321 C322 1.382 . S
C322 H306 0.931 1_455 S
C322 C316 1.383 . S
C322 C321 1.382 . S
H323 C317 0.959 . S
H324 C317 0.961 1_655 S
H325 C317 0.960 . S
H326 C318 0.930 . S
H327 C319 0.929 . S
H328 C336 0.929 . S
H329 C338 0.930 . S
H330 C340 0.930 . S
H331 C343 0.929 . S
H332 C346 0.930 . S
H333 C348 0.960 . S
H334 C348 0.960 1_565 S
H335 C348 0.960 . S
C336 H328 0.929 . S
C336 C337 1.377 1_565 S
C336 C338 1.384 . S
C337 C336 1.377 1_545 S
C337 C343 1.390 . S
C338 H329 0.930 . S
C338 C336 1.384 . S
C338 C339 1.372 1_565 S
C339 C338 1.372 1_545 S
C339 C340 1.400 . S
C339 C344 1.490 . S
C340 H330 0.930 . S
C340 C339 1.400 . S
C340 C343 1.386 . S
H341 C357 0.930 . S
H342 C358 0.931 . S
C343 H331 0.929 . S
C343 C337 1.390 . S
C343 C340 1.386 . S
C344 C339 1.490 . S
C344 C346 1.395 . S
C344 C347 1.403 . S
H345 C351 0.930 . S
C346 H332 0.930 . S
C346 C344 1.395 . S
C346 C349 1.402 1_545 S
C347 C344 1.403 . S
C347 C348 1.524 . S
C347 C351 1.400 . S
C348 H333 0.960 . S
C348 H334 0.960 1_545 S
C348 H335 0.960 . S
C348 C347 1.524 . S
C349 C346 1.402 1_565 S
C349 C350 1.391 1_565 S
C349 C353 1.497 . S
C350 C349 1.391 1_545 S
C350 C351 1.388 . S
C350 C352 1.477 1_545 S
C351 H345 0.930 . S
C351 C347 1.400 . S
C351 C350 1.388 . S
C352 C350 1.477 1_565 S
C352 C354 1.394 . S
C352 C358 1.370 1_565 S
C353 C349 1.497 . S
C353 H359 0.959 . S
C353 H360 0.961 1_565 S
C353 H361 0.960 . S
C354 C352 1.394 . S
C354 C355 1.394 . S
C354 H362 0.930 . S
C355 C354 1.394 . S
C355 C356 1.383 . S
C355 H363 0.929 . S
C356 C355 1.383 . S
C356 C357 1.377 1_565 S
C357 H341 0.930 . S
C357 C356 1.377 1_545 S
C357 C358 1.379 . S
C358 H342 0.931 . S
C358 C352 1.370 1_545 S
C358 C357 1.379 . S
H359 C353 0.959 . S
H360 C353 0.961 1_545 S
H361 C353 0.960 . S
H362 C354 0.930 . S
H363 C355 0.929 . S
H364 C372 0.929 . S
H365 C374 0.930 . S
H366 C376 0.907 1_655 S
H367 C379 0.929 1_655 S
H368 C382 0.930 . S
H369 C384 0.960 . S
H370 C384 0.960 . S
H371 C384 0.960 . S
C372 H364 0.929 . S
C372 C373 1.377 . S
C372 C374 1.384 . S
C373 C372 1.377 . S
C373 C379 1.390 . S
C374 H365 0.930 . S
C374 C372 1.384 . S
C374 C375 1.372 . S
C375 C374 1.372 . S
C375 C376 1.400 . S
C375 C380 1.490 . S
C376 H366 0.907 1_455 S
C376 C375 1.400 . S
C376 C379 1.386 . S
H377 C393 0.930 . S
H378 C394 0.931 . S
C379 H367 0.929 1_455 S
C379 C373 1.390 . S
C379 C376 1.386 . S
C380 C375 1.490 . S
C380 C382 1.395 . S
C380 C383 1.403 . S
H381 C387 0.930 . S
C382 H368 0.930 . S
C382 C380 1.395 . S
C382 C385 1.403 . S
C383 C380 1.403 . S
C383 C384 1.524 . S
C383 C387 1.400 . S
C384 H369 0.960 . S
C384 H370 0.960 . S
C384 H371 0.960 . S
C384 C383 1.524 . S
C385 C382 1.403 . S
C385 C386 1.392 . S
C385 C389 1.495 . S
C386 C385 1.392 . S
C386 C387 1.385 . S
C386 C388 1.478 . S
C387 H381 0.930 . S
C387 C383 1.400 . S
C387 C386 1.385 . S
C388 C386 1.478 . S
C388 C390 1.381 . S
C388 C394 1.383 . S
C389 C385 1.495 . S
C389 H395 0.959 . S
C389 H396 0.961 . S
C389 H397 0.960 . S
C390 C388 1.381 . S
C390 C391 1.394 . S
C390 H398 0.930 . S
C391 C390 1.394 . S
C391 C392 1.383 . S
C391 H399 0.929 . S
C392 C391 1.383 . S
C392 C393 1.377 . S
C393 H377 0.930 . S
C393 C392 1.377 . S
C393 C394 1.379 . S
C394 H378 0.931 . S
C394 C388 1.383 . S
C394 C393 1.379 . S
H395 C389 0.959 . S
H396 C389 0.961 . S
H397 C389 0.960 . S
H398 C390 0.930 . S
H399 C391 0.929 . S
H400 C408 0.929 . S
H401 C410 0.930 . S
H402 C412 0.930 1_565 S
H403 C415 0.933 . S
H404 C418 0.930 . S
H405 C420 0.960 . S
H406 C420 0.960 . S
H407 C420 0.960 . S
C408 H400 0.929 . S
C408 C409 1.377 . S
C408 C410 1.384 . S
C409 C408 1.377 . S
C409 C415 1.390 . S
C410 H401 0.930 . S
C410 C408 1.384 . S
C410 C411 1.372 . S
C411 C410 1.372 . S
C411 C412 1.400 . S
C411 C416 1.490 . S
C412 H402 0.930 1_545 S
C412 C411 1.400 . S
C412 C415 1.386 . S
H413 C429 0.930 . S
H414 C430 0.932 . S
C415 H403 0.933 . S
C415 C409 1.390 . S
C415 C412 1.386 . S
C416 C411 1.490 . S
C416 C418 1.395 . S
C416 C419 1.403 1_545 S
H417 C423 0.930 . S
C418 H404 0.930 . S
C418 C416 1.395 . S
C418 C421 1.403 . S
C419 C416 1.403 1_565 S
C419 C420 1.524 . S
C419 C423 1.400 . S
C420 H405 0.960 . S
C420 H406 0.960 . S
C420 H407 0.960 . S
C420 C419 1.524 . S
C421 C418 1.403 . S
C421 C422 1.392 . S
C421 C425 1.495 . S
C422 C421 1.392 . S
C422 C423 1.385 1_545 S
C422 C424 1.478 . S
C423 H417 0.930 . S
C423 C419 1.400 . S
C423 C422 1.385 1_565 S
C424 C422 1.478 . S
C424 C426 1.381 . S
C424 C430 1.383 1_545 S
C425 C421 1.495 . S
C425 H431 0.959 . S
C425 H432 0.961 . S
C425 H433 0.960 . S
C426 C424 1.381 . S
C426 C427 1.394 1_545 S
C426 H434 0.930 . S
C427 C426 1.394 1_565 S
C427 C428 1.383 . S
C427 H435 0.929 . S
C428 C427 1.383 . S
C428 C429 1.377 . S
C429 H413 0.930 . S
C429 C428 1.377 . S
C429 C430 1.379 . S
C430 H414 0.932 . S
C430 C424 1.383 1_565 S
C430 C429 1.379 . S
H431 C425 0.959 . S
H432 C425 0.961 . S
H433 C425 0.960 . S
H434 C426 0.930 . S
H435 C427 0.929 . S
H436 C444 0.929 . S
H437 C446 0.930 . S
H438 C448 0.930 . S
H439 C451 0.929 . S
H440 C454 0.930 . S
H441 C456 0.960 . S
H442 C456 0.960 . S
H443 C456 0.960 1_455 S
C444 H436 0.929 . S
C444 C445 1.377 . S
C444 C446 1.384 . S
C445 C444 1.377 . S
C445 C451 1.390 . S
C446 H437 0.930 . S
C446 C444 1.384 . S
C446 C447 1.372 . S
C447 C446 1.372 . S
C447 C448 1.400 . S
C447 C452 1.490 . S
C448 H438 0.930 . S
C448 C447 1.400 . S
C448 C451 1.386 . S
H449 C465 0.930 . S
H450 C466 0.931 . S
C451 H439 0.929 . S
C451 C445 1.390 . S
C451 C448 1.386 . S
C452 C447 1.490 . S
C452 C454 1.395 . S
C452 C455 1.403 . S
H453 C459 0.930 . S
C454 H440 0.930 . S
C454 C452 1.395 . S
C454 C457 1.403 . S
C455 C452 1.403 . S
C455 C456 1.524 1_455 S
C455 C459 1.400 . S
C456 H441 0.960 . S
C456 H442 0.960 . S
C456 H443 0.960 1_655 S
C456 C455 1.524 1_655 S
C457 C454 1.403 . S
C457 C458 1.392 . S
C457 C461 1.495 . S
C458 C457 1.392 . S
C458 C459 1.385 . S
C458 C460 1.478 . S
C459 H453 0.930 . S
C459 C455 1.400 . S
C459 C458 1.385 . S
C460 C458 1.478 . S
C460 C462 1.381 . S
C460 C466 1.383 . S
C461 C457 1.495 . S
C461 H467 0.959 . S
C461 H468 0.961 . S
C461 H469 0.960 . S
C462 C460 1.381 . S
C462 C463 1.394 . S
C462 H470 0.930 . S
C463 C462 1.394 . S
C463 C464 1.383 . S
C463 H471 0.929 . S
C464 C463 1.383 . S
C464 C465 1.377 . S
C465 H449 0.930 . S
C465 C464 1.377 . S
C465 C466 1.379 . S
C466 H450 0.931 . S
C466 C460 1.383 . S
C466 C465 1.379 . S
H467 C461 0.959 . S
H468 C461 0.961 . S
H469 C461 0.960 . S
H470 C462 0.930 . S
H471 C463 0.929 . S
H472 C480 0.929 . S
H473 C482 0.930 . S
H474 C484 0.930 . S
H475 C487 0.929 . S
H476 C490 0.930 . S
H477 C492 0.960 . S
H478 C492 0.960 . S
H479 C492 0.960 . S
C480 H472 0.929 . S
C480 C481 1.378 . S
C480 C482 1.384 . S
C481 C480 1.378 . S
C481 C487 1.389 1_545 S
C482 H473 0.930 . S
C482 C480 1.384 . S
C482 C483 1.372 . S
C483 C482 1.372 . S
C483 C484 1.400 1_545 S
C483 C488 1.490 . S
C484 H474 0.930 . S
C484 C483 1.400 1_565 S
C484 C487 1.386 . S
H485 C501 0.930 1_455 S
H486 C502 0.931 . S
C487 H475 0.929 . S
C487 C481 1.389 1_565 S
C487 C484 1.386 . S
C488 C483 1.490 . S
C488 C490 1.395 . S
C488 C491 1.403 1_545 S
H489 C495 0.930 . S
C490 H476 0.930 . S
C490 C488 1.395 . S
C490 C493 1.403 . S
C491 C488 1.403 1_565 S
C491 C492 1.524 . S
C491 C495 1.400 . S
C492 H477 0.960 . S
C492 H478 0.960 . S
C492 H479 0.960 . S
C492 C491 1.524 . S
C493 C490 1.403 . S
C493 C494 1.392 . S
C493 C497 1.495 . S
C494 C493 1.392 . S
C494 C495 1.385 1_545 S
C494 C496 1.478 . S
C495 H489 0.930 . S
C495 C491 1.400 . S
C495 C494 1.385 1_565 S
C496 C494 1.478 . S
C496 C498 1.381 . S
C496 C502 1.383 . S
C497 C493 1.495 . S
C497 H503 0.959 . S
C497 H504 0.961 . S
C497 H505 0.960 . S
C498 C496 1.381 . S
C498 C499 1.394 . S
C498 H506 0.930 . S
C499 C498 1.394 . S
C499 C500 1.383 . S
C499 H507 0.929 . S
C500 C499 1.383 . S
C500 C501 1.377 . S
C501 H485 0.930 1_655 S
C501 C500 1.377 . S
C501 C502 1.379 . S
C502 H486 0.931 . S
C502 C496 1.383 . S
C502 C501 1.379 . S
H503 C497 0.959 . S
H504 C497 0.961 . S
H505 C497 0.960 . S
H506 C498 0.930 . S
H507 C499 0.929 . S
H508 C516 0.929 . S
H509 C518 0.930 . S
H510 C520 0.930 . S
H511 C523 0.929 . S
H512 C526 0.930 . S
H513 C528 0.960 . S
H514 C528 0.960 . S
H515 C528 0.960 . S
C516 H508 0.929 . S
C516 C517 1.377 . S
C516 C518 1.384 . S
C517 C516 1.377 . S
C517 C523 1.390 . S
C518 H509 0.930 . S
C518 C516 1.384 . S
C518 C519 1.372 . S
C519 C518 1.372 . S
C519 C520 1.400 . S
C519 C524 1.490 . S
C520 H510 0.930 . S
C520 C519 1.400 . S
C520 C523 1.386 . S
H521 C537 0.930 . S
H522 C538 0.931 . S
C523 H511 0.929 . S
C523 C517 1.390 . S
C523 C520 1.386 . S
C524 C519 1.490 . S
C524 C526 1.395 . S
C524 C527 1.403 . S
H525 C531 0.930 . S
C526 H512 0.930 . S
C526 C524 1.395 . S
C526 C529 1.403 . S
C527 C524 1.403 . S
C527 C528 1.524 . S
C527 C531 1.400 . S
C528 H513 0.960 . S
C528 H514 0.960 . S
C528 H515 0.960 . S
C528 C527 1.524 . S
C529 C526 1.403 . S
C529 C530 1.392 . S
C529 C533 1.495 1_455 S
C530 C529 1.392 . S
C530 C531 1.385 . S
C530 C532 1.478 . S
C531 H525 0.930 . S
C531 C527 1.400 . S
C531 C530 1.385 . S
C532 C530 1.478 . S
C532 C534 1.381 . S
C532 C538 1.383 . S
C533 C529 1.495 1_655 S
C533 H539 0.959 . S
C533 H540 0.961 . S
C533 H541 0.960 . S
C534 C532 1.381 . S
C534 C535 1.394 . S
C534 H542 0.930 . S
C535 C534 1.394 . S
C535 C536 1.383 . S
C535 H543 0.929 . S
C536 C535 1.383 . S
C536 C537 1.377 . S
C537 H521 0.930 . S
C537 C536 1.377 . S
C537 C538 1.379 . S
C538 H522 0.931 . S
C538 C532 1.383 . S
C538 C537 1.379 . S
H539 C533 0.959 . S
H540 C533 0.961 . S
H541 C533 0.960 . S
H542 C534 0.930 . S
H543 C535 0.929 . S
C284 C237 1.598 . S
C265 C11 1.004 1_545 S
C320 C248 1.358 . S
C301 C115 1.150 . S
C356 C236 1.397 1_655 S
C337 C1 1.098 . S
C392 C249 1.553 . S
C373 C125 1.018 . S
C428 C251 1.667 . S
C409 C55 1.211 1_545 S
C464 C235 1.469 . S
C445 C143 1.198 . S
C500 C250 1.489 1_655 S
C481 C29 1.203 . S
C517 C169 1.215 . S
C536 C234 1.636 . S
