# Generated by pormake.
# Topology wbl, (4,4)-cn, num edge types: 1
# Building blocks:
#     Node 0, Type 0, BuildingBlock: MUDLON_clean_linker_0, # of connection points: 4
#     Node 1, Type 0, BuildingBlock: MUDLON_clean_linker_0, # of connection points: 4
#     Node 2, Type 0, BuildingBlock: MUDLON_clean_linker_0, # of connection points: 4
#     Node 3, Type 0, BuildingBlock: MUDLON_clean_linker_0, # of connection points: 4
#     Node 4, Type 0, BuildingBlock: MUDLON_clean_linker_0, # of connection points: 4
#     Node 5, Type 0, BuildingBlock: MUDLON_clean_linker_0, # of connection points: 4
#     Node 6, Type 0, BuildingBlock: MUDLON_clean_linker_0, # of connection points: 4
#     Node 7, Type 0, BuildingBlock: MUDLON_clean_linker_0, # of connection points: 4
#     Node 8, Type 1, BuildingBlock: NAHDIM_clean_sbu_0, # of connection points: 4
#     Node 9, Type 1, BuildingBlock: NAHDIM_clean_sbu_0, # of connection points: 4
#     Node 10, Type 1, BuildingBlock: NAHDIM_clean_sbu_0, # of connection points: 4
#     Node 11, Type 1, BuildingBlock: NAHDIM_clean_sbu_0, # of connection points: 4
#     Node 12, Type 1, BuildingBlock: NAHDIM_clean_sbu_0, # of connection points: 4
#     Node 13, Type 1, BuildingBlock: NAHDIM_clean_sbu_0, # of connection points: 4
#     Node 14, Type 1, BuildingBlock: NAHDIM_clean_sbu_0, # of connection points: 4
#     Node 15, Type 1, BuildingBlock: NAHDIM_clean_sbu_0, # of connection points: 4
#     Edge 16, Type (0, 1), BuildingBlock: CIFDUS_clean_linker_0, # of connection points: 2
#     Edge 17, Type (0, 1), BuildingBlock: CIFDUS_clean_linker_0, # of connection points: 2
#     Edge 18, Type (0, 1), BuildingBlock: CIFDUS_clean_linker_0, # of connection points: 2
#     Edge 19, Type (0, 1), BuildingBlock: CIFDUS_clean_linker_0, # of connection points: 2
#     Edge 20, Type (0, 1), BuildingBlock: CIFDUS_clean_linker_0, # of connection points: 2
#     Edge 21, Type (0, 1), BuildingBlock: CIFDUS_clean_linker_0, # of connection points: 2
#     Edge 22, Type (0, 1), BuildingBlock: CIFDUS_clean_linker_0, # of connection points: 2
#     Edge 23, Type (0, 1), BuildingBlock: CIFDUS_clean_linker_0, # of connection points: 2
#     Edge 24, Type (0, 1), BuildingBlock: CIFDUS_clean_linker_0, # of connection points: 2
#     Edge 25, Type (0, 1), BuildingBlock: CIFDUS_clean_linker_0, # of connection points: 2
#     Edge 26, Type (0, 1), BuildingBlock: CIFDUS_clean_linker_0, # of connection points: 2
#     Edge 27, Type (0, 1), BuildingBlock: CIFDUS_clean_linker_0, # of connection points: 2
#     Edge 28, Type (0, 1), BuildingBlock: CIFDUS_clean_linker_0, # of connection points: 2
#     Edge 29, Type (0, 1), BuildingBlock: CIFDUS_clean_linker_0, # of connection points: 2
#     Edge 30, Type (0, 1), BuildingBlock: CIFDUS_clean_linker_0, # of connection points: 2
#     Edge 31, Type (0, 1), BuildingBlock: CIFDUS_clean_linker_0, # of connection points: 2
#     Edge 32, Type (0, 1), BuildingBlock: CIFDUS_clean_linker_0, # of connection points: 2
#     Edge 33, Type (0, 1), BuildingBlock: CIFDUS_clean_linker_0, # of connection points: 2
#     Edge 34, Type (0, 1), BuildingBlock: CIFDUS_clean_linker_0, # of connection points: 2
#     Edge 35, Type (0, 1), BuildingBlock: CIFDUS_clean_linker_0, # of connection points: 2
#     Edge 36, Type (0, 1), BuildingBlock: CIFDUS_clean_linker_0, # of connection points: 2
#     Edge 37, Type (0, 1), BuildingBlock: CIFDUS_clean_linker_0, # of connection points: 2
#     Edge 38, Type (0, 1), BuildingBlock: CIFDUS_clean_linker_0, # of connection points: 2
#     Edge 39, Type (0, 1), BuildingBlock: CIFDUS_clean_linker_0, # of connection points: 2
#     Edge 40, Type (0, 1), BuildingBlock: CIFDUS_clean_linker_0, # of connection points: 2
#     Edge 41, Type (0, 1), BuildingBlock: CIFDUS_clean_linker_0, # of connection points: 2
#     Edge 42, Type (0, 1), BuildingBlock: CIFDUS_clean_linker_0, # of connection points: 2
#     Edge 43, Type (0, 1), BuildingBlock: CIFDUS_clean_linker_0, # of connection points: 2
#     Edge 44, Type (0, 1), BuildingBlock: CIFDUS_clean_linker_0, # of connection points: 2
#     Edge 45, Type (0, 1), BuildingBlock: CIFDUS_clean_linker_0, # of connection points: 2
#     Edge 46, Type (0, 1), BuildingBlock: CIFDUS_clean_linker_0, # of connection points: 2
#     Edge 47, Type (0, 1), BuildingBlock: CIFDUS_clean_linker_0, # of connection points: 2
# Relax obj value: 0.107
# Max RMSD: 0.123
# Mean RMSD: 0.112
data_MOF--net-wbl--node1-NAHDIM_clean_sbu_0--node2-MUDLON_clean_linker_0--edge1-CIFDUS_clean_linker_0
_symmetry_space_group_name_H-M    P1
_symmetry_Int_Tables_number       1
_symmetry_cell_setting            triclinic
loop_
_symmetry_equiv_pos_as_xyz
'x, y, z'
_cell_length_a     50.020741
_cell_length_b     48.545439
_cell_length_c     67.679755
_cell_angle_alpha  89.942629
_cell_angle_beta   89.936478
_cell_angle_gamma 89.938272
loop_
_atom_site_label
_atom_site_type_symbol
_atom_site_fract_x
_atom_site_fract_y
_atom_site_fract_z
_atom_type_partial_charge
H0 H 0.10745 0.94098 0.33544 0.0
N1 N 0.06944 0.92339 0.30926 0.0
H2 H 0.1122 0.92686 0.36969 0.0
H3 H 0.03916 0.88775 0.32899 0.0
H4 H 0.04509 0.87148 0.36291 0.0
H5 H 0.08604 0.87453 0.29683 0.0
H6 H 0.12918 0.86288 0.28216 0.0
H7 H 0.10723 0.96069 0.29534 0.0
H8 H 0.14942 0.94936 0.27999 0.0
H9 H 0.08208 0.97546 0.32239 0.0
H10 H 0.02353 0.9288 0.28988 0.0
H11 H 0.05546 0.01666 0.31866 0.0
H12 H 0.99552 0.97005 0.28712 0.0
H13 H 0.95915 0.14431 0.31525 0.0
H14 H 0.94433 0.16405 0.34673 0.0
H15 H 0.91781 0.08347 0.36565 0.0
H16 H 0.93177 0.0643 0.33408 0.0
H17 H 0.91596 0.05139 0.30256 0.0
H18 H 0.87107 0.05502 0.28875 0.0
H19 H 0.89119 0.13422 0.26369 0.0
H20 H 0.93608 0.13063 0.27792 0.0
H21 H 0.98948 0.07625 0.33137 0.0
H22 H 0.01709 0.03576 0.33165 0.0
H23 H 0.98964 0.01468 0.27309 0.0
N24 N 0.95365 0.09247 0.30293 0.0
H25 H 0.96036 0.05467 0.27322 0.0
C26 C 0.07255 0.91574 0.32974 0.0
C27 C 0.09327 0.9264 0.34147 0.0
C28 C 0.09628 0.91784 0.36103 0.0
C29 C 0.07916 0.8978 0.36919 0.0
C30 C 0.05839 0.88728 0.35737 0.0
C31 C 0.05505 0.89634 0.33791 0.0
C32 C 0.0931 0.91836 0.29746 0.0
C33 C 0.09965 0.89099 0.29289 0.0
C34 C 0.12432 0.88438 0.28442 0.0
C35 C 0.14302 0.90515 0.28011 0.0
C36 C 0.13582 0.93275 0.28359 0.0
C37 C 0.11131 0.9393 0.29232 0.0
C38 C 0.05497 0.94882 0.30621 0.0
C39 C 0.06351 0.97396 0.31437 0.0
C40 C 0.04797 0.99766 0.31241 0.0
C41 C 0.02305 0.99676 0.30281 0.0
C42 C 0.01471 0.97169 0.2944 0.0
C43 C 0.0306 0.94804 0.29604 0.0
C44 C 0.94669 0.10293 0.3223 0.0
C45 C 0.95029 0.13099 0.3263 0.0
C46 C 0.94189 0.14215 0.3443 0.0
C47 C 0.92975 0.12537 0.3587 0.0
C48 C 0.92656 0.09712 0.35477 0.0
C49 C 0.93469 0.08606 0.33673 0.0
C50 C 0.92944 0.09089 0.29132 0.0
C51 C 0.91096 0.06926 0.29375 0.0
C52 C 0.88529 0.07131 0.28576 0.0
C53 C 0.87751 0.09506 0.27533 0.0
C54 C 0.89651 0.11585 0.2719 0.0
C55 C 0.9222 0.11372 0.27981 0.0
C56 C 0.97053 0.06786 0.303 0.0
C57 C 0.98833 0.06264 0.31875 0.0
C58 C 0.00488 0.03954 0.31873 0.0
C59 C 0.00543 0.02155 0.3025 0.0
C60 C 0.98909 0.02752 0.28615 0.0
C61 C 0.97215 0.05052 0.28629 0.0
H62 H 0.94511 0.41131 0.59253 0.0
N63 N 0.91837 0.44614 0.56749 0.0
H64 H 0.93815 0.40642 0.62795 0.0
H65 H 0.88522 0.4752 0.59031 0.0
H66 H 0.87754 0.46974 0.62601 0.0
H67 H 0.88176 0.40691 0.57854 0.0
H68 H 0.872 0.36383 0.56216 0.0
H69 H 0.93434 0.42964 0.53034 0.0
H70 H 0.92462 0.38601 0.51423 0.0
H71 H 0.96686 0.41991 0.56315 0.0
H72 H 0.92815 0.49929 0.56156 0.0
H73 H 0.01003 0.44174 0.55807 0.0
H74 H 0.97156 0.52157 0.55734 0.0
H75 H 0.13603 0.54168 0.58661 0.0
H76 H 0.14043 0.5644 0.61873 0.0
H77 H 0.0578 0.59008 0.6155 0.0
H78 H 0.05371 0.56775 0.58336 0.0
H79 H 0.07183 0.59259 0.55504 0.0
H80 H 0.0922 0.6292 0.536 0.0
H81 H 0.15653 0.5745 0.51921 0.0
H82 H 0.13588 0.53757 0.5388 0.0
H83 H 0.08263 0.49296 0.57773 0.0
H84 H 0.0404 0.46816 0.57642 0.0
H85 H 0.00883 0.52974 0.53658 0.0
N86 N 0.09382 0.54196 0.56275 0.0
H87 H 0.05039 0.55489 0.53851 0.0
C88 C 0.91585 0.44396 0.58875 0.0
C89 C 0.93093 0.42479 0.59971 0.0
C90 C 0.92688 0.42194 0.62 0.0
C91 C 0.90743 0.43782 0.62971 0.0
C92 C 0.89267 0.45727 0.61884 0.0
C93 C 0.89703 0.46043 0.59855 0.0
C94 C 0.91119 0.42093 0.55693 0.0
C95 C 0.89185 0.40265 0.56472 0.0
C96 C 0.88577 0.37803 0.55515 0.0
C97 C 0.89821 0.37124 0.53724 0.0
C98 C 0.91548 0.39038 0.5284 0.0
C99 C 0.9213 0.41526 0.53785 0.0
C100 C 0.94408 0.45804 0.56262 0.0
C101 C 0.96761 0.44209 0.56168 0.0
C102 C 0.99239 0.45465 0.55885 0.0
C103 C 0.9944 0.48347 0.55739 0.0
C104 C 0.97081 0.4993 0.55803 0.0
C105 C 0.94596 0.48667 0.56055 0.0
C106 C 0.09468 0.55294 0.58258 0.0
C107 C 0.11882 0.55188 0.59302 0.0
C108 C 0.12123 0.56479 0.61136 0.0
C109 C 0.09946 0.57911 0.61961 0.0
C110 C 0.07501 0.57951 0.6094 0.0
C111 C 0.07261 0.56657 0.59108 0.0
C112 C 0.10229 0.5621 0.54831 0.0
C113 C 0.0899 0.58808 0.54688 0.0
C114 C 0.10156 0.60908 0.53583 0.0
C115 C 0.12603 0.6048 0.52607 0.0
C116 C 0.13774 0.57846 0.52666 0.0
C117 C 0.1259 0.55731 0.53768 0.0
C118 C 0.06997 0.52609 0.55862 0.0
C119 C 0.06671 0.5009 0.56849 0.0
C120 C 0.04253 0.48668 0.56764 0.0
C121 C 0.02101 0.4971 0.55655 0.0
C122 C 0.02473 0.52148 0.54568 0.0
C123 C 0.04884 0.53593 0.54675 0.0
H124 H 0.63261 0.46461 0.83541 0.0
N125 N 0.59258 0.45873 0.81001 0.0
H126 H 0.63748 0.44289 0.86791 0.0
H127 H 0.55457 0.42783 0.82942 0.0
H128 H 0.55897 0.40688 0.86179 0.0
H129 H 0.57887 0.40506 0.80206 0.0
H130 H 0.60665 0.3723 0.78385 0.0
H131 H 0.6318 0.47108 0.78526 0.0
H132 H 0.65926 0.43853 0.76654 0.0
H133 H 0.58868 0.51301 0.81155 0.0
H134 H 0.54405 0.44015 0.79669 0.0
H135 H 0.54806 0.54071 0.80909 0.0
H136 H 0.50294 0.46695 0.79591 0.0
H137 H 0.43354 0.60641 0.83397 0.0
H138 H 0.42568 0.62782 0.86593 0.0
H139 H 0.39484 0.55074 0.88835 0.0
H140 H 0.40199 0.52963 0.85585 0.0
H141 H 0.37234 0.53524 0.81362 0.0
H142 H 0.33859 0.55858 0.79342 0.0
H143 H 0.39466 0.62388 0.78099 0.0
H144 H 0.42891 0.59956 0.80041 0.0
H145 H 0.47014 0.56783 0.83822 0.0
H146 H 0.51204 0.54693 0.82983 0.0
H147 H 0.47364 0.49994 0.78365 0.0
N148 N 0.42035 0.55371 0.82322 0.0
H149 H 0.4307 0.51987 0.79306 0.0
C150 C 0.59331 0.4481 0.82993 0.0
C151 C 0.61635 0.45234 0.84126 0.0
C152 C 0.61903 0.43999 0.85982 0.0
C153 C 0.59862 0.42307 0.86738 0.0
C154 C 0.57519 0.4195 0.85627 0.0
C155 C 0.57256 0.43179 0.83773 0.0
C156 C 0.60363 0.44056 0.7953 0.0
C157 C 0.59594 0.41272 0.79395 0.0
C158 C 0.61183 0.39396 0.78355 0.0
C159 C 0.63522 0.40285 0.77398 0.0
C160 C 0.64125 0.43111 0.77368 0.0
C161 C 0.62563 0.44974 0.78435 0.0
C162 C 0.56928 0.47455 0.80482 0.0
C163 C 0.57007 0.50308 0.80757 0.0
C164 C 0.54674 0.51877 0.8064 0.0
C165 C 0.52191 0.50605 0.80293 0.0
C166 C 0.52155 0.47764 0.79862 0.0
C167 C 0.54509 0.46209 0.7993 0.0
C168 C 0.41807 0.56636 0.84246 0.0
C169 C 0.42496 0.5941 0.84566 0.0
C170 C 0.42079 0.60625 0.86409 0.0
C171 C 0.40959 0.59101 0.8797 0.0
C172 C 0.40321 0.56313 0.87656 0.0
C173 C 0.40743 0.55098 0.8581 0.0
C174 C 0.40282 0.56588 0.80878 0.0
C175 C 0.37753 0.55419 0.80609 0.0
C176 C 0.35837 0.56752 0.79459 0.0
C177 C 0.36409 0.59306 0.78582 0.0
C178 C 0.38983 0.60427 0.78775 0.0
C179 C 0.40927 0.59051 0.7989 0.0
C180 C 0.44664 0.54558 0.8163 0.0
C181 C 0.47031 0.55347 0.82605 0.0
C182 C 0.49475 0.5415 0.82107 0.0
C183 C 0.49647 0.52154 0.80605 0.0
C184 C 0.47313 0.51482 0.79554 0.0
C185 C 0.44854 0.52649 0.80076 0.0
H186 H 0.44518 0.90616 0.0775 0.0
N187 N 0.42801 0.95013 0.05549 0.0
H188 H 0.43276 0.8955 0.11141 0.0
H189 H 0.39741 0.98011 0.07955 0.0
H190 H 0.38463 0.96936 0.11377 0.0
H191 H 0.37981 0.93199 0.04599 0.0
H192 H 0.36843 0.88665 0.03325 0.0
H193 H 0.46347 0.91491 0.03594 0.0
H194 H 0.45216 0.87025 0.02268 0.0
H195 H 0.47904 0.93436 0.0657 0.0
H196 H 0.43276 0.00016 0.03994 0.0
H197 H 0.51892 0.9624 0.06401 0.0
H198 H 0.47263 0.02936 0.0393 0.0
H199 H 0.63526 0.07238 0.08091 0.0
H200 H 0.64282 0.09162 0.11387 0.0
H201 H 0.55873 0.1114 0.1183 0.0
H202 H 0.55158 0.09285 0.08526 0.0
H203 H 0.55628 0.11509 0.05403 0.0
H204 H 0.56822 0.15756 0.03694 0.0
H205 H 0.64326 0.12098 0.01908 0.0
H206 H 0.63144 0.07879 0.03692 0.0
H207 H 0.57501 0.02935 0.08413 0.0
H208 H 0.53665 -0.00056 0.08111 0.0
H209 H 0.51573 0.03871 0.02591 0.0
N210 N 0.5897 0.07124 0.06059 0.0
H211 H 0.55341 0.06963 0.02936 0.0
C212 C 0.42234 0.94418 0.07599 0.0
C213 C 0.43242 0.92043 0.08536 0.0
C214 C 0.42528 0.91432 0.10479 0.0
C215 C 0.40778 0.93164 0.11525 0.0
C216 C 0.39802 0.95557 0.106 0.0
C217 C 0.40537 0.9618 0.08656 0.0
C218 C 0.42244 0.92694 0.04266 0.0
C219 C 0.39567 0.91891 0.04042 0.0
C220 C 0.3892 0.89291 0.03307 0.0
C221 C 0.40946 0.87444 0.02741 0.0
C222 C 0.43611 0.88361 0.02756 0.0
C223 C 0.44261 0.90949 0.03519 0.0
C224 C 0.45272 0.96504 0.05271 0.0
C225 C 0.4774 0.9548 0.05951 0.0
C226 C 0.5003 0.9711 0.05875 0.0
C227 C 0.49905 0.99839 0.05179 0.0
C228 C 0.4745 0.00836 0.04454 0.0
C229 C 0.45164 0.99177 0.04495 0.0
C230 C 0.59298 0.08107 0.08063 0.0
C231 C 0.6185 0.08072 0.08911 0.0
C232 C 0.62271 0.09161 0.10795 0.0
C233 C 0.60137 0.10309 0.11873 0.0
C234 C 0.57568 0.10312 0.11029 0.0
C235 C 0.57153 0.09237 0.09142 0.0
C236 C 0.5932 0.09383 0.04692 0.0
C237 C 0.57507 0.11602 0.04615 0.0
C238 C 0.58186 0.14025 0.0362 0.0
C239 C 0.60687 0.14279 0.02686 0.0
C240 C 0.62404 0.11983 0.02642 0.0
C241 C 0.61725 0.09564 0.03642 0.0
C242 C 0.56667 0.05329 0.05778 0.0
C243 C 0.56196 0.03206 0.07152 0.0
C244 C 0.54012 0.0145 0.06958 0.0
C245 C 0.5228 0.01675 0.05333 0.0
C246 C 0.52818 0.0369 0.03892 0.0
C247 C 0.54992 0.05481 0.041 0.0
H248 H 0.14343 0.5204 0.92536 0.0
N249 N 0.09876 0.52618 0.946 0.0
H250 H 0.1548 0.54192 0.8937 0.0
H251 H 0.06528 0.55774 0.9232 0.0
H252 H 0.07652 0.57956 0.89174 0.0
H253 H 0.08397 0.5795 0.95373 0.0
H254 H 0.10565 0.61023 0.97741 0.0
H255 H 0.13229 0.51186 0.97445 0.0
H256 H 0.15392 0.54236 0.99829 0.0
H257 H 0.09534 0.4722 0.94196 0.0
H258 H 0.04855 0.54416 0.95596 0.0
H259 H 0.05556 0.44333 0.94527 0.0
H260 H 0.00859 0.51544 0.95949 0.0
H261 H 0.95809 0.36087 0.93036 0.0
H262 H 0.94654 0.34728 0.8966 0.0
H263 H 0.8939 0.41771 0.89212 0.0
H264 H 0.90474 0.43038 0.92592 0.0
H265 H 0.90617 0.44692 0.9592 0.0
H266 H 0.86547 0.44454 0.9789 0.0
H267 H 0.88352 0.35995 0.99382 0.0
H268 H 0.9238 0.36225 0.97333 0.0
H269 H 0.98564 0.3955 0.96904 0.0
H270 H 0.0241 0.42665 0.97035 0.0
H271 H 0.97927 0.48773 0.93776 0.0
N272 N 0.93962 0.40356 0.95067 0.0
H273 H 0.94102 0.4568 0.93678 0.0
C274 C 0.10359 0.53729 0.92658 0.0
C275 C 0.12867 0.53302 0.91792 0.0
C276 C 0.13517 0.5455 0.89997 0.0
C277 C 0.1166 0.56257 0.8903 0.0
C278 C 0.09116 0.56632 0.89875 0.0
C279 C 0.08471 0.55387 0.91678 0.0
C280 C 0.10695 0.54343 0.96216 0.0
C281 C 0.09877 0.57109 0.96369 0.0
C282 C 0.11115 0.58865 0.97723 0.0
C283 C 0.13159 0.57874 0.98958 0.0
C284 C 0.13806 0.55056 0.98911 0.0
C285 C 0.12587 0.53312 0.97546 0.0
C286 C 0.07489 0.51016 0.94867 0.0
C287 C 0.07645 0.48167 0.94589 0.0
C288 C 0.05377 0.46525 0.94793 0.0
C289 C 0.02896 0.47711 0.95275 0.0
C290 C 0.02741 0.50576 0.95564 0.0
C291 C 0.05023 0.52219 0.95367 0.0
C292 C 0.93243 0.39657 0.93069 0.0
C293 C 0.94405 0.37328 0.92203 0.0
C294 C 0.93755 0.3657 0.90272 0.0
C295 C 0.91931 0.38144 0.89161 0.0
C296 C 0.90773 0.40489 0.90032 0.0
C297 C 0.91413 0.41234 0.91967 0.0
C298 C 0.91786 0.40452 0.96458 0.0
C299 C 0.90161 0.42795 0.96685 0.0
C300 C 0.87838 0.42664 0.9783 0.0
C301 C 0.87106 0.40194 0.98776 0.0
C302 C 0.8883 0.37912 0.98643 0.0
C303 C 0.91138 0.38042 0.97487 0.0
C304 C 0.96055 0.42365 0.95281 0.0
C305 C 0.98407 0.41579 0.96246 0.0
C306 C 0.006 0.43351 0.96307 0.0
C307 C 0.00477 0.45955 0.954 0.0
C308 C 0.98076 0.4679 0.94502 0.0
C309 C 0.95884 0.45011 0.9444 0.0
H310 H 0.52338 0.35064 0.17104 0.0
N311 N 0.52141 0.39397 0.19477 0.0
H312 H 0.5433 0.34774 0.1383 0.0
H313 H 0.54165 0.4373 0.17338 0.0
H314 H 0.55969 0.43526 0.13997 0.0
H315 H 0.57229 0.41234 0.20159 0.0
H316 H 0.60766 0.3858 0.2177 0.0
H317 H 0.51469 0.35042 0.21781 0.0
H318 H 0.54986 0.3234 0.23354 0.0
H319 H 0.47017 0.40037 0.18679 0.0
H320 H 0.53654 0.44054 0.21525 0.0
H321 H 0.4427 0.44112 0.19182 0.0
H322 H 0.50882 0.48096 0.22142 0.0
H323 H 0.36362 0.58254 0.18616 0.0
H324 H 0.35498 0.59836 0.15263 0.0
H325 H 0.43238 0.56743 0.1345 0.0
H326 H 0.44166 0.55398 0.16813 0.0
H327 H 0.44482 0.60266 0.19404 0.0
H328 H 0.4445 0.64803 0.20956 0.0
H329 H 0.38 0.62211 0.24776 0.0
H330 H 0.38056 0.57656 0.23213 0.0
H331 H 0.39207 0.51115 0.20947 0.0
H332 H 0.41921 0.4696 0.21313 0.0
H333 H 0.49067 0.51816 0.20403 0.0
N334 N 0.40854 0.56153 0.2006 0.0
H335 H 0.46348 0.55951 0.20172 0.0
C336 C 0.53068 0.3941 0.17458 0.0
C337 C 0.53107 0.36919 0.1642 0.0
C338 C 0.54234 0.36769 0.14538 0.0
C339 C 0.55308 0.39132 0.13626 0.0
C340 C 0.55206 0.41652 0.14655 0.0
C341 C 0.54133 0.41784 0.16561 0.0
C342 C 0.54079 0.38324 0.20852 0.0
C343 C 0.56707 0.39351 0.20924 0.0
C344 C 0.58735 0.37813 0.21825 0.0
C345 C 0.58171 0.35225 0.22665 0.0
C346 C 0.55496 0.34332 0.2274 0.0
C347 C 0.53476 0.35872 0.21842 0.0
C348 C 0.50529 0.41721 0.20065 0.0
C349 C 0.47855 0.41778 0.19463 0.0
C350 C 0.46283 0.44112 0.19767 0.0
C351 C 0.47341 0.46452 0.20711 0.0
C352 C 0.50005 0.46354 0.21385 0.0
C353 C 0.51593 0.44022 0.21051 0.0
C354 C 0.40314 0.56695 0.17994 0.0
C355 C 0.37859 0.57899 0.17487 0.0
C356 C 0.37366 0.58786 0.15558 0.0
C357 C 0.393 0.58433 0.14066 0.0
C358 C 0.41719 0.57118 0.14559 0.0
C359 C 0.42241 0.56301 0.165 0.0
C360 C 0.41274 0.58614 0.21207 0.0
C361 C 0.43132 0.60635 0.20626 0.0
C362 C 0.43103 0.63235 0.2151 0.0
C363 C 0.41205 0.63868 0.22975 0.0
C364 C 0.39464 0.61789 0.23635 0.0
C365 C 0.39508 0.59185 0.2276 0.0
C366 C 0.42557 0.53834 0.20507 0.0
C367 C 0.41364 0.51278 0.2087 0.0
C368 C 0.42922 0.48904 0.21057 0.0
C369 C 0.45721 0.49028 0.20846 0.0
C370 C 0.46926 0.51626 0.20592 0.0
C371 C 0.45364 0.54008 0.20446 0.0
H372 H 0.38388 0.97396 0.41625 0.0
N373 N 0.40128 0.95464 0.45067 0.0
H374 H 0.37824 0.94832 0.38533 0.0
H375 H 0.41651 0.90147 0.444 0.0
H376 H 0.41096 0.87568 0.41328 0.0
H377 H 0.3537 0.97568 0.45863 0.0
H378 H 0.31986 0.95699 0.48104 0.0
H379 H 0.40932 0.91304 0.47713 0.0
H380 H 0.37508 0.89336 0.49916 0.0
H381 H 0.4039 0.00387 0.46759 0.0
H382 H 0.45314 0.93741 0.44609 0.0
H383 H 0.44366 0.03179 0.47313 0.0
H384 H 0.49277 0.96583 0.44997 0.0
H385 H 0.56414 0.12185 0.4352 0.0
H386 H 0.57839 0.13025 0.40107 0.0
H387 H 0.58899 0.04275 0.39254 0.0
H388 H 0.57428 0.03451 0.42661 0.0
H389 H 0.60387 0.03774 0.45395 0.0
H390 H 0.64585 0.04383 0.47141 0.0
H391 H 0.61359 0.11558 0.50073 0.0
H392 H 0.57144 0.10952 0.48281 0.0
H393 H 0.51073 0.08695 0.45068 0.0
H394 H 0.47222 0.05664 0.45312 0.0
H395 H 0.52446 0.98902 0.46893 0.0
N396 N 0.5617 0.07396 0.45398 0.0
H397 H 0.56293 0.01921 0.4652 0.0
C398 C 0.40037 0.93961 0.43237 0.0
C399 C 0.39009 0.9526 0.41555 0.0
C400 C 0.38701 0.93797 0.39795 0.0
C401 C 0.39408 0.90996 0.39693 0.0
C402 C 0.40503 0.89714 0.41371 0.0
C403 C 0.40823 0.91186 0.43127 0.0
C404 C 0.38365 0.94547 0.46606 0.0
C405 C 0.35866 0.95815 0.46783 0.0
C406 C 0.33947 0.9475 0.48066 0.0
C407 C 0.34488 0.92368 0.49176 0.0
C408 C 0.37043 0.91166 0.49067 0.0
C409 C 0.38988 0.92275 0.47806 0.0
C410 C 0.42541 0.96881 0.45612 0.0
C411 C 0.42335 0.99527 0.46417 0.0
C412 C 0.44612 0.01131 0.46708 0.0
C413 C 0.4715 0.00145 0.4615 0.0
C414 C 0.47367 0.9742 0.45451 0.0
C415 C 0.45087 0.95791 0.45207 0.0
C416 C 0.56833 0.07772 0.43344 0.0
C417 C 0.56924 0.10452 0.42585 0.0
C418 C 0.57728 0.10923 0.4064 0.0
C419 C 0.58483 0.08713 0.39421 0.0
C420 C 0.58349 0.06015 0.4017 0.0
C421 C 0.5751 0.05544 0.42113 0.0
C422 C 0.58443 0.07334 0.46703 0.0
C423 C 0.60542 0.05434 0.4645 0.0
C424 C 0.6295 0.05779 0.4746 0.0
C425 C 0.63313 0.08035 0.48732 0.0
C426 C 0.61149 0.0982 0.49084 0.0
C427 C 0.58737 0.09467 0.48075 0.0
C428 C 0.53968 0.05561 0.45783 0.0
C429 C 0.51377 0.06564 0.45489 0.0
C430 C 0.49175 0.04824 0.45647 0.0
C431 C 0.49505 0.02025 0.46137 0.0
C432 C 0.52109 0.01032 0.46488 0.0
C433 C 0.54323 0.02774 0.46293 0.0
H434 H 0.06804 0.89312 0.6779 0.0
N435 N 0.01514 0.89073 0.68893 0.0
H436 H 0.08594 0.88685 0.64488 0.0
H437 H 0.98815 0.87981 0.656 0.0
H438 H 0.00617 0.87299 0.62261 0.0
H439 H 0.05894 0.90171 0.71207 0.0
H440 H 0.08125 0.8689 0.73417 0.0
H441 H 0.99734 0.84195 0.70031 0.0
H442 H 0.0191 0.80936 0.72276 0.0
H443 H 0.96889 0.90805 0.70371 0.0
H444 H 0.04663 0.93682 0.68564 0.0
H445 H 0.95399 0.95568 0.70796 0.0
H446 H 0.03161 0.98403 0.68827 0.0
H447 H 0.90511 0.08657 0.66937 0.0
H448 H 0.88523 0.09016 0.63688 0.0
H449 H 0.96312 0.07837 0.61024 0.0
H450 H 0.98317 0.07714 0.64317 0.0
H451 H 0.97271 0.13547 0.67702 0.0
H452 H 0.95094 0.17384 0.69357 0.0
H453 H 0.89969 0.11668 0.72478 0.0
H454 H 0.9209 0.07842 0.70722 0.0
H455 H 0.92644 0.0375 0.6795 0.0
H456 H 0.94088 0.99106 0.68739 0.0
H457 H 0.01808 0.02259 0.70527 0.0
N458 N 0.95866 0.08311 0.67785 0.0
H459 H 0.0039 0.06889 0.69568 0.0
C460 C 0.02657 0.8867 0.66953 0.0
C461 C 0.05427 0.88859 0.66607 0.0
C462 C 0.06457 0.88492 0.64709 0.0
C463 C 0.04751 0.87926 0.63112 0.0
C464 C 0.01982 0.87756 0.63457 0.0
C465 C 0.00951 0.88125 0.65361 0.0
C466 C 0.02658 0.87403 0.70436 0.0
C467 C 0.04997 0.88173 0.71449 0.0
C468 C 0.0627 0.86301 0.7271 0.0
C469 C 0.05192 0.83661 0.73011 0.0
C470 C 0.02772 0.82965 0.72086 0.0
C471 C 0.01531 0.84816 0.70803 0.0
C472 C 0.00856 0.91879 0.69394 0.0
C473 C 0.98278 0.92468 0.7008 0.0
C474 C 0.97426 0.95194 0.70301 0.0
C475 C 0.99132 0.97395 0.69805 0.0
C476 C 0.01781 0.96787 0.69241 0.0
C477 C 0.02644 0.94063 0.69061 0.0
C478 C 0.94589 0.08242 0.65872 0.0
C479 C 0.91802 0.08498 0.65659 0.0
C480 C 0.90654 0.08657 0.63785 0.0
C481 C 0.9225 0.08483 0.62074 0.0
C482 C 0.95021 0.0806 0.62298 0.0
C483 C 0.96174 0.07965 0.64178 0.0
C484 C 0.94864 0.10418 0.69092 0.0
C485 C 0.9572 0.13124 0.68779 0.0
C486 C 0.94472 0.15315 0.69737 0.0
C487 C 0.92345 0.14848 0.7106 0.0
C488 C 0.91573 0.12111 0.71451 0.0
C489 C 0.9281 0.09913 0.70468 0.0
C490 C 0.96448 0.05656 0.68641 0.0
C491 C 0.9464 0.03447 0.68524 0.0
C492 C 0.95468 0.0078 0.69004 0.0
C493 C 0.98097 0.00274 0.6966 0.0
C494 C 0.99803 0.02542 0.69962 0.0
C495 C 0.9899 0.05198 0.69438 0.0
C496 C 0.25677 0.66672 0.01843 0.0
O497 O 0.26649 0.66025 0.03584 0.0
O498 O 0.32221 0.6587 0.0341 0.0
Zn499 Zn 0.31241 0.67732 0.0084 0.0
O500 O 0.3278 0.65588 0.98558 0.0
C501 C 0.34653 0.72449 0.01533 0.0
O502 O 0.36135 0.70606 0.02438 0.0
O503 O 0.27247 0.67555 0.00506 0.0
C504 C 0.35021 0.66032 0.97731 0.0
O505 O 0.36557 0.68021 0.98391 0.0
C506 C 0.34438 0.64673 0.03736 0.0
O507 O 0.36297 0.64667 0.02364 0.0
O508 O 0.32461 0.71701 0.00753 0.0
C509 C 0.29903 0.88061 0.26092 0.0
O510 O 0.31904 0.89718 0.26496 0.0
O511 O 0.35634 0.86521 0.22531 0.0
Zn512 Zn 0.34287 0.84694 0.25005 0.0
O513 O 0.36308 0.86123 0.27354 0.0
C514 C 0.36971 0.79428 0.25114 0.0
O515 O 0.39016 0.8096 0.25633 0.0
O516 O 0.30404 0.85691 0.25382 0.0
C517 C 0.35911 0.85049 0.2904 0.0
O518 O 0.34292 0.82928 0.29186 0.0
C519 C 0.38107 0.86997 0.22272 0.0
O520 O 0.39817 0.86287 0.23653 0.0
O521 O 0.34728 0.80573 0.24783 0.0
C522 C 0.21209 0.8431 0.51502 0.0
O523 O 0.19464 0.8596 0.52344 0.0
O524 O 0.14628 0.82718 0.52952 0.0
Zn525 Zn 0.16393 0.81617 0.50388 0.0
O526 O 0.15167 0.83845 0.48053 0.0
C527 C 0.17095 0.75655 0.50129 0.0
O528 O 0.19558 0.76157 0.50696 0.0
O529 O 0.20367 0.82182 0.50605 0.0
C530 C 0.12888 0.83607 0.47243 0.0
O531 O 0.11109 0.81937 0.48021 0.0
C532 C 0.12669 0.84362 0.53164 0.0
O533 O 0.11637 0.85573 0.51605 0.0
O534 O 0.15486 0.77652 0.49885 0.0
C535 C 0.22398 0.64033 0.74404 0.0
O536 O 0.20927 0.62916 0.73014 0.0
O537 O 0.15684 0.63884 0.73487 0.0
Zn538 Zn 0.1726 0.66061 0.75737 0.0
O539 O 0.15927 0.64428 0.78297 0.0
C540 C 0.14107 0.70977 0.76337 0.0
O541 O 0.12745 0.69318 0.77493 0.0
O542 O 0.21288 0.65577 0.75685 0.0
C543 C 0.1371 0.63157 0.78412 0.0
O544 O 0.12188 0.62981 0.76836 0.0
C545 C 0.14115 0.64841 0.72181 0.0
O546 O 0.13345 0.67424 0.72285 0.0
O547 O 0.16191 0.70069 0.75476 0.0
C548 C 0.78066 0.13672 0.5032 0.0
O549 O 0.79752 0.11702 0.50791 0.0
O550 O 0.84826 0.14655 0.51783 0.0
Zn551 Zn 0.82899 0.16827 0.49678 0.0
O552 O 0.84212 0.15724 0.46968 0.0
C553 C 0.85642 0.2189 0.50714 0.0
O554 O 0.87695 0.20235 0.50943 0.0
O555 O 0.78968 0.16018 0.49819 0.0
C556 C 0.86028 0.16987 0.46014 0.0
O557 O 0.87153 0.19171 0.46793 0.0
C558 C 0.87258 0.13931 0.51611 0.0
O559 O 0.88576 0.14545 0.4999 0.0
O560 O 0.83408 0.20902 0.50172 0.0
C561 C 0.77015 0.33746 0.73675 0.0
O562 O 0.78324 0.34098 0.7201 0.0
O563 O 0.83365 0.36035 0.73098 0.0
Zn564 Zn 0.82351 0.33306 0.75222 0.0
O565 O 0.83549 0.3463 0.77917 0.0
C566 C 0.8634 0.29548 0.7386 0.0
O567 O 0.87503 0.31896 0.73429 0.0
O568 O 0.78317 0.33174 0.75237 0.0
C569 C 0.85886 0.34231 0.78599 0.0
O570 O 0.8766 0.32936 0.77513 0.0
C571 C 0.85292 0.37739 0.73074 0.0
O572 O 0.86942 0.37858 0.7458 0.0
O573 O 0.8401 0.29576 0.74616 0.0
C574 C 0.71986 0.37107 0.0171 0.0
O575 O 0.70881 0.39067 0.02767 0.0
O576 O 0.64762 0.3625 0.03426 0.0
Zn577 Zn 0.66506 0.34918 0.00928 0.0
O578 O 0.65097 0.37066 0.98613 0.0
C579 C 0.67189 0.2913 0.01469 0.0
O580 O 0.69369 0.30015 0.02343 0.0
O581 O 0.70524 0.35283 0.0091 0.0
C582 C 0.63732 0.35972 0.97241 0.0
O583 O 0.6313 0.33343 0.97352 0.0
C584 C 0.6451 0.3873 0.03995 0.0
O585 O 0.65532 0.40742 0.0294 0.0
O586 O 0.65611 0.30875 0.00692 0.0
C587 C 0.72416 0.13678 0.26213 0.0
O588 O 0.7099 0.11614 0.25533 0.0
O589 O 0.6622 0.14356 0.23788 0.0
Zn590 Zn 0.67235 0.16102 0.26383 0.0
O591 O 0.65444 0.14085 0.28619 0.0
C592 C 0.66693 0.2197 0.25366 0.0
O593 O 0.68568 0.21489 0.24049 0.0
O594 O 0.71232 0.15896 0.26699 0.0
C595 C 0.62986 0.14582 0.28942 0.0
O596 O 0.61708 0.16275 0.27757 0.0
C597 C 0.64367 0.15281 0.22688 0.0
O598 O 0.63001 0.17452 0.23258 0.0
O599 O 0.6593 0.20028 0.26491 0.0
H600 H 0.18969 0.92962 0.2908 0.0
H601 H 0.15841 0.86413 0.25446 0.0
H602 H 0.20385 0.85052 0.24545 0.0
H603 H 0.25263 0.85678 0.2484 0.0
H604 H 0.28318 0.92382 0.28362 0.0
H605 H 0.23778 0.93757 0.29218 0.0
C606 C 0.19266 0.91272 0.28057 0.0
C607 C 0.17052 0.89796 0.27336 0.0
C608 C 0.21877 0.90522 0.27526 0.0
C609 C 0.17501 0.87567 0.26048 0.0
C610 C 0.20101 0.86793 0.25524 0.0
C611 C 0.24932 0.87442 0.25791 0.0
C612 C 0.27129 0.88916 0.26542 0.0
C613 C 0.22307 0.88243 0.26267 0.0
C614 C 0.26667 0.91211 0.2776 0.0
C615 C 0.24069 0.91999 0.28255 0.0
H616 H 0.10536 0.64649 0.50395 0.0
H617 H 0.17908 0.61716 0.52951 0.0
H618 H 0.20077 0.66079 0.52159 0.0
H619 H 0.19685 0.70941 0.51189 0.0
H620 H 0.12214 0.73947 0.48825 0.0
H621 H 0.10283 0.69356 0.49104 0.0
C622 C 0.12627 0.64955 0.50758 0.0
C623 C 0.14045 0.62873 0.51752 0.0
C624 C 0.13834 0.67502 0.50362 0.0
C625 C 0.16769 0.63276 0.52175 0.0
C626 C 0.18005 0.65785 0.51743 0.0
C627 C 0.17648 0.70584 0.50705 0.0
C628 C 0.16085 0.72796 0.50019 0.0
C629 C 0.16528 0.67947 0.50904 0.0
C630 C 0.13454 0.7229 0.49384 0.0
C631 C 0.12344 0.69664 0.49543 0.0
H632 H 0.332 0.57646 0.75598 0.0
H633 H 0.34696 0.64447 0.79527 0.0
H634 H 0.30551 0.66681 0.78453 0.0
H635 H 0.26254 0.66406 0.76683 0.0
H636 H 0.24837 0.59623 0.72699 0.0
H637 H 0.29205 0.57695 0.73488 0.0
C638 C 0.32636 0.59643 0.76185 0.0
C639 C 0.34224 0.60879 0.77643 0.0
C640 C 0.30254 0.60903 0.75567 0.0
C641 C 0.335 0.63471 0.78393 0.0
C642 C 0.31123 0.64735 0.77791 0.0
C643 C 0.26919 0.64527 0.75968 0.0
C644 C 0.25203 0.63139 0.74661 0.0
C645 C 0.29444 0.63426 0.76424 0.0
C646 C 0.26109 0.60728 0.73721 0.0
C647 C 0.28605 0.59614 0.74176 0.0
H648 H 0.36605 0.85266 0.00828 0.0
H649 H 0.43826 0.82955 0.03913 0.0
H650 H 0.42583 0.78127 0.03704 0.0
H651 H 0.3931 0.74582 0.02883 0.0
H652 H 0.31981 0.76847 -0.00065 0.0
H653 H 0.33384 0.81669 -0.00111 0.0
C654 C 0.3791 0.83708 0.01452 0.0
C655 C 0.40309 0.84491 0.02382 0.0
C656 C 0.37148 0.80924 0.01378 0.0
C657 C 0.41992 0.82428 0.03154 0.0
C658 C 0.41268 0.79659 0.03059 0.0
C659 C 0.38019 0.76125 0.02224 0.0
C660 C 0.35534 0.75355 0.0143 0.0
C661 C 0.38829 0.78889 0.0221 0.0
C662 C 0.33899 0.77384 0.00568 0.0
C663 C 0.347 0.80142 0.00539 0.0
H664 H 0.15346 0.6258 0.97581 0.0
H665 H 0.14972 0.57415 0.02761 0.0
H666 H 0.1862 0.60028 0.04267 0.0
H667 H 0.22324 0.63299 0.03879 0.0
H668 H 0.22852 0.68239 0.98585 0.0
H669 H 0.18693 0.66238 0.97374 0.0
C670 C 0.16004 0.62082 0.99066 0.0
C671 C 0.14905 0.59801 0.00056 0.0
C672 C 0.18152 0.63532 -0.0011 0.0
C673 C 0.15807 0.59151 0.01966 0.0
C674 C 0.17895 0.60638 0.02823 0.0
C675 C 0.21499 0.63984 0.02481 0.0
C676 C 0.22917 0.65884 0.0131 0.0
C677 C 0.19151 0.6276 0.01764 0.0
C678 C 0.21817 0.66753 0.99503 0.0
C679 C 0.19442 0.65606 0.98807 0.0
H680 H 0.3656 0.66692 0.23312 0.0
H681 H 0.45076 0.67533 0.2409 0.0
H682 H 0.44503 0.72411 0.24906 0.0
H683 H 0.41595 0.76471 0.25243 0.0
H684 H 0.33086 0.75623 0.24365 0.0
H685 H 0.33643 0.70701 0.23764 0.0
C686 C 0.38286 0.67931 0.23697 0.0
C687 C 0.40856 0.66752 0.23651 0.0
C688 C 0.37944 0.70733 0.24133 0.0
C689 C 0.43079 0.68398 0.24109 0.0
C690 C 0.42751 0.71183 0.24575 0.0
C691 C 0.39859 0.75208 0.24933 0.0
C692 C 0.37304 0.7642 0.24842 0.0
C693 C 0.40196 0.72381 0.24565 0.0
C694 C 0.35078 0.7475 0.24435 0.0
C695 C 0.35393 0.71932 0.24092 0.0
H696 H 0.32964 0.87042 0.48892 0.0
H697 H 0.31004 0.94687 0.51791 0.0
H698 H 0.26815 0.92704 0.52999 0.0
H699 H 0.23476 0.89028 0.52845 0.0
H700 H 0.25321 0.81467 0.49776 0.0
H701 H 0.29808 0.83167 0.49048 0.0
C702 C 0.31652 0.88243 0.49836 0.0
C703 C 0.32276 0.91005 0.50249 0.0
C704 C 0.29213 0.87117 0.5047 0.0
C705 C 0.30548 0.92558 0.51448 0.0
C706 C 0.28154 0.9143 0.52131 0.0
C707 C 0.2487 0.87731 0.52043 0.0
C708 C 0.24047 0.85142 0.5134 0.0
C709 C 0.27423 0.88746 0.5159 0.0
C710 C 0.25891 0.83481 0.50317 0.0
C711 C 0.28458 0.84453 0.49897 0.0
H712 H 0.10393 0.82223 0.72579 0.0
H713 H 0.03283 0.80282 0.75906 0.0
H714 H 0.05536 0.76316 0.77392 0.0
H715 H 0.09358 0.73165 0.77489 0.0
H716 H 0.164 0.74961 0.74027 0.0
H717 H 0.14357 0.79243 0.72872 0.0
C718 C 0.09362 0.80965 0.73664 0.0
C719 C 0.06678 0.81534 0.74133 0.0
C720 C 0.10648 0.78651 0.74472 0.0
C721 C 0.05346 0.79868 0.75516 0.0
C722 C 0.06631 0.77602 0.76362 0.0
C723 C 0.10465 0.74507 0.76502 0.0
C724 C 0.1302 0.73728 0.75833 0.0
C725 C 0.09257 0.76933 0.75811 0.0
C726 C 0.14423 0.755 0.74556 0.0
C727 C 0.13255 0.77948 0.73892 0.0
H728 H 0.66167 0.40214 0.73879 0.0
H729 H 0.65485 0.35913 0.79433 0.0
H730 H 0.69475 0.33219 0.78662 0.0
H731 H 0.735 0.32577 0.76628 0.0
H732 H 0.74174 0.36854 0.71057 0.0
H733 H 0.6984 0.39032 0.71602 0.0
C734 C 0.66866 0.38645 0.74897 0.0
C735 C 0.65552 0.38276 0.76714 0.0
C736 C 0.69178 0.3712 0.74453 0.0
C737 C 0.66455 0.36222 0.78018 0.0
C738 C 0.68751 0.34698 0.77587 0.0
C739 C 0.72674 0.33945 0.75517 0.0
C740 C 0.74179 0.34589 0.73824 0.0
C741 C 0.70182 0.35202 0.75842 0.0
C742 C 0.73066 0.36333 0.72381 0.0
C743 C 0.70591 0.37594 0.72695 0.0
H744 H 0.65577 0.1653 0.03236 0.0
H745 H 0.57878 0.18211 0.00629 0.0
H746 H 0.59275 0.22935 -0.00102 0.0
H747 H 0.62577 0.26672 0.00232 0.0
H748 H 0.7024 0.2493 0.02892 0.0
H749 H 0.68976 0.20126 0.03332 0.0
C750 C 0.64223 0.17903 0.02462 0.0
C751 C 0.61626 0.17016 0.01989 0.0
C752 C 0.65027 0.20613 0.02068 0.0
C753 C 0.59881 0.1885 0.01026 0.0
C754 C 0.60679 0.21549 0.00606 0.0
C755 C 0.6398 0.25235 0.00888 0.0
C756 C 0.6649 0.2617 0.01546 0.0
C757 C 0.63229 0.2247 0.0116 0.0
C758 C 0.68287 0.24277 0.02387 0.0
C759 C 0.67567 0.21525 0.02641 0.0
H760 H 0.84777 0.14126 0.28024 0.0
H761 H 0.84333 0.05794 0.25839 0.0
H762 H 0.79554 0.06377 0.25192 0.0
H763 H 0.75483 0.092 0.25367 0.0
H764 H 0.75941 0.17522 0.27588 0.0
H765 H 0.80748 0.17004 0.2808 0.0
C766 C 0.83646 0.12454 0.27372 0.0
C767 C 0.8491 0.09923 0.26974 0.0
C768 C 0.80902 0.12796 0.27022 0.0
C769 C 0.83402 0.07756 0.26169 0.0
C770 C 0.80673 0.0809 0.25798 0.0
C771 C 0.76633 0.10906 0.25952 0.0
C772 C 0.75346 0.13392 0.26448 0.0
C773 C 0.79396 0.1059 0.26241 0.0
C774 C 0.76874 0.15582 0.27199 0.0
C775 C 0.79625 0.15289 0.27481 0.0
H776 H 0.85128 0.34421 0.53135 0.0
H777 H 0.9366 0.33619 0.52399 0.0
H778 H 0.9311 0.28849 0.51327 0.0
H779 H 0.90235 0.24826 0.50817 0.0
H780 H 0.81691 0.25623 0.51492 0.0
H781 H 0.82212 0.30476 0.52374 0.0
C782 C 0.86861 0.33201 0.52726 0.0
C783 C 0.8943 0.34357 0.52854 0.0
C784 C 0.8653 0.30459 0.52118 0.0
C785 C 0.9166 0.32776 0.52297 0.0
C786 C 0.91349 0.30045 0.51699 0.0
C787 C 0.88486 0.26065 0.51151 0.0
C788 C 0.85933 0.24863 0.51113 0.0
C789 C 0.88799 0.28852 0.5164 0.0
C790 C 0.8368 0.26502 0.51517 0.0
C791 C 0.83976 0.29274 0.52025 0.0
H792 H 0.65688 0.13039 0.48768 0.0
H793 H 0.67057 0.04523 0.50294 0.0
H794 H 0.71734 0.05556 0.51045 0.0
H795 H 0.755 0.08814 0.51012 0.0
H796 H 0.7409 0.1731 0.49419 0.0
H797 H 0.69348 0.16352 0.48983 0.0
C798 C 0.66989 0.11419 0.49313 0.0
C799 C 0.66026 0.08708 0.49474 0.0
C800 C 0.69674 0.1202 0.49713 0.0
C801 C 0.67758 0.06624 0.50143 0.0
C802 C 0.7043 0.07213 0.50571 0.0
C803 C 0.74153 0.10462 0.50587 0.0
C804 C 0.75159 0.13123 0.50229 0.0
C805 C 0.71424 0.09892 0.50318 0.0
C806 C 0.73378 0.15237 0.4969 0.0
C807 C 0.70662 0.14693 0.49439 0.0
H808 H 0.94334 0.19801 0.72245 0.0
H809 H 0.86938 0.1528 0.71737 0.0
H810 H 0.84431 0.19367 0.72727 0.0
H811 H 0.84307 0.24358 0.73448 0.0
H812 H 0.91708 0.28913 0.73614 0.0
H813 H 0.94227 0.24706 0.72996 0.0
C814 C 0.92172 0.19703 0.72337 0.0
C815 C 0.90838 0.1723 0.71895 0.0
C816 C 0.90733 0.22088 0.7282 0.0
C817 C 0.88035 0.17137 0.72086 0.0
C818 C 0.86591 0.19487 0.72631 0.0
C819 C 0.86471 0.24418 0.73361 0.0
C820 C 0.87817 0.26944 0.73562 0.0
C821 C 0.87914 0.21992 0.72958 0.0
C822 C 0.90621 0.27 0.73441 0.0
C823 C 0.92067 0.24593 0.73095 0.0
H824 H 0.83716 0.35869 0.98507 0.0
H825 H 0.84477 0.43925 0.01135 0.0
H826 H 0.79898 0.43612 0.02393 0.0
H827 H 0.75591 0.41155 0.0256 0.0
H828 H 0.74901 0.33109 -0.00111 0.0
H829 H 0.79568 0.33293 0.98876 0.0
C830 C 0.82909 0.37534 0.99394 0.0
C831 C 0.8444 0.39916 0.99725 0.0
C832 C 0.80282 0.37346 0.001 0.0
C833 C 0.83331 0.42078 0.0084 0.0
C834 C 0.80717 0.41898 0.01565 0.0
C835 C 0.7647 0.39429 0.01777 0.0
C836 C 0.74888 0.37133 0.01287 0.0
C837 C 0.79157 0.39559 0.01173 0.0
C838 C 0.76062 0.34913 0.00272 0.0
C839 C 0.78733 0.35015 0.99689 0.0
H840 H 0.58392 0.317 0.25809 0.0
H841 H 0.62858 0.34344 0.20688 0.0
H842 H 0.66079 0.30649 0.21209 0.0
H843 H 0.67317 0.2633 0.22866 0.0
H844 H 0.62715 0.23552 0.27887 0.0
H845 H 0.59864 0.27612 0.27646 0.0
C846 C 0.60083 0.31482 0.24818 0.0
C847 C 0.60363 0.33291 0.23205 0.0
C848 C 0.61891 0.29299 0.25089 0.0
C849 C 0.62598 0.33007 0.21956 0.0
C850 C 0.64431 0.3087 0.22238 0.0
C851 C 0.65715 0.2663 0.23925 0.0
C852 C 0.65214 0.24617 0.25374 0.0
C853 C 0.64051 0.28954 0.23763 0.0
C854 C 0.63135 0.25052 0.26742 0.0
C855 C 0.61498 0.27375 0.26606 0.0
H856 H 0.12684 0.89007 0.38798 0.0
H857 H 0.04167 0.88122 0.39656 0.0
H858 H 0.04945 0.8613 0.42915 0.0
H859 H 0.08059 0.84559 0.45508 0.0
H860 H 0.16538 0.85792 0.44708 0.0
H861 H 0.15741 0.87813 0.41465 0.0
C862 C 0.10983 0.88442 0.39705 0.0
C863 C 0.08368 0.88711 0.3896 0.0
C864 C 0.11437 0.87364 0.41598 0.0
C865 C 0.06208 0.87893 0.40161 0.0
C866 C 0.06648 0.86771 0.42037 0.0
C867 C 0.09728 0.85284 0.44626 0.0
C868 C 0.12353 0.85009 0.45344 0.0
C869 C 0.09256 0.86476 0.42765 0.0
C870 C 0.14496 0.85982 0.44194 0.0
C871 C 0.14045 0.87129 0.42334 0.0
H872 H 0.12499 0.56252 0.65303 0.0
H873 H 0.08133 0.63085 0.62802 0.0
H874 H 0.08896 0.65777 0.65793 0.0
H875 H 0.11018 0.66284 0.69041 0.0
H876 H 0.15479 0.59479 0.71503 0.0
H877 H 0.14475 0.56696 0.68603 0.0
C878 C 0.11719 0.58332 0.65413 0.0
C879 C 0.1027 0.59468 0.63831 0.0
C880 C 0.12191 0.59881 0.67126 0.0
C881 C 0.09231 0.6215 0.64007 0.0
C882 C 0.09682 0.63699 0.65712 0.0
C883 C 0.11756 0.64187 0.6895 0.0
C884 C 0.13335 0.63103 0.70483 0.0
C885 C 0.11188 0.62598 0.6727 0.0
C886 C 0.14267 0.60374 0.70343 0.0
C887 C 0.13697 0.58778 0.68682 0.0
H888 H 0.3649 0.58516 0.90215 0.0
H889 H 0.44059 0.62765 0.90014 0.0
H890 H 0.42915 0.65248 0.93038 0.0
H891 H 0.39701 0.66319 0.95678 0.0
H892 H 0.32153 0.62016 0.95878 0.0
H893 H 0.33377 0.59419 0.92933 0.0
C894 C 0.3791 0.5995 0.90849 0.0
C895 C 0.40352 0.60458 0.89885 0.0
C896 C 0.37241 0.61369 0.92586 0.0
C897 C 0.42149 0.62361 0.90712 0.0
C898 C 0.41502 0.63775 0.92445 0.0
C899 C 0.38328 0.64806 0.95083 0.0
C900 C 0.35834 0.64378 0.95995 0.0
C901 C 0.3904 0.63318 0.93383 0.0
C902 C 0.34084 0.62397 0.95207 0.0
C903 C 0.3478 0.60909 0.93519 0.0
H904 H 0.43841 0.91309 0.14561 0.0
H905 H 0.35697 0.93248 0.12991 0.0
H906 H 0.34157 0.91597 0.16209 0.0
H907 H 0.35101 0.89379 0.19394 0.0
H908 H 0.43252 0.87437 0.20964 0.0
H909 H 0.4481 0.89298 0.17815 0.0
C910 C 0.4173 0.91372 0.14927 0.0
C911 C 0.39884 0.92386 0.13539 0.0
C912 C 0.40859 0.90403 0.16772 0.0
C913 C 0.3716 0.92498 0.14042 0.0
C914 C 0.36276 0.91536 0.15875 0.0
C915 C 0.3722 0.89369 0.1905 0.0
C916 C 0.39055 0.8825 0.20406 0.0
C917 C 0.38104 0.9045 0.1724 0.0
C918 C 0.41795 0.8828 0.19946 0.0
C919 C 0.42689 0.89341 0.18144 0.0
H920 H 0.08685 0.56843 0.85686 0.0
H921 H 0.16326 0.58931 0.88228 0.0
H922 H 0.17616 0.61281 0.85184 0.0
H923 H 0.16593 0.62714 0.81798 0.0
H924 H 0.08962 0.6062 0.79235 0.0
H925 H 0.07639 0.58334 0.82298 0.0
C926 C 0.10623 0.57832 0.85577 0.0
C927 C 0.12411 0.57702 0.87177 0.0
C928 C 0.11353 0.59183 0.83822 0.0
C929 C 0.14928 0.58966 0.87007 0.0
C930 C 0.15662 0.60325 0.85271 0.0
C931 C 0.14636 0.61767 0.81909 0.0
C932 C 0.12881 0.6184 0.80287 0.0
C933 C 0.13894 0.60438 0.83668 0.0
C934 C 0.10356 0.60593 0.80458 0.0
C935 C 0.09595 0.59283 0.8221 0.0
H936 H 0.34568 0.5881 0.12041 0.0
H937 H 0.43003 0.60595 0.11492 0.0
H938 H 0.42263 0.62479 0.0821 0.0
H939 H 0.39206 0.63827 0.05539 0.0
H940 H 0.3073 0.62525 0.06244 0.0
H941 H 0.31498 0.60322 0.09444 0.0
C942 C 0.36249 0.59641 0.11224 0.0
C943 C 0.38842 0.59532 0.12032 0.0
C944 C 0.358 0.60836 0.09364 0.0
C945 C 0.4099 0.60575 0.10909 0.0
C946 C 0.40568 0.6169 0.09032 0.0
C947 C 0.37531 0.63047 0.06391 0.0
C948 C 0.34919 0.63326 0.05658 0.0
C949 C 0.3798 0.61849 0.08251 0.0
C950 C 0.3276 0.62341 0.06785 0.0
C951 C 0.33199 0.61077 0.0861 0.0
H952 H 0.40423 0.92496 0.35893 0.0
H953 H 0.37165 0.85895 0.39421 0.0
H954 H 0.35957 0.8338 0.3643 0.0
H955 H 0.35564 0.83196 0.32821 0.0
H956 H 0.38774 0.89826 0.29287 0.0
H957 H 0.40261 0.92186 0.3227 0.0
C958 C 0.39452 0.90505 0.36004 0.0
C959 C 0.38872 0.8939 0.37873 0.0
C960 C 0.38744 0.89081 0.34278 0.0
C961 C 0.37653 0.86788 0.37998 0.0
C962 C 0.36946 0.85357 0.36289 0.0
C963 C 0.36607 0.85147 0.32701 0.0
C964 C 0.37035 0.86341 0.30834 0.0
C965 C 0.37445 0.86502 0.34422 0.0
C966 C 0.38409 0.88861 0.30705 0.0
C967 C 0.39255 0.90219 0.32412 0.0
H968 H 0.09184 0.85011 0.62112 0.0
H969 H 0.02828 0.89891 0.59593 0.0
H970 H 0.04717 0.89236 0.56293 0.0
H971 H 0.08203 0.87301 0.54127 0.0
H972 H 0.14567 0.82454 0.56684 0.0
H973 H 0.12668 0.83115 0.59966 0.0
C974 C 0.08225 0.85954 0.60843 0.0
C975 C 0.05872 0.87503 0.61101 0.0
C976 C 0.09329 0.85585 0.58956 0.0
C977 C 0.04625 0.88665 0.59435 0.0
C978 C 0.05714 0.88306 0.57549 0.0
C979 C 0.09179 0.86397 0.55403 0.0
C980 C 0.11526 0.84832 0.55155 0.0
C981 C 0.08069 0.86773 0.57292 0.0
C982 C 0.12758 0.83666 0.56827 0.0
C983 C 0.11673 0.84041 0.58707 0.0
H984 H 0.61997 0.44257 0.90164 0.0
H985 H 0.58573 0.36964 0.87549 0.0
H986 H 0.59328 0.34411 0.90603 0.0
H987 H 0.61142 0.34182 0.93958 0.0
H988 H 0.64682 0.41434 0.96554 0.0
H989 H 0.63714 0.44058 0.93562 0.0
C990 C 0.61425 0.42106 0.90262 0.0
C991 C 0.60231 0.40807 0.88631 0.0
C992 C 0.61893 0.40637 0.92016 0.0
C993 C 0.59464 0.38028 0.8879 0.0
C994 C 0.59911 0.36559 0.90532 0.0
C995 C 0.61688 0.36341 0.93876 0.0
C996 C 0.62993 0.37602 0.95475 0.0
C997 C 0.61145 0.37835 0.92147 0.0
C998 C 0.63682 0.40405 0.95343 0.0
C999 C 0.63133 0.4191 0.93631 0.0
H1000 H 0.63339 0.08377 0.14825 0.0
H1001 H 0.57969 0.15044 0.1337 0.0
H1002 H 0.58731 0.17109 0.16604 0.0
H1003 H 0.60994 0.17085 0.19816 0.0
H1004 H 0.66491 0.1051 0.21228 0.0
H1005 H 0.65632 0.08372 0.18029 0.0
C1006 C 0.62352 0.10295 0.15207 0.0
C1007 C 0.60595 0.11546 0.13853 0.0
C1008 C 0.62827 0.11494 0.1706 0.0
C1009 C 0.59301 0.14009 0.14391 0.0
C1010 C 0.59748 0.15204 0.16236 0.0
C1011 C 0.61999 0.15179 0.19429 0.0
C1012 C 0.63802 0.13962 0.20762 0.0
C1013 C 0.61512 0.13969 0.1758 0.0
C1014 C 0.65095 0.11496 0.2023 0.0
C1015 C 0.64605 0.1027 0.184 0.0
H1016 H 0.88397 0.11264 0.37843 0.0
H1017 H 0.95361 0.16492 0.38155 0.0
H1018 H 0.93765 0.18412 0.41274 0.0
H1019 H 0.90456 0.18512 0.43957 0.0
H1020 H 0.83616 0.13105 0.43714 0.0
H1021 H 0.85132 0.11314 0.40536 0.0
C1022 C 0.89587 0.12799 0.38602 0.0
C1023 C 0.92002 0.13723 0.37764 0.0
C1024 C 0.88684 0.13856 0.40411 0.0
C1025 C 0.9348 0.15763 0.38751 0.0
C1026 C 0.92578 0.1685 0.40543 0.0
C1027 C 0.8929 0.1695 0.43206 0.0
C1028 C 0.86925 0.15946 0.44071 0.0
C1029 C 0.90189 0.15904 0.41389 0.0
C1030 C 0.85448 0.13909 0.43083 0.0
C1031 C 0.86311 0.12884 0.41265 0.0
H1032 H 0.85868 0.42843 0.6455 0.0
H1033 H 0.94219 0.43359 0.66065 0.0
H1034 H 0.93224 0.41804 0.69429 0.0
H1035 H 0.90027 0.39884 0.71832 0.0
H1036 H 0.81722 0.39094 0.70211 0.0
H1037 H 0.82639 0.41206 0.67009 0.0
C1038 C 0.87459 0.42672 0.65632 0.0
C1039 C 0.90109 0.43214 0.65069 0.0
C1040 C 0.8688 0.41708 0.67539 0.0
C1041 C 0.92164 0.42938 0.66469 0.0
C1042 C 0.91596 0.42049 0.68389 0.0
C1043 C 0.88414 0.40218 0.70789 0.0
C1044 C 0.85815 0.39324 0.71252 0.0
C1045 C 0.88969 0.41364 0.68926 0.0
C1046 C 0.83745 0.39748 0.69882 0.0
C1047 C 0.84266 0.40953 0.6805 0.0
H1048 H 0.56293 0.12009 0.36619 0.0
H1049 H 0.62997 0.06635 0.37721 0.0
H1050 H 0.64928 0.07858 0.34515 0.0
H1051 H 0.64848 0.10692 0.31501 0.0
H1052 H 0.58109 0.16044 0.30404 0.0
H1053 H 0.56056 0.14589 0.33502 0.0
C1054 C 0.58171 0.111 0.36149 0.0
C1055 C 0.59512 0.09253 0.37404 0.0
C1056 C 0.5927 0.11818 0.34312 0.0
C1057 C 0.61923 0.08053 0.36772 0.0
C1058 C 0.63035 0.08763 0.34946 0.0
C1059 C 0.62922 0.11525 0.31933 0.0
C1060 C 0.61649 0.13494 0.3073 0.0
C1061 C 0.61747 0.10679 0.33719 0.0
C1062 C 0.5914 0.14532 0.31303 0.0
C1063 C 0.57964 0.13707 0.33078 0.0
H1064 H 0.94513 0.10994 0.58866 0.0
H1065 H 0.87252 0.06963 0.60773 0.0
H1066 H 0.85083 0.08249 0.57687 0.0
H1067 H 0.85158 0.10772 0.54529 0.0
H1068 H 0.92523 0.14452 0.52523 0.0
H1069 H 0.94766 0.12963 0.55547 0.0
C1070 C 0.9248 0.10324 0.58598 0.0
C1071 C 0.91045 0.08923 0.60083 0.0
C1072 C 0.91257 0.1101 0.56799 0.0
C1073 C 0.88393 0.08116 0.59693 0.0
C1074 C 0.8715 0.08832 0.57919 0.0
C1075 C 0.87261 0.11221 0.5475 0.0
C1076 C 0.88669 0.12741 0.53322 0.0
C1077 C 0.88546 0.10329 0.56479 0.0
C1078 C 0.91399 0.1328 0.53604 0.0
C1079 C 0.92679 0.12442 0.55336 0.0
H1080 H 0.8703 0.38326 0.87405 0.0
H1081 H 0.95266 0.36147 0.86291 0.0
H1082 H 0.94115 0.34737 0.8294 0.0
H1083 H 0.90781 0.34119 0.80328 0.0
H1084 H 0.8257 0.36434 0.814 0.0
H1085 H 0.83719 0.37848 0.84755 0.0
C1086 C 0.88582 0.37576 0.86423 0.0
C1087 C 0.9123 0.37336 0.87107 0.0
C1088 C 0.87915 0.368 0.84488 0.0
C1089 C 0.93204 0.36313 0.85819 0.0
C1090 C 0.92552 0.35523 0.83896 0.0
C1091 C 0.8924 0.34935 0.81293 0.0
C1092 C 0.86592 0.35161 0.80614 0.0
C1093 C 0.89914 0.35751 0.83218 0.0
C1094 C 0.84626 0.36238 0.81883 0.0
C1095 C 0.85279 0.37043 0.83804 0.0
H1096 H 0.5963 0.4202 0.12234 0.0
H1097 H 0.53918 0.35782 0.10528 0.0
H1098 H 0.56304 0.35081 0.07439 0.0
H1099 H 0.60083 0.36122 0.05257 0.0
H1100 H 0.65519 0.42671 0.06763 0.0
H1101 H 0.63119 0.43422 0.09881 0.0
C1102 C 0.58861 0.40548 0.11176 0.0
C1103 C 0.56613 0.38923 0.11649 0.0
C1104 C 0.60195 0.40209 0.09365 0.0
C1105 C 0.55686 0.37006 0.10248 0.0
C1106 C 0.57037 0.36616 0.08466 0.0
C1107 C 0.60734 0.37718 0.06269 0.0
C1108 C 0.62985 0.39318 0.05807 0.0
C1109 C 0.59312 0.38176 0.08024 0.0
C1110 C 0.63788 0.41415 0.07101 0.0
C1111 C 0.62423 0.41837 0.0888 0.0
loop_
_geom_bond_atom_site_label_1
_geom_bond_atom_site_label_2
_geom_bond_distance
_geom_bond_site_symmetry_2
_ccdc_geom_bond_type
H0 C27 0.929 . S
N1 C26 1.433 . S
N1 C32 1.435 . S
N1 C38 1.423 . S
H2 C28 0.930 . S
H3 C31 0.931 . S
H4 C30 0.929 . S
H5 C33 0.930 . S
H6 C34 0.932 . S
H7 C37 0.929 . S
H8 C36 0.931 . S
H9 C39 0.929 . S
H10 C43 0.932 . S
H11 C40 0.931 . S
H12 C42 0.929 . S
H13 C45 0.929 . S
H14 C46 0.930 . S
H15 C48 0.929 . S
H16 C49 0.931 . S
H17 C51 0.930 . S
H18 C52 0.932 . S
H19 C54 0.931 . S
H20 C55 0.929 . S
H21 C57 0.929 . S
H22 C58 0.931 1_455 S
H23 C60 0.929 . S
N24 C44 1.433 . S
N24 C50 1.435 . S
N24 C56 1.423 . S
H25 C61 0.932 . S
C26 N1 1.433 . S
C26 C27 1.363 . S
C26 C31 1.370 . S
C27 H0 0.929 . S
C27 C26 1.363 . S
C27 C28 1.385 . S
C28 H2 0.930 . S
C28 C27 1.385 . S
C28 C29 1.357 . S
C29 C28 1.357 . S
C29 C30 1.406 . S
C30 H4 0.929 . S
C30 C29 1.406 . S
C30 C31 1.391 . S
C31 H3 0.931 . S
C31 C26 1.370 . S
C31 C30 1.391 . S
C32 N1 1.435 . S
C32 C33 1.358 . S
C32 C37 1.371 . S
C33 H5 0.930 . S
C33 C32 1.358 . S
C33 C34 1.405 . S
C34 H6 0.932 . S
C34 C33 1.405 . S
C34 C35 1.383 . S
C35 C34 1.383 . S
C35 C36 1.393 . S
C36 H8 0.931 . S
C36 C35 1.393 . S
C36 C37 1.382 . S
C37 H7 0.929 . S
C37 C32 1.371 . S
C37 C36 1.382 . S
C38 N1 1.423 . S
C38 C39 1.362 . S
C38 C43 1.388 . S
C39 H9 0.929 . S
C39 C38 1.362 . S
C39 C40 1.376 1_565 S
C40 H11 0.931 . S
C40 C39 1.376 1_545 S
C40 C41 1.396 . S
C41 C40 1.396 . S
C41 C42 1.348 1_545 S
C41 C59 1.470 1_455 S
C42 H12 0.929 . S
C42 C41 1.348 1_565 S
C42 C43 1.443 . S
C43 H10 0.932 . S
C43 C38 1.388 . S
C43 C42 1.443 . S
C44 N24 1.433 . S
C44 C45 1.363 . S
C44 C49 1.370 . S
C45 H13 0.929 . S
C45 C44 1.363 . S
C45 C46 1.385 . S
C46 H14 0.930 . S
C46 C45 1.385 . S
C46 C47 1.357 . S
C47 C46 1.357 . S
C47 C48 1.406 . S
C48 H15 0.929 . S
C48 C47 1.406 . S
C48 C49 1.391 . S
C49 H16 0.931 . S
C49 C44 1.370 . S
C49 C48 1.391 . S
C50 N24 1.435 . S
C50 C51 1.358 . S
C50 C55 1.371 . S
C51 H17 0.930 . S
C51 C50 1.358 . S
C51 C52 1.405 . S
C52 H18 0.932 . S
C52 C51 1.405 . S
C52 C53 1.383 . S
C53 C52 1.383 . S
C53 C54 1.393 . S
C54 H19 0.931 . S
C54 C53 1.393 . S
C54 C55 1.382 . S
C55 H20 0.929 . S
C55 C50 1.371 . S
C55 C54 1.382 . S
C56 N24 1.423 . S
C56 C57 1.362 . S
C56 C61 1.388 . S
C57 H21 0.929 . S
C57 C56 1.362 . S
C57 C58 1.376 . S
C58 H22 0.931 1_655 S
C58 C57 1.376 . S
C58 C59 1.396 . S
C59 C41 1.470 1_655 S
C59 C58 1.396 . S
C59 C60 1.350 . S
C60 H23 0.929 . S
C60 C59 1.350 . S
C60 C61 1.443 . S
C61 H25 0.932 . S
C61 C56 1.388 . S
C61 C60 1.443 . S
H62 C89 0.929 . S
N63 C88 1.433 . S
N63 C94 1.435 . S
N63 C100 1.423 . S
H64 C90 0.930 . S
H65 C93 0.931 . S
H66 C92 0.929 . S
H67 C95 0.930 . S
H68 C96 0.932 . S
H69 C99 0.929 . S
H70 C98 0.931 . S
H71 C101 0.929 . S
H72 C105 0.932 . S
H73 C102 0.931 . S
H74 C104 0.929 . S
H75 C107 0.929 . S
H76 C108 0.930 . S
H77 C110 0.929 . S
H78 C111 0.931 . S
H79 C113 0.930 . S
H80 C114 0.932 . S
H81 C116 0.931 . S
H82 C117 0.929 . S
H83 C119 0.929 . S
H84 C120 0.931 . S
H85 C122 0.929 . S
N86 C106 1.433 . S
N86 C112 1.435 . S
N86 C118 1.423 . S
H87 C123 0.932 . S
C88 N63 1.433 . S
C88 C89 1.363 . S
C88 C93 1.370 . S
C89 H62 0.929 . S
C89 C88 1.363 . S
C89 C90 1.385 . S
C90 H64 0.930 . S
C90 C89 1.385 . S
C90 C91 1.357 . S
C91 C90 1.357 . S
C91 C92 1.406 . S
C92 H66 0.929 . S
C92 C91 1.406 . S
C92 C93 1.391 . S
C93 H65 0.931 . S
C93 C88 1.370 . S
C93 C92 1.391 . S
C94 N63 1.435 . S
C94 C95 1.358 . S
C94 C99 1.371 . S
C95 H67 0.930 . S
C95 C94 1.358 . S
C95 C96 1.405 . S
C96 H68 0.932 . S
C96 C95 1.405 . S
C96 C97 1.383 . S
C97 C96 1.383 . S
C97 C98 1.393 . S
C98 H70 0.931 . S
C98 C97 1.393 . S
C98 C99 1.382 . S
C99 H69 0.929 . S
C99 C94 1.371 . S
C99 C98 1.382 . S
C100 N63 1.423 . S
C100 C101 1.362 . S
C100 C105 1.388 . S
C101 H71 0.929 . S
C101 C100 1.362 . S
C101 C102 1.376 1_655 S
C102 H73 0.931 . S
C102 C101 1.376 1_455 S
C102 C103 1.396 . S
C103 C102 1.396 . S
C103 C104 1.348 1_455 S
C103 C121 1.472 . S
C104 H74 0.929 . S
C104 C103 1.348 1_655 S
C104 C105 1.443 . S
C105 H72 0.932 . S
C105 C100 1.388 . S
C105 C104 1.443 . S
C106 N86 1.433 . S
C106 C107 1.363 . S
C106 C111 1.370 . S
C107 H75 0.929 . S
C107 C106 1.363 . S
C107 C108 1.385 . S
C108 H76 0.930 . S
C108 C107 1.385 . S
C108 C109 1.357 . S
C109 C108 1.357 . S
C109 C110 1.406 . S
C110 H77 0.929 . S
C110 C109 1.406 . S
C110 C111 1.391 . S
C111 H78 0.931 . S
C111 C106 1.370 . S
C111 C110 1.391 . S
C112 N86 1.435 . S
C112 C113 1.358 . S
C112 C117 1.371 . S
C113 H79 0.930 . S
C113 C112 1.358 . S
C113 C114 1.405 . S
C114 H80 0.932 . S
C114 C113 1.405 . S
C114 C115 1.383 . S
C115 C114 1.383 . S
C115 C116 1.393 . S
C116 H81 0.931 . S
C116 C115 1.393 . S
C116 C117 1.382 . S
C117 H82 0.929 . S
C117 C112 1.371 . S
C117 C116 1.382 . S
C118 N86 1.423 . S
C118 C119 1.362 . S
C118 C123 1.388 . S
C119 H83 0.929 . S
C119 C118 1.362 . S
C119 C120 1.376 . S
C120 H84 0.931 . S
C120 C119 1.376 . S
C120 C121 1.396 . S
C121 C103 1.472 . S
C121 C120 1.396 . S
C121 C122 1.348 . S
C122 H85 0.929 . S
C122 C121 1.348 . S
C122 C123 1.443 . S
C123 H87 0.932 . S
C123 C118 1.388 . S
C123 C122 1.443 . S
H124 C151 0.929 . S
N125 C150 1.433 . S
N125 C156 1.435 . S
N125 C162 1.423 . S
H126 C152 0.930 . S
H127 C155 0.931 . S
H128 C154 0.929 . S
H129 C157 0.930 . S
H130 C158 0.932 . S
H131 C161 0.929 . S
H132 C160 0.931 . S
H133 C163 0.929 . S
H134 C167 0.932 . S
H135 C164 0.931 . S
H136 C166 0.929 . S
H137 C169 0.929 . S
H138 C170 0.930 . S
H139 C172 0.929 . S
H140 C173 0.931 . S
H141 C175 0.930 . S
H142 C176 0.932 . S
H143 C178 0.931 . S
H144 C179 0.929 . S
H145 C181 0.929 . S
H146 C182 0.931 . S
H147 C184 0.929 . S
N148 C168 1.433 . S
N148 C174 1.435 . S
N148 C180 1.423 . S
H149 C185 0.932 . S
C150 N125 1.433 . S
C150 C151 1.363 . S
C150 C155 1.370 . S
C151 H124 0.929 . S
C151 C150 1.363 . S
C151 C152 1.385 . S
C152 H126 0.930 . S
C152 C151 1.385 . S
C152 C153 1.357 . S
C153 C152 1.357 . S
C153 C154 1.406 . S
C154 H128 0.929 . S
C154 C153 1.406 . S
C154 C155 1.391 . S
C155 H127 0.931 . S
C155 C150 1.370 . S
C155 C154 1.391 . S
C156 N125 1.435 . S
C156 C157 1.358 . S
C156 C161 1.371 . S
C157 H129 0.930 . S
C157 C156 1.358 . S
C157 C158 1.405 . S
C158 H130 0.932 . S
C158 C157 1.405 . S
C158 C159 1.383 . S
C159 C158 1.383 . S
C159 C160 1.393 . S
C160 H132 0.931 . S
C160 C159 1.393 . S
C160 C161 1.382 . S
C161 H131 0.929 . S
C161 C156 1.371 . S
C161 C160 1.382 . S
C162 N125 1.423 . S
C162 C163 1.362 . S
C162 C167 1.388 . S
C163 H133 0.929 . S
C163 C162 1.362 . S
C163 C164 1.376 . S
C164 H135 0.931 . S
C164 C163 1.376 . S
C164 C165 1.396 . S
C165 C164 1.396 . S
C165 C166 1.348 . S
C165 C183 1.472 . S
C166 H136 0.929 . S
C166 C165 1.348 . S
C166 C167 1.443 . S
C167 H134 0.932 . S
C167 C162 1.388 . S
C167 C166 1.443 . S
C168 N148 1.433 . S
C168 C169 1.363 . S
C168 C173 1.370 . S
C169 H137 0.929 . S
C169 C168 1.363 . S
C169 C170 1.385 . S
C170 H138 0.930 . S
C170 C169 1.385 . S
C170 C171 1.357 . S
C171 C170 1.357 . S
C171 C172 1.406 . S
C172 H139 0.929 . S
C172 C171 1.406 . S
C172 C173 1.391 . S
C173 H140 0.931 . S
C173 C168 1.370 . S
C173 C172 1.391 . S
C174 N148 1.435 . S
C174 C175 1.358 . S
C174 C179 1.371 . S
C175 H141 0.930 . S
C175 C174 1.358 . S
C175 C176 1.405 . S
C176 H142 0.932 . S
C176 C175 1.405 . S
C176 C177 1.383 . S
C177 C176 1.383 . S
C177 C178 1.393 . S
C178 H143 0.931 . S
C178 C177 1.393 . S
C178 C179 1.382 . S
C179 H144 0.929 . S
C179 C174 1.371 . S
C179 C178 1.382 . S
C180 N148 1.423 . S
C180 C181 1.362 . S
C180 C185 1.388 . S
C181 H145 0.929 . S
C181 C180 1.362 . S
C181 C182 1.376 . S
C182 H146 0.931 . S
C182 C181 1.376 . S
C182 C183 1.396 . S
C183 C165 1.472 . S
C183 C182 1.396 . S
C183 C184 1.348 . S
C184 H147 0.929 . S
C184 C183 1.348 . S
C184 C185 1.443 . S
C185 H149 0.932 . S
C185 C180 1.388 . S
C185 C184 1.443 . S
H186 C213 0.929 . S
N187 C212 1.433 . S
N187 C218 1.435 . S
N187 C224 1.423 . S
H188 C214 0.930 . S
H189 C217 0.931 . S
H190 C216 0.929 . S
H191 C219 0.930 . S
H192 C220 0.932 . S
H193 C223 0.929 . S
H194 C222 0.931 . S
H195 C225 0.929 . S
H196 C229 0.932 . S
H197 C226 0.931 . S
H198 C228 0.929 . S
H199 C231 0.929 . S
H200 C232 0.930 . S
H201 C234 0.929 . S
H202 C235 0.931 . S
H203 C237 0.930 . S
H204 C238 0.932 . S
H205 C240 0.931 . S
H206 C241 0.929 . S
H207 C243 0.929 . S
H208 C244 0.931 1_565 S
H209 C246 0.929 . S
N210 C230 1.433 . S
N210 C236 1.435 . S
N210 C242 1.423 . S
H211 C247 0.932 . S
C212 N187 1.433 . S
C212 C213 1.363 . S
C212 C217 1.370 . S
C213 H186 0.929 . S
C213 C212 1.363 . S
C213 C214 1.385 . S
C214 H188 0.930 . S
C214 C213 1.385 . S
C214 C215 1.357 . S
C215 C214 1.357 . S
C215 C216 1.406 . S
C216 H190 0.929 . S
C216 C215 1.406 . S
C216 C217 1.391 . S
C217 H189 0.931 . S
C217 C212 1.370 . S
C217 C216 1.391 . S
C218 N187 1.435 . S
C218 C219 1.358 . S
C218 C223 1.371 . S
C219 H191 0.930 . S
C219 C218 1.358 . S
C219 C220 1.405 . S
C220 H192 0.932 . S
C220 C219 1.405 . S
C220 C221 1.383 . S
C221 C220 1.383 . S
C221 C222 1.393 . S
C222 H194 0.931 . S
C222 C221 1.393 . S
C222 C223 1.382 . S
C223 H193 0.929 . S
C223 C218 1.371 . S
C223 C222 1.382 . S
C224 N187 1.423 . S
C224 C225 1.362 . S
C224 C229 1.388 . S
C225 H195 0.929 . S
C225 C224 1.362 . S
C225 C226 1.376 . S
C226 H197 0.931 . S
C226 C225 1.376 . S
C226 C227 1.396 . S
C227 C226 1.396 . S
C227 C228 1.348 . S
C227 C245 1.488 . S
C228 H198 0.929 . S
C228 C227 1.348 . S
C228 C229 1.443 . S
C229 H196 0.932 . S
C229 C224 1.388 . S
C229 C228 1.443 . S
C230 N210 1.433 . S
C230 C231 1.363 . S
C230 C235 1.370 . S
C231 H199 0.929 . S
C231 C230 1.363 . S
C231 C232 1.385 . S
C232 H200 0.930 . S
C232 C231 1.385 . S
C232 C233 1.357 . S
C233 C232 1.357 . S
C233 C234 1.406 . S
C234 H201 0.929 . S
C234 C233 1.406 . S
C234 C235 1.391 . S
C235 H202 0.931 . S
C235 C230 1.370 . S
C235 C234 1.391 . S
C236 N210 1.435 . S
C236 C237 1.358 . S
C236 C241 1.371 . S
C237 H203 0.930 . S
C237 C236 1.358 . S
C237 C238 1.405 . S
C238 H204 0.932 . S
C238 C237 1.405 . S
C238 C239 1.383 . S
C239 C238 1.383 . S
C239 C240 1.393 . S
C240 H205 0.931 . S
C240 C239 1.393 . S
C240 C241 1.382 . S
C241 H206 0.929 . S
C241 C236 1.371 . S
C241 C240 1.382 . S
C242 N210 1.423 . S
C242 C243 1.362 . S
C242 C247 1.388 . S
C243 H207 0.929 . S
C243 C242 1.362 . S
C243 C244 1.376 . S
C244 H208 0.931 1_545 S
C244 C243 1.376 . S
C244 C245 1.394 1_545 S
C245 C227 1.488 . S
C245 C244 1.394 1_565 S
C245 C246 1.333 1_565 S
C246 H209 0.929 . S
C246 C245 1.333 1_545 S
C246 C247 1.443 . S
C247 H211 0.932 . S
C247 C242 1.388 . S
C247 C246 1.443 . S
H248 C275 0.929 . S
N249 C274 1.433 . S
N249 C280 1.435 . S
N249 C286 1.423 . S
H250 C276 0.930 . S
H251 C279 0.931 . S
H252 C278 0.929 . S
H253 C281 0.930 . S
H254 C282 0.932 . S
H255 C285 0.929 . S
H256 C284 0.931 1_554 S
H257 C287 0.929 . S
H258 C291 0.932 . S
H259 C288 0.931 . S
H260 C290 0.929 . S
H261 C293 0.929 . S
H262 C294 0.930 . S
H263 C296 0.929 . S
H264 C297 0.931 . S
H265 C299 0.930 . S
H266 C300 0.932 . S
H267 C302 0.931 1_554 S
H268 C303 0.929 . S
H269 C305 0.929 . S
H270 C306 0.931 1_455 S
H271 C308 0.929 . S
N272 C292 1.433 . S
N272 C298 1.435 . S
N272 C304 1.423 . S
H273 C309 0.932 . S
C274 N249 1.433 . S
C274 C275 1.363 . S
C274 C279 1.370 . S
C275 H248 0.929 . S
C275 C274 1.363 . S
C275 C276 1.385 . S
C276 H250 0.930 . S
C276 C275 1.385 . S
C276 C277 1.357 . S
C277 C276 1.357 . S
C277 C278 1.406 . S
C278 H252 0.929 . S
C278 C277 1.406 . S
C278 C279 1.391 . S
C279 H251 0.931 . S
C279 C274 1.370 . S
C279 C278 1.391 . S
C280 N249 1.435 . S
C280 C281 1.358 . S
C280 C285 1.371 . S
C281 H253 0.930 . S
C281 C280 1.358 . S
C281 C282 1.405 . S
C282 H254 0.932 . S
C282 C281 1.405 . S
C282 C283 1.383 . S
C283 C282 1.383 . S
C283 C284 1.393 . S
C284 H256 0.931 1_556 S
C284 C283 1.393 . S
C284 C285 1.382 . S
C285 H255 0.929 . S
C285 C280 1.371 . S
C285 C284 1.382 . S
C286 N249 1.423 . S
C286 C287 1.362 . S
C286 C291 1.388 . S
C287 H257 0.929 . S
C287 C286 1.362 . S
C287 C288 1.376 . S
C288 H259 0.931 . S
C288 C287 1.376 . S
C288 C289 1.396 . S
C289 C288 1.396 . S
C289 C290 1.348 . S
C289 C307 1.470 1_455 S
C290 H260 0.929 . S
C290 C289 1.348 . S
C290 C291 1.443 . S
C291 H258 0.932 . S
C291 C286 1.388 . S
C291 C290 1.443 . S
C292 N272 1.433 . S
C292 C293 1.363 . S
C292 C297 1.370 . S
C293 H261 0.929 . S
C293 C292 1.363 . S
C293 C294 1.385 . S
C294 H262 0.930 . S
C294 C293 1.385 . S
C294 C295 1.357 . S
C295 C294 1.357 . S
C295 C296 1.406 . S
C296 H263 0.929 . S
C296 C295 1.406 . S
C296 C297 1.391 . S
C297 H264 0.931 . S
C297 C292 1.370 . S
C297 C296 1.391 . S
C298 N272 1.435 . S
C298 C299 1.358 . S
C298 C303 1.371 . S
C299 H265 0.930 . S
C299 C298 1.358 . S
C299 C300 1.405 . S
C300 H266 0.932 . S
C300 C299 1.405 . S
C300 C301 1.383 . S
C301 C300 1.383 . S
C301 C302 1.393 . S
C302 H267 0.931 1_556 S
C302 C301 1.393 . S
C302 C303 1.382 . S
C303 H268 0.929 . S
C303 C298 1.371 . S
C303 C302 1.382 . S
C304 N272 1.423 . S
C304 C305 1.362 . S
C304 C309 1.388 . S
C305 H269 0.929 . S
C305 C304 1.362 . S
C305 C306 1.376 . S
C306 H270 0.931 1_655 S
C306 C305 1.376 . S
C306 C307 1.396 . S
C307 C289 1.470 1_655 S
C307 C306 1.396 . S
C307 C308 1.350 . S
C308 H271 0.929 . S
C308 C307 1.350 . S
C308 C309 1.443 . S
C309 H273 0.932 . S
C309 C304 1.388 . S
C309 C308 1.443 . S
H310 C337 0.929 . S
N311 C336 1.433 . S
N311 C342 1.435 . S
N311 C348 1.423 . S
H312 C338 0.930 . S
H313 C341 0.931 . S
H314 C340 0.929 . S
H315 C343 0.930 . S
H316 C344 0.932 . S
H317 C347 0.929 . S
H318 C346 0.931 . S
H319 C349 0.929 . S
H320 C353 0.932 . S
H321 C350 0.931 . S
H322 C352 0.929 . S
H323 C355 0.929 . S
H324 C356 0.930 . S
H325 C358 0.929 . S
H326 C359 0.931 . S
H327 C361 0.930 . S
H328 C362 0.932 . S
H329 C364 0.931 . S
H330 C365 0.929 . S
H331 C367 0.929 . S
H332 C368 0.931 . S
H333 C370 0.929 . S
N334 C354 1.433 . S
N334 C360 1.435 . S
N334 C366 1.423 . S
H335 C371 0.932 . S
C336 N311 1.433 . S
C336 C337 1.363 . S
C336 C341 1.370 . S
C337 H310 0.929 . S
C337 C336 1.363 . S
C337 C338 1.385 . S
C338 H312 0.930 . S
C338 C337 1.385 . S
C338 C339 1.357 . S
C339 C338 1.357 . S
C339 C340 1.406 . S
C340 H314 0.929 . S
C340 C339 1.406 . S
C340 C341 1.391 . S
C341 H313 0.931 . S
C341 C336 1.370 . S
C341 C340 1.391 . S
C342 N311 1.435 . S
C342 C343 1.358 . S
C342 C347 1.371 . S
C343 H315 0.930 . S
C343 C342 1.358 . S
C343 C344 1.405 . S
C344 H316 0.932 . S
C344 C343 1.405 . S
C344 C345 1.383 . S
C345 C344 1.383 . S
C345 C346 1.393 . S
C346 H318 0.931 . S
C346 C345 1.393 . S
C346 C347 1.382 . S
C347 H317 0.929 . S
C347 C342 1.371 . S
C347 C346 1.382 . S
C348 N311 1.423 . S
C348 C349 1.362 . S
C348 C353 1.388 . S
C349 H319 0.929 . S
C349 C348 1.362 . S
C349 C350 1.376 . S
C350 H321 0.931 . S
C350 C349 1.376 . S
C350 C351 1.396 . S
C351 C350 1.396 . S
C351 C352 1.348 . S
C351 C369 1.472 . S
C352 H322 0.929 . S
C352 C351 1.348 . S
C352 C353 1.443 . S
C353 H320 0.932 . S
C353 C348 1.388 . S
C353 C352 1.443 . S
C354 N334 1.433 . S
C354 C355 1.363 . S
C354 C359 1.370 . S
C355 H323 0.929 . S
C355 C354 1.363 . S
C355 C356 1.385 . S
C356 H324 0.930 . S
C356 C355 1.385 . S
C356 C357 1.357 . S
C357 C356 1.357 . S
C357 C358 1.406 . S
C358 H325 0.929 . S
C358 C357 1.406 . S
C358 C359 1.391 . S
C359 H326 0.931 . S
C359 C354 1.370 . S
C359 C358 1.391 . S
C360 N334 1.435 . S
C360 C361 1.358 . S
C360 C365 1.371 . S
C361 H327 0.930 . S
C361 C360 1.358 . S
C361 C362 1.405 . S
C362 H328 0.932 . S
C362 C361 1.405 . S
C362 C363 1.383 . S
C363 C362 1.383 . S
C363 C364 1.393 . S
C364 H329 0.931 . S
C364 C363 1.393 . S
C364 C365 1.382 . S
C365 H330 0.929 . S
C365 C360 1.371 . S
C365 C364 1.382 . S
C366 N334 1.423 . S
C366 C367 1.362 . S
C366 C371 1.388 . S
C367 H331 0.929 . S
C367 C366 1.362 . S
C367 C368 1.376 . S
C368 H332 0.931 . S
C368 C367 1.376 . S
C368 C369 1.396 . S
C369 C351 1.472 . S
C369 C368 1.396 . S
C369 C370 1.348 . S
C370 H333 0.929 . S
C370 C369 1.348 . S
C370 C371 1.443 . S
C371 H335 0.932 . S
C371 C366 1.388 . S
C371 C370 1.443 . S
H372 C399 0.929 . S
N373 C398 1.433 . S
N373 C404 1.435 . S
N373 C410 1.423 . S
H374 C400 0.930 . S
H375 C403 0.931 . S
H376 C402 0.929 . S
H377 C405 0.930 . S
H378 C406 0.932 . S
H379 C409 0.929 . S
H380 C408 0.931 . S
H381 C411 0.929 . S
H382 C415 0.932 . S
H383 C412 0.931 . S
H384 C414 0.929 . S
H385 C417 0.929 . S
H386 C418 0.930 . S
H387 C420 0.929 . S
H388 C421 0.931 . S
H389 C423 0.930 . S
H390 C424 0.932 . S
H391 C426 0.931 . S
H392 C427 0.929 . S
H393 C429 0.929 . S
H394 C430 0.931 . S
H395 C432 0.929 . S
N396 C416 1.433 . S
N396 C422 1.435 . S
N396 C428 1.423 . S
H397 C433 0.932 . S
C398 N373 1.433 . S
C398 C399 1.363 . S
C398 C403 1.370 . S
C399 H372 0.929 . S
C399 C398 1.363 . S
C399 C400 1.385 . S
C400 H374 0.930 . S
C400 C399 1.385 . S
C400 C401 1.357 . S
C401 C400 1.357 . S
C401 C402 1.406 . S
C402 H376 0.929 . S
C402 C401 1.406 . S
C402 C403 1.391 . S
C403 H375 0.931 . S
C403 C398 1.370 . S
C403 C402 1.391 . S
C404 N373 1.435 . S
C404 C405 1.358 . S
C404 C409 1.371 . S
C405 H377 0.930 . S
C405 C404 1.358 . S
C405 C406 1.405 . S
C406 H378 0.932 . S
C406 C405 1.405 . S
C406 C407 1.383 . S
C407 C406 1.383 . S
C407 C408 1.393 . S
C408 H380 0.931 . S
C408 C407 1.393 . S
C408 C409 1.382 . S
C409 H379 0.929 . S
C409 C404 1.371 . S
C409 C408 1.382 . S
C410 N373 1.423 . S
C410 C411 1.362 . S
C410 C415 1.388 . S
C411 H381 0.929 . S
C411 C410 1.362 . S
C411 C412 1.376 1_565 S
C412 H383 0.931 . S
C412 C411 1.376 1_545 S
C412 C413 1.396 . S
C413 C412 1.396 . S
C413 C414 1.348 1_545 S
C413 C431 1.472 . S
C414 H384 0.929 . S
C414 C413 1.348 1_565 S
C414 C415 1.443 . S
C415 H382 0.932 . S
C415 C410 1.388 . S
C415 C414 1.443 . S
C416 N396 1.433 . S
C416 C417 1.363 . S
C416 C421 1.370 . S
C417 H385 0.929 . S
C417 C416 1.363 . S
C417 C418 1.385 . S
C418 H386 0.930 . S
C418 C417 1.385 . S
C418 C419 1.357 . S
C419 C418 1.357 . S
C419 C420 1.406 . S
C420 H387 0.929 . S
C420 C419 1.406 . S
C420 C421 1.391 . S
C421 H388 0.931 . S
C421 C416 1.370 . S
C421 C420 1.391 . S
C422 N396 1.435 . S
C422 C423 1.358 . S
C422 C427 1.371 . S
C423 H389 0.930 . S
C423 C422 1.358 . S
C423 C424 1.405 . S
C424 H390 0.932 . S
C424 C423 1.405 . S
C424 C425 1.383 . S
C425 C424 1.383 . S
C425 C426 1.393 . S
C426 H391 0.931 . S
C426 C425 1.393 . S
C426 C427 1.382 . S
C427 H392 0.929 . S
C427 C422 1.371 . S
C427 C426 1.382 . S
C428 N396 1.423 . S
C428 C429 1.362 . S
C428 C433 1.388 . S
C429 H393 0.929 . S
C429 C428 1.362 . S
C429 C430 1.376 . S
C430 H394 0.931 . S
C430 C429 1.376 . S
C430 C431 1.396 . S
C431 C413 1.472 . S
C431 C430 1.396 . S
C431 C432 1.348 . S
C432 H395 0.929 . S
C432 C431 1.348 . S
C432 C433 1.443 . S
C433 H397 0.932 . S
C433 C428 1.388 . S
C433 C432 1.443 . S
H434 C461 0.929 . S
N435 C460 1.433 . S
N435 C466 1.435 . S
N435 C472 1.423 . S
H436 C462 0.930 . S
H437 C465 0.931 . S
H438 C464 0.929 . S
H439 C467 0.930 . S
H440 C468 0.932 . S
H441 C471 0.929 . S
H442 C470 0.931 . S
H443 C473 0.929 . S
H444 C477 0.932 . S
H445 C474 0.931 . S
H446 C476 0.929 . S
H447 C479 0.929 . S
H448 C480 0.930 . S
H449 C482 0.929 . S
H450 C483 0.931 . S
H451 C485 0.930 . S
H452 C486 0.932 . S
H453 C488 0.931 . S
H454 C489 0.929 . S
H455 C491 0.929 . S
H456 C492 0.931 1_565 S
H457 C494 0.929 . S
N458 C478 1.433 . S
N458 C484 1.435 . S
N458 C490 1.423 . S
H459 C495 0.932 . S
C460 N435 1.433 . S
C460 C461 1.363 . S
C460 C465 1.370 . S
C461 H434 0.929 . S
C461 C460 1.363 . S
C461 C462 1.385 . S
C462 H436 0.930 . S
C462 C461 1.385 . S
C462 C463 1.357 . S
C463 C462 1.357 . S
C463 C464 1.406 . S
C464 H438 0.929 . S
C464 C463 1.406 . S
C464 C465 1.391 . S
C465 H437 0.931 . S
C465 C460 1.370 . S
C465 C464 1.391 . S
C466 N435 1.435 . S
C466 C467 1.358 . S
C466 C471 1.371 . S
C467 H439 0.930 . S
C467 C466 1.358 . S
C467 C468 1.405 . S
C468 H440 0.932 . S
C468 C467 1.405 . S
C468 C469 1.383 . S
C469 C468 1.383 . S
C469 C470 1.393 . S
C470 H442 0.931 . S
C470 C469 1.393 . S
C470 C471 1.382 . S
C471 H441 0.929 . S
C471 C466 1.371 . S
C471 C470 1.382 . S
C472 N435 1.423 . S
C472 C473 1.362 . S
C472 C477 1.388 . S
C473 H443 0.929 . S
C473 C472 1.362 . S
C473 C474 1.376 1_455 S
C474 H445 0.931 . S
C474 C473 1.376 1_655 S
C474 C475 1.396 . S
C475 C474 1.396 . S
C475 C476 1.348 1_655 S
C475 C493 1.488 . S
C476 H446 0.929 . S
C476 C475 1.348 1_455 S
C476 C477 1.443 . S
C477 H444 0.932 . S
C477 C472 1.388 . S
C477 C476 1.443 . S
C478 N458 1.433 . S
C478 C479 1.363 . S
C478 C483 1.370 . S
C479 H447 0.929 . S
C479 C478 1.363 . S
C479 C480 1.385 . S
C480 H448 0.930 . S
C480 C479 1.385 . S
C480 C481 1.357 . S
C481 C480 1.357 . S
C481 C482 1.406 . S
C482 H449 0.929 . S
C482 C481 1.406 . S
C482 C483 1.391 . S
C483 H450 0.931 . S
C483 C478 1.370 . S
C483 C482 1.391 . S
C484 N458 1.435 . S
C484 C485 1.358 . S
C484 C489 1.371 . S
C485 H451 0.930 . S
C485 C484 1.358 . S
C485 C486 1.405 . S
C486 H452 0.932 . S
C486 C485 1.405 . S
C486 C487 1.383 . S
C487 C486 1.383 . S
C487 C488 1.393 . S
C488 H453 0.931 . S
C488 C487 1.393 . S
C488 C489 1.382 . S
C489 H454 0.929 . S
C489 C484 1.371 . S
C489 C488 1.382 . S
C490 N458 1.423 . S
C490 C491 1.362 . S
C490 C495 1.388 . S
C491 H455 0.929 . S
C491 C490 1.362 . S
C491 C492 1.376 . S
C492 H456 0.931 1_545 S
C492 C491 1.376 . S
C492 C493 1.394 1_545 S
C493 C475 1.488 . S
C493 C492 1.394 1_565 S
C493 C494 1.333 1_565 S
C494 H457 0.929 . S
C494 C493 1.333 1_545 S
C494 C495 1.443 . S
C495 H459 0.932 . S
C495 C490 1.388 . S
C495 C494 1.443 . S
C496 O497 1.160 . S
C496 O503 1.185 . S
O497 C496 1.160 . S
O498 Zn499 1.899 . S
O498 C506 1.284 . S
Zn499 O498 1.899 . S
Zn499 O500 2.032 1_554 S
Zn499 O503 2.086 . S
Zn499 O508 1.977 . S
O500 Zn499 2.032 1_556 S
O500 C504 1.278 . S
C501 O502 1.203 . S
C501 O508 1.267 . S
O502 C501 1.203 . S
O503 C496 1.185 . S
O503 Zn499 2.086 . S
C504 O500 1.278 . S
C504 O505 1.211 . S
O505 C504 1.211 . S
C506 O498 1.284 . S
C506 O507 1.273 . S
O507 C506 1.273 . S
O508 Zn499 1.977 . S
O508 C501 1.267 . S
C509 O510 1.160 . S
C509 O516 1.185 . S
O510 C509 1.160 . S
O511 Zn512 1.899 . S
O511 C519 1.284 . S
Zn512 O511 1.899 . S
Zn512 O513 2.032 . S
Zn512 O516 2.086 . S
Zn512 O521 1.977 . S
O513 Zn512 2.032 . S
O513 C517 1.278 . S
C514 O515 1.203 . S
C514 O521 1.267 . S
O515 C514 1.203 . S
O516 C509 1.185 . S
O516 Zn512 2.086 . S
C517 O513 1.278 . S
C517 O518 1.211 . S
O518 C517 1.211 . S
C519 O511 1.284 . S
C519 O520 1.273 . S
O520 C519 1.273 . S
O521 Zn512 1.977 . S
O521 C514 1.267 . S
C522 O523 1.160 . S
C522 O529 1.185 . S
O523 C522 1.160 . S
O524 Zn525 1.899 . S
O524 C532 1.284 . S
Zn525 O524 1.899 . S
Zn525 O526 2.032 . S
Zn525 O529 2.086 . S
Zn525 O534 1.977 . S
O526 Zn525 2.032 . S
O526 C530 1.278 . S
C527 O528 1.203 . S
C527 O534 1.267 . S
O528 C527 1.203 . S
O529 C522 1.185 . S
O529 Zn525 2.086 . S
C530 O526 1.278 . S
C530 O531 1.211 . S
O531 C530 1.211 . S
C532 O524 1.284 . S
C532 O533 1.273 . S
O533 C532 1.273 . S
O534 Zn525 1.977 . S
O534 C527 1.267 . S
C535 O536 1.160 . S
C535 O542 1.185 . S
O536 C535 1.160 . S
O537 Zn538 1.899 . S
O537 C545 1.284 . S
Zn538 O537 1.899 . S
Zn538 O539 2.032 . S
Zn538 O542 2.086 . S
Zn538 O547 1.977 . S
O539 Zn538 2.032 . S
O539 C543 1.278 . S
C540 O541 1.203 . S
C540 O547 1.267 . S
O541 C540 1.203 . S
O542 C535 1.185 . S
O542 Zn538 2.086 . S
C543 O539 1.278 . S
C543 O544 1.211 . S
O544 C543 1.211 . S
C545 O537 1.284 . S
C545 O546 1.273 . S
O546 C545 1.273 . S
O547 Zn538 1.977 . S
O547 C540 1.267 . S
C548 O549 1.160 . S
C548 O555 1.185 . S
O549 C548 1.160 . S
O550 Zn551 1.899 . S
O550 C558 1.284 . S
Zn551 O550 1.899 . S
Zn551 O552 2.032 . S
Zn551 O555 2.086 . S
Zn551 O560 1.977 . S
O552 Zn551 2.032 . S
O552 C556 1.278 . S
C553 O554 1.203 . S
C553 O560 1.267 . S
O554 C553 1.203 . S
O555 C548 1.185 . S
O555 Zn551 2.086 . S
C556 O552 1.278 . S
C556 O557 1.211 . S
O557 C556 1.211 . S
C558 O550 1.284 . S
C558 O559 1.273 . S
O559 C558 1.273 . S
O560 Zn551 1.977 . S
O560 C553 1.267 . S
C561 O562 1.160 . S
C561 O568 1.185 . S
O562 C561 1.160 . S
O563 Zn564 1.899 . S
O563 C571 1.284 . S
Zn564 O563 1.899 . S
Zn564 O565 2.032 . S
Zn564 O568 2.086 . S
Zn564 O573 1.977 . S
O565 Zn564 2.032 . S
O565 C569 1.278 . S
C566 O567 1.203 . S
C566 O573 1.267 . S
O567 C566 1.203 . S
O568 C561 1.185 . S
O568 Zn564 2.086 . S
C569 O565 1.278 . S
C569 O570 1.211 . S
O570 C569 1.211 . S
C571 O563 1.284 . S
C571 O572 1.273 . S
O572 C571 1.273 . S
O573 Zn564 1.977 . S
O573 C566 1.267 . S
C574 O575 1.160 . S
C574 O581 1.185 . S
O575 C574 1.160 . S
O576 Zn577 1.899 . S
O576 C584 1.284 . S
Zn577 O576 1.899 . S
Zn577 O578 2.032 1_554 S
Zn577 O581 2.086 . S
Zn577 O586 1.977 . S
O578 Zn577 2.032 1_556 S
O578 C582 1.278 . S
C579 O580 1.203 . S
C579 O586 1.267 . S
O580 C579 1.203 . S
O581 C574 1.185 . S
O581 Zn577 2.086 . S
C582 O578 1.278 . S
C582 O583 1.211 . S
O583 C582 1.211 . S
C584 O576 1.284 . S
C584 O585 1.273 . S
O585 C584 1.273 . S
O586 Zn577 1.977 . S
O586 C579 1.267 . S
C587 O588 1.160 . S
C587 O594 1.185 . S
O588 C587 1.160 . S
O589 Zn590 1.899 . S
O589 C597 1.284 . S
Zn590 O589 1.899 . S
Zn590 O591 2.032 . S
Zn590 O594 2.086 . S
Zn590 O599 1.977 . S
O591 Zn590 2.032 . S
O591 C595 1.278 . S
C592 O593 1.203 . S
C592 O599 1.267 . S
O593 C592 1.203 . S
O594 C587 1.185 . S
O594 Zn590 2.086 . S
C595 O591 1.278 . S
C595 O596 1.211 . S
O596 C595 1.211 . S
C597 O589 1.284 . S
C597 O598 1.273 . S
O598 C597 1.273 . S
O599 Zn590 1.977 . S
O599 C592 1.267 . S
H600 C606 0.930 . S
H601 C609 0.930 . S
H602 C610 0.930 . S
H603 C611 0.930 . S
H604 C614 0.930 . S
H605 C615 0.930 . S
C606 H600 0.930 . S
C606 C607 1.355 . S
C606 C608 1.415 . S
C607 C606 1.355 . S
C607 C609 1.419 . S
C608 C606 1.415 . S
C608 C613 1.425 . S
C608 C615 1.409 . S
C609 H601 0.930 . S
C609 C607 1.419 . S
C609 C610 1.362 . S
C610 H602 0.930 . S
C610 C609 1.362 . S
C610 C613 1.409 . S
C611 H603 0.930 . S
C611 C612 1.355 . S
C611 C613 1.415 . S
C612 C611 1.355 . S
C612 C614 1.419 . S
C613 C608 1.425 . S
C613 C610 1.409 . S
C613 C611 1.415 . S
C614 H604 0.930 . S
C614 C612 1.419 . S
C614 C615 1.362 . S
C615 H605 0.930 . S
C615 C608 1.409 . S
C615 C614 1.362 . S
H616 C622 0.930 . S
H617 C625 0.930 . S
H618 C626 0.930 . S
H619 C627 0.930 . S
H620 C630 0.930 . S
H621 C631 0.930 . S
C622 H616 0.930 . S
C622 C623 1.355 . S
C622 C624 1.415 . S
C623 C622 1.355 . S
C623 C625 1.419 . S
C624 C622 1.415 . S
C624 C629 1.425 . S
C624 C631 1.409 . S
C625 H617 0.930 . S
C625 C623 1.419 . S
C625 C626 1.362 . S
C626 H618 0.930 . S
C626 C625 1.362 . S
C626 C629 1.409 . S
C627 H619 0.930 . S
C627 C628 1.355 . S
C627 C629 1.415 . S
C628 C627 1.355 . S
C628 C630 1.419 . S
C629 C624 1.425 . S
C629 C626 1.409 . S
C629 C627 1.415 . S
C630 H620 0.930 . S
C630 C628 1.419 . S
C630 C631 1.362 . S
C631 H621 0.930 . S
C631 C624 1.409 . S
C631 C630 1.362 . S
H632 C638 0.930 . S
H633 C641 0.930 . S
H634 C642 0.930 . S
H635 C643 0.930 . S
H636 C646 0.930 . S
H637 C647 0.930 . S
C638 H632 0.930 . S
C638 C639 1.355 . S
C638 C640 1.415 . S
C639 C638 1.355 . S
C639 C641 1.419 . S
C640 C638 1.415 . S
C640 C645 1.425 . S
C640 C647 1.409 . S
C641 H633 0.930 . S
C641 C639 1.419 . S
C641 C642 1.362 . S
C642 H634 0.930 . S
C642 C641 1.362 . S
C642 C645 1.409 . S
C643 H635 0.930 . S
C643 C644 1.355 . S
C643 C645 1.415 . S
C644 C643 1.355 . S
C644 C646 1.419 . S
C645 C640 1.425 . S
C645 C642 1.409 . S
C645 C643 1.415 . S
C646 H636 0.930 . S
C646 C644 1.419 . S
C646 C647 1.362 . S
C647 H637 0.930 . S
C647 C640 1.409 . S
C647 C646 1.362 . S
H648 C654 0.930 . S
H649 C657 0.930 . S
H650 C658 0.930 . S
H651 C659 0.930 . S
H652 C662 0.938 . S
H653 C663 0.930 1_556 S
C654 H648 0.930 . S
C654 C655 1.355 . S
C654 C656 1.415 . S
C655 C654 1.355 . S
C655 C657 1.419 . S
C656 C654 1.415 . S
C656 C661 1.425 . S
C656 C663 1.409 . S
C657 H649 0.930 . S
C657 C655 1.419 . S
C657 C658 1.362 . S
C658 H650 0.930 . S
C658 C657 1.362 . S
C658 C661 1.409 . S
C659 H651 0.930 . S
C659 C660 1.355 . S
C659 C661 1.415 . S
C660 C659 1.355 . S
C660 C662 1.419 . S
C661 C656 1.425 . S
C661 C658 1.409 . S
C661 C659 1.415 . S
C662 H652 0.938 . S
C662 C660 1.419 . S
C662 C663 1.362 . S
C663 H653 0.930 1_554 S
C663 C656 1.409 . S
C663 C662 1.362 . S
H664 C670 0.930 . S
H665 C673 0.930 . S
H666 C674 0.930 . S
H667 C675 0.930 . S
H668 C678 0.930 . S
H669 C679 0.930 . S
C670 H664 0.930 . S
C670 C671 1.326 1_556 S
C670 C672 1.415 . S
C671 C670 1.326 1_554 S
C671 C673 1.456 . S
C672 C670 1.415 . S
C672 C677 1.425 1_556 S
C672 C679 1.409 . S
C673 H665 0.930 . S
C673 C671 1.456 . S
C673 C674 1.362 . S
C674 H666 0.930 . S
C674 C673 1.362 . S
C674 C677 1.409 . S
C675 H667 0.930 . S
C675 C676 1.355 1_554 S
C675 C677 1.415 . S
C676 C675 1.355 1_556 S
C676 C678 1.419 . S
C677 C672 1.425 1_554 S
C677 C674 1.409 . S
C677 C675 1.415 . S
C678 H668 0.930 . S
C678 C676 1.419 . S
C678 C679 1.362 . S
C679 H669 0.930 . S
C679 C672 1.409 . S
C679 C678 1.362 . S
H680 C686 0.930 . S
H681 C689 0.930 . S
H682 C690 0.930 . S
H683 C691 0.930 . S
H684 C694 0.930 . S
H685 C695 0.930 . S
C686 H680 0.930 . S
C686 C687 1.355 . S
C686 C688 1.415 . S
C687 C686 1.355 . S
C687 C689 1.419 . S
C688 C686 1.415 . S
C688 C693 1.425 . S
C688 C695 1.409 . S
C689 H681 0.930 . S
C689 C687 1.419 . S
C689 C690 1.362 . S
C690 H682 0.930 . S
C690 C689 1.362 . S
C690 C693 1.409 . S
C691 H683 0.930 . S
C691 C692 1.355 . S
C691 C693 1.415 . S
C692 C691 1.355 . S
C692 C694 1.419 . S
C693 C688 1.425 . S
C693 C690 1.409 . S
C693 C691 1.415 . S
C694 H684 0.930 . S
C694 C692 1.419 . S
C694 C695 1.362 . S
C695 H685 0.930 . S
C695 C688 1.409 . S
C695 C694 1.362 . S
H696 C702 0.930 . S
H697 C705 0.930 . S
H698 C706 0.930 . S
H699 C707 0.930 . S
H700 C710 0.930 . S
H701 C711 0.930 . S
C702 H696 0.930 . S
C702 C703 1.355 . S
C702 C704 1.415 . S
C703 C702 1.355 . S
C703 C705 1.419 . S
C704 C702 1.415 . S
C704 C709 1.425 . S
C704 C711 1.409 . S
C705 H697 0.930 . S
C705 C703 1.419 . S
C705 C706 1.362 . S
C706 H698 0.930 . S
C706 C705 1.362 . S
C706 C709 1.409 . S
C707 H699 0.930 . S
C707 C708 1.355 . S
C707 C709 1.415 . S
C708 C707 1.355 . S
C708 C710 1.419 . S
C709 C704 1.425 . S
C709 C706 1.409 . S
C709 C707 1.415 . S
C710 H700 0.930 . S
C710 C708 1.419 . S
C710 C711 1.362 . S
C711 H701 0.930 . S
C711 C704 1.409 . S
C711 C710 1.362 . S
H712 C718 0.930 . S
H713 C721 0.930 . S
H714 C722 0.930 . S
H715 C723 0.930 . S
H716 C726 0.930 . S
H717 C727 0.930 . S
C718 H712 0.930 . S
C718 C719 1.355 . S
C718 C720 1.415 . S
C719 C718 1.355 . S
C719 C721 1.419 . S
C720 C718 1.415 . S
C720 C725 1.425 . S
C720 C727 1.409 . S
C721 H713 0.930 . S
C721 C719 1.419 . S
C721 C722 1.362 . S
C722 H714 0.930 . S
C722 C721 1.362 . S
C722 C725 1.409 . S
C723 H715 0.930 . S
C723 C724 1.355 . S
C723 C725 1.415 . S
C724 C723 1.355 . S
C724 C726 1.419 . S
C725 C720 1.425 . S
C725 C722 1.409 . S
C725 C723 1.415 . S
C726 H716 0.930 . S
C726 C724 1.419 . S
C726 C727 1.362 . S
C727 H717 0.930 . S
C727 C720 1.409 . S
C727 C726 1.362 . S
H728 C734 0.930 . S
H729 C737 0.930 . S
H730 C738 0.930 . S
H731 C739 0.930 . S
H732 C742 0.930 . S
H733 C743 0.930 . S
C734 H728 0.930 . S
C734 C735 1.355 . S
C734 C736 1.415 . S
C735 C734 1.355 . S
C735 C737 1.419 . S
C736 C734 1.415 . S
C736 C741 1.425 . S
C736 C743 1.409 . S
C737 H729 0.930 . S
C737 C735 1.419 . S
C737 C738 1.362 . S
C738 H730 0.930 . S
C738 C737 1.362 . S
C738 C741 1.409 . S
C739 H731 0.930 . S
C739 C740 1.355 . S
C739 C741 1.415 . S
C740 C739 1.355 . S
C740 C742 1.419 . S
C741 C736 1.425 . S
C741 C738 1.409 . S
C741 C739 1.415 . S
C742 H732 0.930 . S
C742 C740 1.419 . S
C742 C743 1.362 . S
C743 H733 0.930 . S
C743 C736 1.409 . S
C743 C742 1.362 . S
H744 C750 0.930 . S
H745 C753 0.930 . S
H746 C754 0.930 . S
H747 C755 0.930 1_556 S
H748 C758 0.930 . S
H749 C759 0.930 . S
C750 H744 0.930 . S
C750 C751 1.355 . S
C750 C752 1.415 . S
C751 C750 1.355 . S
C751 C753 1.419 1_554 S
C752 C750 1.415 . S
C752 C757 1.425 . S
C752 C759 1.409 . S
C753 H745 0.930 . S
C753 C751 1.419 1_556 S
C753 C754 1.362 . S
C754 H746 0.930 . S
C754 C753 1.362 . S
C754 C757 1.409 1_556 S
C755 H747 0.930 1_554 S
C755 C756 1.355 . S
C755 C757 1.415 . S
C756 C755 1.355 . S
C756 C758 1.419 . S
C757 C752 1.425 . S
C757 C754 1.409 1_554 S
C757 C755 1.415 . S
C758 H748 0.930 . S
C758 C756 1.419 . S
C758 C759 1.362 . S
C759 H749 0.930 . S
C759 C752 1.409 . S
C759 C758 1.362 . S
H760 C766 0.930 . S
H761 C769 0.930 . S
H762 C770 0.930 . S
H763 C771 0.930 . S
H764 C774 0.930 . S
H765 C775 0.930 . S
C766 H760 0.930 . S
C766 C767 1.355 . S
C766 C768 1.415 . S
C767 C766 1.355 . S
C767 C769 1.419 . S
C768 C766 1.415 . S
C768 C773 1.425 . S
C768 C775 1.409 . S
C769 H761 0.930 . S
C769 C767 1.419 . S
C769 C770 1.362 . S
C770 H762 0.930 . S
C770 C769 1.362 . S
C770 C773 1.409 . S
C771 H763 0.930 . S
C771 C772 1.355 . S
C771 C773 1.415 . S
C772 C771 1.355 . S
C772 C774 1.419 . S
C773 C768 1.425 . S
C773 C770 1.409 . S
C773 C771 1.415 . S
C774 H764 0.930 . S
C774 C772 1.419 . S
C774 C775 1.362 . S
C775 H765 0.930 . S
C775 C768 1.409 . S
C775 C774 1.362 . S
H776 C782 0.930 . S
H777 C785 0.930 . S
H778 C786 0.930 . S
H779 C787 0.930 . S
H780 C790 0.930 . S
H781 C791 0.930 . S
C782 H776 0.930 . S
C782 C783 1.355 . S
C782 C784 1.415 . S
C783 C782 1.355 . S
C783 C785 1.419 . S
C784 C782 1.415 . S
C784 C789 1.425 . S
C784 C791 1.409 . S
C785 H777 0.930 . S
C785 C783 1.419 . S
C785 C786 1.362 . S
C786 H778 0.930 . S
C786 C785 1.362 . S
C786 C789 1.409 . S
C787 H779 0.930 . S
C787 C788 1.355 . S
C787 C789 1.415 . S
C788 C787 1.355 . S
C788 C790 1.419 . S
C789 C784 1.425 . S
C789 C786 1.409 . S
C789 C787 1.415 . S
C790 H780 0.930 . S
C790 C788 1.419 . S
C790 C791 1.362 . S
C791 H781 0.930 . S
C791 C784 1.409 . S
C791 C790 1.362 . S
H792 C798 0.930 . S
H793 C801 0.930 . S
H794 C802 0.930 . S
H795 C803 0.930 . S
H796 C806 0.930 . S
H797 C807 0.930 . S
C798 H792 0.930 . S
C798 C799 1.355 . S
C798 C800 1.415 . S
C799 C798 1.355 . S
C799 C801 1.419 . S
C800 C798 1.415 . S
C800 C805 1.425 . S
C800 C807 1.409 . S
C801 H793 0.930 . S
C801 C799 1.419 . S
C801 C802 1.362 . S
C802 H794 0.930 . S
C802 C801 1.362 . S
C802 C805 1.409 . S
C803 H795 0.930 . S
C803 C804 1.355 . S
C803 C805 1.415 . S
C804 C803 1.355 . S
C804 C806 1.419 . S
C805 C800 1.425 . S
C805 C802 1.409 . S
C805 C803 1.415 . S
C806 H796 0.930 . S
C806 C804 1.419 . S
C806 C807 1.362 . S
C807 H797 0.930 . S
C807 C800 1.409 . S
C807 C806 1.362 . S
H808 C814 0.930 . S
H809 C817 0.930 . S
H810 C818 0.930 . S
H811 C819 0.930 . S
H812 C822 0.930 . S
H813 C823 0.930 . S
C814 H808 0.930 . S
C814 C815 1.355 . S
C814 C816 1.415 . S
C815 C814 1.355 . S
C815 C817 1.419 . S
C816 C814 1.415 . S
C816 C821 1.425 . S
C816 C823 1.409 . S
C817 H809 0.930 . S
C817 C815 1.419 . S
C817 C818 1.362 . S
C818 H810 0.930 . S
C818 C817 1.362 . S
C818 C821 1.409 . S
C819 H811 0.930 . S
C819 C820 1.355 . S
C819 C821 1.415 . S
C820 C819 1.355 . S
C820 C822 1.419 . S
C821 C816 1.425 . S
C821 C818 1.409 . S
C821 C819 1.415 . S
C822 H812 0.930 . S
C822 C820 1.419 . S
C822 C823 1.362 . S
C823 H813 0.930 . S
C823 C816 1.409 . S
C823 C822 1.362 . S
H824 C830 0.930 . S
H825 C833 0.929 . S
H826 C834 0.930 . S
H827 C835 0.933 . S
H828 C838 0.930 . S
H829 C839 0.930 . S
C830 H824 0.930 . S
C830 C831 1.355 . S
C830 C832 1.415 . S
C831 C830 1.355 . S
C831 C833 1.419 1_556 S
C832 C830 1.415 . S
C832 C837 1.426 . S
C832 C839 1.409 . S
C833 H825 0.929 . S
C833 C831 1.419 1_554 S
C833 C834 1.362 . S
C834 H826 0.930 . S
C834 C833 1.362 . S
C834 C837 1.409 1_554 S
C835 H827 0.933 . S
C835 C836 1.353 1_554 S
C835 C837 1.414 1_554 S
C836 C835 1.353 1_556 S
C836 C838 1.421 . S
C837 C832 1.426 . S
C837 C834 1.409 1_556 S
C837 C835 1.414 1_556 S
C838 H828 0.930 . S
C838 C836 1.421 . S
C838 C839 1.362 . S
C839 H829 0.930 . S
C839 C832 1.409 . S
C839 C838 1.362 . S
H840 C846 0.930 . S
H841 C849 0.930 . S
H842 C850 0.930 . S
H843 C851 0.930 . S
H844 C854 0.930 . S
H845 C855 0.930 . S
C846 H840 0.930 . S
C846 C847 1.355 . S
C846 C848 1.415 . S
C847 C846 1.355 . S
C847 C849 1.419 . S
C848 C846 1.415 . S
C848 C853 1.425 . S
C848 C855 1.409 . S
C849 H841 0.930 . S
C849 C847 1.419 . S
C849 C850 1.362 . S
C850 H842 0.930 . S
C850 C849 1.362 . S
C850 C853 1.409 . S
C851 H843 0.930 . S
C851 C852 1.355 . S
C851 C853 1.415 . S
C852 C851 1.355 . S
C852 C854 1.419 . S
C853 C848 1.425 . S
C853 C850 1.409 . S
C853 C851 1.415 . S
C854 H844 0.930 . S
C854 C852 1.419 . S
C854 C855 1.362 . S
C855 H845 0.930 . S
C855 C848 1.409 . S
C855 C854 1.362 . S
H856 C862 0.930 . S
H857 C865 0.930 . S
H858 C866 0.930 . S
H859 C867 0.930 . S
H860 C870 0.930 . S
H861 C871 0.930 . S
C862 H856 0.930 . S
C862 C863 1.355 . S
C862 C864 1.415 . S
C863 C862 1.355 . S
C863 C865 1.419 . S
C864 C862 1.415 . S
C864 C869 1.425 . S
C864 C871 1.409 . S
C865 H857 0.930 . S
C865 C863 1.419 . S
C865 C866 1.362 . S
C866 H858 0.930 . S
C866 C865 1.362 . S
C866 C869 1.409 . S
C867 H859 0.930 . S
C867 C868 1.355 . S
C867 C869 1.415 . S
C868 C867 1.355 . S
C868 C870 1.419 . S
C869 C864 1.425 . S
C869 C866 1.409 . S
C869 C867 1.415 . S
C870 H860 0.930 . S
C870 C868 1.419 . S
C870 C871 1.362 . S
C871 H861 0.930 . S
C871 C864 1.409 . S
C871 C870 1.362 . S
H872 C878 0.930 . S
H873 C881 0.930 . S
H874 C882 0.930 . S
H875 C883 0.930 . S
H876 C886 0.930 . S
H877 C887 0.930 . S
C878 H872 0.930 . S
C878 C879 1.355 . S
C878 C880 1.415 . S
C879 C878 1.355 . S
C879 C881 1.419 . S
C880 C878 1.415 . S
C880 C885 1.425 . S
C880 C887 1.409 . S
C881 H873 0.930 . S
C881 C879 1.419 . S
C881 C882 1.362 . S
C882 H874 0.930 . S
C882 C881 1.362 . S
C882 C885 1.409 . S
C883 H875 0.930 . S
C883 C884 1.355 . S
C883 C885 1.415 . S
C884 C883 1.355 . S
C884 C886 1.419 . S
C885 C880 1.425 . S
C885 C882 1.409 . S
C885 C883 1.415 . S
C886 H876 0.930 . S
C886 C884 1.419 . S
C886 C887 1.362 . S
C887 H877 0.930 . S
C887 C880 1.409 . S
C887 C886 1.362 . S
H888 C894 0.930 . S
H889 C897 0.930 . S
H890 C898 0.930 . S
H891 C899 0.930 . S
H892 C902 0.930 . S
H893 C903 0.930 . S
C894 H888 0.930 . S
C894 C895 1.355 . S
C894 C896 1.415 . S
C895 C894 1.355 . S
C895 C897 1.419 . S
C896 C894 1.415 . S
C896 C901 1.425 . S
C896 C903 1.409 . S
C897 H889 0.930 . S
C897 C895 1.419 . S
C897 C898 1.362 . S
C898 H890 0.930 . S
C898 C897 1.362 . S
C898 C901 1.409 . S
C899 H891 0.930 . S
C899 C900 1.355 . S
C899 C901 1.415 . S
C900 C899 1.355 . S
C900 C902 1.419 . S
C901 C896 1.425 . S
C901 C898 1.409 . S
C901 C899 1.415 . S
C902 H892 0.930 . S
C902 C900 1.419 . S
C902 C903 1.362 . S
C903 H893 0.930 . S
C903 C896 1.409 . S
C903 C902 1.362 . S
H904 C910 0.930 . S
H905 C913 0.930 . S
H906 C914 0.930 . S
H907 C915 0.930 . S
H908 C918 0.930 . S
H909 C919 0.930 . S
C910 H904 0.930 . S
C910 C911 1.355 . S
C910 C912 1.415 . S
C911 C910 1.355 . S
C911 C913 1.419 . S
C912 C910 1.415 . S
C912 C917 1.425 . S
C912 C919 1.409 . S
C913 H905 0.930 . S
C913 C911 1.419 . S
C913 C914 1.362 . S
C914 H906 0.930 . S
C914 C913 1.362 . S
C914 C917 1.409 . S
C915 H907 0.930 . S
C915 C916 1.355 . S
C915 C917 1.415 . S
C916 C915 1.355 . S
C916 C918 1.419 . S
C917 C912 1.425 . S
C917 C914 1.409 . S
C917 C915 1.415 . S
C918 H908 0.930 . S
C918 C916 1.419 . S
C918 C919 1.362 . S
C919 H909 0.930 . S
C919 C912 1.409 . S
C919 C918 1.362 . S
H920 C926 0.930 . S
H921 C929 0.930 . S
H922 C930 0.930 . S
H923 C931 0.930 . S
H924 C934 0.930 . S
H925 C935 0.930 . S
C926 H920 0.930 . S
C926 C927 1.355 . S
C926 C928 1.415 . S
C927 C926 1.355 . S
C927 C929 1.419 . S
C928 C926 1.415 . S
C928 C933 1.425 . S
C928 C935 1.409 . S
C929 H921 0.930 . S
C929 C927 1.419 . S
C929 C930 1.362 . S
C930 H922 0.930 . S
C930 C929 1.362 . S
C930 C933 1.409 . S
C931 H923 0.930 . S
C931 C932 1.355 . S
C931 C933 1.415 . S
C932 C931 1.355 . S
C932 C934 1.419 . S
C933 C928 1.425 . S
C933 C930 1.409 . S
C933 C931 1.415 . S
C934 H924 0.930 . S
C934 C932 1.419 . S
C934 C935 1.362 . S
C935 H925 0.930 . S
C935 C928 1.409 . S
C935 C934 1.362 . S
H936 C942 0.930 . S
H937 C945 0.930 . S
H938 C946 0.930 . S
H939 C947 0.930 . S
H940 C950 0.930 . S
H941 C951 0.930 . S
C942 H936 0.930 . S
C942 C943 1.355 . S
C942 C944 1.415 . S
C943 C942 1.355 . S
C943 C945 1.419 . S
C944 C942 1.415 . S
C944 C949 1.425 . S
C944 C951 1.409 . S
C945 H937 0.930 . S
C945 C943 1.419 . S
C945 C946 1.362 . S
C946 H938 0.930 . S
C946 C945 1.362 . S
C946 C949 1.409 . S
C947 H939 0.930 . S
C947 C948 1.355 . S
C947 C949 1.415 . S
C948 C947 1.355 . S
C948 C950 1.419 . S
C949 C944 1.425 . S
C949 C946 1.409 . S
C949 C947 1.415 . S
C950 H940 0.930 . S
C950 C948 1.419 . S
C950 C951 1.362 . S
C951 H941 0.930 . S
C951 C944 1.409 . S
C951 C950 1.362 . S
H952 C958 0.930 . S
H953 C961 0.930 . S
H954 C962 0.930 . S
H955 C963 0.930 . S
H956 C966 0.930 . S
H957 C967 0.930 . S
C958 H952 0.930 . S
C958 C959 1.355 . S
C958 C960 1.415 . S
C959 C958 1.355 . S
C959 C961 1.419 . S
C960 C958 1.415 . S
C960 C965 1.425 . S
C960 C967 1.409 . S
C961 H953 0.930 . S
C961 C959 1.419 . S
C961 C962 1.362 . S
C962 H954 0.930 . S
C962 C961 1.362 . S
C962 C965 1.409 . S
C963 H955 0.930 . S
C963 C964 1.355 . S
C963 C965 1.415 . S
C964 C963 1.355 . S
C964 C966 1.419 . S
C965 C960 1.425 . S
C965 C962 1.409 . S
C965 C963 1.415 . S
C966 H956 0.930 . S
C966 C964 1.419 . S
C966 C967 1.362 . S
C967 H957 0.930 . S
C967 C960 1.409 . S
C967 C966 1.362 . S
H968 C974 0.930 . S
H969 C977 0.930 . S
H970 C978 0.930 . S
H971 C979 0.930 . S
H972 C982 0.930 . S
H973 C983 0.930 . S
C974 H968 0.930 . S
C974 C975 1.355 . S
C974 C976 1.415 . S
C975 C974 1.355 . S
C975 C977 1.419 . S
C976 C974 1.415 . S
C976 C981 1.425 . S
C976 C983 1.409 . S
C977 H969 0.930 . S
C977 C975 1.419 . S
C977 C978 1.362 . S
C978 H970 0.930 . S
C978 C977 1.362 . S
C978 C981 1.409 . S
C979 H971 0.930 . S
C979 C980 1.355 . S
C979 C981 1.415 . S
C980 C979 1.355 . S
C980 C982 1.419 . S
C981 C976 1.425 . S
C981 C978 1.409 . S
C981 C979 1.415 . S
C982 H972 0.930 . S
C982 C980 1.419 . S
C982 C983 1.362 . S
C983 H973 0.930 . S
C983 C976 1.409 . S
C983 C982 1.362 . S
H984 C990 0.930 . S
H985 C993 0.930 . S
H986 C994 0.930 . S
H987 C995 0.930 . S
H988 C998 0.930 . S
H989 C999 0.930 . S
C990 H984 0.930 . S
C990 C991 1.355 . S
C990 C992 1.415 . S
C991 C990 1.355 . S
C991 C993 1.419 . S
C992 C990 1.415 . S
C992 C997 1.425 . S
C992 C999 1.409 . S
C993 H985 0.930 . S
C993 C991 1.419 . S
C993 C994 1.362 . S
C994 H986 0.930 . S
C994 C993 1.362 . S
C994 C997 1.409 . S
C995 H987 0.930 . S
C995 C996 1.355 . S
C995 C997 1.415 . S
C996 C995 1.355 . S
C996 C998 1.419 . S
C997 C992 1.425 . S
C997 C994 1.409 . S
C997 C995 1.415 . S
C998 H988 0.930 . S
C998 C996 1.419 . S
C998 C999 1.362 . S
C999 H989 0.930 . S
C999 C992 1.409 . S
C999 C998 1.362 . S
H1000 C1006 0.930 . S
H1001 C1009 0.930 . S
H1002 C1010 0.930 . S
H1003 C1011 0.930 . S
H1004 C1014 0.930 . S
H1005 C1015 0.930 . S
C1006 H1000 0.930 . S
C1006 C1007 1.355 . S
C1006 C1008 1.415 . S
C1007 C1006 1.355 . S
C1007 C1009 1.419 . S
C1008 C1006 1.415 . S
C1008 C1013 1.425 . S
C1008 C1015 1.409 . S
C1009 H1001 0.930 . S
C1009 C1007 1.419 . S
C1009 C1010 1.362 . S
C1010 H1002 0.930 . S
C1010 C1009 1.362 . S
C1010 C1013 1.409 . S
C1011 H1003 0.930 . S
C1011 C1012 1.355 . S
C1011 C1013 1.415 . S
C1012 C1011 1.355 . S
C1012 C1014 1.419 . S
C1013 C1008 1.425 . S
C1013 C1010 1.409 . S
C1013 C1011 1.415 . S
C1014 H1004 0.930 . S
C1014 C1012 1.419 . S
C1014 C1015 1.362 . S
C1015 H1005 0.930 . S
C1015 C1008 1.409 . S
C1015 C1014 1.362 . S
H1016 C1022 0.930 . S
H1017 C1025 0.930 . S
H1018 C1026 0.930 . S
H1019 C1027 0.930 . S
H1020 C1030 0.930 . S
H1021 C1031 0.930 . S
C1022 H1016 0.930 . S
C1022 C1023 1.355 . S
C1022 C1024 1.415 . S
C1023 C1022 1.355 . S
C1023 C1025 1.419 . S
C1024 C1022 1.415 . S
C1024 C1029 1.425 . S
C1024 C1031 1.409 . S
C1025 H1017 0.930 . S
C1025 C1023 1.419 . S
C1025 C1026 1.362 . S
C1026 H1018 0.930 . S
C1026 C1025 1.362 . S
C1026 C1029 1.409 . S
C1027 H1019 0.930 . S
C1027 C1028 1.355 . S
C1027 C1029 1.415 . S
C1028 C1027 1.355 . S
C1028 C1030 1.419 . S
C1029 C1024 1.425 . S
C1029 C1026 1.409 . S
C1029 C1027 1.415 . S
C1030 H1020 0.930 . S
C1030 C1028 1.419 . S
C1030 C1031 1.362 . S
C1031 H1021 0.930 . S
C1031 C1024 1.409 . S
C1031 C1030 1.362 . S
H1032 C1038 0.930 . S
H1033 C1041 0.930 . S
H1034 C1042 0.930 . S
H1035 C1043 0.930 . S
H1036 C1046 0.930 . S
H1037 C1047 0.930 . S
C1038 H1032 0.930 . S
C1038 C1039 1.355 . S
C1038 C1040 1.415 . S
C1039 C1038 1.355 . S
C1039 C1041 1.419 . S
C1040 C1038 1.415 . S
C1040 C1045 1.425 . S
C1040 C1047 1.409 . S
C1041 H1033 0.930 . S
C1041 C1039 1.419 . S
C1041 C1042 1.362 . S
C1042 H1034 0.930 . S
C1042 C1041 1.362 . S
C1042 C1045 1.409 . S
C1043 H1035 0.930 . S
C1043 C1044 1.355 . S
C1043 C1045 1.415 . S
C1044 C1043 1.355 . S
C1044 C1046 1.419 . S
C1045 C1040 1.425 . S
C1045 C1042 1.409 . S
C1045 C1043 1.415 . S
C1046 H1036 0.930 . S
C1046 C1044 1.419 . S
C1046 C1047 1.362 . S
C1047 H1037 0.930 . S
C1047 C1040 1.409 . S
C1047 C1046 1.362 . S
H1048 C1054 0.930 . S
H1049 C1057 0.930 . S
H1050 C1058 0.930 . S
H1051 C1059 0.930 . S
H1052 C1062 0.930 . S
H1053 C1063 0.930 . S
C1054 H1048 0.930 . S
C1054 C1055 1.355 . S
C1054 C1056 1.415 . S
C1055 C1054 1.355 . S
C1055 C1057 1.419 . S
C1056 C1054 1.415 . S
C1056 C1061 1.425 . S
C1056 C1063 1.409 . S
C1057 H1049 0.930 . S
C1057 C1055 1.419 . S
C1057 C1058 1.362 . S
C1058 H1050 0.930 . S
C1058 C1057 1.362 . S
C1058 C1061 1.409 . S
C1059 H1051 0.930 . S
C1059 C1060 1.355 . S
C1059 C1061 1.415 . S
C1060 C1059 1.355 . S
C1060 C1062 1.419 . S
C1061 C1056 1.425 . S
C1061 C1058 1.409 . S
C1061 C1059 1.415 . S
C1062 H1052 0.930 . S
C1062 C1060 1.419 . S
C1062 C1063 1.362 . S
C1063 H1053 0.930 . S
C1063 C1056 1.409 . S
C1063 C1062 1.362 . S
H1064 C1070 0.930 . S
H1065 C1073 0.930 . S
H1066 C1074 0.930 . S
H1067 C1075 0.930 . S
H1068 C1078 0.930 . S
H1069 C1079 0.930 . S
C1070 H1064 0.930 . S
C1070 C1071 1.355 . S
C1070 C1072 1.415 . S
C1071 C1070 1.355 . S
C1071 C1073 1.419 . S
C1072 C1070 1.415 . S
C1072 C1077 1.425 . S
C1072 C1079 1.409 . S
C1073 H1065 0.930 . S
C1073 C1071 1.419 . S
C1073 C1074 1.362 . S
C1074 H1066 0.930 . S
C1074 C1073 1.362 . S
C1074 C1077 1.409 . S
C1075 H1067 0.930 . S
C1075 C1076 1.355 . S
C1075 C1077 1.415 . S
C1076 C1075 1.355 . S
C1076 C1078 1.419 . S
C1077 C1072 1.425 . S
C1077 C1074 1.409 . S
C1077 C1075 1.415 . S
C1078 H1068 0.930 . S
C1078 C1076 1.419 . S
C1078 C1079 1.362 . S
C1079 H1069 0.930 . S
C1079 C1072 1.409 . S
C1079 C1078 1.362 . S
H1080 C1086 0.930 . S
H1081 C1089 0.930 . S
H1082 C1090 0.930 . S
H1083 C1091 0.930 . S
H1084 C1094 0.930 . S
H1085 C1095 0.930 . S
C1086 H1080 0.930 . S
C1086 C1087 1.355 . S
C1086 C1088 1.415 . S
C1087 C1086 1.355 . S
C1087 C1089 1.419 . S
C1088 C1086 1.415 . S
C1088 C1093 1.425 . S
C1088 C1095 1.409 . S
C1089 H1081 0.930 . S
C1089 C1087 1.419 . S
C1089 C1090 1.362 . S
C1090 H1082 0.930 . S
C1090 C1089 1.362 . S
C1090 C1093 1.409 . S
C1091 H1083 0.930 . S
C1091 C1092 1.355 . S
C1091 C1093 1.415 . S
C1092 C1091 1.355 . S
C1092 C1094 1.419 . S
C1093 C1088 1.425 . S
C1093 C1090 1.409 . S
C1093 C1091 1.415 . S
C1094 H1084 0.930 . S
C1094 C1092 1.419 . S
C1094 C1095 1.362 . S
C1095 H1085 0.930 . S
C1095 C1088 1.409 . S
C1095 C1094 1.362 . S
H1096 C1102 0.930 . S
H1097 C1105 0.930 . S
H1098 C1106 0.930 . S
H1099 C1107 0.930 . S
H1100 C1110 0.930 . S
H1101 C1111 0.930 . S
C1102 H1096 0.930 . S
C1102 C1103 1.355 . S
C1102 C1104 1.415 . S
C1103 C1102 1.355 . S
C1103 C1105 1.419 . S
C1104 C1102 1.415 . S
C1104 C1109 1.425 . S
C1104 C1111 1.409 . S
C1105 H1097 0.930 . S
C1105 C1103 1.419 . S
C1105 C1106 1.362 . S
C1106 H1098 0.930 . S
C1106 C1105 1.362 . S
C1106 C1109 1.409 . S
C1107 H1099 0.930 . S
C1107 C1108 1.355 . S
C1107 C1109 1.415 . S
C1108 C1107 1.355 . S
C1108 C1110 1.419 . S
C1109 C1104 1.425 . S
C1109 C1106 1.409 . S
C1109 C1107 1.415 . S
C1110 H1100 0.930 . S
C1110 C1108 1.419 . S
C1110 C1111 1.362 . S
C1111 H1101 0.930 . S
C1111 C1104 1.409 . S
C1111 C1110 1.362 . S
C612 C509 1.443 . S
C607 C35 1.405 . S
C628 C527 1.472 . S
C623 C115 1.375 . S
C644 C535 1.411 . S
C639 C177 1.337 . S
C655 C221 1.326 . S
C660 C501 1.541 . S
C671 C283 1.380 1_554 S
C676 C496 1.495 1_556 S
C687 C363 1.380 . S
C692 C514 1.544 . S
C708 C522 1.451 . S
C703 C407 1.317 . S
C724 C540 1.543 . S
C719 C469 1.385 . S
C735 C159 1.308 . S
C740 C561 1.422 . S
C756 C579 1.536 . S
C751 C239 1.421 . S
C767 C53 1.352 . S
C772 C587 1.473 . S
C788 C553 1.536 . S
C783 C97 1.328 . S
C799 C425 1.379 . S
C804 C548 1.485 . S
C815 C487 1.399 . S
C820 C566 1.468 . S
C836 C574 1.471 1_556 S
C831 C301 1.367 . S
C847 C345 1.331 . S
C852 C592 1.491 . S
C868 C530 1.697 . S
C863 C29 1.678 . S
C884 C545 1.680 . S
C879 C109 1.662 . S
C895 C171 1.600 . S
C900 C504 1.697 . S
C911 C215 1.656 . S
C916 C519 1.630 . S
C927 C277 1.650 . S
C932 C543 1.687 . S
C948 C506 1.679 . S
C943 C357 1.661 . S
C964 C517 1.694 . S
C959 C401 1.651 . S
C980 C532 1.633 . S
C975 C463 1.662 . S
C996 C582 1.697 . S
C991 C153 1.659 . S
C1012 C597 1.680 . S
C1007 C233 1.662 . S
C1023 C47 1.599 . S
C1028 C556 1.695 . S
C1044 C571 1.679 . S
C1039 C91 1.692 . S
C1060 C595 1.685 . S
C1055 C419 1.647 . S
C1071 C481 1.602 . S
C1076 C558 1.631 . S
C1092 C569 1.697 . S
C1087 C295 1.616 . S
C1108 C584 1.667 . S
C1103 C339 1.667 . S
