# Generated by pormake.
# Topology pyr, (3,6)-cn, num edge types: 1
# Building blocks:
#     Node 0, Type 0, BuildingBlock: CUQRIR_clean_linker_1, # of connection points: 3
#     Node 1, Type 0, BuildingBlock: CUQRIR_clean_linker_1, # of connection points: 3
#     Node 2, Type 0, BuildingBlock: CUQRIR_clean_linker_1, # of connection points: 3
#     Node 3, Type 0, BuildingBlock: CUQRIR_clean_linker_1, # of connection points: 3
#     Node 4, Type 0, BuildingBlock: CUQRIR_clean_linker_1, # of connection points: 3
#     Node 5, Type 0, BuildingBlock: CUQRIR_clean_linker_1, # of connection points: 3
#     Node 6, Type 0, BuildingBlock: CUQRIR_clean_linker_1, # of connection points: 3
#     Node 7, Type 0, BuildingBlock: CUQRIR_clean_linker_1, # of connection points: 3
#     Node 8, Type 1, BuildingBlock: VOLQOD_clean_sbu_1, # of connection points: 6
#     Node 9, Type 1, BuildingBlock: VOLQOD_clean_sbu_1, # of connection points: 6
#     Node 10, Type 1, BuildingBlock: VOLQOD_clean_sbu_1, # of connection points: 6
#     Node 11, Type 1, BuildingBlock: VOLQOD_clean_sbu_1, # of connection points: 6
#     Edge 12, Type (0, 1), BuildingBlock: CIFDUS_clean_linker_0, # of connection points: 2
#     Edge 13, Type (0, 1), BuildingBlock: CIFDUS_clean_linker_0, # of connection points: 2
#     Edge 14, Type (0, 1), BuildingBlock: CIFDUS_clean_linker_0, # of connection points: 2
#     Edge 15, Type (0, 1), BuildingBlock: CIFDUS_clean_linker_0, # of connection points: 2
#     Edge 16, Type (0, 1), BuildingBlock: CIFDUS_clean_linker_0, # of connection points: 2
#     Edge 17, Type (0, 1), BuildingBlock: CIFDUS_clean_linker_0, # of connection points: 2
#     Edge 18, Type (0, 1), BuildingBlock: CIFDUS_clean_linker_0, # of connection points: 2
#     Edge 19, Type (0, 1), BuildingBlock: CIFDUS_clean_linker_0, # of connection points: 2
#     Edge 20, Type (0, 1), BuildingBlock: CIFDUS_clean_linker_0, # of connection points: 2
#     Edge 21, Type (0, 1), BuildingBlock: CIFDUS_clean_linker_0, # of connection points: 2
#     Edge 22, Type (0, 1), BuildingBlock: CIFDUS_clean_linker_0, # of connection points: 2
#     Edge 23, Type (0, 1), BuildingBlock: CIFDUS_clean_linker_0, # of connection points: 2
#     Edge 24, Type (0, 1), BuildingBlock: CIFDUS_clean_linker_0, # of connection points: 2
#     Edge 25, Type (0, 1), BuildingBlock: CIFDUS_clean_linker_0, # of connection points: 2
#     Edge 26, Type (0, 1), BuildingBlock: CIFDUS_clean_linker_0, # of connection points: 2
#     Edge 27, Type (0, 1), BuildingBlock: CIFDUS_clean_linker_0, # of connection points: 2
#     Edge 28, Type (0, 1), BuildingBlock: CIFDUS_clean_linker_0, # of connection points: 2
#     Edge 29, Type (0, 1), BuildingBlock: CIFDUS_clean_linker_0, # of connection points: 2
#     Edge 30, Type (0, 1), BuildingBlock: CIFDUS_clean_linker_0, # of connection points: 2
#     Edge 31, Type (0, 1), BuildingBlock: CIFDUS_clean_linker_0, # of connection points: 2
#     Edge 32, Type (0, 1), BuildingBlock: CIFDUS_clean_linker_0, # of connection points: 2
#     Edge 33, Type (0, 1), BuildingBlock: CIFDUS_clean_linker_0, # of connection points: 2
#     Edge 34, Type (0, 1), BuildingBlock: CIFDUS_clean_linker_0, # of connection points: 2
#     Edge 35, Type (0, 1), BuildingBlock: CIFDUS_clean_linker_0, # of connection points: 2
# Relax obj value: 0.119
# Max RMSD: 0.210
# Mean RMSD: 0.164
data_MOF--net-pry--node1-VOLQOD_clean_sbu_1--node2-CUQRIR_clean_linker_1--edge1-CIFDUS_clean_linker_0
_symmetry_space_group_name_H-M    P1
_symmetry_Int_Tables_number       1
_symmetry_cell_setting            triclinic
loop_
_symmetry_equiv_pos_as_xyz
'x, y, z'
_cell_length_a     30.186012
_cell_length_b     30.084296
_cell_length_c     29.772933
_cell_angle_alpha  88.045064
_cell_angle_beta   92.149128
_cell_angle_gamma 94.00437
loop_
_atom_site_label
_atom_site_type_symbol
_atom_site_fract_x
_atom_site_fract_y
_atom_site_fract_z
_atom_type_partial_charge
C0 C 0.10961 0.15447 0.13734 0.0
N1 N 0.14074 0.12489 0.14656 0.0
N2 N 0.12093 0.18126 0.10155 0.0
C3 C 0.0703 0.15995 0.16595 0.0
C4 C 0.16042 0.16703 0.08969 0.0
N5 N 0.17288 0.13305 0.11751 0.0
C6 C 0.1849 0.18414 0.0488 0.0
H7 H 0.04052 0.14197 0.1505 0.0
H8 H 0.06369 0.19564 0.16784 0.0
H9 H 0.0755 0.14608 0.20058 0.0
H10 H 0.20951 0.2116 0.05836 0.0
H11 H 0.16152 0.19735 0.02281 0.0
H12 H 0.20286 0.15731 0.03441 0.0
C13 C 0.33636 0.8417 0.66936 0.0
N14 N 0.33418 0.87641 0.69663 0.0
N15 N 0.37051 0.81704 0.68249 0.0
C16 C 0.30547 0.83223 0.62932 0.0
C17 C 0.38932 0.83823 0.71862 0.0
N18 N 0.3672 0.87462 0.72728 0.0
C19 C 0.42693 0.82119 0.74739 0.0
H20 H 0.27681 0.80997 0.64039 0.0
H21 H 0.32254 0.81539 0.60298 0.0
H22 H 0.29238 0.86313 0.61441 0.0
H23 H 0.45884 0.83683 0.73527 0.0
H24 H 0.42767 0.78451 0.74522 0.0
H25 H 0.42387 0.82977 0.78304 0.0
C26 C 0.56622 0.41217 0.91702 0.0
N27 N 0.59911 0.39799 0.94507 0.0
N28 N 0.57755 0.45303 0.89884 0.0
C29 C 0.52396 0.38503 0.90457 0.0
C30 C 0.61778 0.46402 0.91874 0.0
N31 N 0.63099 0.43068 0.94672 0.0
C32 C 0.64699 0.50475 0.90583 0.0
H33 H 0.52776 0.36934 0.87186 0.0
H34 H 0.49583 0.40678 0.90065 0.0
H35 H 0.51572 0.35877 0.93055 0.0
H36 H 0.66015 0.52172 0.93652 0.0
H37 H 0.62849 0.52862 0.88444 0.0
H38 H 0.67577 0.49455 0.88747 0.0
C39 C 0.87881 0.60042 0.37086 0.0
N40 N 0.91298 0.62888 0.35777 0.0
N41 N 0.86737 0.6088 0.41311 0.0
C42 C 0.85297 0.56829 0.34025 0.0
C43 C 0.8959 0.64342 0.42521 0.0
N44 N 0.92361 0.65583 0.39161 0.0
C45 C 0.8953 0.66688 0.46904 0.0
H46 H 0.81694 0.56714 0.34662 0.0
H47 H 0.86454 0.5344 0.34686 0.0
H48 H 0.85776 0.5777 0.30432 0.0
H49 H 0.87696 0.64614 0.49471 0.0
H50 H 0.8793 0.69879 0.46327 0.0
H51 H 0.9297 0.67484 0.48214 0.0
C52 C 0.86241 0.88861 0.90366 0.0
N53 N 0.8909 0.87636 0.87301 0.0
N54 N 0.84518 0.92747 0.89071 0.0
C55 C 0.84784 0.86011 0.94377 0.0
C56 C 0.86371 0.9382 0.85087 0.0
N57 N 0.89114 0.90682 0.83956 0.0
C58 C 0.85539 0.9803 0.82403 0.0
H59 H 0.81689 0.8709 0.95763 0.0
H60 H 0.87448 0.86244 0.97045 0.0
H61 H 0.84264 0.82466 0.9345 0.0
H62 H 0.84701 0.00687 0.8466 0.0
H63 H 0.82669 0.97383 0.80023 0.0
H64 H 0.88493 0.99214 0.80476 0.0
C65 C 0.70344 0.17822 0.4424 0.0
N66 N 0.71105 0.1455 0.4141 0.0
N67 N 0.66138 0.19073 0.43669 0.0
C68 C 0.73735 0.19924 0.47492 0.0
C69 C 0.64346 0.16422 0.40395 0.0
N70 N 0.67344 0.13627 0.39054 0.0
C71 C 0.59931 0.1706 0.37993 0.0
H72 H 0.72078 0.21254 0.50378 0.0
H73 H 0.75618 0.22742 0.45766 0.0
H74 H 0.7611 0.17472 0.48739 0.0
H75 H 0.58439 0.2013 0.38971 0.0
H76 H 0.57588 0.14164 0.38807 0.0
H77 H 0.60324 0.17207 0.34299 0.0
C78 C 0.38004 0.59993 0.13562 0.0
N79 N 0.41031 0.62867 0.15572 0.0
N80 N 0.36901 0.61497 0.09362 0.0
C81 C 0.35607 0.56097 0.15941 0.0
C82 C 0.39418 0.65376 0.0889 0.0
N83 N 0.41927 0.66219 0.12665 0.0
C84 C 0.3891 0.68666 0.0501 0.0
H85 H 0.37761 0.54665 0.18643 0.0
H86 H 0.34511 0.53474 0.13534 0.0
H87 H 0.32621 0.57254 0.17487 0.0
H88 H 0.37237 0.71576 0.06154 0.0
H89 H 0.36939 0.67148 0.02164 0.0
H90 H 0.42225 0.69897 0.03822 0.0
C91 C 0.09605 0.37737 0.6479 0.0
N92 N 0.12418 0.36464 0.61704 0.0
N93 N 0.10668 0.41997 0.65961 0.0
C94 C 0.06227 0.34634 0.67132 0.0
C95 C 0.14209 0.43269 0.63454 0.0
N96 N 0.15314 0.39916 0.60893 0.0
C97 C 0.16921 0.47638 0.63896 0.0
H98 H 0.02946 0.3488 0.65368 0.0
H99 H 0.0589 0.35547 0.70674 0.0
H100 H 0.07133 0.31126 0.67087 0.0
H101 H 0.19965 0.47105 0.65995 0.0
H102 H 0.15006 0.5015 0.65475 0.0
H103 H 0.17972 0.48933 0.6054 0.0
O104 O 0.02181 0.10048 0.53818 0.0
Zn105 Zn 0.99889 0.03737 0.52529 0.0
O106 O 0.04375 0.0049 0.49725 0.0
Zn107 Zn 0.02125 0.98689 0.43751 0.0
Zn108 Zn 0.09899 0.04295 0.49223 0.0
Zn109 Zn 0.0562 0.95214 0.53456 0.0
O110 O 0.0191 0.92031 0.43377 0.0
O111 O 0.04917 0.89597 0.49852 0.0
O112 O 0.94554 0.04272 0.48423 0.0
O113 O 0.95873 0.00644 0.42284 0.0
O114 O 0.06264 0.01251 0.38996 0.0
O115 O 0.1181 0.04845 0.42797 0.0
O116 O 0.1489 0.02077 0.53228 0.0
O117 O 0.97703 0.00473 0.5816 0.0
O118 O 0.1172 0.95887 0.56311 0.0
O119 O 0.01524 0.94406 0.58638 0.0
C120 C 0.05841 0.1225 0.53012 0.0
C121 C 0.03231 0.8887 0.45932 0.0
C122 C 0.09991 0.03529 0.39099 0.0
C123 C 0.93367 0.02888 0.4455 0.0
C124 C 0.15018 0.98734 0.55956 0.0
C125 C 0.98614 0.96792 0.60108 0.0
O126 O 0.09017 0.10465 0.51229 0.0
O127 O 0.52013 0.12156 0.99341 0.0
Zn128 Zn 0.48709 0.06326 0.01049 0.0
O129 O 0.52561 0.0275 0.04858 0.0
Zn130 Zn 0.54142 0.97826 0.01395 0.0
Zn131 Zn 0.58038 0.06317 0.06548 0.0
Zn132 Zn 0.49431 0.00477 0.10241 0.0
O133 O 0.52896 0.92063 0.04757 0.0
O134 O 0.48889 0.9369 0.10513 0.0
O135 O 0.46555 0.03254 0.95279 0.0
O136 O 0.50842 0.97542 0.95457 0.0
O137 O 0.60536 0.98307 0.00039 0.0
O138 O 0.63506 0.03951 0.03985 0.0
O139 O 0.58973 0.06266 0.13237 0.0
O140 O 0.43393 0.07691 0.04488 0.0
O141 O 0.53079 0.02286 0.15836 0.0
O142 O 0.43337 0.03062 0.10497 0.0
C143 C 0.55435 0.14324 0.00998 0.0
C144 C 0.50703 0.90859 0.08209 0.0
C145 C 0.63884 0.00795 0.01318 0.0
C146 C 0.47906 0.99824 0.93504 0.0
C147 C 0.56788 0.04513 0.16499 0.0
C148 C 0.41576 0.06069 0.08033 0.0
O149 O 0.57874 0.12654 0.04111 0.0
O150 O 0.55599 0.52927 0.61695 0.0
Zn151 Zn 0.54539 0.55779 0.55624 0.0
O152 O 0.50815 0.51752 0.51869 0.0
Zn153 Zn 0.54337 0.50099 0.46954 0.0
Zn154 Zn 0.48805 0.4643 0.55372 0.0
Zn155 Zn 0.45669 0.54779 0.49533 0.0
O156 O 0.51851 0.52381 0.41017 0.0
O157 O 0.46283 0.56318 0.4292 0.0
O158 O 0.60475 0.57512 0.53053 0.0
O159 O 0.60573 0.52815 0.47478 0.0
O160 O 0.54914 0.43525 0.47017 0.0
O161 O 0.51492 0.40952 0.53153 0.0
O162 O 0.42149 0.45376 0.54851 0.0
O163 O 0.5155 0.61334 0.5666 0.0
O164 O 0.40004 0.50877 0.50286 0.0
O165 O 0.45046 0.60412 0.52934 0.0
C166 C 0.53646 0.49655 0.63806 0.0
C167 C 0.48801 0.54991 0.39965 0.0
C168 C 0.53788 0.40336 0.4975 0.0
C169 C 0.62475 0.55818 0.49917 0.0
C170 C 0.39116 0.47317 0.52616 0.0
C171 C 0.47743 0.62648 0.55532 0.0
O172 O 0.50716 0.47022 0.61914 0.0
O173 O 0.97761 0.51451 0.10854 0.0
Zn174 Zn 0.97414 0.489 0.04628 0.0
O175 O 0.00068 0.53262 0.00283 0.0
Zn176 Zn 0.95903 0.54543 0.95221 0.0
Zn177 Zn 0.01877 0.58767 0.03285 0.0
Zn178 Zn 0.05326 0.50904 0.98048 0.0
O179 O 0.97932 0.52122 0.8939 0.0
O180 O 0.04708 0.50242 0.91463 0.0
O181 O 0.90897 0.47701 0.03014 0.0
O182 O 0.89811 0.51663 0.96633 0.0
O183 O 0.95512 0.61278 0.94151 0.0
O184 O 0.99559 0.64005 -0.00073 0.0
O185 O 0.08499 0.59892 0.03623 0.0
O186 O 0.00524 0.43067 0.04976 0.0
O187 O 0.1088 0.54641 0.99471 0.0
O188 O 0.06341 0.44919 0.00791 0.0
C189 C 0.98579 0.55391 0.12261 0.0
C190 C 0.01654 0.50687 0.88456 0.0
C191 C 0.97187 0.64588 0.96362 0.0
C192 C 0.88374 0.49038 0.99793 0.0
C193 C 0.11642 0.58046 0.01857 0.0
C194 C 0.04191 0.42155 0.03353 0.0
O195 O 0.99878 0.58603 0.0963 0.0
H196 H 0.18665 0.13623 0.22405 0.0
H197 H 0.09184 0.04785 0.15427 0.0
H198 H 0.07405 0.00752 0.22498 0.0
H199 H 0.07731 0.00559 0.30736 0.0
H200 H 0.16984 0.09681 0.37806 0.0
H201 H 0.19712 0.12768 0.30661 0.0
C202 C 0.16348 0.10702 0.22453 0.0
C203 C 0.1408 0.09434 0.18457 0.0
C204 C 0.15231 0.08536 0.26553 0.0
C205 C 0.10993 0.05734 0.18496 0.0
C206 C 0.09945 0.03482 0.22533 0.0
C207 C 0.10386 0.03181 0.30723 0.0
C208 C 0.12085 0.04938 0.34806 0.0
C209 C 0.11906 0.0498 0.26603 0.0
C210 C 0.15578 0.0829 0.34717 0.0
C211 C 0.17141 0.10067 0.30629 0.0
H212 H 0.44585 0.91793 0.74415 0.0
H213 H 0.31253 0.89914 0.79072 0.0
H214 H 0.33387 0.94262 0.85719 0.0
H215 H 0.39335 0.97786 0.90679 0.0
H216 H 0.52839 0.98734 0.86346 0.0
H217 H 0.50413 0.95554 0.79144 0.0
C218 C 0.42153 0.92385 0.76877 0.0
C219 C 0.37777 0.90555 0.76268 0.0
C220 C 0.43469 0.94678 0.8078 0.0
C221 C 0.34621 0.91359 0.79435 0.0
C222 C 0.35861 0.93795 0.83263 0.0
C223 C 0.4171 0.97372 0.88106 0.0
C224 C 0.46246 0.98501 0.88999 0.0
C225 C 0.40309 0.95364 0.84038 0.0
C226 C 0.49329 0.97885 0.85701 0.0
C227 C 0.47947 0.96063 0.81596 0.0
H228 H 0.62576 0.45239 0.82614 0.0
H229 H 0.49811 0.48308 0.87158 0.0
H230 H 0.47244 0.4976 0.79337 0.0
H231 H 0.48682 0.4997 0.71165 0.0
H232 H 0.61728 0.47498 0.66843 0.0
H233 H 0.64205 0.4603 0.74639 0.0
C234 C 0.59271 0.46334 0.81884 0.0
C235 C 0.56381 0.46703 0.85413 0.0
C236 C 0.57884 0.47221 0.77436 0.0
C237 C 0.52069 0.48009 0.84461 0.0
C238 C 0.50615 0.48827 0.80008 0.0
C239 C 0.52055 0.49099 0.71965 0.0
C240 C 0.55024 0.48771 0.68493 0.0
C241 C 0.53485 0.48396 0.76462 0.0
C242 C 0.59408 0.47728 0.69503 0.0
C243 C 0.60817 0.46901 0.73941 0.0
H244 H 0.95174 0.55884 0.32989 0.0
H245 H 0.92118 0.69253 0.29063 0.0
H246 H 0.94681 0.68255 0.21547 0.0
H247 H 0.96881 0.63256 0.15802 0.0
H248 H 0.98874 0.4951 0.19427 0.0
H249 H 0.97537 0.5091 0.27287 0.0
C250 C 0.95174 0.58597 0.30495 0.0
C251 C 0.93576 0.62674 0.3163 0.0
C252 C 0.96337 0.57873 0.26078 0.0
C253 C 0.93498 0.66155 0.28374 0.0
C254 C 0.94876 0.65543 0.24023 0.0
C255 C 0.97069 0.60579 0.18322 0.0
C256 C 0.97956 0.56282 0.17037 0.0
C257 C 0.96169 0.61374 0.22803 0.0
C258 C 0.98152 0.52835 0.20328 0.0
C259 C 0.97409 0.53638 0.24822 0.0
H260 H 0.2542 0.17444 0.11522 0.0
H261 H 0.18503 0.04456 0.12136 0.0
H262 H 0.25562 0.00945 0.11584 0.0
H263 H 0.33678 0.0165 0.10224 0.0
H264 H 0.40274 0.14765 0.0871 0.0
H265 H 0.33395 0.18167 0.10232 0.0
C266 C 0.25463 0.13847 0.11496 0.0
C267 C 0.21455 0.11211 0.11804 0.0
C268 C 0.29488 0.11887 0.10982 0.0
C269 C 0.21557 0.06548 0.1192 0.0
C270 C 0.25587 0.04549 0.11566 0.0
C271 C 0.33598 0.05245 0.10294 0.0
C272 C 0.37464 0.07966 0.09378 0.0
C273 C 0.2957 0.07189 0.11004 0.0
C274 C 0.37328 0.12619 0.09404 0.0
C275 C 0.33401 0.14563 0.10269 0.0
H276 H 0.33782 0.95007 0.64449 0.0
H277 H 0.25553 0.8699 0.73482 0.0
H278 H 0.18927 0.90329 0.70312 0.0
H279 H 0.15445 0.94271 0.63955 0.0
H280 H 0.23589 0.01888 0.54442 0.0
H281 H 0.30296 -0.00022 0.58763 0.0
C282 C 0.30551 0.94199 0.65856 0.0
C283 C 0.30117 0.90835 0.69225 0.0
C284 C 0.26746 0.9592 0.63796 0.0
C285 C 0.25935 0.89663 0.70967 0.0
C286 C 0.22151 0.91496 0.69081 0.0
C287 C 0.18687 0.95556 0.62853 0.0
C288 C 0.19039 0.98111 0.58825 0.0
C289 C 0.22504 0.94418 0.65323 0.0
C290 C 0.23244 0.99857 0.575 0.0
C291 C 0.27075 0.98771 0.59971 0.0
H292 H 0.67605 0.47665 0.01064 0.0
H293 H 0.68751 0.37695 0.91259 0.0
H294 H 0.76878 0.38416 0.92192 0.0
H295 H 0.83653 0.42659 0.95088 0.0
H296 H 0.82466 0.52738 0.04817 0.0
H297 H 0.74372 0.51272 0.04633 0.0
C298 C 0.6966 0.45567 0.99257 0.0
C299 C 0.67641 0.42617 0.9613 0.0
C300 C 0.74309 0.46114 0.99721 0.0
C301 C 0.70277 0.3993 0.93735 0.0
C302 C 0.74909 0.40396 0.94221 0.0
C303 C 0.81602 0.44478 0.97197 0.0
C304 C 0.83588 0.47821 -0.00071 0.0
C305 C 0.76963 0.43597 0.97082 0.0
C306 C 0.80958 0.50163 0.02681 0.0
C307 C 0.76347 0.49323 0.02578 0.0
H308 H 0.80485 0.6577 0.44379 0.0
H309 H 0.83996 0.52285 0.42909 0.0
H310 H 0.76704 0.49442 0.45552 0.0
H311 H 0.69181 0.50884 0.47817 0.0
H312 H 0.65962 0.64376 0.49934 0.0
H313 H 0.7337 0.67171 0.47618 0.0
C314 C 0.79701 0.62212 0.44781 0.0
C315 C 0.82743 0.59225 0.43466 0.0
C316 C 0.75568 0.60629 0.46388 0.0
C317 C 0.81665 0.54621 0.43885 0.0
C318 C 0.77513 0.5301 0.45389 0.0
C319 C 0.70133 0.5443 0.47803 0.0
C320 C 0.67053 0.5744 0.48976 0.0
C321 C 0.7441 0.55991 0.46566 0.0
C322 C 0.68305 0.62017 0.4903 0.0
C323 C 0.72521 0.63609 0.47695 0.0
H324 H 0.16007 0.26321 0.09025 0.0
H325 H 0.03415 0.18754 0.07787 0.0
H326 H 0.99709 0.2559 0.05781 0.0
H327 H 0.00098 0.33803 0.04465 0.0
H328 H 0.12892 0.41141 0.05092 0.0
H329 H 0.16492 0.34329 0.07189 0.0
C330 C 0.12472 0.26163 0.08211 0.0
C331 C 0.09982 0.2206 0.08547 0.0
C332 C 0.10403 0.30076 0.06981 0.0
C333 C 0.05381 0.21899 0.07586 0.0
C334 C 0.03272 0.258 0.06438 0.0
C335 C 0.03667 0.3389 0.05078 0.0
C336 C 0.06226 0.3796 0.0466 0.0
C337 C 0.05746 0.29923 0.06163 0.0
C338 C 0.10858 0.38039 0.05391 0.0
C339 C 0.12921 0.34149 0.06591 0.0
H340 H 0.5885 0.32302 0.89918 0.0
H341 H 0.61796 0.37307 0.03128 0.0
H342 H 0.61133 0.29659 0.06369 0.0
H343 H 0.58831 0.21636 0.05458 0.0
H344 H 0.54858 0.16993 0.92262 0.0
H345 H 0.5666 0.24414 0.88982 0.0
C346 C 0.59322 0.31702 0.93509 0.0
C347 C 0.60237 0.35327 0.96316 0.0
C348 C 0.58667 0.27373 0.95336 0.0
C349 C 0.61039 0.34538 0.00933 0.0
C350 C 0.60619 0.30184 0.02774 0.0
C351 C 0.58397 0.22263 0.01865 0.0
C352 C 0.56693 0.188 0.99098 0.0
C353 C 0.59289 0.26588 0.0002 0.0
C354 C 0.56116 0.19631 0.94453 0.0
C355 C 0.57165 0.2386 0.92576 0.0
H356 H 0.0013 0.68137 0.43257 0.0
H357 H 0.89344 0.72754 0.34942 0.0
H358 H 0.9228 0.80467 0.35689 0.0
H359 H 0.97243 0.85891 0.39584 0.0
H360 H 0.07325 0.81429 0.49007 0.0
H361 H 0.05352 0.73681 0.47034 0.0
C362 C 0.98552 0.7085 0.41492 0.0
C363 C 0.94688 0.69901 0.38825 0.0
C364 C 0.00065 0.75299 0.42261 0.0
C365 C 0.92487 0.73418 0.36751 0.0
C366 C 0.94106 0.77823 0.37275 0.0
C367 C 0.9907 0.83236 0.41152 0.0
C368 C 0.02419 0.84233 0.44441 0.0
C369 C 0.97807 0.78806 0.40135 0.0
C370 C 0.04712 0.80743 0.46482 0.0
C371 C 0.03588 0.76316 0.45352 0.0
H372 H 0.45115 0.80501 0.65276 0.0
H373 H 0.31949 0.74231 0.66521 0.0
H374 H 0.33988 0.67867 0.62309 0.0
H375 H 0.39554 0.64104 0.5829 0.0
H376 H 0.52905 0.70122 0.57538 0.0
H377 H 0.50786 0.76589 0.61519 0.0
C378 C 0.42735 0.77701 0.64665 0.0
C379 C 0.38396 0.77807 0.66157 0.0
C380 C 0.43955 0.74052 0.62294 0.0
C381 C 0.35295 0.74205 0.65341 0.0
C382 C 0.3646 0.70584 0.6294 0.0
C383 C 0.41974 0.66864 0.58952 0.0
C384 C 0.46355 0.66685 0.57584 0.0
C385 C 0.40772 0.70489 0.6137 0.0
C386 C 0.49502 0.70217 0.58546 0.0
C387 C 0.483 0.73899 0.60833 0.0
H388 H 0.85526 0.91741 0.75685 0.0
H389 H 0.97791 0.8936 0.82897 0.0
H390 H 0.01852 0.9056 0.75904 0.0
H391 H 0.01969 0.93221 0.67915 0.0
H392 H 0.89771 0.96834 0.61199 0.0
H393 H 0.85614 0.94398 0.6784 0.0
C394 C 0.89092 0.91509 0.75717 0.0
C395 C 0.91382 0.90564 0.79791 0.0
C396 C 0.91408 0.92525 0.71787 0.0
C397 C 0.95972 0.90088 0.79786 0.0
C398 C 0.98289 0.90832 0.75806 0.0
C399 C 0.98397 0.93437 0.67917 0.0
C400 C 0.9616 0.95206 0.64102 0.0
C401 C 0.96058 0.92202 0.71818 0.0
C402 C 0.91547 0.95517 0.64125 0.0
C403 C 0.89175 0.94106 0.67904 0.0
H404 H 0.61119 0.07154 0.37164 0.0
H405 H 0.72338 0.14866 0.31758 0.0
H406 H 0.70285 0.12268 0.24221 0.0
H407 H 0.64675 0.08764 0.19076 0.0
H408 H 0.53031 0.01576 0.24398 0.0
H409 H 0.55807 0.03066 0.32046 0.0
C410 C 0.63157 0.08153 0.34332 0.0
C411 C 0.66872 0.11167 0.34986 0.0
C412 C 0.61797 0.06855 0.29986 0.0
C413 C 0.69515 0.12478 0.31333 0.0
C414 C 0.68289 0.11058 0.27017 0.0
C415 C 0.62749 0.07488 0.21901 0.0
C416 C 0.58608 0.05124 0.21149 0.0
C417 C 0.64333 0.08404 0.26284 0.0
C418 C 0.562 0.03452 0.24867 0.0
C419 C 0.57791 0.04291 0.29246 0.0
H420 H 0.48234 0.59239 0.19011 0.0
H421 H 0.36599 0.6564 0.22456 0.0
H422 H 0.38138 0.64016 0.30467 0.0
H423 H 0.4244 0.60182 0.36374 0.0
H424 H 0.53856 0.53308 0.32859 0.0
H425 H 0.52765 0.55663 0.25 0.0
C426 C 0.46137 0.60371 0.21558 0.0
C427 C 0.42404 0.62665 0.20228 0.0
C428 C 0.46952 0.59251 0.26116 0.0
C429 C 0.39575 0.64005 0.23475 0.0
C430 C 0.40421 0.63015 0.28027 0.0
C431 C 0.44708 0.59216 0.339 0.0
C432 C 0.48202 0.56539 0.35214 0.0
C433 C 0.44044 0.60548 0.29376 0.0
C434 C 0.51113 0.55335 0.31949 0.0
C435 C 0.50504 0.56691 0.27449 0.0
H436 H 0.02779 0.44664 0.68344 0.0
H437 H 0.16321 0.43311 0.72956 0.0
H438 H 0.14739 0.46129 0.80269 0.0
H439 H 0.09515 0.48672 0.85385 0.0
H440 H 0.95817 0.49909 0.81116 0.0
H441 H 0.97432 0.4746 0.73606 0.0
C442 C 0.05358 0.45044 0.70963 0.0
C443 C 0.09672 0.4388 0.70138 0.0
C444 C 0.04393 0.46607 0.75194 0.0
C445 C 0.13012 0.44297 0.73527 0.0
C446 C 0.12099 0.4587 0.77701 0.0
C447 C 0.0686 0.48418 0.82827 0.0
C448 C 0.02542 0.49439 0.83827 0.0
C449 C 0.07801 0.46996 0.78576 0.0
C450 C 0.99172 0.49132 0.80438 0.0
C451 C 0.00092 0.47725 0.7615 0.0
H452 H 0.83552 0.97208 0.9659 0.0
H453 H 0.76563 0.91783 0.84941 0.0
H454 H 0.69502 0.9396 0.87667 0.0
H455 H 0.65337 0.97079 0.9349 0.0
H456 H 0.72182 0.02748 0.05149 0.0
H457 H 0.79323 0.00859 0.02301 0.0
C458 C 0.80467 0.96566 0.94666 0.0
C459 C 0.80504 0.94363 0.90594 0.0
C460 C 0.76436 0.97848 0.96259 0.0
C461 C 0.76544 0.93506 0.88075 0.0
C462 C 0.72534 0.94731 0.89638 0.0
C463 C 0.68391 0.97908 0.95412 0.0
C464 C 0.68243 -0.0001 0.99546 0.0
C465 C 0.72439 0.9685 0.93747 0.0
C466 C 0.72226 0.0113 0.01958 0.0
C467 C 0.76297 0.00039 0.00339 0.0
H468 H 0.73112 0.05974 0.42002 0.0
H469 H 0.78572 0.19315 0.39128 0.0
H470 H 0.86082 0.16731 0.3928 0.0
H471 H 0.9113 0.10856 0.41266 0.0
H472 H 0.85793 0.97461 0.44111 0.0
H473 H 0.78201 0.99814 0.42871 0.0
C474 C 0.75956 0.08268 0.41316 0.0
C475 C 0.75349 0.12834 0.40681 0.0
C476 C 0.8027 0.06744 0.41427 0.0
C477 C 0.79016 0.15805 0.39749 0.0
C478 C 0.83294 0.14327 0.39823 0.0
C479 C 0.88296 0.0844 0.41473 0.0
C480 C 0.88975 0.04003 0.42735 0.0
C481 C 0.83972 0.09835 0.40816 0.0
C482 C 0.85314 0.00887 0.43075 0.0
C483 C 0.80984 0.02242 0.42408 0.0
H484 H 0.29929 0.66343 0.09548 0.0
H485 H 0.34501 0.5439 0.04344 0.0
H486 H 0.27022 0.52404 0.01122 0.0
H487 H 0.19122 0.53885 0.00316 0.0
H488 H 0.14571 0.658 0.05818 0.0
H489 H 0.22146 0.68061 0.08344 0.0
C490 C 0.29269 0.63351 0.07633 0.0
C491 C 0.32686 0.60509 0.07124 0.0
C492 C 0.24995 0.62241 0.05876 0.0
C493 C 0.31868 0.566 0.04724 0.0
C494 C 0.27615 0.55481 0.02908 0.0
C495 C 0.19792 0.57008 0.02012 0.0
C496 C 0.16282 0.59656 0.02906 0.0
C497 C 0.24139 0.58247 0.03531 0.0
C498 C 0.17207 0.63686 0.05117 0.0
C499 C 0.21533 0.6498 0.06569 0.0
H500 H 0.18307 0.43271 0.53038 0.0
H501 H 0.22191 0.36755 0.65483 0.0
H502 H 0.3002 0.37916 0.63669 0.0
H503 H 0.35732 0.41625 0.5904 0.0
H504 H 0.31968 0.49132 0.47061 0.0
H505 H 0.24143 0.46787 0.48158 0.0
C506 C 0.20889 0.41969 0.55234 0.0
C507 C 0.19707 0.39706 0.59259 0.0
C508 C 0.25397 0.42939 0.543 0.0
C509 C 0.23054 0.38272 0.62252 0.0
C510 C 0.27517 0.39014 0.61253 0.0
C511 C 0.33213 0.42693 0.56622 0.0
C512 C 0.34433 0.45561 0.52987 0.0
C513 C 0.28729 0.41457 0.57352 0.0
C514 C 0.31114 0.46947 0.49912 0.0
C515 C 0.26639 0.45604 0.50533 0.0
H516 H 0.95101 0.85201 0.93423 0.0
H517 H 0.87494 0.80754 0.8175 0.0
H518 H 0.89522 0.73061 0.83358 0.0
H519 H 0.92769 0.67515 0.88669 0.0
H520 H 0.00089 0.72192 0.0055 0.0
H521 H 0.98836 0.79841 0.98325 0.0
C522 C 0.94009 0.82545 0.91179 0.0
C523 C 0.91195 0.83492 0.87477 0.0
C524 C 0.95042 0.78157 0.92237 0.0
C525 C 0.89726 0.80071 0.84583 0.0
C526 C 0.9083 0.75679 0.85548 0.0
C527 C 0.94104 0.70208 0.90757 0.0
C528 C 0.9647 0.69241 0.94808 0.0
C529 C 0.93363 0.74657 0.89463 0.0
C530 C 0.98217 0.72797 0.97441 0.0
C531 C 0.97521 0.77196 0.96167 0.0
H532 H 0.49373 0.69912 0.09297 0.0
H533 H 0.38768 0.7222 0.1796 0.0
H534 H 0.40943 0.80212 0.1785 0.0
H535 H 0.4509 0.86624 0.14233 0.0
H536 H 0.55305 0.84255 0.04992 0.0
H537 H 0.54063 0.76255 0.06336 0.0
C538 C 0.47673 0.72174 0.11287 0.0
C539 C 0.43992 0.70518 0.13702 0.0
C540 C 0.48788 0.76772 0.10979 0.0
C541 C 0.41701 0.73433 0.16197 0.0
C542 C 0.4289 0.78008 0.16052 0.0
C543 C 0.47087 0.84361 0.12566 0.0
C544 C 0.50224 0.86045 0.09454 0.0
C545 C 0.46308 0.79735 0.13293 0.0
C546 C 0.52805 0.83058 0.07343 0.0
C547 C 0.52115 0.78473 0.0812 0.0
H548 H 0.05305 0.32534 0.57534 0.0
H549 H 0.1889 0.30551 0.61568 0.0
H550 H 0.18157 0.23065 0.58747 0.0
H551 H 0.13457 0.16786 0.55746 0.0
H552 H 0.99531 0.18308 0.52839 0.0
H553 H 0.00521 0.26181 0.54734 0.0
C554 C 0.08107 0.3046 0.5775 0.0
C555 C 0.12187 0.32178 0.59633 0.0
C556 C 0.07555 0.2602 0.56423 0.0
C557 C 0.15785 0.29452 0.59947 0.0
C558 C 0.15332 0.25103 0.58418 0.0
C559 C 0.10649 0.18855 0.55504 0.0
C560 C 0.06432 0.1699 0.54155 0.0
C561 C 0.11213 0.23326 0.5673 0.0
C562 C 0.02803 0.19676 0.53905 0.0
C563 C 0.03372 0.24174 0.54965 0.0
H564 H 0.59176 0.20423 0.48689 0.0
H565 H 0.69611 0.27087 0.41015 0.0
H566 H 0.66654 0.34308 0.42195 0.0
H567 H 0.60984 0.38652 0.45168 0.0
H568 H 0.50545 0.32153 0.53031 0.0
H569 H 0.5358 0.24916 0.52013 0.0
C570 C 0.60804 0.23484 0.4735 0.0
C571 C 0.64612 0.23286 0.44818 0.0
C572 C 0.59055 0.27613 0.48022 0.0
C573 C 0.66714 0.27221 0.43032 0.0
C574 C 0.65003 0.31323 0.43672 0.0
C575 C 0.59348 0.35653 0.46641 0.0
C576 C 0.55512 0.35927 0.4912 0.0
C577 C 0.61149 0.31549 0.46112 0.0
C578 C 0.5349 0.3202 0.51085 0.0
C579 C 0.55228 0.27889 0.5051 0.0
loop_
_geom_bond_atom_site_label_1
_geom_bond_atom_site_label_2
_geom_bond_distance
_geom_bond_site_symmetry_2
_ccdc_geom_bond_type
C0 N1 1.317 . S
C0 N2 1.348 . S
C0 C3 1.485 . S
N1 C0 1.317 . S
N1 N5 1.370 . S
N2 C0 1.348 . S
N2 C4 1.346 . S
C3 C0 1.485 . S
C3 H7 0.960 . S
C3 H8 0.961 . S
C3 H9 0.960 . S
C4 N2 1.346 . S
C4 N5 1.307 . S
C4 C6 1.486 . S
N5 N1 1.370 . S
N5 C4 1.307 . S
C6 C4 1.486 . S
C6 H10 0.960 . S
C6 H11 0.960 . S
C6 H12 0.959 . S
H7 C3 0.960 . S
H8 C3 0.961 . S
H9 C3 0.960 . S
H10 C6 0.960 . S
H11 C6 0.960 . S
H12 C6 0.959 . S
C13 N14 1.317 . S
C13 N15 1.348 . S
C13 C16 1.485 . S
N14 C13 1.317 . S
N14 N18 1.370 . S
N15 C13 1.348 . S
N15 C17 1.346 . S
C16 C13 1.485 . S
C16 H20 0.960 . S
C16 H21 0.961 . S
C16 H22 0.960 . S
C17 N15 1.346 . S
C17 N18 1.307 . S
C17 C19 1.486 . S
N18 N14 1.370 . S
N18 C17 1.307 . S
C19 C17 1.486 . S
C19 H23 0.960 . S
C19 H24 0.960 . S
C19 H25 0.959 . S
H20 C16 0.960 . S
H21 C16 0.961 . S
H22 C16 0.960 . S
H23 C19 0.960 . S
H24 C19 0.960 . S
H25 C19 0.959 . S
C26 N27 1.317 . S
C26 N28 1.348 . S
C26 C29 1.485 . S
N27 C26 1.317 . S
N27 N31 1.370 . S
N28 C26 1.348 . S
N28 C30 1.346 . S
C29 C26 1.485 . S
C29 H33 0.960 . S
C29 H34 0.961 . S
C29 H35 0.960 . S
C30 N28 1.346 . S
C30 N31 1.307 . S
C30 C32 1.486 . S
N31 N27 1.370 . S
N31 C30 1.307 . S
C32 C30 1.486 . S
C32 H36 0.960 . S
C32 H37 0.960 . S
C32 H38 0.959 . S
H33 C29 0.960 . S
H34 C29 0.961 . S
H35 C29 0.960 . S
H36 C32 0.960 . S
H37 C32 0.960 . S
H38 C32 0.959 . S
C39 N40 1.317 . S
C39 N41 1.348 . S
C39 C42 1.485 . S
N40 C39 1.317 . S
N40 N44 1.370 . S
N41 C39 1.348 . S
N41 C43 1.346 . S
C42 C39 1.485 . S
C42 H46 0.960 . S
C42 H47 0.961 . S
C42 H48 0.960 . S
C43 N41 1.346 . S
C43 N44 1.307 . S
C43 C45 1.486 . S
N44 N40 1.370 . S
N44 C43 1.307 . S
C45 C43 1.486 . S
C45 H49 0.960 . S
C45 H50 0.960 . S
C45 H51 0.959 . S
H46 C42 0.960 . S
H47 C42 0.961 . S
H48 C42 0.960 . S
H49 C45 0.960 . S
H50 C45 0.960 . S
H51 C45 0.959 . S
C52 N53 1.317 . S
C52 N54 1.348 . S
C52 C55 1.485 1_556 S
N53 C52 1.317 . S
N53 N57 1.370 . S
N54 C52 1.348 . S
N54 C56 1.346 . S
C55 C52 1.485 1_554 S
C55 H59 0.960 1_554 S
C55 H60 0.961 . S
C55 H61 0.960 . S
C56 N54 1.346 . S
C56 N57 1.307 . S
C56 C58 1.486 1_565 S
N57 N53 1.370 . S
N57 C56 1.307 . S
C58 C56 1.486 1_545 S
C58 H62 0.960 . S
C58 H63 0.960 . S
C58 H64 0.959 . S
H59 C55 0.960 1_556 S
H60 C55 0.961 . S
H61 C55 0.960 . S
H62 C58 0.960 . S
H63 C58 0.960 . S
H64 C58 0.959 . S
C65 N66 1.317 . S
C65 N67 1.348 . S
C65 C68 1.485 . S
N66 C65 1.317 . S
N66 N70 1.370 . S
N67 C65 1.348 . S
N67 C69 1.346 . S
C68 C65 1.485 . S
C68 H72 0.960 . S
C68 H73 0.961 . S
C68 H74 0.960 . S
C69 N67 1.346 . S
C69 N70 1.307 . S
C69 C71 1.486 . S
N70 N66 1.370 . S
N70 C69 1.307 . S
C71 C69 1.486 . S
C71 H75 0.960 . S
C71 H76 0.960 . S
C71 H77 0.959 . S
H72 C68 0.960 . S
H73 C68 0.961 . S
H74 C68 0.960 . S
H75 C71 0.960 . S
H76 C71 0.960 . S
H77 C71 0.959 . S
C78 N79 1.317 . S
C78 N80 1.348 . S
C78 C81 1.485 . S
N79 C78 1.317 . S
N79 N83 1.370 . S
N80 C78 1.348 . S
N80 C82 1.346 . S
C81 C78 1.485 . S
C81 H85 0.960 . S
C81 H86 0.961 . S
C81 H87 0.960 . S
C82 N80 1.346 . S
C82 N83 1.307 . S
C82 C84 1.486 . S
N83 N79 1.370 . S
N83 C82 1.307 . S
C84 C82 1.486 . S
C84 H88 0.960 . S
C84 H89 0.960 . S
C84 H90 0.959 . S
H85 C81 0.960 . S
H86 C81 0.961 . S
H87 C81 0.960 . S
H88 C84 0.960 . S
H89 C84 0.960 . S
H90 C84 0.959 . S
C91 N92 1.317 . S
C91 N93 1.348 . S
C91 C94 1.485 . S
N92 C91 1.317 . S
N92 N96 1.370 . S
N93 C91 1.348 . S
N93 C95 1.346 . S
C94 C91 1.485 . S
C94 H98 0.960 . S
C94 H99 0.961 . S
C94 H100 0.960 . S
C95 N93 1.346 . S
C95 N96 1.307 . S
C95 C97 1.486 . S
N96 N92 1.370 . S
N96 C95 1.307 . S
C97 C95 1.486 . S
C97 H101 0.960 . S
C97 H102 0.960 . S
C97 H103 0.959 . S
H98 C94 0.960 . S
H99 C94 0.961 . S
H100 C94 0.960 . S
H101 C97 0.960 . S
H102 C97 0.960 . S
H103 C97 0.959 . S
O104 Zn105 1.953 . S
O104 C120 1.225 . S
Zn105 O104 1.953 . S
Zn105 O106 1.949 . S
Zn105 O112 1.919 1_455 S
Zn105 O117 1.924 1_455 S
O106 Zn105 1.949 . S
O106 Zn107 1.923 1_545 S
O106 Zn108 1.950 . S
O106 Zn109 1.945 1_545 S
Zn107 O106 1.923 1_565 S
Zn107 O110 1.933 . S
Zn107 O113 1.941 1_465 S
Zn107 O114 1.965 1_565 S
Zn108 O106 1.950 . S
Zn108 O115 1.938 . S
Zn108 O116 1.918 . S
Zn108 O126 1.953 . S
Zn109 O106 1.945 1_565 S
Zn109 O111 1.932 . S
Zn109 O118 1.977 . S
Zn109 O119 1.910 . S
O110 Zn107 1.933 . S
O110 C121 1.226 . S
O111 Zn109 1.932 . S
O111 C121 1.307 . S
O112 Zn105 1.919 1_655 S
O112 C123 1.253 . S
O113 Zn107 1.941 1_645 S
O113 C123 1.283 . S
O114 Zn107 1.965 1_545 S
O114 C122 1.303 . S
O115 Zn108 1.938 . S
O115 C122 1.247 . S
O116 Zn108 1.918 . S
O116 C124 1.287 1_545 S
O117 Zn105 1.924 1_655 S
O117 C125 1.311 1_645 S
O118 Zn109 1.977 . S
O118 C124 1.272 . S
O119 Zn109 1.910 . S
O119 C125 1.231 . S
C120 O104 1.225 . S
C120 O126 1.298 . S
C121 O110 1.226 . S
C121 O111 1.307 . S
C122 O114 1.303 . S
C122 O115 1.247 . S
C123 O112 1.253 . S
C123 O113 1.283 . S
C124 O116 1.287 1_565 S
C124 O118 1.272 . S
C125 O117 1.311 1_465 S
C125 O119 1.231 . S
O126 Zn108 1.953 . S
O126 C120 1.298 . S
O127 Zn128 1.953 1_556 S
O127 C143 1.225 1_556 S
Zn128 O127 1.953 1_554 S
Zn128 O129 1.949 . S
Zn128 O135 1.919 1_554 S
Zn128 O140 1.924 . S
O129 Zn128 1.949 . S
O129 Zn130 1.923 1_545 S
O129 Zn131 1.950 . S
O129 Zn132 1.945 . S
Zn130 O129 1.923 1_565 S
Zn130 O133 1.933 . S
Zn130 O136 1.941 1_554 S
Zn130 O137 1.965 . S
Zn131 O129 1.950 . S
Zn131 O138 1.938 . S
Zn131 O139 1.906 . S
Zn131 O149 1.953 . S
Zn132 O129 1.945 . S
Zn132 O134 1.932 1_545 S
Zn132 O141 1.977 . S
Zn132 O142 1.910 . S
O133 Zn130 1.933 . S
O133 C144 1.226 . S
O134 Zn132 1.932 1_565 S
O134 C144 1.307 . S
O135 Zn128 1.919 1_556 S
O135 C146 1.253 1_545 S
O136 Zn130 1.941 1_556 S
O136 C146 1.283 . S
O137 Zn130 1.965 . S
O137 C145 1.303 1_565 S
O138 Zn131 1.938 . S
O138 C145 1.247 . S
O139 Zn131 1.906 . S
O139 C147 1.304 . S
O140 Zn128 1.924 . S
O140 C148 1.311 . S
O141 Zn132 1.977 . S
O141 C147 1.272 . S
O142 Zn132 1.910 . S
O142 C148 1.231 . S
C143 O127 1.225 1_554 S
C143 O149 1.298 . S
C144 O133 1.226 . S
C144 O134 1.307 . S
C145 O137 1.303 1_545 S
C145 O138 1.247 . S
C146 O135 1.253 1_565 S
C146 O136 1.283 . S
C147 O139 1.304 . S
C147 O141 1.272 . S
C148 O140 1.311 . S
C148 O142 1.231 . S
O149 Zn131 1.953 . S
O149 C143 1.298 . S
O150 Zn151 1.953 . S
O150 C166 1.225 . S
Zn151 O150 1.953 . S
Zn151 O152 1.949 . S
Zn151 O158 1.919 . S
Zn151 O163 1.924 . S
O152 Zn151 1.949 . S
O152 Zn153 1.923 . S
O152 Zn154 1.950 . S
O152 Zn155 1.945 . S
Zn153 O152 1.923 . S
Zn153 O156 1.933 . S
Zn153 O159 1.941 . S
Zn153 O160 1.965 . S
Zn154 O152 1.950 . S
Zn154 O161 1.938 . S
Zn154 O162 1.906 . S
Zn154 O172 1.953 . S
Zn155 O152 1.945 . S
Zn155 O157 1.932 . S
Zn155 O164 1.977 . S
Zn155 O165 1.910 . S
O156 Zn153 1.933 . S
O156 C167 1.226 . S
O157 Zn155 1.932 . S
O157 C167 1.307 . S
O158 Zn151 1.919 . S
O158 C169 1.253 . S
O159 Zn153 1.941 . S
O159 C169 1.283 . S
O160 Zn153 1.965 . S
O160 C168 1.303 . S
O161 Zn154 1.938 . S
O161 C168 1.247 . S
O162 Zn154 1.906 . S
O162 C170 1.304 . S
O163 Zn151 1.924 . S
O163 C171 1.311 . S
O164 Zn155 1.977 . S
O164 C170 1.272 . S
O165 Zn155 1.910 . S
O165 C171 1.231 . S
C166 O150 1.225 . S
C166 O172 1.298 . S
C167 O156 1.226 . S
C167 O157 1.307 . S
C168 O160 1.303 . S
C168 O161 1.247 . S
C169 O158 1.253 . S
C169 O159 1.283 . S
C170 O162 1.304 . S
C170 O164 1.272 . S
C171 O163 1.311 . S
C171 O165 1.231 . S
O172 Zn154 1.953 . S
O172 C166 1.298 . S
O173 Zn174 1.953 . S
O173 C189 1.225 . S
Zn174 O173 1.953 . S
Zn174 O175 1.949 1_655 S
Zn174 O181 1.919 . S
Zn174 O186 1.924 . S
O175 Zn174 1.949 1_455 S
O175 Zn176 1.923 1_454 S
O175 Zn177 1.950 . S
O175 Zn178 1.945 1_554 S
Zn176 O175 1.923 1_656 S
Zn176 O179 1.933 1_655 S
Zn176 O182 1.941 . S
Zn176 O183 1.965 . S
Zn177 O175 1.950 . S
Zn177 O184 1.938 . S
Zn177 O185 1.906 . S
Zn177 O195 1.953 . S
Zn178 O175 1.945 1_556 S
Zn178 O180 1.932 . S
Zn178 O187 1.977 1_556 S
Zn178 O188 1.910 1_556 S
O179 Zn176 1.933 1_455 S
O179 C190 1.226 . S
O180 Zn178 1.932 . S
O180 C190 1.307 . S
O181 Zn174 1.919 . S
O181 C192 1.253 1_554 S
O182 Zn176 1.941 . S
O182 C192 1.283 . S
O183 Zn176 1.965 . S
O183 C191 1.303 . S
O184 Zn177 1.938 . S
O184 C191 1.247 1_454 S
O185 Zn177 1.906 . S
O185 C193 1.304 . S
O186 Zn174 1.924 . S
O186 C194 1.311 1_655 S
O187 Zn178 1.977 1_554 S
O187 C193 1.272 . S
O188 Zn178 1.910 1_554 S
O188 C194 1.231 . S
C189 O173 1.225 . S
C189 O195 1.298 1_655 S
C190 O179 1.226 . S
C190 O180 1.307 . S
C191 O183 1.303 . S
C191 O184 1.247 1_656 S
C192 O181 1.253 1_556 S
C192 O182 1.283 . S
C193 O185 1.304 . S
C193 O187 1.272 . S
C194 O186 1.311 1_455 S
C194 O188 1.231 . S
O195 Zn177 1.953 . S
O195 C189 1.298 1_455 S
H196 C202 0.930 . S
H197 C205 0.930 . S
H198 C206 0.930 . S
H199 C207 0.930 . S
H200 C210 0.930 . S
H201 C211 0.930 . S
C202 H196 0.930 . S
C202 C203 1.355 . S
C202 C204 1.415 . S
C203 C202 1.355 . S
C203 C205 1.419 . S
C204 C202 1.415 . S
C204 C209 1.425 . S
C204 C211 1.409 . S
C205 H197 0.930 . S
C205 C203 1.419 . S
C205 C206 1.362 . S
C206 H198 0.930 . S
C206 C205 1.362 . S
C206 C209 1.409 . S
C207 H199 0.930 . S
C207 C208 1.355 . S
C207 C209 1.415 . S
C208 C207 1.355 . S
C208 C210 1.419 . S
C209 C204 1.425 . S
C209 C206 1.409 . S
C209 C207 1.415 . S
C210 H200 0.930 . S
C210 C208 1.419 . S
C210 C211 1.362 . S
C211 H201 0.930 . S
C211 C204 1.409 . S
C211 C210 1.362 . S
H212 C218 0.930 . S
H213 C221 0.930 . S
H214 C222 0.930 . S
H215 C223 0.930 . S
H216 C226 0.930 . S
H217 C227 0.930 . S
C218 H212 0.930 . S
C218 C219 1.355 . S
C218 C220 1.415 . S
C219 C218 1.355 . S
C219 C221 1.419 . S
C220 C218 1.415 . S
C220 C225 1.425 . S
C220 C227 1.409 . S
C221 H213 0.930 . S
C221 C219 1.419 . S
C221 C222 1.362 . S
C222 H214 0.930 . S
C222 C221 1.362 . S
C222 C225 1.409 . S
C223 H215 0.930 . S
C223 C224 1.355 . S
C223 C225 1.415 . S
C224 C223 1.355 . S
C224 C226 1.419 . S
C225 C220 1.425 . S
C225 C222 1.409 . S
C225 C223 1.415 . S
C226 H216 0.930 . S
C226 C224 1.419 . S
C226 C227 1.362 . S
C227 H217 0.930 . S
C227 C220 1.409 . S
C227 C226 1.362 . S
H228 C234 0.930 . S
H229 C237 0.930 . S
H230 C238 0.930 . S
H231 C239 0.930 . S
H232 C242 0.930 . S
H233 C243 0.930 . S
C234 H228 0.930 . S
C234 C235 1.355 . S
C234 C236 1.415 . S
C235 C234 1.355 . S
C235 C237 1.419 . S
C236 C234 1.415 . S
C236 C241 1.425 . S
C236 C243 1.409 . S
C237 H229 0.930 . S
C237 C235 1.419 . S
C237 C238 1.362 . S
C238 H230 0.930 . S
C238 C237 1.362 . S
C238 C241 1.409 . S
C239 H231 0.930 . S
C239 C240 1.355 . S
C239 C241 1.415 . S
C240 C239 1.355 . S
C240 C242 1.419 . S
C241 C236 1.425 . S
C241 C238 1.409 . S
C241 C239 1.415 . S
C242 H232 0.930 . S
C242 C240 1.419 . S
C242 C243 1.362 . S
C243 H233 0.930 . S
C243 C236 1.409 . S
C243 C242 1.362 . S
H244 C250 0.930 . S
H245 C253 0.930 . S
H246 C254 0.930 . S
H247 C255 0.930 . S
H248 C258 0.930 . S
H249 C259 0.921 1_455 S
C250 H244 0.930 . S
C250 C251 1.355 . S
C250 C252 1.415 . S
C251 C250 1.355 . S
C251 C253 1.419 . S
C252 C250 1.415 . S
C252 C257 1.425 . S
C252 C259 1.420 . S
C253 H245 0.930 . S
C253 C251 1.419 . S
C253 C254 1.362 . S
C254 H246 0.930 . S
C254 C253 1.362 . S
C254 C257 1.409 . S
C255 H247 0.930 . S
C255 C256 1.355 . S
C255 C257 1.415 . S
C256 C255 1.355 . S
C256 C258 1.419 1_655 S
C257 C252 1.425 . S
C257 C254 1.409 . S
C257 C255 1.415 . S
C258 H248 0.930 . S
C258 C256 1.419 1_455 S
C258 C259 1.361 1_455 S
C259 H249 0.921 1_655 S
C259 C252 1.420 . S
C259 C258 1.361 1_655 S
H260 C266 0.930 . S
H261 C269 0.930 . S
H262 C270 0.930 . S
H263 C271 0.930 . S
H264 C274 0.930 . S
H265 C275 0.930 . S
C266 H260 0.930 . S
C266 C267 1.355 . S
C266 C268 1.415 . S
C267 C266 1.355 . S
C267 C269 1.419 . S
C268 C266 1.415 . S
C268 C273 1.425 . S
C268 C275 1.409 . S
C269 H261 0.930 . S
C269 C267 1.419 . S
C269 C270 1.362 . S
C270 H262 0.930 . S
C270 C269 1.362 . S
C270 C273 1.409 . S
C271 H263 0.930 . S
C271 C272 1.355 . S
C271 C273 1.415 . S
C272 C271 1.355 . S
C272 C274 1.419 . S
C273 C268 1.425 . S
C273 C270 1.409 . S
C273 C271 1.415 . S
C274 H264 0.930 . S
C274 C272 1.419 . S
C274 C275 1.362 . S
C275 H265 0.930 . S
C275 C268 1.409 . S
C275 C274 1.362 . S
H276 C282 0.930 . S
H277 C285 0.930 . S
H278 C286 0.930 . S
H279 C287 0.930 . S
H280 C290 0.930 . S
H281 C291 0.930 . S
C282 H276 0.930 . S
C282 C283 1.355 . S
C282 C284 1.415 . S
C283 C282 1.355 . S
C283 C285 1.419 . S
C284 C282 1.415 . S
C284 C289 1.425 . S
C284 C291 1.409 . S
C285 H277 0.930 . S
C285 C283 1.419 . S
C285 C286 1.362 . S
C286 H278 0.930 . S
C286 C285 1.362 . S
C286 C289 1.409 . S
C287 H279 0.930 . S
C287 C288 1.355 . S
C287 C289 1.415 . S
C288 C287 1.355 . S
C288 C290 1.419 . S
C289 C284 1.425 . S
C289 C286 1.409 . S
C289 C287 1.415 . S
C290 H280 0.930 . S
C290 C288 1.419 . S
C290 C291 1.362 . S
C291 H281 0.930 . S
C291 C284 1.409 . S
C291 C290 1.362 . S
H292 C298 0.930 . S
H293 C301 0.930 . S
H294 C302 0.930 . S
H295 C303 0.930 . S
H296 C306 0.930 . S
H297 C307 0.930 . S
C298 H292 0.930 . S
C298 C299 1.355 . S
C298 C300 1.415 . S
C299 C298 1.355 . S
C299 C301 1.419 . S
C300 C298 1.415 . S
C300 C305 1.425 . S
C300 C307 1.409 . S
C301 H293 0.930 . S
C301 C299 1.419 . S
C301 C302 1.362 . S
C302 H294 0.930 . S
C302 C301 1.362 . S
C302 C305 1.409 . S
C303 H295 0.930 . S
C303 C304 1.355 . S
C303 C305 1.415 . S
C304 C303 1.355 . S
C304 C306 1.419 . S
C305 C300 1.425 . S
C305 C302 1.409 . S
C305 C303 1.415 . S
C306 H296 0.930 . S
C306 C304 1.419 . S
C306 C307 1.362 . S
C307 H297 0.930 . S
C307 C300 1.409 . S
C307 C306 1.362 . S
H308 C314 0.930 . S
H309 C317 0.930 . S
H310 C318 0.930 . S
H311 C319 0.930 . S
H312 C322 0.930 . S
H313 C323 0.930 . S
C314 H308 0.930 . S
C314 C315 1.355 . S
C314 C316 1.415 . S
C315 C314 1.355 . S
C315 C317 1.419 . S
C316 C314 1.415 . S
C316 C321 1.425 . S
C316 C323 1.409 . S
C317 H309 0.930 . S
C317 C315 1.419 . S
C317 C318 1.362 . S
C318 H310 0.930 . S
C318 C317 1.362 . S
C318 C321 1.409 . S
C319 H311 0.930 . S
C319 C320 1.355 . S
C319 C321 1.415 . S
C320 C319 1.355 . S
C320 C322 1.419 . S
C321 C316 1.425 . S
C321 C318 1.409 . S
C321 C319 1.415 . S
C322 H312 0.930 . S
C322 C320 1.419 . S
C322 C323 1.362 . S
C323 H313 0.930 . S
C323 C316 1.409 . S
C323 C322 1.362 . S
H324 C330 0.930 . S
H325 C333 0.930 . S
H326 C334 0.930 . S
H327 C335 0.930 1_655 S
H328 C338 0.930 . S
H329 C339 0.930 . S
C330 H324 0.930 . S
C330 C331 1.355 . S
C330 C332 1.415 . S
C331 C330 1.355 . S
C331 C333 1.419 . S
C332 C330 1.415 . S
C332 C337 1.425 . S
C332 C339 1.409 . S
C333 H325 0.930 . S
C333 C331 1.419 . S
C333 C334 1.362 . S
C334 H326 0.930 . S
C334 C333 1.362 . S
C334 C337 1.409 . S
C335 H327 0.930 1_455 S
C335 C336 1.355 . S
C335 C337 1.415 . S
C336 C335 1.355 . S
C336 C338 1.419 . S
C337 C332 1.425 . S
C337 C334 1.409 . S
C337 C335 1.415 . S
C338 H328 0.930 . S
C338 C336 1.419 . S
C338 C339 1.362 . S
C339 H329 0.930 . S
C339 C332 1.409 . S
C339 C338 1.362 . S
H340 C346 0.930 . S
H341 C349 0.930 . S
H342 C350 0.930 . S
H343 C351 0.930 . S
H344 C354 0.930 . S
H345 C355 0.930 . S
C346 H340 0.930 . S
C346 C347 1.355 . S
C346 C348 1.415 . S
C347 C346 1.355 . S
C347 C349 1.419 . S
C348 C346 1.415 . S
C348 C353 1.425 . S
C348 C355 1.409 . S
C349 H341 0.930 . S
C349 C347 1.419 . S
C349 C350 1.362 1_556 S
C350 H342 0.930 . S
C350 C349 1.362 1_554 S
C350 C353 1.409 1_554 S
C351 H343 0.930 . S
C351 C352 1.355 1_554 S
C351 C353 1.415 1_554 S
C352 C351 1.355 1_556 S
C352 C354 1.419 . S
C353 C348 1.425 . S
C353 C350 1.409 1_556 S
C353 C351 1.415 1_556 S
C354 H344 0.930 . S
C354 C352 1.419 . S
C354 C355 1.362 . S
C355 H345 0.930 . S
C355 C348 1.409 . S
C355 C354 1.362 . S
H356 C362 0.930 . S
H357 C365 0.930 . S
H358 C366 0.930 . S
H359 C367 0.930 . S
H360 C370 0.930 . S
H361 C371 0.930 . S
C362 H356 0.930 . S
C362 C363 1.355 . S
C362 C364 1.415 . S
C363 C362 1.355 . S
C363 C365 1.419 . S
C364 C362 1.415 . S
C364 C369 1.425 . S
C364 C371 1.409 1_655 S
C365 H357 0.930 . S
C365 C363 1.419 . S
C365 C366 1.362 . S
C366 H358 0.930 . S
C366 C365 1.362 . S
C366 C369 1.409 . S
C367 H359 0.930 . S
C367 C368 1.355 . S
C367 C369 1.415 . S
C368 C367 1.355 . S
C368 C370 1.419 1_655 S
C369 C364 1.425 . S
C369 C366 1.409 . S
C369 C367 1.415 . S
C370 H360 0.930 . S
C370 C368 1.419 1_455 S
C370 C371 1.362 . S
C371 H361 0.930 . S
C371 C364 1.409 1_455 S
C371 C370 1.362 . S
H372 C378 0.930 . S
H373 C381 0.930 . S
H374 C382 0.930 . S
H375 C383 0.930 . S
H376 C386 0.930 . S
H377 C387 0.930 . S
C378 H372 0.930 . S
C378 C379 1.355 . S
C378 C380 1.415 . S
C379 C378 1.355 . S
C379 C381 1.419 . S
C380 C378 1.415 . S
C380 C385 1.425 . S
C380 C387 1.409 . S
C381 H373 0.930 . S
C381 C379 1.419 . S
C381 C382 1.362 . S
C382 H374 0.930 . S
C382 C381 1.362 . S
C382 C385 1.409 . S
C383 H375 0.930 . S
C383 C384 1.355 . S
C383 C385 1.415 . S
C384 C383 1.355 . S
C384 C386 1.419 . S
C385 C380 1.425 . S
C385 C382 1.409 . S
C385 C383 1.415 . S
C386 H376 0.930 . S
C386 C384 1.419 . S
C386 C387 1.362 . S
C387 H377 0.930 . S
C387 C380 1.409 . S
C387 C386 1.362 . S
H388 C394 0.930 . S
H389 C397 0.930 . S
H390 C398 0.930 . S
H391 C399 0.930 . S
H392 C402 0.930 . S
H393 C403 0.930 . S
C394 H388 0.930 . S
C394 C395 1.355 . S
C394 C396 1.415 . S
C395 C394 1.355 . S
C395 C397 1.419 1_655 S
C396 C394 1.415 . S
C396 C401 1.425 1_655 S
C396 C403 1.409 1_565 S
C397 H389 0.930 . S
C397 C395 1.419 1_455 S
C397 C398 1.362 . S
C398 H390 0.930 . S
C398 C397 1.362 . S
C398 C401 1.409 . S
C399 H391 0.930 . S
C399 C400 1.355 . S
C399 C401 1.415 . S
C400 C399 1.355 . S
C400 C402 1.419 1_465 S
C401 C396 1.425 1_455 S
C401 C398 1.409 . S
C401 C399 1.415 . S
C402 H392 0.930 . S
C402 C400 1.419 1_645 S
C402 C403 1.362 . S
C403 H393 0.930 . S
C403 C396 1.409 1_545 S
C403 C402 1.362 . S
H404 C410 0.930 . S
H405 C413 0.930 . S
H406 C414 0.930 . S
H407 C415 0.930 . S
H408 C418 0.930 . S
H409 C419 0.930 . S
C410 H404 0.930 . S
C410 C411 1.355 . S
C410 C412 1.415 . S
C411 C410 1.355 . S
C411 C413 1.419 . S
C412 C410 1.415 . S
C412 C417 1.425 . S
C412 C419 1.409 . S
C413 H405 0.930 . S
C413 C411 1.419 . S
C413 C414 1.362 . S
C414 H406 0.930 . S
C414 C413 1.362 . S
C414 C417 1.409 . S
C415 H407 0.930 . S
C415 C416 1.355 . S
C415 C417 1.415 . S
C416 C415 1.355 . S
C416 C418 1.419 . S
C417 C412 1.425 . S
C417 C414 1.409 . S
C417 C415 1.415 . S
C418 H408 0.930 . S
C418 C416 1.419 . S
C418 C419 1.362 . S
C419 H409 0.930 . S
C419 C412 1.409 . S
C419 C418 1.362 . S
H420 C426 0.930 . S
H421 C429 0.930 . S
H422 C430 0.930 . S
H423 C431 0.930 . S
H424 C434 0.930 . S
H425 C435 0.930 . S
C426 H420 0.930 . S
C426 C427 1.355 . S
C426 C428 1.415 . S
C427 C426 1.355 . S
C427 C429 1.419 . S
C428 C426 1.415 . S
C428 C433 1.425 . S
C428 C435 1.409 . S
C429 H421 0.930 . S
C429 C427 1.419 . S
C429 C430 1.362 . S
C430 H422 0.930 . S
C430 C429 1.362 . S
C430 C433 1.409 . S
C431 H423 0.930 . S
C431 C432 1.355 . S
C431 C433 1.415 . S
C432 C431 1.355 . S
C432 C434 1.419 . S
C433 C428 1.425 . S
C433 C430 1.409 . S
C433 C431 1.415 . S
C434 H424 0.930 . S
C434 C432 1.419 . S
C434 C435 1.362 . S
C435 H425 0.930 . S
C435 C428 1.409 . S
C435 C434 1.362 . S
H436 C442 0.930 . S
H437 C445 0.930 . S
H438 C446 0.930 . S
H439 C447 0.930 . S
H440 C450 0.930 1_655 S
H441 C451 0.930 1_655 S
C442 H436 0.930 . S
C442 C443 1.355 . S
C442 C444 1.415 . S
C443 C442 1.355 . S
C443 C445 1.419 . S
C444 C442 1.415 . S
C444 C449 1.425 . S
C444 C451 1.409 . S
C445 H437 0.930 . S
C445 C443 1.419 . S
C445 C446 1.362 . S
C446 H438 0.930 . S
C446 C445 1.362 . S
C446 C449 1.409 . S
C447 H439 0.930 . S
C447 C448 1.355 . S
C447 C449 1.415 . S
C448 C447 1.355 . S
C448 C450 1.419 . S
C449 C444 1.425 . S
C449 C446 1.409 . S
C449 C447 1.415 . S
C450 H440 0.930 1_455 S
C450 C448 1.419 . S
C450 C451 1.362 . S
C451 H441 0.930 1_455 S
C451 C444 1.409 . S
C451 C450 1.362 . S
H452 C458 0.931 . S
H453 C461 0.930 . S
H454 C462 0.930 . S
H455 C463 0.930 . S
H456 C466 0.930 . S
H457 C467 0.930 . S
C458 H452 0.931 . S
C458 C459 1.353 1_554 S
C458 C460 1.415 . S
C459 C458 1.353 1_556 S
C459 C461 1.419 1_565 S
C460 C458 1.415 . S
C460 C465 1.425 1_564 S
C460 C467 1.409 . S
C461 H453 0.930 . S
C461 C459 1.419 1_545 S
C461 C462 1.362 . S
C462 H454 0.930 . S
C462 C461 1.362 . S
C462 C465 1.409 . S
C463 H455 0.930 . S
C463 C464 1.355 1_556 S
C463 C465 1.415 . S
C464 C463 1.355 1_554 S
C464 C466 1.419 1_545 S
C465 C460 1.425 1_546 S
C465 C462 1.409 . S
C465 C463 1.415 . S
C466 H456 0.930 . S
C466 C464 1.419 1_565 S
C466 C467 1.362 . S
C467 H457 0.930 . S
C467 C460 1.409 . S
C467 C466 1.362 . S
H468 C474 0.930 . S
H469 C477 0.930 . S
H470 C478 0.930 . S
H471 C479 0.930 . S
H472 C482 0.914 1_565 S
H473 C483 0.930 1_565 S
C474 H468 0.930 . S
C474 C475 1.355 . S
C474 C476 1.415 . S
C475 C474 1.355 . S
C475 C477 1.419 . S
C476 C474 1.415 . S
C476 C481 1.425 . S
C476 C483 1.409 . S
C477 H469 0.930 . S
C477 C475 1.419 . S
C477 C478 1.362 . S
C478 H470 0.930 . S
C478 C477 1.362 . S
C478 C481 1.409 . S
C479 H471 0.930 . S
C479 C480 1.355 . S
C479 C481 1.415 . S
C480 C479 1.355 . S
C480 C482 1.432 . S
C481 C476 1.425 . S
C481 C478 1.409 . S
C481 C479 1.415 . S
C482 H472 0.914 1_545 S
C482 C480 1.432 . S
C482 C483 1.366 . S
C483 H473 0.930 1_545 S
C483 C476 1.409 . S
C483 C482 1.366 . S
H484 C490 0.930 . S
H485 C493 0.930 . S
H486 C494 0.930 1_556 S
H487 C495 0.939 . S
H488 C498 0.930 . S
H489 C499 0.930 . S
C490 H484 0.930 . S
C490 C491 1.355 . S
C490 C492 1.415 . S
C491 C490 1.355 . S
C491 C493 1.419 . S
C492 C490 1.415 . S
C492 C497 1.425 . S
C492 C499 1.409 . S
C493 H485 0.930 . S
C493 C491 1.419 . S
C493 C494 1.362 . S
C494 H486 0.930 1_554 S
C494 C493 1.362 . S
C494 C497 1.409 . S
C495 H487 0.939 . S
C495 C496 1.350 1_556 S
C495 C497 1.410 1_556 S
C496 C495 1.350 1_554 S
C496 C498 1.419 . S
C497 C492 1.425 . S
C497 C494 1.409 . S
C497 C495 1.410 1_554 S
C498 H488 0.930 . S
C498 C496 1.419 . S
C498 C499 1.362 . S
C499 H489 0.930 . S
C499 C492 1.409 . S
C499 C498 1.362 . S
H500 C506 0.930 . S
H501 C509 0.930 . S
H502 C510 0.930 . S
H503 C511 0.930 . S
H504 C514 0.930 . S
H505 C515 0.930 . S
C506 H500 0.930 . S
C506 C507 1.355 . S
C506 C508 1.415 . S
C507 C506 1.355 . S
C507 C509 1.419 . S
C508 C506 1.415 . S
C508 C513 1.425 . S
C508 C515 1.409 . S
C509 H501 0.930 . S
C509 C507 1.419 . S
C509 C510 1.362 . S
C510 H502 0.930 . S
C510 C509 1.362 . S
C510 C513 1.409 . S
C511 H503 0.930 . S
C511 C512 1.355 . S
C511 C513 1.415 . S
C512 C511 1.355 . S
C512 C514 1.419 . S
C513 C508 1.425 . S
C513 C510 1.409 . S
C513 C511 1.415 . S
C514 H504 0.930 . S
C514 C512 1.419 . S
C514 C515 1.362 . S
C515 H505 0.930 . S
C515 C508 1.409 . S
C515 C514 1.362 . S
H516 C522 0.930 1_554 S
H517 C525 0.930 . S
H518 C526 0.930 . S
H519 C527 0.930 . S
H520 C530 0.930 . S
H521 C531 0.930 . S
C522 H516 0.930 1_556 S
C522 C523 1.355 . S
C522 C524 1.415 . S
C523 C522 1.355 . S
C523 C525 1.419 . S
C524 C522 1.415 . S
C524 C529 1.425 . S
C524 C531 1.409 1_556 S
C525 H517 0.930 . S
C525 C523 1.419 . S
C525 C526 1.362 . S
C526 H518 0.930 . S
C526 C525 1.362 . S
C526 C529 1.409 . S
C527 H519 0.930 . S
C527 C528 1.355 . S
C527 C529 1.415 . S
C528 C527 1.355 . S
C528 C530 1.419 1_556 S
C529 C524 1.425 . S
C529 C526 1.409 . S
C529 C527 1.415 . S
C530 H520 0.930 . S
C530 C528 1.419 1_554 S
C530 C531 1.362 . S
C531 H521 0.930 . S
C531 C524 1.409 1_554 S
C531 C530 1.362 . S
H532 C538 0.930 . S
H533 C541 0.930 . S
H534 C542 0.930 . S
H535 C543 0.930 . S
H536 C546 0.930 . S
H537 C547 0.930 . S
C538 H532 0.930 . S
C538 C539 1.355 . S
C538 C540 1.415 . S
C539 C538 1.355 . S
C539 C541 1.419 . S
C540 C538 1.415 . S
C540 C545 1.425 . S
C540 C547 1.409 . S
C541 H533 0.930 . S
C541 C539 1.419 . S
C541 C542 1.362 . S
C542 H534 0.930 . S
C542 C541 1.362 . S
C542 C545 1.409 . S
C543 H535 0.930 . S
C543 C544 1.355 . S
C543 C545 1.415 . S
C544 C543 1.355 . S
C544 C546 1.419 . S
C545 C540 1.425 . S
C545 C542 1.409 . S
C545 C543 1.415 . S
C546 H536 0.930 . S
C546 C544 1.419 . S
C546 C547 1.362 . S
C547 H537 0.930 . S
C547 C540 1.409 . S
C547 C546 1.362 . S
H548 C554 0.930 . S
H549 C557 0.930 . S
H550 C558 0.930 . S
H551 C559 0.930 . S
H552 C562 0.930 . S
H553 C563 0.930 . S
C554 H548 0.930 . S
C554 C555 1.355 . S
C554 C556 1.415 . S
C555 C554 1.355 . S
C555 C557 1.419 . S
C556 C554 1.415 . S
C556 C561 1.425 . S
C556 C563 1.409 . S
C557 H549 0.930 . S
C557 C555 1.419 . S
C557 C558 1.362 . S
C558 H550 0.930 . S
C558 C557 1.362 . S
C558 C561 1.409 . S
C559 H551 0.930 . S
C559 C560 1.355 . S
C559 C561 1.415 . S
C560 C559 1.355 . S
C560 C562 1.419 . S
C561 C556 1.425 . S
C561 C558 1.409 . S
C561 C559 1.415 . S
C562 H552 0.930 . S
C562 C560 1.419 . S
C562 C563 1.362 . S
C563 H553 0.930 . S
C563 C556 1.409 . S
C563 C562 1.362 . S
H564 C570 0.930 . S
H565 C573 0.930 . S
H566 C574 0.930 . S
H567 C575 0.930 . S
H568 C578 0.930 . S
H569 C579 0.930 . S
C570 H564 0.930 . S
C570 C571 1.355 . S
C570 C572 1.415 . S
C571 C570 1.355 . S
C571 C573 1.419 . S
C572 C570 1.415 . S
C572 C577 1.425 . S
C572 C579 1.409 . S
C573 H565 0.930 . S
C573 C571 1.419 . S
C573 C574 1.362 . S
C574 H566 0.930 . S
C574 C573 1.362 . S
C574 C577 1.409 . S
C575 H567 0.930 . S
C575 C576 1.355 . S
C575 C577 1.415 . S
C576 C575 1.355 . S
C576 C578 1.419 . S
C577 C572 1.425 . S
C577 C574 1.409 . S
C577 C575 1.415 . S
C578 H568 0.930 . S
C578 C576 1.419 . S
C578 C579 1.362 . S
C579 H569 0.930 . S
C579 C572 1.409 . S
C579 C578 1.362 . S
C203 N1 1.530 . S
C208 C122 1.532 . S
C219 N18 1.845 . S
C224 C146 1.809 . S
C240 C166 1.075 . S
C235 N28 1.084 . S
C251 N40 1.532 . S
C256 C189 1.592 . S
C272 C148 1.921 . S
C267 N5 1.916 . S
C288 C124 1.701 . S
C283 N14 1.707 . S
C304 C192 1.494 . S
C299 N31 1.510 . S
C320 C169 1.278 . S
C315 N41 1.301 . S
C331 N2 1.395 . S
C336 C194 1.335 . S
C352 C143 1.657 1_556 S
C347 N27 1.649 . S
C363 N44 1.637 . S
C368 C121 1.691 1_655 S
C379 N15 1.289 . S
C384 C171 1.276 . S
C400 C125 1.803 . S
C395 N57 1.820 . S
C411 N70 1.367 . S
C416 C147 1.382 . S
C427 N79 1.526 . S
C432 C167 1.618 . S
C443 N93 1.476 . S
C448 C190 1.519 . S
C459 N54 1.424 . S
C464 C145 1.401 . S
C480 C123 1.916 . S
C475 N66 1.848 . S
C496 C193 1.045 . S
C491 N80 1.114 . S
C512 C170 1.454 . S
C507 N96 1.534 . S
C523 N53 1.726 . S
C528 C191 1.716 . S
C544 C144 1.480 . S
C539 N83 1.455 . S
C560 C120 1.642 . S
C555 N92 1.598 . S
C571 N67 1.585 . S
C576 C168 1.590 . S
