# Generated by pormake.
# Topology pto, (3,4)-cn, num edge types: 1
# Building blocks:
#     Node 0, Type 0, BuildingBlock: ESEHIV_clean_linker_0, # of connection points: 3
#     Node 1, Type 0, BuildingBlock: ESEHIV_clean_linker_0, # of connection points: 3
#     Node 2, Type 0, BuildingBlock: ESEHIV_clean_linker_0, # of connection points: 3
#     Node 3, Type 0, BuildingBlock: ESEHIV_clean_linker_0, # of connection points: 3
#     Node 4, Type 0, BuildingBlock: ESEHIV_clean_linker_0, # of connection points: 3
#     Node 5, Type 0, BuildingBlock: ESEHIV_clean_linker_0, # of connection points: 3
#     Node 6, Type 0, BuildingBlock: ESEHIV_clean_linker_0, # of connection points: 3
#     Node 7, Type 0, BuildingBlock: ESEHIV_clean_linker_0, # of connection points: 3
#     Node 8, Type 1, BuildingBlock: KOZSID_clean_sbu_0, # of connection points: 4
#     Node 9, Type 1, BuildingBlock: KOZSID_clean_sbu_0, # of connection points: 4
#     Node 10, Type 1, BuildingBlock: KOZSID_clean_sbu_0, # of connection points: 4
#     Node 11, Type 1, BuildingBlock: KOZSID_clean_sbu_0, # of connection points: 4
#     Node 12, Type 1, BuildingBlock: KOZSID_clean_sbu_0, # of connection points: 4
#     Node 13, Type 1, BuildingBlock: KOZSID_clean_sbu_0, # of connection points: 4
#     Edge 14, Type (0, 1), BuildingBlock: XUDNAN_clean_linker_2, # of connection points: 2
#     Edge 15, Type (0, 1), BuildingBlock: XUDNAN_clean_linker_2, # of connection points: 2
#     Edge 16, Type (0, 1), BuildingBlock: XUDNAN_clean_linker_2, # of connection points: 2
#     Edge 17, Type (0, 1), BuildingBlock: XUDNAN_clean_linker_2, # of connection points: 2
#     Edge 18, Type (0, 1), BuildingBlock: XUDNAN_clean_linker_2, # of connection points: 2
#     Edge 19, Type (0, 1), BuildingBlock: XUDNAN_clean_linker_2, # of connection points: 2
#     Edge 20, Type (0, 1), BuildingBlock: XUDNAN_clean_linker_2, # of connection points: 2
#     Edge 21, Type (0, 1), BuildingBlock: XUDNAN_clean_linker_2, # of connection points: 2
#     Edge 22, Type (0, 1), BuildingBlock: XUDNAN_clean_linker_2, # of connection points: 2
#     Edge 23, Type (0, 1), BuildingBlock: XUDNAN_clean_linker_2, # of connection points: 2
#     Edge 24, Type (0, 1), BuildingBlock: XUDNAN_clean_linker_2, # of connection points: 2
#     Edge 25, Type (0, 1), BuildingBlock: XUDNAN_clean_linker_2, # of connection points: 2
#     Edge 26, Type (0, 1), BuildingBlock: XUDNAN_clean_linker_2, # of connection points: 2
#     Edge 27, Type (0, 1), BuildingBlock: XUDNAN_clean_linker_2, # of connection points: 2
#     Edge 28, Type (0, 1), BuildingBlock: XUDNAN_clean_linker_2, # of connection points: 2
#     Edge 29, Type (0, 1), BuildingBlock: XUDNAN_clean_linker_2, # of connection points: 2
#     Edge 30, Type (0, 1), BuildingBlock: XUDNAN_clean_linker_2, # of connection points: 2
#     Edge 31, Type (0, 1), BuildingBlock: XUDNAN_clean_linker_2, # of connection points: 2
#     Edge 32, Type (0, 1), BuildingBlock: XUDNAN_clean_linker_2, # of connection points: 2
#     Edge 33, Type (0, 1), BuildingBlock: XUDNAN_clean_linker_2, # of connection points: 2
#     Edge 34, Type (0, 1), BuildingBlock: XUDNAN_clean_linker_2, # of connection points: 2
#     Edge 35, Type (0, 1), BuildingBlock: XUDNAN_clean_linker_2, # of connection points: 2
#     Edge 36, Type (0, 1), BuildingBlock: XUDNAN_clean_linker_2, # of connection points: 2
#     Edge 37, Type (0, 1), BuildingBlock: XUDNAN_clean_linker_2, # of connection points: 2
# Relax obj value: 0.000
# Max RMSD: 0.029
# Mean RMSD: 0.013
data_MOF--net-pto--node1-KOZSID_clean_sbu_0--node2-ESEHIV_clean_linker_0--edge1-XUDNAN_clean_linker_2
_symmetry_space_group_name_H-M    P1
_symmetry_Int_Tables_number       1
_symmetry_cell_setting            triclinic
loop_
_symmetry_equiv_pos_as_xyz
'x, y, z'
_cell_length_a     36.675695
_cell_length_b     49.168156
_cell_length_c     43.043158
_cell_angle_alpha  87.445635
_cell_angle_beta   86.717158
_cell_angle_gamma 93.267784
loop_
_atom_site_label
_atom_site_type_symbol
_atom_site_fract_x
_atom_site_fract_y
_atom_site_fract_z
_atom_type_partial_charge
H0 H 0.25799 0.28758 0.25409 0.0
H1 H 0.28494 0.20682 0.28159 0.0
H2 H 0.20116 0.24607 0.33457 0.0
C3 C 0.25406 0.27004 0.2704 0.0
C4 C 0.22681 0.26973 0.29475 0.0
C5 C 0.27433 0.24734 0.265 0.0
C6 C 0.26983 0.22472 0.28605 0.0
C7 C 0.2441 0.22433 0.3117 0.0
C8 C 0.2226 0.24698 0.31608 0.0
H9 H 0.26824 0.74967 0.7921 0.0
H10 H 0.31089 0.82618 0.74722 0.0
H11 H 0.22111 0.78126 0.70992 0.0
C12 C 0.26763 0.76556 0.77392 0.0
C13 C 0.24114 0.76318 0.75167 0.0
C14 C 0.29315 0.78825 0.77275 0.0
C15 C 0.29184 0.80846 0.7485 0.0
C16 C 0.26646 0.80581 0.72541 0.0
C17 C 0.24104 0.78327 0.72745 0.0
H18 H 0.74443 0.816 0.31154 0.0
H19 H 0.80245 0.77064 0.37812 0.0
H20 H 0.78877 0.7404 0.2865 0.0
C21 C 0.75943 0.79833 0.31759 0.0
C22 C 0.76409 0.77803 0.29606 0.0
C23 C 0.77312 0.79554 0.34719 0.0
C24 C 0.79236 0.77262 0.35501 0.0
C25 C 0.79911 0.75268 0.33318 0.0
C26 C 0.78404 0.75534 0.30381 0.0
H27 H 0.75882 0.23981 0.76417 0.0
H28 H 0.84177 0.29516 0.71763 0.0
H29 H 0.77073 0.32274 0.79134 0.0
C30 C 0.7724 0.26001 0.76116 0.0
C31 C 0.76148 0.28062 0.78059 0.0
C32 C 0.80152 0.26496 0.73856 0.0
C33 C 0.8197 0.29104 0.73535 0.0
C34 C 0.80827 0.31214 0.75398 0.0
C35 C 0.77944 0.30662 0.77673 0.0
H36 H 0.736 0.82606 0.7588 0.0
H37 H 0.77013 0.75437 0.80732 0.0
H38 H 0.83111 0.78656 0.72433 0.0
C39 C 0.7547 0.80988 0.76078 0.0
C40 C 0.78405 0.80878 0.73836 0.0
C41 C 0.74936 0.7904 0.78581 0.0
C42 C 0.77406 0.76969 0.78834 0.0
C43 C 0.8034 0.76808 0.76619 0.0
C44 C 0.80803 0.78748 0.74106 0.0
H45 H 0.74302 0.22188 0.30845 0.0
H46 H 0.76608 0.3087 0.29895 0.0
H47 H 0.82095 0.26117 0.36594 0.0
C48 C 0.75832 0.24005 0.31496 0.0
C49 C 0.78304 0.2382 0.33877 0.0
C50 C 0.75173 0.2654 0.30062 0.0
C51 C 0.77065 0.28901 0.30995 0.0
C52 C 0.79562 0.28755 0.33331 0.0
C53 C 0.80178 0.26218 0.34773 0.0
H54 H 0.21493 0.26795 0.70768 0.0
H55 H 0.29165 0.22311 0.75896 0.0
H56 H 0.27698 0.30757 0.77588 0.0
C57 C 0.23465 0.26684 0.72544 0.0
C58 C 0.24339 0.29026 0.74156 0.0
C59 C 0.25139 0.24224 0.73176 0.0
C60 C 0.27802 0.24168 0.75414 0.0
C61 C 0.28773 0.2653 0.76985 0.0
C62 C 0.26973 0.28931 0.76382 0.0
H63 H 0.20407 0.76154 0.34278 0.0
H64 H 0.2298 0.73381 0.251 0.0
H65 H 0.28068 0.80889 0.27989 0.0
C66 C 0.21858 0.76439 0.32011 0.0
C67 C 0.24258 0.78754 0.31377 0.0
C68 C 0.21348 0.74488 0.2975 0.0
C69 C 0.23333 0.74874 0.26852 0.0
C70 C 0.25783 0.77164 0.26192 0.0
C71 C 0.26205 0.79108 0.28468 0.0
C72 C 0.07218 0.55124 0.3495 0.0
C73 C 0.09157 0.55917 0.37465 0.0
C74 C 0.07939 0.54196 0.39931 0.0
C75 C 0.05336 0.52466 0.38777 0.0
N76 N 0.04898 0.5292 0.35705 0.0
Co77 Co 0.01136 0.51098 0.33161 0.0
N78 N 0.98848 0.48926 0.36893 0.0
C79 C 1.00064 0.48868 0.39801 0.0
C80 C 0.98123 0.47028 0.41835 0.0
C81 C 0.95551 0.45797 0.40113 0.0
C82 C 0.96062 0.46973 0.37115 0.0
N83 N 0.97262 0.4939 0.30628 0.0
C84 C 0.94545 0.47466 0.31463 0.0
C85 C 0.92457 0.46849 0.28968 0.0
C86 C 0.93967 0.48387 0.26449 0.0
C87 C 0.96858 0.49868 0.27548 0.0
N88 N 0.03507 0.53209 0.29417 0.0
C89 C 0.0267 0.52969 0.2642 0.0
C90 C 0.04657 0.54795 0.24389 0.0
C91 C 0.0683 0.56326 0.26205 0.0
C92 C 0.06042 0.5534 0.29251 0.0
N93 N 0.04352 0.48021 0.3233 0.0
C94 C 0.08473 0.43401 0.31199 0.0
C95 C 0.05958 0.44304 0.29117 0.0
C96 C 0.04048 0.46615 0.29672 0.0
C97 C 0.08874 0.44871 0.33887 0.0
C98 C 0.06783 0.47136 0.34415 0.0
N99 N 0.9794 0.54144 0.33971 0.0
C100 C 0.9443 0.57792 0.31998 0.0
C101 C 0.93911 0.58775 0.34972 0.0
C102 C 0.95363 0.57353 0.37459 0.0
C103 C 0.97325 0.55038 0.36915 0.0
C104 C 0.96444 0.55505 0.31552 0.0
H105 H 0.98383 0.54027 0.38891 0.0
H106 H 0.96832 0.54916 0.29211 0.0
H107 H 0.02314 0.47187 0.27899 0.0
H108 H 0.07192 0.48126 0.3653 0.0
C109 C 0.0306 0.5054 0.40545 0.0
C110 C 0.07503 0.56627 0.31944 0.0
C111 C 0.93975 0.46057 0.34524 0.0
C112 C 0.99519 0.51448 0.25693 0.0
H113 H 0.11153 0.5762 0.37526 0.0
H114 H 0.08737 0.54275 0.42309 0.0
H115 H 0.98574 0.46592 0.44266 0.0
H116 H 0.93585 0.44169 0.40956 0.0
H117 H 0.90156 0.45372 0.28949 0.0
H118 H 0.93151 0.48342 0.24074 0.0
H119 H 0.0436 0.55115 0.21914 0.0
H120 H 0.08648 0.58055 0.25397 0.0
H121 H 0.05396 0.43229 0.27042 0.0
H122 H 0.10803 0.44303 0.35577 0.0
H123 H 0.934 0.58841 0.29992 0.0
H124 H 0.94997 0.58026 0.39813 0.0
C125 C 0.08737 0.57184 0.77632 0.0
C126 C 0.0998 0.57807 0.80515 0.0
C127 C 0.08216 0.55972 0.82643 0.0
C128 C 0.05991 0.54355 0.80943 0.0
N129 N 0.06298 0.54993 0.77848 0.0
Co130 Co 0.03246 0.53392 0.74577 0.0
N131 N 0.00322 0.50923 0.77745 0.0
C132 C 0.00893 0.50618 0.80814 0.0
C133 C 0.98601 0.48654 0.8238 0.0
C134 C 0.96475 0.47606 0.8017 0.0
C135 C 0.97599 0.49 0.77372 0.0
N136 N 1.00055 0.51927 0.71327 0.0
C137 C 0.97222 0.50018 0.71587 0.0
C138 C 0.95737 0.49621 0.68734 0.0
C139 C 0.97721 0.51323 0.66595 0.0
C140 C 0.00288 0.52664 0.68253 0.0
N141 N 0.06296 0.55753 0.71396 0.0
C142 C 0.06123 0.55753 0.68269 0.0
C143 C 0.08535 0.5764 0.66696 0.0
C144 C 0.10307 0.58949 0.68959 0.0
C145 C 0.08853 0.57786 0.71788 0.0
N146 N 0.06662 0.50413 0.73955 0.0
C147 C 0.11169 0.45965 0.73145 0.0
C148 C 0.09248 0.47027 0.70696 0.0
C149 C 0.0708 0.49241 0.71134 0.0
C150 C 0.10828 0.47212 0.75999 0.0
C151 C 0.08573 0.49395 0.76354 0.0
N152 N 0.99856 0.5636 0.75195 0.0
C153 C 0.97109 0.60406 0.73223 0.0
C154 C 0.95624 0.60911 0.76196 0.0
C155 C 0.96183 0.59018 0.78628 0.0
C156 C 0.98299 0.56789 0.78087 0.0
C157 C 0.99165 0.58128 0.72773 0.0
H158 H 0.98689 0.5546 0.80055 0.0
H159 H 0.00236 0.57868 0.70453 0.0
H160 H 0.05741 0.49938 0.69148 0.0
H161 H 0.08417 0.50208 0.78605 0.0
C162 C 0.03503 0.5228 0.82179 0.0
C163 C 0.09766 0.58822 0.74781 0.0
C164 C 0.9601 0.48409 0.74426 0.0
C165 C 0.03223 0.54355 0.66945 0.0
H166 H 0.1189 0.5946 0.81037 0.0
H167 H 0.08441 0.55882 0.85141 0.0
H168 H 0.98489 0.48055 0.84836 0.0
H169 H 0.94348 0.4599 0.8057 0.0
H170 H 0.93526 0.48185 0.68232 0.0
H171 H 0.97424 0.51481 0.64107 0.0
H172 H 0.08801 0.58129 0.64213 0.0
H173 H 0.1232 0.60646 0.68586 0.0
H174 H 0.09346 0.46132 0.68443 0.0
H175 H 0.12306 0.46525 0.77965 0.0
H176 H 0.96787 0.61799 0.71251 0.0
H177 H 0.95012 0.59251 0.80961 0.0
C178 C 0.28694 0.98038 0.56641 0.0
C179 C 0.32148 0.97677 0.57692 0.0
C180 C 0.34482 0.99564 0.5607 0.0
C181 C 0.32328 0.00967 0.54134 0.0
N182 N 0.28756 1.00103 0.54435 0.0
Co183 Co 0.24688 0.01602 0.52085 0.0
N184 N 0.28194 0.04076 0.49359 0.0
C185 C 0.31884 0.04213 0.4939 0.0
C186 C 0.33584 0.06045 0.47204 0.0
C187 C 0.30815 0.07146 0.4568 0.0
C188 C 0.27568 0.05933 0.47049 0.0
N189 N 0.20597 0.03211 0.49861 0.0
C190 C 0.20668 0.05241 0.47609 0.0
C191 C 0.17163 0.05869 0.46885 0.0
C192 C 0.14795 0.04174 0.48731 0.0
C193 C 0.16975 0.02628 0.50489 0.0
N194 N 0.21202 0.99008 0.54678 0.0
C195 C 0.17528 0.9874 0.54524 0.0
C196 C 0.15877 0.96677 0.56447 0.0
C197 C 0.18673 0.95518 0.57874 0.0
C198 C 0.21876 0.96954 0.56736 0.0
N199 N 0.24231 0.04465 0.55212 0.0
C200 C 0.23477 0.08632 0.59516 0.0
C201 C 0.20649 0.0665 0.59185 0.0
C202 C 0.21064 0.04629 0.57031 0.0
C203 C 0.26725 0.08443 0.57689 0.0
C204 C 0.27053 0.06354 0.55599 0.0
N205 N 0.25138 0.98732 0.48989 0.0
C206 C 0.22316 0.95371 0.45782 0.0
C207 C 0.25661 0.94209 0.452 0.0
C208 C 0.28766 0.95432 0.46421 0.0
C209 C 0.28455 0.97696 0.48256 0.0
C210 C 0.22112 0.97607 0.47682 0.0
H211 H 0.30928 0.9854 0.49112 0.0
H212 H 0.1946 0.98346 0.48127 0.0
H213 H 0.18763 0.03233 0.56881 0.0
H214 H 0.29615 0.06335 0.54307 0.0
C215 C 0.33637 0.02807 0.51709 0.0
C216 C 0.25488 0.9626 0.57649 0.0
C217 C 0.23967 0.0665 0.46111 0.0
C218 C 0.15712 0.0051 0.52611 0.0
H219 H 0.32919 0.96151 0.59382 0.0
H220 H 0.37423 0.99797 0.56181 0.0
H221 H 0.36486 0.0657 0.4682 0.0
H222 H 0.31148 0.08698 0.43807 0.0
H223 H 0.16393 0.074 0.452 0.0
H224 H 0.11836 0.0407 0.48774 0.0
H225 H 0.12989 0.96079 0.56761 0.0
H226 H 0.18396 0.938 0.5955 0.0
H227 H 0.18101 0.06638 0.60587 0.0
H228 H 0.29001 0.09928 0.5781 0.0
H229 H 0.19838 0.94492 0.44881 0.0
H230 H 0.31428 0.9463 0.45982 0.0
C231 C 0.46629 0.81001 0.08064 0.0
C232 C 0.45898 0.8345 0.09391 0.0
C233 C 0.48776 0.85266 0.08469 0.0
C234 C 0.51088 0.8384 0.0662 0.0
N235 N 0.49819 0.81249 0.06297 0.0
Co236 Co 0.52328 0.78495 0.03871 0.0
N237 N 0.55516 0.81346 0.01499 0.0
C238 C 0.56235 0.83913 0.02346 0.0
C239 C 0.58545 0.85413 1.00207 0.0
C240 C 0.59325 0.83673 0.97882 0.0
C241 C 0.57433 0.81204 0.98738 0.0
N242 N 0.5486 0.75751 0.01454 0.0
C243 C 0.56839 0.76079 0.98698 0.0
C244 C 0.58109 0.73614 0.97783 0.0
C245 C 0.56891 0.7169 1.00075 0.0
C246 C 0.54944 0.7308 0.02249 0.0
N247 N 0.49164 0.75634 0.06253 0.0
C248 C 0.49833 0.72974 0.06556 0.0
C249 C 0.47208 0.71486 0.08421 0.0
C250 C 0.44757 0.73333 0.09368 0.0
C251 C 0.46027 0.75853 0.08018 0.0
N252 N 0.48736 0.78737 0.00691 0.0
C253 C 0.44553 0.79102 0.95467 0.0
C254 C 0.45094 0.76563 0.96915 0.0
C255 C 0.47215 0.76423 0.99515 0.0
C256 C 0.45964 0.81457 0.96792 0.0
C257 C 0.47996 0.81232 0.99428 0.0
N258 N 0.55968 0.78263 0.07027 0.0
C259 C 0.57511 0.78125 0.124 0.0
C260 C 0.6125 0.78277 0.11492 0.0
C261 C 0.62281 0.78342 0.08304 0.0
C262 C 0.59609 0.78314 0.06119 0.0
C263 C 0.54918 0.78135 0.10136 0.0
H264 H 0.605 0.78379 0.03685 0.0
H265 H 0.52066 0.78088 0.10906 0.0
H266 H 0.47752 0.74439 0.00493 0.0
H267 H 0.49106 0.83079 0.00362 0.0
C268 C 0.54157 0.84954 0.04805 0.0
C269 C 0.44403 0.78436 0.08713 0.0
C270 C 0.5769 0.78716 0.97005 0.0
C271 C 0.52627 0.71902 0.04707 0.0
H272 H 0.43553 0.83878 0.10894 0.0
H273 H 0.49086 0.87393 0.09008 0.0
H274 H 0.59425 0.87549 1.00256 0.0
H275 H 0.61082 0.8416 0.95802 0.0
H276 H 0.59731 0.73242 0.95682 0.0
H277 H 0.5724 0.69519 1.00079 0.0
H278 H 0.47039 0.6931 0.08963 0.0
H279 H 0.42348 0.72883 0.10918 0.0
H280 H 0.44047 0.74697 0.95951 0.0
H281 H 0.45568 0.83458 0.95752 0.0
H282 H 0.56594 0.78087 0.1484 0.0
H283 H 0.6514 0.78424 0.075 0.0
C284 C 0.83628 0.98698 0.58461 0.0
C285 C 0.87033 0.97838 0.59172 0.0
C286 C 0.89562 0.99426 0.5735 0.0
C287 C 0.87567 0.01169 0.5565 0.0
N288 N 0.83922 0.00813 0.56311 0.0
Co289 Co 0.80027 0.02892 0.54379 0.0
N290 N 0.83633 0.04724 0.5115 0.0
C291 C 0.87268 0.04377 0.50854 0.0
C292 C 0.89044 0.0587 0.484 0.0
C293 C 0.86385 0.07251 0.47036 0.0
C294 C 0.83125 0.0652 0.4875 0.0
N295 N 0.76147 0.05051 0.52524 0.0
C296 C 0.76371 0.06921 0.50092 0.0
C297 C 0.73027 0.08032 0.49673 0.0
C298 C 0.7062 0.06846 0.51938 0.0
C299 C 0.72616 0.05083 0.53604 0.0
N300 N 0.76393 0.00922 0.57492 0.0
C301 C 0.72767 0.01287 0.57831 0.0
C302 C 0.70903 0.99473 0.59943 0.0
C303 C 0.73476 0.97803 0.60967 0.0
C304 C 0.76783 0.98718 0.59434 0.0
N305 N 0.80932 0.05901 0.57284 0.0
C306 C 0.82011 0.10419 0.61084 0.0
C307 C 0.78758 0.08776 0.61354 0.0
C308 C 0.78275 0.06568 0.59449 0.0
C309 C 0.84751 0.09703 0.58932 0.0
C310 C 0.84179 0.0745 0.57108 0.0
N311 N 0.79123 0.9992 0.5151 0.0
C312 C 0.74908 0.9676 0.49194 0.0
C313 C 0.77801 0.95346 0.47943 0.0
C314 C 0.81372 0.96325 0.484 0.0
C315 C 0.81969 0.98592 0.50196 0.0
C316 C 0.75626 0.99048 0.50925 0.0
H317 H 0.8475 0.99203 0.50557 0.0
H318 H 0.73313 1.00052 0.51825 0.0
H319 H 0.75705 0.05454 0.59783 0.0
H320 H 0.86415 0.07042 0.55553 0.0
C321 C 0.88961 0.02796 0.53065 0.0
C322 C 0.80192 0.97364 0.59777 0.0
C323 C 0.79663 0.07694 0.48104 0.0
C324 C 0.71191 0.03289 0.56035 0.0
H325 H 0.87614 0.96175 0.60767 0.0
H326 H 0.9249 0.99228 0.57158 0.0
H327 H 0.91941 0.05991 0.47727 0.0
H328 H 0.86814 0.08682 0.45048 0.0
H329 H 0.72388 0.09534 0.47902 0.0
H330 H 0.67742 0.07195 0.52296 0.0
H331 H 0.67999 0.99327 0.60587 0.0
H332 H 0.72946 0.96069 0.62598 0.0
H333 H 0.7657 0.09176 0.63039 0.0
H334 H 0.87323 0.10903 0.58592 0.0
H335 H 0.72098 0.96094 0.48854 0.0
H336 H 0.83694 0.95285 0.47475 0.0
C337 C 0.46934 0.28006 0.07472 0.0
C338 C 0.45761 0.30431 0.08599 0.0
C339 C 0.47877 0.32487 0.0705 0.0
C340 C 0.50226 0.31208 0.05086 0.0
N341 N 0.49719 0.28456 0.05265 0.0
Co342 Co 0.52711 0.25802 0.02985 0.0
N343 N 0.5567 0.28834 0.00551 0.0
C344 C 0.55285 0.31544 0.00743 0.0
C345 C 0.57444 0.33119 0.9858 0.0
C346 C 0.59262 0.3131 0.9685 0.0
C347 C 0.58127 0.28722 0.98086 0.0
N348 N 0.55793 0.23159 0.00796 0.0
C349 C 0.58374 0.23597 0.9842 0.0
C350 C 0.59893 0.21192 0.9759 0.0
C351 C 0.5813 0.19151 0.99452 0.0
C352 C 0.55669 0.20424 0.01319 0.0
N353 N 0.4965 0.22767 0.05297 0.0
C354 C 0.49986 0.2006 0.05042 0.0
C355 C 0.47459 0.18463 0.06878 0.0
C356 C 0.45379 0.20257 0.08402 0.0
C357 C 0.46782 0.22854 0.07414 0.0
N358 N 0.49275 0.25724 0.99585 0.0
C359 C 0.45175 0.25872 0.94245 0.0
C360 C 0.46431 0.23415 0.95403 0.0
C361 C 0.48471 0.23386 0.98068 0.0
C362 C 0.45811 0.28203 0.95915 0.0
C363 C 0.47823 0.28083 0.9856 0.0
N364 N 0.56161 0.25903 0.06409 0.0
C365 C 0.58788 0.23726 0.10861 0.0
C366 C 0.60151 0.26247 0.11813 0.0
C367 C 0.5971 0.28554 0.09899 0.0
C368 C 0.57754 0.28336 0.0723 0.0
C369 C 0.56822 0.23601 0.08163 0.0
H370 H 0.5751 0.30189 0.05922 0.0
H371 H 0.55795 0.21626 0.07595 0.0
H372 H 0.49456 0.21473 0.98819 0.0
H373 H 0.48253 0.29947 0.99689 0.0
C374 C 0.52786 0.32535 0.02923 0.0
C375 C 0.45336 0.25333 0.08594 0.0
C376 C 0.59303 0.26213 0.96754 0.0
C377 C 0.5287 0.19088 0.03238 0.0
H378 H 0.436 0.30686 0.10364 0.0
H379 H 0.47707 0.34656 0.07308 0.0
H380 H 0.57595 0.35318 0.9824 0.0
H381 H 0.61136 0.31845 0.94857 0.0
H382 H 0.61966 0.20932 0.95752 0.0
H383 H 0.58472 0.16984 0.99346 0.0
H384 H 0.47207 0.16259 0.07127 0.0
H385 H 0.43118 0.19714 0.10084 0.0
H386 H 0.45972 0.21552 0.94194 0.0
H387 H 0.4481 0.30139 0.9515 0.0
H388 H 0.59106 0.21874 0.12252 0.0
H389 H 0.60824 0.30542 0.10483 0.0
H390 H 0.1982 0.29963 0.34355 0.0
H391 H 0.19469 0.28925 0.24401 0.0
H392 H 0.15993 0.33003 0.23859 0.0
H393 H 0.1028 0.3233 0.35154 0.0
H394 H 0.11389 0.34701 0.38082 0.0
H395 H 0.13811 0.31627 0.37773 0.0
H396 H 0.1995 0.34526 0.37213 0.0
H397 H 0.17544 0.3761 0.37467 0.0
H398 H 0.20656 0.37167 0.34158 0.0
H399 H 0.1351 0.37475 0.24163 0.0
H400 H 0.10659 0.41671 0.25435 0.0
H401 H 0.11452 0.39646 0.35319 0.0
C402 C 0.18948 0.30573 0.3208 0.0
C403 C 0.2004 0.29172 0.29402 0.0
C404 C 0.18797 0.30016 0.26469 0.0
C405 C 0.16803 0.32328 0.26132 0.0
C406 C 0.15943 0.33746 0.28765 0.0
C407 C 0.16846 0.3287 0.31702 0.0
C408 C 0.15423 0.34782 0.34124 0.0
C409 C 0.12555 0.3327 0.36419 0.0
C410 C 0.18583 0.36099 0.35842 0.0
C411 C 0.13687 0.36885 0.32056 0.0
C412 C 0.14093 0.36245 0.28975 0.0
C413 C 0.13026 0.37949 0.26578 0.0
C414 C 0.1136 0.40331 0.27342 0.0
C415 C 0.10628 0.40971 0.30495 0.0
C416 C 0.11894 0.3923 0.32884 0.0
H417 H 0.25182 0.70844 0.76135 0.0
H418 H 0.16774 0.76516 0.74513 0.0
H419 H 0.1218 0.7266 0.7439 0.0
H420 H 0.22002 0.65832 0.71099 0.0
H421 H 0.23058 0.62952 0.73555 0.0
H422 H 0.25667 0.66153 0.73702 0.0
H423 H 0.24121 0.66196 0.7965 0.0
H424 H 0.2152 0.62984 0.79523 0.0
H425 H 0.19403 0.65878 0.81114 0.0
H426 H 0.08549 0.6821 0.74193 0.0
H427 H 0.06105 0.63414 0.74044 0.0
H428 H 0.16807 0.60604 0.75808 0.0
C429 C 0.22362 0.71272 0.75808 0.0
C430 C 0.21336 0.73982 0.75328 0.0
C431 C 0.17628 0.74457 0.74855 0.0
C432 C 0.14996 0.72281 0.74795 0.0
C433 C 0.16106 0.69636 0.7522 0.0
C434 C 0.19694 0.69118 0.75731 0.0
C435 C 0.20177 0.66074 0.76017 0.0
C436 C 0.22886 0.65203 0.73439 0.0
C437 C 0.21376 0.65234 0.7927 0.0
C438 C 0.16312 0.64968 0.75554 0.0
C439 C 0.14005 0.67061 0.75109 0.0
C440 C 0.10322 0.66555 0.74562 0.0
C441 C 0.08959 0.63838 0.74475 0.0
C442 C 0.11273 0.61673 0.74936 0.0
C443 C 0.14992 0.62241 0.75478 0.0
H444 H 0.79414 0.69918 0.31485 0.0
H445 H 0.85962 0.75467 0.36806 0.0
H446 H 0.89926 0.71772 0.3811 0.0
H447 H 0.80134 0.63811 0.36363 0.0
H448 H 0.80569 0.61622 0.33129 0.0
H449 H 0.78048 0.6465 0.32779 0.0
H450 H 0.82156 0.66323 0.27891 0.0
H451 H 0.84675 0.63296 0.28217 0.0
H452 H 0.87053 0.66612 0.28129 0.0
H453 H 0.933 0.67508 0.38771 0.0
H454 H 0.96075 0.6306 0.3841 0.0
H455 H 0.87578 0.60336 0.32451 0.0
C456 C 0.81683 0.7037 0.32917 0.0
C457 C 0.82308 0.72996 0.34082 0.0
C458 C 0.85325 0.73467 0.35956 0.0
C459 C 0.87623 0.71381 0.36696 0.0
C460 C 0.86915 0.68826 0.35523 0.0
C461 C 0.84042 0.68316 0.33649 0.0
C462 C 0.84002 0.65423 0.3256 0.0
C463 C 0.80479 0.6378 0.33782 0.0
C464 C 0.84502 0.65414 0.28988 0.0
C465 C 0.87317 0.644 0.34096 0.0
C466 C 0.88933 0.66386 0.35824 0.0
C467 C 0.92052 0.65932 0.37433 0.0
C468 C 0.93595 0.63393 0.37233 0.0
C469 C 0.9204 0.61348 0.35414 0.0
C470 C 0.88837 0.61862 0.33852 0.0
H471 H 0.88156 0.32854 0.75033 0.0
H472 H 0.77319 0.35925 0.74768 0.0
H473 H 0.80039 0.40647 0.74301 0.0
H474 H 0.91844 0.38009 0.79703 0.0
H475 H 0.96327 0.38238 0.77729 0.0
H476 H 0.9356 0.35086 0.77843 0.0
H477 H 0.94123 0.35078 0.71814 0.0
H478 H 0.96905 0.38228 0.71684 0.0
H479 H 0.92816 0.38003 0.69554 0.0
H480 H 0.83891 0.45036 0.74048 0.0
H481 H 0.88675 0.4881 0.74077 0.0
H482 H 0.97007 0.42936 0.74582 0.0
C483 C 0.86369 0.34523 0.7483 0.0
C484 C 0.82528 0.34029 0.74934 0.0
C485 C 0.80267 0.36264 0.74713 0.0
C486 C 0.81786 0.3895 0.74435 0.0
C487 C 0.85576 0.39374 0.74386 0.0
C488 C 0.87843 0.37227 0.74577 0.0
C489 C 0.91819 0.38256 0.74603 0.0
C490 C 0.93484 0.37343 0.77651 0.0
C491 C 0.94047 0.37337 0.71743 0.0
C492 C 0.91425 0.41312 0.74417 0.0
C493 C 0.878 0.41912 0.74276 0.0
C494 C 0.8674 0.44593 0.74143 0.0
C495 C 0.89458 0.46718 0.74161 0.0
C496 C 0.93174 0.46141 0.7432 0.0
C497 C 0.94171 0.4341 0.74445 0.0
H498 H 0.25269 0.21526 0.37454 0.0
H499 H 0.22059 0.17534 0.29174 0.0
H500 H 0.2139 0.13099 0.32145 0.0
H501 H 0.30694 0.16268 0.402 0.0
H502 H 0.29439 0.16583 0.44273 0.0
H503 H 0.29371 0.19495 0.41591 0.0
H504 H 0.22584 0.20081 0.43299 0.0
H505 H 0.22642 0.17181 0.46006 0.0
H506 H 0.19275 0.17245 0.43116 0.0
H507 H 0.21373 0.09076 0.35896 0.0
H508 H 0.21947 0.05699 0.40263 0.0
H509 H 0.25278 0.12211 0.46136 0.0
C510 C 0.24356 0.1972 0.36298 0.0
C511 C 0.23683 0.19861 0.33096 0.0
C512 C 0.2257 0.17457 0.3163 0.0
C513 C 0.22184 0.14934 0.33297 0.0
C514 C 0.22937 0.14843 0.36433 0.0
C515 C 0.23991 0.17167 0.3793 0.0
C516 C 0.24801 0.16465 0.41284 0.0
C517 C 0.28815 0.17249 0.4187 0.0
C518 C 0.22168 0.17824 0.43561 0.0
C519 C 0.24066 0.1339 0.41422 0.0
C520 C 0.22977 0.12502 0.38598 0.0
C521 C 0.22203 0.09746 0.38124 0.0
C522 C 0.2254 0.07846 0.40603 0.0
C523 C 0.23649 0.08708 0.4351 0.0
C524 C 0.24421 0.11513 0.43925 0.0
H525 H 0.28719 0.77158 0.83547 0.0
H526 H 0.3641 0.80998 0.76383 0.0
H527 H 0.41018 0.81551 0.80269 0.0
H528 H 0.31375 0.81115 0.89871 0.0
H529 H 0.30958 0.78293 0.92714 0.0
H530 H 0.28181 0.7826 0.89396 0.0
H531 H 0.30625 0.73624 0.87904 0.0
H532 H 0.33399 0.73636 0.91226 0.0
H533 H 0.35491 0.73302 0.8738 0.0
H534 H 0.44757 0.81837 0.84946 0.0
H535 H 0.47524 0.81515 0.90047 0.0
H536 H 0.37673 0.77131 0.94097 0.0
C537 C 0.3138 0.78087 0.8277 0.0
C538 C 0.32148 0.79071 0.79638 0.0
C539 C 0.35679 0.80297 0.78768 0.0
C540 C 0.38343 0.806 0.80958 0.0
C541 C 0.37478 0.79627 0.84013 0.0
C542 C 0.34102 0.78363 0.84916 0.0
C543 C 0.33917 0.77434 0.88336 0.0
C544 C 0.3093 0.78861 0.90188 0.0
C545 C 0.33323 0.74314 0.88734 0.0
C546 C 0.37709 0.78394 0.89217 0.0
C547 C 0.39703 0.79677 0.86689 0.0
C548 C 0.43233 0.8082 0.86936 0.0
C549 C 0.44775 0.80639 0.89839 0.0
C550 C 0.4281 0.79297 0.92448 0.0
C551 C 0.39238 0.78149 0.92126 0.0
H552 H 0.80325 0.84776 0.34455 0.0
H553 H 0.73124 0.79031 0.40154 0.0
H554 H 0.72268 0.82517 0.44078 0.0
H555 H 0.84844 0.87648 0.40815 0.0
H556 H 0.85308 0.91062 0.39076 0.0
H557 H 0.85155 0.88183 0.36635 0.0
H558 H 0.79697 0.90116 0.33871 0.0
H559 H 0.79835 0.93004 0.36304 0.0
H560 H 0.75658 0.90908 0.36161 0.0
H561 H 0.72195 0.86631 0.47349 0.0
H562 H 0.7324 0.90972 0.49943 0.0
H563 H 0.80792 0.93963 0.42266 0.0
C564 C 0.78543 0.84275 0.3652 0.0
C565 C 0.76749 0.81662 0.3701 0.0
C566 C 0.74493 0.81037 0.39751 0.0
C567 C 0.73992 0.83001 0.41979 0.0
C568 C 0.75808 0.85564 0.4144 0.0
C569 C 0.78066 0.86198 0.38793 0.0
C570 C 0.79849 0.89053 0.38858 0.0
C571 C 0.84037 0.88981 0.38846 0.0
C572 C 0.78689 0.90878 0.36137 0.0
C573 C 0.78244 0.89925 0.41955 0.0
C574 C 0.75886 0.87894 0.43388 0.0
C575 C 0.74039 0.88234 0.46251 0.0
C576 C 0.74636 0.90707 0.477 0.0
C577 C 0.77094 0.92795 0.46303 0.0
C578 C 0.78916 0.92392 0.43392 0.0
H579 H 0.76026 0.29449 0.84161 0.0
H580 H 0.6947 0.25414 0.77451 0.0
H581 H 0.64424 0.24521 0.81498 0.0
H582 H 0.73116 0.24902 0.90719 0.0
H583 H 0.73115 0.27556 0.93476 0.0
H584 H 0.76181 0.27896 0.90042 0.0
H585 H 0.73556 0.32526 0.88534 0.0
H586 H 0.70476 0.32197 0.91961 0.0
H587 H 0.687 0.32694 0.88172 0.0
H588 H 0.60053 0.2415 0.86264 0.0
H589 H 0.56775 0.2418 0.91463 0.0
H590 H 0.66251 0.28333 0.95078 0.0
C591 C 0.73517 0.28393 0.8354 0.0
C592 C 0.73129 0.27506 0.80492 0.0
C593 C 0.6983 0.26093 0.7978 0.0
C594 C 0.66947 0.25589 0.82057 0.0
C595 C 0.67418 0.26497 0.85038 0.0
C596 C 0.70628 0.27855 0.85789 0.0
C597 C 0.70465 0.28574 0.89178 0.0
C598 C 0.73393 0.27146 0.90958 0.0
C599 C 0.7082 0.31682 0.89477 0.0
C600 C 0.66654 0.27419 0.90216 0.0
C601 C 0.64932 0.26241 0.8779 0.0
C602 C 0.61377 0.25063 0.88179 0.0
C603 C 0.59539 0.25089 0.91126 0.0
C604 C 0.61265 0.26278 0.93634 0.0
C605 C 0.64872 0.27439 0.93177 0.0
H606 H 0.27158 0.86207 0.72598 0.0
H607 H 0.26212 0.79512 0.664 0.0
H608 H 0.26024 0.82799 0.61919 0.0
H609 H 0.21059 0.90461 0.68804 0.0
H610 H 0.23657 0.93606 0.69365 0.0
H611 H 0.23881 0.90737 0.72084 0.0
H612 H 0.30937 0.90942 0.71156 0.0
H613 H 0.30734 0.93816 0.68436 0.0
H614 H 0.32938 0.90816 0.67244 0.0
H615 H 0.25728 0.86781 0.58127 0.0
H616 H 0.2533 0.91241 0.55282 0.0
H617 H 0.26493 0.95376 0.63876 0.0
C618 C 0.26959 0.85437 0.70292 0.0
C619 C 0.26687 0.82599 0.69852 0.0
C620 C 0.26378 0.81674 0.668 0.0
C621 C 0.26291 0.83525 0.64237 0.0
C622 C 0.26523 0.86303 0.64753 0.0
C623 C 0.26855 0.87262 0.677 0.0
C624 C 0.26944 0.90355 0.67615 0.0
C625 C 0.23691 0.91347 0.69584 0.0
C626 C 0.30607 0.91552 0.68676 0.0
C627 C 0.26579 0.90978 0.64168 0.0
C628 C 0.26356 0.88609 0.62558 0.0
C629 C 0.25924 0.8865 0.59358 0.0
C630 C 0.25701 0.9118 0.57763 0.0
C631 C 0.25913 0.93622 0.59369 0.0
C632 C 0.26365 0.93524 0.62606 0.0
H633 H 0.70646 0.7481 0.27463 0.0
H634 H 0.78547 0.81538 0.2492 0.0
H635 H 0.75687 0.82261 0.19892 0.0
H636 H 0.6981 0.72232 0.19666 0.0
H637 H 0.6495 0.71454 0.20253 0.0
H638 H 0.67804 0.71329 0.23522 0.0
H639 H 0.63765 0.74731 0.26334 0.0
H640 H 0.60913 0.74877 0.23069 0.0
H641 H 0.63038 0.77971 0.2441 0.0
H642 H 0.71888 0.82312 0.15219 0.0
H643 H 0.6725 0.81843 0.11306 0.0
H644 H 0.61596 0.75215 0.1698 0.0
C645 C 0.71797 0.76402 0.25813 0.0
C646 C 0.7484 0.78098 0.26531 0.0
C647 C 0.76237 0.80208 0.24376 0.0
C648 C 0.74631 0.80629 0.21525 0.0
C649 C 0.71606 0.7894 0.20889 0.0
C650 C 0.70187 0.76877 0.22976 0.0
C651 C 0.66785 0.75461 0.21801 0.0
C652 C 0.67374 0.7244 0.2128 0.0
C653 C 0.63427 0.7578 0.24037 0.0
C654 C 0.665 0.77059 0.18738 0.0
C655 C 0.69333 0.79035 0.18243 0.0
C656 C 0.69663 0.80767 0.15578 0.0
C657 C 0.67024 0.80478 0.13363 0.0
C658 C 0.64068 0.78491 0.13835 0.0
C659 C 0.63813 0.76763 0.16565 0.0
H660 H 0.75719 0.23166 0.70572 0.0
H661 H 0.8705 0.24798 0.7262 0.0
H662 H 0.88807 0.20888 0.69534 0.0
H663 H 0.75648 0.15937 0.71028 0.0
H664 H 0.72739 0.15472 0.67834 0.0
H665 H 0.72406 0.18434 0.70123 0.0
H666 H 0.73572 0.21579 0.65129 0.0
H667 H 0.73882 0.18624 0.62821 0.0
H668 H 0.77588 0.21209 0.62601 0.0
H669 H 0.89223 0.166 0.66498 0.0
H670 H 0.88376 0.12511 0.6345 0.0
H671 H 0.76802 0.13892 0.63114 0.0
C672 C 0.78572 0.22703 0.7036 0.0
C673 C 0.81253 0.24272 0.71841 0.0
C674 C 0.84963 0.23627 0.71487 0.0
C675 C 0.85978 0.21406 0.69753 0.0
C676 C 0.83256 0.19876 0.68357 0.0
C677 C 0.79635 0.2052 0.68608 0.0
C678 C 0.77241 0.18571 0.66867 0.0
C679 C 0.74338 0.17011 0.69097 0.0
C680 C 0.75467 0.20086 0.64196 0.0
C681 C 0.80067 0.16698 0.65636 0.0
C682 C 0.83517 0.17475 0.66528 0.0
C683 C 0.86541 0.15999 0.65747 0.0
C684 C 0.8603 0.13681 0.63992 0.0
C685 C 0.82523 0.12864 0.63 0.0
C686 C 0.79516 0.14416 0.63848 0.0
H687 H 0.34698 0.23628 0.2542 0.0
H688 H 0.24938 0.25621 0.20776 0.0
H689 H 0.28409 0.25789 0.15691 0.0
H690 H 0.40879 0.28049 0.20632 0.0
H691 H 0.44574 0.25783 0.20541 0.0
H692 H 0.41289 0.25608 0.23827 0.0
H693 H 0.39859 0.20471 0.23043 0.0
H694 H 0.43155 0.20629 0.1976 0.0
H695 H 0.38502 0.19397 0.19307 0.0
H696 H 0.32921 0.26008 0.11161 0.0
H697 H 0.3831 0.26195 0.07396 0.0
H698 H 0.45213 0.24085 0.14867 0.0
C699 C 0.33298 0.24057 0.23322 0.0
C700 C 0.2956 0.24623 0.2348 0.0
C701 C 0.27811 0.25207 0.20697 0.0
C702 C 0.29752 0.25296 0.178 0.0
C703 C 0.33447 0.2479 0.17717 0.0
C704 C 0.35212 0.24172 0.20392 0.0
C705 C 0.39247 0.2383 0.19633 0.0
C706 C 0.41637 0.25944 0.21255 0.0
C707 C 0.40249 0.20908 0.20486 0.0
C708 C 0.39465 0.24388 0.16129 0.0
C709 C 0.36077 0.24922 0.15076 0.0
C710 C 0.35585 0.25571 0.11948 0.0
C711 C 0.38643 0.25679 0.09832 0.0
C712 C 0.42127 0.25143 0.10863 0.0
C713 C 0.4255 0.24482 0.14042 0.0
H714 H 0.82469 0.73043 0.72429 0.0
H715 H 0.84075 0.75685 0.81754 0.0
H716 H 0.88264 0.71993 0.826 0.0
H717 H 0.8225 0.65887 0.74453 0.0
H718 H 0.84603 0.65 0.70881 0.0
H719 H 0.8191 0.6795 0.70925 0.0
H720 H 0.87541 0.70984 0.68685 0.0
H721 H 0.9025 0.6804 0.6863 0.0
H722 H 0.91735 0.70987 0.70675 0.0
H723 H 0.92247 0.68029 0.82449 0.0
H724 H 0.95601 0.63944 0.8141 0.0
H725 H 0.91109 0.63632 0.72295 0.0
C726 C 0.83745 0.72856 0.7463 0.0
C727 C 0.82975 0.74654 0.77024 0.0
C728 C 0.84635 0.74325 0.79896 0.0
C729 C 0.87021 0.72241 0.80393 0.0
C730 C 0.87697 0.70482 0.78003 0.0
C731 C 0.86099 0.70754 0.75183 0.0
C732 C 0.87166 0.68507 0.73063 0.0
C733 C 0.8378 0.66731 0.72286 0.0
C734 C 0.893 0.69702 0.70087 0.0
C735 C 0.8961 0.66934 0.75134 0.0
C736 C 0.89897 0.68125 0.77961 0.0
C737 C 0.92019 0.67064 0.80252 0.0
C738 C 0.9389 0.64718 0.79646 0.0
C739 C 0.93606 0.63419 0.76782 0.0
C740 C 0.91429 0.64567 0.745 0.0
H741 H 0.86522 0.30811 0.31661 0.0
H742 H 0.76609 0.32492 0.37006 0.0
H743 H 0.7934 0.37042 0.38138 0.0
H744 H 0.93036 0.34467 0.36494 0.0
H745 H 0.95949 0.35733 0.33167 0.0
H746 H 0.9335 0.3252 0.33047 0.0
H747 H 0.90443 0.34267 0.28043 0.0
H748 H 0.93007 0.3749 0.28165 0.0
H749 H 0.88094 0.3739 0.28086 0.0
H750 H 0.82979 0.41516 0.38373 0.0
H751 H 0.87329 0.45585 0.37752 0.0
H752 H 0.9485 0.41038 0.32196 0.0
C753 C 0.8498 0.3212 0.33134 0.0
C754 C 0.81393 0.31306 0.34306 0.0
C755 C 0.79387 0.33083 0.36141 0.0
C756 C 0.80912 0.35665 0.36785 0.0
C757 C 0.8444 0.36437 0.35559 0.0
C758 C 0.86458 0.34715 0.33781 0.0
C759 C 0.90102 0.36104 0.32593 0.0
C760 C 0.93298 0.34618 0.33904 0.0
C761 C 0.90428 0.36326 0.29009 0.0
C762 C 0.89798 0.38883 0.33944 0.0
C763 C 0.86518 0.39028 0.35662 0.0
C764 C 0.85569 0.41417 0.3706 0.0
C765 C 0.88041 0.43713 0.36696 0.0
C766 C 0.91407 0.43598 0.34951 0.0
C767 C 0.92294 0.41155 0.3356 0.0
H768 H 0.20336 0.32087 0.78118 0.0
H769 H 0.24463 0.31766 0.68511 0.0
H770 H 0.21698 0.36127 0.67233 0.0
H771 H 0.11658 0.3472 0.76327 0.0
H772 H 0.11428 0.36827 0.79645 0.0
H773 H 0.13849 0.33744 0.79817 0.0
H774 H 0.1968 0.36511 0.81274 0.0
H775 H 0.1728 0.39606 0.81091 0.0
H776 H 0.21488 0.39367 0.7877 0.0
H777 H 0.1866 0.40586 0.67057 0.0
H778 H 0.15138 0.44634 0.67845 0.0
H779 H 0.12497 0.41853 0.77485 0.0
C780 C 0.20661 0.32949 0.75751 0.0
C781 C 0.22622 0.31613 0.73409 0.0
C782 C 0.22961 0.32768 0.70328 0.0
C783 C 0.21415 0.35244 0.69588 0.0
C784 C 0.19497 0.36517 0.71949 0.0
C785 C 0.19073 0.35395 0.7496 0.0
C786 C 0.16748 0.3712 0.77026 0.0
C787 C 0.13211 0.35506 0.78276 0.0
C788 C 0.1893 0.38216 0.79698 0.0
C789 C 0.15955 0.39397 0.74714 0.0
C790 C 0.17596 0.39021 0.71809 0.0
C791 C 0.1732 0.40882 0.69312 0.0
C792 C 0.15277 0.43171 0.69782 0.0
C793 C 0.13472 0.43574 0.7272 0.0
C794 C 0.13852 0.41648 0.75215 0.0
H795 H 0.22237 0.69165 0.28204 0.0
H796 H 0.14515 0.74306 0.32739 0.0
H797 H 0.10127 0.70319 0.33728 0.0
H798 H 0.15584 0.65015 0.24389 0.0
H799 H 0.17927 0.6192 0.24931 0.0
H800 H 0.20485 0.65169 0.2461 0.0
H801 H 0.23251 0.64105 0.29904 0.0
H802 H 0.20713 0.60849 0.30235 0.0
H803 H 0.20241 0.6321 0.33299 0.0
H804 H 0.06545 0.65763 0.34202 0.0
H805 H 0.04123 0.60948 0.34217 0.0
H806 H 0.14117 0.58785 0.29329 0.0
C807 C 0.19613 0.69461 0.29385 0.0
C808 C 0.1873 0.72061 0.30394 0.0
C809 C 0.15283 0.72337 0.31978 0.0
C810 C 0.12758 0.70086 0.32531 0.0
C811 C 0.13712 0.67562 0.3149 0.0
C812 C 0.17061 0.67235 0.29957 0.0
C813 C 0.17423 0.64299 0.291 0.0
C814 C 0.17881 0.64089 0.25546 0.0
C815 C 0.20595 0.63042 0.30733 0.0
C816 C 0.13753 0.63023 0.30384 0.0
C817 C 0.11649 0.64943 0.31751 0.0
C818 C 0.08165 0.64248 0.33129 0.0
C819 C 0.06809 0.61519 0.33124 0.0
C820 C 0.08924 0.59527 0.31743 0.0
C821 C 0.12436 0.60289 0.30358 0.0
H822 H 0.77765 0.86412 0.74159 0.0
H823 H 0.80346 0.80196 0.67665 0.0
H824 H 0.81197 0.83738 0.63382 0.0
H825 H 0.72607 0.90409 0.69008 0.0
H826 H 0.74257 0.93628 0.70401 0.0
H827 H 0.73947 0.90613 0.7296 0.0
H828 H 0.80816 0.9137 0.73992 0.0
H829 H 0.81146 0.94388 0.71437 0.0
H830 H 0.84169 0.91686 0.70746 0.0
H831 H 0.81617 0.87977 0.59768 0.0
H832 H 0.81632 0.92579 0.57151 0.0
H833 H 0.78782 0.95999 0.66003 0.0
C834 C 0.78486 0.85787 0.71834 0.0
C835 C 0.78981 0.83016 0.71254 0.0
C836 C 0.79988 0.82304 0.6818 0.0
C837 C 0.80459 0.84301 0.65727 0.0
C838 C 0.79925 0.87008 0.66382 0.0
C839 C 0.78969 0.87752 0.69364 0.0
C840 C 0.78541 0.90797 0.69453 0.0
C841 C 0.74604 0.91396 0.70518 0.0
C842 C 0.81335 0.92139 0.7153 0.0
C843 C 0.79384 0.91653 0.66052 0.0
C844 C 0.80177 0.89438 0.64315 0.0
C845 C 0.81004 0.89722 0.61108 0.0
C846 C 0.81008 0.92334 0.59643 0.0
C847 C 0.80181 0.94617 0.61381 0.0
C848 C 0.79393 0.94272 0.64627 0.0
H849 H 0.74159 0.23313 0.25057 0.0
H850 H 0.69959 0.30265 0.29665 0.0
H851 H 0.65537 0.30801 0.25611 0.0
H852 H 0.73582 0.25982 0.17296 0.0
H853 H 0.72179 0.22772 0.15735 0.0
H854 H 0.74912 0.22831 0.19078 0.0
H855 H 0.70024 0.19631 0.22201 0.0
H856 H 0.67275 0.19558 0.18863 0.0
H857 H 0.6535 0.20587 0.22544 0.0
H858 H 0.61755 0.30719 0.21011 0.0
H859 H 0.58797 0.30031 0.16088 0.0
H860 H 0.65356 0.23115 0.14382 0.0
C861 C 0.72273 0.24923 0.25231 0.0
C862 C 0.72416 0.26757 0.27672 0.0
C863 C 0.69935 0.28861 0.27796 0.0
C864 C 0.67396 0.29171 0.25516 0.0
C865 C 0.67356 0.27355 0.23125 0.0
C866 C 0.69717 0.25268 0.22963 0.0
C867 C 0.69164 0.23658 0.20079 0.0
C868 C 0.72668 0.23822 0.1792 0.0
C869 C 0.67876 0.20682 0.20976 0.0
C870 C 0.66154 0.25189 0.18634 0.0
C871 C 0.65151 0.27307 0.20446 0.0
C872 C 0.62508 0.29065 0.19575 0.0
C873 C 0.60861 0.28667 0.16764 0.0
C874 C 0.6186 0.26531 0.14841 0.0
C875 C 0.64516 0.2475 0.15815 0.0
H876 H 0.29689 0.20422 0.70782 0.0
H877 H 0.18313 0.22453 0.7157 0.0
H878 H 0.16672 0.18661 0.68268 0.0
H879 H 0.29934 0.18624 0.62932 0.0
H880 H 0.328 0.15798 0.63441 0.0
H881 H 0.33104 0.18603 0.65983 0.0
H882 H 0.31793 0.15266 0.70798 0.0
H883 H 0.3152 0.12445 0.6827 0.0
H884 H 0.2776 0.12975 0.71017 0.0
H885 H 0.16313 0.14893 0.64575 0.0
H886 H 0.1717 0.11189 0.61009 0.0
H887 H 0.28696 0.11312 0.62906 0.0
C888 C 0.26842 0.20039 0.70313 0.0
C889 C 0.24138 0.21765 0.7142 0.0
C890 C 0.20451 0.21203 0.70706 0.0
C891 C 0.19483 0.1904 0.68846 0.0
C892 C 0.22221 0.17423 0.67739 0.0
C893 C 0.25817 0.17868 0.68474 0.0
C894 C 0.28226 0.15838 0.66939 0.0
C895 C 0.31191 0.17304 0.64691 0.0
C896 C 0.29925 0.14023 0.69403 0.0
C897 C 0.25428 0.14218 0.65188 0.0
C898 C 0.21986 0.15173 0.65683 0.0
C899 C 0.18983 0.14091 0.64216 0.0
C900 C 0.19501 0.11963 0.62205 0.0
C901 C 0.22993 0.10901 0.61686 0.0
C902 C 0.25989 0.12063 0.63217 0.0
H903 H 0.33123 0.78592 0.25137 0.0
H904 H 0.23353 0.76391 0.20369 0.0
H905 H 0.27004 0.76639 0.15345 0.0
H906 H 0.37363 0.83362 0.19049 0.0
H907 H 0.41919 0.82339 0.19661 0.0
H908 H 0.38502 0.8212 0.22856 0.0
H909 H 0.3958 0.76993 0.23803 0.0
H910 H 0.42992 0.77196 0.2061 0.0
H911 H 0.39161 0.74728 0.20644 0.0
H912 H 0.31788 0.76947 0.1085 0.0
H913 H 0.37358 0.77308 0.07257 0.0
H914 H 0.43973 0.79289 0.14953 0.0
C915 C 0.3174 0.78208 0.23029 0.0
C916 C 0.27947 0.77477 0.23147 0.0
C917 C 0.26258 0.76934 0.2034 0.0
C918 C 0.28306 0.77083 0.17474 0.0
C919 C 0.32047 0.77778 0.17445 0.0
C920 C 0.33748 0.78336 0.20149 0.0
C921 C 0.37827 0.78936 0.19499 0.0
C922 C 0.38969 0.81863 0.20315 0.0
C923 C 0.40018 0.76838 0.21242 0.0
C924 C 0.38159 0.7861 0.16013 0.0
C925 C 0.34793 0.77954 0.14865 0.0
C926 C 0.34431 0.77486 0.11719 0.0
C927 C 0.37593 0.77696 0.09697 0.0
C928 C 0.41051 0.78373 0.10833 0.0
C929 C 0.41335 0.78822 0.14029 0.0
H930 H 0.78562 0.22633 0.40171 0.0
H931 H 0.79116 0.18916 0.31213 0.0
H932 H 0.79565 0.14398 0.33869 0.0
H933 H 0.84954 0.18318 0.43912 0.0
H934 H 0.82416 0.18167 0.47634 0.0
H935 H 0.82266 0.21117 0.45016 0.0
H936 H 0.7519 0.20498 0.45241 0.0
H937 H 0.75321 0.17537 0.4784 0.0
H938 H 0.73041 0.17287 0.44254 0.0
H939 H 0.7981 0.10259 0.37508 0.0
H940 H 0.799 0.06817 0.41895 0.0
H941 H 0.79187 0.13208 0.48469 0.0
C942 C 0.78836 0.20875 0.38766 0.0
C943 C 0.78808 0.21131 0.35479 0.0
C944 C 0.79102 0.18768 0.33732 0.0
C945 C 0.79371 0.16195 0.35219 0.0
C946 C 0.79342 0.1601 0.38461 0.0
C947 C 0.79093 0.18287 0.40215 0.0
C948 C 0.79034 0.1752 0.4367 0.0
C949 C 0.82366 0.1886 0.45144 0.0
C950 C 0.75432 0.18254 0.45349 0.0
C951 C 0.79278 0.14457 0.43586 0.0
C952 C 0.7946 0.13626 0.40557 0.0
C953 C 0.79676 0.10887 0.39888 0.0
C954 C 0.79719 0.0895 0.42381 0.0
C955 C 0.79539 0.09764 0.45491 0.0
C956 C 0.79315 0.12548 0.46099 0.0
H957 H 0.29779 0.23045 0.82046 0.0
H958 H 0.34628 0.30174 0.76719 0.0
H959 H 0.39572 0.30533 0.80353 0.0
H960 H 0.3146 0.25496 0.89476 0.0
H961 H 0.32494 0.22252 0.91223 0.0
H962 H 0.295 0.22377 0.88055 0.0
H963 H 0.33656 0.19247 0.84939 0.0
H964 H 0.36665 0.1911 0.88104 0.0
H965 H 0.38458 0.20217 0.84239 0.0
H966 H 0.43739 0.3033 0.84657 0.0
H967 H 0.46895 0.29627 0.89503 0.0
H968 H 0.39428 0.2265 0.92204 0.0
C969 C 0.31923 0.24648 0.81627 0.0
C970 C 0.31831 0.26584 0.79103 0.0
C971 C 0.34642 0.28684 0.78649 0.0
C972 C 0.37469 0.28895 0.8069 0.0
C973 C 0.37457 0.26989 0.83182 0.0
C974 C 0.34767 0.24904 0.83669 0.0
C975 C 0.35306 0.23234 0.86649 0.0
C976 C 0.31993 0.23348 0.88989 0.0
C977 C 0.36067 0.20276 0.85939 0.0
C978 C 0.38677 0.2474 0.87777 0.0
C979 C 0.39877 0.26884 0.85716 0.0
C980 C 0.42841 0.28649 0.86282 0.0
C981 C 0.44604 0.28242 0.89048 0.0
C982 C 0.43399 0.26093 0.91233 0.0
C983 C 0.4043 0.24291 0.9056 0.0
H984 H 0.22233 0.84043 0.314 0.0
H985 H 0.27536 0.77947 0.36816 0.0
H986 H 0.28593 0.81267 0.40886 0.0
H987 H 0.2792 0.89912 0.33265 0.0
H988 H 0.242 0.92149 0.33551 0.0
H989 H 0.23968 0.89327 0.31025 0.0
H990 H 0.17808 0.87541 0.33841 0.0
H991 H 0.18019 0.90359 0.36372 0.0
H992 H 0.17545 0.86909 0.38008 0.0
H993 H 0.29212 0.85285 0.44285 0.0
H994 H 0.28933 0.89603 0.46996 0.0
H995 H 0.22881 0.93038 0.39551 0.0
C996 C 0.23625 0.83423 0.33445 0.0
C997 C 0.24832 0.80755 0.33805 0.0
C998 C 0.26603 0.79988 0.36513 0.0
C999 C 0.27219 0.8186 0.38825 0.0
C1000 C 0.25998 0.8448 0.3841 0.0
C1001 C 0.242 0.85255 0.35805 0.0
C1002 C 0.23044 0.88163 0.35993 0.0
C1003 C 0.24894 0.89996 0.33298 0.0
C1004 C 0.18855 0.88247 0.36058 0.0
C1005 C 0.24494 0.88909 0.39096 0.0
C1006 C 0.26221 0.86761 0.40434 0.0
C1007 C 0.27853 0.86975 0.43266 0.0
C1008 C 0.27697 0.89439 0.44781 0.0
C1009 C 0.25887 0.91653 0.43487 0.0
C1010 C 0.2426 0.91373 0.40606 0.0
H1011 H 0.74929 0.78118 0.84938 0.0
H1012 H 0.67853 0.80229 0.77563 0.0
H1013 H 0.62671 0.80403 0.81464 0.0
H1014 H 0.6827 0.73712 0.89477 0.0
H1015 H 0.69825 0.74756 0.93163 0.0
H1016 H 0.72987 0.74854 0.89795 0.0
H1017 H 0.74637 0.79975 0.90521 0.0
H1018 H 0.71482 0.79891 0.93892 0.0
H1019 H 0.71047 0.8233 0.90703 0.0
H1020 H 0.58224 0.80322 0.86208 0.0
H1021 H 0.54917 0.7998 0.91426 0.0
H1022 H 0.6487 0.77836 0.95634 0.0
C1023 C 0.72286 0.78596 0.84133 0.0
C1024 C 0.7181 0.79164 0.80935 0.0
C1025 C 0.68308 0.79823 0.79999 0.0
C1026 C 0.65339 0.79911 0.82197 0.0
C1027 C 0.65907 0.7933 0.85325 0.0
C1028 C 0.69295 0.78685 0.86291 0.0
C1029 C 0.69188 0.78137 0.89787 0.0
C1030 C 0.70122 0.75189 0.90602 0.0
C1031 C 0.7174 0.80207 0.91315 0.0
C1032 C 0.65209 0.78569 0.90641 0.0
C1033 C 0.63355 0.79259 0.88038 0.0
C1034 C 0.59647 0.79773 0.88257 0.0
C1035 C 0.57792 0.79574 0.91215 0.0
C1036 C 0.59648 0.78854 0.93889 0.0
C1037 C 0.63399 0.78359 0.93601 0.0
loop_
_geom_bond_atom_site_label_1
_geom_bond_atom_site_label_2
_geom_bond_distance
_geom_bond_site_symmetry_2
_ccdc_geom_bond_type
H0 C3 0.931 . S
H1 C6 0.928 . S
H2 C8 0.930 . S
C3 H0 0.931 . S
C3 C4 1.413 . S
C3 C5 1.360 . S
C4 C3 1.413 . S
C4 C8 1.429 . S
C5 C3 1.360 . S
C5 C6 1.372 . S
C6 H1 0.928 . S
C6 C5 1.372 . S
C6 C7 1.404 . S
C7 C6 1.404 . S
C7 C8 1.391 . S
C8 H2 0.930 . S
C8 C4 1.429 . S
C8 C7 1.391 . S
H9 C12 0.931 . S
H10 C15 0.928 . S
H11 C17 0.930 . S
C12 H9 0.931 . S
C12 C13 1.413 . S
C12 C14 1.360 . S
C13 C12 1.413 . S
C13 C17 1.429 . S
C14 C12 1.360 . S
C14 C15 1.372 . S
C15 H10 0.928 . S
C15 C14 1.372 . S
C15 C16 1.404 . S
C16 C15 1.404 . S
C16 C17 1.391 . S
C17 H11 0.930 . S
C17 C13 1.429 . S
C17 C16 1.391 . S
H18 C21 0.931 . S
H19 C24 0.928 . S
H20 C26 0.930 . S
C21 H18 0.931 . S
C21 C22 1.413 . S
C21 C23 1.360 . S
C22 C21 1.413 . S
C22 C26 1.429 . S
C23 C21 1.360 . S
C23 C24 1.372 . S
C24 H19 0.928 . S
C24 C23 1.372 . S
C24 C25 1.404 . S
C25 C24 1.404 . S
C25 C26 1.391 . S
C26 H20 0.930 . S
C26 C22 1.429 . S
C26 C25 1.391 . S
H27 C30 0.931 . S
H28 C33 0.928 . S
H29 C35 0.930 . S
C30 H27 0.931 . S
C30 C31 1.413 . S
C30 C32 1.360 . S
C31 C30 1.413 . S
C31 C35 1.429 . S
C32 C30 1.360 . S
C32 C33 1.372 . S
C33 H28 0.928 . S
C33 C32 1.372 . S
C33 C34 1.404 . S
C34 C33 1.404 . S
C34 C35 1.391 . S
C35 H29 0.930 . S
C35 C31 1.429 . S
C35 C34 1.391 . S
H36 C39 0.931 . S
H37 C42 0.928 . S
H38 C44 0.930 . S
C39 H36 0.931 . S
C39 C40 1.413 . S
C39 C41 1.360 . S
C40 C39 1.413 . S
C40 C44 1.429 . S
C41 C39 1.360 . S
C41 C42 1.372 . S
C42 H37 0.928 . S
C42 C41 1.372 . S
C42 C43 1.404 . S
C43 C42 1.404 . S
C43 C44 1.391 . S
C44 H38 0.930 . S
C44 C40 1.429 . S
C44 C43 1.391 . S
H45 C48 0.931 . S
H46 C51 0.928 . S
H47 C53 0.930 . S
C48 H45 0.931 . S
C48 C49 1.413 . S
C48 C50 1.360 . S
C49 C48 1.413 . S
C49 C53 1.429 . S
C50 C48 1.360 . S
C50 C51 1.372 . S
C51 H46 0.928 . S
C51 C50 1.372 . S
C51 C52 1.404 . S
C52 C51 1.404 . S
C52 C53 1.391 . S
C53 H47 0.930 . S
C53 C49 1.429 . S
C53 C52 1.391 . S
H54 C57 0.931 . S
H55 C60 0.928 . S
H56 C62 0.930 . S
C57 H54 0.931 . S
C57 C58 1.413 . S
C57 C59 1.360 . S
C58 C57 1.413 . S
C58 C62 1.429 . S
C59 C57 1.360 . S
C59 C60 1.372 . S
C60 H55 0.928 . S
C60 C59 1.372 . S
C60 C61 1.404 . S
C61 C60 1.404 . S
C61 C62 1.391 . S
C62 H56 0.930 . S
C62 C58 1.429 . S
C62 C61 1.391 . S
H63 C66 0.931 . S
H64 C69 0.928 . S
H65 C71 0.930 . S
C66 H63 0.931 . S
C66 C67 1.413 . S
C66 C68 1.360 . S
C67 C66 1.413 . S
C67 C71 1.429 . S
C68 C66 1.360 . S
C68 C69 1.372 . S
C69 H64 0.928 . S
C69 C68 1.372 . S
C69 C70 1.404 . S
C70 C69 1.404 . S
C70 C71 1.391 . S
C71 H65 0.930 . S
C71 C67 1.429 . S
C71 C70 1.391 . S
C72 C73 1.443 . S
C72 N76 1.376 . S
C72 C110 1.389 . S
C73 C72 1.443 . S
C73 C74 1.340 . S
C73 H113 0.951 . S
C74 C73 1.340 . S
C74 C75 1.439 . S
C74 H114 0.950 . S
C75 C74 1.439 . S
C75 N76 1.374 . S
C75 C109 1.395 . S
N76 C72 1.376 . S
N76 C75 1.374 . S
N76 Co77 2.008 . S
Co77 N76 2.008 . S
Co77 N78 1.995 1_455 S
Co77 N83 2.008 . S
Co77 N88 1.995 . S
Co77 N93 2.282 . S
Co77 N99 2.282 1_455 S
N78 Co77 1.995 1_655 S
N78 C79 1.376 . S
N78 C82 1.383 . S
C79 N78 1.376 . S
C79 C80 1.446 . S
C79 C109 1.391 1_655 S
C80 C79 1.446 . S
C80 C81 1.339 . S
C80 H115 0.949 . S
C81 C80 1.339 . S
C81 C82 1.439 . S
C81 H116 0.950 . S
C82 N78 1.383 . S
C82 C81 1.439 . S
C82 C111 1.392 . S
N83 Co77 2.008 . S
N83 C84 1.376 1_455 S
N83 C87 1.374 . S
C84 N83 1.376 1_655 S
C84 C85 1.443 . S
C84 C111 1.389 . S
C85 C84 1.443 . S
C85 C86 1.340 . S
C85 H117 0.951 . S
C86 C85 1.340 . S
C86 C87 1.439 1_655 S
C86 H118 0.950 . S
C87 N83 1.374 . S
C87 C86 1.439 1_455 S
C87 C112 1.395 . S
N88 Co77 1.995 . S
N88 C89 1.376 . S
N88 C92 1.383 . S
C89 N88 1.376 . S
C89 C90 1.446 . S
C89 C112 1.391 . S
C90 C89 1.446 . S
C90 C91 1.339 . S
C90 H119 0.949 . S
C91 C90 1.339 . S
C91 C92 1.439 . S
C91 H120 0.950 . S
C92 N88 1.383 . S
C92 C91 1.439 . S
C92 C110 1.392 . S
N93 Co77 2.282 . S
N93 C96 1.332 . S
N93 C98 1.332 . S
C94 C95 1.386 . S
C94 C97 1.388 . S
C95 C94 1.386 . S
C95 C96 1.382 . S
C95 H121 0.950 . S
C96 N93 1.332 . S
C96 C95 1.382 . S
C96 H107 0.952 . S
C97 C94 1.388 . S
C97 C98 1.382 . S
C97 H122 0.950 . S
C98 N93 1.332 . S
C98 C97 1.382 . S
C98 H108 0.948 . S
N99 Co77 2.282 1_655 S
N99 C103 1.332 . S
N99 C104 1.332 . S
C100 C101 1.388 . S
C100 C104 1.382 . S
C100 H123 0.950 . S
C101 C100 1.388 . S
C101 C102 1.386 . S
C102 C101 1.386 . S
C102 C103 1.382 . S
C102 H124 0.950 . S
C103 N99 1.332 . S
C103 C102 1.382 . S
C103 H105 0.952 . S
C104 N99 1.332 . S
C104 C100 1.382 . S
C104 H106 0.948 . S
H105 C103 0.952 . S
H106 C104 0.948 . S
H107 C96 0.952 . S
H108 C98 0.948 . S
C109 C75 1.395 . S
C109 C79 1.391 1_455 S
C110 C72 1.389 . S
C110 C92 1.392 . S
C111 C82 1.392 . S
C111 C84 1.389 . S
C112 C87 1.395 . S
C112 C89 1.391 . S
H113 C73 0.951 . S
H114 C74 0.950 . S
H115 C80 0.949 . S
H116 C81 0.950 . S
H117 C85 0.951 . S
H118 C86 0.950 . S
H119 C90 0.949 . S
H120 C91 0.950 . S
H121 C95 0.950 . S
H122 C97 0.950 . S
H123 C100 0.950 . S
H124 C102 0.950 . S
C125 C126 1.443 . S
C125 N129 1.376 . S
C125 C163 1.389 . S
C126 C125 1.443 . S
C126 C127 1.340 . S
C126 H166 0.951 . S
C127 C126 1.340 . S
C127 C128 1.439 . S
C127 H167 0.950 . S
C128 C127 1.439 . S
C128 N129 1.374 . S
C128 C162 1.395 . S
N129 C125 1.376 . S
N129 C128 1.374 . S
N129 Co130 2.008 . S
Co130 N129 2.008 . S
Co130 N131 1.995 1_455 S
Co130 N136 2.008 1_455 S
Co130 N141 1.995 . S
Co130 N146 2.282 . S
Co130 N152 2.282 1_455 S
N131 Co130 1.995 1_655 S
N131 C132 1.376 . S
N131 C135 1.383 . S
C132 N131 1.376 . S
C132 C133 1.446 . S
C132 C162 1.391 1_655 S
C133 C132 1.446 . S
C133 C134 1.339 . S
C133 H168 0.949 . S
C134 C133 1.339 . S
C134 C135 1.439 . S
C134 H169 0.950 . S
C135 N131 1.383 . S
C135 C134 1.439 . S
C135 C164 1.392 . S
N136 Co130 2.008 1_655 S
N136 C137 1.376 . S
N136 C140 1.374 1_655 S
C137 N136 1.376 . S
C137 C138 1.443 . S
C137 C164 1.389 . S
C138 C137 1.443 . S
C138 C139 1.340 . S
C138 H170 0.951 . S
C139 C138 1.340 . S
C139 C140 1.439 1_655 S
C139 H171 0.950 . S
C140 N136 1.374 1_455 S
C140 C139 1.439 1_455 S
C140 C165 1.395 . S
N141 Co130 1.995 . S
N141 C142 1.376 . S
N141 C145 1.383 . S
C142 N141 1.376 . S
C142 C143 1.446 . S
C142 C165 1.391 . S
C143 C142 1.446 . S
C143 C144 1.339 . S
C143 H172 0.949 . S
C144 C143 1.339 . S
C144 C145 1.439 . S
C144 H173 0.950 . S
C145 N141 1.383 . S
C145 C144 1.439 . S
C145 C163 1.392 . S
N146 Co130 2.282 . S
N146 C149 1.332 . S
N146 C151 1.332 . S
C147 C148 1.386 . S
C147 C150 1.388 . S
C148 C147 1.386 . S
C148 C149 1.382 . S
C148 H174 0.950 . S
C149 N146 1.332 . S
C149 C148 1.382 . S
C149 H160 0.952 . S
C150 C147 1.388 . S
C150 C151 1.382 . S
C150 H175 0.950 . S
C151 N146 1.332 . S
C151 C150 1.382 . S
C151 H161 0.948 . S
N152 Co130 2.282 1_655 S
N152 C156 1.332 . S
N152 C157 1.332 . S
C153 C154 1.388 . S
C153 C157 1.382 . S
C153 H176 0.950 . S
C154 C153 1.388 . S
C154 C155 1.386 . S
C155 C154 1.386 . S
C155 C156 1.382 . S
C155 H177 0.950 . S
C156 N152 1.332 . S
C156 C155 1.382 . S
C156 H158 0.952 . S
C157 N152 1.332 . S
C157 C153 1.382 . S
C157 H159 0.948 . S
H158 C156 0.952 . S
H159 C157 0.948 . S
H160 C149 0.952 . S
H161 C151 0.948 . S
C162 C128 1.395 . S
C162 C132 1.391 1_455 S
C163 C125 1.389 . S
C163 C145 1.392 . S
C164 C135 1.392 . S
C164 C137 1.389 . S
C165 C140 1.395 . S
C165 C142 1.391 . S
H166 C126 0.951 . S
H167 C127 0.950 . S
H168 C133 0.949 . S
H169 C134 0.950 . S
H170 C138 0.951 . S
H171 C139 0.950 . S
H172 C143 0.949 . S
H173 C144 0.950 . S
H174 C148 0.950 . S
H175 C150 0.950 . S
H176 C153 0.950 . S
H177 C155 0.950 . S
C178 C179 1.443 . S
C178 N182 1.376 . S
C178 C216 1.389 . S
C179 C178 1.443 . S
C179 C180 1.340 . S
C179 H219 0.951 . S
C180 C179 1.340 . S
C180 C181 1.439 . S
C180 H220 0.950 . S
C181 C180 1.439 . S
C181 N182 1.374 . S
C181 C215 1.395 1_565 S
N182 C178 1.376 . S
N182 C181 1.374 . S
N182 Co183 2.008 1_565 S
Co183 N182 2.008 1_545 S
Co183 N184 1.995 . S
Co183 N189 2.008 . S
Co183 N194 1.995 1_545 S
Co183 N199 2.282 . S
Co183 N205 2.282 1_545 S
N184 Co183 1.995 . S
N184 C185 1.376 . S
N184 C188 1.383 . S
C185 N184 1.376 . S
C185 C186 1.446 . S
C185 C215 1.391 . S
C186 C185 1.446 . S
C186 C187 1.339 . S
C186 H221 0.949 . S
C187 C186 1.339 . S
C187 C188 1.439 . S
C187 H222 0.950 . S
C188 N184 1.383 . S
C188 C187 1.439 . S
C188 C217 1.392 . S
N189 Co183 2.008 . S
N189 C190 1.376 . S
N189 C193 1.374 . S
C190 N189 1.376 . S
C190 C191 1.443 . S
C190 C217 1.389 . S
C191 C190 1.443 . S
C191 C192 1.340 . S
C191 H223 0.951 . S
C192 C191 1.340 . S
C192 C193 1.439 . S
C192 H224 0.950 . S
C193 N189 1.374 . S
C193 C192 1.439 . S
C193 C218 1.395 . S
N194 Co183 1.995 1_565 S
N194 C195 1.376 . S
N194 C198 1.383 . S
C195 N194 1.376 . S
C195 C196 1.446 . S
C195 C218 1.391 1_565 S
C196 C195 1.446 . S
C196 C197 1.339 . S
C196 H225 0.949 . S
C197 C196 1.339 . S
C197 C198 1.439 . S
C197 H226 0.950 . S
C198 N194 1.383 . S
C198 C197 1.439 . S
C198 C216 1.392 . S
N199 Co183 2.282 . S
N199 C202 1.332 . S
N199 C204 1.332 . S
C200 C201 1.386 . S
C200 C203 1.388 . S
C201 C200 1.386 . S
C201 C202 1.382 . S
C201 H227 0.950 . S
C202 N199 1.332 . S
C202 C201 1.382 . S
C202 H213 0.952 . S
C203 C200 1.388 . S
C203 C204 1.382 . S
C203 H228 0.950 . S
C204 N199 1.332 . S
C204 C203 1.382 . S
C204 H214 0.948 . S
N205 Co183 2.282 1_565 S
N205 C209 1.332 . S
N205 C210 1.332 . S
C206 C207 1.388 . S
C206 C210 1.382 . S
C206 H229 0.950 . S
C207 C206 1.388 . S
C207 C208 1.386 . S
C208 C207 1.386 . S
C208 C209 1.382 . S
C208 H230 0.950 . S
C209 N205 1.332 . S
C209 C208 1.382 . S
C209 H211 0.952 . S
C210 N205 1.332 . S
C210 C206 1.382 . S
C210 H212 0.948 . S
H211 C209 0.952 . S
H212 C210 0.948 . S
H213 C202 0.952 . S
H214 C204 0.948 . S
C215 C181 1.395 1_545 S
C215 C185 1.391 . S
C216 C178 1.389 . S
C216 C198 1.392 . S
C217 C188 1.392 . S
C217 C190 1.389 . S
C218 C193 1.395 . S
C218 C195 1.391 1_545 S
H219 C179 0.951 . S
H220 C180 0.950 . S
H221 C186 0.949 . S
H222 C187 0.950 . S
H223 C191 0.951 . S
H224 C192 0.950 . S
H225 C196 0.949 . S
H226 C197 0.950 . S
H227 C201 0.950 . S
H228 C203 0.950 . S
H229 C206 0.950 . S
H230 C208 0.950 . S
C231 C232 1.443 . S
C231 N235 1.376 . S
C231 C269 1.389 . S
C232 C231 1.443 . S
C232 C233 1.340 . S
C232 H272 0.951 . S
C233 C232 1.340 . S
C233 C234 1.439 . S
C233 H273 0.950 . S
C234 C233 1.439 . S
C234 N235 1.374 . S
C234 C268 1.395 . S
N235 C231 1.376 . S
N235 C234 1.374 . S
N235 Co236 2.008 . S
Co236 N235 2.008 . S
Co236 N237 1.995 1_554 S
Co236 N242 2.008 1_554 S
Co236 N247 1.995 . S
Co236 N252 2.282 1_554 S
Co236 N258 2.282 . S
N237 Co236 1.995 1_556 S
N237 C238 1.376 1_556 S
N237 C241 1.383 . S
C238 N237 1.376 1_554 S
C238 C239 1.446 1_554 S
C238 C268 1.391 . S
C239 C238 1.446 1_556 S
C239 C240 1.339 . S
C239 H274 0.949 . S
C240 C239 1.339 . S
C240 C241 1.439 . S
C240 H275 0.950 . S
C241 N237 1.383 . S
C241 C240 1.439 . S
C241 C270 1.392 . S
N242 Co236 2.008 1_556 S
N242 C243 1.376 . S
N242 C246 1.374 . S
C243 N242 1.376 . S
C243 C244 1.443 . S
C243 C270 1.389 . S
C244 C243 1.443 . S
C244 C245 1.340 . S
C244 H276 0.951 . S
C245 C244 1.340 . S
C245 C246 1.439 . S
C245 H277 0.950 . S
C246 N242 1.374 . S
C246 C245 1.439 . S
C246 C271 1.395 1_556 S
N247 Co236 1.995 . S
N247 C248 1.376 . S
N247 C251 1.383 . S
C248 N247 1.376 . S
C248 C249 1.446 . S
C248 C271 1.391 . S
C249 C248 1.446 . S
C249 C250 1.339 . S
C249 H278 0.949 . S
C250 C249 1.339 . S
C250 C251 1.439 . S
C250 H279 0.950 . S
C251 N247 1.383 . S
C251 C250 1.439 . S
C251 C269 1.392 . S
N252 Co236 2.282 1_556 S
N252 C255 1.332 . S
N252 C257 1.332 . S
C253 C254 1.386 . S
C253 C256 1.388 . S
C254 C253 1.386 . S
C254 C255 1.382 . S
C254 H280 0.950 . S
C255 N252 1.332 . S
C255 C254 1.382 . S
C255 H266 0.952 . S
C256 C253 1.388 . S
C256 C257 1.382 . S
C256 H281 0.950 . S
C257 N252 1.332 . S
C257 C256 1.382 . S
C257 H267 0.948 . S
N258 Co236 2.282 . S
N258 C262 1.332 . S
N258 C263 1.332 . S
C259 C260 1.388 . S
C259 C263 1.382 . S
C259 H282 0.950 . S
C260 C259 1.388 . S
C260 C261 1.386 . S
C261 C260 1.386 . S
C261 C262 1.382 . S
C261 H283 0.950 . S
C262 N258 1.332 . S
C262 C261 1.382 . S
C262 H264 0.952 . S
C263 N258 1.332 . S
C263 C259 1.382 . S
C263 H265 0.948 . S
H264 C262 0.952 . S
H265 C263 0.948 . S
H266 C255 0.952 . S
H267 C257 0.948 . S
C268 C234 1.395 . S
C268 C238 1.391 . S
C269 C231 1.389 . S
C269 C251 1.392 . S
C270 C241 1.392 . S
C270 C243 1.389 . S
C271 C246 1.395 1_554 S
C271 C248 1.391 . S
H272 C232 0.951 . S
H273 C233 0.950 . S
H274 C239 0.949 . S
H275 C240 0.950 . S
H276 C244 0.951 . S
H277 C245 0.950 . S
H278 C249 0.949 . S
H279 C250 0.950 . S
H280 C254 0.950 . S
H281 C256 0.950 . S
H282 C259 0.950 . S
H283 C261 0.950 . S
C284 C285 1.443 . S
C284 N288 1.376 1_565 S
C284 C322 1.389 . S
C285 C284 1.443 . S
C285 C286 1.340 . S
C285 H325 0.951 . S
C286 C285 1.340 . S
C286 C287 1.439 1_565 S
C286 H326 0.950 . S
C287 C286 1.439 1_545 S
C287 N288 1.374 . S
C287 C321 1.395 . S
N288 C284 1.376 1_545 S
N288 C287 1.374 . S
N288 Co289 2.008 . S
Co289 N288 2.008 . S
Co289 N290 1.995 . S
Co289 N295 2.008 . S
Co289 N300 1.995 . S
Co289 N305 2.282 . S
Co289 N311 2.282 1_545 S
N290 Co289 1.995 . S
N290 C291 1.376 . S
N290 C294 1.383 . S
C291 N290 1.376 . S
C291 C292 1.446 . S
C291 C321 1.391 . S
C292 C291 1.446 . S
C292 C293 1.339 . S
C292 H327 0.949 . S
C293 C292 1.339 . S
C293 C294 1.439 . S
C293 H328 0.950 . S
C294 N290 1.383 . S
C294 C293 1.439 . S
C294 C323 1.392 . S
N295 Co289 2.008 . S
N295 C296 1.376 . S
N295 C299 1.374 . S
C296 N295 1.376 . S
C296 C297 1.443 . S
C296 C323 1.389 . S
C297 C296 1.443 . S
C297 C298 1.340 . S
C297 H329 0.951 . S
C298 C297 1.340 . S
C298 C299 1.439 . S
C298 H330 0.950 . S
C299 N295 1.374 . S
C299 C298 1.439 . S
C299 C324 1.395 . S
N300 Co289 1.995 . S
N300 C301 1.376 . S
N300 C304 1.383 1_545 S
C301 N300 1.376 . S
C301 C302 1.446 1_545 S
C301 C324 1.391 . S
C302 C301 1.446 1_565 S
C302 C303 1.339 . S
C302 H331 0.949 . S
C303 C302 1.339 . S
C303 C304 1.439 . S
C303 H332 0.950 . S
C304 N300 1.383 1_565 S
C304 C303 1.439 . S
C304 C322 1.392 . S
N305 Co289 2.282 . S
N305 C308 1.332 . S
N305 C310 1.332 . S
C306 C307 1.386 . S
C306 C309 1.388 . S
C307 C306 1.386 . S
C307 C308 1.382 . S
C307 H333 0.950 . S
C308 N305 1.332 . S
C308 C307 1.382 . S
C308 H319 0.952 . S
C309 C306 1.388 . S
C309 C310 1.382 . S
C309 H334 0.950 . S
C310 N305 1.332 . S
C310 C309 1.382 . S
C310 H320 0.948 . S
N311 Co289 2.282 1_565 S
N311 C315 1.332 . S
N311 C316 1.332 . S
C312 C313 1.388 . S
C312 C316 1.382 . S
C312 H335 0.950 . S
C313 C312 1.388 . S
C313 C314 1.386 . S
C314 C313 1.386 . S
C314 C315 1.382 . S
C314 H336 0.950 . S
C315 N311 1.332 . S
C315 C314 1.382 . S
C315 H317 0.952 . S
C316 N311 1.332 . S
C316 C312 1.382 . S
C316 H318 0.948 . S
H317 C315 0.952 . S
H318 C316 0.948 . S
H319 C308 0.952 . S
H320 C310 0.948 . S
C321 C287 1.395 . S
C321 C291 1.391 . S
C322 C284 1.389 . S
C322 C304 1.392 . S
C323 C294 1.392 . S
C323 C296 1.389 . S
C324 C299 1.395 . S
C324 C301 1.391 . S
H325 C285 0.951 . S
H326 C286 0.950 . S
H327 C292 0.949 . S
H328 C293 0.950 . S
H329 C297 0.951 . S
H330 C298 0.950 . S
H331 C302 0.949 . S
H332 C303 0.950 . S
H333 C307 0.950 . S
H334 C309 0.950 . S
H335 C312 0.950 . S
H336 C314 0.950 . S
C337 C338 1.443 . S
C337 N341 1.376 . S
C337 C375 1.389 . S
C338 C337 1.443 . S
C338 C339 1.340 . S
C338 H378 0.951 . S
C339 C338 1.340 . S
C339 C340 1.439 . S
C339 H379 0.950 . S
C340 C339 1.439 . S
C340 N341 1.374 . S
C340 C374 1.395 . S
N341 C337 1.376 . S
N341 C340 1.374 . S
N341 Co342 2.008 . S
Co342 N341 2.008 . S
Co342 N343 1.995 . S
Co342 N348 2.008 . S
Co342 N353 1.995 . S
Co342 N358 2.282 . S
Co342 N364 2.282 . S
N343 Co342 1.995 . S
N343 C344 1.376 . S
N343 C347 1.383 1_554 S
C344 N343 1.376 . S
C344 C345 1.446 1_554 S
C344 C374 1.391 . S
C345 C344 1.446 1_556 S
C345 C346 1.339 . S
C345 H380 0.949 . S
C346 C345 1.339 . S
C346 C347 1.439 . S
C346 H381 0.950 . S
C347 N343 1.383 1_556 S
C347 C346 1.439 . S
C347 C376 1.392 . S
N348 Co342 2.008 . S
N348 C349 1.376 1_554 S
N348 C352 1.374 . S
C349 N348 1.376 1_556 S
C349 C350 1.443 . S
C349 C376 1.389 . S
C350 C349 1.443 . S
C350 C351 1.340 . S
C350 H382 0.951 . S
C351 C350 1.340 . S
C351 C352 1.439 1_556 S
C351 H383 0.950 . S
C352 N348 1.374 . S
C352 C351 1.439 1_554 S
C352 C377 1.395 . S
N353 Co342 1.995 . S
N353 C354 1.376 . S
N353 C357 1.383 . S
C354 N353 1.376 . S
C354 C355 1.446 . S
C354 C377 1.391 . S
C355 C354 1.446 . S
C355 C356 1.339 . S
C355 H384 0.949 . S
C356 C355 1.339 . S
C356 C357 1.439 . S
C356 H385 0.950 . S
C357 N353 1.383 . S
C357 C356 1.439 . S
C357 C375 1.392 . S
N358 Co342 2.282 . S
N358 C361 1.332 1_554 S
N358 C363 1.332 1_554 S
C359 C360 1.386 . S
C359 C362 1.388 . S
C360 C359 1.386 . S
C360 C361 1.382 . S
C360 H386 0.950 . S
C361 N358 1.332 1_556 S
C361 C360 1.382 . S
C361 H372 0.952 1_556 S
C362 C359 1.388 . S
C362 C363 1.382 . S
C362 H387 0.950 . S
C363 N358 1.332 1_556 S
C363 C362 1.382 . S
C363 H373 0.948 . S
N364 Co342 2.282 . S
N364 C368 1.332 . S
N364 C369 1.332 . S
C365 C366 1.388 . S
C365 C369 1.382 . S
C365 H388 0.950 . S
C366 C365 1.388 . S
C366 C367 1.386 . S
C367 C366 1.386 . S
C367 C368 1.382 . S
C367 H389 0.950 . S
C368 N364 1.332 . S
C368 C367 1.382 . S
C368 H370 0.952 . S
C369 N364 1.332 . S
C369 C365 1.382 . S
C369 H371 0.948 . S
H370 C368 0.952 . S
H371 C369 0.948 . S
H372 C361 0.952 1_554 S
H373 C363 0.948 . S
C374 C340 1.395 . S
C374 C344 1.391 . S
C375 C337 1.389 . S
C375 C357 1.392 . S
C376 C347 1.392 . S
C376 C349 1.389 . S
C377 C352 1.395 . S
C377 C354 1.391 . S
H378 C338 0.951 . S
H379 C339 0.950 . S
H380 C345 0.949 . S
H381 C346 0.950 . S
H382 C350 0.951 . S
H383 C351 0.950 . S
H384 C355 0.949 . S
H385 C356 0.950 . S
H386 C360 0.950 . S
H387 C362 0.950 . S
H388 C365 0.950 . S
H389 C367 0.950 . S
H390 C402 0.930 . S
H391 C404 0.930 . S
H392 C405 0.930 . S
H393 C409 0.959 . S
H394 C409 0.959 . S
H395 C409 0.961 . S
H396 C410 0.960 . S
H397 C410 0.961 . S
H398 C410 0.959 . S
H399 C413 0.929 . S
H400 C414 0.931 . S
H401 C416 0.930 . S
C402 H390 0.930 . S
C402 C403 1.399 . S
C402 C407 1.399 . S
C403 C402 1.399 . S
C403 C404 1.376 . S
C404 H391 0.930 . S
C404 C403 1.376 . S
C404 C405 1.388 . S
C405 H392 0.930 . S
C405 C404 1.388 . S
C405 C406 1.390 . S
C406 C405 1.390 . S
C406 C407 1.394 . S
C406 C412 1.465 . S
C407 C402 1.399 . S
C407 C406 1.394 . S
C407 C408 1.516 . S
C408 C407 1.516 . S
C408 C409 1.502 . S
C408 C410 1.561 . S
C408 C411 1.526 . S
C409 H393 0.959 . S
C409 H394 0.959 . S
C409 H395 0.961 . S
C409 C408 1.502 . S
C410 H396 0.960 . S
C410 H397 0.961 . S
C410 H398 0.959 . S
C410 C408 1.561 . S
C411 C408 1.526 . S
C411 C412 1.396 . S
C411 C416 1.390 . S
C412 C406 1.465 . S
C412 C411 1.396 . S
C412 C413 1.399 . S
C413 H399 0.929 . S
C413 C412 1.399 . S
C413 C414 1.385 . S
C414 H400 0.931 . S
C414 C413 1.385 . S
C414 C415 1.389 . S
C415 C414 1.389 . S
C415 C416 1.387 . S
C416 H401 0.930 . S
C416 C411 1.390 . S
C416 C415 1.387 . S
H417 C429 0.930 . S
H418 C431 0.930 . S
H419 C432 0.930 . S
H420 C436 0.959 . S
H421 C436 0.959 . S
H422 C436 0.961 . S
H423 C437 0.960 . S
H424 C437 0.961 . S
H425 C437 0.959 . S
H426 C440 0.929 . S
H427 C441 0.931 . S
H428 C443 0.930 . S
C429 H417 0.930 . S
C429 C430 1.399 . S
C429 C434 1.399 . S
C430 C429 1.399 . S
C430 C431 1.376 . S
C431 H418 0.930 . S
C431 C430 1.376 . S
C431 C432 1.388 . S
C432 H419 0.930 . S
C432 C431 1.388 . S
C432 C433 1.390 . S
C433 C432 1.390 . S
C433 C434 1.394 . S
C433 C439 1.465 . S
C434 C429 1.399 . S
C434 C433 1.394 . S
C434 C435 1.516 . S
C435 C434 1.516 . S
C435 C436 1.502 . S
C435 C437 1.561 . S
C435 C438 1.526 . S
C436 H420 0.959 . S
C436 H421 0.959 . S
C436 H422 0.961 . S
C436 C435 1.502 . S
C437 H423 0.960 . S
C437 H424 0.961 . S
C437 H425 0.959 . S
C437 C435 1.561 . S
C438 C435 1.526 . S
C438 C439 1.396 . S
C438 C443 1.390 . S
C439 C433 1.465 . S
C439 C438 1.396 . S
C439 C440 1.399 . S
C440 H426 0.929 . S
C440 C439 1.399 . S
C440 C441 1.385 . S
C441 H427 0.931 . S
C441 C440 1.385 . S
C441 C442 1.389 . S
C442 C441 1.389 . S
C442 C443 1.387 . S
C443 H428 0.930 . S
C443 C438 1.390 . S
C443 C442 1.387 . S
H444 C456 0.930 . S
H445 C458 0.930 . S
H446 C459 0.930 . S
H447 C463 0.959 . S
H448 C463 0.959 . S
H449 C463 0.961 . S
H450 C464 0.960 . S
H451 C464 0.961 . S
H452 C464 0.959 . S
H453 C467 0.929 . S
H454 C468 0.931 . S
H455 C470 0.930 . S
C456 H444 0.930 . S
C456 C457 1.399 . S
C456 C461 1.399 . S
C457 C456 1.399 . S
C457 C458 1.376 . S
C458 H445 0.930 . S
C458 C457 1.376 . S
C458 C459 1.388 . S
C459 H446 0.930 . S
C459 C458 1.388 . S
C459 C460 1.390 . S
C460 C459 1.390 . S
C460 C461 1.394 . S
C460 C466 1.465 . S
C461 C456 1.399 . S
C461 C460 1.394 . S
C461 C462 1.516 . S
C462 C461 1.516 . S
C462 C463 1.502 . S
C462 C464 1.561 . S
C462 C465 1.526 . S
C463 H447 0.959 . S
C463 H448 0.959 . S
C463 H449 0.961 . S
C463 C462 1.502 . S
C464 H450 0.960 . S
C464 H451 0.961 . S
C464 H452 0.959 . S
C464 C462 1.561 . S
C465 C462 1.526 . S
C465 C466 1.396 . S
C465 C470 1.390 . S
C466 C460 1.465 . S
C466 C465 1.396 . S
C466 C467 1.399 . S
C467 H453 0.929 . S
C467 C466 1.399 . S
C467 C468 1.385 . S
C468 H454 0.931 . S
C468 C467 1.385 . S
C468 C469 1.389 . S
C469 C468 1.389 . S
C469 C470 1.387 . S
C470 H455 0.930 . S
C470 C465 1.390 . S
C470 C469 1.387 . S
H471 C483 0.930 . S
H472 C485 0.930 . S
H473 C486 0.930 . S
H474 C490 0.959 . S
H475 C490 0.959 . S
H476 C490 0.961 . S
H477 C491 0.960 . S
H478 C491 0.961 . S
H479 C491 0.959 . S
H480 C494 0.929 . S
H481 C495 0.931 . S
H482 C497 0.930 . S
C483 H471 0.930 . S
C483 C484 1.399 . S
C483 C488 1.399 . S
C484 C483 1.399 . S
C484 C485 1.376 . S
C485 H472 0.930 . S
C485 C484 1.376 . S
C485 C486 1.388 . S
C486 H473 0.930 . S
C486 C485 1.388 . S
C486 C487 1.390 . S
C487 C486 1.390 . S
C487 C488 1.394 . S
C487 C493 1.465 . S
C488 C483 1.399 . S
C488 C487 1.394 . S
C488 C489 1.516 . S
C489 C488 1.516 . S
C489 C490 1.502 . S
C489 C491 1.561 . S
C489 C492 1.526 . S
C490 H474 0.959 . S
C490 H475 0.959 . S
C490 H476 0.961 . S
C490 C489 1.502 . S
C491 H477 0.960 . S
C491 H478 0.961 . S
C491 H479 0.959 . S
C491 C489 1.561 . S
C492 C489 1.526 . S
C492 C493 1.396 . S
C492 C497 1.390 . S
C493 C487 1.465 . S
C493 C492 1.396 . S
C493 C494 1.399 . S
C494 H480 0.929 . S
C494 C493 1.399 . S
C494 C495 1.385 . S
C495 H481 0.931 . S
C495 C494 1.385 . S
C495 C496 1.389 . S
C496 C495 1.389 . S
C496 C497 1.387 . S
C497 H482 0.930 . S
C497 C492 1.390 . S
C497 C496 1.387 . S
H498 C510 0.930 . S
H499 C512 0.930 . S
H500 C513 0.930 . S
H501 C517 0.959 . S
H502 C517 0.959 . S
H503 C517 0.961 . S
H504 C518 0.960 . S
H505 C518 0.961 . S
H506 C518 0.959 . S
H507 C521 0.929 . S
H508 C522 0.931 . S
H509 C524 0.930 . S
C510 H498 0.930 . S
C510 C511 1.399 . S
C510 C515 1.399 . S
C511 C510 1.399 . S
C511 C512 1.376 . S
C512 H499 0.930 . S
C512 C511 1.376 . S
C512 C513 1.388 . S
C513 H500 0.930 . S
C513 C512 1.388 . S
C513 C514 1.390 . S
C514 C513 1.390 . S
C514 C515 1.394 . S
C514 C520 1.465 . S
C515 C510 1.399 . S
C515 C514 1.394 . S
C515 C516 1.516 . S
C516 C515 1.516 . S
C516 C517 1.502 . S
C516 C518 1.561 . S
C516 C519 1.526 . S
C517 H501 0.959 . S
C517 H502 0.959 . S
C517 H503 0.961 . S
C517 C516 1.502 . S
C518 H504 0.960 . S
C518 H505 0.961 . S
C518 H506 0.959 . S
C518 C516 1.561 . S
C519 C516 1.526 . S
C519 C520 1.396 . S
C519 C524 1.390 . S
C520 C514 1.465 . S
C520 C519 1.396 . S
C520 C521 1.399 . S
C521 H507 0.929 . S
C521 C520 1.399 . S
C521 C522 1.385 . S
C522 H508 0.931 . S
C522 C521 1.385 . S
C522 C523 1.389 . S
C523 C522 1.389 . S
C523 C524 1.387 . S
C524 H509 0.930 . S
C524 C519 1.390 . S
C524 C523 1.387 . S
H525 C537 0.930 . S
H526 C539 0.930 . S
H527 C540 0.930 . S
H528 C544 0.959 . S
H529 C544 0.959 . S
H530 C544 0.961 . S
H531 C545 0.960 . S
H532 C545 0.961 . S
H533 C545 0.959 . S
H534 C548 0.929 . S
H535 C549 0.931 . S
H536 C551 0.930 . S
C537 H525 0.930 . S
C537 C538 1.399 . S
C537 C542 1.399 . S
C538 C537 1.399 . S
C538 C539 1.376 . S
C539 H526 0.930 . S
C539 C538 1.376 . S
C539 C540 1.388 . S
C540 H527 0.930 . S
C540 C539 1.388 . S
C540 C541 1.390 . S
C541 C540 1.390 . S
C541 C542 1.394 . S
C541 C547 1.465 . S
C542 C537 1.399 . S
C542 C541 1.394 . S
C542 C543 1.516 . S
C543 C542 1.516 . S
C543 C544 1.502 . S
C543 C545 1.561 . S
C543 C546 1.526 . S
C544 H528 0.959 . S
C544 H529 0.959 . S
C544 H530 0.961 . S
C544 C543 1.502 . S
C545 H531 0.960 . S
C545 H532 0.961 . S
C545 H533 0.959 . S
C545 C543 1.561 . S
C546 C543 1.526 . S
C546 C547 1.396 . S
C546 C551 1.390 . S
C547 C541 1.465 . S
C547 C546 1.396 . S
C547 C548 1.399 . S
C548 H534 0.929 . S
C548 C547 1.399 . S
C548 C549 1.385 . S
C549 H535 0.931 . S
C549 C548 1.385 . S
C549 C550 1.389 . S
C550 C549 1.389 . S
C550 C551 1.387 . S
C551 H536 0.930 . S
C551 C546 1.390 . S
C551 C550 1.387 . S
H552 C564 0.930 . S
H553 C566 0.930 . S
H554 C567 0.930 . S
H555 C571 0.959 . S
H556 C571 0.959 . S
H557 C571 0.961 . S
H558 C572 0.960 . S
H559 C572 0.961 . S
H560 C572 0.959 . S
H561 C575 0.929 . S
H562 C576 0.931 . S
H563 C578 0.930 . S
C564 H552 0.930 . S
C564 C565 1.399 . S
C564 C569 1.399 . S
C565 C564 1.399 . S
C565 C566 1.376 . S
C566 H553 0.930 . S
C566 C565 1.376 . S
C566 C567 1.388 . S
C567 H554 0.930 . S
C567 C566 1.388 . S
C567 C568 1.390 . S
C568 C567 1.390 . S
C568 C569 1.394 . S
C568 C574 1.465 . S
C569 C564 1.399 . S
C569 C568 1.394 . S
C569 C570 1.516 . S
C570 C569 1.516 . S
C570 C571 1.502 . S
C570 C572 1.561 . S
C570 C573 1.526 . S
C571 H555 0.959 . S
C571 H556 0.959 . S
C571 H557 0.961 . S
C571 C570 1.502 . S
C572 H558 0.960 . S
C572 H559 0.961 . S
C572 H560 0.959 . S
C572 C570 1.561 . S
C573 C570 1.526 . S
C573 C574 1.396 . S
C573 C578 1.390 . S
C574 C568 1.465 . S
C574 C573 1.396 . S
C574 C575 1.399 . S
C575 H561 0.929 . S
C575 C574 1.399 . S
C575 C576 1.385 . S
C576 H562 0.931 . S
C576 C575 1.385 . S
C576 C577 1.389 . S
C577 C576 1.389 . S
C577 C578 1.387 . S
C578 H563 0.930 . S
C578 C573 1.390 . S
C578 C577 1.387 . S
H579 C591 0.930 . S
H580 C593 0.930 . S
H581 C594 0.930 . S
H582 C598 0.959 . S
H583 C598 0.959 . S
H584 C598 0.961 . S
H585 C599 0.960 . S
H586 C599 0.961 . S
H587 C599 0.959 . S
H588 C602 0.929 . S
H589 C603 0.931 . S
H590 C605 0.930 . S
C591 H579 0.930 . S
C591 C592 1.399 . S
C591 C596 1.399 . S
C592 C591 1.399 . S
C592 C593 1.376 . S
C593 H580 0.930 . S
C593 C592 1.376 . S
C593 C594 1.388 . S
C594 H581 0.930 . S
C594 C593 1.388 . S
C594 C595 1.390 . S
C595 C594 1.390 . S
C595 C596 1.394 . S
C595 C601 1.465 . S
C596 C591 1.399 . S
C596 C595 1.394 . S
C596 C597 1.516 . S
C597 C596 1.516 . S
C597 C598 1.502 . S
C597 C599 1.561 . S
C597 C600 1.526 . S
C598 H582 0.959 . S
C598 H583 0.959 . S
C598 H584 0.961 . S
C598 C597 1.502 . S
C599 H585 0.960 . S
C599 H586 0.961 . S
C599 H587 0.959 . S
C599 C597 1.561 . S
C600 C597 1.526 . S
C600 C601 1.396 . S
C600 C605 1.390 . S
C601 C595 1.465 . S
C601 C600 1.396 . S
C601 C602 1.399 . S
C602 H588 0.929 . S
C602 C601 1.399 . S
C602 C603 1.385 . S
C603 H589 0.931 . S
C603 C602 1.385 . S
C603 C604 1.389 . S
C604 C603 1.389 . S
C604 C605 1.387 . S
C605 H590 0.930 . S
C605 C600 1.390 . S
C605 C604 1.387 . S
H606 C618 0.930 . S
H607 C620 0.930 . S
H608 C621 0.930 . S
H609 C625 0.959 . S
H610 C625 0.959 . S
H611 C625 0.961 . S
H612 C626 0.960 . S
H613 C626 0.961 . S
H614 C626 0.959 . S
H615 C629 0.929 . S
H616 C630 0.931 . S
H617 C632 0.930 . S
C618 H606 0.930 . S
C618 C619 1.399 . S
C618 C623 1.399 . S
C619 C618 1.399 . S
C619 C620 1.376 . S
C620 H607 0.930 . S
C620 C619 1.376 . S
C620 C621 1.388 . S
C621 H608 0.930 . S
C621 C620 1.388 . S
C621 C622 1.390 . S
C622 C621 1.390 . S
C622 C623 1.394 . S
C622 C628 1.465 . S
C623 C618 1.399 . S
C623 C622 1.394 . S
C623 C624 1.516 . S
C624 C623 1.516 . S
C624 C625 1.502 . S
C624 C626 1.561 . S
C624 C627 1.526 . S
C625 H609 0.959 . S
C625 H610 0.959 . S
C625 H611 0.961 . S
C625 C624 1.502 . S
C626 H612 0.960 . S
C626 H613 0.961 . S
C626 H614 0.959 . S
C626 C624 1.561 . S
C627 C624 1.526 . S
C627 C628 1.396 . S
C627 C632 1.390 . S
C628 C622 1.465 . S
C628 C627 1.396 . S
C628 C629 1.399 . S
C629 H615 0.929 . S
C629 C628 1.399 . S
C629 C630 1.385 . S
C630 H616 0.931 . S
C630 C629 1.385 . S
C630 C631 1.389 . S
C631 C630 1.389 . S
C631 C632 1.387 . S
C632 H617 0.930 . S
C632 C627 1.390 . S
C632 C631 1.387 . S
H633 C645 0.930 . S
H634 C647 0.930 . S
H635 C648 0.930 . S
H636 C652 0.959 . S
H637 C652 0.959 . S
H638 C652 0.961 . S
H639 C653 0.960 . S
H640 C653 0.961 . S
H641 C653 0.959 . S
H642 C656 0.929 . S
H643 C657 0.931 . S
H644 C659 0.930 . S
C645 H633 0.930 . S
C645 C646 1.399 . S
C645 C650 1.399 . S
C646 C645 1.399 . S
C646 C647 1.376 . S
C647 H634 0.930 . S
C647 C646 1.376 . S
C647 C648 1.388 . S
C648 H635 0.930 . S
C648 C647 1.388 . S
C648 C649 1.390 . S
C649 C648 1.390 . S
C649 C650 1.394 . S
C649 C655 1.465 . S
C650 C645 1.399 . S
C650 C649 1.394 . S
C650 C651 1.516 . S
C651 C650 1.516 . S
C651 C652 1.502 . S
C651 C653 1.561 . S
C651 C654 1.526 . S
C652 H636 0.959 . S
C652 H637 0.959 . S
C652 H638 0.961 . S
C652 C651 1.502 . S
C653 H639 0.960 . S
C653 H640 0.961 . S
C653 H641 0.959 . S
C653 C651 1.561 . S
C654 C651 1.526 . S
C654 C655 1.396 . S
C654 C659 1.390 . S
C655 C649 1.465 . S
C655 C654 1.396 . S
C655 C656 1.399 . S
C656 H642 0.929 . S
C656 C655 1.399 . S
C656 C657 1.385 . S
C657 H643 0.931 . S
C657 C656 1.385 . S
C657 C658 1.389 . S
C658 C657 1.389 . S
C658 C659 1.387 . S
C659 H644 0.930 . S
C659 C654 1.390 . S
C659 C658 1.387 . S
H660 C672 0.930 . S
H661 C674 0.930 . S
H662 C675 0.930 . S
H663 C679 0.959 . S
H664 C679 0.959 . S
H665 C679 0.961 . S
H666 C680 0.960 . S
H667 C680 0.961 . S
H668 C680 0.959 . S
H669 C683 0.929 . S
H670 C684 0.931 . S
H671 C686 0.930 . S
C672 H660 0.930 . S
C672 C673 1.399 . S
C672 C677 1.399 . S
C673 C672 1.399 . S
C673 C674 1.376 . S
C674 H661 0.930 . S
C674 C673 1.376 . S
C674 C675 1.388 . S
C675 H662 0.930 . S
C675 C674 1.388 . S
C675 C676 1.390 . S
C676 C675 1.390 . S
C676 C677 1.394 . S
C676 C682 1.465 . S
C677 C672 1.399 . S
C677 C676 1.394 . S
C677 C678 1.516 . S
C678 C677 1.516 . S
C678 C679 1.502 . S
C678 C680 1.561 . S
C678 C681 1.526 . S
C679 H663 0.959 . S
C679 H664 0.959 . S
C679 H665 0.961 . S
C679 C678 1.502 . S
C680 H666 0.960 . S
C680 H667 0.961 . S
C680 H668 0.959 . S
C680 C678 1.561 . S
C681 C678 1.526 . S
C681 C682 1.396 . S
C681 C686 1.390 . S
C682 C676 1.465 . S
C682 C681 1.396 . S
C682 C683 1.399 . S
C683 H669 0.929 . S
C683 C682 1.399 . S
C683 C684 1.385 . S
C684 H670 0.931 . S
C684 C683 1.385 . S
C684 C685 1.389 . S
C685 C684 1.389 . S
C685 C686 1.387 . S
C686 H671 0.930 . S
C686 C681 1.390 . S
C686 C685 1.387 . S
H687 C699 0.930 . S
H688 C701 0.930 . S
H689 C702 0.930 . S
H690 C706 0.959 . S
H691 C706 0.959 . S
H692 C706 0.961 . S
H693 C707 0.960 . S
H694 C707 0.961 . S
H695 C707 0.959 . S
H696 C710 0.929 . S
H697 C711 0.931 . S
H698 C713 0.930 . S
C699 H687 0.930 . S
C699 C700 1.399 . S
C699 C704 1.399 . S
C700 C699 1.399 . S
C700 C701 1.376 . S
C701 H688 0.930 . S
C701 C700 1.376 . S
C701 C702 1.388 . S
C702 H689 0.930 . S
C702 C701 1.388 . S
C702 C703 1.390 . S
C703 C702 1.390 . S
C703 C704 1.394 . S
C703 C709 1.465 . S
C704 C699 1.399 . S
C704 C703 1.394 . S
C704 C705 1.516 . S
C705 C704 1.516 . S
C705 C706 1.502 . S
C705 C707 1.561 . S
C705 C708 1.526 . S
C706 H690 0.959 . S
C706 H691 0.959 . S
C706 H692 0.961 . S
C706 C705 1.502 . S
C707 H693 0.960 . S
C707 H694 0.961 . S
C707 H695 0.959 . S
C707 C705 1.561 . S
C708 C705 1.526 . S
C708 C709 1.396 . S
C708 C713 1.390 . S
C709 C703 1.465 . S
C709 C708 1.396 . S
C709 C710 1.399 . S
C710 H696 0.929 . S
C710 C709 1.399 . S
C710 C711 1.385 . S
C711 H697 0.931 . S
C711 C710 1.385 . S
C711 C712 1.389 . S
C712 C711 1.389 . S
C712 C713 1.387 . S
C713 H698 0.930 . S
C713 C708 1.390 . S
C713 C712 1.387 . S
H714 C726 0.930 . S
H715 C728 0.930 . S
H716 C729 0.930 . S
H717 C733 0.959 . S
H718 C733 0.959 . S
H719 C733 0.961 . S
H720 C734 0.960 . S
H721 C734 0.961 . S
H722 C734 0.959 . S
H723 C737 0.929 . S
H724 C738 0.931 . S
H725 C740 0.930 . S
C726 H714 0.930 . S
C726 C727 1.399 . S
C726 C731 1.399 . S
C727 C726 1.399 . S
C727 C728 1.376 . S
C728 H715 0.930 . S
C728 C727 1.376 . S
C728 C729 1.388 . S
C729 H716 0.930 . S
C729 C728 1.388 . S
C729 C730 1.390 . S
C730 C729 1.390 . S
C730 C731 1.394 . S
C730 C736 1.465 . S
C731 C726 1.399 . S
C731 C730 1.394 . S
C731 C732 1.516 . S
C732 C731 1.516 . S
C732 C733 1.502 . S
C732 C734 1.561 . S
C732 C735 1.526 . S
C733 H717 0.959 . S
C733 H718 0.959 . S
C733 H719 0.961 . S
C733 C732 1.502 . S
C734 H720 0.960 . S
C734 H721 0.961 . S
C734 H722 0.959 . S
C734 C732 1.561 . S
C735 C732 1.526 . S
C735 C736 1.396 . S
C735 C740 1.390 . S
C736 C730 1.465 . S
C736 C735 1.396 . S
C736 C737 1.399 . S
C737 H723 0.929 . S
C737 C736 1.399 . S
C737 C738 1.385 . S
C738 H724 0.931 . S
C738 C737 1.385 . S
C738 C739 1.389 . S
C739 C738 1.389 . S
C739 C740 1.387 . S
C740 H725 0.930 . S
C740 C735 1.390 . S
C740 C739 1.387 . S
H741 C753 0.930 . S
H742 C755 0.930 . S
H743 C756 0.930 . S
H744 C760 0.959 . S
H745 C760 0.959 . S
H746 C760 0.961 . S
H747 C761 0.960 . S
H748 C761 0.961 . S
H749 C761 0.959 . S
H750 C764 0.929 . S
H751 C765 0.931 . S
H752 C767 0.930 . S
C753 H741 0.930 . S
C753 C754 1.399 . S
C753 C758 1.399 . S
C754 C753 1.399 . S
C754 C755 1.376 . S
C755 H742 0.930 . S
C755 C754 1.376 . S
C755 C756 1.388 . S
C756 H743 0.930 . S
C756 C755 1.388 . S
C756 C757 1.390 . S
C757 C756 1.390 . S
C757 C758 1.394 . S
C757 C763 1.465 . S
C758 C753 1.399 . S
C758 C757 1.394 . S
C758 C759 1.516 . S
C759 C758 1.516 . S
C759 C760 1.502 . S
C759 C761 1.561 . S
C759 C762 1.526 . S
C760 H744 0.959 . S
C760 H745 0.959 . S
C760 H746 0.961 . S
C760 C759 1.502 . S
C761 H747 0.960 . S
C761 H748 0.961 . S
C761 H749 0.959 . S
C761 C759 1.561 . S
C762 C759 1.526 . S
C762 C763 1.396 . S
C762 C767 1.390 . S
C763 C757 1.465 . S
C763 C762 1.396 . S
C763 C764 1.399 . S
C764 H750 0.929 . S
C764 C763 1.399 . S
C764 C765 1.385 . S
C765 H751 0.931 . S
C765 C764 1.385 . S
C765 C766 1.389 . S
C766 C765 1.389 . S
C766 C767 1.387 . S
C767 H752 0.930 . S
C767 C762 1.390 . S
C767 C766 1.387 . S
H768 C780 0.930 . S
H769 C782 0.930 . S
H770 C783 0.930 . S
H771 C787 0.959 . S
H772 C787 0.959 . S
H773 C787 0.961 . S
H774 C788 0.960 . S
H775 C788 0.961 . S
H776 C788 0.959 . S
H777 C791 0.929 . S
H778 C792 0.931 . S
H779 C794 0.930 . S
C780 H768 0.930 . S
C780 C781 1.399 . S
C780 C785 1.399 . S
C781 C780 1.399 . S
C781 C782 1.376 . S
C782 H769 0.930 . S
C782 C781 1.376 . S
C782 C783 1.388 . S
C783 H770 0.930 . S
C783 C782 1.388 . S
C783 C784 1.390 . S
C784 C783 1.390 . S
C784 C785 1.394 . S
C784 C790 1.465 . S
C785 C780 1.399 . S
C785 C784 1.394 . S
C785 C786 1.516 . S
C786 C785 1.516 . S
C786 C787 1.502 . S
C786 C788 1.561 . S
C786 C789 1.526 . S
C787 H771 0.959 . S
C787 H772 0.959 . S
C787 H773 0.961 . S
C787 C786 1.502 . S
C788 H774 0.960 . S
C788 H775 0.961 . S
C788 H776 0.959 . S
C788 C786 1.561 . S
C789 C786 1.526 . S
C789 C790 1.396 . S
C789 C794 1.390 . S
C790 C784 1.465 . S
C790 C789 1.396 . S
C790 C791 1.399 . S
C791 H777 0.929 . S
C791 C790 1.399 . S
C791 C792 1.385 . S
C792 H778 0.931 . S
C792 C791 1.385 . S
C792 C793 1.389 . S
C793 C792 1.389 . S
C793 C794 1.387 . S
C794 H779 0.930 . S
C794 C789 1.390 . S
C794 C793 1.387 . S
H795 C807 0.930 . S
H796 C809 0.930 . S
H797 C810 0.930 . S
H798 C814 0.959 . S
H799 C814 0.959 . S
H800 C814 0.961 . S
H801 C815 0.960 . S
H802 C815 0.961 . S
H803 C815 0.959 . S
H804 C818 0.929 . S
H805 C819 0.931 . S
H806 C821 0.930 . S
C807 H795 0.930 . S
C807 C808 1.399 . S
C807 C812 1.399 . S
C808 C807 1.399 . S
C808 C809 1.376 . S
C809 H796 0.930 . S
C809 C808 1.376 . S
C809 C810 1.388 . S
C810 H797 0.930 . S
C810 C809 1.388 . S
C810 C811 1.390 . S
C811 C810 1.390 . S
C811 C812 1.394 . S
C811 C817 1.465 . S
C812 C807 1.399 . S
C812 C811 1.394 . S
C812 C813 1.516 . S
C813 C812 1.516 . S
C813 C814 1.502 . S
C813 C815 1.561 . S
C813 C816 1.526 . S
C814 H798 0.959 . S
C814 H799 0.959 . S
C814 H800 0.961 . S
C814 C813 1.502 . S
C815 H801 0.960 . S
C815 H802 0.961 . S
C815 H803 0.959 . S
C815 C813 1.561 . S
C816 C813 1.526 . S
C816 C817 1.396 . S
C816 C821 1.390 . S
C817 C811 1.465 . S
C817 C816 1.396 . S
C817 C818 1.399 . S
C818 H804 0.929 . S
C818 C817 1.399 . S
C818 C819 1.385 . S
C819 H805 0.931 . S
C819 C818 1.385 . S
C819 C820 1.389 . S
C820 C819 1.389 . S
C820 C821 1.387 . S
C821 H806 0.930 . S
C821 C816 1.390 . S
C821 C820 1.387 . S
H822 C834 0.930 . S
H823 C836 0.930 . S
H824 C837 0.930 . S
H825 C841 0.959 . S
H826 C841 0.959 . S
H827 C841 0.961 . S
H828 C842 0.960 . S
H829 C842 0.961 . S
H830 C842 0.959 . S
H831 C845 0.929 . S
H832 C846 0.931 . S
H833 C848 0.930 . S
C834 H822 0.930 . S
C834 C835 1.399 . S
C834 C839 1.399 . S
C835 C834 1.399 . S
C835 C836 1.376 . S
C836 H823 0.930 . S
C836 C835 1.376 . S
C836 C837 1.388 . S
C837 H824 0.930 . S
C837 C836 1.388 . S
C837 C838 1.390 . S
C838 C837 1.390 . S
C838 C839 1.394 . S
C838 C844 1.465 . S
C839 C834 1.399 . S
C839 C838 1.394 . S
C839 C840 1.516 . S
C840 C839 1.516 . S
C840 C841 1.502 . S
C840 C842 1.561 . S
C840 C843 1.526 . S
C841 H825 0.959 . S
C841 H826 0.959 . S
C841 H827 0.961 . S
C841 C840 1.502 . S
C842 H828 0.960 . S
C842 H829 0.961 . S
C842 H830 0.959 . S
C842 C840 1.561 . S
C843 C840 1.526 . S
C843 C844 1.396 . S
C843 C848 1.390 . S
C844 C838 1.465 . S
C844 C843 1.396 . S
C844 C845 1.399 . S
C845 H831 0.929 . S
C845 C844 1.399 . S
C845 C846 1.385 . S
C846 H832 0.931 . S
C846 C845 1.385 . S
C846 C847 1.389 . S
C847 C846 1.389 . S
C847 C848 1.387 . S
C848 H833 0.930 . S
C848 C843 1.390 . S
C848 C847 1.387 . S
H849 C861 0.930 . S
H850 C863 0.930 . S
H851 C864 0.930 . S
H852 C868 0.959 . S
H853 C868 0.959 . S
H854 C868 0.961 . S
H855 C869 0.960 . S
H856 C869 0.961 . S
H857 C869 0.959 . S
H858 C872 0.929 . S
H859 C873 0.931 . S
H860 C875 0.930 . S
C861 H849 0.930 . S
C861 C862 1.399 . S
C861 C866 1.399 . S
C862 C861 1.399 . S
C862 C863 1.376 . S
C863 H850 0.930 . S
C863 C862 1.376 . S
C863 C864 1.388 . S
C864 H851 0.930 . S
C864 C863 1.388 . S
C864 C865 1.390 . S
C865 C864 1.390 . S
C865 C866 1.394 . S
C865 C871 1.465 . S
C866 C861 1.399 . S
C866 C865 1.394 . S
C866 C867 1.516 . S
C867 C866 1.516 . S
C867 C868 1.502 . S
C867 C869 1.561 . S
C867 C870 1.526 . S
C868 H852 0.959 . S
C868 H853 0.959 . S
C868 H854 0.961 . S
C868 C867 1.502 . S
C869 H855 0.960 . S
C869 H856 0.961 . S
C869 H857 0.959 . S
C869 C867 1.561 . S
C870 C867 1.526 . S
C870 C871 1.396 . S
C870 C875 1.390 . S
C871 C865 1.465 . S
C871 C870 1.396 . S
C871 C872 1.399 . S
C872 H858 0.929 . S
C872 C871 1.399 . S
C872 C873 1.385 . S
C873 H859 0.931 . S
C873 C872 1.385 . S
C873 C874 1.389 . S
C874 C873 1.389 . S
C874 C875 1.387 . S
C875 H860 0.930 . S
C875 C870 1.390 . S
C875 C874 1.387 . S
H876 C888 0.930 . S
H877 C890 0.930 . S
H878 C891 0.930 . S
H879 C895 0.959 . S
H880 C895 0.959 . S
H881 C895 0.961 . S
H882 C896 0.960 . S
H883 C896 0.961 . S
H884 C896 0.959 . S
H885 C899 0.929 . S
H886 C900 0.931 . S
H887 C902 0.930 . S
C888 H876 0.930 . S
C888 C889 1.399 . S
C888 C893 1.399 . S
C889 C888 1.399 . S
C889 C890 1.376 . S
C890 H877 0.930 . S
C890 C889 1.376 . S
C890 C891 1.388 . S
C891 H878 0.930 . S
C891 C890 1.388 . S
C891 C892 1.390 . S
C892 C891 1.390 . S
C892 C893 1.394 . S
C892 C898 1.465 . S
C893 C888 1.399 . S
C893 C892 1.394 . S
C893 C894 1.516 . S
C894 C893 1.516 . S
C894 C895 1.502 . S
C894 C896 1.561 . S
C894 C897 1.526 . S
C895 H879 0.959 . S
C895 H880 0.959 . S
C895 H881 0.961 . S
C895 C894 1.502 . S
C896 H882 0.960 . S
C896 H883 0.961 . S
C896 H884 0.959 . S
C896 C894 1.561 . S
C897 C894 1.526 . S
C897 C898 1.396 . S
C897 C902 1.390 . S
C898 C892 1.465 . S
C898 C897 1.396 . S
C898 C899 1.399 . S
C899 H885 0.929 . S
C899 C898 1.399 . S
C899 C900 1.385 . S
C900 H886 0.931 . S
C900 C899 1.385 . S
C900 C901 1.389 . S
C901 C900 1.389 . S
C901 C902 1.387 . S
C902 H887 0.930 . S
C902 C897 1.390 . S
C902 C901 1.387 . S
H903 C915 0.930 . S
H904 C917 0.930 . S
H905 C918 0.930 . S
H906 C922 0.959 . S
H907 C922 0.959 . S
H908 C922 0.961 . S
H909 C923 0.960 . S
H910 C923 0.961 . S
H911 C923 0.959 . S
H912 C926 0.929 . S
H913 C927 0.931 . S
H914 C929 0.930 . S
C915 H903 0.930 . S
C915 C916 1.399 . S
C915 C920 1.399 . S
C916 C915 1.399 . S
C916 C917 1.376 . S
C917 H904 0.930 . S
C917 C916 1.376 . S
C917 C918 1.388 . S
C918 H905 0.930 . S
C918 C917 1.388 . S
C918 C919 1.390 . S
C919 C918 1.390 . S
C919 C920 1.394 . S
C919 C925 1.465 . S
C920 C915 1.399 . S
C920 C919 1.394 . S
C920 C921 1.516 . S
C921 C920 1.516 . S
C921 C922 1.502 . S
C921 C923 1.561 . S
C921 C924 1.526 . S
C922 H906 0.959 . S
C922 H907 0.959 . S
C922 H908 0.961 . S
C922 C921 1.502 . S
C923 H909 0.960 . S
C923 H910 0.961 . S
C923 H911 0.959 . S
C923 C921 1.561 . S
C924 C921 1.526 . S
C924 C925 1.396 . S
C924 C929 1.390 . S
C925 C919 1.465 . S
C925 C924 1.396 . S
C925 C926 1.399 . S
C926 H912 0.929 . S
C926 C925 1.399 . S
C926 C927 1.385 . S
C927 H913 0.931 . S
C927 C926 1.385 . S
C927 C928 1.389 . S
C928 C927 1.389 . S
C928 C929 1.387 . S
C929 H914 0.930 . S
C929 C924 1.390 . S
C929 C928 1.387 . S
H930 C942 0.930 . S
H931 C944 0.930 . S
H932 C945 0.930 . S
H933 C949 0.959 . S
H934 C949 0.959 . S
H935 C949 0.961 . S
H936 C950 0.960 . S
H937 C950 0.961 . S
H938 C950 0.959 . S
H939 C953 0.929 . S
H940 C954 0.931 . S
H941 C956 0.930 . S
C942 H930 0.930 . S
C942 C943 1.399 . S
C942 C947 1.399 . S
C943 C942 1.399 . S
C943 C944 1.376 . S
C944 H931 0.930 . S
C944 C943 1.376 . S
C944 C945 1.388 . S
C945 H932 0.930 . S
C945 C944 1.388 . S
C945 C946 1.390 . S
C946 C945 1.390 . S
C946 C947 1.394 . S
C946 C952 1.465 . S
C947 C942 1.399 . S
C947 C946 1.394 . S
C947 C948 1.516 . S
C948 C947 1.516 . S
C948 C949 1.502 . S
C948 C950 1.561 . S
C948 C951 1.526 . S
C949 H933 0.959 . S
C949 H934 0.959 . S
C949 H935 0.961 . S
C949 C948 1.502 . S
C950 H936 0.960 . S
C950 H937 0.961 . S
C950 H938 0.959 . S
C950 C948 1.561 . S
C951 C948 1.526 . S
C951 C952 1.396 . S
C951 C956 1.390 . S
C952 C946 1.465 . S
C952 C951 1.396 . S
C952 C953 1.399 . S
C953 H939 0.929 . S
C953 C952 1.399 . S
C953 C954 1.385 . S
C954 H940 0.931 . S
C954 C953 1.385 . S
C954 C955 1.389 . S
C955 C954 1.389 . S
C955 C956 1.387 . S
C956 H941 0.930 . S
C956 C951 1.390 . S
C956 C955 1.387 . S
H957 C969 0.930 . S
H958 C971 0.930 . S
H959 C972 0.930 . S
H960 C976 0.959 . S
H961 C976 0.959 . S
H962 C976 0.961 . S
H963 C977 0.960 . S
H964 C977 0.961 . S
H965 C977 0.959 . S
H966 C980 0.929 . S
H967 C981 0.931 . S
H968 C983 0.930 . S
C969 H957 0.930 . S
C969 C970 1.399 . S
C969 C974 1.399 . S
C970 C969 1.399 . S
C970 C971 1.376 . S
C971 H958 0.930 . S
C971 C970 1.376 . S
C971 C972 1.388 . S
C972 H959 0.930 . S
C972 C971 1.388 . S
C972 C973 1.390 . S
C973 C972 1.390 . S
C973 C974 1.394 . S
C973 C979 1.465 . S
C974 C969 1.399 . S
C974 C973 1.394 . S
C974 C975 1.516 . S
C975 C974 1.516 . S
C975 C976 1.502 . S
C975 C977 1.561 . S
C975 C978 1.526 . S
C976 H960 0.959 . S
C976 H961 0.959 . S
C976 H962 0.961 . S
C976 C975 1.502 . S
C977 H963 0.960 . S
C977 H964 0.961 . S
C977 H965 0.959 . S
C977 C975 1.561 . S
C978 C975 1.526 . S
C978 C979 1.396 . S
C978 C983 1.390 . S
C979 C973 1.465 . S
C979 C978 1.396 . S
C979 C980 1.399 . S
C980 H966 0.929 . S
C980 C979 1.399 . S
C980 C981 1.385 . S
C981 H967 0.931 . S
C981 C980 1.385 . S
C981 C982 1.389 . S
C982 C981 1.389 . S
C982 C983 1.387 . S
C983 H968 0.930 . S
C983 C978 1.390 . S
C983 C982 1.387 . S
H984 C996 0.930 . S
H985 C998 0.930 . S
H986 C999 0.930 . S
H987 C1003 0.959 . S
H988 C1003 0.959 . S
H989 C1003 0.961 . S
H990 C1004 0.960 . S
H991 C1004 0.961 . S
H992 C1004 0.959 . S
H993 C1007 0.929 . S
H994 C1008 0.931 . S
H995 C1010 0.930 . S
C996 H984 0.930 . S
C996 C997 1.399 . S
C996 C1001 1.399 . S
C997 C996 1.399 . S
C997 C998 1.376 . S
C998 H985 0.930 . S
C998 C997 1.376 . S
C998 C999 1.388 . S
C999 H986 0.930 . S
C999 C998 1.388 . S
C999 C1000 1.390 . S
C1000 C999 1.390 . S
C1000 C1001 1.394 . S
C1000 C1006 1.465 . S
C1001 C996 1.399 . S
C1001 C1000 1.394 . S
C1001 C1002 1.516 . S
C1002 C1001 1.516 . S
C1002 C1003 1.502 . S
C1002 C1004 1.561 . S
C1002 C1005 1.526 . S
C1003 H987 0.959 . S
C1003 H988 0.959 . S
C1003 H989 0.961 . S
C1003 C1002 1.502 . S
C1004 H990 0.960 . S
C1004 H991 0.961 . S
C1004 H992 0.959 . S
C1004 C1002 1.561 . S
C1005 C1002 1.526 . S
C1005 C1006 1.396 . S
C1005 C1010 1.390 . S
C1006 C1000 1.465 . S
C1006 C1005 1.396 . S
C1006 C1007 1.399 . S
C1007 H993 0.929 . S
C1007 C1006 1.399 . S
C1007 C1008 1.385 . S
C1008 H994 0.931 . S
C1008 C1007 1.385 . S
C1008 C1009 1.389 . S
C1009 C1008 1.389 . S
C1009 C1010 1.387 . S
C1010 H995 0.930 . S
C1010 C1005 1.390 . S
C1010 C1009 1.387 . S
H1011 C1023 0.930 . S
H1012 C1025 0.930 . S
H1013 C1026 0.930 . S
H1014 C1030 0.959 . S
H1015 C1030 0.959 . S
H1016 C1030 0.961 . S
H1017 C1031 0.960 . S
H1018 C1031 0.961 . S
H1019 C1031 0.959 . S
H1020 C1034 0.929 . S
H1021 C1035 0.931 . S
H1022 C1037 0.930 . S
C1023 H1011 0.930 . S
C1023 C1024 1.399 . S
C1023 C1028 1.399 . S
C1024 C1023 1.399 . S
C1024 C1025 1.376 . S
C1025 H1012 0.930 . S
C1025 C1024 1.376 . S
C1025 C1026 1.388 . S
C1026 H1013 0.930 . S
C1026 C1025 1.388 . S
C1026 C1027 1.390 . S
C1027 C1026 1.390 . S
C1027 C1028 1.394 . S
C1027 C1033 1.465 . S
C1028 C1023 1.399 . S
C1028 C1027 1.394 . S
C1028 C1029 1.516 . S
C1029 C1028 1.516 . S
C1029 C1030 1.502 . S
C1029 C1031 1.561 . S
C1029 C1032 1.526 . S
C1030 H1014 0.959 . S
C1030 H1015 0.959 . S
C1030 H1016 0.961 . S
C1030 C1029 1.502 . S
C1031 H1017 0.960 . S
C1031 H1018 0.961 . S
C1031 H1019 0.959 . S
C1031 C1029 1.561 . S
C1032 C1029 1.526 . S
C1032 C1033 1.396 . S
C1032 C1037 1.390 . S
C1033 C1027 1.465 . S
C1033 C1032 1.396 . S
C1033 C1034 1.399 . S
C1034 H1020 0.929 . S
C1034 C1033 1.399 . S
C1034 C1035 1.385 . S
C1035 H1021 0.931 . S
C1035 C1034 1.385 . S
C1035 C1036 1.389 . S
C1036 C1035 1.389 . S
C1036 C1037 1.387 . S
C1037 H1022 0.930 . S
C1037 C1032 1.390 . S
C1037 C1036 1.387 . S
C415 C94 1.529 . S
C403 C4 1.550 . S
C442 C163 1.545 . S
C430 C13 1.534 . S
C469 C101 1.538 . S
C457 C25 1.538 . S
C496 C164 1.522 . S
C484 C34 1.543 . S
C523 C217 1.539 . S
C511 C7 1.525 . S
C550 C253 1.519 . S
C538 C14 1.512 . S
C565 C23 1.535 . S
C577 C313 1.516 . S
C604 C376 1.522 . S
C592 C31 1.517 . S
C631 C216 1.527 . S
C619 C16 1.542 . S
C646 C22 1.516 . S
C658 C260 1.523 . S
C685 C306 1.528 . S
C673 C32 1.515 . S
C712 C375 1.508 . S
C700 C5 1.513 . S
C727 C43 1.542 . S
C739 C154 1.532 . S
C766 C111 1.541 . S
C754 C52 1.544 . S
C781 C58 1.547 . S
C793 C147 1.543 . S
C808 C68 1.540 . S
C820 C110 1.524 . S
C847 C322 1.531 . S
C835 C40 1.538 . S
C874 C366 1.504 . S
C862 C50 1.515 . S
C901 C200 1.553 . S
C889 C59 1.538 . S
C916 C70 1.507 . S
C928 C269 1.498 . S
C955 C323 1.537 . S
C943 C49 1.523 . S
C982 C359 1.497 . S
C970 C61 1.513 . S
C1009 C207 1.538 . S
C997 C67 1.549 . S
C1024 C41 1.518 . S
C1036 C270 1.503 . S
