# Generated by pormake.
# Topology ant, (3,6)-cn, num edge types: 1
# Building blocks:
#     Node 0, Type 0, BuildingBlock: VETTIZ_charged_linker_0, # of connection points: 3
#     Node 1, Type 0, BuildingBlock: VETTIZ_charged_linker_0, # of connection points: 3
#     Node 2, Type 0, BuildingBlock: VETTIZ_charged_linker_0, # of connection points: 3
#     Node 3, Type 0, BuildingBlock: VETTIZ_charged_linker_0, # of connection points: 3
#     Node 4, Type 0, BuildingBlock: VETTIZ_charged_linker_0, # of connection points: 3
#     Node 5, Type 0, BuildingBlock: VETTIZ_charged_linker_0, # of connection points: 3
#     Node 6, Type 0, BuildingBlock: VETTIZ_charged_linker_0, # of connection points: 3
#     Node 7, Type 0, BuildingBlock: VETTIZ_charged_linker_0, # of connection points: 3
#     Node 8, Type 1, BuildingBlock: MIDCAF_clean_sbu_0, # of connection points: 6
#     Node 9, Type 1, BuildingBlock: MIDCAF_clean_sbu_0, # of connection points: 6
#     Node 10, Type 1, BuildingBlock: MIDCAF_clean_sbu_0, # of connection points: 6
#     Node 11, Type 1, BuildingBlock: MIDCAF_clean_sbu_0, # of connection points: 6
#     Edge 12, Type (0, 1), BuildingBlock: UVAHIK_clean_linker_0, # of connection points: 2
#     Edge 13, Type (0, 1), BuildingBlock: UVAHIK_clean_linker_0, # of connection points: 2
#     Edge 14, Type (0, 1), BuildingBlock: UVAHIK_clean_linker_0, # of connection points: 2
#     Edge 15, Type (0, 1), BuildingBlock: UVAHIK_clean_linker_0, # of connection points: 2
#     Edge 16, Type (0, 1), BuildingBlock: UVAHIK_clean_linker_0, # of connection points: 2
#     Edge 17, Type (0, 1), BuildingBlock: UVAHIK_clean_linker_0, # of connection points: 2
#     Edge 18, Type (0, 1), BuildingBlock: UVAHIK_clean_linker_0, # of connection points: 2
#     Edge 19, Type (0, 1), BuildingBlock: UVAHIK_clean_linker_0, # of connection points: 2
#     Edge 20, Type (0, 1), BuildingBlock: UVAHIK_clean_linker_0, # of connection points: 2
#     Edge 21, Type (0, 1), BuildingBlock: UVAHIK_clean_linker_0, # of connection points: 2
#     Edge 22, Type (0, 1), BuildingBlock: UVAHIK_clean_linker_0, # of connection points: 2
#     Edge 23, Type (0, 1), BuildingBlock: UVAHIK_clean_linker_0, # of connection points: 2
#     Edge 24, Type (0, 1), BuildingBlock: UVAHIK_clean_linker_0, # of connection points: 2
#     Edge 25, Type (0, 1), BuildingBlock: UVAHIK_clean_linker_0, # of connection points: 2
#     Edge 26, Type (0, 1), BuildingBlock: UVAHIK_clean_linker_0, # of connection points: 2
#     Edge 27, Type (0, 1), BuildingBlock: UVAHIK_clean_linker_0, # of connection points: 2
#     Edge 28, Type (0, 1), BuildingBlock: UVAHIK_clean_linker_0, # of connection points: 2
#     Edge 29, Type (0, 1), BuildingBlock: UVAHIK_clean_linker_0, # of connection points: 2
#     Edge 30, Type (0, 1), BuildingBlock: UVAHIK_clean_linker_0, # of connection points: 2
#     Edge 31, Type (0, 1), BuildingBlock: UVAHIK_clean_linker_0, # of connection points: 2
#     Edge 32, Type (0, 1), BuildingBlock: UVAHIK_clean_linker_0, # of connection points: 2
#     Edge 33, Type (0, 1), BuildingBlock: UVAHIK_clean_linker_0, # of connection points: 2
#     Edge 34, Type (0, 1), BuildingBlock: UVAHIK_clean_linker_0, # of connection points: 2
#     Edge 35, Type (0, 1), BuildingBlock: UVAHIK_clean_linker_0, # of connection points: 2
# Relax obj value: 0.106
# Max RMSD: 0.160
# Mean RMSD: 0.107
data_MOF--net-ant--node1-MIDCAF_clean_sbu_0--node2-VETTIZ_charged_linker_0--edge1-UVAHIK_clean_linker_0
_symmetry_space_group_name_H-M    P1
_symmetry_Int_Tables_number       1
_symmetry_cell_setting            triclinic
loop_
_symmetry_equiv_pos_as_xyz
'x, y, z'
_cell_length_a     42.496048
_cell_length_b     42.149639
_cell_length_c     116.49011
_cell_angle_alpha  90.333326
_cell_angle_beta   94.647098
_cell_angle_gamma 89.063702
loop_
_atom_site_label
_atom_site_type_symbol
_atom_site_fract_x
_atom_site_fract_y
_atom_site_fract_z
_atom_type_partial_charge
C0 C 0.22583 0.14781 0.08806 0.0
C1 C 0.23156 0.11711 0.08371 0.0
C2 C 0.22782 0.11189 0.07173 0.0
C3 C 0.21101 0.16647 0.06863 0.0
C4 C 0.21599 0.17227 0.08032 0.0
C5 C 0.20967 0.20672 0.08318 0.0
H6 H 0.16065 0.35334 0.06396 0.0
C7 C 0.19894 0.19591 0.06295 0.0
C8 C 0.19834 0.2199 0.07136 0.0
H9 H 0.1963 0.32776 0.09854 0.0
H10 H 0.20263 0.27309 0.0925 0.0
H11 H 0.21051 0.31163 0.05063 0.0
H12 H 0.11639 0.29536 0.05999 0.0
H13 H 0.11942 0.27481 0.04699 0.0
H14 H 0.12346 0.31743 0.04738 0.0
H15 H 0.17611 0.3327 0.04454 0.0
H16 H 0.18851 0.29553 0.03858 0.0
C17 C 0.2412 0.22149 0.08795 0.0
C18 C 0.18344 0.2084 0.09162 0.0
C19 C 0.16208 0.1928 0.02035 0.0
C20 C 0.14685 0.21521 0.0128 0.0
C21 C 0.14025 0.24581 0.0171 0.0
C22 C 0.149 0.25401 0.02857 0.0
C23 C 0.16426 0.23136 0.03596 0.0
C24 C 0.17021 0.20126 0.03184 0.0
C25 C 0.18514 0.17979 0.04107 0.0
C26 C 0.18734 0.20207 0.05139 0.0
C27 C 0.17541 0.23228 0.04832 0.0
C28 C 0.21823 0.1693 0.03759 0.0
C29 C 0.16213 0.1522 0.04258 0.0
C30 C 0.16955 0.33603 0.07029 0.0
C31 C 0.17802 0.34511 0.08174 0.0
C32 C 0.18998 0.32162 0.08962 0.0
C33 C 0.1936 0.28984 0.08611 0.0
C34 C 0.18532 0.28134 0.07458 0.0
C35 C 0.17337 0.30436 0.06693 0.0
C36 C 0.16559 0.29137 0.05503 0.0
C37 C 0.17577 0.25695 0.05666 0.0
C38 C 0.1872 0.25095 0.06813 0.0
C39 C 0.186 0.3087 0.04667 0.0
C40 C 0.12944 0.29502 0.05209 0.0
H41 H 0.21481 0.13045 0.05522 0.0
H42 H 0.22893 0.1526 0.09722 0.0
H43 H 0.16392 0.19217 0.08876 0.0
H44 H 0.17251 0.23223 0.09211 0.0
H45 H 0.19277 0.20119 0.10042 0.0
H46 H 0.26135 0.21132 0.08353 0.0
H47 H 0.2459 0.21683 0.09731 0.0
H48 H 0.24201 0.24728 0.08643 0.0
H49 H 0.16787 0.16916 0.01741 0.0
H50 H 0.12792 0.26345 0.01163 0.0
H51 H 0.14341 0.27768 0.03125 0.0
H52 H 0.22866 0.18777 0.03233 0.0
H53 H 0.21698 0.14708 0.03241 0.0
H54 H 0.23561 0.16599 0.0451 0.0
H55 H 0.13716 0.16081 0.04161 0.0
H56 H 0.1649 0.14142 0.05121 0.0
H57 H 0.16484 0.13336 0.03601 0.0
H58 H 0.2318 0.08849 0.06818 0.0
C59 C 0.21762 0.13628 0.06421 0.0
C60 C 0.17368 0.78034 0.33942 0.0
C61 C 0.20285 0.78711 0.33513 0.0
C62 C 0.20342 0.79691 0.32362 0.0
C63 C 0.14666 0.79141 0.32063 0.0
C64 C 0.14587 0.78312 0.33207 0.0
C65 C 0.1126 0.77817 0.33525 0.0
H66 H 0.95593 0.77335 0.31817 0.0
C67 C 0.11403 0.79098 0.31517 0.0
C68 C 0.0938 0.78373 0.32374 0.0
H69 H -0.00024 0.75979 0.35261 0.0
H70 H 0.05139 0.76765 0.34567 0.0
H71 H -0.00166 0.83246 0.31132 0.0
H72 H 0.00232 0.73171 0.30625 0.0
H73 H 0.01847 0.74744 0.29418 0.0
H74 H 0.978 0.75686 0.29674 0.0
H75 H 0.9708 0.81096 0.30185 0.0
H76 H 0.00696 0.82574 0.29698 0.0
C77 C 0.105 0.80361 0.34431 0.0
C78 C 0.11 0.74361 0.33942 0.0
C79 C 0.09403 0.80233 0.27161 0.0
C80 C 0.06654 0.79913 0.26415 0.0
C81 C 0.03733 0.79521 0.26879 0.0
C82 C 0.03548 0.79376 0.2807 0.0
C83 C 0.06321 0.79576 0.28809 0.0
C84 C 0.09185 0.80021 0.28355 0.0
C85 C 0.11887 0.80056 0.29278 0.0
C86 C 0.10168 0.79491 0.30354 0.0
C87 C 0.06914 0.79233 0.3007 0.0
C88 C 0.13408 0.83374 0.29289 0.0
C89 C 0.14172 0.77276 0.29035 0.0
C90 C 0.97655 0.77261 0.32428 0.0
C91 C 0.97369 0.7664 0.33597 0.0
C92 C 0.00133 0.76457 0.34355 0.0
C93 C 0.03124 0.7693 0.33951 0.0
C94 C 0.03358 0.77571 0.32777 0.0
C95 C 0.0064 0.77709 0.3204 0.0
C96 C 0.01299 0.78296 0.30815 0.0
C97 C 0.04857 0.78601 0.30937 0.0
C98 C 0.0607 0.78168 0.32084 0.0
C99 C 0.99633 0.81454 0.30426 0.0
C100 C 0.00229 0.75346 0.30088 0.0
H101 H 0.17764 0.80618 0.30763 0.0
H102 H 0.17257 0.77325 0.3483 0.0
H103 H 0.12259 0.72698 0.33384 0.0
H104 H 0.08544 0.73534 0.33899 0.0
H105 H 0.1207 0.74087 0.34839 0.0
H106 H 0.11616 0.82655 0.34249 0.0
H107 H 0.11401 0.79613 0.35311 0.0
H108 H 0.07953 0.80922 0.34424 0.0
H109 H 0.11681 0.80507 0.26822 0.0
H110 H 0.0159 0.79289 0.26316 0.0
H111 H 0.01252 0.79057 0.28366 0.0
H112 H 0.1165 0.85242 0.28994 0.0
H113 H 0.15363 0.83438 0.28712 0.0
H114 H 0.14297 0.84137 0.30165 0.0
H115 H 0.12829 0.75098 0.2879 0.0
H116 H 0.15772 0.76603 0.29789 0.0
H117 H 0.15621 0.77858 0.28314 0.0
H118 H 0.22564 0.8022 0.32015 0.0
C119 C 0.17556 0.79901 0.31635 0.0
C120 C 0.69847 0.67896 0.57726 0.0
C121 C 0.69792 0.64824 0.5724 0.0
C122 C 0.68422 0.64401 0.56108 0.0
C123 C 0.6719 0.70018 0.5596 0.0
C124 C 0.68567 0.70463 0.57065 0.0
C125 C 0.68526 0.73918 0.57415 0.0
H126 H 0.6482 0.89203 0.55935 0.0
C127 C 0.66089 0.73135 0.55498 0.0
C128 C 0.66895 0.75451 0.5634 0.0
H129 H 0.69185 0.85838 0.59195 0.0
H130 H 0.68959 0.80432 0.58481 0.0
H131 H 0.68576 0.84806 0.5433 0.0
H132 H 0.59564 0.83865 0.55712 0.0
H133 H 0.59103 0.82502 0.54283 0.0
H134 H 0.60195 0.86564 0.5457 0.0
H135 H 0.65144 0.87027 0.53785 0.0
H136 H 0.66046 0.83138 0.5323 0.0
C137 C 0.71983 0.74999 0.57645 0.0
C138 C 0.66539 0.7428 0.58465 0.0
C139 C 0.60251 0.73775 0.51511 0.0
C140 C 0.59115 0.76342 0.50823 0.0
C141 C 0.59483 0.79453 0.51254 0.0
C142 C 0.60948 0.80004 0.52357 0.0
C143 C 0.62089 0.77417 0.53035 0.0
C144 C 0.61753 0.74368 0.52606 0.0
C145 C 0.63262 0.7193 0.53423 0.0
C146 C 0.64481 0.74015 0.54427 0.0
C147 C 0.63771 0.77217 0.54196 0.0
C148 C 0.65989 0.70252 0.52833 0.0
C149 C 0.60648 0.69683 0.53763 0.0
C150 C 0.65697 0.87314 0.56506 0.0
C151 C 0.6701 0.87976 0.57627 0.0
C152 C 0.68188 0.85417 0.58323 0.0
C153 C 0.68039 0.82272 0.5791 0.0
C154 C 0.66696 0.81666 0.56787 0.0
C155 C 0.65541 0.84178 0.56112 0.0
C156 C 0.64121 0.8313 0.54953 0.0
C157 C 0.64628 0.79572 0.55034 0.0
C158 C 0.66156 0.78706 0.56105 0.0
C159 C 0.6604 0.84607 0.54019 0.0
C160 C 0.60565 0.84071 0.54862 0.0
H161 H 0.66092 0.66469 0.54619 0.0
H162 H 0.70901 0.68293 0.58592 0.0
H163 H 0.64431 0.72741 0.58365 0.0
H164 H 0.65592 0.7671 0.58564 0.0
H165 H 0.6794 0.73584 0.59273 0.0
H166 H 0.73478 0.73971 0.56991 0.0
H167 H 0.72998 0.7421 0.58507 0.0
H168 H 0.72235 0.7759 0.57581 0.0
H169 H 0.6006 0.71362 0.51189 0.0
H170 H 0.58627 0.81462 0.50736 0.0
H171 H 0.61152 0.82428 0.52634 0.0
H172 H 0.66911 0.71778 0.52164 0.0
H173 H 0.65194 0.68009 0.52406 0.0
H174 H 0.68071 0.69745 0.53442 0.0
H175 H 0.58477 0.71059 0.53934 0.0
H176 H 0.6131 0.68355 0.54562 0.0
H177 H 0.60006 0.67963 0.5306 0.0
H178 H 0.68314 0.62057 0.55721 0.0
C179 C 0.67117 0.66968 0.5547 0.0
C180 C 0.67589 0.2974 0.82539 0.0
C181 C 0.70344 0.30402 0.81985 0.0
C182 C 0.70031 0.31079 0.80796 0.0
C183 C 0.6443 0.30067 0.80705 0.0
C184 C 0.64656 0.29607 0.81883 0.0
C185 C 0.61463 0.28982 0.82315 0.0
H186 H 0.45799 0.26267 0.80998 0.0
C187 C 0.61129 0.29563 0.80255 0.0
C188 C 0.59348 0.28954 0.81193 0.0
H189 H 0.50595 0.27103 0.84397 0.0
H190 H 0.55551 0.28013 0.83555 0.0
H191 H 0.48999 0.32134 0.79938 0.0
H192 H 0.51074 0.2213 0.79912 0.0
H193 H 0.5193 0.23514 0.78558 0.0
H194 H 0.47947 0.2387 0.78985 0.0
H195 H 0.46615 0.29335 0.79107 0.0
H196 H 0.49959 0.31169 0.78538 0.0
C197 C 0.60621 0.31774 0.83109 0.0
C198 C 0.61595 0.25714 0.82913 0.0
C199 C 0.58429 0.29199 0.75919 0.0
C200 C 0.55667 0.28401 0.75238 0.0
C201 C 0.52906 0.27753 0.7578 0.0
C202 C 0.52902 0.27857 0.76982 0.0
C203 C 0.557 0.28584 0.77654 0.0
C204 C 0.58399 0.29247 0.77121 0.0
C205 C 0.61183 0.29833 0.77974 0.0
C206 C 0.59706 0.29414 0.79109 0.0
C207 C 0.565 0.28695 0.78913 0.0
C208 C 0.62289 0.33282 0.77816 0.0
C209 C 0.6372 0.27239 0.77785 0.0
C210 C 0.47919 0.26605 0.81565 0.0
C211 C 0.47807 0.26584 0.82765 0.0
C212 C 0.50617 0.27116 0.83468 0.0
C213 C 0.53487 0.27647 0.82978 0.0
C214 C 0.53542 0.27685 0.81771 0.0
C215 C 0.50773 0.27175 0.81091 0.0
C216 C 0.51203 0.27373 0.7983 0.0
C217 C 0.54672 0.2815 0.79856 0.0
C218 C 0.56065 0.28299 0.80993 0.0
C219 C 0.49077 0.30126 0.79316 0.0
C220 C 0.50486 0.24069 0.79283 0.0
H221 H 0.67067 0.314 0.79255 0.0
H222 H 0.67716 0.29258 0.83454 0.0
H223 H 0.62743 0.23913 0.82377 0.0
H224 H 0.59235 0.24799 0.83044 0.0
H225 H 0.62979 0.2583 0.83763 0.0
H226 H 0.61514 0.34051 0.82794 0.0
H227 H 0.61685 0.31409 0.84002 0.0
H228 H 0.5805 0.32159 0.83126 0.0
H229 H 0.60599 0.29661 0.75525 0.0
H230 H 0.5075 0.27149 0.75272 0.0
H231 H 0.50726 0.27328 0.7734 0.0
H232 H 0.60308 0.34849 0.77469 0.0
H233 H 0.64167 0.33374 0.77208 0.0
H234 H 0.63146 0.34409 0.78641 0.0
H235 H 0.62603 0.24892 0.77622 0.0
H236 H 0.65423 0.26871 0.78539 0.0
H237 H 0.65044 0.27801 0.77029 0.0
H238 H 0.7206 0.31734 0.80349 0.0
C239 C 0.67111 0.30906 0.80157 0.0
C240 C 0.06788 0.81633 0.91139 0.0
C241 C 0.07796 0.84293 0.91807 0.0
C242 C 0.08605 0.83881 0.92995 0.0
C243 C 0.07424 0.78287 0.92839 0.0
C244 C 0.06625 0.78654 0.91673 0.0
C245 C 0.05639 0.75549 0.91105 0.0
H246 H 0.0255 0.59851 0.91754 0.0
C247 C 0.06949 0.74942 0.93141 0.0
C248 C 0.05877 0.73306 0.92132 0.0
H249 H 0.02199 0.65041 0.8856 0.0
H250 H 0.03742 0.69851 0.89611 0.0
H251 H 0.08989 0.62636 0.92747 0.0
H252 H 0.99365 0.65178 0.93256 0.0
H253 H 0.01492 0.65588 0.94603 0.0
H254 H 0.0129 0.61744 0.9391 0.0
H255 H 0.06557 0.60281 0.93587 0.0
H256 H 0.08869 0.63489 0.94218 0.0
C257 C 0.08044 0.74656 0.90224 0.0
C258 C 0.02207 0.75928 0.9057 0.0
C259 C 0.09297 0.71408 0.97294 0.0
C260 C 0.08874 0.68531 0.97869 0.0
C261 C 0.07571 0.65949 0.97227 0.0
C262 C 0.06745 0.66215 0.96042 0.0
C263 C 0.07197 0.691 0.95484 0.0
C264 C 0.08415 0.71645 0.96113 0.0
C265 C 0.08577 0.74573 0.95389 0.0
C266 C 0.07334 0.73336 0.94213 0.0
C267 C 0.06559 0.70129 0.94274 0.0
C268 C 0.12083 0.75539 0.95405 0.0
C269 C 0.06355 0.77148 0.95859 0.0
C270 C 0.02749 0.62032 0.91279 0.0
C271 C 0.02204 0.62077 0.90075 0.0
C272 C 0.02595 0.6495 0.89489 0.0
C273 C 0.03493 0.67734 0.90101 0.0
C274 C 0.04052 0.67631 0.91309 0.0
C275 C 0.03688 0.64794 0.91871 0.0
C276 C 0.04533 0.65023 0.93143 0.0
C277 C 0.05463 0.68466 0.93262 0.0
C278 C 0.05153 0.70019 0.92191 0.0
C279 C 0.07368 0.62732 0.93451 0.0
C280 C 0.01536 0.64329 0.93769 0.0
H281 H 0.09081 0.80781 0.94417 0.0
H282 H 0.06173 0.81857 0.90223 0.0
H283 H 0.00713 0.77139 0.91186 0.0
H284 H 0.01078 0.73638 0.90361 0.0
H285 H 0.02112 0.77378 0.89774 0.0
H286 H 0.10478 0.7531 0.90556 0.0
H287 H 0.07482 0.75917 0.89396 0.0
H288 H 0.08173 0.7208 0.90056 0.0
H289 H 0.10308 0.73445 0.97749 0.0
H290 H 0.07138 0.63725 0.97643 0.0
H291 H 0.05771 0.64159 0.95608 0.0
H292 H 0.13641 0.73404 0.95351 0.0
H293 H 0.12843 0.76823 0.96213 0.0
H294 H 0.12578 0.77017 0.94664 0.0
H295 H 0.04425 0.7607 0.96309 0.0
H296 H 0.05111 0.78588 0.95167 0.0
H297 H 0.07664 0.78747 0.96483 0.0
H298 H 0.0933 0.8588 0.93536 0.0
C299 C 0.0843 0.80911 0.9351 0.0
C300 C 0.74447 0.78698 0.16671 0.0
C301 C 0.77428 0.78364 0.1729 0.0
C302 C 0.77664 0.78826 0.18492 0.0
C303 C 0.72054 0.79951 0.18448 0.0
C304 C 0.71786 0.7947 0.17269 0.0
C305 C 0.68403 0.79842 0.1677 0.0
H306 H 0.53092 0.83237 0.17729 0.0
C307 C 0.68902 0.80778 0.18815 0.0
C308 C 0.6673 0.80731 0.17839 0.0
H309 H 0.56648 0.80219 0.14518 0.0
H310 H 0.61991 0.80152 0.15427 0.0
H311 H 0.56908 0.78252 0.19211 0.0
H312 H 0.58688 0.88044 0.18532 0.0
H313 H 0.59768 0.87424 0.20002 0.0
H314 H 0.55731 0.86828 0.19446 0.0
H315 H 0.54857 0.81437 0.19875 0.0
H316 H 0.58558 0.7985 0.20511 0.0
C317 C 0.67315 0.76603 0.16264 0.0
C318 C 0.68226 0.82559 0.15881 0.0
C319 C 0.6765 0.82793 0.23059 0.0
C320 C 0.65021 0.83525 0.23677 0.0
C321 C 0.62075 0.84124 0.23063 0.0
C322 C 0.61731 0.83883 0.21859 0.0
C323 C 0.64353 0.83013 0.21258 0.0
C324 C 0.6726 0.82543 0.21857 0.0
C325 C 0.69781 0.81638 0.21078 0.0
C326 C 0.6789 0.81568 0.19914 0.0
C327 C 0.64717 0.82361 0.20026 0.0
C328 C 0.71092 0.783 0.21438 0.0
C329 C 0.72271 0.84298 0.2115 0.0
C330 C 0.55004 0.82536 0.17217 0.0
C331 C 0.54417 0.81694 0.16051 0.0
C332 C 0.57017 0.80888 0.15417 0.0
C333 C 0.60118 0.80819 0.15949 0.0
C334 C 0.6063 0.81543 0.17131 0.0
C335 C 0.58082 0.82404 0.17737 0.0
C336 C 0.58987 0.82967 0.18991 0.0
C337 C 0.62505 0.82297 0.19048 0.0
C338 C 0.63485 0.81479 0.17957 0.0
C339 C 0.57234 0.80528 0.19692 0.0
C340 C 0.58243 0.86489 0.19269 0.0
H341 H 0.75372 0.79956 0.19984 0.0
H342 H 0.74191 0.78337 0.15747 0.0
H343 H 0.69612 0.84622 0.16225 0.0
H344 H 0.658 0.83471 0.15676 0.0
H345 H 0.6921 0.81776 0.15069 0.0
H346 H 0.68304 0.74621 0.16815 0.0
H347 H 0.68118 0.76239 0.15388 0.0
H348 H 0.64732 0.76325 0.16226 0.0
H349 H 0.69956 0.82362 0.23502 0.0
H350 H 0.60001 0.84661 0.23515 0.0
H351 H 0.59414 0.84307 0.21446 0.0
H352 H 0.692 0.76802 0.21744 0.0
H353 H 0.72991 0.78464 0.22148 0.0
H354 H 0.71991 0.76938 0.20717 0.0
H355 H 0.71159 0.86654 0.21308 0.0
H356 H 0.73409 0.84599 0.20339 0.0
H357 H 0.74118 0.83861 0.21864 0.0
H358 H 0.7993 0.78632 0.18986 0.0
C359 C 0.75009 0.79622 0.1907 0.0
C360 C 0.62449 0.28631 0.40499 0.0
C361 C 0.62328 0.3152 0.41108 0.0
C362 C 0.61465 0.31503 0.42251 0.0
C363 C 0.60911 0.258 0.4217 0.0
C364 C 0.61736 0.2581 0.41046 0.0
C365 C 0.61779 0.22524 0.40533 0.0
H366 H 0.59684 0.06747 0.4116 0.0
C367 C 0.60357 0.22487 0.42491 0.0
C368 C 0.6086 0.2055 0.41537 0.0
H369 H 0.62534 0.11621 0.3817 0.0
H370 H 0.62269 0.16652 0.39176 0.0
H371 H 0.64165 0.10252 0.42901 0.0
H372 H 0.54337 0.1208 0.41898 0.0
H373 H 0.54923 0.12181 0.43415 0.0
H374 H 0.55808 0.0859 0.42655 0.0
H375 H 0.61119 0.08064 0.43505 0.0
H376 H 0.62528 0.1176 0.44131 0.0
C377 C 0.65184 0.21745 0.40222 0.0
C378 C 0.5925 0.22421 0.395 0.0
C379 C 0.5764 0.20041 0.46547 0.0
C380 C 0.57329 0.17192 0.47142 0.0
C381 C 0.57503 0.14287 0.46546 0.0
C382 C 0.58001 0.14227 0.45369 0.0
C383 C 0.58388 0.171 0.44791 0.0
C384 C 0.58204 0.1994 0.45382 0.0
C385 C 0.58886 0.22744 0.44657 0.0
C386 C 0.59513 0.21124 0.43531 0.0
C387 C 0.59183 0.17828 0.43609 0.0
C388 C 0.61867 0.24395 0.45223 0.0
C389 C 0.5588 0.24885 0.44532 0.0
C390 C 0.602 0.08909 0.40717 0.0
C391 C 0.61087 0.08811 0.39582 0.0
C392 C 0.61838 0.11654 0.39045 0.0
C393 C 0.61677 0.14564 0.3963 0.0
C394 C 0.60794 0.14622 0.40768 0.0
C395 C 0.60089 0.11819 0.41294 0.0
C396 C 0.59357 0.12298 0.42524 0.0
C397 C 0.59656 0.15865 0.42643 0.0
C398 C 0.60491 0.17217 0.41612 0.0
C399 C 0.61898 0.10492 0.43312 0.0
C400 C 0.55934 0.1122 0.4264 0.0
H401 H 0.6011 0.28824 0.43653 0.0
H402 H 0.63119 0.28561 0.39622 0.0
H403 H 0.57099 0.23798 0.39694 0.0
H404 H 0.58415 0.20003 0.39294 0.0
H405 H 0.60151 0.23464 0.38719 0.0
H406 H 0.66957 0.22846 0.40851 0.0
H407 H 0.65591 0.22655 0.39354 0.0
H408 H 0.65759 0.19181 0.40257 0.0
H409 H 0.57595 0.22303 0.46993 0.0
H410 H 0.57281 0.12068 0.46995 0.0
H411 H 0.58122 0.11945 0.44961 0.0
H412 H 0.63496 0.22656 0.4569 0.0
H413 H 0.61227 0.26232 0.45854 0.0
H414 H 0.63313 0.25482 0.44589 0.0
H415 H 0.53715 0.23424 0.44446 0.0
H416 H 0.55736 0.26365 0.4375 0.0
H417 H 0.55728 0.26444 0.45298 0.0
H418 H 0.61293 0.33699 0.42731 0.0
C419 C 0.60755 0.28667 0.42783 0.0
C420 C 0.25766 0.25363 0.65782 0.0
C421 C 0.28732 0.24649 0.66367 0.0
C422 C 0.28944 0.24265 0.67569 0.0
C423 C 0.23378 0.25515 0.67608 0.0
C424 C 0.23106 0.25739 0.66421 0.0
C425 C 0.19725 0.2639 0.65961 0.0
H426 H 0.04507 0.29391 0.67164 0.0
C427 C 0.20269 0.26248 0.68031 0.0
C428 C 0.18087 0.26739 0.67074 0.0
H429 H 0.07952 0.27997 0.63803 0.0
H430 H 0.13292 0.27347 0.64684 0.0
H431 H 0.08652 0.23874 0.68462 0.0
H432 H 0.09933 0.33911 0.68112 0.0
H433 H 0.11679 0.32915 0.69482 0.0
H434 H 0.07494 0.32356 0.69154 0.0
H435 H 0.06217 0.26851 0.69078 0.0
H436 H 0.09827 0.25455 0.69831 0.0
C437 C 0.18555 0.23468 0.65249 0.0
C438 C 0.19597 0.29512 0.65269 0.0
C439 C 0.19418 0.27176 0.72341 0.0
C440 C 0.16964 0.28146 0.73005 0.0
C441 C 0.14022 0.29052 0.7245 0.0
C442 C 0.13512 0.28928 0.71246 0.0
C443 C 0.15983 0.27917 0.7059 0.0
C444 C 0.18888 0.27117 0.7114 0.0
C445 C 0.21292 0.26286 0.70307 0.0
C446 C 0.19339 0.26669 0.69165 0.0
C447 C 0.16227 0.27579 0.69335 0.0
C448 C 0.22382 0.22792 0.70521 0.0
C449 C 0.23965 0.28755 0.70466 0.0
C450 C 0.06404 0.28987 0.66611 0.0
C451 C 0.05784 0.28749 0.6541 0.0
C452 C 0.08345 0.28156 0.64732 0.0
C453 C 0.11446 0.27778 0.65244 0.0
C454 C 0.12002 0.27971 0.6645 0.0
C455 C 0.09493 0.28592 0.67108 0.0
C456 C 0.10479 0.2872 0.68373 0.0
C457 C 0.13976 0.27958 0.68376 0.0
C458 C 0.14883 0.27536 0.67249 0.0
C459 C 0.08699 0.26107 0.68977 0.0
C460 C 0.09853 0.32137 0.68813 0.0
H461 H 0.26645 0.24425 0.69106 0.0
H462 H 0.25532 0.25623 0.64855 0.0
H463 H 0.20995 0.31371 0.6575 0.0
H464 H 0.1718 0.30499 0.65116 0.0
H465 H 0.20593 0.29157 0.64424 0.0
H466 H 0.19565 0.21233 0.65639 0.0
H467 H 0.19269 0.23585 0.64354 0.0
H468 H 0.15973 0.23187 0.65224 0.0
H469 H 0.21715 0.26507 0.72748 0.0
H470 H 0.12098 0.29794 0.72951 0.0
H471 H 0.11209 0.29602 0.70874 0.0
H472 H 0.20458 0.21358 0.70839 0.0
H473 H 0.2443 0.22641 0.71175 0.0
H474 H 0.2299 0.21561 0.69725 0.0
H475 H 0.22999 0.31142 0.70673 0.0
H476 H 0.25193 0.29126 0.6968 0.0
H477 H 0.25729 0.28073 0.71181 0.0
H478 H 0.31197 0.23732 0.68037 0.0
C479 C 0.26296 0.24697 0.68191 0.0
Zn480 Zn 0.17985 0.70854 0.13837 0.0
Zn481 Zn 0.11561 0.78079 0.10906 0.0
Zn482 Zn 0.14993 0.74487 0.12345 0.0
C483 C 0.12978 0.72524 0.09723 0.0
C484 C 0.16986 0.81483 0.11611 0.0
O485 O 0.12517 0.74629 0.13945 0.0
O486 O 0.15846 0.72166 0.15215 0.0
C487 C 0.1585 0.66861 0.12079 0.0
O488 O 0.14208 0.71729 0.1073 0.0
O489 O 0.11756 0.75246 0.0955 0.0
O490 O 0.14285 0.81844 0.1109 0.0
O491 O 0.17821 0.78798 0.12076 0.0
O492 O 0.16769 0.66747 0.13135 0.0
O493 O 0.15336 0.69574 0.11583 0.0
O494 O 0.19752 0.76556 0.1268 0.0
O495 O 0.22239 0.72532 0.13587 0.0
C496 C 0.22323 0.75215 0.13113 0.0
O497 O 0.10346 0.75682 0.13068 0.0
O498 O 0.07593 0.78238 0.11662 0.0
C499 C 0.13332 0.73754 0.14988 0.0
C500 C 0.07746 0.77029 0.12653 0.0
Zn501 Zn 0.56372 0.67194 0.35268 0.0
Zn502 Zn 0.62506 0.69693 0.38574 0.0
Zn503 Zn 0.59042 0.69749 0.36977 0.0
C504 C 0.62109 0.75924 0.37749 0.0
C505 C 0.66159 0.69766 0.36782 0.0
O506 O 0.60577 0.64954 0.37174 0.0
O507 O 0.58322 0.62839 0.35597 0.0
C508 C 0.51755 0.70145 0.36638 0.0
O509 O 0.61588 0.74196 0.36837 0.0
O510 O 0.62272 0.74571 0.38722 0.0
O511 O 0.66097 0.68011 0.37661 0.0
O512 O 0.63642 0.71364 0.36442 0.0
O513 O 0.52047 0.68274 0.35797 0.0
O514 O 0.54216 0.71147 0.3723 0.0
O515 O 0.60725 0.72761 0.35645 0.0
O516 O 0.58253 0.70232 0.3417 0.0
C517 C 0.59979 0.72483 0.34555 0.0
O518 O 0.56373 0.70815 0.3845 0.0
O519 O 0.59344 0.67266 0.3941 0.0
C520 C 0.60062 0.62545 0.36527 0.0
C521 C 0.56879 0.69014 0.39333 0.0
Zn522 Zn 0.62134 0.31532 0.60533 0.0
Zn523 Zn 0.70847 0.20314 0.6324 0.0
Zn524 Zn 0.65816 0.2734 0.6136 0.0
C525 C 0.7233 0.27204 0.62208 0.0
C526 C 0.67777 0.21183 0.60772 0.0
O527 O 0.61926 0.27352 0.62489 0.0
O528 O 0.58684 0.30712 0.61527 0.0
C529 C 0.67599 0.34729 0.61161 0.0
O530 O 0.70559 0.29276 0.6167 0.0
O531 O 0.70972 0.24674 0.62459 0.0
O532 O 0.68969 0.22097 0.61742 0.0
O533 O 0.66147 0.2328 0.60196 0.0
O534 O 0.64712 0.35305 0.60894 0.0
O535 O 0.6859 0.31838 0.61304 0.0
O536 O 0.64171 0.25546 0.59634 0.0
O537 O 0.61753 0.29867 0.58915 0.0
C538 C 0.62698 0.2704 0.58787 0.0
O539 O 0.64643 0.25338 0.63096 0.0
O540 O 0.67112 0.21382 0.64179 0.0
C541 C 0.59234 0.28795 0.6235 0.0
C542 C 0.64935 0.23514 0.64002 0.0
Zn543 Zn 0.06694 0.19788 0.85314 0.0
Zn544 Zn 0.12368 0.27222 0.88357 0.0
Zn545 Zn 0.09295 0.23492 0.86864 0.0
C546 C 0.1093 0.21687 0.89516 0.0
C547 C 0.06918 0.30549 0.8751 0.0
O548 O 0.12121 0.23481 0.85355 0.0
O549 O 0.09149 0.20946 0.8401 0.0
C550 C 0.08512 0.15885 0.87146 0.0
O551 O 0.09853 0.20835 0.88498 0.0
O552 O 0.1207 0.24408 0.89696 0.0
O553 O 0.09479 0.30934 0.88118 0.0
O554 O 0.06301 0.27855 0.87018 0.0
O555 O 0.07803 0.15717 0.86075 0.0
O556 O 0.08894 0.18625 0.87636 0.0
O557 O 0.04522 0.25576 0.86395 0.0
O558 O 0.02341 0.21546 0.85422 0.0
C559 C 0.02072 0.24237 0.85891 0.0
O560 O 0.14083 0.24632 0.86272 0.0
O561 O 0.1647 0.27416 0.87691 0.0
C562 C 0.11581 0.22525 0.84306 0.0
C563 C 0.16554 0.26068 0.86724 0.0
C564 C 0.14877 0.39769 0.08094 0.0
C565 C 0.17476 0.37901 0.08531 0.0
C566 C 0.14626 0.4298 0.08391 0.0
C567 C 0.17401 0.4875 0.10624 0.0
H568 H 0.14377 0.55053 0.08364 0.0
C569 C 0.14172 0.61258 0.12053 0.0
C570 C 0.15371 0.63809 0.11462 0.0
C571 C 0.14221 0.58195 0.11598 0.0
C572 C 0.15239 0.53323 0.09003 0.0
H573 H 0.21863 0.37984 0.09619 0.0
H574 H 0.21408 0.43572 0.10147 0.0
H575 H 0.1501 0.49503 0.07774 0.0
H576 H 0.17464 0.65171 0.09912 0.0
H577 H 0.17534 0.59776 0.09098 0.0
H578 H 0.17664 0.52544 0.11851 0.0
C579 C 0.19548 0.4254 0.0958 0.0
C580 C 0.15576 0.50139 0.08668 0.0
C581 C 0.19804 0.39329 0.09281 0.0
C582 C 0.16467 0.6326 0.10372 0.0
C583 C 0.16527 0.60167 0.09913 0.0
C584 C 0.17051 0.51915 0.10958 0.0
C585 C 0.16958 0.44409 0.09138 0.0
C586 C 0.16652 0.47812 0.09477 0.0
C587 C 0.15501 0.57585 0.10543 0.0
C588 C 0.1594 0.5424 0.10156 0.0
H589 H 0.1301 0.38741 0.07529 0.0
H590 H 0.12572 0.4433 0.08051 0.0
H591 H 0.18208 0.47025 0.11273 0.0
H592 H 0.13291 0.61617 0.12892 0.0
H593 H 0.13336 0.5628 0.12091 0.0
C594 C 0.91616 0.78065 0.33597 0.0
C595 C 0.94188 0.76122 0.34001 0.0
C596 C 0.88561 0.77416 0.33881 0.0
C597 C 0.83727 0.70836 0.34774 0.0
H598 H 0.77848 0.77539 0.35506 0.0
C599 C 0.71827 0.68329 0.36609 0.0
C600 C 0.69203 0.70287 0.36281 0.0
C601 C 0.74801 0.68997 0.36251 0.0
C602 C 0.79443 0.75642 0.35285 0.0
H603 H 0.95577 0.72021 0.35046 0.0
H604 H 0.90236 0.70905 0.35557 0.0
H605 H 0.83226 0.78861 0.35117 0.0
H606 H 0.6763 0.74443 0.35293 0.0
H607 H 0.72827 0.75581 0.34647 0.0
H608 H 0.79951 0.67616 0.34942 0.0
C609 C 0.90584 0.72911 0.35008 0.0
C610 C 0.82532 0.764 0.35067 0.0
C611 C 0.93648 0.73571 0.34727 0.0
C612 C 0.69599 0.72875 0.35554 0.0
C613 C 0.72585 0.73548 0.35195 0.0
C614 C 0.80638 0.70079 0.34989 0.0
C615 C 0.87999 0.74802 0.34575 0.0
C616 C 0.84717 0.74003 0.34816 0.0
C617 C 0.75233 0.71643 0.35556 0.0
C618 C 0.78461 0.7247 0.35255 0.0
H619 H 0.9196 0.8007 0.33046 0.0
H620 H 0.86626 0.7891 0.33528 0.0
H621 H 0.8533 0.68938 0.3456 0.0
H622 H 0.71605 0.66315 0.37169 0.0
H623 H 0.76785 0.67499 0.36557 0.0
C624 C 0.70065 0.61352 0.58992 0.0
C625 C 0.7106 0.62013 0.57899 0.0
C626 C 0.70849 0.5844 0.59525 0.0
C627 C 0.72908 0.50215 0.58713 0.0
H628 H 0.73538 0.48909 0.62015 0.0
C629 C 0.72168 0.37659 0.60491 0.0
C630 C 0.69734 0.37454 0.61231 0.0
C631 C 0.7345 0.40617 0.60266 0.0
C632 C 0.7339 0.49235 0.6109 0.0
H633 H 0.73863 0.6027 0.5655 0.0
H634 H 0.75309 0.55241 0.5749 0.0
H635 H 0.73636 0.54295 0.61254 0.0
H636 H 0.66926 0.40081 0.62391 0.0
H637 H 0.69181 0.45201 0.62021 0.0
H638 H 0.72548 0.4518 0.58547 0.0
C639 C 0.73838 0.5691 0.57923 0.0
C640 C 0.73427 0.52324 0.60653 0.0
C641 C 0.73025 0.598 0.57386 0.0
C642 C 0.68824 0.4018 0.61825 0.0
C643 C 0.70122 0.43118 0.61612 0.0
C644 C 0.72886 0.47135 0.59149 0.0
C645 C 0.72671 0.5614 0.58981 0.0
C646 C 0.73093 0.52862 0.59458 0.0
C647 C 0.7233 0.43402 0.60784 0.0
C648 C 0.7303 0.46607 0.60343 0.0
H649 H 0.68532 0.63007 0.59403 0.0
H650 H 0.69878 0.5793 0.60334 0.0
H651 H 0.72597 0.50519 0.57788 0.0
H652 H 0.72872 0.35595 0.6001 0.0
H653 H 0.75176 0.40753 0.59633 0.0
C654 C 0.76163 0.29177 0.82044 0.0
C655 C 0.73562 0.30312 0.82611 0.0
C656 C 0.79211 0.29205 0.82587 0.0
C657 C 0.83696 0.28849 0.8537 0.0
H658 H 0.90571 0.31563 0.83626 0.0
C659 C 0.98349 0.28948 0.85643 0.0
C660 C 0.98885 0.25709 0.85873 0.0
C661 C 0.95247 0.30157 0.85461 0.0
C662 C 0.88682 0.30851 0.84135 0.0
H663 H 0.72165 0.32282 0.84222 0.0
H664 H 0.77518 0.32218 0.85189 0.0
H665 H 0.85111 0.32454 0.82856 0.0
H666 H 0.96635 0.21241 0.86163 0.0
H667 H 0.91269 0.23342 0.8587 0.0
H668 H 0.87276 0.27107 0.86624 0.0
C669 C 0.77165 0.31362 0.8431 0.0
C670 C 0.85554 0.31333 0.83689 0.0
C671 C 0.74098 0.31379 0.83758 0.0
C672 C 0.96287 0.23748 0.85983 0.0
C673 C 0.9321 0.24958 0.85824 0.0
C674 C 0.86828 0.28333 0.85811 0.0
C675 C 0.79757 0.30314 0.83722 0.0
C676 C 0.8303 0.30254 0.84285 0.0
C677 C 0.92644 0.28155 0.85531 0.0
C678 C 0.89357 0.29248 0.85182 0.0
H679 H 0.75851 0.28234 0.81177 0.0
H680 H 0.81144 0.28301 0.82122 0.0
H681 H 0.81803 0.27988 0.85848 0.0
H682 H 0.00311 0.305 0.85542 0.0
H683 H 0.94881 0.32634 0.85238 0.0
C684 C 0.03099 0.58038 0.88532 0.0
C685 C 0.01401 0.59065 0.89455 0.0
C686 C 0.02734 0.54953 0.88089 0.0
C687 C 0.00509 0.4705 0.89061 0.0
H688 H 0.0156 0.44598 0.85902 0.0
C689 C 0.02241 0.33918 0.87917 0.0
C690 C 0.04878 0.33367 0.8729 0.0
C691 C 0.00904 0.36978 0.87967 0.0
C692 C 0.01257 0.45242 0.86788 0.0
H693 H 0.97802 0.57762 0.90572 0.0
H694 H 0.97123 0.52417 0.8979 0.0
H695 H 0.00976 0.50209 0.86395 0.0
H696 H 0.08083 0.35478 0.86176 0.0
H697 H 0.05773 0.40785 0.86255 0.0
H698 H 0.00917 0.42117 0.89467 0.0
C699 C 0.98801 0.5395 0.89427 0.0
C700 C 0.00929 0.48461 0.87071 0.0
C701 C 0.99179 0.5702 0.89872 0.0
C702 C 0.06014 0.35846 0.8665 0.0
C703 C 0.04683 0.3889 0.86696 0.0
C704 C 0.0084 0.4384 0.88779 0.0
C705 C 0.0065 0.52836 0.88556 0.0
C706 C 0.00622 0.49412 0.88217 0.0
C707 C 0.022 0.39532 0.87396 0.0
C708 C 0.01296 0.42892 0.87644 0.0
H709 H 0.04845 0.5955 0.88198 0.0
H710 H 0.04216 0.54175 0.87424 0.0
H711 H 0.00327 0.47684 0.89956 0.0
H712 H 0.01358 0.32043 0.8843 0.0
H713 H 0.98963 0.37377 0.885 0.0
C714 C 0.81072 0.79394 0.15745 0.0
C715 C 0.80344 0.77646 0.16707 0.0
C716 C 0.84028 0.79033 0.15304 0.0
C717 C 0.92231 0.7634 0.1619 0.0
H718 H 0.93299 0.77213 0.12936 0.0
C719 C 0.04309 0.74862 0.14129 0.0
C720 C 0.04858 0.77124 0.13288 0.0
C721 C 0.01375 0.74774 0.14602 0.0
C722 C 0.93041 0.76982 0.13849 0.0
H723 H 0.82057 0.74003 0.17918 0.0
H724 H 0.87176 0.73318 0.17135 0.0
H725 H 0.88001 0.77184 0.13591 0.0
H726 H 0.0281 0.81157 0.12328 0.0
H727 H 0.97741 0.80994 0.13145 0.0
H728 H 0.97293 0.7613 0.16441 0.0
C729 C 0.85513 0.7504 0.1674 0.0
C730 C 0.90001 0.76972 0.14225 0.0
C731 C 0.8257 0.75416 0.17184 0.0
C732 C 0.02461 0.7936 0.12965 0.0
C733 C 0.99543 0.79259 0.13429 0.0
C734 C 0.95278 0.76328 0.15812 0.0
C735 C 0.86312 0.76895 0.15811 0.0
C736 C 0.89551 0.76698 0.15402 0.0
C737 C 0.98934 0.76924 0.14231 0.0
C738 C 0.95716 0.76704 0.14639 0.0
H739 H 0.79416 0.81152 0.15367 0.0
H740 H 0.84564 0.80528 0.14595 0.0
H741 H 0.91984 0.76164 0.17105 0.0
H742 H 0.06085 0.73076 0.14382 0.0
H743 H 0.00971 0.72945 0.1522 0.0
C744 C 0.61802 0.35225 0.39423 0.0
C745 C 0.63023 0.34562 0.40555 0.0
C746 C 0.62217 0.38204 0.38942 0.0
C747 C 0.63408 0.46461 0.39834 0.0
H748 H 0.64676 0.47774 0.36613 0.0
C749 C 0.63173 0.59012 0.37937 0.0
C750 C 0.61298 0.5938 0.36895 0.0
C751 C 0.64048 0.55986 0.38344 0.0
C752 C 0.64313 0.47444 0.37514 0.0
H753 H 0.65804 0.36428 0.42043 0.0
H754 H 0.66521 0.41629 0.41204 0.0
H755 H 0.64982 0.42405 0.37399 0.0
H756 H 0.59004 0.56868 0.35434 0.0
H757 H 0.60479 0.51605 0.36152 0.0
H758 H 0.6263 0.51467 0.39945 0.0
C759 C 0.65195 0.39867 0.40697 0.0
C760 C 0.64489 0.44372 0.37963 0.0
C761 C 0.6478 0.36892 0.41177 0.0
C762 C 0.60443 0.56668 0.36242 0.0
C763 C 0.61309 0.53646 0.3665 0.0
C764 C 0.63223 0.49526 0.39385 0.0
C765 C 0.63863 0.40577 0.39583 0.0
C766 C 0.63987 0.43845 0.39124 0.0
C767 C 0.63061 0.53266 0.37718 0.0
C768 C 0.6362 0.5005 0.38215 0.0
H769 H 0.60414 0.33489 0.38925 0.0
H770 H 0.6113 0.3869 0.38086 0.0
H771 H 0.62961 0.46132 0.40727 0.0
H772 H 0.63895 0.61055 0.38456 0.0
H773 H 0.65444 0.55774 0.39161 0.0
C774 C 0.00308 0.31162 0.65338 0.0
C775 C 0.02461 0.29008 0.64888 0.0
C776 C 0.97112 0.31178 0.64941 0.0
C777 C 0.91079 0.25953 0.63483 0.0
H778 H 0.85905 0.33622 0.63421 0.0
C779 C 0.7751 0.25395 0.63181 0.0
C780 C 0.75751 0.27666 0.62511 0.0
C781 C 0.8077 0.25697 0.63416 0.0
C782 C 0.87314 0.31458 0.63421 0.0
H783 H 0.0293 0.25267 0.63625 0.0
H784 H 0.97379 0.25365 0.62904 0.0
H785 H 0.91602 0.33963 0.63839 0.0
H786 H 0.76038 0.32061 0.61573 0.0
H787 H 0.81746 0.3257 0.61966 0.0
H788 H 0.86811 0.23453 0.63041 0.0
C789 C 0.98151 0.26995 0.63587 0.0
C790 C 0.90586 0.31649 0.63675 0.0
C791 C 0.01351 0.26968 0.6399 0.0
C792 C 0.77324 0.30278 0.62096 0.0
C793 C 0.80598 0.30573 0.62325 0.0
C794 C 0.87815 0.25764 0.63224 0.0
C795 C 0.95973 0.29057 0.64073 0.0
C796 C 0.92513 0.28894 0.63723 0.0
C797 C 0.82373 0.28267 0.6298 0.0
C798 C 0.85876 0.28507 0.63204 0.0
H799 H 0.01081 0.32808 0.66017 0.0
H800 H 0.95519 0.32785 0.65345 0.0
H801 H 0.92465 0.23772 0.63524 0.0
H802 H 0.76371 0.23361 0.6352 0.0
H803 H 0.82032 0.23911 0.63945 0.0
C804 C 0.32532 0.27079 0.65109 0.0
C805 C 0.31677 0.24499 0.65765 0.0
C806 C 0.35568 0.27224 0.64729 0.0
C807 C 0.43698 0.23903 0.65407 0.0
H808 H 0.45337 0.28422 0.62636 0.0
C809 C 0.55926 0.25023 0.63386 0.0
C810 C 0.56605 0.28133 0.63067 0.0
C811 C 0.53015 0.24353 0.63816 0.0
C812 C 0.44912 0.27159 0.63415 0.0
H813 H 0.33242 0.19956 0.66478 0.0
H814 H 0.38491 0.20131 0.65774 0.0
H815 H 0.3991 0.27517 0.63059 0.0
H816 H 0.54869 0.32996 0.63008 0.0
H817 H 0.49807 0.31824 0.6374 0.0
H818 H 0.48743 0.23508 0.65739 0.0
C819 C 0.36872 0.22104 0.65585 0.0
C820 C 0.41798 0.26651 0.63662 0.0
C821 C 0.33852 0.21982 0.65977 0.0
C822 C 0.54409 0.30577 0.63246 0.0
C823 C 0.51506 0.29907 0.63659 0.0
C824 C 0.46822 0.24371 0.65149 0.0
C825 C 0.37809 0.24769 0.64983 0.0
C826 C 0.41138 0.25069 0.64672 0.0
C827 C 0.50733 0.26777 0.63909 0.0
C828 C 0.47453 0.26059 0.64161 0.0
H829 H 0.30917 0.29072 0.64948 0.0
H830 H 0.36196 0.29339 0.64282 0.0
H831 H 0.43299 0.22714 0.66202 0.0
H832 H 0.5754 0.23083 0.6323 0.0
H833 H 0.52469 0.21918 0.64003 0.0
C834 C 0.48707 0.80452 0.16199 0.0
C835 C 0.5109 0.81538 0.15533 0.0
C836 C 0.45561 0.80416 0.15754 0.0
C837 C 0.40465 0.79888 0.13097 0.0
H838 H 0.33983 0.82555 0.15076 0.0
C839 C 0.25916 0.79904 0.13315 0.0
C840 C 0.25431 0.76689 0.13047 0.0
C841 C 0.28983 0.81122 0.13404 0.0
C842 C 0.35755 0.81855 0.14501 0.0
H843 H 0.52003 0.8336 0.13857 0.0
H844 H 0.46476 0.83206 0.13065 0.0
H845 H 0.39525 0.83508 0.15673 0.0
H846 H 0.27716 0.72263 0.12612 0.0
H847 H 0.3303 0.74372 0.12757 0.0
H848 H 0.36695 0.78123 0.11945 0.0
C849 C 0.47073 0.82426 0.13941 0.0
C850 C 0.38933 0.8237 0.1485 0.0
C851 C 0.50238 0.82497 0.14393 0.0
C852 C 0.28029 0.74754 0.12819 0.0
C853 C 0.31072 0.75971 0.12893 0.0
C854 C 0.37284 0.79347 0.12753 0.0
C855 C 0.44697 0.81422 0.14625 0.0
C856 C 0.41328 0.81308 0.14168 0.0
C857 C 0.31601 0.79147 0.13214 0.0
C858 C 0.34898 0.80243 0.13467 0.0
H859 H 0.4927 0.79597 0.17067 0.0
H860 H 0.43802 0.79547 0.16293 0.0
H861 H 0.42256 0.79041 0.12554 0.0
H862 H 0.23954 0.81428 0.13511 0.0
H863 H 0.29316 0.83582 0.13651 0.0
C864 C 0.42623 0.23819 0.82796 0.0
C865 C 0.44725 0.26126 0.8326 0.0
C866 C 0.39586 0.23603 0.83168 0.0
C867 C 0.34613 0.26156 0.85506 0.0
H868 H 0.27676 0.24674 0.83198 0.0
C869 C 0.21783 0.28458 0.8648 0.0
C870 C 0.19558 0.26116 0.86157 0.0
C871 C 0.24785 0.28353 0.86077 0.0
C872 C 0.2959 0.25057 0.83854 0.0
H873 H 0.45303 0.29971 0.84495 0.0
H874 H 0.39998 0.29621 0.8514 0.0
H875 H 0.33095 0.24628 0.82638 0.0
H876 H 0.18739 0.21854 0.85136 0.0
H877 H 0.23997 0.21707 0.84406 0.0
H878 H 0.31106 0.26641 0.86715 0.0
C879 C 0.40707 0.27942 0.845 0.0
C880 C 0.32702 0.25024 0.83535 0.0
C881 C 0.43754 0.28145 0.84131 0.0
C882 C 0.20375 0.23725 0.85384 0.0
C883 C 0.23393 0.2363 0.84972 0.0
C884 C 0.31509 0.26207 0.85821 0.0
C885 C 0.38563 0.25697 0.84011 0.0
C886 C 0.35256 0.256 0.84356 0.0
C887 C 0.25656 0.25904 0.85339 0.0
C888 C 0.28956 0.25692 0.84998 0.0
H889 H 0.43317 0.22198 0.82134 0.0
H890 H 0.38034 0.21799 0.8279 0.0
H891 H 0.36513 0.26541 0.86166 0.0
H892 H 0.21227 0.30351 0.87067 0.0
H893 H 0.26445 0.30179 0.86357 0.0
C894 C 0.24103 0.75342 0.3474 0.0
C895 C 0.23295 0.7829 0.34238 0.0
C896 C 0.2711 0.74812 0.35297 0.0
C897 C 0.35244 0.78083 0.35416 0.0
H898 H 0.36897 0.71545 0.37724 0.0
C899 C 0.47941 0.74451 0.37128 0.0
C900 C 0.48549 0.71252 0.36868 0.0
C901 C 0.44822 0.75614 0.37093 0.0
C902 C 0.36464 0.734 0.37088 0.0
H903 H 0.24904 0.83055 0.33979 0.0
H904 H 0.30085 0.82206 0.35001 0.0
H905 H 0.31456 0.73124 0.37132 0.0
H906 H 0.46404 0.66715 0.36459 0.0
H907 H 0.40978 0.68712 0.36443 0.0
H908 H 0.40267 0.78348 0.3538 0.0
C909 C 0.28468 0.80245 0.34929 0.0
C910 C 0.33344 0.74287 0.36737 0.0
C911 C 0.25486 0.8075 0.34351 0.0
C912 C 0.45998 0.69192 0.36662 0.0
C913 C 0.42893 0.70333 0.36656 0.0
C914 C 0.38358 0.77239 0.35784 0.0
C915 C 0.29363 0.77241 0.35384 0.0
C916 C 0.32681 0.76577 0.3587 0.0
C917 C 0.42272 0.73574 0.3683 0.0
C918 C 0.38999 0.74832 0.36601 0.0
H919 H 0.22463 0.73398 0.34654 0.0
H920 H 0.27698 0.7245 0.35613 0.0
H921 H 0.34864 0.79811 0.34734 0.0
H922 H 0.49869 0.7609 0.37282 0.0
H923 H 0.44401 0.78123 0.37231 0.0
C924 C 0.6467 0.93488 0.57717 0.0
C925 C 0.67133 0.91327 0.58052 0.0
C926 C 0.64871 0.96686 0.5803 0.0
C927 C 0.68595 0.02264 0.60118 0.0
H928 H 0.66761 0.08455 0.57696 0.0
C929 C 0.70143 0.1571 0.60975 0.0
C930 C 0.67935 0.17809 0.60411 0.0
C931 C 0.70203 0.12488 0.60678 0.0
C932 C 0.67237 0.0677 0.58389 0.0
H933 H 0.71702 0.90859 0.59017 0.0
H934 H 0.72 0.96447 0.59593 0.0
H935 H 0.6649 0.02815 0.57241 0.0
H936 H 0.6409 0.18171 0.59085 0.0
H937 H 0.64103 0.12561 0.58586 0.0
H938 H 0.69246 0.06199 0.61276 0.0
C939 C 0.69928 0.95644 0.59077 0.0
C940 C 0.67095 0.03532 0.58125 0.0
C941 C 0.69748 0.92439 0.58751 0.0
C942 C 0.65821 0.16623 0.59531 0.0
C943 C 0.65849 0.13396 0.59242 0.0
C944 C 0.68696 0.05507 0.60387 0.0
C945 C 0.67515 0.97809 0.58702 0.0
C946 C 0.67758 0.01244 0.58987 0.0
C947 C 0.68031 0.11273 0.59815 0.0
C948 C 0.68006 0.0781 0.59526 0.0
H949 H 0.62577 0.92714 0.57207 0.0
H950 H 0.62945 0.98287 0.57748 0.0
H951 H 0.69091 0.00553 0.60802 0.0
H952 H 0.71838 0.16555 0.61647 0.0
H953 H 0.71966 0.10957 0.61123 0.0
C954 C 0.26315 0.06776 0.08881 0.0
C955 C 0.23934 0.08959 0.09139 0.0
C956 C 0.26607 0.03837 0.09433 0.0
C957 C 0.23694 0.98996 0.11799 0.0
H958 H 0.24258 0.92126 0.09593 0.0
C959 C 0.17697 0.87069 0.12207 0.0
C960 C 0.18989 0.84299 0.11751 0.0
C961 C 0.19211 0.89964 0.12142 0.0
C962 C 0.24176 0.93998 0.10231 0.0
H963 H 0.2013 0.09863 0.10231 0.0
H964 H 0.20606 0.0472 0.11188 0.0
H965 H 0.25234 0.97524 0.09017 0.0
H966 H 0.22932 0.82326 0.10909 0.0
H967 H 0.25622 0.87427 0.10789 0.0
H968 H 0.22485 0.9546 0.12996 0.0
C969 C 0.2228 0.05283 0.10569 0.0
C970 C 0.24733 0.97109 0.099 0.0
C971 C 0.22002 0.08238 0.10022 0.0
C972 C 0.21914 0.84433 0.11277 0.0
C973 C 0.2343 0.87352 0.11201 0.0
C974 C 0.23134 0.95879 0.1213 0.0
C975 C 0.2451 0.02998 0.1025 0.0
C976 C 0.24406 0.99663 0.10668 0.0
C977 C 0.22042 0.90169 0.11603 0.0
C978 C 0.23268 0.93354 0.11338 0.0
H979 H 0.27863 0.07288 0.08214 0.0
H980 H 0.284 0.0217 0.09184 0.0
H981 H 0.23479 0.00893 0.1242 0.0
H982 H 0.15426 0.8702 0.12568 0.0
H983 H 0.18045 0.92075 0.12446 0.0
C984 C 0.6411 0.04826 0.38487 0.0
C985 C 0.61329 0.0572 0.38987 0.0
C986 C 0.64484 0.01746 0.3806 0.0
C987 C 0.65317 0.94533 0.38252 0.0
H988 H 0.58556 0.89908 0.36588 0.0
C989 C 0.63657 0.81117 0.38657 0.0
C990 C 0.62665 0.79363 0.37668 0.0
C991 C 0.63937 0.84406 0.38602 0.0
C992 C 0.60488 0.91176 0.37037 0.0
H993 H 0.56694 0.04186 0.39375 0.0
H994 H 0.57331 0.98819 0.38622 0.0
H995 H 0.58073 0.9566 0.36814 0.0
H996 H 0.61305 0.79665 0.35841 0.0
H997 H 0.6174 0.85433 0.35745 0.0
H998 H 0.67672 0.90033 0.38516 0.0
C999 C 0.59224 0.00485 0.3856 0.0
C1000 C 0.602 0.9446 0.37173 0.0
C1001 C 0.58867 0.03544 0.38999 0.0
C1002 C 0.62057 0.80955 0.36616 0.0
C1003 C 0.62301 0.84254 0.36562 0.0
C1004 C 0.6559 0.91246 0.38126 0.0
C1005 C 0.62063 0.99531 0.38112 0.0
C1006 C 0.62577 0.96158 0.37806 0.0
C1007 C 0.63203 0.86013 0.37559 0.0
C1008 C 0.63143 0.89527 0.37542 0.0
H1009 H 0.66047 0.06461 0.38474 0.0
H1010 H 0.66691 0.01072 0.37715 0.0
H1011 H 0.67176 0.95778 0.38751 0.0
H1012 H 0.64154 0.79961 0.39481 0.0
H1013 H 0.64603 0.85705 0.39387 0.0
C1014 C 0.1049 0.89525 0.91651 0.0
C1015 C 0.07981 0.87514 0.91294 0.0
C1016 C 0.10557 0.92641 0.91249 0.0
C1017 C 0.07335 0.97898 0.88899 0.0
H1018 H 0.10129 0.04632 0.9101 0.0
C1019 C 0.10076 0.10186 0.87222 0.0
C1020 C 0.0891 0.1286 0.87787 0.0
C1021 C 0.1005 0.07185 0.87717 0.0
C1022 C 0.09323 0.02784 0.90412 0.0
H1023 H 0.03598 0.87209 0.90213 0.0
H1024 H 0.03724 0.92647 0.89502 0.0
H1025 H 0.09802 0.99202 0.91716 0.0
H1026 H 0.06859 0.14487 0.89326 0.0
H1027 H 0.06842 0.09209 0.90213 0.0
H1028 H 0.06825 0.01467 0.87597 0.0
C1029 C 0.05651 0.91801 0.90093 0.0
C1030 C 0.09165 0.99664 0.90813 0.0
C1031 C 0.05581 0.88678 0.90497 0.0
C1032 C 0.07837 0.12484 0.88886 0.0
C1033 C 0.07805 0.09456 0.89386 0.0
C1034 C 0.07504 0.01006 0.88498 0.0
C1035 C 0.08123 0.93835 0.90474 0.0
C1036 C 0.08192 0.97176 0.90059 0.0
C1037 C 0.08833 0.06759 0.8879 0.0
C1038 C 0.08532 0.03485 0.89245 0.0
H1039 H 0.12412 0.88692 0.92246 0.0
H1040 H 0.12535 0.94109 0.9154 0.0
H1041 H 0.06596 0.96048 0.88291 0.0
H1042 H 0.10944 0.10403 0.86377 0.0
H1043 H 0.10937 0.05181 0.87246 0.0
C1044 C 0.13936 0.22985 0.99186 0.0
C1045 C 0.138 0.2069 0.00052 0.0
C1046 C 0.13082 0.22236 0.98036 0.0
C1047 C 0.12812 0.15899 0.95949 0.0
H1048 H 0.07199 0.21665 0.94151 0.0
C1049 C 0.07779 0.1927 0.90969 0.0
C1050 C 0.10708 0.19639 0.90517 0.0
C1051 C 0.07641 0.18301 0.9211 0.0
C1052 C 0.08715 0.19984 0.94642 0.0
H1053 H 0.12639 0.15785 0.00372 0.0
H1054 H 0.11279 0.14458 0.98348 0.0
H1055 H 0.07952 0.22324 0.96234 0.0
H1056 H 0.15765 0.19094 0.90853 0.0
H1057 H 0.15541 0.17357 0.92839 0.0
H1058 H 0.13717 0.13676 0.94344 0.0
C1059 C 0.12022 0.16843 0.98574 0.0
C1060 C 0.09169 0.20387 0.95832 0.0
C1061 C 0.12824 0.17606 -0.0027 0.0
C1062 C 0.13479 0.18768 0.91182 0.0
C1063 C 0.13345 0.17773 0.92318 0.0
C1064 C 0.12391 0.15521 0.94752 0.0
C1065 C 0.1212 0.19162 0.97719 0.0
C1066 C 0.11288 0.18408 0.96492 0.0
C1067 C 0.10437 0.17699 0.92812 0.0
C1068 C 0.104 0.17616 0.94084 0.0
H1069 H 0.14749 0.25358 0.9939 0.0
H1070 H 0.1323 0.24052 0.97389 0.0
H1071 H 0.14464 0.14347 0.96442 0.0
H1072 H 0.05619 0.19987 0.90473 0.0
H1073 H 0.05368 0.18245 0.92467 0.0
C1074 C 0.08147 0.82227 0.24559 0.0
C1075 C 0.06822 0.79763 0.25153 0.0
C1076 C 0.08234 0.82064 0.2336 0.0
C1077 C 0.05029 0.77411 0.20769 0.0
H1078 H 0.12411 0.80599 0.19432 0.0
C1079 C 0.11075 0.72563 0.16834 0.0
C1080 C 0.11462 0.74715 0.15944 0.0
C1081 C 0.09779 0.73575 0.17838 0.0
C1082 C 0.10309 0.79752 0.19792 0.0
H1083 H 0.04616 0.75176 0.24981 0.0
H1084 H 0.04914 0.74792 0.22911 0.0
H1085 H 0.11729 0.81608 0.21459 0.0
H1086 H 0.10702 0.7957 0.15375 0.0
H1087 H 0.08547 0.81385 0.1717 0.0
H1088 H 0.03781 0.75327 0.19111 0.0
C1089 C 0.05761 0.76926 0.23346 0.0
C1090 C 0.09906 0.80333 0.20954 0.0
C1091 C 0.05618 0.77123 0.24536 0.0
C1092 C 0.10404 0.77869 0.1605 0.0
C1093 C 0.09185 0.78906 0.17072 0.0
C1094 C 0.05475 0.76771 0.19614 0.0
C1095 C 0.07057 0.79399 0.22736 0.0
C1096 C 0.07297 0.79106 0.21468 0.0
C1097 C 0.08924 0.76772 0.17979 0.0
C1098 C 0.08144 0.77894 0.19125 0.0
H1099 H 0.09069 0.84296 0.25019 0.0
H1100 H 0.09208 0.84038 0.22925 0.0
H1101 H 0.02942 0.76503 0.21119 0.0
H1102 H 0.11876 0.7012 0.16768 0.0
H1103 H 0.09615 0.71901 0.18532 0.0
C1104 C 0.55241 0.73614 0.49423 0.0
C1105 C 0.57682 0.75795 0.49638 0.0
C1106 C 0.53968 0.73039 0.48296 0.0
C1107 C 0.54063 0.7603 0.4526 0.0
H1108 H 0.52121 0.67296 0.44481 0.0
C1109 C 0.5327 0.72135 0.40538 0.0
C1110 C 0.55075 0.69379 0.40362 0.0
C1111 C 0.52344 0.72869 0.41639 0.0
C1112 C 0.52657 0.6975 0.4468 0.0
H1113 H 0.60718 0.79077 0.48853 0.0
H1114 H 0.58635 0.7798 0.4689 0.0
H1115 H 0.53166 0.68804 0.46483 0.0
H1116 H 0.56991 0.65053 0.41161 0.0
H1117 H 0.55478 0.66343 0.43059 0.0
H1118 H 0.53857 0.7691 0.43454 0.0
C1119 C 0.57587 0.76794 0.47583 0.0
C1120 C 0.53214 0.70633 0.45836 0.0
C1121 C 0.58811 0.77409 0.4871 0.0
C1122 C 0.55637 0.67219 0.41271 0.0
C1123 C 0.54737 0.67956 0.42366 0.0
C1124 C 0.53574 0.75133 0.44103 0.0
C1125 C 0.55156 0.74587 0.47356 0.0
C1126 C 0.54045 0.73763 0.46142 0.0
C1127 C 0.53215 0.70864 0.42581 0.0
C1128 C 0.52989 0.71951 0.43795 0.0
H1129 H 0.54311 0.72361 0.50128 0.0
H1130 H 0.52065 0.71367 0.48164 0.0
H1131 H 0.54585 0.78488 0.45458 0.0
H1132 H 0.52774 0.73834 0.3985 0.0
H1133 H 0.51096 0.75089 0.41763 0.0
C1134 C 0.57065 0.30404 0.73324 0.0
C1135 C 0.55718 0.28061 0.73974 0.0
C1136 C 0.57295 0.29967 0.72142 0.0
C1137 C 0.58373 0.23701 0.70092 0.0
H1138 H 0.56144 0.30011 0.67744 0.0
C1139 C 0.61628 0.21464 0.65495 0.0
C1140 C 0.62827 0.24051 0.64929 0.0
C1141 C 0.60008 0.21938 0.66479 0.0
C1142 C 0.56807 0.28232 0.68389 0.0
H1143 H 0.53521 0.23452 0.73901 0.0
H1144 H 0.53985 0.22662 0.71839 0.0
H1145 H 0.54811 0.30962 0.69722 0.0
H1146 H 0.63194 0.29164 0.64913 0.0
H1147 H 0.60514 0.30002 0.66663 0.0
H1148 H 0.60547 0.2105 0.68802 0.0
C1149 C 0.54825 0.24847 0.72242 0.0
C1150 C 0.56026 0.28775 0.69519 0.0
C1151 C 0.54548 0.25305 0.73418 0.0
C1152 C 0.62268 0.27133 0.65333 0.0
C1153 C 0.60712 0.27607 0.66334 0.0
C1154 C 0.59206 0.23183 0.68972 0.0
C1155 C 0.56232 0.27157 0.71596 0.0
C1156 C 0.56829 0.26523 0.70381 0.0
C1157 C 0.59647 0.25005 0.66941 0.0
C1158 C 0.58466 0.25453 0.68105 0.0
H1159 H 0.5797 0.32556 0.73732 0.0
H1160 H 0.58415 0.31771 0.71664 0.0
H1161 H 0.59057 0.21945 0.70745 0.0
H1162 H 0.62003 0.19066 0.65188 0.0
H1163 H 0.59132 0.19882 0.66897 0.0
C1164 C 0.1091 0.6535 -0.00386 0.0
C1165 C 0.09736 0.68239 0.99132 0.0
C1166 C 0.11682 0.65084 0.00801 0.0
C1167 C 0.14172 0.69714 0.03344 0.0
H1168 H 0.10004 0.63541 0.05132 0.0
C1169 C 0.10294 0.69511 0.0811 0.0
C1170 C 0.13113 0.70394 0.08729 0.0
C1171 C 0.10333 0.68297 0.06993 0.0
C1172 C 0.1122 0.65242 0.04641 0.0
H1173 H 0.08411 0.73092 -0.00457 0.0
H1174 H 0.09892 0.7265 0.01598 0.0
H1175 H 0.09208 0.63442 0.0302 0.0
H1176 H 0.18188 0.7059 0.08705 0.0
H1177 H 0.18267 0.68489 0.06739 0.0
H1178 H 0.16109 0.71584 0.04954 0.0
C1179 C 0.10208 0.706 0.01051 0.0
C1180 C 0.10771 0.65182 0.03437 0.0
C1181 C 0.09379 0.70852 -0.00129 0.0
C1182 C 0.15994 0.69866 0.08247 0.0
C1183 C 0.16034 0.68691 0.07122 0.0
C1184 C 0.14664 0.69741 0.04543 0.0
C1185 C 0.1136 0.67716 0.01526 0.0
C1186 C 0.1217 0.6748 0.02782 0.0
C1187 C 0.1319 0.68019 0.06469 0.0
C1188 C 0.13125 0.67562 0.05205 0.0
H1189 H 0.11272 0.63298 0.99074 0.0
H1190 H 0.1258 0.62839 0.01149 0.0
H1191 H 0.15288 0.71498 0.02856 0.0
H1192 H 0.08044 0.69957 0.08462 0.0
H1193 H 0.08104 0.67833 0.06507 0.0
C1194 C 0.63613 0.85605 0.25602 0.0
C1195 C 0.6528 0.83416 0.24956 0.0
C1196 C 0.63584 0.85266 0.26795 0.0
C1197 C 0.674 0.80927 0.2933 0.0
H1198 H 0.58984 0.81231 0.30389 0.0
C1199 C 0.63639 0.73394 0.33048 0.0
C1200 C 0.6133 0.74583 0.33735 0.0
C1201 C 0.64606 0.75201 0.32144 0.0
C1202 C 0.61365 0.81204 0.3012 0.0
H1203 H 0.683 0.79209 0.25062 0.0
H1204 H 0.68248 0.78619 0.27133 0.0
H1205 H 0.59815 0.8313 0.28475 0.0
H1206 H 0.58231 0.78561 0.34044 0.0
H1207 H 0.5995 0.81769 0.32468 0.0
H1208 H 0.68916 0.78869 0.30963 0.0
C1209 C 0.67002 0.80629 0.26725 0.0
C1210 C 0.61842 0.82295 0.2902 0.0
C1211 C 0.67029 0.80966 0.25535 0.0
C1212 C 0.60064 0.77637 0.33534 0.0
C1213 C 0.61025 0.79449 0.32627 0.0
C1214 C 0.66921 0.79834 0.30432 0.0
C1215 C 0.65224 0.82732 0.27366 0.0
C1216 C 0.64846 0.82079 0.28598 0.0
C1217 C 0.63247 0.78215 0.31903 0.0
C1218 C 0.6388 0.79872 0.30826 0.0
H1219 H 0.62283 0.87549 0.25183 0.0
H1220 H 0.62226 0.8695 0.27267 0.0
H1221 H 0.69753 0.80781 0.29037 0.0
H1222 H 0.64613 0.71023 0.33187 0.0
H1223 H 0.66285 0.74158 0.31595 0.0
C1224 C 0.59345 0.15683 0.49139 0.0
C1225 C 0.57097 0.17295 0.484 0.0
C1226 C 0.59519 0.16265 0.50325 0.0
C1227 C 0.57556 0.2272 0.52298 0.0
H1228 H 0.60762 0.16791 0.5466 0.0
C1229 C 0.62814 0.27161 0.56666 0.0
C1230 C 0.62119 0.25522 0.57654 0.0
C1231 C 0.62048 0.25874 0.55576 0.0
C1232 C 0.59833 0.18468 0.54012 0.0
H1233 H 0.53105 0.20561 0.48315 0.0
H1234 H 0.53313 0.21489 0.50389 0.0
H1235 H 0.59355 0.14872 0.52705 0.0
H1236 H 0.59991 0.2133 0.58293 0.0
H1237 H 0.58644 0.19043 0.5638 0.0
H1238 H 0.57977 0.26304 0.53599 0.0
C1239 C 0.55019 0.19862 0.50056 0.0
C1240 C 0.59054 0.17374 0.5289 0.0
C1241 C 0.54879 0.19316 0.4887 0.0
C1242 C 0.60655 0.22568 0.5754 0.0
C1243 C 0.59864 0.2128 0.56446 0.0
C1244 C 0.58311 0.23804 0.53416 0.0
C1245 C 0.57424 0.18447 0.50793 0.0
C1246 C 0.5795 0.19499 0.52014 0.0
C1247 C 0.60514 0.22944 0.55451 0.0
C1248 C 0.5952 0.21708 0.54282 0.0
H1249 H 0.61098 0.14132 0.48793 0.0
H1250 H 0.61417 0.15152 0.50863 0.0
H1251 H 0.56761 0.24442 0.51647 0.0
H1252 H 0.63938 0.29451 0.56737 0.0
H1253 H 0.62643 0.2719 0.54829 0.0
C1254 C 0.16772 0.30826 0.74922 0.0
C1255 C 0.17443 0.28117 0.74275 0.0
C1256 C 0.1712 0.30741 0.76125 0.0
C1257 C 0.20193 0.25609 0.78616 0.0
H1258 H 0.13578 0.29937 0.80148 0.0
C1259 C 0.14283 0.21233 0.82547 0.0
C1260 C 0.13663 0.23416 0.83416 0.0
C1261 C 0.15767 0.22203 0.81587 0.0
C1262 C 0.15485 0.28772 0.79737 0.0
H1263 H 0.19022 0.23213 0.74364 0.0
H1264 H 0.19469 0.22991 0.76455 0.0
H1265 H 0.14094 0.30928 0.78122 0.0
H1266 H 0.14236 0.28272 0.84005 0.0
H1267 H 0.16729 0.30012 0.82289 0.0
H1268 H 0.2137 0.23241 0.80224 0.0
C1269 C 0.18797 0.25229 0.76048 0.0
C1270 C 0.15792 0.2934 0.78573 0.0
C1271 C 0.18512 0.25339 0.74847 0.0
C1272 C 0.14706 0.26548 0.83344 0.0
C1273 C 0.16123 0.27541 0.82367 0.0
C1274 C 0.19838 0.24991 0.79775 0.0
C1275 C 0.18077 0.27921 0.76707 0.0
C1276 C 0.18087 0.27693 0.77985 0.0
C1277 C 0.16584 0.2539 0.81468 0.0
C1278 C 0.17429 0.26509 0.80336 0.0
H1279 H 0.1598 0.33008 0.74495 0.0
H1280 H 0.16606 0.32881 0.76598 0.0
H1281 H 0.2205 0.24363 0.78205 0.0
H1282 H 0.13502 0.18805 0.82588 0.0
H1283 H 0.16071 0.2051 0.80899 0.0
loop_
_geom_bond_atom_site_label_1
_geom_bond_atom_site_label_2
_geom_bond_distance
_geom_bond_site_symmetry_2
_ccdc_geom_bond_type
C0 C1 1.391 . S
C0 C4 1.391 . S
C0 H42 0.948 . S
C1 C0 1.391 . S
C1 C2 1.391 . S
C2 C1 1.391 . S
C2 H58 0.947 . S
C2 C59 1.392 . S
C3 C4 1.391 . S
C3 C7 1.397 . S
C3 C59 1.419 . S
C4 C0 1.391 . S
C4 C3 1.391 . S
C4 C5 1.399 . S
C5 C4 1.399 . S
C5 C8 1.396 . S
C5 C17 1.453 . S
C5 C18 1.684 . S
H6 C30 0.948 . S
C7 C3 1.397 . S
C7 C8 1.394 . S
C7 C26 1.723 . S
C8 C5 1.396 . S
C8 C7 1.394 . S
C8 C38 1.723 . S
H9 C32 0.947 . S
H10 C33 0.948 . S
H11 C39 0.982 . S
H12 C40 0.979 . S
H13 C40 0.980 . S
H14 C40 0.983 . S
H15 C39 0.979 . S
H16 C39 0.977 . S
C17 C5 1.453 . S
C17 H46 0.982 . S
C17 H47 0.979 . S
C17 H48 0.977 . S
C18 C5 1.684 . S
C18 H43 0.979 . S
C18 H44 0.980 . S
C18 H45 0.983 . S
C19 C20 1.391 . S
C19 C24 1.391 . S
C19 H49 0.948 . S
C20 C19 1.391 . S
C20 C21 1.391 . S
C21 C20 1.391 . S
C21 C22 1.392 . S
C21 H50 0.947 . S
C22 C21 1.392 . S
C22 C23 1.419 . S
C22 H51 0.948 . S
C23 C22 1.419 . S
C23 C24 1.391 . S
C23 C27 1.397 . S
C24 C19 1.391 . S
C24 C23 1.391 . S
C24 C25 1.399 . S
C25 C24 1.399 . S
C25 C26 1.396 . S
C25 C28 1.453 . S
C25 C29 1.684 . S
C26 C7 1.723 . S
C26 C25 1.396 . S
C26 C27 1.394 . S
C27 C23 1.397 . S
C27 C26 1.394 . S
C27 C37 1.723 . S
C28 C25 1.453 . S
C28 H52 0.982 . S
C28 H53 0.979 . S
C28 H54 0.977 . S
C29 C25 1.684 . S
C29 H55 0.979 . S
C29 H56 0.980 . S
C29 H57 0.983 . S
C30 H6 0.948 . S
C30 C31 1.391 . S
C30 C35 1.391 . S
C31 C30 1.391 . S
C31 C32 1.391 . S
C32 H9 0.947 . S
C32 C31 1.391 . S
C32 C33 1.392 . S
C33 H10 0.948 . S
C33 C32 1.392 . S
C33 C34 1.419 . S
C34 C33 1.419 . S
C34 C35 1.391 . S
C34 C38 1.397 . S
C35 C30 1.391 . S
C35 C34 1.391 . S
C35 C36 1.399 . S
C36 C35 1.399 . S
C36 C37 1.396 . S
C36 C39 1.453 . S
C36 C40 1.684 . S
C37 C27 1.723 . S
C37 C36 1.396 . S
C37 C38 1.394 . S
C38 C8 1.723 . S
C38 C34 1.397 . S
C38 C37 1.394 . S
C39 H11 0.982 . S
C39 H15 0.979 . S
C39 H16 0.977 . S
C39 C36 1.453 . S
C40 H12 0.979 . S
C40 H13 0.980 . S
C40 H14 0.983 . S
C40 C36 1.684 . S
H41 C59 0.948 . S
H42 C0 0.948 . S
H43 C18 0.979 . S
H44 C18 0.980 . S
H45 C18 0.983 . S
H46 C17 0.982 . S
H47 C17 0.979 . S
H48 C17 0.977 . S
H49 C19 0.948 . S
H50 C21 0.947 . S
H51 C22 0.948 . S
H52 C28 0.982 . S
H53 C28 0.979 . S
H54 C28 0.977 . S
H55 C29 0.979 . S
H56 C29 0.980 . S
H57 C29 0.983 . S
H58 C2 0.947 . S
C59 C2 1.392 . S
C59 C3 1.419 . S
C59 H41 0.948 . S
C60 C61 1.391 . S
C60 C64 1.391 . S
C60 H102 0.948 . S
C61 C60 1.391 . S
C61 C62 1.391 . S
C62 C61 1.391 . S
C62 H118 0.947 . S
C62 C119 1.392 . S
C63 C64 1.391 . S
C63 C67 1.397 . S
C63 C119 1.419 . S
C64 C60 1.391 . S
C64 C63 1.391 . S
C64 C65 1.399 . S
C65 C64 1.399 . S
C65 C68 1.396 . S
C65 C77 1.453 . S
C65 C78 1.684 . S
H66 C90 0.948 1_655 S
C67 C63 1.397 . S
C67 C68 1.394 . S
C67 C86 1.723 . S
C68 C65 1.396 . S
C68 C67 1.394 . S
C68 C98 1.723 . S
H69 C92 0.947 . S
H70 C93 0.948 . S
H71 C99 0.982 . S
H72 C100 0.979 . S
H73 C100 0.980 . S
H74 C100 0.983 . S
H75 C99 0.979 . S
H76 C99 0.977 . S
C77 C65 1.453 . S
C77 H106 0.982 . S
C77 H107 0.979 . S
C77 H108 0.977 . S
C78 C65 1.684 . S
C78 H103 0.979 . S
C78 H104 0.980 . S
C78 H105 0.983 . S
C79 C80 1.391 . S
C79 C84 1.391 . S
C79 H109 0.948 . S
C80 C79 1.391 . S
C80 C81 1.391 . S
C81 C80 1.391 . S
C81 C82 1.392 . S
C81 H110 0.947 . S
C82 C81 1.392 . S
C82 C83 1.419 . S
C82 H111 0.948 . S
C83 C82 1.419 . S
C83 C84 1.391 . S
C83 C87 1.397 . S
C84 C79 1.391 . S
C84 C83 1.391 . S
C84 C85 1.399 . S
C85 C84 1.399 . S
C85 C86 1.396 . S
C85 C88 1.453 . S
C85 C89 1.684 . S
C86 C67 1.723 . S
C86 C85 1.396 . S
C86 C87 1.394 . S
C87 C83 1.397 . S
C87 C86 1.394 . S
C87 C97 1.723 . S
C88 C85 1.453 . S
C88 H112 0.982 . S
C88 H113 0.979 . S
C88 H114 0.977 . S
C89 C85 1.684 . S
C89 H115 0.979 . S
C89 H116 0.980 . S
C89 H117 0.983 . S
C90 H66 0.948 1_455 S
C90 C91 1.391 . S
C90 C95 1.391 . S
C91 C90 1.391 . S
C91 C92 1.391 . S
C92 H69 0.947 . S
C92 C91 1.391 . S
C92 C93 1.392 . S
C93 H70 0.948 . S
C93 C92 1.392 . S
C93 C94 1.419 . S
C94 C93 1.419 . S
C94 C95 1.391 . S
C94 C98 1.397 . S
C95 C90 1.391 . S
C95 C94 1.391 . S
C95 C96 1.399 . S
C96 C95 1.399 . S
C96 C97 1.396 . S
C96 C99 1.453 . S
C96 C100 1.684 . S
C97 C87 1.723 . S
C97 C96 1.396 . S
C97 C98 1.394 . S
C98 C68 1.723 . S
C98 C94 1.397 . S
C98 C97 1.394 . S
C99 H71 0.982 . S
C99 H75 0.979 . S
C99 H76 0.977 . S
C99 C96 1.453 . S
C100 H72 0.979 . S
C100 H73 0.980 . S
C100 H74 0.983 . S
C100 C96 1.684 . S
H101 C119 0.948 . S
H102 C60 0.948 . S
H103 C78 0.979 . S
H104 C78 0.980 . S
H105 C78 0.983 . S
H106 C77 0.982 . S
H107 C77 0.979 . S
H108 C77 0.977 . S
H109 C79 0.948 . S
H110 C81 0.947 . S
H111 C82 0.948 . S
H112 C88 0.982 . S
H113 C88 0.979 . S
H114 C88 0.977 . S
H115 C89 0.979 . S
H116 C89 0.980 . S
H117 C89 0.983 . S
H118 C62 0.947 . S
C119 C62 1.392 . S
C119 C63 1.419 . S
C119 H101 0.948 . S
C120 C121 1.391 . S
C120 C124 1.391 . S
C120 H162 0.948 . S
C121 C120 1.391 . S
C121 C122 1.391 . S
C122 C121 1.391 . S
C122 H178 0.947 . S
C122 C179 1.392 . S
C123 C124 1.391 . S
C123 C127 1.397 . S
C123 C179 1.419 . S
C124 C120 1.391 . S
C124 C123 1.391 . S
C124 C125 1.399 . S
C125 C124 1.399 . S
C125 C128 1.396 . S
C125 C137 1.453 . S
C125 C138 1.684 . S
H126 C150 0.948 . S
C127 C123 1.397 . S
C127 C128 1.394 . S
C127 C146 1.723 . S
C128 C125 1.396 . S
C128 C127 1.394 . S
C128 C158 1.723 . S
H129 C152 0.947 . S
H130 C153 0.948 . S
H131 C159 0.982 . S
H132 C160 0.979 . S
H133 C160 0.980 . S
H134 C160 0.983 . S
H135 C159 0.979 . S
H136 C159 0.977 . S
C137 C125 1.453 . S
C137 H166 0.982 . S
C137 H167 0.979 . S
C137 H168 0.977 . S
C138 C125 1.684 . S
C138 H163 0.979 . S
C138 H164 0.980 . S
C138 H165 0.983 . S
C139 C140 1.391 . S
C139 C144 1.391 . S
C139 H169 0.948 . S
C140 C139 1.391 . S
C140 C141 1.391 . S
C141 C140 1.391 . S
C141 C142 1.392 . S
C141 H170 0.947 . S
C142 C141 1.392 . S
C142 C143 1.419 . S
C142 H171 0.948 . S
C143 C142 1.419 . S
C143 C144 1.391 . S
C143 C147 1.397 . S
C144 C139 1.391 . S
C144 C143 1.391 . S
C144 C145 1.399 . S
C145 C144 1.399 . S
C145 C146 1.396 . S
C145 C148 1.453 . S
C145 C149 1.684 . S
C146 C127 1.723 . S
C146 C145 1.396 . S
C146 C147 1.394 . S
C147 C143 1.397 . S
C147 C146 1.394 . S
C147 C157 1.723 . S
C148 C145 1.453 . S
C148 H172 0.982 . S
C148 H173 0.979 . S
C148 H174 0.977 . S
C149 C145 1.684 . S
C149 H175 0.979 . S
C149 H176 0.980 . S
C149 H177 0.983 . S
C150 H126 0.948 . S
C150 C151 1.391 . S
C150 C155 1.391 . S
C151 C150 1.391 . S
C151 C152 1.391 . S
C152 H129 0.947 . S
C152 C151 1.391 . S
C152 C153 1.392 . S
C153 H130 0.948 . S
C153 C152 1.392 . S
C153 C154 1.419 . S
C154 C153 1.419 . S
C154 C155 1.391 . S
C154 C158 1.397 . S
C155 C150 1.391 . S
C155 C154 1.391 . S
C155 C156 1.399 . S
C156 C155 1.399 . S
C156 C157 1.396 . S
C156 C159 1.453 . S
C156 C160 1.684 . S
C157 C147 1.723 . S
C157 C156 1.396 . S
C157 C158 1.394 . S
C158 C128 1.723 . S
C158 C154 1.397 . S
C158 C157 1.394 . S
C159 H131 0.982 . S
C159 H135 0.979 . S
C159 H136 0.977 . S
C159 C156 1.453 . S
C160 H132 0.979 . S
C160 H133 0.980 . S
C160 H134 0.983 . S
C160 C156 1.684 . S
H161 C179 0.948 . S
H162 C120 0.948 . S
H163 C138 0.979 . S
H164 C138 0.980 . S
H165 C138 0.983 . S
H166 C137 0.982 . S
H167 C137 0.979 . S
H168 C137 0.977 . S
H169 C139 0.948 . S
H170 C141 0.947 . S
H171 C142 0.948 . S
H172 C148 0.982 . S
H173 C148 0.979 . S
H174 C148 0.977 . S
H175 C149 0.979 . S
H176 C149 0.980 . S
H177 C149 0.983 . S
H178 C122 0.947 . S
C179 C122 1.392 . S
C179 C123 1.419 . S
C179 H161 0.948 . S
C180 C181 1.391 . S
C180 C184 1.391 . S
C180 H222 0.948 . S
C181 C180 1.391 . S
C181 C182 1.391 . S
C182 C181 1.391 . S
C182 H238 0.947 . S
C182 C239 1.392 . S
C183 C184 1.391 . S
C183 C187 1.397 . S
C183 C239 1.419 . S
C184 C180 1.391 . S
C184 C183 1.391 . S
C184 C185 1.399 . S
C185 C184 1.399 . S
C185 C188 1.396 . S
C185 C197 1.453 . S
C185 C198 1.684 . S
H186 C210 0.948 . S
C187 C183 1.397 . S
C187 C188 1.394 . S
C187 C206 1.723 . S
C188 C185 1.396 . S
C188 C187 1.394 . S
C188 C218 1.723 . S
H189 C212 0.947 . S
H190 C213 0.948 . S
H191 C219 0.982 . S
H192 C220 0.979 . S
H193 C220 0.980 . S
H194 C220 0.983 . S
H195 C219 0.979 . S
H196 C219 0.977 . S
C197 C185 1.453 . S
C197 H226 0.982 . S
C197 H227 0.979 . S
C197 H228 0.977 . S
C198 C185 1.684 . S
C198 H223 0.979 . S
C198 H224 0.980 . S
C198 H225 0.983 . S
C199 C200 1.391 . S
C199 C204 1.391 . S
C199 H229 0.948 . S
C200 C199 1.391 . S
C200 C201 1.391 . S
C201 C200 1.391 . S
C201 C202 1.392 . S
C201 H230 0.947 . S
C202 C201 1.392 . S
C202 C203 1.419 . S
C202 H231 0.948 . S
C203 C202 1.419 . S
C203 C204 1.391 . S
C203 C207 1.397 . S
C204 C199 1.391 . S
C204 C203 1.391 . S
C204 C205 1.399 . S
C205 C204 1.399 . S
C205 C206 1.396 . S
C205 C208 1.453 . S
C205 C209 1.684 . S
C206 C187 1.723 . S
C206 C205 1.396 . S
C206 C207 1.394 . S
C207 C203 1.397 . S
C207 C206 1.394 . S
C207 C217 1.723 . S
C208 C205 1.453 . S
C208 H232 0.982 . S
C208 H233 0.979 . S
C208 H234 0.977 . S
C209 C205 1.684 . S
C209 H235 0.979 . S
C209 H236 0.980 . S
C209 H237 0.983 . S
C210 H186 0.948 . S
C210 C211 1.391 . S
C210 C215 1.391 . S
C211 C210 1.391 . S
C211 C212 1.391 . S
C212 H189 0.947 . S
C212 C211 1.391 . S
C212 C213 1.392 . S
C213 H190 0.948 . S
C213 C212 1.392 . S
C213 C214 1.419 . S
C214 C213 1.419 . S
C214 C215 1.391 . S
C214 C218 1.397 . S
C215 C210 1.391 . S
C215 C214 1.391 . S
C215 C216 1.399 . S
C216 C215 1.399 . S
C216 C217 1.396 . S
C216 C219 1.453 . S
C216 C220 1.684 . S
C217 C207 1.723 . S
C217 C216 1.396 . S
C217 C218 1.394 . S
C218 C188 1.723 . S
C218 C214 1.397 . S
C218 C217 1.394 . S
C219 H191 0.982 . S
C219 H195 0.979 . S
C219 H196 0.977 . S
C219 C216 1.453 . S
C220 H192 0.979 . S
C220 H193 0.980 . S
C220 H194 0.983 . S
C220 C216 1.684 . S
H221 C239 0.948 . S
H222 C180 0.948 . S
H223 C198 0.979 . S
H224 C198 0.980 . S
H225 C198 0.983 . S
H226 C197 0.982 . S
H227 C197 0.979 . S
H228 C197 0.977 . S
H229 C199 0.948 . S
H230 C201 0.947 . S
H231 C202 0.948 . S
H232 C208 0.982 . S
H233 C208 0.979 . S
H234 C208 0.977 . S
H235 C209 0.979 . S
H236 C209 0.980 . S
H237 C209 0.983 . S
H238 C182 0.947 . S
C239 C182 1.392 . S
C239 C183 1.419 . S
C239 H221 0.948 . S
C240 C241 1.391 . S
C240 C244 1.391 . S
C240 H282 0.948 . S
C241 C240 1.391 . S
C241 C242 1.391 . S
C242 C241 1.391 . S
C242 H298 0.947 . S
C242 C299 1.392 . S
C243 C244 1.391 . S
C243 C247 1.397 . S
C243 C299 1.419 . S
C244 C240 1.391 . S
C244 C243 1.391 . S
C244 C245 1.399 . S
C245 C244 1.399 . S
C245 C248 1.396 . S
C245 C257 1.453 . S
C245 C258 1.684 . S
H246 C270 0.948 . S
C247 C243 1.397 . S
C247 C248 1.394 . S
C247 C266 1.723 . S
C248 C245 1.396 . S
C248 C247 1.394 . S
C248 C278 1.723 . S
H249 C272 0.947 . S
H250 C273 0.948 . S
H251 C279 0.982 . S
H252 C280 0.979 1_655 S
H253 C280 0.980 . S
H254 C280 0.983 . S
H255 C279 0.979 . S
H256 C279 0.977 . S
C257 C245 1.453 . S
C257 H286 0.982 . S
C257 H287 0.979 . S
C257 H288 0.977 . S
C258 C245 1.684 . S
C258 H283 0.979 1_455 S
C258 H284 0.980 . S
C258 H285 0.983 . S
C259 C260 1.391 . S
C259 C264 1.391 . S
C259 H289 0.948 . S
C260 C259 1.391 . S
C260 C261 1.391 . S
C261 C260 1.391 . S
C261 C262 1.392 . S
C261 H290 0.947 . S
C262 C261 1.392 . S
C262 C263 1.419 . S
C262 H291 0.948 . S
C263 C262 1.419 . S
C263 C264 1.391 . S
C263 C267 1.397 . S
C264 C259 1.391 . S
C264 C263 1.391 . S
C264 C265 1.399 . S
C265 C264 1.399 . S
C265 C266 1.396 . S
C265 C268 1.453 . S
C265 C269 1.684 . S
C266 C247 1.723 . S
C266 C265 1.396 . S
C266 C267 1.394 . S
C267 C263 1.397 . S
C267 C266 1.394 . S
C267 C277 1.723 . S
C268 C265 1.453 . S
C268 H292 0.982 . S
C268 H293 0.979 . S
C268 H294 0.977 . S
C269 C265 1.684 . S
C269 H295 0.979 1_455 S
C269 H296 0.980 . S
C269 H297 0.983 . S
C270 H246 0.948 . S
C270 C271 1.391 . S
C270 C275 1.391 . S
C271 C270 1.391 . S
C271 C272 1.391 . S
C272 H249 0.947 . S
C272 C271 1.391 . S
C272 C273 1.392 . S
C273 H250 0.948 . S
C273 C272 1.392 . S
C273 C274 1.419 . S
C274 C273 1.419 . S
C274 C275 1.391 . S
C274 C278 1.397 . S
C275 C270 1.391 . S
C275 C274 1.391 . S
C275 C276 1.399 . S
C276 C275 1.399 . S
C276 C277 1.396 . S
C276 C279 1.453 . S
C276 C280 1.684 . S
C277 C267 1.723 . S
C277 C276 1.396 . S
C277 C278 1.394 . S
C278 C248 1.723 . S
C278 C274 1.397 . S
C278 C277 1.394 . S
C279 H251 0.982 . S
C279 H255 0.979 . S
C279 H256 0.977 . S
C279 C276 1.453 . S
C280 H252 0.979 1_455 S
C280 H253 0.980 . S
C280 H254 0.983 . S
C280 C276 1.684 . S
H281 C299 0.948 . S
H282 C240 0.948 . S
H283 C258 0.979 1_655 S
H284 C258 0.980 . S
H285 C258 0.983 . S
H286 C257 0.982 . S
H287 C257 0.979 . S
H288 C257 0.977 . S
H289 C259 0.948 . S
H290 C261 0.947 . S
H291 C262 0.948 . S
H292 C268 0.982 . S
H293 C268 0.979 . S
H294 C268 0.977 . S
H295 C269 0.979 1_655 S
H296 C269 0.980 . S
H297 C269 0.983 . S
H298 C242 0.947 . S
C299 C242 1.392 . S
C299 C243 1.419 . S
C299 H281 0.948 . S
C300 C301 1.391 . S
C300 C304 1.391 . S
C300 H342 0.948 . S
C301 C300 1.391 . S
C301 C302 1.391 . S
C302 C301 1.391 . S
C302 H358 0.947 . S
C302 C359 1.392 . S
C303 C304 1.391 . S
C303 C307 1.397 . S
C303 C359 1.419 . S
C304 C300 1.391 . S
C304 C303 1.391 . S
C304 C305 1.399 . S
C305 C304 1.399 . S
C305 C308 1.396 . S
C305 C317 1.453 . S
C305 C318 1.684 . S
H306 C330 0.948 . S
C307 C303 1.397 . S
C307 C308 1.394 . S
C307 C326 1.723 . S
C308 C305 1.396 . S
C308 C307 1.394 . S
C308 C338 1.723 . S
H309 C332 0.947 . S
H310 C333 0.948 . S
H311 C339 0.982 . S
H312 C340 0.979 . S
H313 C340 0.980 . S
H314 C340 0.983 . S
H315 C339 0.979 . S
H316 C339 0.977 . S
C317 C305 1.453 . S
C317 H346 0.982 . S
C317 H347 0.979 . S
C317 H348 0.977 . S
C318 C305 1.684 . S
C318 H343 0.979 . S
C318 H344 0.980 . S
C318 H345 0.983 . S
C319 C320 1.391 . S
C319 C324 1.391 . S
C319 H349 0.948 . S
C320 C319 1.391 . S
C320 C321 1.391 . S
C321 C320 1.391 . S
C321 C322 1.392 . S
C321 H350 0.947 . S
C322 C321 1.392 . S
C322 C323 1.419 . S
C322 H351 0.948 . S
C323 C322 1.419 . S
C323 C324 1.391 . S
C323 C327 1.397 . S
C324 C319 1.391 . S
C324 C323 1.391 . S
C324 C325 1.399 . S
C325 C324 1.399 . S
C325 C326 1.396 . S
C325 C328 1.453 . S
C325 C329 1.684 . S
C326 C307 1.723 . S
C326 C325 1.396 . S
C326 C327 1.394 . S
C327 C323 1.397 . S
C327 C326 1.394 . S
C327 C337 1.723 . S
C328 C325 1.453 . S
C328 H352 0.982 . S
C328 H353 0.979 . S
C328 H354 0.977 . S
C329 C325 1.684 . S
C329 H355 0.979 . S
C329 H356 0.980 . S
C329 H357 0.983 . S
C330 H306 0.948 . S
C330 C331 1.391 . S
C330 C335 1.391 . S
C331 C330 1.391 . S
C331 C332 1.391 . S
C332 H309 0.947 . S
C332 C331 1.391 . S
C332 C333 1.392 . S
C333 H310 0.948 . S
C333 C332 1.392 . S
C333 C334 1.419 . S
C334 C333 1.419 . S
C334 C335 1.391 . S
C334 C338 1.397 . S
C335 C330 1.391 . S
C335 C334 1.391 . S
C335 C336 1.399 . S
C336 C335 1.399 . S
C336 C337 1.396 . S
C336 C339 1.453 . S
C336 C340 1.684 . S
C337 C327 1.723 . S
C337 C336 1.396 . S
C337 C338 1.394 . S
C338 C308 1.723 . S
C338 C334 1.397 . S
C338 C337 1.394 . S
C339 H311 0.982 . S
C339 H315 0.979 . S
C339 H316 0.977 . S
C339 C336 1.453 . S
C340 H312 0.979 . S
C340 H313 0.980 . S
C340 H314 0.983 . S
C340 C336 1.684 . S
H341 C359 0.948 . S
H342 C300 0.948 . S
H343 C318 0.979 . S
H344 C318 0.980 . S
H345 C318 0.983 . S
H346 C317 0.982 . S
H347 C317 0.979 . S
H348 C317 0.977 . S
H349 C319 0.948 . S
H350 C321 0.947 . S
H351 C322 0.948 . S
H352 C328 0.982 . S
H353 C328 0.979 . S
H354 C328 0.977 . S
H355 C329 0.979 . S
H356 C329 0.980 . S
H357 C329 0.983 . S
H358 C302 0.947 . S
C359 C302 1.392 . S
C359 C303 1.419 . S
C359 H341 0.948 . S
C360 C361 1.391 . S
C360 C364 1.391 . S
C360 H402 0.948 . S
C361 C360 1.391 . S
C361 C362 1.391 . S
C362 C361 1.391 . S
C362 H418 0.947 . S
C362 C419 1.392 . S
C363 C364 1.391 . S
C363 C367 1.397 . S
C363 C419 1.419 . S
C364 C360 1.391 . S
C364 C363 1.391 . S
C364 C365 1.399 . S
C365 C364 1.399 . S
C365 C368 1.396 . S
C365 C377 1.453 . S
C365 C378 1.684 . S
H366 C390 0.948 . S
C367 C363 1.397 . S
C367 C368 1.394 . S
C367 C386 1.723 . S
C368 C365 1.396 . S
C368 C367 1.394 . S
C368 C398 1.723 . S
H369 C392 0.947 . S
H370 C393 0.948 . S
H371 C399 0.982 . S
H372 C400 0.979 . S
H373 C400 0.980 . S
H374 C400 0.983 . S
H375 C399 0.979 . S
H376 C399 0.977 . S
C377 C365 1.453 . S
C377 H406 0.982 . S
C377 H407 0.979 . S
C377 H408 0.977 . S
C378 C365 1.684 . S
C378 H403 0.979 . S
C378 H404 0.980 . S
C378 H405 0.983 . S
C379 C380 1.391 . S
C379 C384 1.391 . S
C379 H409 0.948 . S
C380 C379 1.391 . S
C380 C381 1.391 . S
C381 C380 1.391 . S
C381 C382 1.392 . S
C381 H410 0.947 . S
C382 C381 1.392 . S
C382 C383 1.419 . S
C382 H411 0.948 . S
C383 C382 1.419 . S
C383 C384 1.391 . S
C383 C387 1.397 . S
C384 C379 1.391 . S
C384 C383 1.391 . S
C384 C385 1.399 . S
C385 C384 1.399 . S
C385 C386 1.396 . S
C385 C388 1.453 . S
C385 C389 1.684 . S
C386 C367 1.723 . S
C386 C385 1.396 . S
C386 C387 1.394 . S
C387 C383 1.397 . S
C387 C386 1.394 . S
C387 C397 1.723 . S
C388 C385 1.453 . S
C388 H412 0.982 . S
C388 H413 0.979 . S
C388 H414 0.977 . S
C389 C385 1.684 . S
C389 H415 0.979 . S
C389 H416 0.980 . S
C389 H417 0.983 . S
C390 H366 0.948 . S
C390 C391 1.391 . S
C390 C395 1.391 . S
C391 C390 1.391 . S
C391 C392 1.391 . S
C392 H369 0.947 . S
C392 C391 1.391 . S
C392 C393 1.392 . S
C393 H370 0.948 . S
C393 C392 1.392 . S
C393 C394 1.419 . S
C394 C393 1.419 . S
C394 C395 1.391 . S
C394 C398 1.397 . S
C395 C390 1.391 . S
C395 C394 1.391 . S
C395 C396 1.399 . S
C396 C395 1.399 . S
C396 C397 1.396 . S
C396 C399 1.453 . S
C396 C400 1.684 . S
C397 C387 1.723 . S
C397 C396 1.396 . S
C397 C398 1.394 . S
C398 C368 1.723 . S
C398 C394 1.397 . S
C398 C397 1.394 . S
C399 H371 0.982 . S
C399 H375 0.979 . S
C399 H376 0.977 . S
C399 C396 1.453 . S
C400 H372 0.979 . S
C400 H373 0.980 . S
C400 H374 0.983 . S
C400 C396 1.684 . S
H401 C419 0.948 . S
H402 C360 0.948 . S
H403 C378 0.979 . S
H404 C378 0.980 . S
H405 C378 0.983 . S
H406 C377 0.982 . S
H407 C377 0.979 . S
H408 C377 0.977 . S
H409 C379 0.948 . S
H410 C381 0.947 . S
H411 C382 0.948 . S
H412 C388 0.982 . S
H413 C388 0.979 . S
H414 C388 0.977 . S
H415 C389 0.979 . S
H416 C389 0.980 . S
H417 C389 0.983 . S
H418 C362 0.947 . S
C419 C362 1.392 . S
C419 C363 1.419 . S
C419 H401 0.948 . S
C420 C421 1.391 . S
C420 C424 1.391 . S
C420 H462 0.948 . S
C421 C420 1.391 . S
C421 C422 1.391 . S
C422 C421 1.391 . S
C422 H478 0.947 . S
C422 C479 1.392 . S
C423 C424 1.391 . S
C423 C427 1.397 . S
C423 C479 1.419 . S
C424 C420 1.391 . S
C424 C423 1.391 . S
C424 C425 1.399 . S
C425 C424 1.399 . S
C425 C428 1.396 . S
C425 C437 1.453 . S
C425 C438 1.684 . S
H426 C450 0.948 . S
C427 C423 1.397 . S
C427 C428 1.394 . S
C427 C446 1.723 . S
C428 C425 1.396 . S
C428 C427 1.394 . S
C428 C458 1.723 . S
H429 C452 0.947 . S
H430 C453 0.948 . S
H431 C459 0.982 . S
H432 C460 0.979 . S
H433 C460 0.980 . S
H434 C460 0.983 . S
H435 C459 0.979 . S
H436 C459 0.977 . S
C437 C425 1.453 . S
C437 H466 0.982 . S
C437 H467 0.979 . S
C437 H468 0.977 . S
C438 C425 1.684 . S
C438 H463 0.979 . S
C438 H464 0.980 . S
C438 H465 0.983 . S
C439 C440 1.391 . S
C439 C444 1.391 . S
C439 H469 0.948 . S
C440 C439 1.391 . S
C440 C441 1.391 . S
C441 C440 1.391 . S
C441 C442 1.392 . S
C441 H470 0.947 . S
C442 C441 1.392 . S
C442 C443 1.419 . S
C442 H471 0.948 . S
C443 C442 1.419 . S
C443 C444 1.391 . S
C443 C447 1.397 . S
C444 C439 1.391 . S
C444 C443 1.391 . S
C444 C445 1.399 . S
C445 C444 1.399 . S
C445 C446 1.396 . S
C445 C448 1.453 . S
C445 C449 1.684 . S
C446 C427 1.723 . S
C446 C445 1.396 . S
C446 C447 1.394 . S
C447 C443 1.397 . S
C447 C446 1.394 . S
C447 C457 1.723 . S
C448 C445 1.453 . S
C448 H472 0.982 . S
C448 H473 0.979 . S
C448 H474 0.977 . S
C449 C445 1.684 . S
C449 H475 0.979 . S
C449 H476 0.980 . S
C449 H477 0.983 . S
C450 H426 0.948 . S
C450 C451 1.391 . S
C450 C455 1.391 . S
C451 C450 1.391 . S
C451 C452 1.391 . S
C452 H429 0.947 . S
C452 C451 1.391 . S
C452 C453 1.392 . S
C453 H430 0.948 . S
C453 C452 1.392 . S
C453 C454 1.419 . S
C454 C453 1.419 . S
C454 C455 1.391 . S
C454 C458 1.397 . S
C455 C450 1.391 . S
C455 C454 1.391 . S
C455 C456 1.399 . S
C456 C455 1.399 . S
C456 C457 1.396 . S
C456 C459 1.453 . S
C456 C460 1.684 . S
C457 C447 1.723 . S
C457 C456 1.396 . S
C457 C458 1.394 . S
C458 C428 1.723 . S
C458 C454 1.397 . S
C458 C457 1.394 . S
C459 H431 0.982 . S
C459 H435 0.979 . S
C459 H436 0.977 . S
C459 C456 1.453 . S
C460 H432 0.979 . S
C460 H433 0.980 . S
C460 H434 0.983 . S
C460 C456 1.684 . S
H461 C479 0.948 . S
H462 C420 0.948 . S
H463 C438 0.979 . S
H464 C438 0.980 . S
H465 C438 0.983 . S
H466 C437 0.982 . S
H467 C437 0.979 . S
H468 C437 0.977 . S
H469 C439 0.948 . S
H470 C441 0.947 . S
H471 C442 0.948 . S
H472 C448 0.982 . S
H473 C448 0.979 . S
H474 C448 0.977 . S
H475 C449 0.979 . S
H476 C449 0.980 . S
H477 C449 0.983 . S
H478 C422 0.947 . S
C479 C422 1.392 . S
C479 C423 1.419 . S
C479 H461 0.948 . S
Zn480 O486 1.920 . S
Zn480 O492 1.898 . S
Zn480 O495 1.905 . S
Zn481 O489 1.905 . S
Zn481 O490 1.898 . S
Zn481 O498 1.920 . S
Zn482 O485 2.080 . S
Zn482 O488 2.114 . S
Zn482 O491 2.120 . S
Zn482 O493 2.120 . S
Zn482 O494 2.114 . S
Zn482 O497 2.080 . S
C483 O488 1.166 . S
C483 O489 1.182 . S
C484 O490 1.167 . S
C484 O491 1.299 . S
O485 Zn482 2.080 . S
O485 C499 1.305 . S
O486 Zn480 1.920 . S
O486 C499 1.234 . S
C487 O492 1.167 . S
C487 O493 1.299 . S
O488 Zn482 2.114 . S
O488 C483 1.166 . S
O489 Zn481 1.905 . S
O489 C483 1.182 . S
O490 Zn481 1.898 . S
O490 C484 1.167 . S
O491 Zn482 2.120 . S
O491 C484 1.299 . S
O492 Zn480 1.898 . S
O492 C487 1.167 . S
O493 Zn482 2.120 . S
O493 C487 1.299 . S
O494 Zn482 2.114 . S
O494 C496 1.166 . S
O495 Zn480 1.905 . S
O495 C496 1.182 . S
C496 O494 1.166 . S
C496 O495 1.182 . S
O497 Zn482 2.080 . S
O497 C500 1.305 . S
O498 Zn481 1.920 . S
O498 C500 1.234 . S
C499 O485 1.305 . S
C499 O486 1.234 . S
C500 O497 1.305 . S
C500 O498 1.234 . S
Zn501 O507 1.920 . S
Zn501 O513 1.898 . S
Zn501 O516 1.905 . S
Zn502 O510 1.905 . S
Zn502 O511 1.898 . S
Zn502 O519 1.920 . S
Zn503 O506 2.080 . S
Zn503 O509 2.114 . S
Zn503 O512 2.120 . S
Zn503 O514 2.120 . S
Zn503 O515 2.114 . S
Zn503 O518 2.080 . S
C504 O509 1.166 . S
C504 O510 1.182 . S
C505 O511 1.167 . S
C505 O512 1.299 . S
O506 Zn503 2.080 . S
O506 C520 1.305 . S
O507 Zn501 1.920 . S
O507 C520 1.234 . S
C508 O513 1.167 . S
C508 O514 1.299 . S
O509 Zn503 2.114 . S
O509 C504 1.166 . S
O510 Zn502 1.905 . S
O510 C504 1.182 . S
O511 Zn502 1.898 . S
O511 C505 1.167 . S
O512 Zn503 2.120 . S
O512 C505 1.299 . S
O513 Zn501 1.898 . S
O513 C508 1.167 . S
O514 Zn503 2.120 . S
O514 C508 1.299 . S
O515 Zn503 2.114 . S
O515 C517 1.166 . S
O516 Zn501 1.905 . S
O516 C517 1.182 . S
C517 O515 1.166 . S
C517 O516 1.182 . S
O518 Zn503 2.080 . S
O518 C521 1.305 . S
O519 Zn502 1.920 . S
O519 C521 1.234 . S
C520 O506 1.305 . S
C520 O507 1.234 . S
C521 O518 1.305 . S
C521 O519 1.234 . S
Zn522 O528 1.920 . S
Zn522 O534 1.898 . S
Zn522 O537 1.905 . S
Zn523 O531 1.905 . S
Zn523 O532 1.898 . S
Zn523 O540 1.920 . S
Zn524 O527 2.080 . S
Zn524 O530 2.114 . S
Zn524 O533 2.120 . S
Zn524 O535 2.120 . S
Zn524 O536 2.114 . S
Zn524 O539 2.080 . S
C525 O530 1.166 . S
C525 O531 1.182 . S
C526 O532 1.167 . S
C526 O533 1.299 . S
O527 Zn524 2.080 . S
O527 C541 1.305 . S
O528 Zn522 1.920 . S
O528 C541 1.234 . S
C529 O534 1.167 . S
C529 O535 1.299 . S
O530 Zn524 2.114 . S
O530 C525 1.166 . S
O531 Zn523 1.905 . S
O531 C525 1.182 . S
O532 Zn523 1.898 . S
O532 C526 1.167 . S
O533 Zn524 2.120 . S
O533 C526 1.299 . S
O534 Zn522 1.898 . S
O534 C529 1.167 . S
O535 Zn524 2.120 . S
O535 C529 1.299 . S
O536 Zn524 2.114 . S
O536 C538 1.166 . S
O537 Zn522 1.905 . S
O537 C538 1.182 . S
C538 O536 1.166 . S
C538 O537 1.182 . S
O539 Zn524 2.080 . S
O539 C542 1.305 . S
O540 Zn523 1.920 . S
O540 C542 1.234 . S
C541 O527 1.305 . S
C541 O528 1.234 . S
C542 O539 1.305 . S
C542 O540 1.234 . S
Zn543 O549 1.920 . S
Zn543 O555 1.898 . S
Zn543 O558 1.905 . S
Zn544 O552 1.905 . S
Zn544 O553 1.898 . S
Zn544 O561 1.920 . S
Zn545 O548 2.080 . S
Zn545 O551 2.114 . S
Zn545 O554 2.120 . S
Zn545 O556 2.120 . S
Zn545 O557 2.114 . S
Zn545 O560 2.080 . S
C546 O551 1.166 . S
C546 O552 1.182 . S
C547 O553 1.167 . S
C547 O554 1.299 . S
O548 Zn545 2.080 . S
O548 C562 1.305 . S
O549 Zn543 1.920 . S
O549 C562 1.234 . S
C550 O555 1.167 . S
C550 O556 1.299 . S
O551 Zn545 2.114 . S
O551 C546 1.166 . S
O552 Zn544 1.905 . S
O552 C546 1.182 . S
O553 Zn544 1.898 . S
O553 C547 1.167 . S
O554 Zn545 2.120 . S
O554 C547 1.299 . S
O555 Zn543 1.898 . S
O555 C550 1.167 . S
O556 Zn545 2.120 . S
O556 C550 1.299 . S
O557 Zn545 2.114 . S
O557 C559 1.166 . S
O558 Zn543 1.905 . S
O558 C559 1.182 . S
C559 O557 1.166 . S
C559 O558 1.182 . S
O560 Zn545 2.080 . S
O560 C563 1.305 . S
O561 Zn544 1.920 . S
O561 C563 1.234 . S
C562 O548 1.305 . S
C562 O549 1.234 . S
C563 O560 1.305 . S
C563 O561 1.234 . S
C564 C565 1.349 . S
C564 C566 1.327 . S
C564 H589 0.950 . S
C565 C564 1.349 . S
C565 C581 1.349 . S
C566 C564 1.327 . S
C566 C585 1.429 . S
C566 H590 0.950 . S
C567 C584 1.574 . S
C567 C586 1.368 . S
C567 H591 0.949 . S
H568 C572 0.949 . S
C569 C570 1.349 . S
C569 C571 1.327 . S
C569 H592 0.950 . S
C570 C569 1.349 . S
C570 C582 1.349 . S
C571 C569 1.327 . S
C571 C587 1.429 . S
C571 H593 0.950 . S
C572 H568 0.949 . S
C572 C580 1.574 . S
C572 C588 1.368 . S
H573 C581 0.950 . S
H574 C579 0.950 . S
H575 C580 0.949 . S
H576 C582 0.950 . S
H577 C583 0.950 . S
H578 C584 0.949 . S
C579 H574 0.950 . S
C579 C581 1.327 . S
C579 C585 1.429 . S
C580 C572 1.574 . S
C580 H575 0.949 . S
C580 C586 1.368 . S
C581 C565 1.349 . S
C581 H573 0.950 . S
C581 C579 1.327 . S
C582 C570 1.349 . S
C582 H576 0.950 . S
C582 C583 1.327 . S
C583 H577 0.950 . S
C583 C582 1.327 . S
C583 C587 1.429 . S
C584 C567 1.574 . S
C584 H578 0.949 . S
C584 C588 1.368 . S
C585 C566 1.429 . S
C585 C579 1.429 . S
C585 C586 1.523 . S
C586 C567 1.368 . S
C586 C580 1.368 . S
C586 C585 1.523 . S
C587 C571 1.429 . S
C587 C583 1.429 . S
C587 C588 1.523 . S
C588 C572 1.368 . S
C588 C584 1.368 . S
C588 C587 1.523 . S
H589 C564 0.950 . S
H590 C566 0.950 . S
H591 C567 0.949 . S
H592 C569 0.950 . S
H593 C571 0.950 . S
C594 C595 1.349 . S
C594 C596 1.327 . S
C594 H619 0.950 . S
C595 C594 1.349 . S
C595 C611 1.349 . S
C596 C594 1.327 . S
C596 C615 1.429 . S
C596 H620 0.950 . S
C597 C614 1.574 . S
C597 C616 1.368 . S
C597 H621 0.949 . S
H598 C602 0.949 . S
C599 C600 1.349 . S
C599 C601 1.327 . S
C599 H622 0.950 . S
C600 C599 1.349 . S
C600 C612 1.349 . S
C601 C599 1.327 . S
C601 C617 1.429 . S
C601 H623 0.950 . S
C602 H598 0.949 . S
C602 C610 1.574 . S
C602 C618 1.368 . S
H603 C611 0.950 . S
H604 C609 0.950 . S
H605 C610 0.949 . S
H606 C612 0.950 . S
H607 C613 0.950 . S
H608 C614 0.949 . S
C609 H604 0.950 . S
C609 C611 1.327 . S
C609 C615 1.429 . S
C610 C602 1.574 . S
C610 H605 0.949 . S
C610 C616 1.368 . S
C611 C595 1.349 . S
C611 H603 0.950 . S
C611 C609 1.327 . S
C612 C600 1.349 . S
C612 H606 0.950 . S
C612 C613 1.327 . S
C613 H607 0.950 . S
C613 C612 1.327 . S
C613 C617 1.429 . S
C614 C597 1.574 . S
C614 H608 0.949 . S
C614 C618 1.368 . S
C615 C596 1.429 . S
C615 C609 1.429 . S
C615 C616 1.523 . S
C616 C597 1.368 . S
C616 C610 1.368 . S
C616 C615 1.523 . S
C617 C601 1.429 . S
C617 C613 1.429 . S
C617 C618 1.523 . S
C618 C602 1.368 . S
C618 C614 1.368 . S
C618 C617 1.523 . S
H619 C594 0.950 . S
H620 C596 0.950 . S
H621 C597 0.949 . S
H622 C599 0.950 . S
H623 C601 0.950 . S
C624 C625 1.349 . S
C624 C626 1.327 . S
C624 H649 0.950 . S
C625 C624 1.349 . S
C625 C641 1.349 . S
C626 C624 1.327 . S
C626 C645 1.429 . S
C626 H650 0.950 . S
C627 C644 1.574 . S
C627 C646 1.368 . S
C627 H651 0.949 . S
H628 C632 0.949 . S
C629 C630 1.349 . S
C629 C631 1.327 . S
C629 H652 0.950 . S
C630 C629 1.349 . S
C630 C642 1.349 . S
C631 C629 1.327 . S
C631 C647 1.429 . S
C631 H653 0.950 . S
C632 H628 0.949 . S
C632 C640 1.574 . S
C632 C648 1.368 . S
H633 C641 0.950 . S
H634 C639 0.950 . S
H635 C640 0.949 . S
H636 C642 0.950 . S
H637 C643 0.950 . S
H638 C644 0.949 . S
C639 H634 0.950 . S
C639 C641 1.327 . S
C639 C645 1.429 . S
C640 C632 1.574 . S
C640 H635 0.949 . S
C640 C646 1.368 . S
C641 C625 1.349 . S
C641 H633 0.950 . S
C641 C639 1.327 . S
C642 C630 1.349 . S
C642 H636 0.950 . S
C642 C643 1.327 . S
C643 H637 0.950 . S
C643 C642 1.327 . S
C643 C647 1.429 . S
C644 C627 1.574 . S
C644 H638 0.949 . S
C644 C648 1.368 . S
C645 C626 1.429 . S
C645 C639 1.429 . S
C645 C646 1.523 . S
C646 C627 1.368 . S
C646 C640 1.368 . S
C646 C645 1.523 . S
C647 C631 1.429 . S
C647 C643 1.429 . S
C647 C648 1.523 . S
C648 C632 1.368 . S
C648 C644 1.368 . S
C648 C647 1.523 . S
H649 C624 0.950 . S
H650 C626 0.950 . S
H651 C627 0.949 . S
H652 C629 0.950 . S
H653 C631 0.950 . S
C654 C655 1.349 . S
C654 C656 1.327 . S
C654 H679 0.950 . S
C655 C654 1.349 . S
C655 C671 1.349 . S
C656 C654 1.327 . S
C656 C675 1.429 . S
C656 H680 0.950 . S
C657 C674 1.574 . S
C657 C676 1.368 . S
C657 H681 0.949 . S
H658 C662 0.949 . S
C659 C660 1.349 . S
C659 C661 1.327 1_455 S
C659 H682 0.950 . S
C660 C659 1.349 . S
C660 C672 1.349 . S
C661 C659 1.327 1_655 S
C661 C677 1.429 . S
C661 H683 0.950 . S
C662 H658 0.949 . S
C662 C670 1.574 . S
C662 C678 1.368 . S
H663 C671 0.950 . S
H664 C669 0.950 . S
H665 C670 0.949 . S
H666 C672 0.950 . S
H667 C673 0.950 . S
H668 C674 0.949 . S
C669 H664 0.950 . S
C669 C671 1.327 . S
C669 C675 1.429 . S
C670 C662 1.574 . S
C670 H665 0.949 . S
C670 C676 1.368 . S
C671 C655 1.349 . S
C671 H663 0.950 . S
C671 C669 1.327 . S
C672 C660 1.349 . S
C672 H666 0.950 . S
C672 C673 1.327 1_455 S
C673 H667 0.950 . S
C673 C672 1.327 1_655 S
C673 C677 1.429 . S
C674 C657 1.574 . S
C674 H668 0.949 . S
C674 C678 1.368 . S
C675 C656 1.429 . S
C675 C669 1.429 . S
C675 C676 1.523 . S
C676 C657 1.368 . S
C676 C670 1.368 . S
C676 C675 1.523 . S
C677 C661 1.429 . S
C677 C673 1.429 . S
C677 C678 1.523 . S
C678 C662 1.368 . S
C678 C674 1.368 . S
C678 C677 1.523 . S
H679 C654 0.950 . S
H680 C656 0.950 . S
H681 C657 0.949 . S
H682 C659 0.950 . S
H683 C661 0.950 . S
C684 C685 1.349 . S
C684 C686 1.327 . S
C684 H709 0.950 . S
C685 C684 1.349 . S
C685 C701 1.349 . S
C686 C684 1.327 . S
C686 C705 1.429 . S
C686 H710 0.950 . S
C687 C704 1.574 . S
C687 C706 1.368 . S
C687 H711 0.949 . S
H688 C692 0.949 . S
C689 C690 1.349 . S
C689 C691 1.327 . S
C689 H712 0.950 . S
C690 C689 1.349 . S
C690 C702 1.349 . S
C691 C689 1.327 . S
C691 C707 1.429 . S
C691 H713 0.950 . S
C692 H688 0.949 . S
C692 C700 1.574 . S
C692 C708 1.368 . S
H693 C701 0.950 . S
H694 C699 0.950 . S
H695 C700 0.949 . S
H696 C702 0.950 . S
H697 C703 0.950 . S
H698 C704 0.949 . S
C699 H694 0.950 . S
C699 C701 1.327 . S
C699 C705 1.429 . S
C700 C692 1.574 . S
C700 H695 0.949 . S
C700 C706 1.368 . S
C701 C685 1.349 . S
C701 H693 0.950 . S
C701 C699 1.327 . S
C702 C690 1.349 . S
C702 H696 0.950 . S
C702 C703 1.327 . S
C703 H697 0.950 . S
C703 C702 1.327 . S
C703 C707 1.429 . S
C704 C687 1.574 . S
C704 H698 0.949 . S
C704 C708 1.368 . S
C705 C686 1.429 . S
C705 C699 1.429 . S
C705 C706 1.523 . S
C706 C687 1.368 . S
C706 C700 1.368 . S
C706 C705 1.523 . S
C707 C691 1.429 . S
C707 C703 1.429 . S
C707 C708 1.523 . S
C708 C692 1.368 . S
C708 C704 1.368 . S
C708 C707 1.523 . S
H709 C684 0.950 . S
H710 C686 0.950 . S
H711 C687 0.949 . S
H712 C689 0.950 . S
H713 C691 0.950 . S
C714 C715 1.349 . S
C714 C716 1.327 . S
C714 H739 0.950 . S
C715 C714 1.349 . S
C715 C731 1.349 . S
C716 C714 1.327 . S
C716 C735 1.429 . S
C716 H740 0.950 . S
C717 C734 1.574 . S
C717 C736 1.368 . S
C717 H741 0.949 . S
H718 C722 0.949 . S
C719 C720 1.349 . S
C719 C721 1.327 1_455 S
C719 H742 0.950 . S
C720 C719 1.349 . S
C720 C732 1.349 . S
C721 C719 1.327 1_655 S
C721 C737 1.429 . S
C721 H743 0.950 . S
C722 H718 0.949 . S
C722 C730 1.574 . S
C722 C738 1.368 . S
H723 C731 0.950 . S
H724 C729 0.950 . S
H725 C730 0.949 . S
H726 C732 0.950 . S
H727 C733 0.950 . S
H728 C734 0.949 . S
C729 H724 0.950 . S
C729 C731 1.327 . S
C729 C735 1.429 . S
C730 C722 1.574 . S
C730 H725 0.949 . S
C730 C736 1.368 . S
C731 C715 1.349 . S
C731 H723 0.950 . S
C731 C729 1.327 . S
C732 C720 1.349 . S
C732 H726 0.950 . S
C732 C733 1.327 1_455 S
C733 H727 0.950 . S
C733 C732 1.327 1_655 S
C733 C737 1.429 . S
C734 C717 1.574 . S
C734 H728 0.949 . S
C734 C738 1.368 . S
C735 C716 1.429 . S
C735 C729 1.429 . S
C735 C736 1.523 . S
C736 C717 1.368 . S
C736 C730 1.368 . S
C736 C735 1.523 . S
C737 C721 1.429 . S
C737 C733 1.429 . S
C737 C738 1.523 . S
C738 C722 1.368 . S
C738 C734 1.368 . S
C738 C737 1.523 . S
H739 C714 0.950 . S
H740 C716 0.950 . S
H741 C717 0.949 . S
H742 C719 0.950 . S
H743 C721 0.950 . S
C744 C745 1.349 . S
C744 C746 1.327 . S
C744 H769 0.950 . S
C745 C744 1.349 . S
C745 C761 1.349 . S
C746 C744 1.327 . S
C746 C765 1.429 . S
C746 H770 0.950 . S
C747 C764 1.574 . S
C747 C766 1.368 . S
C747 H771 0.949 . S
H748 C752 0.949 . S
C749 C750 1.349 . S
C749 C751 1.327 . S
C749 H772 0.950 . S
C750 C749 1.349 . S
C750 C762 1.349 . S
C751 C749 1.327 . S
C751 C767 1.429 . S
C751 H773 0.950 . S
C752 H748 0.949 . S
C752 C760 1.574 . S
C752 C768 1.368 . S
H753 C761 0.950 . S
H754 C759 0.950 . S
H755 C760 0.949 . S
H756 C762 0.950 . S
H757 C763 0.950 . S
H758 C764 0.949 . S
C759 H754 0.950 . S
C759 C761 1.327 . S
C759 C765 1.429 . S
C760 C752 1.574 . S
C760 H755 0.949 . S
C760 C766 1.368 . S
C761 C745 1.349 . S
C761 H753 0.950 . S
C761 C759 1.327 . S
C762 C750 1.349 . S
C762 H756 0.950 . S
C762 C763 1.327 . S
C763 H757 0.950 . S
C763 C762 1.327 . S
C763 C767 1.429 . S
C764 C747 1.574 . S
C764 H758 0.949 . S
C764 C768 1.368 . S
C765 C746 1.429 . S
C765 C759 1.429 . S
C765 C766 1.523 . S
C766 C747 1.368 . S
C766 C760 1.368 . S
C766 C765 1.523 . S
C767 C751 1.429 . S
C767 C763 1.429 . S
C767 C768 1.523 . S
C768 C752 1.368 . S
C768 C764 1.368 . S
C768 C767 1.523 . S
H769 C744 0.950 . S
H770 C746 0.950 . S
H771 C747 0.949 . S
H772 C749 0.950 . S
H773 C751 0.950 . S
C774 C775 1.349 . S
C774 C776 1.327 . S
C774 H799 0.950 . S
C775 C774 1.349 . S
C775 C791 1.349 . S
C776 C774 1.327 . S
C776 C795 1.429 . S
C776 H800 0.950 . S
C777 C794 1.574 . S
C777 C796 1.368 . S
C777 H801 0.949 . S
H778 C782 0.949 . S
C779 C780 1.349 . S
C779 C781 1.327 . S
C779 H802 0.950 . S
C780 C779 1.349 . S
C780 C792 1.349 . S
C781 C779 1.327 . S
C781 C797 1.429 . S
C781 H803 0.950 . S
C782 H778 0.949 . S
C782 C790 1.574 . S
C782 C798 1.368 . S
H783 C791 0.950 . S
H784 C789 0.950 . S
H785 C790 0.949 . S
H786 C792 0.950 . S
H787 C793 0.950 . S
H788 C794 0.949 . S
C789 H784 0.950 . S
C789 C791 1.327 . S
C789 C795 1.429 . S
C790 C782 1.574 . S
C790 H785 0.949 . S
C790 C796 1.368 . S
C791 C775 1.349 . S
C791 H783 0.950 . S
C791 C789 1.327 . S
C792 C780 1.349 . S
C792 H786 0.950 . S
C792 C793 1.327 . S
C793 H787 0.950 . S
C793 C792 1.327 . S
C793 C797 1.429 . S
C794 C777 1.574 . S
C794 H788 0.949 . S
C794 C798 1.368 . S
C795 C776 1.429 . S
C795 C789 1.429 . S
C795 C796 1.523 . S
C796 C777 1.368 . S
C796 C790 1.368 . S
C796 C795 1.523 . S
C797 C781 1.429 . S
C797 C793 1.429 . S
C797 C798 1.523 . S
C798 C782 1.368 . S
C798 C794 1.368 . S
C798 C797 1.523 . S
H799 C774 0.950 . S
H800 C776 0.950 . S
H801 C777 0.949 . S
H802 C779 0.950 . S
H803 C781 0.950 . S
C804 C805 1.349 . S
C804 C806 1.327 . S
C804 H829 0.950 . S
C805 C804 1.349 . S
C805 C821 1.349 . S
C806 C804 1.327 . S
C806 C825 1.429 . S
C806 H830 0.950 . S
C807 C824 1.574 . S
C807 C826 1.368 . S
C807 H831 0.949 . S
H808 C812 0.949 . S
C809 C810 1.349 . S
C809 C811 1.327 . S
C809 H832 0.950 . S
C810 C809 1.349 . S
C810 C822 1.349 . S
C811 C809 1.327 . S
C811 C827 1.429 . S
C811 H833 0.950 . S
C812 H808 0.949 . S
C812 C820 1.574 . S
C812 C828 1.368 . S
H813 C821 0.950 . S
H814 C819 0.950 . S
H815 C820 0.949 . S
H816 C822 0.950 . S
H817 C823 0.950 . S
H818 C824 0.949 . S
C819 H814 0.950 . S
C819 C821 1.327 . S
C819 C825 1.429 . S
C820 C812 1.574 . S
C820 H815 0.949 . S
C820 C826 1.368 . S
C821 C805 1.349 . S
C821 H813 0.950 . S
C821 C819 1.327 . S
C822 C810 1.349 . S
C822 H816 0.950 . S
C822 C823 1.327 . S
C823 H817 0.950 . S
C823 C822 1.327 . S
C823 C827 1.429 . S
C824 C807 1.574 . S
C824 H818 0.949 . S
C824 C828 1.368 . S
C825 C806 1.429 . S
C825 C819 1.429 . S
C825 C826 1.523 . S
C826 C807 1.368 . S
C826 C820 1.368 . S
C826 C825 1.523 . S
C827 C811 1.429 . S
C827 C823 1.429 . S
C827 C828 1.523 . S
C828 C812 1.368 . S
C828 C824 1.368 . S
C828 C827 1.523 . S
H829 C804 0.950 . S
H830 C806 0.950 . S
H831 C807 0.949 . S
H832 C809 0.950 . S
H833 C811 0.950 . S
C834 C835 1.349 . S
C834 C836 1.327 . S
C834 H859 0.950 . S
C835 C834 1.349 . S
C835 C851 1.349 . S
C836 C834 1.327 . S
C836 C855 1.429 . S
C836 H860 0.950 . S
C837 C854 1.574 . S
C837 C856 1.368 . S
C837 H861 0.949 . S
H838 C842 0.949 . S
C839 C840 1.349 . S
C839 C841 1.327 . S
C839 H862 0.950 . S
C840 C839 1.349 . S
C840 C852 1.349 . S
C841 C839 1.327 . S
C841 C857 1.429 . S
C841 H863 0.950 . S
C842 H838 0.949 . S
C842 C850 1.574 . S
C842 C858 1.368 . S
H843 C851 0.950 . S
H844 C849 0.950 . S
H845 C850 0.949 . S
H846 C852 0.950 . S
H847 C853 0.950 . S
H848 C854 0.949 . S
C849 H844 0.950 . S
C849 C851 1.327 . S
C849 C855 1.429 . S
C850 C842 1.574 . S
C850 H845 0.949 . S
C850 C856 1.368 . S
C851 C835 1.349 . S
C851 H843 0.950 . S
C851 C849 1.327 . S
C852 C840 1.349 . S
C852 H846 0.950 . S
C852 C853 1.327 . S
C853 H847 0.950 . S
C853 C852 1.327 . S
C853 C857 1.429 . S
C854 C837 1.574 . S
C854 H848 0.949 . S
C854 C858 1.368 . S
C855 C836 1.429 . S
C855 C849 1.429 . S
C855 C856 1.523 . S
C856 C837 1.368 . S
C856 C850 1.368 . S
C856 C855 1.523 . S
C857 C841 1.429 . S
C857 C853 1.429 . S
C857 C858 1.523 . S
C858 C842 1.368 . S
C858 C854 1.368 . S
C858 C857 1.523 . S
H859 C834 0.950 . S
H860 C836 0.950 . S
H861 C837 0.949 . S
H862 C839 0.950 . S
H863 C841 0.950 . S
C864 C865 1.349 . S
C864 C866 1.327 . S
C864 H889 0.950 . S
C865 C864 1.349 . S
C865 C881 1.349 . S
C866 C864 1.327 . S
C866 C885 1.429 . S
C866 H890 0.950 . S
C867 C884 1.574 . S
C867 C886 1.368 . S
C867 H891 0.949 . S
H868 C872 0.949 . S
C869 C870 1.349 . S
C869 C871 1.327 . S
C869 H892 0.950 . S
C870 C869 1.349 . S
C870 C882 1.349 . S
C871 C869 1.327 . S
C871 C887 1.429 . S
C871 H893 0.950 . S
C872 H868 0.949 . S
C872 C880 1.574 . S
C872 C888 1.368 . S
H873 C881 0.950 . S
H874 C879 0.950 . S
H875 C880 0.949 . S
H876 C882 0.950 . S
H877 C883 0.950 . S
H878 C884 0.949 . S
C879 H874 0.950 . S
C879 C881 1.327 . S
C879 C885 1.429 . S
C880 C872 1.574 . S
C880 H875 0.949 . S
C880 C886 1.368 . S
C881 C865 1.349 . S
C881 H873 0.950 . S
C881 C879 1.327 . S
C882 C870 1.349 . S
C882 H876 0.950 . S
C882 C883 1.327 . S
C883 H877 0.950 . S
C883 C882 1.327 . S
C883 C887 1.429 . S
C884 C867 1.574 . S
C884 H878 0.949 . S
C884 C888 1.368 . S
C885 C866 1.429 . S
C885 C879 1.429 . S
C885 C886 1.523 . S
C886 C867 1.368 . S
C886 C880 1.368 . S
C886 C885 1.523 . S
C887 C871 1.429 . S
C887 C883 1.429 . S
C887 C888 1.523 . S
C888 C872 1.368 . S
C888 C884 1.368 . S
C888 C887 1.523 . S
H889 C864 0.950 . S
H890 C866 0.950 . S
H891 C867 0.949 . S
H892 C869 0.950 . S
H893 C871 0.950 . S
C894 C895 1.349 . S
C894 C896 1.327 . S
C894 H919 0.950 . S
C895 C894 1.349 . S
C895 C911 1.349 . S
C896 C894 1.327 . S
C896 C915 1.429 . S
C896 H920 0.950 . S
C897 C914 1.574 . S
C897 C916 1.368 . S
C897 H921 0.949 . S
H898 C902 0.949 . S
C899 C900 1.349 . S
C899 C901 1.327 . S
C899 H922 0.950 . S
C900 C899 1.349 . S
C900 C912 1.349 . S
C901 C899 1.327 . S
C901 C917 1.429 . S
C901 H923 0.950 . S
C902 H898 0.949 . S
C902 C910 1.574 . S
C902 C918 1.368 . S
H903 C911 0.950 . S
H904 C909 0.950 . S
H905 C910 0.949 . S
H906 C912 0.950 . S
H907 C913 0.950 . S
H908 C914 0.949 . S
C909 H904 0.950 . S
C909 C911 1.327 . S
C909 C915 1.429 . S
C910 C902 1.574 . S
C910 H905 0.949 . S
C910 C916 1.368 . S
C911 C895 1.349 . S
C911 H903 0.950 . S
C911 C909 1.327 . S
C912 C900 1.349 . S
C912 H906 0.950 . S
C912 C913 1.327 . S
C913 H907 0.950 . S
C913 C912 1.327 . S
C913 C917 1.429 . S
C914 C897 1.574 . S
C914 H908 0.949 . S
C914 C918 1.368 . S
C915 C896 1.429 . S
C915 C909 1.429 . S
C915 C916 1.523 . S
C916 C897 1.368 . S
C916 C910 1.368 . S
C916 C915 1.523 . S
C917 C901 1.429 . S
C917 C913 1.429 . S
C917 C918 1.523 . S
C918 C902 1.368 . S
C918 C914 1.368 . S
C918 C917 1.523 . S
H919 C894 0.950 . S
H920 C896 0.950 . S
H921 C897 0.949 . S
H922 C899 0.950 . S
H923 C901 0.950 . S
C924 C925 1.349 . S
C924 C926 1.327 . S
C924 H949 0.950 . S
C925 C924 1.349 . S
C925 C941 1.349 . S
C926 C924 1.327 . S
C926 C945 1.429 . S
C926 H950 0.950 . S
C927 C944 1.574 1_565 S
C927 C946 1.368 . S
C927 H951 0.949 . S
H928 C932 0.949 . S
C929 C930 1.349 . S
C929 C931 1.327 . S
C929 H952 0.950 . S
C930 C929 1.349 . S
C930 C942 1.349 . S
C931 C929 1.327 . S
C931 C947 1.429 . S
C931 H953 0.950 . S
C932 H928 0.949 . S
C932 C940 1.574 1_545 S
C932 C948 1.368 . S
H933 C941 0.950 . S
H934 C939 0.950 . S
H935 C940 0.949 . S
H936 C942 0.950 . S
H937 C943 0.950 . S
H938 C944 0.949 . S
C939 H934 0.950 . S
C939 C941 1.327 . S
C939 C945 1.429 . S
C940 C932 1.574 1_565 S
C940 H935 0.949 . S
C940 C946 1.368 . S
C941 C925 1.349 . S
C941 H933 0.950 . S
C941 C939 1.327 . S
C942 C930 1.349 . S
C942 H936 0.950 . S
C942 C943 1.327 . S
C943 H937 0.950 . S
C943 C942 1.327 . S
C943 C947 1.429 . S
C944 C927 1.574 1_545 S
C944 H938 0.949 . S
C944 C948 1.368 . S
C945 C926 1.429 . S
C945 C939 1.429 . S
C945 C946 1.523 . S
C946 C927 1.368 . S
C946 C940 1.368 . S
C946 C945 1.523 . S
C947 C931 1.429 . S
C947 C943 1.429 . S
C947 C948 1.523 . S
C948 C932 1.368 . S
C948 C944 1.368 . S
C948 C947 1.523 . S
H949 C924 0.950 . S
H950 C926 0.950 . S
H951 C927 0.949 . S
H952 C929 0.950 . S
H953 C931 0.950 . S
C954 C955 1.349 . S
C954 C956 1.327 . S
C954 H979 0.950 . S
C955 C954 1.349 . S
C955 C971 1.349 . S
C956 C954 1.327 . S
C956 C975 1.429 . S
C956 H980 0.950 . S
C957 C974 1.574 . S
C957 C976 1.370 . S
C957 H981 0.949 1_565 S
H958 C962 0.949 . S
C959 C960 1.349 . S
C959 C961 1.327 . S
C959 H982 0.950 . S
C960 C959 1.349 . S
C960 C972 1.349 . S
C961 C959 1.327 . S
C961 C977 1.429 . S
C961 H983 0.950 . S
C962 H958 0.949 . S
C962 C970 1.574 . S
C962 C978 1.368 . S
H963 C971 0.950 . S
H964 C969 0.950 . S
H965 C970 0.949 . S
H966 C972 0.950 . S
H967 C973 0.950 . S
H968 C974 0.949 . S
C969 H964 0.950 . S
C969 C971 1.327 . S
C969 C975 1.429 . S
C970 C962 1.574 . S
C970 H965 0.949 . S
C970 C976 1.381 . S
C971 C955 1.349 . S
C971 H963 0.950 . S
C971 C969 1.327 . S
C972 C960 1.349 . S
C972 H966 0.950 . S
C972 C973 1.327 . S
C973 H967 0.950 . S
C973 C972 1.327 . S
C973 C977 1.429 . S
C974 C957 1.574 . S
C974 H968 0.949 . S
C974 C978 1.368 . S
C975 C956 1.429 . S
C975 C969 1.429 . S
C975 C976 1.505 1_545 S
C976 C957 1.370 . S
C976 C970 1.381 . S
C976 C975 1.505 1_565 S
C977 C961 1.429 . S
C977 C973 1.429 . S
C977 C978 1.523 . S
C978 C962 1.368 . S
C978 C974 1.368 . S
C978 C977 1.523 . S
H979 C954 0.950 . S
H980 C956 0.950 . S
H981 C957 0.949 1_545 S
H982 C959 0.950 . S
H983 C961 0.950 . S
C984 C985 1.349 . S
C984 C986 1.327 . S
C984 H1009 0.950 . S
C985 C984 1.349 . S
C985 C1001 1.349 . S
C986 C984 1.327 . S
C986 C1005 1.429 . S
C986 H1010 0.950 . S
C987 C1004 1.574 . S
C987 C1006 1.368 . S
C987 H1011 0.949 . S
H988 C992 0.949 . S
C989 C990 1.349 . S
C989 C991 1.327 . S
C989 H1012 0.950 . S
C990 C989 1.349 . S
C990 C1002 1.349 . S
C991 C989 1.327 . S
C991 C1007 1.429 . S
C991 H1013 0.950 . S
C992 H988 0.949 . S
C992 C1000 1.574 . S
C992 C1008 1.368 . S
H993 C1001 0.950 . S
H994 C999 0.950 . S
H995 C1000 0.949 1_545 S
H996 C1002 0.950 . S
H997 C1003 0.950 . S
H998 C1004 0.949 . S
C999 H994 0.950 . S
C999 C1001 1.327 . S
C999 C1005 1.429 . S
C1000 C992 1.574 . S
C1000 H995 0.949 1_565 S
C1000 C1006 1.368 . S
C1001 C985 1.349 . S
C1001 H993 0.950 . S
C1001 C999 1.327 . S
C1002 C990 1.349 . S
C1002 H996 0.950 . S
C1002 C1003 1.327 . S
C1003 H997 0.950 . S
C1003 C1002 1.327 . S
C1003 C1007 1.429 . S
C1004 C987 1.574 . S
C1004 H998 0.949 . S
C1004 C1008 1.368 . S
C1005 C986 1.429 . S
C1005 C999 1.429 . S
C1005 C1006 1.523 1_545 S
C1006 C987 1.368 . S
C1006 C1000 1.368 . S
C1006 C1005 1.523 1_565 S
C1007 C991 1.429 . S
C1007 C1003 1.429 . S
C1007 C1008 1.523 . S
C1008 C992 1.368 . S
C1008 C1004 1.368 . S
C1008 C1007 1.523 . S
H1009 C984 0.950 . S
H1010 C986 0.950 . S
H1011 C987 0.949 . S
H1012 C989 0.950 . S
H1013 C991 0.950 . S
C1014 C1015 1.349 . S
C1014 C1016 1.327 . S
C1014 H1039 0.950 . S
C1015 C1014 1.349 . S
C1015 C1031 1.349 . S
C1016 C1014 1.327 . S
C1016 C1035 1.429 . S
C1016 H1040 0.950 . S
C1017 C1034 1.574 1_565 S
C1017 C1036 1.368 . S
C1017 H1041 0.949 . S
H1018 C1022 0.949 . S
C1019 C1020 1.349 . S
C1019 C1021 1.327 . S
C1019 H1042 0.950 . S
C1020 C1019 1.349 . S
C1020 C1032 1.349 . S
C1021 C1019 1.327 . S
C1021 C1037 1.429 . S
C1021 H1043 0.950 . S
C1022 H1018 0.949 . S
C1022 C1030 1.574 1_545 S
C1022 C1038 1.368 . S
H1023 C1031 0.950 . S
H1024 C1029 0.950 . S
H1025 C1030 0.949 . S
H1026 C1032 0.950 . S
H1027 C1033 0.950 . S
H1028 C1034 0.949 . S
C1029 H1024 0.950 . S
C1029 C1031 1.327 . S
C1029 C1035 1.429 . S
C1030 C1022 1.574 1_565 S
C1030 H1025 0.949 . S
C1030 C1036 1.368 . S
C1031 C1015 1.349 . S
C1031 H1023 0.950 . S
C1031 C1029 1.327 . S
C1032 C1020 1.349 . S
C1032 H1026 0.950 . S
C1032 C1033 1.327 . S
C1033 H1027 0.950 . S
C1033 C1032 1.327 . S
C1033 C1037 1.429 . S
C1034 C1017 1.574 1_545 S
C1034 H1028 0.949 . S
C1034 C1038 1.368 . S
C1035 C1016 1.429 . S
C1035 C1029 1.429 . S
C1035 C1036 1.523 . S
C1036 C1017 1.368 . S
C1036 C1030 1.368 . S
C1036 C1035 1.523 . S
C1037 C1021 1.429 . S
C1037 C1033 1.429 . S
C1037 C1038 1.523 . S
C1038 C1022 1.368 . S
C1038 C1034 1.368 . S
C1038 C1037 1.523 . S
H1039 C1014 0.950 . S
H1040 C1016 0.950 . S
H1041 C1017 0.949 . S
H1042 C1019 0.950 . S
H1043 C1021 0.950 . S
C1044 C1045 1.351 . S
C1044 C1046 1.324 1_554 S
C1044 H1069 0.951 . S
C1045 C1044 1.351 . S
C1045 C1061 1.349 . S
C1046 C1044 1.324 1_556 S
C1046 C1065 1.429 . S
C1046 H1070 0.950 . S
C1047 C1064 1.574 . S
C1047 C1066 1.368 . S
C1047 H1071 0.949 . S
H1048 C1052 0.949 . S
C1049 C1050 1.349 . S
C1049 C1051 1.327 . S
C1049 H1072 0.950 . S
C1050 C1049 1.349 . S
C1050 C1062 1.349 . S
C1051 C1049 1.327 . S
C1051 C1067 1.429 . S
C1051 H1073 0.950 . S
C1052 H1048 0.949 . S
C1052 C1060 1.574 . S
C1052 C1068 1.368 . S
H1053 C1061 0.950 . S
H1054 C1059 0.950 . S
H1055 C1060 0.949 . S
H1056 C1062 0.950 . S
H1057 C1063 0.950 . S
H1058 C1064 0.949 . S
C1059 H1054 0.950 . S
C1059 C1061 1.327 1_556 S
C1059 C1065 1.429 . S
C1060 C1052 1.574 . S
C1060 H1055 0.949 . S
C1060 C1066 1.368 . S
C1061 C1045 1.349 . S
C1061 H1053 0.950 . S
C1061 C1059 1.327 1_554 S
C1062 C1050 1.349 . S
C1062 H1056 0.950 . S
C1062 C1063 1.327 . S
C1063 H1057 0.950 . S
C1063 C1062 1.327 . S
C1063 C1067 1.429 . S
C1064 C1047 1.574 . S
C1064 H1058 0.949 . S
C1064 C1068 1.368 . S
C1065 C1046 1.429 . S
C1065 C1059 1.429 . S
C1065 C1066 1.523 . S
C1066 C1047 1.368 . S
C1066 C1060 1.368 . S
C1066 C1065 1.523 . S
C1067 C1051 1.429 . S
C1067 C1063 1.429 . S
C1067 C1068 1.523 . S
C1068 C1052 1.368 . S
C1068 C1064 1.368 . S
C1068 C1067 1.523 . S
H1069 C1044 0.951 . S
H1070 C1046 0.950 . S
H1071 C1047 0.949 . S
H1072 C1049 0.950 . S
H1073 C1051 0.950 . S
C1074 C1075 1.349 . S
C1074 C1076 1.327 . S
C1074 H1099 0.950 . S
C1075 C1074 1.349 . S
C1075 C1091 1.349 . S
C1076 C1074 1.327 . S
C1076 C1095 1.429 . S
C1076 H1100 0.950 . S
C1077 C1094 1.574 . S
C1077 C1096 1.368 . S
C1077 H1101 0.949 . S
H1078 C1082 0.949 . S
C1079 C1080 1.349 . S
C1079 C1081 1.327 . S
C1079 H1102 0.950 . S
C1080 C1079 1.349 . S
C1080 C1092 1.349 . S
C1081 C1079 1.327 . S
C1081 C1097 1.429 . S
C1081 H1103 0.950 . S
C1082 H1078 0.949 . S
C1082 C1090 1.574 . S
C1082 C1098 1.368 . S
H1083 C1091 0.950 . S
H1084 C1089 0.950 . S
H1085 C1090 0.949 . S
H1086 C1092 0.950 . S
H1087 C1093 0.950 . S
H1088 C1094 0.949 . S
C1089 H1084 0.950 . S
C1089 C1091 1.327 . S
C1089 C1095 1.429 . S
C1090 C1082 1.574 . S
C1090 H1085 0.949 . S
C1090 C1096 1.368 . S
C1091 C1075 1.349 . S
C1091 H1083 0.950 . S
C1091 C1089 1.327 . S
C1092 C1080 1.349 . S
C1092 H1086 0.950 . S
C1092 C1093 1.327 . S
C1093 H1087 0.950 . S
C1093 C1092 1.327 . S
C1093 C1097 1.429 . S
C1094 C1077 1.574 . S
C1094 H1088 0.949 . S
C1094 C1098 1.368 . S
C1095 C1076 1.429 . S
C1095 C1089 1.429 . S
C1095 C1096 1.523 . S
C1096 C1077 1.368 . S
C1096 C1090 1.368 . S
C1096 C1095 1.523 . S
C1097 C1081 1.429 . S
C1097 C1093 1.429 . S
C1097 C1098 1.523 . S
C1098 C1082 1.368 . S
C1098 C1094 1.368 . S
C1098 C1097 1.523 . S
H1099 C1074 0.950 . S
H1100 C1076 0.950 . S
H1101 C1077 0.949 . S
H1102 C1079 0.950 . S
H1103 C1081 0.950 . S
C1104 C1105 1.349 . S
C1104 C1106 1.327 . S
C1104 H1129 0.950 . S
C1105 C1104 1.349 . S
C1105 C1121 1.349 . S
C1106 C1104 1.327 . S
C1106 C1125 1.429 . S
C1106 H1130 0.950 . S
C1107 C1124 1.574 . S
C1107 C1126 1.368 . S
C1107 H1131 0.949 . S
H1108 C1112 0.949 . S
C1109 C1110 1.349 . S
C1109 C1111 1.327 . S
C1109 H1132 0.950 . S
C1110 C1109 1.349 . S
C1110 C1122 1.349 . S
C1111 C1109 1.327 . S
C1111 C1127 1.429 . S
C1111 H1133 0.950 . S
C1112 H1108 0.949 . S
C1112 C1120 1.574 . S
C1112 C1128 1.368 . S
H1113 C1121 0.950 . S
H1114 C1119 0.950 . S
H1115 C1120 0.949 . S
H1116 C1122 0.950 . S
H1117 C1123 0.950 . S
H1118 C1124 0.949 . S
C1119 H1114 0.950 . S
C1119 C1121 1.327 . S
C1119 C1125 1.429 . S
C1120 C1112 1.574 . S
C1120 H1115 0.949 . S
C1120 C1126 1.368 . S
C1121 C1105 1.349 . S
C1121 H1113 0.950 . S
C1121 C1119 1.327 . S
C1122 C1110 1.349 . S
C1122 H1116 0.950 . S
C1122 C1123 1.327 . S
C1123 H1117 0.950 . S
C1123 C1122 1.327 . S
C1123 C1127 1.429 . S
C1124 C1107 1.574 . S
C1124 H1118 0.949 . S
C1124 C1128 1.368 . S
C1125 C1106 1.429 . S
C1125 C1119 1.429 . S
C1125 C1126 1.523 . S
C1126 C1107 1.368 . S
C1126 C1120 1.368 . S
C1126 C1125 1.523 . S
C1127 C1111 1.429 . S
C1127 C1123 1.429 . S
C1127 C1128 1.523 . S
C1128 C1112 1.368 . S
C1128 C1124 1.368 . S
C1128 C1127 1.523 . S
H1129 C1104 0.950 . S
H1130 C1106 0.950 . S
H1131 C1107 0.949 . S
H1132 C1109 0.950 . S
H1133 C1111 0.950 . S
C1134 C1135 1.349 . S
C1134 C1136 1.327 . S
C1134 H1159 0.950 . S
C1135 C1134 1.349 . S
C1135 C1151 1.349 . S
C1136 C1134 1.327 . S
C1136 C1155 1.429 . S
C1136 H1160 0.950 . S
C1137 C1154 1.574 . S
C1137 C1156 1.368 . S
C1137 H1161 0.949 . S
H1138 C1142 0.949 . S
C1139 C1140 1.349 . S
C1139 C1141 1.327 . S
C1139 H1162 0.950 . S
C1140 C1139 1.349 . S
C1140 C1152 1.349 . S
C1141 C1139 1.327 . S
C1141 C1157 1.429 . S
C1141 H1163 0.950 . S
C1142 H1138 0.949 . S
C1142 C1150 1.574 . S
C1142 C1158 1.368 . S
H1143 C1151 0.950 . S
H1144 C1149 0.950 . S
H1145 C1150 0.949 . S
H1146 C1152 0.950 . S
H1147 C1153 0.950 . S
H1148 C1154 0.949 . S
C1149 H1144 0.950 . S
C1149 C1151 1.327 . S
C1149 C1155 1.429 . S
C1150 C1142 1.574 . S
C1150 H1145 0.949 . S
C1150 C1156 1.368 . S
C1151 C1135 1.349 . S
C1151 H1143 0.950 . S
C1151 C1149 1.327 . S
C1152 C1140 1.349 . S
C1152 H1146 0.950 . S
C1152 C1153 1.327 . S
C1153 H1147 0.950 . S
C1153 C1152 1.327 . S
C1153 C1157 1.429 . S
C1154 C1137 1.574 . S
C1154 H1148 0.949 . S
C1154 C1158 1.368 . S
C1155 C1136 1.429 . S
C1155 C1149 1.429 . S
C1155 C1156 1.523 . S
C1156 C1137 1.368 . S
C1156 C1150 1.368 . S
C1156 C1155 1.523 . S
C1157 C1141 1.429 . S
C1157 C1153 1.429 . S
C1157 C1158 1.523 . S
C1158 C1142 1.368 . S
C1158 C1154 1.368 . S
C1158 C1157 1.523 . S
H1159 C1134 0.950 . S
H1160 C1136 0.950 . S
H1161 C1137 0.949 . S
H1162 C1139 0.950 . S
H1163 C1141 0.950 . S
C1164 C1165 1.349 . S
C1164 C1166 1.327 1_556 S
C1164 H1189 0.950 . S
C1165 C1164 1.349 . S
C1165 C1181 1.349 . S
C1166 C1164 1.327 1_554 S
C1166 C1185 1.429 . S
C1166 H1190 0.950 . S
C1167 C1184 1.574 . S
C1167 C1186 1.368 . S
C1167 H1191 0.949 . S
H1168 C1172 0.949 . S
C1169 C1170 1.349 . S
C1169 C1171 1.327 . S
C1169 H1192 0.950 . S
C1170 C1169 1.349 . S
C1170 C1182 1.349 . S
C1171 C1169 1.327 . S
C1171 C1187 1.429 . S
C1171 H1193 0.950 . S
C1172 H1168 0.949 . S
C1172 C1180 1.574 . S
C1172 C1188 1.368 . S
H1173 C1181 0.950 . S
H1174 C1179 0.950 . S
H1175 C1180 0.949 . S
H1176 C1182 0.950 . S
H1177 C1183 0.950 . S
H1178 C1184 0.949 . S
C1179 H1174 0.950 . S
C1179 C1181 1.327 1_554 S
C1179 C1185 1.429 . S
C1180 C1172 1.574 . S
C1180 H1175 0.949 . S
C1180 C1186 1.368 . S
C1181 C1165 1.349 . S
C1181 H1173 0.950 . S
C1181 C1179 1.327 1_556 S
C1182 C1170 1.349 . S
C1182 H1176 0.950 . S
C1182 C1183 1.327 . S
C1183 H1177 0.950 . S
C1183 C1182 1.327 . S
C1183 C1187 1.429 . S
C1184 C1167 1.574 . S
C1184 H1178 0.949 . S
C1184 C1188 1.368 . S
C1185 C1166 1.429 . S
C1185 C1179 1.429 . S
C1185 C1186 1.523 . S
C1186 C1167 1.368 . S
C1186 C1180 1.368 . S
C1186 C1185 1.523 . S
C1187 C1171 1.429 . S
C1187 C1183 1.429 . S
C1187 C1188 1.523 . S
C1188 C1172 1.368 . S
C1188 C1184 1.368 . S
C1188 C1187 1.523 . S
H1189 C1164 0.950 . S
H1190 C1166 0.950 . S
H1191 C1167 0.949 . S
H1192 C1169 0.950 . S
H1193 C1171 0.950 . S
C1194 C1195 1.349 . S
C1194 C1196 1.327 . S
C1194 H1219 0.950 . S
C1195 C1194 1.349 . S
C1195 C1211 1.349 . S
C1196 C1194 1.327 . S
C1196 C1215 1.429 . S
C1196 H1220 0.950 . S
C1197 C1214 1.574 . S
C1197 C1216 1.368 . S
C1197 H1221 0.949 . S
H1198 C1202 0.949 . S
C1199 C1200 1.349 . S
C1199 C1201 1.327 . S
C1199 H1222 0.950 . S
C1200 C1199 1.349 . S
C1200 C1212 1.349 . S
C1201 C1199 1.327 . S
C1201 C1217 1.429 . S
C1201 H1223 0.950 . S
C1202 H1198 0.949 . S
C1202 C1210 1.574 . S
C1202 C1218 1.368 . S
H1203 C1211 0.950 . S
H1204 C1209 0.950 . S
H1205 C1210 0.949 . S
H1206 C1212 0.950 . S
H1207 C1213 0.950 . S
H1208 C1214 0.949 . S
C1209 H1204 0.950 . S
C1209 C1211 1.327 . S
C1209 C1215 1.429 . S
C1210 C1202 1.574 . S
C1210 H1205 0.949 . S
C1210 C1216 1.368 . S
C1211 C1195 1.349 . S
C1211 H1203 0.950 . S
C1211 C1209 1.327 . S
C1212 C1200 1.349 . S
C1212 H1206 0.950 . S
C1212 C1213 1.327 . S
C1213 H1207 0.950 . S
C1213 C1212 1.327 . S
C1213 C1217 1.429 . S
C1214 C1197 1.574 . S
C1214 H1208 0.949 . S
C1214 C1218 1.368 . S
C1215 C1196 1.429 . S
C1215 C1209 1.429 . S
C1215 C1216 1.523 . S
C1216 C1197 1.368 . S
C1216 C1210 1.368 . S
C1216 C1215 1.523 . S
C1217 C1201 1.429 . S
C1217 C1213 1.429 . S
C1217 C1218 1.523 . S
C1218 C1202 1.368 . S
C1218 C1214 1.368 . S
C1218 C1217 1.523 . S
H1219 C1194 0.950 . S
H1220 C1196 0.950 . S
H1221 C1197 0.949 . S
H1222 C1199 0.950 . S
H1223 C1201 0.950 . S
C1224 C1225 1.349 . S
C1224 C1226 1.327 . S
C1224 H1249 0.950 . S
C1225 C1224 1.349 . S
C1225 C1241 1.349 . S
C1226 C1224 1.327 . S
C1226 C1245 1.429 . S
C1226 H1250 0.950 . S
C1227 C1244 1.574 . S
C1227 C1246 1.368 . S
C1227 H1251 0.949 . S
H1228 C1232 0.949 . S
C1229 C1230 1.349 . S
C1229 C1231 1.327 . S
C1229 H1252 0.950 . S
C1230 C1229 1.349 . S
C1230 C1242 1.349 . S
C1231 C1229 1.327 . S
C1231 C1247 1.429 . S
C1231 H1253 0.950 . S
C1232 H1228 0.949 . S
C1232 C1240 1.574 . S
C1232 C1248 1.368 . S
H1233 C1241 0.950 . S
H1234 C1239 0.950 . S
H1235 C1240 0.949 . S
H1236 C1242 0.950 . S
H1237 C1243 0.950 . S
H1238 C1244 0.949 . S
C1239 H1234 0.950 . S
C1239 C1241 1.327 . S
C1239 C1245 1.429 . S
C1240 C1232 1.574 . S
C1240 H1235 0.949 . S
C1240 C1246 1.368 . S
C1241 C1225 1.349 . S
C1241 H1233 0.950 . S
C1241 C1239 1.327 . S
C1242 C1230 1.349 . S
C1242 H1236 0.950 . S
C1242 C1243 1.327 . S
C1243 H1237 0.950 . S
C1243 C1242 1.327 . S
C1243 C1247 1.429 . S
C1244 C1227 1.574 . S
C1244 H1238 0.949 . S
C1244 C1248 1.368 . S
C1245 C1226 1.429 . S
C1245 C1239 1.429 . S
C1245 C1246 1.523 . S
C1246 C1227 1.368 . S
C1246 C1240 1.368 . S
C1246 C1245 1.523 . S
C1247 C1231 1.429 . S
C1247 C1243 1.429 . S
C1247 C1248 1.523 . S
C1248 C1232 1.368 . S
C1248 C1244 1.368 . S
C1248 C1247 1.523 . S
H1249 C1224 0.950 . S
H1250 C1226 0.950 . S
H1251 C1227 0.949 . S
H1252 C1229 0.950 . S
H1253 C1231 0.950 . S
C1254 C1255 1.349 . S
C1254 C1256 1.327 . S
C1254 H1279 0.950 . S
C1255 C1254 1.349 . S
C1255 C1271 1.349 . S
C1256 C1254 1.327 . S
C1256 C1275 1.429 . S
C1256 H1280 0.950 . S
C1257 C1274 1.574 . S
C1257 C1276 1.368 . S
C1257 H1281 0.949 . S
H1258 C1262 0.949 . S
C1259 C1260 1.349 . S
C1259 C1261 1.327 . S
C1259 H1282 0.950 . S
C1260 C1259 1.349 . S
C1260 C1272 1.349 . S
C1261 C1259 1.327 . S
C1261 C1277 1.429 . S
C1261 H1283 0.950 . S
C1262 H1258 0.949 . S
C1262 C1270 1.574 . S
C1262 C1278 1.368 . S
H1263 C1271 0.950 . S
H1264 C1269 0.950 . S
H1265 C1270 0.949 . S
H1266 C1272 0.950 . S
H1267 C1273 0.950 . S
H1268 C1274 0.949 . S
C1269 H1264 0.950 . S
C1269 C1271 1.327 . S
C1269 C1275 1.429 . S
C1270 C1262 1.574 . S
C1270 H1265 0.949 . S
C1270 C1276 1.368 . S
C1271 C1255 1.349 . S
C1271 H1263 0.950 . S
C1271 C1269 1.327 . S
C1272 C1260 1.349 . S
C1272 H1266 0.950 . S
C1272 C1273 1.327 . S
C1273 H1267 0.950 . S
C1273 C1272 1.327 . S
C1273 C1277 1.429 . S
C1274 C1257 1.574 . S
C1274 H1268 0.949 . S
C1274 C1278 1.368 . S
C1275 C1256 1.429 . S
C1275 C1269 1.429 . S
C1275 C1276 1.523 . S
C1276 C1257 1.368 . S
C1276 C1270 1.368 . S
C1276 C1275 1.523 . S
C1277 C1261 1.429 . S
C1277 C1273 1.429 . S
C1277 C1278 1.523 . S
C1278 C1262 1.368 . S
C1278 C1274 1.368 . S
C1278 C1277 1.523 . S
H1279 C1254 0.950 . S
H1280 C1256 0.950 . S
H1281 C1257 0.949 . S
H1282 C1259 0.950 . S
H1283 C1261 0.950 . S
C570 C487 1.515 . S
C565 C31 1.638 . S
C600 C505 1.266 . S
C595 C91 1.352 1_655 S
C625 C121 1.272 . S
C630 C529 1.241 . S
C660 C559 1.271 . S
C655 C181 1.347 . S
C690 C547 1.254 . S
C685 C271 1.371 . S
C715 C301 1.314 . S
C720 C500 1.284 . S
C745 C361 1.578 . S
C750 C520 1.502 . S
C775 C451 1.425 1_655 S
C780 C525 1.269 . S
C805 C421 1.304 . S
C810 C541 1.272 . S
C835 C331 1.426 . S
C840 C496 1.267 . S
C870 C563 1.271 . S
C865 C211 1.351 . S
C900 C508 1.269 . S
C895 C61 1.352 . S
C925 C151 1.632 . S
C930 C526 1.509 . S
C955 C1 1.285 . S
C960 C484 1.254 . S
C990 C504 1.242 . S
C985 C391 1.352 . S
C1020 C550 1.514 . S
C1015 C241 1.600 . S
C1050 C546 1.319 . S
C1045 C20 1.449 . S
C1080 C499 1.318 . S
C1075 C80 1.391 . S
C1105 C140 1.429 . S
C1110 C521 1.296 . S
C1135 C200 1.416 . S
C1140 C542 1.340 . S
C1170 C483 1.319 . S
C1165 C260 1.475 . S
C1195 C320 1.444 . S
C1200 C517 1.366 . S
C1230 C538 1.336 . S
C1225 C380 1.493 . S
C1260 C562 1.340 . S
C1255 C440 1.419 . S
