# Generated by pormake.
# Topology eea, (3,6)-cn, num edge types: 1
# Building blocks:
#     Node 0, Type 0, BuildingBlock: CUQRIR_clean_linker_1, # of connection points: 3
#     Node 1, Type 0, BuildingBlock: CUQRIR_clean_linker_1, # of connection points: 3
#     Node 2, Type 0, BuildingBlock: CUQRIR_clean_linker_1, # of connection points: 3
#     Node 3, Type 0, BuildingBlock: CUQRIR_clean_linker_1, # of connection points: 3
#     Node 4, Type 0, BuildingBlock: CUQRIR_clean_linker_1, # of connection points: 3
#     Node 5, Type 0, BuildingBlock: CUQRIR_clean_linker_1, # of connection points: 3
#     Node 6, Type 0, BuildingBlock: CUQRIR_clean_linker_1, # of connection points: 3
#     Node 7, Type 0, BuildingBlock: CUQRIR_clean_linker_1, # of connection points: 3
#     Node 8, Type 0, BuildingBlock: CUQRIR_clean_linker_1, # of connection points: 3
#     Node 9, Type 0, BuildingBlock: CUQRIR_clean_linker_1, # of connection points: 3
#     Node 10, Type 0, BuildingBlock: CUQRIR_clean_linker_1, # of connection points: 3
#     Node 11, Type 0, BuildingBlock: CUQRIR_clean_linker_1, # of connection points: 3
#     Node 12, Type 0, BuildingBlock: CUQRIR_clean_linker_1, # of connection points: 3
#     Node 13, Type 0, BuildingBlock: CUQRIR_clean_linker_1, # of connection points: 3
#     Node 14, Type 0, BuildingBlock: CUQRIR_clean_linker_1, # of connection points: 3
#     Node 15, Type 0, BuildingBlock: CUQRIR_clean_linker_1, # of connection points: 3
#     Node 16, Type 0, BuildingBlock: CUQRIR_clean_linker_1, # of connection points: 3
#     Node 17, Type 0, BuildingBlock: CUQRIR_clean_linker_1, # of connection points: 3
#     Node 18, Type 1, BuildingBlock: LEVNOQ01_clean_sbu_1, # of connection points: 6
#     Node 19, Type 1, BuildingBlock: LEVNOQ01_clean_sbu_1, # of connection points: 6
#     Node 20, Type 1, BuildingBlock: LEVNOQ01_clean_sbu_1, # of connection points: 6
#     Node 21, Type 1, BuildingBlock: LEVNOQ01_clean_sbu_1, # of connection points: 6
#     Node 22, Type 1, BuildingBlock: LEVNOQ01_clean_sbu_1, # of connection points: 6
#     Node 23, Type 1, BuildingBlock: LEVNOQ01_clean_sbu_1, # of connection points: 6
#     Node 24, Type 1, BuildingBlock: LEVNOQ01_clean_sbu_1, # of connection points: 6
#     Node 25, Type 1, BuildingBlock: LEVNOQ01_clean_sbu_1, # of connection points: 6
#     Node 26, Type 1, BuildingBlock: LEVNOQ01_clean_sbu_1, # of connection points: 6
#     Edge 27, Type (0, 1), BuildingBlock: ZUJKAS_clean_linker_0, # of connection points: 2
#     Edge 28, Type (0, 1), BuildingBlock: ZUJKAS_clean_linker_0, # of connection points: 2
#     Edge 29, Type (0, 1), BuildingBlock: ZUJKAS_clean_linker_0, # of connection points: 2
#     Edge 30, Type (0, 1), BuildingBlock: ZUJKAS_clean_linker_0, # of connection points: 2
#     Edge 31, Type (0, 1), BuildingBlock: ZUJKAS_clean_linker_0, # of connection points: 2
#     Edge 32, Type (0, 1), BuildingBlock: ZUJKAS_clean_linker_0, # of connection points: 2
#     Edge 33, Type (0, 1), BuildingBlock: ZUJKAS_clean_linker_0, # of connection points: 2
#     Edge 34, Type (0, 1), BuildingBlock: ZUJKAS_clean_linker_0, # of connection points: 2
#     Edge 35, Type (0, 1), BuildingBlock: ZUJKAS_clean_linker_0, # of connection points: 2
#     Edge 36, Type (0, 1), BuildingBlock: ZUJKAS_clean_linker_0, # of connection points: 2
#     Edge 37, Type (0, 1), BuildingBlock: ZUJKAS_clean_linker_0, # of connection points: 2
#     Edge 38, Type (0, 1), BuildingBlock: ZUJKAS_clean_linker_0, # of connection points: 2
#     Edge 39, Type (0, 1), BuildingBlock: ZUJKAS_clean_linker_0, # of connection points: 2
#     Edge 40, Type (0, 1), BuildingBlock: ZUJKAS_clean_linker_0, # of connection points: 2
#     Edge 41, Type (0, 1), BuildingBlock: ZUJKAS_clean_linker_0, # of connection points: 2
#     Edge 42, Type (0, 1), BuildingBlock: ZUJKAS_clean_linker_0, # of connection points: 2
#     Edge 43, Type (0, 1), BuildingBlock: ZUJKAS_clean_linker_0, # of connection points: 2
#     Edge 44, Type (0, 1), BuildingBlock: ZUJKAS_clean_linker_0, # of connection points: 2
#     Edge 45, Type (0, 1), BuildingBlock: ZUJKAS_clean_linker_0, # of connection points: 2
#     Edge 46, Type (0, 1), BuildingBlock: ZUJKAS_clean_linker_0, # of connection points: 2
#     Edge 47, Type (0, 1), BuildingBlock: ZUJKAS_clean_linker_0, # of connection points: 2
#     Edge 48, Type (0, 1), BuildingBlock: ZUJKAS_clean_linker_0, # of connection points: 2
#     Edge 49, Type (0, 1), BuildingBlock: ZUJKAS_clean_linker_0, # of connection points: 2
#     Edge 50, Type (0, 1), BuildingBlock: ZUJKAS_clean_linker_0, # of connection points: 2
#     Edge 51, Type (0, 1), BuildingBlock: ZUJKAS_clean_linker_0, # of connection points: 2
#     Edge 52, Type (0, 1), BuildingBlock: ZUJKAS_clean_linker_0, # of connection points: 2
#     Edge 53, Type (0, 1), BuildingBlock: ZUJKAS_clean_linker_0, # of connection points: 2
#     Edge 54, Type (0, 1), BuildingBlock: ZUJKAS_clean_linker_0, # of connection points: 2
#     Edge 55, Type (0, 1), BuildingBlock: ZUJKAS_clean_linker_0, # of connection points: 2
#     Edge 56, Type (0, 1), BuildingBlock: ZUJKAS_clean_linker_0, # of connection points: 2
#     Edge 57, Type (0, 1), BuildingBlock: ZUJKAS_clean_linker_0, # of connection points: 2
#     Edge 58, Type (0, 1), BuildingBlock: ZUJKAS_clean_linker_0, # of connection points: 2
#     Edge 59, Type (0, 1), BuildingBlock: ZUJKAS_clean_linker_0, # of connection points: 2
#     Edge 60, Type (0, 1), BuildingBlock: ZUJKAS_clean_linker_0, # of connection points: 2
#     Edge 61, Type (0, 1), BuildingBlock: ZUJKAS_clean_linker_0, # of connection points: 2
#     Edge 62, Type (0, 1), BuildingBlock: ZUJKAS_clean_linker_0, # of connection points: 2
#     Edge 63, Type (0, 1), BuildingBlock: ZUJKAS_clean_linker_0, # of connection points: 2
#     Edge 64, Type (0, 1), BuildingBlock: ZUJKAS_clean_linker_0, # of connection points: 2
#     Edge 65, Type (0, 1), BuildingBlock: ZUJKAS_clean_linker_0, # of connection points: 2
#     Edge 66, Type (0, 1), BuildingBlock: ZUJKAS_clean_linker_0, # of connection points: 2
#     Edge 67, Type (0, 1), BuildingBlock: ZUJKAS_clean_linker_0, # of connection points: 2
#     Edge 68, Type (0, 1), BuildingBlock: ZUJKAS_clean_linker_0, # of connection points: 2
#     Edge 69, Type (0, 1), BuildingBlock: ZUJKAS_clean_linker_0, # of connection points: 2
#     Edge 70, Type (0, 1), BuildingBlock: ZUJKAS_clean_linker_0, # of connection points: 2
#     Edge 71, Type (0, 1), BuildingBlock: ZUJKAS_clean_linker_0, # of connection points: 2
#     Edge 72, Type (0, 1), BuildingBlock: ZUJKAS_clean_linker_0, # of connection points: 2
#     Edge 73, Type (0, 1), BuildingBlock: ZUJKAS_clean_linker_0, # of connection points: 2
#     Edge 74, Type (0, 1), BuildingBlock: ZUJKAS_clean_linker_0, # of connection points: 2
#     Edge 75, Type (0, 1), BuildingBlock: ZUJKAS_clean_linker_0, # of connection points: 2
#     Edge 76, Type (0, 1), BuildingBlock: ZUJKAS_clean_linker_0, # of connection points: 2
#     Edge 77, Type (0, 1), BuildingBlock: ZUJKAS_clean_linker_0, # of connection points: 2
#     Edge 78, Type (0, 1), BuildingBlock: ZUJKAS_clean_linker_0, # of connection points: 2
#     Edge 79, Type (0, 1), BuildingBlock: ZUJKAS_clean_linker_0, # of connection points: 2
#     Edge 80, Type (0, 1), BuildingBlock: ZUJKAS_clean_linker_0, # of connection points: 2
# Relax obj value: 0.107
# Max RMSD: 0.165
# Mean RMSD: 0.139
data_MOF--net-eea--node1-LEVNOQ01_clean_sbu_1--node2-CUQRIR_clean_linker_1--edge1-ZUJKAS_clean_linker_0
_symmetry_space_group_name_H-M    P1
_symmetry_Int_Tables_number       1
_symmetry_cell_setting            triclinic
loop_
_symmetry_equiv_pos_as_xyz
'x, y, z'
_cell_length_a     69.574751
_cell_length_b     70.370681
_cell_length_c     57.31744
_cell_angle_alpha  82.947266
_cell_angle_beta   90.217293
_cell_angle_gamma 119.39051
loop_
_atom_site_label
_atom_site_type_symbol
_atom_site_fract_x
_atom_site_fract_y
_atom_site_fract_z
_atom_type_partial_charge
C0 C 0.24871 0.11794 0.35929 0.0
N1 N 0.25193 0.13226 0.37477 0.0
N2 N 0.25279 0.10181 0.36887 0.0
C3 C 0.24333 0.1204 0.33403 0.0
C4 C 0.25923 0.10703 0.39052 0.0
N5 N 0.2589 0.1255 0.39403 0.0
C6 C 0.2635 0.09265 0.40912 0.0
H7 H 0.22531 0.11007 0.33246 0.0
H8 H 0.25183 0.11455 0.32289 0.0
H9 H 0.24847 0.13782 0.32738 0.0
H10 H 0.27854 0.0923 0.40348 0.0
H11 H 0.24948 0.07552 0.41098 0.0
H12 H 0.26589 0.09853 0.42654 0.0
C13 C 0.88477 0.12965 0.36955 0.0
N14 N 0.89432 0.14394 0.38546 0.0
N15 N 0.86404 0.11374 0.37761 0.0
C16 C 0.89607 0.1306 0.34668 0.0
C17 C 0.86134 0.11877 0.39895 0.0
N18 N 0.87971 0.13695 0.40382 0.0
C19 C 0.84101 0.10514 0.41555 0.0
H20 H 0.88581 0.11648 0.33721 0.0
H21 H 0.91209 0.13128 0.35013 0.0
H22 H 0.8995 0.14566 0.33472 0.0
H23 H 0.83547 0.08736 0.41612 0.0
H24 H 0.82748 0.10794 0.40894 0.0
H25 H 0.84369 0.1094 0.43368 0.0
C26 C 0.87803 0.77476 0.35151 0.0
N27 N 0.88788 0.7704 0.37016 0.0
N28 N 0.85687 0.7688 0.35749 0.0
C29 C 0.88924 0.78627 0.32757 0.0
C30 C 0.85385 0.75948 0.38025 0.0
N31 N 0.8726 0.76036 0.38789 0.0
C32 C 0.83414 0.75378 0.39629 0.0
H33 H 0.89475 0.80408 0.3264 0.0
H34 H 0.87733 0.77962 0.31382 0.0
H35 H 0.90373 0.78415 0.32418 0.0
H36 H 0.81924 0.74937 0.38617 0.0
H37 H 0.83766 0.76828 0.40504 0.0
H38 H 0.83088 0.7399 0.41016 0.0
C39 C 0.10623 0.22757 0.68182 0.0
N40 N 0.12232 0.23648 0.66428 0.0
N41 N 0.08948 0.23132 0.6758 0.0
C42 C 0.10512 0.21205 0.70295 0.0
C43 C 0.09596 0.2428 0.65389 0.0
N44 N 0.11589 0.24591 0.64689 0.0
C45 C 0.08132 0.24788 0.63804 0.0
H46 H 0.09883 0.19542 0.69776 0.0
H47 H 0.0938 0.21099 0.71726 0.0
H48 H 0.12183 0.2175 0.70946 0.0
H49 H 0.06882 0.2493 0.64853 0.0
H50 H 0.07258 0.23431 0.6273 0.0
H51 H 0.09133 0.26337 0.62587 0.0
C52 C 0.75663 0.87954 0.66478 0.0
N53 N 0.74972 0.86477 0.64928 0.0
N54 N 0.74948 0.89419 0.6595 0.0
C55 C 0.77236 0.88127 0.68351 0.0
C56 C 0.73792 0.88777 0.64022 0.0
N57 N 0.73795 0.86984 0.63403 0.0
C58 C 0.72946 0.90097 0.62542 0.0
H59 H 0.76751 0.88564 0.69959 0.0
H60 H 0.78921 0.89467 0.67711 0.0
H61 H 0.77274 0.86566 0.68794 0.0
H62 H 0.74017 0.90901 0.6089 0.0
H63 H 0.72934 0.91377 0.63485 0.0
H64 H 0.71245 0.88997 0.62053 0.0
C65 C 0.13475 0.8898 0.67669 0.0
N66 N 0.12428 0.87404 0.66241 0.0
N67 N 0.15391 0.9066 0.66598 0.0
C68 C 0.1276 0.88807 0.70196 0.0
C69 C 0.15506 0.90054 0.64482 0.0
N70 N 0.13739 0.8807 0.64277 0.0
C71 C 0.17216 0.91516 0.62508 0.0
H72 H 0.11877 0.89748 0.70306 0.0
H73 H 0.14232 0.89543 0.7125 0.0
H74 H 0.11658 0.87065 0.70961 0.0
H75 H 0.18714 0.91352 0.62749 0.0
H76 H 0.17697 0.93268 0.62526 0.0
H77 H 0.16602 0.91058 0.6076 0.0
C78 C 0.91379 0.451 0.69069 0.0
N79 N 0.91929 0.46647 0.70524 0.0
N80 N 0.9201 0.43615 0.69895 0.0
C81 C 0.90259 0.45042 0.6681 0.0
C82 C 0.93008 0.44342 0.71885 0.0
N83 N 0.92975 0.46188 0.72256 0.0
C84 C 0.93689 0.43043 0.73649 0.0
H85 H 0.88441 0.44041 0.67165 0.0
H86 H 0.90764 0.4427 0.65543 0.0
H87 H 0.90676 0.4673 0.66016 0.0
H88 H 0.94989 0.42827 0.72809 0.0
H89 H 0.92251 0.4138 0.74198 0.0
H90 H 0.94335 0.43853 0.75237 0.0
C91 C 0.5509 0.45468 0.7058 0.0
N92 N 0.56056 0.47146 0.71894 0.0
N93 N 0.5289 0.44253 0.71142 0.0
C94 C 0.56325 0.44826 0.68981 0.0
C95 C 0.52545 0.45243 0.72841 0.0
N96 N 0.5446 0.46988 0.73323 0.0
C97 C 0.50352 0.444 0.74169 0.0
H98 H 0.56296 0.45501 0.67135 0.0
H99 H 0.55522 0.43009 0.69087 0.0
H100 H 0.58067 0.45475 0.69437 0.0
H101 H 0.50318 0.43468 0.75891 0.0
H102 H 0.48962 0.43303 0.73168 0.0
H103 H 0.50125 0.45796 0.7452 0.0
C104 C 0.54504 0.11117 0.69019 0.0
N105 N 0.55571 0.10611 0.70747 0.0
N106 N 0.5238 0.10384 0.69734 0.0
C107 C 0.55564 0.1251 0.66691 0.0
C108 C 0.52165 0.09293 0.71917 0.0
N109 N 0.54104 0.09447 0.72544 0.0
C110 C 0.50178 0.08457 0.73605 0.0
H111 H 0.56064 0.14249 0.66826 0.0
H112 H 0.54353 0.11965 0.65313 0.0
H113 H 0.57038 0.12404 0.66165 0.0
H114 H 0.4867 0.08043 0.72632 0.0
H115 H 0.50444 0.09754 0.74696 0.0
H116 H 0.49943 0.06983 0.74801 0.0
C117 C 0.77419 0.56389 0.01597 0.0
N118 N 0.78967 0.57201 0.99786 0.0
N119 N 0.75745 0.56777 0.01037 0.0
C120 C 0.77341 0.54871 0.03727 0.0
C121 C 0.76333 0.57855 0.98813 0.0
N122 N 0.78286 0.58106 0.98052 0.0
C123 C 0.7483 0.58334 0.97261 0.0
H124 H 0.76631 0.53179 0.03262 0.0
H125 H 0.76286 0.54845 0.05192 0.0
H126 H 0.79032 0.55389 0.04303 0.0
H127 H 0.73706 0.58638 0.98328 0.0
H128 H 0.7381 0.56886 0.96351 0.0
H129 H 0.75808 0.5978 0.95906 0.0
C130 C 0.42049 0.20805 0.0009 0.0
N131 N 0.41574 0.1949 0.98389 0.0
N132 N 0.4128 0.22234 0.99607 0.0
C133 C 0.433 0.20735 0.02212 0.0
C134 C 0.40299 0.21724 0.97558 0.0
N135 N 0.40468 0.20053 0.96822 0.0
C136 C 0.39484 0.23086 0.96099 0.0
H137 H 0.42966 0.19031 0.02791 0.0
H138 H 0.42835 0.21356 0.03678 0.0
H139 H 0.45099 0.21802 0.01755 0.0
H140 H 0.40927 0.24675 0.95331 0.0
H141 H 0.3845 0.23456 0.97222 0.0
H142 H 0.38499 0.22236 0.94653 0.0
C143 C 0.79926 0.21953 0.01088 0.0
N144 N 0.78858 0.20442 0.99605 0.0
N145 N 0.81997 0.23454 0.00195 0.0
C146 C 0.79012 0.21941 0.03465 0.0
C147 C 0.82177 0.22786 0.98135 0.0
N148 N 0.80285 0.20956 0.97781 0.0
C149 C 0.84098 0.24105 0.9633 0.0
H150 H 0.78234 0.22996 0.03289 0.0
H151 H 0.80367 0.22634 0.04673 0.0
H152 H 0.7776 0.20246 0.04239 0.0
H153 H 0.85657 0.24423 0.97146 0.0
H154 H 0.84219 0.25725 0.95739 0.0
H155 H 0.83944 0.23258 0.94775 0.0
C156 C 0.57873 0.78451 0.02786 0.0
N157 N 0.58644 0.80091 0.0414 0.0
N158 N 0.58775 0.77142 0.0333 0.0
C159 C 0.55988 0.77911 0.01211 0.0
C160 C 0.60168 0.78099 0.05011 0.0
N161 N 0.6005 0.79854 0.05554 0.0
C162 C 0.61516 0.77207 0.06284 0.0
H163 H 0.54621 0.76216 0.01804 0.0
H164 H 0.56556 0.77951 0.9939 0.0
H165 H 0.55345 0.79075 0.01191 0.0
H166 H 0.61771 0.76114 0.05235 0.0
H167 H 0.60656 0.76261 0.08009 0.0
H168 H 0.63141 0.78589 0.06637 0.0
C169 C 0.21845 0.79296 0.04086 0.0
N170 N 0.22716 0.80912 0.05481 0.0
N171 N 0.1973 0.77797 0.04839 0.0
C172 C 0.23128 0.79061 0.0214 0.0
C173 C 0.19341 0.78564 0.0673 0.0
N174 N 0.21149 0.80446 0.07132 0.0
C175 C 0.17225 0.77405 0.08272 0.0
H176 H 0.23053 0.8001 0.00481 0.0
H177 H 0.22424 0.77316 0.01863 0.0
H178 H 0.24889 0.79728 0.02532 0.0
H179 H 0.17448 0.76486 0.09869 0.0
H180 H 0.1583 0.76233 0.07333 0.0
H181 H 0.16814 0.78617 0.08852 0.0
C182 C 0.21316 0.44688 0.02068 0.0
N183 N 0.22216 0.44133 0.03941 0.0
N184 N 0.19161 0.44003 0.02567 0.0
C185 C 0.22535 0.46 0.99762 0.0
C186 C 0.18755 0.42909 0.04779 0.0
N187 N 0.20604 0.42988 0.05614 0.0
C188 C 0.16668 0.42141 0.06279 0.0
H189 H 0.23127 0.47771 0.99822 0.0
H190 H 0.214 0.45491 0.98313 0.0
H191 H 0.23966 0.4577 0.99388 0.0
H192 H 0.15254 0.41797 0.05166 0.0
H193 H 0.16904 0.43448 0.07341 0.0
H194 H 0.1629 0.40637 0.07509 0.0
C195 C 0.43838 0.9006 0.34934 0.0
N196 N 0.45413 0.90622 0.33208 0.0
N197 N 0.42228 0.90471 0.34124 0.0
C198 C 0.4366 0.88745 0.37282 0.0
C199 C 0.42934 0.91377 0.31857 0.0
N200 N 0.44838 0.91423 0.31284 0.0
C201 C 0.41601 0.91954 0.30131 0.0
H202 H 0.4336 0.87089 0.37007 0.0
H203 H 0.42297 0.88564 0.38454 0.0
H204 H 0.45235 0.89566 0.38153 0.0
H205 H 0.40757 0.92693 0.31003 0.0
H206 H 0.40313 0.90431 0.29503 0.0
H207 H 0.42664 0.93129 0.28594 0.0
C208 C 0.09046 0.54604 0.33278 0.0
N209 N 0.08442 0.53219 0.31631 0.0
N210 N 0.08087 0.55881 0.32984 0.0
C211 C 0.10764 0.54883 0.35014 0.0
C212 C 0.06849 0.55185 0.31125 0.0
N213 N 0.07116 0.53626 0.30235 0.0
C214 C 0.05446 0.56132 0.30117 0.0
H215 H 0.09923 0.53786 0.3668 0.0
H216 H 0.11678 0.566 0.35418 0.0
H217 H 0.11954 0.54427 0.34341 0.0
H218 H 0.06494 0.57692 0.28936 0.0
H219 H 0.04694 0.56521 0.3156 0.0
H220 H 0.04123 0.54961 0.29104 0.0
C221 C 0.46713 0.55441 0.3394 0.0
N222 N 0.45679 0.53783 0.32614 0.0
N223 N 0.48788 0.56884 0.3303 0.0
C224 C 0.45721 0.55693 0.36129 0.0
C225 C 0.49016 0.56018 0.3114 0.0
N226 N 0.47141 0.54127 0.30892 0.0
C227 C 0.50979 0.5717 0.29368 0.0
H228 H 0.45065 0.56835 0.35662 0.0
H229 H 0.47009 0.56425 0.37397 0.0
H230 H 0.4437 0.54084 0.3699 0.0
H231 H 0.51772 0.56141 0.29303 0.0
H232 H 0.52245 0.58791 0.29821 0.0
H233 H 0.50423 0.57394 0.27589 0.0
O234 O 0.50151 0.99217 0.96266 0.0
Mg235 Mg 0.52471 0.99679 0.98788 0.0
O236 O 0.50939 0.02046 0.97997 0.0
Mg237 Mg 0.50823 0.00333 0.01887 0.0
O238 O 0.51626 0.97333 0.01608 0.0
O239 O 0.53391 0.97485 0.98257 0.0
O240 O 0.50674 0.98657 0.05769 0.0
O241 O 0.47109 0.9779 0.01647 0.0
Mg242 Mg 0.4913 0.01143 0.0526 0.0
O243 O 0.49976 0.0323 0.0217 0.0
O244 O 0.51575 0.01452 0.07626 0.0
O245 O 0.46165 0.98019 0.05222 0.0
O246 O 0.48454 0.03611 0.05411 0.0
C247 C 0.56022 0.03611 0.00514 0.0
C248 C 0.50361 0.01101 0.96166 0.0
C249 C 0.52518 0.96514 0.00335 0.0
C250 C 0.5136 0.99572 0.07607 0.0
C251 C 0.45677 0.97075 0.03383 0.0
C252 C 0.49215 0.04279 0.03244 0.0
O253 O 0.5552 0.02694 0.98668 0.0
O254 O 0.54551 0.02916 0.02204 0.0
O255 O 0.99265 0.54104 0.95177 0.0
Mg256 Mg -0.0032 0.55235 0.98463 0.0
O257 O 0.99219 0.51093 0.96868 0.0
Mg258 Mg -0.00031 0.51464 0.0084 0.0
O259 O 0.02277 0.55331 0.00229 0.0
O260 O 0.02192 0.58306 0.9839 0.0
O261 O 0.00806 0.51933 0.04965 0.0
O262 O 0.03259 0.51637 0.99868 0.0
Mg263 Mg -0.00091 0.4845 0.03627 0.0
O264 O 0.97743 0.47549 0.01049 0.0
O265 O 0.98531 0.48622 0.06721 0.0
O266 O 0.03416 0.50102 0.0335 0.0
O267 O 0.98799 0.45312 0.03099 0.0
C268 C 0.95813 0.52571 0.01635 0.0
C269 C 0.99067 0.52237 0.95046 0.0
C270 C 0.03212 0.57458 0.99622 0.0
C271 C -0.00122 0.5061 0.06875 0.0
C272 C 0.04369 0.51237 0.01405 0.0
C273 C 0.97546 0.45608 0.01611 0.0
O274 O 0.96911 0.5451 0.00575 0.0
O275 O 0.96582 0.51254 0.01735 0.0
O276 O 0.49795 0.48288 0.08003 0.0
Mg277 Mg 0.47345 0.46562 0.05662 0.0
O278 O 0.48715 0.50346 0.05954 0.0
Mg279 Mg 0.4896 0.49355 0.02164 0.0
O280 O 0.48042 0.4558 0.0276 0.0
O281 O 0.46473 0.43361 0.06193 0.0
O282 O 0.49179 0.48586 0.98155 0.0
O283 O 0.524 0.49986 0.02956 0.0
Mg284 Mg 0.51375 0.52389 0.98958 0.0
O285 O 0.49957 0.53096 0.01612 0.0
O286 O 0.49474 0.51538 0.9606 0.0
O287 O 0.53761 0.513 0.99332 0.0
O288 O 0.52875 0.5563 0.99193 0.0
C289 C 0.44022 0.47722 0.03493 0.0
C290 C 0.49452 0.49895 0.0785 0.0
C291 C 0.47235 0.43669 0.04053 0.0
C292 C 0.49126 0.49596 0.96153 0.0
C293 C 0.53886 0.50479 0.01373 0.0
C294 C 0.51399 0.5513 0.00857 0.0
O295 O 0.44492 0.4696 0.054 0.0
O296 O 0.45408 0.48555 0.01713 0.0
O297 O 0.20476 0.3478 0.30006 0.0
Mg298 Mg 0.20732 0.33415 0.33347 0.0
O299 O 0.17401 0.34596 0.31246 0.0
Mg300 Mg 0.17493 0.33724 0.35267 0.0
O301 O 0.18159 0.30649 0.35121 0.0
O302 O 0.20881 0.30735 0.32895 0.0
O303 O 0.17705 0.32661 0.39322 0.0
O304 O 0.13843 0.30942 0.35243 0.0
Mg305 Mg 0.15606 0.34568 0.38317 0.0
O306 O 0.16511 0.36633 0.35193 0.0
O307 O 0.17901 0.35391 0.40903 0.0
O308 O 0.12773 0.31342 0.38649 0.0
O309 O 0.14533 0.36738 0.38227 0.0
C310 C 0.23103 0.36942 0.35523 0.0
C311 C 0.18822 0.3502 0.29589 0.0
C312 C 0.19146 0.29661 0.3432 0.0
C313 C 0.18124 0.33715 0.41081 0.0
C314 C 0.12383 0.30251 0.36938 0.0
C315 C 0.15514 0.37538 0.36156 0.0
O316 O 0.23366 0.3534 0.35243 0.0
O317 O 0.21189 0.36752 0.35312 0.0
O318 O 0.68364 0.86701 0.28454 0.0
Mg319 Mg 0.67231 0.87856 0.30978 0.0
O320 O 0.65563 0.83863 0.30448 0.0
Mg321 Mg 0.66479 0.84705 0.34392 0.0
O322 O 0.69009 0.88527 0.33846 0.0
O323 O 0.69252 0.91106 0.3092 0.0
O324 O 0.67557 0.85658 0.38265 0.0
O325 O 0.69478 0.84324 0.33803 0.0
Mg326 Mg 0.6587 0.81829 0.37855 0.0
O327 O 0.6397 0.80829 0.35049 0.0
O328 O 0.64787 0.83021 0.4047 0.0
O329 O 0.69321 0.82825 0.37442 0.0
O330 O 0.63943 0.78557 0.38205 0.0
C331 C 0.62626 0.85763 0.33206 0.0
C332 C 0.66732 0.848 0.28507 0.0
C333 C 0.69927 0.90565 0.32856 0.0
C334 C 0.66491 0.84885 0.40271 0.0
C335 C 0.70368 0.83734 0.35455 0.0
C336 C 0.63173 0.78864 0.36231 0.0
O337 O 0.63801 0.86806 0.31314 0.0
O338 O 0.63416 0.85079 0.349 0.0
O339 O 0.13596 0.79947 0.42256 0.0
Mg340 Mg 0.11794 0.78483 0.3944 0.0
O341 O 0.15597 0.83041 0.39836 0.0
Mg342 Mg 0.15369 0.82417 0.35869 0.0
O343 O 0.13825 0.7867 0.3676 0.0
O344 O 0.11373 0.75497 0.38886 0.0
O345 O 0.1527 0.81955 0.31863 0.0
O346 O 0.18612 0.82171 0.3605 0.0
Mg347 Mg 0.1921 0.85793 0.34036 0.0
O348 O 0.16725 0.86252 0.35086 0.0
O349 O 0.18859 0.8413 0.31082 0.0
O350 O 0.20952 0.85421 0.36862 0.0
O351 O 0.19893 0.88919 0.33122 0.0
C352 C 0.10156 0.81328 0.36794 0.0
C353 C 0.14967 0.81988 0.41917 0.0
C354 C 0.12955 0.76553 0.37262 0.0
C355 C 0.16999 0.82714 0.30479 0.0
C356 C 0.20495 0.83475 0.36722 0.0
C357 C 0.18025 0.88302 0.34226 0.0
O358 O 0.09637 0.79643 0.38292 0.0
O359 O 0.12063 0.82434 0.35719 0.0
O360 O 0.8691 0.67946 0.62982 0.0
Mg361 Mg 0.8741 0.66773 0.66297 0.0
O362 O 0.84149 0.68156 0.64548 0.0
Mg363 Mg 0.84139 0.67071 0.68555 0.0
O364 O 0.84942 0.64107 0.68329 0.0
O365 O 0.87543 0.64062 0.66015 0.0
O366 O 0.84219 0.65804 0.72583 0.0
O367 O 0.80463 0.64252 0.68395 0.0
Mg368 Mg 0.82265 0.67758 0.71564 0.0
O369 O 0.83098 0.69951 0.68564 0.0
O370 O 0.84521 0.68555 0.74197 0.0
O371 O 0.79434 0.64543 0.71871 0.0
O372 O 0.8105 0.69786 0.71688 0.0
C373 C 0.89802 0.70327 0.68673 0.0
C374 C 0.85372 0.68398 0.62768 0.0
C375 C 0.85895 0.63073 0.67563 0.0
C376 C 0.84625 0.66812 0.74374 0.0
C377 C 0.79011 0.63507 0.70113 0.0
C378 C 0.82024 0.70722 0.69636 0.0
O379 O 0.90115 0.68863 0.67993 0.0
O380 O 0.87847 0.70067 0.68763 0.0
O381 O 0.33328 0.2054 0.61586 0.0
Mg382 Mg 0.32921 0.21871 0.64513 0.0
O383 O 0.32872 0.17477 0.6373 0.0
Mg384 Mg 0.33398 0.17979 0.6771 0.0
O385 O 0.34981 0.21709 0.66923 0.0
O386 O 0.3538 0.24904 0.65242 0.0
O387 O 0.33931 0.18437 0.71743 0.0
O388 O 0.36966 0.18645 0.67079 0.0
Mg389 Mg 0.34087 0.14181 0.70637 0.0
O390 O 0.31849 0.14223 0.68388 0.0
O391 O 0.33728 0.1539 0.73668 0.0
O392 O 0.37263 0.15837 0.6891 0.0
O393 O 0.31712 0.1111 0.6999 0.0
C394 C 0.28802 0.18429 0.67561 0.0
C395 C 0.33035 0.18601 0.61736 0.0
C396 C 0.36082 0.23835 0.66646 0.0
C397 C 0.33878 0.1726 0.73663 0.0
C398 C 0.38083 0.17686 0.67615 0.0
C399 C 0.30865 0.12093 0.68675 0.0
O400 O 0.29714 0.20227 0.66166 0.0
O401 O 0.29828 0.17403 0.68277 0.0
O402 O 0.7896 0.13158 0.75138 0.0
Mg403 Mg 0.78259 0.11301 0.72427 0.0
O404 O 0.8183 0.16085 0.73209 0.0
Mg405 Mg 0.82024 0.15671 0.69185 0.0
O406 O 0.80563 0.11864 0.69681 0.0
O407 O 0.80731 0.10558 0.7327 0.0
O408 O 0.82209 0.15177 0.65047 0.0
O409 O 0.85332 0.15836 0.69816 0.0
Mg410 Mg 0.84652 0.18843 0.66104 0.0
O411 O 0.83484 0.19547 0.68953 0.0
O412 O 0.82781 0.18313 0.63159 0.0
O413 O 0.86897 0.17604 0.66334 0.0
O414 O 0.86347 0.22055 0.66456 0.0
C415 C 0.7668 0.14083 0.69395 0.0
C416 C 0.80595 0.15061 0.75094 0.0
C417 C 0.8124 0.1077 0.71087 0.0
C418 C 0.82309 0.16348 0.63101 0.0
C419 C 0.8689 0.16505 0.68253 0.0
C420 C 0.84976 0.21578 0.68225 0.0
O421 O 0.76155 0.12243 0.70608 0.0
O422 O 0.78674 0.15497 0.68724 0.0
H423 H 0.25869 0.81732 0.08605 0.0
H424 H 0.29802 0.84489 0.07949 0.0
H425 H 0.28613 0.86722 0.01028 0.0
H426 H 0.24662 0.84039 0.0175 0.0
H427 H 0.32738 0.84802 0.04682 0.0
H428 H 0.32276 0.92509 0.03359 0.0
H429 H 0.29941 0.89889 0.04528 0.0
H430 H 0.30656 0.90588 0.01407 0.0
C431 C 0.26435 0.82875 0.06991 0.0
C432 C 0.24957 0.82722 0.05256 0.0
C433 C 0.28689 0.84425 0.06595 0.0
C434 C 0.29511 0.85844 0.04449 0.0
C435 C 0.28024 0.85697 0.02721 0.0
H436 H 0.43278 0.95736 0.99501 0.0
H437 H 0.39387 0.92846 0.99475 0.0
C438 C 0.2577 0.84162 0.0313 0.0
C439 C 0.31932 0.87402 0.03988 0.0
H440 H 0.35779 0.92852 0.02566 0.0
C441 C 0.33398 0.86562 0.04221 0.0
C442 C 0.32804 0.89701 0.03359 0.0
C443 C 0.31341 0.90731 0.03169 0.0
C444 C 0.35701 0.87956 0.03882 0.0
C445 C 0.36565 0.9025 0.033 0.0
C446 C 0.35107 0.91088 0.02997 0.0
C447 C 0.38973 0.91832 0.03243 0.0
C448 C 0.37203 0.86975 0.04166 0.0
C449 C 0.40028 0.92205 0.05362 0.0
C450 C 0.42223 0.9387 0.05386 0.0
C451 C 0.43424 0.95182 0.03285 0.0
C452 C 0.42397 0.94747 0.01145 0.0
C453 C 0.40177 0.93101 0.01128 0.0
H454 H 0.36291 0.85169 0.04122 0.0
H455 H 0.38559 0.87765 0.02755 0.0
H456 H 0.37963 0.8728 0.05884 0.0
H457 H 0.39126 0.91256 0.07014 0.0
H458 H 0.42973 0.94154 0.0706 0.0
H459 H 0.20174 0.4784 0.0392 0.0
H460 H 0.18221 0.49918 0.03076 0.0
H461 H 0.14008 0.45194 0.98613 0.0
H462 H 0.15947 0.43077 0.99533 0.0
H463 H 0.17306 0.51898 0.9908 0.0
H464 H 0.09767 0.44797 0.03805 0.0
H465 H 0.12436 0.44963 0.03855 0.0
H466 H 0.10799 0.44121 0.01354 0.0
C467 C 0.18854 0.47282 0.02726 0.0
C468 C 0.18183 0.45319 0.01786 0.0
C469 C 0.17751 0.48464 0.0224 0.0
C470 C 0.15966 0.47694 0.00801 0.0
C471 C 0.15372 0.45792 0.9975 0.0
H472 H 0.0636 0.51454 0.97222 0.0
H473 H 0.09832 0.51394 0.96771 0.0
C474 C 0.1647 0.44593 0.0026 0.0
C475 C 0.14596 0.48759 0.00615 0.0
H476 H 0.09418 0.478 0.02008 0.0
C477 C 0.15576 0.51005 0.99701 0.0
C478 C 0.12367 0.476 0.01511 0.0
C479 C 0.11283 0.45245 0.0271 0.0
C480 C 0.1435 0.52105 0.99606 0.0
C481 C 0.12107 0.50914 0.00416 0.0
C482 C 0.11142 0.48687 0.01356 0.0
C483 C 0.10676 0.51899 0.00364 0.0
C484 C 0.15441 0.54526 0.98688 0.0
C485 C 0.10086 0.52316 0.02496 0.0
C486 C 0.08094 0.52303 0.0277 0.0
C487 C 0.0669 0.51892 0.00906 0.0
C488 C 0.07421 0.51767 0.98682 0.0
C489 C 0.09407 0.51751 0.98417 0.0
H490 H 0.1723 0.55239 0.98199 0.0
H491 H 0.14612 0.54782 0.97119 0.0
H492 H 0.15246 0.55425 0.00049 0.0
H493 H 0.11044 0.52413 0.04017 0.0
H494 H 0.0757 0.52439 0.04491 0.0
H495 H 0.58105 0.75349 0.99285 0.0
H496 H 0.56142 0.71391 0.98931 0.0
H497 H 0.55226 0.69854 0.06511 0.0
H498 H 0.57006 0.73763 0.06842 0.0
H499 H 0.57224 0.68422 0.00372 0.0
H500 H 0.49149 0.65799 0.04902 0.0
H501 H 0.51165 0.68664 0.04059 0.0
H502 H 0.51339 0.67178 0.06774 0.0
C503 C 0.57458 0.74151 0.0086 0.0
C504 C 0.57734 0.74844 0.03088 0.0
C505 C 0.5634 0.71902 0.00664 0.0
C506 C 0.55493 0.70325 0.02696 0.0
C507 C 0.55797 0.7103 0.04917 0.0
H508 H 0.5413 0.57562 0.03959 0.0
H509 H 0.54751 0.61165 0.04732 0.0
C510 C 0.56867 0.73265 0.05108 0.0
C511 C 0.54448 0.67945 0.02523 0.0
H512 H 0.50066 0.62914 0.04651 0.0
C513 C 0.55643 0.67225 0.01279 0.0
C514 C 0.52371 0.66379 0.03688 0.0
C515 C 0.50925 0.67051 0.04907 0.0
C516 C 0.54867 0.64982 0.01245 0.0
C517 C 0.52873 0.63419 0.02546 0.0
C518 C 0.51621 0.64126 0.03707 0.0
C519 C 0.52091 0.61047 0.02671 0.0
C520 C 0.56194 0.64301 0.99826 0.0
C521 C 0.50294 0.59744 0.014 0.0
C522 C 0.49923 0.57678 0.00987 0.0
C523 C 0.51349 0.56918 0.01844 0.0
C524 C 0.53014 0.58132 0.03295 0.0
C525 C 0.53369 0.6018 0.0373 0.0
H526 H 0.57379 0.65676 0.985 0.0
H527 H 0.57155 0.63778 0.01028 0.0
H528 H 0.55093 0.62891 0.989 0.0
H529 H 0.49295 0.60394 0.00573 0.0
H530 H 0.48641 0.56758 0.99847 0.0
H531 H 0.80657 0.26423 0.00299 0.0
H532 H 0.83008 0.30368 0.00517 0.0
H533 H 0.8866 0.29431 0.0138 0.0
H534 H 0.8629 0.25467 0.01193 0.0
H535 H 0.88013 0.32406 0.04472 0.0
H536 H 0.87785 0.3433 0.94778 0.0
H537 H 0.85213 0.32493 0.96465 0.0
H538 H 0.87232 0.31644 0.96153 0.0
C539 C 0.82388 0.27056 0.00608 0.0
C540 C 0.83302 0.25658 0.00747 0.0
C541 C 0.83729 0.29303 0.00706 0.0
C542 C 0.86004 0.30184 0.00938 0.0
C543 C 0.86905 0.28774 0.01195 0.0
H544 H 0.97843 0.42347 0.99899 0.0
H545 H 0.94779 0.38693 0.99454 0.0
C546 C 0.8556 0.26522 0.01092 0.0
C547 C 0.87465 0.3259 0.00776 0.0
H548 H 0.89928 0.37317 0.96839 0.0
C549 C 0.88417 0.33485 0.02812 0.0
C550 C 0.87981 0.33983 0.986 0.0
C551 C 0.87014 0.33077 0.96363 0.0
C552 C 0.89905 0.35745 0.0272 0.0
C553 C 0.90458 0.37129 0.00538 0.0
C554 C 0.89477 0.36245 0.98508 0.0
C555 C 0.92231 0.39449 0.00324 0.0
C556 C 0.9093 0.36645 0.0494 0.0
C557 C 0.91793 0.411 0.00855 0.0
C558 C 0.93544 0.43205 0.01062 0.0
C559 C 0.95739 0.43654 0.00781 0.0
C560 C 0.96162 0.42035 0.00113 0.0
C561 C 0.94418 0.39953 0.99863 0.0
H562 H 0.90322 0.3535 0.06501 0.0
H563 H 0.92756 0.3741 0.04713 0.0
H564 H 0.90553 0.37951 0.05281 0.0
H565 H 0.9011 0.40726 0.01233 0.0
H566 H 0.93185 0.44422 0.01617 0.0
H567 H 0.73631 0.5779 0.04134 0.0
H568 H 0.69625 0.55772 0.05164 0.0
H569 H 0.68877 0.50824 0.00906 0.0
H570 H 0.72879 0.52822 -0.00056 0.0
H571 H 0.67057 0.55385 0.01429 0.0
H572 H 0.64349 0.47108 0.06427 0.0
H573 H 0.6717 0.49339 0.06292 0.0
H574 H 0.6616 0.47797 0.03861 0.0
C575 C 0.72604 0.5623 0.03503 0.0
C576 C 0.73513 0.55437 0.01976 0.0
C577 C 0.70334 0.55078 0.04089 0.0
C578 C 0.68966 0.53136 0.03134 0.0
C579 C 0.69908 0.52282 0.01713 0.0
H580 H 0.56143 0.49406 0.98445 0.0
H581 H 0.59605 0.49385 0.99181 0.0
C582 C 0.72176 0.53426 0.01147 0.0
C583 C 0.66565 0.52282 0.03203 0.0
H584 H 0.61518 0.47699 0.04646 0.0
C585 C 0.65849 0.53714 0.02165 0.0
C586 C 0.65003 0.50087 0.04117 0.0
C587 C 0.65705 0.48495 0.05255 0.0
C588 C 0.63607 0.53014 0.02006 0.0
C589 C 0.62044 0.50823 0.02908 0.0
C590 C 0.62741 0.49378 0.03959 0.0
C591 C 0.59684 0.50081 0.02763 0.0
C592 C 0.62916 0.54617 0.00858 0.0
C593 C 0.5856 0.50382 0.04578 0.0
C594 C 0.5659 0.50393 0.04164 0.0
C595 C 0.5576 0.5014 0.0192 0.0
C596 C 0.56792 0.49657 0.0017 0.0
C597 C 0.5874 0.49607 0.00599 0.0
H598 H 0.64346 0.56293 0.00339 0.0
H599 H 0.62037 0.54019 0.99256 0.0
H600 H 0.61755 0.54732 0.02082 0.0
H601 H 0.59294 0.50781 0.06245 0.0
H602 H 0.55803 0.5075 0.05543 0.0
H603 H 0.39184 0.15151 0.9808 0.0
H604 H 0.40594 0.12537 0.98226 0.0
H605 H 0.47249 0.17904 0.98328 0.0
H606 H 0.45839 0.20501 0.98158 0.0
H607 H 0.46424 0.14284 0.95252 0.0
H608 H 0.43333 0.11498 0.04685 0.0
H609 H 0.41476 0.11673 0.02582 0.0
H610 H 0.43872 0.14139 0.03186 0.0
C611 C 0.40948 0.15763 0.9808 0.0
C612 C 0.42407 0.18009 0.98133 0.0
C613 C 0.41751 0.14279 0.98171 0.0
C614 C 0.44026 0.1503 0.983 0.0
C615 C 0.45491 0.17292 0.98224 0.0
H616 H 0.5042 0.08173 0.04766 0.0
H617 H 0.49374 0.10907 0.03215 0.0
C618 C 0.44688 0.18769 0.98142 0.0
C619 C 0.44867 0.13455 0.98742 0.0
H620 H 0.45189 0.09884 0.03107 0.0
C621 C 0.46148 0.13307 0.96961 0.0
C622 C 0.44528 0.12213 0.00984 0.0
C623 C 0.43239 0.12384 0.02983 0.0
C624 C 0.4711 0.11948 0.97371 0.0
C625 C 0.46764 0.10697 0.99619 0.0
C626 C 0.45462 0.10841 0.01385 0.0
C627 C 0.47768 0.09269 0.0024 0.0
C628 C 0.48536 0.11916 0.95419 0.0
C629 C 0.47311 0.07485 0.99026 0.0
C630 C 0.47968 0.05948 0.99883 0.0
C631 C 0.49044 0.06148 0.01993 0.0
C632 C 0.49598 0.07988 0.03132 0.0
C633 C 0.48988 0.09543 0.02252 0.0
H634 H 0.49118 0.13383 0.94056 0.0
H635 H 0.49996 0.11851 0.96117 0.0
H636 H 0.47554 0.1043 0.94551 0.0
H637 H 0.46335 0.07205 0.975 0.0
H638 H 0.47487 0.04518 0.98998 0.0
H639 H 0.77024 0.16207 0.98752 0.0
H640 H 0.73082 0.13454 0.99041 0.0
H641 H 0.71525 0.18157 0.0142 0.0
H642 H 0.75406 0.20964 0.00829 0.0
H643 H 0.70189 0.11468 0.02473 0.0
H644 H 0.67169 0.16228 0.96721 0.0
H645 H 0.70074 0.17181 0.96947 0.0
H646 H 0.68536 0.17632 0.99134 0.0
C647 C 0.7583 0.16665 0.99269 0.0
C648 C 0.76533 0.18803 0.99775 0.0
C649 C 0.73576 0.15082 0.99468 0.0
C650 C 0.71977 0.15594 0.00213 0.0
C651 C 0.72694 0.17722 0.00765 0.0
H652 H 0.57689 0.0644 0.03864 0.0
H653 H 0.61542 0.09376 0.04049 0.0
C654 C 0.74931 0.19319 0.00485 0.0
C655 C 0.69577 0.13894 0.00461 0.0
H656 H 0.64428 0.12929 0.98981 0.0
C657 C 0.68938 0.11797 0.01703 0.0
C658 C 0.67919 0.14303 0.99462 0.0
C659 C 0.68463 0.16451 0.97973 0.0
C660 C 0.66715 0.10111 0.01948 0.0
C661 C 0.65076 0.10533 0.00965 0.0
C662 C 0.65692 0.12627 0.99766 0.0
C663 C 0.62754 0.0875 0.00927 0.0
C664 C 0.66124 0.07864 0.03206 0.0
C665 C 0.62169 0.07448 0.99107 0.0
C666 C 0.59986 0.05798 0.98983 0.0
C667 C 0.58329 0.05399 0.00688 0.0
C668 C 0.58922 0.06702 0.02526 0.0
C669 C 0.61119 0.08375 0.02636 0.0
H670 H 0.67547 0.07852 0.04079 0.0
H671 H 0.64738 0.07294 0.04548 0.0
H672 H 0.65558 0.06669 0.01917 0.0
H673 H 0.63407 0.07717 0.9777 0.0
H674 H 0.59601 0.04824 0.9755 0.0
H675 H 0.8313 0.59123 0.01096 0.0
H676 H 0.85633 0.57574 0.01147 0.0
H677 H 0.80753 0.52067 0.97978 0.0
H678 H 0.78267 0.53632 0.97925 0.0
H679 H 0.82692 0.51442 0.02909 0.0
H680 H 0.88672 0.56327 0.95195 0.0
H681 H 0.87792 0.57759 0.96942 0.0
H682 H 0.85837 0.55756 0.95257 0.0
C683 C 0.82635 0.57615 0.0036 0.0
C684 C 0.80545 0.56491 0.99488 0.0
C685 C 0.84047 0.56732 0.00392 0.0
C686 C 0.83365 0.54715 0.9956 0.0
C687 C 0.813 0.5363 0.98613 0.0
H688 H 0.92343 0.49369 0.99789 0.0
H689 H 0.8875 0.49196 0.99401 0.0
C690 C 0.79897 0.54521 0.98572 0.0
C691 C 0.84738 0.5366 0.99884 0.0
H692 H 0.89631 0.54196 0.97985 0.0
C693 C 0.84189 0.52007 0.01811 0.0
C694 C 0.86672 0.54405 0.98435 0.0
C695 C 0.87286 0.56152 0.96328 0.0
C696 C 0.85613 0.5117 0.02409 0.0
C697 C 0.87605 0.52003 0.01035 0.0
C698 C 0.88087 0.5356 0.99026 0.0
C699 C 0.89368 0.5154 0.01812 0.0
C700 C 0.85041 0.49478 0.04555 0.0
C701 C 0.90838 0.52834 0.03381 0.0
C702 C 0.92895 0.52962 0.03573 0.0
C703 C 0.93475 0.51762 0.02234 0.0
C704 C 0.91901 0.50269 0.00878 0.0
C705 C 0.89861 0.50181 0.0064 0.0
H706 H 0.83292 0.48751 0.05223 0.0
H707 H 0.85341 0.4814 0.04143 0.0
H708 H 0.86128 0.50267 0.05971 0.0
H709 H 0.90484 0.53908 0.04277 0.0
H710 H 0.94104 0.54149 0.04594 0.0
H711 H 0.38851 0.23777 0.01476 0.0
H712 H 0.40212 0.27585 0.02246 0.0
H713 H 0.46884 0.29165 0.00375 0.0
H714 H 0.45515 0.25392 0.99547 0.0
H715 H 0.43562 0.30313 0.05246 0.0
H716 H 0.45721 0.33427 0.95685 0.0
H717 H 0.43932 0.30551 0.96779 0.0
H718 H 0.46872 0.31769 0.96947 0.0
C719 C 0.40607 0.2494 0.01269 0.0
C720 C 0.42085 0.24314 0.00457 0.0
C721 C 0.41382 0.27102 0.01706 0.0
C722 C 0.43642 0.28655 0.01328 0.0
C723 C 0.45131 0.27994 0.00645 0.0
H724 H 0.50344 0.42422 0.03821 0.0
H725 H 0.49694 0.38808 0.02975 0.0
C726 C 0.44356 0.25841 0.00201 0.0
C727 C 0.44428 0.30993 0.01519 0.0
H728 H 0.46624 0.36086 0.98255 0.0
C729 C 0.44243 0.31578 0.03724 0.0
C730 C 0.45303 0.32631 0.99518 0.0
C731 C 0.45457 0.32071 0.97092 0.0
C732 C 0.44913 0.33768 0.03981 0.0
C733 C 0.45777 0.35396 0.01981 0.0
C734 C 0.45981 0.34823 0.99781 0.0
C735 C 0.46299 0.37669 0.02135 0.0
C736 C 0.44657 0.34338 0.06371 0.0
C737 C 0.44622 0.38218 0.01867 0.0
C738 C 0.4499 0.40261 0.02341 0.0
C739 C 0.47044 0.41776 0.03067 0.0
C740 C 0.48762 0.41276 0.03222 0.0
C741 C 0.48391 0.39222 0.02753 0.0
H742 H 0.44045 0.32896 0.07772 0.0
H743 H 0.46269 0.35662 0.06842 0.0
H744 H 0.43478 0.34975 0.06315 0.0
H745 H 0.42998 0.37026 0.01402 0.0
H746 H 0.43641 0.40618 0.02254 0.0
H747 H 0.18512 0.74009 0.07657 0.0
H748 H 0.16115 0.70266 0.06739 0.0
H749 H 0.1565 0.72928 0.99704 0.0
H750 H 0.18042 0.76696 0.00646 0.0
H751 H 0.1157 0.68921 0.04887 0.0
H752 H 0.17333 0.67824 0.99207 0.0
H753 H 0.18309 0.69731 0.01347 0.0
H754 H 0.1727 0.70371 0.98675 0.0
C755 C 0.17896 0.73785 0.05917 0.0
C756 C 0.18429 0.75617 0.04224 0.0
C757 C 0.16544 0.71658 0.05392 0.0
C758 C 0.15725 0.71329 0.03154 0.0
C759 C 0.16292 0.73157 0.01434 0.0
H760 H 0.06366 0.60731 0.96608 0.0
H761 H 0.09722 0.63884 0.9762 0.0
C762 C 0.17644 0.75295 0.01967 0.0
C763 C 0.14155 0.69074 0.02694 0.0
H764 H 0.13625 0.64924 0.99755 0.0
C765 C 0.12018 0.68035 0.03782 0.0
C766 C 0.14756 0.67944 0.01241 0.0
C767 C 0.17044 0.69009 0.00051 0.0
C768 C 0.10435 0.65903 0.03408 0.0
C769 C 0.11035 0.64752 0.01972 0.0
C770 C 0.13186 0.6579 0.00898 0.0
C771 C 0.09356 0.62602 0.01318 0.0
C772 C 0.08106 0.64947 0.04463 0.0
C773 C 0.08116 0.60765 0.03035 0.0
C774 C 0.06185 0.58945 0.02454 0.0
C775 C 0.05491 0.58965 0.00156 0.0
C776 C 0.0686 0.60699 0.98402 0.0
C777 C 0.08782 0.62497 0.98975 0.0
H778 H 0.07819 0.66216 0.05113 0.0
H779 H 0.06881 0.64165 0.03149 0.0
H780 H 0.07801 0.63665 0.05975 0.0
H781 H 0.08561 0.60802 0.04848 0.0
H782 H 0.05153 0.5762 0.0383 0.0
H783 H 0.2401 0.41723 0.05822 0.0
H784 H 0.27947 0.42922 0.05986 0.0
H785 H 0.29542 0.49432 0.02707 0.0
H786 H 0.25618 0.48302 0.02841 0.0
H787 H 0.30397 0.43959 0.02213 0.0
H788 H 0.34265 0.51158 0.07106 0.0
H789 H 0.31306 0.49424 0.07149 0.0
H790 H 0.32789 0.51526 0.04686 0.0
C791 C 0.25208 0.43426 0.05215 0.0
C792 C 0.24522 0.449 0.0424 0.0
C793 C 0.27452 0.44109 0.05292 0.0
C794 C 0.29044 0.46263 0.04337 0.0
C795 C 0.28357 0.47772 0.03481 0.0
H796 H 0.4237 0.49136 0.99736 0.0
H797 H 0.38821 0.49102 0.99691 0.0
C798 C 0.26112 0.47108 0.03493 0.0
C799 C 0.31372 0.46811 0.03969 0.0
H800 H 0.36705 0.504 0.05014 0.0
C801 C 0.31771 0.45369 0.02831 0.0
C802 C 0.33171 0.48676 0.04738 0.0
C803 C 0.32861 0.50272 0.06006 0.0
C804 C 0.33901 0.4568 0.02529 0.0
C805 C 0.35682 0.47512 0.03329 0.0
C806 C 0.35316 0.49009 0.04386 0.0
C807 C 0.3788 0.47715 0.03358 0.0
C808 C 0.34229 0.43994 0.01462 0.0
C809 C 0.38488 0.4694 0.05432 0.0
C810 C 0.40481 0.46933 0.0546 0.0
C811 C 0.41904 0.47713 0.03412 0.0
C812 C 0.41301 0.48518 0.01336 0.0
C813 C 0.39291 0.48514 0.01309 0.0
H814 H 0.32656 0.42651 0.00935 0.0
H815 H 0.35407 0.44803 0.99889 0.0
H816 H 0.34956 0.43257 0.02754 0.0
H817 H 0.37397 0.46299 0.07017 0.0
H818 H 0.40899 0.46309 0.07091 0.0
H819 H 0.59498 0.83472 0.00821 0.0
H820 H 0.58065 0.86054 0.00795 0.0
H821 H 0.54654 0.82777 0.07586 0.0
H822 H 0.56048 0.80171 0.07579 0.0
H823 H 0.52543 0.8398 0.02298 0.0
H824 H 0.59178 0.90355 0.06959 0.0
H825 H 0.59843 0.88878 0.05038 0.0
H826 H 0.58263 0.87459 0.07768 0.0
C827 C 0.58463 0.83332 0.02311 0.0
C828 C 0.57913 0.81669 0.04221 0.0
C829 C 0.57646 0.84793 0.02297 0.0
C830 C 0.56272 0.84607 0.04198 0.0
C831 C 0.55729 0.82951 0.06117 0.0
H832 H 0.52045 0.94508 0.0492 0.0
H833 H 0.52588 0.91343 0.06242 0.0
C834 C 0.56539 0.81483 0.06123 0.0
C835 C 0.55344 0.86099 0.04121 0.0
H836 H 0.56519 0.91181 0.05299 0.0
C837 C 0.53389 0.85541 0.02984 0.0
C838 C 0.56448 0.88116 0.05038 0.0
C839 C 0.58551 0.88756 0.06277 0.0
C840 C 0.5255 0.86999 0.02655 0.0
C841 C 0.5372 0.89077 0.03455 0.0
C842 C 0.55618 0.89584 0.04698 0.0
C843 C 0.53188 0.90851 0.02721 0.0
C844 C 0.5045 0.86325 0.01396 0.0
C845 C 0.53346 0.91612 0.00318 0.0
C846 C 0.53046 0.93398 0.99569 0.0
C847 C 0.52592 0.94484 0.01206 0.0
C848 C 0.52379 0.93695 0.0362 0.0
C849 C 0.52695 0.91897 0.04375 0.0
H850 H 0.49386 0.84505 0.01627 0.0
H851 H 0.49492 0.87059 0.02038 0.0
H852 H 0.50875 0.869 0.99481 0.0
H853 H 0.53772 0.90864 0.99014 0.0
H854 H 0.53217 0.93955 0.97695 0.0
H855 H 0.92505 0.14971 0.41706 0.0
H856 H 0.96451 0.17655 0.41198 0.0
H857 H 0.95482 0.20188 0.34308 0.0
H858 H 0.91507 0.17761 0.35006 0.0
H859 H -0.00609 0.17977 0.38519 0.0
H860 H -0.00596 0.25847 0.36088 0.0
H861 H 0.96904 0.23337 0.3713 0.0
H862 H 0.97916 0.23951 0.34078 0.0
C863 C 0.93125 0.16176 0.4014 0.0
C864 C 0.91698 0.16153 0.38394 0.0
C865 C 0.95392 0.17684 0.3982 0.0
C866 C 0.96295 0.19159 0.37716 0.0
C867 C 0.94853 0.19138 0.35981 0.0
H868 H 0.103 0.28349 0.33093 0.0
H869 H 0.0646 0.25375 0.33031 0.0
C870 C 0.92577 0.17705 0.36354 0.0
C871 C 0.98743 0.20628 0.3731 0.0
H872 H 0.02809 0.2593 0.35491 0.0
C873 C 0.00125 0.19718 0.37871 0.0
C874 C -0.00265 0.22907 0.3643 0.0
C875 C 0.9841 0.24067 0.35921 0.0
C876 C 0.02441 0.21022 0.37646 0.0
C877 C 0.03408 0.23284 0.36784 0.0
C878 C 0.02049 0.24183 0.36129 0.0
C879 C 0.05812 0.24812 0.36812 0.0
C880 C 0.03843 0.1999 0.38377 0.0
C881 C 0.06717 0.2545 0.38958 0.0
C882 C 0.08884 0.27164 0.38996 0.0
C883 C 0.10196 0.28261 0.36888 0.0
C884 C 0.09328 0.27536 0.34745 0.0
C885 C 0.07139 0.25839 0.34706 0.0
H886 H 0.0288 0.18163 0.38563 0.0
H887 H 0.05269 0.20592 0.37077 0.0
H888 H 0.04511 0.20474 0.40101 0.0
H889 H 0.05712 0.24689 0.40599 0.0
H890 H 0.09512 0.27671 0.40676 0.0
H891 H 0.82004 0.75556 0.33367 0.0
H892 H 0.79999 0.77611 0.32546 0.0
H893 H 0.85123 0.83082 0.35565 0.0
H894 H 0.87129 0.8105 0.36314 0.0
H895 H 0.786 0.7867 0.36376 0.0
H896 H 0.83629 0.8626 0.3006 0.0
H897 H 0.84099 0.83936 0.3035 0.0
H898 H 0.85078 0.85826 0.32481 0.0
C899 C 0.82721 0.77227 0.33764 0.0
C900 C 0.84703 0.7817 0.34878 0.0
C901 C 0.81592 0.78398 0.333 0.0
C902 C 0.82435 0.80509 0.33967 0.0
C903 C 0.84478 0.81488 0.34973 0.0
H904 H 0.73538 0.84702 0.38592 0.0
H905 H 0.76999 0.84633 0.38095 0.0
C906 C 0.8561 0.80327 0.35415 0.0
C907 C 0.80997 0.81491 0.34034 0.0
H908 H 0.80527 0.8603 0.32137 0.0
C909 C 0.79014 0.80272 0.35434 0.0
C910 C 0.8158 0.83604 0.32847 0.0
C911 C 0.83706 0.84979 0.31335 0.0
C912 C 0.77563 0.81081 0.35645 0.0
C913 C 0.78127 0.83182 0.34445 0.0
C914 C 0.80122 0.84426 0.33063 0.0
C915 C 0.76534 0.83976 0.34487 0.0
C916 C 0.7541 0.79659 0.37112 0.0
C917 C 0.75218 0.83758 0.32572 0.0
C918 C 0.73256 0.83813 0.32846 0.0
C919 C 0.72587 0.8405 0.35047 0.0
C920 C 0.74005 0.84463 0.36897 0.0
C921 C 0.75987 0.84454 0.36607 0.0
H922 H 0.75099 0.77956 0.37651 0.0
H923 H 0.75453 0.80393 0.38731 0.0
H924 H 0.74002 0.79574 0.3612 0.0
H925 H 0.75615 0.8337 0.30931 0.0
H926 H 0.7219 0.8351 0.31391 0.0
H927 H 0.2744 0.07923 0.36433 0.0
H928 H 0.25728 0.04 0.35985 0.0
H929 H 0.1938 0.03656 0.35453 0.0
H930 H 0.21074 0.07535 0.35991 0.0
H931 H 0.19328 0.00368 0.38753 0.0
H932 H 0.2335 0.00942 0.3014 0.0
H933 H 0.25228 0.0236 0.32287 0.0
H934 H 0.23373 0.03285 0.31147 0.0
C935 C 0.2569 0.07008 0.36177 0.0
C936 C 0.24388 0.08022 0.36209 0.0
C937 C 0.24715 0.04779 0.35917 0.0
C938 C 0.2243 0.03549 0.35669 0.0
C939 C 0.21145 0.04582 0.35633 0.0
H940 H 0.16629 0.90659 0.31339 0.0
H941 H 0.17146 0.94276 0.31903 0.0
C942 C 0.22116 0.06799 0.35904 0.0
C943 C 0.21349 0.0116 0.35556 0.0
H944 H 0.2125 0.97384 0.32302 0.0
C945 C 0.1973 0.99709 0.37334 0.0
C946 C 0.21871 0.00317 0.33695 0.0
C947 C 0.23536 0.01805 0.31696 0.0
C948 C 0.18635 0.97423 0.37316 0.0
C949 C 0.19198 0.96576 0.35482 0.0
C950 C 0.20802 0.98036 0.33695 0.0
C951 C 0.18267 0.94188 0.35425 0.0
C952 C 0.16885 0.95947 0.3925 0.0
C953 C 0.18598 0.92892 0.3727 0.0
C954 C 0.1824 0.90808 0.36969 0.0
C955 C 0.17587 0.90018 0.34809 0.0
C956 C 0.17096 0.91234 0.3303 0.0
C957 C 0.17409 0.93299 0.33348 0.0
H958 H 0.16143 0.96833 0.40017 0.0
H959 H 0.15548 0.94465 0.38599 0.0
H960 H 0.17653 0.95399 0.40685 0.0
H961 H 0.19313 0.93559 0.38862 0.0
H962 H 0.1868 0.89907 0.38336 0.0
H963 H 0.48825 0.60158 0.30108 0.0
H964 H 0.51108 0.64116 0.30264 0.0
H965 H 0.53622 0.62705 0.36757 0.0
H966 H 0.51388 0.58729 0.36531 0.0
H967 H 0.51328 0.66756 0.33354 0.0
H968 H 0.59259 0.6671 0.32743 0.0
H969 H 0.56649 0.64357 0.32294 0.0
H970 H 0.57472 0.64898 0.35231 0.0
C971 C 0.49869 0.6071 0.31564 0.0
C972 C 0.49976 0.59175 0.33289 0.0
C973 C 0.51164 0.62958 0.31657 0.0
C974 C 0.52575 0.63705 0.3349 0.0
C975 C 0.52592 0.62162 0.3529 0.0
H976 H 0.59686 0.75571 0.38887 0.0
H977 H 0.56907 0.72071 0.37733 0.0
C978 C 0.5131 0.59904 0.35179 0.0
C979 C 0.54049 0.66099 0.33479 0.0
H980 H 0.59454 0.70018 0.3366 0.0
C981 C 0.53107 0.67472 0.33398 0.0
C982 C 0.56374 0.67038 0.3348 0.0
C983 C 0.57502 0.65678 0.33417 0.0
C984 C 0.54424 0.69744 0.33438 0.0
C985 C 0.56726 0.70652 0.3357 0.0
C986 C 0.57681 0.69304 0.33549 0.0
C987 C 0.58139 0.72916 0.34083 0.0
C988 C 0.53355 0.71163 0.33388 0.0
C989 C 0.59713 0.74562 0.32386 0.0
C990 C 0.61288 0.76588 0.33036 0.0
C991 C 0.61328 0.76942 0.35397 0.0
C992 C 0.59691 0.75323 0.37058 0.0
C993 C 0.581 0.73333 0.36402 0.0
H994 H 0.51622 0.70294 0.32869 0.0
H995 H 0.53352 0.71634 0.35166 0.0
H996 H 0.54315 0.72703 0.3214 0.0
H997 H 0.59771 0.74249 0.30592 0.0
H998 H 0.62546 0.77815 0.31734 0.0
H999 H 0.39395 0.9176 0.35492 0.0
H1000 H 0.35342 0.8942 0.36065 0.0
H1001 H 0.35901 0.83792 0.3477 0.0
H1002 H 0.39921 0.86125 0.34185 0.0
H1003 H 0.32965 0.84936 0.31818 0.0
H1004 H 0.3142 0.84119 0.41501 0.0
H1005 H 0.33307 0.86845 0.40048 0.0
H1006 H 0.34045 0.84724 0.40161 0.0
C1007 C 0.38638 0.90013 0.35398 0.0
C1008 C 0.39936 0.89095 0.34845 0.0
C1009 C 0.36345 0.88685 0.35717 0.0
C1010 C 0.3535 0.8644 0.35476 0.0
C1011 C 0.36654 0.85517 0.34982 0.0
H1012 H 0.21104 0.80003 0.38457 0.0
H1013 H 0.24484 0.79769 0.37784 0.0
C1014 C 0.38935 0.86838 0.34671 0.0
C1015 C 0.32937 0.85094 0.3555 0.0
H1016 H 0.28327 0.83176 0.39168 0.0
C1017 C 0.31939 0.84501 0.3343 0.0
C1018 C 0.31628 0.84503 0.37662 0.0
C1019 C 0.32647 0.85062 0.39982 0.0
C1020 C 0.29641 0.83488 0.3334 0.0
C1021 C 0.28337 0.8307 0.35424 0.0
C1022 C 0.29331 0.8348 0.37576 0.0
C1023 C 0.26108 0.82801 0.35346 0.0
C1024 C 0.28645 0.83012 0.30995 0.0
C1025 C 0.25908 0.84552 0.34165 0.0
C1026 C 0.24043 0.84713 0.34597 0.0
C1027 C 0.22339 0.83124 0.36211 0.0
C1028 C 0.22436 0.81267 0.37249 0.0
C1029 C 0.24339 0.81121 0.36842 0.0
H1030 H 0.29623 0.82583 0.29854 0.0
H1031 H 0.26906 0.81647 0.31211 0.0
H1032 H 0.28677 0.8451 0.30071 0.0
H1033 H 0.27267 0.8589 0.33046 0.0
H1034 H 0.23963 0.86127 0.33721 0.0
H1035 H 0.07579 0.49822 0.34921 0.0
H1036 H 0.09072 0.47305 0.35002 0.0
H1037 H 0.12322 0.5044 0.2811 0.0
H1038 H 0.10856 0.53001 0.28068 0.0
H1039 H 0.08619 0.44305 0.32114 0.0
H1040 H 0.1741 0.50837 0.32026 0.0
H1041 H 0.15142 0.5132 0.32566 0.0
H1042 H 0.15917 0.51219 0.29617 0.0
C1043 C 0.08591 0.49947 0.33416 0.0
C1044 C 0.09093 0.51582 0.31483 0.0
C1045 C 0.09447 0.48517 0.33462 0.0
C1046 C 0.10836 0.48698 0.31576 0.0
C1047 C 0.11285 0.50291 0.29602 0.0
H1048 H 0.14679 0.38405 0.31552 0.0
H1049 H 0.1376 0.41272 0.29997 0.0
C1050 C 0.10425 0.5173 0.2956 0.0
C1051 C 0.11819 0.47225 0.31725 0.0
H1052 H 0.16711 0.47189 0.3214 0.0
C1053 C 0.1039 0.44936 0.3208 0.0
C1054 C 0.14131 0.4805 0.3173 0.0
C1055 C 0.15746 0.50489 0.31486 0.0
C1056 C 0.11202 0.43455 0.32473 0.0
C1057 C 0.1351 0.44277 0.3247 0.0
C1058 C 0.14946 0.46563 0.32085 0.0
C1059 C 0.1442 0.42788 0.33189 0.0
C1060 C 0.09586 0.41021 0.33017 0.0
C1061 C 0.15175 0.42747 0.35453 0.0
C1062 C 0.15677 0.41115 0.36339 0.0
C1063 C 0.15471 0.39506 0.34969 0.0
C1064 C 0.14874 0.39638 0.32635 0.0
C1065 C 0.14335 0.41263 0.31755 0.0
H1066 H 0.07845 0.40665 0.33172 0.0
H1067 H 0.09753 0.40163 0.31597 0.0
H1068 H 0.09958 0.40328 0.34692 0.0
H1069 H 0.15253 0.43902 0.36589 0.0
H1070 H 0.16134 0.41051 0.38145 0.0
H1071 H 0.42264 0.54508 0.33261 0.0
H1072 H 0.38372 0.51776 0.33977 0.0
H1073 H 0.39854 0.46707 0.32649 0.0
H1074 H 0.43814 0.49428 0.32245 0.0
H1075 H 0.35477 0.49395 0.31525 0.0
H1076 H 0.36199 0.43612 0.38485 0.0
H1077 H 0.38533 0.46256 0.37394 0.0
H1078 H 0.37689 0.4395 0.35786 0.0
C1079 C 0.4177 0.52799 0.33208 0.0
C1080 C 0.43353 0.52167 0.32802 0.0
C1081 C 0.39533 0.51236 0.33575 0.0
C1082 C 0.38802 0.49007 0.33447 0.0
C1083 C 0.4037 0.48392 0.32872 0.0
H1084 H 0.25619 0.39096 0.31561 0.0
H1085 H 0.29363 0.42247 0.31165 0.0
C1086 C 0.4263 0.49952 0.32595 0.0
C1087 C 0.36397 0.47369 0.33867 0.0
H1088 H 0.32668 0.42383 0.36924 0.0
C1089 C 0.34874 0.47874 0.32727 0.0
C1090 C 0.35582 0.45386 0.35458 0.0
C1091 C 0.37087 0.44779 0.36868 0.0
C1092 C 0.32585 0.46453 0.33104 0.0
C1093 C 0.31787 0.44438 0.34606 0.0
C1094 C 0.33291 0.43936 0.35775 0.0
C1095 C 0.29415 0.42741 0.34822 0.0
C1096 C 0.3103 0.47122 0.31908 0.0
C1097 C 0.2819 0.41985 0.37009 0.0
C1098 C 0.26035 0.40178 0.37236 0.0
C1099 C 0.25101 0.39114 0.35277 0.0
C1100 C 0.26298 0.39927 0.33081 0.0
C1101 C 0.28435 0.41722 0.32854 0.0
H1102 H 0.31867 0.48917 0.31273 0.0
H1103 H 0.30393 0.46229 0.30367 0.0
H1104 H 0.29594 0.46685 0.3313 0.0
H1105 H 0.28928 0.42745 0.3855 0.0
H1106 H 0.25149 0.39546 0.38952 0.0
H1107 H 0.48921 0.91821 0.35822 0.0
H1108 H 0.51435 0.90294 0.36055 0.0
H1109 H 0.47815 0.86058 0.30916 0.0
H1110 H 0.45245 0.87517 0.30781 0.0
H1111 H 0.49036 0.83949 0.34675 0.0
H1112 H 0.56088 0.91965 0.3072 0.0
H1113 H 0.5478 0.92148 0.3331 0.0
H1114 H 0.53265 0.91405 0.30713 0.0
C1115 C 0.48679 0.90567 0.34749 0.0
C1116 C 0.46947 0.89817 0.33242 0.0
C1117 C 0.50101 0.89697 0.3488 0.0
C1118 C 0.49823 0.88091 0.33475 0.0
C1119 C 0.48058 0.87304 0.32004 0.0
H1120 H 0.6004 0.85532 0.29599 0.0
H1121 H 0.56502 0.85455 0.29763 0.0
C1122 C 0.46621 0.88158 0.31897 0.0
C1123 C 0.51453 0.8733 0.33449 0.0
H1124 H 0.56934 0.89208 0.32292 0.0
C1125 C 0.50763 0.85091 0.34152 0.0
C1126 C 0.53691 0.88823 0.3272 0.0
C1127 C 0.545 0.91214 0.318 0.0
C1128 C 0.52289 0.84325 0.34205 0.0
C1129 C 0.54532 0.85842 0.33556 0.0
C1130 C 0.55205 0.88062 0.32815 0.0
C1131 C 0.5625 0.85205 0.33558 0.0
C1132 C 0.51512 0.81913 0.34918 0.0
C1133 C 0.57227 0.8501 0.35654 0.0
C1134 C 0.59261 0.85062 0.35568 0.0
C1135 C 0.6034 0.85346 0.33382 0.0
C1136 C 0.59266 0.85365 0.31306 0.0
C1137 C 0.57234 0.85291 0.31395 0.0
H1138 H 0.49685 0.80919 0.35226 0.0
H1139 H 0.52052 0.81277 0.33526 0.0
H1140 H 0.5228 0.81694 0.36556 0.0
H1141 H 0.56494 0.84973 0.37335 0.0
H1142 H 0.60051 0.85024 0.37192 0.0
H1143 H 0.10842 0.59466 0.30068 0.0
H1144 H 0.12395 0.6331 0.30722 0.0
H1145 H 0.09094 0.61149 0.37673 0.0
H1146 H 0.07525 0.57268 0.36999 0.0
H1147 H 0.08413 0.64409 0.34283 0.0
H1148 H 0.17236 0.66838 0.35412 0.0
H1149 H 0.15883 0.65124 0.33172 0.0
H1150 H 0.15003 0.64048 0.36212 0.0
C1151 C 0.10475 0.59824 0.31742 0.0
C1152 C 0.09072 0.58104 0.33486 0.0
C1153 C 0.11367 0.62005 0.32119 0.0
C1154 C 0.1088 0.62502 0.34253 0.0
C1155 C 0.09499 0.60784 0.36021 0.0
H1156 H 0.14884 0.74468 0.39563 0.0
H1157 H 0.14899 0.7125 0.38423 0.0
C1158 C 0.08605 0.58585 0.35643 0.0
C1159 C 0.11677 0.64823 0.34523 0.0
H1160 H 0.16354 0.69709 0.34903 0.0
C1161 C 0.10146 0.65571 0.34425 0.0
C1162 C 0.13939 0.66319 0.34704 0.0
C1163 C 0.1562 0.65553 0.34897 0.0
C1164 C 0.10818 0.67793 0.34493 0.0
C1165 C 0.13094 0.69311 0.3461 0.0
C1166 C 0.14624 0.68553 0.34741 0.0
C1167 C 0.13836 0.71619 0.34926 0.0
C1168 C 0.09074 0.6848 0.34509 0.0
C1169 C 0.13425 0.72999 0.3326 0.0
C1170 C 0.13415 0.74847 0.33915 0.0
C1171 C 0.13839 0.75321 0.36227 0.0
C1172 C 0.14551 0.74119 0.3777 0.0
C1173 C 0.14558 0.72281 0.3712 0.0
H1174 H 0.07382 0.67042 0.34873 0.0
H1175 H 0.09372 0.69585 0.35857 0.0
H1176 H 0.09137 0.69389 0.32761 0.0
H1177 H 0.12904 0.7253 0.31539 0.0
H1178 H 0.12854 0.75755 0.32707 0.0
H1179 H 0.82098 0.0978 0.36992 0.0
H1180 H 0.79485 0.06026 0.36315 0.0
H1181 H 0.849 0.04743 0.35535 0.0
H1182 H 0.87461 0.08394 0.3655 0.0
H1183 H 0.78648 0.03711 0.33124 0.0
H1184 H 0.81384 0.99738 0.40317 0.0
H1185 H 0.82442 0.02668 0.3984 0.0
H1186 H 0.83553 0.01424 0.38089 0.0
C1187 C 0.82717 0.08682 0.36693 0.0
C1188 C 0.84968 0.09358 0.36852 0.0
C1189 C 0.81231 0.06543 0.3629 0.0
C1190 C 0.8198 0.05061 0.35961 0.0
C1191 C 0.84262 0.0581 0.35898 0.0
H1192 H 0.74001 0.92805 0.30739 0.0
H1193 H 0.77117 0.96173 0.31809 0.0
C1194 C 0.85735 0.07917 0.36412 0.0
C1195 C 0.80356 0.02736 0.35732 0.0
H1196 H 0.78765 0.97373 0.37854 0.0
C1197 C 0.78675 0.02335 0.34176 0.0
C1198 C 0.80368 0.00922 0.37119 0.0
C1199 C 0.8202 0.01209 0.38951 0.0
C1200 C 0.77017 0.0019 0.33968 0.0
C1201 C 0.77079 0.98396 0.35291 0.0
C1202 C 0.78746 0.9877 0.36841 0.0
C1203 C 0.75433 0.96125 0.34997 0.0
C1204 C 0.75186 -0.00156 0.32353 0.0
C1205 C 0.73508 0.94948 0.36504 0.0
C1206 C 0.71735 0.9301 0.35907 0.0
C1207 C 0.71884 0.92269 0.33791 0.0
C1208 C 0.73865 0.93367 0.32376 0.0
C1209 C 0.75639 0.95277 0.32986 0.0
H1210 H 0.75264 0.01417 0.31615 0.0
H1211 H 0.75297 0.99016 0.30872 0.0
H1212 H 0.73553 0.98753 0.33325 0.0
H1213 H 0.73328 0.956 0.38055 0.0
H1214 H 0.70206 0.92182 0.37006 0.0
H1215 H 0.91835 0.81317 0.35836 0.0
H1216 H 0.9584 0.82887 0.35656 0.0
H1217 H 0.95019 0.76669 0.39 0.0
H1218 H 0.9099 0.7503 0.38921 0.0
H1219 H 0.98999 0.83629 0.38437 0.0
H1220 H 0.98287 0.77314 0.33042 0.0
H1221 H 0.95936 0.77578 0.33838 0.0
H1222 H 0.96885 0.76113 0.35895 0.0
C1223 C 0.92517 0.80275 0.36472 0.0
C1224 C 0.91127 0.78023 0.37252 0.0
C1225 C 0.948 0.81183 0.36416 0.0
C1226 C 0.95725 0.79868 0.37218 0.0
C1227 C 0.94334 0.77683 0.38266 0.0
H1228 H 0.07961 0.81795 0.40307 0.0
H1229 H 0.04809 0.82401 0.40005 0.0
C1230 C 0.92042 0.76753 0.38244 0.0
C1231 C 0.98121 0.80736 0.36785 0.0
H1232 H 0.01824 0.7956 0.34402 0.0
C1233 C -0.00381 0.82752 0.37534 0.0
C1234 C 0.98928 0.79632 0.35531 0.0
C1235 C 0.97423 0.77553 0.34509 0.0
C1236 C 0.01908 0.83623 0.37178 0.0
C1237 C 0.027 0.82427 0.36084 0.0
C1238 C 0.01207 0.80481 0.35228 0.0
C1239 C 0.05 0.82891 0.36191 0.0
C1240 C 0.03463 0.85789 0.38005 0.0
C1241 C 0.06205 0.83054 0.34141 0.0
C1242 C 0.08015 0.82702 0.34313 0.0
C1243 C 0.08585 0.8214 0.36535 0.0
C1244 C 0.07507 0.82182 0.38575 0.0
C1245 C 0.05735 0.82569 0.38404 0.0
H1246 H 0.02667 0.86819 0.38085 0.0
H1247 H 0.03934 0.85474 0.39802 0.0
H1248 H 0.04994 0.86725 0.36824 0.0
H1249 H 0.05641 0.83279 0.32418 0.0
H1250 H 0.08849 0.82696 0.32724 0.0
H1251 H 0.214 0.12754 0.35686 0.0
H1252 H 0.20128 0.15412 0.35231 0.0
H1253 H 0.25648 0.19752 0.38953 0.0
H1254 H 0.27154 0.17268 0.38983 0.0
H1255 H 0.18563 0.16757 0.3786 0.0
H1256 H 0.26194 0.24295 0.34113 0.0
H1257 H 0.26018 0.21638 0.34469 0.0
H1258 H 0.2666 0.2321 0.36909 0.0
C1259 C 0.22411 0.14322 0.36298 0.0
C1260 C 0.24421 0.14812 0.37306 0.0
C1261 C 0.21646 0.15829 0.36094 0.0
C1262 C 0.22802 0.1783 0.37011 0.0
C1263 C 0.2476 0.18278 0.3813 0.0
H1264 H 0.19202 0.27836 0.38758 0.0
H1265 H 0.19716 0.24615 0.39676 0.0
C1266 C 0.25594 0.16819 0.3821 0.0
C1267 C 0.219 0.19384 0.3685 0.0
H1268 H 0.23292 0.24801 0.35528 0.0
C1269 C 0.1961 0.18513 0.37331 0.0
C1270 C 0.23237 0.21687 0.3614 0.0
C1271 C 0.25655 0.22754 0.35354 0.0
C1272 C 0.18637 0.19863 0.37117 0.0
C1273 C 0.19991 0.22153 0.3651 0.0
C1274 C 0.2227 0.23038 0.36048 0.0
C1275 C 0.19081 0.2367 0.36183 0.0
C1276 C 0.16166 0.18844 0.37491 0.0
C1277 C 0.18447 0.24129 0.33955 0.0
C1278 C 0.18156 0.2596 0.33433 0.0
C1279 C 0.18475 0.27346 0.35136 0.0
C1280 C 0.18889 0.26758 0.37436 0.0
C1281 C 0.19208 0.24936 0.37952 0.0
H1282 H 0.15339 0.17038 0.38056 0.0
H1283 H 0.15764 0.19626 0.38837 0.0
H1284 H 0.15486 0.19158 0.35823 0.0
H1285 H 0.18359 0.2318 0.32565 0.0
H1286 H 0.17885 0.2641 0.31635 0.0
H1287 H 0.59031 0.48707 0.7528 0.0
H1288 H 0.62944 0.51441 0.74648 0.0
H1289 H 0.62281 0.52025 0.67144 0.0
H1290 H 0.58317 0.49497 0.67803 0.0
H1291 H 0.66098 0.5125 0.72662 0.0
H1292 H 0.65824 0.58293 0.67484 0.0
H1293 H 0.63365 0.55921 0.68895 0.0
H1294 H 0.64495 0.55856 0.66097 0.0
C1295 C 0.59688 0.49486 0.73508 0.0
C1296 C 0.58342 0.48894 0.71596 0.0
C1297 C 0.61949 0.51027 0.73138 0.0
C1298 C 0.62931 0.51983 0.70845 0.0
C1299 C 0.6158 0.51388 0.68936 0.0
H1300 H 0.76979 0.61389 0.66323 0.0
H1301 H 0.73159 0.58352 0.66293 0.0
C1302 C 0.59312 0.49908 0.69313 0.0
C1303 C 0.65374 0.53504 0.70461 0.0
H1304 H 0.69343 0.58565 0.67759 0.0
C1305 C 0.66797 0.52851 0.71595 0.0
C1306 C 0.66316 0.55589 0.69032 0.0
C1307 C 0.64919 0.56464 0.67827 0.0
C1308 C 0.69105 0.54232 0.71395 0.0
C1309 C 0.70033 0.5633 0.70021 0.0
C1310 C 0.6863 0.56951 0.68805 0.0
C1311 C 0.72416 0.58 0.70036 0.0
C1312 C 0.70531 0.53436 0.72676 0.0
C1313 C 0.73272 0.588 0.72145 0.0
C1314 C 0.75433 0.60534 0.72164 0.0
C1315 C 0.76802 0.61519 0.70072 0.0
C1316 C 0.75972 0.60668 0.67965 0.0
C1317 C 0.73789 0.58936 0.67945 0.0
H1318 H 0.69684 0.51609 0.73015 0.0
H1319 H 0.7213 0.54053 0.71663 0.0
H1320 H 0.70883 0.54057 0.74405 0.0
H1321 H 0.7224 0.58134 0.73773 0.0
H1322 H 0.76013 0.61136 0.73822 0.0
H1323 H 0.53018 0.1383 0.71765 0.0
H1324 H 0.51214 0.16061 0.70932 0.0
H1325 H 0.477 0.12145 0.65513 0.0
H1326 H 0.49489 0.09882 0.66398 0.0
H1327 H 0.51052 0.18598 0.66864 0.0
H1328 H 0.42841 0.11535 0.70102 0.0
H1329 H 0.45385 0.115 0.70601 0.0
H1330 H 0.44148 0.1094 0.67825 0.0
C1331 C 0.51853 0.13459 0.70401 0.0
C1332 C 0.5134 0.11683 0.69163 0.0
C1333 C 0.50846 0.14735 0.69915 0.0
C1334 C 0.49318 0.1425 0.68179 0.0
C1335 C 0.48861 0.12519 0.66881 0.0
H1336 H 0.39834 0.17446 0.63547 0.0
H1337 H 0.43399 0.17575 0.63234 0.0
C1338 C 0.49867 0.11232 0.67378 0.0
C1339 C 0.48096 0.15465 0.67832 0.0
H1340 H 0.42879 0.14701 0.68071 0.0
C1341 C 0.49264 0.17754 0.67119 0.0
C1342 C 0.45779 0.14363 0.68263 0.0
C1343 C 0.44465 0.11955 0.69267 0.0
C1344 C 0.48141 0.18952 0.66707 0.0
C1345 C 0.45817 0.17812 0.66979 0.0
C1346 C 0.44667 0.15547 0.67789 0.0
C1347 C 0.44471 0.18881 0.66514 0.0
C1348 C 0.49417 0.21406 0.65973 0.0
C1349 C 0.44001 0.19756 0.68357 0.0
C1350 C 0.41969 0.19688 0.6853 0.0
C1351 C 0.40417 0.18752 0.66859 0.0
C1352 C 0.41029 0.18199 0.64833 0.0
C1353 C 0.43065 0.18279 0.64653 0.0
H1354 H 0.51227 0.22043 0.65772 0.0
H1355 H 0.48848 0.21837 0.64279 0.0
H1356 H 0.49086 0.22242 0.67313 0.0
H1357 H 0.45056 0.202 0.69821 0.0
H1358 H 0.41503 0.201 0.70117 0.0
H1359 H 0.94164 0.41446 0.68981 0.0
H1360 H 0.9247 0.37444 0.68961 0.0
H1361 H 0.85993 0.36757 0.69785 0.0
H1362 H 0.87679 0.40726 0.69884 0.0
H1363 H 0.88651 0.34167 0.7332 0.0
H1364 H 0.8663 0.33299 0.63946 0.0
H1365 H 0.89059 0.3569 0.64712 0.0
H1366 H 0.86375 0.35322 0.65374 0.0
C1367 C 0.92381 0.40437 0.69114 0.0
C1368 C 0.91046 0.41382 0.69412 0.0
C1369 C 0.91418 0.38165 0.69107 0.0
C1370 C 0.89112 0.36823 0.69375 0.0
C1371 C 0.87775 0.37777 0.69564 0.0
H1372 H 0.81755 0.22661 0.6873 0.0
H1373 H 0.82359 0.26265 0.69534 0.0
C1374 C 0.88736 0.4004 0.6959 0.0
C1375 C 0.88101 0.34409 0.69622 0.0
H1376 H 0.85772 0.30068 0.66508 0.0
C1377 C 0.88007 0.33262 0.71839 0.0
C1378 C 0.87237 0.3325 0.67692 0.0
C1379 C 0.87321 0.34438 0.65287 0.0
C1380 C 0.87122 0.30969 0.72158 0.0
C1381 C 0.86337 0.29815 0.70204 0.0
C1382 C 0.86357 0.30959 0.68008 0.0
C1383 C 0.85787 0.27495 0.70295 0.0
C1384 C 0.87061 0.29799 0.74567 0.0
C1385 C 0.87493 0.26982 0.7053 0.0
C1386 C 0.87161 0.24956 0.70036 0.0
C1387 C 0.85109 0.23401 0.69341 0.0
C1388 C 0.83342 0.23832 0.69297 0.0
C1389 C 0.83688 0.25886 0.69746 0.0
H1390 H 0.87137 0.30782 0.75977 0.0
H1391 H 0.85538 0.28164 0.74903 0.0
H1392 H 0.88507 0.29534 0.74667 0.0
H1393 H 0.89132 0.28212 0.70915 0.0
H1394 H 0.88547 0.24654 0.7006 0.0
H1395 H 0.13908 0.93354 0.67635 0.0
H1396 H 0.16175 0.9729 0.67956 0.0
H1397 H 0.22084 0.96821 0.67175 0.0
H1398 H 0.19808 0.9287 0.66883 0.0
H1399 H 0.21713 0.99505 0.70932 0.0
H1400 H 0.20123 0.01609 0.61699 0.0
H1401 H 0.17827 0.99531 0.63641 0.0
H1402 H 0.19964 0.99002 0.62741 0.0
C1403 C 0.15688 0.94081 0.67613 0.0
C1404 C 0.16694 0.92825 0.6725 0.0
C1405 C 0.16977 0.96326 0.67767 0.0
C1406 C 0.19289 0.97339 0.67558 0.0
C1407 C 0.20299 0.96062 0.67332 0.0
H1408 H 0.30436 0.09994 0.6492 0.0
H1409 H 0.27174 0.0651 0.64368 0.0
C1410 C 0.19007 0.93816 0.67175 0.0
C1411 C 0.20654 0.99752 0.67438 0.0
H1412 H 0.22425 0.04567 0.63725 0.0
C1413 C 0.21853 0.00619 0.69372 0.0
C1414 C 0.20843 0.01183 0.65381 0.0
C1415 C 0.19634 0.00299 0.63233 0.0
C1416 C 0.23263 0.02892 0.69299 0.0
C1417 C 0.23449 0.04332 0.67245 0.0
C1418 C 0.2224 0.03462 0.65311 0.0
C1419 C 0.25092 0.06708 0.67011 0.0
C1420 C 0.24615 0.03727 0.71386 0.0
C1421 C 0.24936 0.08052 0.68534 0.0
C1422 C 0.26795 0.10056 0.68829 0.0
C1423 C 0.28812 0.10728 0.67594 0.0
C1424 C 0.28883 0.09517 0.6586 0.0
C1425 C 0.27026 0.07521 0.65559 0.0
H1426 H 0.2457 0.02371 0.72645 0.0
H1427 H 0.26365 0.04926 0.70798 0.0
H1428 H 0.23948 0.04582 0.72337 0.0
H1429 H 0.23447 0.07457 0.69653 0.0
H1430 H 0.26721 0.10949 0.70206 0.0
H1431 H 0.06921 0.23959 0.70959 0.0
H1432 H 0.0292 0.21965 0.72033 0.0
H1433 H 0.0199 0.17392 0.6718 0.0
H1434 H 0.05982 0.19364 0.66165 0.0
H1435 H 0.00262 0.21891 0.68474 0.0
H1436 H 0.9756 0.13347 0.72631 0.0
H1437 H 0.00398 0.15539 0.72527 0.0
H1438 H -0.00689 0.1418 0.69985 0.0
C1439 C 0.05852 0.22486 0.70194 0.0
C1440 C 0.06707 0.21797 0.68486 0.0
C1441 C 0.03586 0.21347 0.70805 0.0
C1442 C 0.0217 0.19518 0.69705 0.0
C1443 C 0.03058 0.18762 0.68094 0.0
H1444 H 0.89351 0.15856 0.65134 0.0
H1445 H 0.92951 0.16109 0.6576 0.0
C1446 C 0.0532 0.19893 0.67496 0.0
C1447 C -0.00227 0.18687 0.6987 0.0
H1448 H 0.94732 0.14038 0.70996 0.0
C1449 C 0.99054 0.20182 0.69067 0.0
C1450 C 0.98211 0.16448 0.706 0.0
C1451 C 0.98907 0.14788 0.71504 0.0
C1452 C 0.9681 0.19493 0.68934 0.0
C1453 C 0.95252 0.17254 0.69628 0.0
C1454 C 0.95951 0.15754 0.70468 0.0
C1455 C 0.92891 0.16488 0.69442 0.0
C1456 C 0.96112 0.21153 0.68011 0.0
C1457 C 0.91656 0.16529 0.7134 0.0
C1458 C 0.89599 0.16366 0.70993 0.0
C1459 C 0.88793 0.16202 0.68736 0.0
C1460 C 0.89963 0.16004 0.66882 0.0
C1461 C 0.92 0.16129 0.6724 0.0
H1462 H 0.97539 0.2285 0.67621 0.0
H1463 H 0.95244 0.20694 0.66371 0.0
H1464 H 0.94937 0.21147 0.69321 0.0
H1465 H 0.92349 0.16839 0.73039 0.0
H1466 H 0.88723 0.16536 0.72441 0.0
H1467 H 0.72888 0.82204 0.66766 0.0
H1468 H 0.74427 0.79698 0.66982 0.0
H1469 H 0.8029 0.84795 0.62899 0.0
H1470 H 0.78778 0.87308 0.62789 0.0
H1471 H 0.75813 0.78029 0.63754 0.0
H1472 H 0.82894 0.83387 0.6869 0.0
H1473 H 0.80578 0.8383 0.6818 0.0
H1474 H 0.82732 0.84742 0.65896 0.0
C1475 C 0.74485 0.82757 0.65884 0.0
C1476 C 0.75709 0.84917 0.64728 0.0
C1477 C 0.75368 0.81338 0.66012 0.0
C1478 C 0.77492 0.82067 0.64985 0.0
C1479 C 0.78671 0.84206 0.63744 0.0
H1480 H 0.82193 0.72356 0.64932 0.0
H1481 H 0.81386 0.75312 0.63411 0.0
C1482 C 0.77798 0.85628 0.63646 0.0
C1483 C 0.78499 0.80617 0.65294 0.0
H1484 H 0.82862 0.80248 0.67598 0.0
C1485 C 0.77363 0.78519 0.64578 0.0
C1486 C 0.80511 0.81247 0.66397 0.0
C1487 C 0.81741 0.83414 0.67357 0.0
C1488 C 0.78159 0.77022 0.64971 0.0
C1489 C 0.80178 0.77659 0.66057 0.0
C1490 C 0.81338 0.79776 0.66723 0.0
C1491 C 0.80929 0.76049 0.66861 0.0
C1492 C 0.76774 0.74732 0.64335 0.0
C1493 C 0.81043 0.75556 0.69282 0.0
C1494 C 0.81508 0.73898 0.70139 0.0
C1495 C 0.81884 0.72685 0.68601 0.0
C1496 C 0.81904 0.73258 0.66159 0.0
C1497 C 0.81422 0.74929 0.65293 0.0
H1498 H 0.75087 0.74387 0.63891 0.0
H1499 H 0.77585 0.74548 0.62783 0.0
H1500 H 0.76623 0.73478 0.65814 0.0
H1501 H 0.80685 0.764 0.70527 0.0
H1502 H 0.81511 0.73523 0.72029 0.0
H1503 H 0.10629 0.83192 0.65187 0.0
H1504 H 0.06688 0.80413 0.65478 0.0
H1505 H 0.05153 0.84823 0.68606 0.0
H1506 H 0.08982 0.87683 0.67959 0.0
H1507 H 0.03746 0.78124 0.68738 0.0
H1508 H 0.00794 0.83386 0.63953 0.0
H1509 H 0.03697 0.84284 0.64077 0.0
H1510 H 0.02213 0.84623 0.66426 0.0
C1511 C 0.09439 0.83586 0.65871 0.0
C1512 C 0.10134 0.85672 0.66544 0.0
C1513 C 0.07185 0.81984 0.6607 0.0
C1514 C 0.0559 0.82419 0.67001 0.0
C1515 C 0.06312 0.84462 0.67783 0.0
H1516 H 0.92256 0.72098 0.72382 0.0
H1517 H 0.96098 0.75162 0.72039 0.0
C1518 C 0.08531 0.86085 0.67481 0.0
C1519 C 0.03181 0.80748 0.67203 0.0
H1520 H 0.98043 0.80141 0.66374 0.0
C1521 C 0.02507 0.7857 0.68204 0.0
C1522 C 0.01538 0.81294 0.66463 0.0
C1523 C 0.02104 0.83518 0.65146 0.0
C1524 C 0.00256 0.76956 0.6854 0.0
C1525 C 0.98625 0.7755 0.67949 0.0
C1526 C -0.00708 0.79704 0.66895 0.0
C1527 C 0.9622 0.75917 0.68245 0.0
C1528 C -0.00358 0.7461 0.69451 0.0
C1529 C 0.94974 0.75427 0.66255 0.0
C1530 C 0.92777 0.73733 0.66462 0.0
C1531 C 0.91779 0.72498 0.68661 0.0
C1532 C 0.92978 0.73061 0.70677 0.0
C1533 C 0.95181 0.7478 0.70473 0.0
H1534 H 0.01084 0.74341 0.69367 0.0
H1535 H 0.98991 0.74212 0.71315 0.0
H1536 H 0.98329 0.73449 0.68419 0.0
H1537 H 0.95735 0.76278 0.6452 0.0
H1538 H 0.91902 0.73282 0.64875 0.0
H1539 H 0.16245 0.2564 0.68108 0.0
H1540 H 0.18864 0.24235 0.68405 0.0
H1541 H 0.14538 0.18887 0.6466 0.0
H1542 H 0.11898 0.20253 0.64468 0.0
H1543 H 0.15726 0.17469 0.68777 0.0
H1544 H 0.23138 0.2428 0.63574 0.0
H1545 H 0.22093 0.2517 0.65812 0.0
H1546 H 0.20437 0.24037 0.63397 0.0
C1547 C 0.15905 0.24204 0.67297 0.0
C1548 C 0.13925 0.23076 0.66212 0.0
C1549 C 0.17387 0.23402 0.67463 0.0
C1550 C 0.16903 0.21472 0.66527 0.0
C1551 C 0.14946 0.20386 0.65378 0.0
H1552 H 0.25436 0.16195 0.64922 0.0
H1553 H 0.21982 0.16314 0.65008 0.0
C1554 C 0.1346 0.21178 0.65235 0.0
C1555 C 0.1835 0.20492 0.66901 0.0
H1556 H 0.23643 0.21565 0.65967 0.0
C1557 C 0.17455 0.18357 0.6815 0.0
C1558 C 0.20597 0.21654 0.66069 0.0
C1559 C 0.21621 0.23903 0.64619 0.0
C1560 C 0.1877 0.17371 0.68631 0.0
C1561 C 0.2102 0.18558 0.67852 0.0
C1562 C 0.21909 0.20675 0.66578 0.0
C1563 C 0.22522 0.17662 0.68293 0.0
C1564 C 0.17771 0.15081 0.69969 0.0
C1565 C 0.2388 0.18251 0.70192 0.0
C1566 C 0.25848 0.18175 0.70149 0.0
C1567 C 0.26458 0.17511 0.68207 0.0
C1568 C 0.24966 0.16668 0.66459 0.0
C1569 C 0.23002 0.16745 0.665 0.0
H1570 H 0.15981 0.14368 0.70452 0.0
H1571 H 0.17992 0.13992 0.68882 0.0
H1572 H 0.18649 0.15118 0.71599 0.0
H1573 H 0.23538 0.18987 0.71573 0.0
H1574 H 0.27004 0.18875 0.71485 0.0
H1575 H 0.73898 0.90639 0.69817 0.0
H1576 H 0.75408 0.94455 0.70685 0.0
H1577 H 0.79699 0.96857 0.64342 0.0
H1578 H 0.78198 0.93061 0.63496 0.0
H1579 H 0.80798 0.98165 0.70374 0.0
H1580 H 0.75186 0.99682 0.64437 0.0
H1581 H 0.74404 0.96974 0.6596 0.0
H1582 H 0.76429 0.98145 0.63522 0.0
C1583 C 0.75183 0.91992 0.68641 0.0
C1584 C 0.75943 0.91593 0.66595 0.0
C1585 C 0.76038 0.94155 0.69127 0.0
C1586 C 0.77649 0.95923 0.67562 0.0
C1587 C 0.7845 0.95509 0.65559 0.0
H1588 H 0.81876 0.09985 0.66589 0.0
H1589 H 0.81396 0.06481 0.65557 0.0
C1590 C 0.77602 0.93357 0.6508 0.0
C1591 C 0.78455 0.98218 0.67951 0.0
H1592 H 0.77819 0.02673 0.66198 0.0
C1593 C 0.80155 0.9916 0.69466 0.0
C1594 C 0.77629 0.99503 0.66725 0.0
C1595 C 0.75805 0.98537 0.6507 0.0
C1596 C 0.81062 0.01374 0.69792 0.0
C1597 C 0.80194 0.02659 0.68618 0.0
C1598 C 0.78505 0.01708 0.67077 0.0
C1599 C 0.80824 0.04891 0.69173 0.0
C1600 C 0.82957 0.02305 0.71376 0.0
C1601 C 0.80715 0.05179 0.71528 0.0
C1602 C 0.81101 0.07182 0.72113 0.0
C1603 C 0.81456 0.08931 0.70357 0.0
C1604 C 0.81614 0.08677 0.67982 0.0
C1605 C 0.81318 0.06671 0.67396 0.0
H1606 H 0.83971 0.01486 0.71323 0.0
H1607 H 0.8405 0.04106 0.70876 0.0
H1608 H 0.82289 0.01986 0.73224 0.0
H1609 H 0.80231 0.03822 0.72932 0.0
H1610 H 0.80947 0.07281 0.73967 0.0
H1611 H 0.51087 0.40541 0.74217 0.0
H1612 H 0.48563 0.36795 0.73389 0.0
H1613 H 0.48896 0.39291 0.66054 0.0
H1614 H 0.51438 0.43063 0.66898 0.0
H1615 H 0.44387 0.36332 0.68661 0.0
H1616 H 0.50124 0.32936 0.6938 0.0
H1617 H 0.50264 0.34625 0.71568 0.0
H1618 H 0.51057 0.35833 0.68543 0.0
C1619 C 0.50613 0.40281 0.72433 0.0
C1620 C 0.51423 0.42069 0.7062 0.0
C1621 C 0.49195 0.3815 0.71958 0.0
C1622 C 0.4857 0.37772 0.6966 0.0
C1623 C 0.49379 0.39557 0.67836 0.0
H1624 H 0.40103 0.25493 0.64475 0.0
H1625 H 0.43424 0.2877 0.65397 0.0
C1626 C 0.50816 0.41697 0.68313 0.0
C1627 C 0.46971 0.35519 0.69218 0.0
H1628 H 0.46294 0.30356 0.6935 0.0
C1629 C 0.44803 0.35027 0.68795 0.0
C1630 C 0.47535 0.33833 0.69376 0.0
C1631 C 0.49874 0.34322 0.69724 0.0
C1632 C 0.43157 0.3287 0.68598 0.0
C1633 C 0.43692 0.31158 0.68873 0.0
C1634 C 0.45882 0.31664 0.69204 0.0
C1635 C 0.41989 0.28861 0.68694 0.0
C1636 C 0.40857 0.32438 0.68084 0.0
C1637 C 0.4015 0.27744 0.70328 0.0
C1638 C 0.38256 0.25867 0.69806 0.0
C1639 C 0.38204 0.25085 0.67661 0.0
C1640 C 0.4013 0.26055 0.66159 0.0
C1641 C 0.42019 0.27932 0.66676 0.0
H1642 H 0.40837 0.33981 0.67427 0.0
H1643 H 0.40154 0.31288 0.66756 0.0
H1644 H 0.39767 0.31668 0.69726 0.0
H1645 H 0.4011 0.28431 0.71906 0.0
H1646 H 0.36773 0.25161 0.70965 0.0
H1647 H 0.58641 0.14923 0.69867 0.0
H1648 H 0.62654 0.16452 0.69483 0.0
H1649 H 0.61793 0.10005 0.71871 0.0
H1650 H 0.57764 0.0845 0.72067 0.0
H1651 H 0.65922 0.16669 0.72266 0.0
H1652 H 0.64746 0.11402 0.65348 0.0
H1653 H 0.62518 0.11694 0.66525 0.0
H1654 H 0.63308 0.09831 0.68101 0.0
C1655 C 0.59318 0.13835 0.70267 0.0
C1656 C 0.57918 0.11556 0.70864 0.0
C1657 C 0.61602 0.14712 0.7009 0.0
C1658 C 0.62505 0.13323 0.70562 0.0
C1659 C 0.61113 0.11085 0.71414 0.0
H1660 H 0.74083 0.13692 0.73044 0.0
H1661 H 0.71045 0.1447 0.73006 0.0
C1662 C 0.58826 0.10201 0.71539 0.0
C1663 C 0.6487 0.14167 0.69976 0.0
H1664 H 0.68324 0.13128 0.66862 0.0
C1665 C 0.66455 0.1592 0.7106 0.0
C1666 C 0.65558 0.13239 0.68336 0.0
C1667 C 0.63942 0.11454 0.66992 0.0
C1668 C 0.68715 0.16646 0.70684 0.0
C1669 C 0.69378 0.15578 0.69206 0.0
C1670 C 0.67806 0.13949 0.67987 0.0
C1671 C 0.71564 0.15739 0.6929 0.0
C1672 C 0.70369 0.18487 0.71933 0.0
C1673 C 0.72884 0.16227 0.67212 0.0
C1674 C 0.74634 0.15778 0.6723 0.0
C1675 C 0.75012 0.14773 0.69309 0.0
C1676 C 0.73772 0.14412 0.71405 0.0
C1677 C 0.7207 0.14901 0.71398 0.0
H1678 H 0.69733 0.19594 0.72323 0.0
H1679 H 0.70683 0.17777 0.73632 0.0
H1680 H 0.71964 0.19472 0.70863 0.0
H1681 H 0.72488 0.16846 0.65563 0.0
H1682 H 0.75606 0.161 0.6561 0.0
H1683 H 0.94337 0.50968 0.70971 0.0
H1684 H 0.92971 0.536 0.70967 0.0
H1685 H 0.864 0.48456 0.69929 0.0
H1686 H 0.87738 0.45822 0.70082 0.0
H1687 H 0.91108 0.54989 0.67564 0.0
H1688 H 0.85105 0.50878 0.75302 0.0
H1689 H 0.87138 0.50105 0.74627 0.0
H1690 H 0.84604 0.49075 0.73142 0.0
C1691 C 0.926 0.50408 0.7077 0.0
C1692 C 0.91147 0.48206 0.70497 0.0
C1693 C 0.9182 0.51906 0.70759 0.0
C1694 C 0.89572 0.51219 0.70487 0.0
C1695 C 0.88128 0.49018 0.70199 0.0
H1696 H 0.84226 0.59522 0.65275 0.0
H1697 H 0.84881 0.56408 0.66235 0.0
C1698 C 0.88902 0.47523 0.70237 0.0
C1699 C 0.88743 0.52813 0.70404 0.0
H1700 H 0.84752 0.53654 0.72763 0.0
C1701 C 0.8973 0.54703 0.68715 0.0
C1702 C 0.86956 0.52456 0.71921 0.0
C1703 C 0.85905 0.5053 0.73865 0.0
C1704 C 0.88943 0.56206 0.68457 0.0
C1705 C 0.87094 0.55793 0.69899 0.0
C1706 C 0.86144 0.53943 0.71635 0.0
C1707 C 0.8616 0.57297 0.69615 0.0
C1708 C 0.90101 0.58237 0.66647 0.0
C1709 C 0.865 0.58722 0.71281 0.0
C1710 C 0.86076 0.60475 0.70754 0.0
C1711 C 0.85314 0.60819 0.68557 0.0
C1712 C 0.84768 0.59261 0.67 0.0
C1713 C 0.85174 0.57504 0.67532 0.0
H1714 H 0.9174 0.58527 0.66002 0.0
H1715 H 0.89071 0.58038 0.65115 0.0
H1716 H 0.90336 0.59715 0.67394 0.0
H1717 H 0.87263 0.58588 0.72898 0.0
H1718 H 0.86571 0.61691 0.71951 0.0
H1719 H 0.4899 0.94386 0.29624 0.0
H1720 H 0.50451 0.95282 0.25484 0.0
H1721 H 0.44249 0.90098 0.23584 0.0
H1722 H 0.42807 0.892 0.27712 0.0
H1723 H 0.49262 0.9123 0.21385 0.0
H1724 H 0.46568 0.97545 0.20656 0.0
H1725 H 0.47816 0.97124 0.2329 0.0
H1726 H 0.45144 0.9501 0.22665 0.0
C1727 C 0.47968 0.93425 0.28317 0.0
C1728 C 0.45781 0.91775 0.2894 0.0
C1729 C 0.48797 0.93923 0.25972 0.0
C1730 C 0.47448 0.92754 0.24247 0.0
C1731 C 0.4531 0.91008 0.249 0.0
H1732 H 0.48528 0.95217 0.08989 0.0
H1733 H 0.47713 0.93303 0.13033 0.0
C1734 C 0.44483 0.90518 0.27238 0.0
C1735 C 0.48149 0.93552 0.21736 0.0
H1736 H 0.48396 0.97387 0.17314 0.0
C1737 C 0.49078 0.92574 0.20484 0.0
C1738 C 0.47865 0.95279 0.20581 0.0
C1739 C 0.46787 0.96307 0.2185 0.0
C1740 C 0.49787 0.93333 0.18091 0.0
C1741 C 0.49561 0.95104 0.1696 0.0
C1742 C 0.4859 0.96045 0.18208 0.0
C1743 C 0.50335 0.96051 0.14482 0.0
C1744 C 0.50813 0.9228 0.16791 0.0
C1745 C 0.52103 0.9821 0.13966 0.0
C1746 C 0.52555 0.99313 0.11671 0.0
C1747 C 0.51253 0.98265 0.0986 0.0
C1748 C 0.49583 0.96048 0.10348 0.0
C1749 C 0.49113 0.94953 0.12654 0.0
H1750 H 0.51015 0.91022 0.17969 0.0
H1751 H 0.49754 0.91479 0.15363 0.0
H1752 H 0.52454 0.93561 0.15957 0.0
H1753 H 0.53052 0.99081 0.15365 0.0
H1754 H 0.53845 0.01022 0.11334 0.0
H1755 H 0.0854 0.56683 0.26423 0.0
H1756 H 0.0738 0.56161 0.22445 0.0
H1757 H 0.04048 0.4911 0.2448 0.0
H1758 H 0.04999 0.4967 0.28582 0.0
H1759 H 0.07982 0.54641 0.19083 0.0
H1760 H 0.99042 0.49363 0.21722 0.0
H1761 H 0.01044 0.50649 0.23831 0.0
H1762 H 0.00646 0.48144 0.22859 0.0
C1763 C 0.07527 0.55021 0.26026 0.0
C1764 C 0.06774 0.53219 0.27821 0.0
C1765 C 0.06884 0.54719 0.2374 0.0
C1766 C 0.05547 0.52595 0.23154 0.0
C1767 C 0.04981 0.50771 0.249 0.0
H1768 H 0.0018 0.47813 0.10306 0.0
H1769 H 0.01673 0.48508 0.1413 0.0
C1770 C 0.05556 0.51083 0.27233 0.0
C1771 C 0.04736 0.52348 0.2073 0.0
H1772 H 0.00093 0.49914 0.17677 0.0
C1773 C 0.0625 0.53617 0.18787 0.0
C1774 C 0.02472 0.51031 0.20318 0.0
C1775 C 0.00706 0.49739 0.22294 0.0
C1776 C 0.05575 0.53592 0.1647 0.0
C1777 C 0.03329 0.52235 0.16069 0.0
C1778 C 0.01816 0.50962 0.17995 0.0
C1779 C 0.02533 0.51934 0.13661 0.0
C1780 C 0.07273 0.54983 0.14464 0.0
C1781 C 0.02539 0.53646 0.12095 0.0
C1782 C 0.01691 0.53257 0.09861 0.0
C1783 C 0.00786 0.51139 0.092 0.0
C1784 C 0.00809 0.49451 0.10776 0.0
C1785 C 0.01676 0.49846 0.12967 0.0
H1786 H 0.08989 0.55708 0.15039 0.0
H1787 H 0.0711 0.53988 0.13038 0.0
H1788 H 0.06991 0.56351 0.13718 0.0
H1789 H 0.03169 0.55267 0.12611 0.0
H1790 H 0.01707 0.54588 0.08677 0.0
H1791 H 0.44072 0.53661 0.27769 0.0
H1792 H 0.43968 0.52602 0.23824 0.0
H1793 H 0.49409 0.51419 0.25329 0.0
H1794 H 0.49348 0.52265 0.29317 0.0
H1795 H 0.46958 0.54721 0.20507 0.0
H1796 H 0.46052 0.46429 0.21944 0.0
H1797 H 0.45594 0.47641 0.24325 0.0
H1798 H 0.48349 0.48236 0.23462 0.0
C1799 C 0.45161 0.53063 0.27283 0.0
C1800 C 0.46712 0.53029 0.28834 0.0
C1801 C 0.45128 0.5249 0.25022 0.0
C1802 C 0.46669 0.51908 0.24267 0.0
C1803 C 0.48153 0.51788 0.25869 0.0
H1804 H 0.5211 0.50647 0.11521 0.0
H1805 H 0.51436 0.51408 0.15403 0.0
C1806 C 0.48138 0.52295 0.28143 0.0
C1807 C 0.46905 0.51674 0.2175 0.0
H1808 H 0.47806 0.48601 0.18192 0.0
C1809 C 0.47109 0.53362 0.19999 0.0
C1810 C 0.47099 0.49904 0.2107 0.0
C1811 C 0.46737 0.47943 0.22804 0.0
C1812 C 0.47601 0.53382 0.17616 0.0
C1813 C 0.479 0.51665 0.16962 0.0
C1814 C 0.47624 0.49943 0.18698 0.0
C1815 C 0.48502 0.51594 0.145 0.0
C1816 C 0.47866 0.55279 0.15841 0.0
C1817 C 0.47127 0.51528 0.12675 0.0
C1818 C 0.47547 0.51152 0.10439 0.0
C1819 C 0.49314 0.50776 0.10013 0.0
C1820 C 0.50739 0.50932 0.11808 0.0
C1821 C 0.50348 0.51356 0.14025 0.0
H1822 H 0.48193 0.56734 0.16695 0.0
H1823 H 0.49231 0.55777 0.14496 0.0
H1824 H 0.46312 0.54765 0.14928 0.0
H1825 H 0.45663 0.5165 0.13006 0.0
H1826 H 0.46399 0.51001 0.09096 0.0
H1827 H 0.96963 0.48967 0.73614 0.0
H1828 H 0.97851 0.49861 0.77639 0.0
H1829 H 0.90908 0.4616 0.7985 0.0
H1830 H 0.90036 0.45284 0.75812 0.0
H1831 H 0.93706 0.50597 0.81548 0.0
H1832 H 0.96899 0.4472 0.83143 0.0
H1833 H 0.97843 0.46563 0.80409 0.0
H1834 H 0.94978 0.44515 0.80924 0.0
C1835 C 0.95637 0.48407 0.74956 0.0
C1836 C 0.93439 0.4709 0.74433 0.0
C1837 C 0.96138 0.48891 0.77245 0.0
C1838 C 0.94444 0.48046 0.79038 0.0
C1839 C 0.92234 0.4682 0.78487 0.0
H1840 H 0.9643 0.47976 0.94214 0.0
H1841 H 0.95201 0.46746 0.90368 0.0
C1842 C 0.91735 0.46339 0.76193 0.0
C1843 C 0.94996 0.4838 0.81499 0.0
H1844 H 0.97508 0.47059 0.86044 0.0
C1845 C 0.94524 0.49816 0.8254 0.0
C1846 C 0.9602 0.47319 0.82795 0.0
C1847 C 0.96455 0.45677 0.81778 0.0
C1848 C 0.95139 0.50294 0.84821 0.0
C1849 C 0.96279 0.49331 0.86072 0.0
C1850 C 0.96659 0.47815 0.85069 0.0
C1851 C 0.9718 0.49981 0.88367 0.0
C1852 C 0.94574 0.51839 0.85868 0.0
C1853 C 0.98762 0.52177 0.88496 0.0
C1854 C -0.00561 0.52881 0.90672 0.0
C1855 C 0.98583 0.51391 0.9276 0.0
C1856 C 0.97116 0.49155 0.92626 0.0
C1857 C 0.9641 0.48454 0.90437 0.0
H1858 H 0.932 0.51947 0.84984 0.0
H1859 H 0.94101 0.51303 0.87782 0.0
H1860 H 0.96042 0.53514 0.85638 0.0
H1861 H -0.00578 0.53366 0.86913 0.0
H1862 H 0.00598 0.54607 0.90727 0.0
H1863 H 0.55455 0.45387 0.77309 0.0
H1864 H 0.54667 0.45868 0.81293 0.0
H1865 H 0.52918 0.50711 0.78346 0.0
H1866 H 0.53734 0.5023 0.74349 0.0
H1867 H 0.56067 0.49651 0.83865 0.0
H1868 H 0.47173 0.45499 0.82019 0.0
H1869 H 0.49249 0.45442 0.80194 0.0
H1870 H 0.48983 0.47869 0.79952 0.0
C1871 C 0.55014 0.46635 0.77527 0.0
C1872 C 0.54722 0.47824 0.75538 0.0
C1873 C 0.54534 0.46888 0.79795 0.0
C1874 C 0.53709 0.48304 0.80114 0.0
C1875 C 0.53542 0.49599 0.78135 0.0
H1876 H 0.48145 0.50883 0.91863 0.0
H1877 H 0.49161 0.50346 0.88029 0.0
C1878 C 0.54042 0.49355 0.7586 0.0
C1879 C 0.52846 0.48271 0.82494 0.0
H1880 H 0.48069 0.46748 0.85725 0.0
C1881 C 0.5432 0.49015 0.84278 0.0
C1882 C 0.5056 0.47412 0.83031 0.0
C1883 C 0.48889 0.46491 0.8121 0.0
C1884 C 0.53579 0.48991 0.86568 0.0
C1885 C 0.51292 0.4815 0.87102 0.0
C1886 C 0.49817 0.47381 0.8532 0.0
C1887 C 0.50424 0.48211 0.89446 0.0
C1888 C 0.55259 0.49931 0.88374 0.0
C1889 C 0.50689 0.47098 0.91526 0.0
C1890 C 0.50092 0.47392 0.93736 0.0
C1891 C 0.49223 0.48806 0.93895 0.0
C1892 C 0.48817 0.49788 0.91803 0.0
C1893 C 0.49404 0.49488 0.89606 0.0
H1894 H 0.56969 0.50935 0.8755 0.0
H1895 H 0.54895 0.50974 0.89395 0.0
H1896 H 0.55193 0.48563 0.89626 0.0
H1897 H 0.51428 0.46063 0.91444 0.0
H1898 H 0.50438 0.46623 0.95312 0.0
H1899 H 0.55375 0.12563 0.75343 0.0
H1900 H 0.55227 0.11943 0.79667 0.0
H1901 H 0.53793 0.05269 0.79428 0.0
H1902 H 0.53881 0.0589 0.75107 0.0
H1903 H 0.50437 0.05851 0.81628 0.0
H1904 H 0.58701 0.10778 0.85117 0.0
H1905 H 0.57853 0.1208 0.82751 0.0
H1906 H 0.58415 0.09938 0.8222 0.0
C1907 C 0.55124 0.11001 0.76232 0.0
C1908 C 0.54642 0.09267 0.74941 0.0
C1909 C 0.55044 0.10649 0.78686 0.0
C1910 C 0.54507 0.08565 0.79853 0.0
C1911 C 0.54221 0.06892 0.78544 0.0
H1912 H 0.51259 0.00197 0.91998 0.0
H1913 H 0.52235 0.02503 0.88209 0.0
C1914 C 0.54276 0.07239 0.76094 0.0
C1915 C 0.53812 0.07985 0.82379 0.0
H1916 H 0.55698 0.08498 0.87892 0.0
C1917 C 0.5158 0.06456 0.83 0.0
C1918 C 0.55304 0.08822 0.8415 0.0
C1919 C 0.57707 0.10491 0.83544 0.0
C1920 C 0.50825 0.05622 0.85352 0.0
C1921 C 0.52342 0.06336 0.87115 0.0
C1922 C 0.54544 0.07979 0.86518 0.0
C1923 C 0.51774 0.05036 0.89461 0.0
C1924 C 0.48444 0.03866 0.85934 0.0
C1925 C 0.51183 0.05713 0.91407 0.0
C1926 C 0.50626 0.04391 0.93604 0.0
C1927 C 0.50632 0.02381 0.93845 0.0
C1928 C 0.51188 0.0171 0.91865 0.0
C1929 C 0.51772 0.03036 0.89703 0.0
H1930 H 0.47392 0.03806 0.8445 0.0
H1931 H 0.48346 0.02235 0.86323 0.0
H1932 H 0.47771 0.04155 0.87524 0.0
H1933 H 0.51164 0.07254 0.91227 0.0
H1934 H 0.50221 0.04948 0.95112 0.0
H1935 H 0.14383 0.28724 0.6275 0.0
H1936 H 0.15817 0.29969 0.58608 0.0
H1937 H 0.12366 0.23222 0.5722 0.0
H1938 H 0.10831 0.22022 0.6132 0.0
H1939 H 0.18407 0.29151 0.56041 0.0
H1940 H 0.10258 0.25983 0.52128 0.0
H1941 H 0.10534 0.26019 0.55252 0.0
H1942 H 0.10589 0.2388 0.53873 0.0
C1943 C 0.13952 0.27525 0.61544 0.0
C1944 C 0.12548 0.25288 0.62323 0.0
C1945 C 0.14761 0.28225 0.59192 0.0
C1946 C 0.14179 0.26689 0.57598 0.0
C1947 C 0.12803 0.2444 0.58402 0.0
H1948 H 0.17557 0.29586 0.42377 0.0
H1949 H 0.16911 0.27675 0.46412 0.0
C1950 C 0.11961 0.2375 0.60743 0.0
C1951 C 0.15023 0.27461 0.55101 0.0
H1952 H 0.13412 0.276 0.49479 0.0
C1953 C 0.17314 0.28801 0.54606 0.0
C1954 C 0.13592 0.26994 0.53229 0.0
C1955 C 0.11107 0.25659 0.53644 0.0
C1956 C 0.18209 0.2974 0.52299 0.0
C1957 C 0.16779 0.2931 0.50445 0.0
C1958 C 0.145 0.27899 0.50917 0.0
C1959 C 0.17566 0.30524 0.48053 0.0
C1960 C 0.20672 0.31231 0.51859 0.0
C1961 C 0.18206 0.32766 0.47664 0.0
C1962 C 0.18572 0.33858 0.45376 0.0
C1963 C 0.18284 0.32718 0.43438 0.0
C1964 C 0.17792 0.30508 0.43835 0.0
C1965 C 0.17415 0.29412 0.46134 0.0
H1966 H 0.21586 0.30989 0.53355 0.0
H1967 H 0.2128 0.30942 0.50223 0.0
H1968 H 0.21048 0.32972 0.5163 0.0
H1969 H 0.18297 0.33639 0.49129 0.0
H1970 H 0.18947 0.35559 0.45131 0.0
H1971 H 0.69644 0.8473 0.62114 0.0
H1972 H 0.6853 0.84239 0.58069 0.0
H1973 H 0.75367 0.87077 0.55619 0.0
H1974 H 0.76466 0.87649 0.59656 0.0
H1975 H 0.7343 0.89107 0.53218 0.0
H1976 H 0.67999 0.80103 0.53541 0.0
H1977 H 0.6716 0.81205 0.55736 0.0
H1978 H 0.69788 0.81294 0.55862 0.0
C1979 C 0.70889 0.85167 0.60714 0.0
C1980 C 0.7313 0.86176 0.61187 0.0
C1981 C 0.70258 0.8489 0.58406 0.0
C1982 C 0.71862 0.85595 0.56536 0.0
C1983 C 0.74098 0.86504 0.57032 0.0
H1984 H 0.70008 0.84538 0.41673 0.0
H1985 H 0.71432 0.84842 0.45607 0.0
C1986 C 0.74727 0.86799 0.59339 0.0
C1987 C 0.71233 0.85607 0.54053 0.0
H1988 H 0.67793 0.82373 0.50182 0.0
C1989 C 0.72211 0.87628 0.52552 0.0
C1990 C 0.69641 0.83681 0.53178 0.0
C1991 C 0.68603 0.81445 0.54657 0.0
C1992 C 0.71611 0.87778 0.50222 0.0
C1993 C 0.69982 0.85867 0.49378 0.0
C1994 C 0.69026 0.8384 0.50854 0.0
C1995 C 0.69283 0.85925 0.46942 0.0
C1996 C 0.72713 0.89971 0.48665 0.0
C1997 C 0.67628 0.8647 0.46388 0.0
C1998 C 0.66792 0.86271 0.44146 0.0
C1999 C 0.67644 0.85579 0.42424 0.0
C2000 C 0.69369 0.85134 0.42954 0.0
C2001 C 0.7017 0.85287 0.45202 0.0
H2002 H 0.74057 0.9128 0.49534 0.0
H2003 H 0.73413 0.89824 0.47002 0.0
H2004 H 0.71464 0.90476 0.48191 0.0
H2005 H 0.66925 0.86961 0.47717 0.0
H2006 H 0.65435 0.86582 0.43784 0.0
H2007 H 0.16386 0.86626 0.62925 0.0
H2008 H 0.16678 0.85689 0.59028 0.0
H2009 H 0.10768 0.8595 0.57247 0.0
H2010 H 0.10581 0.87043 0.61125 0.0
H2011 H 0.14452 0.82664 0.56496 0.0
H2012 H 0.14916 0.90358 0.52085 0.0
H2013 H 0.14904 0.89792 0.5524 0.0
H2014 H 0.12355 0.88587 0.53783 0.0
C2015 C 0.15124 0.86428 0.61712 0.0
C2016 C 0.13467 0.86905 0.62302 0.0
C2017 C 0.15295 0.85906 0.59484 0.0
C2018 C 0.1379 0.85821 0.57808 0.0
C2019 C 0.12 0.8609 0.58477 0.0
H2020 H 0.12016 0.82852 0.43743 0.0
H2021 H 0.12029 0.8408 0.47551 0.0
C2022 C 0.1186 0.86665 0.60703 0.0
C2023 C 0.14177 0.85548 0.5535 0.0
H2024 H 0.14806 0.8785 0.49598 0.0
C2025 C 0.14542 0.83808 0.54991 0.0
C2026 C 0.14335 0.87063 0.53382 0.0
C2027 C 0.1413 0.89067 0.53639 0.0
C2028 C 0.14993 0.835 0.52726 0.0
C2029 C 0.15083 0.84975 0.5076 0.0
C2030 C 0.14745 0.86729 0.51113 0.0
C2031 C 0.15279 0.84576 0.48316 0.0
C2032 C 0.15303 0.81559 0.5245 0.0
C2033 C 0.17145 0.84536 0.47439 0.0
C2034 C 0.17136 0.83827 0.45254 0.0
C2035 C 0.15273 0.83184 0.43928 0.0
C2036 C 0.13477 0.83362 0.4474 0.0
C2037 C 0.13482 0.84058 0.46911 0.0
H2038 H 0.14799 0.80367 0.54094 0.0
H2039 H 0.14334 0.80683 0.51006 0.0
H2040 H 0.17074 0.82156 0.51993 0.0
H2041 H 0.18565 0.84967 0.48484 0.0
H2042 H 0.18528 0.83682 0.44656 0.0
H2043 H 0.57594 0.77564 0.09495 0.0
H2044 H 0.58486 0.78367 0.13528 0.0
H2045 H 0.64389 0.84395 0.1081 0.0
H2046 H 0.63469 0.83578 0.06748 0.0
H2047 H 0.64681 0.8092 0.14441 0.0
H2048 H 0.58673 0.83489 0.1703 0.0
H2049 H 0.57721 0.81221 0.15351 0.0
H2050 H 0.59713 0.83936 0.14011 0.0
C2051 C 0.59049 0.79085 0.09774 0.0
C2052 C 0.60456 0.8053 0.07847 0.0
C2053 C 0.59557 0.79541 0.12061 0.0
C2054 C 0.61489 0.81445 0.12454 0.0
C2055 C 0.6288 0.82924 0.10527 0.0
H2056 H 0.68211 0.87131 0.2415 0.0
H2057 H 0.6673 0.86042 0.204 0.0
C2058 C 0.62358 0.8247 0.08223 0.0
C2059 C 0.62137 0.81769 0.14887 0.0
H2060 H 0.60847 0.83043 0.19999 0.0
C2061 C 0.63846 0.81384 0.15659 0.0
C2062 C 0.61013 0.82338 0.16467 0.0
C2063 C 0.59181 0.82783 0.15686 0.0
C2064 C 0.64481 0.81582 0.1798 0.0
C2065 C 0.63384 0.82186 0.1955 0.0
C2066 C 0.61654 0.82543 0.1879 0.0
C2067 C 0.64233 0.82758 0.2187 0.0
C2068 C 0.66343 0.81181 0.18745 0.0
C2069 C 0.63313 0.81252 0.23941 0.0
C2070 C 0.64155 0.81871 0.26121 0.0
C2071 C 0.65935 0.83995 0.26236 0.0
C2072 C 0.6686 0.8547 0.24135 0.0
C2073 C 0.66009 0.84861 0.21984 0.0
H2074 H 0.66884 0.80515 0.17385 0.0
H2075 H 0.67777 0.82751 0.19107 0.0
H2076 H 0.65819 0.80008 0.20404 0.0
H2077 H 0.61941 0.79613 0.23869 0.0
H2078 H 0.63404 0.80705 0.27708 0.0
H2079 H 0.19961 0.83419 0.0795 0.0
H2080 H 0.19197 0.84076 0.11882 0.0
H2081 H 0.21862 0.80066 0.15061 0.0
H2082 H 0.22557 0.79368 0.11149 0.0
H2083 H 0.16382 0.79691 0.15756 0.0
H2084 H 0.24466 0.863 0.18161 0.0
H2085 H 0.2369 0.8615 0.15146 0.0
H2086 H 0.24445 0.84226 0.16584 0.0
C2087 C 0.20475 0.82773 0.09489 0.0
C2088 C 0.21395 0.81416 0.09256 0.0
C2089 C 0.20011 0.83118 0.11728 0.0
C2090 C 0.2048 0.82122 0.13756 0.0
C2091 C 0.21513 0.80868 0.13515 0.0
H2092 H 0.19678 0.81429 0.28702 0.0
H2093 H 0.20239 0.81133 0.24591 0.0
C2094 C 0.21948 0.80503 0.11285 0.0
C2095 C 0.1972 0.82206 0.16133 0.0
H2096 H 0.21597 0.84474 0.2116 0.0
C2097 C 0.17508 0.80751 0.16939 0.0
C2098 C 0.21202 0.83576 0.17662 0.0
C2099 C 0.23586 0.85164 0.16858 0.0
C2100 C 0.16757 0.80575 0.19275 0.0
C2101 C 0.18251 0.81928 0.20826 0.0
C2102 C 0.20449 0.83428 0.19983 0.0
C2103 C 0.1763 0.8176 0.23361 0.0
C2104 C 0.14402 0.78876 0.20085 0.0
C2105 C 0.1591 0.82118 0.2407 0.0
C2106 C 0.15551 0.82232 0.26449 0.0
C2107 C 0.16934 0.82031 0.28134 0.0
C2108 C 0.18579 0.81574 0.27436 0.0
C2109 C 0.18912 0.81423 0.25083 0.0
H2110 H 0.13663 0.77598 0.18893 0.0
H2111 H 0.14302 0.78053 0.21897 0.0
H2112 H 0.1339 0.79699 0.20094 0.0
H2113 H 0.14923 0.82425 0.22775 0.0
H2114 H 0.14303 0.82633 0.26938 0.0
H2115 H 0.22017 0.45975 0.08599 0.0
H2116 H 0.21805 0.45189 0.12927 0.0
H2117 H 0.19558 0.38354 0.12408 0.0
H2118 H 0.19723 0.39148 0.08094 0.0
H2119 H 0.1674 0.39198 0.15234 0.0
H2120 H 0.25522 0.43543 0.17589 0.0
H2121 H 0.24573 0.45042 0.15592 0.0
H2122 H 0.24785 0.42801 0.14679 0.0
C2123 C 0.21544 0.44326 0.09431 0.0
C2124 C 0.20906 0.42616 0.08062 0.0
C2125 C 0.21419 0.43878 0.11883 0.0
C2126 C 0.20671 0.41717 0.12972 0.0
C2127 C 0.20138 0.40031 0.11588 0.0
H2128 H 0.20661 0.3478 0.25582 0.0
H2129 H 0.20919 0.36707 0.21672 0.0
C2130 C 0.20244 0.40478 0.09143 0.0
C2131 C 0.20246 0.41145 0.15544 0.0
H2132 H 0.22812 0.41404 0.20659 0.0
C2133 C 0.18059 0.39701 0.16434 0.0
C2134 C 0.21977 0.41838 0.17086 0.0
C2135 C 0.24352 0.43384 0.16202 0.0
C2136 C 0.17568 0.38806 0.18815 0.0
C2137 C 0.19314 0.394 0.20332 0.0
C2138 C 0.21483 0.40961 0.19475 0.0
C2139 C 0.18993 0.3816 0.22692 0.0
C2140 C 0.15217 0.37121 0.1966 0.0
C2141 C 0.17763 0.38294 0.24536 0.0
C2142 C 0.17589 0.37166 0.26783 0.0
C2143 C 0.18667 0.35924 0.27194 0.0
C2144 C 0.19827 0.35739 0.25316 0.0
C2145 C 0.19985 0.36845 0.23087 0.0
H2146 H 0.1409 0.36694 0.18197 0.0
H2147 H 0.15144 0.35593 0.20555 0.0
H2148 H 0.14605 0.37779 0.2096 0.0
H2149 H 0.16995 0.39313 0.24254 0.0
H2150 H 0.16702 0.37347 0.28212 0.0
H2151 H 0.76661 0.55473 0.94717 0.0
H2152 H 0.78004 0.56369 0.90547 0.0
H2153 H 0.83032 0.62829 0.91846 0.0
H2154 H 0.81726 0.61878 0.96026 0.0
H2155 H 0.78084 0.595 0.87381 0.0
H2156 H 0.86627 0.61029 0.88172 0.0
H2157 H 0.84558 0.59685 0.906 0.0
H2158 H 0.86074 0.62647 0.89958 0.0
C2159 C 0.78073 0.57066 0.94094 0.0
C2160 C 0.79116 0.58614 0.95647 0.0
C2161 C 0.78836 0.57578 0.91731 0.0
C2162 C 0.80647 0.59648 0.909 0.0
C2163 C 0.8168 0.61197 0.92466 0.0
H2164 H 0.85051 0.68416 0.78543 0.0
H2165 H 0.84106 0.663 0.82469 0.0
C2166 C 0.8093 0.60671 0.94835 0.0
C2167 C 0.81355 0.60261 0.88366 0.0
H2168 H 0.8594 0.62729 0.84559 0.0
C2169 C 0.79791 0.60156 0.86755 0.0
C2170 C 0.83577 0.61095 0.8755 0.0
C2171 C 0.85297 0.61097 0.89162 0.0
C2172 C 0.80427 0.61005 0.84374 0.0
C2173 C 0.82677 0.61987 0.83606 0.0
C2174 C 0.84218 0.6198 0.85176 0.0
C2175 C 0.83489 0.63272 0.81259 0.0
C2176 C 0.78722 0.6096 0.82713 0.0
C2177 C 0.8352 0.62267 0.79308 0.0
C2178 C 0.84067 0.63473 0.77052 0.0
C2179 C 0.84575 0.65689 0.76737 0.0
C2180 C 0.8467 0.66714 0.78725 0.0
C2181 C 0.84123 0.65509 0.80968 0.0
H2182 H 0.77011 0.59953 0.83535 0.0
H2183 H 0.79047 0.62666 0.82162 0.0
H2184 H 0.78843 0.60287 0.811 0.0
H2185 H 0.83039 0.60536 0.79521 0.0
H2186 H 0.83974 0.62638 0.75553 0.0
H2187 H 0.36838 0.16708 0.95411 0.0
H2188 H 0.35793 0.16364 0.91316 0.0
H2189 H 0.42125 0.22014 0.889 0.0
H2190 H 0.43173 0.22284 0.92985 0.0
H2191 H 0.35333 0.1945 0.88553 0.0
H2192 H 0.41536 0.18086 0.8413 0.0
H2193 H 0.41148 0.17754 0.87294 0.0
H2194 H 0.42766 0.20455 0.85645 0.0
C2195 C 0.38031 0.178 0.93985 0.0
C2196 C 0.40097 0.19487 0.94479 0.0
C2197 C 0.37431 0.17627 0.91656 0.0
C2198 C 0.38886 0.19154 0.89791 0.0
C2199 C 0.40994 0.20782 0.90291 0.0
H2200 H 0.37088 0.21244 0.7471 0.0
H2201 H 0.38301 0.22072 0.78683 0.0
C2202 C 0.41598 0.20935 0.92617 0.0
C2203 C 0.38118 0.19183 0.8737 0.0
H2204 H 0.39318 0.19055 0.81637 0.0
C2205 C 0.36202 0.19355 0.87044 0.0
C2206 C 0.39266 0.1909 0.85393 0.0
C2207 C 0.4128 0.18815 0.85631 0.0
C2208 C 0.35394 0.19416 0.84804 0.0
C2209 C 0.36527 0.19298 0.82836 0.0
C2210 C 0.38468 0.19174 0.83148 0.0
C2211 C 0.35599 0.19045 0.80489 0.0
C2212 C 0.3333 0.19599 0.84557 0.0
C2213 C 0.33645 0.1711 0.80201 0.0
C2214 C 0.32963 0.16638 0.77952 0.0
C2215 C 0.34211 0.18098 0.75947 0.0
C2216 C 0.36075 0.20115 0.76233 0.0
C2217 C 0.3678 0.20575 0.78495 0.0
H2218 H 0.33018 0.20288 0.86063 0.0
H2219 H 0.33444 0.20653 0.82895 0.0
H2220 H 0.3189 0.17935 0.84513 0.0
H2221 H 0.32728 0.15893 0.81709 0.0
H2222 H 0.31537 0.15059 0.77772 0.0
H2223 H 0.8105 0.17864 0.96429 0.0
H2224 H 0.81166 0.17146 0.92358 0.0
H2225 H 0.78821 0.21677 0.90047 0.0
H2226 H 0.78631 0.22314 0.94142 0.0
H2227 H 0.77037 0.18196 0.87685 0.0
H2228 H 0.86086 0.21515 0.87634 0.0
H2229 H 0.84621 0.1922 0.899 0.0
H2230 H 0.84538 0.21726 0.90012 0.0
C2231 C 0.80483 0.18632 0.95052 0.0
C2232 C 0.79791 0.20105 0.95575 0.0
C2233 C 0.80592 0.18263 0.92729 0.0
C2234 C 0.8007 0.19413 0.90888 0.0
C2235 C 0.79251 0.20787 0.91434 0.0
H2236 H 0.82678 0.19454 0.7569 0.0
H2237 H 0.82751 0.20924 0.7941 0.0
C2238 C 0.79116 0.21131 0.93765 0.0
C2239 C 0.80426 0.19221 0.88396 0.0
H2240 H 0.84272 0.19561 0.8442 0.0
C2241 C 0.78627 0.18528 0.86963 0.0
C2242 C 0.82516 0.19699 0.87433 0.0
C2243 C 0.84555 0.20605 0.88818 0.0
C2244 C 0.78831 0.18173 0.84644 0.0
C2245 C 0.80878 0.18507 0.83745 0.0
C2246 C 0.82706 0.19308 0.85124 0.0
C2247 C 0.81041 0.17717 0.81526 0.0
C2248 C 0.76837 0.17364 0.8319 0.0
C2249 C 0.80125 0.15451 0.81525 0.0
C2250 C 0.80092 0.14621 0.7944 0.0
C2251 C 0.80976 0.16042 0.77301 0.0
C2252 C 0.81995 0.18328 0.77315 0.0
C2253 C 0.82026 0.19164 0.79426 0.0
H2254 H 0.75532 0.17636 0.8393 0.0
H2255 H 0.77312 0.18204 0.81346 0.0
H2256 H 0.76132 0.15571 0.83152 0.0
H2257 H 0.79383 0.14316 0.83137 0.0
H2258 H 0.79317 0.12851 0.79497 0.0
H2259 H 0.23074 0.1181 0.43044 0.0
H2260 H 0.24126 0.12673 0.4706 0.0
H2261 H 0.31006 0.16118 0.44593 0.0
H2262 H 0.29941 0.15244 0.40605 0.0
H2263 H 0.29272 0.12239 0.48717 0.0
H2264 H 0.27446 0.18997 0.49683 0.0
H2265 H 0.25541 0.16688 0.48269 0.0
H2266 H 0.282 0.18609 0.46838 0.0
C2267 C 0.24799 0.12822 0.43363 0.0
C2268 C 0.26435 0.1351 0.41541 0.0
C2269 C 0.254 0.13294 0.45643 0.0
C2270 C 0.27642 0.14451 0.46109 0.0
C2271 C 0.29269 0.15224 0.4426 0.0
H2272 H 0.34936 0.20638 0.57385 0.0
H2273 H 0.33611 0.19294 0.53647 0.0
C2274 C 0.28667 0.14751 0.41991 0.0
C2275 C 0.28319 0.14736 0.48541 0.0
H2276 H 0.29064 0.17948 0.52822 0.0
C2277 C 0.2921 0.1347 0.49634 0.0
C2278 C 0.2823 0.16342 0.4971 0.0
C2279 C 0.27309 0.1775 0.48578 0.0
C2280 C 0.30072 0.13813 0.5186 0.0
C2281 C 0.30035 0.15461 0.53004 0.0
C2282 C 0.2909 0.16685 0.51932 0.0
C2283 C 0.31088 0.16061 0.55245 0.0
C2284 C 0.31088 0.12475 0.52936 0.0
C2285 C 0.30175 0.14645 0.57375 0.0
C2286 C 0.30954 0.15403 0.59522 0.0
C2287 C 0.32625 0.17594 0.59551 0.0
C2288 C 0.33636 0.18946 0.57408 0.0
C2289 C 0.32877 0.18184 0.55275 0.0
H2290 H 0.3125 0.11469 0.51681 0.0
H2291 H 0.32748 0.13573 0.53532 0.0
H2292 H 0.30036 0.11349 0.54503 0.0
H2293 H 0.28778 0.13005 0.57386 0.0
H2294 H 0.30134 0.14335 0.61153 0.0
H2295 H 0.89017 0.1219 0.44422 0.0
H2296 H 0.88186 0.1273 0.48361 0.0
H2297 H 0.86554 0.17612 0.45227 0.0
H2298 H 0.87336 0.17011 0.41284 0.0
H2299 H 0.89406 0.16016 0.51048 0.0
H2300 H 0.80749 0.13011 0.48669 0.0
H2301 H 0.82777 0.12918 0.46808 0.0
H2302 H 0.82717 0.15447 0.46798 0.0
C2303 C 0.88577 0.13447 0.44592 0.0
C2304 C 0.88267 0.14583 0.42568 0.0
C2305 C 0.88074 0.13736 0.46836 0.0
C2306 C 0.87243 0.15164 0.47093 0.0
C2307 C 0.87135 0.16457 0.45073 0.0
H2308 H 0.82036 0.18268 0.58777 0.0
H2309 H 0.83153 0.17808 0.54951 0.0
C2310 C 0.87624 0.16152 0.42825 0.0
C2311 C 0.86336 0.15163 0.49446 0.0
H2312 H 0.81625 0.14237 0.52402 0.0
C2313 C 0.87704 0.15621 0.51346 0.0
C2314 C 0.841 0.14611 0.49848 0.0
C2315 C 0.82492 0.13946 0.47931 0.0
C2316 C 0.86921 0.15613 0.53611 0.0
C2317 C 0.84699 0.15105 0.54 0.0
C2318 C 0.83326 0.14625 0.52106 0.0
C2319 C 0.83806 0.15192 0.56321 0.0
C2320 C 0.88498 0.16207 0.55556 0.0
C2321 C 0.83702 0.13805 0.58364 0.0
C2322 C 0.83046 0.14054 0.60569 0.0
C2323 C 0.82482 0.15697 0.60769 0.0
C2324 C 0.82459 0.16986 0.58695 0.0
C2325 C 0.83107 0.16732 0.56501 0.0
H2326 H 0.90247 0.16992 0.54862 0.0
H2327 H 0.88314 0.17345 0.56598 0.0
H2328 H 0.88118 0.14689 0.56762 0.0
H2329 H 0.84187 0.1257 0.58262 0.0
H2330 H 0.83095 0.13042 0.62127 0.0
H2331 H 0.86326 0.72225 0.41369 0.0
H2332 H 0.865 0.71591 0.4566 0.0
H2333 H 0.89219 0.78541 0.45927 0.0
H2334 H 0.89043 0.7916 0.4162 0.0
H2335 H 0.90269 0.73756 0.48772 0.0
H2336 H 0.83155 0.75179 0.50097 0.0
H2337 H 0.83792 0.74596 0.4731 0.0
H2338 H 0.85524 0.77232 0.48232 0.0
C2339 C 0.87004 0.7361 0.42354 0.0
C2340 C 0.87681 0.75733 0.41212 0.0
C2341 C 0.87103 0.73255 0.44786 0.0
C2342 C 0.87855 0.75021 0.46094 0.0
C2343 C 0.88624 0.77164 0.44937 0.0
H2344 H 0.85885 0.72476 0.6158 0.0
H2345 H 0.86652 0.74466 0.57551 0.0
C2346 C 0.88536 0.77517 0.42497 0.0
C2347 C 0.87655 0.74559 0.48682 0.0
H2348 H 0.8424 0.73725 0.53415 0.0
C2349 C 0.88979 0.73784 0.498 0.0
C2350 C 0.8598 0.74621 0.50005 0.0
C2351 C 0.84518 0.75442 0.48862 0.0
C2352 C 0.88601 0.72966 0.52203 0.0
C2353 C 0.86818 0.72873 0.53488 0.0
C2354 C 0.85587 0.73781 0.52407 0.0
C2355 C 0.86089 0.71653 0.55883 0.0
C2356 C 0.90077 0.72154 0.53332 0.0
C2357 C 0.85406 0.69399 0.56246 0.0
C2358 C 0.84982 0.68277 0.58521 0.0
C2359 C 0.85175 0.69381 0.60455 0.0
C2360 C 0.85683 0.71591 0.60095 0.0
C2361 C 0.86143 0.72729 0.57809 0.0
H2362 H 0.91717 0.72944 0.52349 0.0
H2363 H 0.90325 0.7248 0.55188 0.0
H2364 H 0.89296 0.7035 0.5332 0.0
H2365 H 0.85301 0.68532 0.54771 0.0
H2366 H 0.84614 0.66577 0.58778 0.0
loop_
_geom_bond_atom_site_label_1
_geom_bond_atom_site_label_2
_geom_bond_distance
_geom_bond_site_symmetry_2
_ccdc_geom_bond_type
C0 N1 1.317 . S
C0 N2 1.348 . S
C0 C3 1.485 . S
N1 C0 1.317 . S
N1 N5 1.370 . S
N2 C0 1.348 . S
N2 C4 1.346 . S
C3 C0 1.485 . S
C3 H7 0.960 . S
C3 H8 0.961 . S
C3 H9 0.960 . S
C4 N2 1.346 . S
C4 N5 1.307 . S
C4 C6 1.486 . S
N5 N1 1.370 . S
N5 C4 1.307 . S
C6 C4 1.486 . S
C6 H10 0.960 . S
C6 H11 0.960 . S
C6 H12 0.959 . S
H7 C3 0.960 . S
H8 C3 0.961 . S
H9 C3 0.960 . S
H10 C6 0.960 . S
H11 C6 0.960 . S
H12 C6 0.959 . S
C13 N14 1.317 . S
C13 N15 1.348 . S
C13 C16 1.485 . S
N14 C13 1.317 . S
N14 N18 1.370 . S
N15 C13 1.348 . S
N15 C17 1.346 . S
C16 C13 1.485 . S
C16 H20 0.960 . S
C16 H21 0.961 . S
C16 H22 0.960 . S
C17 N15 1.346 . S
C17 N18 1.307 . S
C17 C19 1.486 . S
N18 N14 1.370 . S
N18 C17 1.307 . S
C19 C17 1.486 . S
C19 H23 0.960 . S
C19 H24 0.960 . S
C19 H25 0.959 . S
H20 C16 0.960 . S
H21 C16 0.961 . S
H22 C16 0.960 . S
H23 C19 0.960 . S
H24 C19 0.960 . S
H25 C19 0.959 . S
C26 N27 1.317 . S
C26 N28 1.348 . S
C26 C29 1.485 . S
N27 C26 1.317 . S
N27 N31 1.370 . S
N28 C26 1.348 . S
N28 C30 1.346 . S
C29 C26 1.485 . S
C29 H33 0.960 . S
C29 H34 0.961 . S
C29 H35 0.960 . S
C30 N28 1.346 . S
C30 N31 1.307 . S
C30 C32 1.486 . S
N31 N27 1.370 . S
N31 C30 1.307 . S
C32 C30 1.486 . S
C32 H36 0.960 . S
C32 H37 0.960 . S
C32 H38 0.959 . S
H33 C29 0.960 . S
H34 C29 0.961 . S
H35 C29 0.960 . S
H36 C32 0.960 . S
H37 C32 0.960 . S
H38 C32 0.959 . S
C39 N40 1.317 . S
C39 N41 1.348 . S
C39 C42 1.485 . S
N40 C39 1.317 . S
N40 N44 1.370 . S
N41 C39 1.348 . S
N41 C43 1.346 . S
C42 C39 1.485 . S
C42 H46 0.960 . S
C42 H47 0.961 . S
C42 H48 0.960 . S
C43 N41 1.346 . S
C43 N44 1.307 . S
C43 C45 1.486 . S
N44 N40 1.370 . S
N44 C43 1.307 . S
C45 C43 1.486 . S
C45 H49 0.960 . S
C45 H50 0.960 . S
C45 H51 0.959 . S
H46 C42 0.960 . S
H47 C42 0.961 . S
H48 C42 0.960 . S
H49 C45 0.960 . S
H50 C45 0.960 . S
H51 C45 0.959 . S
C52 N53 1.317 . S
C52 N54 1.348 . S
C52 C55 1.485 . S
N53 C52 1.317 . S
N53 N57 1.370 . S
N54 C52 1.348 . S
N54 C56 1.346 . S
C55 C52 1.485 . S
C55 H59 0.960 . S
C55 H60 0.961 . S
C55 H61 0.960 . S
C56 N54 1.346 . S
C56 N57 1.307 . S
C56 C58 1.486 . S
N57 N53 1.370 . S
N57 C56 1.307 . S
C58 C56 1.486 . S
C58 H62 0.960 . S
C58 H63 0.960 . S
C58 H64 0.959 . S
H59 C55 0.960 . S
H60 C55 0.961 . S
H61 C55 0.960 . S
H62 C58 0.960 . S
H63 C58 0.960 . S
H64 C58 0.959 . S
C65 N66 1.317 . S
C65 N67 1.348 . S
C65 C68 1.485 . S
N66 C65 1.317 . S
N66 N70 1.370 . S
N67 C65 1.348 . S
N67 C69 1.346 . S
C68 C65 1.485 . S
C68 H72 0.960 . S
C68 H73 0.961 . S
C68 H74 0.960 . S
C69 N67 1.346 . S
C69 N70 1.307 . S
C69 C71 1.486 . S
N70 N66 1.370 . S
N70 C69 1.307 . S
C71 C69 1.486 . S
C71 H75 0.960 . S
C71 H76 0.960 . S
C71 H77 0.959 . S
H72 C68 0.960 . S
H73 C68 0.961 . S
H74 C68 0.960 . S
H75 C71 0.960 . S
H76 C71 0.960 . S
H77 C71 0.959 . S
C78 N79 1.317 . S
C78 N80 1.348 . S
C78 C81 1.485 . S
N79 C78 1.317 . S
N79 N83 1.370 . S
N80 C78 1.348 . S
N80 C82 1.346 . S
C81 C78 1.485 . S
C81 H85 0.960 . S
C81 H86 0.961 . S
C81 H87 0.960 . S
C82 N80 1.346 . S
C82 N83 1.307 . S
C82 C84 1.486 . S
N83 N79 1.370 . S
N83 C82 1.307 . S
C84 C82 1.486 . S
C84 H88 0.960 . S
C84 H89 0.960 . S
C84 H90 0.959 . S
H85 C81 0.960 . S
H86 C81 0.961 . S
H87 C81 0.960 . S
H88 C84 0.960 . S
H89 C84 0.960 . S
H90 C84 0.959 . S
C91 N92 1.317 . S
C91 N93 1.348 . S
C91 C94 1.485 . S
N92 C91 1.317 . S
N92 N96 1.370 . S
N93 C91 1.348 . S
N93 C95 1.346 . S
C94 C91 1.485 . S
C94 H98 0.960 . S
C94 H99 0.961 . S
C94 H100 0.960 . S
C95 N93 1.346 . S
C95 N96 1.307 . S
C95 C97 1.486 . S
N96 N92 1.370 . S
N96 C95 1.307 . S
C97 C95 1.486 . S
C97 H101 0.960 . S
C97 H102 0.960 . S
C97 H103 0.959 . S
H98 C94 0.960 . S
H99 C94 0.961 . S
H100 C94 0.960 . S
H101 C97 0.960 . S
H102 C97 0.960 . S
H103 C97 0.959 . S
C104 N105 1.317 . S
C104 N106 1.348 . S
C104 C107 1.485 . S
N105 C104 1.317 . S
N105 N109 1.370 . S
N106 C104 1.348 . S
N106 C108 1.346 . S
C107 C104 1.485 . S
C107 H111 0.960 . S
C107 H112 0.961 . S
C107 H113 0.960 . S
C108 N106 1.346 . S
C108 N109 1.307 . S
C108 C110 1.486 . S
N109 N105 1.370 . S
N109 C108 1.307 . S
C110 C108 1.486 . S
C110 H114 0.960 . S
C110 H115 0.960 . S
C110 H116 0.959 . S
H111 C107 0.960 . S
H112 C107 0.961 . S
H113 C107 0.960 . S
H114 C110 0.960 . S
H115 C110 0.960 . S
H116 C110 0.959 . S
C117 N118 1.317 1_554 S
C117 N119 1.348 1_554 S
C117 C120 1.485 . S
N118 C117 1.317 1_556 S
N118 N122 1.370 . S
N119 C117 1.348 1_556 S
N119 C121 1.346 . S
C120 C117 1.485 . S
C120 H124 0.960 . S
C120 H125 0.961 . S
C120 H126 0.960 . S
C121 N119 1.346 . S
C121 N122 1.307 . S
C121 C123 1.486 . S
N122 N118 1.370 . S
N122 C121 1.307 . S
C123 C121 1.486 . S
C123 H127 0.960 . S
C123 H128 0.960 . S
C123 H129 0.959 . S
H124 C120 0.960 . S
H125 C120 0.961 . S
H126 C120 0.960 . S
H127 C123 0.960 . S
H128 C123 0.960 . S
H129 C123 0.959 . S
C130 N131 1.317 1_554 S
C130 N132 1.357 . S
C130 C133 1.485 . S
N131 C130 1.317 1_556 S
N131 N135 1.370 . S
N132 C130 1.357 . S
N132 C134 1.313 1_554 S
C133 C130 1.485 . S
C133 H137 0.960 . S
C133 H138 0.961 . S
C133 H139 0.960 . S
C134 N132 1.313 1_556 S
C134 N135 1.307 . S
C134 C136 1.486 . S
N135 N131 1.370 . S
N135 C134 1.307 . S
C136 C134 1.486 . S
C136 H140 0.960 . S
C136 H141 0.960 . S
C136 H142 0.959 . S
H137 C133 0.960 . S
H138 C133 0.961 . S
H139 C133 0.960 . S
H140 C136 0.960 . S
H141 C136 0.960 . S
H142 C136 0.959 . S
C143 N144 1.317 1_554 S
C143 N145 1.353 . S
C143 C146 1.485 . S
N144 C143 1.317 1_556 S
N144 N148 1.370 . S
N145 C143 1.353 . S
N145 C147 1.333 1_554 S
C146 C143 1.485 . S
C146 H150 0.960 . S
C146 H151 0.961 . S
C146 H152 0.960 . S
C147 N145 1.333 1_556 S
C147 N148 1.307 . S
C147 C149 1.486 . S
N148 N144 1.370 . S
N148 C147 1.307 . S
C149 C147 1.486 . S
C149 H153 0.960 . S
C149 H154 0.960 . S
C149 H155 0.959 . S
H150 C146 0.960 . S
H151 C146 0.961 . S
H152 C146 0.960 . S
H153 C149 0.960 . S
H154 C149 0.960 . S
H155 C149 0.959 . S
C156 N157 1.317 . S
C156 N158 1.348 . S
C156 C159 1.485 . S
N157 C156 1.317 . S
N157 N161 1.370 . S
N158 C156 1.348 . S
N158 C160 1.346 . S
C159 C156 1.485 . S
C159 H163 0.960 . S
C159 H164 0.961 1_554 S
C159 H165 0.960 1_554 S
C160 N158 1.346 . S
C160 N161 1.307 . S
C160 C162 1.486 . S
N161 N157 1.370 . S
N161 C160 1.307 . S
C162 C160 1.486 . S
C162 H166 0.960 . S
C162 H167 0.960 . S
C162 H168 0.959 . S
H163 C159 0.960 . S
H164 C159 0.961 1_556 S
H165 C159 0.960 1_556 S
H166 C162 0.960 . S
H167 C162 0.960 . S
H168 C162 0.959 . S
C169 N170 1.317 . S
C169 N171 1.348 . S
C169 C172 1.485 . S
N170 C169 1.317 . S
N170 N174 1.370 . S
N171 C169 1.348 . S
N171 C173 1.346 . S
C172 C169 1.485 . S
C172 H176 0.960 1_554 S
C172 H177 0.961 . S
C172 H178 0.960 . S
C173 N171 1.346 . S
C173 N174 1.307 . S
C173 C175 1.486 . S
N174 N170 1.370 . S
N174 C173 1.307 . S
C175 C173 1.486 . S
C175 H179 0.960 . S
C175 H180 0.960 . S
C175 H181 0.959 . S
H176 C172 0.960 1_556 S
H177 C172 0.961 . S
H178 C172 0.960 . S
H179 C175 0.960 . S
H180 C175 0.960 . S
H181 C175 0.959 . S
C182 N183 1.317 . S
C182 N184 1.348 . S
C182 C185 1.485 . S
N183 C182 1.317 . S
N183 N187 1.370 . S
N184 C182 1.348 . S
N184 C186 1.346 . S
C185 C182 1.485 . S
C185 H189 0.960 . S
C185 H190 0.961 1_554 S
C185 H191 0.960 . S
C186 N184 1.346 . S
C186 N187 1.307 . S
C186 C188 1.486 . S
N187 N183 1.370 . S
N187 C186 1.307 . S
C188 C186 1.486 . S
C188 H192 0.960 . S
C188 H193 0.960 . S
C188 H194 0.959 . S
H189 C185 0.960 . S
H190 C185 0.961 1_556 S
H191 C185 0.960 . S
H192 C188 0.960 . S
H193 C188 0.960 . S
H194 C188 0.959 . S
C195 N196 1.317 . S
C195 N197 1.348 . S
C195 C198 1.485 . S
N196 C195 1.317 . S
N196 N200 1.370 . S
N197 C195 1.348 . S
N197 C199 1.346 . S
C198 C195 1.485 . S
C198 H202 0.960 . S
C198 H203 0.961 . S
C198 H204 0.960 . S
C199 N197 1.346 . S
C199 N200 1.307 . S
C199 C201 1.486 . S
N200 N196 1.370 . S
N200 C199 1.307 . S
C201 C199 1.486 . S
C201 H205 0.960 . S
C201 H206 0.960 . S
C201 H207 0.959 . S
H202 C198 0.960 . S
H203 C198 0.961 . S
H204 C198 0.960 . S
H205 C201 0.960 . S
H206 C201 0.960 . S
H207 C201 0.959 . S
C208 N209 1.317 . S
C208 N210 1.348 . S
C208 C211 1.485 . S
N209 C208 1.317 . S
N209 N213 1.370 . S
N210 C208 1.348 . S
N210 C212 1.346 . S
C211 C208 1.485 . S
C211 H215 0.960 . S
C211 H216 0.961 . S
C211 H217 0.960 . S
C212 N210 1.346 . S
C212 N213 1.307 . S
C212 C214 1.486 . S
N213 N209 1.370 . S
N213 C212 1.307 . S
C214 C212 1.486 . S
C214 H218 0.960 . S
C214 H219 0.960 . S
C214 H220 0.959 . S
H215 C211 0.960 . S
H216 C211 0.961 . S
H217 C211 0.960 . S
H218 C214 0.960 . S
H219 C214 0.960 . S
H220 C214 0.959 . S
C221 N222 1.317 . S
C221 N223 1.348 . S
C221 C224 1.485 . S
N222 C221 1.317 . S
N222 N226 1.370 . S
N223 C221 1.348 . S
N223 C225 1.346 . S
C224 C221 1.485 . S
C224 H228 0.960 . S
C224 H229 0.961 . S
C224 H230 0.960 . S
C225 N223 1.346 . S
C225 N226 1.307 . S
C225 C227 1.486 . S
N226 N222 1.370 . S
N226 C225 1.307 . S
C227 C225 1.486 . S
C227 H231 0.960 . S
C227 H232 0.960 . S
C227 H233 0.959 . S
H228 C224 0.960 . S
H229 C224 0.961 . S
H230 C224 0.960 . S
H231 C227 0.960 . S
H232 C227 0.960 . S
H233 C227 0.959 . S
O234 Mg235 1.990 . S
O234 C248 1.253 . S
Mg235 O234 1.990 . S
Mg235 O238 2.180 1_546 S
Mg235 O239 2.117 1_545 S
Mg235 O253 2.030 . S
O236 Mg237 2.072 1_556 S
O236 C248 1.260 . S
Mg237 O236 2.072 1_554 S
Mg237 O238 2.099 1_545 S
Mg237 O240 2.079 1_545 S
Mg237 O241 2.072 1_545 S
Mg237 O243 2.099 . S
Mg237 O254 2.079 . S
O238 Mg235 2.180 1_564 S
O238 Mg237 2.099 1_565 S
O238 C249 1.279 . S
O239 Mg235 2.117 1_565 S
O239 C249 1.250 1_556 S
O240 Mg237 2.079 1_565 S
O240 C250 1.264 . S
O241 Mg237 2.072 1_565 S
O241 C251 1.260 . S
Mg242 O243 2.180 . S
Mg242 O244 2.030 1_545 S
Mg242 O245 1.990 1_545 S
Mg242 O246 2.117 . S
O243 Mg237 2.099 . S
O243 Mg242 2.180 . S
O243 C252 1.279 . S
O244 Mg242 2.030 1_565 S
O244 C250 1.248 . S
O245 Mg242 1.990 1_565 S
O245 C251 1.253 . S
O246 Mg242 2.117 . S
O246 C252 1.250 . S
C247 O253 1.248 1_554 S
C247 O254 1.264 . S
C248 O234 1.253 . S
C248 O236 1.260 . S
C249 O238 1.279 . S
C249 O239 1.250 1_554 S
C250 O240 1.264 . S
C250 O244 1.248 . S
C251 O241 1.260 . S
C251 O245 1.253 . S
C252 O243 1.279 . S
C252 O246 1.250 . S
O253 Mg235 2.030 . S
O253 C247 1.248 1_556 S
O254 Mg237 2.079 . S
O254 C247 1.264 . S
O255 Mg256 1.990 . S
O255 C269 1.253 . S
Mg256 O255 1.990 . S
Mg256 O259 2.179 1_556 S
Mg256 O260 2.117 . S
Mg256 O274 2.030 1_455 S
O257 Mg258 2.072 1_556 S
O257 C269 1.260 . S
Mg258 O257 2.072 1_554 S
Mg258 O259 2.099 . S
Mg258 O261 2.079 . S
Mg258 O262 2.072 . S
Mg258 O264 2.099 1_455 S
Mg258 O275 2.079 1_455 S
O259 Mg256 2.179 1_554 S
O259 Mg258 2.099 . S
O259 C270 1.279 1_554 S
O260 Mg256 2.117 . S
O260 C270 1.250 . S
O261 Mg258 2.079 . S
O261 C271 1.264 . S
O262 Mg258 2.072 . S
O262 C272 1.260 . S
Mg263 O264 2.180 1_455 S
Mg263 O265 2.030 . S
Mg263 O266 1.990 . S
Mg263 O267 2.117 1_455 S
O264 Mg258 2.099 1_655 S
O264 Mg263 2.180 1_655 S
O264 C273 1.279 . S
O265 Mg263 2.030 . S
O265 C271 1.248 . S
O266 Mg263 1.990 . S
O266 C272 1.253 . S
O267 Mg263 2.117 1_655 S
O267 C273 1.250 . S
C268 O274 1.248 . S
C268 O275 1.264 1_556 S
C269 O255 1.253 . S
C269 O257 1.260 . S
C270 O259 1.279 1_556 S
C270 O260 1.250 . S
C271 O261 1.264 . S
C271 O265 1.248 . S
C272 O262 1.260 . S
C272 O266 1.253 . S
C273 O264 1.279 . S
C273 O267 1.250 . S
O274 Mg256 2.030 1_655 S
O274 C268 1.248 . S
O275 Mg258 2.079 1_655 S
O275 C268 1.264 1_554 S
O276 Mg277 1.990 . S
O276 C290 1.253 . S
Mg277 O276 1.990 . S
Mg277 O280 2.180 . S
Mg277 O281 2.117 . S
Mg277 O295 2.030 . S
O278 Mg279 2.072 . S
O278 C290 1.260 . S
Mg279 O278 2.072 . S
Mg279 O280 2.099 . S
Mg279 O282 2.079 1_554 S
Mg279 O283 2.072 . S
Mg279 O285 2.099 . S
Mg279 O296 2.079 . S
O280 Mg277 2.180 . S
O280 Mg279 2.099 . S
O280 C291 1.279 . S
O281 Mg277 2.117 . S
O281 C291 1.250 . S
O282 Mg279 2.079 1_556 S
O282 C292 1.264 . S
O283 Mg279 2.072 . S
O283 C293 1.260 . S
Mg284 O285 2.180 1_556 S
Mg284 O286 2.030 . S
Mg284 O287 1.990 1_556 S
Mg284 O288 2.117 1_556 S
O285 Mg279 2.099 . S
O285 Mg284 2.180 1_554 S
O285 C294 1.279 . S
O286 Mg284 2.030 . S
O286 C292 1.248 . S
O287 Mg284 1.990 1_554 S
O287 C293 1.253 . S
O288 Mg284 2.117 1_554 S
O288 C294 1.250 . S
C289 O295 1.248 . S
C289 O296 1.264 . S
C290 O276 1.253 . S
C290 O278 1.260 . S
C291 O280 1.279 . S
C291 O281 1.250 . S
C292 O282 1.264 . S
C292 O286 1.248 . S
C293 O283 1.260 . S
C293 O287 1.253 . S
C294 O285 1.279 . S
C294 O288 1.250 . S
O295 Mg277 2.030 . S
O295 C289 1.248 . S
O296 Mg279 2.079 . S
O296 C289 1.264 . S
O297 Mg298 1.990 . S
O297 C311 1.253 . S
Mg298 O297 1.990 . S
Mg298 O301 2.180 . S
Mg298 O302 2.117 . S
Mg298 O316 2.030 . S
O299 Mg300 2.072 . S
O299 C311 1.260 . S
Mg300 O299 2.072 . S
Mg300 O301 2.099 . S
Mg300 O303 2.079 . S
Mg300 O304 2.072 . S
Mg300 O306 2.099 . S
Mg300 O317 2.079 . S
O301 Mg298 2.180 . S
O301 Mg300 2.099 . S
O301 C312 1.279 . S
O302 Mg298 2.117 . S
O302 C312 1.250 . S
O303 Mg300 2.079 . S
O303 C313 1.264 . S
O304 Mg300 2.072 . S
O304 C314 1.260 . S
Mg305 O306 2.180 . S
Mg305 O307 2.030 . S
Mg305 O308 1.990 . S
Mg305 O309 2.117 . S
O306 Mg300 2.099 . S
O306 Mg305 2.180 . S
O306 C315 1.279 . S
O307 Mg305 2.030 . S
O307 C313 1.248 . S
O308 Mg305 1.990 . S
O308 C314 1.253 . S
O309 Mg305 2.117 . S
O309 C315 1.250 . S
C310 O316 1.248 . S
C310 O317 1.264 . S
C311 O297 1.253 . S
C311 O299 1.260 . S
C312 O301 1.279 . S
C312 O302 1.250 . S
C313 O303 1.264 . S
C313 O307 1.248 . S
C314 O304 1.260 . S
C314 O308 1.253 . S
C315 O306 1.279 . S
C315 O309 1.250 . S
O316 Mg298 2.030 . S
O316 C310 1.248 . S
O317 Mg300 2.079 . S
O317 C310 1.264 . S
O318 Mg319 1.990 . S
O318 C332 1.253 . S
Mg319 O318 1.990 . S
Mg319 O322 2.180 . S
Mg319 O323 2.117 . S
Mg319 O337 2.030 . S
O320 Mg321 2.072 . S
O320 C332 1.260 . S
Mg321 O320 2.072 . S
Mg321 O322 2.099 . S
Mg321 O324 2.079 . S
Mg321 O325 2.072 . S
Mg321 O327 2.099 . S
Mg321 O338 2.079 . S
O322 Mg319 2.180 . S
O322 Mg321 2.099 . S
O322 C333 1.279 . S
O323 Mg319 2.117 . S
O323 C333 1.250 . S
O324 Mg321 2.079 . S
O324 C334 1.264 . S
O325 Mg321 2.072 . S
O325 C335 1.260 . S
Mg326 O327 2.180 . S
Mg326 O328 2.030 . S
Mg326 O329 1.990 . S
Mg326 O330 2.117 . S
O327 Mg321 2.099 . S
O327 Mg326 2.180 . S
O327 C336 1.279 . S
O328 Mg326 2.030 . S
O328 C334 1.248 . S
O329 Mg326 1.990 . S
O329 C335 1.253 . S
O330 Mg326 2.117 . S
O330 C336 1.250 . S
C331 O337 1.248 . S
C331 O338 1.264 . S
C332 O318 1.253 . S
C332 O320 1.260 . S
C333 O322 1.279 . S
C333 O323 1.250 . S
C334 O324 1.264 . S
C334 O328 1.248 . S
C335 O325 1.260 . S
C335 O329 1.253 . S
C336 O327 1.279 . S
C336 O330 1.250 . S
O337 Mg319 2.030 . S
O337 C331 1.248 . S
O338 Mg321 2.079 . S
O338 C331 1.264 . S
O339 Mg340 1.990 . S
O339 C353 1.253 . S
Mg340 O339 1.990 . S
Mg340 O343 2.180 . S
Mg340 O344 2.117 . S
Mg340 O358 2.030 . S
O341 Mg342 2.072 . S
O341 C353 1.260 . S
Mg342 O341 2.072 . S
Mg342 O343 2.099 . S
Mg342 O345 2.079 . S
Mg342 O346 2.072 . S
Mg342 O348 2.099 . S
Mg342 O359 2.079 . S
O343 Mg340 2.180 . S
O343 Mg342 2.099 . S
O343 C354 1.279 . S
O344 Mg340 2.117 . S
O344 C354 1.250 . S
O345 Mg342 2.079 . S
O345 C355 1.264 . S
O346 Mg342 2.072 . S
O346 C356 1.260 . S
Mg347 O348 2.180 . S
Mg347 O349 2.030 . S
Mg347 O350 1.990 . S
Mg347 O351 2.117 . S
O348 Mg342 2.099 . S
O348 Mg347 2.180 . S
O348 C357 1.279 . S
O349 Mg347 2.030 . S
O349 C355 1.248 . S
O350 Mg347 1.990 . S
O350 C356 1.253 . S
O351 Mg347 2.117 . S
O351 C357 1.250 . S
C352 O358 1.248 . S
C352 O359 1.264 . S
C353 O339 1.253 . S
C353 O341 1.260 . S
C354 O343 1.279 . S
C354 O344 1.250 . S
C355 O345 1.264 . S
C355 O349 1.248 . S
C356 O346 1.260 . S
C356 O350 1.253 . S
C357 O348 1.279 . S
C357 O351 1.250 . S
O358 Mg340 2.030 . S
O358 C352 1.248 . S
O359 Mg342 2.079 . S
O359 C352 1.264 . S
O360 Mg361 1.990 . S
O360 C374 1.253 . S
Mg361 O360 1.990 . S
Mg361 O364 2.180 . S
Mg361 O365 2.117 . S
Mg361 O379 2.030 . S
O362 Mg363 2.072 . S
O362 C374 1.260 . S
Mg363 O362 2.072 . S
Mg363 O364 2.099 . S
Mg363 O366 2.079 . S
Mg363 O367 2.072 . S
Mg363 O369 2.099 . S
Mg363 O380 2.079 . S
O364 Mg361 2.180 . S
O364 Mg363 2.099 . S
O364 C375 1.279 . S
O365 Mg361 2.117 . S
O365 C375 1.250 . S
O366 Mg363 2.079 . S
O366 C376 1.264 . S
O367 Mg363 2.072 . S
O367 C377 1.260 . S
Mg368 O369 2.180 . S
Mg368 O370 2.030 . S
Mg368 O371 1.990 . S
Mg368 O372 2.117 . S
O369 Mg363 2.099 . S
O369 Mg368 2.180 . S
O369 C378 1.279 . S
O370 Mg368 2.030 . S
O370 C376 1.248 . S
O371 Mg368 1.990 . S
O371 C377 1.253 . S
O372 Mg368 2.117 . S
O372 C378 1.250 . S
C373 O379 1.248 . S
C373 O380 1.264 . S
C374 O360 1.253 . S
C374 O362 1.260 . S
C375 O364 1.279 . S
C375 O365 1.250 . S
C376 O366 1.264 . S
C376 O370 1.248 . S
C377 O367 1.260 . S
C377 O371 1.253 . S
C378 O369 1.279 . S
C378 O372 1.250 . S
O379 Mg361 2.030 . S
O379 C373 1.248 . S
O380 Mg363 2.079 . S
O380 C373 1.264 . S
O381 Mg382 1.990 . S
O381 C395 1.253 . S
Mg382 O381 1.990 . S
Mg382 O385 2.180 . S
Mg382 O386 2.117 . S
Mg382 O400 2.030 . S
O383 Mg384 2.072 . S
O383 C395 1.260 . S
Mg384 O383 2.072 . S
Mg384 O385 2.099 . S
Mg384 O387 2.079 . S
Mg384 O388 2.072 . S
Mg384 O390 2.099 . S
Mg384 O401 2.079 . S
O385 Mg382 2.180 . S
O385 Mg384 2.099 . S
O385 C396 1.279 . S
O386 Mg382 2.117 . S
O386 C396 1.250 . S
O387 Mg384 2.079 . S
O387 C397 1.264 . S
O388 Mg384 2.072 . S
O388 C398 1.260 . S
Mg389 O390 2.180 . S
Mg389 O391 2.030 . S
Mg389 O392 1.990 . S
Mg389 O393 2.117 . S
O390 Mg384 2.099 . S
O390 Mg389 2.180 . S
O390 C399 1.279 . S
O391 Mg389 2.030 . S
O391 C397 1.248 . S
O392 Mg389 1.990 . S
O392 C398 1.253 . S
O393 Mg389 2.117 . S
O393 C399 1.250 . S
C394 O400 1.248 . S
C394 O401 1.264 . S
C395 O381 1.253 . S
C395 O383 1.260 . S
C396 O385 1.279 . S
C396 O386 1.250 . S
C397 O387 1.264 . S
C397 O391 1.248 . S
C398 O388 1.260 . S
C398 O392 1.253 . S
C399 O390 1.279 . S
C399 O393 1.250 . S
O400 Mg382 2.030 . S
O400 C394 1.248 . S
O401 Mg384 2.079 . S
O401 C394 1.264 . S
O402 Mg403 1.990 . S
O402 C416 1.253 . S
Mg403 O402 1.990 . S
Mg403 O406 2.180 . S
Mg403 O407 2.117 . S
Mg403 O421 2.030 . S
O404 Mg405 2.072 . S
O404 C416 1.260 . S
Mg405 O404 2.072 . S
Mg405 O406 2.099 . S
Mg405 O408 2.079 . S
Mg405 O409 2.072 . S
Mg405 O411 2.099 . S
Mg405 O422 2.079 . S
O406 Mg403 2.180 . S
O406 Mg405 2.099 . S
O406 C417 1.279 . S
O407 Mg403 2.117 . S
O407 C417 1.250 . S
O408 Mg405 2.079 . S
O408 C418 1.264 . S
O409 Mg405 2.072 . S
O409 C419 1.260 . S
Mg410 O411 2.180 . S
Mg410 O412 2.030 . S
Mg410 O413 1.990 . S
Mg410 O414 2.117 . S
O411 Mg405 2.099 . S
O411 Mg410 2.180 . S
O411 C420 1.279 . S
O412 Mg410 2.030 . S
O412 C418 1.248 . S
O413 Mg410 1.990 . S
O413 C419 1.253 . S
O414 Mg410 2.117 . S
O414 C420 1.250 . S
C415 O421 1.248 . S
C415 O422 1.264 . S
C416 O402 1.253 . S
C416 O404 1.260 . S
C417 O406 1.279 . S
C417 O407 1.250 . S
C418 O408 1.264 . S
C418 O412 1.248 . S
C419 O409 1.260 . S
C419 O413 1.253 . S
C420 O411 1.279 . S
C420 O414 1.250 . S
O421 Mg403 2.030 . S
O421 C415 1.248 . S
O422 Mg405 2.079 . S
O422 C415 1.264 . S
H423 C431 0.929 . S
H424 C433 0.930 . S
H425 C435 0.930 . S
H426 C438 0.929 . S
H427 C441 0.930 . S
H428 C443 0.960 . S
H429 C443 0.960 . S
H430 C443 0.960 . S
C431 H423 0.929 . S
C431 C432 1.377 . S
C431 C433 1.384 . S
C432 C431 1.377 . S
C432 C438 1.390 . S
C433 H424 0.930 . S
C433 C431 1.384 . S
C433 C434 1.372 . S
C434 C433 1.372 . S
C434 C435 1.400 . S
C434 C439 1.490 . S
C435 H425 0.930 . S
C435 C434 1.400 . S
C435 C438 1.386 . S
H436 C452 0.930 1_556 S
H437 C453 0.931 1_556 S
C438 H426 0.929 . S
C438 C432 1.390 . S
C438 C435 1.386 . S
C439 C434 1.490 . S
C439 C441 1.395 . S
C439 C442 1.403 . S
H440 C446 0.930 . S
C441 H427 0.930 . S
C441 C439 1.395 . S
C441 C444 1.403 . S
C442 C439 1.403 . S
C442 C443 1.524 . S
C442 C446 1.400 . S
C443 H428 0.960 . S
C443 H429 0.960 . S
C443 H430 0.960 . S
C443 C442 1.524 . S
C444 C441 1.403 . S
C444 C445 1.392 . S
C444 C448 1.495 . S
C445 C444 1.392 . S
C445 C446 1.385 . S
C445 C447 1.478 . S
C446 H440 0.930 . S
C446 C442 1.400 . S
C446 C445 1.385 . S
C447 C445 1.478 . S
C447 C449 1.381 . S
C447 C453 1.383 . S
C448 C444 1.495 . S
C448 H454 0.959 . S
C448 H455 0.961 . S
C448 H456 0.960 . S
C449 C447 1.381 . S
C449 C450 1.394 . S
C449 H457 0.930 . S
C450 C449 1.394 . S
C450 C451 1.383 . S
C450 H458 0.929 . S
C451 C450 1.383 . S
C451 C452 1.377 . S
C452 H436 0.930 1_554 S
C452 C451 1.377 . S
C452 C453 1.379 . S
C453 H437 0.931 1_554 S
C453 C447 1.383 . S
C453 C452 1.379 . S
H454 C448 0.959 . S
H455 C448 0.961 . S
H456 C448 0.960 . S
H457 C449 0.930 . S
H458 C450 0.929 . S
H459 C467 0.929 . S
H460 C469 0.930 . S
H461 C471 0.930 . S
H462 C474 0.929 . S
H463 C477 0.930 . S
H464 C479 0.960 . S
H465 C479 0.960 . S
H466 C479 0.960 . S
C467 H459 0.929 . S
C467 C468 1.377 . S
C467 C469 1.384 . S
C468 C467 1.377 . S
C468 C474 1.390 . S
C469 H460 0.930 . S
C469 C467 1.384 . S
C469 C470 1.372 . S
C470 C469 1.372 . S
C470 C471 1.400 . S
C470 C475 1.490 . S
C471 H461 0.930 . S
C471 C470 1.400 . S
C471 C474 1.386 . S
H472 C488 0.930 . S
H473 C489 0.937 . S
C474 H462 0.929 . S
C474 C468 1.390 . S
C474 C471 1.386 . S
C475 C470 1.490 . S
C475 C477 1.395 . S
C475 C478 1.403 . S
H476 C482 0.930 . S
C477 H463 0.930 . S
C477 C475 1.395 . S
C477 C480 1.403 . S
C478 C475 1.403 . S
C478 C479 1.524 . S
C478 C482 1.400 . S
C479 H464 0.960 . S
C479 H465 0.960 . S
C479 H466 0.960 . S
C479 C478 1.524 . S
C480 C477 1.403 . S
C480 C481 1.392 . S
C480 C484 1.495 . S
C481 C480 1.392 . S
C481 C482 1.385 . S
C481 C483 1.478 . S
C482 H476 0.930 . S
C482 C478 1.400 . S
C482 C481 1.385 . S
C483 C481 1.478 . S
C483 C485 1.381 . S
C483 C489 1.376 1_554 S
C484 C480 1.495 . S
C484 H490 0.959 . S
C484 H491 0.961 1_554 S
C484 H492 0.960 . S
C485 C483 1.381 . S
C485 C486 1.394 . S
C485 H493 0.930 . S
C486 C485 1.394 . S
C486 C487 1.383 . S
C486 H494 0.929 . S
C487 C486 1.383 . S
C487 C488 1.377 1_554 S
C488 H472 0.930 . S
C488 C487 1.377 1_556 S
C488 C489 1.380 . S
C489 H473 0.937 . S
C489 C483 1.376 1_556 S
C489 C488 1.380 . S
H490 C484 0.959 . S
H491 C484 0.961 1_556 S
H492 C484 0.960 . S
H493 C485 0.930 . S
H494 C486 0.929 . S
H495 C503 0.929 1_556 S
H496 C505 0.930 1_556 S
H497 C507 0.930 . S
H498 C510 0.929 . S
H499 C513 0.930 . S
H500 C515 0.960 . S
H501 C515 0.960 . S
H502 C515 0.960 . S
C503 H495 0.929 1_554 S
C503 C504 1.377 . S
C503 C505 1.384 . S
C504 C503 1.377 . S
C504 C510 1.390 . S
C505 H496 0.930 1_554 S
C505 C503 1.384 . S
C505 C506 1.372 . S
C506 C505 1.372 . S
C506 C507 1.400 . S
C506 C511 1.490 . S
C507 H497 0.930 . S
C507 C506 1.400 . S
C507 C510 1.386 . S
H508 C524 0.930 . S
H509 C525 0.931 . S
C510 H498 0.929 . S
C510 C504 1.390 . S
C510 C507 1.386 . S
C511 C506 1.490 . S
C511 C513 1.395 . S
C511 C514 1.403 . S
H512 C518 0.930 . S
C513 H499 0.930 . S
C513 C511 1.395 . S
C513 C516 1.403 . S
C514 C511 1.403 . S
C514 C515 1.524 . S
C514 C518 1.400 . S
C515 H500 0.960 . S
C515 H501 0.960 . S
C515 H502 0.960 . S
C515 C514 1.524 . S
C516 C513 1.403 . S
C516 C517 1.392 . S
C516 C520 1.495 1_554 S
C517 C516 1.392 . S
C517 C518 1.385 . S
C517 C519 1.478 . S
C518 H512 0.930 . S
C518 C514 1.400 . S
C518 C517 1.385 . S
C519 C517 1.478 . S
C519 C521 1.381 . S
C519 C525 1.383 . S
C520 C516 1.495 1_556 S
C520 H526 0.959 . S
C520 H527 0.952 1_556 S
C520 H528 0.960 . S
C521 C519 1.381 . S
C521 C522 1.394 . S
C521 H529 0.930 1_554 S
C522 C521 1.394 . S
C522 C523 1.383 . S
C522 H530 0.929 1_554 S
C523 C522 1.383 . S
C523 C524 1.377 . S
C524 H508 0.930 . S
C524 C523 1.377 . S
C524 C525 1.379 . S
C525 H509 0.931 . S
C525 C519 1.383 . S
C525 C524 1.379 . S
H526 C520 0.959 . S
H527 C520 0.952 1_554 S
H528 C520 0.960 . S
H529 C521 0.930 1_556 S
H530 C522 0.929 1_556 S
H531 C539 0.929 . S
H532 C541 0.930 . S
H533 C543 0.930 . S
H534 C546 0.929 . S
H535 C549 0.930 . S
H536 C551 0.960 . S
H537 C551 0.960 . S
H538 C551 0.960 . S
C539 H531 0.929 . S
C539 C540 1.377 . S
C539 C541 1.384 . S
C540 C539 1.377 . S
C540 C546 1.390 1_554 S
C541 H532 0.930 . S
C541 C539 1.384 . S
C541 C542 1.372 . S
C542 C541 1.372 . S
C542 C543 1.400 1_554 S
C542 C547 1.490 . S
C543 H533 0.930 . S
C543 C542 1.400 1_556 S
C543 C546 1.386 . S
H544 C560 0.930 . S
H545 C561 0.931 . S
C546 H534 0.929 . S
C546 C540 1.390 1_556 S
C546 C543 1.386 . S
C547 C542 1.490 . S
C547 C549 1.395 . S
C547 C550 1.403 1_554 S
H548 C554 0.930 . S
C549 H535 0.930 . S
C549 C547 1.395 . S
C549 C552 1.403 . S
C550 C547 1.403 1_556 S
C550 C551 1.524 . S
C550 C554 1.400 . S
C551 H536 0.960 . S
C551 H537 0.960 . S
C551 H538 0.960 . S
C551 C550 1.524 . S
C552 C549 1.403 . S
C552 C553 1.392 . S
C552 C556 1.495 . S
C553 C552 1.392 . S
C553 C554 1.385 1_554 S
C553 C555 1.478 . S
C554 H548 0.930 . S
C554 C550 1.400 . S
C554 C553 1.385 1_556 S
C555 C553 1.478 . S
C555 C557 1.381 . S
C555 C561 1.383 1_554 S
C556 C552 1.495 . S
C556 H562 0.959 . S
C556 H563 0.961 . S
C556 H564 0.960 . S
C557 C555 1.381 . S
C557 C558 1.394 . S
C557 H565 0.930 . S
C558 C557 1.394 . S
C558 C559 1.383 . S
C558 H566 0.929 . S
C559 C558 1.383 . S
C559 C560 1.377 1_554 S
C560 H544 0.930 . S
C560 C559 1.377 1_556 S
C560 C561 1.379 . S
C561 H545 0.931 . S
C561 C555 1.383 1_556 S
C561 C560 1.379 . S
H562 C556 0.959 . S
H563 C556 0.961 . S
H564 C556 0.960 . S
H565 C557 0.930 . S
H566 C558 0.929 . S
H567 C575 0.929 . S
H568 C577 0.930 . S
H569 C579 0.930 . S
H570 C582 0.929 . S
H571 C585 0.930 1_556 S
H572 C587 0.960 . S
H573 C587 0.960 . S
H574 C587 0.960 . S
C575 H567 0.929 . S
C575 C576 1.377 . S
C575 C577 1.384 . S
C576 C575 1.377 . S
C576 C582 1.390 1_554 S
C577 H568 0.930 . S
C577 C575 1.384 . S
C577 C578 1.372 . S
C578 C577 1.372 . S
C578 C579 1.400 1_554 S
C578 C583 1.490 . S
C579 H569 0.930 . S
C579 C578 1.400 1_556 S
C579 C582 1.386 . S
H580 C596 0.930 1_556 S
H581 C597 0.931 1_556 S
C582 H570 0.929 . S
C582 C576 1.390 1_556 S
C582 C579 1.386 . S
C583 C578 1.490 . S
C583 C585 1.395 . S
C583 C586 1.403 . S
H584 C590 0.930 . S
C585 H571 0.930 1_554 S
C585 C583 1.395 . S
C585 C588 1.403 . S
C586 C583 1.403 . S
C586 C587 1.524 . S
C586 C590 1.400 . S
C587 H572 0.960 . S
C587 H573 0.960 . S
C587 H574 0.960 . S
C587 C586 1.524 . S
C588 C585 1.403 . S
C588 C589 1.392 . S
C588 C592 1.495 1_554 S
C589 C588 1.392 . S
C589 C590 1.385 . S
C589 C591 1.478 . S
C590 H584 0.930 . S
C590 C586 1.400 . S
C590 C589 1.385 . S
C591 C589 1.478 . S
C591 C593 1.381 . S
C591 C597 1.383 . S
C592 C588 1.495 1_556 S
C592 H598 0.959 . S
C592 H599 0.961 . S
C592 H600 0.960 1_556 S
C593 C591 1.381 . S
C593 C594 1.394 . S
C593 H601 0.930 . S
C594 C593 1.394 . S
C594 C595 1.383 . S
C594 H602 0.929 . S
C595 C594 1.383 . S
C595 C596 1.377 . S
C596 H580 0.930 1_554 S
C596 C595 1.377 . S
C596 C597 1.379 . S
C597 H581 0.931 1_554 S
C597 C591 1.383 . S
C597 C596 1.379 . S
H598 C592 0.959 . S
H599 C592 0.961 . S
H600 C592 0.960 1_554 S
H601 C593 0.930 . S
H602 C594 0.929 . S
H603 C611 0.929 . S
H604 C613 0.930 . S
H605 C615 0.930 . S
H606 C618 0.929 . S
H607 C621 0.930 . S
H608 C623 0.960 . S
H609 C623 0.960 . S
H610 C623 0.960 . S
C611 H603 0.929 . S
C611 C612 1.377 . S
C611 C613 1.384 . S
C612 C611 1.377 . S
C612 C618 1.390 1_556 S
C613 H604 0.930 . S
C613 C611 1.384 . S
C613 C614 1.367 1_556 S
C614 C613 1.367 1_554 S
C614 C615 1.405 . S
C614 C619 1.490 . S
C615 H605 0.930 . S
C615 C614 1.405 . S
C615 C618 1.386 . S
H616 C632 0.930 . S
H617 C633 0.931 . S
C618 H606 0.929 . S
C618 C612 1.390 1_554 S
C618 C615 1.386 . S
C619 C614 1.490 . S
C619 C621 1.395 1_554 S
C619 C622 1.403 . S
H620 C626 0.930 . S
C621 H607 0.930 . S
C621 C619 1.395 1_556 S
C621 C624 1.403 . S
C622 C619 1.403 . S
C622 C623 1.524 . S
C622 C626 1.400 . S
C623 H608 0.960 . S
C623 H609 0.960 . S
C623 H610 0.960 . S
C623 C622 1.524 . S
C624 C621 1.403 . S
C624 C625 1.392 1_556 S
C624 C628 1.495 . S
C625 C624 1.392 1_554 S
C625 C626 1.385 . S
C625 C627 1.478 . S
C626 H620 0.930 . S
C626 C622 1.400 . S
C626 C625 1.385 . S
C627 C625 1.478 . S
C627 C629 1.381 1_554 S
C627 C633 1.383 . S
C628 C624 1.495 . S
C628 H634 0.959 . S
C628 H635 0.961 . S
C628 H636 0.960 . S
C629 C627 1.381 1_556 S
C629 C630 1.394 . S
C629 H637 0.930 . S
C630 C629 1.394 . S
C630 C631 1.383 1_556 S
C630 H638 0.929 . S
C631 C630 1.383 1_554 S
C631 C632 1.377 . S
C632 H616 0.930 . S
C632 C631 1.377 . S
C632 C633 1.379 . S
C633 H617 0.931 . S
C633 C627 1.383 . S
C633 C632 1.379 . S
H634 C628 0.959 . S
H635 C628 0.961 . S
H636 C628 0.960 . S
H637 C629 0.930 . S
H638 C630 0.929 . S
H639 C647 0.929 . S
H640 C649 0.930 . S
H641 C651 0.930 . S
H642 C654 0.929 . S
H643 C657 0.930 . S
H644 C659 0.960 . S
H645 C659 0.960 . S
H646 C659 0.960 1_554 S
C647 H639 0.929 . S
C647 C648 1.377 . S
C647 C649 1.384 . S
C648 C647 1.377 . S
C648 C654 1.390 1_556 S
C649 H640 0.930 . S
C649 C647 1.384 . S
C649 C650 1.372 1_556 S
C650 C649 1.372 1_554 S
C650 C651 1.400 . S
C650 C655 1.490 . S
C651 H641 0.930 . S
C651 C650 1.400 . S
C651 C654 1.386 . S
H652 C668 0.930 . S
H653 C669 0.931 . S
C654 H642 0.929 . S
C654 C648 1.390 1_554 S
C654 C651 1.386 . S
C655 C650 1.490 . S
C655 C657 1.395 . S
C655 C658 1.402 . S
H656 C662 0.935 . S
C657 H643 0.930 . S
C657 C655 1.395 . S
C657 C660 1.403 . S
C658 C655 1.402 . S
C658 C659 1.524 1_554 S
C658 C662 1.400 . S
C659 H644 0.960 . S
C659 H645 0.960 . S
C659 H646 0.960 1_556 S
C659 C658 1.524 1_556 S
C660 C657 1.403 . S
C660 C661 1.392 . S
C660 C664 1.495 . S
C661 C660 1.392 . S
C661 C662 1.385 . S
C661 C663 1.478 . S
C662 H656 0.935 . S
C662 C658 1.400 . S
C662 C661 1.385 . S
C663 C661 1.478 . S
C663 C665 1.381 1_554 S
C663 C669 1.383 . S
C664 C660 1.495 . S
C664 H670 0.959 . S
C664 H671 0.961 . S
C664 H672 0.960 . S
C665 C663 1.381 1_556 S
C665 C666 1.394 . S
C665 H673 0.930 . S
C666 C665 1.394 . S
C666 C667 1.376 1_556 S
C666 H674 0.936 . S
C667 C666 1.376 1_554 S
C667 C668 1.377 . S
C668 H652 0.930 . S
C668 C667 1.377 . S
C668 C669 1.379 . S
C669 H653 0.931 . S
C669 C663 1.383 . S
C669 C668 1.379 . S
H670 C664 0.959 . S
H671 C664 0.961 . S
H672 C664 0.960 . S
H673 C665 0.930 . S
H674 C666 0.936 . S
H675 C683 0.929 . S
H676 C685 0.930 . S
H677 C687 0.930 . S
H678 C690 0.929 . S
H679 C693 0.930 . S
H680 C695 0.960 . S
H681 C695 0.960 . S
H682 C695 0.960 . S
C683 H675 0.929 . S
C683 C684 1.377 1_554 S
C683 C685 1.384 . S
C684 C683 1.377 1_556 S
C684 C690 1.390 . S
C685 H676 0.930 . S
C685 C683 1.384 . S
C685 C686 1.372 1_554 S
C686 C685 1.372 1_556 S
C686 C687 1.400 . S
C686 C691 1.490 . S
C687 H677 0.930 . S
C687 C686 1.400 . S
C687 C690 1.386 . S
H688 C704 0.930 . S
H689 C705 0.931 . S
C690 H678 0.929 . S
C690 C684 1.390 . S
C690 C687 1.386 . S
C691 C686 1.490 . S
C691 C693 1.395 1_556 S
C691 C694 1.403 . S
H692 C698 0.930 . S
C693 H679 0.930 . S
C693 C691 1.395 1_554 S
C693 C696 1.403 . S
C694 C691 1.403 . S
C694 C695 1.524 . S
C694 C698 1.400 . S
C695 H680 0.960 . S
C695 H681 0.960 . S
C695 H682 0.960 . S
C695 C694 1.524 . S
C696 C693 1.403 . S
C696 C697 1.392 . S
C696 C700 1.495 . S
C697 C696 1.392 . S
C697 C698 1.385 1_554 S
C697 C699 1.478 . S
C698 H692 0.930 . S
C698 C694 1.400 . S
C698 C697 1.385 1_556 S
C699 C697 1.478 . S
C699 C701 1.381 . S
C699 C705 1.383 1_554 S
C700 C696 1.495 . S
C700 H706 0.959 . S
C700 H707 0.961 . S
C700 H708 0.960 . S
C701 C699 1.381 . S
C701 C702 1.394 . S
C701 H709 0.930 . S
C702 C701 1.394 . S
C702 C703 1.383 . S
C702 H710 0.929 . S
C703 C702 1.383 . S
C703 C704 1.377 1_554 S
C704 H688 0.930 . S
C704 C703 1.377 1_556 S
C704 C705 1.379 . S
C705 H689 0.931 . S
C705 C699 1.383 1_556 S
C705 C704 1.379 . S
H706 C700 0.959 . S
H707 C700 0.961 . S
H708 C700 0.960 . S
H709 C701 0.930 . S
H710 C702 0.929 . S
H711 C719 0.929 . S
H712 C721 0.930 . S
H713 C723 0.930 . S
H714 C726 0.929 1_556 S
H715 C729 0.930 . S
H716 C731 0.960 . S
H717 C731 0.960 . S
H718 C731 0.960 . S
C719 H711 0.929 . S
C719 C720 1.377 . S
C719 C721 1.384 . S
C720 C719 1.377 . S
C720 C726 1.390 . S
C721 H712 0.930 . S
C721 C719 1.384 . S
C721 C722 1.372 . S
C722 C721 1.372 . S
C722 C723 1.400 . S
C722 C727 1.490 . S
C723 H713 0.930 . S
C723 C722 1.400 . S
C723 C726 1.386 . S
H724 C740 0.930 . S
H725 C741 0.931 . S
C726 H714 0.929 1_554 S
C726 C720 1.390 . S
C726 C723 1.386 . S
C727 C722 1.490 . S
C727 C729 1.395 . S
C727 C730 1.410 . S
H728 C734 0.930 1_556 S
C729 H715 0.930 . S
C729 C727 1.395 . S
C729 C732 1.403 . S
C730 C727 1.410 . S
C730 C731 1.513 1_554 S
C730 C734 1.404 . S
C731 H716 0.960 . S
C731 H717 0.960 . S
C731 H718 0.960 . S
C731 C730 1.513 1_556 S
C732 C729 1.403 . S
C732 C733 1.392 . S
C732 C736 1.495 . S
C733 C732 1.392 . S
C733 C734 1.385 . S
C733 C735 1.478 . S
C734 H728 0.930 1_554 S
C734 C730 1.404 . S
C734 C733 1.385 . S
C735 C733 1.478 . S
C735 C737 1.381 . S
C735 C741 1.383 . S
C736 C732 1.495 . S
C736 H742 0.959 . S
C736 H743 0.961 . S
C736 H744 0.960 . S
C737 C735 1.381 . S
C737 C738 1.394 . S
C737 H745 0.930 . S
C738 C737 1.394 . S
C738 C739 1.383 . S
C738 H746 0.929 . S
C739 C738 1.383 . S
C739 C740 1.377 . S
C740 H724 0.930 . S
C740 C739 1.377 . S
C740 C741 1.379 . S
C741 H725 0.931 . S
C741 C735 1.383 . S
C741 C740 1.379 . S
H742 C736 0.959 . S
H743 C736 0.961 . S
H744 C736 0.960 . S
H745 C737 0.930 . S
H746 C738 0.929 . S
H747 C755 0.929 . S
H748 C757 0.930 . S
H749 C759 0.930 1_556 S
H750 C762 0.929 1_556 S
H751 C765 0.930 . S
H752 C767 0.960 . S
H753 C767 0.960 1_554 S
H754 C767 0.960 . S
C755 H747 0.929 . S
C755 C756 1.377 . S
C755 C757 1.384 . S
C756 C755 1.377 . S
C756 C762 1.390 . S
C757 H748 0.930 . S
C757 C755 1.384 . S
C757 C758 1.372 . S
C758 C757 1.372 . S
C758 C759 1.400 . S
C758 C763 1.490 . S
C759 H749 0.930 1_554 S
C759 C758 1.400 . S
C759 C762 1.386 . S
H760 C776 0.930 . S
H761 C777 0.931 . S
C762 H750 0.929 1_554 S
C762 C756 1.390 . S
C762 C759 1.386 . S
C763 C758 1.490 . S
C763 C765 1.395 . S
C763 C766 1.403 . S
H764 C770 0.930 1_556 S
C765 H751 0.930 . S
C765 C763 1.395 . S
C765 C768 1.403 . S
C766 C763 1.403 . S
C766 C767 1.524 1_554 S
C766 C770 1.400 . S
C767 H752 0.960 . S
C767 H753 0.960 1_556 S
C767 H754 0.960 . S
C767 C766 1.524 1_556 S
C768 C765 1.403 . S
C768 C769 1.392 . S
C768 C772 1.495 . S
C769 C768 1.392 . S
C769 C770 1.385 . S
C769 C771 1.478 . S
C770 H764 0.930 1_554 S
C770 C766 1.400 . S
C770 C769 1.385 . S
C771 C769 1.478 . S
C771 C773 1.381 . S
C771 C777 1.383 1_554 S
C772 C768 1.495 . S
C772 H778 0.959 . S
C772 H779 0.961 . S
C772 H780 0.960 . S
C773 C771 1.381 . S
C773 C774 1.394 . S
C773 H781 0.930 . S
C774 C773 1.394 . S
C774 C775 1.383 . S
C774 H782 0.929 . S
C775 C774 1.383 . S
C775 C776 1.377 1_554 S
C776 H760 0.930 . S
C776 C775 1.377 1_556 S
C776 C777 1.379 . S
C777 H761 0.931 . S
C777 C771 1.383 1_556 S
C777 C776 1.379 . S
H778 C772 0.959 . S
H779 C772 0.961 . S
H780 C772 0.960 . S
H781 C773 0.930 . S
H782 C774 0.929 . S
H783 C791 0.929 . S
H784 C793 0.930 . S
H785 C795 0.930 . S
H786 C798 0.929 . S
H787 C801 0.930 . S
H788 C803 0.960 . S
H789 C803 0.960 . S
H790 C803 0.960 . S
C791 H783 0.929 . S
C791 C792 1.377 . S
C791 C793 1.384 . S
C792 C791 1.377 . S
C792 C798 1.390 . S
C793 H784 0.930 . S
C793 C791 1.384 . S
C793 C794 1.372 . S
C794 C793 1.372 . S
C794 C795 1.400 . S
C794 C799 1.490 . S
C795 H785 0.930 . S
C795 C794 1.400 . S
C795 C798 1.386 . S
H796 C812 0.930 . S
H797 C813 0.931 . S
C798 H786 0.929 . S
C798 C792 1.390 . S
C798 C795 1.386 . S
C799 C794 1.490 . S
C799 C801 1.395 . S
C799 C802 1.403 . S
H800 C806 0.930 . S
C801 H787 0.930 . S
C801 C799 1.395 . S
C801 C804 1.403 . S
C802 C799 1.403 . S
C802 C803 1.524 . S
C802 C806 1.400 . S
C803 H788 0.960 . S
C803 H789 0.960 . S
C803 H790 0.960 . S
C803 C802 1.524 . S
C804 C801 1.403 . S
C804 C805 1.392 . S
C804 C808 1.495 . S
C805 C804 1.392 . S
C805 C806 1.385 . S
C805 C807 1.478 . S
C806 H800 0.930 . S
C806 C802 1.400 . S
C806 C805 1.385 . S
C807 C805 1.478 . S
C807 C809 1.381 . S
C807 C813 1.383 . S
C808 C804 1.495 . S
C808 H814 0.959 . S
C808 H815 0.961 . S
C808 H816 0.960 . S
C809 C807 1.381 . S
C809 C810 1.394 . S
C809 H817 0.930 . S
C810 C809 1.394 . S
C810 C811 1.383 . S
C810 H818 0.929 . S
C811 C810 1.383 . S
C811 C812 1.377 . S
C812 H796 0.930 . S
C812 C811 1.377 . S
C812 C813 1.379 . S
C813 H797 0.931 . S
C813 C807 1.383 . S
C813 C812 1.379 . S
H814 C808 0.959 . S
H815 C808 0.961 . S
H816 C808 0.960 . S
H817 C809 0.930 . S
H818 C810 0.929 . S
H819 C827 0.913 1_556 S
H820 C829 0.930 1_556 S
H821 C831 0.930 . S
H822 C834 0.929 . S
H823 C837 0.930 . S
H824 C839 0.960 . S
H825 C839 0.960 . S
H826 C839 0.960 . S
C827 H819 0.913 1_554 S
C827 C828 1.377 . S
C827 C829 1.384 . S
C828 C827 1.377 . S
C828 C834 1.390 . S
C829 H820 0.930 1_554 S
C829 C827 1.384 . S
C829 C830 1.372 . S
C830 C829 1.372 . S
C830 C831 1.400 . S
C830 C835 1.490 . S
C831 H821 0.930 . S
C831 C830 1.400 . S
C831 C834 1.386 . S
H832 C848 0.930 . S
H833 C849 0.931 . S
C834 H822 0.929 . S
C834 C828 1.390 . S
C834 C831 1.386 . S
C835 C830 1.490 . S
C835 C837 1.395 . S
C835 C838 1.403 . S
H836 C842 0.930 . S
C837 H823 0.930 . S
C837 C835 1.395 . S
C837 C840 1.403 . S
C838 C835 1.403 . S
C838 C839 1.524 . S
C838 C842 1.400 . S
C839 H824 0.960 . S
C839 H825 0.960 . S
C839 H826 0.960 . S
C839 C838 1.524 . S
C840 C837 1.403 . S
C840 C841 1.392 . S
C840 C844 1.495 1_554 S
C841 C840 1.392 . S
C841 C842 1.385 . S
C841 C843 1.478 . S
C842 H836 0.930 . S
C842 C838 1.400 . S
C842 C841 1.385 . S
C843 C841 1.478 . S
C843 C845 1.381 1_554 S
C843 C849 1.383 . S
C844 C840 1.495 1_556 S
C844 H850 0.959 . S
C844 H851 0.961 1_556 S
C844 H852 0.960 . S
C845 C843 1.381 1_556 S
C845 C846 1.394 . S
C845 H853 0.930 . S
C846 C845 1.394 . S
C846 C847 1.383 1_556 S
C846 H854 0.929 . S
C847 C846 1.383 1_554 S
C847 C848 1.377 . S
C848 H832 0.930 . S
C848 C847 1.377 . S
C848 C849 1.379 . S
C849 H833 0.931 . S
C849 C843 1.383 . S
C849 C848 1.379 . S
H850 C844 0.959 . S
H851 C844 0.961 1_554 S
H852 C844 0.960 . S
H853 C845 0.930 . S
H854 C846 0.929 . S
H855 C863 0.929 . S
H856 C865 0.930 . S
H857 C867 0.930 . S
H858 C870 0.929 . S
H859 C873 0.930 . S
H860 C875 0.960 1_455 S
H861 C875 0.960 . S
H862 C875 0.960 . S
C863 H855 0.929 . S
C863 C864 1.377 . S
C863 C865 1.384 . S
C864 C863 1.377 . S
C864 C870 1.390 . S
C865 H856 0.930 . S
C865 C863 1.384 . S
C865 C866 1.372 . S
C866 C865 1.372 . S
C866 C867 1.400 . S
C866 C871 1.490 . S
C867 H857 0.930 . S
C867 C866 1.400 . S
C867 C870 1.386 . S
H868 C884 0.930 . S
H869 C885 0.931 . S
C870 H858 0.929 . S
C870 C864 1.390 . S
C870 C867 1.386 . S
C871 C866 1.490 . S
C871 C873 1.395 1_655 S
C871 C874 1.403 1_655 S
H872 C878 0.930 . S
C873 H859 0.930 . S
C873 C871 1.395 1_455 S
C873 C876 1.403 . S
C874 C871 1.403 1_455 S
C874 C875 1.524 1_455 S
C874 C878 1.400 . S
C875 H860 0.960 1_655 S
C875 H861 0.960 . S
C875 H862 0.960 . S
C875 C874 1.524 1_655 S
C876 C873 1.403 . S
C876 C877 1.392 . S
C876 C880 1.495 . S
C877 C876 1.392 . S
C877 C878 1.385 . S
C877 C879 1.478 . S
C878 H872 0.930 . S
C878 C874 1.400 . S
C878 C877 1.385 . S
C879 C877 1.478 . S
C879 C881 1.381 . S
C879 C885 1.383 . S
C880 C876 1.495 . S
C880 H886 0.959 . S
C880 H887 0.961 . S
C880 H888 0.960 . S
C881 C879 1.381 . S
C881 C882 1.394 . S
C881 H889 0.930 . S
C882 C881 1.394 . S
C882 C883 1.383 . S
C882 H890 0.929 . S
C883 C882 1.383 . S
C883 C884 1.377 . S
C884 H868 0.930 . S
C884 C883 1.377 . S
C884 C885 1.379 . S
C885 H869 0.931 . S
C885 C879 1.383 . S
C885 C884 1.379 . S
H886 C880 0.959 . S
H887 C880 0.961 . S
H888 C880 0.960 . S
H889 C881 0.930 . S
H890 C882 0.929 . S
H891 C899 0.929 . S
H892 C901 0.930 . S
H893 C903 0.930 . S
H894 C906 0.929 . S
H895 C909 0.930 . S
H896 C911 0.960 . S
H897 C911 0.960 . S
H898 C911 0.960 . S
C899 H891 0.929 . S
C899 C900 1.377 . S
C899 C901 1.384 . S
C900 C899 1.377 . S
C900 C906 1.390 . S
C901 H892 0.930 . S
C901 C899 1.384 . S
C901 C902 1.372 . S
C902 C901 1.372 . S
C902 C903 1.400 . S
C902 C907 1.490 . S
C903 H893 0.930 . S
C903 C902 1.400 . S
C903 C906 1.386 . S
H904 C920 0.930 . S
H905 C921 0.931 . S
C906 H894 0.929 . S
C906 C900 1.390 . S
C906 C903 1.386 . S
C907 C902 1.490 . S
C907 C909 1.395 . S
C907 C910 1.403 . S
H908 C914 0.930 . S
C909 H895 0.930 . S
C909 C907 1.395 . S
C909 C912 1.403 . S
C910 C907 1.403 . S
C910 C911 1.524 . S
C910 C914 1.400 . S
C911 H896 0.960 . S
C911 H897 0.960 . S
C911 H898 0.960 . S
C911 C910 1.524 . S
C912 C909 1.403 . S
C912 C913 1.392 . S
C912 C916 1.495 . S
C913 C912 1.392 . S
C913 C914 1.385 . S
C913 C915 1.478 . S
C914 H908 0.930 . S
C914 C910 1.400 . S
C914 C913 1.385 . S
C915 C913 1.478 . S
C915 C917 1.381 . S
C915 C921 1.383 . S
C916 C912 1.495 . S
C916 H922 0.959 . S
C916 H923 0.961 . S
C916 H924 0.960 . S
C917 C915 1.381 . S
C917 C918 1.394 . S
C917 H925 0.930 . S
C918 C917 1.394 . S
C918 C919 1.383 . S
C918 H926 0.929 . S
C919 C918 1.383 . S
C919 C920 1.377 . S
C920 H904 0.930 . S
C920 C919 1.377 . S
C920 C921 1.379 . S
C921 H905 0.931 . S
C921 C915 1.383 . S
C921 C920 1.379 . S
H922 C916 0.959 . S
H923 C916 0.961 . S
H924 C916 0.960 . S
H925 C917 0.930 . S
H926 C918 0.929 . S
H927 C935 0.929 . S
H928 C937 0.930 . S
H929 C939 0.930 . S
H930 C942 0.929 . S
H931 C945 0.930 1_545 S
H932 C947 0.960 . S
H933 C947 0.960 . S
H934 C947 0.960 . S
C935 H927 0.929 . S
C935 C936 1.377 . S
C935 C937 1.384 . S
C936 C935 1.377 . S
C936 C942 1.390 . S
C937 H928 0.930 . S
C937 C935 1.384 . S
C937 C938 1.372 . S
C938 C937 1.372 . S
C938 C939 1.400 . S
C938 C943 1.490 . S
C939 H929 0.930 . S
C939 C938 1.400 . S
C939 C942 1.386 . S
H940 C956 0.930 . S
H941 C957 0.931 . S
C942 H930 0.929 . S
C942 C936 1.390 . S
C942 C939 1.386 . S
C943 C938 1.490 . S
C943 C945 1.395 1_545 S
C943 C946 1.403 . S
H944 C950 0.930 . S
C945 H931 0.930 1_565 S
C945 C943 1.395 1_565 S
C945 C948 1.403 . S
C946 C943 1.403 . S
C946 C947 1.524 . S
C946 C950 1.400 1_545 S
C947 H932 0.960 . S
C947 H933 0.960 . S
C947 H934 0.960 . S
C947 C946 1.524 . S
C948 C945 1.403 . S
C948 C949 1.392 . S
C948 C952 1.495 . S
C949 C948 1.392 . S
C949 C950 1.385 . S
C949 C951 1.478 . S
C950 H944 0.930 . S
C950 C946 1.400 1_565 S
C950 C949 1.385 . S
C951 C949 1.478 . S
C951 C953 1.381 . S
C951 C957 1.383 . S
C952 C948 1.495 . S
C952 H958 0.959 . S
C952 H959 0.961 . S
C952 H960 0.960 . S
C953 C951 1.381 . S
C953 C954 1.394 . S
C953 H961 0.930 . S
C954 C953 1.394 . S
C954 C955 1.383 . S
C954 H962 0.929 . S
C955 C954 1.383 . S
C955 C956 1.377 . S
C956 H940 0.930 . S
C956 C955 1.377 . S
C956 C957 1.379 . S
C957 H941 0.931 . S
C957 C951 1.383 . S
C957 C956 1.379 . S
H958 C952 0.959 . S
H959 C952 0.961 . S
H960 C952 0.960 . S
H961 C953 0.930 . S
H962 C954 0.929 . S
H963 C971 0.929 . S
H964 C973 0.930 . S
H965 C975 0.930 . S
H966 C978 0.929 . S
H967 C981 0.930 . S
H968 C983 0.960 . S
H969 C983 0.960 . S
H970 C983 0.960 . S
C971 H963 0.929 . S
C971 C972 1.377 . S
C971 C973 1.384 . S
C972 C971 1.377 . S
C972 C978 1.390 . S
C973 H964 0.930 . S
C973 C971 1.384 . S
C973 C974 1.372 . S
C974 C973 1.372 . S
C974 C975 1.400 . S
C974 C979 1.490 . S
C975 H965 0.930 . S
C975 C974 1.400 . S
C975 C978 1.386 . S
H976 C992 0.930 . S
H977 C993 0.931 . S
C978 H966 0.929 . S
C978 C972 1.390 . S
C978 C975 1.386 . S
C979 C974 1.490 . S
C979 C981 1.395 . S
C979 C982 1.403 . S
H980 C986 0.930 . S
C981 H967 0.930 . S
C981 C979 1.395 . S
C981 C984 1.403 . S
C982 C979 1.403 . S
C982 C983 1.524 . S
C982 C986 1.400 . S
C983 H968 0.960 . S
C983 H969 0.960 . S
C983 H970 0.960 . S
C983 C982 1.524 . S
C984 C981 1.403 . S
C984 C985 1.392 . S
C984 C988 1.495 . S
C985 C984 1.392 . S
C985 C986 1.385 . S
C985 C987 1.478 . S
C986 H980 0.930 . S
C986 C982 1.400 . S
C986 C985 1.385 . S
C987 C985 1.478 . S
C987 C989 1.381 . S
C987 C993 1.383 . S
C988 C984 1.495 . S
C988 H994 0.959 . S
C988 H995 0.961 . S
C988 H996 0.960 . S
C989 C987 1.381 . S
C989 C990 1.394 . S
C989 H997 0.930 . S
C990 C989 1.394 . S
C990 C991 1.383 . S
C990 H998 0.929 . S
C991 C990 1.383 . S
C991 C992 1.377 . S
C992 H976 0.930 . S
C992 C991 1.377 . S
C992 C993 1.379 . S
C993 H977 0.931 . S
C993 C987 1.383 . S
C993 C992 1.379 . S
H994 C988 0.959 . S
H995 C988 0.961 . S
H996 C988 0.960 . S
H997 C989 0.930 . S
H998 C990 0.929 . S
H999 C1007 0.929 . S
H1000 C1009 0.930 . S
H1001 C1011 0.930 . S
H1002 C1014 0.929 . S
H1003 C1017 0.930 . S
H1004 C1019 0.960 . S
H1005 C1019 0.960 . S
H1006 C1019 0.960 . S
C1007 H999 0.929 . S
C1007 C1008 1.377 . S
C1007 C1009 1.384 . S
C1008 C1007 1.377 . S
C1008 C1014 1.390 . S
C1009 H1000 0.930 . S
C1009 C1007 1.384 . S
C1009 C1010 1.372 . S
C1010 C1009 1.372 . S
C1010 C1011 1.400 . S
C1010 C1015 1.490 . S
C1011 H1001 0.930 . S
C1011 C1010 1.400 . S
C1011 C1014 1.386 . S
H1012 C1028 0.930 . S
H1013 C1029 0.931 . S
C1014 H1002 0.929 . S
C1014 C1008 1.390 . S
C1014 C1011 1.386 . S
C1015 C1010 1.490 . S
C1015 C1017 1.395 . S
C1015 C1018 1.403 . S
H1016 C1022 0.930 . S
C1017 H1003 0.930 . S
C1017 C1015 1.395 . S
C1017 C1020 1.403 . S
C1018 C1015 1.403 . S
C1018 C1019 1.524 . S
C1018 C1022 1.400 . S
C1019 H1004 0.960 . S
C1019 H1005 0.960 . S
C1019 H1006 0.960 . S
C1019 C1018 1.524 . S
C1020 C1017 1.403 . S
C1020 C1021 1.392 . S
C1020 C1024 1.495 . S
C1021 C1020 1.392 . S
C1021 C1022 1.385 . S
C1021 C1023 1.478 . S
C1022 H1016 0.930 . S
C1022 C1018 1.400 . S
C1022 C1021 1.385 . S
C1023 C1021 1.478 . S
C1023 C1025 1.381 . S
C1023 C1029 1.383 . S
C1024 C1020 1.495 . S
C1024 H1030 0.959 . S
C1024 H1031 0.961 . S
C1024 H1032 0.960 . S
C1025 C1023 1.381 . S
C1025 C1026 1.394 . S
C1025 H1033 0.930 . S
C1026 C1025 1.394 . S
C1026 C1027 1.383 . S
C1026 H1034 0.929 . S
C1027 C1026 1.383 . S
C1027 C1028 1.377 . S
C1028 H1012 0.930 . S
C1028 C1027 1.377 . S
C1028 C1029 1.379 . S
C1029 H1013 0.931 . S
C1029 C1023 1.383 . S
C1029 C1028 1.379 . S
H1030 C1024 0.959 . S
H1031 C1024 0.961 . S
H1032 C1024 0.960 . S
H1033 C1025 0.930 . S
H1034 C1026 0.929 . S
H1035 C1043 0.929 . S
H1036 C1045 0.930 . S
H1037 C1047 0.930 . S
H1038 C1050 0.929 . S
H1039 C1053 0.930 . S
H1040 C1055 0.960 . S
H1041 C1055 0.960 . S
H1042 C1055 0.960 . S
C1043 H1035 0.929 . S
C1043 C1044 1.377 . S
C1043 C1045 1.384 . S
C1044 C1043 1.377 . S
C1044 C1050 1.390 . S
C1045 H1036 0.930 . S
C1045 C1043 1.384 . S
C1045 C1046 1.372 . S
C1046 C1045 1.372 . S
C1046 C1047 1.400 . S
C1046 C1051 1.490 . S
C1047 H1037 0.930 . S
C1047 C1046 1.400 . S
C1047 C1050 1.386 . S
H1048 C1064 0.930 . S
H1049 C1065 0.931 . S
C1050 H1038 0.929 . S
C1050 C1044 1.390 . S
C1050 C1047 1.386 . S
C1051 C1046 1.490 . S
C1051 C1053 1.395 . S
C1051 C1054 1.403 . S
H1052 C1058 0.930 . S
C1053 H1039 0.930 . S
C1053 C1051 1.395 . S
C1053 C1056 1.403 . S
C1054 C1051 1.403 . S
C1054 C1055 1.524 . S
C1054 C1058 1.400 . S
C1055 H1040 0.960 . S
C1055 H1041 0.960 . S
C1055 H1042 0.960 . S
C1055 C1054 1.524 . S
C1056 C1053 1.403 . S
C1056 C1057 1.392 . S
C1056 C1060 1.495 . S
C1057 C1056 1.392 . S
C1057 C1058 1.385 . S
C1057 C1059 1.478 . S
C1058 H1052 0.930 . S
C1058 C1054 1.400 . S
C1058 C1057 1.385 . S
C1059 C1057 1.478 . S
C1059 C1061 1.381 . S
C1059 C1065 1.383 . S
C1060 C1056 1.495 . S
C1060 H1066 0.959 . S
C1060 H1067 0.961 . S
C1060 H1068 0.960 . S
C1061 C1059 1.381 . S
C1061 C1062 1.394 . S
C1061 H1069 0.930 . S
C1062 C1061 1.394 . S
C1062 C1063 1.383 . S
C1062 H1070 0.929 . S
C1063 C1062 1.383 . S
C1063 C1064 1.377 . S
C1064 H1048 0.930 . S
C1064 C1063 1.377 . S
C1064 C1065 1.379 . S
C1065 H1049 0.931 . S
C1065 C1059 1.383 . S
C1065 C1064 1.379 . S
H1066 C1060 0.959 . S
H1067 C1060 0.961 . S
H1068 C1060 0.960 . S
H1069 C1061 0.930 . S
H1070 C1062 0.929 . S
H1071 C1079 0.929 . S
H1072 C1081 0.930 . S
H1073 C1083 0.930 . S
H1074 C1086 0.929 . S
H1075 C1089 0.930 . S
H1076 C1091 0.960 . S
H1077 C1091 0.960 . S
H1078 C1091 0.960 . S
C1079 H1071 0.929 . S
C1079 C1080 1.377 . S
C1079 C1081 1.384 . S
C1080 C1079 1.377 . S
C1080 C1086 1.390 . S
C1081 H1072 0.930 . S
C1081 C1079 1.384 . S
C1081 C1082 1.372 . S
C1082 C1081 1.372 . S
C1082 C1083 1.400 . S
C1082 C1087 1.490 . S
C1083 H1073 0.930 . S
C1083 C1082 1.400 . S
C1083 C1086 1.386 . S
H1084 C1100 0.930 . S
H1085 C1101 0.931 . S
C1086 H1074 0.929 . S
C1086 C1080 1.390 . S
C1086 C1083 1.386 . S
C1087 C1082 1.490 . S
C1087 C1089 1.395 . S
C1087 C1090 1.403 . S
H1088 C1094 0.930 . S
C1089 H1075 0.930 . S
C1089 C1087 1.395 . S
C1089 C1092 1.403 . S
C1090 C1087 1.403 . S
C1090 C1091 1.524 . S
C1090 C1094 1.400 . S
C1091 H1076 0.960 . S
C1091 H1077 0.960 . S
C1091 H1078 0.960 . S
C1091 C1090 1.524 . S
C1092 C1089 1.403 . S
C1092 C1093 1.392 . S
C1092 C1096 1.495 . S
C1093 C1092 1.392 . S
C1093 C1094 1.385 . S
C1093 C1095 1.478 . S
C1094 H1088 0.930 . S
C1094 C1090 1.400 . S
C1094 C1093 1.385 . S
C1095 C1093 1.478 . S
C1095 C1097 1.381 . S
C1095 C1101 1.383 . S
C1096 C1092 1.495 . S
C1096 H1102 0.959 . S
C1096 H1103 0.961 . S
C1096 H1104 0.960 . S
C1097 C1095 1.381 . S
C1097 C1098 1.394 . S
C1097 H1105 0.930 . S
C1098 C1097 1.394 . S
C1098 C1099 1.383 . S
C1098 H1106 0.929 . S
C1099 C1098 1.383 . S
C1099 C1100 1.377 . S
C1100 H1084 0.930 . S
C1100 C1099 1.377 . S
C1100 C1101 1.379 . S
C1101 H1085 0.931 . S
C1101 C1095 1.383 . S
C1101 C1100 1.379 . S
H1102 C1096 0.959 . S
H1103 C1096 0.961 . S
H1104 C1096 0.960 . S
H1105 C1097 0.930 . S
H1106 C1098 0.929 . S
H1107 C1115 0.929 . S
H1108 C1117 0.930 . S
H1109 C1119 0.930 . S
H1110 C1122 0.929 . S
H1111 C1125 0.930 . S
H1112 C1127 0.960 . S
H1113 C1127 0.960 . S
H1114 C1127 0.960 . S
C1115 H1107 0.929 . S
C1115 C1116 1.377 . S
C1115 C1117 1.384 . S
C1116 C1115 1.377 . S
C1116 C1122 1.390 . S
C1117 H1108 0.930 . S
C1117 C1115 1.384 . S
C1117 C1118 1.372 . S
C1118 C1117 1.372 . S
C1118 C1119 1.400 . S
C1118 C1123 1.490 . S
C1119 H1109 0.930 . S
C1119 C1118 1.400 . S
C1119 C1122 1.386 . S
H1120 C1136 0.930 . S
H1121 C1137 0.931 . S
C1122 H1110 0.929 . S
C1122 C1116 1.390 . S
C1122 C1119 1.386 . S
C1123 C1118 1.490 . S
C1123 C1125 1.395 . S
C1123 C1126 1.403 . S
H1124 C1130 0.930 . S
C1125 H1111 0.930 . S
C1125 C1123 1.395 . S
C1125 C1128 1.403 . S
C1126 C1123 1.403 . S
C1126 C1127 1.524 . S
C1126 C1130 1.400 . S
C1127 H1112 0.960 . S
C1127 H1113 0.960 . S
C1127 H1114 0.960 . S
C1127 C1126 1.524 . S
C1128 C1125 1.403 . S
C1128 C1129 1.392 . S
C1128 C1132 1.495 . S
C1129 C1128 1.392 . S
C1129 C1130 1.385 . S
C1129 C1131 1.478 . S
C1130 H1124 0.930 . S
C1130 C1126 1.400 . S
C1130 C1129 1.385 . S
C1131 C1129 1.478 . S
C1131 C1133 1.381 . S
C1131 C1137 1.383 . S
C1132 C1128 1.495 . S
C1132 H1138 0.959 . S
C1132 H1139 0.961 . S
C1132 H1140 0.960 . S
C1133 C1131 1.381 . S
C1133 C1134 1.394 . S
C1133 H1141 0.930 . S
C1134 C1133 1.394 . S
C1134 C1135 1.383 . S
C1134 H1142 0.929 . S
C1135 C1134 1.383 . S
C1135 C1136 1.377 . S
C1136 H1120 0.930 . S
C1136 C1135 1.377 . S
C1136 C1137 1.379 . S
C1137 H1121 0.931 . S
C1137 C1131 1.383 . S
C1137 C1136 1.379 . S
H1138 C1132 0.959 . S
H1139 C1132 0.961 . S
H1140 C1132 0.960 . S
H1141 C1133 0.930 . S
H1142 C1134 0.929 . S
H1143 C1151 0.929 . S
H1144 C1153 0.930 . S
H1145 C1155 0.930 . S
H1146 C1158 0.929 . S
H1147 C1161 0.930 . S
H1148 C1163 0.960 . S
H1149 C1163 0.960 . S
H1150 C1163 0.960 . S
C1151 H1143 0.929 . S
C1151 C1152 1.377 . S
C1151 C1153 1.384 . S
C1152 C1151 1.377 . S
C1152 C1158 1.390 . S
C1153 H1144 0.930 . S
C1153 C1151 1.384 . S
C1153 C1154 1.372 . S
C1154 C1153 1.372 . S
C1154 C1155 1.400 . S
C1154 C1159 1.490 . S
C1155 H1145 0.930 . S
C1155 C1154 1.400 . S
C1155 C1158 1.386 . S
H1156 C1172 0.930 . S
H1157 C1173 0.931 . S
C1158 H1146 0.929 . S
C1158 C1152 1.390 . S
C1158 C1155 1.386 . S
C1159 C1154 1.490 . S
C1159 C1161 1.395 . S
C1159 C1162 1.403 . S
H1160 C1166 0.930 . S
C1161 H1147 0.930 . S
C1161 C1159 1.395 . S
C1161 C1164 1.403 . S
C1162 C1159 1.403 . S
C1162 C1163 1.524 . S
C1162 C1166 1.400 . S
C1163 H1148 0.960 . S
C1163 H1149 0.960 . S
C1163 H1150 0.960 . S
C1163 C1162 1.524 . S
C1164 C1161 1.403 . S
C1164 C1165 1.392 . S
C1164 C1168 1.495 . S
C1165 C1164 1.392 . S
C1165 C1166 1.385 . S
C1165 C1167 1.478 . S
C1166 H1160 0.930 . S
C1166 C1162 1.400 . S
C1166 C1165 1.385 . S
C1167 C1165 1.478 . S
C1167 C1169 1.381 . S
C1167 C1173 1.383 . S
C1168 C1164 1.495 . S
C1168 H1174 0.959 . S
C1168 H1175 0.961 . S
C1168 H1176 0.960 . S
C1169 C1167 1.381 . S
C1169 C1170 1.394 . S
C1169 H1177 0.930 . S
C1170 C1169 1.394 . S
C1170 C1171 1.383 . S
C1170 H1178 0.929 . S
C1171 C1170 1.383 . S
C1171 C1172 1.377 . S
C1172 H1156 0.930 . S
C1172 C1171 1.377 . S
C1172 C1173 1.379 . S
C1173 H1157 0.931 . S
C1173 C1167 1.383 . S
C1173 C1172 1.379 . S
H1174 C1168 0.959 . S
H1175 C1168 0.961 . S
H1176 C1168 0.960 . S
H1177 C1169 0.930 . S
H1178 C1170 0.929 . S
H1179 C1187 0.929 . S
H1180 C1189 0.930 . S
H1181 C1191 0.930 . S
H1182 C1194 0.929 . S
H1183 C1197 0.930 . S
H1184 C1199 0.960 1_565 S
H1185 C1199 0.960 . S
H1186 C1199 0.960 . S
C1187 H1179 0.929 . S
C1187 C1188 1.377 . S
C1187 C1189 1.384 . S
C1188 C1187 1.377 . S
C1188 C1194 1.390 . S
C1189 H1180 0.930 . S
C1189 C1187 1.384 . S
C1189 C1190 1.372 . S
C1190 C1189 1.372 . S
C1190 C1191 1.400 . S
C1190 C1195 1.490 . S
C1191 H1181 0.930 . S
C1191 C1190 1.400 . S
C1191 C1194 1.386 . S
H1192 C1208 0.930 . S
H1193 C1209 0.931 . S
C1194 H1182 0.929 . S
C1194 C1188 1.390 . S
C1194 C1191 1.386 . S
C1195 C1190 1.490 . S
C1195 C1197 1.395 . S
C1195 C1198 1.403 . S
H1196 C1202 0.930 . S
C1197 H1183 0.930 . S
C1197 C1195 1.395 . S
C1197 C1200 1.403 1_545 S
C1198 C1195 1.403 . S
C1198 C1199 1.524 . S
C1198 C1202 1.400 1_545 S
C1199 H1184 0.960 1_545 S
C1199 H1185 0.960 . S
C1199 H1186 0.960 . S
C1199 C1198 1.524 . S
C1200 C1197 1.403 1_565 S
C1200 C1201 1.392 . S
C1200 C1204 1.495 . S
C1201 C1200 1.392 . S
C1201 C1202 1.385 . S
C1201 C1203 1.478 . S
C1202 H1196 0.930 . S
C1202 C1198 1.400 1_565 S
C1202 C1201 1.385 . S
C1203 C1201 1.478 . S
C1203 C1205 1.381 . S
C1203 C1209 1.383 . S
C1204 C1200 1.495 . S
C1204 H1210 0.959 1_565 S
C1204 H1211 0.961 . S
C1204 H1212 0.960 . S
C1205 C1203 1.381 . S
C1205 C1206 1.394 . S
C1205 H1213 0.930 . S
C1206 C1205 1.394 . S
C1206 C1207 1.383 . S
C1206 H1214 0.929 . S
C1207 C1206 1.383 . S
C1207 C1208 1.377 . S
C1208 H1192 0.930 . S
C1208 C1207 1.377 . S
C1208 C1209 1.379 . S
C1209 H1193 0.931 . S
C1209 C1203 1.383 . S
C1209 C1208 1.379 . S
H1210 C1204 0.959 1_545 S
H1211 C1204 0.961 . S
H1212 C1204 0.960 . S
H1213 C1205 0.930 . S
H1214 C1206 0.929 . S
H1215 C1223 0.929 . S
H1216 C1225 0.930 . S
H1217 C1227 0.930 . S
H1218 C1230 0.929 . S
H1219 C1233 0.930 . S
H1220 C1235 0.960 . S
H1221 C1235 0.960 . S
H1222 C1235 0.960 . S
C1223 H1215 0.929 . S
C1223 C1224 1.377 . S
C1223 C1225 1.384 . S
C1224 C1223 1.377 . S
C1224 C1230 1.390 . S
C1225 H1216 0.930 . S
C1225 C1223 1.384 . S
C1225 C1226 1.372 . S
C1226 C1225 1.372 . S
C1226 C1227 1.400 . S
C1226 C1231 1.490 . S
C1227 H1217 0.930 . S
C1227 C1226 1.400 . S
C1227 C1230 1.386 . S
H1228 C1244 0.930 . S
H1229 C1245 0.931 . S
C1230 H1218 0.929 . S
C1230 C1224 1.390 . S
C1230 C1227 1.386 . S
C1231 C1226 1.490 . S
C1231 C1233 1.395 1_655 S
C1231 C1234 1.403 . S
H1232 C1238 0.930 . S
C1233 H1219 0.930 . S
C1233 C1231 1.395 1_455 S
C1233 C1236 1.403 . S
C1234 C1231 1.403 . S
C1234 C1235 1.524 . S
C1234 C1238 1.400 1_655 S
C1235 H1220 0.960 . S
C1235 H1221 0.960 . S
C1235 H1222 0.960 . S
C1235 C1234 1.524 . S
C1236 C1233 1.403 . S
C1236 C1237 1.392 . S
C1236 C1240 1.495 . S
C1237 C1236 1.392 . S
C1237 C1238 1.385 . S
C1237 C1239 1.478 . S
C1238 H1232 0.930 . S
C1238 C1234 1.400 1_455 S
C1238 C1237 1.385 . S
C1239 C1237 1.478 . S
C1239 C1241 1.381 . S
C1239 C1245 1.383 . S
C1240 C1236 1.495 . S
C1240 H1246 0.959 . S
C1240 H1247 0.961 . S
C1240 H1248 0.960 . S
C1241 C1239 1.381 . S
C1241 C1242 1.394 . S
C1241 H1249 0.930 . S
C1242 C1241 1.394 . S
C1242 C1243 1.383 . S
C1242 H1250 0.929 . S
C1243 C1242 1.383 . S
C1243 C1244 1.377 . S
C1244 H1228 0.930 . S
C1244 C1243 1.377 . S
C1244 C1245 1.379 . S
C1245 H1229 0.931 . S
C1245 C1239 1.383 . S
C1245 C1244 1.379 . S
H1246 C1240 0.959 . S
H1247 C1240 0.961 . S
H1248 C1240 0.960 . S
H1249 C1241 0.930 . S
H1250 C1242 0.929 . S
H1251 C1259 0.929 . S
H1252 C1261 0.930 . S
H1253 C1263 0.930 . S
H1254 C1266 0.929 . S
H1255 C1269 0.930 . S
H1256 C1271 0.960 . S
H1257 C1271 0.960 . S
H1258 C1271 0.960 . S
C1259 H1251 0.929 . S
C1259 C1260 1.377 . S
C1259 C1261 1.384 . S
C1260 C1259 1.377 . S
C1260 C1266 1.390 . S
C1261 H1252 0.930 . S
C1261 C1259 1.384 . S
C1261 C1262 1.372 . S
C1262 C1261 1.372 . S
C1262 C1263 1.400 . S
C1262 C1267 1.490 . S
C1263 H1253 0.930 . S
C1263 C1262 1.400 . S
C1263 C1266 1.386 . S
H1264 C1280 0.930 . S
H1265 C1281 0.931 . S
C1266 H1254 0.929 . S
C1266 C1260 1.390 . S
C1266 C1263 1.386 . S
C1267 C1262 1.490 . S
C1267 C1269 1.395 . S
C1267 C1270 1.403 . S
H1268 C1274 0.930 . S
C1269 H1255 0.930 . S
C1269 C1267 1.395 . S
C1269 C1272 1.403 . S
C1270 C1267 1.403 . S
C1270 C1271 1.524 . S
C1270 C1274 1.400 . S
C1271 H1256 0.960 . S
C1271 H1257 0.960 . S
C1271 H1258 0.960 . S
C1271 C1270 1.524 . S
C1272 C1269 1.403 . S
C1272 C1273 1.392 . S
C1272 C1276 1.495 . S
C1273 C1272 1.392 . S
C1273 C1274 1.385 . S
C1273 C1275 1.478 . S
C1274 H1268 0.930 . S
C1274 C1270 1.400 . S
C1274 C1273 1.385 . S
C1275 C1273 1.478 . S
C1275 C1277 1.381 . S
C1275 C1281 1.383 . S
C1276 C1272 1.495 . S
C1276 H1282 0.959 . S
C1276 H1283 0.961 . S
C1276 H1284 0.960 . S
C1277 C1275 1.381 . S
C1277 C1278 1.394 . S
C1277 H1285 0.930 . S
C1278 C1277 1.394 . S
C1278 C1279 1.383 . S
C1278 H1286 0.929 . S
C1279 C1278 1.383 . S
C1279 C1280 1.377 . S
C1280 H1264 0.930 . S
C1280 C1279 1.377 . S
C1280 C1281 1.379 . S
C1281 H1265 0.931 . S
C1281 C1275 1.383 . S
C1281 C1280 1.379 . S
H1282 C1276 0.959 . S
H1283 C1276 0.961 . S
H1284 C1276 0.960 . S
H1285 C1277 0.930 . S
H1286 C1278 0.929 . S
H1287 C1295 0.929 . S
H1288 C1297 0.930 . S
H1289 C1299 0.930 . S
H1290 C1302 0.929 . S
H1291 C1305 0.930 . S
H1292 C1307 0.960 . S
H1293 C1307 0.960 . S
H1294 C1307 0.960 . S
C1295 H1287 0.929 . S
C1295 C1296 1.377 . S
C1295 C1297 1.384 . S
C1296 C1295 1.377 . S
C1296 C1302 1.390 . S
C1297 H1288 0.930 . S
C1297 C1295 1.384 . S
C1297 C1298 1.372 . S
C1298 C1297 1.372 . S
C1298 C1299 1.400 . S
C1298 C1303 1.490 . S
C1299 H1289 0.930 . S
C1299 C1298 1.400 . S
C1299 C1302 1.386 . S
H1300 C1316 0.930 . S
H1301 C1317 0.931 . S
C1302 H1290 0.929 . S
C1302 C1296 1.390 . S
C1302 C1299 1.386 . S
C1303 C1298 1.490 . S
C1303 C1305 1.395 . S
C1303 C1306 1.403 . S
H1304 C1310 0.930 . S
C1305 H1291 0.930 . S
C1305 C1303 1.395 . S
C1305 C1308 1.403 . S
C1306 C1303 1.403 . S
C1306 C1307 1.524 . S
C1306 C1310 1.400 . S
C1307 H1292 0.960 . S
C1307 H1293 0.960 . S
C1307 H1294 0.960 . S
C1307 C1306 1.524 . S
C1308 C1305 1.403 . S
C1308 C1309 1.392 . S
C1308 C1312 1.495 . S
C1309 C1308 1.392 . S
C1309 C1310 1.385 . S
C1309 C1311 1.478 . S
C1310 H1304 0.930 . S
C1310 C1306 1.400 . S
C1310 C1309 1.385 . S
C1311 C1309 1.478 . S
C1311 C1313 1.381 . S
C1311 C1317 1.383 . S
C1312 C1308 1.495 . S
C1312 H1318 0.959 . S
C1312 H1319 0.961 . S
C1312 H1320 0.960 . S
C1313 C1311 1.381 . S
C1313 C1314 1.394 . S
C1313 H1321 0.930 . S
C1314 C1313 1.394 . S
C1314 C1315 1.383 . S
C1314 H1322 0.929 . S
C1315 C1314 1.383 . S
C1315 C1316 1.377 . S
C1316 H1300 0.930 . S
C1316 C1315 1.377 . S
C1316 C1317 1.379 . S
C1317 H1301 0.931 . S
C1317 C1311 1.383 . S
C1317 C1316 1.379 . S
H1318 C1312 0.959 . S
H1319 C1312 0.961 . S
H1320 C1312 0.960 . S
H1321 C1313 0.930 . S
H1322 C1314 0.929 . S
H1323 C1331 0.929 . S
H1324 C1333 0.930 . S
H1325 C1335 0.930 . S
H1326 C1338 0.929 . S
H1327 C1341 0.930 . S
H1328 C1343 0.960 . S
H1329 C1343 0.960 . S
H1330 C1343 0.960 . S
C1331 H1323 0.929 . S
C1331 C1332 1.377 . S
C1331 C1333 1.384 . S
C1332 C1331 1.377 . S
C1332 C1338 1.390 . S
C1333 H1324 0.930 . S
C1333 C1331 1.384 . S
C1333 C1334 1.372 . S
C1334 C1333 1.372 . S
C1334 C1335 1.400 . S
C1334 C1339 1.490 . S
C1335 H1325 0.930 . S
C1335 C1334 1.400 . S
C1335 C1338 1.386 . S
H1336 C1352 0.930 . S
H1337 C1353 0.931 . S
C1338 H1326 0.929 . S
C1338 C1332 1.390 . S
C1338 C1335 1.386 . S
C1339 C1334 1.490 . S
C1339 C1341 1.395 . S
C1339 C1342 1.403 . S
H1340 C1346 0.930 . S
C1341 H1327 0.930 . S
C1341 C1339 1.395 . S
C1341 C1344 1.403 . S
C1342 C1339 1.403 . S
C1342 C1343 1.524 . S
C1342 C1346 1.400 . S
C1343 H1328 0.960 . S
C1343 H1329 0.960 . S
C1343 H1330 0.960 . S
C1343 C1342 1.524 . S
C1344 C1341 1.403 . S
C1344 C1345 1.392 . S
C1344 C1348 1.495 . S
C1345 C1344 1.392 . S
C1345 C1346 1.385 . S
C1345 C1347 1.478 . S
C1346 H1340 0.930 . S
C1346 C1342 1.400 . S
C1346 C1345 1.385 . S
C1347 C1345 1.478 . S
C1347 C1349 1.381 . S
C1347 C1353 1.383 . S
C1348 C1344 1.495 . S
C1348 H1354 0.959 . S
C1348 H1355 0.961 . S
C1348 H1356 0.960 . S
C1349 C1347 1.381 . S
C1349 C1350 1.394 . S
C1349 H1357 0.930 . S
C1350 C1349 1.394 . S
C1350 C1351 1.383 . S
C1350 H1358 0.929 . S
C1351 C1350 1.383 . S
C1351 C1352 1.377 . S
C1352 H1336 0.930 . S
C1352 C1351 1.377 . S
C1352 C1353 1.379 . S
C1353 H1337 0.931 . S
C1353 C1347 1.383 . S
C1353 C1352 1.379 . S
H1354 C1348 0.959 . S
H1355 C1348 0.961 . S
H1356 C1348 0.960 . S
H1357 C1349 0.930 . S
H1358 C1350 0.929 . S
H1359 C1367 0.929 . S
H1360 C1369 0.930 . S
H1361 C1371 0.930 . S
H1362 C1374 0.929 . S
H1363 C1377 0.930 . S
H1364 C1379 0.960 . S
H1365 C1379 0.960 . S
H1366 C1379 0.960 . S
C1367 H1359 0.929 . S
C1367 C1368 1.377 . S
C1367 C1369 1.384 . S
C1368 C1367 1.377 . S
C1368 C1374 1.390 . S
C1369 H1360 0.930 . S
C1369 C1367 1.384 . S
C1369 C1370 1.372 . S
C1370 C1369 1.372 . S
C1370 C1371 1.400 . S
C1370 C1375 1.490 . S
C1371 H1361 0.930 . S
C1371 C1370 1.400 . S
C1371 C1374 1.386 . S
H1372 C1388 0.930 . S
H1373 C1389 0.931 . S
C1374 H1362 0.929 . S
C1374 C1368 1.390 . S
C1374 C1371 1.386 . S
C1375 C1370 1.490 . S
C1375 C1377 1.395 . S
C1375 C1378 1.403 . S
H1376 C1382 0.930 . S
C1377 H1363 0.930 . S
C1377 C1375 1.395 . S
C1377 C1380 1.403 . S
C1378 C1375 1.403 . S
C1378 C1379 1.524 . S
C1378 C1382 1.400 . S
C1379 H1364 0.960 . S
C1379 H1365 0.960 . S
C1379 H1366 0.960 . S
C1379 C1378 1.524 . S
C1380 C1377 1.403 . S
C1380 C1381 1.392 . S
C1380 C1384 1.495 . S
C1381 C1380 1.392 . S
C1381 C1382 1.385 . S
C1381 C1383 1.478 . S
C1382 H1376 0.930 . S
C1382 C1378 1.400 . S
C1382 C1381 1.385 . S
C1383 C1381 1.478 . S
C1383 C1385 1.381 . S
C1383 C1389 1.383 . S
C1384 C1380 1.495 . S
C1384 H1390 0.959 . S
C1384 H1391 0.961 . S
C1384 H1392 0.960 . S
C1385 C1383 1.381 . S
C1385 C1386 1.394 . S
C1385 H1393 0.930 . S
C1386 C1385 1.394 . S
C1386 C1387 1.383 . S
C1386 H1394 0.929 . S
C1387 C1386 1.383 . S
C1387 C1388 1.377 . S
C1388 H1372 0.930 . S
C1388 C1387 1.377 . S
C1388 C1389 1.379 . S
C1389 H1373 0.931 . S
C1389 C1383 1.383 . S
C1389 C1388 1.379 . S
H1390 C1384 0.959 . S
H1391 C1384 0.961 . S
H1392 C1384 0.960 . S
H1393 C1385 0.930 . S
H1394 C1386 0.929 . S
H1395 C1403 0.929 . S
H1396 C1405 0.930 . S
H1397 C1407 0.930 . S
H1398 C1410 0.929 . S
H1399 C1413 0.930 1_565 S
H1400 C1415 0.960 . S
H1401 C1415 0.960 . S
H1402 C1415 0.960 1_565 S
C1403 H1395 0.929 . S
C1403 C1404 1.377 . S
C1403 C1405 1.384 . S
C1404 C1403 1.377 . S
C1404 C1410 1.390 . S
C1405 H1396 0.930 . S
C1405 C1403 1.384 . S
C1405 C1406 1.372 . S
C1406 C1405 1.372 . S
C1406 C1407 1.400 . S
C1406 C1411 1.535 . S
C1407 H1397 0.930 . S
C1407 C1406 1.400 . S
C1407 C1410 1.386 . S
H1408 C1424 0.930 . S
H1409 C1425 0.931 . S
C1410 H1398 0.929 . S
C1410 C1404 1.390 . S
C1410 C1407 1.386 . S
C1411 C1406 1.535 . S
C1411 C1413 1.385 1_565 S
C1411 C1414 1.370 1_565 S
H1412 C1418 0.930 . S
C1413 H1399 0.930 1_545 S
C1413 C1411 1.385 1_545 S
C1413 C1416 1.403 . S
C1414 C1411 1.370 1_545 S
C1414 C1415 1.524 . S
C1414 C1418 1.400 . S
C1415 H1400 0.960 . S
C1415 H1401 0.960 . S
C1415 H1402 0.960 1_545 S
C1415 C1414 1.524 . S
C1416 C1413 1.403 . S
C1416 C1417 1.392 . S
C1416 C1420 1.495 . S
C1417 C1416 1.392 . S
C1417 C1418 1.385 . S
C1417 C1419 1.478 . S
C1418 H1412 0.930 . S
C1418 C1414 1.400 . S
C1418 C1417 1.385 . S
C1419 C1417 1.478 . S
C1419 C1421 1.381 . S
C1419 C1425 1.383 . S
C1420 C1416 1.495 . S
C1420 H1426 0.959 . S
C1420 H1427 0.961 . S
C1420 H1428 0.960 . S
C1421 C1419 1.381 . S
C1421 C1422 1.394 . S
C1421 H1429 0.930 . S
C1422 C1421 1.394 . S
C1422 C1423 1.383 . S
C1422 H1430 0.929 . S
C1423 C1422 1.383 . S
C1423 C1424 1.377 . S
C1424 H1408 0.930 . S
C1424 C1423 1.377 . S
C1424 C1425 1.379 . S
C1425 H1409 0.931 . S
C1425 C1419 1.383 . S
C1425 C1424 1.379 . S
H1426 C1420 0.959 . S
H1427 C1420 0.961 . S
H1428 C1420 0.960 . S
H1429 C1421 0.930 . S
H1430 C1422 0.929 . S
H1431 C1439 0.929 . S
H1432 C1441 0.930 . S
H1433 C1443 0.930 . S
H1434 C1446 0.929 . S
H1435 C1449 0.922 1_455 S
H1436 C1451 0.960 . S
H1437 C1451 0.960 1_455 S
H1438 C1451 0.988 . S
C1439 H1431 0.929 . S
C1439 C1440 1.377 . S
C1439 C1441 1.384 . S
C1440 C1439 1.377 . S
C1440 C1446 1.390 . S
C1441 H1432 0.930 . S
C1441 C1439 1.384 . S
C1441 C1442 1.372 . S
C1442 C1441 1.372 . S
C1442 C1443 1.400 . S
C1442 C1447 1.490 . S
C1443 H1433 0.930 . S
C1443 C1442 1.400 . S
C1443 C1446 1.386 . S
H1444 C1460 0.930 . S
H1445 C1461 0.931 . S
C1446 H1434 0.929 . S
C1446 C1440 1.390 . S
C1446 C1443 1.386 . S
C1447 C1442 1.490 . S
C1447 C1449 1.379 1_455 S
C1447 C1450 1.403 1_455 S
H1448 C1454 0.930 . S
C1449 H1435 0.922 1_655 S
C1449 C1447 1.379 1_655 S
C1449 C1452 1.427 . S
C1450 C1447 1.403 1_655 S
C1450 C1451 1.524 . S
C1450 C1454 1.400 . S
C1451 H1436 0.960 . S
C1451 H1437 0.960 1_655 S
C1451 H1438 0.988 . S
C1451 C1450 1.524 . S
C1452 C1449 1.427 . S
C1452 C1453 1.392 . S
C1452 C1456 1.495 . S
C1453 C1452 1.392 . S
C1453 C1454 1.385 . S
C1453 C1455 1.478 . S
C1454 H1448 0.930 . S
C1454 C1450 1.400 . S
C1454 C1453 1.385 . S
C1455 C1453 1.478 . S
C1455 C1457 1.381 . S
C1455 C1461 1.383 . S
C1456 C1452 1.495 . S
C1456 H1462 0.959 . S
C1456 H1463 0.961 . S
C1456 H1464 0.960 . S
C1457 C1455 1.381 . S
C1457 C1458 1.394 . S
C1457 H1465 0.930 . S
C1458 C1457 1.394 . S
C1458 C1459 1.383 . S
C1458 H1466 0.929 . S
C1459 C1458 1.383 . S
C1459 C1460 1.377 . S
C1460 H1444 0.930 . S
C1460 C1459 1.377 . S
C1460 C1461 1.379 . S
C1461 H1445 0.931 . S
C1461 C1455 1.383 . S
C1461 C1460 1.379 . S
H1462 C1456 0.959 . S
H1463 C1456 0.961 . S
H1464 C1456 0.960 . S
H1465 C1457 0.930 . S
H1466 C1458 0.929 . S
H1467 C1475 0.929 . S
H1468 C1477 0.930 . S
H1469 C1479 0.930 . S
H1470 C1482 0.929 . S
H1471 C1485 0.930 . S
H1472 C1487 0.960 . S
H1473 C1487 0.960 . S
H1474 C1487 0.960 . S
C1475 H1467 0.929 . S
C1475 C1476 1.377 . S
C1475 C1477 1.384 . S
C1476 C1475 1.377 . S
C1476 C1482 1.390 . S
C1477 H1468 0.930 . S
C1477 C1475 1.384 . S
C1477 C1478 1.372 . S
C1478 C1477 1.372 . S
C1478 C1479 1.400 . S
C1478 C1483 1.490 . S
C1479 H1469 0.930 . S
C1479 C1478 1.400 . S
C1479 C1482 1.386 . S
H1480 C1496 0.930 . S
H1481 C1497 0.931 . S
C1482 H1470 0.929 . S
C1482 C1476 1.390 . S
C1482 C1479 1.386 . S
C1483 C1478 1.490 . S
C1483 C1485 1.395 . S
C1483 C1486 1.403 . S
H1484 C1490 0.930 . S
C1485 H1471 0.930 . S
C1485 C1483 1.395 . S
C1485 C1488 1.403 . S
C1486 C1483 1.403 . S
C1486 C1487 1.524 . S
C1486 C1490 1.400 . S
C1487 H1472 0.960 . S
C1487 H1473 0.960 . S
C1487 H1474 0.960 . S
C1487 C1486 1.524 . S
C1488 C1485 1.403 . S
C1488 C1489 1.392 . S
C1488 C1492 1.495 . S
C1489 C1488 1.392 . S
C1489 C1490 1.385 . S
C1489 C1491 1.478 . S
C1490 H1484 0.930 . S
C1490 C1486 1.400 . S
C1490 C1489 1.385 . S
C1491 C1489 1.478 . S
C1491 C1493 1.381 . S
C1491 C1497 1.383 . S
C1492 C1488 1.495 . S
C1492 H1498 0.959 . S
C1492 H1499 0.961 . S
C1492 H1500 0.960 . S
C1493 C1491 1.381 . S
C1493 C1494 1.394 . S
C1493 H1501 0.930 . S
C1494 C1493 1.394 . S
C1494 C1495 1.383 . S
C1494 H1502 0.929 . S
C1495 C1494 1.383 . S
C1495 C1496 1.377 . S
C1496 H1480 0.930 . S
C1496 C1495 1.377 . S
C1496 C1497 1.379 . S
C1497 H1481 0.931 . S
C1497 C1491 1.383 . S
C1497 C1496 1.379 . S
H1498 C1492 0.959 . S
H1499 C1492 0.961 . S
H1500 C1492 0.960 . S
H1501 C1493 0.930 . S
H1502 C1494 0.929 . S
H1503 C1511 0.929 . S
H1504 C1513 0.930 . S
H1505 C1515 0.930 . S
H1506 C1518 0.929 . S
H1507 C1521 0.930 . S
H1508 C1523 0.960 . S
H1509 C1523 0.960 . S
H1510 C1523 0.960 . S
C1511 H1503 0.929 . S
C1511 C1512 1.377 . S
C1511 C1513 1.384 . S
C1512 C1511 1.377 . S
C1512 C1518 1.390 . S
C1513 H1504 0.930 . S
C1513 C1511 1.384 . S
C1513 C1514 1.372 . S
C1514 C1513 1.372 . S
C1514 C1515 1.400 . S
C1514 C1519 1.490 . S
C1515 H1505 0.930 . S
C1515 C1514 1.400 . S
C1515 C1518 1.386 . S
H1516 C1532 0.930 . S
H1517 C1533 0.931 . S
C1518 H1506 0.929 . S
C1518 C1512 1.390 . S
C1518 C1515 1.386 . S
C1519 C1514 1.490 . S
C1519 C1521 1.395 . S
C1519 C1522 1.403 . S
H1520 C1526 0.930 1_655 S
C1521 H1507 0.930 . S
C1521 C1519 1.395 . S
C1521 C1524 1.403 . S
C1522 C1519 1.403 . S
C1522 C1523 1.524 . S
C1522 C1526 1.400 . S
C1523 H1508 0.960 . S
C1523 H1509 0.960 . S
C1523 H1510 0.960 . S
C1523 C1522 1.524 . S
C1524 C1521 1.403 . S
C1524 C1525 1.392 1_455 S
C1524 C1528 1.495 . S
C1525 C1524 1.392 1_655 S
C1525 C1526 1.385 1_655 S
C1525 C1527 1.478 . S
C1526 H1520 0.930 1_455 S
C1526 C1522 1.400 . S
C1526 C1525 1.385 1_455 S
C1527 C1525 1.478 . S
C1527 C1529 1.381 . S
C1527 C1533 1.383 . S
C1528 C1524 1.495 . S
C1528 H1534 0.959 . S
C1528 H1535 0.975 . S
C1528 H1536 0.949 1_455 S
C1529 C1527 1.381 . S
C1529 C1530 1.394 . S
C1529 H1537 0.930 . S
C1530 C1529 1.394 . S
C1530 C1531 1.383 . S
C1530 H1538 0.929 . S
C1531 C1530 1.383 . S
C1531 C1532 1.377 . S
C1532 H1516 0.930 . S
C1532 C1531 1.377 . S
C1532 C1533 1.379 . S
C1533 H1517 0.931 . S
C1533 C1527 1.383 . S
C1533 C1532 1.379 . S
H1534 C1528 0.959 . S
H1535 C1528 0.975 . S
H1536 C1528 0.949 1_655 S
H1537 C1529 0.930 . S
H1538 C1530 0.929 . S
H1539 C1547 0.929 . S
H1540 C1549 0.930 . S
H1541 C1551 0.930 . S
H1542 C1554 0.929 . S
H1543 C1557 0.930 . S
H1544 C1559 0.960 . S
H1545 C1559 0.960 . S
H1546 C1559 0.960 . S
C1547 H1539 0.929 . S
C1547 C1548 1.377 . S
C1547 C1549 1.384 . S
C1548 C1547 1.377 . S
C1548 C1554 1.390 . S
C1549 H1540 0.930 . S
C1549 C1547 1.384 . S
C1549 C1550 1.372 . S
C1550 C1549 1.372 . S
C1550 C1551 1.400 . S
C1550 C1555 1.490 . S
C1551 H1541 0.930 . S
C1551 C1550 1.400 . S
C1551 C1554 1.386 . S
H1552 C1568 0.930 . S
H1553 C1569 0.931 . S
C1554 H1542 0.929 . S
C1554 C1548 1.390 . S
C1554 C1551 1.386 . S
C1555 C1550 1.490 . S
C1555 C1557 1.395 . S
C1555 C1558 1.403 . S
H1556 C1562 0.930 . S
C1557 H1543 0.930 . S
C1557 C1555 1.395 . S
C1557 C1560 1.403 . S
C1558 C1555 1.403 . S
C1558 C1559 1.524 . S
C1558 C1562 1.400 . S
C1559 H1544 0.960 . S
C1559 H1545 0.960 . S
C1559 H1546 0.960 . S
C1559 C1558 1.524 . S
C1560 C1557 1.403 . S
C1560 C1561 1.392 . S
C1560 C1564 1.495 . S
C1561 C1560 1.392 . S
C1561 C1562 1.385 . S
C1561 C1563 1.478 . S
C1562 H1556 0.930 . S
C1562 C1558 1.400 . S
C1562 C1561 1.385 . S
C1563 C1561 1.478 . S
C1563 C1565 1.381 . S
C1563 C1569 1.383 . S
C1564 C1560 1.495 . S
C1564 H1570 0.959 . S
C1564 H1571 0.961 . S
C1564 H1572 0.960 . S
C1565 C1563 1.381 . S
C1565 C1566 1.394 . S
C1565 H1573 0.930 . S
C1566 C1565 1.394 . S
C1566 C1567 1.383 . S
C1566 H1574 0.929 . S
C1567 C1566 1.383 . S
C1567 C1568 1.377 . S
C1568 H1552 0.930 . S
C1568 C1567 1.377 . S
C1568 C1569 1.379 . S
C1569 H1553 0.931 . S
C1569 C1563 1.383 . S
C1569 C1568 1.379 . S
H1570 C1564 0.959 . S
H1571 C1564 0.961 . S
H1572 C1564 0.960 . S
H1573 C1565 0.930 . S
H1574 C1566 0.929 . S
H1575 C1583 0.929 . S
H1576 C1585 0.930 . S
H1577 C1587 0.930 . S
H1578 C1590 0.929 . S
H1579 C1593 0.930 . S
H1580 C1595 0.960 1_545 S
H1581 C1595 0.960 . S
H1582 C1595 0.960 . S
C1583 H1575 0.929 . S
C1583 C1584 1.377 . S
C1583 C1585 1.384 . S
C1584 C1583 1.377 . S
C1584 C1590 1.390 . S
C1585 H1576 0.930 . S
C1585 C1583 1.384 . S
C1585 C1586 1.372 . S
C1586 C1585 1.372 . S
C1586 C1587 1.400 . S
C1586 C1591 1.490 . S
C1587 H1577 0.930 . S
C1587 C1586 1.400 . S
C1587 C1590 1.386 . S
H1588 C1604 0.930 . S
H1589 C1605 0.931 . S
C1590 H1578 0.929 . S
C1590 C1584 1.390 . S
C1590 C1587 1.386 . S
C1591 C1586 1.490 . S
C1591 C1593 1.395 . S
C1591 C1594 1.404 . S
H1592 C1598 0.930 . S
C1593 H1579 0.930 . S
C1593 C1591 1.395 . S
C1593 C1596 1.403 1_565 S
C1594 C1591 1.404 . S
C1594 C1595 1.524 . S
C1594 C1598 1.398 1_565 S
C1595 H1580 0.960 1_565 S
C1595 H1581 0.960 . S
C1595 H1582 0.960 . S
C1595 C1594 1.524 . S
C1596 C1593 1.403 1_545 S
C1596 C1597 1.392 . S
C1596 C1600 1.495 . S
C1597 C1596 1.392 . S
C1597 C1598 1.385 . S
C1597 C1599 1.478 . S
C1598 H1592 0.930 . S
C1598 C1594 1.398 1_545 S
C1598 C1597 1.385 . S
C1599 C1597 1.478 . S
C1599 C1601 1.381 . S
C1599 C1605 1.383 . S
C1600 C1596 1.495 . S
C1600 H1606 0.959 . S
C1600 H1607 0.961 . S
C1600 H1608 0.960 . S
C1601 C1599 1.381 . S
C1601 C1602 1.394 . S
C1601 H1609 0.930 . S
C1602 C1601 1.394 . S
C1602 C1603 1.383 . S
C1602 H1610 0.929 . S
C1603 C1602 1.383 . S
C1603 C1604 1.377 . S
C1604 H1588 0.930 . S
C1604 C1603 1.377 . S
C1604 C1605 1.379 . S
C1605 H1589 0.931 . S
C1605 C1599 1.383 . S
C1605 C1604 1.379 . S
H1606 C1600 0.959 . S
H1607 C1600 0.961 . S
H1608 C1600 0.960 . S
H1609 C1601 0.930 . S
H1610 C1602 0.929 . S
H1611 C1619 0.929 . S
H1612 C1621 0.930 . S
H1613 C1623 0.930 . S
H1614 C1626 0.929 . S
H1615 C1629 0.930 . S
H1616 C1631 0.960 . S
H1617 C1631 0.960 . S
H1618 C1631 0.960 . S
C1619 H1611 0.929 . S
C1619 C1620 1.377 . S
C1619 C1621 1.384 . S
C1620 C1619 1.377 . S
C1620 C1626 1.390 . S
C1621 H1612 0.930 . S
C1621 C1619 1.384 . S
C1621 C1622 1.372 . S
C1622 C1621 1.372 . S
C1622 C1623 1.400 . S
C1622 C1627 1.490 . S
C1623 H1613 0.930 . S
C1623 C1622 1.400 . S
C1623 C1626 1.386 . S
H1624 C1640 0.930 . S
H1625 C1641 0.931 . S
C1626 H1614 0.929 . S
C1626 C1620 1.390 . S
C1626 C1623 1.386 . S
C1627 C1622 1.490 . S
C1627 C1629 1.395 . S
C1627 C1630 1.403 . S
H1628 C1634 0.930 . S
C1629 H1615 0.930 . S
C1629 C1627 1.395 . S
C1629 C1632 1.403 . S
C1630 C1627 1.403 . S
C1630 C1631 1.524 . S
C1630 C1634 1.400 . S
C1631 H1616 0.960 . S
C1631 H1617 0.960 . S
C1631 H1618 0.960 . S
C1631 C1630 1.524 . S
C1632 C1629 1.403 . S
C1632 C1633 1.392 . S
C1632 C1636 1.495 . S
C1633 C1632 1.392 . S
C1633 C1634 1.385 . S
C1633 C1635 1.478 . S
C1634 H1628 0.930 . S
C1634 C1630 1.400 . S
C1634 C1633 1.385 . S
C1635 C1633 1.478 . S
C1635 C1637 1.381 . S
C1635 C1641 1.383 . S
C1636 C1632 1.495 . S
C1636 H1642 0.959 . S
C1636 H1643 0.961 . S
C1636 H1644 0.960 . S
C1637 C1635 1.381 . S
C1637 C1638 1.394 . S
C1637 H1645 0.930 . S
C1638 C1637 1.394 . S
C1638 C1639 1.383 . S
C1638 H1646 0.929 . S
C1639 C1638 1.383 . S
C1639 C1640 1.377 . S
C1640 H1624 0.930 . S
C1640 C1639 1.377 . S
C1640 C1641 1.379 . S
C1641 H1625 0.931 . S
C1641 C1635 1.383 . S
C1641 C1640 1.379 . S
H1642 C1636 0.959 . S
H1643 C1636 0.961 . S
H1644 C1636 0.960 . S
H1645 C1637 0.930 . S
H1646 C1638 0.929 . S
H1647 C1655 0.929 . S
H1648 C1657 0.930 . S
H1649 C1659 0.930 . S
H1650 C1662 0.929 . S
H1651 C1665 0.930 . S
H1652 C1667 0.960 . S
H1653 C1667 0.960 . S
H1654 C1667 0.960 . S
C1655 H1647 0.929 . S
C1655 C1656 1.377 . S
C1655 C1657 1.384 . S
C1656 C1655 1.377 . S
C1656 C1662 1.390 . S
C1657 H1648 0.930 . S
C1657 C1655 1.384 . S
C1657 C1658 1.372 . S
C1658 C1657 1.372 . S
C1658 C1659 1.400 . S
C1658 C1663 1.490 . S
C1659 H1649 0.930 . S
C1659 C1658 1.400 . S
C1659 C1662 1.386 . S
H1660 C1676 0.930 . S
H1661 C1677 0.931 . S
C1662 H1650 0.929 . S
C1662 C1656 1.390 . S
C1662 C1659 1.386 . S
C1663 C1658 1.490 . S
C1663 C1665 1.395 . S
C1663 C1666 1.403 . S
H1664 C1670 0.930 . S
C1665 H1651 0.930 . S
C1665 C1663 1.395 . S
C1665 C1668 1.403 . S
C1666 C1663 1.403 . S
C1666 C1667 1.524 . S
C1666 C1670 1.400 . S
C1667 H1652 0.960 . S
C1667 H1653 0.960 . S
C1667 H1654 0.960 . S
C1667 C1666 1.524 . S
C1668 C1665 1.403 . S
C1668 C1669 1.392 . S
C1668 C1672 1.495 . S
C1669 C1668 1.392 . S
C1669 C1670 1.385 . S
C1669 C1671 1.478 . S
C1670 H1664 0.930 . S
C1670 C1666 1.400 . S
C1670 C1669 1.385 . S
C1671 C1669 1.478 . S
C1671 C1673 1.381 . S
C1671 C1677 1.383 . S
C1672 C1668 1.495 . S
C1672 H1678 0.959 . S
C1672 H1679 0.961 . S
C1672 H1680 0.960 . S
C1673 C1671 1.381 . S
C1673 C1674 1.394 . S
C1673 H1681 0.930 . S
C1674 C1673 1.394 . S
C1674 C1675 1.383 . S
C1674 H1682 0.929 . S
C1675 C1674 1.383 . S
C1675 C1676 1.377 . S
C1676 H1660 0.930 . S
C1676 C1675 1.377 . S
C1676 C1677 1.379 . S
C1677 H1661 0.931 . S
C1677 C1671 1.383 . S
C1677 C1676 1.379 . S
H1678 C1672 0.959 . S
H1679 C1672 0.961 . S
H1680 C1672 0.960 . S
H1681 C1673 0.930 . S
H1682 C1674 0.929 . S
H1683 C1691 0.929 . S
H1684 C1693 0.930 . S
H1685 C1695 0.930 . S
H1686 C1698 0.929 . S
H1687 C1701 0.930 . S
H1688 C1703 0.960 . S
H1689 C1703 0.960 . S
H1690 C1703 0.960 . S
C1691 H1683 0.929 . S
C1691 C1692 1.377 . S
C1691 C1693 1.384 . S
C1692 C1691 1.377 . S
C1692 C1698 1.390 . S
C1693 H1684 0.930 . S
C1693 C1691 1.384 . S
C1693 C1694 1.372 . S
C1694 C1693 1.372 . S
C1694 C1695 1.400 . S
C1694 C1699 1.490 . S
C1695 H1685 0.930 . S
C1695 C1694 1.400 . S
C1695 C1698 1.386 . S
H1696 C1712 0.930 . S
H1697 C1713 0.931 . S
C1698 H1686 0.929 . S
C1698 C1692 1.390 . S
C1698 C1695 1.386 . S
C1699 C1694 1.490 . S
C1699 C1701 1.395 . S
C1699 C1702 1.403 . S
H1700 C1706 0.930 . S
C1701 H1687 0.930 . S
C1701 C1699 1.395 . S
C1701 C1704 1.403 . S
C1702 C1699 1.403 . S
C1702 C1703 1.524 . S
C1702 C1706 1.400 . S
C1703 H1688 0.960 . S
C1703 H1689 0.960 . S
C1703 H1690 0.960 . S
C1703 C1702 1.524 . S
C1704 C1701 1.403 . S
C1704 C1705 1.392 . S
C1704 C1708 1.495 . S
C1705 C1704 1.392 . S
C1705 C1706 1.385 . S
C1705 C1707 1.478 . S
C1706 H1700 0.930 . S
C1706 C1702 1.400 . S
C1706 C1705 1.385 . S
C1707 C1705 1.478 . S
C1707 C1709 1.381 . S
C1707 C1713 1.383 . S
C1708 C1704 1.495 . S
C1708 H1714 0.959 . S
C1708 H1715 0.961 . S
C1708 H1716 0.960 . S
C1709 C1707 1.381 . S
C1709 C1710 1.394 . S
C1709 H1717 0.930 . S
C1710 C1709 1.394 . S
C1710 C1711 1.383 . S
C1710 H1718 0.929 . S
C1711 C1710 1.383 . S
C1711 C1712 1.377 . S
C1712 H1696 0.930 . S
C1712 C1711 1.377 . S
C1712 C1713 1.379 . S
C1713 H1697 0.931 . S
C1713 C1707 1.383 . S
C1713 C1712 1.379 . S
H1714 C1708 0.959 . S
H1715 C1708 0.961 . S
H1716 C1708 0.960 . S
H1717 C1709 0.930 . S
H1718 C1710 0.929 . S
H1719 C1727 0.929 . S
H1720 C1729 0.930 . S
H1721 C1731 0.930 . S
H1722 C1734 0.929 . S
H1723 C1737 0.930 . S
H1724 C1739 0.960 . S
H1725 C1739 0.960 . S
H1726 C1739 0.960 . S
C1727 H1719 0.929 . S
C1727 C1728 1.377 . S
C1727 C1729 1.384 . S
C1728 C1727 1.377 . S
C1728 C1734 1.390 . S
C1729 H1720 0.930 . S
C1729 C1727 1.384 . S
C1729 C1730 1.372 . S
C1730 C1729 1.372 . S
C1730 C1731 1.400 . S
C1730 C1735 1.490 . S
C1731 H1721 0.930 . S
C1731 C1730 1.400 . S
C1731 C1734 1.386 . S
H1732 C1748 0.930 . S
H1733 C1749 0.931 . S
C1734 H1722 0.929 . S
C1734 C1728 1.390 . S
C1734 C1731 1.386 . S
C1735 C1730 1.490 . S
C1735 C1737 1.395 . S
C1735 C1738 1.403 . S
H1736 C1742 0.930 . S
C1737 H1723 0.930 . S
C1737 C1735 1.395 . S
C1737 C1740 1.403 . S
C1738 C1735 1.403 . S
C1738 C1739 1.524 . S
C1738 C1742 1.400 . S
C1739 H1724 0.960 . S
C1739 H1725 0.960 . S
C1739 H1726 0.960 . S
C1739 C1738 1.524 . S
C1740 C1737 1.403 . S
C1740 C1741 1.392 . S
C1740 C1744 1.495 . S
C1741 C1740 1.392 . S
C1741 C1742 1.385 . S
C1741 C1743 1.478 . S
C1742 H1736 0.930 . S
C1742 C1738 1.400 . S
C1742 C1741 1.385 . S
C1743 C1741 1.478 . S
C1743 C1745 1.381 . S
C1743 C1749 1.383 . S
C1744 C1740 1.495 . S
C1744 H1750 0.959 . S
C1744 H1751 0.961 . S
C1744 H1752 0.960 . S
C1745 C1743 1.381 . S
C1745 C1746 1.394 . S
C1745 H1753 0.930 . S
C1746 C1745 1.394 . S
C1746 C1747 1.383 . S
C1746 H1754 0.929 . S
C1747 C1746 1.383 . S
C1747 C1748 1.377 . S
C1748 H1732 0.930 . S
C1748 C1747 1.377 . S
C1748 C1749 1.379 . S
C1749 H1733 0.931 . S
C1749 C1743 1.383 . S
C1749 C1748 1.379 . S
H1750 C1744 0.959 . S
H1751 C1744 0.961 . S
H1752 C1744 0.960 . S
H1753 C1745 0.930 . S
H1754 C1746 0.929 . S
H1755 C1763 0.929 . S
H1756 C1765 0.930 . S
H1757 C1767 0.930 . S
H1758 C1770 0.929 . S
H1759 C1773 0.930 . S
H1760 C1775 0.960 . S
H1761 C1775 0.960 . S
H1762 C1775 0.960 . S
C1763 H1755 0.929 . S
C1763 C1764 1.377 . S
C1763 C1765 1.384 . S
C1764 C1763 1.377 . S
C1764 C1770 1.390 . S
C1765 H1756 0.930 . S
C1765 C1763 1.384 . S
C1765 C1766 1.372 . S
C1766 C1765 1.372 . S
C1766 C1767 1.400 . S
C1766 C1771 1.490 . S
C1767 H1757 0.930 . S
C1767 C1766 1.400 . S
C1767 C1770 1.386 . S
H1768 C1784 0.930 . S
H1769 C1785 0.931 . S
C1770 H1758 0.929 . S
C1770 C1764 1.390 . S
C1770 C1767 1.386 . S
C1771 C1766 1.490 . S
C1771 C1773 1.395 . S
C1771 C1774 1.403 . S
H1772 C1778 0.930 . S
C1773 H1759 0.930 . S
C1773 C1771 1.395 . S
C1773 C1776 1.403 . S
C1774 C1771 1.403 . S
C1774 C1775 1.524 . S
C1774 C1778 1.400 . S
C1775 H1760 0.960 . S
C1775 H1761 0.960 . S
C1775 H1762 0.960 . S
C1775 C1774 1.524 . S
C1776 C1773 1.403 . S
C1776 C1777 1.392 . S
C1776 C1780 1.495 . S
C1777 C1776 1.392 . S
C1777 C1778 1.385 . S
C1777 C1779 1.478 . S
C1778 H1772 0.930 . S
C1778 C1774 1.400 . S
C1778 C1777 1.385 . S
C1779 C1777 1.478 . S
C1779 C1781 1.381 . S
C1779 C1785 1.383 . S
C1780 C1776 1.495 . S
C1780 H1786 0.959 . S
C1780 H1787 0.961 . S
C1780 H1788 0.960 . S
C1781 C1779 1.381 . S
C1781 C1782 1.394 . S
C1781 H1789 0.930 . S
C1782 C1781 1.394 . S
C1782 C1783 1.383 . S
C1782 H1790 0.929 . S
C1783 C1782 1.383 . S
C1783 C1784 1.377 . S
C1784 H1768 0.930 . S
C1784 C1783 1.377 . S
C1784 C1785 1.379 . S
C1785 H1769 0.931 . S
C1785 C1779 1.383 . S
C1785 C1784 1.379 . S
H1786 C1780 0.959 . S
H1787 C1780 0.961 . S
H1788 C1780 0.960 . S
H1789 C1781 0.930 . S
H1790 C1782 0.929 . S
H1791 C1799 0.929 . S
H1792 C1801 0.930 . S
H1793 C1803 0.930 . S
H1794 C1806 0.929 . S
H1795 C1809 0.930 . S
H1796 C1811 0.960 . S
H1797 C1811 0.960 . S
H1798 C1811 0.960 . S
C1799 H1791 0.929 . S
C1799 C1800 1.377 . S
C1799 C1801 1.384 . S
C1800 C1799 1.377 . S
C1800 C1806 1.390 . S
C1801 H1792 0.930 . S
C1801 C1799 1.384 . S
C1801 C1802 1.372 . S
C1802 C1801 1.372 . S
C1802 C1803 1.400 . S
C1802 C1807 1.490 . S
C1803 H1793 0.930 . S
C1803 C1802 1.400 . S
C1803 C1806 1.386 . S
H1804 C1820 0.930 . S
H1805 C1821 0.931 . S
C1806 H1794 0.929 . S
C1806 C1800 1.390 . S
C1806 C1803 1.386 . S
C1807 C1802 1.490 . S
C1807 C1809 1.395 . S
C1807 C1810 1.403 . S
H1808 C1814 0.930 . S
C1809 H1795 0.930 . S
C1809 C1807 1.395 . S
C1809 C1812 1.403 . S
C1810 C1807 1.403 . S
C1810 C1811 1.524 . S
C1810 C1814 1.400 . S
C1811 H1796 0.960 . S
C1811 H1797 0.960 . S
C1811 H1798 0.960 . S
C1811 C1810 1.524 . S
C1812 C1809 1.403 . S
C1812 C1813 1.392 . S
C1812 C1816 1.495 . S
C1813 C1812 1.392 . S
C1813 C1814 1.385 . S
C1813 C1815 1.478 . S
C1814 H1808 0.930 . S
C1814 C1810 1.400 . S
C1814 C1813 1.385 . S
C1815 C1813 1.478 . S
C1815 C1817 1.381 . S
C1815 C1821 1.383 . S
C1816 C1812 1.495 . S
C1816 H1822 0.959 . S
C1816 H1823 0.961 . S
C1816 H1824 0.960 . S
C1817 C1815 1.381 . S
C1817 C1818 1.394 . S
C1817 H1825 0.930 . S
C1818 C1817 1.394 . S
C1818 C1819 1.383 . S
C1818 H1826 0.929 . S
C1819 C1818 1.383 . S
C1819 C1820 1.377 . S
C1820 H1804 0.930 . S
C1820 C1819 1.377 . S
C1820 C1821 1.379 . S
C1821 H1805 0.931 . S
C1821 C1815 1.383 . S
C1821 C1820 1.379 . S
H1822 C1816 0.959 . S
H1823 C1816 0.961 . S
H1824 C1816 0.960 . S
H1825 C1817 0.930 . S
H1826 C1818 0.929 . S
H1827 C1835 0.929 . S
H1828 C1837 0.930 . S
H1829 C1839 0.930 . S
H1830 C1842 0.929 . S
H1831 C1845 0.930 . S
H1832 C1847 0.960 . S
H1833 C1847 0.960 . S
H1834 C1847 0.960 . S
C1835 H1827 0.929 . S
C1835 C1836 1.377 . S
C1835 C1837 1.384 . S
C1836 C1835 1.377 . S
C1836 C1842 1.390 . S
C1837 H1828 0.930 . S
C1837 C1835 1.384 . S
C1837 C1838 1.372 . S
C1838 C1837 1.372 . S
C1838 C1839 1.400 . S
C1838 C1843 1.490 . S
C1839 H1829 0.930 . S
C1839 C1838 1.400 . S
C1839 C1842 1.386 . S
H1840 C1856 0.930 . S
H1841 C1857 0.931 . S
C1842 H1830 0.929 . S
C1842 C1836 1.390 . S
C1842 C1839 1.386 . S
C1843 C1838 1.490 . S
C1843 C1845 1.395 . S
C1843 C1846 1.403 . S
H1844 C1850 0.930 . S
C1845 H1831 0.930 . S
C1845 C1843 1.395 . S
C1845 C1848 1.403 . S
C1846 C1843 1.403 . S
C1846 C1847 1.524 . S
C1846 C1850 1.400 . S
C1847 H1832 0.960 . S
C1847 H1833 0.960 . S
C1847 H1834 0.960 . S
C1847 C1846 1.524 . S
C1848 C1845 1.403 . S
C1848 C1849 1.392 . S
C1848 C1852 1.495 . S
C1849 C1848 1.392 . S
C1849 C1850 1.385 . S
C1849 C1851 1.478 . S
C1850 H1844 0.930 . S
C1850 C1846 1.400 . S
C1850 C1849 1.385 . S
C1851 C1849 1.478 . S
C1851 C1853 1.381 . S
C1851 C1857 1.383 . S
C1852 C1848 1.495 . S
C1852 H1858 0.959 . S
C1852 H1859 0.961 . S
C1852 H1860 0.960 . S
C1853 C1851 1.381 . S
C1853 C1854 1.394 1_655 S
C1853 H1861 0.930 1_655 S
C1854 C1853 1.394 1_455 S
C1854 C1855 1.383 1_455 S
C1854 H1862 0.929 . S
C1855 C1854 1.383 1_655 S
C1855 C1856 1.377 . S
C1856 H1840 0.930 . S
C1856 C1855 1.377 . S
C1856 C1857 1.379 . S
C1857 H1841 0.931 . S
C1857 C1851 1.383 . S
C1857 C1856 1.379 . S
H1858 C1852 0.959 . S
H1859 C1852 0.961 . S
H1860 C1852 0.960 . S
H1861 C1853 0.930 1_455 S
H1862 C1854 0.929 . S
H1863 C1871 0.929 . S
H1864 C1873 0.930 . S
H1865 C1875 0.930 . S
H1866 C1878 0.929 . S
H1867 C1881 0.930 . S
H1868 C1883 0.960 . S
H1869 C1883 0.960 . S
H1870 C1883 0.960 . S
C1871 H1863 0.929 . S
C1871 C1872 1.377 . S
C1871 C1873 1.384 . S
C1872 C1871 1.377 . S
C1872 C1878 1.390 . S
C1873 H1864 0.930 . S
C1873 C1871 1.384 . S
C1873 C1874 1.372 . S
C1874 C1873 1.372 . S
C1874 C1875 1.400 . S
C1874 C1879 1.490 . S
C1875 H1865 0.930 . S
C1875 C1874 1.400 . S
C1875 C1878 1.386 . S
H1876 C1892 0.930 . S
H1877 C1893 0.931 . S
C1878 H1866 0.929 . S
C1878 C1872 1.390 . S
C1878 C1875 1.386 . S
C1879 C1874 1.490 . S
C1879 C1881 1.395 . S
C1879 C1882 1.403 . S
H1880 C1886 0.930 . S
C1881 H1867 0.930 . S
C1881 C1879 1.395 . S
C1881 C1884 1.403 . S
C1882 C1879 1.403 . S
C1882 C1883 1.524 . S
C1882 C1886 1.400 . S
C1883 H1868 0.960 . S
C1883 H1869 0.960 . S
C1883 H1870 0.960 . S
C1883 C1882 1.524 . S
C1884 C1881 1.403 . S
C1884 C1885 1.392 . S
C1884 C1888 1.495 . S
C1885 C1884 1.392 . S
C1885 C1886 1.385 . S
C1885 C1887 1.478 . S
C1886 H1880 0.930 . S
C1886 C1882 1.400 . S
C1886 C1885 1.385 . S
C1887 C1885 1.478 . S
C1887 C1889 1.381 . S
C1887 C1893 1.383 . S
C1888 C1884 1.495 . S
C1888 H1894 0.959 . S
C1888 H1895 0.961 . S
C1888 H1896 0.960 . S
C1889 C1887 1.381 . S
C1889 C1890 1.394 . S
C1889 H1897 0.930 . S
C1890 C1889 1.394 . S
C1890 C1891 1.383 . S
C1890 H1898 0.929 . S
C1891 C1890 1.383 . S
C1891 C1892 1.377 . S
C1892 H1876 0.930 . S
C1892 C1891 1.377 . S
C1892 C1893 1.379 . S
C1893 H1877 0.931 . S
C1893 C1887 1.383 . S
C1893 C1892 1.379 . S
H1894 C1888 0.959 . S
H1895 C1888 0.961 . S
H1896 C1888 0.960 . S
H1897 C1889 0.930 . S
H1898 C1890 0.929 . S
H1899 C1907 0.929 . S
H1900 C1909 0.930 . S
H1901 C1911 0.930 . S
H1902 C1914 0.929 . S
H1903 C1917 0.930 . S
H1904 C1919 0.960 . S
H1905 C1919 0.960 . S
H1906 C1919 0.960 . S
C1907 H1899 0.929 . S
C1907 C1908 1.377 . S
C1907 C1909 1.384 . S
C1908 C1907 1.377 . S
C1908 C1914 1.390 . S
C1909 H1900 0.930 . S
C1909 C1907 1.384 . S
C1909 C1910 1.372 . S
C1910 C1909 1.372 . S
C1910 C1911 1.400 . S
C1910 C1915 1.490 . S
C1911 H1901 0.930 . S
C1911 C1910 1.400 . S
C1911 C1914 1.386 . S
H1912 C1928 0.930 . S
H1913 C1929 0.931 . S
C1914 H1902 0.929 . S
C1914 C1908 1.390 . S
C1914 C1911 1.386 . S
C1915 C1910 1.490 . S
C1915 C1917 1.395 . S
C1915 C1918 1.403 . S
H1916 C1922 0.930 . S
C1917 H1903 0.930 . S
C1917 C1915 1.395 . S
C1917 C1920 1.403 . S
C1918 C1915 1.403 . S
C1918 C1919 1.524 . S
C1918 C1922 1.400 . S
C1919 H1904 0.960 . S
C1919 H1905 0.960 . S
C1919 H1906 0.960 . S
C1919 C1918 1.524 . S
C1920 C1917 1.403 . S
C1920 C1921 1.392 . S
C1920 C1924 1.495 . S
C1921 C1920 1.392 . S
C1921 C1922 1.385 . S
C1921 C1923 1.478 . S
C1922 H1916 0.930 . S
C1922 C1918 1.400 . S
C1922 C1921 1.385 . S
C1923 C1921 1.478 . S
C1923 C1925 1.381 . S
C1923 C1929 1.383 . S
C1924 C1920 1.495 . S
C1924 H1930 0.959 . S
C1924 H1931 0.961 . S
C1924 H1932 0.960 . S
C1925 C1923 1.381 . S
C1925 C1926 1.394 . S
C1925 H1933 0.930 . S
C1926 C1925 1.394 . S
C1926 C1927 1.383 . S
C1926 H1934 0.929 . S
C1927 C1926 1.383 . S
C1927 C1928 1.377 . S
C1928 H1912 0.930 . S
C1928 C1927 1.377 . S
C1928 C1929 1.379 . S
C1929 H1913 0.931 . S
C1929 C1923 1.383 . S
C1929 C1928 1.379 . S
H1930 C1924 0.959 . S
H1931 C1924 0.961 . S
H1932 C1924 0.960 . S
H1933 C1925 0.930 . S
H1934 C1926 0.929 . S
H1935 C1943 0.929 . S
H1936 C1945 0.930 . S
H1937 C1947 0.930 . S
H1938 C1950 0.929 . S
H1939 C1953 0.930 . S
H1940 C1955 0.960 . S
H1941 C1955 0.960 . S
H1942 C1955 0.960 . S
C1943 H1935 0.929 . S
C1943 C1944 1.377 . S
C1943 C1945 1.384 . S
C1944 C1943 1.377 . S
C1944 C1950 1.390 . S
C1945 H1936 0.930 . S
C1945 C1943 1.384 . S
C1945 C1946 1.372 . S
C1946 C1945 1.372 . S
C1946 C1947 1.400 . S
C1946 C1951 1.490 . S
C1947 H1937 0.930 . S
C1947 C1946 1.400 . S
C1947 C1950 1.386 . S
H1948 C1964 0.930 . S
H1949 C1965 0.931 . S
C1950 H1938 0.929 . S
C1950 C1944 1.390 . S
C1950 C1947 1.386 . S
C1951 C1946 1.490 . S
C1951 C1953 1.395 . S
C1951 C1954 1.403 . S
H1952 C1958 0.930 . S
C1953 H1939 0.930 . S
C1953 C1951 1.395 . S
C1953 C1956 1.403 . S
C1954 C1951 1.403 . S
C1954 C1955 1.524 . S
C1954 C1958 1.400 . S
C1955 H1940 0.960 . S
C1955 H1941 0.960 . S
C1955 H1942 0.960 . S
C1955 C1954 1.524 . S
C1956 C1953 1.403 . S
C1956 C1957 1.392 . S
C1956 C1960 1.495 . S
C1957 C1956 1.392 . S
C1957 C1958 1.385 . S
C1957 C1959 1.478 . S
C1958 H1952 0.930 . S
C1958 C1954 1.400 . S
C1958 C1957 1.385 . S
C1959 C1957 1.478 . S
C1959 C1961 1.381 . S
C1959 C1965 1.383 . S
C1960 C1956 1.495 . S
C1960 H1966 0.959 . S
C1960 H1967 0.961 . S
C1960 H1968 0.960 . S
C1961 C1959 1.381 . S
C1961 C1962 1.394 . S
C1961 H1969 0.930 . S
C1962 C1961 1.394 . S
C1962 C1963 1.383 . S
C1962 H1970 0.929 . S
C1963 C1962 1.383 . S
C1963 C1964 1.377 . S
C1964 H1948 0.930 . S
C1964 C1963 1.377 . S
C1964 C1965 1.379 . S
C1965 H1949 0.931 . S
C1965 C1959 1.383 . S
C1965 C1964 1.379 . S
H1966 C1960 0.959 . S
H1967 C1960 0.961 . S
H1968 C1960 0.960 . S
H1969 C1961 0.930 . S
H1970 C1962 0.929 . S
H1971 C1979 0.929 . S
H1972 C1981 0.930 . S
H1973 C1983 0.930 . S
H1974 C1986 0.929 . S
H1975 C1989 0.930 . S
H1976 C1991 0.960 . S
H1977 C1991 0.960 . S
H1978 C1991 0.960 . S
C1979 H1971 0.929 . S
C1979 C1980 1.377 . S
C1979 C1981 1.384 . S
C1980 C1979 1.377 . S
C1980 C1986 1.390 . S
C1981 H1972 0.930 . S
C1981 C1979 1.384 . S
C1981 C1982 1.372 . S
C1982 C1981 1.372 . S
C1982 C1983 1.400 . S
C1982 C1987 1.490 . S
C1983 H1973 0.930 . S
C1983 C1982 1.400 . S
C1983 C1986 1.386 . S
H1984 C2000 0.930 . S
H1985 C2001 0.931 . S
C1986 H1974 0.929 . S
C1986 C1980 1.390 . S
C1986 C1983 1.386 . S
C1987 C1982 1.490 . S
C1987 C1989 1.395 . S
C1987 C1990 1.403 . S
H1988 C1994 0.930 . S
C1989 H1975 0.930 . S
C1989 C1987 1.395 . S
C1989 C1992 1.403 . S
C1990 C1987 1.403 . S
C1990 C1991 1.524 . S
C1990 C1994 1.400 . S
C1991 H1976 0.960 . S
C1991 H1977 0.960 . S
C1991 H1978 0.960 . S
C1991 C1990 1.524 . S
C1992 C1989 1.403 . S
C1992 C1993 1.392 . S
C1992 C1996 1.495 . S
C1993 C1992 1.392 . S
C1993 C1994 1.385 . S
C1993 C1995 1.478 . S
C1994 H1988 0.930 . S
C1994 C1990 1.400 . S
C1994 C1993 1.385 . S
C1995 C1993 1.478 . S
C1995 C1997 1.381 . S
C1995 C2001 1.383 . S
C1996 C1992 1.495 . S
C1996 H2002 0.959 . S
C1996 H2003 0.961 . S
C1996 H2004 0.960 . S
C1997 C1995 1.381 . S
C1997 C1998 1.394 . S
C1997 H2005 0.930 . S
C1998 C1997 1.394 . S
C1998 C1999 1.383 . S
C1998 H2006 0.929 . S
C1999 C1998 1.383 . S
C1999 C2000 1.377 . S
C2000 H1984 0.930 . S
C2000 C1999 1.377 . S
C2000 C2001 1.379 . S
C2001 H1985 0.931 . S
C2001 C1995 1.383 . S
C2001 C2000 1.379 . S
H2002 C1996 0.959 . S
H2003 C1996 0.961 . S
H2004 C1996 0.960 . S
H2005 C1997 0.930 . S
H2006 C1998 0.929 . S
H2007 C2015 0.929 . S
H2008 C2017 0.930 . S
H2009 C2019 0.930 . S
H2010 C2022 0.929 . S
H2011 C2025 0.930 . S
H2012 C2027 0.960 . S
H2013 C2027 0.960 . S
H2014 C2027 0.960 . S
C2015 H2007 0.929 . S
C2015 C2016 1.377 . S
C2015 C2017 1.384 . S
C2016 C2015 1.377 . S
C2016 C2022 1.390 . S
C2017 H2008 0.930 . S
C2017 C2015 1.384 . S
C2017 C2018 1.372 . S
C2018 C2017 1.372 . S
C2018 C2019 1.400 . S
C2018 C2023 1.490 . S
C2019 H2009 0.930 . S
C2019 C2018 1.400 . S
C2019 C2022 1.386 . S
H2020 C2036 0.930 . S
H2021 C2037 0.931 . S
C2022 H2010 0.929 . S
C2022 C2016 1.390 . S
C2022 C2019 1.386 . S
C2023 C2018 1.490 . S
C2023 C2025 1.395 . S
C2023 C2026 1.403 . S
H2024 C2030 0.930 . S
C2025 H2011 0.930 . S
C2025 C2023 1.395 . S
C2025 C2028 1.403 . S
C2026 C2023 1.403 . S
C2026 C2027 1.524 . S
C2026 C2030 1.400 . S
C2027 H2012 0.960 . S
C2027 H2013 0.960 . S
C2027 H2014 0.960 . S
C2027 C2026 1.524 . S
C2028 C2025 1.403 . S
C2028 C2029 1.392 . S
C2028 C2032 1.495 . S
C2029 C2028 1.392 . S
C2029 C2030 1.385 . S
C2029 C2031 1.478 . S
C2030 H2024 0.930 . S
C2030 C2026 1.400 . S
C2030 C2029 1.385 . S
C2031 C2029 1.478 . S
C2031 C2033 1.381 . S
C2031 C2037 1.383 . S
C2032 C2028 1.495 . S
C2032 H2038 0.959 . S
C2032 H2039 0.961 . S
C2032 H2040 0.960 . S
C2033 C2031 1.381 . S
C2033 C2034 1.394 . S
C2033 H2041 0.930 . S
C2034 C2033 1.394 . S
C2034 C2035 1.383 . S
C2034 H2042 0.929 . S
C2035 C2034 1.383 . S
C2035 C2036 1.377 . S
C2036 H2020 0.930 . S
C2036 C2035 1.377 . S
C2036 C2037 1.379 . S
C2037 H2021 0.931 . S
C2037 C2031 1.383 . S
C2037 C2036 1.379 . S
H2038 C2032 0.959 . S
H2039 C2032 0.961 . S
H2040 C2032 0.960 . S
H2041 C2033 0.930 . S
H2042 C2034 0.929 . S
H2043 C2051 0.929 . S
H2044 C2053 0.930 . S
H2045 C2055 0.930 . S
H2046 C2058 0.929 . S
H2047 C2061 0.930 . S
H2048 C2063 0.960 . S
H2049 C2063 0.960 . S
H2050 C2063 0.960 . S
C2051 H2043 0.929 . S
C2051 C2052 1.377 . S
C2051 C2053 1.384 . S
C2052 C2051 1.377 . S
C2052 C2058 1.390 . S
C2053 H2044 0.930 . S
C2053 C2051 1.384 . S
C2053 C2054 1.372 . S
C2054 C2053 1.372 . S
C2054 C2055 1.400 . S
C2054 C2059 1.490 . S
C2055 H2045 0.930 . S
C2055 C2054 1.400 . S
C2055 C2058 1.386 . S
H2056 C2072 0.930 . S
H2057 C2073 0.931 . S
C2058 H2046 0.929 . S
C2058 C2052 1.390 . S
C2058 C2055 1.386 . S
C2059 C2054 1.490 . S
C2059 C2061 1.395 . S
C2059 C2062 1.403 . S
H2060 C2066 0.930 . S
C2061 H2047 0.930 . S
C2061 C2059 1.395 . S
C2061 C2064 1.403 . S
C2062 C2059 1.403 . S
C2062 C2063 1.524 . S
C2062 C2066 1.400 . S
C2063 H2048 0.960 . S
C2063 H2049 0.960 . S
C2063 H2050 0.960 . S
C2063 C2062 1.524 . S
C2064 C2061 1.403 . S
C2064 C2065 1.392 . S
C2064 C2068 1.495 . S
C2065 C2064 1.392 . S
C2065 C2066 1.385 . S
C2065 C2067 1.478 . S
C2066 H2060 0.930 . S
C2066 C2062 1.400 . S
C2066 C2065 1.385 . S
C2067 C2065 1.478 . S
C2067 C2069 1.381 . S
C2067 C2073 1.383 . S
C2068 C2064 1.495 . S
C2068 H2074 0.959 . S
C2068 H2075 0.961 . S
C2068 H2076 0.960 . S
C2069 C2067 1.381 . S
C2069 C2070 1.394 . S
C2069 H2077 0.930 . S
C2070 C2069 1.394 . S
C2070 C2071 1.383 . S
C2070 H2078 0.929 . S
C2071 C2070 1.383 . S
C2071 C2072 1.377 . S
C2072 H2056 0.930 . S
C2072 C2071 1.377 . S
C2072 C2073 1.379 . S
C2073 H2057 0.931 . S
C2073 C2067 1.383 . S
C2073 C2072 1.379 . S
H2074 C2068 0.959 . S
H2075 C2068 0.961 . S
H2076 C2068 0.960 . S
H2077 C2069 0.930 . S
H2078 C2070 0.929 . S
H2079 C2087 0.929 . S
H2080 C2089 0.930 . S
H2081 C2091 0.930 . S
H2082 C2094 0.929 . S
H2083 C2097 0.930 . S
H2084 C2099 0.960 . S
H2085 C2099 0.960 . S
H2086 C2099 0.960 . S
C2087 H2079 0.929 . S
C2087 C2088 1.377 . S
C2087 C2089 1.384 . S
C2088 C2087 1.377 . S
C2088 C2094 1.390 . S
C2089 H2080 0.930 . S
C2089 C2087 1.384 . S
C2089 C2090 1.372 . S
C2090 C2089 1.372 . S
C2090 C2091 1.400 . S
C2090 C2095 1.490 . S
C2091 H2081 0.930 . S
C2091 C2090 1.400 . S
C2091 C2094 1.386 . S
H2092 C2108 0.930 . S
H2093 C2109 0.931 . S
C2094 H2082 0.929 . S
C2094 C2088 1.390 . S
C2094 C2091 1.386 . S
C2095 C2090 1.490 . S
C2095 C2097 1.395 . S
C2095 C2098 1.403 . S
H2096 C2102 0.930 . S
C2097 H2083 0.930 . S
C2097 C2095 1.395 . S
C2097 C2100 1.403 . S
C2098 C2095 1.403 . S
C2098 C2099 1.524 . S
C2098 C2102 1.400 . S
C2099 H2084 0.960 . S
C2099 H2085 0.960 . S
C2099 H2086 0.960 . S
C2099 C2098 1.524 . S
C2100 C2097 1.403 . S
C2100 C2101 1.392 . S
C2100 C2104 1.495 . S
C2101 C2100 1.392 . S
C2101 C2102 1.385 . S
C2101 C2103 1.478 . S
C2102 H2096 0.930 . S
C2102 C2098 1.400 . S
C2102 C2101 1.385 . S
C2103 C2101 1.478 . S
C2103 C2105 1.381 . S
C2103 C2109 1.383 . S
C2104 C2100 1.495 . S
C2104 H2110 0.959 . S
C2104 H2111 0.961 . S
C2104 H2112 0.960 . S
C2105 C2103 1.381 . S
C2105 C2106 1.394 . S
C2105 H2113 0.930 . S
C2106 C2105 1.394 . S
C2106 C2107 1.383 . S
C2106 H2114 0.929 . S
C2107 C2106 1.383 . S
C2107 C2108 1.377 . S
C2108 H2092 0.930 . S
C2108 C2107 1.377 . S
C2108 C2109 1.379 . S
C2109 H2093 0.931 . S
C2109 C2103 1.383 . S
C2109 C2108 1.379 . S
H2110 C2104 0.959 . S
H2111 C2104 0.961 . S
H2112 C2104 0.960 . S
H2113 C2105 0.930 . S
H2114 C2106 0.929 . S
H2115 C2123 0.929 . S
H2116 C2125 0.930 . S
H2117 C2127 0.930 . S
H2118 C2130 0.929 . S
H2119 C2133 0.930 . S
H2120 C2135 0.960 . S
H2121 C2135 0.960 . S
H2122 C2135 0.960 . S
C2123 H2115 0.929 . S
C2123 C2124 1.377 . S
C2123 C2125 1.384 . S
C2124 C2123 1.377 . S
C2124 C2130 1.390 . S
C2125 H2116 0.930 . S
C2125 C2123 1.384 . S
C2125 C2126 1.372 . S
C2126 C2125 1.372 . S
C2126 C2127 1.400 . S
C2126 C2131 1.490 . S
C2127 H2117 0.930 . S
C2127 C2126 1.400 . S
C2127 C2130 1.386 . S
H2128 C2144 0.930 . S
H2129 C2145 0.931 . S
C2130 H2118 0.929 . S
C2130 C2124 1.390 . S
C2130 C2127 1.386 . S
C2131 C2126 1.490 . S
C2131 C2133 1.395 . S
C2131 C2134 1.403 . S
H2132 C2138 0.930 . S
C2133 H2119 0.930 . S
C2133 C2131 1.395 . S
C2133 C2136 1.403 . S
C2134 C2131 1.403 . S
C2134 C2135 1.524 . S
C2134 C2138 1.400 . S
C2135 H2120 0.960 . S
C2135 H2121 0.960 . S
C2135 H2122 0.960 . S
C2135 C2134 1.524 . S
C2136 C2133 1.403 . S
C2136 C2137 1.392 . S
C2136 C2140 1.495 . S
C2137 C2136 1.392 . S
C2137 C2138 1.385 . S
C2137 C2139 1.478 . S
C2138 H2132 0.930 . S
C2138 C2134 1.400 . S
C2138 C2137 1.385 . S
C2139 C2137 1.478 . S
C2139 C2141 1.381 . S
C2139 C2145 1.383 . S
C2140 C2136 1.495 . S
C2140 H2146 0.959 . S
C2140 H2147 0.961 . S
C2140 H2148 0.960 . S
C2141 C2139 1.381 . S
C2141 C2142 1.394 . S
C2141 H2149 0.930 . S
C2142 C2141 1.394 . S
C2142 C2143 1.383 . S
C2142 H2150 0.929 . S
C2143 C2142 1.383 . S
C2143 C2144 1.377 . S
C2144 H2128 0.930 . S
C2144 C2143 1.377 . S
C2144 C2145 1.379 . S
C2145 H2129 0.931 . S
C2145 C2139 1.383 . S
C2145 C2144 1.379 . S
H2146 C2140 0.959 . S
H2147 C2140 0.961 . S
H2148 C2140 0.960 . S
H2149 C2141 0.930 . S
H2150 C2142 0.929 . S
H2151 C2159 0.929 . S
H2152 C2161 0.930 . S
H2153 C2163 0.930 . S
H2154 C2166 0.929 . S
H2155 C2169 0.930 . S
H2156 C2171 0.960 . S
H2157 C2171 0.960 . S
H2158 C2171 0.960 . S
C2159 H2151 0.929 . S
C2159 C2160 1.377 . S
C2159 C2161 1.384 . S
C2160 C2159 1.377 . S
C2160 C2166 1.390 . S
C2161 H2152 0.930 . S
C2161 C2159 1.384 . S
C2161 C2162 1.372 . S
C2162 C2161 1.372 . S
C2162 C2163 1.400 . S
C2162 C2167 1.490 . S
C2163 H2153 0.930 . S
C2163 C2162 1.400 . S
C2163 C2166 1.386 . S
H2164 C2180 0.930 . S
H2165 C2181 0.931 . S
C2166 H2154 0.929 . S
C2166 C2160 1.390 . S
C2166 C2163 1.386 . S
C2167 C2162 1.490 . S
C2167 C2169 1.395 . S
C2167 C2170 1.403 . S
H2168 C2174 0.930 . S
C2169 H2155 0.930 . S
C2169 C2167 1.395 . S
C2169 C2172 1.403 . S
C2170 C2167 1.403 . S
C2170 C2171 1.524 . S
C2170 C2174 1.400 . S
C2171 H2156 0.960 . S
C2171 H2157 0.960 . S
C2171 H2158 0.960 . S
C2171 C2170 1.524 . S
C2172 C2169 1.403 . S
C2172 C2173 1.392 . S
C2172 C2176 1.495 . S
C2173 C2172 1.392 . S
C2173 C2174 1.385 . S
C2173 C2175 1.478 . S
C2174 H2168 0.930 . S
C2174 C2170 1.400 . S
C2174 C2173 1.385 . S
C2175 C2173 1.478 . S
C2175 C2177 1.381 . S
C2175 C2181 1.383 . S
C2176 C2172 1.495 . S
C2176 H2182 0.959 . S
C2176 H2183 0.961 . S
C2176 H2184 0.960 . S
C2177 C2175 1.381 . S
C2177 C2178 1.394 . S
C2177 H2185 0.930 . S
C2178 C2177 1.394 . S
C2178 C2179 1.383 . S
C2178 H2186 0.929 . S
C2179 C2178 1.383 . S
C2179 C2180 1.377 . S
C2180 H2164 0.930 . S
C2180 C2179 1.377 . S
C2180 C2181 1.379 . S
C2181 H2165 0.931 . S
C2181 C2175 1.383 . S
C2181 C2180 1.379 . S
H2182 C2176 0.959 . S
H2183 C2176 0.961 . S
H2184 C2176 0.960 . S
H2185 C2177 0.930 . S
H2186 C2178 0.929 . S
H2187 C2195 0.929 . S
H2188 C2197 0.930 . S
H2189 C2199 0.930 . S
H2190 C2202 0.929 . S
H2191 C2205 0.930 . S
H2192 C2207 0.960 . S
H2193 C2207 0.960 . S
H2194 C2207 0.960 . S
C2195 H2187 0.929 . S
C2195 C2196 1.377 . S
C2195 C2197 1.384 . S
C2196 C2195 1.377 . S
C2196 C2202 1.390 . S
C2197 H2188 0.930 . S
C2197 C2195 1.384 . S
C2197 C2198 1.372 . S
C2198 C2197 1.372 . S
C2198 C2199 1.400 . S
C2198 C2203 1.490 . S
C2199 H2189 0.930 . S
C2199 C2198 1.400 . S
C2199 C2202 1.386 . S
H2200 C2216 0.930 . S
H2201 C2217 0.931 . S
C2202 H2190 0.929 . S
C2202 C2196 1.390 . S
C2202 C2199 1.386 . S
C2203 C2198 1.490 . S
C2203 C2205 1.395 . S
C2203 C2206 1.403 . S
H2204 C2210 0.930 . S
C2205 H2191 0.930 . S
C2205 C2203 1.395 . S
C2205 C2208 1.403 . S
C2206 C2203 1.403 . S
C2206 C2207 1.524 . S
C2206 C2210 1.400 . S
C2207 H2192 0.960 . S
C2207 H2193 0.960 . S
C2207 H2194 0.960 . S
C2207 C2206 1.524 . S
C2208 C2205 1.403 . S
C2208 C2209 1.392 . S
C2208 C2212 1.495 . S
C2209 C2208 1.392 . S
C2209 C2210 1.385 . S
C2209 C2211 1.478 . S
C2210 H2204 0.930 . S
C2210 C2206 1.400 . S
C2210 C2209 1.385 . S
C2211 C2209 1.478 . S
C2211 C2213 1.381 . S
C2211 C2217 1.383 . S
C2212 C2208 1.495 . S
C2212 H2218 0.959 . S
C2212 H2219 0.961 . S
C2212 H2220 0.960 . S
C2213 C2211 1.381 . S
C2213 C2214 1.394 . S
C2213 H2221 0.930 . S
C2214 C2213 1.394 . S
C2214 C2215 1.383 . S
C2214 H2222 0.929 . S
C2215 C2214 1.383 . S
C2215 C2216 1.377 . S
C2216 H2200 0.930 . S
C2216 C2215 1.377 . S
C2216 C2217 1.379 . S
C2217 H2201 0.931 . S
C2217 C2211 1.383 . S
C2217 C2216 1.379 . S
H2218 C2212 0.959 . S
H2219 C2212 0.961 . S
H2220 C2212 0.960 . S
H2221 C2213 0.930 . S
H2222 C2214 0.929 . S
H2223 C2231 0.929 . S
H2224 C2233 0.930 . S
H2225 C2235 0.930 . S
H2226 C2238 0.929 . S
H2227 C2241 0.930 . S
H2228 C2243 0.960 . S
H2229 C2243 0.960 . S
H2230 C2243 0.960 . S
C2231 H2223 0.929 . S
C2231 C2232 1.377 . S
C2231 C2233 1.384 . S
C2232 C2231 1.377 . S
C2232 C2238 1.390 . S
C2233 H2224 0.930 . S
C2233 C2231 1.384 . S
C2233 C2234 1.372 . S
C2234 C2233 1.372 . S
C2234 C2235 1.400 . S
C2234 C2239 1.490 . S
C2235 H2225 0.930 . S
C2235 C2234 1.400 . S
C2235 C2238 1.386 . S
H2236 C2252 0.930 . S
H2237 C2253 0.931 . S
C2238 H2226 0.929 . S
C2238 C2232 1.390 . S
C2238 C2235 1.386 . S
C2239 C2234 1.490 . S
C2239 C2241 1.395 . S
C2239 C2242 1.403 . S
H2240 C2246 0.930 . S
C2241 H2227 0.930 . S
C2241 C2239 1.395 . S
C2241 C2244 1.403 . S
C2242 C2239 1.403 . S
C2242 C2243 1.524 . S
C2242 C2246 1.400 . S
C2243 H2228 0.960 . S
C2243 H2229 0.960 . S
C2243 H2230 0.960 . S
C2243 C2242 1.524 . S
C2244 C2241 1.403 . S
C2244 C2245 1.392 . S
C2244 C2248 1.495 . S
C2245 C2244 1.392 . S
C2245 C2246 1.385 . S
C2245 C2247 1.478 . S
C2246 H2240 0.930 . S
C2246 C2242 1.400 . S
C2246 C2245 1.385 . S
C2247 C2245 1.478 . S
C2247 C2249 1.381 . S
C2247 C2253 1.383 . S
C2248 C2244 1.495 . S
C2248 H2254 0.959 . S
C2248 H2255 0.961 . S
C2248 H2256 0.960 . S
C2249 C2247 1.381 . S
C2249 C2250 1.394 . S
C2249 H2257 0.930 . S
C2250 C2249 1.394 . S
C2250 C2251 1.383 . S
C2250 H2258 0.929 . S
C2251 C2250 1.383 . S
C2251 C2252 1.377 . S
C2252 H2236 0.930 . S
C2252 C2251 1.377 . S
C2252 C2253 1.379 . S
C2253 H2237 0.931 . S
C2253 C2247 1.383 . S
C2253 C2252 1.379 . S
H2254 C2248 0.959 . S
H2255 C2248 0.961 . S
H2256 C2248 0.960 . S
H2257 C2249 0.930 . S
H2258 C2250 0.929 . S
H2259 C2267 0.929 . S
H2260 C2269 0.930 . S
H2261 C2271 0.930 . S
H2262 C2274 0.929 . S
H2263 C2277 0.930 . S
H2264 C2279 0.960 . S
H2265 C2279 0.960 . S
H2266 C2279 0.960 . S
C2267 H2259 0.929 . S
C2267 C2268 1.377 . S
C2267 C2269 1.384 . S
C2268 C2267 1.377 . S
C2268 C2274 1.390 . S
C2269 H2260 0.930 . S
C2269 C2267 1.384 . S
C2269 C2270 1.372 . S
C2270 C2269 1.372 . S
C2270 C2271 1.400 . S
C2270 C2275 1.490 . S
C2271 H2261 0.930 . S
C2271 C2270 1.400 . S
C2271 C2274 1.386 . S
H2272 C2288 0.930 . S
H2273 C2289 0.931 . S
C2274 H2262 0.929 . S
C2274 C2268 1.390 . S
C2274 C2271 1.386 . S
C2275 C2270 1.490 . S
C2275 C2277 1.395 . S
C2275 C2278 1.403 . S
H2276 C2282 0.930 . S
C2277 H2263 0.930 . S
C2277 C2275 1.395 . S
C2277 C2280 1.403 . S
C2278 C2275 1.403 . S
C2278 C2279 1.524 . S
C2278 C2282 1.400 . S
C2279 H2264 0.960 . S
C2279 H2265 0.960 . S
C2279 H2266 0.960 . S
C2279 C2278 1.524 . S
C2280 C2277 1.403 . S
C2280 C2281 1.392 . S
C2280 C2284 1.495 . S
C2281 C2280 1.392 . S
C2281 C2282 1.385 . S
C2281 C2283 1.478 . S
C2282 H2276 0.930 . S
C2282 C2278 1.400 . S
C2282 C2281 1.385 . S
C2283 C2281 1.478 . S
C2283 C2285 1.381 . S
C2283 C2289 1.383 . S
C2284 C2280 1.495 . S
C2284 H2290 0.959 . S
C2284 H2291 0.961 . S
C2284 H2292 0.960 . S
C2285 C2283 1.381 . S
C2285 C2286 1.394 . S
C2285 H2293 0.930 . S
C2286 C2285 1.394 . S
C2286 C2287 1.383 . S
C2286 H2294 0.929 . S
C2287 C2286 1.383 . S
C2287 C2288 1.377 . S
C2288 H2272 0.930 . S
C2288 C2287 1.377 . S
C2288 C2289 1.379 . S
C2289 H2273 0.931 . S
C2289 C2283 1.383 . S
C2289 C2288 1.379 . S
H2290 C2284 0.959 . S
H2291 C2284 0.961 . S
H2292 C2284 0.960 . S
H2293 C2285 0.930 . S
H2294 C2286 0.929 . S
H2295 C2303 0.929 . S
H2296 C2305 0.930 . S
H2297 C2307 0.930 . S
H2298 C2310 0.929 . S
H2299 C2313 0.930 . S
H2300 C2315 0.960 . S
H2301 C2315 0.960 . S
H2302 C2315 0.960 . S
C2303 H2295 0.929 . S
C2303 C2304 1.377 . S
C2303 C2305 1.384 . S
C2304 C2303 1.377 . S
C2304 C2310 1.390 . S
C2305 H2296 0.930 . S
C2305 C2303 1.384 . S
C2305 C2306 1.372 . S
C2306 C2305 1.372 . S
C2306 C2307 1.400 . S
C2306 C2311 1.490 . S
C2307 H2297 0.930 . S
C2307 C2306 1.400 . S
C2307 C2310 1.386 . S
H2308 C2324 0.930 . S
H2309 C2325 0.931 . S
C2310 H2298 0.929 . S
C2310 C2304 1.390 . S
C2310 C2307 1.386 . S
C2311 C2306 1.490 . S
C2311 C2313 1.395 . S
C2311 C2314 1.403 . S
H2312 C2318 0.930 . S
C2313 H2299 0.930 . S
C2313 C2311 1.395 . S
C2313 C2316 1.403 . S
C2314 C2311 1.403 . S
C2314 C2315 1.524 . S
C2314 C2318 1.400 . S
C2315 H2300 0.960 . S
C2315 H2301 0.960 . S
C2315 H2302 0.960 . S
C2315 C2314 1.524 . S
C2316 C2313 1.403 . S
C2316 C2317 1.392 . S
C2316 C2320 1.495 . S
C2317 C2316 1.392 . S
C2317 C2318 1.385 . S
C2317 C2319 1.478 . S
C2318 H2312 0.930 . S
C2318 C2314 1.400 . S
C2318 C2317 1.385 . S
C2319 C2317 1.478 . S
C2319 C2321 1.381 . S
C2319 C2325 1.383 . S
C2320 C2316 1.495 . S
C2320 H2326 0.959 . S
C2320 H2327 0.961 . S
C2320 H2328 0.960 . S
C2321 C2319 1.381 . S
C2321 C2322 1.394 . S
C2321 H2329 0.930 . S
C2322 C2321 1.394 . S
C2322 C2323 1.383 . S
C2322 H2330 0.929 . S
C2323 C2322 1.383 . S
C2323 C2324 1.377 . S
C2324 H2308 0.930 . S
C2324 C2323 1.377 . S
C2324 C2325 1.379 . S
C2325 H2309 0.931 . S
C2325 C2319 1.383 . S
C2325 C2324 1.379 . S
H2326 C2320 0.959 . S
H2327 C2320 0.961 . S
H2328 C2320 0.960 . S
H2329 C2321 0.930 . S
H2330 C2322 0.929 . S
H2331 C2339 0.929 . S
H2332 C2341 0.930 . S
H2333 C2343 0.930 . S
H2334 C2346 0.929 . S
H2335 C2349 0.930 . S
H2336 C2351 0.960 . S
H2337 C2351 0.960 . S
H2338 C2351 0.960 . S
C2339 H2331 0.929 . S
C2339 C2340 1.377 . S
C2339 C2341 1.384 . S
C2340 C2339 1.377 . S
C2340 C2346 1.390 . S
C2341 H2332 0.930 . S
C2341 C2339 1.384 . S
C2341 C2342 1.372 . S
C2342 C2341 1.372 . S
C2342 C2343 1.400 . S
C2342 C2347 1.490 . S
C2343 H2333 0.930 . S
C2343 C2342 1.400 . S
C2343 C2346 1.386 . S
H2344 C2360 0.930 . S
H2345 C2361 0.931 . S
C2346 H2334 0.929 . S
C2346 C2340 1.390 . S
C2346 C2343 1.386 . S
C2347 C2342 1.490 . S
C2347 C2349 1.395 . S
C2347 C2350 1.403 . S
H2348 C2354 0.930 . S
C2349 H2335 0.930 . S
C2349 C2347 1.395 . S
C2349 C2352 1.403 . S
C2350 C2347 1.403 . S
C2350 C2351 1.524 . S
C2350 C2354 1.400 . S
C2351 H2336 0.960 . S
C2351 H2337 0.960 . S
C2351 H2338 0.960 . S
C2351 C2350 1.524 . S
C2352 C2349 1.403 . S
C2352 C2353 1.392 . S
C2352 C2356 1.495 . S
C2353 C2352 1.392 . S
C2353 C2354 1.385 . S
C2353 C2355 1.478 . S
C2354 H2348 0.930 . S
C2354 C2350 1.400 . S
C2354 C2353 1.385 . S
C2355 C2353 1.478 . S
C2355 C2357 1.381 . S
C2355 C2361 1.383 . S
C2356 C2352 1.495 . S
C2356 H2362 0.959 . S
C2356 H2363 0.961 . S
C2356 H2364 0.960 . S
C2357 C2355 1.381 . S
C2357 C2358 1.394 . S
C2357 H2365 0.930 . S
C2358 C2357 1.394 . S
C2358 C2359 1.383 . S
C2358 H2366 0.929 . S
C2359 C2358 1.383 . S
C2359 C2360 1.377 . S
C2360 H2344 0.930 . S
C2360 C2359 1.377 . S
C2360 C2361 1.379 . S
C2361 H2345 0.931 . S
C2361 C2355 1.383 . S
C2361 C2360 1.379 . S
H2362 C2356 0.959 . S
H2363 C2356 0.961 . S
H2364 C2356 0.960 . S
H2365 C2357 0.930 . S
H2366 C2358 0.929 . S
C432 N170 1.877 . S
C451 C251 1.812 . S
C468 N184 0.902 . S
C487 C272 0.937 . S
C504 N158 1.472 . S
C523 C294 1.228 . S
C540 N145 1.470 . S
C559 C273 1.227 . S
C595 C293 0.833 . S
C576 N119 0.914 1_554 S
C612 N131 1.825 . S
C631 C252 1.607 . S
C667 C247 1.380 . S
C648 N144 1.464 . S
C703 C268 1.208 1_554 S
C684 N118 1.219 . S
C720 N132 1.437 . S
C739 C291 1.238 . S
C756 N171 1.398 . S
C775 C270 1.244 1_554 S
C792 N183 1.187 . S
C811 C289 1.124 . S
C847 C249 1.289 . S
C828 N157 1.475 . S
C883 C314 1.802 . S
C864 N14 1.878 . S
C900 N28 0.913 . S
C919 C335 0.835 . S
C936 N2 1.470 . S
C955 C357 1.331 . S
C972 N223 1.464 . S
C991 C336 1.316 . S
C1008 N197 0.909 . S
C1027 C356 0.883 . S
C1044 N209 1.821 . S
C1063 C315 1.532 . S
C1080 N222 1.465 . S
C1099 C310 1.413 . S
C1116 N196 1.219 . S
C1135 C331 1.204 . S
C1171 C354 1.242 . S
C1152 N210 1.419 . S
C1188 N15 1.397 . S
C1207 C333 1.212 . S
C1243 C352 1.171 . S
C1224 N27 1.187 . S
C1260 N1 1.474 . S
C1279 C312 1.309 . S
C1315 C377 1.798 . S
C1296 N92 1.879 . S
C1332 N106 0.902 . S
C1351 C398 0.936 . S
C1387 C420 1.313 . S
C1368 N80 1.473 . S
C1423 C399 1.224 . S
C1404 N67 1.466 . S
C1459 C419 0.832 . S
C1440 N41 0.914 . S
C1476 N53 1.823 . S
C1495 C378 1.551 . S
C1512 N66 1.463 . S
C1531 C373 1.373 . S
C1548 N40 1.219 . S
C1567 C394 1.207 . S
C1603 C417 1.283 . S
C1584 N54 1.425 . S
C1620 N93 1.397 . S
C1639 C396 1.218 . S
C1656 N105 1.187 . S
C1675 C415 1.166 . S
C1692 N79 1.473 . S
C1711 C375 1.215 . S
C1728 N200 1.148 . S
C1747 C250 1.140 . S
C1783 C271 1.785 . S
C1764 N213 1.801 . S
C1800 N226 1.477 . S
C1819 C290 1.478 . S
C1836 N83 1.540 . S
C1855 C269 1.518 1_655 S
C1872 N96 1.828 . S
C1891 C292 1.786 . S
C1927 C248 1.245 . S
C1908 N109 1.248 . S
C1944 N44 1.141 . S
C1963 C313 1.143 . S
C1980 N57 1.802 . S
C1999 C334 1.791 . S
C2016 N70 1.470 . S
C2035 C353 1.457 . S
C2052 N161 1.536 . S
C2071 C332 1.539 . S
C2107 C355 1.826 . S
C2088 N174 1.835 . S
C2124 N187 1.249 . S
C2143 C311 1.250 . S
C2160 N122 1.148 . S
C2179 C376 1.080 . S
C2196 N135 1.805 . S
C2215 C397 1.794 . S
C2251 C416 1.460 . S
C2232 N148 1.476 . S
C2268 N5 1.537 . S
C2287 C395 1.546 . S
C2304 N18 1.828 . S
C2323 C418 1.788 . S
C2340 N31 1.249 . S
C2359 C374 1.216 . S
