# Generated by pormake.
# Topology bwt, (3,3)-cn, num edge types: 1
# Building blocks:
#     Node 0, Type 0, BuildingBlock: OLANEW_clean_sbu_2, # of connection points: 3
#     Node 1, Type 0, BuildingBlock: OLANEW_clean_sbu_2, # of connection points: 3
#     Node 2, Type 0, BuildingBlock: OLANEW_clean_sbu_2, # of connection points: 3
#     Node 3, Type 0, BuildingBlock: OLANEW_clean_sbu_2, # of connection points: 3
#     Node 4, Type 0, BuildingBlock: OLANEW_clean_sbu_2, # of connection points: 3
#     Node 5, Type 0, BuildingBlock: OLANEW_clean_sbu_2, # of connection points: 3
#     Node 6, Type 0, BuildingBlock: OLANEW_clean_sbu_2, # of connection points: 3
#     Node 7, Type 0, BuildingBlock: OLANEW_clean_sbu_2, # of connection points: 3
#     Node 8, Type 0, BuildingBlock: OLANEW_clean_sbu_2, # of connection points: 3
#     Node 9, Type 0, BuildingBlock: OLANEW_clean_sbu_2, # of connection points: 3
#     Node 10, Type 0, BuildingBlock: OLANEW_clean_sbu_2, # of connection points: 3
#     Node 11, Type 0, BuildingBlock: OLANEW_clean_sbu_2, # of connection points: 3
#     Node 12, Type 0, BuildingBlock: OLANEW_clean_sbu_2, # of connection points: 3
#     Node 13, Type 0, BuildingBlock: OLANEW_clean_sbu_2, # of connection points: 3
#     Node 14, Type 0, BuildingBlock: OLANEW_clean_sbu_2, # of connection points: 3
#     Node 15, Type 0, BuildingBlock: OLANEW_clean_sbu_2, # of connection points: 3
#     Node 16, Type 0, BuildingBlock: OLANEW_clean_sbu_2, # of connection points: 3
#     Node 17, Type 0, BuildingBlock: OLANEW_clean_sbu_2, # of connection points: 3
#     Node 18, Type 0, BuildingBlock: OLANEW_clean_sbu_2, # of connection points: 3
#     Node 19, Type 0, BuildingBlock: OLANEW_clean_sbu_2, # of connection points: 3
#     Node 20, Type 0, BuildingBlock: OLANEW_clean_sbu_2, # of connection points: 3
#     Node 21, Type 0, BuildingBlock: OLANEW_clean_sbu_2, # of connection points: 3
#     Node 22, Type 0, BuildingBlock: OLANEW_clean_sbu_2, # of connection points: 3
#     Node 23, Type 0, BuildingBlock: OLANEW_clean_sbu_2, # of connection points: 3
#     Node 24, Type 1, BuildingBlock: BETDIP_clean_linker_0, # of connection points: 3
#     Node 25, Type 1, BuildingBlock: BETDIP_clean_linker_0, # of connection points: 3
#     Node 26, Type 1, BuildingBlock: BETDIP_clean_linker_0, # of connection points: 3
#     Node 27, Type 1, BuildingBlock: BETDIP_clean_linker_0, # of connection points: 3
#     Node 28, Type 1, BuildingBlock: BETDIP_clean_linker_0, # of connection points: 3
#     Node 29, Type 1, BuildingBlock: BETDIP_clean_linker_0, # of connection points: 3
#     Node 30, Type 1, BuildingBlock: BETDIP_clean_linker_0, # of connection points: 3
#     Node 31, Type 1, BuildingBlock: BETDIP_clean_linker_0, # of connection points: 3
#     Node 32, Type 1, BuildingBlock: BETDIP_clean_linker_0, # of connection points: 3
#     Node 33, Type 1, BuildingBlock: BETDIP_clean_linker_0, # of connection points: 3
#     Node 34, Type 1, BuildingBlock: BETDIP_clean_linker_0, # of connection points: 3
#     Node 35, Type 1, BuildingBlock: BETDIP_clean_linker_0, # of connection points: 3
#     Node 36, Type 1, BuildingBlock: BETDIP_clean_linker_0, # of connection points: 3
#     Node 37, Type 1, BuildingBlock: BETDIP_clean_linker_0, # of connection points: 3
#     Node 38, Type 1, BuildingBlock: BETDIP_clean_linker_0, # of connection points: 3
#     Node 39, Type 1, BuildingBlock: BETDIP_clean_linker_0, # of connection points: 3
#     Node 40, Type 1, BuildingBlock: BETDIP_clean_linker_0, # of connection points: 3
#     Node 41, Type 1, BuildingBlock: BETDIP_clean_linker_0, # of connection points: 3
#     Node 42, Type 1, BuildingBlock: BETDIP_clean_linker_0, # of connection points: 3
#     Node 43, Type 1, BuildingBlock: BETDIP_clean_linker_0, # of connection points: 3
#     Node 44, Type 1, BuildingBlock: BETDIP_clean_linker_0, # of connection points: 3
#     Node 45, Type 1, BuildingBlock: BETDIP_clean_linker_0, # of connection points: 3
#     Node 46, Type 1, BuildingBlock: BETDIP_clean_linker_0, # of connection points: 3
#     Node 47, Type 1, BuildingBlock: BETDIP_clean_linker_0, # of connection points: 3
#     Edge 48, Type (0, 1), BuildingBlock: UVAHIK_clean_linker_0, # of connection points: 2
#     Edge 49, Type (0, 1), BuildingBlock: UVAHIK_clean_linker_0, # of connection points: 2
#     Edge 50, Type (0, 1), BuildingBlock: UVAHIK_clean_linker_0, # of connection points: 2
#     Edge 51, Type (0, 1), BuildingBlock: UVAHIK_clean_linker_0, # of connection points: 2
#     Edge 52, Type (0, 1), BuildingBlock: UVAHIK_clean_linker_0, # of connection points: 2
#     Edge 53, Type (0, 1), BuildingBlock: UVAHIK_clean_linker_0, # of connection points: 2
#     Edge 54, Type (0, 1), BuildingBlock: UVAHIK_clean_linker_0, # of connection points: 2
#     Edge 55, Type (0, 1), BuildingBlock: UVAHIK_clean_linker_0, # of connection points: 2
#     Edge 56, Type (0, 1), BuildingBlock: UVAHIK_clean_linker_0, # of connection points: 2
#     Edge 57, Type (0, 1), BuildingBlock: UVAHIK_clean_linker_0, # of connection points: 2
#     Edge 58, Type (0, 1), BuildingBlock: UVAHIK_clean_linker_0, # of connection points: 2
#     Edge 59, Type (0, 1), BuildingBlock: UVAHIK_clean_linker_0, # of connection points: 2
#     Edge 60, Type (0, 1), BuildingBlock: UVAHIK_clean_linker_0, # of connection points: 2
#     Edge 61, Type (0, 1), BuildingBlock: UVAHIK_clean_linker_0, # of connection points: 2
#     Edge 62, Type (0, 1), BuildingBlock: UVAHIK_clean_linker_0, # of connection points: 2
#     Edge 63, Type (0, 1), BuildingBlock: UVAHIK_clean_linker_0, # of connection points: 2
#     Edge 64, Type (0, 1), BuildingBlock: UVAHIK_clean_linker_0, # of connection points: 2
#     Edge 65, Type (0, 1), BuildingBlock: UVAHIK_clean_linker_0, # of connection points: 2
#     Edge 66, Type (0, 1), BuildingBlock: UVAHIK_clean_linker_0, # of connection points: 2
#     Edge 67, Type (0, 1), BuildingBlock: UVAHIK_clean_linker_0, # of connection points: 2
#     Edge 68, Type (0, 1), BuildingBlock: UVAHIK_clean_linker_0, # of connection points: 2
#     Edge 69, Type (0, 1), BuildingBlock: UVAHIK_clean_linker_0, # of connection points: 2
#     Edge 70, Type (0, 1), BuildingBlock: UVAHIK_clean_linker_0, # of connection points: 2
#     Edge 71, Type (0, 1), BuildingBlock: UVAHIK_clean_linker_0, # of connection points: 2
#     Edge 72, Type (0, 1), BuildingBlock: UVAHIK_clean_linker_0, # of connection points: 2
#     Edge 73, Type (0, 1), BuildingBlock: UVAHIK_clean_linker_0, # of connection points: 2
#     Edge 74, Type (0, 1), BuildingBlock: UVAHIK_clean_linker_0, # of connection points: 2
#     Edge 75, Type (0, 1), BuildingBlock: UVAHIK_clean_linker_0, # of connection points: 2
#     Edge 76, Type (0, 1), BuildingBlock: UVAHIK_clean_linker_0, # of connection points: 2
#     Edge 77, Type (0, 1), BuildingBlock: UVAHIK_clean_linker_0, # of connection points: 2
#     Edge 78, Type (0, 1), BuildingBlock: UVAHIK_clean_linker_0, # of connection points: 2
#     Edge 79, Type (0, 1), BuildingBlock: UVAHIK_clean_linker_0, # of connection points: 2
#     Edge 80, Type (0, 1), BuildingBlock: UVAHIK_clean_linker_0, # of connection points: 2
#     Edge 81, Type (0, 1), BuildingBlock: UVAHIK_clean_linker_0, # of connection points: 2
#     Edge 82, Type (0, 1), BuildingBlock: UVAHIK_clean_linker_0, # of connection points: 2
#     Edge 83, Type (0, 1), BuildingBlock: UVAHIK_clean_linker_0, # of connection points: 2
#     Edge 84, Type (0, 1), BuildingBlock: UVAHIK_clean_linker_0, # of connection points: 2
#     Edge 85, Type (0, 1), BuildingBlock: UVAHIK_clean_linker_0, # of connection points: 2
#     Edge 86, Type (0, 1), BuildingBlock: UVAHIK_clean_linker_0, # of connection points: 2
#     Edge 87, Type (0, 1), BuildingBlock: UVAHIK_clean_linker_0, # of connection points: 2
#     Edge 88, Type (0, 1), BuildingBlock: UVAHIK_clean_linker_0, # of connection points: 2
#     Edge 89, Type (0, 1), BuildingBlock: UVAHIK_clean_linker_0, # of connection points: 2
#     Edge 90, Type (0, 1), BuildingBlock: UVAHIK_clean_linker_0, # of connection points: 2
#     Edge 91, Type (0, 1), BuildingBlock: UVAHIK_clean_linker_0, # of connection points: 2
#     Edge 92, Type (0, 1), BuildingBlock: UVAHIK_clean_linker_0, # of connection points: 2
#     Edge 93, Type (0, 1), BuildingBlock: UVAHIK_clean_linker_0, # of connection points: 2
#     Edge 94, Type (0, 1), BuildingBlock: UVAHIK_clean_linker_0, # of connection points: 2
#     Edge 95, Type (0, 1), BuildingBlock: UVAHIK_clean_linker_0, # of connection points: 2
#     Edge 96, Type (0, 1), BuildingBlock: UVAHIK_clean_linker_0, # of connection points: 2
#     Edge 97, Type (0, 1), BuildingBlock: UVAHIK_clean_linker_0, # of connection points: 2
#     Edge 98, Type (0, 1), BuildingBlock: UVAHIK_clean_linker_0, # of connection points: 2
#     Edge 99, Type (0, 1), BuildingBlock: UVAHIK_clean_linker_0, # of connection points: 2
#     Edge 100, Type (0, 1), BuildingBlock: UVAHIK_clean_linker_0, # of connection points: 2
#     Edge 101, Type (0, 1), BuildingBlock: UVAHIK_clean_linker_0, # of connection points: 2
#     Edge 102, Type (0, 1), BuildingBlock: UVAHIK_clean_linker_0, # of connection points: 2
#     Edge 103, Type (0, 1), BuildingBlock: UVAHIK_clean_linker_0, # of connection points: 2
#     Edge 104, Type (0, 1), BuildingBlock: UVAHIK_clean_linker_0, # of connection points: 2
#     Edge 105, Type (0, 1), BuildingBlock: UVAHIK_clean_linker_0, # of connection points: 2
#     Edge 106, Type (0, 1), BuildingBlock: UVAHIK_clean_linker_0, # of connection points: 2
#     Edge 107, Type (0, 1), BuildingBlock: UVAHIK_clean_linker_0, # of connection points: 2
#     Edge 108, Type (0, 1), BuildingBlock: UVAHIK_clean_linker_0, # of connection points: 2
#     Edge 109, Type (0, 1), BuildingBlock: UVAHIK_clean_linker_0, # of connection points: 2
#     Edge 110, Type (0, 1), BuildingBlock: UVAHIK_clean_linker_0, # of connection points: 2
#     Edge 111, Type (0, 1), BuildingBlock: UVAHIK_clean_linker_0, # of connection points: 2
#     Edge 112, Type (0, 1), BuildingBlock: UVAHIK_clean_linker_0, # of connection points: 2
#     Edge 113, Type (0, 1), BuildingBlock: UVAHIK_clean_linker_0, # of connection points: 2
#     Edge 114, Type (0, 1), BuildingBlock: UVAHIK_clean_linker_0, # of connection points: 2
#     Edge 115, Type (0, 1), BuildingBlock: UVAHIK_clean_linker_0, # of connection points: 2
#     Edge 116, Type (0, 1), BuildingBlock: UVAHIK_clean_linker_0, # of connection points: 2
#     Edge 117, Type (0, 1), BuildingBlock: UVAHIK_clean_linker_0, # of connection points: 2
#     Edge 118, Type (0, 1), BuildingBlock: UVAHIK_clean_linker_0, # of connection points: 2
#     Edge 119, Type (0, 1), BuildingBlock: UVAHIK_clean_linker_0, # of connection points: 2
# Relax obj value: 0.068
# Max RMSD: 0.117
# Mean RMSD: 0.062
data_MOF--net-bwt--node1-OLANEW_clean_sbu_2--node2-BETDIP_clean_linker_0--edge1-UVAHIK_clean_linker_0
_symmetry_space_group_name_H-M    P1
_symmetry_Int_Tables_number       1
_symmetry_cell_setting            triclinic
loop_
_symmetry_equiv_pos_as_xyz
'x, y, z'
_cell_length_a     76.613324
_cell_length_b     76.61975
_cell_length_c     76.625091
_cell_angle_alpha  94.873545
_cell_angle_beta   94.872689
_cell_angle_gamma 94.877263
loop_
_atom_site_label
_atom_site_type_symbol
_atom_site_fract_x
_atom_site_fract_y
_atom_site_fract_z
_atom_type_partial_charge
O0 O 0.26826 0.63393 0.3637 0.0
Cd1 Cd 0.25563 0.64926 0.33959 0.0
O2 O 0.29478 0.63847 0.35519 0.0
Cd3 Cd 0.32273 0.63431 0.35612 0.0
O4 O 0.34921 0.62624 0.35421 0.0
C5 C 0.35506 0.61547 0.36449 0.0
O6 O 0.34512 0.60976 0.37636 0.0
C7 C 0.28463 0.63213 0.36583 0.0
C8 C 0.21997 0.63818 0.33155 0.0
O9 O 0.23187 0.63019 0.32423 0.0
O10 O 0.22492 0.65156 0.3426 0.0
O11 O 0.27874 0.35173 0.75868 0.0
Cd12 Cd 0.28386 0.32894 0.73582 0.0
O13 O 0.25045 0.34858 0.75037 0.0
Cd14 Cd 0.22368 0.35643 0.75076 0.0
O15 O 0.19804 0.36691 0.75008 0.0
C16 C 0.19702 0.3827 0.74649 0.0
O17 O 0.21142 0.39212 0.74347 0.0
C18 C 0.26335 0.35617 0.76056 0.0
C19 C 0.31178 0.34038 0.71726 0.0
O20 O 0.29591 0.34296 0.71217 0.0
O21 O 0.31441 0.33218 0.73101 0.0
O22 O 0.66125 0.93835 0.64863 0.0
Cd23 Cd 0.65932 0.93423 0.67969 0.0
O24 O 0.68866 0.94913 0.65505 0.0
Cd25 Cd 0.71396 0.96261 0.65039 0.0
O26 O 0.74014 0.97678 0.65226 0.0
C27 C 0.75315 0.96947 0.64669 0.0
O28 O 0.75062 0.95326 0.63921 0.0
C29 C 0.67552 0.94514 0.6437 0.0
C30 C 0.63354 0.95405 0.69251 0.0
O31 O 0.64932 0.96089 0.69192 0.0
O32 O 0.62999 0.93769 0.68731 0.0
O33 O 0.8132 0.03241 0.25888 0.0
Cd34 Cd 0.83156 0.04817 0.2839 0.0
O35 O 0.78927 0.03288 0.2727 0.0
Cd36 Cd 0.76129 0.02592 0.27489 0.0
O37 O 0.73332 0.01798 0.27558 0.0
C38 C 0.72597 0.00494 0.26545 0.0
O39 O 0.73542 0.99645 0.25463 0.0
C40 C 0.79672 0.02873 0.25891 0.0
C41 C 0.86353 0.03365 0.2891 0.0
O42 O 0.85075 0.0295 0.29817 0.0
O43 O 0.86123 0.04473 0.27769 0.0
O44 O 0.38371 0.26999 0.63143 0.0
Cd45 Cd 0.36128 0.25757 0.64893 0.0
O46 O 0.37341 0.29582 0.63456 0.0
Cd47 Cd 0.37223 0.3233 0.62906 0.0
O48 O 0.37089 0.35003 0.62142 0.0
C49 C 0.37985 0.35511 0.60926 0.0
O50 O 0.38982 0.34416 0.60169 0.0
C51 C 0.3846 0.28612 0.62853 0.0
C52 C 0.35005 0.22258 0.6373 0.0
O53 O 0.34223 0.23525 0.63127 0.0
O54 O 0.36322 0.22645 0.64886 0.0
O55 O 0.2622 0.79878 0.02782 0.0
Cd56 Cd 0.29158 0.81346 0.03666 0.0
O57 O 0.27317 0.77411 0.0199 0.0
Cd58 Cd 0.27151 0.74597 0.01125 0.0
O59 O 0.26872 0.71794 0.0023 0.0
C60 C 0.2616 0.71265 0.98696 0.0
O61 O 0.25601 0.72426 0.97665 0.0
C62 C 0.25986 0.78279 0.0215 0.0
C63 C 0.29535 0.84631 0.02358 0.0
O64 O 0.29962 0.83252 0.01488 0.0
O65 O 0.28942 0.84458 0.03854 0.0
O66 O 0.75064 0.23138 0.39214 0.0
Cd67 Cd 0.72069 0.22327 0.3784 0.0
O68 O 0.76359 0.21819 0.37085 0.0
Cd69 Cd 0.73874 0.20376 0.36005 0.0
O70 O 0.72119 0.18052 0.3632 0.0
C71 C 0.72213 0.17593 0.37878 0.0
O72 O 0.73247 0.18576 0.39103 0.0
C73 C 0.76463 0.22796 0.38524 0.0
C74 C 0.70171 0.25265 0.38206 0.0
O75 O 0.70172 0.24136 0.39348 0.0
O76 O 0.71032 0.24979 0.36863 0.0
O77 O 0.63553 0.66667 0.92939 0.0
Cd78 Cd 0.66557 0.66326 0.92223 0.0
O79 O 0.64268 0.69489 0.93599 0.0
Cd80 Cd 0.63924 0.72162 0.94677 0.0
O81 O 0.64238 0.74893 0.95821 0.0
C82 C 0.63573 0.75354 0.97234 0.0
O83 O 0.62635 0.74168 0.9799 0.0
C84 C 0.63125 0.68169 0.93487 0.0
C85 C 0.67916 0.63707 0.94096 0.0
O86 O 0.67983 0.65299 0.94782 0.0
O87 O 0.67231 0.63355 0.92507 0.0
O88 O 0.65806 0.39022 0.25146 0.0
Cd89 Cd 0.6742 0.36835 0.2362 0.0
O90 O 0.65988 0.37524 0.27456 0.0
Cd91 Cd 0.65342 0.36958 0.30086 0.0
O92 O 0.64516 0.36359 0.32639 0.0
C93 C 0.63268 0.3712 0.33272 0.0
O94 O 0.62503 0.38278 0.32376 0.0
C95 C 0.65476 0.38841 0.26721 0.0
C96 C 0.65463 0.3525 0.20581 0.0
O97 O 0.65312 0.34639 0.22072 0.0
O98 O 0.6655 0.36608 0.20526 0.0
O99 O 0.03837 0.25524 0.80727 0.0
Cd100 Cd 0.04951 0.2828 0.8245 0.0
O101 O 0.03751 0.26861 0.78305 0.0
Cd102 Cd 0.03022 0.26942 0.75496 0.0
O103 O 0.02091 0.26891 0.72721 0.0
C104 C 0.00732 0.25891 0.721 0.0
O105 O 0.9992 0.24893 0.7315 0.0
C106 C 0.03502 0.25463 0.7907 0.0
C107 C 0.03334 0.28615 0.85568 0.0
O108 O 0.02684 0.29226 0.84173 0.0
O109 O 0.04761 0.27863 0.85491 0.0
O110 O 0.37886 0.76559 0.24273 0.0
Cd111 Cd 0.36056 0.73788 0.23434 0.0
O112 O 0.36438 0.77997 0.22345 0.0
Cd113 Cd 0.3513 0.75611 0.20877 0.0
O114 O 0.3499 0.73918 0.18419 0.0
C115 C 0.36301 0.73056 0.18138 0.0
O116 O 0.37593 0.73109 0.19391 0.0
C117 C 0.37608 0.77995 0.23624 0.0
C118 C 0.36474 0.71539 0.26088 0.0
O119 O 0.37397 0.71463 0.24768 0.0
O120 O 0.35326 0.72661 0.26138 0.0
O121 O 0.9233 0.64825 0.6638 0.0
Cd122 Cd 0.9105 0.67369 0.65266 0.0
O123 O 0.93029 0.66225 0.68999 0.0
Cd124 Cd 0.94369 0.66487 0.71657 0.0
O125 O 0.95891 0.66924 0.74223 0.0
C126 C 0.9543 0.66124 0.7552 0.0
O127 O 0.94012 0.65007 0.75305 0.0
C128 C 0.9302 0.64846 0.6795 0.0
C129 C 0.93048 0.68633 0.62689 0.0
O130 O 0.93358 0.69255 0.64303 0.0
O131 O 0.91771 0.67433 0.62291 0.0
O132 O 0.74375 0.36178 0.65739 0.0
Cd133 Cd 0.75714 0.35129 0.68419 0.0
O134 O 0.73056 0.38113 0.6731 0.0
Cd135 Cd 0.71057 0.39979 0.67435 0.0
O136 O 0.68609 0.41185 0.66934 0.0
C137 C 0.67523 0.40466 0.6568 0.0
O138 O 0.67939 0.39068 0.64745 0.0
C139 C 0.73364 0.37408 0.65818 0.0
C140 C 0.7922 0.36462 0.69218 0.0
O141 O 0.78811 0.35032 0.6822 0.0
O142 O 0.77969 0.37264 0.69831 0.0
O143 O 0.74959 0.66489 0.22859 0.0
Cd144 Cd 0.74508 0.68789 0.25148 0.0
O145 O 0.76643 0.65286 0.24789 0.0
Cd146 Cd 0.78555 0.63432 0.25451 0.0
O147 O 0.80944 0.62114 0.25902 0.0
C148 C 0.81259 0.60793 0.24899 0.0
O149 O 0.8009 0.6017 0.23591 0.0
C150 C 0.75917 0.65273 0.23233 0.0
C151 C 0.72073 0.67553 0.27365 0.0
O152 O 0.71581 0.68302 0.25997 0.0
O153 O 0.7372 0.67405 0.27693 0.0
O154 O 0.31191 0.10133 0.34227 0.0
Cd155 Cd 0.32367 0.11041 0.31548 0.0
O156 O 0.29837 0.07709 0.32823 0.0
Cd157 Cd 0.28004 0.05346 0.32734 0.0
O158 O 0.25777 0.03397 0.32862 0.0
C159 C 0.24426 0.03923 0.33522 0.0
O160 O 0.24446 0.05588 0.34109 0.0
C161 C 0.30242 0.08693 0.34246 0.0
C162 C 0.35345 0.09318 0.30927 0.0
O163 O 0.35466 0.10771 0.31908 0.0
O164 O 0.33818 0.08693 0.30222 0.0
O165 O 0.19703 0.95696 0.72859 0.0
Cd166 Cd 0.18043 0.94851 0.70003 0.0
O167 O 0.20951 0.98055 0.71866 0.0
Cd168 Cd 0.22981 0.00274 0.72189 0.0
O169 O 0.25507 0.0185 0.72757 0.0
C170 C 0.26694 0.01215 0.73707 0.0
O171 O 0.26325 0.99689 0.74319 0.0
C172 C 0.20752 0.97089 0.73116 0.0
C173 C 0.14798 0.9625 0.69798 0.0
O174 O 0.14968 0.94754 0.70393 0.0
O175 O 0.16163 0.9708 0.69295 0.0
O176 O 0.63628 0.71746 0.35773 0.0
Cd177 Cd 0.66172 0.72961 0.34396 0.0
O178 O 0.65153 0.69706 0.36812 0.0
Cd179 Cd 0.65623 0.67497 0.38375 0.0
O180 O 0.65645 0.65135 0.39783 0.0
C181 C 0.64714 0.6374 0.39139 0.0
O182 O 0.63775 0.63746 0.37623 0.0
C183 C 0.63708 0.70412 0.36645 0.0
C184 C 0.66991 0.76528 0.35481 0.0
O185 O 0.65894 0.76024 0.34139 0.0
O186 O 0.67707 0.75344 0.36302 0.0
O187 O 0.72512 0.20044 0.97791 0.0
Cd188 Cd 0.69513 0.18643 0.97136 0.0
O189 O 0.71703 0.21678 0.00022 0.0
Cd190 Cd 0.72214 0.23902 0.02045 0.0
O191 O 0.72661 0.26507 0.03495 0.0
C192 C 0.71729 0.27687 0.02964 0.0
O193 O 0.70544 0.27269 0.01617 0.0
C194 C 0.72898 0.21217 0.99072 0.0
C195 C 0.69135 0.15371 0.9847 0.0
O196 O 0.69603 0.15512 0.96918 0.0
O197 O 0.6884 0.16777 0.99386 0.0
O198 O 0.23282 0.75367 0.6549 0.0
Cd199 Cd 0.25598 0.75142 0.67837 0.0
O200 O 0.25061 0.77313 0.64421 0.0
Cd201 Cd 0.25637 0.79329 0.62646 0.0
O202 O 0.26031 0.81749 0.61366 0.0
C203 C 0.2499 0.82073 0.60077 0.0
O204 O 0.23682 0.80898 0.59472 0.0
C205 C 0.23588 0.76392 0.64311 0.0
C206 C 0.27618 0.72439 0.66825 0.0
O207 O 0.26312 0.72154 0.67735 0.0
O208 O 0.27989 0.74011 0.66427 0.0
O209 O 0.328 0.31391 0.08592 0.0
Cd210 Cd 0.29865 0.32032 0.09323 0.0
O211 O 0.31711 0.29153 0.06734 0.0
Cd212 Cd 0.31759 0.26982 0.04685 0.0
O213 O 0.31682 0.24592 0.02893 0.0
C214 C 0.33073 0.23836 0.02679 0.0
O215 O 0.34569 0.24531 0.03521 0.0
C216 C 0.33041 0.30127 0.0748 0.0
C217 C 0.28577 0.34497 0.07195 0.0
O218 O 0.29525 0.34984 0.08642 0.0
O219 O 0.28222 0.32844 0.06766 0.0
O220 O 0.35543 0.63303 0.72443 0.0
Cd221 Cd 0.33718 0.6554 0.73561 0.0
O222 O 0.34987 0.63989 0.69738 0.0
Cd223 Cd 0.35489 0.63772 0.6696 0.0
O224 O 0.36507 0.63591 0.64379 0.0
C225 C 0.36528 0.62125 0.63474 0.0
O226 O 0.35884 0.6068 0.64087 0.0
C227 C 0.35739 0.63051 0.70813 0.0
C228 C 0.34506 0.66405 0.77172 0.0
O229 O 0.33325 0.6516 0.76584 0.0
O230 O 0.35305 0.67246 0.76052 0.0
O231 O 0.96418 0.73354 0.198 0.0
Cd232 Cd 0.95452 0.70463 0.18263 0.0
O233 O 0.98477 0.72236 0.2141 0.0
Cd234 Cd 0.00487 0.72478 0.23646 0.0
O235 O 0.02019 0.72836 0.2621 0.0
C236 C 0.02002 0.74262 0.27184 0.0
O237 O 0.01097 0.75509 0.26601 0.0
C238 C 0.97698 0.73561 0.20989 0.0
C239 C 0.96689 0.70156 0.14942 0.0
O240 O 0.95217 0.7078 0.15171 0.0
O241 O 0.97569 0.69664 0.16283 0.0
O242 O 0.63988 0.24715 0.74416 0.0
Cd243 Cd 0.66596 0.26728 0.74185 0.0
O244 O 0.64062 0.25536 0.77236 0.0
Cd245 Cd 0.62908 0.25572 0.79748 0.0
O246 O 0.6152 0.25629 0.82117 0.0
C247 C 0.6125 0.24249 0.82903 0.0
O248 O 0.61829 0.22779 0.82275 0.0
C249 C 0.63338 0.24598 0.75877 0.0
C250 C 0.66164 0.28407 0.71112 0.0
O251 O 0.66896 0.26964 0.71126 0.0
O252 O 0.65668 0.29071 0.72561 0.0
O253 O 0.09586 0.34947 0.32083 0.0
Cd254 Cd 0.10685 0.32155 0.32736 0.0
O255 O 0.07739 0.33673 0.29915 0.0
Cd256 Cd 0.05591 0.33524 0.27818 0.0
O257 O 0.03938 0.33376 0.25336 0.0
C258 C 0.04722 0.33548 0.23956 0.0
O259 O 0.06448 0.33817 0.24107 0.0
C260 C 0.08376 0.3506 0.30868 0.0
C261 C 0.08985 0.30959 0.35537 0.0
O262 O 0.10403 0.31997 0.35806 0.0
O263 O 0.08398 0.30451 0.33942 0.0
H264 H 0.34824 0.56658 0.58242 0.0
H265 H 0.34526 0.5479 0.52766 0.0
H266 H 0.32975 0.59915 0.54307 0.0
H267 H 0.36504 0.52951 0.53753 0.0
C268 C 0.36091 0.5266 0.55026 0.0
C269 C 0.34515 0.56873 0.56874 0.0
C270 C 0.33863 0.58451 0.56435 0.0
C271 C 0.34794 0.55563 0.55567 0.0
C272 C 0.34394 0.55824 0.53785 0.0
C273 C 0.33726 0.57393 0.53318 0.0
C274 C 0.33484 0.58701 0.54654 0.0
N275 N 0.35375 0.53964 0.5611 0.0
H276 H 0.24876 0.49181 0.96217 0.0
H277 H 0.24769 0.49718 0.90664 0.0
H278 H 0.24697 0.44596 0.92527 0.0
H279 H 0.23948 0.52377 0.9139 0.0
C280 C 0.24483 0.52787 0.92733 0.0
C281 C 0.24825 0.48584 0.94878 0.0
C282 C 0.24772 0.46748 0.94547 0.0
C283 C 0.24792 0.49669 0.93495 0.0
C284 C 0.24742 0.48906 0.9175 0.0
C285 C 0.24673 0.47071 0.91397 0.0
C286 C 0.24684 0.46006 0.92799 0.0
N287 N 0.24863 0.51517 0.93926 0.0
H288 H 0.68343 0.95924 0.40751 0.0
H289 H 0.67639 0.98759 0.4569 0.0
H290 H 0.68461 0.9327 0.45481 0.0
H291 H 0.6595 0.00314 0.43773 0.0
C292 C 0.66886 0.00483 0.42798 0.0
C293 C 0.68252 0.9594 0.42156 0.0
C294 C 0.68425 0.94398 0.42999 0.0
C295 C 0.67949 0.9751 0.43111 0.0
C296 C 0.67852 0.97546 0.4494 0.0
C297 C 0.68035 0.96019 0.45809 0.0
C298 C 0.68325 0.94455 0.44825 0.0
N299 N 0.67809 0.99045 0.42211 0.0
H300 H 0.68104 0.9711 0.04193 0.0
H301 H 0.70274 0.94897 0.08786 0.0
H302 H 0.70595 0.00498 0.08632 0.0
H303 H 0.70401 0.92547 0.06909 0.0
C304 C 0.69269 0.92515 0.05949 0.0
C305 C 0.68789 0.97287 0.05502 0.0
C306 C 0.69302 0.98989 0.0631 0.0
C307 C 0.6915 0.95801 0.06369 0.0
C308 C 0.70011 0.96026 0.08083 0.0
C309 C 0.70549 0.97719 0.08903 0.0
C310 C 0.70183 0.99189 0.08007 0.0
N311 N 0.68604 0.94108 0.05488 0.0
H312 H 0.58967 0.3356 0.53676 0.0
H313 H 0.53418 0.33442 0.52139 0.0
H314 H 0.55271 0.33325 0.5758 0.0
H315 H 0.58896 0.32143 0.50903 0.0
C316 C 0.58049 0.32943 0.50164 0.0
C317 C 0.5762 0.3349 0.54013 0.0
C318 C 0.5729 0.33445 0.55784 0.0
C319 C 0.56225 0.33478 0.5269 0.0
C320 C 0.54493 0.33451 0.53156 0.0
C321 C 0.54143 0.33415 0.54923 0.0
C322 C 0.55547 0.3342 0.56225 0.0
N323 N 0.5653 0.33528 0.5089 0.0
H324 H 0.02992 0.69621 0.9699 0.0
H325 H 0.08012 0.70727 0.94995 0.0
H326 H 0.07579 0.71325 0.00558 0.0
H327 H 0.06371 0.71185 0.92564 0.0
C328 C 0.0519 0.70283 0.92497 0.0
C329 C 0.0439 0.7002 0.97225 0.0
C330 C 0.05166 0.70453 0.98951 0.0
C331 C 0.05389 0.70161 0.95786 0.0
C332 C 0.07205 0.70683 0.96085 0.0
C333 C 0.08006 0.71099 0.97805 0.0
C334 C 0.06974 0.70989 0.99228 0.0
N335 N 0.04524 0.69751 0.94065 0.0
H336 H 0.98248 0.27428 0.50505 0.0
H337 H 0.92686 0.26187 0.50688 0.0
H338 H 0.94741 0.27232 0.45795 0.0
H339 H 0.93487 0.25151 0.53238 0.0
C340 C 0.94718 0.25884 0.53773 0.0
C341 C 0.9693 0.27209 0.49841 0.0
C342 C 0.96662 0.27375 0.48032 0.0
C343 C 0.95514 0.26774 0.50811 0.0
C344 C 0.93797 0.26509 0.49957 0.0
C345 C 0.93508 0.26656 0.48139 0.0
C346 C 0.94949 0.27103 0.47194 0.0
N347 N 0.95877 0.26661 0.52645 0.0
H348 H 0.39854 0.69113 0.96664 0.0
H349 H 0.45033 0.68979 0.99278 0.0
H350 H 0.44325 0.69095 0.93659 0.0
H351 H 0.39076 0.69851 0.99293 0.0
C352 C 0.40024 0.69468 0.00289 0.0
C353 C 0.4126 0.69114 0.96625 0.0
C354 C 0.4196 0.69121 0.94989 0.0
C355 C 0.42377 0.691 0.98183 0.0
C356 C 0.44189 0.6904 0.9808 0.0
C357 C 0.44909 0.69031 0.96454 0.0
C358 C 0.43783 0.69094 0.94921 0.0
N359 N 0.4174 0.69108 0.99875 0.0
H360 H 0.56627 0.58632 0.34501 0.0
H361 H 0.55079 0.53072 0.34067 0.0
H362 H 0.60487 0.54925 0.33807 0.0
H363 H 0.52868 0.5403 0.3572 0.0
C364 C 0.52549 0.55197 0.35092 0.0
C365 C 0.56978 0.5729 0.34363 0.0
C366 C 0.58731 0.56956 0.34185 0.0
C367 C 0.55662 0.55905 0.3437 0.0
C368 C 0.56094 0.54156 0.34145 0.0
C369 C 0.57841 0.53802 0.33968 0.0
C370 C 0.59152 0.55204 0.34013 0.0
N371 N 0.53906 0.56323 0.34508 0.0
H372 H 0.9709 0.03172 0.69104 0.0
H373 H 0.95289 0.08267 0.70331 0.0
H374 H 0.00794 0.07602 0.71018 0.0
H375 H 0.92722 0.06786 0.70434 0.0
C376 C 0.92665 0.05584 0.69566 0.0
C377 C 0.97372 0.04556 0.69552 0.0
C378 C 0.99115 0.05255 0.7005 0.0
C379 C 0.95974 0.05613 0.6968 0.0
C380 C 0.96335 0.07409 0.70275 0.0
C381 C 0.98073 0.08131 0.70755 0.0
C382 C 0.99452 0.07047 0.70639 0.0
N383 N 0.94234 0.04826 0.69176 0.0
H384 H 0.51014 0.98946 0.28807 0.0
H385 H 0.51006 0.93371 0.27462 0.0
H386 H 0.46183 0.95593 0.28441 0.0
H387 H 0.53546 0.94135 0.26378 0.0
C388 C 0.54139 0.95326 0.27145 0.0
C389 C 0.50307 0.9765 0.28556 0.0
C390 C 0.48488 0.9744 0.28685 0.0
C391 C 0.5123 0.962 0.28104 0.0
C392 C 0.50316 0.9451 0.27792 0.0
C393 C 0.48488 0.94286 0.27894 0.0
C394 C 0.47592 0.95756 0.28355 0.0
N395 N 0.53073 0.96502 0.27998 0.0
H396 H 0.98397 0.43096 0.72641 0.0
H397 H 0.00907 0.48305 0.7239 0.0
H398 H 0.95289 0.47483 0.72131 0.0
H399 H 0.0315 0.4691 0.71598 0.0
C400 C 0.03116 0.45692 0.72224 0.0
C401 C 0.98303 0.44486 0.72529 0.0
C402 C 0.96648 0.45153 0.72411 0.0
C403 C 0.99849 0.45598 0.72496 0.0
C404 C 0.99734 0.47409 0.72369 0.0
C405 C 0.98091 0.48094 0.72255 0.0
C406 C 0.9656 0.46961 0.72281 0.0
N407 N 0.01489 0.44853 0.72626 0.0
H408 H 0.65344 0.43249 0.44301 0.0
H409 H 0.65628 0.45059 0.49805 0.0
H410 H 0.66956 0.39861 0.48197 0.0
H411 H 0.66181 0.47705 0.48798 0.0
C412 C 0.65462 0.47658 0.47509 0.0
C413 C 0.65601 0.43012 0.4567 0.0
C414 C 0.66152 0.41393 0.46103 0.0
C415 C 0.65474 0.44365 0.4699 0.0
C416 C 0.65801 0.44053 0.48772 0.0
C417 C 0.6631 0.42416 0.49224 0.0
C418 C 0.66509 0.4111 0.47874 0.0
N419 N 0.65044 0.46026 0.4647 0.0
H420 H 0.73393 0.49091 0.04712 0.0
H421 H 0.75578 0.49507 0.10113 0.0
H422 H 0.7494 0.54171 0.07455 0.0
H423 H 0.76013 0.46653 0.09514 0.0
C424 C 0.75013 0.46109 0.08476 0.0
C425 C 0.73958 0.49894 0.05891 0.0
C426 C 0.74155 0.51727 0.059 0.0
C427 C 0.745 0.49076 0.07386 0.0
C428 C 0.75202 0.50117 0.08934 0.0
C429 C 0.75384 0.51966 0.08969 0.0
C430 C 0.7487 0.5275 0.07436 0.0
N431 N 0.74243 0.47211 0.07284 0.0
H432 H 0.28893 0.03523 0.56716 0.0
H433 H 0.27187 0.01567 0.51357 0.0
H434 H 0.2931 0.06942 0.52575 0.0
H435 H 0.25588 0.9952 0.52626 0.0
C436 C 0.2642 0.99284 0.53786 0.0
C437 C 0.28688 0.03746 0.55339 0.0
C438 C 0.29181 0.05405 0.54792 0.0
C439 C 0.27953 0.02357 0.54117 0.0
C440 C 0.2772 0.02633 0.5232 0.0
C441 C 0.28193 0.04291 0.51754 0.0
C442 C 0.28925 0.05664 0.53001 0.0
N443 N 0.27538 0.00687 0.54734 0.0
H444 H 0.30943 0.02422 0.95572 0.0
H445 H 0.29848 0.04227 0.90466 0.0
H446 H 0.28682 0.98778 0.91236 0.0
H447 H 0.31473 0.06638 0.91555 0.0
C448 C 0.31411 0.06763 0.92968 0.0
C449 C 0.30475 0.02145 0.94193 0.0
C450 C 0.2983 0.00427 0.93527 0.0
C451 C 0.30489 0.03525 0.93107 0.0
C452 C 0.29853 0.03177 0.9132 0.0
C453 C 0.29207 0.01461 0.90625 0.0
C454 C 0.29194 0.00101 0.91746 0.0
N455 N 0.31081 0.05249 0.93886 0.0
H456 H 0.42003 0.64074 0.43084 0.0
H457 H 0.47415 0.64452 0.45231 0.0
H458 H 0.46129 0.65427 0.39849 0.0
H459 H 0.41963 0.61858 0.45177 0.0
C460 C 0.42636 0.62714 0.46278 0.0
C461 C 0.43392 0.64304 0.4292 0.0
C462 C 0.43922 0.64717 0.41284 0.0
C463 C 0.44658 0.64207 0.44346 0.0
C464 C 0.46452 0.64543 0.4413 0.0
C465 C 0.47003 0.64931 0.42491 0.0
C466 C 0.45723 0.65042 0.41093 0.0
N467 N 0.4416 0.63819 0.46023 0.0
H468 H 0.96003 0.29959 0.02813 0.0
H469 H 0.91104 0.28992 0.05068 0.0
H470 H 0.91401 0.27859 0.99497 0.0
H471 H 0.9722 0.29971 0.0545 0.0
C472 C 0.96286 0.30244 0.064 0.0
C473 C 0.94621 0.29503 0.02679 0.0
C474 C 0.93812 0.2892 0.00995 0.0
C475 C 0.93655 0.29484 0.04161 0.0
C476 C 0.91849 0.28947 0.03928 0.0
C477 C 0.91009 0.28362 0.02248 0.0
C478 C 0.92015 0.28333 0.00795 0.0
N479 N 0.94444 0.29997 0.05901 0.0
H480 H 0.04439 0.7386 0.48717 0.0
H481 H 0.09984 0.7541 0.48752 0.0
H482 H 0.07898 0.73751 0.53423 0.0
H483 H 0.09319 0.76198 0.4609 0.0
C484 C 0.0803 0.75589 0.45568 0.0
C485 C 0.05742 0.74082 0.49414 0.0
C486 C 0.05991 0.73735 0.51182 0.0
C487 C 0.07161 0.7468 0.48515 0.0
C488 C 0.0886 0.74961 0.49412 0.0
C489 C 0.09125 0.74609 0.51179 0.0
C490 C 0.07692 0.73988 0.52049 0.0
N491 N 0.06815 0.74909 0.467 0.0
H492 H 0.55915 0.27659 0.03478 0.0
H493 H 0.50519 0.27071 0.0125 0.0
H494 H 0.51782 0.29027 0.06658 0.0
H495 H 0.51486 0.25655 0.98985 0.0
C496 C 0.52893 0.25964 0.9899 0.0
C497 C 0.54531 0.27767 0.03621 0.0
C498 C 0.53997 0.28392 0.05248 0.0
C499 C 0.53296 0.27259 0.02174 0.0
C500 C 0.51497 0.27401 0.02355 0.0
C501 C 0.50948 0.28045 0.03971 0.0
C502 C 0.52203 0.28528 0.0541 0.0
N503 N 0.53933 0.26675 0.00554 0.0
H504 H 0.46613 0.43674 0.64717 0.0
H505 H 0.47494 0.49313 0.64963 0.0
H506 H 0.42386 0.46848 0.65712 0.0
H507 H 0.48778 0.43916 0.62773 0.0
C508 C 0.4969 0.44906 0.63551 0.0
C509 C 0.46119 0.44956 0.64849 0.0
C510 C 0.44361 0.45078 0.65193 0.0
C511 C 0.47246 0.46483 0.64731 0.0
C512 C 0.46613 0.48137 0.65012 0.0
C513 C 0.44849 0.48279 0.6533 0.0
C514 C 0.43729 0.46743 0.65398 0.0
N515 N 0.49042 0.46392 0.64428 0.0
H516 H 0.03641 0.95788 0.31648 0.0
H517 H 0.05439 0.90749 0.30115 0.0
H518 H 0.00158 0.91796 0.28527 0.0
H519 H 0.07943 0.91755 0.31522 0.0
C520 C 0.07996 0.93159 0.31876 0.0
C521 C 0.03393 0.94471 0.30987 0.0
C522 C 0.01741 0.93922 0.30087 0.0
C523 C 0.04753 0.93357 0.30992 0.0
C524 C 0.04424 0.91643 0.30134 0.0
C525 C 0.02767 0.91076 0.29243 0.0
C526 C 0.01442 0.92231 0.29204 0.0
N527 N 0.0644 0.9405 0.31799 0.0
H528 H 0.4834 0.05477 0.7414 0.0
H529 H 0.47751 0.10898 0.7576 0.0
H530 H 0.52886 0.09256 0.7511 0.0
H531 H 0.4494 0.10138 0.74585 0.0
C532 C 0.44646 0.0878 0.74852 0.0
C533 C 0.48929 0.06803 0.74535 0.0
C534 C 0.50755 0.07199 0.74548 0.0
C535 C 0.47832 0.0812 0.74958 0.0
C536 C 0.48571 0.09863 0.75415 0.0
C537 C 0.50398 0.10267 0.75478 0.0
C538 C 0.51476 0.08931 0.75063 0.0
N539 N 0.46 0.07623 0.74935 0.0
H540 H 0.02754 0.57457 0.29068 0.0
H541 H 0.00447 0.52086 0.28326 0.0
H542 H 0.05808 0.53243 0.30479 0.0
H543 H 0.98642 0.532 0.26251 0.0
C544 C 0.98414 0.54454 0.26923 0.0
C545 C 0.02872 0.56067 0.29156 0.0
C546 C 0.0446 0.55502 0.29855 0.0
C547 C 0.01422 0.54849 0.28579 0.0
C548 C 0.01565 0.53042 0.28713 0.0
C549 C 0.03139 0.52465 0.29423 0.0
C550 C 0.04576 0.53699 0.29983 0.0
N551 N 0.99818 0.5549 0.2796 0.0
C552 C 0.188 0.64118 0.33488 0.0
C553 C 0.20113 0.63181 0.3277 0.0
C554 C 0.17028 0.63465 0.33185 0.0
C555 C 0.14274 0.59303 0.32162 0.0
H556 H 0.10513 0.62191 0.3094 0.0
C557 C 0.07085 0.56565 0.31961 0.0
C558 C 0.06032 0.56758 0.30408 0.0
C559 C 0.08711 0.57546 0.32353 0.0
C560 C 0.11552 0.61372 0.3128 0.0
H561 H 0.20588 0.60844 0.31138 0.0
H562 H 0.17503 0.59706 0.30621 0.0
H563 H 0.13572 0.63503 0.31338 0.0
H564 H 0.05807 0.5821 0.28105 0.0
H565 H 0.08657 0.59938 0.28797 0.0
H566 H 0.12275 0.57171 0.32091 0.0
C567 C 0.17845 0.60939 0.31426 0.0
C568 C 0.13298 0.62123 0.31518 0.0
C569 C 0.19612 0.61596 0.31717 0.0
C570 C 0.06587 0.58039 0.29315 0.0
C571 C 0.08219 0.59026 0.2971 0.0
C572 C 0.12535 0.58559 0.31941 0.0
C573 C 0.16536 0.61855 0.32172 0.0
C574 C 0.14677 0.6109 0.31948 0.0
C575 C 0.09321 0.58746 0.31204 0.0
C576 C 0.11155 0.59582 0.31494 0.0
H577 H 0.19143 0.65346 0.34301 0.0
H578 H 0.16048 0.64194 0.33785 0.0
H579 H 0.15306 0.58479 0.32511 0.0
H580 H 0.06675 0.55613 0.32848 0.0
H581 H 0.09514 0.57329 0.33534 0.0
C582 C 0.34411 0.34538 0.7143 0.0
C583 C 0.32668 0.3473 0.70796 0.0
C584 C 0.35821 0.35313 0.70635 0.0
C585 C 0.37024 0.37366 0.66632 0.0
H586 H 0.4065 0.40056 0.69848 0.0
C587 C 0.41465 0.43235 0.64746 0.0
C588 C 0.43217 0.43492 0.65492 0.0
C589 C 0.40327 0.4186 0.65207 0.0
C590 C 0.39668 0.39285 0.68929 0.0
H591 H 0.31039 0.35828 0.68788 0.0
H592 H 0.33497 0.3719 0.67412 0.0
H593 H 0.38374 0.38192 0.71005 0.0
H594 H 0.45173 0.42475 0.6725 0.0
H595 H 0.43185 0.40072 0.68054 0.0
H596 H 0.38315 0.38499 0.64566 0.0
C597 C 0.33775 0.36429 0.68514 0.0
C598 C 0.38362 0.38216 0.69593 0.0
C599 C 0.32366 0.35658 0.69311 0.0
C600 C 0.43831 0.42302 0.66647 0.0
C601 C 0.4269 0.40937 0.6712 0.0
C602 C 0.38335 0.38434 0.6597 0.0
C603 C 0.35519 0.36291 0.69186 0.0
C604 C 0.37005 0.37271 0.68455 0.0
C605 C 0.40916 0.40727 0.66437 0.0
C606 C 0.39649 0.39433 0.67113 0.0
H607 H 0.3469 0.33822 0.72566 0.0
H608 H 0.37149 0.35164 0.7117 0.0
H609 H 0.36012 0.36631 0.65719 0.0
H610 H 0.40963 0.44125 0.63841 0.0
H611 H 0.38965 0.41737 0.64662 0.0
C612 C 0.60376 0.95704 0.70312 0.0
C613 C 0.61974 0.96491 0.69844 0.0
C614 C 0.59056 0.96742 0.7082 0.0
C615 C 0.57355 0.00938 0.70177 0.0
H616 H 0.55354 0.00606 0.74631 0.0
C617 C 0.5331 0.06292 0.72959 0.0
C618 C 0.51909 0.05839 0.73955 0.0
C619 C 0.54423 0.05044 0.72421 0.0
C620 C 0.55871 0.00695 0.73367 0.0
H621 H 0.63443 0.98978 0.6954 0.0
H622 H 0.61121 0.00783 0.70387 0.0
H623 H 0.57509 0.98598 0.73766 0.0
H624 H 0.50569 0.03694 0.75143 0.0
H625 H 0.52472 0.01491 0.74137 0.0
H626 H 0.55709 0.03 0.69744 0.0
C627 C 0.60899 0.99366 0.70373 0.0
C628 C 0.57111 0.9955 0.72878 0.0
C629 C 0.62229 0.98333 0.69898 0.0
C630 C 0.51629 0.04089 0.74369 0.0
C631 C 0.52734 0.0283 0.7381 0.0
C632 C 0.56098 0.02061 0.70648 0.0
C633 C 0.593 0.9858 0.70832 0.0
C634 C 0.57888 0.99688 0.71296 0.0
C635 C 0.54151 0.03295 0.72834 0.0
C636 C 0.55367 0.01983 0.72268 0.0
H637 H 0.60146 0.94287 0.70286 0.0
H638 H 0.5783 0.96109 0.71166 0.0
H639 H 0.57917 0.0105 0.68935 0.0
H640 H 0.53548 0.07616 0.72582 0.0
H641 H 0.55514 0.05465 0.71699 0.0
C642 C 0.88507 0.01813 0.3071 0.0
C643 C 0.88035 0.02564 0.2915 0.0
C644 C 0.90085 0.0103 0.30921 0.0
C645 C 0.94356 0.00617 0.2894 0.0
H646 H 0.94448 0.96496 0.31544 0.0
C647 C 0.99488 0.95498 0.2846 0.0
C648 C 0.00316 0.95106 0.30067 0.0
C649 C 0.98087 0.96553 0.28435 0.0
C650 C 0.94442 0.97655 0.30827 0.0
H651 H 0.88832 0.03077 0.26582 0.0
H652 H 0.91534 0.01639 0.26907 0.0
H653 H 0.91791 0.98028 0.31313 0.0
H654 H 0.00348 0.95496 0.32901 0.0
H655 H 0.97849 0.97305 0.32857 0.0
H656 H 0.96987 0.00166 0.28383 0.0
C657 C 0.90729 0.01705 0.28001 0.0
C658 C 0.92924 0.98544 0.30701 0.0
C659 C 0.8917 0.0252 0.27806 0.0
C660 C 0.99731 0.95792 0.31649 0.0
C661 C 0.98304 0.96816 0.31623 0.0
C662 C 0.9586 0.99704 0.29037 0.0
C663 C 0.91211 0.00946 0.29561 0.0
C664 C 0.92855 0.00035 0.29749 0.0
C665 C 0.97469 0.972 0.30015 0.0
C666 C 0.95912 0.98214 0.29977 0.0
H667 H 0.87664 0.01844 0.31775 0.0
H668 H 0.90422 0.00498 0.32157 0.0
H669 H 0.94375 0.0178 0.2823 0.0
H670 H 0.99922 0.94983 0.27226 0.0
H671 H 0.97455 0.96824 0.27181 0.0
C672 C 0.32932 0.2 0.61872 0.0
C673 C 0.34414 0.20405 0.63097 0.0
C674 C 0.32393 0.18257 0.61242 0.0
C675 C 0.34061 0.13919 0.60569 0.0
H676 H 0.29102 0.123 0.59696 0.0
C677 C 0.29166 0.07299 0.57632 0.0
C678 C 0.29951 0.06888 0.56075 0.0
C679 C 0.29784 0.08811 0.58741 0.0
C680 C 0.30493 0.1272 0.59954 0.0
H681 H 0.36477 0.1929 0.64638 0.0
H682 H 0.35531 0.16242 0.63536 0.0
H683 H 0.29992 0.1522 0.61184 0.0
H684 H 0.32059 0.07677 0.5451 0.0
H685 H 0.33126 0.10317 0.56428 0.0
H686 H 0.3456 0.11424 0.59325 0.0
C687 C 0.34796 0.17278 0.63055 0.0
C688 C 0.31002 0.14402 0.60788 0.0
C689 C 0.35333 0.19023 0.63691 0.0
C690 C 0.31415 0.07973 0.55691 0.0
C691 C 0.32037 0.09476 0.568 0.0
C692 C 0.33551 0.12238 0.59731 0.0
C693 C 0.33323 0.16876 0.61817 0.0
C694 C 0.3279 0.15033 0.61076 0.0
C695 C 0.31209 0.09932 0.5832 0.0
C696 C 0.31761 0.11632 0.59385 0.0
H697 H 0.32195 0.21032 0.61386 0.0
H698 H 0.31268 0.17995 0.6027 0.0
H699 H 0.35448 0.14368 0.60763 0.0
H700 H 0.28032 0.06489 0.57958 0.0
H701 H 0.2913 0.09118 0.59912 0.0
C702 C 0.29084 0.87843 0.02532 0.0
C703 C 0.29691 0.86366 0.01639 0.0
C704 C 0.29175 0.89465 0.01819 0.0
C705 C 0.31399 0.91977 0.98599 0.0
H706 H 0.27284 0.94597 0.98558 0.0
C707 C 0.28337 0.97737 0.94606 0.0
C708 C 0.29818 0.98966 0.94681 0.0
C709 C 0.28356 0.96307 0.9562 0.0
C710 C 0.28443 0.9388 0.98559 0.0
H711 H 0.30895 0.85441 0.99313 0.0
H712 H 0.3105 0.88268 0.9807 0.0
H713 H 0.27285 0.91876 -2e-05 0.0
H714 H 0.3247 0.99675 0.95899 0.0
H715 H 0.325 0.97176 0.97683 0.0
H716 H 0.32538 0.93956 0.9712 0.0
C717 C 0.30516 0.88176 0.99327 0.0
C718 C 0.2845 0.9233 0.99398 0.0
C719 C 0.30417 0.86553 0.00034 0.0
C720 C 0.31306 0.98754 0.95821 0.0
C721 C 0.31329 0.97316 0.96829 0.0
C722 C 0.31395 0.93531 0.97768 0.0
C723 C 0.29884 0.89648 0.00205 0.0
C724 C 0.2992 0.9135 0.99408 0.0
C725 C 0.29858 0.96069 0.96728 0.0
C726 C 0.29908 0.94487 0.97719 0.0
H727 H 0.28521 0.87744 0.03773 0.0
H728 H 0.28695 0.90579 0.02535 0.0
H729 H 0.32558 0.9126 0.98601 0.0
H730 H 0.27164 0.97877 0.93754 0.0
H731 H 0.27208 0.95362 0.955 0.0
C732 C 0.68397 0.27215 0.39991 0.0
C733 C 0.69302 0.26905 0.38492 0.0
C734 C 0.67754 0.28842 0.40376 0.0
C735 C 0.68755 0.33463 0.39688 0.0
H736 H 0.64568 0.34067 0.42102 0.0
C737 C 0.65033 0.39316 0.43462 0.0
C738 C 0.66414 0.39994 0.44725 0.0
C739 C 0.65232 0.37842 0.4231 0.0
C740 C 0.65725 0.33922 0.41402 0.0
H741 H 0.70155 0.28029 0.36166 0.0
H742 H 0.69027 0.30872 0.36838 0.0
H743 H 0.65049 0.31158 0.40758 0.0
H744 H 0.69105 0.39745 0.45715 0.0
H745 H 0.69455 0.37183 0.43697 0.0
H746 H 0.69453 0.36218 0.40384 0.0
C747 C 0.68834 0.29861 0.37726 0.0
C748 C 0.66011 0.32255 0.40649 0.0
C749 C 0.69474 0.2823 0.37339 0.0
C750 C 0.6802 0.39236 0.44758 0.0
C751 C 0.68223 0.37781 0.43597 0.0
C752 C 0.68472 0.35126 0.40446 0.0
C753 C 0.68004 0.30199 0.39271 0.0
C754 C 0.67553 0.31999 0.39825 0.0
C755 C 0.66817 0.37044 0.42392 0.0
C756 C 0.66975 0.35361 0.41345 0.0
H757 H 0.68237 0.26221 0.40904 0.0
H758 H 0.67139 0.29064 0.41586 0.0
H759 H 0.69965 0.3331 0.3908 0.0
H760 H 0.63781 0.39878 0.43416 0.0
H761 H 0.64143 0.37305 0.41377 0.0
C762 C 0.68883 0.60679 0.94294 0.0
C763 C 0.68566 0.62313 0.95129 0.0
C764 C 0.69465 0.59353 0.95286 0.0
C765 C 0.69371 0.57769 0.99626 0.0
H766 H 0.73606 0.55566 0.9866 0.0
C767 C 0.74641 0.53915 0.03707 0.0
C768 C 0.73538 0.52601 0.04343 0.0
C769 C 0.74004 0.54876 0.02361 0.0
C770 C 0.72415 0.56163 0.98933 0.0
H771 H 0.68602 0.63837 0.97653 0.0
H772 H 0.69584 0.6151 0.99381 0.0
H773 H 0.72525 0.57725 0.96742 0.0
H774 H 0.70926 0.51225 0.04047 0.0
H775 H 0.69798 0.52933 0.01704 0.0
H776 H 0.69266 0.56228 0.01825 0.0
C777 C 0.6939 0.61261 0.97962 0.0
C778 C 0.71794 0.57388 0.97836 0.0
C779 C 0.6884 0.62594 0.96971 0.0
C780 C 0.71804 0.52225 0.03571 0.0
C781 C 0.71157 0.53206 0.02242 0.0
C782 C 0.69973 0.56524 0.00704 0.0
C783 C 0.69706 0.59629 0.97129 0.0
C784 C 0.70286 0.58226 0.98195 0.0
C785 C 0.72245 0.54558 0.01645 0.0
C786 C 0.71517 0.55732 0.00386 0.0
H787 H 0.68686 0.60426 0.92876 0.0
H788 H 0.69698 0.58103 0.94617 0.0
H789 H 0.68198 0.5839 0.99922 0.0
H790 H 0.75985 0.54223 0.0428 0.0
H791 H 0.74865 0.5592 0.01933 0.0
C792 C 0.64669 0.3501 0.17322 0.0
C793 C 0.64392 0.3443 0.18977 0.0
C794 C 0.63623 0.34264 0.15815 0.0
C795 C 0.59277 0.31955 0.14425 0.0
H796 H 0.61284 0.30699 0.10063 0.0
C797 C 0.55003 0.28388 0.08442 0.0
C798 C 0.55304 0.28929 0.0678 0.0
C799 C 0.56179 0.28969 0.09909 0.0
C800 C 0.60701 0.3106 0.11265 0.0
H801 H 0.62813 0.32599 0.20345 0.0
H802 H 0.60984 0.31306 0.17716 0.0
H803 H 0.63214 0.31902 0.12665 0.0
H804 H 0.57081 0.30486 0.05342 0.0
H805 H 0.59125 0.31532 0.07911 0.0
H806 H 0.56765 0.31154 0.13031 0.0
C807 C 0.62005 0.32343 0.17587 0.0
C808 C 0.61807 0.31746 0.12755 0.0
C809 C 0.63058 0.33078 0.19091 0.0
C810 C 0.56826 0.30036 0.06606 0.0
C811 C 0.57997 0.30631 0.08078 0.0
C812 C 0.58171 0.31282 0.12935 0.0
C813 C 0.62269 0.32935 0.15935 0.0
C814 C 0.61106 0.32196 0.14351 0.0
C815 C 0.57677 0.3012 0.09752 0.0
C816 C 0.58868 0.30822 0.11337 0.0
H817 H 0.65687 0.36048 0.1719 0.0
H818 H 0.63847 0.34757 0.14561 0.0
H819 H 0.58696 0.32318 0.15629 0.0
H820 H 0.53854 0.27512 0.08608 0.0
H821 H 0.55911 0.28517 0.11169 0.0
C822 C 0.00879 0.29569 0.87277 0.0
C823 C 0.02443 0.28741 0.87207 0.0
C824 C 7e-05 0.29638 0.88807 0.0
C825 C 0.99534 0.27398 0.92829 0.0
H826 H 0.97439 0.31612 0.94427 0.0
C827 C 0.94663 0.27461 0.98174 0.0
C828 C 0.94848 0.28917 0.99442 0.0
C829 C 0.95634 0.2746 0.96711 0.0
C830 C 0.98028 0.3043 0.94005 0.0
H831 H 0.04332 0.27359 0.88699 0.0
H832 H 0.02815 0.27491 0.91373 0.0
H833 H 0.99095 0.31606 0.91843 0.0
H834 H 0.96185 0.31521 0.00162 0.0
H835 H 0.97899 0.31509 0.97619 0.0
H836 H 0.98483 0.26227 0.95 0.0
C837 C 0.02253 0.28068 0.90237 0.0
C838 C 0.98961 0.30421 0.92515 0.0
C839 C 0.03127 0.28002 0.88708 0.0
C840 C 0.96025 0.30373 0.99215 0.0
C841 C 0.96993 0.30373 0.9775 0.0
C842 C 0.98597 0.27406 0.94316 0.0
C843 C 0.00678 0.28879 0.90301 0.0
C844 C 0.9972 0.28903 0.91907 0.0
C845 C 0.96809 0.28917 0.96481 0.0
C846 C 0.97829 0.28919 0.94918 0.0
H847 H 0.00316 0.30149 0.86143 0.0
H848 H 0.98786 0.30255 0.88808 0.0
H849 H 0.00088 0.26203 0.92384 0.0
H850 H 0.93778 0.26314 0.98321 0.0
H851 H 0.95449 0.26325 0.95748 0.0
C852 C 0.3605 0.70757 0.29149 0.0
C853 C 0.36796 0.70431 0.27551 0.0
C854 C 0.36516 0.69837 0.30594 0.0
C855 C 0.40235 0.67583 0.32324 0.0
H856 H 0.37158 0.66148 0.35814 0.0
C857 C 0.42962 0.64147 0.38083 0.0
C858 C 0.42632 0.64861 0.39757 0.0
C859 C 0.41986 0.64564 0.36584 0.0
C860 C 0.3803 0.6655 0.34852 0.0
H861 H 0.38524 0.68803 0.26182 0.0
H862 H 0.3931 0.6718 0.28685 0.0
H863 H 0.35926 0.67358 0.3316 0.0
H864 H 0.40917 0.66446 0.41189 0.0
H865 H 0.39177 0.67156 0.38549 0.0
H866 H 0.4234 0.6682 0.34006 0.0
C867 C 0.38399 0.68177 0.28838 0.0
C868 C 0.37327 0.67241 0.33335 0.0
C869 C 0.37943 0.69102 0.27401 0.0
C870 C 0.41199 0.65876 0.39913 0.0
C871 C 0.40205 0.66283 0.38403 0.0
C872 C 0.40932 0.66897 0.33828 0.0
C873 C 0.37732 0.68568 0.30467 0.0
C874 C 0.38426 0.67764 0.32053 0.0
C875 C 0.40639 0.65686 0.3672 0.0
C876 C 0.39842 0.66369 0.3511 0.0
H877 H 0.35158 0.71771 0.29305 0.0
H878 H 0.35986 0.70178 0.31831 0.0
H879 H 0.41129 0.68016 0.31392 0.0
H880 H 0.44038 0.63334 0.37928 0.0
H881 H 0.42331 0.64063 0.35308 0.0
C882 C 0.95488 0.70634 0.61765 0.0
C883 C 0.94168 0.69238 0.61338 0.0
C884 C 0.96608 0.71145 0.60515 0.0
C885 C 0.98458 0.69421 0.5654 0.0
H886 H 0.99857 0.74335 0.56085 0.0
C887 C 0.02919 0.73973 0.52018 0.0
C888 C 0.0448 0.73133 0.52137 0.0
C889 C 0.01536 0.73473 0.53003 0.0
C890 C 0.99465 0.72957 0.56184 0.0
H891 H 0.92967 0.67304 0.59254 0.0
H892 H 0.94928 0.68196 0.57074 0.0
H893 H 0.97633 0.73557 0.5806 0.0
H894 H 0.05795 0.71075 0.53331 0.0
H895 H 0.03383 0.70205 0.55054 0.0
H896 H 0.00303 0.68822 0.54678 0.0
C897 C 0.95101 0.68887 0.58379 0.0
C898 C 0.98205 0.72513 0.57327 0.0
C899 C 0.93972 0.68383 0.59625 0.0
C900 C 0.04613 0.71755 0.53226 0.0
C901 C 0.03226 0.71247 0.54199 0.0
C902 C 0.99727 0.69866 0.55408 0.0
C903 C 0.96439 0.70264 0.58816 0.0
C904 C 0.977 0.7074 0.57528 0.0
C905 C 0.01681 0.72114 0.54113 0.0
C906 C 0.00256 0.71639 0.5523 0.0
H907 H 0.95674 0.71319 0.63072 0.0
H908 H 0.97639 0.722 0.60896 0.0
H909 H 0.98105 0.68044 0.56679 0.0
H910 H 0.02785 0.75046 0.51198 0.0
H911 H 0.00354 0.74155 0.52901 0.0
C912 C 0.81515 0.38686 0.70823 0.0
C913 C 0.8108 0.37168 0.69653 0.0
C914 C 0.83269 0.3936 0.71229 0.0
C915 C 0.87605 0.39412 0.69509 0.0
H916 H 0.89311 0.41238 0.74281 0.0
C917 C 0.94782 0.42365 0.71277 0.0
C918 C 0.94998 0.4397 0.7234 0.0
C919 C 0.93162 0.41344 0.71067 0.0
C920 C 0.88852 0.40742 0.7294 0.0
H921 H 0.82149 0.35159 0.67998 0.0
H922 H 0.85213 0.36337 0.68707 0.0
H923 H 0.86316 0.39836 0.73664 0.0
H924 H 0.93711 0.45716 0.7409 0.0
H925 H 0.90883 0.43959 0.737 0.0
H926 H 0.90123 0.40352 0.68775 0.0
C927 C 0.84194 0.37012 0.69302 0.0
C928 C 0.87136 0.3994 0.72587 0.0
C929 C 0.82439 0.36334 0.68901 0.0
C930 C 0.93581 0.44496 0.73244 0.0
C931 C 0.91964 0.43478 0.73035 0.0
C932 C 0.89319 0.40219 0.69861 0.0
C933 C 0.84628 0.38534 0.70469 0.0
C934 C 0.86486 0.39286 0.70864 0.0
C935 C 0.91725 0.41905 0.7192 0.0
C936 C 0.89956 0.40915 0.71577 0.0
H937 H 0.805 0.39362 0.71424 0.0
H938 H 0.83557 0.40548 0.72114 0.0
H939 H 0.87137 0.3894 0.68165 0.0
H940 H 0.95845 0.41928 0.70554 0.0
H941 H 0.93028 0.40128 0.70217 0.0
C942 C 0.68968 0.66974 0.28117 0.0
C943 C 0.70773 0.66821 0.28497 0.0
C944 C 0.67731 0.66172 0.29107 0.0
C945 C 0.6718 0.62432 0.31735 0.0
H946 H 0.62908 0.64455 0.32903 0.0
C947 C 0.61824 0.58371 0.34828 0.0
C948 C 0.60106 0.58412 0.34038 0.0
C949 C 0.63169 0.59618 0.34505 0.0
C950 C 0.64092 0.63872 0.32581 0.0
H951 H 0.727 0.65767 0.30261 0.0
H952 H 0.7054 0.6437 0.31988 0.0
H953 H 0.65203 0.66251 0.31663 0.0
H954 H 0.58441 0.59838 0.32343 0.0
H955 H 0.60784 0.62008 0.31778 0.0
H956 H 0.66057 0.60039 0.32586 0.0
C957 C 0.70081 0.65094 0.30913 0.0
C958 C 0.65406 0.64899 0.31872 0.0
C959 C 0.71319 0.659 0.29926 0.0
C960 C 0.59745 0.5978 0.32989 0.0
C961 C 0.61091 0.61027 0.32666 0.0
C962 C 0.65868 0.61405 0.32435 0.0
C963 C 0.68272 0.65196 0.30496 0.0
C964 C 0.66951 0.6418 0.31414 0.0
C965 C 0.62828 0.60934 0.33385 0.0
C966 C 0.64294 0.62101 0.32837 0.0
H967 H 0.68505 0.67678 0.27027 0.0
H968 H 0.66347 0.66259 0.2874 0.0
H969 H 0.68342 0.61829 0.31372 0.0
H970 H 0.62137 0.57355 0.35673 0.0
H971 H 0.64485 0.59532 0.35111 0.0
C972 C 0.3852 0.08884 0.31666 0.0
C973 C 0.36914 0.08364 0.30653 0.0
C974 C 0.39976 0.07925 0.3147 0.0
C975 C 0.41839 0.0475 0.28431 0.0
H976 H 0.44274 0.03331 0.32655 0.0
C977 C 0.46264 0.98901 0.30362 0.0
C978 C 0.47494 0.98974 0.29105 0.0
C979 C 0.45194 0.00266 0.30634 0.0
C980 C 0.43611 0.03725 0.31465 0.0
H981 H 0.35589 0.06458 0.28609 0.0
H982 H 0.38132 0.04794 0.28259 0.0
H983 H 0.41948 0.0531 0.32904 0.0
H984 H 0.48606 0.00549 0.27182 0.0
H985 H 0.46722 0.02942 0.27653 0.0
H986 H 0.43469 0.03128 0.26991 0.0
C987 C 0.38266 0.05945 0.29202 0.0
C988 C 0.42291 0.04866 0.31608 0.0
C989 C 0.36806 0.06892 0.29411 0.0
C990 C 0.47675 0.00466 0.28166 0.0
C991 C 0.46589 0.01826 0.28425 0.0
C992 C 0.43171 0.03622 0.28289 0.0
C993 C 0.3986 0.0644 0.30242 0.0
C994 C 0.41369 0.05363 0.30091 0.0
C995 C 0.4532 0.01726 0.29644 0.0
C996 C 0.44048 0.03072 0.29804 0.0
H997 H 0.38645 0.10013 0.32635 0.0
H998 H 0.41192 0.08344 0.3228 0.0
H999 H 0.41161 0.05124 0.27241 0.0
H1000 H 0.46107 0.97769 0.3111 0.0
H1001 H 0.44218 0.00145 0.31571 0.0
C1002 C 0.11627 0.96158 0.704 0.0
C1003 C 0.13081 0.97007 0.69712 0.0
C1004 C 0.1002 0.96899 0.70361 0.0
C1005 C 0.07463 0.00098 0.68163 0.0
H1006 H 0.05038 0.00294 0.72407 0.0
C1007 C 0.01899 0.04242 0.71405 0.0
C1008 C 0.00589 0.0412 0.69989 0.0
C1009 C 0.03323 0.03226 0.71334 0.0
C1010 C 0.05701 0.0025 0.71212 0.0
H1011 H 0.1398 0.99286 0.68422 0.0
H1012 H 0.11178 0.00579 0.68359 0.0
H1013 H 0.07732 0.98816 0.72325 0.0
H1014 H 0.99734 0.02825 0.67395 0.0
H1015 H 0.02231 0.01038 0.67272 0.0
H1016 H 0.05453 0.01571 0.67066 0.0
C1017 C 0.11277 0.99334 0.68916 0.0
C1018 C 0.07234 0.99389 0.7116 0.0
C1019 C 0.12886 0.98599 0.68963 0.0
C1020 C 0.0072 0.02939 0.68509 0.0
C1021 C 0.02155 0.01929 0.68433 0.0
C1022 C 0.05923 0.00951 0.68212 0.0
C1023 C 0.09829 0.98498 0.69625 0.0
C1024 C 0.08144 0.99323 0.69642 0.0
C1025 C 0.03476 0.02069 0.69842 0.0
C1026 C 0.05038 0.01056 0.69746 0.0
H1027 H 0.11732 0.94928 0.70983 0.0
H1028 H 0.08923 0.96215 0.70903 0.0
H1029 H 0.08126 0.00053 0.66968 0.0
H1030 H 0.01822 0.05126 0.72571 0.0
H1031 H 0.04327 0.03376 0.72434 0.0
C1032 C 0.68649 0.78958 0.37516 0.0
C1033 C 0.67389 0.78418 0.36088 0.0
C1034 C 0.68972 0.80734 0.38139 0.0
C1035 C 0.68305 0.85258 0.36981 0.0
H1036 H 0.68758 0.86344 0.42043 0.0
C1037 C 0.67566 0.92156 0.40419 0.0
C1038 C 0.68637 0.92702 0.41984 0.0
C1039 C 0.67614 0.90468 0.3958 0.0
C1040 C 0.68663 0.86066 0.40626 0.0
H1041 H 0.65506 0.79326 0.34172 0.0
H1042 H 0.66048 0.8242 0.35277 0.0
H1043 H 0.68457 0.83292 0.40815 0.0
H1044 H 0.70684 0.91955 0.43829 0.0
H1045 H 0.70773 0.89015 0.42365 0.0
H1046 H 0.68475 0.88043 0.36802 0.0
C1047 C 0.66805 0.81474 0.35901 0.0
C1048 C 0.6849 0.84313 0.39921 0.0
C1049 C 0.66486 0.79698 0.35274 0.0
C1050 C 0.69818 0.91559 0.42644 0.0
C1051 C 0.69868 0.89875 0.41806 0.0
C1052 C 0.68474 0.87015 0.37689 0.0
C1053 C 0.68039 0.82012 0.37353 0.0
C1054 C 0.68299 0.83885 0.3809 0.0
C1055 C 0.68736 0.89295 0.40289 0.0
C1056 C 0.68647 0.87438 0.3952 0.0
H1057 H 0.69377 0.78007 0.38165 0.0
H1058 H 0.69951 0.81105 0.39241 0.0
H1059 H 0.68183 0.84974 0.35565 0.0
H1060 H 0.66631 0.93002 0.39887 0.0
H1061 H 0.66715 0.90057 0.38422 0.0
C1062 C 0.68424 0.13503 0.0089 0.0
C1063 C 0.68962 0.1364 0.99195 0.0
C1064 C 0.6831 0.1188 0.01598 0.0
C1065 C 0.68037 0.07069 0.00414 0.0
H1066 H 0.6983 0.06983 0.05289 0.0
C1067 C 0.69342 0.00652 0.03622 0.0
C1068 C 0.68972 0.00569 0.0538 0.0
C1069 C 0.69192 0.02206 0.02808 0.0
C1070 C 0.69301 0.06985 0.03933 0.0
H1071 H 0.6978 0.12174 0.96904 0.0
H1072 H 0.69602 0.09345 0.9815 0.0
H1073 H 0.69863 0.0977 0.03988 0.0
H1074 H 0.68055 0.02014 0.07628 0.0
H1075 H 0.67783 0.04718 0.06208 0.0
H1076 H 0.67493 0.04273 0.00361 0.0
C1077 C 0.69247 0.10489 0.98923 0.0
C1078 C 0.6932 0.08585 0.03186 0.0
C1079 C 0.6936 0.12113 0.98214 0.0
C1080 C 0.68381 0.02048 0.06283 0.0
C1081 C 0.68229 0.03598 0.0547 0.0
C1082 C 0.68019 0.05465 0.01162 0.0
C1083 C 0.68735 0.10357 0.0063 0.0
C1084 C 0.68689 0.08648 0.01418 0.0
C1085 C 0.68666 0.03707 0.03735 0.0
C1086 C 0.68649 0.05406 0.02932 0.0
H1087 H 0.68098 0.14651 0.01677 0.0
H1088 H 0.67885 0.11819 0.02905 0.0
H1089 H 0.67523 0.07075 0.99054 0.0
H1090 H 0.69814 0.99538 0.02898 0.0
H1091 H 0.69552 0.02252 0.01475 0.0
C1092 C 0.28282 0.69287 0.66717 0.0
C1093 C 0.28611 0.70981 0.66175 0.0
C1094 C 0.29106 0.67878 0.65982 0.0
C1095 C 0.32699 0.66756 0.63205 0.0
H1096 H 0.29636 0.62476 0.61855 0.0
C1097 C 0.33937 0.61618 0.57622 0.0
C1098 C 0.33536 0.59826 0.57827 0.0
C1099 C 0.33555 0.62913 0.5889 0.0
C1100 C 0.3052 0.63649 0.62248 0.0
H1101 H 0.30108 0.72537 0.64482 0.0
H1102 H 0.31509 0.7008 0.63171 0.0
H1103 H 0.28584 0.64866 0.63649 0.0
H1104 H 0.3244 0.57993 0.59544 0.0
H1105 H 0.31786 0.60259 0.61765 0.0
H1106 H 0.34606 0.65555 0.61732 0.0
C1107 C 0.30642 0.69838 0.64186 0.0
C1108 C 0.29919 0.65021 0.63282 0.0
C1109 C 0.29827 0.71248 0.6493 0.0
C1110 C 0.32777 0.5936 0.59349 0.0
C1111 C 0.32388 0.60657 0.60615 0.0
C1112 C 0.33296 0.65386 0.62159 0.0
C1113 C 0.30268 0.68129 0.6468 0.0
C1114 C 0.30988 0.66605 0.63747 0.0
C1115 C 0.32753 0.62448 0.60387 0.0
C1116 C 0.32201 0.6383 0.61645 0.0
H1117 H 0.27362 0.69041 0.67686 0.0
H1118 H 0.28812 0.66585 0.66417 0.0
H1119 H 0.3357 0.67943 0.63567 0.0
H1120 H 0.34547 0.62024 0.5648 0.0
H1121 H 0.33844 0.64282 0.58671 0.0
C1122 C 0.26748 0.35274 0.04557 0.0
C1123 C 0.27953 0.35804 0.0603 0.0
C1124 C 0.26219 0.36494 0.03411 0.0
C1125 C 0.2618 0.41299 0.02993 0.0
H1126 H 0.25765 0.398 0.98001 0.0
C1127 C 0.26045 0.46089 0.97529 0.0
C1128 C 0.24877 0.45599 0.96015 0.0
C1129 C 0.26252 0.44939 0.98838 0.0
C1130 C 0.25853 0.40233 0.99391 0.0
H1131 H 0.29528 0.38036 0.07473 0.0
H1132 H 0.28641 0.40156 0.05452 0.0
H1133 H 0.26453 0.37704 0.00112 0.0
H1134 H 0.22941 0.43553 0.94741 0.0
H1135 H 0.23322 0.4154 0.97015 0.0
H1136 H 0.25628 0.43846 0.02253 0.0
C1137 C 0.28076 0.38805 0.05197 0.0
C1138 C 0.26244 0.3903 0.00604 0.0
C1139 C 0.28594 0.37586 0.06351 0.0
C1140 C 0.23878 0.43957 0.95872 0.0
C1141 C 0.24093 0.42805 0.97175 0.0
C1142 C 0.25803 0.42507 0.01776 0.0
C1143 C 0.26894 0.38271 0.03703 0.0
C1144 C 0.26418 0.39547 0.02421 0.0
C1145 C 0.25303 0.43271 0.98657 0.0
C1146 C 0.25639 0.41986 0.99962 0.0
H1147 H 0.26219 0.33913 0.04281 0.0
H1148 H 0.25281 0.36042 0.02293 0.0
H1149 H 0.26279 0.41736 0.04382 0.0
H1150 H 0.26849 0.47334 0.97673 0.0
H1151 H 0.27206 0.45327 0.99959 0.0
C1152 C 0.34117 0.65871 0.80307 0.0
C1153 C 0.34959 0.66837 0.79087 0.0
C1154 C 0.34599 0.66234 0.82111 0.0
C1155 C 0.36952 0.69612 0.85443 0.0
H1156 H 0.37661 0.65634 0.88145 0.0
C1157 C 0.41283 0.7017 0.92018 0.0
C1158 C 0.40802 0.69096 0.9333 0.0
C1159 C 0.4031 0.70012 0.90378 0.0
C1160 C 0.37439 0.66761 0.87421 0.0
H1161 H 0.36945 0.68963 0.78808 0.0
H1162 H 0.37796 0.69581 0.8195 0.0
H1163 H 0.36452 0.65127 0.85083 0.0
H1164 H 0.38885 0.67062 0.93975 0.0
H1165 H 0.37166 0.66801 0.91111 0.0
H1166 H 0.37978 0.71245 0.87773 0.0
C1167 C 0.36749 0.68558 0.81516 0.0
C1168 C 0.36747 0.6647 0.85663 0.0
C1169 C 0.36269 0.68195 0.79712 0.0
C1170 C 0.39283 0.67913 0.92992 0.0
C1171 C 0.3831 0.67751 0.91347 0.0
C1172 C 0.37644 0.69904 0.87202 0.0
C1173 C 0.35931 0.67571 0.82736 0.0
C1174 C 0.36523 0.67891 0.84644 0.0
C1175 C 0.38833 0.68776 0.9001 0.0
C1176 C 0.37924 0.68481 0.88202 0.0
H1177 H 0.33097 0.64822 0.79869 0.0
H1178 H 0.33929 0.65463 0.83018 0.0
H1179 H 0.36766 0.70736 0.84703 0.0
H1180 H 0.42437 0.71108 0.92247 0.0
H1181 H 0.4076 0.70812 0.89376 0.0
C1182 C 0.96489 0.70749 0.11768 0.0
C1183 C 0.97372 0.70042 0.1319 0.0
C1184 C 0.97174 0.70706 0.10133 0.0
C1185 C 0.00257 0.68491 0.07439 0.0
H1186 H 0.00465 0.72788 0.05098 0.0
C1187 C 0.04289 0.71768 0.01815 0.0
C1188 C 0.04092 0.7038 0.0047 0.0
C1189 C 0.03322 0.71686 0.03275 0.0
C1190 C 0.00416 0.71579 0.05736 0.0
H1191 H 0.99649 0.68704 0.14001 0.0
H1192 H 0.00844 0.68633 0.11148 0.0
H1193 H 0.99058 0.72683 0.07832 0.0
H1194 H 0.02718 0.67826 0.99593 0.0
H1195 H 0.01022 0.67683 0.02153 0.0
H1196 H 0.01653 0.67401 0.05362 0.0
C1197 C 0.99616 0.6921 0.11295 0.0
C1198 C 0.99596 0.71513 0.07293 0.0
C1199 C 0.98936 0.69261 0.12933 0.0
C1200 C 0.0289 0.68917 0.00606 0.0
C1201 C 0.01931 0.6883 0.02076 0.0
C1202 C 0.01068 0.68553 0.05875 0.0
C1203 C 0.98751 0.69947 0.09882 0.0
C1204 C 0.99527 0.69976 0.08173 0.0
C1205 C 0.02143 0.70212 0.03428 0.0
C1206 C 0.01176 0.70105 0.0502 0.0
H1207 H 0.95278 0.71356 0.11921 0.0
H1208 H 0.96469 0.71268 0.09063 0.0
H1209 H 0.00209 0.67283 0.08079 0.0
H1210 H 0.05191 0.7292 0.01737 0.0
H1211 H 0.03527 0.72764 0.04302 0.0
C1212 C 0.64874 0.30728 0.69431 0.0
C1213 C 0.65814 0.29232 0.69455 0.0
C1214 C 0.64385 0.31402 0.67842 0.0
C1215 C 0.6341 0.29911 0.63164 0.0
H1216 H 0.63004 0.34864 0.62692 0.0
C1217 C 0.60031 0.3215 0.56878 0.0
C1218 C 0.5874 0.33314 0.57168 0.0
C1219 C 0.61261 0.31854 0.58249 0.0
C1220 C 0.6311 0.33477 0.62804 0.0
H1221 H 0.67061 0.27326 0.6784 0.0
H1222 H 0.66221 0.28513 0.65068 0.0
H1223 H 0.64527 0.33967 0.65357 0.0
H1224 H 0.57803 0.35168 0.5909 0.0
H1225 H 0.59926 0.34628 0.61491 0.0
H1226 H 0.61949 0.29411 0.60645 0.0
C1227 C 0.65836 0.29148 0.66275 0.0
C1228 C 0.6398 0.32963 0.6433 0.0
C1229 C 0.66324 0.28472 0.67865 0.0
C1230 C 0.58766 0.34245 0.58833 0.0
C1231 C 0.59997 0.3395 0.60204 0.0
C1232 C 0.62543 0.30424 0.61641 0.0
C1233 C 0.64827 0.30596 0.66241 0.0
C1234 C 0.64106 0.31171 0.64543 0.0
C1235 C 0.61227 0.32715 0.5994 0.0
C1236 C 0.62349 0.32209 0.61459 0.0
H1237 H 0.64464 0.31347 0.70634 0.0
H1238 H 0.63592 0.32507 0.67863 0.0
H1239 H 0.63457 0.28519 0.63293 0.0
H1240 H 0.60042 0.31406 0.55613 0.0
H1241 H 0.62208 0.30912 0.57999 0.0
C1242 C 0.08445 0.31278 0.38721 0.0
C1243 C 0.08004 0.30436 0.37019 0.0
C1244 C 0.07421 0.30896 0.40089 0.0
C1245 C 0.04148 0.27625 0.41488 0.0
H1246 H 0.02548 0.31623 0.4415 0.0
C1247 C 0.98085 0.29117 0.45832 0.0
C1248 C 0.98166 0.27807 0.47004 0.0
C1249 C 0.99459 0.29461 0.44789 0.0
C1250 C 0.0299 0.30495 0.43421 0.0
H1251 H 0.06185 0.28483 0.35433 0.0
H1252 H 0.04408 0.27805 0.37827 0.0
H1253 H 0.04662 0.32111 0.41987 0.0
H1254 H 0.9975 0.25843 0.48021 0.0
H1255 H 0.02156 0.26436 0.4618 0.0
H1256 H 0.02445 0.26011 0.42897 0.0
C1257 C 0.05545 0.28761 0.38101 0.0
C1258 C 0.04209 0.30773 0.42195 0.0
C1259 C 0.06557 0.29157 0.36729 0.0
C1260 C 0.99661 0.26866 0.47135 0.0
C1261 C 0.01028 0.27197 0.46075 0.0
C1262 C 0.02942 0.27346 0.42729 0.0
C1263 C 0.05949 0.29649 0.39787 0.0
C1264 C 0.04778 0.29341 0.41195 0.0
C1265 C 0.00934 0.2849 0.44884 0.0
C1266 C 0.02329 0.28781 0.43686 0.0
H1267 H 0.09552 0.3227 0.38987 0.0
H1268 H 0.0777 0.31588 0.4138 0.0
H1269 H 0.04574 0.26498 0.40743 0.0
H1270 H 0.96952 0.29868 0.45715 0.0
H1271 H 0.99345 0.30455 0.43871 0.0
C1272 C 0.30749 0.62893 0.39038 0.0
C1273 C 0.29156 0.62271 0.38055 0.0
C1274 C 0.3132 0.6209 0.40529 0.0
C1275 C 0.29543 0.59262 0.43796 0.0
H1276 H 0.34471 0.59375 0.45477 0.0
C1277 C 0.34259 0.57153 0.50104 0.0
C1278 C 0.33213 0.57659 0.51448 0.0
C1279 C 0.33792 0.57476 0.48361 0.0
C1280 C 0.33089 0.59304 0.45017 0.0
H1281 H 0.26943 0.60285 0.37808 0.0
H1282 H 0.27969 0.58829 0.40358 0.0
H1283 H 0.33656 0.60288 0.42576 0.0
H1284 H 0.30822 0.58846 0.51996 0.0
H1285 H 0.30057 0.5948 0.49002 0.0
H1286 H 0.28973 0.58226 0.46204 0.0
C1287 C 0.28757 0.59972 0.40023 0.0
C1288 C 0.32619 0.59856 0.4336 0.0
C1289 C 0.28172 0.60797 0.38553 0.0
C1290 C 0.31677 0.58465 0.51003 0.0
C1291 C 0.3122 0.58802 0.49272 0.0
C1292 C 0.30013 0.58687 0.45436 0.0
C1293 C 0.30319 0.60631 0.41059 0.0
C1294 C 0.30837 0.5988 0.42742 0.0
C1295 C 0.3227 0.58318 0.47925 0.0
C1296 C 0.3179 0.58743 0.46091 0.0
H1297 H 0.31514 0.64051 0.38702 0.0
H1298 H 0.3251 0.62662 0.41303 0.0
H1299 H 0.28157 0.59276 0.43387 0.0
H1300 H 0.35457 0.56537 0.50404 0.0
H1301 H 0.34623 0.57067 0.47357 0.0
C1302 C 0.24578 0.36905 0.78369 0.0
C1303 C 0.26071 0.37018 0.77428 0.0
C1304 C 0.24366 0.382 0.79712 0.0
C1305 C 0.2693 0.41673 0.82775 0.0
H1306 H 0.22299 0.43008 0.83691 0.0
C1307 C 0.25916 0.46815 0.8847 0.0
C1308 C 0.24655 0.46241 0.89575 0.0
C1309 C 0.26024 0.45895 0.86831 0.0
C1310 C 0.236 0.42648 0.83449 0.0
H1311 H 0.28511 0.38568 0.77146 0.0
H1312 H 0.28128 0.40854 0.79465 0.0
H1313 H 0.22629 0.41012 0.81107 0.0
H1314 H 0.22465 0.44317 0.89804 0.0
H1315 H 0.22643 0.42717 0.86939 0.0
H1316 H 0.27896 0.43305 0.85123 0.0
C1317 C 0.27129 0.39755 0.79187 0.0
C1318 C 0.2379 0.41498 0.81974 0.0
C1319 C 0.27347 0.38451 0.77853 0.0
C1320 C 0.23455 0.4478 0.8898 0.0
C1321 C 0.2355 0.43873 0.87336 0.0
C1322 C 0.26741 0.42835 0.84239 0.0
C1323 C 0.25641 0.3964 0.80144 0.0
C1324 C 0.25453 0.40971 0.81634 0.0
C1325 C 0.24858 0.44398 0.8626 0.0
C1326 C 0.25072 0.43312 0.84608 0.0
H1327 H 0.23604 0.35783 0.78111 0.0
H1328 H 0.23225 0.38041 0.80447 0.0
H1329 H 0.28227 0.41279 0.82574 0.0
H1330 H 0.26863 0.47932 0.88903 0.0
H1331 H 0.27037 0.46335 0.86023 0.0
C1332 C 0.69185 0.94723 0.61683 0.0
C1333 C 0.67636 0.94878 0.62516 0.0
C1334 C 0.6922 0.94998 0.59904 0.0
C1335 C 0.66227 0.95047 0.55844 0.0
H1336 H 0.70414 0.97122 0.54028 0.0
C1337 C 0.68712 0.97458 0.48901 0.0
C1338 C 0.67914 0.96039 0.47739 0.0
C1339 C 0.68644 0.97436 0.50719 0.0
C1340 C 0.69225 0.96561 0.54514 0.0
H1341 H 0.64921 0.9547 0.62161 0.0
H1342 H 0.64991 0.96001 0.59078 0.0
H1343 H 0.70371 0.9693 0.57182 0.0
H1344 H 0.66376 0.93509 0.47579 0.0
H1345 H 0.66314 0.9344 0.50734 0.0
H1346 H 0.65062 0.94721 0.5319 0.0
C1347 C 0.6617 0.95627 0.59777 0.0
C1348 C 0.69209 0.96427 0.56323 0.0
C1349 C 0.66131 0.95332 0.61547 0.0
C1350 C 0.67028 0.94612 0.48436 0.0
C1351 C 0.66971 0.94585 0.50248 0.0
C1352 C 0.66238 0.95194 0.54042 0.0
C1353 C 0.67709 0.95444 0.58924 0.0
C1354 C 0.67714 0.95653 0.57009 0.0
C1355 C 0.67781 0.95993 0.51416 0.0
C1356 C 0.67743 0.95933 0.53349 0.0
H1357 H 0.7035 0.94327 0.62386 0.0
H1358 H 0.70419 0.94811 0.59285 0.0
H1359 H 0.65059 0.94423 0.56317 0.0
H1360 H 0.69417 0.98572 0.4841 0.0
H1361 H 0.69264 0.98553 0.51577 0.0
C1362 C 0.76958 0.02458 0.23782 0.0
C1363 C 0.7865 0.01997 0.24288 0.0
C1364 C 0.76054 0.01731 0.2219 0.0
C1365 C 0.769 0.99756 0.17826 0.0
H1366 H 0.71829 0.98736 0.17235 0.0
C1367 C 0.70978 0.96979 0.12041 0.0
C1368 C 0.71517 0.97967 0.10685 0.0
C1369 C 0.71861 0.9727 0.1373 0.0
C1370 C 0.73248 0.98993 0.1738 0.0
H1371 H 0.80717 0.00403 0.23543 0.0
H1372 H 0.79132 0.9911 0.20773 0.0
H1373 H 0.73314 0.99536 0.20175 0.0
H1374 H 0.73438 -6e-05 0.10025 0.0
H1375 H 0.74947 0.00528 0.12968 0.0
H1376 H 0.7684 0.99203 0.15038 0.0
C1377 C 0.78507 0.00046 0.21595 0.0
C1378 C 0.74097 0.99472 0.19063 0.0
C1379 C 0.79412 0.00779 0.23184 0.0
C1380 C 0.72975 0.99227 0.11046 0.0
C1381 C 0.73855 0.99517 0.1273 0.0
C1382 C 0.76053 0.99274 0.16147 0.0
C1383 C 0.76827 0.00533 0.21066 0.0
C1384 C 0.75931 0.99885 0.19302 0.0
C1385 C 0.73305 0.98549 0.14096 0.0
C1386 C 0.74214 0.98916 0.15899 0.0
H1387 H 0.76365 0.03443 0.24572 0.0
H1388 H 0.7478 0.02165 0.21808 0.0
H1389 H 0.78311 0.00082 0.17956 0.0
H1390 H 0.69853 0.96007 0.11806 0.0
H1391 H 0.71415 0.96491 0.14749 0.0
C1392 C 0.40438 0.2829 0.60439 0.0
C1393 C 0.39859 0.29334 0.61833 0.0
C1394 C 0.41829 0.28932 0.59532 0.0
C1395 C 0.45788 0.31985 0.60185 0.0
H1396 H 0.45744 0.31364 0.55105 0.0
C1397 C 0.5184 0.34383 0.56819 0.0
C1398 C 0.52316 0.33265 0.55427 0.0
C1399 C 0.50193 0.34102 0.57454 0.0
C1400 C 0.45786 0.31534 0.56526 0.0
H1401 H 0.40312 0.31845 0.63405 0.0
H1402 H 0.42737 0.32971 0.61817 0.0
H1403 H 0.431 0.30468 0.565 0.0
H1404 H 0.51436 0.31011 0.53569 0.0
H1405 H 0.48576 0.30482 0.54705 0.0
H1406 H 0.48481 0.32978 0.60235 0.0
C1407 C 0.421 0.31666 0.61411 0.0
C1408 C 0.44268 0.31026 0.57322 0.0
C1409 C 0.40696 0.31031 0.62305 0.0
C1410 C 0.51091 0.31902 0.54634 0.0
C1411 C 0.49451 0.31604 0.55285 0.0
C1412 C 0.47309 0.32473 0.59393 0.0
C1413 C 0.42688 0.30618 0.60024 0.0
C1414 C 0.44258 0.31238 0.5916 0.0
C1415 C 0.48995 0.32677 0.56731 0.0
C1416 C 0.47334 0.32246 0.57553 0.0
H1417 H 0.39821 0.26972 0.60058 0.0
H1418 H 0.42269 0.28087 0.58483 0.0
H1419 H 0.45829 0.32138 0.61606 0.0
H1420 H 0.52758 0.35454 0.57441 0.0
H1421 H 0.49874 0.34985 0.58536 0.0
C1422 C 0.22788 0.77994 0.02587 0.0
C1423 C 0.2418 0.77447 0.0166 0.0
C1424 C 0.21072 0.77229 0.0213 0.0
C1425 C 0.17771 0.74706 0.01561 0.0
H1426 H 0.16007 0.73732 0.96649 0.0
C1427 C 0.10951 0.71019 0.99482 0.0
C1428 C 0.09915 0.71674 0.98128 0.0
C1429 C 0.12725 0.71629 0.99852 0.0
C1430 C 0.16477 0.74004 0.98027 0.0
H1431 H 0.24847 0.75753 0.99453 0.0
H1432 H 0.21865 0.74362 0.98694 0.0
H1433 H 0.19023 0.75024 0.97425 0.0
H1434 H 0.09932 0.73465 0.96086 0.0
H1435 H 0.13028 0.74543 0.9674 0.0
H1436 H 0.15214 0.73739 0.02166 0.0
C1437 C 0.22099 0.75377 0.99782 0.0
C1438 C 0.18212 0.74726 0.98472 0.0
C1439 C 0.23815 0.76147 0.00239 0.0
C1440 C 0.10702 0.72923 0.97126 0.0
C1441 C 0.12476 0.73538 0.975 0.0
C1442 C 0.16038 0.73988 0.01116 0.0
C1443 C 0.20707 0.75905 0.00726 0.0
C1444 C 0.18877 0.75094 0.00245 0.0
C1445 C 0.13505 0.72912 0.98881 0.0
C1446 C 0.15367 0.73633 0.99344 0.0
H1447 H 0.23028 0.79009 0.03676 0.0
H1448 H 0.20028 0.77692 0.02863 0.0
H1449 H 0.18247 0.74953 0.02939 0.0
H1450 H 0.10389 0.70034 0.00258 0.0
H1451 H 0.13487 0.71092 0.00902 0.0
C1452 C 0.79759 0.22964 0.38767 0.0
C1453 C 0.78205 0.23448 0.39446 0.0
C1454 C 0.81395 0.23466 0.39704 0.0
C1455 C 0.83415 0.24788 0.44213 0.0
H1456 H 0.87538 0.26086 0.41837 0.0
C1457 C 0.90262 0.27012 0.47938 0.0
C1458 C 0.91713 0.26331 0.47206 0.0
C1459 C 0.8859 0.26755 0.47016 0.0
C1460 C 0.864 0.25713 0.42518 0.0
H1461 H 0.77159 0.2489 0.41623 0.0
H1462 H 0.80013 0.25783 0.43248 0.0
H1463 H 0.84669 0.25526 0.40153 0.0
H1464 H 0.92531 0.24791 0.44963 0.0
H1465 H 0.89625 0.24347 0.43358 0.0
H1466 H 0.85153 0.24963 0.46576 0.0
C1467 C 0.79964 0.2499 0.42001 0.0
C1468 C 0.84757 0.25393 0.41553 0.0
C1469 C 0.78327 0.24487 0.41064 0.0
C1470 C 0.91449 0.25364 0.45548 0.0
C1471 C 0.89783 0.25111 0.44627 0.0
C1472 C 0.8506 0.25112 0.45179 0.0
C1473 C 0.81515 0.24467 0.41343 0.0
C1474 C 0.83247 0.24908 0.42385 0.0
C1475 C 0.88337 0.25814 0.45342 0.0
C1476 C 0.86574 0.25558 0.44338 0.0
H1477 H 0.79713 0.2216 0.37525 0.0
H1478 H 0.82561 0.23024 0.39168 0.0
H1479 H 0.82282 0.24394 0.44892 0.0
H1480 H 0.90426 0.27778 0.49206 0.0
H1481 H 0.87503 0.27325 0.47596 0.0
C1482 C 0.60459 0.66947 0.94778 0.0
C1483 C 0.6134 0.6834 0.94031 0.0
C1484 C 0.58743 0.67054 0.95232 0.0
C1485 C 0.55339 0.70176 0.95927 0.0
H1486 H 0.52167 0.65918 0.94976 0.0
C1487 C 0.47417 0.6787 0.94955 0.0
C1488 C 0.46826 0.68923 0.96338 0.0
C1489 C 0.49211 0.67802 0.948 0.0
C1490 C 0.5303 0.67124 0.95238 0.0
H1491 H 0.61107 0.70925 0.93139 0.0
H1492 H 0.58096 0.71107 0.93902 0.0
H1493 H 0.55236 0.65841 0.9444 0.0
H1494 H 0.4767 0.70717 0.98657 0.0
H1495 H 0.50812 0.70554 0.98419 0.0
H1496 H 0.53103 0.71474 0.96648 0.0
C1497 C 0.58748 0.69951 0.94191 0.0
C1498 C 0.54801 0.67074 0.94956 0.0
C1499 C 0.60476 0.6985 0.93755 0.0
C1500 C 0.4808 0.69883 0.97583 0.0
C1501 C 0.49881 0.69807 0.97433 0.0
C1502 C 0.5356 0.70229 0.96197 0.0
C1503 C 0.57853 0.68547 0.94921 0.0
C1504 C 0.55979 0.68601 0.95287 0.0
C1505 C 0.50468 0.6877 0.96035 0.0
C1506 C 0.5238 0.68705 0.9584 0.0
H1507 H 0.611 0.65771 0.95015 0.0
H1508 H 0.58112 0.65962 0.95823 0.0
H1509 H 0.56211 0.71373 0.96218 0.0
H1510 H 0.46491 0.67091 0.93988 0.0
H1511 H 0.49611 0.67008 0.93692 0.0
C1512 C 0.64973 0.40679 0.29456 0.0
C1513 C 0.64502 0.40144 0.27668 0.0
C1514 C 0.64106 0.41978 0.30329 0.0
C1515 C 0.60068 0.44245 0.3017 0.0
H1516 H 0.63041 0.4818 0.32653 0.0
C1517 C 0.57465 0.50929 0.32112 0.0
C1518 C 0.58302 0.51983 0.33583 0.0
C1519 C 0.58086 0.49322 0.3158 0.0
C1520 C 0.62183 0.47078 0.32003 0.0
H1521 H 0.62754 0.40532 0.25389 0.0
H1522 H 0.61221 0.42795 0.26921 0.0
H1523 H 0.64373 0.45662 0.31378 0.0
H1524 H 0.60364 0.52149 0.35718 0.0
H1525 H 0.61404 0.4931 0.34845 0.0
H1526 H 0.57874 0.45651 0.30801 0.0
C1527 C 0.62252 0.422 0.27649 0.0
C1528 C 0.62952 0.45637 0.31264 0.0
C1529 C 0.63136 0.40918 0.26771 0.0
C1530 C 0.59707 0.51361 0.34571 0.0
C1531 C 0.6031 0.49743 0.34058 0.0
C1532 C 0.59294 0.45677 0.30932 0.0
C1533 C 0.62743 0.42757 0.29431 0.0
C1534 C 0.61905 0.44218 0.3032 0.0
C1535 C 0.59545 0.48727 0.32523 0.0
C1536 C 0.60343 0.47127 0.31838 0.0
H1537 H 0.66052 0.40137 0.30168 0.0
H1538 H 0.64511 0.42384 0.31702 0.0
H1539 H 0.59231 0.43157 0.29462 0.0
H1540 H 0.56391 0.51392 0.31319 0.0
H1541 H 0.57474 0.48594 0.3038 0.0
C1542 C 0.03369 0.23315 0.76404 0.0
C1543 C 0.02806 0.23787 0.78061 0.0
C1544 C 0.02761 0.21693 0.75486 0.0
C1545 C 0.99204 0.18122 0.75094 0.0
H1546 H 0.02694 0.15213 0.73345 0.0
C1547 C 0.9756 0.10748 0.72769 0.0
C1548 C 0.98459 0.10011 0.71407 0.0
C1549 C 0.98012 0.12489 0.7347 0.0
C1550 C 0.01694 0.16016 0.73792 0.0
H1551 H 0.01174 0.22944 0.80064 0.0
H1552 H 0.00095 0.2011 0.7845 0.0
H1553 H 0.03612 0.18157 0.74742 0.0
H1554 H 0.00476 0.10528 0.69655 0.0
H1555 H 0.01229 0.13582 0.70832 0.0
H1556 H 0.9728 0.15997 0.74129 0.0
C1557 C 0.00995 0.21 0.77856 0.0
C1558 C 0.02225 0.17703 0.74599 0.0
C1559 C 0.0162 0.22613 0.78783 0.0
C1560 C 0.99779 0.11061 0.70721 0.0
C1561 C 0.00215 0.12807 0.71404 0.0
C1562 C 0.98668 0.16442 0.74265 0.0
C1563 C 0.01572 0.20519 0.76206 0.0
C1564 C 0.00988 0.18766 0.75273 0.0
C1565 C 0.99358 0.13537 0.72808 0.0
C1566 C 0.99909 0.1536 0.73617 0.0
H1567 H 0.0432 0.24175 0.75839 0.0
H1568 H 0.03226 0.21353 0.74216 0.0
H1569 H 0.98222 0.18924 0.75587 0.0
H1570 H 0.96548 0.0996 0.73332 0.0
H1571 H 0.9734 0.12992 0.74567 0.0
C1572 C 0.383 0.81252 0.23667 0.0
C1573 C 0.38697 0.79646 0.24292 0.0
C1574 C 0.39379 0.82796 0.24211 0.0
C1575 C 0.439 0.844 0.25927 0.0
H1576 H 0.41849 0.88788 0.26937 0.0
C1577 C 0.4807 0.91036 0.2821 0.0
C1578 C 0.47484 0.92534 0.2749 0.0
C1579 C 0.47045 0.89418 0.27912 0.0
C1580 C 0.42444 0.87577 0.26643 0.0
H1581 H 0.40529 0.78411 0.26005 0.0
H1582 H 0.42415 0.81117 0.26956 0.0
H1583 H 0.39943 0.86058 0.26305 0.0
H1584 H 0.45415 0.93491 0.2582 0.0
H1585 H 0.43641 0.90679 0.25289 0.0
H1586 H 0.46402 0.85929 0.26238 0.0
C1587 C 0.41272 0.81173 0.26034 0.0
C1588 C 0.41351 0.86012 0.26285 0.0
C1589 C 0.40185 0.79626 0.25498 0.0
C1590 C 0.45884 0.92368 0.26423 0.0
C1591 C 0.44865 0.90757 0.26124 0.0
C1592 C 0.44997 0.8597 0.26281 0.0
C1593 C 0.40885 0.82773 0.25388 0.0
C1594 C 0.42063 0.8441 0.25898 0.0
C1595 C 0.45417 0.89268 0.26886 0.0
C1596 C 0.44277 0.8758 0.26616 0.0
H1597 H 0.37167 0.81315 0.22736 0.0
H1598 H 0.39056 0.84004 0.23673 0.0
H1599 H 0.44487 0.83188 0.25618 0.0
H1600 H 0.49294 0.91129 0.29045 0.0
H1601 H 0.47503 0.88297 0.28525 0.0
C1602 C 0.94763 0.62299 0.67349 0.0
C1603 C 0.93834 0.63288 0.68517 0.0
C1604 C 0.95474 0.60776 0.67842 0.0
C1605 C 0.96494 0.58258 0.71718 0.0
H1606 H 0.96284 0.54355 0.68112 0.0
C1607 C 0.96888 0.50962 0.73059 0.0
C1608 C 0.97951 0.49978 0.72025 0.0
C1609 C 0.96622 0.5269 0.72732 0.0
C1610 C 0.96372 0.55441 0.69128 0.0
H1611 H 0.92884 0.6345 0.71102 0.0
H1612 H 0.94075 0.60763 0.71953 0.0
H1613 H 0.95331 0.57158 0.67338 0.0
H1614 H 0.996 0.50032 0.69865 0.0
H1615 H 0.99111 0.53052 0.69272 0.0
H1616 H 0.97458 0.56487 0.73519 0.0
C1617 C 0.94317 0.6119 0.70678 0.0
C1618 C 0.95832 0.57054 0.68686 0.0
C1619 C 0.93631 0.62732 0.70192 0.0
C1620 C 0.98783 0.50767 0.70688 0.0
C1621 C 0.98495 0.52487 0.70343 0.0
C1622 C 0.97009 0.56632 0.72165 0.0
C1623 C 0.95237 0.60183 0.69503 0.0
C1624 C 0.95879 0.58485 0.69975 0.0
C1625 C 0.97393 0.53455 0.71346 0.0
C1626 C 0.96947 0.55208 0.70873 0.0
H1627 H 0.94944 0.62708 0.66052 0.0
H1628 H 0.96205 0.60062 0.66915 0.0
H1629 H 0.96579 0.59334 0.72742 0.0
H1630 H 0.96239 0.50382 0.74103 0.0
H1631 H 0.95757 0.53405 0.73516 0.0
C1632 C 0.72382 0.39755 0.6399 0.0
C1633 C 0.72499 0.37964 0.64191 0.0
C1634 C 0.7158 0.40283 0.62438 0.0
C1635 C 0.70245 0.38635 0.57766 0.0
H1636 H 0.67651 0.4277 0.57809 0.0
C1637 C 0.66219 0.40376 0.51615 0.0
C1638 C 0.66692 0.42055 0.5109 0.0
C1639 C 0.66779 0.39942 0.53289 0.0
C1640 C 0.68377 0.41616 0.57783 0.0
H1641 H 0.71867 0.35318 0.6295 0.0
H1642 H 0.70407 0.36222 0.60265 0.0
H1643 H 0.689 0.41834 0.60585 0.0
H1644 H 0.68036 0.44628 0.51964 0.0
H1645 H 0.68973 0.43875 0.54922 0.0
H1646 H 0.69678 0.38395 0.54968 0.0
C1647 C 0.70972 0.37231 0.61278 0.0
C1648 C 0.69102 0.41083 0.59369 0.0
C1649 C 0.71799 0.36708 0.62819 0.0
C1650 C 0.67641 0.43327 0.52326 0.0
C1651 C 0.68183 0.42896 0.54016 0.0
C1652 C 0.69496 0.3915 0.5619 0.0
C1653 C 0.70864 0.39027 0.61058 0.0
C1654 C 0.70053 0.39586 0.59381 0.0
C1655 C 0.67799 0.41184 0.54491 0.0
C1656 C 0.68559 0.40646 0.56182 0.0
H1657 H 0.72945 0.4075 0.65018 0.0
H1658 H 0.71557 0.41677 0.62309 0.0
H1659 H 0.71002 0.37504 0.5771 0.0
H1660 H 0.65449 0.39379 0.50714 0.0
H1661 H 0.66442 0.38621 0.53636 0.0
C1662 C 0.76152 0.62117 0.22248 0.0
C1663 C 0.76196 0.63878 0.21866 0.0
C1664 C 0.76306 0.6078 0.20924 0.0
C1665 C 0.75898 0.59942 0.1603 0.0
H1666 H 0.77882 0.556 0.17027 0.0
C1667 C 0.77007 0.54712 0.10547 0.0
C1668 C 0.75979 0.53112 0.10617 0.0
C1669 C 0.77289 0.55951 0.12009 0.0
C1670 C 0.77328 0.56809 0.16737 0.0
H1671 H 0.76486 0.65639 0.19827 0.0
H1672 H 0.76854 0.63332 0.17535 0.0
H1673 H 0.77918 0.57973 0.19383 0.0
H1674 H 0.74559 0.51509 0.12334 0.0
H1675 H 0.75112 0.53662 0.14914 0.0
H1676 H 0.75361 0.58789 0.13374 0.0
C1677 C 0.76632 0.62958 0.18834 0.0
C1678 C 0.77334 0.58166 0.18085 0.0
C1679 C 0.76437 0.64287 0.2015 0.0
C1680 C 0.75366 0.52721 0.12234 0.0
C1681 C 0.75674 0.53954 0.13709 0.0
C1682 C 0.7593 0.58605 0.14682 0.0
C1683 C 0.76537 0.61179 0.19192 0.0
C1684 C 0.76606 0.59749 0.17753 0.0
C1685 C 0.76583 0.55603 0.13586 0.0
C1686 C 0.76634 0.57025 0.15024 0.0
H1687 H 0.75934 0.61765 0.23557 0.0
H1688 H 0.7619 0.59432 0.21253 0.0
H1689 H 0.75281 0.6111 0.1572 0.0
H1690 H 0.77538 0.55039 0.09337 0.0
H1691 H 0.78011 0.57208 0.11892 0.0
C1692 C 0.29175 0.09448 0.37178 0.0
C1693 C 0.2964 0.08173 0.35921 0.0
C1694 C 0.28729 0.08982 0.38818 0.0
C1695 C 0.27607 0.05131 0.41329 0.0
H1696 H 0.29396 0.08424 0.45331 0.0
C1697 C 0.28434 0.03358 0.4856 0.0
C1698 C 0.27975 0.046 0.49861 0.0
C1699 C 0.28389 0.03735 0.46802 0.0
C1700 C 0.28868 0.075 0.44226 0.0
H1701 H 0.30043 0.05421 0.35398 0.0
H1702 H 0.29296 0.04606 0.38266 0.0
H1703 H 0.29788 0.09207 0.42374 0.0
H1704 H 0.26996 0.0716 0.50316 0.0
H1705 H 0.26951 0.07826 0.47259 0.0
H1706 H 0.2675 0.03399 0.4321 0.0
C1707 C 0.29212 0.05956 0.37973 0.0
C1708 C 0.29086 0.0795 0.42527 0.0
C1709 C 0.29638 0.06421 0.36325 0.0
C1710 C 0.27398 0.06192 0.49353 0.0
C1711 C 0.27367 0.06573 0.47603 0.0
C1712 C 0.27407 0.04672 0.43035 0.0
C1713 C 0.28773 0.07235 0.3925 0.0
C1714 C 0.28463 0.06772 0.41054 0.0
C1715 C 0.27894 0.05364 0.46316 0.0
C1716 C 0.28039 0.05853 0.44499 0.0
H1717 H 0.29166 0.10809 0.36895 0.0
H1718 H 0.28366 0.09998 0.39754 0.0
H1719 H 0.27088 0.04199 0.40227 0.0
H1720 H 0.28898 0.02126 0.48908 0.0
H1721 H 0.28815 0.02784 0.45838 0.0
C1722 C 0.22465 0.96244 0.75783 0.0
C1723 C 0.21757 0.97553 0.74844 0.0
C1724 C 0.23399 0.96682 0.77432 0.0
C1725 C 0.25567 0.00513 0.80411 0.0
H1726 H 0.25063 0.97248 0.83974 0.0
C1727 C 0.2753 0.02279 0.87883 0.0
C1728 C 0.2852 0.01082 0.8874 0.0
C1729 C 0.26821 0.0188 0.86137 0.0
C1730 C 0.25226 0.98165 0.82987 0.0
H1731 H 0.21404 0.0033 0.74909 0.0
H1732 H 0.22988 0.01096 0.77802 0.0
H1733 H 0.2358 0.96485 0.81038 0.0
H1734 H 0.29595 0.98555 0.88392 0.0
H1735 H 0.28302 0.97839 0.85371 0.0
H1736 H 0.27163 0.02219 0.82403 0.0
C1737 C 0.22889 0.9974 0.77247 0.0
C1738 C 0.24385 0.97726 0.81298 0.0
C1739 C 0.21978 0.99304 0.75589 0.0
C1740 C 0.28806 0.99491 0.87793 0.0
C1741 C 0.28075 0.99082 0.86059 0.0
C1742 C 0.26386 0.00963 0.8211 0.0
C1743 C 0.23613 0.98435 0.78194 0.0
C1744 C 0.24543 0.98893 0.79985 0.0
C1745 C 0.27067 0.00267 0.8522 0.0
C1746 C 0.26223 0.99792 0.83411 0.0
H1747 H 0.22313 0.94884 0.75232 0.0
H1748 H 0.23961 0.95644 0.78102 0.0
H1749 H 0.25749 0.01432 0.79429 0.0
H1750 H 0.27258 0.03504 0.88574 0.0
H1751 H 0.26035 0.02809 0.85522 0.0
C1752 C 0.61845 0.67946 0.37732 0.0
C1753 C 0.62143 0.69735 0.37478 0.0
C1754 C 0.60369 0.67322 0.38527 0.0
C1755 C 0.56675 0.68851 0.41011 0.0
H1756 H 0.54515 0.64173 0.39397 0.0
C1757 C 0.5012 0.66191 0.43479 0.0
C1758 C 0.48901 0.65225 0.42205 0.0
C1759 C 0.51866 0.66588 0.43119 0.0
C1760 C 0.55088 0.6549 0.39855 0.0
H1761 H 0.61076 0.72262 0.37774 0.0
H1762 H 0.5845 0.71167 0.39057 0.0
H1763 H 0.57237 0.65222 0.3829 0.0
H1764 H 0.48598 0.63826 0.39597 0.0
H1765 H 0.51578 0.64591 0.38937 0.0
H1766 H 0.5445 0.69164 0.42472 0.0
C1767 C 0.594 0.70251 0.38737 0.0
C1768 C 0.56677 0.66084 0.39241 0.0
C1769 C 0.60897 0.70878 0.37976 0.0
C1770 C 0.49488 0.64608 0.40596 0.0
C1771 C 0.51216 0.65023 0.40228 0.0
C1772 C 0.55066 0.68269 0.41598 0.0
C1773 C 0.59116 0.68463 0.39033 0.0
C1774 C 0.57483 0.67784 0.39788 0.0
C1775 C 0.52429 0.66038 0.41473 0.0
C1776 C 0.54233 0.6659 0.41003 0.0
H1777 H 0.62719 0.67013 0.37269 0.0
H1778 H 0.60211 0.6594 0.38732 0.0
H1779 H 0.5727 0.70151 0.41501 0.0
H1780 H 0.49715 0.66689 0.44732 0.0
H1781 H 0.52766 0.67345 0.44125 0.0
C1782 C 0.75498 0.22385 0.01155 0.0
C1783 C 0.74711 0.22056 0.99424 0.0
C1784 C 0.7724 0.23121 0.01486 0.0
C1785 C 0.81336 0.2394 0.99246 0.0
H1786 H 0.82824 0.26989 0.03509 0.0
C1787 C 0.88063 0.28073 0.00467 0.0
C1788 C 0.89092 0.27763 0.02003 0.0
C1789 C 0.86293 0.27426 0.00183 0.0
C1790 C 0.82422 0.26134 0.02318 0.0
H1791 H 0.75105 0.22247 0.96682 0.0
H1792 H 0.78114 0.23612 0.97252 0.0
H1793 H 0.79749 0.25811 0.0292 0.0
H1794 H 0.89028 0.26548 0.04461 0.0
H1795 H 0.85911 0.25489 0.03991 0.0
H1796 H 0.84009 0.24329 0.98624 0.0
C1797 C 0.77418 0.23255 0.9836 0.0
C1798 C 0.80664 0.25448 0.01981 0.0
C1799 C 0.75688 0.22486 0.98029 0.0
C1800 C 0.8828 0.26837 0.03275 0.0
C1801 C 0.86497 0.26221 0.03004 0.0
C1802 C 0.83083 0.24656 0.99567 0.0
C1803 C 0.78227 0.23569 0.00093 0.0
C1804 C 0.80095 0.24333 0.00443 0.0
C1805 C 0.85499 0.26488 0.01445 0.0
C1806 C 0.83642 0.25752 0.01108 0.0
H1807 H 0.74782 0.22026 0.02251 0.0
H1808 H 0.7782 0.233 0.02835 0.0
H1809 H 0.80969 0.23057 0.98069 0.0
H1810 H 0.88622 0.28819 0.99477 0.0
H1811 H 0.8554 0.27666 0.98979 0.0
C1812 C 0.2274 0.76629 0.61123 0.0
C1813 C 0.22246 0.76499 0.62835 0.0
C1814 C 0.21461 0.76604 0.59704 0.0
C1815 C 0.16905 0.77415 0.58501 0.0
H1816 H 0.17013 0.73845 0.54613 0.0
C1817 C 0.11613 0.73524 0.52966 0.0
C1818 C 0.10888 0.74906 0.52155 0.0
C1819 C 0.13178 0.73839 0.54065 0.0
C1820 C 0.16978 0.74857 0.55683 0.0
H1821 H 0.20039 0.76258 0.64414 0.0
H1822 H 0.17799 0.76254 0.61934 0.0
H1823 H 0.19408 0.74241 0.56984 0.0
H1824 H 0.11227 0.77687 0.51818 0.0
H1825 H 0.13958 0.78251 0.53788 0.0
H1826 H 0.14464 0.78017 0.5721 0.0
C1827 C 0.19175 0.76377 0.61693 0.0
C1828 C 0.18347 0.75088 0.57032 0.0
C1829 C 0.20453 0.7637 0.63107 0.0
C1830 C 0.11774 0.76601 0.52422 0.0
C1831 C 0.13324 0.76923 0.53552 0.0
C1832 C 0.15552 0.77205 0.57135 0.0
C1833 C 0.19668 0.76472 0.59976 0.0
C1834 C 0.18305 0.76346 0.5847 0.0
C1835 C 0.14025 0.75548 0.544 0.0
C1836 C 0.1556 0.75902 0.55731 0.0
H1837 H 0.24113 0.76687 0.60871 0.0
H1838 H 0.21873 0.76675 0.58391 0.0
H1839 H 0.16847 0.78397 0.59593 0.0
H1840 H 0.10945 0.72208 0.5278 0.0
H1841 H 0.13683 0.72759 0.54715 0.0
C1842 C 0.35327 0.28172 0.06527 0.0
C1843 C 0.34847 0.29856 0.07041 0.0
C1844 C 0.37046 0.27942 0.06125 0.0
C1845 C 0.4157 0.29936 0.07048 0.0
H1846 H 0.42468 0.27233 0.02758 0.0
C1847 C 0.48567 0.29841 0.04927 0.0
C1848 C 0.49068 0.28251 0.04165 0.0
C1849 C 0.46811 0.30019 0.05202 0.0
C1850 C 0.42242 0.27971 0.03974 0.0
H1851 H 0.35802 0.32612 0.07587 0.0
H1852 H 0.38805 0.32205 0.06911 0.0
H1853 H 0.39438 0.2754 0.03421 0.0
H1854 H 0.48132 0.25606 0.03071 0.0
H1855 H 0.45061 0.25894 0.03594 0.0
H1856 H 0.44356 0.30339 0.07635 0.0
C1857 C 0.37849 0.31067 0.06802 0.0
C1858 C 0.40507 0.2815 0.04349 0.0
C1859 C 0.3613 0.31298 0.07186 0.0
C1860 C 0.47774 0.2685 0.03651 0.0
C1861 C 0.46016 0.2702 0.03947 0.0
C1862 C 0.43301 0.29741 0.06686 0.0
C1863 C 0.38323 0.29387 0.06263 0.0
C1864 C 0.40156 0.29148 0.05882 0.0
C1865 C 0.45516 0.28602 0.04744 0.0
C1866 C 0.43663 0.28771 0.05136 0.0
H1867 H 0.34396 0.27025 0.06489 0.0
H1868 H 0.37388 0.26628 0.05751 0.0
H1869 H 0.41337 0.30689 0.08254 0.0
H1870 H 0.49537 0.30951 0.0531 0.0
H1871 H 0.46472 0.31272 0.05776 0.0
C1872 C 0.38423 0.6143 0.71159 0.0
C1873 C 0.3685 0.61694 0.70183 0.0
C1874 C 0.39469 0.60133 0.70566 0.0
C1875 C 0.40144 0.57197 0.66586 0.0
H1876 H 0.42397 0.54459 0.70007 0.0
C1877 C 0.4256 0.50379 0.64862 0.0
C1878 C 0.44181 0.5002 0.65688 0.0
C1879 C 0.41843 0.51952 0.65321 0.0
C1880 C 0.41796 0.55228 0.69038 0.0
H1881 H 0.35084 0.60759 0.67874 0.0
H1882 H 0.3688 0.58474 0.66853 0.0
H1883 H 0.40781 0.569 0.71009 0.0
H1884 H 0.46342 0.51035 0.67614 0.0
H1885 H 0.45078 0.53788 0.68429 0.0
H1886 H 0.41109 0.5547 0.64615 0.0
C1887 C 0.37353 0.5931 0.68037 0.0
C1888 C 0.40872 0.56632 0.69611 0.0
C1889 C 0.36321 0.6062 0.68621 0.0
C1890 C 0.45096 0.51286 0.66949 0.0
C1891 C 0.44367 0.52851 0.67424 0.0
C1892 C 0.41053 0.55781 0.66013 0.0
C1893 C 0.38944 0.59052 0.68998 0.0
C1894 C 0.40017 0.57624 0.68392 0.0
C1895 C 0.42723 0.53189 0.66631 0.0
C1896 C 0.41874 0.54773 0.67233 0.0
H1897 H 0.38856 0.62242 0.72371 0.0
H1898 H 0.40694 0.59987 0.71331 0.0
H1899 H 0.39534 0.57953 0.6561 0.0
H1900 H 0.41832 0.49428 0.63881 0.0
H1901 H 0.40567 0.52171 0.64697 0.0
C1902 C 0.00043 0.75895 0.22255 0.0
C1903 C 0.98251 0.75323 0.21887 0.0
C1904 C 0.00569 0.77586 0.23056 0.0
C1905 C 0.98905 0.81963 0.23961 0.0
H1906 H 0.0311 0.82791 0.27216 0.0
C1907 C 0.01663 0.88992 0.26616 0.0
C1908 C 0.02401 0.89269 0.28367 0.0
C1909 C 0.01231 0.87286 0.25814 0.0
C1910 C 0.01921 0.82584 0.26326 0.0
H1911 H 0.956 0.76054 0.2206 0.0
H1912 H 0.96507 0.78982 0.23527 0.0
H1913 H 0.02151 0.79821 0.25927 0.0
H1914 H 0.03273 0.87995 0.30658 0.0
H1915 H 0.02463 0.85012 0.29287 0.0
H1916 H 0.98621 0.84706 0.24424 0.0
C1917 C 0.97515 0.78149 0.23161 0.0
C1918 C 0.01384 0.80879 0.25563 0.0
C1919 C 0.96991 0.76468 0.22332 0.0
C1920 C 0.0272 0.87812 0.29299 0.0
C1921 C 0.02261 0.86103 0.28507 0.0
C1922 C 0.99426 0.83661 0.24742 0.0
C1923 C 0.99312 0.78736 0.23525 0.0
C1924 C 0.99872 0.80547 0.24364 0.0
C1925 C 0.01498 0.85817 0.26757 0.0
C1926 C 0.00947 0.83999 0.25929 0.0
H1927 H 0.01039 0.75051 0.21881 0.0
H1928 H 0.01963 0.78 0.23277 0.0
H1929 H 0.97748 0.81769 0.23026 0.0
H1930 H 0.01422 0.90098 0.25865 0.0
H1931 H 0.00688 0.87124 0.24453 0.0
C1932 C 0.60387 0.23217 0.74602 0.0
C1933 C 0.61741 0.23404 0.75975 0.0
C1934 C 0.5889 0.22055 0.74669 0.0
C1935 C 0.56518 0.19306 0.77699 0.0
H1936 H 0.54621 0.16617 0.73335 0.0
C1937 C 0.52631 0.12468 0.7718 0.0
C1938 C 0.51214 0.12092 0.75878 0.0
C1939 C 0.53628 0.14095 0.77342 0.0
C1940 C 0.55114 0.17378 0.7456 0.0
H1941 H 0.6263 0.22486 0.78464 0.0
H1942 H 0.60048 0.20426 0.7857 0.0
H1943 H 0.56965 0.18954 0.73292 0.0
H1944 H 0.49669 0.13136 0.73779 0.0
H1945 H 0.51433 0.15988 0.74044 0.0
H1946 H 0.5472 0.17645 0.78968 0.0
C1947 C 0.60096 0.21223 0.77471 0.0
C1948 C 0.56459 0.18724 0.74538 0.0
C1949 C 0.61581 0.22403 0.77412 0.0
C1950 C 0.50749 0.13404 0.74801 0.0
C1951 C 0.51764 0.15025 0.74944 0.0
C1952 C 0.55188 0.17941 0.77722 0.0
C1953 C 0.58732 0.21026 0.76096 0.0
C1954 C 0.572 0.1969 0.7611 0.0
C1955 C 0.53241 0.15367 0.76186 0.0
C1956 C 0.5449 0.1695 0.76155 0.0
H1957 H 0.6048 0.2398 0.7348 0.0
H1958 H 0.57859 0.21964 0.736 0.0
H1959 H 0.57027 0.20043 0.78931 0.0
H1960 H 0.53013 0.11472 0.78022 0.0
H1961 H 0.54765 0.14317 0.78301 0.0
C1962 C 0.07032 0.37232 0.28992 0.0
C1963 C 0.07689 0.36781 0.30646 0.0
C1964 C 0.06401 0.38876 0.28818 0.0
C1965 C 0.06864 0.43374 0.30961 0.0
H1966 H 0.02439 0.43904 0.2829 0.0
C1967 C 0.04028 0.50037 0.31178 0.0
C1968 C 0.0332 0.50576 0.29584 0.0
C1969 C 0.04405 0.483 0.31293 0.0
C1970 C 0.03686 0.43779 0.29026 0.0
H1971 H 0.08222 0.37705 0.3341 0.0
H1972 H 0.0714 0.40573 0.33105 0.0
H1973 H 0.03444 0.40971 0.28475 0.0
H1974 H 0.02383 0.49717 0.26877 0.0
H1975 H 0.03075 0.46672 0.27061 0.0
H1976 H 0.07135 0.46167 0.31493 0.0
C1977 C 0.07107 0.39657 0.31943 0.0
C1978 C 0.0426 0.42101 0.29131 0.0
C1979 C 0.07725 0.38015 0.32117 0.0
C1980 C 0.02922 0.49328 0.28123 0.0
C1981 C 0.03317 0.47587 0.28232 0.0
C1982 C 0.06299 0.45046 0.30847 0.0
C1983 C 0.06443 0.40109 0.30292 0.0
C1984 C 0.05847 0.41882 0.30116 0.0
C1985 C 0.04103 0.47064 0.29809 0.0
C1986 C 0.04694 0.45271 0.29895 0.0
H1987 H 0.07057 0.36343 0.27822 0.0
H1988 H 0.05927 0.39203 0.27525 0.0
H1989 H 0.0811 0.4325 0.31701 0.0
H1990 H 0.04322 0.50971 0.32331 0.0
H1991 H 0.04963 0.47933 0.32541 0.0
C1992 C 0.38269 0.61412 0.34925 0.0
C1993 C 0.37245 0.60881 0.36258 0.0
C1994 C 0.39884 0.60737 0.34712 0.0
C1995 C 0.42456 0.57037 0.35757 0.0
H1996 H 0.46456 0.60248 0.35015 0.0
C1997 C 0.49559 0.5497 0.36161 0.0
C1998 C 0.50745 0.55741 0.3509 0.0
C1999 C 0.47876 0.55537 0.36229 0.0
C2000 C 0.45352 0.5932 0.35189 0.0
H2001 H 0.37128 0.59241 0.38426 0.0
H2002 H 0.39961 0.58091 0.38072 0.0
H2003 H 0.43596 0.61336 0.35207 0.0
H2004 H 0.51083 0.57647 0.33183 0.0
H2005 H 0.48136 0.58588 0.33243 0.0
H2006 H 0.442 0.55001 0.35672 0.0
C2007 C 0.39499 0.59004 0.37172 0.0
C2008 C 0.43709 0.59954 0.35317 0.0
C2009 C 0.37881 0.59674 0.37383 0.0
C2010 C 0.50204 0.57048 0.34043 0.0
C2011 C 0.48515 0.57595 0.34088 0.0
C2012 C 0.44096 0.56393 0.35597 0.0
C2013 C 0.40518 0.59526 0.35833 0.0
C2014 C 0.42247 0.58827 0.35625 0.0
C2015 C 0.47335 0.56868 0.35202 0.0
C2016 C 0.45571 0.5753 0.35324 0.0
H2017 H 0.37818 0.62338 0.34034 0.0
H2018 H 0.40631 0.61153 0.33658 0.0
H2019 H 0.41347 0.56129 0.35964 0.0
H2020 H 0.4995 0.53958 0.3698 0.0
H2021 H 0.47019 0.5496 0.37121 0.0
C2022 C 0.16449 0.38049 0.74906 0.0
C2023 C 0.17985 0.39027 0.74528 0.0
C2024 C 0.14825 0.38756 0.74755 0.0
C2025 C 0.12826 0.42982 0.74527 0.0
H2026 H 0.08706 0.40006 0.72427 0.0
C2027 C 0.06367 0.45783 0.72199 0.0
C2028 C 0.04785 0.44889 0.72567 0.0
C2029 C 0.07962 0.45056 0.72515 0.0
C2030 C 0.0984 0.40849 0.73035 0.0
H2031 H 0.1902 0.41518 0.737 0.0
H2032 H 0.1619 0.42737 0.73411 0.0
H2033 H 0.11522 0.38762 0.72847 0.0
H2034 H 0.03624 0.4253 0.73558 0.0
H2035 H 0.06414 0.41258 0.74111 0.0
H2036 H 0.11147 0.45074 0.74691 0.0
C2037 C 0.16241 0.41435 0.73852 0.0
C2038 C 0.11454 0.40136 0.73278 0.0
C2039 C 0.17864 0.40731 0.74008 0.0
C2040 C 0.04823 0.4325 0.73257 0.0
C2041 C 0.0642 0.42517 0.73566 0.0
C2042 C 0.11214 0.43695 0.74278 0.0
C2043 C 0.147 0.40455 0.74219 0.0
C2044 C 0.12969 0.41197 0.74017 0.0
C2045 C 0.08007 0.43414 0.73201 0.0
C2046 C 0.09706 0.4264 0.73519 0.0
H2047 H 0.16498 0.36735 0.75318 0.0
H2048 H 0.13668 0.37975 0.75071 0.0
H2049 H 0.13958 0.43829 0.75129 0.0
H2050 H 0.06371 0.47047 0.71663 0.0
H2051 H 0.09159 0.45769 0.72198 0.0
C2052 C 0.7856 0.97058 0.64385 0.0
C2053 C 0.77107 0.97876 0.64953 0.0
C2054 C 0.80261 0.97902 0.64732 0.0
C2055 C 0.82717 0.02272 0.66007 0.0
H2056 H 0.8645 0.99524 0.67639 0.0
C2057 C 0.89396 0.05466 0.69335 0.0
C2058 C 0.90917 0.04694 0.68902 0.0
C2059 C 0.87729 0.04641 0.68738 0.0
C2060 C 0.85428 0.00306 0.67163 0.0
H2061 H 0.763 0.00237 0.66306 0.0
H2062 H 0.79263 0.01697 0.66927 0.0
H2063 H 0.83507 0.98079 0.66782 0.0
H2064 H 0.91894 0.02456 0.6749 0.0
H2065 H 0.88983 0.01017 0.66443 0.0
H2066 H 0.84635 0.04503 0.66412 0.0
C2067 C 0.79089 0.00413 0.66194 0.0
C2068 C 0.8374 0.99477 0.66669 0.0
C2069 C 0.77389 0.9957 0.65847 0.0
C2070 C 0.90744 0.03082 0.67852 0.0
C2071 C 0.89077 0.02254 0.67258 0.0
C2072 C 0.84403 0.031 0.66503 0.0
C2073 C 0.80547 0.99584 0.65655 0.0
C2074 C 0.82361 0.00452 0.66099 0.0
C2075 C 0.8755 0.03022 0.67697 0.0
C2076 C 0.85775 0.0213 0.671 0.0
H2077 H 0.78388 0.95757 0.63687 0.0
H2078 H 0.81353 0.97237 0.64277 0.0
H2079 H 0.81692 0.03057 0.65545 0.0
H2080 H 0.89494 0.06706 0.70145 0.0
H2081 H 0.86581 0.05257 0.6912 0.0
C2082 C 0.69912 0.98429 0.25555 0.0
C2083 C 0.70706 0.99929 0.26601 0.0
C2084 C 0.68131 0.97885 0.25622 0.0
C2085 C 0.64459 0.98352 0.28426 0.0
H2086 H 0.61547 0.96642 0.24134 0.0
C2087 C 0.56886 0.97317 0.28121 0.0
C2088 C 0.5605 0.95801 0.27132 0.0
C2089 C 0.58686 0.97766 0.28072 0.0
C2090 C 0.62347 0.97097 0.25346 0.0
H2091 H 0.70247 0.02045 0.28526 0.0
H2092 H 0.6714 0.01114 0.28622 0.0
H2093 H 0.64661 0.97544 0.24005 0.0
H2094 H 0.56437 0.93561 0.25334 0.0
H2095 H 0.59591 0.94345 0.25249 0.0
H2096 H 0.6214 0.97923 0.29764 0.0
C2097 C 0.67898 0.00337 0.27772 0.0
C2098 C 0.64133 0.97613 0.25273 0.0
C2099 C 0.69679 0.00878 0.27709 0.0
C2100 C 0.5705 0.94739 0.26104 0.0
C2101 C 0.58851 0.95193 0.26049 0.0
C2102 C 0.62674 0.97842 0.28498 0.0
C2103 C 0.67103 0.98831 0.26734 0.0
C2104 C 0.65209 0.98254 0.26812 0.0
C2105 C 0.59688 0.96714 0.27031 0.0
C2106 C 0.61596 0.97215 0.26958 0.0
H2107 H 0.70667 0.97664 0.2469 0.0
H2108 H 0.67567 0.96707 0.2482 0.0
H2109 H 0.65256 0.98808 0.29641 0.0
H2110 H 0.56152 0.98163 0.28928 0.0
H2111 H 0.59288 0.98957 0.28828 0.0
C2112 C 0.36781 0.3846 0.61119 0.0
C2113 C 0.37892 0.37303 0.60356 0.0
C2114 C 0.36705 0.40154 0.60588 0.0
C2115 C 0.3734 0.42701 0.56844 0.0
H2116 H 0.37579 0.46765 0.60265 0.0
C2117 C 0.37349 0.49761 0.54724 0.0
C2118 C 0.36397 0.50937 0.55676 0.0
C2119 C 0.37634 0.48122 0.55318 0.0
C2120 C 0.37487 0.45643 0.59292 0.0
H2121 H 0.39777 0.37015 0.58414 0.0
H2122 H 0.39608 0.39961 0.57458 0.0
H2123 H 0.37868 0.43853 0.61266 0.0
H2124 H 0.34977 0.51318 0.57991 0.0
H2125 H 0.35431 0.48453 0.59002 0.0
H2126 H 0.36911 0.44468 0.5487 0.0
C2127 C 0.38811 0.39557 0.58481 0.0
C2128 C 0.37659 0.43977 0.59867 0.0
C2129 C 0.38908 0.37872 0.59032 0.0
C2130 C 0.3573 0.50446 0.57233 0.0
C2131 C 0.36001 0.48804 0.5782 0.0
C2132 C 0.37149 0.44363 0.56268 0.0
C2133 C 0.37711 0.40715 0.59256 0.0
C2134 C 0.3758 0.4249 0.58649 0.0
C2135 C 0.36956 0.47619 0.56871 0.0
C2136 C 0.37213 0.45856 0.57484 0.0
H2137 H 0.35963 0.38057 0.62127 0.0
H2138 H 0.35831 0.41014 0.61194 0.0
H2139 H 0.37254 0.41573 0.55877 0.0
H2140 H 0.37881 0.50112 0.53521 0.0
H2141 H 0.38397 0.47257 0.54566 0.0
C2142 C 0.25239 0.68787 0.9636 0.0
C2143 C 0.25973 0.69368 0.98076 0.0
C2144 C 0.2507 0.66997 0.95772 0.0
C2145 C 0.24873 0.62579 0.97367 0.0
H2146 H 0.26056 0.61092 0.92683 0.0
C2147 C 0.25354 0.55284 0.9507 0.0
C2148 C 0.24671 0.54684 0.93343 0.0
C2149 C 0.25508 0.57078 0.95633 0.0
C2150 C 0.257 0.61486 0.93986 0.0
H2151 H 0.27103 0.68521 0.00522 0.0
H2152 H 0.26815 0.65402 0.99492 0.0
H2153 H 0.26322 0.64217 0.93693 0.0
H2154 H 0.23621 0.55481 0.90852 0.0
H2155 H 0.23869 0.58619 0.91839 0.0
H2156 H 0.24246 0.59852 0.97662 0.0
C2157 C 0.26355 0.66329 0.98606 0.0
C2158 C 0.25853 0.63277 0.94566 0.0
C2159 C 0.26529 0.68118 0.99193 0.0
C2160 C 0.24154 0.55911 0.92189 0.0
C2161 C 0.24306 0.57707 0.92752 0.0
C2162 C 0.24716 0.60789 0.96787 0.0
C2163 C 0.25625 0.65747 0.96888 0.0
C2164 C 0.25446 0.63844 0.96265 0.0
C2165 C 0.24981 0.58312 0.94483 0.0
C2166 C 0.25132 0.6022 0.95092 0.0
H2167 H 0.24794 0.69713 0.95467 0.0
H2168 H 0.24483 0.6659 0.94448 0.0
H2169 H 0.24522 0.62975 0.98673 0.0
H2170 H 0.25774 0.54371 0.9599 0.0
H2171 H 0.26059 0.575 0.96966 0.0
C2172 C 0.7026 0.14799 0.36987 0.0
C2173 C 0.71305 0.15916 0.38293 0.0
C2174 C 0.69514 0.13159 0.37371 0.0
C2175 C 0.68493 0.10555 0.41105 0.0
H2176 H 0.68754 0.06547 0.37722 0.0
C2177 C 0.6608 0.03538 0.42543 0.0
C2178 C 0.67145 0.02205 0.42075 0.0
C2179 C 0.66362 0.05204 0.41946 0.0
C2180 C 0.68678 0.07651 0.38685 0.0
H2181 H 0.72351 0.16203 0.41035 0.0
H2182 H 0.71084 0.1335 0.41691 0.0
H2183 H 0.69658 0.09497 0.36977 0.0
H2184 H 0.69331 0.01556 0.40596 0.0
H2185 H 0.69854 0.04469 0.39589 0.0
H2186 H 0.676 0.0871 0.42847 0.0
C2187 C 0.70812 0.13742 0.40378 0.0
C2188 C 0.69174 0.09347 0.38248 0.0
C2189 C 0.71551 0.15378 0.39997 0.0
C2190 C 0.68481 0.02555 0.40973 0.0
C2191 C 0.68773 0.04225 0.40385 0.0
C2192 C 0.68008 0.08861 0.41546 0.0
C2193 C 0.69799 0.12603 0.39067 0.0
C2194 C 0.69115 0.10817 0.39464 0.0
C2195 C 0.67728 0.05576 0.40879 0.0
C2196 C 0.68118 0.07385 0.40352 0.0
H2197 H 0.7004 0.15178 0.35662 0.0
H2198 H 0.68722 0.12324 0.36336 0.0
H2199 H 0.68405 0.11659 0.42064 0.0
H2200 H 0.65036 0.03296 0.43386 0.0
H2201 H 0.65513 0.06202 0.42329 0.0
C2202 C 0.65015 0.78424 0.97302 0.0
C2203 C 0.63938 0.77181 0.98067 0.0
C2204 C 0.65438 0.80121 0.98133 0.0
C2205 C 0.65766 0.82592 0.02505 0.0
H2206 H 0.66139 0.86663 0.99832 0.0
C2207 C 0.69281 0.89263 0.05475 0.0
C2208 C 0.68533 0.90796 0.05042 0.0
C2209 C 0.68616 0.87625 0.04632 0.0
C2210 C 0.66025 0.85542 0.00601 0.0
H2211 H 0.62422 0.76761 0.00286 0.0
H2212 H 0.63147 0.79728 0.01727 0.0
H2213 H 0.65098 0.83781 0.98329 0.0
H2214 H 0.66489 0.91822 0.03393 0.0
H2215 H 0.65317 0.88957 0.01927 0.0
H2216 H 0.66677 0.84353 0.04779 0.0
C2217 C 0.63686 0.79382 0.00496 0.0
C2218 C 0.65447 0.83887 0.99736 0.0
C2219 C 0.63263 0.77684 0.99664 0.0
C2220 C 0.67099 0.90663 0.03751 0.0
C2221 C 0.66433 0.89022 0.02905 0.0
C2222 C 0.66345 0.84245 0.03369 0.0
C2223 C 0.64793 0.80615 0.99749 0.0
C2224 C 0.65324 0.8239 0.00676 0.0
C2225 C 0.67184 0.87484 0.03335 0.0
C2226 C 0.66497 0.85738 0.02425 0.0
H2227 H 0.6556 0.78081 0.96073 0.0
H2228 H 0.66311 0.8103 0.97531 0.0
H2229 H 0.65704 0.81464 0.03267 0.0
H2230 H 0.7039 0.89333 0.06464 0.0
H2231 H 0.69243 0.8647 0.04977 0.0
C2232 C 0.63476 0.35432 0.35931 0.0
C2233 C 0.62666 0.36682 0.34982 0.0
C2234 C 0.62894 0.34999 0.37531 0.0
C2235 C 0.60398 0.36679 0.41152 0.0
H2236 H 0.60325 0.31867 0.42373 0.0
C2237 C 0.57483 0.34439 0.47403 0.0
C2238 C 0.58471 0.33336 0.48384 0.0
C2239 C 0.57935 0.34828 0.45739 0.0
C2240 C 0.60351 0.33219 0.42056 0.0
H2241 H 0.60607 0.38459 0.34972 0.0
H2242 H 0.59585 0.37696 0.3776 0.0
H2243 H 0.61193 0.32572 0.3951 0.0
H2244 H 0.60696 0.31772 0.48404 0.0
H2245 H 0.61487 0.32448 0.45496 0.0
H2246 H 0.59562 0.37323 0.43705 0.0
C2247 C 0.60684 0.37063 0.37277 0.0
C2248 C 0.60848 0.33625 0.40414 0.0
C2249 C 0.61264 0.37494 0.35673 0.0
C2250 C 0.59909 0.3262 0.47669 0.0
C2251 C 0.60356 0.33001 0.46003 0.0
C2252 C 0.59896 0.36272 0.42791 0.0
C2253 C 0.61492 0.3581 0.38227 0.0
C2254 C 0.60891 0.35363 0.39946 0.0
C2255 C 0.59377 0.34113 0.45022 0.0
C2256 C 0.59874 0.34539 0.43264 0.0
H2257 H 0.64562 0.34783 0.35439 0.0
H2258 H 0.63559 0.34041 0.3823 0.0
H2259 H 0.6045 0.38037 0.40851 0.0
H2260 H 0.56367 0.35012 0.47921 0.0
H2261 H 0.57146 0.35676 0.45007 0.0
C2262 C 0.98498 0.24848 0.69562 0.0
C2263 C 0.00058 0.25875 0.7023 0.0
C2264 C 0.9785 0.24855 0.678 0.0
C2265 C 0.98146 0.27484 0.63981 0.0
H2266 H 0.96218 0.23131 0.61287 0.0
C2267 C 0.96814 0.26893 0.56433 0.0
C2268 C 0.95254 0.25923 0.55678 0.0
C2269 C 0.97321 0.26903 0.58228 0.0
C2270 C 0.96733 0.2436 0.62028 0.0
H2271 H 0.02169 0.277 0.69565 0.0
H2272 H 0.01054 0.27692 0.66493 0.0
H2273 H 0.97268 0.23104 0.64381 0.0
H2274 H 0.92995 0.24217 0.56203 0.0
H2275 H 0.93882 0.24234 0.59352 0.0
H2276 H 0.9763 0.28735 0.61623 0.0
C2277 C 0.00314 0.26904 0.67336 0.0
C2278 C 0.97334 0.24346 0.63801 0.0
C2279 C 0.0096 0.269 0.69096 0.0
C2280 C 0.94206 0.24972 0.56754 0.0
C2281 C 0.94718 0.24975 0.58551 0.0
C2282 C 0.9755 0.27497 0.62209 0.0
C2283 C 0.98747 0.25888 0.66668 0.0
C2284 C 0.9806 0.25906 0.64796 0.0
C2285 C 0.96283 0.25941 0.59307 0.0
C2286 C 0.96849 0.25934 0.61209 0.0
H2287 H 0.97769 0.24047 0.70401 0.0
H2288 H 0.9663 0.24072 0.67334 0.0
H2289 H 0.98664 0.28715 0.64716 0.0
H2290 H 0.97651 0.27642 0.5564 0.0
H2291 H 0.98544 0.27643 0.58765 0.0
C2292 C 0.37999 0.71367 0.16028 0.0
C2293 C 0.36491 0.72222 0.16357 0.0
C2294 C 0.38298 0.70781 0.14312 0.0
C2295 C 0.36207 0.69859 0.09735 0.0
H2296 H 0.40934 0.71095 0.08511 0.0
C2297 C 0.37934 0.70061 0.02546 0.0
C2298 C 0.39562 0.69511 0.02127 0.0
C2299 C 0.37509 0.70185 0.04288 0.0
C2300 C 0.39614 0.70713 0.08833 0.0
H2301 H 0.3407 0.73048 0.15147 0.0
H2302 H 0.34601 0.72038 0.12152 0.0
H2303 H 0.40262 0.71621 0.11544 0.0
H2304 H 0.42002 0.68603 0.03196 0.0
H2305 H 0.41255 0.688 0.0623 0.0
H2306 H 0.35557 0.68976 0.0701 0.0
C2307 C 0.35547 0.71811 0.13222 0.0
C2308 C 0.39228 0.71014 0.10575 0.0
C2309 C 0.35247 0.72397 0.1494 0.0
C2310 C 0.40742 0.69046 0.03477 0.0
C2311 C 0.40316 0.69167 0.05219 0.0
C2312 C 0.36594 0.69555 0.07989 0.0
C2313 C 0.37098 0.71035 0.12884 0.0
C2314 C 0.37518 0.70604 0.11046 0.0
C2315 C 0.38703 0.69757 0.05649 0.0
C2316 C 0.383 0.69993 0.07515 0.0
H2317 H 0.38978 0.71197 0.17091 0.0
H2318 H 0.39489 0.70158 0.141 0.0
H2319 H 0.34881 0.6951 0.10059 0.0
H2320 H 0.37002 0.70427 0.01527 0.0
H2321 H 0.36264 0.70663 0.04574 0.0
C2322 C 0.95896 0.65688 0.78729 0.0
C2323 C 0.9646 0.66477 0.77258 0.0
C2324 C 0.9685 0.66054 0.80377 0.0
C2325 C 0.00115 0.69367 0.82893 0.0
H2326 H 0.00757 0.65677 0.85988 0.0
C2327 C 0.04807 0.70454 0.89259 0.0
C2328 C 0.04199 0.69773 0.90761 0.0
C2329 C 0.03873 0.70018 0.87611 0.0
C2330 C 0.00574 0.66724 0.85145 0.0
H2331 H 0.98488 0.68248 0.76362 0.0
H2332 H 0.00163 0.68866 0.79225 0.0
H2333 H 0.99113 0.64972 0.83108 0.0
H2334 H 0.02146 0.6808 0.91722 0.0
H2335 H 0.00509 0.67325 0.88844 0.0
H2336 H 0.01579 0.71118 0.84926 0.0
C2337 C 0.98965 0.67988 0.79114 0.0
C2338 C 0.99631 0.66321 0.83495 0.0
C2339 C 0.9801 0.67625 0.77469 0.0
C2340 C 0.02648 0.68628 0.90586 0.0
C2341 C 0.01715 0.68187 0.88936 0.0
C2342 C 0.0106 0.69768 0.84538 0.0
C2343 C 0.98393 0.67216 0.8059 0.0
C2344 C 0.99392 0.67638 0.82348 0.0
C2345 C 0.02312 0.68886 0.87431 0.0
C2346 C 0.01303 0.68452 0.85683 0.0
H2347 H 0.94705 0.648 0.78614 0.0
H2348 H 0.96361 0.65452 0.8149 0.0
H2349 H 0.99928 0.70419 0.82057 0.0
H2350 H 0.06004 0.71333 0.89359 0.0
H2351 H 0.04381 0.70559 0.86474 0.0
C2352 C 0.64519 0.40221 0.64064 0.0
C2353 C 0.65781 0.41132 0.65331 0.0
C2354 C 0.62843 0.40797 0.63791 0.0
C2355 C 0.59733 0.43451 0.6601 0.0
H2356 H 0.5725 0.43077 0.61349 0.0
C2357 C 0.5282 0.45843 0.64743 0.0
C2358 C 0.51592 0.4468 0.63655 0.0
C2359 C 0.54603 0.45553 0.64882 0.0
C2360 C 0.57924 0.4318 0.6266 0.0
H2361 H 0.6629 0.4339 0.67271 0.0
H2362 H 0.63375 0.4441 0.66776 0.0
H2363 H 0.60283 0.42326 0.61702 0.0
H2364 H 0.51256 0.42322 0.61845 0.0
H2365 H 0.54367 0.41812 0.62086 0.0
H2366 H 0.57368 0.44293 0.66968 0.0
C2367 C 0.63669 0.43232 0.66016 0.0
C2368 C 0.59661 0.42748 0.62863 0.0
C2369 C 0.65344 0.42652 0.66293 0.0
C2370 C 0.52179 0.43241 0.62689 0.0
C2371 C 0.5396 0.42956 0.6282 0.0
C2372 C 0.57999 0.43889 0.65806 0.0
C2373 C 0.62393 0.42301 0.64774 0.0
C2374 C 0.6058 0.42858 0.64543 0.0
C2375 C 0.55191 0.441 0.63929 0.0
C2376 C 0.57068 0.4374 0.64131 0.0
H2377 H 0.64811 0.39042 0.63303 0.0
H2378 H 0.61887 0.40034 0.62842 0.0
H2379 H 0.60391 0.43526 0.67326 0.0
H2380 H 0.52405 0.46965 0.65505 0.0
H2381 H 0.55522 0.46467 0.65735 0.0
C2382 C 0.84281 0.60815 0.26431 0.0
C2383 C 0.82961 0.60024 0.25154 0.0
C2384 C 0.85914 0.60138 0.26631 0.0
C2385 C 0.88828 0.57348 0.24265 0.0
H2386 H 0.9128 0.57375 0.2891 0.0
C2387 C 0.95325 0.54111 0.25542 0.0
C2388 C 0.96645 0.55085 0.26695 0.0
C2389 C 0.93633 0.54666 0.2534 0.0
C2390 C 0.90618 0.57372 0.27603 0.0
H2391 H 0.82312 0.57878 0.23106 0.0
H2392 H 0.85154 0.56674 0.23478 0.0
H2393 H 0.88345 0.58379 0.28606 0.0
H2394 H 0.97236 0.57408 0.28547 0.0
H2395 H 0.94285 0.58377 0.28196 0.0
H2396 H 0.91104 0.56328 0.23268 0.0
C2397 C 0.84936 0.5784 0.24303 0.0
C2398 C 0.88936 0.57949 0.27428 0.0
C2399 C 0.83303 0.58523 0.24097 0.0
C2400 C 0.96247 0.56629 0.27645 0.0
C2401 C 0.94553 0.57178 0.27453 0.0
C2402 C 0.90507 0.5676 0.24443 0.0
C2403 C 0.86266 0.58646 0.25566 0.0
C2404 C 0.88025 0.57959 0.25756 0.0
C2405 C 0.93227 0.56201 0.26302 0.0
C2406 C 0.91426 0.5678 0.26113 0.0
H2407 H 0.84065 0.61978 0.27262 0.0
H2408 H 0.86915 0.6081 0.27598 0.0
H2409 H 0.88178 0.57361 0.22956 0.0
H2410 H 0.95599 0.52913 0.248 0.0
H2411 H 0.92635 0.53878 0.24455 0.0
C2412 C 0.22823 0.00901 0.33039 0.0
C2413 C 0.22827 0.02703 0.33568 0.0
C2414 C 0.2129 0.99767 0.33025 0.0
C2415 C 0.16873 0.99432 0.34718 0.0
H2416 H 0.1572 0.95921 0.30744 0.0
C2417 C 0.0989 0.95966 0.32865 0.0
C2418 C 0.09739 0.9416 0.32306 0.0
C2419 C 0.11545 0.96914 0.33172 0.0
C2420 C 0.16034 0.96879 0.31875 0.0
H2421 H 0.21229 0.04724 0.34515 0.0
H2422 H 0.18554 0.02761 0.34455 0.0
H2423 H 0.18506 0.9775 0.30991 0.0
H2424 H 0.1119 0.91923 0.31667 0.0
H2425 H 0.14088 0.93583 0.32197 0.0
H2426 H 0.14374 0.98586 0.35572 0.0
C2427 C 0.1974 0.02211 0.34082 0.0
C2428 C 0.17634 0.97926 0.32019 0.0
C2429 C 0.21273 0.03342 0.34105 0.0
C2430 C 0.11272 0.93315 0.32094 0.0
C2431 C 0.12927 0.94266 0.32388 0.0
C2432 C 0.15269 0.98391 0.34567 0.0
C2433 C 0.19725 0.00411 0.33531 0.0
C2434 C 0.18067 0.99228 0.33434 0.0
C2435 C 0.1308 0.96079 0.32916 0.0
C2436 C 0.14825 0.97114 0.33135 0.0
H2437 H 0.24002 0.00364 0.32628 0.0
H2438 H 0.21334 0.98384 0.32618 0.0
H2439 H 0.17177 0.00398 0.35842 0.0
H2440 H 0.08733 0.96655 0.33044 0.0
H2441 H 0.11618 0.98312 0.33561 0.0
C2442 C 0.28893 0.03778 0.7343 0.0
C2443 C 0.28497 0.02114 0.74021 0.0
C2444 C 0.3062 0.04573 0.73642 0.0
C2445 C 0.35175 0.03447 0.74092 0.0
H2446 H 0.36335 0.08385 0.75674 0.0
C2447 C 0.42368 0.06393 0.75404 0.0
C2448 C 0.42791 0.08084 0.74894 0.0
C2449 C 0.40613 0.05722 0.75387 0.0
C2450 C 0.36032 0.07009 0.75209 0.0
H2451 H 0.29596 4e-05 0.75341 0.0
H2452 H 0.32605 0.01388 0.75698 0.0
H2453 H 0.33279 0.07121 0.75483 0.0
H2454 H 0.41721 0.10409 0.73995 0.0
H2455 H 0.38647 0.09222 0.73918 0.0
H2456 H 0.37906 0.03331 0.73776 0.0
C2457 C 0.31582 0.0207 0.7506 0.0
C2458 C 0.34282 0.06285 0.75106 0.0
C2459 C 0.29856 0.01282 0.74862 0.0
C2460 C 0.41426 0.09101 0.74394 0.0
C2461 C 0.39668 0.08423 0.74361 0.0
C2462 C 0.36919 0.04171 0.7418 0.0
C2463 C 0.31986 0.03714 0.74435 0.0
C2464 C 0.33838 0.04495 0.74553 0.0
C2465 C 0.39239 0.06718 0.74844 0.0
C2466 C 0.37373 0.0596 0.74748 0.0
H2467 H 0.27875 0.04456 0.72781 0.0
H2468 H 0.30894 0.05836 0.73138 0.0
H2469 H 0.34869 0.0207 0.73631 0.0
H2470 H 0.4339 0.05584 0.75819 0.0
H2471 H 0.40336 0.0442 0.75806 0.0
C2472 C 0.63653 0.60591 0.39368 0.0
C2473 C 0.64698 0.62125 0.40073 0.0
C2474 C 0.63669 0.59051 0.40221 0.0
C2475 C 0.66338 0.56921 0.43561 0.0
H2476 H 0.62077 0.53791 0.43513 0.0
C2477 C 0.65982 0.50923 0.47634 0.0
C2478 C 0.65213 0.49335 0.46737 0.0
C2479 C 0.65851 0.52509 0.46877 0.0
C2480 C 0.63279 0.54649 0.43527 0.0
H2481 H 0.6654 0.6326 0.42263 0.0
H2482 H 0.66529 0.60594 0.4378 0.0
H2483 H 0.61978 0.56522 0.42099 0.0
H2484 H 0.63654 0.4816 0.44365 0.0
H2485 H 0.63416 0.50932 0.43047 0.0
H2486 H 0.67631 0.55051 0.45006 0.0
C2487 C 0.65734 0.60562 0.42538 0.0
C2488 C 0.63225 0.56211 0.42713 0.0
C2489 C 0.65731 0.62097 0.41674 0.0
C2490 C 0.64267 0.49364 0.45087 0.0
C2491 C 0.64122 0.50952 0.44336 0.0
C2492 C 0.66387 0.55367 0.44388 0.0
C2493 C 0.64714 0.59014 0.41816 0.0
C2494 C 0.64757 0.57365 0.42712 0.0
C2495 C 0.64931 0.52539 0.45213 0.0
C2496 C 0.6486 0.54211 0.44374 0.0
H2497 H 0.62823 0.60577 0.38151 0.0
H2498 H 0.62881 0.57883 0.39612 0.0
H2499 H 0.67551 0.57756 0.43559 0.0
H2500 H 0.66714 0.50935 0.48909 0.0
H2501 H 0.6647 0.53714 0.47593 0.0
C2502 C 0.70975 0.30806 0.03182 0.0
C2503 C 0.72007 0.29517 0.03799 0.0
C2504 C 0.71266 0.32548 0.03919 0.0
C2505 C 0.7467 0.3571 0.06389 0.0
H2506 H 0.70738 0.38512 0.06964 0.0
C2507 C 0.75588 0.43057 0.09138 0.0
C2508 C 0.74605 0.44178 0.08178 0.0
C2509 C 0.75251 0.41228 0.0881 0.0
C2510 C 0.71851 0.37748 0.06805 0.0
H2511 H 0.74141 0.29044 0.05698 0.0
H2512 H 0.7464 0.32089 0.06996 0.0
H2513 H 0.70184 0.35378 0.06029 0.0
H2514 H 0.72466 0.44266 0.06146 0.0
H2515 H 0.71883 0.41091 0.05574 0.0
H2516 H 0.76335 0.38091 0.07144 0.0
C2517 C 0.73617 0.31753 0.05926 0.0
C2518 C 0.71533 0.35953 0.06266 0.0
C2519 C 0.73325 0.30006 0.05188 0.0
C2520 C 0.73254 0.43439 0.06908 0.0
C2521 C 0.72909 0.41617 0.06588 0.0
C2522 C 0.74988 0.37507 0.06932 0.0
C2523 C 0.72595 0.33046 0.05294 0.0
C2524 C 0.72938 0.34918 0.06019 0.0
C2525 C 0.7391 0.40489 0.07525 0.0
C2526 C 0.7358 0.38552 0.07114 0.0
H2527 H 0.69952 0.30477 0.02111 0.0
H2528 H 0.70472 0.33513 0.0338 0.0
H2529 H 0.75782 0.34956 0.06195 0.0
H2530 H 0.76634 0.43596 0.10127 0.0
H2531 H 0.76035 0.40393 0.09563 0.0
C2532 C 0.2651 0.851 0.60082 0.0
C2533 C 0.25198 0.83792 0.59333 0.0
C2534 C 0.26657 0.86753 0.5944 0.0
C2535 C 0.25478 0.89126 0.55585 0.0
H2536 H 0.26176 0.93234 0.58978 0.0
C2537 C 0.25068 0.96187 0.53546 0.0
C2538 C 0.26288 0.97511 0.54418 0.0
C2539 C 0.24931 0.94502 0.54122 0.0
C2540 C 0.26003 0.92102 0.58011 0.0
H2541 H 0.23033 0.83187 0.57297 0.0
H2542 H 0.23291 0.86079 0.56177 0.0
H2543 H 0.25969 0.90308 0.60003 0.0
H2544 H 0.28343 0.9811 0.56567 0.0
H2545 H 0.28124 0.95168 0.57557 0.0
H2546 H 0.25523 0.90921 0.53592 0.0
C2547 C 0.2421 0.85819 0.57257 0.0
C2548 C 0.25883 0.90424 0.586 0.0
C2549 C 0.24058 0.84165 0.57904 0.0
C2550 C 0.27379 0.9712 0.55874 0.0
C2551 C 0.27247 0.95434 0.56447 0.0
C2552 C 0.25605 0.90806 0.54995 0.0
C2553 C 0.255 0.87137 0.5803 0.0
C2554 C 0.25622 0.88917 0.57394 0.0
C2555 C 0.26019 0.94105 0.5558 0.0
C2556 C 0.25872 0.92315 0.56202 0.0
H2557 H 0.27415 0.84856 0.6118 0.0
H2558 H 0.27681 0.87732 0.60047 0.0
H2559 H 0.25296 0.87989 0.54624 0.0
H2560 H 0.24212 0.96458 0.52421 0.0
H2561 H 0.23956 0.93517 0.53437 0.0
C2562 C 0.34513 0.21266 0.01396 0.0
C2563 C 0.32995 0.22156 0.01553 0.0
C2564 C 0.34425 0.19644 0.00393 0.0
C2565 C 0.3169 0.16782 0.96885 0.0
H2566 H 0.34133 0.13058 0.98837 0.0
C2567 C 0.3198 0.10019 0.92997 0.0
C2568 C 0.31707 0.08536 0.9393 0.0
C2569 C 0.32216 0.11708 0.93881 0.0
C2570 C 0.33438 0.14082 0.98277 0.0
H2571 H 0.30199 0.2205 0.00755 0.0
H2572 H 0.30046 0.19218 0.99015 0.0
H2573 H 0.34374 0.15966 0.00449 0.0
H2574 H 0.31478 0.07651 0.96525 0.0
H2575 H 0.31881 0.10593 0.98064 0.0
H2576 H 0.3072 0.14886 0.94733 0.0
C2577 C 0.31307 0.19781 0.99654 0.0
C2578 C 0.33592 0.15754 0.99191 0.0
C2579 C 0.31394 0.21401 0.0066 0.0
C2580 C 0.3169 0.08768 0.95767 0.0
C2581 C 0.31931 0.10455 0.96651 0.0
C2582 C 0.3154 0.15111 0.95968 0.0
C2583 C 0.32819 0.18877 0.9952 0.0
C2584 C 0.32709 0.1712 0.98512 0.0
C2585 C 0.3219 0.11945 0.95719 0.0
C2586 C 0.32402 0.13738 0.9666 0.0
H2587 H 0.35769 0.21813 0.02061 0.0
H2588 H 0.35618 0.18992 0.00297 0.0
H2589 H 0.31007 0.17811 0.96318 0.0
H2590 H 0.32001 0.09873 0.9158 0.0
H2591 H 0.32432 0.12827 0.93127 0.0
C2592 C 0.37975 0.63601 0.61108 0.0
C2593 C 0.37272 0.62052 0.6175 0.0
C2594 C 0.38654 0.63544 0.59472 0.0
C2595 C 0.38258 0.61066 0.55194 0.0
H2596 H 0.42799 0.63497 0.5466 0.0
C2597 C 0.41047 0.61048 0.48412 0.0
C2598 C 0.42089 0.62549 0.48063 0.0
C2599 C 0.40535 0.60872 0.50103 0.0
C2600 C 0.41513 0.62837 0.54773 0.0
H2601 H 0.36751 0.59223 0.61181 0.0
H2602 H 0.37931 0.59132 0.58308 0.0
H2603 H 0.4177 0.63417 0.57575 0.0
H2604 H 0.43373 0.65072 0.4918 0.0
H2605 H 0.4241 0.64821 0.52096 0.0
H2606 H 0.37939 0.60558 0.52398 0.0
C2607 C 0.37951 0.60387 0.5908 0.0
C2608 C 0.40934 0.6278 0.56449 0.0
C2609 C 0.37281 0.60441 0.60725 0.0
C2610 C 0.42589 0.63888 0.49421 0.0
C2611 C 0.42046 0.63733 0.511 0.0
C2612 C 0.38815 0.61156 0.53511 0.0
C2613 C 0.38637 0.6194 0.58437 0.0
C2614 C 0.39295 0.61906 0.56674 0.0
C2615 C 0.41021 0.62217 0.51473 0.0
C2616 C 0.40447 0.62056 0.53273 0.0
H2617 H 0.37991 0.64864 0.61864 0.0
H2618 H 0.39162 0.64763 0.59 0.0
H2619 H 0.36989 0.60387 0.55332 0.0
H2620 H 0.4065 0.59995 0.47383 0.0
H2621 H 0.39774 0.59671 0.50334 0.0
C2622 C 0.03758 0.73091 0.29664 0.0
C2623 C 0.02891 0.7447 0.28993 0.0
C2624 C 0.04492 0.73243 0.3141 0.0
C2625 C 0.05925 0.76446 0.35273 0.0
H2626 H 0.04997 0.72415 0.37904 0.0
C2627 C 0.08704 0.7621 0.42534 0.0
C2628 C 0.07529 0.75495 0.43651 0.0
C2629 C 0.08249 0.76101 0.40716 0.0
C2630 C 0.05262 0.73555 0.3719 0.0
H2631 H 0.02164 0.77113 0.29614 0.0
H2632 H 0.0343 0.77368 0.32663 0.0
H2633 H 0.0403 0.7222 0.34778 0.0
H2634 H 0.04949 0.74113 0.43745 0.0
H2635 H 0.04155 0.73935 0.40591 0.0
H2636 H 0.07117 0.77794 0.37703 0.0
C2637 C 0.03556 0.76175 0.31836 0.0
C2638 C 0.04726 0.73436 0.35392 0.0
C2639 C 0.0282 0.76024 0.30091 0.0
C2640 C 0.05888 0.74675 0.42922 0.0
C2641 C 0.05437 0.74562 0.41109 0.0
C2642 C 0.06466 0.76563 0.37073 0.0
C2643 C 0.04378 0.74776 0.32524 0.0
C2644 C 0.05037 0.74885 0.34415 0.0
C2645 C 0.06613 0.75267 0.39984 0.0
C2646 C 0.06122 0.75125 0.38055 0.0
H2647 H 0.03846 0.7188 0.28851 0.0
H2648 H 0.05139 0.72151 0.31891 0.0
H2649 H 0.06198 0.7758 0.34553 0.0
H2650 H 0.09978 0.76845 0.43065 0.0
H2651 H 0.09189 0.76645 0.39882 0.0
C2652 C 0.59582 0.25848 0.85109 0.0
C2653 C 0.60309 0.24307 0.84513 0.0
C2654 C 0.58711 0.25914 0.86639 0.0
C2655 C 0.5841 0.23859 0.90772 0.0
H2656 H 0.54097 0.26151 0.90957 0.0
C2657 C 0.52662 0.25058 0.95769 0.0
C2658 C 0.53719 0.25633 0.97332 0.0
C2659 C 0.53418 0.24788 0.94182 0.0
C2660 C 0.55292 0.25493 0.90922 0.0
H2661 H 0.60679 0.21621 0.85051 0.0
H2662 H 0.59157 0.2174 0.87727 0.0
H2663 H 0.55477 0.25864 0.88203 0.0
H2664 H 0.56402 0.26355 0.98469 0.0
H2665 H 0.5772 0.25887 0.95703 0.0
H2666 H 0.58226 0.2349 0.93491 0.0
C2667 C 0.59273 0.22899 0.87013 0.0
C2668 C 0.56092 0.25345 0.8935 0.0
C2669 C 0.60137 0.2283 0.85477 0.0
C2670 C 0.5555 0.25911 0.97287 0.0
C2671 C 0.56308 0.25633 0.95703 0.0
C2672 C 0.57616 0.24016 0.92346 0.0
C2673 C 0.58552 0.24443 0.87612 0.0
C2674 C 0.57665 0.24536 0.89261 0.0
C2675 C 0.5525 0.25079 0.94131 0.0
C2676 C 0.56055 0.24845 0.92442 0.0
H2677 H 0.59691 0.27009 0.84399 0.0
H2678 H 0.58188 0.27129 0.87077 0.0
H2679 H 0.5963 0.23241 0.90748 0.0
H2680 H 0.51247 0.24831 0.95772 0.0
H2681 H 0.52571 0.24344 0.92996 0.0
C2682 C 0.01875 0.33152 0.22019 0.0
C2683 C 0.03724 0.33398 0.222 0.0
C2684 C 0.00946 0.32969 0.20351 0.0
C2685 C 0.01435 0.33763 0.15696 0.0
H2686 H 0.97528 0.30155 0.14681 0.0
C2687 C 0.98817 0.31077 0.08646 0.0
C2688 C 0.96991 0.30768 0.08243 0.0
C2689 C 0.99528 0.31539 0.10378 0.0
C2690 C 0.986 0.31184 0.14951 0.0
H2691 H 0.06044 0.33652 0.20769 0.0
H2692 H 0.04432 0.33306 0.17871 0.0
H2693 H 0.98976 0.30706 0.17663 0.0
H2694 H 0.94466 0.30704 0.09333 0.0
H2695 H 0.95713 0.31506 0.12373 0.0
H2696 H 0.01085 0.3421 0.12975 0.0
C2697 C 0.03694 0.33285 0.19015 0.0
C2698 C 0.9943 0.31503 0.1666 0.0
C2699 C 0.0462 0.33471 0.20679 0.0
C2700 C 0.95881 0.30935 0.09605 0.0
C2701 C 0.96594 0.31386 0.11345 0.0
C2702 C 0.00612 0.33439 0.13989 0.0
C2703 C 0.01846 0.33027 0.18828 0.0
C2704 C 0.00875 0.32777 0.17047 0.0
C2705 C 0.98426 0.31692 0.11748 0.0
C2706 C 0.99203 0.32129 0.13591 0.0
H2707 H 0.01144 0.33095 0.23166 0.0
H2708 H 0.99522 0.32792 0.20255 0.0
H2709 H 0.02519 0.3478 0.15956 0.0
H2710 H 0.997 0.30952 0.0762 0.0
H2711 H 0.00945 0.31741 0.10649 0.0
loop_
_geom_bond_atom_site_label_1
_geom_bond_atom_site_label_2
_geom_bond_distance
_geom_bond_site_symmetry_2
_ccdc_geom_bond_type
O0 Cd1 2.300 . S
O0 C7 1.275 . S
Cd1 O0 2.300 . S
Cd1 O9 2.381 . S
Cd1 O10 2.378 . S
O2 Cd3 2.385 . S
O2 C7 1.255 . S
Cd3 O2 2.385 . S
Cd3 O4 2.317 . S
O4 Cd3 2.317 . S
O4 C5 1.232 . S
C5 O4 1.232 . S
C5 O6 1.218 . S
O6 C5 1.218 . S
C7 O0 1.275 . S
C7 O2 1.255 . S
C8 O9 1.258 . S
C8 O10 1.256 . S
O9 Cd1 2.381 . S
O9 C8 1.258 . S
O10 Cd1 2.378 . S
O10 C8 1.256 . S
O11 Cd12 2.300 . S
O11 C18 1.275 . S
Cd12 O11 2.300 . S
Cd12 O20 2.381 . S
Cd12 O21 2.378 . S
O13 Cd14 2.385 . S
O13 C18 1.255 . S
Cd14 O13 2.385 . S
Cd14 O15 2.317 . S
O15 Cd14 2.317 . S
O15 C16 1.232 . S
C16 O15 1.232 . S
C16 O17 1.218 . S
O17 C16 1.218 . S
C18 O11 1.275 . S
C18 O13 1.255 . S
C19 O20 1.258 . S
C19 O21 1.256 . S
O20 Cd12 2.381 . S
O20 C19 1.258 . S
O21 Cd12 2.378 . S
O21 C19 1.256 . S
O22 Cd23 2.279 1_545 S
O22 C29 1.251 1_545 S
Cd23 O22 2.279 1_565 S
Cd23 O31 2.381 1_565 S
Cd23 O32 2.378 . S
O24 Cd25 2.385 . S
O24 C29 1.255 . S
Cd25 O24 2.385 . S
Cd25 O26 2.317 . S
O26 Cd25 2.317 . S
O26 C27 1.232 . S
C27 O26 1.232 . S
C27 O28 1.218 . S
O28 C27 1.218 . S
C29 O22 1.251 1_565 S
C29 O24 1.255 . S
C30 O31 1.258 . S
C30 O32 1.256 1_545 S
O31 Cd23 2.381 1_545 S
O31 C30 1.258 . S
O32 Cd23 2.378 . S
O32 C30 1.256 1_565 S
O33 Cd34 2.300 1_565 S
O33 C40 1.275 1_565 S
Cd34 O33 2.300 1_545 S
Cd34 O42 2.381 1_545 S
Cd34 O43 2.378 . S
O35 Cd36 2.385 . S
O35 C40 1.255 . S
Cd36 O35 2.385 . S
Cd36 O37 2.317 . S
O37 Cd36 2.317 . S
O37 C38 1.232 . S
C38 O37 1.232 . S
C38 O39 1.218 . S
O39 C38 1.218 . S
C40 O33 1.275 1_545 S
C40 O35 1.255 . S
C41 O42 1.258 1_545 S
C41 O43 1.256 . S
O42 Cd34 2.381 1_565 S
O42 C41 1.258 1_565 S
O43 Cd34 2.378 . S
O43 C41 1.256 . S
O44 Cd45 2.300 . S
O44 C51 1.275 . S
Cd45 O44 2.300 . S
Cd45 O53 2.381 . S
Cd45 O54 2.378 . S
O46 Cd47 2.385 . S
O46 C51 1.255 . S
Cd47 O46 2.385 . S
Cd47 O48 2.317 . S
O48 Cd47 2.317 . S
O48 C49 1.232 . S
C49 O48 1.232 . S
C49 O50 1.218 . S
O50 C49 1.218 . S
C51 O44 1.275 . S
C51 O46 1.255 . S
C52 O53 1.258 . S
C52 O54 1.256 . S
O53 Cd45 2.381 . S
O53 C52 1.258 . S
O54 Cd45 2.378 . S
O54 C52 1.256 . S
O55 Cd56 2.300 1_556 S
O55 C62 1.275 1_556 S
Cd56 O55 2.300 1_554 S
Cd56 O64 2.381 1_554 S
Cd56 O65 2.378 . S
O57 Cd58 2.385 . S
O57 C62 1.255 . S
Cd58 O57 2.385 . S
Cd58 O59 2.317 . S
O59 Cd58 2.317 . S
O59 C60 1.232 . S
C60 O59 1.232 . S
C60 O61 1.218 . S
O61 C60 1.218 . S
C62 O55 1.275 1_554 S
C62 O57 1.255 . S
C63 O64 1.258 1_554 S
C63 O65 1.256 . S
O64 Cd56 2.381 1_556 S
O64 C63 1.258 1_556 S
O65 Cd56 2.378 . S
O65 C63 1.256 . S
O66 Cd67 2.300 . S
O66 C73 1.275 . S
Cd67 O66 2.300 . S
Cd67 O75 2.381 . S
Cd67 O76 2.378 . S
O68 Cd69 2.385 . S
O68 C73 1.255 . S
Cd69 O68 2.385 . S
Cd69 O70 2.317 . S
O70 Cd69 2.317 . S
O70 C71 1.232 . S
C71 O70 1.232 . S
C71 O72 1.218 . S
O72 C71 1.218 . S
C73 O66 1.275 . S
C73 O68 1.255 . S
C74 O75 1.258 . S
C74 O76 1.256 . S
O75 Cd67 2.381 . S
O75 C74 1.258 . S
O76 Cd67 2.378 . S
O76 C74 1.256 . S
O77 Cd78 2.279 1_554 S
O77 C84 1.251 1_554 S
Cd78 O77 2.279 1_556 S
Cd78 O86 2.381 1_556 S
Cd78 O87 2.378 . S
O79 Cd80 2.385 . S
O79 C84 1.255 . S
Cd80 O79 2.385 . S
Cd80 O81 2.317 . S
O81 Cd80 2.317 . S
O81 C82 1.232 . S
C82 O81 1.232 . S
C82 O83 1.218 . S
O83 C82 1.218 . S
C84 O77 1.251 1_556 S
C84 O79 1.255 . S
C85 O86 1.258 . S
C85 O87 1.256 1_554 S
O86 Cd78 2.381 1_554 S
O86 C85 1.258 . S
O87 Cd78 2.378 . S
O87 C85 1.256 1_556 S
O88 Cd89 2.300 . S
O88 C95 1.275 . S
Cd89 O88 2.300 . S
Cd89 O97 2.381 . S
Cd89 O98 2.378 . S
O90 Cd91 2.385 . S
O90 C95 1.255 . S
Cd91 O90 2.385 . S
Cd91 O92 2.317 . S
O92 Cd91 2.317 . S
O92 C93 1.232 . S
C93 O92 1.232 . S
C93 O94 1.218 . S
O94 C93 1.218 . S
C95 O88 1.275 . S
C95 O90 1.255 . S
C96 O97 1.258 . S
C96 O98 1.256 . S
O97 Cd89 2.381 . S
O97 C96 1.258 . S
O98 Cd89 2.378 . S
O98 C96 1.256 . S
O99 Cd100 2.300 1_655 S
O99 C106 1.275 1_655 S
Cd100 O99 2.300 1_455 S
Cd100 O108 2.381 1_455 S
Cd100 O109 2.378 . S
O101 Cd102 2.385 . S
O101 C106 1.255 . S
Cd102 O101 2.385 . S
Cd102 O103 2.317 . S
O103 Cd102 2.317 . S
O103 C104 1.232 . S
C104 O103 1.232 . S
C104 O105 1.218 . S
O105 C104 1.218 . S
C106 O99 1.275 1_455 S
C106 O101 1.255 . S
C107 O108 1.258 1_455 S
C107 O109 1.256 . S
O108 Cd100 2.381 1_655 S
O108 C107 1.258 1_655 S
O109 Cd100 2.378 . S
O109 C107 1.256 . S
O110 Cd111 2.300 . S
O110 C117 1.275 . S
Cd111 O110 2.300 . S
Cd111 O119 2.381 . S
Cd111 O120 2.378 . S
O112 Cd113 2.385 . S
O112 C117 1.255 . S
Cd113 O112 2.385 . S
Cd113 O114 2.317 . S
O114 Cd113 2.317 . S
O114 C115 1.232 . S
C115 O114 1.232 . S
C115 O116 1.218 . S
O116 C115 1.218 . S
C117 O110 1.275 . S
C117 O112 1.255 . S
C118 O119 1.258 . S
C118 O120 1.256 . S
O119 Cd111 2.381 . S
O119 C118 1.258 . S
O120 Cd111 2.378 . S
O120 C118 1.256 . S
O121 Cd122 2.279 1_455 S
O121 C128 1.251 1_455 S
Cd122 O121 2.279 1_655 S
Cd122 O130 2.381 1_655 S
Cd122 O131 2.378 . S
O123 Cd124 2.385 . S
O123 C128 1.255 . S
Cd124 O123 2.385 . S
Cd124 O125 2.317 . S
O125 Cd124 2.317 . S
O125 C126 1.232 . S
C126 O125 1.232 . S
C126 O127 1.218 . S
O127 C126 1.218 . S
C128 O121 1.251 1_655 S
C128 O123 1.255 . S
C129 O130 1.258 . S
C129 O131 1.256 1_455 S
O130 Cd122 2.381 1_455 S
O130 C129 1.258 . S
O131 Cd122 2.378 . S
O131 C129 1.256 1_655 S
O132 Cd133 2.300 . S
O132 C139 1.275 . S
Cd133 O132 2.300 . S
Cd133 O141 2.381 . S
Cd133 O142 2.378 . S
O134 Cd135 2.385 . S
O134 C139 1.255 . S
Cd135 O134 2.385 . S
Cd135 O136 2.317 . S
O136 Cd135 2.317 . S
O136 C137 1.232 . S
C137 O136 1.232 . S
C137 O138 1.218 . S
O138 C137 1.218 . S
C139 O132 1.275 . S
C139 O134 1.255 . S
C140 O141 1.258 . S
C140 O142 1.256 . S
O141 Cd133 2.381 . S
O141 C140 1.258 . S
O142 Cd133 2.378 . S
O142 C140 1.256 . S
O143 Cd144 2.300 . S
O143 C150 1.275 . S
Cd144 O143 2.300 . S
Cd144 O152 2.381 . S
Cd144 O153 2.378 . S
O145 Cd146 2.385 . S
O145 C150 1.255 . S
Cd146 O145 2.385 . S
Cd146 O147 2.317 . S
O147 Cd146 2.317 . S
O147 C148 1.232 . S
C148 O147 1.232 . S
C148 O149 1.218 . S
O149 C148 1.218 . S
C150 O143 1.275 . S
C150 O145 1.255 . S
C151 O152 1.258 . S
C151 O153 1.256 . S
O152 Cd144 2.381 . S
O152 C151 1.258 . S
O153 Cd144 2.378 . S
O153 C151 1.256 . S
O154 Cd155 2.300 1_545 S
O154 C161 1.289 . S
Cd155 O154 2.300 1_565 S
Cd155 O163 2.381 1_565 S
Cd155 O164 2.378 . S
O156 Cd157 2.385 . S
O156 C161 1.227 1_565 S
Cd157 O156 2.385 . S
Cd157 O158 2.317 . S
O158 Cd157 2.317 . S
O158 C159 1.232 . S
C159 O158 1.232 . S
C159 O160 1.218 . S
O160 C159 1.218 . S
C161 O154 1.289 . S
C161 O156 1.227 1_545 S
C162 O163 1.258 1_565 S
C162 O164 1.256 . S
O163 Cd155 2.381 1_545 S
O163 C162 1.258 1_545 S
O164 Cd155 2.378 . S
O164 C162 1.256 . S
O165 Cd166 2.300 1_565 S
O165 C172 1.275 1_565 S
Cd166 O165 2.300 1_545 S
Cd166 O174 2.381 1_545 S
Cd166 O175 2.378 . S
O167 Cd168 2.385 . S
O167 C172 1.255 . S
Cd168 O167 2.385 . S
Cd168 O169 2.317 . S
O169 Cd168 2.317 . S
O169 C170 1.232 . S
C170 O169 1.232 . S
C170 O171 1.218 . S
O171 C170 1.218 . S
C172 O165 1.275 1_545 S
C172 O167 1.255 . S
C173 O174 1.219 1_545 S
C173 O175 1.303 . S
O174 Cd166 2.381 1_565 S
O174 C173 1.219 1_565 S
O175 Cd166 2.378 . S
O175 C173 1.303 . S
O176 Cd177 2.300 . S
O176 C183 1.275 . S
Cd177 O176 2.300 . S
Cd177 O185 2.381 . S
Cd177 O186 2.378 . S
O178 Cd179 2.385 . S
O178 C183 1.255 . S
Cd179 O178 2.385 . S
Cd179 O180 2.317 . S
O180 Cd179 2.317 . S
O180 C181 1.232 . S
C181 O180 1.232 . S
C181 O182 1.218 . S
O182 C181 1.218 . S
C183 O176 1.275 . S
C183 O178 1.255 . S
C184 O185 1.258 . S
C184 O186 1.256 . S
O185 Cd177 2.381 . S
O185 C184 1.258 . S
O186 Cd177 2.378 . S
O186 C184 1.256 . S
O187 Cd188 2.300 1_556 S
O187 C194 1.275 1_556 S
Cd188 O187 2.300 1_554 S
Cd188 O196 2.381 1_554 S
Cd188 O197 2.378 . S
O189 Cd190 2.385 . S
O189 C194 1.255 . S
Cd190 O189 2.385 . S
Cd190 O191 2.317 . S
O191 Cd190 2.317 . S
O191 C192 1.232 . S
C192 O191 1.232 . S
C192 O193 1.218 . S
O193 C192 1.218 . S
C194 O187 1.275 1_554 S
C194 O189 1.255 . S
C195 O196 1.219 1_554 S
C195 O197 1.303 . S
O196 Cd188 2.381 1_556 S
O196 C195 1.219 1_556 S
O197 Cd188 2.378 . S
O197 C195 1.303 . S
O198 Cd199 2.300 . S
O198 C205 1.275 . S
Cd199 O198 2.300 . S
Cd199 O207 2.381 . S
Cd199 O208 2.378 . S
O200 Cd201 2.385 . S
O200 C205 1.255 . S
Cd201 O200 2.385 . S
Cd201 O202 2.317 . S
O202 Cd201 2.317 . S
O202 C203 1.232 . S
C203 O202 1.232 . S
C203 O204 1.218 . S
O204 C203 1.218 . S
C205 O198 1.275 . S
C205 O200 1.255 . S
C206 O207 1.258 . S
C206 O208 1.256 . S
O207 Cd199 2.381 . S
O207 C206 1.258 . S
O208 Cd199 2.378 . S
O208 C206 1.256 . S
O209 Cd210 2.300 1_554 S
O209 C216 1.289 . S
Cd210 O209 2.300 1_556 S
Cd210 O218 2.381 1_556 S
Cd210 O219 2.378 . S
O211 Cd212 2.385 . S
O211 C216 1.227 1_556 S
Cd212 O211 2.385 . S
Cd212 O213 2.317 . S
O213 Cd212 2.317 . S
O213 C214 1.232 . S
C214 O213 1.232 . S
C214 O215 1.218 . S
O215 C214 1.218 . S
C216 O209 1.289 . S
C216 O211 1.227 1_554 S
C217 O218 1.258 1_556 S
C217 O219 1.256 . S
O218 Cd210 2.381 1_554 S
O218 C217 1.258 1_554 S
O219 Cd210 2.378 . S
O219 C217 1.256 . S
O220 Cd221 2.300 . S
O220 C227 1.275 . S
Cd221 O220 2.300 . S
Cd221 O229 2.381 . S
Cd221 O230 2.378 . S
O222 Cd223 2.385 . S
O222 C227 1.255 . S
Cd223 O222 2.385 . S
Cd223 O224 2.317 . S
O224 Cd223 2.317 . S
O224 C225 1.232 . S
C225 O224 1.232 . S
C225 O226 1.218 . S
O226 C225 1.218 . S
C227 O220 1.275 . S
C227 O222 1.255 . S
C228 O229 1.258 . S
C228 O230 1.256 . S
O229 Cd221 2.381 . S
O229 C228 1.258 . S
O230 Cd221 2.378 . S
O230 C228 1.256 . S
O231 Cd232 2.300 1_655 S
O231 C238 1.275 1_655 S
Cd232 O231 2.300 1_455 S
Cd232 O240 2.381 1_455 S
Cd232 O241 2.378 . S
O233 Cd234 2.385 . S
O233 C238 1.255 . S
Cd234 O233 2.385 . S
Cd234 O235 2.317 . S
O235 Cd234 2.317 . S
O235 C236 1.232 . S
C236 O235 1.232 . S
C236 O237 1.218 . S
O237 C236 1.218 . S
C238 O231 1.275 1_455 S
C238 O233 1.255 . S
C239 O240 1.219 1_455 S
C239 O241 1.303 . S
O240 Cd232 2.381 1_655 S
O240 C239 1.219 1_655 S
O241 Cd232 2.378 . S
O241 C239 1.303 . S
O242 Cd243 2.300 . S
O242 C249 1.275 . S
Cd243 O242 2.300 . S
Cd243 O251 2.381 . S
Cd243 O252 2.378 . S
O244 Cd245 2.385 . S
O244 C249 1.255 . S
Cd245 O244 2.385 . S
Cd245 O246 2.317 . S
O246 Cd245 2.317 . S
O246 C247 1.232 . S
C247 O246 1.232 . S
C247 O248 1.218 . S
O248 C247 1.218 . S
C249 O242 1.275 . S
C249 O244 1.255 . S
C250 O251 1.258 . S
C250 O252 1.256 . S
O251 Cd243 2.381 . S
O251 C250 1.258 . S
O252 Cd243 2.378 . S
O252 C250 1.256 . S
O253 Cd254 2.300 1_455 S
O253 C260 1.289 . S
Cd254 O253 2.300 1_655 S
Cd254 O262 2.381 1_655 S
Cd254 O263 2.378 . S
O255 Cd256 2.385 . S
O255 C260 1.227 1_655 S
Cd256 O255 2.385 . S
Cd256 O257 2.317 . S
O257 Cd256 2.317 . S
O257 C258 1.232 . S
C258 O257 1.232 . S
C258 O259 1.218 . S
O259 C258 1.218 . S
C260 O253 1.289 . S
C260 O255 1.227 1_455 S
C261 O262 1.258 1_655 S
C261 O263 1.256 . S
O262 Cd254 2.381 1_455 S
O262 C261 1.258 1_455 S
O263 Cd254 2.378 . S
O263 C261 1.256 . S
H264 C269 0.930 . S
H265 C272 0.930 . S
H266 C274 0.930 . S
H267 C268 1.016 . S
C268 H267 1.016 . S
C268 N275 1.286 . S
C269 H264 0.930 . S
C269 C270 1.397 . S
C269 C271 1.361 . S
C270 C269 1.397 . S
C270 C274 1.390 . S
C271 C269 1.361 . S
C271 C272 1.393 . S
C271 N275 1.413 . S
C272 H265 0.930 . S
C272 C271 1.393 . S
C272 C273 1.399 . S
C273 C272 1.399 . S
C273 C274 1.381 . S
C274 H266 0.930 . S
C274 C270 1.390 . S
C274 C273 1.381 . S
N275 C268 1.286 . S
N275 C271 1.413 . S
H276 C281 0.930 . S
H277 C284 0.930 . S
H278 C286 0.930 . S
H279 C280 1.016 . S
C280 H279 1.016 . S
C280 N287 1.286 . S
C281 H276 0.930 . S
C281 C282 1.397 . S
C281 C283 1.361 . S
C282 C281 1.397 . S
C282 C286 1.390 . S
C283 C281 1.361 . S
C283 C284 1.393 . S
C283 N287 1.413 . S
C284 H277 0.930 . S
C284 C283 1.393 . S
C284 C285 1.399 . S
C285 C284 1.399 . S
C285 C286 1.381 . S
C286 H278 0.930 . S
C286 C282 1.390 . S
C286 C285 1.381 . S
N287 C280 1.286 . S
N287 C283 1.413 . S
H288 C293 0.930 . S
H289 C296 0.930 . S
H290 C298 0.930 . S
H291 C292 1.016 . S
C292 H291 1.016 . S
C292 N299 1.286 . S
C293 H288 0.930 . S
C293 C294 1.397 . S
C293 C295 1.361 1_565 S
C294 C293 1.397 . S
C294 C298 1.390 . S
C295 C293 1.361 1_545 S
C295 C296 1.393 . S
C295 N299 1.413 . S
C296 H289 0.930 . S
C296 C295 1.393 . S
C296 C297 1.399 1_545 S
C297 C296 1.399 1_565 S
C297 C298 1.381 . S
C298 H290 0.930 . S
C298 C294 1.390 . S
C298 C297 1.381 . S
N299 C292 1.286 . S
N299 C295 1.413 . S
H300 C305 0.930 . S
H301 C308 0.930 . S
H302 C310 0.930 . S
H303 C304 1.016 . S
C304 H303 1.016 . S
C304 N311 1.286 . S
C305 H300 0.930 . S
C305 C306 1.397 . S
C305 C307 1.361 . S
C306 C305 1.397 . S
C306 C310 1.390 . S
C307 C305 1.361 . S
C307 C308 1.393 . S
C307 N311 1.413 . S
C308 H301 0.930 . S
C308 C307 1.393 . S
C308 C309 1.399 . S
C309 C308 1.399 . S
C309 C310 1.381 . S
C310 H302 0.930 . S
C310 C306 1.390 . S
C310 C309 1.381 . S
N311 C304 1.286 . S
N311 C307 1.413 . S
H312 C317 0.930 . S
H313 C320 0.930 . S
H314 C322 0.930 . S
H315 C316 1.016 . S
C316 H315 1.016 . S
C316 N323 1.286 . S
C317 H312 0.930 . S
C317 C318 1.397 . S
C317 C319 1.361 . S
C318 C317 1.397 . S
C318 C322 1.390 . S
C319 C317 1.361 . S
C319 C320 1.393 . S
C319 N323 1.413 . S
C320 H313 0.930 . S
C320 C319 1.393 . S
C320 C321 1.399 . S
C321 C320 1.399 . S
C321 C322 1.381 . S
C322 H314 0.930 . S
C322 C318 1.390 . S
C322 C321 1.381 . S
N323 C316 1.286 . S
N323 C319 1.413 . S
H324 C329 0.930 . S
H325 C332 0.930 . S
H326 C334 0.930 . S
H327 C328 1.016 . S
C328 H327 1.016 . S
C328 N335 1.286 . S
C329 H324 0.930 . S
C329 C330 1.397 . S
C329 C331 1.361 . S
C330 C329 1.397 . S
C330 C334 1.390 . S
C331 C329 1.361 . S
C331 C332 1.393 . S
C331 N335 1.413 . S
C332 H325 0.930 . S
C332 C331 1.393 . S
C332 C333 1.399 . S
C333 C332 1.399 . S
C333 C334 1.381 . S
C334 H326 0.930 . S
C334 C330 1.390 . S
C334 C333 1.381 . S
N335 C328 1.286 . S
N335 C331 1.413 . S
H336 C341 0.930 . S
H337 C344 0.930 . S
H338 C346 0.930 . S
H339 C340 1.016 . S
C340 H339 1.016 . S
C340 N347 1.286 . S
C341 H336 0.930 . S
C341 C342 1.397 . S
C341 C343 1.361 . S
C342 C341 1.397 . S
C342 C346 1.390 . S
C343 C341 1.361 . S
C343 C344 1.393 . S
C343 N347 1.413 . S
C344 H337 0.930 . S
C344 C343 1.393 . S
C344 C345 1.399 . S
C345 C344 1.399 . S
C345 C346 1.381 . S
C346 H338 0.930 . S
C346 C342 1.390 . S
C346 C345 1.381 . S
N347 C340 1.286 . S
N347 C343 1.413 . S
H348 C353 0.930 . S
H349 C356 0.930 . S
H350 C358 0.930 . S
H351 C352 1.016 . S
C352 H351 1.016 . S
C352 N359 1.286 . S
C353 H348 0.930 . S
C353 C354 1.397 . S
C353 C355 1.361 1_556 S
C354 C353 1.397 . S
C354 C358 1.390 . S
C355 C353 1.361 1_554 S
C355 C356 1.393 . S
C355 N359 1.413 . S
C356 H349 0.930 . S
C356 C355 1.393 . S
C356 C357 1.399 1_554 S
C357 C356 1.399 1_556 S
C357 C358 1.381 . S
C358 H350 0.930 . S
C358 C354 1.390 . S
C358 C357 1.381 . S
N359 C352 1.286 . S
N359 C355 1.413 . S
H360 C365 0.930 . S
H361 C368 0.930 . S
H362 C370 0.930 . S
H363 C364 1.016 . S
C364 H363 1.016 . S
C364 N371 1.286 . S
C365 H360 0.930 . S
C365 C366 1.397 . S
C365 C367 1.361 . S
C366 C365 1.397 . S
C366 C370 1.390 . S
C367 C365 1.361 . S
C367 C368 1.393 . S
C367 N371 1.413 . S
C368 H361 0.930 . S
C368 C367 1.393 . S
C368 C369 1.399 . S
C369 C368 1.399 . S
C369 C370 1.381 . S
C370 H362 0.930 . S
C370 C366 1.390 . S
C370 C369 1.381 . S
N371 C364 1.286 . S
N371 C367 1.413 . S
H372 C377 0.930 . S
H373 C380 0.930 . S
H374 C382 0.930 . S
H375 C376 1.016 . S
C376 H375 1.016 . S
C376 N383 1.286 . S
C377 H372 0.930 . S
C377 C378 1.397 . S
C377 C379 1.361 . S
C378 C377 1.397 . S
C378 C382 1.390 . S
C379 C377 1.361 . S
C379 C380 1.393 . S
C379 N383 1.413 . S
C380 H373 0.930 . S
C380 C379 1.393 . S
C380 C381 1.399 . S
C381 C380 1.399 . S
C381 C382 1.381 . S
C382 H374 0.930 . S
C382 C378 1.390 . S
C382 C381 1.381 . S
N383 C376 1.286 . S
N383 C379 1.413 . S
H384 C389 0.930 . S
H385 C392 0.930 . S
H386 C394 0.930 . S
H387 C388 1.016 . S
C388 H387 1.016 . S
C388 N395 1.286 . S
C389 H384 0.930 . S
C389 C390 1.397 . S
C389 C391 1.361 . S
C390 C389 1.397 . S
C390 C394 1.390 . S
C391 C389 1.361 . S
C391 C392 1.393 . S
C391 N395 1.413 . S
C392 H385 0.930 . S
C392 C391 1.393 . S
C392 C393 1.399 . S
C393 C392 1.399 . S
C393 C394 1.381 . S
C394 H386 0.930 . S
C394 C390 1.390 . S
C394 C393 1.381 . S
N395 C388 1.286 . S
N395 C391 1.413 . S
H396 C401 0.930 . S
H397 C404 0.930 . S
H398 C406 0.930 . S
H399 C400 1.016 . S
C400 H399 1.016 . S
C400 N407 1.286 . S
C401 H396 0.930 . S
C401 C402 1.397 . S
C401 C403 1.361 1_655 S
C402 C401 1.397 . S
C402 C406 1.390 . S
C403 C401 1.361 1_455 S
C403 C404 1.393 . S
C403 N407 1.413 . S
C404 H397 0.930 . S
C404 C403 1.393 . S
C404 C405 1.399 1_455 S
C405 C404 1.399 1_655 S
C405 C406 1.381 . S
C406 H398 0.930 . S
C406 C402 1.390 . S
C406 C405 1.381 . S
N407 C400 1.286 . S
N407 C403 1.413 . S
H408 C413 0.930 . S
H409 C416 0.930 . S
H410 C418 0.930 . S
H411 C412 1.016 . S
C412 H411 1.016 . S
C412 N419 1.286 . S
C413 H408 0.930 . S
C413 C414 1.397 . S
C413 C415 1.361 . S
C414 C413 1.397 . S
C414 C418 1.390 . S
C415 C413 1.361 . S
C415 C416 1.393 . S
C415 N419 1.413 . S
C416 H409 0.930 . S
C416 C415 1.393 . S
C416 C417 1.399 . S
C417 C416 1.399 . S
C417 C418 1.381 . S
C418 H410 0.930 . S
C418 C414 1.390 . S
C418 C417 1.381 . S
N419 C412 1.286 . S
N419 C415 1.413 . S
H420 C425 0.930 . S
H421 C428 0.930 . S
H422 C430 0.930 . S
H423 C424 1.016 . S
C424 H423 1.016 . S
C424 N431 1.286 . S
C425 H420 0.930 . S
C425 C426 1.397 . S
C425 C427 1.361 . S
C426 C425 1.397 . S
C426 C430 1.390 . S
C427 C425 1.361 . S
C427 C428 1.393 . S
C427 N431 1.413 . S
C428 H421 0.930 . S
C428 C427 1.393 . S
C428 C429 1.399 . S
C429 C428 1.399 . S
C429 C430 1.381 . S
C430 H422 0.930 . S
C430 C426 1.390 . S
C430 C429 1.381 . S
N431 C424 1.286 . S
N431 C427 1.413 . S
H432 C437 0.930 . S
H433 C440 0.930 . S
H434 C442 0.930 . S
H435 C436 1.016 . S
C436 H435 1.016 . S
C436 N443 1.286 . S
C437 H432 0.930 . S
C437 C438 1.397 . S
C437 C439 1.361 1_545 S
C438 C437 1.397 . S
C438 C442 1.390 . S
C439 C437 1.361 1_565 S
C439 C440 1.393 . S
C439 N443 1.413 . S
C440 H433 0.930 . S
C440 C439 1.393 . S
C440 C441 1.399 1_565 S
C441 C440 1.399 1_545 S
C441 C442 1.381 . S
C442 H434 0.930 . S
C442 C438 1.390 . S
C442 C441 1.381 . S
N443 C436 1.286 . S
N443 C439 1.413 . S
H444 C449 0.930 . S
H445 C452 0.930 . S
H446 C454 0.930 . S
H447 C448 1.016 . S
C448 H447 1.016 . S
C448 N455 1.286 . S
C449 H444 0.930 . S
C449 C450 1.397 . S
C449 C451 1.361 . S
C450 C449 1.397 . S
C450 C454 1.390 . S
C451 C449 1.361 . S
C451 C452 1.393 . S
C451 N455 1.413 . S
C452 H445 0.930 . S
C452 C451 1.393 . S
C452 C453 1.399 . S
C453 C452 1.399 . S
C453 C454 1.381 . S
C454 H446 0.930 . S
C454 C450 1.390 . S
C454 C453 1.381 . S
N455 C448 1.286 . S
N455 C451 1.413 . S
H456 C461 0.930 . S
H457 C464 0.930 . S
H458 C466 0.930 . S
H459 C460 1.016 . S
C460 H459 1.016 . S
C460 N467 1.286 . S
C461 H456 0.930 . S
C461 C462 1.397 . S
C461 C463 1.361 . S
C462 C461 1.397 . S
C462 C466 1.390 . S
C463 C461 1.361 . S
C463 C464 1.393 . S
C463 N467 1.413 . S
C464 H457 0.930 . S
C464 C463 1.393 . S
C464 C465 1.399 . S
C465 C464 1.399 . S
C465 C466 1.381 . S
C466 H458 0.930 . S
C466 C462 1.390 . S
C466 C465 1.381 . S
N467 C460 1.286 . S
N467 C463 1.413 . S
H468 C473 0.930 . S
H469 C476 0.930 . S
H470 C478 0.930 . S
H471 C472 1.016 . S
C472 H471 1.016 . S
C472 N479 1.286 . S
C473 H468 0.930 . S
C473 C474 1.397 . S
C473 C475 1.361 . S
C474 C473 1.397 . S
C474 C478 1.390 . S
C475 C473 1.361 . S
C475 C476 1.393 . S
C475 N479 1.413 . S
C476 H469 0.930 . S
C476 C475 1.393 . S
C476 C477 1.399 . S
C477 C476 1.399 . S
C477 C478 1.381 . S
C478 H470 0.930 . S
C478 C474 1.390 . S
C478 C477 1.381 . S
N479 C472 1.286 . S
N479 C475 1.413 . S
H480 C485 0.930 . S
H481 C488 0.930 . S
H482 C490 0.930 . S
H483 C484 1.016 . S
C484 H483 1.016 . S
C484 N491 1.286 . S
C485 H480 0.930 . S
C485 C486 1.397 . S
C485 C487 1.361 . S
C486 C485 1.397 . S
C486 C490 1.390 . S
C487 C485 1.361 . S
C487 C488 1.393 . S
C487 N491 1.413 . S
C488 H481 0.930 . S
C488 C487 1.393 . S
C488 C489 1.399 . S
C489 C488 1.399 . S
C489 C490 1.381 . S
C490 H482 0.930 . S
C490 C486 1.390 . S
C490 C489 1.381 . S
N491 C484 1.286 . S
N491 C487 1.413 . S
H492 C497 0.930 . S
H493 C500 0.930 . S
H494 C502 0.930 . S
H495 C496 1.016 . S
C496 H495 1.016 . S
C496 N503 1.286 . S
C497 H492 0.930 . S
C497 C498 1.397 . S
C497 C499 1.361 1_554 S
C498 C497 1.397 . S
C498 C502 1.390 . S
C499 C497 1.361 1_556 S
C499 C500 1.393 . S
C499 N503 1.413 . S
C500 H493 0.930 . S
C500 C499 1.393 . S
C500 C501 1.399 1_556 S
C501 C500 1.399 1_554 S
C501 C502 1.381 . S
C502 H494 0.930 . S
C502 C498 1.390 . S
C502 C501 1.381 . S
N503 C496 1.286 . S
N503 C499 1.413 . S
H504 C509 0.930 . S
H505 C512 0.930 . S
H506 C514 0.930 . S
H507 C508 1.016 . S
C508 H507 1.016 . S
C508 N515 1.286 . S
C509 H504 0.930 . S
C509 C510 1.397 . S
C509 C511 1.361 . S
C510 C509 1.397 . S
C510 C514 1.390 . S
C511 C509 1.361 . S
C511 C512 1.393 . S
C511 N515 1.413 . S
C512 H505 0.930 . S
C512 C511 1.393 . S
C512 C513 1.399 . S
C513 C512 1.399 . S
C513 C514 1.381 . S
C514 H506 0.930 . S
C514 C510 1.390 . S
C514 C513 1.381 . S
N515 C508 1.286 . S
N515 C511 1.413 . S
H516 C521 0.930 . S
H517 C524 0.930 . S
H518 C526 0.930 . S
H519 C520 1.016 . S
C520 H519 1.016 . S
C520 N527 1.286 . S
C521 H516 0.930 . S
C521 C522 1.397 . S
C521 C523 1.361 . S
C522 C521 1.397 . S
C522 C526 1.390 . S
C523 C521 1.361 . S
C523 C524 1.393 . S
C523 N527 1.413 . S
C524 H517 0.930 . S
C524 C523 1.393 . S
C524 C525 1.399 . S
C525 C524 1.399 . S
C525 C526 1.381 . S
C526 H518 0.930 . S
C526 C522 1.390 . S
C526 C525 1.381 . S
N527 C520 1.286 . S
N527 C523 1.413 . S
H528 C533 0.930 . S
H529 C536 0.930 . S
H530 C538 0.930 . S
H531 C532 1.016 . S
C532 H531 1.016 . S
C532 N539 1.286 . S
C533 H528 0.930 . S
C533 C534 1.397 . S
C533 C535 1.361 . S
C534 C533 1.397 . S
C534 C538 1.390 . S
C535 C533 1.361 . S
C535 C536 1.393 . S
C535 N539 1.413 . S
C536 H529 0.930 . S
C536 C535 1.393 . S
C536 C537 1.399 . S
C537 C536 1.399 . S
C537 C538 1.381 . S
C538 H530 0.930 . S
C538 C534 1.390 . S
C538 C537 1.381 . S
N539 C532 1.286 . S
N539 C535 1.413 . S
H540 C545 0.930 . S
H541 C548 0.930 . S
H542 C550 0.930 . S
H543 C544 1.016 . S
C544 H543 1.016 . S
C544 N551 1.286 . S
C545 H540 0.930 . S
C545 C546 1.397 . S
C545 C547 1.361 1_455 S
C546 C545 1.397 . S
C546 C550 1.390 . S
C547 C545 1.361 1_655 S
C547 C548 1.393 . S
C547 N551 1.413 . S
C548 H541 0.930 . S
C548 C547 1.393 . S
C548 C549 1.399 1_655 S
C549 C548 1.399 1_455 S
C549 C550 1.381 . S
C550 H542 0.930 . S
C550 C546 1.390 . S
C550 C549 1.381 . S
N551 C544 1.286 . S
N551 C547 1.413 . S
C552 C553 1.349 . S
C552 C554 1.327 . S
C552 H577 0.950 . S
C553 C552 1.349 . S
C553 C569 1.349 . S
C554 C552 1.327 . S
C554 C573 1.429 . S
C554 H578 0.950 . S
C555 C572 1.574 . S
C555 C574 1.368 . S
C555 H579 0.949 . S
H556 C560 0.949 . S
C557 C558 1.349 . S
C557 C559 1.327 . S
C557 H580 0.950 . S
C558 C557 1.349 . S
C558 C570 1.349 . S
C559 C557 1.327 . S
C559 C575 1.429 . S
C559 H581 0.950 . S
C560 H556 0.949 . S
C560 C568 1.574 . S
C560 C576 1.368 . S
H561 C569 0.950 . S
H562 C567 0.950 . S
H563 C568 0.949 . S
H564 C570 0.950 . S
H565 C571 0.950 . S
H566 C572 0.949 . S
C567 H562 0.950 . S
C567 C569 1.327 . S
C567 C573 1.429 . S
C568 C560 1.574 . S
C568 H563 0.949 . S
C568 C574 1.368 . S
C569 C553 1.349 . S
C569 H561 0.950 . S
C569 C567 1.327 . S
C570 C558 1.349 . S
C570 H564 0.950 . S
C570 C571 1.327 . S
C571 H565 0.950 . S
C571 C570 1.327 . S
C571 C575 1.429 . S
C572 C555 1.574 . S
C572 H566 0.949 . S
C572 C576 1.368 . S
C573 C554 1.429 . S
C573 C567 1.429 . S
C573 C574 1.523 . S
C574 C555 1.368 . S
C574 C568 1.368 . S
C574 C573 1.523 . S
C575 C559 1.429 . S
C575 C571 1.429 . S
C575 C576 1.523 . S
C576 C560 1.368 . S
C576 C572 1.368 . S
C576 C575 1.523 . S
H577 C552 0.950 . S
H578 C554 0.950 . S
H579 C555 0.949 . S
H580 C557 0.950 . S
H581 C559 0.950 . S
C582 C583 1.349 . S
C582 C584 1.327 . S
C582 H607 0.950 . S
C583 C582 1.349 . S
C583 C599 1.349 . S
C584 C582 1.327 . S
C584 C603 1.429 . S
C584 H608 0.950 . S
C585 C602 1.574 . S
C585 C604 1.368 . S
C585 H609 0.949 . S
H586 C590 0.949 . S
C587 C588 1.349 . S
C587 C589 1.327 . S
C587 H610 0.950 . S
C588 C587 1.349 . S
C588 C600 1.349 . S
C589 C587 1.327 . S
C589 C605 1.429 . S
C589 H611 0.950 . S
C590 H586 0.949 . S
C590 C598 1.574 . S
C590 C606 1.368 . S
H591 C599 0.950 . S
H592 C597 0.950 . S
H593 C598 0.949 . S
H594 C600 0.950 . S
H595 C601 0.950 . S
H596 C602 0.949 . S
C597 H592 0.950 . S
C597 C599 1.327 . S
C597 C603 1.429 . S
C598 C590 1.574 . S
C598 H593 0.949 . S
C598 C604 1.368 . S
C599 C583 1.349 . S
C599 H591 0.950 . S
C599 C597 1.327 . S
C600 C588 1.349 . S
C600 H594 0.950 . S
C600 C601 1.327 . S
C601 H595 0.950 . S
C601 C600 1.327 . S
C601 C605 1.429 . S
C602 C585 1.574 . S
C602 H596 0.949 . S
C602 C606 1.368 . S
C603 C584 1.429 . S
C603 C597 1.429 . S
C603 C604 1.523 . S
C604 C585 1.368 . S
C604 C598 1.368 . S
C604 C603 1.523 . S
C605 C589 1.429 . S
C605 C601 1.429 . S
C605 C606 1.523 . S
C606 C590 1.368 . S
C606 C602 1.368 . S
C606 C605 1.523 . S
H607 C582 0.950 . S
H608 C584 0.950 . S
H609 C585 0.949 . S
H610 C587 0.950 . S
H611 C589 0.950 . S
C612 C613 1.349 . S
C612 C614 1.327 . S
C612 H637 0.949 . S
C613 C612 1.349 . S
C613 C629 1.349 . S
C614 C612 1.327 . S
C614 C633 1.429 . S
C614 H638 0.950 . S
C615 C632 1.574 . S
C615 C634 1.368 . S
C615 H639 0.949 . S
H616 C620 0.949 . S
C617 C618 1.349 . S
C617 C619 1.327 . S
C617 H640 0.950 . S
C618 C617 1.349 . S
C618 C630 1.349 . S
C619 C617 1.327 . S
C619 C635 1.429 . S
C619 H641 0.950 . S
C620 H616 0.949 . S
C620 C628 1.574 . S
C620 C636 1.368 . S
H621 C629 0.950 . S
H622 C627 0.950 . S
H623 C628 0.949 . S
H624 C630 0.950 . S
H625 C631 0.950 . S
H626 C632 0.949 . S
C627 H622 0.950 . S
C627 C629 1.327 . S
C627 C633 1.429 . S
C628 C620 1.574 . S
C628 H623 0.949 . S
C628 C634 1.368 . S
C629 C613 1.349 . S
C629 H621 0.950 . S
C629 C627 1.327 . S
C630 C618 1.349 . S
C630 H624 0.950 . S
C630 C631 1.327 . S
C631 H625 0.950 . S
C631 C630 1.327 . S
C631 C635 1.429 . S
C632 C615 1.574 . S
C632 H626 0.949 . S
C632 C636 1.368 . S
C633 C614 1.429 . S
C633 C627 1.429 . S
C633 C634 1.523 . S
C634 C615 1.368 . S
C634 C628 1.368 . S
C634 C633 1.523 . S
C635 C619 1.429 . S
C635 C631 1.429 . S
C635 C636 1.523 . S
C636 C620 1.368 . S
C636 C632 1.368 . S
C636 C635 1.523 . S
H637 C612 0.949 . S
H638 C614 0.950 . S
H639 C615 0.949 . S
H640 C617 0.950 . S
H641 C619 0.950 . S
C642 C643 1.357 . S
C642 C644 1.327 . S
C642 H667 0.950 . S
C643 C642 1.357 . S
C643 C659 1.346 1_565 S
C644 C642 1.327 . S
C644 C663 1.429 . S
C644 H668 0.950 . S
C645 C662 1.574 . S
C645 C664 1.368 . S
C645 H669 0.949 . S
H646 C650 0.949 . S
C647 C648 1.349 1_655 S
C647 C649 1.327 . S
C647 H670 0.944 1_655 S
C648 C647 1.349 1_455 S
C648 C660 1.349 1_455 S
C649 C647 1.327 . S
C649 C665 1.429 . S
C649 H671 0.950 . S
C650 H646 0.949 . S
C650 C658 1.574 . S
C650 C666 1.368 . S
H651 C659 0.961 . S
H652 C657 0.950 . S
H653 C658 0.949 . S
H654 C660 0.979 . S
H655 C661 0.950 . S
H656 C662 0.949 . S
C657 H652 0.950 . S
C657 C659 1.319 1_565 S
C657 C663 1.429 . S
C658 C650 1.574 . S
C658 H653 0.949 . S
C658 C664 1.368 . S
C659 C643 1.346 1_545 S
C659 H651 0.961 . S
C659 C657 1.319 1_545 S
C660 C648 1.349 1_655 S
C660 H654 0.979 . S
C660 C661 1.327 . S
C661 H655 0.950 . S
C661 C660 1.327 . S
C661 C665 1.429 . S
C662 C645 1.574 . S
C662 H656 0.949 . S
C662 C666 1.368 . S
C663 C644 1.429 . S
C663 C657 1.429 . S
C663 C664 1.523 . S
C664 C645 1.368 . S
C664 C658 1.368 . S
C664 C663 1.523 . S
C665 C649 1.429 . S
C665 C661 1.429 . S
C665 C666 1.523 . S
C666 C650 1.368 . S
C666 C662 1.368 . S
C666 C665 1.523 . S
H667 C642 0.950 . S
H668 C644 0.950 . S
H669 C645 0.949 . S
H670 C647 0.944 1_455 S
H671 C649 0.950 . S
C672 C673 1.349 . S
C672 C674 1.327 . S
C672 H697 0.950 . S
C673 C672 1.349 . S
C673 C689 1.349 . S
C674 C672 1.327 . S
C674 C693 1.429 . S
C674 H698 0.950 . S
C675 C692 1.574 . S
C675 C694 1.368 . S
C675 H699 0.949 . S
H676 C680 0.949 . S
C677 C678 1.349 . S
C677 C679 1.327 . S
C677 H700 0.950 . S
C678 C677 1.349 . S
C678 C690 1.349 . S
C679 C677 1.327 . S
C679 C695 1.429 . S
C679 H701 0.950 . S
C680 H676 0.949 . S
C680 C688 1.574 . S
C680 C696 1.368 . S
H681 C689 0.950 . S
H682 C687 0.950 . S
H683 C688 0.949 . S
H684 C690 0.950 . S
H685 C691 0.950 . S
H686 C692 0.949 . S
C687 H682 0.950 . S
C687 C689 1.327 . S
C687 C693 1.429 . S
C688 C680 1.574 . S
C688 H683 0.949 . S
C688 C694 1.368 . S
C689 C673 1.349 . S
C689 H681 0.950 . S
C689 C687 1.327 . S
C690 C678 1.349 . S
C690 H684 0.950 . S
C690 C691 1.327 . S
C691 H685 0.950 . S
C691 C690 1.327 . S
C691 C695 1.429 . S
C692 C675 1.574 . S
C692 H686 0.949 . S
C692 C696 1.368 . S
C693 C674 1.429 . S
C693 C687 1.429 . S
C693 C694 1.523 . S
C694 C675 1.368 . S
C694 C688 1.368 . S
C694 C693 1.523 . S
C695 C679 1.429 . S
C695 C691 1.429 . S
C695 C696 1.523 . S
C696 C680 1.368 . S
C696 C692 1.368 . S
C696 C695 1.523 . S
H697 C672 0.950 . S
H698 C674 0.950 . S
H699 C675 0.949 . S
H700 C677 0.950 . S
H701 C679 0.950 . S
C702 C703 1.333 1_554 S
C702 C704 1.327 . S
C702 H727 0.950 . S
C703 C702 1.333 1_556 S
C703 C719 1.374 . S
C704 C702 1.327 . S
C704 C723 1.429 1_554 S
C704 H728 0.950 . S
C705 C722 1.574 . S
C705 C724 1.368 . S
C705 H729 0.949 . S
H706 C710 0.949 1_554 S
C707 C708 1.349 1_565 S
C707 C709 1.327 . S
C707 H730 0.950 . S
C708 C707 1.349 1_545 S
C708 C720 1.349 1_545 S
C709 C707 1.327 . S
C709 C725 1.429 . S
C709 H731 0.950 . S
C710 H706 0.949 1_556 S
C710 C718 1.574 1_556 S
C710 C726 1.368 . S
H711 C719 0.950 . S
H712 C717 0.950 . S
H713 C718 0.949 . S
H714 C720 0.950 1_545 S
H715 C721 0.950 1_554 S
H716 C722 0.949 . S
C717 H712 0.950 . S
C717 C719 1.327 . S
C717 C723 1.429 . S
C718 C710 1.574 1_554 S
C718 H713 0.949 . S
C718 C724 1.368 1_554 S
C719 C703 1.374 . S
C719 H711 0.950 . S
C719 C717 1.327 . S
C720 C708 1.349 1_565 S
C720 H714 0.950 1_565 S
C720 C721 1.327 . S
C721 H715 0.950 1_556 S
C721 C720 1.327 . S
C721 C725 1.429 . S
C722 C705 1.574 . S
C722 H716 0.949 . S
C722 C726 1.368 . S
C723 C704 1.429 1_556 S
C723 C717 1.429 . S
C723 C724 1.523 . S
C724 C705 1.368 . S
C724 C718 1.368 1_556 S
C724 C723 1.523 . S
C725 C709 1.429 . S
C725 C721 1.429 . S
C725 C726 1.523 . S
C726 C710 1.368 . S
C726 C722 1.368 . S
C726 C725 1.523 . S
H727 C702 0.950 . S
H728 C704 0.950 . S
H729 C705 0.949 . S
H730 C707 0.950 . S
H731 C709 0.950 . S
C732 C733 1.349 . S
C732 C734 1.327 . S
C732 H757 0.950 . S
C733 C732 1.349 . S
C733 C749 1.349 . S
C734 C732 1.327 . S
C734 C753 1.429 . S
C734 H758 0.950 . S
C735 C752 1.574 . S
C735 C754 1.368 . S
C735 H759 0.949 . S
H736 C740 0.949 . S
C737 C738 1.349 . S
C737 C739 1.327 . S
C737 H760 0.950 . S
C738 C737 1.349 . S
C738 C750 1.349 . S
C739 C737 1.327 . S
C739 C755 1.429 . S
C739 H761 0.950 . S
C740 H736 0.949 . S
C740 C748 1.574 . S
C740 C756 1.368 . S
H741 C749 0.950 . S
H742 C747 0.950 . S
H743 C748 0.949 . S
H744 C750 0.950 . S
H745 C751 0.950 . S
H746 C752 0.949 . S
C747 H742 0.950 . S
C747 C749 1.327 . S
C747 C753 1.429 . S
C748 C740 1.574 . S
C748 H743 0.949 . S
C748 C754 1.368 . S
C749 C733 1.349 . S
C749 H741 0.950 . S
C749 C747 1.327 . S
C750 C738 1.349 . S
C750 H744 0.950 . S
C750 C751 1.327 . S
C751 H745 0.950 . S
C751 C750 1.327 . S
C751 C755 1.429 . S
C752 C735 1.574 . S
C752 H746 0.949 . S
C752 C756 1.368 . S
C753 C734 1.429 . S
C753 C747 1.429 . S
C753 C754 1.523 . S
C754 C735 1.368 . S
C754 C748 1.368 . S
C754 C753 1.523 . S
C755 C739 1.429 . S
C755 C751 1.429 . S
C755 C756 1.523 . S
C756 C740 1.368 . S
C756 C752 1.368 . S
C756 C755 1.523 . S
H757 C732 0.950 . S
H758 C734 0.950 . S
H759 C735 0.949 . S
H760 C737 0.950 . S
H761 C739 0.950 . S
C762 C763 1.354 . S
C762 C764 1.336 . S
C762 H787 0.937 1_554 S
C763 C762 1.354 . S
C763 C779 1.349 . S
C764 C762 1.336 . S
C764 C783 1.429 . S
C764 H788 0.952 . S
C765 C782 1.574 . S
C765 C784 1.368 . S
C765 H789 0.949 . S
H766 C770 0.949 . S
C767 C768 1.349 . S
C767 C769 1.327 . S
C767 H790 0.950 . S
C768 C767 1.349 . S
C768 C780 1.349 . S
C769 C767 1.327 . S
C769 C785 1.429 . S
C769 H791 0.950 . S
C770 H766 0.949 . S
C770 C778 1.574 . S
C770 C786 1.368 . S
H771 C779 0.950 . S
H772 C777 0.950 . S
H773 C778 0.949 . S
H774 C780 0.950 . S
H775 C781 0.950 . S
H776 C782 0.949 . S
C777 H772 0.950 . S
C777 C779 1.327 . S
C777 C783 1.429 . S
C778 C770 1.574 . S
C778 H773 0.949 . S
C778 C784 1.368 . S
C779 C763 1.349 . S
C779 H771 0.950 . S
C779 C777 1.327 . S
C780 C768 1.349 . S
C780 H774 0.950 . S
C780 C781 1.327 . S
C781 H775 0.950 . S
C781 C780 1.327 . S
C781 C785 1.429 . S
C782 C765 1.574 . S
C782 H776 0.949 . S
C782 C786 1.368 . S
C783 C764 1.429 . S
C783 C777 1.429 . S
C783 C784 1.523 . S
C784 C765 1.368 . S
C784 C778 1.368 . S
C784 C783 1.523 . S
C785 C769 1.429 . S
C785 C781 1.429 . S
C785 C786 1.523 . S
C786 C770 1.368 . S
C786 C782 1.368 . S
C786 C785 1.523 . S
H787 C762 0.937 1_556 S
H788 C764 0.952 . S
H789 C765 0.949 . S
H790 C767 0.950 . S
H791 C769 0.950 . S
C792 C793 1.349 . S
C792 C794 1.327 . S
C792 H817 0.950 . S
C793 C792 1.349 . S
C793 C809 1.349 . S
C794 C792 1.327 . S
C794 C813 1.429 . S
C794 H818 0.950 . S
C795 C812 1.574 . S
C795 C814 1.368 . S
C795 H819 0.949 . S
H796 C800 0.949 . S
C797 C798 1.349 . S
C797 C799 1.327 . S
C797 H820 0.950 . S
C798 C797 1.349 . S
C798 C810 1.349 . S
C799 C797 1.327 . S
C799 C815 1.429 . S
C799 H821 0.950 . S
C800 H796 0.949 . S
C800 C808 1.574 . S
C800 C816 1.368 . S
H801 C809 0.950 . S
H802 C807 0.950 . S
H803 C808 0.949 . S
H804 C810 0.950 . S
H805 C811 0.950 . S
H806 C812 0.949 . S
C807 H802 0.950 . S
C807 C809 1.327 . S
C807 C813 1.429 . S
C808 C800 1.574 . S
C808 H803 0.949 . S
C808 C814 1.368 . S
C809 C793 1.349 . S
C809 H801 0.950 . S
C809 C807 1.327 . S
C810 C798 1.349 . S
C810 H804 0.950 . S
C810 C811 1.327 . S
C811 H805 0.950 . S
C811 C810 1.327 . S
C811 C815 1.429 . S
C812 C795 1.574 . S
C812 H806 0.949 . S
C812 C816 1.368 . S
C813 C794 1.429 . S
C813 C807 1.429 . S
C813 C814 1.523 . S
C814 C795 1.368 . S
C814 C808 1.368 . S
C814 C813 1.523 . S
C815 C799 1.429 . S
C815 C811 1.429 . S
C815 C816 1.523 . S
C816 C800 1.368 . S
C816 C812 1.368 . S
C816 C815 1.523 . S
H817 C792 0.950 . S
H818 C794 0.950 . S
H819 C795 0.949 . S
H820 C797 0.950 . S
H821 C799 0.950 . S
C822 C823 1.370 . S
C822 C824 1.327 . S
C822 H847 0.950 . S
C823 C822 1.370 . S
C823 C839 1.336 1_655 S
C824 C822 1.327 . S
C824 C843 1.429 . S
C824 H848 0.950 . S
C825 C842 1.574 . S
C825 C844 1.368 . S
C825 H849 0.949 1_655 S
H826 C830 0.949 . S
C827 C828 1.349 1_556 S
C827 C829 1.327 . S
C827 H850 0.950 1_556 S
C828 C827 1.349 1_554 S
C828 C840 1.349 1_554 S
C829 C827 1.327 . S
C829 C845 1.429 . S
C829 H851 0.950 . S
C830 H826 0.949 . S
C830 C838 1.574 . S
C830 C846 1.368 . S
H831 C839 0.950 . S
H832 C837 0.950 . S
H833 C838 0.949 . S
H834 C840 0.950 . S
H835 C841 0.950 . S
H836 C842 0.949 . S
C837 H832 0.950 . S
C837 C839 1.327 . S
C837 C843 1.429 1_455 S
C838 C830 1.574 . S
C838 H833 0.949 . S
C838 C844 1.368 . S
C839 C823 1.336 1_455 S
C839 H831 0.950 . S
C839 C837 1.327 . S
C840 C828 1.349 1_556 S
C840 H834 0.950 . S
C840 C841 1.327 . S
C841 H835 0.950 . S
C841 C840 1.327 . S
C841 C845 1.429 . S
C842 C825 1.574 . S
C842 H836 0.949 . S
C842 C846 1.368 . S
C843 C824 1.429 . S
C843 C837 1.429 1_655 S
C843 C844 1.523 . S
C844 C825 1.368 . S
C844 C838 1.368 . S
C844 C843 1.523 . S
C845 C829 1.429 . S
C845 C841 1.429 . S
C845 C846 1.523 . S
C846 C830 1.368 . S
C846 C842 1.368 . S
C846 C845 1.523 . S
H847 C822 0.950 . S
H848 C824 0.950 . S
H849 C825 0.949 1_455 S
H850 C827 0.950 1_554 S
H851 C829 0.950 . S
C852 C853 1.349 . S
C852 C854 1.327 . S
C852 H877 0.950 . S
C853 C852 1.349 . S
C853 C869 1.349 . S
C854 C852 1.327 . S
C854 C873 1.429 . S
C854 H878 0.950 . S
C855 C872 1.574 . S
C855 C874 1.368 . S
C855 H879 0.949 . S
H856 C860 0.949 . S
C857 C858 1.349 . S
C857 C859 1.327 . S
C857 H880 0.950 . S
C858 C857 1.349 . S
C858 C870 1.349 . S
C859 C857 1.327 . S
C859 C875 1.429 . S
C859 H881 0.950 . S
C860 H856 0.949 . S
C860 C868 1.574 . S
C860 C876 1.368 . S
H861 C869 0.950 . S
H862 C867 0.950 . S
H863 C868 0.949 . S
H864 C870 0.950 . S
H865 C871 0.950 . S
H866 C872 0.949 . S
C867 H862 0.950 . S
C867 C869 1.327 . S
C867 C873 1.429 . S
C868 C860 1.574 . S
C868 H863 0.949 . S
C868 C874 1.368 . S
C869 C853 1.349 . S
C869 H861 0.950 . S
C869 C867 1.327 . S
C870 C858 1.349 . S
C870 H864 0.950 . S
C870 C871 1.327 . S
C871 H865 0.950 . S
C871 C870 1.327 . S
C871 C875 1.429 . S
C872 C855 1.574 . S
C872 H866 0.949 . S
C872 C876 1.368 . S
C873 C854 1.429 . S
C873 C867 1.429 . S
C873 C874 1.523 . S
C874 C855 1.368 . S
C874 C868 1.368 . S
C874 C873 1.523 . S
C875 C859 1.429 . S
C875 C871 1.429 . S
C875 C876 1.523 . S
C876 C860 1.368 . S
C876 C872 1.368 . S
C876 C875 1.523 . S
H877 C852 0.950 . S
H878 C854 0.950 . S
H879 C855 0.949 . S
H880 C857 0.950 . S
H881 C859 0.950 . S
C882 C883 1.349 . S
C882 C884 1.327 . S
C882 H907 0.950 . S
C883 C882 1.349 . S
C883 C899 1.349 1_455 S
C884 C882 1.327 . S
C884 C903 1.429 . S
C884 H908 0.950 . S
C885 C902 1.574 . S
C885 C904 1.368 . S
C885 H909 0.949 1_455 S
H886 C890 0.949 . S
C887 C888 1.349 . S
C887 C889 1.327 . S
C887 H910 0.950 . S
C888 C887 1.349 . S
C888 C900 1.349 . S
C889 C887 1.327 . S
C889 C905 1.429 . S
C889 H911 0.950 . S
C890 H886 0.949 . S
C890 C898 1.574 . S
C890 C906 1.368 . S
H891 C899 0.950 . S
H892 C897 0.950 . S
H893 C898 0.949 . S
H894 C900 0.950 . S
H895 C901 0.950 . S
H896 C902 0.949 1_655 S
C897 H892 0.950 . S
C897 C899 1.327 . S
C897 C903 1.429 1_655 S
C898 C890 1.574 . S
C898 H893 0.949 . S
C898 C904 1.368 . S
C899 C883 1.349 1_655 S
C899 H891 0.950 . S
C899 C897 1.327 . S
C900 C888 1.349 . S
C900 H894 0.950 . S
C900 C901 1.327 . S
C901 H895 0.950 . S
C901 C900 1.327 . S
C901 C905 1.429 . S
C902 C885 1.574 . S
C902 H896 0.949 1_455 S
C902 C906 1.368 . S
C903 C884 1.429 . S
C903 C897 1.429 1_455 S
C903 C904 1.523 . S
C904 C885 1.368 . S
C904 C898 1.368 . S
C904 C903 1.523 . S
C905 C889 1.429 . S
C905 C901 1.429 . S
C905 C906 1.523 . S
C906 C890 1.368 . S
C906 C902 1.368 . S
C906 C905 1.523 . S
H907 C882 0.950 . S
H908 C884 0.950 . S
H909 C885 0.949 1_655 S
H910 C887 0.950 . S
H911 C889 0.950 . S
C912 C913 1.349 . S
C912 C914 1.327 . S
C912 H937 0.950 . S
C913 C912 1.349 . S
C913 C929 1.349 . S
C914 C912 1.327 . S
C914 C933 1.429 . S
C914 H938 0.950 . S
C915 C932 1.574 . S
C915 C934 1.368 . S
C915 H939 0.949 . S
H916 C920 0.949 . S
C917 C918 1.349 . S
C917 C919 1.327 . S
C917 H940 0.950 . S
C918 C917 1.349 . S
C918 C930 1.349 . S
C919 C917 1.327 . S
C919 C935 1.429 . S
C919 H941 0.950 . S
C920 H916 0.949 . S
C920 C928 1.574 . S
C920 C936 1.368 . S
H921 C929 0.950 . S
H922 C927 0.950 . S
H923 C928 0.949 . S
H924 C930 0.950 . S
H925 C931 0.950 . S
H926 C932 0.949 . S
C927 H922 0.950 . S
C927 C929 1.327 . S
C927 C933 1.429 . S
C928 C920 1.574 . S
C928 H923 0.949 . S
C928 C934 1.368 . S
C929 C913 1.349 . S
C929 H921 0.950 . S
C929 C927 1.327 . S
C930 C918 1.349 . S
C930 H924 0.950 . S
C930 C931 1.327 . S
C931 H925 0.950 . S
C931 C930 1.327 . S
C931 C935 1.429 . S
C932 C915 1.574 . S
C932 H926 0.949 . S
C932 C936 1.368 . S
C933 C914 1.429 . S
C933 C927 1.429 . S
C933 C934 1.523 . S
C934 C915 1.368 . S
C934 C928 1.368 . S
C934 C933 1.523 . S
C935 C919 1.429 . S
C935 C931 1.429 . S
C935 C936 1.523 . S
C936 C920 1.368 . S
C936 C932 1.368 . S
C936 C935 1.523 . S
H937 C912 0.950 . S
H938 C914 0.950 . S
H939 C915 0.949 . S
H940 C917 0.950 . S
H941 C919 0.950 . S
C942 C943 1.349 . S
C942 C944 1.327 . S
C942 H967 0.950 . S
C943 C942 1.349 . S
C943 C959 1.349 . S
C944 C942 1.327 . S
C944 C963 1.429 . S
C944 H968 0.950 . S
C945 C962 1.574 . S
C945 C964 1.368 . S
C945 H969 0.949 . S
H946 C950 0.949 . S
C947 C948 1.349 . S
C947 C949 1.327 . S
C947 H970 0.950 . S
C948 C947 1.349 . S
C948 C960 1.349 . S
C949 C947 1.327 . S
C949 C965 1.429 . S
C949 H971 0.950 . S
C950 H946 0.949 . S
C950 C958 1.574 . S
C950 C966 1.368 . S
H951 C959 0.950 . S
H952 C957 0.950 . S
H953 C958 0.949 . S
H954 C960 0.950 . S
H955 C961 0.950 . S
H956 C962 0.949 . S
C957 H952 0.950 . S
C957 C959 1.327 . S
C957 C963 1.429 . S
C958 C950 1.574 . S
C958 H953 0.949 . S
C958 C964 1.368 . S
C959 C943 1.349 . S
C959 H951 0.950 . S
C959 C957 1.327 . S
C960 C948 1.349 . S
C960 H954 0.950 . S
C960 C961 1.327 . S
C961 H955 0.950 . S
C961 C960 1.327 . S
C961 C965 1.429 . S
C962 C945 1.574 . S
C962 H956 0.949 . S
C962 C966 1.368 . S
C963 C944 1.429 . S
C963 C957 1.429 . S
C963 C964 1.523 . S
C964 C945 1.368 . S
C964 C958 1.368 . S
C964 C963 1.523 . S
C965 C949 1.429 . S
C965 C961 1.429 . S
C965 C966 1.523 . S
C966 C950 1.368 . S
C966 C962 1.368 . S
C966 C965 1.523 . S
H967 C942 0.950 . S
H968 C944 0.950 . S
H969 C945 0.949 . S
H970 C947 0.950 . S
H971 C949 0.950 . S
C972 C973 1.349 1_545 S
C972 C974 1.335 . S
C972 H997 0.950 . S
C973 C972 1.349 1_565 S
C973 C989 1.349 . S
C974 C972 1.335 . S
C974 C993 1.405 1_545 S
C974 H998 0.967 . S
C975 C992 1.574 . S
C975 C994 1.368 . S
C975 H999 0.949 . S
H976 C980 0.949 . S
C977 C978 1.349 . S
C977 C979 1.327 . S
C977 H1000 0.950 . S
C978 C977 1.349 . S
C978 C990 1.349 . S
C979 C977 1.327 . S
C979 C995 1.429 . S
C979 H1001 0.950 . S
C980 H976 0.949 . S
C980 C988 1.574 . S
C980 C996 1.368 . S
H981 C989 0.950 . S
H982 C987 0.950 . S
H983 C988 0.949 1_545 S
H984 C990 0.950 . S
H985 C991 0.950 . S
H986 C992 0.949 . S
C987 H982 0.950 . S
C987 C989 1.327 . S
C987 C993 1.429 . S
C988 C980 1.574 . S
C988 H983 0.949 1_565 S
C988 C994 1.368 . S
C989 C973 1.349 . S
C989 H981 0.950 . S
C989 C987 1.327 . S
C990 C978 1.349 . S
C990 H984 0.950 . S
C990 C991 1.327 . S
C991 H985 0.950 . S
C991 C990 1.327 . S
C991 C995 1.429 . S
C992 C975 1.574 . S
C992 H986 0.949 . S
C992 C996 1.368 . S
C993 C974 1.405 1_565 S
C993 C987 1.429 . S
C993 C994 1.523 . S
C994 C975 1.368 . S
C994 C988 1.368 . S
C994 C993 1.523 . S
C995 C979 1.429 . S
C995 C991 1.429 . S
C995 C996 1.523 . S
C996 C980 1.368 . S
C996 C992 1.368 . S
C996 C995 1.523 . S
H997 C972 0.950 . S
H998 C974 0.967 . S
H999 C975 0.949 . S
H1000 C977 0.950 . S
H1001 C979 0.950 . S
C1002 C1003 1.341 1_565 S
C1002 C1004 1.327 . S
C1002 H1027 0.950 . S
C1003 C1002 1.341 1_545 S
C1003 C1019 1.366 . S
C1004 C1002 1.327 . S
C1004 C1023 1.429 1_565 S
C1004 H1028 0.950 . S
C1005 C1022 1.574 . S
C1005 C1024 1.368 . S
C1005 H1029 0.949 . S
H1006 C1010 0.949 . S
C1007 C1008 1.349 1_455 S
C1007 C1009 1.327 . S
C1007 H1030 0.950 . S
C1008 C1007 1.349 1_655 S
C1008 C1020 1.349 1_655 S
C1009 C1007 1.327 . S
C1009 C1025 1.429 . S
C1009 H1031 0.950 . S
C1010 H1006 0.949 . S
C1010 C1018 1.574 . S
C1010 C1026 1.368 . S
H1011 C1019 0.950 . S
H1012 C1017 0.950 . S
H1013 C1018 0.949 1_565 S
H1014 C1020 0.950 1_655 S
H1015 C1021 0.950 . S
H1016 C1022 0.949 . S
C1017 H1012 0.950 . S
C1017 C1019 1.327 . S
C1017 C1023 1.429 . S
C1018 C1010 1.574 . S
C1018 H1013 0.949 1_545 S
C1018 C1024 1.368 . S
C1019 C1003 1.366 . S
C1019 H1011 0.950 . S
C1019 C1017 1.327 . S
C1020 C1008 1.349 1_455 S
C1020 H1014 0.950 1_455 S
C1020 C1021 1.327 . S
C1021 H1015 0.950 . S
C1021 C1020 1.327 . S
C1021 C1025 1.429 . S
C1022 C1005 1.574 . S
C1022 H1016 0.949 . S
C1022 C1026 1.368 . S
C1023 C1004 1.429 1_545 S
C1023 C1017 1.429 . S
C1023 C1024 1.523 . S
C1024 C1005 1.368 . S
C1024 C1018 1.368 . S
C1024 C1023 1.523 . S
C1025 C1009 1.429 . S
C1025 C1021 1.429 . S
C1025 C1026 1.523 . S
C1026 C1010 1.368 . S
C1026 C1022 1.368 . S
C1026 C1025 1.523 . S
H1027 C1002 0.950 . S
H1028 C1004 0.950 . S
H1029 C1005 0.949 . S
H1030 C1007 0.950 . S
H1031 C1009 0.950 . S
C1032 C1033 1.349 . S
C1032 C1034 1.327 . S
C1032 H1057 0.950 . S
C1033 C1032 1.349 . S
C1033 C1049 1.349 . S
C1034 C1032 1.327 . S
C1034 C1053 1.429 . S
C1034 H1058 0.950 . S
C1035 C1052 1.574 . S
C1035 C1054 1.368 . S
C1035 H1059 0.949 . S
H1036 C1040 0.949 . S
C1037 C1038 1.349 . S
C1037 C1039 1.327 . S
C1037 H1060 0.950 . S
C1038 C1037 1.349 . S
C1038 C1050 1.349 . S
C1039 C1037 1.327 . S
C1039 C1055 1.429 . S
C1039 H1061 0.950 . S
C1040 H1036 0.949 . S
C1040 C1048 1.574 . S
C1040 C1056 1.368 . S
H1041 C1049 0.950 . S
H1042 C1047 0.950 . S
H1043 C1048 0.949 . S
H1044 C1050 0.950 . S
H1045 C1051 0.950 . S
H1046 C1052 0.949 . S
C1047 H1042 0.950 . S
C1047 C1049 1.327 . S
C1047 C1053 1.429 . S
C1048 C1040 1.574 . S
C1048 H1043 0.949 . S
C1048 C1054 1.368 . S
C1049 C1033 1.349 . S
C1049 H1041 0.950 . S
C1049 C1047 1.327 . S
C1050 C1038 1.349 . S
C1050 H1044 0.950 . S
C1050 C1051 1.327 . S
C1051 H1045 0.950 . S
C1051 C1050 1.327 . S
C1051 C1055 1.429 . S
C1052 C1035 1.574 . S
C1052 H1046 0.949 . S
C1052 C1056 1.368 . S
C1053 C1034 1.429 . S
C1053 C1047 1.429 . S
C1053 C1054 1.523 . S
C1054 C1035 1.368 . S
C1054 C1048 1.368 . S
C1054 C1053 1.523 . S
C1055 C1039 1.429 . S
C1055 C1051 1.429 . S
C1055 C1056 1.523 . S
C1056 C1040 1.368 . S
C1056 C1052 1.368 . S
C1056 C1055 1.523 . S
H1057 C1032 0.950 . S
H1058 C1034 0.950 . S
H1059 C1035 0.949 . S
H1060 C1037 0.950 . S
H1061 C1039 0.950 . S
C1062 C1063 1.369 . S
C1062 C1064 1.327 . S
C1062 H1087 0.950 . S
C1063 C1062 1.369 . S
C1063 C1079 1.335 1_554 S
C1064 C1062 1.327 . S
C1064 C1083 1.429 . S
C1064 H1088 0.950 . S
C1065 C1082 1.574 1_556 S
C1065 C1084 1.368 1_556 S
C1065 H1089 0.949 . S
H1066 C1070 0.949 . S
C1067 C1068 1.349 1_545 S
C1067 C1069 1.327 . S
C1067 H1090 0.950 1_545 S
C1068 C1067 1.349 1_565 S
C1068 C1080 1.349 1_565 S
C1069 C1067 1.327 . S
C1069 C1085 1.429 . S
C1069 H1091 0.950 1_554 S
C1070 H1066 0.949 . S
C1070 C1078 1.574 . S
C1070 C1086 1.368 . S
H1071 C1079 0.950 . S
H1072 C1077 0.950 . S
H1073 C1078 0.949 . S
H1074 C1080 0.950 . S
H1075 C1081 0.950 . S
H1076 C1082 0.949 1_556 S
C1077 H1072 0.950 . S
C1077 C1079 1.327 . S
C1077 C1083 1.429 1_556 S
C1078 C1070 1.574 . S
C1078 H1073 0.949 . S
C1078 C1084 1.368 . S
C1079 C1063 1.335 1_556 S
C1079 H1071 0.950 . S
C1079 C1077 1.327 . S
C1080 C1068 1.349 1_545 S
C1080 H1074 0.950 . S
C1080 C1081 1.327 . S
C1081 H1075 0.950 . S
C1081 C1080 1.327 . S
C1081 C1085 1.429 . S
C1082 C1065 1.574 1_554 S
C1082 H1076 0.949 1_554 S
C1082 C1086 1.368 . S
C1083 C1064 1.429 . S
C1083 C1077 1.429 1_554 S
C1083 C1084 1.523 . S
C1084 C1065 1.368 1_554 S
C1084 C1078 1.368 . S
C1084 C1083 1.523 . S
C1085 C1069 1.429 . S
C1085 C1081 1.429 . S
C1085 C1086 1.523 . S
C1086 C1070 1.368 . S
C1086 C1082 1.368 . S
C1086 C1085 1.523 . S
H1087 C1062 0.950 . S
H1088 C1064 0.950 . S
H1089 C1065 0.949 . S
H1090 C1067 0.950 1_565 S
H1091 C1069 0.950 1_556 S
C1092 C1093 1.349 . S
C1092 C1094 1.327 . S
C1092 H1117 0.950 . S
C1093 C1092 1.349 . S
C1093 C1109 1.349 . S
C1094 C1092 1.327 . S
C1094 C1113 1.429 . S
C1094 H1118 0.950 . S
C1095 C1112 1.574 . S
C1095 C1114 1.368 . S
C1095 H1119 0.949 . S
H1096 C1100 0.949 . S
C1097 C1098 1.349 . S
C1097 C1099 1.327 . S
C1097 H1120 0.950 . S
C1098 C1097 1.349 . S
C1098 C1110 1.349 . S
C1099 C1097 1.327 . S
C1099 C1115 1.429 . S
C1099 H1121 0.950 . S
C1100 H1096 0.949 . S
C1100 C1108 1.574 . S
C1100 C1116 1.368 . S
H1101 C1109 0.950 . S
H1102 C1107 0.950 . S
H1103 C1108 0.949 . S
H1104 C1110 0.950 . S
H1105 C1111 0.950 . S
H1106 C1112 0.949 . S
C1107 H1102 0.950 . S
C1107 C1109 1.327 . S
C1107 C1113 1.429 . S
C1108 C1100 1.574 . S
C1108 H1103 0.949 . S
C1108 C1114 1.368 . S
C1109 C1093 1.349 . S
C1109 H1101 0.950 . S
C1109 C1107 1.327 . S
C1110 C1098 1.349 . S
C1110 H1104 0.950 . S
C1110 C1111 1.327 . S
C1111 H1105 0.950 . S
C1111 C1110 1.327 . S
C1111 C1115 1.429 . S
C1112 C1095 1.574 . S
C1112 H1106 0.949 . S
C1112 C1116 1.368 . S
C1113 C1094 1.429 . S
C1113 C1107 1.429 . S
C1113 C1114 1.523 . S
C1114 C1095 1.368 . S
C1114 C1108 1.368 . S
C1114 C1113 1.523 . S
C1115 C1099 1.429 . S
C1115 C1111 1.429 . S
C1115 C1116 1.523 . S
C1116 C1100 1.368 . S
C1116 C1112 1.368 . S
C1116 C1115 1.523 . S
H1117 C1092 0.950 . S
H1118 C1094 0.950 . S
H1119 C1095 0.949 . S
H1120 C1097 0.950 . S
H1121 C1099 0.950 . S
C1122 C1123 1.349 . S
C1122 C1124 1.327 . S
C1122 H1147 0.950 . S
C1123 C1122 1.349 . S
C1123 C1139 1.349 1_556 S
C1124 C1122 1.327 . S
C1124 C1143 1.429 . S
C1124 H1148 0.950 . S
C1125 C1142 1.574 . S
C1125 C1144 1.368 . S
C1125 H1149 0.949 1_556 S
H1126 C1130 0.949 . S
C1127 C1128 1.349 . S
C1127 C1129 1.327 . S
C1127 H1150 0.950 . S
C1128 C1127 1.349 . S
C1128 C1140 1.349 . S
C1129 C1127 1.327 . S
C1129 C1145 1.429 . S
C1129 H1151 0.950 . S
C1130 H1126 0.949 . S
C1130 C1138 1.574 . S
C1130 C1146 1.368 . S
H1131 C1139 0.950 . S
H1132 C1137 0.950 . S
H1133 C1138 0.949 . S
H1134 C1140 0.950 . S
H1135 C1141 0.950 . S
H1136 C1142 0.949 . S
C1137 H1132 0.950 . S
C1137 C1139 1.327 . S
C1137 C1143 1.429 1_554 S
C1138 C1130 1.574 . S
C1138 H1133 0.949 . S
C1138 C1144 1.368 . S
C1139 C1123 1.349 1_554 S
C1139 H1131 0.950 . S
C1139 C1137 1.327 . S
C1140 C1128 1.349 . S
C1140 H1134 0.950 . S
C1140 C1141 1.327 . S
C1141 H1135 0.950 . S
C1141 C1140 1.327 . S
C1141 C1145 1.429 . S
C1142 C1125 1.574 . S
C1142 H1136 0.949 . S
C1142 C1146 1.368 . S
C1143 C1124 1.429 . S
C1143 C1137 1.429 1_556 S
C1143 C1144 1.523 . S
C1144 C1125 1.368 . S
C1144 C1138 1.368 . S
C1144 C1143 1.523 . S
C1145 C1129 1.429 . S
C1145 C1141 1.429 . S
C1145 C1146 1.523 . S
C1146 C1130 1.368 . S
C1146 C1142 1.368 . S
C1146 C1145 1.523 . S
H1147 C1122 0.950 . S
H1148 C1124 0.950 . S
H1149 C1125 0.949 1_554 S
H1150 C1127 0.950 . S
H1151 C1129 0.950 . S
C1152 C1153 1.349 . S
C1152 C1154 1.327 . S
C1152 H1177 0.950 . S
C1153 C1152 1.349 . S
C1153 C1169 1.349 . S
C1154 C1152 1.327 . S
C1154 C1173 1.429 . S
C1154 H1178 0.950 . S
C1155 C1172 1.574 . S
C1155 C1174 1.368 . S
C1155 H1179 0.949 . S
H1156 C1160 0.949 . S
C1157 C1158 1.349 . S
C1157 C1159 1.327 . S
C1157 H1180 0.950 . S
C1158 C1157 1.349 . S
C1158 C1170 1.349 . S
C1159 C1157 1.327 . S
C1159 C1175 1.429 . S
C1159 H1181 0.950 . S
C1160 H1156 0.949 . S
C1160 C1168 1.574 . S
C1160 C1176 1.368 . S
H1161 C1169 0.950 . S
H1162 C1167 0.950 . S
H1163 C1168 0.949 . S
H1164 C1170 0.950 . S
H1165 C1171 0.950 . S
H1166 C1172 0.949 . S
C1167 H1162 0.950 . S
C1167 C1169 1.327 . S
C1167 C1173 1.429 . S
C1168 C1160 1.574 . S
C1168 H1163 0.949 . S
C1168 C1174 1.368 . S
C1169 C1153 1.349 . S
C1169 H1161 0.950 . S
C1169 C1167 1.327 . S
C1170 C1158 1.349 . S
C1170 H1164 0.950 . S
C1170 C1171 1.327 . S
C1171 H1165 0.950 . S
C1171 C1170 1.327 . S
C1171 C1175 1.429 . S
C1172 C1155 1.574 . S
C1172 H1166 0.949 . S
C1172 C1176 1.368 . S
C1173 C1154 1.429 . S
C1173 C1167 1.429 . S
C1173 C1174 1.523 . S
C1174 C1155 1.368 . S
C1174 C1168 1.368 . S
C1174 C1173 1.523 . S
C1175 C1159 1.429 . S
C1175 C1171 1.429 . S
C1175 C1176 1.523 . S
C1176 C1160 1.368 . S
C1176 C1172 1.368 . S
C1176 C1175 1.523 . S
H1177 C1152 0.950 . S
H1178 C1154 0.950 . S
H1179 C1155 0.949 . S
H1180 C1157 0.950 . S
H1181 C1159 0.950 . S
C1182 C1183 1.338 1_655 S
C1182 C1184 1.327 . S
C1182 H1207 0.950 . S
C1183 C1182 1.338 1_455 S
C1183 C1199 1.368 . S
C1184 C1182 1.327 . S
C1184 C1203 1.429 1_655 S
C1184 H1208 0.950 . S
C1185 C1202 1.574 . S
C1185 C1204 1.368 . S
C1185 H1209 0.949 . S
H1186 C1190 0.949 1_655 S
C1187 C1188 1.349 1_554 S
C1187 C1189 1.327 . S
C1187 H1210 0.950 . S
C1188 C1187 1.349 1_556 S
C1188 C1200 1.349 1_556 S
C1189 C1187 1.327 . S
C1189 C1205 1.429 . S
C1189 H1211 0.950 . S
C1190 H1186 0.949 1_455 S
C1190 C1198 1.588 . S
C1190 C1206 1.368 . S
H1191 C1199 0.950 . S
H1192 C1197 0.950 . S
H1193 C1198 0.919 1_655 S
H1194 C1200 0.950 1_556 S
H1195 C1201 0.950 . S
H1196 C1202 0.949 . S
C1197 H1192 0.950 . S
C1197 C1199 1.327 . S
C1197 C1203 1.429 . S
C1198 C1190 1.588 . S
C1198 H1193 0.919 1_455 S
C1198 C1204 1.390 . S
C1199 C1183 1.368 . S
C1199 H1191 0.950 . S
C1199 C1197 1.327 . S
C1200 C1188 1.349 1_554 S
C1200 H1194 0.950 1_554 S
C1200 C1201 1.327 . S
C1201 H1195 0.950 . S
C1201 C1200 1.327 . S
C1201 C1205 1.429 . S
C1202 C1185 1.574 . S
C1202 H1196 0.949 . S
C1202 C1206 1.368 . S
C1203 C1184 1.429 1_455 S
C1203 C1197 1.429 . S
C1203 C1204 1.523 . S
C1204 C1185 1.368 . S
C1204 C1198 1.390 . S
C1204 C1203 1.523 . S
C1205 C1189 1.429 . S
C1205 C1201 1.429 . S
C1205 C1206 1.523 . S
C1206 C1190 1.368 . S
C1206 C1202 1.368 . S
C1206 C1205 1.523 . S
H1207 C1182 0.950 . S
H1208 C1184 0.950 . S
H1209 C1185 0.949 . S
H1210 C1187 0.950 . S
H1211 C1189 0.950 . S
C1212 C1213 1.349 . S
C1212 C1214 1.327 . S
C1212 H1237 0.950 . S
C1213 C1212 1.349 . S
C1213 C1229 1.349 . S
C1214 C1212 1.327 . S
C1214 C1233 1.429 . S
C1214 H1238 0.950 . S
C1215 C1232 1.574 . S
C1215 C1234 1.368 . S
C1215 H1239 0.949 . S
H1216 C1220 0.949 . S
C1217 C1218 1.349 . S
C1217 C1219 1.327 . S
C1217 H1240 0.950 . S
C1218 C1217 1.349 . S
C1218 C1230 1.349 . S
C1219 C1217 1.327 . S
C1219 C1235 1.429 . S
C1219 H1241 0.950 . S
C1220 H1216 0.949 . S
C1220 C1228 1.574 . S
C1220 C1236 1.368 . S
H1221 C1229 0.950 . S
H1222 C1227 0.950 . S
H1223 C1228 0.949 . S
H1224 C1230 0.950 . S
H1225 C1231 0.950 . S
H1226 C1232 0.949 . S
C1227 H1222 0.950 . S
C1227 C1229 1.327 . S
C1227 C1233 1.429 . S
C1228 C1220 1.574 . S
C1228 H1223 0.949 . S
C1228 C1234 1.368 . S
C1229 C1213 1.349 . S
C1229 H1221 0.950 . S
C1229 C1227 1.327 . S
C1230 C1218 1.349 . S
C1230 H1224 0.950 . S
C1230 C1231 1.327 . S
C1231 H1225 0.950 . S
C1231 C1230 1.327 . S
C1231 C1235 1.429 . S
C1232 C1215 1.574 . S
C1232 H1226 0.949 . S
C1232 C1236 1.368 . S
C1233 C1214 1.429 . S
C1233 C1227 1.429 . S
C1233 C1234 1.523 . S
C1234 C1215 1.368 . S
C1234 C1228 1.368 . S
C1234 C1233 1.523 . S
C1235 C1219 1.429 . S
C1235 C1231 1.429 . S
C1235 C1236 1.523 . S
C1236 C1220 1.368 . S
C1236 C1232 1.368 . S
C1236 C1235 1.523 . S
H1237 C1212 0.950 . S
H1238 C1214 0.950 . S
H1239 C1215 0.949 . S
H1240 C1217 0.950 . S
H1241 C1219 0.950 . S
C1242 C1243 1.349 1_455 S
C1242 C1244 1.327 1_455 S
C1242 H1267 0.950 . S
C1243 C1242 1.349 1_655 S
C1243 C1259 1.349 . S
C1244 C1242 1.327 1_655 S
C1244 C1263 1.429 . S
C1244 H1268 0.950 1_655 S
C1245 C1262 1.574 . S
C1245 C1264 1.368 . S
C1245 H1269 0.949 . S
H1246 C1250 0.949 . S
C1247 C1248 1.349 . S
C1247 C1249 1.327 . S
C1247 H1270 0.950 . S
C1248 C1247 1.349 . S
C1248 C1260 1.349 . S
C1249 C1247 1.327 . S
C1249 C1265 1.429 . S
C1249 H1271 0.950 . S
C1250 H1246 0.949 . S
C1250 C1258 1.574 . S
C1250 C1266 1.368 . S
H1251 C1259 0.950 . S
H1252 C1257 0.950 . S
H1253 C1258 0.949 . S
H1254 C1260 0.950 . S
H1255 C1261 0.950 . S
H1256 C1262 0.949 . S
C1257 H1252 0.950 . S
C1257 C1259 1.327 . S
C1257 C1263 1.429 . S
C1258 C1250 1.574 . S
C1258 H1253 0.949 . S
C1258 C1264 1.368 . S
C1259 C1243 1.349 . S
C1259 H1251 0.950 . S
C1259 C1257 1.327 . S
C1260 C1248 1.349 . S
C1260 H1254 0.950 . S
C1260 C1261 1.327 . S
C1261 H1255 0.950 . S
C1261 C1260 1.327 . S
C1261 C1265 1.429 . S
C1262 C1245 1.574 . S
C1262 H1256 0.949 . S
C1262 C1266 1.368 . S
C1263 C1244 1.429 . S
C1263 C1257 1.429 . S
C1263 C1264 1.523 . S
C1264 C1245 1.368 . S
C1264 C1258 1.368 . S
C1264 C1263 1.523 . S
C1265 C1249 1.429 . S
C1265 C1261 1.429 . S
C1265 C1266 1.523 . S
C1266 C1250 1.368 . S
C1266 C1262 1.368 . S
C1266 C1265 1.523 . S
H1267 C1242 0.950 . S
H1268 C1244 0.950 1_455 S
H1269 C1245 0.949 . S
H1270 C1247 0.950 . S
H1271 C1249 0.950 . S
C1272 C1273 1.349 . S
C1272 C1274 1.327 . S
C1272 H1297 0.950 . S
C1273 C1272 1.349 . S
C1273 C1289 1.349 . S
C1274 C1272 1.327 . S
C1274 C1293 1.429 . S
C1274 H1298 0.950 . S
C1275 C1292 1.574 . S
C1275 C1294 1.368 . S
C1275 H1299 0.949 . S
H1276 C1280 0.949 . S
C1277 C1278 1.349 . S
C1277 C1279 1.327 . S
C1277 H1300 0.950 . S
C1278 C1277 1.349 . S
C1278 C1290 1.349 . S
C1279 C1277 1.327 . S
C1279 C1295 1.429 . S
C1279 H1301 0.950 . S
C1280 H1276 0.949 . S
C1280 C1288 1.574 . S
C1280 C1296 1.368 . S
H1281 C1289 0.950 . S
H1282 C1287 0.950 . S
H1283 C1288 0.949 . S
H1284 C1290 0.950 . S
H1285 C1291 0.950 . S
H1286 C1292 0.949 . S
C1287 H1282 0.950 . S
C1287 C1289 1.327 . S
C1287 C1293 1.429 . S
C1288 C1280 1.574 . S
C1288 H1283 0.949 . S
C1288 C1294 1.368 . S
C1289 C1273 1.349 . S
C1289 H1281 0.950 . S
C1289 C1287 1.327 . S
C1290 C1278 1.349 . S
C1290 H1284 0.950 . S
C1290 C1291 1.327 . S
C1291 H1285 0.950 . S
C1291 C1290 1.327 . S
C1291 C1295 1.429 . S
C1292 C1275 1.574 . S
C1292 H1286 0.949 . S
C1292 C1296 1.368 . S
C1293 C1274 1.429 . S
C1293 C1287 1.429 . S
C1293 C1294 1.523 . S
C1294 C1275 1.368 . S
C1294 C1288 1.368 . S
C1294 C1293 1.523 . S
C1295 C1279 1.429 . S
C1295 C1291 1.429 . S
C1295 C1296 1.523 . S
C1296 C1280 1.368 . S
C1296 C1292 1.368 . S
C1296 C1295 1.523 . S
H1297 C1272 0.950 . S
H1298 C1274 0.950 . S
H1299 C1275 0.949 . S
H1300 C1277 0.950 . S
H1301 C1279 0.950 . S
C1302 C1303 1.349 . S
C1302 C1304 1.327 . S
C1302 H1327 0.950 . S
C1303 C1302 1.349 . S
C1303 C1319 1.349 . S
C1304 C1302 1.327 . S
C1304 C1323 1.429 . S
C1304 H1328 0.950 . S
C1305 C1322 1.574 . S
C1305 C1324 1.368 . S
C1305 H1329 0.949 . S
H1306 C1310 0.949 . S
C1307 C1308 1.349 . S
C1307 C1309 1.327 . S
C1307 H1330 0.950 . S
C1308 C1307 1.349 . S
C1308 C1320 1.349 . S
C1309 C1307 1.327 . S
C1309 C1325 1.429 . S
C1309 H1331 0.950 . S
C1310 H1306 0.949 . S
C1310 C1318 1.574 . S
C1310 C1326 1.368 . S
H1311 C1319 0.950 . S
H1312 C1317 0.950 . S
H1313 C1318 0.949 . S
H1314 C1320 0.950 . S
H1315 C1321 0.950 . S
H1316 C1322 0.949 . S
C1317 H1312 0.950 . S
C1317 C1319 1.327 . S
C1317 C1323 1.429 . S
C1318 C1310 1.574 . S
C1318 H1313 0.949 . S
C1318 C1324 1.368 . S
C1319 C1303 1.349 . S
C1319 H1311 0.950 . S
C1319 C1317 1.327 . S
C1320 C1308 1.349 . S
C1320 H1314 0.950 . S
C1320 C1321 1.327 . S
C1321 H1315 0.950 . S
C1321 C1320 1.327 . S
C1321 C1325 1.429 . S
C1322 C1305 1.574 . S
C1322 H1316 0.949 . S
C1322 C1326 1.368 . S
C1323 C1304 1.429 . S
C1323 C1317 1.429 . S
C1323 C1324 1.523 . S
C1324 C1305 1.368 . S
C1324 C1318 1.368 . S
C1324 C1323 1.523 . S
C1325 C1309 1.429 . S
C1325 C1321 1.429 . S
C1325 C1326 1.523 . S
C1326 C1310 1.368 . S
C1326 C1322 1.368 . S
C1326 C1325 1.523 . S
H1327 C1302 0.950 . S
H1328 C1304 0.950 . S
H1329 C1305 0.949 . S
H1330 C1307 0.950 . S
H1331 C1309 0.950 . S
C1332 C1333 1.349 . S
C1332 C1334 1.327 . S
C1332 H1357 0.950 . S
C1333 C1332 1.349 . S
C1333 C1349 1.349 1_565 S
C1334 C1332 1.327 . S
C1334 C1353 1.429 . S
C1334 H1358 0.950 . S
C1335 C1352 1.574 . S
C1335 C1354 1.368 1_545 S
C1335 H1359 0.949 . S
H1336 C1340 0.949 . S
C1337 C1338 1.354 . S
C1337 C1339 1.327 . S
C1337 H1360 0.950 . S
C1338 C1337 1.354 . S
C1338 C1350 1.343 1_545 S
C1339 C1337 1.327 . S
C1339 C1355 1.429 1_545 S
C1339 H1361 0.950 . S
C1340 H1336 0.949 . S
C1340 C1348 1.574 . S
C1340 C1356 1.368 . S
H1341 C1349 0.950 . S
H1342 C1347 0.950 . S
H1343 C1348 0.949 . S
H1344 C1350 0.950 . S
H1345 C1351 0.950 . S
H1346 C1352 0.949 . S
C1347 H1342 0.950 . S
C1347 C1349 1.327 . S
C1347 C1353 1.429 1_545 S
C1348 C1340 1.574 . S
C1348 H1343 0.949 . S
C1348 C1354 1.368 . S
C1349 C1333 1.349 1_545 S
C1349 H1341 0.950 . S
C1349 C1347 1.327 . S
C1350 C1338 1.343 1_565 S
C1350 H1344 0.950 . S
C1350 C1351 1.327 . S
C1351 H1345 0.950 . S
C1351 C1350 1.327 . S
C1351 C1355 1.429 . S
C1352 C1335 1.574 . S
C1352 H1346 0.949 . S
C1352 C1356 1.368 1_545 S
C1353 C1334 1.429 . S
C1353 C1347 1.429 1_565 S
C1353 C1354 1.523 . S
C1354 C1335 1.368 1_565 S
C1354 C1348 1.368 . S
C1354 C1353 1.523 . S
C1355 C1339 1.429 1_565 S
C1355 C1351 1.429 . S
C1355 C1356 1.523 . S
C1356 C1340 1.368 . S
C1356 C1352 1.368 1_565 S
C1356 C1355 1.523 . S
H1357 C1332 0.950 . S
H1358 C1334 0.950 . S
H1359 C1335 0.949 . S
H1360 C1337 0.950 . S
H1361 C1339 0.950 . S
C1362 C1363 1.349 1_545 S
C1362 C1364 1.327 . S
C1362 H1387 0.950 . S
C1363 C1362 1.349 1_565 S
C1363 C1379 1.349 . S
C1364 C1362 1.327 . S
C1364 C1383 1.429 1_545 S
C1364 H1388 0.950 . S
C1365 C1382 1.574 . S
C1365 C1384 1.368 . S
C1365 H1389 0.949 . S
H1366 C1370 0.949 . S
C1367 C1368 1.349 . S
C1367 C1369 1.327 . S
C1367 H1390 0.950 . S
C1368 C1367 1.349 . S
C1368 C1380 1.349 . S
C1369 C1367 1.327 . S
C1369 C1385 1.429 . S
C1369 H1391 0.950 . S
C1370 H1366 0.949 . S
C1370 C1378 1.574 . S
C1370 C1386 1.368 . S
H1371 C1379 0.950 . S
H1372 C1377 0.950 . S
H1373 C1378 0.949 1_545 S
H1374 C1380 0.950 . S
H1375 C1381 0.950 . S
H1376 C1382 0.949 . S
C1377 H1372 0.950 . S
C1377 C1379 1.327 . S
C1377 C1383 1.429 . S
C1378 C1370 1.574 . S
C1378 H1373 0.949 1_565 S
C1378 C1384 1.368 . S
C1379 C1363 1.349 . S
C1379 H1371 0.950 . S
C1379 C1377 1.327 . S
C1380 C1368 1.349 . S
C1380 H1374 0.950 . S
C1380 C1381 1.327 . S
C1381 H1375 0.950 . S
C1381 C1380 1.327 . S
C1381 C1385 1.429 . S
C1382 C1365 1.574 . S
C1382 H1376 0.949 . S
C1382 C1386 1.368 . S
C1383 C1364 1.429 1_565 S
C1383 C1377 1.429 . S
C1383 C1384 1.523 . S
C1384 C1365 1.368 . S
C1384 C1378 1.368 . S
C1384 C1383 1.523 . S
C1385 C1369 1.429 . S
C1385 C1381 1.429 . S
C1385 C1386 1.523 . S
C1386 C1370 1.368 . S
C1386 C1382 1.368 . S
C1386 C1385 1.523 . S
H1387 C1362 0.950 . S
H1388 C1364 0.950 . S
H1389 C1365 0.949 . S
H1390 C1367 0.950 . S
H1391 C1369 0.950 . S
C1392 C1393 1.349 . S
C1392 C1394 1.327 . S
C1392 H1417 0.950 . S
C1393 C1392 1.349 . S
C1393 C1409 1.349 . S
C1394 C1392 1.327 . S
C1394 C1413 1.429 . S
C1394 H1418 0.950 . S
C1395 C1412 1.574 . S
C1395 C1414 1.368 . S
C1395 H1419 0.949 . S
H1396 C1400 0.949 . S
C1397 C1398 1.349 . S
C1397 C1399 1.327 . S
C1397 H1420 0.950 . S
C1398 C1397 1.349 . S
C1398 C1410 1.349 . S
C1399 C1397 1.327 . S
C1399 C1415 1.429 . S
C1399 H1421 0.950 . S
C1400 H1396 0.949 . S
C1400 C1408 1.574 . S
C1400 C1416 1.368 . S
H1401 C1409 0.950 . S
H1402 C1407 0.950 . S
H1403 C1408 0.949 . S
H1404 C1410 0.950 . S
H1405 C1411 0.950 . S
H1406 C1412 0.949 . S
C1407 H1402 0.950 . S
C1407 C1409 1.327 . S
C1407 C1413 1.429 . S
C1408 C1400 1.574 . S
C1408 H1403 0.949 . S
C1408 C1414 1.368 . S
C1409 C1393 1.349 . S
C1409 H1401 0.950 . S
C1409 C1407 1.327 . S
C1410 C1398 1.349 . S
C1410 H1404 0.950 . S
C1410 C1411 1.327 . S
C1411 H1405 0.950 . S
C1411 C1410 1.327 . S
C1411 C1415 1.429 . S
C1412 C1395 1.574 . S
C1412 H1406 0.949 . S
C1412 C1416 1.368 . S
C1413 C1394 1.429 . S
C1413 C1407 1.429 . S
C1413 C1414 1.523 . S
C1414 C1395 1.368 . S
C1414 C1408 1.368 . S
C1414 C1413 1.523 . S
C1415 C1399 1.429 . S
C1415 C1411 1.429 . S
C1415 C1416 1.523 . S
C1416 C1400 1.368 . S
C1416 C1412 1.368 . S
C1416 C1415 1.523 . S
H1417 C1392 0.950 . S
H1418 C1394 0.950 . S
H1419 C1395 0.949 . S
H1420 C1397 0.950 . S
H1421 C1399 0.950 . S
C1422 C1423 1.349 . S
C1422 C1424 1.327 . S
C1422 H1447 0.950 . S
C1423 C1422 1.349 . S
C1423 C1439 1.349 1_556 S
C1424 C1422 1.327 . S
C1424 C1443 1.429 . S
C1424 H1448 0.950 . S
C1425 C1442 1.574 . S
C1425 C1444 1.368 . S
C1425 H1449 0.949 1_556 S
H1426 C1430 0.949 . S
C1427 C1428 1.349 . S
C1427 C1429 1.327 . S
C1427 H1450 0.950 . S
C1428 C1427 1.349 . S
C1428 C1440 1.349 . S
C1429 C1427 1.327 . S
C1429 C1445 1.429 . S
C1429 H1451 0.950 . S
C1430 H1426 0.949 . S
C1430 C1438 1.574 . S
C1430 C1446 1.368 . S
H1431 C1439 0.950 . S
H1432 C1437 0.950 . S
H1433 C1438 0.949 . S
H1434 C1440 0.950 . S
H1435 C1441 0.950 . S
H1436 C1442 0.949 . S
C1437 H1432 0.950 . S
C1437 C1439 1.327 . S
C1437 C1443 1.429 1_554 S
C1438 C1430 1.574 . S
C1438 H1433 0.949 . S
C1438 C1444 1.368 . S
C1439 C1423 1.349 1_554 S
C1439 H1431 0.950 . S
C1439 C1437 1.327 . S
C1440 C1428 1.349 . S
C1440 H1434 0.950 . S
C1440 C1441 1.327 . S
C1441 H1435 0.950 . S
C1441 C1440 1.327 . S
C1441 C1445 1.429 . S
C1442 C1425 1.574 . S
C1442 H1436 0.949 . S
C1442 C1446 1.368 . S
C1443 C1424 1.429 . S
C1443 C1437 1.429 1_556 S
C1443 C1444 1.523 . S
C1444 C1425 1.368 . S
C1444 C1438 1.368 . S
C1444 C1443 1.523 . S
C1445 C1429 1.429 . S
C1445 C1441 1.429 . S
C1445 C1446 1.523 . S
C1446 C1430 1.368 . S
C1446 C1442 1.368 . S
C1446 C1445 1.523 . S
H1447 C1422 0.950 . S
H1448 C1424 0.950 . S
H1449 C1425 0.949 1_554 S
H1450 C1427 0.950 . S
H1451 C1429 0.950 . S
C1452 C1453 1.349 . S
C1452 C1454 1.327 . S
C1452 H1477 0.950 . S
C1453 C1452 1.349 . S
C1453 C1469 1.349 . S
C1454 C1452 1.327 . S
C1454 C1473 1.429 . S
C1454 H1478 0.950 . S
C1455 C1472 1.574 . S
C1455 C1474 1.368 . S
C1455 H1479 0.949 . S
H1456 C1460 0.949 . S
C1457 C1458 1.349 . S
C1457 C1459 1.327 . S
C1457 H1480 0.950 . S
C1458 C1457 1.349 . S
C1458 C1470 1.349 . S
C1459 C1457 1.327 . S
C1459 C1475 1.429 . S
C1459 H1481 0.950 . S
C1460 H1456 0.949 . S
C1460 C1468 1.574 . S
C1460 C1476 1.368 . S
H1461 C1469 0.950 . S
H1462 C1467 0.950 . S
H1463 C1468 0.949 . S
H1464 C1470 0.950 . S
H1465 C1471 0.950 . S
H1466 C1472 0.949 . S
C1467 H1462 0.950 . S
C1467 C1469 1.327 . S
C1467 C1473 1.429 . S
C1468 C1460 1.574 . S
C1468 H1463 0.949 . S
C1468 C1474 1.368 . S
C1469 C1453 1.349 . S
C1469 H1461 0.950 . S
C1469 C1467 1.327 . S
C1470 C1458 1.349 . S
C1470 H1464 0.950 . S
C1470 C1471 1.327 . S
C1471 H1465 0.950 . S
C1471 C1470 1.327 . S
C1471 C1475 1.429 . S
C1472 C1455 1.574 . S
C1472 H1466 0.949 . S
C1472 C1476 1.368 . S
C1473 C1454 1.429 . S
C1473 C1467 1.429 . S
C1473 C1474 1.523 . S
C1474 C1455 1.368 . S
C1474 C1468 1.368 . S
C1474 C1473 1.523 . S
C1475 C1459 1.429 . S
C1475 C1471 1.429 . S
C1475 C1476 1.523 . S
C1476 C1460 1.368 . S
C1476 C1472 1.368 . S
C1476 C1475 1.523 . S
H1477 C1452 0.950 . S
H1478 C1454 0.950 . S
H1479 C1455 0.949 . S
H1480 C1457 0.950 . S
H1481 C1459 0.950 . S
C1482 C1483 1.349 1_554 S
C1482 C1484 1.327 . S
C1482 H1507 0.950 . S
C1483 C1482 1.349 1_556 S
C1483 C1499 1.349 . S
C1484 C1482 1.327 . S
C1484 C1503 1.429 1_554 S
C1484 H1508 0.950 . S
C1485 C1502 1.574 . S
C1485 C1504 1.368 . S
C1485 H1509 0.949 . S
H1486 C1490 0.949 . S
C1487 C1488 1.350 1_556 S
C1487 C1489 1.327 . S
C1487 H1510 0.950 . S
C1488 C1487 1.350 1_554 S
C1488 C1500 1.348 . S
C1489 C1487 1.327 . S
C1489 C1505 1.429 . S
C1489 H1511 0.950 . S
C1490 H1486 0.949 . S
C1490 C1498 1.574 . S
C1490 C1506 1.368 1_554 S
H1491 C1499 0.950 . S
H1492 C1497 0.950 . S
H1493 C1498 0.949 . S
H1494 C1500 0.950 . S
H1495 C1501 0.950 . S
H1496 C1502 0.949 . S
C1497 H1492 0.950 . S
C1497 C1499 1.327 . S
C1497 C1503 1.429 . S
C1498 C1490 1.574 . S
C1498 H1493 0.949 . S
C1498 C1504 1.368 1_554 S
C1499 C1483 1.349 . S
C1499 H1491 0.950 . S
C1499 C1497 1.327 . S
C1500 C1488 1.348 . S
C1500 H1494 0.950 . S
C1500 C1501 1.327 . S
C1501 H1495 0.950 . S
C1501 C1500 1.327 . S
C1501 C1505 1.429 1_554 S
C1502 C1485 1.574 . S
C1502 H1496 0.949 . S
C1502 C1506 1.368 . S
C1503 C1484 1.429 1_556 S
C1503 C1497 1.429 . S
C1503 C1504 1.523 . S
C1504 C1485 1.368 . S
C1504 C1498 1.368 1_556 S
C1504 C1503 1.523 . S
C1505 C1489 1.429 . S
C1505 C1501 1.429 1_556 S
C1505 C1506 1.523 . S
C1506 C1490 1.368 1_556 S
C1506 C1502 1.368 . S
C1506 C1505 1.523 . S
H1507 C1482 0.950 . S
H1508 C1484 0.950 . S
H1509 C1485 0.949 . S
H1510 C1487 0.950 . S
H1511 C1489 0.950 . S
C1512 C1513 1.349 . S
C1512 C1514 1.327 . S
C1512 H1537 0.950 . S
C1513 C1512 1.349 . S
C1513 C1529 1.349 . S
C1514 C1512 1.327 . S
C1514 C1533 1.429 . S
C1514 H1538 0.950 . S
C1515 C1532 1.574 . S
C1515 C1534 1.368 . S
C1515 H1539 0.949 . S
H1516 C1520 0.949 . S
C1517 C1518 1.349 . S
C1517 C1519 1.327 . S
C1517 H1540 0.950 . S
C1518 C1517 1.349 . S
C1518 C1530 1.349 . S
C1519 C1517 1.327 . S
C1519 C1535 1.429 . S
C1519 H1541 0.950 . S
C1520 H1516 0.949 . S
C1520 C1528 1.574 . S
C1520 C1536 1.368 . S
H1521 C1529 0.950 . S
H1522 C1527 0.950 . S
H1523 C1528 0.949 . S
H1524 C1530 0.950 . S
H1525 C1531 0.950 . S
H1526 C1532 0.949 . S
C1527 H1522 0.950 . S
C1527 C1529 1.327 . S
C1527 C1533 1.429 . S
C1528 C1520 1.574 . S
C1528 H1523 0.949 . S
C1528 C1534 1.368 . S
C1529 C1513 1.349 . S
C1529 H1521 0.950 . S
C1529 C1527 1.327 . S
C1530 C1518 1.349 . S
C1530 H1524 0.950 . S
C1530 C1531 1.327 . S
C1531 H1525 0.950 . S
C1531 C1530 1.327 . S
C1531 C1535 1.429 . S
C1532 C1515 1.574 . S
C1532 H1526 0.949 . S
C1532 C1536 1.368 . S
C1533 C1514 1.429 . S
C1533 C1527 1.429 . S
C1533 C1534 1.523 . S
C1534 C1515 1.368 . S
C1534 C1528 1.368 . S
C1534 C1533 1.523 . S
C1535 C1519 1.429 . S
C1535 C1531 1.429 . S
C1535 C1536 1.523 . S
C1536 C1520 1.368 . S
C1536 C1532 1.368 . S
C1536 C1535 1.523 . S
H1537 C1512 0.950 . S
H1538 C1514 0.950 . S
H1539 C1515 0.949 . S
H1540 C1517 0.950 . S
H1541 C1519 0.950 . S
C1542 C1543 1.349 1_455 S
C1542 C1544 1.327 . S
C1542 H1567 0.950 . S
C1543 C1542 1.349 1_655 S
C1543 C1559 1.349 . S
C1544 C1542 1.327 . S
C1544 C1563 1.429 1_455 S
C1544 H1568 0.950 . S
C1545 C1562 1.574 . S
C1545 C1564 1.368 . S
C1545 H1569 0.949 . S
H1546 C1550 0.949 1_455 S
C1547 C1548 1.349 . S
C1547 C1549 1.327 . S
C1547 H1570 0.950 . S
C1548 C1547 1.349 . S
C1548 C1560 1.349 . S
C1549 C1547 1.327 . S
C1549 C1565 1.429 . S
C1549 H1571 0.950 . S
C1550 H1546 0.949 1_655 S
C1550 C1558 1.581 . S
C1550 C1566 1.368 . S
H1551 C1559 0.950 . S
H1552 C1557 0.950 . S
H1553 C1558 0.904 1_455 S
H1554 C1560 0.950 . S
H1555 C1561 0.950 . S
H1556 C1562 0.949 . S
C1557 H1552 0.950 . S
C1557 C1559 1.327 . S
C1557 C1563 1.429 . S
C1558 C1550 1.581 . S
C1558 H1553 0.904 1_655 S
C1558 C1564 1.413 . S
C1559 C1543 1.349 . S
C1559 H1551 0.950 . S
C1559 C1557 1.327 . S
C1560 C1548 1.349 . S
C1560 H1554 0.950 . S
C1560 C1561 1.327 . S
C1561 H1555 0.950 . S
C1561 C1560 1.327 . S
C1561 C1565 1.429 . S
C1562 C1545 1.574 . S
C1562 H1556 0.949 . S
C1562 C1566 1.368 . S
C1563 C1544 1.429 1_655 S
C1563 C1557 1.429 . S
C1563 C1564 1.523 . S
C1564 C1545 1.368 . S
C1564 C1558 1.413 . S
C1564 C1563 1.523 . S
C1565 C1549 1.429 . S
C1565 C1561 1.429 . S
C1565 C1566 1.523 . S
C1566 C1550 1.368 . S
C1566 C1562 1.368 . S
C1566 C1565 1.523 . S
H1567 C1542 0.950 . S
H1568 C1544 0.950 . S
H1569 C1545 0.949 . S
H1570 C1547 0.950 . S
H1571 C1549 0.950 . S
C1572 C1573 1.349 . S
C1572 C1574 1.327 . S
C1572 H1597 0.950 . S
C1573 C1572 1.349 . S
C1573 C1589 1.349 . S
C1574 C1572 1.327 . S
C1574 C1593 1.429 . S
C1574 H1598 0.950 . S
C1575 C1592 1.574 . S
C1575 C1594 1.368 . S
C1575 H1599 0.949 . S
H1576 C1580 0.949 . S
C1577 C1578 1.349 . S
C1577 C1579 1.327 . S
C1577 H1600 0.950 . S
C1578 C1577 1.349 . S
C1578 C1590 1.349 . S
C1579 C1577 1.327 . S
C1579 C1595 1.429 . S
C1579 H1601 0.950 . S
C1580 H1576 0.949 . S
C1580 C1588 1.574 . S
C1580 C1596 1.368 . S
H1581 C1589 0.950 . S
H1582 C1587 0.950 . S
H1583 C1588 0.949 . S
H1584 C1590 0.950 . S
H1585 C1591 0.950 . S
H1586 C1592 0.949 . S
C1587 H1582 0.950 . S
C1587 C1589 1.327 . S
C1587 C1593 1.429 . S
C1588 C1580 1.574 . S
C1588 H1583 0.949 . S
C1588 C1594 1.368 . S
C1589 C1573 1.349 . S
C1589 H1581 0.950 . S
C1589 C1587 1.327 . S
C1590 C1578 1.349 . S
C1590 H1584 0.950 . S
C1590 C1591 1.327 . S
C1591 H1585 0.950 . S
C1591 C1590 1.327 . S
C1591 C1595 1.429 . S
C1592 C1575 1.574 . S
C1592 H1586 0.949 . S
C1592 C1596 1.368 . S
C1593 C1574 1.429 . S
C1593 C1587 1.429 . S
C1593 C1594 1.523 . S
C1594 C1575 1.368 . S
C1594 C1588 1.368 . S
C1594 C1593 1.523 . S
C1595 C1579 1.429 . S
C1595 C1591 1.429 . S
C1595 C1596 1.523 . S
C1596 C1580 1.368 . S
C1596 C1592 1.368 . S
C1596 C1595 1.523 . S
H1597 C1572 0.950 . S
H1598 C1574 0.950 . S
H1599 C1575 0.949 . S
H1600 C1577 0.950 . S
H1601 C1579 0.950 . S
C1602 C1603 1.349 1_455 S
C1602 C1604 1.327 . S
C1602 H1627 0.950 . S
C1603 C1602 1.349 1_655 S
C1603 C1619 1.349 . S
C1604 C1602 1.327 . S
C1604 C1623 1.429 1_455 S
C1604 H1628 0.950 . S
C1605 C1622 1.574 . S
C1605 C1624 1.368 . S
C1605 H1629 0.949 . S
H1606 C1610 0.949 . S
C1607 C1608 1.344 1_655 S
C1607 C1609 1.327 . S
C1607 H1630 0.950 . S
C1608 C1607 1.344 1_455 S
C1608 C1620 1.352 . S
C1609 C1607 1.327 . S
C1609 C1625 1.429 . S
C1609 H1631 0.950 . S
C1610 H1606 0.949 . S
C1610 C1618 1.574 . S
C1610 C1626 1.368 1_455 S
H1611 C1619 0.950 . S
H1612 C1617 0.950 . S
H1613 C1618 0.949 . S
H1614 C1620 0.950 . S
H1615 C1621 0.950 . S
H1616 C1622 0.949 . S
C1617 H1612 0.950 . S
C1617 C1619 1.327 . S
C1617 C1623 1.429 . S
C1618 C1610 1.574 . S
C1618 H1613 0.949 . S
C1618 C1624 1.368 1_455 S
C1619 C1603 1.349 . S
C1619 H1611 0.950 . S
C1619 C1617 1.327 . S
C1620 C1608 1.352 . S
C1620 H1614 0.950 . S
C1620 C1621 1.327 . S
C1621 H1615 0.950 . S
C1621 C1620 1.327 . S
C1621 C1625 1.429 1_455 S
C1622 C1605 1.574 . S
C1622 H1616 0.949 . S
C1622 C1626 1.368 . S
C1623 C1604 1.429 1_655 S
C1623 C1617 1.429 . S
C1623 C1624 1.523 . S
C1624 C1605 1.368 . S
C1624 C1618 1.368 1_655 S
C1624 C1623 1.523 . S
C1625 C1609 1.429 . S
C1625 C1621 1.429 1_655 S
C1625 C1626 1.523 . S
C1626 C1610 1.368 1_655 S
C1626 C1622 1.368 . S
C1626 C1625 1.523 . S
H1627 C1602 0.950 . S
H1628 C1604 0.950 . S
H1629 C1605 0.949 . S
H1630 C1607 0.950 . S
H1631 C1609 0.950 . S
C1632 C1633 1.349 . S
C1632 C1634 1.327 . S
C1632 H1657 0.950 . S
C1633 C1632 1.349 . S
C1633 C1649 1.349 . S
C1634 C1632 1.327 . S
C1634 C1653 1.429 . S
C1634 H1658 0.950 . S
C1635 C1652 1.574 . S
C1635 C1654 1.368 . S
C1635 H1659 0.949 . S
H1636 C1640 0.949 . S
C1637 C1638 1.349 . S
C1637 C1639 1.327 . S
C1637 H1660 0.950 . S
C1638 C1637 1.349 . S
C1638 C1650 1.349 . S
C1639 C1637 1.327 . S
C1639 C1655 1.429 . S
C1639 H1661 0.950 . S
C1640 H1636 0.949 . S
C1640 C1648 1.574 . S
C1640 C1656 1.368 . S
H1641 C1649 0.950 . S
H1642 C1647 0.950 . S
H1643 C1648 0.949 . S
H1644 C1650 0.950 . S
H1645 C1651 0.950 . S
H1646 C1652 0.949 . S
C1647 H1642 0.950 . S
C1647 C1649 1.327 . S
C1647 C1653 1.429 . S
C1648 C1640 1.574 . S
C1648 H1643 0.949 . S
C1648 C1654 1.368 . S
C1649 C1633 1.349 . S
C1649 H1641 0.950 . S
C1649 C1647 1.327 . S
C1650 C1638 1.349 . S
C1650 H1644 0.950 . S
C1650 C1651 1.327 . S
C1651 H1645 0.950 . S
C1651 C1650 1.327 . S
C1651 C1655 1.429 . S
C1652 C1635 1.574 . S
C1652 H1646 0.949 . S
C1652 C1656 1.368 . S
C1653 C1634 1.429 . S
C1653 C1647 1.429 . S
C1653 C1654 1.523 . S
C1654 C1635 1.368 . S
C1654 C1648 1.368 . S
C1654 C1653 1.523 . S
C1655 C1639 1.429 . S
C1655 C1651 1.429 . S
C1655 C1656 1.523 . S
C1656 C1640 1.368 . S
C1656 C1652 1.368 . S
C1656 C1655 1.523 . S
H1657 C1632 0.950 . S
H1658 C1634 0.950 . S
H1659 C1635 0.949 . S
H1660 C1637 0.950 . S
H1661 C1639 0.950 . S
C1662 C1663 1.349 . S
C1662 C1664 1.327 . S
C1662 H1687 0.950 . S
C1663 C1662 1.349 . S
C1663 C1679 1.349 . S
C1664 C1662 1.327 . S
C1664 C1683 1.429 . S
C1664 H1688 0.950 . S
C1665 C1682 1.574 . S
C1665 C1684 1.368 . S
C1665 H1689 0.949 . S
H1666 C1670 0.949 . S
C1667 C1668 1.349 . S
C1667 C1669 1.327 . S
C1667 H1690 0.950 . S
C1668 C1667 1.349 . S
C1668 C1680 1.349 . S
C1669 C1667 1.327 . S
C1669 C1685 1.429 . S
C1669 H1691 0.950 . S
C1670 H1666 0.949 . S
C1670 C1678 1.574 . S
C1670 C1686 1.368 . S
H1671 C1679 0.950 . S
H1672 C1677 0.950 . S
H1673 C1678 0.949 . S
H1674 C1680 0.950 . S
H1675 C1681 0.950 . S
H1676 C1682 0.949 . S
C1677 H1672 0.950 . S
C1677 C1679 1.327 . S
C1677 C1683 1.429 . S
C1678 C1670 1.574 . S
C1678 H1673 0.949 . S
C1678 C1684 1.368 . S
C1679 C1663 1.349 . S
C1679 H1671 0.950 . S
C1679 C1677 1.327 . S
C1680 C1668 1.349 . S
C1680 H1674 0.950 . S
C1680 C1681 1.327 . S
C1681 H1675 0.950 . S
C1681 C1680 1.327 . S
C1681 C1685 1.429 . S
C1682 C1665 1.574 . S
C1682 H1676 0.949 . S
C1682 C1686 1.368 . S
C1683 C1664 1.429 . S
C1683 C1677 1.429 . S
C1683 C1684 1.523 . S
C1684 C1665 1.368 . S
C1684 C1678 1.368 . S
C1684 C1683 1.523 . S
C1685 C1669 1.429 . S
C1685 C1681 1.429 . S
C1685 C1686 1.523 . S
C1686 C1670 1.368 . S
C1686 C1682 1.368 . S
C1686 C1685 1.523 . S
H1687 C1662 0.950 . S
H1688 C1664 0.950 . S
H1689 C1665 0.949 . S
H1690 C1667 0.950 . S
H1691 C1669 0.950 . S
C1692 C1693 1.349 . S
C1692 C1694 1.327 . S
C1692 H1717 0.950 . S
C1693 C1692 1.349 . S
C1693 C1709 1.349 1_545 S
C1694 C1692 1.327 . S
C1694 C1713 1.429 . S
C1694 H1718 0.950 . S
C1695 C1712 1.574 . S
C1695 C1714 1.368 1_565 S
C1695 H1719 0.949 . S
H1696 C1700 0.949 . S
C1697 C1698 1.355 . S
C1697 C1699 1.327 . S
C1697 H1720 0.950 . S
C1698 C1697 1.355 . S
C1698 C1710 1.342 1_565 S
C1699 C1697 1.327 . S
C1699 C1715 1.429 1_565 S
C1699 H1721 0.950 . S
C1700 H1696 0.949 . S
C1700 C1708 1.574 . S
C1700 C1716 1.368 . S
H1701 C1709 0.950 . S
H1702 C1707 0.950 . S
H1703 C1708 0.949 . S
H1704 C1710 0.950 . S
H1705 C1711 0.950 . S
H1706 C1712 0.949 . S
C1707 H1702 0.950 . S
C1707 C1709 1.327 . S
C1707 C1713 1.429 1_565 S
C1708 C1700 1.574 . S
C1708 H1703 0.949 . S
C1708 C1714 1.368 . S
C1709 C1693 1.349 1_565 S
C1709 H1701 0.950 . S
C1709 C1707 1.327 . S
C1710 C1698 1.342 1_545 S
C1710 H1704 0.950 . S
C1710 C1711 1.327 . S
C1711 H1705 0.950 . S
C1711 C1710 1.327 . S
C1711 C1715 1.429 . S
C1712 C1695 1.574 . S
C1712 H1706 0.949 . S
C1712 C1716 1.368 1_565 S
C1713 C1694 1.429 . S
C1713 C1707 1.429 1_545 S
C1713 C1714 1.523 . S
C1714 C1695 1.368 1_545 S
C1714 C1708 1.368 . S
C1714 C1713 1.523 . S
C1715 C1699 1.429 1_545 S
C1715 C1711 1.429 . S
C1715 C1716 1.523 . S
C1716 C1700 1.368 . S
C1716 C1712 1.368 1_545 S
C1716 C1715 1.523 . S
H1717 C1692 0.950 . S
H1718 C1694 0.950 . S
H1719 C1695 0.949 . S
H1720 C1697 0.950 . S
H1721 C1699 0.950 . S
C1722 C1723 1.349 1_565 S
C1722 C1724 1.327 . S
C1722 H1747 0.950 . S
C1723 C1722 1.349 1_545 S
C1723 C1739 1.349 . S
C1724 C1722 1.327 . S
C1724 C1743 1.429 1_565 S
C1724 H1748 0.950 . S
C1725 C1742 1.574 . S
C1725 C1744 1.368 . S
C1725 H1749 0.949 . S
H1726 C1730 0.923 1_565 S
C1727 C1728 1.349 . S
C1727 C1729 1.327 . S
C1727 H1750 0.950 . S
C1728 C1727 1.349 . S
C1728 C1740 1.349 . S
C1729 C1727 1.327 . S
C1729 C1745 1.429 . S
C1729 H1751 0.950 . S
C1730 H1726 0.923 1_545 S
C1730 C1738 1.574 . S
C1730 C1746 1.368 . S
H1731 C1739 0.950 . S
H1732 C1737 0.950 . S
H1733 C1738 0.949 1_565 S
H1734 C1740 0.950 . S
H1735 C1741 0.950 . S
H1736 C1742 0.949 . S
C1737 H1732 0.950 . S
C1737 C1739 1.327 . S
C1737 C1743 1.429 . S
C1738 C1730 1.574 . S
C1738 H1733 0.949 1_545 S
C1738 C1744 1.368 . S
C1739 C1723 1.349 . S
C1739 H1731 0.950 . S
C1739 C1737 1.327 . S
C1740 C1728 1.349 . S
C1740 H1734 0.950 . S
C1740 C1741 1.327 . S
C1741 H1735 0.950 . S
C1741 C1740 1.327 . S
C1741 C1745 1.429 . S
C1742 C1725 1.574 . S
C1742 H1736 0.949 . S
C1742 C1746 1.368 . S
C1743 C1724 1.429 1_545 S
C1743 C1737 1.429 . S
C1743 C1744 1.523 . S
C1744 C1725 1.368 . S
C1744 C1738 1.368 . S
C1744 C1743 1.523 . S
C1745 C1729 1.429 . S
C1745 C1741 1.429 . S
C1745 C1746 1.523 . S
C1746 C1730 1.368 . S
C1746 C1742 1.368 . S
C1746 C1745 1.523 . S
H1747 C1722 0.950 . S
H1748 C1724 0.950 . S
H1749 C1725 0.949 . S
H1750 C1727 0.950 . S
H1751 C1729 0.950 . S
C1752 C1753 1.349 . S
C1752 C1754 1.327 . S
C1752 H1777 0.950 . S
C1753 C1752 1.349 . S
C1753 C1769 1.349 . S
C1754 C1752 1.327 . S
C1754 C1773 1.429 . S
C1754 H1778 0.950 . S
C1755 C1772 1.574 . S
C1755 C1774 1.368 . S
C1755 H1779 0.949 . S
H1756 C1760 0.949 . S
C1757 C1758 1.349 . S
C1757 C1759 1.327 . S
C1757 H1780 0.950 . S
C1758 C1757 1.349 . S
C1758 C1770 1.349 . S
C1759 C1757 1.327 . S
C1759 C1775 1.429 . S
C1759 H1781 0.950 . S
C1760 H1756 0.949 . S
C1760 C1768 1.574 . S
C1760 C1776 1.368 . S
H1761 C1769 0.950 . S
H1762 C1767 0.950 . S
H1763 C1768 0.949 . S
H1764 C1770 0.950 . S
H1765 C1771 0.950 . S
H1766 C1772 0.949 . S
C1767 H1762 0.950 . S
C1767 C1769 1.327 . S
C1767 C1773 1.429 . S
C1768 C1760 1.574 . S
C1768 H1763 0.949 . S
C1768 C1774 1.368 . S
C1769 C1753 1.349 . S
C1769 H1761 0.950 . S
C1769 C1767 1.327 . S
C1770 C1758 1.349 . S
C1770 H1764 0.950 . S
C1770 C1771 1.327 . S
C1771 H1765 0.950 . S
C1771 C1770 1.327 . S
C1771 C1775 1.429 . S
C1772 C1755 1.574 . S
C1772 H1766 0.949 . S
C1772 C1776 1.368 . S
C1773 C1754 1.429 . S
C1773 C1767 1.429 . S
C1773 C1774 1.523 . S
C1774 C1755 1.368 . S
C1774 C1768 1.368 . S
C1774 C1773 1.523 . S
C1775 C1759 1.429 . S
C1775 C1771 1.429 . S
C1775 C1776 1.523 . S
C1776 C1760 1.368 . S
C1776 C1772 1.368 . S
C1776 C1775 1.523 . S
H1777 C1752 0.950 . S
H1778 C1754 0.950 . S
H1779 C1755 0.949 . S
H1780 C1757 0.950 . S
H1781 C1759 0.950 . S
C1782 C1783 1.349 . S
C1782 C1784 1.327 . S
C1782 H1807 0.950 . S
C1783 C1782 1.349 . S
C1783 C1799 1.349 1_554 S
C1784 C1782 1.327 . S
C1784 C1803 1.429 . S
C1784 H1808 0.950 . S
C1785 C1802 1.574 . S
C1785 C1804 1.368 . S
C1785 H1809 0.949 1_554 S
H1786 C1790 0.949 . S
C1787 C1788 1.349 . S
C1787 C1789 1.327 . S
C1787 H1810 0.950 . S
C1788 C1787 1.349 . S
C1788 C1800 1.349 . S
C1789 C1787 1.327 . S
C1789 C1805 1.429 . S
C1789 H1811 0.950 . S
C1790 H1786 0.949 . S
C1790 C1798 1.574 . S
C1790 C1806 1.368 . S
H1791 C1799 0.950 . S
H1792 C1797 0.950 . S
H1793 C1798 0.949 . S
H1794 C1800 0.950 . S
H1795 C1801 0.950 . S
H1796 C1802 0.949 . S
C1797 H1792 0.950 . S
C1797 C1799 1.327 . S
C1797 C1803 1.429 1_556 S
C1798 C1790 1.574 . S
C1798 H1793 0.949 . S
C1798 C1804 1.368 . S
C1799 C1783 1.349 1_556 S
C1799 H1791 0.950 . S
C1799 C1797 1.327 . S
C1800 C1788 1.349 . S
C1800 H1794 0.950 . S
C1800 C1801 1.327 . S
C1801 H1795 0.950 . S
C1801 C1800 1.327 . S
C1801 C1805 1.429 . S
C1802 C1785 1.574 . S
C1802 H1796 0.949 . S
C1802 C1806 1.368 . S
C1803 C1784 1.429 . S
C1803 C1797 1.429 1_554 S
C1803 C1804 1.523 . S
C1804 C1785 1.368 . S
C1804 C1798 1.368 . S
C1804 C1803 1.523 . S
C1805 C1789 1.429 . S
C1805 C1801 1.429 . S
C1805 C1806 1.523 . S
C1806 C1790 1.368 . S
C1806 C1802 1.368 . S
C1806 C1805 1.523 . S
H1807 C1782 0.950 . S
H1808 C1784 0.950 . S
H1809 C1785 0.949 1_556 S
H1810 C1787 0.950 . S
H1811 C1789 0.950 . S
C1812 C1813 1.349 . S
C1812 C1814 1.327 . S
C1812 H1837 0.950 . S
C1813 C1812 1.349 . S
C1813 C1829 1.349 . S
C1814 C1812 1.327 . S
C1814 C1833 1.429 . S
C1814 H1838 0.950 . S
C1815 C1832 1.574 . S
C1815 C1834 1.368 . S
C1815 H1839 0.949 . S
H1816 C1820 0.949 . S
C1817 C1818 1.349 . S
C1817 C1819 1.327 . S
C1817 H1840 0.950 . S
C1818 C1817 1.349 . S
C1818 C1830 1.349 . S
C1819 C1817 1.327 . S
C1819 C1835 1.429 . S
C1819 H1841 0.950 . S
C1820 H1816 0.949 . S
C1820 C1828 1.574 . S
C1820 C1836 1.368 . S
H1821 C1829 0.950 . S
H1822 C1827 0.950 . S
H1823 C1828 0.949 . S
H1824 C1830 0.950 . S
H1825 C1831 0.950 . S
H1826 C1832 0.949 . S
C1827 H1822 0.950 . S
C1827 C1829 1.327 . S
C1827 C1833 1.429 . S
C1828 C1820 1.574 . S
C1828 H1823 0.949 . S
C1828 C1834 1.368 . S
C1829 C1813 1.349 . S
C1829 H1821 0.950 . S
C1829 C1827 1.327 . S
C1830 C1818 1.349 . S
C1830 H1824 0.950 . S
C1830 C1831 1.327 . S
C1831 H1825 0.950 . S
C1831 C1830 1.327 . S
C1831 C1835 1.429 . S
C1832 C1815 1.574 . S
C1832 H1826 0.949 . S
C1832 C1836 1.368 . S
C1833 C1814 1.429 . S
C1833 C1827 1.429 . S
C1833 C1834 1.523 . S
C1834 C1815 1.368 . S
C1834 C1828 1.368 . S
C1834 C1833 1.523 . S
C1835 C1819 1.429 . S
C1835 C1831 1.429 . S
C1835 C1836 1.523 . S
C1836 C1820 1.368 . S
C1836 C1832 1.368 . S
C1836 C1835 1.523 . S
H1837 C1812 0.950 . S
H1838 C1814 0.950 . S
H1839 C1815 0.949 . S
H1840 C1817 0.950 . S
H1841 C1819 0.950 . S
C1842 C1843 1.349 1_556 S
C1842 C1844 1.327 . S
C1842 H1867 0.950 . S
C1843 C1842 1.349 1_554 S
C1843 C1859 1.349 . S
C1844 C1842 1.327 . S
C1844 C1863 1.429 1_556 S
C1844 H1868 0.950 . S
C1845 C1862 1.574 . S
C1845 C1864 1.368 . S
C1845 H1869 0.949 . S
H1846 C1850 0.949 . S
C1847 C1848 1.349 1_554 S
C1847 C1849 1.327 . S
C1847 H1870 0.950 . S
C1848 C1847 1.349 1_556 S
C1848 C1860 1.348 . S
C1849 C1847 1.327 . S
C1849 C1865 1.429 . S
C1849 H1871 0.950 . S
C1850 H1846 0.949 . S
C1850 C1858 1.574 . S
C1850 C1866 1.368 1_556 S
H1851 C1859 0.950 . S
H1852 C1857 0.950 . S
H1853 C1858 0.949 . S
H1854 C1860 0.950 . S
H1855 C1861 0.950 . S
H1856 C1862 0.949 . S
C1857 H1852 0.950 . S
C1857 C1859 1.327 . S
C1857 C1863 1.429 . S
C1858 C1850 1.574 . S
C1858 H1853 0.949 . S
C1858 C1864 1.368 1_556 S
C1859 C1843 1.349 . S
C1859 H1851 0.950 . S
C1859 C1857 1.327 . S
C1860 C1848 1.348 . S
C1860 H1854 0.950 . S
C1860 C1861 1.327 . S
C1861 H1855 0.950 . S
C1861 C1860 1.327 . S
C1861 C1865 1.429 1_556 S
C1862 C1845 1.574 . S
C1862 H1856 0.949 . S
C1862 C1866 1.368 . S
C1863 C1844 1.429 1_554 S
C1863 C1857 1.429 . S
C1863 C1864 1.523 . S
C1864 C1845 1.368 . S
C1864 C1858 1.368 1_554 S
C1864 C1863 1.523 . S
C1865 C1849 1.429 . S
C1865 C1861 1.429 1_554 S
C1865 C1866 1.523 . S
C1866 C1850 1.368 1_554 S
C1866 C1862 1.368 . S
C1866 C1865 1.523 . S
H1867 C1842 0.950 . S
H1868 C1844 0.950 . S
H1869 C1845 0.949 . S
H1870 C1847 0.950 . S
H1871 C1849 0.950 . S
C1872 C1873 1.349 . S
C1872 C1874 1.327 . S
C1872 H1897 0.950 . S
C1873 C1872 1.349 . S
C1873 C1889 1.349 . S
C1874 C1872 1.327 . S
C1874 C1893 1.429 . S
C1874 H1898 0.950 . S
C1875 C1892 1.574 . S
C1875 C1894 1.368 . S
C1875 H1899 0.949 . S
H1876 C1880 0.949 . S
C1877 C1878 1.349 . S
C1877 C1879 1.327 . S
C1877 H1900 0.950 . S
C1878 C1877 1.349 . S
C1878 C1890 1.349 . S
C1879 C1877 1.327 . S
C1879 C1895 1.429 . S
C1879 H1901 0.950 . S
C1880 H1876 0.949 . S
C1880 C1888 1.574 . S
C1880 C1896 1.368 . S
H1881 C1889 0.950 . S
H1882 C1887 0.950 . S
H1883 C1888 0.949 . S
H1884 C1890 0.950 . S
H1885 C1891 0.950 . S
H1886 C1892 0.949 . S
C1887 H1882 0.950 . S
C1887 C1889 1.327 . S
C1887 C1893 1.429 . S
C1888 C1880 1.574 . S
C1888 H1883 0.949 . S
C1888 C1894 1.368 . S
C1889 C1873 1.349 . S
C1889 H1881 0.950 . S
C1889 C1887 1.327 . S
C1890 C1878 1.349 . S
C1890 H1884 0.950 . S
C1890 C1891 1.327 . S
C1891 H1885 0.950 . S
C1891 C1890 1.327 . S
C1891 C1895 1.429 . S
C1892 C1875 1.574 . S
C1892 H1886 0.949 . S
C1892 C1896 1.368 . S
C1893 C1874 1.429 . S
C1893 C1887 1.429 . S
C1893 C1894 1.523 . S
C1894 C1875 1.368 . S
C1894 C1888 1.368 . S
C1894 C1893 1.523 . S
C1895 C1879 1.429 . S
C1895 C1891 1.429 . S
C1895 C1896 1.523 . S
C1896 C1880 1.368 . S
C1896 C1892 1.368 . S
C1896 C1895 1.523 . S
H1897 C1872 0.950 . S
H1898 C1874 0.950 . S
H1899 C1875 0.949 . S
H1900 C1877 0.950 . S
H1901 C1879 0.950 . S
C1902 C1903 1.349 . S
C1902 C1904 1.327 . S
C1902 H1927 0.950 . S
C1903 C1902 1.349 . S
C1903 C1919 1.349 1_455 S
C1904 C1902 1.327 . S
C1904 C1923 1.429 . S
C1904 H1928 0.950 . S
C1905 C1922 1.574 . S
C1905 C1924 1.368 . S
C1905 H1929 0.949 1_455 S
H1906 C1910 0.949 . S
C1907 C1908 1.349 . S
C1907 C1909 1.327 . S
C1907 H1930 0.950 . S
C1908 C1907 1.349 . S
C1908 C1920 1.349 . S
C1909 C1907 1.327 . S
C1909 C1925 1.429 . S
C1909 H1931 0.950 . S
C1910 H1906 0.949 . S
C1910 C1918 1.574 . S
C1910 C1926 1.368 . S
H1911 C1919 0.950 . S
H1912 C1917 0.950 . S
H1913 C1918 0.949 . S
H1914 C1920 0.950 . S
H1915 C1921 0.950 . S
H1916 C1922 0.949 . S
C1917 H1912 0.950 . S
C1917 C1919 1.327 . S
C1917 C1923 1.429 1_655 S
C1918 C1910 1.574 . S
C1918 H1913 0.949 . S
C1918 C1924 1.368 . S
C1919 C1903 1.349 1_655 S
C1919 H1911 0.950 . S
C1919 C1917 1.327 . S
C1920 C1908 1.349 . S
C1920 H1914 0.950 . S
C1920 C1921 1.327 . S
C1921 H1915 0.950 . S
C1921 C1920 1.327 . S
C1921 C1925 1.429 . S
C1922 C1905 1.574 . S
C1922 H1916 0.949 . S
C1922 C1926 1.368 . S
C1923 C1904 1.429 . S
C1923 C1917 1.429 1_455 S
C1923 C1924 1.523 . S
C1924 C1905 1.368 . S
C1924 C1918 1.368 . S
C1924 C1923 1.523 . S
C1925 C1909 1.429 . S
C1925 C1921 1.429 . S
C1925 C1926 1.523 . S
C1926 C1910 1.368 . S
C1926 C1922 1.368 . S
C1926 C1925 1.523 . S
H1927 C1902 0.950 . S
H1928 C1904 0.950 . S
H1929 C1905 0.949 1_655 S
H1930 C1907 0.950 . S
H1931 C1909 0.950 . S
C1932 C1933 1.349 . S
C1932 C1934 1.327 . S
C1932 H1957 0.950 . S
C1933 C1932 1.349 . S
C1933 C1949 1.349 . S
C1934 C1932 1.327 . S
C1934 C1953 1.429 . S
C1934 H1958 0.950 . S
C1935 C1952 1.574 . S
C1935 C1954 1.368 . S
C1935 H1959 0.949 . S
H1936 C1940 0.949 . S
C1937 C1938 1.349 . S
C1937 C1939 1.327 . S
C1937 H1960 0.950 . S
C1938 C1937 1.349 . S
C1938 C1950 1.349 . S
C1939 C1937 1.327 . S
C1939 C1955 1.429 . S
C1939 H1961 0.950 . S
C1940 H1936 0.949 . S
C1940 C1948 1.574 . S
C1940 C1956 1.368 . S
H1941 C1949 0.950 . S
H1942 C1947 0.950 . S
H1943 C1948 0.949 . S
H1944 C1950 0.950 . S
H1945 C1951 0.950 . S
H1946 C1952 0.949 . S
C1947 H1942 0.950 . S
C1947 C1949 1.327 . S
C1947 C1953 1.429 . S
C1948 C1940 1.574 . S
C1948 H1943 0.949 . S
C1948 C1954 1.368 . S
C1949 C1933 1.349 . S
C1949 H1941 0.950 . S
C1949 C1947 1.327 . S
C1950 C1938 1.349 . S
C1950 H1944 0.950 . S
C1950 C1951 1.327 . S
C1951 H1945 0.950 . S
C1951 C1950 1.327 . S
C1951 C1955 1.429 . S
C1952 C1935 1.574 . S
C1952 H1946 0.949 . S
C1952 C1956 1.368 . S
C1953 C1934 1.429 . S
C1953 C1947 1.429 . S
C1953 C1954 1.523 . S
C1954 C1935 1.368 . S
C1954 C1948 1.368 . S
C1954 C1953 1.523 . S
C1955 C1939 1.429 . S
C1955 C1951 1.429 . S
C1955 C1956 1.523 . S
C1956 C1940 1.368 . S
C1956 C1952 1.368 . S
C1956 C1955 1.523 . S
H1957 C1932 0.950 . S
H1958 C1934 0.950 . S
H1959 C1935 0.949 . S
H1960 C1937 0.950 . S
H1961 C1939 0.950 . S
C1962 C1963 1.349 1_655 S
C1962 C1964 1.327 . S
C1962 H1987 0.950 . S
C1963 C1962 1.349 1_455 S
C1963 C1979 1.349 . S
C1964 C1962 1.327 . S
C1964 C1983 1.429 1_655 S
C1964 H1988 0.950 . S
C1965 C1982 1.574 . S
C1965 C1984 1.368 . S
C1965 H1989 0.949 . S
H1966 C1970 0.949 . S
C1967 C1968 1.345 1_455 S
C1967 C1969 1.327 . S
C1967 H1990 0.950 . S
C1968 C1967 1.345 1_655 S
C1968 C1980 1.352 . S
C1969 C1967 1.327 . S
C1969 C1985 1.429 . S
C1969 H1991 0.950 . S
C1970 H1966 0.949 . S
C1970 C1978 1.574 . S
C1970 C1986 1.368 1_655 S
H1971 C1979 0.950 . S
H1972 C1977 0.950 . S
H1973 C1978 0.949 . S
H1974 C1980 0.950 . S
H1975 C1981 0.950 . S
H1976 C1982 0.949 . S
C1977 H1972 0.950 . S
C1977 C1979 1.327 . S
C1977 C1983 1.429 . S
C1978 C1970 1.574 . S
C1978 H1973 0.949 . S
C1978 C1984 1.368 1_655 S
C1979 C1963 1.349 . S
C1979 H1971 0.950 . S
C1979 C1977 1.327 . S
C1980 C1968 1.352 . S
C1980 H1974 0.950 . S
C1980 C1981 1.327 . S
C1981 H1975 0.950 . S
C1981 C1980 1.327 . S
C1981 C1985 1.429 1_655 S
C1982 C1965 1.574 . S
C1982 H1976 0.949 . S
C1982 C1986 1.368 . S
C1983 C1964 1.429 1_455 S
C1983 C1977 1.429 . S
C1983 C1984 1.523 . S
C1984 C1965 1.368 . S
C1984 C1978 1.368 1_455 S
C1984 C1983 1.523 . S
C1985 C1969 1.429 . S
C1985 C1981 1.429 1_455 S
C1985 C1986 1.523 . S
C1986 C1970 1.368 1_455 S
C1986 C1982 1.368 . S
C1986 C1985 1.523 . S
H1987 C1962 0.950 . S
H1988 C1964 0.950 . S
H1989 C1965 0.949 . S
H1990 C1967 0.950 . S
H1991 C1969 0.950 . S
C1992 C1993 1.349 . S
C1992 C1994 1.327 . S
C1992 H2017 0.950 . S
C1993 C1992 1.349 . S
C1993 C2009 1.349 . S
C1994 C1992 1.327 . S
C1994 C2013 1.429 . S
C1994 H2018 0.950 . S
C1995 C2012 1.574 . S
C1995 C2014 1.368 . S
C1995 H2019 0.949 . S
H1996 C2000 0.949 . S
C1997 C1998 1.349 . S
C1997 C1999 1.327 . S
C1997 H2020 0.950 . S
C1998 C1997 1.349 . S
C1998 C2010 1.349 . S
C1999 C1997 1.327 . S
C1999 C2015 1.429 . S
C1999 H2021 0.950 . S
C2000 H1996 0.949 . S
C2000 C2008 1.574 . S
C2000 C2016 1.368 . S
H2001 C2009 0.950 . S
H2002 C2007 0.950 . S
H2003 C2008 0.949 . S
H2004 C2010 0.950 . S
H2005 C2011 0.950 . S
H2006 C2012 0.949 . S
C2007 H2002 0.950 . S
C2007 C2009 1.327 . S
C2007 C2013 1.429 . S
C2008 C2000 1.574 . S
C2008 H2003 0.949 . S
C2008 C2014 1.368 . S
C2009 C1993 1.349 . S
C2009 H2001 0.950 . S
C2009 C2007 1.327 . S
C2010 C1998 1.349 . S
C2010 H2004 0.950 . S
C2010 C2011 1.327 . S
C2011 H2005 0.950 . S
C2011 C2010 1.327 . S
C2011 C2015 1.429 . S
C2012 C1995 1.574 . S
C2012 H2006 0.949 . S
C2012 C2016 1.368 . S
C2013 C1994 1.429 . S
C2013 C2007 1.429 . S
C2013 C2014 1.523 . S
C2014 C1995 1.368 . S
C2014 C2008 1.368 . S
C2014 C2013 1.523 . S
C2015 C1999 1.429 . S
C2015 C2011 1.429 . S
C2015 C2016 1.523 . S
C2016 C2000 1.368 . S
C2016 C2012 1.368 . S
C2016 C2015 1.523 . S
H2017 C1992 0.950 . S
H2018 C1994 0.950 . S
H2019 C1995 0.949 . S
H2020 C1997 0.950 . S
H2021 C1999 0.950 . S
C2022 C2023 1.349 . S
C2022 C2024 1.327 . S
C2022 H2047 0.950 . S
C2023 C2022 1.349 . S
C2023 C2039 1.349 . S
C2024 C2022 1.327 . S
C2024 C2043 1.429 . S
C2024 H2048 0.950 . S
C2025 C2042 1.574 . S
C2025 C2044 1.368 . S
C2025 H2049 0.949 . S
H2026 C2030 0.949 . S
C2027 C2028 1.349 . S
C2027 C2029 1.327 . S
C2027 H2050 0.950 . S
C2028 C2027 1.349 . S
C2028 C2040 1.349 . S
C2029 C2027 1.327 . S
C2029 C2045 1.429 . S
C2029 H2051 0.950 . S
C2030 H2026 0.949 . S
C2030 C2038 1.574 . S
C2030 C2046 1.368 . S
H2031 C2039 0.950 . S
H2032 C2037 0.950 . S
H2033 C2038 0.949 . S
H2034 C2040 0.950 . S
H2035 C2041 0.950 . S
H2036 C2042 0.949 . S
C2037 H2032 0.950 . S
C2037 C2039 1.327 . S
C2037 C2043 1.429 . S
C2038 C2030 1.574 . S
C2038 H2033 0.949 . S
C2038 C2044 1.368 . S
C2039 C2023 1.349 . S
C2039 H2031 0.950 . S
C2039 C2037 1.327 . S
C2040 C2028 1.349 . S
C2040 H2034 0.950 . S
C2040 C2041 1.327 . S
C2041 H2035 0.950 . S
C2041 C2040 1.327 . S
C2041 C2045 1.429 . S
C2042 C2025 1.574 . S
C2042 H2036 0.949 . S
C2042 C2046 1.368 . S
C2043 C2024 1.429 . S
C2043 C2037 1.429 . S
C2043 C2044 1.523 . S
C2044 C2025 1.368 . S
C2044 C2038 1.368 . S
C2044 C2043 1.523 . S
C2045 C2029 1.429 . S
C2045 C2041 1.429 . S
C2045 C2046 1.523 . S
C2046 C2030 1.368 . S
C2046 C2042 1.368 . S
C2046 C2045 1.523 . S
H2047 C2022 0.950 . S
H2048 C2024 0.950 . S
H2049 C2025 0.949 . S
H2050 C2027 0.950 . S
H2051 C2029 0.950 . S
C2052 C2053 1.349 . S
C2052 C2054 1.327 . S
C2052 H2077 0.950 . S
C2053 C2052 1.349 . S
C2053 C2069 1.360 . S
C2054 C2052 1.327 . S
C2054 C2073 1.429 . S
C2054 H2078 0.950 . S
C2055 C2072 1.574 . S
C2055 C2074 1.368 . S
C2055 H2079 0.949 . S
H2056 C2060 0.949 . S
C2057 C2058 1.349 . S
C2057 C2059 1.327 . S
C2057 H2080 0.950 . S
C2058 C2057 1.349 . S
C2058 C2070 1.349 . S
C2059 C2057 1.327 . S
C2059 C2075 1.429 . S
C2059 H2081 0.950 . S
C2060 H2056 0.949 . S
C2060 C2068 1.574 . S
C2060 C2076 1.368 . S
H2061 C2069 0.941 1_565 S
H2062 C2067 0.950 . S
H2063 C2068 0.949 . S
H2064 C2070 0.950 . S
H2065 C2071 0.950 . S
H2066 C2072 0.949 . S
C2067 H2062 0.950 . S
C2067 C2069 1.328 . S
C2067 C2073 1.429 . S
C2068 C2060 1.574 . S
C2068 H2063 0.949 . S
C2068 C2074 1.368 . S
C2069 C2053 1.360 . S
C2069 H2061 0.941 1_545 S
C2069 C2067 1.328 . S
C2070 C2058 1.349 . S
C2070 H2064 0.950 . S
C2070 C2071 1.327 . S
C2071 H2065 0.950 . S
C2071 C2070 1.327 . S
C2071 C2075 1.429 . S
C2072 C2055 1.574 . S
C2072 H2066 0.949 . S
C2072 C2076 1.368 . S
C2073 C2054 1.429 . S
C2073 C2067 1.429 . S
C2073 C2074 1.523 . S
C2074 C2055 1.368 . S
C2074 C2068 1.368 . S
C2074 C2073 1.523 . S
C2075 C2059 1.429 . S
C2075 C2071 1.429 . S
C2075 C2076 1.523 . S
C2076 C2060 1.368 . S
C2076 C2072 1.368 . S
C2076 C2075 1.523 . S
H2077 C2052 0.950 . S
H2078 C2054 0.950 . S
H2079 C2055 0.949 . S
H2080 C2057 0.950 . S
H2081 C2059 0.950 . S
C2082 C2083 1.349 . S
C2082 C2084 1.327 . S
C2082 H2107 0.950 . S
C2083 C2082 1.349 . S
C2083 C2099 1.349 1_565 S
C2084 C2082 1.327 . S
C2084 C2103 1.429 . S
C2084 H2108 0.950 . S
C2085 C2102 1.574 . S
C2085 C2104 1.368 . S
C2085 H2109 0.945 1_565 S
H2086 C2090 0.949 . S
C2087 C2088 1.349 . S
C2087 C2089 1.327 . S
C2087 H2110 0.950 . S
C2088 C2087 1.349 . S
C2088 C2100 1.349 . S
C2089 C2087 1.327 . S
C2089 C2105 1.429 . S
C2089 H2111 0.950 . S
C2090 H2086 0.949 . S
C2090 C2098 1.574 . S
C2090 C2106 1.368 . S
H2091 C2099 0.950 . S
H2092 C2097 0.951 . S
H2093 C2098 0.949 . S
H2094 C2100 0.950 . S
H2095 C2101 0.950 . S
H2096 C2102 0.949 . S
C2097 H2092 0.951 . S
C2097 C2099 1.328 . S
C2097 C2103 1.427 1_545 S
C2098 C2090 1.574 . S
C2098 H2093 0.949 . S
C2098 C2104 1.368 . S
C2099 C2083 1.349 1_545 S
C2099 H2091 0.950 . S
C2099 C2097 1.328 . S
C2100 C2088 1.349 . S
C2100 H2094 0.950 . S
C2100 C2101 1.327 . S
C2101 H2095 0.950 . S
C2101 C2100 1.327 . S
C2101 C2105 1.429 . S
C2102 C2085 1.574 . S
C2102 H2096 0.949 . S
C2102 C2106 1.368 . S
C2103 C2084 1.429 . S
C2103 C2097 1.427 1_565 S
C2103 C2104 1.523 . S
C2104 C2085 1.368 . S
C2104 C2098 1.368 . S
C2104 C2103 1.523 . S
C2105 C2089 1.429 . S
C2105 C2101 1.429 . S
C2105 C2106 1.523 . S
C2106 C2090 1.368 . S
C2106 C2102 1.368 . S
C2106 C2105 1.523 . S
H2107 C2082 0.950 . S
H2108 C2084 0.950 . S
H2109 C2085 0.945 1_545 S
H2110 C2087 0.950 . S
H2111 C2089 0.950 . S
C2112 C2113 1.349 . S
C2112 C2114 1.327 . S
C2112 H2137 0.950 . S
C2113 C2112 1.349 . S
C2113 C2129 1.349 . S
C2114 C2112 1.327 . S
C2114 C2133 1.429 . S
C2114 H2138 0.950 . S
C2115 C2132 1.574 . S
C2115 C2134 1.368 . S
C2115 H2139 0.949 . S
H2116 C2120 0.949 . S
C2117 C2118 1.349 . S
C2117 C2119 1.327 . S
C2117 H2140 0.950 . S
C2118 C2117 1.349 . S
C2118 C2130 1.349 . S
C2119 C2117 1.327 . S
C2119 C2135 1.429 . S
C2119 H2141 0.950 . S
C2120 H2116 0.949 . S
C2120 C2128 1.574 . S
C2120 C2136 1.368 . S
H2121 C2129 0.950 . S
H2122 C2127 0.950 . S
H2123 C2128 0.949 . S
H2124 C2130 0.950 . S
H2125 C2131 0.950 . S
H2126 C2132 0.949 . S
C2127 H2122 0.950 . S
C2127 C2129 1.327 . S
C2127 C2133 1.429 . S
C2128 C2120 1.574 . S
C2128 H2123 0.949 . S
C2128 C2134 1.368 . S
C2129 C2113 1.349 . S
C2129 H2121 0.950 . S
C2129 C2127 1.327 . S
C2130 C2118 1.349 . S
C2130 H2124 0.950 . S
C2130 C2131 1.327 . S
C2131 H2125 0.950 . S
C2131 C2130 1.327 . S
C2131 C2135 1.429 . S
C2132 C2115 1.574 . S
C2132 H2126 0.949 . S
C2132 C2136 1.368 . S
C2133 C2114 1.429 . S
C2133 C2127 1.429 . S
C2133 C2134 1.523 . S
C2134 C2115 1.368 . S
C2134 C2128 1.368 . S
C2134 C2133 1.523 . S
C2135 C2119 1.429 . S
C2135 C2131 1.429 . S
C2135 C2136 1.523 . S
C2136 C2120 1.368 . S
C2136 C2132 1.368 . S
C2136 C2135 1.523 . S
H2137 C2112 0.950 . S
H2138 C2114 0.950 . S
H2139 C2115 0.949 . S
H2140 C2117 0.950 . S
H2141 C2119 0.950 . S
C2142 C2143 1.349 . S
C2142 C2144 1.327 . S
C2142 H2167 0.950 . S
C2143 C2142 1.349 . S
C2143 C2159 1.349 1_556 S
C2144 C2142 1.327 . S
C2144 C2163 1.429 . S
C2144 H2168 0.950 . S
C2145 C2162 1.574 . S
C2145 C2164 1.368 . S
C2145 H2169 0.949 1_556 S
H2146 C2150 0.949 . S
C2147 C2148 1.349 . S
C2147 C2149 1.327 . S
C2147 H2170 0.950 . S
C2148 C2147 1.349 . S
C2148 C2160 1.349 . S
C2149 C2147 1.327 . S
C2149 C2165 1.429 . S
C2149 H2171 0.950 . S
C2150 H2146 0.949 . S
C2150 C2158 1.574 . S
C2150 C2166 1.368 . S
H2151 C2159 0.950 . S
H2152 C2157 0.950 . S
H2153 C2158 0.949 . S
H2154 C2160 0.950 . S
H2155 C2161 0.950 . S
H2156 C2162 0.949 . S
C2157 H2152 0.950 . S
C2157 C2159 1.327 . S
C2157 C2163 1.429 1_554 S
C2158 C2150 1.574 . S
C2158 H2153 0.949 . S
C2158 C2164 1.368 . S
C2159 C2143 1.349 1_554 S
C2159 H2151 0.950 . S
C2159 C2157 1.327 . S
C2160 C2148 1.349 . S
C2160 H2154 0.950 . S
C2160 C2161 1.327 . S
C2161 H2155 0.950 . S
C2161 C2160 1.327 . S
C2161 C2165 1.429 . S
C2162 C2145 1.574 . S
C2162 H2156 0.949 . S
C2162 C2166 1.368 . S
C2163 C2144 1.429 . S
C2163 C2157 1.429 1_556 S
C2163 C2164 1.523 . S
C2164 C2145 1.368 . S
C2164 C2158 1.368 . S
C2164 C2163 1.523 . S
C2165 C2149 1.429 . S
C2165 C2161 1.429 . S
C2165 C2166 1.523 . S
C2166 C2150 1.368 . S
C2166 C2162 1.368 . S
C2166 C2165 1.523 . S
H2167 C2142 0.950 . S
H2168 C2144 0.950 . S
H2169 C2145 0.949 1_554 S
H2170 C2147 0.950 . S
H2171 C2149 0.950 . S
C2172 C2173 1.349 . S
C2172 C2174 1.327 . S
C2172 H2197 0.950 . S
C2173 C2172 1.349 . S
C2173 C2189 1.349 . S
C2174 C2172 1.327 . S
C2174 C2193 1.429 . S
C2174 H2198 0.950 . S
C2175 C2192 1.574 . S
C2175 C2194 1.368 . S
C2175 H2199 0.949 . S
H2176 C2180 0.949 . S
C2177 C2178 1.349 . S
C2177 C2179 1.327 . S
C2177 H2200 0.950 . S
C2178 C2177 1.349 . S
C2178 C2190 1.349 . S
C2179 C2177 1.327 . S
C2179 C2195 1.429 . S
C2179 H2201 0.950 . S
C2180 H2176 0.949 . S
C2180 C2188 1.574 . S
C2180 C2196 1.368 . S
H2181 C2189 0.950 . S
H2182 C2187 0.950 . S
H2183 C2188 0.949 . S
H2184 C2190 0.950 . S
H2185 C2191 0.950 . S
H2186 C2192 0.949 . S
C2187 H2182 0.950 . S
C2187 C2189 1.327 . S
C2187 C2193 1.429 . S
C2188 C2180 1.574 . S
C2188 H2183 0.949 . S
C2188 C2194 1.368 . S
C2189 C2173 1.349 . S
C2189 H2181 0.950 . S
C2189 C2187 1.327 . S
C2190 C2178 1.349 . S
C2190 H2184 0.950 . S
C2190 C2191 1.327 . S
C2191 H2185 0.950 . S
C2191 C2190 1.327 . S
C2191 C2195 1.429 . S
C2192 C2175 1.574 . S
C2192 H2186 0.949 . S
C2192 C2196 1.368 . S
C2193 C2174 1.429 . S
C2193 C2187 1.429 . S
C2193 C2194 1.523 . S
C2194 C2175 1.368 . S
C2194 C2188 1.368 . S
C2194 C2193 1.523 . S
C2195 C2179 1.429 . S
C2195 C2191 1.429 . S
C2195 C2196 1.523 . S
C2196 C2180 1.368 . S
C2196 C2192 1.368 . S
C2196 C2195 1.523 . S
H2197 C2172 0.950 . S
H2198 C2174 0.950 . S
H2199 C2175 0.949 . S
H2200 C2177 0.950 . S
H2201 C2179 0.950 . S
C2202 C2203 1.349 1_556 S
C2202 C2204 1.327 . S
C2202 H2227 0.950 . S
C2203 C2202 1.349 1_554 S
C2203 C2219 1.349 . S
C2204 C2202 1.327 . S
C2204 C2223 1.429 1_556 S
C2204 H2228 0.950 . S
C2205 C2222 1.574 . S
C2205 C2224 1.368 . S
C2205 H2229 0.949 . S
H2206 C2210 0.949 . S
C2207 C2208 1.349 . S
C2207 C2209 1.327 . S
C2207 H2230 0.950 . S
C2208 C2207 1.349 . S
C2208 C2220 1.349 . S
C2209 C2207 1.327 . S
C2209 C2225 1.429 . S
C2209 H2231 0.950 . S
C2210 H2206 0.949 . S
C2210 C2218 1.574 . S
C2210 C2226 1.368 1_556 S
H2211 C2219 0.950 . S
H2212 C2217 0.950 . S
H2213 C2218 0.949 . S
H2214 C2220 0.950 1_556 S
H2215 C2221 0.950 1_556 S
H2216 C2222 0.949 . S
C2217 H2212 0.950 . S
C2217 C2219 1.327 . S
C2217 C2223 1.429 . S
C2218 C2210 1.574 . S
C2218 H2213 0.949 . S
C2218 C2224 1.368 1_556 S
C2219 C2203 1.349 . S
C2219 H2211 0.950 . S
C2219 C2217 1.327 . S
C2220 C2208 1.349 . S
C2220 H2214 0.950 1_554 S
C2220 C2221 1.327 . S
C2221 H2215 0.950 1_554 S
C2221 C2220 1.327 . S
C2221 C2225 1.429 . S
C2222 C2205 1.574 . S
C2222 H2216 0.949 . S
C2222 C2226 1.368 . S
C2223 C2204 1.429 1_554 S
C2223 C2217 1.429 . S
C2223 C2224 1.523 . S
C2224 C2205 1.368 . S
C2224 C2218 1.368 1_554 S
C2224 C2223 1.523 . S
C2225 C2209 1.429 . S
C2225 C2221 1.429 . S
C2225 C2226 1.523 . S
C2226 C2210 1.368 1_554 S
C2226 C2222 1.368 . S
C2226 C2225 1.523 . S
H2227 C2202 0.950 . S
H2228 C2204 0.950 . S
H2229 C2205 0.949 . S
H2230 C2207 0.950 . S
H2231 C2209 0.950 . S
C2232 C2233 1.349 . S
C2232 C2234 1.327 . S
C2232 H2257 0.950 . S
C2233 C2232 1.349 . S
C2233 C2249 1.349 . S
C2234 C2232 1.327 . S
C2234 C2253 1.429 . S
C2234 H2258 0.950 . S
C2235 C2252 1.574 . S
C2235 C2254 1.368 . S
C2235 H2259 0.949 . S
H2236 C2240 0.949 . S
C2237 C2238 1.349 . S
C2237 C2239 1.327 . S
C2237 H2260 0.950 . S
C2238 C2237 1.349 . S
C2238 C2250 1.349 . S
C2239 C2237 1.327 . S
C2239 C2255 1.429 . S
C2239 H2261 0.950 . S
C2240 H2236 0.949 . S
C2240 C2248 1.574 . S
C2240 C2256 1.368 . S
H2241 C2249 0.950 . S
H2242 C2247 0.950 . S
H2243 C2248 0.949 . S
H2244 C2250 0.950 . S
H2245 C2251 0.950 . S
H2246 C2252 0.949 . S
C2247 H2242 0.950 . S
C2247 C2249 1.327 . S
C2247 C2253 1.429 . S
C2248 C2240 1.574 . S
C2248 H2243 0.949 . S
C2248 C2254 1.368 . S
C2249 C2233 1.349 . S
C2249 H2241 0.950 . S
C2249 C2247 1.327 . S
C2250 C2238 1.349 . S
C2250 H2244 0.950 . S
C2250 C2251 1.327 . S
C2251 H2245 0.950 . S
C2251 C2250 1.327 . S
C2251 C2255 1.429 . S
C2252 C2235 1.574 . S
C2252 H2246 0.949 . S
C2252 C2256 1.368 . S
C2253 C2234 1.429 . S
C2253 C2247 1.429 . S
C2253 C2254 1.523 . S
C2254 C2235 1.368 . S
C2254 C2248 1.368 . S
C2254 C2253 1.523 . S
C2255 C2239 1.429 . S
C2255 C2251 1.429 . S
C2255 C2256 1.523 . S
C2256 C2240 1.368 . S
C2256 C2252 1.368 . S
C2256 C2255 1.523 . S
H2257 C2232 0.950 . S
H2258 C2234 0.950 . S
H2259 C2235 0.949 . S
H2260 C2237 0.950 . S
H2261 C2239 0.950 . S
C2262 C2263 1.349 . S
C2262 C2264 1.327 . S
C2262 H2287 0.950 . S
C2263 C2262 1.349 . S
C2263 C2279 1.349 1_655 S
C2264 C2262 1.327 . S
C2264 C2283 1.429 . S
C2264 H2288 0.950 . S
C2265 C2282 1.574 . S
C2265 C2284 1.368 . S
C2265 H2289 0.949 1_655 S
H2266 C2270 0.949 . S
C2267 C2268 1.349 . S
C2267 C2269 1.327 . S
C2267 H2290 0.950 . S
C2268 C2267 1.349 . S
C2268 C2280 1.349 . S
C2269 C2267 1.327 . S
C2269 C2285 1.429 . S
C2269 H2291 0.950 . S
C2270 H2266 0.949 . S
C2270 C2278 1.574 . S
C2270 C2286 1.368 . S
H2271 C2279 0.950 . S
H2272 C2277 0.974 . S
H2273 C2278 0.949 . S
H2274 C2280 0.950 . S
H2275 C2281 0.950 . S
H2276 C2282 0.949 . S
C2277 H2272 0.974 . S
C2277 C2279 1.334 . S
C2277 C2283 1.401 1_455 S
C2278 C2270 1.574 . S
C2278 H2273 0.949 . S
C2278 C2284 1.368 . S
C2279 C2263 1.349 1_455 S
C2279 H2271 0.950 . S
C2279 C2277 1.334 . S
C2280 C2268 1.349 . S
C2280 H2274 0.950 . S
C2280 C2281 1.327 . S
C2281 H2275 0.950 . S
C2281 C2280 1.327 . S
C2281 C2285 1.429 . S
C2282 C2265 1.574 . S
C2282 H2276 0.949 . S
C2282 C2286 1.368 . S
C2283 C2264 1.429 . S
C2283 C2277 1.401 1_655 S
C2283 C2284 1.523 . S
C2284 C2265 1.368 . S
C2284 C2278 1.368 . S
C2284 C2283 1.523 . S
C2285 C2269 1.429 . S
C2285 C2281 1.429 . S
C2285 C2286 1.523 . S
C2286 C2270 1.368 . S
C2286 C2282 1.368 . S
C2286 C2285 1.523 . S
H2287 C2262 0.950 . S
H2288 C2264 0.950 . S
H2289 C2265 0.949 1_455 S
H2290 C2267 0.950 . S
H2291 C2269 0.950 . S
C2292 C2293 1.349 . S
C2292 C2294 1.327 . S
C2292 H2317 0.950 . S
C2293 C2292 1.349 . S
C2293 C2309 1.349 . S
C2294 C2292 1.327 . S
C2294 C2313 1.429 . S
C2294 H2318 0.950 . S
C2295 C2312 1.574 . S
C2295 C2314 1.368 . S
C2295 H2319 0.949 . S
H2296 C2300 0.949 . S
C2297 C2298 1.349 . S
C2297 C2299 1.327 . S
C2297 H2320 0.950 . S
C2298 C2297 1.349 . S
C2298 C2310 1.349 . S
C2299 C2297 1.327 . S
C2299 C2315 1.429 . S
C2299 H2321 0.950 . S
C2300 H2296 0.949 . S
C2300 C2308 1.574 . S
C2300 C2316 1.368 . S
H2301 C2309 0.950 . S
H2302 C2307 0.950 . S
H2303 C2308 0.949 . S
H2304 C2310 0.950 . S
H2305 C2311 0.950 . S
H2306 C2312 0.949 . S
C2307 H2302 0.950 . S
C2307 C2309 1.327 . S
C2307 C2313 1.429 . S
C2308 C2300 1.574 . S
C2308 H2303 0.949 . S
C2308 C2314 1.368 . S
C2309 C2293 1.349 . S
C2309 H2301 0.950 . S
C2309 C2307 1.327 . S
C2310 C2298 1.349 . S
C2310 H2304 0.950 . S
C2310 C2311 1.327 . S
C2311 H2305 0.950 . S
C2311 C2310 1.327 . S
C2311 C2315 1.429 . S
C2312 C2295 1.574 . S
C2312 H2306 0.949 . S
C2312 C2316 1.368 . S
C2313 C2294 1.429 . S
C2313 C2307 1.429 . S
C2313 C2314 1.523 . S
C2314 C2295 1.368 . S
C2314 C2308 1.368 . S
C2314 C2313 1.523 . S
C2315 C2299 1.429 . S
C2315 C2311 1.429 . S
C2315 C2316 1.523 . S
C2316 C2300 1.368 . S
C2316 C2312 1.368 . S
C2316 C2315 1.523 . S
H2317 C2292 0.950 . S
H2318 C2294 0.950 . S
H2319 C2295 0.949 . S
H2320 C2297 0.950 . S
H2321 C2299 0.950 . S
C2322 C2323 1.349 . S
C2322 C2324 1.327 . S
C2322 H2347 0.950 . S
C2323 C2322 1.349 . S
C2323 C2339 1.349 1_455 S
C2324 C2322 1.327 . S
C2324 C2343 1.429 . S
C2324 H2348 0.950 . S
C2325 C2342 1.574 1_655 S
C2325 C2344 1.366 1_655 S
C2325 H2349 0.951 . S
H2326 C2330 0.949 . S
C2327 C2328 1.349 . S
C2327 C2329 1.327 . S
C2327 H2350 0.950 . S
C2328 C2327 1.349 . S
C2328 C2340 1.349 . S
C2329 C2327 1.327 . S
C2329 C2345 1.429 . S
C2329 H2351 0.949 1_455 S
C2330 H2326 0.949 . S
C2330 C2338 1.574 . S
C2330 C2346 1.368 . S
H2331 C2339 0.950 . S
H2332 C2337 0.950 . S
H2333 C2338 0.949 . S
H2334 C2340 0.950 . S
H2335 C2341 0.950 . S
H2336 C2342 0.949 1_655 S
C2337 H2332 0.950 . S
C2337 C2339 1.327 . S
C2337 C2343 1.429 1_655 S
C2338 C2330 1.574 . S
C2338 H2333 0.949 . S
C2338 C2344 1.368 . S
C2339 C2323 1.349 1_655 S
C2339 H2331 0.950 . S
C2339 C2337 1.327 . S
C2340 C2328 1.349 . S
C2340 H2334 0.950 . S
C2340 C2341 1.327 . S
C2341 H2335 0.950 . S
C2341 C2340 1.327 . S
C2341 C2345 1.429 . S
C2342 C2325 1.574 1_455 S
C2342 H2336 0.949 1_455 S
C2342 C2346 1.368 . S
C2343 C2324 1.429 . S
C2343 C2337 1.429 1_455 S
C2343 C2344 1.523 . S
C2344 C2325 1.366 1_455 S
C2344 C2338 1.368 . S
C2344 C2343 1.523 . S
C2345 C2329 1.429 . S
C2345 C2341 1.429 . S
C2345 C2346 1.523 . S
C2346 C2330 1.368 . S
C2346 C2342 1.368 . S
C2346 C2345 1.523 . S
H2347 C2322 0.950 . S
H2348 C2324 0.950 . S
H2349 C2325 0.951 . S
H2350 C2327 0.950 . S
H2351 C2329 0.949 1_655 S
C2352 C2353 1.349 . S
C2352 C2354 1.327 . S
C2352 H2377 0.950 . S
C2353 C2352 1.349 . S
C2353 C2369 1.349 . S
C2354 C2352 1.327 . S
C2354 C2373 1.429 . S
C2354 H2378 0.950 . S
C2355 C2372 1.574 . S
C2355 C2374 1.368 . S
C2355 H2379 0.949 . S
H2356 C2360 0.949 . S
C2357 C2358 1.349 . S
C2357 C2359 1.327 . S
C2357 H2380 0.950 . S
C2358 C2357 1.349 . S
C2358 C2370 1.349 . S
C2359 C2357 1.327 . S
C2359 C2375 1.429 . S
C2359 H2381 0.950 . S
C2360 H2356 0.949 . S
C2360 C2368 1.574 . S
C2360 C2376 1.368 . S
H2361 C2369 0.950 . S
H2362 C2367 0.950 . S
H2363 C2368 0.949 . S
H2364 C2370 0.950 . S
H2365 C2371 0.950 . S
H2366 C2372 0.949 . S
C2367 H2362 0.950 . S
C2367 C2369 1.327 . S
C2367 C2373 1.429 . S
C2368 C2360 1.574 . S
C2368 H2363 0.949 . S
C2368 C2374 1.368 . S
C2369 C2353 1.349 . S
C2369 H2361 0.950 . S
C2369 C2367 1.327 . S
C2370 C2358 1.349 . S
C2370 H2364 0.950 . S
C2370 C2371 1.327 . S
C2371 H2365 0.950 . S
C2371 C2370 1.327 . S
C2371 C2375 1.429 . S
C2372 C2355 1.574 . S
C2372 H2366 0.949 . S
C2372 C2376 1.368 . S
C2373 C2354 1.429 . S
C2373 C2367 1.429 . S
C2373 C2374 1.523 . S
C2374 C2355 1.368 . S
C2374 C2368 1.368 . S
C2374 C2373 1.523 . S
C2375 C2359 1.429 . S
C2375 C2371 1.429 . S
C2375 C2376 1.523 . S
C2376 C2360 1.368 . S
C2376 C2372 1.368 . S
C2376 C2375 1.523 . S
H2377 C2352 0.950 . S
H2378 C2354 0.950 . S
H2379 C2355 0.949 . S
H2380 C2357 0.950 . S
H2381 C2359 0.950 . S
C2382 C2383 1.349 . S
C2382 C2384 1.327 . S
C2382 H2407 0.950 . S
C2383 C2382 1.349 . S
C2383 C2399 1.349 . S
C2384 C2382 1.327 . S
C2384 C2403 1.429 . S
C2384 H2408 0.950 . S
C2385 C2402 1.574 . S
C2385 C2404 1.368 . S
C2385 H2409 0.949 . S
H2386 C2390 0.949 . S
C2387 C2388 1.349 . S
C2387 C2389 1.327 . S
C2387 H2410 0.950 . S
C2388 C2387 1.349 . S
C2388 C2400 1.349 . S
C2389 C2387 1.327 . S
C2389 C2405 1.429 . S
C2389 H2411 0.950 . S
C2390 H2386 0.949 . S
C2390 C2398 1.574 . S
C2390 C2406 1.368 . S
H2391 C2399 0.950 . S
H2392 C2397 0.950 . S
H2393 C2398 0.949 . S
H2394 C2400 0.950 . S
H2395 C2401 0.950 . S
H2396 C2402 0.949 . S
C2397 H2392 0.950 . S
C2397 C2399 1.327 . S
C2397 C2403 1.429 . S
C2398 C2390 1.574 . S
C2398 H2393 0.949 . S
C2398 C2404 1.368 . S
C2399 C2383 1.349 . S
C2399 H2391 0.950 . S
C2399 C2397 1.327 . S
C2400 C2388 1.349 . S
C2400 H2394 0.950 . S
C2400 C2401 1.327 . S
C2401 H2395 0.950 . S
C2401 C2400 1.327 . S
C2401 C2405 1.429 . S
C2402 C2385 1.574 . S
C2402 H2396 0.949 . S
C2402 C2406 1.368 . S
C2403 C2384 1.429 . S
C2403 C2397 1.429 . S
C2403 C2404 1.523 . S
C2404 C2385 1.368 . S
C2404 C2398 1.368 . S
C2404 C2403 1.523 . S
C2405 C2389 1.429 . S
C2405 C2401 1.429 . S
C2405 C2406 1.523 . S
C2406 C2390 1.368 . S
C2406 C2402 1.368 . S
C2406 C2405 1.523 . S
H2407 C2382 0.950 . S
H2408 C2384 0.950 . S
H2409 C2385 0.949 . S
H2410 C2387 0.950 . S
H2411 C2389 0.950 . S
C2412 C2413 1.349 . S
C2412 C2414 1.327 . S
C2412 H2437 0.950 . S
C2413 C2412 1.349 . S
C2413 C2429 1.349 1_565 S
C2414 C2412 1.327 . S
C2414 C2433 1.429 . S
C2414 H2438 0.950 . S
C2415 C2432 1.574 1_545 S
C2415 C2434 1.368 1_545 S
C2415 H2439 0.949 . S
H2416 C2420 0.949 . S
C2417 C2418 1.349 . S
C2417 C2419 1.327 . S
C2417 H2440 0.950 . S
C2418 C2417 1.349 . S
C2418 C2430 1.349 . S
C2419 C2417 1.327 . S
C2419 C2435 1.429 . S
C2419 H2441 0.950 1_565 S
C2420 H2416 0.949 . S
C2420 C2428 1.574 . S
C2420 C2436 1.368 . S
H2421 C2429 0.950 . S
H2422 C2427 0.950 . S
H2423 C2428 0.949 . S
H2424 C2430 0.950 . S
H2425 C2431 0.950 . S
H2426 C2432 0.930 1_545 S
C2427 H2422 0.950 . S
C2427 C2429 1.327 . S
C2427 C2433 1.429 1_545 S
C2428 C2420 1.574 . S
C2428 H2423 0.949 . S
C2428 C2434 1.368 . S
C2429 C2413 1.349 1_545 S
C2429 H2421 0.950 . S
C2429 C2427 1.327 . S
C2430 C2418 1.349 . S
C2430 H2424 0.950 . S
C2430 C2431 1.327 . S
C2431 H2425 0.950 . S
C2431 C2430 1.327 . S
C2431 C2435 1.429 . S
C2432 C2415 1.574 1_565 S
C2432 H2426 0.930 1_565 S
C2432 C2436 1.391 . S
C2433 C2414 1.429 . S
C2433 C2427 1.429 1_565 S
C2433 C2434 1.523 . S
C2434 C2415 1.368 1_565 S
C2434 C2428 1.368 . S
C2434 C2433 1.523 . S
C2435 C2419 1.429 . S
C2435 C2431 1.429 . S
C2435 C2436 1.523 . S
C2436 C2420 1.368 . S
C2436 C2432 1.391 . S
C2436 C2435 1.523 . S
H2437 C2412 0.950 . S
H2438 C2414 0.950 . S
H2439 C2415 0.949 . S
H2440 C2417 0.950 . S
H2441 C2419 0.950 1_545 S
C2442 C2443 1.349 . S
C2442 C2444 1.327 . S
C2442 H2467 0.950 . S
C2443 C2442 1.349 . S
C2443 C2459 1.349 1_545 S
C2444 C2442 1.327 . S
C2444 C2463 1.429 . S
C2444 H2468 0.950 . S
C2445 C2462 1.582 . S
C2445 C2464 1.418 . S
C2445 H2469 0.898 1_545 S
H2446 C2450 0.949 . S
C2447 C2448 1.349 . S
C2447 C2449 1.327 . S
C2447 H2470 0.950 . S
C2448 C2447 1.349 . S
C2448 C2460 1.349 . S
C2449 C2447 1.327 . S
C2449 C2465 1.429 . S
C2449 H2471 0.950 . S
C2450 H2446 0.949 . S
C2450 C2458 1.574 . S
C2450 C2466 1.368 . S
H2451 C2459 0.950 . S
H2452 C2457 0.950 . S
H2453 C2458 0.949 . S
H2454 C2460 0.950 . S
H2455 C2461 0.950 . S
H2456 C2462 0.949 1_565 S
C2457 H2452 0.950 . S
C2457 C2459 1.327 . S
C2457 C2463 1.429 1_565 S
C2458 C2450 1.574 . S
C2458 H2453 0.949 . S
C2458 C2464 1.368 . S
C2459 C2443 1.349 1_565 S
C2459 H2451 0.950 . S
C2459 C2457 1.327 . S
C2460 C2448 1.349 . S
C2460 H2454 0.950 . S
C2460 C2461 1.327 . S
C2461 H2455 0.950 . S
C2461 C2460 1.327 . S
C2461 C2465 1.429 . S
C2462 C2445 1.582 . S
C2462 H2456 0.949 1_545 S
C2462 C2466 1.368 . S
C2463 C2444 1.429 . S
C2463 C2457 1.429 1_545 S
C2463 C2464 1.523 . S
C2464 C2445 1.418 . S
C2464 C2458 1.368 . S
C2464 C2463 1.523 . S
C2465 C2449 1.429 . S
C2465 C2461 1.429 . S
C2465 C2466 1.523 . S
C2466 C2450 1.368 . S
C2466 C2462 1.368 . S
C2466 C2465 1.523 . S
H2467 C2442 0.950 . S
H2468 C2444 0.950 . S
H2469 C2445 0.898 1_565 S
H2470 C2447 0.950 . S
H2471 C2449 0.950 . S
C2472 C2473 1.349 . S
C2472 C2474 1.327 . S
C2472 H2497 0.950 . S
C2473 C2472 1.349 . S
C2473 C2489 1.349 . S
C2474 C2472 1.327 . S
C2474 C2493 1.429 . S
C2474 H2498 0.950 . S
C2475 C2492 1.574 . S
C2475 C2494 1.368 . S
C2475 H2499 0.949 . S
H2476 C2480 0.949 . S
C2477 C2478 1.349 . S
C2477 C2479 1.327 . S
C2477 H2500 0.950 . S
C2478 C2477 1.349 . S
C2478 C2490 1.349 . S
C2479 C2477 1.327 . S
C2479 C2495 1.429 . S
C2479 H2501 0.950 . S
C2480 H2476 0.949 . S
C2480 C2488 1.574 . S
C2480 C2496 1.368 . S
H2481 C2489 0.950 . S
H2482 C2487 0.950 . S
H2483 C2488 0.949 . S
H2484 C2490 0.950 . S
H2485 C2491 0.950 . S
H2486 C2492 0.949 . S
C2487 H2482 0.950 . S
C2487 C2489 1.327 . S
C2487 C2493 1.429 . S
C2488 C2480 1.574 . S
C2488 H2483 0.949 . S
C2488 C2494 1.368 . S
C2489 C2473 1.349 . S
C2489 H2481 0.950 . S
C2489 C2487 1.327 . S
C2490 C2478 1.349 . S
C2490 H2484 0.950 . S
C2490 C2491 1.327 . S
C2491 H2485 0.950 . S
C2491 C2490 1.327 . S
C2491 C2495 1.429 . S
C2492 C2475 1.574 . S
C2492 H2486 0.949 . S
C2492 C2496 1.368 . S
C2493 C2474 1.429 . S
C2493 C2487 1.429 . S
C2493 C2494 1.523 . S
C2494 C2475 1.368 . S
C2494 C2488 1.368 . S
C2494 C2493 1.523 . S
C2495 C2479 1.429 . S
C2495 C2491 1.429 . S
C2495 C2496 1.523 . S
C2496 C2480 1.368 . S
C2496 C2492 1.368 . S
C2496 C2495 1.523 . S
H2497 C2472 0.950 . S
H2498 C2474 0.950 . S
H2499 C2475 0.949 . S
H2500 C2477 0.950 . S
H2501 C2479 0.950 . S
C2502 C2503 1.349 1_556 S
C2502 C2504 1.327 . S
C2502 H2527 0.950 . S
C2503 C2502 1.349 1_554 S
C2503 C2519 1.349 . S
C2504 C2502 1.327 . S
C2504 C2523 1.429 1_556 S
C2504 H2528 0.950 . S
C2505 C2522 1.574 . S
C2505 C2524 1.368 . S
C2505 H2529 0.949 . S
H2506 C2510 0.949 . S
C2507 C2508 1.349 . S
C2507 C2509 1.327 . S
C2507 H2530 0.950 . S
C2508 C2507 1.349 . S
C2508 C2520 1.349 . S
C2509 C2507 1.327 . S
C2509 C2525 1.429 . S
C2509 H2531 0.950 . S
C2510 H2506 0.949 . S
C2510 C2518 1.574 . S
C2510 C2526 1.368 . S
H2511 C2519 0.950 . S
H2512 C2517 0.950 . S
H2513 C2518 0.949 1_556 S
H2514 C2520 0.950 . S
H2515 C2521 0.950 . S
H2516 C2522 0.949 . S
C2517 H2512 0.950 . S
C2517 C2519 1.327 . S
C2517 C2523 1.429 . S
C2518 C2510 1.574 . S
C2518 H2513 0.949 1_554 S
C2518 C2524 1.368 . S
C2519 C2503 1.349 . S
C2519 H2511 0.950 . S
C2519 C2517 1.327 . S
C2520 C2508 1.349 . S
C2520 H2514 0.950 . S
C2520 C2521 1.327 . S
C2521 H2515 0.950 . S
C2521 C2520 1.327 . S
C2521 C2525 1.429 . S
C2522 C2505 1.574 . S
C2522 H2516 0.949 . S
C2522 C2526 1.368 . S
C2523 C2504 1.429 1_554 S
C2523 C2517 1.429 . S
C2523 C2524 1.523 . S
C2524 C2505 1.368 . S
C2524 C2518 1.368 . S
C2524 C2523 1.523 . S
C2525 C2509 1.429 . S
C2525 C2521 1.429 . S
C2525 C2526 1.523 . S
C2526 C2510 1.368 . S
C2526 C2522 1.368 . S
C2526 C2525 1.523 . S
H2527 C2502 0.950 . S
H2528 C2504 0.950 . S
H2529 C2505 0.949 . S
H2530 C2507 0.950 . S
H2531 C2509 0.950 . S
C2532 C2533 1.349 . S
C2532 C2534 1.327 . S
C2532 H2557 0.950 . S
C2533 C2532 1.349 . S
C2533 C2549 1.349 . S
C2534 C2532 1.327 . S
C2534 C2553 1.429 . S
C2534 H2558 0.950 . S
C2535 C2552 1.574 . S
C2535 C2554 1.368 . S
C2535 H2559 0.949 . S
H2536 C2540 0.949 . S
C2537 C2538 1.349 . S
C2537 C2539 1.327 . S
C2537 H2560 0.950 . S
C2538 C2537 1.349 . S
C2538 C2550 1.349 . S
C2539 C2537 1.327 . S
C2539 C2555 1.429 . S
C2539 H2561 0.950 . S
C2540 H2536 0.949 . S
C2540 C2548 1.574 . S
C2540 C2556 1.368 . S
H2541 C2549 0.950 . S
H2542 C2547 0.950 . S
H2543 C2548 0.949 . S
H2544 C2550 0.950 . S
H2545 C2551 0.950 . S
H2546 C2552 0.949 . S
C2547 H2542 0.950 . S
C2547 C2549 1.327 . S
C2547 C2553 1.429 . S
C2548 C2540 1.574 . S
C2548 H2543 0.949 . S
C2548 C2554 1.368 . S
C2549 C2533 1.349 . S
C2549 H2541 0.950 . S
C2549 C2547 1.327 . S
C2550 C2538 1.349 . S
C2550 H2544 0.950 . S
C2550 C2551 1.327 . S
C2551 H2545 0.950 . S
C2551 C2550 1.327 . S
C2551 C2555 1.429 . S
C2552 C2535 1.574 . S
C2552 H2546 0.949 . S
C2552 C2556 1.368 . S
C2553 C2534 1.429 . S
C2553 C2547 1.429 . S
C2553 C2554 1.523 . S
C2554 C2535 1.368 . S
C2554 C2548 1.368 . S
C2554 C2553 1.523 . S
C2555 C2539 1.429 . S
C2555 C2551 1.429 . S
C2555 C2556 1.523 . S
C2556 C2540 1.368 . S
C2556 C2552 1.368 . S
C2556 C2555 1.523 . S
H2557 C2532 0.950 . S
H2558 C2534 0.950 . S
H2559 C2535 0.949 . S
H2560 C2537 0.950 . S
H2561 C2539 0.950 . S
C2562 C2563 1.349 1_554 S
C2562 C2564 1.327 . S
C2562 H2587 0.950 . S
C2563 C2562 1.349 1_556 S
C2563 C2579 1.349 . S
C2564 C2562 1.327 . S
C2564 C2583 1.429 1_554 S
C2564 H2588 0.950 . S
C2565 C2582 1.574 . S
C2565 C2584 1.368 . S
C2565 H2589 0.949 . S
H2566 C2570 0.949 . S
C2567 C2568 1.349 . S
C2567 C2569 1.327 . S
C2567 H2590 0.950 . S
C2568 C2567 1.349 . S
C2568 C2580 1.349 . S
C2569 C2567 1.327 . S
C2569 C2585 1.429 . S
C2569 H2591 0.950 . S
C2570 H2566 0.949 . S
C2570 C2578 1.574 . S
C2570 C2586 1.368 1_554 S
H2571 C2579 0.950 . S
H2572 C2577 0.950 . S
H2573 C2578 0.949 . S
H2574 C2580 0.950 1_554 S
H2575 C2581 0.950 1_554 S
H2576 C2582 0.949 . S
C2577 H2572 0.950 . S
C2577 C2579 1.327 . S
C2577 C2583 1.429 . S
C2578 C2570 1.574 . S
C2578 H2573 0.949 . S
C2578 C2584 1.368 1_554 S
C2579 C2563 1.349 . S
C2579 H2571 0.950 . S
C2579 C2577 1.327 . S
C2580 C2568 1.349 . S
C2580 H2574 0.950 1_556 S
C2580 C2581 1.327 . S
C2581 H2575 0.950 1_556 S
C2581 C2580 1.327 . S
C2581 C2585 1.429 . S
C2582 C2565 1.574 . S
C2582 H2576 0.949 . S
C2582 C2586 1.368 . S
C2583 C2564 1.429 1_556 S
C2583 C2577 1.429 . S
C2583 C2584 1.523 . S
C2584 C2565 1.368 . S
C2584 C2578 1.368 1_556 S
C2584 C2583 1.523 . S
C2585 C2569 1.429 . S
C2585 C2581 1.429 . S
C2585 C2586 1.523 . S
C2586 C2570 1.368 1_556 S
C2586 C2582 1.368 . S
C2586 C2585 1.523 . S
H2587 C2562 0.950 . S
H2588 C2564 0.950 . S
H2589 C2565 0.949 . S
H2590 C2567 0.950 . S
H2591 C2569 0.950 . S
C2592 C2593 1.349 . S
C2592 C2594 1.327 . S
C2592 H2617 0.950 . S
C2593 C2592 1.349 . S
C2593 C2609 1.349 . S
C2594 C2592 1.327 . S
C2594 C2613 1.429 . S
C2594 H2618 0.950 . S
C2595 C2612 1.574 . S
C2595 C2614 1.368 . S
C2595 H2619 0.949 . S
H2596 C2600 0.949 . S
C2597 C2598 1.349 . S
C2597 C2599 1.327 . S
C2597 H2620 0.950 . S
C2598 C2597 1.349 . S
C2598 C2610 1.349 . S
C2599 C2597 1.327 . S
C2599 C2615 1.429 . S
C2599 H2621 0.950 . S
C2600 H2596 0.949 . S
C2600 C2608 1.574 . S
C2600 C2616 1.368 . S
H2601 C2609 0.950 . S
H2602 C2607 0.950 . S
H2603 C2608 0.949 . S
H2604 C2610 0.950 . S
H2605 C2611 0.950 . S
H2606 C2612 0.949 . S
C2607 H2602 0.950 . S
C2607 C2609 1.327 . S
C2607 C2613 1.429 . S
C2608 C2600 1.574 . S
C2608 H2603 0.949 . S
C2608 C2614 1.368 . S
C2609 C2593 1.349 . S
C2609 H2601 0.950 . S
C2609 C2607 1.327 . S
C2610 C2598 1.349 . S
C2610 H2604 0.950 . S
C2610 C2611 1.327 . S
C2611 H2605 0.950 . S
C2611 C2610 1.327 . S
C2611 C2615 1.429 . S
C2612 C2595 1.574 . S
C2612 H2606 0.949 . S
C2612 C2616 1.368 . S
C2613 C2594 1.429 . S
C2613 C2607 1.429 . S
C2613 C2614 1.523 . S
C2614 C2595 1.368 . S
C2614 C2608 1.368 . S
C2614 C2613 1.523 . S
C2615 C2599 1.429 . S
C2615 C2611 1.429 . S
C2615 C2616 1.523 . S
C2616 C2600 1.368 . S
C2616 C2612 1.368 . S
C2616 C2615 1.523 . S
H2617 C2592 0.950 . S
H2618 C2594 0.950 . S
H2619 C2595 0.949 . S
H2620 C2597 0.950 . S
H2621 C2599 0.950 . S
C2622 C2623 1.349 . S
C2622 C2624 1.327 . S
C2622 H2647 0.950 . S
C2623 C2622 1.349 . S
C2623 C2639 1.349 1_455 S
C2624 C2622 1.327 . S
C2624 C2643 1.429 . S
C2624 H2648 0.950 . S
C2625 C2642 1.574 . S
C2625 C2644 1.368 . S
C2625 H2649 0.949 . S
H2626 C2630 0.949 . S
C2627 C2628 1.349 . S
C2627 C2629 1.327 . S
C2627 H2650 0.950 . S
C2628 C2627 1.349 . S
C2628 C2640 1.349 . S
C2629 C2627 1.327 . S
C2629 C2645 1.429 . S
C2629 H2651 0.950 . S
C2630 H2626 0.949 . S
C2630 C2638 1.574 . S
C2630 C2646 1.368 . S
H2631 C2639 0.950 . S
H2632 C2637 0.929 1_655 S
H2633 C2638 0.949 . S
H2634 C2640 0.950 . S
H2635 C2641 0.950 . S
H2636 C2642 0.949 . S
C2637 H2632 0.929 1_455 S
C2637 C2639 1.323 1_455 S
C2637 C2643 1.455 . S
C2638 C2630 1.574 . S
C2638 H2633 0.949 . S
C2638 C2644 1.368 . S
C2639 C2623 1.349 1_655 S
C2639 H2631 0.950 . S
C2639 C2637 1.323 1_655 S
C2640 C2628 1.349 . S
C2640 H2634 0.950 . S
C2640 C2641 1.327 . S
C2641 H2635 0.950 . S
C2641 C2640 1.327 . S
C2641 C2645 1.429 . S
C2642 C2625 1.574 . S
C2642 H2636 0.949 . S
C2642 C2646 1.368 . S
C2643 C2624 1.429 . S
C2643 C2637 1.455 . S
C2643 C2644 1.523 . S
C2644 C2625 1.368 . S
C2644 C2638 1.368 . S
C2644 C2643 1.523 . S
C2645 C2629 1.429 . S
C2645 C2641 1.429 . S
C2645 C2646 1.523 . S
C2646 C2630 1.368 . S
C2646 C2642 1.368 . S
C2646 C2645 1.523 . S
H2647 C2622 0.950 . S
H2648 C2624 0.950 . S
H2649 C2625 0.949 . S
H2650 C2627 0.950 . S
H2651 C2629 0.950 . S
C2652 C2653 1.349 . S
C2652 C2654 1.327 . S
C2652 H2677 0.950 . S
C2653 C2652 1.349 . S
C2653 C2669 1.349 . S
C2654 C2652 1.327 . S
C2654 C2673 1.429 . S
C2654 H2678 0.950 . S
C2655 C2672 1.574 . S
C2655 C2674 1.368 . S
C2655 H2679 0.949 . S
H2656 C2660 0.949 . S
C2657 C2658 1.349 . S
C2657 C2659 1.327 . S
C2657 H2680 0.950 . S
C2658 C2657 1.349 . S
C2658 C2670 1.349 . S
C2659 C2657 1.327 . S
C2659 C2675 1.429 . S
C2659 H2681 0.950 . S
C2660 H2656 0.949 . S
C2660 C2668 1.574 . S
C2660 C2676 1.368 . S
H2661 C2669 0.950 . S
H2662 C2667 0.950 . S
H2663 C2668 0.949 . S
H2664 C2670 0.950 . S
H2665 C2671 0.950 . S
H2666 C2672 0.949 . S
C2667 H2662 0.950 . S
C2667 C2669 1.327 . S
C2667 C2673 1.429 . S
C2668 C2660 1.574 . S
C2668 H2663 0.949 . S
C2668 C2674 1.368 . S
C2669 C2653 1.349 . S
C2669 H2661 0.950 . S
C2669 C2667 1.327 . S
C2670 C2658 1.349 . S
C2670 H2664 0.950 . S
C2670 C2671 1.327 . S
C2671 H2665 0.950 . S
C2671 C2670 1.327 . S
C2671 C2675 1.429 . S
C2672 C2655 1.574 . S
C2672 H2666 0.949 . S
C2672 C2676 1.368 . S
C2673 C2654 1.429 . S
C2673 C2667 1.429 . S
C2673 C2674 1.523 . S
C2674 C2655 1.368 . S
C2674 C2668 1.368 . S
C2674 C2673 1.523 . S
C2675 C2659 1.429 . S
C2675 C2671 1.429 . S
C2675 C2676 1.523 . S
C2676 C2660 1.368 . S
C2676 C2672 1.368 . S
C2676 C2675 1.523 . S
H2677 C2652 0.950 . S
H2678 C2654 0.950 . S
H2679 C2655 0.949 . S
H2680 C2657 0.950 . S
H2681 C2659 0.950 . S
C2682 C2683 1.349 . S
C2682 C2684 1.327 . S
C2682 H2707 0.950 . S
C2683 C2682 1.349 . S
C2683 C2699 1.349 1_655 S
C2684 C2682 1.327 . S
C2684 C2703 1.429 . S
C2684 H2708 0.950 . S
C2685 C2702 1.574 1_455 S
C2685 C2704 1.343 1_455 S
C2685 H2709 0.974 . S
H2686 C2690 0.949 . S
C2687 C2688 1.349 . S
C2687 C2689 1.327 . S
C2687 H2710 0.950 . S
C2688 C2687 1.349 . S
C2688 C2700 1.349 . S
C2689 C2687 1.327 . S
C2689 C2705 1.429 . S
C2689 H2711 0.950 1_655 S
C2690 H2686 0.949 . S
C2690 C2698 1.574 . S
C2690 C2706 1.368 . S
H2691 C2699 0.950 . S
H2692 C2697 0.950 . S
H2693 C2698 0.949 . S
H2694 C2700 0.950 . S
H2695 C2701 0.950 . S
H2696 C2702 0.949 1_455 S
C2697 H2692 0.950 . S
C2697 C2699 1.327 . S
C2697 C2703 1.429 1_455 S
C2698 C2690 1.574 . S
C2698 H2693 0.949 . S
C2698 C2704 1.368 . S
C2699 C2683 1.349 1_455 S
C2699 H2691 0.950 . S
C2699 C2697 1.327 . S
C2700 C2688 1.349 . S
C2700 H2694 0.950 . S
C2700 C2701 1.327 . S
C2701 H2695 0.950 . S
C2701 C2700 1.327 . S
C2701 C2705 1.429 . S
C2702 C2685 1.574 1_655 S
C2702 H2696 0.949 1_655 S
C2702 C2706 1.368 . S
C2703 C2684 1.429 . S
C2703 C2697 1.429 1_655 S
C2703 C2704 1.523 . S
C2704 C2685 1.343 1_655 S
C2704 C2698 1.368 . S
C2704 C2703 1.523 . S
C2705 C2689 1.429 . S
C2705 C2701 1.429 . S
C2705 C2706 1.523 . S
C2706 C2690 1.368 . S
C2706 C2702 1.368 . S
C2706 C2705 1.523 . S
H2707 C2682 0.950 . S
H2708 C2684 0.950 . S
H2709 C2685 0.974 . S
H2710 C2687 0.950 . S
H2711 C2689 0.950 1_455 S
C558 C546 1.580 . S
C553 C8 1.597 . S
C588 C510 1.383 . S
C583 C19 1.388 . S
C618 C534 1.102 . S
C613 C30 1.120 . S
C648 C522 1.576 . S
C643 C41 1.558 1_565 S
C678 C438 1.580 . S
C673 C52 1.597 . S
C703 C63 1.558 1_556 S
C708 C450 1.573 . S
C738 C414 1.383 . S
C733 C74 1.388 . S
C763 C85 1.122 . S
C768 C426 1.098 . S
C798 C498 1.580 . S
C793 C96 1.597 . S
C823 C107 1.558 1_655 S
C828 C474 1.573 . S
C853 C118 1.388 . S
C858 C462 1.383 . S
C888 C486 1.102 . S
C883 C129 1.120 . S
C918 C402 1.584 . S
C913 C140 1.572 . S
C943 C151 1.339 . S
C948 C366 1.384 . S
C978 C390 1.104 . S
C973 C162 1.108 . S
C1003 C173 1.536 . S
C1008 C378 1.568 . S
C1038 C294 1.584 . S
C1033 C184 1.572 . S
C1068 C306 1.571 . S
C1063 C195 1.537 . S
C1093 C206 1.340 . S
C1098 C270 1.385 . S
C1123 C217 1.108 . S
C1128 C282 1.100 . S
C1153 C228 1.572 . S
C1158 C354 1.583 . S
C1183 C239 1.536 . S
C1188 C330 1.568 . S
C1218 C318 1.385 . S
C1213 C250 1.340 . S
C1243 C261 1.108 . S
C1248 C342 1.100 . S
C1278 C273 1.406 . S
C1273 C7 1.417 . S
C1308 C285 1.306 . S
C1303 C18 1.338 . S
C1333 C29 1.209 . S
C1338 C297 1.218 1_545 S
C1363 C40 1.041 1_565 S
C1368 C309 1.047 . S
C1398 C321 1.406 . S
C1393 C51 1.417 . S
C1423 C62 1.041 1_556 S
C1428 C333 1.047 . S
C1458 C345 1.306 . S
C1453 C73 1.338 . S
C1488 C357 1.218 1_554 S
C1483 C84 1.207 . S
C1518 C369 1.406 . S
C1513 C95 1.417 . S
C1543 C106 1.041 1_655 S
C1548 C381 1.047 . S
C1573 C117 1.338 . S
C1578 C393 1.306 . S
C1603 C128 1.209 . S
C1608 C405 1.218 1_455 S
C1633 C139 1.371 . S
C1638 C417 1.404 . S
C1663 C150 1.248 . S
C1668 C429 1.304 . S
C1693 C161 1.186 . S
C1698 C441 1.216 1_565 S
C1723 C172 1.010 . S
C1728 C453 1.047 . S
C1753 C183 1.371 . S
C1758 C465 1.404 . S
C1788 C477 1.047 . S
C1783 C194 1.013 . S
C1818 C489 1.304 . S
C1813 C205 1.248 . S
C1848 C501 1.216 1_556 S
C1843 C216 1.188 . S
C1878 C513 1.404 . S
C1873 C227 1.371 . S
C1903 C238 1.010 . S
C1908 C525 1.047 . S
C1933 C249 1.248 . S
C1938 C537 1.304 . S
C1963 C260 1.186 . S
C1968 C549 1.216 1_655 S
C1993 C5 1.342 . S
C1998 C364 1.499 . S
C2028 C400 1.504 . S
C2023 C16 1.401 . S
C2053 C27 1.220 1_545 S
C2058 C376 1.336 . S
C2088 C388 1.565 . S
C2083 C38 1.372 1_565 S
C2113 C49 1.342 . S
C2118 C268 1.499 . S
C2143 C60 1.376 1_556 S
C2148 C280 1.563 . S
C2173 C71 1.401 . S
C2178 C292 1.504 . S
C2203 C82 1.220 1_554 S
C2208 C304 1.336 . S
C2238 C316 1.499 . S
C2233 C93 1.342 . S
C2268 C340 1.565 . S
C2263 C104 1.372 1_655 S
C2293 C115 1.401 . S
C2298 C352 1.504 . S
C2323 C126 1.220 1_455 S
C2328 C328 1.336 . S
C2358 C508 1.503 . S
C2353 C137 1.252 . S
C2388 C544 1.508 . S
C2383 C148 1.203 . S
C2413 C159 1.154 . S
C2418 C520 1.336 . S
C2448 C532 1.572 . S
C2443 C170 1.230 . S
C2473 C181 1.251 . S
C2478 C412 1.503 . S
C2503 C192 1.227 . S
C2508 C424 1.570 . S
C2533 C203 1.203 . S
C2538 C436 1.508 . S
C2568 C448 1.339 . S
C2563 C214 1.158 . S
C2598 C460 1.503 . S
C2593 C225 1.252 . S
C2628 C484 1.572 . S
C2623 C236 1.230 . S
C2653 C247 1.202 . S
C2658 C496 1.508 . S
C2688 C472 1.339 . S
C2683 C258 1.158 . S
