# Generated by pormake.
# Topology llk, (3,12)-cn, num edge types: 1
# Building blocks:
#     Node 0, Type 0, BuildingBlock: BETDIP_clean_linker_0, # of connection points: 3
#     Node 1, Type 0, BuildingBlock: BETDIP_clean_linker_0, # of connection points: 3
#     Node 2, Type 0, BuildingBlock: BETDIP_clean_linker_0, # of connection points: 3
#     Node 3, Type 0, BuildingBlock: BETDIP_clean_linker_0, # of connection points: 3
#     Node 4, Type 0, BuildingBlock: BETDIP_clean_linker_0, # of connection points: 3
#     Node 5, Type 0, BuildingBlock: BETDIP_clean_linker_0, # of connection points: 3
#     Node 6, Type 0, BuildingBlock: BETDIP_clean_linker_0, # of connection points: 3
#     Node 7, Type 0, BuildingBlock: BETDIP_clean_linker_0, # of connection points: 3
#     Node 8, Type 0, BuildingBlock: BETDIP_clean_linker_0, # of connection points: 3
#     Node 9, Type 0, BuildingBlock: BETDIP_clean_linker_0, # of connection points: 3
#     Node 10, Type 0, BuildingBlock: BETDIP_clean_linker_0, # of connection points: 3
#     Node 11, Type 0, BuildingBlock: BETDIP_clean_linker_0, # of connection points: 3
#     Node 12, Type 0, BuildingBlock: BETDIP_clean_linker_0, # of connection points: 3
#     Node 13, Type 0, BuildingBlock: BETDIP_clean_linker_0, # of connection points: 3
#     Node 14, Type 0, BuildingBlock: BETDIP_clean_linker_0, # of connection points: 3
#     Node 15, Type 0, BuildingBlock: BETDIP_clean_linker_0, # of connection points: 3
#     Node 16, Type 0, BuildingBlock: BETDIP_clean_linker_0, # of connection points: 3
#     Node 17, Type 0, BuildingBlock: BETDIP_clean_linker_0, # of connection points: 3
#     Node 18, Type 0, BuildingBlock: BETDIP_clean_linker_0, # of connection points: 3
#     Node 19, Type 0, BuildingBlock: BETDIP_clean_linker_0, # of connection points: 3
#     Node 20, Type 0, BuildingBlock: BETDIP_clean_linker_0, # of connection points: 3
#     Node 21, Type 0, BuildingBlock: BETDIP_clean_linker_0, # of connection points: 3
#     Node 22, Type 0, BuildingBlock: BETDIP_clean_linker_0, # of connection points: 3
#     Node 23, Type 0, BuildingBlock: BETDIP_clean_linker_0, # of connection points: 3
#     Node 24, Type 1, BuildingBlock: QEWDON_clean_sbu_0, # of connection points: 12
#     Node 25, Type 1, BuildingBlock: QEWDON_clean_sbu_0, # of connection points: 12
#     Node 26, Type 1, BuildingBlock: QEWDON_clean_sbu_0, # of connection points: 12
#     Node 27, Type 1, BuildingBlock: QEWDON_clean_sbu_0, # of connection points: 12
#     Node 28, Type 1, BuildingBlock: QEWDON_clean_sbu_0, # of connection points: 12
#     Node 29, Type 1, BuildingBlock: QEWDON_clean_sbu_0, # of connection points: 12
#     Edge 30, Type (0, 1), BuildingBlock: TEMPAE_clean_linker_10, # of connection points: 2
#     Edge 31, Type (0, 1), BuildingBlock: TEMPAE_clean_linker_10, # of connection points: 2
#     Edge 32, Type (0, 1), BuildingBlock: TEMPAE_clean_linker_10, # of connection points: 2
#     Edge 33, Type (0, 1), BuildingBlock: TEMPAE_clean_linker_10, # of connection points: 2
#     Edge 34, Type (0, 1), BuildingBlock: TEMPAE_clean_linker_10, # of connection points: 2
#     Edge 35, Type (0, 1), BuildingBlock: TEMPAE_clean_linker_10, # of connection points: 2
#     Edge 36, Type (0, 1), BuildingBlock: TEMPAE_clean_linker_10, # of connection points: 2
#     Edge 37, Type (0, 1), BuildingBlock: TEMPAE_clean_linker_10, # of connection points: 2
#     Edge 38, Type (0, 1), BuildingBlock: TEMPAE_clean_linker_10, # of connection points: 2
#     Edge 39, Type (0, 1), BuildingBlock: TEMPAE_clean_linker_10, # of connection points: 2
#     Edge 40, Type (0, 1), BuildingBlock: TEMPAE_clean_linker_10, # of connection points: 2
#     Edge 41, Type (0, 1), BuildingBlock: TEMPAE_clean_linker_10, # of connection points: 2
#     Edge 42, Type (0, 1), BuildingBlock: TEMPAE_clean_linker_10, # of connection points: 2
#     Edge 43, Type (0, 1), BuildingBlock: TEMPAE_clean_linker_10, # of connection points: 2
#     Edge 44, Type (0, 1), BuildingBlock: TEMPAE_clean_linker_10, # of connection points: 2
#     Edge 45, Type (0, 1), BuildingBlock: TEMPAE_clean_linker_10, # of connection points: 2
#     Edge 46, Type (0, 1), BuildingBlock: TEMPAE_clean_linker_10, # of connection points: 2
#     Edge 47, Type (0, 1), BuildingBlock: TEMPAE_clean_linker_10, # of connection points: 2
#     Edge 48, Type (0, 1), BuildingBlock: TEMPAE_clean_linker_10, # of connection points: 2
#     Edge 49, Type (0, 1), BuildingBlock: TEMPAE_clean_linker_10, # of connection points: 2
#     Edge 50, Type (0, 1), BuildingBlock: TEMPAE_clean_linker_10, # of connection points: 2
#     Edge 51, Type (0, 1), BuildingBlock: TEMPAE_clean_linker_10, # of connection points: 2
#     Edge 52, Type (0, 1), BuildingBlock: TEMPAE_clean_linker_10, # of connection points: 2
#     Edge 53, Type (0, 1), BuildingBlock: TEMPAE_clean_linker_10, # of connection points: 2
#     Edge 54, Type (0, 1), BuildingBlock: TEMPAE_clean_linker_10, # of connection points: 2
#     Edge 55, Type (0, 1), BuildingBlock: TEMPAE_clean_linker_10, # of connection points: 2
#     Edge 56, Type (0, 1), BuildingBlock: TEMPAE_clean_linker_10, # of connection points: 2
#     Edge 57, Type (0, 1), BuildingBlock: TEMPAE_clean_linker_10, # of connection points: 2
#     Edge 58, Type (0, 1), BuildingBlock: TEMPAE_clean_linker_10, # of connection points: 2
#     Edge 59, Type (0, 1), BuildingBlock: TEMPAE_clean_linker_10, # of connection points: 2
#     Edge 60, Type (0, 1), BuildingBlock: TEMPAE_clean_linker_10, # of connection points: 2
#     Edge 61, Type (0, 1), BuildingBlock: TEMPAE_clean_linker_10, # of connection points: 2
#     Edge 62, Type (0, 1), BuildingBlock: TEMPAE_clean_linker_10, # of connection points: 2
#     Edge 63, Type (0, 1), BuildingBlock: TEMPAE_clean_linker_10, # of connection points: 2
#     Edge 64, Type (0, 1), BuildingBlock: TEMPAE_clean_linker_10, # of connection points: 2
#     Edge 65, Type (0, 1), BuildingBlock: TEMPAE_clean_linker_10, # of connection points: 2
#     Edge 66, Type (0, 1), BuildingBlock: TEMPAE_clean_linker_10, # of connection points: 2
#     Edge 67, Type (0, 1), BuildingBlock: TEMPAE_clean_linker_10, # of connection points: 2
#     Edge 68, Type (0, 1), BuildingBlock: TEMPAE_clean_linker_10, # of connection points: 2
#     Edge 69, Type (0, 1), BuildingBlock: TEMPAE_clean_linker_10, # of connection points: 2
#     Edge 70, Type (0, 1), BuildingBlock: TEMPAE_clean_linker_10, # of connection points: 2
#     Edge 71, Type (0, 1), BuildingBlock: TEMPAE_clean_linker_10, # of connection points: 2
#     Edge 72, Type (0, 1), BuildingBlock: TEMPAE_clean_linker_10, # of connection points: 2
#     Edge 73, Type (0, 1), BuildingBlock: TEMPAE_clean_linker_10, # of connection points: 2
#     Edge 74, Type (0, 1), BuildingBlock: TEMPAE_clean_linker_10, # of connection points: 2
#     Edge 75, Type (0, 1), BuildingBlock: TEMPAE_clean_linker_10, # of connection points: 2
#     Edge 76, Type (0, 1), BuildingBlock: TEMPAE_clean_linker_10, # of connection points: 2
#     Edge 77, Type (0, 1), BuildingBlock: TEMPAE_clean_linker_10, # of connection points: 2
#     Edge 78, Type (0, 1), BuildingBlock: TEMPAE_clean_linker_10, # of connection points: 2
#     Edge 79, Type (0, 1), BuildingBlock: TEMPAE_clean_linker_10, # of connection points: 2
#     Edge 80, Type (0, 1), BuildingBlock: TEMPAE_clean_linker_10, # of connection points: 2
#     Edge 81, Type (0, 1), BuildingBlock: TEMPAE_clean_linker_10, # of connection points: 2
#     Edge 82, Type (0, 1), BuildingBlock: TEMPAE_clean_linker_10, # of connection points: 2
#     Edge 83, Type (0, 1), BuildingBlock: TEMPAE_clean_linker_10, # of connection points: 2
#     Edge 84, Type (0, 1), BuildingBlock: TEMPAE_clean_linker_10, # of connection points: 2
#     Edge 85, Type (0, 1), BuildingBlock: TEMPAE_clean_linker_10, # of connection points: 2
#     Edge 86, Type (0, 1), BuildingBlock: TEMPAE_clean_linker_10, # of connection points: 2
#     Edge 87, Type (0, 1), BuildingBlock: TEMPAE_clean_linker_10, # of connection points: 2
#     Edge 88, Type (0, 1), BuildingBlock: TEMPAE_clean_linker_10, # of connection points: 2
#     Edge 89, Type (0, 1), BuildingBlock: TEMPAE_clean_linker_10, # of connection points: 2
#     Edge 90, Type (0, 1), BuildingBlock: TEMPAE_clean_linker_10, # of connection points: 2
#     Edge 91, Type (0, 1), BuildingBlock: TEMPAE_clean_linker_10, # of connection points: 2
#     Edge 92, Type (0, 1), BuildingBlock: TEMPAE_clean_linker_10, # of connection points: 2
#     Edge 93, Type (0, 1), BuildingBlock: TEMPAE_clean_linker_10, # of connection points: 2
#     Edge 94, Type (0, 1), BuildingBlock: TEMPAE_clean_linker_10, # of connection points: 2
#     Edge 95, Type (0, 1), BuildingBlock: TEMPAE_clean_linker_10, # of connection points: 2
#     Edge 96, Type (0, 1), BuildingBlock: TEMPAE_clean_linker_10, # of connection points: 2
#     Edge 97, Type (0, 1), BuildingBlock: TEMPAE_clean_linker_10, # of connection points: 2
#     Edge 98, Type (0, 1), BuildingBlock: TEMPAE_clean_linker_10, # of connection points: 2
#     Edge 99, Type (0, 1), BuildingBlock: TEMPAE_clean_linker_10, # of connection points: 2
#     Edge 100, Type (0, 1), BuildingBlock: TEMPAE_clean_linker_10, # of connection points: 2
#     Edge 101, Type (0, 1), BuildingBlock: TEMPAE_clean_linker_10, # of connection points: 2
# Relax obj value: 0.098
# Max RMSD: 0.183
# Mean RMSD: 0.146
data_MOF--net-llk--node1-QEWDON_clean_sbu_0--node2-BETDIP_clean_linker_0--edge1-TEMPAE_clean_linker_10
_symmetry_space_group_name_H-M    P1
_symmetry_Int_Tables_number       1
_symmetry_cell_setting            triclinic
loop_
_symmetry_equiv_pos_as_xyz
'x, y, z'
_cell_length_a     46.241348
_cell_length_b     48.395508
_cell_length_c     48.059384
_cell_angle_alpha  90.133015
_cell_angle_beta   90.044375
_cell_angle_gamma 89.611812
loop_
_atom_site_label
_atom_site_type_symbol
_atom_site_fract_x
_atom_site_fract_y
_atom_site_fract_z
_atom_type_partial_charge
H0 H 0.03164 0.26348 0.22043 0.0
H1 H 0.04413 0.27571 0.30821 0.0
H2 H 0.02507 0.34509 0.25499 0.0
H3 H 0.08166 0.23678 0.29054 0.0
C4 C 0.06134 0.22601 0.28746 0.0
C5 C 0.03217 0.27714 0.23832 0.0
C6 C 0.02844 0.30572 0.23482 0.0
C7 C 0.03768 0.26632 0.2649 0.0
C8 C 0.03937 0.28425 0.28791 0.0
C9 C 0.03474 0.31284 0.28486 0.0
C10 C 0.02894 0.32321 0.25809 0.0
N11 N 0.04077 0.23733 0.2686 0.0
H12 H 0.80492 0.04602 0.23717 0.0
H13 H 0.71347 0.06077 0.24565 0.0
H14 H 0.76317 0.03306 0.31585 0.0
H15 H 0.75506 0.01574 0.1984 0.0
C16 C 0.74697 0.03624 0.19318 0.0
C17 C 0.78579 0.04707 0.25013 0.0
C18 C 0.78709 0.0389 0.27809 0.0
C19 C 0.75904 0.05492 0.23859 0.0
C20 C 0.73402 0.05522 0.25503 0.0
C21 C 0.73537 0.04751 0.28306 0.0
C22 C 0.76201 0.03967 0.29432 0.0
N23 N 0.75612 0.05883 0.20966 0.0
H24 H 0.01476 0.80265 0.26139 0.0
H25 H 0.03037 0.7153 0.2709 0.0
H26 H 0.02829 0.7679 0.34285 0.0
H27 H 0.06166 0.73298 0.22937 0.0
C28 C 0.04058 0.73623 0.2198 0.0
C29 C 0.01916 0.78497 0.27456 0.0
C30 C 0.02137 0.78834 0.30363 0.0
C31 C 0.02286 0.7586 0.2626 0.0
C32 C 0.02816 0.73576 0.27992 0.0
C33 C 0.03032 0.73901 0.30877 0.0
C34 C 0.02704 0.76533 0.32045 0.0
N35 N 0.02109 0.75474 0.23329 0.0
H36 H 0.223 0.9947 0.23241 0.0
H37 H 0.31225 0.00516 0.25475 0.0
H38 H 0.25024 0.98063 0.31643 0.0
H39 H 0.29071 0.0439 0.21254 0.0
C40 C 0.29387 0.02359 0.20328 0.0
C41 C 0.24007 0.99295 0.24777 0.0
C42 C 0.23331 0.98877 0.27586 0.0
C43 C 0.26895 0.99744 0.24004 0.0
C44 C 0.29057 0.99921 0.26062 0.0
C45 C 0.28381 0.99416 0.28861 0.0
C46 C 0.25573 0.98582 0.29515 0.0
N47 N 0.27606 0.00144 0.21173 0.0
H48 H 0.00116 0.76946 0.79522 0.0
H49 H 0.98646 0.75512 0.70798 0.0
H50 H 0.99165 0.68645 0.76422 0.0
H51 H 0.03581 0.78743 0.72032 0.0
C52 C 0.01798 0.80162 0.72456 0.0
C53 C -0.00332 0.75535 0.77825 0.0
C54 C -0.00337 0.72662 0.78294 0.0
C55 C 0.99321 0.76558 0.75103 0.0
C56 C 0.98841 0.74715 0.72897 0.0
C57 C 0.98784 0.71862 0.73352 0.0
C58 C 0.99175 0.70857 0.76057 0.0
N59 N -0.00267 0.794 0.74504 0.0
H60 H 0.22406 0.007 0.77085 0.0
H61 H 0.31613 0.00782 0.78353 0.0
H62 H 0.28131 0.00919 0.70075 0.0
H63 H 0.277 0.95828 0.81625 0.0
C64 C 0.28109 0.97947 0.82256 0.0
C65 C 0.24577 0.00759 0.76241 0.0
C66 C 0.25012 0.00974 0.73366 0.0
C67 C 0.26961 0.00553 0.78027 0.0
C68 C 0.29786 0.00758 0.76951 0.0
C69 C 0.3024 0.00985 0.74075 0.0
C70 C 0.2783 0.00952 0.72311 0.0
N71 N 0.26506 1.00048 0.80892 0.0
H72 H 0.00774 0.23763 0.76163 0.0
H73 H 0.0197 0.32555 0.75511 0.0
H74 H 0.01364 0.27713 0.68112 0.0
H75 H 0.06003 0.30316 0.7908 0.0
C76 C 0.04044 0.30042 0.80298 0.0
C77 C 0.01023 0.25582 0.74881 0.0
C78 C 0.00917 0.2537 0.71937 0.0
C79 C 0.01512 0.28165 0.76178 0.0
C80 C 0.0171 0.3055 0.74534 0.0
C81 C 0.01583 0.30365 0.7164 0.0
C82 C 0.01296 0.27793 0.70363 0.0
N83 N 0.01806 0.28392 0.79123 0.0
H84 H 0.77252 0.07639 0.82017 0.0
H85 H 0.79036 0.05209 0.73664 0.0
H86 H 0.71101 0.02728 0.77583 0.0
H87 H 0.84312 0.04414 0.7995 0.0
C88 C 0.83771 0.05612 0.7811 0.0
C89 C 0.76596 0.06536 0.80159 0.0
C90 C 0.73867 0.05324 0.79987 0.0
C91 C 0.78513 0.06318 0.77936 0.0
C92 C 0.77609 0.05107 0.75422 0.0
C93 C 0.74844 0.03919 0.75165 0.0
C94 C 0.73104 0.03861 0.77569 0.0
N95 N 0.81332 0.07392 0.78228 0.0
H96 H 0.19915 0.26512 0.02088 0.0
H97 H 0.29211 0.26156 0.01907 0.0
H98 H 0.24888 0.33917 0.03257 0.0
H99 H 0.24922 0.20979 0.05377 0.0
C100 C 0.2575 0.21191 0.03274 0.0
C101 C 0.21985 0.27533 0.02283 0.0
C102 C 0.22101 0.3038 0.02825 0.0
C103 C 0.24542 0.2599 0.02035 0.0
C104 C 0.27226 0.27319 0.02194 0.0
C105 C 0.27348 0.30179 0.02594 0.0
C106 C 0.2479 0.31694 0.02977 0.0
N107 N 0.24406 0.23126 0.01478 0.0
H108 H 0.1876 0.77389 0.01076 0.0
H109 H 0.28007 0.77789 0.00987 0.0
H110 H 0.23872 0.71211 0.05303 0.0
H111 H 0.21294 0.83662 0.02175 0.0
C112 C 0.23102 0.83156 0.0082 0.0
C113 C 0.20815 0.76642 0.01867 0.0
C114 C 0.20995 0.74093 0.03269 0.0
C115 C 0.23356 0.78093 0.01236 0.0
C116 C 0.26056 0.76897 0.01827 0.0
C117 C 0.26222 0.74388 0.03246 0.0
C118 C 0.23699 0.73176 0.04229 0.0
N119 N 0.23246 0.80501 0.99584 0.0
H120 H 0.81106 0.22786 0.00863 0.0
H121 H 0.80419 0.3159 0.00602 0.0
H122 H 0.72936 0.26571 0.98919 0.0
H123 H 0.85933 0.27082 0.97022 0.0
C124 C 0.86038 0.28153 0.99008 0.0
C125 C 0.798 0.24615 0.00488 0.0
C126 C 0.76829 0.2439 -0.00032 0.0
C127 C 0.81085 0.27217 0.00583 0.0
C128 C 0.79388 0.29613 0.00308 0.0
C129 C 0.76395 0.29442 0.99792 0.0
C130 C 0.75186 0.26795 0.99489 0.0
N131 N 0.84069 0.27454 0.01146 0.0
H132 H 0.78605 0.81456 0.98502 0.0
H133 H 0.7743 0.72679 0.97943 0.0
H134 H 0.71003 0.77765 0.01961 0.0
H135 H 0.8418 0.78449 0.9974 0.0
C136 C 0.83741 0.76735 0.98341 0.0
C137 C 0.77396 0.79631 0.99065 0.0
C138 C 0.74691 0.7989 0.00359 0.0
C139 C 0.78432 0.76999 0.98316 0.0
C140 C 0.76706 0.74665 0.98732 0.0
C141 C 0.73993 0.74927 0.0001 0.0
C142 C 0.73104 0.77526 0.00979 0.0
N143 N 0.81079 0.76682 0.96889 0.0
H144 H 0.52951 0.76363 0.7116 0.0
H145 H 0.53735 0.77622 0.80013 0.0
H146 H 0.52472 0.84578 0.74625 0.0
H147 H 0.57611 0.73995 0.78612 0.0
C148 C 0.55786 0.72712 0.78026 0.0
C149 C 0.52969 0.77734 0.72945 0.0
C150 C 0.52613 0.80603 0.72575 0.0
C151 C 0.53416 0.76647 0.75626 0.0
C152 C 0.53447 0.78443 0.77934 0.0
C153 C 0.53114 0.81296 0.77576 0.0
C154 C 0.52701 0.82362 0.74901 0.0
N155 N 0.53807 0.73754 0.7601 0.0
H156 H 0.3465 0.54309 0.75066 0.0
H157 H 0.25445 0.5502 0.74157 0.0
H158 H 0.29278 0.55331 0.82303 0.0
H159 H 0.28849 0.49726 0.72055 0.0
C160 C 0.28982 0.51402 0.70557 0.0
C161 C 0.32545 0.54686 0.75986 0.0
C162 C 0.32259 0.54923 0.78885 0.0
C163 C 0.30076 0.54655 0.74299 0.0
C164 C 0.27331 0.5502 0.75491 0.0
C165 C 0.27005 0.55272 0.78382 0.0
C166 C 0.29493 0.55244 0.80059 0.0
N167 N 0.30299 0.53885 0.71464 0.0
H168 H 0.47922 0.30527 0.74901 0.0
H169 H 0.48061 0.21816 0.7662 0.0
H170 H 0.47486 0.27661 0.83359 0.0
H171 H 0.52562 0.23786 0.73013 0.0
C172 C 0.50673 0.23901 0.71666 0.0
C173 C 0.47786 0.28846 0.7638 0.0
C174 C 0.47639 0.29409 0.79246 0.0
C175 C 0.47907 0.26101 0.75435 0.0
C176 C 0.4787 0.23925 0.77364 0.0
C177 C 0.47717 0.24461 0.80232 0.0
C178 C 0.47557 0.27214 0.81148 0.0
N179 N 0.48271 0.25514 0.72562 0.0
H180 H 0.70738 0.47446 0.77068 0.0
H181 H 0.79448 0.50467 0.76709 0.0
H182 H 0.74497 0.51656 0.84112 0.0
H183 H 0.74087 0.50932 0.70839 0.0
C184 C 0.75809 0.49531 0.71476 0.0
C185 C 0.72503 0.48552 0.78036 0.0
C186 C 0.72251 0.49539 0.80785 0.0
C187 C 0.75066 0.48954 0.76531 0.0
C188 C 0.7743 0.50241 0.77812 0.0
C189 C 0.77254 0.51123 0.80578 0.0
C190 C 0.74631 0.50884 0.81998 0.0
N191 N 0.75368 0.47823 0.73828 0.0
H192 H 0.48833 0.28084 0.30134 0.0
H193 H 0.49823 0.26616 0.21357 0.0
H194 H 0.49485 0.19761 0.27039 0.0
H195 H 0.53556 0.31074 0.23904 0.0
C196 C 0.51376 0.31921 0.23759 0.0
C197 C 0.49054 0.26653 0.28409 0.0
C198 C 0.49175 0.23794 0.28901 0.0
C199 C 0.49263 0.27664 0.25679 0.0
C200 C 0.4961 0.2581 0.23448 0.0
C201 C 0.49691 0.22943 0.23911 0.0
C202 C 0.49437 0.21966 0.26645 0.0
N203 N 0.49103 0.30546 0.25161 0.0
H204 H 0.69192 0.49797 0.2654 0.0
H205 H 0.7816 0.51604 0.27893 0.0
H206 H 0.75027 0.50439 0.19568 0.0
H207 H 0.73902 0.46682 0.3171 0.0
C208 C 0.74346 0.48842 0.32148 0.0
C209 C 0.7132 0.50188 0.25691 0.0
C210 C 0.71822 0.4998 0.22816 0.0
C211 C 0.73596 0.50772 0.2751 0.0
C212 C 0.76395 0.5118 0.26473 0.0
C213 C 0.76902 0.51086 0.23605 0.0
C214 C 0.74614 0.50505 0.21788 0.0
N215 N 0.73085 0.50865 0.30402 0.0
H216 H 0.5423 0.7379 0.26618 0.0
H217 H 0.56008 0.82461 0.25819 0.0
H218 H 0.54437 0.77575 0.18536 0.0
H219 H 0.59119 0.81013 0.29695 0.0
C220 C 0.57166 0.80411 0.30792 0.0
C221 C 0.54553 0.75581 0.2531 0.0
C222 C 0.54306 0.75348 0.22388 0.0
C223 C 0.55202 0.78147 0.26551 0.0
C224 C 0.55546 0.80491 0.24857 0.0
C225 C 0.55217 0.80331 0.2196 0.0
C226 C 0.54662 0.77737 0.20765 0.0
N227 N 0.55348 0.78413 0.29506 0.0
H228 H 0.28951 0.54562 0.30278 0.0
H229 H 0.30586 0.54431 0.21454 0.0
H230 H 0.22102 0.52639 0.24562 0.0
H231 H 0.35352 0.51282 0.26608 0.0
C232 C 0.35305 0.53338 0.25703 0.0
C233 C 0.28197 0.54199 0.28173 0.0
C234 C 0.25295 0.53565 0.27673 0.0
C235 C 0.30125 0.54423 0.25943 0.0
C236 C 0.29128 0.54108 0.23184 0.0
C237 C 0.26196 0.53559 0.22684 0.0
C238 C 0.2435 0.53154 0.24943 0.0
N239 N 0.33028 0.55139 0.26484 0.0
H240 H 0.7209 0.77016 0.50894 0.0
H241 H 0.81173 0.78031 0.4923 0.0
H242 H 0.75833 0.85131 0.50921 0.0
H243 H 0.7937 0.74201 0.45802 0.0
C244 C 0.789 0.7307 0.47697 0.0
C245 C 0.73949 0.78345 0.50656 0.0
C246 C 0.73648 0.81222 0.5102 0.0
C247 C 0.76661 0.7719 0.4996 0.0
C248 C 0.79067 0.78925 0.49664 0.0
C249 C 0.78802 0.81786 0.5006 0.0
C250 C 0.7608 0.8291 0.50709 0.0
N251 N 0.77006 0.74276 0.497 0.0
H252 H 0.72404 0.27372 0.50083 0.0
H253 H 0.8157 0.26479 0.48799 0.0
H254 H 0.76287 0.19265 0.49671 0.0
H255 H 0.77729 0.31488 0.53412 0.0
C256 C 0.78523 0.31754 0.51303 0.0
C257 C 0.74297 0.26059 0.49858 0.0
C258 C 0.74029 0.23166 0.49966 0.0
C259 C 0.77028 0.27246 0.49429 0.0
C260 C 0.79474 0.25552 0.49138 0.0
C261 C 0.79215 0.22674 0.49179 0.0
C262 C 0.76489 0.21496 0.49587 0.0
N263 N 0.77339 0.30134 0.4913 0.0
H264 H 0.27164 0.73378 0.52017 0.0
H265 H 0.2641 0.82254 0.52334 0.0
H266 H 0.1884 0.7729 0.53194 0.0
H267 H 0.29577 0.80539 0.47857 0.0
C268 C 0.31079 0.80004 0.49517 0.0
C269 C 0.25856 0.75218 0.52332 0.0
C270 C 0.22832 0.75004 0.52637 0.0
C271 C 0.27154 0.77838 0.5219 0.0
C272 C 0.25436 0.80228 0.52488 0.0
C273 C 0.22453 0.80018 0.52877 0.0
C274 C 0.2117 0.77421 0.52971 0.0
N275 N 0.30145 0.78091 0.51567 0.0
H276 H 0.26265 0.30297 0.50984 0.0
H277 H 0.25905 0.21531 0.52151 0.0
H278 H 0.18578 0.2652 0.54333 0.0
H279 H 0.30636 0.2378 0.54908 0.0
C280 C 0.31303 0.24073 0.52759 0.0
C281 C 0.25077 0.28511 0.51688 0.0
C282 C 0.22171 0.28764 0.52575 0.0
C283 C 0.26472 0.2592 0.51713 0.0
C284 C 0.24891 0.23543 0.52377 0.0
C285 C 0.21987 0.23749 0.5318 0.0
C286 C 0.20742 0.26375 0.53485 0.0
N287 N 0.29452 0.2567 0.51026 0.0
Zn288 Zn 0.97017 0.99062 0.46395 0.0
Zn289 Zn 0.96301 0.05769 0.46141 0.0
O290 O 0.99195 0.0261 0.46002 0.0
H291 H 0.00725 0.02426 0.44646 0.0
C292 C 0.93957 0.96033 0.51307 0.0
O293 O 0.93037 0.98535 0.50699 0.0
Zn294 Zn 0.06082 0.0599 0.55161 0.0
Zn295 Zn 0.05634 0.9931 0.55241 0.0
O296 O 0.03336 0.02861 0.55442 0.0
H297 H 0.01904 0.02785 0.56895 0.0
Zn298 Zn 0.97048 0.99167 0.55478 0.0
O299 O 0.98132 0.027 0.53437 0.0
Zn300 Zn 0.97339 0.05806 0.56145 0.0
H301 H 0.99037 0.02791 0.51632 0.0
Zn302 Zn 0.04986 0.98633 0.46383 0.0
O303 O 0.04835 0.02345 0.48256 0.0
H304 H 0.03858 0.02644 0.50003 0.0
Zn305 Zn 0.05667 0.0523 0.45396 0.0
C306 C 0.094 0.96144 0.49593 0.0
O307 O 0.10459 0.98595 0.49037 0.0
O308 O 0.93213 0.99766 0.44368 0.0
O309 O 0.92632 0.04353 0.4433 0.0
O310 O 0.09587 1.00095 0.57016 0.0
O311 O 0.09528 0.04708 0.57347 0.0
O312 O 0.94686 0.99809 0.59076 0.0
O313 O 0.94721 0.04406 0.5906 0.0
C314 C 0.00447 0.08983 0.43432 0.0
O315 O 0.06683 0.98921 0.42445 0.0
O316 O 0.07166 0.03466 0.41842 0.0
O317 O 0.03577 0.96032 0.57245 0.0
C318 C 0.91818 0.01924 0.43646 0.0
O319 O 0.99061 0.95669 0.44572 0.0
C320 C 0.02101 0.09429 0.5848 0.0
O321 O 0.95835 0.95742 0.53214 0.0
C322 C 0.10666 0.02356 0.57881 0.0
O323 O 0.06876 0.95566 0.48738 0.0
C324 C 0.9471 0.0875 0.51621 0.0
O325 O 0.97734 0.08979 0.43796 0.0
O326 O 0.01919 0.07174 0.44706 0.0
C327 C 0.93921 0.02127 0.60102 0.0
O328 O 0.04422 0.09401 0.57061 0.0
O329 O 0.00623 0.07232 0.58624 0.0
C330 C 0.08838 0.08022 0.49608 0.0
O331 O 0.95101 0.08788 0.54237 0.0
O332 O 0.96025 0.06941 0.5017 0.0
C333 C 0.07439 0.00981 0.40975 0.0
O334 O 0.08627 0.07782 0.4698 0.0
O335 O 0.07045 0.06711 0.51114 0.0
C336 C 0.03113 0.96478 0.59818 0.0
O337 O 0.03838 0.98886 0.60866 0.0
C338 C 0.99253 0.95947 0.41948 0.0
O339 O 0.98384 0.98283 0.40826 0.0
Zn340 Zn 0.48033 0.06834 0.03188 0.0
Zn341 Zn 0.47782 0.0678 0.96571 0.0
O342 O 0.48522 0.04338 0.99828 0.0
H343 H 0.4872 0.02355 0.99917 0.0
C344 C 0.5414 0.09613 0.08309 0.0
O345 O 0.52512 0.07507 0.07616 0.0
Zn346 Zn 0.55407 0.97416 0.96501 0.0
Zn347 Zn 0.55105 0.98271 0.03147 0.0
O348 O 0.54263 0.0011 0.99457 0.0
H349 H 0.53677 0.02011 0.99219 0.0
Zn350 Zn 0.57904 0.07716 0.03642 0.0
O351 O 0.55083 0.07502 0.00422 0.0
Zn352 Zn 0.57477 0.07251 0.96959 0.0
H353 H 0.53074 0.08039 0.00572 0.0
Zn354 Zn 0.46372 0.9669 0.03543 0.0
O355 O 0.48853 0.96346 0.00062 0.0
H356 H 0.50673 0.95355 0.00046 0.0
Zn357 Zn 0.46048 0.96776 0.96869 0.0
C358 C 0.50549 0.94423 0.0762 0.0
O359 O 0.5234 0.94554 0.05515 0.0
O360 O 0.45419 0.10209 0.02301 0.0
O361 O 0.44998 0.09789 0.97703 0.0
O362 O 0.57855 0.9492 0.02735 0.0
O363 O 0.58076 0.94525 0.9812 0.0
O364 O 0.62031 0.08682 0.02374 0.0
O365 O 0.61527 0.08551 0.97771 0.0
C366 C 0.45336 0.02172 0.93583 0.0
O367 O 0.42261 0.95375 0.02771 0.0
O368 O 0.4211 0.95363 0.98141 0.0
O369 O 0.56522 0.00788 0.06311 0.0
C370 C 0.44314 0.10958 -0.0001 0.0
O371 O 0.46651 0.04751 0.06681 0.0
C372 C 0.58508 0.01794 0.93796 0.0
O373 O 0.56479 0.10029 0.06994 0.0
C374 C 0.58857 0.9378 0.0055 0.0
O375 O 0.47952 0.95231 0.07308 0.0
C376 C 0.53028 0.09658 0.93767 0.0
O377 O 0.45919 0.04726 0.93445 0.0
O378 O 0.46123 0.00819 0.95728 0.0
C379 C 0.63048 0.09003 -0.00065 0.0
O380 O 0.57794 0.99271 0.93621 0.0
O381 O 0.57332 0.0328 0.95671 0.0
C382 C 0.50191 0.94515 0.93247 0.0
O383 O 0.55756 0.09706 0.9398 0.0
O384 O 0.51663 0.08144 0.95459 0.0
C385 C 0.40934 0.94903 0.00501 0.0
O386 O 0.47471 0.9452 0.93593 0.0
O387 O 0.51709 0.95899 0.94945 0.0
C388 C 0.58787 0.02082 0.05621 0.0
O389 O 0.59664 0.01919 0.03024 0.0
C390 C 0.4485 0.02829 0.06236 0.0
O391 O 0.44192 0.02201 0.03652 0.0
Zn392 Zn 0.97877 0.49948 0.9716 0.0
Zn393 Zn 0.9735 0.5666 0.98034 0.0
O394 O -0.00066 0.53397 0.98645 0.0
H395 H 0.01097 0.53337 0.0031 0.0
C396 C 0.9645 0.45607 0.02689 0.0
O397 O 0.95388 0.47837 0.01512 0.0
Zn398 Zn 0.07009 0.55447 0.04816 0.0
Zn399 Zn 0.06815 0.48755 0.05347 0.0
O400 O 0.04318 0.52203 0.05076 0.0
H401 H 0.02234 0.52203 0.04998 0.0
Zn402 Zn 0.97698 0.49687 0.06939 0.0
O403 O 0.96494 0.52941 0.04556 0.0
Zn404 Zn 0.96932 0.55931 0.07393 0.0
H405 H 0.94969 0.52872 0.03183 0.0
Zn406 Zn 0.06602 0.48769 0.94481 0.0
O407 O 0.05138 0.51946 0.96759 0.0
H408 H 0.05521 0.51893 0.98733 0.0
Zn409 Zn 0.05427 0.55291 0.94379 0.0
C410 C 0.07551 0.44642 0.99021 0.0
O411 O 0.04866 0.45128 0.99781 0.0
O412 O 0.94058 0.50954 0.95226 0.0
O413 O 0.93953 0.55554 0.95596 0.0
O414 O 0.1077 0.49778 0.06993 0.0
O415 O 0.10991 0.54343 0.06396 0.0
O416 O 0.95398 0.50021 0.10573 0.0
O417 O 0.95222 0.54602 0.11062 0.0
C418 C 0.00943 0.59205 0.93849 0.0
O419 O 0.09077 0.50074 0.91184 0.0
O420 O 0.08043 0.54573 0.91051 0.0
O421 O 0.05037 0.4516 0.06991 0.0
C422 C 0.92903 0.53288 0.94698 0.0
O423 O -0.00029 0.46404 0.95508 0.0
C424 C 0.02849 0.58779 0.07982 0.0
O425 O 0.97673 0.45827 0.05047 0.0
C426 C 0.12101 0.52063 0.07241 0.0
O427 O 0.08589 0.45833 0.96895 0.0
C428 C 0.94672 0.59555 0.03386 0.0
O429 O 0.99371 0.59692 0.9596 0.0
O430 O 0.01493 0.56712 0.93172 0.0
C431 C 0.9463 0.52174 0.11921 0.0
O432 O 0.05459 0.58609 0.07179 0.0
O433 O 0.01161 0.56817 0.07347 0.0
C434 C 0.07745 0.58556 0.99138 0.0
O435 O 0.94678 0.59192 0.06003 0.0
O436 O 0.96145 0.57883 0.019 0.0
C437 C 0.09381 0.52456 0.90104 0.0
O438 O 0.07272 0.58357 0.96538 0.0
O439 O 0.07073 0.56535 0.00704 0.0
C440 C 0.04113 0.45368 0.09472 0.0
O441 O 0.04172 0.47805 0.10683 0.0
C442 C 0.99366 0.45976 0.92958 0.0
O443 O 0.9777 0.47821 0.91659 0.0
Zn444 Zn 0.47758 0.47134 0.98291 0.0
Zn445 Zn 0.47143 0.47517 0.04878 0.0
O446 O 0.47964 0.49817 0.0153 0.0
H447 H 0.48139 0.51794 0.01353 0.0
C448 C 0.52605 0.4466 0.92191 0.0
O449 O 0.52486 0.47345 0.91811 0.0
Zn450 Zn 0.55253 0.5672 0.05154 0.0
Zn451 Zn 0.54488 0.56353 0.98505 0.0
O452 O 0.53562 0.54338 0.0213 0.0
H453 H 0.53074 0.52409 0.0228 0.0
Zn454 Zn 0.55821 0.45946 0.97515 0.0
O455 O 0.5367 0.46371 0.01126 0.0
Zn456 Zn 0.5658 0.46483 0.04263 0.0
H457 H 0.51771 0.45564 0.01228 0.0
Zn458 Zn 0.47296 0.58284 0.9836 0.0
O459 O 0.49557 0.58412 0.02 0.0
H460 H 0.51279 0.59512 0.02215 0.0
Zn461 Zn 0.46602 0.57743 0.04989 0.0
C462 C 0.5005 0.59041 0.92675 0.0
O463 O 0.50205 0.56335 0.92528 0.0
O464 O 0.45224 0.43754 0.99217 0.0
O465 O 0.44502 0.44404 0.03767 0.0
O466 O 0.57384 0.59506 0.98996 0.0
O467 O 0.57917 0.59588 0.03586 0.0
O468 O 0.60021 0.44783 0.98277 0.0
O469 O 0.60464 0.44987 0.02894 0.0
C470 C 0.4513 0.52391 0.07743 0.0
O471 O 0.43231 0.59782 0.99141 0.0
O472 O 0.42784 0.5937 0.03742 0.0
O473 O 0.55468 0.54241 0.9488 0.0
C474 C 0.4404 0.43088 0.01509 0.0
O475 O 0.46959 0.489 0.94448 0.0
C476 C 0.58126 0.51844 0.07471 0.0
O477 O 0.53803 0.43702 0.94373 0.0
C478 C 0.58569 0.60471 0.01176 0.0
O479 O 0.49036 0.60185 0.94854 0.0
C480 C 0.52349 0.44464 0.0783 0.0
O481 O 0.45221 0.49772 0.07813 0.0
O482 O 0.46334 0.53668 0.05754 0.0
C483 C 0.61508 0.44442 0.00486 0.0
O484 O 0.57711 0.54434 0.07626 0.0
O485 O 0.56824 0.50465 0.05594 0.0
C486 C 0.50436 0.59864 0.09119 0.0
O487 O 0.55035 0.44141 0.07393 0.0
O488 O 0.50961 0.46039 0.06191 0.0
C489 C 0.41797 0.60116 0.01378 0.0
O490 O 0.47781 0.59729 0.08468 0.0
O491 O 0.52289 0.58648 0.07584 0.0
C492 C 0.57024 0.52071 0.94846 0.0
O493 O 0.57817 0.50943 0.9721 0.0
C494 C 0.45815 0.51292 0.94341 0.0
O495 O 0.45289 0.52622 0.96673 0.0
Zn496 Zn 0.96827 0.49179 0.46485 0.0
Zn497 Zn 0.96125 0.55829 0.47111 0.0
O498 O 0.99039 0.52679 0.4732 0.0
H499 H 0.00778 0.52682 0.48434 0.0
C500 C 0.94447 0.45319 0.51855 0.0
O501 O 0.93683 0.47797 0.51012 0.0
Zn502 Zn 0.071 0.56227 0.55219 0.0
Zn503 Zn 0.06731 0.49595 0.5507 0.0
O504 O 0.04424 0.5308 0.54496 0.0
H505 H 0.02802 0.53199 0.53236 0.0
Zn506 Zn 0.97581 0.48673 0.55874 0.0
O507 O 0.97249 0.52267 0.53744 0.0
Zn508 Zn 0.96943 0.55296 0.56602 0.0
H509 H 0.96412 0.52282 0.51909 0.0
Zn510 Zn 0.06655 0.49451 0.4611 0.0
O511 O 0.06635 0.52843 0.48603 0.0
H512 H 0.07775 0.52824 0.50284 0.0
Zn513 Zn 0.0633 0.56032 0.45963 0.0
C514 C 0.10109 0.45919 0.49796 0.0
O515 O 0.10512 0.48239 0.51151 0.0
O516 O 0.93016 0.50054 0.44575 0.0
O517 O 0.92474 0.54613 0.45105 0.0
O518 O 0.10667 0.50337 0.56923 0.0
O519 O 0.10781 0.54929 0.57146 0.0
O520 O 0.9527 0.49152 0.59468 0.0
O521 O 0.95008 0.53713 0.60036 0.0
C522 C 0.00589 0.58991 0.44618 0.0
O523 O 0.08555 0.50314 0.42379 0.0
O524 O 0.08208 0.54896 0.42424 0.0
O525 O 0.04542 0.4634 0.568 0.0
C526 C 0.91597 0.52279 0.44211 0.0
O527 O 0.98732 0.45676 0.44793 0.0
C528 C 0.02325 0.58841 0.57974 0.0
O529 O 0.96273 0.45101 0.53823 0.0
C530 C 0.11912 0.52566 0.57648 0.0
O531 O 0.08459 0.4588 0.47684 0.0
C532 C 0.93821 0.58588 0.52658 0.0
O533 O 0.97873 0.58944 0.44986 0.0
O534 O 0.02118 0.57064 0.45657 0.0
C535 C 0.9437 0.51265 0.60802 0.0
O536 O 0.05024 0.59062 0.57527 0.0
O537 O 0.01017 0.56743 0.57015 0.0
C538 C 0.09345 0.59312 0.49853 0.0
O539 O 0.9424 0.58303 0.55251 0.0
O540 O 0.95311 0.57075 0.5103 0.0
C541 C 0.09061 0.52655 0.413 0.0
O542 O 0.08835 0.59146 0.47271 0.0
O543 O 0.07905 0.57766 0.51454 0.0
C544 C 0.03773 0.46812 0.59291 0.0
O545 O 0.04259 0.49266 0.60362 0.0
C546 C 0.01023 0.45675 0.43341 0.0
O547 O 0.02435 0.47988 0.4298 0.0
Zn548 Zn 0.47524 0.99853 0.46552 0.0
Zn549 Zn 0.4675 0.06503 0.4711 0.0
O550 O 0.49677 0.03493 0.46277 0.0
H551 H 0.5117 0.03573 0.44878 0.0
C552 C 0.44785 0.95042 0.54818 0.0
O553 O 0.43515 0.96963 0.56329 0.0
Zn554 Zn 0.58258 0.05949 0.55721 0.0
Zn555 Zn 0.58381 0.99233 0.55469 0.0
O556 O 0.55742 0.0254 0.55779 0.0
H557 H 0.53849 0.02276 0.56574 0.0
Zn558 Zn 0.49143 0.98844 0.56068 0.0
O559 O 0.48581 0.02383 0.5389 0.0
Zn560 Zn 0.48395 0.05455 0.5672 0.0
H561 H 0.4852 0.0245 0.51884 0.0
Zn562 Zn 0.55362 0.00177 0.47503 0.0
O563 O 0.54286 0.03942 0.49287 0.0
H564 H 0.53303 0.04275 0.51028 0.0
Zn565 Zn 0.55286 0.06844 0.46419 0.0
C566 C 0.59876 0.96625 0.49355 0.0
O567 O 0.61185 0.98553 0.47915 0.0
O568 O 0.43397 0.00681 0.45272 0.0
O569 O 0.43075 0.05283 0.45198 0.0
O570 O 0.62311 0.00278 0.57181 0.0
O571 O 0.62205 0.04891 0.57328 0.0
O572 O 0.47763 0.99382 0.60115 0.0
O573 O 0.47018 0.03933 0.6039 0.0
C574 C 0.50427 0.10549 0.44488 0.0
O575 O 0.57233 0.00552 0.43601 0.0
O576 O 0.57702 0.05123 0.43507 0.0
O577 O 0.56583 0.95555 0.56911 0.0
C578 C 0.42041 0.02899 0.44659 0.0
O579 O 0.49173 0.96452 0.44307 0.0
C580 C 0.53677 0.09033 0.58085 0.0
O581 O 0.47448 0.95312 0.54239 0.0
C582 C 0.63471 0.0258 0.57824 0.0
O583 O 0.57168 0.9687 0.49754 0.0
C584 C 0.45308 0.08856 0.5289 0.0
O585 O 0.48001 0.10188 0.45654 0.0
O586 O 0.52025 0.08451 0.44053 0.0
C587 C 0.46928 0.0152 0.61453 0.0
O588 O 0.56414 0.09095 0.57892 0.0
O589 O 0.52387 0.0694 0.57115 0.0
C590 C 0.58623 0.09563 0.50557 0.0
O591 O 0.45787 0.08533 0.55471 0.0
O592 O 0.46325 0.0704 0.5123 0.0
C593 C 0.58154 0.02747 0.42457 0.0
O594 O 0.57608 0.09889 0.48126 0.0
O595 O 0.58176 0.07273 0.51772 0.0
C596 C 0.55828 0.95631 0.59452 0.0
O597 O 0.56179 0.97942 0.60848 0.0
C598 C 0.50724 0.94445 0.45169 0.0
O599 O 0.51558 0.94394 0.47782 0.0
C600 C 0.17349 0.21356 0.52164 0.0
C601 C 0.20127 0.21261 0.53342 0.0
C602 C 0.1562 0.19004 0.5203 0.0
C603 C 0.167 0.16466 0.53067 0.0
C604 C 0.19459 0.16361 0.54346 0.0
C605 C 0.21148 0.18765 0.54467 0.0
C606 C 0.12694 0.19209 0.50638 0.0
C607 C 0.20667 0.1369 0.55484 0.0
C608 C 0.109 0.10976 0.53434 0.0
C609 C 0.11122 0.09815 0.5077 0.0
C610 C 0.1284 0.13025 0.54318 0.0
C611 C 0.15057 0.13901 0.52494 0.0
C612 C 0.15427 0.12569 0.49895 0.0
C613 C 0.13452 0.10552 0.49065 0.0
C614 C 0.12368 0.14389 0.57108 0.0
C615 C 0.17776 0.13416 0.47891 0.0
H616 H 0.16561 0.23253 0.51229 0.0
H617 H 0.23281 0.18681 0.554 0.0
H618 H 0.12721 0.18014 0.48665 0.0
H619 H 0.11004 0.18306 0.51989 0.0
H620 H 0.12075 0.21378 0.50155 0.0
H621 H 0.22714 0.14003 0.5665 0.0
H622 H 0.19069 0.12704 0.56881 0.0
H623 H 0.21091 0.1223 0.53746 0.0
H624 H 0.09129 0.104 0.54768 0.0
H625 H 0.13676 0.09624 0.4702 0.0
H626 H 0.11077 0.16308 0.56816 0.0
H627 H 0.14448 0.14967 0.58095 0.0
H628 H 0.11166 0.1302 0.58547 0.0
H629 H 0.17257 0.15487 0.4703 0.0
H630 H 0.18006 0.11942 0.46129 0.0
H631 H 0.19887 0.13569 0.48977 0.0
C632 C 0.84202 0.21259 0.50572 0.0
C633 C 0.81792 0.20883 0.48851 0.0
C634 C 0.86509 0.19366 0.50531 0.0
C635 C 0.86409 0.17071 0.48697 0.0
C636 C 0.84074 0.168 0.46814 0.0
C637 C 0.81774 0.18699 0.46933 0.0
C638 C 0.88942 0.19708 0.526 0.0
C639 C 0.83911 0.14404 0.44805 0.0
C640 C 0.93172 0.1255 0.48412 0.0
C641 C 0.92508 0.10601 0.50454 0.0
C642 C 0.9116 0.14633 0.47717 0.0
C643 C 0.88454 0.14732 0.49104 0.0
C644 C 0.87744 0.12668 0.51064 0.0
C645 C 0.89788 0.10638 0.5172 0.0
C646 C 0.91985 0.16802 0.45618 0.0
C647 C 0.84883 0.12683 0.52586 0.0
H648 H 0.84208 0.22949 0.52057 0.0
H649 H 0.79922 0.18438 0.45574 0.0
H650 H 0.88788 0.18083 0.54217 0.0
H651 H 0.91067 0.19454 0.51558 0.0
H652 H 0.88874 0.21758 0.53644 0.0
H653 H 0.82206 0.1472 0.43206 0.0
H654 H 0.86019 0.14086 0.43746 0.0
H655 H 0.83421 0.12484 0.45965 0.0
H656 H 0.95305 0.1254 0.47482 0.0
H657 H 0.89297 0.0912 0.53307 0.0
H658 H 0.92354 0.18795 0.46703 0.0
H659 H 0.90206 0.17137 0.44103 0.0
H660 H 0.93985 0.16231 0.44467 0.0
H661 H 0.8472 0.14555 0.53916 0.0
H662 H 0.84616 0.10835 0.53927 0.0
H663 H 0.83065 0.12757 0.51082 0.0
C664 C 0.83434 0.83254 0.4776 0.0
C665 C 0.81363 0.83614 0.49869 0.0
C666 C 0.85812 0.85038 0.47545 0.0
C667 C 0.86108 0.87228 0.49478 0.0
C668 C 0.84044 0.87574 0.51628 0.0
C669 C 0.81713 0.85756 0.51805 0.0
C670 C 0.87989 0.84595 0.45246 0.0
C671 C 0.84283 0.89881 0.53741 0.0
C672 C 0.92954 0.9097 0.51382 0.0
C673 C 0.92392 0.93589 0.50249 0.0
C674 C 0.91052 0.8877 0.50929 0.0
C675 C 0.88546 0.89203 0.49292 0.0
C676 C 0.88146 0.91749 0.47892 0.0
C677 C 0.90076 0.93919 0.48393 0.0
C678 C 0.9158 0.86078 0.52434 0.0
C679 C 0.85532 0.92275 0.46081 0.0
H680 H 0.83169 0.8161 0.46248 0.0
H681 H 0.8016 0.86009 0.53476 0.0
H682 H 0.88116 0.86468 0.43928 0.0
H683 H 0.9017 0.84248 0.46147 0.0
H684 H 0.8744 0.82801 0.43904 0.0
H685 H 0.82497 0.89856 0.55285 0.0
H686 H 0.86368 0.89712 0.54874 0.0
H687 H 0.84252 0.91909 0.52669 0.0
H688 H 0.94769 0.90681 0.52783 0.0
H689 H 0.89655 0.95922 0.47467 0.0
H690 H 0.91094 0.8429 0.51069 0.0
H691 H 0.90123 0.85964 0.54263 0.0
H692 H 0.93848 0.85891 0.53181 0.0
H693 H 0.85101 0.90476 0.44713 0.0
H694 H 0.858 0.94142 0.44766 0.0
H695 H 0.83604 0.92587 0.47423 0.0
C696 C 0.20048 0.84067 0.5515 0.0
C697 C 0.20597 0.8249 0.52764 0.0
C698 C 0.18165 0.86356 0.55037 0.0
C699 C 0.16841 0.87065 0.52474 0.0
C700 C 0.17405 0.8546 0.50064 0.0
C701 C 0.19271 0.8318 0.50245 0.0
C702 C 0.17575 0.87999 0.57651 0.0
C703 C 0.16052 0.86157 0.47288 0.0
C704 C 0.10094 0.91464 0.5169 0.0
C705 C 0.11272 0.93969 0.50792 0.0
C706 C 0.11892 0.89243 0.52449 0.0
C707 C 0.1493 0.8953 0.52252 0.0
C708 C 0.16127 0.92106 0.51503 0.0
C709 C 0.14281 0.94305 0.50808 0.0
C710 C 0.10537 0.86545 0.53301 0.0
C711 C 0.19355 0.92484 0.51239 0.0
H712 H 0.21067 0.8349 0.57098 0.0
H713 H 0.19699 0.81926 0.48416 0.0
H714 H 0.18184 0.9019 0.57341 0.0
H715 H 0.15227 0.87971 0.58125 0.0
H716 H 0.18779 0.87177 0.59474 0.0
H717 H 0.16734 0.84703 0.45617 0.0
H718 H 0.13661 0.86106 0.47454 0.0
H719 H 0.16658 0.88283 0.46665 0.0
H720 H 0.07767 0.91208 0.51717 0.0
H721 H 0.15206 0.96241 0.50125 0.0
H722 H 0.1164 0.85687 0.55162 0.0
H723 H 0.10788 0.85015 0.51594 0.0
H724 H 0.08195 0.86784 0.53764 0.0
H725 H 0.20475 0.91743 0.5314 0.0
H726 H 0.19946 0.94677 0.50884 0.0
H727 H 0.20174 0.91232 0.49466 0.0
C728 C 0.48729 0.21358 0.19005 0.0
C729 C 0.5011 0.20952 0.21575 0.0
C730 C 0.49141 0.19489 0.16795 0.0
C731 C 0.50951 0.17148 0.17176 0.0
C732 C 0.52301 0.16699 0.19779 0.0
C733 C 0.5189 0.18617 0.21932 0.0
C734 C 0.47682 0.20044 0.14039 0.0
C735 C 0.54241 0.14223 0.20272 0.0
C736 C 0.50775 0.11059 0.12154 0.0
C737 C 0.53244 0.11554 0.10539 0.0
C738 C 0.49954 0.12893 0.1429 0.0
C739 C 0.51634 0.15279 0.14803 0.0
C740 C 0.5409 0.15812 0.13141 0.0
C741 C 0.5487 0.13941 0.11041 0.0
C742 C 0.4733 0.1225 0.16034 0.0
C743 C 0.55929 0.18341 0.13609 0.0
H744 H 0.47317 0.23131 0.18722 0.0
H745 H 0.53012 0.18308 0.23888 0.0
H746 H 0.49337 0.20301 0.12391 0.0
H747 H 0.46327 0.18257 0.13436 0.0
H748 H 0.46297 0.21929 0.14097 0.0
H749 H 0.54953 0.14064 0.22475 0.0
H750 H 0.53101 0.12294 0.19697 0.0
H751 H 0.56188 0.14362 0.18934 0.0
H752 H 0.49501 0.09225 0.11772 0.0
H753 H 0.56769 0.14354 0.09792 0.0
H754 H 0.45785 0.14013 0.15987 0.0
H755 H 0.47986 0.11949 0.18234 0.0
H756 H 0.46198 0.10363 0.15307 0.0
H757 H 0.54567 0.20235 0.13533 0.0
H758 H 0.5768 0.18528 0.1204 0.0
H759 H 0.56929 0.18251 0.15707 0.0
C760 C 0.81961 0.49452 0.22907 0.0
C761 C 0.79835 0.51476 0.22477 0.0
C762 C 0.84625 0.49582 0.21517 0.0
C763 C 0.85174 0.51813 0.19693 0.0
C764 C 0.83084 0.53947 0.19385 0.0
C765 C 0.8042 0.53736 0.20761 0.0
C766 C 0.86776 0.47249 0.21867 0.0
C767 C 0.8359 0.56367 0.17471 0.0
C768 C 0.92638 0.53191 0.16667 0.0
C769 C 0.92415 0.51868 0.14085 0.0
C770 C 0.90345 0.53081 0.18588 0.0
C771 C 0.87742 0.51737 0.17834 0.0
C772 C 0.87529 0.504 0.1522 0.0
C773 C 0.8989 0.50438 0.13404 0.0
C774 C 0.90678 0.54452 0.2139 0.0
C775 C 0.84766 0.49025 0.14287 0.0
H776 H 0.81481 0.47697 0.24223 0.0
H777 H 0.7876 0.55296 0.2044 0.0
H778 H 0.86875 0.46013 0.19922 0.0
H779 H 0.88973 0.48073 0.22254 0.0
H780 H 0.86182 0.45852 0.23604 0.0
H781 H 0.81898 0.57992 0.17701 0.0
H782 H 0.85732 0.573 0.17888 0.0
H783 H 0.83596 0.5564 0.15279 0.0
H784 H 0.94594 0.54308 0.17174 0.0
H785 H 0.89707 0.49463 0.11377 0.0
H786 H 0.90078 0.52995 0.23071 0.0
H787 H 0.89192 0.56254 0.21537 0.0
H788 H 0.92924 0.5517 0.21758 0.0
H789 H 0.84131 0.4741 0.15798 0.0
H790 H 0.84972 0.48059 0.12197 0.0
H791 H 0.82985 0.50572 0.14214 0.0
C792 C 0.55975 0.82696 0.17348 0.0
C793 C 0.55215 0.8287 0.20177 0.0
C794 C 0.55376 0.84865 0.15508 0.0
C795 C 0.54229 0.87377 0.16554 0.0
C796 C 0.53793 0.877 0.19448 0.0
C797 C 0.54195 0.8542 0.21212 0.0
C798 C 0.55802 0.84395 0.12424 0.0
C799 C 0.52769 0.90409 0.20673 0.0
C800 C 0.5429 0.93014 0.11092 0.0
C801 C 0.51418 0.92951 0.10165 0.0
C802 C 0.55195 0.91372 0.13339 0.0
C803 C 0.5321 0.89528 0.14576 0.0
C804 C 0.50283 0.89533 0.137 0.0
C805 C 0.49412 0.91291 0.11541 0.0
C806 C 0.5829 0.9155 0.14321 0.0
C807 C 0.48112 0.87542 0.14897 0.0
H808 H 0.56928 0.80816 0.16525 0.0
H809 H 0.53586 0.85629 0.23376 0.0
H810 H 0.53749 0.84804 0.11293 0.0
H811 H 0.57439 0.85843 0.11605 0.0
H812 H 0.56521 0.82252 0.1194 0.0
H813 H 0.53241 0.90535 0.22937 0.0
H814 H 0.53809 0.9218 0.19615 0.0
H815 H 0.50398 0.9062 0.2039 0.0
H816 H 0.55835 0.94328 0.10043 0.0
H817 H 0.47193 0.91235 0.10813 0.0
H818 H 0.59564 0.89814 0.13428 0.0
H819 H 0.58418 0.91394 0.16622 0.0
H820 H 0.59313 0.93511 0.13658 0.0
H821 H 0.48812 0.85388 0.14451 0.0
H822 H 0.45909 0.87858 0.14024 0.0
H823 H 0.47991 0.87773 0.17188 0.0
C824 C 0.25789 0.51919 0.17725 0.0
C825 C 0.24877 0.53672 0.19877 0.0
C826 C 0.24122 0.51656 0.15282 0.0
C827 C 0.21486 0.53155 0.15029 0.0
C828 C 0.20664 0.55045 0.17139 0.0
C829 C 0.22393 0.55309 0.19508 0.0
C830 C 0.25097 0.49665 0.13048 0.0
C831 C 0.17842 0.56637 0.17008 0.0
C832 C 0.16898 0.54116 0.0854 0.0
C833 C 0.14772 0.52106 0.08939 0.0
C834 C 0.19255 0.5433 0.10382 0.0
C835 C 0.19412 0.52572 0.12733 0.0
C836 C 0.17311 0.50488 0.13092 0.0
C837 C 0.15052 0.50249 0.11163 0.0
C838 C 0.21503 0.5652 0.09889 0.0
C839 C 0.17315 0.48642 0.15625 0.0
H840 H 0.27708 0.50652 0.18012 0.0
H841 H 0.21709 0.56692 0.21166 0.0
H842 H 0.23714 0.47802 0.13087 0.0
H843 H 0.24862 0.50618 0.10961 0.0
H844 H 0.27381 0.49002 0.13344 0.0
H845 H 0.17595 0.58115 0.18766 0.0
H846 H 0.17682 0.57803 0.15032 0.0
H847 H 0.16006 0.55172 0.17065 0.0
H848 H 0.16694 0.55546 0.06817 0.0
H849 H 0.13396 0.48711 0.11502 0.0
H850 H 0.23708 0.55639 0.10156 0.0
H851 H 0.21243 0.58201 0.11444 0.0
H852 H 0.21322 0.57432 0.07777 0.0
H853 H 0.19446 0.47608 0.15868 0.0
H854 H 0.15616 0.47033 0.15518 0.0
H855 H 0.1694 0.49911 0.1752 0.0
C856 C 0.50937 0.83105 0.81953 0.0
C857 C 0.5317 0.83178 0.79997 0.0
C858 C 0.50838 0.85011 0.84157 0.0
C859 C 0.53059 0.87001 0.84432 0.0
C860 C 0.55382 0.87006 0.82512 0.0
C861 C 0.5539 0.8511 0.80291 0.0
C862 C 0.48302 0.84956 0.86133 0.0
C863 C 0.57813 0.89056 0.82761 0.0
C864 C 0.50493 0.9343 0.88223 0.0
C865 C 0.51456 0.92922 0.90934 0.0
C866 C 0.51193 0.91619 0.8604 0.0
C867 C 0.5281 0.89188 0.8661 0.0
C868 C 0.53907 0.88736 0.89329 0.0
C869 C 0.53238 0.90633 0.91463 0.0
C870 C 0.50046 0.92221 0.8316 0.0
C871 C 0.55605 0.86157 0.90031 0.0
H872 H 0.49219 0.8161 0.81704 0.0
H873 H 0.57123 0.85143 0.78773 0.0
H874 H 0.49078 0.84817 0.88313 0.0
H875 H 0.47039 0.86905 0.85943 0.0
H876 H 0.46835 0.83194 0.85716 0.0
H877 H 0.59559 0.88657 0.81221 0.0
H878 H 0.56962 0.9118 0.82439 0.0
H879 H 0.58758 0.88983 0.84882 0.0
H880 H 0.49104 0.95203 0.8783 0.0
H881 H 0.53944 0.90228 0.93576 0.0
H882 H 0.48332 0.90715 0.82627 0.0
H883 H 0.5179 0.91987 0.81591 0.0
H884 H 0.49121 0.94339 0.82997 0.0
H885 H 0.54131 0.84356 0.90026 0.0
H886 H 0.56643 0.86296 0.92112 0.0
H887 H 0.57299 0.85753 0.88446 0.0
C888 C 0.23505 0.56808 0.82079 0.0
C889 C 0.24083 0.55238 0.79683 0.0
C890 C 0.20908 0.56495 0.83551 0.0
C891 C 0.1882 0.54593 0.82582 0.0
C892 C 0.19313 0.53127 0.80075 0.0
C893 C 0.21945 0.5345 0.78668 0.0
C894 C 0.20475 0.58084 0.86229 0.0
C895 C 0.17127 0.51103 0.78957 0.0
C896 C 0.14148 0.51213 0.88062 0.0
C897 C 0.1163 0.52838 0.87964 0.0
C898 C 0.16491 0.51757 0.86306 0.0
C899 C 0.16278 0.53926 0.84343 0.0
C900 C 0.13689 0.55497 0.84148 0.0
C901 C 0.11408 0.54964 0.85999 0.0
C902 C 0.19239 0.50079 0.86632 0.0
C903 C 0.13354 0.57771 0.82027 0.0
H904 H 0.25122 0.58229 0.82852 0.0
H905 H 0.22377 0.52196 0.76843 0.0
H906 H 0.18342 0.59145 0.86229 0.0
H907 H 0.20494 0.56626 0.88009 0.0
H908 H 0.22187 0.59648 0.86573 0.0
H909 H 0.17661 0.50407 0.76812 0.0
H910 H 0.17054 0.49262 0.80325 0.0
H911 H 0.14932 0.52044 0.78949 0.0
H912 H 0.14344 0.49594 0.89608 0.0
H913 H 0.09459 0.56219 0.85922 0.0
H914 H 0.21047 0.51458 0.87226 0.0
H915 H 0.19828 0.49087 0.84628 0.0
H916 H 0.19038 0.48445 0.8824 0.0
H917 H 0.14891 0.59459 0.82495 0.0
H918 H 0.11127 0.58647 0.81997 0.0
H919 H 0.13883 0.56977 0.79919 0.0
C920 C 0.49867 0.22425 0.84548 0.0
C921 C 0.47986 0.22168 0.82273 0.0
C922 C 0.50303 0.20234 0.86407 0.0
C923 C 0.48828 0.17712 0.85983 0.0
C924 C 0.46872 0.17457 0.83729 0.0
C925 C 0.46478 0.19689 0.81895 0.0
C926 C 0.52427 0.20588 0.88769 0.0
C927 C 0.45258 0.14804 0.83214 0.0
C928 C 0.52959 0.11668 0.89032 0.0
C929 C 0.51592 0.11339 0.91609 0.0
C930 C 0.51943 0.13602 0.87093 0.0
C931 C 0.49537 0.15295 0.87776 0.0
C932 C 0.48051 0.14867 0.90318 0.0
C933 C 0.49091 0.12873 0.92204 0.0
C934 C 0.53563 0.13949 0.84389 0.0
C935 C 0.45496 0.16645 0.91137 0.0
H936 H 0.51079 0.24315 0.84826 0.0
H937 H 0.45004 0.19489 0.80153 0.0
H938 H 0.51398 0.20035 0.90775 0.0
H939 H 0.54299 0.19174 0.88465 0.0
H940 H 0.53246 0.22736 0.88922 0.0
H941 H 0.43708 0.14985 0.81455 0.0
H942 H 0.46817 0.13114 0.82742 0.0
H943 H 0.44055 0.14197 0.8511 0.0
H944 H 0.5489 0.10467 0.88568 0.0
H945 H 0.48066 0.12652 0.94214 0.0
H946 H 0.54737 0.15941 0.84417 0.0
H947 H 0.52035 0.14009 0.82609 0.0
H948 H 0.55157 0.12257 0.84032 0.0
H949 H 0.4626 0.18747 0.9168 0.0
H950 H 0.44326 0.15792 0.92959 0.0
H951 H 0.43959 0.1686 0.89377 0.0
C952 C 0.82241 0.50082 0.82237 0.0
C953 C 0.79878 0.51909 0.82148 0.0
C954 C 0.84491 0.50467 0.84156 0.0
C955 C 0.84373 0.52745 0.86007 0.0
C956 C 0.82083 0.5469 0.85801 0.0
C957 C 0.79851 0.54241 0.83879 0.0
C958 C 0.86895 0.48344 0.84311 0.0
C959 C 0.81907 0.5716 0.8772 0.0
C960 C 0.88087 0.5181 0.92987 0.0
C961 C 0.90588 0.53369 0.92621 0.0
C962 C 0.86008 0.51646 0.90867 0.0
C963 C 0.86518 0.52984 0.88293 0.0
C964 C 0.89072 0.54533 0.87911 0.0
C965 C 0.91058 0.54745 0.90105 0.0
C966 C 0.83287 0.50014 0.91369 0.0
C967 C 0.89749 0.55886 0.85162 0.0
H968 H 0.82243 0.48256 0.80924 0.0
H969 H 0.78024 0.55655 0.83802 0.0
H970 H 0.89033 0.49368 0.84379 0.0
H971 H 0.86676 0.47128 0.86253 0.0
H972 H 0.86857 0.46891 0.82518 0.0
H973 H 0.80103 0.58581 0.8716 0.0
H974 H 0.81586 0.5645 0.89891 0.0
H975 H 0.83961 0.58329 0.87668 0.0
H976 H 0.87766 0.50716 0.94928 0.0
H977 H 0.93047 0.55885 0.89812 0.0
H978 H 0.83184 0.4825 0.89896 0.0
H979 H 0.81356 0.51334 0.90985 0.0
H980 H 0.8317 0.49199 0.93525 0.0
H981 H 0.899 0.54289 0.83507 0.0
H982 H 0.91814 0.57046 0.85221 0.0
H983 H 0.87979 0.57327 0.84568 0.0
C984 C 0.6899 0.73178 0.99336 0.0
C985 C 0.71894 0.72625 2e-05 0.0
C986 C 0.66905 0.71112 0.99448 0.0
C987 C 0.67754 0.68395 0.00155 0.0
C988 C 0.70701 0.67777 0.00694 0.0
C989 C 0.72744 0.69912 0.0063 0.0
C990 C 0.6378 0.71857 0.98876 0.0
C991 C 0.7168 0.64877 0.01385 0.0
C992 C 0.61857 0.63985 0.03241 0.0
C993 C 0.60897 0.62519 0.00901 0.0
C994 C 0.64139 0.65858 0.03037 0.0
C995 C 0.65513 0.66246 0.00438 0.0
C996 C 0.64584 0.64746 0.98075 0.0
C997 C 0.62268 0.62913 0.9833 0.0
C998 C 0.65037 0.67466 0.05589 0.0
C999 C 0.66013 0.651 0.95274 0.0
H1000 H 0.68333 0.75248 0.98738 0.0
H1001 H 0.74988 0.6947 0.01122 0.0
H1002 H 0.62929 0.70584 0.97143 0.0
H1003 H 0.62446 0.71411 0.00738 0.0
H1004 H 0.63492 0.74072 0.98332 0.0
H1005 H 0.74069 0.64707 0.01567 0.0
H1006 H 0.70698 0.6422 0.0338 0.0
H1007 H 0.70932 0.63418 0.99756 0.0
H1008 H 0.60805 0.63687 0.05232 0.0
H1009 H 0.61557 0.61761 0.9652 0.0
H1010 H 0.64697 0.69709 0.05227 0.0
H1011 H 0.67375 0.67144 0.06004 0.0
H1012 H 0.638 0.66861 0.0747 0.0
H1013 H 0.65602 0.6722 0.94488 0.0
H1014 H 0.65204 0.63601 0.93708 0.0
H1015 H 0.68391 0.64842 0.9547 0.0
C1016 C 0.31051 0.7243 0.04577 0.0
C1017 C 0.28689 0.72527 0.0277 0.0
C1018 C 0.33172 0.70359 0.04266 0.0
C1019 C 0.32857 0.68342 0.0214 0.0
C1020 C 0.30482 0.68474 0.00295 0.0
C1021 C 0.28442 0.70586 0.00619 0.0
C1022 C 0.3572 0.70297 0.0623 0.0
C1023 C 0.30045 0.66339 0.98036 0.0
C1024 C 0.39423 0.64361 0.99679 0.0
C1025 C 0.39278 0.6197 0.01311 0.0
C1026 C 0.37355 0.66462 -0.00053 0.0
C1027 C 0.35027 0.66106 0.01812 0.0
C1028 C 0.34773 0.63622 0.03346 0.0
C1029 C 0.3695 0.61601 0.03126 0.0
C1030 C 0.37734 0.69107 0.98327 0.0
C1031 C 0.3224 0.63128 0.05256 0.0
H1032 H 0.31201 0.73925 0.06253 0.0
H1033 H 0.26577 0.7067 0.99248 0.0
H1034 H 0.35686 0.68369 0.07473 0.0
H1035 H 0.3777 0.70295 0.05032 0.0
H1036 H 0.35717 0.72088 0.0768 0.0
H1037 H 0.28065 0.66745 0.96786 0.0
H1038 H 0.31932 0.66296 0.96614 0.0
H1039 H 0.29874 0.64256 0.98978 0.0
H1040 H 0.41259 0.64667 0.98312 0.0
H1041 H 0.36855 0.59751 0.04391 0.0
H1042 H 0.37948 0.70871 0.9979 0.0
H1043 H 0.35802 0.69517 0.97019 0.0
H1044 H 0.3967 0.69044 0.9696 0.0
H1045 H 0.32328 0.64585 0.07038 0.0
H1046 H 0.32221 0.60984 0.06079 0.0
H1047 H 0.30175 0.63521 0.04141 0.0
C1048 C 0.3108 0.32431 0.997 0.0
C1049 C 0.30109 0.3164 0.02335 0.0
C1050 C 0.33534 0.34092 0.99411 0.0
C1051 C 0.35044 0.34953 0.01823 0.0
C1052 C 0.34132 0.34049 0.04483 0.0
C1053 C 0.3165 0.32414 0.04709 0.0
C1054 C 0.34412 0.35046 0.96546 0.0
C1055 C 0.35704 0.34909 0.07096 0.0
C1056 C 0.42478 0.3819 0.01149 0.0
C1057 C 0.41787 0.40986 0.01488 0.0
C1058 C 0.403 0.36183 0.01236 0.0
C1059 C 0.37382 0.37025 0.016 0.0
C1060 C 0.36686 0.39869 0.01846 0.0
C1061 C 0.3891 0.41815 0.01827 0.0
C1062 C 0.41121 0.33168 0.01002 0.0
C1063 C 0.33597 0.40858 0.02155 0.0
H1064 H 0.29855 0.31827 0.97874 0.0
H1065 H 0.30872 0.31793 0.06739 0.0
H1066 H 0.3403 0.37304 0.96364 0.0
H1067 H 0.36754 0.34673 0.96203 0.0
H1068 H 0.33179 0.33987 0.94875 0.0
H1069 H 0.3491 0.33797 0.08962 0.0
H1070 H 0.3806 0.34518 0.06876 0.0
H1071 H 0.35401 0.3716 0.0744 0.0
H1072 H 0.44721 0.37577 0.00883 0.0
H1073 H 0.38402 0.43995 0.02058 0.0
H1074 H 0.39935 0.32192 0.99254 0.0
H1075 H 0.40487 0.32072 0.02931 0.0
H1076 H 0.43478 0.32864 0.00666 0.0
H1077 H 0.32261 0.40057 0.00416 0.0
H1078 H 0.3342 0.43149 0.02181 0.0
H1079 H 0.32667 0.4005 0.04115 0.0
C1080 C 0.75618 0.34594 0.99062 0.0
C1081 C 0.74502 0.31977 0.99735 0.0
C1082 C 0.73876 0.36985 0.99178 0.0
C1083 C 0.70907 0.36745 0.99825 0.0
C1084 C 0.69737 0.3412 0.00411 0.0
C1085 C 0.71558 0.31799 0.00455 0.0
C1086 C 0.75219 0.3977 0.98652 0.0
C1087 C 0.66551 0.33754 0.01009 0.0
C1088 C 0.65946 0.42334 0.0263 0.0
C1089 C 0.64332 0.42998 0.00249 0.0
C1090 C 0.68281 0.4047 0.0248 0.0
C1091 C 0.68979 0.39214 0.99898 0.0
C1092 C 0.6751 0.40049 0.97455 0.0
C1093 C 0.65228 0.41957 0.97656 0.0
C1094 C 0.69857 0.39695 0.0512 0.0
C1095 C 0.68143 0.38734 0.94665 0.0
H1096 H 0.77856 0.34799 0.98449 0.0
H1097 H 0.70645 0.29852 0.011 0.0
H1098 H 0.74155 0.40791 0.96855 0.0
H1099 H 0.74879 0.41128 0.00488 0.0
H1100 H 0.77576 0.39614 0.98231 0.0
H1101 H 0.65942 0.31543 0.01175 0.0
H1102 H 0.65977 0.34803 0.02988 0.0
H1103 H 0.65233 0.34716 0.99336 0.0
H1104 H 0.65299 0.43157 0.04637 0.0
H1105 H 0.64022 0.42481 0.95793 0.0
H1106 H 0.72223 0.39569 0.04751 0.0
H1107 H 0.69135 0.37629 0.0582 0.0
H1108 H 0.69431 0.41198 0.06825 0.0
H1109 H 0.70503 0.38593 0.94287 0.0
H1110 H 0.67127 0.39896 0.92924 0.0
H1111 H 0.67285 0.36597 0.94648 0.0
C1112 C 0.00618 0.67727 0.70804 0.0
C1113 C 0.98642 0.69928 0.70967 0.0
C1114 C 0.00696 0.65993 0.68476 0.0
C1115 C 0.9875 0.66473 0.6625 0.0
C1116 C 0.96697 0.68646 0.66424 0.0
C1117 C 0.96671 0.70359 0.68786 0.0
C1118 C 0.02943 0.63711 0.68357 0.0
C1119 C 0.94588 0.692 0.6409 0.0
C1120 C 0.01994 0.63664 0.5966 0.0
C1121 C 0.00846 0.60993 0.59612 0.0
C1122 C 0.01109 0.65587 0.61664 0.0
C1123 C 0.99048 0.648 0.6368 0.0
C1124 C 0.9768 0.62198 0.63474 0.0
C1125 C 0.98594 0.60316 0.61424 0.0
C1126 C 0.02595 0.68355 0.61784 0.0
C1127 C 0.95464 0.61294 0.6558 0.0
H1128 H 0.02181 0.6742 0.7246 0.0
H1129 H 0.95131 0.72052 0.68919 0.0
H1130 H 0.01896 0.61701 0.67918 0.0
H1131 H 0.04485 0.64117 0.66641 0.0
H1132 H 0.04187 0.63525 0.70327 0.0
H1133 H 0.93038 0.70888 0.64606 0.0
H1134 H 0.95783 0.69776 0.62178 0.0
H1135 H 0.93353 0.67302 0.63602 0.0
H1136 H 0.0371 0.642 0.58225 0.0
H1137 H 0.97715 0.5825 0.61392 0.0
H1138 H 0.04172 0.68358 0.63526 0.0
H1139 H 0.01009 0.7004 0.62181 0.0
H1140 H 0.03777 0.68814 0.59829 0.0
H1141 H 0.96585 0.60655 0.6752 0.0
H1142 H 0.94183 0.5952 0.64808 0.0
H1143 H 0.93966 0.63013 0.66116 0.0
C1144 C 0.33539 0.0277 0.70387 0.0
C1145 C 0.33183 0.01254 0.7285 0.0
C1146 C 0.36142 0.02706 0.6892 0.0
C1147 C 0.38537 0.01259 0.70044 0.0
C1148 C 0.38293 0.99944 0.72661 0.0
C1149 C 0.35596 0.999 0.74008 0.0
C1150 C 0.36268 0.04069 0.66093 0.0
C1151 C 0.40849 0.98508 0.73988 0.0
C1152 C 0.43577 0.98823 0.64386 0.0
C1153 C 0.45336 0.01148 0.64073 0.0
C1154 C 0.41469 0.98735 0.66472 0.0
C1155 C 0.41199 0.00983 0.68347 0.0
C1156 C 0.43183 0.03195 0.68222 0.0
C1157 C 0.45197 0.0328 0.66044 0.0
C1158 C 0.39333 0.96386 0.66458 0.0
C1159 C 0.4303 0.0558 0.70247 0.0
H1160 H 0.31743 0.03945 0.69538 0.0
H1161 H 0.35369 0.98734 0.75916 0.0
H1162 H 0.37958 0.05681 0.66072 0.0
H1163 H 0.36852 0.02514 0.64484 0.0
H1164 H 0.34176 0.05043 0.65493 0.0
H1165 H 0.40427 0.97969 0.76196 0.0
H1166 H 0.41358 0.9658 0.72832 0.0
H1167 H 0.4279 0.99842 0.73889 0.0
H1168 H 0.43665 0.97181 0.62849 0.0
H1169 H 0.46576 0.05069 0.65813 0.0
H1170 H 0.37204 0.97159 0.65713 0.0
H1171 H 0.39017 0.95566 0.68586 0.0
H1172 H 0.40034 0.94662 0.65078 0.0
H1173 H 0.41258 0.07007 0.6963 0.0
H1174 H 0.45078 0.06768 0.70281 0.0
H1175 H 0.42559 0.04837 0.72381 0.0
C1176 C 0.99232 0.34536 0.69636 0.0
C1177 C 0.0169 0.32857 0.69901 0.0
C1178 C 0.99222 0.36802 0.67821 0.0
C1179 C 0.0175 0.37411 0.66287 0.0
C1180 C 0.04238 0.35706 0.66555 0.0
C1181 C 0.04166 0.33425 0.68346 0.0
C1182 C 0.96509 0.38533 0.6753 0.0
C1183 C 0.06984 0.36306 0.64974 0.0
C1184 C 0.0182 0.4205 0.59938 0.0
C1185 C 0.02837 0.44523 0.61091 0.0
C1186 C 0.01291 0.39747 0.61629 0.0
C1187 C 0.01868 0.39916 0.64519 0.0
C1188 C 0.02776 0.42445 0.65702 0.0
C1189 C 0.03215 0.44729 0.63976 0.0
C1190 C 0.00237 0.37107 0.60305 0.0
C1191 C 0.03448 0.42697 0.68769 0.0
H1192 H 0.97304 0.34041 0.70813 0.0
H1193 H 0.06045 0.32086 0.68542 0.0
H1194 H 0.96945 0.40696 0.68161 0.0
H1195 H 0.95814 0.38578 0.6532 0.0
H1196 H 0.94702 0.37734 0.68813 0.0
H1197 H 0.08727 0.3478 0.65425 0.0
H1198 H 0.0655 0.36289 0.62704 0.0
H1199 H 0.07773 0.38399 0.6552 0.0
H1200 H 0.01496 0.41897 0.57708 0.0
H1201 H 0.04004 0.46636 0.64877 0.0
H1202 H 0.98453 0.36206 0.61543 0.0
H1203 H 0.02024 0.35567 0.60255 0.0
H1204 H 0.99464 0.37441 0.58141 0.0
H1205 H 0.01578 0.42013 0.70028 0.0
H1206 H 0.03996 0.44846 0.69381 0.0
H1207 H 0.05305 0.4133 0.69297 0.0
C1208 C 0.75458 0.02609 0.70045 0.0
C1209 C 0.73653 0.03018 0.72381 0.0
C1210 C 0.743 0.023 0.67353 0.0
C1211 C 0.71269 0.02218 0.66992 0.0
C1212 C 0.69445 0.02326 0.69344 0.0
C1213 C 0.70639 0.02814 0.71972 0.0
C1214 C 0.76314 0.02225 0.64882 0.0
C1215 C 0.66194 0.02108 0.69075 0.0
C1216 C 0.67099 0.04975 0.60834 0.0
C1217 C 0.66071 0.02526 0.59636 0.0
C1218 C 0.69022 0.04901 0.63091 0.0
C1219 C 0.69939 0.02319 0.64175 0.0
C1220 C 0.69137 0.99851 0.62804 0.0
C1221 C 0.67223 0.99985 0.6054 0.0
C1222 C 0.69852 0.07585 0.64479 0.0
C1223 C 0.70045 0.97053 0.63894 0.0
H1224 H 0.77782 0.02615 0.70268 0.0
H1225 H 0.69141 0.03165 0.73658 0.0
H1226 H 0.75817 0.00438 0.6352 0.0
H1227 H 0.75992 0.04121 0.63622 0.0
H1228 H 0.78621 0.02104 0.65514 0.0
H1229 H 0.65126 0.01809 0.71121 0.0
H1230 H 0.65317 0.04025 0.68124 0.0
H1231 H 0.65606 0.00355 0.67699 0.0
H1232 H 0.66251 0.0695 0.60138 0.0
H1233 H 0.66473 0.98076 0.59612 0.0
H1234 H 0.72193 0.07591 0.64987 0.0
H1235 H 0.68643 0.07812 0.66461 0.0
H1236 H 0.69349 0.09403 0.63152 0.0
H1237 H 0.72341 0.97052 0.64557 0.0
H1238 H 0.69736 0.95401 0.62313 0.0
H1239 H 0.68719 0.96543 0.65744 0.0
C1240 C 0.04528 0.35924 0.30629 0.0
C1241 C 0.03577 0.3319 0.30939 0.0
C1242 C 0.04345 0.37829 0.32825 0.0
C1243 C 0.03319 0.36954 0.3545 0.0
C1244 C 0.02562 0.34155 0.35847 0.0
C1245 C 0.02637 0.32323 0.33577 0.0
C1246 C 0.05108 0.40812 0.3229 0.0
C1247 C 0.01566 0.33116 0.38645 0.0
C1248 C 0.04389 0.42128 0.41335 0.0
C1249 C 0.01622 0.43303 0.41513 0.0
C1250 C 0.04949 0.39941 0.39474 0.0
C1251 C 0.02724 0.39034 0.37662 0.0
C1252 C -0.00072 0.40233 0.37849 0.0
C1253 C 0.99399 0.42311 0.39816 0.0
C1254 C 0.07917 0.38625 0.39428 0.0
C1255 C 0.97521 0.39406 0.35894 0.0
H1256 H 0.05367 0.36608 0.28645 0.0
H1257 H 0.0187 0.30234 0.33865 0.0
H1258 H 0.03181 0.42145 0.32653 0.0
H1259 H 0.06813 0.41495 0.33756 0.0
H1260 H 0.05882 0.41154 0.30131 0.0
H1261 H 0.01535 0.30823 0.38732 0.0
H1262 H 0.02996 0.33896 0.40324 0.0
H1263 H 0.9935 0.33894 0.39076 0.0
H1264 H 0.061 0.42903 0.42664 0.0
H1265 H 0.97268 0.43254 0.39944 0.0
H1266 H 0.09069 0.39228 0.37503 0.0
H1267 H 0.07741 0.36339 0.39417 0.0
H1268 H 0.09246 0.39262 0.41244 0.0
H1269 H 0.9819 0.39777 0.3371 0.0
H1270 H 0.95485 0.40573 0.36296 0.0
H1271 H 0.97069 0.3717 0.36098 0.0
C1272 C 0.68403 0.03291 0.2898 0.0
C1273 C 0.70914 0.04511 0.30046 0.0
C1274 C 0.66046 0.02735 0.30721 0.0
C1275 C 0.66245 0.03371 0.33587 0.0
C1276 C 0.68762 0.04623 0.34667 0.0
C1277 C 0.71039 0.05231 0.32871 0.0
C1278 C 0.63357 0.01456 0.29505 0.0
C1279 C 0.69062 0.05313 0.37724 0.0
C1280 C 0.59884 0.04961 0.38157 0.0
C1281 C 0.59826 0.02621 0.39868 0.0
C1282 C 0.61831 0.05142 0.35955 0.0
C1283 C 0.63763 0.02924 0.35457 0.0
C1284 C 0.63561 0.00461 0.37034 0.0
C1285 C 0.61572 0.00334 0.39232 0.0
C1286 C 0.61976 0.078 0.34317 0.0
C1287 C 0.65594 0.98056 0.36548 0.0
H1288 H 0.68309 0.02696 0.26807 0.0
H1289 H 0.72954 0.06224 0.33695 0.0
H1290 H 0.62895 0.99472 0.30561 0.0
H1291 H 0.6147 0.02839 0.29866 0.0
H1292 H 0.6356 0.01067 0.27234 0.0
H1293 H 0.71237 0.06126 0.38248 0.0
H1294 H 0.67418 0.06884 0.38326 0.0
H1295 H 0.68671 0.03446 0.39002 0.0
H1296 H 0.58488 0.06714 0.38617 0.0
H1297 H 0.61513 0.98521 0.40552 0.0
H1298 H 0.62118 0.07365 0.32054 0.0
H1299 H 0.63951 0.08948 0.34918 0.0
H1300 H 0.6007 0.09158 0.34704 0.0
H1301 H 0.65759 0.97577 0.34296 0.0
H1302 H 0.6489 0.96171 0.37669 0.0
H1303 H 0.6779 0.98609 0.37287 0.0
C1304 C 0.01567 0.69214 0.32428 0.0
C1305 C 0.03416 0.71476 0.32703 0.0
C1306 C 0.01624 0.67066 0.34372 0.0
C1307 C 0.03594 0.67183 0.36627 0.0
C1308 C 0.05598 0.69371 0.36807 0.0
C1309 C 0.05471 0.7151 0.34848 0.0
C1310 C 0.9944 0.64771 0.34117 0.0
C1311 C 0.07763 0.69529 0.39153 0.0
C1312 C 0.00565 0.63846 0.43061 0.0
C1313 C 0.01829 0.61214 0.42936 0.0
C1314 C 0.01269 0.6587 0.41111 0.0
C1315 C 0.03268 0.65229 0.38971 0.0
C1316 C 0.04684 0.62626 0.38936 0.0
C1317 C 0.03937 0.60638 0.40928 0.0
C1318 C -0.00278 0.68628 0.41234 0.0
C1319 C 0.06822 0.61863 0.36686 0.0
H1320 H -0.00032 0.69199 0.30776 0.0
H1321 H 0.06927 0.73248 0.35033 0.0
H1322 H 0.00519 0.62728 0.34317 0.0
H1323 H 0.97837 0.64949 0.35827 0.0
H1324 H 0.98261 0.64837 0.32102 0.0
H1325 H 0.09403 0.71158 0.38797 0.0
H1326 H 0.06619 0.69992 0.4113 0.0
H1327 H 0.08889 0.67515 0.39417 0.0
H1328 H 0.98927 0.64282 0.4462 0.0
H1329 H 0.0484 0.5858 0.40783 0.0
H1330 H 0.98247 0.68829 0.39422 0.0
H1331 H 0.01298 0.70342 0.41119 0.0
H1332 H 0.98426 0.68877 0.43166 0.0
H1333 H 0.05637 0.61425 0.34727 0.0
H1334 H 0.08113 0.59999 0.37243 0.0
H1335 H 0.08318 0.63596 0.36269 0.0
C1336 C 0.33407 0.99805 0.309 0.0
C1337 C 0.30401 0.00119 0.31168 0.0
C1338 C 0.35259 0.00485 0.33116 0.0
C1339 C 0.3406 0.01393 0.35675 0.0
C1340 C 0.31047 0.01747 0.35945 0.0
C1341 C 0.29273 0.01196 0.33668 0.0
C1342 C 0.38487 0.00192 0.32737 0.0
C1343 C 0.29682 0.02648 0.38661 0.0
C1344 C 0.38391 1.00046 0.42201 0.0
C1345 C 0.39566 0.02659 0.42741 0.0
C1346 C 0.36583 0.99614 0.39911 0.0
C1347 C 0.35925 0.01853 0.3813 0.0
C1348 C 0.36963 0.04529 0.38749 0.0
C1349 C 0.38763 0.04905 0.41064 0.0
C1350 C 0.35456 0.96742 0.39349 0.0
C1351 C 0.363 0.06962 0.36887 0.0
H1352 H 0.34315 0.99002 0.28983 0.0
H1353 H 0.2698 0.01611 0.33873 0.0
H1354 H 0.39588 0.02111 0.33413 0.0
H1355 H 0.39316 0.98486 0.34059 0.0
H1356 H 0.39084 0.99752 0.30541 0.0
H1357 H 0.27286 0.02786 0.38527 0.0
H1358 H 0.30259 0.01159 0.40328 0.0
H1359 H 0.30524 0.04693 0.39299 0.0
H1360 H 0.38991 0.98303 0.43498 0.0
H1361 H 0.39677 0.06926 0.41456 0.0
H1362 H 0.36324 0.95968 0.37339 0.0
H1363 H 0.33064 0.96791 0.39168 0.0
H1364 H 0.36072 0.95255 0.41007 0.0
H1365 H 0.37338 0.06634 0.34831 0.0
H1366 H 0.37092 0.0894 0.37776 0.0
H1367 H 0.33939 0.07151 0.36522 0.0
C1368 C 0.02598 0.19307 0.30892 0.0
C1369 C 0.05438 0.20259 0.30602 0.0
C1370 C 0.01913 0.17304 0.32898 0.0
C1371 C 0.04125 0.16221 0.34635 0.0
C1372 C 0.07014 0.17094 0.34262 0.0
C1373 C 0.0763 0.19114 0.3226 0.0
C1374 C 0.98806 0.16423 0.3323 0.0
C1375 C 0.09436 0.15977 0.36052 0.0
C1376 C 0.0169 0.13652 0.41716 0.0
C1377 C 0.01719 0.10791 0.41321 0.0
C1378 C 0.0257 0.15435 0.39584 0.0
C1379 C 0.03386 0.14325 0.36964 0.0
C1380 C 0.03429 0.11422 0.36569 0.0
C1381 C 0.0263 0.09683 0.38774 0.0
C1382 C 0.02563 0.18512 0.40117 0.0
C1383 C 0.04213 0.10159 0.33793 0.0
H1384 H 0.00891 0.20194 0.29624 0.0
H1385 H 0.09827 0.19848 0.32032 0.0
H1386 H 0.98654 0.14137 0.33159 0.0
H1387 H 0.97984 0.17104 0.3529 0.0
H1388 H 0.97381 0.17306 0.31591 0.0
H1389 H 0.11587 0.16736 0.35381 0.0
H1390 H 0.09078 0.16602 0.38249 0.0
H1391 H 0.09462 0.13685 0.35989 0.0
H1392 H 0.0095 0.14491 0.43687 0.0
H1393 H 0.02592 0.07462 0.38469 0.0
H1394 H 0.00948 0.19536 0.3875 0.0
H1395 H 0.04709 0.19387 0.39605 0.0
H1396 H 0.02042 0.19026 0.42315 0.0
H1397 H 0.02675 0.10891 0.32178 0.0
H1398 H 0.04166 0.07865 0.33839 0.0
H1399 H 0.06403 0.10827 0.33153 0.0
C1400 C 0.81216 0.00432 0.3071 0.0
C1401 C 0.81374 0.02875 0.29156 0.0
C1402 C 0.83084 0.99968 0.32946 0.0
C1403 C 0.85269 0.01916 0.33515 0.0
C1404 C 0.85719 0.04159 0.31676 0.0
C1405 C 0.8372 0.04646 0.29528 0.0
C1406 C 0.8247 0.97593 0.34889 0.0
C1407 C 0.8815 0.06176 0.32124 0.0
C1408 C 0.87399 0.03329 0.41003 0.0
C1409 C 0.89849 0.01649 0.4127 0.0
C1410 C 0.85824 0.03358 0.38506 0.0
C1411 C 0.86834 0.01788 0.36199 0.0
C1412 C 0.89309 1.00089 0.3647 0.0
C1413 C 0.90741 0.99985 0.39028 0.0
C1414 C 0.83113 0.05107 0.38321 0.0
C1415 C 0.90525 0.98484 0.34031 0.0
H1416 H 0.79408 0.99051 0.30386 0.0
H1417 H 0.83849 0.06525 0.28312 0.0
H1418 H 0.84488 0.96506 0.35502 0.0
H1419 H 0.81461 0.98414 0.36819 0.0
H1420 H 0.80972 0.96068 0.33947 0.0
H1421 H 0.88548 0.07445 0.3024 0.0
H1422 H 0.87594 0.07588 0.33867 0.0
H1423 H 0.90177 0.05071 0.3269 0.0
H1424 H 0.86739 0.04633 0.4273 0.0
H1425 H 0.92681 0.9873 0.39215 0.0
H1426 H 0.81298 0.03864 0.37487 0.0
H1427 H 0.83466 0.06848 0.36868 0.0
H1428 H 0.82469 0.05969 0.40375 0.0
H1429 H 0.88899 0.97014 0.33221 0.0
H1430 H 0.92513 0.97306 0.34586 0.0
H1431 H 0.91047 0.99925 0.32313 0.0
C1432 C 0.99472 0.81903 0.33636 0.0
C1433 C 0.01737 0.81546 0.31734 0.0
C1434 C 0.99254 0.84302 0.35265 0.0
C1435 C 0.01385 0.86376 0.35018 0.0
C1436 C 0.03678 0.86027 0.33089 0.0
C1437 C 0.03815 0.83616 0.3145 0.0
C1438 C 0.96758 0.84603 0.37272 0.0
C1439 C 0.06026 0.88161 0.32818 0.0
C1440 C 0.99083 0.9354 0.37373 0.0
C1441 C 0.00062 0.93593 0.40135 0.0
C1442 C 0.99568 0.91232 0.35666 0.0
C1443 C 0.01135 0.88942 0.36721 0.0
C1444 C 0.02255 0.89037 0.39468 0.0
C1445 C 0.01668 0.91349 0.4116 0.0
C1446 C 0.98286 0.91196 0.32774 0.0
C1447 C 0.03993 0.86663 0.40651 0.0
H1448 H 0.97893 0.80274 0.33877 0.0
H1449 H 0.05603 0.83298 0.30024 0.0
H1450 H 0.97586 0.84752 0.39433 0.0
H1451 H 0.9554 0.86538 0.36834 0.0
H1452 H 0.9524 0.82838 0.37151 0.0
H1453 H 0.07645 0.87594 0.31205 0.0
H1454 H 0.05069 0.902 0.32283 0.0
H1455 H 0.07155 0.88405 0.34842 0.0
H1456 H 0.97825 0.95262 0.36572 0.0
H1457 H 0.02448 0.91394 0.43287 0.0
H1458 H 0.96662 0.89524 0.3262 0.0
H1459 H -9e-05 0.90749 0.31213 0.0
H1460 H 0.97218 0.93186 0.3223 0.0
H1461 H 0.0254 0.84899 0.41073 0.0
H1462 H 0.05093 0.87236 0.42624 0.0
H1463 H 0.05646 0.85946 0.39136 0.0
C1464 C 0.18002 0.97867 0.28022 0.0
C1465 C 0.2042 0.99441 0.28728 0.0
C1466 C 0.1542 0.98145 0.29558 0.0
C1467 C 0.15323 0.99973 0.31871 0.0
C1468 C 0.17716 0.01678 0.32464 0.0
C1469 C 0.20194 0.01442 0.30835 0.0
C1470 C 0.12853 0.9639 0.28806 0.0
C1471 C 0.17777 0.03577 0.3497 0.0
C1472 C 0.08871 0.02271 0.36139 0.0
C1473 C 0.09069 0.00458 0.38399 0.0
C1474 C 0.10726 0.01973 0.33845 0.0
C1475 C 0.12902 0.99899 0.3389 0.0
C1476 C 0.13041 0.98012 0.36136 0.0
C1477 C 0.11077 0.98281 0.38334 0.0
C1478 C 0.10469 0.03975 0.31453 0.0
C1479 C 0.15422 0.95867 0.3635 0.0
H1480 H 0.1817 0.96344 0.26371 0.0
H1481 H 0.22053 0.02708 0.31333 0.0
H1482 H 0.12587 0.94733 0.30374 0.0
H1483 H 0.10843 0.97657 0.28821 0.0
H1484 H 0.13106 0.95411 0.26727 0.0
H1485 H 0.1976 0.04859 0.35041 0.0
H1486 H 0.1587 0.04974 0.34977 0.0
H1487 H 0.1769 0.02326 0.36901 0.0
H1488 H 0.07309 0.03951 0.36194 0.0
H1489 H 0.11254 0.96903 0.40105 0.0
H1490 H 0.10704 0.02875 0.29436 0.0
H1491 H 0.12225 0.05521 0.31583 0.0
H1492 H 0.08367 0.05098 0.31476 0.0
H1493 H 0.15522 0.94598 0.3443 0.0
H1494 H 0.15127 0.9447 0.38157 0.0
H1495 H 0.17539 0.96914 0.36575 0.0
C1496 C 0.98973 0.84259 0.70616 0.0
C1497 C 0.015 0.82641 0.70672 0.0
C1498 C 0.98728 0.86535 0.688 0.0
C1499 C 0.01077 0.87209 0.67035 0.0
C1500 C 0.03615 0.85556 0.67082 0.0
C1501 C 0.03784 0.83291 0.68885 0.0
C1502 C 0.95961 0.88205 0.68755 0.0
C1503 C 0.06184 0.86207 0.6526 0.0
C1504 C 0.00918 0.91805 0.60635 0.0
C1505 C 0.0214 0.94237 0.61691 0.0
C1506 C 0.0031 0.89564 0.624 0.0
C1507 C 0.01016 0.89739 0.65266 0.0
C1508 C 0.02093 0.92248 0.66359 0.0
C1509 C 0.0261 0.94472 0.64566 0.0
C1510 C 0.9906 0.86962 0.61167 0.0
C1511 C 0.02905 0.92523 0.69392 0.0
H1512 H 0.9718 0.83733 0.71961 0.0
H1513 H 0.05728 0.82024 0.6891 0.0
H1514 H 0.96416 0.90412 0.69186 0.0
H1515 H 0.94974 0.88095 0.66653 0.0
H1516 H 0.94364 0.87457 0.70302 0.0
H1517 H 0.07988 0.84706 0.65539 0.0
H1518 H 0.05531 0.86194 0.63039 0.0
H1519 H 0.06991 0.88307 0.65748 0.0
H1520 H 0.00499 0.91627 0.58422 0.0
H1521 H 0.03535 0.96349 0.65406 0.0
H1522 H 0.97332 0.86134 0.62525 0.0
H1523 H 0.00777 0.85358 0.6101 0.0
H1524 H 0.98153 0.87319 0.59055 0.0
H1525 H 0.01106 0.91831 0.70741 0.0
H1526 H 0.03463 0.9468 0.69965 0.0
H1527 H 0.048 0.91176 0.69841 0.0
C1528 C 0.22814 0.0322 0.6925 0.0
C1529 C 0.22592 0.01265 0.71384 0.0
C1530 C 0.20828 0.03286 0.67069 0.0
C1531 C 0.18505 0.01407 0.67071 0.0
C1532 C 0.18168 0.9952 0.69295 0.0
C1533 C 0.20241 0.99457 0.71432 0.0
C1534 C 0.21262 0.05323 0.64728 0.0
C1535 C 0.15664 0.97536 0.69381 0.0
C1536 C 0.12388 0.0381 0.62493 0.0
C1537 C 0.1282 0.02197 0.60104 0.0
C1538 C 0.14122 0.03446 0.64843 0.0
C1539 C 0.16411 0.015 0.64753 0.0
C1540 C 0.16868 0.99867 0.62339 0.0
C1541 C 0.1502 0.00201 0.60048 0.0
C1542 C 0.1351 0.05152 0.67416 0.0
C1543 C 0.19341 0.97823 0.62153 0.0
H1544 H 0.24608 0.04652 0.69245 0.0
H1545 H 0.20079 0.9794 0.73079 0.0
H1546 H 0.21415 0.04207 0.62713 0.0
H1547 H 0.1938 0.06749 0.64593 0.0
H1548 H 0.23248 0.06574 0.65005 0.0
H1549 H 0.15598 0.9635 0.71356 0.0
H1550 H 0.13589 0.98674 0.69133 0.0
H1551 H 0.15834 0.96054 0.67624 0.0
H1552 H 0.10615 0.05287 0.62563 0.0
H1553 H 0.15302 0.98924 0.5821 0.0
H1554 H 0.15314 0.06606 0.67791 0.0
H1555 H 0.13358 0.03794 0.69267 0.0
H1556 H 0.11471 0.06366 0.67234 0.0
H1557 H 0.21424 0.98946 0.62233 0.0
H1558 H 0.19274 0.96584 0.60204 0.0
H1559 H 0.19304 0.96394 0.63953 0.0
C1560 C 0.01664 0.20179 0.71419 0.0
C1561 C 0.00509 0.22681 0.70416 0.0
C1562 C 0.01666 0.17769 0.69756 0.0
C1563 C 0.0061 0.17891 0.66986 0.0
C1564 C 0.99304 0.2036 0.66026 0.0
C1565 C 0.99172 0.22673 0.67781 0.0
C1566 C 0.02919 0.1513 0.70923 0.0
C1567 C 0.98199 0.2062 0.63075 0.0
C1568 C 0.03938 0.13465 0.61257 0.0
C1569 C 0.01731 0.11567 0.60691 0.0
C1570 C 0.0365 0.15441 0.63389 0.0
C1571 C 0.01078 0.15555 0.64989 0.0
C1572 C 0.98859 0.13616 0.64464 0.0
C1573 C 0.99214 0.11646 0.62328 0.0
C1574 C 0.06078 0.17458 0.63878 0.0
C1575 C 0.96101 0.13634 0.66144 0.0
H1576 H 0.02674 0.20119 0.73451 0.0
H1577 H 0.98113 0.24526 0.67022 0.0
H1578 H 0.01567 0.13334 0.70336 0.0
H1579 H 0.05109 0.14776 0.70046 0.0
H1580 H 0.03102 0.15211 0.73227 0.0
H1581 H 0.97213 0.22678 0.62658 0.0
H1582 H 0.00012 0.20296 0.61594 0.0
H1583 H 0.96566 0.1901 0.62639 0.0
H1584 H 0.05905 0.13409 0.60035 0.0
H1585 H 0.97503 0.10177 0.61925 0.0
H1586 H 0.06779 0.17384 0.66084 0.0
H1587 H 0.05304 0.19592 0.63456 0.0
H1588 H 0.07985 0.17023 0.62536 0.0
H1589 H 0.96615 0.13373 0.68384 0.0
H1590 H 0.94597 0.1197 0.65497 0.0
H1591 H 0.94972 0.15651 0.6592 0.0
C1592 C 0.84553 0.06452 0.73038 0.0
C1593 C 0.85154 0.0491 0.75435 0.0
C1594 C 0.85737 0.05697 0.70468 0.0
C1595 C 0.877 0.03447 0.70334 0.0
C1596 C 0.88351 0.01906 0.72755 0.0
C1597 C 0.87042 0.02644 0.75281 0.0
C1598 C 0.84935 0.07342 0.6791 0.0
C1599 C 0.90508 0.99549 0.72695 0.0
C1600 C 0.89938 0.00658 0.63261 0.0
C1601 C 0.92385 0.0226 0.62753 0.0
C1602 C 0.88363 0.01015 0.65736 0.0
C1603 C 0.89343 0.02943 0.67746 0.0
C1604 C 0.91877 0.04486 0.67261 0.0
C1605 C 0.93343 0.0415 0.64752 0.0
C1606 C 0.85622 0.99397 0.66167 0.0
C1607 C 0.93018 0.06534 0.69367 0.0
H1608 H 0.8313 0.08237 0.7316 0.0
H1609 H 0.87518 0.01465 0.77144 0.0
H1610 H 0.86825 0.08553 0.67205 0.0
H1611 H 0.84323 0.05935 0.66184 0.0
H1612 H 0.83109 0.08794 0.68307 0.0
H1613 H 0.90645 0.98456 0.74722 0.0
H1614 H 0.89922 0.98037 0.71056 0.0
H1615 H 0.92683 0.00354 0.72172 0.0
H1616 H 0.89203 0.99214 0.61688 0.0
H1617 H 0.95256 0.05371 0.64347 0.0
H1618 H 0.83795 0.00827 0.66614 0.0
H1619 H 0.85866 0.98022 0.67995 0.0
H1620 H 0.85061 0.98116 0.64325 0.0
H1621 H 0.9147 0.08281 0.69595 0.0
H1622 H 0.95151 0.07383 0.68757 0.0
H1623 H 0.9324 0.0554 0.71435 0.0
C1624 C 0.32587 0.04081 0.16598 0.0
C1625 C 0.31764 0.0192 0.1834 0.0
C1626 C 0.34899 0.03757 0.14743 0.0
C1627 C 0.36493 0.01244 0.14717 0.0
C1628 C 0.35706 0.9907 0.16524 0.0
C1629 C 0.33313 0.99421 0.18292 0.0
C1630 C 0.35627 0.06104 0.12801 0.0
C1631 C 0.37436 0.96417 0.1665 0.0
C1632 C 0.40501 0.00353 0.07953 0.0
C1633 C 0.43066 0.0177 0.08541 0.0
C1634 C 0.38422 0.99933 0.10025 0.0
C1635 C 0.38946 0.00927 0.12749 0.0
C1636 C 0.41675 0.02057 0.13425 0.0
C1637 C 0.43701 0.02487 0.11302 0.0
C1638 C 0.35555 0.98684 0.09221 0.0
C1639 C 0.42365 0.03037 0.16332 0.0
H1640 H 0.31391 0.06016 0.16663 0.0
H1641 H 0.32712 0.97775 0.197 0.0
H1642 H 0.37839 0.06862 0.13245 0.0
H1643 H 0.35599 0.05368 0.10612 0.0
H1644 H 0.3409 0.07868 0.12999 0.0
H1645 H 0.36381 0.94836 0.17972 0.0
H1646 H 0.37761 0.95545 0.14537 0.0
H1647 H 0.3961 0.96849 0.17521 0.0
H1648 H 0.40008 0.99759 0.05831 0.0
H1649 H 0.4571 0.03529 0.11782 0.0
H1650 H 0.33887 0.00342 0.0913 0.0
H1651 H 0.34845 0.97161 0.10793 0.0
H1652 H 0.35651 0.97646 0.07157 0.0
H1653 H 0.41304 0.05067 0.16702 0.0
H1654 H 0.4473 0.03288 0.16647 0.0
H1655 H 0.41532 0.01572 0.17907 0.0
C1656 C 0.05294 0.32686 0.19452 0.0
C1657 C 0.02712 0.31851 0.20698 0.0
C1658 C 0.05277 0.34567 0.17236 0.0
C1659 C 0.02605 0.35617 0.16232 0.0
C1660 C -0.00019 0.3458 0.17326 0.0
C1661 C 0.00066 0.32735 0.19585 0.0
C1662 C 0.08127 0.35629 0.16157 0.0
C1663 C 0.97091 0.35577 0.16254 0.0
C1664 C 0.02953 0.43109 0.1399 0.0
C1665 C 0.03353 0.42878 0.11107 0.0
C1666 C 0.02601 0.40763 0.15656 0.0
C1667 C 0.02591 0.38108 0.1441 0.0
C1668 C 0.02819 0.37864 0.1148 0.0
C1669 C 0.03224 0.40253 0.0986 0.0
C1670 C 0.02392 0.41125 0.18775 0.0
C1671 C 0.0275 0.35078 0.10069 0.0
H1672 H 0.07336 0.32025 0.20351 0.0
H1673 H 0.98072 0.32104 0.20576 0.0
H1674 H 0.08159 0.35607 0.1385 0.0
H1675 H 0.08412 0.37804 0.16837 0.0
H1676 H 0.09991 0.34391 0.16931 0.0
H1677 H 0.95299 0.34222 0.16944 0.0
H1678 H 0.9666 0.37697 0.17039 0.0
H1679 H 0.97094 0.35667 0.13947 0.0
H1680 H 0.03034 0.45124 0.14974 0.0
H1681 H 0.03505 0.40055 0.07629 0.0
H1682 H 0.0427 0.40105 0.19794 0.0
H1683 H 0.0041 0.40123 0.19573 0.0
H1684 H 0.02349 0.43334 0.19408 0.0
H1685 H 0.04823 0.33974 0.10445 0.0
H1686 H 0.02439 0.35264 0.07789 0.0
H1687 H 0.00992 0.3379 0.10935 0.0
C1688 C 0.70749 0.06384 0.17002 0.0
C1689 C 0.72115 0.03839 0.17519 0.0
C1690 C 0.68284 0.06536 0.15295 0.0
C1691 C 0.67183 0.04089 0.14088 0.0
C1692 C 0.68502 0.01509 0.1469 0.0
C1693 C 0.70957 0.0142 0.16392 0.0
C1694 C 0.66894 0.0931 0.14735 0.0
C1695 C 0.67387 0.98847 0.13451 0.0
C1696 C 0.59906 0.03238 0.10586 0.0
C1697 C 0.6073 0.03211 0.07777 0.0
C1698 C 0.61944 0.03749 0.1269 0.0
C1699 C 0.64865 0.04213 0.11953 0.0
C1700 C 0.65651 0.04402 0.09116 0.0
C1701 C 0.63566 0.03925 0.07062 0.0
C1702 C 0.61011 0.03574 0.15693 0.0
C1703 C 0.68743 0.04902 0.08246 0.0
H1704 H 0.71615 0.08257 0.17906 0.0
H1705 H 0.71992 0.9945 0.16828 0.0
H1706 H 0.67146 0.09847 0.12506 0.0
H1707 H 0.6454 0.09226 0.15169 0.0
H1708 H 0.6786 0.10982 0.16014 0.0
H1709 H 0.68556 0.97003 0.14258 0.0
H1710 H 0.6505 0.98616 0.13908 0.0
H1711 H 0.67631 0.98896 0.11154 0.0
H1712 H 0.57706 0.02721 0.11152 0.0
H1713 H 0.64216 0.03933 0.04896 0.0
H1714 H 0.62074 0.05189 0.16967 0.0
H1715 H 0.61664 0.01536 0.16549 0.0
H1716 H 0.58629 0.03792 0.15914 0.0
H1717 H 0.69464 0.06939 0.09038 0.0
H1718 H 0.69022 0.04855 0.05952 0.0
H1719 H 0.70191 0.03306 0.09159 0.0
C1720 C 0.04683 0.69093 0.19676 0.0
C1721 C 0.03111 0.71564 0.19889 0.0
C1722 C 0.03987 0.67092 0.17682 0.0
C1723 C 0.01693 0.67595 0.15791 0.0
C1724 C 0.00038 0.70064 0.16036 0.0
C1725 C 0.00749 0.72017 0.18111 0.0
C1726 C 0.05791 0.6448 0.17538 0.0
C1727 C 0.97596 0.70684 0.14046 0.0
C1728 C 0.03393 0.6374 0.09165 0.0
C1729 C 0.01916 0.61253 0.09571 0.0
C1730 C 0.03092 0.65948 0.11035 0.0
C1731 C 0.013 0.65655 0.13401 0.0
C1732 C 0.99594 0.63244 0.13681 0.0
C1733 C -0.00088 0.61067 0.11747 0.0
C1734 C 0.04924 0.68485 0.10613 0.0
C1735 C 0.97643 0.62846 0.16159 0.0
H1736 H 0.06487 0.68727 0.21074 0.0
H1737 H 0.99525 0.73928 0.18281 0.0
H1738 H 0.04376 0.62638 0.1752 0.0
H1739 H 0.07061 0.64454 0.15579 0.0
H1740 H 0.07317 0.64296 0.19315 0.0
H1741 H 0.96412 0.7261 0.14608 0.0
H1742 H 0.98464 0.70906 0.11906 0.0
H1743 H 0.96047 0.68945 0.14005 0.0
H1744 H 0.04916 0.63909 0.07459 0.0
H1745 H 0.98767 0.59148 0.12067 0.0
H1746 H 0.06799 0.68411 0.12055 0.0
H1747 H 0.03673 0.70393 0.11078 0.0
H1748 H 0.05759 0.68611 0.08453 0.0
H1749 H 0.98975 0.62275 0.17994 0.0
H1750 H 0.96046 0.61178 0.15792 0.0
H1751 H 0.96468 0.64785 0.16676 0.0
C1752 C 0.33242 0.96693 0.83112 0.0
C1753 C 0.30958 0.98571 0.83464 0.0
C1754 C 0.35974 0.97227 0.84244 0.0
C1755 C 0.36391 0.99657 0.8583 0.0
C1756 C 0.34106 0.01606 0.86112 0.0
C1757 C 0.31417 0.01054 0.84888 0.0
C1758 C 0.3836 0.95115 0.83889 0.0
C1759 C 0.34432 0.04169 0.87882 0.0
C1760 C 0.41212 0.99262 0.92164 0.0
C1761 C 0.4349 0.00976 0.91403 0.0
C1762 C 0.38936 0.98737 0.90322 0.0
C1763 C 0.38982 0.99905 0.87624 0.0
C1764 C 0.41392 0.0147 0.86764 0.0
C1765 C 0.4361 0.02014 0.88681 0.0
C1766 C 0.36435 0.97042 0.91364 0.0
C1767 C 0.41545 0.02693 0.83883 0.0
H1768 H 0.32887 0.94799 0.81956 0.0
H1769 H 0.29643 0.0251 0.85136 0.0
H1770 H 0.40435 0.9614 0.83389 0.0
H1771 H 0.38662 0.93978 0.85872 0.0
H1772 H 0.37859 0.93598 0.82221 0.0
H1773 H 0.32558 0.05601 0.87668 0.0
H1774 H 0.34627 0.03561 0.90101 0.0
H1775 H 0.36431 0.05288 0.87318 0.0
H1776 H 0.41064 0.98534 0.9428 0.0
H1777 H 0.45373 0.0336 0.88093 0.0
H1778 H 0.37132 0.94845 0.91455 0.0
H1779 H 0.34463 0.97161 0.90061 0.0
H1780 H 0.35832 0.97723 0.93495 0.0
H1781 H 0.41105 0.01084 0.82292 0.0
H1782 H 0.43686 0.03626 0.83451 0.0
H1783 H 0.39859 0.04319 0.83651 0.0
C1784 C 0.01143 0.31767 0.84432 0.0
C1785 C 0.03588 0.31922 0.82716 0.0
C1786 C 0.00637 0.33765 0.86524 0.0
C1787 C 0.02581 0.36001 0.86856 0.0
C1788 C 0.05132 0.36063 0.8523 0.0
C1789 C 0.0561 0.34016 0.83201 0.0
C1790 C 0.97955 0.33562 0.88293 0.0
C1791 C 0.07269 0.38394 0.85501 0.0
C1792 C 0.99408 0.4303 0.88691 0.0
C1793 C 0.00259 0.43403 0.91469 0.0
C1794 C 0.00114 0.40619 0.87212 0.0
C1795 C 0.01731 0.38496 0.88524 0.0
C1796 C 0.02613 0.38847 0.91334 0.0
C1797 C 0.01856 0.41294 0.92779 0.0
C1798 C 0.99143 0.40361 0.84219 0.0
C1799 C 0.04317 0.36632 0.92829 0.0
H1800 H 0.99594 0.30128 0.84101 0.0
H1801 H 0.07518 0.34131 0.81897 0.0
H1802 H 0.9851 0.3386 0.9052 0.0
H1803 H 0.96409 0.35226 0.8771 0.0
H1804 H 0.96865 0.31538 0.88043 0.0
H1805 H 0.09278 0.38 0.84293 0.0
H1806 H 0.06263 0.40339 0.84736 0.0
H1807 H 0.07854 0.38722 0.87716 0.0
H1808 H 0.98167 0.44631 0.87652 0.0
H1809 H 0.02506 0.41548 0.94931 0.0
H1810 H 0.97778 0.38501 0.83961 0.0
H1811 H 0.01051 0.40103 0.82842 0.0
H1812 H 0.97886 0.42192 0.83508 0.0
H1813 H 0.02874 0.34868 0.93288 0.0
H1814 H 0.05237 0.37394 0.94823 0.0
H1815 H 0.06106 0.35838 0.91507 0.0
C1816 C 0.7258 0.05427 0.85063 0.0
C1817 C 0.71738 0.05635 0.82267 0.0
C1818 C 0.70502 0.05393 0.87186 0.0
C1819 C 0.67536 0.05491 0.8647 0.0
C1820 C 0.6669 0.05928 0.83679 0.0
C1821 C 0.68808 0.06034 0.81616 0.0
C1822 C 0.71471 0.05041 0.90164 0.0
C1823 C 0.63542 0.0604 0.82835 0.0
C1824 C 0.62457 0.00907 0.90426 0.0
C1825 C 0.60807 0.02826 0.91946 0.0
C1826 C 0.64705 0.01758 0.88702 0.0
C1827 C 0.65334 0.04605 0.88497 0.0
C1828 C 0.63714 0.0656 0.90043 0.0
C1829 C 0.61456 0.0564 0.91746 0.0
C1830 C 0.66365 0.99604 0.87056 0.0
C1831 C 0.64366 0.0961 0.89909 0.0
H1832 H 0.74844 0.05151 0.85588 0.0
H1833 H 0.68154 0.06313 0.79467 0.0
H1834 H 0.70168 0.06372 0.91574 0.0
H1835 H 0.71147 0.02866 0.9081 0.0
H1836 H 0.73795 0.05548 0.90433 0.0
H1837 H 0.63256 0.06696 0.80637 0.0
H1838 H 0.62577 0.03961 0.83081 0.0
H1839 H 0.62316 0.07483 0.84195 0.0
H1840 H 0.62001 0.98719 0.90582 0.0
H1841 H 0.60195 0.07128 0.92886 0.0
H1842 H 0.68703 0.99717 0.87557 0.0
H1843 H 0.66124 1.00008 0.84795 0.0
H1844 H 0.65616 0.97471 0.87485 0.0
H1845 H 0.6648 0.10004 0.90924 0.0
H1846 H 0.62685 0.1088 0.9097 0.0
H1847 H 0.64544 0.10308 0.8772 0.0
C1848 C 0.02764 0.69643 0.81233 0.0
C1849 C 0.00376 0.71433 0.81031 0.0
C1850 C 0.03142 0.67924 0.83551 0.0
C1851 C 0.01063 0.67977 0.85711 0.0
C1852 C 0.9876 0.69929 0.8561 0.0
C1853 C 0.98446 0.71644 0.83263 0.0
C1854 C 0.05643 0.65901 0.8358 0.0
C1855 C 0.96498 0.7005 0.8787 0.0
C1856 C -0.0022 0.61051 0.89176 0.0
C1857 C 0.01156 0.61396 0.91745 0.0
C1858 C -0.00317 0.63204 0.87231 0.0
C1859 C 0.01074 0.65738 0.87838 0.0
C1860 C 0.02516 0.66074 0.90421 0.0
C1861 C 0.0249 0.6391 0.92372 0.0
C1862 C 0.9806 0.62774 0.84537 0.0
C1863 C 0.04098 0.68705 0.91112 0.0
H1864 H 0.04253 0.69481 0.79497 0.0
H1865 H 0.96587 0.7301 0.83091 0.0
H1866 H 0.06708 0.65882 0.8565 0.0
H1867 H 0.04829 0.63786 0.83176 0.0
H1868 H 0.07285 0.66394 0.81972 0.0
H1869 H 0.95077 0.71899 0.87673 0.0
H1870 H 0.95132 0.68176 0.87754 0.0
H1871 H 0.97529 0.70072 0.89955 0.0
H1872 H 0.98694 0.59121 0.88728 0.0
H1873 H 0.03528 0.6417 0.94378 0.0
H1874 H 0.99568 0.62933 0.82752 0.0
H1875 H 0.96388 0.6441 0.84281 0.0
H1876 H 0.96985 0.60729 0.84445 0.0
H1877 H 0.05862 0.69029 0.89585 0.0
H1878 H 0.0505 0.68662 0.93235 0.0
H1879 H 0.02609 0.70503 0.90953 0.0
C1880 C 0.18852 0.33687 0.0532 0.0
C1881 C 0.19434 0.32055 0.02974 0.0
C1882 C 0.16563 0.35606 0.05308 0.0
C1883 C 0.149 0.35945 0.02858 0.0
C1884 C 0.1539 0.34186 0.0054 0.0
C1885 C 0.1764 0.32238 0.00639 0.0
C1886 C 0.16054 0.37391 0.07842 0.0
C1887 C 0.13701 0.34516 0.97866 0.0
C1888 C 0.0819 0.40378 0.01904 0.0
C1889 C 0.09384 0.42651 0.00531 0.0
C1890 C 0.09982 0.38232 0.02884 0.0
C1891 C 0.13013 0.38407 0.025 0.0
C1892 C 0.14225 0.40829 0.01355 0.0
C1893 C 0.12392 0.42915 0.00377 0.0
C1894 C 0.0863 0.35708 0.04162 0.0
C1895 C 0.17448 0.41126 0.00942 0.0
H1896 H 0.20246 0.3352 0.07129 0.0
H1897 H 0.18117 0.30981 0.98823 0.0
H1898 H 0.16876 0.39502 0.07448 0.0
H1899 H 0.13708 0.37578 0.08291 0.0
H1900 H 0.17171 0.36554 0.09709 0.0
H1901 H 0.14159 0.32823 0.96362 0.0
H1902 H 0.11345 0.34568 0.98295 0.0
H1903 H 0.14272 0.36508 0.96875 0.0
H1904 H 0.0586 0.40197 0.0206 0.0
H1905 H 0.13317 0.44711 0.99379 0.0
H1906 H 0.0959 0.35309 0.0624 0.0
H1907 H 0.09085 0.33868 0.02848 0.0
H1908 H 0.06252 0.35936 0.04386 0.0
H1909 H 0.18633 0.40608 0.0288 0.0
H1910 H 0.1805 0.43252 0.00305 0.0
H1911 H 0.18188 0.39664 0.99304 0.0
C1912 C 0.15715 0.72776 0.03555 0.0
C1913 C 0.18618 0.72047 0.03115 0.0
C1914 C 0.13516 0.70794 0.03252 0.0
C1915 C 0.14257 0.68043 0.02501 0.0
C1916 C 0.17186 0.67305 0.02085 0.0
C1917 C 0.19308 0.69315 0.02355 0.0
C1918 C 0.10408 0.71642 0.03699 0.0
C1919 C 0.18087 0.64412 0.01235 0.0
C1920 C 0.0993 0.61477 0.02952 0.0
C1921 C 0.09047 0.61154 0.00184 0.0
C1922 C 0.11317 0.63902 0.03835 0.0
C1923 C 0.12015 0.65958 0.01856 0.0
C1924 C 0.11058 0.6568 0.99077 0.0
C1925 C 0.09539 0.63315 0.98294 0.0
C1926 C 0.1221 0.64178 0.06842 0.0
C1927 C 0.11863 0.67749 0.9686 0.0
H1928 H 0.15168 0.74885 0.04118 0.0
H1929 H 0.21525 0.68746 0.01883 0.0
H1930 H 0.09147 0.71322 0.01762 0.0
H1931 H 0.09431 0.70323 0.05323 0.0
H1932 H 0.10192 0.73842 0.04337 0.0
H1933 H 0.20474 0.64168 0.01088 0.0
H1934 H 0.17275 0.62886 0.02759 0.0
H1935 H 0.17133 0.63894 0.99181 0.0
H1936 H 0.09663 0.598 0.04398 0.0
H1937 H 0.08869 0.63107 0.96143 0.0
H1938 H 0.11836 0.6632 0.07595 0.0
H1939 H 0.14554 0.63719 0.07046 0.0
H1940 H 0.11005 0.6273 0.082 0.0
H1941 H 0.11437 0.6989 0.97583 0.0
H1942 H 0.10666 0.67406 0.94885 0.0
H1943 H 0.14213 0.67573 0.96417 0.0
C1944 C 0.29447 0.17566 0.04157 0.0
C1945 C 0.28438 0.19727 0.02482 0.0
C1946 C 0.32074 0.16228 0.03567 0.0
C1947 C 0.33778 0.17154 0.01311 0.0
C1948 C 0.32768 0.19341 0.99612 0.0
C1949 C 0.30068 0.20556 0.00175 0.0
C1950 C 0.33021 0.13825 0.05359 0.0
C1951 C 0.34567 0.20437 0.97242 0.0
C1952 C 0.41676 0.15067 0.01881 0.0
C1953 C 0.41802 0.12834 0.00031 0.0
C1954 C 0.39113 0.16606 0.02196 0.0
C1955 C 0.366 0.158 0.0072 0.0
C1956 C 0.36742 0.13577 0.98807 0.0
C1957 C 0.39362 0.12156 0.98445 0.0
C1958 C 0.39068 0.19036 0.04171 0.0
C1959 C 0.34087 0.12577 0.97282 0.0
H1960 H 0.28172 0.16917 0.05929 0.0
H1961 H 0.29284 0.22212 0.98857 0.0
H1962 H 0.33499 0.11995 0.04036 0.0
H1963 H 0.35039 0.14352 0.06483 0.0
H1964 H 0.31354 0.1325 0.06913 0.0
H1965 H 0.3353 0.22238 0.96205 0.0
H1966 H 0.36724 0.21067 0.98025 0.0
H1967 H 0.3493 0.18793 0.95666 0.0
H1968 H 0.43568 0.15581 0.03106 0.0
H1969 H 0.3945 0.10392 0.9705 0.0
H1970 H 0.37734 0.18538 0.06017 0.0
H1971 H 0.38069 0.20863 0.03151 0.0
H1972 H 0.41272 0.19592 0.04893 0.0
H1973 H 0.32508 0.11761 0.98806 0.0
H1974 H 0.34602 0.10919 0.95754 0.0
H1975 H 0.33015 0.14307 0.9617 0.0
C1976 C 0.9044 0.30783 0.97669 0.0
C1977 C 0.87967 0.30547 0.99331 0.0
C1978 C 0.92242 0.331 0.97895 0.0
C1979 C 0.91482 0.35254 0.99759 0.0
C1980 C 0.88949 0.35039 0.01398 0.0
C1981 C 0.87254 0.32664 0.01201 0.0
C1982 C 0.9496 0.33236 0.96163 0.0
C1983 C 0.88006 0.37333 0.03343 0.0
C1984 C 0.96521 0.40452 0.02992 0.0
C1985 C 0.95735 0.42856 0.01547 0.0
C1986 C 0.95333 0.37891 0.0227 0.0
C1987 C 0.93317 0.37741 0.00058 0.0
C1988 C 0.92731 0.40112 0.98429 0.0
C1989 C 0.93964 0.42643 0.99185 0.0
C1990 C 0.96053 0.35389 0.04014 0.0
C1991 C 0.90592 0.40044 0.96054 0.0
H1992 H 0.90978 0.2914 0.96218 0.0
H1993 H 0.85323 0.32504 0.02466 0.0
H1994 H 0.9496 0.35143 0.94886 0.0
H1995 H 0.96878 0.33332 0.97548 0.0
H1996 H 0.95201 0.31423 0.94759 0.0
H1997 H 0.85911 0.36889 0.04374 0.0
H1998 H 0.89668 0.37652 0.04976 0.0
H1999 H 0.87783 0.39299 0.02176 0.0
H2000 H 0.97934 0.40592 0.04788 0.0
H2001 H 0.93388 0.44485 0.98024 0.0
H2002 H 0.96635 0.33612 0.02659 0.0
H2003 H 0.94131 0.34787 0.05248 0.0
H2004 H 0.97863 0.35787 0.05474 0.0
H2005 H 0.90943 0.38196 0.94727 0.0
H2006 H 0.9073 0.4192 0.94732 0.0
H2007 H 0.88367 0.3992 0.96908 0.0
C2008 C 0.71036 0.8288 0.98235 0.0
C2009 C 0.73073 0.82508 0.00356 0.0
C2010 C 0.68837 0.84853 0.9848 0.0
C2011 C 0.68736 0.86564 0.00868 0.0
C2012 C 0.70904 0.86319 0.02944 0.0
C2013 C 0.7303 0.8424 0.02689 0.0
C2014 C 0.6653 0.84995 0.96252 0.0
C2015 C 0.70909 0.88173 0.05472 0.0
C2016 C 0.6398 0.92779 0.99568 0.0
C2017 C 0.61387 0.91966 0.00809 0.0
C2018 C 0.66468 0.91134 0.99774 0.0
C2019 C 0.66316 0.88567 0.01162 0.0
C2020 C 0.63711 0.87772 0.02489 0.0
C2021 C 0.61278 0.89519 0.02341 0.0
C2022 C 0.69228 0.92095 0.98417 0.0
C2023 C 0.63443 0.85014 0.03924 0.0
H2024 H 0.71048 0.81479 0.96468 0.0
H2025 H 0.74575 0.83894 0.04352 0.0
H2026 H 0.64377 0.84602 0.97184 0.0
H2027 H 0.66457 0.8709 0.95323 0.0
H2028 H 0.66902 0.83468 0.94558 0.0
H2029 H 0.7292 0.87932 0.06717 0.0
H2030 H 0.70679 0.90368 0.0484 0.0
H2031 H 0.69037 0.87679 0.06818 0.0
H2032 H 0.64062 0.94718 0.98443 0.0
H2033 H 0.59266 0.88928 0.03326 0.0
H2034 H 0.69684 0.90819 0.96546 0.0
H2035 H 0.71083 0.91834 0.99863 0.0
H2036 H 0.69097 0.94295 0.97772 0.0
H2037 H 0.63582 0.83334 0.02352 0.0
H2038 H 0.61364 0.84818 0.05062 0.0
H2039 H 0.65247 0.84699 0.05412 0.0
C2040 C 0.88064 0.74206 0.00121 0.0
C2041 C 0.85516 0.7419 0.98549 0.0
C2042 C 0.89626 0.71755 0.00593 0.0
C2043 C 0.88583 0.69231 0.99497 0.0
C2044 C 0.86059 0.69217 0.97834 0.0
C2045 C 0.8457 0.71704 0.97356 0.0
C2046 C 0.92326 0.71849 0.0236 0.0
C2047 C 0.84844 0.6656 0.96684 0.0
C2048 C 0.93679 0.63038 0.99647 0.0
C2049 C 0.92949 0.61842 0.02197 0.0
C2050 C 0.92235 0.65418 0.98693 0.0
C2051 C 0.89981 0.66586 0.00319 0.0
C2052 C 0.89139 0.65296 0.02827 0.0
C2053 C 0.9065 0.62955 0.03745 0.0
C2054 C 0.93201 0.66744 0.96012 0.0
C2055 C 0.86704 0.66437 0.04594 0.0
H2056 H 0.88797 0.76127 0.01039 0.0
H2057 H 0.82603 0.71673 0.96131 0.0
H2058 H 0.91944 0.70755 0.04351 0.0
H2059 H 0.94136 0.70771 0.01287 0.0
H2060 H 0.92994 0.73999 0.02838 0.0
H2061 H 0.82989 0.66927 0.95259 0.0
H2062 H 0.86541 0.65386 0.95547 0.0
H2063 H 0.84102 0.65239 0.98424 0.0
H2064 H 0.95455 0.6219 0.98459 0.0
H2065 H 0.90052 0.62015 0.05706 0.0
H2066 H 0.94145 0.68798 0.96468 0.0
H2067 H 0.91325 0.67087 0.94613 0.0
H2068 H 0.94843 0.65473 0.94897 0.0
H2069 H 0.87332 0.68472 0.05464 0.0
H2070 H 0.86152 0.65046 0.06348 0.0
H2071 H 0.84738 0.66769 0.03309 0.0
C2072 C 0.28291 0.84131 0.99728 0.0
C2073 C 0.25575 0.85071 0.00634 0.0
C2074 C 0.30711 0.85854 0.99825 0.0
C2075 C 0.3037 0.88632 0.00693 0.0
C2076 C 0.27606 0.89633 0.01483 0.0
C2077 C 0.25248 0.87818 0.01501 0.0
C2078 C 0.3364 0.84681 0.9905 0.0
C2079 C 0.2714 0.92621 0.02284 0.0
C2080 C 0.37095 0.92383 0.03116 0.0
C2081 C 0.38075 0.93553 0.00621 0.0
C2082 C 0.3456 0.90812 0.03186 0.0
C2083 C 0.32911 0.90489 0.00725 0.0
C2084 C 0.33808 0.91784 0.98239 0.0
C2085 C 0.36417 0.93238 0.98206 0.0
C2086 C 0.33741 0.89371 0.05853 0.0
C2087 C 0.32073 0.91548 0.95586 0.0
H2088 H 0.28556 0.82029 0.99004 0.0
H2089 H 0.23141 0.88552 0.02175 0.0
H2090 H 0.34467 0.85724 0.97163 0.0
H2091 H 0.35213 0.85065 0.00751 0.0
H2092 H 0.33568 0.82423 0.98636 0.0
H2093 H 0.24838 0.93094 0.02755 0.0
H2094 H 0.28464 0.93138 0.04136 0.0
H2095 H 0.27862 0.93981 0.00565 0.0
H2096 H 0.38378 0.92586 0.04993 0.0
H2097 H 0.37197 0.94077 0.96275 0.0
H2098 H 0.33929 0.87102 0.05556 0.0
H2099 H 0.31461 0.89831 0.06404 0.0
H2100 H 0.35144 0.89982 0.07625 0.0
H2101 H 0.32457 0.89491 0.94629 0.0
H2102 H 0.32685 0.93146 0.94049 0.0
H2103 H 0.29723 0.91748 0.9601 0.0
C2104 C 0.7273 0.21468 0.01508 0.0
C2105 C 0.75361 0.21682 0.00083 0.0
C2106 C 0.7115 0.19018 0.01469 0.0
C2107 C 0.72251 0.16702 -1e-05 0.0
C2108 C 0.74985 0.16848 0.98686 0.0
C2109 C 0.76512 0.19349 0.98735 0.0
C2110 C 0.68239 0.18955 0.02897 0.0
C2111 C 0.76242 0.14396 0.97152 0.0
C2112 C 0.67887 0.10385 0.01754 0.0
C2113 C 0.65823 0.10442 0.9962 0.0
C2114 C 0.70209 0.12236 0.01755 0.0
C2115 C 0.70382 0.14252 0.99633 0.0
C2116 C 0.68415 0.14187 0.97376 0.0
C2117 C 0.66187 0.12248 0.97376 0.0
C2118 C 0.72328 0.12172 0.04143 0.0
C2119 C 0.6846 0.1635 0.95114 0.0
H2120 H 0.71874 0.23248 0.02618 0.0
H2121 H 0.78554 0.19506 0.97642 0.0
H2122 H 0.66512 0.18593 0.01335 0.0
H2123 H 0.68164 0.17232 0.04411 0.0
H2124 H 0.67743 0.20912 0.04019 0.0
H2125 H 0.78527 0.14735 0.96536 0.0
H2126 H 0.76127 0.12516 0.98463 0.0
H2127 H 0.74957 0.13993 0.95245 0.0
H2128 H 0.67608 0.08989 0.03489 0.0
H2129 H 0.64575 0.12324 0.9574 0.0
H2130 H 0.71746 0.13805 0.05671 0.0
H2131 H 0.74557 0.12587 0.03405 0.0
H2132 H 0.72308 0.1015 0.05232 0.0
H2133 H 0.67745 0.18364 0.95993 0.0
H2134 H 0.67007 0.15818 0.93352 0.0
H2135 H 0.70681 0.16623 0.94298 0.0
C2136 C 0.52804 0.68528 0.79211 0.0
C2137 C 0.55124 0.7029 0.79792 0.0
C2138 C 0.52056 0.66403 0.8107 0.0
C2139 C 0.53637 0.66074 0.83579 0.0
C2140 C 0.56049 0.67783 0.84109 0.0
C2141 C 0.56772 0.69853 0.82199 0.0
C2142 C 0.49502 0.64591 0.80408 0.0
C2143 C 0.57776 0.67527 0.86767 0.0
C2144 C 0.49839 0.63474 0.90048 0.0
C2145 C 0.50918 0.60771 0.90282 0.0
C2146 C 0.50636 0.65177 0.87826 0.0
C2147 C 0.52598 0.64171 0.85795 0.0
C2148 C 0.53677 0.61429 0.85999 0.0
C2149 C 0.52803 0.5975 0.88231 0.0
C2150 C 0.49418 0.68078 0.87684 0.0
C2151 C 0.55787 0.60286 0.83889 0.0
H2152 H 0.51538 0.68843 0.77338 0.0
H2153 H 0.58571 0.7121 0.82648 0.0
H2154 H 0.50073 0.62383 0.8072 0.0
H2155 H 0.47696 0.65088 0.81847 0.0
H2156 H 0.48729 0.64876 0.78238 0.0
H2157 H 0.59717 0.68868 0.86767 0.0
H2158 H 0.56398 0.68116 0.88565 0.0
H2159 H 0.58482 0.65356 0.87087 0.0
H2160 H 0.48352 0.64265 0.91606 0.0
H2161 H 0.53643 0.57661 0.88403 0.0
H2162 H 0.4833 0.68415 0.85654 0.0
H2163 H 0.51199 0.69596 0.8784 0.0
H2164 H 0.47838 0.6851 0.89372 0.0
H2165 H 0.54818 0.60378 0.81778 0.0
H2166 H 0.5642 0.58113 0.8434 0.0
H2167 H 0.57768 0.61565 0.83852 0.0
C2168 C 0.34594 0.52513 0.82855 0.0
C2169 C 0.34776 0.54486 0.80738 0.0
C2170 C 0.36836 0.52162 0.84776 0.0
C2171 C 0.39327 0.53834 0.84582 0.0
C2172 C 0.39589 0.55746 0.82371 0.0
C2173 C 0.37302 0.56046 0.80458 0.0
C2174 C 0.36494 0.50053 0.87065 0.0
C2175 C 0.42247 0.57513 0.82073 0.0
C2176 C 0.42707 0.54583 0.91677 0.0
C2177 C 0.4465 0.52348 0.91681 0.0
C2178 C 0.41123 0.55252 0.89281 0.0
C2179 C 0.4153 0.53672 0.86826 0.0
C2180 C 0.43714 0.5161 0.8674 0.0
C2181 C 0.45235 0.50956 0.8918 0.0
C2182 C 0.38823 0.57475 0.89461 0.0
C2183 C 0.44289 0.49918 0.84157 0.0
H2184 H 0.32668 0.51258 0.83026 0.0
H2185 H 0.37449 0.57555 0.78802 0.0
H2186 H 0.38348 0.48586 0.87047 0.0
H2187 H 0.36484 0.51106 0.89119 0.0
H2188 H 0.34465 0.48854 0.86858 0.0
H2189 H 0.42224 0.5873 0.80115 0.0
H2190 H 0.42391 0.58965 0.83857 0.0
H2191 H 0.44224 0.56201 0.82113 0.0
H2192 H 0.42276 0.557 0.93592 0.0
H2193 H 0.46778 0.49262 0.89154 0.0
H2194 H 0.36657 0.56498 0.89487 0.0
H2195 H 0.38909 0.58846 0.87618 0.0
H2196 H 0.39047 0.58757 0.91369 0.0
H2197 H 0.42909 0.48051 0.84192 0.0
H2198 H 0.46581 0.4922 0.84087 0.0
H2199 H 0.43799 0.51089 0.82231 0.0
C2200 C 0.506 0.33579 0.80156 0.0
C2201 C 0.47931 0.32245 0.80348 0.0
C2202 C 0.51188 0.3592 0.81788 0.0
C2203 C 0.49038 0.36958 0.83619 0.0
C2204 C 0.46251 0.35764 0.83618 0.0
C2205 C 0.45743 0.33388 0.82012 0.0
C2206 C 0.54179 0.37148 0.81718 0.0
C2207 C 0.43873 0.36877 0.85461 0.0
C2208 C 0.51691 0.39875 0.90479 0.0
C2209 C 0.51552 0.42732 0.9002 0.0
C2210 C 0.50855 0.37993 0.88416 0.0
C2211 C 0.49839 0.38985 0.8582 0.0
C2212 C 0.4966 0.41869 0.85345 0.0
C2213 C 0.5051 0.43711 0.87458 0.0
C2214 C 0.5111 0.34934 0.89005 0.0
C2215 C 0.48547 0.43024 0.82631 0.0
H2216 H 0.52297 0.32671 0.78887 0.0
H2217 H 0.43682 0.32344 0.82157 0.0
H2218 H 0.54043 0.39425 0.8148 0.0
H2219 H 0.55299 0.3672 0.83717 0.0
H2220 H 0.55511 0.36285 0.79996 0.0
H2221 H 0.41739 0.35969 0.84941 0.0
H2222 H 0.44377 0.36398 0.87667 0.0
H2223 H 0.43719 0.39158 0.8527 0.0
H2224 H 0.52487 0.39095 0.9245 0.0
H2225 H 0.50393 0.45916 0.87082 0.0
H2226 H 0.52582 0.33946 0.87468 0.0
H2227 H 0.48966 0.33943 0.88787 0.0
H2228 H 0.5195 0.34506 0.91128 0.0
H2229 H 0.49332 0.45158 0.82277 0.0
H2230 H 0.46148 0.43088 0.82694 0.0
H2231 H 0.49201 0.41723 0.80833 0.0
C2232 C 0.66812 0.49348 0.81267 0.0
C2233 C 0.69576 0.49135 0.82464 0.0
C2234 C 0.64314 0.4934 0.82937 0.0
C2235 C 0.64603 0.49262 0.85873 0.0
C2236 C 0.67376 0.48889 0.87072 0.0
C2237 C 0.69801 0.48721 0.85346 0.0
C2238 C 0.614 0.49526 0.81534 0.0
C2239 C 0.6783 0.48828 0.90191 0.0
C2240 C 0.59487 0.53334 0.90456 0.0
C2241 C 0.58499 0.51268 0.92247 0.0
C2242 C 0.61364 0.52695 0.88257 0.0
C2243 C 0.62115 0.49897 0.87731 0.0
C2244 C 0.60845 0.47781 0.89344 0.0
C2245 C 0.59166 0.48501 0.9167 0.0
C2246 C 0.62702 0.55036 0.86642 0.0
C2247 C 0.61332 0.44761 0.88695 0.0
H2248 H 0.6659 0.49622 0.7904 0.0
H2249 H 0.71904 0.48385 0.86285 0.0
H2250 H 0.59616 0.48832 0.82904 0.0
H2251 H 0.60975 0.51693 0.80899 0.0
H2252 H 0.61388 0.48251 0.79609 0.0
H2253 H 0.70151 0.48973 0.90767 0.0
H2254 H 0.6665 0.5056 0.91211 0.0
H2255 H 0.66987 0.46871 0.91049 0.0
H2256 H 0.58976 0.5548 0.90905 0.0
H2257 H 0.58402 0.46898 0.93044 0.0
H2258 H 0.62014 0.54926 0.84437 0.0
H2259 H 0.65098 0.54864 0.86694 0.0
H2260 H 0.62066 0.57097 0.87473 0.0
H2261 H 0.61782 0.44423 0.8645 0.0
H2262 H 0.59412 0.43527 0.89289 0.0
H2263 H 0.63194 0.43968 0.89916 0.0
C2264 C 0.48081 0.34907 0.20841 0.0
C2265 C 0.50849 0.34293 0.21876 0.0
C2266 C 0.47698 0.36874 0.18712 0.0
C2267 C 0.50138 0.38257 0.17619 0.0
C2268 C 0.52897 0.37788 0.18821 0.0
C2269 C 0.53219 0.35795 0.20914 0.0
C2270 C 0.44719 0.37322 0.17508 0.0
C2271 C 0.5555 0.39266 0.17777 0.0
C2272 C 0.51092 0.40028 0.10028 0.0
C2273 C 0.50968 0.42913 0.10089 0.0
C2274 C 0.50545 0.38476 0.12427 0.0
C2275 C 0.49939 0.39852 0.1497 0.0
C2276 C 0.49605 0.42768 0.14992 0.0
C2277 C 0.50115 0.4427 0.12535 0.0
C2278 C 0.50871 0.35372 0.12288 0.0
C2279 C 0.48942 0.44315 0.17648 0.0
H2280 H 0.46237 0.33753 0.21583 0.0
H2281 H 0.55355 0.3534 0.21734 0.0
H2282 H 0.44314 0.39544 0.17088 0.0
H2283 H 0.44553 0.36204 0.15496 0.0
H2284 H 0.43003 0.36546 0.18915 0.0
H2285 H 0.57474 0.38877 0.1911 0.0
H2286 H 0.56057 0.38566 0.15631 0.0
H2287 H 0.55143 0.41526 0.17697 0.0
H2288 H 0.51778 0.38991 0.08135 0.0
H2289 H 0.50064 0.46511 0.12581 0.0
H2290 H 0.49045 0.34354 0.13364 0.0
H2291 H 0.52894 0.3474 0.13363 0.0
H2292 H 0.50964 0.34604 0.10109 0.0
H2293 H 0.47123 0.43335 0.18768 0.0
H2294 H 0.48388 0.46517 0.17253 0.0
H2295 H 0.50855 0.44235 0.19041 0.0
C2296 C 0.70021 0.47545 0.18558 0.0
C2297 C 0.69454 0.49245 0.20867 0.0
C2298 C 0.67968 0.47222 0.1644 0.0
C2299 C 0.65281 0.48614 0.16653 0.0
C2300 C 0.64568 0.50058 0.19129 0.0
C2301 C 0.66677 0.50379 0.21201 0.0
C2302 C 0.68799 0.45638 0.13849 0.0
C2303 C 0.617 0.51529 0.19468 0.0
C2304 C 0.62615 0.52172 0.1017 0.0
C2305 C 0.60173 0.50625 0.0947 0.0
C2306 C 0.64308 0.51497 0.12475 0.0
C2307 C 0.63585 0.49161 0.14092 0.0
C2308 C 0.61208 0.47495 0.13318 0.0
C2309 C 0.59492 0.48281 0.11029 0.0
C2310 C 0.66779 0.53379 0.13259 0.0
C2311 C 0.60401 0.44968 0.14971 0.0
H2312 H 0.72127 0.4657 0.18338 0.0
H2313 H 0.66203 0.51675 0.22988 0.0
H2314 H 0.66951 0.44415 0.13057 0.0
H2315 H 0.69418 0.47118 0.12197 0.0
H2316 H 0.70662 0.44226 0.14226 0.0
H2317 H 0.6123 0.51994 0.21688 0.0
H2318 H 0.61753 0.5351 0.18312 0.0
H2319 H 0.59907 0.50281 0.18606 0.0
H2320 H 0.63119 0.54011 0.08982 0.0
H2321 H 0.57529 0.47177 0.10586 0.0
H2322 H 0.68826 0.52181 0.13407 0.0
H2323 H 0.66363 0.54317 0.15331 0.0
H2324 H 0.67084 0.55075 0.11736 0.0
H2325 H 0.62299 0.43569 0.15179 0.0
H2326 H 0.58602 0.43808 0.13988 0.0
H2327 H 0.59737 0.45582 0.17103 0.0
C2328 C 0.51974 0.72689 0.18504 0.0
C2329 C 0.53662 0.7267 0.2094 0.0
C2330 C 0.51742 0.70351 0.16802 0.0
C2331 C 0.53032 0.6783 0.17647 0.0
C2332 C 0.54552 0.67717 0.20211 0.0
C2333 C 0.54903 0.70153 0.218 0.0
C2334 C 0.50154 0.70606 0.14061 0.0
C2335 C 0.55857 0.65047 0.21251 0.0
C2336 C 0.49365 0.62053 0.13718 0.0
C2337 C 0.5133 0.61536 0.11556 0.0
C2338 C 0.50037 0.63882 0.15893 0.0
C2339 C 0.5268 0.65341 0.15834 0.0
C2340 C 0.54732 0.64732 0.13722 0.0
C2341 C 0.5405 0.62797 0.11633 0.0
C2342 C 0.47851 0.64367 0.18178 0.0
C2343 C 0.57539 0.66289 0.1352 0.0
H2344 H 0.50878 0.7457 0.17869 0.0
H2345 H 0.56207 0.70095 0.23673 0.0
H2346 H 0.51529 0.69815 0.12337 0.0
H2347 H 0.48164 0.69342 0.14103 0.0
H2348 H 0.4953 0.72775 0.13586 0.0
H2349 H 0.5644 0.65174 0.23491 0.0
H2350 H 0.54337 0.63307 0.20946 0.0
H2351 H 0.57848 0.64565 0.20056 0.0
H2352 H 0.47264 0.61077 0.13676 0.0
H2353 H 0.55574 0.6241 0.0996 0.0
H2354 H 0.4698 0.66503 0.18053 0.0
H2355 H 0.48909 0.64143 0.2024 0.0
H2356 H 0.46009 0.62913 0.18052 0.0
H2357 H 0.57079 0.68446 0.12866 0.0
H2358 H 0.59047 0.65338 0.11989 0.0
H2359 H 0.58627 0.66383 0.15573 0.0
C2360 C 0.36813 0.56389 0.21763 0.0
C2361 C 0.36979 0.53846 0.2315 0.0
C2362 C 0.38179 0.56754 0.19186 0.0
C2363 C 0.39723 0.5452 0.17986 0.0
C2364 C 0.39976 0.51981 0.19432 0.0
C2365 C 0.38611 0.51684 0.22009 0.0
C2366 C 0.37901 0.59494 0.17711 0.0
C2367 C 0.4159 0.49536 0.1821 0.0
C2368 C 0.40657 0.5343 0.10284 0.0
C2369 C 0.43633 0.53826 0.10001 0.0
C2370 C 0.39285 0.53887 0.1284 0.0
C2371 C 0.40955 0.54743 0.15153 0.0
C2372 C 0.43921 0.55365 0.1481 0.0
C2373 C 0.45236 0.54884 0.12223 0.0
C2374 C 0.3613 0.53152 0.13133 0.0
C2375 C 0.45757 0.56265 0.17243 0.0
H2376 H 0.35563 0.58072 0.22656 0.0
H2377 H 0.38739 0.49724 0.23093 0.0
H2378 H 0.40071 0.60269 0.17131 0.0
H2379 H 0.36657 0.59226 0.15755 0.0
H2380 H 0.3679 0.61079 0.19009 0.0
H2381 H 0.41671 0.47748 0.19654 0.0
H2382 H 0.40524 0.48871 0.16252 0.0
H2383 H 0.43837 0.50121 0.17681 0.0
H2384 H 0.39448 0.52548 0.08566 0.0
H2385 H 0.47557 0.55103 0.12011 0.0
H2386 H 0.34948 0.54758 0.14335 0.0
H2387 H 0.35943 0.5118 0.14292 0.0
H2388 H 0.35058 0.52896 0.11079 0.0
H2389 H 0.44711 0.58028 0.18334 0.0
H2390 H 0.4797 0.56863 0.16597 0.0
H2391 H 0.45948 0.54554 0.18765 0.0
C2392 C 0.81151 0.48667 0.71244 0.0
C2393 C 0.78584 0.4953 0.6995 0.0
C2394 C 0.83834 0.49047 0.69953 0.0
C2395 C 0.83929 0.50064 0.67199 0.0
C2396 C 0.81323 0.50749 0.65801 0.0
C2397 C 0.78685 0.50561 0.67233 0.0
C2398 C 0.86569 0.48429 0.71564 0.0
C2399 C 0.81316 0.51656 0.62797 0.0
C2400 C 0.90802 0.53156 0.64246 0.0
C2401 C 0.92019 0.50879 0.62853 0.0
C2402 C 0.882 0.5291 0.65725 0.0
C2403 C 0.86756 0.50338 0.65765 0.0
C2404 C 0.88012 0.48016 0.64431 0.0
C2405 C 0.90652 0.48302 0.63039 0.0
C2406 C 0.86959 0.55421 0.67178 0.0
C2407 C 0.86498 0.45259 0.64351 0.0
H2408 H 0.81087 0.47776 0.73303 0.0
H2409 H 0.76692 0.51185 0.66215 0.0
H2410 H 0.87748 0.46674 0.70592 0.0
H2411 H 0.88024 0.50243 0.71509 0.0
H2412 H 0.86124 0.47908 0.73772 0.0
H2413 H 0.79091 0.5195 0.6197 0.0
H2414 H 0.82502 0.53627 0.62577 0.0
H2415 H 0.82452 0.50094 0.61494 0.0
H2416 H 0.91827 0.55154 0.64099 0.0
H2417 H 0.91553 0.46529 0.61955 0.0
H2418 H 0.86449 0.54922 0.69375 0.0
H2419 H 0.84908 0.56056 0.66159 0.0
H2420 H 0.88462 0.57202 0.67136 0.0
H2421 H 0.86208 0.44459 0.6649 0.0
H2422 H 0.87711 0.43689 0.6312 0.0
H2423 H 0.84311 0.45511 0.63428 0.0
C2424 C 0.54774 0.81849 0.6801 0.0
C2425 C 0.52375 0.8187 0.69783 0.0
C2426 C 0.54963 0.83738 0.658 0.0
C2427 C 0.52686 0.85663 0.65355 0.0
C2428 C 0.50103 0.85431 0.66915 0.0
C2429 C 0.49996 0.83565 0.69147 0.0
C2430 C 0.5773 0.83877 0.64148 0.0
C2431 C 0.47562 0.87336 0.66405 0.0
C2432 C 0.55104 0.92964 0.63807 0.0
C2433 C 0.54834 0.93116 0.6091 0.0
C2434 C 0.54379 0.9056 0.65255 0.0
C2435 C 0.5327 0.88256 0.63784 0.0
C2436 C 0.52859 0.88437 0.60865 0.0
C2437 C 0.53699 0.90851 0.59452 0.0
C2438 C 0.54882 0.90466 0.68364 0.0
C2439 C 0.51597 0.86082 0.5921 0.0
H2440 H 0.56613 0.80537 0.68505 0.0
H2441 H 0.48127 0.83561 0.7051 0.0
H2442 H 0.57253 0.84056 0.61894 0.0
H2443 H 0.58952 0.85745 0.64776 0.0
H2444 H 0.59128 0.82033 0.64488 0.0
H2445 H 0.45548 0.86528 0.67353 0.0
H2446 H 0.48011 0.89391 0.67332 0.0
H2447 H 0.47208 0.87632 0.6414 0.0
H2448 H 0.5598 0.94704 0.64948 0.0
H2449 H 0.53457 0.90967 0.57211 0.0
H2450 H 0.5637 0.88734 0.68885 0.0
H2451 H 0.52812 0.90095 0.6946 0.0
H2452 H 0.55824 0.92412 0.69179 0.0
H2453 H 0.53366 0.84666 0.58555 0.0
H2454 H 0.50501 0.86846 0.573 0.0
H2455 H 0.50024 0.8488 0.60452 0.0
C2456 C 0.27173 0.51815 0.65688 0.0
C2457 C 0.26612 0.51542 0.68529 0.0
C2458 C 0.24886 0.51899 0.63762 0.0
C2459 C 0.21994 0.51829 0.64734 0.0
C2460 C 0.21437 0.51592 0.6762 0.0
C2461 C 0.23762 0.51381 0.69476 0.0
C2462 C 0.25557 0.52041 0.60693 0.0
C2463 C 0.18391 0.51591 0.68755 0.0
C2464 C 0.1598 0.54791 0.60247 0.0
C2465 C 0.14633 0.52388 0.59271 0.0
C2466 C 0.18416 0.54638 0.61983 0.0
C2467 C 0.19541 0.5202 0.62747 0.0
C2468 C 0.18243 0.49587 0.6171 0.0
C2469 C 0.15805 0.49799 0.59986 0.0
C2470 C 0.19727 0.57278 0.63074 0.0
C2471 C 0.19389 0.46756 0.6247 0.0
H2472 H 0.29394 0.51906 0.64974 0.0
H2473 H 0.23351 0.51141 0.71682 0.0
H2474 H 0.24516 0.50293 0.59589 0.0
H2475 H 0.24655 0.53975 0.59801 0.0
H2476 H 0.27919 0.51967 0.60273 0.0
H2477 H 0.18344 0.51535 0.71066 0.0
H2478 H 0.1721 0.53466 0.68047 0.0
H2479 H 0.17203 0.49774 0.67948 0.0
H2480 H 0.15095 0.56799 0.59706 0.0
H2481 H 0.14785 0.47927 0.59242 0.0
H2482 H 0.22054 0.57363 0.62526 0.0
H2483 H 0.19578 0.57327 0.65378 0.0
H2484 H 0.18634 0.59149 0.62232 0.0
H2485 H 0.21721 0.46597 0.61948 0.0
H2486 H 0.18217 0.45074 0.6138 0.0
H2487 H 0.19187 0.4643 0.64745 0.0
C2488 C 0.48086 0.21777 0.67553 0.0
C2489 C 0.5058 0.22076 0.6919 0.0
C2490 C 0.48004 0.19828 0.65366 0.0
C2491 C 0.5046 0.18135 0.64845 0.0
C2492 C 0.53006 0.18513 0.66442 0.0
C2493 C 0.53031 0.2048 0.68581 0.0
C2494 C 0.45283 0.19545 0.63657 0.0
C2495 C 0.55693 0.16784 0.65947 0.0
C2496 C 0.50551 0.10904 0.61871 0.0
C2497 C 0.52124 0.11338 0.5943 0.0
C2498 C 0.49711 0.13151 0.63554 0.0
C2499 C 0.50413 0.15879 0.62727 0.0
C2500 C 0.51679 0.16321 0.60084 0.0
C2501 C 0.5258 0.14038 0.58493 0.0
C2502 C 0.48372 0.12578 0.66355 0.0
C2503 C 0.52336 0.19191 0.59053 0.0
H2504 H 0.46186 0.2302 0.6801 0.0
H2505 H 0.54965 0.20723 0.69835 0.0
H2506 H 0.45805 0.19589 0.61405 0.0
H2507 H 0.44262 0.17525 0.64089 0.0
H2508 H 0.43688 0.21211 0.64118 0.0
H2509 H 0.57482 0.17329 0.67386 0.0
H2510 H 0.55189 0.14562 0.66218 0.0
H2511 H 0.56463 0.17065 0.63781 0.0
H2512 H 0.50199 0.08808 0.62583 0.0
H2513 H 0.53767 0.14362 0.56576 0.0
H2514 H 0.46575 0.14044 0.66787 0.0
H2515 H 0.50028 0.12867 0.68002 0.0
H2516 H 0.4754 0.10435 0.66496 0.0
H2517 H 0.50528 0.20634 0.59532 0.0
H2518 H 0.5274 0.19213 0.56774 0.0
H2519 H 0.54295 0.19976 0.6012 0.0
C2520 C 0.7823 0.47401 0.35395 0.0
C2521 C 0.76792 0.4953 0.33987 0.0
C2522 C 0.80655 0.47949 0.37048 0.0
C2523 C 0.81658 0.50696 0.37282 0.0
C2524 C 0.80221 0.52858 0.35853 0.0
C2525 C 0.77784 0.52252 0.34232 0.0
C2526 C 0.82149 0.45589 0.38532 0.0
C2527 C 0.81283 0.55799 0.3601 0.0
C2528 C 0.86284 0.52432 0.43549 0.0
C2529 C 0.89052 0.52151 0.42427 0.0
C2530 C 0.83842 0.51986 0.41881 0.0
C2531 C 0.84211 0.51303 0.39033 0.0
C2532 C 0.87021 0.51107 0.37883 0.0
C2533 C 0.89417 0.51497 0.39614 0.0
C2534 C 0.80875 0.52158 0.43178 0.0
C2535 C 0.87502 0.5042 0.34849 0.0
H2536 H 0.77469 0.45296 0.35183 0.0
H2537 H 0.76689 0.53904 0.33127 0.0
H2538 H 0.84425 0.45412 0.37822 0.0
H2539 H 0.82198 0.45995 0.40805 0.0
H2540 H 0.81065 0.4358 0.38161 0.0
H2541 H 0.79944 0.57236 0.34742 0.0
H2542 H 0.81265 0.56525 0.38202 0.0
H2543 H 0.83553 0.55901 0.35271 0.0
H2544 H 0.86037 0.52901 0.45744 0.0
H2545 H 0.91584 0.51265 0.38778 0.0
H2546 H 0.79774 0.50137 0.42971 0.0
H2547 H 0.79533 0.53712 0.42067 0.0
H2548 H 0.80963 0.52725 0.45418 0.0
H2549 H 0.86815 0.48268 0.34429 0.0
H2550 H 0.89807 0.50622 0.34235 0.0
H2551 H 0.86173 0.51795 0.33509 0.0
C2552 C 0.57367 0.84873 0.33334 0.0
C2553 C 0.56147 0.82243 0.33077 0.0
C2554 C 0.56425 0.8674 0.35385 0.0
C2555 C 0.54253 0.85937 0.37288 0.0
C2556 C 0.5305 0.83253 0.37079 0.0
C2557 C 0.53985 0.81446 0.34948 0.0
C2558 C 0.57721 0.89597 0.35479 0.0
C2559 C 0.5077 0.82299 0.39099 0.0
C2560 C 0.53776 0.90307 0.43898 0.0
C2561 C 0.51546 0.92173 0.43228 0.0
C2562 C 0.54626 0.88213 0.42023 0.0
C2563 C 0.53196 0.87958 0.39424 0.0
C2564 C 0.50889 0.89788 0.38775 0.0
C2565 C 0.50104 0.91876 0.40673 0.0
C2566 C 0.57104 0.86318 0.42795 0.0
C2567 C 0.49297 0.89593 0.36037 0.0
H2568 H 0.59027 0.85499 0.31877 0.0
H2569 H 0.53048 0.79407 0.34763 0.0
H2570 H 0.55996 0.91177 0.35198 0.0
H2571 H 0.58727 0.8997 0.3754 0.0
H2572 H 0.59385 0.899 0.33843 0.0
H2573 H 0.50136 0.80119 0.38731 0.0
H2574 H 0.51579 0.825 0.41264 0.0
H2575 H 0.48817 0.8363 0.38921 0.0
H2576 H 0.54903 0.9052 0.45864 0.0
H2577 H 0.48359 0.93287 0.40147 0.0
H2578 H 0.58942 0.86645 0.41354 0.0
H2579 H 0.56441 0.84129 0.42582 0.0
H2580 H 0.5787 0.86674 0.44957 0.0
H2581 H 0.50804 0.90035 0.34301 0.0
H2582 H 0.47446 0.91063 0.35916 0.0
H2583 H 0.48474 0.87467 0.3572 0.0
C2584 C 0.20529 0.54986 0.29527 0.0
C2585 C 0.23137 0.5355 0.29922 0.0
C2586 C 0.18271 0.54757 0.31425 0.0
C2587 C 0.18662 0.53106 0.33815 0.0
C2588 C 0.2134 0.51754 0.34309 0.0
C2589 C 0.2356 0.51983 0.32335 0.0
C2590 C 0.15448 0.56242 0.30842 0.0
C2591 C 0.21836 0.50039 0.36888 0.0
C2592 C 0.13393 0.54937 0.39479 0.0
C2593 C 0.11341 0.52833 0.39204 0.0
C2594 C 0.15878 0.54951 0.37843 0.0
C2595 C 0.16256 0.52874 0.35806 0.0
C2596 C 0.1418 0.50755 0.35493 0.0
C2597 C 0.11757 0.50732 0.37242 0.0
C2598 C 0.18094 0.57191 0.38294 0.0
C2599 C 0.14497 0.48549 0.33287 0.0
H2600 H 0.20234 0.56249 0.27686 0.0
H2601 H 0.25584 0.50878 0.32633 0.0
H2602 H 0.13647 0.54739 0.3079 0.0
H2603 H 0.14972 0.57744 0.3253 0.0
H2604 H 0.15481 0.57373 0.28833 0.0
H2605 H 0.24105 0.49288 0.37052 0.0
H2606 H 0.21305 0.51264 0.38777 0.0
H2607 H 0.2038 0.48226 0.36865 0.0
H2608 H 0.13119 0.56516 0.41065 0.0
H2609 H 0.1019 0.49083 0.37078 0.0
H2610 H 0.18164 0.58562 0.36449 0.0
H2611 H 0.2028 0.56265 0.38544 0.0
H2612 H 0.17609 0.58476 0.40157 0.0
H2613 H 0.14451 0.49517 0.31196 0.0
H2614 H 0.1275 0.46988 0.33395 0.0
H2615 H 0.16613 0.47478 0.33505 0.0
C2616 C 0.51424 0.23216 0.33598 0.0
C2617 C 0.49169 0.22628 0.31745 0.0
C2618 C 0.51819 0.21637 0.36026 0.0
C2619 C 0.49912 0.19427 0.36591 0.0
C2620 C 0.47519 0.18959 0.34813 0.0
C2621 C 0.47181 0.20564 0.32411 0.0
C2622 C 0.54381 0.22218 0.37879 0.0
C2623 C 0.45424 0.16637 0.35339 0.0
C2624 C 0.52308 0.12858 0.40211 0.0
C2625 C 0.50735 0.13017 0.42701 0.0
C2626 C 0.52201 0.15015 0.38267 0.0
C2627 C 0.50537 0.17416 0.38858 0.0
C2628 C 0.4916 0.17687 0.41475 0.0
C2629 C 0.49245 0.15469 0.43353 0.0
C2630 C 0.53691 0.14628 0.35495 0.0
C2631 C 0.47457 0.20253 0.42228 0.0
H2632 H 0.52982 0.24793 0.33062 0.0
H2633 H 0.45441 0.20113 0.30969 0.0
H2634 H 0.53769 0.2208 0.40106 0.0
H2635 H 0.56094 0.20647 0.37491 0.0
H2636 H 0.55304 0.24292 0.37475 0.0
H2637 H 0.43576 0.16666 0.33861 0.0
H2638 H 0.46566 0.14622 0.35134 0.0
H2639 H 0.44562 0.16766 0.37488 0.0
H2640 H 0.53483 0.10979 0.39698 0.0
H2641 H 0.48066 0.15619 0.45299 0.0
H2642 H 0.5501 0.16463 0.34985 0.0
H2643 H 0.52039 0.14406 0.33833 0.0
H2644 H 0.55113 0.12768 0.35462 0.0
H2645 H 0.48682 0.22135 0.41668 0.0
H2646 H 0.4693 0.20332 0.44482 0.0
H2647 H 0.45403 0.20294 0.41035 0.0
C2648 C 0.6862 0.82514 0.49579 0.0
C2649 C 0.7082 0.82588 0.51582 0.0
C2650 C 0.6635 0.84469 0.49628 0.0
C2651 C 0.66287 0.8653 0.51733 0.0
C2652 C 0.68309 0.86386 0.53942 0.0
C2653 C 0.70567 0.84432 0.53828 0.0
C2654 C 0.64198 0.84509 0.47268 0.0
C2655 C 0.68276 0.8848 0.56274 0.0
C2656 C 0.64375 0.93765 0.49298 0.0
C2657 C 0.61501 0.94091 0.50174 0.0
C2658 C 0.65926 0.91322 0.49806 0.0
C2659 C 0.64602 0.89138 0.51281 0.0
C2660 C 0.61728 0.89478 0.52264 0.0
C2661 C 0.60196 0.91939 0.51665 0.0
C2662 C 0.68981 0.91067 0.48708 0.0
C2663 C 0.60243 0.87236 0.53892 0.0
H2664 H 0.68813 0.81093 0.4784 0.0
H2665 H 0.72259 0.84478 0.55391 0.0
H2666 H 0.61972 0.8478 0.48084 0.0
H2667 H 0.64651 0.86289 0.45886 0.0
H2668 H 0.64293 0.82584 0.46007 0.0
H2669 H 0.69597 0.87783 0.58076 0.0
H2670 H 0.69171 0.90461 0.55512 0.0
H2671 H 0.66031 0.88888 0.56988 0.0
H2672 H 0.65411 0.95404 0.48142 0.0
H2673 H 0.57971 0.92162 0.5234 0.0
H2674 H 0.69149 0.89272 0.47274 0.0
H2675 H 0.70508 0.90698 0.50452 0.0
H2676 H 0.69681 0.92944 0.47574 0.0
H2677 H 0.59477 0.85618 0.52435 0.0
H2678 H 0.58342 0.88049 0.55056 0.0
H2679 H 0.61754 0.8624 0.55386 0.0
C2680 C 0.69899 0.21878 0.53059 0.0
C2681 C 0.71217 0.21805 0.50435 0.0
C2682 C 0.67549 0.20142 0.5367 0.0
C2683 C 0.66512 0.18306 0.51602 0.0
C2684 C 0.67748 0.18351 0.48902 0.0
C2685 C 0.70095 0.20086 0.48362 0.0
C2686 C 0.66279 0.20176 0.5656 0.0
C2687 C 0.66679 0.16474 0.46611 0.0
C2688 C 0.63071 0.11336 0.52826 0.0
C2689 C 0.6028 0.11839 0.51813 0.0
C2690 C 0.65082 0.13497 0.53027 0.0
C2691 C 0.64249 0.16215 0.52242 0.0
C2692 C 0.61322 0.16772 0.5157 0.0
C2693 C 0.5938 0.14569 0.51331 0.0
C2694 C 0.68174 0.12811 0.53773 0.0
C2695 C 0.60307 0.19642 0.50808 0.0
H2696 H 0.70798 0.23188 0.54671 0.0
H2697 H 0.71132 0.2003 0.46338 0.0
H2698 H 0.63881 0.20197 0.56469 0.0
H2699 H 0.66945 0.18272 0.57676 0.0
H2700 H 0.67013 0.2199 0.57785 0.0
H2701 H 0.67787 0.16856 0.44599 0.0
H2702 H 0.67045 0.14285 0.47205 0.0
H2703 H 0.6432 0.16768 0.46302 0.0
H2704 H 0.63773 0.09223 0.53179 0.0
H2705 H 0.5721 0.14958 0.50562 0.0
H2706 H 0.69065 0.14376 0.55221 0.0
H2707 H 0.69514 0.12834 0.51858 0.0
H2708 H 0.68376 0.10737 0.54745 0.0
H2709 H 0.61299 0.21216 0.52185 0.0
H2710 H 0.57915 0.19839 0.50938 0.0
H2711 H 0.60971 0.20103 0.48641 0.0
C2712 C 0.83402 0.71437 0.50013 0.0
C2713 C 0.80923 0.70827 0.48464 0.0
C2714 C 0.85517 0.69401 0.50528 0.0
C2715 C 0.85119 0.66682 0.49496 0.0
C2716 C 0.82594 0.6606 0.47946 0.0
C2717 C 0.80539 0.68155 0.47419 0.0
C2718 C 0.88186 0.70166 0.52161 0.0
C2719 C 0.82056 0.63178 0.46862 0.0
C2720 C 0.91715 0.61883 0.49128 0.0
C2721 C 0.91525 0.60508 0.51683 0.0
C2722 C 0.89633 0.63888 0.48366 0.0
C2723 C 0.87275 0.64468 0.50172 0.0
C2724 C 0.87027 0.63 0.52701 0.0
C2725 C 0.89167 0.6107 0.53436 0.0
C2726 C 0.90007 0.65446 0.45676 0.0
C2727 C 0.84529 0.63505 0.54666 0.0
H2728 H 0.83712 0.73525 0.50773 0.0
H2729 H 0.78634 0.67707 0.46187 0.0
H2730 H 0.88296 0.6894 0.54105 0.0
H2731 H 0.90153 0.69665 0.50933 0.0
H2732 H 0.88224 0.72396 0.52716 0.0
H2733 H 0.79988 0.63031 0.45695 0.0
H2734 H 0.83849 0.62525 0.45472 0.0
H2735 H 0.82001 0.61698 0.48621 0.0
H2736 H 0.93543 0.61471 0.47779 0.0
H2737 H 0.88994 0.59994 0.55406 0.0
H2738 H 0.90241 0.67685 0.46122 0.0
H2739 H 0.88059 0.65206 0.44352 0.0
H2740 H 0.91931 0.64729 0.44487 0.0
H2741 H 0.84627 0.65643 0.55496 0.0
H2742 H 0.84541 0.62048 0.56449 0.0
H2743 H 0.82445 0.633 0.53542 0.0
C2744 C 0.33691 0.84343 0.48509 0.0
C2745 C 0.33577 0.81849 0.49978 0.0
C2746 C 0.35811 0.86318 0.49099 0.0
C2747 C 0.3791 0.85758 0.51172 0.0
C2748 C 0.37921 0.83161 0.52533 0.0
C2749 C 0.35727 0.81244 0.51944 0.0
C2750 C 0.35685 0.89074 0.47631 0.0
C2751 C 0.40168 0.82467 0.54705 0.0
C2752 C 0.4416 0.90827 0.51809 0.0
C2753 C 0.4313 0.92594 0.5391 0.0
C2754 C 0.42517 0.88551 0.50915 0.0
C2755 C 0.39805 0.88029 0.52176 0.0
C2756 C 0.38797 0.8978 0.54336 0.0
C2757 C 0.40463 0.9204 0.55164 0.0
C2758 C 0.43658 0.86737 0.486 0.0
C2759 C 0.35922 0.89302 0.55743 0.0
H2760 H 0.3203 0.84809 0.46983 0.0
H2761 H 0.35664 0.79301 0.53058 0.0
H2762 H 0.35087 0.90717 0.49143 0.0
H2763 H 0.37836 0.89604 0.46772 0.0
H2764 H 0.34079 0.89095 0.45911 0.0
H2765 H 0.40103 0.80256 0.55317 0.0
H2766 H 0.42365 0.82945 0.53922 0.0
H2767 H 0.39799 0.83752 0.56587 0.0
H2768 H 0.46222 0.91249 0.50831 0.0
H2769 H 0.39666 0.93381 0.56807 0.0
H2770 H 0.42159 0.86809 0.46798 0.0
H2771 H 0.43772 0.84557 0.49304 0.0
H2772 H 0.45839 0.87377 0.47889 0.0
H2773 H 0.34149 0.89456 0.54193 0.0
H2774 H 0.35491 0.90814 0.57438 0.0
H2775 H 0.3586 0.87191 0.56635 0.0
C2776 C 0.17513 0.314 0.51933 0.0
C2777 C 0.20519 0.31434 0.5241 0.0
C2778 C 0.15873 0.33833 0.51844 0.0
C2779 C 0.1728 0.36404 0.52026 0.0
C2780 C 0.20311 0.36491 0.52446 0.0
C2781 C 0.21888 0.34004 0.52693 0.0
C2782 C 0.12631 0.33641 0.51478 0.0
C2783 C 0.21893 0.39207 0.52549 0.0
C2784 C 0.1314 0.41991 0.48215 0.0
C2785 C 0.11933 0.43505 0.50414 0.0
C2786 C 0.15013 0.39769 0.48725 0.0
C2787 C 0.15591 0.3897 0.51504 0.0
C2788 C 0.14354 0.40485 0.5374 0.0
C2789 C 0.1258 0.42782 0.53163 0.0
C2790 C 0.16352 0.38262 0.46283 0.0
C2791 C 0.148 0.39618 0.56725 0.0
H2792 H 0.16409 0.29467 0.51573 0.0
H2793 H 0.24191 0.34086 0.53088 0.0
H2794 H 0.11503 0.35042 0.52959 0.0
H2795 H 0.12024 0.34294 0.49345 0.0
H2796 H 0.11831 0.31507 0.51805 0.0
H2797 H 0.24253 0.38927 0.5289 0.0
H2798 H 0.21559 0.40338 0.50566 0.0
H2799 H 0.2101 0.40528 0.54239 0.0
H2800 H 0.12669 0.42589 0.46087 0.0
H2801 H 0.11634 0.43966 0.54856 0.0
H2802 H 0.15456 0.36147 0.46133 0.0
H2803 H 0.18724 0.38055 0.46581 0.0
H2804 H 0.15938 0.39337 0.4428 0.0
H2805 H 0.13746 0.37594 0.57072 0.0
H2806 H 0.1388 0.41142 0.5822 0.0
H2807 H 0.17134 0.39341 0.5718 0.0
C2808 C 0.32753 0.19182 0.5237 0.0
C2809 C 0.33244 0.21924 0.51614 0.0
C2810 C 0.34805 0.17113 0.51819 0.0
C2811 C 0.3746 0.17821 0.50544 0.0
C2812 C 0.3787 0.20559 0.49573 0.0
C2813 C 0.35739 0.22591 0.50114 0.0
C2814 C 0.34231 0.14219 0.52836 0.0
C2815 C 0.40643 0.21384 0.48158 0.0
C2816 C 0.43436 0.13594 0.53814 0.0
C2817 C 0.43697 0.11358 0.51964 0.0
C2818 C 0.4158 0.15822 0.53256 0.0
C2819 C 0.39939 0.15841 0.50768 0.0
C2820 C 0.40378 0.13715 0.48773 0.0
C2821 C 0.42243 0.11483 0.49404 0.0
C2822 C 0.41217 0.18046 0.55444 0.0
C2823 C 0.38741 0.13691 0.46058 0.0
H2824 H 0.30803 0.18675 0.5351 0.0
H2825 H 0.3611 0.24722 0.49531 0.0
H2826 H 0.34783 0.12682 0.51203 0.0
H2827 H 0.35614 0.13779 0.54673 0.0
H2828 H 0.31935 0.13932 0.53445 0.0
H2829 H 0.40426 0.23406 0.47087 0.0
H2830 H 0.42392 0.21549 0.49731 0.0
H2831 H 0.41322 0.19793 0.46621 0.0
H2832 H 0.44601 0.13554 0.55773 0.0
H2833 H 0.42441 0.09782 0.47956 0.0
H2834 H 0.39033 0.17897 0.56387 0.0
H2835 H 0.41396 0.20124 0.54496 0.0
H2836 H 0.42849 0.17867 0.57133 0.0
H2837 H 0.36547 0.12847 0.4641 0.0
H2838 H 0.39843 0.12375 0.44479 0.0
H2839 H 0.38485 0.15811 0.45215 0.0
C2840 C 0.81178 0.36056 0.5242 0.0
C2841 C 0.80935 0.33674 0.5079 0.0
C2842 C 0.83558 0.37815 0.52138 0.0
C2843 C 0.85813 0.37104 0.50266 0.0
C2844 C 0.8557 0.34701 0.48599 0.0
C2845 C 0.831 0.33037 0.48844 0.0
C2846 C 0.83685 0.40409 0.53888 0.0
C2847 C 0.87967 0.33823 0.4665 0.0
C2848 C 0.90702 0.43167 0.48815 0.0
C2849 C 0.9272 0.42904 0.50982 0.0
C2850 C 0.88571 0.41159 0.48387 0.0
C2851 C 0.88456 0.38842 0.50177 0.0
C2852 C 0.90668 0.38431 0.52179 0.0
C2853 C 0.9278 0.40467 0.52554 0.0
C2854 C 0.86297 0.41653 0.46185 0.0
C2855 C 0.90664 0.35962 0.54093 0.0
H2856 H 0.79498 0.36543 0.5392 0.0
H2857 H 0.82927 0.31177 0.476 0.0
H2858 H 0.85523 0.40269 0.55368 0.0
H2859 H 0.8406 0.42233 0.52542 0.0
H2860 H 0.81667 0.40762 0.55093 0.0
H2861 H 0.87335 0.32048 0.45317 0.0
H2862 H 0.88614 0.35565 0.45296 0.0
H2863 H 0.89898 0.33214 0.47882 0.0
H2864 H 0.90678 0.45021 0.47554 0.0
H2865 H 0.94354 0.40229 0.54212 0.0
H2866 H 0.84272 0.42378 0.47195 0.0
H2867 H 0.85798 0.39717 0.45049 0.0
H2868 H 0.86981 0.43241 0.44657 0.0
H2869 H 0.88925 0.36221 0.55664 0.0
H2870 H 0.92755 0.35713 0.55207 0.0
H2871 H 0.90213 0.3404 0.52912 0.0
C2872 C 0.18892 0.72205 0.50556 0.0
C2873 C 0.213 0.72334 0.52326 0.0
C2874 C 0.17176 0.69841 0.50414 0.0
C2875 C 0.17902 0.67514 0.52057 0.0
C2876 C 0.20407 0.67577 0.5376 0.0
C2877 C 0.22084 0.69998 0.53878 0.0
C2878 C 0.14553 0.69858 0.48533 0.0
C2879 C 0.21285 0.65107 0.55482 0.0
C2880 C 0.11463 0.628 0.53119 0.0
C2881 C 0.1175 0.61052 0.50813 0.0
C2882 C 0.13565 0.6482 0.53674 0.0
C2883 C 0.16026 0.65028 0.51922 0.0
C2884 C 0.16429 0.63096 0.49743 0.0
C2885 C 0.14266 0.61159 0.49193 0.0
C2886 C 0.13037 0.66869 0.55992 0.0
C2887 C 0.19035 0.63201 0.47853 0.0
H2888 H 0.18319 0.73987 0.49302 0.0
H2889 H 0.2395 0.70091 0.5524 0.0
H2890 H 0.14751 0.68196 0.4695 0.0
H2891 H 0.12576 0.69443 0.49766 0.0
H2892 H 0.14263 0.71859 0.47435 0.0
H2893 H 0.2336 0.65438 0.56595 0.0
H2894 H 0.19579 0.64657 0.57034 0.0
H2895 H 0.21506 0.63253 0.54133 0.0
H2896 H 0.09511 0.62714 0.54364 0.0
H2897 H 0.14501 0.59777 0.47425 0.0
H2898 H 0.12521 0.68922 0.55086 0.0
H2899 H 0.15009 0.67106 0.57283 0.0
H2900 H 0.11215 0.66245 0.57354 0.0
H2901 H 0.188 0.64962 0.46395 0.0
H2902 H 0.19284 0.61277 0.46607 0.0
H2903 H 0.21041 0.6353 0.49073 0.0
loop_
_geom_bond_atom_site_label_1
_geom_bond_atom_site_label_2
_geom_bond_distance
_geom_bond_site_symmetry_2
_ccdc_geom_bond_type
H0 C5 0.930 . S
H1 C8 0.930 . S
H2 C10 0.930 . S
H3 C4 1.016 . S
C4 H3 1.016 . S
C4 N11 1.286 . S
C5 H0 0.930 . S
C5 C6 1.397 . S
C5 C7 1.361 . S
C6 C5 1.397 . S
C6 C10 1.390 . S
C7 C5 1.361 . S
C7 C8 1.393 . S
C7 N11 1.413 . S
C8 H1 0.930 . S
C8 C7 1.393 . S
C8 C9 1.399 . S
C9 C8 1.399 . S
C9 C10 1.381 . S
C10 H2 0.930 . S
C10 C6 1.390 . S
C10 C9 1.381 . S
N11 C4 1.286 . S
N11 C7 1.413 . S
H12 C17 0.930 . S
H13 C20 0.930 . S
H14 C22 0.930 . S
H15 C16 1.016 . S
C16 H15 1.016 . S
C16 N23 1.286 . S
C17 H12 0.930 . S
C17 C18 1.397 . S
C17 C19 1.361 . S
C18 C17 1.397 . S
C18 C22 1.390 . S
C19 C17 1.361 . S
C19 C20 1.393 . S
C19 N23 1.413 . S
C20 H13 0.930 . S
C20 C19 1.393 . S
C20 C21 1.399 . S
C21 C20 1.399 . S
C21 C22 1.381 . S
C22 H14 0.930 . S
C22 C18 1.390 . S
C22 C21 1.381 . S
N23 C16 1.286 . S
N23 C19 1.413 . S
H24 C29 0.930 . S
H25 C32 0.930 . S
H26 C34 0.930 . S
H27 C28 1.016 . S
C28 H27 1.016 . S
C28 N35 1.286 . S
C29 H24 0.930 . S
C29 C30 1.397 . S
C29 C31 1.361 . S
C30 C29 1.397 . S
C30 C34 1.390 . S
C31 C29 1.361 . S
C31 C32 1.393 . S
C31 N35 1.413 . S
C32 H25 0.930 . S
C32 C31 1.393 . S
C32 C33 1.399 . S
C33 C32 1.399 . S
C33 C34 1.381 . S
C34 H26 0.930 . S
C34 C30 1.390 . S
C34 C33 1.381 . S
N35 C28 1.286 . S
N35 C31 1.413 . S
H36 C41 0.930 . S
H37 C44 0.930 . S
H38 C46 0.930 . S
H39 C40 1.016 . S
C40 H39 1.016 . S
C40 N47 1.286 1_545 S
C41 H36 0.930 . S
C41 C42 1.397 1_565 S
C41 C43 1.361 . S
C42 C41 1.397 1_545 S
C42 C46 1.390 . S
C43 C41 1.361 . S
C43 C44 1.393 . S
C43 N47 1.413 . S
C44 H37 0.930 . S
C44 C43 1.393 . S
C44 C45 1.399 1_565 S
C45 C44 1.399 1_545 S
C45 C46 1.381 . S
C46 H38 0.930 . S
C46 C42 1.390 . S
C46 C45 1.381 . S
N47 C40 1.286 1_565 S
N47 C43 1.413 . S
H48 C53 0.930 . S
H49 C56 0.930 . S
H50 C58 0.930 . S
H51 C52 1.026 . S
C52 H51 1.026 . S
C52 N59 1.272 1_455 S
C53 H48 0.930 . S
C53 C54 1.400 . S
C53 C55 1.361 . S
C54 C53 1.400 . S
C54 C58 1.388 1_655 S
C55 C53 1.361 . S
C55 C56 1.393 . S
C55 N59 1.413 . S
C56 H49 0.930 . S
C56 C55 1.393 . S
C56 C57 1.399 . S
C57 C56 1.399 . S
C57 C58 1.380 1_655 S
C58 H50 0.930 . S
C58 C54 1.388 1_455 S
C58 C57 1.380 1_455 S
N59 C52 1.272 1_655 S
N59 C55 1.413 . S
H60 C65 0.930 . S
H61 C68 0.930 . S
H62 C70 0.930 . S
H63 C64 1.018 . S
C64 H63 1.018 . S
C64 N71 1.286 . S
C65 H60 0.930 . S
C65 C66 1.397 . S
C65 C67 1.361 . S
C66 C65 1.397 . S
C66 C70 1.390 . S
C67 C65 1.361 . S
C67 C68 1.393 . S
C67 N71 1.413 . S
C68 H61 0.930 . S
C68 C67 1.393 . S
C68 C69 1.399 . S
C69 C68 1.399 . S
C69 C70 1.381 . S
C70 H62 0.930 . S
C70 C66 1.390 . S
C70 C69 1.381 . S
N71 C64 1.286 . S
N71 C67 1.413 . S
H72 C77 0.930 . S
H73 C80 0.930 . S
H74 C82 0.930 . S
H75 C76 1.016 . S
C76 H75 1.016 . S
C76 N83 1.286 . S
C77 H72 0.930 . S
C77 C78 1.397 . S
C77 C79 1.361 . S
C78 C77 1.397 . S
C78 C82 1.390 . S
C79 C77 1.361 . S
C79 C80 1.393 . S
C79 N83 1.413 . S
C80 H73 0.930 . S
C80 C79 1.393 . S
C80 C81 1.399 . S
C81 C80 1.399 . S
C81 C82 1.381 . S
C82 H74 0.930 . S
C82 C78 1.390 . S
C82 C81 1.381 . S
N83 C76 1.286 . S
N83 C79 1.413 . S
H84 C89 0.930 . S
H85 C92 0.930 . S
H86 C94 0.930 . S
H87 C88 1.016 . S
C88 H87 1.016 . S
C88 N95 1.286 . S
C89 H84 0.930 . S
C89 C90 1.397 . S
C89 C91 1.361 . S
C90 C89 1.397 . S
C90 C94 1.390 . S
C91 C89 1.361 . S
C91 C92 1.393 . S
C91 N95 1.413 . S
C92 H85 0.930 . S
C92 C91 1.393 . S
C92 C93 1.399 . S
C93 C92 1.399 . S
C93 C94 1.381 . S
C94 H86 0.930 . S
C94 C90 1.390 . S
C94 C93 1.381 . S
N95 C88 1.286 . S
N95 C91 1.413 . S
H96 C101 0.930 . S
H97 C104 0.930 . S
H98 C106 0.930 . S
H99 C100 1.016 . S
C100 H99 1.016 . S
C100 N107 1.286 . S
C101 H96 0.930 . S
C101 C102 1.397 . S
C101 C103 1.361 . S
C102 C101 1.397 . S
C102 C106 1.390 . S
C103 C101 1.361 . S
C103 C104 1.393 . S
C103 N107 1.413 . S
C104 H97 0.930 . S
C104 C103 1.393 . S
C104 C105 1.399 . S
C105 C104 1.399 . S
C105 C106 1.381 . S
C106 H98 0.930 . S
C106 C102 1.390 . S
C106 C105 1.381 . S
N107 C100 1.286 . S
N107 C103 1.413 . S
H108 C113 0.930 . S
H109 C116 0.930 . S
H110 C118 0.930 . S
H111 C112 1.016 . S
C112 H111 1.016 . S
C112 N119 1.286 . S
C113 H108 0.930 . S
C113 C114 1.397 . S
C113 C115 1.361 . S
C114 C113 1.397 . S
C114 C118 1.390 . S
C115 C113 1.361 . S
C115 C116 1.393 . S
C115 N119 1.413 . S
C116 H109 0.930 . S
C116 C115 1.393 . S
C116 C117 1.399 . S
C117 C116 1.399 . S
C117 C118 1.381 . S
C118 H110 0.930 . S
C118 C114 1.390 . S
C118 C117 1.381 . S
N119 C112 1.286 . S
N119 C115 1.413 . S
H120 C125 0.930 . S
H121 C128 0.930 . S
H122 C130 0.932 . S
H123 C124 1.016 1_556 S
C124 H123 1.016 1_554 S
C124 N131 1.286 . S
C125 H120 0.930 . S
C125 C126 1.397 . S
C125 C127 1.361 . S
C126 C125 1.397 . S
C126 C130 1.389 1_554 S
C127 C125 1.361 . S
C127 C128 1.393 . S
C127 N131 1.413 . S
C128 H121 0.930 . S
C128 C127 1.393 . S
C128 C129 1.399 . S
C129 C128 1.399 . S
C129 C130 1.380 1_554 S
C130 H122 0.932 . S
C130 C126 1.389 1_556 S
C130 C129 1.380 1_556 S
N131 C124 1.286 . S
N131 C127 1.413 . S
H132 C137 0.930 . S
H133 C140 0.929 1_556 S
H134 C142 0.930 . S
H135 C136 1.016 . S
C136 H135 1.016 . S
C136 N143 1.286 1_554 S
C137 H132 0.930 . S
C137 C138 1.397 1_556 S
C137 C139 1.361 . S
C138 C137 1.397 1_554 S
C138 C142 1.390 . S
C139 C137 1.361 . S
C139 C140 1.391 1_556 S
C139 N143 1.413 . S
C140 H133 0.929 1_554 S
C140 C139 1.391 1_554 S
C140 C141 1.404 . S
C141 C140 1.404 . S
C141 C142 1.381 . S
C142 H134 0.930 . S
C142 C138 1.390 . S
C142 C141 1.381 . S
N143 C136 1.286 1_556 S
N143 C139 1.413 . S
H144 C149 0.930 . S
H145 C152 0.930 . S
H146 C154 0.930 . S
H147 C148 1.016 . S
C148 H147 1.016 . S
C148 N155 1.286 . S
C149 H144 0.930 . S
C149 C150 1.397 . S
C149 C151 1.361 . S
C150 C149 1.397 . S
C150 C154 1.390 . S
C151 C149 1.361 . S
C151 C152 1.393 . S
C151 N155 1.413 . S
C152 H145 0.930 . S
C152 C151 1.393 . S
C152 C153 1.399 . S
C153 C152 1.399 . S
C153 C154 1.381 . S
C154 H146 0.930 . S
C154 C150 1.390 . S
C154 C153 1.381 . S
N155 C148 1.286 . S
N155 C151 1.413 . S
H156 C161 0.930 . S
H157 C164 0.930 . S
H158 C166 0.930 . S
H159 C160 1.016 . S
C160 H159 1.016 . S
C160 N167 1.286 . S
C161 H156 0.930 . S
C161 C162 1.397 . S
C161 C163 1.361 . S
C162 C161 1.397 . S
C162 C166 1.390 . S
C163 C161 1.361 . S
C163 C164 1.393 . S
C163 N167 1.413 . S
C164 H157 0.930 . S
C164 C163 1.393 . S
C164 C165 1.399 . S
C165 C164 1.399 . S
C165 C166 1.381 . S
C166 H158 0.930 . S
C166 C162 1.390 . S
C166 C165 1.381 . S
N167 C160 1.286 . S
N167 C163 1.413 . S
H168 C173 0.930 . S
H169 C176 0.930 . S
H170 C178 0.930 . S
H171 C172 1.016 . S
C172 H171 1.016 . S
C172 N179 1.286 . S
C173 H168 0.930 . S
C173 C174 1.397 . S
C173 C175 1.361 . S
C174 C173 1.397 . S
C174 C178 1.390 . S
C175 C173 1.361 . S
C175 C176 1.393 . S
C175 N179 1.413 . S
C176 H169 0.930 . S
C176 C175 1.393 . S
C176 C177 1.399 . S
C177 C176 1.399 . S
C177 C178 1.381 . S
C178 H170 0.930 . S
C178 C174 1.390 . S
C178 C177 1.381 . S
N179 C172 1.286 . S
N179 C175 1.413 . S
H180 C185 0.930 . S
H181 C188 0.930 . S
H182 C190 0.930 . S
H183 C184 1.016 . S
C184 H183 1.016 . S
C184 N191 1.286 . S
C185 H180 0.930 . S
C185 C186 1.397 . S
C185 C187 1.361 . S
C186 C185 1.397 . S
C186 C190 1.390 . S
C187 C185 1.361 . S
C187 C188 1.393 . S
C187 N191 1.413 . S
C188 H181 0.930 . S
C188 C187 1.393 . S
C188 C189 1.399 . S
C189 C188 1.399 . S
C189 C190 1.381 . S
C190 H182 0.930 . S
C190 C186 1.390 . S
C190 C189 1.381 . S
N191 C184 1.286 . S
N191 C187 1.413 . S
H192 C197 0.930 . S
H193 C200 0.930 . S
H194 C202 0.930 . S
H195 C196 1.016 . S
C196 H195 1.016 . S
C196 N203 1.286 . S
C197 H192 0.930 . S
C197 C198 1.397 . S
C197 C199 1.361 . S
C198 C197 1.397 . S
C198 C202 1.390 . S
C199 C197 1.361 . S
C199 C200 1.393 . S
C199 N203 1.413 . S
C200 H193 0.930 . S
C200 C199 1.393 . S
C200 C201 1.399 . S
C201 C200 1.399 . S
C201 C202 1.381 . S
C202 H194 0.930 . S
C202 C198 1.390 . S
C202 C201 1.381 . S
N203 C196 1.286 . S
N203 C199 1.413 . S
H204 C209 0.930 . S
H205 C212 0.930 . S
H206 C214 0.930 . S
H207 C208 1.016 . S
C208 H207 1.016 . S
C208 N215 1.286 . S
C209 H204 0.930 . S
C209 C210 1.397 . S
C209 C211 1.361 . S
C210 C209 1.397 . S
C210 C214 1.390 . S
C211 C209 1.361 . S
C211 C212 1.393 . S
C211 N215 1.413 . S
C212 H205 0.930 . S
C212 C211 1.393 . S
C212 C213 1.399 . S
C213 C212 1.399 . S
C213 C214 1.381 . S
C214 H206 0.930 . S
C214 C210 1.390 . S
C214 C213 1.381 . S
N215 C208 1.286 . S
N215 C211 1.413 . S
H216 C221 0.930 . S
H217 C224 0.930 . S
H218 C226 0.930 . S
H219 C220 1.016 . S
C220 H219 1.016 . S
C220 N227 1.286 . S
C221 H216 0.930 . S
C221 C222 1.397 . S
C221 C223 1.361 . S
C222 C221 1.397 . S
C222 C226 1.390 . S
C223 C221 1.361 . S
C223 C224 1.393 . S
C223 N227 1.413 . S
C224 H217 0.930 . S
C224 C223 1.393 . S
C224 C225 1.399 . S
C225 C224 1.399 . S
C225 C226 1.381 . S
C226 H218 0.930 . S
C226 C222 1.390 . S
C226 C225 1.381 . S
N227 C220 1.286 . S
N227 C223 1.413 . S
H228 C233 0.930 . S
H229 C236 0.930 . S
H230 C238 0.930 . S
H231 C232 1.016 . S
C232 H231 1.016 . S
C232 N239 1.286 . S
C233 H228 0.930 . S
C233 C234 1.397 . S
C233 C235 1.361 . S
C234 C233 1.397 . S
C234 C238 1.390 . S
C235 C233 1.361 . S
C235 C236 1.393 . S
C235 N239 1.413 . S
C236 H229 0.930 . S
C236 C235 1.393 . S
C236 C237 1.399 . S
C237 C236 1.399 . S
C237 C238 1.381 . S
C238 H230 0.930 . S
C238 C234 1.390 . S
C238 C237 1.381 . S
N239 C232 1.286 . S
N239 C235 1.413 . S
H240 C245 0.930 . S
H241 C248 0.930 . S
H242 C250 0.930 . S
H243 C244 1.016 . S
C244 H243 1.016 . S
C244 N251 1.286 . S
C245 H240 0.930 . S
C245 C246 1.397 . S
C245 C247 1.361 . S
C246 C245 1.397 . S
C246 C250 1.390 . S
C247 C245 1.361 . S
C247 C248 1.393 . S
C247 N251 1.413 . S
C248 H241 0.930 . S
C248 C247 1.393 . S
C248 C249 1.399 . S
C249 C248 1.399 . S
C249 C250 1.381 . S
C250 H242 0.930 . S
C250 C246 1.390 . S
C250 C249 1.381 . S
N251 C244 1.286 . S
N251 C247 1.413 . S
H252 C257 0.930 . S
H253 C260 0.930 . S
H254 C262 0.930 . S
H255 C256 1.016 . S
C256 H255 1.016 . S
C256 N263 1.286 . S
C257 H252 0.930 . S
C257 C258 1.397 . S
C257 C259 1.361 . S
C258 C257 1.397 . S
C258 C262 1.390 . S
C259 C257 1.361 . S
C259 C260 1.393 . S
C259 N263 1.413 . S
C260 H253 0.930 . S
C260 C259 1.393 . S
C260 C261 1.399 . S
C261 C260 1.399 . S
C261 C262 1.381 . S
C262 H254 0.930 . S
C262 C258 1.390 . S
C262 C261 1.381 . S
N263 C256 1.286 . S
N263 C259 1.413 . S
H264 C269 0.930 . S
H265 C272 0.930 . S
H266 C274 0.930 . S
H267 C268 1.016 . S
C268 H267 1.016 . S
C268 N275 1.286 . S
C269 H264 0.930 . S
C269 C270 1.397 . S
C269 C271 1.361 . S
C270 C269 1.397 . S
C270 C274 1.390 . S
C271 C269 1.361 . S
C271 C272 1.393 . S
C271 N275 1.413 . S
C272 H265 0.930 . S
C272 C271 1.393 . S
C272 C273 1.399 . S
C273 C272 1.399 . S
C273 C274 1.381 . S
C274 H266 0.930 . S
C274 C270 1.390 . S
C274 C273 1.381 . S
N275 C268 1.286 . S
N275 C271 1.413 . S
H276 C281 0.930 . S
H277 C284 0.930 . S
H278 C286 0.930 . S
H279 C280 1.016 . S
C280 H279 1.016 . S
C280 N287 1.286 . S
C281 H276 0.930 . S
C281 C282 1.397 . S
C281 C283 1.361 . S
C282 C281 1.397 . S
C282 C286 1.390 . S
C283 C281 1.361 . S
C283 C284 1.393 . S
C283 N287 1.413 . S
C284 H277 0.930 . S
C284 C283 1.393 . S
C284 C285 1.399 . S
C285 C284 1.399 . S
C285 C286 1.381 . S
C286 H278 0.930 . S
C286 C282 1.390 . S
C286 C285 1.381 . S
N287 C280 1.286 . S
N287 C283 1.413 . S
Zn288 O290 1.933 1_565 S
Zn288 O308 1.985 1_565 S
Zn288 O319 1.955 . S
Zn289 O290 1.911 . S
Zn289 O309 1.970 . S
Zn289 O325 1.945 . S
Zn289 O332 1.981 . S
O290 Zn288 1.933 1_545 S
O290 Zn289 1.911 . S
O290 H291 0.841 1_655 S
H291 O290 0.841 1_455 S
C292 O293 1.246 . S
C292 O321 1.276 . S
O293 C292 1.246 . S
Zn294 O296 1.911 . S
Zn294 O311 1.970 . S
Zn294 O328 1.945 . S
Zn294 O335 1.981 . S
Zn295 O296 1.933 1_565 S
Zn295 O310 1.985 . S
Zn295 O317 1.955 . S
O296 Zn294 1.911 . S
O296 Zn295 1.933 1_545 S
O296 H297 0.841 . S
H297 O296 0.841 . S
Zn298 O299 1.933 1_565 S
Zn298 O312 1.985 1_565 S
Zn298 O321 1.955 . S
O299 Zn298 1.933 1_545 S
O299 Zn300 1.911 . S
O299 H301 0.841 . S
Zn300 O299 1.911 . S
Zn300 O313 1.970 . S
Zn300 O329 1.981 1_655 S
Zn300 O331 1.945 . S
H301 O299 0.841 . S
Zn302 O303 1.933 1_565 S
Zn302 O315 1.985 . S
Zn302 O323 1.955 . S
O303 Zn302 1.933 1_545 S
O303 H304 0.841 . S
O303 Zn305 1.911 . S
H304 O303 0.841 . S
Zn305 O303 1.911 . S
Zn305 O316 1.970 . S
Zn305 O326 1.981 . S
Zn305 O334 1.945 . S
C306 O307 1.246 . S
C306 O323 1.276 . S
O307 C306 1.246 . S
O308 Zn288 1.985 1_545 S
O308 C318 1.244 . S
O309 Zn289 1.970 . S
O309 C318 1.263 . S
O310 Zn295 1.985 . S
O310 C322 1.245 1_565 S
O311 Zn294 1.970 . S
O311 C322 1.263 . S
O312 Zn298 1.985 1_545 S
O312 C327 1.243 . S
O313 Zn300 1.970 . S
O313 C327 1.263 . S
C314 O325 1.262 1_455 S
C314 O326 1.245 . S
O315 Zn302 1.985 . S
O315 C333 1.245 1_565 S
O316 Zn305 1.970 . S
O316 C333 1.263 . S
O317 Zn295 1.955 . S
O317 C336 1.276 . S
C318 O308 1.244 . S
C318 O309 1.263 . S
O319 Zn288 1.955 . S
O319 C338 1.276 1_655 S
C320 O328 1.262 . S
C320 O329 1.245 . S
O321 C292 1.276 . S
O321 Zn298 1.955 . S
C322 O310 1.245 1_545 S
C322 O311 1.263 . S
O323 Zn302 1.955 . S
O323 C306 1.276 . S
C324 O331 1.262 . S
C324 O332 1.245 . S
O325 Zn289 1.945 . S
O325 C314 1.262 1_655 S
O326 Zn305 1.981 . S
O326 C314 1.245 . S
C327 O312 1.243 . S
C327 O313 1.263 . S
O328 Zn294 1.945 . S
O328 C320 1.262 . S
O329 Zn300 1.981 1_455 S
O329 C320 1.245 . S
C330 O334 1.262 . S
C330 O335 1.245 . S
O331 Zn300 1.945 . S
O331 C324 1.262 . S
O332 Zn289 1.981 . S
O332 C324 1.245 . S
C333 O315 1.245 1_545 S
C333 O316 1.263 . S
O334 Zn305 1.945 . S
O334 C330 1.262 . S
O335 Zn294 1.981 . S
O335 C330 1.245 . S
C336 O317 1.276 . S
C336 O337 1.245 . S
O337 C336 1.245 . S
C338 O319 1.276 1_455 S
C338 O339 1.246 . S
O339 C338 1.246 . S
Zn340 O342 1.933 . S
Zn340 O360 1.985 . S
Zn340 O371 1.955 . S
Zn341 O342 1.911 1_556 S
Zn341 O361 1.970 . S
Zn341 O377 1.945 . S
Zn341 O384 1.981 . S
O342 Zn340 1.933 . S
O342 Zn341 1.911 1_554 S
O342 H343 0.841 . S
H343 O342 0.841 . S
C344 O345 1.246 . S
C344 O373 1.276 . S
O345 C344 1.246 . S
Zn346 O348 1.911 1_556 S
Zn346 O363 1.970 . S
Zn346 O380 1.945 . S
Zn346 O387 1.981 . S
Zn347 O348 1.933 . S
Zn347 O362 1.985 . S
Zn347 O369 1.955 . S
O348 Zn346 1.911 1_554 S
O348 Zn347 1.933 . S
O348 H349 0.841 1_565 S
H349 O348 0.841 1_545 S
Zn350 O351 1.933 . S
Zn350 O364 1.985 . S
Zn350 O373 1.955 . S
O351 Zn350 1.933 . S
O351 Zn352 1.911 1_554 S
O351 H353 0.841 . S
Zn352 O351 1.911 1_556 S
Zn352 O365 1.970 . S
Zn352 O381 1.981 . S
Zn352 O383 1.945 . S
H353 O351 0.841 . S
Zn354 O355 1.933 . S
Zn354 O367 1.985 . S
Zn354 O375 1.955 . S
O355 Zn354 1.933 . S
O355 H356 0.841 . S
O355 Zn357 1.911 1_554 S
H356 O355 0.841 . S
Zn357 O355 1.911 1_556 S
Zn357 O368 1.970 . S
Zn357 O378 1.981 1_565 S
Zn357 O386 1.945 . S
C358 O359 1.246 . S
C358 O375 1.276 . S
O359 C358 1.246 . S
O360 Zn340 1.985 . S
O360 C370 1.245 . S
O361 Zn341 1.970 . S
O361 C370 1.263 1_556 S
O362 Zn347 1.985 . S
O362 C374 1.245 . S
O363 Zn346 1.970 . S
O363 C374 1.263 1_556 S
O364 Zn350 1.985 . S
O364 C379 1.245 . S
O365 Zn352 1.970 . S
O365 C379 1.263 1_556 S
C366 O377 1.262 . S
C366 O378 1.245 . S
O367 Zn354 1.985 . S
O367 C385 1.245 . S
O368 Zn357 1.970 . S
O368 C385 1.263 1_556 S
O369 Zn347 1.955 . S
O369 C388 1.276 1_565 S
C370 O360 1.245 . S
C370 O361 1.263 1_554 S
O371 Zn340 1.955 . S
O371 C390 1.276 . S
C372 O380 1.262 1_545 S
C372 O381 1.245 . S
O373 C344 1.276 . S
O373 Zn350 1.955 . S
C374 O362 1.245 . S
C374 O363 1.263 1_554 S
O375 Zn354 1.955 . S
O375 C358 1.276 . S
C376 O383 1.262 . S
C376 O384 1.245 . S
O377 Zn341 1.945 . S
O377 C366 1.262 . S
O378 Zn357 1.981 1_545 S
O378 C366 1.245 . S
C379 O364 1.245 . S
C379 O365 1.263 1_554 S
O380 Zn346 1.945 . S
O380 C372 1.262 1_565 S
O381 Zn352 1.981 . S
O381 C372 1.245 . S
C382 O386 1.262 . S
C382 O387 1.245 . S
O383 Zn352 1.945 . S
O383 C376 1.262 . S
O384 Zn341 1.981 . S
O384 C376 1.245 . S
C385 O367 1.245 . S
C385 O368 1.263 1_554 S
O386 Zn357 1.945 . S
O386 C382 1.262 . S
O387 Zn346 1.981 . S
O387 C382 1.245 . S
C388 O369 1.276 1_545 S
C388 O389 1.246 . S
O389 C388 1.246 . S
C390 O371 1.276 . S
C390 O391 1.246 . S
O391 C390 1.246 . S
Zn392 O394 1.933 1_655 S
Zn392 O412 1.985 . S
Zn392 O423 1.955 1_655 S
Zn393 O394 1.911 1_655 S
Zn393 O413 1.970 . S
Zn393 O429 1.945 . S
Zn393 O436 1.981 1_556 S
O394 Zn392 1.933 1_455 S
O394 Zn393 1.911 1_455 S
O394 H395 0.841 . S
H395 O394 0.841 . S
C396 O397 1.230 1_554 S
C396 O425 1.276 . S
O397 C396 1.230 1_556 S
Zn398 O400 1.911 . S
Zn398 O415 1.970 . S
Zn398 O432 1.945 . S
Zn398 O439 1.981 . S
Zn399 O400 1.933 . S
Zn399 O414 1.985 . S
Zn399 O421 1.955 . S
O400 Zn398 1.911 . S
O400 Zn399 1.933 . S
O400 H401 0.841 . S
H401 O400 0.841 . S
Zn402 O403 1.933 . S
Zn402 O416 1.985 . S
Zn402 O425 1.955 . S
O403 Zn402 1.933 . S
O403 Zn404 1.911 . S
O403 H405 0.841 . S
Zn404 O403 1.911 . S
Zn404 O417 1.970 . S
Zn404 O433 1.981 1_655 S
Zn404 O435 1.945 . S
H405 O403 0.841 . S
Zn406 O407 1.933 . S
Zn406 O419 1.985 . S
Zn406 O427 1.955 . S
O407 Zn406 1.933 . S
O407 H408 0.841 1_556 S
O407 Zn409 1.911 . S
H408 O407 0.841 1_554 S
Zn409 O407 1.911 . S
Zn409 O420 1.970 . S
Zn409 O430 1.981 . S
Zn409 O438 1.945 . S
C410 O411 1.246 . S
C410 O427 1.276 1_554 S
O411 C410 1.246 . S
O412 Zn392 1.985 . S
O412 C422 1.245 . S
O413 Zn393 1.970 . S
O413 C422 1.263 . S
O414 Zn399 1.985 . S
O414 C426 1.245 . S
O415 Zn398 1.970 . S
O415 C426 1.263 . S
O416 Zn402 1.985 . S
O416 C431 1.245 . S
O417 Zn404 1.970 . S
O417 C431 1.263 . S
C418 O429 1.262 1_455 S
C418 O430 1.245 . S
O419 Zn406 1.985 . S
O419 C437 1.245 . S
O420 Zn409 1.970 . S
O420 C437 1.263 . S
O421 Zn399 1.955 . S
O421 C440 1.276 . S
C422 O412 1.245 . S
C422 O413 1.263 . S
O423 Zn392 1.955 1_455 S
O423 C442 1.276 . S
C424 O432 1.262 . S
C424 O433 1.245 . S
O425 C396 1.276 . S
O425 Zn402 1.955 . S
C426 O414 1.245 . S
C426 O415 1.263 . S
O427 Zn406 1.955 . S
O427 C410 1.276 1_556 S
C428 O435 1.262 . S
C428 O436 1.245 . S
O429 Zn393 1.945 . S
O429 C418 1.262 1_655 S
O430 Zn409 1.981 . S
O430 C418 1.245 . S
C431 O416 1.245 . S
C431 O417 1.263 . S
O432 Zn398 1.945 . S
O432 C424 1.262 . S
O433 Zn404 1.981 1_455 S
O433 C424 1.245 . S
C434 O438 1.262 1_554 S
C434 O439 1.245 . S
O435 Zn404 1.945 . S
O435 C428 1.262 . S
O436 Zn393 1.981 1_554 S
O436 C428 1.245 . S
C437 O419 1.245 . S
C437 O420 1.263 . S
O438 Zn409 1.945 . S
O438 C434 1.262 1_556 S
O439 Zn398 1.981 . S
O439 C434 1.245 . S
C440 O421 1.276 . S
C440 O441 1.246 . S
O441 C440 1.246 . S
C442 O423 1.276 . S
C442 O443 1.246 . S
O443 C442 1.246 . S
Zn444 O446 1.933 1_556 S
Zn444 O464 1.985 . S
Zn444 O475 1.955 . S
Zn445 O446 1.911 . S
Zn445 O465 1.970 . S
Zn445 O481 1.945 . S
Zn445 O488 1.981 . S
O446 Zn444 1.933 1_554 S
O446 Zn445 1.911 . S
O446 H447 0.841 . S
H447 O446 0.841 . S
C448 O449 1.246 . S
C448 O477 1.276 . S
O449 C448 1.246 . S
Zn450 O452 1.911 . S
Zn450 O467 1.970 . S
Zn450 O484 1.945 . S
Zn450 O491 1.981 . S
Zn451 O452 1.933 1_556 S
Zn451 O466 1.985 . S
Zn451 O473 1.955 . S
O452 Zn450 1.911 . S
O452 Zn451 1.933 1_554 S
O452 H453 0.841 . S
H453 O452 0.841 . S
Zn454 O455 1.933 1_556 S
Zn454 O468 1.985 . S
Zn454 O477 1.955 . S
O455 Zn454 1.933 1_554 S
O455 Zn456 1.911 . S
O455 H457 0.841 . S
Zn456 O455 1.911 . S
Zn456 O469 1.970 . S
Zn456 O485 1.981 . S
Zn456 O487 1.945 . S
H457 O455 0.841 . S
Zn458 O459 1.933 1_556 S
Zn458 O471 1.985 . S
Zn458 O479 1.955 . S
O459 Zn458 1.933 1_554 S
O459 H460 0.841 . S
O459 Zn461 1.911 . S
H460 O459 0.841 . S
Zn461 O459 1.911 . S
Zn461 O472 1.970 . S
Zn461 O482 1.981 . S
Zn461 O490 1.945 . S
C462 O463 1.246 . S
C462 O479 1.276 . S
O463 C462 1.246 . S
O464 Zn444 1.985 . S
O464 C474 1.245 1_556 S
O465 Zn445 1.970 . S
O465 C474 1.263 . S
O466 Zn451 1.985 . S
O466 C478 1.245 1_556 S
O467 Zn450 1.970 . S
O467 C478 1.263 . S
O468 Zn454 1.985 . S
O468 C483 1.245 1_556 S
O469 Zn456 1.970 . S
O469 C483 1.263 . S
C470 O481 1.262 . S
C470 O482 1.245 . S
O471 Zn458 1.985 . S
O471 C489 1.245 1_556 S
O472 Zn461 1.970 . S
O472 C489 1.263 . S
O473 Zn451 1.955 . S
O473 C492 1.276 . S
C474 O464 1.245 1_554 S
C474 O465 1.263 . S
O475 Zn444 1.955 . S
O475 C494 1.276 . S
C476 O484 1.262 . S
C476 O485 1.245 . S
O477 C448 1.276 . S
O477 Zn454 1.955 . S
C478 O466 1.245 1_554 S
C478 O467 1.263 . S
O479 Zn458 1.955 . S
O479 C462 1.276 . S
C480 O487 1.262 . S
C480 O488 1.245 . S
O481 Zn445 1.945 . S
O481 C470 1.262 . S
O482 Zn461 1.981 . S
O482 C470 1.245 . S
C483 O468 1.245 1_554 S
C483 O469 1.263 . S
O484 Zn450 1.945 . S
O484 C476 1.262 . S
O485 Zn456 1.981 . S
O485 C476 1.245 . S
C486 O490 1.262 . S
C486 O491 1.245 . S
O487 Zn456 1.945 . S
O487 C480 1.262 . S
O488 Zn445 1.981 . S
O488 C480 1.245 . S
C489 O471 1.245 1_554 S
C489 O472 1.263 . S
O490 Zn461 1.945 . S
O490 C486 1.262 . S
O491 Zn450 1.981 . S
O491 C486 1.245 . S
C492 O473 1.276 . S
C492 O493 1.246 . S
O493 C492 1.246 . S
C494 O475 1.276 . S
C494 O495 1.246 . S
O495 C494 1.246 . S
Zn496 O498 1.933 . S
Zn496 O516 1.985 . S
Zn496 O527 1.966 . S
Zn497 O498 1.911 . S
Zn497 O517 1.970 . S
Zn497 O533 1.945 . S
Zn497 O540 1.981 . S
O498 Zn496 1.933 . S
O498 Zn497 1.911 . S
O498 H499 0.841 1_655 S
H499 O498 0.841 1_455 S
C500 O501 1.246 . S
C500 O529 1.276 . S
O501 C500 1.246 . S
Zn502 O504 1.911 . S
Zn502 O519 1.970 . S
Zn502 O536 1.945 . S
Zn502 O543 1.981 . S
Zn503 O504 1.933 . S
Zn503 O518 1.985 . S
Zn503 O525 1.955 . S
O504 Zn502 1.911 . S
O504 Zn503 1.933 . S
O504 H505 0.841 . S
H505 O504 0.841 . S
Zn506 O507 1.933 . S
Zn506 O520 1.985 . S
Zn506 O529 1.955 . S
O507 Zn506 1.933 . S
O507 Zn508 1.911 . S
O507 H509 0.841 . S
Zn508 O507 1.911 . S
Zn508 O521 1.970 . S
Zn508 O537 1.981 1_655 S
Zn508 O539 1.945 . S
H509 O507 0.841 . S
Zn510 O511 1.933 . S
Zn510 O523 1.985 . S
Zn510 O531 1.955 . S
O511 Zn510 1.933 . S
O511 H512 0.841 . S
O511 Zn513 1.911 . S
H512 O511 0.841 . S
Zn513 O511 1.911 . S
Zn513 O524 1.970 . S
Zn513 O534 1.981 . S
Zn513 O542 1.945 . S
C514 O515 1.246 . S
C514 O531 1.276 . S
O515 C514 1.246 . S
O516 Zn496 1.985 . S
O516 C526 1.245 . S
O517 Zn497 1.970 . S
O517 C526 1.263 . S
O518 Zn503 1.985 . S
O518 C530 1.245 . S
O519 Zn502 1.970 . S
O519 C530 1.263 . S
O520 Zn506 1.985 . S
O520 C535 1.245 . S
O521 Zn508 1.970 . S
O521 C535 1.263 . S
C522 O533 1.262 1_455 S
C522 O534 1.245 . S
O523 Zn510 1.985 . S
O523 C541 1.245 . S
O524 Zn513 1.970 . S
O524 C541 1.263 . S
O525 Zn503 1.955 . S
O525 C544 1.276 . S
C526 O516 1.245 . S
C526 O517 1.263 . S
O527 Zn496 1.966 . S
O527 C546 1.241 1_655 S
C528 O536 1.262 . S
C528 O537 1.245 . S
O529 C500 1.276 . S
O529 Zn506 1.955 . S
C530 O518 1.245 . S
C530 O519 1.263 . S
O531 Zn510 1.955 . S
O531 C514 1.276 . S
C532 O539 1.262 . S
C532 O540 1.245 . S
O533 Zn497 1.945 . S
O533 C522 1.262 1_655 S
O534 Zn513 1.981 . S
O534 C522 1.245 . S
C535 O520 1.245 . S
C535 O521 1.263 . S
O536 Zn502 1.945 . S
O536 C528 1.262 . S
O537 Zn508 1.981 1_455 S
O537 C528 1.245 . S
C538 O542 1.262 . S
C538 O543 1.245 . S
O539 Zn508 1.945 . S
O539 C532 1.262 . S
O540 Zn497 1.981 . S
O540 C532 1.245 . S
C541 O523 1.245 . S
C541 O524 1.263 . S
O542 Zn513 1.945 . S
O542 C538 1.262 . S
O543 Zn502 1.981 . S
O543 C538 1.245 . S
C544 O525 1.276 . S
C544 O545 1.246 . S
O545 C544 1.246 . S
C546 O527 1.241 1_455 S
C546 O547 1.246 . S
O547 C546 1.246 . S
Zn548 O550 1.933 1_565 S
Zn548 O568 1.985 . S
Zn548 O579 1.955 . S
Zn549 O550 1.911 . S
Zn549 O569 1.970 . S
Zn549 O585 1.945 . S
Zn549 O592 1.981 . S
O550 Zn548 1.933 1_545 S
O550 Zn549 1.911 . S
O550 H551 0.841 . S
H551 O550 0.841 . S
C552 O553 1.246 . S
C552 O581 1.276 . S
O553 C552 1.246 . S
Zn554 O556 1.911 . S
Zn554 O571 1.970 . S
Zn554 O588 1.945 . S
Zn554 O595 1.981 . S
Zn555 O556 1.933 1_565 S
Zn555 O570 1.985 1_565 S
Zn555 O577 1.955 . S
O556 Zn554 1.911 . S
O556 Zn555 1.933 1_545 S
O556 H557 0.841 . S
H557 O556 0.841 . S
Zn558 O559 1.933 1_565 S
Zn558 O572 1.985 . S
Zn558 O581 1.955 . S
O559 Zn558 1.933 1_545 S
O559 Zn560 1.911 . S
O559 H561 0.841 . S
Zn560 O559 1.911 . S
Zn560 O573 1.970 . S
Zn560 O589 1.981 . S
Zn560 O591 1.945 . S
H561 O559 0.841 . S
Zn562 O563 1.933 1_565 S
Zn562 O575 1.985 1_565 S
Zn562 O583 1.955 . S
O563 Zn562 1.933 1_545 S
O563 H564 0.841 . S
O563 Zn565 1.911 . S
H564 O563 0.841 . S
Zn565 O563 1.911 . S
Zn565 O576 1.970 . S
Zn565 O586 1.981 . S
Zn565 O594 1.945 . S
C566 O567 1.246 . S
C566 O583 1.276 . S
O567 C566 1.246 . S
O568 Zn548 1.985 . S
O568 C578 1.245 1_565 S
O569 Zn549 1.970 . S
O569 C578 1.263 . S
O570 Zn555 1.985 1_545 S
O570 C582 1.245 . S
O571 Zn554 1.970 . S
O571 C582 1.263 . S
O572 Zn558 1.985 . S
O572 C587 1.245 1_565 S
O573 Zn560 1.970 . S
O573 C587 1.263 . S
C574 O585 1.262 . S
C574 O586 1.245 . S
O575 Zn562 1.985 1_545 S
O575 C593 1.245 . S
O576 Zn565 1.970 . S
O576 C593 1.263 . S
O577 Zn555 1.955 . S
O577 C596 1.276 . S
C578 O568 1.245 1_545 S
C578 O569 1.263 . S
O579 Zn548 1.955 . S
O579 C598 1.276 . S
C580 O588 1.262 . S
C580 O589 1.245 . S
O581 C552 1.276 . S
O581 Zn558 1.955 . S
C582 O570 1.245 . S
C582 O571 1.263 . S
O583 Zn562 1.955 . S
O583 C566 1.276 . S
C584 O591 1.262 . S
C584 O592 1.245 . S
O585 Zn549 1.945 . S
O585 C574 1.262 . S
O586 Zn565 1.981 . S
O586 C574 1.245 . S
C587 O572 1.245 1_545 S
C587 O573 1.263 . S
O588 Zn554 1.945 . S
O588 C580 1.262 . S
O589 Zn560 1.981 . S
O589 C580 1.245 . S
C590 O594 1.262 . S
C590 O595 1.245 . S
O591 Zn560 1.945 . S
O591 C584 1.262 . S
O592 Zn549 1.981 . S
O592 C584 1.245 . S
C593 O575 1.245 . S
C593 O576 1.263 . S
O594 Zn565 1.945 . S
O594 C590 1.262 . S
O595 Zn554 1.981 . S
O595 C590 1.245 . S
C596 O577 1.276 . S
C596 O597 1.246 . S
O597 C596 1.246 . S
C598 O579 1.276 . S
C598 O599 1.246 . S
O599 C598 1.246 . S
C600 C601 1.391 . S
C600 C602 1.394 . S
C600 H616 0.931 . S
C601 C600 1.391 . S
C601 C605 1.376 . S
C602 C600 1.394 . S
C602 C603 1.369 . S
C602 C606 1.531 . S
C603 C602 1.369 . S
C603 C604 1.410 . S
C603 C611 1.503 . S
C604 C603 1.410 . S
C604 C605 1.392 . S
C604 C607 1.511 . S
C605 C601 1.376 . S
C605 C604 1.392 . S
C605 H617 0.929 . S
C606 C602 1.531 . S
C606 H618 0.960 . S
C606 H619 0.962 . S
C606 H620 0.960 . S
C607 C604 1.511 . S
C607 H621 0.961 . S
C607 H622 0.961 . S
C607 H623 0.961 . S
C608 C609 1.370 . S
C608 C610 1.363 . S
C608 H624 0.931 . S
C609 C608 1.370 . S
C609 C613 1.408 . S
C610 C608 1.363 . S
C610 C611 1.370 . S
C610 C614 1.524 . S
C611 C603 1.503 . S
C611 C610 1.370 . S
C611 C612 1.403 . S
C612 C611 1.403 . S
C612 C613 1.404 . S
C612 C615 1.539 . S
C613 C609 1.408 . S
C613 C612 1.404 . S
C613 H625 0.930 . S
C614 C610 1.524 . S
C614 H626 0.956 . S
C614 H627 0.961 . S
C614 H628 0.961 . S
C615 C612 1.539 . S
C615 H629 0.958 . S
C615 H630 0.961 . S
C615 H631 0.960 . S
H616 C600 0.931 . S
H617 C605 0.929 . S
H618 C606 0.960 . S
H619 C606 0.962 . S
H620 C606 0.960 . S
H621 C607 0.961 . S
H622 C607 0.961 . S
H623 C607 0.961 . S
H624 C608 0.931 . S
H625 C613 0.930 . S
H626 C614 0.956 . S
H627 C614 0.961 . S
H628 C614 0.961 . S
H629 C615 0.958 . S
H630 C615 0.961 . S
H631 C615 0.960 . S
C632 C633 1.391 . S
C632 C634 1.394 . S
C632 H648 0.931 . S
C633 C632 1.391 . S
C633 C637 1.376 . S
C634 C632 1.394 . S
C634 C635 1.369 . S
C634 C638 1.531 . S
C635 C634 1.369 . S
C635 C636 1.410 . S
C635 C643 1.503 . S
C636 C635 1.410 . S
C636 C637 1.392 . S
C636 C639 1.511 . S
C637 C633 1.376 . S
C637 C636 1.392 . S
C637 H649 0.929 . S
C638 C634 1.531 . S
C638 H650 0.960 . S
C638 H651 0.962 . S
C638 H652 0.960 . S
C639 C636 1.511 . S
C639 H653 0.961 . S
C639 H654 0.961 . S
C639 H655 0.961 . S
C640 C641 1.370 . S
C640 C642 1.363 . S
C640 H656 0.931 . S
C641 C640 1.370 . S
C641 C645 1.408 . S
C642 C640 1.363 . S
C642 C643 1.370 . S
C642 C646 1.524 . S
C643 C635 1.503 . S
C643 C642 1.370 . S
C643 C644 1.403 . S
C644 C643 1.403 . S
C644 C645 1.404 . S
C644 C647 1.539 . S
C645 C641 1.408 . S
C645 C644 1.404 . S
C645 H657 0.930 . S
C646 C642 1.524 . S
C646 H658 0.956 . S
C646 H659 0.961 . S
C646 H660 0.961 . S
C647 C644 1.539 . S
C647 H661 0.958 . S
C647 H662 0.961 . S
C647 H663 0.960 . S
H648 C632 0.931 . S
H649 C637 0.929 . S
H650 C638 0.960 . S
H651 C638 0.962 . S
H652 C638 0.960 . S
H653 C639 0.961 . S
H654 C639 0.961 . S
H655 C639 0.961 . S
H656 C640 0.931 . S
H657 C645 0.930 . S
H658 C646 0.956 . S
H659 C646 0.961 . S
H660 C646 0.961 . S
H661 C647 0.958 . S
H662 C647 0.961 . S
H663 C647 0.960 . S
C664 C665 1.391 . S
C664 C666 1.394 . S
C664 H680 0.931 . S
C665 C664 1.391 . S
C665 C669 1.376 . S
C666 C664 1.394 . S
C666 C667 1.369 . S
C666 C670 1.531 . S
C667 C666 1.369 . S
C667 C668 1.410 . S
C667 C675 1.503 . S
C668 C667 1.410 . S
C668 C669 1.392 . S
C668 C671 1.511 . S
C669 C665 1.376 . S
C669 C668 1.392 . S
C669 H681 0.929 . S
C670 C666 1.531 . S
C670 H682 0.960 . S
C670 H683 0.962 . S
C670 H684 0.960 . S
C671 C668 1.511 . S
C671 H685 0.961 . S
C671 H686 0.961 . S
C671 H687 0.961 . S
C672 C673 1.370 . S
C672 C674 1.363 . S
C672 H688 0.931 . S
C673 C672 1.370 . S
C673 C677 1.408 . S
C674 C672 1.363 . S
C674 C675 1.370 . S
C674 C678 1.524 . S
C675 C667 1.503 . S
C675 C674 1.370 . S
C675 C676 1.403 . S
C676 C675 1.403 . S
C676 C677 1.404 . S
C676 C679 1.539 . S
C677 C673 1.408 . S
C677 C676 1.404 . S
C677 H689 0.930 . S
C678 C674 1.524 . S
C678 H690 0.956 . S
C678 H691 0.961 . S
C678 H692 0.961 . S
C679 C676 1.539 . S
C679 H693 0.958 . S
C679 H694 0.961 . S
C679 H695 0.960 . S
H680 C664 0.931 . S
H681 C669 0.929 . S
H682 C670 0.960 . S
H683 C670 0.962 . S
H684 C670 0.960 . S
H685 C671 0.961 . S
H686 C671 0.961 . S
H687 C671 0.961 . S
H688 C672 0.931 . S
H689 C677 0.930 . S
H690 C678 0.956 . S
H691 C678 0.961 . S
H692 C678 0.961 . S
H693 C679 0.958 . S
H694 C679 0.961 . S
H695 C679 0.960 . S
C696 C697 1.391 . S
C696 C698 1.394 . S
C696 H712 0.931 . S
C697 C696 1.391 . S
C697 C701 1.376 . S
C698 C696 1.394 . S
C698 C699 1.369 . S
C698 C702 1.531 . S
C699 C698 1.369 . S
C699 C700 1.410 . S
C699 C707 1.503 . S
C700 C699 1.410 . S
C700 C701 1.392 . S
C700 C703 1.511 . S
C701 C697 1.376 . S
C701 C700 1.392 . S
C701 H713 0.929 . S
C702 C698 1.531 . S
C702 H714 0.960 . S
C702 H715 0.962 . S
C702 H716 0.960 . S
C703 C700 1.511 . S
C703 H717 0.961 . S
C703 H718 0.961 . S
C703 H719 0.961 . S
C704 C705 1.370 . S
C704 C706 1.363 . S
C704 H720 0.931 . S
C705 C704 1.370 . S
C705 C709 1.408 . S
C706 C704 1.363 . S
C706 C707 1.370 . S
C706 C710 1.524 . S
C707 C699 1.503 . S
C707 C706 1.370 . S
C707 C708 1.403 . S
C708 C707 1.403 . S
C708 C709 1.404 . S
C708 C711 1.539 . S
C709 C705 1.408 . S
C709 C708 1.404 . S
C709 H721 0.930 . S
C710 C706 1.524 . S
C710 H722 0.956 . S
C710 H723 0.961 . S
C710 H724 0.961 . S
C711 C708 1.539 . S
C711 H725 0.958 . S
C711 H726 0.961 . S
C711 H727 0.960 . S
H712 C696 0.931 . S
H713 C701 0.929 . S
H714 C702 0.960 . S
H715 C702 0.962 . S
H716 C702 0.960 . S
H717 C703 0.961 . S
H718 C703 0.961 . S
H719 C703 0.961 . S
H720 C704 0.931 . S
H721 C709 0.930 . S
H722 C710 0.956 . S
H723 C710 0.961 . S
H724 C710 0.961 . S
H725 C711 0.958 . S
H726 C711 0.961 . S
H727 C711 0.960 . S
C728 C729 1.391 . S
C728 C730 1.394 . S
C728 H744 0.931 . S
C729 C728 1.391 . S
C729 C733 1.376 . S
C730 C728 1.394 . S
C730 C731 1.369 . S
C730 C734 1.531 . S
C731 C730 1.369 . S
C731 C732 1.410 . S
C731 C739 1.503 . S
C732 C731 1.410 . S
C732 C733 1.392 . S
C732 C735 1.511 . S
C733 C729 1.376 . S
C733 C732 1.392 . S
C733 H745 0.929 . S
C734 C730 1.531 . S
C734 H746 0.960 . S
C734 H747 0.962 . S
C734 H748 0.960 . S
C735 C732 1.511 . S
C735 H749 0.961 . S
C735 H750 0.961 . S
C735 H751 0.961 . S
C736 C737 1.370 . S
C736 C738 1.363 . S
C736 H752 0.931 . S
C737 C736 1.370 . S
C737 C741 1.408 . S
C738 C736 1.363 . S
C738 C739 1.370 . S
C738 C742 1.524 . S
C739 C731 1.503 . S
C739 C738 1.370 . S
C739 C740 1.403 . S
C740 C739 1.403 . S
C740 C741 1.404 . S
C740 C743 1.539 . S
C741 C737 1.408 . S
C741 C740 1.404 . S
C741 H753 0.930 . S
C742 C738 1.524 . S
C742 H754 0.956 . S
C742 H755 0.961 . S
C742 H756 0.961 . S
C743 C740 1.539 . S
C743 H757 0.958 . S
C743 H758 0.961 . S
C743 H759 0.960 . S
H744 C728 0.931 . S
H745 C733 0.929 . S
H746 C734 0.960 . S
H747 C734 0.962 . S
H748 C734 0.960 . S
H749 C735 0.961 . S
H750 C735 0.961 . S
H751 C735 0.961 . S
H752 C736 0.931 . S
H753 C741 0.930 . S
H754 C742 0.956 . S
H755 C742 0.961 . S
H756 C742 0.961 . S
H757 C743 0.958 . S
H758 C743 0.961 . S
H759 C743 0.960 . S
C760 C761 1.391 . S
C760 C762 1.394 . S
C760 H776 0.931 . S
C761 C760 1.391 . S
C761 C765 1.376 . S
C762 C760 1.394 . S
C762 C763 1.369 . S
C762 C766 1.531 . S
C763 C762 1.369 . S
C763 C764 1.410 . S
C763 C771 1.503 . S
C764 C763 1.410 . S
C764 C765 1.392 . S
C764 C767 1.511 . S
C765 C761 1.376 . S
C765 C764 1.392 . S
C765 H777 0.929 . S
C766 C762 1.531 . S
C766 H778 0.960 . S
C766 H779 0.962 . S
C766 H780 0.960 . S
C767 C764 1.511 . S
C767 H781 0.961 . S
C767 H782 0.961 . S
C767 H783 0.961 . S
C768 C769 1.370 . S
C768 C770 1.363 . S
C768 H784 0.931 . S
C769 C768 1.370 . S
C769 C773 1.408 . S
C770 C768 1.363 . S
C770 C771 1.370 . S
C770 C774 1.524 . S
C771 C763 1.503 . S
C771 C770 1.370 . S
C771 C772 1.403 . S
C772 C771 1.403 . S
C772 C773 1.404 . S
C772 C775 1.539 . S
C773 C769 1.408 . S
C773 C772 1.404 . S
C773 H785 0.930 . S
C774 C770 1.524 . S
C774 H786 0.956 . S
C774 H787 0.961 . S
C774 H788 0.961 . S
C775 C772 1.539 . S
C775 H789 0.958 . S
C775 H790 0.961 . S
C775 H791 0.960 . S
H776 C760 0.931 . S
H777 C765 0.929 . S
H778 C766 0.960 . S
H779 C766 0.962 . S
H780 C766 0.960 . S
H781 C767 0.961 . S
H782 C767 0.961 . S
H783 C767 0.961 . S
H784 C768 0.931 . S
H785 C773 0.930 . S
H786 C774 0.956 . S
H787 C774 0.961 . S
H788 C774 0.961 . S
H789 C775 0.958 . S
H790 C775 0.961 . S
H791 C775 0.960 . S
C792 C793 1.391 . S
C792 C794 1.394 . S
C792 H808 0.931 . S
C793 C792 1.391 . S
C793 C797 1.376 . S
C794 C792 1.394 . S
C794 C795 1.369 . S
C794 C798 1.531 . S
C795 C794 1.369 . S
C795 C796 1.410 . S
C795 C803 1.503 . S
C796 C795 1.410 . S
C796 C797 1.392 . S
C796 C799 1.511 . S
C797 C793 1.376 . S
C797 C796 1.392 . S
C797 H809 0.929 . S
C798 C794 1.531 . S
C798 H810 0.960 . S
C798 H811 0.962 . S
C798 H812 0.960 . S
C799 C796 1.511 . S
C799 H813 0.961 . S
C799 H814 0.961 . S
C799 H815 0.961 . S
C800 C801 1.370 . S
C800 C802 1.363 . S
C800 H816 0.931 . S
C801 C800 1.370 . S
C801 C805 1.408 . S
C802 C800 1.363 . S
C802 C803 1.370 . S
C802 C806 1.524 . S
C803 C795 1.503 . S
C803 C802 1.370 . S
C803 C804 1.403 . S
C804 C803 1.403 . S
C804 C805 1.404 . S
C804 C807 1.539 . S
C805 C801 1.408 . S
C805 C804 1.404 . S
C805 H817 0.930 . S
C806 C802 1.524 . S
C806 H818 0.956 . S
C806 H819 0.961 . S
C806 H820 0.961 . S
C807 C804 1.539 . S
C807 H821 0.958 . S
C807 H822 0.961 . S
C807 H823 0.960 . S
H808 C792 0.931 . S
H809 C797 0.929 . S
H810 C798 0.960 . S
H811 C798 0.962 . S
H812 C798 0.960 . S
H813 C799 0.961 . S
H814 C799 0.961 . S
H815 C799 0.961 . S
H816 C800 0.931 . S
H817 C805 0.930 . S
H818 C806 0.956 . S
H819 C806 0.961 . S
H820 C806 0.961 . S
H821 C807 0.958 . S
H822 C807 0.961 . S
H823 C807 0.960 . S
C824 C825 1.391 . S
C824 C826 1.394 . S
C824 H840 0.931 . S
C825 C824 1.391 . S
C825 C829 1.376 . S
C826 C824 1.394 . S
C826 C827 1.369 . S
C826 C830 1.531 . S
C827 C826 1.369 . S
C827 C828 1.410 . S
C827 C835 1.503 . S
C828 C827 1.410 . S
C828 C829 1.392 . S
C828 C831 1.511 . S
C829 C825 1.376 . S
C829 C828 1.392 . S
C829 H841 0.929 . S
C830 C826 1.531 . S
C830 H842 0.960 . S
C830 H843 0.962 . S
C830 H844 0.960 . S
C831 C828 1.511 . S
C831 H845 0.961 . S
C831 H846 0.961 . S
C831 H847 0.961 . S
C832 C833 1.370 . S
C832 C834 1.363 . S
C832 H848 0.931 . S
C833 C832 1.370 . S
C833 C837 1.408 . S
C834 C832 1.363 . S
C834 C835 1.370 . S
C834 C838 1.524 . S
C835 C827 1.503 . S
C835 C834 1.370 . S
C835 C836 1.403 . S
C836 C835 1.403 . S
C836 C837 1.404 . S
C836 C839 1.539 . S
C837 C833 1.408 . S
C837 C836 1.404 . S
C837 H849 0.930 . S
C838 C834 1.524 . S
C838 H850 0.956 . S
C838 H851 0.961 . S
C838 H852 0.961 . S
C839 C836 1.539 . S
C839 H853 0.958 . S
C839 H854 0.961 . S
C839 H855 0.960 . S
H840 C824 0.931 . S
H841 C829 0.929 . S
H842 C830 0.960 . S
H843 C830 0.962 . S
H844 C830 0.960 . S
H845 C831 0.961 . S
H846 C831 0.961 . S
H847 C831 0.961 . S
H848 C832 0.931 . S
H849 C837 0.930 . S
H850 C838 0.956 . S
H851 C838 0.961 . S
H852 C838 0.961 . S
H853 C839 0.958 . S
H854 C839 0.961 . S
H855 C839 0.960 . S
C856 C857 1.391 . S
C856 C858 1.394 . S
C856 H872 0.931 . S
C857 C856 1.391 . S
C857 C861 1.376 . S
C858 C856 1.394 . S
C858 C859 1.369 . S
C858 C862 1.531 . S
C859 C858 1.369 . S
C859 C860 1.410 . S
C859 C867 1.503 . S
C860 C859 1.410 . S
C860 C861 1.392 . S
C860 C863 1.511 . S
C861 C857 1.376 . S
C861 C860 1.392 . S
C861 H873 0.929 . S
C862 C858 1.531 . S
C862 H874 0.960 . S
C862 H875 0.962 . S
C862 H876 0.960 . S
C863 C860 1.511 . S
C863 H877 0.961 . S
C863 H878 0.961 . S
C863 H879 0.961 . S
C864 C865 1.370 . S
C864 C866 1.363 . S
C864 H880 0.931 . S
C865 C864 1.370 . S
C865 C869 1.408 . S
C866 C864 1.363 . S
C866 C867 1.370 . S
C866 C870 1.524 . S
C867 C859 1.503 . S
C867 C866 1.370 . S
C867 C868 1.403 . S
C868 C867 1.403 . S
C868 C869 1.404 . S
C868 C871 1.539 . S
C869 C865 1.408 . S
C869 C868 1.404 . S
C869 H881 0.930 . S
C870 C866 1.524 . S
C870 H882 0.956 . S
C870 H883 0.961 . S
C870 H884 0.961 . S
C871 C868 1.539 . S
C871 H885 0.958 . S
C871 H886 0.961 . S
C871 H887 0.960 . S
H872 C856 0.931 . S
H873 C861 0.929 . S
H874 C862 0.960 . S
H875 C862 0.962 . S
H876 C862 0.960 . S
H877 C863 0.961 . S
H878 C863 0.961 . S
H879 C863 0.961 . S
H880 C864 0.931 . S
H881 C869 0.930 . S
H882 C870 0.956 . S
H883 C870 0.961 . S
H884 C870 0.961 . S
H885 C871 0.958 . S
H886 C871 0.961 . S
H887 C871 0.960 . S
C888 C889 1.391 . S
C888 C890 1.394 . S
C888 H904 0.931 . S
C889 C888 1.391 . S
C889 C893 1.376 . S
C890 C888 1.394 . S
C890 C891 1.369 . S
C890 C894 1.531 . S
C891 C890 1.369 . S
C891 C892 1.410 . S
C891 C899 1.503 . S
C892 C891 1.410 . S
C892 C893 1.392 . S
C892 C895 1.511 . S
C893 C889 1.376 . S
C893 C892 1.392 . S
C893 H905 0.929 . S
C894 C890 1.531 . S
C894 H906 0.960 . S
C894 H907 0.962 . S
C894 H908 0.960 . S
C895 C892 1.511 . S
C895 H909 0.961 . S
C895 H910 0.961 . S
C895 H911 0.961 . S
C896 C897 1.370 . S
C896 C898 1.363 . S
C896 H912 0.931 . S
C897 C896 1.370 . S
C897 C901 1.408 . S
C898 C896 1.363 . S
C898 C899 1.370 . S
C898 C902 1.524 . S
C899 C891 1.503 . S
C899 C898 1.370 . S
C899 C900 1.403 . S
C900 C899 1.403 . S
C900 C901 1.404 . S
C900 C903 1.539 . S
C901 C897 1.408 . S
C901 C900 1.404 . S
C901 H913 0.930 . S
C902 C898 1.524 . S
C902 H914 0.956 . S
C902 H915 0.961 . S
C902 H916 0.961 . S
C903 C900 1.539 . S
C903 H917 0.958 . S
C903 H918 0.961 . S
C903 H919 0.960 . S
H904 C888 0.931 . S
H905 C893 0.929 . S
H906 C894 0.960 . S
H907 C894 0.962 . S
H908 C894 0.960 . S
H909 C895 0.961 . S
H910 C895 0.961 . S
H911 C895 0.961 . S
H912 C896 0.931 . S
H913 C901 0.930 . S
H914 C902 0.956 . S
H915 C902 0.961 . S
H916 C902 0.961 . S
H917 C903 0.958 . S
H918 C903 0.961 . S
H919 C903 0.960 . S
C920 C921 1.391 . S
C920 C922 1.394 . S
C920 H936 0.931 . S
C921 C920 1.391 . S
C921 C925 1.376 . S
C922 C920 1.394 . S
C922 C923 1.369 . S
C922 C926 1.531 . S
C923 C922 1.369 . S
C923 C924 1.410 . S
C923 C931 1.503 . S
C924 C923 1.410 . S
C924 C925 1.392 . S
C924 C927 1.511 . S
C925 C921 1.376 . S
C925 C924 1.392 . S
C925 H937 0.929 . S
C926 C922 1.531 . S
C926 H938 0.960 . S
C926 H939 0.962 . S
C926 H940 0.960 . S
C927 C924 1.511 . S
C927 H941 0.961 . S
C927 H942 0.961 . S
C927 H943 0.961 . S
C928 C929 1.370 . S
C928 C930 1.363 . S
C928 H944 0.931 . S
C929 C928 1.370 . S
C929 C933 1.408 . S
C930 C928 1.363 . S
C930 C931 1.370 . S
C930 C934 1.524 . S
C931 C923 1.503 . S
C931 C930 1.370 . S
C931 C932 1.403 . S
C932 C931 1.403 . S
C932 C933 1.404 . S
C932 C935 1.539 . S
C933 C929 1.408 . S
C933 C932 1.404 . S
C933 H945 0.930 . S
C934 C930 1.524 . S
C934 H946 0.956 . S
C934 H947 0.961 . S
C934 H948 0.961 . S
C935 C932 1.539 . S
C935 H949 0.958 . S
C935 H950 0.961 . S
C935 H951 0.960 . S
H936 C920 0.931 . S
H937 C925 0.929 . S
H938 C926 0.960 . S
H939 C926 0.962 . S
H940 C926 0.960 . S
H941 C927 0.961 . S
H942 C927 0.961 . S
H943 C927 0.961 . S
H944 C928 0.931 . S
H945 C933 0.930 . S
H946 C934 0.956 . S
H947 C934 0.961 . S
H948 C934 0.961 . S
H949 C935 0.958 . S
H950 C935 0.961 . S
H951 C935 0.960 . S
C952 C953 1.391 . S
C952 C954 1.394 . S
C952 H968 0.931 . S
C953 C952 1.391 . S
C953 C957 1.376 . S
C954 C952 1.394 . S
C954 C955 1.369 . S
C954 C958 1.531 . S
C955 C954 1.369 . S
C955 C956 1.410 . S
C955 C963 1.503 . S
C956 C955 1.410 . S
C956 C957 1.392 . S
C956 C959 1.511 . S
C957 C953 1.376 . S
C957 C956 1.392 . S
C957 H969 0.929 . S
C958 C954 1.531 . S
C958 H970 0.960 . S
C958 H971 0.962 . S
C958 H972 0.960 . S
C959 C956 1.511 . S
C959 H973 0.961 . S
C959 H974 0.961 . S
C959 H975 0.961 . S
C960 C961 1.370 . S
C960 C962 1.363 . S
C960 H976 0.931 . S
C961 C960 1.370 . S
C961 C965 1.408 . S
C962 C960 1.363 . S
C962 C963 1.370 . S
C962 C966 1.524 . S
C963 C955 1.503 . S
C963 C962 1.370 . S
C963 C964 1.403 . S
C964 C963 1.403 . S
C964 C965 1.404 . S
C964 C967 1.539 . S
C965 C961 1.408 . S
C965 C964 1.404 . S
C965 H977 0.930 . S
C966 C962 1.524 . S
C966 H978 0.956 . S
C966 H979 0.961 . S
C966 H980 0.961 . S
C967 C964 1.539 . S
C967 H981 0.958 . S
C967 H982 0.961 . S
C967 H983 0.960 . S
H968 C952 0.931 . S
H969 C957 0.929 . S
H970 C958 0.960 . S
H971 C958 0.962 . S
H972 C958 0.960 . S
H973 C959 0.961 . S
H974 C959 0.961 . S
H975 C959 0.961 . S
H976 C960 0.931 . S
H977 C965 0.930 . S
H978 C966 0.956 . S
H979 C966 0.961 . S
H980 C966 0.961 . S
H981 C967 0.958 . S
H982 C967 0.961 . S
H983 C967 0.960 . S
C984 C985 1.394 . S
C984 C986 1.393 1_554 S
C984 H1000 0.927 1_554 S
C985 C984 1.394 . S
C985 C989 1.376 . S
C986 C984 1.393 1_556 S
C986 C987 1.369 1_556 S
C986 C990 1.531 . S
C987 C986 1.369 1_554 S
C987 C988 1.410 . S
C987 C995 1.503 . S
C988 C987 1.410 . S
C988 C989 1.392 . S
C988 C991 1.511 . S
C989 C985 1.376 . S
C989 C988 1.392 . S
C989 H1001 0.929 . S
C990 C986 1.531 . S
C990 H1002 0.960 . S
C990 H1003 0.962 1_556 S
C990 H1004 0.960 . S
C991 C988 1.511 . S
C991 H1005 0.961 . S
C991 H1006 0.961 . S
C991 H1007 0.961 1_554 S
C992 C993 1.370 . S
C992 C994 1.363 . S
C992 H1008 0.931 . S
C993 C992 1.370 . S
C993 C997 1.408 1_554 S
C994 C992 1.363 . S
C994 C995 1.370 . S
C994 C998 1.524 . S
C995 C987 1.503 . S
C995 C994 1.370 . S
C995 C996 1.403 1_554 S
C996 C995 1.403 1_556 S
C996 C997 1.404 . S
C996 C999 1.539 . S
C997 C993 1.408 1_556 S
C997 C996 1.404 . S
C997 H1009 0.930 . S
C998 C994 1.524 . S
C998 H1010 0.956 . S
C998 H1011 0.961 . S
C998 H1012 0.961 . S
C999 C996 1.539 . S
C999 H1013 0.958 . S
C999 H1014 0.961 . S
C999 H1015 0.960 . S
H1000 C984 0.927 1_556 S
H1001 C989 0.929 . S
H1002 C990 0.960 . S
H1003 C990 0.962 1_554 S
H1004 C990 0.960 . S
H1005 C991 0.961 . S
H1006 C991 0.961 . S
H1007 C991 0.961 1_556 S
H1008 C992 0.931 . S
H1009 C997 0.930 . S
H1010 C998 0.956 . S
H1011 C998 0.961 . S
H1012 C998 0.961 . S
H1013 C999 0.958 . S
H1014 C999 0.961 . S
H1015 C999 0.960 . S
C1016 C1017 1.391 . S
C1016 C1018 1.394 . S
C1016 H1032 0.931 . S
C1017 C1016 1.391 . S
C1017 C1021 1.376 1_554 S
C1018 C1016 1.394 . S
C1018 C1019 1.369 . S
C1018 C1022 1.531 . S
C1019 C1018 1.369 . S
C1019 C1020 1.410 1_554 S
C1019 C1027 1.503 . S
C1020 C1019 1.410 1_556 S
C1020 C1021 1.392 . S
C1020 C1023 1.511 . S
C1021 C1017 1.376 1_556 S
C1021 C1020 1.392 . S
C1021 H1033 0.929 . S
C1022 C1018 1.531 . S
C1022 H1034 0.960 . S
C1022 H1035 0.962 . S
C1022 H1036 0.960 . S
C1023 C1020 1.511 . S
C1023 H1037 0.961 . S
C1023 H1038 0.961 . S
C1023 H1039 0.961 . S
C1024 C1025 1.370 . S
C1024 C1026 1.363 . S
C1024 H1040 0.931 1_554 S
C1025 C1024 1.370 . S
C1025 C1029 1.408 . S
C1026 C1024 1.363 . S
C1026 C1027 1.370 . S
C1026 C1030 1.524 1_554 S
C1027 C1019 1.503 . S
C1027 C1026 1.370 . S
C1027 C1028 1.403 . S
C1028 C1027 1.403 . S
C1028 C1029 1.404 . S
C1028 C1031 1.539 . S
C1029 C1025 1.408 . S
C1029 C1028 1.404 . S
C1029 H1041 0.930 . S
C1030 C1026 1.524 1_556 S
C1030 H1042 0.956 1_556 S
C1030 H1043 0.961 . S
C1030 H1044 0.961 . S
C1031 C1028 1.539 . S
C1031 H1045 0.958 . S
C1031 H1046 0.961 . S
C1031 H1047 0.960 . S
H1032 C1016 0.931 . S
H1033 C1021 0.929 . S
H1034 C1022 0.960 . S
H1035 C1022 0.962 . S
H1036 C1022 0.960 . S
H1037 C1023 0.961 . S
H1038 C1023 0.961 . S
H1039 C1023 0.961 . S
H1040 C1024 0.931 1_556 S
H1041 C1029 0.930 . S
H1042 C1030 0.956 1_554 S
H1043 C1030 0.961 . S
H1044 C1030 0.961 . S
H1045 C1031 0.958 . S
H1046 C1031 0.961 . S
H1047 C1031 0.960 . S
C1048 C1049 1.391 1_556 S
C1048 C1050 1.394 . S
C1048 H1064 0.931 . S
C1049 C1048 1.391 1_554 S
C1049 C1053 1.376 . S
C1050 C1048 1.394 . S
C1050 C1051 1.369 1_556 S
C1050 C1054 1.531 . S
C1051 C1050 1.369 1_554 S
C1051 C1052 1.410 . S
C1051 C1059 1.503 . S
C1052 C1051 1.410 . S
C1052 C1053 1.392 . S
C1052 C1055 1.511 . S
C1053 C1049 1.376 . S
C1053 C1052 1.392 . S
C1053 H1065 0.929 . S
C1054 C1050 1.531 . S
C1054 H1066 0.960 . S
C1054 H1067 0.962 . S
C1054 H1068 0.960 . S
C1055 C1052 1.511 . S
C1055 H1069 0.961 . S
C1055 H1070 0.961 . S
C1055 H1071 0.961 . S
C1056 C1057 1.370 . S
C1056 C1058 1.363 . S
C1056 H1072 0.931 . S
C1057 C1056 1.370 . S
C1057 C1061 1.408 . S
C1058 C1056 1.363 . S
C1058 C1059 1.370 . S
C1058 C1062 1.524 . S
C1059 C1051 1.503 . S
C1059 C1058 1.370 . S
C1059 C1060 1.403 . S
C1060 C1059 1.403 . S
C1060 C1061 1.404 . S
C1060 C1063 1.539 . S
C1061 C1057 1.408 . S
C1061 C1060 1.404 . S
C1061 H1073 0.930 . S
C1062 C1058 1.524 . S
C1062 H1074 0.956 1_554 S
C1062 H1075 0.961 . S
C1062 H1076 0.961 . S
C1063 C1060 1.539 . S
C1063 H1077 0.933 1_554 S
C1063 H1078 0.961 . S
C1063 H1079 0.960 . S
H1064 C1048 0.931 . S
H1065 C1053 0.929 . S
H1066 C1054 0.960 . S
H1067 C1054 0.962 . S
H1068 C1054 0.960 . S
H1069 C1055 0.961 . S
H1070 C1055 0.961 . S
H1071 C1055 0.961 . S
H1072 C1056 0.931 . S
H1073 C1061 0.930 . S
H1074 C1062 0.956 1_556 S
H1075 C1062 0.961 . S
H1076 C1062 0.961 . S
H1077 C1063 0.933 1_556 S
H1078 C1063 0.961 . S
H1079 C1063 0.960 . S
C1080 C1081 1.392 . S
C1080 C1082 1.394 . S
C1080 H1096 0.931 . S
C1081 C1080 1.392 . S
C1081 C1085 1.374 1_554 S
C1082 C1080 1.394 . S
C1082 C1083 1.368 1_554 S
C1082 C1086 1.531 . S
C1083 C1082 1.368 1_556 S
C1083 C1084 1.410 . S
C1083 C1091 1.503 1_556 S
C1084 C1083 1.410 . S
C1084 C1085 1.393 . S
C1084 C1087 1.511 . S
C1085 C1081 1.374 1_556 S
C1085 C1084 1.393 . S
C1085 H1097 0.930 . S
C1086 C1082 1.531 . S
C1086 H1098 0.960 1_554 S
C1086 H1099 0.962 . S
C1086 H1100 0.960 1_554 S
C1087 C1084 1.511 . S
C1087 H1101 0.961 1_556 S
C1087 H1102 0.961 1_556 S
C1087 H1103 0.961 . S
C1088 C1089 1.370 . S
C1088 C1090 1.363 . S
C1088 H1104 0.931 . S
C1089 C1088 1.370 . S
C1089 C1093 1.408 1_554 S
C1090 C1088 1.363 . S
C1090 C1091 1.370 . S
C1090 C1094 1.524 . S
C1091 C1083 1.503 1_554 S
C1091 C1090 1.370 . S
C1091 C1092 1.403 1_554 S
C1092 C1091 1.403 1_556 S
C1092 C1093 1.404 . S
C1092 C1095 1.539 . S
C1093 C1089 1.408 1_556 S
C1093 C1092 1.404 . S
C1093 H1105 0.930 . S
C1094 C1090 1.524 . S
C1094 H1106 0.956 . S
C1094 H1107 0.961 . S
C1094 H1108 0.961 . S
C1095 C1092 1.539 . S
C1095 H1109 0.958 . S
C1095 H1110 0.961 . S
C1095 H1111 0.960 . S
H1096 C1080 0.931 . S
H1097 C1085 0.930 . S
H1098 C1086 0.960 1_556 S
H1099 C1086 0.962 . S
H1100 C1086 0.960 1_556 S
H1101 C1087 0.961 1_554 S
H1102 C1087 0.961 1_554 S
H1103 C1087 0.961 . S
H1104 C1088 0.931 . S
H1105 C1093 0.930 . S
H1106 C1094 0.956 . S
H1107 C1094 0.961 . S
H1108 C1094 0.961 . S
H1109 C1095 0.958 . S
H1110 C1095 0.961 . S
H1111 C1095 0.960 . S
C1112 C1113 1.394 1_455 S
C1112 C1114 1.394 . S
C1112 H1128 0.931 . S
C1113 C1112 1.394 1_655 S
C1113 C1117 1.373 . S
C1114 C1112 1.394 . S
C1114 C1115 1.369 . S
C1114 C1118 1.531 . S
C1115 C1114 1.369 . S
C1115 C1116 1.410 1_455 S
C1115 C1123 1.503 . S
C1116 C1115 1.410 1_655 S
C1116 C1117 1.392 . S
C1116 C1119 1.511 . S
C1117 C1113 1.373 . S
C1117 C1116 1.392 . S
C1117 H1129 0.929 . S
C1118 C1114 1.531 . S
C1118 H1130 0.960 . S
C1118 H1131 0.962 . S
C1118 H1132 0.960 . S
C1119 C1116 1.511 . S
C1119 H1133 0.961 . S
C1119 H1134 0.961 . S
C1119 H1135 0.961 . S
C1120 C1121 1.370 . S
C1120 C1122 1.363 . S
C1120 H1136 0.931 . S
C1121 C1120 1.370 . S
C1121 C1125 1.408 1_455 S
C1122 C1120 1.363 . S
C1122 C1123 1.370 . S
C1122 C1126 1.524 . S
C1123 C1115 1.503 . S
C1123 C1122 1.370 . S
C1123 C1124 1.403 1_455 S
C1124 C1123 1.403 1_655 S
C1124 C1125 1.404 . S
C1124 C1127 1.539 . S
C1125 C1121 1.408 1_655 S
C1125 C1124 1.404 . S
C1125 H1137 0.930 . S
C1126 C1122 1.524 . S
C1126 H1138 0.956 . S
C1126 H1139 0.961 . S
C1126 H1140 0.961 . S
C1127 C1124 1.539 . S
C1127 H1141 0.958 . S
C1127 H1142 0.961 . S
C1127 H1143 0.960 . S
H1128 C1112 0.931 . S
H1129 C1117 0.929 . S
H1130 C1118 0.960 . S
H1131 C1118 0.962 . S
H1132 C1118 0.960 . S
H1133 C1119 0.961 . S
H1134 C1119 0.961 . S
H1135 C1119 0.961 . S
H1136 C1120 0.931 . S
H1137 C1125 0.930 . S
H1138 C1126 0.956 . S
H1139 C1126 0.961 . S
H1140 C1126 0.961 . S
H1141 C1127 0.958 . S
H1142 C1127 0.961 . S
H1143 C1127 0.960 . S
C1144 C1145 1.391 . S
C1144 C1146 1.394 . S
C1144 H1160 0.931 . S
C1145 C1144 1.391 . S
C1145 C1149 1.376 . S
C1146 C1144 1.394 . S
C1146 C1147 1.369 . S
C1146 C1150 1.531 . S
C1147 C1146 1.369 . S
C1147 C1148 1.410 . S
C1147 C1155 1.503 . S
C1148 C1147 1.410 . S
C1148 C1149 1.392 . S
C1148 C1151 1.511 1_545 S
C1149 C1145 1.376 . S
C1149 C1148 1.392 . S
C1149 H1161 0.929 1_545 S
C1150 C1146 1.531 . S
C1150 H1162 0.960 . S
C1150 H1163 0.962 . S
C1150 H1164 0.960 . S
C1151 C1148 1.511 1_565 S
C1151 H1165 0.961 . S
C1151 H1166 0.961 . S
C1151 H1167 0.961 1_565 S
C1152 C1153 1.370 1_565 S
C1152 C1154 1.363 . S
C1152 H1168 0.931 . S
C1153 C1152 1.370 1_545 S
C1153 C1157 1.408 . S
C1154 C1152 1.363 . S
C1154 C1155 1.370 1_565 S
C1154 C1158 1.524 . S
C1155 C1147 1.503 . S
C1155 C1154 1.370 1_545 S
C1155 C1156 1.403 . S
C1156 C1155 1.403 . S
C1156 C1157 1.404 . S
C1156 C1159 1.539 . S
C1157 C1153 1.408 . S
C1157 C1156 1.404 . S
C1157 H1169 0.930 . S
C1158 C1154 1.524 . S
C1158 H1170 0.956 . S
C1158 H1171 0.961 . S
C1158 H1172 0.961 . S
C1159 C1156 1.539 . S
C1159 H1173 0.958 . S
C1159 H1174 0.961 . S
C1159 H1175 0.960 . S
H1160 C1144 0.931 . S
H1161 C1149 0.929 1_565 S
H1162 C1150 0.960 . S
H1163 C1150 0.962 . S
H1164 C1150 0.960 . S
H1165 C1151 0.961 . S
H1166 C1151 0.961 . S
H1167 C1151 0.961 1_545 S
H1168 C1152 0.931 . S
H1169 C1157 0.930 . S
H1170 C1158 0.956 . S
H1171 C1158 0.961 . S
H1172 C1158 0.961 . S
H1173 C1159 0.958 . S
H1174 C1159 0.961 . S
H1175 C1159 0.960 . S
C1176 C1177 1.391 1_655 S
C1176 C1178 1.394 . S
C1176 H1192 0.931 . S
C1177 C1176 1.391 1_455 S
C1177 C1181 1.376 . S
C1178 C1176 1.394 . S
C1178 C1179 1.369 1_655 S
C1178 C1182 1.531 . S
C1179 C1178 1.369 1_455 S
C1179 C1180 1.410 . S
C1179 C1187 1.503 . S
C1180 C1179 1.410 . S
C1180 C1181 1.392 . S
C1180 C1183 1.511 . S
C1181 C1177 1.376 . S
C1181 C1180 1.392 . S
C1181 H1193 0.929 . S
C1182 C1178 1.531 . S
C1182 H1194 0.960 . S
C1182 H1195 0.962 . S
C1182 H1196 0.960 . S
C1183 C1180 1.511 . S
C1183 H1197 0.961 . S
C1183 H1198 0.961 . S
C1183 H1199 0.961 . S
C1184 C1185 1.370 . S
C1184 C1186 1.363 . S
C1184 H1200 0.931 1_455 S
C1185 C1184 1.370 . S
C1185 C1189 1.408 . S
C1186 C1184 1.363 . S
C1186 C1187 1.370 . S
C1186 C1190 1.524 . S
C1187 C1179 1.503 . S
C1187 C1186 1.370 . S
C1187 C1188 1.403 . S
C1188 C1187 1.403 . S
C1188 C1189 1.404 . S
C1188 C1191 1.539 . S
C1189 C1185 1.408 . S
C1189 C1188 1.404 . S
C1189 H1201 0.930 . S
C1190 C1186 1.524 . S
C1190 H1202 0.956 1_455 S
C1190 H1203 0.961 . S
C1190 H1204 0.961 1_455 S
C1191 C1188 1.539 . S
C1191 H1205 0.958 . S
C1191 H1206 0.961 . S
C1191 H1207 0.960 . S
H1192 C1176 0.931 . S
H1193 C1181 0.929 . S
H1194 C1182 0.960 . S
H1195 C1182 0.962 . S
H1196 C1182 0.960 . S
H1197 C1183 0.961 . S
H1198 C1183 0.961 . S
H1199 C1183 0.961 . S
H1200 C1184 0.931 1_655 S
H1201 C1189 0.930 . S
H1202 C1190 0.956 1_655 S
H1203 C1190 0.961 . S
H1204 C1190 0.961 1_655 S
H1205 C1191 0.958 . S
H1206 C1191 0.961 . S
H1207 C1191 0.960 . S
C1208 C1209 1.391 . S
C1208 C1210 1.394 . S
C1208 H1224 0.931 . S
C1209 C1208 1.391 . S
C1209 C1213 1.376 . S
C1210 C1208 1.394 . S
C1210 C1211 1.369 . S
C1210 C1214 1.531 . S
C1211 C1210 1.369 . S
C1211 C1212 1.410 . S
C1211 C1219 1.503 . S
C1212 C1211 1.410 . S
C1212 C1213 1.392 . S
C1212 C1215 1.511 . S
C1213 C1209 1.376 . S
C1213 C1212 1.392 . S
C1213 H1225 0.929 . S
C1214 C1210 1.531 . S
C1214 H1226 0.960 . S
C1214 H1227 0.962 . S
C1214 H1228 0.960 . S
C1215 C1212 1.511 . S
C1215 H1229 0.961 . S
C1215 H1230 0.961 . S
C1215 H1231 0.961 1_545 S
C1216 C1217 1.370 . S
C1216 C1218 1.363 . S
C1216 H1232 0.931 . S
C1217 C1216 1.370 . S
C1217 C1221 1.422 . S
C1218 C1216 1.363 . S
C1218 C1219 1.370 . S
C1218 C1222 1.524 . S
C1219 C1211 1.503 . S
C1219 C1218 1.370 . S
C1219 C1220 1.432 . S
C1220 C1219 1.432 . S
C1220 C1221 1.404 . S
C1220 C1223 1.509 1_545 S
C1221 C1217 1.422 . S
C1221 C1220 1.404 . S
C1221 H1233 0.916 1_545 S
C1222 C1218 1.524 . S
C1222 H1234 0.956 . S
C1222 H1235 0.961 . S
C1222 H1236 0.961 . S
C1223 C1220 1.509 1_565 S
C1223 H1237 0.958 . S
C1223 H1238 0.961 . S
C1223 H1239 0.960 . S
H1224 C1208 0.931 . S
H1225 C1213 0.929 . S
H1226 C1214 0.960 . S
H1227 C1214 0.962 . S
H1228 C1214 0.960 . S
H1229 C1215 0.961 . S
H1230 C1215 0.961 . S
H1231 C1215 0.961 1_565 S
H1232 C1216 0.931 . S
H1233 C1221 0.916 1_565 S
H1234 C1222 0.956 . S
H1235 C1222 0.961 . S
H1236 C1222 0.961 . S
H1237 C1223 0.958 . S
H1238 C1223 0.961 . S
H1239 C1223 0.960 . S
C1240 C1241 1.391 . S
C1240 C1242 1.394 . S
C1240 H1256 0.931 . S
C1241 C1240 1.391 . S
C1241 C1245 1.376 . S
C1242 C1240 1.394 . S
C1242 C1243 1.369 . S
C1242 C1246 1.531 . S
C1243 C1242 1.369 . S
C1243 C1244 1.410 . S
C1243 C1251 1.503 . S
C1244 C1243 1.410 . S
C1244 C1245 1.392 . S
C1244 C1247 1.511 . S
C1245 C1241 1.376 . S
C1245 C1244 1.392 . S
C1245 H1257 0.929 . S
C1246 C1242 1.531 . S
C1246 H1258 0.960 . S
C1246 H1259 0.962 . S
C1246 H1260 0.960 . S
C1247 C1244 1.511 . S
C1247 H1261 0.961 . S
C1247 H1262 0.961 . S
C1247 H1263 0.961 1_455 S
C1248 C1249 1.370 . S
C1248 C1250 1.363 . S
C1248 H1264 0.931 . S
C1249 C1248 1.370 . S
C1249 C1253 1.408 . S
C1250 C1248 1.363 . S
C1250 C1251 1.370 . S
C1250 C1254 1.524 . S
C1251 C1243 1.503 . S
C1251 C1250 1.370 . S
C1251 C1252 1.403 . S
C1252 C1251 1.403 . S
C1252 C1253 1.404 . S
C1252 C1255 1.539 1_455 S
C1253 C1249 1.408 . S
C1253 C1252 1.404 . S
C1253 H1265 0.930 1_455 S
C1254 C1250 1.524 . S
C1254 H1266 0.956 . S
C1254 H1267 0.961 . S
C1254 H1268 0.961 . S
C1255 C1252 1.539 1_655 S
C1255 H1269 0.958 . S
C1255 H1270 0.961 . S
C1255 H1271 0.960 . S
H1256 C1240 0.931 . S
H1257 C1245 0.929 . S
H1258 C1246 0.960 . S
H1259 C1246 0.962 . S
H1260 C1246 0.960 . S
H1261 C1247 0.961 . S
H1262 C1247 0.961 . S
H1263 C1247 0.961 1_655 S
H1264 C1248 0.931 . S
H1265 C1253 0.930 1_655 S
H1266 C1254 0.956 . S
H1267 C1254 0.961 . S
H1268 C1254 0.961 . S
H1269 C1255 0.958 . S
H1270 C1255 0.961 . S
H1271 C1255 0.960 . S
C1272 C1273 1.391 . S
C1272 C1274 1.394 . S
C1272 H1288 0.931 . S
C1273 C1272 1.391 . S
C1273 C1277 1.376 . S
C1274 C1272 1.394 . S
C1274 C1275 1.369 . S
C1274 C1278 1.531 . S
C1275 C1274 1.369 . S
C1275 C1276 1.410 . S
C1275 C1283 1.503 . S
C1276 C1275 1.410 . S
C1276 C1277 1.392 . S
C1276 C1279 1.511 . S
C1277 C1273 1.376 . S
C1277 C1276 1.392 . S
C1277 H1289 0.929 . S
C1278 C1274 1.531 . S
C1278 H1290 0.960 . S
C1278 H1291 0.962 . S
C1278 H1292 0.960 . S
C1279 C1276 1.511 . S
C1279 H1293 0.961 . S
C1279 H1294 0.961 . S
C1279 H1295 0.961 . S
C1280 C1281 1.370 . S
C1280 C1282 1.363 . S
C1280 H1296 0.931 . S
C1281 C1280 1.370 . S
C1281 C1285 1.376 1_545 S
C1282 C1280 1.363 . S
C1282 C1283 1.370 . S
C1282 C1286 1.524 . S
C1283 C1275 1.503 . S
C1283 C1282 1.370 . S
C1283 C1284 1.415 . S
C1284 C1283 1.415 . S
C1284 C1285 1.402 1_545 S
C1284 C1287 1.528 1_545 S
C1285 C1281 1.376 1_565 S
C1285 C1284 1.402 1_565 S
C1285 H1297 0.963 . S
C1286 C1282 1.524 . S
C1286 H1298 0.956 . S
C1286 H1299 0.961 . S
C1286 H1300 0.961 . S
C1287 C1284 1.528 1_565 S
C1287 H1301 0.958 . S
C1287 H1302 0.961 . S
C1287 H1303 0.960 . S
H1288 C1272 0.931 . S
H1289 C1277 0.929 . S
H1290 C1278 0.960 . S
H1291 C1278 0.962 . S
H1292 C1278 0.960 . S
H1293 C1279 0.961 . S
H1294 C1279 0.961 . S
H1295 C1279 0.961 . S
H1296 C1280 0.931 . S
H1297 C1285 0.963 . S
H1298 C1286 0.956 . S
H1299 C1286 0.961 . S
H1300 C1286 0.961 . S
H1301 C1287 0.958 . S
H1302 C1287 0.961 . S
H1303 C1287 0.960 . S
C1304 C1305 1.391 . S
C1304 C1306 1.394 . S
C1304 H1320 0.931 1_455 S
C1305 C1304 1.391 . S
C1305 C1309 1.376 . S
C1306 C1304 1.394 . S
C1306 C1307 1.369 . S
C1306 C1310 1.531 1_455 S
C1307 C1306 1.369 . S
C1307 C1308 1.410 . S
C1307 C1315 1.503 . S
C1308 C1307 1.410 . S
C1308 C1309 1.392 . S
C1308 C1311 1.511 . S
C1309 C1305 1.376 . S
C1309 C1308 1.392 . S
C1309 H1321 0.929 . S
C1310 C1306 1.531 1_655 S
C1310 H1322 0.960 . S
C1310 H1323 0.962 . S
C1310 H1324 0.960 . S
C1311 C1308 1.511 . S
C1311 H1325 0.961 . S
C1311 H1326 0.961 . S
C1311 H1327 0.961 . S
C1312 C1313 1.370 . S
C1312 C1314 1.363 . S
C1312 H1328 0.931 . S
C1313 C1312 1.370 . S
C1313 C1317 1.408 . S
C1314 C1312 1.363 . S
C1314 C1315 1.370 . S
C1314 C1318 1.524 1_455 S
C1315 C1307 1.503 . S
C1315 C1314 1.370 . S
C1315 C1316 1.403 . S
C1316 C1315 1.403 . S
C1316 C1317 1.404 . S
C1316 C1319 1.539 . S
C1317 C1313 1.408 . S
C1317 C1316 1.404 . S
C1317 H1329 0.930 . S
C1318 C1314 1.524 1_655 S
C1318 H1330 0.956 . S
C1318 H1331 0.961 1_655 S
C1318 H1332 0.961 . S
C1319 C1316 1.539 . S
C1319 H1333 0.958 . S
C1319 H1334 0.961 . S
C1319 H1335 0.960 . S
H1320 C1304 0.931 1_655 S
H1321 C1309 0.929 . S
H1322 C1310 0.960 . S
H1323 C1310 0.962 . S
H1324 C1310 0.960 . S
H1325 C1311 0.961 . S
H1326 C1311 0.961 . S
H1327 C1311 0.961 . S
H1328 C1312 0.931 . S
H1329 C1317 0.930 . S
H1330 C1318 0.956 . S
H1331 C1318 0.961 1_455 S
H1332 C1318 0.961 . S
H1333 C1319 0.958 . S
H1334 C1319 0.961 . S
H1335 C1319 0.960 . S
C1336 C1337 1.391 . S
C1336 C1338 1.394 . S
C1336 H1352 0.931 . S
C1337 C1336 1.391 . S
C1337 C1341 1.376 . S
C1338 C1336 1.394 . S
C1338 C1339 1.369 . S
C1338 C1342 1.531 . S
C1339 C1338 1.369 . S
C1339 C1340 1.410 . S
C1339 C1347 1.503 . S
C1340 C1339 1.410 . S
C1340 C1341 1.392 . S
C1340 C1343 1.511 . S
C1341 C1337 1.376 . S
C1341 C1340 1.392 . S
C1341 H1353 0.929 . S
C1342 C1338 1.531 . S
C1342 H1354 0.960 . S
C1342 H1355 0.962 . S
C1342 H1356 0.960 . S
C1343 C1340 1.511 . S
C1343 H1357 0.961 . S
C1343 H1358 0.961 . S
C1343 H1359 0.961 . S
C1344 C1345 1.370 1_565 S
C1344 C1346 1.363 . S
C1344 H1360 0.931 . S
C1345 C1344 1.370 1_545 S
C1345 C1349 1.408 . S
C1346 C1344 1.363 . S
C1346 C1347 1.370 1_565 S
C1346 C1350 1.524 . S
C1347 C1339 1.503 . S
C1347 C1346 1.370 1_545 S
C1347 C1348 1.403 . S
C1348 C1347 1.403 . S
C1348 C1349 1.404 . S
C1348 C1351 1.539 . S
C1349 C1345 1.408 . S
C1349 C1348 1.404 . S
C1349 H1361 0.930 . S
C1350 C1346 1.524 . S
C1350 H1362 0.956 . S
C1350 H1363 0.961 . S
C1350 H1364 0.961 . S
C1351 C1348 1.539 . S
C1351 H1365 0.958 . S
C1351 H1366 0.961 . S
C1351 H1367 0.960 . S
H1352 C1336 0.931 . S
H1353 C1341 0.929 . S
H1354 C1342 0.960 . S
H1355 C1342 0.962 . S
H1356 C1342 0.960 . S
H1357 C1343 0.961 . S
H1358 C1343 0.961 . S
H1359 C1343 0.961 . S
H1360 C1344 0.931 . S
H1361 C1349 0.930 . S
H1362 C1350 0.956 . S
H1363 C1350 0.961 . S
H1364 C1350 0.961 . S
H1365 C1351 0.958 . S
H1366 C1351 0.961 . S
H1367 C1351 0.960 . S
C1368 C1369 1.391 . S
C1368 C1370 1.394 . S
C1368 H1384 0.931 1_455 S
C1369 C1368 1.391 . S
C1369 C1373 1.376 . S
C1370 C1368 1.394 . S
C1370 C1371 1.369 . S
C1370 C1374 1.531 1_455 S
C1371 C1370 1.369 . S
C1371 C1372 1.410 . S
C1371 C1379 1.503 . S
C1372 C1371 1.410 . S
C1372 C1373 1.392 . S
C1372 C1375 1.511 . S
C1373 C1369 1.376 . S
C1373 C1372 1.392 . S
C1373 H1385 0.929 . S
C1374 C1370 1.531 1_655 S
C1374 H1386 0.960 . S
C1374 H1387 0.962 . S
C1374 H1388 0.960 . S
C1375 C1372 1.511 . S
C1375 H1389 0.961 . S
C1375 H1390 0.961 . S
C1375 H1391 0.961 . S
C1376 C1377 1.370 . S
C1376 C1378 1.363 . S
C1376 H1392 0.931 . S
C1377 C1376 1.370 . S
C1377 C1381 1.408 . S
C1378 C1376 1.363 . S
C1378 C1379 1.370 . S
C1378 C1382 1.524 . S
C1379 C1371 1.503 . S
C1379 C1378 1.370 . S
C1379 C1380 1.403 . S
C1380 C1379 1.403 . S
C1380 C1381 1.404 . S
C1380 C1383 1.539 . S
C1381 C1377 1.408 . S
C1381 C1380 1.404 . S
C1381 H1393 0.930 . S
C1382 C1378 1.524 . S
C1382 H1394 0.956 . S
C1382 H1395 0.961 . S
C1382 H1396 0.961 . S
C1383 C1380 1.539 . S
C1383 H1397 0.958 . S
C1383 H1398 0.961 . S
C1383 H1399 0.960 . S
H1384 C1368 0.931 1_655 S
H1385 C1373 0.929 . S
H1386 C1374 0.960 . S
H1387 C1374 0.962 . S
H1388 C1374 0.960 . S
H1389 C1375 0.961 . S
H1390 C1375 0.961 . S
H1391 C1375 0.961 . S
H1392 C1376 0.931 . S
H1393 C1381 0.930 . S
H1394 C1382 0.956 . S
H1395 C1382 0.961 . S
H1396 C1382 0.961 . S
H1397 C1383 0.958 . S
H1398 C1383 0.961 . S
H1399 C1383 0.960 . S
C1400 C1401 1.391 . S
C1400 C1402 1.394 . S
C1400 H1416 0.931 . S
C1401 C1400 1.391 . S
C1401 C1405 1.376 . S
C1402 C1400 1.394 . S
C1402 C1403 1.369 . S
C1402 C1406 1.531 1_545 S
C1403 C1402 1.369 . S
C1403 C1404 1.410 . S
C1403 C1411 1.503 . S
C1404 C1403 1.410 . S
C1404 C1405 1.392 . S
C1404 C1407 1.511 . S
C1405 C1401 1.376 . S
C1405 C1404 1.392 . S
C1405 H1417 0.929 . S
C1406 C1402 1.531 1_565 S
C1406 H1418 0.960 . S
C1406 H1419 0.962 1_565 S
C1406 H1420 0.960 . S
C1407 C1404 1.511 . S
C1407 H1421 0.961 . S
C1407 H1422 0.961 . S
C1407 H1423 0.961 . S
C1408 C1409 1.370 . S
C1408 C1410 1.363 . S
C1408 H1424 0.931 . S
C1409 C1408 1.370 . S
C1409 C1413 1.408 . S
C1410 C1408 1.363 . S
C1410 C1411 1.370 . S
C1410 C1414 1.524 . S
C1411 C1403 1.503 . S
C1411 C1410 1.370 . S
C1411 C1412 1.403 . S
C1412 C1411 1.403 . S
C1412 C1413 1.404 . S
C1412 C1415 1.539 1_545 S
C1413 C1409 1.408 . S
C1413 C1412 1.404 . S
C1413 H1425 0.930 1_545 S
C1414 C1410 1.524 . S
C1414 H1426 0.956 . S
C1414 H1427 0.961 . S
C1414 H1428 0.961 . S
C1415 C1412 1.539 1_565 S
C1415 H1429 0.958 . S
C1415 H1430 0.961 . S
C1415 H1431 0.960 . S
H1416 C1400 0.931 . S
H1417 C1405 0.929 . S
H1418 C1406 0.960 . S
H1419 C1406 0.962 1_545 S
H1420 C1406 0.960 . S
H1421 C1407 0.961 . S
H1422 C1407 0.961 . S
H1423 C1407 0.961 . S
H1424 C1408 0.931 . S
H1425 C1413 0.930 1_565 S
H1426 C1414 0.956 . S
H1427 C1414 0.961 . S
H1428 C1414 0.961 . S
H1429 C1415 0.958 . S
H1430 C1415 0.961 . S
H1431 C1415 0.960 . S
C1432 C1433 1.391 . S
C1432 C1434 1.394 . S
C1432 H1448 0.931 1_455 S
C1433 C1432 1.391 . S
C1433 C1437 1.376 . S
C1434 C1432 1.394 . S
C1434 C1435 1.369 . S
C1434 C1438 1.531 1_455 S
C1435 C1434 1.369 . S
C1435 C1436 1.410 . S
C1435 C1443 1.503 . S
C1436 C1435 1.410 . S
C1436 C1437 1.392 . S
C1436 C1439 1.511 . S
C1437 C1433 1.376 . S
C1437 C1436 1.392 . S
C1437 H1449 0.929 . S
C1438 C1434 1.531 1_655 S
C1438 H1450 0.960 . S
C1438 H1451 0.962 . S
C1438 H1452 0.960 . S
C1439 C1436 1.511 . S
C1439 H1453 0.961 . S
C1439 H1454 0.961 . S
C1439 H1455 0.961 . S
C1440 C1441 1.370 . S
C1440 C1442 1.363 . S
C1440 H1456 0.939 . S
C1441 C1440 1.370 . S
C1441 C1445 1.408 . S
C1442 C1440 1.363 . S
C1442 C1443 1.370 . S
C1442 C1446 1.524 1_455 S
C1443 C1435 1.503 . S
C1443 C1442 1.370 . S
C1443 C1444 1.403 . S
C1444 C1443 1.403 . S
C1444 C1445 1.404 . S
C1444 C1447 1.539 . S
C1445 C1441 1.408 . S
C1445 C1444 1.404 . S
C1445 H1457 0.930 . S
C1446 C1442 1.524 1_655 S
C1446 H1458 0.956 . S
C1446 H1459 0.961 1_655 S
C1446 H1460 0.961 . S
C1447 C1444 1.539 . S
C1447 H1461 0.958 . S
C1447 H1462 0.961 . S
C1447 H1463 0.960 . S
H1448 C1432 0.931 1_655 S
H1449 C1437 0.929 . S
H1450 C1438 0.960 . S
H1451 C1438 0.962 . S
H1452 C1438 0.960 . S
H1453 C1439 0.961 . S
H1454 C1439 0.961 . S
H1455 C1439 0.961 . S
H1456 C1440 0.939 . S
H1457 C1445 0.930 . S
H1458 C1446 0.956 . S
H1459 C1446 0.961 1_455 S
H1460 C1446 0.961 . S
H1461 C1447 0.958 . S
H1462 C1447 0.961 . S
H1463 C1447 0.960 . S
C1464 C1465 1.391 1_565 S
C1464 C1466 1.394 . S
C1464 H1480 0.931 . S
C1465 C1464 1.391 1_545 S
C1465 C1469 1.376 . S
C1466 C1464 1.394 . S
C1466 C1467 1.369 1_565 S
C1466 C1470 1.531 . S
C1467 C1466 1.369 1_545 S
C1467 C1468 1.410 . S
C1467 C1475 1.503 . S
C1468 C1467 1.410 . S
C1468 C1469 1.392 . S
C1468 C1471 1.511 . S
C1469 C1465 1.376 . S
C1469 C1468 1.392 . S
C1469 H1481 0.929 . S
C1470 C1466 1.531 . S
C1470 H1482 0.960 . S
C1470 H1483 0.962 . S
C1470 H1484 0.960 . S
C1471 C1468 1.511 . S
C1471 H1485 0.961 . S
C1471 H1486 0.961 . S
C1471 H1487 0.961 . S
C1472 C1473 1.370 . S
C1472 C1474 1.363 . S
C1472 H1488 0.931 . S
C1473 C1472 1.370 . S
C1473 C1477 1.408 1_545 S
C1474 C1472 1.363 . S
C1474 C1475 1.370 . S
C1474 C1478 1.524 . S
C1475 C1467 1.503 . S
C1475 C1474 1.370 . S
C1475 C1476 1.403 1_545 S
C1476 C1475 1.403 1_565 S
C1476 C1477 1.404 . S
C1476 C1479 1.539 . S
C1477 C1473 1.408 1_565 S
C1477 C1476 1.404 . S
C1477 H1489 0.930 . S
C1478 C1474 1.524 . S
C1478 H1490 0.956 . S
C1478 H1491 0.961 . S
C1478 H1492 0.961 . S
C1479 C1476 1.539 . S
C1479 H1493 0.958 . S
C1479 H1494 0.961 . S
C1479 H1495 0.960 . S
H1480 C1464 0.931 . S
H1481 C1469 0.929 . S
H1482 C1470 0.960 . S
H1483 C1470 0.962 . S
H1484 C1470 0.960 . S
H1485 C1471 0.961 . S
H1486 C1471 0.961 . S
H1487 C1471 0.961 . S
H1488 C1472 0.931 . S
H1489 C1477 0.930 . S
H1490 C1478 0.956 . S
H1491 C1478 0.961 . S
H1492 C1478 0.961 . S
H1493 C1479 0.958 . S
H1494 C1479 0.961 . S
H1495 C1479 0.960 . S
C1496 C1497 1.391 1_655 S
C1496 C1498 1.394 . S
C1496 H1512 0.931 . S
C1497 C1496 1.391 1_455 S
C1497 C1501 1.376 . S
C1498 C1496 1.394 . S
C1498 C1499 1.369 1_655 S
C1498 C1502 1.531 . S
C1499 C1498 1.369 1_455 S
C1499 C1500 1.410 . S
C1499 C1507 1.503 . S
C1500 C1499 1.410 . S
C1500 C1501 1.392 . S
C1500 C1503 1.511 . S
C1501 C1497 1.376 . S
C1501 C1500 1.392 . S
C1501 H1513 0.929 . S
C1502 C1498 1.531 . S
C1502 H1514 0.960 . S
C1502 H1515 0.962 . S
C1502 H1516 0.960 . S
C1503 C1500 1.511 . S
C1503 H1517 0.961 . S
C1503 H1518 0.961 . S
C1503 H1519 0.961 . S
C1504 C1505 1.370 1_655 S
C1504 C1506 1.363 . S
C1504 H1520 0.931 . S
C1505 C1504 1.370 1_455 S
C1505 C1509 1.408 . S
C1506 C1504 1.363 . S
C1506 C1507 1.370 1_655 S
C1506 C1510 1.524 . S
C1507 C1499 1.503 . S
C1507 C1506 1.370 1_455 S
C1507 C1508 1.403 . S
C1508 C1507 1.403 . S
C1508 C1509 1.404 . S
C1508 C1511 1.539 . S
C1509 C1505 1.408 . S
C1509 C1508 1.404 . S
C1509 H1521 0.930 . S
C1510 C1506 1.524 . S
C1510 H1522 0.956 . S
C1510 H1523 0.961 . S
C1510 H1524 0.961 . S
C1511 C1508 1.539 . S
C1511 H1525 0.958 . S
C1511 H1526 0.961 . S
C1511 H1527 0.960 . S
H1512 C1496 0.931 . S
H1513 C1501 0.929 . S
H1514 C1502 0.960 . S
H1515 C1502 0.962 . S
H1516 C1502 0.960 . S
H1517 C1503 0.961 . S
H1518 C1503 0.961 . S
H1519 C1503 0.961 . S
H1520 C1504 0.931 . S
H1521 C1509 0.930 . S
H1522 C1510 0.956 . S
H1523 C1510 0.961 . S
H1524 C1510 0.961 . S
H1525 C1511 0.958 . S
H1526 C1511 0.961 . S
H1527 C1511 0.960 . S
C1528 C1529 1.391 . S
C1528 C1530 1.394 . S
C1528 H1544 0.931 . S
C1529 C1528 1.391 . S
C1529 C1533 1.376 1_545 S
C1530 C1528 1.394 . S
C1530 C1531 1.369 . S
C1530 C1534 1.531 . S
C1531 C1530 1.369 . S
C1531 C1532 1.410 1_545 S
C1531 C1539 1.503 . S
C1532 C1531 1.410 1_565 S
C1532 C1533 1.392 . S
C1532 C1535 1.511 . S
C1533 C1529 1.376 1_565 S
C1533 C1532 1.392 . S
C1533 H1545 0.929 . S
C1534 C1530 1.531 . S
C1534 H1546 0.960 . S
C1534 H1547 0.962 . S
C1534 H1548 0.960 . S
C1535 C1532 1.511 . S
C1535 H1549 0.961 . S
C1535 H1550 0.961 . S
C1535 H1551 0.961 . S
C1536 C1537 1.370 . S
C1536 C1538 1.363 . S
C1536 H1552 0.931 . S
C1537 C1536 1.370 . S
C1537 C1541 1.408 1_545 S
C1538 C1536 1.363 . S
C1538 C1539 1.370 . S
C1538 C1542 1.524 . S
C1539 C1531 1.503 . S
C1539 C1538 1.370 . S
C1539 C1540 1.403 1_545 S
C1540 C1539 1.403 1_565 S
C1540 C1541 1.404 . S
C1540 C1543 1.539 . S
C1541 C1537 1.408 1_565 S
C1541 C1540 1.404 . S
C1541 H1553 0.930 . S
C1542 C1538 1.524 . S
C1542 H1554 0.956 . S
C1542 H1555 0.961 . S
C1542 H1556 0.961 . S
C1543 C1540 1.539 . S
C1543 H1557 0.958 . S
C1543 H1558 0.961 . S
C1543 H1559 0.960 . S
H1544 C1528 0.931 . S
H1545 C1533 0.929 . S
H1546 C1534 0.960 . S
H1547 C1534 0.962 . S
H1548 C1534 0.960 . S
H1549 C1535 0.961 . S
H1550 C1535 0.961 . S
H1551 C1535 0.961 . S
H1552 C1536 0.931 . S
H1553 C1541 0.930 . S
H1554 C1542 0.956 . S
H1555 C1542 0.961 . S
H1556 C1542 0.961 . S
H1557 C1543 0.958 . S
H1558 C1543 0.961 . S
H1559 C1543 0.960 . S
C1560 C1561 1.391 . S
C1560 C1562 1.394 . S
C1560 H1576 0.931 . S
C1561 C1560 1.391 . S
C1561 C1565 1.376 . S
C1562 C1560 1.394 . S
C1562 C1563 1.369 . S
C1562 C1566 1.531 . S
C1563 C1562 1.369 . S
C1563 C1564 1.410 . S
C1563 C1571 1.503 . S
C1564 C1563 1.410 . S
C1564 C1565 1.392 . S
C1564 C1567 1.511 . S
C1565 C1561 1.376 . S
C1565 C1564 1.392 . S
C1565 H1577 0.929 . S
C1566 C1562 1.531 . S
C1566 H1578 0.960 1_455 S
C1566 H1579 0.962 . S
C1566 H1580 0.960 1_455 S
C1567 C1564 1.511 . S
C1567 H1581 0.961 . S
C1567 H1582 0.961 . S
C1567 H1583 0.961 1_455 S
C1568 C1569 1.370 . S
C1568 C1570 1.363 . S
C1568 H1584 0.931 . S
C1569 C1568 1.370 . S
C1569 C1573 1.408 1_455 S
C1570 C1568 1.363 . S
C1570 C1571 1.370 . S
C1570 C1574 1.524 . S
C1571 C1563 1.503 . S
C1571 C1570 1.370 . S
C1571 C1572 1.403 1_455 S
C1572 C1571 1.403 1_655 S
C1572 C1573 1.404 . S
C1572 C1575 1.539 . S
C1573 C1569 1.408 1_655 S
C1573 C1572 1.404 . S
C1573 H1585 0.930 . S
C1574 C1570 1.524 . S
C1574 H1586 0.956 . S
C1574 H1587 0.961 . S
C1574 H1588 0.961 . S
C1575 C1572 1.539 . S
C1575 H1589 0.958 . S
C1575 H1590 0.961 . S
C1575 H1591 0.960 . S
H1576 C1560 0.931 . S
H1577 C1565 0.929 . S
H1578 C1566 0.960 1_655 S
H1579 C1566 0.962 . S
H1580 C1566 0.960 1_655 S
H1581 C1567 0.961 . S
H1582 C1567 0.961 . S
H1583 C1567 0.961 1_655 S
H1584 C1568 0.931 . S
H1585 C1573 0.930 . S
H1586 C1574 0.956 . S
H1587 C1574 0.961 . S
H1588 C1574 0.961 . S
H1589 C1575 0.958 . S
H1590 C1575 0.961 . S
H1591 C1575 0.960 . S
C1592 C1593 1.391 . S
C1592 C1594 1.394 . S
C1592 H1608 0.931 . S
C1593 C1592 1.391 . S
C1593 C1597 1.376 . S
C1594 C1592 1.394 . S
C1594 C1595 1.369 . S
C1594 C1598 1.531 . S
C1595 C1594 1.369 . S
C1595 C1596 1.410 . S
C1595 C1603 1.503 . S
C1596 C1595 1.410 . S
C1596 C1597 1.392 . S
C1596 C1599 1.511 1_545 S
C1597 C1593 1.376 . S
C1597 C1596 1.392 . S
C1597 H1609 0.929 . S
C1598 C1594 1.531 . S
C1598 H1610 0.960 . S
C1598 H1611 0.962 . S
C1598 H1612 0.960 . S
C1599 C1596 1.511 1_565 S
C1599 H1613 0.961 . S
C1599 H1614 0.961 . S
C1599 H1615 0.961 1_565 S
C1600 C1601 1.370 . S
C1600 C1602 1.363 . S
C1600 H1616 0.931 1_545 S
C1601 C1600 1.370 . S
C1601 C1605 1.408 . S
C1602 C1600 1.363 . S
C1602 C1603 1.370 . S
C1602 C1606 1.524 1_545 S
C1603 C1595 1.503 . S
C1603 C1602 1.370 . S
C1603 C1604 1.403 . S
C1604 C1603 1.403 . S
C1604 C1605 1.404 . S
C1604 C1607 1.539 . S
C1605 C1601 1.408 . S
C1605 C1604 1.404 . S
C1605 H1617 0.930 . S
C1606 C1602 1.524 1_565 S
C1606 H1618 0.956 1_565 S
C1606 H1619 0.961 . S
C1606 H1620 0.961 . S
C1607 C1604 1.539 . S
C1607 H1621 0.958 . S
C1607 H1622 0.961 . S
C1607 H1623 0.960 . S
H1608 C1592 0.931 . S
H1609 C1597 0.929 . S
H1610 C1598 0.960 . S
H1611 C1598 0.962 . S
H1612 C1598 0.960 . S
H1613 C1599 0.961 . S
H1614 C1599 0.961 . S
H1615 C1599 0.961 1_545 S
H1616 C1600 0.931 1_565 S
H1617 C1605 0.930 . S
H1618 C1606 0.956 1_545 S
H1619 C1606 0.961 . S
H1620 C1606 0.961 . S
H1621 C1607 0.958 . S
H1622 C1607 0.961 . S
H1623 C1607 0.960 . S
C1624 C1625 1.391 . S
C1624 C1626 1.394 . S
C1624 H1640 0.931 . S
C1625 C1624 1.391 . S
C1625 C1629 1.376 1_545 S
C1626 C1624 1.394 . S
C1626 C1627 1.369 . S
C1626 C1630 1.531 . S
C1627 C1626 1.369 . S
C1627 C1628 1.410 1_545 S
C1627 C1635 1.503 . S
C1628 C1627 1.410 1_565 S
C1628 C1629 1.392 . S
C1628 C1631 1.511 . S
C1629 C1625 1.376 1_565 S
C1629 C1628 1.392 . S
C1629 H1641 0.929 . S
C1630 C1626 1.531 . S
C1630 H1642 0.960 . S
C1630 H1643 0.962 . S
C1630 H1644 0.960 . S
C1631 C1628 1.511 . S
C1631 H1645 0.961 . S
C1631 H1646 0.961 . S
C1631 H1647 0.961 . S
C1632 C1633 1.364 1_565 S
C1632 C1634 1.363 . S
C1632 H1648 0.937 . S
C1633 C1632 1.364 1_545 S
C1633 C1637 1.408 . S
C1634 C1632 1.363 . S
C1634 C1635 1.358 1_565 S
C1634 C1638 1.538 . S
C1635 C1627 1.503 . S
C1635 C1634 1.358 1_545 S
C1635 C1636 1.403 . S
C1636 C1635 1.403 . S
C1636 C1637 1.404 . S
C1636 C1639 1.539 . S
C1637 C1633 1.408 . S
C1637 C1636 1.404 . S
C1637 H1649 0.930 . S
C1638 C1634 1.538 . S
C1638 H1650 0.928 1_565 S
C1638 H1651 0.961 . S
C1638 H1652 0.961 . S
C1639 C1636 1.539 . S
C1639 H1653 0.958 . S
C1639 H1654 0.961 . S
C1639 H1655 0.960 . S
H1640 C1624 0.931 . S
H1641 C1629 0.929 . S
H1642 C1630 0.960 . S
H1643 C1630 0.962 . S
H1644 C1630 0.960 . S
H1645 C1631 0.961 . S
H1646 C1631 0.961 . S
H1647 C1631 0.961 . S
H1648 C1632 0.937 . S
H1649 C1637 0.930 . S
H1650 C1638 0.928 1_545 S
H1651 C1638 0.961 . S
H1652 C1638 0.961 . S
H1653 C1639 0.958 . S
H1654 C1639 0.961 . S
H1655 C1639 0.960 . S
C1656 C1657 1.391 . S
C1656 C1658 1.394 . S
C1656 H1672 0.931 . S
C1657 C1656 1.391 . S
C1657 C1661 1.376 . S
C1658 C1656 1.394 . S
C1658 C1659 1.369 . S
C1658 C1662 1.531 . S
C1659 C1658 1.369 . S
C1659 C1660 1.410 . S
C1659 C1667 1.503 . S
C1660 C1659 1.410 . S
C1660 C1661 1.392 . S
C1660 C1663 1.511 1_455 S
C1661 C1657 1.376 . S
C1661 C1660 1.392 . S
C1661 H1673 0.929 1_455 S
C1662 C1658 1.531 . S
C1662 H1674 0.960 . S
C1662 H1675 0.962 . S
C1662 H1676 0.960 . S
C1663 C1660 1.511 1_655 S
C1663 H1677 0.961 . S
C1663 H1678 0.961 . S
C1663 H1679 0.961 . S
C1664 C1665 1.370 . S
C1664 C1666 1.363 . S
C1664 H1680 0.931 . S
C1665 C1664 1.370 . S
C1665 C1669 1.408 . S
C1666 C1664 1.363 . S
C1666 C1667 1.370 . S
C1666 C1670 1.524 . S
C1667 C1659 1.503 . S
C1667 C1666 1.370 . S
C1667 C1668 1.403 . S
C1668 C1667 1.403 . S
C1668 C1669 1.404 . S
C1668 C1671 1.539 . S
C1669 C1665 1.408 . S
C1669 C1668 1.404 . S
C1669 H1681 0.930 . S
C1670 C1666 1.524 . S
C1670 H1682 0.956 . S
C1670 H1683 0.961 . S
C1670 H1684 0.961 . S
C1671 C1668 1.539 . S
C1671 H1685 0.958 . S
C1671 H1686 0.961 . S
C1671 H1687 0.960 . S
H1672 C1656 0.931 . S
H1673 C1661 0.929 1_655 S
H1674 C1662 0.960 . S
H1675 C1662 0.962 . S
H1676 C1662 0.960 . S
H1677 C1663 0.961 . S
H1678 C1663 0.961 . S
H1679 C1663 0.961 . S
H1680 C1664 0.931 . S
H1681 C1669 0.930 . S
H1682 C1670 0.956 . S
H1683 C1670 0.961 . S
H1684 C1670 0.961 . S
H1685 C1671 0.958 . S
H1686 C1671 0.961 . S
H1687 C1671 0.960 . S
C1688 C1689 1.391 . S
C1688 C1690 1.394 . S
C1688 H1704 0.931 . S
C1689 C1688 1.391 . S
C1689 C1693 1.376 . S
C1690 C1688 1.394 . S
C1690 C1691 1.369 . S
C1690 C1694 1.531 . S
C1691 C1690 1.369 . S
C1691 C1692 1.410 . S
C1691 C1699 1.503 . S
C1692 C1691 1.410 . S
C1692 C1693 1.392 . S
C1692 C1695 1.511 1_545 S
C1693 C1689 1.376 . S
C1693 C1692 1.392 . S
C1693 H1705 0.929 1_545 S
C1694 C1690 1.531 . S
C1694 H1706 0.960 . S
C1694 H1707 0.962 . S
C1694 H1708 0.960 . S
C1695 C1692 1.511 1_565 S
C1695 H1709 0.961 . S
C1695 H1710 0.961 . S
C1695 H1711 0.961 . S
C1696 C1697 1.370 . S
C1696 C1698 1.363 . S
C1696 H1712 0.931 . S
C1697 C1696 1.370 . S
C1697 C1701 1.408 . S
C1698 C1696 1.363 . S
C1698 C1699 1.370 . S
C1698 C1702 1.524 . S
C1699 C1691 1.503 . S
C1699 C1698 1.370 . S
C1699 C1700 1.403 . S
C1700 C1699 1.403 . S
C1700 C1701 1.404 . S
C1700 C1703 1.539 . S
C1701 C1697 1.408 . S
C1701 C1700 1.404 . S
C1701 H1713 0.930 . S
C1702 C1698 1.524 . S
C1702 H1714 0.956 . S
C1702 H1715 0.961 . S
C1702 H1716 0.961 . S
C1703 C1700 1.539 . S
C1703 H1717 0.958 . S
C1703 H1718 0.961 . S
C1703 H1719 0.960 . S
H1704 C1688 0.931 . S
H1705 C1693 0.929 1_565 S
H1706 C1694 0.960 . S
H1707 C1694 0.962 . S
H1708 C1694 0.960 . S
H1709 C1695 0.961 . S
H1710 C1695 0.961 . S
H1711 C1695 0.961 . S
H1712 C1696 0.931 . S
H1713 C1701 0.930 . S
H1714 C1702 0.956 . S
H1715 C1702 0.961 . S
H1716 C1702 0.961 . S
H1717 C1703 0.958 . S
H1718 C1703 0.961 . S
H1719 C1703 0.960 . S
C1720 C1721 1.391 . S
C1720 C1722 1.394 . S
C1720 H1736 0.931 . S
C1721 C1720 1.391 . S
C1721 C1725 1.376 . S
C1722 C1720 1.394 . S
C1722 C1723 1.369 . S
C1722 C1726 1.531 . S
C1723 C1722 1.369 . S
C1723 C1724 1.388 1_455 S
C1723 C1731 1.503 . S
C1724 C1723 1.388 1_655 S
C1724 C1725 1.389 1_655 S
C1724 C1727 1.536 . S
C1725 C1721 1.376 . S
C1725 C1724 1.389 1_455 S
C1725 H1737 0.929 1_455 S
C1726 C1722 1.531 . S
C1726 H1738 0.960 . S
C1726 H1739 0.962 . S
C1726 H1740 0.960 . S
C1727 C1724 1.536 . S
C1727 H1741 0.961 . S
C1727 H1742 0.961 . S
C1727 H1743 0.961 . S
C1728 C1729 1.370 . S
C1728 C1730 1.363 . S
C1728 H1744 0.931 . S
C1729 C1728 1.370 . S
C1729 C1733 1.408 1_455 S
C1730 C1728 1.363 . S
C1730 C1731 1.370 . S
C1730 C1734 1.524 . S
C1731 C1723 1.503 . S
C1731 C1730 1.370 . S
C1731 C1732 1.403 1_455 S
C1732 C1731 1.403 1_655 S
C1732 C1733 1.404 . S
C1732 C1735 1.539 . S
C1733 C1729 1.408 1_655 S
C1733 C1732 1.404 . S
C1733 H1745 0.930 . S
C1734 C1730 1.524 . S
C1734 H1746 0.956 . S
C1734 H1747 0.961 . S
C1734 H1748 0.961 . S
C1735 C1732 1.539 . S
C1735 H1749 0.958 . S
C1735 H1750 0.961 . S
C1735 H1751 0.960 . S
H1736 C1720 0.931 . S
H1737 C1725 0.929 1_655 S
H1738 C1726 0.960 . S
H1739 C1726 0.962 . S
H1740 C1726 0.960 . S
H1741 C1727 0.961 . S
H1742 C1727 0.961 . S
H1743 C1727 0.961 . S
H1744 C1728 0.931 . S
H1745 C1733 0.930 . S
H1746 C1734 0.956 . S
H1747 C1734 0.961 . S
H1748 C1734 0.961 . S
H1749 C1735 0.958 . S
H1750 C1735 0.961 . S
H1751 C1735 0.960 . S
C1752 C1753 1.391 1_565 S
C1752 C1754 1.394 . S
C1752 H1768 0.931 . S
C1753 C1752 1.391 1_545 S
C1753 C1757 1.376 . S
C1754 C1752 1.394 . S
C1754 C1755 1.369 1_565 S
C1754 C1758 1.531 . S
C1755 C1754 1.369 1_545 S
C1755 C1756 1.410 . S
C1755 C1763 1.503 . S
C1756 C1755 1.410 . S
C1756 C1757 1.392 . S
C1756 C1759 1.511 . S
C1757 C1753 1.376 . S
C1757 C1756 1.392 . S
C1757 H1769 0.929 . S
C1758 C1754 1.531 . S
C1758 H1770 0.960 . S
C1758 H1771 0.962 . S
C1758 H1772 0.960 . S
C1759 C1756 1.511 . S
C1759 H1773 0.961 . S
C1759 H1774 0.961 . S
C1759 H1775 0.961 . S
C1760 C1761 1.370 1_565 S
C1760 C1762 1.363 . S
C1760 H1776 0.931 . S
C1761 C1760 1.370 1_545 S
C1761 C1765 1.408 . S
C1762 C1760 1.363 . S
C1762 C1763 1.370 1_565 S
C1762 C1766 1.524 . S
C1763 C1755 1.503 . S
C1763 C1762 1.370 1_545 S
C1763 C1764 1.403 . S
C1764 C1763 1.403 . S
C1764 C1765 1.404 . S
C1764 C1767 1.539 . S
C1765 C1761 1.408 . S
C1765 C1764 1.404 . S
C1765 H1777 0.930 . S
C1766 C1762 1.524 . S
C1766 H1778 0.956 . S
C1766 H1779 0.961 . S
C1766 H1780 0.961 . S
C1767 C1764 1.539 . S
C1767 H1781 0.958 . S
C1767 H1782 0.961 . S
C1767 H1783 0.960 . S
H1768 C1752 0.931 . S
H1769 C1757 0.929 . S
H1770 C1758 0.960 . S
H1771 C1758 0.962 . S
H1772 C1758 0.960 . S
H1773 C1759 0.961 . S
H1774 C1759 0.961 . S
H1775 C1759 0.961 . S
H1776 C1760 0.931 . S
H1777 C1765 0.930 . S
H1778 C1766 0.956 . S
H1779 C1766 0.961 . S
H1780 C1766 0.961 . S
H1781 C1767 0.958 . S
H1782 C1767 0.961 . S
H1783 C1767 0.960 . S
C1784 C1785 1.391 . S
C1784 C1786 1.394 . S
C1784 H1800 0.931 1_455 S
C1785 C1784 1.391 . S
C1785 C1789 1.376 . S
C1786 C1784 1.394 . S
C1786 C1787 1.369 . S
C1786 C1790 1.531 1_455 S
C1787 C1786 1.369 . S
C1787 C1788 1.410 . S
C1787 C1795 1.503 . S
C1788 C1787 1.410 . S
C1788 C1789 1.392 . S
C1788 C1791 1.511 . S
C1789 C1785 1.376 . S
C1789 C1788 1.392 . S
C1789 H1801 0.929 . S
C1790 C1786 1.531 1_655 S
C1790 H1802 0.960 1_655 S
C1790 H1803 0.962 . S
C1790 H1804 0.960 . S
C1791 C1788 1.511 . S
C1791 H1805 0.961 . S
C1791 H1806 0.961 . S
C1791 H1807 0.961 . S
C1792 C1793 1.370 . S
C1792 C1794 1.363 . S
C1792 H1808 0.931 . S
C1793 C1792 1.370 . S
C1793 C1797 1.408 . S
C1794 C1792 1.363 . S
C1794 C1795 1.370 . S
C1794 C1798 1.539 . S
C1795 C1787 1.503 . S
C1795 C1794 1.370 . S
C1795 C1796 1.403 . S
C1796 C1795 1.403 . S
C1796 C1797 1.404 . S
C1796 C1799 1.539 . S
C1797 C1793 1.408 . S
C1797 C1796 1.404 . S
C1797 H1809 0.930 . S
C1798 C1794 1.539 . S
C1798 H1810 0.937 1_455 S
C1798 H1811 0.975 . S
C1798 H1812 0.951 1_455 S
C1799 C1796 1.539 . S
C1799 H1813 0.958 . S
C1799 H1814 0.961 . S
C1799 H1815 0.960 . S
H1800 C1784 0.931 1_655 S
H1801 C1789 0.929 . S
H1802 C1790 0.960 1_455 S
H1803 C1790 0.962 . S
H1804 C1790 0.960 . S
H1805 C1791 0.961 . S
H1806 C1791 0.961 . S
H1807 C1791 0.961 . S
H1808 C1792 0.931 . S
H1809 C1797 0.930 . S
H1810 C1798 0.937 1_655 S
H1811 C1798 0.975 . S
H1812 C1798 0.951 1_655 S
H1813 C1799 0.958 . S
H1814 C1799 0.961 . S
H1815 C1799 0.960 . S
C1816 C1817 1.391 . S
C1816 C1818 1.394 . S
C1816 H1832 0.931 . S
C1817 C1816 1.391 . S
C1817 C1821 1.376 . S
C1818 C1816 1.394 . S
C1818 C1819 1.369 . S
C1818 C1822 1.531 . S
C1819 C1818 1.369 . S
C1819 C1820 1.410 . S
C1819 C1827 1.503 . S
C1820 C1819 1.410 . S
C1820 C1821 1.392 . S
C1820 C1823 1.511 . S
C1821 C1817 1.376 . S
C1821 C1820 1.392 . S
C1821 H1833 0.929 . S
C1822 C1818 1.531 . S
C1822 H1834 0.960 . S
C1822 H1835 0.962 . S
C1822 H1836 0.960 . S
C1823 C1820 1.511 . S
C1823 H1837 0.961 . S
C1823 H1838 0.961 . S
C1823 H1839 0.961 . S
C1824 C1825 1.370 . S
C1824 C1826 1.363 . S
C1824 H1840 0.931 1_545 S
C1825 C1824 1.370 . S
C1825 C1829 1.408 . S
C1826 C1824 1.363 . S
C1826 C1827 1.370 . S
C1826 C1830 1.524 1_545 S
C1827 C1819 1.503 . S
C1827 C1826 1.370 . S
C1827 C1828 1.403 . S
C1828 C1827 1.403 . S
C1828 C1829 1.404 . S
C1828 C1831 1.539 . S
C1829 C1825 1.408 . S
C1829 C1828 1.404 . S
C1829 H1841 0.930 . S
C1830 C1826 1.524 1_565 S
C1830 H1842 0.956 . S
C1830 H1843 0.961 . S
C1830 H1844 0.961 . S
C1831 C1828 1.539 . S
C1831 H1845 0.958 . S
C1831 H1846 0.961 . S
C1831 H1847 0.960 . S
H1832 C1816 0.931 . S
H1833 C1821 0.929 . S
H1834 C1822 0.960 . S
H1835 C1822 0.962 . S
H1836 C1822 0.960 . S
H1837 C1823 0.961 . S
H1838 C1823 0.961 . S
H1839 C1823 0.961 . S
H1840 C1824 0.931 1_565 S
H1841 C1829 0.930 . S
H1842 C1830 0.956 . S
H1843 C1830 0.961 . S
H1844 C1830 0.961 . S
H1845 C1831 0.958 . S
H1846 C1831 0.961 . S
H1847 C1831 0.960 . S
C1848 C1849 1.391 . S
C1848 C1850 1.394 . S
C1848 H1864 0.931 . S
C1849 C1848 1.391 . S
C1849 C1853 1.376 1_455 S
C1850 C1848 1.394 . S
C1850 C1851 1.369 . S
C1850 C1854 1.531 . S
C1851 C1850 1.369 . S
C1851 C1852 1.410 1_455 S
C1851 C1859 1.503 . S
C1852 C1851 1.410 1_655 S
C1852 C1853 1.392 . S
C1852 C1855 1.511 . S
C1853 C1849 1.376 1_655 S
C1853 C1852 1.392 . S
C1853 H1865 0.929 . S
C1854 C1850 1.531 . S
C1854 H1866 0.960 . S
C1854 H1867 0.962 . S
C1854 H1868 0.960 . S
C1855 C1852 1.511 . S
C1855 H1869 0.961 . S
C1855 H1870 0.961 . S
C1855 H1871 0.961 . S
C1856 C1857 1.370 . S
C1856 C1858 1.363 . S
C1856 H1872 0.931 1_455 S
C1857 C1856 1.370 . S
C1857 C1861 1.408 . S
C1858 C1856 1.363 . S
C1858 C1859 1.370 . S
C1858 C1862 1.524 1_455 S
C1859 C1851 1.503 . S
C1859 C1858 1.370 . S
C1859 C1860 1.403 . S
C1860 C1859 1.403 . S
C1860 C1861 1.404 . S
C1860 C1863 1.539 . S
C1861 C1857 1.408 . S
C1861 C1860 1.404 . S
C1861 H1873 0.930 . S
C1862 C1858 1.524 1_655 S
C1862 H1874 0.956 . S
C1862 H1875 0.961 . S
C1862 H1876 0.961 . S
C1863 C1860 1.539 . S
C1863 H1877 0.958 . S
C1863 H1878 0.961 . S
C1863 H1879 0.960 . S
H1864 C1848 0.931 . S
H1865 C1853 0.929 . S
H1866 C1854 0.960 . S
H1867 C1854 0.962 . S
H1868 C1854 0.960 . S
H1869 C1855 0.961 . S
H1870 C1855 0.961 . S
H1871 C1855 0.961 . S
H1872 C1856 0.931 1_655 S
H1873 C1861 0.930 . S
H1874 C1862 0.956 . S
H1875 C1862 0.961 . S
H1876 C1862 0.961 . S
H1877 C1863 0.958 . S
H1878 C1863 0.961 . S
H1879 C1863 0.960 . S
C1880 C1881 1.391 . S
C1880 C1882 1.394 . S
C1880 H1896 0.931 . S
C1881 C1880 1.391 . S
C1881 C1885 1.376 1_554 S
C1882 C1880 1.394 . S
C1882 C1883 1.369 . S
C1882 C1886 1.531 . S
C1883 C1882 1.369 . S
C1883 C1884 1.410 1_554 S
C1883 C1891 1.503 . S
C1884 C1883 1.410 1_556 S
C1884 C1885 1.392 . S
C1884 C1887 1.511 . S
C1885 C1881 1.376 1_556 S
C1885 C1884 1.392 . S
C1885 H1897 0.929 . S
C1886 C1882 1.531 . S
C1886 H1898 0.960 . S
C1886 H1899 0.962 . S
C1886 H1900 0.960 . S
C1887 C1884 1.511 . S
C1887 H1901 0.961 . S
C1887 H1902 0.961 . S
C1887 H1903 0.961 . S
C1888 C1889 1.370 . S
C1888 C1890 1.363 . S
C1888 H1904 0.931 . S
C1889 C1888 1.370 . S
C1889 C1893 1.408 . S
C1890 C1888 1.363 . S
C1890 C1891 1.370 . S
C1890 C1894 1.524 . S
C1891 C1883 1.503 . S
C1891 C1890 1.370 . S
C1891 C1892 1.403 . S
C1892 C1891 1.403 . S
C1892 C1893 1.404 . S
C1892 C1895 1.539 . S
C1893 C1889 1.408 . S
C1893 C1892 1.404 . S
C1893 H1905 0.930 . S
C1894 C1890 1.524 . S
C1894 H1906 0.956 . S
C1894 H1907 0.961 . S
C1894 H1908 0.961 . S
C1895 C1892 1.539 . S
C1895 H1909 0.958 . S
C1895 H1910 0.961 1_554 S
C1895 H1911 0.960 1_554 S
H1896 C1880 0.931 . S
H1897 C1885 0.929 . S
H1898 C1886 0.960 . S
H1899 C1886 0.962 . S
H1900 C1886 0.960 . S
H1901 C1887 0.961 . S
H1902 C1887 0.961 . S
H1903 C1887 0.961 . S
H1904 C1888 0.931 . S
H1905 C1893 0.930 . S
H1906 C1894 0.956 . S
H1907 C1894 0.961 . S
H1908 C1894 0.961 . S
H1909 C1895 0.958 . S
H1910 C1895 0.961 1_556 S
H1911 C1895 0.960 1_556 S
C1912 C1913 1.391 . S
C1912 C1914 1.394 . S
C1912 H1928 0.931 . S
C1913 C1912 1.391 . S
C1913 C1917 1.376 . S
C1914 C1912 1.394 . S
C1914 C1915 1.369 . S
C1914 C1918 1.531 . S
C1915 C1914 1.369 . S
C1915 C1916 1.410 . S
C1915 C1923 1.503 . S
C1916 C1915 1.410 . S
C1916 C1917 1.392 . S
C1916 C1919 1.511 . S
C1917 C1913 1.376 . S
C1917 C1916 1.392 . S
C1917 H1929 0.929 . S
C1918 C1914 1.531 . S
C1918 H1930 0.960 1_554 S
C1918 H1931 0.962 . S
C1918 H1932 0.960 1_554 S
C1919 C1916 1.511 . S
C1919 H1933 0.961 . S
C1919 H1934 0.961 . S
C1919 H1935 0.961 1_554 S
C1920 C1921 1.370 . S
C1920 C1922 1.363 . S
C1920 H1936 0.931 . S
C1921 C1920 1.370 . S
C1921 C1925 1.408 1_554 S
C1922 C1920 1.363 . S
C1922 C1923 1.370 . S
C1922 C1926 1.524 . S
C1923 C1915 1.503 . S
C1923 C1922 1.370 . S
C1923 C1924 1.403 1_554 S
C1924 C1923 1.403 1_556 S
C1924 C1925 1.404 . S
C1924 C1927 1.539 . S
C1925 C1921 1.408 1_556 S
C1925 C1924 1.404 . S
C1925 H1937 0.930 . S
C1926 C1922 1.524 . S
C1926 H1938 0.956 . S
C1926 H1939 0.961 . S
C1926 H1940 0.961 . S
C1927 C1924 1.539 . S
C1927 H1941 0.958 . S
C1927 H1942 0.961 . S
C1927 H1943 0.960 . S
H1928 C1912 0.931 . S
H1929 C1917 0.929 . S
H1930 C1918 0.960 1_556 S
H1931 C1918 0.962 . S
H1932 C1918 0.960 1_556 S
H1933 C1919 0.961 . S
H1934 C1919 0.961 . S
H1935 C1919 0.961 1_556 S
H1936 C1920 0.931 . S
H1937 C1925 0.930 . S
H1938 C1926 0.956 . S
H1939 C1926 0.961 . S
H1940 C1926 0.961 . S
H1941 C1927 0.958 . S
H1942 C1927 0.961 . S
H1943 C1927 0.960 . S
C1944 C1945 1.391 . S
C1944 C1946 1.394 . S
C1944 H1960 0.931 . S
C1945 C1944 1.391 . S
C1945 C1949 1.376 1_554 S
C1946 C1944 1.394 . S
C1946 C1947 1.369 . S
C1946 C1950 1.531 . S
C1947 C1946 1.369 . S
C1947 C1948 1.410 1_554 S
C1947 C1955 1.503 . S
C1948 C1947 1.410 1_556 S
C1948 C1949 1.392 . S
C1948 C1951 1.511 . S
C1949 C1945 1.376 1_556 S
C1949 C1948 1.392 . S
C1949 H1961 0.929 . S
C1950 C1946 1.531 . S
C1950 H1962 0.960 . S
C1950 H1963 0.962 . S
C1950 H1964 0.960 . S
C1951 C1948 1.511 . S
C1951 H1965 0.961 . S
C1951 H1966 0.961 . S
C1951 H1967 0.961 . S
C1952 C1953 1.370 . S
C1952 C1954 1.363 . S
C1952 H1968 0.931 . S
C1953 C1952 1.370 . S
C1953 C1957 1.408 1_554 S
C1954 C1952 1.363 . S
C1954 C1955 1.370 . S
C1954 C1958 1.524 . S
C1955 C1947 1.503 . S
C1955 C1954 1.370 . S
C1955 C1956 1.403 1_554 S
C1956 C1955 1.403 1_556 S
C1956 C1957 1.404 . S
C1956 C1959 1.539 . S
C1957 C1953 1.408 1_556 S
C1957 C1956 1.404 . S
C1957 H1969 0.930 . S
C1958 C1954 1.524 . S
C1958 H1970 0.956 . S
C1958 H1971 0.961 . S
C1958 H1972 0.961 . S
C1959 C1956 1.539 . S
C1959 H1973 0.958 . S
C1959 H1974 0.961 . S
C1959 H1975 0.960 . S
H1960 C1944 0.931 . S
H1961 C1949 0.929 . S
H1962 C1950 0.960 . S
H1963 C1950 0.962 . S
H1964 C1950 0.960 . S
H1965 C1951 0.961 . S
H1966 C1951 0.961 . S
H1967 C1951 0.961 . S
H1968 C1952 0.931 . S
H1969 C1957 0.930 . S
H1970 C1958 0.956 . S
H1971 C1958 0.961 . S
H1972 C1958 0.961 . S
H1973 C1959 0.958 . S
H1974 C1959 0.961 . S
H1975 C1959 0.960 . S
C1976 C1977 1.391 1_556 S
C1976 C1978 1.394 . S
C1976 H1992 0.931 . S
C1977 C1976 1.391 1_554 S
C1977 C1981 1.376 . S
C1978 C1976 1.394 . S
C1978 C1979 1.369 . S
C1978 C1982 1.531 . S
C1979 C1978 1.369 . S
C1979 C1980 1.410 1_556 S
C1979 C1987 1.502 1_556 S
C1980 C1979 1.410 1_554 S
C1980 C1981 1.392 . S
C1980 C1983 1.511 . S
C1981 C1977 1.376 . S
C1981 C1980 1.392 . S
C1981 H1993 0.929 . S
C1982 C1978 1.531 . S
C1982 H1994 0.960 . S
C1982 H1995 0.962 . S
C1982 H1996 0.960 . S
C1983 C1980 1.511 . S
C1983 H1997 0.961 . S
C1983 H1998 0.961 . S
C1983 H1999 0.961 . S
C1984 C1985 1.370 . S
C1984 C1986 1.363 . S
C1984 H2000 0.931 . S
C1985 C1984 1.370 . S
C1985 C1989 1.408 1_554 S
C1986 C1984 1.363 . S
C1986 C1987 1.384 . S
C1986 C1990 1.524 . S
C1987 C1979 1.502 1_554 S
C1987 C1986 1.384 . S
C1987 C1988 1.390 1_554 S
C1988 C1987 1.390 1_556 S
C1988 C1989 1.404 . S
C1988 C1991 1.539 . S
C1989 C1985 1.408 1_556 S
C1989 C1988 1.404 . S
C1989 H2001 0.930 . S
C1990 C1986 1.524 . S
C1990 H2002 0.956 . S
C1990 H2003 0.961 . S
C1990 H2004 0.961 . S
C1991 C1988 1.539 . S
C1991 H2005 0.958 . S
C1991 H2006 0.961 . S
C1991 H2007 0.960 . S
H1992 C1976 0.931 . S
H1993 C1981 0.929 . S
H1994 C1982 0.960 . S
H1995 C1982 0.962 . S
H1996 C1982 0.960 . S
H1997 C1983 0.961 . S
H1998 C1983 0.961 . S
H1999 C1983 0.961 . S
H2000 C1984 0.931 . S
H2001 C1989 0.930 . S
H2002 C1990 0.956 . S
H2003 C1990 0.961 . S
H2004 C1990 0.961 . S
H2005 C1991 0.958 . S
H2006 C1991 0.961 . S
H2007 C1991 0.960 . S
C2008 C2009 1.391 1_556 S
C2008 C2010 1.394 . S
C2008 H2024 0.931 . S
C2009 C2008 1.391 1_554 S
C2009 C2013 1.376 . S
C2010 C2008 1.394 . S
C2010 C2011 1.369 1_556 S
C2010 C2014 1.531 . S
C2011 C2010 1.369 1_554 S
C2011 C2012 1.410 . S
C2011 C2019 1.503 . S
C2012 C2011 1.410 . S
C2012 C2013 1.392 . S
C2012 C2015 1.511 . S
C2013 C2009 1.376 . S
C2013 C2012 1.392 . S
C2013 H2025 0.929 . S
C2014 C2010 1.531 . S
C2014 H2026 0.960 . S
C2014 H2027 0.962 . S
C2014 H2028 0.960 . S
C2015 C2012 1.511 . S
C2015 H2029 0.961 . S
C2015 H2030 0.961 . S
C2015 H2031 0.961 . S
C2016 C2017 1.370 1_556 S
C2016 C2018 1.363 . S
C2016 H2032 0.931 . S
C2017 C2016 1.370 1_554 S
C2017 C2021 1.408 . S
C2018 C2016 1.363 . S
C2018 C2019 1.370 1_556 S
C2018 C2022 1.524 . S
C2019 C2011 1.503 . S
C2019 C2018 1.370 1_554 S
C2019 C2020 1.403 . S
C2020 C2019 1.403 . S
C2020 C2021 1.404 . S
C2020 C2023 1.539 . S
C2021 C2017 1.408 . S
C2021 C2020 1.404 . S
C2021 H2033 0.930 . S
C2022 C2018 1.524 . S
C2022 H2034 0.956 . S
C2022 H2035 0.961 . S
C2022 H2036 0.961 . S
C2023 C2020 1.539 . S
C2023 H2037 0.958 . S
C2023 H2038 0.961 . S
C2023 H2039 0.960 . S
H2024 C2008 0.931 . S
H2025 C2013 0.929 . S
H2026 C2014 0.960 . S
H2027 C2014 0.962 . S
H2028 C2014 0.960 . S
H2029 C2015 0.961 . S
H2030 C2015 0.961 . S
H2031 C2015 0.961 . S
H2032 C2016 0.931 . S
H2033 C2021 0.930 . S
H2034 C2022 0.956 . S
H2035 C2022 0.961 . S
H2036 C2022 0.961 . S
H2037 C2023 0.958 . S
H2038 C2023 0.961 . S
H2039 C2023 0.960 . S
C2040 C2041 1.391 . S
C2040 C2042 1.394 . S
C2040 H2056 0.931 . S
C2041 C2040 1.391 . S
C2041 C2045 1.376 . S
C2042 C2040 1.394 . S
C2042 C2043 1.369 . S
C2042 C2046 1.531 . S
C2043 C2042 1.369 . S
C2043 C2044 1.410 . S
C2043 C2051 1.503 . S
C2044 C2043 1.410 . S
C2044 C2045 1.392 . S
C2044 C2047 1.511 1_554 S
C2045 C2041 1.376 . S
C2045 C2044 1.392 . S
C2045 H2057 0.929 1_554 S
C2046 C2042 1.531 . S
C2046 H2058 0.960 . S
C2046 H2059 0.962 . S
C2046 H2060 0.960 . S
C2047 C2044 1.511 1_556 S
C2047 H2061 0.961 . S
C2047 H2062 0.961 . S
C2047 H2063 0.961 1_556 S
C2048 C2049 1.370 1_556 S
C2048 C2050 1.363 . S
C2048 H2064 0.931 . S
C2049 C2048 1.370 1_554 S
C2049 C2053 1.408 . S
C2050 C2048 1.363 . S
C2050 C2051 1.370 1_556 S
C2050 C2054 1.524 . S
C2051 C2043 1.503 . S
C2051 C2050 1.370 1_554 S
C2051 C2052 1.403 . S
C2052 C2051 1.403 . S
C2052 C2053 1.404 . S
C2052 C2055 1.539 . S
C2053 C2049 1.408 . S
C2053 C2052 1.404 . S
C2053 H2065 0.930 . S
C2054 C2050 1.524 . S
C2054 H2066 0.956 . S
C2054 H2067 0.961 . S
C2054 H2068 0.961 . S
C2055 C2052 1.539 . S
C2055 H2069 0.958 . S
C2055 H2070 0.961 . S
C2055 H2071 0.960 . S
H2056 C2040 0.931 . S
H2057 C2045 0.929 1_556 S
H2058 C2046 0.960 . S
H2059 C2046 0.962 . S
H2060 C2046 0.960 . S
H2061 C2047 0.961 . S
H2062 C2047 0.961 . S
H2063 C2047 0.961 1_554 S
H2064 C2048 0.931 . S
H2065 C2053 0.930 . S
H2066 C2054 0.956 . S
H2067 C2054 0.961 . S
H2068 C2054 0.961 . S
H2069 C2055 0.958 . S
H2070 C2055 0.961 . S
H2071 C2055 0.960 . S
C2072 C2073 1.391 . S
C2072 C2074 1.398 . S
C2072 H2088 0.931 . S
C2073 C2072 1.391 . S
C2073 C2077 1.376 . S
C2074 C2072 1.398 . S
C2074 C2075 1.374 . S
C2074 C2078 1.521 1_554 S
C2075 C2074 1.374 . S
C2075 C2076 1.410 . S
C2075 C2083 1.503 . S
C2076 C2075 1.410 . S
C2076 C2077 1.392 . S
C2076 C2079 1.511 . S
C2077 C2073 1.376 . S
C2077 C2076 1.392 . S
C2077 H2089 0.929 . S
C2078 C2074 1.521 1_556 S
C2078 H2090 0.960 . S
C2078 H2091 0.962 1_556 S
C2078 H2092 0.960 . S
C2079 C2076 1.511 . S
C2079 H2093 0.961 . S
C2079 H2094 0.961 . S
C2079 H2095 0.961 1_554 S
C2080 C2081 1.370 . S
C2080 C2082 1.363 . S
C2080 H2096 0.931 . S
C2081 C2080 1.370 . S
C2081 C2085 1.408 1_554 S
C2082 C2080 1.363 . S
C2082 C2083 1.370 . S
C2082 C2086 1.524 . S
C2083 C2075 1.503 . S
C2083 C2082 1.370 . S
C2083 C2084 1.403 1_554 S
C2084 C2083 1.403 1_556 S
C2084 C2085 1.404 . S
C2084 C2087 1.539 . S
C2085 C2081 1.408 1_556 S
C2085 C2084 1.404 . S
C2085 H2097 0.930 . S
C2086 C2082 1.524 . S
C2086 H2098 0.956 . S
C2086 H2099 0.961 . S
C2086 H2100 0.961 . S
C2087 C2084 1.539 . S
C2087 H2101 0.958 . S
C2087 H2102 0.961 . S
C2087 H2103 0.960 . S
H2088 C2072 0.931 . S
H2089 C2077 0.929 . S
H2090 C2078 0.960 . S
H2091 C2078 0.962 1_554 S
H2092 C2078 0.960 . S
H2093 C2079 0.961 . S
H2094 C2079 0.961 . S
H2095 C2079 0.961 1_556 S
H2096 C2080 0.931 . S
H2097 C2085 0.930 . S
H2098 C2086 0.956 . S
H2099 C2086 0.961 . S
H2100 C2086 0.961 . S
H2101 C2087 0.958 . S
H2102 C2087 0.961 . S
H2103 C2087 0.960 . S
C2104 C2105 1.394 . S
C2104 C2106 1.394 . S
C2104 H2120 0.931 . S
C2105 C2104 1.394 . S
C2105 C2109 1.372 1_554 S
C2106 C2104 1.394 . S
C2106 C2107 1.369 1_554 S
C2106 C2110 1.531 . S
C2107 C2106 1.369 1_556 S
C2107 C2108 1.410 . S
C2107 C2115 1.502 1_556 S
C2108 C2107 1.410 . S
C2108 C2109 1.392 . S
C2108 C2111 1.511 . S
C2109 C2105 1.372 1_556 S
C2109 C2108 1.392 . S
C2109 H2121 0.929 . S
C2110 C2106 1.531 . S
C2110 H2122 0.960 . S
C2110 H2123 0.962 . S
C2110 H2124 0.960 . S
C2111 C2108 1.511 . S
C2111 H2125 0.961 . S
C2111 H2126 0.961 . S
C2111 H2127 0.961 . S
C2112 C2113 1.370 . S
C2112 C2114 1.363 . S
C2112 H2128 0.931 . S
C2113 C2112 1.370 . S
C2113 C2117 1.408 1_554 S
C2114 C2112 1.363 . S
C2114 C2115 1.387 . S
C2114 C2118 1.524 . S
C2115 C2107 1.502 1_554 S
C2115 C2114 1.387 . S
C2115 C2116 1.388 1_554 S
C2116 C2115 1.388 1_556 S
C2116 C2117 1.404 . S
C2116 C2119 1.539 . S
C2117 C2113 1.408 1_556 S
C2117 C2116 1.404 . S
C2117 H2129 0.930 . S
C2118 C2114 1.524 . S
C2118 H2130 0.956 . S
C2118 H2131 0.961 . S
C2118 H2132 0.961 . S
C2119 C2116 1.539 . S
C2119 H2133 0.958 . S
C2119 H2134 0.961 . S
C2119 H2135 0.960 . S
H2120 C2104 0.931 . S
H2121 C2109 0.929 . S
H2122 C2110 0.960 . S
H2123 C2110 0.962 . S
H2124 C2110 0.960 . S
H2125 C2111 0.961 . S
H2126 C2111 0.961 . S
H2127 C2111 0.961 . S
H2128 C2112 0.931 . S
H2129 C2117 0.930 . S
H2130 C2118 0.956 . S
H2131 C2118 0.961 . S
H2132 C2118 0.961 . S
H2133 C2119 0.958 . S
H2134 C2119 0.961 . S
H2135 C2119 0.960 . S
C2136 C2137 1.391 . S
C2136 C2138 1.394 . S
C2136 H2152 0.931 . S
C2137 C2136 1.391 . S
C2137 C2141 1.376 . S
C2138 C2136 1.394 . S
C2138 C2139 1.369 . S
C2138 C2142 1.531 . S
C2139 C2138 1.369 . S
C2139 C2140 1.410 . S
C2139 C2147 1.503 . S
C2140 C2139 1.410 . S
C2140 C2141 1.392 . S
C2140 C2143 1.511 . S
C2141 C2137 1.376 . S
C2141 C2140 1.392 . S
C2141 H2153 0.929 . S
C2142 C2138 1.531 . S
C2142 H2154 0.960 . S
C2142 H2155 0.962 . S
C2142 H2156 0.960 . S
C2143 C2140 1.511 . S
C2143 H2157 0.961 . S
C2143 H2158 0.961 . S
C2143 H2159 0.961 . S
C2144 C2145 1.370 . S
C2144 C2146 1.363 . S
C2144 H2160 0.931 . S
C2145 C2144 1.370 . S
C2145 C2149 1.408 . S
C2146 C2144 1.363 . S
C2146 C2147 1.370 . S
C2146 C2150 1.524 . S
C2147 C2139 1.503 . S
C2147 C2146 1.370 . S
C2147 C2148 1.403 . S
C2148 C2147 1.403 . S
C2148 C2149 1.404 . S
C2148 C2151 1.539 . S
C2149 C2145 1.408 . S
C2149 C2148 1.404 . S
C2149 H2161 0.930 . S
C2150 C2146 1.524 . S
C2150 H2162 0.956 . S
C2150 H2163 0.961 . S
C2150 H2164 0.961 . S
C2151 C2148 1.539 . S
C2151 H2165 0.958 . S
C2151 H2166 0.961 . S
C2151 H2167 0.960 . S
H2152 C2136 0.931 . S
H2153 C2141 0.929 . S
H2154 C2142 0.960 . S
H2155 C2142 0.962 . S
H2156 C2142 0.960 . S
H2157 C2143 0.961 . S
H2158 C2143 0.961 . S
H2159 C2143 0.961 . S
H2160 C2144 0.931 . S
H2161 C2149 0.930 . S
H2162 C2150 0.956 . S
H2163 C2150 0.961 . S
H2164 C2150 0.961 . S
H2165 C2151 0.958 . S
H2166 C2151 0.961 . S
H2167 C2151 0.960 . S
C2168 C2169 1.391 . S
C2168 C2170 1.394 . S
C2168 H2184 0.931 . S
C2169 C2168 1.391 . S
C2169 C2173 1.376 . S
C2170 C2168 1.394 . S
C2170 C2171 1.369 . S
C2170 C2174 1.531 . S
C2171 C2170 1.369 . S
C2171 C2172 1.410 . S
C2171 C2179 1.503 . S
C2172 C2171 1.410 . S
C2172 C2173 1.392 . S
C2172 C2175 1.511 . S
C2173 C2169 1.376 . S
C2173 C2172 1.392 . S
C2173 H2185 0.929 . S
C2174 C2170 1.531 . S
C2174 H2186 0.960 . S
C2174 H2187 0.962 . S
C2174 H2188 0.960 . S
C2175 C2172 1.511 . S
C2175 H2189 0.961 . S
C2175 H2190 0.961 . S
C2175 H2191 0.961 . S
C2176 C2177 1.370 . S
C2176 C2178 1.363 . S
C2176 H2192 0.931 . S
C2177 C2176 1.370 . S
C2177 C2181 1.408 . S
C2178 C2176 1.363 . S
C2178 C2179 1.370 . S
C2178 C2182 1.524 . S
C2179 C2171 1.503 . S
C2179 C2178 1.370 . S
C2179 C2180 1.403 . S
C2180 C2179 1.403 . S
C2180 C2181 1.404 . S
C2180 C2183 1.539 . S
C2181 C2177 1.408 . S
C2181 C2180 1.404 . S
C2181 H2193 0.930 . S
C2182 C2178 1.524 . S
C2182 H2194 0.956 . S
C2182 H2195 0.961 . S
C2182 H2196 0.961 . S
C2183 C2180 1.539 . S
C2183 H2197 0.958 . S
C2183 H2198 0.961 . S
C2183 H2199 0.960 . S
H2184 C2168 0.931 . S
H2185 C2173 0.929 . S
H2186 C2174 0.960 . S
H2187 C2174 0.962 . S
H2188 C2174 0.960 . S
H2189 C2175 0.961 . S
H2190 C2175 0.961 . S
H2191 C2175 0.961 . S
H2192 C2176 0.931 . S
H2193 C2181 0.930 . S
H2194 C2182 0.956 . S
H2195 C2182 0.961 . S
H2196 C2182 0.961 . S
H2197 C2183 0.958 . S
H2198 C2183 0.961 . S
H2199 C2183 0.960 . S
C2200 C2201 1.391 . S
C2200 C2202 1.394 . S
C2200 H2216 0.931 . S
C2201 C2200 1.391 . S
C2201 C2205 1.376 . S
C2202 C2200 1.394 . S
C2202 C2203 1.369 . S
C2202 C2206 1.531 . S
C2203 C2202 1.369 . S
C2203 C2204 1.410 . S
C2203 C2211 1.503 . S
C2204 C2203 1.410 . S
C2204 C2205 1.392 . S
C2204 C2207 1.511 . S
C2205 C2201 1.376 . S
C2205 C2204 1.392 . S
C2205 H2217 0.929 . S
C2206 C2202 1.531 . S
C2206 H2218 0.960 . S
C2206 H2219 0.962 . S
C2206 H2220 0.960 . S
C2207 C2204 1.511 . S
C2207 H2221 0.961 . S
C2207 H2222 0.961 . S
C2207 H2223 0.961 . S
C2208 C2209 1.370 . S
C2208 C2210 1.363 . S
C2208 H2224 0.931 . S
C2209 C2208 1.370 . S
C2209 C2213 1.408 . S
C2210 C2208 1.363 . S
C2210 C2211 1.370 . S
C2210 C2214 1.524 . S
C2211 C2203 1.503 . S
C2211 C2210 1.370 . S
C2211 C2212 1.403 . S
C2212 C2211 1.403 . S
C2212 C2213 1.404 . S
C2212 C2215 1.539 . S
C2213 C2209 1.408 . S
C2213 C2212 1.404 . S
C2213 H2225 0.930 . S
C2214 C2210 1.524 . S
C2214 H2226 0.956 . S
C2214 H2227 0.961 . S
C2214 H2228 0.961 . S
C2215 C2212 1.539 . S
C2215 H2229 0.958 . S
C2215 H2230 0.961 . S
C2215 H2231 0.960 . S
H2216 C2200 0.931 . S
H2217 C2205 0.929 . S
H2218 C2206 0.960 . S
H2219 C2206 0.962 . S
H2220 C2206 0.960 . S
H2221 C2207 0.961 . S
H2222 C2207 0.961 . S
H2223 C2207 0.961 . S
H2224 C2208 0.931 . S
H2225 C2213 0.930 . S
H2226 C2214 0.956 . S
H2227 C2214 0.961 . S
H2228 C2214 0.961 . S
H2229 C2215 0.958 . S
H2230 C2215 0.961 . S
H2231 C2215 0.960 . S
C2232 C2233 1.391 . S
C2232 C2234 1.394 . S
C2232 H2248 0.931 . S
C2233 C2232 1.391 . S
C2233 C2237 1.376 . S
C2234 C2232 1.394 . S
C2234 C2235 1.369 . S
C2234 C2238 1.531 . S
C2235 C2234 1.369 . S
C2235 C2236 1.410 . S
C2235 C2243 1.503 . S
C2236 C2235 1.410 . S
C2236 C2237 1.392 . S
C2236 C2239 1.511 . S
C2237 C2233 1.376 . S
C2237 C2236 1.392 . S
C2237 H2249 0.929 . S
C2238 C2234 1.531 . S
C2238 H2250 0.960 . S
C2238 H2251 0.962 . S
C2238 H2252 0.960 . S
C2239 C2236 1.511 . S
C2239 H2253 0.961 . S
C2239 H2254 0.961 . S
C2239 H2255 0.961 . S
C2240 C2241 1.370 . S
C2240 C2242 1.363 . S
C2240 H2256 0.931 . S
C2241 C2240 1.370 . S
C2241 C2245 1.408 . S
C2242 C2240 1.363 . S
C2242 C2243 1.370 . S
C2242 C2246 1.524 . S
C2243 C2235 1.503 . S
C2243 C2242 1.370 . S
C2243 C2244 1.403 . S
C2244 C2243 1.403 . S
C2244 C2245 1.404 . S
C2244 C2247 1.539 . S
C2245 C2241 1.408 . S
C2245 C2244 1.404 . S
C2245 H2257 0.930 . S
C2246 C2242 1.524 . S
C2246 H2258 0.956 . S
C2246 H2259 0.961 . S
C2246 H2260 0.961 . S
C2247 C2244 1.539 . S
C2247 H2261 0.958 . S
C2247 H2262 0.961 . S
C2247 H2263 0.960 . S
H2248 C2232 0.931 . S
H2249 C2237 0.929 . S
H2250 C2238 0.960 . S
H2251 C2238 0.962 . S
H2252 C2238 0.960 . S
H2253 C2239 0.961 . S
H2254 C2239 0.961 . S
H2255 C2239 0.961 . S
H2256 C2240 0.931 . S
H2257 C2245 0.930 . S
H2258 C2246 0.956 . S
H2259 C2246 0.961 . S
H2260 C2246 0.961 . S
H2261 C2247 0.958 . S
H2262 C2247 0.961 . S
H2263 C2247 0.960 . S
C2264 C2265 1.391 . S
C2264 C2266 1.394 . S
C2264 H2280 0.931 . S
C2265 C2264 1.391 . S
C2265 C2269 1.376 . S
C2266 C2264 1.394 . S
C2266 C2267 1.369 . S
C2266 C2270 1.531 . S
C2267 C2266 1.369 . S
C2267 C2268 1.410 . S
C2267 C2275 1.503 . S
C2268 C2267 1.410 . S
C2268 C2269 1.392 . S
C2268 C2271 1.511 . S
C2269 C2265 1.376 . S
C2269 C2268 1.392 . S
C2269 H2281 0.929 . S
C2270 C2266 1.531 . S
C2270 H2282 0.960 . S
C2270 H2283 0.962 . S
C2270 H2284 0.960 . S
C2271 C2268 1.511 . S
C2271 H2285 0.961 . S
C2271 H2286 0.961 . S
C2271 H2287 0.961 . S
C2272 C2273 1.370 . S
C2272 C2274 1.363 . S
C2272 H2288 0.931 . S
C2273 C2272 1.370 . S
C2273 C2277 1.408 . S
C2274 C2272 1.363 . S
C2274 C2275 1.370 . S
C2274 C2278 1.524 . S
C2275 C2267 1.503 . S
C2275 C2274 1.370 . S
C2275 C2276 1.403 . S
C2276 C2275 1.403 . S
C2276 C2277 1.404 . S
C2276 C2279 1.539 . S
C2277 C2273 1.408 . S
C2277 C2276 1.404 . S
C2277 H2289 0.930 . S
C2278 C2274 1.524 . S
C2278 H2290 0.956 . S
C2278 H2291 0.961 . S
C2278 H2292 0.961 . S
C2279 C2276 1.539 . S
C2279 H2293 0.958 . S
C2279 H2294 0.961 . S
C2279 H2295 0.960 . S
H2280 C2264 0.931 . S
H2281 C2269 0.929 . S
H2282 C2270 0.960 . S
H2283 C2270 0.962 . S
H2284 C2270 0.960 . S
H2285 C2271 0.961 . S
H2286 C2271 0.961 . S
H2287 C2271 0.961 . S
H2288 C2272 0.931 . S
H2289 C2277 0.930 . S
H2290 C2278 0.956 . S
H2291 C2278 0.961 . S
H2292 C2278 0.961 . S
H2293 C2279 0.958 . S
H2294 C2279 0.961 . S
H2295 C2279 0.960 . S
C2296 C2297 1.391 . S
C2296 C2298 1.394 . S
C2296 H2312 0.931 . S
C2297 C2296 1.391 . S
C2297 C2301 1.376 . S
C2298 C2296 1.394 . S
C2298 C2299 1.369 . S
C2298 C2302 1.531 . S
C2299 C2298 1.369 . S
C2299 C2300 1.410 . S
C2299 C2307 1.503 . S
C2300 C2299 1.410 . S
C2300 C2301 1.392 . S
C2300 C2303 1.511 . S
C2301 C2297 1.376 . S
C2301 C2300 1.392 . S
C2301 H2313 0.929 . S
C2302 C2298 1.531 . S
C2302 H2314 0.960 . S
C2302 H2315 0.962 . S
C2302 H2316 0.960 . S
C2303 C2300 1.511 . S
C2303 H2317 0.961 . S
C2303 H2318 0.961 . S
C2303 H2319 0.961 . S
C2304 C2305 1.370 . S
C2304 C2306 1.363 . S
C2304 H2320 0.931 . S
C2305 C2304 1.370 . S
C2305 C2309 1.408 . S
C2306 C2304 1.363 . S
C2306 C2307 1.370 . S
C2306 C2310 1.524 . S
C2307 C2299 1.503 . S
C2307 C2306 1.370 . S
C2307 C2308 1.403 . S
C2308 C2307 1.403 . S
C2308 C2309 1.404 . S
C2308 C2311 1.539 . S
C2309 C2305 1.408 . S
C2309 C2308 1.404 . S
C2309 H2321 0.930 . S
C2310 C2306 1.524 . S
C2310 H2322 0.956 . S
C2310 H2323 0.961 . S
C2310 H2324 0.961 . S
C2311 C2308 1.539 . S
C2311 H2325 0.958 . S
C2311 H2326 0.961 . S
C2311 H2327 0.960 . S
H2312 C2296 0.931 . S
H2313 C2301 0.929 . S
H2314 C2302 0.960 . S
H2315 C2302 0.962 . S
H2316 C2302 0.960 . S
H2317 C2303 0.961 . S
H2318 C2303 0.961 . S
H2319 C2303 0.961 . S
H2320 C2304 0.931 . S
H2321 C2309 0.930 . S
H2322 C2310 0.956 . S
H2323 C2310 0.961 . S
H2324 C2310 0.961 . S
H2325 C2311 0.958 . S
H2326 C2311 0.961 . S
H2327 C2311 0.960 . S
C2328 C2329 1.391 . S
C2328 C2330 1.394 . S
C2328 H2344 0.931 . S
C2329 C2328 1.391 . S
C2329 C2333 1.376 . S
C2330 C2328 1.394 . S
C2330 C2331 1.369 . S
C2330 C2334 1.531 . S
C2331 C2330 1.369 . S
C2331 C2332 1.410 . S
C2331 C2339 1.503 . S
C2332 C2331 1.410 . S
C2332 C2333 1.392 . S
C2332 C2335 1.511 . S
C2333 C2329 1.376 . S
C2333 C2332 1.392 . S
C2333 H2345 0.929 . S
C2334 C2330 1.531 . S
C2334 H2346 0.960 . S
C2334 H2347 0.962 . S
C2334 H2348 0.960 . S
C2335 C2332 1.511 . S
C2335 H2349 0.961 . S
C2335 H2350 0.961 . S
C2335 H2351 0.961 . S
C2336 C2337 1.370 . S
C2336 C2338 1.363 . S
C2336 H2352 0.931 . S
C2337 C2336 1.370 . S
C2337 C2341 1.408 . S
C2338 C2336 1.363 . S
C2338 C2339 1.370 . S
C2338 C2342 1.524 . S
C2339 C2331 1.503 . S
C2339 C2338 1.370 . S
C2339 C2340 1.403 . S
C2340 C2339 1.403 . S
C2340 C2341 1.404 . S
C2340 C2343 1.539 . S
C2341 C2337 1.408 . S
C2341 C2340 1.404 . S
C2341 H2353 0.930 . S
C2342 C2338 1.524 . S
C2342 H2354 0.956 . S
C2342 H2355 0.961 . S
C2342 H2356 0.961 . S
C2343 C2340 1.539 . S
C2343 H2357 0.958 . S
C2343 H2358 0.961 . S
C2343 H2359 0.960 . S
H2344 C2328 0.931 . S
H2345 C2333 0.929 . S
H2346 C2334 0.960 . S
H2347 C2334 0.962 . S
H2348 C2334 0.960 . S
H2349 C2335 0.961 . S
H2350 C2335 0.961 . S
H2351 C2335 0.961 . S
H2352 C2336 0.931 . S
H2353 C2341 0.930 . S
H2354 C2342 0.956 . S
H2355 C2342 0.961 . S
H2356 C2342 0.961 . S
H2357 C2343 0.958 . S
H2358 C2343 0.961 . S
H2359 C2343 0.960 . S
C2360 C2361 1.391 . S
C2360 C2362 1.394 . S
C2360 H2376 0.931 . S
C2361 C2360 1.391 . S
C2361 C2365 1.376 . S
C2362 C2360 1.394 . S
C2362 C2363 1.369 . S
C2362 C2366 1.531 . S
C2363 C2362 1.369 . S
C2363 C2364 1.410 . S
C2363 C2371 1.503 . S
C2364 C2363 1.410 . S
C2364 C2365 1.392 . S
C2364 C2367 1.511 . S
C2365 C2361 1.376 . S
C2365 C2364 1.392 . S
C2365 H2377 0.929 . S
C2366 C2362 1.531 . S
C2366 H2378 0.960 . S
C2366 H2379 0.962 . S
C2366 H2380 0.960 . S
C2367 C2364 1.511 . S
C2367 H2381 0.961 . S
C2367 H2382 0.961 . S
C2367 H2383 0.961 . S
C2368 C2369 1.370 . S
C2368 C2370 1.363 . S
C2368 H2384 0.931 . S
C2369 C2368 1.370 . S
C2369 C2373 1.408 . S
C2370 C2368 1.363 . S
C2370 C2371 1.370 . S
C2370 C2374 1.524 . S
C2371 C2363 1.503 . S
C2371 C2370 1.370 . S
C2371 C2372 1.403 . S
C2372 C2371 1.403 . S
C2372 C2373 1.404 . S
C2372 C2375 1.539 . S
C2373 C2369 1.408 . S
C2373 C2372 1.404 . S
C2373 H2385 0.930 . S
C2374 C2370 1.524 . S
C2374 H2386 0.956 . S
C2374 H2387 0.961 . S
C2374 H2388 0.961 . S
C2375 C2372 1.539 . S
C2375 H2389 0.958 . S
C2375 H2390 0.961 . S
C2375 H2391 0.960 . S
H2376 C2360 0.931 . S
H2377 C2365 0.929 . S
H2378 C2366 0.960 . S
H2379 C2366 0.962 . S
H2380 C2366 0.960 . S
H2381 C2367 0.961 . S
H2382 C2367 0.961 . S
H2383 C2367 0.961 . S
H2384 C2368 0.931 . S
H2385 C2373 0.930 . S
H2386 C2374 0.956 . S
H2387 C2374 0.961 . S
H2388 C2374 0.961 . S
H2389 C2375 0.958 . S
H2390 C2375 0.961 . S
H2391 C2375 0.960 . S
C2392 C2393 1.391 . S
C2392 C2394 1.394 . S
C2392 H2408 0.931 . S
C2393 C2392 1.391 . S
C2393 C2397 1.376 . S
C2394 C2392 1.394 . S
C2394 C2395 1.369 . S
C2394 C2398 1.531 . S
C2395 C2394 1.369 . S
C2395 C2396 1.410 . S
C2395 C2403 1.503 . S
C2396 C2395 1.410 . S
C2396 C2397 1.392 . S
C2396 C2399 1.511 . S
C2397 C2393 1.376 . S
C2397 C2396 1.392 . S
C2397 H2409 0.929 . S
C2398 C2394 1.531 . S
C2398 H2410 0.960 . S
C2398 H2411 0.962 . S
C2398 H2412 0.960 . S
C2399 C2396 1.511 . S
C2399 H2413 0.961 . S
C2399 H2414 0.961 . S
C2399 H2415 0.961 . S
C2400 C2401 1.370 . S
C2400 C2402 1.363 . S
C2400 H2416 0.931 . S
C2401 C2400 1.370 . S
C2401 C2405 1.408 . S
C2402 C2400 1.363 . S
C2402 C2403 1.370 . S
C2402 C2406 1.524 . S
C2403 C2395 1.503 . S
C2403 C2402 1.370 . S
C2403 C2404 1.403 . S
C2404 C2403 1.403 . S
C2404 C2405 1.404 . S
C2404 C2407 1.539 . S
C2405 C2401 1.408 . S
C2405 C2404 1.404 . S
C2405 H2417 0.930 . S
C2406 C2402 1.524 . S
C2406 H2418 0.956 . S
C2406 H2419 0.961 . S
C2406 H2420 0.961 . S
C2407 C2404 1.539 . S
C2407 H2421 0.958 . S
C2407 H2422 0.961 . S
C2407 H2423 0.960 . S
H2408 C2392 0.931 . S
H2409 C2397 0.929 . S
H2410 C2398 0.960 . S
H2411 C2398 0.962 . S
H2412 C2398 0.960 . S
H2413 C2399 0.961 . S
H2414 C2399 0.961 . S
H2415 C2399 0.961 . S
H2416 C2400 0.931 . S
H2417 C2405 0.930 . S
H2418 C2406 0.956 . S
H2419 C2406 0.961 . S
H2420 C2406 0.961 . S
H2421 C2407 0.958 . S
H2422 C2407 0.961 . S
H2423 C2407 0.960 . S
C2424 C2425 1.391 . S
C2424 C2426 1.394 . S
C2424 H2440 0.931 . S
C2425 C2424 1.391 . S
C2425 C2429 1.376 . S
C2426 C2424 1.394 . S
C2426 C2427 1.369 . S
C2426 C2430 1.531 . S
C2427 C2426 1.369 . S
C2427 C2428 1.410 . S
C2427 C2435 1.503 . S
C2428 C2427 1.410 . S
C2428 C2429 1.392 . S
C2428 C2431 1.511 . S
C2429 C2425 1.376 . S
C2429 C2428 1.392 . S
C2429 H2441 0.929 . S
C2430 C2426 1.531 . S
C2430 H2442 0.960 . S
C2430 H2443 0.962 . S
C2430 H2444 0.960 . S
C2431 C2428 1.511 . S
C2431 H2445 0.961 . S
C2431 H2446 0.961 . S
C2431 H2447 0.961 . S
C2432 C2433 1.370 . S
C2432 C2434 1.363 . S
C2432 H2448 0.931 . S
C2433 C2432 1.370 . S
C2433 C2437 1.408 . S
C2434 C2432 1.363 . S
C2434 C2435 1.370 . S
C2434 C2438 1.524 . S
C2435 C2427 1.503 . S
C2435 C2434 1.370 . S
C2435 C2436 1.403 . S
C2436 C2435 1.403 . S
C2436 C2437 1.404 . S
C2436 C2439 1.539 . S
C2437 C2433 1.408 . S
C2437 C2436 1.404 . S
C2437 H2449 0.930 . S
C2438 C2434 1.524 . S
C2438 H2450 0.956 . S
C2438 H2451 0.961 . S
C2438 H2452 0.961 . S
C2439 C2436 1.539 . S
C2439 H2453 0.958 . S
C2439 H2454 0.961 . S
C2439 H2455 0.960 . S
H2440 C2424 0.931 . S
H2441 C2429 0.929 . S
H2442 C2430 0.960 . S
H2443 C2430 0.962 . S
H2444 C2430 0.960 . S
H2445 C2431 0.961 . S
H2446 C2431 0.961 . S
H2447 C2431 0.961 . S
H2448 C2432 0.931 . S
H2449 C2437 0.930 . S
H2450 C2438 0.956 . S
H2451 C2438 0.961 . S
H2452 C2438 0.961 . S
H2453 C2439 0.958 . S
H2454 C2439 0.961 . S
H2455 C2439 0.960 . S
C2456 C2457 1.391 . S
C2456 C2458 1.394 . S
C2456 H2472 0.931 . S
C2457 C2456 1.391 . S
C2457 C2461 1.376 . S
C2458 C2456 1.394 . S
C2458 C2459 1.369 . S
C2458 C2462 1.531 . S
C2459 C2458 1.369 . S
C2459 C2460 1.410 . S
C2459 C2467 1.503 . S
C2460 C2459 1.410 . S
C2460 C2461 1.392 . S
C2460 C2463 1.511 . S
C2461 C2457 1.376 . S
C2461 C2460 1.392 . S
C2461 H2473 0.929 . S
C2462 C2458 1.531 . S
C2462 H2474 0.960 . S
C2462 H2475 0.962 . S
C2462 H2476 0.960 . S
C2463 C2460 1.511 . S
C2463 H2477 0.961 . S
C2463 H2478 0.961 . S
C2463 H2479 0.961 . S
C2464 C2465 1.370 . S
C2464 C2466 1.363 . S
C2464 H2480 0.931 . S
C2465 C2464 1.370 . S
C2465 C2469 1.408 . S
C2466 C2464 1.363 . S
C2466 C2467 1.370 . S
C2466 C2470 1.524 . S
C2467 C2459 1.503 . S
C2467 C2466 1.370 . S
C2467 C2468 1.403 . S
C2468 C2467 1.403 . S
C2468 C2469 1.404 . S
C2468 C2471 1.539 . S
C2469 C2465 1.408 . S
C2469 C2468 1.404 . S
C2469 H2481 0.930 . S
C2470 C2466 1.524 . S
C2470 H2482 0.956 . S
C2470 H2483 0.961 . S
C2470 H2484 0.961 . S
C2471 C2468 1.539 . S
C2471 H2485 0.958 . S
C2471 H2486 0.961 . S
C2471 H2487 0.960 . S
H2472 C2456 0.931 . S
H2473 C2461 0.929 . S
H2474 C2462 0.960 . S
H2475 C2462 0.962 . S
H2476 C2462 0.960 . S
H2477 C2463 0.961 . S
H2478 C2463 0.961 . S
H2479 C2463 0.961 . S
H2480 C2464 0.931 . S
H2481 C2469 0.930 . S
H2482 C2470 0.956 . S
H2483 C2470 0.961 . S
H2484 C2470 0.961 . S
H2485 C2471 0.958 . S
H2486 C2471 0.961 . S
H2487 C2471 0.960 . S
C2488 C2489 1.391 . S
C2488 C2490 1.394 . S
C2488 H2504 0.931 . S
C2489 C2488 1.391 . S
C2489 C2493 1.376 . S
C2490 C2488 1.394 . S
C2490 C2491 1.369 . S
C2490 C2494 1.531 . S
C2491 C2490 1.369 . S
C2491 C2492 1.410 . S
C2491 C2499 1.503 . S
C2492 C2491 1.410 . S
C2492 C2493 1.392 . S
C2492 C2495 1.511 . S
C2493 C2489 1.376 . S
C2493 C2492 1.392 . S
C2493 H2505 0.929 . S
C2494 C2490 1.531 . S
C2494 H2506 0.960 . S
C2494 H2507 0.962 . S
C2494 H2508 0.960 . S
C2495 C2492 1.511 . S
C2495 H2509 0.961 . S
C2495 H2510 0.961 . S
C2495 H2511 0.961 . S
C2496 C2497 1.370 . S
C2496 C2498 1.363 . S
C2496 H2512 0.931 . S
C2497 C2496 1.370 . S
C2497 C2501 1.408 . S
C2498 C2496 1.363 . S
C2498 C2499 1.370 . S
C2498 C2502 1.524 . S
C2499 C2491 1.503 . S
C2499 C2498 1.370 . S
C2499 C2500 1.403 . S
C2500 C2499 1.403 . S
C2500 C2501 1.404 . S
C2500 C2503 1.539 . S
C2501 C2497 1.408 . S
C2501 C2500 1.404 . S
C2501 H2513 0.930 . S
C2502 C2498 1.524 . S
C2502 H2514 0.956 . S
C2502 H2515 0.961 . S
C2502 H2516 0.961 . S
C2503 C2500 1.539 . S
C2503 H2517 0.958 . S
C2503 H2518 0.961 . S
C2503 H2519 0.960 . S
H2504 C2488 0.931 . S
H2505 C2493 0.929 . S
H2506 C2494 0.960 . S
H2507 C2494 0.962 . S
H2508 C2494 0.960 . S
H2509 C2495 0.961 . S
H2510 C2495 0.961 . S
H2511 C2495 0.961 . S
H2512 C2496 0.931 . S
H2513 C2501 0.930 . S
H2514 C2502 0.956 . S
H2515 C2502 0.961 . S
H2516 C2502 0.961 . S
H2517 C2503 0.958 . S
H2518 C2503 0.961 . S
H2519 C2503 0.960 . S
C2520 C2521 1.391 . S
C2520 C2522 1.394 . S
C2520 H2536 0.931 . S
C2521 C2520 1.391 . S
C2521 C2525 1.376 . S
C2522 C2520 1.394 . S
C2522 C2523 1.369 . S
C2522 C2526 1.531 . S
C2523 C2522 1.369 . S
C2523 C2524 1.410 . S
C2523 C2531 1.503 . S
C2524 C2523 1.410 . S
C2524 C2525 1.392 . S
C2524 C2527 1.511 . S
C2525 C2521 1.376 . S
C2525 C2524 1.392 . S
C2525 H2537 0.929 . S
C2526 C2522 1.531 . S
C2526 H2538 0.960 . S
C2526 H2539 0.962 . S
C2526 H2540 0.960 . S
C2527 C2524 1.511 . S
C2527 H2541 0.961 . S
C2527 H2542 0.961 . S
C2527 H2543 0.961 . S
C2528 C2529 1.370 . S
C2528 C2530 1.363 . S
C2528 H2544 0.931 . S
C2529 C2528 1.370 . S
C2529 C2533 1.408 . S
C2530 C2528 1.363 . S
C2530 C2531 1.370 . S
C2530 C2534 1.524 . S
C2531 C2523 1.503 . S
C2531 C2530 1.370 . S
C2531 C2532 1.403 . S
C2532 C2531 1.403 . S
C2532 C2533 1.404 . S
C2532 C2535 1.539 . S
C2533 C2529 1.408 . S
C2533 C2532 1.404 . S
C2533 H2545 0.930 . S
C2534 C2530 1.524 . S
C2534 H2546 0.956 . S
C2534 H2547 0.961 . S
C2534 H2548 0.961 . S
C2535 C2532 1.539 . S
C2535 H2549 0.958 . S
C2535 H2550 0.961 . S
C2535 H2551 0.960 . S
H2536 C2520 0.931 . S
H2537 C2525 0.929 . S
H2538 C2526 0.960 . S
H2539 C2526 0.962 . S
H2540 C2526 0.960 . S
H2541 C2527 0.961 . S
H2542 C2527 0.961 . S
H2543 C2527 0.961 . S
H2544 C2528 0.931 . S
H2545 C2533 0.930 . S
H2546 C2534 0.956 . S
H2547 C2534 0.961 . S
H2548 C2534 0.961 . S
H2549 C2535 0.958 . S
H2550 C2535 0.961 . S
H2551 C2535 0.960 . S
C2552 C2553 1.391 . S
C2552 C2554 1.394 . S
C2552 H2568 0.931 . S
C2553 C2552 1.391 . S
C2553 C2557 1.376 . S
C2554 C2552 1.394 . S
C2554 C2555 1.369 . S
C2554 C2558 1.531 . S
C2555 C2554 1.369 . S
C2555 C2556 1.410 . S
C2555 C2563 1.503 . S
C2556 C2555 1.410 . S
C2556 C2557 1.392 . S
C2556 C2559 1.511 . S
C2557 C2553 1.376 . S
C2557 C2556 1.392 . S
C2557 H2569 0.929 . S
C2558 C2554 1.531 . S
C2558 H2570 0.960 . S
C2558 H2571 0.962 . S
C2558 H2572 0.960 . S
C2559 C2556 1.511 . S
C2559 H2573 0.961 . S
C2559 H2574 0.961 . S
C2559 H2575 0.961 . S
C2560 C2561 1.370 . S
C2560 C2562 1.363 . S
C2560 H2576 0.931 . S
C2561 C2560 1.370 . S
C2561 C2565 1.408 . S
C2562 C2560 1.363 . S
C2562 C2563 1.370 . S
C2562 C2566 1.524 . S
C2563 C2555 1.503 . S
C2563 C2562 1.370 . S
C2563 C2564 1.403 . S
C2564 C2563 1.403 . S
C2564 C2565 1.404 . S
C2564 C2567 1.539 . S
C2565 C2561 1.408 . S
C2565 C2564 1.404 . S
C2565 H2577 0.930 . S
C2566 C2562 1.524 . S
C2566 H2578 0.956 . S
C2566 H2579 0.961 . S
C2566 H2580 0.961 . S
C2567 C2564 1.539 . S
C2567 H2581 0.958 . S
C2567 H2582 0.961 . S
C2567 H2583 0.960 . S
H2568 C2552 0.931 . S
H2569 C2557 0.929 . S
H2570 C2558 0.960 . S
H2571 C2558 0.962 . S
H2572 C2558 0.960 . S
H2573 C2559 0.961 . S
H2574 C2559 0.961 . S
H2575 C2559 0.961 . S
H2576 C2560 0.931 . S
H2577 C2565 0.930 . S
H2578 C2566 0.956 . S
H2579 C2566 0.961 . S
H2580 C2566 0.961 . S
H2581 C2567 0.958 . S
H2582 C2567 0.961 . S
H2583 C2567 0.960 . S
C2584 C2585 1.391 . S
C2584 C2586 1.394 . S
C2584 H2600 0.931 . S
C2585 C2584 1.391 . S
C2585 C2589 1.376 . S
C2586 C2584 1.394 . S
C2586 C2587 1.369 . S
C2586 C2590 1.531 . S
C2587 C2586 1.369 . S
C2587 C2588 1.410 . S
C2587 C2595 1.503 . S
C2588 C2587 1.410 . S
C2588 C2589 1.392 . S
C2588 C2591 1.511 . S
C2589 C2585 1.376 . S
C2589 C2588 1.392 . S
C2589 H2601 0.929 . S
C2590 C2586 1.531 . S
C2590 H2602 0.960 . S
C2590 H2603 0.962 . S
C2590 H2604 0.960 . S
C2591 C2588 1.511 . S
C2591 H2605 0.961 . S
C2591 H2606 0.961 . S
C2591 H2607 0.961 . S
C2592 C2593 1.370 . S
C2592 C2594 1.363 . S
C2592 H2608 0.931 . S
C2593 C2592 1.370 . S
C2593 C2597 1.408 . S
C2594 C2592 1.363 . S
C2594 C2595 1.370 . S
C2594 C2598 1.524 . S
C2595 C2587 1.503 . S
C2595 C2594 1.370 . S
C2595 C2596 1.403 . S
C2596 C2595 1.403 . S
C2596 C2597 1.404 . S
C2596 C2599 1.539 . S
C2597 C2593 1.408 . S
C2597 C2596 1.404 . S
C2597 H2609 0.930 . S
C2598 C2594 1.524 . S
C2598 H2610 0.956 . S
C2598 H2611 0.961 . S
C2598 H2612 0.961 . S
C2599 C2596 1.539 . S
C2599 H2613 0.958 . S
C2599 H2614 0.961 . S
C2599 H2615 0.960 . S
H2600 C2584 0.931 . S
H2601 C2589 0.929 . S
H2602 C2590 0.960 . S
H2603 C2590 0.962 . S
H2604 C2590 0.960 . S
H2605 C2591 0.961 . S
H2606 C2591 0.961 . S
H2607 C2591 0.961 . S
H2608 C2592 0.931 . S
H2609 C2597 0.930 . S
H2610 C2598 0.956 . S
H2611 C2598 0.961 . S
H2612 C2598 0.961 . S
H2613 C2599 0.958 . S
H2614 C2599 0.961 . S
H2615 C2599 0.960 . S
C2616 C2617 1.391 . S
C2616 C2618 1.394 . S
C2616 H2632 0.931 . S
C2617 C2616 1.391 . S
C2617 C2621 1.376 . S
C2618 C2616 1.394 . S
C2618 C2619 1.369 . S
C2618 C2622 1.531 . S
C2619 C2618 1.369 . S
C2619 C2620 1.410 . S
C2619 C2627 1.503 . S
C2620 C2619 1.410 . S
C2620 C2621 1.392 . S
C2620 C2623 1.511 . S
C2621 C2617 1.376 . S
C2621 C2620 1.392 . S
C2621 H2633 0.929 . S
C2622 C2618 1.531 . S
C2622 H2634 0.960 . S
C2622 H2635 0.962 . S
C2622 H2636 0.960 . S
C2623 C2620 1.511 . S
C2623 H2637 0.961 . S
C2623 H2638 0.961 . S
C2623 H2639 0.961 . S
C2624 C2625 1.370 . S
C2624 C2626 1.363 . S
C2624 H2640 0.931 . S
C2625 C2624 1.370 . S
C2625 C2629 1.408 . S
C2626 C2624 1.363 . S
C2626 C2627 1.370 . S
C2626 C2630 1.524 . S
C2627 C2619 1.503 . S
C2627 C2626 1.370 . S
C2627 C2628 1.403 . S
C2628 C2627 1.403 . S
C2628 C2629 1.404 . S
C2628 C2631 1.539 . S
C2629 C2625 1.408 . S
C2629 C2628 1.404 . S
C2629 H2641 0.930 . S
C2630 C2626 1.524 . S
C2630 H2642 0.956 . S
C2630 H2643 0.961 . S
C2630 H2644 0.961 . S
C2631 C2628 1.539 . S
C2631 H2645 0.958 . S
C2631 H2646 0.961 . S
C2631 H2647 0.960 . S
H2632 C2616 0.931 . S
H2633 C2621 0.929 . S
H2634 C2622 0.960 . S
H2635 C2622 0.962 . S
H2636 C2622 0.960 . S
H2637 C2623 0.961 . S
H2638 C2623 0.961 . S
H2639 C2623 0.961 . S
H2640 C2624 0.931 . S
H2641 C2629 0.930 . S
H2642 C2630 0.956 . S
H2643 C2630 0.961 . S
H2644 C2630 0.961 . S
H2645 C2631 0.958 . S
H2646 C2631 0.961 . S
H2647 C2631 0.960 . S
C2648 C2649 1.391 . S
C2648 C2650 1.394 . S
C2648 H2664 0.931 . S
C2649 C2648 1.391 . S
C2649 C2653 1.376 . S
C2650 C2648 1.394 . S
C2650 C2651 1.369 . S
C2650 C2654 1.531 . S
C2651 C2650 1.369 . S
C2651 C2652 1.410 . S
C2651 C2659 1.503 . S
C2652 C2651 1.410 . S
C2652 C2653 1.392 . S
C2652 C2655 1.511 . S
C2653 C2649 1.376 . S
C2653 C2652 1.392 . S
C2653 H2665 0.929 . S
C2654 C2650 1.531 . S
C2654 H2666 0.960 . S
C2654 H2667 0.962 . S
C2654 H2668 0.960 . S
C2655 C2652 1.511 . S
C2655 H2669 0.961 . S
C2655 H2670 0.961 . S
C2655 H2671 0.961 . S
C2656 C2657 1.370 . S
C2656 C2658 1.363 . S
C2656 H2672 0.931 . S
C2657 C2656 1.370 . S
C2657 C2661 1.408 . S
C2658 C2656 1.363 . S
C2658 C2659 1.370 . S
C2658 C2662 1.524 . S
C2659 C2651 1.503 . S
C2659 C2658 1.370 . S
C2659 C2660 1.403 . S
C2660 C2659 1.403 . S
C2660 C2661 1.404 . S
C2660 C2663 1.539 . S
C2661 C2657 1.408 . S
C2661 C2660 1.404 . S
C2661 H2673 0.930 . S
C2662 C2658 1.524 . S
C2662 H2674 0.956 . S
C2662 H2675 0.961 . S
C2662 H2676 0.961 . S
C2663 C2660 1.539 . S
C2663 H2677 0.958 . S
C2663 H2678 0.961 . S
C2663 H2679 0.960 . S
H2664 C2648 0.931 . S
H2665 C2653 0.929 . S
H2666 C2654 0.960 . S
H2667 C2654 0.962 . S
H2668 C2654 0.960 . S
H2669 C2655 0.961 . S
H2670 C2655 0.961 . S
H2671 C2655 0.961 . S
H2672 C2656 0.931 . S
H2673 C2661 0.930 . S
H2674 C2662 0.956 . S
H2675 C2662 0.961 . S
H2676 C2662 0.961 . S
H2677 C2663 0.958 . S
H2678 C2663 0.961 . S
H2679 C2663 0.960 . S
C2680 C2681 1.391 . S
C2680 C2682 1.394 . S
C2680 H2696 0.931 . S
C2681 C2680 1.391 . S
C2681 C2685 1.376 . S
C2682 C2680 1.394 . S
C2682 C2683 1.369 . S
C2682 C2686 1.531 . S
C2683 C2682 1.369 . S
C2683 C2684 1.410 . S
C2683 C2691 1.503 . S
C2684 C2683 1.410 . S
C2684 C2685 1.392 . S
C2684 C2687 1.511 . S
C2685 C2681 1.376 . S
C2685 C2684 1.392 . S
C2685 H2697 0.929 . S
C2686 C2682 1.531 . S
C2686 H2698 0.960 . S
C2686 H2699 0.962 . S
C2686 H2700 0.960 . S
C2687 C2684 1.511 . S
C2687 H2701 0.961 . S
C2687 H2702 0.961 . S
C2687 H2703 0.961 . S
C2688 C2689 1.370 . S
C2688 C2690 1.363 . S
C2688 H2704 0.931 . S
C2689 C2688 1.370 . S
C2689 C2693 1.408 . S
C2690 C2688 1.363 . S
C2690 C2691 1.370 . S
C2690 C2694 1.524 . S
C2691 C2683 1.503 . S
C2691 C2690 1.370 . S
C2691 C2692 1.403 . S
C2692 C2691 1.403 . S
C2692 C2693 1.404 . S
C2692 C2695 1.539 . S
C2693 C2689 1.408 . S
C2693 C2692 1.404 . S
C2693 H2705 0.930 . S
C2694 C2690 1.524 . S
C2694 H2706 0.956 . S
C2694 H2707 0.961 . S
C2694 H2708 0.961 . S
C2695 C2692 1.539 . S
C2695 H2709 0.958 . S
C2695 H2710 0.961 . S
C2695 H2711 0.960 . S
H2696 C2680 0.931 . S
H2697 C2685 0.929 . S
H2698 C2686 0.960 . S
H2699 C2686 0.962 . S
H2700 C2686 0.960 . S
H2701 C2687 0.961 . S
H2702 C2687 0.961 . S
H2703 C2687 0.961 . S
H2704 C2688 0.931 . S
H2705 C2693 0.930 . S
H2706 C2694 0.956 . S
H2707 C2694 0.961 . S
H2708 C2694 0.961 . S
H2709 C2695 0.958 . S
H2710 C2695 0.961 . S
H2711 C2695 0.960 . S
C2712 C2713 1.391 . S
C2712 C2714 1.394 . S
C2712 H2728 0.931 . S
C2713 C2712 1.391 . S
C2713 C2717 1.376 . S
C2714 C2712 1.394 . S
C2714 C2715 1.369 . S
C2714 C2718 1.531 . S
C2715 C2714 1.369 . S
C2715 C2716 1.410 . S
C2715 C2723 1.503 . S
C2716 C2715 1.410 . S
C2716 C2717 1.392 . S
C2716 C2719 1.511 . S
C2717 C2713 1.376 . S
C2717 C2716 1.392 . S
C2717 H2729 0.929 . S
C2718 C2714 1.531 . S
C2718 H2730 0.960 . S
C2718 H2731 0.962 . S
C2718 H2732 0.960 . S
C2719 C2716 1.511 . S
C2719 H2733 0.961 . S
C2719 H2734 0.961 . S
C2719 H2735 0.961 . S
C2720 C2721 1.370 . S
C2720 C2722 1.363 . S
C2720 H2736 0.931 . S
C2721 C2720 1.370 . S
C2721 C2725 1.408 . S
C2722 C2720 1.363 . S
C2722 C2723 1.370 . S
C2722 C2726 1.524 . S
C2723 C2715 1.503 . S
C2723 C2722 1.370 . S
C2723 C2724 1.403 . S
C2724 C2723 1.403 . S
C2724 C2725 1.404 . S
C2724 C2727 1.539 . S
C2725 C2721 1.408 . S
C2725 C2724 1.404 . S
C2725 H2737 0.930 . S
C2726 C2722 1.524 . S
C2726 H2738 0.956 . S
C2726 H2739 0.961 . S
C2726 H2740 0.961 . S
C2727 C2724 1.539 . S
C2727 H2741 0.958 . S
C2727 H2742 0.961 . S
C2727 H2743 0.960 . S
H2728 C2712 0.931 . S
H2729 C2717 0.929 . S
H2730 C2718 0.960 . S
H2731 C2718 0.962 . S
H2732 C2718 0.960 . S
H2733 C2719 0.961 . S
H2734 C2719 0.961 . S
H2735 C2719 0.961 . S
H2736 C2720 0.931 . S
H2737 C2725 0.930 . S
H2738 C2726 0.956 . S
H2739 C2726 0.961 . S
H2740 C2726 0.961 . S
H2741 C2727 0.958 . S
H2742 C2727 0.961 . S
H2743 C2727 0.960 . S
C2744 C2745 1.391 . S
C2744 C2746 1.394 . S
C2744 H2760 0.931 . S
C2745 C2744 1.391 . S
C2745 C2749 1.376 . S
C2746 C2744 1.394 . S
C2746 C2747 1.369 . S
C2746 C2750 1.531 . S
C2747 C2746 1.369 . S
C2747 C2748 1.410 . S
C2747 C2755 1.503 . S
C2748 C2747 1.410 . S
C2748 C2749 1.392 . S
C2748 C2751 1.511 . S
C2749 C2745 1.376 . S
C2749 C2748 1.392 . S
C2749 H2761 0.929 . S
C2750 C2746 1.531 . S
C2750 H2762 0.960 . S
C2750 H2763 0.962 . S
C2750 H2764 0.960 . S
C2751 C2748 1.511 . S
C2751 H2765 0.961 . S
C2751 H2766 0.961 . S
C2751 H2767 0.961 . S
C2752 C2753 1.370 . S
C2752 C2754 1.363 . S
C2752 H2768 0.931 . S
C2753 C2752 1.370 . S
C2753 C2757 1.408 . S
C2754 C2752 1.363 . S
C2754 C2755 1.370 . S
C2754 C2758 1.524 . S
C2755 C2747 1.503 . S
C2755 C2754 1.370 . S
C2755 C2756 1.403 . S
C2756 C2755 1.403 . S
C2756 C2757 1.404 . S
C2756 C2759 1.539 . S
C2757 C2753 1.408 . S
C2757 C2756 1.404 . S
C2757 H2769 0.930 . S
C2758 C2754 1.524 . S
C2758 H2770 0.956 . S
C2758 H2771 0.961 . S
C2758 H2772 0.961 . S
C2759 C2756 1.539 . S
C2759 H2773 0.958 . S
C2759 H2774 0.961 . S
C2759 H2775 0.960 . S
H2760 C2744 0.931 . S
H2761 C2749 0.929 . S
H2762 C2750 0.960 . S
H2763 C2750 0.962 . S
H2764 C2750 0.960 . S
H2765 C2751 0.961 . S
H2766 C2751 0.961 . S
H2767 C2751 0.961 . S
H2768 C2752 0.931 . S
H2769 C2757 0.930 . S
H2770 C2758 0.956 . S
H2771 C2758 0.961 . S
H2772 C2758 0.961 . S
H2773 C2759 0.958 . S
H2774 C2759 0.961 . S
H2775 C2759 0.960 . S
C2776 C2777 1.391 . S
C2776 C2778 1.394 . S
C2776 H2792 0.931 . S
C2777 C2776 1.391 . S
C2777 C2781 1.376 . S
C2778 C2776 1.394 . S
C2778 C2779 1.369 . S
C2778 C2782 1.531 . S
C2779 C2778 1.369 . S
C2779 C2780 1.410 . S
C2779 C2787 1.503 . S
C2780 C2779 1.410 . S
C2780 C2781 1.392 . S
C2780 C2783 1.511 . S
C2781 C2777 1.376 . S
C2781 C2780 1.392 . S
C2781 H2793 0.929 . S
C2782 C2778 1.531 . S
C2782 H2794 0.960 . S
C2782 H2795 0.962 . S
C2782 H2796 0.960 . S
C2783 C2780 1.511 . S
C2783 H2797 0.961 . S
C2783 H2798 0.961 . S
C2783 H2799 0.961 . S
C2784 C2785 1.370 . S
C2784 C2786 1.363 . S
C2784 H2800 0.931 . S
C2785 C2784 1.370 . S
C2785 C2789 1.408 . S
C2786 C2784 1.363 . S
C2786 C2787 1.370 . S
C2786 C2790 1.524 . S
C2787 C2779 1.503 . S
C2787 C2786 1.370 . S
C2787 C2788 1.403 . S
C2788 C2787 1.403 . S
C2788 C2789 1.404 . S
C2788 C2791 1.539 . S
C2789 C2785 1.408 . S
C2789 C2788 1.404 . S
C2789 H2801 0.930 . S
C2790 C2786 1.524 . S
C2790 H2802 0.956 . S
C2790 H2803 0.961 . S
C2790 H2804 0.961 . S
C2791 C2788 1.539 . S
C2791 H2805 0.958 . S
C2791 H2806 0.961 . S
C2791 H2807 0.960 . S
H2792 C2776 0.931 . S
H2793 C2781 0.929 . S
H2794 C2782 0.960 . S
H2795 C2782 0.962 . S
H2796 C2782 0.960 . S
H2797 C2783 0.961 . S
H2798 C2783 0.961 . S
H2799 C2783 0.961 . S
H2800 C2784 0.931 . S
H2801 C2789 0.930 . S
H2802 C2790 0.956 . S
H2803 C2790 0.961 . S
H2804 C2790 0.961 . S
H2805 C2791 0.958 . S
H2806 C2791 0.961 . S
H2807 C2791 0.960 . S
C2808 C2809 1.391 . S
C2808 C2810 1.394 . S
C2808 H2824 0.931 . S
C2809 C2808 1.391 . S
C2809 C2813 1.376 . S
C2810 C2808 1.394 . S
C2810 C2811 1.369 . S
C2810 C2814 1.531 . S
C2811 C2810 1.369 . S
C2811 C2812 1.410 . S
C2811 C2819 1.503 . S
C2812 C2811 1.410 . S
C2812 C2813 1.392 . S
C2812 C2815 1.511 . S
C2813 C2809 1.376 . S
C2813 C2812 1.392 . S
C2813 H2825 0.929 . S
C2814 C2810 1.531 . S
C2814 H2826 0.960 . S
C2814 H2827 0.962 . S
C2814 H2828 0.960 . S
C2815 C2812 1.511 . S
C2815 H2829 0.961 . S
C2815 H2830 0.961 . S
C2815 H2831 0.961 . S
C2816 C2817 1.370 . S
C2816 C2818 1.363 . S
C2816 H2832 0.931 . S
C2817 C2816 1.370 . S
C2817 C2821 1.408 . S
C2818 C2816 1.363 . S
C2818 C2819 1.370 . S
C2818 C2822 1.524 . S
C2819 C2811 1.503 . S
C2819 C2818 1.370 . S
C2819 C2820 1.403 . S
C2820 C2819 1.403 . S
C2820 C2821 1.404 . S
C2820 C2823 1.539 . S
C2821 C2817 1.408 . S
C2821 C2820 1.404 . S
C2821 H2833 0.930 . S
C2822 C2818 1.524 . S
C2822 H2834 0.956 . S
C2822 H2835 0.961 . S
C2822 H2836 0.961 . S
C2823 C2820 1.539 . S
C2823 H2837 0.958 . S
C2823 H2838 0.961 . S
C2823 H2839 0.960 . S
H2824 C2808 0.931 . S
H2825 C2813 0.929 . S
H2826 C2814 0.960 . S
H2827 C2814 0.962 . S
H2828 C2814 0.960 . S
H2829 C2815 0.961 . S
H2830 C2815 0.961 . S
H2831 C2815 0.961 . S
H2832 C2816 0.931 . S
H2833 C2821 0.930 . S
H2834 C2822 0.956 . S
H2835 C2822 0.961 . S
H2836 C2822 0.961 . S
H2837 C2823 0.958 . S
H2838 C2823 0.961 . S
H2839 C2823 0.960 . S
C2840 C2841 1.391 . S
C2840 C2842 1.394 . S
C2840 H2856 0.931 . S
C2841 C2840 1.391 . S
C2841 C2845 1.376 . S
C2842 C2840 1.394 . S
C2842 C2843 1.369 . S
C2842 C2846 1.531 . S
C2843 C2842 1.369 . S
C2843 C2844 1.410 . S
C2843 C2851 1.503 . S
C2844 C2843 1.410 . S
C2844 C2845 1.392 . S
C2844 C2847 1.511 . S
C2845 C2841 1.376 . S
C2845 C2844 1.392 . S
C2845 H2857 0.929 . S
C2846 C2842 1.531 . S
C2846 H2858 0.960 . S
C2846 H2859 0.962 . S
C2846 H2860 0.960 . S
C2847 C2844 1.511 . S
C2847 H2861 0.961 . S
C2847 H2862 0.961 . S
C2847 H2863 0.961 . S
C2848 C2849 1.370 . S
C2848 C2850 1.363 . S
C2848 H2864 0.931 . S
C2849 C2848 1.370 . S
C2849 C2853 1.408 . S
C2850 C2848 1.363 . S
C2850 C2851 1.370 . S
C2850 C2854 1.524 . S
C2851 C2843 1.503 . S
C2851 C2850 1.370 . S
C2851 C2852 1.403 . S
C2852 C2851 1.403 . S
C2852 C2853 1.404 . S
C2852 C2855 1.539 . S
C2853 C2849 1.408 . S
C2853 C2852 1.404 . S
C2853 H2865 0.930 . S
C2854 C2850 1.524 . S
C2854 H2866 0.956 . S
C2854 H2867 0.961 . S
C2854 H2868 0.961 . S
C2855 C2852 1.539 . S
C2855 H2869 0.958 . S
C2855 H2870 0.961 . S
C2855 H2871 0.960 . S
H2856 C2840 0.931 . S
H2857 C2845 0.929 . S
H2858 C2846 0.960 . S
H2859 C2846 0.962 . S
H2860 C2846 0.960 . S
H2861 C2847 0.961 . S
H2862 C2847 0.961 . S
H2863 C2847 0.961 . S
H2864 C2848 0.931 . S
H2865 C2853 0.930 . S
H2866 C2854 0.956 . S
H2867 C2854 0.961 . S
H2868 C2854 0.961 . S
H2869 C2855 0.958 . S
H2870 C2855 0.961 . S
H2871 C2855 0.960 . S
C2872 C2873 1.391 . S
C2872 C2874 1.394 . S
C2872 H2888 0.931 . S
C2873 C2872 1.391 . S
C2873 C2877 1.376 . S
C2874 C2872 1.394 . S
C2874 C2875 1.369 . S
C2874 C2878 1.531 . S
C2875 C2874 1.369 . S
C2875 C2876 1.410 . S
C2875 C2883 1.503 . S
C2876 C2875 1.410 . S
C2876 C2877 1.392 . S
C2876 C2879 1.511 . S
C2877 C2873 1.376 . S
C2877 C2876 1.392 . S
C2877 H2889 0.929 . S
C2878 C2874 1.531 . S
C2878 H2890 0.960 . S
C2878 H2891 0.962 . S
C2878 H2892 0.960 . S
C2879 C2876 1.511 . S
C2879 H2893 0.961 . S
C2879 H2894 0.961 . S
C2879 H2895 0.961 . S
C2880 C2881 1.370 . S
C2880 C2882 1.363 . S
C2880 H2896 0.931 . S
C2881 C2880 1.370 . S
C2881 C2885 1.408 . S
C2882 C2880 1.363 . S
C2882 C2883 1.370 . S
C2882 C2886 1.524 . S
C2883 C2875 1.503 . S
C2883 C2882 1.370 . S
C2883 C2884 1.403 . S
C2884 C2883 1.403 . S
C2884 C2885 1.404 . S
C2884 C2887 1.539 . S
C2885 C2881 1.408 . S
C2885 C2884 1.404 . S
C2885 H2897 0.930 . S
C2886 C2882 1.524 . S
C2886 H2898 0.956 . S
C2886 H2899 0.961 . S
C2886 H2900 0.961 . S
C2887 C2884 1.539 . S
C2887 H2901 0.958 . S
C2887 H2902 0.961 . S
C2887 H2903 0.960 . S
H2888 C2872 0.931 . S
H2889 C2877 0.929 . S
H2890 C2878 0.960 . S
H2891 C2878 0.962 . S
H2892 C2878 0.960 . S
H2893 C2879 0.961 . S
H2894 C2879 0.961 . S
H2895 C2879 0.961 . S
H2896 C2880 0.931 . S
H2897 C2885 0.930 . S
H2898 C2886 0.956 . S
H2899 C2886 0.961 . S
H2900 C2886 0.961 . S
H2901 C2887 0.958 . S
H2902 C2887 0.961 . S
H2903 C2887 0.960 . S
C609 C330 1.420 . S
C601 C285 1.480 . S
C633 C261 1.380 . S
C641 C324 1.297 . S
C673 C292 1.435 . S
C665 C249 1.523 . S
C697 C273 1.668 . S
C705 C306 1.560 . S
C737 C344 1.957 . S
C729 C201 2.062 . S
C769 C431 1.457 . S
C761 C213 1.525 . S
C793 C225 2.104 . S
C801 C358 2.000 . S
C833 C426 1.052 . S
C825 C237 1.095 . S
C857 C153 2.016 . S
C865 C382 1.927 . S
C897 C437 1.507 . S
C889 C165 1.540 . S
C921 C177 1.977 . S
C929 C376 1.876 . S
C953 C189 1.291 . S
C961 C422 1.259 . S
C993 C478 1.239 . S
C985 C141 1.256 . S
C1017 C117 1.483 . S
C1025 C489 1.476 . S
C1049 C105 1.192 . S
C1057 C474 1.158 . S
C1089 C483 1.640 . S
C1081 C129 1.681 . S
C1113 C57 1.648 . S
C1121 C528 1.560 . S
C1145 C69 0.781 . S
C1153 C587 0.803 . S
C1177 C81 1.788 . S
C1185 C544 1.671 . S
C1209 C93 1.090 . S
C1217 C582 1.062 . S
C1249 C546 1.580 . S
C1241 C9 1.693 . S
C1281 C593 0.747 . S
C1273 C21 0.740 . S
C1305 C33 1.530 . S
C1313 C522 1.467 . S
C1345 C578 1.165 . S
C1337 C45 1.182 . S
C1377 C314 1.414 . S
C1369 C4 1.437 . S
C1401 C18 1.384 . S
C1409 C318 1.366 . S
C1433 C30 1.721 . S
C1441 C338 1.694 . S
C1465 C42 1.220 . S
C1473 C333 1.228 . S
C1497 C52 1.483 . S
C1505 C336 1.450 . S
C1537 C322 1.409 . S
C1529 C66 1.374 . S
C1561 C78 1.697 . S
C1569 C320 1.670 . S
C1601 C327 0.805 . S
C1593 C88 0.854 . S
C1633 C390 1.416 . S
C1625 C40 1.341 . S
C1657 C6 1.979 . S
C1665 C440 1.894 . S
C1697 C388 1.163 . S
C1689 C16 1.218 . S
C1729 C424 1.574 . S
C1721 C28 1.502 . S
C1753 C64 0.978 . S
C1761 C366 1.038 . S
C1793 C442 1.744 . S
C1785 C76 1.745 . S
C1825 C372 1.595 . S
C1817 C90 1.615 . S
C1857 C418 1.946 . S
C1849 C54 2.040 1_455 S
C1889 C410 1.497 . S
C1881 C102 1.505 . S
C1913 C114 1.338 . S
C1921 C434 1.333 . S
C1953 C370 1.009 . S
C1945 C100 1.019 . S
C1985 C396 1.246 . S
C1977 C124 1.129 . S
C2009 C138 1.272 . S
C2017 C374 1.320 . S
C2041 C136 1.187 . S
C2049 C428 1.276 . S
C2081 C385 1.256 . S
C2073 C112 1.169 . S
C2113 C379 1.612 . S
C2105 C126 1.575 . S
C2145 C462 1.763 . S
C2137 C148 1.704 . S
C2177 C494 1.509 . S
C2169 C162 1.537 . S
C2201 C174 2.013 . S
C2209 C448 1.957 . S
C2241 C492 1.389 . S
C2233 C186 1.425 . S
C2273 C480 1.725 . S
C2265 C196 1.678 . S
C2297 C210 1.559 . S
C2305 C476 1.551 . S
C2329 C222 2.026 . S
C2337 C486 2.015 . S
C2369 C470 0.960 . S
C2361 C232 0.968 . S
C2401 C535 1.295 . S
C2393 C184 1.235 . S
C2425 C150 1.710 . S
C2433 C596 1.671 . S
C2465 C530 1.109 . S
C2457 C160 1.016 . S
C2497 C580 1.464 . S
C2489 C172 1.395 . S
C2529 C526 0.954 . S
C2521 C208 0.832 . S
C2553 C220 1.422 . S
C2561 C598 1.497 . S
C2593 C541 1.481 . S
C2585 C234 1.445 . S
C2625 C574 1.666 . S
C2617 C198 1.744 . S
C2657 C566 1.666 . S
C2649 C246 1.717 . S
C2681 C258 1.814 . S
C2689 C590 1.719 . S
C2721 C532 1.209 . S
C2713 C244 1.229 . S
C2745 C268 1.540 . S
C2753 C552 1.565 . S
C2785 C514 1.612 . S
C2777 C282 1.650 . S
C2817 C584 1.410 . S
C2809 C280 1.330 . S
C2849 C500 1.247 . S
C2841 C256 1.213 . S
C2873 C270 1.591 . S
C2881 C538 1.519 . S
