# Generated by pormake.
# Topology anh, (6,3)-cn, num edge types: 1
# Building blocks:
#     Node 0, Type 0, BuildingBlock: NUHQIS_clean_sbu_0, # of connection points: 6
#     Node 1, Type 0, BuildingBlock: NUHQIS_clean_sbu_0, # of connection points: 6
#     Node 2, Type 0, BuildingBlock: NUHQIS_clean_sbu_0, # of connection points: 6
#     Node 3, Type 1, BuildingBlock: ESEHIV_clean_linker_0, # of connection points: 3
#     Node 4, Type 1, BuildingBlock: ESEHIV_clean_linker_0, # of connection points: 3
#     Node 5, Type 1, BuildingBlock: ESEHIV_clean_linker_0, # of connection points: 3
#     Node 6, Type 1, BuildingBlock: ESEHIV_clean_linker_0, # of connection points: 3
#     Node 7, Type 1, BuildingBlock: ESEHIV_clean_linker_0, # of connection points: 3
#     Node 8, Type 1, BuildingBlock: ESEHIV_clean_linker_0, # of connection points: 3
#     Edge 9, Type (0, 1), BuildingBlock: KIFKEQ_clean_linker_1, # of connection points: 2
#     Edge 10, Type (0, 1), BuildingBlock: KIFKEQ_clean_linker_1, # of connection points: 2
#     Edge 11, Type (0, 1), BuildingBlock: KIFKEQ_clean_linker_1, # of connection points: 2
#     Edge 12, Type (0, 1), BuildingBlock: KIFKEQ_clean_linker_1, # of connection points: 2
#     Edge 13, Type (0, 1), BuildingBlock: KIFKEQ_clean_linker_1, # of connection points: 2
#     Edge 14, Type (0, 1), BuildingBlock: KIFKEQ_clean_linker_1, # of connection points: 2
#     Edge 15, Type (0, 1), BuildingBlock: KIFKEQ_clean_linker_1, # of connection points: 2
#     Edge 16, Type (0, 1), BuildingBlock: KIFKEQ_clean_linker_1, # of connection points: 2
#     Edge 17, Type (0, 1), BuildingBlock: KIFKEQ_clean_linker_1, # of connection points: 2
#     Edge 18, Type (0, 1), BuildingBlock: KIFKEQ_clean_linker_1, # of connection points: 2
#     Edge 19, Type (0, 1), BuildingBlock: KIFKEQ_clean_linker_1, # of connection points: 2
#     Edge 20, Type (0, 1), BuildingBlock: KIFKEQ_clean_linker_1, # of connection points: 2
#     Edge 21, Type (0, 1), BuildingBlock: KIFKEQ_clean_linker_1, # of connection points: 2
#     Edge 22, Type (0, 1), BuildingBlock: KIFKEQ_clean_linker_1, # of connection points: 2
#     Edge 23, Type (0, 1), BuildingBlock: KIFKEQ_clean_linker_1, # of connection points: 2
#     Edge 24, Type (0, 1), BuildingBlock: KIFKEQ_clean_linker_1, # of connection points: 2
#     Edge 25, Type (0, 1), BuildingBlock: KIFKEQ_clean_linker_1, # of connection points: 2
#     Edge 26, Type (0, 1), BuildingBlock: KIFKEQ_clean_linker_1, # of connection points: 2
# Relax obj value: 0.298
# Max RMSD: 0.197
# Mean RMSD: 0.163
data_MOF--net-anh--node1-NUHQIS_clean_sbu_0--node2-ESEHIV_clean_linker_0--edge1-KIFKEQ_clean_linker_1
_symmetry_space_group_name_H-M    P1
_symmetry_Int_Tables_number       1
_symmetry_cell_setting            triclinic
loop_
_symmetry_equiv_pos_as_xyz
'x, y, z'
_cell_length_a     28.024433
_cell_length_b     27.842306
_cell_length_c     52.680034
_cell_angle_alpha  89.958763
_cell_angle_beta   92.182704
_cell_angle_gamma 120.26995
loop_
_atom_site_label
_atom_site_type_symbol
_atom_site_fract_x
_atom_site_fract_y
_atom_site_fract_z
_atom_type_partial_charge
Tb0 Tb 0.232 0.67189 0.15719 0.0
Eu1 Eu 0.16315 0.73766 0.15339 0.0
C2 C 0.19643 0.70338 0.20571 0.0
C3 C 1.09906 0.60295 0.15711 0.0
C4 C 0.32666 0.61001 0.16747 0.0
C5 C 0.35574 0.54945 0.18707 0.0
C6 C 0.31849 0.56871 0.18495 0.0
C7 C 0.37581 0.63622 0.15432 0.0
C8 C 0.41298 0.61688 0.15639 0.0
C9 C 0.40141 0.57094 0.17156 0.0
C10 C 0.27883 0.61498 0.15891 0.0
O11 O 0.19801 0.6611 0.11843 0.0
O12 O 0.19135 0.73919 0.11384 0.0
O13 O 0.25273 0.80594 0.16 0.0
O14 O 0.29994 0.75867 0.15539 0.0
C15 C 0.19567 0.69836 0.10402 0.0
O16 O 1.10132 0.75532 0.13666 0.0
O17 O 0.14748 0.79883 0.17121 0.0
O18 O 0.15562 0.70179 0.19213 0.0
O19 O 0.2392 0.707 0.19474 0.0
O20 O 1.14673 0.60761 0.16439 0.0
O21 O 1.0965 0.64616 0.1486 0.0
C22 C 0.2994 0.80545 0.1587 0.0
O23 O 0.24523 0.61277 0.1759 0.0
O24 O 0.28488 0.64929 0.14074 0.0
C25 C 1.05072 0.76118 0.16966 0.0
C26 C 0.94671 0.68038 0.18635 0.0
C27 C 0.951 0.70932 0.16377 0.0
C28 C 1.00263 0.74939 0.15552 0.0
C29 C 1.04593 0.7382 0.19391 0.0
C30 C 0.99429 0.69819 0.20221 0.0
C31 C 1.10328 0.78412 0.15667 0.0
H32 H 0.34636 0.51469 0.19926 0.0
H33 H 0.28084 0.5478 0.19531 0.0
H34 H 0.38327 0.66821 0.14071 0.0
H35 H 0.4477 0.63434 0.1441 0.0
H36 H 0.91544 0.69682 0.15092 0.0
H37 H 1.00526 0.76657 0.13681 0.0
H38 H 1.08233 0.74698 0.20544 0.0
H39 H 0.9923 0.67764 0.21994 0.0
Tb40 Tb 0.74245 0.20509 0.49847 0.0
Eu41 Eu 0.60966 0.12933 0.48859 0.0
C42 C 0.66451 0.15682 0.5427 0.0
C43 C 0.68579 1.07157 0.4945 0.0
C44 C 0.86813 0.32259 0.52343 0.0
C45 C 0.85472 0.39501 0.5415 0.0
C46 C 0.83401 0.33931 0.53471 0.0
C47 C 0.92426 0.36095 0.52119 0.0
C48 C 0.94513 0.41661 0.52812 0.0
C49 C 0.90987 0.43471 0.5371 0.0
C50 C 0.84307 0.26829 0.51038 0.0
O51 O 0.73053 0.18497 0.45751 0.0
O52 O 0.64126 0.16654 0.45088 0.0
O53 O 0.62398 0.21589 0.49805 0.0
O54 O 0.71786 0.26814 0.49354 0.0
C55 C 0.68918 0.17839 0.44218 0.0
O56 O 0.53491 1.0673 0.46774 0.0
O57 O 0.52862 1.10051 0.5039 0.0
O58 O 0.63401 0.11523 0.52728 0.0
O59 O 0.7029 0.20349 0.5336 0.0
O60 O 0.72795 0.11985 0.5026 0.0
O61 O 0.64005 1.06792 0.48477 0.0
C62 C 0.66986 0.26466 0.49697 0.0
O63 O 0.81009 0.22587 0.5238 0.0
O64 O 0.82123 0.26669 0.48787 0.0
C65 C 0.47841 1.00406 0.49751 0.0
C66 C 0.43627 0.89312 0.51188 0.0
C67 C 0.40188 0.90962 0.49908 0.0
C68 C 0.42296 0.9648 0.49182 0.0
C69 C 0.51177 0.98827 0.51157 0.0
C70 C 0.491 0.93328 0.51862 0.0
C71 C 0.50414 1.06004 0.48703 0.0
H72 H 0.82666 0.40763 0.54838 0.0
H73 H 0.79039 0.31012 0.53659 0.0
H74 H 0.951 0.34876 0.51241 0.0
H75 H 0.98767 0.44616 0.5241 0.0
H76 H 0.35968 0.8792 0.49324 0.0
H77 H 0.39677 0.97619 0.48088 0.0
H78 H 0.55476 1.01793 0.51611 0.0
H79 H 0.51835 0.92169 0.52838 0.0
Tb80 Tb 0.69632 0.66169 0.83915 0.0
Eu81 Eu 0.63156 0.53286 0.8203 0.0
C82 C 0.66635 0.5649 0.8782 0.0
C83 C 0.76959 0.60759 0.83089 0.0
C84 C 0.69147 0.78453 0.84792 0.0
C85 C 0.61792 0.79964 0.8616 0.0
C86 C 0.66352 0.7932 0.86743 0.0
C87 C 0.67585 0.7872 0.8225 0.0
C88 C 0.63035 0.79326 0.81674 0.0
C89 C 0.59954 0.79711 0.83619 0.0
C90 C 0.72505 0.75833 0.85372 0.0
O91 O 0.69794 0.66538 0.79739 0.0
O92 O 0.62637 0.57833 0.78637 0.0
O93 O 0.55755 0.54377 0.8244 0.0
O94 O 0.6077 0.63545 0.83755 0.0
C95 C 0.66215 0.6293 0.78038 0.0
O96 O 0.62716 0.47353 0.79201 0.0
O97 O 0.57836 0.44376 0.82553 0.0
O98 O 0.62672 0.53127 0.86225 0.0
O99 O 0.70295 0.61572 0.8718 0.0
O100 O 0.76892 0.6536 0.83556 0.0
O101 O 0.72351 0.55989 0.82598 0.0
C102 C 0.55995 0.58994 0.83201 0.0
O103 O 0.70133 0.71551 0.86838 0.0
O104 O 0.74662 0.74794 0.83442 0.0
C105 C 0.63121 0.40372 0.81446 0.0
C106 C 0.70348 0.36355 0.82568 0.0
C107 C 0.67041 0.34729 0.80298 0.0
C108 C 0.63457 0.36728 0.79741 0.0
C109 C 0.66412 0.41996 0.83719 0.0
C110 C 0.69947 0.39945 0.84292 0.0
C111 C 0.60065 0.43179 0.80704 0.0
H112 H 0.59517 0.80329 0.87693 0.0
H113 H 0.67433 0.79077 0.88716 0.0
H114 H 0.69619 0.78062 0.80692 0.0
H115 H 0.61809 0.79304 0.79696 0.0
H116 H 0.67174 0.31845 0.78962 0.0
H117 H 0.61043 0.35525 0.7796 0.0
H118 H 0.66358 0.44968 0.85023 0.0
H119 H 0.72426 0.41227 0.86055 0.0
H120 H 0.62558 0.13152 0.2452 0.0
H121 H 0.78625 0.27798 0.24801 0.0
H122 H 0.70237 0.20655 0.17549 0.0
C123 C 0.66048 0.16368 0.2355 0.0
C124 C 0.65794 0.16369 0.20877 0.0
C125 C 0.70673 0.20399 0.2499 0.0
C126 C 0.75096 0.24638 0.23696 0.0
C127 C 0.75076 0.24849 0.21009 0.0
C128 C 0.7036 0.2063 0.19605 0.0
H129 H 0.6831 0.74763 0.58592 0.0
H130 H 0.67235 0.58852 0.58497 0.0
H131 H 0.6796 0.66994 0.51437 0.0
C132 C 0.68217 0.71379 0.57534 0.0
C133 C 0.68367 0.71604 0.54857 0.0
C134 C 0.6776 0.668 0.58867 0.0
C135 C 0.67415 0.62318 0.57479 0.0
C136 C 0.67398 0.62234 0.54804 0.0
C137 C 0.67917 0.66951 0.53492 0.0
H138 H 1.10581 0.63439 0.90811 0.0
H139 H 0.25086 0.62077 0.91475 0.0
H140 H 0.17232 0.60696 0.84058 0.0
C141 C 1.13657 0.62837 0.89903 0.0
C142 C 1.13275 0.61975 0.87257 0.0
C143 C 0.17882 0.6288 0.91412 0.0
C144 C 0.21845 0.62047 0.90271 0.0
C145 C 0.21813 0.61385 0.87611 0.0
C146 C 0.1737 0.61196 0.86102 0.0
H147 H 1.08616 0.64969 0.39735 0.0
H148 H 0.22398 0.62165 0.39558 0.0
H149 H 0.16145 0.6346 0.46688 0.0
C150 C 1.11704 0.64305 0.40711 0.0
C151 C 1.11961 0.64287 0.43368 0.0
C152 C 0.15485 0.63573 0.39318 0.0
C153 C 0.19391 0.62599 0.40616 0.0
C154 C 0.19671 0.62539 0.4328 0.0
C155 C 0.15916 0.63374 0.44629 0.0
H156 H 0.66249 0.12999 0.7421 0.0
H157 H 0.50585 0.99192 0.71527 0.0
H158 H 0.55817 1.00576 0.79397 0.0
C159 C 0.6248 1.09145 0.74568 0.0
C160 C 0.61509 1.07088 0.77039 0.0
C161 C 0.58562 1.0637 0.72566 0.0
C162 C 0.53559 1.01507 0.73065 0.0
C163 C 0.52495 0.99476 0.75539 0.0
C164 C 0.56501 1.0228 0.77506 0.0
H165 H 0.5645 0.40473 0.04876 0.0
H166 H 0.71812 0.40641 0.06025 0.0
H167 H 0.61771 0.38833 0.12345 0.0
C168 C 0.59295 0.39863 0.06098 0.0
C169 C 0.58466 0.39315 0.08708 0.0
C170 C 0.64087 0.40327 0.05104 0.0
C171 C 0.67997 0.40036 0.06765 0.0
C172 C 0.67174 0.39406 0.09402 0.0
C173 C 0.62268 0.38825 0.10316 0.0
H174 H 0.5118 0.61152 0.16534 0.0
H175 H 0.35426 0.45848 0.16619 0.0
H176 H 0.55222 0.56145 0.14586 0.0
H177 H 0.39505 0.40868 0.14716 0.0
H178 H 0.51411 0.34143 0.12563 0.0
H179 H 0.4705 0.38121 0.1512 0.0
H180 H 0.5287 0.52009 0.10071 0.0
H181 H 0.57254 0.48129 0.07559 0.0
C182 C 0.48622 0.56706 0.16197 0.0
C183 C 0.42974 0.5392 0.16696 0.0
C184 C 0.50923 0.5385 0.15076 0.0
C185 C 0.47621 0.4816 0.14451 0.0
C186 C 0.42123 0.45258 0.15175 0.0
C187 C 0.39809 0.48118 0.16283 0.0
C188 C 0.51631 0.37977 0.11975 0.0
C189 C 0.54646 0.40813 0.09858 0.0
C190 C 0.49179 0.40261 0.13442 0.0
C191 C 0.49768 0.45433 0.12823 0.0
C192 C 0.5248 0.48079 0.10621 0.0
C193 C 0.54886 0.45792 0.09151 0.0
H194 H 1.00872 0.52444 0.55355 0.0
H195 H 0.85137 0.48062 0.51678 0.0
H196 H 1.05167 0.61148 0.53151 0.0
H197 H 0.89372 0.56903 0.49548 0.0
H198 H 1.00781 0.58559 0.42716 0.0
H199 H 0.94418 0.56644 0.4605 0.0
H200 H 1.07648 0.69372 0.50834 0.0
H201 H 1.14058 0.71211 0.47464 0.0
C202 C 0.98269 0.53485 0.54185 0.0
C203 C 0.92753 0.49455 0.53575 0.0
C204 C 1.0072 0.58528 0.52927 0.0
C205 C 0.97663 0.59565 0.51041 0.0
C206 C 0.91882 0.56107 0.50905 0.0
C207 C 0.89439 0.51032 0.52146 0.0
C208 C 1.02272 0.61138 0.44429 0.0
C209 C 1.0793 0.64849 0.44884 0.0
C210 C 0.98608 0.60073 0.46355 0.0
C211 C 1.00578 0.62685 0.48768 0.0
C212 C 1.06043 0.67155 0.49032 0.0
C213 C 1.09716 0.68195 0.47107 0.0
H214 H 0.51536 0.72769 0.80309 0.0
H215 H 0.56778 0.86784 0.85434 0.0
H216 H 0.44393 0.74347 0.78415 0.0
H217 H 0.49896 0.88572 0.83483 0.0
H218 H 0.44866 0.96599 0.79197 0.0
H219 H 0.41904 0.8814 0.81588 0.0
H220 H 0.46902 0.81448 0.75503 0.0
H221 H 0.49674 0.89761 0.73133 0.0
C222 C 0.51073 0.76123 0.81063 0.0
C223 C 0.54831 0.79799 0.82947 0.0
C224 C 0.46956 0.77003 0.79992 0.0
C225 C 0.46695 0.81724 0.80707 0.0
C226 C 0.49953 0.84907 0.82847 0.0
C227 C 0.53982 0.83941 0.83958 0.0
C228 C 0.44966 0.93144 0.78308 0.0
C229 C 0.47798 0.93918 0.76062 0.0
C230 C 0.43305 0.88305 0.79685 0.0
C231 C 0.44626 0.84342 0.78838 0.0
C232 C 0.46044 0.84514 0.76285 0.0
C233 C 0.47649 0.89321 0.74901 0.0
H234 H 0.83766 0.64883 0.17679 0.0
H235 H 0.9428 0.58471 0.20258 0.0
H236 H 0.76798 0.55576 0.16185 0.0
H237 H 0.87044 0.49112 0.18965 0.0
H238 H 0.66958 0.35212 0.14197 0.0
H239 H 0.73022 0.40972 0.17766 0.0
H240 H 0.84213 0.52709 0.12491 0.0
H241 H 0.78061 0.47315 0.08957 0.0
C242 C 0.84485 0.61466 0.18047 0.0
C243 C 0.89695 0.62479 0.18957 0.0
C244 C 0.80466 0.56129 0.17219 0.0
C245 C 0.81574 0.51748 0.1735 0.0
C246 C 0.86263 0.5252 0.18741 0.0
C247 C 0.90361 0.57887 0.19517 0.0
C248 C 0.70801 0.38942 0.13793 0.0
C249 C 0.71857 0.40949 0.1129 0.0
C250 C 0.74255 0.42209 0.15841 0.0
C251 C 0.78937 0.47334 0.15379 0.0
C252 C 0.80535 0.48788 0.12874 0.0
C253 C 0.7702 0.45636 0.1084 0.0
H254 H 0.49078 0.83943 0.49881 0.0
H255 H 0.33889 0.81187 0.5299 0.0
H256 H 0.44673 0.74106 0.48726 0.0
H257 H 0.29474 0.71412 0.51827 0.0
H258 H 0.30489 0.67922 0.41995 0.0
H259 H 0.38164 0.7189 0.45035 0.0
H260 H 0.275 0.61779 0.50911 0.0
H261 H 0.19744 0.57568 0.47801 0.0
C262 C 0.4488 0.81185 0.50435 0.0
C263 C 0.41732 0.83332 0.51431 0.0
C264 C 0.42366 0.7554 0.49781 0.0
C265 C 0.36676 0.72018 0.50094 0.0
C266 C 0.33851 0.74003 0.51523 0.0
C267 C 0.36349 0.79638 0.52163 0.0
C268 C 0.29802 0.66249 0.43888 0.0
C269 C 0.24434 0.62684 0.44695 0.0
C270 C 0.34257 0.68535 0.45653 0.0
C271 C 0.33359 0.67379 0.48249 0.0
C272 C 0.2826 0.62889 0.48936 0.0
C273 C 0.23807 0.6053 0.47157 0.0
H274 H 0.77735 0.35717 0.79588 0.0
H275 H 0.70756 0.31321 0.86965 0.0
H276 H 0.79352 0.28007 0.79645 0.0
H277 H 0.72596 0.23659 0.87093 0.0
H278 H 0.59294 1.09024 0.81794 0.0
H279 H 0.65514 0.1639 0.84663 0.0
H280 H 0.79238 0.19645 0.80044 0.0
H281 H 0.72858 0.12158 0.77119 0.0
C282 C 0.76809 0.33247 0.81283 0.0
C283 C 0.73772 0.33831 0.83187 0.0
C284 C 0.77793 0.28821 0.81341 0.0
C285 C 0.75597 0.24879 0.83277 0.0
C286 C 0.7398 0.26412 0.85492 0.0
C287 C 0.72924 0.30812 0.85423 0.0
C288 C 0.63665 0.11142 0.81435 0.0
C289 C 0.65544 0.10228 0.79158 0.0
C290 C 0.67303 0.15393 0.8311 0.0
C291 C 0.72872 0.1889 0.82505 0.0
C292 C 0.74926 0.1722 0.80498 0.0
C293 C 0.71265 0.12972 0.78807 0.0
H294 H 0.7754 1.06059 0.50924 0.0
H295 H 0.60114 0.962 0.48918 0.0
H296 H 0.778 0.97617 0.51843 0.0
H297 H 0.60303 0.87741 0.49932 0.0
H298 H 0.62564 0.72537 0.50646 0.0
H299 H 0.62786 0.80957 0.49076 0.0
H300 H 0.75491 0.90786 0.54807 0.0
H301 H 0.75404 0.82495 0.56275 0.0
C302 C 0.73748 1.02092 0.50673 0.0
C303 C 0.6881 1.0189 0.49841 0.0
C304 C 0.73878 0.97199 0.51227 0.0
C305 C 0.69059 0.91883 0.51002 0.0
C306 C 0.64138 0.91681 0.50112 0.0
C307 C 0.64021 0.96581 0.49537 0.0
C308 C 0.65489 0.76517 0.5153 0.0
C309 C 0.68947 0.76772 0.53603 0.0
C310 C 0.65568 0.81372 0.50652 0.0
C311 C 0.69137 0.8666 0.51807 0.0
C312 C 0.72718 0.8689 0.53821 0.0
C313 C 0.72635 0.82073 0.54689 0.0
H314 H 0.87409 0.69829 0.8282 0.0
H315 H 0.78945 0.52047 0.83682 0.0
H316 H 0.96265 0.70221 0.83223 0.0
H317 H 0.87822 0.52433 0.84231 0.0
H318 H 1.04728 0.53864 0.84194 0.0
H319 H 0.96095 0.53542 0.82815 0.0
H320 H 1.0243 0.70014 0.86067 0.0
H321 H 1.11014 0.70374 0.87297 0.0
C322 C 0.87428 0.65988 0.83112 0.0
C323 C 0.82412 0.60913 0.83233 0.0
C324 C 0.92553 0.66208 0.83366 0.0
C325 C 0.92885 0.61373 0.83805 0.0
C326 C 0.87838 0.56267 0.83869 0.0
C327 C 0.827 0.5604 0.83571 0.0
C328 C 1.04328 0.57482 0.84522 0.0
C329 C 1.08611 0.62166 0.85836 0.0
C330 C 0.99316 0.57269 0.83778 0.0
C331 C 0.98428 0.61728 0.84338 0.0
C332 C 1.02863 0.66502 0.85544 0.0
C333 C 1.07843 0.6672 0.86262 0.0
H334 H 0.31543 0.91128 0.16195 0.0
H335 H 0.40651 0.82424 0.16319 0.0
H336 H 0.40109 0.99906 0.16955 0.0
H337 H 0.49263 0.91238 0.17152 0.0
H338 H 0.64799 1.08663 0.17249 0.0
H339 H 0.56301 1.00186 0.15758 0.0
H340 H 0.46683 1.04996 0.20197 0.0
H341 H 0.55088 0.13424 0.21606 0.0
C342 C 0.35371 0.91064 0.16384 0.0
C343 C 0.3533 0.85991 0.16203 0.0
C344 C 0.40329 0.96141 0.1684 0.0
C345 C 0.45466 0.96371 0.1715 0.0
C346 C 0.45447 0.91308 0.16905 0.0
C347 C 0.40471 0.86212 0.16438 0.0
C348 C 0.60846 1.07971 0.17842 0.0
C349 C 0.60652 0.11776 0.19535 0.0
C350 C 0.55957 1.03051 0.17021 0.0
C351 C 0.5072 1.01803 0.17856 0.0
C352 C 0.50557 1.05758 0.19467 0.0
C353 C 0.55414 0.10628 0.20287 0.0
H354 H 0.75704 0.37321 0.49979 0.0
H355 H 0.5794 0.27772 0.50319 0.0
H356 H 0.75536 0.45837 0.5086 0.0
H357 H 0.57752 0.36296 0.51135 0.0
H358 H 0.59768 0.51376 0.55657 0.0
H359 H 0.59604 0.4299 0.54253 0.0
H360 H 0.73524 0.52836 0.4961 0.0
H361 H 0.73764 0.61321 0.51107 0.0
C362 C 0.71739 0.37019 0.50212 0.0
C363 C 0.66832 0.31775 0.5008 0.0
C364 C 0.71643 0.41954 0.50708 0.0
C365 C 0.66639 0.41861 0.51094 0.0
C366 C 0.61723 0.36617 0.50904 0.0
C367 C 0.61819 0.31682 0.50414 0.0
C368 C 0.62763 0.51769 0.54309 0.0
C369 C 0.66786 0.57083 0.53507 0.0
C370 C 0.62653 0.4691 0.53483 0.0
C371 C 0.66562 0.47123 0.5181 0.0
C372 C 0.70475 0.52434 0.50926 0.0
C373 C 0.70572 0.57328 0.51754 0.0
H374 H 0.44917 0.50559 0.8265 0.0
H375 H 0.55174 0.68024 0.84513 0.0
H376 H 0.36654 0.51155 0.83444 0.0
H377 H 0.47076 0.68688 0.85216 0.0
H378 H 0.32738 0.67941 0.8901 0.0
H379 H 0.40514 0.67079 0.87896 0.0
H380 H 0.30082 0.53907 0.82488 0.0
H381 H 0.22065 0.54541 0.83783 0.0
C382 C 0.45429 0.54544 0.832 0.0
C383 C 0.50783 0.5924 0.83521 0.0
C384 C 0.40659 0.54905 0.83644 0.0
C385 C 0.41081 0.59976 0.84422 0.0
C386 C 0.46455 0.64661 0.84677 0.0
C387 C 0.51174 0.64295 0.84248 0.0
C388 C 0.32046 0.64823 0.87587 0.0
C389 C 0.26684 0.61254 0.86528 0.0
C390 C 0.36593 0.64375 0.86906 0.0
C391 C 0.36064 0.60422 0.85075 0.0
C392 C 0.30723 0.56961 0.83932 0.0
C393 C 0.26107 0.57374 0.84646 0.0
H394 H 0.98954 0.57118 0.14424 0.0
H395 H 1.08972 0.50747 0.17664 0.0
H396 H 0.90634 0.48255 0.15184 0.0
H397 H 1.00773 0.42002 0.18447 0.0
H398 H 0.86025 0.29331 0.22479 0.0
H399 H 0.9397 0.37516 0.21029 0.0
H400 H 0.8383 0.39122 0.15075 0.0
H401 H 0.75654 0.31063 0.16728 0.0
C402 C 0.99398 0.53849 0.15314 0.0
C403 C 1.04697 0.54768 0.16031 0.0
C404 C 0.94579 0.48718 0.15772 0.0
C405 C 0.94861 0.44377 0.17041 0.0
C406 C 1.00212 0.45241 0.17612 0.0
C407 C 1.05001 0.50311 0.17129 0.0
C408 C 0.85424 0.31428 0.20873 0.0
C409 C 0.80088 0.29503 0.1977 0.0
C410 C 0.90087 0.36147 0.19986 0.0
C411 C 0.89721 0.39125 0.17889 0.0
C412 C 0.84392 0.37081 0.16711 0.0
C413 C 0.79663 0.32363 0.17638 0.0
H414 H 0.14888 0.73252 0.06673 0.0
H415 H 0.24184 0.64868 0.0783 0.0
H416 H 1.14395 0.71531 0.02101 0.0
H417 H 0.2402 0.63442 0.03277 0.0
H418 H 0.18281 0.56541 0.95277 0.0
H419 H 0.18595 0.58266 0.99834 0.0
H420 H 0.18946 0.73728 0.98338 0.0
H421 H 0.18287 0.71767 0.93788 0.0
C422 C 0.16899 0.71117 0.05943 0.0
C423 C 0.19539 0.69163 0.0761 0.0
C424 C 0.16649 0.70147 0.03315 0.0
C425 C 0.19138 0.673 0.02289 0.0
C426 C 0.21911 0.65501 0.03974 0.0
C427 C 0.22053 0.66365 0.06595 0.0
C428 C 0.18426 0.603 0.95936 0.0
C429 C 0.18249 0.64013 0.94188 0.0
C430 C 0.18646 0.61328 0.98552 0.0
C431 C 0.18822 0.66168 0.99487 0.0
C432 C 0.18705 0.69905 0.97716 0.0
C433 C 0.1837 0.68812 0.95102 0.0
H434 H 0.78421 0.23668 0.41565 0.0
H435 H 0.60751 0.12897 0.40519 0.0
H436 H 0.79191 0.24443 0.36926 0.0
H437 H 0.61549 0.13572 0.35921 0.0
H438 H 0.66471 0.1108 0.27948 0.0
H439 H 0.66272 0.10551 0.32558 0.0
H440 H 0.75399 0.28449 0.33198 0.0
H441 H 0.75352 0.29045 0.28566 0.0
C442 C 0.74716 0.2144 0.4035 0.0
C443 C 0.69525 0.18228 0.41416 0.0
C444 C 0.75154 0.21908 0.37698 0.0
C445 C 0.70429 0.1906 0.3606 0.0
C446 C 0.65266 0.1579 0.3713 0.0
C447 C 0.64812 0.15425 0.39768 0.0
C448 C 0.68369 0.1493 0.2905 0.0
C449 C 0.7086 0.20113 0.27845 0.0
C450 C 0.68293 0.1461 0.31703 0.0
C451 C 0.7081 0.19455 0.33242 0.0
C452 C 0.73463 0.24641 0.32061 0.0
C453 C 0.73449 0.2497 0.29398 0.0
H454 H 0.57732 0.58326 0.74487 0.0
H455 H 0.75032 0.70737 0.754 0.0
H456 H 0.58051 0.59701 0.69933 0.0
H457 H 0.75444 0.71972 0.70794 0.0
H458 H 0.73473 0.75388 0.62394 0.0
H459 H 0.72977 0.75033 0.67012 0.0
H460 H 0.6131 0.57379 0.66418 0.0
H461 H 0.61524 0.57808 0.61829 0.0
C462 C 0.61617 0.61371 0.73711 0.0
C463 C 0.66367 0.6439 0.75311 0.0
C464 C 0.61818 0.62125 0.71085 0.0
C465 C 0.66804 0.6586 0.69959 0.0
C466 C 0.71517 0.69071 0.71576 0.0
C467 C 0.7129 0.68365 0.74223 0.0
C468 C 0.70735 0.71444 0.63246 0.0
C469 C 0.67539 0.66628 0.61713 0.0
C470 C 0.70506 0.71227 0.65907 0.0
C471 C 0.67084 0.66183 0.67117 0.0
C472 C 0.63919 0.61375 0.65578 0.0
C473 C 0.64115 0.616 0.62927 0.0
H474 H 0.72917 0.22448 0.58272 0.0
H475 H 0.57413 1.07416 0.56414 0.0
H476 H 0.71035 0.20906 0.62805 0.0
H477 H 0.55584 1.05898 0.60888 0.0
H478 H 0.51577 1.06977 0.68975 0.0
H479 H 0.53563 1.10018 0.64598 0.0
H480 H 0.70371 0.13614 0.65883 0.0
H481 H 0.68385 0.10508 0.70238 0.0
C482 C 0.69107 0.18854 0.58829 0.0
C483 C 0.65336 0.15036 0.56996 0.0
C484 C 0.68039 0.17966 0.61413 0.0
C485 C 0.63154 0.13294 0.62189 0.0
C486 C 0.59341 1.09573 0.60346 0.0
C487 C 0.60425 0.10423 0.57781 0.0
C488 C 0.5569 1.08408 0.68321 0.0
C489 C 0.5981 1.08468 0.69947 0.0
C490 C 0.56834 1.10177 0.65824 0.0
C491 C 0.62122 0.12052 0.64908 0.0
C492 C 0.66286 0.12272 0.66552 0.0
C493 C 0.65138 0.10479 0.69044 0.0
H494 H 0.72004 0.62088 0.92309 0.0
H495 H 0.62321 0.45623 0.88926 0.0
H496 H 0.72035 0.57937 0.96419 0.0
H497 H 0.62621 0.41541 0.92925 0.0
H498 H 0.57113 0.36036 0.00932 0.0
H499 H 0.58289 0.40076 0.96763 0.0
H500 H 0.75016 0.52689 0.99012 0.0
H501 H 0.737 0.48756 0.03258 0.0
C502 C 0.69955 0.57604 0.92433 0.0
C503 C 0.67082 0.54196 0.90301 0.0
C504 C 0.70006 0.55216 0.9478 0.0
C505 C 0.67256 0.49383 0.9502 0.0
C506 C 0.64642 0.4603 0.92844 0.0
C507 C 0.64501 0.48392 0.90534 0.0
C508 C 0.61072 0.3962 0.00525 0.0
C509 C 0.65304 0.42068 0.02426 0.0
C510 C 0.6177 0.41937 0.98124 0.0
C511 C 0.66754 0.46741 0.97539 0.0
C512 C 0.71099 0.49041 0.99403 0.0
C513 C 0.70382 0.46726 0.01823 0.0
H514 H 0.26404 0.68759 0.23923 0.0
H515 H 1.11651 0.70053 0.23459 0.0
H516 H 0.25185 0.66954 0.28459 0.0
H517 H 1.10451 0.6824 0.27975 0.0
H518 H 1.14423 0.71375 0.36621 0.0
H519 H 0.1541 0.73031 0.32082 0.0
H520 H 0.18242 0.59263 0.31181 0.0
H521 H 0.17138 0.57509 0.35725 0.0
C522 C 0.22929 0.68697 0.24788 0.0
C523 C 0.19137 0.69572 0.23335 0.0
C524 C 0.22209 0.67617 0.27377 0.0
C525 C 0.17715 0.67443 0.28557 0.0
C526 C 1.13975 0.68397 0.27113 0.0
C527 C 1.14665 0.69429 0.24526 0.0
C528 C 0.15141 0.68623 0.3545 0.0
C529 C 0.15687 0.64298 0.36531 0.0
C530 C 0.15737 0.69597 0.32855 0.0
C531 C 0.16933 0.66294 0.31292 0.0
C532 C 0.17404 0.61921 0.32357 0.0
C533 C 0.16765 0.60916 0.34953 0.0
loop_
_geom_bond_atom_site_label_1
_geom_bond_atom_site_label_2
_geom_bond_distance
_geom_bond_site_symmetry_2
_ccdc_geom_bond_type
Tb0 C10 2.825 . S
Tb0 O11 2.347 . S
Tb0 O14 2.366 . S
Tb0 O19 2.418 . S
Tb0 O20 2.384 1_455 S
Tb0 O23 2.479 . S
Tb0 O24 2.471 . S
Eu1 O12 2.418 . S
Eu1 O13 2.384 1_655 S
Eu1 O16 2.479 . S
Eu1 O17 2.471 . S
Eu1 O18 2.347 1_655 S
Eu1 O21 2.366 . S
Eu1 C31 2.825 . S
C2 O18 1.259 . S
C2 O19 1.265 . S
C3 O20 1.255 . S
C3 O21 1.265 . S
C4 C6 1.380 . S
C4 C7 1.374 . S
C4 C10 1.507 . S
C5 C6 1.384 . S
C5 C9 1.387 . S
C5 H32 0.930 . S
C6 C4 1.380 . S
C6 C5 1.384 . S
C6 H33 0.931 . S
C7 C4 1.374 . S
C7 C8 1.390 . S
C7 H34 0.930 . S
C8 C7 1.390 . S
C8 C9 1.391 . S
C8 H35 0.930 . S
C9 C5 1.387 . S
C9 C8 1.391 . S
C10 Tb0 2.825 . S
C10 C4 1.507 . S
C10 O23 1.238 . S
C10 O24 1.247 . S
O11 Tb0 2.347 . S
O11 C15 1.259 . S
O12 Eu1 2.418 . S
O12 C15 1.265 1_655 S
O13 Eu1 2.384 1_455 S
O13 C22 1.255 . S
O14 Tb0 2.366 . S
O14 C22 1.265 . S
C15 O11 1.259 . S
C15 O12 1.265 1_455 S
O16 Eu1 2.479 . S
O16 C31 1.238 . S
O17 Eu1 2.471 . S
O17 C31 1.247 . S
O18 Eu1 2.347 1_455 S
O18 C2 1.259 . S
O19 Tb0 2.418 . S
O19 C2 1.265 . S
O20 Tb0 2.384 1_655 S
O20 C3 1.255 . S
O21 Eu1 2.366 . S
O21 C3 1.265 . S
C22 O13 1.255 . S
C22 O14 1.265 . S
O23 Tb0 2.479 . S
O23 C10 1.238 . S
O24 Tb0 2.471 . S
O24 C10 1.247 . S
C25 C28 1.380 . S
C25 C29 1.374 . S
C25 C31 1.507 . S
C26 C27 1.387 . S
C26 C30 1.391 . S
C27 C26 1.387 . S
C27 C28 1.384 . S
C27 H36 0.930 . S
C28 C25 1.380 . S
C28 C27 1.384 . S
C28 H37 0.931 . S
C29 C25 1.374 . S
C29 C30 1.390 . S
C29 H38 0.930 . S
C30 C26 1.391 . S
C30 C29 1.390 . S
C30 H39 0.930 . S
C31 Eu1 2.825 . S
C31 O16 1.238 . S
C31 O17 1.247 . S
C31 C25 1.507 . S
H32 C5 0.930 . S
H33 C6 0.931 . S
H34 C7 0.930 . S
H35 C8 0.930 . S
H36 C27 0.930 . S
H37 C28 0.931 . S
H38 C29 0.930 . S
H39 C30 0.930 . S
Tb40 C50 2.825 . S
Tb40 O51 2.347 . S
Tb40 O54 2.366 . S
Tb40 O59 2.418 . S
Tb40 O60 2.384 1_545 S
Tb40 O63 2.479 . S
Tb40 O64 2.471 . S
Eu41 O52 2.418 . S
Eu41 O53 2.384 . S
Eu41 O56 2.479 1_545 S
Eu41 O57 2.471 1_545 S
Eu41 O58 2.347 . S
Eu41 O61 2.366 1_545 S
Eu41 C71 2.825 1_545 S
C42 O58 1.259 . S
C42 O59 1.265 . S
C43 O60 1.255 . S
C43 O61 1.265 . S
C44 C46 1.380 . S
C44 C47 1.374 . S
C44 C50 1.507 . S
C45 C46 1.384 . S
C45 C49 1.387 . S
C45 H72 0.930 . S
C46 C44 1.380 . S
C46 C45 1.384 . S
C46 H73 0.931 . S
C47 C44 1.374 . S
C47 C48 1.390 . S
C47 H74 0.930 . S
C48 C47 1.390 . S
C48 C49 1.391 . S
C48 H75 0.930 . S
C49 C45 1.387 . S
C49 C48 1.391 . S
C50 Tb40 2.825 . S
C50 C44 1.507 . S
C50 O63 1.238 . S
C50 O64 1.247 . S
O51 Tb40 2.347 . S
O51 C55 1.259 . S
O52 Eu41 2.418 . S
O52 C55 1.265 . S
O53 Eu41 2.384 . S
O53 C62 1.255 . S
O54 Tb40 2.366 . S
O54 C62 1.265 . S
C55 O51 1.259 . S
C55 O52 1.265 . S
O56 Eu41 2.479 1_565 S
O56 C71 1.238 . S
O57 Eu41 2.471 1_565 S
O57 C71 1.247 . S
O58 Eu41 2.347 . S
O58 C42 1.259 . S
O59 Tb40 2.418 . S
O59 C42 1.265 . S
O60 Tb40 2.384 1_565 S
O60 C43 1.255 . S
O61 Eu41 2.366 1_565 S
O61 C43 1.265 . S
C62 O53 1.255 . S
C62 O54 1.265 . S
O63 Tb40 2.479 . S
O63 C50 1.238 . S
O64 Tb40 2.471 . S
O64 C50 1.247 . S
C65 C68 1.380 . S
C65 C69 1.374 . S
C65 C71 1.507 . S
C66 C67 1.387 . S
C66 C70 1.391 . S
C67 C66 1.387 . S
C67 C68 1.384 . S
C67 H76 0.930 . S
C68 C65 1.380 . S
C68 C67 1.384 . S
C68 H77 0.931 . S
C69 C65 1.374 . S
C69 C70 1.390 . S
C69 H78 0.930 . S
C70 C66 1.391 . S
C70 C69 1.390 . S
C70 H79 0.930 . S
C71 Eu41 2.825 1_565 S
C71 O56 1.238 . S
C71 O57 1.247 . S
C71 C65 1.507 . S
H72 C45 0.930 . S
H73 C46 0.931 . S
H74 C47 0.930 . S
H75 C48 0.930 . S
H76 C67 0.930 . S
H77 C68 0.931 . S
H78 C69 0.930 . S
H79 C70 0.930 . S
Tb80 C90 2.825 . S
Tb80 O91 2.347 . S
Tb80 O94 2.366 . S
Tb80 O99 2.418 . S
Tb80 O100 2.384 . S
Tb80 O103 2.479 . S
Tb80 O104 2.471 . S
Eu81 O92 2.418 . S
Eu81 O93 2.384 . S
Eu81 O96 2.479 . S
Eu81 O97 2.471 . S
Eu81 O98 2.347 . S
Eu81 O101 2.366 . S
Eu81 C111 2.825 . S
C82 O98 1.259 . S
C82 O99 1.265 . S
C83 O100 1.255 . S
C83 O101 1.265 . S
C84 C86 1.380 . S
C84 C87 1.374 . S
C84 C90 1.507 . S
C85 C86 1.384 . S
C85 C89 1.387 . S
C85 H112 0.930 . S
C86 C84 1.380 . S
C86 C85 1.384 . S
C86 H113 0.931 . S
C87 C84 1.374 . S
C87 C88 1.390 . S
C87 H114 0.930 . S
C88 C87 1.390 . S
C88 C89 1.391 . S
C88 H115 0.930 . S
C89 C85 1.387 . S
C89 C88 1.391 . S
C90 Tb80 2.825 . S
C90 C84 1.507 . S
C90 O103 1.238 . S
C90 O104 1.247 . S
O91 Tb80 2.347 . S
O91 C95 1.259 . S
O92 Eu81 2.418 . S
O92 C95 1.265 . S
O93 Eu81 2.384 . S
O93 C102 1.255 . S
O94 Tb80 2.366 . S
O94 C102 1.265 . S
C95 O91 1.259 . S
C95 O92 1.265 . S
O96 Eu81 2.479 . S
O96 C111 1.238 . S
O97 Eu81 2.471 . S
O97 C111 1.247 . S
O98 Eu81 2.347 . S
O98 C82 1.259 . S
O99 Tb80 2.418 . S
O99 C82 1.265 . S
O100 Tb80 2.384 . S
O100 C83 1.255 . S
O101 Eu81 2.366 . S
O101 C83 1.265 . S
C102 O93 1.255 . S
C102 O94 1.265 . S
O103 Tb80 2.479 . S
O103 C90 1.238 . S
O104 Tb80 2.471 . S
O104 C90 1.247 . S
C105 C108 1.380 . S
C105 C109 1.374 . S
C105 C111 1.507 . S
C106 C107 1.387 . S
C106 C110 1.391 . S
C107 C106 1.387 . S
C107 C108 1.384 . S
C107 H116 0.930 . S
C108 C105 1.380 . S
C108 C107 1.384 . S
C108 H117 0.931 . S
C109 C105 1.374 . S
C109 C110 1.390 . S
C109 H118 0.930 . S
C110 C106 1.391 . S
C110 C109 1.390 . S
C110 H119 0.930 . S
C111 Eu81 2.825 . S
C111 O96 1.238 . S
C111 O97 1.247 . S
C111 C105 1.507 . S
H112 C85 0.930 . S
H113 C86 0.931 . S
H114 C87 0.930 . S
H115 C88 0.930 . S
H116 C107 0.930 . S
H117 C108 0.931 . S
H118 C109 0.930 . S
H119 C110 0.930 . S
H120 C123 0.931 . S
H121 C126 0.928 . S
H122 C128 0.930 . S
C123 H120 0.931 . S
C123 C124 1.413 . S
C123 C125 1.360 1_565 S
C124 C123 1.413 . S
C124 C128 1.429 1_565 S
C125 C123 1.360 1_545 S
C125 C126 1.372 . S
C126 H121 0.928 . S
C126 C125 1.372 . S
C126 C127 1.404 . S
C127 C126 1.404 . S
C127 C128 1.391 . S
C128 H122 0.930 . S
C128 C124 1.429 1_545 S
C128 C127 1.391 . S
H129 C132 0.931 . S
H130 C135 0.928 . S
H131 C137 0.930 . S
C132 H129 0.931 . S
C132 C133 1.413 . S
C132 C134 1.360 . S
C133 C132 1.413 . S
C133 C137 1.429 . S
C134 C132 1.360 . S
C134 C135 1.372 . S
C135 H130 0.928 . S
C135 C134 1.372 . S
C135 C136 1.404 . S
C136 C135 1.404 . S
C136 C137 1.391 . S
C137 H131 0.930 . S
C137 C133 1.429 . S
C137 C136 1.391 . S
H138 C141 0.931 . S
H139 C144 0.928 . S
H140 C146 0.930 . S
C141 H138 0.931 . S
C141 C142 1.413 . S
C141 C143 1.360 1_655 S
C142 C141 1.413 . S
C142 C146 1.429 1_655 S
C143 C141 1.360 1_455 S
C143 C144 1.372 . S
C144 H139 0.928 . S
C144 C143 1.372 . S
C144 C145 1.404 . S
C145 C144 1.404 . S
C145 C146 1.391 . S
C146 H140 0.930 . S
C146 C142 1.429 1_455 S
C146 C145 1.391 . S
H147 C150 0.931 . S
H148 C153 0.928 . S
H149 C155 0.930 . S
C150 H147 0.931 . S
C150 C151 1.413 . S
C150 C152 1.360 1_655 S
C151 C150 1.413 . S
C151 C155 1.429 1_655 S
C152 C150 1.360 1_455 S
C152 C153 1.372 . S
C153 H148 0.928 . S
C153 C152 1.372 . S
C153 C154 1.404 . S
C154 C153 1.404 . S
C154 C155 1.391 . S
C155 H149 0.930 . S
C155 C151 1.429 1_455 S
C155 C154 1.391 . S
H156 C159 0.931 . S
H157 C162 0.928 . S
H158 C164 0.930 . S
C159 H156 0.931 . S
C159 C160 1.413 . S
C159 C161 1.360 . S
C160 C159 1.413 . S
C160 C164 1.419 1_545 S
C161 C159 1.360 . S
C161 C162 1.372 1_545 S
C162 H157 0.928 . S
C162 C161 1.372 1_565 S
C162 C163 1.404 . S
C163 C162 1.404 . S
C163 C164 1.400 . S
C164 H158 0.930 . S
C164 C160 1.419 1_565 S
C164 C163 1.400 . S
H165 C168 0.931 . S
H166 C171 0.928 . S
H167 C173 0.930 . S
C168 H165 0.931 . S
C168 C169 1.413 . S
C168 C170 1.360 . S
C169 C168 1.413 . S
C169 C173 1.429 . S
C170 C168 1.360 . S
C170 C171 1.372 . S
C171 H166 0.928 . S
C171 C170 1.372 . S
C171 C172 1.404 . S
C172 C171 1.404 . S
C172 C173 1.391 . S
C173 H167 0.930 . S
C173 C169 1.429 . S
C173 C172 1.391 . S
H174 C182 0.950 . S
H175 C187 0.950 . S
H176 C184 0.950 . S
H177 C186 0.950 . S
H178 C188 0.950 . S
H179 C190 0.950 . S
H180 C192 0.950 . S
H181 C193 0.950 . S
C182 H174 0.950 . S
C182 C183 1.386 . S
C182 C184 1.391 . S
C183 C182 1.386 . S
C183 C187 1.393 . S
C184 H176 0.950 . S
C184 C182 1.391 . S
C184 C185 1.400 . S
C185 C184 1.400 . S
C185 C186 1.398 . S
C185 C191 1.491 . S
C186 H177 0.950 . S
C186 C185 1.398 . S
C186 C187 1.391 . S
C187 H175 0.950 . S
C187 C183 1.393 . S
C187 C186 1.391 . S
C188 H178 0.950 . S
C188 C189 1.386 . S
C188 C190 1.391 . S
C189 C188 1.386 . S
C189 C193 1.393 . S
C190 H179 0.950 . S
C190 C188 1.391 . S
C190 C191 1.400 . S
C191 C185 1.491 . S
C191 C190 1.400 . S
C191 C192 1.398 . S
C192 H180 0.950 . S
C192 C191 1.398 . S
C192 C193 1.391 . S
C193 H181 0.950 . S
C193 C189 1.393 . S
C193 C192 1.391 . S
H194 C202 0.950 . S
H195 C207 0.950 . S
H196 C204 0.950 . S
H197 C206 0.950 . S
H198 C208 0.950 . S
H199 C210 0.950 . S
H200 C212 0.950 . S
H201 C213 0.950 1_455 S
C202 H194 0.950 . S
C202 C203 1.386 . S
C202 C204 1.391 . S
C203 C202 1.386 . S
C203 C207 1.393 . S
C204 H196 0.950 . S
C204 C202 1.391 . S
C204 C205 1.400 . S
C205 C204 1.400 . S
C205 C206 1.398 . S
C205 C211 1.491 . S
C206 H197 0.950 . S
C206 C205 1.398 . S
C206 C207 1.391 . S
C207 H195 0.950 . S
C207 C203 1.393 . S
C207 C206 1.391 . S
C208 H198 0.950 . S
C208 C209 1.386 . S
C208 C210 1.391 . S
C209 C208 1.386 . S
C209 C213 1.393 . S
C210 H199 0.950 . S
C210 C208 1.391 . S
C210 C211 1.400 . S
C211 C205 1.491 . S
C211 C210 1.400 . S
C211 C212 1.398 . S
C212 H200 0.950 . S
C212 C211 1.398 . S
C212 C213 1.391 . S
C213 H201 0.950 1_655 S
C213 C209 1.393 . S
C213 C212 1.391 . S
H214 C222 0.950 . S
H215 C227 0.950 . S
H216 C224 0.950 . S
H217 C226 0.950 . S
H218 C228 0.950 . S
H219 C230 0.950 . S
H220 C232 0.950 . S
H221 C233 0.950 . S
C222 H214 0.950 . S
C222 C223 1.386 . S
C222 C224 1.391 . S
C223 C222 1.386 . S
C223 C227 1.393 . S
C224 H216 0.950 . S
C224 C222 1.391 . S
C224 C225 1.400 . S
C225 C224 1.400 . S
C225 C226 1.398 . S
C225 C231 1.491 . S
C226 H217 0.950 . S
C226 C225 1.398 . S
C226 C227 1.391 . S
C227 H215 0.950 . S
C227 C223 1.393 . S
C227 C226 1.391 . S
C228 H218 0.950 . S
C228 C229 1.386 . S
C228 C230 1.391 . S
C229 C228 1.386 . S
C229 C233 1.393 . S
C230 H219 0.950 . S
C230 C228 1.391 . S
C230 C231 1.400 . S
C231 C225 1.491 . S
C231 C230 1.400 . S
C231 C232 1.398 . S
C232 H220 0.950 . S
C232 C231 1.398 . S
C232 C233 1.391 . S
C233 H221 0.950 . S
C233 C229 1.393 . S
C233 C232 1.391 . S
H234 C242 0.950 . S
H235 C247 0.950 . S
H236 C244 0.950 . S
H237 C246 0.950 . S
H238 C248 0.950 . S
H239 C250 0.950 . S
H240 C252 0.950 . S
H241 C253 0.950 . S
C242 H234 0.950 . S
C242 C243 1.386 . S
C242 C244 1.391 . S
C243 C242 1.386 . S
C243 C247 1.393 . S
C244 H236 0.950 . S
C244 C242 1.391 . S
C244 C245 1.400 . S
C245 C244 1.400 . S
C245 C246 1.398 . S
C245 C251 1.491 . S
C246 H237 0.950 . S
C246 C245 1.398 . S
C246 C247 1.391 . S
C247 H235 0.950 . S
C247 C243 1.393 . S
C247 C246 1.391 . S
C248 H238 0.950 . S
C248 C249 1.386 . S
C248 C250 1.391 . S
C249 C248 1.386 . S
C249 C253 1.393 . S
C250 H239 0.950 . S
C250 C248 1.391 . S
C250 C251 1.400 . S
C251 C245 1.491 . S
C251 C250 1.400 . S
C251 C252 1.398 . S
C252 H240 0.950 . S
C252 C251 1.398 . S
C252 C253 1.391 . S
C253 H241 0.950 . S
C253 C249 1.393 . S
C253 C252 1.391 . S
H254 C262 0.950 . S
H255 C267 0.950 . S
H256 C264 0.950 . S
H257 C266 0.950 . S
H258 C268 0.950 . S
H259 C270 0.950 . S
H260 C272 0.950 . S
H261 C273 0.950 . S
C262 H254 0.950 . S
C262 C263 1.386 . S
C262 C264 1.391 . S
C263 C262 1.386 . S
C263 C267 1.393 . S
C264 H256 0.950 . S
C264 C262 1.391 . S
C264 C265 1.400 . S
C265 C264 1.400 . S
C265 C266 1.398 . S
C265 C271 1.491 . S
C266 H257 0.950 . S
C266 C265 1.398 . S
C266 C267 1.391 . S
C267 H255 0.950 . S
C267 C263 1.393 . S
C267 C266 1.391 . S
C268 H258 0.950 . S
C268 C269 1.386 . S
C268 C270 1.391 . S
C269 C268 1.386 . S
C269 C273 1.393 . S
C270 H259 0.950 . S
C270 C268 1.391 . S
C270 C271 1.400 . S
C271 C265 1.491 . S
C271 C270 1.400 . S
C271 C272 1.398 . S
C272 H260 0.950 . S
C272 C271 1.398 . S
C272 C273 1.391 . S
C273 H261 0.950 . S
C273 C269 1.393 . S
C273 C272 1.391 . S
H274 C282 0.950 . S
H275 C287 0.950 . S
H276 C284 0.950 . S
H277 C286 0.950 . S
H278 C288 0.950 . S
H279 C290 0.950 . S
H280 C292 0.950 . S
H281 C293 0.950 . S
C282 H274 0.950 . S
C282 C283 1.386 . S
C282 C284 1.391 . S
C283 C282 1.386 . S
C283 C287 1.393 . S
C284 H276 0.950 . S
C284 C282 1.391 . S
C284 C285 1.400 . S
C285 C284 1.400 . S
C285 C286 1.398 . S
C285 C291 1.491 . S
C286 H277 0.950 . S
C286 C285 1.398 . S
C286 C287 1.391 . S
C287 H275 0.950 . S
C287 C283 1.393 . S
C287 C286 1.391 . S
C288 H278 0.950 . S
C288 C289 1.386 . S
C288 C290 1.391 . S
C289 C288 1.386 . S
C289 C293 1.393 . S
C290 H279 0.950 . S
C290 C288 1.391 . S
C290 C291 1.400 . S
C291 C285 1.491 . S
C291 C290 1.400 . S
C291 C292 1.398 . S
C292 H280 0.950 . S
C292 C291 1.398 . S
C292 C293 1.391 . S
C293 H281 0.950 . S
C293 C289 1.393 . S
C293 C292 1.391 . S
H294 C302 0.950 . S
H295 C307 0.950 . S
H296 C304 0.950 . S
H297 C306 0.950 . S
H298 C308 0.950 . S
H299 C310 0.950 . S
H300 C312 0.950 . S
H301 C313 0.950 . S
C302 H294 0.950 . S
C302 C303 1.386 . S
C302 C304 1.391 . S
C303 C302 1.386 . S
C303 C307 1.393 . S
C304 H296 0.950 . S
C304 C302 1.391 . S
C304 C305 1.400 . S
C305 C304 1.400 . S
C305 C306 1.398 . S
C305 C311 1.491 . S
C306 H297 0.950 . S
C306 C305 1.398 . S
C306 C307 1.391 . S
C307 H295 0.950 . S
C307 C303 1.393 . S
C307 C306 1.391 . S
C308 H298 0.950 . S
C308 C309 1.386 . S
C308 C310 1.391 . S
C309 C308 1.386 . S
C309 C313 1.393 . S
C310 H299 0.950 . S
C310 C308 1.391 . S
C310 C311 1.400 . S
C311 C305 1.491 . S
C311 C310 1.400 . S
C311 C312 1.398 . S
C312 H300 0.950 . S
C312 C311 1.398 . S
C312 C313 1.391 . S
C313 H301 0.950 . S
C313 C309 1.393 . S
C313 C312 1.391 . S
H314 C322 0.950 . S
H315 C327 0.950 . S
H316 C324 0.950 . S
H317 C326 0.950 . S
H318 C328 0.950 . S
H319 C330 0.950 . S
H320 C332 0.950 . S
H321 C333 0.950 . S
C322 H314 0.950 . S
C322 C323 1.386 . S
C322 C324 1.391 . S
C323 C322 1.386 . S
C323 C327 1.393 . S
C324 H316 0.950 . S
C324 C322 1.391 . S
C324 C325 1.400 . S
C325 C324 1.400 . S
C325 C326 1.398 . S
C325 C331 1.491 . S
C326 H317 0.950 . S
C326 C325 1.398 . S
C326 C327 1.391 . S
C327 H315 0.950 . S
C327 C323 1.393 . S
C327 C326 1.391 . S
C328 H318 0.950 . S
C328 C329 1.386 . S
C328 C330 1.391 . S
C329 C328 1.386 . S
C329 C333 1.393 . S
C330 H319 0.950 . S
C330 C328 1.391 . S
C330 C331 1.400 . S
C331 C325 1.491 . S
C331 C330 1.400 . S
C331 C332 1.398 . S
C332 H320 0.950 . S
C332 C331 1.398 . S
C332 C333 1.391 . S
C333 H321 0.950 . S
C333 C329 1.393 . S
C333 C332 1.391 . S
H334 C342 0.950 . S
H335 C347 0.950 . S
H336 C344 0.950 . S
H337 C346 0.950 . S
H338 C348 0.950 . S
H339 C350 0.950 . S
H340 C352 0.950 . S
H341 C353 0.950 . S
C342 H334 0.950 . S
C342 C343 1.386 . S
C342 C344 1.391 . S
C343 C342 1.386 . S
C343 C347 1.393 . S
C344 H336 0.950 . S
C344 C342 1.391 . S
C344 C345 1.400 . S
C345 C344 1.400 . S
C345 C346 1.398 . S
C345 C351 1.491 . S
C346 H337 0.950 . S
C346 C345 1.398 . S
C346 C347 1.391 . S
C347 H335 0.950 . S
C347 C343 1.393 . S
C347 C346 1.391 . S
C348 H338 0.950 . S
C348 C349 1.386 . S
C348 C350 1.391 . S
C349 C348 1.386 . S
C349 C353 1.393 . S
C350 H339 0.950 . S
C350 C348 1.391 . S
C350 C351 1.400 . S
C351 C345 1.491 . S
C351 C350 1.400 . S
C351 C352 1.398 . S
C352 H340 0.950 . S
C352 C351 1.398 . S
C352 C353 1.391 . S
C353 H341 0.950 . S
C353 C349 1.393 . S
C353 C352 1.391 . S
H354 C362 0.950 . S
H355 C367 0.950 . S
H356 C364 0.950 . S
H357 C366 0.950 . S
H358 C368 0.950 . S
H359 C370 0.950 . S
H360 C372 0.950 . S
H361 C373 0.950 . S
C362 H354 0.950 . S
C362 C363 1.386 . S
C362 C364 1.391 . S
C363 C362 1.386 . S
C363 C367 1.393 . S
C364 H356 0.950 . S
C364 C362 1.391 . S
C364 C365 1.400 . S
C365 C364 1.400 . S
C365 C366 1.398 . S
C365 C371 1.491 . S
C366 H357 0.950 . S
C366 C365 1.398 . S
C366 C367 1.391 . S
C367 H355 0.950 . S
C367 C363 1.393 . S
C367 C366 1.391 . S
C368 H358 0.950 . S
C368 C369 1.386 . S
C368 C370 1.391 . S
C369 C368 1.386 . S
C369 C373 1.393 . S
C370 H359 0.950 . S
C370 C368 1.391 . S
C370 C371 1.400 . S
C371 C365 1.491 . S
C371 C370 1.400 . S
C371 C372 1.398 . S
C372 H360 0.950 . S
C372 C371 1.398 . S
C372 C373 1.391 . S
C373 H361 0.950 . S
C373 C369 1.393 . S
C373 C372 1.391 . S
H374 C382 0.950 . S
H375 C387 0.950 . S
H376 C384 0.950 . S
H377 C386 0.950 . S
H378 C388 0.950 . S
H379 C390 0.950 . S
H380 C392 0.950 . S
H381 C393 0.950 . S
C382 H374 0.950 . S
C382 C383 1.386 . S
C382 C384 1.391 . S
C383 C382 1.386 . S
C383 C387 1.393 . S
C384 H376 0.950 . S
C384 C382 1.391 . S
C384 C385 1.400 . S
C385 C384 1.400 . S
C385 C386 1.398 . S
C385 C391 1.491 . S
C386 H377 0.950 . S
C386 C385 1.398 . S
C386 C387 1.391 . S
C387 H375 0.950 . S
C387 C383 1.393 . S
C387 C386 1.391 . S
C388 H378 0.950 . S
C388 C389 1.386 . S
C388 C390 1.391 . S
C389 C388 1.386 . S
C389 C393 1.393 . S
C390 H379 0.950 . S
C390 C388 1.391 . S
C390 C391 1.400 . S
C391 C385 1.491 . S
C391 C390 1.400 . S
C391 C392 1.398 . S
C392 H380 0.950 . S
C392 C391 1.398 . S
C392 C393 1.391 . S
C393 H381 0.950 . S
C393 C389 1.393 . S
C393 C392 1.391 . S
H394 C402 0.950 . S
H395 C407 0.950 . S
H396 C404 0.950 . S
H397 C406 0.950 . S
H398 C408 0.950 . S
H399 C410 0.950 . S
H400 C412 0.950 . S
H401 C413 0.950 . S
C402 H394 0.950 . S
C402 C403 1.386 . S
C402 C404 1.391 . S
C403 C402 1.386 . S
C403 C407 1.393 . S
C404 H396 0.950 . S
C404 C402 1.391 . S
C404 C405 1.400 . S
C405 C404 1.400 . S
C405 C406 1.398 . S
C405 C411 1.491 . S
C406 H397 0.950 . S
C406 C405 1.398 . S
C406 C407 1.391 . S
C407 H395 0.950 . S
C407 C403 1.393 . S
C407 C406 1.391 . S
C408 H398 0.950 . S
C408 C409 1.386 . S
C408 C410 1.391 . S
C409 C408 1.386 . S
C409 C413 1.393 . S
C410 H399 0.950 . S
C410 C408 1.391 . S
C410 C411 1.400 . S
C411 C405 1.491 . S
C411 C410 1.400 . S
C411 C412 1.398 . S
C412 H400 0.950 . S
C412 C411 1.398 . S
C412 C413 1.391 . S
C413 H401 0.950 . S
C413 C409 1.393 . S
C413 C412 1.391 . S
H414 C422 0.950 . S
H415 C427 0.950 . S
H416 C424 0.950 . S
H417 C426 0.950 . S
H418 C428 0.950 . S
H419 C430 0.950 1_554 S
H420 C432 0.946 1_554 S
H421 C433 0.950 . S
C422 H414 0.950 . S
C422 C423 1.386 1_655 S
C422 C424 1.391 . S
C423 C422 1.386 1_455 S
C423 C427 1.393 . S
C424 H416 0.950 . S
C424 C422 1.391 . S
C424 C425 1.400 1_655 S
C425 C424 1.400 1_455 S
C425 C426 1.398 . S
C425 C431 1.491 . S
C426 H417 0.950 . S
C426 C425 1.398 . S
C426 C427 1.391 . S
C427 H415 0.950 . S
C427 C423 1.393 . S
C427 C426 1.391 . S
C428 H418 0.950 . S
C428 C429 1.386 . S
C428 C430 1.391 . S
C429 C428 1.386 . S
C429 C433 1.393 1_455 S
C430 H419 0.950 1_556 S
C430 C428 1.391 . S
C430 C431 1.400 1_556 S
C431 C425 1.491 . S
C431 C430 1.400 1_554 S
C431 C432 1.398 1_454 S
C432 H420 0.946 1_556 S
C432 C431 1.398 1_656 S
C432 C433 1.391 . S
C433 H421 0.950 . S
C433 C429 1.393 1_655 S
C433 C432 1.391 . S
H434 C442 0.950 . S
H435 C447 0.950 . S
H436 C444 0.950 . S
H437 C446 0.950 . S
H438 C448 0.950 . S
H439 C450 0.950 . S
H440 C452 0.950 . S
H441 C453 0.950 . S
C442 H434 0.950 . S
C442 C443 1.386 . S
C442 C444 1.391 . S
C443 C442 1.386 . S
C443 C447 1.393 1_545 S
C444 H436 0.950 . S
C444 C442 1.391 . S
C444 C445 1.400 . S
C445 C444 1.400 . S
C445 C446 1.398 1_545 S
C445 C451 1.491 . S
C446 H437 0.950 . S
C446 C445 1.398 1_565 S
C446 C447 1.391 . S
C447 H435 0.950 . S
C447 C443 1.393 1_565 S
C447 C446 1.391 . S
C448 H438 0.950 . S
C448 C449 1.386 1_565 S
C448 C450 1.391 . S
C449 C448 1.386 1_545 S
C449 C453 1.393 . S
C450 H439 0.950 . S
C450 C448 1.391 . S
C450 C451 1.400 1_565 S
C451 C445 1.491 . S
C451 C450 1.400 1_545 S
C451 C452 1.398 . S
C452 H440 0.950 . S
C452 C451 1.398 . S
C452 C453 1.391 . S
C453 H441 0.950 . S
C453 C449 1.393 . S
C453 C452 1.391 . S
H454 C462 0.950 . S
H455 C467 0.950 . S
H456 C464 0.950 . S
H457 C466 0.950 . S
H458 C468 0.950 . S
H459 C470 0.950 . S
H460 C472 0.950 . S
H461 C473 0.950 . S
C462 H454 0.950 . S
C462 C463 1.386 . S
C462 C464 1.391 . S
C463 C462 1.386 . S
C463 C467 1.393 . S
C464 H456 0.950 . S
C464 C462 1.391 . S
C464 C465 1.400 . S
C465 C464 1.400 . S
C465 C466 1.398 . S
C465 C471 1.491 . S
C466 H457 0.950 . S
C466 C465 1.398 . S
C466 C467 1.391 . S
C467 H455 0.950 . S
C467 C463 1.393 . S
C467 C466 1.391 . S
C468 H458 0.950 . S
C468 C469 1.386 . S
C468 C470 1.391 . S
C469 C468 1.386 . S
C469 C473 1.393 . S
C470 H459 0.950 . S
C470 C468 1.391 . S
C470 C471 1.400 . S
C471 C465 1.491 . S
C471 C470 1.400 . S
C471 C472 1.398 . S
C472 H460 0.950 . S
C472 C471 1.398 . S
C472 C473 1.391 . S
C473 H461 0.950 . S
C473 C469 1.393 . S
C473 C472 1.391 . S
H474 C482 0.950 . S
H475 C487 0.950 . S
H476 C484 0.950 . S
H477 C486 0.950 . S
H478 C488 0.950 . S
H479 C490 0.950 . S
H480 C492 0.950 . S
H481 C493 0.950 . S
C482 H474 0.950 . S
C482 C483 1.386 . S
C482 C484 1.391 . S
C483 C482 1.386 . S
C483 C487 1.393 1_545 S
C484 H476 0.950 . S
C484 C482 1.391 . S
C484 C485 1.400 . S
C485 C484 1.400 . S
C485 C486 1.398 1_545 S
C485 C491 1.491 . S
C486 H477 0.950 . S
C486 C485 1.398 1_565 S
C486 C487 1.391 . S
C487 H475 0.950 . S
C487 C483 1.393 1_565 S
C487 C486 1.391 . S
C488 H478 0.950 . S
C488 C489 1.386 1_565 S
C488 C490 1.391 . S
C489 C488 1.386 1_545 S
C489 C493 1.393 . S
C490 H479 0.950 . S
C490 C488 1.391 . S
C490 C491 1.400 1_565 S
C491 C485 1.491 . S
C491 C490 1.400 1_545 S
C491 C492 1.398 . S
C492 H480 0.950 . S
C492 C491 1.398 . S
C492 C493 1.391 . S
C493 H481 0.950 . S
C493 C489 1.393 . S
C493 C492 1.391 . S
H494 C502 0.950 . S
H495 C507 0.950 . S
H496 C504 0.950 . S
H497 C506 0.950 . S
H498 C508 0.950 . S
H499 C510 0.950 . S
H500 C512 0.950 1_556 S
H501 C513 0.950 . S
C502 H494 0.950 . S
C502 C503 1.386 . S
C502 C504 1.391 . S
C503 C502 1.386 . S
C503 C507 1.393 . S
C504 H496 0.950 . S
C504 C502 1.391 . S
C504 C505 1.400 . S
C505 C504 1.400 . S
C505 C506 1.398 . S
C505 C511 1.491 . S
C506 H497 0.950 . S
C506 C505 1.398 . S
C506 C507 1.391 . S
C507 H495 0.950 . S
C507 C503 1.393 . S
C507 C506 1.391 . S
C508 H498 0.950 . S
C508 C509 1.386 . S
C508 C510 1.391 1_554 S
C509 C508 1.386 . S
C509 C513 1.393 . S
C510 H499 0.950 . S
C510 C508 1.391 1_556 S
C510 C511 1.400 . S
C511 C505 1.491 . S
C511 C510 1.400 . S
C511 C512 1.398 1_556 S
C512 H500 0.950 1_554 S
C512 C511 1.398 1_554 S
C512 C513 1.391 . S
C513 H501 0.950 . S
C513 C509 1.393 . S
C513 C512 1.391 . S
H514 C522 0.950 . S
H515 C527 0.950 . S
H516 C524 0.950 . S
H517 C526 0.950 . S
H518 C528 0.950 . S
H519 C530 0.950 . S
H520 C532 0.950 . S
H521 C533 0.950 . S
C522 H514 0.950 . S
C522 C523 1.386 . S
C522 C524 1.391 . S
C523 C522 1.386 . S
C523 C527 1.393 1_455 S
C524 H516 0.950 . S
C524 C522 1.391 . S
C524 C525 1.400 . S
C525 C524 1.400 . S
C525 C526 1.398 1_455 S
C525 C531 1.491 . S
C526 H517 0.950 . S
C526 C525 1.398 1_655 S
C526 C527 1.391 . S
C527 H515 0.950 . S
C527 C523 1.393 1_655 S
C527 C526 1.391 . S
C528 H518 0.950 . S
C528 C529 1.386 1_655 S
C528 C530 1.391 . S
C529 C528 1.386 1_455 S
C529 C533 1.393 . S
C530 H519 0.950 . S
C530 C528 1.391 . S
C530 C531 1.400 1_655 S
C531 C525 1.491 . S
C531 C530 1.400 1_455 S
C531 C532 1.398 . S
C532 H520 0.950 . S
C532 C531 1.398 . S
C532 C533 1.391 . S
C533 H521 0.950 . S
C533 C529 1.393 . S
C533 C532 1.391 . S
C183 C9 0.617 . S
C189 C169 0.552 . S
C203 C49 0.441 . S
C209 C151 0.412 . S
C223 C89 0.495 . S
C229 C163 0.401 . S
C243 C26 0.557 . S
C249 C172 0.489 . S
C269 C154 0.556 . S
C263 C66 0.654 . S
C289 C160 0.607 . S
C283 C106 0.658 . S
C303 C43 2.870 . S
C309 C133 2.860 . S
C323 C83 2.960 . S
C329 C142 2.940 . S
C343 C22 3.000 . S
C349 C124 2.972 . S
C369 C136 2.956 . S
C363 C62 2.993 . S
C389 C145 2.876 . S
C383 C102 2.895 . S
C403 C3 2.864 . S
C409 C127 2.847 . S
C429 C143 1.809 . S
C423 C15 1.741 . S
C443 C55 1.762 . S
C449 C125 1.808 . S
C463 C95 1.761 . S
C469 C134 1.804 . S
C489 C161 1.020 . S
C483 C42 1.020 . S
C509 C170 1.024 . S
C503 C82 1.018 . S
C523 C2 1.018 . S
C529 C152 1.013 . S
