# Generated by pormake.
# Topology anh, (6,3)-cn, num edge types: 1
# Building blocks:
#     Node 0, Type 0, BuildingBlock: NUHQIS_clean_sbu_0, # of connection points: 6
#     Node 1, Type 0, BuildingBlock: NUHQIS_clean_sbu_0, # of connection points: 6
#     Node 2, Type 0, BuildingBlock: NUHQIS_clean_sbu_0, # of connection points: 6
#     Node 3, Type 1, BuildingBlock: BELTOD_clean_linker_0, # of connection points: 3
#     Node 4, Type 1, BuildingBlock: BELTOD_clean_linker_0, # of connection points: 3
#     Node 5, Type 1, BuildingBlock: BELTOD_clean_linker_0, # of connection points: 3
#     Node 6, Type 1, BuildingBlock: BELTOD_clean_linker_0, # of connection points: 3
#     Node 7, Type 1, BuildingBlock: BELTOD_clean_linker_0, # of connection points: 3
#     Node 8, Type 1, BuildingBlock: BELTOD_clean_linker_0, # of connection points: 3
#     Edge 9, Type (0, 1), BuildingBlock: MIFKUJ_clean_linker_0, # of connection points: 2
#     Edge 10, Type (0, 1), BuildingBlock: MIFKUJ_clean_linker_0, # of connection points: 2
#     Edge 11, Type (0, 1), BuildingBlock: MIFKUJ_clean_linker_0, # of connection points: 2
#     Edge 12, Type (0, 1), BuildingBlock: MIFKUJ_clean_linker_0, # of connection points: 2
#     Edge 13, Type (0, 1), BuildingBlock: MIFKUJ_clean_linker_0, # of connection points: 2
#     Edge 14, Type (0, 1), BuildingBlock: MIFKUJ_clean_linker_0, # of connection points: 2
#     Edge 15, Type (0, 1), BuildingBlock: MIFKUJ_clean_linker_0, # of connection points: 2
#     Edge 16, Type (0, 1), BuildingBlock: MIFKUJ_clean_linker_0, # of connection points: 2
#     Edge 17, Type (0, 1), BuildingBlock: MIFKUJ_clean_linker_0, # of connection points: 2
#     Edge 18, Type (0, 1), BuildingBlock: MIFKUJ_clean_linker_0, # of connection points: 2
#     Edge 19, Type (0, 1), BuildingBlock: MIFKUJ_clean_linker_0, # of connection points: 2
#     Edge 20, Type (0, 1), BuildingBlock: MIFKUJ_clean_linker_0, # of connection points: 2
#     Edge 21, Type (0, 1), BuildingBlock: MIFKUJ_clean_linker_0, # of connection points: 2
#     Edge 22, Type (0, 1), BuildingBlock: MIFKUJ_clean_linker_0, # of connection points: 2
#     Edge 23, Type (0, 1), BuildingBlock: MIFKUJ_clean_linker_0, # of connection points: 2
#     Edge 24, Type (0, 1), BuildingBlock: MIFKUJ_clean_linker_0, # of connection points: 2
#     Edge 25, Type (0, 1), BuildingBlock: MIFKUJ_clean_linker_0, # of connection points: 2
#     Edge 26, Type (0, 1), BuildingBlock: MIFKUJ_clean_linker_0, # of connection points: 2
# Relax obj value: 0.200
# Max RMSD: 0.178
# Mean RMSD: 0.141
data_MOF--net-anh--node1-NUHQIS_clean_sbu_0--node2-BELTOD_clean_linker_0--edge1-MIFKUJ_clean_linker_0
_symmetry_space_group_name_H-M    P1
_symmetry_Int_Tables_number       1
_symmetry_cell_setting            triclinic
loop_
_symmetry_equiv_pos_as_xyz
'x, y, z'
_cell_length_a     43.682896
_cell_length_b     43.59565
_cell_length_c     76.576351
_cell_angle_alpha  89.956032
_cell_angle_beta   93.426417
_cell_angle_gamma 120.27361
loop_
_atom_site_label
_atom_site_type_symbol
_atom_site_fract_x
_atom_site_fract_y
_atom_site_fract_z
_atom_type_partial_charge
Tb0 Tb 0.10408 0.55723 0.15778 0.0
Eu1 Eu 0.06314 0.60242 0.15776 0.0
C2 C 0.08835 0.58043 0.19265 0.0
C3 C 1.01873 0.51593 0.15975 0.0
C4 C 0.17029 0.52867 0.1661 0.0
C5 C 0.20966 0.5058 0.17287 0.0
C6 C 0.17635 0.50014 0.16701 0.0
C7 C 0.1974 0.56283 0.17179 0.0
C8 C 0.23091 0.56858 0.1776 0.0
C9 C 0.23751 0.54017 0.17792 0.0
C10 C 0.13587 0.52243 0.15875 0.0
O11 O 0.0812 0.55221 0.13114 0.0
O12 O 0.07955 0.60375 0.13029 0.0
O13 O 0.12152 0.64394 0.1627 0.0
O14 O 0.14849 0.61224 0.1559 0.0
C15 C 0.08023 0.57753 0.12228 0.0
O16 O 1.02329 0.61495 0.14719 0.0
O17 O 1.05915 0.64564 0.1694 0.0
O18 O 1.06141 0.5811 0.18462 0.0
O19 O 0.11337 0.58108 0.18379 0.0
O20 O 1.04919 0.51674 0.16291 0.0
O21 O 1.0179 0.54477 0.15532 0.0
C22 C 0.1503 0.6426 0.15996 0.0
O23 O 0.11362 0.51958 0.17011 0.0
O24 O 0.13682 0.54236 0.14584 0.0
C25 C 1.00017 0.63435 0.16892 0.0
C26 C 0.93842 0.61966 0.18545 0.0
C27 C 0.94062 0.62532 0.16734 0.0
C28 C 0.97123 0.6328 0.15921 0.0
C29 C 0.99868 0.62994 0.18712 0.0
C30 C 0.96814 0.62283 0.19531 0.0
C31 C 1.03059 0.63847 0.1597 0.0
H32 H 0.21406 0.48349 0.17255 0.0
H33 H 0.15561 0.47364 0.16269 0.0
H34 H 0.19291 0.5851 0.17129 0.0
H35 H 0.25188 0.59531 0.18138 0.0
H36 H 0.91807 0.62225 0.15918 0.0
H37 H 0.97179 0.63604 0.14518 0.0
H38 H 1.02068 0.63101 0.19497 0.0
H39 H 0.9675 0.61894 0.20928 0.0
Tb40 Tb 0.61687 0.10461 0.49469 0.0
Eu41 Eu 0.5306 0.06121 0.49092 0.0
C42 C 0.5734 0.0816 0.52742 0.0
C43 C 0.5745 1.01858 0.49488 0.0
C44 C 0.70413 0.1758 0.50995 0.0
C45 C 0.76066 0.22427 0.52179 0.0
C46 C 0.74061 0.19033 0.51388 0.0
C47 C 0.68753 0.19469 0.51473 0.0
C48 C 0.70756 0.22872 0.52238 0.0
C49 C 0.74439 0.24405 0.52566 0.0
C50 C 0.68314 0.14133 0.50061 0.0
O51 O 0.60339 0.0854 0.46746 0.0
O52 O 0.54862 0.08046 0.464 0.0
O53 O 0.54588 0.11847 0.49713 0.0
O54 O 0.60405 0.14707 0.49029 0.0
C55 C 0.57686 0.0831 0.45734 0.0
O56 O 0.47954 1.02153 0.47824 0.0
O57 O 0.48125 0.05319 0.50049 0.0
O58 O 0.54755 0.05492 0.51825 0.0
O59 O 0.59767 0.10892 0.51954 0.0
O60 O 0.6042 0.04923 0.49827 0.0
O61 O 0.54432 1.0173 0.49017 0.0
C62 C 0.57559 0.14801 0.49437 0.0
O63 O 0.66255 0.11524 0.51027 0.0
O64 O 0.66652 0.14167 0.48594 0.0
C65 C 0.43784 0.99308 0.49912 0.0
C66 C 0.39364 0.92856 0.51489 0.0
C67 C 0.37907 0.94333 0.50307 0.0
C68 C 0.40109 0.97542 0.49521 0.0
C69 C 0.45235 0.97912 0.51137 0.0
C70 C 0.43043 0.94717 0.51923 0.0
C71 C 0.4615 1.02543 0.49018 0.0
H72 H 0.78915 0.23583 0.524 0.0
H73 H 0.7537 0.17591 0.51041 0.0
H74 H 0.65923 0.18353 0.51211 0.0
H75 H 0.69451 0.24351 0.5252 0.0
H76 H 0.35088 0.92932 0.49927 0.0
H77 H 0.38957 0.98594 0.48578 0.0
H78 H 0.48075 0.99257 0.51457 0.0
H79 H 0.44236 0.93658 0.52837 0.0
Tb80 Tb 0.59701 0.60467 0.82903 0.0
Eu81 Eu 0.55472 0.51966 0.82231 0.0
C82 C 0.57748 0.55346 0.85993 0.0
C83 C 0.64187 0.56508 0.82725 0.0
C84 C 0.60476 0.68691 0.84289 0.0
C85 C 0.59419 0.71653 0.86674 0.0
C86 C 0.61496 0.70441 0.8594 0.0
C87 C 0.57363 0.68202 0.83378 0.0
C88 C 0.55295 0.69395 0.84108 0.0
C89 C 0.56276 0.71109 0.85769 0.0
C90 C 0.62357 0.66962 0.83623 0.0
O91 O 0.60297 0.59585 0.80154 0.0
O92 O 0.55155 0.54267 0.79656 0.0
O93 O 0.51291 0.53344 0.82976 0.0
O94 O 0.54183 0.59235 0.8236 0.0
C95 C 0.57801 0.57151 0.79066 0.0
O96 O 0.54394 0.47055 0.809 0.0
O97 O 0.51098 0.46871 0.82952 0.0
O98 O 0.57944 0.53084 0.8496 0.0
O99 O 0.57398 0.57931 0.85325 0.0
O100 O 0.63997 0.5924 0.83329 0.0
O101 O 0.61333 0.53641 0.82027 0.0
C102 C 0.5126 0.56323 0.82736 0.0
O103 O 0.62658 0.64786 0.84691 0.0
O104 O 0.61386 0.65607 0.82031 0.0
C105 C 0.52149 0.42133 0.82767 0.0
C106 C 0.52524 0.36665 0.84555 0.0
C107 C 0.5563 0.39672 0.84039 0.0
C108 C 0.55447 0.4239 0.83164 0.0
C109 C 0.49047 0.39153 0.83281 0.0
C110 C 0.49229 0.36442 0.84169 0.0
C111 C 0.51905 0.45041 0.81926 0.0
H112 H 0.60252 0.72984 0.87952 0.0
H113 H 0.63856 0.70802 0.86678 0.0
H114 H 0.56476 0.66841 0.82108 0.0
H115 H 0.52951 0.69024 0.8335 0.0
H116 H 0.58206 0.39898 0.84277 0.0
H117 H 0.57883 0.44688 0.828 0.0
H118 H 0.46482 0.38937 0.83006 0.0
H119 H 0.46793 0.34177 0.84555 0.0
P120 P 0.60405 0.06853 0.20941 0.0
H121 H 0.58109 1.01401 0.18113 0.0
H122 H 0.52348 0.96302 0.17167 0.0
H123 H 0.47236 1.00169 0.20463 0.0
H124 H 0.53006 0.05364 0.21316 0.0
H125 H 0.66908 0.09032 0.19116 0.0
H126 H 0.71762 0.14737 0.18305 0.0
H127 H 0.65963 0.19822 0.19777 0.0
H128 H 0.61044 0.14024 0.20593 0.0
H129 H 0.55623 1.02088 0.2348 0.0
H130 H 0.64333 0.12901 0.23531 0.0
O131 O 0.62446 0.04485 0.21072 0.0
H132 H 0.55208 1.02642 0.26608 0.0
H133 H 0.63934 0.13462 0.26672 0.0
C134 C 0.56051 1.03792 0.19809 0.0
C135 C 0.55743 1.01216 0.18595 0.0
C136 C 0.52412 0.9823 0.18079 0.0
C137 C 0.4925 0.97684 0.18769 0.0
C138 C 0.49552 1.00422 0.19888 0.0
C139 C 0.52889 1.03436 0.20383 0.0
C140 C 0.63566 0.1104 0.19939 0.0
C141 C 0.66622 0.11344 0.19249 0.0
C142 C 0.6945 0.14653 0.18797 0.0
C143 C 0.69341 0.17809 0.19005 0.0
C144 C 0.66181 0.17479 0.19596 0.0
C145 C 0.63339 0.14143 0.20058 0.0
C146 C 0.59878 0.07511 0.23227 0.0
C147 C 0.5737 0.0463 0.24144 0.0
C148 C 0.5715 0.04939 0.25946 0.0
C149 C 0.59505 0.08113 0.26894 0.0
C150 C 0.62065 0.10982 0.25983 0.0
C151 C 0.6226 0.10678 0.24172 0.0
P152 P 0.60709 0.59934 0.54236 0.0
H153 H 0.63579 0.57685 0.51434 0.0
H154 H 0.62831 0.5196 0.50562 0.0
H155 H 0.54231 0.46744 0.53979 0.0
H156 H 0.5487 0.52478 0.54748 0.0
H157 H 0.64691 0.66264 0.52144 0.0
H158 H 0.63847 0.71197 0.51341 0.0
H159 H 0.53371 0.65695 0.53275 0.0
H160 H 0.54227 0.60689 0.54055 0.0
H161 H 0.60711 0.55067 0.56894 0.0
H162 H 0.59229 0.64128 0.56757 0.0
O163 O 0.65139 0.62031 0.54322 0.0
H164 H 0.60068 0.5475 0.60037 0.0
H165 H 0.58573 0.63809 0.59898 0.0
C166 C 0.59321 0.55577 0.53182 0.0
C167 C 0.6146 0.55303 0.51961 0.0
C168 C 0.61069 0.51988 0.51487 0.0
C169 C 0.58538 0.48801 0.52231 0.0
C170 C 0.56226 0.49071 0.53362 0.0
C171 C 0.56587 0.52391 0.53811 0.0
C172 C 0.59546 0.63065 0.53187 0.0
C173 C 0.62174 0.66058 0.52373 0.0
C174 C 0.61703 0.68936 0.5193 0.0
C175 C 0.58573 0.6895 0.52278 0.0
C176 C 0.55832 0.65834 0.52983 0.0
C177 C 0.56308 0.62935 0.53425 0.0
C178 C 0.59786 0.59474 0.56541 0.0
C179 C 0.60105 0.56906 0.57518 0.0
C180 C 0.59768 0.56744 0.59328 0.0
C181 C 0.59214 0.5922 0.60224 0.0
C182 C 0.58977 0.61844 0.59253 0.0
C183 C 0.5929 0.61987 0.57438 0.0
P184 P 0.10083 0.59989 0.87331 0.0
H185 H 0.14338 0.62084 0.84229 0.0
H186 H 0.19206 0.61278 0.83398 0.0
H187 H 0.16942 0.53765 0.875 0.0
H188 H 0.11977 0.54452 0.88248 0.0
H189 H 0.06885 0.64396 0.87565 0.0
H190 H 1.01051 0.6361 0.86813 0.0
H191 H 0.97659 0.53322 0.84444 0.0
H192 H 1.03614 0.54129 0.85229 0.0
H193 H 0.1534 0.61007 0.90158 0.0
H194 H 1.04017 0.56775 0.89619 0.0
O195 O 0.12797 0.64387 0.87366 0.0
H196 H 0.15052 0.6017 0.933 0.0
H197 H 1.03739 0.56198 0.92766 0.0
C198 C 0.12728 0.58338 0.86307 0.0
C199 C 0.14799 0.60161 0.84911 0.0
C200 C 0.1767 0.59752 0.84461 0.0
C201 C 0.18614 0.57517 0.85401 0.0
C202 C 0.1637 0.55513 0.86725 0.0
C203 C 0.1348 0.55903 0.8716 0.0
C204 C 1.05787 0.59374 0.8642 0.0
C205 C 1.04937 0.61986 0.8685 0.0
C206 C 1.01545 0.61512 0.86438 0.0
C207 C 0.98823 0.58391 0.85573 0.0
C208 C 0.99676 0.55778 0.851 0.0
C209 C 1.03099 0.56241 0.85542 0.0
C210 C 0.09707 0.58933 0.89634 0.0
C211 C 0.12782 0.59877 0.90713 0.0
C212 C 0.12616 0.59448 0.92525 0.0
C213 C 0.09375 0.58152 0.93319 0.0
C214 C 1.06284 0.57154 0.92222 0.0
C215 C 0.06445 0.57517 0.90405 0.0
P216 P 0.09903 0.49207 0.43486 0.0
H217 H 0.13607 0.49316 0.46795 0.0
H218 H 0.18035 0.54232 0.48726 0.0
H219 H 0.18821 0.61666 0.4479 0.0
H220 H 0.14462 0.56777 0.4288 0.0
H221 H 1.03203 0.43193 0.44494 0.0
H222 H 0.98394 0.4286 0.46119 0.0
H223 H 1.03636 0.54318 0.46373 0.0
H224 H 0.08405 0.54642 0.44715 0.0
H225 H 0.15224 0.51682 0.40906 0.0
H226 H 1.04202 0.48675 0.41039 0.0
O227 O 0.09889 0.45386 0.43662 0.0
H228 H 0.15101 0.53084 0.37821 0.0
H229 H 1.04019 0.49953 0.37948 0.0
C230 C 0.13781 0.52674 0.44677 0.0
C231 C 0.14835 0.51999 0.46328 0.0
C232 C 0.17331 0.54809 0.47437 0.0
C233 C 0.18787 0.58335 0.46909 0.0
C234 C 0.17816 0.58978 0.45223 0.0
C235 C 0.15325 0.56175 0.44122 0.0
C236 C 1.06194 0.48938 0.44521 0.0
C237 C 1.03299 0.4563 0.44881 0.0
C238 C 1.00545 0.45446 0.45796 0.0
C239 C 1.0066 0.48571 0.46367 0.0
C240 C 1.03504 0.51879 0.45952 0.0
C241 C 1.0623 0.52059 0.45014 0.0
C242 C 0.0975 0.50152 0.41208 0.0
C243 C 0.12778 0.51322 0.40268 0.0
C244 C 0.12694 0.52097 0.38502 0.0
C245 C 0.09554 0.51655 0.37638 0.0
C246 C 0.06501 0.504 0.38582 0.0
C247 C 0.06598 0.49649 0.4035 0.0
P248 P 0.64531 0.06453 0.77285 0.0
H249 H 0.68047 0.10052 0.80628 0.0
H250 H 0.66681 0.13386 0.82711 0.0
H251 H 0.58672 0.12951 0.78957 0.0
H252 H 0.60018 0.09603 0.76899 0.0
H253 H 0.65562 1.01006 0.78997 0.0
H254 H 0.61688 0.95955 0.80707 0.0
H255 H 0.5305 0.97925 0.79471 0.0
H256 H 0.56905 1.02859 0.7768 0.0
H257 H 0.66446 0.12336 0.74959 0.0
H258 H 0.60197 1.00894 0.74594 0.0
O259 O 0.68679 0.07201 0.77493 0.0
H260 H 0.65084 0.12607 0.71838 0.0
H261 H 0.58881 1.01132 0.71468 0.0
C262 C 0.642 0.09667 0.78594 0.0
C263 C 0.66072 0.10771 0.80237 0.0
C264 C 0.65271 0.12646 0.8143 0.0
C265 C 0.62541 0.13384 0.81002 0.0
C266 C 0.6075 0.12367 0.79332 0.0
C267 C 0.61562 0.1051 0.78142 0.0
C268 C 0.61521 1.02308 0.78219 0.0
C269 C 0.62815 1.00303 0.79062 0.0
C270 C 0.60605 0.97447 0.80063 0.0
C271 C 0.57078 0.9659 0.80266 0.0
C272 C 0.55745 0.98507 0.79346 0.0
C273 C 0.57951 1.01335 0.78324 0.0
C274 C 0.63364 0.06603 0.7501 0.0
C275 C 0.6476 0.09884 0.74207 0.0
C276 C 0.64 0.10032 0.72422 0.0
C277 C 0.61863 0.0689 0.71405 0.0
C278 C 0.60479 1.03602 0.7222 0.0
C279 C 0.6124 1.03461 0.74007 0.0
P280 P 0.51004 0.38274 0.08878 0.0
H281 H 0.55697 0.35663 0.10252 0.0
H282 H 0.6078 0.38205 0.12435 0.0
H283 H 0.59867 0.47581 0.12955 0.0
H284 H 0.54899 0.45084 0.10776 0.0
H285 H 0.46118 0.40661 0.07493 0.0
H286 H 0.431 0.4322 0.08983 0.0
H287 H 0.4612 0.40502 0.13971 0.0
H288 H 0.49028 0.37853 0.12468 0.0
H289 H 0.50764 0.35522 0.0534 0.0
H290 H 0.53716 0.45601 0.07826 0.0
O291 O 0.49261 0.33887 0.08655 0.0
H292 H 0.52138 0.38342 0.02506 0.0
H293 H 0.55041 0.48416 0.0501 0.0
C294 C 0.54934 0.40191 0.10346 0.0
C295 C 0.56627 0.38281 0.10825 0.0
C296 C 0.59506 0.39721 0.12082 0.0
C297 C 0.60726 0.43095 0.12868 0.0
C298 C 0.59041 0.45006 0.12356 0.0
C299 C 0.56193 0.43578 0.11103 0.0
C300 C 0.47914 0.39192 0.09877 0.0
C301 C 0.46086 0.40566 0.08904 0.0
C302 C 0.4438 0.42051 0.0976 0.0
C303 C 0.44466 0.42166 0.116 0.0
C304 C 0.46013 0.40476 0.12554 0.0
C305 C 0.47689 0.38967 0.11696 0.0
C306 C 0.5214 0.40349 0.06796 0.0
C307 C 0.51715 0.38339 0.05279 0.0
C308 C 0.52483 0.39953 0.03659 0.0
C309 C 0.53696 0.43607 0.03532 0.0
C310 C 0.54166 0.45613 0.05064 0.0
C311 C 0.53402 0.43999 0.06678 0.0
H312 H 0.29791 0.59294 0.16495 0.0
H313 H 0.35125 0.59006 0.16068 0.0
H314 H 0.31246 0.49755 0.19231 0.0
H315 H 0.25945 0.5009 0.19711 0.0
H316 H 0.3886 0.53606 0.19078 0.0
H317 H 0.27916 0.48265 0.1527 0.0
H318 H 0.23172 0.48619 0.13531 0.0
H319 H 0.30927 0.56505 0.10353 0.0
H320 H 0.35725 0.5624 0.12099 0.0
H321 H 0.40833 0.40514 0.14585 0.0
H322 H 0.38876 0.44071 0.1612 0.0
H323 H 0.43236 0.52084 0.12242 0.0
H324 H 0.45285 0.486 0.10724 0.0
H325 H 0.36348 0.49942 0.12774 0.0
H326 H 0.47163 0.53971 0.16235 0.0
H327 H 0.51738 0.53459 0.1804 0.0
H328 H 0.44229 0.47866 0.21881 0.0
H329 H 0.39587 0.48294 0.20085 0.0
C330 C 0.30158 0.57318 0.17182 0.0
C331 C 0.27404 0.54642 0.1809 0.0
C332 C 0.33213 0.57157 0.16935 0.0
C333 C 0.33517 0.54299 0.17577 0.0
C334 C 0.3104 0.51962 0.18712 0.0
C335 C 0.27994 0.52132 0.18969 0.0
C336 C 0.35745 0.53185 0.16709 0.0
C337 C 0.38337 0.52815 0.177 0.0
C338 C 0.35058 0.52177 0.14908 0.0
C339 C 0.32175 0.52262 0.13824 0.0
C340 C 0.28607 0.50085 0.14205 0.0
C341 C 0.25911 0.50271 0.1322 0.0
C342 C 0.26748 0.5259 0.11835 0.0
C343 C 0.30284 0.54716 0.11429 0.0
C344 C 0.32993 0.54551 0.12416 0.0
C345 C 0.41418 0.43054 0.14071 0.0
C346 C 0.43186 0.44255 0.12522 0.0
C347 C 0.40311 0.45088 0.14954 0.0
C348 C 0.40952 0.48356 0.14303 0.0
C349 C 0.4273 0.49573 0.12766 0.0
C350 C 0.43856 0.47554 0.11889 0.0
C351 C 0.39476 0.50337 0.15139 0.0
C352 C 0.36973 0.50825 0.1414 0.0
C353 C 0.40238 0.51417 0.16932 0.0
C354 C 0.43016 0.51141 0.18017 0.0
C355 C 0.46475 0.52603 0.17456 0.0
C356 C 0.49084 0.52334 0.1848 0.0
C357 C 0.48273 0.50625 0.20072 0.0
C358 C 0.44852 0.49187 0.20646 0.0
C359 C 0.42232 0.49446 0.19627 0.0
H360 H 0.50297 0.50421 0.20863 0.0
H361 H 0.24658 0.52733 0.11073 0.0
H362 H 0.79582 0.27551 0.55249 0.0
H363 H 0.841 0.33877 0.55568 0.0
H364 H 0.7892 0.36031 0.51149 0.0
H365 H 0.74358 0.29816 0.50904 0.0
H366 H 0.88427 0.36531 0.53304 0.0
H367 H 0.81219 0.44036 0.50465 0.0
H368 H 0.76024 0.44539 0.51096 0.0
H369 H 0.76446 0.4122 0.5634 0.0
H370 H 0.81673 0.40734 0.55752 0.0
H371 H 0.9348 0.44617 0.45795 0.0
H372 H 0.89145 0.42972 0.48002 0.0
H373 H 0.97421 0.50209 0.51761 0.0
H374 H 1.01781 0.51891 0.49548 0.0
H375 H 0.8759 0.46942 0.51329 0.0
H376 H 0.97824 0.45077 0.53602 0.0
H377 H 1.02905 0.44521 0.52764 0.0
H378 H 0.96155 0.36552 0.48834 0.0
H379 H 0.91047 0.37077 0.49651 0.0
C380 C 0.79352 0.29422 0.54399 0.0
C381 C 0.76655 0.28218 0.53046 0.0
C382 C 0.81919 0.3303 0.54583 0.0
C383 C 0.81867 0.3546 0.53388 0.0
C384 C 0.78999 0.34268 0.52124 0.0
C385 C 0.764 0.3069 0.51967 0.0
C386 C 0.8513 0.3893 0.53158 0.0
C387 C 0.88275 0.38869 0.52964 0.0
C388 C 0.84981 0.42009 0.52699 0.0
C389 C 0.81863 0.42363 0.53065 0.0
C390 C 0.80238 0.43454 0.51761 0.0
C391 C 0.77275 0.43724 0.52109 0.0
C392 C 0.75914 0.42926 0.53759 0.0
C393 C 0.77508 0.41847 0.55063 0.0
C394 C 0.80466 0.41564 0.54722 0.0
C395 C 0.94345 0.4596 0.47071 0.0
C396 C 0.97957 0.48331 0.47516 0.0
C397 C 0.91865 0.45057 0.48323 0.0
C398 C 0.92975 0.46476 0.50039 0.0
C399 C 0.96518 0.49128 0.50436 0.0
C400 C 0.99002 0.50063 0.49175 0.0
C401 C 0.90721 0.44404 0.51442 0.0
C402 C 0.87778 0.44701 0.51813 0.0
C403 C 0.91064 0.4157 0.52112 0.0
C404 C 0.9407 0.41103 0.51691 0.0
C405 C 0.9743 0.4319 0.52569 0.0
C406 C 1.00311 0.42889 0.52094 0.0
C407 C 0.99852 0.405 0.50748 0.0
C408 C 0.96506 0.38394 0.49879 0.0
C409 C 0.93617 0.38686 0.5035 0.0
H410 H 1.02089 0.40282 0.50377 0.0
H411 H 0.73613 0.43125 0.54023 0.0
H412 H 0.58776 0.77616 0.87349 0.0
H413 H 0.55537 0.8075 0.87542 0.0
H414 H 0.4579 0.71215 0.85837 0.0
H415 H 0.49026 0.68024 0.85674 0.0
H416 H 0.47573 0.76024 0.83495 0.0
H417 H 0.45667 0.76193 0.89369 0.0
H418 H 0.46728 0.76354 0.92573 0.0
H419 H 0.55573 0.8699 0.92426 0.0
H420 H 0.54612 0.86886 0.89221 0.0
H421 H 0.49915 0.9166 0.79864 0.0
H422 H 0.46532 0.86632 0.81719 0.0
H423 H 0.55904 0.90069 0.85202 0.0
H424 H 0.59196 0.95204 0.83443 0.0
H425 H 0.50284 0.86735 0.8702 0.0
H426 H 0.53794 0.84344 0.81287 0.0
H427 H 0.53368 0.84101 0.78055 0.0
H428 H 0.42014 0.77568 0.78012 0.0
H429 H 0.42383 0.77801 0.81247 0.0
C430 C 0.55915 0.76128 0.87105 0.0
C431 C 0.54175 0.72607 0.86444 0.0
C432 C 0.54044 0.77924 0.87227 0.0
C433 C 0.50407 0.76229 0.86689 0.0
C434 C 0.48584 0.72578 0.86257 0.0
C435 C 0.50452 0.70773 0.86143 0.0
C436 C 0.48916 0.78471 0.86087 0.0
C437 C 0.48012 0.78295 0.84286 0.0
C438 C 0.49445 0.81416 0.8711 0.0
C439 C 0.50048 0.81534 0.89047 0.0
C440 C 0.47848 0.78565 0.90017 0.0
C441 C 0.48433 0.78647 0.91836 0.0
C442 C 0.51212 0.81682 0.92703 0.0
C443 C 0.53412 0.84645 0.91753 0.0
C444 C 0.5284 0.8458 0.89934 0.0
C445 C 0.51223 0.91402 0.81054 0.0
C446 C 0.54864 0.9377 0.81474 0.0
C447 C 0.49285 0.88518 0.82111 0.0
C448 C 0.50981 0.87917 0.83578 0.0
C449 C 0.54527 0.90451 0.84074 0.0
C450 C 0.56438 0.93354 0.83042 0.0
C451 C 0.49383 0.84427 0.84422 0.0
C452 C 0.49642 0.84364 0.8626 0.0
C453 C 0.48333 0.81267 0.83434 0.0
C454 C 0.4811 0.8113 0.81498 0.0
C455 C 0.5121 0.8287 0.80584 0.0
C456 C 0.50979 0.82734 0.78755 0.0
C457 C 0.47665 0.80831 0.77829 0.0
C458 C 0.44577 0.79051 0.78731 0.0
C459 C 0.44794 0.79186 0.80562 0.0
H460 H 0.4749 0.80727 0.76412 0.0
H461 H 0.51662 0.81738 0.94111 0.0
H462 H 0.90954 0.56969 0.21063 0.0
H463 H 0.84699 0.53579 0.21652 0.0
H464 H 0.82566 0.60321 0.18286 0.0
H465 H 0.88852 0.63919 0.17821 0.0
H466 H 0.7749 0.57255 0.20499 0.0
H467 H 0.83358 0.53 0.16459 0.0
H468 H 0.88087 0.51545 0.16153 0.0
H469 H 0.84043 0.44137 0.20282 0.0
H470 H 0.79295 0.45557 0.20609 0.0
H471 H 0.66148 0.49959 0.13195 0.0
H472 H 0.70972 0.52639 0.15464 0.0
H473 H 0.67055 0.42485 0.17857 0.0
H474 H 0.62125 0.39767 0.1559 0.0
H475 H 0.74216 0.45894 0.17407 0.0
H476 H 0.66455 0.48738 0.20063 0.0
H477 H 0.62086 0.50709 0.20218 0.0
H478 H 0.69779 0.61086 0.1861 0.0
H479 H 0.7418 0.59168 0.18418 0.0
C480 C 0.89196 0.57853 0.20519 0.0
C481 C 0.9038 0.6063 0.19331 0.0
C482 C 0.85602 0.55885 0.20849 0.0
C483 C 0.83144 0.56591 0.19946 0.0
C484 C 0.84401 0.59674 0.18971 0.0
C485 C 0.87997 0.61699 0.1868 0.0
C486 C 0.79348 0.53806 0.19659 0.0
C487 C 0.76746 0.54741 0.1985 0.0
C488 C 0.78355 0.50471 0.18858 0.0
C489 C 0.80994 0.49387 0.1856 0.0
C490 C 0.83461 0.51032 0.17285 0.0
C491 C 0.86149 0.50226 0.17114 0.0
C492 C 0.86371 0.47762 0.18202 0.0
C493 C 0.83871 0.46052 0.19444 0.0
C494 C 0.81176 0.46847 0.19619 0.0
C495 C 0.66267 0.48297 0.14217 0.0
C496 C 0.63733 0.44656 0.1422 0.0
C497 C 0.69022 0.49837 0.15518 0.0
C498 C 0.69314 0.47777 0.16853 0.0
C499 C 0.66838 0.44124 0.16849 0.0
C500 C 0.64052 0.42575 0.15546 0.0
C501 C 0.72409 0.49455 0.18146 0.0
C502 C 0.7488 0.48307 0.18138 0.0
C503 C 0.73276 0.52606 0.19097 0.0
C504 C 0.70655 0.53803 0.19229 0.0
C505 C 0.67214 0.51437 0.19736 0.0
C506 C 0.6473 0.52546 0.1983 0.0
C507 C 0.65655 0.56021 0.19425 0.0
C508 C 0.69069 0.58397 0.18927 0.0
C509 C 0.71563 0.57301 0.1883 0.0
H510 H 0.63727 0.56873 0.19497 0.0
H511 H 0.88493 0.47195 0.18092 0.0
H512 H 0.32692 0.89886 0.5269 0.0
H513 H 0.28638 0.83572 0.53163 0.0
H514 H 0.36903 0.81317 0.52073 0.0
H515 H 0.40936 0.87569 0.51626 0.0
H516 H 0.26452 0.79006 0.50638 0.0
H517 H 0.35661 0.73719 0.53533 0.0
H518 H 0.40255 0.75327 0.55945 0.0
H519 H 0.36273 0.81109 0.58616 0.0
H520 H 0.316 0.79477 0.56242 0.0
H521 H 0.24732 0.64573 0.46238 0.0
H522 H 0.27688 0.69983 0.48092 0.0
H523 H 0.20931 0.64406 0.52238 0.0
H524 H 0.17866 0.58982 0.5037 0.0
H525 H 0.29076 0.7 0.53129 0.0
H526 H 0.18009 0.68335 0.50605 0.0
H527 H 0.13324 0.66671 0.48231 0.0
H528 H 0.20795 0.74884 0.4508 0.0
H529 H 0.25542 0.76552 0.47424 0.0
C530 C 0.33658 0.88044 0.52596 0.0
C531 C 0.37117 0.89212 0.52106 0.0
C532 C 0.31351 0.84447 0.52877 0.0
C533 C 0.32465 0.81965 0.52664 0.0
C534 C 0.35995 0.83175 0.5229 0.0
C535 C 0.38303 0.86763 0.52023 0.0
C536 C 0.29838 0.78111 0.5248 0.0
C537 C 0.26981 0.77039 0.51224 0.0
C538 C 0.30482 0.7552 0.53257 0.0
C539 C 0.33274 0.76477 0.54701 0.0
C540 C 0.35739 0.75307 0.5464 0.0
C541 C 0.38366 0.76232 0.56 0.0
C542 C 0.38562 0.78326 0.57429 0.0
C543 C 0.36124 0.79494 0.57505 0.0
C544 C 0.33486 0.78572 0.56152 0.0
C545 C 0.23903 0.64479 0.47552 0.0
C546 C 0.21035 0.61367 0.48149 0.0
C547 C 0.25607 0.67561 0.48611 0.0
C548 C 0.24496 0.67577 0.50289 0.0
C549 C 0.21821 0.64421 0.50946 0.0
C550 C 0.20087 0.6133 0.49878 0.0
C551 C 0.25878 0.71008 0.51237 0.0
C552 C 0.2849 0.71979 0.52613 0.0
C553 C 0.24987 0.73515 0.50595 0.0
C554 C 0.22135 0.72552 0.49187 0.0
C555 C 0.18659 0.69766 0.494 0.0
C556 C 0.15991 0.68826 0.48061 0.0
C557 C 0.16762 0.70668 0.46505 0.0
C558 C 0.20202 0.73459 0.46286 0.0
C559 C 0.22881 0.74405 0.47621 0.0
H560 H 0.14693 0.69936 0.45469 0.0
H561 H 0.40601 0.79041 0.58479 0.0
H562 H 0.57529 0.37023 0.87013 0.0
H563 H 0.58839 0.32297 0.8764 0.0
H564 H 0.4929 0.24809 0.84612 0.0
H565 H 0.48013 0.29526 0.83923 0.0
H566 H 0.52462 0.2196 0.87643 0.0
H567 H 0.54518 0.2805 0.82039 0.0
H568 H 0.56257 0.33623 0.80514 0.0
H569 H 0.66453 0.38602 0.83383 0.0
H570 H 0.64719 0.33091 0.84957 0.0
H571 H 0.55839 0.11545 0.81791 0.0
H572 H 0.54082 0.14972 0.83567 0.0
H573 H 0.65113 0.22607 0.84929 0.0
H574 H 0.66891 0.1922 0.83117 0.0
H575 H 0.6163 0.25527 0.83326 0.0
H576 H 0.59619 0.17889 0.88106 0.0
H577 H 0.57286 0.12182 0.89578 0.0
H578 H 0.46605 0.0968 0.88135 0.0
H579 H 0.4887 0.15348 0.86631 0.0
C580 C 0.55653 0.3435 0.8652 0.0
C581 C 0.52736 0.33676 0.85366 0.0
C582 C 0.5637 0.31639 0.8691 0.0
C583 C 0.54173 0.28221 0.86159 0.0
C584 C 0.50996 0.27427 0.85216 0.0
C585 C 0.50289 0.30145 0.84811 0.0
C586 C 0.5571 0.25946 0.85866 0.0
C587 C 0.54473 0.22717 0.86708 0.0
C588 C 0.58334 0.26962 0.84651 0.0
C589 C 0.59483 0.3019 0.83624 0.0
C590 C 0.57128 0.30345 0.82343 0.0
C591 C 0.58104 0.33492 0.81474 0.0
C592 C 0.61451 0.36477 0.81858 0.0
C593 C 0.63849 0.36305 0.83093 0.0
C594 C 0.62871 0.33171 0.83976 0.0
C595 C 0.57888 0.1393 0.82489 0.0
C596 C 0.61501 0.15161 0.8229 0.0
C597 C 0.5688 0.15853 0.83526 0.0
C598 C 0.59467 0.19031 0.84388 0.0
C599 C 0.63078 0.20144 0.84282 0.0
C600 C 0.64089 0.18214 0.83246 0.0
C601 C 0.58416 0.21488 0.85104 0.0
C602 C 0.59709 0.24772 0.84311 0.0
C603 C 0.55799 0.20454 0.86338 0.0
C604 C 0.54419 0.17042 0.87246 0.0
C605 C 0.56772 0.16112 0.8809 0.0
C606 C 0.55461 0.12884 0.88933 0.0
C607 C 0.518 0.10568 0.88948 0.0
C608 C 0.49441 0.11477 0.88123 0.0
C609 C 0.50738 0.14701 0.87277 0.0
H610 H 0.50791 0.0807 0.89601 0.0
H611 H 0.62168 0.38917 0.81197 0.0
H612 H 0.63077 1.00906 0.50549 0.0
H613 H 0.63106 0.95363 0.50979 0.0
H614 H 0.51948 0.89372 0.49354 0.0
H615 H 0.51887 0.94921 0.4896 0.0
H616 H 0.53007 0.8614 0.5196 0.0
H617 H 0.58901 0.9038 0.46686 0.0
H618 H 0.63336 0.94665 0.4477 0.0
H619 H 0.7176 0.9516 0.48175 0.0
H620 H 0.67374 0.90912 0.50125 0.0
H621 H 0.52652 0.69459 0.51156 0.0
H622 H 0.52276 0.74814 0.50642 0.0
H623 H 0.63419 0.81343 0.52203 0.0
H624 H 0.63815 0.76028 0.52707 0.0
H625 H 0.62171 0.8419 0.49525 0.0
H626 H 0.56118 0.79933 0.5483 0.0
H627 H 0.51575 0.75614 0.56692 0.0
H628 H 0.43313 0.75056 0.53136 0.0
H629 H 0.47807 0.79343 0.51243 0.0
C630 C 0.60624 0.98419 0.50273 0.0
C631 C 0.57487 0.98416 0.49703 0.0
C632 C 0.60645 0.95217 0.50512 0.0
C633 C 0.57541 0.91876 0.50177 0.0
C634 C 0.54397 0.91869 0.49624 0.0
C635 C 0.54371 0.95074 0.49388 0.0
C636 C 0.57566 0.88418 0.50418 0.0
C637 C 0.54989 0.8571 0.51403 0.0
C638 C 0.60166 0.87799 0.49728 0.0
C639 C 0.6281 0.90355 0.4856 0.0
C640 C 0.617 0.91423 0.47033 0.0
C641 C 0.64205 0.93842 0.4594 0.0
C642 C 0.67828 0.95191 0.46353 0.0
C643 C 0.68953 0.94117 0.47858 0.0
C644 C 0.66459 0.91701 0.48957 0.0
C645 C 0.55025 0.72028 0.51405 0.0
C646 C 0.58271 0.72246 0.51969 0.0
C647 C 0.54805 0.7512 0.51112 0.0
C648 C 0.5781 0.78556 0.51395 0.0
C649 C 0.61045 0.7877 0.51958 0.0
C650 C 0.6127 0.7569 0.52242 0.0
C651 C 0.57638 0.81923 0.51085 0.0
C652 C 0.60187 0.84616 0.50083 0.0
C653 C 0.54999 0.82515 0.51751 0.0
C654 C 0.52299 0.79928 0.52885 0.0
C655 C 0.53332 0.78868 0.54439 0.0
C656 C 0.50765 0.7643 0.55501 0.0
C657 C 0.47157 0.75055 0.55031 0.0
C658 C 0.46108 0.7612 0.53498 0.0
C659 C 0.48663 0.78555 0.52431 0.0
H660 H 0.45175 0.73169 0.55856 0.0
H661 H 0.69763 0.97063 0.45505 0.0
H662 H 0.67249 0.54224 0.80371 0.0
H663 H 0.73078 0.54663 0.80661 0.0
H664 H 0.74878 0.59308 0.85863 0.0
H665 H 0.69204 0.59169 0.85496 0.0
H666 H 0.80765 0.62358 0.84681 0.0
H667 H 0.72051 0.49725 0.84345 0.0
H668 H 0.67048 0.44409 0.82852 0.0
H669 H 0.73421 0.45582 0.78563 0.0
H670 H 0.78406 0.51026 0.79989 0.0
H671 H 0.95003 0.59938 0.87788 0.0
H672 H 0.89248 0.59522 0.87228 0.0
H673 H 0.88452 0.55429 0.81995 0.0
H674 H 0.94197 0.5573 0.82581 0.0
H675 H 0.82189 0.52183 0.83029 0.0
H676 H 0.90702 0.64592 0.83156 0.0
H677 H 0.95735 0.70268 0.84361 0.0
H678 H 0.89935 0.69634 0.88812 0.0
H679 H 0.84883 0.6393 0.87645 0.0
C680 C 0.6889 0.55339 0.81577 0.0
C681 C 0.67718 0.5664 0.82912 0.0
C682 C 0.72242 0.55562 0.81755 0.0
C683 C 0.74474 0.56922 0.83314 0.0
C684 C 0.73282 0.58232 0.84643 0.0
C685 C 0.69998 0.58136 0.84437 0.0
C686 C 0.7803 0.57021 0.83575 0.0
C687 C 0.81027 0.60091 0.84342 0.0
C688 C 0.78533 0.54158 0.8308 0.0
C689 C 0.75588 0.508 0.82267 0.0
C690 C 0.72381 0.48856 0.83081 0.0
C691 C 0.69543 0.45825 0.82241 0.0
C692 C 0.69921 0.44643 0.80615 0.0
C693 C 0.73133 0.465 0.79822 0.0
C694 C 0.75957 0.49571 0.8064 0.0
C695 C 0.93622 0.58955 0.86511 0.0
C696 C 0.95136 0.57911 0.85227 0.0
C697 C 0.90304 0.58737 0.86185 0.0
C698 C 0.88381 0.57541 0.84543 0.0
C699 C 0.89838 0.56391 0.83272 0.0
C700 C 0.93147 0.5656 0.83609 0.0
C701 C 0.84878 0.57484 0.84167 0.0
C702 C 0.81907 0.54434 0.83377 0.0
C703 C 0.84406 0.60379 0.8462 0.0
C704 C 0.87428 0.63818 0.8532 0.0
C705 C 0.90509 0.65653 0.84397 0.0
C706 C 0.93363 0.68876 0.85073 0.0
C707 C 0.93158 0.70306 0.86664 0.0
C708 C 0.90092 0.68521 0.87581 0.0
C709 C 0.87231 0.65295 0.86912 0.0
H710 H 0.95371 0.72801 0.87185 0.0
H711 H 0.67734 0.42293 0.79963 0.0
H712 H 0.16429 0.71035 0.1678 0.0
H713 H 0.2215 0.76533 0.17181 0.0
H714 H 0.27534 0.70825 0.16084 0.0
H715 H 0.21787 0.65271 0.15707 0.0
H716 H 0.31087 0.75425 0.18735 0.0
H717 H 0.26571 0.76496 0.13055 0.0
H718 H 0.2215 0.7648 0.1089 0.0
H719 H 0.2235 0.85044 0.13761 0.0
H720 H 0.26738 0.85078 0.15957 0.0
H721 H 0.48031 0.9089 0.18041 0.0
H722 H 0.42426 0.85373 0.17463 0.0
H723 H 0.36711 0.909 0.18167 0.0
H724 H 0.42328 0.96501 0.1863 0.0
H725 H 0.33344 0.86312 0.15659 0.0
H726 H 0.37728 0.85155 0.2138 0.0
H727 H 0.42056 0.85108 0.23585 0.0
H728 H 0.42039 0.76678 0.20679 0.0
H729 H 0.37743 0.76705 0.18445 0.0
C730 C 0.18818 0.70926 0.16614 0.0
C731 C 0.18594 0.67662 0.16196 0.0
C732 C 0.22118 0.74107 0.16837 0.0
C733 C 0.25333 0.74165 0.1664 0.0
C734 C 0.25126 0.70902 0.16241 0.0
C735 C 0.21816 0.67709 0.16016 0.0
C736 C 0.28882 0.77607 0.16871 0.0
C737 C 0.31588 0.77785 0.18038 0.0
C738 C 0.29571 0.80758 0.16007 0.0
C739 C 0.26961 0.80769 0.14679 0.0
C740 C 0.25656 0.78361 0.13231 0.0
C741 C 0.23158 0.7835 0.11997 0.0
C742 C 0.21964 0.80754 0.1219 0.0
C743 C 0.23274 0.83181 0.13614 0.0
C744 C 0.2577 0.832 0.14853 0.0
C745 C 0.45605 0.90987 0.18047 0.0
C746 C 0.45722 0.94234 0.1839 0.0
C747 C 0.42356 0.87769 0.17743 0.0
C748 C 0.3907 0.87631 0.17805 0.0
C749 C 0.39168 0.90869 0.18119 0.0
C750 C 0.42421 0.94101 0.18406 0.0
C751 C 0.35557 0.84146 0.17533 0.0
C752 C 0.32854 0.83956 0.16356 0.0
C753 C 0.34867 0.80984 0.18393 0.0
C754 C 0.37441 0.80958 0.19737 0.0
C755 C 0.38666 0.83308 0.21205 0.0
C756 C 0.4111 0.83282 0.22461 0.0
C757 C 0.42329 0.80898 0.2227 0.0
C758 C 0.41097 0.78527 0.20824 0.0
C759 C 0.38655 0.78545 0.19564 0.0
H760 H 0.44222 0.80883 0.23243 0.0
H761 H 0.20029 0.80741 0.11234 0.0
H762 H 0.63198 0.21607 0.49001 0.0
H763 H 0.63445 0.27304 0.4941 0.0
H764 H 0.52583 0.21788 0.50825 0.0
H765 H 0.52297 0.16096 0.50376 0.0
H766 H 0.53354 0.2692 0.48877 0.0
H767 H 0.60429 0.26566 0.53886 0.0
H768 H 0.65334 0.26119 0.55394 0.0
H769 H 0.72928 0.35264 0.5276 0.0
H770 H 0.68078 0.35759 0.51229 0.0
H771 H 0.52822 0.41832 0.52304 0.0
H772 H 0.52742 0.36259 0.51871 0.0
H773 H 0.63818 0.42044 0.50828 0.0
H774 H 0.63999 0.47626 0.51394 0.0
H775 H 0.63042 0.36819 0.52533 0.0
H776 H 0.5622 0.37262 0.47512 0.0
H777 H 0.51459 0.37791 0.45896 0.0
H778 H 0.43576 0.2857 0.48376 0.0
H779 H 0.48291 0.28011 0.50023 0.0
C780 C 0.60849 0.21592 0.49394 0.0
C781 C 0.57722 0.18338 0.49649 0.0
C782 C 0.61004 0.24883 0.49645 0.0
C783 C 0.58051 0.2505 0.50181 0.0
C784 C 0.54918 0.21796 0.50415 0.0
C785 C 0.54757 0.18511 0.50159 0.0
C786 C 0.58182 0.2857 0.50479 0.0
C787 C 0.55457 0.29057 0.49699 0.0
C788 C 0.60964 0.31464 0.51503 0.0
C789 C 0.63886 0.31179 0.52431 0.0
C790 C 0.63146 0.28472 0.53622 0.0
C791 C 0.65918 0.28217 0.54485 0.0
C792 C 0.69443 0.30669 0.54177 0.0
C793 C 0.70201 0.33378 0.53004 0.0
C794 C 0.67442 0.33649 0.52139 0.0
C795 C 0.5527 0.41959 0.52002 0.0
C796 C 0.58413 0.45282 0.5188 0.0
C797 C 0.55203 0.38721 0.51722 0.0
C798 C 0.58254 0.38648 0.5127 0.0
C799 C 0.61398 0.41952 0.5116 0.0
C800 C 0.61481 0.45189 0.51463 0.0
C801 C 0.58197 0.35166 0.50939 0.0
C802 C 0.60937 0.34686 0.51711 0.0
C803 C 0.55449 0.32289 0.49891 0.0
C804 C 0.52609 0.32617 0.48903 0.0
C805 C 0.53471 0.35362 0.47721 0.0
C806 C 0.50781 0.35664 0.46798 0.0
C807 C 0.47218 0.33221 0.47037 0.0
C808 C 0.46337 0.30464 0.48195 0.0
C809 C 0.49017 0.30151 0.49122 0.0
H810 H 0.45139 0.3346 0.46321 0.0
H811 H 0.71585 0.30468 0.54846 0.0
H812 H 0.44867 0.51112 0.8391 0.0
H813 H 0.39497 0.51366 0.84345 0.0
H814 H 0.44529 0.62039 0.82477 0.0
H815 H 0.49942 0.61824 0.82086 0.0
H816 H 0.40939 0.61949 0.85002 0.0
H817 H 0.37604 0.54079 0.79998 0.0
H818 H 0.36782 0.48888 0.78293 0.0
H819 H 0.29747 0.41887 0.82011 0.0
H820 H 0.30562 0.47041 0.8375 0.0
H821 H 0.24973 0.62785 0.84149 0.0
H822 H 0.30328 0.62614 0.83628 0.0
H823 H 0.25497 0.5192 0.85449 0.0
H824 H 0.2003 0.51976 0.85863 0.0
H825 H 0.29029 0.52111 0.829 0.0
H826 H 0.32516 0.6013 0.8793 0.0
H827 H 0.33452 0.65402 0.89605 0.0
H828 H 0.40218 0.72216 0.85753 0.0
H829 H 0.393 0.66981 0.84048 0.0
C830 C 0.4484 0.53514 0.83579 0.0
C831 C 0.47883 0.56437 0.82947 0.0
C832 C 0.41728 0.53653 0.83821 0.0
C833 C 0.41503 0.56699 0.83416 0.0
C834 C 0.4456 0.59635 0.82801 0.0
C835 C 0.47682 0.59506 0.8257 0.0
C836 C 0.38126 0.56841 0.83649 0.0
C837 C 0.38347 0.59806 0.84517 0.0
C838 C 0.34677 0.5405 0.83057 0.0
C839 C 0.34172 0.50947 0.82012 0.0
C840 C 0.359 0.51433 0.80457 0.0
C841 C 0.35433 0.48497 0.79485 0.0
C842 C 0.33221 0.4506 0.80046 0.0
C843 C 0.31464 0.44551 0.81579 0.0
C844 C 0.31924 0.47478 0.82558 0.0
C845 C 0.24989 0.60357 0.84419 0.0
C846 C 0.21971 0.57395 0.85058 0.0
C847 C 0.28129 0.6029 0.84147 0.0
C848 C 0.28432 0.57283 0.84532 0.0
C849 C 0.25413 0.54304 0.85146 0.0
C850 C 0.22258 0.54356 0.85403 0.0
C851 C 0.31832 0.57202 0.84269 0.0
C852 C 0.31618 0.54251 0.83389 0.0
C853 C 0.35288 0.60017 0.84841 0.0
C854 C 0.35812 0.63162 0.85855 0.0
C855 C 0.34183 0.62752 0.87435 0.0
C856 C 0.34716 0.65734 0.8839 0.0
C857 C 0.36888 0.69141 0.87784 0.0
C858 C 0.38531 0.69574 0.86219 0.0
C859 C 0.38009 0.66601 0.8526 0.0
H860 H 0.37305 0.71446 0.88528 0.0
H861 H 0.32864 0.42791 0.79291 0.0
H862 H 1.00939 0.45416 0.17435 0.0
H863 H 0.95425 0.39891 0.17869 0.0
H864 H 0.89403 0.44276 0.15418 0.0
H865 H 0.94932 0.49891 0.1505 0.0
H866 H 0.85958 0.40698 0.18022 0.0
H867 H 0.90812 0.37631 0.13373 0.0
H868 H 0.95342 0.37074 0.11856 0.0
H869 H 0.9577 0.3042 0.15886 0.0
H870 H 0.91274 0.30974 0.1744 0.0
H871 H 0.69637 0.23745 0.17473 0.0
H872 H 0.74893 0.29424 0.16862 0.0
H873 H 0.81659 0.25758 0.19183 0.0
H874 H 0.7644 0.2008 0.19758 0.0
H875 H 0.84573 0.29017 0.16475 0.0
H876 H 0.79822 0.3244 0.2118 0.0
H877 H 0.75277 0.331 0.22627 0.0
H878 H 0.7454 0.39104 0.1834 0.0
H879 H 0.79063 0.38458 0.16864 0.0
C880 C 0.98451 0.45221 0.1698 0.0
C881 C 0.98433 0.48143 0.16194 0.0
C882 C 0.95266 0.4202 0.17221 0.0
C883 C 0.91927 0.41572 0.16656 0.0
C884 C 0.91902 0.44496 0.15875 0.0
C885 C 0.95091 0.47725 0.15655 0.0
C886 C 0.88492 0.38099 0.16903 0.0
C887 C 0.85654 0.38158 0.17656 0.0
C888 C 0.8803 0.34716 0.16461 0.0
C889 C 0.9073 0.34372 0.15531 0.0
C890 C 0.91891 0.36069 0.13942 0.0
C891 C 0.94449 0.35751 0.13075 0.0
C892 C 0.95849 0.33721 0.13777 0.0
C893 C 0.94686 0.31996 0.15345 0.0
C894 C 0.9213 0.32309 0.16219 0.0
C895 C 0.7224 0.24149 0.17868 0.0
C896 C 0.72562 0.21392 0.18663 0.0
C897 C 0.75274 0.27432 0.17521 0.0
C898 C 0.78747 0.28113 0.17989 0.0
C899 C 0.79058 0.25361 0.18791 0.0
C900 C 0.76038 0.22078 0.19119 0.0
C901 C 0.82057 0.31617 0.17622 0.0
C902 C 0.84874 0.31562 0.16841 0.0
C903 C 0.82485 0.35003 0.18024 0.0
C904 C 0.79749 0.35367 0.18904 0.0
C905 C 0.7867 0.33878 0.20541 0.0
C906 C 0.76104 0.34255 0.21368 0.0
C907 C 0.74613 0.36133 0.20573 0.0
C908 C 0.75686 0.37638 0.18951 0.0
C909 C 0.78254 0.37271 0.1812 0.0
H910 H 0.72632 0.36428 0.21216 0.0
H911 H 0.9783 0.33477 0.13104 0.0
H912 H 0.1044 0.54363 0.10209 0.0
H913 H 0.10726 0.5441 0.07033 0.0
H914 H 1.05713 0.60777 0.06665 0.0
H915 H 1.05611 0.609 0.09854 0.0
H916 H 0.06471 0.52086 0.04393 0.0
H917 H 0.08058 0.65978 0.03218 0.0
H918 H 0.10641 0.71809 0.04764 0.0
H919 H 0.17866 0.69651 0.07823 0.0
H920 H 0.15359 0.6383 0.06279 0.0
H921 H 1.03912 0.53378 0.9527 0.0
H922 H 1.0363 0.53302 0.98436 0.0
H923 H 0.14331 0.62229 0.99015 0.0
H924 H 0.14519 0.62538 0.95852 0.0
H925 H 0.1097 0.63291 0.01199 0.0
H926 H 0.11859 0.53116 0.99879 0.0
H927 H 0.1032 0.47432 0.98415 0.0
H928 H 1.00008 0.42446 0.00461 0.0
H929 H 1.01469 0.48114 0.01919 0.0
C930 C 0.09402 0.55777 0.09451 0.0
C931 C 0.08028 0.57651 0.10288 0.0
C932 C 0.09557 0.55795 0.07629 0.0
C933 C 0.08296 0.57645 0.06592 0.0
C934 C 0.06805 0.59414 0.07425 0.0
C935 C 0.06725 0.59465 0.09253 0.0
C936 C 0.08566 0.57733 0.04647 0.0
C937 C 0.07456 0.54542 0.03698 0.0
C938 C 0.09935 0.60936 0.03726 0.0
C939 C 0.11493 0.64454 0.04645 0.0
C940 C 0.10207 0.66755 0.04215 0.0
C941 C 0.11656 0.70057 0.05092 0.0
C942 C 0.14407 0.71094 0.06395 0.0
C943 C 0.15726 0.68839 0.06818 0.0
C944 C 0.1429 0.65537 0.05944 0.0
C945 C 1.06197 0.55367 0.96061 0.0
C946 C 0.09245 0.57962 0.95276 0.0
C947 C 1.06051 0.5528 0.97886 0.0
C948 C 0.08981 0.5772 0.98986 0.0
C949 C 0.12027 0.60302 0.98209 0.0
C950 C 0.1215 0.60438 0.96386 0.0
C951 C 0.08861 0.5764 0.0094 0.0
C952 C 0.09986 0.60833 0.01892 0.0
C953 C 0.07658 0.54462 0.01871 0.0
C954 C 0.06761 0.51049 0.00993 0.0
C955 C 0.09253 0.50814 1.00005 0.0
C956 C 0.08397 0.47594 0.99179 0.0
C957 C 1.05065 0.44583 0.99341 0.0
C958 C 1.02585 0.44783 0.00334 0.0
C959 C 1.03427 0.47998 0.01162 0.0
H960 H 1.04407 0.42092 0.98701 0.0
H961 H 0.15522 0.73649 0.07074 0.0
H962 H 0.63524 0.1018 0.43875 0.0
H963 H 0.63845 0.1026 0.40692 0.0
H964 H 0.52634 0.06545 0.4001 0.0
H965 H 0.52291 0.06486 0.43193 0.0
H966 H 0.54785 1.02889 0.37833 0.0
H967 H 0.58319 0.1498 0.39387 0.0
H968 H 0.61894 0.20717 0.41013 0.0
H969 H 0.71388 0.21929 0.38989 0.0
H970 H 0.67873 0.16169 0.3737 0.0
H971 H 0.53612 0.05706 0.28777 0.0
H972 H 0.53346 0.05839 0.31954 0.0
H973 H 0.64782 0.11135 0.32593 0.0
H974 H 0.65062 0.11057 0.2941 0.0
H975 H 0.6257 0.13984 0.34822 0.0
H976 H 0.59303 1.02047 0.33309 0.0
H977 H 0.5595 0.9624 0.31726 0.0
H978 H 0.46268 0.94603 0.33713 0.0
H979 H 0.49558 1.00427 0.3529 0.0
C980 C 0.61122 0.09377 0.43051 0.0
C981 C 0.57881 0.08333 0.43796 0.0
C982 C 0.61315 0.09437 0.41228 0.0
C983 C 0.58268 0.08428 0.40108 0.0
C984 C 0.55021 0.07338 0.40846 0.0
C985 C 0.54834 0.07319 0.42669 0.0
C986 C 0.58467 0.08504 0.38167 0.0
C987 C 0.56449 0.05323 0.37171 0.0
C988 C 0.60721 0.11657 0.37305 0.0
C989 C 0.62837 0.15126 0.38272 0.0
C990 C 0.61173 0.16455 0.39301 0.0
C991 C 0.63188 0.19714 0.40219 0.0
C992 C 0.66867 0.21682 0.40108 0.0
C993 C 0.68538 0.20399 0.39075 0.0
C994 C 0.66536 0.17139 0.38156 0.0
C995 C 0.56072 0.06893 0.29593 0.0
C996 C 0.59358 0.08354 0.28833 0.0
C997 C 0.55918 0.06961 0.31414 0.0
C998 C 0.59041 0.08438 0.32528 0.0
C999 C 0.6233 0.09974 0.31771 0.0
C1000 C 0.62488 0.09935 0.29947 0.0
C1001 C 0.58872 0.08363 0.34477 0.0
C1002 C 0.60901 0.11543 0.35478 0.0
C1003 C 0.56661 0.05197 0.35347 0.0
C1004 C 0.54673 1.0169 0.34404 0.0
C1005 C 0.56455 1.00461 0.33398 0.0
C1006 C 0.54566 0.97164 0.32503 0.0
C1007 C 0.50897 0.95058 0.32615 0.0
C1008 C 0.4911 0.9624 0.33626 0.0
C1009 C 0.50985 0.99537 0.34521 0.0
H1010 H 0.49439 0.92506 0.31921 0.0
H1011 H 0.68422 0.24205 0.4082 0.0
H1012 H 0.61969 0.63163 0.77256 0.0
H1013 H 0.62277 0.6371 0.74069 0.0
H1014 H 0.54499 0.52572 0.73334 0.0
H1015 H 0.54145 0.52009 0.76498 0.0
H1016 H 0.60338 0.54697 0.7133 0.0
H1017 H 0.51992 0.58412 0.72565 0.0
H1018 H 0.49968 0.62035 0.74038 0.0
H1019 H 0.58431 0.71503 0.71998 0.0
H1020 H 0.60538 0.67938 0.70532 0.0
H1021 H 0.55711 0.53405 0.62246 0.0
H1022 H 0.55564 0.53246 0.65432 0.0
H1023 H 0.62155 0.64665 0.65805 0.0
H1024 H 0.62276 0.64841 0.62614 0.0
H1025 H 0.57185 0.62627 0.68029 0.0
H1026 H 0.6552 0.59043 0.66747 0.0
H1027 H 0.67696 0.55531 0.65295 0.0
H1028 H 0.59549 0.46002 0.67453 0.0
H1029 H 0.57291 0.49451 0.68899 0.0
C1030 C 0.60322 0.60832 0.76415 0.0
C1031 C 0.58025 0.57545 0.77138 0.0
C1032 C 0.60493 0.61151 0.74593 0.0
C1033 C 0.58401 0.58183 0.73459 0.0
C1034 C 0.5614 0.54898 0.74179 0.0
C1035 C 0.55931 0.54588 0.75993 0.0
C1036 C 0.58563 0.58471 0.71521 0.0
C1037 C 0.59614 0.56404 0.70605 0.0
C1038 C 0.57711 0.60766 0.70578 0.0
C1039 C 0.56448 0.62913 0.71456 0.0
C1040 C 0.53442 0.6127 0.72444 0.0
C1041 C 0.52275 0.63312 0.73274 0.0
C1042 C 0.54076 0.66998 0.73116 0.0
C1043 C 0.57042 0.68648 0.72122 0.0
C1044 C 0.58223 0.66618 0.71291 0.0
C1045 C 0.57142 0.55884 0.63005 0.0
C1046 C 0.5902 0.59134 0.62169 0.0
C1047 C 0.5706 0.5579 0.64832 0.0
C1048 C 0.58899 0.58939 0.65873 0.0
C1049 C 0.60715 0.62195 0.65039 0.0
C1050 C 0.60776 0.62293 0.6321 0.0
C1051 C 0.5894 0.5883 0.67827 0.0
C1052 C 0.57929 0.60931 0.68749 0.0
C1053 C 0.5986 0.56585 0.6878 0.0
C1054 C 0.61216 0.54502 0.67918 0.0
C1055 C 0.64176 0.56195 0.66902 0.0
C1056 C 0.65426 0.54216 0.66081 0.0
C1057 C 0.63756 0.50544 0.66278 0.0
C1058 C 0.60837 0.48845 0.673 0.0
C1059 C 0.59573 0.50812 0.68121 0.0
H1060 H 0.64728 0.49017 0.65642 0.0
H1061 H 0.53168 0.68575 0.73759 0.0
H1062 H 0.52277 1.03539 0.54853 0.0
H1063 H 0.52802 1.03312 0.58048 0.0
H1064 H 0.63452 0.12321 0.58175 0.0
H1065 H 0.62949 0.12591 0.54991 0.0
H1066 H 0.62832 0.06559 0.60106 0.0
H1067 H 0.57207 0.13608 0.59421 0.0
H1068 H 0.52583 0.14879 0.58271 0.0
H1069 H 0.44629 0.05636 0.60708 0.0
H1070 H 0.49203 1.0428 0.61852 0.0
H1071 H 0.66568 0.11185 0.69075 0.0
H1072 H 0.65501 0.11334 0.6592 0.0
H1073 H 0.54603 1.03005 0.66233 0.0
H1074 H 0.55619 1.02924 0.69409 0.0
H1075 H 0.55088 0.08115 0.64064 0.0
H1076 H 0.60573 1.01066 0.64805 0.0
H1077 H 0.65077 0.99605 0.65928 0.0
H1078 H 0.73123 0.08541 0.6335 0.0
H1079 H 0.68673 0.10088 0.62232 0.0
C1080 C 0.54723 0.05484 0.55563 0.0
C1081 C 0.57571 0.08086 0.54672 0.0
C1082 C 0.55013 0.05354 0.57386 0.0
C1083 C 0.58162 0.07806 0.58342 0.0
C1084 C 0.61002 0.10407 0.57457 0.0
C1085 C 0.60702 0.10564 0.55639 0.0
C1086 C 0.58542 0.07614 0.60264 0.0
C1087 C 0.6117 0.06941 0.60975 0.0
C1088 C 0.56292 0.08001 0.61385 0.0
C1089 C 0.53542 0.08821 0.60706 0.0
C1090 C 0.54467 0.11828 0.59698 0.0
C1091 C 0.51857 0.12568 0.5905 0.0
C1092 C 0.48313 0.10334 0.59411 0.0
C1093 C 0.47374 0.07361 0.60426 0.0
C1094 C 0.49975 0.06607 0.61076 0.0
C1095 C 0.6393 0.09418 0.68479 0.0
C1096 C 0.6118 0.07035 0.69493 0.0
C1097 C 0.63333 0.09482 0.66673 0.0
C1098 C 0.59986 0.07145 0.6584 0.0
C1099 C 0.5721 0.04818 0.6685 0.0
C1100 C 0.57804 0.04755 0.68661 0.0
C1101 C 0.59416 0.07107 0.63911 0.0
C1102 C 0.56746 0.07723 0.63197 0.0
C1103 C 0.61609 0.06638 0.62783 0.0
C1104 C 0.64294 0.05712 0.63448 0.0
C1105 C 0.63308 1.02737 0.64489 0.0
C1106 C 0.6585 1.01891 0.65123 0.0
C1107 C 0.69386 1.03984 0.64714 0.0
C1108 C 0.70384 0.06924 0.63667 0.0
C1109 C 0.67852 0.07785 0.63032 0.0
H1110 H 0.7135 1.03324 0.65206 0.0
H1111 H 0.46295 0.10911 0.58909 0.0
H1112 H 0.56677 0.59047 0.88553 0.0
H1113 H 0.5647 0.57989 0.91703 0.0
H1114 H 0.58476 0.4939 0.9087 0.0
H1115 H 0.58719 0.50437 0.87747 0.0
H1116 H 0.52003 0.52146 0.93419 0.0
H1117 H 0.63515 0.49051 0.94255 0.0
H1118 H 0.69312 0.51018 0.93053 0.0
H1119 H 0.70202 0.61014 0.91774 0.0
H1120 H 0.64439 0.59132 0.92991 0.0
H1121 H 0.49747 0.40956 0.00423 0.0
H1122 H 0.50828 0.43803 0.976 0.0
H1123 H 0.60201 0.53011 0.99923 0.0
H1124 H 0.59204 0.50127 0.02741 0.0
H1125 H 0.61504 0.51257 0.96858 0.0
H1126 H 0.52668 0.53308 0.98965 0.0
H1127 H 0.47032 0.51804 0.00225 0.0
H1128 H 0.41164 0.44863 0.95786 0.0
H1129 H 0.46766 0.46284 0.9451 0.0
C1130 C 0.57098 0.56946 0.89045 0.0
C1131 C 0.57715 0.54825 0.879 0.0
C1132 C 0.5697 0.56344 0.90842 0.0
C1133 C 0.57496 0.53638 0.91521 0.0
C1134 C 0.58123 0.51532 0.90379 0.0
C1135 C 0.58241 0.52122 0.88589 0.0
C1136 C 0.57263 0.52891 0.93411 0.0
C1137 C 0.54087 0.51976 0.94177 0.0
C1138 C 0.60022 0.52756 0.9441 0.0
C1139 C 0.63529 0.53936 0.93705 0.0
C1140 C 0.64957 0.51677 0.93728 0.0
C1141 C 0.68236 0.52777 0.93041 0.0
C1142 C 0.7012 0.56136 0.92334 0.0
C1143 C 0.68735 0.58409 0.92317 0.0
C1144 C 0.6546 0.57325 0.93003 0.0
C1145 C 0.52059 0.4357 0.00331 0.0
C1146 C 0.54388 0.45314 0.01808 0.0
C1147 C 0.5265 0.45214 0.98721 0.0
C1148 C 0.55565 0.48643 0.98558 0.0
C1149 C 0.57923 0.50374 1.00023 0.0
C1150 C 0.57335 0.4873 0.01634 0.0
C1151 C 0.56186 0.50372 0.96843 0.0
C1152 C 0.59436 0.5147 0.9611 0.0
C1153 C 0.53522 0.50746 0.95888 0.0
C1154 C 0.50141 0.49886 0.96648 0.0
C1155 C 0.50176 0.51441 0.98263 0.0
C1156 C 0.46987 0.50606 0.9898 0.0
C1157 C 0.43742 0.48235 0.98088 0.0
C1158 C 0.4368 0.46698 0.96476 0.0
C1159 C 0.46862 0.47521 0.95754 0.0
H1160 H 0.41276 0.47592 0.98645 0.0
H1161 H 0.72655 0.56979 0.918 0.0
H1162 H 1.04937 0.59061 0.21627 0.0
H1163 H 1.05021 0.58195 0.24791 0.0
H1164 H 0.13079 0.55336 0.2438 0.0
H1165 H 0.13048 0.56228 0.21232 0.0
H1166 H 0.07134 0.50481 0.2623 0.0
H1167 H 0.15554 0.63064 0.26042 0.0
H1168 H 0.17482 0.69219 0.25228 0.0
H1169 H 0.0921 0.69023 0.28073 0.0
H1170 H 0.07199 0.62843 0.28883 0.0
H1171 H 0.12699 0.50289 0.34995 0.0
H1172 H 0.12508 0.51602 0.31908 0.0
H1173 H 1.05868 0.5602 0.32913 0.0
H1174 H 1.06192 0.54875 0.36025 0.0
H1175 H 0.10725 0.60056 0.30748 0.0
H1176 H 1.02333 0.47696 0.31032 0.0
H1177 H 1.00117 0.41473 0.31818 0.0
H1178 H 0.07858 0.41096 0.28765 0.0
H1179 H 0.10157 0.47337 0.2798 0.0
C1180 C 0.06743 0.58272 0.22214 0.0
C1181 C 0.08989 0.57716 0.21183 0.0
C1182 C 0.06791 0.57786 0.24018 0.0
C1183 C 0.09058 0.56706 0.24811 0.0
C1184 C 0.11311 0.56168 0.23787 0.0
C1185 C 0.11299 0.56696 0.21991 0.0
C1186 C 0.09028 0.56039 0.26703 0.0
C1187 C 0.07955 0.52576 0.27222 0.0
C1188 C 0.09984 0.58759 0.27985 0.0
C1189 C 0.11202 0.62478 0.27506 0.0
C1190 C 0.14125 0.64321 0.26481 0.0
C1191 C 0.15238 0.67817 0.26023 0.0
C1192 C 0.13463 0.69507 0.26594 0.0
C1193 C 0.10579 0.67708 0.27629 0.0
C1194 C 0.09453 0.6421 0.28089 0.0
C1195 C 0.11235 0.51582 0.34567 0.0
C1196 C 0.0945 0.52464 0.35758 0.0
C1197 C 0.11094 0.52294 0.32796 0.0
C1198 C 0.09124 0.53855 0.32175 0.0
C1199 C 0.07387 0.54794 0.33363 0.0
C1200 C 0.07546 0.54105 0.35138 0.0
C1201 C 0.0888 0.54496 0.30284 0.0
C1202 C 0.09888 0.5795 0.29762 0.0
C1203 C 0.07818 0.51755 0.28995 0.0
C1204 C 0.06439 0.47996 0.2946 0.0
C1205 C 1.03582 0.46295 0.30539 0.0
C1206 C 1.02307 0.42763 0.30983 0.0
C1207 C 1.03851 0.40893 0.30345 0.0
C1208 C 0.06668 0.42549 0.29259 0.0
C1209 C 0.07956 0.46083 0.28813 0.0
H1210 H 1.0286 0.38158 0.3069 0.0
H1211 H 0.14329 0.72214 0.26238 0.0
loop_
_geom_bond_atom_site_label_1
_geom_bond_atom_site_label_2
_geom_bond_distance
_geom_bond_site_symmetry_2
_ccdc_geom_bond_type
Tb0 C10 2.825 . S
Tb0 O11 2.347 . S
Tb0 O14 2.366 . S
Tb0 O19 2.418 . S
Tb0 O20 2.384 1_455 S
Tb0 O23 2.479 . S
Tb0 O24 2.471 . S
Eu1 O12 2.418 . S
Eu1 O13 2.384 . S
Eu1 O16 2.479 1_455 S
Eu1 O17 2.471 1_455 S
Eu1 O18 2.347 . S
Eu1 O21 2.366 1_455 S
Eu1 C31 2.825 1_455 S
C2 O18 1.259 . S
C2 O19 1.265 . S
C3 O20 1.255 . S
C3 O21 1.265 . S
C4 C6 1.380 . S
C4 C7 1.374 . S
C4 C10 1.507 . S
C5 C6 1.384 . S
C5 C9 1.387 . S
C5 H32 0.930 . S
C6 C4 1.380 . S
C6 C5 1.384 . S
C6 H33 0.931 . S
C7 C4 1.374 . S
C7 C8 1.390 . S
C7 H34 0.930 . S
C8 C7 1.390 . S
C8 C9 1.391 . S
C8 H35 0.930 . S
C9 C5 1.387 . S
C9 C8 1.391 . S
C10 Tb0 2.825 . S
C10 C4 1.507 . S
C10 O23 1.238 . S
C10 O24 1.247 . S
O11 Tb0 2.347 . S
O11 C15 1.259 . S
O12 Eu1 2.418 . S
O12 C15 1.265 . S
O13 Eu1 2.384 . S
O13 C22 1.255 . S
O14 Tb0 2.366 . S
O14 C22 1.265 . S
C15 O11 1.259 . S
C15 O12 1.265 . S
O16 Eu1 2.479 1_655 S
O16 C31 1.238 . S
O17 Eu1 2.471 1_655 S
O17 C31 1.247 . S
O18 Eu1 2.347 . S
O18 C2 1.259 . S
O19 Tb0 2.418 . S
O19 C2 1.265 . S
O20 Tb0 2.384 1_655 S
O20 C3 1.255 . S
O21 Eu1 2.366 1_655 S
O21 C3 1.265 . S
C22 O13 1.255 . S
C22 O14 1.265 . S
O23 Tb0 2.479 . S
O23 C10 1.238 . S
O24 Tb0 2.471 . S
O24 C10 1.247 . S
C25 C28 1.380 . S
C25 C29 1.374 . S
C25 C31 1.507 . S
C26 C27 1.387 . S
C26 C30 1.391 . S
C27 C26 1.387 . S
C27 C28 1.384 . S
C27 H36 0.930 . S
C28 C25 1.380 . S
C28 C27 1.384 . S
C28 H37 0.931 . S
C29 C25 1.374 . S
C29 C30 1.390 . S
C29 H38 0.930 . S
C30 C26 1.391 . S
C30 C29 1.390 . S
C30 H39 0.930 . S
C31 Eu1 2.825 1_655 S
C31 O16 1.238 . S
C31 O17 1.247 . S
C31 C25 1.507 . S
H32 C5 0.930 . S
H33 C6 0.931 . S
H34 C7 0.930 . S
H35 C8 0.930 . S
H36 C27 0.930 . S
H37 C28 0.931 . S
H38 C29 0.930 . S
H39 C30 0.930 . S
Tb40 C50 2.825 . S
Tb40 O51 2.347 . S
Tb40 O54 2.366 . S
Tb40 O59 2.418 . S
Tb40 O60 2.390 . S
Tb40 O63 2.479 . S
Tb40 O64 2.471 . S
Eu41 O52 2.418 . S
Eu41 O53 2.384 . S
Eu41 O56 2.479 1_545 S
Eu41 O57 2.471 1_545 S
Eu41 O58 2.347 . S
Eu41 O61 2.366 1_545 S
Eu41 C71 2.825 1_545 S
C42 O58 1.259 . S
C42 O59 1.265 . S
C43 O60 1.253 1_565 S
C43 O61 1.265 . S
C44 C46 1.380 . S
C44 C47 1.374 . S
C44 C50 1.507 . S
C45 C46 1.384 . S
C45 C49 1.387 . S
C45 H72 0.930 . S
C46 C44 1.380 . S
C46 C45 1.384 . S
C46 H73 0.931 . S
C47 C44 1.374 . S
C47 C48 1.390 . S
C47 H74 0.930 . S
C48 C47 1.390 . S
C48 C49 1.391 . S
C48 H75 0.930 . S
C49 C45 1.387 . S
C49 C48 1.391 . S
C50 Tb40 2.825 . S
C50 C44 1.507 . S
C50 O63 1.238 . S
C50 O64 1.247 . S
O51 Tb40 2.347 . S
O51 C55 1.259 . S
O52 Eu41 2.418 . S
O52 C55 1.265 . S
O53 Eu41 2.384 . S
O53 C62 1.255 . S
O54 Tb40 2.366 . S
O54 C62 1.265 . S
C55 O51 1.259 . S
C55 O52 1.265 . S
O56 Eu41 2.479 1_565 S
O56 C71 1.238 . S
O57 Eu41 2.471 1_565 S
O57 C71 1.247 . S
O58 Eu41 2.347 . S
O58 C42 1.259 . S
O59 Tb40 2.418 . S
O59 C42 1.265 . S
O60 Tb40 2.390 . S
O60 C43 1.253 1_545 S
O61 Eu41 2.366 1_565 S
O61 C43 1.265 . S
C62 O53 1.255 . S
C62 O54 1.265 . S
O63 Tb40 2.479 . S
O63 C50 1.238 . S
O64 Tb40 2.471 . S
O64 C50 1.247 . S
C65 C68 1.380 . S
C65 C69 1.374 . S
C65 C71 1.507 . S
C66 C67 1.387 . S
C66 C70 1.391 . S
C67 C66 1.387 . S
C67 C68 1.384 . S
C67 H76 0.930 . S
C68 C65 1.380 . S
C68 C67 1.384 . S
C68 H77 0.931 . S
C69 C65 1.374 . S
C69 C70 1.390 . S
C69 H78 0.930 . S
C70 C66 1.391 . S
C70 C69 1.390 . S
C70 H79 0.930 . S
C71 Eu41 2.825 1_565 S
C71 O56 1.238 . S
C71 O57 1.247 . S
C71 C65 1.507 . S
H72 C45 0.930 . S
H73 C46 0.931 . S
H74 C47 0.930 . S
H75 C48 0.930 . S
H76 C67 0.930 . S
H77 C68 0.931 . S
H78 C69 0.930 . S
H79 C70 0.930 . S
Tb80 C90 2.825 . S
Tb80 O91 2.347 . S
Tb80 O94 2.366 . S
Tb80 O99 2.418 . S
Tb80 O100 2.384 . S
Tb80 O103 2.479 . S
Tb80 O104 2.471 . S
Eu81 O92 2.418 . S
Eu81 O93 2.384 . S
Eu81 O96 2.479 . S
Eu81 O97 2.471 . S
Eu81 O98 2.347 . S
Eu81 O101 2.366 . S
Eu81 C111 2.825 . S
C82 O98 1.259 . S
C82 O99 1.265 . S
C83 O100 1.255 . S
C83 O101 1.265 . S
C84 C86 1.380 . S
C84 C87 1.374 . S
C84 C90 1.507 . S
C85 C86 1.384 . S
C85 C89 1.387 . S
C85 H112 0.930 . S
C86 C84 1.380 . S
C86 C85 1.384 . S
C86 H113 0.931 . S
C87 C84 1.374 . S
C87 C88 1.390 . S
C87 H114 0.930 . S
C88 C87 1.390 . S
C88 C89 1.391 . S
C88 H115 0.930 . S
C89 C85 1.387 . S
C89 C88 1.391 . S
C90 Tb80 2.825 . S
C90 C84 1.507 . S
C90 O103 1.238 . S
C90 O104 1.247 . S
O91 Tb80 2.347 . S
O91 C95 1.259 . S
O92 Eu81 2.418 . S
O92 C95 1.265 . S
O93 Eu81 2.384 . S
O93 C102 1.255 . S
O94 Tb80 2.366 . S
O94 C102 1.265 . S
C95 O91 1.259 . S
C95 O92 1.265 . S
O96 Eu81 2.479 . S
O96 C111 1.238 . S
O97 Eu81 2.471 . S
O97 C111 1.247 . S
O98 Eu81 2.347 . S
O98 C82 1.259 . S
O99 Tb80 2.418 . S
O99 C82 1.265 . S
O100 Tb80 2.384 . S
O100 C83 1.255 . S
O101 Eu81 2.366 . S
O101 C83 1.265 . S
C102 O93 1.255 . S
C102 O94 1.265 . S
O103 Tb80 2.479 . S
O103 C90 1.238 . S
O104 Tb80 2.471 . S
O104 C90 1.247 . S
C105 C108 1.380 . S
C105 C109 1.374 . S
C105 C111 1.507 . S
C106 C107 1.387 . S
C106 C110 1.391 . S
C107 C106 1.387 . S
C107 C108 1.384 . S
C107 H116 0.930 . S
C108 C105 1.380 . S
C108 C107 1.384 . S
C108 H117 0.931 . S
C109 C105 1.374 . S
C109 C110 1.390 . S
C109 H118 0.930 . S
C110 C106 1.391 . S
C110 C109 1.390 . S
C110 H119 0.930 . S
C111 Eu81 2.825 . S
C111 O96 1.238 . S
C111 O97 1.247 . S
C111 C105 1.507 . S
H112 C85 0.930 . S
H113 C86 0.931 . S
H114 C87 0.930 . S
H115 C88 0.930 . S
H116 C107 0.930 . S
H117 C108 0.931 . S
H118 C109 0.930 . S
H119 C110 0.930 . S
P120 O131 1.490 . S
P120 C134 1.812 . S
P120 C140 1.803 1_565 S
P120 C146 1.819 1_565 S
H121 C135 0.941 . S
H122 C136 0.939 . S
H123 C138 0.940 . S
H124 C139 0.940 . S
H125 C141 0.939 . S
H126 C142 0.942 . S
H127 C144 0.940 . S
H128 C145 0.939 . S
H129 C147 0.941 . S
H130 C151 0.939 . S
O131 P120 1.490 . S
H132 C148 0.939 . S
H133 C150 0.940 . S
C134 P120 1.812 . S
C134 C135 1.389 . S
C134 C139 1.391 . S
C135 H121 0.941 . S
C135 C134 1.389 . S
C135 C136 1.397 . S
C136 H122 0.939 . S
C136 C135 1.397 . S
C136 C137 1.378 . S
C137 C136 1.378 . S
C137 C138 1.378 . S
C138 H123 0.940 . S
C138 C137 1.378 . S
C138 C139 1.396 . S
C139 H124 0.940 . S
C139 C134 1.391 . S
C139 C138 1.396 . S
C140 P120 1.803 1_545 S
C140 C141 1.378 . S
C140 C145 1.400 . S
C141 H125 0.939 . S
C141 C140 1.378 . S
C141 C142 1.361 . S
C142 H126 0.942 . S
C142 C141 1.361 . S
C142 C143 1.369 . S
C143 C142 1.369 . S
C143 C144 1.404 . S
C144 H127 0.940 . S
C144 C143 1.404 . S
C144 C145 1.389 . S
C145 H128 0.939 . S
C145 C140 1.400 . S
C145 C144 1.389 . S
C146 P120 1.819 1_545 S
C146 C147 1.391 1_545 S
C146 C151 1.391 . S
C147 H129 0.941 . S
C147 C146 1.391 1_565 S
C147 C148 1.396 . S
C148 H132 0.939 . S
C148 C147 1.396 . S
C148 C149 1.397 1_565 S
C149 C148 1.397 1_545 S
C149 C150 1.385 . S
C150 H133 0.940 . S
C150 C149 1.385 . S
C150 C151 1.388 . S
C151 H130 0.939 . S
C151 C146 1.391 . S
C151 C150 1.388 . S
P152 O163 1.490 . S
P152 C166 1.812 . S
P152 C172 1.803 . S
P152 C178 1.819 . S
H153 C167 0.941 . S
H154 C168 0.939 . S
H155 C170 0.940 . S
H156 C171 0.940 . S
H157 C173 0.939 . S
H158 C174 0.942 . S
H159 C176 0.940 . S
H160 C177 0.939 . S
H161 C179 0.941 . S
H162 C183 0.939 . S
O163 P152 1.490 . S
H164 C180 0.939 . S
H165 C182 0.940 . S
C166 P152 1.812 . S
C166 C167 1.389 . S
C166 C171 1.391 . S
C167 H153 0.941 . S
C167 C166 1.389 . S
C167 C168 1.397 . S
C168 H154 0.939 . S
C168 C167 1.397 . S
C168 C169 1.378 . S
C169 C168 1.378 . S
C169 C170 1.378 . S
C170 H155 0.940 . S
C170 C169 1.378 . S
C170 C171 1.396 . S
C171 H156 0.940 . S
C171 C166 1.391 . S
C171 C170 1.396 . S
C172 P152 1.803 . S
C172 C173 1.378 . S
C172 C177 1.400 . S
C173 H157 0.939 . S
C173 C172 1.378 . S
C173 C174 1.361 . S
C174 H158 0.942 . S
C174 C173 1.361 . S
C174 C175 1.369 . S
C175 C174 1.369 . S
C175 C176 1.404 . S
C176 H159 0.940 . S
C176 C175 1.404 . S
C176 C177 1.389 . S
C177 H160 0.939 . S
C177 C172 1.400 . S
C177 C176 1.389 . S
C178 P152 1.819 . S
C178 C179 1.391 . S
C178 C183 1.391 . S
C179 H161 0.941 . S
C179 C178 1.391 . S
C179 C180 1.396 . S
C180 H164 0.939 . S
C180 C179 1.396 . S
C180 C181 1.397 . S
C181 C180 1.397 . S
C181 C182 1.385 . S
C182 H165 0.940 . S
C182 C181 1.385 . S
C182 C183 1.388 . S
C183 H162 0.939 . S
C183 C178 1.391 . S
C183 C182 1.388 . S
P184 O195 1.490 . S
P184 C198 1.812 . S
P184 C204 1.803 1_455 S
P184 C210 1.819 . S
H185 C199 0.941 . S
H186 C200 0.939 . S
H187 C202 0.940 . S
H188 C203 0.940 . S
H189 C205 0.939 . S
H190 C206 0.942 . S
H191 C208 0.940 . S
H192 C209 0.939 . S
H193 C211 0.941 . S
H194 C215 0.939 . S
O195 P184 1.490 . S
H196 C212 0.939 . S
H197 C214 0.940 . S
C198 P184 1.812 . S
C198 C199 1.389 . S
C198 C203 1.391 . S
C199 H185 0.941 . S
C199 C198 1.389 . S
C199 C200 1.397 . S
C200 H186 0.939 . S
C200 C199 1.397 . S
C200 C201 1.378 . S
C201 C200 1.378 . S
C201 C202 1.378 . S
C202 H187 0.940 . S
C202 C201 1.378 . S
C202 C203 1.396 . S
C203 H188 0.940 . S
C203 C198 1.391 . S
C203 C202 1.396 . S
C204 P184 1.803 1_655 S
C204 C205 1.378 . S
C204 C209 1.400 . S
C205 H189 0.939 . S
C205 C204 1.378 . S
C205 C206 1.361 . S
C206 H190 0.942 . S
C206 C205 1.361 . S
C206 C207 1.369 . S
C207 C206 1.369 . S
C207 C208 1.404 . S
C208 H191 0.940 . S
C208 C207 1.404 . S
C208 C209 1.389 . S
C209 H192 0.939 . S
C209 C204 1.400 . S
C209 C208 1.389 . S
C210 P184 1.819 . S
C210 C211 1.391 . S
C210 C215 1.391 1_455 S
C211 H193 0.941 . S
C211 C210 1.391 . S
C211 C212 1.396 . S
C212 H196 0.939 . S
C212 C211 1.396 . S
C212 C213 1.397 . S
C213 C212 1.397 . S
C213 C214 1.385 1_455 S
C214 H197 0.940 . S
C214 C213 1.385 1_655 S
C214 C215 1.388 . S
C215 H194 0.939 . S
C215 C210 1.391 1_655 S
C215 C214 1.388 . S
P216 O227 1.490 . S
P216 C230 1.812 . S
P216 C236 1.803 1_455 S
P216 C242 1.819 . S
H217 C231 0.941 . S
H218 C232 0.939 . S
H219 C234 0.940 . S
H220 C235 0.940 . S
H221 C237 0.939 . S
H222 C238 0.942 . S
H223 C240 0.940 . S
H224 C241 0.939 . S
H225 C243 0.941 . S
H226 C247 0.939 . S
O227 P216 1.490 . S
H228 C244 0.939 . S
H229 C246 0.940 . S
C230 P216 1.812 . S
C230 C231 1.389 . S
C230 C235 1.391 . S
C231 H217 0.941 . S
C231 C230 1.389 . S
C231 C232 1.397 . S
C232 H218 0.939 . S
C232 C231 1.397 . S
C232 C233 1.378 . S
C233 C232 1.378 . S
C233 C234 1.378 . S
C234 H219 0.940 . S
C234 C233 1.378 . S
C234 C235 1.396 . S
C235 H220 0.940 . S
C235 C230 1.391 . S
C235 C234 1.396 . S
C236 P216 1.803 1_655 S
C236 C237 1.378 . S
C236 C241 1.400 . S
C237 H221 0.939 . S
C237 C236 1.378 . S
C237 C238 1.361 . S
C238 H222 0.942 . S
C238 C237 1.361 . S
C238 C239 1.369 . S
C239 C238 1.369 . S
C239 C240 1.404 . S
C240 H223 0.940 . S
C240 C239 1.404 . S
C240 C241 1.389 . S
C241 H224 0.939 . S
C241 C236 1.400 . S
C241 C240 1.389 . S
C242 P216 1.819 . S
C242 C243 1.391 . S
C242 C247 1.391 1_455 S
C243 H225 0.941 . S
C243 C242 1.391 . S
C243 C244 1.396 . S
C244 H228 0.939 . S
C244 C243 1.396 . S
C244 C245 1.397 . S
C245 C244 1.397 . S
C245 C246 1.385 1_455 S
C246 H229 0.940 . S
C246 C245 1.385 1_655 S
C246 C247 1.388 . S
C247 H226 0.939 . S
C247 C242 1.391 1_655 S
C247 C246 1.388 . S
P248 O259 1.490 . S
P248 C262 1.812 . S
P248 C268 1.803 1_545 S
P248 C274 1.819 . S
H249 C263 0.941 . S
H250 C264 0.939 . S
H251 C266 0.940 . S
H252 C267 0.940 . S
H253 C269 0.939 . S
H254 C270 0.942 . S
H255 C272 0.940 . S
H256 C273 0.939 . S
H257 C275 0.941 . S
H258 C279 0.939 . S
O259 P248 1.490 . S
H260 C276 0.939 . S
H261 C278 0.940 . S
C262 P248 1.812 . S
C262 C263 1.389 . S
C262 C267 1.391 . S
C263 H249 0.941 . S
C263 C262 1.389 . S
C263 C264 1.397 . S
C264 H250 0.939 . S
C264 C263 1.397 . S
C264 C265 1.378 . S
C265 C264 1.378 . S
C265 C266 1.378 . S
C266 H251 0.940 . S
C266 C265 1.378 . S
C266 C267 1.396 . S
C267 H252 0.940 . S
C267 C262 1.391 . S
C267 C266 1.396 . S
C268 P248 1.803 1_565 S
C268 C269 1.378 . S
C268 C273 1.400 . S
C269 H253 0.939 . S
C269 C268 1.378 . S
C269 C270 1.361 . S
C270 H254 0.942 . S
C270 C269 1.361 . S
C270 C271 1.369 . S
C271 C270 1.369 . S
C271 C272 1.404 . S
C272 H255 0.940 . S
C272 C271 1.404 . S
C272 C273 1.389 . S
C273 H256 0.939 . S
C273 C268 1.400 . S
C273 C272 1.389 . S
C274 P248 1.819 . S
C274 C275 1.391 . S
C274 C279 1.391 1_545 S
C275 H257 0.941 . S
C275 C274 1.391 . S
C275 C276 1.396 . S
C276 H260 0.939 . S
C276 C275 1.396 . S
C276 C277 1.397 . S
C277 C276 1.397 . S
C277 C278 1.385 1_545 S
C278 H261 0.940 . S
C278 C277 1.385 1_565 S
C278 C279 1.388 . S
C279 H258 0.939 . S
C279 C274 1.391 1_565 S
C279 C278 1.388 . S
P280 O291 1.490 . S
P280 C294 1.812 . S
P280 C300 1.803 . S
P280 C306 1.819 . S
H281 C295 0.941 . S
H282 C296 0.939 . S
H283 C298 0.940 . S
H284 C299 0.940 . S
H285 C301 0.939 . S
H286 C302 0.942 . S
H287 C304 0.940 . S
H288 C305 0.939 . S
H289 C307 0.941 . S
H290 C311 0.939 . S
O291 P280 1.490 . S
H292 C308 0.939 . S
H293 C310 0.940 . S
C294 P280 1.812 . S
C294 C295 1.389 . S
C294 C299 1.391 . S
C295 H281 0.941 . S
C295 C294 1.389 . S
C295 C296 1.397 . S
C296 H282 0.939 . S
C296 C295 1.397 . S
C296 C297 1.378 . S
C297 C296 1.378 . S
C297 C298 1.378 . S
C298 H283 0.940 . S
C298 C297 1.378 . S
C298 C299 1.396 . S
C299 H284 0.940 . S
C299 C294 1.391 . S
C299 C298 1.396 . S
C300 P280 1.803 . S
C300 C301 1.378 . S
C300 C305 1.400 . S
C301 H285 0.939 . S
C301 C300 1.378 . S
C301 C302 1.361 . S
C302 H286 0.942 . S
C302 C301 1.361 . S
C302 C303 1.369 . S
C303 C302 1.369 . S
C303 C304 1.404 . S
C304 H287 0.940 . S
C304 C303 1.404 . S
C304 C305 1.389 . S
C305 H288 0.939 . S
C305 C300 1.400 . S
C305 C304 1.389 . S
C306 P280 1.819 . S
C306 C307 1.391 . S
C306 C311 1.391 . S
C307 H289 0.941 . S
C307 C306 1.391 . S
C307 C308 1.396 . S
C308 H292 0.939 . S
C308 C307 1.396 . S
C308 C309 1.397 . S
C309 C308 1.397 . S
C309 C310 1.385 . S
C310 H293 0.940 . S
C310 C309 1.385 . S
C310 C311 1.388 . S
C311 H290 0.939 . S
C311 C306 1.391 . S
C311 C310 1.388 . S
H312 C330 0.951 . S
H313 C332 0.951 . S
H314 C334 0.950 . S
H315 C335 0.950 . S
H316 C337 0.950 . S
H317 C340 0.950 . S
H318 C341 0.950 . S
H319 C343 0.950 . S
H320 C344 0.950 . S
H321 C345 0.951 . S
H322 C347 0.951 . S
H323 C349 0.950 . S
H324 C350 0.950 . S
H325 C352 0.950 . S
H326 C355 0.950 . S
H327 C356 0.950 . S
H328 C358 0.950 . S
H329 C359 0.950 . S
C330 H312 0.951 . S
C330 C331 1.366 . S
C330 C332 1.388 . S
C331 C330 1.366 . S
C331 C335 1.385 . S
C332 H313 0.951 . S
C332 C330 1.388 . S
C332 C333 1.366 . S
C333 C332 1.366 . S
C333 C334 1.414 . S
C333 C336 1.499 . S
C334 H314 0.950 . S
C334 C333 1.414 . S
C334 C335 1.374 . S
C335 H315 0.950 . S
C335 C331 1.385 . S
C335 C334 1.374 . S
C336 C333 1.499 . S
C336 C337 1.373 . S
C336 C338 1.389 . S
C337 H316 0.950 . S
C337 C336 1.373 . S
C337 C353 1.377 . S
C338 C336 1.389 . S
C338 C339 1.524 . S
C338 C352 1.377 . S
C339 C338 1.524 . S
C339 C340 1.397 . S
C339 C344 1.363 . S
C340 H317 0.950 . S
C340 C339 1.397 . S
C340 C341 1.334 . S
C341 H318 0.950 . S
C341 C340 1.334 . S
C341 C342 1.287 . S
C342 C341 1.287 . S
C342 C343 1.524 . S
C342 H361 0.913 . S
C343 H319 0.950 . S
C343 C342 1.524 . S
C343 C344 1.415 . S
C344 H320 0.950 . S
C344 C339 1.363 . S
C344 C343 1.415 . S
C345 H321 0.951 . S
C345 C346 1.366 . S
C345 C347 1.388 . S
C346 C345 1.366 . S
C346 C350 1.385 . S
C347 H322 0.951 . S
C347 C345 1.388 . S
C347 C348 1.366 . S
C348 C347 1.366 . S
C348 C349 1.414 . S
C348 C351 1.499 . S
C349 H323 0.950 . S
C349 C348 1.414 . S
C349 C350 1.374 . S
C350 H324 0.950 . S
C350 C346 1.385 . S
C350 C349 1.374 . S
C351 C348 1.499 . S
C351 C352 1.373 . S
C351 C353 1.389 . S
C352 H325 0.950 . S
C352 C338 1.377 . S
C352 C351 1.373 . S
C353 C337 1.377 . S
C353 C351 1.389 . S
C353 C354 1.524 . S
C354 C353 1.524 . S
C354 C355 1.397 . S
C354 C359 1.363 . S
C355 H326 0.950 . S
C355 C354 1.397 . S
C355 C356 1.334 . S
C356 H327 0.950 . S
C356 C355 1.334 . S
C356 C357 1.287 . S
C357 C356 1.287 . S
C357 C358 1.524 . S
C357 H360 0.999 . S
C358 H328 0.950 . S
C358 C357 1.524 . S
C358 C359 1.415 . S
C359 H329 0.950 . S
C359 C354 1.363 . S
C359 C358 1.415 . S
H360 C357 0.999 . S
H361 C342 0.913 . S
H362 C380 0.951 . S
H363 C382 0.951 . S
H364 C384 0.950 . S
H365 C385 0.950 . S
H366 C387 0.950 . S
H367 C390 0.950 . S
H368 C391 0.950 . S
H369 C393 0.950 . S
H370 C394 0.950 . S
H371 C395 0.951 . S
H372 C397 0.951 . S
H373 C399 0.950 . S
H374 C400 0.950 . S
H375 C402 0.950 . S
H376 C405 0.950 . S
H377 C406 0.950 . S
H378 C408 0.950 . S
H379 C409 0.950 . S
C380 H362 0.951 . S
C380 C381 1.366 . S
C380 C382 1.388 . S
C381 C380 1.366 . S
C381 C385 1.385 . S
C382 H363 0.951 . S
C382 C380 1.388 . S
C382 C383 1.366 . S
C383 C382 1.366 . S
C383 C384 1.414 . S
C383 C386 1.499 . S
C384 H364 0.950 . S
C384 C383 1.414 . S
C384 C385 1.374 . S
C385 H365 0.950 . S
C385 C381 1.385 . S
C385 C384 1.374 . S
C386 C383 1.499 . S
C386 C387 1.373 . S
C386 C388 1.389 . S
C387 H366 0.950 . S
C387 C386 1.373 . S
C387 C403 1.377 . S
C388 C386 1.389 . S
C388 C389 1.524 . S
C388 C402 1.377 . S
C389 C388 1.524 . S
C389 C390 1.397 . S
C389 C394 1.363 . S
C390 H367 0.950 . S
C390 C389 1.397 . S
C390 C391 1.334 . S
C391 H368 0.950 . S
C391 C390 1.334 . S
C391 C392 1.287 . S
C392 C391 1.287 . S
C392 C393 1.524 . S
C392 H411 0.913 . S
C393 H369 0.950 . S
C393 C392 1.524 . S
C393 C394 1.415 . S
C394 H370 0.950 . S
C394 C389 1.363 . S
C394 C393 1.415 . S
C395 H371 0.951 . S
C395 C396 1.366 . S
C395 C397 1.388 . S
C396 C395 1.366 . S
C396 C400 1.385 . S
C397 H372 0.951 . S
C397 C395 1.388 . S
C397 C398 1.366 . S
C398 C397 1.366 . S
C398 C399 1.414 . S
C398 C401 1.499 . S
C399 H373 0.950 . S
C399 C398 1.414 . S
C399 C400 1.374 . S
C400 H374 0.950 . S
C400 C396 1.385 . S
C400 C399 1.374 . S
C401 C398 1.499 . S
C401 C402 1.373 . S
C401 C403 1.389 . S
C402 H375 0.950 . S
C402 C388 1.377 . S
C402 C401 1.373 . S
C403 C387 1.377 . S
C403 C401 1.389 . S
C403 C404 1.524 . S
C404 C403 1.524 . S
C404 C405 1.397 . S
C404 C409 1.363 . S
C405 H376 0.950 . S
C405 C404 1.397 . S
C405 C406 1.334 . S
C406 H377 0.950 . S
C406 C405 1.334 . S
C406 C407 1.287 . S
C407 C406 1.287 . S
C407 C408 1.524 . S
C407 H410 0.999 . S
C408 H378 0.950 . S
C408 C407 1.524 . S
C408 C409 1.415 . S
C409 H379 0.950 . S
C409 C404 1.363 . S
C409 C408 1.415 . S
H410 C407 0.999 . S
H411 C392 0.913 . S
H412 C430 0.951 . S
H413 C432 0.951 . S
H414 C434 0.950 . S
H415 C435 0.950 . S
H416 C437 0.950 . S
H417 C440 0.950 . S
H418 C441 0.950 . S
H419 C443 0.950 . S
H420 C444 0.950 . S
H421 C445 0.951 . S
H422 C447 0.951 . S
H423 C449 0.950 . S
H424 C450 0.950 . S
H425 C452 0.950 . S
H426 C455 0.950 . S
H427 C456 0.950 . S
H428 C458 0.950 . S
H429 C459 0.950 . S
C430 H412 0.951 . S
C430 C431 1.366 . S
C430 C432 1.388 . S
C431 C430 1.366 . S
C431 C435 1.385 . S
C432 H413 0.951 . S
C432 C430 1.388 . S
C432 C433 1.366 . S
C433 C432 1.366 . S
C433 C434 1.414 . S
C433 C436 1.499 . S
C434 H414 0.950 . S
C434 C433 1.414 . S
C434 C435 1.374 . S
C435 H415 0.950 . S
C435 C431 1.385 . S
C435 C434 1.374 . S
C436 C433 1.499 . S
C436 C437 1.373 . S
C436 C438 1.389 . S
C437 H416 0.950 . S
C437 C436 1.373 . S
C437 C453 1.377 . S
C438 C436 1.389 . S
C438 C439 1.524 . S
C438 C452 1.377 . S
C439 C438 1.524 . S
C439 C440 1.397 . S
C439 C444 1.363 . S
C440 H417 0.950 . S
C440 C439 1.397 . S
C440 C441 1.334 . S
C441 H418 0.950 . S
C441 C440 1.334 . S
C441 C442 1.287 . S
C442 C441 1.287 . S
C442 C443 1.524 . S
C442 H461 0.913 . S
C443 H419 0.950 . S
C443 C442 1.524 . S
C443 C444 1.415 . S
C444 H420 0.950 . S
C444 C439 1.363 . S
C444 C443 1.415 . S
C445 H421 0.951 . S
C445 C446 1.366 . S
C445 C447 1.388 . S
C446 C445 1.366 . S
C446 C450 1.385 . S
C447 H422 0.951 . S
C447 C445 1.388 . S
C447 C448 1.366 . S
C448 C447 1.366 . S
C448 C449 1.414 . S
C448 C451 1.499 . S
C449 H423 0.950 . S
C449 C448 1.414 . S
C449 C450 1.374 . S
C450 H424 0.950 . S
C450 C446 1.385 . S
C450 C449 1.374 . S
C451 C448 1.499 . S
C451 C452 1.373 . S
C451 C453 1.389 . S
C452 H425 0.950 . S
C452 C438 1.377 . S
C452 C451 1.373 . S
C453 C437 1.377 . S
C453 C451 1.389 . S
C453 C454 1.524 . S
C454 C453 1.524 . S
C454 C455 1.397 . S
C454 C459 1.363 . S
C455 H426 0.950 . S
C455 C454 1.397 . S
C455 C456 1.334 . S
C456 H427 0.950 . S
C456 C455 1.334 . S
C456 C457 1.287 . S
C457 C456 1.287 . S
C457 C458 1.524 . S
C457 H460 0.999 . S
C458 H428 0.950 . S
C458 C457 1.524 . S
C458 C459 1.415 . S
C459 H429 0.950 . S
C459 C454 1.363 . S
C459 C458 1.415 . S
H460 C457 0.999 . S
H461 C442 0.913 . S
H462 C480 0.951 . S
H463 C482 0.951 . S
H464 C484 0.950 . S
H465 C485 0.950 . S
H466 C487 0.950 . S
H467 C490 0.950 . S
H468 C491 0.950 . S
H469 C493 0.950 . S
H470 C494 0.950 . S
H471 C495 0.951 . S
H472 C497 0.951 . S
H473 C499 0.950 . S
H474 C500 0.950 . S
H475 C502 0.950 . S
H476 C505 0.950 . S
H477 C506 0.950 . S
H478 C508 0.950 . S
H479 C509 0.950 . S
C480 H462 0.951 . S
C480 C481 1.366 . S
C480 C482 1.388 . S
C481 C480 1.366 . S
C481 C485 1.385 . S
C482 H463 0.951 . S
C482 C480 1.388 . S
C482 C483 1.366 . S
C483 C482 1.366 . S
C483 C484 1.414 . S
C483 C486 1.499 . S
C484 H464 0.950 . S
C484 C483 1.414 . S
C484 C485 1.374 . S
C485 H465 0.950 . S
C485 C481 1.385 . S
C485 C484 1.374 . S
C486 C483 1.499 . S
C486 C487 1.373 . S
C486 C488 1.389 . S
C487 H466 0.950 . S
C487 C486 1.373 . S
C487 C503 1.377 . S
C488 C486 1.389 . S
C488 C489 1.524 . S
C488 C502 1.377 . S
C489 C488 1.524 . S
C489 C490 1.397 . S
C489 C494 1.363 . S
C490 H467 0.950 . S
C490 C489 1.397 . S
C490 C491 1.334 . S
C491 H468 0.950 . S
C491 C490 1.334 . S
C491 C492 1.287 . S
C492 C491 1.287 . S
C492 C493 1.524 . S
C492 H511 0.913 . S
C493 H469 0.950 . S
C493 C492 1.524 . S
C493 C494 1.415 . S
C494 H470 0.950 . S
C494 C489 1.363 . S
C494 C493 1.415 . S
C495 H471 0.951 . S
C495 C496 1.366 . S
C495 C497 1.388 . S
C496 C495 1.366 . S
C496 C500 1.385 . S
C497 H472 0.951 . S
C497 C495 1.388 . S
C497 C498 1.366 . S
C498 C497 1.366 . S
C498 C499 1.414 . S
C498 C501 1.499 . S
C499 H473 0.950 . S
C499 C498 1.414 . S
C499 C500 1.374 . S
C500 H474 0.950 . S
C500 C496 1.385 . S
C500 C499 1.374 . S
C501 C498 1.499 . S
C501 C502 1.373 . S
C501 C503 1.389 . S
C502 H475 0.950 . S
C502 C488 1.377 . S
C502 C501 1.373 . S
C503 C487 1.377 . S
C503 C501 1.389 . S
C503 C504 1.524 . S
C504 C503 1.524 . S
C504 C505 1.397 . S
C504 C509 1.363 . S
C505 H476 0.950 . S
C505 C504 1.397 . S
C505 C506 1.334 . S
C506 H477 0.950 . S
C506 C505 1.334 . S
C506 C507 1.287 . S
C507 C506 1.287 . S
C507 C508 1.524 . S
C507 H510 0.999 . S
C508 H478 0.950 . S
C508 C507 1.524 . S
C508 C509 1.415 . S
C509 H479 0.950 . S
C509 C504 1.363 . S
C509 C508 1.415 . S
H510 C507 0.999 . S
H511 C492 0.913 . S
H512 C530 0.951 . S
H513 C532 0.951 . S
H514 C534 0.950 . S
H515 C535 0.950 . S
H516 C537 0.950 . S
H517 C540 0.950 . S
H518 C541 0.950 . S
H519 C543 0.950 . S
H520 C544 0.950 . S
H521 C545 0.951 . S
H522 C547 0.951 . S
H523 C549 0.950 . S
H524 C550 0.950 . S
H525 C552 0.950 . S
H526 C555 0.950 . S
H527 C556 0.950 . S
H528 C558 0.950 . S
H529 C559 0.950 . S
C530 H512 0.951 . S
C530 C531 1.366 . S
C530 C532 1.388 . S
C531 C530 1.366 . S
C531 C535 1.385 . S
C532 H513 0.951 . S
C532 C530 1.388 . S
C532 C533 1.366 . S
C533 C532 1.366 . S
C533 C534 1.414 . S
C533 C536 1.499 . S
C534 H514 0.950 . S
C534 C533 1.414 . S
C534 C535 1.374 . S
C535 H515 0.950 . S
C535 C531 1.385 . S
C535 C534 1.374 . S
C536 C533 1.499 . S
C536 C537 1.373 . S
C536 C538 1.389 . S
C537 H516 0.950 . S
C537 C536 1.373 . S
C537 C553 1.377 . S
C538 C536 1.389 . S
C538 C539 1.524 . S
C538 C552 1.377 . S
C539 C538 1.524 . S
C539 C540 1.397 . S
C539 C544 1.363 . S
C540 H517 0.950 . S
C540 C539 1.397 . S
C540 C541 1.334 . S
C541 H518 0.950 . S
C541 C540 1.334 . S
C541 C542 1.287 . S
C542 C541 1.287 . S
C542 C543 1.524 . S
C542 H561 0.913 . S
C543 H519 0.950 . S
C543 C542 1.524 . S
C543 C544 1.415 . S
C544 H520 0.950 . S
C544 C539 1.363 . S
C544 C543 1.415 . S
C545 H521 0.951 . S
C545 C546 1.366 . S
C545 C547 1.388 . S
C546 C545 1.366 . S
C546 C550 1.385 . S
C547 H522 0.951 . S
C547 C545 1.388 . S
C547 C548 1.366 . S
C548 C547 1.366 . S
C548 C549 1.414 . S
C548 C551 1.499 . S
C549 H523 0.950 . S
C549 C548 1.414 . S
C549 C550 1.374 . S
C550 H524 0.950 . S
C550 C546 1.385 . S
C550 C549 1.374 . S
C551 C548 1.499 . S
C551 C552 1.373 . S
C551 C553 1.389 . S
C552 H525 0.950 . S
C552 C538 1.377 . S
C552 C551 1.373 . S
C553 C537 1.377 . S
C553 C551 1.389 . S
C553 C554 1.524 . S
C554 C553 1.524 . S
C554 C555 1.397 . S
C554 C559 1.363 . S
C555 H526 0.950 . S
C555 C554 1.397 . S
C555 C556 1.334 . S
C556 H527 0.950 . S
C556 C555 1.334 . S
C556 C557 1.287 . S
C557 C556 1.287 . S
C557 C558 1.524 . S
C557 H560 0.999 . S
C558 H528 0.950 . S
C558 C557 1.524 . S
C558 C559 1.415 . S
C559 H529 0.950 . S
C559 C554 1.363 . S
C559 C558 1.415 . S
H560 C557 0.999 . S
H561 C542 0.913 . S
H562 C580 0.951 . S
H563 C582 0.951 . S
H564 C584 0.950 . S
H565 C585 0.950 . S
H566 C587 0.950 . S
H567 C590 0.950 . S
H568 C591 0.950 . S
H569 C593 0.950 . S
H570 C594 0.950 . S
H571 C595 0.951 . S
H572 C597 0.951 . S
H573 C599 0.950 . S
H574 C600 0.950 . S
H575 C602 0.950 . S
H576 C605 0.950 . S
H577 C606 0.950 . S
H578 C608 0.950 . S
H579 C609 0.950 . S
C580 H562 0.951 . S
C580 C581 1.366 . S
C580 C582 1.388 . S
C581 C580 1.366 . S
C581 C585 1.385 . S
C582 H563 0.951 . S
C582 C580 1.388 . S
C582 C583 1.366 . S
C583 C582 1.366 . S
C583 C584 1.414 . S
C583 C586 1.499 . S
C584 H564 0.950 . S
C584 C583 1.414 . S
C584 C585 1.374 . S
C585 H565 0.950 . S
C585 C581 1.385 . S
C585 C584 1.374 . S
C586 C583 1.499 . S
C586 C587 1.373 . S
C586 C588 1.389 . S
C587 H566 0.950 . S
C587 C586 1.373 . S
C587 C603 1.377 . S
C588 C586 1.389 . S
C588 C589 1.524 . S
C588 C602 1.377 . S
C589 C588 1.524 . S
C589 C590 1.397 . S
C589 C594 1.363 . S
C590 H567 0.950 . S
C590 C589 1.397 . S
C590 C591 1.334 . S
C591 H568 0.950 . S
C591 C590 1.334 . S
C591 C592 1.287 . S
C592 C591 1.287 . S
C592 C593 1.524 . S
C592 H611 0.913 . S
C593 H569 0.950 . S
C593 C592 1.524 . S
C593 C594 1.415 . S
C594 H570 0.950 . S
C594 C589 1.363 . S
C594 C593 1.415 . S
C595 H571 0.951 . S
C595 C596 1.366 . S
C595 C597 1.388 . S
C596 C595 1.366 . S
C596 C600 1.385 . S
C597 H572 0.951 . S
C597 C595 1.388 . S
C597 C598 1.366 . S
C598 C597 1.366 . S
C598 C599 1.414 . S
C598 C601 1.499 . S
C599 H573 0.950 . S
C599 C598 1.414 . S
C599 C600 1.374 . S
C600 H574 0.950 . S
C600 C596 1.385 . S
C600 C599 1.374 . S
C601 C598 1.499 . S
C601 C602 1.373 . S
C601 C603 1.389 . S
C602 H575 0.950 . S
C602 C588 1.377 . S
C602 C601 1.373 . S
C603 C587 1.377 . S
C603 C601 1.389 . S
C603 C604 1.524 . S
C604 C603 1.524 . S
C604 C605 1.397 . S
C604 C609 1.363 . S
C605 H576 0.950 . S
C605 C604 1.397 . S
C605 C606 1.334 . S
C606 H577 0.950 . S
C606 C605 1.334 . S
C606 C607 1.287 . S
C607 C606 1.287 . S
C607 C608 1.524 . S
C607 H610 0.999 . S
C608 H578 0.950 . S
C608 C607 1.524 . S
C608 C609 1.415 . S
C609 H579 0.950 . S
C609 C604 1.363 . S
C609 C608 1.415 . S
H610 C607 0.999 . S
H611 C592 0.913 . S
H612 C630 0.951 . S
H613 C632 0.951 . S
H614 C634 0.950 . S
H615 C635 0.950 . S
H616 C637 0.950 . S
H617 C640 0.950 . S
H618 C641 0.950 . S
H619 C643 0.950 . S
H620 C644 0.950 . S
H621 C645 0.951 . S
H622 C647 0.951 . S
H623 C649 0.950 . S
H624 C650 0.950 . S
H625 C652 0.950 . S
H626 C655 0.950 . S
H627 C656 0.950 . S
H628 C658 0.950 . S
H629 C659 0.950 . S
C630 H612 0.951 . S
C630 C631 1.366 . S
C630 C632 1.388 . S
C631 C630 1.366 . S
C631 C635 1.385 . S
C632 H613 0.951 . S
C632 C630 1.388 . S
C632 C633 1.366 . S
C633 C632 1.366 . S
C633 C634 1.414 . S
C633 C636 1.499 . S
C634 H614 0.950 . S
C634 C633 1.414 . S
C634 C635 1.374 . S
C635 H615 0.950 . S
C635 C631 1.385 . S
C635 C634 1.374 . S
C636 C633 1.499 . S
C636 C637 1.373 . S
C636 C638 1.389 . S
C637 H616 0.950 . S
C637 C636 1.373 . S
C637 C653 1.377 . S
C638 C636 1.389 . S
C638 C639 1.524 . S
C638 C652 1.377 . S
C639 C638 1.524 . S
C639 C640 1.397 . S
C639 C644 1.363 . S
C640 H617 0.950 . S
C640 C639 1.397 . S
C640 C641 1.334 . S
C641 H618 0.950 . S
C641 C640 1.334 . S
C641 C642 1.287 . S
C642 C641 1.287 . S
C642 C643 1.524 . S
C642 H661 0.913 . S
C643 H619 0.950 . S
C643 C642 1.524 . S
C643 C644 1.415 . S
C644 H620 0.950 . S
C644 C639 1.363 . S
C644 C643 1.415 . S
C645 H621 0.951 . S
C645 C646 1.366 . S
C645 C647 1.388 . S
C646 C645 1.366 . S
C646 C650 1.385 . S
C647 H622 0.951 . S
C647 C645 1.388 . S
C647 C648 1.366 . S
C648 C647 1.366 . S
C648 C649 1.414 . S
C648 C651 1.499 . S
C649 H623 0.950 . S
C649 C648 1.414 . S
C649 C650 1.374 . S
C650 H624 0.950 . S
C650 C646 1.385 . S
C650 C649 1.374 . S
C651 C648 1.499 . S
C651 C652 1.373 . S
C651 C653 1.389 . S
C652 H625 0.950 . S
C652 C638 1.377 . S
C652 C651 1.373 . S
C653 C637 1.377 . S
C653 C651 1.389 . S
C653 C654 1.524 . S
C654 C653 1.524 . S
C654 C655 1.397 . S
C654 C659 1.363 . S
C655 H626 0.950 . S
C655 C654 1.397 . S
C655 C656 1.334 . S
C656 H627 0.950 . S
C656 C655 1.334 . S
C656 C657 1.287 . S
C657 C656 1.287 . S
C657 C658 1.524 . S
C657 H660 0.999 . S
C658 H628 0.950 . S
C658 C657 1.524 . S
C658 C659 1.415 . S
C659 H629 0.950 . S
C659 C654 1.363 . S
C659 C658 1.415 . S
H660 C657 0.999 . S
H661 C642 0.913 . S
H662 C680 0.951 . S
H663 C682 0.951 . S
H664 C684 0.950 . S
H665 C685 0.950 . S
H666 C687 0.950 . S
H667 C690 0.950 . S
H668 C691 0.950 . S
H669 C693 0.950 . S
H670 C694 0.950 . S
H671 C695 0.951 . S
H672 C697 0.951 . S
H673 C699 0.950 . S
H674 C700 0.950 . S
H675 C702 0.950 . S
H676 C705 0.950 . S
H677 C706 0.950 . S
H678 C708 0.950 . S
H679 C709 0.950 . S
C680 H662 0.951 . S
C680 C681 1.366 . S
C680 C682 1.388 . S
C681 C680 1.366 . S
C681 C685 1.385 . S
C682 H663 0.951 . S
C682 C680 1.388 . S
C682 C683 1.366 . S
C683 C682 1.366 . S
C683 C684 1.414 . S
C683 C686 1.499 . S
C684 H664 0.950 . S
C684 C683 1.414 . S
C684 C685 1.374 . S
C685 H665 0.950 . S
C685 C681 1.385 . S
C685 C684 1.374 . S
C686 C683 1.499 . S
C686 C687 1.373 . S
C686 C688 1.389 . S
C687 H666 0.950 . S
C687 C686 1.373 . S
C687 C703 1.377 . S
C688 C686 1.389 . S
C688 C689 1.524 . S
C688 C702 1.377 . S
C689 C688 1.524 . S
C689 C690 1.397 . S
C689 C694 1.363 . S
C690 H667 0.950 . S
C690 C689 1.397 . S
C690 C691 1.334 . S
C691 H668 0.950 . S
C691 C690 1.334 . S
C691 C692 1.287 . S
C692 C691 1.287 . S
C692 C693 1.524 . S
C692 H711 0.913 . S
C693 H669 0.950 . S
C693 C692 1.524 . S
C693 C694 1.415 . S
C694 H670 0.950 . S
C694 C689 1.363 . S
C694 C693 1.415 . S
C695 H671 0.951 . S
C695 C696 1.366 . S
C695 C697 1.388 . S
C696 C695 1.366 . S
C696 C700 1.385 . S
C697 H672 0.951 . S
C697 C695 1.388 . S
C697 C698 1.366 . S
C698 C697 1.366 . S
C698 C699 1.414 . S
C698 C701 1.499 . S
C699 H673 0.950 . S
C699 C698 1.414 . S
C699 C700 1.374 . S
C700 H674 0.950 . S
C700 C696 1.385 . S
C700 C699 1.374 . S
C701 C698 1.499 . S
C701 C702 1.373 . S
C701 C703 1.389 . S
C702 H675 0.950 . S
C702 C688 1.377 . S
C702 C701 1.373 . S
C703 C687 1.377 . S
C703 C701 1.389 . S
C703 C704 1.524 . S
C704 C703 1.524 . S
C704 C705 1.397 . S
C704 C709 1.363 . S
C705 H676 0.950 . S
C705 C704 1.397 . S
C705 C706 1.334 . S
C706 H677 0.950 . S
C706 C705 1.334 . S
C706 C707 1.287 . S
C707 C706 1.287 . S
C707 C708 1.524 . S
C707 H710 0.999 . S
C708 H678 0.950 . S
C708 C707 1.524 . S
C708 C709 1.415 . S
C709 H679 0.950 . S
C709 C704 1.363 . S
C709 C708 1.415 . S
H710 C707 0.999 . S
H711 C692 0.913 . S
H712 C730 0.951 . S
H713 C732 0.951 . S
H714 C734 0.950 . S
H715 C735 0.950 . S
H716 C737 0.950 . S
H717 C740 0.950 . S
H718 C741 0.950 . S
H719 C743 0.950 . S
H720 C744 0.950 . S
H721 C745 0.951 . S
H722 C747 0.951 . S
H723 C749 0.950 . S
H724 C750 0.950 . S
H725 C752 0.950 . S
H726 C755 0.950 . S
H727 C756 0.950 . S
H728 C758 0.950 . S
H729 C759 0.950 . S
C730 H712 0.951 . S
C730 C731 1.366 . S
C730 C732 1.388 . S
C731 C730 1.366 . S
C731 C735 1.385 . S
C732 H713 0.951 . S
C732 C730 1.388 . S
C732 C733 1.366 . S
C733 C732 1.366 . S
C733 C734 1.414 . S
C733 C736 1.499 . S
C734 H714 0.950 . S
C734 C733 1.414 . S
C734 C735 1.374 . S
C735 H715 0.950 . S
C735 C731 1.385 . S
C735 C734 1.374 . S
C736 C733 1.499 . S
C736 C737 1.373 . S
C736 C738 1.389 . S
C737 H716 0.950 . S
C737 C736 1.373 . S
C737 C753 1.377 . S
C738 C736 1.389 . S
C738 C739 1.524 . S
C738 C752 1.377 . S
C739 C738 1.524 . S
C739 C740 1.397 . S
C739 C744 1.363 . S
C740 H717 0.950 . S
C740 C739 1.397 . S
C740 C741 1.334 . S
C741 H718 0.950 . S
C741 C740 1.334 . S
C741 C742 1.287 . S
C742 C741 1.287 . S
C742 C743 1.524 . S
C742 H761 0.913 . S
C743 H719 0.950 . S
C743 C742 1.524 . S
C743 C744 1.415 . S
C744 H720 0.950 . S
C744 C739 1.363 . S
C744 C743 1.415 . S
C745 H721 0.951 . S
C745 C746 1.366 . S
C745 C747 1.388 . S
C746 C745 1.366 . S
C746 C750 1.385 . S
C747 H722 0.951 . S
C747 C745 1.388 . S
C747 C748 1.366 . S
C748 C747 1.366 . S
C748 C749 1.414 . S
C748 C751 1.499 . S
C749 H723 0.950 . S
C749 C748 1.414 . S
C749 C750 1.374 . S
C750 H724 0.950 . S
C750 C746 1.385 . S
C750 C749 1.374 . S
C751 C748 1.499 . S
C751 C752 1.373 . S
C751 C753 1.389 . S
C752 H725 0.950 . S
C752 C738 1.377 . S
C752 C751 1.373 . S
C753 C737 1.377 . S
C753 C751 1.389 . S
C753 C754 1.524 . S
C754 C753 1.524 . S
C754 C755 1.397 . S
C754 C759 1.363 . S
C755 H726 0.950 . S
C755 C754 1.397 . S
C755 C756 1.334 . S
C756 H727 0.950 . S
C756 C755 1.334 . S
C756 C757 1.287 . S
C757 C756 1.287 . S
C757 C758 1.524 . S
C757 H760 0.999 . S
C758 H728 0.950 . S
C758 C757 1.524 . S
C758 C759 1.415 . S
C759 H729 0.950 . S
C759 C754 1.363 . S
C759 C758 1.415 . S
H760 C757 0.999 . S
H761 C742 0.913 . S
H762 C780 0.951 . S
H763 C782 0.951 . S
H764 C784 0.950 . S
H765 C785 0.950 . S
H766 C787 0.950 . S
H767 C790 0.950 . S
H768 C791 0.950 . S
H769 C793 0.950 . S
H770 C794 0.950 . S
H771 C795 0.951 . S
H772 C797 0.951 . S
H773 C799 0.950 . S
H774 C800 0.950 . S
H775 C802 0.950 . S
H776 C805 0.950 . S
H777 C806 0.950 . S
H778 C808 0.950 . S
H779 C809 0.950 . S
C780 H762 0.951 . S
C780 C781 1.366 . S
C780 C782 1.388 . S
C781 C780 1.366 . S
C781 C785 1.385 . S
C782 H763 0.951 . S
C782 C780 1.388 . S
C782 C783 1.366 . S
C783 C782 1.366 . S
C783 C784 1.414 . S
C783 C786 1.499 . S
C784 H764 0.950 . S
C784 C783 1.414 . S
C784 C785 1.374 . S
C785 H765 0.950 . S
C785 C781 1.385 . S
C785 C784 1.374 . S
C786 C783 1.499 . S
C786 C787 1.373 . S
C786 C788 1.389 . S
C787 H766 0.950 . S
C787 C786 1.373 . S
C787 C803 1.377 . S
C788 C786 1.389 . S
C788 C789 1.524 . S
C788 C802 1.377 . S
C789 C788 1.524 . S
C789 C790 1.397 . S
C789 C794 1.363 . S
C790 H767 0.950 . S
C790 C789 1.397 . S
C790 C791 1.334 . S
C791 H768 0.950 . S
C791 C790 1.334 . S
C791 C792 1.287 . S
C792 C791 1.287 . S
C792 C793 1.524 . S
C792 H811 0.913 . S
C793 H769 0.950 . S
C793 C792 1.524 . S
C793 C794 1.415 . S
C794 H770 0.950 . S
C794 C789 1.363 . S
C794 C793 1.415 . S
C795 H771 0.951 . S
C795 C796 1.366 . S
C795 C797 1.388 . S
C796 C795 1.366 . S
C796 C800 1.385 . S
C797 H772 0.951 . S
C797 C795 1.388 . S
C797 C798 1.366 . S
C798 C797 1.366 . S
C798 C799 1.414 . S
C798 C801 1.499 . S
C799 H773 0.950 . S
C799 C798 1.414 . S
C799 C800 1.374 . S
C800 H774 0.950 . S
C800 C796 1.385 . S
C800 C799 1.374 . S
C801 C798 1.499 . S
C801 C802 1.373 . S
C801 C803 1.389 . S
C802 H775 0.950 . S
C802 C788 1.377 . S
C802 C801 1.373 . S
C803 C787 1.377 . S
C803 C801 1.389 . S
C803 C804 1.524 . S
C804 C803 1.524 . S
C804 C805 1.397 . S
C804 C809 1.363 . S
C805 H776 0.950 . S
C805 C804 1.397 . S
C805 C806 1.334 . S
C806 H777 0.950 . S
C806 C805 1.334 . S
C806 C807 1.287 . S
C807 C806 1.287 . S
C807 C808 1.524 . S
C807 H810 0.999 . S
C808 H778 0.950 . S
C808 C807 1.524 . S
C808 C809 1.415 . S
C809 H779 0.950 . S
C809 C804 1.363 . S
C809 C808 1.415 . S
H810 C807 0.999 . S
H811 C792 0.913 . S
H812 C830 0.951 . S
H813 C832 0.951 . S
H814 C834 0.950 . S
H815 C835 0.950 . S
H816 C837 0.950 . S
H817 C840 0.950 . S
H818 C841 0.950 . S
H819 C843 0.950 . S
H820 C844 0.950 . S
H821 C845 0.951 . S
H822 C847 0.951 . S
H823 C849 0.950 . S
H824 C850 0.950 . S
H825 C852 0.950 . S
H826 C855 0.950 . S
H827 C856 0.950 . S
H828 C858 0.950 . S
H829 C859 0.950 . S
C830 H812 0.951 . S
C830 C831 1.366 . S
C830 C832 1.388 . S
C831 C830 1.366 . S
C831 C835 1.385 . S
C832 H813 0.951 . S
C832 C830 1.388 . S
C832 C833 1.366 . S
C833 C832 1.366 . S
C833 C834 1.414 . S
C833 C836 1.499 . S
C834 H814 0.950 . S
C834 C833 1.414 . S
C834 C835 1.374 . S
C835 H815 0.950 . S
C835 C831 1.385 . S
C835 C834 1.374 . S
C836 C833 1.499 . S
C836 C837 1.373 . S
C836 C838 1.389 . S
C837 H816 0.950 . S
C837 C836 1.373 . S
C837 C853 1.377 . S
C838 C836 1.389 . S
C838 C839 1.524 . S
C838 C852 1.377 . S
C839 C838 1.524 . S
C839 C840 1.397 . S
C839 C844 1.363 . S
C840 H817 0.950 . S
C840 C839 1.397 . S
C840 C841 1.334 . S
C841 H818 0.950 . S
C841 C840 1.334 . S
C841 C842 1.287 . S
C842 C841 1.287 . S
C842 C843 1.524 . S
C842 H861 0.913 . S
C843 H819 0.950 . S
C843 C842 1.524 . S
C843 C844 1.415 . S
C844 H820 0.950 . S
C844 C839 1.363 . S
C844 C843 1.415 . S
C845 H821 0.951 . S
C845 C846 1.366 . S
C845 C847 1.388 . S
C846 C845 1.366 . S
C846 C850 1.385 . S
C847 H822 0.951 . S
C847 C845 1.388 . S
C847 C848 1.366 . S
C848 C847 1.366 . S
C848 C849 1.414 . S
C848 C851 1.499 . S
C849 H823 0.950 . S
C849 C848 1.414 . S
C849 C850 1.374 . S
C850 H824 0.950 . S
C850 C846 1.385 . S
C850 C849 1.374 . S
C851 C848 1.499 . S
C851 C852 1.373 . S
C851 C853 1.389 . S
C852 H825 0.950 . S
C852 C838 1.377 . S
C852 C851 1.373 . S
C853 C837 1.377 . S
C853 C851 1.389 . S
C853 C854 1.524 . S
C854 C853 1.524 . S
C854 C855 1.397 . S
C854 C859 1.363 . S
C855 H826 0.950 . S
C855 C854 1.397 . S
C855 C856 1.334 . S
C856 H827 0.950 . S
C856 C855 1.334 . S
C856 C857 1.287 . S
C857 C856 1.287 . S
C857 C858 1.524 . S
C857 H860 0.999 . S
C858 H828 0.950 . S
C858 C857 1.524 . S
C858 C859 1.415 . S
C859 H829 0.950 . S
C859 C854 1.363 . S
C859 C858 1.415 . S
H860 C857 0.999 . S
H861 C842 0.913 . S
H862 C880 0.951 . S
H863 C882 0.951 . S
H864 C884 0.950 . S
H865 C885 0.950 . S
H866 C887 0.950 . S
H867 C890 0.950 . S
H868 C891 0.950 . S
H869 C893 0.950 . S
H870 C894 0.950 . S
H871 C895 0.951 . S
H872 C897 0.951 . S
H873 C899 0.950 . S
H874 C900 0.950 . S
H875 C902 0.950 . S
H876 C905 0.950 . S
H877 C906 0.950 . S
H878 C908 0.950 . S
H879 C909 0.950 . S
C880 H862 0.951 . S
C880 C881 1.366 . S
C880 C882 1.388 . S
C881 C880 1.366 . S
C881 C885 1.385 . S
C882 H863 0.951 . S
C882 C880 1.388 . S
C882 C883 1.366 . S
C883 C882 1.366 . S
C883 C884 1.414 . S
C883 C886 1.499 . S
C884 H864 0.950 . S
C884 C883 1.414 . S
C884 C885 1.374 . S
C885 H865 0.950 . S
C885 C881 1.385 . S
C885 C884 1.374 . S
C886 C883 1.499 . S
C886 C887 1.373 . S
C886 C888 1.389 . S
C887 H866 0.950 . S
C887 C886 1.373 . S
C887 C903 1.377 . S
C888 C886 1.389 . S
C888 C889 1.524 . S
C888 C902 1.377 . S
C889 C888 1.524 . S
C889 C890 1.397 . S
C889 C894 1.363 . S
C890 H867 0.950 . S
C890 C889 1.397 . S
C890 C891 1.334 . S
C891 H868 0.950 . S
C891 C890 1.334 . S
C891 C892 1.287 . S
C892 C891 1.287 . S
C892 C893 1.524 . S
C892 H911 0.913 . S
C893 H869 0.950 . S
C893 C892 1.524 . S
C893 C894 1.415 . S
C894 H870 0.950 . S
C894 C889 1.363 . S
C894 C893 1.415 . S
C895 H871 0.951 . S
C895 C896 1.366 . S
C895 C897 1.388 . S
C896 C895 1.366 . S
C896 C900 1.385 . S
C897 H872 0.951 . S
C897 C895 1.388 . S
C897 C898 1.366 . S
C898 C897 1.366 . S
C898 C899 1.414 . S
C898 C901 1.499 . S
C899 H873 0.950 . S
C899 C898 1.414 . S
C899 C900 1.374 . S
C900 H874 0.950 . S
C900 C896 1.385 . S
C900 C899 1.374 . S
C901 C898 1.499 . S
C901 C902 1.373 . S
C901 C903 1.389 . S
C902 H875 0.950 . S
C902 C888 1.377 . S
C902 C901 1.373 . S
C903 C887 1.377 . S
C903 C901 1.389 . S
C903 C904 1.524 . S
C904 C903 1.524 . S
C904 C905 1.397 . S
C904 C909 1.363 . S
C905 H876 0.950 . S
C905 C904 1.397 . S
C905 C906 1.334 . S
C906 H877 0.950 . S
C906 C905 1.334 . S
C906 C907 1.287 . S
C907 C906 1.287 . S
C907 C908 1.524 . S
C907 H910 0.999 . S
C908 H878 0.950 . S
C908 C907 1.524 . S
C908 C909 1.415 . S
C909 H879 0.950 . S
C909 C904 1.363 . S
C909 C908 1.415 . S
H910 C907 0.999 . S
H911 C892 0.913 . S
H912 C930 0.951 . S
H913 C932 0.951 . S
H914 C934 0.950 . S
H915 C935 0.950 . S
H916 C937 0.950 1_655 S
H917 C940 0.950 . S
H918 C941 0.950 . S
H919 C943 0.950 . S
H920 C944 0.950 . S
H921 C945 0.951 . S
H922 C947 0.978 . S
H923 C949 0.950 1_554 S
H924 C950 0.950 . S
H925 C952 0.950 . S
H926 C955 0.950 . S
H927 C956 0.950 1_556 S
H928 C958 0.950 . S
H929 C959 0.950 . S
C930 H912 0.951 . S
C930 C931 1.366 . S
C930 C932 1.388 . S
C931 C930 1.366 . S
C931 C935 1.385 1_455 S
C932 H913 0.951 . S
C932 C930 1.388 . S
C932 C933 1.366 . S
C933 C932 1.366 . S
C933 C934 1.414 1_455 S
C933 C936 1.499 . S
C934 H914 0.950 . S
C934 C933 1.414 1_655 S
C934 C935 1.374 . S
C935 H915 0.950 . S
C935 C931 1.385 1_655 S
C935 C934 1.374 . S
C936 C933 1.499 . S
C936 C937 1.373 . S
C936 C938 1.389 . S
C937 H916 0.950 1_455 S
C937 C936 1.373 . S
C937 C953 1.377 . S
C938 C936 1.389 . S
C938 C939 1.524 . S
C938 C952 1.377 . S
C939 C938 1.524 . S
C939 C940 1.397 . S
C939 C944 1.363 . S
C940 H917 0.950 . S
C940 C939 1.397 . S
C940 C941 1.334 . S
C941 H918 0.950 . S
C941 C940 1.334 . S
C941 C942 1.287 . S
C942 C941 1.287 . S
C942 C943 1.524 . S
C942 H961 0.913 . S
C943 H919 0.950 . S
C943 C942 1.524 . S
C943 C944 1.415 . S
C944 H920 0.950 . S
C944 C939 1.363 . S
C944 C943 1.415 . S
C945 H921 0.951 . S
C945 C946 1.366 1_655 S
C945 C947 1.388 . S
C946 C945 1.366 1_455 S
C946 C950 1.385 . S
C947 H922 0.978 . S
C947 C945 1.388 . S
C947 C948 1.366 1_656 S
C948 C947 1.366 1_454 S
C948 C949 1.414 1_554 S
C948 C951 1.499 . S
C949 H923 0.950 1_556 S
C949 C948 1.414 1_556 S
C949 C950 1.374 . S
C950 H924 0.950 . S
C950 C946 1.385 . S
C950 C949 1.374 . S
C951 C948 1.499 . S
C951 C952 1.373 . S
C951 C953 1.389 . S
C952 H925 0.950 . S
C952 C938 1.377 . S
C952 C951 1.373 . S
C953 C937 1.377 . S
C953 C951 1.389 . S
C953 C954 1.524 1_455 S
C954 C953 1.524 1_655 S
C954 C955 1.397 1_655 S
C954 C959 1.363 . S
C955 H926 0.950 . S
C955 C954 1.397 1_455 S
C955 C956 1.334 . S
C956 H927 0.950 1_554 S
C956 C955 1.334 . S
C956 C957 1.287 1_455 S
C957 C956 1.287 1_655 S
C957 C958 1.524 . S
C957 H960 0.999 . S
C958 H928 0.950 . S
C958 C957 1.524 . S
C958 C959 1.415 . S
C959 H929 0.950 . S
C959 C954 1.363 . S
C959 C958 1.415 . S
H960 C957 0.999 . S
H961 C942 0.913 . S
H962 C980 0.951 . S
H963 C982 0.951 . S
H964 C984 0.950 1_565 S
H965 C985 0.950 1_565 S
H966 C987 0.950 1_565 S
H967 C990 0.950 . S
H968 C991 0.950 . S
H969 C993 0.950 . S
H970 C994 0.950 . S
H971 C995 0.951 1_565 S
H972 C997 0.951 1_565 S
H973 C999 0.950 . S
H974 C1000 0.950 . S
H975 C1002 0.950 . S
H976 C1005 0.950 . S
H977 C1006 0.950 . S
H978 C1008 0.950 . S
H979 C1009 0.950 . S
C980 H962 0.951 . S
C980 C981 1.366 . S
C980 C982 1.388 . S
C981 C980 1.366 . S
C981 C985 1.385 . S
C982 H963 0.951 . S
C982 C980 1.388 . S
C982 C983 1.366 . S
C983 C982 1.366 . S
C983 C984 1.414 . S
C983 C986 1.499 . S
C984 H964 0.950 1_545 S
C984 C983 1.414 . S
C984 C985 1.374 . S
C985 H965 0.950 1_545 S
C985 C981 1.385 . S
C985 C984 1.374 . S
C986 C983 1.499 . S
C986 C987 1.373 . S
C986 C988 1.389 . S
C987 H966 0.950 1_545 S
C987 C986 1.373 . S
C987 C1003 1.377 . S
C988 C986 1.389 . S
C988 C989 1.524 . S
C988 C1002 1.377 . S
C989 C988 1.524 . S
C989 C990 1.397 . S
C989 C994 1.363 . S
C990 H967 0.950 . S
C990 C989 1.397 . S
C990 C991 1.334 . S
C991 H968 0.950 . S
C991 C990 1.334 . S
C991 C992 1.287 . S
C992 C991 1.287 . S
C992 C993 1.524 . S
C992 H1011 0.913 . S
C993 H969 0.950 . S
C993 C992 1.524 . S
C993 C994 1.415 . S
C994 H970 0.950 . S
C994 C989 1.363 . S
C994 C993 1.415 . S
C995 H971 0.951 1_545 S
C995 C996 1.366 . S
C995 C997 1.388 . S
C996 C995 1.366 . S
C996 C1000 1.385 . S
C997 H972 0.951 1_545 S
C997 C995 1.388 . S
C997 C998 1.366 . S
C998 C997 1.366 . S
C998 C999 1.414 . S
C998 C1001 1.499 . S
C999 H973 0.950 . S
C999 C998 1.414 . S
C999 C1000 1.374 . S
C1000 H974 0.950 . S
C1000 C996 1.385 . S
C1000 C999 1.374 . S
C1001 C998 1.499 . S
C1001 C1002 1.373 . S
C1001 C1003 1.389 . S
C1002 H975 0.950 . S
C1002 C988 1.377 . S
C1002 C1001 1.373 . S
C1003 C987 1.377 . S
C1003 C1001 1.389 . S
C1003 C1004 1.524 1_545 S
C1004 C1003 1.524 1_565 S
C1004 C1005 1.397 . S
C1004 C1009 1.363 . S
C1005 H976 0.950 . S
C1005 C1004 1.397 . S
C1005 C1006 1.334 . S
C1006 H977 0.950 . S
C1006 C1005 1.334 . S
C1006 C1007 1.287 . S
C1007 C1006 1.287 . S
C1007 C1008 1.524 . S
C1007 H1010 0.999 . S
C1008 H978 0.950 . S
C1008 C1007 1.524 . S
C1008 C1009 1.415 . S
C1009 H979 0.950 . S
C1009 C1004 1.363 . S
C1009 C1008 1.415 . S
H1010 C1007 0.999 . S
H1011 C992 0.913 . S
H1012 C1030 0.951 . S
H1013 C1032 0.951 . S
H1014 C1034 0.950 . S
H1015 C1035 0.950 . S
H1016 C1037 0.950 . S
H1017 C1040 0.950 . S
H1018 C1041 0.950 . S
H1019 C1043 0.950 . S
H1020 C1044 0.950 . S
H1021 C1045 0.951 . S
H1022 C1047 0.951 . S
H1023 C1049 0.950 . S
H1024 C1050 0.950 . S
H1025 C1052 0.950 . S
H1026 C1055 0.950 . S
H1027 C1056 0.950 . S
H1028 C1058 0.950 . S
H1029 C1059 0.950 . S
C1030 H1012 0.951 . S
C1030 C1031 1.366 . S
C1030 C1032 1.388 . S
C1031 C1030 1.366 . S
C1031 C1035 1.385 . S
C1032 H1013 0.951 . S
C1032 C1030 1.388 . S
C1032 C1033 1.366 . S
C1033 C1032 1.366 . S
C1033 C1034 1.414 . S
C1033 C1036 1.499 . S
C1034 H1014 0.950 . S
C1034 C1033 1.414 . S
C1034 C1035 1.374 . S
C1035 H1015 0.950 . S
C1035 C1031 1.385 . S
C1035 C1034 1.374 . S
C1036 C1033 1.499 . S
C1036 C1037 1.373 . S
C1036 C1038 1.389 . S
C1037 H1016 0.950 . S
C1037 C1036 1.373 . S
C1037 C1053 1.377 . S
C1038 C1036 1.389 . S
C1038 C1039 1.524 . S
C1038 C1052 1.377 . S
C1039 C1038 1.524 . S
C1039 C1040 1.397 . S
C1039 C1044 1.363 . S
C1040 H1017 0.950 . S
C1040 C1039 1.397 . S
C1040 C1041 1.334 . S
C1041 H1018 0.950 . S
C1041 C1040 1.334 . S
C1041 C1042 1.287 . S
C1042 C1041 1.287 . S
C1042 C1043 1.524 . S
C1042 H1061 0.913 . S
C1043 H1019 0.950 . S
C1043 C1042 1.524 . S
C1043 C1044 1.415 . S
C1044 H1020 0.950 . S
C1044 C1039 1.363 . S
C1044 C1043 1.415 . S
C1045 H1021 0.951 . S
C1045 C1046 1.366 . S
C1045 C1047 1.388 . S
C1046 C1045 1.366 . S
C1046 C1050 1.385 . S
C1047 H1022 0.951 . S
C1047 C1045 1.388 . S
C1047 C1048 1.366 . S
C1048 C1047 1.366 . S
C1048 C1049 1.414 . S
C1048 C1051 1.499 . S
C1049 H1023 0.950 . S
C1049 C1048 1.414 . S
C1049 C1050 1.374 . S
C1050 H1024 0.950 . S
C1050 C1046 1.385 . S
C1050 C1049 1.374 . S
C1051 C1048 1.499 . S
C1051 C1052 1.373 . S
C1051 C1053 1.389 . S
C1052 H1025 0.950 . S
C1052 C1038 1.377 . S
C1052 C1051 1.373 . S
C1053 C1037 1.377 . S
C1053 C1051 1.389 . S
C1053 C1054 1.524 . S
C1054 C1053 1.524 . S
C1054 C1055 1.397 . S
C1054 C1059 1.363 . S
C1055 H1026 0.950 . S
C1055 C1054 1.397 . S
C1055 C1056 1.334 . S
C1056 H1027 0.950 . S
C1056 C1055 1.334 . S
C1056 C1057 1.287 . S
C1057 C1056 1.287 . S
C1057 C1058 1.524 . S
C1057 H1060 0.999 . S
C1058 H1028 0.950 . S
C1058 C1057 1.524 . S
C1058 C1059 1.415 . S
C1059 H1029 0.950 . S
C1059 C1054 1.363 . S
C1059 C1058 1.415 . S
H1060 C1057 0.999 . S
H1061 C1042 0.913 . S
H1062 C1080 0.951 . S
H1063 C1082 0.951 . S
H1064 C1084 0.950 . S
H1065 C1085 0.950 . S
H1066 C1087 0.950 1_565 S
H1067 C1090 0.950 . S
H1068 C1091 0.950 . S
H1069 C1093 0.950 . S
H1070 C1094 0.950 . S
H1071 C1095 0.951 . S
H1072 C1097 0.951 . S
H1073 C1099 0.950 . S
H1074 C1100 0.950 . S
H1075 C1102 0.950 . S
H1076 C1105 0.950 . S
H1077 C1106 0.950 . S
H1078 C1108 0.950 . S
H1079 C1109 0.950 . S
C1080 H1062 0.951 . S
C1080 C1081 1.366 . S
C1080 C1082 1.388 . S
C1081 C1080 1.366 . S
C1081 C1085 1.385 . S
C1082 H1063 0.951 . S
C1082 C1080 1.388 . S
C1082 C1083 1.366 . S
C1083 C1082 1.366 . S
C1083 C1084 1.414 . S
C1083 C1086 1.499 . S
C1084 H1064 0.950 . S
C1084 C1083 1.414 . S
C1084 C1085 1.374 . S
C1085 H1065 0.950 . S
C1085 C1081 1.385 . S
C1085 C1084 1.374 . S
C1086 C1083 1.499 . S
C1086 C1087 1.373 . S
C1086 C1088 1.389 . S
C1087 H1066 0.950 1_545 S
C1087 C1086 1.373 . S
C1087 C1103 1.377 1_545 S
C1088 C1086 1.389 . S
C1088 C1089 1.524 . S
C1088 C1102 1.377 . S
C1089 C1088 1.524 . S
C1089 C1090 1.397 . S
C1089 C1094 1.363 . S
C1090 H1067 0.950 . S
C1090 C1089 1.397 . S
C1090 C1091 1.334 . S
C1091 H1068 0.950 . S
C1091 C1090 1.334 . S
C1091 C1092 1.287 . S
C1092 C1091 1.287 . S
C1092 C1093 1.524 . S
C1092 H1111 0.913 . S
C1093 H1069 0.950 . S
C1093 C1092 1.524 . S
C1093 C1094 1.415 . S
C1094 H1070 0.950 . S
C1094 C1089 1.363 . S
C1094 C1093 1.415 . S
C1095 H1071 0.951 . S
C1095 C1096 1.366 . S
C1095 C1097 1.388 . S
C1096 C1095 1.366 . S
C1096 C1100 1.385 . S
C1097 H1072 0.951 . S
C1097 C1095 1.388 . S
C1097 C1098 1.366 . S
C1098 C1097 1.366 . S
C1098 C1099 1.414 . S
C1098 C1101 1.499 . S
C1099 H1073 0.950 . S
C1099 C1098 1.414 . S
C1099 C1100 1.374 . S
C1100 H1074 0.950 . S
C1100 C1096 1.385 . S
C1100 C1099 1.374 . S
C1101 C1098 1.499 . S
C1101 C1102 1.373 . S
C1101 C1103 1.389 1_545 S
C1102 H1075 0.950 . S
C1102 C1088 1.377 . S
C1102 C1101 1.373 . S
C1103 C1087 1.377 1_565 S
C1103 C1101 1.389 1_565 S
C1103 C1104 1.524 . S
C1104 C1103 1.524 . S
C1104 C1105 1.397 . S
C1104 C1109 1.363 . S
C1105 H1076 0.950 . S
C1105 C1104 1.397 . S
C1105 C1106 1.334 . S
C1106 H1077 0.950 . S
C1106 C1105 1.334 . S
C1106 C1107 1.287 . S
C1107 C1106 1.287 . S
C1107 C1108 1.524 . S
C1107 H1110 0.999 . S
C1108 H1078 0.950 . S
C1108 C1107 1.524 . S
C1108 C1109 1.415 . S
C1109 H1079 0.950 . S
C1109 C1104 1.363 . S
C1109 C1108 1.415 . S
H1110 C1107 0.999 . S
H1111 C1092 0.913 . S
H1112 C1130 0.951 . S
H1113 C1132 0.951 . S
H1114 C1134 0.950 . S
H1115 C1135 0.950 . S
H1116 C1137 0.950 . S
H1117 C1140 0.950 . S
H1118 C1141 0.950 . S
H1119 C1143 0.950 . S
H1120 C1144 0.950 . S
H1121 C1145 0.951 . S
H1122 C1147 0.951 1_556 S
H1123 C1149 0.950 . S
H1124 C1150 0.950 . S
H1125 C1152 0.950 . S
H1126 C1155 0.950 . S
H1127 C1156 0.950 1_554 S
H1128 C1158 0.950 . S
H1129 C1159 0.950 . S
C1130 H1112 0.951 . S
C1130 C1131 1.366 . S
C1130 C1132 1.388 . S
C1131 C1130 1.366 . S
C1131 C1135 1.385 . S
C1132 H1113 0.951 . S
C1132 C1130 1.388 . S
C1132 C1133 1.366 . S
C1133 C1132 1.366 . S
C1133 C1134 1.414 . S
C1133 C1136 1.499 . S
C1134 H1114 0.950 . S
C1134 C1133 1.414 . S
C1134 C1135 1.374 . S
C1135 H1115 0.950 . S
C1135 C1131 1.385 . S
C1135 C1134 1.374 . S
C1136 C1133 1.499 . S
C1136 C1137 1.373 . S
C1136 C1138 1.389 . S
C1137 H1116 0.950 . S
C1137 C1136 1.373 . S
C1137 C1153 1.377 . S
C1138 C1136 1.389 . S
C1138 C1139 1.524 . S
C1138 C1152 1.377 . S
C1139 C1138 1.524 . S
C1139 C1140 1.397 . S
C1139 C1144 1.363 . S
C1140 H1117 0.950 . S
C1140 C1139 1.397 . S
C1140 C1141 1.334 . S
C1141 H1118 0.950 . S
C1141 C1140 1.334 . S
C1141 C1142 1.287 . S
C1142 C1141 1.287 . S
C1142 C1143 1.524 . S
C1142 H1161 0.913 . S
C1143 H1119 0.950 . S
C1143 C1142 1.524 . S
C1143 C1144 1.415 . S
C1144 H1120 0.950 . S
C1144 C1139 1.363 . S
C1144 C1143 1.415 . S
C1145 H1121 0.951 . S
C1145 C1146 1.366 . S
C1145 C1147 1.388 . S
C1146 C1145 1.366 . S
C1146 C1150 1.385 . S
C1147 H1122 0.951 1_554 S
C1147 C1145 1.388 . S
C1147 C1148 1.366 1_554 S
C1148 C1147 1.366 1_556 S
C1148 C1149 1.414 1_556 S
C1148 C1151 1.499 . S
C1149 H1123 0.950 . S
C1149 C1148 1.414 1_554 S
C1149 C1150 1.374 . S
C1150 H1124 0.950 . S
C1150 C1146 1.385 . S
C1150 C1149 1.374 . S
C1151 C1148 1.499 . S
C1151 C1152 1.373 . S
C1151 C1153 1.389 . S
C1152 H1125 0.950 . S
C1152 C1138 1.377 . S
C1152 C1151 1.373 . S
C1153 C1137 1.377 . S
C1153 C1151 1.389 . S
C1153 C1154 1.524 . S
C1154 C1153 1.524 . S
C1154 C1155 1.397 . S
C1154 C1159 1.363 . S
C1155 H1126 0.950 . S
C1155 C1154 1.397 . S
C1155 C1156 1.334 . S
C1156 H1127 0.950 1_556 S
C1156 C1155 1.334 . S
C1156 C1157 1.287 . S
C1157 C1156 1.287 . S
C1157 C1158 1.524 . S
C1157 H1160 0.999 . S
C1158 H1128 0.950 . S
C1158 C1157 1.524 . S
C1158 C1159 1.415 . S
C1159 H1129 0.950 . S
C1159 C1154 1.363 . S
C1159 C1158 1.415 . S
H1160 C1157 0.999 . S
H1161 C1142 0.913 . S
H1162 C1180 0.951 . S
H1163 C1182 0.951 . S
H1164 C1184 0.950 . S
H1165 C1185 0.950 . S
H1166 C1187 0.951 . S
H1167 C1190 0.950 . S
H1168 C1191 0.950 . S
H1169 C1193 0.950 . S
H1170 C1194 0.950 . S
H1171 C1195 0.951 . S
H1172 C1197 0.951 . S
H1173 C1199 0.952 . S
H1174 C1200 0.950 1_655 S
H1175 C1202 0.950 . S
H1176 C1205 0.950 . S
H1177 C1206 0.950 . S
H1178 C1208 0.950 . S
H1179 C1209 0.950 . S
C1180 H1162 0.951 . S
C1180 C1181 1.366 . S
C1180 C1182 1.388 . S
C1181 C1180 1.366 . S
C1181 C1185 1.385 . S
C1182 H1163 0.951 . S
C1182 C1180 1.388 . S
C1182 C1183 1.366 . S
C1183 C1182 1.366 . S
C1183 C1184 1.414 . S
C1183 C1186 1.499 . S
C1184 H1164 0.950 . S
C1184 C1183 1.414 . S
C1184 C1185 1.374 . S
C1185 H1165 0.950 . S
C1185 C1181 1.385 . S
C1185 C1184 1.374 . S
C1186 C1183 1.499 . S
C1186 C1187 1.365 1_455 S
C1186 C1188 1.389 . S
C1187 H1166 0.951 . S
C1187 C1186 1.365 1_655 S
C1187 C1203 1.386 . S
C1188 C1186 1.389 . S
C1188 C1189 1.524 . S
C1188 C1202 1.377 . S
C1189 C1188 1.524 . S
C1189 C1190 1.397 . S
C1189 C1194 1.363 . S
C1190 H1167 0.950 . S
C1190 C1189 1.397 . S
C1190 C1191 1.334 . S
C1191 H1168 0.950 . S
C1191 C1190 1.334 . S
C1191 C1192 1.287 . S
C1192 C1191 1.287 . S
C1192 C1193 1.524 . S
C1192 H1211 0.913 . S
C1193 H1169 0.950 . S
C1193 C1192 1.524 . S
C1193 C1194 1.415 . S
C1194 H1170 0.950 . S
C1194 C1189 1.363 . S
C1194 C1193 1.415 . S
C1195 H1171 0.951 . S
C1195 C1196 1.366 . S
C1195 C1197 1.388 . S
C1196 C1195 1.366 . S
C1196 C1200 1.385 . S
C1197 H1172 0.951 . S
C1197 C1195 1.388 . S
C1197 C1198 1.366 . S
C1198 C1197 1.366 . S
C1198 C1199 1.414 . S
C1198 C1201 1.499 . S
C1199 H1173 0.952 . S
C1199 C1198 1.414 . S
C1199 C1200 1.374 . S
C1200 H1174 0.950 1_455 S
C1200 C1196 1.385 . S
C1200 C1199 1.374 . S
C1201 C1198 1.499 . S
C1201 C1202 1.373 . S
C1201 C1203 1.389 1_455 S
C1202 H1175 0.950 . S
C1202 C1188 1.377 . S
C1202 C1201 1.373 . S
C1203 C1187 1.386 . S
C1203 C1201 1.389 1_655 S
C1203 C1204 1.524 . S
C1204 C1203 1.524 . S
C1204 C1205 1.397 . S
C1204 C1209 1.363 . S
C1205 H1176 0.950 . S
C1205 C1204 1.397 . S
C1205 C1206 1.334 . S
C1206 H1177 0.950 . S
C1206 C1205 1.334 . S
C1206 C1207 1.287 . S
C1207 C1206 1.287 . S
C1207 C1208 1.524 . S
C1207 H1210 0.999 . S
C1208 H1178 0.950 . S
C1208 C1207 1.524 . S
C1208 C1209 1.415 . S
C1209 H1179 0.950 . S
C1209 C1204 1.363 . S
C1209 C1208 1.415 . S
H1210 C1207 0.999 . S
H1211 C1192 0.913 . S
C331 C9 0.381 . S
C346 C303 0.326 . S
C381 C49 0.267 . S
C396 C239 0.344 . S
C431 C89 0.255 . S
C446 C271 0.360 . S
C481 C26 0.366 . S
C496 C297 0.276 . S
C546 C233 0.380 . S
C531 C66 0.397 . S
C596 C265 0.405 . S
C581 C106 0.426 . S
C631 C43 2.865 . S
C646 C175 2.812 . S
C681 C83 2.978 . S
C696 C207 2.910 . S
C731 C22 3.055 . S
C746 C137 2.993 . S
C796 C169 2.986 . S
C781 C62 3.044 . S
C846 C201 2.876 . S
C831 C102 2.928 . S
C881 C3 2.856 . S
C896 C143 2.805 . S
C946 C213 1.739 . S
C931 C15 1.721 . S
C981 C55 1.730 . S
C996 C149 1.739 . S
C1031 C95 1.725 . S
C1046 C181 1.735 . S
C1096 C277 1.081 . S
C1081 C42 1.091 . S
C1146 C309 1.101 . S
C1131 C82 1.095 . S
C1181 C2 1.091 . S
C1196 C245 1.079 . S
