# Generated by pormake.
# Topology nom, (4,4)-cn, num edge types: 1
# Building blocks:
#     Node 0, Type 0, BuildingBlock: AZAVOO_clean_linker_0, # of connection points: 4
#     Node 1, Type 0, BuildingBlock: AZAVOO_clean_linker_0, # of connection points: 4
#     Node 2, Type 0, BuildingBlock: AZAVOO_clean_linker_0, # of connection points: 4
#     Node 3, Type 0, BuildingBlock: AZAVOO_clean_linker_0, # of connection points: 4
#     Node 4, Type 0, BuildingBlock: AZAVOO_clean_linker_0, # of connection points: 4
#     Node 5, Type 0, BuildingBlock: AZAVOO_clean_linker_0, # of connection points: 4
#     Node 6, Type 1, BuildingBlock: QUQFOY_clean_sbu_1, # of connection points: 4
#     Node 7, Type 1, BuildingBlock: QUQFOY_clean_sbu_1, # of connection points: 4
#     Node 8, Type 1, BuildingBlock: QUQFOY_clean_sbu_1, # of connection points: 4
#     Node 9, Type 1, BuildingBlock: QUQFOY_clean_sbu_1, # of connection points: 4
#     Node 10, Type 1, BuildingBlock: QUQFOY_clean_sbu_1, # of connection points: 4
#     Node 11, Type 1, BuildingBlock: QUQFOY_clean_sbu_1, # of connection points: 4
#     Edge 12, Type (0, 1), BuildingBlock: AJUNOK_clean_linker_0, # of connection points: 2
#     Edge 13, Type (0, 1), BuildingBlock: AJUNOK_clean_linker_0, # of connection points: 2
#     Edge 14, Type (0, 1), BuildingBlock: AJUNOK_clean_linker_0, # of connection points: 2
#     Edge 15, Type (0, 1), BuildingBlock: AJUNOK_clean_linker_0, # of connection points: 2
#     Edge 16, Type (0, 1), BuildingBlock: AJUNOK_clean_linker_0, # of connection points: 2
#     Edge 17, Type (0, 1), BuildingBlock: AJUNOK_clean_linker_0, # of connection points: 2
#     Edge 18, Type (0, 1), BuildingBlock: AJUNOK_clean_linker_0, # of connection points: 2
#     Edge 19, Type (0, 1), BuildingBlock: AJUNOK_clean_linker_0, # of connection points: 2
#     Edge 20, Type (0, 1), BuildingBlock: AJUNOK_clean_linker_0, # of connection points: 2
#     Edge 21, Type (0, 1), BuildingBlock: AJUNOK_clean_linker_0, # of connection points: 2
#     Edge 22, Type (0, 1), BuildingBlock: AJUNOK_clean_linker_0, # of connection points: 2
#     Edge 23, Type (0, 1), BuildingBlock: AJUNOK_clean_linker_0, # of connection points: 2
#     Edge 24, Type (0, 1), BuildingBlock: AJUNOK_clean_linker_0, # of connection points: 2
#     Edge 25, Type (0, 1), BuildingBlock: AJUNOK_clean_linker_0, # of connection points: 2
#     Edge 26, Type (0, 1), BuildingBlock: AJUNOK_clean_linker_0, # of connection points: 2
#     Edge 27, Type (0, 1), BuildingBlock: AJUNOK_clean_linker_0, # of connection points: 2
#     Edge 28, Type (0, 1), BuildingBlock: AJUNOK_clean_linker_0, # of connection points: 2
#     Edge 29, Type (0, 1), BuildingBlock: AJUNOK_clean_linker_0, # of connection points: 2
#     Edge 30, Type (0, 1), BuildingBlock: AJUNOK_clean_linker_0, # of connection points: 2
#     Edge 31, Type (0, 1), BuildingBlock: AJUNOK_clean_linker_0, # of connection points: 2
#     Edge 32, Type (0, 1), BuildingBlock: AJUNOK_clean_linker_0, # of connection points: 2
#     Edge 33, Type (0, 1), BuildingBlock: AJUNOK_clean_linker_0, # of connection points: 2
#     Edge 34, Type (0, 1), BuildingBlock: AJUNOK_clean_linker_0, # of connection points: 2
#     Edge 35, Type (0, 1), BuildingBlock: AJUNOK_clean_linker_0, # of connection points: 2
# Relax obj value: 0.190
# Max RMSD: 0.252
# Mean RMSD: 0.188
data_MOF--net-nom--node1-QUQFOY_clean_sbu_1--node2-AZAVOO_clean_linker_0--edge1-AJUNOK_clean_linker_0
_symmetry_space_group_name_H-M    P1
_symmetry_Int_Tables_number       1
_symmetry_cell_setting            triclinic
loop_
_symmetry_equiv_pos_as_xyz
'x, y, z'
_cell_length_a     39.183297
_cell_length_b     40.699056
_cell_length_c     44.422442
_cell_angle_alpha  90.190198
_cell_angle_beta   89.733672
_cell_angle_gamma 120.92436
loop_
_atom_site_label
_atom_site_type_symbol
_atom_site_fract_x
_atom_site_fract_y
_atom_site_fract_z
_atom_type_partial_charge
H0 H 0.04432 0.46483 0.10297 0.0
H1 H 0.30113 0.67674 0.37602 0.0
H2 H 0.98655 0.43109 0.26142 0.0
H3 H 0.93707 0.40675 0.22131 0.0
H4 H 0.92412 0.50542 0.23127 0.0
H5 H 0.97494 0.53035 0.27077 0.0
H6 H 0.07029 0.46763 0.23285 0.0
H7 H 0.06296 0.45855 0.17821 0.0
H8 H 0.0337 0.54734 0.17251 0.0
H9 H 0.04113 0.55608 0.2271 0.0
H10 H 0.15081 0.51466 0.27038 0.0
H11 H 0.21901 0.55691 0.25195 0.0
H12 H 0.19143 0.64542 0.23549 0.0
H13 H 0.12355 0.6027 0.2526 0.0
H14 H 0.14041 0.51098 0.33686 0.0
H15 H 0.20623 0.54584 0.36027 0.0
H16 H 0.21164 0.65286 0.34263 0.0
H17 H 0.14557 0.61756 0.31969 0.0
H18 H 0.06878 0.48221 0.37129 0.0
H19 H 0.10793 0.50521 0.41719 0.0
H20 H 0.11028 0.61218 0.40906 0.0
H21 H 0.0754 0.59058 0.36133 0.0
H22 H 0.95712 0.44098 0.32707 0.0
H23 H 0.89369 0.43173 0.34585 0.0
H24 H 0.95061 0.55328 0.36262 0.0
H25 H 0.01215 0.56264 0.34121 0.0
O26 O 0.04773 0.46932 0.12446 0.0
O27 O 0.03238 0.51484 0.12285 0.0
O28 O 0.26857 0.60631 0.37909 0.0
O29 O 0.275 0.66223 0.36706 0.0
C30 C 0.02323 0.50266 0.28463 0.0
C31 C 0.0583 0.51628 0.26715 0.0
C32 C 0.09568 0.53557 0.28107 0.0
C33 C 0.09834 0.54056 0.31249 0.0
C34 C 0.06356 0.52793 0.33005 0.0
C35 C 0.02574 0.5098 0.31606 0.0
C36 C 0.98452 0.4826 0.26877 0.0
C37 C 0.97196 0.44675 0.25571 0.0
C38 C 0.9438 0.43296 0.23273 0.0
C39 C 0.92761 0.45474 0.22265 0.0
C40 C 0.93699 0.4886 0.2381 0.0
C41 C 0.96547 0.50256 0.26097 0.0
C42 C 0.05596 0.51229 0.23386 0.0
C43 C 0.06252 0.4852 0.2197 0.0
C44 C 0.05818 0.48001 0.18852 0.0
C45 C 0.04743 0.50202 0.17102 0.0
C46 C 0.04171 0.52972 0.18533 0.0
C47 C 0.04598 0.53481 0.21648 0.0
C48 C 0.13249 0.5558 0.26282 0.0
C49 C 0.1593 0.54269 0.26168 0.0
C50 C 0.19828 0.56701 0.25157 0.0
C51 C 0.21087 0.60482 0.24294 0.0
C52 C 0.18274 0.61646 0.2418 0.0
C53 C 0.14386 0.59209 0.25156 0.0
C54 C 0.13825 0.56178 0.32681 0.0
C55 C 0.15584 0.54194 0.33822 0.0
C56 C 0.1934 0.56192 0.35153 0.0
C57 C 0.21417 0.60216 0.35334 0.0
C58 C 0.19648 0.62191 0.34161 0.0
C59 C 0.15878 0.60186 0.32853 0.0
C60 C 0.06871 0.53443 0.36299 0.0
C61 C 0.07628 0.50999 0.3801 0.0
C62 C 0.09914 0.52344 0.40625 0.0
C63 C 0.11382 0.56126 0.4162 0.0
C64 C 0.10127 0.58364 0.40125 0.0
C65 C 0.07975 0.57071 0.37449 0.0
C66 C 0.98965 0.50251 0.33302 0.0
C67 C 0.95594 0.46552 0.33516 0.0
C68 C 0.91976 0.46026 0.34597 0.0
C69 C 0.91687 0.4919 0.35506 0.0
C70 C 0.95146 0.52843 0.35495 0.0
C71 C 0.98713 0.53375 0.34345 0.0
C72 C 0.04206 0.49592 0.138 0.0
C73 C 0.25416 0.62354 0.36733 0.0
H74 H 0.52254 0.05987 0.29024 0.0
H75 H 0.52214 0.26581 0.57317 0.0
H76 H 0.52836 0.00587 0.44636 0.0
H77 H 0.51762 0.95522 0.41137 0.0
H78 H 0.39125 0.89704 0.42935 0.0
H79 H 0.40223 0.94922 0.46352 0.0
H80 H 0.54944 0.0838 0.41996 0.0
H81 H 0.55026 0.08079 0.36495 0.0
H82 H 0.42189 0.00999 0.36483 0.0
H83 H 0.42147 0.01375 0.41978 0.0
H84 H 0.57117 0.14654 0.47167 0.0
H85 H 0.59391 0.20865 0.44813 0.0
H86 H 0.4772 0.1647 0.40965 0.0
H87 H 0.45398 0.10334 0.43504 0.0
H88 H 0.56436 0.13208 0.53403 0.0
H89 H 0.58347 0.19263 0.55928 0.0
H90 H 0.4707 0.17998 0.53448 0.0
H91 H 0.45173 0.11911 0.50974 0.0
H92 H 0.54364 0.05463 0.55188 0.0
H93 H 0.56614 0.08396 0.60122 0.0
H94 H 0.45592 0.0826 0.61382 0.0
H95 H 0.43508 0.05591 0.56318 0.0
H96 H 0.49529 0.96334 0.50877 0.0
H97 H 0.45607 0.89724 0.52682 0.0
H98 H 0.36718 0.92032 0.56125 0.0
H99 H 0.40453 0.98497 0.54066 0.0
O100 O 0.52153 0.06104 0.31196 0.0
O101 O 0.45556 0.02431 0.31319 0.0
O102 O 0.57317 0.24743 0.57502 0.0
O103 O 0.51507 0.24165 0.56377 0.0
C104 C 0.47297 0.01586 0.47377 0.0
C105 C 0.48492 0.04989 0.4573 0.0
C106 C 0.49625 0.08437 0.4726 0.0
C107 C 0.49522 0.08473 0.50435 0.0
C108 C 0.48287 0.05064 0.52083 0.0
C109 C 0.47072 0.01579 0.50562 0.0
C110 C 0.46604 0.98139 0.45709 0.0
C111 C 0.49841 0.9819 0.44307 0.0
C112 C 0.49223 0.95281 0.42325 0.0
C113 C 0.45353 0.92245 0.41728 0.0
C114 C 0.42131 0.92057 0.43304 0.0
C115 C 0.4275 0.95005 0.4527 0.0
C116 C 0.4854 0.04913 0.42383 0.0
C117 C 0.52153 0.06798 0.40798 0.0
C118 C 0.5219 0.06606 0.37657 0.0
C119 C 0.48613 0.04512 0.36048 0.0
C120 C 0.44997 0.02637 0.3765 0.0
C121 C 0.44964 0.02846 0.40788 0.0
C122 C 0.51072 0.12066 0.45558 0.0
C123 C 0.55046 0.15041 0.45828 0.0
C124 C 0.56351 0.18574 0.44455 0.0
C125 C 0.53719 0.19187 0.42743 0.0
C126 C 0.4979 0.16128 0.42341 0.0
C127 C 0.48468 0.12609 0.43761 0.0
C128 C 0.50652 0.12107 0.52033 0.0
C129 C 0.54365 0.14221 0.53441 0.0
C130 C 0.55458 0.1769 0.54864 0.0
C131 C 0.52865 0.19122 0.54881 0.0
C132 C 0.49138 0.16981 0.53476 0.0
C133 C 0.48045 0.13505 0.52063 0.0
C134 C 0.48795 0.05349 0.5539 0.0
C135 C 0.52373 0.05937 0.56575 0.0
C136 C 0.53662 0.07636 0.59397 0.0
C137 C 0.51348 0.08701 0.61104 0.0
C138 C 0.47524 0.07635 0.60067 0.0
C139 C 0.46281 0.06025 0.57206 0.0
C140 C 0.45237 0.9789 0.52258 0.0
C141 C 0.46736 0.95415 0.52024 0.0
C142 C 0.44504 0.91641 0.53081 0.0
C143 C 0.40774 0.903 0.54457 0.0
C144 C 0.39491 0.92913 0.54961 0.0
C145 C 0.41666 0.96644 0.53834 0.0
C146 C 0.48664 0.04278 0.32714 0.0
C147 C 0.54045 0.22846 0.56333 0.0
H148 H 0.58197 0.53441 0.85192 0.0
H149 H 0.63106 0.39548 0.55256 0.0
H150 H 0.59691 0.63278 0.69454 0.0
H151 H 0.5782 0.66091 0.7355 0.0
H152 H 0.4548 0.57416 0.72308 0.0
H153 H 0.47369 0.54584 0.6821 0.0
H154 H 0.62304 0.57665 0.72546 0.0
H155 H 0.61762 0.56693 0.78005 0.0
H156 H 0.49021 0.49259 0.77156 0.0
H157 H 0.49615 0.50224 0.71701 0.0
H158 H 0.65064 0.53696 0.68824 0.0
H159 H 0.66425 0.48978 0.7108 0.0
H160 H 0.53932 0.40377 0.70455 0.0
H161 H 0.52601 0.45123 0.68303 0.0
H162 H 0.65978 0.55228 0.624 0.0
H163 H 0.68689 0.51833 0.59663 0.0
H164 H 0.56796 0.42048 0.58667 0.0
H165 H 0.54125 0.45514 0.61346 0.0
H166 H 0.63464 0.59485 0.59036 0.0
H167 H 0.65351 0.57834 0.54304 0.0
H168 H 0.53103 0.4895 0.52855 0.0
H169 H 0.51343 0.50348 0.57774 0.0
H170 H 0.56536 0.63651 0.62116 0.0
H171 H 0.51879 0.65323 0.59869 0.0
H172 H 0.42816 0.53316 0.59605 0.0
H173 H 0.47472 0.51696 0.61747 0.0
O174 O 0.58337 0.53843 0.83036 0.0
O175 O 0.51789 0.50119 0.82487 0.0
O176 O 0.68126 0.46178 0.56698 0.0
O177 O 0.62119 0.40948 0.56359 0.0
C178 C 0.54955 0.56459 0.66818 0.0
C179 C 0.56365 0.54389 0.68412 0.0
C180 C 0.57895 0.5243 0.66828 0.0
C181 C 0.58223 0.52701 0.63678 0.0
C182 C 0.56755 0.54718 0.62076 0.0
C183 C 0.54917 0.56428 0.63639 0.0
C184 C 0.53663 0.58733 0.68549 0.0
C185 C 0.56569 0.62083 0.6998 0.0
C186 C 0.55506 0.63674 0.72317 0.0
C187 C 0.51522 0.61937 0.73235 0.0
C188 C 0.48567 0.58806 0.7161 0.0
C189 C 0.49637 0.57198 0.69273 0.0
C190 C 0.55997 0.54033 0.71739 0.0
C191 C 0.59399 0.5585 0.7355 0.0
C192 C 0.5908 0.5528 0.76664 0.0
C193 C 0.55351 0.52877 0.78015 0.0
C194 C 0.51939 0.51117 0.76188 0.0
C195 C 0.52266 0.51682 0.73076 0.0
C196 C 0.58737 0.49734 0.68416 0.0
C197 C 0.62629 0.50801 0.69217 0.0
C198 C 0.63401 0.48102 0.70474 0.0
C199 C 0.60289 0.443 0.70912 0.0
C200 C 0.56384 0.43288 0.70167 0.0
C201 C 0.55617 0.45985 0.68934 0.0
C202 C 0.5986 0.50622 0.62041 0.0
C203 C 0.63969 0.52356 0.61576 0.0
C204 C 0.65505 0.50411 0.60015 0.0
C205 C 0.62955 0.46674 0.58932 0.0
C206 C 0.5884 0.44927 0.59455 0.0
C207 C 0.57305 0.46895 0.60983 0.0
C208 C 0.57281 0.55005 0.58771 0.0
C209 C 0.61155 0.57286 0.57638 0.0
C210 C 0.62236 0.56313 0.54932 0.0
C211 C 0.59415 0.53123 0.53273 0.0
C212 C 0.55394 0.51279 0.54169 0.0
C213 C 0.54347 0.52156 0.56938 0.0
C214 C 0.52367 0.57546 0.62021 0.0
C215 C 0.53572 0.61392 0.61499 0.0
C216 C 0.50906 0.62338 0.60238 0.0
C217 C 0.47002 0.59446 0.59493 0.0
C218 C 0.45835 0.55607 0.6004 0.0
C219 C 0.4849 0.54672 0.61276 0.0
C220 C 0.55035 0.52186 0.81311 0.0
C221 C 0.6457 0.44599 0.57264 0.0
H222 H 0.99669 0.41674 0.01155 0.0
H223 H 0.28517 0.56897 0.72129 0.0
H224 H 0.9721 0.47028 0.83924 0.0
H225 H 0.92219 0.4536 0.87834 0.0
H226 H 0.91425 0.34449 0.89034 0.0
H227 H 0.96582 0.36238 0.85181 0.0
H228 H 0.02763 0.48138 0.89026 0.0
H229 H 0.01372 0.46362 0.94339 0.0
H230 H 0.03999 0.37373 0.92893 0.0
H231 H 0.0531 0.39139 0.87566 0.0
H232 H 0.11395 0.52398 0.87407 0.0
H233 H 0.17712 0.551 0.90121 0.0
H234 H 0.19743 0.46573 0.86074 0.0
H235 H 0.13351 0.43793 0.83495 0.0
H236 H 0.1311 0.55279 0.79915 0.0
H237 H 0.19539 0.59319 0.7743 0.0
H238 H 0.20021 0.49218 0.75176 0.0
H239 H 0.13583 0.45219 0.77657 0.0
H240 H 0.05586 0.52456 0.76053 0.0
H241 H 0.09176 0.55836 0.71489 0.0
H242 H 0.11 0.46489 0.69317 0.0
H243 H 0.07223 0.4306 0.73781 0.0
H244 H 0.97922 0.47472 0.76923 0.0
H245 H 0.91245 0.44121 0.74687 0.0
H246 H 0.90471 0.33285 0.76295 0.0
H247 H 0.97168 0.36651 0.78355 0.0
O248 O 0.00326 0.42386 0.99064 0.0
O249 O 0.01949 0.37963 0.98253 0.0
O250 O 0.25611 0.60477 0.74381 0.0
O251 O 0.26014 0.55377 0.73182 0.0
C252 C 0.01202 0.43403 0.82814 0.0
C253 C 0.04585 0.44595 0.84638 0.0
C254 C 0.08402 0.46594 0.83346 0.0
C255 C 0.08856 0.47524 0.80262 0.0
C256 C 0.05469 0.46288 0.78421 0.0
C257 C 0.0163 0.44128 0.79686 0.0
C258 C 0.97264 0.41763 0.84289 0.0
C259 C 0.95827 0.44207 0.84933 0.0
C260 C 0.92964 0.43241 0.87174 0.0
C261 C 0.91437 0.39775 0.88759 0.0
C262 C 0.92582 0.37156 0.87874 0.0
C263 C 0.95486 0.38148 0.85652 0.0
C264 C 0.04113 0.43751 0.87915 0.0
C265 C 0.03051 0.45797 0.89867 0.0
C266 C 0.02256 0.44774 0.92899 0.0
C267 C 0.02556 0.41713 0.94039 0.0
C268 C 0.0373 0.39737 0.92086 0.0
C269 C 0.04499 0.40749 0.89049 0.0
C270 C 0.11955 0.47927 0.85248 0.0
C271 C 0.13165 0.51062 0.87177 0.0
C272 C 0.16764 0.526 0.88713 0.0
C273 C 0.19204 0.51033 0.88319 0.0
C274 C 0.17887 0.47786 0.86479 0.0
C275 C 0.14269 0.46227 0.84973 0.0
C276 C 0.12899 0.49968 0.78967 0.0
C277 C 0.14634 0.53955 0.78908 0.0
C278 C 0.18295 0.5625 0.77478 0.0
C279 C 0.20289 0.54589 0.76095 0.0
C280 C 0.18566 0.50589 0.76215 0.0
C281 C 0.14901 0.48299 0.77641 0.0
C282 C 0.06102 0.47492 0.75228 0.0
C283 C 0.06552 0.51042 0.74492 0.0
C284 C 0.08681 0.53006 0.71919 0.0
C285 C 0.1041 0.51454 0.70052 0.0
C286 C 0.09649 0.47743 0.70664 0.0
C287 C 0.07467 0.4576 0.73212 0.0
C288 C 0.98027 0.423 0.77784 0.0
C289 C 0.96355 0.44386 0.76687 0.0
C290 C 0.9252 0.42462 0.75458 0.0
C291 C 0.90293 0.38429 0.75367 0.0
C292 C 0.92101 0.36387 0.76307 0.0
C293 C 0.9593 0.38305 0.77492 0.0
C294 C 0.01604 0.40568 0.97243 0.0
C295 C 0.24131 0.57004 0.74508 0.0
H296 H 0.42223 0.01836 0.79814 0.0
H297 H 0.40171 0.77006 0.05852 0.0
H298 H 0.4741 0.0833 0.94909 0.0
H299 H 0.51091 0.13565 0.91347 0.0
H300 H 0.61896 0.13677 0.93493 0.0
H301 H 0.58146 0.08286 0.9691 0.0
H302 H 0.4111 0.99329 0.92834 0.0
H303 H 0.40389 0.99999 0.87436 0.0
H304 H 0.52848 0.03907 0.86113 0.0
H305 H 0.53509 0.03162 0.91499 0.0
H306 H 0.38415 0.90968 0.96553 0.0
H307 H 0.36561 0.84857 0.94073 0.0
H308 H 0.48682 0.89738 0.90946 0.0
H309 H 0.50469 0.95749 0.93375 0.0
H310 H 0.39897 0.93121 0.0385 0.0
H311 H 0.36998 0.86754 0.06114 0.0
H312 H 0.46107 0.85334 0.01853 0.0
H313 H 0.49015 0.91727 0.99656 0.0
H314 H 0.4528 0.00612 0.07173 0.0
H315 H 0.45462 0.98089 0.12153 0.0
H316 H 0.54028 0.95286 0.08808 0.0
H317 H 0.53844 0.97813 0.03877 0.0
H318 H 0.50328 0.1015 0.0198 0.0
H319 H 0.55897 0.16371 0.03587 0.0
H320 H 0.62913 0.11145 0.0524 0.0
H321 H 0.57547 0.0509 0.03328 0.0
O322 O 0.4257 0.01576 0.81939 0.0
O323 O 0.49001 0.03611 0.81387 0.0
O324 O 0.36615 0.80385 0.07113 0.0
O325 O 0.41259 0.79533 0.04996 0.0
C326 C 0.50132 0.04137 0.97657 0.0
C327 C 0.47781 0.00862 0.95853 0.0
C328 C 0.46019 0.97178 0.97128 0.0
C329 C 0.46417 0.96758 0.00236 0.0
C330 C 0.48771 0.0002 0.02042 0.0
C331 C 0.50649 0.03722 0.00761 0.0
C332 C 0.52503 0.07915 0.96156 0.0
C333 C 0.50593 0.09563 0.94675 0.0
C334 C 0.5271 0.12575 0.92659 0.0
C335 C 0.56785 0.14028 0.92142 0.0
C336 C 0.58755 0.12594 0.93836 0.0
C337 C 0.56625 0.09543 0.95811 0.0
C338 C 0.4737 0.01247 0.92564 0.0
C339 C 0.43676 0.00325 0.91372 0.0
C340 C 0.43275 0.00715 0.88289 0.0
C341 C 0.46565 0.02024 0.86344 0.0
C342 C 0.50258 0.02907 0.87548 0.0
C343 C 0.50648 0.02501 0.90626 0.0
C344 C 0.44572 0.93797 0.95133 0.0
C345 C 0.40622 0.90731 0.95249 0.0
C346 C 0.39581 0.87249 0.93855 0.0
C347 C 0.42488 0.86813 0.92343 0.0
C348 C 0.4636 0.8999 0.92058 0.0
C349 C 0.4739 0.93439 0.93443 0.0
C350 C 0.44638 0.92866 0.0157 0.0
C351 C 0.41256 0.91426 0.0341 0.0
C352 C 0.39608 0.87791 0.04697 0.0
C353 C 0.41317 0.8553 0.04158 0.0
C354 C 0.44714 0.86994 0.02313 0.0
C355 C 0.46371 0.90637 0.01043 0.0
C356 C 0.49577 0.99426 0.05184 0.0
C357 C 0.47304 0.99588 0.07558 0.0
C358 C 0.47392 0.98127 0.10383 0.0
C359 C 0.49777 0.96517 0.1086 0.0
C360 C 0.52232 0.96583 0.08523 0.0
C361 C 0.52125 0.98019 0.05707 0.0
C362 C 0.5351 0.07144 0.02533 0.0
C363 C 0.53043 0.10337 0.02748 0.0
C364 C 0.56221 0.13886 0.03671 0.0
C365 C 0.59879 0.14263 0.04449 0.0
C366 C 0.60174 0.10967 0.04553 0.0
C367 C 0.57058 0.07465 0.03537 0.0
C368 C 0.46135 0.02456 0.83074 0.0
C369 C 0.39577 0.81666 0.05516 0.0
H370 H 0.58943 0.62299 0.94086 0.0
H371 H 0.80467 0.54292 0.19711 0.0
H372 H 0.55249 0.61207 0.11517 0.0
H373 H 0.51693 0.62606 0.0777 0.0
H374 H 0.62508 0.73158 0.05569 0.0
H375 H 0.65994 0.71892 0.09554 0.0
H376 H 0.58731 0.58401 0.06769 0.0
H377 H 0.57829 0.58937 0.0138 0.0
H378 H 0.69325 0.69385 0.01027 0.0
H379 H 0.70183 0.68803 0.0642 0.0
H380 H 0.62857 0.53873 0.10538 0.0
H381 H 0.65539 0.50221 0.08274 0.0
H382 H 0.76062 0.60778 0.05541 0.0
H383 H 0.73457 0.6442 0.08053 0.0
H384 H 0.63544 0.53777 0.16627 0.0
H385 H 0.66972 0.50571 0.18454 0.0
H386 H 0.78292 0.60988 0.17045 0.0
H387 H 0.74817 0.64174 0.15262 0.0
H388 H 0.58479 0.56532 0.18956 0.0
H389 H 0.58391 0.529 0.23335 0.0
H390 H 0.70173 0.62088 0.25719 0.0
H391 H 0.70337 0.65575 0.21186 0.0
H392 H 0.55426 0.61929 0.1667 0.0
H393 H 0.52803 0.65385 0.19359 0.0
H394 H 0.64779 0.74108 0.21823 0.0
H395 H 0.67382 0.70826 0.18813 0.0
O396 O 0.59421 0.62075 0.9619 0.0
O397 O 0.65465 0.67287 0.96073 0.0
O398 O 0.7314 0.50191 0.19634 0.0
O399 O 0.79033 0.55509 0.19045 0.0
C400 C 0.63175 0.64924 0.1223 0.0
C401 C 0.6489 0.63398 0.10281 0.0
C402 C 0.66709 0.6149 0.11478 0.0
C403 C 0.66877 0.61137 0.14619 0.0
C404 C 0.65025 0.62516 0.16565 0.0
C405 C 0.63233 0.64475 0.15384 0.0
C406 C 0.60862 0.66483 0.10862 0.0
C407 C 0.56785 0.63969 0.10413 0.0
C408 C 0.54777 0.64734 0.08215 0.0
C409 C 0.56847 0.67953 0.06348 0.0
C410 C 0.60834 0.70674 0.06996 0.0
C411 C 0.62825 0.69956 0.09271 0.0
C412 C 0.64518 0.63564 0.06971 0.0
C413 C 0.61064 0.60779 0.05512 0.0
C414 C 0.60553 0.61103 0.0244 0.0
C415 C 0.63493 0.64219 0.00777 0.0
C416 C 0.66997 0.66956 0.02242 0.0
C417 C 0.67505 0.66625 0.05316 0.0
C418 C 0.67985 0.59399 0.09481 0.0
C419 C 0.65705 0.55392 0.09392 0.0
C420 C 0.67226 0.53308 0.08059 0.0
C421 C 0.71011 0.55202 0.06703 0.0
C422 C 0.73151 0.59236 0.0659 0.0
C423 C 0.71661 0.61323 0.07995 0.0
C424 C 0.68934 0.5922 0.15851 0.0
C425 C 0.6676 0.55376 0.16757 0.0
C426 C 0.68728 0.53545 0.17777 0.0
C427 C 0.7291 0.55522 0.17886 0.0
C428 C 0.75072 0.59382 0.16989 0.0
C429 C 0.73097 0.61211 0.15976 0.0
C430 C 0.64431 0.61287 0.19744 0.0
C431 C 0.60979 0.57826 0.2049 0.0
C432 C 0.60948 0.55739 0.22984 0.0
C433 C 0.64346 0.57132 0.24798 0.0
C434 C 0.67584 0.60857 0.24277 0.0
C435 C 0.67651 0.62901 0.21735 0.0
C436 C 0.61597 0.66206 0.17442 0.0
C437 C 0.57483 0.64614 0.17751 0.0
C438 C 0.55984 0.66552 0.19367 0.0
C439 C 0.58574 0.70038 0.20827 0.0
C440 C 0.62697 0.71471 0.20686 0.0
C441 C 0.64192 0.69588 0.18988 0.0
C442 C 0.62871 0.64628 0.97538 0.0
C443 C 0.75018 0.53567 0.18907 0.0
O444 O 0.6213 0.4408 0.42435 0.0
Cd445 Cd 0.62481 0.4153 0.38561 0.0
Cd446 Cd 0.70289 0.47262 0.39007 0.0
O447 O 0.68442 0.48616 0.42945 0.0
O448 O 0.57552 0.36386 0.38674 0.0
O449 O 0.63594 0.37231 0.38817 0.0
C450 C 0.59783 0.34933 0.3895 0.0
C451 C 0.76432 0.47637 0.38567 0.0
C452 C 0.64853 0.46923 0.43859 0.0
C453 C 0.65441 0.47344 0.33728 0.0
O454 O 0.68708 0.48888 0.35148 0.0
O455 O 0.62461 0.44222 0.34638 0.0
O456 O 0.76176 0.50653 0.38841 0.0
O457 O 0.73192 0.44339 0.38747 0.0
O458 O 0.23919 0.59115 0.59534 0.0
Cd459 Cd 0.27835 0.61397 0.55997 0.0
Cd460 Cd 0.26377 0.6718 0.56744 0.0
O461 O 0.23362 0.64134 0.60585 0.0
O462 O 0.30555 0.58394 0.55721 0.0
O463 O 0.33762 0.64589 0.56752 0.0
C464 C 0.33849 0.61486 0.56357 0.0
C465 C 0.30569 0.73871 0.56705 0.0
C466 C 0.2247 0.6071 0.61123 0.0
C467 C 0.23191 0.62266 0.51151 0.0
O468 O 0.2335 0.64932 0.52753 0.0
O469 O 0.25 0.60566 0.51938 0.0
O470 O 0.26763 0.72261 0.56948 0.0
O471 O 0.32051 0.71674 0.5666 0.0
O472 O 0.65062 0.21567 0.79259 0.0
Cd473 Cd 0.66733 0.23492 0.74925 0.0
Cd474 Cd 0.6127 0.2553 0.75383 0.0
O475 O 0.61032 0.23809 0.79778 0.0
O476 O 0.72269 0.24644 0.74255 0.0
O477 O 0.70609 0.29094 0.74372 0.0
C478 C 0.73334 0.28216 0.74145 0.0
C479 C 0.61648 0.31347 0.74504 0.0
C480 C 0.62726 0.22133 0.80874 0.0
C481 C 0.59803 0.19478 0.70802 0.0
O482 O 0.58471 0.2138 0.72103 0.0
O483 O 0.63166 0.19964 0.71526 0.0
O484 O 0.58411 0.28392 0.75446 0.0
O485 O 0.64724 0.31018 0.74102 0.0
O486 O 0.49652 0.6989 0.93467 0.0
Cd487 Cd 0.46352 0.6969 0.89737 0.0
Cd488 Cd 0.42848 0.6212 0.90657 0.0
O489 O 0.46223 0.63692 0.94433 0.0
O490 O 0.47541 0.75007 0.89096 0.0
O491 O 0.41637 0.70267 0.90564 0.0
C492 C 0.43923 0.73829 0.89886 0.0
C493 C 0.36008 0.58993 0.9089 0.0
C494 C 0.48958 0.6706 0.95116 0.0
C495 C 0.46937 0.64858 0.8484 0.0
O496 O 0.45446 0.62084 0.8668 0.0
O497 O 0.47316 0.68057 0.8554 0.0
O498 O 0.3783 0.57129 0.91248 0.0
O499 O 0.38119 0.62646 0.90465 0.0
O500 O 0.83222 0.3632 0.02122 0.0
Cd501 Cd 0.79928 0.35137 0.0603 0.0
Cd502 Cd 0.81486 0.42586 0.05013 0.0
O503 O 0.83379 0.41656 0.00943 0.0
O504 O 0.77415 0.29514 0.06339 0.0
O505 O 0.7396 0.32398 0.05744 0.0
C506 C 0.74035 0.29271 0.05959 0.0
C507 C 0.78333 0.46099 0.04829 0.0
C508 C 0.84034 0.38997 0.00273 0.0
C509 C 0.84537 0.4088 0.10764 0.0
O510 O 0.84565 0.43325 0.08976 0.0
O511 O 0.82679 0.37351 0.10078 0.0
O512 O 0.82131 0.4772 0.04546 0.0
O513 O 0.76275 0.42426 0.05166 0.0
O514 O 0.50263 0.86948 0.2263 0.0
Cd515 Cd 0.49651 0.83244 0.26041 0.0
Cd516 Cd 0.41916 0.80116 0.25051 0.0
O517 O 0.43911 0.83834 0.21478 0.0
O518 O 0.54493 0.82823 0.25986 0.0
O519 O 0.4842 0.77969 0.25001 0.0
C520 C 0.52193 0.79284 0.2522 0.0
C521 C 0.36577 0.73966 0.24179 0.0
C522 C 0.47438 0.86549 0.20978 0.0
C523 C 0.45032 0.83936 0.31046 0.0
O524 O 0.42118 0.82402 0.29234 0.0
O525 O 0.48375 0.8437 0.30294 0.0
O526 O 0.36161 0.76902 0.24131 0.0
O527 O 0.40058 0.74495 0.24711 0.0
C528 C 0.26505 0.66161 0.21589 0.0
C529 C 0.25364 0.63397 0.23874 0.0
C530 C 0.30269 0.69489 0.21591 0.0
C531 C 0.33063 0.70119 0.23825 0.0
H532 H 0.2439 0.65858 0.19887 0.0
H533 H 0.30937 0.71663 0.19909 0.0
S534 S 0.31737 0.63669 0.30153 0.0
N535 N 0.27448 0.61453 0.28353 0.0
N536 N 0.34603 0.67635 0.28239 0.0
C537 C 0.32104 0.67257 0.25976 0.0
C538 C 0.28232 0.63903 0.26025 0.0
C539 C 0.58816 0.25243 0.40151 0.0
C540 C 0.55049 0.23071 0.41523 0.0
C541 C 0.60285 0.29041 0.39243 0.0
C542 C 0.58029 0.30805 0.39642 0.0
H543 H 0.60673 0.24015 0.39816 0.0
H544 H 0.63234 0.30621 0.38257 0.0
S545 S 0.48015 0.26398 0.43177 0.0
N546 N 0.49133 0.23007 0.43291 0.0
N547 N 0.51825 0.3008 0.41505 0.0
C548 C 0.54216 0.28635 0.40944 0.0
C549 C 0.52744 0.24787 0.41901 0.0
C550 C 0.43502 0.63179 0.59764 0.0
C551 C 0.44034 0.60379 0.58329 0.0
C552 C 0.40319 0.63681 0.58998 0.0
C553 C 0.37534 0.61371 0.56797 0.0
H554 H 0.45438 0.64864 0.61593 0.0
H555 H 0.39918 0.65747 0.60251 0.0
S556 S 0.37986 0.54112 0.52019 0.0
N557 N 0.41821 0.55657 0.54308 0.0
N558 N 0.35783 0.56508 0.5295 0.0
C559 C 0.38172 0.58731 0.55224 0.0
C560 C 0.41434 0.58259 0.55969 0.0
C561 C 0.84418 0.32901 0.72861 0.0
C562 C 0.85987 0.36277 0.7459 0.0
C563 C 0.80305 0.30393 0.72604 0.0
C564 C 0.77599 0.31199 0.74012 0.0
H565 H 0.86389 0.32106 0.71804 0.0
H566 H 0.79239 0.27743 0.71369 0.0
S567 S 0.80123 0.39741 0.78653 0.0
N568 N 0.84471 0.40338 0.77657 0.0
N569 N 0.76743 0.35699 0.77054 0.0
C570 C 0.79106 0.34675 0.75583 0.0
C571 C 0.83301 0.372 0.75897 0.0
C572 C 0.43353 0.82664 0.88657 0.0
C573 C 0.41759 0.83009 0.91404 0.0
C574 C 0.43812 0.79531 0.88091 0.0
C575 C 0.4259 0.76587 0.90215 0.0
H576 H 0.44514 0.84966 0.87024 0.0
H577 H 0.45306 0.79501 0.86041 0.0
S578 S 0.37854 0.75893 0.97606 0.0
N579 N 0.38706 0.79991 0.96183 0.0
N580 N 0.39397 0.74002 0.95035 0.0
C581 C 0.40658 0.76708 0.92844 0.0
C582 C 0.40271 0.79944 0.93457 0.0
C583 C 0.76879 0.5435 0.06689 0.0
C584 C 0.72929 0.53005 0.05809 0.0
C585 C 0.78628 0.52135 0.0626 0.0
C586 C 0.76476 0.48455 0.0499 0.0
H587 H 0.78592 0.57071 0.0784 0.0
H588 H 0.81641 0.53254 0.07051 0.0
S589 S 0.66237 0.43778 0.01952 0.0
N590 N 0.6707 0.47918 0.03291 0.0
N591 N 0.70322 0.43672 0.02621 0.0
C592 C 0.72582 0.47115 0.03999 0.0
C593 C 0.70819 0.49409 0.04375 0.0
C594 C 0.39625 0.84003 0.56469 0.0
C595 C 0.38108 0.8614 0.55156 0.0
C596 C 0.37174 0.80046 0.57001 0.0
C597 C 0.33102 0.78082 0.56274 0.0
H598 H 0.42734 0.85396 0.57087 0.0
H599 H 0.38479 0.78517 0.57992 0.0
S600 S 0.2772 0.82261 0.52564 0.0
N601 N 0.3231 0.85901 0.52951 0.0
N602 N 0.27704 0.78544 0.54052 0.0
C603 C 0.3155 0.80182 0.54961 0.0
C604 C 0.34048 0.84184 0.54378 0.0
C605 C 0.58553 0.38742 0.74272 0.0
C606 C 0.61059 0.41317 0.72049 0.0
C607 C 0.58866 0.35602 0.75121 0.0
C608 C 0.61724 0.34932 0.73804 0.0
H609 H 0.56264 0.39107 0.75315 0.0
H610 H 0.56798 0.33643 0.76787 0.0
S611 S 0.69074 0.40873 0.67931 0.0
N612 N 0.66535 0.43022 0.68572 0.0
N613 N 0.67198 0.37166 0.70234 0.0
C614 C 0.64363 0.37569 0.71669 0.0
C615 C 0.64014 0.40752 0.70777 0.0
C616 C 0.25759 0.57022 0.88938 0.0
C617 C 0.23324 0.53073 0.89474 0.0
C618 C 0.29828 0.58946 0.89554 0.0
C619 C 0.31626 0.56986 0.90708 0.0
H620 H 0.24557 0.5861 0.87886 0.0
H621 H 0.31598 0.61956 0.88983 0.0
S622 S 0.2643 0.46746 0.92939 0.0
N623 N 0.22887 0.47354 0.9156 0.0
N624 N 0.30578 0.50956 0.92677 0.0
C625 C 0.29184 0.53081 0.91427 0.0
C626 C 0.25023 0.51127 0.90815 0.0
C627 C 0.63392 0.20953 0.06583 0.0
C628 C 0.63491 0.18109 0.04832 0.0
C629 C 0.66803 0.24604 0.06921 0.0
C630 C 0.70421 0.25492 0.05556 0.0
H631 H 0.60676 0.20341 0.07719 0.0
H632 H 0.66631 0.26714 0.08301 0.0
S633 S 0.72126 0.19275 0.00423 0.0
N634 N 0.6742 0.16618 0.01446 0.0
N635 N 0.7384 0.23389 0.02207 0.0
C636 C 0.70536 0.22717 0.03751 0.0
C637 C 0.67068 0.19047 0.03357 0.0
C638 C 0.59073 0.76342 0.21797 0.0
C639 C 0.57029 0.72347 0.2225 0.0
C640 C 0.57552 0.78573 0.22874 0.0
C641 C 0.53883 0.76895 0.2439 0.0
H642 H 0.61811 0.77756 0.20506 0.0
H643 H 0.59188 0.81618 0.22404 0.0
S644 S 0.47552 0.66671 0.26485 0.0
N645 N 0.51325 0.66887 0.24629 0.0
N646 N 0.48365 0.71075 0.26494 0.0
C647 C 0.51849 0.72938 0.24939 0.0
C648 C 0.53444 0.70667 0.23907 0.0
C649 C 0.85027 0.45791 0.38163 0.0
C650 C 0.87762 0.48756 0.3626 0.0
C651 C 0.81338 0.45406 0.38902 0.0
C652 C 0.80294 0.48006 0.37798 0.0
H653 H 0.85759 0.43783 0.39114 0.0
H654 H 0.79325 0.43102 0.40383 0.0
S655 S 0.8613 0.55926 0.32414 0.0
N656 N 0.88935 0.5406 0.33029 0.0
N657 N 0.82122 0.53431 0.34515 0.0
C658 C 0.82954 0.50917 0.35842 0.0
C659 C 0.86656 0.51268 0.35048 0.0
C660 C 0.14183 0.55554 0.46539 0.0
C661 C 0.14451 0.57797 0.44038 0.0
C662 C 0.17115 0.56995 0.48774 0.0
C663 C 0.20384 0.60752 0.48625 0.0
H664 H 0.11668 0.5267 0.46793 0.0
H665 H 0.16766 0.55188 0.50678 0.0
S666 S 0.22689 0.67757 0.42523 0.0
N667 N 0.18482 0.63924 0.41475 0.0
N668 N 0.23826 0.66673 0.45801 0.0
C669 C 0.20719 0.63036 0.46163 0.0
C670 C 0.17793 0.61549 0.4384 0.0
C671 C 0.5558 0.10725 0.65752 0.0
C672 C 0.53136 0.11275 0.63755 0.0
C673 C 0.57707 0.13381 0.68033 0.0
C674 C 0.57421 0.16658 0.68443 0.0
H675 H 0.55905 0.08249 0.65523 0.0
H676 H 0.59593 0.12861 0.69487 0.0
S677 S 0.51471 0.19484 0.63846 0.0
N678 N 0.50636 0.15432 0.62323 0.0
N679 N 0.54484 0.20307 0.66703 0.0
C680 C 0.54911 0.17201 0.66528 0.0
C681 C 0.52802 0.14538 0.64165 0.0
C682 C 0.47981 0.64372 0.76404 0.0
C683 C 0.50557 0.62938 0.76178 0.0
C684 C 0.46915 0.65129 0.79231 0.0
C685 C 0.48308 0.64359 0.81892 0.0
H686 H 0.4678 0.64891 0.7439 0.0
H687 H 0.44897 0.66204 0.79341 0.0
S688 S 0.55179 0.60689 0.82486 0.0
N689 N 0.54558 0.6089 0.78831 0.0
N690 N 0.5245 0.62201 0.84135 0.0
C691 C 0.50897 0.62954 0.81686 0.0
C692 C 0.52049 0.62268 0.78825 0.0
C693 C 0.90265 0.38007 0.9421 0.0
C694 C 0.89163 0.39179 0.91591 0.0
C695 C 0.88527 0.37872 0.97004 0.0
C696 C 0.85689 0.38982 0.97291 0.0
H697 H 0.92594 0.3732 0.94126 0.0
H698 H 0.89513 0.37022 0.9897 0.0
S699 S 0.81439 0.41843 0.91098 0.0
N700 N 0.84756 0.41095 0.8943 0.0
N701 N 0.81613 0.40997 0.94711 0.0
C702 C 0.84471 0.40049 0.94688 0.0
C703 C 0.86179 0.40111 0.91832 0.0
C704 C 0.45476 0.91356 0.14467 0.0
C705 C 0.49298 0.94288 0.13617 0.0
C706 C 0.44926 0.88897 0.16852 0.0
C707 C 0.48177 0.8927 0.18493 0.0
H708 H 0.4289 0.90876 0.13216 0.0
H709 H 0.41913 0.86656 0.17384 0.0
S710 S 0.58802 0.96661 0.1724 0.0
N711 N 0.56382 0.97558 0.14648 0.0
N712 N 0.55373 0.92933 0.19147 0.0
C713 C 0.52023 0.92259 0.17703 0.0
C714 C 0.52576 0.94762 0.15261 0.0
C715 C 0.61359 0.52126 0.28852 0.0
C716 C 0.64638 0.54556 0.27013 0.0
C717 C 0.61555 0.4962 0.30907 0.0
C718 C 0.6505 0.49488 0.3122 0.0
H719 H 0.58646 0.52214 0.28747 0.0
H720 H 0.59012 0.47897 0.3235 0.0
S721 S 0.74311 0.54925 0.26739 0.0
N722 N 0.71353 0.56369 0.25451 0.0
N723 N 0.71761 0.51788 0.29409 0.0
C724 C 0.68304 0.5181 0.29344 0.0
C725 C 0.6809 0.54314 0.27221 0.0
C726 C 0.47261 0.8807 0.38935 0.0
C727 C 0.44729 0.89554 0.39239 0.0
C728 C 0.47231 0.86114 0.36325 0.0
C729 C 0.44636 0.85531 0.33936 0.0
H730 H 0.49385 0.88547 0.40685 0.0
H731 H 0.49331 0.85141 0.36147 0.0
S732 S 0.37327 0.88749 0.33648 0.0
N733 N 0.3951 0.9025 0.36948 0.0
N734 N 0.39357 0.86468 0.32088 0.0
C735 C 0.41947 0.8683 0.34274 0.0
C736 C 0.42014 0.88865 0.36915 0.0
C737 C 0.63855 0.53908 0.48882 0.0
C738 C 0.60759 0.51481 0.50865 0.0
C739 C 0.65316 0.52424 0.46713 0.0
C740 C 0.63695 0.48457 0.46419 0.0
H741 H 0.65132 0.56981 0.48979 0.0
H742 H 0.67628 0.54388 0.45185 0.0
S743 S 0.55803 0.40862 0.51167 0.0
N744 N 0.56354 0.4489 0.52512 0.0
N745 N 0.58987 0.42129 0.48344 0.0
C746 C 0.60656 0.45998 0.48401 0.0
C747 C 0.59212 0.475 0.50641 0.0
C748 C 0.16311 0.5766 0.68312 0.0
C749 C 0.13328 0.53841 0.67679 0.0
C750 C 0.19253 0.59903 0.66179 0.0
C751 C 0.19368 0.58376 0.63368 0.0
H752 H 0.16429 0.58903 0.70497 0.0
H753 H 0.21501 0.62814 0.66758 0.0
S754 S 0.12066 0.48691 0.60482 0.0
N755 N 0.10513 0.48768 0.63928 0.0
N756 N 0.16125 0.52917 0.59979 0.0
C757 C 0.16379 0.54593 0.62688 0.0
C758 C 0.13344 0.52341 0.64829 0.0
C759 C 0.60867 0.15562 0.87471 0.0
C760 C 0.58798 0.16554 0.89525 0.0
C761 C 0.623 0.17515 0.84746 0.0
C762 C 0.61686 0.20513 0.8395 0.0
H763 H 0.61214 0.1313 0.879 0.0
H764 H 0.63731 0.16535 0.83193 0.0
S765 S 0.56943 0.2457 0.88735 0.0
N766 N 0.56591 0.20996 0.90737 0.0
N767 N 0.59223 0.24643 0.85577 0.0
C768 C 0.59808 0.21671 0.86054 0.0
C769 C 0.58374 0.19694 0.88846 0.0
C770 C 0.53408 0.6468 0.01638 0.0
C771 C 0.55062 0.67996 0.03433 0.0
C772 C 0.51555 0.64476 0.9892 0.0
C773 C 0.51297 0.67589 0.97861 0.0
H774 H 0.53519 0.62194 0.02351 0.0
H775 H 0.5028 0.61828 0.9765 0.0
S776 S 0.55332 0.7701 0.01639 0.0
N777 N 0.56473 0.74525 0.03926 0.0
N778 N 0.52986 0.74161 0.98759 0.0
C779 C 0.53069 0.70988 0.9957 0.0
C780 C 0.54957 0.71188 0.02369 0.0
C781 C 0.87471 0.40616 0.18863 0.0
C782 C 0.90495 0.44425 0.19404 0.0
C783 C 0.85563 0.39498 0.16065 0.0
C784 C 0.86604 0.42147 0.13701 0.0
H785 H 0.86592 0.38476 0.20611 0.0
H786 H 0.83247 0.36531 0.1576 0.0
S787 S 0.94506 0.5243 0.13918 0.0
N788 N 0.94563 0.50815 0.17309 0.0
N789 N 0.90946 0.48739 0.12072 0.0
C790 C 0.89622 0.45971 0.14218 0.0
C791 C 0.91572 0.47103 0.17062 0.0
loop_
_geom_bond_atom_site_label_1
_geom_bond_atom_site_label_2
_geom_bond_distance
_geom_bond_site_symmetry_2
_ccdc_geom_bond_type
H0 O26 0.856 . S
H1 O29 0.854 . S
H2 C37 0.930 1_455 S
H3 C38 0.930 . S
H4 C40 0.930 . S
H5 C41 0.930 . S
H6 C43 0.931 . S
H7 C44 0.930 . S
H8 C46 0.930 . S
H9 C47 0.929 . S
H10 C49 0.930 . S
H11 C50 0.931 . S
H12 C52 0.930 . S
H13 C53 0.929 . S
H14 C55 0.931 . S
H15 C56 0.930 . S
H16 C58 0.930 . S
H17 C59 0.932 . S
H18 C61 0.930 . S
H19 C62 0.929 . S
H20 C64 0.931 . S
H21 C65 0.930 . S
H22 C67 0.929 . S
H23 C68 0.931 . S
H24 C70 0.930 . S
H25 C71 0.929 . S
O26 H0 0.856 . S
O26 C72 1.300 . S
O27 C72 1.209 . S
O28 C73 1.199 . S
O29 H1 0.854 . S
O29 C73 1.297 . S
C30 C31 1.404 . S
C30 C35 1.397 . S
C30 C36 1.492 . S
C31 C30 1.404 . S
C31 C32 1.396 . S
C31 C42 1.492 . S
C32 C31 1.396 . S
C32 C33 1.397 . S
C32 C48 1.509 . S
C33 C32 1.397 . S
C33 C34 1.412 . S
C33 C54 1.485 . S
C34 C33 1.412 . S
C34 C35 1.388 . S
C34 C60 1.490 . S
C35 C30 1.397 . S
C35 C34 1.388 . S
C35 C66 1.519 1_455 S
C36 C30 1.492 . S
C36 C37 1.363 1_455 S
C36 C41 1.390 1_455 S
C37 H2 0.930 1_655 S
C37 C36 1.363 1_655 S
C37 C38 1.372 . S
C38 H3 0.930 . S
C38 C37 1.372 . S
C38 C39 1.383 . S
C39 C38 1.383 . S
C39 C40 1.395 . S
C40 H4 0.930 . S
C40 C39 1.395 . S
C40 C41 1.362 . S
C41 H5 0.930 . S
C41 C36 1.390 1_655 S
C41 C40 1.362 . S
C42 C31 1.492 . S
C42 C43 1.377 . S
C42 C47 1.397 . S
C43 H6 0.931 . S
C43 C42 1.377 . S
C43 C44 1.376 . S
C44 H7 0.930 . S
C44 C43 1.376 . S
C44 C45 1.376 . S
C45 C44 1.376 . S
C45 C46 1.378 . S
C45 C72 1.486 . S
C46 H8 0.930 . S
C46 C45 1.378 . S
C46 C47 1.376 . S
C47 H9 0.929 . S
C47 C42 1.397 . S
C47 C46 1.376 . S
C48 C32 1.509 . S
C48 C49 1.391 . S
C48 C53 1.386 . S
C49 H10 0.930 . S
C49 C48 1.391 . S
C49 C50 1.375 . S
C50 H11 0.931 . S
C50 C49 1.375 . S
C50 C51 1.375 . S
C51 C50 1.375 . S
C51 C52 1.361 . S
C52 H12 0.930 . S
C52 C51 1.361 . S
C52 C53 1.399 . S
C53 H13 0.929 . S
C53 C48 1.386 . S
C53 C52 1.399 . S
C54 C33 1.485 . S
C54 C55 1.394 . S
C54 C59 1.360 . S
C55 H14 0.931 . S
C55 C54 1.394 . S
C55 C56 1.372 . S
C56 H15 0.930 . S
C56 C55 1.372 . S
C56 C57 1.397 . S
C57 C56 1.397 . S
C57 C58 1.390 . S
C57 C73 1.476 . S
C58 H16 0.930 . S
C58 C57 1.390 . S
C58 C59 1.366 . S
C59 H17 0.932 . S
C59 C54 1.360 . S
C59 C58 1.366 . S
C60 C34 1.490 . S
C60 C61 1.380 . S
C60 C65 1.386 . S
C61 H18 0.930 . S
C61 C60 1.380 . S
C61 C62 1.381 . S
C62 H19 0.929 . S
C62 C61 1.381 . S
C62 C63 1.371 . S
C63 C62 1.371 . S
C63 C64 1.380 . S
C64 H20 0.931 . S
C64 C63 1.380 . S
C64 C65 1.387 . S
C65 H21 0.930 . S
C65 C60 1.386 . S
C65 C64 1.387 . S
C66 C35 1.519 1_655 S
C66 C67 1.377 . S
C66 C71 1.361 . S
C67 H22 0.929 . S
C67 C66 1.377 . S
C67 C68 1.386 . S
C68 H23 0.931 . S
C68 C67 1.386 . S
C68 C69 1.363 . S
C69 C68 1.363 . S
C69 C70 1.385 . S
C70 H24 0.930 . S
C70 C69 1.385 . S
C70 C71 1.396 . S
C71 H25 0.929 . S
C71 C66 1.361 . S
C71 C70 1.396 . S
C72 O26 1.300 . S
C72 O27 1.209 . S
C72 C45 1.486 . S
C73 O28 1.199 . S
C73 O29 1.297 . S
C73 C57 1.476 . S
H74 O100 0.856 . S
H75 O103 0.854 . S
H76 C111 0.930 . S
H77 C112 0.930 . S
H78 C114 0.930 . S
H79 C115 0.930 . S
H80 C117 0.931 . S
H81 C118 0.930 . S
H82 C120 0.930 . S
H83 C121 0.929 . S
H84 C123 0.930 . S
H85 C124 0.931 . S
H86 C126 0.930 . S
H87 C127 0.929 . S
H88 C129 0.931 . S
H89 C130 0.930 . S
H90 C132 0.930 . S
H91 C133 0.932 . S
H92 C135 0.930 . S
H93 C136 0.929 . S
H94 C138 0.931 . S
H95 C139 0.930 . S
H96 C141 0.929 . S
H97 C142 0.931 . S
H98 C144 0.930 . S
H99 C145 0.905 1_545 S
O100 H74 0.856 . S
O100 C146 1.300 . S
O101 C146 1.209 . S
O102 C147 1.199 . S
O103 H75 0.854 . S
O103 C147 1.297 . S
C104 C105 1.404 . S
C104 C109 1.397 . S
C104 C110 1.492 . S
C105 C104 1.404 . S
C105 C106 1.396 . S
C105 C116 1.492 . S
C106 C105 1.396 . S
C106 C107 1.397 . S
C106 C122 1.509 . S
C107 C106 1.397 . S
C107 C108 1.412 . S
C107 C128 1.485 . S
C108 C107 1.412 . S
C108 C109 1.388 . S
C108 C134 1.490 . S
C109 C104 1.397 . S
C109 C108 1.388 . S
C109 C140 1.499 1_545 S
C110 C104 1.492 . S
C110 C111 1.363 . S
C110 C115 1.390 1_545 S
C111 H76 0.930 . S
C111 C110 1.363 . S
C111 C112 1.372 1_545 S
C112 H77 0.930 . S
C112 C111 1.372 1_565 S
C112 C113 1.383 . S
C113 C112 1.383 . S
C113 C114 1.395 . S
C114 H78 0.930 . S
C114 C113 1.395 . S
C114 C115 1.362 . S
C115 H79 0.930 . S
C115 C110 1.390 1_565 S
C115 C114 1.362 . S
C116 C105 1.492 . S
C116 C117 1.377 . S
C116 C121 1.397 . S
C117 H80 0.931 . S
C117 C116 1.377 . S
C117 C118 1.376 . S
C118 H81 0.930 . S
C118 C117 1.376 . S
C118 C119 1.376 . S
C119 C118 1.376 . S
C119 C120 1.378 . S
C119 C146 1.486 . S
C120 H82 0.930 . S
C120 C119 1.378 . S
C120 C121 1.376 . S
C121 H83 0.929 . S
C121 C116 1.397 . S
C121 C120 1.376 . S
C122 C106 1.509 . S
C122 C123 1.391 . S
C122 C127 1.386 . S
C123 H84 0.930 . S
C123 C122 1.391 . S
C123 C124 1.375 . S
C124 H85 0.931 . S
C124 C123 1.375 . S
C124 C125 1.375 . S
C125 C124 1.375 . S
C125 C126 1.361 . S
C126 H86 0.930 . S
C126 C125 1.361 . S
C126 C127 1.399 . S
C127 H87 0.929 . S
C127 C122 1.386 . S
C127 C126 1.399 . S
C128 C107 1.485 . S
C128 C129 1.394 . S
C128 C133 1.360 . S
C129 H88 0.931 . S
C129 C128 1.394 . S
C129 C130 1.372 . S
C130 H89 0.930 . S
C130 C129 1.372 . S
C130 C131 1.397 . S
C131 C130 1.397 . S
C131 C132 1.390 . S
C131 C147 1.476 . S
C132 H90 0.930 . S
C132 C131 1.390 . S
C132 C133 1.366 . S
C133 H91 0.932 . S
C133 C128 1.360 . S
C133 C132 1.366 . S
C134 C108 1.490 . S
C134 C135 1.380 . S
C134 C139 1.386 . S
C135 H92 0.930 . S
C135 C134 1.380 . S
C135 C136 1.381 . S
C136 H93 0.929 . S
C136 C135 1.381 . S
C136 C137 1.371 . S
C137 C136 1.371 . S
C137 C138 1.380 . S
C138 H94 0.931 . S
C138 C137 1.380 . S
C138 C139 1.387 . S
C139 H95 0.930 . S
C139 C134 1.386 . S
C139 C138 1.387 . S
C140 C109 1.499 1_565 S
C140 C141 1.399 . S
C140 C145 1.359 . S
C141 H96 0.929 . S
C141 C140 1.399 . S
C141 C142 1.386 . S
C142 H97 0.931 . S
C142 C141 1.386 . S
C142 C143 1.363 . S
C143 C142 1.363 . S
C143 C144 1.385 . S
C144 H98 0.930 . S
C144 C143 1.385 . S
C144 C145 1.396 . S
C145 H99 0.905 1_565 S
C145 C140 1.359 . S
C145 C144 1.396 . S
C146 O100 1.300 . S
C146 O101 1.209 . S
C146 C119 1.486 . S
C147 O102 1.199 . S
C147 O103 1.297 . S
C147 C131 1.476 . S
H148 O174 0.856 . S
H149 O177 0.854 . S
H150 C185 0.930 . S
H151 C186 0.930 . S
H152 C188 0.930 . S
H153 C189 0.930 . S
H154 C191 0.931 . S
H155 C192 0.930 . S
H156 C194 0.930 . S
H157 C195 0.929 . S
H158 C197 0.930 . S
H159 C198 0.931 . S
H160 C200 0.930 . S
H161 C201 0.929 . S
H162 C203 0.931 . S
H163 C204 0.930 . S
H164 C206 0.930 . S
H165 C207 0.932 . S
H166 C209 0.930 . S
H167 C210 0.929 . S
H168 C212 0.931 . S
H169 C213 0.930 . S
H170 C215 0.929 . S
H171 C216 0.931 . S
H172 C218 0.930 . S
H173 C219 0.929 . S
O174 H148 0.856 . S
O174 C220 1.300 . S
O175 C220 1.209 . S
O176 C221 1.199 . S
O177 H149 0.854 . S
O177 C221 1.297 . S
C178 C179 1.404 . S
C178 C183 1.397 . S
C178 C184 1.492 . S
C179 C178 1.404 . S
C179 C180 1.396 . S
C179 C190 1.492 . S
C180 C179 1.396 . S
C180 C181 1.397 . S
C180 C196 1.509 . S
C181 C180 1.397 . S
C181 C182 1.412 . S
C181 C202 1.485 . S
C182 C181 1.412 . S
C182 C183 1.388 . S
C182 C208 1.490 . S
C183 C178 1.397 . S
C183 C182 1.388 . S
C183 C214 1.519 . S
C184 C178 1.492 . S
C184 C185 1.363 . S
C184 C189 1.390 . S
C185 H150 0.930 . S
C185 C184 1.363 . S
C185 C186 1.372 . S
C186 H151 0.930 . S
C186 C185 1.372 . S
C186 C187 1.383 . S
C187 C186 1.383 . S
C187 C188 1.395 . S
C188 H152 0.930 . S
C188 C187 1.395 . S
C188 C189 1.362 . S
C189 H153 0.930 . S
C189 C184 1.390 . S
C189 C188 1.362 . S
C190 C179 1.492 . S
C190 C191 1.377 . S
C190 C195 1.397 . S
C191 H154 0.931 . S
C191 C190 1.377 . S
C191 C192 1.376 . S
C192 H155 0.930 . S
C192 C191 1.376 . S
C192 C193 1.376 . S
C193 C192 1.376 . S
C193 C194 1.378 . S
C193 C220 1.486 . S
C194 H156 0.930 . S
C194 C193 1.378 . S
C194 C195 1.376 . S
C195 H157 0.929 . S
C195 C190 1.397 . S
C195 C194 1.376 . S
C196 C180 1.509 . S
C196 C197 1.391 . S
C196 C201 1.386 . S
C197 H158 0.930 . S
C197 C196 1.391 . S
C197 C198 1.375 . S
C198 H159 0.931 . S
C198 C197 1.375 . S
C198 C199 1.375 . S
C199 C198 1.375 . S
C199 C200 1.361 . S
C200 H160 0.930 . S
C200 C199 1.361 . S
C200 C201 1.399 . S
C201 H161 0.929 . S
C201 C196 1.386 . S
C201 C200 1.399 . S
C202 C181 1.485 . S
C202 C203 1.394 . S
C202 C207 1.360 . S
C203 H162 0.931 . S
C203 C202 1.394 . S
C203 C204 1.372 . S
C204 H163 0.930 . S
C204 C203 1.372 . S
C204 C205 1.397 . S
C205 C204 1.397 . S
C205 C206 1.390 . S
C205 C221 1.476 . S
C206 H164 0.930 . S
C206 C205 1.390 . S
C206 C207 1.366 . S
C207 H165 0.932 . S
C207 C202 1.360 . S
C207 C206 1.366 . S
C208 C182 1.490 . S
C208 C209 1.380 . S
C208 C213 1.386 . S
C209 H166 0.930 . S
C209 C208 1.380 . S
C209 C210 1.381 . S
C210 H167 0.929 . S
C210 C209 1.381 . S
C210 C211 1.371 . S
C211 C210 1.371 . S
C211 C212 1.380 . S
C212 H168 0.931 . S
C212 C211 1.380 . S
C212 C213 1.387 . S
C213 H169 0.930 . S
C213 C208 1.386 . S
C213 C212 1.387 . S
C214 C183 1.519 . S
C214 C215 1.377 . S
C214 C219 1.361 . S
C215 H170 0.929 . S
C215 C214 1.377 . S
C215 C216 1.386 . S
C216 H171 0.931 . S
C216 C215 1.386 . S
C216 C217 1.363 . S
C217 C216 1.363 . S
C217 C218 1.385 . S
C218 H172 0.930 . S
C218 C217 1.385 . S
C218 C219 1.396 . S
C219 H173 0.929 . S
C219 C214 1.361 . S
C219 C218 1.396 . S
C220 O174 1.300 . S
C220 O175 1.209 . S
C220 C193 1.486 . S
C221 O176 1.199 . S
C221 O177 1.297 . S
C221 C205 1.476 . S
H222 O248 0.829 1_554 S
H223 O251 0.854 . S
H224 C259 0.930 1_455 S
H225 C260 0.930 . S
H226 C262 0.930 . S
H227 C263 0.930 . S
H228 C265 0.931 . S
H229 C266 0.930 . S
H230 C268 0.930 . S
H231 C269 0.929 . S
H232 C271 0.930 . S
H233 C272 0.931 . S
H234 C274 0.930 . S
H235 C275 0.929 . S
H236 C277 0.931 . S
H237 C278 0.930 . S
H238 C280 0.930 . S
H239 C281 0.932 . S
H240 C283 0.930 . S
H241 C284 0.929 . S
H242 C286 0.931 . S
H243 C287 0.930 . S
H244 C289 0.929 . S
H245 C290 0.931 . S
H246 C292 0.930 . S
H247 C293 0.929 . S
O248 H222 0.829 1_556 S
O248 C294 1.314 . S
O249 C294 1.209 . S
O250 C295 1.199 . S
O251 H223 0.854 . S
O251 C295 1.297 . S
C252 C253 1.404 . S
C252 C257 1.397 . S
C252 C258 1.492 1_455 S
C253 C252 1.404 . S
C253 C254 1.396 . S
C253 C264 1.492 . S
C254 C253 1.396 . S
C254 C255 1.397 . S
C254 C270 1.509 . S
C255 C254 1.397 . S
C255 C256 1.412 . S
C255 C276 1.485 . S
C256 C255 1.412 . S
C256 C257 1.388 . S
C256 C282 1.490 . S
C257 C252 1.397 . S
C257 C256 1.388 . S
C257 C288 1.519 1_455 S
C258 C252 1.492 1_655 S
C258 C259 1.363 . S
C258 C263 1.390 . S
C259 H224 0.930 1_655 S
C259 C258 1.363 . S
C259 C260 1.372 . S
C260 H225 0.930 . S
C260 C259 1.372 . S
C260 C261 1.383 . S
C261 C260 1.383 . S
C261 C262 1.395 . S
C262 H226 0.930 . S
C262 C261 1.395 . S
C262 C263 1.362 . S
C263 H227 0.930 . S
C263 C258 1.390 . S
C263 C262 1.362 . S
C264 C253 1.492 . S
C264 C265 1.377 . S
C264 C269 1.397 . S
C265 H228 0.931 . S
C265 C264 1.377 . S
C265 C266 1.376 . S
C266 H229 0.930 . S
C266 C265 1.376 . S
C266 C267 1.376 . S
C267 C266 1.376 . S
C267 C268 1.378 . S
C267 C294 1.486 . S
C268 H230 0.930 . S
C268 C267 1.378 . S
C268 C269 1.376 . S
C269 H231 0.929 . S
C269 C264 1.397 . S
C269 C268 1.376 . S
C270 C254 1.509 . S
C270 C271 1.391 . S
C270 C275 1.386 . S
C271 H232 0.930 . S
C271 C270 1.391 . S
C271 C272 1.375 . S
C272 H233 0.931 . S
C272 C271 1.375 . S
C272 C273 1.375 . S
C273 C272 1.375 . S
C273 C274 1.361 . S
C274 H234 0.930 . S
C274 C273 1.361 . S
C274 C275 1.399 . S
C275 H235 0.929 . S
C275 C270 1.386 . S
C275 C274 1.399 . S
C276 C255 1.485 . S
C276 C277 1.394 . S
C276 C281 1.360 . S
C277 H236 0.931 . S
C277 C276 1.394 . S
C277 C278 1.372 . S
C278 H237 0.930 . S
C278 C277 1.372 . S
C278 C279 1.397 . S
C279 C278 1.397 . S
C279 C280 1.390 . S
C279 C295 1.476 . S
C280 H238 0.930 . S
C280 C279 1.390 . S
C280 C281 1.366 . S
C281 H239 0.932 . S
C281 C276 1.360 . S
C281 C280 1.366 . S
C282 C256 1.490 . S
C282 C283 1.380 . S
C282 C287 1.386 . S
C283 H240 0.930 . S
C283 C282 1.380 . S
C283 C284 1.381 . S
C284 H241 0.929 . S
C284 C283 1.381 . S
C284 C285 1.371 . S
C285 C284 1.371 . S
C285 C286 1.380 . S
C286 H242 0.931 . S
C286 C285 1.380 . S
C286 C287 1.387 . S
C287 H243 0.930 . S
C287 C282 1.386 . S
C287 C286 1.387 . S
C288 C257 1.519 1_655 S
C288 C289 1.377 . S
C288 C293 1.361 . S
C289 H244 0.929 . S
C289 C288 1.377 . S
C289 C290 1.386 . S
C290 H245 0.931 . S
C290 C289 1.386 . S
C290 C291 1.363 . S
C291 C290 1.363 . S
C291 C292 1.385 . S
C292 H246 0.930 . S
C292 C291 1.385 . S
C292 C293 1.396 . S
C293 H247 0.929 . S
C293 C288 1.361 . S
C293 C292 1.396 . S
C294 O248 1.314 . S
C294 O249 1.209 . S
C294 C267 1.486 . S
C295 O250 1.199 . S
C295 O251 1.297 . S
C295 C279 1.476 . S
H296 O322 0.856 . S
H297 O325 0.854 . S
H298 C333 0.930 . S
H299 C334 0.930 . S
H300 C336 0.930 . S
H301 C337 0.930 . S
H302 C339 0.931 . S
H303 C340 0.930 . S
H304 C342 0.930 1_545 S
H305 C343 0.929 1_545 S
H306 C345 0.930 . S
H307 C346 0.931 . S
H308 C348 0.930 . S
H309 C349 0.929 . S
H310 C351 0.931 . S
H311 C352 0.930 . S
H312 C354 0.930 . S
H313 C355 0.932 . S
H314 C357 0.930 . S
H315 C358 0.929 . S
H316 C360 0.931 . S
H317 C361 0.930 . S
H318 C363 0.929 1_556 S
H319 C364 0.931 . S
H320 C366 0.930 . S
H321 C367 0.929 . S
O322 H296 0.856 . S
O322 C368 1.300 . S
O323 C368 1.209 . S
O324 C369 1.199 . S
O325 H297 0.854 . S
O325 C369 1.297 . S
C326 C327 1.404 1_545 S
C326 C331 1.397 . S
C326 C332 1.492 . S
C327 C326 1.404 1_565 S
C327 C328 1.396 . S
C327 C338 1.492 . S
C328 C327 1.396 . S
C328 C329 1.397 1_556 S
C328 C344 1.509 . S
C329 C328 1.397 1_554 S
C329 C330 1.412 . S
C329 C350 1.485 . S
C330 C329 1.412 . S
C330 C331 1.388 1_564 S
C330 C356 1.496 . S
C331 C326 1.397 . S
C331 C330 1.388 1_546 S
C331 C362 1.519 1_556 S
C332 C326 1.492 . S
C332 C333 1.363 . S
C332 C337 1.390 . S
C333 H298 0.930 . S
C333 C332 1.363 . S
C333 C334 1.372 . S
C334 H299 0.930 . S
C334 C333 1.372 . S
C334 C335 1.383 . S
C335 C334 1.383 . S
C335 C336 1.395 . S
C336 H300 0.930 . S
C336 C335 1.395 . S
C336 C337 1.362 . S
C337 H301 0.930 . S
C337 C332 1.390 . S
C337 C336 1.362 . S
C338 C327 1.492 . S
C338 C339 1.377 . S
C338 C343 1.397 . S
C339 H302 0.931 . S
C339 C338 1.377 . S
C339 C340 1.376 . S
C340 H303 0.930 . S
C340 C339 1.376 . S
C340 C341 1.376 . S
C341 C340 1.376 . S
C341 C342 1.378 . S
C341 C368 1.486 . S
C342 H304 0.930 1_565 S
C342 C341 1.378 . S
C342 C343 1.376 . S
C343 H305 0.929 1_565 S
C343 C338 1.397 . S
C343 C342 1.376 . S
C344 C328 1.509 . S
C344 C345 1.391 . S
C344 C349 1.386 . S
C345 H306 0.930 . S
C345 C344 1.391 . S
C345 C346 1.375 . S
C346 H307 0.931 . S
C346 C345 1.375 . S
C346 C347 1.375 . S
C347 C346 1.375 . S
C347 C348 1.361 . S
C348 H308 0.930 . S
C348 C347 1.361 . S
C348 C349 1.399 . S
C349 H309 0.929 . S
C349 C344 1.386 . S
C349 C348 1.399 . S
C350 C329 1.485 . S
C350 C351 1.394 . S
C350 C355 1.360 . S
C351 H310 0.931 . S
C351 C350 1.394 . S
C351 C352 1.372 . S
C352 H311 0.930 . S
C352 C351 1.372 . S
C352 C353 1.397 . S
C353 C352 1.397 . S
C353 C354 1.390 . S
C353 C369 1.476 . S
C354 H312 0.930 . S
C354 C353 1.390 . S
C354 C355 1.366 . S
C355 H313 0.932 . S
C355 C350 1.360 . S
C355 C354 1.366 . S
C356 C330 1.496 . S
C356 C357 1.359 1_565 S
C356 C361 1.402 . S
C357 H314 0.930 . S
C357 C356 1.359 1_545 S
C357 C358 1.381 . S
C358 H315 0.929 . S
C358 C357 1.381 . S
C358 C359 1.371 . S
C359 C358 1.371 . S
C359 C360 1.380 1_545 S
C360 H316 0.931 . S
C360 C359 1.380 1_565 S
C360 C361 1.387 . S
C361 H317 0.930 . S
C361 C356 1.402 . S
C361 C360 1.387 . S
C362 C331 1.519 1_554 S
C362 C363 1.377 . S
C362 C367 1.361 . S
C363 H318 0.929 1_554 S
C363 C362 1.377 . S
C363 C364 1.386 . S
C364 H319 0.931 . S
C364 C363 1.386 . S
C364 C365 1.363 . S
C365 C364 1.363 . S
C365 C366 1.385 . S
C366 H320 0.930 . S
C366 C365 1.385 . S
C366 C367 1.396 . S
C367 H321 0.929 . S
C367 C362 1.361 . S
C367 C366 1.396 . S
C368 O322 1.300 . S
C368 O323 1.209 . S
C368 C341 1.486 . S
C369 O324 1.199 . S
C369 O325 1.297 . S
C369 C353 1.476 . S
H370 O396 0.856 . S
H371 O399 0.854 . S
H372 C407 0.930 . S
H373 C408 0.930 . S
H374 C410 0.930 . S
H375 C411 0.930 . S
H376 C413 0.931 . S
H377 C414 0.930 . S
H378 C416 0.930 . S
H379 C417 0.929 . S
H380 C419 0.930 . S
H381 C420 0.931 . S
H382 C422 0.930 . S
H383 C423 0.929 . S
H384 C425 0.931 . S
H385 C426 0.930 . S
H386 C428 0.930 . S
H387 C429 0.932 . S
H388 C431 0.930 . S
H389 C432 0.929 . S
H390 C434 0.931 . S
H391 C435 0.930 . S
H392 C437 0.929 . S
H393 C438 0.931 . S
H394 C440 0.930 . S
H395 C441 0.929 . S
O396 H370 0.856 . S
O396 C442 1.300 . S
O397 C442 1.209 . S
O398 C443 1.199 . S
O399 H371 0.854 . S
O399 C443 1.297 . S
C400 C401 1.404 . S
C400 C405 1.397 . S
C400 C406 1.492 . S
C401 C400 1.404 . S
C401 C402 1.396 . S
C401 C412 1.492 . S
C402 C401 1.396 . S
C402 C403 1.397 . S
C402 C418 1.509 . S
C403 C402 1.397 . S
C403 C404 1.412 . S
C403 C424 1.485 . S
C404 C403 1.412 . S
C404 C405 1.388 . S
C404 C430 1.490 . S
C405 C400 1.397 . S
C405 C404 1.388 . S
C405 C436 1.519 . S
C406 C400 1.492 . S
C406 C407 1.363 . S
C406 C411 1.390 . S
C407 H372 0.930 . S
C407 C406 1.363 . S
C407 C408 1.372 . S
C408 H373 0.930 . S
C408 C407 1.372 . S
C408 C409 1.383 . S
C409 C408 1.383 . S
C409 C410 1.395 . S
C410 H374 0.930 . S
C410 C409 1.395 . S
C410 C411 1.362 . S
C411 H375 0.930 . S
C411 C406 1.390 . S
C411 C410 1.362 . S
C412 C401 1.492 . S
C412 C413 1.377 . S
C412 C417 1.397 . S
C413 H376 0.931 . S
C413 C412 1.377 . S
C413 C414 1.376 . S
C414 H377 0.930 . S
C414 C413 1.376 . S
C414 C415 1.376 . S
C415 C414 1.376 . S
C415 C416 1.378 . S
C415 C442 1.486 1_554 S
C416 H378 0.930 . S
C416 C415 1.378 . S
C416 C417 1.376 . S
C417 H379 0.929 . S
C417 C412 1.397 . S
C417 C416 1.376 . S
C418 C402 1.509 . S
C418 C419 1.391 . S
C418 C423 1.386 . S
C419 H380 0.930 . S
C419 C418 1.391 . S
C419 C420 1.375 . S
C420 H381 0.931 . S
C420 C419 1.375 . S
C420 C421 1.375 . S
C421 C420 1.375 . S
C421 C422 1.361 . S
C422 H382 0.930 . S
C422 C421 1.361 . S
C422 C423 1.399 . S
C423 H383 0.929 . S
C423 C418 1.386 . S
C423 C422 1.399 . S
C424 C403 1.485 . S
C424 C425 1.394 . S
C424 C429 1.360 . S
C425 H384 0.931 . S
C425 C424 1.394 . S
C425 C426 1.372 . S
C426 H385 0.930 . S
C426 C425 1.372 . S
C426 C427 1.397 . S
C427 C426 1.397 . S
C427 C428 1.390 . S
C427 C443 1.476 . S
C428 H386 0.930 . S
C428 C427 1.390 . S
C428 C429 1.366 . S
C429 H387 0.932 . S
C429 C424 1.360 . S
C429 C428 1.366 . S
C430 C404 1.490 . S
C430 C431 1.380 . S
C430 C435 1.386 . S
C431 H388 0.930 . S
C431 C430 1.380 . S
C431 C432 1.381 . S
C432 H389 0.929 . S
C432 C431 1.381 . S
C432 C433 1.371 . S
C433 C432 1.371 . S
C433 C434 1.380 . S
C434 H390 0.931 . S
C434 C433 1.380 . S
C434 C435 1.387 . S
C435 H391 0.930 . S
C435 C430 1.386 . S
C435 C434 1.387 . S
C436 C405 1.519 . S
C436 C437 1.377 . S
C436 C441 1.361 . S
C437 H392 0.929 . S
C437 C436 1.377 . S
C437 C438 1.386 . S
C438 H393 0.931 . S
C438 C437 1.386 . S
C438 C439 1.363 . S
C439 C438 1.363 . S
C439 C440 1.385 . S
C440 H394 0.930 . S
C440 C439 1.385 . S
C440 C441 1.396 . S
C441 H395 0.929 . S
C441 C436 1.361 . S
C441 C440 1.396 . S
C442 O396 1.300 . S
C442 O397 1.209 . S
C442 C415 1.486 1_556 S
C443 O398 1.199 . S
C443 O399 1.297 . S
C443 C427 1.476 . S
O444 Cd445 2.223 . S
O444 C452 1.315 . S
Cd445 O444 2.223 . S
Cd445 O448 2.297 . S
Cd445 O449 2.439 . S
Cd445 O455 2.240 . S
Cd446 O447 2.240 . S
Cd446 O454 2.223 . S
Cd446 O456 2.297 . S
Cd446 O457 2.439 . S
O447 Cd446 2.240 . S
O447 C452 1.279 . S
O448 Cd445 2.297 . S
O448 C450 1.247 . S
O449 Cd445 2.439 . S
O449 C450 1.208 . S
C450 O448 1.247 . S
C450 O449 1.208 . S
C451 O456 1.247 . S
C451 O457 1.208 . S
C452 O444 1.315 . S
C452 O447 1.279 . S
C453 O454 1.315 . S
C453 O455 1.279 . S
O454 Cd446 2.223 . S
O454 C453 1.315 . S
O455 Cd445 2.240 . S
O455 C453 1.279 . S
O456 Cd446 2.297 . S
O456 C451 1.247 . S
O457 Cd446 2.439 . S
O457 C451 1.208 . S
O458 Cd459 2.223 . S
O458 C466 1.315 . S
Cd459 O458 2.223 . S
Cd459 O462 2.297 . S
Cd459 O463 2.439 . S
Cd459 O469 2.240 . S
Cd460 O461 2.240 . S
Cd460 O468 2.223 . S
Cd460 O470 2.297 . S
Cd460 O471 2.439 . S
O461 Cd460 2.240 . S
O461 C466 1.279 . S
O462 Cd459 2.297 . S
O462 C464 1.247 . S
O463 Cd459 2.439 . S
O463 C464 1.208 . S
C464 O462 1.247 . S
C464 O463 1.208 . S
C465 O470 1.247 . S
C465 O471 1.208 . S
C466 O458 1.315 . S
C466 O461 1.279 . S
C467 O468 1.315 . S
C467 O469 1.279 . S
O468 Cd460 2.223 . S
O468 C467 1.315 . S
O469 Cd459 2.240 . S
O469 C467 1.279 . S
O470 Cd460 2.297 . S
O470 C465 1.247 . S
O471 Cd460 2.439 . S
O471 C465 1.208 . S
O472 Cd473 2.223 . S
O472 C480 1.315 . S
Cd473 O472 2.223 . S
Cd473 O476 2.297 . S
Cd473 O477 2.439 . S
Cd473 O483 2.240 . S
Cd474 O475 2.240 . S
Cd474 O482 2.223 . S
Cd474 O484 2.297 . S
Cd474 O485 2.439 . S
O475 Cd474 2.240 . S
O475 C480 1.279 . S
O476 Cd473 2.297 . S
O476 C478 1.247 . S
O477 Cd473 2.439 . S
O477 C478 1.208 . S
C478 O476 1.247 . S
C478 O477 1.208 . S
C479 O484 1.247 . S
C479 O485 1.208 . S
C480 O472 1.315 . S
C480 O475 1.279 . S
C481 O482 1.315 . S
C481 O483 1.279 . S
O482 Cd474 2.223 . S
O482 C481 1.315 . S
O483 Cd473 2.240 . S
O483 C481 1.279 . S
O484 Cd474 2.297 . S
O484 C479 1.247 . S
O485 Cd474 2.439 . S
O485 C479 1.208 . S
O486 Cd487 2.223 . S
O486 C494 1.315 . S
Cd487 O486 2.223 . S
Cd487 O490 2.297 . S
Cd487 O491 2.439 . S
Cd487 O497 2.240 . S
Cd488 O489 2.240 . S
Cd488 O496 2.223 . S
Cd488 O498 2.297 . S
Cd488 O499 2.439 . S
O489 Cd488 2.240 . S
O489 C494 1.279 . S
O490 Cd487 2.297 . S
O490 C492 1.247 . S
O491 Cd487 2.439 . S
O491 C492 1.208 . S
C492 O490 1.247 . S
C492 O491 1.208 . S
C493 O498 1.247 . S
C493 O499 1.208 . S
C494 O486 1.315 . S
C494 O489 1.279 . S
C495 O496 1.315 . S
C495 O497 1.279 . S
O496 Cd488 2.223 . S
O496 C495 1.315 . S
O497 Cd487 2.240 . S
O497 C495 1.279 . S
O498 Cd488 2.297 . S
O498 C493 1.247 . S
O499 Cd488 2.439 . S
O499 C493 1.208 . S
O500 Cd501 2.223 . S
O500 C508 1.315 . S
Cd501 O500 2.223 . S
Cd501 O504 2.297 . S
Cd501 O505 2.439 . S
Cd501 O511 2.240 . S
Cd502 O503 2.240 . S
Cd502 O510 2.223 . S
Cd502 O512 2.297 . S
Cd502 O513 2.439 . S
O503 Cd502 2.240 . S
O503 C508 1.279 . S
O504 Cd501 2.297 . S
O504 C506 1.247 . S
O505 Cd501 2.439 . S
O505 C506 1.208 . S
C506 O504 1.247 . S
C506 O505 1.208 . S
C507 O512 1.247 . S
C507 O513 1.208 . S
C508 O500 1.315 . S
C508 O503 1.279 . S
C509 O510 1.315 . S
C509 O511 1.279 . S
O510 Cd502 2.223 . S
O510 C509 1.315 . S
O511 Cd501 2.240 . S
O511 C509 1.279 . S
O512 Cd502 2.297 . S
O512 C507 1.247 . S
O513 Cd502 2.439 . S
O513 C507 1.208 . S
O514 Cd515 2.223 . S
O514 C522 1.315 . S
Cd515 O514 2.223 . S
Cd515 O518 2.297 . S
Cd515 O519 2.439 . S
Cd515 O525 2.240 . S
Cd516 O517 2.240 . S
Cd516 O524 2.223 . S
Cd516 O526 2.297 . S
Cd516 O527 2.439 . S
O517 Cd516 2.240 . S
O517 C522 1.279 . S
O518 Cd515 2.297 . S
O518 C520 1.247 . S
O519 Cd515 2.439 . S
O519 C520 1.208 . S
C520 O518 1.247 . S
C520 O519 1.208 . S
C521 O526 1.247 . S
C521 O527 1.208 . S
C522 O514 1.315 . S
C522 O517 1.279 . S
C523 O524 1.315 . S
C523 O525 1.279 . S
O524 Cd516 2.223 . S
O524 C523 1.315 . S
O525 Cd515 2.240 . S
O525 C523 1.279 . S
O526 Cd516 2.297 . S
O526 C521 1.247 . S
O527 Cd516 2.439 . S
O527 C521 1.208 . S
C528 C529 1.369 . S
C528 C530 1.419 . S
C528 H532 0.930 . S
C529 C528 1.369 . S
C529 C538 1.429 . S
C530 C528 1.419 . S
C530 C531 1.363 . S
C530 H533 0.929 . S
C531 C530 1.363 . S
C531 C537 1.428 . S
H532 C528 0.930 . S
H533 C530 0.929 . S
S534 N535 1.613 . S
S534 N536 1.610 . S
N535 S534 1.613 . S
N535 C538 1.350 . S
N536 S534 1.610 . S
N536 C537 1.351 . S
C537 C531 1.428 . S
C537 N536 1.351 . S
C537 C538 1.434 . S
C538 C529 1.429 . S
C538 N535 1.350 . S
C538 C537 1.434 . S
C539 C540 1.369 . S
C539 C541 1.419 . S
C539 H543 0.930 . S
C540 C539 1.369 . S
C540 C549 1.429 . S
C541 C539 1.419 . S
C541 C542 1.363 . S
C541 H544 0.929 . S
C542 C541 1.363 . S
C542 C548 1.428 . S
H543 C539 0.930 . S
H544 C541 0.929 . S
S545 N546 1.613 . S
S545 N547 1.610 . S
N546 S545 1.613 . S
N546 C549 1.350 . S
N547 S545 1.610 . S
N547 C548 1.351 . S
C548 C542 1.428 . S
C548 N547 1.351 . S
C548 C549 1.434 . S
C549 C540 1.429 . S
C549 N546 1.350 . S
C549 C548 1.434 . S
C550 C551 1.369 . S
C550 C552 1.419 . S
C550 H554 0.930 . S
C551 C550 1.369 . S
C551 C560 1.429 . S
C552 C550 1.419 . S
C552 C553 1.363 . S
C552 H555 0.929 . S
C553 C552 1.363 . S
C553 C559 1.428 . S
H554 C550 0.930 . S
H555 C552 0.929 . S
S556 N557 1.613 . S
S556 N558 1.610 . S
N557 S556 1.613 . S
N557 C560 1.350 . S
N558 S556 1.610 . S
N558 C559 1.351 . S
C559 C553 1.428 . S
C559 N558 1.351 . S
C559 C560 1.434 . S
C560 C551 1.429 . S
C560 N557 1.350 . S
C560 C559 1.434 . S
C561 C562 1.369 . S
C561 C563 1.419 . S
C561 H565 0.930 . S
C562 C561 1.369 . S
C562 C571 1.429 . S
C563 C561 1.419 . S
C563 C564 1.363 . S
C563 H566 0.929 . S
C564 C563 1.363 . S
C564 C570 1.428 . S
H565 C561 0.930 . S
H566 C563 0.929 . S
S567 N568 1.613 . S
S567 N569 1.610 . S
N568 S567 1.613 . S
N568 C571 1.350 . S
N569 S567 1.610 . S
N569 C570 1.351 . S
C570 C564 1.428 . S
C570 N569 1.351 . S
C570 C571 1.434 . S
C571 C562 1.429 . S
C571 N568 1.350 . S
C571 C570 1.434 . S
C572 C573 1.369 . S
C572 C574 1.419 . S
C572 H576 0.930 . S
C573 C572 1.369 . S
C573 C582 1.429 . S
C574 C572 1.419 . S
C574 C575 1.363 . S
C574 H577 0.929 . S
C575 C574 1.363 . S
C575 C581 1.428 . S
H576 C572 0.930 . S
H577 C574 0.929 . S
S578 N579 1.613 1_554 S
S578 N580 1.610 1_554 S
N579 S578 1.613 1_556 S
N579 C582 1.350 . S
N580 S578 1.610 1_556 S
N580 C581 1.351 . S
C581 C575 1.428 . S
C581 N580 1.351 . S
C581 C582 1.434 . S
C582 C573 1.429 . S
C582 N579 1.350 . S
C582 C581 1.434 . S
C583 C584 1.369 . S
C583 C585 1.419 . S
C583 H587 0.930 . S
C584 C583 1.369 . S
C584 C593 1.429 . S
C585 C583 1.419 . S
C585 C586 1.363 . S
C585 H588 0.929 . S
C586 C585 1.363 . S
C586 C592 1.428 . S
H587 C583 0.930 . S
H588 C585 0.929 . S
S589 N590 1.613 . S
S589 N591 1.610 . S
N590 S589 1.613 . S
N590 C593 1.350 . S
N591 S589 1.610 . S
N591 C592 1.351 . S
C592 C586 1.428 . S
C592 N591 1.351 . S
C592 C593 1.434 . S
C593 C584 1.429 . S
C593 N590 1.350 . S
C593 C592 1.434 . S
C594 C595 1.369 . S
C594 C596 1.419 . S
C594 H598 0.930 . S
C595 C594 1.369 . S
C595 C604 1.429 . S
C596 C594 1.419 . S
C596 C597 1.363 . S
C596 H599 0.929 . S
C597 C596 1.363 . S
C597 C603 1.428 . S
H598 C594 0.930 . S
H599 C596 0.929 . S
S600 N601 1.613 . S
S600 N602 1.610 . S
N601 S600 1.613 . S
N601 C604 1.350 . S
N602 S600 1.610 . S
N602 C603 1.351 . S
C603 C597 1.428 . S
C603 N602 1.351 . S
C603 C604 1.434 . S
C604 C595 1.429 . S
C604 N601 1.350 . S
C604 C603 1.434 . S
C605 C606 1.369 . S
C605 C607 1.419 . S
C605 H609 0.930 . S
C606 C605 1.369 . S
C606 C615 1.429 . S
C607 C605 1.419 . S
C607 C608 1.363 . S
C607 H610 0.929 . S
C608 C607 1.363 . S
C608 C614 1.428 . S
H609 C605 0.930 . S
H610 C607 0.929 . S
S611 N612 1.613 . S
S611 N613 1.610 . S
N612 S611 1.613 . S
N612 C615 1.350 . S
N613 S611 1.610 . S
N613 C614 1.351 . S
C614 C608 1.428 . S
C614 N613 1.351 . S
C614 C615 1.434 . S
C615 C606 1.429 . S
C615 N612 1.350 . S
C615 C614 1.434 . S
C616 C617 1.369 . S
C616 C618 1.419 . S
C616 H620 0.930 . S
C617 C616 1.369 . S
C617 C626 1.429 . S
C618 C616 1.419 . S
C618 C619 1.363 . S
C618 H621 0.929 . S
C619 C618 1.363 . S
C619 C625 1.428 . S
H620 C616 0.930 . S
H621 C618 0.929 . S
S622 N623 1.613 . S
S622 N624 1.610 . S
N623 S622 1.613 . S
N623 C626 1.350 . S
N624 S622 1.610 . S
N624 C625 1.351 . S
C625 C619 1.428 . S
C625 N624 1.351 . S
C625 C626 1.434 . S
C626 C617 1.429 . S
C626 N623 1.350 . S
C626 C625 1.434 . S
C627 C628 1.369 . S
C627 C629 1.419 . S
C627 H631 0.930 . S
C628 C627 1.369 . S
C628 C637 1.429 . S
C629 C627 1.419 . S
C629 C630 1.363 . S
C629 H632 0.929 . S
C630 C629 1.363 . S
C630 C636 1.428 . S
H631 C627 0.930 . S
H632 C629 0.929 . S
S633 N634 1.613 1_556 S
S633 N635 1.610 1_556 S
N634 S633 1.613 1_554 S
N634 C637 1.350 . S
N635 S633 1.610 1_554 S
N635 C636 1.351 . S
C636 C630 1.428 . S
C636 N635 1.351 . S
C636 C637 1.434 . S
C637 C628 1.429 . S
C637 N634 1.350 . S
C637 C636 1.434 . S
C638 C639 1.369 . S
C638 C640 1.419 . S
C638 H642 0.930 . S
C639 C638 1.369 . S
C639 C648 1.429 . S
C640 C638 1.419 . S
C640 C641 1.363 . S
C640 H643 0.929 . S
C641 C640 1.363 . S
C641 C647 1.428 . S
H642 C638 0.930 . S
H643 C640 0.929 . S
S644 N645 1.613 . S
S644 N646 1.610 . S
N645 S644 1.613 . S
N645 C648 1.350 . S
N646 S644 1.610 . S
N646 C647 1.351 . S
C647 C641 1.428 . S
C647 N646 1.351 . S
C647 C648 1.434 . S
C648 C639 1.429 . S
C648 N645 1.350 . S
C648 C647 1.434 . S
C649 C650 1.369 . S
C649 C651 1.419 . S
C649 H653 0.930 . S
C650 C649 1.369 . S
C650 C659 1.429 . S
C651 C649 1.419 . S
C651 C652 1.363 . S
C651 H654 0.929 . S
C652 C651 1.363 . S
C652 C658 1.428 . S
H653 C649 0.930 . S
H654 C651 0.929 . S
S655 N656 1.613 . S
S655 N657 1.610 . S
N656 S655 1.613 . S
N656 C659 1.350 . S
N657 S655 1.610 . S
N657 C658 1.351 . S
C658 C652 1.428 . S
C658 N657 1.351 . S
C658 C659 1.434 . S
C659 C650 1.429 . S
C659 N656 1.350 . S
C659 C658 1.434 . S
C660 C661 1.369 . S
C660 C662 1.419 . S
C660 H664 0.930 . S
C661 C660 1.369 . S
C661 C670 1.429 . S
C662 C660 1.419 . S
C662 C663 1.363 . S
C662 H665 0.929 . S
C663 C662 1.363 . S
C663 C669 1.428 . S
H664 C660 0.930 . S
H665 C662 0.929 . S
S666 N667 1.613 . S
S666 N668 1.610 . S
N667 S666 1.613 . S
N667 C670 1.350 . S
N668 S666 1.610 . S
N668 C669 1.351 . S
C669 C663 1.428 . S
C669 N668 1.351 . S
C669 C670 1.434 . S
C670 C661 1.429 . S
C670 N667 1.350 . S
C670 C669 1.434 . S
C671 C672 1.369 . S
C671 C673 1.419 . S
C671 H675 0.930 . S
C672 C671 1.369 . S
C672 C681 1.429 . S
C673 C671 1.419 . S
C673 C674 1.363 . S
C673 H676 0.929 . S
C674 C673 1.363 . S
C674 C680 1.428 . S
H675 C671 0.930 . S
H676 C673 0.929 . S
S677 N678 1.613 . S
S677 N679 1.610 . S
N678 S677 1.613 . S
N678 C681 1.350 . S
N679 S677 1.610 . S
N679 C680 1.351 . S
C680 C674 1.428 . S
C680 N679 1.351 . S
C680 C681 1.434 . S
C681 C672 1.429 . S
C681 N678 1.350 . S
C681 C680 1.434 . S
C682 C683 1.369 . S
C682 C684 1.419 . S
C682 H686 0.930 . S
C683 C682 1.369 . S
C683 C692 1.429 . S
C684 C682 1.419 . S
C684 C685 1.363 . S
C684 H687 0.929 . S
C685 C684 1.363 . S
C685 C691 1.428 . S
H686 C682 0.930 . S
H687 C684 0.929 . S
S688 N689 1.613 . S
S688 N690 1.610 . S
N689 S688 1.613 . S
N689 C692 1.350 . S
N690 S688 1.610 . S
N690 C691 1.351 . S
C691 C685 1.428 . S
C691 N690 1.351 . S
C691 C692 1.434 . S
C692 C683 1.429 . S
C692 N689 1.350 . S
C692 C691 1.434 . S
C693 C694 1.369 . S
C693 C695 1.419 . S
C693 H697 0.930 . S
C694 C693 1.369 . S
C694 C703 1.429 . S
C695 C693 1.419 . S
C695 C696 1.363 . S
C695 H698 0.929 1_556 S
C696 C695 1.363 . S
C696 C702 1.428 . S
H697 C693 0.930 . S
H698 C695 0.929 1_554 S
S699 N700 1.613 . S
S699 N701 1.610 . S
N700 S699 1.613 . S
N700 C703 1.350 . S
N701 S699 1.610 . S
N701 C702 1.351 . S
C702 C696 1.428 . S
C702 N701 1.351 . S
C702 C703 1.434 . S
C703 C694 1.429 . S
C703 N700 1.350 . S
C703 C702 1.434 . S
C704 C705 1.369 . S
C704 C706 1.419 . S
C704 H708 0.930 . S
C705 C704 1.369 . S
C705 C714 1.429 1_565 S
C706 C704 1.419 . S
C706 C707 1.363 . S
C706 H709 0.929 . S
C707 C706 1.363 . S
C707 C713 1.428 . S
H708 C704 0.930 . S
H709 C706 0.929 . S
S710 N711 1.613 . S
S710 N712 1.610 1_545 S
N711 S710 1.613 . S
N711 C714 1.350 . S
N712 S710 1.610 1_565 S
N712 C713 1.351 . S
C713 C707 1.428 . S
C713 N712 1.351 . S
C713 C714 1.434 1_565 S
C714 C705 1.429 1_545 S
C714 N711 1.350 . S
C714 C713 1.434 1_545 S
C715 C716 1.369 . S
C715 C717 1.419 . S
C715 H719 0.930 . S
C716 C715 1.369 . S
C716 C725 1.429 . S
C717 C715 1.419 . S
C717 C718 1.363 . S
C717 H720 0.929 . S
C718 C717 1.363 . S
C718 C724 1.428 . S
H719 C715 0.930 . S
H720 C717 0.929 . S
S721 N722 1.613 . S
S721 N723 1.610 . S
N722 S721 1.613 . S
N722 C725 1.350 . S
N723 S721 1.610 . S
N723 C724 1.351 . S
C724 C718 1.428 . S
C724 N723 1.351 . S
C724 C725 1.434 . S
C725 C716 1.429 . S
C725 N722 1.350 . S
C725 C724 1.434 . S
C726 C727 1.369 . S
C726 C728 1.419 . S
C726 H730 0.930 . S
C727 C726 1.369 . S
C727 C736 1.429 . S
C728 C726 1.419 . S
C728 C729 1.363 . S
C728 H731 0.929 . S
C729 C728 1.363 . S
C729 C735 1.428 . S
H730 C726 0.930 . S
H731 C728 0.929 . S
S732 N733 1.613 . S
S732 N734 1.610 . S
N733 S732 1.613 . S
N733 C736 1.350 . S
N734 S732 1.610 . S
N734 C735 1.351 . S
C735 C729 1.428 . S
C735 N734 1.351 . S
C735 C736 1.434 . S
C736 C727 1.429 . S
C736 N733 1.350 . S
C736 C735 1.434 . S
C737 C738 1.369 . S
C737 C739 1.419 . S
C737 H741 0.930 . S
C738 C737 1.369 . S
C738 C747 1.429 . S
C739 C737 1.419 . S
C739 C740 1.363 . S
C739 H742 0.929 . S
C740 C739 1.363 . S
C740 C746 1.428 . S
H741 C737 0.930 . S
H742 C739 0.929 . S
S743 N744 1.613 . S
S743 N745 1.610 . S
N744 S743 1.613 . S
N744 C747 1.350 . S
N745 S743 1.610 . S
N745 C746 1.351 . S
C746 C740 1.428 . S
C746 N745 1.351 . S
C746 C747 1.434 . S
C747 C738 1.429 . S
C747 N744 1.350 . S
C747 C746 1.434 . S
C748 C749 1.369 . S
C748 C750 1.419 . S
C748 H752 0.930 . S
C749 C748 1.369 . S
C749 C758 1.429 . S
C750 C748 1.419 . S
C750 C751 1.363 . S
C750 H753 0.929 . S
C751 C750 1.363 . S
C751 C757 1.428 . S
H752 C748 0.930 . S
H753 C750 0.929 . S
S754 N755 1.613 . S
S754 N756 1.610 . S
N755 S754 1.613 . S
N755 C758 1.350 . S
N756 S754 1.610 . S
N756 C757 1.351 . S
C757 C751 1.428 . S
C757 N756 1.351 . S
C757 C758 1.434 . S
C758 C749 1.429 . S
C758 N755 1.350 . S
C758 C757 1.434 . S
C759 C760 1.369 . S
C759 C761 1.419 . S
C759 H763 0.930 . S
C760 C759 1.369 . S
C760 C769 1.429 . S
C761 C759 1.419 . S
C761 C762 1.363 . S
C761 H764 0.929 . S
C762 C761 1.363 . S
C762 C768 1.428 . S
H763 C759 0.930 . S
H764 C761 0.929 . S
S765 N766 1.613 . S
S765 N767 1.610 . S
N766 S765 1.613 . S
N766 C769 1.350 . S
N767 S765 1.610 . S
N767 C768 1.351 . S
C768 C762 1.428 . S
C768 N767 1.351 . S
C768 C769 1.434 . S
C769 C760 1.429 . S
C769 N766 1.350 . S
C769 C768 1.434 . S
C770 C771 1.369 . S
C770 C772 1.419 1_554 S
C770 H774 0.930 . S
C771 C770 1.369 . S
C771 C780 1.429 . S
C772 C770 1.419 1_556 S
C772 C773 1.363 . S
C772 H775 0.929 . S
C773 C772 1.363 . S
C773 C779 1.428 . S
H774 C770 0.930 . S
H775 C772 0.929 . S
S776 N777 1.613 1_556 S
S776 N778 1.610 . S
N777 S776 1.613 1_554 S
N777 C780 1.350 . S
N778 S776 1.610 . S
N778 C779 1.351 . S
C779 C773 1.428 . S
C779 N778 1.351 . S
C779 C780 1.434 1_556 S
C780 C771 1.429 . S
C780 N777 1.350 . S
C780 C779 1.434 1_554 S
C781 C782 1.369 . S
C781 C783 1.419 . S
C781 H785 0.930 . S
C782 C781 1.369 . S
C782 C791 1.429 . S
C783 C781 1.419 . S
C783 C784 1.363 . S
C783 H786 0.929 . S
C784 C783 1.363 . S
C784 C790 1.428 . S
H785 C781 0.930 . S
H786 C783 0.929 . S
S787 N788 1.613 1_455 S
S787 N789 1.610 1_455 S
N788 S787 1.613 1_655 S
N788 C791 1.350 . S
N789 S787 1.610 1_655 S
N789 C790 1.351 . S
C790 C784 1.428 . S
C790 N789 1.351 . S
C790 C791 1.434 . S
C791 C782 1.429 . S
C791 N788 1.350 . S
C791 C790 1.434 . S
C531 C521 1.557 . S
C529 C51 1.513 . S
C540 C125 1.495 . S
C542 C450 1.487 . S
C551 C217 2.508 . S
C553 C464 2.535 . S
C562 C291 1.613 . S
C564 C478 1.590 . S
C575 C492 1.167 . S
C573 C347 1.120 . S
C584 C421 1.282 . S
C586 C507 1.241 . S
C595 C143 2.173 . S
C597 C465 2.162 . S
C606 C199 1.569 . S
C608 C479 1.598 . S
C617 C273 0.946 . S
C619 C493 0.927 . S
C630 C506 1.724 . S
C628 C365 1.680 . S
C641 C520 1.782 . S
C639 C439 1.792 . S
C652 C451 2.502 . S
C650 C69 2.438 . S
C661 C63 1.538 . S
C663 C467 1.709 . S
C672 C137 1.873 . S
C674 C481 1.980 . S
C685 C495 1.512 . S
C683 C187 1.437 . S
C694 C261 1.800 . S
C696 C508 1.812 1_556 S
C707 C522 1.745 . S
C705 C359 1.515 1_565 S
C718 C453 1.619 . S
C716 C433 1.540 . S
C729 C523 1.901 . S
C727 C113 1.967 . S
C738 C211 1.412 . S
C740 C452 1.542 . S
C751 C466 2.018 . S
C749 C285 1.914 . S
C760 C335 1.455 . S
C762 C480 1.552 . S
C771 C409 1.692 . S
C773 C494 1.661 . S
C782 C39 1.618 . S
C784 C509 1.637 . S
