# Generated by pormake.
# Topology anh, (6,3)-cn, num edge types: 1
# Building blocks:
#     Node 0, Type 0, BuildingBlock: VOLQOD_clean_sbu_1, # of connection points: 6
#     Node 1, Type 0, BuildingBlock: VOLQOD_clean_sbu_1, # of connection points: 6
#     Node 2, Type 0, BuildingBlock: VOLQOD_clean_sbu_1, # of connection points: 6
#     Node 3, Type 1, BuildingBlock: ESEHIV_clean_linker_0, # of connection points: 3
#     Node 4, Type 1, BuildingBlock: ESEHIV_clean_linker_0, # of connection points: 3
#     Node 5, Type 1, BuildingBlock: ESEHIV_clean_linker_0, # of connection points: 3
#     Node 6, Type 1, BuildingBlock: ESEHIV_clean_linker_0, # of connection points: 3
#     Node 7, Type 1, BuildingBlock: ESEHIV_clean_linker_0, # of connection points: 3
#     Node 8, Type 1, BuildingBlock: ESEHIV_clean_linker_0, # of connection points: 3
#     Edge 9, Type (0, 1), BuildingBlock: XIVTED_clean_linker_0, # of connection points: 2
#     Edge 10, Type (0, 1), BuildingBlock: XIVTED_clean_linker_0, # of connection points: 2
#     Edge 11, Type (0, 1), BuildingBlock: XIVTED_clean_linker_0, # of connection points: 2
#     Edge 12, Type (0, 1), BuildingBlock: XIVTED_clean_linker_0, # of connection points: 2
#     Edge 13, Type (0, 1), BuildingBlock: XIVTED_clean_linker_0, # of connection points: 2
#     Edge 14, Type (0, 1), BuildingBlock: XIVTED_clean_linker_0, # of connection points: 2
#     Edge 15, Type (0, 1), BuildingBlock: XIVTED_clean_linker_0, # of connection points: 2
#     Edge 16, Type (0, 1), BuildingBlock: XIVTED_clean_linker_0, # of connection points: 2
#     Edge 17, Type (0, 1), BuildingBlock: XIVTED_clean_linker_0, # of connection points: 2
#     Edge 18, Type (0, 1), BuildingBlock: XIVTED_clean_linker_0, # of connection points: 2
#     Edge 19, Type (0, 1), BuildingBlock: XIVTED_clean_linker_0, # of connection points: 2
#     Edge 20, Type (0, 1), BuildingBlock: XIVTED_clean_linker_0, # of connection points: 2
#     Edge 21, Type (0, 1), BuildingBlock: XIVTED_clean_linker_0, # of connection points: 2
#     Edge 22, Type (0, 1), BuildingBlock: XIVTED_clean_linker_0, # of connection points: 2
#     Edge 23, Type (0, 1), BuildingBlock: XIVTED_clean_linker_0, # of connection points: 2
#     Edge 24, Type (0, 1), BuildingBlock: XIVTED_clean_linker_0, # of connection points: 2
#     Edge 25, Type (0, 1), BuildingBlock: XIVTED_clean_linker_0, # of connection points: 2
#     Edge 26, Type (0, 1), BuildingBlock: XIVTED_clean_linker_0, # of connection points: 2
# Relax obj value: 0.167
# Max RMSD: 0.230
# Mean RMSD: 0.114
data_MOF--net-anh--node1-VOLQOD_clean_sbu_1--node2-ESEHIV_clean_linker_0--edge1-XIVTED_clean_linker_0
_symmetry_space_group_name_H-M    P1
_symmetry_Int_Tables_number       1
_symmetry_cell_setting            triclinic
loop_
_symmetry_equiv_pos_as_xyz
'x, y, z'
_cell_length_a     27.537126
_cell_length_b     27.175424
_cell_length_c     58.345747
_cell_angle_alpha  89.69178
_cell_angle_beta   90.353014
_cell_angle_gamma 121.36091
loop_
_atom_site_label
_atom_site_type_symbol
_atom_site_fract_x
_atom_site_fract_y
_atom_site_fract_z
_atom_type_partial_charge
O0 O 0.95695 0.56388 0.20849 0.0
Zn1 Zn 0.96521 0.58687 0.17519 0.0
O2 O -0.01423 0.53971 0.15701 0.0
Zn3 Zn 0.92837 0.49444 0.13454 0.0
Zn4 Zn -0.00652 0.4864 0.17685 0.0
Zn5 Zn 0.05561 0.58922 0.14048 0.0
O6 O 0.95821 0.50756 0.10259 0.0
O7 O 0.04469 0.58473 0.10618 0.0
O8 O 0.89126 0.57865 0.16377 0.0
O9 O 0.87252 0.51841 0.13481 0.0
O10 O 0.88397 0.40995 0.142 0.0
O11 O 0.92899 0.40463 0.17259 0.0
O12 O 0.06692 0.49006 0.17124 0.0
O13 O 0.0297 0.67032 0.17499 0.0
O14 O 0.11038 0.56395 0.1471 0.0
O15 O 0.09194 0.67096 0.15074 0.0
C16 C 0.97183 0.53342 0.21968 0.0
C17 C 0.00418 0.54739 0.09374 0.0
C18 C 0.88873 0.38079 0.15802 0.0
C19 C 0.86067 0.54974 0.14671 0.0
C20 C 0.10974 0.52443 0.15913 0.0
C21 C 0.07732 0.69684 0.16463 0.0
O22 O -0.01001 0.5047 0.2096 0.0
O23 O 0.50637 0.0439 0.44594 0.0
Zn24 Zn 0.48306 0.03258 0.47881 0.0
O25 O 0.53044 0.01408 0.49723 0.0
Zn26 Zn 0.57663 0.07584 0.51844 0.0
Zn27 Zn 0.5802 0.0026 0.47707 0.0
Zn28 Zn 0.48102 0.9461 0.51526 0.0
O29 O 0.5689 0.04828 0.5509 0.0
O30 O 0.48997 0.96203 0.54921 0.0
O31 O 0.48512 0.10251 0.49069 0.0
O32 O 0.54992 0.13138 0.51838 0.0
O33 O 0.65856 0.11911 0.50953 0.0
O34 O 0.66175 0.06694 0.48112 0.0
O35 O 0.57257 0.92563 0.48341 0.0
O36 O 0.4018 0.96754 0.47905 0.0
O37 O 0.50178 0.88773 0.5088 0.0
O38 O 0.39874 0.90939 0.50651 0.0
C39 C 0.53484 0.02834 0.43417 0.0
C40 C 0.52936 0.00343 0.56071 0.0
C41 C 0.68627 0.11045 0.49437 0.0
C42 C 0.5139 0.13712 0.50677 0.0
C43 C 0.53776 0.8845 0.49635 0.0
C44 C 0.37414 0.92224 0.49118 0.0
O45 O 0.56196 0.00735 0.44369 0.0
O46 O 0.41925 0.42389 0.78272 0.0
Zn47 Zn 0.40916 0.40623 0.81649 0.0
O48 O 0.47636 0.46479 0.83294 0.0
Zn49 Zn 0.45849 0.51152 0.85178 0.0
Zn50 Zn 0.53581 0.51401 0.81153 0.0
Zn51 Zn 0.50367 0.4278 0.85271 0.0
O52 O 0.45775 0.49392 0.88545 0.0
O53 O 0.48123 0.42727 0.88521 0.0
O54 O 0.33886 0.40729 0.82548 0.0
O55 O 0.38034 0.4914 0.84384 0.0
O56 O 0.50812 0.59649 0.84531 0.0
O57 O 0.55344 0.59489 0.81433 0.0
O58 O 0.60912 0.51745 0.81817 0.0
O59 O 0.39926 0.32758 0.82034 0.0
O60 O 0.58845 0.47056 0.85148 0.0
O61 O 0.47206 0.34616 0.84298 0.0
C62 C 0.46175 0.4576 0.7703 0.0
C63 C 0.46545 0.45722 0.89589 0.0
C64 C 0.54161 0.62226 0.82862 0.0
C65 C 0.33699 0.44865 0.8347 0.0
C66 C 0.62408 0.50201 0.83617 0.0
C67 C 0.42951 0.31139 0.83072 0.0
O68 O 0.51035 0.49199 0.77905 0.0
H69 H 0.41275 0.98641 0.26521 0.0
H70 H 0.5928 0.09085 0.25575 0.0
H71 H 0.48268 0.02038 0.19705 0.0
C72 C 0.44883 0.00603 0.25375 0.0
C73 C 0.44028 -0.00092 0.22989 0.0
C74 C 0.50373 0.03749 0.26313 0.0
C75 C 0.55065 0.06442 0.24845 0.0
C76 C 0.54333 0.05967 0.22454 0.0
C77 C 0.48809 0.02611 0.21543 0.0
H78 H 0.43513 0.55745 0.5953 0.0
H79 H 0.40029 0.38445 0.60201 0.0
H80 H 0.44586 0.46905 0.53648 0.0
C81 C 0.42986 0.51873 0.5876 0.0
C82 C 0.43976 0.51784 0.56406 0.0
C83 C 0.41475 0.47035 0.60134 0.0
C84 C 0.40943 0.42104 0.59131 0.0
C85 C 0.42128 0.42051 0.56802 0.0
C86 C 0.43469 0.46837 0.55432 0.0
H87 H 0.97082 0.59454 0.91883 0.0
H88 H 0.09605 0.54593 0.92081 0.0
H89 H 0.03289 0.56516 0.85597 0.0
C90 C -0.00076 0.58505 0.9098 0.0
C91 C -0.0021 0.58234 0.88572 0.0
C92 C 0.03499 0.57269 0.92254 0.0
C93 C 0.06957 0.5572 0.91105 0.0
C94 C 0.06835 0.55381 0.88705 0.0
C95 C 0.03375 0.56798 0.8745 0.0
H96 H 0.9295 0.44005 0.39464 0.0
H97 H 0.04202 0.6226 0.39256 0.0
H98 H 0.00913 0.53157 0.45685 0.0
C99 C 0.95677 0.48006 0.40364 0.0
C100 C 0.9635 0.47978 0.42751 0.0
C101 C -0.01505 0.53127 0.39106 0.0
C102 C 0.02087 0.58306 0.40244 0.0
C103 C 0.0317 0.58377 0.42609 0.0
C104 C 0.00197 0.53179 0.43861 0.0
H105 H 0.46728 0.03866 0.73607 0.0
H106 H 0.54695 0.93945 0.7329 0.0
H107 H 0.48383 0.95984 0.79738 0.0
C108 C 0.48043 0.012 0.74467 0.0
C109 C 0.47415 0.00364 0.76851 0.0
C110 C 0.50602 0.98822 0.73186 0.0
C111 C 0.52597 0.95633 0.74297 0.0
C112 C 0.51765 0.94488 0.76662 0.0
C113 C 0.49159 0.96887 0.77924 0.0
H114 H 0.33679 0.4064 0.06891 0.0
H115 H 0.49529 0.41187 0.06803 0.0
H116 H 0.42771 0.42872 0.13181 0.0
C117 C 0.3722 0.40822 0.07797 0.0
C118 C 0.37712 0.41676 0.10174 0.0
C119 C 0.41429 0.40549 0.06571 0.0
C120 C 0.46083 0.41006 0.07763 0.0
C121 C 0.46613 0.4185 0.1015 0.0
C122 C 0.42326 0.42039 0.11353 0.0
H123 H 0.21289 0.59666 0.13981 0.0
H124 H 0.31367 0.36951 0.14066 0.0
H125 H 0.11564 0.4312 0.17342 0.0
H126 H 0.35972 0.50217 0.08974 0.0
H127 H 0.25498 0.40106 0.15992 0.0
H128 H 0.2843 0.57359 0.12973 0.0
C129 C 0.20686 0.55572 0.14533 0.0
C130 C 0.1576 0.51517 0.15698 0.0
C131 C 0.27813 0.42311 0.14456 0.0
C132 C 0.23893 0.48843 0.1453 0.0
C133 C 0.31119 0.4051 0.1336 0.0
C134 C 0.34028 0.43274 0.11345 0.0
C135 C 0.27567 0.4697 0.13544 0.0
C136 C 0.33677 0.47905 0.10499 0.0
C137 C 0.24759 0.54256 0.13951 0.0
C138 C 0.15268 0.46333 0.16413 0.0
N139 N 0.30504 0.49611 0.11604 0.0
N140 N 0.19258 0.45094 0.15785 0.0
H141 H 0.75826 0.20396 0.52093 0.0
H142 H 0.85432 0.3931 0.41914 0.0
H143 H 0.74638 0.12581 0.45523 0.0
H144 H -0.00476 0.44021 0.46536 0.0
H145 H 0.80238 0.2989 0.43722 0.0
H146 H 0.83922 0.29465 0.50657 0.0
C147 C 0.77376 0.20522 0.50378 0.0
C148 C 0.74465 0.15765 0.48905 0.0
C149 C 0.84488 0.32993 0.44324 0.0
C150 C 0.83586 0.26071 0.47273 0.0
C151 C 0.87478 0.38369 0.43293 0.0
C152 C 0.93013 0.4245 0.44026 0.0
C153 C 0.86931 0.31711 0.46159 0.0
C154 C 0.95279 0.41025 0.4591 0.0
C155 C 0.81995 0.25685 0.4957 0.0
C156 C 0.76688 0.16154 0.46709 0.0
N157 N 0.92197 0.35755 0.46933 0.0
N158 N 0.81002 0.21288 0.45931 0.0
H159 H 0.6006 0.68578 0.79129 0.0
H160 H 0.55495 0.94756 0.81115 0.0
H161 H 0.52261 0.69632 0.85365 0.0
H162 H 0.51713 0.85216 0.74776 0.0
H163 H 0.57553 0.87851 0.82911 0.0
H164 H 0.60813 0.7746 0.77796 0.0
C165 C 0.5863 0.70738 0.80247 0.0
C166 C 0.55952 0.68268 0.82339 0.0
C167 C 0.5635 0.87376 0.81118 0.0
C168 C 0.56856 0.78444 0.80818 0.0
C169 C 0.55112 0.91261 0.80092 0.0
C170 C 0.53406 0.90607 0.77776 0.0
C171 C 0.56037 0.82925 0.79804 0.0
C172 C 0.5314 0.86046 0.76539 0.0
C173 C 0.59052 0.75796 0.79477 0.0
C174 C 0.54258 0.71331 0.83722 0.0
N175 N 0.54457 0.82407 0.77566 0.0
N176 N 0.54662 0.7624 0.82921 0.0
H177 H 0.79017 0.5646 0.17558 0.0
H178 H 0.53069 0.37035 0.09505 0.0
H179 H 0.8071 0.52346 0.1058 0.0
H180 H 0.52574 0.50306 0.13354 0.0
H181 H 0.62861 0.40946 0.10783 0.0
H182 H 0.68958 0.53169 0.1675 0.0
C183 C 0.77323 0.55012 0.15849 0.0
C184 C 0.80649 0.54576 0.14142 0.0
C185 C 0.60563 0.42946 0.11365 0.0
C186 C 0.69278 0.50665 0.13257 0.0
C187 C 0.54991 0.40719 0.10642 0.0
C188 C 0.5204 0.43406 0.1129 0.0
C189 C 0.63178 0.47847 0.12765 0.0
C190 C 0.54693 0.48092 0.12816 0.0
C191 C 0.71602 0.5309 0.15402 0.0
C192 C 0.78261 0.52645 0.11959 0.0
N193 N 0.60161 0.50212 0.13494 0.0
N194 N 0.72694 0.50656 0.11593 0.0
H195 H 0.29594 0.82708 0.51563 0.0
H196 H 0.13074 0.6695 0.40686 0.0
H197 H 0.31656 0.92021 0.45264 0.0
H198 H 0.03743 0.62222 0.47063 0.0
H199 H 0.2043 0.75768 0.42443 0.0
H200 H 0.20439 0.74803 0.50127 0.0
C201 C 0.28079 0.83143 0.49902 0.0
C202 C 0.31438 0.87992 0.48515 0.0
C203 C 0.16731 0.7283 0.43447 0.0
C204 C 0.2109 0.78975 0.46869 0.0
C205 C 0.12479 0.67783 0.42442 0.0
C206 C 0.07668 0.63817 0.43706 0.0
C207 C 0.16316 0.73884 0.4576 0.0
C208 C 0.07373 0.65095 0.46019 0.0
C209 C 0.22859 0.78646 0.49092 0.0
C210 C 0.29247 0.8835 0.46384 0.0
N211 N 0.11684 0.69998 0.46985 0.0
N212 N 0.24269 0.8384 0.45605 0.0
H213 H 0.35608 0.23054 0.79978 0.0
H214 H 0.51246 0.05493 0.81033 0.0
H215 H 0.47993 0.25938 0.85203 0.0
H216 H 0.38768 0.02287 0.75806 0.0
H217 H 0.48704 0.11696 0.83007 0.0
H218 H 0.35331 0.14259 0.78859 0.0
C219 C 0.38193 0.21791 0.80918 0.0
C220 C 0.4192 0.25308 0.82656 0.0
C221 C 0.46464 0.09582 0.81444 0.0
C222 C 0.41655 0.15279 0.81372 0.0
C223 C 0.47888 0.05997 0.80321 0.0
C224 C 0.45283 0.03429 0.78228 0.0
C225 C 0.42446 0.10668 0.80458 0.0
C226 C 0.40997 0.043 0.77383 0.0
C227 C 0.38042 0.16772 0.80274 0.0
C228 C 0.45134 0.23424 0.83824 0.0
N229 N 0.39769 0.07913 0.78484 0.0
N230 N 0.44986 0.18585 0.83139 0.0
H231 H 0.61767 0.86823 0.5162 0.0
H232 H 0.40128 0.52782 0.52211 0.0
H233 H 0.45615 0.78015 0.48115 0.0
H234 H 0.5275 0.62609 0.57381 0.0
H235 H 0.43678 0.61599 0.49927 0.0
H236 H 0.60192 0.77465 0.52888 0.0
C237 C 0.58004 0.82894 0.51045 0.0
C238 C 0.53812 0.83112 0.49764 0.0
C239 C 0.45692 0.61803 0.51553 0.0
C240 C 0.51923 0.72522 0.51233 0.0
C241 C 0.43662 0.56799 0.52855 0.0
C242 C 0.46088 0.57027 0.55 0.0
C243 C 0.50214 0.67033 0.52396 0.0
C244 C 0.50686 0.62302 0.55757 0.0
C245 C 0.57072 0.77582 0.51787 0.0
C246 C 0.48939 0.77961 0.49096 0.0
N247 N 0.52592 0.67116 0.54459 0.0
N248 N 0.4809 0.72853 0.49859 0.0
H249 H 0.67927 0.54003 0.87657 0.0
H250 H 0.93773 0.52116 0.84768 0.0
H251 H 0.70579 0.51704 0.8056 0.0
H252 H 0.95655 0.65345 0.89419 0.0
H253 H 0.85364 0.51598 0.83145 0.0
H254 H 0.77963 0.57631 0.88438 0.0
C255 C 0.70643 0.54269 0.86266 0.0
C256 C 0.68458 0.52499 0.84051 0.0
C257 C 0.8771 0.54704 0.84485 0.0
C258 C 0.79862 0.56596 0.8493 0.0
C259 C 0.92541 0.55037 0.85412 0.0
C260 C 0.95398 0.58712 0.87274 0.0
C261 C 0.85642 0.57943 0.85465 0.0
C262 C 0.93488 0.62305 0.88043 0.0
C263 C 0.76362 0.56402 0.86704 0.0
C264 C 0.72139 0.53006 0.82293 0.0
N265 N 0.88635 0.61722 0.87176 0.0
N266 N 0.77675 0.54903 0.8278 0.0
H267 H 0.16781 0.7792 0.14002 0.0
H268 H 0.34933 0.90189 0.24883 0.0
H269 H 0.08834 0.74609 0.20641 0.0
H270 H 0.39658 0.01126 0.18879 0.0
H271 H 0.25485 0.84146 0.23278 0.0
H272 H 0.25292 0.86346 0.15595 0.0
C273 C 0.16771 0.79062 0.15778 0.0
C274 C 0.12123 0.7554 0.17199 0.0
C275 C 0.28577 0.87919 0.2233 0.0
C276 C 0.21862 0.85013 0.19034 0.0
C277 C 0.33996 0.91411 0.23248 0.0
C278 C 0.38169 0.96242 0.2203 0.0
C279 C 0.27325 0.89127 0.20144 0.0
C280 C 0.36659 0.97404 0.19871 0.0
C281 C 0.21622 0.83857 0.16683 0.0
C282 C 0.12324 0.77204 0.19486 0.0
N283 N 0.31386 0.93818 0.1898 0.0
N284 N 0.17181 0.81739 0.2035 0.0
H285 H 0.4379 0.16214 0.48743 0.0
H286 H 0.47912 0.37646 0.58851 0.0
H287 H 0.56245 0.2139 0.54177 0.0
H288 H 0.38546 0.36319 0.52689 0.0
H289 H 0.50172 0.30847 0.57263 0.0
H290 H 0.41267 0.23036 0.50193 0.0
C291 C 0.46028 0.18814 0.50225 0.0
C292 C 0.50209 0.18202 0.51351 0.0
C293 C 0.47602 0.32013 0.56255 0.0
C294 C 0.47296 0.25914 0.53021 0.0
C295 C 0.4624 0.35835 0.57176 0.0
C296 C 0.42984 0.37492 0.55907 0.0
C297 C 0.45706 0.29822 0.54045 0.0
C298 C 0.4107 0.35136 0.53717 0.0
C299 C 0.44576 0.22688 0.51051 0.0
C300 C 0.52976 0.21683 0.53259 0.0
N301 N 0.42461 0.31398 0.5285 0.0
N302 N 0.51438 0.25355 0.54041 0.0
H303 H 0.23409 0.36917 0.85285 0.0
H304 H 0.13405 0.59726 0.84873 0.0
H305 H 0.32305 0.53218 0.81741 0.0
H306 H 0.07264 0.45837 0.89786 0.0
H307 H 0.187 0.55986 0.82962 0.0
H308 H 0.15688 0.38659 0.86139 0.0
C309 C 0.23623 0.40758 0.84624 0.0
C310 C 0.28451 0.44959 0.8346 0.0
C311 C 0.1616 0.53735 0.84449 0.0
C312 C 0.19808 0.47016 0.84443 0.0
C313 C 0.13153 0.5587 0.85539 0.0
C314 C 0.09994 0.53141 0.87511 0.0
C315 C 0.15989 0.48832 0.85337 0.0
C316 C 0.09777 0.48146 0.88302 0.0
C317 C 0.19271 0.41782 0.85126 0.0
C318 C 0.28627 0.49909 0.82657 0.0
N319 N 0.12774 0.46167 0.87221 0.0
N320 N 0.2439 0.50836 0.83184 0.0
H321 H 0.88546 0.30235 0.18873 0.0
H322 H 0.55002 0.11752 0.18489 0.0
H323 H 0.78518 0.32203 0.1364 0.0
H324 H 0.65085 0.07771 0.22944 0.0
H325 H 0.63554 0.18337 0.16345 0.0
H326 H 0.80143 0.21167 0.20035 0.0
C327 C 0.84606 0.28712 0.17938 0.0
C328 C 0.84218 0.32049 0.16184 0.0
C329 C 0.6389 0.1596 0.1777 0.0
C330 C 0.74552 0.21705 0.17531 0.0
C331 C 0.58991 0.12167 0.18991 0.0
C332 C 0.59329 0.09271 0.20929 0.0
C333 C 0.69183 0.16922 0.18505 0.0
C334 C 0.64642 0.10034 0.21502 0.0
C335 C 0.798 0.23528 0.18605 0.0
C336 C 0.79009 0.29817 0.1502 0.0
N337 N 0.6937 0.1385 0.20319 0.0
N338 N 0.74356 0.24841 0.15743 0.0
H339 H 0.92111 0.486 0.06203 0.0
H340 H 0.12378 0.61945 0.95314 0.0
H341 H 0.09933 0.6166 0.06792 0.0
H342 H 0.94051 0.52149 0.94941 0.0
H343 H 0.11776 0.61379 0.99512 0.0
H344 H 0.92959 0.49295 0.0205 0.0
C345 C 0.96214 0.51607 0.05461 0.0
C346 C 0.0096 0.55083 0.06852 0.0
C347 C 0.07894 0.59381 0.98508 0.0
C348 C 0.01952 0.55898 0.02083 0.0
C349 C 0.08236 0.59684 0.96119 0.0
C350 C 0.03256 0.57118 0.94787 0.0
C351 C 0.02534 0.56428 0.99561 0.0
C352 C 0.97992 0.54256 0.95907 0.0
C353 C 0.96687 0.52017 0.03085 0.0
C354 C 0.0616 0.58911 0.05786 0.0
N355 N 0.97771 0.53971 0.98227 0.0
N356 N 0.06524 0.59208 0.0346 0.0
H357 H 0.59371 0.0049 0.4025 0.0
H358 H 0.44614 0.06058 0.29517 0.0
H359 H 0.47566 0.06374 0.40816 0.0
H360 H 0.57972 0.02331 0.28835 0.0
H361 H 0.45665 0.06164 0.33678 0.0
H362 H 0.58971 0.01119 0.36073 0.0
C363 C 0.56711 0.01928 0.395 0.0
C364 C 0.53482 0.03359 0.4089 0.0
C365 C 0.48391 0.05349 0.32621 0.0
C366 C 0.52996 0.04073 0.36116 0.0
C367 C 0.47771 0.05263 0.30247 0.0
C368 C 0.51192 0.04156 0.28833 0.0
C369 C 0.52435 0.04279 0.33594 0.0
C370 C 0.55274 0.03237 0.29866 0.0
C371 C 0.56492 0.02295 0.37116 0.0
C372 C 0.50124 0.05213 0.3982 0.0
N373 N 0.55759 0.03281 0.32187 0.0
N374 N 0.49952 0.0549 0.37501 0.0
H375 H 0.53712 0.53555 0.7394 0.0
H376 H 0.33588 0.39042 0.63086 0.0
H377 H 0.36725 0.38641 0.74448 0.0
H378 H 0.49176 0.55627 0.62912 0.0
H379 H 0.34474 0.38854 0.67258 0.0
H380 H 0.52094 0.54284 0.69877 0.0
C381 C 0.4965 0.50407 0.73196 0.0
C382 C 0.45354 0.46013 0.74538 0.0
C383 C 0.37655 0.42572 0.6631 0.0
C384 C 0.43458 0.46863 0.69883 0.0
C385 C 0.37142 0.42684 0.63934 0.0
C386 C 0.41323 0.47348 0.62658 0.0
C387 C 0.4242 0.47125 0.67408 0.0
C388 C 0.45833 0.51971 0.63834 0.0
C389 C 0.48713 0.50857 0.70877 0.0
C390 C 0.40162 0.4209 0.73479 0.0
N391 N 0.463 0.5171 0.66142 0.0
N392 N 0.39366 0.42597 0.7121 0.0
H393 H 0.61708 0.06529 0.59073 0.0
H394 H 0.42093 0.96388 0.70152 0.0
H395 H 0.43781 0.93672 0.58821 0.0
H396 H 0.60029 0.02612 0.70517 0.0
H397 H 0.42689 0.96766 0.65956 0.0
H398 H 0.61224 0.06397 0.63264 0.0
C399 C 0.57676 0.03669 0.59899 0.0
C400 C 0.52778 0.00093 0.58599 0.0
C401 C 0.46492 0.98062 0.66957 0.0
C402 C 0.5219 2e-05 0.63376 0.0
C403 C 0.46165 0.97895 0.69343 0.0
C404 C 0.51021 0.99469 0.70667 0.0
C405 C 0.51731 -0.00098 0.65898 0.0
C406 C 0.56189 0.01336 0.69547 0.0
C407 C 0.5741 0.03594 0.62286 0.0
C408 C 0.47667 0.96469 0.59758 0.0
N409 N 0.56418 0.01523 0.6722 0.0
N410 N 0.47494 0.96549 0.62082 0.0
H411 H 0.42764 0.50951 0.92476 0.0
H412 H 0.44062 0.34425 0.03644 0.0
H413 H 0.47835 0.38347 0.92377 0.0
H414 H 0.38927 0.46964 0.03729 0.0
H415 H 0.44995 0.35425 0.99475 0.0
H416 H 0.40947 0.49248 0.96581 0.0
C417 C 0.43503 0.47832 0.93315 0.0
C418 C 0.45478 0.44806 0.92079 0.0
C419 C 0.43616 0.3792 0.00405 0.0
C420 C 0.43383 0.42818 0.96775 0.0
C421 C 0.43087 0.3735 0.02781 0.0
C422 C 0.4141 0.40608 0.04033 0.0
C423 C 0.42493 0.41804 0.99274 0.0
C424 C 0.40157 0.44307 0.0283 0.0
C425 C 0.42448 0.46849 0.95659 0.0
C426 C 0.46332 0.40796 0.93258 0.0
N427 N 0.4076 0.4483 0.0052 0.0
N428 N 0.4529 0.39929 0.9554 0.0
H429 H 0.94952 0.59913 0.24837 0.0
H430 H -0.0104 0.45653 0.36159 0.0
H431 H -0.01184 0.46408 0.24859 0.0
H432 H 0.9684 0.60306 0.36315 0.0
H433 H 0.98193 0.45481 0.32 0.0
H434 H 0.94935 0.59755 0.29033 0.0
C435 C 0.95769 0.569 0.25721 0.0
C436 C 0.96914 0.53186 0.24494 0.0
C437 C 0.97879 0.48732 0.32938 0.0
C438 C 0.96902 0.52991 0.2928 0.0
C439 C -0.0172 0.48807 0.35315 0.0
C440 C 0.97938 0.52985 0.3658 0.0
C441 C 0.97139 0.52874 0.3181 0.0
C442 C 0.97167 0.57039 0.35397 0.0
C443 C 0.95772 0.56824 0.28114 0.0
C444 C 0.97947 0.49375 0.25729 0.0
N445 N 0.96791 0.56884 0.33071 0.0
N446 N 0.97923 0.49385 0.2805 0.0
loop_
_geom_bond_atom_site_label_1
_geom_bond_atom_site_label_2
_geom_bond_distance
_geom_bond_site_symmetry_2
_ccdc_geom_bond_type
O0 Zn1 1.953 . S
O0 C16 1.225 1_655 S
Zn1 O0 1.953 . S
Zn1 O2 1.949 1_655 S
Zn1 O8 1.919 . S
Zn1 O13 1.924 1_655 S
O2 Zn1 1.949 1_455 S
O2 Zn3 1.923 1_455 S
O2 Zn4 1.950 . S
O2 Zn5 1.945 . S
Zn3 O2 1.923 1_655 S
Zn3 O6 1.933 . S
Zn3 O9 1.941 . S
Zn3 O10 1.965 . S
Zn4 O2 1.950 . S
Zn4 O11 1.938 1_455 S
Zn4 O12 1.906 . S
Zn4 O22 1.953 . S
Zn5 O2 1.945 . S
Zn5 O7 1.932 . S
Zn5 O14 1.977 . S
Zn5 O15 1.910 . S
O6 Zn3 1.933 . S
O6 C17 1.226 1_655 S
O7 Zn5 1.932 . S
O7 C17 1.307 . S
O8 Zn1 1.919 . S
O8 C19 1.253 . S
O9 Zn3 1.941 . S
O9 C19 1.283 . S
O10 Zn3 1.965 . S
O10 C18 1.303 . S
O11 Zn4 1.938 1_655 S
O11 C18 1.247 . S
O12 Zn4 1.906 . S
O12 C20 1.304 . S
O13 Zn1 1.924 1_455 S
O13 C21 1.311 . S
O14 Zn5 1.977 . S
O14 C20 1.272 . S
O15 Zn5 1.910 . S
O15 C21 1.231 . S
C16 O0 1.225 1_455 S
C16 O22 1.298 . S
C17 O6 1.226 1_455 S
C17 O7 1.307 . S
C18 O10 1.303 . S
C18 O11 1.247 . S
C19 O8 1.253 . S
C19 O9 1.283 . S
C20 O12 1.304 . S
C20 O14 1.272 . S
C21 O13 1.311 . S
C21 O15 1.231 . S
O22 Zn4 1.953 . S
O22 C16 1.298 . S
O23 Zn24 1.953 . S
O23 C39 1.225 . S
Zn24 O23 1.953 . S
Zn24 O25 1.949 . S
Zn24 O31 1.919 . S
Zn24 O36 1.924 1_545 S
O25 Zn24 1.949 . S
O25 Zn26 1.923 . S
O25 Zn27 1.950 1_545 S
O25 Zn28 1.945 1_545 S
Zn26 O25 1.923 . S
Zn26 O29 1.933 . S
Zn26 O32 1.941 . S
Zn26 O33 1.965 . S
Zn27 O25 1.950 1_565 S
Zn27 O34 1.938 1_565 S
Zn27 O35 1.906 . S
Zn27 O45 1.953 . S
Zn28 O25 1.945 1_565 S
Zn28 O30 1.932 . S
Zn28 O37 1.977 . S
Zn28 O38 1.910 . S
O29 Zn26 1.933 . S
O29 C40 1.226 . S
O30 Zn28 1.932 . S
O30 C40 1.307 1_565 S
O31 Zn24 1.919 . S
O31 C42 1.253 . S
O32 Zn26 1.941 . S
O32 C42 1.283 . S
O33 Zn26 1.965 . S
O33 C41 1.303 . S
O34 Zn27 1.938 1_545 S
O34 C41 1.247 . S
O35 Zn27 1.906 . S
O35 C43 1.304 . S
O36 Zn24 1.924 1_565 S
O36 C44 1.311 . S
O37 Zn28 1.977 . S
O37 C43 1.272 . S
O38 Zn28 1.910 . S
O38 C44 1.231 . S
C39 O23 1.225 . S
C39 O45 1.298 1_545 S
C40 O29 1.226 . S
C40 O30 1.307 1_545 S
C41 O33 1.303 . S
C41 O34 1.247 . S
C42 O31 1.253 . S
C42 O32 1.283 . S
C43 O35 1.304 . S
C43 O37 1.272 . S
C44 O36 1.311 . S
C44 O38 1.231 . S
O45 Zn27 1.953 . S
O45 C39 1.298 1_565 S
O46 Zn47 1.953 . S
O46 C62 1.225 . S
Zn47 O46 1.953 . S
Zn47 O48 1.949 . S
Zn47 O54 1.919 . S
Zn47 O59 1.924 . S
O48 Zn47 1.949 . S
O48 Zn49 1.923 . S
O48 Zn50 1.950 . S
O48 Zn51 1.945 . S
Zn49 O48 1.923 . S
Zn49 O52 1.933 . S
Zn49 O55 1.941 . S
Zn49 O56 1.965 . S
Zn50 O48 1.950 . S
Zn50 O57 1.938 . S
Zn50 O58 1.906 . S
Zn50 O68 1.953 . S
Zn51 O48 1.945 . S
Zn51 O53 1.932 . S
Zn51 O60 1.977 . S
Zn51 O61 1.910 . S
O52 Zn49 1.933 . S
O52 C63 1.226 . S
O53 Zn51 1.932 . S
O53 C63 1.307 . S
O54 Zn47 1.919 . S
O54 C65 1.253 . S
O55 Zn49 1.941 . S
O55 C65 1.283 . S
O56 Zn49 1.965 . S
O56 C64 1.303 . S
O57 Zn50 1.938 . S
O57 C64 1.247 . S
O58 Zn50 1.906 . S
O58 C66 1.304 . S
O59 Zn47 1.924 . S
O59 C67 1.311 . S
O60 Zn51 1.977 . S
O60 C66 1.272 . S
O61 Zn51 1.910 . S
O61 C67 1.231 . S
C62 O46 1.225 . S
C62 O68 1.298 . S
C63 O52 1.226 . S
C63 O53 1.307 . S
C64 O56 1.303 . S
C64 O57 1.247 . S
C65 O54 1.253 . S
C65 O55 1.283 . S
C66 O58 1.304 . S
C66 O60 1.272 . S
C67 O59 1.311 . S
C67 O61 1.231 . S
O68 Zn50 1.953 . S
O68 C62 1.298 . S
H69 C72 0.931 . S
H70 C75 0.928 . S
H71 C77 0.930 . S
C72 H69 0.931 . S
C72 C73 1.413 . S
C72 C74 1.360 1_565 S
C73 C72 1.413 . S
C73 C77 1.429 1_565 S
C74 C72 1.360 1_545 S
C74 C75 1.372 . S
C75 H70 0.928 . S
C75 C74 1.372 . S
C75 C76 1.404 . S
C76 C75 1.404 . S
C76 C77 1.391 . S
C77 H71 0.930 . S
C77 C73 1.429 1_545 S
C77 C76 1.391 . S
H78 C81 0.931 . S
H79 C84 0.928 . S
H80 C86 0.930 . S
C81 H78 0.931 . S
C81 C82 1.413 . S
C81 C83 1.360 . S
C82 C81 1.413 . S
C82 C86 1.429 . S
C83 C81 1.360 . S
C83 C84 1.372 . S
C84 H79 0.928 . S
C84 C83 1.372 . S
C84 C85 1.404 . S
C85 C84 1.404 . S
C85 C86 1.391 . S
C86 H80 0.930 . S
C86 C82 1.429 . S
C86 C85 1.391 . S
H87 C90 0.931 . S
H88 C93 0.928 . S
H89 C95 0.930 . S
C90 H87 0.931 . S
C90 C91 1.413 . S
C90 C92 1.360 1_655 S
C91 C90 1.413 . S
C91 C95 1.429 1_655 S
C92 C90 1.360 1_455 S
C92 C93 1.372 . S
C93 H88 0.928 . S
C93 C92 1.372 . S
C93 C94 1.404 . S
C94 C93 1.404 . S
C94 C95 1.391 . S
C95 H89 0.930 . S
C95 C91 1.429 1_455 S
C95 C94 1.391 . S
H96 C99 0.931 . S
H97 C102 0.928 . S
H98 C104 0.930 . S
C99 H96 0.931 . S
C99 C100 1.413 . S
C99 C101 1.360 1_655 S
C100 C99 1.413 . S
C100 C104 1.429 1_655 S
C101 C99 1.360 1_455 S
C101 C102 1.372 . S
C102 H97 0.928 . S
C102 C101 1.372 . S
C102 C103 1.404 . S
C103 C102 1.404 . S
C103 C104 1.391 . S
C104 H98 0.930 . S
C104 C100 1.429 1_455 S
C104 C103 1.391 . S
H105 C108 0.931 . S
H106 C111 0.928 . S
H107 C113 0.930 . S
C108 H105 0.931 . S
C108 C109 1.413 . S
C108 C110 1.353 1_545 S
C109 C108 1.413 . S
C109 C113 1.410 1_545 S
C110 C108 1.353 1_565 S
C110 C111 1.379 . S
C111 H106 0.928 . S
C111 C110 1.379 . S
C111 C112 1.404 . S
C112 C111 1.404 . S
C112 C113 1.409 . S
C113 H107 0.930 . S
C113 C109 1.410 1_565 S
C113 C112 1.409 . S
H114 C117 0.931 . S
H115 C120 0.928 . S
H116 C122 0.930 . S
C117 H114 0.931 . S
C117 C118 1.413 . S
C117 C119 1.360 . S
C118 C117 1.413 . S
C118 C122 1.429 . S
C119 C117 1.360 . S
C119 C120 1.372 . S
C120 H115 0.928 . S
C120 C119 1.372 . S
C120 C121 1.404 . S
C121 C120 1.404 . S
C121 C122 1.391 . S
C122 H116 0.930 . S
C122 C118 1.429 . S
C122 C121 1.391 . S
H123 C129 0.930 . S
H124 C133 0.930 . S
H125 C138 0.929 . S
H126 C136 0.929 . S
H127 C131 0.929 . S
H128 C137 0.929 . S
C129 H123 0.930 . S
C129 C130 1.367 . S
C129 C137 1.378 . S
C130 C129 1.367 . S
C130 C138 1.433 . S
C131 H127 0.929 . S
C131 C133 1.378 . S
C131 C135 1.350 . S
C132 C135 1.463 . S
C132 C137 1.350 . S
C132 N140 1.427 . S
C133 H124 0.930 . S
C133 C131 1.378 . S
C133 C134 1.367 . S
C134 C133 1.367 . S
C134 C136 1.433 . S
C135 C131 1.350 . S
C135 C132 1.463 . S
C135 N139 1.427 . S
C136 H126 0.929 . S
C136 C134 1.433 . S
C136 N139 1.384 . S
C137 H128 0.929 . S
C137 C129 1.378 . S
C137 C132 1.350 . S
C138 H125 0.929 . S
C138 C130 1.433 . S
C138 N140 1.384 . S
N139 C135 1.427 . S
N139 C136 1.384 . S
N140 C132 1.427 . S
N140 C138 1.384 . S
H141 C147 0.930 . S
H142 C151 0.930 . S
H143 C156 0.929 . S
H144 C154 0.929 . S
H145 C149 0.929 . S
H146 C155 0.929 . S
C147 H141 0.930 . S
C147 C148 1.367 . S
C147 C155 1.378 . S
C148 C147 1.367 . S
C148 C156 1.433 . S
C149 H145 0.929 . S
C149 C151 1.378 . S
C149 C153 1.350 . S
C150 C153 1.463 . S
C150 C155 1.350 . S
C150 N158 1.427 . S
C151 H142 0.930 . S
C151 C149 1.378 . S
C151 C152 1.367 . S
C152 C151 1.367 . S
C152 C154 1.433 . S
C153 C149 1.350 . S
C153 C150 1.463 . S
C153 N157 1.427 . S
C154 H144 0.929 . S
C154 C152 1.433 . S
C154 N157 1.384 . S
C155 H146 0.929 . S
C155 C147 1.378 . S
C155 C150 1.350 . S
C156 H143 0.929 . S
C156 C148 1.433 . S
C156 N158 1.384 . S
N157 C153 1.427 . S
N157 C154 1.384 . S
N158 C150 1.427 . S
N158 C156 1.384 . S
H159 C165 0.930 . S
H160 C169 0.930 . S
H161 C174 0.929 . S
H162 C172 0.929 . S
H163 C167 0.929 . S
H164 C173 0.929 . S
C165 H159 0.930 . S
C165 C166 1.367 . S
C165 C173 1.378 . S
C166 C165 1.367 . S
C166 C174 1.433 . S
C167 H163 0.929 . S
C167 C169 1.378 . S
C167 C171 1.350 . S
C168 C171 1.463 . S
C168 C173 1.350 . S
C168 N176 1.427 . S
C169 H160 0.930 . S
C169 C167 1.378 . S
C169 C170 1.367 . S
C170 C169 1.367 . S
C170 C172 1.433 . S
C171 C167 1.350 . S
C171 C168 1.463 . S
C171 N175 1.427 . S
C172 H162 0.929 . S
C172 C170 1.433 . S
C172 N175 1.384 . S
C173 H164 0.929 . S
C173 C165 1.378 . S
C173 C168 1.350 . S
C174 H161 0.929 . S
C174 C166 1.433 . S
C174 N176 1.384 . S
N175 C171 1.427 . S
N175 C172 1.384 . S
N176 C168 1.427 . S
N176 C174 1.384 . S
H177 C183 0.930 . S
H178 C187 0.930 . S
H179 C192 0.929 . S
H180 C190 0.929 . S
H181 C185 0.929 . S
H182 C191 0.929 . S
C183 H177 0.930 . S
C183 C184 1.367 . S
C183 C191 1.378 . S
C184 C183 1.367 . S
C184 C192 1.433 . S
C185 H181 0.929 . S
C185 C187 1.378 . S
C185 C189 1.350 . S
C186 C189 1.463 . S
C186 C191 1.350 . S
C186 N194 1.427 . S
C187 H178 0.930 . S
C187 C185 1.378 . S
C187 C188 1.367 . S
C188 C187 1.367 . S
C188 C190 1.433 . S
C189 C185 1.350 . S
C189 C186 1.463 . S
C189 N193 1.427 . S
C190 H180 0.929 . S
C190 C188 1.433 . S
C190 N193 1.384 . S
C191 H182 0.929 . S
C191 C183 1.378 . S
C191 C186 1.350 . S
C192 H179 0.929 . S
C192 C184 1.433 . S
C192 N194 1.384 . S
N193 C189 1.427 . S
N193 C190 1.384 . S
N194 C186 1.427 . S
N194 C192 1.384 . S
H195 C201 0.930 . S
H196 C205 0.930 . S
H197 C210 0.929 . S
H198 C208 0.929 . S
H199 C203 0.929 . S
H200 C209 0.929 . S
C201 H195 0.930 . S
C201 C202 1.367 . S
C201 C209 1.378 . S
C202 C201 1.367 . S
C202 C210 1.433 . S
C203 H199 0.929 . S
C203 C205 1.378 . S
C203 C207 1.350 . S
C204 C207 1.463 . S
C204 C209 1.350 . S
C204 N212 1.427 . S
C205 H196 0.930 . S
C205 C203 1.378 . S
C205 C206 1.367 . S
C206 C205 1.367 . S
C206 C208 1.433 . S
C207 C203 1.350 . S
C207 C204 1.463 . S
C207 N211 1.427 . S
C208 H198 0.929 . S
C208 C206 1.433 . S
C208 N211 1.384 . S
C209 H200 0.929 . S
C209 C201 1.378 . S
C209 C204 1.350 . S
C210 H197 0.929 . S
C210 C202 1.433 . S
C210 N212 1.384 . S
N211 C207 1.427 . S
N211 C208 1.384 . S
N212 C204 1.427 . S
N212 C210 1.384 . S
H213 C219 0.930 . S
H214 C223 0.930 . S
H215 C228 0.929 . S
H216 C226 0.929 . S
H217 C221 0.929 . S
H218 C227 0.929 . S
C219 H213 0.930 . S
C219 C220 1.367 . S
C219 C227 1.378 . S
C220 C219 1.367 . S
C220 C228 1.433 . S
C221 H217 0.929 . S
C221 C223 1.378 . S
C221 C225 1.350 . S
C222 C225 1.463 . S
C222 C227 1.350 . S
C222 N230 1.427 . S
C223 H214 0.930 . S
C223 C221 1.378 . S
C223 C224 1.367 . S
C224 C223 1.367 . S
C224 C226 1.433 . S
C225 C221 1.350 . S
C225 C222 1.463 . S
C225 N229 1.427 . S
C226 H216 0.929 . S
C226 C224 1.433 . S
C226 N229 1.384 . S
C227 H218 0.929 . S
C227 C219 1.378 . S
C227 C222 1.350 . S
C228 H215 0.929 . S
C228 C220 1.433 . S
C228 N230 1.384 . S
N229 C225 1.427 . S
N229 C226 1.384 . S
N230 C222 1.427 . S
N230 C228 1.384 . S
H231 C237 0.930 . S
H232 C241 0.930 . S
H233 C246 0.929 . S
H234 C244 0.929 . S
H235 C239 0.929 . S
H236 C245 0.929 . S
C237 H231 0.930 . S
C237 C238 1.367 . S
C237 C245 1.378 . S
C238 C237 1.367 . S
C238 C246 1.433 . S
C239 H235 0.929 . S
C239 C241 1.378 . S
C239 C243 1.350 . S
C240 C243 1.463 . S
C240 C245 1.350 . S
C240 N248 1.427 . S
C241 H232 0.930 . S
C241 C239 1.378 . S
C241 C242 1.367 . S
C242 C241 1.367 . S
C242 C244 1.433 . S
C243 C239 1.350 . S
C243 C240 1.463 . S
C243 N247 1.427 . S
C244 H234 0.929 . S
C244 C242 1.433 . S
C244 N247 1.384 . S
C245 H236 0.929 . S
C245 C237 1.378 . S
C245 C240 1.350 . S
C246 H233 0.929 . S
C246 C238 1.433 . S
C246 N248 1.384 . S
N247 C243 1.427 . S
N247 C244 1.384 . S
N248 C240 1.427 . S
N248 C246 1.384 . S
H249 C255 0.930 . S
H250 C259 0.930 . S
H251 C264 0.929 . S
H252 C262 0.929 . S
H253 C257 0.929 . S
H254 C263 0.929 . S
C255 H249 0.930 . S
C255 C256 1.367 . S
C255 C263 1.378 . S
C256 C255 1.367 . S
C256 C264 1.433 . S
C257 H253 0.929 . S
C257 C259 1.378 . S
C257 C261 1.350 . S
C258 C261 1.463 . S
C258 C263 1.350 . S
C258 N266 1.427 . S
C259 H250 0.930 . S
C259 C257 1.378 . S
C259 C260 1.367 . S
C260 C259 1.367 . S
C260 C262 1.433 . S
C261 C257 1.350 . S
C261 C258 1.463 . S
C261 N265 1.427 . S
C262 H252 0.929 . S
C262 C260 1.433 . S
C262 N265 1.384 . S
C263 H254 0.929 . S
C263 C255 1.378 . S
C263 C258 1.350 . S
C264 H251 0.929 . S
C264 C256 1.433 . S
C264 N266 1.384 . S
N265 C261 1.427 . S
N265 C262 1.384 . S
N266 C258 1.427 . S
N266 C264 1.384 . S
H267 C273 0.930 . S
H268 C277 0.930 . S
H269 C282 0.929 . S
H270 C280 0.929 . S
H271 C275 0.929 . S
H272 C281 0.929 . S
C273 H267 0.930 . S
C273 C274 1.367 . S
C273 C281 1.378 . S
C274 C273 1.367 . S
C274 C282 1.433 . S
C275 H271 0.929 . S
C275 C277 1.378 . S
C275 C279 1.350 . S
C276 C279 1.463 . S
C276 C281 1.350 . S
C276 N284 1.427 . S
C277 H268 0.930 . S
C277 C275 1.378 . S
C277 C278 1.367 . S
C278 C277 1.367 . S
C278 C280 1.433 . S
C279 C275 1.350 . S
C279 C276 1.463 . S
C279 N283 1.427 . S
C280 H270 0.929 . S
C280 C278 1.433 . S
C280 N283 1.384 . S
C281 H272 0.929 . S
C281 C273 1.378 . S
C281 C276 1.350 . S
C282 H269 0.929 . S
C282 C274 1.433 . S
C282 N284 1.384 . S
N283 C279 1.427 . S
N283 C280 1.384 . S
N284 C276 1.427 . S
N284 C282 1.384 . S
H285 C291 0.930 . S
H286 C295 0.930 . S
H287 C300 0.929 . S
H288 C298 0.929 . S
H289 C293 0.929 . S
H290 C299 0.929 . S
C291 H285 0.930 . S
C291 C292 1.367 . S
C291 C299 1.378 . S
C292 C291 1.367 . S
C292 C300 1.433 . S
C293 H289 0.929 . S
C293 C295 1.378 . S
C293 C297 1.350 . S
C294 C297 1.463 . S
C294 C299 1.350 . S
C294 N302 1.427 . S
C295 H286 0.930 . S
C295 C293 1.378 . S
C295 C296 1.367 . S
C296 C295 1.367 . S
C296 C298 1.433 . S
C297 C293 1.350 . S
C297 C294 1.463 . S
C297 N301 1.427 . S
C298 H288 0.929 . S
C298 C296 1.433 . S
C298 N301 1.384 . S
C299 H290 0.929 . S
C299 C291 1.378 . S
C299 C294 1.350 . S
C300 H287 0.929 . S
C300 C292 1.433 . S
C300 N302 1.384 . S
N301 C297 1.427 . S
N301 C298 1.384 . S
N302 C294 1.427 . S
N302 C300 1.384 . S
H303 C309 0.930 . S
H304 C313 0.930 . S
H305 C318 0.929 . S
H306 C316 0.929 . S
H307 C311 0.929 . S
H308 C317 0.929 . S
C309 H303 0.930 . S
C309 C310 1.367 . S
C309 C317 1.378 . S
C310 C309 1.367 . S
C310 C318 1.433 . S
C311 H307 0.929 . S
C311 C313 1.378 . S
C311 C315 1.350 . S
C312 C315 1.463 . S
C312 C317 1.350 . S
C312 N320 1.427 . S
C313 H304 0.930 . S
C313 C311 1.378 . S
C313 C314 1.367 . S
C314 C313 1.367 . S
C314 C316 1.433 . S
C315 C311 1.350 . S
C315 C312 1.463 . S
C315 N319 1.427 . S
C316 H306 0.929 . S
C316 C314 1.433 . S
C316 N319 1.384 . S
C317 H308 0.929 . S
C317 C309 1.378 . S
C317 C312 1.350 . S
C318 H305 0.929 . S
C318 C310 1.433 . S
C318 N320 1.384 . S
N319 C315 1.427 . S
N319 C316 1.384 . S
N320 C312 1.427 . S
N320 C318 1.384 . S
H321 C327 0.930 . S
H322 C331 0.930 . S
H323 C336 0.929 . S
H324 C334 0.929 . S
H325 C329 0.929 . S
H326 C335 0.929 . S
C327 H321 0.930 . S
C327 C328 1.367 . S
C327 C335 1.378 . S
C328 C327 1.367 . S
C328 C336 1.433 . S
C329 H325 0.929 . S
C329 C331 1.378 . S
C329 C333 1.350 . S
C330 C333 1.463 . S
C330 C335 1.350 . S
C330 N338 1.427 . S
C331 H322 0.930 . S
C331 C329 1.378 . S
C331 C332 1.367 . S
C332 C331 1.367 . S
C332 C334 1.433 . S
C333 C329 1.350 . S
C333 C330 1.463 . S
C333 N337 1.427 . S
C334 H324 0.929 . S
C334 C332 1.433 . S
C334 N337 1.384 . S
C335 H326 0.929 . S
C335 C327 1.378 . S
C335 C330 1.350 . S
C336 H323 0.929 . S
C336 C328 1.433 . S
C336 N338 1.384 . S
N337 C333 1.427 . S
N337 C334 1.384 . S
N338 C330 1.427 . S
N338 C336 1.384 . S
H339 C345 0.930 . S
H340 C349 0.930 . S
H341 C354 0.929 . S
H342 C352 0.929 . S
H343 C347 0.929 1_554 S
H344 C353 0.929 . S
C345 H339 0.930 . S
C345 C346 1.367 1_655 S
C345 C353 1.378 . S
C346 C345 1.367 1_455 S
C346 C354 1.433 . S
C347 H343 0.929 1_556 S
C347 C349 1.378 . S
C347 C351 1.350 1_556 S
C348 C351 1.463 . S
C348 C353 1.350 1_455 S
C348 N356 1.427 . S
C349 H340 0.930 . S
C349 C347 1.378 . S
C349 C350 1.367 . S
C350 C349 1.367 . S
C350 C352 1.433 1_455 S
C351 C347 1.350 1_554 S
C351 C348 1.463 . S
C351 N355 1.427 1_454 S
C352 H342 0.929 . S
C352 C350 1.433 1_655 S
C352 N355 1.384 . S
C353 H344 0.929 . S
C353 C345 1.378 . S
C353 C348 1.350 1_655 S
C354 H341 0.929 . S
C354 C346 1.433 . S
C354 N356 1.384 . S
N355 C351 1.427 1_656 S
N355 C352 1.384 . S
N356 C348 1.427 . S
N356 C354 1.384 . S
H357 C363 0.930 . S
H358 C367 0.930 . S
H359 C372 0.929 . S
H360 C370 0.929 . S
H361 C365 0.929 . S
H362 C371 0.929 . S
C363 H357 0.930 . S
C363 C364 1.367 . S
C363 C371 1.378 . S
C364 C363 1.367 . S
C364 C372 1.433 1_545 S
C365 H361 0.929 . S
C365 C367 1.378 . S
C365 C369 1.350 1_565 S
C366 C369 1.463 . S
C366 C371 1.350 . S
C366 N374 1.427 1_545 S
C367 H358 0.930 . S
C367 C365 1.378 . S
C367 C368 1.367 1_565 S
C368 C367 1.367 1_545 S
C368 C370 1.433 . S
C369 C365 1.350 1_545 S
C369 C366 1.463 . S
C369 N373 1.427 . S
C370 H360 0.929 . S
C370 C368 1.433 . S
C370 N373 1.384 . S
C371 H362 0.929 . S
C371 C363 1.378 . S
C371 C366 1.350 . S
C372 H359 0.929 . S
C372 C364 1.433 1_565 S
C372 N374 1.384 . S
N373 C369 1.427 . S
N373 C370 1.384 . S
N374 C366 1.427 1_565 S
N374 C372 1.384 . S
H375 C381 0.930 . S
H376 C385 0.930 . S
H377 C390 0.929 . S
H378 C388 0.929 . S
H379 C383 0.929 . S
H380 C389 0.929 . S
C381 H375 0.930 . S
C381 C382 1.367 . S
C381 C389 1.378 . S
C382 C381 1.367 . S
C382 C390 1.433 . S
C383 H379 0.929 . S
C383 C385 1.378 . S
C383 C387 1.350 . S
C384 C387 1.463 . S
C384 C389 1.350 . S
C384 N392 1.427 . S
C385 H376 0.930 . S
C385 C383 1.378 . S
C385 C386 1.367 . S
C386 C385 1.367 . S
C386 C388 1.433 . S
C387 C383 1.350 . S
C387 C384 1.463 . S
C387 N391 1.427 . S
C388 H378 0.929 . S
C388 C386 1.433 . S
C388 N391 1.384 . S
C389 H380 0.929 . S
C389 C381 1.378 . S
C389 C384 1.350 . S
C390 H377 0.929 . S
C390 C382 1.433 . S
C390 N392 1.384 . S
N391 C387 1.427 . S
N391 C388 1.384 . S
N392 C384 1.427 . S
N392 C390 1.384 . S
H393 C399 0.930 . S
H394 C403 0.930 . S
H395 C408 0.929 . S
H396 C406 0.929 . S
H397 C401 0.929 . S
H398 C407 0.929 . S
C399 H393 0.930 . S
C399 C400 1.367 1_565 S
C399 C407 1.378 . S
C400 C399 1.367 1_545 S
C400 C408 1.433 . S
C401 H397 0.929 . S
C401 C403 1.378 . S
C401 C405 1.350 . S
C402 C405 1.463 . S
C402 C407 1.350 1_545 S
C402 N410 1.427 . S
C403 H394 0.930 . S
C403 C401 1.378 . S
C403 C404 1.367 . S
C404 C403 1.367 . S
C404 C406 1.433 1_545 S
C405 C401 1.350 . S
C405 C402 1.463 . S
C405 N409 1.427 1_545 S
C406 H396 0.929 . S
C406 C404 1.433 1_565 S
C406 N409 1.384 . S
C407 H398 0.929 . S
C407 C399 1.378 . S
C407 C402 1.350 1_565 S
C408 H395 0.929 . S
C408 C400 1.433 . S
C408 N410 1.384 . S
N409 C405 1.427 1_565 S
N409 C406 1.384 . S
N410 C402 1.427 . S
N410 C408 1.384 . S
H411 C417 0.930 . S
H412 C421 0.930 . S
H413 C426 0.929 . S
H414 C424 0.929 . S
H415 C419 0.929 1_556 S
H416 C425 0.929 . S
C417 H411 0.930 . S
C417 C418 1.367 . S
C417 C425 1.378 . S
C418 C417 1.367 . S
C418 C426 1.433 . S
C419 H415 0.929 1_554 S
C419 C421 1.378 . S
C419 C423 1.350 1_554 S
C420 C423 1.463 . S
C420 C425 1.350 . S
C420 N428 1.427 . S
C421 H412 0.930 . S
C421 C419 1.378 . S
C421 C422 1.367 . S
C422 C421 1.367 . S
C422 C424 1.433 . S
C423 C419 1.350 1_556 S
C423 C420 1.463 . S
C423 N427 1.427 1_556 S
C424 H414 0.929 . S
C424 C422 1.433 . S
C424 N427 1.384 . S
C425 H416 0.929 . S
C425 C417 1.378 . S
C425 C420 1.350 . S
C426 H413 0.929 . S
C426 C418 1.433 . S
C426 N428 1.384 . S
N427 C423 1.427 1_554 S
N427 C424 1.384 . S
N428 C420 1.427 . S
N428 C426 1.384 . S
H429 C435 0.930 . S
H430 C439 0.930 . S
H431 C444 0.929 . S
H432 C442 0.929 . S
H433 C437 0.929 . S
H434 C443 0.929 . S
C435 H429 0.930 . S
C435 C436 1.367 . S
C435 C443 1.378 . S
C436 C435 1.367 . S
C436 C444 1.433 1_455 S
C437 H433 0.929 . S
C437 C439 1.378 . S
C437 C441 1.350 1_655 S
C438 C441 1.463 . S
C438 C443 1.350 . S
C438 N446 1.427 1_455 S
C439 H430 0.930 . S
C439 C437 1.378 . S
C439 C440 1.368 1_655 S
C440 C439 1.368 1_455 S
C440 C442 1.433 . S
C441 C437 1.350 1_455 S
C441 C438 1.463 . S
C441 N445 1.427 . S
C442 H432 0.929 . S
C442 C440 1.433 . S
C442 N445 1.384 . S
C443 H434 0.929 . S
C443 C435 1.378 . S
C443 C438 1.350 . S
C444 H431 0.929 . S
C444 C436 1.433 1_655 S
C444 N446 1.384 . S
N445 C441 1.427 . S
N445 C442 1.384 . S
N446 C438 1.427 1_655 S
N446 C444 1.384 . S
C130 C20 1.229 . S
C134 C118 1.269 . S
C148 C41 1.295 . S
C152 C100 1.288 . S
C166 C64 1.302 . S
C170 C112 1.297 . S
C184 C19 1.260 . S
C188 C121 1.295 . S
C206 C103 1.275 . S
C202 C44 1.276 . S
C224 C109 1.282 . S
C220 C67 1.278 . S
C238 C43 1.236 . S
C242 C82 1.273 . S
C256 C66 1.236 . S
C260 C91 1.270 . S
C274 C21 1.291 . S
C278 C73 1.291 . S
C296 C85 1.286 . S
C292 C42 1.255 . S
C314 C94 1.300 . S
C310 C65 1.266 . S
C328 C18 1.284 . S
C332 C76 1.279 . S
C350 C92 1.469 . S
C346 C17 1.469 . S
C364 C39 1.467 . S
C368 C74 1.467 . S
C382 C62 1.482 . S
C386 C83 1.481 . S
C404 C110 1.454 1_545 S
C400 C40 1.453 . S
C422 C119 1.469 . S
C418 C63 1.468 . S
C436 C16 1.466 . S
C440 C101 1.467 . S
