# Generated by pormake.
# Topology rtl, (3,6)-cn, num edge types: 1
# Building blocks:
#     Node 0, Type 0, BuildingBlock: ESEHIV_clean_linker_0, # of connection points: 3
#     Node 1, Type 0, BuildingBlock: ESEHIV_clean_linker_0, # of connection points: 3
#     Node 2, Type 0, BuildingBlock: ESEHIV_clean_linker_0, # of connection points: 3
#     Node 3, Type 0, BuildingBlock: ESEHIV_clean_linker_0, # of connection points: 3
#     Node 4, Type 1, BuildingBlock: FUNLAD_clean_sbu_0, # of connection points: 6
#     Node 5, Type 1, BuildingBlock: FUNLAD_clean_sbu_0, # of connection points: 6
#     Edge 6, Type (0, 1), BuildingBlock: KIFKEQ_clean_linker_1, # of connection points: 2
#     Edge 7, Type (0, 1), BuildingBlock: KIFKEQ_clean_linker_1, # of connection points: 2
#     Edge 8, Type (0, 1), BuildingBlock: KIFKEQ_clean_linker_1, # of connection points: 2
#     Edge 9, Type (0, 1), BuildingBlock: KIFKEQ_clean_linker_1, # of connection points: 2
#     Edge 10, Type (0, 1), BuildingBlock: KIFKEQ_clean_linker_1, # of connection points: 2
#     Edge 11, Type (0, 1), BuildingBlock: KIFKEQ_clean_linker_1, # of connection points: 2
#     Edge 12, Type (0, 1), BuildingBlock: KIFKEQ_clean_linker_1, # of connection points: 2
#     Edge 13, Type (0, 1), BuildingBlock: KIFKEQ_clean_linker_1, # of connection points: 2
#     Edge 14, Type (0, 1), BuildingBlock: KIFKEQ_clean_linker_1, # of connection points: 2
#     Edge 15, Type (0, 1), BuildingBlock: KIFKEQ_clean_linker_1, # of connection points: 2
#     Edge 16, Type (0, 1), BuildingBlock: KIFKEQ_clean_linker_1, # of connection points: 2
#     Edge 17, Type (0, 1), BuildingBlock: KIFKEQ_clean_linker_1, # of connection points: 2
# Relax obj value: 0.025
# Max RMSD: 0.104
# Mean RMSD: 0.086
data_MOF--net-rtl--node1-FUNLAD_clean_sbu_0--node2-ESEHIV_clean_linker_0--edge1-KIFKEQ_clean_linker_1
_symmetry_space_group_name_H-M    P1
_symmetry_Int_Tables_number       1
_symmetry_cell_setting            triclinic
loop_
_symmetry_equiv_pos_as_xyz
'x, y, z'
_cell_length_a     39.695483
_cell_length_b     31.917336
_cell_length_c     22.271108
_cell_angle_alpha  89.962507
_cell_angle_beta   90.880389
_cell_angle_gamma 90.256546
loop_
_atom_site_label
_atom_site_type_symbol
_atom_site_fract_x
_atom_site_fract_y
_atom_site_fract_z
_atom_type_partial_charge
H0 H 0.07868 0.82861 0.01364 0.0
H1 H 0.14858 0.752 0.11309 0.0
H2 H 0.14731 0.74921 0.91968 0.0
C3 C 0.09832 0.80507 0.01443 0.0
C4 C 0.11102 0.79008 0.96023 0.0
C5 C 0.11155 0.79136 0.06963 0.0
C6 C 0.13739 0.76157 0.07055 0.0
C7 C 0.15021 0.74598 0.01651 0.0
C8 C 0.13647 0.75973 0.96143 0.0
H9 H 0.57187 0.68279 0.48665 0.0
H10 H 0.64577 0.75988 0.39965 0.0
H11 H 0.64387 0.75293 0.59226 0.0
C12 C 0.59233 0.70537 0.48912 0.0
C13 C 0.60555 0.71688 0.54554 0.0
C14 C 0.6065 0.72076 0.43607 0.0
C15 C 0.63413 0.74825 0.44014 0.0
C16 C 0.64748 0.76015 0.4963 0.0
C17 C 0.6327 0.7451 0.54894 0.0
H18 H 0.92414 0.1751 0.01014 0.0
H19 H 0.85352 0.25045 0.10587 0.0
H20 H 0.85443 0.25326 0.91252 0.0
C21 C 0.90426 0.19831 0.00992 0.0
C22 C 0.89129 0.21307 0.95503 0.0
C23 C 0.89091 0.21173 0.06442 0.0
C24 C 0.86479 0.24109 0.06392 0.0
C25 C 0.85167 0.25644 0.00925 0.0
C26 C 0.86546 0.24296 0.95482 0.0
H27 H 0.42911 0.32423 0.49504 0.0
H28 H 0.35819 0.24466 0.58393 0.0
H29 H 0.36081 0.24845 0.39043 0.0
C30 C 0.40944 0.30058 0.49295 0.0
C31 C 0.39659 0.28795 0.43687 0.0
C32 C 0.39603 0.28463 0.54617 0.0
C33 C 0.36937 0.25567 0.54276 0.0
C34 C 0.35621 0.24232 0.48685 0.0
C35 C 0.37063 0.25803 0.43396 0.0
C36 C 0.02419 0.94918 0.42418 0.0
N37 N 0.07012 0.05045 0.51207 0.0
C38 C 0.09818 0.02695 0.50404 0.0
C39 C 0.12972 0.04595 0.50016 0.0
C40 C 0.13278 0.08964 0.50622 0.0
C41 C 0.10338 0.11304 0.51597 0.0
C42 C 0.07215 0.09278 0.51813 0.0
Zn43 Zn 0.02469 0.02037 0.51321 0.0
C44 C 0.97554 0.05492 0.42667 0.0
N45 N 0.93225 0.95226 0.51324 0.0
C46 C 0.93074 0.90992 0.50706 0.0
C47 C 0.90383 0.97534 0.51992 0.0
C48 C 0.87236 0.95588 0.52128 0.0
C49 C 0.86986 0.91221 0.51438 0.0
C50 C 0.89969 0.88922 0.50696 0.0
Zn51 Zn 0.97754 0.98258 0.51244 0.0
O52 O 0.04125 0.97982 0.44482 0.0
C53 C 0.0267 0.94788 0.59882 0.0
O54 O 0.99497 0.94219 0.44437 0.0
H55 H 0.9055 0.00902 0.52435 0.0
H56 H 0.09616 0.99329 0.49993 0.0
H57 H 0.95364 0.89215 0.50184 0.0
O58 O 0.04363 0.97877 0.57928 0.0
O59 O 0.99704 0.94149 0.57852 0.0
H60 H 0.04953 0.11089 0.52452 0.0
O61 O 0.96083 0.02336 0.58058 0.0
O62 O 0.00733 0.06069 0.5813 0.0
O63 O 0.95868 0.02396 0.44618 0.0
O64 O 0.00513 0.06155 0.44723 0.0
C65 C 0.97799 0.05395 0.60123 0.0
H66 H 0.15132 0.02644 0.49146 0.0
H67 H 0.10434 0.14665 0.52218 0.0
H68 H 0.8503 0.97498 0.5282 0.0
H69 H 0.89915 0.85563 0.50032 0.0
C70 C 0.47775 0.44783 0.90479 0.0
N71 N 0.57092 0.45558 -0.00549 0.0
C72 C 0.57218 0.41342 0.00347 0.0
C73 C 0.60314 0.39288 0.00603 0.0
C74 C 0.63293 0.41586 -0.00198 0.0
C75 C 0.63098 0.45912 0.98797 0.0
C76 C 0.59955 0.47855 0.98705 0.0
Zn77 Zn 0.52539 0.48525 0.99283 0.0
C78 C 0.52435 0.55521 0.90305 0.0
N79 N 0.43131 0.5496 0.9888 0.0
C80 C 0.4026 0.52643 0.98207 0.0
C81 C 0.4301 0.59183 -0.00304 0.0
C82 C 0.39913 0.61217 0.00017 0.0
C83 C 0.36926 0.58892 0.99359 0.0
C84 C 0.37112 0.54568 0.98364 0.0
Zn85 Zn 0.47685 0.51992 0.98994 0.0
O86 O 0.50704 0.44284 0.9274 0.0
C87 C 0.4775 0.45012 0.07964 0.0
O88 O 0.45976 0.47813 0.92241 0.0
H89 H 0.45317 0.60974 0.00175 0.0
H90 H 0.54916 0.39566 0.0088 0.0
H91 H 0.40405 0.49286 0.97636 0.0
O92 O 0.50743 0.44561 0.06145 0.0
O93 O 0.45917 0.47877 0.05695 0.0
H94 H 0.59807 0.51207 0.98063 0.0
O95 O 0.49502 0.56104 0.05725 0.0
O96 O 0.54333 0.52793 0.05851 0.0
O97 O 0.49496 0.5609 0.92321 0.0
O98 O 0.54221 0.52546 0.9239 0.0
C99 C 0.52483 0.55717 0.07795 0.0
H100 H 0.60382 0.35935 0.01352 0.0
H101 H 0.65356 0.47776 0.98207 0.0
H102 H 0.39848 0.6457 0.00757 0.0
H103 H 0.34847 0.52685 0.9788 0.0
H104 H 0.33861 0.17828 0.56305 0.0
H105 H 0.3037 0.2451 0.4051 0.0
H106 H 0.28516 0.14171 0.56745 0.0
H107 H 0.25182 0.20511 0.40552 0.0
H108 H 0.14733 0.16766 0.46074 0.0
H109 H 0.20163 0.20196 0.45521 0.0
H110 H 0.24944 0.09148 0.5293 0.0
H111 H 0.19478 0.05905 0.54118 0.0
C112 C 0.31976 0.18485 0.52874 0.0
C113 C 0.32554 0.21524 0.48425 0.0
C114 C 0.28914 0.16323 0.53064 0.0
C115 C 0.26375 0.17057 0.48716 0.0
C116 C 0.27028 0.1993 0.44079 0.0
C117 C 0.30055 0.22169 0.43976 0.0
C118 C 0.16927 0.15091 0.47714 0.0
C119 C 0.16633 0.11047 0.50167 0.0
C120 C 0.2007 0.17034 0.4727 0.0
C121 C 0.23026 0.14953 0.49132 0.0
C122 C 0.22737 0.1089 0.51521 0.0
C123 C 0.19585 0.08988 0.52102 0.0
H124 H 0.1594 0.66983 0.96349 0.0
H125 H 0.21015 0.76454 0.06959 0.0
H126 H 0.2113 0.62894 0.96102 0.0
H127 H 0.26244 0.72557 0.06442 0.0
H128 H 0.34653 0.63377 0.08787 0.0
H129 H 0.29214 0.66799 0.09733 0.0
H130 H 0.26426 0.62653 0.91823 0.0
H131 H 0.31799 0.5901 0.91109 0.0
C132 C 0.18177 0.68176 0.98622 0.0
C133 C 0.18086 0.71994 0.01726 0.0
C134 C 0.21161 0.65866 0.98442 0.0
C135 C 0.24131 0.67381 0.01248 0.0
C136 C 0.24008 0.71219 0.04351 0.0
C137 C 0.21014 0.73474 0.04632 0.0
C138 C 0.32858 0.632 0.05079 0.0
C139 C 0.33628 0.60961 -0.00129 0.0
C140 C 0.29748 0.65179 0.0559 0.0
C141 C 0.27367 0.65049 0.00835 0.0
C142 C 0.28155 0.62773 0.95625 0.0
C143 C 0.31241 0.60714 0.95178 0.0
H144 H 0.70695 0.73867 0.44786 0.0
H145 H 0.65946 0.83466 0.55312 0.0
H146 H 0.76068 0.77641 0.45548 0.0
H147 H 0.71329 0.87316 0.55941 0.0
H148 H 0.8093 0.9418 0.47058 0.0
H149 H 0.7547 0.90649 0.47032 0.0
H150 H 0.79987 0.79827 0.55427 0.0
H151 H 0.85423 0.83412 0.55833 0.0
C152 C 0.70807 0.76808 0.47214 0.0
C153 C 0.67928 0.78406 0.49969 0.0
C154 C 0.7387 0.78941 0.47677 0.0
C155 C 0.74087 0.82746 0.50805 0.0
C156 C 0.71201 0.84384 0.53498 0.0
C157 C 0.68143 0.82195 0.53148 0.0
C158 C 0.80764 0.91088 0.49032 0.0
C159 C 0.83641 0.8909 0.51444 0.0
C160 C 0.77636 0.89068 0.48979 0.0
C161 C 0.77335 0.84984 0.51218 0.0
C162 C 0.8018 0.82976 0.5364 0.0
C163 C 0.83295 0.85022 0.53813 0.0
H164 H 0.79222 0.23633 0.05947 0.0
H165 H 0.84137 0.33302 0.95721 0.0
H166 H 0.74001 0.27571 0.05639 0.0
H167 H 0.78952 0.37423 0.95679 0.0
H168 H 0.68165 0.41607 0.91332 0.0
H169 H 0.73515 0.37863 0.91615 0.0
H170 H 0.71247 0.33317 0.09426 0.0
H171 H 0.65827 0.36857 0.08917 0.0
C172 C 0.79187 0.26655 0.03726 0.0
C173 C 0.82071 0.28191 0.00896 0.0
C174 C 0.762 0.28934 0.03574 0.0
C175 C 0.7604 0.32852 0.00681 0.0
C176 C 0.78955 0.34398 0.97877 0.0
C177 C 0.81933 0.32065 0.97932 0.0
C178 C 0.68832 0.39799 0.95291 0.0
C179 C 0.66592 0.39476 0.00081 0.0
C180 C 0.71905 0.37677 0.95486 0.0
C181 C 0.72827 0.35254 0.00534 0.0
C182 C 0.70601 0.35051 0.05394 0.0
C183 C 0.67503 0.37098 0.05136 0.0
H184 H 0.08908 0.75435 0.17269 0.0
H185 H 0.10959 0.87455 0.0918 0.0
H186 H 0.06887 0.78986 0.26323 0.0
H187 H 0.08954 0.90977 0.18129 0.0
H188 H 0.08495 0.95828 0.37063 0.0
H189 H 0.10778 0.91693 0.28924 0.0
H190 H 0.019 0.83829 0.28867 0.0
H191 H 0.99592 0.87968 0.37083 0.0
C192 C 0.08942 0.78826 0.17458 0.0
C193 C 0.10063 0.81183 0.12546 0.0
C194 C 0.07773 0.8085 0.22595 0.0
C195 C 0.07773 0.8525 0.22913 0.0
C196 C 0.08955 0.87584 0.18028 0.0
C197 C 0.10078 0.85572 0.12896 0.0
C198 C 0.07027 0.93208 0.35348 0.0
C199 C 0.03842 0.92255 0.37672 0.0
C200 C 0.08339 0.90845 0.30683 0.0
C201 C 0.06505 0.87464 0.2825 0.0
C202 C 0.03372 0.86408 0.30695 0.0
C203 C 0.02044 0.88794 0.3536 0.0
H204 H 0.58701 0.75197 0.6523 0.0
H205 H 0.59779 0.6333 0.56172 0.0
H206 H 0.56802 0.71503 0.74266 0.0
H207 H 0.57887 0.59671 0.65118 0.0
H208 H 0.58209 0.54442 0.84048 0.0
H209 H 0.60236 0.58607 0.75669 0.0
H210 H 0.51693 0.66839 0.77197 0.0
H211 H 0.49637 0.62664 0.85615 0.0
C212 C 0.58526 0.71809 0.65183 0.0
C213 C 0.59357 0.69544 0.60011 0.0
C214 C 0.57431 0.69705 0.70319 0.0
C215 C 0.57214 0.65309 0.70376 0.0
C216 C 0.58062 0.63059 0.65207 0.0
C217 C 0.59111 0.65154 0.60076 0.0
C218 C 0.56767 0.57152 0.82633 0.0
C219 C 0.53746 0.58203 0.85459 0.0
C220 C 0.57926 0.59526 0.77826 0.0
C221 C 0.56107 0.63022 0.75777 0.0
C222 C 0.53147 0.64167 0.78719 0.0
C223 C 0.51965 0.61764 0.83504 0.0
H224 H 0.91073 0.24901 0.17007 0.0
H225 H 0.89539 0.12846 0.08588 0.0
H226 H 0.9298 0.21388 0.26275 0.0
H227 H 0.91439 0.09364 0.17754 0.0
H228 H 0.91566 0.04446 0.3671 0.0
H229 H 0.89351 0.08547 0.28333 0.0
H230 H 0.98032 0.16725 0.29396 0.0
H231 H 0.00271 0.12621 0.37828 0.0
C232 C 0.91135 0.2151 0.17159 0.0
C233 C 0.90189 0.19137 0.12096 0.0
C234 C 0.92237 0.19508 0.22425 0.0
C235 C 0.92343 0.15111 0.22718 0.0
C236 C 0.9135 0.12756 0.17669 0.0
C237 C 0.90293 0.14746 0.12412 0.0
C238 C 0.92996 0.07136 0.35202 0.0
C239 C 0.96113 0.08183 0.37892 0.0
C240 C 0.91728 0.09476 0.30397 0.0
C241 C 0.93534 0.12928 0.28203 0.0
C242 C 0.96583 0.14088 0.31032 0.0
C243 C 0.97871 0.11724 0.35825 0.0
H244 H 0.35819 0.30735 0.64238 0.0
H245 H 0.46101 0.30012 0.58237 0.0
H246 H 0.37749 0.34108 0.73474 0.0
H247 H 0.48015 0.33589 0.6733 0.0
H248 H 0.50765 0.37712 0.86175 0.0
H249 H 0.48727 0.33173 0.78082 0.0
H250 H 0.39903 0.40949 0.75919 0.0
H251 H 0.41884 0.45402 0.84095 0.0
C252 C 0.38496 0.3124 0.64926 0.0
C253 C 0.40807 0.30123 0.60492 0.0
C254 C 0.39598 0.33226 0.70185 0.0
C255 C 0.4303 0.34161 0.71109 0.0
C256 C 0.45356 0.32889 0.66784 0.0
C257 C 0.44256 0.30883 0.6154 0.0
C258 C 0.48378 0.38431 0.83995 0.0
C259 C 0.46493 0.41928 0.85751 0.0
C260 C 0.47218 0.3584 0.79347 0.0
C261 C 0.44156 0.36701 0.76349 0.0
C262 C 0.42245 0.40154 0.78194 0.0
C263 C 0.43396 0.4273 0.82853 0.0
H264 H 0.64439 0.69783 0.34001 0.0
H265 H 0.54141 0.70651 0.39892 0.0
H266 H 0.62513 0.66417 0.24768 0.0
H267 H 0.52233 0.67058 0.30816 0.0
H268 H 0.4948 0.62779 0.12075 0.0
H269 H 0.51517 0.67356 0.20119 0.0
H270 H 0.60363 0.59617 0.22305 0.0
H271 H 0.58385 0.55135 0.14158 0.0
C272 C 0.61759 0.69314 0.33291 0.0
C273 C 0.59444 0.70465 0.37703 0.0
C274 C 0.60659 0.67327 0.28032 0.0
C275 C 0.57224 0.66415 0.27087 0.0
C276 C 0.54895 0.67733 0.31377 0.0
C277 C 0.55992 0.69749 0.36616 0.0
C278 C 0.51871 0.62076 0.14251 0.0
C279 C 0.53765 0.58585 0.12505 0.0
C280 C 0.53031 0.6469 0.18873 0.0
C281 C 0.561 0.63852 0.21865 0.0
C282 C 0.58017 0.60399 0.20034 0.0
C283 C 0.56869 0.57806 0.15391 0.0
H284 H 0.89272 0.13006 0.93222 0.0
H285 H 0.91368 0.25027 0.85171 0.0
H286 H 0.91246 0.09484 0.84268 0.0
H287 H 0.93352 0.21469 0.76086 0.0
H288 H 0.91714 0.04538 0.65469 0.0
H289 H 0.89424 0.08746 0.73525 0.0
H290 H 0.98309 0.16597 0.73488 0.0
H291 H 0.00621 0.12388 0.65349 0.0
C292 C 0.90156 0.14891 0.89512 0.0
C293 C 0.90198 0.19281 0.89885 0.0
C294 C 0.91259 0.12878 0.84371 0.0
C295 C 0.92443 0.15206 0.79484 0.0
C296 C 0.92465 0.19608 0.79814 0.0
C297 C 0.91317 0.21637 0.8497 0.0
C298 C 0.93181 0.07171 0.67144 0.0
C299 C 0.96371 0.08097 0.64821 0.0
C300 C 0.91865 0.09578 0.7176 0.0
C301 C 0.937 0.12975 0.74149 0.0
C302 C 0.96835 0.14008 0.71694 0.0
C303 C 0.98167 0.11579 0.67077 0.0
H304 H 0.41748 0.25279 0.33157 0.0
H305 H 0.40085 0.37164 0.41852 0.0
H306 H 0.43616 0.28978 0.24105 0.0
H307 H 0.41948 0.40832 0.32891 0.0
H308 H 0.41835 0.45884 0.13875 0.0
H309 H 0.3978 0.41698 0.22216 0.0
H310 H 0.4859 0.33852 0.21323 0.0
H311 H 0.50668 0.38045 0.12946 0.0
C312 C 0.41781 0.28673 0.33117 0.0
C313 C 0.408 0.30944 0.38194 0.0
C314 C 0.4286 0.30781 0.27973 0.0
C315 C 0.42911 0.35184 0.27811 0.0
C316 C 0.41901 0.37438 0.32878 0.0
C317 C 0.40868 0.35341 0.38019 0.0
C318 C 0.43328 0.43252 0.15421 0.0
C319 C 0.46429 0.42317 0.12786 0.0
C320 C 0.42154 0.40866 0.20206 0.0
C321 C 0.44039 0.37473 0.22422 0.0
C322 C 0.47083 0.36441 0.19669 0.0
C323 C 0.48278 0.38857 0.14908 0.0
H324 H 0.10875 0.87317 0.93704 0.0
H325 H 0.08987 0.75251 0.85534 0.0
H326 H 0.08999 0.90792 0.84531 0.0
H327 H 0.07108 0.78761 0.76238 0.0
H328 H -0.00101 0.87715 0.64792 0.0
H329 H 0.02157 0.83551 0.73144 0.0
H330 H 0.10972 0.91517 0.73937 0.0
H331 H 0.08733 0.95684 0.65647 0.0
C332 C 0.10051 0.85411 0.89929 0.0
C333 C 0.10042 0.81021 0.90327 0.0
C334 C 0.09009 0.87398 0.84663 0.0
C335 C 0.07921 0.85043 0.79676 0.0
C336 C 0.07924 0.80643 0.8004 0.0
C337 C 0.0901 0.78642 0.85321 0.0
C338 C 0.02332 0.88554 0.66718 0.0
C339 C 0.04119 0.92059 0.64609 0.0
C340 C 0.03631 0.86152 0.71464 0.0
C341 C 0.06724 0.87236 0.742 0.0
C342 C 0.08561 0.90646 0.71949 0.0
C343 C 0.07278 0.93026 0.67196 0.0
loop_
_geom_bond_atom_site_label_1
_geom_bond_atom_site_label_2
_geom_bond_distance
_geom_bond_site_symmetry_2
_ccdc_geom_bond_type
H0 C3 0.931 . S
H1 C6 0.928 . S
H2 C8 0.930 . S
C3 H0 0.931 . S
C3 C4 1.413 1_554 S
C3 C5 1.360 . S
C4 C3 1.413 1_556 S
C4 C8 1.429 . S
C5 C3 1.360 . S
C5 C6 1.372 . S
C6 H1 0.928 . S
C6 C5 1.372 . S
C6 C7 1.404 . S
C7 C6 1.404 . S
C7 C8 1.391 1_554 S
C8 H2 0.930 . S
C8 C4 1.429 . S
C8 C7 1.391 1_556 S
H9 C12 0.931 . S
H10 C15 0.928 . S
H11 C17 0.930 . S
C12 H9 0.931 . S
C12 C13 1.413 . S
C12 C14 1.360 . S
C13 C12 1.413 . S
C13 C17 1.429 . S
C14 C12 1.360 . S
C14 C15 1.372 . S
C15 H10 0.928 . S
C15 C14 1.372 . S
C15 C16 1.404 . S
C16 C15 1.404 . S
C16 C17 1.391 . S
C17 H11 0.930 . S
C17 C13 1.429 . S
C17 C16 1.391 . S
H18 C21 0.931 . S
H19 C24 0.928 . S
H20 C26 0.930 . S
C21 H18 0.931 . S
C21 C22 1.413 1_554 S
C21 C23 1.360 . S
C22 C21 1.413 1_556 S
C22 C26 1.429 . S
C23 C21 1.360 . S
C23 C24 1.372 . S
C24 H19 0.928 . S
C24 C23 1.372 . S
C24 C25 1.404 . S
C25 C24 1.404 . S
C25 C26 1.391 1_554 S
C26 H20 0.930 . S
C26 C22 1.429 . S
C26 C25 1.391 1_556 S
H27 C30 0.931 . S
H28 C33 0.928 . S
H29 C35 0.930 . S
C30 H27 0.931 . S
C30 C31 1.413 . S
C30 C32 1.360 . S
C31 C30 1.413 . S
C31 C35 1.429 . S
C32 C30 1.360 . S
C32 C33 1.372 . S
C33 H28 0.928 . S
C33 C32 1.372 . S
C33 C34 1.404 . S
C34 C33 1.404 . S
C34 C35 1.391 . S
C35 H29 0.930 . S
C35 C31 1.429 . S
C35 C34 1.391 . S
C36 O52 1.251 . S
C36 O54 1.254 1_455 S
N37 C38 1.333 . S
N37 C42 1.307 . S
N37 Zn43 2.020 . S
C38 N37 1.333 . S
C38 C39 1.379 . S
C38 H56 0.952 . S
C39 C38 1.379 . S
C39 C40 1.390 . S
C39 H66 0.949 . S
C40 C39 1.390 . S
C40 C41 1.357 . S
C41 C40 1.357 . S
C41 C42 1.370 . S
C41 H67 0.950 . S
C42 N37 1.307 . S
C42 C41 1.370 . S
C42 H60 0.948 . S
Zn43 N37 2.020 . S
Zn43 O52 2.039 1_545 S
Zn43 O58 2.034 1_545 S
Zn43 O62 2.025 . S
Zn43 O64 2.024 . S
C44 O63 1.246 . S
C44 O64 1.249 1_655 S
N45 C46 1.307 . S
N45 C47 1.333 . S
N45 Zn51 2.020 . S
C46 N45 1.307 . S
C46 C50 1.370 . S
C46 H57 0.948 . S
C47 N45 1.333 . S
C47 C48 1.379 . S
C47 H55 0.952 . S
C48 C47 1.379 . S
C48 C49 1.390 . S
C48 H68 0.949 . S
C49 C48 1.390 . S
C49 C50 1.357 . S
C50 C46 1.370 . S
C50 C49 1.357 . S
C50 H69 0.950 . S
Zn51 N45 2.020 . S
Zn51 O54 2.025 . S
Zn51 O59 2.024 . S
Zn51 O61 2.039 1_565 S
Zn51 O63 2.034 1_565 S
O52 C36 1.251 . S
O52 Zn43 2.039 1_565 S
C53 O58 1.246 . S
C53 O59 1.249 1_455 S
O54 C36 1.254 1_655 S
O54 Zn51 2.025 . S
H55 C47 0.952 . S
H56 C38 0.952 . S
H57 C46 0.948 . S
O58 Zn43 2.034 1_565 S
O58 C53 1.246 . S
O59 Zn51 2.024 . S
O59 C53 1.249 1_655 S
H60 C42 0.948 . S
O61 Zn51 2.039 1_545 S
O61 C65 1.251 . S
O62 Zn43 2.025 . S
O62 C65 1.254 1_455 S
O63 C44 1.246 . S
O63 Zn51 2.034 1_545 S
O64 Zn43 2.024 . S
O64 C44 1.249 1_455 S
C65 O61 1.251 . S
C65 O62 1.254 1_655 S
H66 C39 0.949 . S
H67 C41 0.950 . S
H68 C48 0.949 . S
H69 C50 0.950 . S
C70 O86 1.251 . S
C70 O88 1.254 . S
N71 C72 1.333 1_554 S
N71 C76 1.307 . S
N71 Zn77 2.020 . S
C72 N71 1.333 1_556 S
C72 C73 1.379 . S
C72 H90 0.952 . S
C73 C72 1.379 . S
C73 C74 1.390 1_556 S
C73 H100 0.949 . S
C74 C73 1.390 1_554 S
C74 C75 1.357 . S
C75 C74 1.357 . S
C75 C76 1.370 . S
C75 H101 0.950 . S
C76 N71 1.307 . S
C76 C75 1.370 . S
C76 H94 0.948 . S
Zn77 N71 2.020 . S
Zn77 O86 2.039 1_554 S
Zn77 O92 2.034 . S
Zn77 O96 2.025 . S
Zn77 O98 2.024 1_554 S
C78 O97 1.246 . S
C78 O98 1.249 . S
N79 C80 1.307 1_554 S
N79 C81 1.333 . S
N79 Zn85 2.020 . S
C80 N79 1.307 1_556 S
C80 C84 1.370 . S
C80 H91 0.948 . S
C81 N79 1.333 . S
C81 C82 1.379 . S
C81 H89 0.952 . S
C82 C81 1.379 . S
C82 C83 1.390 . S
C82 H102 0.949 . S
C83 C82 1.390 . S
C83 C84 1.357 1_554 S
C84 C80 1.370 . S
C84 C83 1.357 1_556 S
C84 H103 0.950 . S
Zn85 N79 2.020 . S
Zn85 O88 2.025 1_554 S
Zn85 O93 2.024 . S
Zn85 O95 2.039 . S
Zn85 O97 2.034 1_554 S
O86 C70 1.251 . S
O86 Zn77 2.039 1_556 S
C87 O92 1.246 . S
C87 O93 1.249 . S
O88 C70 1.254 . S
O88 Zn85 2.025 1_556 S
H89 C81 0.952 . S
H90 C72 0.952 . S
H91 C80 0.948 . S
O92 Zn77 2.034 . S
O92 C87 1.246 . S
O93 Zn85 2.024 . S
O93 C87 1.249 . S
H94 C76 0.948 . S
O95 Zn85 2.039 . S
O95 C99 1.251 . S
O96 Zn77 2.025 . S
O96 C99 1.254 . S
O97 C78 1.246 . S
O97 Zn85 2.034 1_556 S
O98 Zn77 2.024 1_556 S
O98 C78 1.249 . S
C99 O95 1.251 . S
C99 O96 1.254 . S
H100 C73 0.949 . S
H101 C75 0.950 . S
H102 C82 0.949 . S
H103 C84 0.950 . S
H104 C112 0.950 . S
H105 C117 0.950 . S
H106 C114 0.950 . S
H107 C116 0.950 . S
H108 C118 0.950 . S
H109 C120 0.950 . S
H110 C122 0.950 . S
H111 C123 0.950 . S
C112 H104 0.950 . S
C112 C113 1.386 . S
C112 C114 1.391 . S
C113 C112 1.386 . S
C113 C117 1.393 . S
C114 H106 0.950 . S
C114 C112 1.391 . S
C114 C115 1.400 . S
C115 C114 1.400 . S
C115 C116 1.398 . S
C115 C121 1.491 . S
C116 H107 0.950 . S
C116 C115 1.398 . S
C116 C117 1.391 . S
C117 H105 0.950 . S
C117 C113 1.393 . S
C117 C116 1.391 . S
C118 H108 0.950 . S
C118 C119 1.386 . S
C118 C120 1.391 . S
C119 C118 1.386 . S
C119 C123 1.393 . S
C120 H109 0.950 . S
C120 C118 1.391 . S
C120 C121 1.400 . S
C121 C115 1.491 . S
C121 C120 1.400 . S
C121 C122 1.398 . S
C122 H110 0.950 . S
C122 C121 1.398 . S
C122 C123 1.391 . S
C123 H111 0.950 . S
C123 C119 1.393 . S
C123 C122 1.391 . S
H124 C132 0.950 . S
H125 C137 0.950 . S
H126 C134 0.950 . S
H127 C136 0.950 . S
H128 C138 0.950 . S
H129 C140 0.950 . S
H130 C142 0.950 . S
H131 C143 0.950 . S
C132 H124 0.950 . S
C132 C133 1.386 1_556 S
C132 C134 1.391 . S
C133 C132 1.386 1_554 S
C133 C137 1.393 . S
C134 H126 0.950 . S
C134 C132 1.391 . S
C134 C135 1.400 1_556 S
C135 C134 1.400 1_554 S
C135 C136 1.398 . S
C135 C141 1.491 . S
C136 H127 0.950 . S
C136 C135 1.398 . S
C136 C137 1.391 . S
C137 H125 0.950 . S
C137 C133 1.393 . S
C137 C136 1.391 . S
C138 H128 0.950 . S
C138 C139 1.386 . S
C138 C140 1.391 . S
C139 C138 1.386 . S
C139 C143 1.393 1_554 S
C140 H129 0.950 . S
C140 C138 1.391 . S
C140 C141 1.400 . S
C141 C135 1.491 . S
C141 C140 1.400 . S
C141 C142 1.398 1_554 S
C142 H130 0.950 . S
C142 C141 1.398 1_556 S
C142 C143 1.391 . S
C143 H131 0.950 . S
C143 C139 1.393 1_556 S
C143 C142 1.391 . S
H144 C152 0.950 . S
H145 C157 0.950 . S
H146 C154 0.950 . S
H147 C156 0.950 . S
H148 C158 0.950 . S
H149 C160 0.950 . S
H150 C162 0.950 . S
H151 C163 0.950 . S
C152 H144 0.950 . S
C152 C153 1.386 . S
C152 C154 1.391 . S
C153 C152 1.386 . S
C153 C157 1.393 . S
C154 H146 0.950 . S
C154 C152 1.391 . S
C154 C155 1.400 . S
C155 C154 1.400 . S
C155 C156 1.398 . S
C155 C161 1.491 . S
C156 H147 0.950 . S
C156 C155 1.398 . S
C156 C157 1.391 . S
C157 H145 0.950 . S
C157 C153 1.393 . S
C157 C156 1.391 . S
C158 H148 0.950 . S
C158 C159 1.386 . S
C158 C160 1.391 . S
C159 C158 1.386 . S
C159 C163 1.393 . S
C160 H149 0.950 . S
C160 C158 1.391 . S
C160 C161 1.400 . S
C161 C155 1.491 . S
C161 C160 1.400 . S
C161 C162 1.398 . S
C162 H150 0.950 . S
C162 C161 1.398 . S
C162 C163 1.391 . S
C163 H151 0.950 . S
C163 C159 1.393 . S
C163 C162 1.391 . S
H164 C172 0.950 . S
H165 C177 0.950 . S
H166 C174 0.950 . S
H167 C176 0.950 . S
H168 C178 0.950 . S
H169 C180 0.950 . S
H170 C182 0.950 . S
H171 C183 0.950 . S
C172 H164 0.950 . S
C172 C173 1.386 . S
C172 C174 1.391 . S
C173 C172 1.386 . S
C173 C177 1.393 1_554 S
C174 H166 0.950 . S
C174 C172 1.391 . S
C174 C175 1.400 . S
C175 C174 1.400 . S
C175 C176 1.398 1_554 S
C175 C181 1.491 . S
C176 H167 0.950 . S
C176 C175 1.398 1_556 S
C176 C177 1.391 . S
C177 H165 0.950 . S
C177 C173 1.393 1_556 S
C177 C176 1.391 . S
C178 H168 0.950 . S
C178 C179 1.386 1_556 S
C178 C180 1.391 . S
C179 C178 1.386 1_554 S
C179 C183 1.393 . S
C180 H169 0.950 . S
C180 C178 1.391 . S
C180 C181 1.400 1_556 S
C181 C175 1.491 . S
C181 C180 1.400 1_554 S
C181 C182 1.398 . S
C182 H170 0.950 . S
C182 C181 1.398 . S
C182 C183 1.391 . S
C183 H171 0.950 . S
C183 C179 1.393 . S
C183 C182 1.391 . S
H184 C192 0.950 . S
H185 C197 0.950 . S
H186 C194 0.950 . S
H187 C196 0.950 . S
H188 C198 0.950 . S
H189 C200 0.950 . S
H190 C202 0.950 . S
H191 C203 0.950 1_655 S
C192 H184 0.950 . S
C192 C193 1.386 . S
C192 C194 1.391 . S
C193 C192 1.386 . S
C193 C197 1.393 . S
C194 H186 0.950 . S
C194 C192 1.391 . S
C194 C195 1.400 . S
C195 C194 1.400 . S
C195 C196 1.398 . S
C195 C201 1.491 . S
C196 H187 0.950 . S
C196 C195 1.398 . S
C196 C197 1.391 . S
C197 H185 0.950 . S
C197 C193 1.393 . S
C197 C196 1.391 . S
C198 H188 0.950 . S
C198 C199 1.386 . S
C198 C200 1.391 . S
C199 C198 1.386 . S
C199 C203 1.393 . S
C200 H189 0.950 . S
C200 C198 1.391 . S
C200 C201 1.400 . S
C201 C195 1.491 . S
C201 C200 1.400 . S
C201 C202 1.398 . S
C202 H190 0.950 . S
C202 C201 1.398 . S
C202 C203 1.391 . S
C203 H191 0.950 1_455 S
C203 C199 1.393 . S
C203 C202 1.391 . S
H204 C212 0.950 . S
H205 C217 0.950 . S
H206 C214 0.950 . S
H207 C216 0.950 . S
H208 C218 0.950 . S
H209 C220 0.950 . S
H210 C222 0.950 . S
H211 C223 0.950 . S
C212 H204 0.950 . S
C212 C213 1.386 . S
C212 C214 1.391 . S
C213 C212 1.386 . S
C213 C217 1.393 . S
C214 H206 0.950 . S
C214 C212 1.391 . S
C214 C215 1.400 . S
C215 C214 1.400 . S
C215 C216 1.398 . S
C215 C221 1.491 . S
C216 H207 0.950 . S
C216 C215 1.398 . S
C216 C217 1.391 . S
C217 H205 0.950 . S
C217 C213 1.393 . S
C217 C216 1.391 . S
C218 H208 0.950 . S
C218 C219 1.386 . S
C218 C220 1.391 . S
C219 C218 1.386 . S
C219 C223 1.393 . S
C220 H209 0.950 . S
C220 C218 1.391 . S
C220 C221 1.400 . S
C221 C215 1.491 . S
C221 C220 1.400 . S
C221 C222 1.398 . S
C222 H210 0.950 . S
C222 C221 1.398 . S
C222 C223 1.391 . S
C223 H211 0.950 . S
C223 C219 1.393 . S
C223 C222 1.391 . S
H224 C232 0.950 . S
H225 C237 0.950 . S
H226 C234 0.950 . S
H227 C236 0.950 . S
H228 C238 0.950 . S
H229 C240 0.950 . S
H230 C242 0.950 . S
H231 C243 0.950 . S
C232 H224 0.950 . S
C232 C233 1.386 . S
C232 C234 1.391 . S
C233 C232 1.386 . S
C233 C237 1.393 . S
C234 H226 0.950 . S
C234 C232 1.391 . S
C234 C235 1.400 . S
C235 C234 1.400 . S
C235 C236 1.398 . S
C235 C241 1.491 . S
C236 H227 0.950 . S
C236 C235 1.398 . S
C236 C237 1.391 . S
C237 H225 0.950 . S
C237 C233 1.393 . S
C237 C236 1.391 . S
C238 H228 0.950 . S
C238 C239 1.386 . S
C238 C240 1.391 . S
C239 C238 1.386 . S
C239 C243 1.393 . S
C240 H229 0.950 . S
C240 C238 1.391 . S
C240 C241 1.400 . S
C241 C235 1.491 . S
C241 C240 1.400 . S
C241 C242 1.398 . S
C242 H230 0.950 . S
C242 C241 1.398 . S
C242 C243 1.391 . S
C243 H231 0.950 . S
C243 C239 1.393 . S
C243 C242 1.391 . S
H244 C252 0.950 . S
H245 C257 0.950 . S
H246 C254 0.950 . S
H247 C256 0.950 . S
H248 C258 0.950 . S
H249 C260 0.950 . S
H250 C262 0.950 . S
H251 C263 0.950 . S
C252 H244 0.950 . S
C252 C253 1.386 . S
C252 C254 1.391 . S
C253 C252 1.386 . S
C253 C257 1.393 . S
C254 H246 0.950 . S
C254 C252 1.391 . S
C254 C255 1.400 . S
C255 C254 1.400 . S
C255 C256 1.398 . S
C255 C261 1.491 . S
C256 H247 0.950 . S
C256 C255 1.398 . S
C256 C257 1.391 . S
C257 H245 0.950 . S
C257 C253 1.393 . S
C257 C256 1.391 . S
C258 H248 0.950 . S
C258 C259 1.386 . S
C258 C260 1.391 . S
C259 C258 1.386 . S
C259 C263 1.393 . S
C260 H249 0.950 . S
C260 C258 1.391 . S
C260 C261 1.400 . S
C261 C255 1.491 . S
C261 C260 1.400 . S
C261 C262 1.398 . S
C262 H250 0.950 . S
C262 C261 1.398 . S
C262 C263 1.391 . S
C263 H251 0.950 . S
C263 C259 1.393 . S
C263 C262 1.391 . S
H264 C272 0.950 . S
H265 C277 0.950 . S
H266 C274 0.950 . S
H267 C276 0.950 . S
H268 C278 0.950 . S
H269 C280 0.950 . S
H270 C282 0.950 . S
H271 C283 0.950 . S
C272 H264 0.950 . S
C272 C273 1.386 . S
C272 C274 1.391 . S
C273 C272 1.386 . S
C273 C277 1.393 . S
C274 H266 0.950 . S
C274 C272 1.391 . S
C274 C275 1.400 . S
C275 C274 1.400 . S
C275 C276 1.398 . S
C275 C281 1.491 . S
C276 H267 0.950 . S
C276 C275 1.398 . S
C276 C277 1.391 . S
C277 H265 0.950 . S
C277 C273 1.393 . S
C277 C276 1.391 . S
C278 H268 0.950 . S
C278 C279 1.386 . S
C278 C280 1.391 . S
C279 C278 1.386 . S
C279 C283 1.393 . S
C280 H269 0.950 . S
C280 C278 1.391 . S
C280 C281 1.400 . S
C281 C275 1.491 . S
C281 C280 1.400 . S
C281 C282 1.398 . S
C282 H270 0.950 . S
C282 C281 1.398 . S
C282 C283 1.391 . S
C283 H271 0.950 . S
C283 C279 1.393 . S
C283 C282 1.391 . S
H284 C292 0.950 . S
H285 C297 0.950 . S
H286 C294 0.950 . S
H287 C296 0.950 . S
H288 C298 0.950 . S
H289 C300 0.950 . S
H290 C302 0.950 . S
H291 C303 0.950 . S
C292 H284 0.950 . S
C292 C293 1.386 . S
C292 C294 1.391 . S
C293 C292 1.386 . S
C293 C297 1.393 . S
C294 H286 0.950 . S
C294 C292 1.391 . S
C294 C295 1.400 . S
C295 C294 1.400 . S
C295 C296 1.398 . S
C295 C301 1.491 . S
C296 H287 0.950 . S
C296 C295 1.398 . S
C296 C297 1.391 . S
C297 H285 0.950 . S
C297 C293 1.393 . S
C297 C296 1.391 . S
C298 H288 0.950 . S
C298 C299 1.386 . S
C298 C300 1.391 . S
C299 C298 1.386 . S
C299 C303 1.393 . S
C300 H289 0.950 . S
C300 C298 1.391 . S
C300 C301 1.400 . S
C301 C295 1.491 . S
C301 C300 1.400 . S
C301 C302 1.398 . S
C302 H290 0.950 . S
C302 C301 1.398 . S
C302 C303 1.391 . S
C303 H291 0.950 . S
C303 C299 1.393 . S
C303 C302 1.391 . S
H304 C312 0.950 . S
H305 C317 0.950 . S
H306 C314 0.950 . S
H307 C316 0.950 . S
H308 C318 0.950 . S
H309 C320 0.950 . S
H310 C322 0.950 . S
H311 C323 0.950 . S
C312 H304 0.950 . S
C312 C313 1.386 . S
C312 C314 1.391 . S
C313 C312 1.386 . S
C313 C317 1.393 . S
C314 H306 0.950 . S
C314 C312 1.391 . S
C314 C315 1.400 . S
C315 C314 1.400 . S
C315 C316 1.398 . S
C315 C321 1.491 . S
C316 H307 0.950 . S
C316 C315 1.398 . S
C316 C317 1.391 . S
C317 H305 0.950 . S
C317 C313 1.393 . S
C317 C316 1.391 . S
C318 H308 0.950 . S
C318 C319 1.386 . S
C318 C320 1.391 . S
C319 C318 1.386 . S
C319 C323 1.393 . S
C320 H309 0.950 . S
C320 C318 1.391 . S
C320 C321 1.400 . S
C321 C315 1.491 . S
C321 C320 1.400 . S
C321 C322 1.398 . S
C322 H310 0.950 . S
C322 C321 1.398 . S
C322 C323 1.391 . S
C323 H311 0.950 . S
C323 C319 1.393 . S
C323 C322 1.391 . S
H324 C332 0.950 . S
H325 C337 0.950 . S
H326 C334 0.950 . S
H327 C336 0.950 . S
H328 C338 0.950 . S
H329 C340 0.950 . S
H330 C342 0.950 . S
H331 C343 0.950 . S
C332 H324 0.950 . S
C332 C333 1.386 . S
C332 C334 1.391 . S
C333 C332 1.386 . S
C333 C337 1.393 . S
C334 H326 0.950 . S
C334 C332 1.391 . S
C334 C335 1.400 . S
C335 C334 1.400 . S
C335 C336 1.398 . S
C335 C341 1.491 . S
C336 H327 0.950 . S
C336 C335 1.398 . S
C336 C337 1.391 . S
C337 H325 0.950 . S
C337 C333 1.393 . S
C337 C336 1.391 . S
C338 H328 0.950 . S
C338 C339 1.386 . S
C338 C340 1.391 . S
C339 C338 1.386 . S
C339 C343 1.393 . S
C340 H329 0.950 . S
C340 C338 1.391 . S
C340 C341 1.400 . S
C341 C335 1.491 . S
C341 C340 1.400 . S
C341 C342 1.398 . S
C342 H330 0.950 . S
C342 C341 1.398 . S
C342 C343 1.391 . S
C343 H331 0.950 . S
C343 C339 1.393 . S
C343 C342 1.391 . S
C119 C40 1.540 . S
C113 C34 1.522 . S
C133 C7 1.493 . S
C139 C83 1.504 . S
C153 C16 1.524 . S
C159 C49 1.541 . S
C173 C25 1.504 . S
C179 C74 1.509 . S
C199 C36 1.525 . S
C193 C5 1.513 . S
C219 C78 1.570 . S
C213 C13 1.546 . S
C233 C23 1.501 . S
C239 C44 1.520 . S
C253 C32 1.555 . S
C259 C70 1.569 . S
C279 C99 1.568 . S
C273 C14 1.535 . S
C299 C65 1.520 . S
C293 C22 1.500 . S
C319 C87 1.570 . S
C313 C31 1.546 . S
C333 C4 1.505 . S
C339 C53 1.519 . S
