# Generated by pormake.
# Topology ctn, (3,4)-cn, num edge types: 1
# Building blocks:
#     Node 0, Type 0, BuildingBlock: MIDCAF_clean_linker_0, # of connection points: 3
#     Node 1, Type 0, BuildingBlock: MIDCAF_clean_linker_0, # of connection points: 3
#     Node 2, Type 0, BuildingBlock: MIDCAF_clean_linker_0, # of connection points: 3
#     Node 3, Type 0, BuildingBlock: MIDCAF_clean_linker_0, # of connection points: 3
#     Node 4, Type 0, BuildingBlock: MIDCAF_clean_linker_0, # of connection points: 3
#     Node 5, Type 0, BuildingBlock: MIDCAF_clean_linker_0, # of connection points: 3
#     Node 6, Type 0, BuildingBlock: MIDCAF_clean_linker_0, # of connection points: 3
#     Node 7, Type 0, BuildingBlock: MIDCAF_clean_linker_0, # of connection points: 3
#     Node 8, Type 0, BuildingBlock: MIDCAF_clean_linker_0, # of connection points: 3
#     Node 9, Type 0, BuildingBlock: MIDCAF_clean_linker_0, # of connection points: 3
#     Node 10, Type 0, BuildingBlock: MIDCAF_clean_linker_0, # of connection points: 3
#     Node 11, Type 0, BuildingBlock: MIDCAF_clean_linker_0, # of connection points: 3
#     Node 12, Type 0, BuildingBlock: MIDCAF_clean_linker_0, # of connection points: 3
#     Node 13, Type 0, BuildingBlock: MIDCAF_clean_linker_0, # of connection points: 3
#     Node 14, Type 0, BuildingBlock: MIDCAF_clean_linker_0, # of connection points: 3
#     Node 15, Type 0, BuildingBlock: MIDCAF_clean_linker_0, # of connection points: 3
#     Node 16, Type 1, BuildingBlock: QUQFOY_clean_sbu_1, # of connection points: 4
#     Node 17, Type 1, BuildingBlock: QUQFOY_clean_sbu_1, # of connection points: 4
#     Node 18, Type 1, BuildingBlock: QUQFOY_clean_sbu_1, # of connection points: 4
#     Node 19, Type 1, BuildingBlock: QUQFOY_clean_sbu_1, # of connection points: 4
#     Node 20, Type 1, BuildingBlock: QUQFOY_clean_sbu_1, # of connection points: 4
#     Node 21, Type 1, BuildingBlock: QUQFOY_clean_sbu_1, # of connection points: 4
#     Node 22, Type 1, BuildingBlock: QUQFOY_clean_sbu_1, # of connection points: 4
#     Node 23, Type 1, BuildingBlock: QUQFOY_clean_sbu_1, # of connection points: 4
#     Node 24, Type 1, BuildingBlock: QUQFOY_clean_sbu_1, # of connection points: 4
#     Node 25, Type 1, BuildingBlock: QUQFOY_clean_sbu_1, # of connection points: 4
#     Node 26, Type 1, BuildingBlock: QUQFOY_clean_sbu_1, # of connection points: 4
#     Node 27, Type 1, BuildingBlock: QUQFOY_clean_sbu_1, # of connection points: 4
#     Edge 28, Type (0, 1), BuildingBlock: EZIPEK_clean_linker_0, # of connection points: 2
#     Edge 29, Type (0, 1), BuildingBlock: EZIPEK_clean_linker_0, # of connection points: 2
#     Edge 30, Type (0, 1), BuildingBlock: EZIPEK_clean_linker_0, # of connection points: 2
#     Edge 31, Type (0, 1), BuildingBlock: EZIPEK_clean_linker_0, # of connection points: 2
#     Edge 32, Type (0, 1), BuildingBlock: EZIPEK_clean_linker_0, # of connection points: 2
#     Edge 33, Type (0, 1), BuildingBlock: EZIPEK_clean_linker_0, # of connection points: 2
#     Edge 34, Type (0, 1), BuildingBlock: EZIPEK_clean_linker_0, # of connection points: 2
#     Edge 35, Type (0, 1), BuildingBlock: EZIPEK_clean_linker_0, # of connection points: 2
#     Edge 36, Type (0, 1), BuildingBlock: EZIPEK_clean_linker_0, # of connection points: 2
#     Edge 37, Type (0, 1), BuildingBlock: EZIPEK_clean_linker_0, # of connection points: 2
#     Edge 38, Type (0, 1), BuildingBlock: EZIPEK_clean_linker_0, # of connection points: 2
#     Edge 39, Type (0, 1), BuildingBlock: EZIPEK_clean_linker_0, # of connection points: 2
#     Edge 40, Type (0, 1), BuildingBlock: EZIPEK_clean_linker_0, # of connection points: 2
#     Edge 41, Type (0, 1), BuildingBlock: EZIPEK_clean_linker_0, # of connection points: 2
#     Edge 42, Type (0, 1), BuildingBlock: EZIPEK_clean_linker_0, # of connection points: 2
#     Edge 43, Type (0, 1), BuildingBlock: EZIPEK_clean_linker_0, # of connection points: 2
#     Edge 44, Type (0, 1), BuildingBlock: EZIPEK_clean_linker_0, # of connection points: 2
#     Edge 45, Type (0, 1), BuildingBlock: EZIPEK_clean_linker_0, # of connection points: 2
#     Edge 46, Type (0, 1), BuildingBlock: EZIPEK_clean_linker_0, # of connection points: 2
#     Edge 47, Type (0, 1), BuildingBlock: EZIPEK_clean_linker_0, # of connection points: 2
#     Edge 48, Type (0, 1), BuildingBlock: EZIPEK_clean_linker_0, # of connection points: 2
#     Edge 49, Type (0, 1), BuildingBlock: EZIPEK_clean_linker_0, # of connection points: 2
#     Edge 50, Type (0, 1), BuildingBlock: EZIPEK_clean_linker_0, # of connection points: 2
#     Edge 51, Type (0, 1), BuildingBlock: EZIPEK_clean_linker_0, # of connection points: 2
#     Edge 52, Type (0, 1), BuildingBlock: EZIPEK_clean_linker_0, # of connection points: 2
#     Edge 53, Type (0, 1), BuildingBlock: EZIPEK_clean_linker_0, # of connection points: 2
#     Edge 54, Type (0, 1), BuildingBlock: EZIPEK_clean_linker_0, # of connection points: 2
#     Edge 55, Type (0, 1), BuildingBlock: EZIPEK_clean_linker_0, # of connection points: 2
#     Edge 56, Type (0, 1), BuildingBlock: EZIPEK_clean_linker_0, # of connection points: 2
#     Edge 57, Type (0, 1), BuildingBlock: EZIPEK_clean_linker_0, # of connection points: 2
#     Edge 58, Type (0, 1), BuildingBlock: EZIPEK_clean_linker_0, # of connection points: 2
#     Edge 59, Type (0, 1), BuildingBlock: EZIPEK_clean_linker_0, # of connection points: 2
#     Edge 60, Type (0, 1), BuildingBlock: EZIPEK_clean_linker_0, # of connection points: 2
#     Edge 61, Type (0, 1), BuildingBlock: EZIPEK_clean_linker_0, # of connection points: 2
#     Edge 62, Type (0, 1), BuildingBlock: EZIPEK_clean_linker_0, # of connection points: 2
#     Edge 63, Type (0, 1), BuildingBlock: EZIPEK_clean_linker_0, # of connection points: 2
#     Edge 64, Type (0, 1), BuildingBlock: EZIPEK_clean_linker_0, # of connection points: 2
#     Edge 65, Type (0, 1), BuildingBlock: EZIPEK_clean_linker_0, # of connection points: 2
#     Edge 66, Type (0, 1), BuildingBlock: EZIPEK_clean_linker_0, # of connection points: 2
#     Edge 67, Type (0, 1), BuildingBlock: EZIPEK_clean_linker_0, # of connection points: 2
#     Edge 68, Type (0, 1), BuildingBlock: EZIPEK_clean_linker_0, # of connection points: 2
#     Edge 69, Type (0, 1), BuildingBlock: EZIPEK_clean_linker_0, # of connection points: 2
#     Edge 70, Type (0, 1), BuildingBlock: EZIPEK_clean_linker_0, # of connection points: 2
#     Edge 71, Type (0, 1), BuildingBlock: EZIPEK_clean_linker_0, # of connection points: 2
#     Edge 72, Type (0, 1), BuildingBlock: EZIPEK_clean_linker_0, # of connection points: 2
#     Edge 73, Type (0, 1), BuildingBlock: EZIPEK_clean_linker_0, # of connection points: 2
#     Edge 74, Type (0, 1), BuildingBlock: EZIPEK_clean_linker_0, # of connection points: 2
#     Edge 75, Type (0, 1), BuildingBlock: EZIPEK_clean_linker_0, # of connection points: 2
# Relax obj value: 0.036
# Max RMSD: 0.144
# Mean RMSD: 0.065
data_MOF--net-ctn--node1-QUQFOY_clean_sbu_1--node2-MIDCAF_clean_linker_0--edge1-EZIPEK_clean_linker_0
_symmetry_space_group_name_H-M    P1
_symmetry_Int_Tables_number       1
_symmetry_cell_setting            triclinic
loop_
_symmetry_equiv_pos_as_xyz
'x, y, z'
_cell_length_a     52.414462
_cell_length_b     52.30866
_cell_length_c     52.48269
_cell_angle_alpha  93.0214
_cell_angle_beta   90.109945
_cell_angle_gamma 94.841762
loop_
_atom_site_label
_atom_site_type_symbol
_atom_site_fract_x
_atom_site_fract_y
_atom_site_fract_z
_atom_type_partial_charge
C0 C 0.9761 0.11022 0.13832 0.0
C1 C 0.97743 0.09282 0.15758 0.0
C2 C -0.00176 0.07777 0.15854 0.0
C3 C 0.01709 0.07931 0.13982 0.0
H4 H 0.06978 0.03549 0.10744 0.0
H5 H 0.09749 0.00022 0.10251 0.0
H6 H 0.13276 0.03449 0.03701 0.0
H7 H 0.10507 0.06983 0.04149 0.0
H8 H 0.07151 0.10882 0.0119 0.0
H9 H 0.06367 0.13504 0.97574 0.0
H10 H 0.01069 0.17643 0.0211 0.0
H11 H 0.01823 0.15059 0.05726 0.0
H12 H 0.99312 0.12494 0.10452 0.0
H13 H 0.96007 0.12193 0.1374 0.0
H14 H -0.00053 0.06426 0.17335 0.0
H15 H 0.03259 0.06693 0.14074 0.0
N16 N 0.05128 0.07768 0.097 0.0
N17 N 0.06558 0.09247 0.05766 0.0
N18 N 0.03255 0.11181 0.07934 0.0
C19 C 0.06723 0.07604 0.07673 0.0
C20 C 0.04831 0.11049 0.05889 0.0
C21 C 0.03394 0.09556 0.09851 0.0
C22 C 0.0851 0.05551 0.07477 0.0
C23 C 0.08354 0.03572 0.09207 0.0
C24 C 0.09932 0.01552 0.08933 0.0
C25 C 0.11705 0.0149 0.06944 0.0
C26 C 0.11913 0.0348 0.0525 0.0
C27 C 0.10326 0.05492 0.05509 0.0
C28 C 0.04537 0.12744 0.03749 0.0
C29 C 0.05836 0.12364 0.0143 0.0
C30 C 0.05391 0.13853 0.9936 0.0
C31 C 0.0365 0.15744 0.99585 0.0
C32 C 0.02411 0.1618 0.01909 0.0
C33 C 0.02847 0.14696 0.03971 0.0
C34 C 0.01542 0.09596 0.1198 0.0
C35 C 0.995 0.11183 0.11958 0.0
C36 C 0.21833 0.64446 0.23328 0.0
C37 C 0.22439 0.63083 0.25444 0.0
C38 C 0.24708 0.63781 0.26809 0.0
C39 C 0.26359 0.65838 0.26073 0.0
H40 H 0.23479 0.73443 0.19005 0.0
H41 H 0.22114 0.76355 0.15868 0.0
H42 H 0.29818 0.79912 0.15515 0.0
H43 H 0.3121 0.77036 0.18671 0.0
H44 H 0.35017 0.76086 0.23392 0.0
H45 H 0.38896 0.77093 0.25998 0.0
H46 H 0.37285 0.70112 0.2992 0.0
H47 H 0.33432 0.69066 0.27341 0.0
H48 H 0.22954 0.67556 0.20968 0.0
H49 H 0.20077 0.6392 0.22262 0.0
H50 H 0.25191 0.62741 0.2845 0.0
H51 H 0.28092 0.66341 0.27179 0.0
N52 N 0.26735 0.71114 0.21534 0.0
N53 N 0.30647 0.73624 0.22081 0.0
N54 N 0.29815 0.69931 0.24378 0.0
C55 C 0.28308 0.73195 0.20935 0.0
C56 C 0.31413 0.71992 0.23806 0.0
C57 C 0.27481 0.69471 0.23253 0.0
C58 C 0.27461 0.74993 0.1908 0.0
C59 C 0.24887 0.74846 0.18269 0.0
C60 C 0.24097 0.76512 0.16486 0.0
C61 C 0.2587 0.78332 0.15464 0.0
C62 C 0.28427 0.78514 0.1629 0.0
C63 C 0.29216 0.76866 0.1809 0.0
C64 C 0.33893 0.72508 0.25172 0.0
C65 C 0.35503 0.74745 0.24783 0.0
C66 C 0.3772 0.75322 0.2626 0.0
C67 C 0.38353 0.73673 0.28141 0.0
C68 C 0.36815 0.71398 0.28469 0.0
C69 C 0.34609 0.70815 0.26995 0.0
C70 C 0.25753 0.67245 0.2397 0.0
C71 C 0.23474 0.66521 0.22599 0.0
C72 C 0.98432 0.39451 0.01553 0.0
C73 C 0.96501 0.3866 0.99759 0.0
C74 C 0.94187 0.3983 -0.00152 0.0
C75 C 0.93822 0.4179 0.01692 0.0
H76 H 0.90102 0.48543 0.0279 0.0
H77 H 0.87516 0.52045 0.01804 0.0
H78 H 0.90335 0.56374 0.0859 0.0
H79 H 0.92929 0.52888 0.09618 0.0
H80 H 0.9607 0.50048 0.13606 0.0
H81 H 0.98859 0.50614 0.17364 0.0
H82 H 0.03346 0.44634 0.14341 0.0
H83 H 0.00567 0.44029 0.10566 0.0
H84 H 0.99577 0.41946 0.04783 0.0
H85 H 0.0023 0.3857 0.01506 0.0
H86 H 0.92675 0.39234 0.9848 0.0
H87 H 0.92024 0.42671 0.01713 0.0
N88 N 0.93702 0.46429 0.05047 0.0
N89 N 0.94844 0.48543 0.08984 0.0
N90 N 0.96788 0.44837 0.07642 0.0
C91 C 0.93432 0.48392 0.06802 0.0
C92 C 0.96516 0.46768 0.09425 0.0
C93 C 0.95379 0.44647 0.05457 0.0
C94 C 0.91735 0.50433 0.06279 0.0
C95 C 0.90167 0.50229 0.04087 0.0
C96 C 0.88686 0.52223 0.03518 0.0
C97 C 0.88754 0.54455 0.05122 0.0
C98 C 0.90271 0.54658 0.07334 0.0
C99 C 0.91745 0.5266 0.07914 0.0
C100 C 0.98103 0.47003 0.11773 0.0
C101 C 0.97636 0.48836 0.13739 0.0
C102 C 0.99217 0.49158 0.15893 0.0
C103 C 0.01292 0.47663 0.16111 0.0
C104 C 0.0174 0.45794 0.14192 0.0
C105 C 0.00151 0.45458 0.12041 0.0
C106 C 0.95747 0.42573 0.03505 0.0
C107 C 0.9805 0.41374 0.03424 0.0
C108 C 0.75149 0.76269 0.14919 0.0
C109 C 0.74554 0.73612 0.15 0.0
C110 C 0.73552 0.7259 0.17245 0.0
C111 C 0.73106 0.7422 0.19368 0.0
H112 H 0.66459 0.77103 0.24314 0.0
H113 H 0.62745 0.76865 0.27144 0.0
H114 H 0.67413 0.80491 0.33313 0.0
H115 H 0.71111 0.80839 0.30457 0.0
H116 H 0.77134 0.85034 0.2015 0.0
H117 H 0.79454 0.89303 0.20532 0.0
H118 H 0.77068 0.90193 0.28359 0.0
H119 H 0.74721 0.85946 0.28006 0.0
H120 H 0.75228 0.79935 0.16924 0.0
H121 H 0.75924 0.77088 0.13201 0.0
H122 H 0.73095 0.70538 0.17339 0.0
H123 H 0.72321 0.73391 0.21076 0.0
N124 N 0.71514 0.77959 0.2331 0.0
N125 N 0.72555 0.81882 0.25609 0.0
N126 N 0.74667 0.80948 0.21792 0.0
C127 C 0.71145 0.79584 0.25358 0.0
C128 C 0.74313 0.82583 0.23828 0.0
C129 C 0.73298 0.78626 0.21532 0.0
C130 C 0.69059 0.79006 0.27168 0.0
C131 C 0.66703 0.77803 0.26287 0.0
C132 C 0.64582 0.77674 0.27896 0.0
C133 C 0.64804 0.7869 0.30424 0.0
C134 C 0.67204 0.79719 0.31361 0.0
C135 C 0.69308 0.79914 0.29732 0.0
C136 C 0.75747 0.85144 0.24052 0.0
C137 C 0.77101 0.86133 0.21956 0.0
C138 C 0.78416 0.88572 0.22161 0.0
C139 C 0.78415 0.90043 0.24469 0.0
C140 C 0.77073 0.89073 0.26562 0.0
C141 C 0.75739 0.86648 0.26355 0.0
C142 C 0.73712 0.76885 0.19291 0.0
C143 C 0.74751 0.77889 0.17049 0.0
C144 C 0.06455 0.92732 0.52254 0.0
C145 C 0.03981 0.91593 0.52637 0.0
C146 C 0.01931 0.92306 0.51196 0.0
C147 C 0.02337 0.94176 0.49408 0.0
H148 H 0.98503 0.98412 0.44606 0.0
H149 H 0.94967 0.99466 0.41914 0.0
H150 H 0.00153 0.04554 0.37786 0.0
H151 H 0.03709 0.0354 0.40474 0.0
H152 H 0.08972 0.05585 0.43777 0.0
H153 H 0.12977 0.08324 0.44301 0.0
H154 H 0.1648 0.02233 0.47845 0.0
H155 H 0.12483 0.9948 0.47363 0.0
H156 H 0.08793 0.95485 0.50235 0.0
H157 H 0.08053 0.92192 0.53359 0.0
H158 H 0.0001 0.91434 0.51478 0.0
H159 H 0.00707 0.94709 0.48348 0.0
N160 N 0.03231 0.98157 0.45846 0.0
N161 N 0.05906 0.01461 0.44157 0.0
N162 N 0.07536 0.98791 0.47102 0.0
C163 C 0.03566 0.00146 0.44283 0.0
C164 C 0.07901 0.00789 0.45558 0.0
C165 C 0.05209 0.97465 0.47258 0.0
C166 C 0.01398 0.00875 0.42743 0.0
C167 C 0.98897 0.99769 0.43138 0.0
C168 C 0.9687 0.00375 0.41615 0.0
C169 C 0.97313 0.02081 0.39661 0.0
C170 C -0.00215 0.03239 0.39296 0.0
C171 C 0.01811 0.02649 0.4083 0.0
C172 C 0.10399 0.02325 0.45558 0.0
C173 C 0.10603 0.04809 0.44632 0.0
C174 C 0.12885 0.06377 0.44927 0.0
C175 C 0.15 0.05475 0.46125 0.0
C176 C 0.14854 0.02953 0.46923 0.0
C177 C 0.12568 0.01392 0.46653 0.0
C178 C 0.04806 0.95373 0.49043 0.0
C179 C 0.06866 0.94611 0.5047 0.0
C180 C 0.22095 0.78975 0.88842 0.0
C181 C 0.2 0.8039 0.89425 0.0
C182 C 0.17961 0.80343 0.87691 0.0
C183 C 0.18052 0.7895 0.85354 0.0
H184 H 0.14222 0.77364 0.78614 0.0
H185 H 0.11116 0.78128 0.75343 0.0
H186 H 0.16147 0.75411 0.69497 0.0
H187 H 0.19274 0.74573 0.72786 0.0
H188 H 0.22858 0.70001 0.75207 0.0
H189 H 0.25641 0.66466 0.74784 0.0
H190 H 0.28565 0.68349 0.82391 0.0
H191 H 0.25822 0.71882 0.82845 0.0
H192 H 0.23841 0.76518 0.86101 0.0
H193 H 0.23684 0.79004 0.90169 0.0
H194 H 0.16334 0.81435 0.88122 0.0
H195 H 0.16468 0.78978 0.84031 0.0
N196 N 0.18698 0.76631 0.80307 0.0
N197 N 0.20614 0.73684 0.77553 0.0
N198 N 0.22099 0.7447 0.81767 0.0
C199 C 0.18833 0.75403 0.77975 0.0
C200 C 0.22253 0.73203 0.79452 0.0
C201 C 0.20328 0.76186 0.82209 0.0
C202 C 0.16992 0.75896 0.75959 0.0
C203 C 0.14682 0.76931 0.76635 0.0
C204 C 0.12902 0.77371 0.7477 0.0
C205 C 0.13403 0.76815 0.72189 0.0
C206 C 0.15729 0.75837 0.71488 0.0
C207 C 0.17502 0.75353 0.73365 0.0
C208 C 0.24094 0.71216 0.7907 0.0
C209 C 0.24113 0.69687 0.76782 0.0
C210 C 0.257 0.67669 0.76531 0.0
C211 C 0.27287 0.67152 0.78563 0.0
C212 C 0.27345 0.68725 0.80808 0.0
C213 C 0.25767 0.7074 0.81061 0.0
C214 C 0.20176 0.77565 0.8473 0.0
C215 C 0.22179 0.77561 0.86518 0.0
C216 C 0.98053 0.6492 0.53619 0.0
C217 C 0.95844 0.65907 0.54636 0.0
C218 C 0.93473 0.64468 0.54341 0.0
C219 C 0.93327 0.62023 0.53122 0.0
H220 H 0.89002 0.55173 0.53163 0.0
H221 H 0.85216 0.52226 0.53786 0.0
H222 H 0.88706 0.46218 0.49477 0.0
H223 H 0.92512 0.49144 0.48821 0.0
H224 H 0.9822 0.50387 0.46601 0.0
H225 H 0.01262 0.49218 0.43288 0.0
H226 H 0.03512 0.57235 0.42372 0.0
H227 H 0.00525 0.58428 0.45706 0.0
H228 H 0.99644 0.61761 0.5163 0.0
H229 H -0.00104 0.66015 0.53831 0.0
H230 H 0.9175 0.65216 0.55106 0.0
H231 H 0.91478 0.60931 0.52957 0.0
N232 N 0.93416 0.56662 0.51462 0.0
N233 N 0.95165 0.53526 0.4881 0.0
N234 N 0.97275 0.57655 0.49346 0.0
C235 C 0.93284 0.54229 0.50409 0.0
C236 C 0.97163 0.55232 0.48265 0.0
C237 C 0.95409 0.58379 0.5095 0.0
C238 C 0.9106 0.52401 0.50926 0.0
C239 C 0.88984 0.53221 0.52362 0.0
C240 C 0.86819 0.51544 0.52727 0.0
C241 C 0.86699 0.49021 0.51675 0.0
C242 C 0.88783 0.48166 0.50302 0.0
C243 C 0.90948 0.49844 0.49926 0.0
C244 C 0.99121 0.54501 0.46406 0.0
C245 C 0.99378 0.51901 0.4571 0.0
C246 C 0.01114 0.51228 0.43827 0.0
C247 C 0.02587 0.53144 0.42584 0.0
C248 C 0.02384 0.55734 0.43314 0.0
C249 C 0.00678 0.56409 0.45221 0.0
C250 C 0.95545 0.61005 0.5214 0.0
C251 C 0.97903 0.62494 0.52363 0.0
C252 C 0.89159 0.83155 0.77376 0.0
C253 C 0.8884 0.84026 0.74928 0.0
C254 C 0.86646 0.85241 0.74346 0.0
C255 C 0.84718 0.85458 0.76157 0.0
H256 H 0.77442 0.87538 0.76984 0.0
H257 H 0.73528 0.8915 0.75765 0.0
H258 H 0.69912 0.86129 0.82533 0.0
H259 H 0.73847 0.84532 0.83713 0.0
H260 H 0.76816 0.80822 0.8697 0.0
H261 H 0.76932 0.77699 0.90261 0.0
H262 H 0.85106 0.7768 0.89426 0.0
H263 H 0.8503 0.80797 0.86117 0.0
H264 H 0.87493 0.82588 0.81033 0.0
H265 H 0.90847 0.82209 0.77844 0.0
H266 H 0.86379 0.85918 0.72456 0.0
H267 H 0.83 0.86316 0.75618 0.0
N268 N 0.80517 0.85238 0.79695 0.0
N269 N 0.78576 0.83598 0.83354 0.0
N270 N 0.82882 0.83018 0.8251 0.0
C271 C 0.7842 0.84903 0.81196 0.0
C272 C 0.80805 0.8266 0.84031 0.0
C273 C 0.82758 0.84309 0.80343 0.0
C274 C 0.75957 0.85837 0.80414 0.0
C275 C 0.75776 0.87141 0.78164 0.0
C276 C 0.73458 0.88016 0.77421 0.0
C277 C 0.71193 0.87546 0.78851 0.0
C278 C 0.71449 0.86337 0.81181 0.0
C279 C 0.73769 0.85463 0.81922 0.0
C280 C 0.80911 0.81043 0.86255 0.0
C281 C 0.78649 0.80192 0.87507 0.0
C282 C 0.78707 0.78409 0.89389 0.0
C283 C 0.81025 0.77468 0.90064 0.0
C284 C 0.83304 0.78398 0.8892 0.0
C285 C 0.83249 0.80171 0.87026 0.0
C286 C 0.84955 0.84449 0.78572 0.0
C287 C 0.87234 0.83367 0.79188 0.0
C288 C 0.38259 0.32423 0.25726 0.0
C289 C 0.37955 0.33553 0.23398 0.0
C290 C 0.35815 0.34921 0.22997 0.0
C291 C 0.3394 0.35066 0.24874 0.0
H292 H 0.26739 0.37336 0.26124 0.0
H293 H 0.22867 0.39211 0.2524 0.0
H294 H 0.19661 0.3644 0.32296 0.0
H295 H 0.23551 0.34581 0.3314 0.0
H296 H 0.26846 0.31574 0.36747 0.0
H297 H 0.26939 0.28601 0.40179 0.0
H298 H 0.3423 0.26311 0.37547 0.0
H299 H 0.34179 0.29282 0.34107 0.0
H300 H 0.36654 0.31619 0.29359 0.0
H301 H 0.39906 0.31361 0.26056 0.0
H302 H 0.35562 0.35803 0.21202 0.0
H303 H 0.32272 0.36075 0.24485 0.0
N304 N 0.29873 0.34842 0.2859 0.0
N305 N 0.28122 0.33325 0.32386 0.0
N306 N 0.32281 0.32456 0.31214 0.0
C307 C 0.27885 0.34637 0.30244 0.0
C308 C 0.30317 0.32234 0.32889 0.0
C309 C 0.32082 0.33765 0.29067 0.0
C310 C 0.25446 0.35737 0.29668 0.0
C311 C 0.25164 0.37053 0.27441 0.0
C312 C 0.22862 0.38081 0.26897 0.0
C313 C 0.2071 0.37759 0.28514 0.0
C314 C 0.21084 0.3654 0.30817 0.0
C315 C 0.23384 0.35513 0.31359 0.0
C316 C 0.30493 0.30652 0.35131 0.0
C317 C 0.28489 0.30468 0.36909 0.0
C318 C 0.28539 0.28779 0.38878 0.0
C319 C 0.30588 0.2725 0.39098 0.0
C320 C 0.32639 0.27492 0.37398 0.0
C321 C 0.32599 0.29188 0.35434 0.0
C322 C 0.34181 0.33845 0.2718 0.0
C323 C 0.36392 0.3257 0.27605 0.0
C324 C 0.47016 0.893 0.52105 0.0
C325 C 0.46318 0.89625 0.49573 0.0
C326 C 0.45015 0.91753 0.48984 0.0
C327 C 0.44446 0.93562 0.50909 0.0
H328 H 0.40779 0.00095 0.52291 0.0
H329 H 0.38255 0.03662 0.51394 0.0
H330 H 0.3926 0.06672 0.59165 0.0
H331 H 0.41804 0.03112 0.60102 0.0
H332 H 0.47709 0.93034 0.61683 0.0
H333 H 0.50422 0.9315 0.65502 0.0
H334 H 0.49458 0.01207 0.66868 0.0
H335 H 0.46715 0.01116 0.63085 0.0
H336 H 0.47052 0.90816 0.55961 0.0
H337 H 0.48017 0.87659 0.52585 0.0
H338 H 0.44465 0.92024 0.47032 0.0
H339 H 0.4347 0.95206 0.50395 0.0
N340 N 0.43327 0.97246 0.54997 0.0
N341 N 0.44183 0.99051 0.59127 0.0
N342 N 0.45875 0.952 0.57795 0.0
C343 C 0.43023 0.99139 0.5682 0.0
C344 C 0.45606 0.97081 0.59629 0.0
C345 C 0.44747 0.95266 0.55474 0.0
C346 C 0.41496 0.01308 0.56273 0.0
C347 C 0.40473 0.01509 0.53817 0.0
C348 C 0.39035 0.03548 0.53295 0.0
C349 C 0.38587 0.05417 0.55214 0.0
C350 C 0.39601 0.05241 0.57664 0.0
C351 C 0.41049 0.03204 0.5819 0.0
C352 C 0.47014 0.97073 0.6207 0.0
C353 C 0.4805 0.94826 0.6281 0.0
C354 C 0.49593 0.94881 0.64988 0.0
C355 C 0.50148 0.97191 0.66432 0.0
C356 C 0.4905 0.99413 0.65757 0.0
C357 C 0.47481 0.99353 0.63601 0.0
C358 C 0.45189 0.93275 0.5345 0.0
C359 C 0.46461 0.91109 0.54027 0.0
C360 C 0.26532 0.25873 0.66263 0.0
C361 C 0.24644 0.24103 0.65152 0.0
C362 C 0.22297 0.23637 0.66396 0.0
C363 C 0.21805 0.25005 0.68678 0.0
H364 H 0.16992 0.25217 0.75134 0.0
H365 H 0.13047 0.24422 0.77581 0.0
H366 H 0.14525 0.31775 0.81644 0.0
H367 H 0.18459 0.3259 0.79254 0.0
H368 H 0.22937 0.36318 0.77951 0.0
H369 H 0.25283 0.40545 0.7857 0.0
H370 H 0.30281 0.38705 0.72351 0.0
H371 H 0.27958 0.34464 0.717 0.0
H372 H 0.27503 0.28671 0.69297 0.0
H373 H 0.28356 0.26247 0.65326 0.0
H374 H 0.2082 0.22274 0.65557 0.0
H375 H 0.19947 0.24668 0.69555 0.0
N376 N 0.20966 0.27946 0.73445 0.0
N377 N 0.21759 0.31849 0.75833 0.0
N378 N 0.24429 0.30848 0.72425 0.0
C379 C 0.20334 0.29577 0.75403 0.0
C380 C 0.23806 0.32502 0.74357 0.0
C381 C 0.23026 0.28567 0.71957 0.0
C382 C 0.18038 0.28977 0.76978 0.0
C383 C 0.16493 0.26656 0.76563 0.0
C384 C 0.14243 0.26194 0.77958 0.0
C385 C 0.13504 0.2805 0.79774 0.0
C386 C 0.15072 0.30327 0.80245 0.0
C387 C 0.17319 0.30786 0.78868 0.0
C388 C 0.25259 0.35043 0.74775 0.0
C389 C 0.24535 0.36801 0.7671 0.0
C390 C 0.25863 0.39221 0.77066 0.0
C391 C 0.27934 0.39922 0.75496 0.0
C392 C 0.28673 0.38185 0.73569 0.0
C393 C 0.27347 0.35764 0.73209 0.0
C394 C 0.23645 0.26882 0.6973 0.0
C395 C 0.26034 0.2726 0.68526 0.0
C396 C 0.73985 0.12995 0.75371 0.0
C397 C 0.71442 0.1271 0.74516 0.0
C398 C 0.70545 0.14507 0.72917 0.0
C399 C 0.72176 0.16602 0.7221 0.0
H400 H 0.7252 0.23226 0.68142 0.0
H401 H 0.71274 0.26173 0.64977 0.0
H402 H 0.78949 0.29851 0.65058 0.0
H403 H 0.80218 0.26948 0.68236 0.0
H404 H 0.83854 0.25952 0.7301 0.0
H405 H 0.87678 0.26925 0.75702 0.0
H406 H 0.86139 0.19747 0.79304 0.0
H407 H 0.82338 0.18737 0.76639 0.0
H408 H 0.77561 0.15263 0.75391 0.0
H409 H 0.74698 0.11615 0.76605 0.0
H410 H 0.6858 0.14302 0.72245 0.0
H411 H 0.71427 0.17983 0.71001 0.0
N412 N 0.75701 0.20897 0.70802 0.0
N413 N 0.79579 0.23435 0.71497 0.0
N414 N 0.7874 0.19663 0.73666 0.0
C415 C 0.7727 0.23012 0.7029 0.0
C416 C 0.80324 0.21765 0.73192 0.0
C417 C 0.76433 0.19208 0.72485 0.0
C418 C 0.76476 0.24838 0.68435 0.0
C419 C 0.73945 0.24666 0.67497 0.0
C420 C 0.73223 0.2635 0.65696 0.0
C421 C 0.75026 0.28212 0.64785 0.0
C422 C 0.77536 0.28421 0.65744 0.0
C423 C 0.78255 0.26756 0.67558 0.0
C424 C 0.82769 0.22277 0.74622 0.0
C425 C 0.84343 0.24563 0.7435 0.0
C426 C 0.86528 0.25123 0.75878 0.0
C427 C 0.87168 0.23405 0.77691 0.0
C428 C 0.85664 0.21088 0.77907 0.0
C429 C 0.83488 0.20524 0.76383 0.0
C430 C 0.74721 0.1693 0.73105 0.0
C431 C 0.75611 0.15086 0.74675 0.0
C432 C 0.47273 0.60462 0.63309 0.0
C433 C 0.47389 0.58692 0.6521 0.0
C434 C 0.49492 0.5722 0.65329 0.0
C435 C 0.51428 0.5745 0.63517 0.0
H436 H 0.56715 0.53135 0.6021 0.0
H437 H 0.59482 0.49611 0.59653 0.0
H438 H 0.634 0.53435 0.53528 0.0
H439 H 0.60639 0.56969 0.54042 0.0
H440 H 0.57544 0.61149 0.51222 0.0
H441 H 0.57046 0.64065 0.47779 0.0
H442 H 0.51575 0.68 0.52284 0.0
H443 H 0.52041 0.65118 0.55729 0.0
H444 H 0.49055 0.62046 0.60014 0.0
H445 H 0.45654 0.6161 0.63199 0.0
H446 H 0.49602 0.55846 0.66792 0.0
H447 H 0.53003 0.56247 0.63635 0.0
N448 N 0.54964 0.57441 0.59334 0.0
N449 N 0.56647 0.59192 0.5561 0.0
N450 N 0.53244 0.61017 0.57718 0.0
C451 C 0.56673 0.57402 0.57396 0.0
C452 C 0.54941 0.61013 0.55765 0.0
C453 C 0.53247 0.59244 0.59514 0.0
C454 C 0.58445 0.55338 0.57162 0.0
C455 C 0.58175 0.53245 0.58754 0.0
C456 C 0.59749 0.51227 0.58443 0.0
C457 C 0.61633 0.51278 0.56554 0.0
C458 C 0.61952 0.53378 0.54999 0.0
C459 C 0.60368 0.5539 0.55295 0.0
C460 C 0.54817 0.62883 0.5375 0.0
C461 C 0.56252 0.62649 0.51495 0.0
C462 C 0.55973 0.64307 0.49525 0.0
C463 C 0.54267 0.66227 0.49788 0.0
C464 C 0.52895 0.6652 0.52056 0.0
C465 C 0.53164 0.64864 0.54019 0.0
C466 C 0.51297 0.59165 0.61554 0.0
C467 C 0.49219 0.60704 0.61496 0.0
C468 C 0.57088 0.41682 0.0091 0.0
C469 C 0.54592 0.40542 0.01157 0.0
C470 C 0.52658 0.4116 0.99511 0.0
C471 C 0.53187 0.42971 0.97686 0.0
H472 H 0.50563 0.46183 0.90741 0.0
H473 H 0.47123 0.47561 0.88102 0.0
H474 H 0.50398 0.55404 0.88985 0.0
H475 H 0.53889 0.54035 0.91556 0.0
H476 H 0.59837 0.54783 0.92929 0.0
H477 H 0.6374 0.57616 0.93698 0.0
H478 H 0.67267 0.51528 0.97222 0.0
H479 H 0.6336 0.48674 0.96497 0.0
H480 H 0.59552 0.44408 0.98986 0.0
H481 H 0.58599 0.41215 0.02172 0.0
H482 H 0.50721 0.40284 0.99684 0.0
H483 H 0.51633 0.43456 0.96488 0.0
N484 N 0.54239 0.47063 0.94276 0.0
N485 N 0.56899 0.50587 0.92997 0.0
N486 N 0.58442 0.47772 0.95846 0.0
C487 C 0.54605 0.49176 0.92882 0.0
C488 C 0.58835 0.49884 0.94455 0.0
C489 C 0.56149 0.46353 0.95772 0.0
C490 C 0.525 0.49999 0.91336 0.0
C491 C 0.50549 0.482 0.90372 0.0
C492 C 0.48588 0.48982 0.88868 0.0
C493 C 0.48521 0.5158 0.88348 0.0
C494 C 0.50432 0.5339 0.89358 0.0
C495 C 0.52424 0.52602 0.90815 0.0
C496 C 0.61278 0.51509 0.94676 0.0
C497 C 0.6145 0.54029 0.93839 0.0
C498 C 0.63675 0.55652 0.94273 0.0
C499 C 0.6577 0.54774 0.95523 0.0
C500 C 0.65656 0.52229 0.96258 0.0
C501 C 0.63422 0.5061 0.9585 0.0
C502 C 0.55663 0.4421 0.9749 0.0
C503 C 0.57622 0.43505 0.99089 0.0
C504 C 0.72982 0.29964 0.37607 0.0
C505 C 0.70917 0.31406 0.38235 0.0
C506 C 0.68911 0.31494 0.36486 0.0
C507 C 0.68973 0.30155 0.34118 0.0
H508 H 0.6697 0.30519 0.26287 0.0
H509 H 0.63429 0.31162 0.23427 0.0
H510 H 0.63471 0.23348 0.20387 0.0
H511 H 0.67058 0.22686 0.23229 0.0
H512 H 0.71415 0.19025 0.26118 0.0
H513 H 0.7403 0.15347 0.26173 0.0
H514 H 0.80053 0.20117 0.30132 0.0
H515 H 0.77413 0.23763 0.30174 0.0
H516 H 0.74649 0.27492 0.34819 0.0
H517 H 0.74548 0.29891 0.38945 0.0
H518 H 0.67309 0.3261 0.36951 0.0
H519 H 0.67389 0.30248 0.32807 0.0
N520 N 0.69336 0.27569 0.29156 0.0
N521 N 0.70777 0.2416 0.26614 0.0
N522 N 0.72646 0.25295 0.30634 0.0
C523 C 0.69204 0.2609 0.26948 0.0
C524 C 0.72528 0.23783 0.28446 0.0
C525 C 0.71038 0.27177 0.31013 0.0
C526 C 0.67273 0.2654 0.25003 0.0
C527 C 0.66252 0.28942 0.24989 0.0
C528 C 0.64239 0.29321 0.2335 0.0
C529 C 0.6319 0.27298 0.21716 0.0
C530 C 0.64268 0.24929 0.21639 0.0
C531 C 0.66311 0.24556 0.23261 0.0
C532 C 0.7421 0.21666 0.28157 0.0
C533 C 0.73311 0.19292 0.26967 0.0
C534 C 0.74797 0.17194 0.27002 0.0
C535 C 0.77224 0.17461 0.28172 0.0
C536 C 0.78179 0.19872 0.29233 0.0
C537 C 0.7667 0.21947 0.29258 0.0
C538 C 0.71032 0.28684 0.33477 0.0
C539 C 0.73035 0.28602 0.35251 0.0
C540 C 0.48199 0.14365 0.03069 0.0
C541 C 0.45989 0.15421 0.03993 0.0
C542 C 0.43603 0.14011 0.03693 0.0
C543 C 0.43441 0.11529 0.0256 0.0
H544 H 0.39045 0.04747 0.02802 0.0
H545 H 0.35211 0.0189 0.03487 0.0
H546 H 0.3856 0.95724 0.99283 0.0
H547 H 0.42419 0.98562 0.98566 0.0
H548 H 0.48375 0.99626 0.96625 0.0
H549 H 0.51453 0.98333 0.93389 0.0
H550 H 0.53627 0.06295 0.92109 0.0
H551 H 0.50619 0.07609 0.95366 0.0
H552 H 0.49776 0.11113 0.01235 0.0
H553 H 0.50055 0.15436 0.0329 0.0
H554 H 0.4188 0.14811 0.0439 0.0
H555 H 0.4158 0.10462 0.02388 0.0
N556 N 0.43467 0.06117 0.01078 0.0
N557 N 0.45219 0.0287 0.98571 0.0
N558 N 0.47391 0.06976 0.99039 0.0
C559 C 0.43312 0.03656 0.00097 0.0
C560 C 0.47261 0.04525 0.98031 0.0
C561 C 0.45503 0.07782 0.00567 0.0
C562 C 0.41042 0.01889 0.00617 0.0
C563 C 0.38985 0.02781 0.02031 0.0
C564 C 0.36791 0.01156 0.0243 0.0
C565 C 0.36619 0.98613 0.01432 0.0
C566 C 0.38675 0.9769 0.00064 0.0
C567 C 0.40872 0.99316 0.99656 0.0
C568 C 0.49243 0.03719 0.96238 0.0
C569 C 0.49528 0.011 0.95672 0.0
C570 C 0.51285 0.00358 0.93835 0.0
C571 C 0.52739 0.02223 0.92505 0.0
C572 C 0.52512 0.04833 0.93117 0.0
C573 C 0.50793 0.05577 0.9498 0.0
C574 C 0.45659 0.10442 0.01671 0.0
C575 C 0.48034 0.11899 0.01898 0.0
O576 O 0.22703 0.85633 0.00411 0.0
Cd577 Cd 0.24162 0.87379 0.03763 0.0
Cd578 Cd 0.2148 0.91344 0.02182 0.0
O579 O 0.204 0.88727 0.99233 0.0
O580 O 0.25659 0.84549 0.05453 0.0
O581 O 0.22528 0.86658 0.0715 0.0
C582 C 0.24098 0.84897 0.07304 0.0
C583 C 0.18417 0.93766 0.04061 0.0
C584 C 0.21203 0.86518 0.98842 0.0
C585 C 0.27189 0.92301 0.02685 0.0
O586 O 0.25103 0.93164 0.02044 0.0
O587 O 0.27229 0.90059 0.03487 0.0
O588 O 0.19226 0.9416 0.0179 0.0
O589 O 0.193 0.91942 0.05276 0.0
O590 O 0.15961 0.53051 0.29886 0.0
Cd591 Cd 0.13576 0.49937 0.30903 0.0
Cd592 Cd 0.10022 0.52269 0.28373 0.0
O593 O 0.1305 0.54886 0.27728 0.0
O594 O 0.1577 0.47141 0.31623 0.0
O595 O 0.13011 0.46945 0.28383 0.0
C596 C 0.14745 0.45911 0.29631 0.0
C597 C 0.07648 0.5058 0.24882 0.0
C598 C 0.15326 0.54842 0.28535 0.0
C599 C 0.0904 0.51448 0.33885 0.0
O600 O 0.08286 0.52393 0.31865 0.0
O601 O 0.11094 0.50322 0.33917 0.0
O602 O 0.07386 0.52874 0.25805 0.0
O603 O 0.09253 0.49224 0.25947 0.0
O604 O 0.77933 0.69527 0.98496 0.0
Cd605 Cd 0.76451 0.66949 0.01042 0.0
Cd606 Cd 0.79801 0.63987 0.98752 0.0
O607 O 0.80876 0.67197 0.96779 0.0
O608 O 0.7456 0.69046 0.03534 0.0
O609 O 0.77856 0.66925 0.04602 0.0
C610 C 0.76103 0.68418 0.05264 0.0
C611 C 0.82659 0.61896 0.01053 0.0
C612 C 0.79751 0.69256 0.96937 0.0
C613 C 0.74298 0.62094 0.98297 0.0
O614 O 0.76562 0.61739 0.97598 0.0
O615 O 0.7384 0.64035 0.99724 0.0
O616 O 0.82604 0.61672 0.98593 0.0
O617 O 0.81184 0.63434 0.02212 0.0
O618 O 0.90479 0.03532 0.29896 0.0
Cd619 Cd 0.88511 0.03743 0.26533 0.0
Cd620 Cd 0.84773 0.04736 0.29792 0.0
O621 O 0.87459 0.04511 0.32625 0.0
O622 O 0.9123 0.03703 0.23911 0.0
O623 O 0.88853 0.0698 0.24596 0.0
C624 C 0.90673 0.0596 0.23365 0.0
C625 C 0.828 0.08471 0.29284 0.0
C626 C 0.89722 0.03923 0.3217 0.0
C627 C 0.83924 -0.00055 0.26463 0.0
O628 O 0.83049 0.01316 0.28271 0.0
O629 O 0.86041 0.00618 0.2542 0.0
O630 O 0.82024 0.06892 0.30986 0.0
O631 O 0.84737 0.0794 0.27891 0.0
O632 O 0.27303 0.20002 0.48091 0.0
Cd633 Cd 0.2593 0.1768 0.50907 0.0
Cd634 Cd 0.29253 0.14552 0.48863 0.0
O635 O 0.30325 0.17601 0.46661 0.0
O636 O 0.24147 0.1991 0.53372 0.0
O637 O 0.27577 0.1795 0.54373 0.0
C638 C 0.25815 0.19426 0.5505 0.0
C639 C 0.32176 0.12592 0.51224 0.0
C640 C 0.29149 0.19623 0.46594 0.0
C641 C 0.23726 0.12665 0.48563 0.0
O642 O 0.2598 0.12262 0.47866 0.0
O643 O 0.23293 0.14684 0.49881 0.0
O644 O 0.32017 0.12187 0.48781 0.0
O645 O 0.30764 0.14227 0.52323 0.0
O646 O 0.4073 0.52833 0.79274 0.0
Cd647 Cd 0.38416 0.53151 0.76168 0.0
Cd648 Cd 0.35313 0.54769 0.79744 0.0
O649 O 0.38462 0.549 0.8212 0.0
O650 O 0.40762 0.52916 0.73218 0.0
O651 O 0.38781 0.564 0.74273 0.0
C652 C 0.40367 0.55259 0.72824 0.0
C653 C 0.33191 0.58388 0.79148 0.0
C654 C 0.40453 0.53782 0.81522 0.0
C655 C 0.33727 0.49753 0.77004 0.0
O656 O 0.33355 0.51233 0.78938 0.0
O657 O 0.35559 0.50266 0.75487 0.0
O658 O 0.32832 0.57117 0.81178 0.0
O659 O 0.34793 0.57623 0.77464 0.0
O660 O 0.73087 0.35914 0.4965 0.0
Cd661 Cd 0.74297 0.37509 0.53155 0.0
Cd662 Cd 0.71662 0.4147 0.51673 0.0
O663 O 0.70772 0.39024 0.48542 0.0
O664 O 0.75606 0.34618 0.5491 0.0
O665 O 0.72361 0.36718 0.56368 0.0
C666 C 0.73893 0.34937 0.56625 0.0
C667 C 0.6848 0.43731 0.53552 0.0
C668 C 0.71651 0.36863 0.48064 0.0
C669 C 0.7733 0.42503 0.52473 0.0
O670 O 0.75259 0.4336 0.51779 0.0
O671 O 0.77368 0.40222 0.53174 0.0
O672 O 0.6938 0.44272 0.51347 0.0
O673 O 0.69335 0.41845 0.54693 0.0
O674 O 0.65607 0.026 0.7934 0.0
Cd675 Cd 0.63522 0.99361 0.80533 0.0
Cd676 Cd 0.59653 0.01315 0.78126 0.0
O677 O 0.62454 0.04083 0.77205 0.0
O678 O 0.65964 0.96781 0.81214 0.0
O679 O 0.63034 0.96272 0.78117 0.0
C680 C 0.64901 0.95408 0.79326 0.0
C681 C 0.57042 0.99504 0.74853 0.0
C682 C 0.64773 0.04254 0.77935 0.0
C683 C 0.59064 0.0059 0.83727 0.0
O684 O 0.58143 0.01424 0.81724 0.0
O685 O 0.61202 0.99616 0.83682 0.0
O686 O 0.56723 0.01757 0.75848 0.0
O687 O 0.58844 0.9825 0.75724 0.0
O688 O 0.96978 0.28421 0.9226 0.0
Cd689 Cd 0.97693 0.25164 0.90102 0.0
Cd690 Cd 0.0008 0.2853 0.87166 0.0
O691 O -0.00229 0.31023 0.90306 0.0
O692 O 0.97365 0.22303 0.92461 0.0
O693 O 0.01028 0.23672 0.90669 0.0
C694 C -0.00198 0.22183 0.9222 0.0
C695 C 0.03995 0.2809 0.85235 0.0
C696 C 0.98202 0.30608 0.9211 0.0
C697 C 0.95331 0.25639 0.85061 0.0
O698 O 0.96901 0.27605 0.84888 0.0
O699 O 0.95433 0.24203 0.86931 0.0
O700 O 0.02757 0.30077 0.84907 0.0
O701 O 0.03035 0.26366 0.86712 0.0
O702 O 0.48384 0.79579 0.42533 0.0
Cd703 Cd 0.49101 0.76279 0.40428 0.0
Cd704 Cd 0.51128 0.79727 0.37265 0.0
O705 O 0.50347 0.82426 0.40076 0.0
O706 O 0.48624 0.73491 0.42862 0.0
O707 O 0.52349 0.74626 0.41071 0.0
C708 C 0.51033 0.73215 0.42624 0.0
C709 C 0.55231 0.79396 0.35748 0.0
C710 C 0.49101 0.81891 0.4208 0.0
C711 C 0.46604 0.76358 0.35325 0.0
O712 O 0.48147 0.78294 0.3493 0.0
O713 O 0.46723 0.75166 0.37363 0.0
O714 O 0.53854 0.8115 0.34996 0.0
O715 O 0.54298 0.77875 0.37436 0.0
O716 O 0.976 0.79884 0.67508 0.0
Cd717 Cd 0.002 0.78374 0.6502 0.0
Cd718 Cd 0.97787 0.8111 0.61727 0.0
O719 O 0.95686 0.82218 0.64811 0.0
O720 O 0.025 0.76707 0.673 0.0
O721 O 0.0386 0.7988 0.64878 0.0
C722 C 0.04355 0.78239 0.66526 0.0
C723 C 0.00173 0.8413 0.59522 0.0
C724 C 0.95942 0.81431 0.67033 0.0
C725 C 0.9755 0.75535 0.60477 0.0
O726 O 0.96746 0.77639 0.59864 0.0
O727 O 0.98966 0.75441 0.62429 0.0
O728 O 0.97728 0.8376 0.59193 0.0
O729 O 0.01276 0.82808 0.6115 0.0
O730 O 0.4694 0.29643 0.16381 0.0
Cd731 Cd 0.49822 0.28179 0.14225 0.0
Cd732 Cd 0.47697 0.30812 0.10634 0.0
O733 O 0.45408 0.32072 0.13516 0.0
O734 O 0.51914 0.26589 0.16763 0.0
O735 O 0.53426 0.29839 0.14506 0.0
C736 C 0.53792 0.28204 0.16201 0.0
C737 C 0.50249 0.33669 0.08378 0.0
C738 C 0.45391 0.3124 0.15744 0.0
C739 C 0.47559 0.25209 0.09579 0.0
O740 O 0.46724 0.2727 0.08882 0.0
O741 O 0.48907 0.25196 0.11589 0.0
O742 O 0.47819 0.33314 0.07939 0.0
O743 O 0.51238 0.32443 0.10159 0.0
C744 C 0.19105 0.81016 0.94101 0.0
C745 C 0.20031 0.82046 0.91799 0.0
C746 C 0.21633 0.86048 0.94104 0.0
C747 C 0.20622 0.85061 0.96397 0.0
N748 N 0.18015 0.81838 0.98548 0.0
N749 N 0.21717 0.85673 0.89486 0.0
C750 C 0.19242 0.82609 0.96387 0.0
C751 C 0.21139 0.8461 0.91763 0.0
N752 N 0.18156 0.785 0.94107 0.0
N753 N 0.23202 0.88279 0.94179 0.0
H754 H 0.21464 0.84653 0.87729 0.0
H755 H 0.22249 0.8762 0.89319 0.0
H756 H 0.23646 0.89392 0.95852 0.0
H757 H 0.24244 0.88928 0.92619 0.0
H758 H 0.17724 0.77545 0.95762 0.0
H759 H 0.17937 0.77311 0.92448 0.0
H760 H 0.16773 0.80183 0.9861 0.0
H761 H 0.18072 0.82973 0.00247 0.0
C762 C 0.03186 0.51452 0.38081 0.0
C763 C 0.04275 0.52464 0.40437 0.0
C764 C 0.08529 0.52821 0.38509 0.0
C765 C 0.07462 0.51637 0.36206 0.0
N766 N 0.03902 0.4922 0.34025 0.0
N767 N 0.08025 0.53556 0.43069 0.0
C768 C 0.04826 0.50765 0.36061 0.0
C769 C 0.06965 0.5297 0.40707 0.0
N770 N 0.0059 0.51258 0.37724 0.0
N771 N 0.10985 0.53936 0.38566 0.0
H772 H 0.06931 0.53661 0.44725 0.0
H773 H 0.09991 0.53693 0.43413 0.0
H774 H 0.12182 0.53942 0.36982 0.0
H775 H 0.11758 0.55064 0.40119 0.0
H776 H 0.99721 0.508 0.35953 0.0
H777 H 0.9931 0.51782 0.39137 0.0
H778 H 0.02048 0.48327 0.33944 0.0
H779 H 0.05063 0.48608 0.3254 0.0
C780 C 0.81399 0.7587 0.94466 0.0
C781 C 0.81012 0.75338 0.91811 0.0
C782 C 0.79919 0.70787 0.925 0.0
C783 C 0.80399 0.71295 0.9515 0.0
N784 N 0.82063 0.74171 0.9861 0.0
N785 N 0.80452 0.72265 0.88222 0.0
C786 C 0.81282 0.73797 0.96121 0.0
C787 C 0.80456 0.72783 0.90804 0.0
N788 N 0.81801 0.78359 0.95407 0.0
N789 N 0.78796 0.6845 0.91619 0.0
H790 H 0.8078 0.73686 0.86911 0.0
H791 H 0.80343 0.70409 0.87383 0.0
H792 H 0.78329 0.66934 0.92791 0.0
H793 H 0.78121 0.68075 0.89758 0.0
H794 H 0.81803 0.78898 0.97345 0.0
H795 H 0.81977 0.79915 0.94237 0.0
H796 H 0.82954 0.75895 0.99378 0.0
H797 H 0.82022 0.72683 -0.00138 0.0
C798 C 0.94122 0.04915 0.37989 0.0
C799 C 0.95221 0.02523 0.37877 0.0
C800 C 0.92295 0.00934 0.34407 0.0
C801 C 0.91446 0.03428 0.34284 0.0
N802 N 0.917 0.07882 0.35777 0.0
N803 N 0.95638 0.98375 0.35741 0.0
C804 C 0.92381 0.05444 0.3604 0.0
C805 C 0.94379 0.00558 0.36027 0.0
N806 N 0.94708 0.06654 0.39983 0.0
N807 N 0.91056 0.98907 0.33029 0.0
H808 H 0.97192 0.98023 0.36876 0.0
H809 H 0.95287 0.97014 0.34233 0.0
H810 H 0.89472 0.99099 0.3187 0.0
H811 H 0.91425 0.97003 0.33238 0.0
H812 H 0.93775 0.0832 0.40313 0.0
H813 H 0.95981 0.06326 0.41437 0.0
H814 H 0.92542 0.09485 0.36817 0.0
H815 H 0.90419 0.08338 0.34381 0.0
C816 C 0.25078 0.24412 0.60424 0.0
C817 C 0.25053 0.22889 0.62584 0.0
C818 C 0.25483 0.1904 0.59801 0.0
C819 C 0.25718 0.20604 0.57668 0.0
N820 N 0.26362 0.24835 0.56033 0.0
N821 N 0.25706 0.18856 0.64403 0.0
C822 C 0.25698 0.23309 0.58004 0.0
C823 C 0.25402 0.2023 0.62296 0.0
N824 N 0.24411 0.26885 0.60663 0.0
N825 N 0.25204 0.16423 0.59443 0.0
H826 H 0.2565 0.19668 0.6626 0.0
H827 H 0.26235 0.16979 0.64309 0.0
H828 H 0.25208 0.15472 0.57647 0.0
H829 H 0.24746 0.15199 0.60907 0.0
H830 H 0.24126 0.27984 0.59105 0.0
H831 H 0.23905 0.27764 0.62397 0.0
H832 H 0.26631 0.26831 0.56246 0.0
H833 H 0.2691 0.24104 0.54247 0.0
C834 C 0.43199 0.56391 0.66354 0.0
C835 C 0.45255 0.58248 0.6702 0.0
C836 C 0.43813 0.585 0.71451 0.0
C837 C 0.41792 0.56598 0.70796 0.0
N838 N 0.39148 0.54218 0.67588 0.0
N839 N 0.47194 0.61522 0.69974 0.0
C840 C 0.41352 0.55703 0.68227 0.0
C841 C 0.45446 0.5946 0.69498 0.0
N842 N 0.43083 0.55204 0.63967 0.0
N843 N 0.44269 0.59269 0.73954 0.0
H844 H 0.48432 0.62243 0.68579 0.0
H845 H 0.47273 0.6265 0.71671 0.0
H846 H 0.4309 0.58646 0.75435 0.0
H847 H 0.45895 0.60405 0.74589 0.0
H848 H 0.4182 0.53616 0.63455 0.0
H849 H 0.44354 0.55719 0.62517 0.0
H850 H 0.38588 0.53691 0.65717 0.0
H851 H 0.37755 0.53707 0.6893 0.0
C852 C 0.74189 0.32565 0.6335 0.0
C853 C 0.74333 0.29904 0.62755 0.0
C854 C 0.73418 0.30547 0.58271 0.0
C855 C 0.73706 0.33242 0.58797 0.0
N856 N 0.746 0.36862 0.61808 0.0
N857 N 0.74358 0.26369 0.59604 0.0
C858 C 0.74119 0.34271 0.61335 0.0
C859 C 0.73996 0.28887 0.60205 0.0
N860 N 0.74098 0.33451 0.65843 0.0
N861 N 0.72547 0.29575 0.55929 0.0
H862 H 0.74799 0.25082 0.60957 0.0
H863 H 0.74429 0.25604 0.57735 0.0
H864 H 0.72054 0.30744 0.54485 0.0
H865 H 0.72063 0.27626 0.5551 0.0
H866 H 0.73739 0.35328 0.66396 0.0
H867 H 0.74142 0.32245 0.67361 0.0
H868 H 0.75211 0.37693 0.63575 0.0
H869 H 0.74581 0.38183 0.6039 0.0
C870 C 0.5104 0.97235 0.71125 0.0
C871 C 0.51976 0.97342 0.68596 0.0
C872 C 0.56338 0.98503 0.70191 0.0
C873 C 0.55392 0.98437 0.72716 0.0
N874 N 0.52034 0.97235 0.7565 0.0
N875 N 0.55524 0.9757 0.65671 0.0
C876 C 0.52796 0.97639 0.73202 0.0
C877 C 0.54636 0.97799 0.68115 0.0
N878 N 0.48464 0.96825 0.71531 0.0
N879 N 0.5883 0.99378 0.69778 0.0
H880 H 0.54324 0.9716 0.64089 0.0
H881 H 0.57457 0.97601 0.65213 0.0
H882 H 0.60151 -0.00153 0.71253 0.0
H883 H 0.59566 0.99783 0.67991 0.0
H884 H 0.47617 0.97022 0.73314 0.0
H885 H 0.4714 0.96399 0.70051 0.0
H886 H 0.50226 0.96433 0.7613 0.0
H887 H 0.53291 0.97508 0.77204 0.0
C888 C 0.88761 0.25238 0.81944 0.0
C889 C 0.89302 0.24099 0.79513 0.0
C890 C 0.93847 0.24169 0.80645 0.0
C891 C 0.93266 0.25109 0.83145 0.0
N892 N 0.90191 0.26383 0.86282 0.0
N893 N 0.92247 0.22254 0.76572 0.0
C894 C 0.90726 0.25597 0.83827 0.0
C895 C 0.9182 0.23513 0.78863 0.0
N896 N 0.8638 0.26039 0.82421 0.0
N897 N 0.9634 0.23918 0.79978 0.0
H898 H 0.90817 0.21809 0.75196 0.0
H899 H 0.9397 0.21507 0.76086 0.0
H900 H 0.97861 0.24248 0.81271 0.0
H901 H 0.9693 0.23527 0.78117 0.0
H902 H 0.8593 0.27138 0.84042 0.0
H903 H 0.84877 0.25771 0.81103 0.0
H904 H 0.88344 0.2646 0.86987 0.0
H905 H 0.91597 0.2683 0.87681 0.0
C906 C 0.45094 0.85947 0.46427 0.0
C907 C 0.47007 0.87746 0.47534 0.0
C908 C 0.50324 0.85663 0.45118 0.0
C909 C 0.48391 0.83977 0.43879 0.0
N910 N 0.43912 0.82878 0.42923 0.0
N911 N 0.51356 0.89668 0.47577 0.0
C912 C 0.45765 0.84223 0.44409 0.0
C913 C 0.49599 0.87712 0.46768 0.0
N914 N 0.42656 0.85826 0.47362 0.0
N915 N 0.52846 0.85234 0.44819 0.0
H916 H 0.50893 0.91206 0.48786 0.0
H917 H 0.53213 0.8989 0.4687 0.0
H918 H 0.53459 0.8373 0.43656 0.0
H919 H 0.54318 0.86228 0.45895 0.0
H920 H 0.41256 0.84363 0.46824 0.0
H921 H 0.42084 0.87065 0.48833 0.0
H922 H 0.41976 0.83177 0.43054 0.0
H923 H 0.44327 0.81639 0.41384 0.0
C924 C 0.11002 0.27269 0.83761 0.0
C925 C 0.11024 0.277 0.81116 0.0
C926 C 0.06365 0.27783 0.81131 0.0
C927 C 0.06395 0.27754 0.83831 0.0
N928 N 0.08768 0.27723 0.87776 0.0
N929 N 0.08778 0.28686 0.77313 0.0
C930 C 0.08716 0.27535 0.85168 0.0
C931 C 0.08717 0.28026 0.798 0.0
N932 N 0.13161 0.26578 0.84916 0.0
N933 N 0.04085 0.27503 0.79831 0.0
H934 H 0.1046 0.28883 0.76257 0.0
H935 H 0.07189 0.29243 0.76357 0.0
H936 H 0.02319 0.27256 0.80739 0.0
H937 H 0.03954 0.27249 0.77852 0.0
H938 H 0.13199 0.25991 0.8678 0.0
H939 H 0.14864 0.26365 0.83932 0.0
H940 H 0.10453 0.27865 0.88847 0.0
H941 H 0.07142 0.27948 0.8888 0.0
C942 C 0.51983 0.67013 0.45738 0.0
C943 C 0.53804 0.67887 0.47661 0.0
C944 C 0.5405 0.72227 0.46091 0.0
C945 C 0.52237 0.71348 0.44158 0.0
N946 N 0.49965 0.67833 0.41732 0.0
N947 N 0.57011 0.71106 0.49333 0.0
C948 C 0.51358 0.68712 0.43853 0.0
C949 C 0.54988 0.70426 0.4772 0.0
N950 N 0.5077 0.64596 0.4578 0.0
N951 N 0.54754 0.74796 0.46476 0.0
H952 H 0.57721 0.6983 0.50565 0.0
H953 H 0.58125 0.72848 0.49294 0.0
H954 H 0.54115 0.76183 0.4533 0.0
H955 H 0.55826 0.75582 0.48042 0.0
H956 H 0.49204 0.63956 0.44624 0.0
H957 H 0.51223 0.63269 0.47089 0.0
H958 H 0.49475 0.65894 0.41268 0.0
H959 H 0.49505 0.69033 0.40302 0.0
C960 C 0.90055 0.81226 0.71205 0.0
C961 C 0.90667 0.83404 0.72891 0.0
C962 C 0.94829 0.842 0.70833 0.0
C963 C 0.94133 0.82137 0.69038 0.0
N964 N 0.91003 0.78876 0.67265 0.0
N965 N 0.93446 0.87156 0.74175 0.0
C966 C 0.91718 0.80708 0.69148 0.0
C967 C 0.93006 0.84947 0.72671 0.0
N968 N 0.87931 0.79601 0.71629 0.0
N969 N 0.97244 0.85411 0.708 0.0
H970 H 0.9216 0.87734 0.75563 0.0
H971 H 0.94988 0.88509 0.73938 0.0
H972 H 0.98596 0.84962 0.69427 0.0
H973 H 0.97971 0.86742 0.72218 0.0
H974 H 0.8754 0.77826 0.70654 0.0
H975 H 0.86643 0.79924 0.73099 0.0
H976 H 0.89155 0.77987 0.67066 0.0
H977 H 0.92208 0.78362 0.65779 0.0
C978 C 0.02609 0.90536 0.57035 0.0
C979 C 0.03487 0.89695 0.54605 0.0
C980 C 0.02884 0.85214 0.55774 0.0
C981 C 0.01651 0.86042 0.58034 0.0
N982 N 0.00328 0.89423 0.60897 0.0
N983 N 0.04478 0.86291 0.51589 0.0
C984 C 0.01537 0.88689 0.58704 0.0
C985 C 0.03668 0.87048 0.53966 0.0
N986 N 0.02819 0.93101 0.5774 0.0
N987 N 0.0328 0.82676 0.55357 0.0
H988 H 0.05142 0.8759 0.5025 0.0
H989 H 0.04375 0.84388 0.50885 0.0
H990 H 0.02676 0.81281 0.56625 0.0
H991 H 0.04372 0.81971 0.53867 0.0
H992 H 0.02438 0.93836 0.59567 0.0
H993 H 0.03574 0.94502 0.56543 0.0
H994 H -0.00106 0.91297 0.61355 0.0
H995 H 0.9965 0.88121 0.62229 0.0
C996 C 0.10777 0.79772 0.69919 0.0
C997 C 0.11428 0.77235 0.70261 0.0
C998 C 0.07928 0.75559 0.67395 0.0
C999 C 0.06979 0.78021 0.67487 0.0
N1000 N 0.07404 0.82482 0.69009 0.0
N1001 N 0.10481 0.72654 0.69504 0.0
C1002 C 0.08397 0.80149 0.68756 0.0
C1003 C 0.09989 0.75108 0.69019 0.0
N1004 N 0.12437 0.81815 0.70712 0.0
N1005 N 0.06874 0.7366 0.65731 0.0
H1006 H 0.11955 0.72224 0.70702 0.0
H1007 H 0.09294 0.71044 0.68879 0.0
H1008 H 0.05402 0.73955 0.64464 0.0
H1009 H 0.07639 0.71897 0.65416 0.0
H1010 H 0.12178 0.83704 0.70306 0.0
H1011 H 0.14203 0.81589 0.71555 0.0
H1012 H 0.08225 0.84009 0.70171 0.0
H1013 H 0.05651 0.82843 0.68227 0.0
C1014 C 0.95644 0.68529 0.58761 0.0
C1015 C 0.96046 0.68421 0.56086 0.0
C1016 C 0.97443 0.73008 0.56266 0.0
C1017 C 0.9686 0.7315 0.58909 0.0
N1018 N 0.9478 0.71199 0.6251 0.0
N1019 N 0.96736 0.7064 0.52201 0.0
C1020 C 0.95766 0.70955 0.60109 0.0
C1021 C 0.96756 0.70691 0.54807 0.0
N1022 N 0.95266 0.66318 0.60038 0.0
N1023 N 0.98783 0.7502 0.55175 0.0
H1024 H 0.96218 0.68975 0.51071 0.0
H1025 H 0.9699 0.72291 0.51171 0.0
H1026 H 0.99403 0.76731 0.56182 0.0
H1027 H 0.99493 0.74903 0.53323 0.0
H1028 H 0.95242 0.66295 0.62021 0.0
H1029 H 0.95213 0.6449 0.59135 0.0
H1030 H 0.93739 0.697 0.63376 0.0
H1031 H 0.94763 0.72965 0.6353 0.0
C1032 C 0.82479 0.92719 0.25556 0.0
C1033 C 0.79891 0.9258 0.2474 0.0
C1034 C 0.80094 0.97273 0.24653 0.0
C1035 C 0.82585 0.97416 0.25737 0.0
N1036 N 0.86043 0.95317 0.27557 0.0
N1037 N 0.76131 0.94662 0.23667 0.0
C1038 C 0.83763 0.9515 0.26258 0.0
C1039 C 0.78668 0.94842 0.24322 0.0
N1040 N 0.83713 0.90522 0.25648 0.0
N1041 N 0.7913 0.99454 0.23873 0.0
H1042 H 0.75055 0.92908 0.23309 0.0
H1043 H 0.75047 0.96238 0.23624 0.0
H1044 H 0.80135 0.01263 0.24079 0.0
H1045 H 0.77435 0.99455 0.22836 0.0
H1046 H 0.85678 0.90519 0.25939 0.0
H1047 H 0.82811 0.88693 0.25229 0.0
H1048 H 0.86842 0.93739 0.28262 0.0
H1049 H 0.87051 0.97057 0.28126 0.0
C1050 C 0.79229 0.14353 0.30892 0.0
C1051 C 0.78708 0.15186 0.28428 0.0
C1052 C 0.80706 0.11491 0.26496 0.0
C1053 C 0.81487 0.10838 0.28958 0.0
N1054 N 0.82049 0.12085 0.33437 0.0
N1055 N 0.79439 0.14858 0.23888 0.0
C1056 C 0.80911 0.12396 0.31141 0.0
C1057 C 0.79596 0.13849 0.26227 0.0
N1058 N 0.78044 0.15352 0.3299 0.0
N1059 N 0.80887 0.0981 0.24433 0.0
H1060 H 0.78676 0.16603 0.23621 0.0
H1061 H 0.80292 0.14088 0.22262 0.0
H1062 H 0.81568 0.08005 0.24552 0.0
H1063 H 0.80106 0.10094 0.22653 0.0
H1064 H 0.78172 0.1462 0.34791 0.0
H1065 H 0.76721 0.16724 0.3289 0.0
H1066 H 0.8187 0.13337 0.35026 0.0
H1067 H 0.83401 0.10765 0.33679 0.0
C1068 C 0.32527 0.9642 0.99651 0.0
C1069 C 0.34234 0.96943 0.01747 0.0
C1070 C 0.31222 0.94594 0.0452 0.0
C1071 C 0.29621 0.93884 0.02372 0.0
N1072 N 0.28993 0.93661 0.97801 0.0
N1073 N 0.35448 0.962 0.06063 0.0
C1074 C 0.30338 0.9467 -0.00092 0.0
C1075 C 0.33653 0.95932 0.04152 0.0
N1076 N 0.32954 0.97653 0.97438 0.0
N1077 N 0.30376 0.94085 0.06919 0.0
H1078 H 0.37248 0.97178 0.05862 0.0
H1079 H 0.35239 0.9527 0.07766 0.0
H1080 H 0.2859 0.93137 0.07269 0.0
H1081 H 0.31343 0.94798 0.08576 0.0
H1082 H 0.31623 0.97565 0.95953 0.0
H1083 H 0.34544 0.98947 0.97167 0.0
H1084 H 0.29593 0.93955 0.95941 0.0
H1085 H 0.27407 0.92326 0.97898 0.0
C1086 C 0.18075 0.40698 0.26014 0.0
C1087 C 0.18259 0.3902 0.28019 0.0
C1088 C 0.15057 0.41267 0.30393 0.0
C1089 C 0.15563 0.4337 0.28816 0.0
N1090 N 0.17331 0.44993 0.24897 0.0
N1091 N 0.15319 0.36693 0.3073 0.0
C1092 C 0.16954 0.43042 0.2652 0.0
C1093 C 0.16255 0.38976 0.2982 0.0
N1094 N 0.18667 0.39905 0.23589 0.0
N1095 N 0.13495 0.41476 0.32459 0.0
H1096 H 0.16015 0.34967 0.30068 0.0
H1097 H 0.13705 0.36493 0.31882 0.0
H1098 H 0.1248 0.43082 0.32852 0.0
H1099 H 0.13296 0.40094 0.33821 0.0
H1100 H 0.18356 0.40966 0.22007 0.0
H1101 H 0.19165 0.38038 0.23167 0.0
H1102 H 0.18564 0.44908 0.23344 0.0
H1103 H 0.16537 0.46746 0.25191 0.0
C1104 C 0.18967 0.08059 0.44757 0.0
C1105 C 0.17299 0.07244 0.46734 0.0
C1106 C 0.20089 0.09662 0.49912 0.0
C1107 C 0.21582 0.10726 0.47916 0.0
N1108 N 0.2223 0.11257 0.43412 0.0
N1109 N 0.16 0.07625 0.51143 0.0
C1110 C 0.20975 0.10004 0.45326 0.0
C1111 C 0.17784 0.08142 0.49301 0.0
N1112 N 0.18664 0.06937 0.42352 0.0
N1113 N 0.20922 0.10024 0.52387 0.0
H1114 H 0.14263 0.06542 0.50776 0.0
H1115 H 0.16136 0.0847 0.52986 0.0
H1116 H 0.22642 0.1107 0.52912 0.0
H1117 H 0.20041 0.09071 0.53887 0.0
H1118 H 0.19982 0.07261 0.40896 0.0
H1119 H 0.17209 0.05507 0.41869 0.0
H1120 H 0.21679 0.11 0.41502 0.0
H1121 H 0.23682 0.12725 0.43748 0.0
C1122 C 0.69761 0.08081 0.74125 0.0
C1123 C 0.69703 0.10549 0.75368 0.0
C1124 C 0.66343 0.08904 0.78239 0.0
C1125 C 0.6652 0.06404 0.77105 0.0
N1126 N 0.68548 0.03503 0.74182 0.0
N1127 N 0.68238 0.13292 0.78802 0.0
C1128 C 0.68281 0.05958 0.75113 0.0
C1129 C 0.6807 0.1096 0.77477 0.0
N1130 N 0.71171 0.07791 0.71953 0.0
N1131 N 0.64504 0.09315 0.80027 0.0
H1132 H 0.69448 0.14859 0.78274 0.0
H1133 H 0.6732 0.13636 0.80527 0.0
H1134 H 0.63297 0.07835 0.80739 0.0
H1135 H 0.64066 0.11132 0.80701 0.0
H1136 H 0.71087 0.0611 0.70794 0.0
H1137 H 0.72297 0.09302 0.71193 0.0
H1138 H 0.69994 0.03012 0.72939 0.0
H1139 H 0.67418 0.0191 0.74778 0.0
C1140 C 0.38141 0.09721 0.5348 0.0
C1141 C 0.36994 0.07524 0.54636 0.0
C1142 C 0.32749 0.09095 0.54187 0.0
C1143 C 0.3386 0.11093 0.5271 0.0
N1144 N 0.37567 0.13395 0.50958 0.0
N1145 N 0.33251 0.05031 0.56083 0.0
C1146 C 0.3655 0.11445 0.52379 0.0
C1147 C 0.34312 0.07207 0.55027 0.0
N1148 N 0.4075 0.10157 0.53459 0.0
N1149 N 0.30196 0.08981 0.54752 0.0
H1150 H 0.34343 0.03648 0.56797 0.0
H1151 H 0.31293 0.0451 0.56134 0.0
H1152 H 0.28957 0.10247 0.54069 0.0
H1153 H 0.29324 0.07748 0.56044 0.0
H1154 H 0.41722 0.11833 0.52858 0.0
H1155 H 0.41961 0.08912 0.54234 0.0
H1156 H 0.39466 0.13587 0.50372 0.0
H1157 H 0.36473 0.1479 0.50272 0.0
C1158 C 0.65594 0.49088 0.57418 0.0
C1159 C 0.6322 0.49085 0.56116 0.0
C1160 C 0.6405 0.45102 0.53707 0.0
C1161 C 0.66562 0.45319 0.54735 0.0
N1162 N 0.69811 0.475 0.57509 0.0
N1163 N 0.60143 0.47154 0.53013 0.0
C1164 C 0.67348 0.47283 0.56609 0.0
C1165 C 0.6242 0.47091 0.54277 0.0
N1166 N 0.66161 0.50819 0.59425 0.0
N1167 N 0.63225 0.42971 0.52212 0.0
H1168 H 0.58853 0.48524 0.53453 0.0
H1169 H 0.59581 0.4594 0.51442 0.0
H1170 H 0.64385 0.41482 0.51781 0.0
H1171 H 0.61344 0.42564 0.51582 0.0
H1172 H 0.6774 0.50767 0.60621 0.0
H1173 H 0.64941 0.52205 0.60022 0.0
H1174 H 0.70607 0.49064 0.58636 0.0
H1175 H 0.71123 0.46167 0.57017 0.0
C1176 C 0.71976 0.35451 0.40906 0.0
C1177 C 0.70894 0.32873 0.40721 0.0
C1178 C 0.69904 0.33081 0.45286 0.0
C1179 C 0.71237 0.35556 0.45517 0.0
N1180 N 0.73864 0.38978 0.43641 0.0
N1181 N 0.68979 0.29126 0.42699 0.0
C1182 C 0.72339 0.36725 0.43349 0.0
C1183 C 0.6989 0.31657 0.42902 0.0
N1184 N 0.72647 0.36686 0.38742 0.0
N1185 N 0.68596 0.3213 0.47331 0.0
H1186 H 0.68847 0.28054 0.40963 0.0
H1187 H 0.68498 0.28041 0.4426 0.0
H1188 H 0.68561 0.33137 0.49099 0.0
H1189 H 0.67377 0.30451 0.47229 0.0
H1190 H 0.73163 0.38651 0.38728 0.0
H1191 H 0.72497 0.35788 0.36919 0.0
H1192 H 0.74969 0.39759 0.42181 0.0
H1193 H 0.74206 0.39977 0.45395 0.0
C1194 C 0.57101 0.02084 0.90593 0.0
C1195 C 0.5442 0.01475 0.90376 0.0
C1196 C 0.54962 0.99686 0.86034 0.0
C1197 C 0.5756 0.00696 0.86103 0.0
N1198 N 0.61044 0.03176 0.88362 0.0
N1199 N 0.50726 0.0004 0.87746 0.0
C1200 C 0.58631 0.01959 0.88368 0.0
C1201 C 0.53326 0.0035 0.88063 0.0
N1202 N 0.58185 0.02759 0.92928 0.0
N1203 N 0.54071 0.98043 0.84057 0.0
H1204 H 0.49442 0.00551 0.8916 0.0
H1205 H 0.49846 0.99495 0.85996 0.0
H1206 H 0.55238 0.97443 0.82572 0.0
H1207 H 0.52255 0.97063 0.84035 0.0
H1208 H 0.60157 0.02984 0.93238 0.0
H1209 H 0.57114 0.02846 0.946 0.0
H1210 H 0.61801 0.04359 0.89885 0.0
H1211 H 0.62212 0.03203 0.86758 0.0
C1212 C 0.2934 0.22738 0.40232 0.0
C1213 C 0.30464 0.2523 0.40974 0.0
C1214 C 0.30883 0.23998 0.45386 0.0
C1215 C 0.29799 0.21491 0.44636 0.0
N1216 N 0.28302 0.18328 0.41329 0.0
N1217 N 0.32676 0.28163 0.44086 0.0
C1218 C 0.2914 0.20811 0.42047 0.0
C1219 C 0.3135 0.25839 0.43504 0.0
N1220 N 0.28362 0.22252 0.37818 0.0
N1221 N 0.31421 0.24622 0.47905 0.0
H1222 H 0.33011 0.29564 0.42755 0.0
H1223 H 0.336 0.28647 0.45822 0.0
H1224 H 0.31254 0.2328 0.49309 0.0
H1225 H 0.31922 0.26485 0.48635 0.0
H1226 H 0.27234 0.2059 0.37238 0.0
H1227 H 0.28541 0.23585 0.36406 0.0
H1228 H 0.28094 0.17635 0.39439 0.0
H1229 H 0.2795 0.16891 0.42616 0.0
C1230 C 0.43879 0.52099 0.87541 0.0
C1231 C 0.46456 0.5239 0.86712 0.0
C1232 C 0.45064 0.54221 0.82802 0.0
C1233 C 0.42478 0.53527 0.83437 0.0
N1234 N 0.39437 0.5139 0.86257 0.0
N1235 N 0.4948 0.53349 0.8335 0.0
C1236 C 0.41878 0.52373 0.85777 0.0
C1237 C 0.4705 0.53362 0.8429 0.0
N1238 N 0.43344 0.51598 0.90022 0.0
N1239 N 0.45624 0.55753 0.80812 0.0
H1240 H 0.50985 0.52668 0.84344 0.0
H1241 H 0.49944 0.53784 0.81484 0.0
H1242 H 0.44213 0.56495 0.79732 0.0
H1243 H 0.47474 0.5651 0.80414 0.0
H1244 H 0.41512 0.51616 0.90786 0.0
H1245 H 0.44767 0.51423 0.9138 0.0
H1246 H 0.3897 0.50285 0.87812 0.0
H1247 H 0.37916 0.51452 0.84987 0.0
C1248 C 0.72884 0.70681 0.11302 0.0
C1249 C 0.74991 0.71929 0.12704 0.0
C1250 C 0.77909 0.70743 0.09286 0.0
C1251 C 0.75816 0.69391 0.07939 0.0
N1252 N 0.7148 0.67438 0.08025 0.0
N1253 N 0.79559 0.72543 0.13368 0.0
C1254 C 0.73354 0.69158 0.09064 0.0
C1255 C 0.77524 0.71756 0.11805 0.0
N1256 N 0.70432 0.71054 0.12019 0.0
N1257 N 0.80217 0.71214 0.08117 0.0
H1258 H 0.79338 0.73266 0.15239 0.0
H1259 H 0.81444 0.72237 0.129 0.0
H1260 H 0.80576 0.70587 0.06245 0.0
H1261 H 0.81709 0.72434 0.08926 0.0
H1262 H 0.68839 0.70417 0.10897 0.0
H1263 H 0.69991 0.72193 0.13622 0.0
H1264 H 0.69724 0.67021 0.08902 0.0
H1265 H 0.71786 0.66223 0.06433 0.0
C1266 C 0.95841 0.10064 0.20071 0.0
C1267 C 0.95618 0.08868 0.17585 0.0
C1268 C 0.91648 0.06426 0.18778 0.0
C1269 C 0.92108 0.07301 0.21348 0.0
N1270 N 0.94584 0.09938 0.24517 0.0
N1271 N 0.93369 0.0589 0.14519 0.0
C1272 C 0.94165 0.09153 0.22014 0.0
C1273 C 0.93513 0.07071 0.16909 0.0
N1274 N 0.97657 0.12063 0.2056 0.0
N1275 N 0.89416 0.04991 0.18137 0.0
H1276 H 0.94659 0.06363 0.13073 0.0
H1277 H 0.92062 0.04339 0.14 0.0
H1278 H 0.88016 0.04501 0.1948 0.0
H1279 H 0.88842 0.04484 0.16265 0.0
H1280 H 0.97783 0.13176 0.22265 0.0
H1281 H 0.98921 0.12748 0.19169 0.0
H1282 H 0.96217 0.11047 0.25177 0.0
H1283 H 0.93341 0.09371 0.25972 0.0
C1284 C 0.24981 0.8267 0.1402 0.0
C1285 C 0.25082 0.79999 0.13453 0.0
C1286 C 0.23814 0.80546 0.09039 0.0
C1287 C 0.24119 0.83249 0.09506 0.0
N1288 N 0.25246 0.86928 0.12385 0.0
N1289 N 0.24896 0.76406 0.10351 0.0
C1290 C 0.24739 0.84331 0.1199 0.0
C1291 C 0.24559 0.78932 0.10946 0.0
N1292 N 0.25086 0.8361 0.16501 0.0
N1293 N 0.22763 0.79525 0.06785 0.0
H1294 H 0.25463 0.75153 0.11683 0.0
H1295 H 0.24825 0.75605 0.0849 0.0
H1296 H 0.22142 0.80658 0.05367 0.0
H1297 H 0.22263 0.77568 0.06432 0.0
H1298 H 0.24766 0.85497 0.17053 0.0
H1299 H 0.25261 0.82441 0.18032 0.0
H1300 H 0.25999 0.87795 0.14087 0.0
H1301 H 0.25103 0.88216 0.10952 0.0
C1302 C 0.05224 0.50002 0.18079 0.0
C1303 C 0.03082 0.48179 0.18292 0.0
C1304 C 0.04031 0.47789 0.22819 0.0
C1305 C 0.06194 0.49579 0.2259 0.0
N1306 N 0.09185 0.51986 0.19962 0.0
N1307 N 0.00675 0.44988 0.20668 0.0
C1308 C 0.06893 0.50563 0.20203 0.0
C1309 C 0.02561 0.46957 0.20605 0.0
N1310 N 0.0561 0.51257 0.15872 0.0
N1311 N 0.03324 0.46976 0.2517 0.0
H1312 H 0.99533 0.44369 0.19087 0.0
H1313 H 0.00362 0.43841 0.22216 0.0
H1314 H 0.04389 0.47507 0.26824 0.0
H1315 H 0.01608 0.45905 0.2552 0.0
H1316 H 0.06946 0.52825 0.15697 0.0
H1317 H 0.0448 0.50836 0.1424 0.0
H1318 H 0.09935 0.52539 0.18221 0.0
H1319 H 0.10454 0.52432 0.21486 0.0
C1320 C 0.42989 0.73693 0.29342 0.0
C1321 C 0.40503 0.74418 0.29931 0.0
C1322 C 0.41988 0.76239 0.34123 0.0
C1323 C 0.44505 0.75632 0.33484 0.0
N1324 N 0.47514 0.74047 0.30442 0.0
N1325 N 0.3765 0.76655 0.32682 0.0
C1326 C 0.45041 0.7444 0.31075 0.0
C1327 C 0.40005 0.75766 0.32269 0.0
N1328 N 0.43365 0.72231 0.27158 0.0
N1329 N 0.41493 0.77256 0.36511 0.0
H1330 H 0.36127 0.76296 0.31395 0.0
H1331 H 0.37237 0.77901 0.34207 0.0
H1332 H 0.42914 0.77786 0.37875 0.0
H1333 H 0.39658 0.77444 0.37209 0.0
H1334 H 0.45056 0.71392 0.26739 0.0
H1335 H 0.41918 0.71717 0.25813 0.0
H1336 H 0.48081 0.73459 0.28621 0.0
H1337 H 0.49045 0.74446 0.31714 0.0
C1338 C 0.97048 0.37163 0.95177 0.0
C1339 C 0.96911 0.36596 0.97789 0.0
C1340 C 0.97958 0.32203 0.9669 0.0
C1341 C 0.97788 0.32681 0.9406 0.0
N1342 N 0.96596 0.35474 0.90808 0.0
N1343 N 0.967 0.33428 0.00984 0.0
C1344 C 0.97176 0.35124 0.933 0.0
C1345 C 0.97209 0.3407 0.98534 0.0
N1346 N 0.97138 0.39652 0.94487 0.0
N1347 N 0.98944 0.30022 0.9744 0.0
H1348 H 0.96091 0.34728 0.02383 0.0
H1349 H 0.96636 0.31547 0.01558 0.0
H1350 H 0.99619 0.28649 0.96158 0.0
H1351 H 0.99344 0.29709 0.99338 0.0
H1352 H 0.97505 0.40185 0.92629 0.0
H1353 H 0.97097 0.41209 0.95807 0.0
H1354 H 0.95887 0.37146 0.90208 0.0
H1355 H 0.96559 0.34007 0.89381 0.0
C1356 C 0.61005 0.76557 0.32628 0.0
C1357 C 0.62477 0.7884 0.3202 0.0
C1358 C 0.59498 0.8138 0.3443 0.0
C1359 C 0.57808 0.79142 0.34654 0.0
N1360 N 0.56779 0.74619 0.33531 0.0
N1361 N 0.62833 0.8348 0.3193 0.0
C1362 C 0.58517 0.76724 0.33657 0.0
C1363 C 0.61654 0.81272 0.32816 0.0
N1364 N 0.61992 0.74232 0.32252 0.0
N1365 N 0.59088 0.83596 0.3581 0.0
H1366 H 0.64353 0.835 0.30652 0.0
H1367 H 0.62129 0.85271 0.32258 0.0
H1368 H 0.57589 0.8372 0.37104 0.0
H1369 H 0.60398 0.85212 0.35885 0.0
H1370 H 0.61095 0.72532 0.3289 0.0
H1371 H 0.63827 0.74045 0.31536 0.0
H1372 H 0.57137 0.72888 0.3258 0.0
H1373 H 0.5489 0.74662 0.34134 0.0
C1374 C 0.01164 0.16214 0.9557 0.0
C1375 C 0.03035 0.17248 0.97383 0.0
C1376 C 0.03007 0.21489 0.95627 0.0
C1377 C 0.01151 0.2045 0.93793 0.0
N1378 N 0.98947 0.16747 0.91595 0.0
N1379 N 0.06193 0.20647 0.98768 0.0
C1380 C 0.00383 0.17783 0.93632 0.0
C1381 C 0.04112 0.19816 0.97281 0.0
N1382 N 0.00052 0.13774 0.9577 0.0
N1383 N 0.03591 0.24087 0.9591 0.0
H1384 H 0.07029 0.19464 0.00013 0.0
H1385 H 0.07229 0.22417 0.98598 0.0
H1386 H 0.02823 0.25395 0.94758 0.0
H1387 H 0.04689 0.24972 0.97415 0.0
H1388 H 0.98461 0.13021 0.94701 0.0
H1389 H 0.00617 0.12542 0.97125 0.0
H1390 H 0.98528 0.1478 0.91235 0.0
H1391 H 0.98378 0.17846 0.90126 0.0
C1392 C 0.39141 0.31227 0.19342 0.0
C1393 C 0.39796 0.33131 0.21315 0.0
C1394 C 0.44134 0.33826 0.19615 0.0
C1395 C 0.43439 0.32007 0.17581 0.0
N1396 N 0.40213 0.29264 0.15239 0.0
N1397 N 0.42715 0.36549 0.23133 0.0
C1398 C 0.40914 0.30808 0.17354 0.0
C1399 C 0.42238 0.34524 0.21394 0.0
N1400 N 0.36874 0.29731 0.19438 0.0
N1401 N 0.46617 0.34848 0.19868 0.0
H1402 H 0.41364 0.371 0.24466 0.0
H1403 H 0.44362 0.37808 0.23135 0.0
H1404 H 0.48029 0.34468 0.18535 0.0
H1405 H 0.47319 0.35952 0.21465 0.0
H1406 H 0.36418 0.28112 0.18232 0.0
H1407 H 0.3551 0.29983 0.20852 0.0
H1408 H 0.38329 0.2858 0.14819 0.0
H1409 H 0.41488 0.28809 0.13795 0.0
C1410 C 0.54115 0.36122 0.02822 0.0
C1411 C 0.53937 0.38802 0.03235 0.0
C1412 C 0.51722 0.38128 0.07278 0.0
C1413 C 0.51839 0.35446 0.06832 0.0
N1414 N 0.53569 0.31884 0.04531 0.0
N1415 N 0.53121 0.42429 0.06048 0.0
C1416 C 0.53191 0.34443 0.04721 0.0
C1417 C 0.52921 0.39829 0.05535 0.0
N1418 N 0.55062 0.35186 0.00566 0.0
N1419 N 0.50392 0.39034 0.09327 0.0
H1420 H 0.53961 0.43728 0.04791 0.0
H1421 H 0.52643 0.43301 0.0779 0.0
H1422 H 0.49619 0.37848 0.10718 0.0
H1423 H 0.49955 0.40933 0.09601 0.0
H1424 H 0.54978 0.33243 6e-05 0.0
H1425 H 0.55831 0.36373 0.99174 0.0
H1426 H 0.54734 0.31061 0.03171 0.0
H1427 H 0.52867 0.30598 0.05867 0.0
C1428 C 0.60888 0.27767 0.17574 0.0
C1429 C 0.60816 0.27608 0.20263 0.0
C1430 C 0.56277 0.28375 0.20265 0.0
C1431 C 0.56266 0.28203 0.1756 0.0
N1432 N 0.58478 0.27369 0.13608 0.0
N1433 N 0.58347 0.27288 0.24133 0.0
C1434 C 0.58553 0.27817 0.16198 0.0
C1435 C 0.58484 0.27783 0.21602 0.0
N1436 N 0.63188 0.27926 0.16345 0.0
N1437 N 0.54208 0.2919 0.2156 0.0
H1438 H 0.5991 0.26801 0.25184 0.0
H1439 H 0.5663 0.27118 0.25131 0.0
H1440 H 0.52582 0.29726 0.20644 0.0
H1441 H 0.54213 0.29597 0.23525 0.0
H1442 H 0.6338 0.28319 0.14427 0.0
H1443 H 0.64933 0.27881 0.17294 0.0
H1444 H 0.6003 0.26794 0.12552 0.0
H1445 H 0.56805 0.27357 0.12529 0.0
C1446 C 0.4696 0.20197 0.04043 0.0
C1447 C 0.462 0.17971 0.05373 0.0
C1448 C 0.45819 0.20617 0.0931 0.0
C1449 C 0.46942 0.22774 0.08071 0.0
N1450 N 0.48966 0.2454 0.04337 0.0
N1451 N 0.45321 0.15988 0.09372 0.0
C1452 C 0.47603 0.22555 0.0545 0.0
C1453 C 0.45733 0.18157 0.08035 0.0
N1454 N 0.47023 0.20067 0.01437 0.0
N1455 N 0.44761 0.20928 0.11674 0.0
H1456 H 0.45294 0.14137 0.08525 0.0
H1457 H 0.45246 0.16023 0.11357 0.0
H1458 H 0.44711 0.22718 0.12639 0.0
H1459 H 0.43697 0.19454 0.12555 0.0
H1460 H 0.47314 0.21683 0.00361 0.0
H1461 H 0.46541 0.18371 0.00343 0.0
H1462 H 0.49732 0.24374 0.02511 0.0
H1463 H 0.49543 0.26281 0.05311 0.0
C1464 C 0.31743 0.42636 0.77272 0.0
C1465 C 0.29385 0.4246 0.7592 0.0
C1466 C 0.29743 0.47125 0.75516 0.0
C1467 C 0.32201 0.47262 0.76668 0.0
N1468 N 0.35691 0.45182 0.78438 0.0
N1469 N 0.26241 0.44425 0.7349 0.0
C1470 C 0.33246 0.45025 0.77486 0.0
C1471 C 0.28404 0.44677 0.74975 0.0
N1472 N 0.325 0.40535 0.78422 0.0
N1473 N 0.28684 0.49335 0.7497 0.0
H1474 H 0.25198 0.42664 0.73077 0.0
H1475 H 0.25576 0.4592 0.72513 0.0
H1476 H 0.2965 0.51154 0.75272 0.0
H1477 H 0.26792 0.49391 0.74385 0.0
H1478 H 0.34049 0.40602 0.79674 0.0
H1479 H 0.31459 0.38742 0.78289 0.0
H1480 H 0.36677 0.43585 0.78771 0.0
H1481 H 0.36811 0.46915 0.78753 0.0
C1482 C 0.27537 0.62403 0.78766 0.0
C1483 C 0.28789 0.64872 0.78426 0.0
C1484 C 0.32966 0.63094 0.78507 0.0
C1485 C 0.31702 0.60607 0.78728 0.0
N1486 N 0.27806 0.57799 0.78429 0.0
N1487 N 0.32616 0.67516 0.7746 0.0
C1488 C 0.28991 0.60233 0.78666 0.0
C1489 C 0.31484 0.65199 0.78131 0.0
N1490 N 0.24976 0.6214 0.79292 0.0
N1491 N 0.35567 0.63468 0.78787 0.0
H1492 H 0.3158 0.69097 0.77181 0.0
H1493 H 0.34537 0.67807 0.76963 0.0
H1494 H 0.3672 0.61979 0.79083 0.0
H1495 H 0.36566 0.65276 0.78931 0.0
H1496 H 0.24028 0.60434 0.79856 0.0
H1497 H 0.23829 0.63677 0.79367 0.0
H1498 H 0.25847 0.57413 0.78108 0.0
H1499 H 0.28811 0.56158 0.78295 0.0
C1500 C 0.83691 0.46212 0.54243 0.0
C1501 C 0.84323 0.47315 0.51891 0.0
C1502 C 0.8053 0.45015 0.49875 0.0
C1503 C 0.79754 0.44129 0.52286 0.0
N1504 N 0.80372 0.44179 0.56847 0.0
N1505 N 0.83141 0.48154 0.47584 0.0
C1506 C 0.81277 0.44799 0.54497 0.0
C1507 C 0.82684 0.46827 0.49737 0.0
N1508 N 0.85423 0.46463 0.5621 0.0
N1509 N 0.79278 0.44041 0.47702 0.0
H1510 H 0.84703 0.49504 0.47402 0.0
H1511 H 0.8185 0.48084 0.46066 0.0
H1512 H 0.77728 0.42655 0.4771 0.0
H1513 H 0.79931 0.44413 0.45874 0.0
H1514 H 0.85185 0.45475 0.57876 0.0
H1515 H 0.87207 0.47498 0.56092 0.0
H1516 H 0.81273 0.44853 0.58551 0.0
H1517 H 0.78599 0.43166 0.57111 0.0
C1518 C 0.66595 0.88571 0.79802 0.0
C1519 C 0.68715 0.88658 0.78138 0.0
C1520 C 0.67329 0.92551 0.76409 0.0
C1521 C 0.65806 0.92882 0.78613 0.0
N1522 N 0.63607 0.91019 0.822 0.0
N1523 N 0.69409 0.89455 0.73719 0.0
C1524 C 0.65285 0.90815 0.80229 0.0
C1525 C 0.68593 0.90266 0.76064 0.0
N1526 N 0.65669 0.86282 0.80705 0.0
N1527 N 0.67681 0.94451 0.74727 0.0
H1528 H 0.70047 0.87626 0.73407 0.0
H1529 H 0.69165 0.90449 0.72077 0.0
H1530 H 0.6675 0.96137 0.74899 0.0
H1531 H 0.69 0.94394 0.73245 0.0
H1532 H 0.63986 0.86051 0.81754 0.0
H1533 H 0.66454 0.84576 0.80127 0.0
H1534 H 0.63379 0.89668 0.83591 0.0
H1535 H 0.62527 0.92595 0.82491 0.0
C1536 C 0.68433 0.57415 0.98815 0.0
C1537 C 0.68016 0.56581 0.96221 0.0
C1538 C 0.71629 0.59502 0.94951 0.0
C1539 C 0.72181 0.60154 0.97565 0.0
N1540 N 0.71483 0.5927 0.01994 0.0
N1541 N 0.69464 0.56454 0.91861 0.0
C1542 C 0.7069 0.58979 0.99503 0.0
C1543 C 0.6969 0.57512 0.94297 0.0
N1544 N 0.6663 0.56794 0.00611 0.0
N1545 N 0.7287 0.60858 0.93098 0.0
H1546 H 0.68067 0.54986 0.91318 0.0
H1547 H 0.70795 0.5687 0.90439 0.0
H1548 H 0.74268 0.62366 0.935 0.0
H1549 H 0.72353 0.60645 0.91176 0.0
H1550 H 0.66716 0.57587 0.02475 0.0
H1551 H 0.64925 0.55676 0.00187 0.0
H1552 H 0.70605 0.58238 0.03444 0.0
H1553 H 0.73175 0.60336 0.02577 0.0
C1554 C 0.1868 0.6149 0.28017 0.0
C1555 C 0.20661 0.6095 0.26283 0.0
C1556 C 0.19151 0.56383 0.2603 0.0
C1557 C 0.17252 0.56906 0.27863 0.0
N1558 N 0.15442 0.59818 0.30932 0.0
N1559 N 0.2305 0.579 0.23898 0.0
C1560 C 0.1708 0.59424 0.2895 0.0
C1561 C 0.2098 0.58397 0.25369 0.0
N1562 N 0.18302 0.63982 0.28731 0.0
N1563 N 0.19133 0.53989 0.24842 0.0
H1564 H 0.24378 0.5934 0.23298 0.0
H1565 H 0.23556 0.56056 0.23412 0.0
H1566 H 0.17842 0.52455 0.25297 0.0
H1567 H 0.20274 0.53557 0.23283 0.0
H1568 H 0.16714 0.64522 0.29749 0.0
H1569 H 0.19492 0.65545 0.28159 0.0
H1570 H 0.15412 0.61554 0.31991 0.0
H1571 H 0.14247 0.58342 0.31668 0.0
C1572 C 0.84646 0.56559 0.05073 0.0
C1573 C 0.87271 0.56604 0.04427 0.0
C1574 C 0.86955 0.60541 0.02159 0.0
C1575 C 0.84266 0.60275 0.02485 0.0
N1576 N 0.80477 0.57918 0.04055 0.0
N1577 N 0.90954 0.58532 0.02276 0.0
C1578 C 0.83089 0.58277 0.03923 0.0
C1579 C 0.88444 0.58582 0.02967 0.0
N1580 N 0.83649 0.54873 0.06789 0.0
N1581 N 0.88082 0.62695 0.01119 0.0
H1582 H 0.92127 0.57171 0.02898 0.0
H1583 H 0.91839 0.59736 0.00965 0.0
H1584 H 0.87034 0.64173 0.00535 0.0
H1585 H 0.90054 0.63131 0.01046 0.0
H1586 H 0.81817 0.54924 0.07544 0.0
H1587 H 0.84733 0.53558 0.07631 0.0
H1588 H 0.79505 0.56314 0.04808 0.0
H1589 H 0.79255 0.59126 0.03244 0.0
C1590 C 0.12396 0.97187 0.04856 0.0
C1591 C 0.13283 0.99283 0.06547 0.0
C1592 C 0.17438 0.97511 0.06949 0.0
C1593 C 0.16562 0.9544 0.05227 0.0
N1594 N 0.13106 0.92958 0.02988 0.0
N1595 N 0.1639 0.01212 0.09613 0.0
C1596 C 0.14001 0.95168 0.04324 0.0
C1597 C 0.15723 0.99364 0.07735 0.0
N1598 N 0.10057 0.97178 0.03694 0.0
N1599 N 0.19944 0.97775 0.07723 0.0
H1600 H 0.15199 0.02633 0.10187 0.0
H1601 H 0.1803 0.01232 0.10738 0.0
H1602 H 0.21231 0.96413 0.07247 0.0
H1603 H 0.20793 0.99399 0.08722 0.0
H1604 H 0.0942 0.95875 0.02216 0.0
H1605 H 0.08786 0.9857 0.04116 0.0
H1606 H 0.11196 0.9252 0.02468 0.0
H1607 H 0.14247 0.91447 0.02585 0.0
loop_
_geom_bond_atom_site_label_1
_geom_bond_atom_site_label_2
_geom_bond_distance
_geom_bond_site_symmetry_2
_ccdc_geom_bond_type
C0 C1 1.384 . S
C0 H13 0.947 . S
C0 C35 1.382 . S
C1 C0 1.384 . S
C1 C2 1.378 . S
C2 C1 1.378 . S
C2 C3 1.378 . S
C2 H14 0.952 . S
C3 C2 1.378 . S
C3 H15 0.950 . S
C3 C34 1.383 . S
H4 C23 0.947 . S
H5 C24 0.946 . S
H6 C26 0.953 . S
H7 C27 0.945 . S
H8 C29 0.952 . S
H9 C30 0.949 . S
H10 C32 0.950 . S
H11 C33 0.948 . S
H12 C35 0.951 . S
H13 C0 0.947 . S
H14 C2 0.952 . S
H15 C3 0.950 . S
N16 C19 1.382 . S
N16 C21 1.363 . S
N17 C19 1.371 . S
N17 C20 1.372 . S
N18 C20 1.361 . S
N18 C21 1.377 . S
C19 N16 1.382 . S
C19 N17 1.371 . S
C19 C22 1.480 . S
C20 N17 1.372 . S
C20 N18 1.361 . S
C20 C28 1.457 . S
C21 N16 1.363 . S
C21 N18 1.377 . S
C21 C34 1.479 . S
C22 C19 1.480 . S
C22 C23 1.383 . S
C22 C27 1.385 . S
C23 H4 0.947 . S
C23 C22 1.383 . S
C23 C24 1.388 . S
C24 H5 0.946 . S
C24 C23 1.388 . S
C24 C25 1.384 . S
C25 C24 1.384 . S
C25 C26 1.377 . S
C26 H6 0.953 . S
C26 C25 1.377 . S
C26 C27 1.369 . S
C27 H7 0.945 . S
C27 C22 1.385 . S
C27 C26 1.369 . S
C28 C20 1.457 . S
C28 C29 1.372 . S
C28 C33 1.364 . S
C29 H8 0.952 . S
C29 C28 1.372 . S
C29 C30 1.389 . S
C30 H9 0.949 . S
C30 C29 1.389 . S
C30 C31 1.387 . S
C31 C30 1.387 . S
C31 C32 1.372 . S
C32 H10 0.950 . S
C32 C31 1.372 . S
C32 C33 1.379 . S
C33 H11 0.948 . S
C33 C28 1.364 . S
C33 C32 1.379 . S
C34 C3 1.383 . S
C34 C21 1.479 . S
C34 C35 1.398 . S
C35 C0 1.382 . S
C35 H12 0.951 . S
C35 C34 1.398 . S
C36 C37 1.384 . S
C36 H49 0.947 . S
C36 C71 1.382 . S
C37 C36 1.384 . S
C37 C38 1.378 . S
C38 C37 1.378 . S
C38 C39 1.378 . S
C38 H50 0.952 . S
C39 C38 1.378 . S
C39 H51 0.950 . S
C39 C70 1.383 . S
H40 C59 0.947 . S
H41 C60 0.946 . S
H42 C62 0.953 . S
H43 C63 0.945 . S
H44 C65 0.952 . S
H45 C66 0.949 . S
H46 C68 0.950 . S
H47 C69 0.948 . S
H48 C71 0.951 . S
H49 C36 0.947 . S
H50 C38 0.952 . S
H51 C39 0.950 . S
N52 C55 1.382 . S
N52 C57 1.363 . S
N53 C55 1.371 . S
N53 C56 1.372 . S
N54 C56 1.361 . S
N54 C57 1.377 . S
C55 N52 1.382 . S
C55 N53 1.371 . S
C55 C58 1.480 . S
C56 N53 1.372 . S
C56 N54 1.361 . S
C56 C64 1.457 . S
C57 N52 1.363 . S
C57 N54 1.377 . S
C57 C70 1.479 . S
C58 C55 1.480 . S
C58 C59 1.383 . S
C58 C63 1.385 . S
C59 H40 0.947 . S
C59 C58 1.383 . S
C59 C60 1.388 . S
C60 H41 0.946 . S
C60 C59 1.388 . S
C60 C61 1.384 . S
C61 C60 1.384 . S
C61 C62 1.377 . S
C62 H42 0.953 . S
C62 C61 1.377 . S
C62 C63 1.369 . S
C63 H43 0.945 . S
C63 C58 1.385 . S
C63 C62 1.369 . S
C64 C56 1.457 . S
C64 C65 1.372 . S
C64 C69 1.364 . S
C65 H44 0.952 . S
C65 C64 1.372 . S
C65 C66 1.389 . S
C66 H45 0.949 . S
C66 C65 1.389 . S
C66 C67 1.387 . S
C67 C66 1.387 . S
C67 C68 1.372 . S
C68 H46 0.950 . S
C68 C67 1.372 . S
C68 C69 1.379 . S
C69 H47 0.948 . S
C69 C64 1.364 . S
C69 C68 1.379 . S
C70 C39 1.383 . S
C70 C57 1.479 . S
C70 C71 1.398 . S
C71 C36 1.382 . S
C71 H48 0.951 . S
C71 C70 1.398 . S
C72 C73 1.384 . S
C72 H85 0.947 . S
C72 C107 1.382 . S
C73 C72 1.384 . S
C73 C74 1.378 . S
C74 C73 1.378 . S
C74 C75 1.378 . S
C74 H86 0.952 1_554 S
C75 C74 1.378 . S
C75 H87 0.950 . S
C75 C106 1.383 . S
H76 C95 0.947 . S
H77 C96 0.946 . S
H78 C98 0.953 . S
H79 C99 0.945 . S
H80 C101 0.952 . S
H81 C102 0.949 . S
H82 C104 0.950 . S
H83 C105 0.948 . S
H84 C107 0.951 . S
H85 C72 0.947 . S
H86 C74 0.952 1_556 S
H87 C75 0.950 . S
N88 C91 1.382 . S
N88 C93 1.363 . S
N89 C91 1.371 . S
N89 C92 1.372 . S
N90 C92 1.361 . S
N90 C93 1.377 . S
C91 N88 1.382 . S
C91 N89 1.371 . S
C91 C94 1.480 . S
C92 N89 1.372 . S
C92 N90 1.361 . S
C92 C100 1.457 . S
C93 N88 1.363 . S
C93 N90 1.377 . S
C93 C106 1.479 . S
C94 C91 1.480 . S
C94 C95 1.383 . S
C94 C99 1.385 . S
C95 H76 0.947 . S
C95 C94 1.383 . S
C95 C96 1.388 . S
C96 H77 0.946 . S
C96 C95 1.388 . S
C96 C97 1.384 . S
C97 C96 1.384 . S
C97 C98 1.377 . S
C98 H78 0.953 . S
C98 C97 1.377 . S
C98 C99 1.369 . S
C99 H79 0.945 . S
C99 C94 1.385 . S
C99 C98 1.369 . S
C100 C92 1.457 . S
C100 C101 1.372 . S
C100 C105 1.364 . S
C101 H80 0.952 . S
C101 C100 1.372 . S
C101 C102 1.389 . S
C102 H81 0.949 . S
C102 C101 1.389 . S
C102 C103 1.387 . S
C103 C102 1.387 . S
C103 C104 1.372 . S
C104 H82 0.950 . S
C104 C103 1.372 . S
C104 C105 1.379 . S
C105 H83 0.948 . S
C105 C100 1.364 . S
C105 C104 1.379 . S
C106 C75 1.383 . S
C106 C93 1.479 . S
C106 C107 1.398 . S
C107 C72 1.382 . S
C107 H84 0.951 . S
C107 C106 1.398 . S
C108 C109 1.384 . S
C108 H121 0.947 . S
C108 C143 1.382 . S
C109 C108 1.384 . S
C109 C110 1.378 . S
C110 C109 1.378 . S
C110 C111 1.378 . S
C110 H122 0.952 . S
C111 C110 1.378 . S
C111 H123 0.950 . S
C111 C142 1.383 . S
H112 C131 0.947 . S
H113 C132 0.946 . S
H114 C134 0.953 . S
H115 C135 0.945 . S
H116 C137 0.952 . S
H117 C138 0.949 . S
H118 C140 0.950 . S
H119 C141 0.948 . S
H120 C143 0.951 . S
H121 C108 0.947 . S
H122 C110 0.952 . S
H123 C111 0.950 . S
N124 C127 1.382 . S
N124 C129 1.363 . S
N125 C127 1.371 . S
N125 C128 1.372 . S
N126 C128 1.361 . S
N126 C129 1.377 . S
C127 N124 1.382 . S
C127 N125 1.371 . S
C127 C130 1.480 . S
C128 N125 1.372 . S
C128 N126 1.361 . S
C128 C136 1.457 . S
C129 N124 1.363 . S
C129 N126 1.377 . S
C129 C142 1.479 . S
C130 C127 1.480 . S
C130 C131 1.383 . S
C130 C135 1.385 . S
C131 H112 0.947 . S
C131 C130 1.383 . S
C131 C132 1.388 . S
C132 H113 0.946 . S
C132 C131 1.388 . S
C132 C133 1.384 . S
C133 C132 1.384 . S
C133 C134 1.377 . S
C134 H114 0.953 . S
C134 C133 1.377 . S
C134 C135 1.369 . S
C135 H115 0.945 . S
C135 C130 1.385 . S
C135 C134 1.369 . S
C136 C128 1.457 . S
C136 C137 1.372 . S
C136 C141 1.364 . S
C137 H116 0.952 . S
C137 C136 1.372 . S
C137 C138 1.389 . S
C138 H117 0.949 . S
C138 C137 1.389 . S
C138 C139 1.387 . S
C139 C138 1.387 . S
C139 C140 1.372 . S
C140 H118 0.950 . S
C140 C139 1.372 . S
C140 C141 1.379 . S
C141 H119 0.948 . S
C141 C136 1.364 . S
C141 C140 1.379 . S
C142 C111 1.383 . S
C142 C129 1.479 . S
C142 C143 1.398 . S
C143 C108 1.382 . S
C143 H120 0.951 . S
C143 C142 1.398 . S
C144 C145 1.384 . S
C144 H157 0.947 . S
C144 C179 1.382 . S
C145 C144 1.384 . S
C145 C146 1.378 . S
C146 C145 1.378 . S
C146 C147 1.378 . S
C146 H158 0.952 . S
C147 C146 1.378 . S
C147 H159 0.950 . S
C147 C178 1.383 . S
H148 C167 0.947 . S
H149 C168 0.946 1_655 S
H150 C170 0.953 1_545 S
H151 C171 0.945 . S
H152 C173 0.952 . S
H153 C174 0.949 . S
H154 C176 0.950 . S
H155 C177 0.948 . S
H156 C179 0.951 . S
H157 C144 0.947 . S
H158 C146 0.952 . S
H159 C147 0.950 . S
N160 C163 1.382 . S
N160 C165 1.363 . S
N161 C163 1.371 . S
N161 C164 1.372 . S
N162 C164 1.361 . S
N162 C165 1.377 . S
C163 N160 1.382 . S
C163 N161 1.371 . S
C163 C166 1.480 . S
C164 N161 1.372 . S
C164 N162 1.361 . S
C164 C172 1.457 . S
C165 N160 1.363 . S
C165 N162 1.377 . S
C165 C178 1.479 . S
C166 C163 1.480 . S
C166 C167 1.383 . S
C166 C171 1.385 . S
C167 H148 0.947 . S
C167 C166 1.383 . S
C167 C168 1.388 . S
C168 H149 0.946 1_455 S
C168 C167 1.388 . S
C168 C169 1.384 . S
C169 C168 1.384 . S
C169 C170 1.377 . S
C170 H150 0.953 1_565 S
C170 C169 1.377 . S
C170 C171 1.369 . S
C171 H151 0.945 . S
C171 C166 1.385 . S
C171 C170 1.369 . S
C172 C164 1.457 . S
C172 C173 1.372 1_565 S
C172 C177 1.364 . S
C173 H152 0.952 . S
C173 C172 1.372 1_545 S
C173 C174 1.389 . S
C174 H153 0.949 . S
C174 C173 1.389 . S
C174 C175 1.387 . S
C175 C174 1.387 . S
C175 C176 1.372 1_545 S
C176 H154 0.950 . S
C176 C175 1.372 1_565 S
C176 C177 1.379 . S
C177 H155 0.948 . S
C177 C172 1.364 . S
C177 C176 1.379 . S
C178 C147 1.383 . S
C178 C165 1.479 . S
C178 C179 1.398 . S
C179 C144 1.382 . S
C179 H156 0.951 . S
C179 C178 1.398 . S
C180 C181 1.384 . S
C180 H193 0.947 . S
C180 C215 1.382 . S
C181 C180 1.384 . S
C181 C182 1.378 . S
C182 C181 1.378 . S
C182 C183 1.378 . S
C182 H194 0.952 . S
C183 C182 1.378 . S
C183 H195 0.950 . S
C183 C214 1.383 . S
H184 C203 0.947 . S
H185 C204 0.946 . S
H186 C206 0.953 . S
H187 C207 0.945 . S
H188 C209 0.952 . S
H189 C210 0.949 . S
H190 C212 0.950 . S
H191 C213 0.948 . S
H192 C215 0.951 . S
H193 C180 0.947 . S
H194 C182 0.952 . S
H195 C183 0.950 . S
N196 C199 1.382 . S
N196 C201 1.363 . S
N197 C199 1.371 . S
N197 C200 1.372 . S
N198 C200 1.361 . S
N198 C201 1.377 . S
C199 N196 1.382 . S
C199 N197 1.371 . S
C199 C202 1.480 . S
C200 N197 1.372 . S
C200 N198 1.361 . S
C200 C208 1.457 . S
C201 N196 1.363 . S
C201 N198 1.377 . S
C201 C214 1.479 . S
C202 C199 1.480 . S
C202 C203 1.383 . S
C202 C207 1.385 . S
C203 H184 0.947 . S
C203 C202 1.383 . S
C203 C204 1.388 . S
C204 H185 0.946 . S
C204 C203 1.388 . S
C204 C205 1.384 . S
C205 C204 1.384 . S
C205 C206 1.377 . S
C206 H186 0.953 . S
C206 C205 1.377 . S
C206 C207 1.369 . S
C207 H187 0.945 . S
C207 C202 1.385 . S
C207 C206 1.369 . S
C208 C200 1.457 . S
C208 C209 1.372 . S
C208 C213 1.364 . S
C209 H188 0.952 . S
C209 C208 1.372 . S
C209 C210 1.389 . S
C210 H189 0.949 . S
C210 C209 1.389 . S
C210 C211 1.387 . S
C211 C210 1.387 . S
C211 C212 1.372 . S
C212 H190 0.950 . S
C212 C211 1.372 . S
C212 C213 1.379 . S
C213 H191 0.948 . S
C213 C208 1.364 . S
C213 C212 1.379 . S
C214 C183 1.383 . S
C214 C201 1.479 . S
C214 C215 1.398 . S
C215 C180 1.382 . S
C215 H192 0.951 . S
C215 C214 1.398 . S
C216 C217 1.384 . S
C216 H229 0.947 . S
C216 C251 1.382 . S
C217 C216 1.384 . S
C217 C218 1.378 . S
C218 C217 1.378 . S
C218 C219 1.378 . S
C218 H230 0.952 . S
C219 C218 1.378 . S
C219 H231 0.950 . S
C219 C250 1.383 . S
H220 C239 0.947 . S
H221 C240 0.946 . S
H222 C242 0.953 . S
H223 C243 0.945 . S
H224 C245 0.952 . S
H225 C246 0.949 . S
H226 C248 0.950 1_455 S
H227 C249 0.948 . S
H228 C251 0.951 . S
H229 C216 0.947 . S
H230 C218 0.952 . S
H231 C219 0.950 . S
N232 C235 1.382 . S
N232 C237 1.363 . S
N233 C235 1.371 . S
N233 C236 1.372 . S
N234 C236 1.361 . S
N234 C237 1.377 . S
C235 N232 1.382 . S
C235 N233 1.371 . S
C235 C238 1.480 . S
C236 N233 1.372 . S
C236 N234 1.361 . S
C236 C244 1.457 . S
C237 N232 1.363 . S
C237 N234 1.377 . S
C237 C250 1.479 . S
C238 C235 1.480 . S
C238 C239 1.383 . S
C238 C243 1.385 . S
C239 H220 0.947 . S
C239 C238 1.383 . S
C239 C240 1.388 . S
C240 H221 0.946 . S
C240 C239 1.388 . S
C240 C241 1.384 . S
C241 C240 1.384 . S
C241 C242 1.377 . S
C242 H222 0.953 . S
C242 C241 1.377 . S
C242 C243 1.369 . S
C243 H223 0.945 . S
C243 C238 1.385 . S
C243 C242 1.369 . S
C244 C236 1.457 . S
C244 C245 1.372 . S
C244 C249 1.364 . S
C245 H224 0.952 . S
C245 C244 1.372 . S
C245 C246 1.389 . S
C246 H225 0.949 . S
C246 C245 1.389 . S
C246 C247 1.387 . S
C247 C246 1.387 . S
C247 C248 1.372 . S
C248 H226 0.950 1_655 S
C248 C247 1.372 . S
C248 C249 1.379 . S
C249 H227 0.948 . S
C249 C244 1.364 . S
C249 C248 1.379 . S
C250 C219 1.383 . S
C250 C237 1.479 . S
C250 C251 1.398 . S
C251 C216 1.382 . S
C251 H228 0.951 . S
C251 C250 1.398 . S
C252 C253 1.384 . S
C252 H265 0.947 . S
C252 C287 1.382 . S
C253 C252 1.384 . S
C253 C254 1.378 . S
C254 C253 1.378 . S
C254 C255 1.378 . S
C254 H266 0.952 . S
C255 C254 1.378 . S
C255 H267 0.950 . S
C255 C286 1.383 . S
H256 C275 0.947 . S
H257 C276 0.946 . S
H258 C278 0.953 . S
H259 C279 0.945 . S
H260 C281 0.952 . S
H261 C282 0.949 . S
H262 C284 0.950 . S
H263 C285 0.948 . S
H264 C287 0.951 . S
H265 C252 0.947 . S
H266 C254 0.952 . S
H267 C255 0.950 . S
N268 C271 1.382 . S
N268 C273 1.363 . S
N269 C271 1.371 . S
N269 C272 1.372 . S
N270 C272 1.361 . S
N270 C273 1.377 . S
C271 N268 1.382 . S
C271 N269 1.371 . S
C271 C274 1.480 . S
C272 N269 1.372 . S
C272 N270 1.361 . S
C272 C280 1.457 . S
C273 N268 1.363 . S
C273 N270 1.377 . S
C273 C286 1.479 . S
C274 C271 1.480 . S
C274 C275 1.383 . S
C274 C279 1.385 . S
C275 H256 0.947 . S
C275 C274 1.383 . S
C275 C276 1.388 . S
C276 H257 0.946 . S
C276 C275 1.388 . S
C276 C277 1.384 . S
C277 C276 1.384 . S
C277 C278 1.377 . S
C278 H258 0.953 . S
C278 C277 1.377 . S
C278 C279 1.369 . S
C279 H259 0.945 . S
C279 C274 1.385 . S
C279 C278 1.369 . S
C280 C272 1.457 . S
C280 C281 1.372 . S
C280 C285 1.364 . S
C281 H260 0.952 . S
C281 C280 1.372 . S
C281 C282 1.389 . S
C282 H261 0.949 . S
C282 C281 1.389 . S
C282 C283 1.387 . S
C283 C282 1.387 . S
C283 C284 1.372 . S
C284 H262 0.950 . S
C284 C283 1.372 . S
C284 C285 1.379 . S
C285 H263 0.948 . S
C285 C280 1.364 . S
C285 C284 1.379 . S
C286 C255 1.383 . S
C286 C273 1.479 . S
C286 C287 1.398 . S
C287 C252 1.382 . S
C287 H264 0.951 . S
C287 C286 1.398 . S
C288 C289 1.384 . S
C288 H301 0.947 . S
C288 C323 1.382 . S
C289 C288 1.384 . S
C289 C290 1.378 . S
C290 C289 1.378 . S
C290 C291 1.378 . S
C290 H302 0.952 . S
C291 C290 1.378 . S
C291 H303 0.950 . S
C291 C322 1.383 . S
H292 C311 0.947 . S
H293 C312 0.946 . S
H294 C314 0.953 . S
H295 C315 0.945 . S
H296 C317 0.952 . S
H297 C318 0.949 . S
H298 C320 0.950 . S
H299 C321 0.948 . S
H300 C323 0.951 . S
H301 C288 0.947 . S
H302 C290 0.952 . S
H303 C291 0.950 . S
N304 C307 1.382 . S
N304 C309 1.363 . S
N305 C307 1.371 . S
N305 C308 1.372 . S
N306 C308 1.361 . S
N306 C309 1.377 . S
C307 N304 1.382 . S
C307 N305 1.371 . S
C307 C310 1.480 . S
C308 N305 1.372 . S
C308 N306 1.361 . S
C308 C316 1.457 . S
C309 N304 1.363 . S
C309 N306 1.377 . S
C309 C322 1.479 . S
C310 C307 1.480 . S
C310 C311 1.383 . S
C310 C315 1.385 . S
C311 H292 0.947 . S
C311 C310 1.383 . S
C311 C312 1.388 . S
C312 H293 0.946 . S
C312 C311 1.388 . S
C312 C313 1.384 . S
C313 C312 1.384 . S
C313 C314 1.377 . S
C314 H294 0.953 . S
C314 C313 1.377 . S
C314 C315 1.369 . S
C315 H295 0.945 . S
C315 C310 1.385 . S
C315 C314 1.369 . S
C316 C308 1.457 . S
C316 C317 1.372 . S
C316 C321 1.364 . S
C317 H296 0.952 . S
C317 C316 1.372 . S
C317 C318 1.389 . S
C318 H297 0.949 . S
C318 C317 1.389 . S
C318 C319 1.387 . S
C319 C318 1.387 . S
C319 C320 1.372 . S
C320 H298 0.950 . S
C320 C319 1.372 . S
C320 C321 1.379 . S
C321 H299 0.948 . S
C321 C316 1.364 . S
C321 C320 1.379 . S
C322 C291 1.383 . S
C322 C309 1.479 . S
C322 C323 1.398 . S
C323 C288 1.382 . S
C323 H300 0.951 . S
C323 C322 1.398 . S
C324 C325 1.384 . S
C324 H337 0.947 . S
C324 C359 1.382 . S
C325 C324 1.384 . S
C325 C326 1.378 . S
C326 C325 1.378 . S
C326 C327 1.378 . S
C326 H338 0.952 . S
C327 C326 1.378 . S
C327 H339 0.950 . S
C327 C358 1.383 . S
H328 C347 0.947 . S
H329 C348 0.946 . S
H330 C350 0.946 1_545 S
H331 C351 0.945 . S
H332 C353 0.952 . S
H333 C354 0.949 . S
H334 C356 0.950 . S
H335 C357 0.948 . S
H336 C359 0.951 . S
H337 C324 0.947 . S
H338 C326 0.952 . S
H339 C327 0.950 . S
N340 C343 1.382 . S
N340 C345 1.363 . S
N341 C343 1.371 . S
N341 C344 1.372 . S
N342 C344 1.361 . S
N342 C345 1.377 . S
C343 N340 1.382 . S
C343 N341 1.371 . S
C343 C346 1.480 . S
C344 N341 1.372 . S
C344 N342 1.361 . S
C344 C352 1.457 . S
C345 N340 1.363 . S
C345 N342 1.377 . S
C345 C358 1.479 . S
C346 C343 1.480 . S
C346 C347 1.383 . S
C346 C351 1.385 . S
C347 H328 0.947 . S
C347 C346 1.383 . S
C347 C348 1.388 . S
C348 H329 0.946 . S
C348 C347 1.388 . S
C348 C349 1.384 . S
C349 C348 1.384 . S
C349 C350 1.378 . S
C350 H330 0.946 1_565 S
C350 C349 1.378 . S
C350 C351 1.375 . S
C351 H331 0.945 . S
C351 C346 1.385 . S
C351 C350 1.375 . S
C352 C344 1.457 . S
C352 C353 1.372 . S
C352 C357 1.364 . S
C353 H332 0.952 . S
C353 C352 1.372 . S
C353 C354 1.389 . S
C354 H333 0.949 . S
C354 C353 1.389 . S
C354 C355 1.387 . S
C355 C354 1.387 . S
C355 C356 1.372 . S
C356 H334 0.950 . S
C356 C355 1.372 . S
C356 C357 1.379 . S
C357 H335 0.948 . S
C357 C352 1.364 . S
C357 C356 1.379 . S
C358 C327 1.383 . S
C358 C345 1.479 . S
C358 C359 1.398 . S
C359 C324 1.382 . S
C359 H336 0.951 . S
C359 C358 1.398 . S
C360 C361 1.384 . S
C360 H373 0.947 . S
C360 C395 1.382 . S
C361 C360 1.384 . S
C361 C362 1.378 . S
C362 C361 1.378 . S
C362 C363 1.378 . S
C362 H374 0.952 . S
C363 C362 1.378 . S
C363 H375 0.950 . S
C363 C394 1.383 . S
H364 C383 0.947 . S
H365 C384 0.946 . S
H366 C386 0.953 . S
H367 C387 0.945 . S
H368 C389 0.952 . S
H369 C390 0.949 . S
H370 C392 0.950 . S
H371 C393 0.948 . S
H372 C395 0.951 . S
H373 C360 0.947 . S
H374 C362 0.952 . S
H375 C363 0.950 . S
N376 C379 1.382 . S
N376 C381 1.363 . S
N377 C379 1.371 . S
N377 C380 1.372 . S
N378 C380 1.361 . S
N378 C381 1.377 . S
C379 N376 1.382 . S
C379 N377 1.371 . S
C379 C382 1.480 . S
C380 N377 1.372 . S
C380 N378 1.361 . S
C380 C388 1.457 . S
C381 N376 1.363 . S
C381 N378 1.377 . S
C381 C394 1.479 . S
C382 C379 1.480 . S
C382 C383 1.383 . S
C382 C387 1.385 . S
C383 H364 0.947 . S
C383 C382 1.383 . S
C383 C384 1.388 . S
C384 H365 0.946 . S
C384 C383 1.388 . S
C384 C385 1.384 . S
C385 C384 1.384 . S
C385 C386 1.377 . S
C386 H366 0.953 . S
C386 C385 1.377 . S
C386 C387 1.369 . S
C387 H367 0.945 . S
C387 C382 1.385 . S
C387 C386 1.369 . S
C388 C380 1.457 . S
C388 C389 1.372 . S
C388 C393 1.364 . S
C389 H368 0.952 . S
C389 C388 1.372 . S
C389 C390 1.389 . S
C390 H369 0.949 . S
C390 C389 1.389 . S
C390 C391 1.387 . S
C391 C390 1.387 . S
C391 C392 1.372 . S
C392 H370 0.950 . S
C392 C391 1.372 . S
C392 C393 1.379 . S
C393 H371 0.948 . S
C393 C388 1.364 . S
C393 C392 1.379 . S
C394 C363 1.383 . S
C394 C381 1.479 . S
C394 C395 1.398 . S
C395 C360 1.382 . S
C395 H372 0.951 . S
C395 C394 1.398 . S
C396 C397 1.384 . S
C396 H409 0.947 . S
C396 C431 1.382 . S
C397 C396 1.384 . S
C397 C398 1.378 . S
C398 C397 1.378 . S
C398 C399 1.378 . S
C398 H410 0.952 . S
C399 C398 1.378 . S
C399 H411 0.950 . S
C399 C430 1.383 . S
H400 C419 0.947 . S
H401 C420 0.946 . S
H402 C422 0.953 . S
H403 C423 0.945 . S
H404 C425 0.952 . S
H405 C426 0.949 . S
H406 C428 0.950 . S
H407 C429 0.948 . S
H408 C431 0.951 . S
H409 C396 0.947 . S
H410 C398 0.952 . S
H411 C399 0.950 . S
N412 C415 1.382 . S
N412 C417 1.363 . S
N413 C415 1.371 . S
N413 C416 1.372 . S
N414 C416 1.361 . S
N414 C417 1.377 . S
C415 N412 1.382 . S
C415 N413 1.371 . S
C415 C418 1.480 . S
C416 N413 1.372 . S
C416 N414 1.361 . S
C416 C424 1.457 . S
C417 N412 1.363 . S
C417 N414 1.377 . S
C417 C430 1.479 . S
C418 C415 1.480 . S
C418 C419 1.383 . S
C418 C423 1.385 . S
C419 H400 0.947 . S
C419 C418 1.383 . S
C419 C420 1.388 . S
C420 H401 0.946 . S
C420 C419 1.388 . S
C420 C421 1.384 . S
C421 C420 1.384 . S
C421 C422 1.377 . S
C422 H402 0.953 . S
C422 C421 1.377 . S
C422 C423 1.369 . S
C423 H403 0.945 . S
C423 C418 1.385 . S
C423 C422 1.369 . S
C424 C416 1.457 . S
C424 C425 1.372 . S
C424 C429 1.364 . S
C425 H404 0.952 . S
C425 C424 1.372 . S
C425 C426 1.389 . S
C426 H405 0.949 . S
C426 C425 1.389 . S
C426 C427 1.387 . S
C427 C426 1.387 . S
C427 C428 1.372 . S
C428 H406 0.950 . S
C428 C427 1.372 . S
C428 C429 1.379 . S
C429 H407 0.948 . S
C429 C424 1.364 . S
C429 C428 1.379 . S
C430 C399 1.383 . S
C430 C417 1.479 . S
C430 C431 1.398 . S
C431 C396 1.382 . S
C431 H408 0.951 . S
C431 C430 1.398 . S
C432 C433 1.384 . S
C432 H445 0.947 . S
C432 C467 1.382 . S
C433 C432 1.384 . S
C433 C434 1.378 . S
C434 C433 1.378 . S
C434 C435 1.378 . S
C434 H446 0.952 . S
C435 C434 1.378 . S
C435 H447 0.950 . S
C435 C466 1.383 . S
H436 C455 0.947 . S
H437 C456 0.946 . S
H438 C458 0.953 . S
H439 C459 0.945 . S
H440 C461 0.952 . S
H441 C462 0.949 . S
H442 C464 0.950 . S
H443 C465 0.948 . S
H444 C467 0.951 . S
H445 C432 0.947 . S
H446 C434 0.952 . S
H447 C435 0.950 . S
N448 C451 1.382 . S
N448 C453 1.363 . S
N449 C451 1.371 . S
N449 C452 1.372 . S
N450 C452 1.361 . S
N450 C453 1.377 . S
C451 N448 1.382 . S
C451 N449 1.371 . S
C451 C454 1.480 . S
C452 N449 1.372 . S
C452 N450 1.361 . S
C452 C460 1.457 . S
C453 N448 1.363 . S
C453 N450 1.377 . S
C453 C466 1.479 . S
C454 C451 1.480 . S
C454 C455 1.383 . S
C454 C459 1.385 . S
C455 H436 0.947 . S
C455 C454 1.383 . S
C455 C456 1.388 . S
C456 H437 0.946 . S
C456 C455 1.388 . S
C456 C457 1.384 . S
C457 C456 1.384 . S
C457 C458 1.377 . S
C458 H438 0.953 . S
C458 C457 1.377 . S
C458 C459 1.369 . S
C459 H439 0.945 . S
C459 C454 1.385 . S
C459 C458 1.369 . S
C460 C452 1.457 . S
C460 C461 1.372 . S
C460 C465 1.364 . S
C461 H440 0.952 . S
C461 C460 1.372 . S
C461 C462 1.389 . S
C462 H441 0.949 . S
C462 C461 1.389 . S
C462 C463 1.387 . S
C463 C462 1.387 . S
C463 C464 1.372 . S
C464 H442 0.950 . S
C464 C463 1.372 . S
C464 C465 1.379 . S
C465 H443 0.948 . S
C465 C460 1.364 . S
C465 C464 1.379 . S
C466 C435 1.383 . S
C466 C453 1.479 . S
C466 C467 1.398 . S
C467 C432 1.382 . S
C467 H444 0.951 . S
C467 C466 1.398 . S
C468 C469 1.384 . S
C468 H481 0.947 . S
C468 C503 1.382 . S
C469 C468 1.384 . S
C469 C470 1.378 . S
C470 C469 1.378 . S
C470 C471 1.378 . S
C470 H482 0.952 . S
C471 C470 1.378 . S
C471 H483 0.950 . S
C471 C502 1.383 . S
H472 C491 0.947 . S
H473 C492 0.946 . S
H474 C494 0.953 . S
H475 C495 0.945 . S
H476 C497 0.952 . S
H477 C498 0.949 . S
H478 C500 0.950 . S
H479 C501 0.948 . S
H480 C503 0.951 . S
H481 C468 0.947 . S
H482 C470 0.952 . S
H483 C471 0.950 . S
N484 C487 1.382 . S
N484 C489 1.363 . S
N485 C487 1.371 . S
N485 C488 1.372 . S
N486 C488 1.361 . S
N486 C489 1.377 . S
C487 N484 1.382 . S
C487 N485 1.371 . S
C487 C490 1.480 . S
C488 N485 1.372 . S
C488 N486 1.361 . S
C488 C496 1.457 . S
C489 N484 1.363 . S
C489 N486 1.377 . S
C489 C502 1.479 . S
C490 C487 1.480 . S
C490 C491 1.383 . S
C490 C495 1.385 . S
C491 H472 0.947 . S
C491 C490 1.383 . S
C491 C492 1.388 . S
C492 H473 0.946 . S
C492 C491 1.388 . S
C492 C493 1.384 . S
C493 C492 1.384 . S
C493 C494 1.377 . S
C494 H474 0.953 . S
C494 C493 1.377 . S
C494 C495 1.369 . S
C495 H475 0.945 . S
C495 C490 1.385 . S
C495 C494 1.369 . S
C496 C488 1.457 . S
C496 C497 1.372 . S
C496 C501 1.364 . S
C497 H476 0.952 . S
C497 C496 1.372 . S
C497 C498 1.389 . S
C498 H477 0.949 . S
C498 C497 1.389 . S
C498 C499 1.387 . S
C499 C498 1.387 . S
C499 C500 1.372 . S
C500 H478 0.950 . S
C500 C499 1.372 . S
C500 C501 1.379 . S
C501 H479 0.948 . S
C501 C496 1.364 . S
C501 C500 1.379 . S
C502 C471 1.383 . S
C502 C489 1.479 . S
C502 C503 1.398 . S
C503 C468 1.382 . S
C503 H480 0.951 . S
C503 C502 1.398 . S
C504 C505 1.384 . S
C504 H517 0.947 . S
C504 C539 1.382 . S
C505 C504 1.384 . S
C505 C506 1.378 . S
C506 C505 1.378 . S
C506 C507 1.378 . S
C506 H518 0.952 . S
C507 C506 1.378 . S
C507 H519 0.950 . S
C507 C538 1.383 . S
H508 C527 0.947 . S
H509 C528 0.946 . S
H510 C530 0.953 . S
H511 C531 0.945 . S
H512 C533 0.952 . S
H513 C534 0.949 . S
H514 C536 0.950 . S
H515 C537 0.948 . S
H516 C539 0.951 . S
H517 C504 0.947 . S
H518 C506 0.952 . S
H519 C507 0.950 . S
N520 C523 1.382 . S
N520 C525 1.363 . S
N521 C523 1.371 . S
N521 C524 1.372 . S
N522 C524 1.361 . S
N522 C525 1.377 . S
C523 N520 1.382 . S
C523 N521 1.371 . S
C523 C526 1.480 . S
C524 N521 1.372 . S
C524 N522 1.361 . S
C524 C532 1.457 . S
C525 N520 1.363 . S
C525 N522 1.377 . S
C525 C538 1.479 . S
C526 C523 1.480 . S
C526 C527 1.383 . S
C526 C531 1.385 . S
C527 H508 0.947 . S
C527 C526 1.383 . S
C527 C528 1.388 . S
C528 H509 0.946 . S
C528 C527 1.388 . S
C528 C529 1.384 . S
C529 C528 1.384 . S
C529 C530 1.377 . S
C530 H510 0.953 . S
C530 C529 1.377 . S
C530 C531 1.369 . S
C531 H511 0.945 . S
C531 C526 1.385 . S
C531 C530 1.369 . S
C532 C524 1.457 . S
C532 C533 1.372 . S
C532 C537 1.364 . S
C533 H512 0.952 . S
C533 C532 1.372 . S
C533 C534 1.389 . S
C534 H513 0.949 . S
C534 C533 1.389 . S
C534 C535 1.387 . S
C535 C534 1.387 . S
C535 C536 1.372 . S
C536 H514 0.950 . S
C536 C535 1.372 . S
C536 C537 1.379 . S
C537 H515 0.948 . S
C537 C532 1.364 . S
C537 C536 1.379 . S
C538 C507 1.383 . S
C538 C525 1.479 . S
C538 C539 1.398 . S
C539 C504 1.382 . S
C539 H516 0.951 . S
C539 C538 1.398 . S
C540 C541 1.384 1_556 S
C540 H553 0.947 . S
C540 C575 1.382 . S
C541 C540 1.384 1_554 S
C541 C542 1.378 . S
C542 C541 1.378 . S
C542 C543 1.363 1_554 S
C542 H554 0.952 . S
C543 C542 1.363 1_556 S
C543 H555 0.936 1_556 S
C543 C574 1.413 . S
H544 C563 0.947 . S
H545 C564 0.946 . S
H546 C566 0.953 . S
H547 C567 0.945 . S
H548 C569 0.952 . S
H549 C570 0.949 . S
H550 C572 0.950 . S
H551 C573 0.948 . S
H552 C575 0.951 . S
H553 C540 0.947 . S
H554 C542 0.952 . S
H555 C543 0.936 1_554 S
N556 C559 1.382 . S
N556 C561 1.363 . S
N557 C559 1.371 . S
N557 C560 1.372 . S
N558 C560 1.361 . S
N558 C561 1.377 . S
C559 N556 1.382 . S
C559 N557 1.371 . S
C559 C562 1.480 . S
C560 N557 1.372 . S
C560 N558 1.361 . S
C560 C568 1.457 . S
C561 N556 1.363 . S
C561 N558 1.377 . S
C561 C574 1.479 . S
C562 C559 1.480 . S
C562 C563 1.383 . S
C562 C567 1.385 . S
C563 H544 0.947 . S
C563 C562 1.383 . S
C563 C564 1.388 . S
C564 H545 0.946 . S
C564 C563 1.388 . S
C564 C565 1.384 . S
C565 C564 1.384 . S
C565 C566 1.377 . S
C566 H546 0.953 . S
C566 C565 1.377 . S
C566 C567 1.369 . S
C567 H547 0.945 . S
C567 C562 1.385 . S
C567 C566 1.369 . S
C568 C560 1.457 . S
C568 C569 1.372 . S
C568 C573 1.364 . S
C569 H548 0.952 . S
C569 C568 1.372 . S
C569 C570 1.389 . S
C570 H549 0.949 . S
C570 C569 1.389 . S
C570 C571 1.387 . S
C571 C570 1.387 . S
C571 C572 1.372 . S
C572 H550 0.950 . S
C572 C571 1.372 . S
C572 C573 1.379 . S
C573 H551 0.948 . S
C573 C568 1.364 . S
C573 C572 1.379 . S
C574 C543 1.413 . S
C574 C561 1.479 . S
C574 C575 1.398 . S
C575 C540 1.382 . S
C575 H552 0.951 . S
C575 C574 1.398 . S
O576 Cd577 2.223 . S
O576 C584 1.315 . S
Cd577 O576 2.223 . S
Cd577 O580 2.297 . S
Cd577 O581 2.439 . S
Cd577 O587 2.240 . S
Cd578 O579 2.240 . S
Cd578 O586 2.223 . S
Cd578 O588 2.297 . S
Cd578 O589 2.439 . S
O579 Cd578 2.240 . S
O579 C584 1.279 . S
O580 Cd577 2.297 . S
O580 C582 1.247 . S
O581 Cd577 2.439 . S
O581 C582 1.208 . S
C582 O580 1.247 . S
C582 O581 1.208 . S
C583 O588 1.247 . S
C583 O589 1.208 . S
C584 O576 1.315 . S
C584 O579 1.279 . S
C585 O586 1.315 . S
C585 O587 1.279 . S
O586 Cd578 2.223 . S
O586 C585 1.315 . S
O587 Cd577 2.240 . S
O587 C585 1.279 . S
O588 Cd578 2.297 . S
O588 C583 1.247 . S
O589 Cd578 2.439 . S
O589 C583 1.208 . S
O590 Cd591 2.223 . S
O590 C598 1.315 . S
Cd591 O590 2.223 . S
Cd591 O594 2.297 . S
Cd591 O595 2.439 . S
Cd591 O601 2.240 . S
Cd592 O593 2.240 . S
Cd592 O600 2.223 . S
Cd592 O602 2.297 . S
Cd592 O603 2.439 . S
O593 Cd592 2.240 . S
O593 C598 1.279 . S
O594 Cd591 2.297 . S
O594 C596 1.247 . S
O595 Cd591 2.439 . S
O595 C596 1.208 . S
C596 O594 1.247 . S
C596 O595 1.208 . S
C597 O602 1.247 . S
C597 O603 1.208 . S
C598 O590 1.315 . S
C598 O593 1.279 . S
C599 O600 1.315 . S
C599 O601 1.279 . S
O600 Cd592 2.223 . S
O600 C599 1.315 . S
O601 Cd591 2.240 . S
O601 C599 1.279 . S
O602 Cd592 2.297 . S
O602 C597 1.247 . S
O603 Cd592 2.439 . S
O603 C597 1.208 . S
O604 Cd605 2.223 1_556 S
O604 C612 1.315 . S
Cd605 O604 2.223 1_554 S
Cd605 O608 2.297 . S
Cd605 O609 2.439 . S
Cd605 O615 2.240 . S
Cd606 O607 2.240 . S
Cd606 O614 2.223 . S
Cd606 O616 2.297 1_556 S
Cd606 O617 2.439 1_556 S
O607 Cd606 2.240 . S
O607 C612 1.279 . S
O608 Cd605 2.297 . S
O608 C610 1.247 . S
O609 Cd605 2.439 . S
O609 C610 1.208 . S
C610 O608 1.247 . S
C610 O609 1.208 . S
C611 O616 1.247 . S
C611 O617 1.208 . S
C612 O604 1.315 . S
C612 O607 1.279 . S
C613 O614 1.315 . S
C613 O615 1.279 1_556 S
O614 Cd606 2.223 . S
O614 C613 1.315 . S
O615 Cd605 2.240 . S
O615 C613 1.279 1_554 S
O616 Cd606 2.297 1_554 S
O616 C611 1.247 . S
O617 Cd606 2.439 1_554 S
O617 C611 1.208 . S
O618 Cd619 2.223 . S
O618 C626 1.315 . S
Cd619 O618 2.223 . S
Cd619 O622 2.297 . S
Cd619 O623 2.439 . S
Cd619 O629 2.240 . S
Cd620 O621 2.240 . S
Cd620 O628 2.223 . S
Cd620 O630 2.297 . S
Cd620 O631 2.439 . S
O621 Cd620 2.240 . S
O621 C626 1.279 . S
O622 Cd619 2.297 . S
O622 C624 1.247 . S
O623 Cd619 2.439 . S
O623 C624 1.208 . S
C624 O622 1.247 . S
C624 O623 1.208 . S
C625 O630 1.247 . S
C625 O631 1.208 . S
C626 O618 1.315 . S
C626 O621 1.279 . S
C627 O628 1.315 . S
C627 O629 1.279 . S
O628 Cd620 2.223 . S
O628 C627 1.315 . S
O629 Cd619 2.240 . S
O629 C627 1.279 . S
O630 Cd620 2.297 . S
O630 C625 1.247 . S
O631 Cd620 2.439 . S
O631 C625 1.208 . S
O632 Cd633 2.223 . S
O632 C640 1.315 . S
Cd633 O632 2.223 . S
Cd633 O636 2.297 . S
Cd633 O637 2.439 . S
Cd633 O643 2.240 . S
Cd634 O635 2.240 . S
Cd634 O642 2.223 . S
Cd634 O644 2.297 . S
Cd634 O645 2.439 . S
O635 Cd634 2.240 . S
O635 C640 1.279 . S
O636 Cd633 2.297 . S
O636 C638 1.247 . S
O637 Cd633 2.439 . S
O637 C638 1.208 . S
C638 O636 1.247 . S
C638 O637 1.208 . S
C639 O644 1.247 . S
C639 O645 1.208 . S
C640 O632 1.315 . S
C640 O635 1.279 . S
C641 O642 1.315 . S
C641 O643 1.279 . S
O642 Cd634 2.223 . S
O642 C641 1.315 . S
O643 Cd633 2.240 . S
O643 C641 1.279 . S
O644 Cd634 2.297 . S
O644 C639 1.247 . S
O645 Cd634 2.439 . S
O645 C639 1.208 . S
O646 Cd647 2.223 . S
O646 C654 1.315 . S
Cd647 O646 2.223 . S
Cd647 O650 2.297 . S
Cd647 O651 2.439 . S
Cd647 O657 2.240 . S
Cd648 O649 2.240 . S
Cd648 O656 2.223 . S
Cd648 O658 2.297 . S
Cd648 O659 2.439 . S
O649 Cd648 2.240 . S
O649 C654 1.279 . S
O650 Cd647 2.297 . S
O650 C652 1.247 . S
O651 Cd647 2.439 . S
O651 C652 1.208 . S
C652 O650 1.247 . S
C652 O651 1.208 . S
C653 O658 1.247 . S
C653 O659 1.208 . S
C654 O646 1.315 . S
C654 O649 1.279 . S
C655 O656 1.315 . S
C655 O657 1.279 . S
O656 Cd648 2.223 . S
O656 C655 1.315 . S
O657 Cd647 2.240 . S
O657 C655 1.279 . S
O658 Cd648 2.297 . S
O658 C653 1.247 . S
O659 Cd648 2.439 . S
O659 C653 1.208 . S
O660 Cd661 2.223 . S
O660 C668 1.315 . S
Cd661 O660 2.223 . S
Cd661 O664 2.297 . S
Cd661 O665 2.439 . S
Cd661 O671 2.240 . S
Cd662 O663 2.240 . S
Cd662 O670 2.223 . S
Cd662 O672 2.297 . S
Cd662 O673 2.439 . S
O663 Cd662 2.240 . S
O663 C668 1.279 . S
O664 Cd661 2.297 . S
O664 C666 1.247 . S
O665 Cd661 2.439 . S
O665 C666 1.208 . S
C666 O664 1.247 . S
C666 O665 1.208 . S
C667 O672 1.247 . S
C667 O673 1.208 . S
C668 O660 1.315 . S
C668 O663 1.279 . S
C669 O670 1.315 . S
C669 O671 1.279 . S
O670 Cd662 2.223 . S
O670 C669 1.315 . S
O671 Cd661 2.240 . S
O671 C669 1.279 . S
O672 Cd662 2.297 . S
O672 C667 1.247 . S
O673 Cd662 2.439 . S
O673 C667 1.208 . S
O674 Cd675 2.223 1_545 S
O674 C682 1.315 . S
Cd675 O674 2.223 1_565 S
Cd675 O678 2.297 . S
Cd675 O679 2.439 . S
Cd675 O685 2.240 1_565 S
Cd676 O677 2.240 . S
Cd676 O684 2.223 . S
Cd676 O686 2.297 . S
Cd676 O687 2.439 1_545 S
O677 Cd676 2.240 . S
O677 C682 1.279 . S
O678 Cd675 2.297 . S
O678 C680 1.247 . S
O679 Cd675 2.439 . S
O679 C680 1.208 . S
C680 O678 1.247 . S
C680 O679 1.208 . S
C681 O686 1.247 1_565 S
C681 O687 1.208 . S
C682 O674 1.315 . S
C682 O677 1.279 . S
C683 O684 1.315 . S
C683 O685 1.279 . S
O684 Cd676 2.223 . S
O684 C683 1.315 . S
O685 Cd675 2.240 1_545 S
O685 C683 1.279 . S
O686 Cd676 2.297 . S
O686 C681 1.247 1_545 S
O687 Cd676 2.439 1_565 S
O687 C681 1.208 . S
O688 Cd689 2.223 . S
O688 C696 1.315 . S
Cd689 O688 2.223 . S
Cd689 O692 2.297 1_655 S
Cd689 O693 2.439 1_655 S
Cd689 O699 2.240 . S
Cd690 O691 2.240 . S
Cd690 O698 2.223 1_455 S
Cd690 O700 2.297 . S
Cd690 O701 2.439 . S
O691 Cd690 2.240 . S
O691 C696 1.279 1_455 S
O692 Cd689 2.297 1_455 S
O692 C694 1.247 . S
O693 Cd689 2.439 1_455 S
O693 C694 1.208 . S
C694 O692 1.247 . S
C694 O693 1.208 . S
C695 O700 1.247 . S
C695 O701 1.208 . S
C696 O688 1.315 . S
C696 O691 1.279 1_655 S
C697 O698 1.315 . S
C697 O699 1.279 . S
O698 Cd690 2.223 1_655 S
O698 C697 1.315 . S
O699 Cd689 2.240 . S
O699 C697 1.279 . S
O700 Cd690 2.297 . S
O700 C695 1.247 . S
O701 Cd690 2.439 . S
O701 C695 1.208 . S
O702 Cd703 2.223 . S
O702 C710 1.315 . S
Cd703 O702 2.223 . S
Cd703 O706 2.297 . S
Cd703 O707 2.439 . S
Cd703 O713 2.240 . S
Cd704 O705 2.240 . S
Cd704 O712 2.223 . S
Cd704 O714 2.297 . S
Cd704 O715 2.439 . S
O705 Cd704 2.240 . S
O705 C710 1.279 . S
O706 Cd703 2.297 . S
O706 C708 1.247 . S
O707 Cd703 2.439 . S
O707 C708 1.208 . S
C708 O706 1.247 . S
C708 O707 1.208 . S
C709 O714 1.247 . S
C709 O715 1.208 . S
C710 O702 1.315 . S
C710 O705 1.279 . S
C711 O712 1.315 . S
C711 O713 1.279 . S
O712 Cd704 2.223 . S
O712 C711 1.315 . S
O713 Cd703 2.240 . S
O713 C711 1.279 . S
O714 Cd704 2.297 . S
O714 C709 1.247 . S
O715 Cd704 2.439 . S
O715 C709 1.208 . S
O716 Cd717 2.223 1_655 S
O716 C724 1.315 . S
Cd717 O716 2.223 1_455 S
Cd717 O720 2.297 . S
Cd717 O721 2.439 . S
Cd717 O727 2.240 . S
Cd718 O719 2.240 . S
Cd718 O726 2.223 . S
Cd718 O728 2.297 1_655 S
Cd718 O729 2.439 1_655 S
O719 Cd718 2.240 . S
O719 C724 1.279 . S
O720 Cd717 2.297 . S
O720 C722 1.247 . S
O721 Cd717 2.439 . S
O721 C722 1.208 . S
C722 O720 1.247 . S
C722 O721 1.208 . S
C723 O728 1.247 . S
C723 O729 1.208 . S
C724 O716 1.315 . S
C724 O719 1.279 . S
C725 O726 1.315 . S
C725 O727 1.279 1_655 S
O726 Cd718 2.223 . S
O726 C725 1.315 . S
O727 Cd717 2.240 . S
O727 C725 1.279 1_455 S
O728 Cd718 2.297 1_455 S
O728 C723 1.247 . S
O729 Cd718 2.439 1_455 S
O729 C723 1.208 . S
O730 Cd731 2.223 . S
O730 C738 1.315 . S
Cd731 O730 2.223 . S
Cd731 O734 2.297 . S
Cd731 O735 2.439 . S
Cd731 O741 2.240 . S
Cd732 O733 2.240 . S
Cd732 O740 2.223 . S
Cd732 O742 2.297 . S
Cd732 O743 2.439 . S
O733 Cd732 2.240 . S
O733 C738 1.279 . S
O734 Cd731 2.297 . S
O734 C736 1.247 . S
O735 Cd731 2.439 . S
O735 C736 1.208 . S
C736 O734 1.247 . S
C736 O735 1.208 . S
C737 O742 1.247 . S
C737 O743 1.208 . S
C738 O730 1.315 . S
C738 O733 1.279 . S
C739 O740 1.315 . S
C739 O741 1.279 . S
O740 Cd732 2.223 . S
O740 C739 1.315 . S
O741 Cd731 2.240 . S
O741 C739 1.279 . S
O742 Cd732 2.297 . S
O742 C737 1.247 . S
O743 Cd732 2.439 . S
O743 C737 1.208 . S
C744 C745 1.363 . S
C744 C750 1.379 . S
C744 N752 1.356 . S
C745 C744 1.363 . S
C745 C751 1.363 . S
C746 C747 1.363 . S
C746 C751 1.379 . S
C746 N753 1.356 . S
C747 C746 1.363 . S
C747 C750 1.363 . S
N748 C750 1.356 1_554 S
N748 H760 0.984 . S
N748 H761 0.985 . S
N749 C751 1.356 . S
N749 H754 0.984 . S
N749 H755 0.985 . S
C750 C744 1.379 . S
C750 C747 1.363 . S
C750 N748 1.356 1_556 S
C751 C745 1.363 . S
C751 C746 1.379 . S
C751 N749 1.356 . S
N752 C744 1.356 . S
N752 H758 0.984 . S
N752 H759 0.984 . S
N753 C746 1.356 . S
N753 H756 0.984 . S
N753 H757 0.985 . S
H754 N749 0.984 . S
H755 N749 0.985 . S
H756 N753 0.984 . S
H757 N753 0.985 . S
H758 N752 0.984 . S
H759 N752 0.984 . S
H760 N748 0.984 . S
H761 N748 0.985 . S
C762 C763 1.363 . S
C762 C768 1.379 . S
C762 N770 1.356 1_455 S
C763 C762 1.363 . S
C763 C769 1.363 . S
C764 C765 1.363 . S
C764 C769 1.379 . S
C764 N771 1.356 . S
C765 C764 1.363 . S
C765 C768 1.363 . S
N766 C768 1.356 . S
N766 H778 0.984 . S
N766 H779 0.985 . S
N767 C769 1.356 . S
N767 H772 0.984 1_455 S
N767 H773 0.985 . S
C768 C762 1.379 . S
C768 C765 1.363 . S
C768 N766 1.356 . S
C769 C763 1.363 . S
C769 C764 1.379 . S
C769 N767 1.356 . S
N770 C762 1.356 1_655 S
N770 H776 0.984 . S
N770 H777 0.984 . S
N771 C764 1.356 . S
N771 H774 0.984 . S
N771 H775 0.985 . S
H772 N767 0.984 1_655 S
H773 N767 0.985 . S
H774 N771 0.984 . S
H775 N771 0.985 . S
H776 N770 0.984 . S
H777 N770 0.984 . S
H778 N766 0.984 . S
H779 N766 0.985 . S
C780 C781 1.363 . S
C780 C786 1.379 . S
C780 N788 1.356 . S
C781 C780 1.363 . S
C781 C787 1.363 . S
C782 C783 1.363 . S
C782 C787 1.379 . S
C782 N789 1.356 . S
C783 C782 1.363 . S
C783 C786 1.363 . S
N784 C786 1.356 . S
N784 H796 0.984 . S
N784 H797 0.985 . S
N785 C787 1.356 . S
N785 H790 0.984 . S
N785 H791 0.985 . S
C786 C780 1.379 . S
C786 C783 1.363 . S
C786 N784 1.356 . S
C787 C781 1.363 . S
C787 C782 1.379 . S
C787 N785 1.356 . S
N788 C780 1.356 . S
N788 H794 0.984 . S
N788 H795 0.984 . S
N789 C782 1.356 . S
N789 H792 0.984 . S
N789 H793 0.985 . S
H790 N785 0.984 . S
H791 N785 0.985 . S
H792 N789 0.984 . S
H793 N789 0.985 . S
H794 N788 0.984 . S
H795 N788 0.984 . S
H796 N784 0.984 . S
H797 N784 0.985 . S
C798 C799 1.363 1_545 S
C798 C804 1.379 . S
C798 N806 1.356 . S
C799 C798 1.363 1_565 S
C799 C805 1.363 . S
C800 C801 1.363 1_565 S
C800 C805 1.379 . S
C800 N807 1.356 . S
C801 C800 1.363 1_545 S
C801 C804 1.363 . S
N802 C804 1.356 . S
N802 H814 0.984 . S
N802 H815 0.985 . S
N803 C805 1.356 . S
N803 H808 0.984 . S
N803 H809 0.985 . S
C804 C798 1.379 . S
C804 C801 1.363 . S
C804 N802 1.356 . S
C805 C799 1.363 . S
C805 C800 1.379 . S
C805 N803 1.356 . S
N806 C798 1.356 . S
N806 H812 0.984 . S
N806 H813 0.984 1_645 S
N807 C800 1.356 . S
N807 H810 0.984 1_565 S
N807 H811 0.985 . S
H808 N803 0.984 . S
H809 N803 0.985 . S
H810 N807 0.984 1_545 S
H811 N807 0.985 . S
H812 N806 0.984 . S
H813 N806 0.984 1_465 S
H814 N802 0.984 . S
H815 N802 0.985 . S
C816 C817 1.363 . S
C816 C822 1.379 . S
C816 N824 1.356 . S
C817 C816 1.363 . S
C817 C823 1.363 . S
C818 C819 1.363 . S
C818 C823 1.379 . S
C818 N825 1.356 . S
C819 C818 1.363 . S
C819 C822 1.363 . S
N820 C822 1.356 . S
N820 H832 0.984 . S
N820 H833 0.985 . S
N821 C823 1.356 . S
N821 H826 0.984 . S
N821 H827 0.985 . S
C822 C816 1.379 . S
C822 C819 1.363 . S
C822 N820 1.356 . S
C823 C817 1.363 . S
C823 C818 1.379 . S
C823 N821 1.356 . S
N824 C816 1.356 . S
N824 H830 0.984 . S
N824 H831 0.984 . S
N825 C818 1.356 . S
N825 H828 0.984 . S
N825 H829 0.985 . S
H826 N821 0.984 . S
H827 N821 0.985 . S
H828 N825 0.984 . S
H829 N825 0.985 . S
H830 N824 0.984 . S
H831 N824 0.984 . S
H832 N820 0.984 . S
H833 N820 0.985 . S
C834 C835 1.363 . S
C834 C840 1.379 . S
C834 N842 1.356 . S
C835 C834 1.363 . S
C835 C841 1.363 . S
C836 C837 1.363 . S
C836 C841 1.379 . S
C836 N843 1.356 . S
C837 C836 1.363 . S
C837 C840 1.363 . S
N838 C840 1.356 . S
N838 H850 0.984 . S
N838 H851 0.985 . S
N839 C841 1.356 . S
N839 H844 0.984 . S
N839 H845 0.985 . S
C840 C834 1.379 . S
C840 C837 1.363 . S
C840 N838 1.356 . S
C841 C835 1.363 . S
C841 C836 1.379 . S
C841 N839 1.356 . S
N842 C834 1.356 . S
N842 H848 0.984 . S
N842 H849 0.984 . S
N843 C836 1.356 . S
N843 H846 0.984 . S
N843 H847 0.985 . S
H844 N839 0.984 . S
H845 N839 0.985 . S
H846 N843 0.984 . S
H847 N843 0.985 . S
H848 N842 0.984 . S
H849 N842 0.984 . S
H850 N838 0.984 . S
H851 N838 0.985 . S
C852 C853 1.363 . S
C852 C858 1.379 . S
C852 N860 1.356 . S
C853 C852 1.363 . S
C853 C859 1.363 . S
C854 C855 1.363 . S
C854 C859 1.379 . S
C854 N861 1.356 . S
C855 C854 1.363 . S
C855 C858 1.363 . S
N856 C858 1.356 . S
N856 H868 0.984 . S
N856 H869 0.985 . S
N857 C859 1.356 . S
N857 H862 0.984 . S
N857 H863 0.985 . S
C858 C852 1.379 . S
C858 C855 1.363 . S
C858 N856 1.356 . S
C859 C853 1.363 . S
C859 C854 1.379 . S
C859 N857 1.356 . S
N860 C852 1.356 . S
N860 H866 0.984 . S
N860 H867 0.984 . S
N861 C854 1.356 . S
N861 H864 0.984 . S
N861 H865 0.985 . S
H862 N857 0.984 . S
H863 N857 0.985 . S
H864 N861 0.984 . S
H865 N861 0.985 . S
H866 N860 0.984 . S
H867 N860 0.984 . S
H868 N856 0.984 . S
H869 N856 0.985 . S
C870 C871 1.363 . S
C870 C876 1.379 . S
C870 N878 1.356 . S
C871 C870 1.363 . S
C871 C877 1.363 . S
C872 C873 1.363 . S
C872 C877 1.379 . S
C872 N879 1.356 . S
C873 C872 1.363 . S
C873 C876 1.363 . S
N874 C876 1.356 1_545 S
N874 H886 0.984 . S
N874 H887 0.985 . S
N875 C877 1.356 . S
N875 H880 0.984 . S
N875 H881 0.985 . S
C876 C870 1.379 . S
C876 C873 1.363 . S
C876 N874 1.356 1_565 S
C877 C871 1.363 . S
C877 C872 1.379 . S
C877 N875 1.356 . S
N878 C870 1.356 . S
N878 H884 0.984 1_565 S
N878 H885 0.984 . S
N879 C872 1.356 . S
N879 H882 0.984 . S
N879 H883 0.985 . S
H880 N875 0.984 . S
H881 N875 0.985 . S
H882 N879 0.984 . S
H883 N879 0.985 . S
H884 N878 0.984 1_545 S
H885 N878 0.984 . S
H886 N874 0.984 . S
H887 N874 0.985 . S
C888 C889 1.363 . S
C888 C894 1.379 . S
C888 N896 1.356 . S
C889 C888 1.363 . S
C889 C895 1.363 . S
C890 C891 1.363 . S
C890 C895 1.379 . S
C890 N897 1.356 . S
C891 C890 1.363 . S
C891 C894 1.363 . S
N892 C894 1.356 . S
N892 H904 0.984 . S
N892 H905 0.985 . S
N893 C895 1.356 . S
N893 H898 0.984 . S
N893 H899 0.985 . S
C894 C888 1.379 . S
C894 C891 1.363 . S
C894 N892 1.356 . S
C895 C889 1.363 . S
C895 C890 1.379 . S
C895 N893 1.356 . S
N896 C888 1.356 . S
N896 H902 0.984 . S
N896 H903 0.984 . S
N897 C890 1.356 . S
N897 H900 0.984 . S
N897 H901 0.985 . S
H898 N893 0.984 . S
H899 N893 0.985 . S
H900 N897 0.984 . S
H901 N897 0.985 . S
H902 N896 0.984 . S
H903 N896 0.984 . S
H904 N892 0.984 . S
H905 N892 0.985 . S
C906 C907 1.363 . S
C906 C912 1.379 . S
C906 N914 1.356 . S
C907 C906 1.363 . S
C907 C913 1.363 . S
C908 C909 1.363 . S
C908 C913 1.379 . S
C908 N915 1.356 . S
C909 C908 1.363 . S
C909 C912 1.363 . S
N910 C912 1.356 . S
N910 H922 0.984 . S
N910 H923 0.985 . S
N911 C913 1.356 . S
N911 H916 0.984 . S
N911 H917 0.985 . S
C912 C906 1.379 . S
C912 C909 1.363 . S
C912 N910 1.356 . S
C913 C907 1.363 . S
C913 C908 1.379 . S
C913 N911 1.356 . S
N914 C906 1.356 . S
N914 H920 0.984 . S
N914 H921 0.984 . S
N915 C908 1.356 . S
N915 H918 0.984 . S
N915 H919 0.985 . S
H916 N911 0.984 . S
H917 N911 0.985 . S
H918 N915 0.984 . S
H919 N915 0.985 . S
H920 N914 0.984 . S
H921 N914 0.984 . S
H922 N910 0.984 . S
H923 N910 0.985 . S
C924 C925 1.363 . S
C924 C930 1.379 . S
C924 N932 1.356 . S
C925 C924 1.363 . S
C925 C931 1.363 . S
C926 C927 1.363 . S
C926 C931 1.379 . S
C926 N933 1.356 . S
C927 C926 1.363 . S
C927 C930 1.363 . S
N928 C930 1.356 . S
N928 H940 0.984 . S
N928 H941 0.985 . S
N929 C931 1.356 . S
N929 H934 0.984 . S
N929 H935 0.985 . S
C930 C924 1.379 . S
C930 C927 1.363 . S
C930 N928 1.356 . S
C931 C925 1.363 . S
C931 C926 1.379 . S
C931 N929 1.356 . S
N932 C924 1.356 . S
N932 H938 0.984 . S
N932 H939 0.984 . S
N933 C926 1.356 . S
N933 H936 0.984 . S
N933 H937 0.985 . S
H934 N929 0.984 . S
H935 N929 0.985 . S
H936 N933 0.984 . S
H937 N933 0.985 . S
H938 N932 0.984 . S
H939 N932 0.984 . S
H940 N928 0.984 . S
H941 N928 0.985 . S
C942 C943 1.363 . S
C942 C948 1.379 . S
C942 N950 1.356 . S
C943 C942 1.363 . S
C943 C949 1.363 . S
C944 C945 1.363 . S
C944 C949 1.379 . S
C944 N951 1.356 . S
C945 C944 1.363 . S
C945 C948 1.363 . S
N946 C948 1.356 . S
N946 H958 0.984 . S
N946 H959 0.985 . S
N947 C949 1.356 . S
N947 H952 0.984 . S
N947 H953 0.985 . S
C948 C942 1.379 . S
C948 C945 1.363 . S
C948 N946 1.356 . S
C949 C943 1.363 . S
C949 C944 1.379 . S
C949 N947 1.356 . S
N950 C942 1.356 . S
N950 H956 0.984 . S
N950 H957 0.984 . S
N951 C944 1.356 . S
N951 H954 0.984 . S
N951 H955 0.985 . S
H952 N947 0.984 . S
H953 N947 0.985 . S
H954 N951 0.984 . S
H955 N951 0.985 . S
H956 N950 0.984 . S
H957 N950 0.984 . S
H958 N946 0.984 . S
H959 N946 0.985 . S
C960 C961 1.363 . S
C960 C966 1.379 . S
C960 N968 1.356 . S
C961 C960 1.363 . S
C961 C967 1.363 . S
C962 C963 1.363 . S
C962 C967 1.379 . S
C962 N969 1.356 . S
C963 C962 1.363 . S
C963 C966 1.363 . S
N964 C966 1.356 . S
N964 H976 0.984 . S
N964 H977 0.985 . S
N965 C967 1.356 . S
N965 H970 0.984 . S
N965 H971 0.985 . S
C966 C960 1.379 . S
C966 C963 1.363 . S
C966 N964 1.356 . S
C967 C961 1.363 . S
C967 C962 1.379 . S
C967 N965 1.356 . S
N968 C960 1.356 . S
N968 H974 0.984 . S
N968 H975 0.984 . S
N969 C962 1.356 . S
N969 H972 0.984 . S
N969 H973 0.985 . S
H970 N965 0.984 . S
H971 N965 0.985 . S
H972 N969 0.984 . S
H973 N969 0.985 . S
H974 N968 0.984 . S
H975 N968 0.984 . S
H976 N964 0.984 . S
H977 N964 0.985 . S
C978 C979 1.363 . S
C978 C984 1.379 . S
C978 N986 1.356 . S
C979 C978 1.363 . S
C979 C985 1.363 . S
C980 C981 1.363 . S
C980 C985 1.379 . S
C980 N987 1.356 . S
C981 C980 1.363 . S
C981 C984 1.363 . S
N982 C984 1.356 . S
N982 H994 0.984 . S
N982 H995 0.985 . S
N983 C985 1.356 . S
N983 H988 0.984 . S
N983 H989 0.985 . S
C984 C978 1.379 . S
C984 C981 1.363 . S
C984 N982 1.356 . S
C985 C979 1.363 . S
C985 C980 1.379 . S
C985 N983 1.356 . S
N986 C978 1.356 . S
N986 H992 0.984 . S
N986 H993 0.984 . S
N987 C980 1.356 . S
N987 H990 0.984 . S
N987 H991 0.985 . S
H988 N983 0.984 . S
H989 N983 0.985 . S
H990 N987 0.984 . S
H991 N987 0.985 . S
H992 N986 0.984 . S
H993 N986 0.984 . S
H994 N982 0.984 . S
H995 N982 0.985 . S
C996 C997 1.363 . S
C996 C1002 1.379 . S
C996 N1004 1.356 . S
C997 C996 1.363 . S
C997 C1003 1.363 . S
C998 C999 1.363 . S
C998 C1003 1.379 . S
C998 N1005 1.356 . S
C999 C998 1.363 . S
C999 C1002 1.363 . S
N1000 C1002 1.356 . S
N1000 H1012 0.984 . S
N1000 H1013 0.985 . S
N1001 C1003 1.356 . S
N1001 H1006 0.984 . S
N1001 H1007 0.985 . S
C1002 C996 1.379 . S
C1002 C999 1.363 . S
C1002 N1000 1.356 . S
C1003 C997 1.363 . S
C1003 C998 1.379 . S
C1003 N1001 1.356 . S
N1004 C996 1.356 . S
N1004 H1010 0.984 . S
N1004 H1011 0.984 . S
N1005 C998 1.356 . S
N1005 H1008 0.984 . S
N1005 H1009 0.985 . S
H1006 N1001 0.984 . S
H1007 N1001 0.985 . S
H1008 N1005 0.984 . S
H1009 N1005 0.985 . S
H1010 N1004 0.984 . S
H1011 N1004 0.984 . S
H1012 N1000 0.984 . S
H1013 N1000 0.985 . S
C1014 C1015 1.363 . S
C1014 C1020 1.379 . S
C1014 N1022 1.356 . S
C1015 C1014 1.363 . S
C1015 C1021 1.363 . S
C1016 C1017 1.363 . S
C1016 C1021 1.379 . S
C1016 N1023 1.356 . S
C1017 C1016 1.363 . S
C1017 C1020 1.363 . S
N1018 C1020 1.356 . S
N1018 H1030 0.984 . S
N1018 H1031 0.985 . S
N1019 C1021 1.356 . S
N1019 H1024 0.984 . S
N1019 H1025 0.985 . S
C1020 C1014 1.379 . S
C1020 C1017 1.363 . S
C1020 N1018 1.356 . S
C1021 C1015 1.363 . S
C1021 C1016 1.379 . S
C1021 N1019 1.356 . S
N1022 C1014 1.356 . S
N1022 H1028 0.984 . S
N1022 H1029 0.984 . S
N1023 C1016 1.356 . S
N1023 H1026 0.984 . S
N1023 H1027 0.985 1_655 S
H1024 N1019 0.984 . S
H1025 N1019 0.985 . S
H1026 N1023 0.984 . S
H1027 N1023 0.985 1_455 S
H1028 N1022 0.984 . S
H1029 N1022 0.984 . S
H1030 N1018 0.984 . S
H1031 N1018 0.985 . S
C1032 C1033 1.363 . S
C1032 C1038 1.379 . S
C1032 N1040 1.356 . S
C1033 C1032 1.363 . S
C1033 C1039 1.363 . S
C1034 C1035 1.363 . S
C1034 C1039 1.379 . S
C1034 N1041 1.356 . S
C1035 C1034 1.363 . S
C1035 C1038 1.363 . S
N1036 C1038 1.356 . S
N1036 H1048 0.984 . S
N1036 H1049 0.985 1_565 S
N1037 C1039 1.356 . S
N1037 H1042 0.984 . S
N1037 H1043 0.985 . S
C1038 C1032 1.379 . S
C1038 C1035 1.363 . S
C1038 N1036 1.356 . S
C1039 C1033 1.363 . S
C1039 C1034 1.379 . S
C1039 N1037 1.356 . S
N1040 C1032 1.356 . S
N1040 H1046 0.984 . S
N1040 H1047 0.984 . S
N1041 C1034 1.356 . S
N1041 H1044 0.984 1_565 S
N1041 H1045 0.985 . S
H1042 N1037 0.984 . S
H1043 N1037 0.985 . S
H1044 N1041 0.984 1_545 S
H1045 N1041 0.985 . S
H1046 N1040 0.984 . S
H1047 N1040 0.984 . S
H1048 N1036 0.984 . S
H1049 N1036 0.985 1_545 S
C1050 C1051 1.363 . S
C1050 C1056 1.379 . S
C1050 N1058 1.356 . S
C1051 C1050 1.363 . S
C1051 C1057 1.363 . S
C1052 C1053 1.363 . S
C1052 C1057 1.379 . S
C1052 N1059 1.356 . S
C1053 C1052 1.363 . S
C1053 C1056 1.363 . S
N1054 C1056 1.356 . S
N1054 H1066 0.984 . S
N1054 H1067 0.985 . S
N1055 C1057 1.356 . S
N1055 H1060 0.984 . S
N1055 H1061 0.985 . S
C1056 C1050 1.379 . S
C1056 C1053 1.363 . S
C1056 N1054 1.356 . S
C1057 C1051 1.363 . S
C1057 C1052 1.379 . S
C1057 N1055 1.356 . S
N1058 C1050 1.356 . S
N1058 H1064 0.984 . S
N1058 H1065 0.984 . S
N1059 C1052 1.356 . S
N1059 H1062 0.984 . S
N1059 H1063 0.985 . S
H1060 N1055 0.984 . S
H1061 N1055 0.985 . S
H1062 N1059 0.984 . S
H1063 N1059 0.985 . S
H1064 N1058 0.984 . S
H1065 N1058 0.984 . S
H1066 N1054 0.984 . S
H1067 N1054 0.985 . S
C1068 C1069 1.363 1_565 S
C1068 C1074 1.379 . S
C1068 N1076 1.356 1_565 S
C1069 C1068 1.363 1_545 S
C1069 C1075 1.363 1_556 S
C1070 C1071 1.363 . S
C1070 C1075 1.379 1_565 S
C1070 N1077 1.356 . S
C1071 C1070 1.363 . S
C1071 C1074 1.363 1_554 S
N1072 C1074 1.356 . S
N1072 H1084 0.984 . S
N1072 H1085 0.985 . S
N1073 C1075 1.356 . S
N1073 H1078 0.984 1_554 S
N1073 H1079 0.985 . S
C1074 C1068 1.379 . S
C1074 C1071 1.363 1_556 S
C1074 N1072 1.356 . S
C1075 C1069 1.363 1_554 S
C1075 C1070 1.379 1_545 S
C1075 N1073 1.356 . S
N1076 C1068 1.356 1_545 S
N1076 H1082 0.984 1_545 S
N1076 H1083 0.984 . S
N1077 C1070 1.356 . S
N1077 H1080 0.984 . S
N1077 H1081 0.985 . S
H1078 N1073 0.984 1_556 S
H1079 N1073 0.985 . S
H1080 N1077 0.984 . S
H1081 N1077 0.985 . S
H1082 N1076 0.984 1_565 S
H1083 N1076 0.984 . S
H1084 N1072 0.984 . S
H1085 N1072 0.985 . S
C1086 C1087 1.363 . S
C1086 C1092 1.379 . S
C1086 N1094 1.356 . S
C1087 C1086 1.363 . S
C1087 C1093 1.363 . S
C1088 C1089 1.363 . S
C1088 C1093 1.379 . S
C1088 N1095 1.356 . S
C1089 C1088 1.363 . S
C1089 C1092 1.363 . S
N1090 C1092 1.356 . S
N1090 H1102 0.984 . S
N1090 H1103 0.985 . S
N1091 C1093 1.356 . S
N1091 H1096 0.984 . S
N1091 H1097 0.985 . S
C1092 C1086 1.379 . S
C1092 C1089 1.363 . S
C1092 N1090 1.356 . S
C1093 C1087 1.363 . S
C1093 C1088 1.379 . S
C1093 N1091 1.356 . S
N1094 C1086 1.356 . S
N1094 H1100 0.984 . S
N1094 H1101 0.984 . S
N1095 C1088 1.356 . S
N1095 H1098 0.984 . S
N1095 H1099 0.985 . S
H1096 N1091 0.984 . S
H1097 N1091 0.985 . S
H1098 N1095 0.984 . S
H1099 N1095 0.985 . S
H1100 N1094 0.984 . S
H1101 N1094 0.984 . S
H1102 N1090 0.984 . S
H1103 N1090 0.985 . S
C1104 C1105 1.363 . S
C1104 C1110 1.379 . S
C1104 N1112 1.356 . S
C1105 C1104 1.363 . S
C1105 C1111 1.363 . S
C1106 C1107 1.363 . S
C1106 C1111 1.379 . S
C1106 N1113 1.356 . S
C1107 C1106 1.363 . S
C1107 C1110 1.363 . S
N1108 C1110 1.356 . S
N1108 H1120 0.984 . S
N1108 H1121 0.985 . S
N1109 C1111 1.356 . S
N1109 H1114 0.984 . S
N1109 H1115 0.985 . S
C1110 C1104 1.379 . S
C1110 C1107 1.363 . S
C1110 N1108 1.356 . S
C1111 C1105 1.363 . S
C1111 C1106 1.379 . S
C1111 N1109 1.356 . S
N1112 C1104 1.356 . S
N1112 H1118 0.984 . S
N1112 H1119 0.984 . S
N1113 C1106 1.356 . S
N1113 H1116 0.984 . S
N1113 H1117 0.985 . S
H1114 N1109 0.984 . S
H1115 N1109 0.985 . S
H1116 N1113 0.984 . S
H1117 N1113 0.985 . S
H1118 N1112 0.984 . S
H1119 N1112 0.984 . S
H1120 N1108 0.984 . S
H1121 N1108 0.985 . S
C1122 C1123 1.363 . S
C1122 C1128 1.379 . S
C1122 N1130 1.356 . S
C1123 C1122 1.363 . S
C1123 C1129 1.363 . S
C1124 C1125 1.363 . S
C1124 C1129 1.379 . S
C1124 N1131 1.356 . S
C1125 C1124 1.363 . S
C1125 C1128 1.363 . S
N1126 C1128 1.356 . S
N1126 H1138 0.984 . S
N1126 H1139 0.985 . S
N1127 C1129 1.356 . S
N1127 H1132 0.984 . S
N1127 H1133 0.985 . S
C1128 C1122 1.379 . S
C1128 C1125 1.363 . S
C1128 N1126 1.356 . S
C1129 C1123 1.363 . S
C1129 C1124 1.379 . S
C1129 N1127 1.356 . S
N1130 C1122 1.356 . S
N1130 H1136 0.984 . S
N1130 H1137 0.984 . S
N1131 C1124 1.356 . S
N1131 H1134 0.984 . S
N1131 H1135 0.985 . S
H1132 N1127 0.984 . S
H1133 N1127 0.985 . S
H1134 N1131 0.984 . S
H1135 N1131 0.985 . S
H1136 N1130 0.984 . S
H1137 N1130 0.984 . S
H1138 N1126 0.984 . S
H1139 N1126 0.985 . S
C1140 C1141 1.363 . S
C1140 C1146 1.379 . S
C1140 N1148 1.356 1_545 S
C1141 C1140 1.363 . S
C1141 C1147 1.363 . S
C1142 C1143 1.363 . S
C1142 C1147 1.379 . S
C1142 N1149 1.356 . S
C1143 C1142 1.363 . S
C1143 C1146 1.363 . S
N1144 C1146 1.356 . S
N1144 H1156 0.984 . S
N1144 H1157 0.985 . S
N1145 C1147 1.356 . S
N1145 H1150 0.984 . S
N1145 H1151 0.985 . S
C1146 C1140 1.379 . S
C1146 C1143 1.363 . S
C1146 N1144 1.356 . S
C1147 C1141 1.363 . S
C1147 C1142 1.379 . S
C1147 N1145 1.356 . S
N1148 C1140 1.356 1_565 S
N1148 H1154 0.984 . S
N1148 H1155 0.984 . S
N1149 C1142 1.356 . S
N1149 H1152 0.984 . S
N1149 H1153 0.985 . S
H1150 N1145 0.984 . S
H1151 N1145 0.985 . S
H1152 N1149 0.984 . S
H1153 N1149 0.985 . S
H1154 N1148 0.984 . S
H1155 N1148 0.984 . S
H1156 N1144 0.984 . S
H1157 N1144 0.985 . S
C1158 C1159 1.363 . S
C1158 C1164 1.379 . S
C1158 N1166 1.356 . S
C1159 C1158 1.363 . S
C1159 C1165 1.363 . S
C1160 C1161 1.363 . S
C1160 C1165 1.379 . S
C1160 N1167 1.356 . S
C1161 C1160 1.363 . S
C1161 C1164 1.363 . S
N1162 C1164 1.356 . S
N1162 H1174 0.984 . S
N1162 H1175 0.985 . S
N1163 C1165 1.356 . S
N1163 H1168 0.984 . S
N1163 H1169 0.985 . S
C1164 C1158 1.379 . S
C1164 C1161 1.363 . S
C1164 N1162 1.356 . S
C1165 C1159 1.363 . S
C1165 C1160 1.379 . S
C1165 N1163 1.356 . S
N1166 C1158 1.356 . S
N1166 H1172 0.984 . S
N1166 H1173 0.984 . S
N1167 C1160 1.356 . S
N1167 H1170 0.984 . S
N1167 H1171 0.985 . S
H1168 N1163 0.984 . S
H1169 N1163 0.985 . S
H1170 N1167 0.984 . S
H1171 N1167 0.985 . S
H1172 N1166 0.984 . S
H1173 N1166 0.984 . S
H1174 N1162 0.984 . S
H1175 N1162 0.985 . S
C1176 C1177 1.363 . S
C1176 C1182 1.379 . S
C1176 N1184 1.356 . S
C1177 C1176 1.363 . S
C1177 C1183 1.363 . S
C1178 C1179 1.363 . S
C1178 C1183 1.379 . S
C1178 N1185 1.356 . S
C1179 C1178 1.363 . S
C1179 C1182 1.363 . S
N1180 C1182 1.356 . S
N1180 H1192 0.984 . S
N1180 H1193 0.985 . S
N1181 C1183 1.356 . S
N1181 H1186 0.984 . S
N1181 H1187 0.985 . S
C1182 C1176 1.379 . S
C1182 C1179 1.363 . S
C1182 N1180 1.356 . S
C1183 C1177 1.363 . S
C1183 C1178 1.379 . S
C1183 N1181 1.356 . S
N1184 C1176 1.356 . S
N1184 H1190 0.984 . S
N1184 H1191 0.984 . S
N1185 C1178 1.356 . S
N1185 H1188 0.984 . S
N1185 H1189 0.985 . S
H1186 N1181 0.984 . S
H1187 N1181 0.985 . S
H1188 N1185 0.984 . S
H1189 N1185 0.985 . S
H1190 N1184 0.984 . S
H1191 N1184 0.984 . S
H1192 N1180 0.984 . S
H1193 N1180 0.985 . S
C1194 C1195 1.363 . S
C1194 C1200 1.379 . S
C1194 N1202 1.356 . S
C1195 C1194 1.363 . S
C1195 C1201 1.363 . S
C1196 C1197 1.363 . S
C1196 C1201 1.379 . S
C1196 N1203 1.356 . S
C1197 C1196 1.363 . S
C1197 C1200 1.363 . S
N1198 C1200 1.356 . S
N1198 H1210 0.984 . S
N1198 H1211 0.985 . S
N1199 C1201 1.356 . S
N1199 H1204 0.984 . S
N1199 H1205 0.985 . S
C1200 C1194 1.379 . S
C1200 C1197 1.363 . S
C1200 N1198 1.356 . S
C1201 C1195 1.363 . S
C1201 C1196 1.379 . S
C1201 N1199 1.356 . S
N1202 C1194 1.356 . S
N1202 H1208 0.984 . S
N1202 H1209 0.984 . S
N1203 C1196 1.356 . S
N1203 H1206 0.984 . S
N1203 H1207 0.985 . S
H1204 N1199 0.984 . S
H1205 N1199 0.985 . S
H1206 N1203 0.984 . S
H1207 N1203 0.985 . S
H1208 N1202 0.984 . S
H1209 N1202 0.984 . S
H1210 N1198 0.984 . S
H1211 N1198 0.985 . S
C1212 C1213 1.363 . S
C1212 C1218 1.379 . S
C1212 N1220 1.356 . S
C1213 C1212 1.363 . S
C1213 C1219 1.363 . S
C1214 C1215 1.363 . S
C1214 C1219 1.379 . S
C1214 N1221 1.356 . S
C1215 C1214 1.363 . S
C1215 C1218 1.363 . S
N1216 C1218 1.356 . S
N1216 H1228 0.984 . S
N1216 H1229 0.985 . S
N1217 C1219 1.356 . S
N1217 H1222 0.984 . S
N1217 H1223 0.985 . S
C1218 C1212 1.379 . S
C1218 C1215 1.363 . S
C1218 N1216 1.356 . S
C1219 C1213 1.363 . S
C1219 C1214 1.379 . S
C1219 N1217 1.356 . S
N1220 C1212 1.356 . S
N1220 H1226 0.984 . S
N1220 H1227 0.984 . S
N1221 C1214 1.356 . S
N1221 H1224 0.984 . S
N1221 H1225 0.985 . S
H1222 N1217 0.984 . S
H1223 N1217 0.985 . S
H1224 N1221 0.984 . S
H1225 N1221 0.985 . S
H1226 N1220 0.984 . S
H1227 N1220 0.984 . S
H1228 N1216 0.984 . S
H1229 N1216 0.985 . S
C1230 C1231 1.363 . S
C1230 C1236 1.379 . S
C1230 N1238 1.356 . S
C1231 C1230 1.363 . S
C1231 C1237 1.363 . S
C1232 C1233 1.363 . S
C1232 C1237 1.379 . S
C1232 N1239 1.356 . S
C1233 C1232 1.363 . S
C1233 C1236 1.363 . S
N1234 C1236 1.356 . S
N1234 H1246 0.984 . S
N1234 H1247 0.985 . S
N1235 C1237 1.356 . S
N1235 H1240 0.984 . S
N1235 H1241 0.985 . S
C1236 C1230 1.379 . S
C1236 C1233 1.363 . S
C1236 N1234 1.356 . S
C1237 C1231 1.363 . S
C1237 C1232 1.379 . S
C1237 N1235 1.356 . S
N1238 C1230 1.356 . S
N1238 H1244 0.984 . S
N1238 H1245 0.984 . S
N1239 C1232 1.356 . S
N1239 H1242 0.984 . S
N1239 H1243 0.985 . S
H1240 N1235 0.984 . S
H1241 N1235 0.985 . S
H1242 N1239 0.984 . S
H1243 N1239 0.985 . S
H1244 N1238 0.984 . S
H1245 N1238 0.984 . S
H1246 N1234 0.984 . S
H1247 N1234 0.985 . S
C1248 C1249 1.363 . S
C1248 C1254 1.379 . S
C1248 N1256 1.356 . S
C1249 C1248 1.363 . S
C1249 C1255 1.363 . S
C1250 C1251 1.363 . S
C1250 C1255 1.379 . S
C1250 N1257 1.356 . S
C1251 C1250 1.363 . S
C1251 C1254 1.363 . S
N1252 C1254 1.356 . S
N1252 H1264 0.984 . S
N1252 H1265 0.985 . S
N1253 C1255 1.356 . S
N1253 H1258 0.984 . S
N1253 H1259 0.985 . S
C1254 C1248 1.379 . S
C1254 C1251 1.363 . S
C1254 N1252 1.356 . S
C1255 C1249 1.363 . S
C1255 C1250 1.379 . S
C1255 N1253 1.356 . S
N1256 C1248 1.356 . S
N1256 H1262 0.984 . S
N1256 H1263 0.984 . S
N1257 C1250 1.356 . S
N1257 H1260 0.984 . S
N1257 H1261 0.985 . S
H1258 N1253 0.984 . S
H1259 N1253 0.985 . S
H1260 N1257 0.984 . S
H1261 N1257 0.985 . S
H1262 N1256 0.984 . S
H1263 N1256 0.984 . S
H1264 N1252 0.984 . S
H1265 N1252 0.985 . S
C1266 C1267 1.363 . S
C1266 C1272 1.379 1_455 S
C1266 N1274 1.356 . S
C1267 C1266 1.363 . S
C1267 C1273 1.363 1_455 S
C1268 C1269 1.363 . S
C1268 C1273 1.379 . S
C1268 N1275 1.356 . S
C1269 C1268 1.363 . S
C1269 C1272 1.363 . S
N1270 C1272 1.356 . S
N1270 H1282 0.984 . S
N1270 H1283 0.985 . S
N1271 C1273 1.356 1_455 S
N1271 H1276 0.984 . S
N1271 H1277 0.985 1_455 S
C1272 C1266 1.379 1_655 S
C1272 C1269 1.363 . S
C1272 N1270 1.356 . S
C1273 C1267 1.363 1_655 S
C1273 C1268 1.379 . S
C1273 N1271 1.356 1_655 S
N1274 C1266 1.356 . S
N1274 H1280 0.984 . S
N1274 H1281 0.984 . S
N1275 C1268 1.356 . S
N1275 H1278 0.984 . S
N1275 H1279 0.985 . S
H1276 N1271 0.984 . S
H1277 N1271 0.985 1_655 S
H1278 N1275 0.984 . S
H1279 N1275 0.985 . S
H1280 N1274 0.984 . S
H1281 N1274 0.984 . S
H1282 N1270 0.984 . S
H1283 N1270 0.985 . S
C1284 C1285 1.363 . S
C1284 C1290 1.379 . S
C1284 N1292 1.356 . S
C1285 C1284 1.363 . S
C1285 C1291 1.363 . S
C1286 C1287 1.363 . S
C1286 C1291 1.379 . S
C1286 N1293 1.356 . S
C1287 C1286 1.363 . S
C1287 C1290 1.363 . S
N1288 C1290 1.356 . S
N1288 H1300 0.984 . S
N1288 H1301 0.985 . S
N1289 C1291 1.356 . S
N1289 H1294 0.984 . S
N1289 H1295 0.985 . S
C1290 C1284 1.379 . S
C1290 C1287 1.363 . S
C1290 N1288 1.356 . S
C1291 C1285 1.363 . S
C1291 C1286 1.379 . S
C1291 N1289 1.356 . S
N1292 C1284 1.356 . S
N1292 H1298 0.984 . S
N1292 H1299 0.984 . S
N1293 C1286 1.356 . S
N1293 H1296 0.984 . S
N1293 H1297 0.985 . S
H1294 N1289 0.984 . S
H1295 N1289 0.985 . S
H1296 N1293 0.984 . S
H1297 N1293 0.985 . S
H1298 N1292 0.984 . S
H1299 N1292 0.984 . S
H1300 N1288 0.984 . S
H1301 N1288 0.985 . S
C1302 C1303 1.363 1_455 S
C1302 C1308 1.379 . S
C1302 N1310 1.356 1_455 S
C1303 C1302 1.363 1_655 S
C1303 C1309 1.363 . S
C1304 C1305 1.363 . S
C1304 C1309 1.379 1_455 S
C1304 N1311 1.356 . S
C1305 C1304 1.363 . S
C1305 C1308 1.363 . S
N1306 C1308 1.356 . S
N1306 H1318 0.984 . S
N1306 H1319 0.985 . S
N1307 C1309 1.356 . S
N1307 H1312 0.984 . S
N1307 H1313 0.985 . S
C1308 C1302 1.379 . S
C1308 C1305 1.363 . S
C1308 N1306 1.356 . S
C1309 C1303 1.363 . S
C1309 C1304 1.379 1_655 S
C1309 N1307 1.356 . S
N1310 C1302 1.356 1_655 S
N1310 H1316 0.984 . S
N1310 H1317 0.984 . S
N1311 C1304 1.356 . S
N1311 H1314 0.984 . S
N1311 H1315 0.985 . S
H1312 N1307 0.984 . S
H1313 N1307 0.985 . S
H1314 N1311 0.984 . S
H1315 N1311 0.985 . S
H1316 N1310 0.984 . S
H1317 N1310 0.984 . S
H1318 N1306 0.984 . S
H1319 N1306 0.985 . S
C1320 C1321 1.363 . S
C1320 C1326 1.379 . S
C1320 N1328 1.356 . S
C1321 C1320 1.363 . S
C1321 C1327 1.363 . S
C1322 C1323 1.363 . S
C1322 C1327 1.379 . S
C1322 N1329 1.356 . S
C1323 C1322 1.363 . S
C1323 C1326 1.363 . S
N1324 C1326 1.356 . S
N1324 H1336 0.984 . S
N1324 H1337 0.985 . S
N1325 C1327 1.356 . S
N1325 H1330 0.984 . S
N1325 H1331 0.985 . S
C1326 C1320 1.379 . S
C1326 C1323 1.363 . S
C1326 N1324 1.356 . S
C1327 C1321 1.363 . S
C1327 C1322 1.379 . S
C1327 N1325 1.356 . S
N1328 C1320 1.356 . S
N1328 H1334 0.984 . S
N1328 H1335 0.984 . S
N1329 C1322 1.356 . S
N1329 H1332 0.984 . S
N1329 H1333 0.985 . S
H1330 N1325 0.984 . S
H1331 N1325 0.985 . S
H1332 N1329 0.984 . S
H1333 N1329 0.985 . S
H1334 N1328 0.984 . S
H1335 N1328 0.984 . S
H1336 N1324 0.984 . S
H1337 N1324 0.985 . S
C1338 C1339 1.363 . S
C1338 C1344 1.379 . S
C1338 N1346 1.356 . S
C1339 C1338 1.363 . S
C1339 C1345 1.363 . S
C1340 C1341 1.363 . S
C1340 C1345 1.379 . S
C1340 N1347 1.356 . S
C1341 C1340 1.363 . S
C1341 C1344 1.363 . S
N1342 C1344 1.356 . S
N1342 H1354 0.984 . S
N1342 H1355 0.985 . S
N1343 C1345 1.356 1_554 S
N1343 H1348 0.984 . S
N1343 H1349 0.985 . S
C1344 C1338 1.379 . S
C1344 C1341 1.363 . S
C1344 N1342 1.356 . S
C1345 C1339 1.363 . S
C1345 C1340 1.379 . S
C1345 N1343 1.356 1_556 S
N1346 C1338 1.356 . S
N1346 H1352 0.984 . S
N1346 H1353 0.984 1_556 S
N1347 C1340 1.356 . S
N1347 H1350 0.984 . S
N1347 H1351 0.985 . S
H1348 N1343 0.984 . S
H1349 N1343 0.985 . S
H1350 N1347 0.984 . S
H1351 N1347 0.985 . S
H1352 N1346 0.984 . S
H1353 N1346 0.984 1_554 S
H1354 N1342 0.984 . S
H1355 N1342 0.985 . S
C1356 C1357 1.363 . S
C1356 C1362 1.379 . S
C1356 N1364 1.356 . S
C1357 C1356 1.363 . S
C1357 C1363 1.363 . S
C1358 C1359 1.363 . S
C1358 C1363 1.379 . S
C1358 N1365 1.356 . S
C1359 C1358 1.363 . S
C1359 C1362 1.363 . S
N1360 C1362 1.356 . S
N1360 H1372 0.984 . S
N1360 H1373 0.985 . S
N1361 C1363 1.356 . S
N1361 H1366 0.984 . S
N1361 H1367 0.985 . S
C1362 C1356 1.379 . S
C1362 C1359 1.363 . S
C1362 N1360 1.356 . S
C1363 C1357 1.363 . S
C1363 C1358 1.379 . S
C1363 N1361 1.356 . S
N1364 C1356 1.356 . S
N1364 H1370 0.984 . S
N1364 H1371 0.984 . S
N1365 C1358 1.356 . S
N1365 H1368 0.984 . S
N1365 H1369 0.985 . S
H1366 N1361 0.984 . S
H1367 N1361 0.985 . S
H1368 N1365 0.984 . S
H1369 N1365 0.985 . S
H1370 N1364 0.984 . S
H1371 N1364 0.984 . S
H1372 N1360 0.984 . S
H1373 N1360 0.985 . S
C1374 C1375 1.363 . S
C1374 C1380 1.379 1_554 S
C1374 N1382 1.356 . S
C1375 C1374 1.363 . S
C1375 C1381 1.363 . S
C1376 C1377 1.363 1_554 S
C1376 C1381 1.379 . S
C1376 N1383 1.356 1_554 S
C1377 C1376 1.363 1_556 S
C1377 C1380 1.363 . S
N1378 C1380 1.356 . S
N1378 H1390 0.984 . S
N1378 H1391 0.985 . S
N1379 C1381 1.356 . S
N1379 H1384 0.984 . S
N1379 H1385 0.985 . S
C1380 C1374 1.379 1_556 S
C1380 C1377 1.363 . S
C1380 N1378 1.356 . S
C1381 C1375 1.363 . S
C1381 C1376 1.379 . S
C1381 N1379 1.356 . S
N1382 C1374 1.356 . S
N1382 H1388 0.984 1_554 S
N1382 H1389 0.984 . S
N1383 C1376 1.356 1_556 S
N1383 H1386 0.984 . S
N1383 H1387 0.985 1_556 S
H1384 N1379 0.984 . S
H1385 N1379 0.985 . S
H1386 N1383 0.984 . S
H1387 N1383 0.985 1_554 S
H1388 N1382 0.984 1_556 S
H1389 N1382 0.984 . S
H1390 N1378 0.984 . S
H1391 N1378 0.985 . S
C1392 C1393 1.363 . S
C1392 C1398 1.379 . S
C1392 N1400 1.356 . S
C1393 C1392 1.363 . S
C1393 C1399 1.363 . S
C1394 C1395 1.363 . S
C1394 C1399 1.379 . S
C1394 N1401 1.356 . S
C1395 C1394 1.363 . S
C1395 C1398 1.363 . S
N1396 C1398 1.356 . S
N1396 H1408 0.984 . S
N1396 H1409 0.985 . S
N1397 C1399 1.356 . S
N1397 H1402 0.984 . S
N1397 H1403 0.985 . S
C1398 C1392 1.379 . S
C1398 C1395 1.363 . S
C1398 N1396 1.356 . S
C1399 C1393 1.363 . S
C1399 C1394 1.379 . S
C1399 N1397 1.356 . S
N1400 C1392 1.356 . S
N1400 H1406 0.984 . S
N1400 H1407 0.984 . S
N1401 C1394 1.356 . S
N1401 H1404 0.984 . S
N1401 H1405 0.985 . S
H1402 N1397 0.984 . S
H1403 N1397 0.985 . S
H1404 N1401 0.984 . S
H1405 N1401 0.985 . S
H1406 N1400 0.984 . S
H1407 N1400 0.984 . S
H1408 N1396 0.984 . S
H1409 N1396 0.985 . S
C1410 C1411 1.363 . S
C1410 C1416 1.379 . S
C1410 N1418 1.356 1_554 S
C1411 C1410 1.363 . S
C1411 C1417 1.363 . S
C1412 C1413 1.363 . S
C1412 C1417 1.379 . S
C1412 N1419 1.356 . S
C1413 C1412 1.363 . S
C1413 C1416 1.363 . S
N1414 C1416 1.356 . S
N1414 H1426 0.984 . S
N1414 H1427 0.985 . S
N1415 C1417 1.356 . S
N1415 H1420 0.984 1_554 S
N1415 H1421 0.985 . S
C1416 C1410 1.379 . S
C1416 C1413 1.363 . S
C1416 N1414 1.356 . S
C1417 C1411 1.363 . S
C1417 C1412 1.379 . S
C1417 N1415 1.356 . S
N1418 C1410 1.356 1_556 S
N1418 H1424 0.984 . S
N1418 H1425 0.984 . S
N1419 C1412 1.356 . S
N1419 H1422 0.984 . S
N1419 H1423 0.985 . S
H1420 N1415 0.984 1_556 S
H1421 N1415 0.985 . S
H1422 N1419 0.984 . S
H1423 N1419 0.985 . S
H1424 N1418 0.984 . S
H1425 N1418 0.984 . S
H1426 N1414 0.984 . S
H1427 N1414 0.985 . S
C1428 C1429 1.363 . S
C1428 C1434 1.379 . S
C1428 N1436 1.356 . S
C1429 C1428 1.363 . S
C1429 C1435 1.363 . S
C1430 C1431 1.363 . S
C1430 C1435 1.379 . S
C1430 N1437 1.356 . S
C1431 C1430 1.363 . S
C1431 C1434 1.363 . S
N1432 C1434 1.356 . S
N1432 H1444 0.984 . S
N1432 H1445 0.985 . S
N1433 C1435 1.356 . S
N1433 H1438 0.984 . S
N1433 H1439 0.985 . S
C1434 C1428 1.379 . S
C1434 C1431 1.363 . S
C1434 N1432 1.356 . S
C1435 C1429 1.363 . S
C1435 C1430 1.379 . S
C1435 N1433 1.356 . S
N1436 C1428 1.356 . S
N1436 H1442 0.984 . S
N1436 H1443 0.984 . S
N1437 C1430 1.356 . S
N1437 H1440 0.984 . S
N1437 H1441 0.985 . S
H1438 N1433 0.984 . S
H1439 N1433 0.985 . S
H1440 N1437 0.984 . S
H1441 N1437 0.985 . S
H1442 N1436 0.984 . S
H1443 N1436 0.984 . S
H1444 N1432 0.984 . S
H1445 N1432 0.985 . S
C1446 C1447 1.363 . S
C1446 C1452 1.379 . S
C1446 N1454 1.356 . S
C1447 C1446 1.363 . S
C1447 C1453 1.363 . S
C1448 C1449 1.363 . S
C1448 C1453 1.379 . S
C1448 N1455 1.356 . S
C1449 C1448 1.363 . S
C1449 C1452 1.363 . S
N1450 C1452 1.356 . S
N1450 H1462 0.984 . S
N1450 H1463 0.985 . S
N1451 C1453 1.356 . S
N1451 H1456 0.984 . S
N1451 H1457 0.985 . S
C1452 C1446 1.379 . S
C1452 C1449 1.363 . S
C1452 N1450 1.356 . S
C1453 C1447 1.363 . S
C1453 C1448 1.379 . S
C1453 N1451 1.356 . S
N1454 C1446 1.356 . S
N1454 H1460 0.984 1_554 S
N1454 H1461 0.984 1_554 S
N1455 C1448 1.356 . S
N1455 H1458 0.984 . S
N1455 H1459 0.985 . S
H1456 N1451 0.984 . S
H1457 N1451 0.985 . S
H1458 N1455 0.984 . S
H1459 N1455 0.985 . S
H1460 N1454 0.984 1_556 S
H1461 N1454 0.984 1_556 S
H1462 N1450 0.984 . S
H1463 N1450 0.985 . S
C1464 C1465 1.363 . S
C1464 C1470 1.379 . S
C1464 N1472 1.356 . S
C1465 C1464 1.363 . S
C1465 C1471 1.363 . S
C1466 C1467 1.363 . S
C1466 C1471 1.379 . S
C1466 N1473 1.356 . S
C1467 C1466 1.363 . S
C1467 C1470 1.363 . S
N1468 C1470 1.356 . S
N1468 H1480 0.984 . S
N1468 H1481 0.985 . S
N1469 C1471 1.356 . S
N1469 H1474 0.984 . S
N1469 H1475 0.985 . S
C1470 C1464 1.379 . S
C1470 C1467 1.363 . S
C1470 N1468 1.356 . S
C1471 C1465 1.363 . S
C1471 C1466 1.379 . S
C1471 N1469 1.356 . S
N1472 C1464 1.356 . S
N1472 H1478 0.984 . S
N1472 H1479 0.984 . S
N1473 C1466 1.356 . S
N1473 H1476 0.984 . S
N1473 H1477 0.985 . S
H1474 N1469 0.984 . S
H1475 N1469 0.985 . S
H1476 N1473 0.984 . S
H1477 N1473 0.985 . S
H1478 N1472 0.984 . S
H1479 N1472 0.984 . S
H1480 N1468 0.984 . S
H1481 N1468 0.985 . S
C1482 C1483 1.363 . S
C1482 C1488 1.379 . S
C1482 N1490 1.356 . S
C1483 C1482 1.363 . S
C1483 C1489 1.363 . S
C1484 C1485 1.363 . S
C1484 C1489 1.379 . S
C1484 N1491 1.356 . S
C1485 C1484 1.363 . S
C1485 C1488 1.363 . S
N1486 C1488 1.356 . S
N1486 H1498 0.984 . S
N1486 H1499 0.985 . S
N1487 C1489 1.356 . S
N1487 H1492 0.984 . S
N1487 H1493 0.985 . S
C1488 C1482 1.379 . S
C1488 C1485 1.363 . S
C1488 N1486 1.356 . S
C1489 C1483 1.363 . S
C1489 C1484 1.379 . S
C1489 N1487 1.356 . S
N1490 C1482 1.356 . S
N1490 H1496 0.984 . S
N1490 H1497 0.984 . S
N1491 C1484 1.356 . S
N1491 H1494 0.984 . S
N1491 H1495 0.985 . S
H1492 N1487 0.984 . S
H1493 N1487 0.985 . S
H1494 N1491 0.984 . S
H1495 N1491 0.985 . S
H1496 N1490 0.984 . S
H1497 N1490 0.984 . S
H1498 N1486 0.984 . S
H1499 N1486 0.985 . S
C1500 C1501 1.363 . S
C1500 C1506 1.379 . S
C1500 N1508 1.356 . S
C1501 C1500 1.363 . S
C1501 C1507 1.363 . S
C1502 C1503 1.363 . S
C1502 C1507 1.379 . S
C1502 N1509 1.356 . S
C1503 C1502 1.363 . S
C1503 C1506 1.363 . S
N1504 C1506 1.356 . S
N1504 H1516 0.984 . S
N1504 H1517 0.985 . S
N1505 C1507 1.356 . S
N1505 H1510 0.984 . S
N1505 H1511 0.985 . S
C1506 C1500 1.379 . S
C1506 C1503 1.363 . S
C1506 N1504 1.356 . S
C1507 C1501 1.363 . S
C1507 C1502 1.379 . S
C1507 N1505 1.356 . S
N1508 C1500 1.356 . S
N1508 H1514 0.984 . S
N1508 H1515 0.984 . S
N1509 C1502 1.356 . S
N1509 H1512 0.984 . S
N1509 H1513 0.985 . S
H1510 N1505 0.984 . S
H1511 N1505 0.985 . S
H1512 N1509 0.984 . S
H1513 N1509 0.985 . S
H1514 N1508 0.984 . S
H1515 N1508 0.984 . S
H1516 N1504 0.984 . S
H1517 N1504 0.985 . S
C1518 C1519 1.363 . S
C1518 C1524 1.379 . S
C1518 N1526 1.356 . S
C1519 C1518 1.363 . S
C1519 C1525 1.363 . S
C1520 C1521 1.363 . S
C1520 C1525 1.379 . S
C1520 N1527 1.356 . S
C1521 C1520 1.363 . S
C1521 C1524 1.363 . S
N1522 C1524 1.356 . S
N1522 H1534 0.984 . S
N1522 H1535 0.985 . S
N1523 C1525 1.356 . S
N1523 H1528 0.984 . S
N1523 H1529 0.985 . S
C1524 C1518 1.379 . S
C1524 C1521 1.363 . S
C1524 N1522 1.356 . S
C1525 C1519 1.363 . S
C1525 C1520 1.379 . S
C1525 N1523 1.356 . S
N1526 C1518 1.356 . S
N1526 H1532 0.984 . S
N1526 H1533 0.984 . S
N1527 C1520 1.356 . S
N1527 H1530 0.984 . S
N1527 H1531 0.985 . S
H1528 N1523 0.984 . S
H1529 N1523 0.985 . S
H1530 N1527 0.984 . S
H1531 N1527 0.985 . S
H1532 N1526 0.984 . S
H1533 N1526 0.984 . S
H1534 N1522 0.984 . S
H1535 N1522 0.985 . S
C1536 C1537 1.363 . S
C1536 C1542 1.379 . S
C1536 N1544 1.356 . S
C1537 C1536 1.363 . S
C1537 C1543 1.363 . S
C1538 C1539 1.363 . S
C1538 C1543 1.379 . S
C1538 N1545 1.356 . S
C1539 C1538 1.363 . S
C1539 C1542 1.363 . S
N1540 C1542 1.356 1_554 S
N1540 H1552 0.984 . S
N1540 H1553 0.985 . S
N1541 C1543 1.356 . S
N1541 H1546 0.984 . S
N1541 H1547 0.985 . S
C1542 C1536 1.379 . S
C1542 C1539 1.363 . S
C1542 N1540 1.356 1_556 S
C1543 C1537 1.363 . S
C1543 C1538 1.379 . S
C1543 N1541 1.356 . S
N1544 C1536 1.356 . S
N1544 H1550 0.984 . S
N1544 H1551 0.984 . S
N1545 C1538 1.356 . S
N1545 H1548 0.984 . S
N1545 H1549 0.985 . S
H1546 N1541 0.984 . S
H1547 N1541 0.985 . S
H1548 N1545 0.984 . S
H1549 N1545 0.985 . S
H1550 N1544 0.984 . S
H1551 N1544 0.984 . S
H1552 N1540 0.984 . S
H1553 N1540 0.985 . S
C1554 C1555 1.363 . S
C1554 C1560 1.379 . S
C1554 N1562 1.356 . S
C1555 C1554 1.363 . S
C1555 C1561 1.363 . S
C1556 C1557 1.363 . S
C1556 C1561 1.379 . S
C1556 N1563 1.356 . S
C1557 C1556 1.363 . S
C1557 C1560 1.363 . S
N1558 C1560 1.356 . S
N1558 H1570 0.984 . S
N1558 H1571 0.985 . S
N1559 C1561 1.356 . S
N1559 H1564 0.984 . S
N1559 H1565 0.985 . S
C1560 C1554 1.379 . S
C1560 C1557 1.363 . S
C1560 N1558 1.356 . S
C1561 C1555 1.363 . S
C1561 C1556 1.379 . S
C1561 N1559 1.356 . S
N1562 C1554 1.356 . S
N1562 H1568 0.984 . S
N1562 H1569 0.984 . S
N1563 C1556 1.356 . S
N1563 H1566 0.984 . S
N1563 H1567 0.985 . S
H1564 N1559 0.984 . S
H1565 N1559 0.985 . S
H1566 N1563 0.984 . S
H1567 N1563 0.985 . S
H1568 N1562 0.984 . S
H1569 N1562 0.984 . S
H1570 N1558 0.984 . S
H1571 N1558 0.985 . S
C1572 C1573 1.363 . S
C1572 C1578 1.379 . S
C1572 N1580 1.356 . S
C1573 C1572 1.363 . S
C1573 C1579 1.363 . S
C1574 C1575 1.363 . S
C1574 C1579 1.379 . S
C1574 N1581 1.356 . S
C1575 C1574 1.363 . S
C1575 C1578 1.363 . S
N1576 C1578 1.356 . S
N1576 H1588 0.984 1_554 S
N1576 H1589 0.987 . S
N1577 C1579 1.356 . S
N1577 H1582 0.984 . S
N1577 H1583 0.985 . S
C1578 C1572 1.379 . S
C1578 C1575 1.363 . S
C1578 N1576 1.356 . S
C1579 C1573 1.363 . S
C1579 C1574 1.379 . S
C1579 N1577 1.356 . S
N1580 C1572 1.356 . S
N1580 H1586 0.984 . S
N1580 H1587 0.984 . S
N1581 C1574 1.356 . S
N1581 H1584 0.984 . S
N1581 H1585 0.985 . S
H1582 N1577 0.984 . S
H1583 N1577 0.985 . S
H1584 N1581 0.984 . S
H1585 N1581 0.985 . S
H1586 N1580 0.984 . S
H1587 N1580 0.984 . S
H1588 N1576 0.984 1_556 S
H1589 N1576 0.987 . S
C1590 C1591 1.363 . S
C1590 C1596 1.379 . S
C1590 N1598 1.356 . S
C1591 C1590 1.363 . S
C1591 C1597 1.363 . S
C1592 C1593 1.363 1_545 S
C1592 C1597 1.379 . S
C1592 N1599 1.356 1_545 S
C1593 C1592 1.363 1_565 S
C1593 C1596 1.363 1_565 S
N1594 C1596 1.356 1_565 S
N1594 H1606 0.984 . S
N1594 H1607 0.985 . S
N1595 C1597 1.356 . S
N1595 H1600 0.984 . S
N1595 H1601 0.985 . S
C1596 C1590 1.379 . S
C1596 C1593 1.363 1_545 S
C1596 N1594 1.356 1_545 S
C1597 C1591 1.363 . S
C1597 C1592 1.379 . S
C1597 N1595 1.356 . S
N1598 C1590 1.356 . S
N1598 H1604 0.984 . S
N1598 H1605 0.984 . S
N1599 C1592 1.356 1_565 S
N1599 H1602 0.984 . S
N1599 H1603 0.985 . S
H1600 N1595 0.984 . S
H1601 N1595 0.985 . S
H1602 N1599 0.984 . S
H1603 N1599 0.985 . S
H1604 N1598 0.984 . S
H1605 N1598 0.984 . S
H1606 N1594 0.984 . S
H1607 N1594 0.985 . S
C747 C584 1.596 1_556 S
C745 C181 1.599 . S
C765 C599 1.732 . S
C763 C247 1.742 1_455 S
C781 C283 1.670 . S
C783 C612 1.683 . S
C801 C626 1.613 . S
C799 C169 1.695 1_655 S
C819 C638 1.601 . S
C817 C361 1.681 . S
C837 C652 1.520 . S
C835 C433 1.479 . S
C853 C421 1.708 . S
C855 C666 1.687 . S
C873 C681 1.613 . S
C871 C355 1.538 . S
C889 C427 1.643 . S
C891 C697 1.650 . S
C909 C710 1.616 . S
C907 C325 1.596 . S
C925 C385 1.588 . S
C927 C695 1.527 . S
C945 C708 1.705 . S
C943 C463 1.660 . S
C961 C253 1.793 . S
C963 C724 1.797 . S
C979 C145 1.684 . S
C981 C723 1.669 . S
C997 C205 1.687 . S
C999 C722 1.618 . S
C1015 C217 1.648 . S
C1017 C725 1.649 . S
C1033 C139 1.698 . S
C1035 C627 1.686 1_565 S
C1051 C535 1.498 . S
C1053 C625 1.473 . S
C1071 C585 1.570 . S
C1069 C565 1.569 . S
C1089 C596 1.725 . S
C1087 C313 1.718 . S
C1105 C175 1.707 . S
C1107 C641 1.667 . S
C1125 C682 1.823 . S
C1123 C397 1.820 . S
C1143 C639 1.667 . S
C1141 C349 1.574 1_545 S
C1161 C667 1.665 . S
C1159 C457 1.655 . S
C1179 C668 1.596 . S
C1177 C505 1.599 . S
C1195 C571 1.743 . S
C1197 C683 1.732 . S
C1213 C319 1.670 . S
C1215 C640 1.683 . S
C1233 C654 1.613 . S
C1231 C493 1.695 . S
C1249 C109 1.681 . S
C1251 C610 1.602 . S
C1269 C624 1.520 . S
C1267 C1 1.479 . S
C1287 C582 1.687 . S
C1285 C61 1.708 . S
C1305 C597 1.613 . S
C1303 C103 1.538 . S
C1321 C67 1.643 . S
C1323 C711 1.650 . S
C1339 C73 1.596 1_556 S
C1341 C696 1.616 . S
C1357 C133 1.588 . S
C1359 C709 1.527 . S
C1375 C31 1.660 . S
C1377 C694 1.705 . S
C1395 C738 1.797 . S
C1393 C289 1.793 . S
C1413 C737 1.669 . S
C1411 C469 1.684 1_554 S
C1431 C736 1.618 . S
C1429 C529 1.687 . S
C1447 C541 1.648 . S
C1449 C739 1.649 . S
C1465 C391 1.698 . S
C1467 C655 1.686 . S
C1485 C653 1.472 . S
C1483 C211 1.498 . S
C1503 C669 1.569 . S
C1501 C241 1.569 . S
C1521 C680 1.725 . S
C1519 C277 1.718 . S
C1537 C499 1.707 . S
C1539 C613 1.667 . S
C1557 C598 1.823 . S
C1555 C37 1.820 . S
C1573 C97 1.574 . S
C1575 C611 1.667 . S
C1593 C583 1.665 . S
C1591 C25 1.655 . S
