# Generated by pormake.
# Topology nom, (4,4)-cn, num edge types: 1
# Building blocks:
#     Node 0, Type 0, BuildingBlock: NAHDIM_clean_linker_0, # of connection points: 4
#     Node 1, Type 0, BuildingBlock: NAHDIM_clean_linker_0, # of connection points: 4
#     Node 2, Type 0, BuildingBlock: NAHDIM_clean_linker_0, # of connection points: 4
#     Node 3, Type 0, BuildingBlock: NAHDIM_clean_linker_0, # of connection points: 4
#     Node 4, Type 0, BuildingBlock: NAHDIM_clean_linker_0, # of connection points: 4
#     Node 5, Type 0, BuildingBlock: NAHDIM_clean_linker_0, # of connection points: 4
#     Node 6, Type 1, BuildingBlock: CEKHIL_clean_sbu_0, # of connection points: 4
#     Node 7, Type 1, BuildingBlock: CEKHIL_clean_sbu_0, # of connection points: 4
#     Node 8, Type 1, BuildingBlock: CEKHIL_clean_sbu_0, # of connection points: 4
#     Node 9, Type 1, BuildingBlock: CEKHIL_clean_sbu_0, # of connection points: 4
#     Node 10, Type 1, BuildingBlock: CEKHIL_clean_sbu_0, # of connection points: 4
#     Node 11, Type 1, BuildingBlock: CEKHIL_clean_sbu_0, # of connection points: 4
#     Edge 12, Type (0, 1), BuildingBlock: OJICUG_clean_linker_0, # of connection points: 2
#     Edge 13, Type (0, 1), BuildingBlock: OJICUG_clean_linker_0, # of connection points: 2
#     Edge 14, Type (0, 1), BuildingBlock: OJICUG_clean_linker_0, # of connection points: 2
#     Edge 15, Type (0, 1), BuildingBlock: OJICUG_clean_linker_0, # of connection points: 2
#     Edge 16, Type (0, 1), BuildingBlock: OJICUG_clean_linker_0, # of connection points: 2
#     Edge 17, Type (0, 1), BuildingBlock: OJICUG_clean_linker_0, # of connection points: 2
#     Edge 18, Type (0, 1), BuildingBlock: OJICUG_clean_linker_0, # of connection points: 2
#     Edge 19, Type (0, 1), BuildingBlock: OJICUG_clean_linker_0, # of connection points: 2
#     Edge 20, Type (0, 1), BuildingBlock: OJICUG_clean_linker_0, # of connection points: 2
#     Edge 21, Type (0, 1), BuildingBlock: OJICUG_clean_linker_0, # of connection points: 2
#     Edge 22, Type (0, 1), BuildingBlock: OJICUG_clean_linker_0, # of connection points: 2
#     Edge 23, Type (0, 1), BuildingBlock: OJICUG_clean_linker_0, # of connection points: 2
#     Edge 24, Type (0, 1), BuildingBlock: OJICUG_clean_linker_0, # of connection points: 2
#     Edge 25, Type (0, 1), BuildingBlock: OJICUG_clean_linker_0, # of connection points: 2
#     Edge 26, Type (0, 1), BuildingBlock: OJICUG_clean_linker_0, # of connection points: 2
#     Edge 27, Type (0, 1), BuildingBlock: OJICUG_clean_linker_0, # of connection points: 2
#     Edge 28, Type (0, 1), BuildingBlock: OJICUG_clean_linker_0, # of connection points: 2
#     Edge 29, Type (0, 1), BuildingBlock: OJICUG_clean_linker_0, # of connection points: 2
#     Edge 30, Type (0, 1), BuildingBlock: OJICUG_clean_linker_0, # of connection points: 2
#     Edge 31, Type (0, 1), BuildingBlock: OJICUG_clean_linker_0, # of connection points: 2
#     Edge 32, Type (0, 1), BuildingBlock: OJICUG_clean_linker_0, # of connection points: 2
#     Edge 33, Type (0, 1), BuildingBlock: OJICUG_clean_linker_0, # of connection points: 2
#     Edge 34, Type (0, 1), BuildingBlock: OJICUG_clean_linker_0, # of connection points: 2
#     Edge 35, Type (0, 1), BuildingBlock: OJICUG_clean_linker_0, # of connection points: 2
# Relax obj value: 0.044
# Max RMSD: 0.130
# Mean RMSD: 0.097
data_MOF--net-nom--node1-CEKHIL_clean_sbu_0--node2-NAHDIM_clean_linker_0--edge1-OJICUG_clean_linker_0
_symmetry_space_group_name_H-M    P1
_symmetry_Int_Tables_number       1
_symmetry_cell_setting            triclinic
loop_
_symmetry_equiv_pos_as_xyz
'x, y, z'
_cell_length_a     47.21875
_cell_length_b     46.642265
_cell_length_c     56.48527
_cell_angle_alpha  90.149713
_cell_angle_beta   90.134548
_cell_angle_gamma 121.30892
loop_
_atom_site_label
_atom_site_type_symbol
_atom_site_fract_x
_atom_site_fract_y
_atom_site_fract_z
_atom_type_partial_charge
C0 C 0.1889 0.64506 0.20422 0.0
C1 C 0.20309 0.64634 0.22894 0.0
C2 C 0.15486 0.62605 0.25501 0.0
C3 C 0.14463 0.5918 0.25521 0.0
C4 C 0.11356 0.56772 0.26422 0.0
C5 C 0.0922 0.578 0.27296 0.0
C6 C 0.10265 0.61246 0.27325 0.0
C7 C 0.13409 0.63605 0.26457 0.0
C8 C 0.10342 0.53123 0.26426 0.0
C9 C 0.08033 0.6243 0.28224 0.0
C10 C 0.9382 0.50195 0.15831 0.0
C11 C 0.9072 0.47965 0.17317 0.0
C12 C 0.93354 0.47564 0.20967 0.0
C13 C 0.94429 0.50805 0.21831 0.0
C14 C 0.96545 0.52098 0.23802 0.0
C15 C 0.97632 0.50126 0.24921 0.0
C16 C 0.96514 0.46844 0.24082 0.0
C17 C 0.94356 0.45596 0.22129 0.0
C18 C 0.97667 0.55598 0.24665 0.0
C19 C 0.97653 0.44688 0.25218 0.0
C20 C 0.86029 0.45027 0.38172 0.0
C21 C 0.87809 0.48351 0.37411 0.0
C22 C 0.91217 0.49941 0.36974 0.0
C23 C 0.92834 0.48115 0.37255 0.0
C24 C 0.91043 0.44776 0.38095 0.0
C25 C 0.87651 0.43281 0.38575 0.0
C26 C 0.93065 0.53543 0.36158 0.0
C27 C 0.92686 0.4276 0.38412 0.0
C28 C 0.16957 0.58612 0.43709 0.0
C29 C 0.14218 0.57304 0.45578 0.0
C30 C 0.09509 0.56707 0.43252 0.0
C31 C 0.07796 0.5831 0.4267 0.0
C32 C 0.05384 0.5706 0.40874 0.0
C33 C 0.04626 0.54086 0.39661 0.0
C34 C 0.06279 0.52388 0.40285 0.0
C35 C 0.08729 0.53733 0.42056 0.0
C36 C 0.03679 0.58943 0.40251 0.0
C37 C 0.05472 0.49162 0.39067 0.0
C38 C 0.05822 0.55268 0.28061 0.0
C39 C 0.03394 0.53713 0.26307 0.0
C40 C 0.00067 0.51568 0.26891 0.0
C41 C 0.99115 0.50974 0.29295 0.0
C42 C 0.9577 0.48975 0.29948 0.0
C43 C 0.94857 0.48503 0.3232 0.0
C44 C 0.97257 0.49994 0.34127 0.0
C45 C 0.96345 0.49653 0.36537 0.0
C46 C 0.98791 0.50984 0.38296 0.0
C47 C 0.02153 0.52781 0.37708 0.0
C48 C 0.0311 0.53353 0.35302 0.0
C49 C 0.06458 0.55357 0.34645 0.0
C50 C 0.0736 0.55972 0.32274 0.0
C51 C 0.04951 0.54574 0.30471 0.0
C52 C 0.01575 0.52465 0.3109 0.0
C53 C 0.00649 0.51917 0.33508 0.0
C54 C 0.79486 0.3848 0.36222 0.0
C55 C 0.80503 0.42155 0.36593 0.0
O56 O 0.18436 0.65029 0.24599 0.0
O57 O 0.11886 0.58131 0.44962 0.0
O58 O 0.82718 0.43467 0.3847 0.0
O59 O 0.91398 0.46254 0.19012 0.0
H60 H 0.20239 0.62238 0.23118 0.0
H61 H 0.16456 0.62138 0.20216 0.0
H62 H 0.18488 0.66628 0.20161 0.0
H63 H 0.20578 0.64565 0.1903 0.0
H64 H 0.16057 0.58339 0.24867 0.0
H65 H 0.1423 0.6625 0.26459 0.0
H66 H 0.08267 0.51707 0.25156 0.0
H67 H 0.12411 0.52765 0.25923 0.0
H68 H 0.09441 0.52032 0.28209 0.0
H69 H 0.0913 0.6517 0.27973 0.0
H70 H 0.05605 0.6107 0.27294 0.0
H71 H 0.07559 0.61865 0.3014 0.0
H72 H 0.89889 0.49537 0.18195 0.0
H73 H 0.93263 0.5152 0.14444 0.0
H74 H 0.9585 0.52121 0.16958 0.0
H75 H 0.94703 0.48659 0.14965 0.0
H76 H 0.93654 0.52357 0.20975 0.0
H77 H 0.93504 0.43095 0.21458 0.0
H78 H 0.00347 0.57278 0.24285 0.0
H79 H 0.96288 0.56646 0.23797 0.0
H80 H 0.9734 0.55601 0.26611 0.0
H81 H 0.96673 0.42248 0.24287 0.0
H82 H 0.00404 0.46037 0.25227 0.0
H83 H 0.96823 0.4419 0.27088 0.0
H84 H 0.81692 0.43569 0.34939 0.0
H85 H 0.86512 0.49676 0.37136 0.0
H86 H 0.86228 0.40712 0.3919 0.0
H87 H 0.93607 0.53629 0.34241 0.0
H88 H 0.91605 0.54768 0.36436 0.0
H89 H 0.95466 0.5501 0.37113 0.0
H90 H 0.90901 0.40135 0.38956 0.0
H91 H 0.93883 0.42719 0.36733 0.0
H92 H 0.94659 0.43967 0.39782 0.0
H93 H 0.13006 0.54533 0.45726 0.0
H94 H 0.18842 0.57972 0.44203 0.0
H95 H 0.15904 0.57449 0.4196 0.0
H96 H 0.18189 0.61381 0.43537 0.0
H97 H 0.08401 0.60592 0.43607 0.0
H98 H 0.1001 0.52439 0.42483 0.0
H99 H 0.03883 0.59457 0.38321 0.0
H100 H 0.01002 0.57374 0.40678 0.0
H101 H 0.04741 0.61359 0.41229 0.0
H102 H 0.06675 0.47936 0.39947 0.0
H103 H 0.02749 0.47379 0.39037 0.0
H104 H 0.06327 0.49694 0.37204 0.0
H105 H 0.04092 0.5425 0.24459 0.0
H106 H 0.93818 0.47787 0.28633 0.0
H107 H 0.92242 0.46956 0.32718 0.0
H108 H 0.98069 0.50666 0.40144 0.0
H109 H 0.08416 0.56514 0.35958 0.0
H110 H 0.09969 0.57558 0.31868 0.0
H111 H 0.7824 0.36983 0.37828 0.0
H112 H 0.77787 0.37358 0.34681 0.0
H113 H 0.8171 0.38319 0.35861 0.0
C114 C 0.37246 0.8455 0.60364 0.0
C115 C 0.37424 0.83009 0.58006 0.0
C116 C 0.39759 0.87715 0.55251 0.0
C117 C 0.43 0.88337 0.55057 0.0
C118 C 0.45582 0.91427 0.54217 0.0
C119 C 0.44901 0.93925 0.53544 0.0
C120 C 0.41618 0.93259 0.53657 0.0
C121 C 0.39082 0.9014 0.54486 0.0
C122 C 0.49041 0.92032 0.54052 0.0
C123 C 0.408 0.95863 0.52938 0.0
C124 C 0.59525 0.16519 0.64317 0.0
C125 C 0.57441 0.1464 0.62236 0.0
C126 C 0.56902 0.10519 0.59315 0.0
C127 C 0.5372 0.09668 0.58547 0.0
C128 C 0.52 0.07142 0.56848 0.0
C129 C 0.53482 0.05426 0.55902 0.0
C130 C 0.56653 0.06227 0.56702 0.0
C131 C 0.58332 0.08783 0.58392 0.0
C132 C 0.48619 0.06348 0.5603 0.0
C133 C 0.58287 0.04421 0.55739 0.0
C134 C 0.60048 0.17413 0.43315 0.0
C135 C 0.56714 0.16016 0.43925 0.0
C136 C 0.54598 0.12529 0.44077 0.0
C137 C 0.55883 0.10421 0.43668 0.0
C138 C 0.59199 0.11825 0.42911 0.0
C139 C 0.61231 0.15321 0.42705 0.0
C140 C 0.51035 0.11114 0.44788 0.0
C141 C 0.60643 0.09654 0.42449 0.0
C142 C 0.42887 0.8574 0.37447 0.0
C143 C 0.44791 0.88398 0.35549 0.0
C144 C 0.45975 0.93561 0.3762 0.0
C145 C 0.44706 0.95625 0.38076 0.0
C146 C 0.46059 0.98081 0.39864 0.0
C147 C 0.48812 0.98533 0.41184 0.0
C148 C 0.50195 0.96543 0.40672 0.0
C149 C 0.48734 0.94043 0.38924 0.0
C150 C 0.44512 0.00149 0.4037 0.0
C151 C 0.53208 0.97034 0.41986 0.0
C152 C 0.47625 0.97272 0.52785 0.0
C153 C 0.49411 0.99661 0.54546 0.0
C154 C 0.51802 0.02958 0.5396 0.0
C155 C 0.52423 0.03923 0.5156 0.0
C156 C 0.54717 0.07255 0.50916 0.0
C157 C 0.55228 0.08206 0.48555 0.0
C158 C 0.5348 0.0586 0.46742 0.0
C159 C 0.53891 0.06834 0.4434 0.0
C160 C 0.5231 0.04409 0.42568 0.0
C161 C 0.50212 0.01024 0.43141 0.0
C162 C 0.49565 0.00043 0.45543 0.0
C163 C 0.47272 0.96706 0.46187 0.0
C164 C 0.46638 0.95783 0.48558 0.0
C165 C 0.48302 0.98154 0.50372 0.0
C166 C 0.50674 0.01508 0.4976 0.0
C167 C 0.51248 0.02467 0.47346 0.0
C168 C 0.66037 0.24853 0.4602 0.0
C169 C 0.62425 0.22883 0.45176 0.0
O170 O 0.37218 0.84806 0.56137 0.0
O171 O 0.4446 0.91151 0.35921 0.0
O172 O 0.62191 0.20771 0.43354 0.0
O173 O 0.58653 0.12979 0.60941 0.0
H174 H 0.39838 0.83137 0.58024 0.0
H175 H 0.3954 0.87043 0.60611 0.0
H176 H 0.3511 0.84927 0.60388 0.0
H177 H 0.37047 0.82925 0.61868 0.0
H178 H 0.43535 0.8642 0.5552 0.0
H179 H 0.36564 0.89612 0.54603 0.0
H180 H 0.50707 0.94085 0.55286 0.0
H181 H 0.49129 0.8976 0.54495 0.0
H182 H 0.50017 0.92848 0.52234 0.0
H183 H 0.3815 0.95004 0.53233 0.0
H184 H 0.42359 0.98216 0.53958 0.0
H185 H 0.41367 0.96462 0.51034 0.0
H186 H 0.56654 0.16062 0.61103 0.0
H187 H 0.56482 0.13966 0.6722 0.0
H188 H 0.62017 0.16792 0.64036 0.0
H189 H 0.60435 0.19232 0.63937 0.0
H190 H 0.52576 0.10987 0.59243 0.0
H191 H 0.60777 0.09443 0.59002 0.0
H192 H 0.46759 0.03678 0.56405 0.0
H193 H 0.47827 0.07948 0.56913 0.0
H194 H 0.48634 0.06704 0.54086 0.0
H195 H 0.60637 0.05145 0.56681 0.0
H196 H 0.56577 0.01665 0.5589 0.0
H197 H 0.58834 0.05008 0.53831 0.0
H198 H 0.60885 0.2141 0.46715 0.0
H199 H 0.55787 0.17656 0.44319 0.0
H200 H 0.63805 0.16446 0.42197 0.0
H201 H 0.50738 0.104 0.46684 0.0
H202 H 0.50254 0.12968 0.44546 0.0
H203 H 0.4936 0.08824 0.43739 0.0
H204 H 0.6328 0.11145 0.41896 0.0
H205 H 0.60468 0.08236 0.44074 0.0
H206 H 0.59193 0.07794 0.41039 0.0
H207 H 0.4745 0.89182 0.35616 0.0
H208 H 0.43119 0.83515 0.37146 0.0
H209 H 0.43907 0.86771 0.3923 0.0
H210 H 0.4022 0.84934 0.37415 0.0
H211 H 0.42591 0.95251 0.37057 0.0
H212 H 0.49784 0.92503 0.38597 0.0
H213 H 0.4392 0.00023 0.42283 0.0
H214 H 0.46306 0.02817 0.3994 0.0
H215 H 0.42211 0.99294 0.39324 0.0
H216 H 0.54288 0.95669 0.41132 0.0
H217 H 0.55144 0.99742 0.42089 0.0
H218 H 0.52505 0.96098 0.43824 0.0
H219 H 0.48872 0.98967 0.56395 0.0
H220 H 0.56123 0.09179 0.5223 0.0
H221 H 0.57018 0.10811 0.48174 0.0
H222 H 0.52716 0.05163 0.40725 0.0
H223 H 0.45909 0.94779 0.44866 0.0
H224 H 0.4483 0.93187 0.48951 0.0
H225 H 0.66332 0.2643 0.47587 0.0
H226 H 0.66834 0.23082 0.46541 0.0
H227 H 0.67685 0.26488 0.44583 0.0
C228 C 0.56042 0.37313 0.76258 0.0
C229 C 0.57438 0.37389 0.73792 0.0
C230 C 0.54489 0.39311 0.71319 0.0
C231 C 0.56857 0.42772 0.71365 0.0
C232 C 0.56002 0.45116 0.70689 0.0
C233 C 0.52719 0.4398 0.69963 0.0
C234 C 0.5036 0.40499 0.69835 0.0
C235 C 0.51295 0.38207 0.70487 0.0
C236 C 0.58595 0.48812 0.70781 0.0
C237 C 0.46831 0.39206 0.69069 0.0
C238 C 0.43647 0.55359 0.82431 0.0
C239 C 0.43664 0.53048 0.80622 0.0
C240 C 0.47295 0.5324 0.77452 0.0
C241 C 0.44859 0.50311 0.76294 0.0
C242 C 0.45594 0.49219 0.74194 0.0
C243 C 0.48824 0.51091 0.7324 0.0
C244 C 0.51274 0.54044 0.74398 0.0
C245 C 0.50472 0.55078 0.76493 0.0
C246 C 0.42935 0.46048 0.73004 0.0
C247 C 0.54746 0.56086 0.73431 0.0
C248 C 0.42373 0.58061 0.60983 0.0
C249 C 0.40713 0.54638 0.61506 0.0
C250 C 0.42451 0.52958 0.61661 0.0
C251 C 0.45933 0.54778 0.61337 0.0
C252 C 0.47589 0.58212 0.60715 0.0
C253 C 0.45767 0.59804 0.60511 0.0
C254 C 0.40573 0.4926 0.62229 0.0
C255 C 0.5129 0.60222 0.60348 0.0
C256 C 0.59385 0.45327 0.5397 0.0
C257 C 0.57785 0.46259 0.51985 0.0
C258 C 0.53633 0.46715 0.54322 0.0
C259 C 0.50315 0.44931 0.55016 0.0
C260 C 0.49194 0.4606 0.5689 0.0
C261 C 0.51455 0.49076 0.58077 0.0
C262 C 0.54787 0.50977 0.57318 0.0
C263 C 0.55847 0.49777 0.55448 0.0
C264 C 0.45619 0.43986 0.57647 0.0
C265 C 0.57243 0.54239 0.5852 0.0
C266 C 0.51699 0.46432 0.69476 0.0
C267 C 0.50834 0.47686 0.71408 0.0
C268 C 0.49684 0.49875 0.71092 0.0
C269 C 0.49326 0.50807 0.68783 0.0
C270 C 0.48068 0.52913 0.68397 0.0
C271 C 0.47614 0.5371 0.66111 0.0
C272 C 0.48434 0.52457 0.64126 0.0
C273 C 0.4784 0.53122 0.61795 0.0
C274 C 0.48866 0.52013 0.59862 0.0
C275 C 0.50386 0.50151 0.60195 0.0
C276 C 0.50812 0.4928 0.62509 0.0
C277 C 0.52148 0.47237 0.62902 0.0
C278 C 0.52457 0.4631 0.65182 0.0
C279 C 0.51482 0.47427 0.67157 0.0
C280 C 0.50235 0.49577 0.66808 0.0
C281 C 0.49846 0.50456 0.6448 0.0
C282 C 0.41548 0.63301 0.64192 0.0
C283 C 0.39122 0.60012 0.62904 0.0
O284 O 0.55167 0.36961 0.72062 0.0
O285 O 0.54582 0.45357 0.52592 0.0
O286 O 0.40738 0.5973 0.60953 0.0
O287 O 0.46692 0.54383 0.79489 0.0
H288 H 0.59763 0.3986 0.73623 0.0
H289 H 0.55829 0.39557 0.76501 0.0
H290 H 0.53538 0.35049 0.76482 0.0
H291 H 0.57723 0.37353 0.77656 0.0
H292 H 0.59381 0.43688 0.71904 0.0
H293 H 0.495 0.35535 0.70427 0.0
H294 H 0.57953 0.50036 0.72193 0.0
H295 H 0.61114 0.49279 0.71148 0.0
H296 H 0.58641 0.50017 0.69076 0.0
H297 H 0.4527 0.36425 0.69141 0.0
H298 H 0.45712 0.40286 0.70222 0.0
H299 H 0.468 0.40021 0.6723 0.0
H300 H 0.42631 0.50407 0.81209 0.0
H301 H 0.43252 0.54015 0.84165 0.0
H302 H 0.46317 0.5731 0.8282 0.0
H303 H 0.4026 0.56575 0.81074 0.0
H304 H 0.4239 0.48857 0.77025 0.0
H305 H 0.52331 0.57334 0.774 0.0
H306 H 0.42595 0.46589 0.71147 0.0
H307 H 0.43714 0.44175 0.7295 0.0
H308 H 0.40518 0.44924 0.73932 0.0
H309 H 0.56345 0.5837 0.7451 0.0
H310 H 0.55895 0.54527 0.73382 0.0
H311 H 0.54662 0.56854 0.71585 0.0
H312 H 0.38388 0.57898 0.64156 0.0
H313 H 0.38063 0.53294 0.61806 0.0
H314 H 0.47002 0.62446 0.60078 0.0
H315 H 0.41048 0.48909 0.641 0.0
H316 H 0.37857 0.48101 0.61986 0.0
H317 H 0.41427 0.4791 0.61093 0.0
H318 H 0.52224 0.62911 0.59996 0.0
H319 H 0.52574 0.60037 0.61938 0.0
H320 H 0.51948 0.5917 0.58827 0.0
H321 H 0.5929 0.49008 0.51659 0.0
H322 H 0.61916 0.45968 0.53449 0.0
H323 H 0.59613 0.46729 0.55619 0.0
H324 H 0.57867 0.42597 0.54353 0.0
H325 H 0.48618 0.42592 0.54121 0.0
H326 H 0.58409 0.51229 0.54902 0.0
H327 H 0.4549 0.43231 0.59525 0.0
H328 H 0.44442 0.45514 0.57525 0.0
H329 H 0.44174 0.41692 0.56544 0.0
H330 H 0.59669 0.55562 0.57598 0.0
H331 H 0.56234 0.55922 0.58596 0.0
H332 H 0.57655 0.53733 0.60369 0.0
H333 H 0.51032 0.46925 0.73185 0.0
H334 H 0.47377 0.53931 0.69857 0.0
H335 H 0.46606 0.55319 0.65919 0.0
H336 H 0.4843 0.5256 0.58079 0.0
H337 H 0.52926 0.4629 0.61449 0.0
H338 H 0.53467 0.44704 0.6538 0.0
H339 H 0.40526 0.63506 0.65908 0.0
H340 H 0.43897 0.63384 0.64581 0.0
H341 H 0.42124 0.65494 0.63072 0.0
C342 C 0.18562 0.52963 0.93864 0.0
C343 C 0.19929 0.54498 0.91426 0.0
C344 C 0.14908 0.52072 0.88943 0.0
C345 C 0.14234 0.54672 0.89139 0.0
C346 C 0.11186 0.54202 0.88375 0.0
C347 C 0.08744 0.51063 0.87425 0.0
C348 C 0.09422 0.48449 0.87214 0.0
C349 C 0.12518 0.49017 0.87937 0.0
C350 C 0.10577 0.57066 0.88575 0.0
C351 C 0.06877 0.45043 0.86237 0.0
C352 C 0.85807 0.3918 0.97691 0.0
C353 C 0.88276 0.39961 0.95783 0.0
C354 C 0.92167 0.44461 0.93193 0.0
C355 C 0.93464 0.42597 0.92227 0.0
C356 C 0.95992 0.43995 0.90537 0.0
C357 C 0.97324 0.47362 0.89825 0.0
C358 C 0.96124 0.49297 0.90854 0.0
C359 C 0.93527 0.47804 0.92507 0.0
C360 C 0.97214 0.41847 0.89493 0.0
C361 C 0.97545 0.52917 0.90178 0.0
C362 C 0.85575 0.43234 0.76939 0.0
C363 C 0.86662 0.41137 0.77757 0.0
C364 C 0.90053 0.42368 0.78058 0.0
C365 C 0.9238 0.45801 0.77609 0.0
C366 C 0.91285 0.47878 0.76678 0.0
C367 C 0.87882 0.4654 0.76315 0.0
C368 C 0.91129 0.4002 0.78929 0.0
C369 C 0.9369 0.51534 0.76155 0.0
C370 C 0.16541 0.51595 0.71182 0.0
C371 C 0.14361 0.53044 0.70603 0.0
C372 C 0.08612 0.50127 0.71863 0.0
C373 C 0.06298 0.46949 0.72716 0.0
C374 C 0.03898 0.46528 0.74369 0.0
C375 C 0.0378 0.49357 0.75133 0.0
C376 C 0.05966 0.52543 0.74141 0.0
C377 C 0.08372 0.52899 0.72519 0.0
C378 C 0.01566 0.43081 0.7536 0.0
C379 C 0.05818 0.55583 0.7485 0.0
C380 C 0.05454 0.50478 0.86699 0.0
C381 C 0.03101 0.49718 0.8847 0.0
C382 C 0.99836 0.48749 0.87907 0.0
C383 C 0.98897 0.48607 0.85509 0.0
C384 C 0.95631 0.47621 0.84877 0.0
C385 C 0.94678 0.473 0.82515 0.0
C386 C 0.96928 0.47859 0.8069 0.0
C387 C 0.95907 0.47261 0.7829 0.0
C388 C 0.98208 0.47857 0.76517 0.0
C389 C 0.01516 0.49007 0.77077 0.0
C390 C 0.02577 0.49587 0.7947 0.0
C391 C 0.05876 0.50694 0.801 0.0
C392 C 0.0685 0.5109 0.82465 0.0
C393 C 0.04555 0.50346 0.84292 0.0
C394 C 0.01252 0.49362 0.83697 0.0
C395 C 0.00262 0.48976 0.81282 0.0
C396 C 0.78296 0.42474 0.79045 0.0
C397 C 0.80055 0.40545 0.78589 0.0
O398 O 0.17816 0.52395 0.89664 0.0
O399 O 0.11082 0.50453 0.7045 0.0
O400 O 0.82306 0.42132 0.76773 0.0
O401 O 0.89622 0.43117 0.94776 0.0
H402 H 0.20102 0.56962 0.91406 0.0
H403 H 0.16225 0.52927 0.94196 0.0
H404 H 0.17996 0.50337 0.93946 0.0
H405 H 0.20361 0.54485 0.95282 0.0
H406 H 0.16072 0.57097 0.8984 0.0
H407 H 0.13064 0.47038 0.87768 0.0
H408 H 0.08606 0.56432 0.899 0.0
H409 H 0.12837 0.5945 0.89122 0.0
H410 H 0.09691 0.57457 0.86852 0.0
H411 H 0.07574 0.43141 0.86564 0.0
H412 H 0.04411 0.44151 0.87036 0.0
H413 H 0.06636 0.45228 0.84298 0.0
H414 H 0.87467 0.37919 0.9444 0.0
H415 H 0.88156 0.38791 0.00724 0.0
H416 H 0.85016 0.41072 0.97519 0.0
H417 H 0.83406 0.37016 0.9699 0.0
H418 H 0.92494 0.40026 0.92756 0.0
H419 H 0.92547 0.49244 0.93272 0.0
H420 H 0.97177 0.41929 0.87529 0.0
H421 H 0.99816 0.42848 0.90061 0.0
H422 H 0.95702 0.39187 0.90061 0.0
H423 H 0.96629 0.5419 0.91338 0.0
H424 H 0.00294 0.54299 0.90277 0.0
H425 H 0.96851 0.53051 0.88321 0.0
H426 H 0.81361 0.40629 0.8026 0.0
H427 H 0.84853 0.38546 0.78173 0.0
H428 H 0.86996 0.48114 0.7565 0.0
H429 H 0.91696 0.40445 0.8085 0.0
H430 H 0.89159 0.37348 0.78665 0.0
H431 H 0.93406 0.40499 0.78004 0.0
H432 H 0.92418 0.52847 0.75553 0.0
H433 H 0.95175 0.5282 0.77763 0.0
H434 H 0.95439 0.51755 0.74756 0.0
H435 H 0.14734 0.54755 0.72111 0.0
H436 H 0.19202 0.53613 0.71184 0.0
H437 H 0.1591 0.50443 0.72969 0.0
H438 H 0.16144 0.4962 0.6989 0.0
H439 H 0.0647 0.44819 0.72161 0.0
H440 H 0.10083 0.55342 0.7178 0.0
H441 H 0.01848 0.43128 0.77315 0.0
H442 H 0.98965 0.42338 0.74972 0.0
H443 H 0.02016 0.4115 0.74611 0.0
H444 H 0.07442 0.57799 0.73735 0.0
H445 H 0.03231 0.55022 0.74712 0.0
H446 H 0.0661 0.5623 0.76725 0.0
H447 H 0.03775 0.4971 0.90307 0.0
H448 H 0.93759 0.47061 0.86199 0.0
H449 H 0.92131 0.46539 0.82144 0.0
H450 H 0.97397 0.4734 0.74684 0.0
H451 H 0.07738 0.51232 0.78775 0.0
H452 H 0.09416 0.51927 0.82843 0.0
H453 H 0.76866 0.42395 0.77454 0.0
H454 H 0.76582 0.41398 0.80572 0.0
H455 H 0.80155 0.45138 0.79465 0.0
C456 C 0.42172 0.80966 0.90543 0.0
C457 C 0.43827 0.80694 0.92806 0.0
C458 C 0.48339 0.86504 0.93548 0.0
C459 C 0.46288 0.8774 0.94186 0.0
C460 C 0.47646 0.91124 0.94786 0.0
C461 C 0.51125 0.93311 0.94789 0.0
C462 C 0.53202 0.92082 0.94171 0.0
C463 C 0.51775 0.88689 0.93549 0.0
C464 C 0.45357 0.92369 0.95409 0.0
C465 C 0.56924 0.9435 0.94181 0.0
C466 C 0.59457 0.1486 0.83149 0.0
C467 C 0.57373 0.1264 0.851 0.0
C468 C 0.57928 0.09799 0.88538 0.0
C469 C 0.60158 0.09439 0.89939 0.0
C470 C 0.59045 0.07037 0.91738 0.0
C471 C 0.55602 0.04981 0.92168 0.0
C472 C 0.53319 0.05319 0.90753 0.0
C473 C 0.54503 0.0772 0.88943 0.0
C474 C 0.61553 0.06712 0.93188 0.0
C475 C 0.49637 0.03174 0.91178 0.0
C476 C 0.57844 0.16822 0.04639 0.0
C477 C 0.60386 0.1628 0.03975 0.0
C478 C 0.59816 0.13018 0.03859 0.0
C479 C 0.56596 0.10252 0.04317 0.0
C480 C 0.54084 0.10816 0.05115 0.0
C481 C 0.5477 0.14115 0.0531 0.0
C482 C 0.62612 0.1253 0.03133 0.0
C483 C 0.50635 0.07937 0.05649 0.0
C484 C 0.52651 0.8609 0.10575 0.0
C485 C 0.51086 0.88213 0.11001 0.0
C486 C 0.5379 0.94128 0.10029 0.0
C487 C 0.56903 0.96657 0.09253 0.0
C488 C 0.57215 0.99144 0.07697 0.0
C489 C 0.5434 0.99124 0.06955 0.0
C490 C 0.51217 0.96744 0.07905 0.0
C491 C 0.50971 0.94254 0.09426 0.0
C492 C 0.6059 0.01681 0.06745 0.0
C493 C 0.48121 0.96732 0.07218 0.0
C494 C 0.52564 0.96882 0.95447 0.0
C495 C 0.53343 0.99202 0.93632 0.0
C496 C 0.54428 0.0255 0.94144 0.0
C497 C 0.54605 0.03588 0.96518 0.0
C498 C 0.55374 0.06851 0.97082 0.0
C499 C 0.55643 0.07877 0.99426 0.0
C500 C 0.5528 0.05721 0.01296 0.0
C501 C 0.55749 0.06806 0.03685 0.0
C502 C 0.55407 0.04609 0.05495 0.0
C503 C 0.54552 0.01319 0.04984 0.0
C504 C 0.54004 0.00167 0.02611 0.0
C505 C 0.53073 0.96849 0.02036 0.0
C506 C 0.5255 0.95748 0.99696 0.0
C507 C 0.53029 0.97948 0.97835 0.0
C508 C 0.54009 0.01307 0.98371 0.0
C509 C 0.54423 0.02397 0.00762 0.0
C510 C 0.57759 0.23901 0.02357 0.0
C511 C 0.59738 0.2219 0.02769 0.0
O512 O 0.47124 0.83254 0.92903 0.0
O513 O 0.5357 0.91545 0.11285 0.0
O514 O 0.58271 0.19925 0.04606 0.0
O515 O 0.59184 0.12166 0.86819 0.0
H516 H 0.42491 0.80844 0.94377 0.0
H517 H 0.4218 0.83347 0.90521 0.0
H518 H 0.43502 0.80899 0.88944 0.0
H519 H 0.39551 0.7886 0.90445 0.0
H520 H 0.43624 0.86102 0.94209 0.0
H521 H 0.53341 0.8772 0.9306 0.0
H522 H 0.45912 0.94548 0.94283 0.0
H523 H 0.42702 0.904 0.9518 0.0
H524 H 0.45776 0.93236 0.9728 0.0
H525 H 0.58201 0.92974 0.93763 0.0
H526 H 0.57665 0.96373 0.92858 0.0
H527 H 0.57778 0.95567 0.95944 0.0
H528 H 0.55557 0.13239 0.85852 0.0
H529 H 0.57876 0.11667 0.80184 0.0
H530 H 0.59203 0.17126 0.83267 0.0
H531 H 0.62101 0.16228 0.83805 0.0
H532 H 0.6279 0.11047 0.89606 0.0
H533 H 0.52746 0.07974 0.87869 0.0
H534 H 0.616 0.07594 0.95023 0.0
H535 H 0.60844 0.04041 0.93285 0.0
H536 H 0.64093 0.08207 0.92447 0.0
H537 H 0.48193 0.0387 0.90009 0.0
H538 H 0.48798 0.00498 0.90858 0.0
H539 H 0.49081 0.03416 0.93052 0.0
H540 H 0.59603 0.20836 0.01102 0.0
H541 H 0.62801 0.18398 0.03526 0.0
H542 H 0.5285 0.14586 0.05861 0.0
H543 H 0.62375 0.11896 0.0122 0.0
H544 H 0.65069 0.14842 0.03429 0.0
H545 H 0.62519 0.10433 0.0413 0.0
H546 H 0.48933 0.08806 0.06165 0.0
H547 H 0.49589 0.06277 0.04072 0.0
H548 H 0.50741 0.06413 0.07113 0.0
H549 H 0.49595 0.87879 0.09376 0.0
H550 H 0.50699 0.83388 0.10448 0.0
H551 H 0.54046 0.86847 0.08884 0.0
H552 H 0.5441 0.86446 0.12017 0.0
H553 H 0.59068 0.96568 0.09767 0.0
H554 H 0.48572 0.92371 0.10104 0.0
H555 H 0.60625 0.01361 0.04798 0.0
H556 H 0.61115 0.0426 0.07081 0.0
H557 H 0.62595 0.0143 0.07558 0.0
H558 H 0.45979 0.95033 0.08352 0.0
H559 H 0.48557 0.99308 0.07343 0.0
H560 H 0.47473 0.95888 0.0535 0.0
H561 H 0.53113 0.98396 0.91801 0.0
H562 H 0.55749 0.08639 0.95717 0.0
H563 H 0.56194 0.10405 0.99743 0.0
H564 H 0.5582 0.05471 0.0732 0.0
H565 H 0.52721 0.95053 0.03388 0.0
H566 H 0.51823 0.93167 0.99361 0.0
H567 H 0.5786 0.25354 0.03952 0.0
H568 H 0.58749 0.25622 0.00817 0.0
H569 H 0.55126 0.21978 0.01979 0.0
C570 C 0.67558 0.50508 0.03756 0.0
C571 C 0.66641 0.48016 0.05797 0.0
C572 C 0.63654 0.49554 0.08565 0.0
C573 C 0.60385 0.4687 0.08209 0.0
C574 C 0.57672 0.47109 0.08948 0.0
C575 C 0.58243 0.50089 0.10055 0.0
C576 C 0.6154 0.52771 0.10447 0.0
C577 C 0.64195 0.52435 0.09732 0.0
C578 C 0.54197 0.44171 0.08569 0.0
C579 C 0.62278 0.56009 0.11611 0.0
C580 C 0.48086 0.61563 0.9917 0.0
C581 C 0.49722 0.60873 0.0116 0.0
C582 C 0.48702 0.56802 0.04242 0.0
C583 C 0.51955 0.58582 0.05154 0.0
C584 C 0.52966 0.5722 0.06937 0.0
C585 C 0.50717 0.5396 0.07793 0.0
C586 C 0.47458 0.52127 0.06857 0.0
C587 C 0.46479 0.53597 0.05117 0.0
C588 C 0.56454 0.59284 0.07906 0.0
C589 C 0.45014 0.4862 0.07692 0.0
C590 C 0.45532 0.59775 0.21298 0.0
C591 C 0.48779 0.61376 0.20463 0.0
C592 C 0.50268 0.59526 0.19923 0.0
C593 C 0.48419 0.55987 0.20179 0.0
C594 C 0.45161 0.54381 0.21094 0.0
C595 C 0.43764 0.56312 0.21669 0.0
C596 C 0.53792 0.61349 0.19034 0.0
C597 C 0.43133 0.50625 0.21407 0.0
C598 C 0.62245 0.4479 0.25609 0.0
C599 C 0.59155 0.44286 0.26875 0.0
C600 C 0.57626 0.48287 0.25572 0.0
C601 C 0.59268 0.51594 0.24769 0.0
C602 C 0.57742 0.52663 0.23158 0.0
C603 C 0.54478 0.50364 0.22367 0.0
C604 C 0.52728 0.47073 0.23291 0.0
C605 C 0.54317 0.4607 0.24897 0.0
C606 C 0.59648 0.56215 0.22247 0.0
C607 C 0.49207 0.446 0.2254 0.0
C608 C 0.55426 0.50461 0.10784 0.0
C609 C 0.53943 0.51411 0.0906 0.0
C610 C 0.51801 0.52521 0.09686 0.0
C611 C 0.51114 0.52686 0.12104 0.0
C612 C 0.49167 0.54009 0.12817 0.0
C613 C 0.48686 0.54361 0.15204 0.0
C614 C 0.50137 0.53409 0.16972 0.0
C615 C 0.49866 0.53982 0.19399 0.0
C616 C 0.51238 0.52901 0.21115 0.0
C617 C 0.52971 0.5134 0.2047 0.0
C618 C 0.53403 0.50887 0.18048 0.0
C619 C 0.55284 0.49488 0.17336 0.0
C620 C 0.5589 0.49276 0.14953 0.0
C621 C 0.54593 0.50403 0.13191 0.0
C622 C 0.5251 0.51612 0.13859 0.0
C623 C 0.51978 0.51927 0.16295 0.0
C624 C 0.3884 0.59583 0.1983 0.0
C625 C 0.42531 0.62299 0.19908 0.0
O626 O 0.66349 0.49444 0.07866 0.0
O627 O 0.59296 0.47327 0.27003 0.0
O628 O 0.44073 0.61568 0.21693 0.0
O629 O 0.47646 0.58086 0.02522 0.0
H630 H 0.64247 0.45743 0.05299 0.0
H631 H 0.65527 0.5101 0.03466 0.0
H632 H 0.69856 0.5293 0.04177 0.0
H633 H 0.67891 0.49448 0.02089 0.0
H634 H 0.59925 0.44557 0.0741 0.0
H635 H 0.66724 0.54467 0.10033 0.0
H636 H 0.52876 0.4488 0.07292 0.0
H637 H 0.54167 0.41925 0.07874 0.0
H638 H 0.52807 0.43508 0.10261 0.0
H639 H 0.64922 0.58022 0.11427 0.0
H640 H 0.60711 0.56903 0.10837 0.0
H641 H 0.61702 0.55574 0.13527 0.0
H642 H 0.51402 0.63141 0.02243 0.0
H643 H 0.50181 0.60785 0.96152 0.0
H644 H 0.45345 0.60074 0.99545 0.0
H645 H 0.48382 0.64063 0.99601 0.0
H646 H 0.5373 0.61056 0.04503 0.0
H647 H 0.43981 0.52226 0.04404 0.0
H648 H 0.56433 0.59252 0.09872 0.0
H649 H 0.57921 0.58183 0.073 0.0
H650 H 0.57726 0.61935 0.07309 0.0
H651 H 0.42707 0.47394 0.06611 0.0
H652 H 0.46154 0.47054 0.07625 0.0
H653 H 0.44346 0.48709 0.09562 0.0
H654 H 0.43645 0.62331 0.18161 0.0
H655 H 0.50121 0.6407 0.2021 0.0
H656 H 0.41261 0.5512 0.22349 0.0
H657 H 0.53791 0.60893 0.17105 0.0
H658 H 0.55056 0.64101 0.19333 0.0
H659 H 0.55243 0.60397 0.19922 0.0
H660 H 0.40571 0.49745 0.2201 0.0
H661 H 0.43005 0.49356 0.19709 0.0
H662 H 0.44351 0.49856 0.22729 0.0
H663 H 0.56998 0.42419 0.25801 0.0
H664 H 0.62224 0.42398 0.25553 0.0
H665 H 0.62279 0.45616 0.23761 0.0
H666 H 0.64544 0.46737 0.26514 0.0
H667 H 0.61795 0.53306 0.25348 0.0
H668 H 0.5297 0.43559 0.2562 0.0
H669 H 0.59982 0.56185 0.20303 0.0
H670 H 0.58221 0.5746 0.22575 0.0
H671 H 0.62126 0.57725 0.23095 0.0
H672 H 0.48122 0.42194 0.23519 0.0
H673 H 0.47639 0.457 0.22833 0.0
H674 H 0.4914 0.4407 0.20616 0.0
H675 H 0.54628 0.51491 0.07218 0.0
H676 H 0.4804 0.54846 0.1154 0.0
H677 H 0.47193 0.55428 0.15647 0.0
H678 H 0.51033 0.53361 0.22973 0.0
H679 H 0.56379 0.48616 0.18614 0.0
H680 H 0.57415 0.48245 0.14505 0.0
H681 H 0.37653 0.5944 0.21558 0.0
H682 H 0.37546 0.60122 0.18414 0.0
H683 H 0.38532 0.57103 0.19436 0.0
Co684 Co 0.62851 0.38578 0.40164 0.0
O685 O 0.65625 0.37835 0.38101 0.0
O686 O 0.67241 0.42565 0.4007 0.0
C687 C 0.60944 0.33714 0.42118 0.0
O688 O 0.60766 0.40225 0.42529 0.0
Co689 Co 0.55376 0.34024 0.40076 0.0
O690 O 0.55455 0.36233 0.43098 0.0
C691 C 0.58649 0.38747 0.36175 0.0
C692 C 0.67981 0.40838 0.38662 0.0
C693 C 0.58024 0.39017 0.43664 0.0
O694 O 0.61345 0.40145 0.37391 0.0
O695 O 0.56013 0.36078 0.36847 0.0
O696 O 0.6369 0.36402 0.4273 0.0
O697 O 0.59467 0.33966 0.40261 0.0
Co698 Co 0.2499 0.63283 0.58606 0.0
O699 O 0.28075 0.63789 0.61027 0.0
O700 O 0.26092 0.59852 0.58239 0.0
C701 C 0.27775 0.68761 0.57638 0.0
O702 O 0.219 0.62046 0.5577 0.0
Co703 Co 0.20971 0.66728 0.58974 0.0
O704 O 0.19733 0.65331 0.55627 0.0
C705 C 0.19482 0.61104 0.62124 0.0
C706 C 0.2805 0.61259 0.60049 0.0
C707 C 0.20209 0.63116 0.54717 0.0
O708 O 0.21217 0.60376 0.60784 0.0
O709 O 0.19319 0.63738 0.6184 0.0
O710 O 0.28577 0.66719 0.56734 0.0
O711 O 0.25414 0.67473 0.59184 0.0
Co712 Co 0.63809 0.24637 0.74436 0.0
O713 O 0.64355 0.28433 0.72712 0.0
O714 O 0.59862 0.24869 0.74722 0.0
C715 C 0.68824 0.27644 0.76195 0.0
O716 O 0.62297 0.2057 0.76525 0.0
Co717 Co 0.68169 0.21712 0.73855 0.0
O718 O 0.6602 0.18984 0.76704 0.0
C719 C 0.62755 0.19831 0.70441 0.0
C720 C 0.61436 0.27597 0.73477 0.0
C721 C 0.63336 0.18733 0.77369 0.0
O722 O 0.61957 0.21702 0.7156 0.0
O723 O 0.65214 0.19542 0.71018 0.0
O724 O 0.66225 0.27515 0.77072 0.0
O725 O 0.68367 0.25973 0.74246 0.0
Co726 Co 0.39369 0.61966 0.90672 0.0
O727 O 0.35607 0.61696 0.89145 0.0
O728 O 0.3535 0.57824 0.91539 0.0
C729 C 0.41468 0.6731 0.91891 0.0
O730 O 0.42735 0.6148 0.92643 0.0
Co731 Co 0.46474 0.67118 0.88993 0.0
O732 O 0.47762 0.66083 0.92068 0.0
C733 C 0.42231 0.6101 0.86165 0.0
C734 C 0.33793 0.58894 0.90253 0.0
C735 C 0.45827 0.63382 0.9317 0.0
O736 O 0.40093 0.59787 0.87844 0.0
O737 O 0.44791 0.63976 0.86201 0.0
O738 O 0.39212 0.64826 0.93121 0.0
O739 O 0.42257 0.665 0.8992 0.0
Co740 Co 0.76648 0.38579 0.06209 0.0
O741 O 0.7344 0.39222 0.07809 0.0
O742 O 0.77389 0.42986 0.05495 0.0
C743 C 0.72788 0.33451 0.04847 0.0
O744 O 0.80319 0.38762 0.04186 0.0
Co745 Co 0.77742 0.32871 0.07537 0.0
O746 O 0.79963 0.33785 0.04426 0.0
C747 C 0.80849 0.39052 0.1045 0.0
C748 C 0.74775 0.42111 0.06778 0.0
C749 C 0.81126 0.36655 0.03489 0.0
O750 O 0.79697 0.4036 0.09032 0.0
O751 O 0.80225 0.36044 0.10223 0.0
O752 O 0.73474 0.36143 0.03703 0.0
O753 O 0.74364 0.33916 0.06825 0.0
Co754 Co 0.39785 0.77308 0.22668 0.0
O755 O 0.39428 0.74057 0.20406 0.0
O756 O 0.43128 0.76202 0.23316 0.0
C757 C 0.34322 0.74546 0.23454 0.0
O758 O 0.40826 0.80559 0.25395 0.0
Co759 Co 0.36443 0.81372 0.21887 0.0
O760 O 0.37619 0.82792 0.25238 0.0
C761 C 0.42214 0.82765 0.19023 0.0
C762 C 0.41837 0.74108 0.21551 0.0
C763 C 0.39729 0.82328 0.26299 0.0
O764 O 0.42811 0.81023 0.20471 0.0
O765 O 0.3961 0.82959 0.1914 0.0
O766 O 0.36275 0.73782 0.24525 0.0
O767 O 0.35692 0.76858 0.21857 0.0
C768 C 0.2519 0.70584 0.22119 0.0
C769 C 0.23896 0.67415 0.2318 0.0
H770 H 0.29541 0.75341 0.21361 0.0
C771 C 0.25986 0.66848 0.24618 0.0
H772 H 0.23629 0.71179 0.2109 0.0
C773 C 0.29347 0.69262 0.24821 0.0
C774 C 0.30694 0.72306 0.23592 0.0
H775 H 0.25034 0.64483 0.25532 0.0
H776 H 0.3091 0.68674 0.2586 0.0
C777 C 0.28573 0.72991 0.22296 0.0
C778 C 0.60702 0.25576 0.41988 0.0
C779 C 0.6132 0.2526 0.44385 0.0
H780 H 0.59943 0.2847 0.39402 0.0
C781 C 0.61171 0.2741 0.46063 0.0
H782 H 0.60766 0.23954 0.40642 0.0
C783 C 0.60764 0.30033 0.45339 0.0
C784 C 0.6037 0.30473 0.42933 0.0
H785 H 0.61581 0.27191 0.47924 0.0
H786 H 0.60934 0.31826 0.46642 0.0
C787 C 0.60191 0.28141 0.41274 0.0
C788 C 0.34843 0.59316 0.59798 0.0
C789 C 0.35982 0.59929 0.62163 0.0
H790 H 0.31359 0.5918 0.57287 0.0
C791 C 0.34133 0.60465 0.63867 0.0
H792 H 0.36123 0.58789 0.58438 0.0
C793 C 0.31442 0.60742 0.63191 0.0
C794 C 0.30448 0.60337 0.60813 0.0
H795 H 0.34836 0.60792 0.65718 0.0
H796 H 0.30186 0.61355 0.6452 0.0
C797 C 0.32085 0.59498 0.59135 0.0
C798 C 0.75431 0.34794 0.79777 0.0
C799 C 0.77545 0.3691 0.77989 0.0
H800 H 0.70988 0.30155 0.80603 0.0
C801 C 0.7704 0.3568 0.75651 0.0
H802 H 0.7577 0.35672 0.81593 0.0
C803 C 0.74367 0.32477 0.75102 0.0
C804 C 0.72106 0.30493 0.76865 0.0
H805 H 0.7861 0.37235 0.74225 0.0
H806 H 0.73923 0.31673 0.73267 0.0
C807 C 0.72713 0.31635 0.79217 0.0
C808 C 0.45487 0.76678 0.91253 0.0
C809 C 0.4361 0.77346 0.92841 0.0
H810 H 0.46306 0.72963 0.8973 0.0
C811 C 0.41295 0.74756 0.94303 0.0
H812 H 0.47285 0.78631 0.90104 0.0
C813 C 0.4076 0.71526 0.94109 0.0
C814 C 0.42493 0.70816 0.92421 0.0
H815 H 0.39807 0.752 0.95536 0.0
H816 H 0.38861 0.69552 0.95191 0.0
C817 C 0.44928 0.73439 0.91042 0.0
C818 C 0.72188 0.48284 0.05096 0.0
C819 C 0.69068 0.46848 0.06211 0.0
H820 H 0.76457 0.47916 0.04411 0.0
C821 C 0.68101 0.44133 0.07745 0.0
H822 H 0.7309 0.50427 0.03942 0.0
C823 C 0.70071 0.42739 0.08041 0.0
C824 C 0.73066 0.44019 0.06801 0.0
H825 H 0.65748 0.43012 0.0866 0.0
H826 H 0.69166 0.40559 0.09166 0.0
C827 C 0.74153 0.46864 0.05379 0.0
C828 C 0.35491 0.77164 0.56565 0.0
C829 C 0.34738 0.79348 0.57732 0.0
H830 H 0.33866 0.72109 0.5559 0.0
C831 C 0.31484 0.78071 0.58554 0.0
H832 H 0.37938 0.78095 0.55837 0.0
C833 C 0.2915 0.7463 0.58429 0.0
C834 C 0.29996 0.72425 0.57414 0.0
H835 H 0.30758 0.79696 0.59363 0.0
H836 H 0.26718 0.73686 0.59186 0.0
C837 C 0.33148 0.7374 0.56407 0.0
C838 C 0.56034 0.31334 0.74067 0.0
C839 C 0.58304 0.3471 0.73502 0.0
H840 H 0.55255 0.26411 0.74519 0.0
C841 C 0.61437 0.35593 0.72628 0.0
H842 H 0.53556 0.30547 0.74657 0.0
C843 C 0.62373 0.33216 0.72489 0.0
C844 C 0.60201 0.29905 0.73229 0.0
H845 H 0.63205 0.38152 0.72114 0.0
H846 H 0.64859 0.3402 0.71902 0.0
C847 C 0.56992 0.28959 0.73964 0.0
C848 C 0.24811 0.53587 0.92128 0.0
C849 C 0.23416 0.5524 0.90959 0.0
H850 H 0.29215 0.53457 0.9283 0.0
C851 C 0.25353 0.57723 0.89295 0.0
H852 H 0.2338 0.51572 0.93359 0.0
C853 C 0.28674 0.58751 0.88963 0.0
C854 C 0.30146 0.5731 0.90281 0.0
H855 H 0.24325 0.58968 0.88313 0.0
H856 H 0.30122 0.60786 0.87744 0.0
C857 C 0.28158 0.5464 0.91809 0.0
C858 C 0.65361 0.26853 0.01461 0.0
C859 C 0.63332 0.2479 0.033 0.0
H860 H 0.69977 0.3123 0.00513 0.0
C861 C 0.64624 0.2538 0.05618 0.0
H862 H 0.64428 0.26448 0.99661 0.0
C863 C 0.67832 0.28051 0.0609 0.0
C864 C 0.69763 0.30236 0.0427 0.0
H865 H 0.63131 0.23852 0.07081 0.0
H866 H 0.68712 0.28531 0.07905 0.0
C867 C 0.68533 0.29573 0.01944 0.0
C868 C 0.42296 0.67247 0.18409 0.0
C869 C 0.42943 0.65711 0.20297 0.0
H870 H 0.41458 0.71144 0.17328 0.0
C871 C 0.4363 0.67231 0.22552 0.0
H872 H 0.41748 0.66124 0.16659 0.0
C873 C 0.43553 0.70156 0.22918 0.0
C874 C 0.42692 0.7155 0.21057 0.0
H875 H 0.44104 0.661 0.24053 0.0
H876 H 0.43943 0.7119 0.24691 0.0
C877 C 0.42139 0.70118 0.18789 0.0
C878 C 0.75066 0.41429 0.35262 0.0
C879 C 0.77477 0.42413 0.37051 0.0
H880 H 0.70121 0.40137 0.34384 0.0
C881 C 0.76902 0.43417 0.39266 0.0
H882 H 0.75461 0.40707 0.33527 0.0
C883 C 0.73898 0.43226 0.39718 0.0
C884 C 0.71398 0.41954 0.37988 0.0
H885 H 0.78704 0.44223 0.40686 0.0
H886 H 0.73438 0.43825 0.41476 0.0
C887 C 0.7203 0.41137 0.3574 0.0
C888 C 0.16066 0.61857 0.48728 0.0
C889 C 0.15716 0.58813 0.47969 0.0
H890 H 0.17711 0.65574 0.51465 0.0
C891 C 0.16951 0.57258 0.49415 0.0
H892 H 0.15222 0.63168 0.47628 0.0
C893 C 0.18428 0.58665 0.51596 0.0
C894 C 0.18698 0.61659 0.52385 0.0
H895 H 0.16775 0.54949 0.4885 0.0
H896 H 0.19331 0.57385 0.52673 0.0
C897 C 0.17504 0.63242 0.50924 0.0
C898 C 0.57656 0.11094 0.65555 0.0
C899 C 0.55206 0.12624 0.63999 0.0
H900 H 0.62345 0.13468 0.685 0.0
C901 C 0.54444 0.15835 0.65283 0.0
H902 H 0.57791 0.08984 0.64908 0.0
C903 C 0.57472 0.18566 0.6743 0.0
C904 C 0.60549 0.17711 0.68539 0.0
H905 H 0.52774 0.16474 0.64461 0.0
H906 H 0.57421 0.20722 0.68079 0.0
C907 C 0.60587 0.13994 0.6769 0.0
C908 C 0.44096 0.58335 0.7903 0.0
C909 C 0.41433 0.53721 0.79467 0.0
H910 H 0.46228 0.63475 0.8158 0.0
C911 C 0.38041 0.51806 0.81689 0.0
H912 H 0.45837 0.594 0.77585 0.0
C913 C 0.38553 0.54511 0.84142 0.0
C914 C 0.41767 0.58899 0.84105 0.0
H915 H 0.36343 0.49122 0.81788 0.0
H916 H 0.3695 0.53479 0.85664 0.0
C917 C 0.44411 0.60815 0.8157 0.0
C918 C 0.87565 0.35451 0.98405 0.0
C919 C 0.90204 0.39972 0.97676 0.0
H920 H 0.82282 0.3182 0.0062 0.0
C921 C 0.90481 0.43374 0.996 0.0
H922 H 0.87663 0.33531 0.97394 0.0
C923 C 0.86918 0.42077 0.01464 0.0
C924 C 0.83762 0.37685 0.01737 0.0
H925 H 0.92275 0.45998 0.99291 0.0
H926 H 0.86715 0.43939 0.02467 0.0
C927 C 0.84125 0.34427 0.00304 0.0
C928 C 0.50052 0.86808 0.15376 0.0
C929 C 0.48852 0.8703 0.13146 0.0
H930 H 0.4887 0.8523 0.18984 0.0
C931 C 0.45515 0.86099 0.12922 0.0
H932 H 0.5263 0.87588 0.15617 0.0
C933 C 0.43391 0.84851 0.14864 0.0
C934 C 0.44549 0.84453 0.17057 0.0
H935 H 0.4453 0.86278 0.11232 0.0
H936 H 0.40812 0.84073 0.14622 0.0
C937 C 0.47907 0.85478 0.17304 0.0
C938 C 0.56303 0.39699 0.29931 0.0
C939 C 0.5891 0.4293 0.29342 0.0
H940 H 0.54152 0.35852 0.32557 0.0
C941 C 0.6133 0.44843 0.3106 0.0
H942 H 0.54395 0.38176 0.28645 0.0
C943 C 0.61212 0.43506 0.33292 0.0
C944 C 0.58645 0.40242 0.33867 0.0
H945 H 0.63345 0.47356 0.30661 0.0
H946 H 0.63151 0.45023 0.34561 0.0
C947 C 0.56161 0.38374 0.32174 0.0
C948 C 0.40785 0.86931 0.32094 0.0
C949 C 0.43497 0.86919 0.33118 0.0
H950 H 0.37493 0.85533 0.29125 0.0
C951 C 0.44903 0.85328 0.31906 0.0
H952 H 0.39597 0.88065 0.33013 0.0
C953 C 0.43681 0.83846 0.29696 0.0
C954 C 0.41011 0.8391 0.28646 0.0
H955 H 0.4695 0.85222 0.32677 0.0
H956 H 0.4484 0.82655 0.28813 0.0
C957 C 0.39575 0.85469 0.2987 0.0
C958 C 0.55114 0.41143 0.49285 0.0
C959 C 0.57707 0.44452 0.49734 0.0
H960 H 0.53151 0.36856 0.47003 0.0
C961 C 0.60388 0.45968 0.48158 0.0
H962 H 0.53054 0.39876 0.50498 0.0
C963 C 0.60469 0.44224 0.46169 0.0
C964 C 0.5787 0.40919 0.45714 0.0
H965 H 0.62448 0.4849 0.48488 0.0
H966 H 0.62586 0.45461 0.45001 0.0
C967 C 0.55178 0.39409 0.47285 0.0
C968 C 0.16109 0.58344 0.68298 0.0
C969 C 0.15395 0.55021 0.68321 0.0
H970 H 0.17919 0.62861 0.66307 0.0
C971 C 0.15703 0.53604 0.66208 0.0
H972 H 0.1584 0.59484 0.69887 0.0
C973 C 0.16949 0.55555 0.64169 0.0
C974 C 0.17805 0.58925 0.6418 0.0
H975 H 0.15071 0.51017 0.66148 0.0
H976 H 0.17286 0.54439 0.62592 0.0
C977 C 0.17283 0.60271 0.66245 0.0
C978 C 0.60042 0.103 0.8244 0.0
C979 C 0.56181 0.10192 0.83306 0.0
H980 H 0.65109 0.14108 0.80042 0.0
C981 C 0.5423 0.1198 0.81438 0.0
H982 H 0.60965 0.08959 0.83419 0.0
C983 C 0.5703 0.15234 0.79457 0.0
C984 C 0.61197 0.16099 0.79036 0.0
H985 H 0.51841 0.1164 0.81861 0.0
H986 H 0.562 0.16683 0.78515 0.0
C987 C 0.62651 0.13612 0.80423 0.0
C988 C 0.53619 0.64361 0.9807 0.0
C989 C 0.51159 0.60066 0.99306 0.0
H990 H 0.52539 0.68028 0.95456 0.0
C991 C 0.4743 0.56583 0.97781 0.0
H992 H 0.55936 0.66262 0.98862 0.0
C993 C 0.45397 0.57956 0.95768 0.0
C994 C 0.47321 0.62339 0.94994 0.0
H995 H 0.46218 0.54016 0.9839 0.0
H996 H 0.4304 0.5613 0.94986 0.0
C997 C 0.51395 0.65463 0.96057 0.0
C998 C 0.85868 0.46403 0.14602 0.0
C999 C 0.87952 0.45489 0.15706 0.0
H1000 H 0.81969 0.45083 0.12095 0.0
C1001 C 0.87608 0.42391 0.1512 0.0
H1002 H 0.86124 0.48803 0.1499 0.0
C1003 C 0.85216 0.40248 0.1348 0.0
C1004 C 0.83165 0.41186 0.12347 0.0
H1005 H 0.8923 0.41649 0.15896 0.0
H1006 H 0.85055 0.37904 0.13044 0.0
C1007 C 0.835 0.44278 0.1294 0.0
loop_
_geom_bond_atom_site_label_1
_geom_bond_atom_site_label_2
_geom_bond_distance
_geom_bond_site_symmetry_2
_ccdc_geom_bond_type
C0 C1 1.560 . S
C0 H61 0.959 . S
C0 H62 0.959 . S
C0 H63 0.960 . S
C1 C0 1.560 . S
C1 O56 1.426 . S
C1 H60 0.980 . S
C2 C3 1.407 . S
C2 C7 1.418 . S
C2 O56 1.334 . S
C3 C2 1.407 . S
C3 C4 1.360 . S
C3 H64 0.929 . S
C4 C3 1.360 . S
C4 C5 1.401 . S
C4 C8 1.527 . S
C5 C4 1.401 . S
C5 C6 1.405 . S
C5 C38 1.587 . S
C6 C5 1.405 . S
C6 C7 1.332 . S
C6 C9 1.496 . S
C7 C2 1.418 . S
C7 C6 1.332 . S
C7 H65 0.929 . S
C8 C4 1.527 . S
C8 H66 0.959 . S
C8 H67 0.961 . S
C8 H68 0.961 . S
C9 C6 1.496 . S
C9 H69 0.960 . S
C9 H70 0.960 . S
C9 H71 0.961 . S
C10 C11 1.517 . S
C10 H73 0.961 . S
C10 H74 0.960 . S
C10 H75 0.959 . S
C11 C10 1.517 . S
C11 O59 1.468 . S
C11 H72 0.980 . S
C12 C13 1.349 . S
C12 C17 1.367 . S
C12 O59 1.408 . S
C13 C12 1.349 . S
C13 C14 1.407 . S
C13 H76 0.930 . S
C14 C13 1.407 . S
C14 C15 1.449 . S
C14 C18 1.535 . S
C15 C14 1.449 . S
C15 C16 1.384 . S
C15 C40 1.553 1_655 S
C16 C15 1.384 . S
C16 C17 1.364 . S
C16 C19 1.450 . S
C17 C12 1.367 . S
C17 C16 1.364 . S
C17 H77 0.931 . S
C18 C14 1.535 . S
C18 H78 0.959 1_655 S
C18 H79 0.961 1_655 S
C18 H80 0.959 . S
C19 C16 1.450 . S
C19 H81 0.960 . S
C19 H82 0.960 1_655 S
C19 H83 0.960 . S
C20 C21 1.309 . S
C20 C25 1.304 . S
C20 O58 1.435 . S
C21 C20 1.309 . S
C21 C22 1.476 . S
C21 H85 0.930 . S
C22 C21 1.476 . S
C22 C23 1.400 . S
C22 C26 1.567 . S
C23 C22 1.400 . S
C23 C24 1.373 . S
C23 C45 1.432 . S
C24 C23 1.373 . S
C24 C25 1.339 . S
C24 C27 1.530 . S
C25 C20 1.304 . S
C25 C24 1.339 . S
C25 H86 0.930 . S
C26 C22 1.567 . S
C26 H87 0.961 . S
C26 H88 0.960 . S
C26 H89 0.958 . S
C27 C24 1.530 . S
C27 H90 0.961 . S
C27 H91 0.960 . S
C27 H92 0.960 . S
C28 C29 1.530 . S
C28 H94 0.961 . S
C28 H95 0.961 . S
C28 H96 0.959 . S
C29 C28 1.530 . S
C29 O57 1.412 . S
C29 H93 0.980 . S
C30 C31 1.288 . S
C30 C35 1.377 . S
C30 O57 1.393 . S
C31 C30 1.288 . S
C31 C32 1.369 . S
C31 H97 0.932 . S
C32 C31 1.369 . S
C32 C33 1.398 . S
C32 C36 1.527 . S
C33 C32 1.398 . S
C33 C34 1.380 . S
C33 C47 1.497 . S
C34 C33 1.380 . S
C34 C35 1.383 . S
C34 C37 1.603 . S
C35 C30 1.377 . S
C35 C34 1.383 . S
C35 H98 0.929 . S
C36 C32 1.527 . S
C36 H99 0.961 . S
C36 H100 0.959 . S
C36 H101 0.959 . S
C37 C34 1.603 . S
C37 H102 0.960 . S
C37 H103 0.962 . S
C37 H104 0.961 . S
C38 C5 1.587 . S
C38 C39 1.360 . S
C38 C51 1.412 . S
C39 C38 1.360 . S
C39 C40 1.365 . S
C39 H105 0.929 . S
C40 C15 1.553 1_455 S
C40 C39 1.365 . S
C40 C41 1.404 . S
C41 C40 1.404 . S
C41 C42 1.395 1_455 S
C41 C52 1.451 . S
C42 C41 1.395 1_655 S
C42 C43 1.322 . S
C42 H106 0.930 . S
C43 C42 1.322 . S
C43 C44 1.459 . S
C43 H107 0.929 . S
C44 C43 1.459 . S
C44 C45 1.445 . S
C44 C53 1.395 1_655 S
C45 C23 1.432 . S
C45 C44 1.445 . S
C45 C46 1.370 . S
C46 C45 1.370 . S
C46 C47 1.438 1_655 S
C46 H108 0.930 . S
C47 C33 1.497 . S
C47 C46 1.438 1_455 S
C47 C48 1.360 . S
C48 C47 1.360 . S
C48 C49 1.401 . S
C48 C53 1.446 . S
C49 C48 1.401 . S
C49 C50 1.347 . S
C49 H109 0.929 . S
C50 C49 1.347 . S
C50 C51 1.455 . S
C50 H110 0.930 . S
C51 C38 1.412 . S
C51 C50 1.455 . S
C51 C52 1.331 . S
C52 C41 1.451 . S
C52 C51 1.331 . S
C52 C53 1.497 . S
C53 C44 1.395 1_455 S
C53 C48 1.446 . S
C53 C52 1.497 . S
C54 C55 1.582 . S
C54 H111 0.962 . S
C54 H112 0.959 . S
C54 H113 0.958 . S
C55 C54 1.582 . S
C55 O58 1.458 . S
C55 H84 0.980 . S
O56 C1 1.426 . S
O56 C2 1.334 . S
O57 C29 1.412 . S
O57 C30 1.393 . S
O58 C20 1.435 . S
O58 C55 1.458 . S
O59 C11 1.468 . S
O59 C12 1.408 . S
H60 C1 0.980 . S
H61 C0 0.959 . S
H62 C0 0.959 . S
H63 C0 0.960 . S
H64 C3 0.929 . S
H65 C7 0.929 . S
H66 C8 0.959 . S
H67 C8 0.961 . S
H68 C8 0.961 . S
H69 C9 0.960 . S
H70 C9 0.960 . S
H71 C9 0.961 . S
H72 C11 0.980 . S
H73 C10 0.961 . S
H74 C10 0.960 . S
H75 C10 0.959 . S
H76 C13 0.930 . S
H77 C17 0.931 . S
H78 C18 0.959 1_455 S
H79 C18 0.961 1_455 S
H80 C18 0.959 . S
H81 C19 0.960 . S
H82 C19 0.960 1_455 S
H83 C19 0.960 . S
H84 C55 0.980 . S
H85 C21 0.930 . S
H86 C25 0.930 . S
H87 C26 0.961 . S
H88 C26 0.960 . S
H89 C26 0.958 . S
H90 C27 0.961 . S
H91 C27 0.960 . S
H92 C27 0.960 . S
H93 C29 0.980 . S
H94 C28 0.961 . S
H95 C28 0.961 . S
H96 C28 0.959 . S
H97 C31 0.932 . S
H98 C35 0.929 . S
H99 C36 0.961 . S
H100 C36 0.959 . S
H101 C36 0.959 . S
H102 C37 0.960 . S
H103 C37 0.962 . S
H104 C37 0.961 . S
H105 C39 0.929 . S
H106 C42 0.930 . S
H107 C43 0.929 . S
H108 C46 0.930 . S
H109 C49 0.929 . S
H110 C50 0.930 . S
H111 C54 0.962 . S
H112 C54 0.959 . S
H113 C54 0.958 . S
C114 C115 1.560 . S
C114 H175 0.959 . S
C114 H176 0.959 . S
C114 H177 0.960 . S
C115 C114 1.560 . S
C115 O170 1.426 . S
C115 H174 0.980 . S
C116 C117 1.407 . S
C116 C121 1.418 . S
C116 O170 1.334 . S
C117 C116 1.407 . S
C117 C118 1.360 . S
C117 H178 0.929 . S
C118 C117 1.360 . S
C118 C119 1.401 . S
C118 C122 1.527 . S
C119 C118 1.401 . S
C119 C120 1.405 . S
C119 C152 1.587 . S
C120 C119 1.405 . S
C120 C121 1.332 . S
C120 C123 1.496 . S
C121 C116 1.418 . S
C121 C120 1.332 . S
C121 H179 0.929 . S
C122 C118 1.527 . S
C122 H180 0.959 . S
C122 H181 0.961 . S
C122 H182 0.961 . S
C123 C120 1.496 . S
C123 H183 0.960 . S
C123 H184 0.960 . S
C123 H185 0.961 . S
C124 C125 1.517 . S
C124 H187 0.961 . S
C124 H188 0.960 . S
C124 H189 0.959 . S
C125 C124 1.517 . S
C125 O173 1.468 . S
C125 H186 0.980 . S
C126 C127 1.349 . S
C126 C131 1.367 . S
C126 O173 1.408 . S
C127 C126 1.349 . S
C127 C128 1.407 . S
C127 H190 0.930 . S
C128 C127 1.407 . S
C128 C129 1.449 . S
C128 C132 1.535 . S
C129 C128 1.449 . S
C129 C130 1.384 . S
C129 C154 1.553 . S
C130 C129 1.384 . S
C130 C131 1.364 . S
C130 C133 1.450 . S
C131 C126 1.367 . S
C131 C130 1.364 . S
C131 H191 0.931 . S
C132 C128 1.535 . S
C132 H192 0.959 . S
C132 H193 0.961 . S
C132 H194 0.959 . S
C133 C130 1.450 . S
C133 H195 0.960 . S
C133 H196 0.960 . S
C133 H197 0.960 . S
C134 C135 1.309 . S
C134 C139 1.304 . S
C134 O172 1.435 . S
C135 C134 1.309 . S
C135 C136 1.476 . S
C135 H199 0.930 . S
C136 C135 1.476 . S
C136 C137 1.400 . S
C136 C140 1.567 . S
C137 C136 1.400 . S
C137 C138 1.373 . S
C137 C159 1.432 . S
C138 C137 1.373 . S
C138 C139 1.339 . S
C138 C141 1.530 . S
C139 C134 1.304 . S
C139 C138 1.339 . S
C139 H200 0.930 . S
C140 C136 1.567 . S
C140 H201 0.961 . S
C140 H202 0.960 . S
C140 H203 0.958 . S
C141 C138 1.530 . S
C141 H204 0.961 . S
C141 H205 0.960 . S
C141 H206 0.960 . S
C142 C143 1.530 . S
C142 H208 0.961 . S
C142 H209 0.961 . S
C142 H210 0.959 . S
C143 C142 1.530 . S
C143 O171 1.412 . S
C143 H207 0.980 . S
C144 C145 1.288 . S
C144 C149 1.377 . S
C144 O171 1.393 . S
C145 C144 1.288 . S
C145 C146 1.369 . S
C145 H211 0.932 . S
C146 C145 1.369 . S
C146 C147 1.398 . S
C146 C150 1.527 1_565 S
C147 C146 1.398 . S
C147 C148 1.380 . S
C147 C161 1.497 1_565 S
C148 C147 1.380 . S
C148 C149 1.383 . S
C148 C151 1.603 . S
C149 C144 1.377 . S
C149 C148 1.383 . S
C149 H212 0.929 . S
C150 C146 1.527 1_545 S
C150 H213 0.961 . S
C150 H214 0.959 . S
C150 H215 0.959 1_545 S
C151 C148 1.603 . S
C151 H216 0.960 . S
C151 H217 0.962 . S
C151 H218 0.961 . S
C152 C119 1.587 . S
C152 C153 1.360 . S
C152 C165 1.412 . S
C153 C152 1.360 . S
C153 C154 1.365 1_565 S
C153 H219 0.929 . S
C154 C129 1.553 . S
C154 C153 1.365 1_545 S
C154 C155 1.404 . S
C155 C154 1.404 . S
C155 C156 1.395 . S
C155 C166 1.451 . S
C156 C155 1.395 . S
C156 C157 1.322 . S
C156 H220 0.930 . S
C157 C156 1.322 . S
C157 C158 1.459 . S
C157 H221 0.929 . S
C158 C157 1.459 . S
C158 C159 1.445 . S
C158 C167 1.395 . S
C159 C137 1.432 . S
C159 C158 1.445 . S
C159 C160 1.370 . S
C160 C159 1.370 . S
C160 C161 1.438 . S
C160 H222 0.930 . S
C161 C147 1.497 1_545 S
C161 C160 1.438 . S
C161 C162 1.360 1_545 S
C162 C161 1.360 1_565 S
C162 C163 1.401 . S
C162 C167 1.446 1_565 S
C163 C162 1.401 . S
C163 C164 1.347 . S
C163 H223 0.929 . S
C164 C163 1.347 . S
C164 C165 1.455 . S
C164 H224 0.930 . S
C165 C152 1.412 . S
C165 C164 1.455 . S
C165 C166 1.331 1_565 S
C166 C155 1.451 . S
C166 C165 1.331 1_545 S
C166 C167 1.497 . S
C167 C158 1.395 . S
C167 C162 1.446 1_545 S
C167 C166 1.497 . S
C168 C169 1.582 . S
C168 H225 0.962 . S
C168 H226 0.959 . S
C168 H227 0.958 . S
C169 C168 1.582 . S
C169 O172 1.458 . S
C169 H198 0.980 . S
O170 C115 1.426 . S
O170 C116 1.334 . S
O171 C143 1.412 . S
O171 C144 1.393 . S
O172 C134 1.435 . S
O172 C169 1.458 . S
O173 C125 1.468 . S
O173 C126 1.408 . S
H174 C115 0.980 . S
H175 C114 0.959 . S
H176 C114 0.959 . S
H177 C114 0.960 . S
H178 C117 0.929 . S
H179 C121 0.929 . S
H180 C122 0.959 . S
H181 C122 0.961 . S
H182 C122 0.961 . S
H183 C123 0.960 . S
H184 C123 0.960 . S
H185 C123 0.961 . S
H186 C125 0.980 . S
H187 C124 0.961 . S
H188 C124 0.960 . S
H189 C124 0.959 . S
H190 C127 0.930 . S
H191 C131 0.931 . S
H192 C132 0.959 . S
H193 C132 0.961 . S
H194 C132 0.959 . S
H195 C133 0.960 . S
H196 C133 0.960 . S
H197 C133 0.960 . S
H198 C169 0.980 . S
H199 C135 0.930 . S
H200 C139 0.930 . S
H201 C140 0.961 . S
H202 C140 0.960 . S
H203 C140 0.958 . S
H204 C141 0.961 . S
H205 C141 0.960 . S
H206 C141 0.960 . S
H207 C143 0.980 . S
H208 C142 0.961 . S
H209 C142 0.961 . S
H210 C142 0.959 . S
H211 C145 0.932 . S
H212 C149 0.929 . S
H213 C150 0.961 . S
H214 C150 0.959 . S
H215 C150 0.959 1_565 S
H216 C151 0.960 . S
H217 C151 0.962 . S
H218 C151 0.961 . S
H219 C153 0.929 . S
H220 C156 0.930 . S
H221 C157 0.929 . S
H222 C160 0.930 . S
H223 C163 0.929 . S
H224 C164 0.930 . S
H225 C168 0.962 . S
H226 C168 0.959 . S
H227 C168 0.958 . S
C228 C229 1.560 . S
C228 H289 0.959 . S
C228 H290 0.959 . S
C228 H291 0.960 . S
C229 C228 1.560 . S
C229 O284 1.426 . S
C229 H288 0.980 . S
C230 C231 1.407 . S
C230 C235 1.418 . S
C230 O284 1.334 . S
C231 C230 1.407 . S
C231 C232 1.360 . S
C231 H292 0.929 . S
C232 C231 1.360 . S
C232 C233 1.401 . S
C232 C236 1.527 . S
C233 C232 1.401 . S
C233 C234 1.405 . S
C233 C266 1.587 . S
C234 C233 1.405 . S
C234 C235 1.332 . S
C234 C237 1.496 . S
C235 C230 1.418 . S
C235 C234 1.332 . S
C235 H293 0.929 . S
C236 C232 1.527 . S
C236 H294 0.959 . S
C236 H295 0.961 . S
C236 H296 0.961 . S
C237 C234 1.496 . S
C237 H297 0.960 . S
C237 H298 0.960 . S
C237 H299 0.961 . S
C238 C239 1.517 . S
C238 H301 0.961 . S
C238 H302 0.960 . S
C238 H303 0.959 . S
C239 C238 1.517 . S
C239 O287 1.468 . S
C239 H300 0.980 . S
C240 C241 1.349 . S
C240 C245 1.367 . S
C240 O287 1.408 . S
C241 C240 1.349 . S
C241 C242 1.407 . S
C241 H304 0.930 . S
C242 C241 1.407 . S
C242 C243 1.449 . S
C242 C246 1.535 . S
C243 C242 1.449 . S
C243 C244 1.384 . S
C243 C268 1.553 . S
C244 C243 1.384 . S
C244 C245 1.364 . S
C244 C247 1.450 . S
C245 C240 1.367 . S
C245 C244 1.364 . S
C245 H305 0.931 . S
C246 C242 1.535 . S
C246 H306 0.959 . S
C246 H307 0.961 . S
C246 H308 0.959 . S
C247 C244 1.450 . S
C247 H309 0.960 . S
C247 H310 0.960 . S
C247 H311 0.960 . S
C248 C249 1.309 . S
C248 C253 1.304 . S
C248 O286 1.435 . S
C249 C248 1.309 . S
C249 C250 1.476 . S
C249 H313 0.930 . S
C250 C249 1.476 . S
C250 C251 1.400 . S
C250 C254 1.567 . S
C251 C250 1.400 . S
C251 C252 1.373 . S
C251 C273 1.432 . S
C252 C251 1.373 . S
C252 C253 1.339 . S
C252 C255 1.530 . S
C253 C248 1.304 . S
C253 C252 1.339 . S
C253 H314 0.930 . S
C254 C250 1.567 . S
C254 H315 0.961 . S
C254 H316 0.960 . S
C254 H317 0.958 . S
C255 C252 1.530 . S
C255 H318 0.961 . S
C255 H319 0.960 . S
C255 H320 0.960 . S
C256 C257 1.530 . S
C256 H322 0.961 . S
C256 H323 0.961 . S
C256 H324 0.959 . S
C257 C256 1.530 . S
C257 O285 1.412 . S
C257 H321 0.980 . S
C258 C259 1.288 . S
C258 C263 1.377 . S
C258 O285 1.393 . S
C259 C258 1.288 . S
C259 C260 1.369 . S
C259 H325 0.932 . S
C260 C259 1.369 . S
C260 C261 1.398 . S
C260 C264 1.527 . S
C261 C260 1.398 . S
C261 C262 1.380 . S
C261 C275 1.497 . S
C262 C261 1.380 . S
C262 C263 1.383 . S
C262 C265 1.603 . S
C263 C258 1.377 . S
C263 C262 1.383 . S
C263 H326 0.929 . S
C264 C260 1.527 . S
C264 H327 0.961 . S
C264 H328 0.959 . S
C264 H329 0.959 . S
C265 C262 1.603 . S
C265 H330 0.960 . S
C265 H331 0.962 . S
C265 H332 0.961 . S
C266 C233 1.587 . S
C266 C267 1.360 . S
C266 C279 1.412 . S
C267 C266 1.360 . S
C267 C268 1.365 . S
C267 H333 0.929 . S
C268 C243 1.553 . S
C268 C267 1.365 . S
C268 C269 1.404 . S
C269 C268 1.404 . S
C269 C270 1.395 . S
C269 C280 1.451 . S
C270 C269 1.395 . S
C270 C271 1.322 . S
C270 H334 0.930 . S
C271 C270 1.322 . S
C271 C272 1.459 . S
C271 H335 0.929 . S
C272 C271 1.459 . S
C272 C273 1.445 . S
C272 C281 1.395 . S
C273 C251 1.432 . S
C273 C272 1.445 . S
C273 C274 1.370 . S
C274 C273 1.370 . S
C274 C275 1.438 . S
C274 H336 0.930 . S
C275 C261 1.497 . S
C275 C274 1.438 . S
C275 C276 1.360 . S
C276 C275 1.360 . S
C276 C277 1.401 . S
C276 C281 1.446 . S
C277 C276 1.401 . S
C277 C278 1.347 . S
C277 H337 0.929 . S
C278 C277 1.347 . S
C278 C279 1.455 . S
C278 H338 0.930 . S
C279 C266 1.412 . S
C279 C278 1.455 . S
C279 C280 1.331 . S
C280 C269 1.451 . S
C280 C279 1.331 . S
C280 C281 1.497 . S
C281 C272 1.395 . S
C281 C276 1.446 . S
C281 C280 1.497 . S
C282 C283 1.582 . S
C282 H339 0.962 . S
C282 H340 0.959 . S
C282 H341 0.958 . S
C283 C282 1.582 . S
C283 O286 1.458 . S
C283 H312 0.980 . S
O284 C229 1.426 . S
O284 C230 1.334 . S
O285 C257 1.412 . S
O285 C258 1.393 . S
O286 C248 1.435 . S
O286 C283 1.458 . S
O287 C239 1.468 . S
O287 C240 1.408 . S
H288 C229 0.980 . S
H289 C228 0.959 . S
H290 C228 0.959 . S
H291 C228 0.960 . S
H292 C231 0.929 . S
H293 C235 0.929 . S
H294 C236 0.959 . S
H295 C236 0.961 . S
H296 C236 0.961 . S
H297 C237 0.960 . S
H298 C237 0.960 . S
H299 C237 0.961 . S
H300 C239 0.980 . S
H301 C238 0.961 . S
H302 C238 0.960 . S
H303 C238 0.959 . S
H304 C241 0.930 . S
H305 C245 0.931 . S
H306 C246 0.959 . S
H307 C246 0.961 . S
H308 C246 0.959 . S
H309 C247 0.960 . S
H310 C247 0.960 . S
H311 C247 0.960 . S
H312 C283 0.980 . S
H313 C249 0.930 . S
H314 C253 0.930 . S
H315 C254 0.961 . S
H316 C254 0.960 . S
H317 C254 0.958 . S
H318 C255 0.961 . S
H319 C255 0.960 . S
H320 C255 0.960 . S
H321 C257 0.980 . S
H322 C256 0.961 . S
H323 C256 0.961 . S
H324 C256 0.959 . S
H325 C259 0.932 . S
H326 C263 0.929 . S
H327 C264 0.961 . S
H328 C264 0.959 . S
H329 C264 0.959 . S
H330 C265 0.960 . S
H331 C265 0.962 . S
H332 C265 0.961 . S
H333 C267 0.929 . S
H334 C270 0.930 . S
H335 C271 0.929 . S
H336 C274 0.930 . S
H337 C277 0.929 . S
H338 C278 0.930 . S
H339 C282 0.962 . S
H340 C282 0.959 . S
H341 C282 0.958 . S
C342 C343 1.560 . S
C342 H403 0.959 . S
C342 H404 0.959 . S
C342 H405 0.960 . S
C343 C342 1.560 . S
C343 O398 1.426 . S
C343 H402 0.980 . S
C344 C345 1.407 . S
C344 C349 1.418 . S
C344 O398 1.334 . S
C345 C344 1.407 . S
C345 C346 1.360 . S
C345 H406 0.929 . S
C346 C345 1.360 . S
C346 C347 1.401 . S
C346 C350 1.527 . S
C347 C346 1.401 . S
C347 C348 1.405 . S
C347 C380 1.587 . S
C348 C347 1.405 . S
C348 C349 1.332 . S
C348 C351 1.496 . S
C349 C344 1.418 . S
C349 C348 1.332 . S
C349 H407 0.929 . S
C350 C346 1.527 . S
C350 H408 0.959 . S
C350 H409 0.961 . S
C350 H410 0.961 . S
C351 C348 1.496 . S
C351 H411 0.960 . S
C351 H412 0.960 . S
C351 H413 0.961 . S
C352 C353 1.517 . S
C352 H415 0.961 . S
C352 H416 0.960 . S
C352 H417 0.959 . S
C353 C352 1.517 . S
C353 O401 1.468 . S
C353 H414 0.980 . S
C354 C355 1.349 . S
C354 C359 1.367 . S
C354 O401 1.408 . S
C355 C354 1.349 . S
C355 C356 1.407 . S
C355 H418 0.930 . S
C356 C355 1.407 . S
C356 C357 1.449 . S
C356 C360 1.535 . S
C357 C356 1.449 . S
C357 C358 1.384 . S
C357 C382 1.553 1_655 S
C358 C357 1.384 . S
C358 C359 1.364 . S
C358 C361 1.450 . S
C359 C354 1.367 . S
C359 C358 1.364 . S
C359 H419 0.931 . S
C360 C356 1.535 . S
C360 H420 0.959 1_655 S
C360 H421 0.961 1_655 S
C360 H422 0.959 . S
C361 C358 1.450 . S
C361 H423 0.960 . S
C361 H424 0.960 1_655 S
C361 H425 0.960 . S
C362 C363 1.309 . S
C362 C367 1.304 . S
C362 O400 1.435 . S
C363 C362 1.309 . S
C363 C364 1.476 . S
C363 H427 0.930 . S
C364 C363 1.476 . S
C364 C365 1.400 . S
C364 C368 1.567 . S
C365 C364 1.400 . S
C365 C366 1.373 . S
C365 C387 1.432 . S
C366 C365 1.373 . S
C366 C367 1.339 . S
C366 C369 1.530 . S
C367 C362 1.304 . S
C367 C366 1.339 . S
C367 H428 0.930 . S
C368 C364 1.567 . S
C368 H429 0.961 . S
C368 H430 0.960 . S
C368 H431 0.958 . S
C369 C366 1.530 . S
C369 H432 0.961 . S
C369 H433 0.960 . S
C369 H434 0.960 . S
C370 C371 1.530 . S
C370 H436 0.961 . S
C370 H437 0.961 . S
C370 H438 0.959 . S
C371 C370 1.530 . S
C371 O399 1.412 . S
C371 H435 0.980 . S
C372 C373 1.288 . S
C372 C377 1.377 . S
C372 O399 1.393 . S
C373 C372 1.288 . S
C373 C374 1.369 . S
C373 H439 0.932 . S
C374 C373 1.369 . S
C374 C375 1.398 . S
C374 C378 1.527 . S
C375 C374 1.398 . S
C375 C376 1.380 . S
C375 C389 1.497 . S
C376 C375 1.380 . S
C376 C377 1.383 . S
C376 C379 1.603 . S
C377 C372 1.377 . S
C377 C376 1.383 . S
C377 H440 0.929 . S
C378 C374 1.527 . S
C378 H441 0.961 . S
C378 H442 0.959 1_455 S
C378 H443 0.959 . S
C379 C376 1.603 . S
C379 H444 0.960 . S
C379 H445 0.962 . S
C379 H446 0.961 . S
C380 C347 1.587 . S
C380 C381 1.360 . S
C380 C393 1.412 . S
C381 C380 1.360 . S
C381 C382 1.365 . S
C381 H447 0.929 . S
C382 C357 1.553 1_455 S
C382 C381 1.365 . S
C382 C383 1.404 . S
C383 C382 1.404 . S
C383 C384 1.395 1_455 S
C383 C394 1.451 . S
C384 C383 1.395 1_655 S
C384 C385 1.322 . S
C384 H448 0.930 . S
C385 C384 1.322 . S
C385 C386 1.459 . S
C385 H449 0.929 . S
C386 C385 1.459 . S
C386 C387 1.445 . S
C386 C395 1.395 1_655 S
C387 C365 1.432 . S
C387 C386 1.445 . S
C387 C388 1.370 . S
C388 C387 1.370 . S
C388 C389 1.438 1_655 S
C388 H450 0.930 . S
C389 C375 1.497 . S
C389 C388 1.438 1_455 S
C389 C390 1.360 . S
C390 C389 1.360 . S
C390 C391 1.401 . S
C390 C395 1.446 . S
C391 C390 1.401 . S
C391 C392 1.347 . S
C391 H451 0.929 . S
C392 C391 1.347 . S
C392 C393 1.455 . S
C392 H452 0.930 . S
C393 C380 1.412 . S
C393 C392 1.455 . S
C393 C394 1.331 . S
C394 C383 1.451 . S
C394 C393 1.331 . S
C394 C395 1.497 . S
C395 C386 1.395 1_455 S
C395 C390 1.446 . S
C395 C394 1.497 . S
C396 C397 1.582 . S
C396 H453 0.962 . S
C396 H454 0.959 . S
C396 H455 0.958 . S
C397 C396 1.582 . S
C397 O400 1.458 . S
C397 H426 0.980 . S
O398 C343 1.426 . S
O398 C344 1.334 . S
O399 C371 1.412 . S
O399 C372 1.393 . S
O400 C362 1.435 . S
O400 C397 1.458 . S
O401 C353 1.468 . S
O401 C354 1.408 . S
H402 C343 0.980 . S
H403 C342 0.959 . S
H404 C342 0.959 . S
H405 C342 0.960 . S
H406 C345 0.929 . S
H407 C349 0.929 . S
H408 C350 0.959 . S
H409 C350 0.961 . S
H410 C350 0.961 . S
H411 C351 0.960 . S
H412 C351 0.960 . S
H413 C351 0.961 . S
H414 C353 0.980 . S
H415 C352 0.961 . S
H416 C352 0.960 . S
H417 C352 0.959 . S
H418 C355 0.930 . S
H419 C359 0.931 . S
H420 C360 0.959 1_455 S
H421 C360 0.961 1_455 S
H422 C360 0.959 . S
H423 C361 0.960 . S
H424 C361 0.960 1_455 S
H425 C361 0.960 . S
H426 C397 0.980 . S
H427 C363 0.930 . S
H428 C367 0.930 . S
H429 C368 0.961 . S
H430 C368 0.960 . S
H431 C368 0.958 . S
H432 C369 0.961 . S
H433 C369 0.960 . S
H434 C369 0.960 . S
H435 C371 0.980 . S
H436 C370 0.961 . S
H437 C370 0.961 . S
H438 C370 0.959 . S
H439 C373 0.932 . S
H440 C377 0.929 . S
H441 C378 0.961 . S
H442 C378 0.959 1_655 S
H443 C378 0.959 . S
H444 C379 0.960 . S
H445 C379 0.962 . S
H446 C379 0.961 . S
H447 C381 0.929 . S
H448 C384 0.930 . S
H449 C385 0.929 . S
H450 C388 0.930 . S
H451 C391 0.929 . S
H452 C392 0.930 . S
H453 C396 0.962 . S
H454 C396 0.959 . S
H455 C396 0.958 . S
C456 C457 1.560 . S
C456 H517 0.959 . S
C456 H518 0.959 . S
C456 H519 0.960 . S
C457 C456 1.560 . S
C457 O512 1.426 . S
C457 H516 0.980 . S
C458 C459 1.407 . S
C458 C463 1.418 . S
C458 O512 1.334 . S
C459 C458 1.407 . S
C459 C460 1.360 . S
C459 H520 0.929 . S
C460 C459 1.360 . S
C460 C461 1.401 . S
C460 C464 1.527 . S
C461 C460 1.401 . S
C461 C462 1.405 . S
C461 C494 1.587 . S
C462 C461 1.405 . S
C462 C463 1.332 . S
C462 C465 1.496 . S
C463 C458 1.418 . S
C463 C462 1.332 . S
C463 H521 0.929 . S
C464 C460 1.527 . S
C464 H522 0.959 . S
C464 H523 0.961 . S
C464 H524 0.961 . S
C465 C462 1.496 . S
C465 H525 0.960 . S
C465 H526 0.960 . S
C465 H527 0.961 . S
C466 C467 1.517 . S
C466 H529 0.961 . S
C466 H530 0.960 . S
C466 H531 0.959 . S
C467 C466 1.517 . S
C467 O515 1.468 . S
C467 H528 0.980 . S
C468 C469 1.349 . S
C468 C473 1.367 . S
C468 O515 1.408 . S
C469 C468 1.349 . S
C469 C470 1.407 . S
C469 H532 0.930 . S
C470 C469 1.407 . S
C470 C471 1.449 . S
C470 C474 1.535 . S
C471 C470 1.449 . S
C471 C472 1.384 . S
C471 C496 1.553 . S
C472 C471 1.384 . S
C472 C473 1.364 . S
C472 C475 1.450 . S
C473 C468 1.367 . S
C473 C472 1.364 . S
C473 H533 0.931 . S
C474 C470 1.535 . S
C474 H534 0.959 . S
C474 H535 0.961 . S
C474 H536 0.959 . S
C475 C472 1.450 . S
C475 H537 0.960 . S
C475 H538 0.960 . S
C475 H539 0.960 . S
C476 C477 1.309 . S
C476 C481 1.304 . S
C476 O514 1.435 . S
C477 C476 1.309 . S
C477 C478 1.476 . S
C477 H541 0.930 . S
C478 C477 1.476 . S
C478 C479 1.400 . S
C478 C482 1.567 . S
C479 C478 1.400 . S
C479 C480 1.373 . S
C479 C501 1.432 . S
C480 C479 1.373 . S
C480 C481 1.339 . S
C480 C483 1.530 . S
C481 C476 1.304 . S
C481 C480 1.339 . S
C481 H542 0.930 . S
C482 C478 1.567 . S
C482 H543 0.961 . S
C482 H544 0.960 . S
C482 H545 0.958 . S
C483 C480 1.530 . S
C483 H546 0.961 . S
C483 H547 0.960 . S
C483 H548 0.960 . S
C484 C485 1.530 . S
C484 H550 0.961 . S
C484 H551 0.961 . S
C484 H552 0.959 . S
C485 C484 1.530 . S
C485 O513 1.412 . S
C485 H549 0.980 . S
C486 C487 1.288 . S
C486 C491 1.377 . S
C486 O513 1.393 . S
C487 C486 1.288 . S
C487 C488 1.369 . S
C487 H553 0.932 . S
C488 C487 1.369 . S
C488 C489 1.398 . S
C488 C492 1.527 1_565 S
C489 C488 1.398 . S
C489 C490 1.380 . S
C489 C503 1.497 1_565 S
C490 C489 1.380 . S
C490 C491 1.383 . S
C490 C493 1.603 . S
C491 C486 1.377 . S
C491 C490 1.383 . S
C491 H554 0.929 . S
C492 C488 1.527 1_545 S
C492 H555 0.961 1_545 S
C492 H556 0.959 . S
C492 H557 0.959 1_545 S
C493 C490 1.603 . S
C493 H558 0.960 . S
C493 H559 0.962 . S
C493 H560 0.961 . S
C494 C461 1.587 . S
C494 C495 1.360 . S
C494 C507 1.412 . S
C495 C494 1.360 . S
C495 C496 1.365 1_565 S
C495 H561 0.929 . S
C496 C471 1.553 . S
C496 C495 1.365 1_545 S
C496 C497 1.404 . S
C497 C496 1.404 . S
C497 C498 1.395 . S
C497 C508 1.451 1_545 S
C498 C497 1.395 . S
C498 C499 1.322 . S
C498 H562 0.930 . S
C499 C498 1.322 . S
C499 C500 1.459 1_556 S
C499 H563 0.929 . S
C500 C499 1.459 1_554 S
C500 C501 1.445 . S
C500 C509 1.395 1_554 S
C501 C479 1.432 . S
C501 C500 1.445 . S
C501 C502 1.370 . S
C502 C501 1.370 . S
C502 C503 1.438 . S
C502 H564 0.930 . S
C503 C489 1.497 1_545 S
C503 C502 1.438 . S
C503 C504 1.360 1_545 S
C504 C503 1.360 1_565 S
C504 C505 1.401 . S
C504 C509 1.446 1_564 S
C505 C504 1.401 . S
C505 C506 1.347 1_554 S
C505 H565 0.929 . S
C506 C505 1.347 1_556 S
C506 C507 1.455 . S
C506 H566 0.930 . S
C507 C494 1.412 . S
C507 C506 1.455 . S
C507 C508 1.331 . S
C508 C497 1.451 1_565 S
C508 C507 1.331 . S
C508 C509 1.497 1_565 S
C509 C500 1.395 1_556 S
C509 C504 1.446 1_546 S
C509 C508 1.497 1_545 S
C510 C511 1.582 . S
C510 H567 0.962 . S
C510 H568 0.959 . S
C510 H569 0.958 . S
C511 C510 1.582 . S
C511 O514 1.458 . S
C511 H540 0.980 . S
O512 C457 1.426 . S
O512 C458 1.334 . S
O513 C485 1.412 . S
O513 C486 1.393 . S
O514 C476 1.435 . S
O514 C511 1.458 . S
O515 C467 1.468 . S
O515 C468 1.408 . S
H516 C457 0.980 . S
H517 C456 0.959 . S
H518 C456 0.959 . S
H519 C456 0.960 . S
H520 C459 0.929 . S
H521 C463 0.929 . S
H522 C464 0.959 . S
H523 C464 0.961 . S
H524 C464 0.961 . S
H525 C465 0.960 . S
H526 C465 0.960 . S
H527 C465 0.961 . S
H528 C467 0.980 . S
H529 C466 0.961 . S
H530 C466 0.960 . S
H531 C466 0.959 . S
H532 C469 0.930 . S
H533 C473 0.931 . S
H534 C474 0.959 . S
H535 C474 0.961 . S
H536 C474 0.959 . S
H537 C475 0.960 . S
H538 C475 0.960 . S
H539 C475 0.960 . S
H540 C511 0.980 . S
H541 C477 0.930 . S
H542 C481 0.930 . S
H543 C482 0.961 . S
H544 C482 0.960 . S
H545 C482 0.958 . S
H546 C483 0.961 . S
H547 C483 0.960 . S
H548 C483 0.960 . S
H549 C485 0.980 . S
H550 C484 0.961 . S
H551 C484 0.961 . S
H552 C484 0.959 . S
H553 C487 0.932 . S
H554 C491 0.929 . S
H555 C492 0.961 1_565 S
H556 C492 0.959 . S
H557 C492 0.959 1_565 S
H558 C493 0.960 . S
H559 C493 0.962 . S
H560 C493 0.961 . S
H561 C495 0.929 . S
H562 C498 0.930 . S
H563 C499 0.929 . S
H564 C502 0.930 . S
H565 C505 0.929 . S
H566 C506 0.930 . S
H567 C510 0.962 . S
H568 C510 0.959 . S
H569 C510 0.958 . S
C570 C571 1.560 . S
C570 H631 0.959 . S
C570 H632 0.959 . S
C570 H633 0.960 . S
C571 C570 1.560 . S
C571 O626 1.426 . S
C571 H630 0.980 . S
C572 C573 1.407 . S
C572 C577 1.418 . S
C572 O626 1.334 . S
C573 C572 1.407 . S
C573 C574 1.360 . S
C573 H634 0.929 . S
C574 C573 1.360 . S
C574 C575 1.401 . S
C574 C578 1.527 . S
C575 C574 1.401 . S
C575 C576 1.405 . S
C575 C608 1.587 . S
C576 C575 1.405 . S
C576 C577 1.332 . S
C576 C579 1.496 . S
C577 C572 1.418 . S
C577 C576 1.332 . S
C577 H635 0.929 . S
C578 C574 1.527 . S
C578 H636 0.959 . S
C578 H637 0.961 . S
C578 H638 0.961 . S
C579 C576 1.496 . S
C579 H639 0.960 . S
C579 H640 0.960 . S
C579 H641 0.961 . S
C580 C581 1.517 1_556 S
C580 H643 0.961 . S
C580 H644 0.960 . S
C580 H645 0.975 . S
C581 C580 1.517 1_554 S
C581 O629 1.468 . S
C581 H642 0.980 . S
C582 C583 1.349 . S
C582 C587 1.367 . S
C582 O629 1.408 . S
C583 C582 1.349 . S
C583 C584 1.407 . S
C583 H646 0.930 . S
C584 C583 1.407 . S
C584 C585 1.449 . S
C584 C588 1.535 . S
C585 C584 1.449 . S
C585 C586 1.384 . S
C585 C610 1.553 . S
C586 C585 1.384 . S
C586 C587 1.364 . S
C586 C589 1.450 . S
C587 C582 1.367 . S
C587 C586 1.364 . S
C587 H647 0.931 . S
C588 C584 1.535 . S
C588 H648 0.959 . S
C588 H649 0.961 . S
C588 H650 0.959 . S
C589 C586 1.450 . S
C589 H651 0.960 . S
C589 H652 0.960 . S
C589 H653 0.960 . S
C590 C591 1.309 . S
C590 C595 1.304 . S
C590 O628 1.435 . S
C591 C590 1.309 . S
C591 C592 1.476 . S
C591 H655 0.930 . S
C592 C591 1.476 . S
C592 C593 1.400 . S
C592 C596 1.567 . S
C593 C592 1.400 . S
C593 C594 1.373 . S
C593 C615 1.432 . S
C594 C593 1.373 . S
C594 C595 1.339 . S
C594 C597 1.530 . S
C595 C590 1.304 . S
C595 C594 1.339 . S
C595 H656 0.930 . S
C596 C592 1.567 . S
C596 H657 0.961 . S
C596 H658 0.960 . S
C596 H659 0.958 . S
C597 C594 1.530 . S
C597 H660 0.961 . S
C597 H661 0.960 . S
C597 H662 0.960 . S
C598 C599 1.530 . S
C598 H664 0.961 . S
C598 H665 0.961 . S
C598 H666 0.959 . S
C599 C598 1.530 . S
C599 O627 1.412 . S
C599 H663 0.980 . S
C600 C601 1.288 . S
C600 C605 1.377 . S
C600 O627 1.393 . S
C601 C600 1.288 . S
C601 C602 1.369 . S
C601 H667 0.932 . S
C602 C601 1.369 . S
C602 C603 1.398 . S
C602 C606 1.527 . S
C603 C602 1.398 . S
C603 C604 1.380 . S
C603 C617 1.497 . S
C604 C603 1.380 . S
C604 C605 1.383 . S
C604 C607 1.603 . S
C605 C600 1.377 . S
C605 C604 1.383 . S
C605 H668 0.929 . S
C606 C602 1.527 . S
C606 H669 0.961 . S
C606 H670 0.959 . S
C606 H671 0.959 . S
C607 C604 1.603 . S
C607 H672 0.960 . S
C607 H673 0.962 . S
C607 H674 0.961 . S
C608 C575 1.587 . S
C608 C609 1.360 . S
C608 C621 1.412 . S
C609 C608 1.360 . S
C609 C610 1.365 . S
C609 H675 0.929 . S
C610 C585 1.553 . S
C610 C609 1.365 . S
C610 C611 1.404 . S
C611 C610 1.404 . S
C611 C612 1.395 . S
C611 C622 1.451 . S
C612 C611 1.395 . S
C612 C613 1.322 . S
C612 H676 0.930 . S
C613 C612 1.322 . S
C613 C614 1.459 . S
C613 H677 0.929 . S
C614 C613 1.459 . S
C614 C615 1.445 . S
C614 C623 1.395 . S
C615 C593 1.432 . S
C615 C614 1.445 . S
C615 C616 1.370 . S
C616 C615 1.370 . S
C616 C617 1.438 . S
C616 H678 0.930 . S
C617 C603 1.497 . S
C617 C616 1.438 . S
C617 C618 1.360 . S
C618 C617 1.360 . S
C618 C619 1.401 . S
C618 C623 1.446 . S
C619 C618 1.401 . S
C619 C620 1.347 . S
C619 H679 0.929 . S
C620 C619 1.347 . S
C620 C621 1.455 . S
C620 H680 0.930 . S
C621 C608 1.412 . S
C621 C620 1.455 . S
C621 C622 1.331 . S
C622 C611 1.451 . S
C622 C621 1.331 . S
C622 C623 1.497 . S
C623 C614 1.395 . S
C623 C618 1.446 . S
C623 C622 1.497 . S
C624 C625 1.582 . S
C624 H681 0.962 . S
C624 H682 0.959 . S
C624 H683 0.958 . S
C625 C624 1.582 . S
C625 O628 1.458 . S
C625 H654 0.980 . S
O626 C571 1.426 . S
O626 C572 1.334 . S
O627 C599 1.412 . S
O627 C600 1.393 . S
O628 C590 1.435 . S
O628 C625 1.458 . S
O629 C581 1.468 . S
O629 C582 1.408 . S
H630 C571 0.980 . S
H631 C570 0.959 . S
H632 C570 0.959 . S
H633 C570 0.960 . S
H634 C573 0.929 . S
H635 C577 0.929 . S
H636 C578 0.959 . S
H637 C578 0.961 . S
H638 C578 0.961 . S
H639 C579 0.960 . S
H640 C579 0.960 . S
H641 C579 0.961 . S
H642 C581 0.980 . S
H643 C580 0.961 . S
H644 C580 0.960 . S
H645 C580 0.975 . S
H646 C583 0.930 . S
H647 C587 0.931 . S
H648 C588 0.959 . S
H649 C588 0.961 . S
H650 C588 0.959 . S
H651 C589 0.960 . S
H652 C589 0.960 . S
H653 C589 0.960 . S
H654 C625 0.980 . S
H655 C591 0.930 . S
H656 C595 0.930 . S
H657 C596 0.961 . S
H658 C596 0.960 . S
H659 C596 0.958 . S
H660 C597 0.961 . S
H661 C597 0.960 . S
H662 C597 0.960 . S
H663 C599 0.980 . S
H664 C598 0.961 . S
H665 C598 0.961 . S
H666 C598 0.959 . S
H667 C601 0.932 . S
H668 C605 0.929 . S
H669 C606 0.961 . S
H670 C606 0.959 . S
H671 C606 0.959 . S
H672 C607 0.960 . S
H673 C607 0.962 . S
H674 C607 0.961 . S
H675 C609 0.929 . S
H676 C612 0.930 . S
H677 C613 0.929 . S
H678 C616 0.930 . S
H679 C619 0.929 . S
H680 C620 0.930 . S
H681 C624 0.962 . S
H682 C624 0.959 . S
H683 C624 0.958 . S
Co684 O685 2.216 . S
Co684 O686 2.091 . S
Co684 O688 2.004 . S
Co684 O694 2.021 . S
Co684 O696 2.137 . S
Co684 O697 2.244 . S
O685 Co684 2.216 . S
O685 C692 1.247 . S
O686 Co684 2.091 . S
O686 C692 1.261 . S
C687 O696 1.247 . S
C687 O697 1.272 . S
O688 Co684 2.004 . S
O688 C693 1.259 . S
Co689 O690 2.061 . S
Co689 O695 2.052 . S
Co689 O697 2.135 . S
O690 Co689 2.061 . S
O690 C693 1.235 . S
C691 O694 1.238 . S
C691 O695 1.241 . S
C692 O685 1.247 . S
C692 O686 1.261 . S
C693 O688 1.259 . S
C693 O690 1.235 . S
O694 Co684 2.021 . S
O694 C691 1.238 . S
O695 Co689 2.052 . S
O695 C691 1.241 . S
O696 Co684 2.137 . S
O696 C687 1.247 . S
O697 Co684 2.244 . S
O697 C687 1.272 . S
O697 Co689 2.135 . S
Co698 O699 2.216 . S
Co698 O700 2.091 . S
Co698 O702 2.004 . S
Co698 O708 2.021 . S
Co698 O710 2.137 . S
Co698 O711 2.244 . S
O699 Co698 2.216 . S
O699 C706 1.247 . S
O700 Co698 2.091 . S
O700 C706 1.261 . S
C701 O710 1.247 . S
C701 O711 1.272 . S
O702 Co698 2.004 . S
O702 C707 1.259 . S
Co703 O704 2.061 . S
Co703 O709 2.052 . S
Co703 O711 2.135 . S
O704 Co703 2.061 . S
O704 C707 1.235 . S
C705 O708 1.238 . S
C705 O709 1.241 . S
C706 O699 1.247 . S
C706 O700 1.261 . S
C707 O702 1.259 . S
C707 O704 1.235 . S
O708 Co698 2.021 . S
O708 C705 1.238 . S
O709 Co703 2.052 . S
O709 C705 1.241 . S
O710 Co698 2.137 . S
O710 C701 1.247 . S
O711 Co698 2.244 . S
O711 C701 1.272 . S
O711 Co703 2.135 . S
Co712 O713 2.216 . S
Co712 O714 2.091 . S
Co712 O716 2.004 . S
Co712 O722 2.021 . S
Co712 O724 2.137 . S
Co712 O725 2.244 . S
O713 Co712 2.216 . S
O713 C720 1.247 . S
O714 Co712 2.091 . S
O714 C720 1.261 . S
C715 O724 1.247 . S
C715 O725 1.272 . S
O716 Co712 2.004 . S
O716 C721 1.259 . S
Co717 O718 2.061 . S
Co717 O723 2.052 . S
Co717 O725 2.135 . S
O718 Co717 2.061 . S
O718 C721 1.235 . S
C719 O722 1.238 . S
C719 O723 1.241 . S
C720 O713 1.247 . S
C720 O714 1.261 . S
C721 O716 1.259 . S
C721 O718 1.235 . S
O722 Co712 2.021 . S
O722 C719 1.238 . S
O723 Co717 2.052 . S
O723 C719 1.241 . S
O724 Co712 2.137 . S
O724 C715 1.247 . S
O725 Co712 2.244 . S
O725 C715 1.272 . S
O725 Co717 2.135 . S
Co726 O727 2.216 . S
Co726 O728 2.091 . S
Co726 O730 2.004 . S
Co726 O736 2.021 . S
Co726 O738 2.137 . S
Co726 O739 2.244 . S
O727 Co726 2.216 . S
O727 C734 1.247 . S
O728 Co726 2.091 . S
O728 C734 1.261 . S
C729 O738 1.247 . S
C729 O739 1.272 . S
O730 Co726 2.004 . S
O730 C735 1.259 . S
Co731 O732 2.061 . S
Co731 O737 2.052 . S
Co731 O739 2.135 . S
O732 Co731 2.061 . S
O732 C735 1.235 . S
C733 O736 1.238 . S
C733 O737 1.241 . S
C734 O727 1.247 . S
C734 O728 1.261 . S
C735 O730 1.259 . S
C735 O732 1.235 . S
O736 Co726 2.021 . S
O736 C733 1.238 . S
O737 Co731 2.052 . S
O737 C733 1.241 . S
O738 Co726 2.137 . S
O738 C729 1.247 . S
O739 Co726 2.244 . S
O739 C729 1.272 . S
O739 Co731 2.135 . S
Co740 O741 2.216 . S
Co740 O742 2.091 . S
Co740 O744 2.004 . S
Co740 O750 2.021 . S
Co740 O752 2.137 . S
Co740 O753 2.244 . S
O741 Co740 2.216 . S
O741 C748 1.247 . S
O742 Co740 2.091 . S
O742 C748 1.261 . S
C743 O752 1.247 . S
C743 O753 1.272 . S
O744 Co740 2.004 . S
O744 C749 1.259 . S
Co745 O746 2.061 . S
Co745 O751 2.052 . S
Co745 O753 2.135 . S
O746 Co745 2.061 . S
O746 C749 1.235 . S
C747 O750 1.238 . S
C747 O751 1.241 . S
C748 O741 1.247 . S
C748 O742 1.261 . S
C749 O744 1.259 . S
C749 O746 1.235 . S
O750 Co740 2.021 . S
O750 C747 1.238 . S
O751 Co745 2.052 . S
O751 C747 1.241 . S
O752 Co740 2.137 . S
O752 C743 1.247 . S
O753 Co740 2.244 . S
O753 C743 1.272 . S
O753 Co745 2.135 . S
Co754 O755 2.216 . S
Co754 O756 2.091 . S
Co754 O758 2.004 . S
Co754 O764 2.021 . S
Co754 O766 2.137 . S
Co754 O767 2.244 . S
O755 Co754 2.216 . S
O755 C762 1.247 . S
O756 Co754 2.091 . S
O756 C762 1.261 . S
C757 O766 1.247 . S
C757 O767 1.272 . S
O758 Co754 2.004 . S
O758 C763 1.259 . S
Co759 O760 2.061 . S
Co759 O765 2.052 . S
Co759 O767 2.135 . S
O760 Co759 2.061 . S
O760 C763 1.235 . S
C761 O764 1.238 . S
C761 O765 1.241 . S
C762 O755 1.247 . S
C762 O756 1.261 . S
C763 O758 1.259 . S
C763 O760 1.235 . S
O764 Co754 2.021 . S
O764 C761 1.238 . S
O765 Co759 2.052 . S
O765 C761 1.241 . S
O766 Co754 2.137 . S
O766 C757 1.247 . S
O767 Co754 2.244 . S
O767 C757 1.272 . S
O767 Co759 2.135 . S
C768 C769 1.387 . S
C768 H772 0.950 . S
C768 C777 1.390 . S
C769 C768 1.387 . S
C769 C771 1.387 . S
H770 C777 0.950 . S
C771 C769 1.387 . S
C771 C773 1.390 . S
C771 H775 0.950 . S
H772 C768 0.950 . S
C773 C771 1.390 . S
C773 C774 1.387 . S
C773 H776 0.950 . S
C774 C773 1.387 . S
C774 C777 1.387 . S
H775 C771 0.950 . S
H776 C773 0.950 . S
C777 C768 1.390 . S
C777 H770 0.950 . S
C777 C774 1.387 . S
C778 C779 1.387 . S
C778 H782 0.950 . S
C778 C787 1.390 . S
C779 C778 1.387 . S
C779 C781 1.387 . S
H780 C787 0.950 . S
C781 C779 1.387 . S
C781 C783 1.390 . S
C781 H785 0.950 . S
H782 C778 0.950 . S
C783 C781 1.390 . S
C783 C784 1.387 . S
C783 H786 0.950 . S
C784 C783 1.387 . S
C784 C787 1.387 . S
H785 C781 0.950 . S
H786 C783 0.950 . S
C787 C778 1.390 . S
C787 H780 0.950 . S
C787 C784 1.387 . S
C788 C789 1.387 . S
C788 H792 0.950 . S
C788 C797 1.390 . S
C789 C788 1.387 . S
C789 C791 1.387 . S
H790 C797 0.950 . S
C791 C789 1.387 . S
C791 C793 1.390 . S
C791 H795 0.950 . S
H792 C788 0.950 . S
C793 C791 1.390 . S
C793 C794 1.387 . S
C793 H796 0.950 . S
C794 C793 1.387 . S
C794 C797 1.387 . S
H795 C791 0.950 . S
H796 C793 0.950 . S
C797 C788 1.390 . S
C797 H790 0.950 . S
C797 C794 1.387 . S
C798 C799 1.387 . S
C798 H802 0.950 . S
C798 C807 1.390 . S
C799 C798 1.387 . S
C799 C801 1.387 . S
H800 C807 0.950 . S
C801 C799 1.387 . S
C801 C803 1.390 . S
C801 H805 0.950 . S
H802 C798 0.950 . S
C803 C801 1.390 . S
C803 C804 1.387 . S
C803 H806 0.950 . S
C804 C803 1.387 . S
C804 C807 1.387 . S
H805 C801 0.950 . S
H806 C803 0.950 . S
C807 C798 1.390 . S
C807 H800 0.950 . S
C807 C804 1.387 . S
C808 C809 1.387 . S
C808 H812 0.950 . S
C808 C817 1.390 . S
C809 C808 1.387 . S
C809 C811 1.387 . S
H810 C817 0.950 . S
C811 C809 1.387 . S
C811 C813 1.390 . S
C811 H815 0.950 . S
H812 C808 0.950 . S
C813 C811 1.390 . S
C813 C814 1.387 . S
C813 H816 0.950 . S
C814 C813 1.387 . S
C814 C817 1.387 . S
H815 C811 0.950 . S
H816 C813 0.950 . S
C817 C808 1.390 . S
C817 H810 0.950 . S
C817 C814 1.387 . S
C818 C819 1.387 . S
C818 H822 0.950 . S
C818 C827 1.390 . S
C819 C818 1.387 . S
C819 C821 1.387 . S
H820 C827 0.950 . S
C821 C819 1.387 . S
C821 C823 1.390 . S
C821 H825 0.950 . S
H822 C818 0.950 . S
C823 C821 1.390 . S
C823 C824 1.387 . S
C823 H826 0.950 . S
C824 C823 1.387 . S
C824 C827 1.387 . S
H825 C821 0.950 . S
H826 C823 0.950 . S
C827 C818 1.390 . S
C827 H820 0.950 . S
C827 C824 1.387 . S
C828 C829 1.387 . S
C828 H832 0.950 . S
C828 C837 1.390 . S
C829 C828 1.387 . S
C829 C831 1.387 . S
H830 C837 0.950 . S
C831 C829 1.387 . S
C831 C833 1.390 . S
C831 H835 0.950 . S
H832 C828 0.950 . S
C833 C831 1.390 . S
C833 C834 1.387 . S
C833 H836 0.950 . S
C834 C833 1.387 . S
C834 C837 1.387 . S
H835 C831 0.950 . S
H836 C833 0.950 . S
C837 C828 1.390 . S
C837 H830 0.950 . S
C837 C834 1.387 . S
C838 C839 1.387 . S
C838 H842 0.950 . S
C838 C847 1.390 . S
C839 C838 1.387 . S
C839 C841 1.387 . S
H840 C847 0.950 . S
C841 C839 1.387 . S
C841 C843 1.390 . S
C841 H845 0.950 . S
H842 C838 0.950 . S
C843 C841 1.390 . S
C843 C844 1.387 . S
C843 H846 0.950 . S
C844 C843 1.387 . S
C844 C847 1.387 . S
H845 C841 0.950 . S
H846 C843 0.950 . S
C847 C838 1.390 . S
C847 H840 0.950 . S
C847 C844 1.387 . S
C848 C849 1.387 . S
C848 H852 0.950 . S
C848 C857 1.390 . S
C849 C848 1.387 . S
C849 C851 1.387 . S
H850 C857 0.950 . S
C851 C849 1.387 . S
C851 C853 1.390 . S
C851 H855 0.950 . S
H852 C848 0.950 . S
C853 C851 1.390 . S
C853 C854 1.387 . S
C853 H856 0.950 . S
C854 C853 1.387 . S
C854 C857 1.387 . S
H855 C851 0.950 . S
H856 C853 0.950 . S
C857 C848 1.390 . S
C857 H850 0.950 . S
C857 C854 1.387 . S
C858 C859 1.387 . S
C858 H862 0.950 . S
C858 C867 1.390 . S
C859 C858 1.387 . S
C859 C861 1.387 . S
H860 C867 0.950 . S
C861 C859 1.387 . S
C861 C863 1.390 . S
C861 H865 0.950 . S
H862 C858 0.950 . S
C863 C861 1.390 . S
C863 C864 1.387 . S
C863 H866 0.950 . S
C864 C863 1.387 . S
C864 C867 1.387 . S
H865 C861 0.950 . S
H866 C863 0.950 . S
C867 C858 1.390 . S
C867 H860 0.950 . S
C867 C864 1.387 . S
C868 C869 1.387 . S
C868 H872 0.950 . S
C868 C877 1.390 . S
C869 C868 1.387 . S
C869 C871 1.387 . S
H870 C877 0.950 . S
C871 C869 1.387 . S
C871 C873 1.390 . S
C871 H875 0.950 . S
H872 C868 0.950 . S
C873 C871 1.390 . S
C873 C874 1.387 . S
C873 H876 0.950 . S
C874 C873 1.387 . S
C874 C877 1.387 . S
H875 C871 0.950 . S
H876 C873 0.950 . S
C877 C868 1.390 . S
C877 H870 0.950 . S
C877 C874 1.387 . S
C878 C879 1.387 . S
C878 H882 0.950 . S
C878 C887 1.390 . S
C879 C878 1.387 . S
C879 C881 1.387 . S
H880 C887 0.950 . S
C881 C879 1.387 . S
C881 C883 1.390 . S
C881 H885 0.950 . S
H882 C878 0.950 . S
C883 C881 1.390 . S
C883 C884 1.387 . S
C883 H886 0.950 . S
C884 C883 1.387 . S
C884 C887 1.387 . S
H885 C881 0.950 . S
H886 C883 0.950 . S
C887 C878 1.390 . S
C887 H880 0.950 . S
C887 C884 1.387 . S
C888 C889 1.387 . S
C888 H892 0.950 . S
C888 C897 1.390 . S
C889 C888 1.387 . S
C889 C891 1.387 . S
H890 C897 0.950 . S
C891 C889 1.387 . S
C891 C893 1.390 . S
C891 H895 0.950 . S
H892 C888 0.950 . S
C893 C891 1.390 . S
C893 C894 1.387 . S
C893 H896 0.950 . S
C894 C893 1.387 . S
C894 C897 1.387 . S
H895 C891 0.950 . S
H896 C893 0.950 . S
C897 C888 1.390 . S
C897 H890 0.950 . S
C897 C894 1.387 . S
C898 C899 1.387 . S
C898 H902 0.950 . S
C898 C907 1.390 . S
C899 C898 1.387 . S
C899 C901 1.387 . S
H900 C907 0.950 . S
C901 C899 1.387 . S
C901 C903 1.390 . S
C901 H905 0.950 . S
H902 C898 0.950 . S
C903 C901 1.390 . S
C903 C904 1.387 . S
C903 H906 0.950 . S
C904 C903 1.387 . S
C904 C907 1.387 . S
H905 C901 0.950 . S
H906 C903 0.950 . S
C907 C898 1.390 . S
C907 H900 0.950 . S
C907 C904 1.387 . S
C908 C909 1.387 . S
C908 H912 0.950 . S
C908 C917 1.390 . S
C909 C908 1.387 . S
C909 C911 1.387 . S
H910 C917 0.950 . S
C911 C909 1.387 . S
C911 C913 1.390 . S
C911 H915 0.950 . S
H912 C908 0.950 . S
C913 C911 1.390 . S
C913 C914 1.387 . S
C913 H916 0.950 . S
C914 C913 1.387 . S
C914 C917 1.387 . S
H915 C911 0.950 . S
H916 C913 0.950 . S
C917 C908 1.390 . S
C917 H910 0.950 . S
C917 C914 1.387 . S
C918 C919 1.387 . S
C918 H922 0.950 . S
C918 C927 1.390 . S
C919 C918 1.387 . S
C919 C921 1.387 . S
H920 C927 0.938 1_554 S
C921 C919 1.387 . S
C921 C923 1.390 1_556 S
C921 H925 0.950 . S
H922 C918 0.950 . S
C923 C921 1.390 1_554 S
C923 C924 1.387 . S
C923 H926 0.950 . S
C924 C923 1.387 . S
C924 C927 1.387 1_554 S
H925 C921 0.950 . S
H926 C923 0.950 . S
C927 C918 1.390 . S
C927 H920 0.938 1_556 S
C927 C924 1.387 1_556 S
C928 C929 1.387 . S
C928 H932 0.950 . S
C928 C937 1.390 . S
C929 C928 1.387 . S
C929 C931 1.387 . S
H930 C937 0.950 . S
C931 C929 1.387 . S
C931 C933 1.390 . S
C931 H935 0.950 . S
H932 C928 0.950 . S
C933 C931 1.390 . S
C933 C934 1.387 . S
C933 H936 0.950 . S
C934 C933 1.387 . S
C934 C937 1.387 . S
H935 C931 0.950 . S
H936 C933 0.950 . S
C937 C928 1.390 . S
C937 H930 0.950 . S
C937 C934 1.387 . S
C938 C939 1.387 . S
C938 H942 0.950 . S
C938 C947 1.390 . S
C939 C938 1.387 . S
C939 C941 1.387 . S
H940 C947 0.950 . S
C941 C939 1.387 . S
C941 C943 1.390 . S
C941 H945 0.950 . S
H942 C938 0.950 . S
C943 C941 1.390 . S
C943 C944 1.387 . S
C943 H946 0.950 . S
C944 C943 1.387 . S
C944 C947 1.387 . S
H945 C941 0.950 . S
H946 C943 0.950 . S
C947 C938 1.390 . S
C947 H940 0.950 . S
C947 C944 1.387 . S
C948 C949 1.387 . S
C948 H952 0.950 . S
C948 C957 1.390 . S
C949 C948 1.387 . S
C949 C951 1.387 . S
H950 C957 0.950 . S
C951 C949 1.387 . S
C951 C953 1.390 . S
C951 H955 0.950 . S
H952 C948 0.950 . S
C953 C951 1.390 . S
C953 C954 1.387 . S
C953 H956 0.950 . S
C954 C953 1.387 . S
C954 C957 1.387 . S
H955 C951 0.950 . S
H956 C953 0.950 . S
C957 C948 1.390 . S
C957 H950 0.950 . S
C957 C954 1.387 . S
C958 C959 1.387 . S
C958 H962 0.950 . S
C958 C967 1.390 . S
C959 C958 1.387 . S
C959 C961 1.387 . S
H960 C967 0.950 . S
C961 C959 1.387 . S
C961 C963 1.390 . S
C961 H965 0.950 . S
H962 C958 0.950 . S
C963 C961 1.390 . S
C963 C964 1.387 . S
C963 H966 0.950 . S
C964 C963 1.387 . S
C964 C967 1.387 . S
H965 C961 0.950 . S
H966 C963 0.950 . S
C967 C958 1.390 . S
C967 H960 0.950 . S
C967 C964 1.387 . S
C968 C969 1.387 . S
C968 H972 0.950 . S
C968 C977 1.390 . S
C969 C968 1.387 . S
C969 C971 1.387 . S
H970 C977 0.950 . S
C971 C969 1.387 . S
C971 C973 1.390 . S
C971 H975 0.950 . S
H972 C968 0.950 . S
C973 C971 1.390 . S
C973 C974 1.387 . S
C973 H976 0.950 . S
C974 C973 1.387 . S
C974 C977 1.387 . S
H975 C971 0.950 . S
H976 C973 0.950 . S
C977 C968 1.390 . S
C977 H970 0.950 . S
C977 C974 1.387 . S
C978 C979 1.387 . S
C978 H982 0.950 . S
C978 C987 1.390 . S
C979 C978 1.387 . S
C979 C981 1.387 . S
H980 C987 0.950 . S
C981 C979 1.387 . S
C981 C983 1.390 . S
C981 H985 0.950 . S
H982 C978 0.950 . S
C983 C981 1.390 . S
C983 C984 1.387 . S
C983 H986 0.950 . S
C984 C983 1.387 . S
C984 C987 1.387 . S
H985 C981 0.950 . S
H986 C983 0.950 . S
C987 C978 1.390 . S
C987 H980 0.950 . S
C987 C984 1.387 . S
C988 C989 1.387 . S
C988 H992 0.950 . S
C988 C997 1.390 1_554 S
C989 C988 1.387 . S
C989 C991 1.387 1_554 S
H990 C997 0.950 . S
C991 C989 1.387 1_556 S
C991 C993 1.390 . S
C991 H995 0.950 . S
H992 C988 0.950 . S
C993 C991 1.390 . S
C993 C994 1.387 . S
C993 H996 0.950 . S
C994 C993 1.387 . S
C994 C997 1.387 . S
H995 C991 0.950 . S
H996 C993 0.950 . S
C997 C988 1.390 1_556 S
C997 H990 0.950 . S
C997 C994 1.387 . S
C998 C999 1.387 . S
C998 H1002 0.950 . S
C998 C1007 1.390 . S
C999 C998 1.387 . S
C999 C1001 1.387 . S
H1000 C1007 0.950 . S
C1001 C999 1.387 . S
C1001 C1003 1.390 . S
C1001 H1005 0.950 . S
H1002 C998 0.950 . S
C1003 C1001 1.390 . S
C1003 C1004 1.387 . S
C1003 H1006 0.950 . S
C1004 C1003 1.387 . S
C1004 C1007 1.387 . S
H1005 C1001 0.950 . S
H1006 C1003 0.950 . S
C1007 C998 1.390 . S
C1007 H1000 0.950 . S
C1007 C1004 1.387 . S
C774 C757 1.755 . S
C769 C1 1.356 . S
C779 C169 1.617 . S
C784 C687 1.850 . S
C789 C283 1.624 . S
C794 C706 1.856 . S
C799 C397 1.502 . S
C804 C715 1.737 . S
C814 C729 1.597 . S
C809 C457 1.229 . S
C819 C571 1.269 . S
C824 C748 1.690 . S
C829 C115 1.329 . S
C834 C701 1.729 . S
C839 C229 1.252 . S
C844 C720 1.645 . S
C849 C343 1.227 . S
C854 C734 1.622 . S
C864 C743 1.662 . S
C859 C511 1.419 . S
C874 C762 1.852 . S
C869 C625 1.623 . S
C884 C692 1.834 . S
C879 C55 1.606 . S
C889 C29 1.175 . S
C894 C707 1.461 . S
C899 C125 0.900 . S
C904 C719 1.525 . S
C914 C733 1.468 . S
C909 C239 0.905 . S
C919 C353 0.911 . S
C924 C749 1.469 . S
C934 C761 1.400 . S
C929 C485 1.123 . S
C944 C691 1.459 . S
C939 C599 1.143 . S
C954 C763 1.472 . S
C949 C143 1.185 . S
C959 C257 1.152 . S
C964 C693 1.497 . S
C974 C705 1.413 . S
C969 C371 1.108 . S
C979 C467 0.902 . S
C984 C721 1.470 . S
C989 C581 0.939 . S
C994 C735 1.493 . S
C999 C11 0.943 . S
C1004 C747 1.529 . S
