# Generated by pormake.
# Topology anh, (6,3)-cn, num edge types: 1
# Building blocks:
#     Node 0, Type 0, BuildingBlock: MIFKUJ_clean_sbu_0, # of connection points: 6
#     Node 1, Type 0, BuildingBlock: MIFKUJ_clean_sbu_0, # of connection points: 6
#     Node 2, Type 0, BuildingBlock: MIFKUJ_clean_sbu_0, # of connection points: 6
#     Node 3, Type 1, BuildingBlock: KAKCAD_clean_linker_0, # of connection points: 3
#     Node 4, Type 1, BuildingBlock: KAKCAD_clean_linker_0, # of connection points: 3
#     Node 5, Type 1, BuildingBlock: KAKCAD_clean_linker_0, # of connection points: 3
#     Node 6, Type 1, BuildingBlock: KAKCAD_clean_linker_0, # of connection points: 3
#     Node 7, Type 1, BuildingBlock: KAKCAD_clean_linker_0, # of connection points: 3
#     Node 8, Type 1, BuildingBlock: KAKCAD_clean_linker_0, # of connection points: 3
#     Edge 9, Type (0, 1), BuildingBlock: ZUJKAS_clean_linker_0, # of connection points: 2
#     Edge 10, Type (0, 1), BuildingBlock: ZUJKAS_clean_linker_0, # of connection points: 2
#     Edge 11, Type (0, 1), BuildingBlock: ZUJKAS_clean_linker_0, # of connection points: 2
#     Edge 12, Type (0, 1), BuildingBlock: ZUJKAS_clean_linker_0, # of connection points: 2
#     Edge 13, Type (0, 1), BuildingBlock: ZUJKAS_clean_linker_0, # of connection points: 2
#     Edge 14, Type (0, 1), BuildingBlock: ZUJKAS_clean_linker_0, # of connection points: 2
#     Edge 15, Type (0, 1), BuildingBlock: ZUJKAS_clean_linker_0, # of connection points: 2
#     Edge 16, Type (0, 1), BuildingBlock: ZUJKAS_clean_linker_0, # of connection points: 2
#     Edge 17, Type (0, 1), BuildingBlock: ZUJKAS_clean_linker_0, # of connection points: 2
#     Edge 18, Type (0, 1), BuildingBlock: ZUJKAS_clean_linker_0, # of connection points: 2
#     Edge 19, Type (0, 1), BuildingBlock: ZUJKAS_clean_linker_0, # of connection points: 2
#     Edge 20, Type (0, 1), BuildingBlock: ZUJKAS_clean_linker_0, # of connection points: 2
#     Edge 21, Type (0, 1), BuildingBlock: ZUJKAS_clean_linker_0, # of connection points: 2
#     Edge 22, Type (0, 1), BuildingBlock: ZUJKAS_clean_linker_0, # of connection points: 2
#     Edge 23, Type (0, 1), BuildingBlock: ZUJKAS_clean_linker_0, # of connection points: 2
#     Edge 24, Type (0, 1), BuildingBlock: ZUJKAS_clean_linker_0, # of connection points: 2
#     Edge 25, Type (0, 1), BuildingBlock: ZUJKAS_clean_linker_0, # of connection points: 2
#     Edge 26, Type (0, 1), BuildingBlock: ZUJKAS_clean_linker_0, # of connection points: 2
# Relax obj value: 0.135
# Max RMSD: 0.182
# Mean RMSD: 0.140
data_MOF--net-anh--node1-MIFKUJ_clean_sbu_0--node2-KAKCAD_clean_linker_0--edge1-ZUJKAS_clean_linker_0
_symmetry_space_group_name_H-M    P1
_symmetry_Int_Tables_number       1
_symmetry_cell_setting            triclinic
loop_
_symmetry_equiv_pos_as_xyz
'x, y, z'
_cell_length_a     45.779535
_cell_length_b     45.710967
_cell_length_c     79.927057
_cell_angle_alpha  93.849583
_cell_angle_beta   90.772816
_cell_angle_gamma 119.95602
loop_
_atom_site_label
_atom_site_type_symbol
_atom_site_fract_x
_atom_site_fract_y
_atom_site_fract_z
_atom_type_partial_charge
Zn0 Zn 0.03881 0.56079 0.1669 0.0
Zn1 Zn 0.96927 0.48713 0.16318 0.0
C2 C 0.09546 0.55256 0.17501 0.0
O3 O 0.09754 0.57294 0.18796 0.0
C4 C 0.91823 0.50026 0.15136 0.0
O5 O 0.91744 0.4792 0.13909 0.0
O6 O 0.06838 0.61112 0.16768 0.0
O7 O 0.00967 0.5497 0.14577 0.0
O8 O 0.99589 0.49632 0.14247 0.0
C9 C 0.08897 0.62258 0.15611 0.0
O10 O 0.08991 0.60122 0.14458 0.0
O11 O 0.07091 0.54206 0.16417 0.0
C12 C 0.91255 0.42789 0.17142 0.0
O13 O 0.91437 0.44992 0.18344 0.0
O14 O 0.93503 0.4377 0.16069 0.0
O15 O 0.99288 0.4948 0.18586 0.0
O16 O 0.0179 0.55056 0.18935 0.0
O17 O 0.94051 0.50989 0.16337 0.0
C18 C 0.00426 0.52403 0.13621 0.0
C19 C 0.00565 0.52205 0.19545 0.0
Zn20 Zn 0.53305 0.04521 0.50263 0.0
Zn21 Zn 0.53443 0.97383 0.50086 0.0
C22 C 0.60069 0.09765 0.51048 0.0
O23 O 0.58507 0.10232 0.52316 0.0
C24 C 0.47047 0.91966 0.48751 0.0
O25 O 0.48993 0.9205 0.47539 0.0
O26 O 0.52009 0.08106 0.5023 0.0
O27 O 0.5088 0.01335 0.48225 0.0
O28 O 0.54778 0.99913 0.48 0.0
C29 C 0.52806 0.09803 0.4895 0.0
O30 O 0.5417 0.08954 0.47711 0.0
O31 O 0.58387 0.07214 0.49988 0.0
C32 C 0.58432 0.95202 0.50074 0.0
O33 O 0.6064 0.9843 0.5043 0.0
O34 O 0.55319 0.9426 0.49885 0.0
O35 O 0.55021 0.9985 0.52401 0.0
O36 O 0.52324 0.02733 0.52538 0.0
O37 O 0.4835 0.94176 0.50001 0.0
C38 C 0.52663 0.00544 0.47312 0.0
C39 C 0.53778 0.01371 0.53258 0.0
Zn40 Zn 0.55414 0.5233 0.83442 0.0
Zn41 Zn 0.48023 0.51537 0.83125 0.0
C42 C 0.53893 0.45632 0.84342 0.0
O43 O 0.54633 0.47151 0.85869 0.0
C44 C 0.49436 0.57919 0.8208 0.0
O45 O 0.4744 0.55823 0.80827 0.0
O46 O 0.60438 0.54671 0.83577 0.0
O47 O 0.5438 0.53869 0.81326 0.0
O48 O 0.49111 0.4978 0.80994 0.0
C49 C 0.61847 0.54153 0.82325 0.0
O50 O 0.59955 0.52118 0.81031 0.0
O51 O 0.5391 0.47283 0.83116 0.0
C52 C 0.415 0.501 0.84102 0.0
O53 O 0.42991 0.50814 0.85609 0.0
O54 O 0.43127 0.50076 0.82834 0.0
O55 O 0.48641 0.49945 0.85327 0.0
O56 O 0.54106 0.53507 0.85682 0.0
O57 O 0.50285 0.56709 0.83262 0.0
C58 C 0.51859 0.51795 0.80364 0.0
C59 C 0.51264 0.51697 0.86294 0.0
C60 C 0.52183 0.04874 0.28786 0.0
C61 C 0.50716 0.01686 0.29432 0.0
C62 C 0.51997 0.05125 0.27062 0.0
C63 C 0.50349 0.02194 0.25943 0.0
C64 C 0.48886 0.99003 0.26589 0.0
C65 C 0.49064 0.98753 0.28315 0.0
C66 C 0.5015 0.02475 0.2411 0.0
C67 C 0.52955 0.04913 0.23325 0.0
C68 C 0.52779 0.05251 0.21597 0.0
C69 C 0.49748 0.03116 0.20651 0.0
C70 C 0.46951 0.00631 0.21413 0.0
C71 C 0.47161 0.0032 0.23138 0.0
C72 C 0.43818 0.98294 0.20404 0.0
C73 C 0.42138 0.99537 0.19451 0.0
C74 C 0.42463 0.94787 0.20418 0.0
C75 C 0.39457 0.92547 0.19504 0.0
C76 C 0.37726 0.93777 0.18582 0.0
C77 C 0.55794 0.07787 0.20785 0.0
C78 C 0.57867 0.11032 0.216 0.0
C79 C 0.56681 0.06956 0.1922 0.0
C80 C 0.59623 0.09301 0.18503 0.0
C81 C 0.61736 0.12509 0.19343 0.0
C82 C 0.60808 0.13364 0.20888 0.0
C83 C 0.39085 0.97289 0.1856 0.0
H84 H 0.53427 0.0718 0.29618 0.0
H85 H 0.531 0.07621 0.26608 0.0
H86 H 0.47641 0.96697 0.25758 0.0
H87 H 0.47946 0.96261 0.28775 0.0
H88 H 0.55312 0.06495 0.24055 0.0
H89 H 0.44963 0.98439 0.23726 0.0
H90 H 0.49569 0.03356 0.19318 0.0
H91 H 0.43145 0.02241 0.1943 0.0
H92 H 0.43731 0.93781 0.21139 0.0
H93 H 0.38433 0.89848 0.19557 0.0
H94 H 0.57215 0.11771 0.2279 0.0
H95 H 0.55152 0.04462 0.1857 0.0
H96 H 0.37781 0.98286 0.17861 0.0
H97 H 0.62355 0.15847 0.21546 0.0
H98 H 0.60292 0.08575 0.17314 0.0
C99 C 0.54393 0.54568 0.61607 0.0
C100 C 0.56129 0.53489 0.62632 0.0
C101 C 0.54974 0.54843 0.59898 0.0
C102 C 0.5728 0.54016 0.59178 0.0
C103 C 0.59011 0.52931 0.60203 0.0
C104 C 0.58451 0.52683 0.61914 0.0
C105 C 0.57846 0.54243 0.57359 0.0
C106 C 0.5828 0.5708 0.56576 0.0
C107 C 0.5877 0.57288 0.54847 0.0
C108 C 0.58788 0.54602 0.53894 0.0
C109 C 0.58351 0.51747 0.54662 0.0
C110 C 0.57907 0.51597 0.56395 0.0
C111 C 0.58237 0.48851 0.53658 0.0
C112 C 0.56095 0.47387 0.52202 0.0
C113 C 0.60111 0.47401 0.54213 0.0
C114 C 0.59778 0.4448 0.53356 0.0
C115 C 0.57538 0.42934 0.51937 0.0
C116 C 0.59262 0.60319 0.54046 0.0
C117 C 0.57166 0.61679 0.54412 0.0
C118 C 0.61877 0.61926 0.52951 0.0
C119 C 0.62428 0.64882 0.52262 0.0
C120 C 0.60349 0.66258 0.52643 0.0
C121 C 0.57699 0.64612 0.53715 0.0
C122 C 0.55731 0.44437 0.51354 0.0
H123 H 0.52609 0.55232 0.6213 0.0
H124 H 0.53583 0.55658 0.59134 0.0
H125 H 0.60819 0.52298 0.59682 0.0
H126 H 0.59804 0.51819 0.62672 0.0
H127 H 0.5831 0.59166 0.57323 0.0
H128 H 0.5749 0.4936 0.56983 0.0
H129 H 0.59123 0.54722 0.52556 0.0
H130 H 0.54608 0.4845 0.51756 0.0
H131 H 0.61792 0.48495 0.55328 0.0
H132 H 0.61176 0.43357 0.53844 0.0
H133 H 0.55115 0.60476 0.55241 0.0
H134 H 0.63543 0.60941 0.52657 0.0
H135 H 0.53998 0.43301 0.50259 0.0
H136 H 0.5608 0.65635 0.54047 0.0
H137 H 0.64476 0.6609 0.51432 0.0
C138 C 0.07282 0.58212 0.95276 0.0
C139 C 0.04224 0.55938 0.95953 0.0
C140 C 0.07414 0.58663 0.9356 0.0
C141 C 0.04481 0.56876 0.92495 0.0
C142 C 0.01428 0.54603 0.93174 0.0
C143 C 0.01303 0.54132 0.94884 0.0
C144 C 0.04589 0.57346 0.90677 0.0
C145 C 0.07125 0.5729 0.89732 0.0
C146 C 0.07075 0.57475 0.87987 0.0
C147 C 0.04527 0.57814 0.87191 0.0
C148 C 0.0201 0.57927 0.88122 0.0
C149 C 0.02053 0.57688 0.89863 0.0
C150 C 0.99249 0.58141 0.87268 0.0
C151 C 0.99943 0.60504 0.86078 0.0
C152 C 0.95889 0.55948 0.87633 0.0
C153 C 0.93267 0.56119 0.8683 0.0
C154 C 0.93952 0.58496 0.8565 0.0
C155 C 0.09544 0.57068 0.86981 0.0
C156 C 0.13011 0.59067 0.87411 0.0
C157 C 0.08424 0.54552 0.85636 0.0
C158 C 0.10732 0.53956 0.84773 0.0
C159 C 0.14194 0.55909 0.85225 0.0
C160 C 0.15323 0.58511 0.86529 0.0
C161 C 0.97313 0.60695 0.85282 0.0
H162 H 0.09577 0.59621 0.96071 0.0
H163 H 0.09797 0.60439 0.93069 0.0
H164 H 0.99137 0.53162 0.92379 0.0
H165 H 0.98905 0.52388 0.95374 0.0
H166 H 0.09042 0.56932 0.9034 0.0
H167 H 1.00113 0.57784 0.90588 0.0
H168 H 0.04464 0.57913 0.8584 0.0
H169 H 0.02519 0.62232 0.85782 0.0
H170 H 0.95285 0.5408 0.88532 0.0
H171 H 0.90701 0.54426 0.87155 0.0
H172 H 0.13923 0.61025 0.88443 0.0
H173 H 0.05755 0.52965 0.85292 0.0
H174 H 0.97903 0.62546 0.84376 0.0
H175 H 0.17981 0.60021 0.86911 0.0
H176 H 0.09811 0.51933 0.83773 0.0
C177 C 0.98583 0.49615 0.38395 0.0
C178 C 0.01336 0.50181 0.3743 0.0
C179 C 0.98794 0.4954 0.40138 0.0
C180 C 0.01767 0.50042 0.40955 0.0
C181 C 0.04505 0.50568 0.39987 0.0
C182 C 0.04292 0.50637 0.38246 0.0
C183 C 0.02047 0.50094 0.42813 0.0
C184 C 0.99367 0.47717 0.43687 0.0
C185 C 0.99612 0.47757 0.45447 0.0
C186 C 0.02609 0.50256 0.46342 0.0
C187 C 0.05318 0.52653 0.45475 0.0
C188 C 0.05007 0.52542 0.4372 0.0
C189 C 0.08514 0.55346 0.46348 0.0
C190 C 0.08576 0.57952 0.47411 0.0
C191 C 0.11585 0.55619 0.45891 0.0
C192 C 0.14653 0.58518 0.46408 0.0
C193 C 0.14732 0.61247 0.47376 0.0
C194 C 0.96729 0.451 0.46305 0.0
C195 C 0.93404 0.4425 0.45847 0.0
C196 C 0.97233 0.43174 0.47453 0.0
C197 C 0.94465 0.40362 0.48066 0.0
C198 C 0.91135 0.39439 0.47556 0.0
C199 C 0.90648 0.41464 0.46464 0.0
C200 C 0.11658 0.60881 0.4792 0.0
H201 H 0.96256 0.49218 0.37803 0.0
H202 H 0.96649 0.49154 0.40849 0.0
H203 H 0.06818 0.50925 0.40576 0.0
H204 H 0.06471 0.51111 0.37544 0.0
H205 H 0.97111 0.45759 0.42987 0.0
H206 H 0.07069 0.54434 0.4306 0.0
H207 H 0.02836 0.5033 0.47697 0.0
H208 H 0.06236 0.57816 0.47762 0.0
H209 H 0.11601 0.53642 0.45071 0.0
H210 H 0.16965 0.58661 0.46002 0.0
H211 H 0.92931 0.45697 0.44972 0.0
H212 H 0.99764 0.43752 0.47821 0.0
H213 H 0.11614 0.6293 0.4866 0.0
H214 H 0.8813 0.40823 0.46031 0.0
H215 H 0.94934 0.38884 0.48921 0.0
C216 C 0.51213 0.9864 0.72036 0.0
C217 C 0.53608 0.01484 0.71262 0.0
C218 C 0.51084 0.98732 0.73784 0.0
C219 C 0.5334 0.01675 0.74798 0.0
C220 C 0.5574 0.04515 0.74024 0.0
C221 C 0.55875 0.04419 0.72277 0.0
C222 C 0.53189 0.01798 0.76656 0.0
C223 C 0.52761 0.99058 0.77523 0.0
C224 C 0.52657 0.99162 0.79283 0.0
C225 C 0.53014 0.02099 0.80187 0.0
C226 C 0.53441 0.04881 0.79329 0.0
C227 C 0.53498 0.04674 0.77567 0.0
C228 C 0.53782 0.08026 0.80217 0.0
C229 C 0.51546 0.07886 0.8144 0.0
C230 C 0.56146 0.11209 0.79702 0.0
C231 C 0.56149 0.14147 0.8031 0.0
C232 C 0.53813 0.14011 0.81473 0.0
C233 C 0.52248 0.96179 0.80128 0.0
C234 C 0.4979 0.92893 0.79488 0.0
C235 C 0.54529 0.96543 0.8143 0.0
C236 C 0.54463 0.93678 0.82013 0.0
C237 C 0.52095 0.9039 0.81316 0.0
C238 C 0.49713 0.90043 0.80073 0.0
C239 C 0.51559 0.10845 0.8206 0.0
H240 H 0.49452 0.96329 0.7129 0.0
H241 H 0.49188 0.96512 0.74342 0.0
H242 H 0.57537 0.06808 0.7477 0.0
H243 H 0.57728 0.06665 0.71721 0.0
H244 H 0.52597 0.96859 0.76826 0.0
H245 H 0.53714 0.06747 0.76892 0.0
H246 H 0.52961 0.02216 0.81544 0.0
H247 H 0.49688 0.05474 0.81861 0.0
H248 H 0.57934 0.11417 0.78776 0.0
H249 H 0.57903 0.16506 0.79806 0.0
H250 H 0.47989 0.92529 0.78488 0.0
H251 H 0.56463 0.99042 0.81941 0.0
H252 H 0.4976 0.10638 0.82976 0.0
H253 H 0.47873 0.87569 0.7949 0.0
H254 H 0.56309 0.94042 0.82987 0.0
C255 C 0.50385 0.49304 0.05125 0.0
C256 C 0.49916 0.51644 0.04272 0.0
C257 C 0.50444 0.49429 0.06878 0.0
C258 C 0.5002 0.51887 0.0782 0.0
C259 C 0.49524 0.54211 0.06969 0.0
C260 C 0.4948 0.54095 0.05216 0.0
C261 C 0.50125 0.52044 0.09684 0.0
C262 C 0.52601 0.5173 0.10571 0.0
C263 C 0.52752 0.51886 0.12335 0.0
C264 C 0.50352 0.52362 0.13222 0.0
C265 C 0.4784 0.52681 0.12343 0.0
C266 C 0.47764 0.52521 0.10579 0.0
C267 C 0.4521 0.53115 0.13219 0.0
C268 C 0.43206 0.50865 0.14384 0.0
C269 C 0.44436 0.55565 0.12741 0.0
C270 C 0.41638 0.5567 0.13348 0.0
C271 C 0.39523 0.5332 0.1445 0.0
C272 C 0.55509 0.51631 0.13201 0.0
C273 C 0.56252 0.49117 0.12616 0.0
C274 C 0.57667 0.54108 0.14461 0.0
C275 C 0.60609 0.54178 0.1505 0.0
C276 C 0.61438 0.51754 0.14401 0.0
C277 C 0.5917 0.49177 0.13206 0.0
C278 C 0.4038 0.50955 0.14987 0.0
H279 H 0.5067 0.47345 0.04438 0.0
H280 H 0.50782 0.47573 0.07496 0.0
H281 H 0.49235 0.56162 0.07662 0.0
H282 H 0.49166 0.5597 0.04604 0.0
H283 H 0.54488 0.51456 0.09883 0.0
H284 H 0.45796 0.52683 0.09894 0.0
H285 H 0.50441 0.52487 0.14581 0.0
H286 H 0.43728 0.48936 0.14767 0.0
H287 H 0.45941 0.57342 0.1185 0.0
H288 H 0.41052 0.57506 0.12893 0.0
H289 H 0.54629 0.47164 0.11651 0.0
H290 H 0.57172 0.56089 0.14929 0.0
H291 H 0.38833 0.49133 0.1585 0.0
H292 H 0.59723 0.47285 0.12661 0.0
H293 H 0.62272 0.56174 0.15988 0.0
H294 H 0.10411 0.51786 0.14784 0.0
H295 H 0.15212 0.50903 0.14315 0.0
H296 H 0.19774 0.5617 0.19147 0.0
H297 H 0.14992 0.57023 0.19634 0.0
H298 H 0.21879 0.55805 0.14156 0.0
H299 H 0.206 0.47733 0.19278 0.0
H300 H 0.17236 0.48438 0.18605 0.0
H301 H 0.20645 0.51558 0.20005 0.0
C302 C 0.12412 0.52712 0.15758 0.0
C303 C 0.12304 0.54467 0.17249 0.0
C304 C 0.15161 0.52213 0.15486 0.0
C305 C 0.1784 0.53428 0.16705 0.0
C306 C 0.17711 0.55141 0.18202 0.0
H307 H 0.38581 0.58704 0.15296 0.0
H308 H 0.33277 0.58581 0.15832 0.0
C309 C 0.14975 0.55645 0.18474 0.0
C310 C 0.2087 0.53105 0.16376 0.0
H311 H 0.25906 0.50298 0.17984 0.0
C312 C 0.22742 0.54575 0.14986 0.0
C313 C 0.21985 0.51469 0.17447 0.0
C314 C 0.19995 0.49679 0.18908 0.0
C315 C 0.25742 0.54547 0.14667 0.0
C316 C 0.26943 0.53055 0.15783 0.0
C317 C 0.25015 0.51485 0.17142 0.0
C318 C 0.30199 0.53114 0.15556 0.0
C319 C 0.27588 0.56099 0.13128 0.0
C320 C 0.30267 0.5008 0.1529 0.0
C321 C 0.33306 0.50141 0.14986 0.0
C322 C 0.36349 0.53241 0.14948 0.0
C323 C 0.36284 0.56272 0.15282 0.0
C324 C 0.33248 0.56207 0.15587 0.0
H325 H 0.25906 0.56287 0.12178 0.0
H326 H 0.297 0.58698 0.13496 0.0
H327 H 0.28658 0.54596 0.12537 0.0
H328 H 0.2795 0.47661 0.1527 0.0
H329 H 0.33248 0.47758 0.14719 0.0
H330 H 0.64271 0.15365 0.5313 0.0
H331 H 0.69751 0.20107 0.5254 0.0
H332 H 0.69343 0.15014 0.47729 0.0
H333 H 0.63807 0.10252 0.483 0.0
H334 H 0.75907 0.20639 0.51796 0.0
H335 H 0.70598 0.2412 0.46495 0.0
H336 H 0.67968 0.21156 0.47948 0.0
H337 H 0.69805 0.19842 0.46301 0.0
C338 C 0.6535 0.15228 0.5195 0.0
C339 C 0.63578 0.12431 0.50757 0.0
C340 C 0.68493 0.17949 0.51616 0.0
C341 C 0.69939 0.17951 0.50079 0.0
C342 C 0.68249 0.151 0.48911 0.0
H343 H 0.90515 0.33189 0.478 0.0
H344 H 0.85501 0.27941 0.48449 0.0
C345 C 0.65095 0.12367 0.49245 0.0
C346 C 0.7315 0.20996 0.49692 0.0
H347 H 0.76491 0.27364 0.47063 0.0
C348 C 0.76042 0.22101 0.50755 0.0
C349 C 0.73312 0.22937 0.48351 0.0
C350 C 0.70254 0.21982 0.47214 0.0
C351 C 0.79085 0.25085 0.50515 0.0
C352 C 0.79258 0.26999 0.4916 0.0
C353 C 0.76366 0.2589 0.48096 0.0
C354 C 0.82375 0.30214 0.48848 0.0
C355 C 0.82056 0.26216 0.51744 0.0
C356 C 0.82294 0.33245 0.48842 0.0
C357 C 0.85157 0.3625 0.48472 0.0
C358 C 0.88172 0.36297 0.48087 0.0
C359 C 0.88261 0.33265 0.48118 0.0
C360 C 0.8539 0.30255 0.48487 0.0
H361 H 0.81273 0.24964 0.52932 0.0
H362 H 0.83864 0.25543 0.51177 0.0
H363 H 0.83393 0.29005 0.52046 0.0
H364 H 0.80001 0.33282 0.49118 0.0
H365 H 0.85002 0.38538 0.48478 0.0
H366 H 0.48174 0.61155 0.79673 0.0
H367 H 0.49294 0.66967 0.79839 0.0
H368 H 0.5395 0.68788 0.84812 0.0
H369 H 0.52789 0.62911 0.84665 0.0
H370 H 0.49381 0.71063 0.84624 0.0
H371 H 0.58098 0.75736 0.7947 0.0
H372 H 0.54241 0.71914 0.78812 0.0
H373 H 0.57049 0.71849 0.8039 0.0
C374 C 0.49472 0.6279 0.80799 0.0
C375 C 0.50401 0.61557 0.82154 0.0
C376 C 0.50129 0.66131 0.80887 0.0
C377 C 0.51754 0.68343 0.82327 0.0
C378 C 0.52712 0.67137 0.83682 0.0
H379 H 0.57677 0.89765 0.81916 0.0
H380 H 0.57841 0.84621 0.82412 0.0
C381 C 0.52059 0.6378 0.83594 0.0
C382 C 0.52282 0.71847 0.82431 0.0
H383 H 0.55471 0.7898 0.80312 0.0
C384 C 0.50752 0.72813 0.83695 0.0
C385 C 0.54112 0.74162 0.81236 0.0
C386 C 0.55999 0.73379 0.79911 0.0
C387 C 0.50869 0.75956 0.83747 0.0
C388 C 0.52509 0.78175 0.82485 0.0
C389 C 0.54175 0.77273 0.8127 0.0
C390 C 0.52415 0.8137 0.82353 0.0
C391 C 0.49226 0.76861 0.85156 0.0
C392 C 0.49314 0.8128 0.82168 0.0
C393 C 0.49213 0.84226 0.819 0.0
C394 C 0.52211 0.87337 0.81792 0.0
C395 C 0.55317 0.87435 0.82015 0.0
C396 C 0.55416 0.84484 0.82286 0.0
H397 H 0.49098 0.75504 0.8628 0.0
H398 H 0.50612 0.79629 0.85523 0.0
H399 H 0.46602 0.76098 0.84737 0.0
H400 H 0.4696 0.78907 0.82179 0.0
H401 H 0.46774 0.8405 0.81749 0.0
H402 H 0.86853 0.48405 0.12729 0.0
H403 H 0.82101 0.49395 0.12878 0.0
H404 H 0.85821 0.54636 0.17799 0.0
H405 H 0.90592 0.53602 0.17671 0.0
H406 H 0.79037 0.49954 0.17687 0.0
H407 H 0.81734 0.57965 0.12391 0.0
H408 H 0.81666 0.54082 0.11782 0.0
H409 H 0.84836 0.57126 0.13311 0.0
C410 C 0.86696 0.49806 0.13838 0.0
C411 C 0.89122 0.50934 0.15186 0.0
C412 C 0.83977 0.50388 0.13917 0.0
C413 C 0.83621 0.52137 0.15338 0.0
C414 C 0.86052 0.53299 0.16683 0.0
H415 H 0.67689 0.57489 0.14887 0.0
H416 H 0.73155 0.5785 0.15363 0.0
C417 C 0.88786 0.52719 0.16606 0.0
C418 C 0.80608 0.52574 0.15441 0.0
H419 H 0.76053 0.55318 0.1329 0.0
C420 C 0.78407 0.51167 0.16738 0.0
C421 C 0.79799 0.54201 0.1422 0.0
C422 C 0.82152 0.55961 0.12858 0.0
C423 C 0.75355 0.51207 0.16803 0.0
C424 C 0.74442 0.52637 0.15518 0.0
C425 C 0.76719 0.54182 0.14266 0.0
C426 C 0.71092 0.52443 0.15403 0.0
C427 C 0.73141 0.49713 0.18249 0.0
C428 C 0.68093 0.49289 0.15283 0.0
C429 C 0.64958 0.49077 0.1503 0.0
C430 C 0.6474 0.52012 0.14869 0.0
C431 C 0.67744 0.55177 0.15029 0.0
C432 C 0.70881 0.55387 0.15287 0.0
H433 H 0.7464 0.49778 0.1937 0.0
H434 H 0.71782 0.51088 0.18601 0.0
H435 H 0.71247 0.47023 0.17878 0.0
H436 H 0.68179 0.46971 0.15333 0.0
H437 H 0.62705 0.46598 0.14929 0.0
H438 H 0.43582 0.87036 0.46213 0.0
H439 H 0.37962 0.82064 0.4623 0.0
H440 H 0.36855 0.85375 0.5124 0.0
H441 H 0.42493 0.90404 0.51228 0.0
H442 H 0.35988 0.77075 0.48469 0.0
H443 H 0.27869 0.82933 0.48798 0.0
H444 H 0.32194 0.85208 0.48206 0.0
H445 H 0.31276 0.84561 0.50371 0.0
C446 C 0.42136 0.8674 0.47314 0.0
C447 C 0.43499 0.89127 0.48721 0.0
C448 C 0.38918 0.83886 0.47322 0.0
C449 C 0.3697 0.83349 0.48731 0.0
C450 C 0.38285 0.85759 0.50127 0.0
H451 H 0.17027 0.65667 0.50248 0.0
H452 H 0.22392 0.71044 0.50729 0.0
C453 C 0.41515 0.88629 0.5012 0.0
C454 C 0.33662 0.80159 0.48756 0.0
H455 H 0.2514 0.76986 0.48869 0.0
C456 C 0.33619 0.77061 0.48562 0.0
C457 C 0.3057 0.80135 0.48894 0.0
C458 C 0.30454 0.83381 0.49067 0.0
C459 C 0.30579 0.73949 0.48475 0.0
C460 C 0.27479 0.7392 0.48556 0.0
C461 C 0.27518 0.77012 0.48805 0.0
C462 C 0.24184 0.7071 0.48272 0.0
C463 C 0.30712 0.70711 0.48294 0.0
C464 C 0.2338 0.68774 0.46724 0.0
C465 C 0.20326 0.65724 0.46443 0.0
C466 C 0.17983 0.64523 0.47705 0.0
C467 C 0.18763 0.66508 0.49248 0.0
C468 C 0.21832 0.69578 0.49527 0.0
H469 H 0.33216 0.71127 0.48731 0.0
H470 H 0.28734 0.68733 0.49012 0.0
H471 H 0.30269 0.69745 0.46949 0.0
H472 H 0.25117 0.69634 0.45723 0.0
H473 H 0.19784 0.6433 0.45222 0.0
H474 H 0.523 0.40947 0.8663 0.0
H475 H 0.51924 0.35419 0.86224 0.0
H476 H 0.54125 0.36977 0.81022 0.0
H477 H 0.54365 0.42457 0.81405 0.0
H478 H 0.49485 0.30617 0.81292 0.0
H479 H 0.59849 0.3404 0.86035 0.0
H480 H 0.56419 0.34346 0.86912 0.0
H481 H 0.58826 0.37109 0.85341 0.0
C482 C 0.52683 0.40104 0.85396 0.0
C483 C 0.53388 0.42158 0.84053 0.0
C484 C 0.52498 0.3695 0.85169 0.0
C485 C 0.53096 0.35807 0.83604 0.0
C486 C 0.53681 0.37803 0.82246 0.0
H487 H 0.59048 0.20601 0.81998 0.0
H488 H 0.58711 0.25738 0.82496 0.0
C489 C 0.53814 0.40939 0.82466 0.0
C490 C 0.53143 0.32558 0.83386 0.0
H491 H 0.56772 0.2827 0.84956 0.0
C492 C 0.51085 0.30109 0.82091 0.0
C493 C 0.5527 0.319 0.84409 0.0
C494 C 0.57741 0.34501 0.8574 0.0
C495 C 0.51081 0.27034 0.81798 0.0
C496 C 0.53112 0.26324 0.82863 0.0
C497 C 0.55178 0.28779 0.84152 0.0
C498 C 0.53273 0.23137 0.82611 0.0
C499 C 0.48983 0.24638 0.80311 0.0
C500 C 0.50341 0.19929 0.8255 0.0
C501 C 0.50517 0.16967 0.82226 0.0
C502 C 0.5364 0.17136 0.81984 0.0
C503 C 0.56585 0.20352 0.82132 0.0
C504 C 0.56401 0.23306 0.82434 0.0
H505 H 0.48399 0.25964 0.79361 0.0
H506 H 0.50294 0.234 0.79694 0.0
H507 H 0.46551 0.22639 0.80744 0.0
H508 H 0.47903 0.19709 0.82734 0.0
H509 H 0.48187 0.14554 0.82117 0.0
H510 H 0.64742 0.96124 0.50763 0.0
H511 H 0.66336 0.91734 0.50756 0.0
H512 H 0.56117 0.84118 0.49164 0.0
H513 H 0.54518 0.88454 0.49148 0.0
H514 H 0.63613 0.86378 0.52729 0.0
H515 H 0.6154 0.81527 0.4605 0.0
H516 H 0.61945 0.85567 0.46736 0.0
H517 H 0.57958 0.81709 0.46802 0.0
C518 C 0.62851 0.93519 0.50386 0.0
C519 C 0.59502 0.92635 0.4996 0.0
C520 C 0.63767 0.9102 0.50381 0.0
C521 C 0.61359 0.87612 0.4993 0.0
C522 C 0.58037 0.86742 0.49473 0.0
H523 H 0.55715 0.67639 0.51292 0.0
H524 H 0.56661 0.73096 0.5048 0.0
C525 C 0.57119 0.89225 0.49482 0.0
C526 C 0.62177 0.84893 0.501 0.0
H527 H 0.61128 0.776 0.48063 0.0
C528 C 0.63161 0.84502 0.51701 0.0
C529 C 0.61591 0.82459 0.48754 0.0
C530 C 0.60735 0.82856 0.46985 0.0
C531 C 0.63316 0.81603 0.52022 0.0
C532 C 0.62506 0.79061 0.50699 0.0
C533 C 0.61729 0.79551 0.49075 0.0
C534 C 0.62063 0.75724 0.51023 0.0
C535 C 0.64122 0.8117 0.53794 0.0
C536 C 0.64804 0.75389 0.51556 0.0
C537 C 0.64268 0.72273 0.52028 0.0
C538 C 0.60981 0.69458 0.51975 0.0
C539 C 0.58266 0.69778 0.5137 0.0
C540 C 0.58805 0.72882 0.50895 0.0
H541 H 0.64257 0.83176 0.54712 0.0
H542 H 0.62184 0.78661 0.54176 0.0
H543 H 0.66596 0.81275 0.53856 0.0
H544 H 0.6734 0.77554 0.51648 0.0
H545 H 0.66405 0.72103 0.52495 0.0
H546 H 0.66508 0.5896 0.84631 0.0
H547 H 0.72547 0.6093 0.84879 0.0
H548 H 0.71543 0.5456 0.8042 0.0
H549 H 0.65526 0.52644 0.80138 0.0
H550 H 0.74819 0.56708 0.85424 0.0
H551 H 0.80295 0.63076 0.79684 0.0
H552 H 0.76209 0.62245 0.80343 0.0
H553 H 0.76652 0.58961 0.7921 0.0
C554 C 0.67586 0.58028 0.83685 0.0
C555 C 0.65541 0.55624 0.82374 0.0
C556 C 0.71037 0.59168 0.83825 0.0
C557 C 0.725 0.57922 0.82658 0.0
C558 C 0.70486 0.55621 0.8131 0.0
H559 H 0.87975 0.53303 0.84281 0.0
H560 H 0.82989 0.53585 0.83403 0.0
C561 C 0.67038 0.54501 0.81161 0.0
C562 C 0.75987 0.58631 0.82985 0.0
H563 H 0.83498 0.61071 0.81179 0.0
C564 C 0.76732 0.57721 0.84507 0.0
C565 C 0.78483 0.5996 0.81789 0.0
C566 C 0.77882 0.61149 0.80172 0.0
C567 C 0.79855 0.57965 0.84836 0.0
C568 C 0.82272 0.59103 0.83602 0.0
C569 C 0.81605 0.60159 0.8211 0.0
C570 C 0.85431 0.59039 0.83836 0.0
C571 C 0.80523 0.56924 0.86487 0.0
C572 C 0.88466 0.62033 0.84309 0.0
C573 C 0.91316 0.61879 0.84817 0.0
C574 C 0.91144 0.58727 0.84862 0.0
C575 C 0.88154 0.55758 0.84284 0.0
C576 C 0.85319 0.55915 0.83774 0.0
H577 H 0.78697 0.56765 0.87429 0.0
H578 H 0.80299 0.54393 0.86279 0.0
H579 H 0.83121 0.58743 0.8701 0.0
H580 H 0.88577 0.64461 0.84367 0.0
H581 H 0.93588 0.64203 0.85264 0.0
H582 H 0.14741 0.65333 0.13986 0.0
H583 H 0.18948 0.71361 0.14186 0.0
H584 H 0.12581 0.73507 0.17362 0.0
H585 H 0.08421 0.67449 0.17227 0.0
H586 H 0.1905 0.77056 0.13411 0.0
H587 H 0.21042 0.77389 0.2032 0.0
H588 H 0.1853 0.73485 0.19029 0.0
H589 H 0.16809 0.76157 0.19631 0.0
C590 C 0.14229 0.6709 0.14721 0.0
C591 C 0.11283 0.65922 0.15614 0.0
C592 C 0.16629 0.70535 0.14829 0.0
C593 C 0.16108 0.72874 0.15817 0.0
C594 C 0.13075 0.71734 0.16631 0.0
H595 H 0.31796 0.93723 0.18937 0.0
H596 H 0.26133 0.89077 0.18001 0.0
C597 C 0.10699 0.68278 0.16549 0.0
C598 C 0.18844 0.76456 0.16067 0.0
H599 H 0.24374 0.82423 0.19062 0.0
C600 C 0.20191 0.78246 0.14648 0.0
C601 C 0.20334 0.78001 0.17684 0.0
C602 C 0.19131 0.76156 0.19252 0.0
C603 C 0.23059 0.81496 0.148 0.0
C604 C 0.24593 0.82981 0.16409 0.0
C605 C 0.23155 0.81272 0.17832 0.0
C606 C 0.27933 0.8608 0.16648 0.0
C607 C 0.24489 0.83284 0.13242 0.0
C608 C 0.30799 0.85944 0.16165 0.0
C609 C 0.34015 0.88561 0.16712 0.0
C610 C 0.34408 0.91359 0.17742 0.0
C611 C 0.3155 0.91601 0.18131 0.0
C612 C 0.28324 0.88957 0.176 0.0
H613 H 0.22583 0.82232 0.12168 0.0
H614 H 0.25429 0.86042 0.13473 0.0
H615 H 0.26651 0.82958 0.12885 0.0
H616 H 0.3054 0.83715 0.15455 0.0
H617 H 0.36189 0.88328 0.16396 0.0
H618 H 0.55119 0.14432 0.46606 0.0
H619 H 0.5561 0.2002 0.46816 0.0
H620 H 0.50645 0.17908 0.51493 0.0
H621 H 0.50195 0.12334 0.51312 0.0
H622 H 0.50969 0.2236 0.47161 0.0
H623 H 0.59901 0.26365 0.52732 0.0
H624 H 0.58675 0.22538 0.51405 0.0
H625 H 0.55904 0.2263 0.52954 0.0
C626 C 0.54092 0.15135 0.4767 0.0
C627 C 0.52661 0.1296 0.48956 0.0
C628 C 0.54371 0.18328 0.47785 0.0
C629 C 0.53222 0.19393 0.49185 0.0
C630 C 0.51606 0.1715 0.50419 0.0
H631 H 0.51469 0.37261 0.51082 0.0
H632 H 0.5044 0.31591 0.50184 0.0
C633 C 0.5134 0.13964 0.5031 0.0
C634 C 0.53912 0.22922 0.49409 0.0
H635 H 0.58099 0.30175 0.52014 0.0
C636 C 0.52533 0.24079 0.48218 0.0
C637 C 0.56015 0.2517 0.5077 0.0
C638 C 0.57739 0.24132 0.52031 0.0
C639 C 0.53139 0.27419 0.48376 0.0
C640 C 0.55132 0.29624 0.49775 0.0
C641 C 0.5656 0.28476 0.50945 0.0
C642 C 0.55733 0.33116 0.50087 0.0
C643 C 0.51682 0.28565 0.47034 0.0
C644 C 0.59048 0.35856 0.5033 0.0
C645 C 0.5964 0.39087 0.50861 0.0
C646 C 0.56926 0.39635 0.51155 0.0
C647 C 0.53607 0.3692 0.50841 0.0
C648 C 0.53016 0.33681 0.50323 0.0
H649 H 0.51128 0.26975 0.4583 0.0
H650 H 0.49275 0.28335 0.47445 0.0
H651 H 0.5343 0.31252 0.4681 0.0
H652 H 0.6118 0.35472 0.50158 0.0
H653 H 0.62221 0.41143 0.51083 0.0
H654 H 0.38526 0.50414 0.81184 0.0
H655 H 0.33592 0.51117 0.80898 0.0
H656 H 0.32095 0.50051 0.86187 0.0
H657 H 0.3707 0.49427 0.86496 0.0
H658 H 0.26795 0.47406 0.81603 0.0
H659 H 0.3357 0.59507 0.85608 0.0
H660 H 0.35651 0.57301 0.84775 0.0
H661 H 0.3328 0.55997 0.86627 0.0
C662 C 0.37115 0.50274 0.82282 0.0
C663 C 0.38213 0.4992 0.83869 0.0
C664 C 0.343 0.50677 0.82114 0.0
C665 C 0.32541 0.50717 0.83529 0.0
C666 C 0.33479 0.50109 0.85089 0.0
H667 H 0.13748 0.49756 0.84934 0.0
H668 H 0.18166 0.48514 0.84136 0.0
C669 C 0.36309 0.49739 0.85262 0.0
C670 C 0.29876 0.51625 0.83405 0.0
H671 H 0.27669 0.57252 0.85074 0.0
C672 C 0.26987 0.49574 0.82347 0.0
C673 C 0.30191 0.54518 0.84336 0.0
C674 C 0.33356 0.5698 0.85386 0.0
C675 C 0.24316 0.50249 0.82264 0.0
C676 C 0.24527 0.52996 0.83295 0.0
C677 C 0.2749 0.55131 0.84291 0.0
C678 C 0.21646 0.53589 0.83475 0.0
C679 C 0.21309 0.48015 0.81073 0.0
C680 C 0.22125 0.56856 0.83372 0.0
C681 C 0.19632 0.57587 0.83868 0.0
C682 C 0.16606 0.55051 0.84453 0.0
C683 C 0.16045 0.5174 0.84463 0.0
C684 C 0.18561 0.51023 0.83995 0.0
H685 H 0.22046 0.46958 0.79972 0.0
H686 H 0.19422 0.45849 0.81731 0.0
H687 H 0.20099 0.49418 0.80615 0.0
H688 H 0.24492 0.58878 0.8298 0.0
H689 H 0.20107 0.60156 0.83847 0.0
H690 H 0.90107 0.37556 0.14837 0.0
H691 H 0.85134 0.31844 0.1453 0.0
H692 H 0.80903 0.3446 0.18766 0.0
H693 H 0.85826 0.40143 0.19083 0.0
H694 H 0.82515 0.26951 0.16996 0.0
H695 H 0.73353 0.30729 0.14965 0.0
H696 H 0.77862 0.33422 0.14853 0.0
H697 H 0.7589 0.3323 0.16806 0.0
C698 C 0.88115 0.3691 0.15703 0.0
C699 C 0.8835 0.39302 0.16981 0.0
C700 C 0.85282 0.33654 0.15523 0.0
C701 C 0.82637 0.32768 0.16605 0.0
C702 C 0.82894 0.35129 0.17897 0.0
H703 H 0.67889 0.16309 0.20989 0.0
H704 H 0.73039 0.20763 0.19912 0.0
C705 C 0.8572 0.38367 0.18083 0.0
C706 C 0.79628 0.29349 0.16442 0.0
H707 H 0.71038 0.25389 0.16199 0.0
C708 C 0.80003 0.26582 0.16784 0.0
C709 C 0.76366 0.28869 0.16128 0.0
C710 C 0.75838 0.31715 0.15649 0.0
C711 C 0.77174 0.23398 0.16962 0.0
C712 C 0.73914 0.23009 0.16815 0.0
C713 C 0.73542 0.25702 0.16329 0.0
C714 C 0.70911 0.20021 0.17378 0.0
C715 C 0.77705 0.20515 0.17364 0.0
C716 C 0.67993 0.18149 0.16315 0.0
C717 C 0.65025 0.15619 0.16935 0.0
C718 C 0.64929 0.14966 0.18634 0.0
C719 C 0.67882 0.16786 0.1968 0.0
C720 C 0.7084 0.19296 0.19059 0.0
H721 H 0.80072 0.20815 0.16848 0.0
H722 H 0.77934 0.20506 0.18748 0.0
H723 H 0.75557 0.18031 0.16857 0.0
H724 H 0.67991 0.18705 0.15018 0.0
H725 H 0.62775 0.14267 0.16106 0.0
H726 H 0.0303 0.58138 0.11963 0.0
H727 H 0.03694 0.58603 0.08952 0.0
H728 H 0.99288 0.47762 0.08125 0.0
H729 H 0.98678 0.47274 0.11149 0.0
H730 H 0.05019 0.51245 0.06393 0.0
H731 H 0.96303 0.56158 0.05371 0.0
H732 H 0.99555 0.58642 0.06977 0.0
H733 H 0.96466 0.54323 0.07275 0.0
C734 C 0.02183 0.55846 0.11142 0.0
C735 C 0.0078 0.52664 0.11793 0.0
C736 C 0.0255 0.56117 0.0942 0.0
C737 C 0.0148 0.53211 0.08313 0.0
C738 C 1.00109 0.50033 0.08959 0.0
H739 H 0.01069 0.49998 0.97453 0.0
H740 H 0.00508 0.49279 0.00464 0.0
C741 C 0.9976 0.49759 0.10685 0.0
C742 C 0.01866 0.53507 0.06487 0.0
H743 H 0.99795 0.56471 0.03125 0.0
C744 C 0.03857 0.52363 0.05675 0.0
C745 C 0.00339 0.54961 0.05554 0.0
C746 C 0.98019 0.56061 0.06334 0.0
C747 C 0.04428 0.5271 0.0396 0.0
C748 C 0.02953 0.54221 0.0304 0.0
C749 C 0.00941 0.55338 0.03845 0.0
C750 C 0.03438 0.54642 0.01231 0.0
C751 C 0.06653 0.51523 0.03148 0.0
C752 C 0.05256 0.57897 0.00676 0.0
C753 C 0.0558 0.58317 0.9896 0.0
C754 C 0.04051 0.55486 0.97774 0.0
C755 C 0.02252 0.52225 0.98339 0.0
C756 C 0.01951 0.51808 0.00055 0.0
H757 H 0.0809 0.50987 0.04092 0.0
H758 H 0.05062 0.49163 0.02328 0.0
H759 H 0.08464 0.53454 0.02349 0.0
H760 H 0.064 0.60113 0.0157 0.0
H761 H 0.06947 0.60859 0.9856 0.0
H762 H 0.48362 0.01729 0.45457 0.0
H763 H 0.47902 0.01685 0.42405 0.0
H764 H 0.55835 0.99244 0.41936 0.0
H765 H 0.56274 0.99218 0.44986 0.0
H766 H 0.52782 0.05715 0.4033 0.0
H767 H 0.48453 0.92144 0.38618 0.0
H768 H 0.48405 0.93769 0.40733 0.0
H769 H 0.52276 0.94299 0.39931 0.0
C770 C 0.49994 0.01156 0.44705 0.0
C771 C 0.52347 0.00464 0.45464 0.0
C772 C 0.49728 0.01137 0.42962 0.0
C773 C 0.518 0.00415 0.41945 0.0
C774 C 0.54162 0.99735 0.42697 0.0
H775 H 0.56159 0.05344 0.3165 0.0
H776 H 0.56403 0.05022 0.34687 0.0
C777 C 0.54423 0.99743 0.44441 0.0
C778 C 0.51573 0.00503 0.40102 0.0
H779 H 0.50055 0.95735 0.36379 0.0
C780 C 0.52175 0.03531 0.39465 0.0
C781 C 0.5074 0.97636 0.38981 0.0
C782 C 0.49899 0.94267 0.39597 0.0
C783 C 0.52014 0.03787 0.37732 0.0
C784 C 0.51295 0.00956 0.36609 0.0
C785 C 0.5064 0.9791 0.37245 0.0
C786 C 0.51174 0.01096 0.34767 0.0
C787 C 0.52559 0.07068 0.37121 0.0
C788 C 0.48182 0.98925 0.33802 0.0
C789 C 0.48038 0.99093 0.32066 0.0
C790 C 0.50891 0.01432 0.31267 0.0
C791 C 0.53903 0.0356 0.32235 0.0
C792 C 0.54047 0.03381 0.33969 0.0
H793 H 0.52188 0.0864 0.38123 0.0
H794 H 0.55186 0.08553 0.36725 0.0
H795 H 0.50813 0.06586 0.36026 0.0
H796 H 0.45941 0.97136 0.34396 0.0
H797 H 0.45676 0.9744 0.31356 0.0
H798 H 0.46769 0.48413 0.77922 0.0
H799 H 0.47263 0.48462 0.74871 0.0
H800 H 0.58008 0.55218 0.75601 0.0
H801 H 0.5755 0.55205 0.78642 0.0
H802 H 0.50404 0.54688 0.72973 0.0
H803 H 0.56625 0.46907 0.72331 0.0
H804 H 0.54186 0.46819 0.74106 0.0
H805 H 0.58378 0.50323 0.73966 0.0
C806 C 0.49238 0.499 0.77433 0.0
C807 C 0.52122 0.51796 0.78523 0.0
C808 C 0.49512 0.49928 0.75693 0.0
C809 C 0.52675 0.51815 0.7502 0.0
C810 C 0.55552 0.53715 0.76102 0.0
H811 H 0.60822 0.55671 0.6525 0.0
H812 H 0.59819 0.55206 0.68246 0.0
C813 C 0.55281 0.53712 0.77838 0.0
C814 C 0.52979 0.51864 0.73185 0.0
H815 H 0.56355 0.49554 0.69934 0.0
C816 C 0.51679 0.53546 0.723 0.0
C817 C 0.5466 0.50383 0.72326 0.0
C818 C 0.56026 0.48481 0.73223 0.0
C819 C 0.52104 0.53874 0.70574 0.0
C820 C 0.53803 0.52405 0.69711 0.0
C821 C 0.55058 0.50681 0.70598 0.0
C822 C 0.54376 0.5269 0.67896 0.0
C823 C 0.50837 0.55891 0.69705 0.0
C824 C 0.51646 0.51397 0.66706 0.0
C825 C 0.52214 0.51675 0.64996 0.0
C826 C 0.55521 0.53207 0.64445 0.0
C827 C 0.58247 0.54455 0.65638 0.0
C828 C 0.57677 0.542 0.67348 0.0
H829 H 0.50432 0.57586 0.70615 0.0
H830 H 0.52635 0.57455 0.68782 0.0
H831 H 0.48382 0.54123 0.69022 0.0
H832 H 0.49075 0.50144 0.67099 0.0
H833 H 0.50065 0.50641 0.64102 0.0
H834 H 0.5133 0.04306 0.555 0.0
H835 H 0.51525 0.04372 0.58559 0.0
H836 H 0.56882 0.98839 0.58293 0.0
H837 H 0.56661 0.98713 0.55229 0.0
H838 H 0.51526 0.96178 0.60378 0.0
H839 H 0.59635 0.10051 0.61869 0.0
H840 H 0.55994 0.08881 0.60511 0.0
H841 H 0.59214 0.08015 0.59794 0.0
C842 C 0.52568 0.03118 0.5609 0.0
C843 C 0.53985 0.01509 0.55117 0.0
C844 C 0.52693 0.03176 0.57841 0.0
C845 C 0.5426 0.01653 0.58653 0.0
C846 C 0.55675 1.00044 0.57689 0.0
H847 H 0.59199 0.04002 0.69393 0.0
H848 H 0.59391 0.03955 0.66333 0.0
C849 C 0.55549 0.9998 0.55938 0.0
C850 C 0.54315 0.01631 0.60507 0.0
H851 H 0.56928 0.06793 0.64153 0.0
C852 C 0.52721 0.98497 0.61205 0.0
C853 C 0.55913 0.04659 0.61581 0.0
C854 C 0.57815 0.08093 0.60904 0.0
C855 C 0.52618 0.9831 0.62951 0.0
C856 C 0.54103 0.0134 0.64024 0.0
C857 C 0.55762 0.04473 0.63327 0.0
C858 C 0.53967 0.01318 0.65875 0.0
C859 C 0.50957 0.9487 0.6363 0.0
C860 C 0.50854 0.9988 0.6663 0.0
C861 C 0.50735 0.99908 0.68378 0.0
C862 C 0.53732 0.01403 0.69403 0.0
C863 C 0.56847 0.0286 0.6864 0.0
C864 C 0.56962 0.02824 0.66893 0.0
H865 H 0.50769 0.92878 0.62685 0.0
H866 H 0.52373 0.94891 0.64774 0.0
H867 H 0.4836 0.94174 0.63971 0.0
H868 H 0.48514 0.98773 0.65869 0.0
H869 H 0.48298 0.98819 0.68927 0.0
H870 H 0.45643 0.47987 0.88044 0.0
H871 H 0.45251 0.47951 0.91094 0.0
H872 H 0.55911 0.55147 0.9177 0.0
H873 H 0.56332 0.55228 0.88727 0.0
H874 H 0.48772 0.46267 0.93438 0.0
H875 H 0.51524 0.59521 0.94704 0.0
H876 H 0.5033 0.57317 0.92631 0.0
H877 H 0.54577 0.59076 0.93492 0.0
C878 C 0.47905 0.49573 0.8884 0.0
C879 C 0.51016 0.51629 0.88139 0.0
C880 C 0.47675 0.49544 0.90582 0.0
C881 C 0.50542 0.51583 0.91655 0.0
C882 C 0.53656 0.53603 0.90963 0.0
H883 H 0.53998 0.5045 0.022 0.0
H884 H 0.53985 0.50297 0.99136 0.0
C885 C 0.53893 0.53631 0.89222 0.0
C886 C 0.5029 0.51556 0.935 0.0
H887 H 0.5142 0.56611 0.97078 0.0
C888 C 0.49336 0.48522 0.94235 0.0
C889 C 0.50992 0.54495 0.94532 0.0
C890 C 0.51884 0.57783 0.93803 0.0
C891 C 0.49139 0.48369 0.95981 0.0
C892 C 0.49949 0.51335 0.97016 0.0
C893 C 0.50829 0.54349 0.96279 0.0
C894 C 0.49911 0.51367 0.9887 0.0
C895 C 0.48039 0.4503 0.96704 0.0
C896 C 0.47659 0.52073 0.99735 0.0
C897 C 0.47645 0.52146 0.01486 0.0
C898 C 0.49907 0.51542 0.02407 0.0
C899 C 0.52179 0.50862 0.01531 0.0
C900 C 0.52181 0.50779 0.9978 0.0
H901 H 0.46746 0.42858 0.95734 0.0
H902 H 0.50291 0.45026 0.97232 0.0
H903 H 0.46312 0.4465 0.97735 0.0
H904 H 0.45892 0.52541 0.99053 0.0
H905 H 0.45836 0.52638 0.02117 0.0
H906 H 0.97921 0.46545 0.21285 0.0
H907 H 0.97991 0.46284 0.24327 0.0
H908 H 0.03329 0.57198 0.25035 0.0
H909 H 0.03316 0.57496 0.2199 0.0
H910 H 0.06091 0.5424 0.26983 0.0
H911 H 0.92261 0.48241 0.27616 0.0
H912 H 0.93463 0.4599 0.26111 0.0
H913 H 0.94273 0.50163 0.25746 0.0
C914 C 0.99108 0.48895 0.22085 0.0
C915 C 0.00604 0.52044 0.21391 0.0
C916 C 0.99124 0.48737 0.23824 0.0
C917 C 0.00617 0.5172 0.24905 0.0
C918 C 0.02145 0.54866 0.24221 0.0
H919 H 0.98607 0.53286 0.35688 0.0
H920 H 0.98455 0.53699 0.32654 0.0
C921 C 0.0213 0.55029 0.2248 0.0
C922 C 0.00658 0.51557 0.26751 0.0
H923 H 0.95544 0.48559 0.30027 0.0
C924 C 0.03788 0.53011 0.27651 0.0
C925 C 0.97648 0.49988 0.2762 0.0
C926 C 0.94219 0.48533 0.26729 0.0
C927 C 0.03988 0.52877 0.29396 0.0
C928 C 0.00976 0.51202 0.30256 0.0
C929 C 0.97847 0.4981 0.29361 0.0
C930 C 0.01021 0.50888 0.32089 0.0
C931 C 0.0742 0.5457 0.30307 0.0
C932 C 0.02459 0.49117 0.32771 0.0
C933 C 0.02538 0.48863 0.34502 0.0
C934 C 0.01158 0.50358 0.35583 0.0
C935 C 0.99661 0.52077 0.34889 0.0
C936 C 0.99587 0.52331 0.33158 0.0
H937 H 0.09404 0.5646 0.29554 0.0
H938 H 0.07409 0.55858 0.31533 0.0
H939 H 0.08108 0.52622 0.3055 0.0
H940 H 0.03511 0.47918 0.31963 0.0
H941 H 0.03654 0.4747 0.34992 0.0
loop_
_geom_bond_atom_site_label_1
_geom_bond_atom_site_label_2
_geom_bond_distance
_geom_bond_site_symmetry_2
_ccdc_geom_bond_type
Zn0 O6 1.969 . S
Zn0 O7 1.965 . S
Zn0 O11 2.024 . S
Zn0 O16 1.969 . S
Zn1 O8 1.969 . S
Zn1 O14 1.969 . S
Zn1 O15 1.965 . S
Zn1 O17 2.024 . S
C2 O3 1.229 . S
C2 O11 1.058 . S
O3 C2 1.229 . S
C4 O5 1.229 . S
C4 O17 1.058 . S
O5 C4 1.229 . S
O6 Zn0 1.969 . S
O6 C9 1.267 . S
O7 Zn0 1.965 . S
O7 C18 1.258 1_455 S
O8 Zn1 1.969 . S
O8 C18 1.262 . S
C9 O6 1.267 . S
C9 O10 1.228 . S
O10 C9 1.228 . S
O11 Zn0 2.024 . S
O11 C2 1.058 . S
C12 O13 1.228 . S
C12 O14 1.267 . S
O13 C12 1.228 . S
O14 Zn1 1.969 . S
O14 C12 1.267 . S
O15 Zn1 1.965 . S
O15 C19 1.260 1_655 S
O16 Zn0 1.969 . S
O16 C19 1.258 . S
O17 Zn1 2.024 . S
O17 C4 1.058 . S
C18 O7 1.258 1_655 S
C18 O8 1.262 . S
C19 O15 1.260 1_455 S
C19 O16 1.258 . S
Zn20 O26 1.969 . S
Zn20 O27 1.965 . S
Zn20 O31 2.024 . S
Zn20 O36 1.969 . S
Zn21 O28 1.969 . S
Zn21 O34 1.969 . S
Zn21 O35 1.978 . S
Zn21 O37 2.024 . S
C22 O23 1.229 . S
C22 O31 1.058 . S
O23 C22 1.229 . S
C24 O25 1.229 . S
C24 O37 1.058 . S
O25 C24 1.229 . S
O26 Zn20 1.969 . S
O26 C29 1.267 . S
O27 Zn20 1.965 . S
O27 C38 1.260 . S
O28 Zn21 1.969 . S
O28 C38 1.258 1_565 S
C29 O26 1.267 . S
C29 O30 1.228 . S
O30 C29 1.228 . S
O31 Zn20 2.024 . S
O31 C22 1.058 . S
C32 O33 1.228 . S
C32 O34 1.267 . S
O33 C32 1.228 . S
O34 Zn21 1.969 . S
O34 C32 1.267 . S
O35 Zn21 1.978 . S
O35 C39 1.240 1_565 S
O36 Zn20 1.969 . S
O36 C39 1.258 . S
O37 Zn21 2.024 . S
O37 C24 1.058 . S
C38 O27 1.260 . S
C38 O28 1.258 1_545 S
C39 O35 1.240 1_545 S
C39 O36 1.258 . S
Zn40 O46 1.969 . S
Zn40 O47 1.965 . S
Zn40 O51 2.024 . S
Zn40 O56 1.969 . S
Zn41 O48 1.969 . S
Zn41 O54 1.969 . S
Zn41 O55 1.965 . S
Zn41 O57 2.024 . S
C42 O43 1.229 . S
C42 O51 1.058 . S
O43 C42 1.229 . S
C44 O45 1.229 . S
C44 O57 1.058 . S
O45 C44 1.229 . S
O46 Zn40 1.969 . S
O46 C49 1.267 . S
O47 Zn40 1.965 . S
O47 C58 1.260 . S
O48 Zn41 1.969 . S
O48 C58 1.258 . S
C49 O46 1.267 . S
C49 O50 1.228 . S
O50 C49 1.228 . S
O51 Zn40 2.024 . S
O51 C42 1.058 . S
C52 O53 1.228 . S
C52 O54 1.267 . S
O53 C52 1.228 . S
O54 Zn41 1.969 . S
O54 C52 1.267 . S
O55 Zn41 1.965 . S
O55 C59 1.260 . S
O56 Zn40 1.969 . S
O56 C59 1.258 . S
O57 Zn41 2.024 . S
O57 C44 1.058 . S
C58 O47 1.260 . S
C58 O48 1.258 . S
C59 O55 1.260 . S
C59 O56 1.258 . S
C60 C61 1.386 . S
C60 C62 1.397 . S
C60 H84 0.931 . S
C61 C60 1.386 . S
C61 C65 1.397 . S
C62 C60 1.397 . S
C62 C63 1.384 . S
C62 H85 0.930 . S
C63 C62 1.384 . S
C63 C64 1.377 . S
C63 C66 1.481 . S
C64 C63 1.377 . S
C64 C65 1.389 . S
C64 H86 0.929 1_545 S
C65 C61 1.397 . S
C65 C64 1.389 . S
C65 H87 0.931 1_545 S
C66 C63 1.481 . S
C66 C67 1.387 . S
C66 C71 1.390 . S
C67 C66 1.387 . S
C67 C68 1.401 . S
C67 H88 0.930 . S
C68 C67 1.401 . S
C68 C69 1.376 . S
C68 C77 1.511 . S
C69 C68 1.376 . S
C69 C70 1.392 . S
C69 H90 0.931 . S
C70 C69 1.392 . S
C70 C71 1.361 . S
C70 C72 1.500 1_545 S
C71 C66 1.390 . S
C71 C70 1.361 . S
C71 H89 0.931 1_545 S
C72 C70 1.500 1_565 S
C72 C73 1.371 . S
C72 C74 1.365 . S
C73 C72 1.371 . S
C73 C83 1.386 . S
C73 H91 0.931 1_565 S
C74 C72 1.365 . S
C74 C75 1.409 . S
C74 H92 0.929 . S
C75 C74 1.409 . S
C75 C76 1.380 . S
C75 H93 0.930 . S
C76 C75 1.380 . S
C76 C83 1.357 . S
C77 C68 1.511 . S
C77 C78 1.341 . S
C77 C79 1.371 . S
C78 C77 1.341 . S
C78 C82 1.394 . S
C78 H94 0.930 . S
C79 C77 1.371 . S
C79 C80 1.392 . S
C79 H95 0.931 . S
C80 C79 1.392 . S
C80 C81 1.331 . S
C80 H98 0.932 . S
C81 C80 1.331 . S
C81 C82 1.336 . S
C82 C78 1.394 . S
C82 C81 1.336 . S
C82 H97 0.929 . S
C83 C73 1.386 . S
C83 C76 1.357 . S
C83 H96 0.928 . S
H84 C60 0.931 . S
H85 C62 0.930 . S
H86 C64 0.929 1_565 S
H87 C65 0.931 1_565 S
H88 C67 0.930 . S
H89 C71 0.931 1_565 S
H90 C69 0.931 . S
H91 C73 0.931 1_545 S
H92 C74 0.929 . S
H93 C75 0.930 . S
H94 C78 0.930 . S
H95 C79 0.931 . S
H96 C83 0.928 . S
H97 C82 0.929 . S
H98 C80 0.932 . S
C99 C100 1.386 . S
C99 C101 1.397 . S
C99 H123 0.931 . S
C100 C99 1.386 . S
C100 C104 1.397 . S
C101 C99 1.397 . S
C101 C102 1.384 . S
C101 H124 0.930 . S
C102 C101 1.384 . S
C102 C103 1.377 . S
C102 C105 1.481 . S
C103 C102 1.377 . S
C103 C104 1.389 . S
C103 H125 0.929 . S
C104 C100 1.397 . S
C104 C103 1.389 . S
C104 H126 0.931 . S
C105 C102 1.481 . S
C105 C106 1.387 . S
C105 C110 1.390 . S
C106 C105 1.387 . S
C106 C107 1.401 . S
C106 H127 0.930 . S
C107 C106 1.401 . S
C107 C108 1.376 . S
C107 C116 1.511 . S
C108 C107 1.376 . S
C108 C109 1.392 . S
C108 H129 0.931 . S
C109 C108 1.392 . S
C109 C110 1.361 . S
C109 C111 1.500 . S
C110 C105 1.390 . S
C110 C109 1.361 . S
C110 H128 0.931 . S
C111 C109 1.500 . S
C111 C112 1.371 . S
C111 C113 1.365 . S
C112 C111 1.371 . S
C112 C122 1.386 . S
C112 H130 0.931 . S
C113 C111 1.365 . S
C113 C114 1.409 . S
C113 H131 0.929 . S
C114 C113 1.409 . S
C114 C115 1.380 . S
C114 H132 0.930 . S
C115 C114 1.380 . S
C115 C122 1.357 . S
C116 C107 1.511 . S
C116 C117 1.341 . S
C116 C118 1.371 . S
C117 C116 1.341 . S
C117 C121 1.394 . S
C117 H133 0.930 . S
C118 C116 1.371 . S
C118 C119 1.392 . S
C118 H134 0.931 . S
C119 C118 1.392 . S
C119 C120 1.331 . S
C119 H137 0.932 . S
C120 C119 1.331 . S
C120 C121 1.336 . S
C121 C117 1.394 . S
C121 C120 1.336 . S
C121 H136 0.929 . S
C122 C112 1.386 . S
C122 C115 1.357 . S
C122 H135 0.928 . S
H123 C99 0.931 . S
H124 C101 0.930 . S
H125 C103 0.929 . S
H126 C104 0.931 . S
H127 C106 0.930 . S
H128 C110 0.931 . S
H129 C108 0.931 . S
H130 C112 0.931 . S
H131 C113 0.929 . S
H132 C114 0.930 . S
H133 C117 0.930 . S
H134 C118 0.931 . S
H135 C122 0.928 . S
H136 C121 0.929 . S
H137 C119 0.932 . S
C138 C139 1.386 . S
C138 C140 1.397 . S
C138 H162 0.931 . S
C139 C138 1.386 . S
C139 C143 1.397 . S
C140 C138 1.397 . S
C140 C141 1.384 . S
C140 H163 0.930 . S
C141 C140 1.384 . S
C141 C142 1.377 . S
C141 C144 1.481 . S
C142 C141 1.377 . S
C142 C143 1.389 . S
C142 H164 0.929 1_455 S
C143 C139 1.397 . S
C143 C142 1.389 . S
C143 H165 0.931 1_455 S
C144 C141 1.481 . S
C144 C145 1.387 . S
C144 C149 1.390 . S
C145 C144 1.387 . S
C145 C146 1.401 . S
C145 H166 0.930 . S
C146 C145 1.401 . S
C146 C147 1.376 . S
C146 C155 1.511 . S
C147 C146 1.376 . S
C147 C148 1.392 . S
C147 H168 0.931 . S
C148 C147 1.392 . S
C148 C149 1.361 . S
C148 C150 1.500 1_455 S
C149 C144 1.390 . S
C149 C148 1.361 . S
C149 H167 0.931 1_455 S
C150 C148 1.500 1_655 S
C150 C151 1.371 . S
C150 C152 1.365 . S
C151 C150 1.371 . S
C151 C161 1.386 . S
C151 H169 0.931 1_655 S
C152 C150 1.365 . S
C152 C153 1.409 . S
C152 H170 0.929 . S
C153 C152 1.409 . S
C153 C154 1.380 . S
C153 H171 0.930 . S
C154 C153 1.380 . S
C154 C161 1.357 . S
C155 C146 1.511 . S
C155 C156 1.341 . S
C155 C157 1.371 . S
C156 C155 1.341 . S
C156 C160 1.394 . S
C156 H172 0.930 . S
C157 C155 1.371 . S
C157 C158 1.392 . S
C157 H173 0.931 . S
C158 C157 1.392 . S
C158 C159 1.331 . S
C158 H176 0.932 . S
C159 C158 1.331 . S
C159 C160 1.336 . S
C160 C156 1.394 . S
C160 C159 1.336 . S
C160 H175 0.929 . S
C161 C151 1.386 . S
C161 C154 1.357 . S
C161 H174 0.928 . S
H162 C138 0.931 . S
H163 C140 0.930 . S
H164 C142 0.929 1_655 S
H165 C143 0.931 1_655 S
H166 C145 0.930 . S
H167 C149 0.931 1_655 S
H168 C147 0.931 . S
H169 C151 0.931 1_455 S
H170 C152 0.929 . S
H171 C153 0.930 . S
H172 C156 0.930 . S
H173 C157 0.931 . S
H174 C161 0.928 . S
H175 C160 0.929 . S
H176 C158 0.932 . S
C177 C178 1.386 1_655 S
C177 C179 1.397 . S
C177 H201 0.931 . S
C178 C177 1.386 1_455 S
C178 C182 1.397 . S
C179 C177 1.397 . S
C179 C180 1.384 1_655 S
C179 H202 0.930 . S
C180 C179 1.384 1_455 S
C180 C181 1.377 . S
C180 C183 1.481 . S
C181 C180 1.377 . S
C181 C182 1.389 . S
C181 H203 0.929 . S
C182 C178 1.397 . S
C182 C181 1.389 . S
C182 H204 0.931 . S
C183 C180 1.481 . S
C183 C184 1.387 1_455 S
C183 C188 1.390 . S
C184 C183 1.387 1_655 S
C184 C185 1.401 . S
C184 H205 0.930 . S
C185 C184 1.401 . S
C185 C186 1.376 1_655 S
C185 C194 1.511 . S
C186 C185 1.376 1_455 S
C186 C187 1.392 . S
C186 H207 0.931 . S
C187 C186 1.392 . S
C187 C188 1.361 . S
C187 C189 1.500 . S
C188 C183 1.390 . S
C188 C187 1.361 . S
C188 H206 0.931 . S
C189 C187 1.500 . S
C189 C190 1.371 . S
C189 C191 1.365 . S
C190 C189 1.371 . S
C190 C200 1.386 . S
C190 H208 0.931 . S
C191 C189 1.365 . S
C191 C192 1.409 . S
C191 H209 0.929 . S
C192 C191 1.409 . S
C192 C193 1.380 . S
C192 H210 0.930 . S
C193 C192 1.380 . S
C193 C200 1.357 . S
C194 C185 1.511 . S
C194 C195 1.341 . S
C194 C196 1.371 . S
C195 C194 1.341 . S
C195 C199 1.394 . S
C195 H211 0.930 . S
C196 C194 1.371 . S
C196 C197 1.392 . S
C196 H212 0.931 . S
C197 C196 1.392 . S
C197 C198 1.331 . S
C197 H215 0.932 . S
C198 C197 1.331 . S
C198 C199 1.336 . S
C199 C195 1.394 . S
C199 C198 1.336 . S
C199 H214 0.929 . S
C200 C190 1.386 . S
C200 C193 1.357 . S
C200 H213 0.928 . S
H201 C177 0.931 . S
H202 C179 0.930 . S
H203 C181 0.929 . S
H204 C182 0.931 . S
H205 C184 0.930 . S
H206 C188 0.931 . S
H207 C186 0.931 . S
H208 C190 0.931 . S
H209 C191 0.929 . S
H210 C192 0.930 . S
H211 C195 0.930 . S
H212 C196 0.931 . S
H213 C200 0.928 . S
H214 C199 0.929 . S
H215 C197 0.932 . S
C216 C217 1.386 1_565 S
C216 C218 1.397 . S
C216 H240 0.931 . S
C217 C216 1.386 1_545 S
C217 C221 1.397 . S
C218 C216 1.397 . S
C218 C219 1.384 1_565 S
C218 H241 0.930 . S
C219 C218 1.384 1_545 S
C219 C220 1.377 . S
C219 C222 1.481 . S
C220 C219 1.377 . S
C220 C221 1.389 . S
C220 H242 0.929 . S
C221 C217 1.397 . S
C221 C220 1.389 . S
C221 H243 0.931 . S
C222 C219 1.481 . S
C222 C223 1.387 1_545 S
C222 C227 1.390 . S
C223 C222 1.387 1_565 S
C223 C224 1.401 . S
C223 H244 0.930 . S
C224 C223 1.401 . S
C224 C225 1.376 1_565 S
C224 C233 1.511 . S
C225 C224 1.376 1_545 S
C225 C226 1.392 . S
C225 H246 0.931 . S
C226 C225 1.392 . S
C226 C227 1.361 . S
C226 C228 1.500 . S
C227 C222 1.390 . S
C227 C226 1.361 . S
C227 H245 0.931 . S
C228 C226 1.500 . S
C228 C229 1.371 . S
C228 C230 1.365 . S
C229 C228 1.371 . S
C229 C239 1.386 . S
C229 H247 0.931 . S
C230 C228 1.365 . S
C230 C231 1.409 . S
C230 H248 0.929 . S
C231 C230 1.409 . S
C231 C232 1.380 . S
C231 H249 0.930 . S
C232 C231 1.380 . S
C232 C239 1.357 . S
C233 C224 1.511 . S
C233 C234 1.341 . S
C233 C235 1.371 . S
C234 C233 1.341 . S
C234 C238 1.394 . S
C234 H250 0.930 . S
C235 C233 1.371 . S
C235 C236 1.392 . S
C235 H251 0.931 . S
C236 C235 1.392 . S
C236 C237 1.331 . S
C236 H254 0.932 . S
C237 C236 1.331 . S
C237 C238 1.336 . S
C238 C234 1.394 . S
C238 C237 1.336 . S
C238 H253 0.929 . S
C239 C229 1.386 . S
C239 C232 1.357 . S
C239 H252 0.928 . S
H240 C216 0.931 . S
H241 C218 0.930 . S
H242 C220 0.929 . S
H243 C221 0.931 . S
H244 C223 0.930 . S
H245 C227 0.931 . S
H246 C225 0.931 . S
H247 C229 0.931 . S
H248 C230 0.929 . S
H249 C231 0.930 . S
H250 C234 0.930 . S
H251 C235 0.931 . S
H252 C239 0.928 . S
H253 C238 0.929 . S
H254 C236 0.932 . S
C255 C256 1.386 . S
C255 C257 1.397 . S
C255 H279 0.931 . S
C256 C255 1.386 . S
C256 C260 1.397 . S
C257 C255 1.397 . S
C257 C258 1.384 . S
C257 H280 0.930 . S
C258 C257 1.384 . S
C258 C259 1.377 . S
C258 C261 1.481 . S
C259 C258 1.377 . S
C259 C260 1.389 . S
C259 H281 0.929 . S
C260 C256 1.397 . S
C260 C259 1.389 . S
C260 H282 0.931 . S
C261 C258 1.481 . S
C261 C262 1.387 . S
C261 C266 1.390 . S
C262 C261 1.387 . S
C262 C263 1.401 . S
C262 H283 0.930 . S
C263 C262 1.401 . S
C263 C264 1.376 . S
C263 C272 1.511 . S
C264 C263 1.376 . S
C264 C265 1.392 . S
C264 H285 0.931 . S
C265 C264 1.392 . S
C265 C266 1.361 . S
C265 C267 1.500 . S
C266 C261 1.390 . S
C266 C265 1.361 . S
C266 H284 0.931 . S
C267 C265 1.500 . S
C267 C268 1.371 . S
C267 C269 1.365 . S
C268 C267 1.371 . S
C268 C278 1.386 . S
C268 H286 0.931 . S
C269 C267 1.365 . S
C269 C270 1.409 . S
C269 H287 0.929 . S
C270 C269 1.409 . S
C270 C271 1.380 . S
C270 H288 0.930 . S
C271 C270 1.380 . S
C271 C278 1.357 . S
C272 C263 1.511 . S
C272 C273 1.341 . S
C272 C274 1.371 . S
C273 C272 1.341 . S
C273 C277 1.394 . S
C273 H289 0.930 . S
C274 C272 1.371 . S
C274 C275 1.392 . S
C274 H290 0.931 . S
C275 C274 1.392 . S
C275 C276 1.331 . S
C275 H293 0.932 . S
C276 C275 1.331 . S
C276 C277 1.336 . S
C277 C273 1.394 . S
C277 C276 1.336 . S
C277 H292 0.929 . S
C278 C268 1.386 . S
C278 C271 1.357 . S
C278 H291 0.928 . S
H279 C255 0.931 . S
H280 C257 0.930 . S
H281 C259 0.929 . S
H282 C260 0.931 . S
H283 C262 0.930 . S
H284 C266 0.931 . S
H285 C264 0.931 . S
H286 C268 0.931 . S
H287 C269 0.929 . S
H288 C270 0.930 . S
H289 C273 0.930 . S
H290 C274 0.931 . S
H291 C278 0.928 . S
H292 C277 0.929 . S
H293 C275 0.932 . S
H294 C302 0.929 . S
H295 C304 0.930 . S
H296 C306 0.930 . S
H297 C309 0.929 . S
H298 C312 0.930 . S
H299 C314 0.960 . S
H300 C314 0.960 . S
H301 C314 0.960 . S
C302 H294 0.929 . S
C302 C303 1.377 . S
C302 C304 1.384 . S
C303 C302 1.377 . S
C303 C309 1.390 . S
C304 H295 0.930 . S
C304 C302 1.384 . S
C304 C305 1.372 . S
C305 C304 1.372 . S
C305 C306 1.400 . S
C305 C310 1.490 . S
C306 H296 0.930 . S
C306 C305 1.400 . S
C306 C309 1.386 . S
H307 C323 0.930 . S
H308 C324 0.931 . S
C309 H297 0.929 . S
C309 C303 1.390 . S
C309 C306 1.386 . S
C310 C305 1.490 . S
C310 C312 1.395 . S
C310 C313 1.403 . S
H311 C317 0.930 . S
C312 H298 0.930 . S
C312 C310 1.395 . S
C312 C315 1.403 . S
C313 C310 1.403 . S
C313 C314 1.524 . S
C313 C317 1.400 . S
C314 H299 0.960 . S
C314 H300 0.960 . S
C314 H301 0.960 . S
C314 C313 1.524 . S
C315 C312 1.403 . S
C315 C316 1.392 . S
C315 C319 1.495 . S
C316 C315 1.392 . S
C316 C317 1.385 . S
C316 C318 1.478 . S
C317 H311 0.930 . S
C317 C313 1.400 . S
C317 C316 1.385 . S
C318 C316 1.478 . S
C318 C320 1.381 . S
C318 C324 1.383 . S
C319 C315 1.495 . S
C319 H325 0.959 . S
C319 H326 0.961 . S
C319 H327 0.960 . S
C320 C318 1.381 . S
C320 C321 1.394 . S
C320 H328 0.930 . S
C321 C320 1.394 . S
C321 C322 1.383 . S
C321 H329 0.929 . S
C322 C321 1.383 . S
C322 C323 1.377 . S
C323 H307 0.930 . S
C323 C322 1.377 . S
C323 C324 1.379 . S
C324 H308 0.931 . S
C324 C318 1.383 . S
C324 C323 1.379 . S
H325 C319 0.959 . S
H326 C319 0.961 . S
H327 C319 0.960 . S
H328 C320 0.930 . S
H329 C321 0.929 . S
H330 C338 0.929 . S
H331 C340 0.930 . S
H332 C342 0.930 . S
H333 C345 0.929 . S
H334 C348 0.930 . S
H335 C350 0.960 . S
H336 C350 0.960 . S
H337 C350 0.960 . S
C338 H330 0.929 . S
C338 C339 1.377 . S
C338 C340 1.384 . S
C339 C338 1.377 . S
C339 C345 1.390 . S
C340 H331 0.930 . S
C340 C338 1.384 . S
C340 C341 1.372 . S
C341 C340 1.372 . S
C341 C342 1.400 . S
C341 C346 1.490 . S
C342 H332 0.930 . S
C342 C341 1.400 . S
C342 C345 1.386 . S
H343 C359 0.930 . S
H344 C360 0.931 . S
C345 H333 0.929 . S
C345 C339 1.390 . S
C345 C342 1.386 . S
C346 C341 1.490 . S
C346 C348 1.395 . S
C346 C349 1.403 . S
H347 C353 0.930 . S
C348 H334 0.930 . S
C348 C346 1.395 . S
C348 C351 1.403 . S
C349 C346 1.403 . S
C349 C350 1.524 . S
C349 C353 1.400 . S
C350 H335 0.960 . S
C350 H336 0.960 . S
C350 H337 0.960 . S
C350 C349 1.524 . S
C351 C348 1.403 . S
C351 C352 1.392 . S
C351 C355 1.495 . S
C352 C351 1.392 . S
C352 C353 1.385 . S
C352 C354 1.478 . S
C353 H347 0.930 . S
C353 C349 1.400 . S
C353 C352 1.385 . S
C354 C352 1.478 . S
C354 C356 1.381 . S
C354 C360 1.383 . S
C355 C351 1.495 . S
C355 H361 0.959 . S
C355 H362 0.961 . S
C355 H363 0.960 . S
C356 C354 1.381 . S
C356 C357 1.394 . S
C356 H364 0.930 . S
C357 C356 1.394 . S
C357 C358 1.383 . S
C357 H365 0.929 . S
C358 C357 1.383 . S
C358 C359 1.377 . S
C359 H343 0.930 . S
C359 C358 1.377 . S
C359 C360 1.379 . S
C360 H344 0.931 . S
C360 C354 1.383 . S
C360 C359 1.379 . S
H361 C355 0.959 . S
H362 C355 0.961 . S
H363 C355 0.960 . S
H364 C356 0.930 . S
H365 C357 0.929 . S
H366 C374 0.929 . S
H367 C376 0.930 . S
H368 C378 0.930 . S
H369 C381 0.929 . S
H370 C384 0.930 . S
H371 C386 0.960 . S
H372 C386 0.960 . S
H373 C386 0.960 . S
C374 H366 0.929 . S
C374 C375 1.377 . S
C374 C376 1.384 . S
C375 C374 1.377 . S
C375 C381 1.390 . S
C376 H367 0.930 . S
C376 C374 1.384 . S
C376 C377 1.372 . S
C377 C376 1.372 . S
C377 C378 1.400 . S
C377 C382 1.490 . S
C378 H368 0.930 . S
C378 C377 1.400 . S
C378 C381 1.386 . S
H379 C395 0.930 . S
H380 C396 0.931 . S
C381 H369 0.929 . S
C381 C375 1.390 . S
C381 C378 1.386 . S
C382 C377 1.490 . S
C382 C384 1.395 . S
C382 C385 1.403 . S
H383 C389 0.930 . S
C384 H370 0.930 . S
C384 C382 1.395 . S
C384 C387 1.403 . S
C385 C382 1.403 . S
C385 C386 1.524 . S
C385 C389 1.400 . S
C386 H371 0.960 . S
C386 H372 0.960 . S
C386 H373 0.960 . S
C386 C385 1.524 . S
C387 C384 1.403 . S
C387 C388 1.392 . S
C387 C391 1.495 . S
C388 C387 1.392 . S
C388 C389 1.385 . S
C388 C390 1.478 . S
C389 H383 0.930 . S
C389 C385 1.400 . S
C389 C388 1.385 . S
C390 C388 1.478 . S
C390 C392 1.381 . S
C390 C396 1.383 . S
C391 C387 1.495 . S
C391 H397 0.959 . S
C391 H398 0.961 . S
C391 H399 0.960 . S
C392 C390 1.381 . S
C392 C393 1.394 . S
C392 H400 0.930 . S
C393 C392 1.394 . S
C393 C394 1.383 . S
C393 H401 0.929 . S
C394 C393 1.383 . S
C394 C395 1.377 . S
C395 H379 0.930 . S
C395 C394 1.377 . S
C395 C396 1.379 . S
C396 H380 0.931 . S
C396 C390 1.383 . S
C396 C395 1.379 . S
H397 C391 0.959 . S
H398 C391 0.961 . S
H399 C391 0.960 . S
H400 C392 0.930 . S
H401 C393 0.929 . S
H402 C410 0.929 . S
H403 C412 0.930 . S
H404 C414 0.930 . S
H405 C417 0.929 . S
H406 C420 0.930 . S
H407 C422 0.960 . S
H408 C422 0.960 . S
H409 C422 0.960 . S
C410 H402 0.929 . S
C410 C411 1.377 . S
C410 C412 1.384 . S
C411 C410 1.377 . S
C411 C417 1.390 . S
C412 H403 0.930 . S
C412 C410 1.384 . S
C412 C413 1.372 . S
C413 C412 1.372 . S
C413 C414 1.400 . S
C413 C418 1.490 . S
C414 H404 0.930 . S
C414 C413 1.400 . S
C414 C417 1.386 . S
H415 C431 0.930 . S
H416 C432 0.931 . S
C417 H405 0.929 . S
C417 C411 1.390 . S
C417 C414 1.386 . S
C418 C413 1.490 . S
C418 C420 1.395 . S
C418 C421 1.403 . S
H419 C425 0.930 . S
C420 H406 0.930 . S
C420 C418 1.395 . S
C420 C423 1.403 . S
C421 C418 1.403 . S
C421 C422 1.524 . S
C421 C425 1.400 . S
C422 H407 0.960 . S
C422 H408 0.960 . S
C422 H409 0.960 . S
C422 C421 1.524 . S
C423 C420 1.403 . S
C423 C424 1.392 . S
C423 C427 1.495 . S
C424 C423 1.392 . S
C424 C425 1.385 . S
C424 C426 1.478 . S
C425 H419 0.930 . S
C425 C421 1.400 . S
C425 C424 1.385 . S
C426 C424 1.478 . S
C426 C428 1.381 . S
C426 C432 1.383 . S
C427 C423 1.495 . S
C427 H433 0.959 . S
C427 H434 0.961 . S
C427 H435 0.960 . S
C428 C426 1.381 . S
C428 C429 1.394 . S
C428 H436 0.930 . S
C429 C428 1.394 . S
C429 C430 1.383 . S
C429 H437 0.929 . S
C430 C429 1.383 . S
C430 C431 1.377 . S
C431 H415 0.930 . S
C431 C430 1.377 . S
C431 C432 1.379 . S
C432 H416 0.931 . S
C432 C426 1.383 . S
C432 C431 1.379 . S
H433 C427 0.959 . S
H434 C427 0.961 . S
H435 C427 0.960 . S
H436 C428 0.930 . S
H437 C429 0.929 . S
H438 C446 0.929 . S
H439 C448 0.930 . S
H440 C450 0.930 . S
H441 C453 0.929 . S
H442 C456 0.930 . S
H443 C458 0.960 . S
H444 C458 0.960 . S
H445 C458 0.960 . S
C446 H438 0.929 . S
C446 C447 1.377 . S
C446 C448 1.384 . S
C447 C446 1.377 . S
C447 C453 1.390 . S
C448 H439 0.930 . S
C448 C446 1.384 . S
C448 C449 1.372 . S
C449 C448 1.372 . S
C449 C450 1.400 . S
C449 C454 1.490 . S
C450 H440 0.930 . S
C450 C449 1.400 . S
C450 C453 1.386 . S
H451 C467 0.930 . S
H452 C468 0.931 . S
C453 H441 0.929 . S
C453 C447 1.390 . S
C453 C450 1.386 . S
C454 C449 1.490 . S
C454 C456 1.395 . S
C454 C457 1.403 . S
H455 C461 0.930 . S
C456 H442 0.930 . S
C456 C454 1.395 . S
C456 C459 1.403 . S
C457 C454 1.403 . S
C457 C458 1.524 . S
C457 C461 1.400 . S
C458 H443 0.960 . S
C458 H444 0.960 . S
C458 H445 0.960 . S
C458 C457 1.524 . S
C459 C456 1.403 . S
C459 C460 1.392 . S
C459 C463 1.495 . S
C460 C459 1.392 . S
C460 C461 1.385 . S
C460 C462 1.478 . S
C461 H455 0.930 . S
C461 C457 1.400 . S
C461 C460 1.385 . S
C462 C460 1.478 . S
C462 C464 1.381 . S
C462 C468 1.383 . S
C463 C459 1.495 . S
C463 H469 0.959 . S
C463 H470 0.961 . S
C463 H471 0.960 . S
C464 C462 1.381 . S
C464 C465 1.394 . S
C464 H472 0.930 . S
C465 C464 1.394 . S
C465 C466 1.383 . S
C465 H473 0.929 . S
C466 C465 1.383 . S
C466 C467 1.377 . S
C467 H451 0.930 . S
C467 C466 1.377 . S
C467 C468 1.379 . S
C468 H452 0.931 . S
C468 C462 1.383 . S
C468 C467 1.379 . S
H469 C463 0.959 . S
H470 C463 0.961 . S
H471 C463 0.960 . S
H472 C464 0.930 . S
H473 C465 0.929 . S
H474 C482 0.929 . S
H475 C484 0.930 . S
H476 C486 0.930 . S
H477 C489 0.929 . S
H478 C492 0.930 . S
H479 C494 0.960 . S
H480 C494 0.960 . S
H481 C494 0.960 . S
C482 H474 0.929 . S
C482 C483 1.377 . S
C482 C484 1.384 . S
C483 C482 1.377 . S
C483 C489 1.390 . S
C484 H475 0.930 . S
C484 C482 1.384 . S
C484 C485 1.372 . S
C485 C484 1.372 . S
C485 C486 1.400 . S
C485 C490 1.490 . S
C486 H476 0.930 . S
C486 C485 1.400 . S
C486 C489 1.386 . S
H487 C503 0.930 . S
H488 C504 0.931 . S
C489 H477 0.929 . S
C489 C483 1.390 . S
C489 C486 1.386 . S
C490 C485 1.490 . S
C490 C492 1.395 . S
C490 C493 1.403 . S
H491 C497 0.930 . S
C492 H478 0.930 . S
C492 C490 1.395 . S
C492 C495 1.403 . S
C493 C490 1.403 . S
C493 C494 1.524 . S
C493 C497 1.400 . S
C494 H479 0.960 . S
C494 H480 0.960 . S
C494 H481 0.960 . S
C494 C493 1.524 . S
C495 C492 1.403 . S
C495 C496 1.392 . S
C495 C499 1.495 . S
C496 C495 1.392 . S
C496 C497 1.385 . S
C496 C498 1.478 . S
C497 H491 0.930 . S
C497 C493 1.400 . S
C497 C496 1.385 . S
C498 C496 1.478 . S
C498 C500 1.381 . S
C498 C504 1.383 . S
C499 C495 1.495 . S
C499 H505 0.959 . S
C499 H506 0.961 . S
C499 H507 0.960 . S
C500 C498 1.381 . S
C500 C501 1.394 . S
C500 H508 0.930 . S
C501 C500 1.394 . S
C501 C502 1.383 . S
C501 H509 0.929 . S
C502 C501 1.383 . S
C502 C503 1.377 . S
C503 H487 0.930 . S
C503 C502 1.377 . S
C503 C504 1.379 . S
C504 H488 0.931 . S
C504 C498 1.383 . S
C504 C503 1.379 . S
H505 C499 0.959 . S
H506 C499 0.961 . S
H507 C499 0.960 . S
H508 C500 0.930 . S
H509 C501 0.929 . S
H510 C518 0.929 . S
H511 C520 0.930 . S
H512 C522 0.930 . S
H513 C525 0.929 . S
H514 C528 0.930 . S
H515 C530 0.960 . S
H516 C530 0.960 . S
H517 C530 0.960 . S
C518 H510 0.929 . S
C518 C519 1.377 . S
C518 C520 1.384 . S
C519 C518 1.377 . S
C519 C525 1.390 . S
C520 H511 0.930 . S
C520 C518 1.384 . S
C520 C521 1.372 . S
C521 C520 1.372 . S
C521 C522 1.400 . S
C521 C526 1.490 . S
C522 H512 0.930 . S
C522 C521 1.400 . S
C522 C525 1.386 . S
H523 C539 0.930 . S
H524 C540 0.931 . S
C525 H513 0.929 . S
C525 C519 1.390 . S
C525 C522 1.386 . S
C526 C521 1.490 . S
C526 C528 1.395 . S
C526 C529 1.403 . S
H527 C533 0.930 . S
C528 H514 0.930 . S
C528 C526 1.395 . S
C528 C531 1.403 . S
C529 C526 1.403 . S
C529 C530 1.524 . S
C529 C533 1.400 . S
C530 H515 0.960 . S
C530 H516 0.960 . S
C530 H517 0.960 . S
C530 C529 1.524 . S
C531 C528 1.403 . S
C531 C532 1.392 . S
C531 C535 1.495 . S
C532 C531 1.392 . S
C532 C533 1.385 . S
C532 C534 1.478 . S
C533 H527 0.930 . S
C533 C529 1.400 . S
C533 C532 1.385 . S
C534 C532 1.478 . S
C534 C536 1.381 . S
C534 C540 1.383 . S
C535 C531 1.495 . S
C535 H541 0.959 . S
C535 H542 0.961 . S
C535 H543 0.960 . S
C536 C534 1.381 . S
C536 C537 1.394 . S
C536 H544 0.930 . S
C537 C536 1.394 . S
C537 C538 1.383 . S
C537 H545 0.929 . S
C538 C537 1.383 . S
C538 C539 1.377 . S
C539 H523 0.930 . S
C539 C538 1.377 . S
C539 C540 1.379 . S
C540 H524 0.931 . S
C540 C534 1.383 . S
C540 C539 1.379 . S
H541 C535 0.959 . S
H542 C535 0.961 . S
H543 C535 0.960 . S
H544 C536 0.930 . S
H545 C537 0.929 . S
H546 C554 0.929 . S
H547 C556 0.930 . S
H548 C558 0.930 . S
H549 C561 0.929 . S
H550 C564 0.930 . S
H551 C566 0.960 . S
H552 C566 0.960 . S
H553 C566 0.960 . S
C554 H546 0.929 . S
C554 C555 1.377 . S
C554 C556 1.384 . S
C555 C554 1.377 . S
C555 C561 1.390 . S
C556 H547 0.930 . S
C556 C554 1.384 . S
C556 C557 1.372 . S
C557 C556 1.372 . S
C557 C558 1.400 . S
C557 C562 1.490 . S
C558 H548 0.930 . S
C558 C557 1.400 . S
C558 C561 1.386 . S
H559 C575 0.930 . S
H560 C576 0.931 . S
C561 H549 0.929 . S
C561 C555 1.390 . S
C561 C558 1.386 . S
C562 C557 1.490 . S
C562 C564 1.395 . S
C562 C565 1.403 . S
H563 C569 0.930 . S
C564 H550 0.930 . S
C564 C562 1.395 . S
C564 C567 1.403 . S
C565 C562 1.403 . S
C565 C566 1.524 . S
C565 C569 1.400 . S
C566 H551 0.960 . S
C566 H552 0.960 . S
C566 H553 0.960 . S
C566 C565 1.524 . S
C567 C564 1.403 . S
C567 C568 1.392 . S
C567 C571 1.495 . S
C568 C567 1.392 . S
C568 C569 1.385 . S
C568 C570 1.478 . S
C569 H563 0.930 . S
C569 C565 1.400 . S
C569 C568 1.385 . S
C570 C568 1.478 . S
C570 C572 1.381 . S
C570 C576 1.383 . S
C571 C567 1.495 . S
C571 H577 0.959 . S
C571 H578 0.961 . S
C571 H579 0.960 . S
C572 C570 1.381 . S
C572 C573 1.394 . S
C572 H580 0.930 . S
C573 C572 1.394 . S
C573 C574 1.383 . S
C573 H581 0.929 . S
C574 C573 1.383 . S
C574 C575 1.377 . S
C575 H559 0.930 . S
C575 C574 1.377 . S
C575 C576 1.379 . S
C576 H560 0.931 . S
C576 C570 1.383 . S
C576 C575 1.379 . S
H577 C571 0.959 . S
H578 C571 0.961 . S
H579 C571 0.960 . S
H580 C572 0.930 . S
H581 C573 0.929 . S
H582 C590 0.929 . S
H583 C592 0.930 . S
H584 C594 0.930 . S
H585 C597 0.929 . S
H586 C600 0.930 . S
H587 C602 0.960 . S
H588 C602 0.960 . S
H589 C602 0.960 . S
C590 H582 0.929 . S
C590 C591 1.377 . S
C590 C592 1.384 . S
C591 C590 1.377 . S
C591 C597 1.390 . S
C592 H583 0.930 . S
C592 C590 1.384 . S
C592 C593 1.372 . S
C593 C592 1.372 . S
C593 C594 1.400 . S
C593 C598 1.490 . S
C594 H584 0.930 . S
C594 C593 1.400 . S
C594 C597 1.386 . S
H595 C611 0.930 . S
H596 C612 0.931 . S
C597 H585 0.929 . S
C597 C591 1.390 . S
C597 C594 1.386 . S
C598 C593 1.490 . S
C598 C600 1.395 . S
C598 C601 1.403 . S
H599 C605 0.930 . S
C600 H586 0.930 . S
C600 C598 1.395 . S
C600 C603 1.403 . S
C601 C598 1.403 . S
C601 C602 1.524 . S
C601 C605 1.400 . S
C602 H587 0.960 . S
C602 H588 0.960 . S
C602 H589 0.960 . S
C602 C601 1.524 . S
C603 C600 1.403 . S
C603 C604 1.392 . S
C603 C607 1.495 . S
C604 C603 1.392 . S
C604 C605 1.385 . S
C604 C606 1.478 . S
C605 H599 0.930 . S
C605 C601 1.400 . S
C605 C604 1.385 . S
C606 C604 1.478 . S
C606 C608 1.381 . S
C606 C612 1.383 . S
C607 C603 1.495 . S
C607 H613 0.959 . S
C607 H614 0.961 . S
C607 H615 0.960 . S
C608 C606 1.381 . S
C608 C609 1.394 . S
C608 H616 0.930 . S
C609 C608 1.394 . S
C609 C610 1.383 . S
C609 H617 0.929 . S
C610 C609 1.383 . S
C610 C611 1.377 . S
C611 H595 0.930 . S
C611 C610 1.377 . S
C611 C612 1.379 . S
C612 H596 0.931 . S
C612 C606 1.383 . S
C612 C611 1.379 . S
H613 C607 0.959 . S
H614 C607 0.961 . S
H615 C607 0.960 . S
H616 C608 0.930 . S
H617 C609 0.929 . S
H618 C626 0.929 . S
H619 C628 0.930 . S
H620 C630 0.930 . S
H621 C633 0.929 . S
H622 C636 0.930 . S
H623 C638 0.960 . S
H624 C638 0.960 . S
H625 C638 0.960 . S
C626 H618 0.929 . S
C626 C627 1.377 . S
C626 C628 1.384 . S
C627 C626 1.377 . S
C627 C633 1.390 . S
C628 H619 0.930 . S
C628 C626 1.384 . S
C628 C629 1.372 . S
C629 C628 1.372 . S
C629 C630 1.400 . S
C629 C634 1.490 . S
C630 H620 0.930 . S
C630 C629 1.400 . S
C630 C633 1.386 . S
H631 C647 0.930 . S
H632 C648 0.931 . S
C633 H621 0.929 . S
C633 C627 1.390 . S
C633 C630 1.386 . S
C634 C629 1.490 . S
C634 C636 1.395 . S
C634 C637 1.403 . S
H635 C641 0.930 . S
C636 H622 0.930 . S
C636 C634 1.395 . S
C636 C639 1.403 . S
C637 C634 1.403 . S
C637 C638 1.524 . S
C637 C641 1.400 . S
C638 H623 0.960 . S
C638 H624 0.960 . S
C638 H625 0.960 . S
C638 C637 1.524 . S
C639 C636 1.403 . S
C639 C640 1.392 . S
C639 C643 1.495 . S
C640 C639 1.392 . S
C640 C641 1.385 . S
C640 C642 1.478 . S
C641 H635 0.930 . S
C641 C637 1.400 . S
C641 C640 1.385 . S
C642 C640 1.478 . S
C642 C644 1.381 . S
C642 C648 1.383 . S
C643 C639 1.495 . S
C643 H649 0.959 . S
C643 H650 0.961 . S
C643 H651 0.960 . S
C644 C642 1.381 . S
C644 C645 1.394 . S
C644 H652 0.930 . S
C645 C644 1.394 . S
C645 C646 1.383 . S
C645 H653 0.929 . S
C646 C645 1.383 . S
C646 C647 1.377 . S
C647 H631 0.930 . S
C647 C646 1.377 . S
C647 C648 1.379 . S
C648 H632 0.931 . S
C648 C642 1.383 . S
C648 C647 1.379 . S
H649 C643 0.959 . S
H650 C643 0.961 . S
H651 C643 0.960 . S
H652 C644 0.930 . S
H653 C645 0.929 . S
H654 C662 0.929 . S
H655 C664 0.930 . S
H656 C666 0.930 . S
H657 C669 0.929 . S
H658 C672 0.930 . S
H659 C674 0.960 . S
H660 C674 0.960 . S
H661 C674 0.960 . S
C662 H654 0.929 . S
C662 C663 1.377 . S
C662 C664 1.384 . S
C663 C662 1.377 . S
C663 C669 1.390 . S
C664 H655 0.930 . S
C664 C662 1.384 . S
C664 C665 1.372 . S
C665 C664 1.372 . S
C665 C666 1.400 . S
C665 C670 1.490 . S
C666 H656 0.930 . S
C666 C665 1.400 . S
C666 C669 1.386 . S
H667 C683 0.930 . S
H668 C684 0.931 . S
C669 H657 0.929 . S
C669 C663 1.390 . S
C669 C666 1.386 . S
C670 C665 1.490 . S
C670 C672 1.395 . S
C670 C673 1.403 . S
H671 C677 0.930 . S
C672 H658 0.930 . S
C672 C670 1.395 . S
C672 C675 1.403 . S
C673 C670 1.403 . S
C673 C674 1.524 . S
C673 C677 1.400 . S
C674 H659 0.960 . S
C674 H660 0.960 . S
C674 H661 0.960 . S
C674 C673 1.524 . S
C675 C672 1.403 . S
C675 C676 1.392 . S
C675 C679 1.495 . S
C676 C675 1.392 . S
C676 C677 1.385 . S
C676 C678 1.478 . S
C677 H671 0.930 . S
C677 C673 1.400 . S
C677 C676 1.385 . S
C678 C676 1.478 . S
C678 C680 1.381 . S
C678 C684 1.383 . S
C679 C675 1.495 . S
C679 H685 0.959 . S
C679 H686 0.961 . S
C679 H687 0.960 . S
C680 C678 1.381 . S
C680 C681 1.394 . S
C680 H688 0.930 . S
C681 C680 1.394 . S
C681 C682 1.383 . S
C681 H689 0.929 . S
C682 C681 1.383 . S
C682 C683 1.377 . S
C683 H667 0.930 . S
C683 C682 1.377 . S
C683 C684 1.379 . S
C684 H668 0.931 . S
C684 C678 1.383 . S
C684 C683 1.379 . S
H685 C679 0.959 . S
H686 C679 0.961 . S
H687 C679 0.960 . S
H688 C680 0.930 . S
H689 C681 0.929 . S
H690 C698 0.929 . S
H691 C700 0.930 . S
H692 C702 0.930 . S
H693 C705 0.929 . S
H694 C708 0.930 . S
H695 C710 0.960 . S
H696 C710 0.960 . S
H697 C710 0.960 . S
C698 H690 0.929 . S
C698 C699 1.377 . S
C698 C700 1.384 . S
C699 C698 1.377 . S
C699 C705 1.390 . S
C700 H691 0.930 . S
C700 C698 1.384 . S
C700 C701 1.372 . S
C701 C700 1.372 . S
C701 C702 1.400 . S
C701 C706 1.490 . S
C702 H692 0.930 . S
C702 C701 1.400 . S
C702 C705 1.386 . S
H703 C719 0.930 . S
H704 C720 0.931 . S
C705 H693 0.929 . S
C705 C699 1.390 . S
C705 C702 1.386 . S
C706 C701 1.490 . S
C706 C708 1.395 . S
C706 C709 1.403 . S
H707 C713 0.930 . S
C708 H694 0.930 . S
C708 C706 1.395 . S
C708 C711 1.403 . S
C709 C706 1.403 . S
C709 C710 1.524 . S
C709 C713 1.400 . S
C710 H695 0.960 . S
C710 H696 0.960 . S
C710 H697 0.960 . S
C710 C709 1.524 . S
C711 C708 1.403 . S
C711 C712 1.392 . S
C711 C715 1.495 . S
C712 C711 1.392 . S
C712 C713 1.385 . S
C712 C714 1.478 . S
C713 H707 0.930 . S
C713 C709 1.400 . S
C713 C712 1.385 . S
C714 C712 1.478 . S
C714 C716 1.381 . S
C714 C720 1.383 . S
C715 C711 1.495 . S
C715 H721 0.959 . S
C715 H722 0.961 . S
C715 H723 0.960 . S
C716 C714 1.381 . S
C716 C717 1.394 . S
C716 H724 0.930 . S
C717 C716 1.394 . S
C717 C718 1.383 . S
C717 H725 0.929 . S
C718 C717 1.383 . S
C718 C719 1.377 . S
C719 H703 0.930 . S
C719 C718 1.377 . S
C719 C720 1.379 . S
C720 H704 0.931 . S
C720 C714 1.383 . S
C720 C719 1.379 . S
H721 C715 0.959 . S
H722 C715 0.961 . S
H723 C715 0.960 . S
H724 C716 0.930 . S
H725 C717 0.929 . S
H726 C734 0.929 . S
H727 C736 0.930 . S
H728 C738 0.930 . S
H729 C741 0.929 . S
H730 C744 0.930 . S
H731 C746 0.960 . S
H732 C746 0.960 . S
H733 C746 0.960 . S
C734 H726 0.929 . S
C734 C735 1.377 . S
C734 C736 1.384 . S
C735 C734 1.377 . S
C735 C741 1.390 1_455 S
C736 H727 0.930 . S
C736 C734 1.384 . S
C736 C737 1.372 . S
C737 C736 1.372 . S
C737 C738 1.400 1_455 S
C737 C742 1.490 . S
C738 H728 0.930 . S
C738 C737 1.400 1_655 S
C738 C741 1.386 . S
H739 C755 0.930 1_655 S
H740 C756 0.931 1_655 S
C741 H729 0.929 . S
C741 C735 1.390 1_655 S
C741 C738 1.386 . S
C742 C737 1.490 . S
C742 C744 1.395 . S
C742 C745 1.403 . S
H743 C749 0.930 1_655 S
C744 H730 0.930 . S
C744 C742 1.395 . S
C744 C747 1.403 . S
C745 C742 1.403 . S
C745 C746 1.524 1_455 S
C745 C749 1.400 . S
C746 H731 0.960 . S
C746 H732 0.960 . S
C746 H733 0.960 . S
C746 C745 1.524 1_655 S
C747 C744 1.403 . S
C747 C748 1.392 . S
C747 C751 1.495 . S
C748 C747 1.392 . S
C748 C749 1.385 . S
C748 C750 1.478 . S
C749 H743 0.930 1_455 S
C749 C745 1.400 . S
C749 C748 1.385 . S
C750 C748 1.478 . S
C750 C752 1.381 . S
C750 C756 1.383 . S
C751 C747 1.495 . S
C751 H757 0.959 . S
C751 H758 0.961 . S
C751 H759 0.960 . S
C752 C750 1.381 . S
C752 C753 1.394 1_554 S
C752 H760 0.930 . S
C753 C752 1.394 1_556 S
C753 C754 1.383 . S
C753 H761 0.929 . S
C754 C753 1.383 . S
C754 C755 1.377 . S
C755 H739 0.930 1_455 S
C755 C754 1.377 . S
C755 C756 1.379 1_556 S
C756 H740 0.931 1_455 S
C756 C750 1.383 . S
C756 C755 1.379 1_554 S
H757 C751 0.959 . S
H758 C751 0.961 . S
H759 C751 0.960 . S
H760 C752 0.930 . S
H761 C753 0.929 . S
H762 C770 0.929 . S
H763 C772 0.930 . S
H764 C774 0.930 . S
H765 C777 0.929 . S
H766 C780 0.930 . S
H767 C782 0.960 . S
H768 C782 0.960 1_565 S
H769 C782 0.960 . S
C770 H762 0.929 . S
C770 C771 1.377 1_565 S
C770 C772 1.384 . S
C771 C770 1.377 1_545 S
C771 C777 1.390 . S
C772 H763 0.930 . S
C772 C770 1.384 . S
C772 C773 1.372 1_565 S
C773 C772 1.372 1_545 S
C773 C774 1.400 . S
C773 C778 1.490 . S
C774 H764 0.930 . S
C774 C773 1.400 . S
C774 C777 1.386 . S
H775 C791 0.930 . S
H776 C792 0.931 . S
C777 H765 0.929 . S
C777 C771 1.390 . S
C777 C774 1.386 . S
C778 C773 1.490 . S
C778 C780 1.395 . S
C778 C781 1.403 . S
H779 C785 0.930 . S
C780 H766 0.930 . S
C780 C778 1.395 . S
C780 C783 1.403 . S
C781 C778 1.403 . S
C781 C782 1.524 . S
C781 C785 1.400 . S
C782 H767 0.960 . S
C782 H768 0.960 1_545 S
C782 H769 0.960 . S
C782 C781 1.524 . S
C783 C780 1.403 . S
C783 C784 1.392 . S
C783 C787 1.495 . S
C784 C783 1.392 . S
C784 C785 1.385 . S
C784 C786 1.478 . S
C785 H779 0.930 . S
C785 C781 1.400 . S
C785 C784 1.385 . S
C786 C784 1.478 . S
C786 C788 1.381 . S
C786 C792 1.383 . S
C787 C783 1.495 . S
C787 H793 0.959 . S
C787 H794 0.961 . S
C787 H795 0.960 . S
C788 C786 1.381 . S
C788 C789 1.394 . S
C788 H796 0.930 1_545 S
C789 C788 1.394 . S
C789 C790 1.383 . S
C789 H797 0.929 1_545 S
C790 C789 1.383 . S
C790 C791 1.377 . S
C791 H775 0.930 . S
C791 C790 1.377 . S
C791 C792 1.379 . S
C792 H776 0.931 . S
C792 C786 1.383 . S
C792 C791 1.379 . S
H793 C787 0.959 . S
H794 C787 0.961 . S
H795 C787 0.960 . S
H796 C788 0.930 1_565 S
H797 C789 0.929 1_565 S
H798 C806 0.929 . S
H799 C808 0.930 . S
H800 C810 0.930 . S
H801 C813 0.929 . S
H802 C816 0.930 . S
H803 C818 0.960 . S
H804 C818 0.960 . S
H805 C818 0.960 . S
C806 H798 0.929 . S
C806 C807 1.377 . S
C806 C808 1.384 . S
C807 C806 1.377 . S
C807 C813 1.390 . S
C808 H799 0.930 . S
C808 C806 1.384 . S
C808 C809 1.372 . S
C809 C808 1.372 . S
C809 C810 1.400 . S
C809 C814 1.490 . S
C810 H800 0.930 . S
C810 C809 1.400 . S
C810 C813 1.386 . S
H811 C827 0.930 . S
H812 C828 0.931 . S
C813 H801 0.929 . S
C813 C807 1.390 . S
C813 C810 1.386 . S
C814 C809 1.490 . S
C814 C816 1.395 . S
C814 C817 1.403 . S
H815 C821 0.930 . S
C816 H802 0.930 . S
C816 C814 1.395 . S
C816 C819 1.403 . S
C817 C814 1.403 . S
C817 C818 1.524 . S
C817 C821 1.400 . S
C818 H803 0.960 . S
C818 H804 0.960 . S
C818 H805 0.960 . S
C818 C817 1.524 . S
C819 C816 1.403 . S
C819 C820 1.392 . S
C819 C823 1.495 . S
C820 C819 1.392 . S
C820 C821 1.385 . S
C820 C822 1.478 . S
C821 H815 0.930 . S
C821 C817 1.400 . S
C821 C820 1.385 . S
C822 C820 1.478 . S
C822 C824 1.381 . S
C822 C828 1.383 . S
C823 C819 1.495 . S
C823 H829 0.959 . S
C823 H830 0.961 . S
C823 H831 0.960 . S
C824 C822 1.381 . S
C824 C825 1.394 . S
C824 H832 0.930 . S
C825 C824 1.394 . S
C825 C826 1.383 . S
C825 H833 0.929 . S
C826 C825 1.383 . S
C826 C827 1.377 . S
C827 H811 0.930 . S
C827 C826 1.377 . S
C827 C828 1.379 . S
C828 H812 0.931 . S
C828 C822 1.383 . S
C828 C827 1.379 . S
H829 C823 0.959 . S
H830 C823 0.961 . S
H831 C823 0.960 . S
H832 C824 0.930 . S
H833 C825 0.929 . S
H834 C842 0.929 1_565 S
H835 C844 0.930 1_565 S
H836 C846 0.930 . S
H837 C849 0.929 . S
H838 C852 0.930 . S
H839 C854 0.960 . S
H840 C854 0.960 . S
H841 C854 0.960 . S
C842 H834 0.929 1_545 S
C842 C843 1.377 . S
C842 C844 1.384 . S
C843 C842 1.377 . S
C843 C849 1.390 . S
C844 H835 0.930 1_545 S
C844 C842 1.384 . S
C844 C845 1.372 . S
C845 C844 1.372 . S
C845 C846 1.400 . S
C845 C850 1.490 . S
C846 H836 0.930 . S
C846 C845 1.400 . S
C846 C849 1.386 . S
H847 C863 0.930 . S
H848 C864 0.931 . S
C849 H837 0.929 . S
C849 C843 1.390 . S
C849 C846 1.386 . S
C850 C845 1.490 . S
C850 C852 1.395 1_545 S
C850 C853 1.403 . S
H851 C857 0.930 . S
C852 H838 0.930 . S
C852 C850 1.395 1_565 S
C852 C855 1.403 . S
C853 C850 1.403 . S
C853 C854 1.524 . S
C853 C857 1.400 . S
C854 H839 0.960 . S
C854 H840 0.960 . S
C854 H841 0.960 . S
C854 C853 1.524 . S
C855 C852 1.403 . S
C855 C856 1.392 1_565 S
C855 C859 1.495 . S
C856 C855 1.392 1_545 S
C856 C857 1.385 . S
C856 C858 1.478 . S
C857 H851 0.930 . S
C857 C853 1.400 . S
C857 C856 1.385 . S
C858 C856 1.478 . S
C858 C860 1.381 . S
C858 C864 1.383 . S
C859 C855 1.495 . S
C859 H865 0.959 . S
C859 H866 0.961 . S
C859 H867 0.960 . S
C860 C858 1.381 . S
C860 C861 1.394 . S
C860 H868 0.930 1_545 S
C861 C860 1.394 . S
C861 C862 1.383 . S
C861 H869 0.929 . S
C862 C861 1.383 . S
C862 C863 1.377 . S
C863 H847 0.930 . S
C863 C862 1.377 . S
C863 C864 1.379 . S
C864 H848 0.931 . S
C864 C858 1.383 . S
C864 C863 1.379 . S
H865 C859 0.959 . S
H866 C859 0.961 . S
H867 C859 0.960 . S
H868 C860 0.930 1_565 S
H869 C861 0.929 . S
H870 C878 0.929 . S
H871 C880 0.930 . S
H872 C882 0.930 . S
H873 C885 0.929 . S
H874 C888 0.930 . S
H875 C890 0.960 . S
H876 C890 0.960 . S
H877 C890 0.960 . S
C878 H870 0.929 . S
C878 C879 1.377 . S
C878 C880 1.384 . S
C879 C878 1.377 . S
C879 C885 1.390 . S
C880 H871 0.930 . S
C880 C878 1.384 . S
C880 C881 1.372 . S
C881 C880 1.372 . S
C881 C882 1.400 . S
C881 C886 1.490 . S
C882 H872 0.930 . S
C882 C881 1.400 . S
C882 C885 1.386 . S
H883 C899 0.930 . S
H884 C900 0.931 . S
C885 H873 0.929 . S
C885 C879 1.390 . S
C885 C882 1.386 . S
C886 C881 1.490 . S
C886 C888 1.395 . S
C886 C889 1.403 . S
H887 C893 0.930 . S
C888 H874 0.930 . S
C888 C886 1.395 . S
C888 C891 1.403 . S
C889 C886 1.403 . S
C889 C890 1.524 . S
C889 C893 1.400 . S
C890 H875 0.960 . S
C890 H876 0.960 . S
C890 H877 0.960 . S
C890 C889 1.524 . S
C891 C888 1.403 . S
C891 C892 1.392 . S
C891 C895 1.495 . S
C892 C891 1.392 . S
C892 C893 1.385 . S
C892 C894 1.478 . S
C893 H887 0.930 . S
C893 C889 1.400 . S
C893 C892 1.385 . S
C894 C892 1.478 . S
C894 C896 1.381 . S
C894 C900 1.383 . S
C895 C891 1.495 . S
C895 H901 0.959 . S
C895 H902 0.961 . S
C895 H903 0.960 . S
C896 C894 1.381 . S
C896 C897 1.394 1_556 S
C896 H904 0.930 . S
C897 C896 1.394 1_554 S
C897 C898 1.383 . S
C897 H905 0.929 . S
C898 C897 1.383 . S
C898 C899 1.377 . S
C899 H883 0.930 . S
C899 C898 1.377 . S
C899 C900 1.379 1_554 S
C900 H884 0.931 . S
C900 C894 1.383 . S
C900 C899 1.379 1_556 S
H901 C895 0.959 . S
H902 C895 0.961 . S
H903 C895 0.960 . S
H904 C896 0.930 . S
H905 C897 0.929 . S
H906 C914 0.929 . S
H907 C916 0.930 . S
H908 C918 0.930 . S
H909 C921 0.929 . S
H910 C924 0.930 . S
H911 C926 0.960 . S
H912 C926 0.960 . S
H913 C926 0.960 . S
C914 H906 0.929 . S
C914 C915 1.377 . S
C914 C916 1.384 . S
C915 C914 1.377 . S
C915 C921 1.390 1_455 S
C916 H907 0.930 . S
C916 C914 1.384 . S
C916 C917 1.372 . S
C917 C916 1.372 . S
C917 C918 1.400 1_455 S
C917 C922 1.490 . S
C918 H908 0.930 . S
C918 C917 1.400 1_655 S
C918 C921 1.386 . S
H919 C935 0.930 . S
H920 C936 0.931 . S
C921 H909 0.929 . S
C921 C915 1.390 1_655 S
C921 C918 1.386 . S
C922 C917 1.490 . S
C922 C924 1.395 . S
C922 C925 1.403 1_455 S
H923 C929 0.930 . S
C924 H910 0.930 . S
C924 C922 1.395 . S
C924 C927 1.403 . S
C925 C922 1.403 1_655 S
C925 C926 1.524 . S
C925 C929 1.400 . S
C926 H911 0.960 . S
C926 H912 0.960 . S
C926 H913 0.960 . S
C926 C925 1.524 . S
C927 C924 1.403 . S
C927 C928 1.392 . S
C927 C931 1.495 . S
C928 C927 1.392 . S
C928 C929 1.385 1_455 S
C928 C930 1.478 . S
C929 H923 0.930 . S
C929 C925 1.400 . S
C929 C928 1.385 1_655 S
C930 C928 1.478 . S
C930 C932 1.381 . S
C930 C936 1.383 1_455 S
C931 C927 1.495 . S
C931 H937 0.959 . S
C931 H938 0.961 . S
C931 H939 0.960 . S
C932 C930 1.381 . S
C932 C933 1.394 . S
C932 H940 0.930 . S
C933 C932 1.394 . S
C933 C934 1.383 . S
C933 H941 0.929 . S
C934 C933 1.383 . S
C934 C935 1.377 1_455 S
C935 H919 0.930 . S
C935 C934 1.377 1_655 S
C935 C936 1.379 . S
C936 H920 0.931 . S
C936 C930 1.383 1_655 S
C936 C935 1.379 . S
H937 C931 0.959 . S
H938 C931 0.961 . S
H939 C931 0.960 . S
H940 C932 0.930 . S
H941 C933 0.929 . S
C303 C2 1.296 . S
C322 C271 1.334 . S
C339 C22 1.252 . S
C358 C198 1.348 . S
C375 C44 1.319 . S
C394 C237 1.403 . S
C411 C4 1.486 . S
C430 C276 1.579 . S
C466 C193 1.583 . S
C447 C24 1.542 . S
C502 C232 1.510 . S
C483 C42 1.447 . S
C519 C32 1.285 . S
C538 C120 1.268 . S
C555 C49 1.225 . S
C574 C154 1.204 . S
C591 C9 1.182 . S
C610 C76 1.214 . S
C646 C115 1.205 . S
C627 C29 1.152 . S
C682 C159 1.255 . S
C663 C52 1.195 . S
C699 C12 1.207 . S
C718 C81 1.248 . S
C754 C139 1.434 . S
C735 C18 1.422 1_455 S
C771 C38 1.418 . S
C790 C61 1.435 . S
C807 C58 1.422 . S
C826 C100 1.432 . S
C862 C217 1.493 . S
C843 C39 1.479 . S
C898 C256 1.488 . S
C879 C59 1.469 . S
C915 C19 1.463 . S
C934 C178 1.486 . S
