# Generated by pormake.
# Topology zzz, (3,6)-cn, num edge types: 1
# Building blocks:
#     Node 0, Type 0, BuildingBlock: CUQRIR_clean_linker_1, # of connection points: 3
#     Node 1, Type 0, BuildingBlock: CUQRIR_clean_linker_1, # of connection points: 3
#     Node 2, Type 0, BuildingBlock: CUQRIR_clean_linker_1, # of connection points: 3
#     Node 3, Type 0, BuildingBlock: CUQRIR_clean_linker_1, # of connection points: 3
#     Node 4, Type 0, BuildingBlock: CUQRIR_clean_linker_1, # of connection points: 3
#     Node 5, Type 0, BuildingBlock: CUQRIR_clean_linker_1, # of connection points: 3
#     Node 6, Type 0, BuildingBlock: CUQRIR_clean_linker_1, # of connection points: 3
#     Node 7, Type 0, BuildingBlock: CUQRIR_clean_linker_1, # of connection points: 3
#     Node 8, Type 1, BuildingBlock: BETGAK_clean_sbu_0, # of connection points: 6
#     Node 9, Type 1, BuildingBlock: BETGAK_clean_sbu_0, # of connection points: 6
#     Node 10, Type 1, BuildingBlock: BETGAK_clean_sbu_0, # of connection points: 6
#     Node 11, Type 1, BuildingBlock: BETGAK_clean_sbu_0, # of connection points: 6
#     Edge 12, Type (0, 1), BuildingBlock: AJUNOK_clean_linker_0, # of connection points: 2
#     Edge 13, Type (0, 1), BuildingBlock: AJUNOK_clean_linker_0, # of connection points: 2
#     Edge 14, Type (0, 1), BuildingBlock: AJUNOK_clean_linker_0, # of connection points: 2
#     Edge 15, Type (0, 1), BuildingBlock: AJUNOK_clean_linker_0, # of connection points: 2
#     Edge 16, Type (0, 1), BuildingBlock: AJUNOK_clean_linker_0, # of connection points: 2
#     Edge 17, Type (0, 1), BuildingBlock: AJUNOK_clean_linker_0, # of connection points: 2
#     Edge 18, Type (0, 1), BuildingBlock: AJUNOK_clean_linker_0, # of connection points: 2
#     Edge 19, Type (0, 1), BuildingBlock: AJUNOK_clean_linker_0, # of connection points: 2
#     Edge 20, Type (0, 1), BuildingBlock: AJUNOK_clean_linker_0, # of connection points: 2
#     Edge 21, Type (0, 1), BuildingBlock: AJUNOK_clean_linker_0, # of connection points: 2
#     Edge 22, Type (0, 1), BuildingBlock: AJUNOK_clean_linker_0, # of connection points: 2
#     Edge 23, Type (0, 1), BuildingBlock: AJUNOK_clean_linker_0, # of connection points: 2
#     Edge 24, Type (0, 1), BuildingBlock: AJUNOK_clean_linker_0, # of connection points: 2
#     Edge 25, Type (0, 1), BuildingBlock: AJUNOK_clean_linker_0, # of connection points: 2
#     Edge 26, Type (0, 1), BuildingBlock: AJUNOK_clean_linker_0, # of connection points: 2
#     Edge 27, Type (0, 1), BuildingBlock: AJUNOK_clean_linker_0, # of connection points: 2
#     Edge 28, Type (0, 1), BuildingBlock: AJUNOK_clean_linker_0, # of connection points: 2
#     Edge 29, Type (0, 1), BuildingBlock: AJUNOK_clean_linker_0, # of connection points: 2
#     Edge 30, Type (0, 1), BuildingBlock: AJUNOK_clean_linker_0, # of connection points: 2
#     Edge 31, Type (0, 1), BuildingBlock: AJUNOK_clean_linker_0, # of connection points: 2
#     Edge 32, Type (0, 1), BuildingBlock: AJUNOK_clean_linker_0, # of connection points: 2
#     Edge 33, Type (0, 1), BuildingBlock: AJUNOK_clean_linker_0, # of connection points: 2
#     Edge 34, Type (0, 1), BuildingBlock: AJUNOK_clean_linker_0, # of connection points: 2
#     Edge 35, Type (0, 1), BuildingBlock: AJUNOK_clean_linker_0, # of connection points: 2
# Relax obj value: 0.458
# Max RMSD: 0.226
# Mean RMSD: 0.155
data_MOF--net-zzz--node1-BETGAK_clean_sbu_0--node2-CUQRIR_clean_linker_1--edge1-AJUNOK_clean_linker_0
_symmetry_space_group_name_H-M    P1
_symmetry_Int_Tables_number       1
_symmetry_cell_setting            triclinic
loop_
_symmetry_equiv_pos_as_xyz
'x, y, z'
_cell_length_a     34.56573
_cell_length_b     34.576081
_cell_length_c     9.1663738
_cell_angle_alpha  89.817606
_cell_angle_beta   89.695217
_cell_angle_gamma 90.051598
loop_
_atom_site_label
_atom_site_type_symbol
_atom_site_fract_x
_atom_site_fract_y
_atom_site_fract_z
_atom_type_partial_charge
C0 C 0.78028 0.54689 0.37873 0.0
N1 N 0.81445 0.52658 0.39495 0.0
N2 N 0.75772 0.53248 0.26643 0.0
C3 C 0.76853 0.57955 0.47597 0.0
C4 C 0.78022 0.50331 0.21524 0.0
N5 N 0.81275 0.49888 0.29509 0.0
C6 C 0.77358 0.48256 0.07222 0.0
H7 H 0.73654 0.58145 0.48407 0.0
H8 H 0.77985 0.60702 0.42956 0.0
H9 H 0.78111 0.57572 0.58622 0.0
H10 H 0.75511 0.49969 0.99757 0.0
H11 H 0.75971 0.45417 0.09413 0.0
H12 H 0.80131 0.47692 1.01474 0.0
C13 C 1.02151 0.77005 0.4522 0.0
N14 N 0.04804 0.79805 0.49274 0.0
N15 N 0.03801 0.74131 0.36699 0.0
C16 C 0.97926 0.77228 0.48638 0.0
C17 C 0.075 0.75347 0.35527 0.0
N18 N 0.08109 0.7866 0.43072 0.0
C19 C 0.10397 0.7363 0.24955 0.0
H20 H 0.97479 0.78449 0.59704 0.0
H21 H 0.96566 0.74327 0.47869 0.0
H22 H 0.96527 0.79189 0.40649 0.0
H23 H 0.10073 0.75027 0.14135 0.0
H24 H 0.09877 0.70519 0.23146 0.0
H25 H 0.13402 0.74116 0.2871 0.0
C26 C 0.80415 1.02243 0.47549 0.0
N27 N 0.76483 1.02693 0.45433 0.0
N28 N 0.8239 1.01829 0.34414 0.0
C29 C 0.8233 1.02498 0.62095 0.0
C30 C 0.7947 1.0191 0.24716 0.0
N31 N 0.76074 1.02781 0.31087 0.0
C32 C 0.79918 1.01432 0.0842 0.0
H33 H 0.82678 0.05592 0.65002 0.0
H34 H 0.85231 1.01127 0.61761 0.0
H35 H 0.80489 1.01113 0.70588 0.0
H36 H 0.82619 0.99868 0.05582 0.0
H37 H 0.79925 0.04305 0.02998 0.0
H38 H 0.774 0.99814 0.04097 0.0
C39 C 0.5481 0.80611 0.41412 0.0
N40 N 0.52247 0.77738 0.45621 0.0
N41 N 0.53057 0.83447 0.33068 0.0
C42 C 0.59045 0.80509 0.44588 0.0
C43 C 0.49378 0.82143 0.32264 0.0
N44 N 0.48878 0.78797 0.39806 0.0
C45 C 0.46345 0.83945 0.2265 0.0
H46 H 0.60347 0.83427 0.43292 0.0
H47 H 0.60473 0.78496 0.36851 0.0
H48 H 0.5953 0.79405 0.55813 0.0
H49 H 0.46596 0.82734 0.115 0.0
H50 H 0.4681 0.87098 0.21656 0.0
H51 H 0.43392 0.83334 0.26857 0.0
C52 C 0.30468 0.53063 0.29798 0.0
N53 N 0.26601 0.53943 0.3185 0.0
N54 N 0.3249 0.531 0.42835 0.0
C55 C 0.32293 0.5244 0.15165 0.0
C56 C 0.29636 0.5386 0.52556 0.0
N57 N 0.26272 0.54714 0.45977 0.0
C58 C 0.30049 0.5377 0.68949 0.0
H59 H 0.35123 0.50958 0.16218 0.0
H60 H 0.32766 0.55293 0.0986 0.0
H61 H 0.30329 0.50735 0.08124 0.0
H62 H 0.30045 0.56758 0.73322 0.0
H63 H 0.32716 0.52244 0.72394 0.0
H64 H 0.27502 0.52284 0.73824 0.0
C65 C 0.03847 0.30843 0.2745 0.0
N66 N 1.01575 0.27557 0.26077 0.0
N67 N 1.02307 0.33482 0.37327 0.0
C68 C 0.07495 0.31521 0.18989 0.0
C69 C 0.99107 0.31602 0.42106 0.0
N70 N 0.98621 0.28198 0.35136 0.0
C71 C 0.96747 0.32765 0.55354 0.0
H72 H 0.09977 0.30473 0.2552 0.0
H73 H 0.07904 0.34658 0.1687 0.0
H74 H 0.0744 0.29908 0.08544 0.0
H75 H 0.93879 0.33832 0.51746 0.0
H76 H 0.98195 0.35014 0.61966 0.0
H77 H 0.96217 0.30237 0.62573 0.0
C78 C 0.26519 0.05563 0.28495 0.0
N79 N 0.2923 1.02876 0.2403 0.0
N80 N 0.23604 0.03904 0.3679 0.0
C81 C 0.2688 0.0981 0.25752 0.0
C82 C 0.24695 1.00163 0.37314 0.0
N83 N 0.28034 0.99547 0.29871 0.0
C84 C 0.2268 0.97172 0.46615 0.0
H85 H 0.29006 0.11034 0.33508 0.0
H86 H 0.24055 0.11275 0.27357 0.0
H87 H 0.27981 0.10334 0.1452 0.0
H88 H 0.19541 0.97722 0.4659 0.0
H89 H 0.23565 0.97459 0.58148 0.0
H90 H 0.23344 0.94197 0.42874 0.0
C91 C 0.52365 0.27206 0.25205 0.0
N92 N 0.55008 0.30024 0.21009 0.0
N93 N 0.54067 0.24286 0.33371 0.0
C94 C 0.48142 0.27293 0.21635 0.0
C95 C 0.57817 0.25441 0.33635 0.0
N96 N 0.58349 0.28855 0.26724 0.0
C97 C 0.60987 0.23559 0.42457 0.0
H98 H 0.4641 0.26457 0.31378 0.0
H99 H 0.47566 0.25145 0.12955 0.0
H100 H 0.47206 0.30153 0.1755 0.0
H101 H 0.60354 0.20524 0.45303 0.0
H102 H 0.61398 0.252 0.52722 0.0
H103 H 0.63758 0.23685 0.36298 0.0
La104 La 0.05749 1.03084 0.97997 0.0
La105 La 1.00915 0.04309 0.77289 0.0
C106 C 0.09329 1.01014 0.20533 0.0
C107 C 0.12025 0.98113 0.25698 0.0
C108 C 0.1503 0.96706 0.16864 0.0
C109 C 0.17085 0.93446 0.21274 0.0
C110 C 0.16037 0.91524 0.3427 0.0
C111 C 0.13367 0.93279 0.43846 0.0
C112 C 0.114 0.96572 0.39579 0.0
C113 C 0.09913 0.05594 0.74763 0.0
C114 C 0.04031 0.95833 0.76139 0.0
C115 C 0.96834 0.05986 0.55457 0.0
C116 C 0.93593 0.08466 0.51837 0.0
C117 C 0.93623 0.10231 0.38163 0.0
C118 C 0.91422 0.13523 0.35846 0.0
C119 C 0.89699 0.15343 0.47883 0.0
C120 C 0.88967 0.13164 0.60546 0.0
C121 C 0.90961 0.09694 0.6257 0.0
C122 C 0.9705 1.01986 0.01875 0.0
C123 C 1.02748 0.11707 0.98234 0.0
O124 O 0.10654 1.03492 0.11056 0.0
O125 O 0.05869 0.99786 0.17255 0.0
O126 O 0.1019 0.06761 0.88036 0.0
O127 O 0.07117 1.03164 0.74568 0.0
O128 O 0.05188 0.96832 0.89543 0.0
O129 O 1.02716 0.98694 0.68139 0.0
O130 O 0.96091 1.03138 0.64323 0.0
O131 O 1.00046 0.07779 0.58787 0.0
O132 O 0.96653 1.00609 0.88928 0.0
O133 O 0.99706 0.04495 1.00641 0.0
O134 O 1.01258 0.10559 0.85486 0.0
O135 O 0.04437 0.08996 0.06079 0.0
H136 H 0.15608 0.9795 0.06209 0.0
H137 H 0.19149 0.92164 0.13785 0.0
H138 H 0.12465 0.91901 0.53931 0.0
H139 H 0.0918 0.97744 0.46681 0.0
H140 H 0.95673 0.09339 0.29848 0.0
H141 H 0.91965 0.15142 0.25891 0.0
H142 H 0.87555 0.14485 0.69855 0.0
H143 H 0.9085 0.08281 0.73089 0.0
La144 La 0.53435 0.06484 0.9294 0.0
La145 La 0.52085 1.01501 0.73531 0.0
C146 C 0.5546 0.113 0.12053 0.0
C147 C 0.58621 0.14049 0.1272 0.0
C148 C 0.60324 0.14675 0.26255 0.0
C149 C 0.64279 0.15377 0.26882 0.0
C150 C 0.66472 0.15057 0.14029 0.0
C151 C 0.64637 0.15572 1.00581 0.0
C152 C 0.60662 0.14962 0.99865 0.0
C153 C 0.50963 0.10203 0.68474 0.0
C154 C 0.60739 0.04042 0.72678 0.0
C155 C 0.50075 0.97482 0.51911 0.0
C156 C 0.47219 0.94799 0.46134 0.0
C157 C 0.45793 0.95524 0.32186 0.0
C158 C 0.42559 0.93557 0.27338 0.0
C159 C 0.40721 0.90833 0.36499 0.0
C160 C 0.42702 0.89504 0.48928 0.0
C161 C 0.45885 0.91576 0.54033 0.0
C162 C 0.54765 0.97575 0.97021 0.0
C163 C 0.45023 1.0348 0.95938 0.0
O164 O 0.52921 0.11992 0.02039 0.0
O165 O 0.56509 0.07672 0.12102 0.0
O166 O 0.49463 0.10412 0.81342 0.0
O167 O 0.53494 0.0754 0.6946 0.0
O168 O 0.5965 0.05631 0.8525 0.0
O169 O 0.57936 1.02601 0.64741 0.0
O170 O 0.52275 0.96242 0.62357 0.0
O171 O 0.4898 1.01052 0.53948 0.0
O172 O 0.55993 0.97345 0.83779 0.0
O173 O 0.52275 1.00319 0.97098 0.0
O174 O 0.45912 1.0222 0.82536 0.0
O175 O 0.47929 0.04872 0.03431 0.0
H176 H 0.5876 0.1403 0.36254 0.0
H177 H 0.6567 0.15167 0.37431 0.0
H178 H 0.66307 0.15475 0.9055 0.0
H179 H 0.59377 0.14506 0.89271 0.0
H180 H 0.46998 0.97819 0.25494 0.0
H181 H 0.41228 0.94574 0.17365 0.0
H182 H 0.4146 0.8726 0.55777 0.0
H183 H 0.47115 0.90823 0.64506 0.0
La184 La 0.51827 0.54691 0.95064 0.0
La185 La 0.56533 0.53391 0.73154 0.0
C186 C 0.48224 0.56548 0.18038 0.0
C187 C 0.45432 0.59259 0.2419 0.0
C188 C 0.46271 0.6084 0.37767 0.0
C189 C 0.44187 0.63987 0.42825 0.0
C190 C 0.412 0.6559 0.34375 0.0
C191 C 0.39957 0.63585 0.21897 0.0
C192 C 0.42116 0.60461 0.16648 0.0
C193 C 0.47678 0.5243 0.71315 0.0
C194 C 0.53567 0.61932 0.73135 0.0
C195 C 0.60119 0.51372 0.50493 0.0
C196 C 0.62932 0.48504 0.45964 0.0
C197 C 0.65917 0.47247 0.55184 0.0
C198 C 0.67876 0.43821 0.5193 0.0
C199 C 0.66804 0.417 0.39555 0.0
C200 C 0.64465 0.43448 0.28959 0.0
C201 C 0.62296 0.46662 0.32711 0.0
C202 C 0.60783 0.55634 0.96402 0.0
C203 C 0.54621 0.46086 0.94815 0.0
O204 O 0.46946 0.54093 0.08497 0.0
O205 O 0.51613 0.57947 0.14392 0.0
O206 O 0.47312 0.51163 0.8448 0.0
O207 O 0.50445 0.54844 0.7187 0.0
O208 O 0.52477 0.60917 0.86674 0.0
O209 O 0.54813 0.59114 0.64748 0.0
O210 O 0.61332 0.54036 0.59354 0.0
O211 O 0.56728 0.50006 0.54265 0.0
O212 O 0.61021 0.57009 0.83349 0.0
O213 O 0.57973 0.53233 0.96236 0.0
O214 O 0.55959 0.47174 0.81675 0.0
O215 O 0.53191 0.48835 0.03093 0.0
H216 H 0.4873 0.59824 0.43972 0.0
H217 H 0.45246 0.65426 0.52491 0.0
H218 H 0.37658 0.64748 0.15204 0.0
H219 H 0.4136 0.59186 0.06267 0.0
H220 H 0.66432 0.4865 0.65545 0.0
H221 H 0.69676 0.42511 0.60225 0.0
H222 H 0.63648 0.41876 0.1923 0.0
H223 H 0.59979 0.4759 0.25577 0.0
La224 La 1.03394 0.51308 0.9192 0.0
La225 La 0.04877 0.56768 0.76078 0.0
C226 C 1.01185 0.45289 0.04905 0.0
C227 C 0.98921 0.42097 0.98649 0.0
C228 C 0.98058 0.38887 0.07317 0.0
C229 C 0.9422 0.37596 0.07921 0.0
C230 C 0.91465 0.39635 0.99749 0.0
C231 C 0.92802 0.41288 0.86599 0.0
C232 C 0.96554 0.42812 0.86529 0.0
C233 C 0.05979 0.48345 0.66314 0.0
C234 C 0.96452 0.5399 0.71395 0.0
C235 C 0.07347 0.61819 0.58452 0.0
C236 C 0.1005 0.65035 0.58884 0.0
C237 C 0.11959 0.66029 0.45972 0.0
C238 C 0.15542 0.67854 0.46669 0.0
C239 C 0.17433 0.67867 0.60174 0.0
C240 C 0.1509 0.68133 0.72735 0.0
C241 C 0.11383 0.66505 0.72227 0.0
C242 C 1.0187 0.60116 1.00228 0.0
C243 C 0.11566 0.54209 0.98752 0.0
O244 O 0.04639 0.45705 0.99595 0.0
O245 O 0.99389 0.48613 0.0596 0.0
O246 O 0.07614 0.47957 0.78774 0.0
O247 O 1.03527 0.51015 0.68241 0.0
O248 O 0.97247 0.52482 0.84392 0.0
O249 O 0.99453 0.55441 0.64403 0.0
O250 O 0.0426 0.62201 0.66396 0.0
O251 O 0.08867 0.58379 0.59764 0.0
O252 O 1.00716 0.6052 0.87025 0.0
O253 O 0.0431 0.5731 0.99962 0.0
O254 O 0.10923 0.55723 0.85573 0.0
O255 O 0.08482 0.52744 0.0513 0.0
H256 H 1.0014 0.37844 0.15039 0.0
H257 H 0.93336 0.35769 0.16968 0.0
H258 H 0.90747 0.4244 0.78848 0.0
H259 H 0.97293 0.45044 0.78726 0.0
H260 H 0.10941 0.6495 0.35593 0.0
H261 H 0.17199 0.6806 0.36622 0.0
H262 H 0.16414 0.68526 0.83311 0.0
H263 H 0.09872 0.65869 0.8234 0.0
C264 C 0.16602 0.0569 0.40098 0.0
C265 C 0.20401 0.05459 0.45725 0.0
C266 C 0.13239 0.05783 0.49303 0.0
C267 C 0.13487 0.05608 0.64694 0.0
H268 H 0.16233 0.05604 0.28407 0.0
H269 H 0.10413 0.05932 0.44321 0.0
S270 S 0.22765 0.0517 0.85173 0.0
N271 N 0.24153 0.05237 0.67905 0.0
N272 N 0.17993 0.05401 0.84989 0.0
C273 C 0.17293 0.05566 0.70425 0.0
C274 C 0.20684 0.05491 0.61075 0.0
C275 C 0.53566 0.20711 0.57278 0.0
C276 C 0.52489 0.21074 0.42414 0.0
C277 C 0.53098 0.17226 0.65329 0.0
C278 C 0.51414 0.13882 0.5925 0.0
H279 H 0.54972 0.23117 0.6261 0.0
H280 H 0.54096 0.17153 0.76487 0.0
S281 S 0.46514 0.13759 0.23284 0.0
N282 N 0.48706 0.18012 0.2343 0.0
N283 N 0.4766 0.11589 0.38762 0.0
C284 C 0.49868 0.14349 0.45082 0.0
C285 C 0.50417 0.17897 0.36697 0.0
C286 C 0.39161 0.50102 0.44978 0.0
C287 C 0.36648 0.53305 0.46583 0.0
C288 C 0.42811 0.49907 0.52276 0.0
C289 C 0.44111 0.52873 0.61736 0.0
H290 H 0.3821 0.4763 0.3873 0.0
H291 H 0.44553 0.47327 0.50997 0.0
S292 S 0.3854 0.61689 0.7088 0.0
N293 N 0.35883 0.59547 0.58369 0.0
N294 N 0.42406 0.58953 0.72947 0.0
C295 C 0.41643 0.5607 0.63341 0.0
C296 C 0.38038 0.56352 0.55513 0.0
C297 C 0.07151 0.38159 0.48409 0.0
C298 C 1.03484 0.37405 0.42248 0.0
C299 C 0.07998 0.41725 0.55632 0.0
C300 C 0.05282 0.44801 0.56659 0.0
H301 H 0.09312 0.35895 0.48403 0.0
H302 H 0.10786 0.42032 0.60834 0.0
S303 S 0.95253 0.4442 0.42448 0.0
N304 N 0.97061 0.40137 0.38515 0.0
N305 N 0.98805 0.4682 0.50218 0.0
C306 C 1.01688 0.4415 0.4993 0.0
C307 C 1.00758 0.40486 0.43268 0.0
C308 C 0.89193 0.9932 0.3092 0.0
C309 C 0.86461 1.02352 0.29837 0.0
C310 C 0.92683 0.99289 0.22446 0.0
C311 C 0.93606 1.02261 0.123 0.0
H312 H 0.88521 0.96839 0.37707 0.0
H313 H 0.94599 0.96829 0.2342 0.0
S314 S 0.87399 0.10764 0.04585 0.0
N315 N 0.85044 0.08432 0.17645 0.0
N316 N 0.91384 0.08255 1.01571 0.0
C317 C 0.90924 0.05305 0.11241 0.0
C318 C 0.87448 0.05392 0.20061 0.0
C319 C 0.54701 0.90554 0.30874 0.0
C320 C 0.54521 0.8681 0.24656 0.0
C321 C 0.54829 0.94014 0.22168 0.0
C322 C 0.54736 0.93924 0.06726 0.0
H323 H 0.54578 0.90806 0.42618 0.0
H324 H 0.54947 0.96788 0.27577 0.0
S325 S 0.54668 0.84868 0.84863 0.0
N326 N 0.54568 0.83299 0.01897 0.0
N327 N 0.5479 0.89627 0.858 0.0
C328 C 0.54781 0.90177 1.00466 0.0
C329 C 0.5467 0.86693 0.09284 0.0
C330 C 0.69354 0.51022 0.17098 0.0
C331 C 0.71822 0.54109 0.21152 0.0
C332 C 0.65879 0.51553 0.09162 0.0
C333 C 0.64437 0.5523 0.05657 0.0
H334 H 0.70228 0.48096 0.19528 0.0
H335 H 0.64342 0.49023 0.05362 0.0
S336 S 0.69704 0.64418 0.12773 0.0
N337 N 0.72578 0.61087 0.19807 0.0
N338 N 0.65901 0.62099 0.06281 0.0
C339 C 0.66825 0.58392 0.09679 0.0
C340 C 0.70488 0.5784 0.17257 0.0
C341 C 1.02185 0.67034 0.3438 0.0
C342 C 1.02252 0.70812 0.28352 0.0
C343 C 1.02093 0.63596 0.25606 0.0
C344 C 1.01987 0.63741 0.10145 0.0
H345 H 1.02346 0.66767 0.46065 0.0
H346 H 1.02126 0.60807 0.31009 0.0
S347 S 1.01921 0.72951 0.88682 0.0
N348 N 1.02091 0.74425 0.05777 0.0
N349 N 1.0178 0.68182 0.89439 0.0
C350 C 1.01861 0.6754 0.04069 0.0
C351 C 1.02011 0.70992 0.13021 0.0
C352 C 0.92141 0.25299 0.3652 0.0
C353 C 0.96062 0.2529 0.40371 0.0
C354 C 0.89732 0.22249 0.40913 0.0
C355 C 0.91194 0.19262 0.49717 0.0
H356 H 0.91029 0.27522 0.29333 0.0
H357 H 0.86854 0.22034 0.36361 0.0
S358 S 1.01187 0.18442 0.64187 0.0
N359 N 1.01207 0.22451 0.54426 0.0
N360 N 0.96717 0.16779 0.63339 0.0
C361 C 0.95012 0.19548 0.55008 0.0
C362 C 0.97457 0.22544 0.50054 0.0
C363 C 0.31683 0.93947 0.20656 0.0
C364 C 0.30481 0.96279 0.32287 0.0
C365 C 0.34596 0.91186 0.22737 0.0
C366 C 0.36449 0.90852 0.36372 0.0
H367 H 0.30574 0.94463 0.09797 0.0
H368 H 0.35834 0.89801 0.13209 0.0
S369 S 0.33404 0.95482 0.71 0.0
N370 N 0.30801 0.97588 0.58248 0.0
N371 N 0.35947 0.92152 0.62448 0.0
C372 C 0.34673 0.92601 0.48524 0.0
C373 C 0.31855 0.95501 0.46332 0.0
C374 C 0.6485 0.31832 0.27104 0.0
C375 C 0.61059 0.31538 0.3252 0.0
C376 C 0.67206 0.34917 0.31441 0.0
C377 C 0.65812 0.37636 0.41556 0.0
H378 H 0.65852 0.29879 0.1869 0.0
H379 H 0.69908 0.35429 0.25709 0.0
S380 S 0.56205 0.37638 0.5986 0.0
N381 N 0.56191 0.3377 0.49444 0.0
N382 N 0.6055 0.39548 0.5778 0.0
C383 C 0.62216 0.36982 0.48449 0.0
C384 C 0.59829 0.33942 0.43746 0.0
C385 C 0.21222 0.578 0.60558 0.0
C386 C 0.24283 0.58099 0.50735 0.0
C387 C 0.19316 0.61117 0.65262 0.0
C388 C 0.20448 0.64849 0.60456 0.0
H389 H 0.20219 0.54988 0.64179 0.0
H390 H 0.1671 0.60703 0.71632 0.0
S391 S 0.28776 0.67084 0.36351 0.0
N392 N 0.28727 0.62316 0.37547 0.0
N393 N 0.25119 0.68604 0.46511 0.0
C394 C 0.23732 0.65169 0.51533 0.0
C395 C 0.25644 0.6178 0.46588 0.0
C396 C 0.11985 0.82489 0.26156 0.0
C397 C 0.11339 0.81132 0.40374 0.0
C398 C 0.14687 0.85362 0.23428 0.0
C399 C 0.16415 0.87301 0.35163 0.0
H400 H 0.10157 0.81565 0.17277 0.0
H401 H 0.14755 0.86563 0.12493 0.0
S402 S 0.16658 0.83928 0.73514 0.0
N403 N 0.13518 0.81032 0.65479 0.0
N404 N 0.18301 0.86877 0.60651 0.0
C405 C 0.1635 0.85499 0.48942 0.0
C406 C 0.13734 0.82402 0.51609 0.0
C407 C 0.75169 0.09662 0.26419 0.0
C408 C 0.73894 0.05818 0.2481 0.0
C409 C 0.72923 0.12736 0.21469 0.0
C410 C 0.69377 0.12001 0.14773 0.0
H411 H 0.77839 0.10269 0.32105 0.0
H412 H 0.73828 0.15675 0.23701 0.0
S413 S 0.64884 1.02352 0.08643 0.0
N414 N 0.69086 1.01387 0.16173 0.0
N415 N 0.64714 0.07112 0.07088 0.0
C416 C 0.68187 0.08124 0.12691 0.0
C417 C 0.70489 0.05032 0.17699 0.0
C418 C 0.44621 0.74945 0.24363 0.0
C419 C 0.45595 0.76306 0.38244 0.0
C420 C 0.42108 0.71835 0.22761 0.0
C421 C 0.40742 0.69832 0.35144 0.0
H422 H 0.46078 0.76053 0.14797 0.0
H423 H 0.41864 0.70599 0.11955 0.0
S424 S 0.41086 0.73397 0.73191 0.0
N425 N 0.43944 0.76372 0.63969 0.0
N426 N 0.39332 0.70331 0.61099 0.0
C427 C 0.41013 0.71704 0.48719 0.0
C428 C 0.43528 0.7493 0.50318 0.0
C429 C 0.87413 0.48644 0.17631 0.0
C430 C 0.8429 0.47241 0.25722 0.0
C431 C 0.89656 0.46155 0.09246 0.0
C432 C 0.8887 0.42139 0.08578 0.0
H433 H 0.87932 0.51724 0.16854 0.0
H434 H 0.91979 0.47446 0.0301 0.0
S435 S 0.81191 0.37022 0.29247 0.0
N436 N 0.80619 0.41622 0.33627 0.0
N437 N 0.84944 0.3686 0.18002 0.0
C438 C 0.85898 0.40667 0.17447 0.0
C439 C 0.83585 0.43235 0.25978 0.0
C440 C 0.05307 0.2137 0.19433 0.0
C441 C 1.02087 0.2387 0.17568 0.0
C442 C 0.05496 0.17556 0.1311 0.0
C443 C 1.02503 0.15942 0.04325 0.0
H444 H 0.07664 0.22311 0.26296 0.0
H445 H 0.08039 0.15826 0.15282 0.0
S446 S 0.93313 0.21131 0.96469 0.0
N447 N 0.95794 0.24307 0.06071 0.0
N448 N 0.96078 0.17253 0.95116 0.0
C449 C 0.99266 0.18412 0.02488 0.0
C450 C 0.99081 0.22296 0.08813 0.0
C451 C 0.33662 1.02782 1.01622 0.0
C452 C 0.33067 1.03415 0.16793 0.0
C453 C 0.37446 1.02793 0.94944 0.0
C454 C 0.40897 1.03381 0.03014 0.0
H455 H 0.31175 1.02214 0.94837 0.0
H456 H 0.37663 1.02345 0.83291 0.0
S457 S 0.40952 0.04878 0.43396 0.0
N458 N 0.36313 0.0445 0.39634 0.0
N459 N 0.43268 0.04504 0.27645 0.0
C460 C 0.40291 0.03984 0.18262 0.0
C461 C 0.36457 0.03973 0.24951 0.0
C462 C 0.51802 0.36666 0.17008 0.0
C463 C 0.54607 0.33838 0.13216 0.0
C464 C 0.51807 0.40503 0.10876 0.0
C465 C 0.5466 0.4185 1.00757 0.0
H466 H 0.49652 0.35983 0.25235 0.0
H467 H 0.49554 0.42474 0.14353 0.0
S468 S 0.63099 0.35922 0.89215 0.0
N469 N 0.60476 0.32876 0.99035 0.0
N470 N 0.6072 0.40066 0.89295 0.0
C471 C 0.57575 0.39117 0.97474 0.0
C472 C 0.57492 0.35171 0.03231 0.0
C473 C 0.22679 0.55664 0.0885 0.0
C474 C 0.23106 0.53697 0.22365 0.0
C475 C 0.19035 0.55812 1.01233 0.0
C476 C 0.15576 0.54045 0.06595 0.0
H477 H 0.25134 0.57204 0.04305 0.0
H478 H 0.18925 0.57401 0.91175 0.0
S479 S 0.15142 0.48442 0.41413 0.0
N480 N 0.19696 0.49846 0.4039 0.0
N481 N 0.13037 0.50178 0.26677 0.0
C482 C 0.1603 0.52045 0.20037 0.0
C483 C 0.19705 0.51868 0.27659 0.0
C484 C 0.05173 0.84414 0.71215 0.0
C485 C 0.04236 0.8368 0.56342 0.0
C486 C 0.05136 0.8824 0.77556 0.0
C487 C 0.04155 0.9163 0.695 0.0
H488 H 0.06012 0.82 0.78041 0.0
H489 H 0.05899 0.88531 0.88939 0.0
S490 S 1.01618 0.91375 0.29871 0.0
N491 N 1.02452 0.86788 0.33768 0.0
N492 N 1.02238 0.93778 0.45227 0.0
C493 C 1.03205 0.90887 0.54587 0.0
C494 C 1.03289 0.87014 0.4819 0.0
C495 C 0.71895 0.0591 0.64032 0.0
C496 C 0.72997 1.02717 0.55154 0.0
C497 C 0.68051 0.06293 0.70205 0.0
C498 C 0.65024 0.03585 0.67452 0.0
H499 H 0.73962 0.08215 0.6574 0.0
H500 H 0.67406 0.08832 0.76644 0.0
S501 S 0.66371 0.94672 0.45256 0.0
N502 N 0.70666 0.9676 0.44624 0.0
N503 N 0.63623 0.97512 0.55371 0.0
C504 C 0.66148 1.00379 0.58796 0.0
C505 C 0.70039 0.99952 0.52906 0.0
C506 C 0.53585 0.70512 0.44701 0.0
C507 C 0.52958 0.73924 0.52865 0.0
C508 C 0.53827 0.6676 0.5134 0.0
C509 C 0.53319 0.661 0.66608 0.0
H510 H 0.5385 0.70737 0.32954 0.0
H511 H 0.54357 0.64322 0.44237 0.0
S512 S 0.51663 0.74031 0.93168 0.0
N513 N 0.51921 0.76329 0.77359 0.0
N514 N 0.52236 0.69389 0.89576 0.0
C515 C 0.52692 0.695 0.74873 0.0
C516 C 0.52535 0.73339 0.68125 0.0
C517 C 0.85833 0.50982 0.60784 0.0
C518 C 0.84887 0.53393 0.48753 0.0
C519 C 0.89439 0.5128 0.68405 0.0
C520 C 0.92407 0.53896 0.64113 0.0
H521 H 0.83782 0.48787 0.64209 0.0
H522 H 0.8995 0.49348 0.77476 0.0
S523 S 0.91472 0.60824 0.33062 0.0
N524 N 0.87281 0.58523 0.33148 0.0
N525 N 0.93995 0.58977 0.46659 0.0
C526 C 0.9147 0.56317 0.52068 0.0
C527 C 0.87766 0.56086 0.44631 0.0
loop_
_geom_bond_atom_site_label_1
_geom_bond_atom_site_label_2
_geom_bond_distance
_geom_bond_site_symmetry_2
_ccdc_geom_bond_type
C0 N1 1.317 . S
C0 N2 1.348 . S
C0 C3 1.485 . S
N1 C0 1.317 . S
N1 N5 1.370 . S
N2 C0 1.348 . S
N2 C4 1.346 . S
C3 C0 1.485 . S
C3 H7 0.960 . S
C3 H8 0.961 . S
C3 H9 0.960 . S
C4 N2 1.346 . S
C4 N5 1.307 . S
C4 C6 1.486 . S
N5 N1 1.370 . S
N5 C4 1.307 . S
C6 C4 1.486 . S
C6 H10 0.960 . S
C6 H11 0.960 . S
C6 H12 0.959 . S
H7 C3 0.960 . S
H8 C3 0.961 . S
H9 C3 0.960 . S
H10 C6 0.960 . S
H11 C6 0.960 . S
H12 C6 0.959 . S
C13 N14 1.317 . S
C13 N15 1.348 . S
C13 C16 1.485 . S
N14 C13 1.317 . S
N14 N18 1.371 . S
N15 C13 1.348 . S
N15 C17 1.346 1_655 S
C16 C13 1.485 . S
C16 H20 0.960 1_655 S
C16 H21 0.961 . S
C16 H22 0.960 . S
C17 N15 1.346 1_455 S
C17 N18 1.307 1_455 S
C17 C19 1.486 . S
N18 N14 1.371 . S
N18 C17 1.307 1_655 S
C19 C17 1.486 . S
C19 H23 0.960 1_455 S
C19 H24 0.960 . S
C19 H25 0.959 . S
H20 C16 0.960 1_455 S
H21 C16 0.961 . S
H22 C16 0.960 . S
H23 C19 0.960 1_655 S
H24 C19 0.960 . S
H25 C19 0.959 . S
C26 N27 1.317 . S
C26 N28 1.348 . S
C26 C29 1.485 . S
N27 C26 1.317 . S
N27 N31 1.371 . S
N28 C26 1.348 . S
N28 C30 1.346 1_565 S
C29 C26 1.485 . S
C29 H33 0.960 1_565 S
C29 H34 0.961 . S
C29 H35 0.960 . S
C30 N28 1.346 1_545 S
C30 N31 1.307 1_545 S
C30 C32 1.486 . S
N31 N27 1.371 . S
N31 C30 1.307 1_565 S
C32 C30 1.486 . S
C32 H36 0.960 1_545 S
C32 H37 0.960 . S
C32 H38 0.959 . S
H33 C29 0.960 1_545 S
H34 C29 0.961 . S
H35 C29 0.960 . S
H36 C32 0.960 1_565 S
H37 C32 0.960 . S
H38 C32 0.959 . S
C39 N40 1.317 . S
C39 N41 1.348 . S
C39 C42 1.485 . S
N40 C39 1.317 . S
N40 N44 1.370 . S
N41 C39 1.348 . S
N41 C43 1.346 . S
C42 C39 1.485 . S
C42 H46 0.960 . S
C42 H47 0.961 . S
C42 H48 0.960 . S
C43 N41 1.346 . S
C43 N44 1.307 . S
C43 C45 1.486 . S
N44 N40 1.370 . S
N44 C43 1.307 . S
C45 C43 1.486 . S
C45 H49 0.960 . S
C45 H50 0.960 . S
C45 H51 0.959 . S
H46 C42 0.960 . S
H47 C42 0.961 . S
H48 C42 0.960 . S
H49 C45 0.960 . S
H50 C45 0.960 . S
H51 C45 0.959 . S
C52 N53 1.317 . S
C52 N54 1.348 1_556 S
C52 C55 1.485 . S
N53 C52 1.317 . S
N53 N57 1.370 1_556 S
N54 C52 1.348 1_554 S
N54 C56 1.346 . S
C55 C52 1.485 . S
C55 H59 0.960 . S
C55 H60 0.961 . S
C55 H61 0.960 . S
C56 N54 1.346 . S
C56 N57 1.307 . S
C56 C58 1.486 . S
N57 N53 1.370 1_554 S
N57 C56 1.307 . S
C58 C56 1.486 . S
C58 H62 0.960 . S
C58 H63 0.960 . S
C58 H64 0.959 . S
H59 C55 0.960 . S
H60 C55 0.961 . S
H61 C55 0.960 . S
H62 C58 0.960 . S
H63 C58 0.960 . S
H64 C58 0.959 . S
C65 N66 1.317 . S
C65 N67 1.350 1_556 S
C65 C68 1.485 . S
N66 C65 1.317 . S
N66 N70 1.371 1_556 S
N67 C65 1.350 1_554 S
N67 C69 1.345 1_655 S
C68 C65 1.485 . S
C68 H72 0.960 1_655 S
C68 H73 0.961 . S
C68 H74 0.960 . S
C69 N67 1.345 1_455 S
C69 N70 1.307 1_455 S
C69 C71 1.487 . S
N70 N66 1.371 1_554 S
N70 C69 1.307 1_655 S
C71 C69 1.487 . S
C71 H75 0.960 1_455 S
C71 H76 0.960 . S
C71 H77 0.959 . S
H72 C68 0.960 1_455 S
H73 C68 0.961 . S
H74 C68 0.960 . S
H75 C71 0.960 1_655 S
H76 C71 0.960 . S
H77 C71 0.959 . S
C78 N79 1.317 . S
C78 N80 1.350 1_556 S
C78 C81 1.485 . S
N79 C78 1.317 . S
N79 N83 1.371 1_556 S
N80 C78 1.350 1_554 S
N80 C82 1.345 1_565 S
C81 C78 1.485 . S
C81 H85 0.960 1_565 S
C81 H86 0.961 . S
C81 H87 0.960 . S
C82 N80 1.345 1_545 S
C82 N83 1.307 1_545 S
C82 C84 1.487 . S
N83 N79 1.371 1_554 S
N83 C82 1.307 1_565 S
C84 C82 1.487 . S
C84 H88 0.960 1_545 S
C84 H89 0.960 . S
C84 H90 0.959 . S
H85 C81 0.960 1_545 S
H86 C81 0.961 . S
H87 C81 0.960 . S
H88 C84 0.960 1_565 S
H89 C84 0.960 . S
H90 C84 0.959 . S
C91 N92 1.317 . S
C91 N93 1.348 1_556 S
C91 C94 1.485 . S
N92 C91 1.317 . S
N92 N96 1.370 1_556 S
N93 C91 1.348 1_554 S
N93 C95 1.346 . S
C94 C91 1.485 . S
C94 H98 0.960 . S
C94 H99 0.961 . S
C94 H100 0.960 . S
C95 N93 1.346 . S
C95 N96 1.307 . S
C95 C97 1.486 . S
N96 N92 1.370 1_554 S
N96 C95 1.307 . S
C97 C95 1.486 . S
C97 H101 0.960 . S
C97 H102 0.960 . S
C97 H103 0.959 . S
H98 C94 0.960 . S
H99 C94 0.961 . S
H100 C94 0.960 . S
H101 C97 0.960 . S
H102 C97 0.960 . S
H103 C97 0.959 . S
La104 C106 2.928 1_556 S
La104 O124 2.521 1_556 S
La104 O125 2.628 1_556 S
La104 O126 2.554 . S
La104 O127 2.757 1_565 S
La104 O128 2.470 . S
La104 O133 2.482 1_455 S
La104 O135 2.503 1_565 S
La105 C115 2.928 . S
La105 O127 2.482 1_655 S
La105 O129 2.503 1_545 S
La105 O130 2.521 . S
La105 O131 2.628 . S
La105 O132 2.554 . S
La105 O133 2.757 1_545 S
La105 O134 2.470 . S
C106 La104 2.928 1_554 S
C106 C107 1.503 . S
C106 O124 1.261 . S
C106 O125 1.243 . S
C107 C106 1.503 . S
C107 C108 1.394 . S
C107 C112 1.373 . S
C108 C107 1.394 . S
C108 C109 1.380 . S
C108 H136 0.930 . S
C109 C108 1.380 . S
C109 C110 1.376 . S
C109 H137 0.930 . S
C110 C109 1.376 . S
C110 C111 1.370 . S
C111 C110 1.370 . S
C111 C112 1.396 . S
C111 H138 0.929 . S
C112 C107 1.373 . S
C112 C111 1.396 . S
C112 H139 0.929 1_455 S
C113 O126 1.240 . S
C113 O127 1.289 1_565 S
C114 O128 1.258 1_655 S
C114 O129 1.256 . S
C115 La105 2.928 . S
C115 C116 1.503 . S
C115 O130 1.261 . S
C115 O131 1.243 . S
C116 C115 1.503 . S
C116 C117 1.394 . S
C116 C121 1.373 . S
C117 C116 1.394 . S
C117 C118 1.380 . S
C117 H140 0.930 . S
C118 C117 1.380 . S
C118 C119 1.376 . S
C118 H141 0.930 . S
C119 C118 1.376 . S
C119 C120 1.370 . S
C120 C119 1.370 . S
C120 C121 1.396 . S
C120 H142 0.929 . S
C121 C116 1.373 . S
C121 C120 1.396 . S
C121 H143 0.929 1_655 S
C122 O132 1.240 . S
C122 O133 1.289 1_545 S
C123 O134 1.258 1_455 S
C123 O135 1.256 . S
O124 La104 2.521 1_554 S
O124 C106 1.261 . S
O125 La104 2.628 1_554 S
O125 C106 1.243 . S
O126 La104 2.554 . S
O126 C113 1.240 . S
O127 La104 2.757 1_545 S
O127 La105 2.482 1_455 S
O127 C113 1.289 1_545 S
O128 La104 2.470 . S
O128 C114 1.258 1_455 S
O129 La105 2.503 1_565 S
O129 C114 1.256 . S
O130 La105 2.521 . S
O130 C115 1.261 . S
O131 La105 2.628 . S
O131 C115 1.243 . S
O132 La105 2.554 . S
O132 C122 1.240 . S
O133 La104 2.482 1_655 S
O133 La105 2.757 1_565 S
O133 C122 1.289 1_565 S
O134 La105 2.470 . S
O134 C123 1.258 1_655 S
O135 La104 2.503 1_545 S
O135 C123 1.256 . S
H136 C108 0.930 . S
H137 C109 0.930 . S
H138 C111 0.929 . S
H139 C112 0.929 1_655 S
H140 C117 0.930 . S
H141 C118 0.930 . S
H142 C120 0.929 . S
H143 C121 0.929 1_455 S
La144 C146 2.928 1_556 S
La144 O164 2.521 1_556 S
La144 O165 2.628 1_556 S
La144 O166 2.554 . S
La144 O167 2.757 . S
La144 O168 2.470 . S
La144 O173 2.482 1_545 S
La144 O175 2.503 . S
La145 C155 2.928 . S
La145 O167 2.482 1_565 S
La145 O169 2.503 . S
La145 O170 2.521 . S
La145 O171 2.628 . S
La145 O172 2.554 . S
La145 O173 2.757 . S
La145 O174 2.470 . S
C146 La144 2.928 1_554 S
C146 C147 1.503 . S
C146 O164 1.261 . S
C146 O165 1.243 . S
C147 C146 1.503 . S
C147 C148 1.394 . S
C147 C152 1.373 . S
C148 C147 1.394 . S
C148 C149 1.380 . S
C148 H176 0.930 . S
C149 C148 1.380 . S
C149 C150 1.376 . S
C149 H177 0.930 . S
C150 C149 1.376 . S
C150 C151 1.370 . S
C151 C150 1.370 . S
C151 C152 1.396 . S
C151 H178 0.929 . S
C152 C147 1.373 . S
C152 C151 1.396 . S
C152 H179 0.929 1_545 S
C153 O166 1.240 . S
C153 O167 1.289 . S
C154 O168 1.258 1_565 S
C154 O169 1.256 . S
C155 La145 2.928 . S
C155 C156 1.503 . S
C155 O170 1.261 . S
C155 O171 1.243 . S
C156 C155 1.503 . S
C156 C157 1.394 . S
C156 C161 1.373 . S
C157 C156 1.394 . S
C157 C158 1.380 . S
C157 H180 0.930 . S
C158 C157 1.380 . S
C158 C159 1.376 . S
C158 H181 0.930 . S
C159 C158 1.376 . S
C159 C160 1.370 . S
C160 C159 1.370 . S
C160 C161 1.396 . S
C160 H182 0.929 . S
C161 C156 1.373 . S
C161 C160 1.396 . S
C161 H183 0.929 1_565 S
C162 O172 1.240 . S
C162 O173 1.289 . S
C163 O174 1.258 1_545 S
C163 O175 1.256 . S
O164 La144 2.521 1_554 S
O164 C146 1.261 . S
O165 La144 2.628 1_554 S
O165 C146 1.243 . S
O166 La144 2.554 . S
O166 C153 1.240 . S
O167 La144 2.757 . S
O167 La145 2.482 1_545 S
O167 C153 1.289 . S
O168 La144 2.470 . S
O168 C154 1.258 1_545 S
O169 La145 2.503 . S
O169 C154 1.256 . S
O170 La145 2.521 . S
O170 C155 1.261 . S
O171 La145 2.628 . S
O171 C155 1.243 . S
O172 La145 2.554 . S
O172 C162 1.240 . S
O173 La144 2.482 1_565 S
O173 La145 2.757 . S
O173 C162 1.289 . S
O174 La145 2.470 . S
O174 C163 1.258 1_565 S
O175 La144 2.503 . S
O175 C163 1.256 . S
H176 C148 0.930 . S
H177 C149 0.930 . S
H178 C151 0.929 . S
H179 C152 0.929 1_565 S
H180 C157 0.930 . S
H181 C158 0.930 . S
H182 C160 0.929 . S
H183 C161 0.929 1_545 S
La184 C186 2.928 1_556 S
La184 O204 2.521 1_556 S
La184 O205 2.628 1_556 S
La184 O206 2.554 . S
La184 O207 2.757 . S
La184 O208 2.470 . S
La184 O213 2.482 . S
La184 O215 2.503 . S
La185 C195 2.928 . S
La185 O207 2.482 . S
La185 O209 2.503 . S
La185 O210 2.521 . S
La185 O211 2.628 . S
La185 O212 2.554 . S
La185 O213 2.757 . S
La185 O214 2.470 . S
C186 La184 2.928 1_554 S
C186 C187 1.503 . S
C186 O204 1.261 . S
C186 O205 1.243 . S
C187 C186 1.503 . S
C187 C188 1.394 . S
C187 C192 1.373 . S
C188 C187 1.394 . S
C188 C189 1.380 . S
C188 H216 0.930 . S
C189 C188 1.380 . S
C189 C190 1.376 . S
C189 H217 0.930 . S
C190 C189 1.376 . S
C190 C191 1.370 . S
C191 C190 1.370 . S
C191 C192 1.396 . S
C191 H218 0.929 . S
C192 C187 1.373 . S
C192 C191 1.396 . S
C192 H219 0.929 . S
C193 O206 1.240 . S
C193 O207 1.289 . S
C194 O208 1.258 . S
C194 O209 1.256 . S
C195 La185 2.928 . S
C195 C196 1.503 . S
C195 O210 1.261 . S
C195 O211 1.243 . S
C196 C195 1.503 . S
C196 C197 1.394 . S
C196 C201 1.373 . S
C197 C196 1.394 . S
C197 C198 1.380 . S
C197 H220 0.930 . S
C198 C197 1.380 . S
C198 C199 1.376 . S
C198 H221 0.930 . S
C199 C198 1.376 . S
C199 C200 1.370 . S
C200 C199 1.370 . S
C200 C201 1.396 . S
C200 H222 0.929 . S
C201 C196 1.373 . S
C201 C200 1.396 . S
C201 H223 0.929 . S
C202 O212 1.240 . S
C202 O213 1.289 . S
C203 O214 1.258 . S
C203 O215 1.256 . S
O204 La184 2.521 1_554 S
O204 C186 1.261 . S
O205 La184 2.628 1_554 S
O205 C186 1.243 . S
O206 La184 2.554 . S
O206 C193 1.240 . S
O207 La184 2.757 . S
O207 La185 2.482 . S
O207 C193 1.289 . S
O208 La184 2.470 . S
O208 C194 1.258 . S
O209 La185 2.503 . S
O209 C194 1.256 . S
O210 La185 2.521 . S
O210 C195 1.261 . S
O211 La185 2.628 . S
O211 C195 1.243 . S
O212 La185 2.554 . S
O212 C202 1.240 . S
O213 La184 2.482 . S
O213 La185 2.757 . S
O213 C202 1.289 . S
O214 La185 2.470 . S
O214 C203 1.258 . S
O215 La184 2.503 . S
O215 C203 1.256 . S
H216 C188 0.930 . S
H217 C189 0.930 . S
H218 C191 0.929 . S
H219 C192 0.929 . S
H220 C197 0.930 . S
H221 C198 0.930 . S
H222 C200 0.929 . S
H223 C201 0.929 . S
La224 C226 2.928 1_556 S
La224 O244 2.521 1_556 S
La224 O245 2.628 1_556 S
La224 O246 2.554 . S
La224 O247 2.757 1_655 S
La224 O248 2.470 . S
La224 O253 2.482 . S
La224 O255 2.503 1_655 S
La225 C235 2.928 . S
La225 O247 2.482 . S
La225 O249 2.503 1_455 S
La225 O250 2.521 . S
La225 O251 2.628 . S
La225 O252 2.554 . S
La225 O253 2.757 1_455 S
La225 O254 2.470 . S
C226 La224 2.928 1_554 S
C226 C227 1.503 . S
C226 O244 1.261 . S
C226 O245 1.243 . S
C227 C226 1.503 . S
C227 C228 1.394 . S
C227 C232 1.373 . S
C228 C227 1.394 . S
C228 C229 1.380 . S
C228 H256 0.930 . S
C229 C228 1.380 . S
C229 C230 1.376 . S
C229 H257 0.930 . S
C230 C229 1.376 . S
C230 C231 1.370 . S
C231 C230 1.370 . S
C231 C232 1.396 . S
C231 H258 0.929 . S
C232 C227 1.373 . S
C232 C231 1.396 . S
C232 H259 0.929 . S
C233 O246 1.247 . S
C233 O247 1.285 1_655 S
C234 O248 1.258 . S
C234 O249 1.256 . S
C235 La225 2.928 . S
C235 C236 1.503 . S
C235 O250 1.261 . S
C235 O251 1.243 . S
C236 C235 1.503 . S
C236 C237 1.394 . S
C236 C241 1.373 . S
C237 C236 1.394 . S
C237 C238 1.380 . S
C237 H260 0.930 . S
C238 C237 1.380 . S
C238 C239 1.376 . S
C238 H261 0.930 . S
C239 C238 1.376 . S
C239 C240 1.370 . S
C240 C239 1.370 . S
C240 C241 1.396 . S
C240 H262 0.929 . S
C241 C236 1.373 . S
C241 C240 1.396 . S
C241 H263 0.929 . S
C242 O252 1.250 . S
C242 O253 1.283 1_455 S
C243 O254 1.258 . S
C243 O255 1.256 . S
O244 La224 2.521 1_554 S
O244 C226 1.261 . S
O245 La224 2.628 1_554 S
O245 C226 1.243 . S
O246 La224 2.554 . S
O246 C233 1.247 . S
O247 La224 2.757 1_455 S
O247 La225 2.482 . S
O247 C233 1.285 1_455 S
O248 La224 2.470 . S
O248 C234 1.258 . S
O249 La225 2.503 1_655 S
O249 C234 1.256 . S
O250 La225 2.521 . S
O250 C235 1.261 . S
O251 La225 2.628 . S
O251 C235 1.243 . S
O252 La225 2.554 . S
O252 C242 1.250 . S
O253 La224 2.482 . S
O253 La225 2.757 1_655 S
O253 C242 1.283 1_655 S
O254 La225 2.470 . S
O254 C243 1.258 . S
O255 La224 2.503 1_455 S
O255 C243 1.256 . S
H256 C228 0.930 . S
H257 C229 0.930 . S
H258 C231 0.929 . S
H259 C232 0.929 . S
H260 C237 0.930 . S
H261 C238 0.930 . S
H262 C240 0.929 . S
H263 C241 0.929 . S
C264 C265 1.369 1_565 S
C264 C266 1.419 . S
C264 H268 0.930 . S
C265 C264 1.369 1_545 S
C265 C274 1.429 . S
C266 C264 1.419 . S
C266 C267 1.360 1_565 S
C266 H269 0.929 . S
C267 C266 1.360 1_545 S
C267 C273 1.431 . S
H268 C264 0.930 . S
H269 C266 0.929 . S
S270 N271 1.613 . S
S270 N272 1.610 . S
N271 S270 1.613 . S
N271 C274 1.350 . S
N272 S270 1.610 . S
N272 C273 1.351 . S
C273 C267 1.431 . S
C273 N272 1.351 . S
C273 C274 1.434 . S
C274 C265 1.429 . S
C274 N271 1.350 . S
C274 C273 1.434 . S
C275 C276 1.369 . S
C275 C277 1.419 . S
C275 H279 0.930 . S
C276 C275 1.369 . S
C276 C285 1.429 . S
C277 C275 1.419 . S
C277 C278 1.363 . S
C277 H280 0.929 . S
C278 C277 1.363 . S
C278 C284 1.428 . S
H279 C275 0.930 . S
H280 C277 0.929 . S
S281 N282 1.613 . S
S281 N283 1.610 . S
N282 S281 1.613 . S
N282 C285 1.350 . S
N283 S281 1.610 . S
N283 C284 1.351 . S
C284 C278 1.428 . S
C284 N283 1.351 . S
C284 C285 1.434 . S
C285 C276 1.429 . S
C285 N282 1.350 . S
C285 C284 1.434 . S
C286 C287 1.369 . S
C286 C288 1.419 . S
C286 H290 0.930 . S
C287 C286 1.369 . S
C287 C296 1.429 . S
C288 C286 1.419 . S
C288 C289 1.363 . S
C288 H291 0.929 . S
C289 C288 1.363 . S
C289 C295 1.428 . S
H290 C286 0.930 . S
H291 C288 0.929 . S
S292 N293 1.613 . S
S292 N294 1.610 . S
N293 S292 1.613 . S
N293 C296 1.350 . S
N294 S292 1.610 . S
N294 C295 1.351 . S
C295 C289 1.428 . S
C295 N294 1.351 . S
C295 C296 1.434 . S
C296 C287 1.429 . S
C296 N293 1.350 . S
C296 C295 1.434 . S
C297 C298 1.379 . S
C297 C299 1.419 . S
C297 H301 0.930 . S
C298 C297 1.379 . S
C298 C307 1.419 1_455 S
C299 C297 1.419 . S
C299 C300 1.363 . S
C299 H302 0.929 . S
C300 C299 1.363 . S
C300 C306 1.428 1_455 S
H301 C297 0.930 . S
H302 C299 0.929 . S
S303 N304 1.613 . S
S303 N305 1.610 . S
N304 S303 1.613 . S
N304 C307 1.350 . S
N305 S303 1.610 . S
N305 C306 1.351 . S
C306 C300 1.428 1_655 S
C306 N305 1.351 . S
C306 C307 1.434 . S
C307 C298 1.419 1_655 S
C307 N304 1.350 . S
C307 C306 1.434 . S
C308 C309 1.370 1_565 S
C308 C310 1.419 . S
C308 H312 0.930 . S
C309 C308 1.370 1_545 S
C309 C318 1.428 . S
C310 C308 1.419 . S
C310 C311 1.364 . S
C310 H313 0.929 . S
C311 C310 1.364 . S
C311 C317 1.428 1_565 S
H312 C308 0.930 . S
H313 C310 0.929 . S
S314 N315 1.613 . S
S314 N316 1.610 . S
N315 S314 1.613 . S
N315 C318 1.350 . S
N316 S314 1.610 . S
N316 C317 1.351 . S
C317 C311 1.428 1_545 S
C317 N316 1.351 . S
C317 C318 1.434 . S
C318 C309 1.428 . S
C318 N315 1.350 . S
C318 C317 1.434 . S
C319 C320 1.369 . S
C319 C321 1.419 . S
C319 H323 0.930 . S
C320 C319 1.369 . S
C320 C329 1.429 . S
C321 C319 1.419 . S
C321 C322 1.363 . S
C321 H324 0.929 . S
C322 C321 1.363 . S
C322 C328 1.428 . S
H323 C319 0.930 . S
H324 C321 0.929 . S
S325 N326 1.613 . S
S325 N327 1.610 . S
N326 S325 1.613 . S
N326 C329 1.350 . S
N327 S325 1.610 . S
N327 C328 1.351 . S
C328 C322 1.428 . S
C328 N327 1.351 . S
C328 C329 1.434 . S
C329 C320 1.429 . S
C329 N326 1.350 . S
C329 C328 1.434 . S
C330 C331 1.369 . S
C330 C332 1.419 . S
C330 H334 0.930 . S
C331 C330 1.369 . S
C331 C340 1.429 . S
C332 C330 1.419 . S
C332 C333 1.363 . S
C332 H335 0.929 . S
C333 C332 1.363 . S
C333 C339 1.428 . S
H334 C330 0.930 . S
H335 C332 0.929 . S
S336 N337 1.613 . S
S336 N338 1.610 . S
N337 S336 1.613 . S
N337 C340 1.350 . S
N338 S336 1.610 . S
N338 C339 1.351 . S
C339 C333 1.428 . S
C339 N338 1.351 . S
C339 C340 1.434 . S
C340 C331 1.429 . S
C340 N337 1.350 . S
C340 C339 1.434 . S
C341 C342 1.369 1_455 S
C341 C343 1.419 . S
C341 H345 0.930 . S
C342 C341 1.369 1_655 S
C342 C351 1.429 . S
C343 C341 1.419 . S
C343 C344 1.363 1_455 S
C343 H346 0.929 . S
C344 C343 1.363 1_655 S
C344 C350 1.428 . S
H345 C341 0.930 . S
H346 C343 0.929 . S
S347 N348 1.613 . S
S347 N349 1.610 . S
N348 S347 1.613 . S
N348 C351 1.350 . S
N349 S347 1.610 . S
N349 C350 1.351 . S
C350 C344 1.428 . S
C350 N349 1.351 . S
C350 C351 1.434 . S
C351 C342 1.429 . S
C351 N348 1.350 . S
C351 C350 1.434 . S
C352 C353 1.369 . S
C352 C354 1.419 . S
C352 H356 0.930 . S
C353 C352 1.369 . S
C353 C362 1.429 . S
C354 C352 1.419 . S
C354 C355 1.363 . S
C354 H357 0.929 . S
C355 C354 1.363 . S
C355 C361 1.428 . S
H356 C352 0.930 . S
H357 C354 0.929 . S
S358 N359 1.613 1_655 S
S358 N360 1.610 1_556 S
N359 S358 1.613 1_455 S
N359 C362 1.350 1_456 S
N360 S358 1.610 1_554 S
N360 C361 1.351 . S
C361 C355 1.428 . S
C361 N360 1.351 . S
C361 C362 1.434 . S
C362 C353 1.429 . S
C362 N359 1.350 1_654 S
C362 C361 1.434 . S
C363 C364 1.369 . S
C363 C365 1.419 . S
C363 H367 0.930 . S
C364 C363 1.369 . S
C364 C373 1.429 1_565 S
C365 C363 1.419 . S
C365 C366 1.363 . S
C365 H368 0.929 . S
C366 C365 1.363 . S
C366 C372 1.428 . S
H367 C363 0.930 . S
H368 C365 0.929 . S
S369 N370 1.613 . S
S369 N371 1.610 1_545 S
N370 S369 1.613 . S
N370 C373 1.350 . S
N371 S369 1.610 1_565 S
N371 C372 1.351 . S
C372 C366 1.428 . S
C372 N371 1.351 . S
C372 C373 1.434 1_565 S
C373 C364 1.429 1_545 S
C373 N370 1.350 . S
C373 C372 1.434 1_545 S
C374 C375 1.369 . S
C374 C376 1.419 . S
C374 H378 0.930 . S
C375 C374 1.369 . S
C375 C384 1.429 . S
C376 C374 1.419 . S
C376 C377 1.363 . S
C376 H379 0.929 . S
C377 C376 1.363 . S
C377 C383 1.428 . S
H378 C374 0.930 . S
H379 C376 0.929 . S
S380 N381 1.613 . S
S380 N382 1.610 . S
N381 S380 1.613 . S
N381 C384 1.350 . S
N382 S380 1.610 . S
N382 C383 1.351 . S
C383 C377 1.428 . S
C383 N382 1.351 . S
C383 C384 1.434 . S
C384 C375 1.429 . S
C384 N381 1.350 . S
C384 C383 1.434 . S
C385 C386 1.369 . S
C385 C387 1.419 . S
C385 H389 0.930 . S
C386 C385 1.369 . S
C386 C395 1.429 . S
C387 C385 1.419 . S
C387 C388 1.363 . S
C387 H390 0.929 . S
C388 C387 1.363 . S
C388 C394 1.428 . S
H389 C385 0.930 . S
H390 C387 0.929 . S
S391 N392 1.613 . S
S391 N393 1.610 . S
N392 S391 1.613 . S
N392 C395 1.350 . S
N393 S391 1.610 . S
N393 C394 1.351 . S
C394 C388 1.428 . S
C394 N393 1.351 . S
C394 C395 1.434 . S
C395 C386 1.429 . S
C395 N392 1.350 . S
C395 C394 1.434 . S
C396 C397 1.369 . S
C396 C398 1.419 . S
C396 H400 0.930 . S
C397 C396 1.369 . S
C397 C406 1.429 . S
C398 C396 1.419 . S
C398 C399 1.363 . S
C398 H401 0.929 . S
C399 C398 1.363 . S
C399 C405 1.428 . S
H400 C396 0.930 . S
H401 C398 0.929 . S
S402 N403 1.613 . S
S402 N404 1.610 . S
N403 S402 1.613 . S
N403 C406 1.350 . S
N404 S402 1.610 . S
N404 C405 1.351 . S
C405 C399 1.428 . S
C405 N404 1.351 . S
C405 C406 1.434 . S
C406 C397 1.429 . S
C406 N403 1.350 . S
C406 C405 1.434 . S
C407 C408 1.369 . S
C407 C409 1.419 . S
C407 H411 0.930 . S
C408 C407 1.369 . S
C408 C417 1.429 1_545 S
C409 C407 1.419 . S
C409 C410 1.363 . S
C409 H412 0.929 . S
C410 C409 1.363 . S
C410 C416 1.428 . S
H411 C407 0.930 . S
H412 C409 0.929 . S
S413 N414 1.613 . S
S413 N415 1.610 1_565 S
N414 S413 1.613 . S
N414 C417 1.350 . S
N415 S413 1.610 1_545 S
N415 C416 1.351 . S
C416 C410 1.428 . S
C416 N415 1.351 . S
C416 C417 1.434 1_545 S
C417 C408 1.429 1_565 S
C417 N414 1.350 . S
C417 C416 1.434 1_565 S
C418 C419 1.369 . S
C418 C420 1.419 . S
C418 H422 0.930 . S
C419 C418 1.369 . S
C419 C428 1.429 . S
C420 C418 1.419 . S
C420 C421 1.363 . S
C420 H423 0.929 . S
C421 C420 1.363 . S
C421 C427 1.428 . S
H422 C418 0.930 . S
H423 C420 0.929 . S
S424 N425 1.613 . S
S424 N426 1.610 . S
N425 S424 1.613 . S
N425 C428 1.350 . S
N426 S424 1.610 . S
N426 C427 1.351 . S
C427 C421 1.428 . S
C427 N426 1.351 . S
C427 C428 1.434 . S
C428 C419 1.429 . S
C428 N425 1.350 . S
C428 C427 1.434 . S
C429 C430 1.369 . S
C429 C431 1.419 . S
C429 H433 0.930 . S
C430 C429 1.369 . S
C430 C439 1.429 . S
C431 C429 1.419 . S
C431 C432 1.363 . S
C431 H434 0.929 . S
C432 C431 1.363 . S
C432 C438 1.428 . S
H433 C429 0.930 . S
H434 C431 0.929 . S
S435 N436 1.613 . S
S435 N437 1.610 . S
N436 S435 1.613 . S
N436 C439 1.350 . S
N437 S435 1.610 . S
N437 C438 1.351 . S
C438 C432 1.428 . S
C438 N437 1.351 . S
C438 C439 1.434 . S
C439 C430 1.429 . S
C439 N436 1.350 . S
C439 C438 1.434 . S
C440 C441 1.369 . S
C440 C442 1.419 . S
C440 H444 0.930 . S
C441 C440 1.369 . S
C441 C450 1.429 1_455 S
C442 C440 1.419 . S
C442 C443 1.363 . S
C442 H445 0.929 . S
C443 C442 1.363 . S
C443 C449 1.428 1_455 S
H444 C440 0.930 . S
H445 C442 0.929 . S
S446 N447 1.613 . S
S446 N448 1.610 . S
N447 S446 1.613 . S
N447 C450 1.350 1_554 S
N448 S446 1.610 . S
N448 C449 1.351 1_554 S
C449 C443 1.428 1_655 S
C449 N448 1.351 1_556 S
C449 C450 1.434 . S
C450 C441 1.429 1_655 S
C450 N447 1.350 1_556 S
C450 C449 1.434 . S
C451 C452 1.369 1_565 S
C451 C453 1.419 . S
C451 H455 0.930 . S
C452 C451 1.369 1_545 S
C452 C461 1.429 . S
C453 C451 1.419 . S
C453 C454 1.363 1_565 S
C453 H456 0.929 . S
C454 C453 1.363 1_545 S
C454 C460 1.428 . S
H455 C451 0.930 . S
H456 C453 0.929 . S
S457 N458 1.613 1_554 S
S457 N459 1.610 1_554 S
N458 S457 1.613 1_556 S
N458 C461 1.350 . S
N459 S457 1.610 1_556 S
N459 C460 1.351 . S
C460 C454 1.428 . S
C460 N459 1.351 . S
C460 C461 1.434 . S
C461 C452 1.429 . S
C461 N458 1.350 . S
C461 C460 1.434 . S
C462 C463 1.369 . S
C462 C464 1.419 . S
C462 H466 0.930 1_556 S
C463 C462 1.369 . S
C463 C472 1.429 . S
C464 C462 1.419 . S
C464 C465 1.363 . S
C464 H467 0.929 1_556 S
C465 C464 1.363 . S
C465 C471 1.428 . S
H466 C462 0.930 1_554 S
H467 C464 0.929 1_554 S
S468 N469 1.613 . S
S468 N470 1.610 . S
N469 S468 1.613 . S
N469 C472 1.350 . S
N470 S468 1.610 . S
N470 C471 1.351 . S
C471 C465 1.428 . S
C471 N470 1.351 . S
C471 C472 1.434 . S
C472 C463 1.429 . S
C472 N469 1.350 . S
C472 C471 1.434 . S
C473 C474 1.369 . S
C473 C475 1.419 . S
C473 H477 0.930 . S
C474 C473 1.369 . S
C474 C483 1.429 . S
C475 C473 1.419 . S
C475 C476 1.363 . S
C475 H478 0.929 . S
C476 C475 1.363 . S
C476 C482 1.428 . S
H477 C473 0.930 . S
H478 C475 0.929 . S
S479 N480 1.613 . S
S479 N481 1.610 . S
N480 S479 1.613 . S
N480 C483 1.350 . S
N481 S479 1.610 . S
N481 C482 1.351 . S
C482 C476 1.428 . S
C482 N481 1.351 . S
C482 C483 1.434 . S
C483 C474 1.429 . S
C483 N480 1.350 . S
C483 C482 1.434 . S
C484 C485 1.369 1_455 S
C484 C486 1.419 . S
C484 H488 0.930 . S
C485 C484 1.369 1_655 S
C485 C494 1.429 . S
C486 C484 1.419 . S
C486 C487 1.363 1_455 S
C486 H489 0.929 . S
C487 C486 1.363 1_655 S
C487 C493 1.428 . S
H488 C484 0.930 . S
H489 C486 0.929 . S
S490 N491 1.613 . S
S490 N492 1.610 . S
N491 S490 1.613 . S
N491 C494 1.350 . S
N492 S490 1.610 . S
N492 C493 1.351 . S
C493 C487 1.428 . S
C493 N492 1.351 . S
C493 C494 1.434 . S
C494 C485 1.429 . S
C494 N491 1.350 . S
C494 C493 1.434 . S
C495 C496 1.369 1_545 S
C495 C497 1.419 . S
C495 H499 0.930 . S
C496 C495 1.369 1_565 S
C496 C505 1.429 . S
C497 C495 1.419 . S
C497 C498 1.363 1_545 S
C497 H500 0.929 . S
C498 C497 1.363 1_565 S
C498 C504 1.428 . S
H499 C495 0.930 . S
H500 C497 0.929 . S
S501 N502 1.613 . S
S501 N503 1.610 . S
N502 S501 1.613 . S
N502 C505 1.350 . S
N503 S501 1.610 . S
N503 C504 1.351 . S
C504 C498 1.428 . S
C504 N503 1.351 . S
C504 C505 1.434 . S
C505 C496 1.429 . S
C505 N502 1.350 . S
C505 C504 1.434 . S
C506 C507 1.369 . S
C506 C508 1.419 . S
C506 H510 0.930 . S
C507 C506 1.369 . S
C507 C516 1.429 . S
C508 C506 1.419 . S
C508 C509 1.363 . S
C508 H511 0.929 . S
C509 C508 1.363 . S
C509 C515 1.428 . S
H510 C506 0.930 . S
H511 C508 0.929 . S
S512 N513 1.613 1_554 S
S512 N514 1.610 1_554 S
N513 S512 1.613 1_556 S
N513 C516 1.350 . S
N514 S512 1.610 1_556 S
N514 C515 1.351 . S
C515 C509 1.428 . S
C515 N514 1.351 . S
C515 C516 1.434 . S
C516 C507 1.429 . S
C516 N513 1.350 . S
C516 C515 1.434 . S
C517 C518 1.369 . S
C517 C519 1.419 . S
C517 H521 0.930 . S
C518 C517 1.369 . S
C518 C527 1.429 . S
C519 C517 1.419 . S
C519 C520 1.363 . S
C519 H522 0.929 . S
C520 C519 1.363 . S
C520 C526 1.428 . S
H521 C517 0.930 . S
H522 C519 0.929 . S
S523 N524 1.613 . S
S523 N525 1.610 . S
N524 S523 1.613 . S
N524 C527 1.350 . S
N525 S523 1.610 . S
N525 C526 1.351 . S
C526 C520 1.428 . S
C526 N525 1.351 . S
C526 C527 1.434 . S
C527 C518 1.429 . S
C527 N524 1.350 . S
C527 C526 1.434 . S
C265 N80 1.999 1_545 S
C267 C113 2.176 1_545 S
C278 C153 2.196 . S
C276 N93 2.030 . S
C289 C193 2.209 . S
C287 N54 2.044 . S
C300 C233 2.192 1_455 S
C298 N67 2.025 1_455 S
C311 C122 2.178 1_564 S
C309 N28 2.002 1_545 S
C320 N41 2.026 . S
C322 C162 2.199 1_554 S
C331 N2 2.036 . S
C333 C202 2.211 1_554 S
C342 N15 2.025 . S
C344 C242 2.192 1_654 S
C355 C119 0.827 . S
C353 N70 0.846 . S
C366 C159 0.816 . S
C364 N83 0.849 . S
C377 C199 0.807 . S
C375 N96 0.846 . S
C386 N57 0.833 . S
C388 C239 0.822 . S
C397 N18 0.853 1_455 S
C399 C110 0.829 . S
C410 C150 0.814 . S
C408 N31 0.853 1_545 S
C421 C190 0.826 . S
C419 N44 0.828 . S
C430 N5 0.832 . S
C432 C230 0.832 . S
C441 N66 2.422 1_455 S
C443 C123 2.524 . S
C452 N79 2.380 1_545 S
C454 C163 2.483 . S
C465 C203 2.462 . S
C463 N92 2.370 . S
C476 C243 2.514 . S
C474 N53 2.412 . S
C485 N14 2.408 . S
C487 C114 2.534 . S
C498 C154 2.482 . S
C496 N27 2.362 . S
C509 C194 2.463 . S
C507 N40 2.352 . S
C518 N1 2.389 . S
C520 C234 2.516 . S
