# Generated by pormake.
# Topology pto, (3,4)-cn, num edge types: 1
# Building blocks:
#     Node 0, Type 0, BuildingBlock: WUSLED_clean_sbu_0, # of connection points: 3
#     Node 1, Type 0, BuildingBlock: WUSLED_clean_sbu_0, # of connection points: 3
#     Node 2, Type 0, BuildingBlock: WUSLED_clean_sbu_0, # of connection points: 3
#     Node 3, Type 0, BuildingBlock: WUSLED_clean_sbu_0, # of connection points: 3
#     Node 4, Type 0, BuildingBlock: WUSLED_clean_sbu_0, # of connection points: 3
#     Node 5, Type 0, BuildingBlock: WUSLED_clean_sbu_0, # of connection points: 3
#     Node 6, Type 0, BuildingBlock: WUSLED_clean_sbu_0, # of connection points: 3
#     Node 7, Type 0, BuildingBlock: WUSLED_clean_sbu_0, # of connection points: 3
#     Node 8, Type 1, BuildingBlock: KUFVIS_clean_linker_0, # of connection points: 4
#     Node 9, Type 1, BuildingBlock: KUFVIS_clean_linker_0, # of connection points: 4
#     Node 10, Type 1, BuildingBlock: KUFVIS_clean_linker_0, # of connection points: 4
#     Node 11, Type 1, BuildingBlock: KUFVIS_clean_linker_0, # of connection points: 4
#     Node 12, Type 1, BuildingBlock: KUFVIS_clean_linker_0, # of connection points: 4
#     Node 13, Type 1, BuildingBlock: KUFVIS_clean_linker_0, # of connection points: 4
#     Edge 14, Type (0, 1), BuildingBlock: ZUJKAS_clean_linker_0, # of connection points: 2
#     Edge 15, Type (0, 1), BuildingBlock: ZUJKAS_clean_linker_0, # of connection points: 2
#     Edge 16, Type (0, 1), BuildingBlock: ZUJKAS_clean_linker_0, # of connection points: 2
#     Edge 17, Type (0, 1), BuildingBlock: ZUJKAS_clean_linker_0, # of connection points: 2
#     Edge 18, Type (0, 1), BuildingBlock: ZUJKAS_clean_linker_0, # of connection points: 2
#     Edge 19, Type (0, 1), BuildingBlock: ZUJKAS_clean_linker_0, # of connection points: 2
#     Edge 20, Type (0, 1), BuildingBlock: ZUJKAS_clean_linker_0, # of connection points: 2
#     Edge 21, Type (0, 1), BuildingBlock: ZUJKAS_clean_linker_0, # of connection points: 2
#     Edge 22, Type (0, 1), BuildingBlock: ZUJKAS_clean_linker_0, # of connection points: 2
#     Edge 23, Type (0, 1), BuildingBlock: ZUJKAS_clean_linker_0, # of connection points: 2
#     Edge 24, Type (0, 1), BuildingBlock: ZUJKAS_clean_linker_0, # of connection points: 2
#     Edge 25, Type (0, 1), BuildingBlock: ZUJKAS_clean_linker_0, # of connection points: 2
#     Edge 26, Type (0, 1), BuildingBlock: ZUJKAS_clean_linker_0, # of connection points: 2
#     Edge 27, Type (0, 1), BuildingBlock: ZUJKAS_clean_linker_0, # of connection points: 2
#     Edge 28, Type (0, 1), BuildingBlock: ZUJKAS_clean_linker_0, # of connection points: 2
#     Edge 29, Type (0, 1), BuildingBlock: ZUJKAS_clean_linker_0, # of connection points: 2
#     Edge 30, Type (0, 1), BuildingBlock: ZUJKAS_clean_linker_0, # of connection points: 2
#     Edge 31, Type (0, 1), BuildingBlock: ZUJKAS_clean_linker_0, # of connection points: 2
#     Edge 32, Type (0, 1), BuildingBlock: ZUJKAS_clean_linker_0, # of connection points: 2
#     Edge 33, Type (0, 1), BuildingBlock: ZUJKAS_clean_linker_0, # of connection points: 2
#     Edge 34, Type (0, 1), BuildingBlock: ZUJKAS_clean_linker_0, # of connection points: 2
#     Edge 35, Type (0, 1), BuildingBlock: ZUJKAS_clean_linker_0, # of connection points: 2
#     Edge 36, Type (0, 1), BuildingBlock: ZUJKAS_clean_linker_0, # of connection points: 2
#     Edge 37, Type (0, 1), BuildingBlock: ZUJKAS_clean_linker_0, # of connection points: 2
# Relax obj value: 0.002
# Max RMSD: 0.051
# Mean RMSD: 0.028
data_MOF--net-pto--node1-WUSLED_clean_sbu_0--node2-KUFVIS_clean_linker_0--edge1-ZUJKAS_clean_linker_0
_symmetry_space_group_name_H-M    P1
_symmetry_Int_Tables_number       1
_symmetry_cell_setting            triclinic
loop_
_symmetry_equiv_pos_as_xyz
'x, y, z'
_cell_length_a     49.098535
_cell_length_b     79.60216
_cell_length_c     63.79829
_cell_angle_alpha  89.627121
_cell_angle_beta   90.824481
_cell_angle_gamma 90.681056
loop_
_atom_site_label
_atom_site_type_symbol
_atom_site_fract_x
_atom_site_fract_y
_atom_site_fract_z
_atom_type_partial_charge
C0 C 0.21337 0.24337 0.3627 0.0
C1 C 0.2304 0.23137 0.35385 0.0
C2 C 0.21532 0.21042 0.37935 0.0
C3 C 0.23142 0.21507 0.36212 0.0
C4 C 0.198 0.22249 0.38794 0.0
C5 C 0.19709 0.23881 0.37971 0.0
U6 U 0.23023 0.27454 0.31962 0.0
O7 O 0.20724 0.2954 0.30562 0.0
O8 O 0.24684 0.30038 0.32099 0.0
C9 C 0.22523 0.30679 0.31172 0.0
C10 C 0.21262 0.26064 0.35434 0.0
C11 C 0.21446 0.32226 0.3209 0.0
C12 C 0.17908 0.33756 0.33871 0.0
C13 C 0.19001 0.32234 0.33205 0.0
C14 C 0.21738 0.35265 0.3238 0.0
C15 C 0.19241 0.35293 0.33432 0.0
C16 C 0.22822 0.33748 0.31713 0.0
C17 C 0.26627 0.25944 0.27129 0.0
C18 C 0.28074 0.27937 0.2446 0.0
C19 C 0.28863 0.24962 0.24008 0.0
C20 C 0.27628 0.24627 0.25929 0.0
C21 C 0.2912 0.26623 0.23259 0.0
C22 C 0.26834 0.276 0.26378 0.0
C23 C 0.25405 0.25587 0.29172 0.0
O24 O 0.23647 0.26821 0.3529 0.0
O25 O 0.19703 0.26281 0.33764 0.0
O26 O 0.22752 0.25772 0.29242 0.0
O27 O 0.26702 0.26251 0.30787 0.0
H28 H 0.24309 0.23467 0.34065 0.0
H29 H 0.24521 0.20621 0.35524 0.0
H30 H 0.18497 0.2193 0.40096 0.0
H31 H 0.18369 0.24788 0.38664 0.0
H32 H 0.15973 0.33731 0.34664 0.0
H33 H 0.17904 0.31073 0.33516 0.0
H34 H 0.22844 0.3642 0.32049 0.0
H35 H 0.24715 0.33767 0.30859 0.0
H36 H 0.28215 0.29227 0.23917 0.0
H37 H 0.29679 0.23925 0.23135 0.0
H38 H 0.27484 0.23342 0.2649 0.0
H39 H 0.26057 0.28631 0.27286 0.0
C40 C 0.20966 0.81107 0.68129 0.0
C41 C 0.22018 0.82477 0.69265 0.0
C42 C 0.21007 0.84359 0.66336 0.0
C43 C 0.22038 0.84089 0.68378 0.0
C44 C 0.19946 0.82977 0.65208 0.0
C45 C 0.19929 0.81365 0.66098 0.0
U46 U 0.22844 0.78268 0.72657 0.0
O47 O 0.20685 0.76179 0.74198 0.0
O48 O 0.2465 0.75745 0.72756 0.0
C49 C 0.22524 0.75072 0.73684 0.0
C50 C 0.20993 0.79409 0.69051 0.0
C51 C 0.21486 0.73473 0.72815 0.0
C52 C 0.18038 0.71831 0.70939 0.0
C53 C 0.1909 0.73389 0.71591 0.0
C54 C 0.21815 0.70432 0.72665 0.0
C55 C 0.19367 0.7033 0.71496 0.0
C56 C 0.22857 0.71987 0.7332 0.0
C57 C 0.26359 0.8032 0.77385 0.0
C58 C 0.27987 0.78708 0.80386 0.0
C59 C 0.28521 0.8174 0.80333 0.0
C60 C 0.27251 0.81801 0.78361 0.0
C61 C 0.28924 0.80192 0.81363 0.0
C62 C 0.26715 0.78772 0.78411 0.0
C63 C 0.25095 0.8041 0.75291 0.0
O64 O 0.23426 0.7876 0.69296 0.0
O65 O 0.19448 0.79196 0.707 0.0
O66 O 0.22464 0.80092 0.75209 0.0
O67 O 0.26444 0.79676 0.73794 0.0
H68 H 0.22827 0.82299 0.70839 0.0
H69 H 0.22838 0.85125 0.69301 0.0
H70 H 0.1917 0.83136 0.63622 0.0
H71 H 0.19121 0.80319 0.65196 0.0
H72 H 0.16137 0.71802 0.70057 0.0
H73 H 0.18 0.74522 0.71178 0.0
H74 H 0.2292 0.69308 0.73089 0.0
H75 H 0.24715 0.72026 0.74257 0.0
H76 H 0.28292 0.77496 0.81127 0.0
H77 H 0.29182 0.82906 0.81053 0.0
H78 H 0.26977 0.83006 0.77592 0.0
H79 H 0.26035 0.77615 0.77674 0.0
C80 C 0.75276 0.80493 0.2752 0.0
C81 C 0.75712 0.79096 0.26242 0.0
C82 C 0.72429 0.80154 0.23668 0.0
C83 C 0.74311 0.78931 0.24329 0.0
C84 C 0.72014 0.81554 0.24958 0.0
C85 C 0.73428 0.81722 0.26864 0.0
U86 U 0.78917 0.78549 0.32228 0.0
O87 O 0.82502 0.79435 0.34027 0.0
O88 O 0.78575 0.79113 0.35587 0.0
C89 C 0.8108 0.79708 0.3572 0.0
C90 C 0.76668 0.80659 0.29564 0.0
C91 C 0.81337 0.81411 0.36591 0.0
C92 C 0.81103 0.84443 0.36151 0.0
C93 C 0.8093 0.82827 0.35307 0.0
C94 C 0.82076 0.83246 0.39577 0.0
C95 C 0.81668 0.84675 0.383 0.0
C96 C 0.81914 0.81631 0.38728 0.0
C97 C 0.798 0.73722 0.32162 0.0
C98 C 0.82447 0.7207 0.34658 0.0
C99 C 0.79928 0.70686 0.31855 0.0
C100 C 0.79 0.72242 0.31139 0.0
C101 C 0.8168 0.70579 0.33614 0.0
C102 C 0.81512 0.73631 0.33937 0.0
C103 C 0.78879 0.75338 0.31298 0.0
O104 O 0.75361 0.79996 0.31156 0.0
O105 O 0.79284 0.80324 0.29591 0.0
O106 O 0.80805 0.76393 0.30708 0.0
O107 O 0.76893 0.76066 0.32295 0.0
H108 H 0.77124 0.78128 0.2673 0.0
H109 H 0.74705 0.77847 0.23368 0.0
H110 H 0.70546 0.82504 0.24522 0.0
H111 H 0.73052 0.82801 0.2784 0.0
H112 H 0.8081 0.85511 0.35115 0.0
H113 H 0.80469 0.82682 0.33651 0.0
H114 H 0.82469 0.83373 0.41244 0.0
H115 H 0.8221 0.80551 0.39745 0.0
H116 H 0.8377 0.72032 0.36029 0.0
H117 H 0.79331 0.69571 0.30991 0.0
H118 H 0.77686 0.72291 0.29761 0.0
H119 H 0.82144 0.74765 0.34749 0.0
C120 C 0.78067 0.22524 0.71731 0.0
C121 C 0.79545 0.22651 0.69871 0.0
C122 C 0.79076 0.19624 0.69349 0.0
C123 C 0.80046 0.21212 0.68688 0.0
C124 C 0.77599 0.19514 0.7122 0.0
C125 C 0.77103 0.20949 0.72397 0.0
U126 U 0.78288 0.27277 0.72842 0.0
O127 O 0.75105 0.2886 0.74162 0.0
O128 O 0.79004 0.28565 0.7584 0.0
C129 C 0.76528 0.29172 0.75878 0.0
C130 C 0.77486 0.24009 0.73 0.0
C131 C 0.75067 0.28925 0.77848 0.0
C132 C 0.73165 0.27105 0.80537 0.0
C133 C 0.74579 0.2731 0.78662 0.0
C134 C 0.72717 0.30126 0.80791 0.0
C135 C 0.72213 0.28512 0.81623 0.0
C136 C 0.74133 0.30328 0.78922 0.0
C137 C 0.81486 0.30541 0.69351 0.0
C138 C 0.80786 0.33493 0.70107 0.0
C139 C 0.8439 0.32681 0.6778 0.0
C140 C 0.83646 0.30989 0.68043 0.0
C141 C 0.82981 0.33954 0.68822 0.0
C142 C 0.80055 0.31804 0.70376 0.0
C143 C 0.80821 0.28759 0.69737 0.0
O144 O 0.79612 0.24767 0.73862 0.0
O145 O 0.75706 0.25058 0.72188 0.0
O146 O 0.7821 0.28369 0.69666 0.0
O147 O 0.82106 0.28085 0.71351 0.0
H148 H 0.80308 0.2386 0.69335 0.0
H149 H 0.81211 0.21341 0.67266 0.0
H150 H 0.76781 0.1832 0.7176 0.0
H151 H 0.75947 0.20831 0.73826 0.0
H152 H 0.72835 0.25847 0.81144 0.0
H153 H 0.75291 0.26212 0.77848 0.0
H154 H 0.71975 0.31234 0.81564 0.0
H155 H 0.74484 0.31583 0.78306 0.0
H156 H 0.7963 0.34437 0.7091 0.0
H157 H 0.86116 0.32985 0.66804 0.0
H158 H 0.8479 0.3003 0.67256 0.0
H159 H 0.7839 0.31482 0.71406 0.0
C160 C 0.78289 0.72751 0.72014 0.0
C161 C 0.80702 0.72888 0.70869 0.0
C162 C 0.80577 0.69872 0.70198 0.0
C163 C 0.8184 0.71461 0.69974 0.0
C164 C 0.78119 0.69756 0.713 0.0
C165 C 0.76993 0.7118 0.72202 0.0
U166 U 0.76784 0.77468 0.72493 0.0
O167 O 0.73057 0.78687 0.73562 0.0
O168 O 0.76911 0.79067 0.75289 0.0
C169 C 0.74269 0.79313 0.75238 0.0
C170 C 0.77128 0.74208 0.73081 0.0
C171 C 0.72859 0.79012 0.77221 0.0
C172 C 0.71618 0.77186 0.80131 0.0
C173 C 0.72985 0.77448 0.78244 0.0
C174 C 0.69982 0.80046 0.79978 0.0
C175 C 0.7009 0.78481 0.81013 0.0
C176 C 0.71357 0.80307 0.781 0.0
C177 C 0.78987 0.80668 0.68403 0.0
C178 C 0.77379 0.83544 0.68483 0.0
C179 C 0.80779 0.82749 0.65972 0.0
C180 C 0.80722 0.81105 0.6676 0.0
C181 C 0.7909 0.83988 0.66811 0.0
C182 C 0.77332 0.819 0.69274 0.0
C183 C 0.78891 0.78925 0.6918 0.0
O184 O 0.78884 0.75298 0.7388 0.0
O185 O 0.75044 0.74919 0.72129 0.0
O186 O 0.76456 0.78219 0.69179 0.0
O187 O 0.80295 0.78635 0.70911 0.0
H188 H 0.81733 0.7409 0.70697 0.0
H189 H 0.83749 0.71598 0.69158 0.0
H190 H 0.77064 0.68561 0.71473 0.0
H191 H 0.7512 0.71051 0.73069 0.0
H192 H 0.71717 0.75963 0.8088 0.0
H193 H 0.74131 0.76431 0.77579 0.0
H194 H 0.68853 0.81074 0.80631 0.0
H195 H 0.71247 0.81523 0.77333 0.0
H196 H 0.7603 0.84457 0.69153 0.0
H197 H 0.82156 0.8305 0.6471 0.0
H198 H 0.82026 0.80172 0.66078 0.0
H199 H 0.75981 0.81584 0.7055 0.0
C200 C 0.73266 0.25585 0.28079 0.0
C201 C 0.74403 0.26589 0.26487 0.0
C202 C 0.70581 0.25907 0.24158 0.0
C203 C 0.73079 0.2674 0.24539 0.0
C204 C 0.6944 0.24918 0.25762 0.0
C205 C 0.70775 0.24754 0.27699 0.0
U206 U 0.77141 0.27295 0.32887 0.0
O207 O 0.76724 0.26625 0.36216 0.0
O208 O 0.80596 0.26202 0.3464 0.0
C209 C 0.79144 0.25938 0.36327 0.0
C210 C 0.74641 0.25366 0.30131 0.0
C211 C 0.79186 0.24209 0.37155 0.0
C212 C 0.77548 0.21315 0.37069 0.0
C213 C 0.7753 0.2295 0.36253 0.0
C214 C 0.80914 0.22172 0.39676 0.0
C215 C 0.79232 0.20905 0.38799 0.0
C216 C 0.80886 0.23808 0.38862 0.0
C217 C 0.78698 0.32052 0.33172 0.0
C218 C 0.82134 0.33457 0.35338 0.0
C219 C 0.78627 0.35083 0.33587 0.0
C220 C 0.77504 0.33609 0.32745 0.0
C221 C 0.80979 0.3503 0.34872 0.0
C222 C 0.81 0.3198 0.34498 0.0
C223 C 0.77551 0.30539 0.32157 0.0
O224 O 0.77295 0.25609 0.3018 0.0
O225 O 0.73404 0.26022 0.3174 0.0
O226 O 0.75443 0.29838 0.33077 0.0
O227 O 0.79316 0.29442 0.31484 0.0
H228 H 0.76315 0.27254 0.26745 0.0
H229 H 0.73991 0.27525 0.2334 0.0
H230 H 0.67532 0.24248 0.25507 0.0
H231 H 0.69867 0.23971 0.28903 0.0
H232 H 0.76204 0.2038 0.36369 0.0
H233 H 0.76207 0.23238 0.34928 0.0
H234 H 0.82269 0.21897 0.40984 0.0
H235 H 0.82191 0.24761 0.39568 0.0
H236 H 0.83959 0.33368 0.36303 0.0
H237 H 0.77654 0.36266 0.33225 0.0
H238 H 0.75716 0.33689 0.31735 0.0
H239 H 0.81949 0.30788 0.34853 0.0
C240 C 0.19786 0.24138 0.67807 0.0
C241 C 0.21674 0.22933 0.68486 0.0
C242 C 0.19564 0.20848 0.66182 0.0
C243 C 0.21572 0.21305 0.67674 0.0
C244 C 0.17653 0.22055 0.6553 0.0
C245 C 0.17769 0.23687 0.66333 0.0
U246 U 0.22112 0.27184 0.72023 0.0
O247 O 0.23807 0.29746 0.71828 0.0
O248 O 0.20008 0.2928 0.73524 0.0
C249 C 0.21745 0.30407 0.7281 0.0
C250 C 0.19891 0.25857 0.68645 0.0
C251 C 0.20547 0.31925 0.71853 0.0
C252 C 0.19421 0.33671 0.68825 0.0
C253 C 0.20482 0.32184 0.69673 0.0
C254 C 0.18439 0.3464 0.72321 0.0
C255 C 0.18396 0.34923 0.70141 0.0
C256 C 0.1951 0.3316 0.73165 0.0
C257 C 0.26241 0.25411 0.76663 0.0
C258 C 0.26986 0.2678 0.80023 0.0
C259 C 0.29818 0.24451 0.79032 0.0
C260 C 0.2838 0.24316 0.77134 0.0
C261 C 0.29134 0.25682 0.805 0.0
C262 C 0.25558 0.26652 0.78113 0.0
C263 C 0.24748 0.25224 0.7466 0.0
O264 O 0.18547 0.26077 0.70386 0.0
O265 O 0.22315 0.26579 0.68672 0.0
O266 O 0.25896 0.25933 0.73024 0.0
O267 O 0.22103 0.25453 0.74719 0.0
H268 H 0.2323 0.23253 0.69642 0.0
H269 H 0.23051 0.204 0.68228 0.0
H270 H 0.16099 0.21746 0.64368 0.0
H271 H 0.1629 0.24599 0.65796 0.0
H272 H 0.19441 0.3385 0.67141 0.0
H273 H 0.2127 0.31245 0.68627 0.0
H274 H 0.17618 0.35555 0.73382 0.0
H275 H 0.19533 0.32982 0.7485 0.0
H276 H 0.26433 0.27752 0.81113 0.0
H277 H 0.31442 0.23575 0.79363 0.0
H278 H 0.28932 0.2335 0.76035 0.0
H279 H 0.23924 0.27518 0.77772 0.0
C280 C 0.18993 0.74866 0.35989 0.0
C281 C 0.20294 0.73507 0.35049 0.0
C282 C 0.17251 0.71537 0.36817 0.0
C283 C 0.1944 0.71858 0.35468 0.0
C284 C 0.15971 0.72904 0.37768 0.0
C285 C 0.16839 0.74553 0.37359 0.0
U286 U 0.2245 0.77937 0.32323 0.0
O287 O 0.21263 0.80444 0.31192 0.0
O288 O 0.25123 0.80126 0.32918 0.0
C289 C 0.23398 0.81187 0.32059 0.0
C290 C 0.19797 0.76606 0.35475 0.0
C291 C 0.22839 0.82696 0.33291 0.0
C292 C 0.20875 0.84058 0.36305 0.0
C293 C 0.21359 0.82601 0.35153 0.0
C294 C 0.23338 0.85712 0.33738 0.0
C295 C 0.21862 0.85633 0.35611 0.0
C296 C 0.23819 0.84258 0.32591 0.0
C297 C 0.25672 0.76089 0.27417 0.0
C298 C 0.27636 0.77779 0.24623 0.0
C299 C 0.28082 0.7475 0.24598 0.0
C300 C 0.26623 0.74636 0.26458 0.0
C301 C 0.28613 0.76322 0.2366 0.0
C302 C 0.26183 0.77663 0.26492 0.0
C303 C 0.24166 0.75931 0.29382 0.0
O304 O 0.2243 0.76927 0.3554 0.0
O305 O 0.18574 0.77244 0.33811 0.0
O306 O 0.21722 0.76586 0.2937 0.0
O307 O 0.25577 0.76261 0.31099 0.0
H308 H 0.21946 0.73725 0.33968 0.0
H309 H 0.20444 0.70836 0.34689 0.0
H310 H 0.14295 0.72697 0.38828 0.0
H311 H 0.15806 0.75586 0.38092 0.0
H312 H 0.19708 0.83953 0.37728 0.0
H313 H 0.20583 0.81403 0.35714 0.0
H314 H 0.24165 0.86896 0.33173 0.0
H315 H 0.24974 0.84352 0.31159 0.0
H316 H 0.28038 0.79008 0.23952 0.0
H317 H 0.28774 0.73603 0.23884 0.0
H318 H 0.26239 0.73411 0.27151 0.0
H319 H 0.25469 0.788 0.2722 0.0
H320 H 0.00294 0.46946 0.38877 0.0
H321 H 0.95838 0.51529 0.38975 0.0
H322 H 0.04451 0.51581 0.37556 0.0
H323 H 0.04342 0.54101 0.39073 0.0
H324 H 7e-05 0.586 0.3761 0.0
H325 H 0.95874 0.5386 0.37037 0.0
C326 C 0.0027 0.48306 0.3876 0.0
C327 C 0.02671 0.49179 0.38279 0.0
C328 C 0.97803 0.49144 0.38957 0.0
C329 C 0.97752 0.509 0.38747 0.0
C330 C 0.00154 0.51826 0.38282 0.0
C331 C 0.02598 0.50931 0.38001 0.0
C332 C 0.00113 0.5371 0.38084 0.0
C333 C 0.02479 0.54688 0.38538 0.0
C334 C 0.0244 0.56447 0.38365 0.0
C335 C 0.00036 0.5724 0.37746 0.0
C336 C 0.97671 0.56314 0.37288 0.0
C337 C 0.97708 0.54555 0.37454 0.0
H338 H 0.00317 0.58529 0.65902 0.0
H339 H 0.04455 0.53881 0.6684 0.0
H340 H 0.95812 0.53931 0.65299 0.0
H341 H 0.9578 0.51437 0.66738 0.0
H342 H -0.00156 0.46836 0.65539 0.0
H343 H 0.04397 0.51443 0.65278 0.0
C344 C 0.00278 0.57165 0.65901 0.0
C345 C 0.978 0.56316 0.65602 0.0
C346 C 0.02679 0.56291 0.66316 0.0
C347 C 0.02594 0.54527 0.66437 0.0
C348 C 0.00138 0.53622 0.66032 0.0
C349 C 0.97738 0.54553 0.65631 0.0
C350 C 0.00085 0.51727 0.6598 0.0
C351 C 0.97631 0.5081 0.66309 0.0
C352 C 0.97531 0.49059 0.66073 0.0
C353 C -0.0009 0.48198 0.65628 0.0
C354 C 0.02395 0.49049 0.65408 0.0
C355 C 0.02473 0.5081 0.65549 0.0
H356 H 0.22393 0.08441 0.52103 0.0
H357 H 0.19919 0.03903 0.55172 0.0
H358 H 0.22186 0.0387 0.48617 0.0
H359 H 0.19746 1.01585 0.48465 0.0
H360 H 0.19279 0.9687 0.51699 0.0
H361 H 0.21275 1.01293 0.55175 0.0
C362 C 0.22074 0.07091 0.52048 0.0
C363 C 0.22319 0.06248 0.50146 0.0
C364 C 0.21257 0.06242 0.53859 0.0
C365 C 0.20668 0.04513 0.53771 0.0
C366 C 0.21037 0.03598 0.51897 0.0
C367 C 0.21861 0.04502 0.50085 0.0
C368 C 0.20545 1.01723 0.51834 0.0
C369 C 0.19931 1.00891 0.49921 0.0
C370 C 0.19504 0.99142 0.49861 0.0
C371 C 0.19567 0.98223 0.51735 0.0
C372 C 0.20145 0.99001 0.5365 0.0
C373 C 0.20709 1.00735 0.53689 0.0
H374 H 0.50044 0.77932 0.10052 0.0
H375 H 0.54287 0.79054 0.04386 0.0
H376 H 0.45853 0.77404 0.04153 0.0
H377 H 0.45797 0.7912 1.01349 0.0
H378 H 0.50095 0.79105 0.95551 0.0
H379 H 0.54318 0.77781 1.01229 0.0
C380 C 0.50055 0.78006 0.08354 0.0
C381 C 0.4767 0.77632 0.07214 0.0
C382 C 0.52446 0.78497 0.07339 0.0
C383 C 0.5245 0.78614 0.05144 0.0
C384 C 0.50074 0.7824 0.0395 0.0
C385 C 0.47692 0.77737 0.05017 0.0
C386 C 0.50061 0.78429 1.0161 0.0
C387 C 0.4766 0.78895 1.00515 0.0
C388 C 0.47653 0.79125 0.98331 0.0
C389 C 0.50083 0.7894 0.9724 0.0
C390 C 0.52484 0.78477 0.98284 0.0
C391 C 0.52458 0.78184 1.00454 0.0
H392 H 0.78534 0.08353 0.53091 0.0
H393 H 0.80369 0.03769 0.56317 0.0
H394 H 0.78851 0.0379 0.49599 0.0
H395 H 0.8133 1.01498 0.49689 0.0
H396 H 0.80562 0.96741 0.52796 0.0
H397 H 0.78605 1.012 0.56127 0.0
C398 C 0.78797 0.07002 0.53053 0.0
C399 C 0.78688 0.06167 0.51132 0.0
C400 C 0.79358 0.06138 0.54921 0.0
C401 C 0.79847 0.04404 0.54864 0.0
C402 C 0.79634 0.03505 0.52956 0.0
C403 C 0.79065 0.04421 0.5109 0.0
C404 C 0.7995 1.01625 0.5292 0.0
C405 C 0.80793 1.00795 0.51082 0.0
C406 C 0.81006 0.99037 0.51036 0.0
C407 C 0.80408 0.98099 0.52832 0.0
C408 C 0.79576 0.98877 0.54668 0.0
C409 C 0.79344 1.00632 0.54711 0.0
H410 H 0.50177 0.27324 0.09451 0.0
H411 H 0.54368 0.26181 0.03815 0.0
H412 H 0.45942 0.27755 0.03567 0.0
H413 H 0.45814 0.26236 1.00686 0.0
H414 H 0.50176 0.26286 0.94928 0.0
H415 H 0.5448 0.27323 1.00662 0.0
C416 C 0.50178 0.27231 0.07755 0.0
C417 C 0.47791 0.27563 0.06613 0.0
C418 C 0.52554 0.26758 0.06745 0.0
C419 C 0.52538 0.26615 0.04554 0.0
C420 C 0.50163 0.26964 0.03352 0.0
C421 C 0.47791 0.27445 0.0442 0.0
C422 C 0.50152 0.26798 1.01006 0.0
C423 C 0.47717 0.26426 0.9988 0.0
C424 C 0.47717 0.26252 0.97691 0.0
C425 C 0.50178 0.26396 0.96622 0.0
C426 C 0.52624 0.26749 0.97692 0.0
C427 C 0.5259 0.26992 0.99869 0.0
H428 H 0.16555 0.36107 0.3703 0.0
H429 H 0.14308 0.38756 0.37829 0.0
H430 H 0.16891 0.40824 0.3191 0.0
H431 H 0.19066 0.38173 0.31069 0.0
H432 H 0.16482 0.4212 0.38048 0.0
H433 H 0.0857 0.41409 0.3178 0.0
H434 H 0.1066 0.39685 0.3266 0.0
H435 H 0.12029 0.4126 0.30928 0.0
C436 C 0.16632 0.37122 0.35893 0.0
C437 C 0.17982 0.36923 0.33981 0.0
C438 C 0.15366 0.38639 0.36359 0.0
C439 C 0.15409 0.39979 0.34918 0.0
C440 C 0.16805 0.39799 0.33032 0.0
H441 H 0.061 0.49293 0.34932 0.0
H442 H 0.09674 0.47272 0.34127 0.0
C443 C 0.1807 0.38286 0.32565 0.0
C444 C 0.13933 0.41549 0.35366 0.0
H445 H 0.0854 0.4391 0.33726 0.0
C446 C 0.14751 0.42517 0.371 0.0
C447 C 0.11688 0.42068 0.34118 0.0
C448 C 0.10662 0.41048 0.32277 0.0
C449 C 0.13368 0.43988 0.37629 0.0
C450 C 0.1108 0.44484 0.36412 0.0
C451 C 0.10306 0.43536 0.34648 0.0
C452 C 0.09294 0.45882 0.37038 0.0
C453 C 0.14372 0.44997 0.39484 0.0
C454 C 0.07942 0.45796 0.38959 0.0
C455 C 0.05918 0.46947 0.3942 0.0
C456 C 0.05188 0.48203 0.37964 0.0
C457 C 0.06643 0.48349 0.3609 0.0
C458 C 0.0867 0.4719 0.35625 0.0
H459 H 0.16577 0.44795 0.39794 0.0
H460 H 0.14028 0.46361 0.39239 0.0
H461 H 0.13252 0.44587 0.40901 0.0
H462 H 0.08343 0.44782 0.40056 0.0
H463 H 0.04829 0.46808 0.40877 0.0
H464 H 0.16787 0.6941 0.67819 0.0
H465 H 0.14567 0.66718 0.67006 0.0
H466 H 0.17055 0.64769 0.73047 0.0
H467 H 0.19186 0.6747 0.73907 0.0
H468 H 0.16647 0.63419 0.66866 0.0
H469 H 0.08795 0.6403 0.73001 0.0
H470 H 0.10913 0.65774 0.7218 0.0
H471 H 0.12257 0.64201 0.73929 0.0
C472 C 0.16847 0.68414 0.68982 0.0
C473 C 0.18151 0.68665 0.70936 0.0
C474 C 0.15597 0.66871 0.68507 0.0
C475 C 0.15614 0.65551 0.69977 0.0
C476 C 0.1698 0.65779 0.71902 0.0
H477 H 0.06174 0.56128 0.69695 0.0
H478 H 0.09813 0.58158 0.70597 0.0
C479 C 0.18225 0.6732 0.72381 0.0
C480 C 0.14137 0.63955 0.69515 0.0
H481 H 0.08733 0.6153 0.71054 0.0
C482 C 0.14925 0.63 0.67787 0.0
C483 C 0.11899 0.63405 0.70725 0.0
C484 C 0.10893 0.6441 0.72552 0.0
C485 C 0.13514 0.6152 0.67224 0.0
C486 C 0.11233 0.60996 0.68401 0.0
C487 C 0.10496 0.61925 0.70163 0.0
C488 C 0.09404 0.59598 0.67721 0.0
C489 C 0.14474 0.60534 0.65369 0.0
C490 C 0.08012 0.59712 0.6579 0.0
C491 C 0.0595 0.5856 0.65278 0.0
C492 C 0.05225 0.57272 0.66689 0.0
C493 C 0.06715 0.57098 0.68572 0.0
C494 C 0.08778 0.58261 0.69091 0.0
H495 H 0.16677 0.60758 0.65089 0.0
H496 H 0.14115 0.59165 0.65596 0.0
H497 H 0.13335 0.60943 0.63944 0.0
H498 H 0.08414 0.60749 0.64727 0.0
H499 H 0.04827 0.58722 0.63817 0.0
H500 H 0.79 0.67533 0.33779 0.0
H501 H 0.80931 0.64779 0.34587 0.0
H502 H 0.88772 0.67108 0.35761 0.0
H503 H 0.86874 0.6986 0.34933 0.0
H504 H 0.8512 0.63242 0.32484 0.0
H505 H 0.87857 0.64034 0.40869 0.0
H506 H 0.85534 0.65417 0.395 0.0
H507 H 0.89157 0.65708 0.39256 0.0
C508 C 0.81134 0.67461 0.34216 0.0
C509 C 0.82782 0.68921 0.34288 0.0
C510 C 0.8223 0.65886 0.34687 0.0
C511 C 0.84986 0.65739 0.3526 0.0
C512 C 0.86624 0.67195 0.3537 0.0
H513 H 0.97064 0.58464 0.34011 0.0
H514 H 0.93431 0.60499 0.33473 0.0
C515 C 0.85534 0.6877 0.34897 0.0
C516 C 0.86208 0.64061 0.35601 0.0
H517 H 0.90096 0.61808 0.39064 0.0
C518 C 0.8617 0.62916 0.33935 0.0
C519 C 0.87536 0.63621 0.37505 0.0
C520 C 0.87503 0.64752 0.39393 0.0
C521 C 0.87568 0.61389 0.3408 0.0
C522 C 0.89065 0.61007 0.35929 0.0
C523 C 0.88963 0.62105 0.3764 0.0
C524 C 0.90987 0.59583 0.36046 0.0
C525 C 0.87476 0.60213 0.32235 0.0
C526 C 0.90806 0.58371 0.37653 0.0
C527 C 0.92884 0.57198 0.37955 0.0
C528 C 0.95186 0.57241 0.36674 0.0
C529 C 0.95294 0.58398 0.35006 0.0
C530 C 0.93215 0.59557 0.34695 0.0
H531 H 0.85594 0.6039 0.31274 0.0
H532 H 0.89245 0.60483 0.31218 0.0
H533 H 0.87574 0.5888 0.32753 0.0
H534 H 0.89114 0.58378 0.38724 0.0
H535 H 0.9278 0.56332 0.3927 0.0
H536 H 0.84759 0.35628 0.6531 0.0
H537 H 0.86464 0.38521 0.6506 0.0
H538 H 0.84774 0.39263 0.716 0.0
H539 H 0.8318 0.36354 0.71891 0.0
H540 H 0.84028 0.41618 0.65863 0.0
H541 H 0.92835 0.40487 0.71248 0.0
H542 H 0.90799 0.38796 0.7016 0.0
H543 H 0.89557 0.39993 0.72319 0.0
C544 C 0.84769 0.364 0.66701 0.0
C545 C 0.83855 0.35748 0.68626 0.0
C546 C 0.85719 0.3806 0.6655 0.0
C547 C 0.85781 0.391 0.68318 0.0
C548 C 0.84786 0.38474 0.70223 0.0
H549 H 0.94421 0.48753 0.69574 0.0
H550 H 0.90959 0.46561 0.70237 0.0
C551 C 0.83847 0.36813 0.7038 0.0
C552 C 0.86983 0.40816 0.68177 0.0
H553 H 0.9235 0.43223 0.69908 0.0
C554 C 0.85836 0.41975 0.66759 0.0
C555 C 0.89335 0.41283 0.69354 0.0
C556 C 0.90723 0.40074 0.70844 0.0
C557 C 0.87009 0.43576 0.66457 0.0
C558 C 0.89409 0.4402 0.67585 0.0
C559 C 0.90496 0.42885 0.69058 0.0
C560 C 0.91024 0.45557 0.67092 0.0
C561 C 0.85685 0.4477 0.64919 0.0
C562 C 0.92149 0.45748 0.65094 0.0
C563 C 0.94114 0.4699 0.6472 0.0
C564 C 0.94992 0.48066 0.66336 0.0
C565 C 0.93744 0.47952 0.68298 0.0
C566 C 0.91783 0.46697 0.68678 0.0
H567 H 0.8347 0.44497 0.64737 0.0
H568 H 0.85967 0.46096 0.65416 0.0
H569 H 0.86628 0.44623 0.63361 0.0
H570 H 0.91647 0.44864 0.6386 0.0
H571 H 0.95072 0.47046 0.63201 0.0
H572 H 0.22001 0.18038 0.35866 0.0
H573 H 0.22264 0.15212 0.37397 0.0
H574 H 0.21641 0.17302 0.43585 0.0
H575 H 0.21438 0.20127 0.42082 0.0
H576 H 0.26118 0.13922 0.40465 0.0
H577 H 0.15475 0.1369 0.43257 0.0
H578 H 0.16625 0.15186 0.41311 0.0
H579 H 0.1734 0.15542 0.44045 0.0
C580 C 0.21943 0.179 0.37555 0.0
C581 C 0.2168 0.19315 0.38849 0.0
C582 C 0.2208 0.16282 0.38424 0.0
C583 C 0.21934 0.16047 0.406 0.0
C584 C 0.21704 0.17454 0.41897 0.0
H585 H 0.26263 0.08636 0.4953 0.0
H586 H 0.2631 0.10791 0.46788 0.0
C587 C 0.21578 0.19069 0.41033 0.0
C588 C 0.22042 0.14338 0.41535 0.0
H589 H 0.18491 0.11631 0.4467 0.0
C590 C 0.2444 0.13407 0.41362 0.0
C591 C 0.19835 0.13657 0.42673 0.0
C592 C 0.17161 0.14561 0.4282 0.0
C593 C 0.24738 0.11852 0.42394 0.0
C594 C 0.2259 0.11222 0.43641 0.0
C595 C 0.20144 0.12114 0.43721 0.0
C596 C 0.22902 0.09732 0.45034 0.0
C597 C 0.27359 0.10908 0.4216 0.0
C598 C 0.2101 0.08395 0.44942 0.0
C599 C 0.20977 0.0716 0.46516 0.0
C600 C 0.22816 0.07257 0.48221 0.0
C601 C 0.24824 0.08531 0.48232 0.0
C602 C 0.24862 0.09759 0.46658 0.0
H603 H 0.28375 0.11241 0.40666 0.0
H604 H 0.28773 0.1125 0.43466 0.0
H605 H 0.27001 0.09529 0.42211 0.0
H606 H 0.19469 0.08355 0.4371 0.0
H607 H 0.19389 0.06204 0.4648 0.0
H608 H 0.33469 0.81974 0.82561 0.0
H609 H 0.35945 0.81832 0.85903 0.0
H610 H 0.30206 0.78122 0.88159 0.0
H611 H 0.27698 0.78262 0.84813 0.0
H612 H 0.3414 0.82415 0.90035 0.0
H613 H 0.37634 0.7585 0.88964 0.0
H614 H 0.36226 0.77081 0.86834 0.0
H615 H 0.34022 0.76172 0.88767 0.0
C616 C 0.32712 0.8114 0.83774 0.0
C617 C 0.30388 0.80126 0.83417 0.0
C618 C 0.34135 0.81057 0.85681 0.0
C619 C 0.33274 0.79955 0.87269 0.0
C620 C 0.3093 0.78961 0.86939 0.0
H621 H 0.42711 0.77537 0.98655 0.0
H622 H 0.38761 0.77825 0.96283 0.0
C623 C 0.29504 0.7904 0.85026 0.0
C624 C 0.34884 0.79836 0.89245 0.0
H625 H 0.39104 0.77239 0.92019 0.0
C626 C 0.35205 0.81279 0.90482 0.0
C627 C 0.36257 0.78349 0.8983 0.0
C628 C 0.36044 0.76775 0.88527 0.0
C629 C 0.36922 0.81287 0.92261 0.0
C630 C 0.38385 0.79823 0.92794 0.0
C631 C 0.37973 0.78359 0.91609 0.0
C632 C 0.40562 0.79822 0.94428 0.0
C633 C 0.37181 0.8287 0.93538 0.0
C634 C 0.42858 0.80868 0.94191 0.0
C635 C 0.45105 0.80707 0.95539 0.0
C636 C 0.45105 0.7949 0.97144 0.0
C637 C 0.42754 0.78497 0.97444 0.0
C638 C 0.40506 0.78654 0.96085 0.0
H639 H 0.35335 0.83656 0.93366 0.0
H640 H 0.37518 0.82579 0.95226 0.0
H641 H 0.38945 0.83622 0.92976 0.0
H642 H 0.4297 0.81756 0.929 0.0
H643 H 0.46885 0.81494 0.95278 0.0
H644 H 0.8519 0.85893 0.41323 0.0
H645 H 0.85217 0.88667 0.42945 0.0
H646 H 0.78542 0.9016 0.38911 0.0
H647 H 0.78416 0.87367 0.37344 0.0
H648 H 0.8593 0.91877 0.41269 0.0
H649 H 0.75647 0.91125 0.44714 0.0
H650 H 0.77462 0.89385 0.43626 0.0
H651 H 0.75756 0.90857 0.41925 0.0
C652 C 0.83707 0.86803 0.40793 0.0
C653 C 0.81782 0.86395 0.39215 0.0
C654 C 0.83743 0.88396 0.41709 0.0
C655 C 0.81857 0.89614 0.41071 0.0
C656 C 0.79986 0.89231 0.39455 0.0
H657 H 0.78401 0.99149 0.47232 0.0
H658 H 0.78793 0.97094 0.44397 0.0
C659 C 0.79939 0.87637 0.38543 0.0
C660 C 0.81813 0.91266 0.42141 0.0
H661 H 0.77904 0.9371 0.45255 0.0
C662 C 0.84169 0.92284 0.42129 0.0
C663 C 0.7951 0.91799 0.43258 0.0
C664 C 0.76956 0.90731 0.43403 0.0
C665 C 0.84299 0.93808 0.43231 0.0
C666 C 0.82024 0.94316 0.44393 0.0
C667 C 0.79639 0.93325 0.44348 0.0
C668 C 0.8215 0.95762 0.45851 0.0
C669 C 0.86877 0.94854 0.43154 0.0
C670 C 0.83957 0.95726 0.47575 0.0
C671 C 0.83735 0.96894 0.49185 0.0
C672 C 0.81699 0.98119 0.49105 0.0
C673 C 0.80011 0.9823 0.47315 0.0
C674 C 0.80222 0.97051 0.45706 0.0
H675 H 0.88041 0.946 0.41711 0.0
H676 H 0.86429 0.96216 0.43217 0.0
H677 H 0.88194 0.94531 0.44522 0.0
H678 H 0.85423 0.94727 0.47746 0.0
H679 H 0.85046 0.96776 0.50558 0.0
H680 H 0.68294 0.26144 0.82504 0.0
H681 H 0.65559 0.25893 0.85667 0.0
H682 H 0.69797 0.30163 0.88335 0.0
H683 H 0.72577 0.3041 0.85191 0.0
H684 H 0.67288 0.25536 0.90045 0.0
H685 H 0.61582 0.31417 0.88401 0.0
H686 H 0.63505 0.30368 0.86416 0.0
H687 H 0.65239 0.31575 0.88403 0.0
C688 C 0.68676 0.27016 0.83774 0.0
C689 C 0.70645 0.28304 0.83587 0.0
C690 C 0.67103 0.26874 0.85576 0.0
C691 C 0.67457 0.28022 0.87219 0.0
C692 C 0.69465 0.29282 0.87067 0.0
H693 H 0.56637 0.29175 0.97944 0.0
H694 H 0.60634 0.29484 0.95696 0.0
C695 C 0.71044 0.29424 0.85267 0.0
C696 C 0.65666 0.27919 0.89062 0.0
H697 H 0.60401 0.29889 0.91422 0.0
C698 C 0.65795 0.26492 0.9036 0.0
C699 C 0.63739 0.29177 0.89474 0.0
C700 C 0.6348 0.30718 0.88098 0.0
C701 C 0.64007 0.26274 0.9204 0.0
C702 C 0.62003 0.27498 0.92399 0.0
C703 C 0.61942 0.28954 0.91147 0.0
C704 C 0.59788 0.27224 0.93922 0.0
C705 C 0.64272 0.24729 0.93406 0.0
C706 C 0.58003 0.25848 0.93677 0.0
C707 C 0.55739 0.25668 0.94957 0.0
C708 C 0.55192 0.26868 0.96497 0.0
C709 C 0.57021 0.28223 0.96783 0.0
C710 C 0.59294 0.28404 0.95496 0.0
H711 H 0.66384 0.24242 0.934 0.0
H712 H 0.63703 0.24991 0.95049 0.0
H713 H 0.62898 0.23726 0.92789 0.0
H714 H 0.58307 0.24942 0.92446 0.0
H715 H 0.54378 0.24604 0.94711 0.0
H716 H 0.17036 0.85858 0.63939 0.0
H717 H 0.17172 0.88639 0.62287 0.0
H718 H 0.25155 0.89549 0.64977 0.0
H719 H 0.25075 0.86748 0.66583 0.0
H720 H 0.17841 0.91857 0.64144 0.0
H721 H 0.26237 0.9043 0.58686 0.0
H722 H 0.24392 0.88806 0.60075 0.0
H723 H 0.26937 0.90048 0.61419 0.0
C724 C 0.18834 0.86642 0.64164 0.0
C725 C 0.21054 0.86072 0.65381 0.0
C726 C 0.18898 0.88237 0.63234 0.0
C727 C 0.21186 0.89293 0.63491 0.0
C728 C 0.23385 0.88745 0.64735 0.0
H729 H 0.24288 0.98696 0.5655 0.0
H730 H 0.24656 0.96556 0.59338 0.0
C731 C 0.23323 0.87149 0.65668 0.0
C732 C 0.21266 0.90955 0.62425 0.0
H733 H 0.24418 0.93144 0.58509 0.0
C734 C 0.19293 0.92145 0.62923 0.0
C735 C 0.23176 0.91334 0.60845 0.0
C736 C 0.25297 0.90087 0.60206 0.0
C737 C 0.19139 0.93689 0.6185 0.0
C738 C 0.20976 0.94038 0.60212 0.0
C739 C 0.23018 0.92878 0.59772 0.0
C740 C 0.2063 0.95499 0.58776 0.0
C741 C 0.1699 0.94923 0.62467 0.0
C742 C 0.18235 0.95631 0.57564 0.0
C743 C 0.18026 0.96844 0.55984 0.0
C744 C 0.20212 0.97948 0.55575 0.0
C745 C 0.22564 0.97872 0.56851 0.0
C746 C 0.2278 0.96646 0.58432 0.0
H747 H 0.16407 0.94748 0.64131 0.0
H748 H 0.17702 0.9624 0.62235 0.0
H749 H 0.15138 0.94716 0.61481 0.0
H750 H 0.16573 0.94741 0.57767 0.0
H751 H 0.16194 0.96875 0.55018 0.0
H752 H 0.70229 0.77253 0.22045 0.0
H753 H 0.67387 0.76935 0.18899 0.0
H754 H 0.68013 0.82266 0.17718 0.0
H755 H 0.70972 0.82584 0.20803 0.0
H756 H 0.62508 0.78283 0.183 0.0
H757 H 0.69269 0.8044 0.1193 0.0
H758 H 0.70534 0.79937 0.14528 0.0
H759 H 0.69038 0.81951 0.13993 0.0
C760 C 0.69826 0.78353 0.21088 0.0
C761 C 0.70835 0.79945 0.21682 0.0
C762 C 0.68185 0.7817 0.19295 0.0
C763 C 0.67514 0.79573 0.18055 0.0
C764 C 0.6855 0.81159 0.18622 0.0
H765 H 0.52869 0.80603 0.10668 0.0
H766 H 0.56711 0.80899 0.13126 0.0
C767 C 0.70208 0.81342 0.20408 0.0
C768 C 0.65531 0.79398 0.1629 0.0
H769 H 0.64485 0.80285 0.11092 0.0
C770 C 0.62955 0.78706 0.1672 0.0
C771 C 0.6612 0.79932 0.14222 0.0
C772 C 0.689 0.8059 0.13633 0.0
C773 C 0.60928 0.78579 0.1516 0.0
C774 C 0.61466 0.79197 0.13121 0.0
C775 C 0.64067 0.79838 0.12665 0.0
C776 C 0.59318 0.79202 0.11467 0.0
C777 C 0.58227 0.77776 0.15709 0.0
C778 C 0.59572 0.78225 0.09657 0.0
C779 C 0.57384 0.78067 0.08235 0.0
C780 C 0.54917 0.78881 0.08615 0.0
C781 C 0.54737 0.79942 0.10358 0.0
C782 C 0.56923 0.80108 0.11764 0.0
H783 H 0.58401 0.76963 0.17126 0.0
H784 H 0.56739 0.78775 0.16043 0.0
H785 H 0.57408 0.77008 0.14392 0.0
H786 H 0.61414 0.77525 0.09395 0.0
H787 H 0.57568 0.77241 0.06904 0.0
H788 H 0.80364 0.16462 0.70755 0.0
H789 H 0.80864 0.13912 0.68682 0.0
H790 H 0.79347 0.16751 0.63016 0.0
H791 H 0.78813 0.19302 0.65074 0.0
H792 H 0.76984 0.12422 0.66073 0.0
H793 H 0.86213 0.14145 0.61614 0.0
H794 H 0.85205 0.15261 0.63928 0.0
H795 H 0.83607 0.15704 0.61433 0.0
C796 C 0.80136 0.16546 0.69067 0.0
C797 C 0.79546 0.18091 0.68083 0.0
C798 C 0.80438 0.15087 0.67885 0.0
C799 C 0.8018 0.15144 0.65693 0.0
C800 C 0.79618 0.16685 0.64702 0.0
H801 H 0.75419 0.08141 0.56414 0.0
H802 H 0.75776 0.10106 0.59332 0.0
C803 C 0.79313 0.18143 0.65883 0.0
C804 C 0.8034 0.1358 0.64446 0.0
H805 H 0.8353 0.1184 0.60278 0.0
C806 C 0.7844 0.12284 0.64824 0.0
C807 C 0.82268 0.13387 0.62841 0.0
C808 C 0.84458 0.1469 0.62441 0.0
C809 C 0.78325 0.10842 0.63568 0.0
C810 C 0.80137 0.10701 0.61876 0.0
C811 C 0.8213 0.11954 0.61568 0.0
C812 C 0.79831 0.09354 0.60289 0.0
C813 C 0.76235 0.09494 0.64041 0.0
C814 C 0.81989 0.08269 0.5986 0.0
C815 C 0.81783 0.07136 0.58189 0.0
C816 C 0.79434 0.07097 0.56905 0.0
C817 C 0.77248 0.08145 0.57385 0.0
C818 C 0.77445 0.09261 0.59058 0.0
H819 H 0.75625 0.09522 0.65711 0.0
H820 H 0.74385 0.09709 0.63061 0.0
H821 H 0.77018 0.08226 0.63683 0.0
H822 H 0.83856 0.08331 0.60783 0.0
H823 H 0.83505 0.06354 0.57834 0.0
H824 H 0.32822 0.29137 0.22506 0.0
H825 H 0.35466 0.29618 0.19336 0.0
H826 H 0.31457 0.25382 0.16394 0.0
H827 H 0.28754 0.24913 0.19546 0.0
H828 H 0.38984 0.27166 0.17733 0.0
H829 H 0.31214 0.29085 0.11796 0.0
H830 H 0.30638 0.29197 0.14583 0.0
H831 H 0.30416 0.27213 0.13266 0.0
C832 C 0.32455 0.28331 0.21169 0.0
C833 C 0.30577 0.26986 0.21278 0.0
C834 C 0.33975 0.28604 0.19362 0.0
C835 C 0.33632 0.27548 0.17623 0.0
C836 C 0.31717 0.26229 0.17705 0.0
H837 H 0.42935 0.25876 0.06429 0.0
H838 H 0.39251 0.26033 0.08982 0.0
C839 C 0.30199 0.2595 0.19516 0.0
C840 C 0.3547 0.2773 0.15814 0.0
H841 H 0.3565 0.28523 0.10546 0.0
C842 C 0.3826 0.27477 0.16165 0.0
C843 C 0.34507 0.28115 0.13769 0.0
C844 C 0.31533 0.28432 0.13323 0.0
C845 C 0.40117 0.27574 0.14522 0.0
C846 C 0.39167 0.27979 0.12476 0.0
C847 C 0.36372 0.28227 0.12118 0.0
C848 C 0.41069 0.28107 0.10699 0.0
C849 C 0.43074 0.27194 0.14983 0.0
C850 C 0.43225 0.2928 0.10756 0.0
C851 C 0.45329 0.29183 0.09316 0.0
C852 C 0.45285 0.27931 0.07774 0.0
C853 C 0.43002 0.26858 0.07597 0.0
C854 C 0.40907 0.26943 0.09056 0.0
H855 H 0.43337 0.26495 0.16484 0.0
H856 H 0.43964 0.26443 0.13707 0.0
H857 H 0.44243 0.28391 0.15111 0.0
H858 H 0.43357 0.30209 0.11987 0.0
H859 H 0.47064 0.3003 0.09472 0.0
H860 H 0.83277 0.69513 0.66483 0.0
H861 H 0.85653 0.67033 0.65237 0.0
H862 H 0.83177 0.64272 0.70736 0.0
H863 H 0.80849 0.66747 0.72018 0.0
H864 H 0.89928 0.65441 0.67489 0.0
H865 H 0.81366 0.60996 0.65891 0.0
H866 H 0.80898 0.63237 0.661 0.0
H867 H 0.81311 0.61971 0.68423 0.0
C868 C 0.83233 0.68379 0.67428 0.0
C869 C 0.81869 0.68335 0.69355 0.0
C870 C 0.84573 0.66958 0.66704 0.0
C871 C 0.84555 0.65461 0.67877 0.0
C872 C 0.83161 0.65401 0.6978 0.0
H873 H 0.9339 0.5619 0.68136 0.0
H874 H 0.89901 0.58355 0.68438 0.0
C875 C 0.8183 0.66821 0.70511 0.0
C876 C 0.86198 0.64011 0.67213 0.0
H877 H 0.85832 0.59847 0.65949 0.0
C878 C 0.89033 0.64223 0.67126 0.0
C879 C 0.85022 0.62421 0.66764 0.0
C880 C 0.8198 0.62138 0.6678 0.0
C881 C 0.90736 0.62877 0.66664 0.0
C882 C 0.89566 0.61281 0.66215 0.0
C883 C 0.86724 0.61071 0.66279 0.0
C884 C 0.91293 0.59809 0.65773 0.0
C885 C 0.93782 0.63164 0.66748 0.0
C886 C 0.93125 0.59856 0.64104 0.0
C887 C 0.95125 0.58632 0.63942 0.0
C888 C 0.95287 0.5732 0.65421 0.0
C889 C 0.9329 0.57182 0.66968 0.0
C890 C 0.91308 0.58422 0.67147 0.0
H891 H 0.94345 0.6432 0.67628 0.0
H892 H 0.94832 0.62082 0.67496 0.0
H893 H 0.9455 0.63312 0.65129 0.0
H894 H 0.93107 0.60893 0.62996 0.0
H895 H 0.9664 0.5876 0.62732 0.0
H896 H 0.81601 0.38018 0.32765 0.0
H897 H 0.83902 0.40577 0.33979 0.0
H898 H 0.85649 0.38202 0.39929 0.0
H899 H 0.83308 0.35637 0.38743 0.0
H900 H 0.83027 0.42664 0.37646 0.0
H901 H 0.93196 0.39649 0.37609 0.0
H902 H 0.90258 0.38744 0.36288 0.0
H903 H 0.90606 0.38579 0.39087 0.0
C904 C 0.82431 0.38044 0.34346 0.0
C905 C 0.82276 0.36614 0.35652 0.0
C906 C 0.83754 0.39509 0.35033 0.0
C907 C 0.84965 0.39573 0.37035 0.0
C908 C 0.84757 0.38169 0.38367 0.0
H909 H 0.96719 0.4681 0.41978 0.0
H910 H 0.93188 0.44616 0.41835 0.0
C911 C 0.83429 0.36702 0.37682 0.0
C912 C 0.86557 0.41084 0.37679 0.0
H913 H 0.93047 0.42459 0.38682 0.0
C914 C 0.85217 0.42622 0.37887 0.0
C915 C 0.8941 0.41022 0.37991 0.0
C916 C 0.90967 0.39416 0.37719 0.0
C917 C 0.86661 0.44104 0.38401 0.0
C918 C 0.89525 0.44049 0.38669 0.0
C919 C 0.9085 0.42502 0.38492 0.0
C920 C 0.91239 0.45578 0.39017 0.0
C921 C 0.85102 0.45707 0.38667 0.0
C922 C 0.91252 0.46892 0.37532 0.0
C923 C 0.93247 0.48162 0.37633 0.0
C924 C 0.95284 0.48121 0.39199 0.0
C925 C 0.95161 0.46871 0.40761 0.0
C926 C 0.93153 0.45615 0.40674 0.0
H927 H 0.82955 0.45446 0.39104 0.0
H928 H 0.86064 0.46521 0.39884 0.0
H929 H 0.85075 0.4641 0.37159 0.0
H930 H 0.89841 0.46875 0.36213 0.0
H931 H 0.93328 0.49095 0.36391 0.0
H932 H 0.18925 0.38118 0.71701 0.0
H933 H 0.16709 0.40669 0.70426 0.0
H934 H 0.13178 0.37907 0.65249 0.0
H935 H 0.15278 0.35331 0.66565 0.0
H936 H 0.16875 0.42471 0.66679 0.0
H937 H 0.06529 0.39828 0.68052 0.0
H938 H 0.09571 0.38836 0.69046 0.0
H939 H 0.08558 0.38589 0.66344 0.0
C940 C 0.1766 0.38047 0.70299 0.0
C941 C 0.17247 0.36508 0.69257 0.0
C942 C 0.16419 0.39512 0.6956 0.0
C943 C 0.1474 0.39473 0.67764 0.0
C944 C 0.14424 0.3796 0.66662 0.0
H945 H 0.03341 0.46624 0.62529 0.0
H946 H 0.06763 0.44422 0.62808 0.0
C947 C 0.15652 0.3649 0.67406 0.0
C948 C 0.13217 0.40995 0.67108 0.0
H949 H 0.06776 0.4249 0.66428 0.0
C950 C 0.14667 0.42476 0.66618 0.0
C951 C 0.10334 0.41004 0.67044 0.0
C952 C 0.08651 0.39486 0.67668 0.0
C953 C 0.13308 0.43961 0.66044 0.0
C954 C 0.10429 0.43964 0.65979 0.0
C955 C 0.08986 0.42481 0.66457 0.0
C956 C 0.08827 0.45496 0.65511 0.0
C957 C 0.14957 0.45508 0.65496 0.0
C958 C 0.08926 0.46872 0.6688 0.0
C959 C 0.06978 0.4814 0.66713 0.0
C960 C 0.0489 0.48038 0.65189 0.0
C961 C 0.04932 0.46732 0.63717 0.0
C962 C 0.06879 0.45472 0.63879 0.0
H963 H 0.17079 0.4519 0.65081 0.0
H964 H 0.14003 0.46202 0.64165 0.0
H965 H 0.15045 0.46356 0.66869 0.0
H966 H 0.10379 0.46904 0.68173 0.0
H967 H 0.06967 0.4912 0.67883 0.0
H968 H 0.20244 0.68696 0.37544 0.0
H969 H 0.18541 0.65801 0.37967 0.0
H970 H 0.10292 0.67541 0.37303 0.0
H971 H 0.11968 0.70425 0.36859 0.0
H972 H 0.1454 0.64487 0.41061 0.0
H973 H 0.11212 0.63787 0.32758 0.0
H974 H 0.13656 0.65367 0.336 0.0
H975 H 0.1008 0.65673 0.33994 0.0
C976 C 0.18068 0.68459 0.37483 0.0
C977 C 0.1624 0.6979 0.37163 0.0
C978 C 0.17101 0.66808 0.37735 0.0
C979 C 0.14295 0.66459 0.37645 0.0
C980 C 0.12467 0.67785 0.37358 0.0
H981 H 0.02998 0.59014 0.41119 0.0
H982 H 0.06507 0.61215 0.41106 0.0
C983 C 0.13428 0.69434 0.37121 0.0
C984 C 0.13249 0.64712 0.37833 0.0
H985 H 0.09492 0.61761 0.35185 0.0
C986 C 0.1347 0.63876 0.39771 0.0
C987 C 0.11898 0.63909 0.36138 0.0
C988 C 0.11712 0.6472 0.33997 0.0
C989 C 0.12232 0.62295 0.40089 0.0
C990 C 0.10723 0.61542 0.3843 0.0
C991 C 0.10643 0.62338 0.3646 0.0
C992 C 0.08957 0.60037 0.38747 0.0
C993 C 0.12504 0.61458 0.42208 0.0
C994 C 0.09191 0.58622 0.37458 0.0
C995 C 0.07182 0.57356 0.37471 0.0
C996 C 0.04896 0.57504 0.3875 0.0
C997 C 0.04755 0.58867 0.40131 0.0
C998 C 0.06766 0.60122 0.4013 0.0
H999 H 0.1439 0.61881 0.43042 0.0
H1000 H 0.10743 0.61803 0.4318 0.0
H1001 H 0.1253 0.60069 0.42066 0.0
H1002 H 0.10853 0.58539 0.36367 0.0
H1003 H 0.07313 0.56328 0.36373 0.0
H1004 H 0.7875 0.86991 0.68899 0.0
H1005 H 0.78677 0.89829 0.67386 0.0
H1006 H 0.79359 0.87753 0.61196 0.0
H1007 H 0.7938 0.84918 0.62679 0.0
H1008 H 0.83092 0.90483 0.62178 0.0
H1009 H 0.72293 0.91956 0.63895 0.0
H1010 H 0.7438 0.91197 0.66034 0.0
H1011 H 0.73542 0.89831 0.6389 0.0
C1012 C 0.78854 0.87136 0.67214 0.0
C1013 C 0.79072 0.85721 0.65912 0.0
C1014 C 0.78817 0.88759 0.66354 0.0
C1015 C 0.78993 0.88998 0.64179 0.0
C1016 C 0.79226 0.87594 0.6288 0.0
H1017 H 0.75953 0.96285 0.54875 0.0
H1018 H 0.75733 0.941 0.57583 0.0
C1019 C 0.79255 0.85974 0.63734 0.0
C1020 C 0.78974 0.90706 0.63236 0.0
H1021 H 0.74826 0.94011 0.62071 0.0
C1022 C 0.81301 0.91268 0.62178 0.0
C1023 C 0.76625 0.91717 0.63234 0.0
C1024 C 0.74055 0.9115 0.6431 0.0
C1025 C 0.81319 0.92794 0.61063 0.0
C1026 C 0.78952 0.93793 0.61023 0.0
C1027 C 0.76646 0.93252 0.62128 0.0
C1028 C 0.78737 0.95281 0.59623 0.0
C1029 C 0.83822 0.93285 0.59844 0.0
C1030 C 0.80406 0.96709 0.59919 0.0
C1031 C 0.80522 0.97967 0.58374 0.0
C1032 C 0.78978 0.97804 0.56514 0.0
C1033 C 0.77165 0.96435 0.56296 0.0
C1034 C 0.77038 0.95188 0.5784 0.0
H1035 H 0.85325 0.92254 0.59791 0.0
H1036 H 0.83254 0.93645 0.58212 0.0
H1037 H 0.84823 0.94389 0.60594 0.0
H1038 H 0.81713 0.96809 0.61296 0.0
H1039 H 0.81946 0.99006 0.58568 0.0
H1040 H 0.7277 0.25674 0.20248 0.0
H1041 H 0.70371 0.25853 0.1685 0.0
H1042 H 0.62805 0.26646 0.20024 0.0
H1043 H 0.65182 0.26479 0.23416 0.0
H1044 H 0.6568 0.23723 0.15542 0.0
H1045 H 0.63427 0.3054 0.15568 0.0
H1046 H 0.66101 0.29627 0.17167 0.0
H1047 H 0.62611 0.29444 0.17955 0.0
C1048 C 0.70601 0.25905 0.20217 0.0
C1049 C 0.69162 0.26064 0.22096 0.0
C1050 C 0.69235 0.25999 0.1828 0.0
C1051 C 0.6642 0.26278 0.18192 0.0
C1052 C 0.64985 0.26449 0.20062 0.0
H1053 H 0.53028 0.24646 0.1009 0.0
H1054 H 0.5686 0.24445 0.12565 0.0
C1055 C 0.66341 0.2634 0.21996 0.0
C1056 C 0.6494 0.26333 0.16156 0.0
H1057 H 0.60893 0.28854 0.13128 0.0
C1058 C 0.64666 0.2485 0.14992 0.0
C1059 C 0.63652 0.2781 0.15434 0.0
C1060 C 0.63975 0.29452 0.16583 0.0
C1061 C 0.63005 0.24782 0.13183 0.0
C1062 C 0.61581 0.26233 0.12535 0.0
C1063 C 0.61981 0.27741 0.13632 0.0
C1064 C 0.59455 0.26179 0.10865 0.0
C1065 C 0.62735 0.23151 0.12006 0.0
C1066 C 0.59654 0.27209 0.09077 0.0
C1067 C 0.57465 0.27319 0.07652 0.0
C1068 C 0.55033 0.26424 0.08023 0.0
C1069 C 0.54882 0.25348 0.09772 0.0
C1070 C 0.57074 0.25225 0.11178 0.0
H1071 H 0.64507 0.22325 0.12316 0.0
H1072 H 0.60873 0.22473 0.12526 0.0
H1073 H 0.62546 0.23379 0.10292 0.0
H1074 H 0.61469 0.27965 0.0882 0.0
H1075 H 0.57617 0.28169 0.06325 0.0
H1076 H 0.23862 0.19003 0.64845 0.0
H1077 H 0.23743 0.1622 0.63243 0.0
H1078 H 0.15015 0.16005 0.63902 0.0
H1079 H 0.15117 0.18801 0.65486 0.0
H1080 H 0.21958 0.13136 0.64676 0.0
H1081 H 0.15868 0.1513 0.57699 0.0
H1082 H 0.17385 0.16617 0.59502 0.0
H1083 H 0.14297 0.15514 0.6017 0.0
C1084 C 0.21919 0.18359 0.64664 0.0
C1085 C 0.19496 0.19129 0.65279 0.0
C1086 C 0.21853 0.16769 0.63745 0.0
C1087 C 0.19366 0.15913 0.63422 0.0
C1088 C 0.16951 0.16657 0.64089 0.0
H1089 H 0.16629 0.06713 0.561 0.0
H1090 H 0.15947 0.08854 0.58802 0.0
C1091 C 0.17012 0.18254 0.64995 0.0
C1092 C 0.19319 0.14261 0.62348 0.0
H1093 H 0.17046 0.12278 0.57913 0.0
C1094 C 0.20868 0.12944 0.63205 0.0
C1095 C 0.17889 0.14009 0.6043 0.0
C1096 C 0.16284 0.15394 0.59382 0.0
C1097 C 0.21067 0.11396 0.62175 0.0
C1098 C 0.19701 0.11163 0.60231 0.0
C1099 C 0.18074 0.12456 0.59413 0.0
C1100 C 0.20166 0.09674 0.589 0.0
C1101 C 0.22763 0.10028 0.63163 0.0
C1102 C 0.22768 0.09405 0.58095 0.0
C1103 C 0.23151 0.08195 0.56557 0.0
C1104 C 0.20943 0.07227 0.55799 0.0
C1105 C 0.18367 0.07427 0.56685 0.0
C1106 C 0.17976 0.08654 0.58215 0.0
H1107 H 0.2297 0.10194 0.64886 0.0
H1108 H 0.21864 0.08767 0.62843 0.0
H1109 H 0.24836 0.10076 0.62493 0.0
H1110 H 0.24474 0.10197 0.58566 0.0
H1111 H 0.2515 0.08073 0.55879 0.0
H1112 H 0.33219 0.7461 0.22706 0.0
H1113 H 0.35861 0.74785 0.19494 0.0
H1114 H 0.30283 0.78447 0.16966 0.0
H1115 H 0.27625 0.78281 0.20185 0.0
H1116 H 0.3429 0.74145 0.15354 0.0
H1117 H 0.37677 0.8079 0.16361 0.0
H1118 H 0.36155 0.79585 0.18453 0.0
H1119 H 0.34057 0.80438 0.16385 0.0
C1120 C 0.32542 0.75445 0.21462 0.0
C1121 C 0.30214 0.76435 0.21703 0.0
C1122 C 0.34058 0.75547 0.1963 0.0
C1123 C 0.33286 0.76642 0.18001 0.0
C1124 C 0.30946 0.77618 0.18221 0.0
H1125 H 0.42641 0.79025 0.06714 0.0
H1126 H 0.38729 0.78682 0.09043 0.0
C1127 C 0.29431 0.77522 0.2006 0.0
C1128 C 0.34958 0.76757 0.16086 0.0
H1129 H 0.39135 0.79403 0.13341 0.0
C1130 C 0.35334 0.75298 0.14903 0.0
C1131 C 0.36307 0.78264 0.15495 0.0
C1132 C 0.36055 0.79857 0.16745 0.0
C1133 C 0.37068 0.75296 0.13172 0.0
C1134 C 0.38486 0.76788 0.12626 0.0
C1135 C 0.38033 0.78262 0.13758 0.0
C1136 C 0.40651 0.76814 0.1103 0.0
C1137 C 0.37388 0.73695 0.11955 0.0
C1138 C 0.43003 0.75857 0.11356 0.0
C1139 C 0.45228 0.76052 0.10036 0.0
C1140 C 0.45148 0.77212 0.08366 0.0
C1141 C 0.42744 0.7811 0.07977 0.0
C1142 C 0.40519 0.77922 0.09311 0.0
H1143 H 0.35592 0.72847 0.12135 0.0
H1144 H 0.37679 0.7396 0.10261 0.0
H1145 H 0.39206 0.7302 0.12559 0.0
H1146 H 0.4317 0.75018 0.12694 0.0
H1147 H 0.47055 0.75342 0.10368 0.0
H1148 H 0.79459 0.19991 0.42944 0.0
H1149 H 0.79423 0.17161 0.4444 0.0
H1150 H 0.78816 0.15057 0.3824 0.0
H1151 H 0.78904 0.17891 0.36717 0.0
H1152 H 0.75085 0.13638 0.41173 0.0
H1153 H 0.85672 0.13736 0.44302 0.0
H1154 H 0.83734 0.15526 0.45063 0.0
H1155 H 0.84479 0.15213 0.42343 0.0
C1156 C 0.79361 0.1893 0.41891 0.0
C1157 C 0.79206 0.19174 0.39706 0.0
C1158 C 0.79334 0.17311 0.42752 0.0
C1159 C 0.79157 0.15899 0.4145 0.0
C1160 C 0.78965 0.16131 0.39271 0.0
H1161 H 0.81835 0.06176 0.47635 0.0
H1162 H 0.81842 0.08296 0.44821 0.0
C1163 C 0.79001 0.17753 0.38406 0.0
C1164 C 0.79113 0.14187 0.42384 0.0
H1165 H 0.82691 0.11618 0.4569 0.0
C1166 C 0.76762 0.13183 0.42136 0.0
C1167 C 0.81321 0.13581 0.43607 0.0
C1168 C 0.83956 0.14562 0.43831 0.0
C1169 C 0.76501 0.1163 0.43181 0.0
C1170 C 0.78635 0.1108 0.44523 0.0
C1171 C 0.81046 0.12041 0.44671 0.0
C1172 C 0.78325 0.09611 0.45951 0.0
C1173 C 0.73926 0.10606 0.42864 0.0
C1174 C 0.76303 0.09618 0.47484 0.0
C1175 C 0.76295 0.0841 0.49081 0.0
C1176 C 0.78317 0.07176 0.49186 0.0
C1177 C 0.80237 0.07102 0.47578 0.0
C1178 C 0.80252 0.08318 0.4598 0.0
H1179 H 0.72957 0.10881 0.41317 0.0
H1180 H 0.74331 0.09238 0.42975 0.0
H1181 H 0.72452 0.10933 0.44095 0.0
H1182 H 0.74828 0.10617 0.47523 0.0
H1183 H 0.74792 0.08495 0.50302 0.0
H1184 H 0.34642 0.25562 0.81112 0.0
H1185 H 0.37182 0.25684 0.84435 0.0
H1186 H 0.29674 0.26243 0.87769 0.0
H1187 H 0.27105 0.26104 0.84442 0.0
H1188 H 0.37008 0.28398 0.87572 0.0
H1189 H 0.33728 0.22114 0.90572 0.0
H1190 H 0.33526 0.22663 0.87823 0.0
H1191 H 0.31136 0.23517 0.89614 0.0
C1192 C 0.33528 0.25701 0.82552 0.0
C1193 C 0.30672 0.25813 0.82516 0.0
C1194 C 0.34982 0.25779 0.84447 0.0
C1195 C 0.3361 0.25957 0.86344 0.0
C1196 C 0.30764 0.2609 0.86319 0.0
H1197 H 0.43015 0.28042 0.97915 0.0
H1198 H 0.39155 0.27967 0.95422 0.0
C1199 C 0.29305 0.26023 0.84419 0.0
C1200 C 0.3519 0.26005 0.88337 0.0
H1201 H 0.36886 0.23642 0.9264 0.0
C1202 C 0.36957 0.27372 0.88699 0.0
C1203 C 0.35122 0.24656 0.89788 0.0
C1204 C 0.33291 0.23145 0.89439 0.0
C1205 C 0.38715 0.27408 0.90452 0.0
C1206 C 0.38688 0.26043 0.91885 0.0
C1207 C 0.36876 0.24692 0.91549 0.0
C1208 C 0.40741 0.25924 0.93601 0.0
C1209 C 0.40681 0.28867 0.90709 0.0
C1210 C 0.42836 0.24751 0.93453 0.0
C1211 C 0.45029 0.24791 0.94869 0.0
C1212 C 0.45156 0.25997 0.96467 0.0
C1213 C 0.42961 0.27095 0.96704 0.0
C1214 C 0.40769 0.27061 0.95274 0.0
H1215 H 0.40705 0.29701 0.89306 0.0
H1216 H 0.40085 0.29625 0.92078 0.0
H1217 H 0.42778 0.28406 0.91011 0.0
H1218 H 0.42845 0.23861 0.92176 0.0
H1219 H 0.46685 0.23922 0.94663 0.0
H1220 H 0.2057 0.88778 0.34145 0.0
H1221 H 0.20048 0.91352 0.36172 0.0
H1222 H 0.21494 0.88572 0.41895 0.0
H1223 H 0.22108 0.86005 0.39881 0.0
H1224 H 0.16406 0.92138 0.39316 0.0
H1225 H 0.27057 0.92424 0.42295 0.0
H1226 H 0.25997 0.91072 0.40166 0.0
H1227 H 0.25388 0.90453 0.42837 0.0
C1228 C 0.20803 0.88716 0.35834 0.0
C1229 C 0.21405 0.87184 0.36848 0.0
C1230 C 0.20484 0.90187 0.36991 0.0
C1231 C 0.20777 0.9016 0.39181 0.0
C1232 C 0.2131 0.88628 0.40202 0.0
H1233 H 0.15769 0.96692 0.48878 0.0
H1234 H 0.15953 0.94722 0.45969 0.0
C1235 C 0.21629 0.87157 0.39049 0.0
C1236 C 0.20519 0.9173 0.40405 0.0
H1237 H 0.23885 0.94205 0.43967 0.0
C1238 C 0.18048 0.92601 0.40318 0.0
C1239 C 0.22681 0.92355 0.41678 0.0
C1240 C 0.2544 0.91538 0.41737 0.0
C1241 C 0.17643 0.94037 0.41544 0.0
C1242 C 0.19752 0.946 0.42912 0.0
C1243 C 0.2226 0.9377 0.42928 0.0
C1244 C 0.19354 0.95962 0.44458 0.0
C1245 C 0.14958 0.94931 0.41364 0.0
C1246 C 0.2118 0.97334 0.4457 0.0
C1247 C 0.2109 0.98458 0.46247 0.0
C1248 C 0.19191 0.98218 0.47853 0.0
C1249 C 0.17261 0.96905 0.47667 0.0
C1250 C 0.17351 0.95784 0.45994 0.0
H1251 H 0.13975 0.9472 0.39807 0.0
H1252 H 0.13561 0.94429 0.42575 0.0
H1253 H 0.15219 0.96304 0.41608 0.0
H1254 H 0.22751 0.97491 0.43408 0.0
H1255 H 0.2262 0.99446 0.4636 0.0
H1256 H 0.71864 0.76903 0.84608 0.0
H1257 H 0.69378 0.76513 0.87891 0.0
H1258 H 0.62473 0.79073 0.8518 0.0
H1259 H 0.64916 0.79445 0.81896 0.0
H1260 H 0.67104 0.79159 0.90429 0.0
H1261 H 0.59261 0.74613 0.87584 0.0
H1262 H 0.62426 0.74988 0.86236 0.0
H1263 H 0.59661 0.76433 0.85932 0.0
C1264 C 0.69804 0.77364 0.84706 0.0
C1265 C 0.68585 0.78205 0.82993 0.0
C1266 C 0.68395 0.77148 0.86583 0.0
C1267 C 0.65734 0.77747 0.86766 0.0
C1268 C 0.64512 0.7858 0.85059 0.0
H1269 H 0.54972 0.80891 0.95976 0.0
H1270 H 0.58652 0.80535 0.93476 0.0
C1271 C 0.6592 0.78806 0.83191 0.0
C1272 C 0.64247 0.77567 0.8876 0.0
H1273 H 0.58317 0.76032 0.90787 0.0
C1274 C 0.65206 0.78452 0.90523 0.0
C1275 C 0.61791 0.76628 0.88883 0.0
C1276 C 0.60731 0.75597 0.87065 0.0
C1277 C 0.63683 0.78504 0.92368 0.0
C1278 C 0.61142 0.77653 0.92442 0.0
C1279 C 0.60264 0.76687 0.90723 0.0
C1280 C 0.59224 0.77899 0.9418 0.0
C1281 C 0.64763 0.79503 0.94206 0.0
C1282 C 0.58348 0.76537 0.9542 0.0
C1283 C 0.56261 0.76744 0.96868 0.0
C1284 C 0.54994 0.78307 0.97056 0.0
C1285 C 0.55935 0.79678 0.95862 0.0
C1286 C 0.58039 0.79476 0.94442 0.0
H1287 H 0.67005 0.79691 0.94128 0.0
H1288 H 0.63801 0.80758 0.94194 0.0
H1289 H 0.64263 0.78869 0.95711 0.0
H1290 H 0.59222 0.75306 0.95222 0.0
H1291 H 0.5554 0.75668 0.97757 0.0
loop_
_geom_bond_atom_site_label_1
_geom_bond_atom_site_label_2
_geom_bond_distance
_geom_bond_site_symmetry_2
_ccdc_geom_bond_type
C0 C1 1.264 . S
C0 C5 1.479 . S
C0 C10 1.465 . S
C1 C0 1.264 . S
C1 C3 1.339 . S
C1 H28 0.931 . S
C2 C3 1.395 . S
C2 C4 1.320 . S
C3 C1 1.339 . S
C3 C2 1.395 . S
C3 H29 0.929 . S
C4 C2 1.320 . S
C4 C5 1.405 . S
C4 H30 0.930 . S
C5 C0 1.479 . S
C5 C4 1.405 . S
C5 H31 0.931 . S
U6 O7 2.454 . S
U6 O8 2.458 . S
U6 C9 2.984 . S
U6 C10 2.847 . S
U6 C23 2.882 . S
U6 O24 2.441 . S
U6 O25 2.420 . S
U6 O26 2.455 . S
U6 O27 2.449 . S
O7 U6 2.454 . S
O7 C9 1.353 . S
O8 U6 2.458 . S
O8 C9 1.286 . S
C9 U6 2.984 . S
C9 O7 1.353 . S
C9 O8 1.286 . S
C9 C11 1.363 . S
C10 C0 1.465 . S
C10 U6 2.847 . S
C10 O24 1.249 . S
C10 O25 1.202 . S
C11 C9 1.363 . S
C11 C13 1.408 . S
C11 C16 1.342 . S
C12 C13 1.310 . S
C12 C15 1.461 . S
C12 H32 0.932 . S
C13 C11 1.408 . S
C13 C12 1.310 . S
C13 H33 0.930 . S
C14 C15 1.474 . S
C14 C16 1.285 . S
C14 H34 0.929 . S
C15 C12 1.461 . S
C15 C14 1.474 . S
C16 C11 1.342 . S
C16 C14 1.285 . S
C16 H35 0.930 . S
C17 C20 1.424 . S
C17 C22 1.245 . S
C17 C23 1.428 . S
C18 C21 1.260 . S
C18 C22 1.477 . S
C18 H36 0.932 . S
C19 C20 1.384 . S
C19 C21 1.479 . S
C19 H37 0.929 . S
C20 C17 1.424 . S
C20 C19 1.384 . S
C20 H38 0.928 . S
C21 C18 1.260 . S
C21 C19 1.479 . S
C22 C17 1.245 . S
C22 C18 1.477 . S
C22 H39 0.932 . S
C23 U6 2.882 . S
C23 C17 1.428 . S
C23 O26 1.301 . S
C23 O27 1.282 . S
O24 U6 2.441 . S
O24 C10 1.249 . S
O25 U6 2.420 . S
O25 C10 1.202 . S
O26 U6 2.455 . S
O26 C23 1.301 . S
O27 U6 2.449 . S
O27 C23 1.282 . S
H28 C1 0.931 . S
H29 C3 0.929 . S
H30 C4 0.930 . S
H31 C5 0.931 . S
H32 C12 0.932 . S
H33 C13 0.930 . S
H34 C14 0.929 . S
H35 C16 0.930 . S
H36 C18 0.932 . S
H37 C19 0.929 . S
H38 C20 0.928 . S
H39 C22 0.932 . S
C40 C41 1.264 . S
C40 C45 1.479 . S
C40 C50 1.465 . S
C41 C40 1.264 . S
C41 C43 1.339 . S
C41 H68 0.931 . S
C42 C43 1.395 . S
C42 C44 1.320 . S
C43 C41 1.339 . S
C43 C42 1.395 . S
C43 H69 0.929 . S
C44 C42 1.320 . S
C44 C45 1.405 . S
C44 H70 0.930 . S
C45 C40 1.479 . S
C45 C44 1.405 . S
C45 H71 0.931 . S
U46 O47 2.454 . S
U46 O48 2.458 . S
U46 C49 2.984 . S
U46 C50 2.847 . S
U46 C63 2.882 . S
U46 O64 2.441 . S
U46 O65 2.420 . S
U46 O66 2.455 . S
U46 O67 2.449 . S
O47 U46 2.454 . S
O47 C49 1.353 . S
O48 U46 2.458 . S
O48 C49 1.286 . S
C49 U46 2.984 . S
C49 O47 1.353 . S
C49 O48 1.286 . S
C49 C51 1.363 . S
C50 C40 1.465 . S
C50 U46 2.847 . S
C50 O64 1.249 . S
C50 O65 1.202 . S
C51 C49 1.363 . S
C51 C53 1.408 . S
C51 C56 1.342 . S
C52 C53 1.310 . S
C52 C55 1.461 . S
C52 H72 0.932 . S
C53 C51 1.408 . S
C53 C52 1.310 . S
C53 H73 0.930 . S
C54 C55 1.474 . S
C54 C56 1.285 . S
C54 H74 0.929 . S
C55 C52 1.461 . S
C55 C54 1.474 . S
C56 C51 1.342 . S
C56 C54 1.285 . S
C56 H75 0.930 . S
C57 C60 1.424 . S
C57 C62 1.245 . S
C57 C63 1.428 . S
C58 C61 1.260 . S
C58 C62 1.477 . S
C58 H76 0.932 . S
C59 C60 1.384 . S
C59 C61 1.479 . S
C59 H77 0.929 . S
C60 C57 1.424 . S
C60 C59 1.384 . S
C60 H78 0.928 . S
C61 C58 1.260 . S
C61 C59 1.479 . S
C62 C57 1.245 . S
C62 C58 1.477 . S
C62 H79 0.932 . S
C63 U46 2.882 . S
C63 C57 1.428 . S
C63 O66 1.301 . S
C63 O67 1.282 . S
O64 U46 2.441 . S
O64 C50 1.249 . S
O65 U46 2.420 . S
O65 C50 1.202 . S
O66 U46 2.455 . S
O66 C63 1.301 . S
O67 U46 2.449 . S
O67 C63 1.282 . S
H68 C41 0.931 . S
H69 C43 0.929 . S
H70 C44 0.930 . S
H71 C45 0.931 . S
H72 C52 0.932 . S
H73 C53 0.930 . S
H74 C54 0.929 . S
H75 C56 0.930 . S
H76 C58 0.932 . S
H77 C59 0.929 . S
H78 C60 0.928 . S
H79 C62 0.932 . S
C80 C81 1.264 . S
C80 C85 1.479 . S
C80 C90 1.465 . S
C81 C80 1.264 . S
C81 C83 1.339 . S
C81 H108 0.931 . S
C82 C83 1.395 . S
C82 C84 1.320 . S
C83 C81 1.339 . S
C83 C82 1.395 . S
C83 H109 0.929 . S
C84 C82 1.320 . S
C84 C85 1.405 . S
C84 H110 0.930 . S
C85 C80 1.479 . S
C85 C84 1.405 . S
C85 H111 0.931 . S
U86 O87 2.454 . S
U86 O88 2.458 . S
U86 C89 2.984 . S
U86 C90 2.847 . S
U86 C103 2.882 . S
U86 O104 2.441 . S
U86 O105 2.420 . S
U86 O106 2.455 . S
U86 O107 2.449 . S
O87 U86 2.454 . S
O87 C89 1.353 . S
O88 U86 2.458 . S
O88 C89 1.286 . S
C89 U86 2.984 . S
C89 O87 1.353 . S
C89 O88 1.286 . S
C89 C91 1.363 . S
C90 C80 1.465 . S
C90 U86 2.847 . S
C90 O104 1.249 . S
C90 O105 1.202 . S
C91 C89 1.363 . S
C91 C93 1.408 . S
C91 C96 1.342 . S
C92 C93 1.310 . S
C92 C95 1.461 . S
C92 H112 0.932 . S
C93 C91 1.408 . S
C93 C92 1.310 . S
C93 H113 0.930 . S
C94 C95 1.474 . S
C94 C96 1.285 . S
C94 H114 0.929 . S
C95 C92 1.461 . S
C95 C94 1.474 . S
C96 C91 1.342 . S
C96 C94 1.285 . S
C96 H115 0.930 . S
C97 C100 1.424 . S
C97 C102 1.245 . S
C97 C103 1.428 . S
C98 C101 1.260 . S
C98 C102 1.477 . S
C98 H116 0.932 . S
C99 C100 1.384 . S
C99 C101 1.479 . S
C99 H117 0.929 . S
C100 C97 1.424 . S
C100 C99 1.384 . S
C100 H118 0.928 . S
C101 C98 1.260 . S
C101 C99 1.479 . S
C102 C97 1.245 . S
C102 C98 1.477 . S
C102 H119 0.932 . S
C103 U86 2.882 . S
C103 C97 1.428 . S
C103 O106 1.301 . S
C103 O107 1.282 . S
O104 U86 2.441 . S
O104 C90 1.249 . S
O105 U86 2.420 . S
O105 C90 1.202 . S
O106 U86 2.455 . S
O106 C103 1.301 . S
O107 U86 2.449 . S
O107 C103 1.282 . S
H108 C81 0.931 . S
H109 C83 0.929 . S
H110 C84 0.930 . S
H111 C85 0.931 . S
H112 C92 0.932 . S
H113 C93 0.930 . S
H114 C94 0.929 . S
H115 C96 0.930 . S
H116 C98 0.932 . S
H117 C99 0.929 . S
H118 C100 0.928 . S
H119 C102 0.932 . S
C120 C121 1.264 . S
C120 C125 1.479 . S
C120 C130 1.465 . S
C121 C120 1.264 . S
C121 C123 1.339 . S
C121 H148 0.931 . S
C122 C123 1.395 . S
C122 C124 1.320 . S
C123 C121 1.339 . S
C123 C122 1.395 . S
C123 H149 0.929 . S
C124 C122 1.320 . S
C124 C125 1.405 . S
C124 H150 0.930 . S
C125 C120 1.479 . S
C125 C124 1.405 . S
C125 H151 0.931 . S
U126 O127 2.454 . S
U126 O128 2.458 . S
U126 C129 2.984 . S
U126 C130 2.847 . S
U126 C143 2.882 . S
U126 O144 2.441 . S
U126 O145 2.420 . S
U126 O146 2.455 . S
U126 O147 2.449 . S
O127 U126 2.454 . S
O127 C129 1.353 . S
O128 U126 2.458 . S
O128 C129 1.286 . S
C129 U126 2.984 . S
C129 O127 1.353 . S
C129 O128 1.286 . S
C129 C131 1.363 . S
C130 C120 1.465 . S
C130 U126 2.847 . S
C130 O144 1.249 . S
C130 O145 1.202 . S
C131 C129 1.363 . S
C131 C133 1.408 . S
C131 C136 1.342 . S
C132 C133 1.310 . S
C132 C135 1.461 . S
C132 H152 0.932 . S
C133 C131 1.408 . S
C133 C132 1.310 . S
C133 H153 0.930 . S
C134 C135 1.474 . S
C134 C136 1.285 . S
C134 H154 0.929 . S
C135 C132 1.461 . S
C135 C134 1.474 . S
C136 C131 1.342 . S
C136 C134 1.285 . S
C136 H155 0.930 . S
C137 C140 1.424 . S
C137 C142 1.245 . S
C137 C143 1.428 . S
C138 C141 1.260 . S
C138 C142 1.477 . S
C138 H156 0.932 . S
C139 C140 1.384 . S
C139 C141 1.479 . S
C139 H157 0.929 . S
C140 C137 1.424 . S
C140 C139 1.384 . S
C140 H158 0.928 . S
C141 C138 1.260 . S
C141 C139 1.479 . S
C142 C137 1.245 . S
C142 C138 1.477 . S
C142 H159 0.932 . S
C143 U126 2.882 . S
C143 C137 1.428 . S
C143 O146 1.301 . S
C143 O147 1.282 . S
O144 U126 2.441 . S
O144 C130 1.249 . S
O145 U126 2.420 . S
O145 C130 1.202 . S
O146 U126 2.455 . S
O146 C143 1.301 . S
O147 U126 2.449 . S
O147 C143 1.282 . S
H148 C121 0.931 . S
H149 C123 0.929 . S
H150 C124 0.930 . S
H151 C125 0.931 . S
H152 C132 0.932 . S
H153 C133 0.930 . S
H154 C134 0.929 . S
H155 C136 0.930 . S
H156 C138 0.932 . S
H157 C139 0.929 . S
H158 C140 0.928 . S
H159 C142 0.932 . S
C160 C161 1.264 . S
C160 C165 1.479 . S
C160 C170 1.465 . S
C161 C160 1.264 . S
C161 C163 1.339 . S
C161 H188 0.931 . S
C162 C163 1.395 . S
C162 C164 1.320 . S
C163 C161 1.339 . S
C163 C162 1.395 . S
C163 H189 0.929 . S
C164 C162 1.320 . S
C164 C165 1.405 . S
C164 H190 0.930 . S
C165 C160 1.479 . S
C165 C164 1.405 . S
C165 H191 0.931 . S
U166 O167 2.454 . S
U166 O168 2.458 . S
U166 C169 2.984 . S
U166 C170 2.847 . S
U166 C183 2.882 . S
U166 O184 2.441 . S
U166 O185 2.420 . S
U166 O186 2.455 . S
U166 O187 2.449 . S
O167 U166 2.454 . S
O167 C169 1.353 . S
O168 U166 2.458 . S
O168 C169 1.286 . S
C169 U166 2.984 . S
C169 O167 1.353 . S
C169 O168 1.286 . S
C169 C171 1.363 . S
C170 C160 1.465 . S
C170 U166 2.847 . S
C170 O184 1.249 . S
C170 O185 1.202 . S
C171 C169 1.363 . S
C171 C173 1.408 . S
C171 C176 1.342 . S
C172 C173 1.310 . S
C172 C175 1.461 . S
C172 H192 0.932 . S
C173 C171 1.408 . S
C173 C172 1.310 . S
C173 H193 0.930 . S
C174 C175 1.474 . S
C174 C176 1.285 . S
C174 H194 0.929 . S
C175 C172 1.461 . S
C175 C174 1.474 . S
C176 C171 1.342 . S
C176 C174 1.285 . S
C176 H195 0.930 . S
C177 C180 1.424 . S
C177 C182 1.245 . S
C177 C183 1.428 . S
C178 C181 1.260 . S
C178 C182 1.477 . S
C178 H196 0.932 . S
C179 C180 1.384 . S
C179 C181 1.479 . S
C179 H197 0.929 . S
C180 C177 1.424 . S
C180 C179 1.384 . S
C180 H198 0.928 . S
C181 C178 1.260 . S
C181 C179 1.479 . S
C182 C177 1.245 . S
C182 C178 1.477 . S
C182 H199 0.932 . S
C183 U166 2.882 . S
C183 C177 1.428 . S
C183 O186 1.301 . S
C183 O187 1.282 . S
O184 U166 2.441 . S
O184 C170 1.249 . S
O185 U166 2.420 . S
O185 C170 1.202 . S
O186 U166 2.455 . S
O186 C183 1.301 . S
O187 U166 2.449 . S
O187 C183 1.282 . S
H188 C161 0.931 . S
H189 C163 0.929 . S
H190 C164 0.930 . S
H191 C165 0.931 . S
H192 C172 0.932 . S
H193 C173 0.930 . S
H194 C174 0.929 . S
H195 C176 0.930 . S
H196 C178 0.932 . S
H197 C179 0.929 . S
H198 C180 0.928 . S
H199 C182 0.932 . S
C200 C201 1.264 . S
C200 C205 1.479 . S
C200 C210 1.465 . S
C201 C200 1.264 . S
C201 C203 1.339 . S
C201 H228 0.931 . S
C202 C203 1.395 . S
C202 C204 1.320 . S
C203 C201 1.339 . S
C203 C202 1.395 . S
C203 H229 0.929 . S
C204 C202 1.320 . S
C204 C205 1.405 . S
C204 H230 0.930 . S
C205 C200 1.479 . S
C205 C204 1.405 . S
C205 H231 0.931 . S
U206 O207 2.454 . S
U206 O208 2.458 . S
U206 C209 2.984 . S
U206 C210 2.847 . S
U206 C223 2.882 . S
U206 O224 2.441 . S
U206 O225 2.420 . S
U206 O226 2.455 . S
U206 O227 2.449 . S
O207 U206 2.454 . S
O207 C209 1.353 . S
O208 U206 2.458 . S
O208 C209 1.286 . S
C209 U206 2.984 . S
C209 O207 1.353 . S
C209 O208 1.286 . S
C209 C211 1.363 . S
C210 C200 1.465 . S
C210 U206 2.847 . S
C210 O224 1.249 . S
C210 O225 1.202 . S
C211 C209 1.363 . S
C211 C213 1.408 . S
C211 C216 1.342 . S
C212 C213 1.310 . S
C212 C215 1.461 . S
C212 H232 0.932 . S
C213 C211 1.408 . S
C213 C212 1.310 . S
C213 H233 0.930 . S
C214 C215 1.474 . S
C214 C216 1.285 . S
C214 H234 0.929 . S
C215 C212 1.461 . S
C215 C214 1.474 . S
C216 C211 1.342 . S
C216 C214 1.285 . S
C216 H235 0.930 . S
C217 C220 1.424 . S
C217 C222 1.245 . S
C217 C223 1.428 . S
C218 C221 1.260 . S
C218 C222 1.477 . S
C218 H236 0.932 . S
C219 C220 1.384 . S
C219 C221 1.479 . S
C219 H237 0.929 . S
C220 C217 1.424 . S
C220 C219 1.384 . S
C220 H238 0.928 . S
C221 C218 1.260 . S
C221 C219 1.479 . S
C222 C217 1.245 . S
C222 C218 1.477 . S
C222 H239 0.932 . S
C223 U206 2.882 . S
C223 C217 1.428 . S
C223 O226 1.301 . S
C223 O227 1.282 . S
O224 U206 2.441 . S
O224 C210 1.249 . S
O225 U206 2.420 . S
O225 C210 1.202 . S
O226 U206 2.455 . S
O226 C223 1.301 . S
O227 U206 2.449 . S
O227 C223 1.282 . S
H228 C201 0.931 . S
H229 C203 0.929 . S
H230 C204 0.930 . S
H231 C205 0.931 . S
H232 C212 0.932 . S
H233 C213 0.930 . S
H234 C214 0.929 . S
H235 C216 0.930 . S
H236 C218 0.932 . S
H237 C219 0.929 . S
H238 C220 0.928 . S
H239 C222 0.932 . S
C240 C241 1.264 . S
C240 C245 1.479 . S
C240 C250 1.465 . S
C241 C240 1.264 . S
C241 C243 1.339 . S
C241 H268 0.931 . S
C242 C243 1.395 . S
C242 C244 1.320 . S
C243 C241 1.339 . S
C243 C242 1.395 . S
C243 H269 0.929 . S
C244 C242 1.320 . S
C244 C245 1.405 . S
C244 H270 0.930 . S
C245 C240 1.479 . S
C245 C244 1.405 . S
C245 H271 0.931 . S
U246 O247 2.454 . S
U246 O248 2.458 . S
U246 C249 2.984 . S
U246 C250 2.847 . S
U246 C263 2.882 . S
U246 O264 2.441 . S
U246 O265 2.420 . S
U246 O266 2.455 . S
U246 O267 2.449 . S
O247 U246 2.454 . S
O247 C249 1.353 . S
O248 U246 2.458 . S
O248 C249 1.286 . S
C249 U246 2.984 . S
C249 O247 1.353 . S
C249 O248 1.286 . S
C249 C251 1.363 . S
C250 C240 1.465 . S
C250 U246 2.847 . S
C250 O264 1.249 . S
C250 O265 1.202 . S
C251 C249 1.363 . S
C251 C253 1.408 . S
C251 C256 1.342 . S
C252 C253 1.310 . S
C252 C255 1.461 . S
C252 H272 0.932 . S
C253 C251 1.408 . S
C253 C252 1.310 . S
C253 H273 0.930 . S
C254 C255 1.474 . S
C254 C256 1.285 . S
C254 H274 0.929 . S
C255 C252 1.461 . S
C255 C254 1.474 . S
C256 C251 1.342 . S
C256 C254 1.285 . S
C256 H275 0.930 . S
C257 C260 1.424 . S
C257 C262 1.245 . S
C257 C263 1.428 . S
C258 C261 1.260 . S
C258 C262 1.477 . S
C258 H276 0.932 . S
C259 C260 1.384 . S
C259 C261 1.479 . S
C259 H277 0.929 . S
C260 C257 1.424 . S
C260 C259 1.384 . S
C260 H278 0.928 . S
C261 C258 1.260 . S
C261 C259 1.479 . S
C262 C257 1.245 . S
C262 C258 1.477 . S
C262 H279 0.932 . S
C263 U246 2.882 . S
C263 C257 1.428 . S
C263 O266 1.301 . S
C263 O267 1.282 . S
O264 U246 2.441 . S
O264 C250 1.249 . S
O265 U246 2.420 . S
O265 C250 1.202 . S
O266 U246 2.455 . S
O266 C263 1.301 . S
O267 U246 2.449 . S
O267 C263 1.282 . S
H268 C241 0.931 . S
H269 C243 0.929 . S
H270 C244 0.930 . S
H271 C245 0.931 . S
H272 C252 0.932 . S
H273 C253 0.930 . S
H274 C254 0.929 . S
H275 C256 0.930 . S
H276 C258 0.932 . S
H277 C259 0.929 . S
H278 C260 0.928 . S
H279 C262 0.932 . S
C280 C281 1.264 . S
C280 C285 1.479 . S
C280 C290 1.465 . S
C281 C280 1.264 . S
C281 C283 1.339 . S
C281 H308 0.931 . S
C282 C283 1.395 . S
C282 C284 1.320 . S
C283 C281 1.339 . S
C283 C282 1.395 . S
C283 H309 0.929 . S
C284 C282 1.320 . S
C284 C285 1.405 . S
C284 H310 0.930 . S
C285 C280 1.479 . S
C285 C284 1.405 . S
C285 H311 0.931 . S
U286 O287 2.454 . S
U286 O288 2.458 . S
U286 C289 2.984 . S
U286 C290 2.847 . S
U286 C303 2.882 . S
U286 O304 2.441 . S
U286 O305 2.420 . S
U286 O306 2.455 . S
U286 O307 2.449 . S
O287 U286 2.454 . S
O287 C289 1.353 . S
O288 U286 2.458 . S
O288 C289 1.286 . S
C289 U286 2.984 . S
C289 O287 1.353 . S
C289 O288 1.286 . S
C289 C291 1.363 . S
C290 C280 1.465 . S
C290 U286 2.847 . S
C290 O304 1.249 . S
C290 O305 1.202 . S
C291 C289 1.363 . S
C291 C293 1.408 . S
C291 C296 1.342 . S
C292 C293 1.310 . S
C292 C295 1.461 . S
C292 H312 0.932 . S
C293 C291 1.408 . S
C293 C292 1.310 . S
C293 H313 0.930 . S
C294 C295 1.474 . S
C294 C296 1.285 . S
C294 H314 0.929 . S
C295 C292 1.461 . S
C295 C294 1.474 . S
C296 C291 1.342 . S
C296 C294 1.285 . S
C296 H315 0.930 . S
C297 C300 1.424 . S
C297 C302 1.245 . S
C297 C303 1.428 . S
C298 C301 1.260 . S
C298 C302 1.477 . S
C298 H316 0.932 . S
C299 C300 1.384 . S
C299 C301 1.479 . S
C299 H317 0.929 . S
C300 C297 1.424 . S
C300 C299 1.384 . S
C300 H318 0.928 . S
C301 C298 1.260 . S
C301 C299 1.479 . S
C302 C297 1.245 . S
C302 C298 1.477 . S
C302 H319 0.932 . S
C303 U286 2.882 . S
C303 C297 1.428 . S
C303 O306 1.301 . S
C303 O307 1.282 . S
O304 U286 2.441 . S
O304 C290 1.249 . S
O305 U286 2.420 . S
O305 C290 1.202 . S
O306 U286 2.455 . S
O306 C303 1.301 . S
O307 U286 2.449 . S
O307 C303 1.282 . S
H308 C281 0.931 . S
H309 C283 0.929 . S
H310 C284 0.930 . S
H311 C285 0.931 . S
H312 C292 0.932 . S
H313 C293 0.930 . S
H314 C294 0.929 . S
H315 C296 0.930 . S
H316 C298 0.932 . S
H317 C299 0.929 . S
H318 C300 0.928 . S
H319 C302 0.932 . S
H320 C326 0.930 . S
H321 C329 0.931 . S
H322 C331 0.931 . S
H323 C333 0.930 . S
H324 C335 0.930 . S
H325 C337 0.931 . S
C326 H320 0.930 . S
C326 C327 1.380 . S
C326 C328 1.394 1_455 S
C327 C326 1.380 . S
C327 C331 1.382 . S
C328 C326 1.394 1_655 S
C328 C329 1.400 . S
C329 H321 0.931 . S
C329 C328 1.400 . S
C329 C330 1.375 1_655 S
C330 C329 1.375 1_455 S
C330 C331 1.415 . S
C330 C332 1.501 . S
C331 H322 0.931 . S
C331 C327 1.382 . S
C331 C330 1.415 . S
C332 C330 1.501 . S
C332 C333 1.384 . S
C332 C337 1.408 1_455 S
C333 H323 0.930 . S
C333 C332 1.384 . S
C333 C334 1.389 . S
C334 C333 1.389 . S
C334 C335 1.405 . S
C335 H324 0.930 . S
C335 C334 1.405 . S
C335 C336 1.364 1_455 S
C336 C335 1.364 1_655 S
C336 C337 1.400 . S
C337 H325 0.931 . S
C337 C332 1.408 1_655 S
C337 C336 1.400 . S
H338 C344 0.930 . S
H339 C347 0.931 . S
H340 C349 0.931 . S
H341 C351 0.930 . S
H342 C353 0.930 . S
H343 C355 0.931 . S
C344 H338 0.930 . S
C344 C345 1.380 1_455 S
C344 C346 1.394 . S
C345 C344 1.380 1_655 S
C345 C349 1.382 . S
C346 C344 1.394 . S
C346 C347 1.400 . S
C347 H339 0.931 . S
C347 C346 1.400 . S
C347 C348 1.375 . S
C348 C347 1.375 . S
C348 C349 1.415 1_455 S
C348 C350 1.501 . S
C349 H340 0.931 . S
C349 C345 1.382 . S
C349 C348 1.415 1_655 S
C350 C348 1.501 . S
C350 C351 1.384 1_455 S
C350 C355 1.408 . S
C351 H341 0.930 . S
C351 C350 1.384 1_655 S
C351 C352 1.389 . S
C352 C351 1.389 . S
C352 C353 1.405 1_655 S
C353 H342 0.930 . S
C353 C352 1.405 1_455 S
C353 C354 1.364 . S
C354 C353 1.364 . S
C354 C355 1.400 . S
C355 H343 0.931 . S
C355 C350 1.408 . S
C355 C354 1.400 . S
H356 C362 0.930 . S
H357 C365 0.931 . S
H358 C367 0.931 . S
H359 C369 0.930 . S
H360 C371 0.930 . S
H361 C373 0.931 . S
C362 H356 0.930 . S
C362 C363 1.380 . S
C362 C364 1.394 . S
C363 C362 1.380 . S
C363 C367 1.382 . S
C364 C362 1.394 . S
C364 C365 1.400 . S
C365 H357 0.931 . S
C365 C364 1.400 . S
C365 C366 1.375 . S
C366 C365 1.375 . S
C366 C367 1.415 . S
C366 C368 1.501 1_545 S
C367 H358 0.931 . S
C367 C363 1.382 . S
C367 C366 1.415 . S
C368 C366 1.501 1_565 S
C368 C369 1.384 . S
C368 C373 1.408 . S
C369 H359 0.930 . S
C369 C368 1.384 . S
C369 C370 1.389 . S
C370 C369 1.389 . S
C370 C371 1.405 . S
C371 H360 0.930 . S
C371 C370 1.405 . S
C371 C372 1.364 . S
C372 C371 1.364 . S
C372 C373 1.400 . S
C373 H361 0.931 . S
C373 C368 1.408 . S
C373 C372 1.400 . S
H374 C380 0.930 . S
H375 C383 0.931 . S
H376 C385 0.931 . S
H377 C387 0.930 . S
H378 C389 0.930 . S
H379 C391 0.931 . S
C380 H374 0.930 . S
C380 C381 1.380 . S
C380 C382 1.394 . S
C381 C380 1.380 . S
C381 C385 1.382 . S
C382 C380 1.394 . S
C382 C383 1.400 . S
C383 H375 0.931 . S
C383 C382 1.400 . S
C383 C384 1.375 . S
C384 C383 1.375 . S
C384 C385 1.415 . S
C384 C386 1.501 1_554 S
C385 H376 0.931 . S
C385 C381 1.382 . S
C385 C384 1.415 . S
C386 C384 1.501 1_556 S
C386 C387 1.384 . S
C386 C391 1.408 . S
C387 H377 0.930 . S
C387 C386 1.384 . S
C387 C388 1.389 . S
C388 C387 1.389 . S
C388 C389 1.405 . S
C389 H378 0.930 . S
C389 C388 1.405 . S
C389 C390 1.364 . S
C390 C389 1.364 . S
C390 C391 1.400 . S
C391 H379 0.931 . S
C391 C386 1.408 . S
C391 C390 1.400 . S
H392 C398 0.930 . S
H393 C401 0.931 . S
H394 C403 0.931 . S
H395 C405 0.930 . S
H396 C407 0.930 . S
H397 C409 0.931 . S
C398 H392 0.930 . S
C398 C399 1.380 . S
C398 C400 1.394 . S
C399 C398 1.380 . S
C399 C403 1.382 . S
C400 C398 1.394 . S
C400 C401 1.400 . S
C401 H393 0.931 . S
C401 C400 1.400 . S
C401 C402 1.375 . S
C402 C401 1.375 . S
C402 C403 1.415 . S
C402 C404 1.501 1_545 S
C403 H394 0.931 . S
C403 C399 1.382 . S
C403 C402 1.415 . S
C404 C402 1.501 1_565 S
C404 C405 1.384 . S
C404 C409 1.408 . S
C405 H395 0.930 . S
C405 C404 1.384 . S
C405 C406 1.389 . S
C406 C405 1.389 . S
C406 C407 1.405 . S
C407 H396 0.930 . S
C407 C406 1.405 . S
C407 C408 1.364 . S
C408 C407 1.364 . S
C408 C409 1.400 . S
C409 H397 0.931 . S
C409 C404 1.408 . S
C409 C408 1.400 . S
H410 C416 0.930 . S
H411 C419 0.931 . S
H412 C421 0.931 . S
H413 C423 0.930 . S
H414 C425 0.930 . S
H415 C427 0.931 . S
C416 H410 0.930 . S
C416 C417 1.380 . S
C416 C418 1.394 . S
C417 C416 1.380 . S
C417 C421 1.382 . S
C418 C416 1.394 . S
C418 C419 1.400 . S
C419 H411 0.931 . S
C419 C418 1.400 . S
C419 C420 1.375 . S
C420 C419 1.375 . S
C420 C421 1.415 . S
C420 C422 1.501 1_554 S
C421 H412 0.931 . S
C421 C417 1.382 . S
C421 C420 1.415 . S
C422 C420 1.501 1_556 S
C422 C423 1.384 . S
C422 C427 1.408 . S
C423 H413 0.930 . S
C423 C422 1.384 . S
C423 C424 1.389 . S
C424 C423 1.389 . S
C424 C425 1.405 . S
C425 H414 0.930 . S
C425 C424 1.405 . S
C425 C426 1.364 . S
C426 C425 1.364 . S
C426 C427 1.400 . S
C427 H415 0.931 . S
C427 C422 1.408 . S
C427 C426 1.400 . S
H428 C436 0.929 . S
H429 C438 0.930 . S
H430 C440 0.930 . S
H431 C443 0.929 . S
H432 C446 0.930 . S
H433 C448 0.960 . S
H434 C448 0.960 . S
H435 C448 0.960 . S
C436 H428 0.929 . S
C436 C437 1.377 . S
C436 C438 1.384 . S
C437 C436 1.377 . S
C437 C443 1.390 . S
C438 H429 0.930 . S
C438 C436 1.384 . S
C438 C439 1.372 . S
C439 C438 1.372 . S
C439 C440 1.400 . S
C439 C444 1.490 . S
C440 H430 0.930 . S
C440 C439 1.400 . S
C440 C443 1.386 . S
H441 C457 0.930 . S
H442 C458 0.931 . S
C443 H431 0.929 . S
C443 C437 1.390 . S
C443 C440 1.386 . S
C444 C439 1.490 . S
C444 C446 1.395 . S
C444 C447 1.403 . S
H445 C451 0.930 . S
C446 H432 0.930 . S
C446 C444 1.395 . S
C446 C449 1.403 . S
C447 C444 1.403 . S
C447 C448 1.524 . S
C447 C451 1.400 . S
C448 H433 0.960 . S
C448 H434 0.960 . S
C448 H435 0.960 . S
C448 C447 1.524 . S
C449 C446 1.403 . S
C449 C450 1.392 . S
C449 C453 1.495 . S
C450 C449 1.392 . S
C450 C451 1.385 . S
C450 C452 1.478 . S
C451 H445 0.930 . S
C451 C447 1.400 . S
C451 C450 1.385 . S
C452 C450 1.478 . S
C452 C454 1.381 . S
C452 C458 1.383 . S
C453 C449 1.495 . S
C453 H459 0.959 . S
C453 H460 0.961 . S
C453 H461 0.960 . S
C454 C452 1.381 . S
C454 C455 1.394 . S
C454 H462 0.930 . S
C455 C454 1.394 . S
C455 C456 1.383 . S
C455 H463 0.929 . S
C456 C455 1.383 . S
C456 C457 1.377 . S
C457 H441 0.930 . S
C457 C456 1.377 . S
C457 C458 1.379 . S
C458 H442 0.931 . S
C458 C452 1.383 . S
C458 C457 1.379 . S
H459 C453 0.959 . S
H460 C453 0.961 . S
H461 C453 0.960 . S
H462 C454 0.930 . S
H463 C455 0.929 . S
H464 C472 0.929 . S
H465 C474 0.930 . S
H466 C476 0.930 . S
H467 C479 0.929 . S
H468 C482 0.930 . S
H469 C484 0.960 . S
H470 C484 0.960 . S
H471 C484 0.960 . S
C472 H464 0.929 . S
C472 C473 1.377 . S
C472 C474 1.384 . S
C473 C472 1.377 . S
C473 C479 1.390 . S
C474 H465 0.930 . S
C474 C472 1.384 . S
C474 C475 1.372 . S
C475 C474 1.372 . S
C475 C476 1.400 . S
C475 C480 1.490 . S
C476 H466 0.930 . S
C476 C475 1.400 . S
C476 C479 1.386 . S
H477 C493 0.930 . S
H478 C494 0.931 . S
C479 H467 0.929 . S
C479 C473 1.390 . S
C479 C476 1.386 . S
C480 C475 1.490 . S
C480 C482 1.395 . S
C480 C483 1.403 . S
H481 C487 0.930 . S
C482 H468 0.930 . S
C482 C480 1.395 . S
C482 C485 1.403 . S
C483 C480 1.403 . S
C483 C484 1.524 . S
C483 C487 1.400 . S
C484 H469 0.960 . S
C484 H470 0.960 . S
C484 H471 0.960 . S
C484 C483 1.524 . S
C485 C482 1.403 . S
C485 C486 1.392 . S
C485 C489 1.495 . S
C486 C485 1.392 . S
C486 C487 1.385 . S
C486 C488 1.478 . S
C487 H481 0.930 . S
C487 C483 1.400 . S
C487 C486 1.385 . S
C488 C486 1.478 . S
C488 C490 1.381 . S
C488 C494 1.383 . S
C489 C485 1.495 . S
C489 H495 0.959 . S
C489 H496 0.961 . S
C489 H497 0.960 . S
C490 C488 1.381 . S
C490 C491 1.394 . S
C490 H498 0.930 . S
C491 C490 1.394 . S
C491 C492 1.383 . S
C491 H499 0.929 . S
C492 C491 1.383 . S
C492 C493 1.377 . S
C493 H477 0.930 . S
C493 C492 1.377 . S
C493 C494 1.379 . S
C494 H478 0.931 . S
C494 C488 1.383 . S
C494 C493 1.379 . S
H495 C489 0.959 . S
H496 C489 0.961 . S
H497 C489 0.960 . S
H498 C490 0.930 . S
H499 C491 0.929 . S
H500 C508 0.929 . S
H501 C510 0.930 . S
H502 C512 0.930 . S
H503 C515 0.929 . S
H504 C518 0.930 . S
H505 C520 0.960 . S
H506 C520 0.960 . S
H507 C520 0.960 . S
C508 H500 0.929 . S
C508 C509 1.377 . S
C508 C510 1.384 . S
C509 C508 1.377 . S
C509 C515 1.390 . S
C510 H501 0.930 . S
C510 C508 1.384 . S
C510 C511 1.372 . S
C511 C510 1.372 . S
C511 C512 1.400 . S
C511 C516 1.490 . S
C512 H502 0.930 . S
C512 C511 1.400 . S
C512 C515 1.386 . S
H513 C529 0.930 . S
H514 C530 0.931 . S
C515 H503 0.929 . S
C515 C509 1.390 . S
C515 C512 1.386 . S
C516 C511 1.490 . S
C516 C518 1.395 . S
C516 C519 1.403 . S
H517 C523 0.930 . S
C518 H504 0.930 . S
C518 C516 1.395 . S
C518 C521 1.403 . S
C519 C516 1.403 . S
C519 C520 1.524 . S
C519 C523 1.400 . S
C520 H505 0.960 . S
C520 H506 0.960 . S
C520 H507 0.960 . S
C520 C519 1.524 . S
C521 C518 1.403 . S
C521 C522 1.392 . S
C521 C525 1.495 . S
C522 C521 1.392 . S
C522 C523 1.385 . S
C522 C524 1.478 . S
C523 H517 0.930 . S
C523 C519 1.400 . S
C523 C522 1.385 . S
C524 C522 1.478 . S
C524 C526 1.381 . S
C524 C530 1.383 . S
C525 C521 1.495 . S
C525 H531 0.959 . S
C525 H532 0.961 . S
C525 H533 0.960 . S
C526 C524 1.381 . S
C526 C527 1.394 . S
C526 H534 0.930 . S
C527 C526 1.394 . S
C527 C528 1.383 . S
C527 H535 0.929 . S
C528 C527 1.383 . S
C528 C529 1.377 . S
C529 H513 0.930 . S
C529 C528 1.377 . S
C529 C530 1.379 . S
C530 H514 0.931 . S
C530 C524 1.383 . S
C530 C529 1.379 . S
H531 C525 0.959 . S
H532 C525 0.961 . S
H533 C525 0.960 . S
H534 C526 0.930 . S
H535 C527 0.929 . S
H536 C544 0.929 . S
H537 C546 0.930 . S
H538 C548 0.930 . S
H539 C551 0.929 . S
H540 C554 0.930 . S
H541 C556 0.960 . S
H542 C556 0.960 . S
H543 C556 0.960 . S
C544 H536 0.929 . S
C544 C545 1.377 . S
C544 C546 1.384 . S
C545 C544 1.377 . S
C545 C551 1.390 . S
C546 H537 0.930 . S
C546 C544 1.384 . S
C546 C547 1.372 . S
C547 C546 1.372 . S
C547 C548 1.400 . S
C547 C552 1.490 . S
C548 H538 0.930 . S
C548 C547 1.400 . S
C548 C551 1.386 . S
H549 C565 0.930 . S
H550 C566 0.931 . S
C551 H539 0.929 . S
C551 C545 1.390 . S
C551 C548 1.386 . S
C552 C547 1.490 . S
C552 C554 1.395 . S
C552 C555 1.403 . S
H553 C559 0.930 . S
C554 H540 0.930 . S
C554 C552 1.395 . S
C554 C557 1.403 . S
C555 C552 1.403 . S
C555 C556 1.524 . S
C555 C559 1.400 . S
C556 H541 0.960 . S
C556 H542 0.960 . S
C556 H543 0.960 . S
C556 C555 1.524 . S
C557 C554 1.403 . S
C557 C558 1.392 . S
C557 C561 1.495 . S
C558 C557 1.392 . S
C558 C559 1.385 . S
C558 C560 1.478 . S
C559 H553 0.930 . S
C559 C555 1.400 . S
C559 C558 1.385 . S
C560 C558 1.478 . S
C560 C562 1.381 . S
C560 C566 1.383 . S
C561 C557 1.495 . S
C561 H567 0.959 . S
C561 H568 0.961 . S
C561 H569 0.960 . S
C562 C560 1.381 . S
C562 C563 1.394 . S
C562 H570 0.930 . S
C563 C562 1.394 . S
C563 C564 1.383 . S
C563 H571 0.929 . S
C564 C563 1.383 . S
C564 C565 1.377 . S
C565 H549 0.930 . S
C565 C564 1.377 . S
C565 C566 1.379 . S
C566 H550 0.931 . S
C566 C560 1.383 . S
C566 C565 1.379 . S
H567 C561 0.959 . S
H568 C561 0.961 . S
H569 C561 0.960 . S
H570 C562 0.930 . S
H571 C563 0.929 . S
H572 C580 0.929 . S
H573 C582 0.930 . S
H574 C584 0.930 . S
H575 C587 0.929 . S
H576 C590 0.930 . S
H577 C592 0.960 . S
H578 C592 0.960 . S
H579 C592 0.960 . S
C580 H572 0.929 . S
C580 C581 1.377 . S
C580 C582 1.384 . S
C581 C580 1.377 . S
C581 C587 1.390 . S
C582 H573 0.930 . S
C582 C580 1.384 . S
C582 C583 1.372 . S
C583 C582 1.372 . S
C583 C584 1.400 . S
C583 C588 1.490 . S
C584 H574 0.930 . S
C584 C583 1.400 . S
C584 C587 1.386 . S
H585 C601 0.930 . S
H586 C602 0.931 . S
C587 H575 0.929 . S
C587 C581 1.390 . S
C587 C584 1.386 . S
C588 C583 1.490 . S
C588 C590 1.395 . S
C588 C591 1.403 . S
H589 C595 0.930 . S
C590 H576 0.930 . S
C590 C588 1.395 . S
C590 C593 1.403 . S
C591 C588 1.403 . S
C591 C592 1.524 . S
C591 C595 1.400 . S
C592 H577 0.960 . S
C592 H578 0.960 . S
C592 H579 0.960 . S
C592 C591 1.524 . S
C593 C590 1.403 . S
C593 C594 1.392 . S
C593 C597 1.495 . S
C594 C593 1.392 . S
C594 C595 1.385 . S
C594 C596 1.478 . S
C595 H589 0.930 . S
C595 C591 1.400 . S
C595 C594 1.385 . S
C596 C594 1.478 . S
C596 C598 1.381 . S
C596 C602 1.383 . S
C597 C593 1.495 . S
C597 H603 0.959 . S
C597 H604 0.961 . S
C597 H605 0.960 . S
C598 C596 1.381 . S
C598 C599 1.394 . S
C598 H606 0.930 . S
C599 C598 1.394 . S
C599 C600 1.383 . S
C599 H607 0.929 . S
C600 C599 1.383 . S
C600 C601 1.377 . S
C601 H585 0.930 . S
C601 C600 1.377 . S
C601 C602 1.379 . S
C602 H586 0.931 . S
C602 C596 1.383 . S
C602 C601 1.379 . S
H603 C597 0.959 . S
H604 C597 0.961 . S
H605 C597 0.960 . S
H606 C598 0.930 . S
H607 C599 0.929 . S
H608 C616 0.929 . S
H609 C618 0.930 . S
H610 C620 0.930 . S
H611 C623 0.929 . S
H612 C626 0.930 . S
H613 C628 0.960 . S
H614 C628 0.960 . S
H615 C628 0.960 . S
C616 H608 0.929 . S
C616 C617 1.377 . S
C616 C618 1.384 . S
C617 C616 1.377 . S
C617 C623 1.390 . S
C618 H609 0.930 . S
C618 C616 1.384 . S
C618 C619 1.372 . S
C619 C618 1.372 . S
C619 C620 1.400 . S
C619 C624 1.490 . S
C620 H610 0.930 . S
C620 C619 1.400 . S
C620 C623 1.386 . S
H621 C637 0.930 . S
H622 C638 0.931 . S
C623 H611 0.929 . S
C623 C617 1.390 . S
C623 C620 1.386 . S
C624 C619 1.490 . S
C624 C626 1.395 . S
C624 C627 1.403 . S
H625 C631 0.930 . S
C626 H612 0.930 . S
C626 C624 1.395 . S
C626 C629 1.403 . S
C627 C624 1.403 . S
C627 C628 1.524 . S
C627 C631 1.400 . S
C628 H613 0.960 . S
C628 H614 0.960 . S
C628 H615 0.960 . S
C628 C627 1.524 . S
C629 C626 1.403 . S
C629 C630 1.392 . S
C629 C633 1.495 . S
C630 C629 1.392 . S
C630 C631 1.385 . S
C630 C632 1.478 . S
C631 H625 0.930 . S
C631 C627 1.400 . S
C631 C630 1.385 . S
C632 C630 1.478 . S
C632 C634 1.381 . S
C632 C638 1.383 . S
C633 C629 1.495 . S
C633 H639 0.959 . S
C633 H640 0.961 . S
C633 H641 0.960 . S
C634 C632 1.381 . S
C634 C635 1.394 . S
C634 H642 0.930 . S
C635 C634 1.394 . S
C635 C636 1.383 . S
C635 H643 0.929 . S
C636 C635 1.383 . S
C636 C637 1.377 . S
C637 H621 0.930 . S
C637 C636 1.377 . S
C637 C638 1.379 . S
C638 H622 0.931 . S
C638 C632 1.383 . S
C638 C637 1.379 . S
H639 C633 0.959 . S
H640 C633 0.961 . S
H641 C633 0.960 . S
H642 C634 0.930 . S
H643 C635 0.929 . S
H644 C652 0.929 . S
H645 C654 0.930 . S
H646 C656 0.930 . S
H647 C659 0.929 . S
H648 C662 0.930 . S
H649 C664 0.960 . S
H650 C664 0.960 . S
H651 C664 0.960 . S
C652 H644 0.929 . S
C652 C653 1.377 . S
C652 C654 1.384 . S
C653 C652 1.377 . S
C653 C659 1.390 . S
C654 H645 0.930 . S
C654 C652 1.384 . S
C654 C655 1.372 . S
C655 C654 1.372 . S
C655 C656 1.400 . S
C655 C660 1.490 . S
C656 H646 0.930 . S
C656 C655 1.400 . S
C656 C659 1.386 . S
H657 C673 0.930 . S
H658 C674 0.931 . S
C659 H647 0.929 . S
C659 C653 1.390 . S
C659 C656 1.386 . S
C660 C655 1.490 . S
C660 C662 1.395 . S
C660 C663 1.403 . S
H661 C667 0.930 . S
C662 H648 0.930 . S
C662 C660 1.395 . S
C662 C665 1.403 . S
C663 C660 1.403 . S
C663 C664 1.524 . S
C663 C667 1.400 . S
C664 H649 0.960 . S
C664 H650 0.960 . S
C664 H651 0.960 . S
C664 C663 1.524 . S
C665 C662 1.403 . S
C665 C666 1.392 . S
C665 C669 1.495 . S
C666 C665 1.392 . S
C666 C667 1.385 . S
C666 C668 1.478 . S
C667 H661 0.930 . S
C667 C663 1.400 . S
C667 C666 1.385 . S
C668 C666 1.478 . S
C668 C670 1.381 . S
C668 C674 1.383 . S
C669 C665 1.495 . S
C669 H675 0.959 . S
C669 H676 0.961 . S
C669 H677 0.960 . S
C670 C668 1.381 . S
C670 C671 1.394 . S
C670 H678 0.930 . S
C671 C670 1.394 . S
C671 C672 1.383 . S
C671 H679 0.929 . S
C672 C671 1.383 . S
C672 C673 1.377 . S
C673 H657 0.930 . S
C673 C672 1.377 . S
C673 C674 1.379 . S
C674 H658 0.931 . S
C674 C668 1.383 . S
C674 C673 1.379 . S
H675 C669 0.959 . S
H676 C669 0.961 . S
H677 C669 0.960 . S
H678 C670 0.930 . S
H679 C671 0.929 . S
H680 C688 0.929 . S
H681 C690 0.930 . S
H682 C692 0.930 . S
H683 C695 0.929 . S
H684 C698 0.930 . S
H685 C700 0.960 . S
H686 C700 0.960 . S
H687 C700 0.960 . S
C688 H680 0.929 . S
C688 C689 1.377 . S
C688 C690 1.384 . S
C689 C688 1.377 . S
C689 C695 1.390 . S
C690 H681 0.930 . S
C690 C688 1.384 . S
C690 C691 1.372 . S
C691 C690 1.372 . S
C691 C692 1.400 . S
C691 C696 1.490 . S
C692 H682 0.930 . S
C692 C691 1.400 . S
C692 C695 1.386 . S
H693 C709 0.930 . S
H694 C710 0.931 . S
C695 H683 0.929 . S
C695 C689 1.390 . S
C695 C692 1.386 . S
C696 C691 1.490 . S
C696 C698 1.395 . S
C696 C699 1.403 . S
H697 C703 0.930 . S
C698 H684 0.930 . S
C698 C696 1.395 . S
C698 C701 1.403 . S
C699 C696 1.403 . S
C699 C700 1.524 . S
C699 C703 1.400 . S
C700 H685 0.960 . S
C700 H686 0.960 . S
C700 H687 0.960 . S
C700 C699 1.524 . S
C701 C698 1.403 . S
C701 C702 1.392 . S
C701 C705 1.495 . S
C702 C701 1.392 . S
C702 C703 1.385 . S
C702 C704 1.478 . S
C703 H697 0.930 . S
C703 C699 1.400 . S
C703 C702 1.385 . S
C704 C702 1.478 . S
C704 C706 1.381 . S
C704 C710 1.383 . S
C705 C701 1.495 . S
C705 H711 0.959 . S
C705 H712 0.961 . S
C705 H713 0.960 . S
C706 C704 1.381 . S
C706 C707 1.394 . S
C706 H714 0.930 . S
C707 C706 1.394 . S
C707 C708 1.383 . S
C707 H715 0.929 . S
C708 C707 1.383 . S
C708 C709 1.377 . S
C709 H693 0.930 . S
C709 C708 1.377 . S
C709 C710 1.379 . S
C710 H694 0.931 . S
C710 C704 1.383 . S
C710 C709 1.379 . S
H711 C705 0.959 . S
H712 C705 0.961 . S
H713 C705 0.960 . S
H714 C706 0.930 . S
H715 C707 0.929 . S
H716 C724 0.929 . S
H717 C726 0.930 . S
H718 C728 0.930 . S
H719 C731 0.929 . S
H720 C734 0.930 . S
H721 C736 0.960 . S
H722 C736 0.960 . S
H723 C736 0.960 . S
C724 H716 0.929 . S
C724 C725 1.377 . S
C724 C726 1.384 . S
C725 C724 1.377 . S
C725 C731 1.390 . S
C726 H717 0.930 . S
C726 C724 1.384 . S
C726 C727 1.372 . S
C727 C726 1.372 . S
C727 C728 1.400 . S
C727 C732 1.490 . S
C728 H718 0.930 . S
C728 C727 1.400 . S
C728 C731 1.386 . S
H729 C745 0.930 . S
H730 C746 0.931 . S
C731 H719 0.929 . S
C731 C725 1.390 . S
C731 C728 1.386 . S
C732 C727 1.490 . S
C732 C734 1.395 . S
C732 C735 1.403 . S
H733 C739 0.930 . S
C734 H720 0.930 . S
C734 C732 1.395 . S
C734 C737 1.403 . S
C735 C732 1.403 . S
C735 C736 1.524 . S
C735 C739 1.400 . S
C736 H721 0.960 . S
C736 H722 0.960 . S
C736 H723 0.960 . S
C736 C735 1.524 . S
C737 C734 1.403 . S
C737 C738 1.392 . S
C737 C741 1.495 . S
C738 C737 1.392 . S
C738 C739 1.385 . S
C738 C740 1.478 . S
C739 H733 0.930 . S
C739 C735 1.400 . S
C739 C738 1.385 . S
C740 C738 1.478 . S
C740 C742 1.381 . S
C740 C746 1.383 . S
C741 C737 1.495 . S
C741 H747 0.959 . S
C741 H748 0.961 . S
C741 H749 0.960 . S
C742 C740 1.381 . S
C742 C743 1.394 . S
C742 H750 0.930 . S
C743 C742 1.394 . S
C743 C744 1.383 . S
C743 H751 0.929 . S
C744 C743 1.383 . S
C744 C745 1.377 . S
C745 H729 0.930 . S
C745 C744 1.377 . S
C745 C746 1.379 . S
C746 H730 0.931 . S
C746 C740 1.383 . S
C746 C745 1.379 . S
H747 C741 0.959 . S
H748 C741 0.961 . S
H749 C741 0.960 . S
H750 C742 0.930 . S
H751 C743 0.929 . S
H752 C760 0.929 . S
H753 C762 0.930 . S
H754 C764 0.930 . S
H755 C767 0.929 . S
H756 C770 0.930 . S
H757 C772 0.960 . S
H758 C772 0.960 . S
H759 C772 0.960 . S
C760 H752 0.929 . S
C760 C761 1.377 . S
C760 C762 1.384 . S
C761 C760 1.377 . S
C761 C767 1.390 . S
C762 H753 0.930 . S
C762 C760 1.384 . S
C762 C763 1.372 . S
C763 C762 1.372 . S
C763 C764 1.400 . S
C763 C768 1.490 . S
C764 H754 0.930 . S
C764 C763 1.400 . S
C764 C767 1.386 . S
H765 C781 0.930 . S
H766 C782 0.931 . S
C767 H755 0.929 . S
C767 C761 1.390 . S
C767 C764 1.386 . S
C768 C763 1.490 . S
C768 C770 1.395 . S
C768 C771 1.403 . S
H769 C775 0.930 . S
C770 H756 0.930 . S
C770 C768 1.395 . S
C770 C773 1.403 . S
C771 C768 1.403 . S
C771 C772 1.524 . S
C771 C775 1.400 . S
C772 H757 0.960 . S
C772 H758 0.960 . S
C772 H759 0.960 . S
C772 C771 1.524 . S
C773 C770 1.403 . S
C773 C774 1.392 . S
C773 C777 1.495 . S
C774 C773 1.392 . S
C774 C775 1.385 . S
C774 C776 1.478 . S
C775 H769 0.930 . S
C775 C771 1.400 . S
C775 C774 1.385 . S
C776 C774 1.478 . S
C776 C778 1.381 . S
C776 C782 1.383 . S
C777 C773 1.495 . S
C777 H783 0.959 . S
C777 H784 0.961 . S
C777 H785 0.960 . S
C778 C776 1.381 . S
C778 C779 1.394 . S
C778 H786 0.930 . S
C779 C778 1.394 . S
C779 C780 1.383 . S
C779 H787 0.929 . S
C780 C779 1.383 . S
C780 C781 1.377 . S
C781 H765 0.930 . S
C781 C780 1.377 . S
C781 C782 1.379 . S
C782 H766 0.931 . S
C782 C776 1.383 . S
C782 C781 1.379 . S
H783 C777 0.959 . S
H784 C777 0.961 . S
H785 C777 0.960 . S
H786 C778 0.930 . S
H787 C779 0.929 . S
H788 C796 0.929 . S
H789 C798 0.930 . S
H790 C800 0.930 . S
H791 C803 0.929 . S
H792 C806 0.930 . S
H793 C808 0.960 . S
H794 C808 0.960 . S
H795 C808 0.960 . S
C796 H788 0.929 . S
C796 C797 1.377 . S
C796 C798 1.384 . S
C797 C796 1.377 . S
C797 C803 1.390 . S
C798 H789 0.930 . S
C798 C796 1.384 . S
C798 C799 1.372 . S
C799 C798 1.372 . S
C799 C800 1.400 . S
C799 C804 1.490 . S
C800 H790 0.930 . S
C800 C799 1.400 . S
C800 C803 1.386 . S
H801 C817 0.930 . S
H802 C818 0.931 . S
C803 H791 0.929 . S
C803 C797 1.390 . S
C803 C800 1.386 . S
C804 C799 1.490 . S
C804 C806 1.395 . S
C804 C807 1.403 . S
H805 C811 0.930 . S
C806 H792 0.930 . S
C806 C804 1.395 . S
C806 C809 1.403 . S
C807 C804 1.403 . S
C807 C808 1.524 . S
C807 C811 1.400 . S
C808 H793 0.960 . S
C808 H794 0.960 . S
C808 H795 0.960 . S
C808 C807 1.524 . S
C809 C806 1.403 . S
C809 C810 1.392 . S
C809 C813 1.495 . S
C810 C809 1.392 . S
C810 C811 1.385 . S
C810 C812 1.478 . S
C811 H805 0.930 . S
C811 C807 1.400 . S
C811 C810 1.385 . S
C812 C810 1.478 . S
C812 C814 1.381 . S
C812 C818 1.383 . S
C813 C809 1.495 . S
C813 H819 0.959 . S
C813 H820 0.961 . S
C813 H821 0.960 . S
C814 C812 1.381 . S
C814 C815 1.394 . S
C814 H822 0.930 . S
C815 C814 1.394 . S
C815 C816 1.383 . S
C815 H823 0.929 . S
C816 C815 1.383 . S
C816 C817 1.377 . S
C817 H801 0.930 . S
C817 C816 1.377 . S
C817 C818 1.379 . S
C818 H802 0.931 . S
C818 C812 1.383 . S
C818 C817 1.379 . S
H819 C813 0.959 . S
H820 C813 0.961 . S
H821 C813 0.960 . S
H822 C814 0.930 . S
H823 C815 0.929 . S
H824 C832 0.929 . S
H825 C834 0.930 . S
H826 C836 0.930 . S
H827 C839 0.929 . S
H828 C842 0.930 . S
H829 C844 0.960 . S
H830 C844 0.960 . S
H831 C844 0.960 . S
C832 H824 0.929 . S
C832 C833 1.377 . S
C832 C834 1.384 . S
C833 C832 1.377 . S
C833 C839 1.390 . S
C834 H825 0.930 . S
C834 C832 1.384 . S
C834 C835 1.372 . S
C835 C834 1.372 . S
C835 C836 1.400 . S
C835 C840 1.490 . S
C836 H826 0.930 . S
C836 C835 1.400 . S
C836 C839 1.386 . S
H837 C853 0.930 . S
H838 C854 0.931 . S
C839 H827 0.929 . S
C839 C833 1.390 . S
C839 C836 1.386 . S
C840 C835 1.490 . S
C840 C842 1.395 . S
C840 C843 1.403 . S
H841 C847 0.930 . S
C842 H828 0.930 . S
C842 C840 1.395 . S
C842 C845 1.403 . S
C843 C840 1.403 . S
C843 C844 1.524 . S
C843 C847 1.400 . S
C844 H829 0.960 . S
C844 H830 0.960 . S
C844 H831 0.960 . S
C844 C843 1.524 . S
C845 C842 1.403 . S
C845 C846 1.392 . S
C845 C849 1.495 . S
C846 C845 1.392 . S
C846 C847 1.385 . S
C846 C848 1.478 . S
C847 H841 0.930 . S
C847 C843 1.400 . S
C847 C846 1.385 . S
C848 C846 1.478 . S
C848 C850 1.381 . S
C848 C854 1.383 . S
C849 C845 1.495 . S
C849 H855 0.959 . S
C849 H856 0.961 . S
C849 H857 0.960 . S
C850 C848 1.381 . S
C850 C851 1.394 . S
C850 H858 0.930 . S
C851 C850 1.394 . S
C851 C852 1.383 . S
C851 H859 0.929 . S
C852 C851 1.383 . S
C852 C853 1.377 . S
C853 H837 0.930 . S
C853 C852 1.377 . S
C853 C854 1.379 . S
C854 H838 0.931 . S
C854 C848 1.383 . S
C854 C853 1.379 . S
H855 C849 0.959 . S
H856 C849 0.961 . S
H857 C849 0.960 . S
H858 C850 0.930 . S
H859 C851 0.929 . S
H860 C868 0.929 . S
H861 C870 0.930 . S
H862 C872 0.930 . S
H863 C875 0.929 . S
H864 C878 0.930 . S
H865 C880 0.960 . S
H866 C880 0.960 . S
H867 C880 0.960 . S
C868 H860 0.929 . S
C868 C869 1.377 . S
C868 C870 1.384 . S
C869 C868 1.377 . S
C869 C875 1.390 . S
C870 H861 0.930 . S
C870 C868 1.384 . S
C870 C871 1.372 . S
C871 C870 1.372 . S
C871 C872 1.400 . S
C871 C876 1.490 . S
C872 H862 0.930 . S
C872 C871 1.400 . S
C872 C875 1.386 . S
H873 C889 0.930 . S
H874 C890 0.931 . S
C875 H863 0.929 . S
C875 C869 1.390 . S
C875 C872 1.386 . S
C876 C871 1.490 . S
C876 C878 1.395 . S
C876 C879 1.403 . S
H877 C883 0.930 . S
C878 H864 0.930 . S
C878 C876 1.395 . S
C878 C881 1.403 . S
C879 C876 1.403 . S
C879 C880 1.524 . S
C879 C883 1.400 . S
C880 H865 0.960 . S
C880 H866 0.960 . S
C880 H867 0.960 . S
C880 C879 1.524 . S
C881 C878 1.403 . S
C881 C882 1.392 . S
C881 C885 1.495 . S
C882 C881 1.392 . S
C882 C883 1.385 . S
C882 C884 1.478 . S
C883 H877 0.930 . S
C883 C879 1.400 . S
C883 C882 1.385 . S
C884 C882 1.478 . S
C884 C886 1.381 . S
C884 C890 1.383 . S
C885 C881 1.495 . S
C885 H891 0.959 . S
C885 H892 0.961 . S
C885 H893 0.960 . S
C886 C884 1.381 . S
C886 C887 1.394 . S
C886 H894 0.930 . S
C887 C886 1.394 . S
C887 C888 1.383 . S
C887 H895 0.929 . S
C888 C887 1.383 . S
C888 C889 1.377 . S
C889 H873 0.930 . S
C889 C888 1.377 . S
C889 C890 1.379 . S
C890 H874 0.931 . S
C890 C884 1.383 . S
C890 C889 1.379 . S
H891 C885 0.959 . S
H892 C885 0.961 . S
H893 C885 0.960 . S
H894 C886 0.930 . S
H895 C887 0.929 . S
H896 C904 0.929 . S
H897 C906 0.930 . S
H898 C908 0.930 . S
H899 C911 0.929 . S
H900 C914 0.930 . S
H901 C916 0.960 . S
H902 C916 0.960 . S
H903 C916 0.960 . S
C904 H896 0.929 . S
C904 C905 1.377 . S
C904 C906 1.384 . S
C905 C904 1.377 . S
C905 C911 1.390 . S
C906 H897 0.930 . S
C906 C904 1.384 . S
C906 C907 1.372 . S
C907 C906 1.372 . S
C907 C908 1.400 . S
C907 C912 1.490 . S
C908 H898 0.930 . S
C908 C907 1.400 . S
C908 C911 1.386 . S
H909 C925 0.930 . S
H910 C926 0.931 . S
C911 H899 0.929 . S
C911 C905 1.390 . S
C911 C908 1.386 . S
C912 C907 1.490 . S
C912 C914 1.395 . S
C912 C915 1.403 . S
H913 C919 0.930 . S
C914 H900 0.930 . S
C914 C912 1.395 . S
C914 C917 1.403 . S
C915 C912 1.403 . S
C915 C916 1.524 . S
C915 C919 1.400 . S
C916 H901 0.960 . S
C916 H902 0.960 . S
C916 H903 0.960 . S
C916 C915 1.524 . S
C917 C914 1.403 . S
C917 C918 1.392 . S
C917 C921 1.495 . S
C918 C917 1.392 . S
C918 C919 1.385 . S
C918 C920 1.478 . S
C919 H913 0.930 . S
C919 C915 1.400 . S
C919 C918 1.385 . S
C920 C918 1.478 . S
C920 C922 1.381 . S
C920 C926 1.383 . S
C921 C917 1.495 . S
C921 H927 0.959 . S
C921 H928 0.961 . S
C921 H929 0.960 . S
C922 C920 1.381 . S
C922 C923 1.394 . S
C922 H930 0.930 . S
C923 C922 1.394 . S
C923 C924 1.383 . S
C923 H931 0.929 . S
C924 C923 1.383 . S
C924 C925 1.377 . S
C925 H909 0.930 . S
C925 C924 1.377 . S
C925 C926 1.379 . S
C926 H910 0.931 . S
C926 C920 1.383 . S
C926 C925 1.379 . S
H927 C921 0.959 . S
H928 C921 0.961 . S
H929 C921 0.960 . S
H930 C922 0.930 . S
H931 C923 0.929 . S
H932 C940 0.929 . S
H933 C942 0.930 . S
H934 C944 0.930 . S
H935 C947 0.929 . S
H936 C950 0.930 . S
H937 C952 0.960 . S
H938 C952 0.960 . S
H939 C952 0.960 . S
C940 H932 0.929 . S
C940 C941 1.377 . S
C940 C942 1.384 . S
C941 C940 1.377 . S
C941 C947 1.390 . S
C942 H933 0.930 . S
C942 C940 1.384 . S
C942 C943 1.372 . S
C943 C942 1.372 . S
C943 C944 1.400 . S
C943 C948 1.490 . S
C944 H934 0.930 . S
C944 C943 1.400 . S
C944 C947 1.386 . S
H945 C961 0.930 . S
H946 C962 0.931 . S
C947 H935 0.929 . S
C947 C941 1.390 . S
C947 C944 1.386 . S
C948 C943 1.490 . S
C948 C950 1.395 . S
C948 C951 1.403 . S
H949 C955 0.930 . S
C950 H936 0.930 . S
C950 C948 1.395 . S
C950 C953 1.403 . S
C951 C948 1.403 . S
C951 C952 1.524 . S
C951 C955 1.400 . S
C952 H937 0.960 . S
C952 H938 0.960 . S
C952 H939 0.960 . S
C952 C951 1.524 . S
C953 C950 1.403 . S
C953 C954 1.392 . S
C953 C957 1.495 . S
C954 C953 1.392 . S
C954 C955 1.385 . S
C954 C956 1.478 . S
C955 H949 0.930 . S
C955 C951 1.400 . S
C955 C954 1.385 . S
C956 C954 1.478 . S
C956 C958 1.381 . S
C956 C962 1.383 . S
C957 C953 1.495 . S
C957 H963 0.959 . S
C957 H964 0.961 . S
C957 H965 0.960 . S
C958 C956 1.381 . S
C958 C959 1.394 . S
C958 H966 0.930 . S
C959 C958 1.394 . S
C959 C960 1.383 . S
C959 H967 0.929 . S
C960 C959 1.383 . S
C960 C961 1.377 . S
C961 H945 0.930 . S
C961 C960 1.377 . S
C961 C962 1.379 . S
C962 H946 0.931 . S
C962 C956 1.383 . S
C962 C961 1.379 . S
H963 C957 0.959 . S
H964 C957 0.961 . S
H965 C957 0.960 . S
H966 C958 0.930 . S
H967 C959 0.929 . S
H968 C976 0.929 . S
H969 C978 0.930 . S
H970 C980 0.930 . S
H971 C983 0.929 . S
H972 C986 0.930 . S
H973 C988 0.960 . S
H974 C988 0.960 . S
H975 C988 0.960 . S
C976 H968 0.929 . S
C976 C977 1.377 . S
C976 C978 1.384 . S
C977 C976 1.377 . S
C977 C983 1.390 . S
C978 H969 0.930 . S
C978 C976 1.384 . S
C978 C979 1.372 . S
C979 C978 1.372 . S
C979 C980 1.400 . S
C979 C984 1.490 . S
C980 H970 0.930 . S
C980 C979 1.400 . S
C980 C983 1.386 . S
H981 C997 0.930 . S
H982 C998 0.931 . S
C983 H971 0.929 . S
C983 C977 1.390 . S
C983 C980 1.386 . S
C984 C979 1.490 . S
C984 C986 1.395 . S
C984 C987 1.403 . S
H985 C991 0.930 . S
C986 H972 0.930 . S
C986 C984 1.395 . S
C986 C989 1.403 . S
C987 C984 1.403 . S
C987 C988 1.524 . S
C987 C991 1.400 . S
C988 H973 0.960 . S
C988 H974 0.960 . S
C988 H975 0.960 . S
C988 C987 1.524 . S
C989 C986 1.403 . S
C989 C990 1.392 . S
C989 C993 1.495 . S
C990 C989 1.392 . S
C990 C991 1.385 . S
C990 C992 1.478 . S
C991 H985 0.930 . S
C991 C987 1.400 . S
C991 C990 1.385 . S
C992 C990 1.478 . S
C992 C994 1.381 . S
C992 C998 1.383 . S
C993 C989 1.495 . S
C993 H999 0.959 . S
C993 H1000 0.961 . S
C993 H1001 0.960 . S
C994 C992 1.381 . S
C994 C995 1.394 . S
C994 H1002 0.930 . S
C995 C994 1.394 . S
C995 C996 1.383 . S
C995 H1003 0.929 . S
C996 C995 1.383 . S
C996 C997 1.377 . S
C997 H981 0.930 . S
C997 C996 1.377 . S
C997 C998 1.379 . S
C998 H982 0.931 . S
C998 C992 1.383 . S
C998 C997 1.379 . S
H999 C993 0.959 . S
H1000 C993 0.961 . S
H1001 C993 0.960 . S
H1002 C994 0.930 . S
H1003 C995 0.929 . S
H1004 C1012 0.929 . S
H1005 C1014 0.930 . S
H1006 C1016 0.930 . S
H1007 C1019 0.929 . S
H1008 C1022 0.930 . S
H1009 C1024 0.960 . S
H1010 C1024 0.960 . S
H1011 C1024 0.960 . S
C1012 H1004 0.929 . S
C1012 C1013 1.377 . S
C1012 C1014 1.384 . S
C1013 C1012 1.377 . S
C1013 C1019 1.390 . S
C1014 H1005 0.930 . S
C1014 C1012 1.384 . S
C1014 C1015 1.372 . S
C1015 C1014 1.372 . S
C1015 C1016 1.400 . S
C1015 C1020 1.490 . S
C1016 H1006 0.930 . S
C1016 C1015 1.400 . S
C1016 C1019 1.386 . S
H1017 C1033 0.930 . S
H1018 C1034 0.931 . S
C1019 H1007 0.929 . S
C1019 C1013 1.390 . S
C1019 C1016 1.386 . S
C1020 C1015 1.490 . S
C1020 C1022 1.395 . S
C1020 C1023 1.403 . S
H1021 C1027 0.930 . S
C1022 H1008 0.930 . S
C1022 C1020 1.395 . S
C1022 C1025 1.403 . S
C1023 C1020 1.403 . S
C1023 C1024 1.524 . S
C1023 C1027 1.400 . S
C1024 H1009 0.960 . S
C1024 H1010 0.960 . S
C1024 H1011 0.960 . S
C1024 C1023 1.524 . S
C1025 C1022 1.403 . S
C1025 C1026 1.392 . S
C1025 C1029 1.495 . S
C1026 C1025 1.392 . S
C1026 C1027 1.385 . S
C1026 C1028 1.478 . S
C1027 H1021 0.930 . S
C1027 C1023 1.400 . S
C1027 C1026 1.385 . S
C1028 C1026 1.478 . S
C1028 C1030 1.381 . S
C1028 C1034 1.383 . S
C1029 C1025 1.495 . S
C1029 H1035 0.959 . S
C1029 H1036 0.961 . S
C1029 H1037 0.960 . S
C1030 C1028 1.381 . S
C1030 C1031 1.394 . S
C1030 H1038 0.930 . S
C1031 C1030 1.394 . S
C1031 C1032 1.383 . S
C1031 H1039 0.929 . S
C1032 C1031 1.383 . S
C1032 C1033 1.377 . S
C1033 H1017 0.930 . S
C1033 C1032 1.377 . S
C1033 C1034 1.379 . S
C1034 H1018 0.931 . S
C1034 C1028 1.383 . S
C1034 C1033 1.379 . S
H1035 C1029 0.959 . S
H1036 C1029 0.961 . S
H1037 C1029 0.960 . S
H1038 C1030 0.930 . S
H1039 C1031 0.929 . S
H1040 C1048 0.929 . S
H1041 C1050 0.930 . S
H1042 C1052 0.930 . S
H1043 C1055 0.929 . S
H1044 C1058 0.930 . S
H1045 C1060 0.960 . S
H1046 C1060 0.960 . S
H1047 C1060 0.960 . S
C1048 H1040 0.929 . S
C1048 C1049 1.377 . S
C1048 C1050 1.384 . S
C1049 C1048 1.377 . S
C1049 C1055 1.390 . S
C1050 H1041 0.930 . S
C1050 C1048 1.384 . S
C1050 C1051 1.372 . S
C1051 C1050 1.372 . S
C1051 C1052 1.400 . S
C1051 C1056 1.490 . S
C1052 H1042 0.930 . S
C1052 C1051 1.400 . S
C1052 C1055 1.386 . S
H1053 C1069 0.930 . S
H1054 C1070 0.931 . S
C1055 H1043 0.929 . S
C1055 C1049 1.390 . S
C1055 C1052 1.386 . S
C1056 C1051 1.490 . S
C1056 C1058 1.395 . S
C1056 C1059 1.403 . S
H1057 C1063 0.930 . S
C1058 H1044 0.930 . S
C1058 C1056 1.395 . S
C1058 C1061 1.403 . S
C1059 C1056 1.403 . S
C1059 C1060 1.524 . S
C1059 C1063 1.400 . S
C1060 H1045 0.960 . S
C1060 H1046 0.960 . S
C1060 H1047 0.960 . S
C1060 C1059 1.524 . S
C1061 C1058 1.403 . S
C1061 C1062 1.392 . S
C1061 C1065 1.495 . S
C1062 C1061 1.392 . S
C1062 C1063 1.385 . S
C1062 C1064 1.478 . S
C1063 H1057 0.930 . S
C1063 C1059 1.400 . S
C1063 C1062 1.385 . S
C1064 C1062 1.478 . S
C1064 C1066 1.381 . S
C1064 C1070 1.383 . S
C1065 C1061 1.495 . S
C1065 H1071 0.959 . S
C1065 H1072 0.961 . S
C1065 H1073 0.960 . S
C1066 C1064 1.381 . S
C1066 C1067 1.394 . S
C1066 H1074 0.930 . S
C1067 C1066 1.394 . S
C1067 C1068 1.383 . S
C1067 H1075 0.929 . S
C1068 C1067 1.383 . S
C1068 C1069 1.377 . S
C1069 H1053 0.930 . S
C1069 C1068 1.377 . S
C1069 C1070 1.379 . S
C1070 H1054 0.931 . S
C1070 C1064 1.383 . S
C1070 C1069 1.379 . S
H1071 C1065 0.959 . S
H1072 C1065 0.961 . S
H1073 C1065 0.960 . S
H1074 C1066 0.930 . S
H1075 C1067 0.929 . S
H1076 C1084 0.929 . S
H1077 C1086 0.930 . S
H1078 C1088 0.930 . S
H1079 C1091 0.929 . S
H1080 C1094 0.930 . S
H1081 C1096 0.960 . S
H1082 C1096 0.960 . S
H1083 C1096 0.960 . S
C1084 H1076 0.929 . S
C1084 C1085 1.377 . S
C1084 C1086 1.384 . S
C1085 C1084 1.377 . S
C1085 C1091 1.390 . S
C1086 H1077 0.930 . S
C1086 C1084 1.384 . S
C1086 C1087 1.372 . S
C1087 C1086 1.372 . S
C1087 C1088 1.400 . S
C1087 C1092 1.490 . S
C1088 H1078 0.930 . S
C1088 C1087 1.400 . S
C1088 C1091 1.386 . S
H1089 C1105 0.930 . S
H1090 C1106 0.931 . S
C1091 H1079 0.929 . S
C1091 C1085 1.390 . S
C1091 C1088 1.386 . S
C1092 C1087 1.490 . S
C1092 C1094 1.395 . S
C1092 C1095 1.403 . S
H1093 C1099 0.930 . S
C1094 H1080 0.930 . S
C1094 C1092 1.395 . S
C1094 C1097 1.403 . S
C1095 C1092 1.403 . S
C1095 C1096 1.524 . S
C1095 C1099 1.400 . S
C1096 H1081 0.960 . S
C1096 H1082 0.960 . S
C1096 H1083 0.960 . S
C1096 C1095 1.524 . S
C1097 C1094 1.403 . S
C1097 C1098 1.392 . S
C1097 C1101 1.495 . S
C1098 C1097 1.392 . S
C1098 C1099 1.385 . S
C1098 C1100 1.478 . S
C1099 H1093 0.930 . S
C1099 C1095 1.400 . S
C1099 C1098 1.385 . S
C1100 C1098 1.478 . S
C1100 C1102 1.381 . S
C1100 C1106 1.383 . S
C1101 C1097 1.495 . S
C1101 H1107 0.959 . S
C1101 H1108 0.961 . S
C1101 H1109 0.960 . S
C1102 C1100 1.381 . S
C1102 C1103 1.394 . S
C1102 H1110 0.930 . S
C1103 C1102 1.394 . S
C1103 C1104 1.383 . S
C1103 H1111 0.929 . S
C1104 C1103 1.383 . S
C1104 C1105 1.377 . S
C1105 H1089 0.930 . S
C1105 C1104 1.377 . S
C1105 C1106 1.379 . S
C1106 H1090 0.931 . S
C1106 C1100 1.383 . S
C1106 C1105 1.379 . S
H1107 C1101 0.959 . S
H1108 C1101 0.961 . S
H1109 C1101 0.960 . S
H1110 C1102 0.930 . S
H1111 C1103 0.929 . S
H1112 C1120 0.929 . S
H1113 C1122 0.930 . S
H1114 C1124 0.930 . S
H1115 C1127 0.929 . S
H1116 C1130 0.930 . S
H1117 C1132 0.960 . S
H1118 C1132 0.960 . S
H1119 C1132 0.960 . S
C1120 H1112 0.929 . S
C1120 C1121 1.377 . S
C1120 C1122 1.384 . S
C1121 C1120 1.377 . S
C1121 C1127 1.390 . S
C1122 H1113 0.930 . S
C1122 C1120 1.384 . S
C1122 C1123 1.372 . S
C1123 C1122 1.372 . S
C1123 C1124 1.400 . S
C1123 C1128 1.490 . S
C1124 H1114 0.930 . S
C1124 C1123 1.400 . S
C1124 C1127 1.386 . S
H1125 C1141 0.930 . S
H1126 C1142 0.931 . S
C1127 H1115 0.929 . S
C1127 C1121 1.390 . S
C1127 C1124 1.386 . S
C1128 C1123 1.490 . S
C1128 C1130 1.395 . S
C1128 C1131 1.403 . S
H1129 C1135 0.930 . S
C1130 H1116 0.930 . S
C1130 C1128 1.395 . S
C1130 C1133 1.403 . S
C1131 C1128 1.403 . S
C1131 C1132 1.524 . S
C1131 C1135 1.400 . S
C1132 H1117 0.960 . S
C1132 H1118 0.960 . S
C1132 H1119 0.960 . S
C1132 C1131 1.524 . S
C1133 C1130 1.403 . S
C1133 C1134 1.392 . S
C1133 C1137 1.495 . S
C1134 C1133 1.392 . S
C1134 C1135 1.385 . S
C1134 C1136 1.478 . S
C1135 H1129 0.930 . S
C1135 C1131 1.400 . S
C1135 C1134 1.385 . S
C1136 C1134 1.478 . S
C1136 C1138 1.381 . S
C1136 C1142 1.383 . S
C1137 C1133 1.495 . S
C1137 H1143 0.959 . S
C1137 H1144 0.961 . S
C1137 H1145 0.960 . S
C1138 C1136 1.381 . S
C1138 C1139 1.394 . S
C1138 H1146 0.930 . S
C1139 C1138 1.394 . S
C1139 C1140 1.383 . S
C1139 H1147 0.929 . S
C1140 C1139 1.383 . S
C1140 C1141 1.377 . S
C1141 H1125 0.930 . S
C1141 C1140 1.377 . S
C1141 C1142 1.379 . S
C1142 H1126 0.931 . S
C1142 C1136 1.383 . S
C1142 C1141 1.379 . S
H1143 C1137 0.959 . S
H1144 C1137 0.961 . S
H1145 C1137 0.960 . S
H1146 C1138 0.930 . S
H1147 C1139 0.929 . S
H1148 C1156 0.929 . S
H1149 C1158 0.930 . S
H1150 C1160 0.930 . S
H1151 C1163 0.929 . S
H1152 C1166 0.930 . S
H1153 C1168 0.960 . S
H1154 C1168 0.960 . S
H1155 C1168 0.960 . S
C1156 H1148 0.929 . S
C1156 C1157 1.377 . S
C1156 C1158 1.384 . S
C1157 C1156 1.377 . S
C1157 C1163 1.390 . S
C1158 H1149 0.930 . S
C1158 C1156 1.384 . S
C1158 C1159 1.372 . S
C1159 C1158 1.372 . S
C1159 C1160 1.400 . S
C1159 C1164 1.490 . S
C1160 H1150 0.930 . S
C1160 C1159 1.400 . S
C1160 C1163 1.386 . S
H1161 C1177 0.930 . S
H1162 C1178 0.931 . S
C1163 H1151 0.929 . S
C1163 C1157 1.390 . S
C1163 C1160 1.386 . S
C1164 C1159 1.490 . S
C1164 C1166 1.395 . S
C1164 C1167 1.403 . S
H1165 C1171 0.930 . S
C1166 H1152 0.930 . S
C1166 C1164 1.395 . S
C1166 C1169 1.403 . S
C1167 C1164 1.403 . S
C1167 C1168 1.524 . S
C1167 C1171 1.400 . S
C1168 H1153 0.960 . S
C1168 H1154 0.960 . S
C1168 H1155 0.960 . S
C1168 C1167 1.524 . S
C1169 C1166 1.403 . S
C1169 C1170 1.392 . S
C1169 C1173 1.495 . S
C1170 C1169 1.392 . S
C1170 C1171 1.385 . S
C1170 C1172 1.478 . S
C1171 H1165 0.930 . S
C1171 C1167 1.400 . S
C1171 C1170 1.385 . S
C1172 C1170 1.478 . S
C1172 C1174 1.381 . S
C1172 C1178 1.383 . S
C1173 C1169 1.495 . S
C1173 H1179 0.959 . S
C1173 H1180 0.961 . S
C1173 H1181 0.960 . S
C1174 C1172 1.381 . S
C1174 C1175 1.394 . S
C1174 H1182 0.930 . S
C1175 C1174 1.394 . S
C1175 C1176 1.383 . S
C1175 H1183 0.929 . S
C1176 C1175 1.383 . S
C1176 C1177 1.377 . S
C1177 H1161 0.930 . S
C1177 C1176 1.377 . S
C1177 C1178 1.379 . S
C1178 H1162 0.931 . S
C1178 C1172 1.383 . S
C1178 C1177 1.379 . S
H1179 C1173 0.959 . S
H1180 C1173 0.961 . S
H1181 C1173 0.960 . S
H1182 C1174 0.930 . S
H1183 C1175 0.929 . S
H1184 C1192 0.929 . S
H1185 C1194 0.930 . S
H1186 C1196 0.930 . S
H1187 C1199 0.929 . S
H1188 C1202 0.930 . S
H1189 C1204 0.960 . S
H1190 C1204 0.960 . S
H1191 C1204 0.960 . S
C1192 H1184 0.929 . S
C1192 C1193 1.377 . S
C1192 C1194 1.384 . S
C1193 C1192 1.377 . S
C1193 C1199 1.390 . S
C1194 H1185 0.930 . S
C1194 C1192 1.384 . S
C1194 C1195 1.372 . S
C1195 C1194 1.372 . S
C1195 C1196 1.400 . S
C1195 C1200 1.490 . S
C1196 H1186 0.930 . S
C1196 C1195 1.400 . S
C1196 C1199 1.386 . S
H1197 C1213 0.930 . S
H1198 C1214 0.931 . S
C1199 H1187 0.929 . S
C1199 C1193 1.390 . S
C1199 C1196 1.386 . S
C1200 C1195 1.490 . S
C1200 C1202 1.395 . S
C1200 C1203 1.403 . S
H1201 C1207 0.930 . S
C1202 H1188 0.930 . S
C1202 C1200 1.395 . S
C1202 C1205 1.403 . S
C1203 C1200 1.403 . S
C1203 C1204 1.524 . S
C1203 C1207 1.400 . S
C1204 H1189 0.960 . S
C1204 H1190 0.960 . S
C1204 H1191 0.960 . S
C1204 C1203 1.524 . S
C1205 C1202 1.403 . S
C1205 C1206 1.392 . S
C1205 C1209 1.495 . S
C1206 C1205 1.392 . S
C1206 C1207 1.385 . S
C1206 C1208 1.478 . S
C1207 H1201 0.930 . S
C1207 C1203 1.400 . S
C1207 C1206 1.385 . S
C1208 C1206 1.478 . S
C1208 C1210 1.381 . S
C1208 C1214 1.383 . S
C1209 C1205 1.495 . S
C1209 H1215 0.959 . S
C1209 H1216 0.961 . S
C1209 H1217 0.960 . S
C1210 C1208 1.381 . S
C1210 C1211 1.394 . S
C1210 H1218 0.930 . S
C1211 C1210 1.394 . S
C1211 C1212 1.383 . S
C1211 H1219 0.929 . S
C1212 C1211 1.383 . S
C1212 C1213 1.377 . S
C1213 H1197 0.930 . S
C1213 C1212 1.377 . S
C1213 C1214 1.379 . S
C1214 H1198 0.931 . S
C1214 C1208 1.383 . S
C1214 C1213 1.379 . S
H1215 C1209 0.959 . S
H1216 C1209 0.961 . S
H1217 C1209 0.960 . S
H1218 C1210 0.930 . S
H1219 C1211 0.929 . S
H1220 C1228 0.929 . S
H1221 C1230 0.930 . S
H1222 C1232 0.930 . S
H1223 C1235 0.929 . S
H1224 C1238 0.930 . S
H1225 C1240 0.960 . S
H1226 C1240 0.960 . S
H1227 C1240 0.960 . S
C1228 H1220 0.929 . S
C1228 C1229 1.377 . S
C1228 C1230 1.384 . S
C1229 C1228 1.377 . S
C1229 C1235 1.390 . S
C1230 H1221 0.930 . S
C1230 C1228 1.384 . S
C1230 C1231 1.372 . S
C1231 C1230 1.372 . S
C1231 C1232 1.400 . S
C1231 C1236 1.490 . S
C1232 H1222 0.930 . S
C1232 C1231 1.400 . S
C1232 C1235 1.386 . S
H1233 C1249 0.930 . S
H1234 C1250 0.931 . S
C1235 H1223 0.929 . S
C1235 C1229 1.390 . S
C1235 C1232 1.386 . S
C1236 C1231 1.490 . S
C1236 C1238 1.395 . S
C1236 C1239 1.403 . S
H1237 C1243 0.930 . S
C1238 H1224 0.930 . S
C1238 C1236 1.395 . S
C1238 C1241 1.403 . S
C1239 C1236 1.403 . S
C1239 C1240 1.524 . S
C1239 C1243 1.400 . S
C1240 H1225 0.960 . S
C1240 H1226 0.960 . S
C1240 H1227 0.960 . S
C1240 C1239 1.524 . S
C1241 C1238 1.403 . S
C1241 C1242 1.392 . S
C1241 C1245 1.495 . S
C1242 C1241 1.392 . S
C1242 C1243 1.385 . S
C1242 C1244 1.478 . S
C1243 H1237 0.930 . S
C1243 C1239 1.400 . S
C1243 C1242 1.385 . S
C1244 C1242 1.478 . S
C1244 C1246 1.381 . S
C1244 C1250 1.383 . S
C1245 C1241 1.495 . S
C1245 H1251 0.959 . S
C1245 H1252 0.961 . S
C1245 H1253 0.960 . S
C1246 C1244 1.381 . S
C1246 C1247 1.394 . S
C1246 H1254 0.930 . S
C1247 C1246 1.394 . S
C1247 C1248 1.383 . S
C1247 H1255 0.929 . S
C1248 C1247 1.383 . S
C1248 C1249 1.377 . S
C1249 H1233 0.930 . S
C1249 C1248 1.377 . S
C1249 C1250 1.379 . S
C1250 H1234 0.931 . S
C1250 C1244 1.383 . S
C1250 C1249 1.379 . S
H1251 C1245 0.959 . S
H1252 C1245 0.961 . S
H1253 C1245 0.960 . S
H1254 C1246 0.930 . S
H1255 C1247 0.929 . S
H1256 C1264 0.929 . S
H1257 C1266 0.930 . S
H1258 C1268 0.930 . S
H1259 C1271 0.929 . S
H1260 C1274 0.930 . S
H1261 C1276 0.960 . S
H1262 C1276 0.960 . S
H1263 C1276 0.960 . S
C1264 H1256 0.929 . S
C1264 C1265 1.377 . S
C1264 C1266 1.384 . S
C1265 C1264 1.377 . S
C1265 C1271 1.390 . S
C1266 H1257 0.930 . S
C1266 C1264 1.384 . S
C1266 C1267 1.372 . S
C1267 C1266 1.372 . S
C1267 C1268 1.400 . S
C1267 C1272 1.490 . S
C1268 H1258 0.930 . S
C1268 C1267 1.400 . S
C1268 C1271 1.386 . S
H1269 C1285 0.930 . S
H1270 C1286 0.931 . S
C1271 H1259 0.929 . S
C1271 C1265 1.390 . S
C1271 C1268 1.386 . S
C1272 C1267 1.490 . S
C1272 C1274 1.395 . S
C1272 C1275 1.403 . S
H1273 C1279 0.930 . S
C1274 H1260 0.930 . S
C1274 C1272 1.395 . S
C1274 C1277 1.403 . S
C1275 C1272 1.403 . S
C1275 C1276 1.524 . S
C1275 C1279 1.400 . S
C1276 H1261 0.960 . S
C1276 H1262 0.960 . S
C1276 H1263 0.960 . S
C1276 C1275 1.524 . S
C1277 C1274 1.403 . S
C1277 C1278 1.392 . S
C1277 C1281 1.495 . S
C1278 C1277 1.392 . S
C1278 C1279 1.385 . S
C1278 C1280 1.478 . S
C1279 H1273 0.930 . S
C1279 C1275 1.400 . S
C1279 C1278 1.385 . S
C1280 C1278 1.478 . S
C1280 C1282 1.381 . S
C1280 C1286 1.383 . S
C1281 C1277 1.495 . S
C1281 H1287 0.959 . S
C1281 H1288 0.961 . S
C1281 H1289 0.960 . S
C1282 C1280 1.381 . S
C1282 C1283 1.394 . S
C1282 H1290 0.930 . S
C1283 C1282 1.394 . S
C1283 C1284 1.383 . S
C1283 H1291 0.929 . S
C1284 C1283 1.383 . S
C1284 C1285 1.377 . S
C1285 H1269 0.930 . S
C1285 C1284 1.377 . S
C1285 C1286 1.379 . S
C1286 H1270 0.931 . S
C1286 C1280 1.383 . S
C1286 C1285 1.379 . S
H1287 C1281 0.959 . S
H1288 C1281 0.961 . S
H1289 C1281 0.960 . S
H1290 C1282 0.930 . S
H1291 C1283 0.929 . S
C456 C327 1.565 . S
C437 C15 1.593 . S
C492 C346 1.570 . S
C473 C55 1.599 . S
C528 C336 1.602 . S
C509 C101 1.628 . S
C564 C352 1.643 . S
C545 C141 1.681 . S
C600 C363 1.521 . S
C581 C2 1.553 . S
C636 C388 1.498 . S
C617 C61 1.531 . S
C653 C95 1.665 . S
C672 C406 1.612 . S
C708 C426 1.485 . S
C689 C135 1.547 . S
C744 C372 1.521 . S
C725 C42 1.546 . S
C761 C82 1.527 . S
C780 C382 1.471 . S
C816 C400 1.601 . S
C797 C122 1.676 . S
C852 C417 1.456 . S
C833 C21 1.529 . S
C869 C162 1.713 . S
C888 C345 1.616 . S
C924 C328 1.632 . S
C905 C221 1.680 . S
C941 C255 1.645 . S
C960 C354 1.591 . S
C977 C282 1.609 . S
C996 C334 1.595 . S
C1032 C408 1.639 . S
C1013 C181 1.747 . S
C1068 C418 1.521 . S
C1049 C202 1.563 . S
C1104 C364 1.541 . S
C1085 C242 1.610 . S
C1121 C301 1.548 . S
C1140 C381 1.502 . S
C1176 C399 1.604 . S
C1157 C215 1.717 . S
C1212 C424 1.475 . S
C1193 C261 1.566 . S
C1248 C370 1.570 . S
C1229 C295 1.620 . S
C1265 C175 1.565 . S
C1284 C390 1.515 . S
