# Generated by pormake.
# Topology hwx, (6,3)-cn, num edge types: 1
# Building blocks:
#     Node 0, Type 0, BuildingBlock: IZENUY_clean_sbu_0, # of connection points: 6
#     Node 1, Type 0, BuildingBlock: IZENUY_clean_sbu_0, # of connection points: 6
#     Node 2, Type 0, BuildingBlock: IZENUY_clean_sbu_0, # of connection points: 6
#     Node 3, Type 0, BuildingBlock: IZENUY_clean_sbu_0, # of connection points: 6
#     Node 4, Type 1, BuildingBlock: CUQRIR_clean_linker_1, # of connection points: 3
#     Node 5, Type 1, BuildingBlock: CUQRIR_clean_linker_1, # of connection points: 3
#     Node 6, Type 1, BuildingBlock: CUQRIR_clean_linker_1, # of connection points: 3
#     Node 7, Type 1, BuildingBlock: CUQRIR_clean_linker_1, # of connection points: 3
#     Node 8, Type 1, BuildingBlock: CUQRIR_clean_linker_1, # of connection points: 3
#     Node 9, Type 1, BuildingBlock: CUQRIR_clean_linker_1, # of connection points: 3
#     Node 10, Type 1, BuildingBlock: CUQRIR_clean_linker_1, # of connection points: 3
#     Node 11, Type 1, BuildingBlock: CUQRIR_clean_linker_1, # of connection points: 3
#     Edge 12, Type (0, 1), BuildingBlock: ZUJKAS_clean_linker_0, # of connection points: 2
#     Edge 13, Type (0, 1), BuildingBlock: ZUJKAS_clean_linker_0, # of connection points: 2
#     Edge 14, Type (0, 1), BuildingBlock: ZUJKAS_clean_linker_0, # of connection points: 2
#     Edge 15, Type (0, 1), BuildingBlock: ZUJKAS_clean_linker_0, # of connection points: 2
#     Edge 16, Type (0, 1), BuildingBlock: ZUJKAS_clean_linker_0, # of connection points: 2
#     Edge 17, Type (0, 1), BuildingBlock: ZUJKAS_clean_linker_0, # of connection points: 2
#     Edge 18, Type (0, 1), BuildingBlock: ZUJKAS_clean_linker_0, # of connection points: 2
#     Edge 19, Type (0, 1), BuildingBlock: ZUJKAS_clean_linker_0, # of connection points: 2
#     Edge 20, Type (0, 1), BuildingBlock: ZUJKAS_clean_linker_0, # of connection points: 2
#     Edge 21, Type (0, 1), BuildingBlock: ZUJKAS_clean_linker_0, # of connection points: 2
#     Edge 22, Type (0, 1), BuildingBlock: ZUJKAS_clean_linker_0, # of connection points: 2
#     Edge 23, Type (0, 1), BuildingBlock: ZUJKAS_clean_linker_0, # of connection points: 2
#     Edge 24, Type (0, 1), BuildingBlock: ZUJKAS_clean_linker_0, # of connection points: 2
#     Edge 25, Type (0, 1), BuildingBlock: ZUJKAS_clean_linker_0, # of connection points: 2
#     Edge 26, Type (0, 1), BuildingBlock: ZUJKAS_clean_linker_0, # of connection points: 2
#     Edge 27, Type (0, 1), BuildingBlock: ZUJKAS_clean_linker_0, # of connection points: 2
#     Edge 28, Type (0, 1), BuildingBlock: ZUJKAS_clean_linker_0, # of connection points: 2
#     Edge 29, Type (0, 1), BuildingBlock: ZUJKAS_clean_linker_0, # of connection points: 2
#     Edge 30, Type (0, 1), BuildingBlock: ZUJKAS_clean_linker_0, # of connection points: 2
#     Edge 31, Type (0, 1), BuildingBlock: ZUJKAS_clean_linker_0, # of connection points: 2
#     Edge 32, Type (0, 1), BuildingBlock: ZUJKAS_clean_linker_0, # of connection points: 2
#     Edge 33, Type (0, 1), BuildingBlock: ZUJKAS_clean_linker_0, # of connection points: 2
#     Edge 34, Type (0, 1), BuildingBlock: ZUJKAS_clean_linker_0, # of connection points: 2
#     Edge 35, Type (0, 1), BuildingBlock: ZUJKAS_clean_linker_0, # of connection points: 2
# Relax obj value: 0.001
# Max RMSD: 0.075
# Mean RMSD: 0.054
data_MOF--net-hwx--node1-IZENUY_clean_sbu_0--node2-CUQRIR_clean_linker_1--edge1-ZUJKAS_clean_linker_0
_symmetry_space_group_name_H-M    P1
_symmetry_Int_Tables_number       1
_symmetry_cell_setting            triclinic
loop_
_symmetry_equiv_pos_as_xyz
'x, y, z'
_cell_length_a     63.310768
_cell_length_b     63.34528
_cell_length_c     25.161858
_cell_angle_alpha  90.154407
_cell_angle_beta   90.021191
_cell_angle_gamma 89.934591
loop_
_atom_site_label
_atom_site_type_symbol
_atom_site_fract_x
_atom_site_fract_y
_atom_site_fract_z
_atom_type_partial_charge
Fe0 Fe 0.23387 0.2331 0.06135 0.0
Fe1 Fe 0.23597 0.23134 0.93956 0.0
O2 O 0.2252 0.22211 1.00024 0.0
Fe3 Fe 0.20578 0.20196 0.99977 0.0
O4 O 0.19165 0.21186 0.05871 0.0
O5 O 0.20742 0.24175 0.07847 0.0
O6 O 0.23842 0.25965 0.03461 0.0
C7 C 0.23135 0.26863 0.99335 0.0
C8 C 0.22947 0.18949 0.0851 0.0
O9 O 0.22682 0.25802 0.95242 0.0
C10 C 0.23431 0.18911 0.91819 0.0
O11 O 0.26094 0.22514 0.0488 0.0
O12 O 0.26225 0.23702 0.96698 0.0
O13 O 0.22218 0.18464 0.03997 0.0
O14 O 0.23084 0.20862 0.09933 0.0
C15 C 0.19264 0.22531 0.91467 0.0
O16 O 0.24578 0.20531 0.92231 0.0
O17 O 0.21642 0.18836 0.94078 0.0
C18 C 0.27145 0.23029 0.00832 0.0
O19 O 0.21175 0.22731 0.90083 0.0
O20 O 0.18796 0.21783 0.95959 0.0
C21 C 0.19171 0.22961 0.0821 0.0
Fe22 Fe 0.27445 0.73238 0.56187 0.0
Fe23 Fe 0.30445 0.70271 0.501 0.0
O24 O 0.28419 0.72208 0.501 0.0
Fe25 Fe 0.27367 0.73127 0.43998 0.0
O26 O 0.28179 0.75817 0.45442 0.0
O27 O 0.26913 0.7589 0.53569 0.0
O28 O 0.30037 0.74188 0.58125 0.0
C29 C 0.31658 0.73039 0.58506 0.0
C30 C 0.23758 0.72872 0.50634 0.0
O31 O 0.31763 0.71283 0.56094 0.0
C32 C 0.27713 0.68924 0.41745 0.0
O33 O 0.27795 0.7078 0.59909 0.0
O34 O 0.28853 0.68453 0.53975 0.0
O35 O 0.24695 0.73593 0.46585 0.0
O36 O 0.24785 0.72358 0.54723 0.0
C37 C 0.31735 0.72688 0.41724 0.0
O38 O 0.29484 0.68904 0.44106 0.0
O39 O 0.26499 0.70499 0.42128 0.0
C40 C 0.2803 0.68884 0.58416 0.0
O41 O 0.32197 0.71946 0.46228 0.0
O42 O 0.29829 0.72824 0.40254 0.0
C43 C 0.27629 0.76837 0.49527 0.0
Fe44 Fe 0.77497 0.77791 0.94895 0.0
Fe45 Fe 0.77388 0.77801 0.07082 0.0
O46 O 0.78368 0.78856 0.01046 0.0
Fe47 Fe 0.80209 0.80963 0.01112 0.0
O48 O 0.78452 0.82643 0.97263 0.0
O49 O 0.77736 0.80264 0.91181 0.0
O50 O 0.74786 0.78516 0.96313 0.0
C51 C 0.73782 0.77924 1.00375 0.0
C52 C 0.81685 0.78286 0.92759 0.0
O53 O 0.7475 0.77206 0.04401 0.0
C54 C 0.81712 0.78572 0.09374 0.0
O55 O 0.77095 0.75101 0.97394 0.0
O56 O 0.78386 0.75191 0.05469 0.0
O57 O 0.81626 0.80059 0.95124 0.0
O58 O 0.80158 0.77012 0.93097 0.0
C59 C 0.77389 0.82015 0.09534 0.0
O60 O 0.79833 0.78218 0.10826 0.0
O61 O 0.82101 0.79454 0.04989 0.0
C62 C 0.77886 0.74168 0.01361 0.0
O63 O 0.76337 0.8033 0.09198 0.0
O64 O 0.79125 0.82229 0.07091 0.0
C65 C 0.77765 0.82165 0.92715 0.0
Fe66 Fe 0.70579 0.30982 0.51154 0.0
Fe67 Fe 0.73522 0.27939 0.5716 0.0
O68 O 0.72493 0.28933 0.51101 0.0
Fe69 Fe 0.73389 0.27873 0.44974 0.0
O70 O 0.73117 0.3034 0.41259 0.0
O71 O 0.7226 0.32713 0.47254 0.0
O72 O 0.7163 0.3229 0.57132 0.0
C73 C 0.73396 0.32156 0.59491 0.0
C74 C 0.69186 0.28269 0.42794 0.0
O75 O 0.74513 0.30513 0.59089 0.0
C76 C 0.73079 0.24266 0.51557 0.0
O77 O 0.68751 0.29414 0.55061 0.0
O78 O 0.71076 0.28326 0.60943 0.0
O79 O 0.7075 0.27042 0.43147 0.0
O80 O 0.69181 0.30037 0.45182 0.0
C81 C 0.77115 0.28076 0.50428 0.0
O82 O 0.72598 0.25291 0.55684 0.0
O83 O 0.73821 0.25197 0.47525 0.0
C84 C 0.69179 0.28599 0.59506 0.0
O85 O 0.76165 0.27375 0.54488 0.0
O86 O 0.76091 0.2864 0.46372 0.0
C87 C 0.72999 0.32245 0.42744 0.0
C88 C 0.24153 0.50793 0.9566 0.0
N89 N 0.24511 0.52791 0.97351 0.0
N90 N 0.24211 0.49431 0.99796 0.0
C91 C 0.23918 0.50149 0.89928 0.0
C92 C 0.2463 0.50671 0.0406 0.0
N93 N 0.24831 0.52715 0.02567 0.0
C94 C 0.24696 0.49903 0.0971 0.0
H95 H 0.22228 0.50265 0.88797 0.0
H96 H 0.24449 0.48498 0.89292 0.0
H97 H 0.24836 0.51208 0.87294 0.0
H98 H 0.26358 0.49555 0.10805 0.0
H99 H 0.23756 0.48438 0.10178 0.0
H100 H 0.24083 0.51126 0.12473 0.0
C101 C 0.99903 0.75391 0.55379 0.0
N102 N 0.97891 0.7565 0.53673 0.0
N103 N 0.0121 0.75007 0.51225 0.0
C104 C 0.00563 0.75341 0.61124 0.0
C105 C 0.99916 0.75027 0.46933 0.0
N106 N 0.97896 0.75398 0.4843 0.0
C107 C 0.00648 0.74856 0.41259 0.0
H108 H 0.00948 0.76969 0.62439 0.0
H109 H 0.0198 0.74334 0.61682 0.0
H110 H 0.99266 0.74737 0.63665 0.0
H111 H 0.00571 0.73178 0.39996 0.0
H112 H 0.02302 0.75409 0.40841 0.0
H113 H 0.99619 0.75792 0.38584 0.0
C114 C 0.76224 0.50345 0.05251 0.0
N115 N 0.76118 0.48305 0.03661 0.0
N116 N 0.76803 0.51598 0.01159 0.0
C117 C 0.75901 0.51101 0.10867 0.0
C118 C 0.77056 0.5025 0.97024 0.0
N119 N 0.76655 0.48239 0.98555 0.0
C120 C 0.77532 0.50923 0.91423 0.0
H121 H 0.74194 0.51406 0.1151 0.0
H122 H 0.76779 0.52587 0.11623 0.0
H123 H 0.76422 0.49887 0.13757 0.0
H124 H 0.77053 0.52586 0.90749 0.0
H125 H 0.76708 0.49893 0.88516 0.0
H126 H 0.79257 0.5079 0.90726 0.0
C127 C 0.00977 0.25859 0.45668 0.0
N128 N 0.02997 0.2563 0.47347 0.0
N129 N 0.99667 0.26134 0.49853 0.0
C130 C 1.00282 0.25832 0.39952 0.0
C131 C 0.00953 0.26075 0.54142 0.0
N132 N 0.02988 0.25793 0.5262 0.0
C133 C 1.00207 0.26233 0.59805 0.0
H134 H 0.01513 0.26533 0.37362 0.0
H135 H 0.98776 0.26702 0.39412 0.0
H136 H 1.00031 0.24172 0.38692 0.0
H137 H 0.98528 0.2576 0.60183 0.0
H138 H 1.00352 0.27895 0.61154 0.0
H139 H 0.01189 0.2523 0.62439 0.0
C140 C 0.74481 1.00356 0.5536 0.0
N141 N 0.74612 0.98325 0.53737 0.0
N142 N 0.74271 0.01659 0.51138 0.0
C143 C 0.74487 0.01053 0.6108 0.0
C144 C 0.74273 1.0034 0.46884 0.0
N145 N 0.74467 0.98303 0.48466 0.0
C146 C 0.74294 0.01063 0.41191 0.0
H147 H 0.73816 0.99812 0.63685 0.0
H148 H 0.73572 0.02534 0.61602 0.0
H149 H 0.76141 0.01341 0.62341 0.0
H150 H 0.75 0.02659 0.4085 0.0
H151 H 0.72647 0.01137 0.39699 0.0
H152 H 0.752 0.99949 0.38654 0.0
C153 C 0.50887 0.25577 0.97016 0.0
N154 N 0.52938 0.25762 0.98493 0.0
N155 N 0.49662 0.25108 0.01261 0.0
C156 C 0.50099 0.25682 0.91379 0.0
C157 C 0.51038 0.25003 0.0537 0.0
N158 N 0.53034 0.2538 0.03683 0.0
C159 C 0.50406 0.24702 0.11084 0.0
H160 H 0.49713 0.27345 0.90402 0.0
H161 H 0.48651 0.24718 0.90861 0.0
H162 H 0.51324 0.25117 0.88558 0.0
H163 H 0.50506 0.23 0.12073 0.0
H164 H 0.4876 0.2524 0.1177 0.0
H165 H 0.51478 0.25582 0.13784 0.0
C166 C 0.25951 0.00748 0.45856 0.0
N167 N 0.25887 0.02787 0.47476 0.0
N168 N 0.26494 0.99471 0.49934 0.0
C169 C 0.25619 1.00013 0.40226 0.0
C170 C 0.26767 0.00802 0.54095 0.0
N171 N 0.26413 0.02826 0.52592 0.0
C172 C 0.27209 1.00104 0.59696 0.0
H173 H 0.23907 0.9975 0.39562 0.0
H174 H 0.26466 0.98509 0.39458 0.0
H175 H 0.2617 0.01222 0.3736 0.0
H176 H 0.26686 0.98453 0.60339 0.0
H177 H 0.26404 0.01149 0.62604 0.0
H178 H 0.28935 1.00186 0.60428 0.0
C179 C 0.49936 0.76242 0.04237 0.0
N180 N 0.47897 0.75991 0.02714 0.0
N181 N 0.51221 0.7628 0.99949 0.0
C182 C 0.50686 0.76384 0.099 0.0
C183 C 0.49907 0.76023 0.95764 0.0
N184 N 0.47885 0.75825 0.97442 0.0
C185 C 0.50603 0.75993 0.90049 0.0
H186 H 0.50559 0.78046 0.11264 0.0
H187 H 0.5236 0.75889 0.1027 0.0
H188 H 0.49695 0.75389 0.12528 0.0
H189 H 0.50836 0.74331 0.88779 0.0
H190 H 0.52118 0.76843 0.89521 0.0
H191 H 0.49381 0.76713 0.87459 0.0
H192 H 0.15599 0.20678 0.10252 0.0
H193 H 0.12972 0.2131 0.17181 0.0
H194 H 0.16276 0.2695 0.21983 0.0
H195 H 0.18902 0.2635 0.15011 0.0
H196 H 0.13772 0.21505 0.28062 0.0
H197 H 0.10157 0.28976 0.20917 0.0
H198 H 0.11769 0.27318 0.16708 0.0
H199 H 0.12983 0.29025 0.21534 0.0
C200 C 0.15756 0.2207 0.12728 0.0
C201 C 0.17467 0.23462 0.12066 0.0
C202 C 0.14254 0.22425 0.167 0.0
C203 C 0.14419 0.24183 0.20076 0.0
C204 C 0.16097 0.25601 0.19367 0.0
H205 H 0.06431 0.28132 0.46824 0.0
H206 H 0.0941 0.27781 0.4058 0.0
C207 C 0.17602 0.2525 0.15385 0.0
C208 C 0.1289 0.24464 0.24494 0.0
H209 H 0.09062 0.27748 0.29347 0.0
C210 C 0.12742 0.2287 0.28344 0.0
C211 C 0.11561 0.26255 0.24879 0.0
C212 C 0.11605 0.27986 0.20772 0.0
C213 C 0.11292 0.23012 0.32551 0.0
C214 C 0.09933 0.2478 0.32872 0.0
C215 C 0.10111 0.26397 0.29094 0.0
C216 C 0.0823 0.24922 0.36906 0.0
C217 C 0.11236 0.21272 0.36633 0.0
C218 C 0.06594 0.23428 0.36921 0.0
C219 C 0.0491 0.23629 0.40468 0.0
C220 C 0.04827 0.25332 0.44037 0.0
C221 C 0.06481 0.26802 0.44114 0.0
C222 C 0.08168 0.26607 0.40547 0.0
H223 H 0.12742 0.20371 0.3672 0.0
H224 H 0.10922 0.21914 0.40668 0.0
H225 H 0.09949 0.20153 0.35614 0.0
H226 H 0.06592 0.22135 0.34095 0.0
H227 H 0.03649 0.22476 0.40379 0.0
H228 H 0.25459 0.69103 0.67071 0.0
H229 H 0.24839 0.66392 0.7376 0.0
H230 H 0.28935 0.62116 0.65241 0.0
H231 H 0.29509 0.64808 0.58415 0.0
H232 H 0.25515 0.60118 0.68754 0.0
H233 H 0.28892 0.64785 0.85316 0.0
H234 H 0.26762 0.66143 0.82098 0.0
H235 H 0.29148 0.65576 0.78467 0.0
C236 C 0.26226 0.67584 0.6661 0.0
C237 C 0.2755 0.67177 0.62238 0.0
C238 C 0.25882 0.6604 0.70464 0.0
C239 C 0.26889 0.64071 0.70093 0.0
C240 C 0.28158 0.63633 0.6564 0.0
H241 H 0.28027 0.55119 0.9622 0.0
H242 H 0.28624 0.57905 0.89603 0.0
C243 C 0.28482 0.65171 0.61736 0.0
C244 C 0.26598 0.62465 0.74324 0.0
H245 H 0.26959 0.61699 0.87733 0.0
C246 C 0.25842 0.6046 0.729 0.0
C247 C 0.27063 0.62897 0.79729 0.0
C248 C 0.28033 0.64959 0.8149 0.0
C249 C 0.25495 0.58892 0.76733 0.0
C250 C 0.2585 0.59362 0.82169 0.0
C251 C 0.26652 0.61351 0.83581 0.0
C252 C 0.25444 0.57795 0.8643 0.0
C253 C 0.24795 0.56732 0.74892 0.0
C254 C 0.23442 0.56866 0.86981 0.0
C255 C 0.23114 0.55271 0.90716 0.0
C256 C 0.24768 0.54614 0.94028 0.0
C257 C 0.26734 0.55621 0.93702 0.0
C258 C 0.27072 0.57199 0.89921 0.0
H259 H 0.25216 0.56448 0.70663 0.0
H260 H 0.25517 0.55467 0.77342 0.0
H261 H 0.23052 0.56615 0.75242 0.0
H262 H 0.22144 0.57344 0.84453 0.0
H263 H 0.21585 0.54514 0.90958 0.0
H264 H 0.85723 0.80217 0.09499 0.0
H265 H 0.88463 0.79643 0.16217 0.0
H266 H 0.84369 0.75304 0.24449 0.0
H267 H 0.81607 0.75921 0.17867 0.0
H268 H 0.86102 0.78 0.31233 0.0
H269 H 0.92371 0.74719 0.1824 0.0
H270 H 0.91472 0.7727 0.16138 0.0
H271 H 0.89686 0.75062 0.15998 0.0
C272 C 0.85417 0.79123 0.1271 0.0
C273 C 0.83448 0.78116 0.13151 0.0
C274 C 0.86988 0.78789 0.16537 0.0
C275 C 0.86634 0.77409 0.20809 0.0
C276 C 0.8468 0.76377 0.21197 0.0
H277 H 0.96367 0.7248 0.41706 0.0
H278 H 0.93509 0.72952 0.35213 0.0
C279 C 0.83104 0.7673 0.17421 0.0
C280 C 0.88257 0.77092 0.25004 0.0
H281 H 0.93375 0.75604 0.27076 0.0
C282 C 0.87691 0.77467 0.30325 0.0
C283 C 0.90322 0.76371 0.23832 0.0
C284 C 0.90996 0.75811 0.18249 0.0
C285 C 0.89131 0.77153 0.34495 0.0
C286 C 0.91217 0.76504 0.33304 0.0
C287 C 0.9178 0.76117 0.27988 0.0
C288 C 0.92839 0.76184 0.37496 0.0
C289 C 0.88383 0.77471 0.40138 0.0
C290 C 0.93401 0.77833 0.40971 0.0
C291 C 0.9501 0.77547 0.44714 0.0
C292 C 0.96104 0.75625 0.44967 0.0
C293 C 0.95533 0.73972 0.41548 0.0
C294 C 0.93911 0.74246 0.37849 0.0
H295 H 0.86639 0.7733 0.40448 0.0
H296 H 0.89118 0.76308 0.42867 0.0
H297 H 0.88826 0.7908 0.41489 0.0
H298 H 0.92636 0.79358 0.40695 0.0
H299 H 0.95457 0.78846 0.47284 0.0
H300 H 0.71414 0.35927 0.61364 0.0
H301 H 0.72281 0.38567 0.6811 0.0
H302 H 0.77625 0.3484 0.73082 0.0
H303 H 0.76767 0.32175 0.66357 0.0
H304 H 0.74979 0.36204 0.81526 0.0
H305 H 0.77195 0.42828 0.68275 0.0
H306 H 0.74684 0.41656 0.66742 0.0
H307 H 0.77058 0.40126 0.65991 0.0
C308 C 0.72787 0.35673 0.63851 0.0
C309 C 0.7402 0.33835 0.63308 0.0
C310 C 0.73285 0.37191 0.67694 0.0
C311 C 0.75028 0.36908 0.71063 0.0
C312 C 0.76277 0.3509 0.70507 0.0
H313 H 0.7976 0.46794 0.92179 0.0
H314 H 0.79513 0.43885 0.85728 0.0
C315 C 0.75786 0.33572 0.66648 0.0
C316 C 0.75491 0.38473 0.75302 0.0
H317 H 0.76637 0.43673 0.77397 0.0
C318 C 0.75359 0.37834 0.80631 0.0
C319 C 0.76007 0.40591 0.7412 0.0
C320 C 0.76266 0.41343 0.68473 0.0
C321 C 0.75668 0.39275 0.84815 0.0
C322 C 0.76098 0.41413 0.83629 0.0
C323 C 0.76292 0.42036 0.783 0.0
C324 C 0.76308 0.43045 0.87836 0.0
C325 C 0.75539 0.38496 0.90466 0.0
C326 C 0.74597 0.43526 0.91182 0.0
C327 C 0.74739 0.45188 0.94837 0.0
C328 C 0.76587 0.464 0.95179 0.0
C329 C 0.78316 0.45885 0.91937 0.0
C330 C 0.78175 0.44227 0.88275 0.0
H331 H 0.7578 0.36761 0.907 0.0
H332 H 0.76731 0.39288 0.9302 0.0
H333 H 0.73949 0.38858 0.92087 0.0
H334 H 0.73127 0.42664 0.90842 0.0
H335 H 0.73379 0.4558 0.97257 0.0
H336 H 0.65583 0.30537 0.40854 0.0
H337 H 0.62914 0.29873 0.3403 0.0
H338 H 0.66249 0.24261 0.2912 0.0
H339 H 0.68936 0.24911 0.35918 0.0
H340 H 0.65105 0.27048 0.20639 0.0
H341 H 0.58326 0.25226 0.33855 0.0
H342 H 0.59682 0.27642 0.35389 0.0
H343 H 0.61031 0.25163 0.36131 0.0
C344 C 0.65742 0.29149 0.38363 0.0
C345 C 0.67477 0.27777 0.38946 0.0
C346 C 0.6421 0.2877 0.34472 0.0
C347 C 0.64377 0.27011 0.31097 0.0
C348 C 0.66091 0.25626 0.31694 0.0
H349 H 0.54506 0.22353 0.10173 0.0
H350 H 0.57414 0.22676 0.16579 0.0
C351 C 0.67621 0.25998 0.35598 0.0
C352 C 0.62797 0.26653 0.26841 0.0
H353 H 0.5756 0.25698 0.24702 0.0
C354 C 0.63456 0.26743 0.21517 0.0
C355 C 0.60653 0.26239 0.28008 0.0
C356 C 0.59876 0.26042 0.33653 0.0
C357 C 0.62016 0.26468 0.1732 0.0
C358 C 0.59862 0.26111 0.18491 0.0
C359 C 0.59212 0.25984 0.23816 0.0
C360 C 0.58245 0.25857 0.1427 0.0
C361 C 0.62813 0.26537 0.11674 0.0
C362 C 0.57767 0.27528 0.10806 0.0
C363 C 0.56105 0.27342 0.07165 0.0
C364 C 0.54894 0.2549 0.06964 0.0
C365 C 0.55416 0.23798 0.10305 0.0
C366 C 0.57072 0.23983 0.13945 0.0
H367 H 0.6455 0.26304 0.1147 0.0
H368 H 0.62032 0.25311 0.09198 0.0
H369 H 0.62441 0.28102 0.09938 0.0
H370 H 0.58628 0.29001 0.1105 0.0
H371 H 0.55707 0.2867 0.04655 0.0
H372 H 0.2138 0.15184 0.89928 0.0
H373 H 0.22203 0.12528 0.83184 0.0
H374 H 0.27645 0.16122 0.78329 0.0
H375 H 0.26831 0.18803 0.85052 0.0
H376 H 0.24979 0.14851 0.69834 0.0
H377 H 0.27007 0.08133 0.82997 0.0
H378 H 0.24524 0.0937 0.8452 0.0
H379 H 0.26935 0.10832 0.85325 0.0
C380 C 0.22767 0.15404 0.87471 0.0
C381 C 0.24039 0.17211 0.88041 0.0
C382 C 0.23239 0.13877 0.83628 0.0
C383 C 0.24995 0.14119 0.80287 0.0
C384 C 0.26285 0.15903 0.8088 0.0
H385 H 0.29535 0.04179 0.59039 0.0
H386 H 0.29337 0.07071 0.65548 0.0
C387 C 0.2582 0.1743 0.8474 0.0
C388 C 0.25425 0.12552 0.76026 0.0
H389 H 0.26446 0.07328 0.73852 0.0
C390 C 0.25317 0.13208 0.70706 0.0
C391 C 0.25886 0.10417 0.77176 0.0
C392 C 0.26116 0.09643 0.82813 0.0
C393 C 0.25596 0.11771 0.665 0.0
C394 C 0.25972 0.09618 0.67653 0.0
C395 C 0.26142 0.08976 0.72974 0.0
C396 C 0.26155 0.07993 0.63417 0.0
C397 C 0.25495 0.12568 0.60861 0.0
C398 C 0.2444 0.07563 0.60038 0.0
C399 C 0.24554 0.05911 0.56348 0.0
C400 C 0.26377 0.04657 0.56002 0.0
C401 C 0.28111 0.05121 0.5928 0.0
C402 C 0.27997 0.06769 0.62977 0.0
H403 H 0.25773 0.14297 0.6066 0.0
H404 H 0.26674 0.11754 0.5831 0.0
H405 H 0.23901 0.12247 0.59212 0.0
H406 H 0.22988 0.08459 0.60377 0.0
H407 H 0.23191 0.05558 0.53903 0.0
H408 H 0.31246 0.73562 0.31197 0.0
H409 H 0.33977 0.74159 0.24577 0.0
H410 H 0.38772 0.73542 0.36656 0.0
H411 H 0.36034 0.72873 0.43334 0.0
H412 H 0.36861 0.77178 0.23617 0.0
H413 H 0.40866 0.69425 0.2558 0.0
H414 H 0.38344 0.69976 0.28615 0.0
H415 H 0.40743 0.70891 0.31685 0.0
C416 C 0.3288 0.73551 0.32472 0.0
C417 C 0.3342 0.73154 0.37805 0.0
C418 C 0.34442 0.73895 0.28667 0.0
C419 C 0.36582 0.7386 0.30091 0.0
C420 C 0.37132 0.73522 0.35436 0.0
H421 H 0.46684 0.78752 0.10263 0.0
H422 H 0.43877 0.78262 0.16839 0.0
C423 C 0.35565 0.73155 0.39257 0.0
C424 C 0.38217 0.742 0.25946 0.0
H425 H 0.42527 0.71954 0.20043 0.0
C426 C 0.38099 0.76034 0.22831 0.0
C427 C 0.39808 0.72688 0.24853 0.0
C428 C 0.39941 0.70625 0.27819 0.0
C429 C 0.39534 0.76406 0.18689 0.0
C430 C 0.41172 0.74932 0.17725 0.0
C431 C 0.4128 0.73089 0.20805 0.0
C432 C 0.42807 0.75279 0.1359 0.0
C433 C 0.39248 0.78352 0.15313 0.0
C434 C 0.43164 0.73754 0.09622 0.0
C435 C 0.44796 0.74018 0.05933 0.0
C436 C 0.46094 0.75808 0.06166 0.0
C437 C 0.45705 0.77355 0.10046 0.0
C438 C 0.4409 0.77085 0.13758 0.0
H439 H 0.37593 0.78934 0.15446 0.0
H440 H 0.4028 0.79629 0.16856 0.0
H441 H 0.3968 0.7804 0.11106 0.0
H442 H 0.422 0.72344 0.09429 0.0
H443 H 0.45087 0.72797 0.03004 0.0
H444 H 0.78273 0.81961 0.82025 0.0
H445 H 0.77637 0.84726 0.75508 0.0
H446 H 0.75447 0.88877 0.87982 0.0
H447 H 0.7621 0.86138 0.94589 0.0
H448 H 0.74315 0.866 0.7226 0.0
H449 H 0.79521 0.92703 0.81056 0.0
H450 H 0.79479 0.90026 0.83452 0.0
H451 H 0.77488 0.91886 0.85553 0.0
C452 C 0.77662 0.83466 0.83387 0.0
C453 C 0.77301 0.83841 0.88818 0.0
C454 C 0.77296 0.85047 0.79652 0.0
C455 C 0.76527 0.8703 0.81242 0.0
C456 C 0.76104 0.87388 0.86661 0.0
H457 H 0.71516 0.95848 0.57453 0.0
H458 H 0.71873 0.93072 0.64205 0.0
C459 C 0.76524 0.85818 0.90432 0.0
C460 C 0.76159 0.88694 0.77177 0.0
H461 H 0.77332 0.93787 0.73923 0.0
C462 C 0.74984 0.8817 0.72617 0.0
C463 C 0.77055 0.90735 0.77588 0.0
C464 C 0.78474 0.91366 0.82147 0.0
C465 C 0.74701 0.89612 0.68448 0.0
C466 C 0.75531 0.91677 0.68951 0.0
C467 C 0.76684 0.92209 0.73537 0.0
C468 C 0.75285 0.933 0.64727 0.0
C469 C 0.73587 0.88869 0.63477 0.0
C470 C 0.77066 0.944 0.62877 0.0
C471 C 0.76844 0.96019 0.59166 0.0
C472 C 0.7485 0.96526 0.57132 0.0
C473 C 0.7307 0.95423 0.58897 0.0
C474 C 0.73281 0.93837 0.62721 0.0
H475 H 0.73679 0.87126 0.63036 0.0
H476 H 0.71892 0.89304 0.63723 0.0
H477 H 0.7427 0.89602 0.59864 0.0
H478 H 0.78628 0.94028 0.64368 0.0
H479 H 0.78223 0.96895 0.57903 0.0
H480 H 0.82063 0.74933 0.85887 0.0
H481 H 0.84777 0.74384 0.79093 0.0
H482 H 0.87885 0.80116 0.84022 0.0
H483 H 0.85197 0.80676 0.9084 0.0
H484 H 0.85798 0.77195 0.70634 0.0
H485 H 0.92677 0.75716 0.83793 0.0
H486 H 0.89983 0.75545 0.86104 0.0
H487 H 0.91227 0.78076 0.85358 0.0
C488 C 0.83337 0.76066 0.85574 0.0
C489 C 0.83411 0.77849 0.88923 0.0
C490 C 0.84881 0.75752 0.81673 0.0
C491 C 0.86539 0.77199 0.81086 0.0
C492 C 0.86636 0.78962 0.84463 0.0
H493 H 0.97318 0.78843 0.60568 0.0
H494 H 0.94412 0.79242 0.66951 0.0
C495 C 0.85092 0.79282 0.8835 0.0
C496 C 0.8813 0.76914 0.76823 0.0
H497 H 0.93417 0.76308 0.74664 0.0
C498 C 0.87463 0.76984 0.71502 0.0
C499 C 0.90298 0.76643 0.77979 0.0
C500 C 0.91093 0.7647 0.83616 0.0
C501 C 0.88919 0.76852 0.67297 0.0
C502 C 0.91092 0.76608 0.68459 0.0
C503 C 0.91751 0.76508 0.73782 0.0
C504 C 0.92723 0.76471 0.64242 0.0
C505 C 0.88129 0.77038 0.6166 0.0
C506 C 0.9272 0.74801 0.60554 0.0
C507 C 0.94377 0.7458 0.56911 0.0
C508 C 0.96063 0.76014 0.56946 0.0
C509 C 0.96032 0.77717 0.60516 0.0
C510 C 0.94379 0.77942 0.64144 0.0
H511 H 0.86525 0.77748 0.61491 0.0
H512 H 0.89217 0.7801 0.59222 0.0
H513 H 0.88044 0.75441 0.5985 0.0
H514 H 0.9148 0.73625 0.60621 0.0
H515 H 0.94391 0.73244 0.54219 0.0
H516 H 0.74386 0.31742 0.32557 0.0
H517 H 0.74964 0.34458 0.25878 0.0
H518 H 0.73275 0.39271 0.37256 0.0
H519 H 0.7269 0.36554 0.44025 0.0
H520 H 0.71855 0.37416 0.22284 0.0
H521 H 0.78982 0.413 0.30758 0.0
H522 H 0.78147 0.38689 0.32719 0.0
H523 H 0.76789 0.40973 0.35225 0.0
C524 C 0.74151 0.33377 0.33678 0.0
C525 C 0.73485 0.33927 0.3884 0.0
C526 C 0.7448 0.34927 0.2984 0.0
C527 C 0.74172 0.37062 0.3108 0.0
C528 C 0.73544 0.3763 0.36243 0.0
H529 H 0.72646 0.47622 0.09565 0.0
H530 H 0.72123 0.4478 0.16063 0.0
C531 C 0.73205 0.36075 0.40098 0.0
C532 C 0.74435 0.38675 0.26882 0.0
H533 H 0.77457 0.42877 0.23148 0.0
C534 C 0.73079 0.38612 0.22468 0.0
C535 C 0.76047 0.40213 0.27116 0.0
C536 C 0.7759 0.40299 0.31682 0.0
C537 C 0.73277 0.40067 0.183 0.0
C538 C 0.74865 0.41629 0.18581 0.0
C539 C 0.76237 0.41678 0.22962 0.0
C540 C 0.7511 0.4325 0.14401 0.0
C541 C 0.71807 0.39911 0.13597 0.0
C542 C 0.76954 0.43319 0.1131 0.0
C543 C 0.77246 0.44935 0.07606 0.0
C544 C 0.75711 0.46512 0.07001 0.0
C545 C 0.73846 0.46415 0.1 0.0
C546 C 0.73547 0.44795 0.13679 0.0
H547 H 0.70985 0.38363 0.13441 0.0
H548 H 0.70592 0.4117 0.13891 0.0
H549 H 0.72684 0.40142 0.09821 0.0
H550 H 0.78179 0.42142 0.11826 0.0
H551 H 0.787 0.45001 0.05349 0.0
H552 H 0.14964 0.2267 0.92997 0.0
H553 H 0.1223 0.23294 0.86282 0.0
H554 H 0.17034 0.23909 0.74237 0.0
H555 H 0.19765 0.23354 0.80906 0.0
H556 H 0.14129 0.2691 0.73197 0.0
H557 H 0.10155 0.19159 0.75261 0.0
H558 H 0.10267 0.20627 0.81364 0.0
H559 H 0.12674 0.19722 0.78303 0.0
C560 C 0.15436 0.22938 0.88918 0.0
C561 C 0.17584 0.22951 0.87493 0.0
C562 C 0.13871 0.2328 0.85075 0.0
C563 C 0.14424 0.23608 0.79729 0.0
C564 C 0.16567 0.23652 0.78326 0.0
H565 H 0.05771 0.22567 0.52866 0.0
H566 H 0.0869 0.22092 0.59197 0.0
C567 C 0.18128 0.23332 0.82157 0.0
C568 C 0.12786 0.23936 0.75577 0.0
H569 H 0.08444 0.21697 0.69813 0.0
C570 C 0.12889 0.25766 0.72449 0.0
C571 C 0.11191 0.22426 0.7453 0.0
C572 C 0.11072 0.20363 0.77502 0.0
C573 C 0.11429 0.26142 0.68355 0.0
C574 C 0.09784 0.24674 0.67451 0.0
C575 C 0.09696 0.2283 0.70531 0.0
C576 C 0.08119 0.25029 0.63385 0.0
C577 C 0.11696 0.28087 0.6497 0.0
C578 C 0.06842 0.26841 0.63604 0.0
C579 C 0.05207 0.27124 0.59944 0.0
C580 C 0.04793 0.25584 0.56065 0.0
C581 C 0.06082 0.23784 0.55794 0.0
C582 C 0.07732 0.23507 0.59429 0.0
H583 H 0.13353 0.28662 0.65036 0.0
H584 H 0.11236 0.27778 0.60781 0.0
H585 H 0.10677 0.29368 0.66556 0.0
H586 H 0.07078 0.28017 0.66678 0.0
H587 H 0.04238 0.2853 0.60191 0.0
H588 H 0.29972 0.65321 0.39799 0.0
H589 H 0.29328 0.62662 0.32947 0.0
H590 H 0.23699 0.65971 0.28084 0.0
H591 H 0.24337 0.6866 0.34907 0.0
H592 H 0.25793 0.60027 0.31296 0.0
H593 H 0.27125 0.65409 0.14203 0.0
H594 H 0.27909 0.66077 0.20899 0.0
H595 H 0.25186 0.66275 0.18951 0.0
C596 C 0.2859 0.65485 0.37294 0.0
C597 C 0.27215 0.67218 0.37885 0.0
C598 C 0.28226 0.63961 0.33375 0.0
C599 C 0.26489 0.6414 0.29945 0.0
C600 C 0.25074 0.65828 0.3062 0.0
H601 H 0.22399 0.56195 0.03399 0.0
H602 H 0.22773 0.59056 0.09969 0.0
C603 C 0.25434 0.67354 0.34551 0.0
C604 C 0.26171 0.62552 0.25674 0.0
H605 H 0.26093 0.61914 0.12181 0.0
C606 C 0.25857 0.60438 0.27117 0.0
C607 C 0.2625 0.63097 0.20225 0.0
C608 C 0.26652 0.65334 0.1845 0.0
C609 C 0.25614 0.58852 0.23259 0.0
C610 C 0.25732 0.59388 0.17809 0.0
C611 C 0.26012 0.61507 0.16361 0.0
C612 C 0.25594 0.5776 0.13574 0.0
C613 C 0.25208 0.56617 0.25055 0.0
C614 C 0.27096 0.5613 0.13305 0.0
C615 C 0.26885 0.54511 0.09561 0.0
C616 C 0.25176 0.54501 0.0601 0.0
C617 C 0.23731 0.56182 0.06101 0.0
C618 C 0.23939 0.57804 0.09855 0.0
H619 H 0.246 0.56566 0.29195 0.0
H620 H 0.24054 0.55818 0.22405 0.0
H621 H 0.26709 0.55713 0.24928 0.0
H622 H 0.28414 0.56093 0.16049 0.0
H623 H 0.28032 0.53244 0.09486 0.0
H624 H 0.35346 0.70926 0.60421 0.0
H625 H 0.37961 0.71652 0.67311 0.0
H626 H 0.34417 0.77124 0.72298 0.0
H627 H 0.31767 0.76401 0.65436 0.0
H628 H 0.4045 0.75264 0.69043 0.0
H629 H 0.35095 0.73699 0.86108 0.0
H630 H 0.34458 0.72912 0.79395 0.0
H631 H 0.34181 0.75621 0.81393 0.0
C632 C 0.3512 0.72291 0.62961 0.0
C633 C 0.33333 0.73595 0.62393 0.0
C634 C 0.36619 0.72702 0.66902 0.0
C635 C 0.36363 0.74418 0.70376 0.0
C636 C 0.34621 0.75765 0.69727 0.0
H637 H 0.44455 0.78349 0.96975 0.0
H638 H 0.41533 0.78098 0.90526 0.0
C639 C 0.33117 0.75357 0.65774 0.0
C640 C 0.37933 0.74782 0.74658 0.0
H641 H 0.38579 0.74751 0.88149 0.0
C642 C 0.40039 0.7516 0.73219 0.0
C643 C 0.37391 0.74651 0.80106 0.0
C644 C 0.35163 0.74183 0.8187 0.0
C645 C 0.41623 0.75396 0.77077 0.0
C646 C 0.41092 0.7521 0.82518 0.0
C647 C 0.38979 0.74885 0.83972 0.0
C648 C 0.42733 0.75273 0.86717 0.0
C649 C 0.43853 0.75846 0.75295 0.0
C650 C 0.44322 0.73727 0.86829 0.0
C651 C 0.4597 0.73869 0.90496 0.0
C652 C 0.46054 0.75552 0.94121 0.0
C653 C 0.44411 0.7704 0.94201 0.0
C654 C 0.42755 0.769 0.90522 0.0
H655 H 0.43895 0.76497 0.712 0.0
H656 H 0.4464 0.7698 0.78024 0.0
H657 H 0.44775 0.74355 0.7531 0.0
H658 H 0.44308 0.72433 0.84006 0.0
H659 H 0.47209 0.72689 0.90445 0.0
H660 H 0.78036 0.86255 0.08901 0.0
H661 H 0.77294 0.8892 0.15706 0.0
H662 H 0.74724 0.84097 0.2591 0.0
H663 H 0.75344 0.81453 0.18972 0.0
H664 H 0.72503 0.87458 0.27044 0.0
H665 H 0.80871 0.89869 0.28336 0.0
H666 H 0.79862 0.90282 0.21771 0.0
H667 H 0.80034 0.87642 0.24406 0.0
C668 C 0.77293 0.85772 0.1258 0.0
C669 C 0.7676 0.83648 0.13428 0.0
C670 C 0.7689 0.8729 0.16492 0.0
C671 C 0.7602 0.86703 0.2141 0.0
C672 C 0.75413 0.84591 0.22177 0.0
H673 H 0.77428 0.95218 0.48464 0.0
H674 H 0.77643 0.92191 0.42445 0.0
C675 C 0.75765 0.83081 0.18206 0.0
C676 C 0.75766 0.8828 0.25768 0.0
H677 H 0.78379 0.92131 0.32624 0.0
C678 C 0.73795 0.88467 0.28296 0.0
C679 C 0.77461 0.89564 0.27523 0.0
C680 C 0.79679 0.89313 0.25408 0.0
C681 C 0.7346 0.8993 0.32423 0.0
C682 C 0.75116 0.91315 0.33916 0.0
C683 C 0.77097 0.91095 0.3146 0.0
C684 C 0.7484 0.93019 0.37954 0.0
C685 C 0.71349 0.8993 0.35207 0.0
C686 C 0.73181 0.94485 0.37524 0.0
C687 C 0.73013 0.96163 0.41116 0.0
C688 C 0.74538 0.96456 0.45103 0.0
C689 C 0.76197 0.94996 0.45541 0.0
C690 C 0.76336 0.93284 0.42038 0.0
H691 H 0.70595 0.88349 0.35008 0.0
H692 H 0.71502 0.90393 0.39448 0.0
H693 H 0.70276 0.91062 0.33199 0.0
H694 H 0.72043 0.94368 0.34326 0.0
H695 H 0.71718 0.97268 0.40709 0.0
H696 H 0.65039 0.29897 0.59091 0.0
H697 H 0.62326 0.29448 0.65936 0.0
H698 H 0.66716 0.25881 0.75472 0.0
H699 H 0.69444 0.26362 0.68735 0.0
H700 H 0.60502 0.25957 0.70243 0.0
H701 H 0.64827 0.30364 0.85893 0.0
H702 H 0.6562 0.304 0.79008 0.0
H703 H 0.66319 0.28206 0.83186 0.0
C704 C 0.65425 0.29011 0.62637 0.0
C705 C 0.67467 0.28187 0.63391 0.0
C706 C 0.63874 0.28759 0.6655 0.0
C707 C 0.64334 0.27677 0.71278 0.0
C708 C 0.66343 0.26778 0.71934 0.0
H709 H 0.56461 0.23395 0.97452 0.0
H710 H 0.59321 0.2391 0.9095 0.0
C711 C 0.67897 0.27042 0.68055 0.0
C712 C 0.62713 0.27476 0.75514 0.0
H713 H 0.61766 0.28478 0.88668 0.0
C714 C 0.60776 0.26518 0.74261 0.0
C715 C 0.63067 0.2822 0.80759 0.0
C716 C 0.65062 0.29374 0.82289 0.0
C717 C 0.59203 0.26249 0.78132 0.0
C718 C 0.59577 0.26955 0.83376 0.0
C719 C 0.61501 0.27923 0.8464 0.0
C720 C 0.57956 0.26734 0.8756 0.0
C721 C 0.57148 0.25202 0.76631 0.0
C722 C 0.56283 0.28181 0.87862 0.0
C723 C 0.54673 0.279 0.9159 0.0
C724 C 0.54706 0.26162 0.95041 0.0
C725 C 0.56417 0.24752 0.94849 0.0
C726 C 0.58036 0.25039 0.91134 0.0
H727 H 0.57162 0.24595 0.72485 0.0
H728 H 0.56817 0.23873 0.79374 0.0
H729 H 0.55836 0.26356 0.7704 0.0
H730 H 0.56206 0.29504 0.8515 0.0
H731 H 0.53378 0.29016 0.91725 0.0
H732 H 0.24238 0.19476 0.18781 0.0
H733 H 0.248 0.16769 0.25504 0.0
H734 H 0.23243 0.11933 0.14075 0.0
H735 H 0.22677 0.14639 0.07267 0.0
H736 H 0.21739 0.13786 0.29041 0.0
H737 H 0.28923 0.0995 0.20729 0.0
H738 H 0.28059 0.12547 0.18714 0.0
H739 H 0.26746 0.10241 0.16195 0.0
C740 C 0.24028 0.17838 0.17661 0.0
C741 C 0.23408 0.17278 0.12469 0.0
C742 C 0.24348 0.16293 0.21524 0.0
C743 C 0.24076 0.14154 0.2028 0.0
C744 C 0.23487 0.13578 0.15094 0.0
H745 H 0.22436 0.03548 0.41538 0.0
H746 H 0.21958 0.06428 0.35124 0.0
C747 C 0.23158 0.15126 0.11216 0.0
C748 C 0.24338 0.12541 0.24486 0.0
H749 H 0.27352 0.08324 0.28217 0.0
C750 C 0.22966 0.12592 0.28869 0.0
C751 C 0.25957 0.11004 0.24272 0.0
C752 C 0.2752 0.10932 0.19753 0.0
C753 C 0.2315 0.11122 0.33011 0.0
C754 C 0.24738 0.09556 0.32738 0.0
C755 C 0.26131 0.09524 0.28398 0.0
C756 C 0.24959 0.0791 0.36869 0.0
C757 C 0.2166 0.11266 0.37677 0.0
C758 C 0.26799 0.07797 0.39976 0.0
C759 C 0.27066 0.06157 0.43629 0.0
C760 C 0.25511 0.04598 0.44169 0.0
C761 C 0.23652 0.04738 0.41152 0.0
C762 C 0.23378 0.06382 0.37524 0.0
H763 H 0.20857 0.12825 0.37875 0.0
H764 H 0.20431 0.10028 0.37285 0.0
H765 H 0.22516 0.10996 0.41469 0.0
H766 H 0.28039 0.08959 0.39513 0.0
H767 H 0.28516 0.06059 0.459 0.0
H768 H 0.2373 0.29616 0.07573 0.0
H769 H 0.2368 0.33468 0.07308 0.0
H770 H 0.22258 0.33277 0.90558 0.0
H771 H 0.22311 0.2941 0.90763 0.0
H772 H 0.25663 0.36018 0.93482 0.0
H773 H 0.18499 0.37418 0.05716 0.0
H774 H 0.20399 0.35665 0.08664 0.0
H775 H 0.19072 0.349 0.02647 0.0
C776 C 0.23396 0.30387 0.03829 0.0
C777 C 0.23028 0.292 0.99185 0.0
C778 C 0.23355 0.32591 0.03698 0.0
C779 C 0.22941 0.33654 0.98929 0.0
C780 C 0.22569 0.32482 0.94284 0.0
H781 H 0.20914 0.47247 0.95853 0.0
H782 H 0.20556 0.43383 0.95382 0.0
C783 C 0.22598 0.30273 0.94413 0.0
C784 C 0.22991 0.35991 0.98769 0.0
H785 H 0.20676 0.40404 0.03993 0.0
C786 C 0.24564 0.3698 0.95745 0.0
C787 C 0.21543 0.37237 0.01691 0.0
C788 C 0.19769 0.36257 0.04829 0.0
C789 C 0.24767 0.39186 0.9569 0.0
C790 C 0.23371 0.40429 0.98776 0.0
C791 C 0.21757 0.39444 0.01673 0.0
C792 C 0.23576 0.42754 0.99091 0.0
C793 C 0.26471 0.40173 0.92323 0.0
C794 C 0.25376 0.43672 0.01395 0.0
C795 C 0.25575 0.45866 0.01666 0.0
C796 C 0.23977 0.47174 0.99645 0.0
C797 C 0.22167 0.46258 0.97397 0.0
C798 C 0.21962 0.44062 0.97144 0.0
H799 H 0.27067 0.3906 0.89247 0.0
H800 H 0.25879 0.4162 0.90332 0.0
H801 H 0.27818 0.40627 0.94905 0.0
H802 H 0.26625 0.42689 0.02989 0.0
H803 H 0.26985 0.46548 0.03391 0.0
H804 H 0.21049 0.73393 0.42298 0.0
H805 H 0.17201 0.73626 0.42573 0.0
H806 H 0.17316 0.72649 0.59527 0.0
H807 H 0.2117 0.7236 0.59276 0.0
H808 H 0.1417 0.70415 0.54743 0.0
H809 H 0.13986 0.78727 0.47939 0.0
H810 H 0.15343 0.77007 0.43407 0.0
H811 H 0.16393 0.77434 0.49971 0.0
C812 C 0.20258 0.73223 0.46089 0.0
C813 C 0.21419 0.72882 0.50776 0.0
C814 C 0.18058 0.73369 0.46241 0.0
C815 C 0.16976 0.73207 0.51088 0.0
C816 C 0.18122 0.72796 0.55749 0.0
H817 H 0.04083 0.77529 0.55919 0.0
H818 H 0.07921 0.77009 0.56197 0.0
C819 C 0.20324 0.72631 0.55597 0.0
C820 C 0.14651 0.73485 0.51294 0.0
H821 H 0.10691 0.76931 0.48205 0.0
C822 C 0.13407 0.71843 0.53336 0.0
C823 C 0.13662 0.75364 0.49544 0.0
C824 C 0.14915 0.77242 0.47643 0.0
C825 C 0.11197 0.72012 0.53579 0.0
C826 C 0.10204 0.73854 0.51609 0.0
C827 C 0.11452 0.7551 0.49658 0.0
C828 C 0.07874 0.74117 0.51587 0.0
C829 C 0.09955 0.70234 0.56039 0.0
C830 C 0.06575 0.72675 0.48877 0.0
C831 C 0.04385 0.72958 0.48791 0.0
C832 C 0.03463 0.74703 0.51342 0.0
C833 C 0.04763 0.76158 0.53992 0.0
C834 C 0.06949 0.75866 0.5412 0.0
H835 H 0.10953 0.69262 0.58721 0.0
H836 H 0.08586 0.70843 0.58336 0.0
H837 H 0.09351 0.69186 0.52842 0.0
H838 H 0.07255 0.71342 0.46783 0.0
H839 H 0.03407 0.71816 0.46741 0.0
H840 H 0.79981 0.71617 0.08402 0.0
H841 H 0.80133 0.67752 0.08392 0.0
H842 H 0.76155 0.67587 0.94473 0.0
H843 H 0.76052 0.71432 0.94351 0.0
H844 H 0.77072 0.64938 0.09538 0.0
H845 H 0.8079 0.63682 0.89913 0.0
H846 H 0.80676 0.66245 0.93047 0.0
H847 H 0.78443 0.65252 0.89373 0.0
C848 C 0.79153 0.70756 0.05314 0.0
C849 C 0.78013 0.71833 0.01361 0.0
C850 C 0.79242 0.68548 0.05313 0.0
C851 C 0.7819 0.67378 0.0137 0.0
C852 C 0.77033 0.68453 0.9746 0.0
H853 H 0.73842 0.54487 0.03533 0.0
H854 H 0.74282 0.58337 0.03715 0.0
C855 C 0.76963 0.70655 0.97421 0.0
C856 C 0.78211 0.65034 0.01475 0.0
H857 H 0.79047 0.6068 0.93726 0.0
C858 C 0.77526 0.64006 0.06099 0.0
C859 C 0.78841 0.63814 0.97026 0.0
C860 C 0.7975 0.64806 0.92085 0.0
C861 C 0.77384 0.61797 0.06335 0.0
C862 C 0.77878 0.60585 0.01763 0.0
C863 C 0.78635 0.61609 0.97204 0.0
C864 C 0.77599 0.58258 0.01599 0.0
C865 C 0.76726 0.60789 0.11504 0.0
C866 C 0.79289 0.56938 1.00136 0.0
C867 C 0.7902 0.54749 0.99932 0.0
C868 C 0.77064 0.53849 0.01207 0.0
C869 C 0.75368 0.55162 0.02601 0.0
C870 C 0.75626 0.57352 0.02744 0.0
H871 H 0.77089 0.61828 0.14951 0.0
H872 H 0.74994 0.60523 0.11457 0.0
H873 H 0.77527 0.59248 0.12104 0.0
H874 H 0.8082 0.57601 0.99199 0.0
H875 H 0.80343 0.5375 0.98855 0.0
H876 H 0.79722 0.29155 0.42152 0.0
H877 H 0.83581 0.28938 0.41862 0.0
H878 H 0.83666 0.26655 0.57987 0.0
H879 H 0.79818 0.26884 0.58349 0.0
H880 H 0.86663 0.29819 0.5597 0.0
H881 H 0.86993 0.23406 0.40874 0.0
H882 H 0.85478 0.25684 0.38977 0.0
H883 H 0.84604 0.24074 0.44415 0.0
C884 C 0.8056 0.28608 0.45642 0.0
C885 C 0.79456 0.2802 0.50261 0.0
C886 C 0.82765 0.28476 0.45456 0.0
C887 C 0.83904 0.27749 0.49875 0.0
C888 C 0.82814 0.27208 0.54524 0.0
H889 H 0.96771 0.23165 0.51938 0.0
H890 H 0.92906 0.23612 0.51917 0.0
C891 C 0.80613 0.27338 0.54716 0.0
C892 C 0.86236 0.27549 0.49681 0.0
H893 H 0.90254 0.24898 0.4353 0.0
C894 C 0.87451 0.28748 0.53244 0.0
C895 C 0.87253 0.26129 0.46166 0.0
C896 C 0.8602 0.24733 0.42417 0.0
C897 C 0.89662 0.28573 0.53369 0.0
C898 C 0.90682 0.27182 0.49785 0.0
C899 C 0.89466 0.25975 0.46242 0.0
C900 C 0.93007 0.26916 0.49748 0.0
C901 C 0.90884 0.2984 0.57419 0.0
C902 C 0.94336 0.28616 0.48476 0.0
C903 C 0.96529 0.28356 0.48501 0.0
C904 C 0.97417 0.26394 0.49769 0.0
C905 C 0.96097 0.24688 0.5097 0.0
C906 C 0.93904 0.24945 0.50947 0.0
H907 H 0.89849 0.30437 0.60658 0.0
H908 H 0.92168 0.28879 0.59201 0.0
H909 H 0.91614 0.31221 0.55435 0.0
H910 H 0.93676 0.30139 0.47448 0.0
H911 H 0.9754 0.29679 0.47541 0.0
H912 H 0.73494 0.21616 0.43066 0.0
H913 H 0.7352 0.17765 0.43066 0.0
H914 H 0.72566 0.1776 0.60039 0.0
H915 H 0.72486 0.21624 0.60063 0.0
H916 H 0.76269 0.15193 0.47991 0.0
H917 H 0.68154 0.13562 0.55164 0.0
H918 H 0.68972 0.16142 0.52948 0.0
H919 H 0.69639 0.15249 0.59518 0.0
C920 C 0.73272 0.20799 0.46801 0.0
C921 C 0.7299 0.21929 0.51569 0.0
C922 C 0.73287 0.18596 0.4679 0.0
C923 C 0.73024 0.17472 0.5154 0.0
C924 C 0.72727 0.18592 0.56308 0.0
H925 H 0.76908 0.04407 0.55931 0.0
H926 H 0.7659 0.08266 0.56132 0.0
C927 C 0.72694 0.20802 0.56319 0.0
C928 C 0.73167 0.15134 0.51502 0.0
H929 H 0.70503 0.10631 0.54718 0.0
C930 C 0.75005 0.14195 0.49447 0.0
C931 C 0.71507 0.13834 0.53341 0.0
C932 C 0.69448 0.14744 0.55319 0.0
C933 C 0.75237 0.11994 0.4922 0.0
C934 C 0.73608 0.10695 0.51228 0.0
C935 C 0.71759 0.11631 0.5323 0.0
C936 C 0.73781 0.0836 0.51224 0.0
C937 C 0.77208 0.11085 0.46727 0.0
C938 C 0.72275 0.0713 0.48536 0.0
C939 C 0.72438 0.04929 0.48504 0.0
C940 C 0.74107 0.03925 0.51164 0.0
C941 C 0.75604 0.05153 0.53881 0.0
C942 C 0.75434 0.07352 0.53945 0.0
H943 H 0.77993 0.12241 0.44069 0.0
H944 H 0.78344 0.10658 0.49907 0.0
H945 H 0.76845 0.0964 0.44393 0.0
H946 H 0.7098 0.07874 0.46436 0.0
H947 H 0.71256 0.04005 0.46438 0.0
H948 H 0.299 0.23818 0.92722 0.0
H949 H 0.3375 0.23969 0.93133 0.0
H950 H 0.33559 0.22433 0.09806 0.0
H951 H 0.29695 0.22285 0.09455 0.0
H952 H 0.36142 0.25987 0.07152 0.0
H953 H 0.37946 0.18983 0.94636 0.0
H954 H 0.36116 0.20814 0.91713 0.0
H955 H 0.35388 0.19412 0.97632 0.0
C956 C 0.30672 0.23501 0.96479 0.0
C957 C 0.29485 0.23041 0.0106 0.0
C958 C 0.32875 0.23576 0.96694 0.0
C959 C 0.33938 0.23189 0.01484 0.0
C960 C 0.32765 0.22726 0.06065 0.0
H961 H 0.47583 0.2171 0.04954 0.0
H962 H 0.43732 0.2121 0.05288 0.0
C963 C 0.30558 0.2264 0.05852 0.0
C964 C 0.36269 0.23353 0.01736 0.0
H965 H 0.40817 0.2128 0.96611 0.0
C966 C 0.37167 0.2495 0.04879 0.0
C967 C 0.37599 0.21985 0.98803 0.0
C968 C 0.3672 0.20188 0.95539 0.0
C969 C 0.39362 0.25253 0.0505 0.0
C970 C 0.40687 0.23936 0.01959 0.0
C971 C 0.39793 0.223 0.98936 0.0
C972 C 0.43005 0.24241 0.01782 0.0
C973 C 0.40249 0.26975 0.08551 0.0
C974 C 0.43864 0.26097 0.99645 0.0
C975 C 0.46052 0.26378 0.99457 0.0
C976 C 0.47411 0.24807 0.01393 0.0
C977 C 0.46554 0.22944 0.03486 0.0
C978 C 0.44365 0.22659 0.03658 0.0
H979 H 0.39092 0.27495 0.11607 0.0
H980 H 0.41712 0.26438 0.10578 0.0
H981 H 0.40654 0.28361 0.06063 0.0
H982 H 0.42841 0.27323 0.98102 0.0
H983 H 0.46689 0.27827 0.97845 0.0
H984 H 0.25579 0.79503 0.56327 0.0
H985 H 0.25493 0.83349 0.56136 0.0
H986 H 0.29633 0.83333 0.4252 0.0
H987 H 0.29668 0.79466 0.4257 0.0
H988 H 0.28517 0.86182 0.57346 0.0
H989 H 0.2499 0.87116 0.37314 0.0
H990 H 0.25123 0.846 0.40631 0.0
H991 H 0.27406 0.85633 0.37268 0.0
C992 C 0.26467 0.80313 0.53273 0.0
C993 C 0.27618 0.79176 0.49435 0.0
C994 C 0.26417 0.82516 0.53173 0.0
C995 C 0.27527 0.83634 0.49262 0.0
C996 C 0.28717 0.82506 0.45489 0.0
H997 H 0.29964 0.97203 0.52269 0.0
H998 H 0.30315 0.93339 0.52035 0.0
C999 C 0.28746 0.80296 0.45542 0.0
C1000 C 0.27454 0.8598 0.49228 0.0
H1001 H 0.26184 0.9024 0.4157 0.0
C1002 C 0.28005 0.87069 0.53896 0.0
C1003 C 0.26757 0.87137 0.44751 0.0
C1004 C 0.26015 0.86063 0.39726 0.0
C1005 C 0.27873 0.89278 0.54223 0.0
C1006 C 0.27238 0.9044 0.49695 0.0
C1007 C 0.2669 0.89351 0.45024 0.0
C1008 C 0.27061 0.92779 0.49764 0.0
C1009 C 0.28351 0.90335 0.59472 0.0
C1010 C 0.25141 0.93753 0.48395 0.0
C1011 C 0.24959 0.95952 0.48441 0.0
C1012 C 0.26688 0.9721 0.49878 0.0
C1013 C 0.2861 0.96247 0.51214 0.0
C1014 C 0.28803 0.94048 0.51106 0.0
H1015 H 0.28199 0.89216 0.62845 0.0
H1016 H 0.30001 0.90923 0.59432 0.0
H1017 H 0.2728 0.91695 0.60195 0.0
H1018 H 0.23778 0.92811 0.47332 0.0
H1019 H 0.23465 0.96677 0.47407 0.0
H1020 H 0.71107 0.76646 0.08263 0.0
H1021 H 0.67256 0.76438 0.07964 0.0
H1022 H 0.67292 0.78881 0.91988 0.0
H1023 H 0.71151 0.79077 0.92213 0.0
H1024 H 0.64281 0.79664 0.06196 0.0
H1025 H 0.63834 0.73389 0.90757 0.0
H1026 H 0.66241 0.73996 0.94289 0.0
H1027 H 0.65368 0.75662 0.88953 0.0
C1028 C 0.70301 0.77137 0.04675 0.0
C1029 C 0.71442 0.77861 1.00243 0.0
C1030 C 0.68099 0.7702 0.0452 0.0
C1031 C 0.66994 0.77615 0.9993 0.0
C1032 C 0.68119 0.78377 0.95533 0.0
H1033 H 0.53404 0.798 0.97811 0.0
H1034 H 0.57275 0.80185 0.9773 0.0
C1035 C 0.70324 0.78497 0.95682 0.0
C1036 C 0.64662 0.77443 0.99777 0.0
H1037 H 0.60598 0.74915 0.93518 0.0
C1038 C 0.63472 0.78629 0.03422 0.0
C1039 C 0.6362 0.76071 0.96195 0.0
C1040 C 0.64826 0.74691 0.92352 0.0
C1041 C 0.6126 0.78491 0.03559 0.0
C1042 C 0.60215 0.77151 0.99903 0.0
C1043 C 0.61406 0.75954 0.96283 0.0
C1044 C 0.57887 0.76931 0.99861 0.0
C1045 C 0.60064 0.79743 0.07688 0.0
C1046 C 0.56958 0.74968 0.00961 0.0
C1047 C 0.54762 0.74754 0.00977 0.0
C1048 C 0.53472 0.76496 0.99868 0.0
C1049 C 0.54392 0.7845 0.98699 0.0
C1050 C 0.56589 0.78667 0.98681 0.0
H1051 H 0.61112 0.80291 0.10954 0.0
H1052 H 0.59354 0.81155 0.05789 0.0
H1053 H 0.58766 0.78789 0.09422 0.0
H1054 H 0.57934 0.73608 0.01859 0.0
H1055 H 0.54061 0.73237 0.0187 0.0
loop_
_geom_bond_atom_site_label_1
_geom_bond_atom_site_label_2
_geom_bond_distance
_geom_bond_site_symmetry_2
_ccdc_geom_bond_type
Fe0 O2 1.921 . S
Fe0 O5 1.997 . S
Fe0 O6 2.002 . S
Fe0 O11 1.976 . S
Fe0 O14 1.996 . S
Fe1 O2 1.915 1_556 S
Fe1 O9 1.997 . S
Fe1 O12 1.996 . S
Fe1 O16 1.976 . S
Fe1 O19 2.002 . S
O2 Fe0 1.921 . S
O2 Fe1 1.915 1_554 S
O2 Fe3 1.918 1_554 S
Fe3 O2 1.918 1_556 S
Fe3 O4 1.999 1_556 S
Fe3 O13 1.972 1_556 S
Fe3 O17 1.999 . S
Fe3 O20 2.000 . S
O4 Fe3 1.999 1_554 S
O4 C21 1.295 . S
O5 Fe0 1.997 . S
O5 C21 1.235 . S
O6 Fe0 2.002 . S
O6 C7 1.295 . S
C7 O6 1.295 . S
C7 O9 1.235 1_554 S
C8 O13 1.287 . S
C8 O14 1.255 . S
O9 Fe1 1.997 . S
O9 C7 1.235 1_556 S
C10 O16 1.287 . S
C10 O17 1.255 . S
O11 Fe0 1.976 . S
O11 C18 1.287 1_554 S
O12 Fe1 1.996 . S
O12 C18 1.255 . S
O13 Fe3 1.972 1_554 S
O13 C8 1.287 . S
O14 Fe0 1.996 . S
O14 C8 1.255 . S
C15 O19 1.295 . S
C15 O20 1.235 . S
O16 Fe1 1.976 . S
O16 C10 1.287 . S
O17 Fe3 1.999 . S
O17 C10 1.255 . S
C18 O11 1.287 1_556 S
C18 O12 1.255 . S
O19 Fe1 2.002 . S
O19 C15 1.295 . S
O20 Fe3 2.000 . S
O20 C15 1.235 . S
C21 O4 1.295 . S
C21 O5 1.235 . S
Fe22 O24 1.918 . S
Fe22 O27 1.997 . S
Fe22 O28 2.002 . S
Fe22 O33 1.976 . S
Fe22 O36 1.996 . S
Fe23 O24 1.918 . S
Fe23 O31 1.997 . S
Fe23 O34 1.996 . S
Fe23 O38 1.976 . S
Fe23 O41 2.002 . S
O24 Fe22 1.918 . S
O24 Fe23 1.918 . S
O24 Fe25 1.918 . S
Fe25 O24 1.918 . S
Fe25 O26 2.002 . S
Fe25 O35 1.976 . S
Fe25 O39 1.996 . S
Fe25 O42 1.997 . S
O26 Fe25 2.002 . S
O26 C43 1.295 . S
O27 Fe22 1.997 . S
O27 C43 1.235 . S
O28 Fe22 2.002 . S
O28 C29 1.295 . S
C29 O28 1.295 . S
C29 O31 1.235 . S
C30 O35 1.287 . S
C30 O36 1.255 . S
O31 Fe23 1.997 . S
O31 C29 1.235 . S
C32 O38 1.287 . S
C32 O39 1.255 . S
O33 Fe22 1.976 . S
O33 C40 1.287 . S
O34 Fe23 1.996 . S
O34 C40 1.255 . S
O35 Fe25 1.976 . S
O35 C30 1.287 . S
O36 Fe22 1.996 . S
O36 C30 1.255 . S
C37 O41 1.295 . S
C37 O42 1.235 . S
O38 Fe23 1.976 . S
O38 C32 1.287 . S
O39 Fe25 1.996 . S
O39 C32 1.255 . S
C40 O33 1.287 . S
C40 O34 1.255 . S
O41 Fe23 2.002 . S
O41 C37 1.295 . S
O42 Fe25 1.997 . S
O42 C37 1.235 . S
C43 O26 1.295 . S
C43 O27 1.235 . S
Fe44 O46 1.910 1_556 S
Fe44 O49 1.997 . S
Fe44 O50 2.002 . S
Fe44 O55 1.976 . S
Fe44 O58 1.996 . S
Fe45 O46 1.927 . S
Fe45 O53 1.997 . S
Fe45 O56 1.996 . S
Fe45 O60 1.976 . S
Fe45 O63 2.002 . S
O46 Fe44 1.910 1_554 S
O46 Fe45 1.927 . S
O46 Fe47 1.918 . S
Fe47 O46 1.918 . S
Fe47 O48 2.002 1_554 S
Fe47 O57 1.976 1_554 S
Fe47 O61 1.996 . S
Fe47 O64 1.997 . S
O48 Fe47 2.002 1_556 S
O48 C65 1.295 . S
O49 Fe44 1.997 . S
O49 C65 1.235 . S
O50 Fe44 2.002 . S
O50 C51 1.315 . S
C51 O50 1.315 . S
C51 O53 1.216 1_556 S
C52 O57 1.287 . S
C52 O58 1.255 . S
O53 Fe45 1.997 . S
O53 C51 1.216 1_554 S
C54 O60 1.287 . S
C54 O61 1.255 . S
O55 Fe44 1.976 . S
O55 C62 1.287 1_556 S
O56 Fe45 1.996 . S
O56 C62 1.255 . S
O57 Fe47 1.976 1_556 S
O57 C52 1.287 . S
O58 Fe44 1.996 . S
O58 C52 1.255 . S
C59 O63 1.295 . S
C59 O64 1.235 . S
O60 Fe45 1.976 . S
O60 C54 1.287 . S
O61 Fe47 1.996 . S
O61 C54 1.255 . S
C62 O55 1.287 1_554 S
C62 O56 1.255 . S
O63 Fe45 2.002 . S
O63 C59 1.295 . S
O64 Fe47 1.997 . S
O64 C59 1.235 . S
C65 O48 1.295 . S
C65 O49 1.235 . S
Fe66 O68 1.918 . S
Fe66 O71 1.997 . S
Fe66 O72 2.002 . S
Fe66 O77 1.976 . S
Fe66 O80 1.996 . S
Fe67 O68 1.918 . S
Fe67 O75 1.997 . S
Fe67 O78 1.996 . S
Fe67 O82 1.976 . S
Fe67 O85 2.002 . S
O68 Fe66 1.918 . S
O68 Fe67 1.918 . S
O68 Fe69 1.918 . S
Fe69 O68 1.918 . S
Fe69 O70 2.002 . S
Fe69 O79 1.976 . S
Fe69 O83 1.996 . S
Fe69 O86 1.997 . S
O70 Fe69 2.002 . S
O70 C87 1.295 . S
O71 Fe66 1.997 . S
O71 C87 1.235 . S
O72 Fe66 2.002 . S
O72 C73 1.295 . S
C73 O72 1.295 . S
C73 O75 1.235 . S
C74 O79 1.287 . S
C74 O80 1.255 . S
O75 Fe67 1.997 . S
O75 C73 1.235 . S
C76 O82 1.287 . S
C76 O83 1.255 . S
O77 Fe66 1.976 . S
O77 C84 1.287 . S
O78 Fe67 1.996 . S
O78 C84 1.255 . S
O79 Fe69 1.976 . S
O79 C74 1.287 . S
O80 Fe66 1.996 . S
O80 C74 1.255 . S
C81 O85 1.295 . S
C81 O86 1.235 . S
O82 Fe67 1.976 . S
O82 C76 1.287 . S
O83 Fe69 1.996 . S
O83 C76 1.255 . S
C84 O77 1.287 . S
C84 O78 1.255 . S
O85 Fe67 2.002 . S
O85 C81 1.295 . S
O86 Fe69 1.997 . S
O86 C81 1.235 . S
C87 O70 1.295 . S
C87 O71 1.235 . S
C88 N89 1.317 . S
C88 N90 1.359 . S
C88 C91 1.485 . S
N89 C88 1.317 . S
N89 N93 1.370 1_556 S
N90 C88 1.359 . S
N90 C92 1.335 1_556 S
C91 C88 1.485 . S
C91 H95 0.960 . S
C91 H96 0.961 . S
C91 H97 0.960 . S
C92 N90 1.335 1_554 S
C92 N93 1.307 . S
C92 C94 1.486 . S
N93 N89 1.370 1_554 S
N93 C92 1.307 . S
C94 C92 1.486 . S
C94 H98 0.960 . S
C94 H99 0.960 . S
C94 H100 0.959 . S
H95 C91 0.960 . S
H96 C91 0.961 . S
H97 C91 0.960 . S
H98 C94 0.960 . S
H99 C94 0.960 . S
H100 C94 0.959 . S
C101 N102 1.317 1_455 S
C101 N103 1.348 . S
C101 C104 1.485 . S
N102 C101 1.317 1_655 S
N102 N106 1.370 . S
N103 C101 1.348 . S
N103 C105 1.346 . S
C104 C101 1.485 . S
C104 H108 0.960 . S
C104 H109 0.961 . S
C104 H110 0.957 1_455 S
C105 N103 1.346 . S
C105 N106 1.307 1_455 S
C105 C107 1.486 . S
N106 N102 1.370 . S
N106 C105 1.307 1_655 S
C107 C105 1.486 . S
C107 H111 0.960 . S
C107 H112 0.960 . S
C107 H113 0.959 . S
H108 C104 0.960 . S
H109 C104 0.961 . S
H110 C104 0.957 1_655 S
H111 C107 0.960 . S
H112 C107 0.960 . S
H113 C107 0.959 . S
C114 N115 1.317 . S
C114 N116 1.348 . S
C114 C117 1.485 . S
N115 C114 1.317 . S
N115 N119 1.370 1_554 S
N116 C114 1.348 . S
N116 C118 1.346 1_554 S
C117 C114 1.485 . S
C117 H121 0.960 . S
C117 H122 0.961 . S
C117 H123 0.960 . S
C118 N116 1.346 1_556 S
C118 N119 1.307 . S
C118 C120 1.486 . S
N119 N115 1.370 1_556 S
N119 C118 1.307 . S
C120 C118 1.486 . S
C120 H124 0.960 . S
C120 H125 0.960 . S
C120 H126 0.959 . S
H121 C117 0.960 . S
H122 C117 0.961 . S
H123 C117 0.960 . S
H124 C120 0.960 . S
H125 C120 0.960 . S
H126 C120 0.959 . S
C127 N128 1.317 1_655 S
C127 N129 1.348 . S
C127 C130 1.485 . S
N128 C127 1.317 1_455 S
N128 N132 1.370 . S
N129 C127 1.348 . S
N129 C131 1.346 . S
C130 C127 1.485 . S
C130 H134 0.960 . S
C130 H135 0.961 . S
C130 H136 0.966 . S
C131 N129 1.346 . S
C131 N132 1.307 1_655 S
C131 C133 1.486 . S
N132 N128 1.370 . S
N132 C131 1.307 1_455 S
C133 C131 1.486 . S
C133 H137 0.960 . S
C133 H138 0.960 . S
C133 H139 0.959 1_655 S
H134 C130 0.960 . S
H135 C130 0.961 . S
H136 C130 0.966 . S
H137 C133 0.960 . S
H138 C133 0.960 . S
H139 C133 0.959 1_455 S
C140 N141 1.317 1_545 S
C140 N142 1.348 . S
C140 C143 1.485 . S
N141 C140 1.317 1_565 S
N141 N145 1.370 . S
N142 C140 1.348 . S
N142 C144 1.346 . S
C143 C140 1.485 . S
C143 H147 0.960 . S
C143 H148 0.961 . S
C143 H149 0.960 . S
C144 N142 1.346 . S
C144 N145 1.307 1_545 S
C144 C146 1.486 . S
N145 N141 1.370 . S
N145 C144 1.307 1_565 S
C146 C144 1.486 . S
C146 H150 0.960 . S
C146 H151 0.960 . S
C146 H152 0.994 . S
H147 C143 0.960 . S
H148 C143 0.961 . S
H149 C143 0.960 . S
H150 C146 0.960 . S
H151 C146 0.960 . S
H152 C146 0.994 . S
C153 N154 1.317 . S
C153 N155 1.359 . S
C153 C156 1.485 . S
N154 C153 1.317 . S
N154 N158 1.370 1_556 S
N155 C153 1.359 . S
N155 C157 1.335 1_556 S
C156 C153 1.485 . S
C156 H160 0.960 . S
C156 H161 0.961 . S
C156 H162 0.960 . S
C157 N155 1.335 1_554 S
C157 N158 1.307 . S
C157 C159 1.486 . S
N158 N154 1.370 1_554 S
N158 C157 1.307 . S
C159 C157 1.486 . S
C159 H163 0.960 . S
C159 H164 0.960 . S
C159 H165 0.959 . S
H160 C156 0.960 . S
H161 C156 0.961 . S
H162 C156 0.960 . S
H163 C159 0.960 . S
H164 C159 0.960 . S
H165 C159 0.959 . S
C166 N167 1.317 1_565 S
C166 N168 1.348 . S
C166 C169 1.485 . S
N167 C166 1.317 1_545 S
N167 N171 1.370 . S
N168 C166 1.348 . S
N168 C170 1.346 . S
C169 C166 1.485 . S
C169 H173 0.960 . S
C169 H174 0.961 . S
C169 H175 0.960 1_565 S
C170 N168 1.346 . S
C170 N171 1.307 1_565 S
C170 C172 1.486 . S
N171 N167 1.370 . S
N171 C170 1.307 1_545 S
C172 C170 1.486 . S
C172 H176 0.960 . S
C172 H177 0.960 . S
C172 H178 0.976 . S
H173 C169 0.960 . S
H174 C169 0.961 . S
H175 C169 0.960 1_545 S
H176 C172 0.960 . S
H177 C172 0.960 . S
H178 C172 0.976 . S
C179 N180 1.317 . S
C179 N181 1.348 . S
C179 C182 1.485 . S
N180 C179 1.317 . S
N180 N184 1.370 1_554 S
N181 C179 1.348 . S
N181 C183 1.346 1_554 S
C182 C179 1.485 . S
C182 H186 0.960 . S
C182 H187 0.961 . S
C182 H188 0.960 . S
C183 N181 1.346 1_556 S
C183 N184 1.307 . S
C183 C185 1.486 . S
N184 N180 1.370 1_556 S
N184 C183 1.307 . S
C185 C183 1.486 . S
C185 H189 0.960 . S
C185 H190 0.960 . S
C185 H191 0.959 . S
H186 C182 0.960 . S
H187 C182 0.961 . S
H188 C182 0.960 . S
H189 C185 0.960 . S
H190 C185 0.960 . S
H191 C185 0.959 . S
H192 C200 0.929 . S
H193 C202 0.930 . S
H194 C204 0.930 . S
H195 C207 0.929 . S
H196 C210 0.930 . S
H197 C212 0.960 . S
H198 C212 0.960 . S
H199 C212 0.960 . S
C200 H192 0.929 . S
C200 C201 1.377 . S
C200 C202 1.384 . S
C201 C200 1.377 . S
C201 C207 1.390 . S
C202 H193 0.930 . S
C202 C200 1.384 . S
C202 C203 1.372 . S
C203 C202 1.372 . S
C203 C204 1.400 . S
C203 C208 1.490 . S
C204 H194 0.930 . S
C204 C203 1.400 . S
C204 C207 1.386 . S
H205 C221 0.930 . S
H206 C222 0.931 . S
C207 H195 0.929 . S
C207 C201 1.390 . S
C207 C204 1.386 . S
C208 C203 1.490 . S
C208 C210 1.395 . S
C208 C211 1.403 . S
H209 C215 0.930 . S
C210 H196 0.930 . S
C210 C208 1.395 . S
C210 C213 1.403 . S
C211 C208 1.403 . S
C211 C212 1.524 . S
C211 C215 1.400 . S
C212 H197 0.960 . S
C212 H198 0.960 . S
C212 H199 0.960 . S
C212 C211 1.524 . S
C213 C210 1.403 . S
C213 C214 1.392 . S
C213 C217 1.495 . S
C214 C213 1.392 . S
C214 C215 1.385 . S
C214 C216 1.478 . S
C215 H209 0.930 . S
C215 C211 1.400 . S
C215 C214 1.385 . S
C216 C214 1.478 . S
C216 C218 1.381 . S
C216 C222 1.383 . S
C217 C213 1.495 . S
C217 H223 0.959 . S
C217 H224 0.961 . S
C217 H225 0.960 . S
C218 C216 1.381 . S
C218 C219 1.394 . S
C218 H226 0.930 . S
C219 C218 1.394 . S
C219 C220 1.383 . S
C219 H227 0.929 . S
C220 C219 1.383 . S
C220 C221 1.377 . S
C221 H205 0.930 . S
C221 C220 1.377 . S
C221 C222 1.379 . S
C222 H206 0.931 . S
C222 C216 1.383 . S
C222 C221 1.379 . S
H223 C217 0.959 . S
H224 C217 0.961 . S
H225 C217 0.960 . S
H226 C218 0.930 . S
H227 C219 0.929 . S
H228 C236 0.929 . S
H229 C238 0.930 . S
H230 C240 0.930 . S
H231 C243 0.929 . S
H232 C246 0.930 . S
H233 C248 0.960 . S
H234 C248 0.960 . S
H235 C248 0.960 . S
C236 H228 0.929 . S
C236 C237 1.377 . S
C236 C238 1.384 . S
C237 C236 1.377 . S
C237 C243 1.390 . S
C238 H229 0.930 . S
C238 C236 1.384 . S
C238 C239 1.372 . S
C239 C238 1.372 . S
C239 C240 1.400 . S
C239 C244 1.490 . S
C240 H230 0.930 . S
C240 C239 1.400 . S
C240 C243 1.386 . S
H241 C257 0.930 . S
H242 C258 0.931 . S
C243 H231 0.929 . S
C243 C237 1.390 . S
C243 C240 1.386 . S
C244 C239 1.490 . S
C244 C246 1.395 . S
C244 C247 1.403 . S
H245 C251 0.930 . S
C246 H232 0.930 . S
C246 C244 1.395 . S
C246 C249 1.403 . S
C247 C244 1.403 . S
C247 C248 1.524 . S
C247 C251 1.400 . S
C248 H233 0.960 . S
C248 H234 0.960 . S
C248 H235 0.960 . S
C248 C247 1.524 . S
C249 C246 1.403 . S
C249 C250 1.392 . S
C249 C253 1.495 . S
C250 C249 1.392 . S
C250 C251 1.385 . S
C250 C252 1.478 . S
C251 H245 0.930 . S
C251 C247 1.400 . S
C251 C250 1.385 . S
C252 C250 1.478 . S
C252 C254 1.381 . S
C252 C258 1.383 . S
C253 C249 1.495 . S
C253 H259 0.959 . S
C253 H260 0.961 . S
C253 H261 0.960 . S
C254 C252 1.381 . S
C254 C255 1.394 . S
C254 H262 0.930 . S
C255 C254 1.394 . S
C255 C256 1.383 . S
C255 H263 0.929 . S
C256 C255 1.383 . S
C256 C257 1.377 . S
C257 H241 0.930 . S
C257 C256 1.377 . S
C257 C258 1.379 . S
C258 H242 0.931 . S
C258 C252 1.383 . S
C258 C257 1.379 . S
H259 C253 0.959 . S
H260 C253 0.961 . S
H261 C253 0.960 . S
H262 C254 0.930 . S
H263 C255 0.929 . S
H264 C272 0.929 . S
H265 C274 0.930 . S
H266 C276 0.930 . S
H267 C279 0.929 . S
H268 C282 0.930 . S
H269 C284 0.960 . S
H270 C284 0.960 . S
H271 C284 0.960 . S
C272 H264 0.929 . S
C272 C273 1.377 . S
C272 C274 1.384 . S
C273 C272 1.377 . S
C273 C279 1.390 . S
C274 H265 0.930 . S
C274 C272 1.384 . S
C274 C275 1.372 . S
C275 C274 1.372 . S
C275 C276 1.400 . S
C275 C280 1.490 . S
C276 H266 0.930 . S
C276 C275 1.400 . S
C276 C279 1.386 . S
H277 C293 0.930 . S
H278 C294 0.931 . S
C279 H267 0.929 . S
C279 C273 1.390 . S
C279 C276 1.386 . S
C280 C275 1.490 . S
C280 C282 1.395 . S
C280 C283 1.403 . S
H281 C287 0.930 . S
C282 H268 0.930 . S
C282 C280 1.395 . S
C282 C285 1.403 . S
C283 C280 1.403 . S
C283 C284 1.524 . S
C283 C287 1.400 . S
C284 H269 0.960 . S
C284 H270 0.960 . S
C284 H271 0.960 . S
C284 C283 1.524 . S
C285 C282 1.403 . S
C285 C286 1.392 . S
C285 C289 1.495 . S
C286 C285 1.392 . S
C286 C287 1.385 . S
C286 C288 1.478 . S
C287 H281 0.930 . S
C287 C283 1.400 . S
C287 C286 1.385 . S
C288 C286 1.478 . S
C288 C290 1.381 . S
C288 C294 1.383 . S
C289 C285 1.495 . S
C289 H295 0.959 . S
C289 H296 0.961 . S
C289 H297 0.960 . S
C290 C288 1.381 . S
C290 C291 1.394 . S
C290 H298 0.930 . S
C291 C290 1.394 . S
C291 C292 1.383 . S
C291 H299 0.929 . S
C292 C291 1.383 . S
C292 C293 1.377 . S
C293 H277 0.930 . S
C293 C292 1.377 . S
C293 C294 1.379 . S
C294 H278 0.931 . S
C294 C288 1.383 . S
C294 C293 1.379 . S
H295 C289 0.959 . S
H296 C289 0.961 . S
H297 C289 0.960 . S
H298 C290 0.930 . S
H299 C291 0.929 . S
H300 C308 0.929 . S
H301 C310 0.930 . S
H302 C312 0.930 . S
H303 C315 0.929 . S
H304 C318 0.930 . S
H305 C320 0.960 . S
H306 C320 0.960 . S
H307 C320 0.960 . S
C308 H300 0.929 . S
C308 C309 1.377 . S
C308 C310 1.384 . S
C309 C308 1.377 . S
C309 C315 1.390 . S
C310 H301 0.930 . S
C310 C308 1.384 . S
C310 C311 1.372 . S
C311 C310 1.372 . S
C311 C312 1.400 . S
C311 C316 1.490 . S
C312 H302 0.930 . S
C312 C311 1.400 . S
C312 C315 1.386 . S
H313 C329 0.930 . S
H314 C330 0.931 . S
C315 H303 0.929 . S
C315 C309 1.390 . S
C315 C312 1.386 . S
C316 C311 1.490 . S
C316 C318 1.395 . S
C316 C319 1.403 . S
H317 C323 0.930 . S
C318 H304 0.930 . S
C318 C316 1.395 . S
C318 C321 1.403 . S
C319 C316 1.403 . S
C319 C320 1.524 . S
C319 C323 1.400 . S
C320 H305 0.960 . S
C320 H306 0.960 . S
C320 H307 0.960 . S
C320 C319 1.524 . S
C321 C318 1.403 . S
C321 C322 1.392 . S
C321 C325 1.495 . S
C322 C321 1.392 . S
C322 C323 1.385 . S
C322 C324 1.478 . S
C323 H317 0.930 . S
C323 C319 1.400 . S
C323 C322 1.385 . S
C324 C322 1.478 . S
C324 C326 1.381 . S
C324 C330 1.383 . S
C325 C321 1.495 . S
C325 H331 0.959 . S
C325 H332 0.961 . S
C325 H333 0.960 . S
C326 C324 1.381 . S
C326 C327 1.394 . S
C326 H334 0.930 . S
C327 C326 1.394 . S
C327 C328 1.383 . S
C327 H335 0.929 . S
C328 C327 1.383 . S
C328 C329 1.377 . S
C329 H313 0.930 . S
C329 C328 1.377 . S
C329 C330 1.379 . S
C330 H314 0.931 . S
C330 C324 1.383 . S
C330 C329 1.379 . S
H331 C325 0.959 . S
H332 C325 0.961 . S
H333 C325 0.960 . S
H334 C326 0.930 . S
H335 C327 0.929 . S
H336 C344 0.929 . S
H337 C346 0.930 . S
H338 C348 0.930 . S
H339 C351 0.929 . S
H340 C354 0.930 . S
H341 C356 0.960 . S
H342 C356 0.960 . S
H343 C356 0.960 . S
C344 H336 0.929 . S
C344 C345 1.377 . S
C344 C346 1.384 . S
C345 C344 1.377 . S
C345 C351 1.390 . S
C346 H337 0.930 . S
C346 C344 1.384 . S
C346 C347 1.372 . S
C347 C346 1.372 . S
C347 C348 1.400 . S
C347 C352 1.490 . S
C348 H338 0.930 . S
C348 C347 1.400 . S
C348 C351 1.386 . S
H349 C365 0.930 . S
H350 C366 0.931 . S
C351 H339 0.929 . S
C351 C345 1.390 . S
C351 C348 1.386 . S
C352 C347 1.490 . S
C352 C354 1.395 . S
C352 C355 1.403 . S
H353 C359 0.930 . S
C354 H340 0.930 . S
C354 C352 1.395 . S
C354 C357 1.403 . S
C355 C352 1.403 . S
C355 C356 1.524 . S
C355 C359 1.400 . S
C356 H341 0.960 . S
C356 H342 0.960 . S
C356 H343 0.960 . S
C356 C355 1.524 . S
C357 C354 1.403 . S
C357 C358 1.392 . S
C357 C361 1.495 . S
C358 C357 1.392 . S
C358 C359 1.385 . S
C358 C360 1.478 . S
C359 H353 0.930 . S
C359 C355 1.400 . S
C359 C358 1.385 . S
C360 C358 1.478 . S
C360 C362 1.381 . S
C360 C366 1.383 . S
C361 C357 1.495 . S
C361 H367 0.959 . S
C361 H368 0.961 . S
C361 H369 0.960 . S
C362 C360 1.381 . S
C362 C363 1.394 . S
C362 H370 0.930 . S
C363 C362 1.394 . S
C363 C364 1.383 . S
C363 H371 0.929 . S
C364 C363 1.383 . S
C364 C365 1.377 . S
C365 H349 0.930 . S
C365 C364 1.377 . S
C365 C366 1.379 . S
C366 H350 0.931 . S
C366 C360 1.383 . S
C366 C365 1.379 . S
H367 C361 0.959 . S
H368 C361 0.961 . S
H369 C361 0.960 . S
H370 C362 0.930 . S
H371 C363 0.929 . S
H372 C380 0.929 . S
H373 C382 0.930 . S
H374 C384 0.930 . S
H375 C387 0.929 . S
H376 C390 0.930 . S
H377 C392 0.960 . S
H378 C392 0.960 . S
H379 C392 0.960 . S
C380 H372 0.929 . S
C380 C381 1.377 . S
C380 C382 1.384 . S
C381 C380 1.377 . S
C381 C387 1.390 . S
C382 H373 0.930 . S
C382 C380 1.384 . S
C382 C383 1.372 . S
C383 C382 1.372 . S
C383 C384 1.400 . S
C383 C388 1.490 . S
C384 H374 0.930 . S
C384 C383 1.400 . S
C384 C387 1.386 . S
H385 C401 0.930 . S
H386 C402 0.931 . S
C387 H375 0.929 . S
C387 C381 1.390 . S
C387 C384 1.386 . S
C388 C383 1.490 . S
C388 C390 1.395 . S
C388 C391 1.403 . S
H389 C395 0.930 . S
C390 H376 0.930 . S
C390 C388 1.395 . S
C390 C393 1.403 . S
C391 C388 1.403 . S
C391 C392 1.524 . S
C391 C395 1.400 . S
C392 H377 0.960 . S
C392 H378 0.960 . S
C392 H379 0.960 . S
C392 C391 1.524 . S
C393 C390 1.403 . S
C393 C394 1.392 . S
C393 C397 1.495 . S
C394 C393 1.392 . S
C394 C395 1.385 . S
C394 C396 1.478 . S
C395 H389 0.930 . S
C395 C391 1.400 . S
C395 C394 1.385 . S
C396 C394 1.478 . S
C396 C398 1.381 . S
C396 C402 1.383 . S
C397 C393 1.495 . S
C397 H403 0.959 . S
C397 H404 0.961 . S
C397 H405 0.960 . S
C398 C396 1.381 . S
C398 C399 1.394 . S
C398 H406 0.930 . S
C399 C398 1.394 . S
C399 C400 1.383 . S
C399 H407 0.929 . S
C400 C399 1.383 . S
C400 C401 1.377 . S
C401 H385 0.930 . S
C401 C400 1.377 . S
C401 C402 1.379 . S
C402 H386 0.931 . S
C402 C396 1.383 . S
C402 C401 1.379 . S
H403 C397 0.959 . S
H404 C397 0.961 . S
H405 C397 0.960 . S
H406 C398 0.930 . S
H407 C399 0.929 . S
H408 C416 0.929 . S
H409 C418 0.930 . S
H410 C420 0.930 . S
H411 C423 0.929 . S
H412 C426 0.930 . S
H413 C428 0.960 . S
H414 C428 0.960 . S
H415 C428 0.960 . S
C416 H408 0.929 . S
C416 C417 1.377 . S
C416 C418 1.384 . S
C417 C416 1.377 . S
C417 C423 1.390 . S
C418 H409 0.930 . S
C418 C416 1.384 . S
C418 C419 1.372 . S
C419 C418 1.372 . S
C419 C420 1.400 . S
C419 C424 1.490 . S
C420 H410 0.930 . S
C420 C419 1.400 . S
C420 C423 1.386 . S
H421 C437 0.930 . S
H422 C438 0.931 . S
C423 H411 0.929 . S
C423 C417 1.390 . S
C423 C420 1.386 . S
C424 C419 1.490 . S
C424 C426 1.395 . S
C424 C427 1.403 . S
H425 C431 0.930 . S
C426 H412 0.930 . S
C426 C424 1.395 . S
C426 C429 1.403 . S
C427 C424 1.403 . S
C427 C428 1.524 . S
C427 C431 1.400 . S
C428 H413 0.960 . S
C428 H414 0.960 . S
C428 H415 0.960 . S
C428 C427 1.524 . S
C429 C426 1.403 . S
C429 C430 1.392 . S
C429 C433 1.495 . S
C430 C429 1.392 . S
C430 C431 1.385 . S
C430 C432 1.478 . S
C431 H425 0.930 . S
C431 C427 1.400 . S
C431 C430 1.385 . S
C432 C430 1.478 . S
C432 C434 1.381 . S
C432 C438 1.383 . S
C433 C429 1.495 . S
C433 H439 0.959 . S
C433 H440 0.961 . S
C433 H441 0.960 . S
C434 C432 1.381 . S
C434 C435 1.394 . S
C434 H442 0.930 . S
C435 C434 1.394 . S
C435 C436 1.383 . S
C435 H443 0.929 . S
C436 C435 1.383 . S
C436 C437 1.377 . S
C437 H421 0.930 . S
C437 C436 1.377 . S
C437 C438 1.379 . S
C438 H422 0.931 . S
C438 C432 1.383 . S
C438 C437 1.379 . S
H439 C433 0.959 . S
H440 C433 0.961 . S
H441 C433 0.960 . S
H442 C434 0.930 . S
H443 C435 0.929 . S
H444 C452 0.929 . S
H445 C454 0.930 . S
H446 C456 0.930 . S
H447 C459 0.929 . S
H448 C462 0.930 . S
H449 C464 0.960 . S
H450 C464 0.960 . S
H451 C464 0.960 . S
C452 H444 0.929 . S
C452 C453 1.377 . S
C452 C454 1.384 . S
C453 C452 1.377 . S
C453 C459 1.390 . S
C454 H445 0.930 . S
C454 C452 1.384 . S
C454 C455 1.372 . S
C455 C454 1.372 . S
C455 C456 1.400 . S
C455 C460 1.490 . S
C456 H446 0.930 . S
C456 C455 1.400 . S
C456 C459 1.386 . S
H457 C473 0.930 . S
H458 C474 0.931 . S
C459 H447 0.929 . S
C459 C453 1.390 . S
C459 C456 1.386 . S
C460 C455 1.490 . S
C460 C462 1.395 . S
C460 C463 1.403 . S
H461 C467 0.930 . S
C462 H448 0.930 . S
C462 C460 1.395 . S
C462 C465 1.403 . S
C463 C460 1.403 . S
C463 C464 1.524 . S
C463 C467 1.400 . S
C464 H449 0.960 . S
C464 H450 0.960 . S
C464 H451 0.960 . S
C464 C463 1.524 . S
C465 C462 1.403 . S
C465 C466 1.392 . S
C465 C469 1.495 . S
C466 C465 1.392 . S
C466 C467 1.385 . S
C466 C468 1.478 . S
C467 H461 0.930 . S
C467 C463 1.400 . S
C467 C466 1.385 . S
C468 C466 1.478 . S
C468 C470 1.381 . S
C468 C474 1.383 . S
C469 C465 1.495 . S
C469 H475 0.959 . S
C469 H476 0.961 . S
C469 H477 0.960 . S
C470 C468 1.381 . S
C470 C471 1.394 . S
C470 H478 0.930 . S
C471 C470 1.394 . S
C471 C472 1.383 . S
C471 H479 0.929 . S
C472 C471 1.383 . S
C472 C473 1.377 . S
C473 H457 0.930 . S
C473 C472 1.377 . S
C473 C474 1.379 . S
C474 H458 0.931 . S
C474 C468 1.383 . S
C474 C473 1.379 . S
H475 C469 0.959 . S
H476 C469 0.961 . S
H477 C469 0.960 . S
H478 C470 0.930 . S
H479 C471 0.929 . S
H480 C488 0.929 . S
H481 C490 0.930 . S
H482 C492 0.930 . S
H483 C495 0.929 . S
H484 C498 0.930 . S
H485 C500 0.960 . S
H486 C500 0.960 . S
H487 C500 0.960 . S
C488 H480 0.929 . S
C488 C489 1.377 . S
C488 C490 1.384 . S
C489 C488 1.377 . S
C489 C495 1.390 . S
C490 H481 0.930 . S
C490 C488 1.384 . S
C490 C491 1.372 . S
C491 C490 1.372 . S
C491 C492 1.400 . S
C491 C496 1.490 . S
C492 H482 0.930 . S
C492 C491 1.400 . S
C492 C495 1.386 . S
H493 C509 0.930 . S
H494 C510 0.931 . S
C495 H483 0.929 . S
C495 C489 1.390 . S
C495 C492 1.386 . S
C496 C491 1.490 . S
C496 C498 1.395 . S
C496 C499 1.403 . S
H497 C503 0.930 . S
C498 H484 0.930 . S
C498 C496 1.395 . S
C498 C501 1.403 . S
C499 C496 1.403 . S
C499 C500 1.524 . S
C499 C503 1.400 . S
C500 H485 0.960 . S
C500 H486 0.960 . S
C500 H487 0.960 . S
C500 C499 1.524 . S
C501 C498 1.403 . S
C501 C502 1.392 . S
C501 C505 1.495 . S
C502 C501 1.392 . S
C502 C503 1.385 . S
C502 C504 1.478 . S
C503 H497 0.930 . S
C503 C499 1.400 . S
C503 C502 1.385 . S
C504 C502 1.478 . S
C504 C506 1.381 . S
C504 C510 1.383 . S
C505 C501 1.495 . S
C505 H511 0.959 . S
C505 H512 0.961 . S
C505 H513 0.960 . S
C506 C504 1.381 . S
C506 C507 1.394 . S
C506 H514 0.930 . S
C507 C506 1.394 . S
C507 C508 1.383 . S
C507 H515 0.929 . S
C508 C507 1.383 . S
C508 C509 1.377 . S
C509 H493 0.930 . S
C509 C508 1.377 . S
C509 C510 1.379 . S
C510 H494 0.931 . S
C510 C504 1.383 . S
C510 C509 1.379 . S
H511 C505 0.959 . S
H512 C505 0.961 . S
H513 C505 0.960 . S
H514 C506 0.930 . S
H515 C507 0.929 . S
H516 C524 0.929 . S
H517 C526 0.930 . S
H518 C528 0.930 . S
H519 C531 0.929 . S
H520 C534 0.930 . S
H521 C536 0.960 . S
H522 C536 0.960 . S
H523 C536 0.960 . S
C524 H516 0.929 . S
C524 C525 1.377 . S
C524 C526 1.384 . S
C525 C524 1.377 . S
C525 C531 1.390 . S
C526 H517 0.930 . S
C526 C524 1.384 . S
C526 C527 1.372 . S
C527 C526 1.372 . S
C527 C528 1.400 . S
C527 C532 1.490 . S
C528 H518 0.930 . S
C528 C527 1.400 . S
C528 C531 1.386 . S
H529 C545 0.930 . S
H530 C546 0.931 . S
C531 H519 0.929 . S
C531 C525 1.390 . S
C531 C528 1.386 . S
C532 C527 1.490 . S
C532 C534 1.395 . S
C532 C535 1.403 . S
H533 C539 0.930 . S
C534 H520 0.930 . S
C534 C532 1.395 . S
C534 C537 1.403 . S
C535 C532 1.403 . S
C535 C536 1.524 . S
C535 C539 1.400 . S
C536 H521 0.960 . S
C536 H522 0.960 . S
C536 H523 0.960 . S
C536 C535 1.524 . S
C537 C534 1.403 . S
C537 C538 1.392 . S
C537 C541 1.495 . S
C538 C537 1.392 . S
C538 C539 1.385 . S
C538 C540 1.478 . S
C539 H533 0.930 . S
C539 C535 1.400 . S
C539 C538 1.385 . S
C540 C538 1.478 . S
C540 C542 1.381 . S
C540 C546 1.383 . S
C541 C537 1.495 . S
C541 H547 0.959 . S
C541 H548 0.961 . S
C541 H549 0.960 . S
C542 C540 1.381 . S
C542 C543 1.394 . S
C542 H550 0.930 . S
C543 C542 1.394 . S
C543 C544 1.383 . S
C543 H551 0.929 . S
C544 C543 1.383 . S
C544 C545 1.377 . S
C545 H529 0.930 . S
C545 C544 1.377 . S
C545 C546 1.379 . S
C546 H530 0.931 . S
C546 C540 1.383 . S
C546 C545 1.379 . S
H547 C541 0.959 . S
H548 C541 0.961 . S
H549 C541 0.960 . S
H550 C542 0.930 . S
H551 C543 0.929 . S
H552 C560 0.929 . S
H553 C562 0.930 . S
H554 C564 0.930 . S
H555 C567 0.929 . S
H556 C570 0.930 . S
H557 C572 0.960 . S
H558 C572 0.960 . S
H559 C572 0.960 . S
C560 H552 0.929 . S
C560 C561 1.377 . S
C560 C562 1.384 . S
C561 C560 1.377 . S
C561 C567 1.390 . S
C562 H553 0.930 . S
C562 C560 1.384 . S
C562 C563 1.372 . S
C563 C562 1.372 . S
C563 C564 1.400 . S
C563 C568 1.490 . S
C564 H554 0.930 . S
C564 C563 1.400 . S
C564 C567 1.386 . S
H565 C581 0.930 . S
H566 C582 0.931 . S
C567 H555 0.929 . S
C567 C561 1.390 . S
C567 C564 1.386 . S
C568 C563 1.490 . S
C568 C570 1.395 . S
C568 C571 1.403 . S
H569 C575 0.930 . S
C570 H556 0.930 . S
C570 C568 1.395 . S
C570 C573 1.403 . S
C571 C568 1.403 . S
C571 C572 1.524 . S
C571 C575 1.400 . S
C572 H557 0.960 . S
C572 H558 0.960 . S
C572 H559 0.960 . S
C572 C571 1.524 . S
C573 C570 1.403 . S
C573 C574 1.392 . S
C573 C577 1.495 . S
C574 C573 1.392 . S
C574 C575 1.385 . S
C574 C576 1.478 . S
C575 H569 0.930 . S
C575 C571 1.400 . S
C575 C574 1.385 . S
C576 C574 1.478 . S
C576 C578 1.381 . S
C576 C582 1.383 . S
C577 C573 1.495 . S
C577 H583 0.959 . S
C577 H584 0.961 . S
C577 H585 0.960 . S
C578 C576 1.381 . S
C578 C579 1.394 . S
C578 H586 0.930 . S
C579 C578 1.394 . S
C579 C580 1.383 . S
C579 H587 0.929 . S
C580 C579 1.383 . S
C580 C581 1.377 . S
C581 H565 0.930 . S
C581 C580 1.377 . S
C581 C582 1.379 . S
C582 H566 0.931 . S
C582 C576 1.383 . S
C582 C581 1.379 . S
H583 C577 0.959 . S
H584 C577 0.961 . S
H585 C577 0.960 . S
H586 C578 0.930 . S
H587 C579 0.929 . S
H588 C596 0.929 . S
H589 C598 0.930 . S
H590 C600 0.930 . S
H591 C603 0.929 . S
H592 C606 0.930 . S
H593 C608 0.960 . S
H594 C608 0.960 . S
H595 C608 0.960 . S
C596 H588 0.929 . S
C596 C597 1.377 . S
C596 C598 1.384 . S
C597 C596 1.377 . S
C597 C603 1.390 . S
C598 H589 0.930 . S
C598 C596 1.384 . S
C598 C599 1.372 . S
C599 C598 1.372 . S
C599 C600 1.400 . S
C599 C604 1.490 . S
C600 H590 0.930 . S
C600 C599 1.400 . S
C600 C603 1.386 . S
H601 C617 0.930 . S
H602 C618 0.931 . S
C603 H591 0.929 . S
C603 C597 1.390 . S
C603 C600 1.386 . S
C604 C599 1.490 . S
C604 C606 1.395 . S
C604 C607 1.403 . S
H605 C611 0.930 . S
C606 H592 0.930 . S
C606 C604 1.395 . S
C606 C609 1.403 . S
C607 C604 1.403 . S
C607 C608 1.524 . S
C607 C611 1.400 . S
C608 H593 0.960 . S
C608 H594 0.960 . S
C608 H595 0.960 . S
C608 C607 1.524 . S
C609 C606 1.403 . S
C609 C610 1.392 . S
C609 C613 1.495 . S
C610 C609 1.392 . S
C610 C611 1.385 . S
C610 C612 1.478 . S
C611 H605 0.930 . S
C611 C607 1.400 . S
C611 C610 1.385 . S
C612 C610 1.478 . S
C612 C614 1.381 . S
C612 C618 1.383 . S
C613 C609 1.495 . S
C613 H619 0.959 . S
C613 H620 0.961 . S
C613 H621 0.960 . S
C614 C612 1.381 . S
C614 C615 1.394 . S
C614 H622 0.930 . S
C615 C614 1.394 . S
C615 C616 1.383 . S
C615 H623 0.929 . S
C616 C615 1.383 . S
C616 C617 1.377 . S
C617 H601 0.930 . S
C617 C616 1.377 . S
C617 C618 1.379 . S
C618 H602 0.931 . S
C618 C612 1.383 . S
C618 C617 1.379 . S
H619 C613 0.959 . S
H620 C613 0.961 . S
H621 C613 0.960 . S
H622 C614 0.930 . S
H623 C615 0.929 . S
H624 C632 0.929 . S
H625 C634 0.930 . S
H626 C636 0.930 . S
H627 C639 0.929 . S
H628 C642 0.930 . S
H629 C644 0.960 . S
H630 C644 0.960 . S
H631 C644 0.960 . S
C632 H624 0.929 . S
C632 C633 1.377 . S
C632 C634 1.384 . S
C633 C632 1.377 . S
C633 C639 1.390 . S
C634 H625 0.930 . S
C634 C632 1.384 . S
C634 C635 1.372 . S
C635 C634 1.372 . S
C635 C636 1.400 . S
C635 C640 1.490 . S
C636 H626 0.930 . S
C636 C635 1.400 . S
C636 C639 1.386 . S
H637 C653 0.930 . S
H638 C654 0.931 . S
C639 H627 0.929 . S
C639 C633 1.390 . S
C639 C636 1.386 . S
C640 C635 1.490 . S
C640 C642 1.395 . S
C640 C643 1.403 . S
H641 C647 0.930 . S
C642 H628 0.930 . S
C642 C640 1.395 . S
C642 C645 1.403 . S
C643 C640 1.403 . S
C643 C644 1.524 . S
C643 C647 1.400 . S
C644 H629 0.960 . S
C644 H630 0.960 . S
C644 H631 0.960 . S
C644 C643 1.524 . S
C645 C642 1.403 . S
C645 C646 1.392 . S
C645 C649 1.495 . S
C646 C645 1.392 . S
C646 C647 1.385 . S
C646 C648 1.478 . S
C647 H641 0.930 . S
C647 C643 1.400 . S
C647 C646 1.385 . S
C648 C646 1.478 . S
C648 C650 1.381 . S
C648 C654 1.383 . S
C649 C645 1.495 . S
C649 H655 0.959 . S
C649 H656 0.961 . S
C649 H657 0.960 . S
C650 C648 1.381 . S
C650 C651 1.394 . S
C650 H658 0.930 . S
C651 C650 1.394 . S
C651 C652 1.383 . S
C651 H659 0.929 . S
C652 C651 1.383 . S
C652 C653 1.377 . S
C653 H637 0.930 . S
C653 C652 1.377 . S
C653 C654 1.379 . S
C654 H638 0.931 . S
C654 C648 1.383 . S
C654 C653 1.379 . S
H655 C649 0.959 . S
H656 C649 0.961 . S
H657 C649 0.960 . S
H658 C650 0.930 . S
H659 C651 0.929 . S
H660 C668 0.929 . S
H661 C670 0.930 . S
H662 C672 0.930 . S
H663 C675 0.929 . S
H664 C678 0.930 . S
H665 C680 0.960 . S
H666 C680 0.960 . S
H667 C680 0.960 . S
C668 H660 0.929 . S
C668 C669 1.377 . S
C668 C670 1.384 . S
C669 C668 1.377 . S
C669 C675 1.390 . S
C670 H661 0.930 . S
C670 C668 1.384 . S
C670 C671 1.372 . S
C671 C670 1.372 . S
C671 C672 1.400 . S
C671 C676 1.490 . S
C672 H662 0.930 . S
C672 C671 1.400 . S
C672 C675 1.386 . S
H673 C689 0.930 . S
H674 C690 0.931 . S
C675 H663 0.929 . S
C675 C669 1.390 . S
C675 C672 1.386 . S
C676 C671 1.490 . S
C676 C678 1.395 . S
C676 C679 1.403 . S
H677 C683 0.930 . S
C678 H664 0.930 . S
C678 C676 1.395 . S
C678 C681 1.403 . S
C679 C676 1.403 . S
C679 C680 1.524 . S
C679 C683 1.400 . S
C680 H665 0.960 . S
C680 H666 0.960 . S
C680 H667 0.960 . S
C680 C679 1.524 . S
C681 C678 1.403 . S
C681 C682 1.392 . S
C681 C685 1.495 . S
C682 C681 1.392 . S
C682 C683 1.385 . S
C682 C684 1.478 . S
C683 H677 0.930 . S
C683 C679 1.400 . S
C683 C682 1.385 . S
C684 C682 1.478 . S
C684 C686 1.381 . S
C684 C690 1.383 . S
C685 C681 1.495 . S
C685 H691 0.959 . S
C685 H692 0.961 . S
C685 H693 0.960 . S
C686 C684 1.381 . S
C686 C687 1.394 . S
C686 H694 0.930 . S
C687 C686 1.394 . S
C687 C688 1.383 . S
C687 H695 0.929 . S
C688 C687 1.383 . S
C688 C689 1.377 . S
C689 H673 0.930 . S
C689 C688 1.377 . S
C689 C690 1.379 . S
C690 H674 0.931 . S
C690 C684 1.383 . S
C690 C689 1.379 . S
H691 C685 0.959 . S
H692 C685 0.961 . S
H693 C685 0.960 . S
H694 C686 0.930 . S
H695 C687 0.929 . S
H696 C704 0.929 . S
H697 C706 0.930 . S
H698 C708 0.930 . S
H699 C711 0.929 . S
H700 C714 0.930 . S
H701 C716 0.960 . S
H702 C716 0.960 . S
H703 C716 0.960 . S
C704 H696 0.929 . S
C704 C705 1.377 . S
C704 C706 1.384 . S
C705 C704 1.377 . S
C705 C711 1.390 . S
C706 H697 0.930 . S
C706 C704 1.384 . S
C706 C707 1.372 . S
C707 C706 1.372 . S
C707 C708 1.400 . S
C707 C712 1.490 . S
C708 H698 0.930 . S
C708 C707 1.400 . S
C708 C711 1.386 . S
H709 C725 0.930 . S
H710 C726 0.931 . S
C711 H699 0.929 . S
C711 C705 1.390 . S
C711 C708 1.386 . S
C712 C707 1.490 . S
C712 C714 1.395 . S
C712 C715 1.403 . S
H713 C719 0.930 . S
C714 H700 0.930 . S
C714 C712 1.395 . S
C714 C717 1.403 . S
C715 C712 1.403 . S
C715 C716 1.524 . S
C715 C719 1.400 . S
C716 H701 0.960 . S
C716 H702 0.960 . S
C716 H703 0.960 . S
C716 C715 1.524 . S
C717 C714 1.403 . S
C717 C718 1.392 . S
C717 C721 1.495 . S
C718 C717 1.392 . S
C718 C719 1.385 . S
C718 C720 1.478 . S
C719 H713 0.930 . S
C719 C715 1.400 . S
C719 C718 1.385 . S
C720 C718 1.478 . S
C720 C722 1.381 . S
C720 C726 1.383 . S
C721 C717 1.495 . S
C721 H727 0.959 . S
C721 H728 0.961 . S
C721 H729 0.960 . S
C722 C720 1.381 . S
C722 C723 1.394 . S
C722 H730 0.930 . S
C723 C722 1.394 . S
C723 C724 1.383 . S
C723 H731 0.929 . S
C724 C723 1.383 . S
C724 C725 1.377 . S
C725 H709 0.930 . S
C725 C724 1.377 . S
C725 C726 1.379 . S
C726 H710 0.931 . S
C726 C720 1.383 . S
C726 C725 1.379 . S
H727 C721 0.959 . S
H728 C721 0.961 . S
H729 C721 0.960 . S
H730 C722 0.930 . S
H731 C723 0.929 . S
H732 C740 0.929 . S
H733 C742 0.930 . S
H734 C744 0.930 . S
H735 C747 0.929 . S
H736 C750 0.930 . S
H737 C752 0.960 . S
H738 C752 0.960 . S
H739 C752 0.960 . S
C740 H732 0.929 . S
C740 C741 1.377 . S
C740 C742 1.384 . S
C741 C740 1.377 . S
C741 C747 1.390 . S
C742 H733 0.930 . S
C742 C740 1.384 . S
C742 C743 1.372 . S
C743 C742 1.372 . S
C743 C744 1.400 . S
C743 C748 1.490 . S
C744 H734 0.930 . S
C744 C743 1.400 . S
C744 C747 1.386 . S
H745 C761 0.930 . S
H746 C762 0.931 . S
C747 H735 0.929 . S
C747 C741 1.390 . S
C747 C744 1.386 . S
C748 C743 1.490 . S
C748 C750 1.395 . S
C748 C751 1.403 . S
H749 C755 0.930 . S
C750 H736 0.930 . S
C750 C748 1.395 . S
C750 C753 1.403 . S
C751 C748 1.403 . S
C751 C752 1.524 . S
C751 C755 1.400 . S
C752 H737 0.960 . S
C752 H738 0.960 . S
C752 H739 0.960 . S
C752 C751 1.524 . S
C753 C750 1.403 . S
C753 C754 1.392 . S
C753 C757 1.495 . S
C754 C753 1.392 . S
C754 C755 1.385 . S
C754 C756 1.478 . S
C755 H749 0.930 . S
C755 C751 1.400 . S
C755 C754 1.385 . S
C756 C754 1.478 . S
C756 C758 1.381 . S
C756 C762 1.383 . S
C757 C753 1.495 . S
C757 H763 0.959 . S
C757 H764 0.961 . S
C757 H765 0.960 . S
C758 C756 1.381 . S
C758 C759 1.394 . S
C758 H766 0.930 . S
C759 C758 1.394 . S
C759 C760 1.383 . S
C759 H767 0.929 . S
C760 C759 1.383 . S
C760 C761 1.377 . S
C761 H745 0.930 . S
C761 C760 1.377 . S
C761 C762 1.379 . S
C762 H746 0.931 . S
C762 C756 1.383 . S
C762 C761 1.379 . S
H763 C757 0.959 . S
H764 C757 0.961 . S
H765 C757 0.960 . S
H766 C758 0.930 . S
H767 C759 0.929 . S
H768 C776 0.929 . S
H769 C778 0.930 . S
H770 C780 0.930 . S
H771 C783 0.929 . S
H772 C786 0.930 . S
H773 C788 0.960 . S
H774 C788 0.960 . S
H775 C788 0.960 . S
C776 H768 0.929 . S
C776 C777 1.377 . S
C776 C778 1.384 . S
C777 C776 1.377 . S
C777 C783 1.390 1_554 S
C778 H769 0.930 . S
C778 C776 1.384 . S
C778 C779 1.372 . S
C779 C778 1.372 . S
C779 C780 1.400 1_554 S
C779 C784 1.490 . S
C780 H770 0.930 . S
C780 C779 1.400 1_556 S
C780 C783 1.386 . S
H781 C797 0.930 . S
H782 C798 0.931 . S
C783 H771 0.929 . S
C783 C777 1.390 1_556 S
C783 C780 1.386 . S
C784 C779 1.490 . S
C784 C786 1.395 1_554 S
C784 C787 1.403 . S
H785 C791 0.930 . S
C786 H772 0.930 . S
C786 C784 1.395 1_556 S
C786 C789 1.403 . S
C787 C784 1.403 . S
C787 C788 1.524 . S
C787 C791 1.400 . S
C788 H773 0.960 . S
C788 H774 0.960 . S
C788 H775 0.960 . S
C788 C787 1.524 . S
C789 C786 1.403 . S
C789 C790 1.392 . S
C789 C793 1.495 . S
C790 C789 1.392 . S
C790 C791 1.385 1_556 S
C790 C792 1.478 . S
C791 H785 0.930 . S
C791 C787 1.400 . S
C791 C790 1.385 1_554 S
C792 C790 1.478 . S
C792 C794 1.381 1_556 S
C792 C798 1.383 . S
C793 C789 1.495 . S
C793 H799 0.959 . S
C793 H800 0.961 . S
C793 H801 0.960 . S
C794 C792 1.381 1_554 S
C794 C795 1.394 . S
C794 H802 0.930 . S
C795 C794 1.394 . S
C795 C796 1.383 1_554 S
C795 H803 0.929 . S
C796 C795 1.383 1_556 S
C796 C797 1.377 . S
C797 H781 0.930 . S
C797 C796 1.377 . S
C797 C798 1.379 . S
C798 H782 0.931 . S
C798 C792 1.383 . S
C798 C797 1.379 . S
H799 C793 0.959 . S
H800 C793 0.961 . S
H801 C793 0.960 . S
H802 C794 0.930 . S
H803 C795 0.929 . S
H804 C812 0.929 . S
H805 C814 0.930 . S
H806 C816 0.930 . S
H807 C819 0.929 . S
H808 C822 0.930 . S
H809 C824 0.960 . S
H810 C824 0.960 . S
H811 C824 0.960 . S
C812 H804 0.929 . S
C812 C813 1.377 . S
C812 C814 1.384 . S
C813 C812 1.377 . S
C813 C819 1.390 . S
C814 H805 0.930 . S
C814 C812 1.384 . S
C814 C815 1.372 . S
C815 C814 1.372 . S
C815 C816 1.400 . S
C815 C820 1.490 . S
C816 H806 0.930 . S
C816 C815 1.400 . S
C816 C819 1.386 . S
H817 C833 0.930 . S
H818 C834 0.931 . S
C819 H807 0.929 . S
C819 C813 1.390 . S
C819 C816 1.386 . S
C820 C815 1.490 . S
C820 C822 1.395 . S
C820 C823 1.403 . S
H821 C827 0.930 . S
C822 H808 0.930 . S
C822 C820 1.395 . S
C822 C825 1.403 . S
C823 C820 1.403 . S
C823 C824 1.524 . S
C823 C827 1.400 . S
C824 H809 0.960 . S
C824 H810 0.960 . S
C824 H811 0.960 . S
C824 C823 1.524 . S
C825 C822 1.403 . S
C825 C826 1.392 . S
C825 C829 1.495 . S
C826 C825 1.392 . S
C826 C827 1.385 . S
C826 C828 1.478 . S
C827 H821 0.930 . S
C827 C823 1.400 . S
C827 C826 1.385 . S
C828 C826 1.478 . S
C828 C830 1.381 . S
C828 C834 1.383 . S
C829 C825 1.495 . S
C829 H835 0.959 . S
C829 H836 0.961 . S
C829 H837 0.960 . S
C830 C828 1.381 . S
C830 C831 1.394 . S
C830 H838 0.930 . S
C831 C830 1.394 . S
C831 C832 1.383 . S
C831 H839 0.929 . S
C832 C831 1.383 . S
C832 C833 1.377 . S
C833 H817 0.930 . S
C833 C832 1.377 . S
C833 C834 1.379 . S
C834 H818 0.931 . S
C834 C828 1.383 . S
C834 C833 1.379 . S
H835 C829 0.959 . S
H836 C829 0.961 . S
H837 C829 0.960 . S
H838 C830 0.930 . S
H839 C831 0.929 . S
H840 C848 0.929 . S
H841 C850 0.930 . S
H842 C852 0.930 . S
H843 C855 0.929 . S
H844 C858 0.930 . S
H845 C860 0.960 . S
H846 C860 0.960 . S
H847 C860 0.960 . S
C848 H840 0.929 . S
C848 C849 1.380 . S
C848 C850 1.384 . S
C849 C848 1.380 . S
C849 C855 1.387 1_554 S
C850 H841 0.930 . S
C850 C848 1.384 . S
C850 C851 1.372 . S
C851 C850 1.372 . S
C851 C852 1.400 1_554 S
C851 C856 1.490 . S
C852 H842 0.930 . S
C852 C851 1.400 1_556 S
C852 C855 1.386 . S
H853 C869 0.930 . S
H854 C870 0.931 . S
C855 H843 0.929 . S
C855 C849 1.387 1_556 S
C855 C852 1.386 . S
C856 C851 1.490 . S
C856 C858 1.395 . S
C856 C859 1.403 1_554 S
H857 C863 0.930 . S
C858 H844 0.930 . S
C858 C856 1.395 . S
C858 C861 1.403 . S
C859 C856 1.403 1_556 S
C859 C860 1.524 . S
C859 C863 1.400 . S
C860 H845 0.960 . S
C860 H846 0.960 . S
C860 H847 0.960 . S
C860 C859 1.524 . S
C861 C858 1.403 . S
C861 C862 1.392 . S
C861 C865 1.495 . S
C862 C861 1.392 . S
C862 C863 1.385 1_554 S
C862 C864 1.478 . S
C863 H857 0.930 . S
C863 C859 1.400 . S
C863 C862 1.385 1_556 S
C864 C862 1.478 . S
C864 C866 1.381 . S
C864 C870 1.383 1_554 S
C865 C861 1.495 . S
C865 H871 0.959 . S
C865 H872 0.961 . S
C865 H873 0.960 . S
C866 C864 1.381 . S
C866 C867 1.394 . S
C866 H874 0.930 . S
C867 C866 1.394 . S
C867 C868 1.383 . S
C867 H875 0.929 . S
C868 C867 1.383 . S
C868 C869 1.377 1_554 S
C869 H853 0.930 . S
C869 C868 1.377 1_556 S
C869 C870 1.379 . S
C870 H854 0.931 . S
C870 C864 1.383 1_556 S
C870 C869 1.379 . S
H871 C865 0.959 . S
H872 C865 0.961 . S
H873 C865 0.960 . S
H874 C866 0.930 . S
H875 C867 0.929 . S
H876 C884 0.929 . S
H877 C886 0.930 . S
H878 C888 0.930 . S
H879 C891 0.929 . S
H880 C894 0.930 . S
H881 C896 0.960 . S
H882 C896 0.960 . S
H883 C896 0.960 . S
C884 H876 0.929 . S
C884 C885 1.377 . S
C884 C886 1.384 . S
C885 C884 1.377 . S
C885 C891 1.390 . S
C886 H877 0.930 . S
C886 C884 1.384 . S
C886 C887 1.372 . S
C887 C886 1.372 . S
C887 C888 1.400 . S
C887 C892 1.490 . S
C888 H878 0.930 . S
C888 C887 1.400 . S
C888 C891 1.386 . S
H889 C905 0.930 . S
H890 C906 0.931 . S
C891 H879 0.929 . S
C891 C885 1.390 . S
C891 C888 1.386 . S
C892 C887 1.490 . S
C892 C894 1.395 . S
C892 C895 1.403 . S
H893 C899 0.930 . S
C894 H880 0.930 . S
C894 C892 1.395 . S
C894 C897 1.403 . S
C895 C892 1.403 . S
C895 C896 1.524 . S
C895 C899 1.400 . S
C896 H881 0.960 . S
C896 H882 0.960 . S
C896 H883 0.960 . S
C896 C895 1.524 . S
C897 C894 1.403 . S
C897 C898 1.392 . S
C897 C901 1.495 . S
C898 C897 1.392 . S
C898 C899 1.385 . S
C898 C900 1.478 . S
C899 H893 0.930 . S
C899 C895 1.400 . S
C899 C898 1.385 . S
C900 C898 1.478 . S
C900 C902 1.381 . S
C900 C906 1.383 . S
C901 C897 1.495 . S
C901 H907 0.959 . S
C901 H908 0.961 . S
C901 H909 0.960 . S
C902 C900 1.381 . S
C902 C903 1.394 . S
C902 H910 0.930 . S
C903 C902 1.394 . S
C903 C904 1.383 . S
C903 H911 0.929 . S
C904 C903 1.383 . S
C904 C905 1.377 . S
C905 H889 0.930 . S
C905 C904 1.377 . S
C905 C906 1.379 . S
C906 H890 0.931 . S
C906 C900 1.383 . S
C906 C905 1.379 . S
H907 C901 0.959 . S
H908 C901 0.961 . S
H909 C901 0.960 . S
H910 C902 0.930 . S
H911 C903 0.929 . S
H912 C920 0.929 . S
H913 C922 0.930 . S
H914 C924 0.930 . S
H915 C927 0.929 . S
H916 C930 0.930 . S
H917 C932 0.960 . S
H918 C932 0.960 . S
H919 C932 0.960 . S
C920 H912 0.929 . S
C920 C921 1.377 . S
C920 C922 1.384 . S
C921 C920 1.377 . S
C921 C927 1.390 . S
C922 H913 0.930 . S
C922 C920 1.384 . S
C922 C923 1.372 . S
C923 C922 1.372 . S
C923 C924 1.400 . S
C923 C928 1.490 . S
C924 H914 0.930 . S
C924 C923 1.400 . S
C924 C927 1.386 . S
H925 C941 0.930 . S
H926 C942 0.931 . S
C927 H915 0.929 . S
C927 C921 1.390 . S
C927 C924 1.386 . S
C928 C923 1.490 . S
C928 C930 1.395 . S
C928 C931 1.403 . S
H929 C935 0.930 . S
C930 H916 0.930 . S
C930 C928 1.395 . S
C930 C933 1.403 . S
C931 C928 1.403 . S
C931 C932 1.524 . S
C931 C935 1.400 . S
C932 H917 0.960 . S
C932 H918 0.960 . S
C932 H919 0.960 . S
C932 C931 1.524 . S
C933 C930 1.403 . S
C933 C934 1.392 . S
C933 C937 1.495 . S
C934 C933 1.392 . S
C934 C935 1.385 . S
C934 C936 1.478 . S
C935 H929 0.930 . S
C935 C931 1.400 . S
C935 C934 1.385 . S
C936 C934 1.478 . S
C936 C938 1.381 . S
C936 C942 1.383 . S
C937 C933 1.495 . S
C937 H943 0.959 . S
C937 H944 0.961 . S
C937 H945 0.960 . S
C938 C936 1.381 . S
C938 C939 1.394 . S
C938 H946 0.930 . S
C939 C938 1.394 . S
C939 C940 1.383 . S
C939 H947 0.929 . S
C940 C939 1.383 . S
C940 C941 1.377 . S
C941 H925 0.930 . S
C941 C940 1.377 . S
C941 C942 1.379 . S
C942 H926 0.931 . S
C942 C936 1.383 . S
C942 C941 1.379 . S
H943 C937 0.959 . S
H944 C937 0.961 . S
H945 C937 0.960 . S
H946 C938 0.930 . S
H947 C939 0.929 . S
H948 C956 0.929 . S
H949 C958 0.930 . S
H950 C960 0.930 . S
H951 C963 0.929 . S
H952 C966 0.930 1_554 S
H953 C968 0.960 . S
H954 C968 0.960 . S
H955 C968 0.960 1_554 S
C956 H948 0.929 . S
C956 C957 1.394 . S
C956 C958 1.384 . S
C957 C956 1.394 . S
C957 C963 1.373 1_556 S
C958 H949 0.930 . S
C958 C956 1.384 . S
C958 C959 1.372 . S
C959 C958 1.372 . S
C959 C960 1.400 1_556 S
C959 C964 1.490 . S
C960 H950 0.930 . S
C960 C959 1.400 1_554 S
C960 C963 1.386 . S
H961 C977 0.930 . S
H962 C978 0.931 . S
C963 H951 0.929 . S
C963 C957 1.373 1_554 S
C963 C960 1.386 . S
C964 C959 1.490 . S
C964 C966 1.395 . S
C964 C967 1.403 . S
H965 C971 0.930 . S
C966 H952 0.930 1_556 S
C966 C964 1.395 . S
C966 C969 1.403 1_556 S
C967 C964 1.403 . S
C967 C968 1.524 . S
C967 C971 1.400 . S
C968 H953 0.960 . S
C968 H954 0.960 . S
C968 H955 0.960 1_556 S
C968 C967 1.524 . S
C969 C966 1.403 1_554 S
C969 C970 1.392 1_554 S
C969 C973 1.496 . S
C970 C969 1.392 1_556 S
C970 C971 1.385 . S
C970 C972 1.477 1_556 S
C971 H965 0.930 . S
C971 C967 1.400 . S
C971 C970 1.385 . S
C972 C970 1.477 1_554 S
C972 C974 1.375 1_554 S
C972 C978 1.389 . S
C973 C969 1.496 . S
C973 H979 0.959 . S
C973 H980 0.961 . S
C973 H981 0.960 1_554 S
C974 C972 1.375 1_556 S
C974 C975 1.394 . S
C974 H982 0.930 . S
C975 C974 1.394 . S
C975 C976 1.371 1_556 S
C975 H983 0.929 . S
C976 C975 1.371 1_554 S
C976 C977 1.389 . S
C977 H961 0.930 . S
C977 C976 1.389 . S
C977 C978 1.379 . S
C978 H962 0.931 . S
C978 C972 1.389 . S
C978 C977 1.379 . S
H979 C973 0.959 . S
H980 C973 0.961 . S
H981 C973 0.960 1_556 S
H982 C974 0.930 . S
H983 C975 0.929 . S
H984 C992 0.929 . S
H985 C994 0.930 . S
H986 C996 0.930 . S
H987 C999 0.929 . S
H988 C1002 0.930 . S
H989 C1004 0.960 . S
H990 C1004 0.960 . S
H991 C1004 0.960 . S
C992 H984 0.929 . S
C992 C993 1.377 . S
C992 C994 1.384 . S
C993 C992 1.377 . S
C993 C999 1.390 . S
C994 H985 0.930 . S
C994 C992 1.384 . S
C994 C995 1.372 . S
C995 C994 1.372 . S
C995 C996 1.400 . S
C995 C1000 1.490 . S
C996 H986 0.930 . S
C996 C995 1.400 . S
C996 C999 1.386 . S
H997 C1013 0.930 . S
H998 C1014 0.931 . S
C999 H987 0.929 . S
C999 C993 1.390 . S
C999 C996 1.386 . S
C1000 C995 1.490 . S
C1000 C1002 1.395 . S
C1000 C1003 1.403 . S
H1001 C1007 0.930 . S
C1002 H988 0.930 . S
C1002 C1000 1.395 . S
C1002 C1005 1.403 . S
C1003 C1000 1.403 . S
C1003 C1004 1.524 . S
C1003 C1007 1.400 . S
C1004 H989 0.960 . S
C1004 H990 0.960 . S
C1004 H991 0.960 . S
C1004 C1003 1.524 . S
C1005 C1002 1.403 . S
C1005 C1006 1.392 . S
C1005 C1009 1.495 . S
C1006 C1005 1.392 . S
C1006 C1007 1.385 . S
C1006 C1008 1.478 . S
C1007 H1001 0.930 . S
C1007 C1003 1.400 . S
C1007 C1006 1.385 . S
C1008 C1006 1.478 . S
C1008 C1010 1.381 . S
C1008 C1014 1.383 . S
C1009 C1005 1.495 . S
C1009 H1015 0.959 . S
C1009 H1016 0.961 . S
C1009 H1017 0.960 . S
C1010 C1008 1.381 . S
C1010 C1011 1.394 . S
C1010 H1018 0.930 . S
C1011 C1010 1.394 . S
C1011 C1012 1.383 . S
C1011 H1019 0.929 . S
C1012 C1011 1.383 . S
C1012 C1013 1.377 . S
C1013 H997 0.930 . S
C1013 C1012 1.377 . S
C1013 C1014 1.379 . S
C1014 H998 0.931 . S
C1014 C1008 1.383 . S
C1014 C1013 1.379 . S
H1015 C1009 0.959 . S
H1016 C1009 0.961 . S
H1017 C1009 0.960 . S
H1018 C1010 0.930 . S
H1019 C1011 0.929 . S
H1020 C1028 0.929 . S
H1021 C1030 0.930 . S
H1022 C1032 0.930 . S
H1023 C1035 0.929 . S
H1024 C1038 0.930 . S
H1025 C1040 0.960 . S
H1026 C1040 0.960 . S
H1027 C1040 0.960 . S
C1028 H1020 0.929 . S
C1028 C1029 1.383 . S
C1028 C1030 1.384 . S
C1029 C1028 1.383 . S
C1029 C1035 1.385 1_554 S
C1030 H1021 0.930 . S
C1030 C1028 1.384 . S
C1030 C1031 1.372 . S
C1031 C1030 1.372 . S
C1031 C1032 1.400 1_554 S
C1031 C1036 1.490 . S
C1032 H1022 0.930 . S
C1032 C1031 1.400 1_556 S
C1032 C1035 1.386 . S
H1033 C1049 0.930 . S
H1034 C1050 0.931 . S
C1035 H1023 0.929 . S
C1035 C1029 1.385 1_556 S
C1035 C1032 1.386 . S
C1036 C1031 1.490 . S
C1036 C1038 1.395 . S
C1036 C1039 1.403 1_554 S
H1037 C1043 0.930 . S
C1038 H1024 0.930 . S
C1038 C1036 1.395 . S
C1038 C1041 1.403 . S
C1039 C1036 1.403 1_556 S
C1039 C1040 1.524 . S
C1039 C1043 1.400 . S
C1040 H1025 0.960 . S
C1040 H1026 0.960 . S
C1040 H1027 0.960 . S
C1040 C1039 1.524 . S
C1041 C1038 1.403 . S
C1041 C1042 1.392 . S
C1041 C1045 1.495 . S
C1042 C1041 1.392 . S
C1042 C1043 1.385 1_554 S
C1042 C1044 1.478 . S
C1043 H1037 0.930 . S
C1043 C1039 1.400 . S
C1043 C1042 1.385 1_556 S
C1044 C1042 1.478 . S
C1044 C1046 1.381 . S
C1044 C1050 1.383 1_554 S
C1045 C1041 1.495 . S
C1045 H1051 0.959 . S
C1045 H1052 0.961 . S
C1045 H1053 0.960 . S
C1046 C1044 1.381 . S
C1046 C1047 1.394 . S
C1046 H1054 0.930 . S
C1047 C1046 1.394 . S
C1047 C1048 1.383 . S
C1047 H1055 0.929 . S
C1048 C1047 1.383 . S
C1048 C1049 1.377 1_554 S
C1049 H1033 0.930 . S
C1049 C1048 1.377 1_556 S
C1049 C1050 1.379 . S
C1050 H1034 0.931 . S
C1050 C1044 1.383 1_556 S
C1050 C1049 1.379 . S
H1051 C1045 0.959 . S
H1052 C1045 0.961 . S
H1053 C1045 0.960 . S
H1054 C1046 0.930 . S
H1055 C1047 0.929 . S
C201 C21 1.510 . S
C220 N128 1.521 . S
C237 C40 1.481 . S
C256 N89 1.464 . S
C292 N106 1.456 . S
C273 C54 1.456 . S
C309 C73 1.507 . S
C328 N119 1.516 . S
C364 N158 1.458 . S
C345 C74 1.455 . S
C400 N171 1.481 . S
C381 C10 1.481 . S
C436 N180 1.523 . S
C417 C37 1.509 . S
C472 N141 1.516 . S
C453 C65 1.504 . S
C489 C52 1.456 . S
C508 N102 1.452 . S
C525 C87 1.507 . S
C544 N115 1.517 . S
C561 C15 1.512 . S
C580 N132 1.519 . S
C616 N93 1.466 . S
C597 C32 1.479 . S
C633 C29 1.509 . S
C652 N184 1.511 . S
C688 N145 1.515 . S
C669 C59 1.507 . S
C724 N154 1.447 . S
C705 C84 1.453 . S
C741 C8 1.480 . S
C760 N167 1.478 . S
C796 N90 1.508 . S
C777 C7 1.508 . S
C832 N103 1.470 . S
C813 C30 1.475 . S
C849 C62 1.505 . S
C868 N116 1.500 . S
C885 C81 1.508 . S
C904 N129 1.516 . S
C940 N142 1.495 . S
C921 C76 1.504 . S
C957 C18 1.476 . S
C976 N155 1.477 1_554 S
C993 C43 1.506 . S
C1012 N168 1.518 . S
C1029 C51 1.504 1_554 S
C1048 N181 1.515 . S
