# Generated by pormake.
# Topology zzz, (3,6)-cn, num edge types: 1
# Building blocks:
#     Node 0, Type 0, BuildingBlock: BELTOD_clean_linker_0, # of connection points: 3
#     Node 1, Type 0, BuildingBlock: BELTOD_clean_linker_0, # of connection points: 3
#     Node 2, Type 0, BuildingBlock: BELTOD_clean_linker_0, # of connection points: 3
#     Node 3, Type 0, BuildingBlock: BELTOD_clean_linker_0, # of connection points: 3
#     Node 4, Type 0, BuildingBlock: BELTOD_clean_linker_0, # of connection points: 3
#     Node 5, Type 0, BuildingBlock: BELTOD_clean_linker_0, # of connection points: 3
#     Node 6, Type 0, BuildingBlock: BELTOD_clean_linker_0, # of connection points: 3
#     Node 7, Type 0, BuildingBlock: BELTOD_clean_linker_0, # of connection points: 3
#     Node 8, Type 1, BuildingBlock: CUKXOW_clean_sbu_0, # of connection points: 6
#     Node 9, Type 1, BuildingBlock: CUKXOW_clean_sbu_0, # of connection points: 6
#     Node 10, Type 1, BuildingBlock: CUKXOW_clean_sbu_0, # of connection points: 6
#     Node 11, Type 1, BuildingBlock: CUKXOW_clean_sbu_0, # of connection points: 6
#     Edge 12, Type (0, 1), BuildingBlock: CIFDUS_clean_linker_0, # of connection points: 2
#     Edge 13, Type (0, 1), BuildingBlock: CIFDUS_clean_linker_0, # of connection points: 2
#     Edge 14, Type (0, 1), BuildingBlock: CIFDUS_clean_linker_0, # of connection points: 2
#     Edge 15, Type (0, 1), BuildingBlock: CIFDUS_clean_linker_0, # of connection points: 2
#     Edge 16, Type (0, 1), BuildingBlock: CIFDUS_clean_linker_0, # of connection points: 2
#     Edge 17, Type (0, 1), BuildingBlock: CIFDUS_clean_linker_0, # of connection points: 2
#     Edge 18, Type (0, 1), BuildingBlock: CIFDUS_clean_linker_0, # of connection points: 2
#     Edge 19, Type (0, 1), BuildingBlock: CIFDUS_clean_linker_0, # of connection points: 2
#     Edge 20, Type (0, 1), BuildingBlock: CIFDUS_clean_linker_0, # of connection points: 2
#     Edge 21, Type (0, 1), BuildingBlock: CIFDUS_clean_linker_0, # of connection points: 2
#     Edge 22, Type (0, 1), BuildingBlock: CIFDUS_clean_linker_0, # of connection points: 2
#     Edge 23, Type (0, 1), BuildingBlock: CIFDUS_clean_linker_0, # of connection points: 2
#     Edge 24, Type (0, 1), BuildingBlock: CIFDUS_clean_linker_0, # of connection points: 2
#     Edge 25, Type (0, 1), BuildingBlock: CIFDUS_clean_linker_0, # of connection points: 2
#     Edge 26, Type (0, 1), BuildingBlock: CIFDUS_clean_linker_0, # of connection points: 2
#     Edge 27, Type (0, 1), BuildingBlock: CIFDUS_clean_linker_0, # of connection points: 2
#     Edge 28, Type (0, 1), BuildingBlock: CIFDUS_clean_linker_0, # of connection points: 2
#     Edge 29, Type (0, 1), BuildingBlock: CIFDUS_clean_linker_0, # of connection points: 2
#     Edge 30, Type (0, 1), BuildingBlock: CIFDUS_clean_linker_0, # of connection points: 2
#     Edge 31, Type (0, 1), BuildingBlock: CIFDUS_clean_linker_0, # of connection points: 2
#     Edge 32, Type (0, 1), BuildingBlock: CIFDUS_clean_linker_0, # of connection points: 2
#     Edge 33, Type (0, 1), BuildingBlock: CIFDUS_clean_linker_0, # of connection points: 2
#     Edge 34, Type (0, 1), BuildingBlock: CIFDUS_clean_linker_0, # of connection points: 2
#     Edge 35, Type (0, 1), BuildingBlock: CIFDUS_clean_linker_0, # of connection points: 2
# Relax obj value: 0.193
# Max RMSD: 0.215
# Mean RMSD: 0.176
data_MOF--net-zzz--node1-CUKXOW_clean_sbu_0--node2-BELTOD_clean_linker_0--edge1-CIFDUS_clean_linker_0
_symmetry_space_group_name_H-M    P1
_symmetry_Int_Tables_number       1
_symmetry_cell_setting            triclinic
loop_
_symmetry_equiv_pos_as_xyz
'x, y, z'
_cell_length_a     48.545154
_cell_length_b     47.969097
_cell_length_c     17.031819
_cell_angle_alpha  92.91536
_cell_angle_beta   87.826658
_cell_angle_gamma 95.617428
loop_
_atom_site_label
_atom_site_type_symbol
_atom_site_fract_x
_atom_site_fract_y
_atom_site_fract_z
_atom_type_partial_charge
P0 P 0.75641 0.40051 0.1146 0.0
H1 H 0.7774 0.36971 0.2383 0.0
H2 H 0.80363 0.38567 0.35342 0.0
H3 H 0.78407 0.47043 0.3233 0.0
H4 H 0.75914 0.4544 0.20536 0.0
H5 H 0.73677 0.40086 0.9573 0.0
H6 H 0.6983 0.42121 0.90042 0.0
H7 H 0.67377 0.45391 0.13062 0.0
H8 H 0.71195 0.43267 0.18801 0.0
H9 H 0.80283 0.37168 0.0453 0.0
H10 H 0.77745 0.45553 0.06299 0.0
O11 O 0.75035 0.36568 0.10458 0.0
H12 H 0.84745 0.38964 0.98564 0.0
H13 H 0.82205 0.47356 0.00486 0.0
C14 C 0.76572 0.4107 0.21397 0.0
C15 C 0.77782 0.39155 0.25812 0.0
C16 C 0.79291 0.40078 0.3243 0.0
C17 C 0.79629 0.42945 0.34753 0.0
C18 C 0.78233 0.44827 0.30645 0.0
C19 C 0.76755 0.43903 0.23963 0.0
C20 C 0.72754 0.41574 0.07652 0.0
C21 C 0.72313 0.4124 0.99565 0.0
C22 C 0.70116 0.42398 0.96322 0.0
C23 C 0.68327 0.43927 0.01115 0.0
C24 C 0.68758 0.44252 0.0924 0.0
C25 C 0.7094 0.43047 0.12512 0.0
C26 C 0.78677 0.41226 0.0575 0.0
C27 C 0.8066 0.39381 0.03471 0.0
C28 C 0.83205 0.40407 0.00084 0.0
C29 C 0.83811 0.43296 0.9911 0.0
C30 C 0.81789 0.45123 0.0122 0.0
C31 C 0.7924 0.44092 0.04494 0.0
P32 P 0.95976 0.76073 0.0708 0.0
H33 H 0.9903 0.77929 0.20981 0.0
H34 H 0.9807 0.81207 0.31805 0.0
H35 H 0.89714 0.81345 0.24027 0.0
H36 H 0.90701 0.78007 0.13114 0.0
H37 H 0.93971 0.74402 0.91392 0.0
H38 H 0.92406 0.69758 0.85988 0.0
H39 H 0.91377 0.66731 0.09461 0.0
H40 H 0.92946 0.71412 0.14876 0.0
H41 H 0.01009 0.78507 0.99043 0.0
H42 H 0.92315 0.79736 0.00296 0.0
O43 O 0.98944 0.74683 0.08287 0.0
H44 H 0.01967 0.827 0.91486 0.0
H45 H 0.93272 0.83969 0.92809 0.0
C46 C 0.94933 0.77716 0.16266 0.0
C47 C 0.96956 0.78572 0.21752 0.0
C48 C 0.964 0.80452 0.27973 0.0
C49 C 0.93815 0.81546 0.2877 0.0
C50 C 0.91729 0.8055 0.23532 0.0
C51 C 0.92286 0.78637 0.17325 0.0
C52 C 0.93581 0.73249 0.03542 0.0
C53 C 0.93263 0.72789 0.95421 0.0
C54 C 0.92357 0.70123 0.92319 0.0
C55 C 0.91813 0.67876 0.97306 0.0
C56 C 0.91799 0.68428 0.05494 0.0
C57 C 0.92688 0.71103 0.08592 0.0
C58 C 0.96593 0.78825 0.00278 0.0
C59 C 0.99297 0.79647 0.97571 0.0
C60 C 0.99843 0.8204 0.93226 0.0
C61 C 0.97695 0.83664 0.91615 0.0
C62 C 0.94968 0.82765 0.94042 0.0
C63 C 0.9442 0.80351 0.98312 0.0
P64 P 0.74357 0.08076 0.15998 0.0
H65 H 0.72898 0.1046 0.31546 0.0
H66 H 0.70025 0.08424 0.42295 0.0
H67 H 0.70169 0.00218 0.30785 0.0
H68 H 0.73159 0.0224 0.20194 0.0
H69 H 0.76035 0.07357 0.99477 0.0
H70 H 0.80279 0.05989 0.92921 0.0
H71 H 0.83488 0.04424 0.15433 0.0
H72 H 0.79207 0.05798 0.2199 0.0
H73 H 0.70155 0.11697 0.11915 0.0
H74 H 0.71963 0.03139 0.07052 0.0
O75 O 0.75191 0.11511 0.176 0.0
H76 H 0.6587 0.10751 0.04667 0.0
H77 H 0.67656 0.0217 -0.00012 0.0
C78 C 0.73237 0.06501 0.25063 0.0
C79 C 0.72429 0.08207 0.31503 0.0
C80 C 0.70784 0.07044 0.37641 0.0
C81 C 0.69875 0.04174 0.37303 0.0
C82 C 0.70855 0.02437 0.31152 0.0
C83 C 0.72557 0.03593 0.25112 0.0
C84 C 0.77283 0.06615 0.11205 0.0
C85 C 0.77615 0.06643 0.02997 0.0
C86 C 0.80044 0.05858 0.99245 0.0
C87 C 0.8221 0.05087 0.03659 0.0
C88 C 0.81852 0.05014 0.11887 0.0
C89 C 0.79406 0.05781 0.15633 0.0
C90 C 0.71391 0.07498 0.09922 0.0
C91 C 0.69649 0.09627 0.09215 0.0
C92 C 0.672 0.09084 0.05113 0.0
C93 C 0.66437 0.06385 0.01822 0.0
C94 C 0.68188 0.04259 0.02545 0.0
C95 C 0.70652 0.04816 0.06537 0.0
P96 P 0.54191 0.75019 0.2351 0.0
H97 H 0.55484 0.76957 0.39679 0.0
H98 H 0.57129 0.74406 0.50327 0.0
H99 H 0.5935 0.67902 0.3334 0.0
H100 H 0.57999 0.70594 0.22879 0.0
H101 H 0.52208 0.77065 0.0941 0.0
H102 H 0.53282 0.81329 0.024 0.0
H103 H 0.59397 0.84295 0.19425 0.0
H104 H 0.58345 0.7991 0.26433 0.0
H105 H 0.50364 0.69963 0.24201 0.0
H106 H 0.56556 0.73566 0.07852 0.0
O107 O 0.5124 0.75607 0.28375 0.0
H108 H 0.49636 0.65777 0.15392 0.0
H109 H 0.55777 0.69421 0.98941 0.0
C110 C 0.56511 0.73915 0.30515 0.0
C111 C 0.56449 0.75044 0.38256 0.0
C112 C 0.57347 0.73543 0.44367 0.0
C113 C 0.58236 0.70846 0.42839 0.0
C114 C 0.58654 0.69935 0.34918 0.0
C115 C 0.5784 0.71479 0.28828 0.0
C116 C 0.5527 0.78123 0.1827 0.0
C117 C 0.53839 0.78586 0.11544 0.0
C118 C 0.54453 0.81031 0.07533 0.0
C119 C 0.56464 0.83117 0.10271 0.0
C120 C 0.57863 0.82696 0.17142 0.0
C121 C 0.57274 0.80198 0.21117 0.0
C122 C 0.53441 0.72113 0.16555 0.0
C123 C 0.51519 0.69881 0.1864 0.0
C124 C 0.51121 0.67487 0.13647 0.0
C125 C 0.52638 0.67298 0.06482 0.0
C126 C 0.54553 0.69542 0.04379 0.0
C127 C 0.54983 0.71915 0.09442 0.0
P128 P 0.25398 0.48061 0.27026 0.0
H129 H 0.2613 0.45715 0.10948 0.0
H130 H 0.23655 0.46429 0.9914 0.0
H131 H 0.20371 0.53687 0.10732 0.0
H132 H 0.23013 0.53075 0.22224 0.0
H133 H 0.27363 0.47604 0.42505 0.0
H134 H 0.31634 0.4928 0.48816 0.0
H135 H 0.34306 0.53981 0.28402 0.0
H136 H 0.3001 0.52159 0.21951 0.0
H137 H 0.20381 0.4434 0.29626 0.0
H138 H 0.23611 0.52686 0.37288 0.0
O139 O 0.25861 0.44657 0.2603 0.0
H140 H 0.15867 0.45157 0.35576 0.0
H141 H 0.19059 0.53578 0.42939 0.0
C142 C 0.24671 0.49281 0.17568 0.0
C143 C 0.24969 0.47527 0.10825 0.0
C144 C 0.23522 0.47921 0.04096 0.0
C145 C 0.21708 0.50041 0.04084 0.0
C146 C 0.21718 0.52013 0.10499 0.0
C147 C 0.23219 0.51651 0.17152 0.0
C148 C 0.28368 0.49778 0.31816 0.0
C149 C 0.28844 0.49038 0.39441 0.0
C150 C 0.31291 0.50025 0.43072 0.0
C151 C 0.33321 0.51799 0.3917 0.0
C152 C 0.32797 0.52608 0.31565 0.0
C153 C 0.30338 0.51588 0.27889 0.0
C154 C 0.22332 0.48442 0.33082 0.0
C155 C 0.20133 0.46329 0.32745 0.0
C156 C 0.17543 0.46816 0.3606 0.0
C157 C 0.17087 0.49454 0.39602 0.0
C158 C 0.1934 0.51518 0.40307 0.0
C159 C 0.21945 0.51012 0.37073 0.0
P160 P 0.13877 0.25538 0.3117 0.0
H161 H 0.17203 0.24766 0.16501 0.0
H162 H 0.16086 0.22095 0.04152 0.0
H163 H 0.07558 0.20657 0.1233 0.0
H164 H 0.08691 0.2323 0.24629 0.0
H165 H 0.14216 0.29339 0.4504 0.0
H166 H 0.11626 0.33288 0.49567 0.0
H167 H 0.06895 0.3224 0.28488 0.0
H168 H 0.09512 0.28383 0.23892 0.0
H169 H 0.15113 0.19774 0.29069 0.0
H170 H 0.10555 0.24658 0.46045 0.0
O171 O 0.17275 0.26448 0.31643 0.0
H172 H 0.13107 0.15505 0.34758 0.0
H173 H 0.08748 0.204 0.52388 0.0
C174 C 0.13012 0.24249 0.21391 0.0
C175 C 0.15079 0.23948 0.15518 0.0
C176 C 0.14445 0.22418 0.08492 0.0
C177 C 0.11731 0.21205 0.07266 0.0
C178 C 0.09651 0.21627 0.1303 0.0
C179 C 0.10296 0.23101 0.20062 0.0
C180 C 0.12031 0.28514 0.34214 0.0
C181 C 0.12629 0.29967 0.41384 0.0
C182 C 0.11153 0.32219 0.43953 0.0
C183 C 0.09045 0.33042 0.39392 0.0
C184 C 0.08476 0.31612 0.32169 0.0
C185 C 0.09975 0.29386 0.29563 0.0
C186 C 0.12952 0.22538 0.37018 0.0
C187 C 0.13744 0.19931 0.34211 0.0
C188 C 0.12603 0.17472 0.37566 0.0
C189 C 0.10709 0.1756 0.44034 0.0
C190 C 0.10112 0.20213 0.47256 0.0
C191 C 0.11188 0.22675 0.43703 0.0
P192 P 0.2885 0.06474 0.29642 0.0
H193 H 0.30078 0.09418 0.15069 0.0
H194 H 0.32736 0.08161 0.03174 0.0
H195 H 0.32809 0.9974 0.10987 0.0
H196 H 0.30202 0.0103 0.22954 0.0
H197 H 0.24771 0.09175 0.39356 0.0
H198 H 0.20104 0.07629 0.44067 0.0
H199 H 0.20421 0.99815 0.30431 0.0
H200 H 0.25106 0.01414 0.25568 0.0
H201 H 0.34778 0.07316 0.31285 0.0
H202 H 0.27883 0.02509 0.42497 0.0
O203 O 0.29369 0.09967 0.30476 0.0
H204 H 0.37983 0.05096 0.39077 0.0
H205 H 0.31088 0.0029 0.50373 0.0
C206 C 0.29971 0.05325 0.19927 0.0
C207 C 0.30597 0.0728 0.14124 0.0
C208 C 0.32111 0.06555 0.07302 0.0
C209 C 0.33022 0.03864 0.06208 0.0
C210 C 0.32177 0.01844 0.11734 0.0
C211 C 0.30664 0.02571 0.18541 0.0
C212 C 0.2527 0.05429 0.32027 0.0
C213 C 0.23823 0.07152 0.37243 0.0
C214 C 0.21163 0.06251 0.40002 0.0
C215 C 0.19908 0.03585 0.3769 0.0
C216 C 0.21331 0.01885 0.32275 0.0
C217 C 0.24006 0.02797 0.29497 0.0
C218 C 0.31096 0.05089 0.36318 0.0
C219 C 0.33953 0.05812 0.35514 0.0
C220 C 0.35782 0.04527 0.39939 0.0
C221 C 0.34789 0.02506 0.45323 0.0
C222 C 0.31913 0.01852 0.46314 0.0
C223 C 0.30079 0.0312 0.41799 0.0
P224 P 0.36903 0.26605 0.30206 0.0
H225 H 0.33669 0.28567 0.17703 0.0
H226 H 0.35086 0.30905 0.05543 0.0
H227 H 0.43616 0.2969 0.09506 0.0
H228 H 0.42188 0.2736 0.21604 0.0
H229 H 0.36591 0.23295 0.44056 0.0
H230 H 0.38461 0.18911 0.46896 0.0
H231 H 0.41344 0.17988 0.22689 0.0
H232 H 0.39432 0.22336 0.19846 0.0
H233 H 0.35684 0.322 0.35862 0.0
H234 H 0.42169 0.26797 0.38252 0.0
O235 O 0.33494 0.2657 0.31936 0.0
H236 H 0.38395 0.35993 0.43138 0.0
H237 H 0.44878 0.30563 0.45518 0.0
C238 C 0.37823 0.27764 0.20498 0.0
C239 C 0.35834 0.2874 0.15844 0.0
C240 C 0.36646 0.30085 0.08918 0.0
C241 C 0.39461 0.30477 0.06566 0.0
C242 C 0.41428 0.29378 0.11078 0.0
C243 C 0.40616 0.28054 0.18012 0.0
C244 C 0.37925 0.23175 0.31799 0.0
C245 C 0.37584 0.22122 0.39333 0.0
C246 C 0.38641 0.19613 0.40937 0.0
C247 C 0.40067 0.18125 0.3502 0.0
C248 C 0.40284 0.19115 0.27376 0.0
C249 C 0.39201 0.21611 0.25762 0.0
C250 C 0.38687 0.29193 0.3671 0.0
C251 C 0.37661 0.3181 0.38114 0.0
C252 C 0.39223 0.33982 0.42196 0.0
C253 C 0.41847 0.33573 0.44916 0.0
C254 C 0.42845 0.30929 0.43614 0.0
C255 C 0.41291 0.28768 0.39477 0.0
Tb256 Tb 0.99489 0.99598 0.63439 0.0
C257 C 0.05829 0.01501 0.62682 0.0
Tb258 Tb 0.017 0.04499 0.74667 0.0
O259 O 0.0058 0.02166 0.53302 0.0
O260 O 0.99505 0.04001 0.64179 0.0
O261 O 0.0391 0.99415 0.60932 0.0
C262 C 0.04089 0.09358 0.80377 0.0
O263 O 0.05314 0.03749 0.67163 0.0
C264 C 0.0087 0.99614 0.80817 0.0
C265 C 0.95408 0.02538 0.75895 0.0
O266 O 0.01973 0.09081 0.75869 0.0
O267 O 0.04816 0.06906 0.81791 0.0
O268 O 0.00735 0.01963 0.84919 0.0
O269 O 0.0171 0.00111 0.73903 0.0
O270 O 0.97342 0.04623 0.77438 0.0
O271 O 0.95838 0.00337 0.71063 0.0
C272 C 0.97303 0.94653 0.57561 0.0
O273 O 0.96813 0.97075 0.55128 0.0
O274 O 0.99034 0.95026 0.6321 0.0
C275 C 0.00389 0.04522 0.57322 0.0
Tb276 Tb 0.49786 0.0308 0.63841 0.0
C277 C 0.5527 0.00661 0.58665 0.0
Tb278 Tb 0.51758 0.98431 0.73272 0.0
O279 O 0.53009 0.06263 0.67842 0.0
O280 O 0.51726 0.02858 0.74697 0.0
O281 O 0.52961 0.01477 0.55958 0.0
C282 C 0.54353 0.94778 0.80923 0.0
O283 O 0.5538 0.99788 0.65904 0.0
C284 C 0.47908 0.9697 0.6288 0.0
C285 C 0.46467 0.0113 0.79612 0.0
O286 O 0.53684 0.94507 0.73604 0.0
O287 O 0.53553 0.97112 0.83968 0.0
O288 O 0.4798 0.95818 0.69584 0.0
O289 O 0.49966 0.98735 0.62291 0.0
O290 O 0.48506 0.99649 0.8142 0.0
O291 O 0.46487 0.02486 0.72979 0.0
C292 C 0.46706 0.05899 0.54951 0.0
O293 O 0.45787 0.03828 0.5922 0.0
O294 O 0.49364 0.06381 0.55664 0.0
C295 C 0.53549 0.04894 0.73888 0.0
Tb296 Tb 0.52535 0.52071 0.68193 0.0
C297 C 0.46152 0.51594 0.658 0.0
Tb298 Tb 0.48818 0.47568 0.76992 0.0
O299 O 0.51476 0.49987 0.56774 0.0
O300 O 0.51439 0.47706 0.66845 0.0
O301 O 0.48493 0.53261 0.65349 0.0
C302 C 0.45249 0.43375 0.81899 0.0
O303 O 0.4591 0.49163 0.69275 0.0
C304 C 0.50504 0.52088 0.85404 0.0
C305 C 0.55203 0.47803 0.78712 0.0
O306 O 0.45057 0.46021 0.83497 0.0
O307 O 0.47456 0.43084 0.77511 0.0
O308 O 0.49958 0.49636 0.8829 0.0
O309 O 0.49856 0.51956 0.78301 0.0
O310 O 0.52838 0.46166 0.78825 0.0
O311 O 0.55472 0.5033 0.75709 0.0
C312 C 0.55757 0.56667 0.64259 0.0
O313 O 0.56045 0.54135 0.61462 0.0
O314 O 0.53684 0.56586 0.6929 0.0
C315 C 0.50838 0.47551 0.59712 0.0
Tb316 Tb 0.98039 0.50162 0.63667 0.0
C317 C 0.02933 0.4647 0.59845 0.0
Tb318 Tb 0.03075 0.50808 0.74551 0.0
O319 O 0.00523 0.51789 0.5371 0.0
O320 O 0.01688 0.52934 0.65085 0.0
O321 O 0.00226 0.46605 0.59147 0.0
C322 C 0.08075 0.51408 0.80763 0.0
O323 O 0.0445 0.48148 0.64776 0.0
C324 C 0.98655 0.4781 0.79776 0.0
C325 C 0.98301 0.54622 0.78252 0.0
O326 O 0.06537 0.49061 0.79728 0.0
O327 O 0.0678 0.53442 0.78415 0.0
O328 O 0.00443 0.49185 0.84358 0.0
O329 O 0.99534 0.4796 0.72771 0.0
O330 O 0.00967 0.54346 0.79087 0.0
O331 O 0.96736 0.53068 0.73123 0.0
C332 C 0.93072 0.49217 0.57306 0.0
O333 O 0.94819 0.51405 0.56314 0.0
O334 O 0.9412 0.47549 0.61907 0.0
C335 C 0.0249 0.53042 0.57945 0.0
H336 H 0.18341 0.04001 0.53021 0.0
H337 H 0.15377 0.00866 0.304 0.0
H338 H 0.10775 0.99584 0.36355 0.0
H339 H 0.07489 0.99784 0.47877 0.0
H340 H 0.10514 0.03231 0.7016 0.0
H341 H 0.15196 0.03957 0.64478 0.0
C342 C 0.16686 0.03041 0.49382 0.0
C343 C 0.17182 0.02571 0.4127 0.0
C344 C 0.14056 0.02366 0.52803 0.0
C345 C 0.15042 0.01254 0.36667 0.0
C346 C 0.1241 0.00533 0.40064 0.0
C347 C 0.09193 0.0063 0.51495 0.0
C348 C 0.08673 0.0145 0.59413 0.0
C349 C 0.11878 0.01129 0.4811 0.0
C350 C 0.10876 0.02592 0.64042 0.0
C351 C 0.13548 0.03017 0.60797 0.0
H352 H 0.38083 0.13652 0.4352 0.0
H353 H 0.45391 0.17228 0.31098 0.0
H354 H 0.48055 0.13608 0.35693 0.0
H355 H 0.48414 0.09698 0.44223 0.0
H356 H 0.41125 0.06052 0.56544 0.0
H357 H 0.38346 0.09431 0.51065 0.0
C358 C 0.40253 0.13617 0.41779 0.0
C359 C 0.41545 0.1571 0.37024 0.0
C360 C 0.41778 0.11537 0.44483 0.0
C361 C 0.44346 0.15626 0.34709 0.0
C362 C 0.45876 0.13571 0.37379 0.0
C363 C 0.46209 0.09625 0.45612 0.0
C364 C 0.44975 0.07666 0.50828 0.0
C365 C 0.44629 0.11556 0.42404 0.0
C366 C 0.42116 0.0756 0.5255 0.0
C367 C 0.40531 0.09495 0.49447 0.0
H368 H 0.34293 0.53033 0.54659 0.0
H369 H 0.38501 0.5224 0.31977 0.0
H370 H 0.42952 0.52589 0.38323 0.0
H371 H 0.45578 0.52388 0.50405 0.0
H372 H 0.41237 0.52446 0.72932 0.0
H373 H 0.36907 0.53067 0.66613 0.0
C374 C 0.36181 0.52938 0.51081 0.0
C375 C 0.36044 0.52559 0.42851 0.0
C376 C 0.38713 0.52972 0.54778 0.0
C377 C 0.38529 0.52542 0.38317 0.0
C378 C 0.4108 0.52708 0.4195 0.0
C379 C 0.43687 0.52601 0.53895 0.0
C380 C 0.43697 0.52396 0.62082 0.0
C381 C 0.41186 0.52819 0.50181 0.0
C382 C 0.4125 0.52614 0.66609 0.0
C383 C 0.38784 0.52959 0.63 0.0
H384 H 0.11102 0.38188 0.44721 0.0
H385 H 0.0343 0.33159 0.40133 0.0
H386 H 0.00804 0.36981 0.4544 0.0
H387 H 0.00719 0.41644 0.5228 0.0
H388 H 0.08468 0.46578 0.56907 0.0
H389 H 0.11022 0.42934 0.50585 0.0
C390 C 0.08855 0.37935 0.44889 0.0
C391 C 0.07456 0.35398 0.42156 0.0
C392 C 0.07371 0.40128 0.47941 0.0
C393 C 0.04546 0.35104 0.42233 0.0
C394 C 0.03047 0.37282 0.45279 0.0
C395 C 0.02962 0.41929 0.5181 0.0
C396 C 0.04394 0.44364 0.55144 0.0
C397 C 0.04439 0.39791 0.48269 0.0
C398 C 0.07306 0.44709 0.5448 0.0
C399 C 0.08778 0.42623 0.50874 0.0
H400 H 0.83163 0.01989 0.90117 0.0
H401 H 0.8732 0.07199 0.08319 0.0
H402 H 0.91757 0.0684 0.01329 0.0
H403 H 0.94423 0.05233 0.89838 0.0
H404 H 0.90361 -0.0005 0.71634 0.0
H405 H 0.85906 0.00166 0.78808 0.0
C406 C 0.85045 0.03035 0.9255 0.0
C407 C 0.84914 0.04619 0.99722 0.0
C408 C 0.87594 0.02831 0.88473 0.0
C409 C 0.87369 0.05939 0.02864 0.0
C410 C 0.89904 0.05756 0.98837 0.0
C411 C 0.92561 0.0414 0.87404 0.0
C412 C 0.92709 0.02617 0.80155 0.0
C413 C 0.90033 0.04242 0.91597 0.0
C414 C 0.90293 0.01153 0.77183 0.0
C415 C 0.8775 0.01276 0.81282 0.0
H416 H 0.57395 0.83667 0.94682 0.0
H417 H 0.56429 0.88483 0.16494 0.0
H418 H 0.56025 0.92698 0.09221 0.0
H419 H 0.55241 0.94803 0.96617 0.0
H420 H 0.55989 0.89849 0.74915 0.0
H421 H 0.57187 0.85901 0.82155 0.0
C422 C 0.57149 0.85656 0.97833 0.0
C423 C 0.56906 0.85766 0.06088 0.0
C424 C 0.56834 0.88031 0.93621 0.0
C425 C 0.56627 0.88354 0.10133 0.0
C426 C 0.56366 0.90753 0.05972 0.0
C427 C 0.55713 0.92872 0.93487 0.0
C428 C 0.55488 0.92594 0.85269 0.0
C429 C 0.56355 0.90588 0.97713 0.0
C430 C 0.56122 0.90097 0.81252 0.0
C431 C 0.56805 0.87839 0.85386 0.0
H432 H 0.64467 0.41183 0.91842 0.0
H433 H 0.66973 0.49328 0.02511 0.0
H434 H 0.63214 0.51317 0.96124 0.0
H435 H 0.5919 0.50706 0.87474 0.0
H436 H 0.56553 0.42462 0.7761 0.0
H437 H 0.60403 0.40543 0.83613 0.0
C438 C 0.64187 0.43395 0.92743 0.0
C439 C 0.65989 0.45115 0.97583 0.0
C440 C 0.62011 0.44503 0.89154 0.0
C441 C 0.65594 0.47968 0.98824 0.0
C442 C 0.63458 0.49104 0.95146 0.0
C443 C 0.59485 0.48498 0.86598 0.0
C444 C 0.57619 0.46727 0.82065 0.0
C445 C 0.61657 0.47391 0.90275 0.0
C446 C 0.57974 0.4386 0.81079 0.0
C447 C 0.60169 0.42762 0.84511 0.0
H448 H 0.95163 0.64244 0.02158 0.0
H449 H 0.89144 0.65155 0.84728 0.0
H450 H 0.90453 0.60887 0.7757 0.0
H451 H 0.93738 0.5727 0.75482 0.0
H452 H -3e-05 0.56714 0.92535 0.0
H453 H 0.98155 0.60469 0.00667 0.0
C454 C 0.94067 0.63458 0.96939 0.0
C455 C 0.92043 0.64991 0.94004 0.0
C456 C 0.9492 0.61101 0.92707 0.0
C457 C 0.90699 0.63992 0.87109 0.0
C458 C 0.91464 0.61571 0.82996 0.0
C459 C 0.94673 0.57953 0.81024 0.0
C460 C 0.97024 0.56748 0.83354 0.0
C461 C 0.93643 0.60168 0.85597 0.0
C462 C 0.98217 0.57646 0.90544 0.0
C463 C 0.97158 0.59782 0.9522 0.0
H464 H 0.0548 0.16777 0.50875 0.0
H465 H 0.12554 0.12285 0.43849 0.0
H466 H 0.09876 0.07874 0.46528 0.0
H467 H 0.05475 0.0526 0.50391 0.0
H468 H 0.98746 0.09746 0.59899 0.0
H469 H 0.01353 0.14217 0.56728 0.0
C470 C 0.06486 0.14859 0.50099 0.0
C471 C 0.09217 0.14904 0.46909 0.0
C472 C 0.04977 0.1232 0.52001 0.0
C473 C 0.10429 0.12347 0.4595 0.0
C474 C 0.08905 0.09808 0.47546 0.0
C475 C 0.04591 0.07219 0.51804 0.0
C476 C 0.01919 0.07194 0.55256 0.0
C477 C 0.06162 0.09768 0.50423 0.0
C478 C 0.00795 0.09735 0.57147 0.0
C479 C 0.02288 0.12281 0.55376 0.0
H480 H 0.39471 0.00444 0.3947 0.0
H481 H 0.34539 0.01265 0.60912 0.0
H482 H 0.37994 0.99125 0.68132 0.0
H483 H 0.42649 0.97447 0.68525 0.0
H484 H 0.47712 0.97123 0.47222 0.0
H485 H 0.43958 0.98582 0.39714 0.0
C486 C 0.3915 0.00155 0.45725 0.0
C487 C 0.36769 0.01039 0.49662 0.0
C488 C 0.41159 0.98979 0.49835 0.0
C489 C 0.36352 0.00593 0.57737 0.0
C490 C 0.3833 0.99377 0.6187 0.0
C491 C 0.42884 0.97616 0.62205 0.0
C492 C 0.45423 0.97149 0.58368 0.0
C493 C 0.40765 0.98602 0.58001 0.0
C494 C 0.45752 0.97441 0.50229 0.0
C495 C 0.43621 0.98302 0.45964 0.0
H496 H 0.42797 0.38927 0.40267 0.0
H497 H 0.44864 0.33487 0.58118 0.0
H498 H 0.47894 0.37315 0.64145 0.0
H499 H 0.50019 0.42194 0.64186 0.0
H500 H 0.47878 0.4765 0.46508 0.0
H501 H 0.44851 0.43822 0.40464 0.0
C502 C 0.43887 0.38589 0.45527 0.0
C503 C 0.436 0.35929 0.48753 0.0
C504 C 0.45635 0.40793 0.48927 0.0
C505 C 0.45066 0.35509 0.5549 0.0
C506 C 0.46796 0.37696 0.58941 0.0
C507 C 0.48859 0.42545 0.59071 0.0
C508 C 0.49137 0.45197 0.55846 0.0
C509 C 0.47106 0.40342 0.55687 0.0
C510 C 0.47696 0.45618 0.4908 0.0
C511 C 0.45956 0.43436 0.45651 0.0
H512 H 0.15332 0.52525 0.52566 0.0
H513 H 0.12413 0.47932 0.31527 0.0
H514 H 0.07697 0.48909 0.35019 0.0
H515 H 0.04379 0.50853 0.44204 0.0
H516 H 0.07131 0.55515 0.65201 0.0
H517 H 0.11961 0.54796 0.61471 0.0
C518 C 0.13666 0.51763 0.48716 0.0
C519 C 0.14228 0.50113 0.41862 0.0
C520 C 0.1094 0.5236 0.50716 0.0
C521 C 0.12039 0.49136 0.36949 0.0
C522 C 0.09341 0.49724 0.38882 0.0
C523 C 0.06034 0.51758 0.4792 0.0
C524 C 0.05407 0.53165 0.55098 0.0
C525 C 0.08768 0.51309 0.45766 0.0
C526 C 0.07574 0.54338 0.59798 0.0
C527 C 0.10326 0.53936 0.57637 0.0
H528 H 0.95944 0.88615 0.9689 0.0
H529 H 0.00977 0.84874 0.78609 0.0
H530 H 0.024 0.89509 0.73593 0.0
H531 H 0.02378 0.94641 0.74846 0.0
H532 H 0.97365 0.98367 0.93186 0.0
H533 H 0.95792 0.93718 0.97852 0.0
C534 C 0.97314 0.88813 0.91726 0.0
C535 C 0.98348 0.86416 0.88092 0.0
C536 C 0.98153 0.91478 0.88975 0.0
C537 C 0.00166 0.86699 0.81505 0.0
C538 C 0.00981 0.89343 0.78653 0.0
C539 C 0.00911 0.94422 0.79791 0.0
C540 C 0.99963 0.96819 0.8364 0.0
C541 C 0.00015 0.91748 0.82407 0.0
C542 C 0.98124 0.96537 0.90165 0.0
C543 C 0.97215 0.93884 0.928 0.0
H544 H 0.64664 0.09304 0.9017 0.0
H545 H 0.62399 0.02106 0.04017 0.0
H546 H 0.58109 0.01069 0.9685 0.0
H547 H 0.55029 0.0222 0.86543 0.0
H548 H 0.57485 0.09233 0.72168 0.0
H549 H 0.61639 0.10388 0.79758 0.0
C550 C 0.63215 0.07524 0.91644 0.0
C551 C 0.63827 0.05788 0.976 0.0
C552 C 0.60788 0.0692 0.87431 0.0
C553 C 0.61965 0.03461 0.99408 0.0
C554 C 0.59514 0.02874 0.9534 0.0
C555 C 0.56489 0.03977 0.85048 0.0
C556 C 0.55972 0.05618 0.78784 0.0
C557 C 0.58911 0.04584 0.89312 0.0
C558 C 0.57845 0.07935 0.76977 0.0
C559 C 0.60224 0.08593 0.81295 0.0
H560 H 0.52934 0.61983 0.10641 0.0
H561 H 0.51599 0.66876 0.90833 0.0
H562 H 0.50873 0.62584 0.82431 0.0
H563 H 0.50391 0.57431 0.80975 0.0
H564 H 0.51973 0.52565 0.00636 0.0
H565 H 0.52778 0.56856 0.08929 0.0
C566 C 0.52476 0.62099 0.04486 0.0
C567 C 0.52285 0.64721 0.0135 0.0
C568 C 0.52094 0.59636 0.99708 0.0
C569 C 0.51748 0.64868 0.93346 0.0
C570 C 0.51327 0.62421 0.88564 0.0
C571 C 0.5098 0.57317 0.87012 0.0
C572 C 0.51152 0.54696 0.9018 0.0
C573 C 0.51474 0.59793 0.91702 0.0
C574 C 0.51831 0.54567 0.98081 0.0
C575 C 0.52291 0.57016 0.02819 0.0
H576 H 0.86753 0.41655 0.86073 0.0
H577 H 0.87113 0.47485 0.06216 0.0
H578 H 0.91774 0.4936 0.02085 0.0
H579 H 0.9575 0.49333 0.92783 0.0
H580 H 0.9537 0.43654 0.72338 0.0
H581 H 0.90711 0.41722 0.76506 0.0
C582 C 0.87864 0.43332 0.89539 0.0
C583 C 0.86606 0.44436 0.96422 0.0
C584 C 0.9053 0.4442 0.87078 0.0
C585 C 0.88041 0.46624 0.00855 0.0
C586 C 0.90705 0.47687 0.9852 0.0
C587 C 0.94646 0.47661 0.89279 0.0
C588 C 0.95879 0.46623 0.82298 0.0
C589 C 0.9197 0.46598 0.91657 0.0
C590 C 0.94434 0.44487 0.77723 0.0
C591 C 0.91782 0.43381 0.80113 0.0
H592 H 0.07443 0.2101 0.97435 0.0
H593 H 0.14559 0.16774 0.0254 0.0
H594 H 0.12915 0.12772 0.93958 0.0
H595 H 0.09131 0.10231 0.86584 0.0
H596 H 0.01993 0.14426 0.81467 0.0
H597 H 0.03958 0.18701 0.88494 0.0
C598 C 0.08657 0.19232 0.9651 0.0
C599 C 0.11101 0.19167 0.00637 0.0
C600 C 0.07669 0.16919 0.91707 0.0
C601 C 0.12681 0.16875 0.9937 0.0
C602 C 0.11725 0.14574 0.94545 0.0
C603 C 0.08026 0.12096 0.86942 0.0
C604 C 0.05406 0.12019 0.83693 0.0
C605 C 0.09171 0.14532 0.90943 0.0
C606 C 0.04006 0.14446 0.84022 0.0
C607 C 0.05126 0.16883 0.88033 0.0
H608 H 0.37661 0.01281 0.07717 0.0
H609 H 0.33166 0.05248 0.90729 0.0
H610 H 0.36917 0.04702 0.80897 0.0
H611 H 0.41562 0.0327 0.77369 0.0
H612 H 0.46019 0.99342 0.94591 0.0
H613 H 0.42171 0.99678 0.04063 0.0
C614 C 0.37471 0.01976 0.01816 0.0
C615 C 0.3513 0.03288 -0.00057 0.0
C616 C 0.3964 0.01687 0.9626 0.0
C617 C 0.34952 0.04239 0.92322 0.0
C618 C 0.37096 0.03929 0.86709 0.0
C619 C 0.41696 0.02492 0.83198 0.0
C620 C 0.44094 0.01307 0.85275 0.0
C621 C 0.3947 0.02694 0.88656 0.0
C622 C 0.4421 0.00275 0.92824 0.0
C623 C 0.42007 0.00464 0.9826 0.0
H624 H 0.37747 0.35526 0.03857 0.0
H625 H 0.43347 0.29591 0.94856 0.0
H626 H 0.45446 0.32996 0.85624 0.0
H627 H 0.4603 0.37845 0.81249 0.0
H628 H 0.40552 0.43812 0.90806 0.0
H629 H 0.38019 0.40192 0.98561 0.0
C630 C 0.39375 0.34949 0.99728 0.0
C631 C 0.404 0.32318 0.00056 0.0
C632 C 0.40608 0.36934 0.94585 0.0
C633 C 0.42544 0.31617 0.94759 0.0
C634 C 0.43743 0.33562 0.8949 0.0
C635 C 0.44251 0.38332 0.84932 0.0
C636 C 0.43489 0.41087 0.8554 0.0
C637 C 0.42849 0.36256 0.89526 0.0
C638 C 0.41183 0.41704 0.90303 0.0
C639 C 0.3974 0.39639 0.94749 0.0
H640 H 0.194 0.54385 0.97638 0.0
H641 H 0.18907 0.45335 0.97545 0.0
H642 H 0.1479 0.44993 0.89818 0.0
H643 H 0.11035 0.47214 0.84299 0.0
H644 H 0.11305 0.56227 0.84759 0.0
H645 H 0.15761 0.5663 0.91256 0.0
C646 C 0.18404 0.52338 0.95892 0.0
C647 C 0.19486 0.49896 0.98222 0.0
C648 C 0.15959 0.52144 0.91634 0.0
C649 C 0.18179 0.47261 0.95757 0.0
C650 C 0.15787 0.47055 0.91413 0.0
C651 C 0.12079 0.49267 0.85783 0.0
C652 C 0.10838 0.51686 0.84171 0.0
C653 C 0.14619 0.49477 0.89515 0.0
C654 C 0.12219 0.54335 0.86019 0.0
C655 C 0.14764 0.54564 0.89722 0.0
H656 H 0.95469 0.82265 0.43875 0.0
H657 H 0.91504 0.86348 0.25986 0.0
H658 H 0.9194 0.90753 0.33863 0.0
H659 H 0.94076 0.93594 0.44885 0.0
H660 H 0.98274 0.89549 0.62365 0.0
H661 H 0.97143 0.84994 0.55596 0.0
C662 C 0.94664 0.84111 0.41761 0.0
C663 C 0.93487 0.83986 0.34321 0.0
C664 C 0.95012 0.86659 0.46186 0.0
C665 C 0.92404 0.86379 0.31715 0.0
C666 C 0.92684 0.88911 0.36174 0.0
C667 C 0.94703 0.91706 0.47256 0.0
C668 C 0.96289 0.919 0.5402 0.0
C669 C 0.94081 0.89099 0.43266 0.0
C670 C 0.97077 0.89447 0.571 0.0
C671 C 0.96431 0.86844 0.53237 0.0
H672 H 0.64835 0.02083 0.32799 0.0
H673 H 0.69679 0.04105 0.53345 0.0
H674 H 0.65579 0.02927 0.61868 0.0
H675 H 0.60549 0.01678 0.63361 0.0
H676 H 0.55652 0.00132 0.42697 0.0
H677 H 0.5984 0.00758 0.34278 0.0
C678 C 0.64994 0.02204 0.39149 0.0
C679 C 0.67542 0.03129 0.42491 0.0
C680 C 0.62617 0.01639 0.43949 0.0
C681 C 0.67732 0.03364 0.50698 0.0
C682 C 0.65392 0.02705 0.55541 0.0
C683 C 0.6041 0.01439 0.57015 0.0
C684 C 0.57807 0.00848 0.53628 0.0
C685 C 0.62813 0.01891 0.52224 0.0
C686 C 0.57638 0.00594 0.45412 0.0
C687 C 0.60028 0.00948 0.40609 0.0
H688 H 0.61275 0.66281 0.43636 0.0
H689 H 0.55069 0.7071 0.56605 0.0
H690 H 0.54174 0.66873 0.65275 0.0
H691 H 0.54472 0.61939 0.67713 0.0
H692 H 0.60124 0.5721 0.53644 0.0
H693 H 0.61845 0.61435 0.46781 0.0
C694 C 0.59719 0.66423 0.4833 0.0
C695 C 0.58213 0.68802 0.49236 0.0
C696 C 0.5906 0.64109 0.5304 0.0
C697 C 0.56301 0.68956 0.5566 0.0
C698 C 0.55743 0.66726 0.6061 0.0
C699 C 0.56118 0.61845 0.63242 0.0
C700 C 0.57152 0.59269 0.61113 0.0
C701 C 0.57011 0.64247 0.59121 0.0
C702 C 0.59286 0.59173 0.55337 0.0
C703 C 0.60262 0.61586 0.51403 0.0
H704 H 0.83176 0.47691 0.34375 0.0
H705 H 0.80851 0.40522 0.48363 0.0
H706 H 0.84763 0.41885 0.56814 0.0
H707 H 0.89054 0.44939 0.59616 0.0
H708 H 0.91224 0.52166 0.45779 0.0
H709 H 0.87119 0.50985 0.37994 0.0
C710 C 0.83463 0.46461 0.39397 0.0
C711 C 0.81718 0.43993 0.40672 0.0
C712 C 0.85706 0.47258 0.44237 0.0
C713 C 0.82182 0.42406 0.47144 0.0
C714 C 0.84417 0.43187 0.51998 0.0
C715 C 0.88605 0.46264 0.54942 0.0
C716 C 0.90445 0.48617 0.53204 0.0
C717 C 0.86231 0.45575 0.50488 0.0
C718 C 0.8984 0.50336 0.47194 0.0
C719 C 0.87496 0.4966 0.42733 0.0
loop_
_geom_bond_atom_site_label_1
_geom_bond_atom_site_label_2
_geom_bond_distance
_geom_bond_site_symmetry_2
_ccdc_geom_bond_type
P0 O11 1.490 . S
P0 C14 1.812 . S
P0 C20 1.803 . S
P0 C26 1.819 1_554 S
H1 C15 0.941 . S
H2 C16 0.939 . S
H3 C18 0.940 . S
H4 C19 0.940 . S
H5 C21 0.939 . S
H6 C22 0.942 . S
H7 C24 0.940 . S
H8 C25 0.939 . S
H9 C27 0.941 1_554 S
H10 C31 0.939 . S
O11 P0 1.490 . S
H12 C28 0.939 . S
H13 C30 0.940 . S
C14 P0 1.812 . S
C14 C15 1.389 . S
C14 C19 1.391 . S
C15 H1 0.941 . S
C15 C14 1.389 . S
C15 C16 1.397 . S
C16 H2 0.939 . S
C16 C15 1.397 . S
C16 C17 1.378 . S
C17 C16 1.378 . S
C17 C18 1.378 . S
C18 H3 0.940 . S
C18 C17 1.378 . S
C18 C19 1.396 . S
C19 H4 0.940 . S
C19 C14 1.391 . S
C19 C18 1.396 . S
C20 P0 1.803 . S
C20 C21 1.378 1_554 S
C20 C25 1.400 . S
C21 H5 0.939 . S
C21 C20 1.378 1_556 S
C21 C22 1.361 . S
C22 H6 0.942 . S
C22 C21 1.361 . S
C22 C23 1.369 1_556 S
C23 C22 1.369 1_554 S
C23 C24 1.404 . S
C24 H7 0.940 . S
C24 C23 1.404 . S
C24 C25 1.389 . S
C25 H8 0.939 . S
C25 C20 1.400 . S
C25 C24 1.389 . S
C26 P0 1.819 1_556 S
C26 C27 1.391 . S
C26 C31 1.391 . S
C27 H9 0.941 1_556 S
C27 C26 1.391 . S
C27 C28 1.396 . S
C28 H12 0.939 . S
C28 C27 1.396 . S
C28 C29 1.397 . S
C29 C28 1.397 . S
C29 C30 1.385 . S
C30 H13 0.940 . S
C30 C29 1.385 . S
C30 C31 1.388 . S
C31 H10 0.939 . S
C31 C26 1.391 . S
C31 C30 1.388 . S
P32 O43 1.490 . S
P32 C46 1.812 . S
P32 C52 1.803 . S
P32 C58 1.819 1_554 S
H33 C47 0.941 . S
H34 C48 0.939 . S
H35 C50 0.940 . S
H36 C51 0.940 . S
H37 C53 0.939 . S
H38 C54 0.942 . S
H39 C56 0.940 . S
H40 C57 0.939 . S
H41 C59 0.941 . S
H42 C63 0.939 . S
O43 P32 1.490 . S
H44 C60 0.939 . S
H45 C62 0.940 . S
C46 P32 1.812 . S
C46 C47 1.389 . S
C46 C51 1.391 . S
C47 H33 0.941 . S
C47 C46 1.389 . S
C47 C48 1.397 . S
C48 H34 0.939 . S
C48 C47 1.397 . S
C48 C49 1.378 . S
C49 C48 1.378 . S
C49 C50 1.378 . S
C50 H35 0.940 . S
C50 C49 1.378 . S
C50 C51 1.396 . S
C51 H36 0.940 . S
C51 C46 1.391 . S
C51 C50 1.396 . S
C52 P32 1.803 . S
C52 C53 1.378 1_554 S
C52 C57 1.400 . S
C53 H37 0.939 . S
C53 C52 1.378 1_556 S
C53 C54 1.361 . S
C54 H38 0.942 . S
C54 C53 1.361 . S
C54 C55 1.369 . S
C55 C54 1.369 . S
C55 C56 1.404 1_556 S
C56 H39 0.940 . S
C56 C55 1.404 1_554 S
C56 C57 1.389 . S
C57 H40 0.939 . S
C57 C52 1.400 . S
C57 C56 1.389 . S
C58 P32 1.819 1_556 S
C58 C59 1.391 . S
C58 C63 1.391 . S
C59 H41 0.941 . S
C59 C58 1.391 . S
C59 C60 1.396 . S
C60 H44 0.939 . S
C60 C59 1.396 . S
C60 C61 1.397 . S
C61 C60 1.397 . S
C61 C62 1.385 . S
C62 H45 0.940 . S
C62 C61 1.385 . S
C62 C63 1.388 . S
C63 H42 0.939 . S
C63 C58 1.391 . S
C63 C62 1.388 . S
P64 O75 1.490 . S
P64 C78 1.812 . S
P64 C84 1.803 . S
P64 C90 1.819 . S
H65 C79 0.941 . S
H66 C80 0.939 . S
H67 C82 0.940 . S
H68 C83 0.955 . S
H69 C85 0.939 . S
H70 C86 0.942 1_556 S
H71 C88 0.940 . S
H72 C89 0.939 . S
H73 C91 0.941 . S
H74 C95 0.922 1_565 S
O75 P64 1.490 . S
H76 C92 0.939 . S
H77 C94 0.940 . S
C78 P64 1.812 . S
C78 C79 1.389 . S
C78 C83 1.366 1_545 S
C79 H65 0.941 . S
C79 C78 1.389 . S
C79 C80 1.397 . S
C80 H66 0.939 . S
C80 C79 1.397 . S
C80 C81 1.378 . S
C81 C80 1.378 . S
C81 C82 1.378 1_545 S
C82 H67 0.940 . S
C82 C81 1.378 1_565 S
C82 C83 1.407 . S
C83 H68 0.955 . S
C83 C78 1.366 1_565 S
C83 C82 1.407 . S
C84 P64 1.803 . S
C84 C85 1.378 . S
C84 C89 1.400 1_545 S
C85 H69 0.939 . S
C85 C84 1.378 . S
C85 C86 1.361 . S
C86 H70 0.942 1_554 S
C86 C85 1.361 . S
C86 C87 1.369 . S
C87 C86 1.369 . S
C87 C88 1.404 1_545 S
C88 H71 0.940 . S
C88 C87 1.404 1_565 S
C88 C89 1.389 . S
C89 H72 0.939 . S
C89 C84 1.400 1_565 S
C89 C88 1.389 . S
C90 P64 1.819 . S
C90 C91 1.391 . S
C90 C95 1.391 1_554 S
C91 H73 0.941 . S
C91 C90 1.391 . S
C91 C92 1.396 1_554 S
C92 H76 0.939 . S
C92 C91 1.396 1_556 S
C92 C93 1.397 . S
C93 C92 1.397 . S
C93 C94 1.385 1_545 S
C94 H77 0.940 . S
C94 C93 1.385 1_565 S
C94 C95 1.388 1_565 S
C95 H74 0.922 1_545 S
C95 C90 1.391 1_556 S
C95 C94 1.388 1_545 S
P96 O107 1.490 . S
P96 C110 1.812 . S
P96 C116 1.803 . S
P96 C122 1.819 . S
H97 C111 0.941 . S
H98 C112 0.939 . S
H99 C114 0.940 . S
H100 C115 0.940 . S
H101 C117 0.939 . S
H102 C118 0.942 1_556 S
H103 C120 0.940 . S
H104 C121 0.939 . S
H105 C123 0.941 . S
H106 C127 0.939 . S
O107 P96 1.490 . S
H108 C124 0.939 . S
H109 C126 0.940 . S
C110 P96 1.812 . S
C110 C111 1.389 . S
C110 C115 1.391 . S
C111 H97 0.941 . S
C111 C110 1.389 . S
C111 C112 1.397 . S
C112 H98 0.939 . S
C112 C111 1.397 . S
C112 C113 1.378 . S
C113 C112 1.378 . S
C113 C114 1.378 . S
C114 H99 0.940 . S
C114 C113 1.378 . S
C114 C115 1.396 . S
C115 H100 0.940 . S
C115 C110 1.391 . S
C115 C114 1.396 . S
C116 P96 1.803 . S
C116 C117 1.378 . S
C116 C121 1.400 . S
C117 H101 0.939 . S
C117 C116 1.378 . S
C117 C118 1.361 . S
C118 H102 0.942 1_554 S
C118 C117 1.361 . S
C118 C119 1.369 . S
C119 C118 1.369 . S
C119 C120 1.404 . S
C120 H103 0.940 . S
C120 C119 1.404 . S
C120 C121 1.389 . S
C121 H104 0.939 . S
C121 C116 1.400 . S
C121 C120 1.389 . S
C122 P96 1.819 . S
C122 C123 1.391 . S
C122 C127 1.391 1_554 S
C123 H105 0.941 . S
C123 C122 1.391 . S
C123 C124 1.396 1_554 S
C124 H108 0.939 . S
C124 C123 1.396 1_556 S
C124 C125 1.397 . S
C125 C124 1.397 . S
C125 C126 1.385 . S
C126 H109 0.940 . S
C126 C125 1.385 . S
C126 C127 1.388 . S
C127 H106 0.939 . S
C127 C122 1.391 1_556 S
C127 C126 1.388 . S
P128 O139 1.490 . S
P128 C142 1.812 . S
P128 C148 1.803 . S
P128 C154 1.819 . S
H129 C143 0.941 . S
H130 C144 0.939 . S
H131 C146 0.940 . S
H132 C147 0.940 . S
H133 C149 0.939 . S
H134 C150 0.942 . S
H135 C152 0.940 . S
H136 C153 0.939 . S
H137 C155 0.941 . S
H138 C159 0.939 . S
O139 P128 1.490 . S
H140 C156 0.939 . S
H141 C158 0.940 . S
C142 P128 1.812 . S
C142 C143 1.389 . S
C142 C147 1.391 . S
C143 H129 0.941 . S
C143 C142 1.389 . S
C143 C144 1.397 . S
C144 H130 0.939 . S
C144 C143 1.397 . S
C144 C145 1.378 . S
C145 C144 1.378 . S
C145 C146 1.378 . S
C146 H131 0.940 . S
C146 C145 1.378 . S
C146 C147 1.396 . S
C147 H132 0.940 . S
C147 C142 1.391 . S
C147 C146 1.396 . S
C148 P128 1.803 . S
C148 C149 1.378 . S
C148 C153 1.400 . S
C149 H133 0.939 . S
C149 C148 1.378 . S
C149 C150 1.361 . S
C150 H134 0.942 . S
C150 C149 1.361 . S
C150 C151 1.369 . S
C151 C150 1.369 . S
C151 C152 1.404 . S
C152 H135 0.940 . S
C152 C151 1.404 . S
C152 C153 1.389 . S
C153 H136 0.939 . S
C153 C148 1.400 . S
C153 C152 1.389 . S
C154 P128 1.819 . S
C154 C155 1.391 . S
C154 C159 1.391 . S
C155 H137 0.941 . S
C155 C154 1.391 . S
C155 C156 1.396 . S
C156 H140 0.939 . S
C156 C155 1.396 . S
C156 C157 1.397 . S
C157 C156 1.397 . S
C157 C158 1.385 . S
C158 H141 0.940 . S
C158 C157 1.385 . S
C158 C159 1.388 . S
C159 H138 0.939 . S
C159 C154 1.391 . S
C159 C158 1.388 . S
P160 O171 1.490 . S
P160 C174 1.812 . S
P160 C180 1.803 . S
P160 C186 1.819 . S
H161 C175 0.941 . S
H162 C176 0.939 . S
H163 C178 0.940 . S
H164 C179 0.940 . S
H165 C181 0.939 . S
H166 C182 0.942 . S
H167 C184 0.940 . S
H168 C185 0.939 . S
H169 C187 0.941 . S
H170 C191 0.939 . S
O171 P160 1.490 . S
H172 C188 0.939 . S
H173 C190 0.940 . S
C174 P160 1.812 . S
C174 C175 1.389 . S
C174 C179 1.391 . S
C175 H161 0.941 . S
C175 C174 1.389 . S
C175 C176 1.397 . S
C176 H162 0.939 . S
C176 C175 1.397 . S
C176 C177 1.378 . S
C177 C176 1.378 . S
C177 C178 1.378 . S
C178 H163 0.940 . S
C178 C177 1.378 . S
C178 C179 1.396 . S
C179 H164 0.940 . S
C179 C174 1.391 . S
C179 C178 1.396 . S
C180 P160 1.803 . S
C180 C181 1.378 . S
C180 C185 1.400 . S
C181 H165 0.939 . S
C181 C180 1.378 . S
C181 C182 1.361 . S
C182 H166 0.942 . S
C182 C181 1.361 . S
C182 C183 1.369 . S
C183 C182 1.369 . S
C183 C184 1.404 . S
C184 H167 0.940 . S
C184 C183 1.404 . S
C184 C185 1.389 . S
C185 H168 0.939 . S
C185 C180 1.400 . S
C185 C184 1.389 . S
C186 P160 1.819 . S
C186 C187 1.391 . S
C186 C191 1.391 . S
C187 H169 0.941 . S
C187 C186 1.391 . S
C187 C188 1.396 . S
C188 H172 0.939 . S
C188 C187 1.396 . S
C188 C189 1.397 . S
C189 C188 1.397 . S
C189 C190 1.385 . S
C190 H173 0.940 . S
C190 C189 1.385 . S
C190 C191 1.388 . S
C191 H170 0.939 . S
C191 C186 1.391 . S
C191 C190 1.388 . S
P192 O203 1.490 . S
P192 C206 1.812 . S
P192 C212 1.803 . S
P192 C218 1.819 . S
H193 C207 0.941 . S
H194 C208 0.939 . S
H195 C210 0.940 1_565 S
H196 C211 0.940 . S
H197 C213 0.939 . S
H198 C214 0.942 . S
H199 C216 0.940 1_565 S
H200 C217 0.939 . S
H201 C219 0.941 . S
H202 C223 0.939 . S
O203 P192 1.490 . S
H204 C220 0.939 . S
H205 C222 0.940 1_565 S
C206 P192 1.812 . S
C206 C207 1.389 . S
C206 C211 1.391 . S
C207 H193 0.941 . S
C207 C206 1.389 . S
C207 C208 1.397 . S
C208 H194 0.939 . S
C208 C207 1.397 . S
C208 C209 1.378 . S
C209 C208 1.378 . S
C209 C210 1.378 . S
C210 H195 0.940 1_545 S
C210 C209 1.378 . S
C210 C211 1.396 . S
C211 H196 0.940 . S
C211 C206 1.391 . S
C211 C210 1.396 . S
C212 P192 1.803 . S
C212 C213 1.378 . S
C212 C217 1.400 . S
C213 H197 0.939 . S
C213 C212 1.378 . S
C213 C214 1.361 . S
C214 H198 0.942 . S
C214 C213 1.361 . S
C214 C215 1.369 . S
C215 C214 1.369 . S
C215 C216 1.404 . S
C216 H199 0.940 1_545 S
C216 C215 1.404 . S
C216 C217 1.389 . S
C217 H200 0.939 . S
C217 C212 1.400 . S
C217 C216 1.389 . S
C218 P192 1.819 . S
C218 C219 1.391 . S
C218 C223 1.391 . S
C219 H201 0.941 . S
C219 C218 1.391 . S
C219 C220 1.396 . S
C220 H204 0.939 . S
C220 C219 1.396 . S
C220 C221 1.397 . S
C221 C220 1.397 . S
C221 C222 1.385 . S
C222 H205 0.940 1_545 S
C222 C221 1.385 . S
C222 C223 1.388 . S
C223 H202 0.939 . S
C223 C218 1.391 . S
C223 C222 1.388 . S
P224 O235 1.490 . S
P224 C238 1.812 . S
P224 C244 1.803 . S
P224 C250 1.819 . S
H225 C239 0.941 . S
H226 C240 0.939 . S
H227 C242 0.940 . S
H228 C243 0.940 . S
H229 C245 0.939 . S
H230 C246 0.942 . S
H231 C248 0.940 . S
H232 C249 0.939 . S
H233 C251 0.941 . S
H234 C255 0.939 . S
O235 P224 1.490 . S
H236 C252 0.939 . S
H237 C254 0.940 . S
C238 P224 1.812 . S
C238 C239 1.389 . S
C238 C243 1.391 . S
C239 H225 0.941 . S
C239 C238 1.389 . S
C239 C240 1.397 . S
C240 H226 0.939 . S
C240 C239 1.397 . S
C240 C241 1.378 . S
C241 C240 1.378 . S
C241 C242 1.378 . S
C242 H227 0.940 . S
C242 C241 1.378 . S
C242 C243 1.396 . S
C243 H228 0.940 . S
C243 C238 1.391 . S
C243 C242 1.396 . S
C244 P224 1.803 . S
C244 C245 1.378 . S
C244 C249 1.400 . S
C245 H229 0.939 . S
C245 C244 1.378 . S
C245 C246 1.361 . S
C246 H230 0.942 . S
C246 C245 1.361 . S
C246 C247 1.369 . S
C247 C246 1.369 . S
C247 C248 1.404 . S
C248 H231 0.940 . S
C248 C247 1.404 . S
C248 C249 1.389 . S
C249 H232 0.939 . S
C249 C244 1.400 . S
C249 C248 1.389 . S
C250 P224 1.819 . S
C250 C251 1.391 . S
C250 C255 1.391 . S
C251 H233 0.941 . S
C251 C250 1.391 . S
C251 C252 1.396 . S
C252 H236 0.939 . S
C252 C251 1.396 . S
C252 C253 1.397 . S
C253 C252 1.397 . S
C253 C254 1.385 . S
C254 H237 0.940 . S
C254 C253 1.385 . S
C254 C255 1.388 . S
C255 H234 0.939 . S
C255 C250 1.391 . S
C255 C254 1.388 . S
Tb256 O259 2.453 1_655 S
Tb256 O260 2.596 1_655 S
Tb256 O261 2.374 1_645 S
Tb256 O269 2.343 1_545 S
Tb256 O271 2.353 . S
Tb256 O273 2.427 1_545 S
Tb256 O274 2.513 1_545 S
C257 O261 1.250 1_545 S
C257 O263 1.262 . S
Tb258 O260 2.343 . S
Tb258 O263 2.355 . S
Tb258 O266 2.427 . S
Tb258 O267 2.513 . S
Tb258 O268 2.453 1_545 S
Tb258 O269 2.596 1_445 S
Tb258 O270 2.374 1_455 S
O259 Tb256 2.453 1_455 S
O259 C275 1.245 . S
O260 Tb256 2.596 1_455 S
O260 Tb258 2.343 . S
O260 C275 1.259 . S
O261 Tb256 2.374 1_465 S
O261 C257 1.250 1_565 S
C262 O266 1.275 . S
C262 O267 1.246 . S
O263 C257 1.262 . S
O263 Tb258 2.355 . S
C264 O268 1.245 1_655 S
C264 O269 1.259 . S
C265 O270 1.250 . S
C265 O271 1.263 . S
O266 Tb258 2.427 . S
O266 C262 1.275 . S
O267 Tb258 2.513 . S
O267 C262 1.246 . S
O268 Tb258 2.453 1_565 S
O268 C264 1.245 1_455 S
O269 Tb256 2.343 1_565 S
O269 Tb258 2.596 1_665 S
O269 C264 1.259 . S
O270 Tb258 2.374 1_655 S
O270 C265 1.250 . S
O271 Tb256 2.353 . S
O271 C265 1.263 . S
C272 O273 1.275 . S
C272 O274 1.246 . S
O273 Tb256 2.427 1_565 S
O273 C272 1.275 . S
O274 Tb256 2.513 1_565 S
O274 C272 1.246 . S
C275 O259 1.245 . S
C275 O260 1.259 . S
Tb276 O279 2.453 . S
Tb276 O280 2.596 . S
Tb276 O281 2.374 . S
Tb276 O289 2.343 . S
Tb276 O291 2.353 . S
Tb276 O293 2.427 . S
Tb276 O294 2.513 . S
C277 O281 1.251 . S
C277 O283 1.263 1_545 S
Tb278 O280 2.343 1_565 S
Tb278 O283 2.353 . S
Tb278 O286 2.427 . S
Tb278 O287 2.513 . S
Tb278 O288 2.453 . S
Tb278 O289 2.596 1_565 S
Tb278 O290 2.374 . S
O279 Tb276 2.453 . S
O279 C295 1.245 . S
O280 Tb276 2.596 . S
O280 Tb278 2.343 1_545 S
O280 C295 1.259 . S
O281 Tb276 2.374 . S
O281 C277 1.251 . S
C282 O286 1.275 . S
C282 O287 1.246 . S
O283 C277 1.263 1_565 S
O283 Tb278 2.353 . S
C284 O288 1.245 . S
C284 O289 1.259 1_565 S
C285 O290 1.250 1_545 S
C285 O291 1.263 . S
O286 Tb278 2.427 . S
O286 C282 1.275 . S
O287 Tb278 2.513 . S
O287 C282 1.246 . S
O288 Tb278 2.453 . S
O288 C284 1.245 . S
O289 Tb276 2.343 . S
O289 Tb278 2.596 1_545 S
O289 C284 1.259 1_545 S
O290 Tb278 2.374 . S
O290 C285 1.250 1_565 S
O291 Tb276 2.353 . S
O291 C285 1.263 . S
C292 O293 1.275 . S
C292 O294 1.246 . S
O293 Tb276 2.427 . S
O293 C292 1.275 . S
O294 Tb276 2.513 . S
O294 C292 1.246 . S
C295 O279 1.245 . S
C295 O280 1.259 . S
Tb296 O299 2.453 . S
Tb296 O300 2.596 . S
Tb296 O301 2.374 . S
Tb296 O309 2.343 . S
Tb296 O311 2.353 . S
Tb296 O313 2.427 . S
Tb296 O314 2.513 . S
C297 O301 1.251 . S
C297 O303 1.263 . S
Tb298 O300 2.343 . S
Tb298 O303 2.353 . S
Tb298 O306 2.427 . S
Tb298 O307 2.513 . S
Tb298 O308 2.453 . S
Tb298 O309 2.596 . S
Tb298 O310 2.374 . S
O299 Tb296 2.453 . S
O299 C315 1.245 . S
O300 Tb296 2.596 . S
O300 Tb298 2.343 . S
O300 C315 1.259 . S
O301 Tb296 2.374 . S
O301 C297 1.251 . S
C302 O306 1.275 . S
C302 O307 1.246 . S
O303 C297 1.263 . S
O303 Tb298 2.353 . S
C304 O308 1.245 . S
C304 O309 1.259 . S
C305 O310 1.250 . S
C305 O311 1.263 . S
O306 Tb298 2.427 . S
O306 C302 1.275 . S
O307 Tb298 2.513 . S
O307 C302 1.246 . S
O308 Tb298 2.453 . S
O308 C304 1.245 . S
O309 Tb296 2.343 . S
O309 Tb298 2.596 . S
O309 C304 1.259 . S
O310 Tb298 2.374 . S
O310 C305 1.250 . S
O311 Tb296 2.353 . S
O311 C305 1.263 . S
C312 O313 1.275 . S
C312 O314 1.246 . S
O313 Tb296 2.427 . S
O313 C312 1.275 . S
O314 Tb296 2.513 . S
O314 C312 1.246 . S
C315 O299 1.245 . S
C315 O300 1.259 . S
Tb316 O319 2.453 1_655 S
Tb316 O320 2.596 1_655 S
Tb316 O321 2.374 1_655 S
Tb316 O329 2.343 . S
Tb316 O331 2.353 . S
Tb316 O333 2.427 . S
Tb316 O334 2.513 . S
C317 O321 1.251 . S
C317 O323 1.263 . S
Tb318 O320 2.343 . S
Tb318 O323 2.353 . S
Tb318 O326 2.427 . S
Tb318 O327 2.513 . S
Tb318 O328 2.453 1_455 S
Tb318 O329 2.596 1_455 S
Tb318 O330 2.374 . S
O319 Tb316 2.453 1_455 S
O319 C335 1.245 . S
O320 Tb316 2.596 1_455 S
O320 Tb318 2.343 . S
O320 C335 1.259 . S
O321 Tb316 2.374 1_455 S
O321 C317 1.251 . S
C322 O326 1.275 . S
C322 O327 1.246 . S
O323 C317 1.263 . S
O323 Tb318 2.353 . S
C324 O328 1.245 . S
C324 O329 1.259 . S
C325 O330 1.250 1_655 S
C325 O331 1.263 . S
O326 Tb318 2.427 . S
O326 C322 1.275 . S
O327 Tb318 2.513 . S
O327 C322 1.246 . S
O328 Tb318 2.453 1_655 S
O328 C324 1.245 . S
O329 Tb316 2.343 . S
O329 Tb318 2.596 1_655 S
O329 C324 1.259 . S
O330 Tb318 2.374 . S
O330 C325 1.250 1_455 S
O331 Tb316 2.353 . S
O331 C325 1.263 . S
C332 O333 1.275 . S
C332 O334 1.246 . S
O333 Tb316 2.427 . S
O333 C332 1.275 . S
O334 Tb316 2.513 . S
O334 C332 1.246 . S
C335 O319 1.245 . S
C335 O320 1.259 . S
H336 C342 0.930 . S
H337 C345 0.930 . S
H338 C346 0.930 . S
H339 C347 0.930 . S
H340 C350 0.930 . S
H341 C351 0.930 . S
C342 H336 0.930 . S
C342 C343 1.355 1_565 S
C342 C344 1.415 . S
C343 C342 1.355 1_545 S
C343 C345 1.419 . S
C344 C342 1.415 . S
C344 C349 1.425 1_565 S
C344 C351 1.409 . S
C345 H337 0.930 . S
C345 C343 1.419 . S
C345 C346 1.362 . S
C346 H338 0.930 . S
C346 C345 1.362 . S
C346 C349 1.409 . S
C347 H339 0.930 . S
C347 C348 1.355 . S
C347 C349 1.415 . S
C348 C347 1.355 . S
C348 C350 1.419 1_545 S
C349 C344 1.425 1_545 S
C349 C346 1.409 . S
C349 C347 1.415 . S
C350 H340 0.930 . S
C350 C348 1.419 1_565 S
C350 C351 1.362 . S
C351 H341 0.930 . S
C351 C344 1.409 . S
C351 C350 1.362 . S
H352 C358 0.930 . S
H353 C361 0.930 . S
H354 C362 0.930 . S
H355 C363 0.930 . S
H356 C366 0.930 . S
H357 C367 0.930 . S
C358 H352 0.930 . S
C358 C359 1.355 . S
C358 C360 1.415 . S
C359 C358 1.355 . S
C359 C361 1.419 . S
C360 C358 1.415 . S
C360 C365 1.425 . S
C360 C367 1.409 . S
C361 H353 0.930 . S
C361 C359 1.419 . S
C361 C362 1.362 . S
C362 H354 0.930 . S
C362 C361 1.362 . S
C362 C365 1.409 . S
C363 H355 0.930 . S
C363 C364 1.355 . S
C363 C365 1.415 . S
C364 C363 1.355 . S
C364 C366 1.419 . S
C365 C360 1.425 . S
C365 C362 1.409 . S
C365 C363 1.415 . S
C366 H356 0.930 . S
C366 C364 1.419 . S
C366 C367 1.362 . S
C367 H357 0.930 . S
C367 C360 1.409 . S
C367 C366 1.362 . S
H368 C374 0.930 . S
H369 C377 0.930 . S
H370 C378 0.930 . S
H371 C379 0.930 . S
H372 C382 0.930 . S
H373 C383 0.930 . S
C374 H368 0.930 . S
C374 C375 1.355 . S
C374 C376 1.415 . S
C375 C374 1.355 . S
C375 C377 1.419 . S
C376 C374 1.415 . S
C376 C381 1.425 . S
C376 C383 1.409 . S
C377 H369 0.930 . S
C377 C375 1.419 . S
C377 C378 1.362 . S
C378 H370 0.930 . S
C378 C377 1.362 . S
C378 C381 1.409 . S
C379 H371 0.930 . S
C379 C380 1.355 . S
C379 C381 1.415 . S
C380 C379 1.355 . S
C380 C382 1.419 . S
C381 C376 1.425 . S
C381 C378 1.409 . S
C381 C379 1.415 . S
C382 H372 0.930 . S
C382 C380 1.419 . S
C382 C383 1.362 . S
C383 H373 0.930 . S
C383 C376 1.409 . S
C383 C382 1.362 . S
H384 C390 0.930 . S
H385 C393 0.930 . S
H386 C394 0.930 . S
H387 C395 0.930 . S
H388 C398 0.930 . S
H389 C399 0.930 . S
C390 H384 0.930 . S
C390 C391 1.355 . S
C390 C392 1.415 . S
C391 C390 1.355 . S
C391 C393 1.419 . S
C392 C390 1.415 . S
C392 C397 1.425 . S
C392 C399 1.409 . S
C393 H385 0.930 . S
C393 C391 1.419 . S
C393 C394 1.362 . S
C394 H386 0.930 . S
C394 C393 1.362 . S
C394 C397 1.409 . S
C395 H387 0.930 . S
C395 C396 1.355 . S
C395 C397 1.415 . S
C396 C395 1.355 . S
C396 C398 1.419 . S
C397 C392 1.425 . S
C397 C394 1.409 . S
C397 C395 1.415 . S
C398 H388 0.930 . S
C398 C396 1.419 . S
C398 C399 1.362 . S
C399 H389 0.930 . S
C399 C392 1.409 . S
C399 C398 1.362 . S
H400 C406 0.930 . S
H401 C409 0.930 . S
H402 C410 0.930 . S
H403 C411 0.930 . S
H404 C414 0.930 . S
H405 C415 0.930 . S
C406 H400 0.930 . S
C406 C407 1.355 1_566 S
C406 C408 1.415 . S
C407 C406 1.355 1_544 S
C407 C409 1.419 . S
C408 C406 1.415 . S
C408 C413 1.425 1_565 S
C408 C415 1.409 . S
C409 H401 0.930 . S
C409 C407 1.419 . S
C409 C410 1.362 1_554 S
C410 H402 0.930 . S
C410 C409 1.362 1_556 S
C410 C413 1.409 . S
C411 H403 0.930 . S
C411 C412 1.355 . S
C411 C413 1.415 . S
C412 C411 1.355 . S
C412 C414 1.419 1_545 S
C413 C408 1.425 1_545 S
C413 C410 1.409 . S
C413 C411 1.415 . S
C414 H404 0.930 . S
C414 C412 1.419 1_565 S
C414 C415 1.362 . S
C415 H405 0.930 . S
C415 C408 1.409 . S
C415 C414 1.362 . S
H416 C422 0.930 . S
H417 C425 0.930 . S
H418 C426 0.930 . S
H419 C427 0.930 . S
H420 C430 0.930 . S
H421 C431 0.930 . S
C422 H416 0.930 . S
C422 C423 1.355 . S
C422 C424 1.415 . S
C423 C422 1.355 . S
C423 C425 1.419 1_556 S
C424 C422 1.415 . S
C424 C429 1.425 . S
C424 C431 1.409 . S
C425 H417 0.930 . S
C425 C423 1.419 1_554 S
C425 C426 1.362 1_554 S
C426 H418 0.930 . S
C426 C425 1.362 1_556 S
C426 C429 1.409 . S
C427 H419 0.930 . S
C427 C428 1.355 . S
C427 C429 1.415 . S
C428 C427 1.355 . S
C428 C430 1.419 . S
C429 C424 1.425 . S
C429 C426 1.409 . S
C429 C427 1.415 . S
C430 H420 0.930 . S
C430 C428 1.419 . S
C430 C431 1.362 . S
C431 H421 0.930 . S
C431 C424 1.409 . S
C431 C430 1.362 . S
H432 C438 0.930 . S
H433 C441 0.930 . S
H434 C442 0.930 . S
H435 C443 0.930 . S
H436 C446 0.930 . S
H437 C447 0.930 . S
C438 H432 0.930 . S
C438 C439 1.355 . S
C438 C440 1.415 . S
C439 C438 1.355 . S
C439 C441 1.419 . S
C440 C438 1.415 . S
C440 C445 1.425 . S
C440 C447 1.409 . S
C441 H433 0.930 . S
C441 C439 1.419 . S
C441 C442 1.362 . S
C442 H434 0.930 . S
C442 C441 1.362 . S
C442 C445 1.409 . S
C443 H435 0.930 . S
C443 C444 1.355 . S
C443 C445 1.415 . S
C444 C443 1.355 . S
C444 C446 1.419 . S
C445 C440 1.425 . S
C445 C442 1.409 . S
C445 C443 1.415 . S
C446 H436 0.930 . S
C446 C444 1.419 . S
C446 C447 1.362 . S
C447 H437 0.930 . S
C447 C440 1.409 . S
C447 C446 1.362 . S
H448 C454 0.930 . S
H449 C457 0.930 . S
H450 C458 0.930 . S
H451 C459 0.930 . S
H452 C462 0.930 1_455 S
H453 C463 0.930 . S
C454 H448 0.930 . S
C454 C455 1.355 . S
C454 C456 1.415 . S
C455 C454 1.355 . S
C455 C457 1.419 . S
C456 C454 1.415 . S
C456 C461 1.425 . S
C456 C463 1.409 . S
C457 H449 0.930 . S
C457 C455 1.419 . S
C457 C458 1.362 . S
C458 H450 0.930 . S
C458 C457 1.362 . S
C458 C461 1.409 . S
C459 H451 0.930 . S
C459 C460 1.355 . S
C459 C461 1.415 . S
C460 C459 1.355 . S
C460 C462 1.419 . S
C461 C456 1.425 . S
C461 C458 1.409 . S
C461 C459 1.415 . S
C462 H452 0.930 1_655 S
C462 C460 1.419 . S
C462 C463 1.362 . S
C463 H453 0.930 . S
C463 C456 1.409 . S
C463 C462 1.362 . S
H464 C470 0.930 . S
H465 C473 0.930 . S
H466 C474 0.930 . S
H467 C475 0.930 . S
H468 C478 0.930 . S
H469 C479 0.930 . S
C470 H464 0.930 . S
C470 C471 1.355 . S
C470 C472 1.415 . S
C471 C470 1.355 . S
C471 C473 1.419 . S
C472 C470 1.415 . S
C472 C477 1.425 . S
C472 C479 1.409 . S
C473 H465 0.930 . S
C473 C471 1.419 . S
C473 C474 1.362 . S
C474 H466 0.930 . S
C474 C473 1.362 . S
C474 C477 1.409 . S
C475 H467 0.930 . S
C475 C476 1.355 . S
C475 C477 1.415 . S
C476 C475 1.355 . S
C476 C478 1.419 . S
C477 C472 1.425 . S
C477 C474 1.409 . S
C477 C475 1.415 . S
C478 H468 0.930 . S
C478 C476 1.419 . S
C478 C479 1.362 . S
C479 H469 0.930 . S
C479 C472 1.409 . S
C479 C478 1.362 . S
H480 C486 0.930 . S
H481 C489 0.930 . S
H482 C490 0.930 . S
H483 C491 0.930 . S
H484 C494 0.930 . S
H485 C495 0.930 . S
C486 H480 0.930 . S
C486 C487 1.355 . S
C486 C488 1.415 . S
C487 C486 1.355 . S
C487 C489 1.419 1_545 S
C488 C486 1.415 . S
C488 C493 1.434 . S
C488 C495 1.409 . S
C489 H481 0.930 . S
C489 C487 1.419 1_565 S
C489 C490 1.362 . S
C490 H482 0.930 . S
C490 C489 1.362 . S
C490 C493 1.404 1_565 S
C491 H483 0.930 . S
C491 C492 1.355 1_565 S
C491 C493 1.411 1_565 S
C492 C491 1.355 1_545 S
C492 C494 1.419 . S
C493 C488 1.434 . S
C493 C490 1.404 1_545 S
C493 C491 1.411 1_545 S
C494 H484 0.930 . S
C494 C492 1.419 . S
C494 C495 1.362 . S
C495 H485 0.930 . S
C495 C488 1.409 . S
C495 C494 1.362 . S
H496 C502 0.930 . S
H497 C505 0.930 . S
H498 C506 0.930 . S
H499 C507 0.930 . S
H500 C510 0.930 . S
H501 C511 0.930 . S
C502 H496 0.930 . S
C502 C503 1.355 . S
C502 C504 1.415 . S
C503 C502 1.355 . S
C503 C505 1.419 . S
C504 C502 1.415 . S
C504 C509 1.425 . S
C504 C511 1.409 . S
C505 H497 0.930 . S
C505 C503 1.419 . S
C505 C506 1.362 . S
C506 H498 0.930 . S
C506 C505 1.362 . S
C506 C509 1.409 . S
C507 H499 0.930 . S
C507 C508 1.355 . S
C507 C509 1.415 . S
C508 C507 1.355 . S
C508 C510 1.419 . S
C509 C504 1.425 . S
C509 C506 1.409 . S
C509 C507 1.415 . S
C510 H500 0.930 . S
C510 C508 1.419 . S
C510 C511 1.362 . S
C511 H501 0.930 . S
C511 C504 1.409 . S
C511 C510 1.362 . S
H512 C518 0.930 . S
H513 C521 0.930 . S
H514 C522 0.930 . S
H515 C523 0.930 . S
H516 C526 0.930 . S
H517 C527 0.930 . S
C518 H512 0.930 . S
C518 C519 1.355 . S
C518 C520 1.415 . S
C519 C518 1.355 . S
C519 C521 1.419 . S
C520 C518 1.415 . S
C520 C525 1.425 . S
C520 C527 1.409 . S
C521 H513 0.930 . S
C521 C519 1.419 . S
C521 C522 1.362 . S
C522 H514 0.930 . S
C522 C521 1.362 . S
C522 C525 1.409 . S
C523 H515 0.930 . S
C523 C524 1.355 . S
C523 C525 1.415 . S
C524 C523 1.355 . S
C524 C526 1.419 . S
C525 C520 1.425 . S
C525 C522 1.409 . S
C525 C523 1.415 . S
C526 H516 0.930 . S
C526 C524 1.419 . S
C526 C527 1.362 . S
C527 H517 0.930 . S
C527 C520 1.409 . S
C527 C526 1.362 . S
H528 C534 0.930 . S
H529 C537 0.930 . S
H530 C538 0.930 . S
H531 C539 0.930 . S
H532 C542 0.930 . S
H533 C543 0.930 . S
C534 H528 0.930 . S
C534 C535 1.355 . S
C534 C536 1.415 . S
C535 C534 1.355 . S
C535 C537 1.419 . S
C536 C534 1.415 . S
C536 C541 1.425 . S
C536 C543 1.409 . S
C537 H529 0.930 . S
C537 C535 1.419 . S
C537 C538 1.362 . S
C538 H530 0.930 . S
C538 C537 1.362 . S
C538 C541 1.409 . S
C539 H531 0.930 . S
C539 C540 1.355 . S
C539 C541 1.415 . S
C540 C539 1.355 . S
C540 C542 1.419 . S
C541 C536 1.425 . S
C541 C538 1.409 . S
C541 C539 1.415 . S
C542 H532 0.930 . S
C542 C540 1.419 . S
C542 C543 1.362 . S
C543 H533 0.930 . S
C543 C536 1.409 . S
C543 C542 1.362 . S
H544 C550 0.930 . S
H545 C553 0.930 1_554 S
H546 C554 0.930 . S
H547 C555 0.928 1_565 S
H548 C558 0.930 . S
H549 C559 0.930 . S
C550 H544 0.930 . S
C550 C551 1.354 1_545 S
C550 C552 1.415 . S
C551 C550 1.354 1_565 S
C551 C553 1.420 . S
C552 C550 1.415 . S
C552 C557 1.426 . S
C552 C559 1.409 . S
C553 H545 0.930 1_556 S
C553 C551 1.420 . S
C553 C554 1.362 . S
C554 H546 0.930 . S
C554 C553 1.362 . S
C554 C557 1.408 1_565 S
C555 H547 0.928 1_545 S
C555 C556 1.356 . S
C555 C557 1.414 . S
C556 C555 1.356 . S
C556 C558 1.419 . S
C557 C552 1.426 . S
C557 C554 1.408 1_545 S
C557 C555 1.414 . S
C558 H548 0.930 . S
C558 C556 1.419 . S
C558 C559 1.362 . S
C559 H549 0.930 . S
C559 C552 1.409 . S
C559 C558 1.362 . S
H560 C566 0.930 . S
H561 C569 0.930 . S
H562 C570 0.930 . S
H563 C571 0.930 . S
H564 C574 0.930 . S
H565 C575 0.930 . S
C566 H560 0.930 . S
C566 C567 1.355 . S
C566 C568 1.415 . S
C567 C566 1.355 . S
C567 C569 1.419 . S
C568 C566 1.415 . S
C568 C573 1.425 . S
C568 C575 1.409 . S
C569 H561 0.930 . S
C569 C567 1.419 . S
C569 C570 1.362 . S
C570 H562 0.930 . S
C570 C569 1.362 . S
C570 C573 1.409 . S
C571 H563 0.930 . S
C571 C572 1.355 . S
C571 C573 1.415 . S
C572 C571 1.355 . S
C572 C574 1.419 . S
C573 C568 1.425 . S
C573 C570 1.409 . S
C573 C571 1.415 . S
C574 H564 0.930 . S
C574 C572 1.419 . S
C574 C575 1.362 . S
C575 H565 0.930 . S
C575 C568 1.409 . S
C575 C574 1.362 . S
H576 C582 0.930 . S
H577 C585 0.930 . S
H578 C586 0.930 . S
H579 C587 0.930 . S
H580 C590 0.930 . S
H581 C591 0.930 . S
C582 H576 0.930 . S
C582 C583 1.355 . S
C582 C584 1.415 . S
C583 C582 1.355 . S
C583 C585 1.419 . S
C584 C582 1.415 . S
C584 C589 1.425 . S
C584 C591 1.409 . S
C585 H577 0.930 . S
C585 C583 1.419 . S
C585 C586 1.362 . S
C586 H578 0.930 . S
C586 C585 1.362 . S
C586 C589 1.409 . S
C587 H579 0.930 . S
C587 C588 1.355 . S
C587 C589 1.415 . S
C588 C587 1.355 . S
C588 C590 1.419 . S
C589 C584 1.425 . S
C589 C586 1.409 . S
C589 C587 1.415 . S
C590 H580 0.930 . S
C590 C588 1.419 . S
C590 C591 1.362 . S
C591 H581 0.930 . S
C591 C584 1.409 . S
C591 C590 1.362 . S
H592 C598 0.930 . S
H593 C601 0.930 . S
H594 C602 0.930 . S
H595 C603 0.930 1_554 S
H596 C606 0.930 . S
H597 C607 0.930 . S
C598 H592 0.930 . S
C598 C599 1.355 1_556 S
C598 C600 1.415 . S
C599 C598 1.355 1_554 S
C599 C601 1.419 . S
C600 C598 1.415 . S
C600 C605 1.425 1_556 S
C600 C607 1.409 . S
C601 H593 0.930 . S
C601 C599 1.419 . S
C601 C602 1.362 . S
C602 H594 0.930 . S
C602 C601 1.362 . S
C602 C605 1.409 . S
C603 H595 0.930 1_556 S
C603 C604 1.355 . S
C603 C605 1.415 1_556 S
C604 C603 1.355 . S
C604 C606 1.419 . S
C605 C600 1.425 1_554 S
C605 C602 1.409 . S
C605 C603 1.415 1_554 S
C606 H596 0.930 . S
C606 C604 1.419 . S
C606 C607 1.362 . S
C607 H597 0.930 . S
C607 C600 1.409 . S
C607 C606 1.362 . S
H608 C614 0.930 . S
H609 C617 0.930 . S
H610 C618 0.930 . S
H611 C619 0.930 . S
H612 C622 0.930 . S
H613 C623 0.930 . S
C614 H608 0.930 . S
C614 C615 1.355 1_554 S
C614 C616 1.415 1_554 S
C615 C614 1.355 1_556 S
C615 C617 1.419 . S
C616 C614 1.415 1_556 S
C616 C621 1.425 . S
C616 C623 1.409 1_556 S
C617 H609 0.930 . S
C617 C615 1.419 . S
C617 C618 1.362 . S
C618 H610 0.930 . S
C618 C617 1.362 . S
C618 C621 1.409 . S
C619 H611 0.930 . S
C619 C620 1.355 . S
C619 C621 1.415 . S
C620 C619 1.355 . S
C620 C622 1.419 . S
C621 C616 1.425 . S
C621 C618 1.409 . S
C621 C619 1.415 . S
C622 H612 0.930 . S
C622 C620 1.419 . S
C622 C623 1.362 1_556 S
C623 H613 0.930 . S
C623 C616 1.409 1_554 S
C623 C622 1.362 1_554 S
H624 C630 0.930 . S
H625 C633 0.930 . S
H626 C634 0.930 . S
H627 C635 0.930 . S
H628 C638 0.930 . S
H629 C639 0.930 . S
C630 H624 0.930 . S
C630 C631 1.355 1_556 S
C630 C632 1.415 . S
C631 C630 1.355 1_554 S
C631 C633 1.419 . S
C632 C630 1.415 . S
C632 C637 1.425 . S
C632 C639 1.409 . S
C633 H625 0.930 . S
C633 C631 1.419 . S
C633 C634 1.362 . S
C634 H626 0.930 . S
C634 C633 1.362 . S
C634 C637 1.409 1_554 S
C635 H627 0.930 . S
C635 C636 1.355 . S
C635 C637 1.415 . S
C636 C635 1.355 . S
C636 C638 1.419 . S
C637 C632 1.425 . S
C637 C634 1.409 1_556 S
C637 C635 1.415 . S
C638 H628 0.930 . S
C638 C636 1.419 . S
C638 C639 1.362 . S
C639 H629 0.930 . S
C639 C632 1.409 . S
C639 C638 1.362 . S
H640 C646 0.930 . S
H641 C649 0.930 . S
H642 C650 0.930 . S
H643 C651 0.930 . S
H644 C654 0.930 . S
H645 C655 0.930 . S
C646 H640 0.930 . S
C646 C647 1.355 1_556 S
C646 C648 1.415 . S
C647 C646 1.355 1_554 S
C647 C649 1.419 . S
C648 C646 1.415 . S
C648 C653 1.425 . S
C648 C655 1.409 . S
C649 H641 0.930 . S
C649 C647 1.419 . S
C649 C650 1.362 . S
C650 H642 0.930 . S
C650 C649 1.362 . S
C650 C653 1.409 1_554 S
C651 H643 0.930 . S
C651 C652 1.355 . S
C651 C653 1.415 . S
C652 C651 1.355 . S
C652 C654 1.419 . S
C653 C648 1.425 . S
C653 C650 1.409 1_556 S
C653 C651 1.415 . S
C654 H644 0.930 . S
C654 C652 1.419 . S
C654 C655 1.362 . S
C655 H645 0.930 . S
C655 C648 1.409 . S
C655 C654 1.362 . S
H656 C662 0.930 . S
H657 C665 0.930 . S
H658 C666 0.930 . S
H659 C667 0.930 . S
H660 C670 0.930 . S
H661 C671 0.930 . S
C662 H656 0.930 . S
C662 C663 1.355 . S
C662 C664 1.415 . S
C663 C662 1.355 . S
C663 C665 1.419 . S
C664 C662 1.415 . S
C664 C669 1.425 . S
C664 C671 1.409 . S
C665 H657 0.930 . S
C665 C663 1.419 . S
C665 C666 1.362 . S
C666 H658 0.930 . S
C666 C665 1.362 . S
C666 C669 1.409 . S
C667 H659 0.930 . S
C667 C668 1.355 . S
C667 C669 1.415 . S
C668 C667 1.355 . S
C668 C670 1.419 . S
C669 C664 1.425 . S
C669 C666 1.409 . S
C669 C667 1.415 . S
C670 H660 0.930 . S
C670 C668 1.419 . S
C670 C671 1.362 . S
C671 H661 0.930 . S
C671 C664 1.409 . S
C671 C670 1.362 . S
H672 C678 0.931 . S
H673 C681 0.930 . S
H674 C682 0.930 . S
H675 C683 0.930 . S
H676 C686 0.930 . S
H677 C687 0.930 . S
C678 H672 0.931 . S
C678 C679 1.356 1_565 S
C678 C680 1.413 . S
C679 C678 1.356 1_545 S
C679 C681 1.419 . S
C680 C678 1.413 . S
C680 C685 1.426 1_565 S
C680 C687 1.409 . S
C681 H673 0.930 . S
C681 C679 1.419 . S
C681 C682 1.362 . S
C682 H674 0.930 . S
C682 C681 1.362 . S
C682 C685 1.409 . S
C683 H675 0.930 . S
C683 C684 1.355 . S
C683 C685 1.415 . S
C684 C683 1.355 . S
C684 C686 1.419 1_545 S
C685 C680 1.426 1_545 S
C685 C682 1.409 . S
C685 C683 1.415 . S
C686 H676 0.930 . S
C686 C684 1.419 1_565 S
C686 C687 1.362 . S
C687 H677 0.930 . S
C687 C680 1.409 . S
C687 C686 1.362 . S
H688 C694 0.930 . S
H689 C697 0.930 . S
H690 C698 0.930 . S
H691 C699 0.930 . S
H692 C702 0.930 . S
H693 C703 0.930 . S
C694 H688 0.930 . S
C694 C695 1.355 . S
C694 C696 1.415 . S
C695 C694 1.355 . S
C695 C697 1.419 . S
C696 C694 1.415 . S
C696 C701 1.425 . S
C696 C703 1.409 . S
C697 H689 0.930 . S
C697 C695 1.419 . S
C697 C698 1.362 . S
C698 H690 0.930 . S
C698 C697 1.362 . S
C698 C701 1.409 . S
C699 H691 0.930 . S
C699 C700 1.355 . S
C699 C701 1.415 . S
C700 C699 1.355 . S
C700 C702 1.419 . S
C701 C696 1.425 . S
C701 C698 1.409 . S
C701 C699 1.415 . S
C702 H692 0.930 . S
C702 C700 1.419 . S
C702 C703 1.362 . S
C703 H693 0.930 . S
C703 C696 1.409 . S
C703 C702 1.362 . S
H704 C710 0.930 . S
H705 C713 0.930 . S
H706 C714 0.930 . S
H707 C715 0.930 . S
H708 C718 0.930 . S
H709 C719 0.930 . S
C710 H704 0.930 . S
C710 C711 1.355 . S
C710 C712 1.415 . S
C711 C710 1.355 . S
C711 C713 1.419 . S
C712 C710 1.415 . S
C712 C717 1.425 . S
C712 C719 1.409 . S
C713 H705 0.930 . S
C713 C711 1.419 . S
C713 C714 1.362 . S
C714 H706 0.930 . S
C714 C713 1.362 . S
C714 C717 1.409 . S
C715 H707 0.930 . S
C715 C716 1.355 . S
C715 C717 1.415 . S
C716 C715 1.355 . S
C716 C718 1.419 . S
C717 C712 1.425 . S
C717 C714 1.409 . S
C717 C715 1.415 . S
C718 H708 0.930 . S
C718 C716 1.419 . S
C718 C719 1.362 . S
C719 H709 0.930 . S
C719 C712 1.409 . S
C719 C718 1.362 . S
C343 C215 1.507 . S
C348 C257 1.534 . S
C364 C292 2.038 . S
C359 C247 1.972 . S
C380 C297 1.395 . S
C375 C151 1.362 . S
C396 C317 1.813 . S
C391 C183 1.783 . S
C412 C265 1.544 . S
C407 C87 1.472 . S
C423 C119 1.730 1_556 S
C428 C282 2.039 . S
C439 C23 1.364 1_556 S
C444 C305 1.335 . S
C455 C55 1.646 . S
C460 C325 1.822 . S
C476 C275 1.504 . S
C471 C189 1.499 . S
C492 C284 0.882 1_545 S
C487 C221 0.888 . S
C508 C315 1.599 . S
C503 C253 1.618 . S
C519 C157 0.931 . S
C524 C335 1.017 . S
C535 C61 1.175 . S
C540 C264 1.501 . S
C556 C295 0.838 . S
C551 C93 0.789 1_565 S
C572 C304 1.604 . S
C567 C125 1.282 . S
C583 C29 0.999 . S
C588 C324 0.934 . S
C599 C177 1.895 . S
C604 C262 1.961 . S
C615 C209 1.660 1_556 S
C620 C285 1.758 . S
C636 C302 2.094 . S
C631 C241 1.995 . S
C652 C322 1.884 . S
C647 C145 1.685 . S
C663 C49 1.732 . S
C668 C272 1.969 . S
C684 C277 1.760 . S
C679 C81 1.649 . S
C700 C312 2.096 . S
C695 C113 1.781 . S
C711 C17 1.824 . S
C716 C332 1.864 . S
