# Generated by pormake.
# Topology pto, (3,4)-cn, num edge types: 1
# Building blocks:
#     Node 0, Type 0, BuildingBlock: OLANEW_clean_sbu_2, # of connection points: 3
#     Node 1, Type 0, BuildingBlock: OLANEW_clean_sbu_2, # of connection points: 3
#     Node 2, Type 0, BuildingBlock: OLANEW_clean_sbu_2, # of connection points: 3
#     Node 3, Type 0, BuildingBlock: OLANEW_clean_sbu_2, # of connection points: 3
#     Node 4, Type 0, BuildingBlock: OLANEW_clean_sbu_2, # of connection points: 3
#     Node 5, Type 0, BuildingBlock: OLANEW_clean_sbu_2, # of connection points: 3
#     Node 6, Type 0, BuildingBlock: OLANEW_clean_sbu_2, # of connection points: 3
#     Node 7, Type 0, BuildingBlock: OLANEW_clean_sbu_2, # of connection points: 3
#     Node 8, Type 1, BuildingBlock: MIFKUJ_clean_linker_1, # of connection points: 4
#     Node 9, Type 1, BuildingBlock: MIFKUJ_clean_linker_1, # of connection points: 4
#     Node 10, Type 1, BuildingBlock: MIFKUJ_clean_linker_1, # of connection points: 4
#     Node 11, Type 1, BuildingBlock: MIFKUJ_clean_linker_1, # of connection points: 4
#     Node 12, Type 1, BuildingBlock: MIFKUJ_clean_linker_1, # of connection points: 4
#     Node 13, Type 1, BuildingBlock: MIFKUJ_clean_linker_1, # of connection points: 4
#     Edge 14, Type (0, 1), BuildingBlock: ZUJKAS_clean_linker_0, # of connection points: 2
#     Edge 15, Type (0, 1), BuildingBlock: ZUJKAS_clean_linker_0, # of connection points: 2
#     Edge 16, Type (0, 1), BuildingBlock: ZUJKAS_clean_linker_0, # of connection points: 2
#     Edge 17, Type (0, 1), BuildingBlock: ZUJKAS_clean_linker_0, # of connection points: 2
#     Edge 18, Type (0, 1), BuildingBlock: ZUJKAS_clean_linker_0, # of connection points: 2
#     Edge 19, Type (0, 1), BuildingBlock: ZUJKAS_clean_linker_0, # of connection points: 2
#     Edge 20, Type (0, 1), BuildingBlock: ZUJKAS_clean_linker_0, # of connection points: 2
#     Edge 21, Type (0, 1), BuildingBlock: ZUJKAS_clean_linker_0, # of connection points: 2
#     Edge 22, Type (0, 1), BuildingBlock: ZUJKAS_clean_linker_0, # of connection points: 2
#     Edge 23, Type (0, 1), BuildingBlock: ZUJKAS_clean_linker_0, # of connection points: 2
#     Edge 24, Type (0, 1), BuildingBlock: ZUJKAS_clean_linker_0, # of connection points: 2
#     Edge 25, Type (0, 1), BuildingBlock: ZUJKAS_clean_linker_0, # of connection points: 2
#     Edge 26, Type (0, 1), BuildingBlock: ZUJKAS_clean_linker_0, # of connection points: 2
#     Edge 27, Type (0, 1), BuildingBlock: ZUJKAS_clean_linker_0, # of connection points: 2
#     Edge 28, Type (0, 1), BuildingBlock: ZUJKAS_clean_linker_0, # of connection points: 2
#     Edge 29, Type (0, 1), BuildingBlock: ZUJKAS_clean_linker_0, # of connection points: 2
#     Edge 30, Type (0, 1), BuildingBlock: ZUJKAS_clean_linker_0, # of connection points: 2
#     Edge 31, Type (0, 1), BuildingBlock: ZUJKAS_clean_linker_0, # of connection points: 2
#     Edge 32, Type (0, 1), BuildingBlock: ZUJKAS_clean_linker_0, # of connection points: 2
#     Edge 33, Type (0, 1), BuildingBlock: ZUJKAS_clean_linker_0, # of connection points: 2
#     Edge 34, Type (0, 1), BuildingBlock: ZUJKAS_clean_linker_0, # of connection points: 2
#     Edge 35, Type (0, 1), BuildingBlock: ZUJKAS_clean_linker_0, # of connection points: 2
#     Edge 36, Type (0, 1), BuildingBlock: ZUJKAS_clean_linker_0, # of connection points: 2
#     Edge 37, Type (0, 1), BuildingBlock: ZUJKAS_clean_linker_0, # of connection points: 2
# Relax obj value: 0.007
# Max RMSD: 0.126
# Mean RMSD: 0.055
data_MOF--net-pto--node1-OLANEW_clean_sbu_2--node2-MIFKUJ_clean_linker_1--edge1-ZUJKAS_clean_linker_0
_symmetry_space_group_name_H-M    P1
_symmetry_Int_Tables_number       1
_symmetry_cell_setting            triclinic
loop_
_symmetry_equiv_pos_as_xyz
'x, y, z'
_cell_length_a     49.772102
_cell_length_b     77.053678
_cell_length_c     64.004189
_cell_angle_alpha  92.466627
_cell_angle_beta   89.504484
_cell_angle_gamma 104.94832
loop_
_atom_site_label
_atom_site_type_symbol
_atom_site_fract_x
_atom_site_fract_y
_atom_site_fract_z
_atom_type_partial_charge
O0 O 0.33094 0.33216 0.29616 0.0
Cd1 Cd 0.30773 0.33474 0.32951 0.0
O2 O 0.35489 0.36048 0.29686 0.0
Cd3 Cd 0.33028 0.36804 0.3224 0.0
O4 O 0.29828 0.38097 0.33352 0.0
C5 C 0.28447 0.38552 0.31905 0.0
O6 O 0.29022 0.38187 0.29953 0.0
C7 C 0.34935 0.34478 0.28824 0.0
C8 C 0.31086 0.3063 0.35414 0.0
O9 O 0.2901 0.30506 0.34194 0.0
O10 O 0.32994 0.3211 0.35494 0.0
O11 O 0.29306 0.85047 0.74536 0.0
Cd12 Cd 0.25943 0.84584 0.71671 0.0
O13 O 0.32092 0.8368 0.72841 0.0
Cd14 Cd 0.29092 0.82695 0.70321 0.0
O15 O 0.2567 0.80636 0.68891 0.0
C16 C 0.24053 0.79666 0.70178 0.0
O17 O 0.24496 0.80027 0.7219 0.0
C18 C 0.3156 0.84558 0.74452 0.0
C19 C 0.27083 0.87525 0.69109 0.0
O20 O 0.25511 0.8747 0.70715 0.0
O21 O 0.28107 0.86182 0.68707 0.0
O22 O 0.80433 0.78512 0.31109 0.0
Cd23 Cd 0.79763 0.76231 0.28247 0.0
O24 O 0.75959 0.77967 0.31782 0.0
Cd25 Cd 0.74706 0.76197 0.29017 0.0
O26 O 0.72737 0.75805 0.25941 0.0
C27 C 0.73571 0.7708 0.24704 0.0
O28 O 0.75631 0.78451 0.25301 0.0
C29 C 0.78454 0.78815 0.32214 0.0
C30 C 0.82499 0.73581 0.29002 0.0
O31 O 0.83725 0.75006 0.28064 0.0
O32 O 0.79976 0.73409 0.29584 0.0
O33 O 0.75607 0.28746 0.66109 0.0
Cd34 Cd 0.71995 0.26016 0.66805 0.0
O35 O 0.76743 0.29262 0.69434 0.0
Cd36 Cd 0.73267 0.27195 0.70613 0.0
O37 O 0.69867 0.26561 0.72861 0.0
C38 C 0.68439 0.27707 0.73072 0.0
O39 O 0.68989 0.29088 0.71858 0.0
C40 C 0.77158 0.29679 0.67536 0.0
C41 C 0.73055 0.23039 0.6465 0.0
O42 O 0.71562 0.23962 0.63833 0.0
O43 O 0.74032 0.23518 0.66492 0.0
O44 O 0.75096 0.77714 0.63937 0.0
Cd45 Cd 0.7323 0.74962 0.65811 0.0
O46 O 0.73726 0.7941 0.66358 0.0
Cd47 Cd 0.7193 0.77333 0.68548 0.0
O48 O 0.69857 0.76808 0.71561 0.0
C49 C 0.70767 0.78011 0.72987 0.0
O50 O 0.72899 0.79359 0.72566 0.0
C51 C 0.74893 0.79251 0.64612 0.0
C52 C 0.76715 0.72645 0.65572 0.0
O53 O 0.74979 0.72649 0.64106 0.0
O54 O 0.76812 0.73741 0.67151 0.0
O55 O 0.81394 0.28083 0.30258 0.0
Cd56 Cd 0.7868 0.25213 0.28717 0.0
O57 O 0.78065 0.29435 0.298 0.0
Cd58 Cd 0.75302 0.27243 0.2798 0.0
O59 O 0.72589 0.26509 0.25243 0.0
C60 C 0.73265 0.27562 0.23741 0.0
O61 O 0.75517 0.28898 0.23935 0.0
C62 C 0.80474 0.29474 0.30479 0.0
C63 C 0.78729 0.22362 0.31253 0.0
O64 O 0.80631 0.22886 0.29887 0.0
O65 O 0.76798 0.23185 0.31418 0.0
O66 O 0.28195 0.35232 0.74007 0.0
Cd67 Cd 0.26307 0.3495 0.7045 0.0
O68 O 0.32512 0.35885 0.72878 0.0
Cd69 Cd 0.31311 0.35139 0.69628 0.0
O70 O 0.30714 0.33082 0.67098 0.0
C71 C 0.2969 0.3148 0.67644 0.0
O72 O 0.28956 0.31211 0.69605 0.0
C73 C 0.30794 0.35685 0.74387 0.0
C74 C 0.23076 0.37349 0.69784 0.0
O75 O 0.21955 0.35741 0.70323 0.0
O76 O 0.25725 0.37825 0.69569 0.0
O77 O 0.35164 0.84026 0.29161 0.0
Cd78 Cd 0.32499 0.83382 0.32396 0.0
O79 O 0.31715 0.84631 0.27459 0.0
Cd80 Cd 0.28723 0.83541 0.29882 0.0
O81 O 0.25853 0.81275 0.3132 0.0
C82 C 0.26627 0.79826 0.3131 0.0
O83 O 0.29086 0.79827 0.30545 0.0
C84 C 0.34234 0.84551 0.27523 0.0
C85 C 0.32775 0.86511 0.34845 0.0
O86 O 0.34514 0.85568 0.35107 0.0
O87 O 0.30904 0.85972 0.3343 0.0
H88 H 0.97835 0.51062 0.31111 0.0
H89 H 0.95268 0.47898 0.31126 0.0
H90 H 0.9917 0.47363 0.36983 0.0
H91 H 0.01721 0.50536 0.36969 0.0
H92 H 0.97857 0.5385 0.33595 0.0
H93 H 0.04503 0.5074 0.31374 0.0
H94 H 0.07317 0.48579 0.31426 0.0
H95 H 0.11326 0.51198 0.37107 0.0
H96 H 0.08401 0.53306 0.37097 0.0
H97 H 0.0786 0.58631 0.36984 0.0
H98 H 0.10494 0.61781 0.36876 0.0
H99 H 0.07113 0.62087 0.30745 0.0
H100 H 0.04554 0.58923 0.30839 0.0
H101 H 0.08121 0.55748 0.34384 0.0
H102 H 0.01245 0.58977 0.36335 0.0
H103 H 0.98711 0.61243 0.35759 0.0
H104 H 0.95322 0.58392 0.30016 0.0
H105 H 0.97944 0.5617 0.30563 0.0
C106 C -0.00011 0.51035 0.34029 0.0
C107 C 0.98124 0.50267 0.32406 0.0
C108 C 0.96656 0.4846 0.32418 0.0
C109 C 0.9702 0.47381 0.34055 0.0
C110 C 0.98874 0.48154 0.35687 0.0
C111 C 0.00331 0.49966 0.3568 0.0
C112 C 0.01573 0.52951 0.33988 0.0
C113 C 0.00104 0.54261 0.3375 0.0
C114 C 0.04505 0.53493 0.34204 0.0
C115 C 0.06211 0.52172 0.34247 0.0
C116 C 0.05956 0.50833 0.32649 0.0
C117 C 0.07594 0.4961 0.32667 0.0
C118 C 0.09554 0.49714 0.3427 0.0
C119 C 0.0981 0.51061 0.35866 0.0
C120 C 0.08158 0.52278 0.35853 0.0
C121 C 0.05992 0.58548 0.33929 0.0
C122 C 0.07695 0.59377 0.35615 0.0
C123 C 0.09179 0.61181 0.35558 0.0
C124 C 0.09002 0.62187 0.33806 0.0
C125 C 0.07311 0.61346 0.32111 0.0
C126 C 0.05829 0.59543 0.32169 0.0
C127 C 0.04402 0.56638 0.34007 0.0
C128 C 0.05872 0.55332 0.3425 0.0
C129 C 0.01479 0.56097 0.33751 0.0
C130 C -0.00188 0.57416 0.33479 0.0
C131 C -0.00035 0.58845 0.34948 0.0
C132 C 0.98494 0.60131 0.34626 0.0
C133 C 0.96824 0.60005 0.32835 0.0
C134 C 0.96625 0.58546 0.31393 0.0
C135 C 0.981 0.57264 0.31714 0.0
H136 H 0.05523 0.58494 0.6282 0.0
H137 H 0.08086 0.61663 0.63078 0.0
H138 H 0.03114 0.62481 0.68423 0.0
H139 H 0.00677 0.593 0.68224 0.0
H140 H 0.05233 0.55904 0.65535 0.0
H141 H 0.98306 0.58416 0.62245 0.0
H142 H 0.95428 0.60541 0.62086 0.0
H143 H 0.91884 0.58859 0.68098 0.0
H144 H 0.94674 0.56683 0.68185 0.0
H145 H 0.94803 0.51303 0.68167 0.0
H146 H 0.92382 0.48105 0.68125 0.0
H147 H 0.97024 0.47172 0.62642 0.0
H148 H 0.9939 0.50378 0.62664 0.0
H149 H 0.94929 0.53824 0.65325 0.0
H150 H 0.01635 0.51496 0.68823 0.0
H151 H 0.04444 0.49364 0.69318 0.0
H152 H 0.08475 0.5075 0.63393 0.0
H153 H 0.05654 0.52889 0.62908 0.0
C154 C 0.02884 0.58662 0.65485 0.0
C155 C 0.0499 0.59358 0.64047 0.0
C156 C 0.06434 0.61175 0.64185 0.0
C157 C 0.05803 0.62331 0.65769 0.0
C158 C 0.03678 0.61628 0.67198 0.0
C159 C 0.02253 0.59811 0.67068 0.0
C160 C 0.0141 0.56721 0.65378 0.0
C161 C 0.02983 0.5545 0.65446 0.0
C162 C 0.98471 0.56125 0.6534 0.0
C163 C 0.96701 0.57397 0.65227 0.0
C164 C 0.96896 0.58504 0.63521 0.0
C165 C 0.95262 0.59729 0.63443 0.0
C166 C 0.93419 0.59883 0.65082 0.0
C167 C 0.93233 0.58761 0.66787 0.0
C168 C 0.94838 0.5752 0.66847 0.0
C169 C 0.97289 0.51075 0.65429 0.0
C170 C 0.95291 0.50409 0.66953 0.0
C171 C 0.93928 0.4858 0.66937 0.0
C172 C 0.94523 0.47386 0.65385 0.0
C173 C 0.96508 0.4806 0.63849 0.0
C174 C 0.97877 0.49888 0.6387 0.0
C175 C 0.98754 0.53013 0.65462 0.0
C176 C 0.9718 0.5428 0.65386 0.0
C177 C 0.01688 0.53607 0.65523 0.0
C178 C 0.03429 0.52341 0.65824 0.0
C179 C 0.03124 0.5134 0.67631 0.0
C180 C 0.04738 0.50131 0.67917 0.0
C181 C 0.06675 0.49892 0.66393 0.0
C182 C 0.06981 0.50899 0.64584 0.0
C183 C 0.05387 0.52126 0.64311 0.0
H184 H 0.28322 0.06063 0.55295 0.0
H185 H 0.27916 0.0345 0.57416 0.0
H186 H 0.36058 0.03092 0.55355 0.0
H187 H 0.36432 0.05699 0.53212 0.0
H188 H 0.31949 0.09312 0.55425 0.0
H189 H 0.29248 0.04312 0.50552 0.0
H190 H 0.29457 0.01543 0.48627 0.0
H191 H 0.37398 0.04271 0.46049 0.0
H192 H 0.37197 0.07038 0.48004 0.0
H193 H 0.3703 0.12548 0.47899 0.0
H194 H 0.36963 0.15129 0.45807 0.0
H195 H 0.2861 0.14872 0.47932 0.0
H196 H 0.28672 0.12278 0.49979 0.0
H197 H 0.33585 0.09049 0.47771 0.0
H198 H 0.36135 0.14095 0.52699 0.0
H199 H 0.35582 0.16867 0.54442 0.0
H200 H 0.27551 0.13985 0.56748 0.0
H201 H 0.28133 0.11215 0.55016 0.0
C202 C 0.32398 0.0607 0.54086 0.0
C203 C 0.30025 0.05426 0.55308 0.0
C204 C 0.29801 0.03935 0.56525 0.0
C205 C 0.31957 0.03061 0.56558 0.0
C206 C 0.34344 0.03717 0.55342 0.0
C207 C 0.34564 0.0521 0.54122 0.0
C208 C 0.32593 0.07641 0.52777 0.0
C209 C 0.32286 0.09247 0.53749 0.0
C210 C 0.33084 0.07569 0.50595 0.0
C211 C 0.33227 0.05878 0.49448 0.0
C212 C 0.31056 0.04309 0.49599 0.0
C213 C 0.31176 0.02726 0.48497 0.0
C214 C 0.33449 0.02688 0.47193 0.0
C215 C 0.35611 0.04264 0.47029 0.0
C216 C 0.355 0.05843 0.48147 0.0
C217 C 0.32865 0.12233 0.49106 0.0
C218 C 0.35181 0.13044 0.47901 0.0
C219 C 0.35148 0.14525 0.46721 0.0
C220 C 0.32783 0.15206 0.46709 0.0
C221 C 0.30452 0.14369 0.47893 0.0
C222 C 0.30492 0.12896 0.49075 0.0
C223 C 0.32926 0.10705 0.5042 0.0
C224 C 0.33281 0.09112 0.49451 0.0
C225 C 0.32457 0.10781 0.52601 0.0
C226 C 0.32166 0.12452 0.53715 0.0
C227 C 0.34252 0.14063 0.53576 0.0
C228 C 0.33928 0.15648 0.54566 0.0
C229 C 0.31515 0.1565 0.55727 0.0
C230 C 0.29447 0.14026 0.55887 0.0
C231 C 0.29774 0.12442 0.54895 0.0
H232 H 0.50351 0.8559 0.9729 0.0
H233 H 0.48031 0.86284 0.94192 0.0
H234 H 0.46226 0.80703 0.92065 0.0
H235 H 0.48538 0.8002 0.95159 0.0
H236 H 0.48547 0.83434 0.00448 0.0
H237 H 0.55398 0.83835 0.95093 0.0
H238 H 0.57356 0.83208 0.91718 0.0
H239 H 0.55826 0.77607 0.93153 0.0
H240 H 0.53785 0.78234 0.96502 0.0
H241 H 0.54169 0.78142 0.02846 0.0
H242 H 0.56692 0.77383 0.05786 0.0
H243 H 0.58702 0.82932 0.08059 0.0
H244 H 0.56246 0.83691 0.05077 0.0
H245 H 0.56136 0.80353 -0.00242 0.0
H246 H 0.49401 0.80017 0.05212 0.0
H247 H 0.47551 0.80712 0.08605 0.0
H248 H 0.49013 0.86274 0.07028 0.0
H249 H 0.5089 0.85575 0.0364 0.0
C250 C 0.49649 0.82759 0.96443 0.0
C251 C 0.49444 0.84517 0.96159 0.0
C252 C 0.48116 0.8491 0.94391 0.0
C253 C 0.46963 0.8355 0.92876 0.0
C254 C 0.4714 0.81787 0.93182 0.0
C255 C 0.48456 0.81394 0.94951 0.0
C256 C 0.51105 0.82347 0.98298 0.0
C257 C 0.50234 0.82783 0.003 0.0
C258 C 0.53266 0.81463 0.98103 0.0
C259 C 0.54422 0.81078 0.96041 0.0
C260 C 0.55454 0.82468 0.9467 0.0
C261 C 0.56598 0.8211 0.9275 0.0
C262 C 0.56751 0.80357 0.92168 0.0
C263 C 0.55708 0.78967 0.93543 0.0
C264 C 0.54563 0.79326 0.95464 0.0
C265 C 0.55004 0.8097 0.03749 0.0
C266 C 0.55153 0.79194 0.03979 0.0
C267 C 0.56576 0.7876 0.05669 0.0
C268 C 0.57895 0.80097 0.07158 0.0
C269 C 0.57732 0.81875 0.06928 0.0
C270 C 0.56306 0.82308 0.05237 0.0
C271 C 0.53568 0.81428 0.01911 0.0
C272 C 0.54448 0.81002 -0.0009 0.0
C273 C 0.51427 0.82328 0.02111 0.0
C274 C 0.50318 0.82748 0.0418 0.0
C275 C 0.49359 0.81391 0.05607 0.0
C276 C 0.48303 0.8179 0.07546 0.0
C277 C 0.48148 0.8355 0.08087 0.0
C278 C 0.49087 0.84904 0.06649 0.0
C279 C 0.50162 0.84506 0.04715 0.0
H280 H 0.76267 0.9835 0.52738 0.0
H281 H 0.76284 0.95671 0.54642 0.0
H282 H 0.84125 0.95527 0.51783 0.0
H283 H 0.84102 0.98214 0.49888 0.0
H284 H 0.79589 0.01657 0.52629 0.0
H285 H 0.76469 0.96701 0.47834 0.0
H286 H 0.76675 0.93879 0.46051 0.0
H287 H 0.84268 0.96616 0.42985 0.0
H288 H 0.84112 0.99426 0.44857 0.0
H289 H 0.83661 0.04759 0.44767 0.0
H290 H 0.83415 0.07288 0.42658 0.0
H291 H 0.75526 0.07344 0.4549 0.0
H292 H 0.75762 0.048 0.47573 0.0
H293 H 0.80353 0.01425 0.44891 0.0
H294 H 0.83058 0.06542 0.49873 0.0
H295 H 0.82411 0.09198 0.51844 0.0
H296 H 0.748 0.05975 0.54447 0.0
H297 H 0.75473 0.0333 0.5249 0.0
C298 C 0.80168 0.98472 0.51155 0.0
C299 C 0.78006 0.97755 0.52541 0.0
C300 C 0.7802 0.96224 0.53628 0.0
C301 C 0.80201 0.95382 0.53354 0.0
C302 C 0.82396 0.96129 0.52002 0.0
C303 C 0.82388 0.97666 0.50923 0.0
C304 C 0.80048 0.00027 0.49899 0.0
C305 C 0.79735 0.01603 0.50936 0.0
C306 C 0.80245 -0.00043 0.47691 0.0
C307 C 0.80298 0.98269 0.46503 0.0
C308 C 0.78189 0.96691 0.46788 0.0
C309 C 0.78295 0.95081 0.4575 0.0
C310 C 0.80493 0.95017 0.44376 0.0
C311 C 0.82571 0.96611 0.44057 0.0
C312 C 0.82471 0.98222 0.45108 0.0
C313 C 0.79751 0.04604 0.4635 0.0
C314 C 0.81874 0.05312 0.44928 0.0
C315 C 0.81729 0.06755 0.43722 0.0
C316 C 0.79456 0.07519 0.43916 0.0
C317 C 0.77323 0.06801 0.4533 0.0
C318 C 0.77458 0.05349 0.46523 0.0
C319 C 0.79919 0.03068 0.47622 0.0
C320 C 0.80234 0.01489 0.46585 0.0
C321 C 0.79659 0.03123 0.49828 0.0
C322 C 0.79305 0.04741 0.51026 0.0
C323 C 0.81246 0.06412 0.50863 0.0
C324 C 0.80869 0.07929 0.51986 0.0
C325 C 0.78554 0.07799 0.53305 0.0
C326 C 0.76627 0.06118 0.53471 0.0
C327 C 0.77004 0.04605 0.52349 0.0
H328 H 0.47055 0.34457 0.97621 0.0
H329 H 0.44496 0.35259 0.94726 0.0
H330 H 0.42524 0.29746 0.92322 0.0
H331 H 0.45115 0.28963 0.95204 0.0
H332 H 0.45419 0.32088 0.00703 0.0
H333 H 0.51825 0.32847 0.94951 0.0
H334 H 0.53595 0.32354 0.91464 0.0
H335 H 0.52642 0.26759 0.92716 0.0
H336 H 0.50769 0.27247 0.96168 0.0
H337 H 0.51828 0.27036 0.02506 0.0
H338 H 0.54644 0.26367 0.05333 0.0
H339 H 0.5636 0.31897 0.07641 0.0
H340 H 0.53594 0.32564 0.04789 0.0
H341 H 0.53293 0.29345 -0.00634 0.0
H342 H 0.46991 0.28528 0.05074 0.0
H343 H 0.45447 0.28975 0.08637 0.0
H344 H 0.46128 0.34562 0.075 0.0
H345 H 0.47799 0.34123 0.03963 0.0
C346 C 0.46302 0.31656 0.96614 0.0
C347 C 0.4606 0.33422 0.96473 0.0
C348 C 0.44588 0.33876 0.94821 0.0
C349 C 0.43315 0.32569 0.93285 0.0
C350 C 0.43523 0.30793 0.93454 0.0
C351 C 0.44996 0.30341 0.95104 0.0
C352 C 0.47922 0.31189 0.98341 0.0
C353 C 0.47164 0.3151 0.00411 0.0
C354 C 0.50144 0.30384 0.97958 0.0
C355 C 0.51138 0.3008 0.95814 0.0
C356 C 0.51953 0.31508 0.94461 0.0
C357 C 0.52993 0.31228 0.92475 0.0
C358 C 0.53264 0.29517 0.9181 0.0
C359 C 0.52424 0.28087 0.93164 0.0
C360 C 0.51377 0.28367 0.95147 0.0
C361 C 0.52486 0.29846 0.03447 0.0
C362 C 0.52817 0.28103 0.0362 0.0
C363 C 0.54407 0.2772 0.05244 0.0
C364 C 0.55719 0.29079 0.06711 0.0
C365 C 0.55396 0.30826 0.06524 0.0
C366 C 0.53798 0.31205 0.04907 0.0
C367 C 0.50798 0.30251 0.01724 0.0
C368 C 0.51542 0.29918 -0.00344 0.0
C369 C 0.48553 0.31033 0.02108 0.0
C370 C 0.47547 0.31298 0.04259 0.0
C371 C 0.46839 0.29855 0.05599 0.0
C372 C 0.45925 0.30108 0.07631 0.0
C373 C 0.45665 0.31806 0.08358 0.0
C374 C 0.46345 0.33244 0.07002 0.0
C375 C 0.47274 0.32992 0.04972 0.0
H376 H 0.267 0.39537 0.35756 0.0
H377 H 0.23208 0.41221 0.36488 0.0
H378 H 0.21916 0.4149 0.29868 0.0
H379 H 0.25345 0.39793 0.29125 0.0
H380 H 0.23274 0.44632 0.35312 0.0
H381 H 0.14014 0.39717 0.31974 0.0
H382 H 0.17206 0.39121 0.32528 0.0
H383 H 0.16843 0.40214 0.30155 0.0
C384 C 0.25651 0.39941 0.34458 0.0
C385 C 0.26292 0.39524 0.32382 0.0
C386 C 0.2366 0.40903 0.34879 0.0
C387 C 0.22266 0.41452 0.33233 0.0
C388 C 0.22912 0.4104 0.31163 0.0
H389 H 0.12028 0.48474 0.30889 0.0
H390 H 0.15007 0.46401 0.30844 0.0
C391 C 0.24891 0.40079 0.30742 0.0
C392 C 0.20239 0.42535 0.33656 0.0
H393 H 0.13656 0.42756 0.32491 0.0
C394 C 0.21156 0.44211 0.34727 0.0
C395 C 0.17475 0.4198 0.32894 0.0
C396 C 0.16316 0.40151 0.31843 0.0
C397 C 0.19423 0.45384 0.34967 0.0
C398 C 0.16701 0.44856 0.34128 0.0
C399 C 0.15753 0.43158 0.33119 0.0
C400 C 0.14855 0.46085 0.34187 0.0
C401 C 0.20545 0.47209 0.36037 0.0
C402 C 0.13761 0.46576 0.36082 0.0
C403 C 0.12031 0.47748 0.36113 0.0
C404 C 0.11364 0.48449 0.34246 0.0
C405 C 0.1246 0.4794 0.32351 0.0
C406 C 0.14176 0.46764 0.32322 0.0
H407 H 0.22824 0.47518 0.3631 0.0
H408 H 0.20096 0.48274 0.35087 0.0
H409 H 0.19505 0.47251 0.37572 0.0
H410 H 0.14233 0.46044 0.37534 0.0
H411 H 0.11189 0.48089 0.37595 0.0
H412 H 0.20564 0.77222 0.72573 0.0
H413 H 0.17198 0.74459 0.71403 0.0
H414 H 0.19135 0.75731 0.64976 0.0
H415 H 0.22568 0.78493 0.66136 0.0
H416 H 0.12515 0.73837 0.68913 0.0
H417 H 0.20454 0.7074 0.65269 0.0
H418 H 0.21378 0.72737 0.66963 0.0
H419 H 0.20358 0.72878 0.64302 0.0
C420 C 0.20273 0.76922 0.70908 0.0
C421 C 0.21857 0.7807 0.69447 0.0
C422 C 0.18341 0.75342 0.70243 0.0
C423 C 0.17951 0.74874 0.68105 0.0
C424 C 0.19449 0.76048 0.66636 0.0
H425 H 0.0771 0.64672 0.62639 0.0
H426 H 0.10495 0.67796 0.63012 0.0
C427 C 0.21397 0.7763 0.67301 0.0
C428 C 0.16019 0.73132 0.67442 0.0
H429 H 0.15804 0.69018 0.65132 0.0
C430 C 0.13228 0.72788 0.68072 0.0
C431 C 0.16956 0.71767 0.66341 0.0
C432 C 0.19953 0.72035 0.65691 0.0
C433 C 0.11363 0.71102 0.67669 0.0
C434 C 0.12323 0.69723 0.66629 0.0
C435 C 0.15081 0.70084 0.65928 0.0
C436 C 0.10557 0.6786 0.66392 0.0
C437 C 0.08387 0.70802 0.6838 0.0
C438 C 0.09706 0.66861 0.6817 0.0
C439 C 0.0815 0.65074 0.67965 0.0
C440 C 0.07411 0.64248 0.65975 0.0
C441 C 0.08267 0.65259 0.64194 0.0
C442 C 0.0984 0.67046 0.64402 0.0
H443 H 0.078 0.72092 0.68638 0.0
H444 H 0.06937 0.69941 0.67219 0.0
H445 H 0.08125 0.70109 0.69882 0.0
H446 H 0.10293 0.67454 0.69718 0.0
H447 H 0.07584 0.64329 0.69368 0.0
H448 H 0.87876 0.73605 0.2805 0.0
H449 H 0.90265 0.71273 0.2869 0.0
H450 H 0.82841 0.68063 0.31513 0.0
H451 H 0.80423 0.7038 0.30865 0.0
H452 H 0.91182 0.69864 0.32548 0.0
H453 H 0.84936 0.64596 0.27076 0.0
H454 H 0.8493 0.66934 0.26989 0.0
H455 H 0.82935 0.65547 0.28937 0.0
C456 C 0.86746 0.72401 0.28801 0.0
C457 C 0.83954 0.72175 0.29398 0.0
C458 C 0.88117 0.71072 0.29168 0.0
C459 C 0.86719 0.69487 0.30124 0.0
C460 C 0.83942 0.69263 0.3074 0.0
H461 H 0.94043 0.61661 0.35678 0.0
H462 H 0.9163 0.63983 0.35041 0.0
C463 C 0.82569 0.70592 0.30377 0.0
C464 C 0.88185 0.68084 0.30507 0.0
H465 H 0.88113 0.63716 0.29279 0.0
C466 C 0.90515 0.68519 0.31833 0.0
C467 C 0.87326 0.6634 0.29553 0.0
C468 C 0.8491 0.65824 0.28044 0.0
C469 C 0.91992 0.67247 0.32252 0.0
C470 C 0.9109 0.65489 0.31339 0.0
C471 C 0.88782 0.65061 0.29991 0.0
C472 C 0.92547 0.64083 0.31732 0.0
C473 C 0.94532 0.67801 0.33639 0.0
C474 C 0.93816 0.63348 0.30074 0.0
C475 C 0.952 0.62024 0.30432 0.0
C476 C 0.95327 0.61402 0.32455 0.0
C477 C 0.94026 0.62131 0.34109 0.0
C478 C 0.92643 0.63457 0.33748 0.0
H479 H 0.95317 0.69287 0.33813 0.0
H480 H 0.93991 0.67275 0.35217 0.0
H481 H 0.96227 0.67237 0.33007 0.0
H482 H 0.93761 0.63813 0.28506 0.0
H483 H 0.96209 0.61509 0.29129 0.0
H484 H 0.80678 0.32011 0.7024 0.0
H485 H 0.83943 0.34858 0.6946 0.0
H486 H 0.81886 0.3391 0.62908 0.0
H487 H 0.78563 0.31061 0.63676 0.0
H488 H 0.88586 0.35716 0.66846 0.0
H489 H 0.8024 0.38773 0.6429 0.0
H490 H 0.79502 0.36697 0.65643 0.0
H491 H 0.80384 0.36717 0.62915 0.0
C492 C 0.80926 0.32397 0.68629 0.0
C493 C 0.79333 0.31315 0.67023 0.0
C494 C 0.828 0.34026 0.68186 0.0
C495 C 0.8312 0.34608 0.66133 0.0
C496 C 0.81627 0.335 0.6451 0.0
H497 H 0.92309 0.45189 0.62017 0.0
H498 H 0.89769 0.42009 0.62012 0.0
C499 C 0.7974 0.31868 0.64951 0.0
C500 C 0.84945 0.36408 0.65725 0.0
H501 H 0.84829 0.40588 0.64228 0.0
C502 C 0.87772 0.36779 0.66259 0.0
C503 C 0.83872 0.37791 0.64959 0.0
C504 C 0.80831 0.37487 0.64432 0.0
C505 C 0.89549 0.38505 0.66075 0.0
C506 C 0.88458 0.39897 0.65367 0.0
C507 C 0.85654 0.39514 0.6477 0.0
C508 C 0.90143 0.41785 0.65348 0.0
C509 C 0.92577 0.38826 0.66649 0.0
C510 C 0.91178 0.4271 0.67227 0.0
C511 C 0.92626 0.44523 0.67236 0.0
C512 C 0.93059 0.45445 0.65364 0.0
C513 C 0.92037 0.4451 0.6348 0.0
C514 C 0.90578 0.42697 0.63475 0.0
H515 H 0.93241 0.37554 0.66586 0.0
H516 H 0.93923 0.39785 0.65591 0.0
H517 H 0.92905 0.39411 0.6827 0.0
H518 H 0.90819 0.42039 0.68695 0.0
H519 H 0.93407 0.45203 0.68709 0.0
H520 H 0.27306 0.27367 0.35667 0.0
H521 H 0.27729 0.24801 0.37638 0.0
H522 H 0.35798 0.2782 0.39884 0.0
H523 H 0.35375 0.30405 0.37946 0.0
H524 H 0.31742 0.22905 0.37222 0.0
H525 H 0.31864 0.25943 0.45259 0.0
H526 H 0.30798 0.26937 0.4301 0.0
H527 H 0.3443 0.27219 0.43543 0.0
C528 C 0.29162 0.27492 0.36593 0.0
C529 C 0.31302 0.29094 0.36657 0.0
C530 C 0.29401 0.26023 0.37716 0.0
C531 C 0.31777 0.26128 0.38929 0.0
C532 C 0.3392 0.27723 0.38994 0.0
H533 H 0.36889 0.18327 0.46399 0.0
H534 H 0.36757 0.20966 0.44434 0.0
C535 C 0.3368 0.29196 0.37876 0.0
C536 C 0.32047 0.24544 0.40065 0.0
H537 H 0.32813 0.23082 0.44934 0.0
C538 C 0.31968 0.22942 0.38909 0.0
C539 C 0.32353 0.24599 0.42265 0.0
C540 C 0.32343 0.26261 0.43598 0.0
C541 C 0.32204 0.21394 0.39891 0.0
C542 C 0.3249 0.21445 0.4209 0.0
C543 C 0.32599 0.23051 0.43246 0.0
C544 C 0.326 0.19831 0.43226 0.0
C545 C 0.32181 0.19722 0.38566 0.0
C546 C 0.30301 0.18328 0.43203 0.0
C547 C 0.30372 0.16821 0.44317 0.0
C548 C 0.32743 0.16791 0.4548 0.0
C549 C 0.35047 0.183 0.45496 0.0
C550 C 0.34969 0.19811 0.44386 0.0
H551 H 0.32654 0.20029 0.36902 0.0
H552 H 0.33714 0.19037 0.39157 0.0
H553 H 0.30086 0.18775 0.38635 0.0
H554 H 0.28438 0.18328 0.42341 0.0
H555 H 0.28572 0.15675 0.44262 0.0
H556 H 0.31059 0.86367 0.78154 0.0
H557 H 0.3394 0.86644 0.81289 0.0
H558 H 0.39157 0.83725 0.78057 0.0
H559 H 0.36327 0.83468 0.7491 0.0
H560 H 0.34636 0.83821 0.83461 0.0
H561 H 0.44882 0.87878 0.80846 0.0
H562 H 0.4171 0.87718 0.79415 0.0
H563 H 0.43479 0.85959 0.79131 0.0
C564 C 0.32848 0.85811 0.78097 0.0
C565 C 0.3346 0.84893 0.76279 0.0
C566 C 0.34491 0.8597 0.79892 0.0
C567 C 0.36783 0.85224 0.799 0.0
C568 C 0.37438 0.84347 0.78073 0.0
H569 H 0.47421 0.82346 0.88842 0.0
H570 H 0.44946 0.82902 0.85756 0.0
C571 C 0.35803 0.84191 0.76277 0.0
C572 C 0.38337 0.85219 0.81864 0.0
H573 H 0.44867 0.86266 0.83973 0.0
C574 C 0.36868 0.84379 0.83585 0.0
C575 C 0.41249 0.85944 0.82018 0.0
C576 C 0.4292 0.86941 0.8026 0.0
C577 C 0.38244 0.84181 0.85429 0.0
C578 C 0.41163 0.84864 0.85562 0.0
C579 C 0.42628 0.8574 0.8386 0.0
C580 C 0.4274 0.84609 0.87423 0.0
C581 C 0.3658 0.83183 0.8719 0.0
C582 C 0.42348 0.85409 0.89373 0.0
C583 C 0.43747 0.85087 0.91142 0.0
C584 C 0.45565 0.8396 0.90988 0.0
C585 C 0.46 0.83197 0.89018 0.0
C586 C 0.44606 0.83523 0.87252 0.0
H587 H 0.34453 0.82433 0.86681 0.0
H588 H 0.37645 0.82219 0.8783 0.0
H589 H 0.36383 0.84158 0.88471 0.0
H590 H 0.40939 0.86269 0.8953 0.0
H591 H 0.43357 0.85687 0.92638 0.0
H592 H 0.83503 0.80952 0.33539 0.0
H593 H 0.84346 0.83558 0.36001 0.0
H594 H 0.75518 0.82599 0.37033 0.0
H595 H 0.74661 0.79981 0.34624 0.0
H596 H 0.82569 0.86534 0.35498 0.0
H597 H 0.78401 0.83556 0.42936 0.0
H598 H 0.79128 0.82214 0.40726 0.0
H599 H 0.75913 0.82878 0.40856 0.0
C600 C 0.81745 0.81274 0.34323 0.0
C601 C 0.79014 0.80257 0.33882 0.0
C602 C 0.82231 0.82765 0.35727 0.0
C603 C 0.79999 0.8326 0.36723 0.0
C604 C 0.77279 0.82218 0.36327 0.0
H605 H 0.76168 0.92404 0.42668 0.0
H606 H 0.76339 0.89548 0.40931 0.0
C607 C 0.76792 0.80726 0.34934 0.0
C608 C 0.80469 0.84958 0.38013 0.0
H609 H 0.78777 0.86727 0.42673 0.0
C610 C 0.81788 0.86575 0.37082 0.0
C611 C 0.7945 0.85009 0.40079 0.0
C612 C 0.7817 0.83318 0.41214 0.0
C613 C 0.8199 0.88244 0.38123 0.0
C614 C 0.80857 0.88293 0.40149 0.0
C615 C 0.79626 0.8668 0.41111 0.0
C616 C 0.80792 0.9001 0.41245 0.0
C617 C 0.83303 0.89947 0.3702 0.0
C618 C 0.83242 0.91205 0.42006 0.0
C619 C 0.83152 0.92834 0.43019 0.0
C620 C 0.80606 0.93294 0.43285 0.0
C621 C 0.78157 0.92084 0.42519 0.0
C622 C 0.7825 0.90455 0.41517 0.0
H623 H 0.83744 0.89679 0.3535 0.0
H624 H 0.81923 0.90874 0.37111 0.0
H625 H 0.85292 0.90643 0.37806 0.0
H626 H 0.8522 0.90872 0.41827 0.0
H627 H 0.85069 0.9372 0.4362 0.0
H628 H 0.65319 0.30065 0.74051 0.0
H629 H 0.62409 0.30118 0.77131 0.0
H630 H 0.64038 0.252 0.79086 0.0
H631 H 0.67001 0.2515 0.76021 0.0
H632 H 0.57697 0.27695 0.78666 0.0
H633 H 0.66721 0.28741 0.84061 0.0
H634 H 0.67125 0.28953 0.81273 0.0
H635 H 0.66158 0.26766 0.82357 0.0
C636 C 0.65044 0.28984 0.75124 0.0
C637 C 0.66422 0.27615 0.74804 0.0
C638 C 0.63373 0.29016 0.76882 0.0
C639 C 0.63049 0.27681 0.78354 0.0
C640 C 0.64307 0.26262 0.77989 0.0
H641 H 0.51667 0.2664 0.89007 0.0
H642 H 0.53929 0.26121 0.85713 0.0
C643 C 0.65988 0.26231 0.76231 0.0
C644 C 0.61504 0.27833 0.80313 0.0
H645 H 0.62322 0.28475 0.85604 0.0
C646 C 0.58699 0.27857 0.80186 0.0
C647 C 0.62835 0.28072 0.82288 0.0
C648 C 0.65881 0.28149 0.82513 0.0
C649 C 0.57187 0.28116 0.81984 0.0
C650 C 0.58511 0.28331 0.8396 0.0
C651 C 0.61311 0.28299 0.84086 0.0
C652 C 0.5707 0.28656 0.85917 0.0
C653 C 0.54216 0.28212 0.81749 0.0
C654 C 0.58112 0.30239 0.87139 0.0
C655 C 0.5685 0.3053 0.89033 0.0
C656 C 0.54521 0.29238 0.89747 0.0
C657 C 0.53469 0.27656 0.8851 0.0
C658 C 0.54739 0.27366 0.86615 0.0
H659 H 0.5373 0.28454 0.80112 0.0
H660 H 0.52798 0.26916 0.82189 0.0
H661 H 0.53782 0.29295 0.82793 0.0
H662 H 0.59921 0.31247 0.86634 0.0
H663 H 0.57742 0.31748 0.89961 0.0
H664 H 0.25521 0.90659 0.69718 0.0
H665 H 0.26573 0.93262 0.67509 0.0
H666 H 0.31125 0.90573 0.6328 0.0
H667 H 0.30079 0.87957 0.65475 0.0
H668 H 0.32054 0.95365 0.66301 0.0
H669 H 0.25457 0.92146 0.59505 0.0
H670 H 0.24999 0.91232 0.62075 0.0
H671 H 0.27831 0.90951 0.60455 0.0
C672 C 0.26738 0.90616 0.68314 0.0
C673 C 0.27708 0.89097 0.67768 0.0
C674 C 0.27341 0.92106 0.67058 0.0
C675 C 0.289 0.92099 0.65224 0.0
C676 C 0.29884 0.90592 0.64676 0.0
H677 H 0.3349 -0.00042 0.5554 0.0
H678 H 0.32987 0.97327 0.57666 0.0
C679 C 0.29293 0.89102 0.65936 0.0
C680 C 0.29527 0.93685 0.63905 0.0
H681 H 0.28175 0.95116 0.59147 0.0
C682 C 0.3121 0.95314 0.64736 0.0
C683 C 0.28436 0.93605 0.61861 0.0
C684 C 0.26563 0.91896 0.60917 0.0
C685 C 0.31838 0.96871 0.63573 0.0
C686 C 0.30695 0.96803 0.61544 0.0
C687 C 0.29046 0.95165 0.60702 0.0
C688 C 0.31109 0.98428 0.60295 0.0
C689 C 0.33748 0.98566 0.64518 0.0
C690 C 0.30206 -0.00086 0.61062 0.0
C691 C 0.30514 0.01424 0.59862 0.0
C692 C 0.31705 0.01472 0.57856 0.0
C693 C 0.32603 -0.00023 0.57089 0.0
C694 C 0.323 0.98467 0.58296 0.0
H695 H 0.35086 0.98265 0.65761 0.0
H696 H 0.35101 0.99344 0.63311 0.0
H697 H 0.3248 0.99423 0.65241 0.0
H698 H 0.29229 -0.00101 0.62582 0.0
H699 H 0.29824 0.02557 0.60509 0.0
H700 H 0.74784 0.79655 0.21796 0.0
H701 H 0.72059 0.7989 0.18716 0.0
H702 H 0.66253 0.74851 0.20034 0.0
H703 H 0.6895 0.74611 0.23142 0.0
H704 H 0.70442 0.77558 0.15158 0.0
H705 H 0.61345 0.78404 0.19821 0.0
H706 H 0.6471 0.78607 0.20982 0.0
H707 H 0.62482 0.76426 0.20305 0.0
C708 C 0.72938 0.78589 0.21427 0.0
C709 C 0.7207 0.77122 0.22727 0.0
C710 C 0.71385 0.78725 0.19664 0.0
C711 C 0.68931 0.77404 0.1917 0.0
C712 C 0.68114 0.75902 0.20413 0.0
H713 H 0.56442 0.77157 0.09584 0.0
H714 H 0.59133 0.76382 0.12423 0.0
C715 C 0.69667 0.75763 0.22181 0.0
C716 C 0.67203 0.77635 0.17384 0.0
H717 H 0.6093 0.78359 0.16152 0.0
C718 C 0.68358 0.77727 0.15371 0.0
C719 C 0.64486 0.77855 0.17672 0.0
C720 C 0.63181 0.77834 0.19811 0.0
C721 C 0.66868 0.78035 0.13635 0.0
C722 C 0.64173 0.7829 0.13929 0.0
C723 C 0.62997 0.78164 0.15935 0.0
C724 C 0.62572 0.78745 0.12188 0.0
C725 C 0.68182 0.78073 0.11499 0.0
C726 C 0.63599 0.80343 0.11139 0.0
C727 C 0.62075 0.80786 0.09515 0.0
C728 C 0.59485 0.79643 0.08915 0.0
C729 C 0.58447 0.78053 0.09989 0.0
C730 C 0.59973 0.77612 0.11616 0.0
H731 H 0.69872 0.7737 0.11452 0.0
H732 H 0.66613 0.7744 0.10284 0.0
H733 H 0.69101 0.79491 0.111 0.0
H734 H 0.65576 0.81253 0.11585 0.0
H735 H 0.62944 0.82012 0.08709 0.0
H736 H 0.7113 0.21624 0.60789 0.0
H737 H 0.72128 0.19042 0.58882 0.0
H738 H 0.77301 0.18326 0.63974 0.0
H739 H 0.76332 0.20914 0.65891 0.0
H740 H 0.79721 0.18213 0.59928 0.0
H741 H 0.69045 0.13708 0.60312 0.0
H742 H 0.69254 0.15883 0.59313 0.0
H743 H 0.70195 0.15707 0.61985 0.0
C744 C 0.72475 0.20916 0.61507 0.0
C745 C 0.73643 0.2147 0.63496 0.0
C746 C 0.73033 0.19436 0.60418 0.0
C747 C 0.7476 0.18482 0.613 0.0
C748 C 0.75953 0.19042 0.63273 0.0
H749 H 0.7678 0.08 0.57346 0.0
H750 H 0.75948 0.10618 0.59279 0.0
C751 C 0.75391 0.20518 0.64366 0.0
C752 C 0.75352 0.16913 0.60152 0.0
H753 H 0.72285 0.12687 0.58172 0.0
C754 C 0.78099 0.17002 0.59545 0.0
C755 C 0.73234 0.15331 0.59677 0.0
C756 C 0.70268 0.15136 0.60369 0.0
C757 C 0.7878 0.15557 0.58447 0.0
C758 C 0.76649 0.13993 0.57927 0.0
C759 C 0.73909 0.13895 0.5856 0.0
C760 C 0.77221 0.12428 0.56756 0.0
C761 C 0.81776 0.15703 0.57879 0.0
C762 C 0.78198 0.12579 0.54691 0.0
C763 C 0.7866 0.11082 0.53575 0.0
C764 C 0.78139 0.09405 0.54503 0.0
C765 C 0.77167 0.09265 0.56576 0.0
C766 C 0.76704 0.1076 0.57687 0.0
H767 H 0.83223 0.168 0.58804 0.0
H768 H 0.82327 0.1442 0.58133 0.0
H769 H 0.82088 0.15996 0.56199 0.0
H770 H 0.7856 0.13848 0.53931 0.0
H771 H 0.79365 0.1123 0.51972 0.0
H772 H 0.33874 0.31384 0.26363 0.0
H773 H 0.35925 0.3091 0.22969 0.0
H774 H 0.41137 0.36332 0.23387 0.0
H775 H 0.39107 0.36824 0.26786 0.0
H776 H 0.35775 0.33067 0.19409 0.0
H777 H 0.46551 0.33178 0.21757 0.0
H778 H 0.43682 0.32762 0.23577 0.0
H779 H 0.45245 0.35008 0.22794 0.0
C780 C 0.3548 0.32471 0.25748 0.0
C781 C 0.36324 0.34144 0.26847 0.0
C782 C 0.36646 0.32197 0.23808 0.0
C783 C 0.38696 0.33581 0.22941 0.0
C784 C 0.39586 0.35239 0.24047 0.0
H785 H 0.47537 0.34683 0.11115 0.0
H786 H 0.45801 0.3513 0.14632 0.0
C787 C 0.38413 0.35519 0.25984 0.0
C788 C 0.39774 0.33324 0.20821 0.0
H789 H 0.45642 0.33125 0.18126 0.0
C790 C 0.37928 0.33071 0.19125 0.0
C791 C 0.42589 0.33347 0.20463 0.0
C792 C 0.44636 0.33575 0.22242 0.0
C793 C 0.38829 0.32861 0.1707 0.0
C794 C 0.41638 0.3286 0.1671 0.0
C795 C 0.43489 0.33122 0.18408 0.0
C796 C 0.42691 0.32581 0.14582 0.0
C797 C 0.36778 0.32684 0.153 0.0
C798 C 0.4154 0.30991 0.134 0.0
C799 C 0.42502 0.30741 0.11382 0.0
C800 C 0.44659 0.32068 0.10514 0.0
C801 C 0.45842 0.33647 0.1172 0.0
C802 C 0.44869 0.33899 0.13737 0.0
H803 H 0.34982 0.33218 0.15773 0.0
H804 H 0.37782 0.33405 0.13917 0.0
H805 H 0.35961 0.31242 0.1483 0.0
H806 H 0.39895 0.29941 0.14038 0.0
H807 H 0.41528 0.29516 0.10492 0.0
H808 H 0.7957 0.71668 0.68751 0.0
H809 H 0.82466 0.69542 0.6856 0.0
H810 H 0.8094 0.68726 0.61918 0.0
H811 H 0.77942 0.70791 0.62118 0.0
H812 H 0.80463 0.6564 0.63592 0.0
H813 H 0.9024 0.70278 0.66522 0.0
H814 H 0.87464 0.70137 0.6836 0.0
H815 H 0.87252 0.71054 0.65842 0.0
C816 C 0.79865 0.71043 0.67248 0.0
C817 C 0.78537 0.71401 0.65448 0.0
C818 C 0.8154 0.69838 0.67137 0.0
C819 C 0.81976 0.69002 0.65216 0.0
C820 C 0.80648 0.6936 0.63417 0.0
H821 H 0.94875 0.63273 0.63535 0.0
H822 H 0.92056 0.65427 0.63411 0.0
C823 C 0.78936 0.70541 0.63533 0.0
C824 C 0.83724 0.677 0.65093 0.0
H825 H 0.90077 0.67146 0.66404 0.0
C826 C 0.82574 0.65975 0.64192 0.0
C827 C 0.86497 0.68143 0.6584 0.0
C828 C 0.87945 0.7001 0.66673 0.0
C829 C 0.84095 0.64674 0.64054 0.0
C830 C 0.86811 0.65084 0.64911 0.0
C831 C 0.87982 0.6682 0.65773 0.0
C832 C 0.8848 0.63739 0.64927 0.0
C833 C 0.82788 0.62887 0.62953 0.0
C834 C 0.87422 0.62073 0.65831 0.0
C835 C 0.89004 0.60816 0.65856 0.0
C836 C 0.91711 0.61212 0.65023 0.0
C837 C 0.92782 0.62899 0.64152 0.0
C838 C 0.91181 0.64144 0.64099 0.0
H839 H 0.81176 0.63002 0.61814 0.0
H840 H 0.84367 0.62339 0.62108 0.0
H841 H 0.81756 0.61913 0.64123 0.0
H842 H 0.85375 0.61745 0.66532 0.0
H843 H 0.88089 0.59528 0.66521 0.0
H844 H 0.85866 0.3015 0.31865 0.0
H845 H 0.88914 0.33056 0.3304 0.0
H846 H 0.82203 0.35564 0.32243 0.0
H847 H 0.79141 0.32678 0.31108 0.0
H848 H 0.90406 0.36034 0.30699 0.0
H849 H 0.85201 0.37651 0.37918 0.0
H850 H 0.8443 0.35414 0.36715 0.0
H851 H 0.82838 0.37073 0.35748 0.0
C852 C 0.85025 0.31314 0.31977 0.0
C853 C 0.82257 0.3118 0.31391 0.0
C854 C 0.86771 0.32974 0.32646 0.0
C855 C 0.85775 0.34522 0.32758 0.0
C856 C 0.82999 0.34381 0.32219 0.0
H857 H 0.91538 0.45915 0.3312 0.0
H858 H 0.89021 0.42733 0.32976 0.0
C859 C 0.81255 0.32728 0.31554 0.0
C860 C 0.8768 0.36315 0.33251 0.0
H861 H 0.88319 0.40154 0.36289 0.0
C862 C 0.89983 0.36924 0.31946 0.0
C863 C 0.87123 0.37473 0.34879 0.0
C864 C 0.84779 0.36863 0.36408 0.0
C865 C 0.91657 0.38693 0.32156 0.0
C866 C 0.91024 0.39873 0.33725 0.0
C867 C 0.88786 0.39246 0.35079 0.0
C868 C 0.92555 0.41793 0.33898 0.0
C869 C 0.94011 0.39314 0.30637 0.0
C870 C 0.95365 0.42315 0.3449 0.0
C871 C 0.96812 0.44133 0.34568 0.0
C872 C 0.9547 0.45456 0.34051 0.0
C873 C 0.92639 0.44926 0.33496 0.0
C874 C 0.91194 0.43112 0.33428 0.0
H875 H 0.93937 0.38328 0.29306 0.0
H876 H 0.93955 0.40626 0.30008 0.0
H877 H 0.96023 0.39504 0.31463 0.0
H878 H 0.96442 0.41316 0.34878 0.0
H879 H 0.98995 0.44499 0.3499 0.0
H880 H 0.17425 0.36584 0.69371 0.0
H881 H 0.1461 0.3867 0.6867 0.0
H882 H 0.22015 0.43067 0.68723 0.0
H883 H 0.2485 0.4098 0.69349 0.0
H884 H 0.13794 0.41462 0.70885 0.0
H885 H 0.18545 0.43833 0.63333 0.0
H886 H 0.19222 0.41929 0.64571 0.0
H887 H 0.21072 0.44183 0.65392 0.0
C888 C 0.18456 0.37994 0.69223 0.0
C889 C 0.21363 0.38615 0.694 0.0
C890 C 0.16844 0.39185 0.68823 0.0
C891 C 0.18103 0.41021 0.68602 0.0
C892 C 0.21001 0.4165 0.68824 0.0
H893 H 0.09563 0.4952 0.69877 0.0
H894 H 0.12299 0.47352 0.70394 0.0
C895 C 0.22619 0.40456 0.69198 0.0
C896 C 0.16375 0.42284 0.682 0.0
H897 H 0.15632 0.45526 0.64942 0.0
C898 C 0.14185 0.42342 0.69578 0.0
C899 C 0.16851 0.43411 0.66473 0.0
C900 C 0.19031 0.43325 0.64846 0.0
C901 C 0.12496 0.4352 0.69301 0.0
C902 C 0.13066 0.44714 0.67637 0.0
C903 C 0.15218 0.44629 0.66234 0.0
C904 C 0.11447 0.46053 0.67314 0.0
C905 C 0.10086 0.43444 0.70772 0.0
C906 C 0.10147 0.46095 0.65384 0.0
C907 C 0.08623 0.47355 0.65075 0.0
C908 C 0.0836 0.48591 0.66694 0.0
C909 C 0.09693 0.48564 0.68615 0.0
C910 C 0.11244 0.47319 0.68914 0.0
H911 H 0.09416 0.42119 0.71503 0.0
H912 H 0.10735 0.44487 0.72047 0.0
H913 H 0.08275 0.43695 0.69951 0.0
H914 H 0.10285 0.45138 0.64123 0.0
H915 H 0.07605 0.47341 0.63583 0.0
H916 H 0.2125 0.79274 0.32691 0.0
H917 H 0.18026 0.76407 0.33532 0.0
H918 H 0.24443 0.73678 0.32213 0.0
H919 H 0.27679 0.76528 0.31401 0.0
H920 H 0.16291 0.73442 0.3085 0.0
H921 H 0.2143 0.71665 0.37784 0.0
H922 H 0.223 0.73907 0.36811 0.0
H923 H 0.23749 0.72199 0.35607 0.0
C924 C 0.21986 0.78067 0.3261 0.0
C925 C 0.24723 0.7813 0.3198 0.0
C926 C 0.2014 0.76431 0.33088 0.0
C927 C 0.21006 0.74834 0.32962 0.0
C928 C 0.23747 0.74899 0.32366 0.0
H929 H 0.11907 0.63897 0.3051 0.0
H930 H 0.14596 0.6703 0.30407 0.0
C931 C 0.25591 0.7653 0.31888 0.0
C932 C 0.19004 0.73078 0.33305 0.0
H933 H 0.18064 0.69255 0.36029 0.0
C934 C 0.16658 0.72535 0.32001 0.0
C935 C 0.19466 0.71905 0.34824 0.0
C936 C 0.21858 0.72454 0.36351 0.0
C937 C 0.14826 0.7082 0.32114 0.0
C938 C 0.15384 0.69607 0.33546 0.0
C939 C 0.1766 0.70179 0.34913 0.0
C940 C 0.13687 0.67722 0.33601 0.0
C941 C 0.12315 0.7032 0.30695 0.0
C942 C 0.12334 0.67061 0.35446 0.0
C943 C 0.10799 0.65267 0.35511 0.0
C944 C 0.10602 0.641 0.33735 0.0
C945 C 0.11973 0.64768 0.31893 0.0
C946 C 0.13509 0.66559 0.3183 0.0
H947 H 0.11739 0.71531 0.30166 0.0
H948 H 0.12797 0.69565 0.29286 0.0
H949 H 0.10496 0.69452 0.31488 0.0
H950 H 0.12457 0.67935 0.36833 0.0
H951 H 0.09745 0.64799 0.36948 0.0
H952 H 0.74809 0.82705 0.65659 0.0
H953 H 0.76268 0.85338 0.63543 0.0
H954 H 0.78812 0.82112 0.58619 0.0
H955 H 0.77318 0.79447 0.60723 0.0
H956 H 0.81501 0.86946 0.61827 0.0
H957 H 0.73416 0.84467 0.55676 0.0
H958 H 0.73256 0.83442 0.58172 0.0
H959 H 0.75618 0.83018 0.56197 0.0
C960 C 0.75683 0.82548 0.64128 0.0
C961 C 0.75926 0.80859 0.63355 0.0
C962 C 0.76522 0.84059 0.62923 0.0
C963 C 0.77613 0.83915 0.60916 0.0
C964 C 0.7793 0.82243 0.60152 0.0
H965 H 0.81452 0.92337 0.51744 0.0
H966 H 0.8119 0.89541 0.53516 0.0
C967 C 0.77087 0.80725 0.6136 0.0
C968 C 0.78366 0.85522 0.59631 0.0
H969 H 0.7642 0.87341 0.55303 0.0
C970 C 0.80408 0.8703 0.60391 0.0
C971 C 0.76939 0.85622 0.57756 0.0
C972 C 0.74669 0.84059 0.56902 0.0
C973 C 0.81026 0.88649 0.59346 0.0
C974 C 0.79529 0.88769 0.57514 0.0
C975 C 0.77559 0.87243 0.56712 0.0
C976 C 0.79851 0.90491 0.56476 0.0
C977 C 0.83264 0.9022 0.60219 0.0
C978 C 0.79172 0.91945 0.57552 0.0
C979 C 0.79325 0.93542 0.56549 0.0
C980 C 0.8015 0.93712 0.54445 0.0
C981 C 0.80847 0.92256 0.53374 0.0
C982 C 0.80684 0.90656 0.54379 0.0
H983 H 0.8474 0.89772 0.61228 0.0
H984 H 0.84449 0.91013 0.58947 0.0
H985 H 0.82286 0.91117 0.6119 0.0
H986 H 0.78473 0.91834 0.5916 0.0
H987 H 0.78792 0.94643 0.5742 0.0
H988 H 0.68318 0.25067 0.22894 0.0
H989 H 0.65248 0.24921 0.19878 0.0
H990 H 0.71042 0.29536 0.17397 0.0
H991 H 0.74128 0.29674 0.20367 0.0
H992 H 0.62748 0.27534 0.18737 0.0
H993 H 0.69482 0.26098 0.12319 0.0
H994 H 0.70181 0.2582 0.15031 0.0
H995 H 0.71199 0.2801 0.13944 0.0
C996 C 0.68954 0.26035 0.2169 0.0
C997 C 0.71471 0.2738 0.21869 0.0
C998 C 0.67197 0.25951 0.19971 0.0
C999 C 0.67938 0.272 0.18397 0.0
C1000 C 0.70459 0.28531 0.18565 0.0
H1001 H 0.60797 0.31092 0.08082 0.0
H1002 H 0.63614 0.30467 0.10929 0.0
C1003 C 0.72214 0.28615 0.20276 0.0
C1004 C 0.66007 0.272 0.16646 0.0
H1005 H 0.65669 0.27271 0.11324 0.0
C1006 C 0.63366 0.27446 0.17115 0.0
C1007 C 0.6682 0.27086 0.14531 0.0
C1008 C 0.69565 0.26721 0.13923 0.0
C1009 C 0.61566 0.27665 0.15528 0.0
C1010 C 0.62425 0.27618 0.1342 0.0
C1011 C 0.65028 0.27316 0.12946 0.0
C1012 C 0.60706 0.27965 0.1169 0.0
C1013 C 0.58808 0.28019 0.16117 0.0
C1014 C 0.58151 0.26754 0.11167 0.0
C1015 C 0.56533 0.2711 0.09544 0.0
C1016 C 0.57444 0.28683 0.08419 0.0
C1017 C 0.6002 0.29882 0.08938 0.0
C1018 C 0.6164 0.29522 0.10553 0.0
H1019 H 0.58664 0.28322 0.17821 0.0
H1020 H 0.58466 0.29163 0.15252 0.0
H1021 H 0.57108 0.26814 0.15685 0.0
H1022 H 0.57412 0.25536 0.12015 0.0
H1023 H 0.54551 0.26166 0.09188 0.0
H1024 H 0.27789 0.27918 0.68411 0.0
H1025 H 0.27933 0.25351 0.66082 0.0
H1026 H 0.31396 0.28939 0.61194 0.0
H1027 H 0.31302 0.31528 0.6353 0.0
H1028 H 0.25521 0.24223 0.62159 0.0
H1029 H 0.37073 0.25962 0.61772 0.0
H1030 H 0.35226 0.27009 0.63675 0.0
H1031 H 0.35498 0.27693 0.61017 0.0
C1032 C 0.2857 0.28166 0.66838 0.0
C1033 C 0.29559 0.2993 0.66163 0.0
C1034 C 0.28647 0.26695 0.65508 0.0
C1035 C 0.29719 0.26956 0.63479 0.0
C1036 C 0.30613 0.28711 0.6277 0.0
H1037 H 0.32839 0.19037 0.54202 0.0
H1038 H 0.32301 0.21816 0.55952 0.0
C1039 C 0.30542 0.30187 0.64102 0.0
C1040 C 0.29946 0.25385 0.62138 0.0
H1041 H 0.34646 0.23391 0.59801 0.0
C1042 C 0.27514 0.24044 0.61635 0.0
C1043 C 0.32551 0.25156 0.61457 0.0
C1044 C 0.35242 0.26521 0.62018 0.0
C1045 C 0.27616 0.22473 0.60478 0.0
C1046 C 0.30224 0.22227 0.59837 0.0
C1047 C 0.32651 0.23586 0.60296 0.0
C1048 C 0.30493 0.2054 0.58761 0.0
C1049 C 0.24933 0.21091 0.59946 0.0
C1050 C 0.29688 0.18908 0.59774 0.0
C1051 C 0.30011 0.17322 0.58788 0.0
C1052 C 0.31159 0.17338 0.5677 0.0
C1053 C 0.31976 0.1898 0.55764 0.0
C1054 C 0.31656 0.20567 0.56755 0.0
H1055 H 0.23122 0.21684 0.60038 0.0
H1056 H 0.25014 0.2048 0.58351 0.0
H1057 H 0.24592 0.20004 0.61077 0.0
H1058 H 0.28848 0.18866 0.61344 0.0
H1059 H 0.29409 0.16088 0.59623 0.0
H1060 H 0.39338 0.83915 0.26851 0.0
H1061 H 0.41942 0.84151 0.23581 0.0
H1062 H 0.35749 0.86258 0.20647 0.0
H1063 H 0.3309 0.85982 0.23899 0.0
H1064 H 0.36771 0.83493 0.18392 0.0
H1065 H 0.46807 0.88279 0.20558 0.0
H1066 H 0.45892 0.86435 0.22268 0.0
H1067 H 0.43754 0.87993 0.22184 0.0
C1068 C 0.38553 0.8446 0.25523 0.0
C1069 C 0.35999 0.84923 0.25635 0.0
C1070 C 0.40057 0.84606 0.23655 0.0
C1071 C 0.3906 0.85244 0.21874 0.0
C1072 C 0.36562 0.85768 0.22004 0.0
H1073 H 0.44459 0.85589 0.08837 0.0
H1074 H 0.42323 0.86144 0.12178 0.0
C1075 C 0.35045 0.8561 0.23865 0.0
C1076 C 0.40474 0.85196 0.1983 0.0
H1077 H 0.4675 0.86508 0.1737 0.0
C1078 C 0.38943 0.84173 0.18162 0.0
C1079 C 0.43312 0.86078 0.19533 0.0
C1080 C 0.45029 0.87272 0.21225 0.0
C1081 C 0.40189 0.83966 0.16226 0.0
C1082 C 0.43037 0.84814 0.15947 0.0
C1083 C 0.44566 0.85856 0.17599 0.0
C1084 C 0.44467 0.84587 0.13959 0.0
C1085 C 0.38476 0.82799 0.1451 0.0
C1086 C 0.4642 0.8356 0.13872 0.0
C1087 C 0.47643 0.83241 0.11969 0.0
C1088 C 0.4695 0.83958 0.10125 0.0
C1089 C 0.45049 0.85029 0.10233 0.0
C1090 C 0.43815 0.85338 0.12135 0.0
H1091 H 0.36444 0.81996 0.15091 0.0
H1092 H 0.38068 0.83664 0.13272 0.0
H1093 H 0.39623 0.81868 0.13786 0.0
H1094 H 0.46952 0.82974 0.15269 0.0
H1095 H 0.49128 0.8243 0.11939 0.0
H1096 H 0.74744 0.2073 0.34017 0.0
H1097 H 0.7482 0.18235 0.36242 0.0
H1098 H 0.82843 0.18084 0.33767 0.0
H1099 H 0.8279 0.20575 0.31534 0.0
H1100 H 0.75452 0.14691 0.34861 0.0
H1101 H 0.83805 0.18455 0.40287 0.0
H1102 H 0.81864 0.19563 0.3866 0.0
H1103 H 0.84573 0.18669 0.37544 0.0
C1104 C 0.76529 0.2017 0.33949 0.0
C1105 C 0.78765 0.20854 0.32602 0.0
C1106 C 0.76566 0.18744 0.35218 0.0
C1107 C 0.78849 0.17992 0.35181 0.0
C1108 C 0.81079 0.18664 0.33836 0.0
H1109 H 0.80578 0.07923 0.39749 0.0
H1110 H 0.80355 0.10467 0.3765 0.0
C1111 C 0.81037 0.20082 0.32556 0.0
C1112 C 0.78879 0.16479 0.36523 0.0
H1113 H 0.82287 0.153 0.40621 0.0
C1114 C 0.76939 0.14822 0.36124 0.0
C1115 C 0.80807 0.16665 0.38179 0.0
C1116 C 0.82871 0.18436 0.38713 0.0
C1117 C 0.76913 0.13331 0.37317 0.0
C1118 C 0.78887 0.13505 0.38939 0.0
C1119 C 0.8079 0.15172 0.39365 0.0
C1120 C 0.79013 0.11967 0.40208 0.0
C1121 C 0.74765 0.11582 0.36847 0.0
C1122 C 0.78373 0.11985 0.42346 0.0
C1123 C 0.78501 0.10536 0.43549 0.0
C1124 C 0.79305 0.09054 0.42638 0.0
C1125 C 0.79971 0.09051 0.40498 0.0
C1126 C 0.79823 0.10495 0.39294 0.0
H1127 H 0.73048 0.1177 0.35856 0.0
H1128 H 0.75769 0.10631 0.36 0.0
H1129 H 0.73871 0.10961 0.38316 0.0
H1130 H 0.7776 0.13117 0.4308 0.0
H1131 H 0.78008 0.10586 0.45199 0.0
H1132 H 0.27751 0.34945 0.77983 0.0
H1133 H 0.29519 0.3477 0.81503 0.0
H1134 H 0.37932 0.36473 0.79231 0.0
H1135 H 0.36195 0.36673 0.75724 0.0
H1136 H 0.32701 0.32484 0.82472 0.0
H1137 H 0.38331 0.39501 0.8465 0.0
H1138 H 0.35817 0.38938 0.82548 0.0
H1139 H 0.39324 0.38773 0.82126 0.0
C1140 C 0.29977 0.3532 0.7824 0.0
C1141 C 0.31831 0.35816 0.76567 0.0
C1142 C 0.30983 0.35216 0.80253 0.0
C1143 C 0.33857 0.35625 0.80634 0.0
C1144 C 0.35708 0.36187 0.78985 0.0
H1145 H 0.43376 0.31431 0.89181 0.0
H1146 H 0.4085 0.32197 0.86252 0.0
C1147 C 0.34708 0.36288 0.76974 0.0
C1148 C 0.34929 0.35283 0.82688 0.0
H1149 H 0.39553 0.37193 0.86567 0.0
C1150 C 0.34167 0.3352 0.83384 0.0
C1151 C 0.36822 0.36637 0.83886 0.0
C1152 C 0.37601 0.38572 0.83277 0.0
C1153 C 0.35344 0.33058 0.85194 0.0
C1154 C 0.37364 0.34389 0.86319 0.0
C1155 C 0.38029 0.3617 0.85684 0.0
C1156 C 0.38888 0.33937 0.88108 0.0
C1157 C 0.34438 0.31144 0.85874 0.0
C1158 C 0.38668 0.34693 0.90114 0.0
C1159 C 0.40102 0.34251 0.91798 0.0
C1160 C 0.41798 0.33054 0.915 0.0
C1161 C 0.42043 0.32325 0.89476 0.0
C1162 C 0.40606 0.32764 0.87798 0.0
H1163 H 0.32378 0.30427 0.85206 0.0
H1164 H 0.35976 0.30412 0.85319 0.0
H1165 H 0.34324 0.31097 0.87605 0.0
H1166 H 0.37359 0.35607 0.90381 0.0
H1167 H 0.39848 0.34825 0.93339 0.0
H1168 H 0.29709 0.88949 0.34409 0.0
H1169 H 0.29977 0.9171 0.3652 0.0
H1170 H 0.36367 0.90577 0.40339 0.0
H1171 H 0.36159 0.87834 0.38206 0.0
H1172 H 0.29007 0.92158 0.40658 0.0
H1173 H 0.3989 0.95713 0.38806 0.0
H1174 H 0.3801 0.93715 0.37356 0.0
H1175 H 0.39544 0.9354 0.39847 0.0
C1176 C 0.31181 0.89291 0.35692 0.0
C1177 C 0.32924 0.88177 0.36133 0.0
C1178 C 0.3133 0.90869 0.36898 0.0
C1179 C 0.33222 0.91365 0.38566 0.0
C1180 C 0.34938 0.90244 0.39028 0.0
H1181 H 0.32193 0.99249 0.48534 0.0
H1182 H 0.32175 0.96491 0.46479 0.0
C1183 C 0.34804 0.8867 0.37815 0.0
C1184 C 0.33341 0.93034 0.3985 0.0
H1185 H 0.37683 0.97046 0.41508 0.0
C1186 C 0.30902 0.93229 0.40841 0.0
C1187 C 0.35808 0.94439 0.40066 0.0
C1188 C 0.38456 0.94354 0.38947 0.0
C1189 C 0.30865 0.94783 0.42055 0.0
C1190 C 0.33353 0.96164 0.42324 0.0
C1191 C 0.35786 0.95977 0.41318 0.0
C1192 C 0.33455 0.97835 0.43597 0.0
C1193 C 0.28146 0.94949 0.42994 0.0
C1194 C 0.34273 0.99512 0.42678 0.0
C1195 C 0.34308 0.01089 0.43853 0.0
C1196 C 0.33525 0.0102 0.4597 0.0
C1197 C 0.32761 0.99341 0.46897 0.0
C1198 C 0.32744 0.97765 0.45725 0.0
H1199 H 0.26335 0.94023 0.42184 0.0
H1200 H 0.28072 0.94596 0.4466 0.0
H1201 H 0.27933 0.96344 0.42922 0.0
H1202 H 0.34838 0.99597 0.4104 0.0
H1203 H 0.34886 0.0236 0.4309 0.0
H1204 H 0.72181 0.8044 0.76272 0.0
H1205 H 0.69605 0.80587 0.79507 0.0
H1206 H 0.63472 0.75749 0.77541 0.0
H1207 H 0.66051 0.75581 0.74289 0.0
H1208 H 0.63977 0.80831 0.79651 0.0
H1209 H 0.65402 0.74849 0.83637 0.0
H1210 H 0.67627 0.75857 0.81533 0.0
H1211 H 0.64189 0.74483 0.80975 0.0
C1212 C 0.70302 0.79393 0.76532 0.0
C1213 C 0.69319 0.78 0.75019 0.0
C1214 C 0.68832 0.79481 0.78382 0.0
C1215 C 0.66361 0.78174 0.78766 0.0
C1216 C 0.65397 0.76757 0.77285 0.0
H1217 H 0.54973 0.77492 0.8938 0.0
H1218 H 0.57153 0.76903 0.86067 0.0
C1219 C 0.66869 0.76667 0.75426 0.0
C1220 C 0.64726 0.78368 0.80664 0.0
H1221 H 0.62558 0.765 0.85327 0.0
C1222 C 0.6366 0.79883 0.80892 0.0
C1223 C 0.64299 0.77119 0.82265 0.0
C1224 C 0.65451 0.75489 0.8211 0.0
C1225 C 0.62197 0.80193 0.82691 0.0
C1226 C 0.61842 0.78975 0.84322 0.0
C1227 C 0.62845 0.77434 0.84074 0.0
C1228 C 0.6053 0.79317 0.8633 0.0
C1229 C 0.61032 0.81819 0.82823 0.0
C1230 C 0.61733 0.80854 0.87586 0.0
C1231 C 0.60502 0.81192 0.89476 0.0
C1232 C 0.5805 0.79991 0.90155 0.0
C1233 C 0.56871 0.78436 0.88907 0.0
C1234 C 0.58106 0.78101 0.87012 0.0
H1235 H 0.60779 0.82311 0.81248 0.0
H1236 H 0.58985 0.81515 0.83624 0.0
H1237 H 0.62485 0.82922 0.83732 0.0
H1238 H 0.63641 0.81788 0.87111 0.0
H1239 H 0.61495 0.82381 0.9042 0.0
loop_
_geom_bond_atom_site_label_1
_geom_bond_atom_site_label_2
_geom_bond_distance
_geom_bond_site_symmetry_2
_ccdc_geom_bond_type
O0 Cd1 2.300 . S
O0 C7 1.275 . S
Cd1 O0 2.300 . S
Cd1 O9 2.381 . S
Cd1 O10 2.378 . S
O2 Cd3 2.385 . S
O2 C7 1.255 . S
Cd3 O2 2.385 . S
Cd3 O4 2.317 . S
O4 Cd3 2.317 . S
O4 C5 1.232 . S
C5 O4 1.232 . S
C5 O6 1.218 . S
O6 C5 1.218 . S
C7 O0 1.275 . S
C7 O2 1.255 . S
C8 O9 1.258 . S
C8 O10 1.256 . S
O9 Cd1 2.381 . S
O9 C8 1.258 . S
O10 Cd1 2.378 . S
O10 C8 1.256 . S
O11 Cd12 2.300 . S
O11 C18 1.275 . S
Cd12 O11 2.300 . S
Cd12 O20 2.381 . S
Cd12 O21 2.378 . S
O13 Cd14 2.385 . S
O13 C18 1.255 . S
Cd14 O13 2.385 . S
Cd14 O15 2.317 . S
O15 Cd14 2.317 . S
O15 C16 1.232 . S
C16 O15 1.232 . S
C16 O17 1.218 . S
O17 C16 1.218 . S
C18 O11 1.275 . S
C18 O13 1.255 . S
C19 O20 1.258 . S
C19 O21 1.256 . S
O20 Cd12 2.381 . S
O20 C19 1.258 . S
O21 Cd12 2.378 . S
O21 C19 1.256 . S
O22 Cd23 2.300 . S
O22 C29 1.275 . S
Cd23 O22 2.300 . S
Cd23 O31 2.381 . S
Cd23 O32 2.378 . S
O24 Cd25 2.385 . S
O24 C29 1.255 . S
Cd25 O24 2.385 . S
Cd25 O26 2.317 . S
O26 Cd25 2.317 . S
O26 C27 1.232 . S
C27 O26 1.232 . S
C27 O28 1.218 . S
O28 C27 1.218 . S
C29 O22 1.275 . S
C29 O24 1.255 . S
C30 O31 1.258 . S
C30 O32 1.256 . S
O31 Cd23 2.381 . S
O31 C30 1.258 . S
O32 Cd23 2.378 . S
O32 C30 1.256 . S
O33 Cd34 2.300 . S
O33 C40 1.275 . S
Cd34 O33 2.300 . S
Cd34 O42 2.381 . S
Cd34 O43 2.378 . S
O35 Cd36 2.385 . S
O35 C40 1.255 . S
Cd36 O35 2.385 . S
Cd36 O37 2.317 . S
O37 Cd36 2.317 . S
O37 C38 1.232 . S
C38 O37 1.232 . S
C38 O39 1.218 . S
O39 C38 1.218 . S
C40 O33 1.275 . S
C40 O35 1.255 . S
C41 O42 1.258 . S
C41 O43 1.256 . S
O42 Cd34 2.381 . S
O42 C41 1.258 . S
O43 Cd34 2.378 . S
O43 C41 1.256 . S
O44 Cd45 2.300 . S
O44 C51 1.275 . S
Cd45 O44 2.300 . S
Cd45 O53 2.381 . S
Cd45 O54 2.378 . S
O46 Cd47 2.385 . S
O46 C51 1.255 . S
Cd47 O46 2.385 . S
Cd47 O48 2.317 . S
O48 Cd47 2.317 . S
O48 C49 1.232 . S
C49 O48 1.232 . S
C49 O50 1.218 . S
O50 C49 1.218 . S
C51 O44 1.275 . S
C51 O46 1.255 . S
C52 O53 1.258 . S
C52 O54 1.256 . S
O53 Cd45 2.381 . S
O53 C52 1.258 . S
O54 Cd45 2.378 . S
O54 C52 1.256 . S
O55 Cd56 2.300 . S
O55 C62 1.275 . S
Cd56 O55 2.300 . S
Cd56 O64 2.381 . S
Cd56 O65 2.378 . S
O57 Cd58 2.385 . S
O57 C62 1.255 . S
Cd58 O57 2.385 . S
Cd58 O59 2.317 . S
O59 Cd58 2.317 . S
O59 C60 1.232 . S
C60 O59 1.232 . S
C60 O61 1.218 . S
O61 C60 1.218 . S
C62 O55 1.275 . S
C62 O57 1.255 . S
C63 O64 1.258 . S
C63 O65 1.256 . S
O64 Cd56 2.381 . S
O64 C63 1.258 . S
O65 Cd56 2.378 . S
O65 C63 1.256 . S
O66 Cd67 2.300 . S
O66 C73 1.275 . S
Cd67 O66 2.300 . S
Cd67 O75 2.381 . S
Cd67 O76 2.378 . S
O68 Cd69 2.385 . S
O68 C73 1.255 . S
Cd69 O68 2.385 . S
Cd69 O70 2.317 . S
O70 Cd69 2.317 . S
O70 C71 1.232 . S
C71 O70 1.232 . S
C71 O72 1.218 . S
O72 C71 1.218 . S
C73 O66 1.275 . S
C73 O68 1.255 . S
C74 O75 1.258 . S
C74 O76 1.256 . S
O75 Cd67 2.381 . S
O75 C74 1.258 . S
O76 Cd67 2.378 . S
O76 C74 1.256 . S
O77 Cd78 2.300 . S
O77 C84 1.275 . S
Cd78 O77 2.300 . S
Cd78 O86 2.381 . S
Cd78 O87 2.378 . S
O79 Cd80 2.385 . S
O79 C84 1.255 . S
Cd80 O79 2.385 . S
Cd80 O81 2.317 . S
O81 Cd80 2.317 . S
O81 C82 1.232 . S
C82 O81 1.232 . S
C82 O83 1.218 . S
O83 C82 1.218 . S
C84 O77 1.275 . S
C84 O79 1.255 . S
C85 O86 1.258 . S
C85 O87 1.256 . S
O86 Cd78 2.381 . S
O86 C85 1.258 . S
O87 Cd78 2.378 . S
O87 C85 1.256 . S
H88 C107 0.945 . S
H89 C108 0.950 . S
H90 C110 0.950 . S
H91 C111 0.950 . S
H92 C113 0.950 1_655 S
H93 C116 0.950 . S
H94 C117 0.950 . S
H95 C119 0.951 . S
H96 C120 0.949 . S
H97 C122 0.949 . S
H98 C123 0.950 . S
H99 C125 0.950 . S
H100 C126 0.950 . S
H101 C128 0.950 . S
H102 C131 0.950 . S
H103 C132 0.948 . S
H104 C134 0.951 . S
H105 C135 0.949 . S
C106 C107 1.376 1_455 S
C106 C111 1.386 . S
C106 C112 1.483 . S
C107 H88 0.945 . S
C107 C106 1.376 1_655 S
C107 C108 1.397 . S
C108 H89 0.950 . S
C108 C107 1.397 . S
C108 C109 1.391 . S
C109 C108 1.391 . S
C109 C110 1.405 . S
C110 H90 0.950 . S
C110 C109 1.405 . S
C110 C111 1.367 1_655 S
C111 H91 0.950 . S
C111 C106 1.386 . S
C111 C110 1.367 1_455 S
C112 C106 1.483 . S
C112 C113 1.382 . S
C112 C114 1.403 . S
C113 H92 0.950 1_455 S
C113 C112 1.382 . S
C113 C129 1.411 . S
C114 C112 1.403 . S
C114 C115 1.489 . S
C114 C128 1.411 . S
C115 C114 1.489 . S
C115 C116 1.383 . S
C115 C120 1.382 . S
C116 H93 0.950 . S
C116 C115 1.383 . S
C116 C117 1.395 . S
C117 H94 0.950 . S
C117 C116 1.395 . S
C117 C118 1.288 . S
C118 C117 1.288 . S
C118 C119 1.392 . S
C119 H95 0.951 . S
C119 C118 1.392 . S
C119 C120 1.392 . S
C120 H96 0.949 . S
C120 C115 1.382 . S
C120 C119 1.392 . S
C121 C122 1.376 . S
C121 C126 1.386 . S
C121 C127 1.483 . S
C122 H97 0.949 . S
C122 C121 1.376 . S
C122 C123 1.397 . S
C123 H98 0.950 . S
C123 C122 1.397 . S
C123 C124 1.391 . S
C124 C123 1.391 . S
C124 C125 1.405 . S
C125 H99 0.950 . S
C125 C124 1.405 . S
C125 C126 1.367 . S
C126 H100 0.950 . S
C126 C121 1.386 . S
C126 C125 1.367 . S
C127 C121 1.483 . S
C127 C128 1.382 . S
C127 C129 1.403 . S
C128 H101 0.950 . S
C128 C114 1.411 . S
C128 C127 1.382 . S
C129 C113 1.411 . S
C129 C127 1.403 . S
C129 C130 1.489 . S
C130 C129 1.489 . S
C130 C131 1.383 . S
C130 C135 1.382 1_455 S
C131 H102 0.950 . S
C131 C130 1.383 . S
C131 C132 1.395 1_455 S
C132 H103 0.948 . S
C132 C131 1.395 1_655 S
C132 C133 1.288 . S
C133 C132 1.288 . S
C133 C134 1.392 . S
C134 H104 0.951 . S
C134 C133 1.392 . S
C134 C135 1.392 . S
C135 H105 0.949 . S
C135 C130 1.382 1_655 S
C135 C134 1.392 . S
H136 C155 0.949 . S
H137 C156 0.950 . S
H138 C158 0.950 . S
H139 C159 0.950 . S
H140 C161 0.950 . S
H141 C164 0.950 . S
H142 C165 0.950 . S
H143 C167 0.951 . S
H144 C168 0.949 . S
H145 C170 0.949 . S
H146 C171 0.950 . S
H147 C173 0.950 . S
H148 C174 0.950 . S
H149 C176 0.950 . S
H150 C179 0.950 . S
H151 C180 0.950 . S
H152 C182 0.951 . S
H153 C183 0.949 . S
C154 C155 1.376 . S
C154 C159 1.386 . S
C154 C160 1.483 . S
C155 H136 0.949 . S
C155 C154 1.376 . S
C155 C156 1.397 . S
C156 H137 0.950 . S
C156 C155 1.397 . S
C156 C157 1.391 . S
C157 C156 1.391 . S
C157 C158 1.405 . S
C158 H138 0.950 . S
C158 C157 1.405 . S
C158 C159 1.367 . S
C159 H139 0.950 . S
C159 C154 1.386 . S
C159 C158 1.367 . S
C160 C154 1.483 . S
C160 C161 1.382 . S
C160 C162 1.403 1_455 S
C161 H140 0.950 . S
C161 C160 1.382 . S
C161 C177 1.411 . S
C162 C160 1.403 1_655 S
C162 C163 1.489 . S
C162 C176 1.411 . S
C163 C162 1.489 . S
C163 C164 1.383 . S
C163 C168 1.382 . S
C164 H141 0.950 . S
C164 C163 1.383 . S
C164 C165 1.395 . S
C165 H142 0.950 . S
C165 C164 1.395 . S
C165 C166 1.288 . S
C166 C165 1.288 . S
C166 C167 1.392 . S
C167 H143 0.951 . S
C167 C166 1.392 . S
C167 C168 1.392 . S
C168 H144 0.949 . S
C168 C163 1.382 . S
C168 C167 1.392 . S
C169 C170 1.376 . S
C169 C174 1.386 . S
C169 C175 1.483 . S
C170 H145 0.949 . S
C170 C169 1.376 . S
C170 C171 1.397 . S
C171 H146 0.950 . S
C171 C170 1.397 . S
C171 C172 1.391 . S
C172 C171 1.391 . S
C172 C173 1.405 . S
C173 H147 0.950 . S
C173 C172 1.405 . S
C173 C174 1.367 . S
C174 H148 0.950 . S
C174 C169 1.386 . S
C174 C173 1.367 . S
C175 C169 1.483 . S
C175 C176 1.382 . S
C175 C177 1.403 1_655 S
C176 H149 0.950 . S
C176 C162 1.411 . S
C176 C175 1.382 . S
C177 C161 1.411 . S
C177 C175 1.403 1_455 S
C177 C178 1.489 . S
C178 C177 1.489 . S
C178 C179 1.383 . S
C178 C183 1.382 . S
C179 H150 0.950 . S
C179 C178 1.383 . S
C179 C180 1.395 . S
C180 H151 0.950 . S
C180 C179 1.395 . S
C180 C181 1.288 . S
C181 C180 1.288 . S
C181 C182 1.392 . S
C182 H152 0.951 . S
C182 C181 1.392 . S
C182 C183 1.392 . S
C183 H153 0.949 . S
C183 C178 1.382 . S
C183 C182 1.392 . S
H184 C203 0.949 . S
H185 C204 0.950 . S
H186 C206 0.950 . S
H187 C207 0.950 . S
H188 C209 0.950 . S
H189 C212 0.950 . S
H190 C213 0.950 . S
H191 C215 0.951 . S
H192 C216 0.949 . S
H193 C218 0.949 . S
H194 C219 0.950 . S
H195 C221 0.950 . S
H196 C222 0.950 . S
H197 C224 0.950 . S
H198 C227 0.950 . S
H199 C228 0.950 . S
H200 C230 0.951 . S
H201 C231 0.949 . S
C202 C203 1.376 . S
C202 C207 1.386 . S
C202 C208 1.483 . S
C203 H184 0.949 . S
C203 C202 1.376 . S
C203 C204 1.397 . S
C204 H185 0.950 . S
C204 C203 1.397 . S
C204 C205 1.391 . S
C205 C204 1.391 . S
C205 C206 1.405 . S
C206 H186 0.950 . S
C206 C205 1.405 . S
C206 C207 1.367 . S
C207 H187 0.950 . S
C207 C202 1.386 . S
C207 C206 1.367 . S
C208 C202 1.483 . S
C208 C209 1.382 . S
C208 C210 1.403 . S
C209 H188 0.950 . S
C209 C208 1.382 . S
C209 C225 1.411 . S
C210 C208 1.403 . S
C210 C211 1.489 . S
C210 C224 1.411 . S
C211 C210 1.489 . S
C211 C212 1.383 . S
C211 C216 1.382 . S
C212 H189 0.950 . S
C212 C211 1.383 . S
C212 C213 1.395 . S
C213 H190 0.950 . S
C213 C212 1.395 . S
C213 C214 1.288 . S
C214 C213 1.288 . S
C214 C215 1.392 . S
C215 H191 0.951 . S
C215 C214 1.392 . S
C215 C216 1.392 . S
C216 H192 0.949 . S
C216 C211 1.382 . S
C216 C215 1.392 . S
C217 C218 1.376 . S
C217 C222 1.386 . S
C217 C223 1.483 . S
C218 H193 0.949 . S
C218 C217 1.376 . S
C218 C219 1.397 . S
C219 H194 0.950 . S
C219 C218 1.397 . S
C219 C220 1.391 . S
C220 C219 1.391 . S
C220 C221 1.405 . S
C221 H195 0.950 . S
C221 C220 1.405 . S
C221 C222 1.367 . S
C222 H196 0.950 . S
C222 C217 1.386 . S
C222 C221 1.367 . S
C223 C217 1.483 . S
C223 C224 1.382 . S
C223 C225 1.403 . S
C224 H197 0.950 . S
C224 C210 1.411 . S
C224 C223 1.382 . S
C225 C209 1.411 . S
C225 C223 1.403 . S
C225 C226 1.489 . S
C226 C225 1.489 . S
C226 C227 1.383 . S
C226 C231 1.382 . S
C227 H198 0.950 . S
C227 C226 1.383 . S
C227 C228 1.395 . S
C228 H199 0.950 . S
C228 C227 1.395 . S
C228 C229 1.288 . S
C229 C228 1.288 . S
C229 C230 1.392 . S
C230 H200 0.951 . S
C230 C229 1.392 . S
C230 C231 1.392 . S
C231 H201 0.949 . S
C231 C226 1.382 . S
C231 C230 1.392 . S
H232 C251 0.949 . S
H233 C252 0.950 . S
H234 C254 0.950 . S
H235 C255 0.950 . S
H236 C257 0.950 . S
H237 C260 0.950 . S
H238 C261 0.950 . S
H239 C263 0.951 . S
H240 C264 0.949 . S
H241 C266 0.949 . S
H242 C267 0.950 . S
H243 C269 0.950 . S
H244 C270 0.950 . S
H245 C272 0.950 . S
H246 C275 0.950 . S
H247 C276 0.950 . S
H248 C278 0.951 . S
H249 C279 0.949 . S
C250 C251 1.376 . S
C250 C255 1.386 . S
C250 C256 1.483 . S
C251 H232 0.949 . S
C251 C250 1.376 . S
C251 C252 1.397 . S
C252 H233 0.950 . S
C252 C251 1.397 . S
C252 C253 1.391 . S
C253 C252 1.391 . S
C253 C254 1.405 . S
C254 H234 0.950 . S
C254 C253 1.405 . S
C254 C255 1.367 . S
C255 H235 0.950 . S
C255 C250 1.386 . S
C255 C254 1.367 . S
C256 C250 1.483 . S
C256 C257 1.382 1_556 S
C256 C258 1.403 . S
C257 H236 0.950 . S
C257 C256 1.382 1_554 S
C257 C273 1.411 . S
C258 C256 1.403 . S
C258 C259 1.489 . S
C258 C272 1.411 1_556 S
C259 C258 1.489 . S
C259 C260 1.383 . S
C259 C264 1.382 . S
C260 H237 0.950 . S
C260 C259 1.383 . S
C260 C261 1.395 . S
C261 H238 0.950 . S
C261 C260 1.395 . S
C261 C262 1.288 . S
C262 C261 1.288 . S
C262 C263 1.392 . S
C263 H239 0.951 . S
C263 C262 1.392 . S
C263 C264 1.392 . S
C264 H240 0.949 . S
C264 C259 1.382 . S
C264 C263 1.392 . S
C265 C266 1.376 . S
C265 C270 1.386 . S
C265 C271 1.483 . S
C266 H241 0.949 . S
C266 C265 1.376 . S
C266 C267 1.397 . S
C267 H242 0.950 . S
C267 C266 1.397 . S
C267 C268 1.391 . S
C268 C267 1.391 . S
C268 C269 1.405 . S
C269 H243 0.950 . S
C269 C268 1.405 . S
C269 C270 1.367 . S
C270 H244 0.950 . S
C270 C265 1.386 . S
C270 C269 1.367 . S
C271 C265 1.483 . S
C271 C272 1.382 . S
C271 C273 1.403 . S
C272 H245 0.950 . S
C272 C258 1.411 1_554 S
C272 C271 1.382 . S
C273 C257 1.411 . S
C273 C271 1.403 . S
C273 C274 1.489 . S
C274 C273 1.489 . S
C274 C275 1.383 . S
C274 C279 1.382 . S
C275 H246 0.950 . S
C275 C274 1.383 . S
C275 C276 1.395 . S
C276 H247 0.950 . S
C276 C275 1.395 . S
C276 C277 1.288 . S
C277 C276 1.288 . S
C277 C278 1.392 . S
C278 H248 0.951 . S
C278 C277 1.392 . S
C278 C279 1.392 . S
C279 H249 0.949 . S
C279 C274 1.382 . S
C279 C278 1.392 . S
H280 C299 0.949 . S
H281 C300 0.950 . S
H282 C302 0.950 . S
H283 C303 0.950 . S
H284 C305 0.950 . S
H285 C308 0.950 . S
H286 C309 0.950 . S
H287 C311 0.951 . S
H288 C312 0.949 . S
H289 C314 0.949 . S
H290 C315 0.950 . S
H291 C317 0.950 . S
H292 C318 0.950 . S
H293 C320 0.950 . S
H294 C323 0.950 . S
H295 C324 0.950 . S
H296 C326 0.951 . S
H297 C327 0.949 . S
C298 C299 1.376 . S
C298 C303 1.386 . S
C298 C304 1.483 . S
C299 H280 0.949 . S
C299 C298 1.376 . S
C299 C300 1.397 . S
C300 H281 0.950 . S
C300 C299 1.397 . S
C300 C301 1.391 . S
C301 C300 1.391 . S
C301 C302 1.405 . S
C302 H282 0.950 . S
C302 C301 1.405 . S
C302 C303 1.367 . S
C303 H283 0.950 . S
C303 C298 1.386 . S
C303 C302 1.367 . S
C304 C298 1.483 . S
C304 C305 1.382 1_565 S
C304 C306 1.403 . S
C305 H284 0.950 . S
C305 C304 1.382 1_545 S
C305 C321 1.411 . S
C306 C304 1.403 . S
C306 C307 1.489 . S
C306 C320 1.411 1_565 S
C307 C306 1.489 . S
C307 C308 1.383 . S
C307 C312 1.382 . S
C308 H285 0.950 . S
C308 C307 1.383 . S
C308 C309 1.395 . S
C309 H286 0.950 . S
C309 C308 1.395 . S
C309 C310 1.288 . S
C310 C309 1.288 . S
C310 C311 1.392 . S
C311 H287 0.951 . S
C311 C310 1.392 . S
C311 C312 1.392 . S
C312 H288 0.949 . S
C312 C307 1.382 . S
C312 C311 1.392 . S
C313 C314 1.376 . S
C313 C318 1.386 . S
C313 C319 1.483 . S
C314 H289 0.949 . S
C314 C313 1.376 . S
C314 C315 1.397 . S
C315 H290 0.950 . S
C315 C314 1.397 . S
C315 C316 1.391 . S
C316 C315 1.391 . S
C316 C317 1.405 . S
C317 H291 0.950 . S
C317 C316 1.405 . S
C317 C318 1.367 . S
C318 H292 0.950 . S
C318 C313 1.386 . S
C318 C317 1.367 . S
C319 C313 1.483 . S
C319 C320 1.382 . S
C319 C321 1.403 . S
C320 H293 0.950 . S
C320 C306 1.411 1_545 S
C320 C319 1.382 . S
C321 C305 1.411 . S
C321 C319 1.403 . S
C321 C322 1.489 . S
C322 C321 1.489 . S
C322 C323 1.383 . S
C322 C327 1.382 . S
C323 H294 0.950 . S
C323 C322 1.383 . S
C323 C324 1.395 . S
C324 H295 0.950 . S
C324 C323 1.395 . S
C324 C325 1.288 . S
C325 C324 1.288 . S
C325 C326 1.392 . S
C326 H296 0.951 . S
C326 C325 1.392 . S
C326 C327 1.392 . S
C327 H297 0.949 . S
C327 C322 1.382 . S
C327 C326 1.392 . S
H328 C347 0.949 . S
H329 C348 0.950 . S
H330 C350 0.950 . S
H331 C351 0.950 . S
H332 C353 0.950 . S
H333 C356 0.950 . S
H334 C357 0.950 . S
H335 C359 0.951 . S
H336 C360 0.949 . S
H337 C362 0.949 . S
H338 C363 0.950 . S
H339 C365 0.950 . S
H340 C366 0.950 . S
H341 C368 0.950 . S
H342 C371 0.950 . S
H343 C372 0.950 . S
H344 C374 0.951 . S
H345 C375 0.949 . S
C346 C347 1.376 . S
C346 C351 1.386 . S
C346 C352 1.483 . S
C347 H328 0.949 . S
C347 C346 1.376 . S
C347 C348 1.397 . S
C348 H329 0.950 . S
C348 C347 1.397 . S
C348 C349 1.391 . S
C349 C348 1.391 . S
C349 C350 1.405 . S
C350 H330 0.950 . S
C350 C349 1.405 . S
C350 C351 1.367 . S
C351 H331 0.950 . S
C351 C346 1.386 . S
C351 C350 1.367 . S
C352 C346 1.483 . S
C352 C353 1.382 1_556 S
C352 C354 1.403 . S
C353 H332 0.950 . S
C353 C352 1.382 1_554 S
C353 C369 1.411 . S
C354 C352 1.403 . S
C354 C355 1.489 . S
C354 C368 1.411 1_556 S
C355 C354 1.489 . S
C355 C356 1.383 . S
C355 C360 1.382 . S
C356 H333 0.950 . S
C356 C355 1.383 . S
C356 C357 1.395 . S
C357 H334 0.950 . S
C357 C356 1.395 . S
C357 C358 1.288 . S
C358 C357 1.288 . S
C358 C359 1.392 . S
C359 H335 0.951 . S
C359 C358 1.392 . S
C359 C360 1.392 . S
C360 H336 0.949 . S
C360 C355 1.382 . S
C360 C359 1.392 . S
C361 C362 1.376 . S
C361 C366 1.386 . S
C361 C367 1.483 . S
C362 H337 0.949 . S
C362 C361 1.376 . S
C362 C363 1.397 . S
C363 H338 0.950 . S
C363 C362 1.397 . S
C363 C364 1.391 . S
C364 C363 1.391 . S
C364 C365 1.405 . S
C365 H339 0.950 . S
C365 C364 1.405 . S
C365 C366 1.367 . S
C366 H340 0.950 . S
C366 C361 1.386 . S
C366 C365 1.367 . S
C367 C361 1.483 . S
C367 C368 1.382 . S
C367 C369 1.403 . S
C368 H341 0.950 . S
C368 C354 1.411 1_554 S
C368 C367 1.382 . S
C369 C353 1.411 . S
C369 C367 1.403 . S
C369 C370 1.489 . S
C370 C369 1.489 . S
C370 C371 1.383 . S
C370 C375 1.382 . S
C371 H342 0.950 . S
C371 C370 1.383 . S
C371 C372 1.395 . S
C372 H343 0.950 . S
C372 C371 1.395 . S
C372 C373 1.288 . S
C373 C372 1.288 . S
C373 C374 1.392 . S
C374 H344 0.951 . S
C374 C373 1.392 . S
C374 C375 1.392 . S
C375 H345 0.949 . S
C375 C370 1.382 . S
C375 C374 1.392 . S
H376 C384 0.929 . S
H377 C386 0.930 . S
H378 C388 0.930 . S
H379 C391 0.929 . S
H380 C394 0.930 . S
H381 C396 0.960 . S
H382 C396 0.960 . S
H383 C396 0.960 . S
C384 H376 0.929 . S
C384 C385 1.377 . S
C384 C386 1.384 . S
C385 C384 1.377 . S
C385 C391 1.390 . S
C386 H377 0.930 . S
C386 C384 1.384 . S
C386 C387 1.372 . S
C387 C386 1.372 . S
C387 C388 1.400 . S
C387 C392 1.490 . S
C388 H378 0.930 . S
C388 C387 1.400 . S
C388 C391 1.386 . S
H389 C405 0.930 . S
H390 C406 0.931 . S
C391 H379 0.929 . S
C391 C385 1.390 . S
C391 C388 1.386 . S
C392 C387 1.490 . S
C392 C394 1.395 . S
C392 C395 1.403 . S
H393 C399 0.930 . S
C394 H380 0.930 . S
C394 C392 1.395 . S
C394 C397 1.403 . S
C395 C392 1.403 . S
C395 C396 1.524 . S
C395 C399 1.400 . S
C396 H381 0.960 . S
C396 H382 0.960 . S
C396 H383 0.960 . S
C396 C395 1.524 . S
C397 C394 1.403 . S
C397 C398 1.392 . S
C397 C401 1.495 . S
C398 C397 1.392 . S
C398 C399 1.385 . S
C398 C400 1.478 . S
C399 H393 0.930 . S
C399 C395 1.400 . S
C399 C398 1.385 . S
C400 C398 1.478 . S
C400 C402 1.381 . S
C400 C406 1.383 . S
C401 C397 1.495 . S
C401 H407 0.959 . S
C401 H408 0.961 . S
C401 H409 0.960 . S
C402 C400 1.381 . S
C402 C403 1.394 . S
C402 H410 0.930 . S
C403 C402 1.394 . S
C403 C404 1.383 . S
C403 H411 0.929 . S
C404 C403 1.383 . S
C404 C405 1.377 . S
C405 H389 0.930 . S
C405 C404 1.377 . S
C405 C406 1.379 . S
C406 H390 0.931 . S
C406 C400 1.383 . S
C406 C405 1.379 . S
H407 C401 0.959 . S
H408 C401 0.961 . S
H409 C401 0.960 . S
H410 C402 0.930 . S
H411 C403 0.929 . S
H412 C420 0.929 . S
H413 C422 0.930 . S
H414 C424 0.930 . S
H415 C427 0.929 . S
H416 C430 0.930 . S
H417 C432 0.960 . S
H418 C432 0.960 . S
H419 C432 0.960 . S
C420 H412 0.929 . S
C420 C421 1.377 . S
C420 C422 1.384 . S
C421 C420 1.377 . S
C421 C427 1.390 . S
C422 H413 0.930 . S
C422 C420 1.384 . S
C422 C423 1.372 . S
C423 C422 1.372 . S
C423 C424 1.400 . S
C423 C428 1.490 . S
C424 H414 0.930 . S
C424 C423 1.400 . S
C424 C427 1.386 . S
H425 C441 0.930 . S
H426 C442 0.931 . S
C427 H415 0.929 . S
C427 C421 1.390 . S
C427 C424 1.386 . S
C428 C423 1.490 . S
C428 C430 1.395 . S
C428 C431 1.403 . S
H429 C435 0.930 . S
C430 H416 0.930 . S
C430 C428 1.395 . S
C430 C433 1.403 . S
C431 C428 1.403 . S
C431 C432 1.524 . S
C431 C435 1.400 . S
C432 H417 0.960 . S
C432 H418 0.960 . S
C432 H419 0.960 . S
C432 C431 1.524 . S
C433 C430 1.403 . S
C433 C434 1.392 . S
C433 C437 1.495 . S
C434 C433 1.392 . S
C434 C435 1.385 . S
C434 C436 1.478 . S
C435 H429 0.930 . S
C435 C431 1.400 . S
C435 C434 1.385 . S
C436 C434 1.478 . S
C436 C438 1.381 . S
C436 C442 1.383 . S
C437 C433 1.495 . S
C437 H443 0.959 . S
C437 H444 0.961 . S
C437 H445 0.960 . S
C438 C436 1.381 . S
C438 C439 1.394 . S
C438 H446 0.930 . S
C439 C438 1.394 . S
C439 C440 1.383 . S
C439 H447 0.929 . S
C440 C439 1.383 . S
C440 C441 1.377 . S
C441 H425 0.930 . S
C441 C440 1.377 . S
C441 C442 1.379 . S
C442 H426 0.931 . S
C442 C436 1.383 . S
C442 C441 1.379 . S
H443 C437 0.959 . S
H444 C437 0.961 . S
H445 C437 0.960 . S
H446 C438 0.930 . S
H447 C439 0.929 . S
H448 C456 0.929 . S
H449 C458 0.930 . S
H450 C460 0.930 . S
H451 C463 0.929 . S
H452 C466 0.930 . S
H453 C468 0.960 . S
H454 C468 0.960 . S
H455 C468 0.960 . S
C456 H448 0.929 . S
C456 C457 1.377 . S
C456 C458 1.384 . S
C457 C456 1.377 . S
C457 C463 1.390 . S
C458 H449 0.930 . S
C458 C456 1.384 . S
C458 C459 1.372 . S
C459 C458 1.372 . S
C459 C460 1.400 . S
C459 C464 1.490 . S
C460 H450 0.930 . S
C460 C459 1.400 . S
C460 C463 1.386 . S
H461 C477 0.930 . S
H462 C478 0.931 . S
C463 H451 0.929 . S
C463 C457 1.390 . S
C463 C460 1.386 . S
C464 C459 1.490 . S
C464 C466 1.395 . S
C464 C467 1.403 . S
H465 C471 0.930 . S
C466 H452 0.930 . S
C466 C464 1.395 . S
C466 C469 1.403 . S
C467 C464 1.403 . S
C467 C468 1.524 . S
C467 C471 1.400 . S
C468 H453 0.960 . S
C468 H454 0.960 . S
C468 H455 0.960 . S
C468 C467 1.524 . S
C469 C466 1.403 . S
C469 C470 1.392 . S
C469 C473 1.495 . S
C470 C469 1.392 . S
C470 C471 1.385 . S
C470 C472 1.478 . S
C471 H465 0.930 . S
C471 C467 1.400 . S
C471 C470 1.385 . S
C472 C470 1.478 . S
C472 C474 1.381 . S
C472 C478 1.383 . S
C473 C469 1.495 . S
C473 H479 0.959 . S
C473 H480 0.961 . S
C473 H481 0.960 . S
C474 C472 1.381 . S
C474 C475 1.394 . S
C474 H482 0.930 . S
C475 C474 1.394 . S
C475 C476 1.383 . S
C475 H483 0.929 . S
C476 C475 1.383 . S
C476 C477 1.377 . S
C477 H461 0.930 . S
C477 C476 1.377 . S
C477 C478 1.379 . S
C478 H462 0.931 . S
C478 C472 1.383 . S
C478 C477 1.379 . S
H479 C473 0.959 . S
H480 C473 0.961 . S
H481 C473 0.960 . S
H482 C474 0.930 . S
H483 C475 0.929 . S
H484 C492 0.929 . S
H485 C494 0.930 . S
H486 C496 0.930 . S
H487 C499 0.929 . S
H488 C502 0.930 . S
H489 C504 0.960 . S
H490 C504 0.960 . S
H491 C504 0.960 . S
C492 H484 0.929 . S
C492 C493 1.377 . S
C492 C494 1.384 . S
C493 C492 1.377 . S
C493 C499 1.390 . S
C494 H485 0.930 . S
C494 C492 1.384 . S
C494 C495 1.372 . S
C495 C494 1.372 . S
C495 C496 1.400 . S
C495 C500 1.490 . S
C496 H486 0.930 . S
C496 C495 1.400 . S
C496 C499 1.386 . S
H497 C513 0.930 . S
H498 C514 0.931 . S
C499 H487 0.929 . S
C499 C493 1.390 . S
C499 C496 1.386 . S
C500 C495 1.490 . S
C500 C502 1.395 . S
C500 C503 1.403 . S
H501 C507 0.930 . S
C502 H488 0.930 . S
C502 C500 1.395 . S
C502 C505 1.403 . S
C503 C500 1.403 . S
C503 C504 1.524 . S
C503 C507 1.400 . S
C504 H489 0.960 . S
C504 H490 0.960 . S
C504 H491 0.960 . S
C504 C503 1.524 . S
C505 C502 1.403 . S
C505 C506 1.392 . S
C505 C509 1.495 . S
C506 C505 1.392 . S
C506 C507 1.385 . S
C506 C508 1.478 . S
C507 H501 0.930 . S
C507 C503 1.400 . S
C507 C506 1.385 . S
C508 C506 1.478 . S
C508 C510 1.381 . S
C508 C514 1.383 . S
C509 C505 1.495 . S
C509 H515 0.959 . S
C509 H516 0.961 . S
C509 H517 0.960 . S
C510 C508 1.381 . S
C510 C511 1.394 . S
C510 H518 0.930 . S
C511 C510 1.394 . S
C511 C512 1.383 . S
C511 H519 0.929 . S
C512 C511 1.383 . S
C512 C513 1.377 . S
C513 H497 0.930 . S
C513 C512 1.377 . S
C513 C514 1.379 . S
C514 H498 0.931 . S
C514 C508 1.383 . S
C514 C513 1.379 . S
H515 C509 0.959 . S
H516 C509 0.961 . S
H517 C509 0.960 . S
H518 C510 0.930 . S
H519 C511 0.929 . S
H520 C528 0.929 . S
H521 C530 0.930 . S
H522 C532 0.930 . S
H523 C535 0.929 . S
H524 C538 0.930 . S
H525 C540 0.960 . S
H526 C540 0.960 . S
H527 C540 0.960 . S
C528 H520 0.929 . S
C528 C529 1.377 . S
C528 C530 1.384 . S
C529 C528 1.377 . S
C529 C535 1.390 . S
C530 H521 0.930 . S
C530 C528 1.384 . S
C530 C531 1.372 . S
C531 C530 1.372 . S
C531 C532 1.400 . S
C531 C536 1.490 . S
C532 H522 0.930 . S
C532 C531 1.400 . S
C532 C535 1.386 . S
H533 C549 0.930 . S
H534 C550 0.931 . S
C535 H523 0.929 . S
C535 C529 1.390 . S
C535 C532 1.386 . S
C536 C531 1.490 . S
C536 C538 1.395 . S
C536 C539 1.403 . S
H537 C543 0.930 . S
C538 H524 0.930 . S
C538 C536 1.395 . S
C538 C541 1.403 . S
C539 C536 1.403 . S
C539 C540 1.524 . S
C539 C543 1.400 . S
C540 H525 0.960 . S
C540 H526 0.960 . S
C540 H527 0.960 . S
C540 C539 1.524 . S
C541 C538 1.403 . S
C541 C542 1.392 . S
C541 C545 1.495 . S
C542 C541 1.392 . S
C542 C543 1.385 . S
C542 C544 1.478 . S
C543 H537 0.930 . S
C543 C539 1.400 . S
C543 C542 1.385 . S
C544 C542 1.478 . S
C544 C546 1.381 . S
C544 C550 1.383 . S
C545 C541 1.495 . S
C545 H551 0.959 . S
C545 H552 0.961 . S
C545 H553 0.960 . S
C546 C544 1.381 . S
C546 C547 1.394 . S
C546 H554 0.930 . S
C547 C546 1.394 . S
C547 C548 1.383 . S
C547 H555 0.929 . S
C548 C547 1.383 . S
C548 C549 1.377 . S
C549 H533 0.930 . S
C549 C548 1.377 . S
C549 C550 1.379 . S
C550 H534 0.931 . S
C550 C544 1.383 . S
C550 C549 1.379 . S
H551 C545 0.959 . S
H552 C545 0.961 . S
H553 C545 0.960 . S
H554 C546 0.930 . S
H555 C547 0.929 . S
H556 C564 0.929 . S
H557 C566 0.930 . S
H558 C568 0.930 . S
H559 C571 0.929 . S
H560 C574 0.930 . S
H561 C576 0.960 . S
H562 C576 0.960 . S
H563 C576 0.960 . S
C564 H556 0.929 . S
C564 C565 1.377 . S
C564 C566 1.384 . S
C565 C564 1.377 . S
C565 C571 1.390 . S
C566 H557 0.930 . S
C566 C564 1.384 . S
C566 C567 1.372 . S
C567 C566 1.372 . S
C567 C568 1.400 . S
C567 C572 1.490 . S
C568 H558 0.930 . S
C568 C567 1.400 . S
C568 C571 1.386 . S
H569 C585 0.930 . S
H570 C586 0.931 . S
C571 H559 0.929 . S
C571 C565 1.390 . S
C571 C568 1.386 . S
C572 C567 1.490 . S
C572 C574 1.395 . S
C572 C575 1.403 . S
H573 C579 0.930 . S
C574 H560 0.930 . S
C574 C572 1.395 . S
C574 C577 1.403 . S
C575 C572 1.403 . S
C575 C576 1.524 . S
C575 C579 1.400 . S
C576 H561 0.960 . S
C576 H562 0.960 . S
C576 H563 0.960 . S
C576 C575 1.524 . S
C577 C574 1.403 . S
C577 C578 1.392 . S
C577 C581 1.495 . S
C578 C577 1.392 . S
C578 C579 1.385 . S
C578 C580 1.478 . S
C579 H573 0.930 . S
C579 C575 1.400 . S
C579 C578 1.385 . S
C580 C578 1.478 . S
C580 C582 1.381 . S
C580 C586 1.383 . S
C581 C577 1.495 . S
C581 H587 0.959 . S
C581 H588 0.961 . S
C581 H589 0.960 . S
C582 C580 1.381 . S
C582 C583 1.394 . S
C582 H590 0.930 . S
C583 C582 1.394 . S
C583 C584 1.383 . S
C583 H591 0.929 . S
C584 C583 1.383 . S
C584 C585 1.377 . S
C585 H569 0.930 . S
C585 C584 1.377 . S
C585 C586 1.379 . S
C586 H570 0.931 . S
C586 C580 1.383 . S
C586 C585 1.379 . S
H587 C581 0.959 . S
H588 C581 0.961 . S
H589 C581 0.960 . S
H590 C582 0.930 . S
H591 C583 0.929 . S
H592 C600 0.929 . S
H593 C602 0.930 . S
H594 C604 0.930 . S
H595 C607 0.929 . S
H596 C610 0.930 . S
H597 C612 0.960 . S
H598 C612 0.960 . S
H599 C612 0.960 . S
C600 H592 0.929 . S
C600 C601 1.377 . S
C600 C602 1.384 . S
C601 C600 1.377 . S
C601 C607 1.390 . S
C602 H593 0.930 . S
C602 C600 1.384 . S
C602 C603 1.372 . S
C603 C602 1.372 . S
C603 C604 1.400 . S
C603 C608 1.490 . S
C604 H594 0.930 . S
C604 C603 1.400 . S
C604 C607 1.386 . S
H605 C621 0.930 . S
H606 C622 0.931 . S
C607 H595 0.929 . S
C607 C601 1.390 . S
C607 C604 1.386 . S
C608 C603 1.490 . S
C608 C610 1.395 . S
C608 C611 1.403 . S
H609 C615 0.930 . S
C610 H596 0.930 . S
C610 C608 1.395 . S
C610 C613 1.403 . S
C611 C608 1.403 . S
C611 C612 1.524 . S
C611 C615 1.400 . S
C612 H597 0.960 . S
C612 H598 0.960 . S
C612 H599 0.960 . S
C612 C611 1.524 . S
C613 C610 1.403 . S
C613 C614 1.392 . S
C613 C617 1.495 . S
C614 C613 1.392 . S
C614 C615 1.385 . S
C614 C616 1.478 . S
C615 H609 0.930 . S
C615 C611 1.400 . S
C615 C614 1.385 . S
C616 C614 1.478 . S
C616 C618 1.381 . S
C616 C622 1.383 . S
C617 C613 1.495 . S
C617 H623 0.959 . S
C617 H624 0.961 . S
C617 H625 0.960 . S
C618 C616 1.381 . S
C618 C619 1.394 . S
C618 H626 0.930 . S
C619 C618 1.394 . S
C619 C620 1.383 . S
C619 H627 0.929 . S
C620 C619 1.383 . S
C620 C621 1.377 . S
C621 H605 0.930 . S
C621 C620 1.377 . S
C621 C622 1.379 . S
C622 H606 0.931 . S
C622 C616 1.383 . S
C622 C621 1.379 . S
H623 C617 0.959 . S
H624 C617 0.961 . S
H625 C617 0.960 . S
H626 C618 0.930 . S
H627 C619 0.929 . S
H628 C636 0.929 . S
H629 C638 0.930 . S
H630 C640 0.930 . S
H631 C643 0.929 . S
H632 C646 0.930 . S
H633 C648 0.960 . S
H634 C648 0.960 . S
H635 C648 0.960 . S
C636 H628 0.929 . S
C636 C637 1.377 . S
C636 C638 1.384 . S
C637 C636 1.377 . S
C637 C643 1.390 . S
C638 H629 0.930 . S
C638 C636 1.384 . S
C638 C639 1.372 . S
C639 C638 1.372 . S
C639 C640 1.400 . S
C639 C644 1.490 . S
C640 H630 0.930 . S
C640 C639 1.400 . S
C640 C643 1.386 . S
H641 C657 0.930 . S
H642 C658 0.931 . S
C643 H631 0.929 . S
C643 C637 1.390 . S
C643 C640 1.386 . S
C644 C639 1.490 . S
C644 C646 1.395 . S
C644 C647 1.403 . S
H645 C651 0.930 . S
C646 H632 0.930 . S
C646 C644 1.395 . S
C646 C649 1.403 . S
C647 C644 1.403 . S
C647 C648 1.524 . S
C647 C651 1.400 . S
C648 H633 0.960 . S
C648 H634 0.960 . S
C648 H635 0.960 . S
C648 C647 1.524 . S
C649 C646 1.403 . S
C649 C650 1.392 . S
C649 C653 1.495 . S
C650 C649 1.392 . S
C650 C651 1.385 . S
C650 C652 1.478 . S
C651 H645 0.930 . S
C651 C647 1.400 . S
C651 C650 1.385 . S
C652 C650 1.478 . S
C652 C654 1.381 . S
C652 C658 1.383 . S
C653 C649 1.495 . S
C653 H659 0.959 . S
C653 H660 0.961 . S
C653 H661 0.960 . S
C654 C652 1.381 . S
C654 C655 1.394 . S
C654 H662 0.930 . S
C655 C654 1.394 . S
C655 C656 1.383 . S
C655 H663 0.929 . S
C656 C655 1.383 . S
C656 C657 1.377 . S
C657 H641 0.930 . S
C657 C656 1.377 . S
C657 C658 1.379 . S
C658 H642 0.931 . S
C658 C652 1.383 . S
C658 C657 1.379 . S
H659 C653 0.959 . S
H660 C653 0.961 . S
H661 C653 0.960 . S
H662 C654 0.930 . S
H663 C655 0.929 . S
H664 C672 0.929 . S
H665 C674 0.930 . S
H666 C676 0.930 . S
H667 C679 0.929 . S
H668 C682 0.930 . S
H669 C684 0.960 . S
H670 C684 0.960 . S
H671 C684 0.960 . S
C672 H664 0.929 . S
C672 C673 1.377 . S
C672 C674 1.384 . S
C673 C672 1.377 . S
C673 C679 1.390 . S
C674 H665 0.930 . S
C674 C672 1.384 . S
C674 C675 1.372 . S
C675 C674 1.372 . S
C675 C676 1.400 . S
C675 C680 1.490 . S
C676 H666 0.930 . S
C676 C675 1.400 . S
C676 C679 1.386 . S
H677 C693 0.930 . S
H678 C694 0.931 . S
C679 H667 0.929 . S
C679 C673 1.390 . S
C679 C676 1.386 . S
C680 C675 1.490 . S
C680 C682 1.395 . S
C680 C683 1.403 . S
H681 C687 0.930 . S
C682 H668 0.930 . S
C682 C680 1.395 . S
C682 C685 1.403 . S
C683 C680 1.403 . S
C683 C684 1.524 . S
C683 C687 1.400 . S
C684 H669 0.960 . S
C684 H670 0.960 . S
C684 H671 0.960 . S
C684 C683 1.524 . S
C685 C682 1.403 . S
C685 C686 1.392 . S
C685 C689 1.495 . S
C686 C685 1.392 . S
C686 C687 1.385 . S
C686 C688 1.478 . S
C687 H681 0.930 . S
C687 C683 1.400 . S
C687 C686 1.385 . S
C688 C686 1.478 . S
C688 C690 1.381 1_565 S
C688 C694 1.383 . S
C689 C685 1.495 . S
C689 H695 0.959 . S
C689 H696 0.961 . S
C689 H697 0.960 1_565 S
C690 C688 1.381 1_545 S
C690 C691 1.394 . S
C690 H698 0.930 . S
C691 C690 1.394 . S
C691 C692 1.383 . S
C691 H699 0.929 . S
C692 C691 1.383 . S
C692 C693 1.377 . S
C693 H677 0.930 . S
C693 C692 1.377 . S
C693 C694 1.379 1_545 S
C694 H678 0.931 . S
C694 C688 1.383 . S
C694 C693 1.379 1_565 S
H695 C689 0.959 . S
H696 C689 0.961 . S
H697 C689 0.960 1_545 S
H698 C690 0.930 . S
H699 C691 0.929 . S
H700 C708 0.929 . S
H701 C710 0.930 . S
H702 C712 0.930 . S
H703 C715 0.929 . S
H704 C718 0.930 . S
H705 C720 0.960 . S
H706 C720 0.960 . S
H707 C720 0.960 . S
C708 H700 0.929 . S
C708 C709 1.377 . S
C708 C710 1.384 . S
C709 C708 1.377 . S
C709 C715 1.390 . S
C710 H701 0.930 . S
C710 C708 1.384 . S
C710 C711 1.372 . S
C711 C710 1.372 . S
C711 C712 1.400 . S
C711 C716 1.490 . S
C712 H702 0.930 . S
C712 C711 1.400 . S
C712 C715 1.386 . S
H713 C729 0.930 . S
H714 C730 0.931 . S
C715 H703 0.929 . S
C715 C709 1.390 . S
C715 C712 1.386 . S
C716 C711 1.490 . S
C716 C718 1.395 . S
C716 C719 1.403 . S
H717 C723 0.930 . S
C718 H704 0.930 . S
C718 C716 1.395 . S
C718 C721 1.403 . S
C719 C716 1.403 . S
C719 C720 1.524 . S
C719 C723 1.400 . S
C720 H705 0.960 . S
C720 H706 0.960 . S
C720 H707 0.960 . S
C720 C719 1.524 . S
C721 C718 1.403 . S
C721 C722 1.392 . S
C721 C725 1.495 . S
C722 C721 1.392 . S
C722 C723 1.385 . S
C722 C724 1.478 . S
C723 H717 0.930 . S
C723 C719 1.400 . S
C723 C722 1.385 . S
C724 C722 1.478 . S
C724 C726 1.381 . S
C724 C730 1.383 . S
C725 C721 1.495 . S
C725 H731 0.959 . S
C725 H732 0.961 . S
C725 H733 0.960 . S
C726 C724 1.381 . S
C726 C727 1.394 . S
C726 H734 0.930 . S
C727 C726 1.394 . S
C727 C728 1.383 . S
C727 H735 0.929 . S
C728 C727 1.383 . S
C728 C729 1.377 . S
C729 H713 0.930 . S
C729 C728 1.377 . S
C729 C730 1.379 . S
C730 H714 0.931 . S
C730 C724 1.383 . S
C730 C729 1.379 . S
H731 C725 0.959 . S
H732 C725 0.961 . S
H733 C725 0.960 . S
H734 C726 0.930 . S
H735 C727 0.929 . S
H736 C744 0.929 . S
H737 C746 0.930 . S
H738 C748 0.930 . S
H739 C751 0.929 . S
H740 C754 0.930 . S
H741 C756 0.960 . S
H742 C756 0.960 . S
H743 C756 0.960 . S
C744 H736 0.929 . S
C744 C745 1.377 . S
C744 C746 1.384 . S
C745 C744 1.377 . S
C745 C751 1.390 . S
C746 H737 0.930 . S
C746 C744 1.384 . S
C746 C747 1.372 . S
C747 C746 1.372 . S
C747 C748 1.400 . S
C747 C752 1.490 . S
C748 H738 0.930 . S
C748 C747 1.400 . S
C748 C751 1.386 . S
H749 C765 0.930 . S
H750 C766 0.931 . S
C751 H739 0.929 . S
C751 C745 1.390 . S
C751 C748 1.386 . S
C752 C747 1.490 . S
C752 C754 1.395 . S
C752 C755 1.403 . S
H753 C759 0.930 . S
C754 H740 0.930 . S
C754 C752 1.395 . S
C754 C757 1.403 . S
C755 C752 1.403 . S
C755 C756 1.524 . S
C755 C759 1.400 . S
C756 H741 0.960 . S
C756 H742 0.960 . S
C756 H743 0.960 . S
C756 C755 1.524 . S
C757 C754 1.403 . S
C757 C758 1.392 . S
C757 C761 1.495 . S
C758 C757 1.392 . S
C758 C759 1.385 . S
C758 C760 1.478 . S
C759 H753 0.930 . S
C759 C755 1.400 . S
C759 C758 1.385 . S
C760 C758 1.478 . S
C760 C762 1.381 . S
C760 C766 1.383 . S
C761 C757 1.495 . S
C761 H767 0.959 . S
C761 H768 0.961 . S
C761 H769 0.960 . S
C762 C760 1.381 . S
C762 C763 1.394 . S
C762 H770 0.930 . S
C763 C762 1.394 . S
C763 C764 1.383 . S
C763 H771 0.929 . S
C764 C763 1.383 . S
C764 C765 1.377 . S
C765 H749 0.930 . S
C765 C764 1.377 . S
C765 C766 1.379 . S
C766 H750 0.931 . S
C766 C760 1.383 . S
C766 C765 1.379 . S
H767 C761 0.959 . S
H768 C761 0.961 . S
H769 C761 0.960 . S
H770 C762 0.930 . S
H771 C763 0.929 . S
H772 C780 0.929 . S
H773 C782 0.930 . S
H774 C784 0.930 . S
H775 C787 0.929 . S
H776 C790 0.930 . S
H777 C792 0.960 . S
H778 C792 0.960 . S
H779 C792 0.960 . S
C780 H772 0.929 . S
C780 C781 1.377 . S
C780 C782 1.384 . S
C781 C780 1.377 . S
C781 C787 1.390 . S
C782 H773 0.930 . S
C782 C780 1.384 . S
C782 C783 1.372 . S
C783 C782 1.372 . S
C783 C784 1.400 . S
C783 C788 1.490 . S
C784 H774 0.930 . S
C784 C783 1.400 . S
C784 C787 1.386 . S
H785 C801 0.930 . S
H786 C802 0.931 . S
C787 H775 0.929 . S
C787 C781 1.390 . S
C787 C784 1.386 . S
C788 C783 1.490 . S
C788 C790 1.395 . S
C788 C791 1.403 . S
H789 C795 0.930 . S
C790 H776 0.930 . S
C790 C788 1.395 . S
C790 C793 1.403 . S
C791 C788 1.403 . S
C791 C792 1.524 . S
C791 C795 1.400 . S
C792 H777 0.960 . S
C792 H778 0.960 . S
C792 H779 0.960 . S
C792 C791 1.524 . S
C793 C790 1.403 . S
C793 C794 1.392 . S
C793 C797 1.495 . S
C794 C793 1.392 . S
C794 C795 1.385 . S
C794 C796 1.478 . S
C795 H789 0.930 . S
C795 C791 1.400 . S
C795 C794 1.385 . S
C796 C794 1.478 . S
C796 C798 1.381 . S
C796 C802 1.383 . S
C797 C793 1.495 . S
C797 H803 0.959 . S
C797 H804 0.961 . S
C797 H805 0.960 . S
C798 C796 1.381 . S
C798 C799 1.394 . S
C798 H806 0.930 . S
C799 C798 1.394 . S
C799 C800 1.383 . S
C799 H807 0.929 . S
C800 C799 1.383 . S
C800 C801 1.377 . S
C801 H785 0.930 . S
C801 C800 1.377 . S
C801 C802 1.379 . S
C802 H786 0.931 . S
C802 C796 1.383 . S
C802 C801 1.379 . S
H803 C797 0.959 . S
H804 C797 0.961 . S
H805 C797 0.960 . S
H806 C798 0.930 . S
H807 C799 0.929 . S
H808 C816 0.929 . S
H809 C818 0.930 . S
H810 C820 0.930 . S
H811 C823 0.929 . S
H812 C826 0.930 . S
H813 C828 0.960 . S
H814 C828 0.960 . S
H815 C828 0.960 . S
C816 H808 0.929 . S
C816 C817 1.377 . S
C816 C818 1.384 . S
C817 C816 1.377 . S
C817 C823 1.390 . S
C818 H809 0.930 . S
C818 C816 1.384 . S
C818 C819 1.372 . S
C819 C818 1.372 . S
C819 C820 1.400 . S
C819 C824 1.490 . S
C820 H810 0.930 . S
C820 C819 1.400 . S
C820 C823 1.386 . S
H821 C837 0.930 . S
H822 C838 0.931 . S
C823 H811 0.929 . S
C823 C817 1.390 . S
C823 C820 1.386 . S
C824 C819 1.490 . S
C824 C826 1.395 . S
C824 C827 1.403 . S
H825 C831 0.930 . S
C826 H812 0.930 . S
C826 C824 1.395 . S
C826 C829 1.403 . S
C827 C824 1.403 . S
C827 C828 1.524 . S
C827 C831 1.400 . S
C828 H813 0.960 . S
C828 H814 0.960 . S
C828 H815 0.960 . S
C828 C827 1.524 . S
C829 C826 1.403 . S
C829 C830 1.392 . S
C829 C833 1.495 . S
C830 C829 1.392 . S
C830 C831 1.385 . S
C830 C832 1.478 . S
C831 H825 0.930 . S
C831 C827 1.400 . S
C831 C830 1.385 . S
C832 C830 1.478 . S
C832 C834 1.381 . S
C832 C838 1.383 . S
C833 C829 1.495 . S
C833 H839 0.959 . S
C833 H840 0.961 . S
C833 H841 0.960 . S
C834 C832 1.381 . S
C834 C835 1.394 . S
C834 H842 0.930 . S
C835 C834 1.394 . S
C835 C836 1.383 . S
C835 H843 0.929 . S
C836 C835 1.383 . S
C836 C837 1.377 . S
C837 H821 0.930 . S
C837 C836 1.377 . S
C837 C838 1.379 . S
C838 H822 0.931 . S
C838 C832 1.383 . S
C838 C837 1.379 . S
H839 C833 0.959 . S
H840 C833 0.961 . S
H841 C833 0.960 . S
H842 C834 0.930 . S
H843 C835 0.929 . S
H844 C852 0.929 . S
H845 C854 0.930 . S
H846 C856 0.930 . S
H847 C859 0.929 . S
H848 C862 0.930 . S
H849 C864 0.960 . S
H850 C864 0.960 . S
H851 C864 0.960 . S
C852 H844 0.929 . S
C852 C853 1.377 . S
C852 C854 1.384 . S
C853 C852 1.377 . S
C853 C859 1.390 . S
C854 H845 0.930 . S
C854 C852 1.384 . S
C854 C855 1.372 . S
C855 C854 1.372 . S
C855 C856 1.400 . S
C855 C860 1.490 . S
C856 H846 0.930 . S
C856 C855 1.400 . S
C856 C859 1.386 . S
H857 C873 0.930 . S
H858 C874 0.931 . S
C859 H847 0.929 . S
C859 C853 1.390 . S
C859 C856 1.386 . S
C860 C855 1.490 . S
C860 C862 1.395 . S
C860 C863 1.403 . S
H861 C867 0.930 . S
C862 H848 0.930 . S
C862 C860 1.395 . S
C862 C865 1.403 . S
C863 C860 1.403 . S
C863 C864 1.524 . S
C863 C867 1.400 . S
C864 H849 0.960 . S
C864 H850 0.960 . S
C864 H851 0.960 . S
C864 C863 1.524 . S
C865 C862 1.403 . S
C865 C866 1.392 . S
C865 C869 1.495 . S
C866 C865 1.392 . S
C866 C867 1.385 . S
C866 C868 1.478 . S
C867 H861 0.930 . S
C867 C863 1.400 . S
C867 C866 1.385 . S
C868 C866 1.478 . S
C868 C870 1.381 . S
C868 C874 1.383 . S
C869 C865 1.495 . S
C869 H875 0.959 . S
C869 H876 0.961 . S
C869 H877 0.960 . S
C870 C868 1.381 . S
C870 C871 1.394 . S
C870 H878 0.930 . S
C871 C870 1.394 . S
C871 C872 1.383 . S
C871 H879 0.929 . S
C872 C871 1.383 . S
C872 C873 1.377 . S
C873 H857 0.930 . S
C873 C872 1.377 . S
C873 C874 1.379 . S
C874 H858 0.931 . S
C874 C868 1.383 . S
C874 C873 1.379 . S
H875 C869 0.959 . S
H876 C869 0.961 . S
H877 C869 0.960 . S
H878 C870 0.930 . S
H879 C871 0.929 . S
H880 C888 0.929 . S
H881 C890 0.930 . S
H882 C892 0.930 . S
H883 C895 0.929 . S
H884 C898 0.930 . S
H885 C900 0.960 . S
H886 C900 0.960 . S
H887 C900 0.960 . S
C888 H880 0.929 . S
C888 C889 1.377 . S
C888 C890 1.384 . S
C889 C888 1.377 . S
C889 C895 1.390 . S
C890 H881 0.930 . S
C890 C888 1.384 . S
C890 C891 1.372 . S
C891 C890 1.372 . S
C891 C892 1.400 . S
C891 C896 1.490 . S
C892 H882 0.930 . S
C892 C891 1.400 . S
C892 C895 1.386 . S
H893 C909 0.930 . S
H894 C910 0.931 . S
C895 H883 0.929 . S
C895 C889 1.390 . S
C895 C892 1.386 . S
C896 C891 1.490 . S
C896 C898 1.395 . S
C896 C899 1.403 . S
H897 C903 0.930 . S
C898 H884 0.930 . S
C898 C896 1.395 . S
C898 C901 1.403 . S
C899 C896 1.403 . S
C899 C900 1.524 . S
C899 C903 1.400 . S
C900 H885 0.960 . S
C900 H886 0.960 . S
C900 H887 0.960 . S
C900 C899 1.524 . S
C901 C898 1.403 . S
C901 C902 1.392 . S
C901 C905 1.495 . S
C902 C901 1.392 . S
C902 C903 1.385 . S
C902 C904 1.478 . S
C903 H897 0.930 . S
C903 C899 1.400 . S
C903 C902 1.385 . S
C904 C902 1.478 . S
C904 C906 1.381 . S
C904 C910 1.383 . S
C905 C901 1.495 . S
C905 H911 0.959 . S
C905 H912 0.961 . S
C905 H913 0.960 . S
C906 C904 1.381 . S
C906 C907 1.394 . S
C906 H914 0.930 . S
C907 C906 1.394 . S
C907 C908 1.383 . S
C907 H915 0.929 . S
C908 C907 1.383 . S
C908 C909 1.377 . S
C909 H893 0.930 . S
C909 C908 1.377 . S
C909 C910 1.379 . S
C910 H894 0.931 . S
C910 C904 1.383 . S
C910 C909 1.379 . S
H911 C905 0.959 . S
H912 C905 0.961 . S
H913 C905 0.960 . S
H914 C906 0.930 . S
H915 C907 0.929 . S
H916 C924 0.929 . S
H917 C926 0.930 . S
H918 C928 0.930 . S
H919 C931 0.929 . S
H920 C934 0.930 . S
H921 C936 0.960 . S
H922 C936 0.960 . S
H923 C936 0.960 . S
C924 H916 0.929 . S
C924 C925 1.377 . S
C924 C926 1.384 . S
C925 C924 1.377 . S
C925 C931 1.390 . S
C926 H917 0.930 . S
C926 C924 1.384 . S
C926 C927 1.372 . S
C927 C926 1.372 . S
C927 C928 1.400 . S
C927 C932 1.490 . S
C928 H918 0.930 . S
C928 C927 1.400 . S
C928 C931 1.386 . S
H929 C945 0.930 . S
H930 C946 0.931 . S
C931 H919 0.929 . S
C931 C925 1.390 . S
C931 C928 1.386 . S
C932 C927 1.490 . S
C932 C934 1.395 . S
C932 C935 1.403 . S
H933 C939 0.930 . S
C934 H920 0.930 . S
C934 C932 1.395 . S
C934 C937 1.403 . S
C935 C932 1.403 . S
C935 C936 1.524 . S
C935 C939 1.400 . S
C936 H921 0.960 . S
C936 H922 0.960 . S
C936 H923 0.960 . S
C936 C935 1.524 . S
C937 C934 1.403 . S
C937 C938 1.392 . S
C937 C941 1.495 . S
C938 C937 1.392 . S
C938 C939 1.385 . S
C938 C940 1.478 . S
C939 H933 0.930 . S
C939 C935 1.400 . S
C939 C938 1.385 . S
C940 C938 1.478 . S
C940 C942 1.381 . S
C940 C946 1.383 . S
C941 C937 1.495 . S
C941 H947 0.959 . S
C941 H948 0.961 . S
C941 H949 0.960 . S
C942 C940 1.381 . S
C942 C943 1.394 . S
C942 H950 0.930 . S
C943 C942 1.394 . S
C943 C944 1.383 . S
C943 H951 0.929 . S
C944 C943 1.383 . S
C944 C945 1.377 . S
C945 H929 0.930 . S
C945 C944 1.377 . S
C945 C946 1.379 . S
C946 H930 0.931 . S
C946 C940 1.383 . S
C946 C945 1.379 . S
H947 C941 0.959 . S
H948 C941 0.961 . S
H949 C941 0.960 . S
H950 C942 0.930 . S
H951 C943 0.929 . S
H952 C960 0.929 . S
H953 C962 0.930 . S
H954 C964 0.930 . S
H955 C967 0.929 . S
H956 C970 0.930 . S
H957 C972 0.960 . S
H958 C972 0.960 . S
H959 C972 0.960 . S
C960 H952 0.929 . S
C960 C961 1.377 . S
C960 C962 1.384 . S
C961 C960 1.377 . S
C961 C967 1.390 . S
C962 H953 0.930 . S
C962 C960 1.384 . S
C962 C963 1.372 . S
C963 C962 1.372 . S
C963 C964 1.400 . S
C963 C968 1.490 . S
C964 H954 0.930 . S
C964 C963 1.400 . S
C964 C967 1.386 . S
H965 C981 0.930 . S
H966 C982 0.931 . S
C967 H955 0.929 . S
C967 C961 1.390 . S
C967 C964 1.386 . S
C968 C963 1.490 . S
C968 C970 1.395 . S
C968 C971 1.403 . S
H969 C975 0.930 . S
C970 H956 0.930 . S
C970 C968 1.395 . S
C970 C973 1.403 . S
C971 C968 1.403 . S
C971 C972 1.524 . S
C971 C975 1.400 . S
C972 H957 0.960 . S
C972 H958 0.960 . S
C972 H959 0.960 . S
C972 C971 1.524 . S
C973 C970 1.403 . S
C973 C974 1.392 . S
C973 C977 1.495 . S
C974 C973 1.392 . S
C974 C975 1.385 . S
C974 C976 1.478 . S
C975 H969 0.930 . S
C975 C971 1.400 . S
C975 C974 1.385 . S
C976 C974 1.478 . S
C976 C978 1.381 . S
C976 C982 1.383 . S
C977 C973 1.495 . S
C977 H983 0.959 . S
C977 H984 0.961 . S
C977 H985 0.960 . S
C978 C976 1.381 . S
C978 C979 1.394 . S
C978 H986 0.930 . S
C979 C978 1.394 . S
C979 C980 1.383 . S
C979 H987 0.929 . S
C980 C979 1.383 . S
C980 C981 1.377 . S
C981 H965 0.930 . S
C981 C980 1.377 . S
C981 C982 1.379 . S
C982 H966 0.931 . S
C982 C976 1.383 . S
C982 C981 1.379 . S
H983 C977 0.959 . S
H984 C977 0.961 . S
H985 C977 0.960 . S
H986 C978 0.930 . S
H987 C979 0.929 . S
H988 C996 0.929 . S
H989 C998 0.930 . S
H990 C1000 0.930 . S
H991 C1003 0.929 . S
H992 C1006 0.930 . S
H993 C1008 0.960 . S
H994 C1008 0.960 . S
H995 C1008 0.960 . S
C996 H988 0.929 . S
C996 C997 1.377 . S
C996 C998 1.384 . S
C997 C996 1.377 . S
C997 C1003 1.390 . S
C998 H989 0.930 . S
C998 C996 1.384 . S
C998 C999 1.372 . S
C999 C998 1.372 . S
C999 C1000 1.400 . S
C999 C1004 1.490 . S
C1000 H990 0.930 . S
C1000 C999 1.400 . S
C1000 C1003 1.386 . S
H1001 C1017 0.930 . S
H1002 C1018 0.931 . S
C1003 H991 0.929 . S
C1003 C997 1.390 . S
C1003 C1000 1.386 . S
C1004 C999 1.490 . S
C1004 C1006 1.395 . S
C1004 C1007 1.403 . S
H1005 C1011 0.930 . S
C1006 H992 0.930 . S
C1006 C1004 1.395 . S
C1006 C1009 1.403 . S
C1007 C1004 1.403 . S
C1007 C1008 1.524 . S
C1007 C1011 1.400 . S
C1008 H993 0.960 . S
C1008 H994 0.960 . S
C1008 H995 0.960 . S
C1008 C1007 1.524 . S
C1009 C1006 1.403 . S
C1009 C1010 1.392 . S
C1009 C1013 1.495 . S
C1010 C1009 1.392 . S
C1010 C1011 1.385 . S
C1010 C1012 1.478 . S
C1011 H1005 0.930 . S
C1011 C1007 1.400 . S
C1011 C1010 1.385 . S
C1012 C1010 1.478 . S
C1012 C1014 1.381 . S
C1012 C1018 1.383 . S
C1013 C1009 1.495 . S
C1013 H1019 0.959 . S
C1013 H1020 0.961 . S
C1013 H1021 0.960 . S
C1014 C1012 1.381 . S
C1014 C1015 1.394 . S
C1014 H1022 0.930 . S
C1015 C1014 1.394 . S
C1015 C1016 1.383 . S
C1015 H1023 0.929 . S
C1016 C1015 1.383 . S
C1016 C1017 1.377 . S
C1017 H1001 0.930 . S
C1017 C1016 1.377 . S
C1017 C1018 1.379 . S
C1018 H1002 0.931 . S
C1018 C1012 1.383 . S
C1018 C1017 1.379 . S
H1019 C1013 0.959 . S
H1020 C1013 0.961 . S
H1021 C1013 0.960 . S
H1022 C1014 0.930 . S
H1023 C1015 0.929 . S
H1024 C1032 0.929 . S
H1025 C1034 0.930 . S
H1026 C1036 0.930 . S
H1027 C1039 0.929 . S
H1028 C1042 0.930 . S
H1029 C1044 0.960 . S
H1030 C1044 0.960 . S
H1031 C1044 0.960 . S
C1032 H1024 0.929 . S
C1032 C1033 1.377 . S
C1032 C1034 1.384 . S
C1033 C1032 1.377 . S
C1033 C1039 1.390 . S
C1034 H1025 0.930 . S
C1034 C1032 1.384 . S
C1034 C1035 1.372 . S
C1035 C1034 1.372 . S
C1035 C1036 1.400 . S
C1035 C1040 1.490 . S
C1036 H1026 0.930 . S
C1036 C1035 1.400 . S
C1036 C1039 1.386 . S
H1037 C1053 0.930 . S
H1038 C1054 0.931 . S
C1039 H1027 0.929 . S
C1039 C1033 1.390 . S
C1039 C1036 1.386 . S
C1040 C1035 1.490 . S
C1040 C1042 1.395 . S
C1040 C1043 1.403 . S
H1041 C1047 0.930 . S
C1042 H1028 0.930 . S
C1042 C1040 1.395 . S
C1042 C1045 1.403 . S
C1043 C1040 1.403 . S
C1043 C1044 1.524 . S
C1043 C1047 1.400 . S
C1044 H1029 0.960 . S
C1044 H1030 0.960 . S
C1044 H1031 0.960 . S
C1044 C1043 1.524 . S
C1045 C1042 1.403 . S
C1045 C1046 1.392 . S
C1045 C1049 1.495 . S
C1046 C1045 1.392 . S
C1046 C1047 1.385 . S
C1046 C1048 1.478 . S
C1047 H1041 0.930 . S
C1047 C1043 1.400 . S
C1047 C1046 1.385 . S
C1048 C1046 1.478 . S
C1048 C1050 1.381 . S
C1048 C1054 1.383 . S
C1049 C1045 1.495 . S
C1049 H1055 0.959 . S
C1049 H1056 0.961 . S
C1049 H1057 0.960 . S
C1050 C1048 1.381 . S
C1050 C1051 1.394 . S
C1050 H1058 0.930 . S
C1051 C1050 1.394 . S
C1051 C1052 1.383 . S
C1051 H1059 0.929 . S
C1052 C1051 1.383 . S
C1052 C1053 1.377 . S
C1053 H1037 0.930 . S
C1053 C1052 1.377 . S
C1053 C1054 1.379 . S
C1054 H1038 0.931 . S
C1054 C1048 1.383 . S
C1054 C1053 1.379 . S
H1055 C1049 0.959 . S
H1056 C1049 0.961 . S
H1057 C1049 0.960 . S
H1058 C1050 0.930 . S
H1059 C1051 0.929 . S
H1060 C1068 0.929 . S
H1061 C1070 0.930 . S
H1062 C1072 0.930 . S
H1063 C1075 0.929 . S
H1064 C1078 0.930 . S
H1065 C1080 0.960 . S
H1066 C1080 0.960 . S
H1067 C1080 0.960 . S
C1068 H1060 0.929 . S
C1068 C1069 1.377 . S
C1068 C1070 1.384 . S
C1069 C1068 1.377 . S
C1069 C1075 1.390 . S
C1070 H1061 0.930 . S
C1070 C1068 1.384 . S
C1070 C1071 1.372 . S
C1071 C1070 1.372 . S
C1071 C1072 1.400 . S
C1071 C1076 1.490 . S
C1072 H1062 0.930 . S
C1072 C1071 1.400 . S
C1072 C1075 1.386 . S
H1073 C1089 0.930 . S
H1074 C1090 0.931 . S
C1075 H1063 0.929 . S
C1075 C1069 1.390 . S
C1075 C1072 1.386 . S
C1076 C1071 1.490 . S
C1076 C1078 1.395 . S
C1076 C1079 1.403 . S
H1077 C1083 0.930 . S
C1078 H1064 0.930 . S
C1078 C1076 1.395 . S
C1078 C1081 1.403 . S
C1079 C1076 1.403 . S
C1079 C1080 1.524 . S
C1079 C1083 1.400 . S
C1080 H1065 0.960 . S
C1080 H1066 0.960 . S
C1080 H1067 0.960 . S
C1080 C1079 1.524 . S
C1081 C1078 1.403 . S
C1081 C1082 1.392 . S
C1081 C1085 1.495 . S
C1082 C1081 1.392 . S
C1082 C1083 1.385 . S
C1082 C1084 1.478 . S
C1083 H1077 0.930 . S
C1083 C1079 1.400 . S
C1083 C1082 1.385 . S
C1084 C1082 1.478 . S
C1084 C1086 1.381 . S
C1084 C1090 1.383 . S
C1085 C1081 1.495 . S
C1085 H1091 0.959 . S
C1085 H1092 0.961 . S
C1085 H1093 0.960 . S
C1086 C1084 1.381 . S
C1086 C1087 1.394 . S
C1086 H1094 0.930 . S
C1087 C1086 1.394 . S
C1087 C1088 1.383 . S
C1087 H1095 0.929 . S
C1088 C1087 1.383 . S
C1088 C1089 1.377 . S
C1089 H1073 0.930 . S
C1089 C1088 1.377 . S
C1089 C1090 1.379 . S
C1090 H1074 0.931 . S
C1090 C1084 1.383 . S
C1090 C1089 1.379 . S
H1091 C1085 0.959 . S
H1092 C1085 0.961 . S
H1093 C1085 0.960 . S
H1094 C1086 0.930 . S
H1095 C1087 0.929 . S
H1096 C1104 0.929 . S
H1097 C1106 0.930 . S
H1098 C1108 0.930 . S
H1099 C1111 0.929 . S
H1100 C1114 0.930 . S
H1101 C1116 0.960 . S
H1102 C1116 0.960 . S
H1103 C1116 0.960 . S
C1104 H1096 0.929 . S
C1104 C1105 1.377 . S
C1104 C1106 1.384 . S
C1105 C1104 1.377 . S
C1105 C1111 1.390 . S
C1106 H1097 0.930 . S
C1106 C1104 1.384 . S
C1106 C1107 1.372 . S
C1107 C1106 1.372 . S
C1107 C1108 1.400 . S
C1107 C1112 1.490 . S
C1108 H1098 0.930 . S
C1108 C1107 1.400 . S
C1108 C1111 1.386 . S
H1109 C1125 0.930 . S
H1110 C1126 0.931 . S
C1111 H1099 0.929 . S
C1111 C1105 1.390 . S
C1111 C1108 1.386 . S
C1112 C1107 1.490 . S
C1112 C1114 1.395 . S
C1112 C1115 1.403 . S
H1113 C1119 0.930 . S
C1114 H1100 0.930 . S
C1114 C1112 1.395 . S
C1114 C1117 1.403 . S
C1115 C1112 1.403 . S
C1115 C1116 1.524 . S
C1115 C1119 1.400 . S
C1116 H1101 0.960 . S
C1116 H1102 0.960 . S
C1116 H1103 0.960 . S
C1116 C1115 1.524 . S
C1117 C1114 1.403 . S
C1117 C1118 1.392 . S
C1117 C1121 1.495 . S
C1118 C1117 1.392 . S
C1118 C1119 1.385 . S
C1118 C1120 1.478 . S
C1119 H1113 0.930 . S
C1119 C1115 1.400 . S
C1119 C1118 1.385 . S
C1120 C1118 1.478 . S
C1120 C1122 1.381 . S
C1120 C1126 1.383 . S
C1121 C1117 1.495 . S
C1121 H1127 0.959 . S
C1121 H1128 0.961 . S
C1121 H1129 0.960 . S
C1122 C1120 1.381 . S
C1122 C1123 1.394 . S
C1122 H1130 0.930 . S
C1123 C1122 1.394 . S
C1123 C1124 1.383 . S
C1123 H1131 0.929 . S
C1124 C1123 1.383 . S
C1124 C1125 1.377 . S
C1125 H1109 0.930 . S
C1125 C1124 1.377 . S
C1125 C1126 1.379 . S
C1126 H1110 0.931 . S
C1126 C1120 1.383 . S
C1126 C1125 1.379 . S
H1127 C1121 0.959 . S
H1128 C1121 0.961 . S
H1129 C1121 0.960 . S
H1130 C1122 0.930 . S
H1131 C1123 0.929 . S
H1132 C1140 0.929 . S
H1133 C1142 0.930 . S
H1134 C1144 0.930 . S
H1135 C1147 0.929 . S
H1136 C1150 0.930 . S
H1137 C1152 0.960 . S
H1138 C1152 0.960 . S
H1139 C1152 0.960 . S
C1140 H1132 0.929 . S
C1140 C1141 1.377 . S
C1140 C1142 1.384 . S
C1141 C1140 1.377 . S
C1141 C1147 1.390 . S
C1142 H1133 0.930 . S
C1142 C1140 1.384 . S
C1142 C1143 1.372 . S
C1143 C1142 1.372 . S
C1143 C1144 1.400 . S
C1143 C1148 1.490 . S
C1144 H1134 0.930 . S
C1144 C1143 1.400 . S
C1144 C1147 1.386 . S
H1145 C1161 0.930 . S
H1146 C1162 0.931 . S
C1147 H1135 0.929 . S
C1147 C1141 1.390 . S
C1147 C1144 1.386 . S
C1148 C1143 1.490 . S
C1148 C1150 1.395 . S
C1148 C1151 1.403 . S
H1149 C1155 0.930 . S
C1150 H1136 0.930 . S
C1150 C1148 1.395 . S
C1150 C1153 1.403 . S
C1151 C1148 1.403 . S
C1151 C1152 1.524 . S
C1151 C1155 1.400 . S
C1152 H1137 0.960 . S
C1152 H1138 0.960 . S
C1152 H1139 0.960 . S
C1152 C1151 1.524 . S
C1153 C1150 1.403 . S
C1153 C1154 1.392 . S
C1153 C1157 1.495 . S
C1154 C1153 1.392 . S
C1154 C1155 1.385 . S
C1154 C1156 1.478 . S
C1155 H1149 0.930 . S
C1155 C1151 1.400 . S
C1155 C1154 1.385 . S
C1156 C1154 1.478 . S
C1156 C1158 1.381 . S
C1156 C1162 1.383 . S
C1157 C1153 1.495 . S
C1157 H1163 0.959 . S
C1157 H1164 0.961 . S
C1157 H1165 0.960 . S
C1158 C1156 1.381 . S
C1158 C1159 1.394 . S
C1158 H1166 0.930 . S
C1159 C1158 1.394 . S
C1159 C1160 1.383 . S
C1159 H1167 0.929 . S
C1160 C1159 1.383 . S
C1160 C1161 1.377 . S
C1161 H1145 0.930 . S
C1161 C1160 1.377 . S
C1161 C1162 1.379 . S
C1162 H1146 0.931 . S
C1162 C1156 1.383 . S
C1162 C1161 1.379 . S
H1163 C1157 0.959 . S
H1164 C1157 0.961 . S
H1165 C1157 0.960 . S
H1166 C1158 0.930 . S
H1167 C1159 0.929 . S
H1168 C1176 0.929 . S
H1169 C1178 0.930 . S
H1170 C1180 0.930 . S
H1171 C1183 0.929 . S
H1172 C1186 0.930 . S
H1173 C1188 0.960 . S
H1174 C1188 0.960 . S
H1175 C1188 0.960 . S
C1176 H1168 0.929 . S
C1176 C1177 1.377 . S
C1176 C1178 1.384 . S
C1177 C1176 1.377 . S
C1177 C1183 1.390 . S
C1178 H1169 0.930 . S
C1178 C1176 1.384 . S
C1178 C1179 1.372 . S
C1179 C1178 1.372 . S
C1179 C1180 1.400 . S
C1179 C1184 1.490 . S
C1180 H1170 0.930 . S
C1180 C1179 1.400 . S
C1180 C1183 1.386 . S
H1181 C1197 0.930 . S
H1182 C1198 0.931 . S
C1183 H1171 0.929 . S
C1183 C1177 1.390 . S
C1183 C1180 1.386 . S
C1184 C1179 1.490 . S
C1184 C1186 1.395 . S
C1184 C1187 1.403 . S
H1185 C1191 0.930 . S
C1186 H1172 0.930 . S
C1186 C1184 1.395 . S
C1186 C1189 1.403 . S
C1187 C1184 1.403 . S
C1187 C1188 1.524 . S
C1187 C1191 1.400 . S
C1188 H1173 0.960 . S
C1188 H1174 0.960 . S
C1188 H1175 0.960 . S
C1188 C1187 1.524 . S
C1189 C1186 1.403 . S
C1189 C1190 1.392 . S
C1189 C1193 1.495 . S
C1190 C1189 1.392 . S
C1190 C1191 1.385 . S
C1190 C1192 1.478 . S
C1191 H1185 0.930 . S
C1191 C1187 1.400 . S
C1191 C1190 1.385 . S
C1192 C1190 1.478 . S
C1192 C1194 1.381 1_565 S
C1192 C1198 1.383 . S
C1193 C1189 1.495 . S
C1193 H1199 0.959 . S
C1193 H1200 0.961 . S
C1193 H1201 0.960 . S
C1194 C1192 1.381 1_545 S
C1194 C1195 1.394 . S
C1194 H1202 0.930 . S
C1195 C1194 1.394 . S
C1195 C1196 1.383 . S
C1195 H1203 0.929 . S
C1196 C1195 1.383 . S
C1196 C1197 1.377 . S
C1197 H1181 0.930 . S
C1197 C1196 1.377 . S
C1197 C1198 1.379 1_545 S
C1198 H1182 0.931 . S
C1198 C1192 1.383 . S
C1198 C1197 1.379 1_565 S
H1199 C1193 0.959 . S
H1200 C1193 0.961 . S
H1201 C1193 0.960 . S
H1202 C1194 0.930 . S
H1203 C1195 0.929 . S
H1204 C1212 0.929 . S
H1205 C1214 0.930 . S
H1206 C1216 0.930 . S
H1207 C1219 0.929 . S
H1208 C1222 0.930 . S
H1209 C1224 0.960 . S
H1210 C1224 0.960 . S
H1211 C1224 0.960 . S
C1212 H1204 0.929 . S
C1212 C1213 1.377 . S
C1212 C1214 1.384 . S
C1213 C1212 1.377 . S
C1213 C1219 1.390 . S
C1214 H1205 0.930 . S
C1214 C1212 1.384 . S
C1214 C1215 1.372 . S
C1215 C1214 1.372 . S
C1215 C1216 1.400 . S
C1215 C1220 1.490 . S
C1216 H1206 0.930 . S
C1216 C1215 1.400 . S
C1216 C1219 1.386 . S
H1217 C1233 0.930 . S
H1218 C1234 0.931 . S
C1219 H1207 0.929 . S
C1219 C1213 1.390 . S
C1219 C1216 1.386 . S
C1220 C1215 1.490 . S
C1220 C1222 1.395 . S
C1220 C1223 1.403 . S
H1221 C1227 0.930 . S
C1222 H1208 0.930 . S
C1222 C1220 1.395 . S
C1222 C1225 1.403 . S
C1223 C1220 1.403 . S
C1223 C1224 1.524 . S
C1223 C1227 1.400 . S
C1224 H1209 0.960 . S
C1224 H1210 0.960 . S
C1224 H1211 0.960 . S
C1224 C1223 1.524 . S
C1225 C1222 1.403 . S
C1225 C1226 1.392 . S
C1225 C1229 1.495 . S
C1226 C1225 1.392 . S
C1226 C1227 1.385 . S
C1226 C1228 1.478 . S
C1227 H1221 0.930 . S
C1227 C1223 1.400 . S
C1227 C1226 1.385 . S
C1228 C1226 1.478 . S
C1228 C1230 1.381 . S
C1228 C1234 1.383 . S
C1229 C1225 1.495 . S
C1229 H1235 0.959 . S
C1229 H1236 0.961 . S
C1229 H1237 0.960 . S
C1230 C1228 1.381 . S
C1230 C1231 1.394 . S
C1230 H1238 0.930 . S
C1231 C1230 1.394 . S
C1231 C1232 1.383 . S
C1231 H1239 0.929 . S
C1232 C1231 1.383 . S
C1232 C1233 1.377 . S
C1233 H1217 0.930 . S
C1233 C1232 1.377 . S
C1233 C1234 1.379 . S
C1234 H1218 0.931 . S
C1234 C1228 1.383 . S
C1234 C1233 1.379 . S
H1235 C1229 0.959 . S
H1236 C1229 0.961 . S
H1237 C1229 0.960 . S
H1238 C1230 0.930 . S
H1239 C1231 0.929 . S
C404 C118 1.526 . S
C385 C5 1.373 . S
C440 C157 1.536 . S
C421 C16 1.305 . S
C476 C133 1.738 . S
C457 C30 1.743 . S
C512 C172 1.667 . S
C493 C40 1.632 . S
C548 C220 1.432 . S
C529 C8 1.430 . S
C584 C253 1.468 . S
C565 C18 1.415 . S
C601 C29 1.772 . S
C620 C310 1.801 . S
C656 C358 1.570 . S
C637 C38 1.318 . S
C692 C205 1.396 . S
C673 C19 1.380 . S
C709 C27 1.487 . S
C728 C268 1.649 . S
C764 C325 1.625 . S
C745 C41 1.608 . S
C800 C373 1.537 . S
C781 C7 1.488 . S
C817 C52 1.614 . S
C836 C166 1.625 . S
C872 C109 1.597 . S
C853 C62 1.564 . S
C889 C74 1.394 . S
C908 C181 1.407 . S
C925 C82 1.220 . S
C944 C124 1.393 . S
C980 C301 1.876 . S
C961 C51 1.784 . S
C1016 C364 1.612 . S
C997 C60 1.400 . S
C1052 C229 1.433 . S
C1033 C71 1.248 . S
C1069 C84 1.461 . S
C1088 C277 1.515 . S
C1124 C316 1.755 . S
C1105 C63 1.753 . S
C1160 C349 1.478 . S
C1141 C73 1.426 . S
C1196 C214 1.538 . S
C1177 C85 1.538 . S
C1213 C49 1.383 . S
C1232 C262 1.671 . S
