# Generated by pormake.
# Topology ctn, (3,4)-cn, num edge types: 1
# Building blocks:
#     Node 0, Type 0, BuildingBlock: VETTIZ_charged_linker_0, # of connection points: 3
#     Node 1, Type 0, BuildingBlock: VETTIZ_charged_linker_0, # of connection points: 3
#     Node 2, Type 0, BuildingBlock: VETTIZ_charged_linker_0, # of connection points: 3
#     Node 3, Type 0, BuildingBlock: VETTIZ_charged_linker_0, # of connection points: 3
#     Node 4, Type 0, BuildingBlock: VETTIZ_charged_linker_0, # of connection points: 3
#     Node 5, Type 0, BuildingBlock: VETTIZ_charged_linker_0, # of connection points: 3
#     Node 6, Type 0, BuildingBlock: VETTIZ_charged_linker_0, # of connection points: 3
#     Node 7, Type 0, BuildingBlock: VETTIZ_charged_linker_0, # of connection points: 3
#     Node 8, Type 0, BuildingBlock: VETTIZ_charged_linker_0, # of connection points: 3
#     Node 9, Type 0, BuildingBlock: VETTIZ_charged_linker_0, # of connection points: 3
#     Node 10, Type 0, BuildingBlock: VETTIZ_charged_linker_0, # of connection points: 3
#     Node 11, Type 0, BuildingBlock: VETTIZ_charged_linker_0, # of connection points: 3
#     Node 12, Type 0, BuildingBlock: VETTIZ_charged_linker_0, # of connection points: 3
#     Node 13, Type 0, BuildingBlock: VETTIZ_charged_linker_0, # of connection points: 3
#     Node 14, Type 0, BuildingBlock: VETTIZ_charged_linker_0, # of connection points: 3
#     Node 15, Type 0, BuildingBlock: VETTIZ_charged_linker_0, # of connection points: 3
#     Node 16, Type 1, BuildingBlock: NAHDIM_clean_sbu_0, # of connection points: 4
#     Node 17, Type 1, BuildingBlock: NAHDIM_clean_sbu_0, # of connection points: 4
#     Node 18, Type 1, BuildingBlock: NAHDIM_clean_sbu_0, # of connection points: 4
#     Node 19, Type 1, BuildingBlock: NAHDIM_clean_sbu_0, # of connection points: 4
#     Node 20, Type 1, BuildingBlock: NAHDIM_clean_sbu_0, # of connection points: 4
#     Node 21, Type 1, BuildingBlock: NAHDIM_clean_sbu_0, # of connection points: 4
#     Node 22, Type 1, BuildingBlock: NAHDIM_clean_sbu_0, # of connection points: 4
#     Node 23, Type 1, BuildingBlock: NAHDIM_clean_sbu_0, # of connection points: 4
#     Node 24, Type 1, BuildingBlock: NAHDIM_clean_sbu_0, # of connection points: 4
#     Node 25, Type 1, BuildingBlock: NAHDIM_clean_sbu_0, # of connection points: 4
#     Node 26, Type 1, BuildingBlock: NAHDIM_clean_sbu_0, # of connection points: 4
#     Node 27, Type 1, BuildingBlock: NAHDIM_clean_sbu_0, # of connection points: 4
#     Edge 28, Type (0, 1), BuildingBlock: XUDNAN_clean_linker_2, # of connection points: 2
#     Edge 29, Type (0, 1), BuildingBlock: XUDNAN_clean_linker_2, # of connection points: 2
#     Edge 30, Type (0, 1), BuildingBlock: XUDNAN_clean_linker_2, # of connection points: 2
#     Edge 31, Type (0, 1), BuildingBlock: XUDNAN_clean_linker_2, # of connection points: 2
#     Edge 32, Type (0, 1), BuildingBlock: XUDNAN_clean_linker_2, # of connection points: 2
#     Edge 33, Type (0, 1), BuildingBlock: XUDNAN_clean_linker_2, # of connection points: 2
#     Edge 34, Type (0, 1), BuildingBlock: XUDNAN_clean_linker_2, # of connection points: 2
#     Edge 35, Type (0, 1), BuildingBlock: XUDNAN_clean_linker_2, # of connection points: 2
#     Edge 36, Type (0, 1), BuildingBlock: XUDNAN_clean_linker_2, # of connection points: 2
#     Edge 37, Type (0, 1), BuildingBlock: XUDNAN_clean_linker_2, # of connection points: 2
#     Edge 38, Type (0, 1), BuildingBlock: XUDNAN_clean_linker_2, # of connection points: 2
#     Edge 39, Type (0, 1), BuildingBlock: XUDNAN_clean_linker_2, # of connection points: 2
#     Edge 40, Type (0, 1), BuildingBlock: XUDNAN_clean_linker_2, # of connection points: 2
#     Edge 41, Type (0, 1), BuildingBlock: XUDNAN_clean_linker_2, # of connection points: 2
#     Edge 42, Type (0, 1), BuildingBlock: XUDNAN_clean_linker_2, # of connection points: 2
#     Edge 43, Type (0, 1), BuildingBlock: XUDNAN_clean_linker_2, # of connection points: 2
#     Edge 44, Type (0, 1), BuildingBlock: XUDNAN_clean_linker_2, # of connection points: 2
#     Edge 45, Type (0, 1), BuildingBlock: XUDNAN_clean_linker_2, # of connection points: 2
#     Edge 46, Type (0, 1), BuildingBlock: XUDNAN_clean_linker_2, # of connection points: 2
#     Edge 47, Type (0, 1), BuildingBlock: XUDNAN_clean_linker_2, # of connection points: 2
#     Edge 48, Type (0, 1), BuildingBlock: XUDNAN_clean_linker_2, # of connection points: 2
#     Edge 49, Type (0, 1), BuildingBlock: XUDNAN_clean_linker_2, # of connection points: 2
#     Edge 50, Type (0, 1), BuildingBlock: XUDNAN_clean_linker_2, # of connection points: 2
#     Edge 51, Type (0, 1), BuildingBlock: XUDNAN_clean_linker_2, # of connection points: 2
#     Edge 52, Type (0, 1), BuildingBlock: XUDNAN_clean_linker_2, # of connection points: 2
#     Edge 53, Type (0, 1), BuildingBlock: XUDNAN_clean_linker_2, # of connection points: 2
#     Edge 54, Type (0, 1), BuildingBlock: XUDNAN_clean_linker_2, # of connection points: 2
#     Edge 55, Type (0, 1), BuildingBlock: XUDNAN_clean_linker_2, # of connection points: 2
#     Edge 56, Type (0, 1), BuildingBlock: XUDNAN_clean_linker_2, # of connection points: 2
#     Edge 57, Type (0, 1), BuildingBlock: XUDNAN_clean_linker_2, # of connection points: 2
#     Edge 58, Type (0, 1), BuildingBlock: XUDNAN_clean_linker_2, # of connection points: 2
#     Edge 59, Type (0, 1), BuildingBlock: XUDNAN_clean_linker_2, # of connection points: 2
#     Edge 60, Type (0, 1), BuildingBlock: XUDNAN_clean_linker_2, # of connection points: 2
#     Edge 61, Type (0, 1), BuildingBlock: XUDNAN_clean_linker_2, # of connection points: 2
#     Edge 62, Type (0, 1), BuildingBlock: XUDNAN_clean_linker_2, # of connection points: 2
#     Edge 63, Type (0, 1), BuildingBlock: XUDNAN_clean_linker_2, # of connection points: 2
#     Edge 64, Type (0, 1), BuildingBlock: XUDNAN_clean_linker_2, # of connection points: 2
#     Edge 65, Type (0, 1), BuildingBlock: XUDNAN_clean_linker_2, # of connection points: 2
#     Edge 66, Type (0, 1), BuildingBlock: XUDNAN_clean_linker_2, # of connection points: 2
#     Edge 67, Type (0, 1), BuildingBlock: XUDNAN_clean_linker_2, # of connection points: 2
#     Edge 68, Type (0, 1), BuildingBlock: XUDNAN_clean_linker_2, # of connection points: 2
#     Edge 69, Type (0, 1), BuildingBlock: XUDNAN_clean_linker_2, # of connection points: 2
#     Edge 70, Type (0, 1), BuildingBlock: XUDNAN_clean_linker_2, # of connection points: 2
#     Edge 71, Type (0, 1), BuildingBlock: XUDNAN_clean_linker_2, # of connection points: 2
#     Edge 72, Type (0, 1), BuildingBlock: XUDNAN_clean_linker_2, # of connection points: 2
#     Edge 73, Type (0, 1), BuildingBlock: XUDNAN_clean_linker_2, # of connection points: 2
#     Edge 74, Type (0, 1), BuildingBlock: XUDNAN_clean_linker_2, # of connection points: 2
#     Edge 75, Type (0, 1), BuildingBlock: XUDNAN_clean_linker_2, # of connection points: 2
# Relax obj value: 0.002
# Max RMSD: 0.034
# Mean RMSD: 0.017
data_MOF--net-ctn--node1-NAHDIM_clean_sbu_0--node2-VETTIZ_charged_linker_0--edge1-XUDNAN_clean_linker_2
_symmetry_space_group_name_H-M    P1
_symmetry_Int_Tables_number       1
_symmetry_cell_setting            triclinic
loop_
_symmetry_equiv_pos_as_xyz
'x, y, z'
_cell_length_a     66.987618
_cell_length_b     67.418455
_cell_length_c     66.70729
_cell_angle_alpha  91.112467
_cell_angle_beta   90.008688
_cell_angle_gamma 92.045149
loop_
_atom_site_label
_atom_site_type_symbol
_atom_site_fract_x
_atom_site_fract_y
_atom_site_fract_z
_atom_type_partial_charge
C0 C 0.04048 0.10825 0.00411 0.0
C1 C 0.0256 0.12148 0.0098 0.0
C2 C 0.01259 0.11635 0.02564 0.0
C3 C 0.02955 0.08565 0.0302 0.0
C4 C 0.04225 0.09052 0.01457 0.0
C5 C 0.05751 0.07497 0.01093 0.0
H6 H 0.09711 0.98797 0.03762 0.0
C7 C 0.03554 0.06649 0.03825 0.0
C8 C 0.05202 0.06017 0.02712 0.0
H9 H 0.11439 0.02518 0.98812 0.0
H10 H 0.08919 0.04847 0.99746 0.0
H11 H 0.08957 0.02396 0.07075 0.0
H12 H 0.0517 0.98991 0.0298 0.0
H13 H 0.03752 0.99376 0.05151 0.0
H14 H 0.06005 0.97994 0.05295 0.0
H15 H 0.08324 0.99811 0.07392 0.0
H16 H 0.06749 0.01721 0.0836 0.0
C17 C 0.07853 0.08474 0.01437 0.0
C18 C 0.05412 0.066 0.98958 0.0
C19 C 0.9958 0.0352 0.09515 0.0
C20 C 0.9975 0.01735 0.10548 0.0
C21 C 0.01367 0.00517 0.10101 0.0
C22 C 0.02763 0.01043 0.08624 0.0
C23 C 0.02544 0.02805 0.07568 0.0
C24 C 0.00984 0.0402 0.08034 0.0
C25 C 0.00987 0.05832 0.06754 0.0
C26 C 0.02781 0.05482 0.05416 0.0
C27 C 0.03686 0.03709 0.059 0.0
C28 C 0.01315 0.07686 0.08143 0.0
C29 C 0.9901 0.05785 0.05543 0.0
C30 C 0.09566 0.00132 0.02904 0.0
C31 C 0.10782 0.0049 0.01226 0.0
C32 C 0.10515 0.02216 0.00111 0.0
C33 C 0.09052 0.03563 0.00656 0.0
C34 C 0.07822 0.0317 0.0232 0.0
C35 C 0.08088 0.01474 0.03409 0.0
C36 C 0.0657 0.01232 0.05054 0.0
C37 C 0.05364 0.03073 0.04791 0.0
C38 C 0.06111 0.04212 0.03198 0.0
C39 C 0.07695 0.01277 0.07084 0.0
C40 C 0.0531 0.99295 0.0462 0.0
H41 H 0.0041 0.09562 0.04773 0.0
H42 H 0.05078 0.11181 0.99208 0.0
H43 H 0.038 0.06562 0.98552 0.0
H44 H 0.05849 0.05038 0.98825 0.0
H45 H 0.0623 0.07489 0.97817 0.0
H46 H 0.07849 0.095 0.02764 0.0
H47 H 0.08338 0.0935 0.00119 0.0
H48 H 0.09 0.07393 0.01765 0.0
H49 H 0.9835 0.04483 0.09811 0.0
H50 H 0.01553 0.99152 0.10899 0.0
H51 H 0.0395 0.00047 0.0835 0.0
H52 H 0.02249 0.07346 0.09464 0.0
H53 H 0.99873 0.08229 0.08716 0.0
H54 H 0.02145 0.08914 0.07403 0.0
H55 H 0.98582 0.04241 0.05051 0.0
H56 H 0.99119 0.06632 0.04146 0.0
H57 H 0.97765 0.06355 0.06464 0.0
H58 H 1.0008 0.1261 0.03011 0.0
C59 C 0.01448 0.09857 0.03583 0.0
C60 C 0.24581 0.65631 0.23411 0.0
C61 C 0.22862 0.65076 0.22298 0.0
C62 C 0.22401 0.6616 0.20582 0.0
C63 C 0.25317 0.68341 0.21149 0.0
C64 C 0.25785 0.6725 0.22808 0.0
C65 C 0.27677 0.68008 0.23814 0.0
H66 H 0.35592 0.74524 0.24131 0.0
C67 C 0.26871 0.69941 0.20947 0.0
C68 C 0.28264 0.69742 0.22496 0.0
H69 H 0.34199 0.69713 0.28148 0.0
H70 H 0.31186 0.68887 0.26294 0.0
H71 H 0.31109 0.76064 0.23944 0.0
H72 H 0.34345 0.72173 0.20027 0.0
H73 H 0.33005 0.73774 0.18519 0.0
H74 H 0.34895 0.74797 0.20207 0.0
H75 H 0.33044 0.7697 0.22305 0.0
H76 H 0.30489 0.76645 0.21473 0.0
C77 C 0.27156 0.68697 0.25977 0.0
C78 C 0.29213 0.66343 0.23689 0.0
C79 C 0.26263 0.75067 0.15505 0.0
C80 C 0.27454 0.76733 0.14964 0.0
C81 C 0.29258 0.77149 0.16006 0.0
C82 C 0.29845 0.75952 0.17583 0.0
C83 C 0.28618 0.74315 0.1813 0.0
C84 C 0.26872 0.73884 0.17082 0.0
C85 C 0.25771 0.72068 0.17851 0.0
C86 C 0.27119 0.71511 0.19566 0.0
C87 C 0.28783 0.72834 0.19725 0.0
C88 C 0.23694 0.72691 0.18604 0.0
C89 C 0.25701 0.70462 0.16155 0.0
C90 C 0.34641 0.73286 0.246 0.0
C91 C 0.35136 0.72178 0.26286 0.0
C92 C 0.33842 0.70599 0.26868 0.0
C93 C 0.32098 0.70114 0.2578 0.0
C94 C 0.31629 0.71224 0.24091 0.0
C95 C 0.32882 0.7279 0.23536 0.0
C96 C 0.32112 0.73835 0.21733 0.0
C97 C 0.30209 0.72614 0.21277 0.0
C98 C 0.29941 0.71084 0.22661 0.0
C99 C 0.31673 0.75997 0.22376 0.0
C100 C 0.33667 0.73656 0.20026 0.0
H101 H 0.23174 0.68567 0.18697 0.0
H102 H 0.24995 0.64808 0.24717 0.0
H103 H 0.29065 0.65494 0.22246 0.0
H104 H 0.30778 0.66916 0.23716 0.0
H105 H 0.28986 0.65274 0.24922 0.0
H106 H 0.25645 0.69331 0.26035 0.0
H107 H 0.2716 0.67438 0.27026 0.0
H108 H 0.28171 0.69902 0.26555 0.0
H109 H 0.24885 0.74687 0.14714 0.0
H110 H 0.30197 0.78429 0.15629 0.0
H111 H 0.31224 0.76358 0.18326 0.0
H112 H 0.23817 0.7414 0.19431 0.0
H113 H 0.2265 0.7286 0.17329 0.0
H114 H 0.23009 0.71642 0.19672 0.0
H115 H 0.27047 0.70589 0.15183 0.0
H116 H 0.25713 0.68936 0.16731 0.0
H117 H 0.2437 0.70608 0.15183 0.0
H118 H 0.21079 0.65766 0.19705 0.0
C119 C 0.23615 0.67791 0.20005 0.0
C120 C 0.98747 0.41488 0.99255 0.0
C121 C 0.97652 0.40986 0.97508 0.0
C122 C 0.95992 0.42112 0.97019 0.0
C123 C 0.96558 0.44206 0.9998 0.0
C124 C 0.98173 0.43091 0.00463 0.0
C125 C 0.99153 0.43786 0.02391 0.0
H126 H 0.99375 0.49914 0.10544 0.0
C127 C 0.96368 0.45768 0.01552 0.0
C128 C 0.97882 0.45528 0.02969 0.0
H129 H 0.03128 0.44988 0.09146 0.0
H130 H 0.01472 0.44465 0.05981 0.0
H131 H 0.95214 0.47825 0.089 0.0
H132 H 0.99499 0.51729 0.05967 0.0
H133 H 0.97088 0.52396 0.05268 0.0
H134 H 0.97837 0.52623 0.07865 0.0
H135 H 0.95661 0.50369 0.09676 0.0
H136 H 0.93953 0.49708 0.07674 0.0
C137 C 0.98947 0.42077 0.03913 0.0
C138 C 0.01335 0.44465 0.01916 0.0
C139 C 0.90918 0.50741 0.00972 0.0
C140 C 0.9043 0.52459 0.02072 0.0
C141 C 0.91542 0.52964 0.03819 0.0
C142 C 0.93125 0.51797 0.04432 0.0
C143 C 0.93611 0.50109 0.03284 0.0
C144 C 0.92513 0.49617 0.01581 0.0
C145 C 0.93278 0.47836 0.0048 0.0
C146 C 0.95018 0.47328 0.01801 0.0
C147 C 0.952 0.48646 0.03458 0.0
C148 C 0.9161 0.46182 0.00472 0.0
C149 C 0.93973 0.48491 0.98368 0.0
C150 C 0.99844 0.48739 0.09539 0.0
C151 C 0.01364 0.47471 0.10104 0.0
C152 C 0.01937 0.45958 0.0876 0.0
C153 C 0.00973 0.45658 0.06918 0.0
C154 C 0.99407 0.46877 0.06402 0.0
C155 C 0.98876 0.48405 0.07684 0.0
C156 C 0.97162 0.49535 0.0686 0.0
C157 C 0.96721 0.48387 0.04912 0.0
C158 C 0.98051 0.46837 0.04658 0.0
C159 C 0.95399 0.49369 0.08352 0.0
C160 C 0.97917 0.51691 0.06478 0.0
H161 H 0.94167 0.44517 0.97785 0.0
H162 H 1.00006 0.40631 0.99695 0.0
H163 H 0.01423 0.45214 0.00445 0.0
H164 H 0.01956 0.45574 0.03008 0.0
H165 H 0.02327 0.4318 0.01838 0.0
H166 H 0.97577 0.41134 0.0362 0.0
H167 H 0.00244 0.41098 0.03825 0.0
H168 H 0.98772 0.42617 0.05476 0.0
H169 H 0.90081 0.50271 0.99647 0.0
H170 H 0.91221 0.54285 0.04691 0.0
H171 H 0.93922 0.52265 0.05764 0.0
H172 H 0.90768 0.46196 0.0191 0.0
H173 H 0.90525 0.4639 0.99242 0.0
H174 H 0.92195 0.44675 0.00343 0.0
H175 H 0.94594 0.50045 0.98411 0.0
H176 H 0.95199 0.47605 0.97763 0.0
H177 H 0.92711 0.48423 0.97286 0.0
H178 H 0.95131 0.41765 0.95675 0.0
C179 C 0.95441 0.43718 0.98242 0.0
C180 C 0.65788 0.79889 0.25775 0.0
C181 C 0.6428 0.7841 0.25482 0.0
C182 C 0.64454 0.77049 0.23861 0.0
C183 C 0.67548 0.78722 0.22823 0.0
C184 C 0.67385 0.80024 0.24435 0.0
C185 C 0.69059 0.81561 0.24526 0.0
H186 H 0.77406 0.85731 0.20504 0.0
C187 C 0.69365 0.79327 0.21689 0.0
C188 C 0.70247 0.80992 0.22684 0.0
H189 H 0.74382 0.87374 0.25984 0.0
H190 H 0.71932 0.84727 0.2544 0.0
H191 H 0.73423 0.84883 0.17849 0.0
H192 H 0.77085 0.81031 0.21228 0.0
H193 H 0.76449 0.79781 0.18971 0.0
H194 H 0.77888 0.82091 0.18903 0.0
H195 H 0.75843 0.84176 0.17001 0.0
H196 H 0.73621 0.82676 0.16434 0.0
C197 C 0.68144 0.8363 0.2433 0.0
C198 C 0.7025 0.81276 0.26489 0.0
C199 C 0.71254 0.75612 0.15285 0.0
C200 C 0.72765 0.75952 0.13862 0.0
C201 C 0.74169 0.77529 0.14166 0.0
C202 C 0.74068 0.78768 0.1587 0.0
C203 C 0.72532 0.78439 0.17273 0.0
C204 C 0.71157 0.7688 0.16972 0.0
C205 C 0.69575 0.76819 0.18576 0.0
C206 C 0.70242 0.7858 0.19899 0.0
C207 C 0.71978 0.79519 0.19127 0.0
C208 C 0.67527 0.77137 0.17575 0.0
C209 C 0.69705 0.74832 0.19683 0.0
C210 C 0.76203 0.85524 0.21573 0.0
C211 C 0.76085 0.86757 0.23291 0.0
C212 C 0.74515 0.86429 0.24662 0.0
C213 C 0.73088 0.84892 0.24339 0.0
C214 C 0.73228 0.83659 0.22628 0.0
C215 C 0.74769 0.83976 0.21282 0.0
C216 C 0.74697 0.82474 0.19579 0.0
C217 C 0.7286 0.8121 0.20132 0.0
C218 C 0.72004 0.81927 0.21908 0.0
C219 C 0.74395 0.83596 0.17603 0.0
C220 C 0.76631 0.81282 0.19651 0.0
H221 H 0.66121 0.76132 0.21317 0.0
H222 H 0.6573 0.80932 0.27028 0.0
H223 H 0.70187 0.79696 0.26945 0.0
H224 H 0.71862 0.81647 0.26328 0.0
H225 H 0.69639 0.82171 0.27747 0.0
H226 H 0.66858 0.8356 0.23271 0.0
H227 H 0.67591 0.84184 0.258 0.0
H228 H 0.69193 0.84755 0.23703 0.0
H229 H 0.70138 0.74426 0.15055 0.0
H230 H 0.7533 0.77815 0.13067 0.0
H231 H 0.75174 0.79953 0.16012 0.0
H232 H 0.67683 0.78191 0.16317 0.0
H233 H 0.6687 0.75717 0.16957 0.0
H234 H 0.66442 0.77813 0.18603 0.0
H235 H 0.71291 0.74462 0.19925 0.0
H236 H 0.69032 0.74879 0.21191 0.0
H237 H 0.68979 0.73595 0.18797 0.0
H238 H 0.63311 0.75897 0.23596 0.0
C239 C 0.6608 0.77197 0.22532 0.0
C240 C 0.04957 0.92215 0.5114 0.0
C241 C 0.0354 0.90621 0.51017 0.0
C242 C 0.02076 0.90618 0.49497 0.0
C243 C 0.03456 0.93734 0.48257 0.0
C244 C 0.04885 0.93749 0.49753 0.0
C245 C 0.06276 0.95551 0.4967 0.0
H246 H 0.08916 0.04251 0.45281 0.0
C247 C 0.03798 0.95535 0.47056 0.0
C248 C 0.05445 0.96612 0.4788 0.0
H249 H 0.11749 0.01547 0.50312 0.0
H250 H 0.09384 0.98754 0.50087 0.0
H251 H 0.04345 0.03219 0.46579 0.0
H252 H 0.08487 0.0032 0.42673 0.0
H253 H 0.06131 0.99997 0.41545 0.0
H254 H 0.07198 0.02472 0.41925 0.0
H255 H 0.05117 0.04198 0.44207 0.0
H256 H 0.03035 0.02443 0.44401 0.0
C257 C 0.06043 0.96767 0.51644 0.0
C258 C 0.08418 0.94843 0.49276 0.0
C259 C 0.99458 0.96657 0.40957 0.0
C260 C 0.9947 0.98141 0.39499 0.0
C261 C 0.00819 0.99785 0.39722 0.0
C262 C 0.02164 0.99922 0.41333 0.0
C263 C 0.02172 0.98397 0.42741 0.0
C264 C 0.00819 0.96811 0.4255 0.0
C265 C 0.01057 0.95318 0.44174 0.0
C266 C 0.02803 0.96252 0.45348 0.0
C267 C 0.03446 0.98055 0.44504 0.0
C268 C 0.99112 0.95239 0.45432 0.0
C269 C 0.01591 0.93313 0.4317 0.0
C270 C 0.09015 0.03064 0.46344 0.0
C271 C 0.10508 0.03124 0.47826 0.0
C272 C 0.10616 0.01528 0.49153 0.0
C273 C 0.09235 0.99914 0.49025 0.0
C274 C 0.07738 0.99885 0.47544 0.0
C275 C 0.07661 0.01436 0.46225 0.0
C276 C 0.06021 0.01129 0.44702 0.0
C277 C 0.05097 0.99156 0.45346 0.0
C278 C 0.061 0.98435 0.47017 0.0
C279 C 0.0455 0.02837 0.44964 0.0
C280 C 0.06992 0.00984 0.42595 0.0
H281 H 0.0088 0.92062 0.46998 0.0
H282 H 0.06088 0.92279 0.52301 0.0
H283 H 0.08391 0.935 0.48279 0.0
H284 H 0.09366 0.95948 0.48483 0.0
H285 H 0.09164 0.94458 0.50697 0.0
H286 H 0.04449 0.96772 0.52114 0.0
H287 H 0.06908 0.96123 0.52879 0.0
H288 H 0.06502 0.98346 0.51502 0.0
H289 H 0.98422 0.95389 0.40852 0.0
H290 H 0.00877 0.0094 0.38616 0.0
H291 H 0.03168 0.01197 0.414 0.0
H292 H 0.98441 0.96724 0.45533 0.0
H293 H 0.97979 0.94188 0.4475 0.0
H294 H 0.99366 0.94832 0.47005 0.0
H295 H 0.0259 0.93557 0.41858 0.0
H296 H 0.02427 0.92354 0.44167 0.0
H297 H 0.00228 0.92483 0.42625 0.0
H298 H 0.00984 0.89401 0.49346 0.0
C299 C 0.02025 0.92162 0.48123 0.0
C300 C 0.2665 0.67012 0.80456 0.0
C301 C 0.26555 0.65359 0.79137 0.0
C302 C 0.25054 0.6525 0.77649 0.0
C303 C 0.23761 0.68375 0.78852 0.0
C304 C 0.25249 0.6849 0.80289 0.0
C305 C 0.25144 0.70326 0.81594 0.0
H306 H 0.2075 0.78961 0.83875 0.0
C307 C 0.22538 0.70151 0.79103 0.0
C308 C 0.2335 0.713 0.80705 0.0
H309 H 0.25778 0.76404 0.86807 0.0
H310 H 0.25547 0.73565 0.84549 0.0
H311 H 0.18149 0.74927 0.8358 0.0
H312 H 0.22025 0.77859 0.79339 0.0
H313 H 0.19892 0.76972 0.78023 0.0
H314 H 0.19632 0.78773 0.80032 0.0
H315 H 0.1742 0.77078 0.82259 0.0
H316 H 0.1701 0.74604 0.81224 0.0
C317 C 0.24758 0.69676 0.83782 0.0
C318 C 0.27098 0.71587 0.81297 0.0
C319 C 0.1646 0.7104 0.74667 0.0
C320 C 0.15039 0.72527 0.74575 0.0
C321 C 0.15257 0.74202 0.75865 0.0
C322 C 0.16837 0.74382 0.7724 0.0
C323 C 0.18223 0.7287 0.77336 0.0
C324 C 0.18032 0.71241 0.76052 0.0
C325 C 0.19655 0.69788 0.76364 0.0
C326 C 0.20827 0.70797 0.78073 0.0
C327 C 0.19977 0.726 0.78635 0.0
C328 C 0.18664 0.67788 0.76999 0.0
C329 C 0.20906 0.69664 0.74416 0.0
C330 C 0.21809 0.77793 0.84017 0.0
C331 C 0.23292 0.77908 0.85511 0.0
C332 C 0.24616 0.76342 0.85675 0.0
C333 C 0.24485 0.74699 0.84355 0.0
C334 C 0.23004 0.74611 0.82859 0.0
C335 C 0.21685 0.76133 0.82722 0.0
C336 C 0.20166 0.75753 0.81086 0.0
C337 C 0.20812 0.73769 0.80241 0.0
C338 C 0.2248 0.73114 0.81278 0.0
C339 C 0.1807 0.75594 0.8207 0.0
C340 C 0.20419 0.77427 0.79537 0.0
H341 H 0.22543 0.66569 0.76351 0.0
H342 H 0.27799 0.67161 0.81597 0.0
H343 H 0.27585 0.71524 0.79703 0.0
H344 H 0.26927 0.7318 0.81639 0.0
H345 H 0.28328 0.71033 0.82226 0.0
H346 H 0.23836 0.68271 0.83822 0.0
H347 H 0.26181 0.6942 0.84575 0.0
H348 H 0.23893 0.70755 0.84659 0.0
H349 H 0.16353 0.69746 0.7368 0.0
H350 H 0.14176 0.75358 0.75846 0.0
H351 H 0.16906 0.75685 0.78189 0.0
H352 H 0.17405 0.68041 0.78051 0.0
H353 H 0.18055 0.6694 0.75677 0.0
H354 H 0.19688 0.66844 0.77816 0.0
H355 H 0.21018 0.71129 0.73676 0.0
H356 H 0.22468 0.69275 0.7469 0.0
H357 H 0.20216 0.68577 0.73326 0.0
H358 H 0.24934 0.63985 0.76625 0.0
C359 C 0.23658 0.66747 0.77501 0.0
C360 C 0.90132 0.50458 0.49499 0.0
C361 C 0.89662 0.48651 0.48486 0.0
C362 C 0.90862 0.48075 0.46852 0.0
C363 C 0.92966 0.51057 0.47297 0.0
C364 C 0.91783 0.51624 0.48888 0.0
C365 C 0.9251 0.53552 0.49849 0.0
H366 H 0.99431 0.61087 0.50502 0.0
C367 C 0.94579 0.52595 0.47073 0.0
C368 C 0.9432 0.54058 0.48564 0.0
H369 H 0.94217 0.60009 0.54205 0.0
H370 H 0.93273 0.57147 0.52183 0.0
H371 H 0.97097 0.60129 0.46272 0.0
H372 H 0.00678 0.56485 0.49995 0.0
H373 H 0.01418 0.56182 0.47475 0.0
H374 H 0.01692 0.58589 0.48675 0.0
H375 H 0.99769 0.60422 0.46355 0.0
H376 H 0.98528 0.58635 0.44684 0.0
C377 C 0.90853 0.55081 0.4962 0.0
C378 C 0.93096 0.53136 0.52047 0.0
C379 C 0.99678 0.51871 0.41515 0.0
C380 C 0.0128 0.53086 0.40835 0.0
C381 C 0.01763 0.54868 0.41903 0.0
C382 C 0.0065 0.55439 0.43591 0.0
C383 C 0.99028 0.54223 0.44219 0.0
C384 C 0.98569 0.52473 0.43179 0.0
C385 C 0.9676 0.51391 0.44005 0.0
C386 C 0.96197 0.52782 0.45707 0.0
C387 C 0.97539 0.54432 0.45843 0.0
C388 C 0.95137 0.51252 0.42344 0.0
C389 C 0.97413 0.4936 0.44777 0.0
C390 C 0.98079 0.6024 0.50862 0.0
C391 C 0.96918 0.60756 0.52542 0.0
C392 C 0.95165 0.59617 0.52954 0.0
C393 C 0.94613 0.57955 0.5177 0.0
C394 C 0.9582 0.57411 0.50146 0.0
C395 C 0.97504 0.5856 0.4969 0.0
C396 C 0.98577 0.57753 0.47878 0.0
C397 C 0.97289 0.55906 0.4737 0.0
C398 C 0.95681 0.55719 0.48711 0.0
C399 C 0.9851 0.59311 0.46205 0.0
C400 C 0.00711 0.57231 0.48521 0.0
H401 H 0.93367 0.48737 0.45009 0.0
H402 H 0.89231 0.50964 0.50743 0.0
H403 H 0.93722 0.51636 0.52173 0.0
H404 H 0.94286 0.54162 0.52635 0.0
H405 H 0.91779 0.53194 0.53056 0.0
H406 H 0.90027 0.54831 0.48184 0.0
H407 H 0.89749 0.54967 0.50858 0.0
H408 H 0.91451 0.56627 0.4955 0.0
H409 H 0.99279 0.50475 0.40763 0.0
H410 H 0.02972 0.55848 0.41408 0.0
H411 H 0.01082 0.56816 0.4433 0.0
H412 H 0.95194 0.52603 0.4141 0.0
H413 H 0.95352 0.49951 0.4133 0.0
H414 H 0.93602 0.51175 0.42947 0.0
H415 H 0.98933 0.49492 0.45451 0.0
H416 H 0.96446 0.48778 0.45986 0.0
H417 H 0.97456 0.48239 0.43537 0.0
H418 H 0.90552 0.46682 0.46058 0.0
C419 C 0.92507 0.49266 0.46253 0.0
C420 C 0.79512 0.74524 0.8426 0.0
C421 C 0.78036 0.74688 0.85751 0.0
C422 C 0.76548 0.76092 0.85537 0.0
C423 C 0.78097 0.7726 0.82485 0.0
C424 C 0.79517 0.75833 0.82643 0.0
C425 C 0.81027 0.75962 0.80968 0.0
H426 H 0.84678 0.80861 0.72882 0.0
C427 C 0.78578 0.78469 0.80717 0.0
C428 C 0.80284 0.77713 0.79805 0.0
H429 H 0.87016 0.75687 0.75666 0.0
H430 H 0.84263 0.75609 0.77994 0.0
H431 H 0.83585 0.83125 0.77046 0.0
H432 H 0.80044 0.79396 0.72981 0.0
H433 H 0.78566 0.81363 0.73783 0.0
H434 H 0.80818 0.8189 0.72374 0.0
H435 H 0.82941 0.83876 0.74567 0.0
H436 H 0.8129 0.84244 0.76657 0.0
C437 C 0.8311 0.76416 0.81912 0.0
C438 C 0.80869 0.74003 0.79719 0.0
C439 C 0.74572 0.84555 0.79464 0.0
C440 C 0.74699 0.86055 0.78035 0.0
C441 C 0.76079 0.85893 0.76451 0.0
C442 C 0.77378 0.843 0.76349 0.0
C443 C 0.77289 0.82854 0.77846 0.0
C444 C 0.75868 0.82979 0.7934 0.0
C445 C 0.75955 0.81313 0.80792 0.0
C446 C 0.77693 0.8018 0.79954 0.0
C447 C 0.78485 0.81094 0.78241 0.0
C448 C 0.76424 0.82231 0.82899 0.0
C449 C 0.73959 0.80077 0.80648 0.0
C450 C 0.84606 0.79718 0.74 0.0
C451 C 0.86079 0.78284 0.74089 0.0
C452 C 0.85897 0.76799 0.75546 0.0
C453 C 0.84303 0.76765 0.76911 0.0
C454 C 0.82873 0.78237 0.76832 0.0
C455 C 0.83028 0.79668 0.75379 0.0
C456 C 0.81376 0.81119 0.75522 0.0
C457 C 0.80209 0.80329 0.77304 0.0
C458 C 0.81099 0.78644 0.78075 0.0
C459 C 0.82332 0.83209 0.75958 0.0
C460 C 0.80135 0.80955 0.73563 0.0
H461 H 0.75405 0.7842 0.83863 0.0
H462 H 0.80673 0.73457 0.84388 0.0
H463 H 0.7929 0.73439 0.79616 0.0
H464 H 0.81351 0.74189 0.78149 0.0
H465 H 0.8175 0.72832 0.80412 0.0
H466 H 0.83001 0.7748 0.83201 0.0
H467 H 0.83768 0.75044 0.82476 0.0
H468 H 0.84175 0.77137 0.80871 0.0
H469 H 0.73501 0.84622 0.80678 0.0
H470 H 0.76198 0.87033 0.7533 0.0
H471 H 0.78425 0.84276 0.75133 0.0
H472 H 0.77486 0.83533 0.82789 0.0
H473 H 0.75046 0.8275 0.83638 0.0
H474 H 0.77168 0.81209 0.83906 0.0
H475 H 0.7329 0.80149 0.79125 0.0
H476 H 0.74155 0.78475 0.80879 0.0
H477 H 0.72845 0.8063 0.81736 0.0
H478 H 0.75377 0.76219 0.86648 0.0
C479 C 0.76565 0.77368 0.83914 0.0
C480 C 0.30406 0.25259 0.3382 0.0
C481 C 0.28948 0.25338 0.35336 0.0
C482 C 0.27506 0.2681 0.35252 0.0
C483 C 0.2897 0.28063 0.32179 0.0
C484 C 0.30388 0.26627 0.32266 0.0
C485 C 0.31821 0.26728 0.30531 0.0
H486 H 0.34683 0.3097 0.2182 0.0
C487 C 0.29356 0.29236 0.30358 0.0
C488 C 0.31029 0.2846 0.29388 0.0
H489 H 0.37352 0.26067 0.24779 0.0
H490 H 0.34978 0.26328 0.27489 0.0
H491 H 0.34109 0.33649 0.25771 0.0
H492 H 0.30202 0.2953 0.22536 0.0
H493 H 0.28745 0.31524 0.23282 0.0
H494 H 0.30842 0.3196 0.21633 0.0
H495 H 0.32992 0.34236 0.23421 0.0
H496 H 0.31742 0.34683 0.25776 0.0
C497 C 0.33946 0.27193 0.31372 0.0
C498 C 0.31603 0.24752 0.29313 0.0
C499 C 0.24763 0.34803 0.28535 0.0
C500 C 0.24708 0.36062 0.26878 0.0
C501 C 0.26219 0.3595 0.25414 0.0
C502 C 0.27732 0.34584 0.25567 0.0
C503 C 0.27741 0.33298 0.27197 0.0
C504 C 0.26284 0.33428 0.28657 0.0
C505 C 0.26526 0.31912 0.30262 0.0
C506 C 0.28362 0.30855 0.29518 0.0
C507 C 0.29062 0.31677 0.27721 0.0
C508 C 0.26925 0.33033 0.32278 0.0
C509 C 0.24638 0.30516 0.30252 0.0
C510 C 0.3475 0.29943 0.23044 0.0
C511 C 0.36203 0.28488 0.23075 0.0
C512 C 0.36259 0.2721 0.24723 0.0
C513 C 0.34869 0.27356 0.2629 0.0
C514 C 0.33404 0.28797 0.26216 0.0
C515 C 0.33375 0.30068 0.24617 0.0
C516 C 0.31719 0.31509 0.24781 0.0
C517 C 0.30748 0.30889 0.26737 0.0
C518 C 0.31733 0.29297 0.27569 0.0
C519 C 0.32673 0.33637 0.24932 0.0
C520 C 0.30301 0.31134 0.22964 0.0
H521 H 0.26376 0.29254 0.33713 0.0
H522 H 0.31521 0.24135 0.33822 0.0
H523 H 0.30015 0.24209 0.2926 0.0
H524 H 0.32046 0.249 0.27728 0.0
H525 H 0.32486 0.23578 0.3 0.0
H526 H 0.33893 0.28216 0.32699 0.0
H527 H 0.34661 0.25818 0.31851 0.0
H528 H 0.34933 0.2797 0.30293 0.0
H529 H 0.23615 0.34847 0.29678 0.0
H530 H 0.26227 0.36923 0.2414 0.0
H531 H 0.28826 0.34571 0.24393 0.0
H532 H 0.27879 0.34395 0.3205 0.0
H533 H 0.25507 0.33497 0.32979 0.0
H534 H 0.27755 0.32156 0.3336 0.0
H535 H 0.2408 0.30243 0.28695 0.0
H536 H 0.2492 0.29027 0.30825 0.0
H537 H 0.23412 0.31174 0.31135 0.0
H538 H 0.26383 0.26925 0.36412 0.0
C539 C 0.27511 0.28171 0.33687 0.0
C540 C 0.48105 0.90863 0.50564 0.0
C541 C 0.46893 0.90298 0.48913 0.0
C542 C 0.45349 0.91539 0.48347 0.0
C543 C 0.4618 0.9381 0.51111 0.0
C544 C 0.4773 0.92621 0.5163 0.0
C545 C 0.48887 0.93442 0.53413 0.0
H546 H 0.50047 0.00544 0.60686 0.0
C547 C 0.46152 0.95494 0.52564 0.0
C548 C 0.47744 0.95292 0.53911 0.0
H549 H 0.53801 0.95566 0.59516 0.0
H550 H 0.51654 0.94479 0.5676 0.0
H551 H 0.45956 0.98204 0.60134 0.0
H552 H 0.49525 0.01726 0.56097 0.0
H553 H 0.47028 0.0234 0.55721 0.0
H554 H 0.48158 0.02772 0.58151 0.0
H555 H 0.45979 0.00865 0.60221 0.0
H556 H 0.44258 0.9943 0.58637 0.0
C557 C 0.48726 0.91908 0.55108 0.0
C558 C 0.51052 0.93952 0.52729 0.0
C559 C 0.40613 0.00474 0.52271 0.0
C560 C 0.40126 0.02085 0.53529 0.0
C561 C 0.41393 0.02621 0.55151 0.0
C562 C 0.43099 0.01555 0.5554 0.0
C563 C 0.43546 0.99921 0.54303 0.0
C564 C 0.42318 0.99405 0.52696 0.0
C565 C 0.43005 0.97583 0.51591 0.0
C566 C 0.44838 0.97092 0.52807 0.0
C567 C 0.45147 0.98474 0.54386 0.0
C568 C 0.41329 0.95947 0.51734 0.0
C569 C 0.43557 0.98171 0.49422 0.0
C570 C 0.50423 0.99229 0.59827 0.0
C571 C 0.52109 0.98151 0.60312 0.0
C572 C 0.52506 0.96419 0.59182 0.0
C573 C 0.51266 0.95799 0.57572 0.0
C574 C 0.49605 0.96919 0.57088 0.0
C575 C 0.49208 0.98597 0.58217 0.0
C576 C 0.47386 0.99611 0.57502 0.0
C577 C 0.4677 0.98287 0.55729 0.0
C578 C 0.48065 0.96708 0.55494 0.0
C579 C 0.45809 0.99545 0.59205 0.0
C580 C 0.48039 0.0173 0.56842 0.0
H581 H 0.43773 0.94157 0.48945 0.0
H582 H 0.49327 0.89959 0.51013 0.0
H583 H 0.51079 0.94478 0.51158 0.0
H584 H 0.5177 0.9518 0.53617 0.0
H585 H 0.51995 0.92632 0.52792 0.0
H586 H 0.47193 0.91221 0.55171 0.0
H587 H 0.49785 0.90697 0.54858 0.0
H588 H 0.48993 0.92574 0.56613 0.0
H589 H 0.39655 1.0002 0.51024 0.0
H590 H 0.41059 0.0387 0.56125 0.0
H591 H 0.43993 0.02037 0.56803 0.0
H592 H 0.40616 0.95981 0.5324 0.0
H593 H 0.40144 0.9616 0.50602 0.0
H594 H 0.41881 0.94432 0.51558 0.0
H595 H 0.44223 0.99706 0.4939 0.0
H596 H 0.44706 0.9723 0.4875 0.0
H597 H 0.42217 0.98121 0.48439 0.0
H598 H 0.44391 0.91131 0.47085 0.0
C599 C 0.44985 0.93288 0.49437 0.0
C600 C 0.15374 0.28882 0.75673 0.0
C601 C 0.14172 0.2714 0.75403 0.0
C602 C 0.14501 0.25906 0.73712 0.0
C603 C 0.1722 0.28102 0.7264 0.0
C604 C 0.16882 0.29331 0.74277 0.0
C605 C 0.18315 0.31105 0.74346 0.0
H606 H 0.26063 0.36297 0.70191 0.0
C607 C 0.18914 0.2897 0.71496 0.0
C608 C 0.1956 0.30735 0.72478 0.0
H609 H 0.22891 0.37608 0.75687 0.0
H610 H 0.20766 0.34699 0.75169 0.0
H611 H 0.22226 0.34839 0.67538 0.0
H612 H 0.26349 0.31594 0.71076 0.0
H613 H 0.25919 0.30271 0.68813 0.0
H614 H 0.27063 0.32729 0.68758 0.0
H615 H 0.24774 0.3453 0.66793 0.0
H616 H 0.22844 0.32685 0.66177 0.0
C617 C 0.17085 0.32997 0.74176 0.0
C618 C 0.19574 0.31012 0.76291 0.0
C619 C 0.21489 0.25237 0.65417 0.0
C620 C 0.23061 0.25605 0.64066 0.0
C621 C 0.24171 0.27417 0.64224 0.0
C622 C 0.23765 0.28808 0.65755 0.0
C623 C 0.2223 0.28383 0.67139 0.0
C624 C 0.21103 0.26634 0.6693 0.0
C625 C 0.19515 0.26425 0.68506 0.0
C626 C 0.19898 0.28316 0.69733 0.0
C627 C 0.21493 0.29457 0.68936 0.0
C628 C 0.17449 0.2639 0.67452 0.0
C629 C 0.19926 0.24547 0.69726 0.0
C630 C 0.24921 0.35954 0.71293 0.0
C631 C 0.24642 0.37212 0.72974 0.0
C632 C 0.23119 0.36703 0.74354 0.0
C633 C 0.21891 0.34997 0.74061 0.0
C634 C 0.22188 0.33762 0.72377 0.0
C635 C 0.2369 0.34241 0.71031 0.0
C636 C 0.23824 0.32714 0.69362 0.0
C637 C 0.22142 0.31256 0.6992 0.0
C638 C 0.21186 0.31884 0.71686 0.0
C639 C 0.23411 0.33734 0.67353 0.0
C640 C 0.25897 0.31777 0.69486 0.0
H641 H 0.16185 0.25369 0.71088 0.0
H642 H 0.15172 0.29856 0.76961 0.0
H643 H 0.19822 0.29448 0.76702 0.0
H644 H 0.21092 0.31687 0.76131 0.0
H645 H 0.18814 0.31739 0.77574 0.0
H646 H 0.15837 0.3275 0.73089 0.0
H647 H 0.16426 0.33417 0.75645 0.0
H648 H 0.17964 0.34279 0.736 0.0
H649 H 0.20581 0.23877 0.6531 0.0
H650 H 0.25389 0.27734 0.63197 0.0
H651 H 0.24679 0.30148 0.65818 0.0
H652 H 0.17503 0.27271 0.66058 0.0
H653 H 0.16945 0.24851 0.67028 0.0
H654 H 0.16284 0.27083 0.68377 0.0
H655 H 0.21559 0.24388 0.69945 0.0
H656 H 0.193 0.24598 0.71255 0.0
H657 H 0.19336 0.23183 0.68938 0.0
H658 H 0.13577 0.24576 0.73444 0.0
C659 C 0.16012 0.26377 0.72334 0.0
C660 C 0.74838 0.14633 0.73098 0.0
C661 C 0.73476 0.14005 0.71592 0.0
C662 C 0.73131 0.15262 0.69975 0.0
C663 C 0.75549 0.17692 0.71319 0.0
C664 C 0.75867 0.16472 0.72922 0.0
C665 C 0.77469 0.17319 0.7431 0.0
H666 H 0.84582 0.2447 0.76377 0.0
C667 C 0.76906 0.19459 0.71536 0.0
C668 C 0.78036 0.19255 0.73285 0.0
H669 H 0.83168 0.19127 0.79654 0.0
H670 H 0.80466 0.18297 0.77379 0.0
H671 H 0.80073 0.25682 0.7573 0.0
H672 H 0.84006 0.2243 0.71859 0.0
H673 H 0.82866 0.24287 0.7048 0.0
H674 H 0.84449 0.24993 0.72567 0.0
H675 H 0.82018 0.26915 0.74324 0.0
H676 H 0.79578 0.2636 0.73255 0.0
C677 C 0.76516 0.17686 0.76393 0.0
C678 C 0.79213 0.15866 0.74308 0.0
C679 C 0.7704 0.24628 0.66113 0.0
C680 C 0.7812 0.26427 0.65873 0.0
C681 C 0.79407 0.27139 0.67414 0.0
C682 C 0.79678 0.2602 0.69144 0.0
C683 C 0.78638 0.2418 0.69332 0.0
C684 C 0.77305 0.23544 0.67853 0.0
C685 C 0.76268 0.21599 0.68328 0.0
C686 C 0.77224 0.21145 0.70319 0.0
C687 C 0.78636 0.22642 0.70889 0.0
C688 C 0.74002 0.21954 0.68546 0.0
C689 C 0.76803 0.20067 0.66666 0.0
C690 C 0.83697 0.23115 0.76593 0.0
C691 C 0.84096 0.21863 0.782 0.0
C692 C 0.82883 0.20131 0.78447 0.0
C693 C 0.8132 0.19641 0.77113 0.0
C694 C 0.8096 0.20888 0.755 0.0
C695 C 0.82126 0.22602 0.75269 0.0
C696 C 0.81504 0.23755 0.73475 0.0
C697 C 0.79805 0.22426 0.72646 0.0
C698 C 0.795 0.20745 0.73838 0.0
C699 C 0.80765 0.25793 0.74218 0.0
C700 C 0.83295 0.23891 0.72012 0.0
H701 H 0.73829 0.17978 0.68559 0.0
H702 H 0.75148 0.13684 0.74344 0.0
H703 H 0.79369 0.15123 0.72814 0.0
H704 H 0.80682 0.16615 0.74585 0.0
H705 H 0.78962 0.14688 0.7543 0.0
H706 H 0.74976 0.18231 0.76235 0.0
H707 H 0.76416 0.16297 0.77262 0.0
H708 H 0.77328 0.18848 0.7729 0.0
H709 H 0.76027 0.24062 0.64953 0.0
H710 H 0.80252 0.28526 0.67247 0.0
H711 H 0.8071 0.26612 0.70251 0.0
H712 H 0.7374 0.23472 0.69151 0.0
H713 H 0.73227 0.21799 0.67077 0.0
H714 H 0.73258 0.20951 0.69628 0.0
H715 H 0.78372 0.20314 0.66156 0.0
H716 H 0.76728 0.1852 0.6718 0.0
H717 H 0.75818 0.20188 0.65337 0.0
H718 H 0.72077 0.14809 0.68807 0.0
C719 C 0.74149 0.17102 0.69837 0.0
C720 C 0.54325 0.60073 0.49638 0.0
C721 C 0.52897 0.61535 0.49897 0.0
C722 C 0.51539 0.61366 0.51509 0.0
C723 C 0.53041 0.58319 0.52538 0.0
C724 C 0.54376 0.585 0.50969 0.0
C725 C 0.55823 0.56851 0.50891 0.0
H726 H 0.58938 0.48139 0.54356 0.0
C727 C 0.53487 0.56483 0.53614 0.0
C728 C 0.55121 0.55625 0.52655 0.0
H729 H 0.61439 0.51703 0.49581 0.0
H730 H 0.59008 0.54163 0.50188 0.0
H731 H 0.58357 0.51936 0.5746 0.0
H732 H 0.54381 0.48769 0.53347 0.0
H733 H 0.53006 0.49297 0.55521 0.0
H734 H 0.55129 0.47734 0.55677 0.0
H735 H 0.57423 0.49452 0.57892 0.0
H736 H 0.56042 0.51583 0.58665 0.0
C737 C 0.5796 0.57768 0.51223 0.0
C738 C 0.55519 0.55708 0.48869 0.0
C739 C 0.49186 0.54268 0.59508 0.0
C740 C 0.49157 0.5256 0.60686 0.0
C741 C 0.50597 0.5112 0.60334 0.0
C742 C 0.52038 0.51368 0.58829 0.0
C743 C 0.52034 0.53069 0.57645 0.0
C744 C 0.50623 0.54484 0.57991 0.0
C745 C 0.50804 0.56157 0.56533 0.0
C746 C 0.52568 0.55525 0.55273 0.0
C747 C 0.53288 0.53716 0.55938 0.0
C748 C 0.51282 0.58105 0.57731 0.0
C749 C 0.4885 0.56171 0.55291 0.0
C750 C 0.5897 0.49458 0.53454 0.0
C751 C 0.60366 0.497 0.5189 0.0
C752 C 0.60351 0.51445 0.50757 0.0
C753 C 0.58943 0.52887 0.51122 0.0
C754 C 0.57525 0.52603 0.52646 0.0
C755 C 0.57568 0.50928 0.53805 0.0
C756 C 0.55958 0.50915 0.55384 0.0
C757 C 0.54944 0.52851 0.54965 0.0
C758 C 0.55864 0.53817 0.53349 0.0
C759 C 0.56982 0.5096 0.57466 0.0
C760 C 0.54544 0.49081 0.54984 0.0
H761 H 0.50535 0.59727 0.54027 0.0
H762 H 0.55374 0.60129 0.48404 0.0
H763 H 0.53904 0.55563 0.48477 0.0
H764 H 0.56027 0.5417 0.48899 0.0
H765 H 0.56295 0.56496 0.4763 0.0
H766 H 0.57932 0.59174 0.52123 0.0
H767 H 0.58699 0.58114 0.49775 0.0
H768 H 0.58922 0.56801 0.52096 0.0
H769 H 0.48081 0.55387 0.59728 0.0
H770 H 0.50612 0.49799 0.61233 0.0
H771 H 0.53089 0.50216 0.58636 0.0
H772 H 0.52333 0.57841 0.58982 0.0
H773 H 0.49906 0.58715 0.58392 0.0
H774 H 0.52038 0.59256 0.5682 0.0
H775 H 0.48261 0.54631 0.5498 0.0
H776 H 0.49061 0.56824 0.53799 0.0
H777 H 0.47673 0.56978 0.56108 0.0
H778 H 0.50438 0.62482 0.51765 0.0
C779 C 0.51604 0.5977 0.52829 0.0
C780 C 0.53712 0.41922 0.01224 0.0
C781 C 0.52432 0.40266 0.00829 0.0
C782 C 0.51216 0.40236 0.99105 0.0
C783 C 0.52608 0.43455 0.98166 0.0
C784 C 0.53792 0.43484 0.99865 0.0
C785 C 0.55184 0.45282 0.99976 0.0
H786 H 0.58985 0.53655 0.95766 0.0
C787 C 0.53111 0.45269 0.97028 0.0
C788 C 0.54626 0.46339 0.98074 0.0
H789 H 0.60705 0.50958 0.01308 0.0
H790 H 0.5815 0.484 0.00846 0.0
H791 H 0.54281 0.53145 0.96521 0.0
H792 H 0.58261 0.49455 0.9315 0.0
H793 H 0.56113 0.49858 0.91704 0.0
H794 H 0.57712 0.51939 0.92455 0.0
H795 H 0.55174 0.53825 0.94084 0.0
H796 H 0.52977 0.52228 0.94395 0.0
C797 C 0.5466 0.46504 0.01884 0.0
C798 C 0.5736 0.44565 0.99909 0.0
C799 C 0.49518 0.46488 0.90489 0.0
C800 C 0.4963 0.48029 0.89101 0.0
C801 C 0.50944 0.49673 0.89483 0.0
C802 C 0.52169 0.49751 0.91196 0.0
C803 C 0.52067 0.48176 0.92551 0.0
C804 C 0.50732 0.46597 0.92198 0.0
C805 C 0.50779 0.45079 0.93816 0.0
C806 C 0.52368 0.45999 0.95199 0.0
C807 C 0.53138 0.47802 0.94444 0.0
C808 C 0.48698 0.44974 0.94831 0.0
C809 C 0.51433 0.43091 0.92859 0.0
C810 C 0.58814 0.52501 0.96868 0.0
C811 C 0.60049 0.5251 0.98578 0.0
C812 C 0.59761 0.51 0.99992 0.0
C813 C 0.58281 0.49506 0.99715 0.0
C814 C 0.57065 0.49506 0.98001 0.0
C815 C 0.57327 0.50993 0.96617 0.0
C816 C 0.55849 0.50765 0.94915 0.0
C817 C 0.54703 0.48869 0.95484 0.0
C818 C 0.55432 0.48141 0.97292 0.0
C819 C 0.54501 0.52586 0.94959 0.0
C820 C 0.57032 0.505 0.92942 0.0
H821 H 0.50332 0.41707 0.96488 0.0
H822 H 0.54689 0.41966 0.0252 0.0
H823 H 0.5746 0.43166 0.99008 0.0
H824 H 0.58407 0.4562 0.99168 0.0
H825 H 0.57921 0.44272 0.01438 0.0
H826 H 0.53019 0.4646 0.02145 0.0
H827 H 0.5538 0.45904 0.03233 0.0
H828 H 0.55079 0.48097 0.01769 0.0
H829 H 0.485 0.4522 0.90253 0.0
H830 H 0.51058 0.50876 0.88431 0.0
H831 H 0.5316 0.51026 0.91392 0.0
H832 H 0.48068 0.46476 0.94961 0.0
H833 H 0.47628 0.44014 0.93946 0.0
H834 H 0.48746 0.44438 0.96383 0.0
H835 H 0.52498 0.43355 0.91603 0.0
H836 H 0.5225 0.42171 0.93913 0.0
H837 H 0.50131 0.42211 0.92246 0.0
H838 H 0.50216 0.38973 0.98777 0.0
C839 C 0.51287 0.41825 0.97779 0.0
C840 C 0.76972 0.16677 0.30063 0.0
C841 C 0.76886 0.15167 0.28582 0.0
C842 C 0.75483 0.15279 0.27015 0.0
C843 C 0.74189 0.18284 0.28521 0.0
C844 C 0.75619 0.18206 0.30007 0.0
C845 C 0.75467 0.19856 0.31535 0.0
H846 H 0.70388 0.2744 0.3551 0.0
C847 C 0.7294 0.20009 0.28982 0.0
C848 C 0.73696 0.20938 0.30739 0.0
H849 H 0.75788 0.2487 0.37672 0.0
H850 H 0.7589 0.22738 0.34756 0.0
H851 H 0.68225 0.23328 0.33933 0.0
H852 H 0.71873 0.27697 0.30856 0.0
H853 H 0.70001 0.26835 0.29179 0.0
H854 H 0.69312 0.28112 0.3147 0.0
H855 H 0.67452 0.2581 0.33509 0.0
H856 H 0.67066 0.23871 0.31647 0.0
C857 C 0.75017 0.18907 0.33596 0.0
C858 C 0.77423 0.21157 0.31463 0.0
C859 C 0.66812 0.21236 0.24752 0.0
C860 C 0.65322 0.22653 0.24866 0.0
C861 C 0.65486 0.24177 0.26339 0.0
C862 C 0.6707 0.24248 0.27721 0.0
C863 C 0.68509 0.2278 0.2763 0.0
C864 C 0.68386 0.2133 0.26137 0.0
C865 C 0.70066 0.19913 0.26243 0.0
C866 C 0.71207 0.20736 0.28058 0.0
C867 C 0.70275 0.22404 0.28881 0.0
C868 C 0.69149 0.17808 0.26606 0.0
C869 C 0.71314 0.2009 0.24296 0.0
C870 C 0.71599 0.26428 0.35338 0.0
C871 C 0.73059 0.26293 0.36845 0.0
C872 C 0.74618 0.24967 0.3656 0.0
C873 C 0.74679 0.23732 0.34859 0.0
C874 C 0.7316 0.23804 0.33417 0.0
C875 C 0.71678 0.25165 0.33639 0.0
C876 C 0.70211 0.25032 0.31921 0.0
C877 C 0.71037 0.23335 0.30669 0.0
C878 C 0.72753 0.22616 0.31571 0.0
C879 C 0.6812 0.24493 0.32783 0.0
C880 C 0.70334 0.27021 0.30796 0.0
H881 H 0.73075 0.16814 0.25768 0.0
H882 H 0.78056 0.16656 0.31267 0.0
H883 H 0.7809 0.21138 0.29935 0.0
H884 H 0.77176 0.22744 0.31793 0.0
H885 H 0.7856 0.20618 0.32515 0.0
H886 H 0.74007 0.17568 0.33417 0.0
H887 H 0.7641 0.18438 0.34324 0.0
H888 H 0.74224 0.1989 0.34642 0.0
H889 H 0.66747 0.20066 0.23616 0.0
H890 H 0.64355 0.25282 0.26462 0.0
H891 H 0.67094 0.25424 0.28828 0.0
H892 H 0.67882 0.17875 0.27682 0.0
H893 H 0.68568 0.17117 0.25187 0.0
H894 H 0.70208 0.16802 0.27286 0.0
H895 H 0.71377 0.21646 0.23766 0.0
H896 H 0.7289 0.19715 0.24511 0.0
H897 H 0.70655 0.19136 0.23073 0.0
H898 H 0.75386 0.14132 0.25856 0.0
C899 C 0.74134 0.1683 0.26976 0.0
C900 C 0.40687 0.00477 0.99917 0.0
C901 C 0.40139 0.98644 0.99 0.0
C902 C 0.4118 0.98027 0.97272 0.0
C903 C 0.43324 0.0101 0.97467 0.0
C904 C 0.42271 0.01624 0.99135 0.0
C905 C 0.43042 0.03589 0.9997 0.0
H906 H 0.49959 0.11107 0.9991 0.0
C907 C 0.44924 0.02533 0.97087 0.0
C908 C 0.44759 0.04044 0.98553 0.0
H909 H 0.44769 0.10425 0.03742 0.0
H910 H 0.4383 0.07368 0.02033 0.0
H911 H 0.47573 0.10012 0.95916 0.0
H912 H 0.51161 0.06507 0.9974 0.0
H913 H 0.51786 0.05925 0.97241 0.0
H914 H 0.52192 0.0843 0.98184 0.0
H915 H 0.50251 0.10184 0.9586 0.0
H916 H 0.4885 0.08381 0.94335 0.0
C917 C 0.41362 0.05103 0.99793 0.0
C918 C 0.43776 0.03268 0.0214 0.0
C919 C 0.49839 0.01617 0.91338 0.0
C920 C 0.51505 0.02758 0.90673 0.0
C921 C 0.52035 0.04542 0.91712 0.0
C922 C 0.50934 0.05178 0.93375 0.0
C923 C 0.49279 0.04022 0.9402 0.0
C924 C 0.48753 0.02274 0.93007 0.0
C925 C 0.46956 0.01234 0.93924 0.0
C926 C 0.46479 0.02659 0.95637 0.0
C927 C 0.47852 0.04286 0.95687 0.0
C928 C 0.45267 0.01097 0.92339 0.0
C929 C 0.47603 0.992 0.94691 0.0
C930 C 0.4861 0.10314 0.00377 0.0
C931 C 0.47458 0.11015 0.01994 0.0
C932 C 0.45722 0.09909 0.02544 0.0
C933 C 0.45163 0.08135 0.01533 0.0
C934 C 0.46338 0.07452 0.99937 0.0
C935 C 0.48013 0.08551 0.99364 0.0
C936 C 0.49022 0.07643 0.97569 0.0
C937 C 0.4769 0.05803 0.97181 0.0
C938 C 0.46137 0.05692 0.98588 0.0
C939 C 0.48941 0.09126 0.95824 0.0
C940 C 0.5116 0.07104 0.98196 0.0
H941 H 0.43516 0.98642 0.95195 0.0
H942 H 0.39892 0.01018 0.0122 0.0
H943 H 0.44569 0.0185 0.02236 0.0
H944 H 0.44865 0.04425 0.02674 0.0
H945 H 0.42501 0.03195 0.03204 0.0
H946 H 0.40344 0.04714 0.98516 0.0
H947 H 0.40439 0.05151 0.01175 0.0
H948 H 0.41947 0.06619 0.9947 0.0
H949 H 0.49376 0.00248 0.90568 0.0
H950 H 0.53328 0.05435 0.91261 0.0
H951 H 0.51425 0.06542 0.94101 0.0
H952 H 0.45246 0.02479 0.91455 0.0
H953 H 0.45478 0.99836 0.91272 0.0
H954 H 0.43764 0.00946 0.93009 0.0
H955 H 0.49138 0.99321 0.9533 0.0
H956 H 0.46655 0.98633 0.9592 0.0
H957 H 0.47607 0.98074 0.93454 0.0
H958 H 0.40792 0.96618 0.96539 0.0
C959 C 0.4277 0.99199 0.96502 0.0
C960 C 0.20751 0.90225 0.99561 0.0
O961 O 0.20693 0.88685 0.98325 0.0
O962 O 0.24432 0.86873 0.98236 0.0
Zn963 Zn 0.24505 0.8856 0.0077 0.0
O964 O 0.27121 0.90149 0.00777 0.0
C965 C 0.25779 0.85733 0.03679 0.0
O966 O 0.27429 0.85827 0.02615 0.0
O967 O 0.22205 0.90459 0.00782 0.0
C968 C 0.27964 0.90818 0.02369 0.0
O969 O 0.27106 0.90487 0.04108 0.0
C970 C 0.24711 0.87715 0.96564 0.0
O971 O 0.25047 0.89647 0.96547 0.0
O972 O 0.24322 0.86779 0.03177 0.0
C973 C 0.15 0.46688 0.27112 0.0
O974 O 0.14912 0.47556 0.28889 0.0
O975 O 0.10252 0.49583 0.28047 0.0
Zn976 Zn 0.12106 0.49623 0.25668 0.0
O977 O 0.13661 0.5224 0.25615 0.0
C978 C 0.09505 0.50407 0.22127 0.0
O979 O 0.09782 0.5232 0.22485 0.0
O980 O 0.13979 0.47338 0.25674 0.0
C981 C 0.14575 0.52892 0.24079 0.0
O982 O 0.14507 0.51836 0.22402 0.0
C983 C 0.10567 0.50487 0.29714 0.0
O984 O 0.12276 0.51462 0.30018 0.0
O985 O 0.10355 0.4917 0.23229 0.0
C986 C 0.78471 0.60165 0.99679 0.0
O987 O 0.77137 0.5982 0.98262 0.0
O988 O 0.76261 0.65094 0.9818 0.0
Zn989 Zn 0.75831 0.63305 0.00566 0.0
O990 O 0.73241 0.6167 0.00415 0.0
C991 C 0.74274 0.66549 0.02571 0.0
O992 O 0.73342 0.66509 0.00837 0.0
O993 O 0.78217 0.61575 0.00936 0.0
C994 C 0.72272 0.61015 0.98886 0.0
O995 O 0.72985 0.61335 0.97083 0.0
C996 C 0.76753 0.64812 0.96357 0.0
O997 O 0.77047 0.63007 0.95675 0.0
O998 O 0.75516 0.65212 0.02919 0.0
C999 C 0.85983 0.04042 0.27389 0.0
O1000 O 0.86277 0.02623 0.28668 0.0
O1001 O 0.9028 0.01016 0.27412 0.0
Zn1002 Zn 0.88326 0.01444 0.25144 0.0
O1003 O 0.86339 0.9913 0.25191 0.0
C1004 C 0.90168 0.99884 0.21585 0.0
O1005 O 0.89455 0.98216 0.2233 0.0
O1006 O 0.86789 0.03927 0.25667 0.0
C1007 C 0.85115 0.98567 0.23822 0.0
O1008 O 0.8505 0.99557 0.22148 0.0
C1009 C 0.90767 0.99236 0.27698 0.0
O1010 O 0.90025 0.97821 0.26507 0.0
O1011 O 0.89844 0.0151 0.22509 0.0
C1012 C 0.29339 0.10637 0.49423 0.0
O1013 O 0.29496 0.11091 0.47522 0.0
O1014 O 0.27121 0.15133 0.47404 0.0
Zn1015 Zn 0.26039 0.13463 0.49687 0.0
O1016 O 0.23433 0.11994 0.48991 0.0
C1017 C 0.25576 0.17045 0.52287 0.0
O1018 O 0.25825 0.18096 0.50663 0.0
O1019 O 0.28025 0.11452 0.50505 0.0
C1020 C 0.2177 0.12812 0.4926 0.0
O1021 O 0.21761 0.14663 0.49911 0.0
C1022 C 0.25997 0.15922 0.46129 0.0
O1023 O 0.24055 0.15617 0.46255 0.0
O1024 O 0.25606 0.15162 0.52162 0.0
C1025 C 0.35723 0.54305 0.77983 0.0
O1026 O 0.36104 0.5298 0.79337 0.0
O1027 O 0.39506 0.50746 0.77788 0.0
Zn1028 Zn 0.37509 0.51343 0.75611 0.0
O1029 O 0.35227 0.49294 0.75581 0.0
C1030 C 0.4013 0.52594 0.72311 0.0
O1031 O 0.40498 0.54189 0.73433 0.0
O1032 O 0.36267 0.53986 0.76182 0.0
C1033 C 0.35195 0.47687 0.74548 0.0
O1034 O 0.36755 0.4725 0.73453 0.0
C1035 C 0.40502 0.4918 0.77636 0.0
O1036 O 0.40206 0.47995 0.7607 0.0
O1037 O 0.38901 0.51262 0.72927 0.0
C1038 C 0.71674 0.40882 0.51029 0.0
O1039 O 0.73175 0.41198 0.49796 0.0
O1040 O 0.73955 0.35871 0.4975 0.0
Zn1041 Zn 0.74222 0.37822 0.52105 0.0
O1042 O 0.76708 0.39595 0.51905 0.0
C1043 C 0.75913 0.34839 0.54257 0.0
O1044 O 0.76852 0.34797 0.52529 0.0
O1045 O 0.71767 0.39495 0.52286 0.0
C1046 C 0.77723 0.39937 0.50331 0.0
O1047 O 0.77148 0.39116 0.48615 0.0
C1048 C 0.73291 0.36066 0.4798 0.0
O1049 O 0.72666 0.37791 0.47414 0.0
O1050 O 0.74595 0.36128 0.54545 0.0
C1051 C 0.65443 0.97046 0.77566 0.0
O1052 O 0.65192 0.985 0.78871 0.0
O1053 O 0.60882 0.99483 0.78097 0.0
Zn1054 Zn 0.62651 0.99339 0.75641 0.0
O1055 O 0.64467 0.01776 0.75313 0.0
C1056 C 0.6028 0.00616 0.72435 0.0
O1057 O 0.60697 0.02306 0.73382 0.0
O1058 O 0.64445 0.97021 0.75944 0.0
C1059 C 0.65548 0.01671 0.7375 0.0
O1060 O 0.65391 0.0006 0.72612 0.0
C1061 C 0.60142 0.01039 0.78853 0.0
O1062 O 0.60533 0.02761 0.78022 0.0
O1063 O 0.60934 0.99026 0.73145 0.0
C1064 C 0.00435 0.23359 0.92091 0.0
O1065 O 0.99818 0.2514 0.92538 0.0
O1066 O 0.97422 0.24239 0.8691 0.0
Zn1067 Zn 0.00184 0.24826 0.88049 0.0
O1068 O 0.00363 0.27626 0.89204 0.0
C1069 C 0.03048 0.2602 0.84999 0.0
O1070 O 0.02364 0.27789 0.85387 0.0
O1071 O 0.00694 0.22874 0.90259 0.0
C1072 C 0.98829 0.2858 0.897 0.0
O1073 O 0.97047 0.27739 0.89432 0.0
C1074 C 0.96908 0.24586 0.85118 0.0
O1075 O 0.98238 0.25343 0.83876 0.0
O1076 O 0.02309 0.24532 0.85922 0.0
C1077 C 0.49892 0.71991 0.40357 0.0
O1078 O 0.48025 0.72493 0.40562 0.0
O1079 O 0.47955 0.74684 0.35686 0.0
Zn1080 Zn 0.50119 0.7536 0.37712 0.0
O1081 O 0.49256 0.77347 0.39805 0.0
C1082 C 0.53434 0.75386 0.35011 0.0
O1083 O 0.52987 0.73472 0.34962 0.0
O1084 O 0.51026 0.72956 0.39166 0.0
C1085 C 0.48964 0.79164 0.39474 0.0
O1086 O 0.49142 0.79819 0.37639 0.0
C1087 C 0.46079 0.74593 0.35973 0.0
O1088 O 0.45372 0.74894 0.37786 0.0
O1089 O 0.52432 0.76518 0.36143 0.0
C1090 C 0.01085 0.79497 0.60157 0.0
O1091 O 0.99155 0.79245 0.60456 0.0
O1092 O 0.98964 0.77282 0.64596 0.0
Zn1093 Zn 0.01282 0.76274 0.62961 0.0
O1094 O 0.00403 0.73752 0.61474 0.0
C1095 C 0.03525 0.7387 0.6559 0.0
O1096 O 0.02064 0.7259 0.65131 0.0
O1097 O 0.02278 0.78384 0.61051 0.0
C1098 C 0.00595 0.73311 0.59624 0.0
O1099 O 0.01395 0.74624 0.58406 0.0
C1100 C 0.97661 0.76085 0.65331 0.0
O1101 O 0.97828 0.74169 0.65011 0.0
O1102 O 0.0352 0.75595 0.64849 0.0
C1103 C 0.51821 0.30231 0.11346 0.0
O1104 O 0.50949 0.30929 0.12963 0.0
O1105 O 0.49015 0.26642 0.1463 0.0
Zn1106 Zn 0.51555 0.26156 0.13091 0.0
O1107 O 0.51143 0.23812 0.11186 0.0
C1108 C 0.53827 0.23965 0.15829 0.0
O1109 O 0.52348 0.22686 0.15438 0.0
O1110 O 0.52221 0.28403 0.11225 0.0
C1111 C 0.49935 0.22325 0.11335 0.0
O1112 O 0.48797 0.22154 0.1293 0.0
C1113 C 0.4741 0.26929 0.13677 0.0
O1114 O 0.47455 0.26931 0.11708 0.0
O1115 O 0.53837 0.25648 0.14998 0.0
H1116 H 0.23727 0.7795 0.89599 0.0
H1117 H 0.2326 0.81818 0.84511 0.0
H1118 H 0.23608 0.84752 0.86784 0.0
H1119 H 0.20897 0.80935 0.93027 0.0
H1120 H 0.22419 0.80411 0.95168 0.0
H1121 H 0.22157 0.78621 0.93137 0.0
H1122 H 0.26007 0.78619 0.92748 0.0
H1123 H 0.2628 0.80411 0.94776 0.0
H1124 H 0.27378 0.80931 0.92368 0.0
H1125 H 0.24087 0.87255 0.89597 0.0
H1126 H 0.24478 0.89164 0.92775 0.0
H1127 H 0.2454 0.83659 0.96045 0.0
C1128 C 0.23709 0.79416 0.88965 0.0
C1129 C 0.23473 0.79662 0.86881 0.0
C1130 C 0.23426 0.81601 0.86106 0.0
C1131 C 0.23632 0.83273 0.87383 0.0
C1132 C 0.23869 0.82979 0.8943 0.0
C1133 C 0.23893 0.811 0.90219 0.0
C1134 C 0.24125 0.81193 0.92478 0.0
C1135 C 0.2229 0.80233 0.93513 0.0
C1136 C 0.26063 0.80232 0.9313 0.0
C1137 C 0.24237 0.83419 0.92835 0.0
C1138 C 0.24098 0.84421 0.91056 0.0
C1139 C 0.24191 0.86487 0.91 0.0
C1140 C 0.24418 0.87557 0.92814 0.0
C1141 C 0.24535 0.86562 0.94659 0.0
C1142 C 0.24446 0.84464 0.94661 0.0
H1143 H 0.05319 0.53611 0.40033 0.0
H1144 H 0.99747 0.51299 0.37415 0.0
H1145 H 0.01554 0.50248 0.34392 0.0
H1146 H 0.07301 0.55607 0.35433 0.0
H1147 H 0.09842 0.55012 0.35988 0.0
H1148 H 0.08128 0.55509 0.38 0.0
H1149 H 0.08853 0.52106 0.39532 0.0
H1150 H 0.1056 0.51593 0.37516 0.0
H1151 H 0.08505 0.49876 0.38018 0.0
H1152 H 0.0393 0.49431 0.31658 0.0
H1153 H 0.06707 0.49103 0.29272 0.0
H1154 H 0.10737 0.52095 0.33547 0.0
C1155 C 0.04474 0.52897 0.38821 0.0
C1156 C 0.02388 0.52513 0.38987 0.0
C1157 C 0.01349 0.51564 0.37359 0.0
C1158 C 0.0236 0.50971 0.35624 0.0
C1159 C 0.04412 0.51352 0.35522 0.0
C1160 C 0.05458 0.5231 0.37064 0.0
C1161 C 0.0765 0.52594 0.36534 0.0
C1162 C 0.08266 0.54813 0.36485 0.0
C1163 C 0.08969 0.51475 0.37986 0.0
C1164 C 0.07666 0.51653 0.3445 0.0
C1165 C 0.05783 0.50931 0.33908 0.0
C1166 C 0.05412 0.49993 0.32062 0.0
C1167 C 0.07003 0.4981 0.30718 0.0
C1168 C 0.08942 0.50576 0.31217 0.0
C1169 C 0.09274 0.51496 0.33119 0.0
H1170 H 0.78343 0.70633 0.86064 0.0
H1171 H 0.77776 0.76061 0.89587 0.0
H1172 H 0.77522 0.74119 0.92674 0.0
H1173 H 0.74825 0.67738 0.888 0.0
H1174 H 0.76177 0.65475 0.88661 0.0
H1175 H 0.76482 0.67284 0.86724 0.0
H1176 H 0.80306 0.67444 0.87315 0.0
H1177 H 0.80015 0.65623 0.89246 0.0
H1178 H 0.81266 0.67982 0.898 0.0
H1179 H 0.77099 0.71635 0.95327 0.0
H1180 H 0.76644 0.68722 0.97462 0.0
H1181 H 0.77495 0.64836 0.9228 0.0
C1182 C 0.78203 0.71407 0.87492 0.0
C1183 C 0.78073 0.73495 0.87592 0.0
C1184 C 0.7786 0.74461 0.8948 0.0
C1185 C 0.77722 0.73372 0.91241 0.0
C1186 C 0.77805 0.71316 0.91092 0.0
C1187 C 0.78053 0.70337 0.89274 0.0
C1188 C 0.78009 0.68104 0.89542 0.0
C1189 C 0.7627 0.67091 0.88361 0.0
C1190 C 0.80019 0.67237 0.8894 0.0
C1191 C 0.77668 0.6799 0.91787 0.0
C1192 C 0.77564 0.69865 0.92645 0.0
C1193 C 0.77196 0.70157 0.94679 0.0
C1194 C 0.76932 0.68489 0.95878 0.0
C1195 C 0.77038 0.66546 0.95043 0.0
C1196 C 0.77417 0.663 0.92967 0.0
H1197 H 0.97407 0.01044 0.37603 0.0
H1198 H 0.98589 0.94751 0.37308 0.0
H1199 H 0.96477 0.9437 0.34294 0.0
H1200 H 0.92277 0.00616 0.35945 0.0
H1201 H 0.92432 0.02839 0.34487 0.0
H1202 H 0.94001 0.02621 0.36659 0.0
H1203 H 0.97138 0.03331 0.34482 0.0
H1204 H 0.9558 0.03548 0.32302 0.0
H1205 H 0.97562 0.01809 0.32281 0.0
H1206 H 0.94304 0.94658 0.31302 0.0
H1207 H 0.92148 0.95585 0.28512 0.0
H1208 H 0.92398 0.01713 0.30665 0.0
C1209 C 0.97228 0.99587 0.36901 0.0
C1210 C 0.98156 0.97924 0.37706 0.0
C1211 C 0.97866 0.9604 0.36748 0.0
C1212 C 0.96681 0.9581 0.35024 0.0
C1213 C 0.95796 0.97478 0.3427 0.0
C1214 C 0.9605 0.9933 0.35173 0.0
C1215 C 0.94938 0.00878 0.3404 0.0
C1216 C 0.93315 0.01792 0.35362 0.0
C1217 C 0.96392 0.02486 0.33228 0.0
C1218 C 0.94026 0.99604 0.32354 0.0
C1219 C 0.94543 0.97648 0.32522 0.0
C1220 C 0.93887 0.96184 0.31153 0.0
C1221 C 0.92662 0.96729 0.29572 0.0
C1222 C 0.92102 0.98724 0.29365 0.0
C1223 C 0.92803 0.00179 0.30777 0.0
H1224 H 0.23871 0.26061 0.60043 0.0
H1225 H 0.23384 0.2165 0.64688 0.0
H1226 H 0.24043 0.19013 0.62189 0.0
H1227 H 0.21445 0.2313 0.56201 0.0
H1228 H 0.23043 0.24002 0.54206 0.0
H1229 H 0.22625 0.25573 0.56369 0.0
H1230 H 0.26442 0.25931 0.56982 0.0
H1231 H 0.26872 0.24367 0.54815 0.0
H1232 H 0.27873 0.23733 0.57218 0.0
H1233 H 0.2463 0.16847 0.59211 0.0
H1234 H 0.2516 0.1526 0.5591 0.0
H1235 H 0.25289 0.21046 0.53146 0.0
C1236 C 0.23931 0.24542 0.60534 0.0
C1237 C 0.23567 0.24057 0.62557 0.0
C1238 C 0.23632 0.2205 0.63141 0.0
C1239 C 0.24016 0.20544 0.61735 0.0
C1240 C 0.24336 0.21065 0.5975 0.0
C1241 C 0.24305 0.23013 0.59144 0.0
C1242 C 0.24645 0.23151 0.56902 0.0
C1243 C 0.22831 0.24015 0.55859 0.0
C1244 C 0.26573 0.24367 0.56453 0.0
C1245 C 0.24856 0.20976 0.56346 0.0
C1246 C 0.24677 0.19804 0.58017 0.0
C1247 C 0.24782 0.17748 0.57891 0.0
C1248 C 0.25081 0.1686 0.56005 0.0
C1249 C 0.25269 0.18026 0.54264 0.0
C1250 C 0.25157 0.20114 0.54446 0.0
H1251 H 0.47987 0.55188 0.63621 0.0
H1252 H 0.46841 0.49212 0.6127 0.0
H1253 H 0.44305 0.48628 0.63903 0.0
H1254 H 0.47606 0.5395 0.68783 0.0
H1255 H 0.46417 0.56202 0.69536 0.0
H1256 H 0.4806 0.56192 0.674 0.0
H1257 H 0.45245 0.57519 0.65184 0.0
H1258 H 0.43591 0.57534 0.67315 0.0
H1259 H 0.42864 0.56187 0.65055 0.0
H1260 H 0.41945 0.48669 0.66807 0.0
H1261 H 0.40011 0.49272 0.69888 0.0
H1262 H 0.42738 0.55202 0.70425 0.0
C1263 C 0.47184 0.53766 0.63651 0.0
C1264 C 0.47604 0.52244 0.62243 0.0
C1265 C 0.46549 0.50391 0.62345 0.0
C1266 C 0.451 0.5005 0.63826 0.0
C1267 C 0.4473 0.51575 0.65201 0.0
C1268 C 0.45745 0.53393 0.65135 0.0
C1269 C 0.45123 0.54747 0.66848 0.0
C1270 C 0.46908 0.55305 0.68223 0.0
C1271 C 0.44148 0.56607 0.66052 0.0
C1272 C 0.43609 0.534 0.67893 0.0
C1273 C 0.43394 0.51584 0.66906 0.0
C1274 C 0.42098 0.50086 0.67592 0.0
C1275 C 0.41003 0.50446 0.69344 0.0
C1276 C 0.4122 0.52284 0.70403 0.0
C1277 C 0.42535 0.53782 0.69653 0.0
H1278 H 0.7681 0.30181 0.65203 0.0
H1279 H 0.79124 0.24974 0.62224 0.0
H1280 H 0.78842 0.26593 0.58948 0.0
H1281 H 0.73162 0.31148 0.61421 0.0
H1282 H 0.7345 0.33812 0.61636 0.0
H1283 H 0.73933 0.32302 0.63769 0.0
H1284 H 0.77489 0.33916 0.64094 0.0
H1285 H 0.77014 0.35437 0.61967 0.0
H1286 H 0.79145 0.33878 0.61964 0.0
H1287 H 0.78348 0.28742 0.56036 0.0
H1288 H 0.77526 0.3126 0.53574 0.0
H1289 H 0.75323 0.3505 0.5836 0.0
C1290 C 0.77273 0.294 0.63857 0.0
C1291 C 0.78003 0.27464 0.6395 0.0
C1292 C 0.78566 0.26461 0.62168 0.0
C1293 C 0.78413 0.27368 0.60308 0.0
C1294 C 0.77671 0.2927 0.60256 0.0
C1295 C 0.77097 0.30275 0.61976 0.0
C1296 C 0.76273 0.32276 0.61475 0.0
C1297 C 0.74074 0.3239 0.62113 0.0
C1298 C 0.77557 0.33977 0.62432 0.0
C1299 C 0.76479 0.32234 0.59209 0.0
C1300 C 0.77307 0.3049 0.58548 0.0
C1301 C 0.77692 0.30111 0.56531 0.0
C1302 C 0.77223 0.31553 0.55145 0.0
C1303 C 0.76354 0.33346 0.55775 0.0
C1304 C 0.75968 0.33684 0.57835 0.0
H1305 H 0.5391 0.95949 0.6321 0.0
H1306 H 0.53354 0.01979 0.61158 0.0
H1307 H 0.55409 0.0323 0.64003 0.0
H1308 H 0.53638 0.97054 0.68429 0.0
H1309 H 0.55469 0.95307 0.6915 0.0
H1310 H 0.54005 0.94855 0.66912 0.0
H1311 H 0.57242 0.94584 0.64814 0.0
H1312 H 0.58717 0.95024 0.67048 0.0
H1313 H 0.59096 0.96588 0.64911 0.0
H1314 H 0.57378 0.03857 0.6712 0.0
H1315 H 0.59277 0.03821 0.70277 0.0
H1316 H 0.58679 0.97384 0.70302 0.0
C1317 C 0.54245 0.97529 0.63344 0.0
C1318 C 0.53453 0.98867 0.61968 0.0
C1319 C 0.5391 0.00927 0.62211 0.0
C1320 C 0.55088 0.01653 0.63816 0.0
C1321 C 0.55814 0.00301 0.6516 0.0
C1322 C 0.55427 0.98282 0.64938 0.0
C1323 C 0.56374 0.97159 0.66622 0.0
C1324 C 0.54776 0.96027 0.67851 0.0
C1325 C 0.57951 0.95756 0.65799 0.0
C1326 C 0.57333 0.98867 0.67832 0.0
C1327 C 0.56988 0.00664 0.66957 0.0
C1328 C 0.57671 0.0246 0.67814 0.0
C1329 C 0.58743 0.02422 0.69614 0.0
C1330 C 0.59131 0.00601 0.70538 0.0
C1331 C 0.58417 0.988 0.69627 0.0
H1332 H 0.87895 0.23249 0.77284 0.0
H1333 H 0.84119 0.21506 0.82284 0.0
H1334 H 0.8697 0.22066 0.84595 0.0
H1335 H 0.92281 0.20981 0.78937 0.0
H1336 H 0.93973 0.22931 0.781 0.0
H1337 H 0.91619 0.22474 0.76841 0.0
H1338 H 0.90712 0.26139 0.77466 0.0
H1339 H 0.9307 0.26611 0.78717 0.0
H1340 H 0.90772 0.27157 0.79985 0.0
H1341 H 0.9025 0.22683 0.86343 0.0
H1342 H 0.93725 0.234 0.87429 0.0
H1343 H 0.95368 0.24804 0.81307 0.0
C1344 C 0.87659 0.23016 0.78869 0.0
C1345 C 0.85783 0.22327 0.79601 0.0
C1346 C 0.85547 0.22009 0.81684 0.0
C1347 C 0.87155 0.22333 0.8301 0.0
C1348 C 0.88989 0.22984 0.82235 0.0
C1349 C 0.89248 0.23333 0.80216 0.0
C1350 C 0.91388 0.23987 0.79767 0.0
C1351 C 0.92373 0.22505 0.78326 0.0
C1352 C 0.91491 0.26099 0.78935 0.0
C1353 C 0.92293 0.23934 0.81847 0.0
C1354 C 0.90881 0.23353 0.83248 0.0
C1355 C 0.91367 0.23151 0.85262 0.0
C1356 C 0.93347 0.23557 0.85863 0.0
C1357 C 0.94822 0.24162 0.84456 0.0
C1358 C 0.94277 0.24355 0.82422 0.0
H1359 H 0.46993 0.89633 0.44835 0.0
H1360 H 0.47494 0.86673 0.50522 0.0
H1361 H 0.47985 0.83491 0.48722 0.0
H1362 H 0.44322 0.85638 0.42176 0.0
H1363 H 0.45621 0.8605 0.39846 0.0
H1364 H 0.45274 0.88091 0.41579 0.0
H1365 H 0.49094 0.88845 0.41637 0.0
H1366 H 0.49453 0.8681 0.39901 0.0
H1367 H 0.50755 0.86905 0.42267 0.0
H1368 H 0.48396 0.80637 0.46317 0.0
H1369 H 0.48878 0.7832 0.43469 0.0
H1370 H 0.48167 0.83138 0.39328 0.0
C1371 C 0.47192 0.88311 0.45699 0.0
C1372 C 0.47204 0.88397 0.47818 0.0
C1373 C 0.47498 0.86642 0.48898 0.0
C1374 C 0.47765 0.84827 0.4789 0.0
C1375 C 0.47743 0.84793 0.45801 0.0
C1376 C 0.47476 0.86489 0.44716 0.0
C1377 C 0.47571 0.86053 0.42481 0.0
C1378 C 0.45578 0.86483 0.41461 0.0
C1379 C 0.49323 0.87222 0.41515 0.0
C1380 C 0.47934 0.83847 0.4248 0.0
C1381 C 0.48014 0.8315 0.44411 0.0
C1382 C 0.48338 0.81165 0.44797 0.0
C1383 C 0.48607 0.79859 0.43167 0.0
C1384 C 0.48563 0.80544 0.41171 0.0
C1385 C 0.48209 0.82566 0.40832 0.0
H1386 H 0.11518 0.2958 0.77292 0.0
H1387 H 0.13258 0.23445 0.7685 0.0
H1388 H 0.10574 0.22486 0.79209 0.0
H1389 H 0.10357 0.2956 0.82589 0.0
H1390 H 0.08264 0.31145 0.82343 0.0
H1391 H 0.10322 0.31346 0.80613 0.0
H1392 H 0.07871 0.3077 0.77635 0.0
H1393 H 0.05807 0.30558 0.79356 0.0
H1394 H 0.06242 0.28583 0.77566 0.0
H1395 H 0.07694 0.22185 0.816 0.0
H1396 H 0.04855 0.22577 0.83916 0.0
H1397 H 0.05017 0.28914 0.8284 0.0
C1398 C 0.11348 0.28038 0.77706 0.0
C1399 C 0.12593 0.26586 0.76875 0.0
C1400 C 0.12303 0.24579 0.7744 0.0
C1401 C 0.10789 0.24021 0.78788 0.0
C1402 C 0.09578 0.25485 0.79564 0.0
C1403 C 0.09843 0.27454 0.79051 0.0
C1404 C 0.08334 0.28733 0.801 0.0
C1405 C 0.09382 0.30288 0.81494 0.0
C1406 C 0.06983 0.29719 0.78573 0.0
C1407 C 0.07181 0.27176 0.81282 0.0
C1408 C 0.07921 0.25313 0.8095 0.0
C1409 C 0.07101 0.23638 0.81875 0.0
C1410 C 0.05487 0.23875 0.83186 0.0
C1411 C 0.0471 0.25775 0.83562 0.0
C1412 C 0.05571 0.27441 0.82586 0.0
H1413 H 0.49586 0.63322 0.48382 0.0
H1414 H 0.56073 0.63561 0.482 0.0
H1415 H 0.55993 0.66172 0.45675 0.0
H1416 H 0.48742 0.64115 0.43191 0.0
H1417 H 0.46645 0.65678 0.43583 0.0
H1418 H 0.47193 0.63815 0.45382 0.0
H1419 H 0.47377 0.66497 0.48218 0.0
H1420 H 0.4681 0.68366 0.46432 0.0
H1421 H 0.4903 0.68645 0.47953 0.0
H1422 H 0.55224 0.68677 0.43094 0.0
H1423 H 0.53818 0.71108 0.4082 0.0
H1424 H 0.47837 0.69378 0.42788 0.0
C1425 C 0.50992 0.6394 0.47835 0.0
C1426 C 0.52836 0.63212 0.48479 0.0
C1427 C 0.54639 0.64056 0.47701 0.0
C1428 C 0.54611 0.6555 0.46273 0.0
C1429 C 0.5277 0.66205 0.45646 0.0
C1430 C 0.50994 0.65448 0.46418 0.0
C1431 C 0.49221 0.66438 0.45506 0.0
C1432 C 0.47871 0.64921 0.44347 0.0
C1433 C 0.4804 0.67553 0.47124 0.0
C1434 C 0.50281 0.67865 0.44099 0.0
C1435 C 0.52327 0.67694 0.44194 0.0
C1436 C 0.53624 0.68833 0.43013 0.0
C1437 C 0.52809 0.70205 0.4172 0.0
C1438 C 0.50717 0.7044 0.41628 0.0
C1439 C 0.49442 0.6924 0.42828 0.0
H1440 H 0.87911 0.75169 0.72194 0.0
H1441 H 0.88223 0.81591 0.72874 0.0
H1442 H 0.91156 0.81739 0.70637 0.0
H1443 H 0.93187 0.74505 0.7227 0.0
H1444 H 0.93103 0.72503 0.70438 0.0
H1445 H 0.90979 0.7291 0.72028 0.0
H1446 H 0.88724 0.73167 0.68892 0.0
H1447 H 0.90842 0.72761 0.67292 0.0
H1448 H 0.8939 0.74936 0.66992 0.0
H1449 H 0.94119 0.81182 0.68391 0.0
H1450 H 0.96878 0.79955 0.66302 0.0
H1451 H 0.94659 0.73898 0.67142 0.0
C1452 C 0.88599 0.76607 0.71881 0.0
C1453 C 0.87826 0.78369 0.72707 0.0
C1454 C 0.88762 0.80222 0.72236 0.0
C1455 C 0.90438 0.80321 0.70975 0.0
C1456 C 0.91164 0.78556 0.70195 0.0
C1457 C 0.90273 0.76734 0.70628 0.0
C1458 C 0.91364 0.75057 0.6962 0.0
C1459 C 0.92208 0.73662 0.71182 0.0
C1460 C 0.89998 0.73913 0.68109 0.0
C1461 C 0.93017 0.76219 0.68566 0.0
C1462 C 0.92873 0.78235 0.68911 0.0
C1463 C 0.94244 0.79605 0.68107 0.0
C1464 C 0.95808 0.78894 0.66923 0.0
C1465 C 0.95989 0.7683 0.66556 0.0
C1466 C 0.94565 0.75484 0.6739 0.0
H1467 H 0.00365 0.88679 0.52832 0.0
H1468 H 0.06836 0.8878 0.52427 0.0
H1469 H 0.0692 0.85966 0.54739 0.0
H1470 H 1.00017 0.8745 0.58049 0.0
H1471 H 0.97822 0.85853 0.57711 0.0
H1472 H 0.9828 0.87899 0.56058 0.0
H1473 H 0.98064 0.85482 0.52991 0.0
H1474 H 0.97608 0.83427 0.54635 0.0
H1475 H 0.99656 0.83382 0.52884 0.0
H1476 H 0.06288 0.83089 0.57049 0.0
H1477 H 0.04995 0.80416 0.59227 0.0
H1478 H 0.98934 0.82177 0.58078 0.0
C1479 C 0.01801 0.88105 0.53218 0.0
C1480 C 0.03595 0.88955 0.52446 0.0
C1481 C 0.05443 0.88173 0.53018 0.0
C1482 C 0.05505 0.86566 0.54321 0.0
C1483 C 0.03708 0.85757 0.55043 0.0
C1484 C 0.01891 0.86503 0.54516 0.0
C1485 C 0.00174 0.85364 0.55494 0.0
C1486 C 0.99005 0.86723 0.56912 0.0
C1487 C 0.98794 0.84354 0.53906 0.0
C1488 C 0.01308 0.83852 0.56647 0.0
C1489 C 0.03345 0.84104 0.56369 0.0
C1490 C 0.04696 0.8288 0.5728 0.0
C1491 C 0.03946 0.81364 0.58514 0.0
C1492 C 0.01862 0.81083 0.58826 0.0
C1493 C 0.00534 0.82348 0.57872 0.0
H1494 H 0.1339 0.75402 0.72284 0.0
H1495 H 0.12735 0.69169 0.73761 0.0
H1496 H 0.09766 0.68828 0.71572 0.0
H1497 H 0.0818 0.76378 0.72269 0.0
H1498 H 0.08344 0.78052 0.70196 0.0
H1499 H 0.10466 0.77791 0.71816 0.0
H1500 H 0.12646 0.76889 0.68744 0.0
H1501 H 0.10531 0.77151 0.67114 0.0
H1502 H 0.11847 0.74865 0.67094 0.0
H1503 H 0.068 0.69191 0.69335 0.0
H1504 H 0.04091 0.70201 0.67117 0.0
H1505 H 0.06659 0.76208 0.67094 0.0
C1506 C 0.12621 0.73965 0.7215 0.0
C1507 C 0.13301 0.7231 0.73192 0.0
C1508 C 0.12263 0.70451 0.72957 0.0
C1509 C 0.10567 0.70246 0.71727 0.0
C1510 C 0.0993 0.7191 0.70737 0.0
C1511 C 0.10928 0.73733 0.70926 0.0
C1512 C 0.0992 0.75291 0.69714 0.0
C1513 C 0.09183 0.76977 0.7108 0.0
C1514 C 0.11319 0.76096 0.68069 0.0
C1515 C 0.08187 0.74063 0.68825 0.0
C1516 C 0.08223 0.72118 0.69436 0.0
C1517 C 0.06762 0.70708 0.6884 0.0
C1518 C 0.05226 0.71299 0.67581 0.0
C1519 C 0.05161 0.73284 0.66926 0.0
C1520 C 0.06668 0.74679 0.6756 0.0
H1521 H 0.98389 0.64502 0.51577 0.0
H1522 H 0.96848 0.6078 0.56627 0.0
H1523 H 0.97641 0.63577 0.58952 0.0
H1524 H 0.02572 0.67221 0.54043 0.0
H1525 H 0.02033 0.69539 0.52892 0.0
H1526 H 0.014 0.67225 0.5161 0.0
H1527 H 0.97728 0.68265 0.51312 0.0
H1528 H 0.98345 0.70576 0.52606 0.0
H1529 H 0.96381 0.68951 0.53545 0.0
H1530 H 0.98441 0.66769 0.60726 0.0
H1531 H 0.99366 0.70165 0.6188 0.0
H1532 H 0.00488 0.71863 0.5572 0.0
C1533 C 0.98246 0.64271 0.53173 0.0
C1534 C 0.97536 0.62426 0.53918 0.0
C1535 C 0.97352 0.62189 0.56018 0.0
C1536 C 0.9781 0.63765 0.57353 0.0
C1537 C 0.98465 0.65572 0.56571 0.0
C1538 C 0.98701 0.65835 0.54534 0.0
C1539 C 0.99407 0.67948 0.54101 0.0
C1540 C 0.01476 0.67985 0.53102 0.0
C1541 C 0.97873 0.68996 0.52815 0.0
C1542 C 0.99511 0.68828 0.56212 0.0
C1543 C 0.98958 0.67426 0.57608 0.0
C1544 C 0.9889 0.67879 0.5965 0.0
C1545 C 0.99412 0.69818 0.60289 0.0
C1546 C 1.00004 0.71285 0.58893 0.0
C1547 C 1.00051 0.70776 0.56825 0.0
H1548 H 0.77517 0.89593 0.20702 0.0
H1549 H 0.78049 0.87558 0.26804 0.0
H1550 H 0.80433 0.90343 0.27578 0.0
H1551 H 0.82719 0.91274 0.20113 0.0
H1552 H 0.82105 0.93408 0.18679 0.0
H1553 H 0.80502 0.91204 0.18577 0.0
H1554 H 0.77492 0.93288 0.19646 0.0
H1555 H 0.79087 0.95495 0.19765 0.0
H1556 H 0.77643 0.94767 0.21926 0.0
H1557 H 0.82679 0.93353 0.27722 0.0
H1558 H 0.84698 0.96427 0.27235 0.0
H1559 H 0.82696 0.96578 0.21045 0.0
C1560 C 0.78159 0.89723 0.22191 0.0
C1561 C 0.77602 0.88366 0.23696 0.0
C1562 C 0.78447 0.88594 0.25637 0.0
C1563 C 0.79805 0.90165 0.26088 0.0
C1564 C 0.803 0.91496 0.24582 0.0
C1565 C 0.7951 0.91295 0.22672 0.0
C1566 C 0.80255 0.9297 0.21351 0.0
C1567 C 0.81468 0.92165 0.19575 0.0
C1568 C 0.78515 0.94203 0.2063 0.0
C1569 C 0.8158 0.94145 0.22823 0.0
C1570 C 0.81586 0.9326 0.24674 0.0
C1571 C 0.82691 0.9406 0.2628 0.0
C1572 C 0.83832 0.95809 0.25986 0.0
C1573 C 0.83855 0.96748 0.24102 0.0
C1574 C 0.82705 0.95902 0.22504 0.0
H1575 H 0.7906 0.1332 0.25607 0.0
H1576 H 0.77636 0.131 0.3195 0.0
H1577 H 0.79852 0.10292 0.32322 0.0
H1578 H 0.79258 0.08003 0.24781 0.0
H1579 H 0.81321 0.08176 0.23052 0.0
H1580 H 0.79615 0.10175 0.23271 0.0
H1581 H 0.82582 0.12643 0.24041 0.0
H1582 H 0.84296 0.10649 0.23835 0.0
H1583 H 0.84244 0.12166 0.26089 0.0
H1584 H 0.82181 0.07521 0.32033 0.0
H1585 H 0.8449 0.04901 0.31091 0.0
H1586 H 0.84467 0.0688 0.24933 0.0
C1587 C 0.79207 0.1267 0.27069 0.0
C1588 C 0.78187 0.1344 0.28754 0.0
C1589 C 0.78427 0.12557 0.30646 0.0
C1590 C 0.79675 0.10955 0.30872 0.0
C1591 C 0.80677 0.10248 0.29192 0.0
C1592 C 0.80459 0.11069 0.27325 0.0
C1593 C 0.81721 0.10019 0.25772 0.0
C1594 C 0.804 0.09035 0.24122 0.0
C1595 C 0.83305 0.11455 0.24882 0.0
C1596 C 0.82673 0.0848 0.2706 0.0
C1597 C 0.82044 0.08643 0.29026 0.0
C1598 C 0.82688 0.07378 0.30499 0.0
C1599 C 0.84001 0.05893 0.29947 0.0
C1600 C 0.84665 0.05685 0.27939 0.0
C1601 C 0.83998 0.07009 0.26482 0.0
H1602 H 0.37094 0.96563 0.9702 0.0
H1603 H 0.39484 0.97894 0.02963 0.0
H1604 H 0.3667 0.95988 0.04461 0.0
H1605 H 0.3198 0.9697 0.98288 0.0
H1606 H 0.31106 0.94944 0.96677 0.0
H1607 H 0.33354 0.96341 0.96054 0.0
H1608 H 0.35323 0.93102 0.95927 0.0
H1609 H 0.33077 0.91692 0.96539 0.0
H1610 H 0.3528 0.91506 0.98066 0.0
H1611 H 0.33534 0.94061 0.05329 0.0
H1612 H 0.30319 0.92165 0.05499 0.0
H1613 H 0.29984 0.92032 0.98995 0.0
C1614 C 0.37041 0.96427 0.98634 0.0
C1615 C 0.38505 0.97387 0.99875 0.0
C1616 C 0.38365 0.97196 0.01984 0.0
C1617 C 0.36779 0.96107 0.02849 0.0
C1618 C 0.35345 0.95207 0.01588 0.0
C1619 C 0.35464 0.95344 0.99526 0.0
C1620 C 0.33697 0.94272 0.98515 0.0
C1621 C 0.32462 0.95718 0.97313 0.0
C1622 C 0.34386 0.9254 0.97183 0.0
C1623 C 0.3256 0.93529 0.00333 0.0
C1624 C 0.33539 0.94082 0.02089 0.0
C1625 C 0.32758 0.93607 0.03963 0.0
C1626 C 0.30928 0.92534 0.04044 0.0
C1627 C 0.29899 0.91946 0.02263 0.0
C1628 C 0.30736 0.92451 0.00385 0.0
H1629 H 0.23148 0.3866 0.29662 0.0
H1630 H 0.22556 0.36594 0.23482 0.0
H1631 H 0.19945 0.39011 0.22924 0.0
H1632 H 0.17842 0.39585 0.30487 0.0
H1633 H 0.18347 0.41788 0.32003 0.0
H1634 H 0.20098 0.39819 0.31959 0.0
H1635 H 0.22915 0.42317 0.30905 0.0
H1636 H 0.21172 0.4429 0.30936 0.0
H1637 H 0.22592 0.43779 0.28701 0.0
H1638 H 0.1752 0.4171 0.22974 0.0
H1639 H 0.15385 0.44544 0.23628 0.0
H1640 H 0.17512 0.44922 0.29782 0.0
C1641 C 0.22445 0.38701 0.28202 0.0
C1642 C 0.23057 0.37445 0.26612 0.0
C1643 C 0.22124 0.37557 0.24714 0.0
C1644 C 0.20633 0.38918 0.24385 0.0
C1645 C 0.20087 0.40157 0.25969 0.0
C1646 C 0.20956 0.40063 0.27843 0.0
C1647 C 0.20135 0.41622 0.29262 0.0
C1648 C 0.1904 0.40645 0.31032 0.0
C1649 C 0.21803 0.43089 0.29993 0.0
C1650 C 0.18688 0.42616 0.27883 0.0
C1651 C 0.18681 0.41736 0.25996 0.0
C1652 C 0.17503 0.42407 0.24449 0.0
C1653 C 0.16296 0.44023 0.24837 0.0
C1654 C 0.16275 0.44961 0.26758 0.0
C1655 C 0.17487 0.44237 0.28301 0.0
H1656 H 0.14589 0.03112 0.48239 0.0
H1657 H 0.09629 0.07045 0.47783 0.0
H1658 H 0.11978 0.0995 0.48029 0.0
H1659 H 0.17482 0.0608 0.51799 0.0
H1660 H 0.19849 0.05524 0.50674 0.0
H1661 H 0.17775 0.03758 0.50463 0.0
H1662 H 0.1812 0.03744 0.46594 0.0
H1663 H 0.2019 0.05516 0.46793 0.0
H1664 H 0.18052 0.06054 0.45283 0.0
H1665 H 0.14846 0.12421 0.48429 0.0
H1666 H 0.18055 0.14298 0.48858 0.0
H1667 H 0.21171 0.08764 0.48939 0.0
C1668 C 0.14 0.04586 0.48203 0.0
C1669 C 0.11929 0.04857 0.47994 0.0
C1670 C 0.11213 0.06807 0.47926 0.0
C1671 C 0.12534 0.08464 0.48071 0.0
C1672 C 0.14567 0.08146 0.48268 0.0
C1673 C 0.153 0.06258 0.48325 0.0
C1674 C 0.17556 0.06329 0.48525 0.0
C1675 C 0.18203 0.05366 0.50482 0.0
C1676 C 0.18537 0.05353 0.46689 0.0
C1677 C 0.17974 0.08553 0.48589 0.0
C1678 C 0.16228 0.09573 0.48446 0.0
C1679 C 0.16225 0.11639 0.4853 0.0
C1680 C 0.18054 0.12692 0.48776 0.0
C1681 C 0.19864 0.11679 0.4892 0.0
C1682 C 0.19816 0.09582 0.4881 0.0
H1683 H 0.71329 0.12287 0.74662 0.0
H1684 H 0.73393 0.11233 0.68584 0.0
H1685 H 0.71677 0.07931 0.68539 0.0
H1686 H 0.71684 0.07201 0.76378 0.0
H1687 H 0.69433 0.07279 0.77853 0.0
H1688 H 0.70911 0.09523 0.77457 0.0
H1689 H 0.6781 0.11192 0.76019 0.0
H1690 H 0.66324 0.08953 0.76405 0.0
H1691 H 0.66468 0.10016 0.73948 0.0
H1692 H 0.69729 0.04799 0.69112 0.0
H1693 H 0.67542 0.02024 0.70214 0.0
H1694 H 0.666 0.05099 0.75902 0.0
C1695 C 0.71433 0.11346 0.73335 0.0
C1696 C 0.72492 0.12005 0.71626 0.0
C1697 C 0.72577 0.10754 0.69902 0.0
C1698 C 0.71616 0.08876 0.69866 0.0
C1699 C 0.70566 0.08276 0.71563 0.0
C1700 C 0.70457 0.0947 0.73264 0.0
C1701 C 0.69152 0.08488 0.74848 0.0
C1702 C 0.70368 0.08099 0.76746 0.0
C1703 C 0.67331 0.09737 0.75333 0.0
C1704 C 0.6854 0.06563 0.73763 0.0
C1705 C 0.6939 0.06471 0.71878 0.0
C1706 C 0.69054 0.0485 0.70585 0.0
C1707 C 0.67808 0.0328 0.71229 0.0
C1708 C 0.66896 0.03342 0.73145 0.0
C1709 C 0.67273 0.05009 0.74428 0.0
H1710 H 0.38747 0.03653 0.50033 0.0
H1711 H 0.37345 0.02994 0.56339 0.0
H1712 H 0.34351 0.04975 0.5592 0.0
H1713 H 0.37367 0.08665 0.49726 0.0
H1714 H 0.36315 0.08419 0.47242 0.0
H1715 H 0.38269 0.06822 0.47988 0.0
H1716 H 0.36017 0.03729 0.47087 0.0
H1717 H 0.34057 0.05318 0.4633 0.0
H1718 H 0.3357 0.03463 0.48195 0.0
H1719 H 0.31623 0.07131 0.5488 0.0
H1720 H 0.2931 0.09379 0.5329 0.0
H1721 H 0.32466 0.0871 0.4764 0.0
C1722 C 0.37788 0.03903 0.51314 0.0
C1723 C 0.38272 0.03173 0.53219 0.0
C1724 C 0.37005 0.03553 0.54871 0.0
C1725 C 0.35299 0.04667 0.54646 0.0
C1726 C 0.34879 0.05393 0.52758 0.0
C1727 C 0.36082 0.05029 0.51118 0.0
C1728 C 0.35336 0.06068 0.4928 0.0
C1729 C 0.36916 0.07584 0.48515 0.0
C1730 C 0.34707 0.04554 0.47625 0.0
C1731 C 0.33543 0.07091 0.50153 0.0
C1732 C 0.33303 0.06666 0.52158 0.0
C1733 C 0.31786 0.07468 0.53308 0.0
C1734 C 0.30481 0.08748 0.52388 0.0
C1735 C 0.30702 0.09224 0.50337 0.0
C1736 C 0.32251 0.08371 0.49207 0.0
H1737 H 0.62542 0.47462 0.54488 0.0
H1738 H 0.61499 0.48437 0.48162 0.0
H1739 H 0.64161 0.46156 0.47288 0.0
H1740 H 0.67752 0.47271 0.54256 0.0
H1741 H 0.67986 0.45305 0.56025 0.0
H1742 H 0.65897 0.46907 0.56185 0.0
H1743 H 0.63443 0.43855 0.55951 0.0
H1744 H 0.65527 0.42238 0.55806 0.0
H1745 H 0.63637 0.42115 0.53879 0.0
H1746 H 0.67141 0.44109 0.47083 0.0
H1747 H 0.70124 0.42128 0.47553 0.0
H1748 H 0.69143 0.42216 0.53982 0.0
C1749 C 0.62844 0.47161 0.5292 0.0
C1750 C 0.61827 0.48154 0.51395 0.0
C1751 C 0.62285 0.47733 0.49359 0.0
C1752 C 0.63785 0.46426 0.48844 0.0
C1753 C 0.64796 0.4552 0.50379 0.0
C1754 C 0.64331 0.45838 0.52374 0.0
C1755 C 0.65699 0.44707 0.53722 0.0
C1756 C 0.66905 0.46133 0.5513 0.0
C1757 C 0.64505 0.43135 0.5491 0.0
C1758 C 0.67034 0.43749 0.52171 0.0
C1759 C 0.66482 0.44247 0.50253 0.0
C1760 C 0.67568 0.43676 0.48572 0.0
C1761 C 0.69264 0.42562 0.48855 0.0
C1762 C 0.69845 0.42009 0.50799 0.0
C1763 C 0.68704 0.42591 0.52477 0.0
H1764 H 0.72312 0.3027 0.37398 0.0
H1765 H 0.73557 0.24913 0.40611 0.0
H1766 H 0.73641 0.26821 0.43798 0.0
H1767 H 0.75493 0.33526 0.40268 0.0
H1768 H 0.73855 0.35589 0.40264 0.0
H1769 H 0.73763 0.33795 0.38229 0.0
H1770 H 0.69978 0.33144 0.38836 0.0
H1771 H 0.70056 0.34948 0.40867 0.0
H1772 H 0.69117 0.32453 0.41295 0.0
H1773 H 0.73809 0.29297 0.4659 0.0
H1774 H 0.73915 0.32206 0.48881 0.0
H1775 H 0.72493 0.35995 0.43921 0.0
C1776 C 0.72569 0.29497 0.38778 0.0
C1777 C 0.72944 0.27446 0.38756 0.0
C1778 C 0.73296 0.26489 0.4059 0.0
C1779 C 0.73336 0.27557 0.42409 0.0
C1780 C 0.73007 0.29581 0.42376 0.0
C1781 C 0.72615 0.30545 0.40617 0.0
C1782 C 0.72376 0.32749 0.41009 0.0
C1783 C 0.73967 0.33987 0.39875 0.0
C1784 C 0.70255 0.33359 0.4047 0.0
C1785 C 0.72724 0.32869 0.43257 0.0
C1786 C 0.73081 0.31021 0.44009 0.0
C1787 C 0.73513 0.30752 0.46025 0.0
C1788 C 0.73577 0.32417 0.47313 0.0
C1789 C 0.73206 0.3433 0.46585 0.0
C1790 C 0.72767 0.34551 0.44527 0.0
H1791 H 0.53172 0.0503 0.87676 0.0
H1792 H 0.52598 0.98965 0.89732 0.0
H1793 H 0.54684 0.97862 0.869 0.0
H1794 H 0.53063 0.03875 0.82369 0.0
H1795 H 0.54889 0.05798 0.8176 0.0
H1796 H 0.53293 0.06099 0.83909 0.0
H1797 H 0.56405 0.06676 0.86183 0.0
H1798 H 0.5801 0.06375 0.84041 0.0
H1799 H 0.58301 0.04844 0.862 0.0
H1800 H 0.56913 0.97433 0.83899 0.0
H1801 H 0.5908 0.97695 0.80921 0.0
H1802 H 0.58253 0.04054 0.80852 0.0
C1803 C 0.5349 0.0347 0.87539 0.0
C1804 C 0.52714 0.02084 0.8893 0.0
C1805 C 0.53147 0.00052 0.88673 0.0
C1806 C 0.54342 0.99413 0.87075 0.0
C1807 C 0.55094 0.00821 0.85744 0.0
C1808 C 0.54682 0.02807 0.85956 0.0
C1809 C 0.55694 0.04022 0.84333 0.0
C1810 C 0.54142 0.05006 0.83015 0.0
C1811 C 0.57191 0.0557 0.85244 0.0
C1812 C 0.56752 0.02411 0.83181 0.0
C1813 C 0.56383 0.00575 0.84019 0.0
C1814 C 0.57208 0.98862 0.83228 0.0
C1815 C 0.5844 0.99028 0.81535 0.0
C1816 C 0.5884 0.00895 0.80647 0.0
C1817 C 0.57979 0.02605 0.8149 0.0
H1818 H 0.2569 0.23422 0.37027 0.0
H1819 H 0.32156 0.23981 0.374 0.0
H1820 H 0.3212 0.21572 0.40145 0.0
H1821 H 0.24797 0.23113 0.42319 0.0
H1822 H 0.22737 0.21335 0.42046 0.0
H1823 H 0.23283 0.23068 0.40083 0.0
H1824 H 0.2355 0.20145 0.37526 0.0
H1825 H 0.2301 0.18403 0.39483 0.0
H1826 H 0.25251 0.18197 0.3801 0.0
H1827 H 0.31367 0.19138 0.42899 0.0
H1828 H 0.29954 0.16878 0.45448 0.0
H1829 H 0.23982 0.17946 0.43281 0.0
C1830 C 0.27099 0.23051 0.37694 0.0
C1831 C 0.28927 0.23892 0.36994 0.0
C1832 C 0.30739 0.23339 0.37892 0.0
C1833 C 0.30733 0.21979 0.39458 0.0
C1834 C 0.28904 0.21181 0.40111 0.0
C1835 C 0.27121 0.21696 0.39256 0.0
C1836 C 0.25359 0.20635 0.4024 0.0
C1837 C 0.23962 0.22127 0.41231 0.0
C1838 C 0.24226 0.19264 0.38724 0.0
C1839 C 0.26428 0.19452 0.41791 0.0
C1840 C 0.28472 0.19782 0.41691 0.0
C1841 C 0.29768 0.18865 0.42988 0.0
C1842 C 0.28951 0.17583 0.44431 0.0
C1843 C 0.26857 0.17231 0.44566 0.0
C1844 C 0.25588 0.18177 0.43217 0.0
H1845 H 0.47295 0.5087 0.87468 0.0
H1846 H 0.49214 0.44842 0.86544 0.0
H1847 H 0.4713 0.44512 0.83494 0.0
H1848 H 0.4222 0.49918 0.85929 0.0
H1849 H 0.41989 0.52261 0.84709 0.0
H1850 H 0.43691 0.52063 0.86779 0.0
H1851 H 0.46603 0.53404 0.84573 0.0
H1852 H 0.44907 0.53612 0.82497 0.0
H1853 H 0.47116 0.52183 0.8221 0.0
H1854 H 0.44848 0.44818 0.80569 0.0
H1855 H 0.42427 0.45704 0.77982 0.0
H1856 H 0.41892 0.51513 0.80821 0.0
C1857 C 0.47289 0.4949 0.86609 0.0
C1858 C 0.48415 0.4788 0.87239 0.0
C1859 C 0.48349 0.46087 0.86095 0.0
C1860 C 0.47178 0.45889 0.84357 0.0
C1861 C 0.46072 0.47494 0.83786 0.0
C1862 C 0.46109 0.4926 0.84877 0.0
C1863 C 0.44728 0.50731 0.8396 0.0
C1864 C 0.43058 0.51275 0.85432 0.0
C1865 C 0.45909 0.52592 0.83269 0.0
C1866 C 0.4391 0.49515 0.82188 0.0
C1867 C 0.44717 0.47657 0.82112 0.0
C1868 C 0.44204 0.46268 0.80612 0.0
C1869 C 0.42827 0.46787 0.79147 0.0
C1870 C 0.41964 0.48676 0.79197 0.0
C1871 C 0.42518 0.50054 0.80744 0.0
H1872 H 0.74039 0.72165 0.13289 0.0
H1873 H 0.7159 0.77133 0.10217 0.0
H1874 H 0.71682 0.75241 0.07002 0.0
H1875 H 0.77455 0.70815 0.09363 0.0
H1876 H 0.77143 0.6818 0.09729 0.0
H1877 H 0.7681 0.69886 0.11804 0.0
H1878 H 0.7326 0.68363 0.12407 0.0
H1879 H 0.73584 0.66649 0.10337 0.0
H1880 H 0.71481 0.68243 0.10377 0.0
H1881 H 0.72 0.72831 0.04165 0.0
H1882 H 0.72652 0.70087 0.01794 0.0
H1883 H 0.75065 0.6669 0.0664 0.0
C1884 C 0.73513 0.72837 0.11934 0.0
C1885 C 0.72792 0.74779 0.11979 0.0
C1886 C 0.72136 0.7564 0.10193 0.0
C1887 C 0.72183 0.74578 0.08369 0.0
C1888 C 0.7291 0.72667 0.08363 0.0
C1889 C 0.73574 0.71803 0.10092 0.0
C1890 C 0.74338 0.69748 0.09648 0.0
C1891 C 0.76569 0.69653 0.10167 0.0
C1892 C 0.73091 0.68157 0.10758 0.0
C1893 C 0.73996 0.69594 0.07402 0.0
C1894 C 0.73156 0.71291 0.06701 0.0
C1895 C 0.72663 0.71497 0.04692 0.0
C1896 C 0.73036 0.69926 0.03358 0.0
C1897 C 0.73914 0.68177 0.04031 0.0
C1898 C 0.74407 0.68015 0.06081 0.0
H1899 H 0.9798 0.04025 0.13466 0.0
H1900 H 0.98048 0.98025 0.10987 0.0
H1901 H 0.95526 0.96945 0.13468 0.0
H1902 H 0.97485 0.0268 0.18593 0.0
H1903 H 0.95838 0.04648 0.19247 0.0
H1904 H 0.9761 0.0497 0.1724 0.0
H1905 H 0.94737 0.05771 0.14817 0.0
H1906 H 0.92955 0.05449 0.16818 0.0
H1907 H 0.92648 0.0403 0.14514 0.0
H1908 H 0.93064 0.96492 0.16233 0.0
H1909 H 0.90851 0.96668 0.19173 0.0
H1910 H 0.9233 0.0297 0.19867 0.0
C1911 C 0.97449 0.02489 0.13433 0.0
C1912 C 0.98218 0.01107 0.12037 0.0
C1913 C 0.97503 0.99103 0.12061 0.0
C1914 C 0.9606 0.98479 0.13453 0.0
C1915 C 0.9534 0.99875 0.14812 0.0
C1916 C 0.96008 0.01837 0.14817 0.0
C1917 C 0.95021 0.03021 0.16475 0.0
C1918 C 0.96582 0.0388 0.17978 0.0
C1919 C 0.93766 0.04665 0.15603 0.0
C1920 C 0.93707 0.01412 0.17408 0.0
C1921 C 0.9391 0.99612 0.16416 0.0
C1922 C 0.92886 0.97894 0.17019 0.0
C1923 C 0.91632 0.98011 0.18693 0.0
C1924 C 0.91413 0.99833 0.19752 0.0
C1925 C 0.92455 0.01558 0.19084 0.0
H1926 H 0.29726 0.78394 0.11953 0.0
H1927 H 0.23701 0.78083 0.14344 0.0
H1928 H 0.22608 0.80332 0.11711 0.0
H1929 H 0.29785 0.83553 0.10695 0.0
H1930 H 0.31202 0.83215 0.08425 0.0
H1931 H 0.31502 0.81561 0.10483 0.0
H1932 H 0.30638 0.78546 0.08133 0.0
H1933 H 0.30337 0.8019 0.06068 0.0
H1934 H 0.28331 0.78477 0.06738 0.0
H1935 H 0.22191 0.82685 0.08865 0.0
H1936 H 0.22456 0.8488 0.05948 0.0
H1937 H 0.28749 0.83631 0.05397 0.0
C1938 C 0.28179 0.78806 0.11928 0.0
C1939 C 0.26798 0.7806 0.13354 0.0
C1940 C 0.2478 0.78616 0.13253 0.0
C1941 C 0.24148 0.79902 0.1177 0.0
C1942 C 0.25549 0.80614 0.10393 0.0
C1943 C 0.2752 0.8008 0.10452 0.0
C1944 C 0.28723 0.81045 0.08788 0.0
C1945 C 0.30402 0.82426 0.0965 0.0
C1946 C 0.29556 0.7947 0.07346 0.0
C1947 C 0.27122 0.82213 0.07789 0.0
C1948 C 0.25303 0.81949 0.0874 0.0
C1949 C 0.23607 0.82898 0.08103 0.0
C1950 C 0.23773 0.84144 0.06446 0.0
C1951 C 0.25621 0.84426 0.05438 0.0
C1952 C 0.27312 0.83442 0.06127 0.0
H1953 H 0.02986 0.50807 0.12049 0.0
H1954 H 0.01899 0.44466 0.12675 0.0
H1955 H 0.03746 0.4458 0.1587 0.0
H1956 H 0.07931 0.50967 0.13898 0.0
H1957 H 0.07763 0.53303 0.15237 0.0
H1958 H 0.06215 0.52782 0.1307 0.0
H1959 H 0.03048 0.53444 0.15172 0.0
H1960 H 0.04589 0.53983 0.17344 0.0
H1961 H 0.02612 0.52103 0.17452 0.0
H1962 H 0.05891 0.45293 0.18822 0.0
H1963 H 0.0812 0.46597 0.215 0.0
H1964 H 0.07837 0.52513 0.19067 0.0
C1965 C 0.03107 0.49455 0.12884 0.0
C1966 C 0.02309 0.47625 0.12114 0.0
C1967 C 0.02518 0.45878 0.1323 0.0
C1968 C 0.03557 0.45929 0.15049 0.0
C1969 C 0.04372 0.47741 0.15742 0.0
C1970 C 0.0415 0.49478 0.14711 0.0
C1971 C 0.05253 0.51207 0.15767 0.0
C1972 C 0.06887 0.52118 0.14412 0.0
C1973 C 0.03788 0.52777 0.16476 0.0
C1974 C 0.06151 0.50157 0.17529 0.0
C1975 C 0.05613 0.4816 0.1748 0.0
C1976 C 0.06308 0.46858 0.18891 0.0
C1977 C 0.07583 0.47615 0.20403 0.0
C1978 C 0.08153 0.4966 0.20501 0.0
C1979 C 0.07417 0.50947 0.19043 0.0
H1980 H 0.35641 0.72435 0.3037 0.0
H1981 H 0.38863 0.72943 0.24751 0.0
H1982 H 0.42009 0.73606 0.26622 0.0
H1983 H 0.3844 0.7633 0.33035 0.0
H1984 H 0.38385 0.75057 0.35387 0.0
H1985 H 0.36389 0.7463 0.33604 0.0
H1986 H 0.36977 0.70852 0.33634 0.0
H1987 H 0.38978 0.71268 0.35413 0.0
H1988 H 0.39429 0.69969 0.33078 0.0
H1989 H 0.44809 0.74101 0.29094 0.0
H1990 H 0.47063 0.74584 0.31997 0.0
H1991 H 0.42012 0.73825 0.36027 0.0
C1992 C 0.3701 0.7268 0.29535 0.0
C1993 C 0.37011 0.72636 0.27415 0.0
C1994 C 0.38828 0.72989 0.26374 0.0
C1995 C 0.40622 0.73355 0.27424 0.0
C1996 C 0.40571 0.73375 0.29512 0.0
C1997 C 0.38812 0.73062 0.30559 0.0
C1998 C 0.39165 0.73187 0.32803 0.0
C1999 C 0.38027 0.74903 0.33763 0.0
C2000 C 0.38604 0.71201 0.3379 0.0
C2001 C 0.41401 0.73608 0.32856 0.0
C2002 C 0.42182 0.737 0.3094 0.0
C2003 C 0.44214 0.74041 0.30601 0.0
C2004 C 0.45483 0.74309 0.32262 0.0
C2005 C 0.44715 0.74247 0.34242 0.0
C2006 C 0.42645 0.73889 0.34534 0.0
H2007 H 0.95188 0.38095 0.95779 0.0
H2008 H 0.01419 0.40016 0.9634 0.0
H2009 H 0.02394 0.37115 0.94292 0.0
H2010 H 0.95942 0.32939 0.96165 0.0
H2011 H 0.94038 0.32197 0.94365 0.0
H2012 H 0.93827 0.34472 0.95795 0.0
H2013 H 0.93547 0.36429 0.92506 0.0
H2014 H 0.93755 0.34158 0.91065 0.0
H2015 H 0.95466 0.36228 0.90626 0.0
H2016 H 0.02694 0.33953 0.9227 0.0
H2017 H 0.02304 0.30732 0.90464 0.0
H2018 H 0.95871 0.30892 0.9121 0.0
C2019 C 0.96755 0.37922 0.95445 0.0
C2020 C 0.98228 0.39283 0.96216 0.0
C2021 C 0.00267 0.38982 0.95779 0.0
C2022 C 0.00834 0.37347 0.94608 0.0
C2023 C 0.99344 0.36027 0.93883 0.0
C2024 C 0.97347 0.36296 0.94284 0.0
C2025 C 0.96047 0.34624 0.93384 0.0
C2026 C 0.94896 0.33491 0.95025 0.0
C2027 C 0.9462 0.35407 0.91801 0.0
C2028 C 0.97626 0.33363 0.92428 0.0
C2029 C 0.99518 0.34203 0.92725 0.0
C2030 C 0.01219 0.33286 0.9202 0.0
C2031 C 0.00982 0.31456 0.90996 0.0
C2032 C 0.99057 0.30558 0.90692 0.0
C2033 C 0.97362 0.3154 0.91408 0.0
H2034 H 0.62366 0.75105 0.27067 0.0
H2035 H 0.62233 0.81538 0.27 0.0
H2036 H 0.59485 0.81459 0.29453 0.0
H2037 H 0.56974 0.74256 0.27439 0.0
H2038 H 0.57177 0.72167 0.29064 0.0
H2039 H 0.59125 0.72728 0.2728 0.0
H2040 H 0.61729 0.72889 0.30157 0.0
H2041 H 0.59787 0.72346 0.31952 0.0
H2042 H 0.61372 0.74547 0.3227 0.0
H2043 H 0.56841 0.80708 0.31997 0.0
H2044 H 0.54324 0.79309 0.34325 0.0
H2045 H 0.56081 0.73358 0.32668 0.0
C2046 C 0.61741 0.76495 0.27547 0.0
C2047 C 0.62532 0.78329 0.26855 0.0
C2048 C 0.61681 0.80116 0.27538 0.0
C2049 C 0.60112 0.80088 0.28924 0.0
C2050 C 0.59393 0.7826 0.29604 0.0
C2051 C 0.60164 0.76494 0.28927 0.0
C2052 C 0.59116 0.74734 0.29904 0.0
C2053 C 0.58034 0.73393 0.28328 0.0
C2054 C 0.60589 0.7356 0.31144 0.0
C2055 C 0.57645 0.7579 0.3124 0.0
C2056 C 0.57837 0.77824 0.31049 0.0
C2057 C 0.56668 0.79116 0.32153 0.0
C2058 C 0.55246 0.78308 0.33477 0.0
C2059 C 0.55001 0.76225 0.33677 0.0
C2060 C 0.56226 0.74956 0.32545 0.0
H2061 H 0.02683 0.12881 0.96929 0.0
H2062 H 0.0199 0.15767 0.02748 0.0
H2063 H 0.01469 0.18949 0.011 0.0
H2064 H 0.05322 0.17056 0.9453 0.0
H2065 H 0.0409 0.16615 0.92152 0.0
H2066 H 0.045 0.14574 0.9379 0.0
H2067 H 0.00714 0.13646 0.93711 0.0
H2068 H 0.00291 0.15688 0.92082 0.0
H2069 H 0.98947 0.1549 0.94415 0.0
H2070 H 0.0088 0.21772 0.9885 0.0
H2071 H 0.00308 0.24098 0.96124 0.0
H2072 H 0.01412 0.19424 0.91731 0.0
C2073 C 0.02452 0.1419 0.97855 0.0
C2074 C 0.02368 0.14075 0.99968 0.0
C2075 C 0.02034 0.15815 0.01127 0.0
C2076 C 0.01747 0.17632 0.00205 0.0
C2077 C 0.01806 0.17689 0.98121 0.0
C2078 C 0.02157 0.16021 0.96957 0.0
C2079 C 0.02086 0.16486 0.94742 0.0
C2080 C 0.04121 0.16164 0.93745 0.0
C2081 C 0.00409 0.15254 0.93675 0.0
C2082 C 0.01618 0.1867 0.94849 0.0
C2083 C 0.0147 0.19331 0.96814 0.0
C2084 C 0.01003 0.21277 0.97303 0.0
C2085 C 0.00677 0.22586 0.95741 0.0
C2086 C 0.00818 0.21948 0.93711 0.0
C2087 C 0.01303 0.19961 0.93266 0.0
H2088 H 0.40233 0.27799 0.23225 0.0
H2089 H 0.35377 0.28703 0.19068 0.0
H2090 H 0.37716 0.28428 0.16229 0.0
H2091 H 0.44011 0.30555 0.20541 0.0
H2092 H 0.45969 0.28883 0.21095 0.0
H2093 H 0.43914 0.29143 0.22809 0.0
H2094 H 0.43157 0.25349 0.22589 0.0
H2095 H 0.45214 0.25076 0.20878 0.0
H2096 H 0.42746 0.24165 0.2017 0.0
H2097 H 0.4057 0.28058 0.1384 0.0
H2098 H 0.43752 0.27606 0.12057 0.0
H2099 H 0.46761 0.26907 0.17754 0.0
C2100 C 0.39658 0.27922 0.21717 0.0
C2101 C 0.3762 0.28283 0.21372 0.0
C2102 C 0.36935 0.28458 0.19374 0.0
C2103 C 0.3825 0.28292 0.1775 0.0
C2104 C 0.40248 0.27948 0.18144 0.0
C2105 C 0.40952 0.27762 0.20076 0.0
C2106 C 0.43173 0.27404 0.20083 0.0
C2107 C 0.44335 0.29097 0.21198 0.0
C2108 C 0.43597 0.25378 0.20983 0.0
C2109 C 0.43607 0.27418 0.17853 0.0
C2110 C 0.41898 0.27733 0.16763 0.0
C2111 C 0.41919 0.27809 0.14678 0.0
C2112 C 0.43736 0.27551 0.13678 0.0
C2113 C 0.45509 0.27222 0.14762 0.0
C2114 C 0.45435 0.27158 0.1688 0.0
H2115 H 0.51959 0.40174 0.04921 0.0
H2116 H 0.52947 0.36429 0.99681 0.0
H2117 H 0.53038 0.33491 0.01833 0.0
H2118 H 0.55076 0.37583 0.08374 0.0
H2119 H 0.53399 0.37854 0.10467 0.0
H2120 H 0.53487 0.39683 0.08532 0.0
H2121 H 0.49678 0.39153 0.07959 0.0
H2122 H 0.49578 0.37329 0.09896 0.0
H2123 H 0.48662 0.36688 0.07418 0.0
H2124 H 0.53069 0.30989 0.04523 0.0
H2125 H 0.52759 0.28989 0.07558 0.0
H2126 H 0.51578 0.34303 0.11087 0.0
C2127 C 0.52203 0.38734 0.04236 0.0
C2128 C 0.5245 0.38519 0.02139 0.0
C2129 C 0.52743 0.36615 0.01284 0.0
C2130 C 0.52808 0.34944 0.02494 0.0
C2131 C 0.52559 0.35201 0.04555 0.0
C2132 C 0.52241 0.37041 0.05421 0.0
C2133 C 0.51928 0.36884 0.07667 0.0
C2134 C 0.53571 0.38072 0.08828 0.0
C2135 C 0.49837 0.37553 0.0827 0.0
C2136 C 0.5212 0.34668 0.07924 0.0
C2137 C 0.52508 0.33735 0.06109 0.0
C2138 C 0.52761 0.317 0.05953 0.0
C2139 C 0.52587 0.30578 0.07691 0.0
C2140 C 0.5214 0.31486 0.09566 0.0
C2141 C 0.51917 0.33564 0.09679 0.0
H2142 H 0.63535 0.25615 0.2279 0.0
H2143 H 0.6311 0.19294 0.23913 0.0
H2144 H 0.6015 0.18961 0.21716 0.0
H2145 H 0.58244 0.26407 0.22717 0.0
H2146 H 0.58387 0.28171 0.20721 0.0
H2147 H 0.60486 0.27923 0.22376 0.0
H2148 H 0.62766 0.27241 0.19321 0.0
H2149 H 0.60674 0.27487 0.17657 0.0
H2150 H 0.62083 0.25259 0.17572 0.0
H2151 H 0.57207 0.19308 0.19489 0.0
H2152 H 0.54509 0.20288 0.17248 0.0
H2153 H 0.5684 0.26384 0.1748 0.0
C2154 C 0.62813 0.24163 0.22577 0.0
C2155 C 0.63557 0.22477 0.23517 0.0
C2156 C 0.62582 0.206 0.23187 0.0
C2157 C 0.60894 0.20397 0.21952 0.0
C2158 C 0.602 0.22085 0.21047 0.0
C2159 C 0.6113 0.23931 0.21332 0.0
C2160 C 0.60082 0.25498 0.20161 0.0
C2161 C 0.59251 0.27094 0.21579 0.0
C2162 C 0.61485 0.26425 0.18584 0.0
C2163 C 0.58414 0.24243 0.19183 0.0
C2164 C 0.5851 0.22281 0.19725 0.0
C2165 C 0.57119 0.20839 0.19047 0.0
C2166 C 0.55589 0.21413 0.17776 0.0
C2167 C 0.55463 0.23412 0.17182 0.0
C2168 C 0.56902 0.24843 0.17897 0.0
H2169 H 0.47001 0.11913 0.06021 0.0
H2170 H 0.49217 0.14413 0.00455 0.0
H2171 H 0.50185 0.17516 0.02266 0.0
H2172 H 0.44805 0.16393 0.07837 0.0
H2173 H 0.45411 0.15966 0.10422 0.0
H2174 H 0.44995 0.13893 0.08711 0.0
H2175 H 0.48473 0.1259 0.09598 0.0
H2176 H 0.48903 0.14661 0.11309 0.0
H2177 H 0.50661 0.14197 0.09324 0.0
H2178 H 0.50924 0.20347 0.04677 0.0
H2179 H 0.51224 0.22774 0.07484 0.0
H2180 H 0.48298 0.18528 0.11428 0.0
C2181 C 0.47671 0.13113 0.0517 0.0
C2182 C 0.48043 0.12898 0.03088 0.0
C2183 C 0.48954 0.14511 0.02054 0.0
C2184 C 0.49497 0.1629 0.03067 0.0
C2185 C 0.49101 0.16448 0.05112 0.0
C2186 C 0.48195 0.1491 0.0615 0.0
C2187 C 0.47876 0.15485 0.08331 0.0
C2188 C 0.45639 0.15431 0.08855 0.0
C2189 C 0.49049 0.14154 0.09722 0.0
C2190 C 0.48744 0.1759 0.08357 0.0
C2191 C 0.4946 0.18108 0.06489 0.0
C2192 C 0.50362 0.19962 0.06145 0.0
C2193 C 0.50529 0.21328 0.07751 0.0
C2194 C 0.49778 0.20843 0.09673 0.0
C2195 C 0.48873 0.18947 0.09973 0.0
H2196 H 0.28671 0.37756 0.72183 0.0
H2197 H 0.23542 0.40822 0.74514 0.0
H2198 H 0.25693 0.43791 0.75224 0.0
H2199 H 0.32287 0.39798 0.75625 0.0
H2200 H 0.34253 0.4004 0.73792 0.0
H2201 H 0.32318 0.38136 0.73476 0.0
H2202 H 0.31491 0.39464 0.69963 0.0
H2203 H 0.33432 0.41364 0.70263 0.0
H2204 H 0.30915 0.42038 0.69708 0.0
H2205 H 0.28411 0.46398 0.75778 0.0
H2206 H 0.31473 0.48541 0.75934 0.0
H2207 H 0.348 0.43858 0.73067 0.0
C2208 C 0.27989 0.39057 0.72818 0.0
C2209 C 0.25932 0.39037 0.7331 0.0
C2210 C 0.25117 0.40774 0.74164 0.0
C2211 C 0.26325 0.42477 0.74561 0.0
C2212 C 0.28345 0.42435 0.74078 0.0
C2213 C 0.29169 0.40779 0.73206 0.0
C2214 C 0.3138 0.41134 0.7281 0.0
C2215 C 0.32632 0.39691 0.73997 0.0
C2216 C 0.3183 0.40992 0.70552 0.0
C2217 C 0.3167 0.43245 0.73606 0.0
C2218 C 0.29902 0.43962 0.74342 0.0
C2219 C 0.29802 0.45858 0.75195 0.0
C2220 C 0.31552 0.47062 0.75283 0.0
C2221 C 0.33376 0.46371 0.74507 0.0
C2222 C 0.33428 0.44434 0.73661 0.0
H2223 H 0.28487 0.63291 0.76146 0.0
H2224 H 0.27848 0.63746 0.82615 0.0
H2225 H 0.30247 0.61094 0.83008 0.0
H2226 H 0.28766 0.57983 0.75879 0.0
H2227 H 0.30582 0.57988 0.73885 0.0
H2228 H 0.28861 0.59972 0.7411 0.0
H2229 H 0.31834 0.62539 0.74229 0.0
H2230 H 0.33565 0.60561 0.74016 0.0
H2231 H 0.33762 0.62314 0.76088 0.0
H2232 H 0.32627 0.58342 0.82716 0.0
H2233 H 0.34803 0.55611 0.81753 0.0
H2234 H 0.3392 0.56907 0.75469 0.0
C2235 C 0.28845 0.62827 0.77645 0.0
C2236 C 0.27987 0.6374 0.79351 0.0
C2237 C 0.2851 0.63097 0.81286 0.0
C2238 C 0.29865 0.61584 0.81526 0.0
C2239 C 0.3069 0.60726 0.79817 0.0
C2240 C 0.30201 0.61318 0.77913 0.0
C2241 C 0.3128 0.60121 0.76327 0.0
C2242 C 0.29783 0.58946 0.74971 0.0
C2243 C 0.32694 0.61464 0.75093 0.0
C2244 C 0.32436 0.58752 0.77639 0.0
C2245 C 0.32076 0.59133 0.79647 0.0
C2246 C 0.32928 0.58034 0.81149 0.0
C2247 C 0.34163 0.56484 0.80585 0.0
C2248 C 0.34539 0.56047 0.78537 0.0
C2249 C 0.33679 0.57216 0.77048 0.0
H2250 H 0.86938 0.46493 0.46147 0.0
H2251 H 0.88515 0.47883 0.52345 0.0
H2252 H 0.85634 0.45821 0.53474 0.0
H2253 H 0.81639 0.4651 0.46765 0.0
H2254 H 0.8114 0.4445 0.45054 0.0
H2255 H 0.83329 0.46037 0.44721 0.0
H2256 H 0.85566 0.42983 0.44836 0.0
H2257 H 0.83382 0.41385 0.45163 0.0
H2258 H 0.85398 0.41363 0.46952 0.0
H2259 H 0.82566 0.4366 0.5394 0.0
H2260 H 0.79545 0.4147 0.53715 0.0
H2261 H 0.80008 0.41385 0.47219 0.0
C2262 C 0.86692 0.46348 0.47742 0.0
C2263 C 0.8795 0.47364 0.49156 0.0
C2264 C 0.87555 0.47151 0.51231 0.0
C2265 C 0.85929 0.45972 0.51889 0.0
C2266 C 0.84715 0.45004 0.50457 0.0
C2267 C 0.85079 0.4517 0.48427 0.0
C2268 C 0.8354 0.43971 0.47203 0.0
C2269 C 0.82341 0.45323 0.45857 0.0
C2270 C 0.84531 0.42328 0.45966 0.0
C2271 C 0.82253 0.4311 0.48862 0.0
C2272 C 0.82956 0.4373 0.50727 0.0
C2273 C 0.82004 0.43158 0.52489 0.0
C2274 C 0.80286 0.41916 0.52344 0.0
C2275 C 0.79539 0.41251 0.5045 0.0
C2276 C 0.80544 0.41859 0.48689 0.0
H2277 H 0.72365 0.87815 0.75215 0.0
H2278 H 0.74252 0.88276 0.81434 0.0
H2279 H 0.72112 0.91141 0.81963 0.0
H2280 H 0.72085 0.93126 0.74387 0.0
H2281 H 0.69887 0.92862 0.72832 0.0
H2282 H 0.71625 0.90886 0.72913 0.0
H2283 H 0.68754 0.8843 0.73925 0.0
H2284 H 0.6701 0.904 0.73857 0.0
H2285 H 0.67262 0.88982 0.76101 0.0
H2286 H 0.69773 0.93907 0.81848 0.0
H2287 H 0.67321 0.96428 0.81109 0.0
H2288 H 0.66848 0.94172 0.74977 0.0
C2289 C 0.72339 0.88536 0.76679 0.0
C2290 C 0.73468 0.87825 0.78287 0.0
C2291 C 0.73383 0.88788 0.8019 0.0
C2292 C 0.72179 0.90419 0.80502 0.0
C2293 C 0.71063 0.91068 0.78898 0.0
C2294 C 0.71126 0.90162 0.77024 0.0
C2295 C 0.69731 0.91134 0.75577 0.0
C2296 C 0.70902 0.92057 0.73824 0.0
C2297 C 0.68092 0.89647 0.74821 0.0
C2298 C 0.68874 0.9272 0.76936 0.0
C2299 C 0.69675 0.92658 0.78841 0.0
C2300 C 0.69133 0.93974 0.80362 0.0
C2301 C 0.67738 0.95401 0.79926 0.0
C2302 C 0.66888 0.95497 0.77987 0.0
C2303 C 0.67463 0.9413 0.76476 0.0
H2304 H 0.62828 0.53946 0.95876 0.0
H2305 H 0.60891 0.5456 0.02057 0.0
H2306 H 0.63734 0.56897 0.02753 0.0
H2307 H 0.6799 0.53969 0.96876 0.0
H2308 H 0.68737 0.5539 0.94723 0.0
H2309 H 0.66464 0.53884 0.94647 0.0
H2310 H 0.64459 0.56955 0.93732 0.0
H2311 H 0.66731 0.58469 0.93789 0.0
H2312 H 0.64636 0.59151 0.95317 0.0
H2313 H 0.66886 0.5895 0.0286 0.0
H2314 H 0.7011 0.60733 0.02342 0.0
H2315 H 0.70026 0.58868 0.96071 0.0
C2316 C 0.62981 0.54608 0.97362 0.0
C2317 C 0.61642 0.54069 0.98916 0.0
C2318 C 0.61911 0.54937 0.00852 0.0
C2319 C 0.63515 0.56272 0.0126 0.0
C2320 C 0.64835 0.56735 0.99712 0.0
C2321 C 0.64581 0.55946 0.97798 0.0
C2322 C 0.6627 0.56635 0.96433 0.0
C2323 C 0.67434 0.54864 0.95623 0.0
C2324 C 0.65476 0.57876 0.94716 0.0
C2325 C 0.67525 0.57906 0.9789 0.0
C2326 C 0.66662 0.57944 0.99771 0.0
C2327 C 0.67569 0.58949 0.01389 0.0
C2328 C 0.69406 0.59951 0.0108 0.0
C2329 C 0.70322 0.59947 0.99164 0.0
C2330 C 0.69358 0.58914 0.97548 0.0
H2331 H 0.21227 0.62029 0.19964 0.0
H2332 H 0.21548 0.64306 0.26089 0.0
H2333 H 0.19424 0.61464 0.27199 0.0
H2334 H 0.16085 0.60172 0.20138 0.0
H2335 H 0.16547 0.57999 0.18615 0.0
H2336 H 0.18053 0.60237 0.18295 0.0
H2337 H 0.21255 0.58287 0.18905 0.0
H2338 H 0.19759 0.56044 0.1923 0.0
H2339 H 0.21478 0.56894 0.21168 0.0
H2340 H 0.17278 0.58385 0.27645 0.0
H2341 H 0.15322 0.55219 0.2742 0.0
H2342 H 0.16432 0.54905 0.21008 0.0
C2343 C 0.20832 0.61938 0.21535 0.0
C2344 C 0.2155 0.63387 0.22942 0.0
C2345 C 0.21028 0.63202 0.2499 0.0
C2346 C 0.19815 0.616 0.25632 0.0
C2347 C 0.19142 0.60192 0.24209 0.0
C2348 C 0.19634 0.6034 0.22205 0.0
C2349 C 0.18754 0.58595 0.20993 0.0
C2350 C 0.17272 0.59293 0.19417 0.0
C2351 C 0.20411 0.57384 0.20017 0.0
C2352 C 0.17692 0.57443 0.22631 0.0
C2353 C 0.17927 0.58397 0.24472 0.0
C2354 C 0.17083 0.57624 0.26211 0.0
C2355 C 0.15973 0.55824 0.26067 0.0
C2356 C 0.15724 0.54809 0.24197 0.0
C2357 C 0.16597 0.55639 0.2246 0.0
H2358 H 0.87699 0.54562 0.04321 0.0
H2359 H 0.89469 0.53254 0.98179 0.0
H2360 H 0.86621 0.55072 0.96946 0.0
H2361 H 0.82469 0.54195 0.03607 0.0
H2362 H 0.81911 0.56271 0.0523 0.0
H2363 H 0.84109 0.5488 0.05669 0.0
H2364 H 0.8632 0.58103 0.05484 0.0
H2365 H 0.84126 0.59508 0.0506 0.0
H2366 H 0.86173 0.59636 0.03308 0.0
H2367 H 0.8346 0.5678 0.96355 0.0
H2368 H 0.80348 0.58628 0.96436 0.0
H2369 H 0.80756 0.59155 0.02918 0.0
C2370 C 0.87511 0.54683 0.02717 0.0
C2371 C 0.88797 0.53718 0.01354 0.0
C2372 C 0.88477 0.53915 0.99264 0.0
C2373 C 0.86871 0.54964 0.98543 0.0
C2374 C 0.85611 0.5585 0.99923 0.0
C2375 C 0.85928 0.55758 0.01964 0.0
C2376 C 0.84349 0.56872 0.03115 0.0
C2377 C 0.83138 0.55471 0.04486 0.0
C2378 C 0.85299 0.58635 0.04312 0.0
C2379 C 0.83082 0.57573 0.01398 0.0
C2380 C 0.83833 0.56947 0.99573 0.0
C2381 C 0.82871 0.57305 0.97772 0.0
C2382 C 0.811 0.58345 0.97834 0.0
C2383 C 0.80324 0.59043 0.9968 0.0
C2384 C 0.81335 0.5866 0.01484 0.0
H2385 H 0.13663 0.98795 0.03492 0.0
H2386 H 0.11162 0.98832 0.97497 0.0
H2387 H 0.13459 0.96225 0.96422 0.0
H2388 H 0.18803 0.98092 0.01907 0.0
H2389 H 0.19355 0.96515 0.03972 0.0
H2390 H 0.17523 0.98392 0.04265 0.0
H2391 H 0.14898 0.95711 0.05356 0.0
H2392 H 0.16719 0.93825 0.05059 0.0
H2393 H 0.14373 0.93584 0.03737 0.0
H2394 H 0.15859 0.93482 0.96059 0.0
H2395 H 0.18434 0.90975 0.96333 0.0
H2396 H 0.19548 0.9284 0.02508 0.0
C2397 C 0.1361 0.98255 0.01952 0.0
C2398 C 0.1224 0.99009 0.00573 0.0
C2399 C 0.12214 0.98283 0.98568 0.0
C2400 C 0.13504 0.96798 0.97948 0.0
C2401 C 0.14828 0.96075 0.99346 0.0
C2402 C 0.14912 0.96796 0.01299 0.0
C2403 C 0.16499 0.95782 0.02491 0.0
C2404 C 0.18142 0.97285 0.032 0.0
C2405 C 0.15566 0.94659 0.04265 0.0
C2406 C 0.17275 0.94361 0.00909 0.0
C2407 C 0.16277 0.94545 0.99112 0.0
C2408 C 0.16666 0.93338 0.97451 0.0
C2409 C 0.18125 0.91913 0.97624 0.0
C2410 C 0.19197 0.91722 0.99437 0.0
C2411 C 0.18767 0.9297 0.01097 0.0
loop_
_geom_bond_atom_site_label_1
_geom_bond_atom_site_label_2
_geom_bond_distance
_geom_bond_site_symmetry_2
_ccdc_geom_bond_type
C0 C1 1.391 . S
C0 C4 1.391 1_556 S
C0 H42 0.948 . S
C1 C0 1.391 . S
C1 C2 1.391 1_556 S
C2 C1 1.391 1_554 S
C2 H58 0.947 1_455 S
C2 C59 1.392 . S
C3 C4 1.391 . S
C3 C7 1.397 . S
C3 C59 1.419 . S
C4 C0 1.391 1_554 S
C4 C3 1.391 . S
C4 C5 1.399 . S
C5 C4 1.399 . S
C5 C8 1.396 . S
C5 C17 1.453 . S
C5 C18 1.684 1_554 S
H6 C30 0.948 . S
C7 C3 1.397 . S
C7 C8 1.394 . S
C7 C26 1.723 . S
C8 C5 1.396 . S
C8 C7 1.394 . S
C8 C38 1.723 . S
H9 C32 0.947 . S
H10 C33 0.948 . S
H11 C39 0.982 . S
H12 C40 0.979 . S
H13 C40 0.980 . S
H14 C40 0.983 . S
H15 C39 0.951 1_565 S
H16 C39 0.977 . S
C17 C5 1.453 . S
C17 H46 0.982 . S
C17 H47 0.979 1_554 S
C17 H48 0.977 . S
C18 C5 1.684 1_556 S
C18 H43 0.979 . S
C18 H44 0.980 . S
C18 H45 0.983 . S
C19 C20 1.391 . S
C19 C24 1.391 . S
C19 H49 0.948 . S
C20 C19 1.391 . S
C20 C21 1.358 1_655 S
C21 C20 1.358 1_455 S
C21 C22 1.421 . S
C21 H50 0.953 . S
C22 C21 1.421 . S
C22 C23 1.419 . S
C22 H51 0.948 . S
C23 C22 1.419 . S
C23 C24 1.391 1_455 S
C23 C27 1.397 . S
C24 C19 1.391 . S
C24 C23 1.391 1_655 S
C24 C25 1.399 . S
C25 C24 1.399 . S
C25 C26 1.400 1_655 S
C25 C28 1.453 1_655 S
C25 C29 1.681 . S
C26 C7 1.723 . S
C26 C25 1.400 1_455 S
C26 C27 1.394 . S
C27 C23 1.397 . S
C27 C26 1.394 . S
C27 C37 1.723 . S
C28 C25 1.453 1_455 S
C28 H52 0.982 . S
C28 H53 0.979 1_455 S
C28 H54 0.977 . S
C29 C25 1.681 . S
C29 H55 0.979 . S
C29 H56 0.980 . S
C29 H57 0.983 . S
C30 H6 0.948 . S
C30 C31 1.391 . S
C30 C35 1.391 1_565 S
C31 C30 1.391 . S
C31 C32 1.391 1_565 S
C32 H9 0.947 . S
C32 C31 1.391 1_545 S
C32 C33 1.392 . S
C33 H10 0.948 . S
C33 C32 1.392 . S
C33 C34 1.419 . S
C34 C33 1.419 . S
C34 C35 1.391 . S
C34 C38 1.397 . S
C35 C30 1.391 1_545 S
C35 C34 1.391 . S
C35 C36 1.399 . S
C36 C35 1.399 . S
C36 C37 1.396 . S
C36 C39 1.453 . S
C36 C40 1.684 1_545 S
C37 C27 1.723 . S
C37 C36 1.396 . S
C37 C38 1.394 . S
C38 C8 1.723 . S
C38 C34 1.397 . S
C38 C37 1.394 . S
C39 H11 0.982 . S
C39 H15 0.951 1_545 S
C39 H16 0.977 . S
C39 C36 1.453 . S
C40 H12 0.979 . S
C40 H13 0.980 . S
C40 H14 0.983 . S
C40 C36 1.684 1_565 S
H41 C59 0.925 1_655 S
H42 C0 0.948 . S
H43 C18 0.979 . S
H44 C18 0.980 . S
H45 C18 0.983 . S
H46 C17 0.982 . S
H47 C17 0.979 1_556 S
H48 C17 0.977 . S
H49 C19 0.948 . S
H50 C21 0.953 . S
H51 C22 0.948 . S
H52 C28 0.982 . S
H53 C28 0.979 1_655 S
H54 C28 0.977 . S
H55 C29 0.979 . S
H56 C29 0.980 . S
H57 C29 0.983 . S
H58 C2 0.947 1_655 S
C59 C2 1.392 . S
C59 C3 1.419 . S
C59 H41 0.925 1_455 S
C60 C61 1.391 . S
C60 C64 1.391 . S
C60 H102 0.948 . S
C61 C60 1.391 . S
C61 C62 1.391 . S
C62 C61 1.391 . S
C62 H118 0.947 . S
C62 C119 1.392 . S
C63 C64 1.391 . S
C63 C67 1.397 . S
C63 C119 1.419 . S
C64 C60 1.391 . S
C64 C63 1.391 . S
C64 C65 1.399 . S
C65 C64 1.399 . S
C65 C68 1.396 . S
C65 C77 1.453 . S
C65 C78 1.684 . S
H66 C90 0.948 . S
C67 C63 1.397 . S
C67 C68 1.394 . S
C67 C86 1.723 . S
C68 C65 1.396 . S
C68 C67 1.394 . S
C68 C98 1.723 . S
H69 C92 0.947 . S
H70 C93 0.948 . S
H71 C99 0.982 . S
H72 C100 0.979 . S
H73 C100 0.980 . S
H74 C100 0.983 . S
H75 C99 0.979 . S
H76 C99 0.977 . S
C77 C65 1.453 . S
C77 H106 0.982 . S
C77 H107 0.979 . S
C77 H108 0.977 . S
C78 C65 1.684 . S
C78 H103 0.979 . S
C78 H104 0.980 . S
C78 H105 0.983 . S
C79 C80 1.391 . S
C79 C84 1.391 . S
C79 H109 0.948 . S
C80 C79 1.391 . S
C80 C81 1.391 . S
C81 C80 1.391 . S
C81 C82 1.392 . S
C81 H110 0.947 . S
C82 C81 1.392 . S
C82 C83 1.419 . S
C82 H111 0.948 . S
C83 C82 1.419 . S
C83 C84 1.391 . S
C83 C87 1.397 . S
C84 C79 1.391 . S
C84 C83 1.391 . S
C84 C85 1.399 . S
C85 C84 1.399 . S
C85 C86 1.396 . S
C85 C88 1.453 . S
C85 C89 1.684 . S
C86 C67 1.723 . S
C86 C85 1.396 . S
C86 C87 1.394 . S
C87 C83 1.397 . S
C87 C86 1.394 . S
C87 C97 1.723 . S
C88 C85 1.453 . S
C88 H112 0.982 . S
C88 H113 0.979 . S
C88 H114 0.977 . S
C89 C85 1.684 . S
C89 H115 0.979 . S
C89 H116 0.980 . S
C89 H117 0.983 . S
C90 H66 0.948 . S
C90 C91 1.391 . S
C90 C95 1.391 . S
C91 C90 1.391 . S
C91 C92 1.391 . S
C92 H69 0.947 . S
C92 C91 1.391 . S
C92 C93 1.392 . S
C93 H70 0.948 . S
C93 C92 1.392 . S
C93 C94 1.419 . S
C94 C93 1.419 . S
C94 C95 1.391 . S
C94 C98 1.397 . S
C95 C90 1.391 . S
C95 C94 1.391 . S
C95 C96 1.399 . S
C96 C95 1.399 . S
C96 C97 1.396 . S
C96 C99 1.453 . S
C96 C100 1.684 . S
C97 C87 1.723 . S
C97 C96 1.396 . S
C97 C98 1.394 . S
C98 C68 1.723 . S
C98 C94 1.397 . S
C98 C97 1.394 . S
C99 H71 0.982 . S
C99 H75 0.979 . S
C99 H76 0.977 . S
C99 C96 1.453 . S
C100 H72 0.979 . S
C100 H73 0.980 . S
C100 H74 0.983 . S
C100 C96 1.684 . S
H101 C119 0.948 . S
H102 C60 0.948 . S
H103 C78 0.979 . S
H104 C78 0.980 . S
H105 C78 0.983 . S
H106 C77 0.982 . S
H107 C77 0.979 . S
H108 C77 0.977 . S
H109 C79 0.948 . S
H110 C81 0.947 . S
H111 C82 0.948 . S
H112 C88 0.982 . S
H113 C88 0.979 . S
H114 C88 0.977 . S
H115 C89 0.979 . S
H116 C89 0.980 . S
H117 C89 0.983 . S
H118 C62 0.947 . S
C119 C62 1.392 . S
C119 C63 1.419 . S
C119 H101 0.948 . S
C120 C121 1.391 . S
C120 C124 1.391 1_556 S
C120 H162 0.952 . S
C121 C120 1.391 . S
C121 C122 1.391 . S
C122 C121 1.391 . S
C122 H178 0.947 . S
C122 C179 1.392 . S
C123 C124 1.391 . S
C123 C127 1.397 . S
C123 C179 1.419 1_554 S
C124 C120 1.391 1_554 S
C124 C123 1.391 . S
C124 C125 1.399 . S
C125 C124 1.399 . S
C125 C128 1.396 . S
C125 C137 1.453 . S
C125 C138 1.684 1_655 S
H126 C150 0.948 . S
C127 C123 1.397 . S
C127 C128 1.394 . S
C127 C146 1.723 . S
C128 C125 1.396 . S
C128 C127 1.394 . S
C128 C158 1.723 . S
H129 C152 0.947 . S
H130 C153 0.948 . S
H131 C159 0.982 . S
H132 C160 0.979 . S
H133 C160 0.980 . S
H134 C160 0.983 . S
H135 C159 0.979 . S
H136 C159 0.977 . S
C137 C125 1.453 . S
C137 H166 0.982 . S
C137 H167 0.979 1_655 S
C137 H168 0.953 1_655 S
C138 C125 1.684 1_455 S
C138 H163 0.979 . S
C138 H164 0.980 . S
C138 H165 0.983 . S
C139 C140 1.391 . S
C139 C144 1.391 . S
C139 H169 0.978 . S
C140 C139 1.391 . S
C140 C141 1.391 . S
C141 C140 1.391 . S
C141 C142 1.392 . S
C141 H170 0.947 . S
C142 C141 1.392 . S
C142 C143 1.419 . S
C142 H171 0.948 . S
C143 C142 1.419 . S
C143 C144 1.391 . S
C143 C147 1.397 . S
C144 C139 1.391 . S
C144 C143 1.391 . S
C144 C145 1.399 . S
C145 C144 1.399 . S
C145 C146 1.396 . S
C145 C148 1.453 . S
C145 C149 1.684 1_554 S
C146 C127 1.723 . S
C146 C145 1.396 . S
C146 C147 1.394 . S
C147 C143 1.397 . S
C147 C146 1.394 . S
C147 C157 1.723 . S
C148 C145 1.453 . S
C148 H172 0.982 . S
C148 H173 0.979 1_554 S
C148 H174 0.977 1_554 S
C149 C145 1.684 1_556 S
C149 H175 0.979 . S
C149 H176 0.980 . S
C149 H177 0.983 . S
C150 H126 0.948 . S
C150 C151 1.391 . S
C150 C155 1.391 1_455 S
C151 C150 1.391 . S
C151 C152 1.391 . S
C152 H129 0.947 . S
C152 C151 1.391 . S
C152 C153 1.392 . S
C153 H130 0.948 . S
C153 C152 1.392 . S
C153 C154 1.419 1_455 S
C154 C153 1.419 1_655 S
C154 C155 1.391 . S
C154 C158 1.397 . S
C155 C150 1.391 1_655 S
C155 C154 1.391 . S
C155 C156 1.399 . S
C156 C155 1.399 . S
C156 C157 1.396 . S
C156 C159 1.453 . S
C156 C160 1.684 . S
C157 C147 1.723 . S
C157 C156 1.396 . S
C157 C158 1.394 . S
C158 C128 1.723 . S
C158 C154 1.397 . S
C158 C157 1.394 . S
C159 H131 0.982 . S
C159 H135 0.979 . S
C159 H136 0.977 . S
C159 C156 1.453 . S
C160 H132 0.979 . S
C160 H133 0.980 . S
C160 H134 0.983 . S
C160 C156 1.684 . S
H161 C179 0.948 . S
H162 C120 0.952 . S
H163 C138 0.979 . S
H164 C138 0.980 . S
H165 C138 0.983 . S
H166 C137 0.982 . S
H167 C137 0.979 1_455 S
H168 C137 0.953 1_455 S
H169 C139 0.978 . S
H170 C141 0.947 . S
H171 C142 0.948 . S
H172 C148 0.982 . S
H173 C148 0.979 1_556 S
H174 C148 0.977 1_556 S
H175 C149 0.979 . S
H176 C149 0.980 . S
H177 C149 0.983 . S
H178 C122 0.947 . S
C179 C122 1.392 . S
C179 C123 1.419 1_556 S
C179 H161 0.948 . S
C180 C181 1.391 . S
C180 C184 1.391 . S
C180 H222 0.948 . S
C181 C180 1.391 . S
C181 C182 1.391 . S
C182 C181 1.391 . S
C182 H238 0.947 . S
C182 C239 1.392 . S
C183 C184 1.391 . S
C183 C187 1.397 . S
C183 C239 1.419 . S
C184 C180 1.391 . S
C184 C183 1.391 . S
C184 C185 1.399 . S
C185 C184 1.399 . S
C185 C188 1.396 . S
C185 C197 1.453 . S
C185 C198 1.684 . S
H186 C210 0.948 . S
C187 C183 1.397 . S
C187 C188 1.394 . S
C187 C206 1.723 . S
C188 C185 1.396 . S
C188 C187 1.394 . S
C188 C218 1.723 . S
H189 C212 0.947 . S
H190 C213 0.948 . S
H191 C219 0.982 . S
H192 C220 0.979 . S
H193 C220 0.980 . S
H194 C220 0.983 . S
H195 C219 0.979 . S
H196 C219 0.977 . S
C197 C185 1.453 . S
C197 H226 0.982 . S
C197 H227 0.979 . S
C197 H228 0.977 . S
C198 C185 1.684 . S
C198 H223 0.979 . S
C198 H224 0.980 . S
C198 H225 0.983 . S
C199 C200 1.391 . S
C199 C204 1.391 . S
C199 H229 0.948 . S
C200 C199 1.391 . S
C200 C201 1.391 . S
C201 C200 1.391 . S
C201 C202 1.392 . S
C201 H230 0.947 . S
C202 C201 1.392 . S
C202 C203 1.419 . S
C202 H231 0.948 . S
C203 C202 1.419 . S
C203 C204 1.391 . S
C203 C207 1.397 . S
C204 C199 1.391 . S
C204 C203 1.391 . S
C204 C205 1.399 . S
C205 C204 1.399 . S
C205 C206 1.396 . S
C205 C208 1.453 . S
C205 C209 1.684 . S
C206 C187 1.723 . S
C206 C205 1.396 . S
C206 C207 1.394 . S
C207 C203 1.397 . S
C207 C206 1.394 . S
C207 C217 1.723 . S
C208 C205 1.453 . S
C208 H232 0.982 . S
C208 H233 0.979 . S
C208 H234 0.977 . S
C209 C205 1.684 . S
C209 H235 0.979 . S
C209 H236 0.980 . S
C209 H237 0.983 . S
C210 H186 0.948 . S
C210 C211 1.391 . S
C210 C215 1.391 . S
C211 C210 1.391 . S
C211 C212 1.391 . S
C212 H189 0.947 . S
C212 C211 1.391 . S
C212 C213 1.392 . S
C213 H190 0.948 . S
C213 C212 1.392 . S
C213 C214 1.419 . S
C214 C213 1.419 . S
C214 C215 1.391 . S
C214 C218 1.397 . S
C215 C210 1.391 . S
C215 C214 1.391 . S
C215 C216 1.399 . S
C216 C215 1.399 . S
C216 C217 1.396 . S
C216 C219 1.453 . S
C216 C220 1.684 . S
C217 C207 1.723 . S
C217 C216 1.396 . S
C217 C218 1.394 . S
C218 C188 1.723 . S
C218 C214 1.397 . S
C218 C217 1.394 . S
C219 H191 0.982 . S
C219 H195 0.979 . S
C219 H196 0.977 . S
C219 C216 1.453 . S
C220 H192 0.979 . S
C220 H193 0.980 . S
C220 H194 0.983 . S
C220 C216 1.684 . S
H221 C239 0.948 . S
H222 C180 0.948 . S
H223 C198 0.979 . S
H224 C198 0.980 . S
H225 C198 0.983 . S
H226 C197 0.982 . S
H227 C197 0.979 . S
H228 C197 0.977 . S
H229 C199 0.948 . S
H230 C201 0.947 . S
H231 C202 0.948 . S
H232 C208 0.982 . S
H233 C208 0.979 . S
H234 C208 0.977 . S
H235 C209 0.979 . S
H236 C209 0.980 . S
H237 C209 0.983 . S
H238 C182 0.947 . S
C239 C182 1.392 . S
C239 C183 1.419 . S
C239 H221 0.948 . S
C240 C241 1.391 . S
C240 C244 1.391 . S
C240 H282 0.948 . S
C241 C240 1.391 . S
C241 C242 1.391 . S
C242 C241 1.391 . S
C242 H298 0.947 1_455 S
C242 C299 1.392 . S
C243 C244 1.391 . S
C243 C247 1.397 . S
C243 C299 1.419 . S
C244 C240 1.391 . S
C244 C243 1.391 . S
C244 C245 1.399 . S
C245 C244 1.399 . S
C245 C248 1.396 . S
C245 C257 1.453 . S
C245 C258 1.684 . S
H246 C270 0.948 . S
C247 C243 1.397 . S
C247 C248 1.394 . S
C247 C266 1.723 . S
C248 C245 1.396 . S
C248 C247 1.394 . S
C248 C278 1.723 . S
H249 C272 0.947 . S
H250 C273 0.948 . S
H251 C279 0.982 . S
H252 C280 1.006 . S
H253 C280 0.980 . S
H254 C280 0.983 . S
H255 C279 0.979 . S
H256 C279 0.977 . S
C257 C245 1.453 . S
C257 H286 0.982 . S
C257 H287 0.979 . S
C257 H288 0.977 . S
C258 C245 1.684 . S
C258 H283 0.979 . S
C258 H284 0.980 . S
C258 H285 0.983 . S
C259 C260 1.391 . S
C259 C264 1.391 1_655 S
C259 H289 0.948 . S
C260 C259 1.391 . S
C260 C261 1.366 1_665 S
C261 C260 1.366 1_445 S
C261 C262 1.386 1_545 S
C261 H290 0.979 . S
C262 C261 1.386 1_565 S
C262 C263 1.419 . S
C262 H291 0.948 1_565 S
C263 C262 1.419 . S
C263 C264 1.391 . S
C263 C267 1.397 . S
C264 C259 1.391 1_455 S
C264 C263 1.391 . S
C264 C265 1.399 . S
C265 C264 1.399 . S
C265 C266 1.396 . S
C265 C268 1.453 1_455 S
C265 C269 1.684 1_455 S
C266 C247 1.723 . S
C266 C265 1.396 . S
C266 C267 1.394 . S
C267 C263 1.397 . S
C267 C266 1.394 . S
C267 C277 1.723 . S
C268 C265 1.453 1_655 S
C268 H292 0.982 . S
C268 H293 0.979 . S
C268 H294 0.977 . S
C269 C265 1.684 1_655 S
C269 H295 0.979 1_655 S
C269 H296 0.980 . S
C269 H297 0.983 . S
C270 H246 0.948 . S
C270 C271 1.391 . S
C270 C275 1.391 . S
C271 C270 1.391 . S
C271 C272 1.391 . S
C272 H249 0.947 . S
C272 C271 1.391 . S
C272 C273 1.392 1_545 S
C273 H250 0.948 . S
C273 C272 1.392 1_565 S
C273 C274 1.419 . S
C274 C273 1.419 . S
C274 C275 1.391 1_565 S
C274 C278 1.397 . S
C275 C270 1.391 . S
C275 C274 1.391 1_545 S
C275 C276 1.399 . S
C276 C275 1.399 . S
C276 C277 1.396 1_545 S
C276 C279 1.453 . S
C276 C280 1.684 . S
C277 C267 1.723 . S
C277 C276 1.396 1_565 S
C277 C278 1.394 . S
C278 C248 1.723 . S
C278 C274 1.397 . S
C278 C277 1.394 . S
C279 H251 0.982 . S
C279 H255 0.979 . S
C279 H256 0.977 . S
C279 C276 1.453 . S
C280 H252 1.006 . S
C280 H253 0.980 . S
C280 H254 0.983 . S
C280 C276 1.684 . S
H281 C299 0.948 . S
H282 C240 0.948 . S
H283 C258 0.979 . S
H284 C258 0.980 . S
H285 C258 0.983 . S
H286 C257 0.982 . S
H287 C257 0.979 . S
H288 C257 0.977 . S
H289 C259 0.948 . S
H290 C261 0.979 . S
H291 C262 0.948 1_545 S
H292 C268 0.982 . S
H293 C268 0.979 . S
H294 C268 0.977 . S
H295 C269 0.979 1_455 S
H296 C269 0.980 . S
H297 C269 0.983 . S
H298 C242 0.947 1_655 S
C299 C242 1.392 . S
C299 C243 1.419 . S
C299 H281 0.948 . S
C300 C301 1.391 . S
C300 C304 1.391 . S
C300 H342 0.948 . S
C301 C300 1.391 . S
C301 C302 1.391 . S
C302 C301 1.391 . S
C302 H358 0.947 . S
C302 C359 1.392 . S
C303 C304 1.391 . S
C303 C307 1.397 . S
C303 C359 1.419 . S
C304 C300 1.391 . S
C304 C303 1.391 . S
C304 C305 1.399 . S
C305 C304 1.399 . S
C305 C308 1.396 . S
C305 C317 1.453 . S
C305 C318 1.684 . S
H306 C330 0.948 . S
C307 C303 1.397 . S
C307 C308 1.394 . S
C307 C326 1.723 . S
C308 C305 1.396 . S
C308 C307 1.394 . S
C308 C338 1.723 . S
H309 C332 0.947 . S
H310 C333 0.948 . S
H311 C339 0.982 . S
H312 C340 0.979 . S
H313 C340 0.980 . S
H314 C340 0.983 . S
H315 C339 0.979 . S
H316 C339 0.977 . S
C317 C305 1.453 . S
C317 H346 0.982 . S
C317 H347 0.979 . S
C317 H348 0.977 . S
C318 C305 1.684 . S
C318 H343 0.979 . S
C318 H344 0.980 . S
C318 H345 0.983 . S
C319 C320 1.391 . S
C319 C324 1.391 . S
C319 H349 0.948 . S
C320 C319 1.391 . S
C320 C321 1.391 . S
C321 C320 1.391 . S
C321 C322 1.392 . S
C321 H350 0.947 . S
C322 C321 1.392 . S
C322 C323 1.419 . S
C322 H351 0.948 . S
C323 C322 1.419 . S
C323 C324 1.391 . S
C323 C327 1.397 . S
C324 C319 1.391 . S
C324 C323 1.391 . S
C324 C325 1.399 . S
C325 C324 1.399 . S
C325 C326 1.396 . S
C325 C328 1.453 . S
C325 C329 1.684 . S
C326 C307 1.723 . S
C326 C325 1.396 . S
C326 C327 1.394 . S
C327 C323 1.397 . S
C327 C326 1.394 . S
C327 C337 1.723 . S
C328 C325 1.453 . S
C328 H352 0.982 . S
C328 H353 0.979 . S
C328 H354 0.977 . S
C329 C325 1.684 . S
C329 H355 0.979 . S
C329 H356 0.980 . S
C329 H357 0.983 . S
C330 H306 0.948 . S
C330 C331 1.391 . S
C330 C335 1.391 . S
C331 C330 1.391 . S
C331 C332 1.391 . S
C332 H309 0.947 . S
C332 C331 1.391 . S
C332 C333 1.392 . S
C333 H310 0.948 . S
C333 C332 1.392 . S
C333 C334 1.419 . S
C334 C333 1.419 . S
C334 C335 1.391 . S
C334 C338 1.397 . S
C335 C330 1.391 . S
C335 C334 1.391 . S
C335 C336 1.399 . S
C336 C335 1.399 . S
C336 C337 1.396 . S
C336 C339 1.453 . S
C336 C340 1.684 . S
C337 C327 1.723 . S
C337 C336 1.396 . S
C337 C338 1.394 . S
C338 C308 1.723 . S
C338 C334 1.397 . S
C338 C337 1.394 . S
C339 H311 0.982 . S
C339 H315 0.979 . S
C339 H316 0.977 . S
C339 C336 1.453 . S
C340 H312 0.979 . S
C340 H313 0.980 . S
C340 H314 0.983 . S
C340 C336 1.684 . S
H341 C359 0.948 . S
H342 C300 0.948 . S
H343 C318 0.979 . S
H344 C318 0.980 . S
H345 C318 0.983 . S
H346 C317 0.982 . S
H347 C317 0.979 . S
H348 C317 0.977 . S
H349 C319 0.948 . S
H350 C321 0.947 . S
H351 C322 0.948 . S
H352 C328 0.982 . S
H353 C328 0.979 . S
H354 C328 0.977 . S
H355 C329 0.979 . S
H356 C329 0.980 . S
H357 C329 0.983 . S
H358 C302 0.947 . S
C359 C302 1.392 . S
C359 C303 1.419 . S
C359 H341 0.948 . S
C360 C361 1.391 . S
C360 C364 1.391 . S
C360 H402 0.948 . S
C361 C360 1.391 . S
C361 C362 1.391 . S
C362 C361 1.391 . S
C362 H418 0.947 . S
C362 C419 1.392 . S
C363 C364 1.391 . S
C363 C367 1.397 . S
C363 C419 1.419 . S
C364 C360 1.391 . S
C364 C363 1.391 . S
C364 C365 1.399 . S
C365 C364 1.399 . S
C365 C368 1.396 . S
C365 C377 1.453 . S
C365 C378 1.684 . S
H366 C390 0.948 . S
C367 C363 1.397 . S
C367 C368 1.394 . S
C367 C386 1.723 . S
C368 C365 1.396 . S
C368 C367 1.394 . S
C368 C398 1.723 . S
H369 C392 0.947 . S
H370 C393 0.948 . S
H371 C399 0.982 . S
H372 C400 0.979 . S
H373 C400 0.980 . S
H374 C400 0.983 . S
H375 C399 0.979 1_455 S
H376 C399 0.977 1_455 S
C377 C365 1.453 . S
C377 H406 0.982 . S
C377 H407 0.979 . S
C377 H408 0.977 . S
C378 C365 1.684 . S
C378 H403 0.979 . S
C378 H404 0.980 . S
C378 H405 0.983 . S
C379 C380 1.391 . S
C379 C384 1.391 1_455 S
C379 H409 0.948 1_455 S
C380 C379 1.391 . S
C380 C381 1.391 . S
C381 C380 1.391 . S
C381 C382 1.392 . S
C381 H410 0.947 . S
C382 C381 1.392 . S
C382 C383 1.419 1_455 S
C382 H411 0.948 . S
C383 C382 1.419 1_655 S
C383 C384 1.391 . S
C383 C387 1.397 . S
C384 C379 1.391 1_655 S
C384 C383 1.391 . S
C384 C385 1.399 . S
C385 C384 1.399 . S
C385 C386 1.396 . S
C385 C388 1.453 . S
C385 C389 1.684 . S
C386 C367 1.723 . S
C386 C385 1.396 . S
C386 C387 1.394 . S
C387 C383 1.397 . S
C387 C386 1.394 . S
C387 C397 1.723 . S
C388 C385 1.453 . S
C388 H412 0.982 . S
C388 H413 0.979 . S
C388 H414 0.977 . S
C389 C385 1.684 . S
C389 H415 0.979 . S
C389 H416 0.980 . S
C389 H417 0.983 . S
C390 H366 0.948 . S
C390 C391 1.391 . S
C390 C395 1.391 . S
C391 C390 1.391 . S
C391 C392 1.391 . S
C392 H369 0.947 . S
C392 C391 1.391 . S
C392 C393 1.392 . S
C393 H370 0.948 . S
C393 C392 1.392 . S
C393 C394 1.419 . S
C394 C393 1.419 . S
C394 C395 1.391 . S
C394 C398 1.397 . S
C395 C390 1.391 . S
C395 C394 1.391 . S
C395 C396 1.399 . S
C396 C395 1.399 . S
C396 C397 1.396 . S
C396 C399 1.453 . S
C396 C400 1.684 1_655 S
C397 C387 1.723 . S
C397 C396 1.396 . S
C397 C398 1.394 . S
C398 C368 1.723 . S
C398 C394 1.397 . S
C398 C397 1.394 . S
C399 H371 0.982 . S
C399 H375 0.979 1_655 S
C399 H376 0.977 1_655 S
C399 C396 1.453 . S
C400 H372 0.979 . S
C400 H373 0.980 . S
C400 H374 0.983 . S
C400 C396 1.684 1_455 S
H401 C419 0.948 . S
H402 C360 0.948 . S
H403 C378 0.979 . S
H404 C378 0.980 . S
H405 C378 0.983 . S
H406 C377 0.982 . S
H407 C377 0.979 . S
H408 C377 0.977 . S
H409 C379 0.948 1_655 S
H410 C381 0.947 . S
H411 C382 0.948 . S
H412 C388 0.982 . S
H413 C388 0.979 . S
H414 C388 0.977 . S
H415 C389 0.979 . S
H416 C389 0.980 . S
H417 C389 0.983 . S
H418 C362 0.947 . S
C419 C362 1.392 . S
C419 C363 1.419 . S
C419 H401 0.948 . S
C420 C421 1.391 . S
C420 C424 1.391 . S
C420 H462 0.948 . S
C421 C420 1.391 . S
C421 C422 1.391 . S
C422 C421 1.391 . S
C422 H478 0.947 . S
C422 C479 1.392 . S
C423 C424 1.391 . S
C423 C427 1.397 . S
C423 C479 1.419 . S
C424 C420 1.391 . S
C424 C423 1.391 . S
C424 C425 1.399 . S
C425 C424 1.399 . S
C425 C428 1.396 . S
C425 C437 1.453 . S
C425 C438 1.684 . S
H426 C450 0.948 . S
C427 C423 1.397 . S
C427 C428 1.394 . S
C427 C446 1.723 . S
C428 C425 1.396 . S
C428 C427 1.394 . S
C428 C458 1.723 . S
H429 C452 0.947 . S
H430 C453 0.948 . S
H431 C459 0.982 . S
H432 C460 0.979 . S
H433 C460 0.980 . S
H434 C460 0.983 . S
H435 C459 0.979 . S
H436 C459 0.977 . S
C437 C425 1.453 . S
C437 H466 0.982 . S
C437 H467 0.979 . S
C437 H468 0.977 . S
C438 C425 1.684 . S
C438 H463 0.979 . S
C438 H464 0.980 . S
C438 H465 0.983 . S
C439 C440 1.391 . S
C439 C444 1.391 . S
C439 H469 0.948 . S
C440 C439 1.391 . S
C440 C441 1.391 . S
C441 C440 1.391 . S
C441 C442 1.392 . S
C441 H470 0.947 . S
C442 C441 1.392 . S
C442 C443 1.419 . S
C442 H471 0.948 . S
C443 C442 1.419 . S
C443 C444 1.391 . S
C443 C447 1.397 . S
C444 C439 1.391 . S
C444 C443 1.391 . S
C444 C445 1.399 . S
C445 C444 1.399 . S
C445 C446 1.396 . S
C445 C448 1.453 . S
C445 C449 1.684 . S
C446 C427 1.723 . S
C446 C445 1.396 . S
C446 C447 1.394 . S
C447 C443 1.397 . S
C447 C446 1.394 . S
C447 C457 1.723 . S
C448 C445 1.453 . S
C448 H472 0.982 . S
C448 H473 0.979 . S
C448 H474 0.977 . S
C449 C445 1.684 . S
C449 H475 0.979 . S
C449 H476 0.980 . S
C449 H477 0.983 . S
C450 H426 0.948 . S
C450 C451 1.391 . S
C450 C455 1.391 . S
C451 C450 1.391 . S
C451 C452 1.391 . S
C452 H429 0.947 . S
C452 C451 1.391 . S
C452 C453 1.392 . S
C453 H430 0.948 . S
C453 C452 1.392 . S
C453 C454 1.419 . S
C454 C453 1.419 . S
C454 C455 1.391 . S
C454 C458 1.397 . S
C455 C450 1.391 . S
C455 C454 1.391 . S
C455 C456 1.399 . S
C456 C455 1.399 . S
C456 C457 1.396 . S
C456 C459 1.453 . S
C456 C460 1.684 . S
C457 C447 1.723 . S
C457 C456 1.396 . S
C457 C458 1.394 . S
C458 C428 1.723 . S
C458 C454 1.397 . S
C458 C457 1.394 . S
C459 H431 0.982 . S
C459 H435 0.979 . S
C459 H436 0.977 . S
C459 C456 1.453 . S
C460 H432 0.979 . S
C460 H433 0.980 . S
C460 H434 0.983 . S
C460 C456 1.684 . S
H461 C479 0.948 . S
H462 C420 0.948 . S
H463 C438 0.979 . S
H464 C438 0.980 . S
H465 C438 0.983 . S
H466 C437 0.982 . S
H467 C437 0.979 . S
H468 C437 0.977 . S
H469 C439 0.948 . S
H470 C441 0.947 . S
H471 C442 0.948 . S
H472 C448 0.982 . S
H473 C448 0.979 . S
H474 C448 0.977 . S
H475 C449 0.979 . S
H476 C449 0.980 . S
H477 C449 0.983 . S
H478 C422 0.947 . S
C479 C422 1.392 . S
C479 C423 1.419 . S
C479 H461 0.948 . S
C480 C481 1.391 . S
C480 C484 1.391 . S
C480 H522 0.948 . S
C481 C480 1.391 . S
C481 C482 1.391 . S
C482 C481 1.391 . S
C482 H538 0.947 . S
C482 C539 1.392 . S
C483 C484 1.391 . S
C483 C487 1.397 . S
C483 C539 1.419 . S
C484 C480 1.391 . S
C484 C483 1.391 . S
C484 C485 1.399 . S
C485 C484 1.399 . S
C485 C488 1.396 . S
C485 C497 1.453 . S
C485 C498 1.684 . S
H486 C510 0.948 . S
C487 C483 1.397 . S
C487 C488 1.394 . S
C487 C506 1.723 . S
C488 C485 1.396 . S
C488 C487 1.394 . S
C488 C518 1.723 . S
H489 C512 0.947 . S
H490 C513 0.948 . S
H491 C519 0.982 . S
H492 C520 0.979 . S
H493 C520 0.980 . S
H494 C520 0.983 . S
H495 C519 0.979 . S
H496 C519 0.977 . S
C497 C485 1.453 . S
C497 H526 0.982 . S
C497 H527 0.979 . S
C497 H528 0.977 . S
C498 C485 1.684 . S
C498 H523 0.979 . S
C498 H524 0.980 . S
C498 H525 0.983 . S
C499 C500 1.391 . S
C499 C504 1.391 . S
C499 H529 0.948 . S
C500 C499 1.391 . S
C500 C501 1.391 . S
C501 C500 1.391 . S
C501 C502 1.392 . S
C501 H530 0.947 . S
C502 C501 1.392 . S
C502 C503 1.419 . S
C502 H531 0.948 . S
C503 C502 1.419 . S
C503 C504 1.391 . S
C503 C507 1.397 . S
C504 C499 1.391 . S
C504 C503 1.391 . S
C504 C505 1.399 . S
C505 C504 1.399 . S
C505 C506 1.396 . S
C505 C508 1.453 . S
C505 C509 1.684 . S
C506 C487 1.723 . S
C506 C505 1.396 . S
C506 C507 1.394 . S
C507 C503 1.397 . S
C507 C506 1.394 . S
C507 C517 1.723 . S
C508 C505 1.453 . S
C508 H532 0.982 . S
C508 H533 0.979 . S
C508 H534 0.977 . S
C509 C505 1.684 . S
C509 H535 0.979 . S
C509 H536 0.980 . S
C509 H537 0.983 . S
C510 H486 0.948 . S
C510 C511 1.391 . S
C510 C515 1.391 . S
C511 C510 1.391 . S
C511 C512 1.391 . S
C512 H489 0.947 . S
C512 C511 1.391 . S
C512 C513 1.392 . S
C513 H490 0.948 . S
C513 C512 1.392 . S
C513 C514 1.419 . S
C514 C513 1.419 . S
C514 C515 1.391 . S
C514 C518 1.397 . S
C515 C510 1.391 . S
C515 C514 1.391 . S
C515 C516 1.399 . S
C516 C515 1.399 . S
C516 C517 1.396 . S
C516 C519 1.453 . S
C516 C520 1.684 . S
C517 C507 1.723 . S
C517 C516 1.396 . S
C517 C518 1.394 . S
C518 C488 1.723 . S
C518 C514 1.397 . S
C518 C517 1.394 . S
C519 H491 0.982 . S
C519 H495 0.979 . S
C519 H496 0.977 . S
C519 C516 1.453 . S
C520 H492 0.979 . S
C520 H493 0.980 . S
C520 H494 0.983 . S
C520 C516 1.684 . S
H521 C539 0.948 . S
H522 C480 0.948 . S
H523 C498 0.979 . S
H524 C498 0.980 . S
H525 C498 0.983 . S
H526 C497 0.982 . S
H527 C497 0.979 . S
H528 C497 0.977 . S
H529 C499 0.948 . S
H530 C501 0.947 . S
H531 C502 0.948 . S
H532 C508 0.982 . S
H533 C508 0.979 . S
H534 C508 0.977 . S
H535 C509 0.979 . S
H536 C509 0.980 . S
H537 C509 0.983 . S
H538 C482 0.947 . S
C539 C482 1.392 . S
C539 C483 1.419 . S
C539 H521 0.948 . S
C540 C541 1.391 . S
C540 C544 1.391 . S
C540 H582 0.948 . S
C541 C540 1.391 . S
C541 C542 1.391 . S
C542 C541 1.391 . S
C542 H598 0.947 . S
C542 C599 1.392 . S
C543 C544 1.391 . S
C543 C547 1.397 . S
C543 C599 1.419 . S
C544 C540 1.391 . S
C544 C543 1.391 . S
C544 C545 1.399 . S
C545 C544 1.399 . S
C545 C548 1.396 . S
C545 C557 1.453 . S
C545 C558 1.684 . S
H546 C570 0.948 1_545 S
C547 C543 1.397 . S
C547 C548 1.394 . S
C547 C566 1.723 . S
C548 C545 1.396 . S
C548 C547 1.394 . S
C548 C578 1.723 . S
H549 C572 0.947 . S
H550 C573 0.948 . S
H551 C579 0.982 . S
H552 C580 0.979 . S
H553 C580 0.980 . S
H554 C580 0.983 . S
H555 C579 0.979 1_545 S
H556 C579 0.977 1_545 S
C557 C545 1.453 . S
C557 H586 0.982 . S
C557 H587 0.979 . S
C557 H588 0.977 . S
C558 C545 1.684 . S
C558 H583 0.979 . S
C558 H584 0.980 . S
C558 H585 0.983 . S
C559 C560 1.391 . S
C559 C564 1.391 1_545 S
C559 H589 0.948 . S
C560 C559 1.391 . S
C560 C561 1.391 . S
C561 C560 1.391 . S
C561 C562 1.392 . S
C561 H590 0.947 . S
C562 C561 1.392 . S
C562 C563 1.419 1_545 S
C562 H591 0.948 . S
C563 C562 1.419 1_565 S
C563 C564 1.391 . S
C563 C567 1.397 . S
C564 C559 1.391 1_565 S
C564 C563 1.391 . S
C564 C565 1.399 . S
C565 C564 1.399 . S
C565 C566 1.396 . S
C565 C568 1.453 . S
C565 C569 1.684 . S
C566 C547 1.723 . S
C566 C565 1.396 . S
C566 C567 1.394 . S
C567 C563 1.397 . S
C567 C566 1.394 . S
C567 C577 1.723 . S
C568 C565 1.453 . S
C568 H592 0.982 . S
C568 H593 0.979 . S
C568 H594 0.977 . S
C569 C565 1.684 . S
C569 H595 0.979 . S
C569 H596 0.980 . S
C569 H597 0.983 . S
C570 H546 0.948 1_565 S
C570 C571 1.391 . S
C570 C575 1.391 . S
C571 C570 1.391 . S
C571 C572 1.391 . S
C572 H549 0.947 . S
C572 C571 1.391 . S
C572 C573 1.392 . S
C573 H550 0.948 . S
C573 C572 1.392 . S
C573 C574 1.419 . S
C574 C573 1.419 . S
C574 C575 1.391 . S
C574 C578 1.397 . S
C575 C570 1.391 . S
C575 C574 1.391 . S
C575 C576 1.399 . S
C576 C575 1.399 . S
C576 C577 1.396 . S
C576 C579 1.453 . S
C576 C580 1.684 1_565 S
C577 C567 1.723 . S
C577 C576 1.396 . S
C577 C578 1.394 . S
C578 C548 1.723 . S
C578 C574 1.397 . S
C578 C577 1.394 . S
C579 H551 0.982 . S
C579 H555 0.979 1_565 S
C579 H556 0.977 1_565 S
C579 C576 1.453 . S
C580 H552 0.979 . S
C580 H553 0.980 . S
C580 H554 0.983 . S
C580 C576 1.684 1_545 S
H581 C599 0.948 . S
H582 C540 0.948 . S
H583 C558 0.979 . S
H584 C558 0.980 . S
H585 C558 0.983 . S
H586 C557 0.982 . S
H587 C557 0.979 . S
H588 C557 0.977 . S
H589 C559 0.948 . S
H590 C561 0.947 . S
H591 C562 0.948 . S
H592 C568 0.982 . S
H593 C568 0.979 . S
H594 C568 0.977 . S
H595 C569 0.979 . S
H596 C569 0.980 . S
H597 C569 0.983 . S
H598 C542 0.947 . S
C599 C542 1.392 . S
C599 C543 1.419 . S
C599 H581 0.948 . S
C600 C601 1.391 . S
C600 C604 1.391 . S
C600 H642 0.948 . S
C601 C600 1.391 . S
C601 C602 1.391 . S
C602 C601 1.391 . S
C602 H658 0.947 . S
C602 C659 1.392 . S
C603 C604 1.391 . S
C603 C607 1.397 . S
C603 C659 1.419 . S
C604 C600 1.391 . S
C604 C603 1.391 . S
C604 C605 1.399 . S
C605 C604 1.399 . S
C605 C608 1.396 . S
C605 C617 1.453 . S
C605 C618 1.684 . S
H606 C630 0.948 . S
C607 C603 1.397 . S
C607 C608 1.394 . S
C607 C626 1.723 . S
C608 C605 1.396 . S
C608 C607 1.394 . S
C608 C638 1.723 . S
H609 C632 0.947 . S
H610 C633 0.948 . S
H611 C639 0.982 . S
H612 C640 0.979 . S
H613 C640 0.980 . S
H614 C640 0.983 . S
H615 C639 0.979 . S
H616 C639 0.977 . S
C617 C605 1.453 . S
C617 H646 0.982 . S
C617 H647 0.979 . S
C617 H648 0.977 . S
C618 C605 1.684 . S
C618 H643 0.979 . S
C618 H644 0.980 . S
C618 H645 0.983 . S
C619 C620 1.391 . S
C619 C624 1.391 . S
C619 H649 0.948 . S
C620 C619 1.391 . S
C620 C621 1.391 . S
C621 C620 1.391 . S
C621 C622 1.392 . S
C621 H650 0.947 . S
C622 C621 1.392 . S
C622 C623 1.419 . S
C622 H651 0.948 . S
C623 C622 1.419 . S
C623 C624 1.391 . S
C623 C627 1.397 . S
C624 C619 1.391 . S
C624 C623 1.391 . S
C624 C625 1.399 . S
C625 C624 1.399 . S
C625 C626 1.396 . S
C625 C628 1.453 . S
C625 C629 1.684 . S
C626 C607 1.723 . S
C626 C625 1.396 . S
C626 C627 1.394 . S
C627 C623 1.397 . S
C627 C626 1.394 . S
C627 C637 1.723 . S
C628 C625 1.453 . S
C628 H652 0.982 . S
C628 H653 0.979 . S
C628 H654 0.977 . S
C629 C625 1.684 . S
C629 H655 0.979 . S
C629 H656 0.980 . S
C629 H657 0.983 . S
C630 H606 0.948 . S
C630 C631 1.391 . S
C630 C635 1.391 . S
C631 C630 1.391 . S
C631 C632 1.391 . S
C632 H609 0.947 . S
C632 C631 1.391 . S
C632 C633 1.392 . S
C633 H610 0.948 . S
C633 C632 1.392 . S
C633 C634 1.419 . S
C634 C633 1.419 . S
C634 C635 1.391 . S
C634 C638 1.397 . S
C635 C630 1.391 . S
C635 C634 1.391 . S
C635 C636 1.399 . S
C636 C635 1.399 . S
C636 C637 1.396 . S
C636 C639 1.453 . S
C636 C640 1.684 . S
C637 C627 1.723 . S
C637 C636 1.396 . S
C637 C638 1.394 . S
C638 C608 1.723 . S
C638 C634 1.397 . S
C638 C637 1.394 . S
C639 H611 0.982 . S
C639 H615 0.979 . S
C639 H616 0.977 . S
C639 C636 1.453 . S
C640 H612 0.979 . S
C640 H613 0.980 . S
C640 H614 0.983 . S
C640 C636 1.684 . S
H641 C659 0.948 . S
H642 C600 0.948 . S
H643 C618 0.979 . S
H644 C618 0.980 . S
H645 C618 0.983 . S
H646 C617 0.982 . S
H647 C617 0.979 . S
H648 C617 0.977 . S
H649 C619 0.948 . S
H650 C621 0.947 . S
H651 C622 0.948 . S
H652 C628 0.982 . S
H653 C628 0.979 . S
H654 C628 0.977 . S
H655 C629 0.979 . S
H656 C629 0.980 . S
H657 C629 0.983 . S
H658 C602 0.947 . S
C659 C602 1.392 . S
C659 C603 1.419 . S
C659 H641 0.948 . S
C660 C661 1.391 . S
C660 C664 1.391 . S
C660 H702 0.948 . S
C661 C660 1.391 . S
C661 C662 1.391 . S
C662 C661 1.391 . S
C662 H718 0.947 . S
C662 C719 1.392 . S
C663 C664 1.391 . S
C663 C667 1.397 . S
C663 C719 1.419 . S
C664 C660 1.391 . S
C664 C663 1.391 . S
C664 C665 1.399 . S
C665 C664 1.399 . S
C665 C668 1.396 . S
C665 C677 1.453 . S
C665 C678 1.684 . S
H666 C690 0.948 . S
C667 C663 1.397 . S
C667 C668 1.394 . S
C667 C686 1.723 . S
C668 C665 1.396 . S
C668 C667 1.394 . S
C668 C698 1.723 . S
H669 C692 0.947 . S
H670 C693 0.948 . S
H671 C699 0.982 . S
H672 C700 0.979 . S
H673 C700 0.980 . S
H674 C700 0.983 . S
H675 C699 0.979 . S
H676 C699 0.977 . S
C677 C665 1.453 . S
C677 H706 0.982 . S
C677 H707 0.979 . S
C677 H708 0.977 . S
C678 C665 1.684 . S
C678 H703 0.979 . S
C678 H704 0.980 . S
C678 H705 0.983 . S
C679 C680 1.391 . S
C679 C684 1.391 . S
C679 H709 0.948 . S
C680 C679 1.391 . S
C680 C681 1.391 . S
C681 C680 1.391 . S
C681 C682 1.392 . S
C681 H710 0.947 . S
C682 C681 1.392 . S
C682 C683 1.419 . S
C682 H711 0.948 . S
C683 C682 1.419 . S
C683 C684 1.391 . S
C683 C687 1.397 . S
C684 C679 1.391 . S
C684 C683 1.391 . S
C684 C685 1.399 . S
C685 C684 1.399 . S
C685 C686 1.396 . S
C685 C688 1.453 . S
C685 C689 1.684 . S
C686 C667 1.723 . S
C686 C685 1.396 . S
C686 C687 1.394 . S
C687 C683 1.397 . S
C687 C686 1.394 . S
C687 C697 1.723 . S
C688 C685 1.453 . S
C688 H712 0.982 . S
C688 H713 0.979 . S
C688 H714 0.977 . S
C689 C685 1.684 . S
C689 H715 0.979 . S
C689 H716 0.980 . S
C689 H717 0.983 . S
C690 H666 0.948 . S
C690 C691 1.391 . S
C690 C695 1.391 . S
C691 C690 1.391 . S
C691 C692 1.391 . S
C692 H669 0.947 . S
C692 C691 1.391 . S
C692 C693 1.392 . S
C693 H670 0.948 . S
C693 C692 1.392 . S
C693 C694 1.419 . S
C694 C693 1.419 . S
C694 C695 1.391 . S
C694 C698 1.397 . S
C695 C690 1.391 . S
C695 C694 1.391 . S
C695 C696 1.399 . S
C696 C695 1.399 . S
C696 C697 1.396 . S
C696 C699 1.453 . S
C696 C700 1.684 . S
C697 C687 1.723 . S
C697 C696 1.396 . S
C697 C698 1.394 . S
C698 C668 1.723 . S
C698 C694 1.397 . S
C698 C697 1.394 . S
C699 H671 0.982 . S
C699 H675 0.979 . S
C699 H676 0.977 . S
C699 C696 1.453 . S
C700 H672 0.979 . S
C700 H673 0.980 . S
C700 H674 0.983 . S
C700 C696 1.684 . S
H701 C719 0.948 . S
H702 C660 0.948 . S
H703 C678 0.979 . S
H704 C678 0.980 . S
H705 C678 0.983 . S
H706 C677 0.982 . S
H707 C677 0.979 . S
H708 C677 0.977 . S
H709 C679 0.948 . S
H710 C681 0.947 . S
H711 C682 0.948 . S
H712 C688 0.982 . S
H713 C688 0.979 . S
H714 C688 0.977 . S
H715 C689 0.979 . S
H716 C689 0.980 . S
H717 C689 0.983 . S
H718 C662 0.947 . S
C719 C662 1.392 . S
C719 C663 1.419 . S
C719 H701 0.948 . S
C720 C721 1.391 . S
C720 C724 1.391 . S
C720 H762 0.948 . S
C721 C720 1.391 . S
C721 C722 1.391 . S
C722 C721 1.391 . S
C722 H778 0.947 . S
C722 C779 1.392 . S
C723 C724 1.391 . S
C723 C727 1.397 . S
C723 C779 1.419 . S
C724 C720 1.391 . S
C724 C723 1.391 . S
C724 C725 1.399 . S
C725 C724 1.399 . S
C725 C728 1.396 . S
C725 C737 1.453 . S
C725 C738 1.684 . S
H726 C750 0.948 . S
C727 C723 1.397 . S
C727 C728 1.394 . S
C727 C746 1.723 . S
C728 C725 1.396 . S
C728 C727 1.394 . S
C728 C758 1.723 . S
H729 C752 0.947 . S
H730 C753 0.948 . S
H731 C759 0.982 . S
H732 C760 0.979 . S
H733 C760 0.980 . S
H734 C760 0.983 . S
H735 C759 0.979 . S
H736 C759 0.977 . S
C737 C725 1.453 . S
C737 H766 0.982 . S
C737 H767 0.979 . S
C737 H768 0.977 . S
C738 C725 1.684 . S
C738 H763 0.979 . S
C738 H764 0.980 . S
C738 H765 0.983 . S
C739 C740 1.391 . S
C739 C744 1.391 . S
C739 H769 0.948 . S
C740 C739 1.391 . S
C740 C741 1.391 . S
C741 C740 1.391 . S
C741 C742 1.392 . S
C741 H770 0.947 . S
C742 C741 1.392 . S
C742 C743 1.419 . S
C742 H771 0.948 . S
C743 C742 1.419 . S
C743 C744 1.391 . S
C743 C747 1.397 . S
C744 C739 1.391 . S
C744 C743 1.391 . S
C744 C745 1.399 . S
C745 C744 1.399 . S
C745 C746 1.396 . S
C745 C748 1.453 . S
C745 C749 1.684 . S
C746 C727 1.723 . S
C746 C745 1.396 . S
C746 C747 1.394 . S
C747 C743 1.397 . S
C747 C746 1.394 . S
C747 C757 1.723 . S
C748 C745 1.453 . S
C748 H772 0.982 . S
C748 H773 0.979 . S
C748 H774 0.977 . S
C749 C745 1.684 . S
C749 H775 0.979 . S
C749 H776 0.980 . S
C749 H777 0.983 . S
C750 H726 0.948 . S
C750 C751 1.391 . S
C750 C755 1.391 . S
C751 C750 1.391 . S
C751 C752 1.391 . S
C752 H729 0.947 . S
C752 C751 1.391 . S
C752 C753 1.392 . S
C753 H730 0.948 . S
C753 C752 1.392 . S
C753 C754 1.419 . S
C754 C753 1.419 . S
C754 C755 1.391 . S
C754 C758 1.397 . S
C755 C750 1.391 . S
C755 C754 1.391 . S
C755 C756 1.399 . S
C756 C755 1.399 . S
C756 C757 1.396 . S
C756 C759 1.453 . S
C756 C760 1.684 . S
C757 C747 1.723 . S
C757 C756 1.396 . S
C757 C758 1.394 . S
C758 C728 1.723 . S
C758 C754 1.397 . S
C758 C757 1.394 . S
C759 H731 0.982 . S
C759 H735 0.979 . S
C759 H736 0.977 . S
C759 C756 1.453 . S
C760 H732 0.979 . S
C760 H733 0.980 . S
C760 H734 0.983 . S
C760 C756 1.684 . S
H761 C779 0.948 . S
H762 C720 0.948 . S
H763 C738 0.979 . S
H764 C738 0.980 . S
H765 C738 0.983 . S
H766 C737 0.982 . S
H767 C737 0.979 . S
H768 C737 0.977 . S
H769 C739 0.948 . S
H770 C741 0.947 . S
H771 C742 0.948 . S
H772 C748 0.982 . S
H773 C748 0.979 . S
H774 C748 0.977 . S
H775 C749 0.979 . S
H776 C749 0.980 . S
H777 C749 0.983 . S
H778 C722 0.947 . S
C779 C722 1.392 . S
C779 C723 1.419 . S
C779 H761 0.948 . S
C780 C781 1.391 . S
C780 C784 1.391 1_554 S
C780 H822 0.948 . S
C781 C780 1.391 . S
C781 C782 1.391 1_554 S
C782 C781 1.391 1_556 S
C782 H838 0.947 . S
C782 C839 1.392 . S
C783 C784 1.391 . S
C783 C787 1.397 . S
C783 C839 1.419 . S
C784 C780 1.391 1_556 S
C784 C783 1.391 . S
C784 C785 1.399 . S
C785 C784 1.399 . S
C785 C788 1.396 . S
C785 C797 1.453 1_556 S
C785 C798 1.684 . S
H786 C810 0.948 . S
C787 C783 1.397 . S
C787 C788 1.394 . S
C787 C806 1.723 . S
C788 C785 1.396 . S
C788 C787 1.394 . S
C788 C818 1.723 . S
H789 C812 0.947 . S
H790 C813 0.948 . S
H791 C819 0.982 . S
H792 C820 0.979 . S
H793 C820 0.980 . S
H794 C820 0.983 . S
H795 C819 0.979 . S
H796 C819 0.977 . S
C797 C785 1.453 1_554 S
C797 H826 0.982 . S
C797 H827 0.979 . S
C797 H828 0.977 . S
C798 C785 1.684 . S
C798 H823 0.979 . S
C798 H824 0.980 . S
C798 H825 0.983 1_556 S
C799 C800 1.391 . S
C799 C804 1.391 . S
C799 H829 0.948 . S
C800 C799 1.391 . S
C800 C801 1.391 . S
C801 C800 1.391 . S
C801 C802 1.392 . S
C801 H830 0.947 . S
C802 C801 1.392 . S
C802 C803 1.419 . S
C802 H831 0.948 . S
C803 C802 1.419 . S
C803 C804 1.391 . S
C803 C807 1.397 . S
C804 C799 1.391 . S
C804 C803 1.391 . S
C804 C805 1.399 . S
C805 C804 1.399 . S
C805 C806 1.396 . S
C805 C808 1.453 . S
C805 C809 1.684 . S
C806 C787 1.723 . S
C806 C805 1.396 . S
C806 C807 1.394 . S
C807 C803 1.397 . S
C807 C806 1.394 . S
C807 C817 1.723 . S
C808 C805 1.453 . S
C808 H832 0.982 . S
C808 H833 0.979 . S
C808 H834 0.977 . S
C809 C805 1.684 . S
C809 H835 0.979 . S
C809 H836 0.980 . S
C809 H837 0.983 . S
C810 H786 0.948 . S
C810 C811 1.391 . S
C810 C815 1.391 . S
C811 C810 1.391 . S
C811 C812 1.391 . S
C812 H789 0.947 . S
C812 C811 1.391 . S
C812 C813 1.392 . S
C813 H790 0.948 . S
C813 C812 1.392 . S
C813 C814 1.419 . S
C814 C813 1.419 . S
C814 C815 1.391 . S
C814 C818 1.397 . S
C815 C810 1.391 . S
C815 C814 1.391 . S
C815 C816 1.399 . S
C816 C815 1.399 . S
C816 C817 1.396 . S
C816 C819 1.453 . S
C816 C820 1.684 . S
C817 C807 1.723 . S
C817 C816 1.396 . S
C817 C818 1.394 . S
C818 C788 1.723 . S
C818 C814 1.397 . S
C818 C817 1.394 . S
C819 H791 0.982 . S
C819 H795 0.979 . S
C819 H796 0.977 . S
C819 C816 1.453 . S
C820 H792 0.979 . S
C820 H793 0.980 . S
C820 H794 0.983 . S
C820 C816 1.684 . S
H821 C839 0.948 . S
H822 C780 0.948 . S
H823 C798 0.979 . S
H824 C798 0.980 . S
H825 C798 0.983 1_554 S
H826 C797 0.982 . S
H827 C797 0.979 . S
H828 C797 0.977 . S
H829 C799 0.948 . S
H830 C801 0.947 . S
H831 C802 0.948 . S
H832 C808 0.982 . S
H833 C808 0.979 . S
H834 C808 0.977 . S
H835 C809 0.979 . S
H836 C809 0.980 . S
H837 C809 0.983 . S
H838 C782 0.947 . S
C839 C782 1.392 . S
C839 C783 1.419 . S
C839 H821 0.948 . S
C840 C841 1.391 . S
C840 C844 1.391 . S
C840 H882 0.948 . S
C841 C840 1.391 . S
C841 C842 1.391 . S
C842 C841 1.391 . S
C842 H898 0.947 . S
C842 C899 1.392 . S
C843 C844 1.391 . S
C843 C847 1.397 . S
C843 C899 1.419 . S
C844 C840 1.391 . S
C844 C843 1.391 . S
C844 C845 1.399 . S
C845 C844 1.399 . S
C845 C848 1.396 . S
C845 C857 1.453 . S
C845 C858 1.684 . S
H846 C870 0.948 . S
C847 C843 1.397 . S
C847 C848 1.394 . S
C847 C866 1.723 . S
C848 C845 1.396 . S
C848 C847 1.394 . S
C848 C878 1.723 . S
H849 C872 0.947 . S
H850 C873 0.948 . S
H851 C879 0.982 . S
H852 C880 0.979 . S
H853 C880 0.980 . S
H854 C880 0.983 . S
H855 C879 0.979 . S
H856 C879 0.977 . S
C857 C845 1.453 . S
C857 H886 0.982 . S
C857 H887 0.979 . S
C857 H888 0.977 . S
C858 C845 1.684 . S
C858 H883 0.979 . S
C858 H884 0.980 . S
C858 H885 0.983 . S
C859 C860 1.391 . S
C859 C864 1.391 . S
C859 H889 0.948 . S
C860 C859 1.391 . S
C860 C861 1.391 . S
C861 C860 1.391 . S
C861 C862 1.392 . S
C861 H890 0.947 . S
C862 C861 1.392 . S
C862 C863 1.419 . S
C862 H891 0.948 . S
C863 C862 1.419 . S
C863 C864 1.391 . S
C863 C867 1.397 . S
C864 C859 1.391 . S
C864 C863 1.391 . S
C864 C865 1.399 . S
C865 C864 1.399 . S
C865 C866 1.396 . S
C865 C868 1.453 . S
C865 C869 1.684 . S
C866 C847 1.723 . S
C866 C865 1.396 . S
C866 C867 1.394 . S
C867 C863 1.397 . S
C867 C866 1.394 . S
C867 C877 1.723 . S
C868 C865 1.453 . S
C868 H892 0.982 . S
C868 H893 0.979 . S
C868 H894 0.977 . S
C869 C865 1.684 . S
C869 H895 0.979 . S
C869 H896 0.980 . S
C869 H897 0.983 . S
C870 H846 0.948 . S
C870 C871 1.391 . S
C870 C875 1.391 . S
C871 C870 1.391 . S
C871 C872 1.391 . S
C872 H849 0.947 . S
C872 C871 1.391 . S
C872 C873 1.392 . S
C873 H850 0.948 . S
C873 C872 1.392 . S
C873 C874 1.419 . S
C874 C873 1.419 . S
C874 C875 1.391 . S
C874 C878 1.397 . S
C875 C870 1.391 . S
C875 C874 1.391 . S
C875 C876 1.399 . S
C876 C875 1.399 . S
C876 C877 1.396 . S
C876 C879 1.453 . S
C876 C880 1.684 . S
C877 C867 1.723 . S
C877 C876 1.396 . S
C877 C878 1.394 . S
C878 C848 1.723 . S
C878 C874 1.397 . S
C878 C877 1.394 . S
C879 H851 0.982 . S
C879 H855 0.979 . S
C879 H856 0.977 . S
C879 C876 1.453 . S
C880 H852 0.979 . S
C880 H853 0.980 . S
C880 H854 0.983 . S
C880 C876 1.684 . S
H881 C899 0.948 . S
H882 C840 0.948 . S
H883 C858 0.979 . S
H884 C858 0.980 . S
H885 C858 0.983 . S
H886 C857 0.982 . S
H887 C857 0.979 . S
H888 C857 0.977 . S
H889 C859 0.948 . S
H890 C861 0.947 . S
H891 C862 0.948 . S
H892 C868 0.982 . S
H893 C868 0.979 . S
H894 C868 0.977 . S
H895 C869 0.979 . S
H896 C869 0.980 . S
H897 C869 0.983 . S
H898 C842 0.947 . S
C899 C842 1.392 . S
C899 C843 1.419 . S
C899 H881 0.948 . S
C900 C901 1.391 1_545 S
C900 C904 1.391 . S
C900 H942 0.948 1_556 S
C901 C900 1.391 1_565 S
C901 C902 1.391 . S
C902 C901 1.391 . S
C902 H958 0.947 . S
C902 C959 1.392 . S
C903 C904 1.391 . S
C903 C907 1.397 . S
C903 C959 1.419 1_545 S
C904 C900 1.391 . S
C904 C903 1.391 . S
C904 C905 1.399 . S
C905 C904 1.399 . S
C905 C908 1.396 . S
C905 C917 1.453 . S
C905 C918 1.684 1_556 S
H906 C930 0.948 . S
C907 C903 1.397 . S
C907 C908 1.394 . S
C907 C926 1.723 . S
C908 C905 1.396 . S
C908 C907 1.394 . S
C908 C938 1.723 . S
H909 C932 0.947 . S
H910 C933 0.948 . S
H911 C939 0.982 . S
H912 C940 0.979 . S
H913 C940 0.980 . S
H914 C940 0.983 . S
H915 C939 0.979 . S
H916 C939 0.977 . S
C917 C905 1.453 . S
C917 H946 0.982 . S
C917 H947 0.979 1_556 S
C917 H948 0.977 1_556 S
C918 C905 1.684 1_554 S
C918 H943 0.979 . S
C918 H944 0.980 . S
C918 H945 0.983 . S
C919 C920 1.391 . S
C919 C924 1.391 . S
C919 H949 0.948 . S
C920 C919 1.391 . S
C920 C921 1.391 . S
C921 C920 1.391 . S
C921 C922 1.392 . S
C921 H950 0.947 . S
C922 C921 1.392 . S
C922 C923 1.419 . S
C922 H951 0.948 . S
C923 C922 1.419 . S
C923 C924 1.391 . S
C923 C927 1.397 . S
C924 C919 1.391 . S
C924 C923 1.391 . S
C924 C925 1.399 . S
C925 C924 1.399 . S
C925 C926 1.396 . S
C925 C928 1.453 . S
C925 C929 1.684 1_545 S
C926 C907 1.723 . S
C926 C925 1.396 . S
C926 C927 1.394 . S
C927 C923 1.397 . S
C927 C926 1.394 . S
C927 C937 1.723 . S
C928 C925 1.453 . S
C928 H952 0.982 . S
C928 H953 1.003 . S
C928 H954 0.977 . S
C929 C925 1.684 1_565 S
C929 H955 0.979 . S
C929 H956 0.980 . S
C929 H957 0.983 . S
C930 H906 0.948 . S
C930 C931 1.391 . S
C930 C935 1.391 1_554 S
C931 C930 1.391 . S
C931 C932 1.391 . S
C932 H909 0.947 . S
C932 C931 1.391 . S
C932 C933 1.392 . S
C933 H910 0.948 . S
C933 C932 1.392 . S
C933 C934 1.419 1_554 S
C934 C933 1.419 1_556 S
C934 C935 1.391 . S
C934 C938 1.397 . S
C935 C930 1.391 1_556 S
C935 C934 1.391 . S
C935 C936 1.399 . S
C936 C935 1.399 . S
C936 C937 1.396 . S
C936 C939 1.453 . S
C936 C940 1.684 . S
C937 C927 1.723 . S
C937 C936 1.396 . S
C937 C938 1.394 . S
C938 C908 1.723 . S
C938 C934 1.397 . S
C938 C937 1.394 . S
C939 H911 0.982 . S
C939 H915 0.979 . S
C939 H916 0.977 . S
C939 C936 1.453 . S
C940 H912 0.979 . S
C940 H913 0.980 . S
C940 H914 0.983 . S
C940 C936 1.684 . S
H941 C959 0.948 . S
H942 C900 0.948 1_554 S
H943 C918 0.979 . S
H944 C918 0.980 . S
H945 C918 0.983 . S
H946 C917 0.982 . S
H947 C917 0.979 1_554 S
H948 C917 0.977 1_554 S
H949 C919 0.948 . S
H950 C921 0.947 . S
H951 C922 0.948 . S
H952 C928 0.982 . S
H953 C928 1.003 . S
H954 C928 0.977 . S
H955 C929 0.979 . S
H956 C929 0.980 . S
H957 C929 0.983 . S
H958 C902 0.947 . S
C959 C902 1.392 . S
C959 C903 1.419 1_565 S
C959 H941 0.948 . S
C960 O961 1.160 1_554 S
C960 O967 1.185 . S
O961 C960 1.160 1_556 S
O962 Zn963 1.899 1_556 S
O962 C970 1.284 . S
Zn963 O962 1.899 1_554 S
Zn963 O964 2.032 . S
Zn963 O967 2.086 . S
Zn963 O972 1.977 . S
O964 Zn963 2.032 . S
O964 C968 1.278 . S
C965 O966 1.203 . S
C965 O972 1.267 . S
O966 C965 1.203 . S
O967 C960 1.185 . S
O967 Zn963 2.086 . S
C968 O964 1.278 . S
C968 O969 1.211 . S
O969 C968 1.211 . S
C970 O962 1.284 . S
C970 O971 1.273 . S
O971 C970 1.273 . S
O972 Zn963 1.977 . S
O972 C965 1.267 . S
C973 O974 1.160 . S
C973 O980 1.185 . S
O974 C973 1.160 . S
O975 Zn976 1.899 . S
O975 C983 1.284 . S
Zn976 O975 1.899 . S
Zn976 O977 2.032 . S
Zn976 O980 2.086 . S
Zn976 O985 1.977 . S
O977 Zn976 2.032 . S
O977 C981 1.278 . S
C978 O979 1.203 . S
C978 O985 1.267 . S
O979 C978 1.203 . S
O980 C973 1.185 . S
O980 Zn976 2.086 . S
C981 O977 1.278 . S
C981 O982 1.211 . S
O982 C981 1.211 . S
C983 O975 1.284 . S
C983 O984 1.273 . S
O984 C983 1.273 . S
O985 Zn976 1.977 . S
O985 C978 1.267 . S
C986 O987 1.160 1_554 S
C986 O993 1.185 . S
O987 C986 1.160 1_556 S
O988 Zn989 1.899 1_556 S
O988 C996 1.284 . S
Zn989 O988 1.899 1_554 S
Zn989 O990 2.032 1_554 S
Zn989 O993 2.086 . S
Zn989 O998 1.977 . S
O990 Zn989 2.032 1_556 S
O990 C994 1.278 . S
C991 O992 1.203 . S
C991 O998 1.267 . S
O992 C991 1.203 . S
O993 C986 1.185 . S
O993 Zn989 2.086 . S
C994 O990 1.278 . S
C994 O995 1.211 1_556 S
O995 C994 1.211 1_554 S
C996 O988 1.284 . S
C996 O997 1.273 . S
O997 C996 1.273 . S
O998 Zn989 1.977 . S
O998 C991 1.267 . S
C999 O1000 1.160 . S
C999 O1006 1.185 . S
O1000 C999 1.160 . S
O1001 Zn1002 1.899 . S
O1001 C1009 1.284 . S
Zn1002 O1001 1.899 . S
Zn1002 O1003 1.994 1_545 S
Zn1002 O1006 2.086 . S
Zn1002 O1011 1.977 . S
O1003 Zn1002 1.994 1_565 S
O1003 C1007 1.329 . S
C1004 O1005 1.203 . S
C1004 O1011 1.267 . S
O1005 C1004 1.203 . S
O1006 C999 1.185 . S
O1006 Zn1002 2.086 . S
C1007 O1003 1.329 . S
C1007 O1008 1.211 . S
O1008 C1007 1.211 . S
C1009 O1001 1.284 . S
C1009 O1010 1.273 1_545 S
O1010 C1009 1.273 1_565 S
O1011 Zn1002 1.977 . S
O1011 C1004 1.267 . S
C1012 O1013 1.160 . S
C1012 O1019 1.185 . S
O1013 C1012 1.160 . S
O1014 Zn1015 1.899 . S
O1014 C1022 1.284 . S
Zn1015 O1014 1.899 . S
Zn1015 O1016 2.032 . S
Zn1015 O1019 2.086 . S
Zn1015 O1024 1.977 . S
O1016 Zn1015 2.032 . S
O1016 C1020 1.278 . S
C1017 O1018 1.203 . S
C1017 O1024 1.267 . S
O1018 C1017 1.203 . S
O1019 C1012 1.185 . S
O1019 Zn1015 2.086 . S
C1020 O1016 1.278 . S
C1020 O1021 1.211 . S
O1021 C1020 1.211 . S
C1022 O1014 1.284 . S
C1022 O1023 1.273 . S
O1023 C1022 1.273 . S
O1024 Zn1015 1.977 . S
O1024 C1017 1.267 . S
C1025 O1026 1.160 . S
C1025 O1032 1.185 . S
O1026 C1025 1.160 . S
O1027 Zn1028 1.899 . S
O1027 C1035 1.284 . S
Zn1028 O1027 1.899 . S
Zn1028 O1029 2.032 . S
Zn1028 O1032 2.086 . S
Zn1028 O1037 1.977 . S
O1029 Zn1028 2.032 . S
O1029 C1033 1.278 . S
C1030 O1031 1.203 . S
C1030 O1037 1.267 . S
O1031 C1030 1.203 . S
O1032 C1025 1.185 . S
O1032 Zn1028 2.086 . S
C1033 O1029 1.278 . S
C1033 O1034 1.211 . S
O1034 C1033 1.211 . S
C1035 O1027 1.284 . S
C1035 O1036 1.273 . S
O1036 C1035 1.273 . S
O1037 Zn1028 1.977 . S
O1037 C1030 1.267 . S
C1038 O1039 1.160 . S
C1038 O1045 1.185 . S
O1039 C1038 1.160 . S
O1040 Zn1041 1.899 . S
O1040 C1048 1.284 . S
Zn1041 O1040 1.899 . S
Zn1041 O1042 2.032 . S
Zn1041 O1045 2.086 . S
Zn1041 O1050 1.977 . S
O1042 Zn1041 2.032 . S
O1042 C1046 1.278 . S
C1043 O1044 1.203 . S
C1043 O1050 1.267 . S
O1044 C1043 1.203 . S
O1045 C1038 1.185 . S
O1045 Zn1041 2.086 . S
C1046 O1042 1.278 . S
C1046 O1047 1.211 . S
O1047 C1046 1.211 . S
C1048 O1040 1.284 . S
C1048 O1049 1.273 . S
O1049 C1048 1.273 . S
O1050 Zn1041 1.977 . S
O1050 C1043 1.267 . S
C1051 O1052 1.160 . S
C1051 O1058 1.185 . S
O1052 C1051 1.160 . S
O1053 Zn1054 1.899 . S
O1053 C1061 1.284 1_565 S
Zn1054 O1053 1.899 . S
Zn1054 O1055 2.032 1_565 S
Zn1054 O1058 2.086 . S
Zn1054 O1063 1.977 . S
O1055 Zn1054 2.032 1_545 S
O1055 C1059 1.278 . S
C1056 O1057 1.203 1_565 S
C1056 O1063 1.267 . S
O1057 C1056 1.203 1_545 S
O1058 C1051 1.185 . S
O1058 Zn1054 2.086 . S
C1059 O1055 1.278 . S
C1059 O1060 1.211 . S
O1060 C1059 1.211 . S
C1061 O1053 1.284 1_545 S
C1061 O1062 1.273 . S
O1062 C1061 1.273 . S
O1063 Zn1054 1.977 . S
O1063 C1056 1.267 . S
C1064 O1065 1.160 1_455 S
C1064 O1071 1.185 . S
O1065 C1064 1.160 1_655 S
O1066 Zn1067 1.899 1_655 S
O1066 C1074 1.284 . S
Zn1067 O1066 1.899 1_455 S
Zn1067 O1068 2.032 1_455 S
Zn1067 O1071 2.086 . S
Zn1067 O1076 1.977 . S
O1068 Zn1067 2.032 1_655 S
O1068 C1072 1.276 1_655 S
C1069 O1070 1.203 . S
C1069 O1076 1.267 . S
O1070 C1069 1.203 . S
O1071 C1064 1.185 . S
O1071 Zn1067 2.086 . S
C1072 O1068 1.276 1_455 S
C1072 O1073 1.219 . S
O1073 C1072 1.219 . S
C1074 O1066 1.284 . S
C1074 O1075 1.273 . S
O1075 C1074 1.273 . S
O1076 Zn1067 1.977 . S
O1076 C1069 1.267 . S
C1077 O1078 1.160 . S
C1077 O1084 1.185 . S
O1078 C1077 1.160 . S
O1079 Zn1080 1.899 . S
O1079 C1087 1.284 . S
Zn1080 O1079 1.899 . S
Zn1080 O1081 2.032 . S
Zn1080 O1084 2.086 . S
Zn1080 O1089 1.977 . S
O1081 Zn1080 2.032 . S
O1081 C1085 1.278 . S
C1082 O1083 1.203 . S
C1082 O1089 1.267 . S
O1083 C1082 1.203 . S
O1084 C1077 1.185 . S
O1084 Zn1080 2.086 . S
C1085 O1081 1.278 . S
C1085 O1086 1.211 . S
O1086 C1085 1.211 . S
C1087 O1079 1.284 . S
C1087 O1088 1.273 . S
O1088 C1087 1.273 . S
O1089 Zn1080 1.977 . S
O1089 C1082 1.267 . S
C1090 O1091 1.160 1_455 S
C1090 O1097 1.185 . S
O1091 C1090 1.160 1_655 S
O1092 Zn1093 1.899 1_655 S
O1092 C1100 1.284 . S
Zn1093 O1092 1.899 1_455 S
Zn1093 O1094 2.032 1_455 S
Zn1093 O1097 2.086 . S
Zn1093 O1102 1.977 . S
O1094 Zn1093 2.032 1_655 S
O1094 C1098 1.279 . S
C1095 O1096 1.203 . S
C1095 O1102 1.267 . S
O1096 C1095 1.203 . S
O1097 C1090 1.185 . S
O1097 Zn1093 2.086 . S
C1098 O1094 1.279 . S
C1098 O1099 1.208 1_655 S
O1099 C1098 1.208 1_455 S
C1100 O1092 1.284 . S
C1100 O1101 1.273 . S
O1101 C1100 1.273 . S
O1102 Zn1093 1.977 . S
O1102 C1095 1.267 . S
C1103 O1104 1.160 . S
C1103 O1110 1.185 . S
O1104 C1103 1.160 . S
O1105 Zn1106 1.899 . S
O1105 C1113 1.284 . S
Zn1106 O1105 1.899 . S
Zn1106 O1107 2.032 . S
Zn1106 O1110 2.086 . S
Zn1106 O1115 1.977 . S
O1107 Zn1106 2.032 . S
O1107 C1111 1.278 . S
C1108 O1109 1.203 . S
C1108 O1115 1.267 . S
O1109 C1108 1.203 . S
O1110 C1103 1.185 . S
O1110 Zn1106 2.086 . S
C1111 O1107 1.278 . S
C1111 O1112 1.211 . S
O1112 C1111 1.211 . S
C1113 O1105 1.284 . S
C1113 O1114 1.273 . S
O1114 C1113 1.273 . S
O1115 Zn1106 1.977 . S
O1115 C1108 1.267 . S
H1116 C1128 0.930 . S
H1117 C1130 0.930 . S
H1118 C1131 0.930 . S
H1119 C1135 0.959 . S
H1120 C1135 0.959 . S
H1121 C1135 0.961 . S
H1122 C1136 0.960 . S
H1123 C1136 0.961 . S
H1124 C1136 0.959 . S
H1125 C1139 0.929 . S
H1126 C1140 0.931 . S
H1127 C1142 0.930 . S
C1128 H1116 0.930 . S
C1128 C1129 1.399 . S
C1128 C1133 1.399 . S
C1129 C1128 1.399 . S
C1129 C1130 1.376 . S
C1130 H1117 0.930 . S
C1130 C1129 1.376 . S
C1130 C1131 1.388 . S
C1131 H1118 0.930 . S
C1131 C1130 1.388 . S
C1131 C1132 1.390 . S
C1132 C1131 1.390 . S
C1132 C1133 1.394 . S
C1132 C1138 1.465 . S
C1133 C1128 1.399 . S
C1133 C1132 1.394 . S
C1133 C1134 1.516 . S
C1134 C1133 1.516 . S
C1134 C1135 1.502 . S
C1134 C1136 1.561 . S
C1134 C1137 1.526 . S
C1135 H1119 0.959 . S
C1135 H1120 0.959 . S
C1135 H1121 0.961 . S
C1135 C1134 1.502 . S
C1136 H1122 0.960 . S
C1136 H1123 0.961 . S
C1136 H1124 0.959 . S
C1136 C1134 1.561 . S
C1137 C1134 1.526 . S
C1137 C1138 1.396 . S
C1137 C1142 1.390 . S
C1138 C1132 1.465 . S
C1138 C1137 1.396 . S
C1138 C1139 1.399 . S
C1139 H1125 0.929 . S
C1139 C1138 1.399 . S
C1139 C1140 1.385 . S
C1140 H1126 0.931 . S
C1140 C1139 1.385 . S
C1140 C1141 1.389 . S
C1141 C1140 1.389 . S
C1141 C1142 1.387 . S
C1142 H1127 0.930 . S
C1142 C1137 1.390 . S
C1142 C1141 1.387 . S
H1143 C1155 0.930 . S
H1144 C1157 0.930 . S
H1145 C1158 0.930 . S
H1146 C1162 0.959 . S
H1147 C1162 0.959 . S
H1148 C1162 0.961 . S
H1149 C1163 0.960 . S
H1150 C1163 0.961 . S
H1151 C1163 0.959 . S
H1152 C1166 0.929 . S
H1153 C1167 0.931 . S
H1154 C1169 0.930 . S
C1155 H1143 0.930 . S
C1155 C1156 1.399 . S
C1155 C1160 1.399 . S
C1156 C1155 1.399 . S
C1156 C1157 1.376 . S
C1157 H1144 0.930 . S
C1157 C1156 1.376 . S
C1157 C1158 1.388 . S
C1158 H1145 0.930 . S
C1158 C1157 1.388 . S
C1158 C1159 1.390 . S
C1159 C1158 1.390 . S
C1159 C1160 1.394 . S
C1159 C1165 1.465 . S
C1160 C1155 1.399 . S
C1160 C1159 1.394 . S
C1160 C1161 1.516 . S
C1161 C1160 1.516 . S
C1161 C1162 1.502 . S
C1161 C1163 1.561 . S
C1161 C1164 1.526 . S
C1162 H1146 0.959 . S
C1162 H1147 0.959 . S
C1162 H1148 0.961 . S
C1162 C1161 1.502 . S
C1163 H1149 0.960 . S
C1163 H1150 0.961 . S
C1163 H1151 0.959 . S
C1163 C1161 1.561 . S
C1164 C1161 1.526 . S
C1164 C1165 1.396 . S
C1164 C1169 1.390 . S
C1165 C1159 1.465 . S
C1165 C1164 1.396 . S
C1165 C1166 1.399 . S
C1166 H1152 0.929 . S
C1166 C1165 1.399 . S
C1166 C1167 1.385 . S
C1167 H1153 0.931 . S
C1167 C1166 1.385 . S
C1167 C1168 1.389 . S
C1168 C1167 1.389 . S
C1168 C1169 1.387 . S
C1169 H1154 0.930 . S
C1169 C1164 1.390 . S
C1169 C1168 1.387 . S
H1170 C1182 0.930 . S
H1171 C1184 0.930 . S
H1172 C1185 0.930 . S
H1173 C1189 0.959 . S
H1174 C1189 0.959 . S
H1175 C1189 0.961 . S
H1176 C1190 0.960 . S
H1177 C1190 0.961 . S
H1178 C1190 0.959 . S
H1179 C1193 0.929 . S
H1180 C1194 0.931 . S
H1181 C1196 0.930 . S
C1182 H1170 0.930 . S
C1182 C1183 1.399 . S
C1182 C1187 1.399 . S
C1183 C1182 1.399 . S
C1183 C1184 1.376 . S
C1184 H1171 0.930 . S
C1184 C1183 1.376 . S
C1184 C1185 1.388 . S
C1185 H1172 0.930 . S
C1185 C1184 1.388 . S
C1185 C1186 1.390 . S
C1186 C1185 1.390 . S
C1186 C1187 1.394 . S
C1186 C1192 1.465 . S
C1187 C1182 1.399 . S
C1187 C1186 1.394 . S
C1187 C1188 1.516 . S
C1188 C1187 1.516 . S
C1188 C1189 1.502 . S
C1188 C1190 1.561 . S
C1188 C1191 1.526 . S
C1189 H1173 0.959 . S
C1189 H1174 0.959 . S
C1189 H1175 0.961 . S
C1189 C1188 1.502 . S
C1190 H1176 0.960 . S
C1190 H1177 0.961 . S
C1190 H1178 0.959 . S
C1190 C1188 1.561 . S
C1191 C1188 1.526 . S
C1191 C1192 1.396 . S
C1191 C1196 1.390 . S
C1192 C1186 1.465 . S
C1192 C1191 1.396 . S
C1192 C1193 1.399 . S
C1193 H1179 0.929 . S
C1193 C1192 1.399 . S
C1193 C1194 1.385 . S
C1194 H1180 0.931 . S
C1194 C1193 1.385 . S
C1194 C1195 1.389 . S
C1195 C1194 1.389 . S
C1195 C1196 1.387 . S
C1196 H1181 0.930 . S
C1196 C1191 1.390 . S
C1196 C1195 1.387 . S
H1197 C1209 0.930 1_545 S
H1198 C1211 0.930 . S
H1199 C1212 0.930 . S
H1200 C1216 0.959 1_565 S
H1201 C1216 0.959 . S
H1202 C1216 0.961 . S
H1203 C1217 0.960 . S
H1204 C1217 0.961 . S
H1205 C1217 0.959 . S
H1206 C1220 0.929 . S
H1207 C1221 0.931 . S
H1208 C1223 0.930 . S
C1209 H1197 0.930 1_565 S
C1209 C1210 1.399 . S
C1209 C1214 1.397 1_565 S
C1210 C1209 1.399 . S
C1210 C1211 1.376 . S
C1211 H1198 0.930 . S
C1211 C1210 1.376 . S
C1211 C1212 1.388 . S
C1212 H1199 0.930 . S
C1212 C1211 1.388 . S
C1212 C1213 1.390 . S
C1213 C1212 1.390 . S
C1213 C1214 1.388 1_565 S
C1213 C1219 1.465 . S
C1214 C1209 1.397 1_545 S
C1214 C1213 1.388 1_545 S
C1214 C1215 1.523 . S
C1215 C1214 1.523 . S
C1215 C1216 1.502 . S
C1215 C1217 1.561 . S
C1215 C1218 1.526 . S
C1216 H1200 0.959 1_545 S
C1216 H1201 0.959 . S
C1216 H1202 0.961 . S
C1216 C1215 1.502 . S
C1217 H1203 0.960 . S
C1217 H1204 0.961 . S
C1217 H1205 0.959 . S
C1217 C1215 1.561 . S
C1218 C1215 1.526 . S
C1218 C1219 1.396 1_545 S
C1218 C1223 1.390 . S
C1219 C1213 1.465 . S
C1219 C1218 1.396 1_565 S
C1219 C1220 1.399 . S
C1220 H1206 0.929 . S
C1220 C1219 1.399 . S
C1220 C1221 1.385 . S
C1221 H1207 0.931 . S
C1221 C1220 1.385 . S
C1221 C1222 1.389 1_565 S
C1222 C1221 1.389 1_545 S
C1222 C1223 1.387 . S
C1223 H1208 0.930 . S
C1223 C1218 1.390 . S
C1223 C1222 1.387 . S
H1224 C1236 0.930 . S
H1225 C1238 0.930 . S
H1226 C1239 0.930 . S
H1227 C1243 0.959 . S
H1228 C1243 0.959 . S
H1229 C1243 0.961 . S
H1230 C1244 0.960 . S
H1231 C1244 0.961 . S
H1232 C1244 0.959 . S
H1233 C1247 0.929 . S
H1234 C1248 0.931 . S
H1235 C1250 0.930 . S
C1236 H1224 0.930 . S
C1236 C1237 1.399 . S
C1236 C1241 1.399 . S
C1237 C1236 1.399 . S
C1237 C1238 1.376 . S
C1238 H1225 0.930 . S
C1238 C1237 1.376 . S
C1238 C1239 1.388 . S
C1239 H1226 0.930 . S
C1239 C1238 1.388 . S
C1239 C1240 1.390 . S
C1240 C1239 1.390 . S
C1240 C1241 1.394 . S
C1240 C1246 1.465 . S
C1241 C1236 1.399 . S
C1241 C1240 1.394 . S
C1241 C1242 1.516 . S
C1242 C1241 1.516 . S
C1242 C1243 1.502 . S
C1242 C1244 1.561 . S
C1242 C1245 1.526 . S
C1243 H1227 0.959 . S
C1243 H1228 0.959 . S
C1243 H1229 0.961 . S
C1243 C1242 1.502 . S
C1244 H1230 0.960 . S
C1244 H1231 0.961 . S
C1244 H1232 0.959 . S
C1244 C1242 1.561 . S
C1245 C1242 1.526 . S
C1245 C1246 1.396 . S
C1245 C1250 1.390 . S
C1246 C1240 1.465 . S
C1246 C1245 1.396 . S
C1246 C1247 1.399 . S
C1247 H1233 0.929 . S
C1247 C1246 1.399 . S
C1247 C1248 1.385 . S
C1248 H1234 0.931 . S
C1248 C1247 1.385 . S
C1248 C1249 1.389 . S
C1249 C1248 1.389 . S
C1249 C1250 1.387 . S
C1250 H1235 0.930 . S
C1250 C1245 1.390 . S
C1250 C1249 1.387 . S
H1251 C1263 0.930 . S
H1252 C1265 0.930 . S
H1253 C1266 0.930 . S
H1254 C1270 0.959 . S
H1255 C1270 0.959 . S
H1256 C1270 0.961 . S
H1257 C1271 0.960 . S
H1258 C1271 0.961 . S
H1259 C1271 0.959 . S
H1260 C1274 0.929 . S
H1261 C1275 0.931 . S
H1262 C1277 0.930 . S
C1263 H1251 0.930 . S
C1263 C1264 1.399 . S
C1263 C1268 1.399 . S
C1264 C1263 1.399 . S
C1264 C1265 1.376 . S
C1265 H1252 0.930 . S
C1265 C1264 1.376 . S
C1265 C1266 1.388 . S
C1266 H1253 0.930 . S
C1266 C1265 1.388 . S
C1266 C1267 1.390 . S
C1267 C1266 1.390 . S
C1267 C1268 1.394 . S
C1267 C1273 1.465 . S
C1268 C1263 1.399 . S
C1268 C1267 1.394 . S
C1268 C1269 1.516 . S
C1269 C1268 1.516 . S
C1269 C1270 1.502 . S
C1269 C1271 1.561 . S
C1269 C1272 1.526 . S
C1270 H1254 0.959 . S
C1270 H1255 0.959 . S
C1270 H1256 0.961 . S
C1270 C1269 1.502 . S
C1271 H1257 0.960 . S
C1271 H1258 0.961 . S
C1271 H1259 0.959 . S
C1271 C1269 1.561 . S
C1272 C1269 1.526 . S
C1272 C1273 1.396 . S
C1272 C1277 1.390 . S
C1273 C1267 1.465 . S
C1273 C1272 1.396 . S
C1273 C1274 1.399 . S
C1274 H1260 0.929 . S
C1274 C1273 1.399 . S
C1274 C1275 1.385 . S
C1275 H1261 0.931 . S
C1275 C1274 1.385 . S
C1275 C1276 1.389 . S
C1276 C1275 1.389 . S
C1276 C1277 1.387 . S
C1277 H1262 0.930 . S
C1277 C1272 1.390 . S
C1277 C1276 1.387 . S
H1278 C1290 0.930 . S
H1279 C1292 0.930 . S
H1280 C1293 0.930 . S
H1281 C1297 0.959 . S
H1282 C1297 0.959 . S
H1283 C1297 0.961 . S
H1284 C1298 0.960 . S
H1285 C1298 0.961 . S
H1286 C1298 0.959 . S
H1287 C1301 0.929 . S
H1288 C1302 0.931 . S
H1289 C1304 0.930 . S
C1290 H1278 0.930 . S
C1290 C1291 1.399 . S
C1290 C1295 1.399 . S
C1291 C1290 1.399 . S
C1291 C1292 1.376 . S
C1292 H1279 0.930 . S
C1292 C1291 1.376 . S
C1292 C1293 1.388 . S
C1293 H1280 0.930 . S
C1293 C1292 1.388 . S
C1293 C1294 1.390 . S
C1294 C1293 1.390 . S
C1294 C1295 1.394 . S
C1294 C1300 1.465 . S
C1295 C1290 1.399 . S
C1295 C1294 1.394 . S
C1295 C1296 1.516 . S
C1296 C1295 1.516 . S
C1296 C1297 1.502 . S
C1296 C1298 1.561 . S
C1296 C1299 1.526 . S
C1297 H1281 0.959 . S
C1297 H1282 0.959 . S
C1297 H1283 0.961 . S
C1297 C1296 1.502 . S
C1298 H1284 0.960 . S
C1298 H1285 0.961 . S
C1298 H1286 0.959 . S
C1298 C1296 1.561 . S
C1299 C1296 1.526 . S
C1299 C1300 1.396 . S
C1299 C1304 1.390 . S
C1300 C1294 1.465 . S
C1300 C1299 1.396 . S
C1300 C1301 1.399 . S
C1301 H1287 0.929 . S
C1301 C1300 1.399 . S
C1301 C1302 1.385 . S
C1302 H1288 0.931 . S
C1302 C1301 1.385 . S
C1302 C1303 1.389 . S
C1303 C1302 1.389 . S
C1303 C1304 1.387 . S
C1304 H1289 0.930 . S
C1304 C1299 1.390 . S
C1304 C1303 1.387 . S
H1305 C1317 0.930 . S
H1306 C1319 0.930 . S
H1307 C1320 0.930 . S
H1308 C1324 0.959 . S
H1309 C1324 0.959 . S
H1310 C1324 0.961 . S
H1311 C1325 0.960 . S
H1312 C1325 0.961 . S
H1313 C1325 0.959 . S
H1314 C1328 0.929 . S
H1315 C1329 0.931 . S
H1316 C1331 0.930 . S
C1317 H1305 0.930 . S
C1317 C1318 1.399 . S
C1317 C1322 1.399 . S
C1318 C1317 1.399 . S
C1318 C1319 1.376 1_565 S
C1319 H1306 0.930 . S
C1319 C1318 1.376 1_545 S
C1319 C1320 1.388 . S
C1320 H1307 0.930 . S
C1320 C1319 1.388 . S
C1320 C1321 1.390 1_545 S
C1321 C1320 1.390 1_565 S
C1321 C1322 1.394 . S
C1321 C1327 1.469 . S
C1322 C1317 1.399 . S
C1322 C1321 1.394 . S
C1322 C1323 1.516 . S
C1323 C1322 1.516 . S
C1323 C1324 1.502 . S
C1323 C1325 1.561 . S
C1323 C1326 1.526 . S
C1324 H1308 0.959 . S
C1324 H1309 0.959 . S
C1324 H1310 0.961 . S
C1324 C1323 1.502 . S
C1325 H1311 0.960 . S
C1325 H1312 0.961 . S
C1325 H1313 0.959 . S
C1325 C1323 1.561 . S
C1326 C1323 1.526 . S
C1326 C1327 1.430 . S
C1326 C1331 1.390 . S
C1327 C1321 1.469 . S
C1327 C1326 1.430 . S
C1327 C1328 1.369 1_565 S
C1328 H1314 0.929 . S
C1328 C1327 1.369 1_545 S
C1328 C1329 1.385 . S
C1329 H1315 0.931 . S
C1329 C1328 1.385 . S
C1329 C1330 1.389 1_545 S
C1330 C1329 1.389 1_565 S
C1330 C1331 1.387 . S
C1331 H1316 0.930 . S
C1331 C1326 1.390 . S
C1331 C1330 1.387 . S
H1332 C1344 0.930 . S
H1333 C1346 0.930 . S
H1334 C1347 0.930 . S
H1335 C1351 0.959 . S
H1336 C1351 0.959 . S
H1337 C1351 0.961 . S
H1338 C1352 0.960 . S
H1339 C1352 0.961 . S
H1340 C1352 0.959 . S
H1341 C1355 0.929 . S
H1342 C1356 0.931 . S
H1343 C1358 0.930 . S
C1344 H1332 0.930 . S
C1344 C1345 1.399 . S
C1344 C1349 1.399 . S
C1345 C1344 1.399 . S
C1345 C1346 1.376 . S
C1346 H1333 0.930 . S
C1346 C1345 1.376 . S
C1346 C1347 1.388 . S
C1347 H1334 0.930 . S
C1347 C1346 1.388 . S
C1347 C1348 1.390 . S
C1348 C1347 1.390 . S
C1348 C1349 1.394 . S
C1348 C1354 1.465 . S
C1349 C1344 1.399 . S
C1349 C1348 1.394 . S
C1349 C1350 1.516 . S
C1350 C1349 1.516 . S
C1350 C1351 1.502 . S
C1350 C1352 1.561 . S
C1350 C1353 1.526 . S
C1351 H1335 0.959 . S
C1351 H1336 0.959 . S
C1351 H1337 0.961 . S
C1351 C1350 1.502 . S
C1352 H1338 0.960 . S
C1352 H1339 0.961 . S
C1352 H1340 0.959 . S
C1352 C1350 1.561 . S
C1353 C1350 1.526 . S
C1353 C1354 1.396 . S
C1353 C1358 1.390 . S
C1354 C1348 1.465 . S
C1354 C1353 1.396 . S
C1354 C1355 1.399 . S
C1355 H1341 0.929 . S
C1355 C1354 1.399 . S
C1355 C1356 1.385 . S
C1356 H1342 0.931 . S
C1356 C1355 1.385 . S
C1356 C1357 1.389 . S
C1357 C1356 1.389 . S
C1357 C1358 1.387 . S
C1358 H1343 0.930 . S
C1358 C1353 1.390 . S
C1358 C1357 1.387 . S
H1359 C1371 0.930 . S
H1360 C1373 0.930 . S
H1361 C1374 0.930 . S
H1362 C1378 0.959 . S
H1363 C1378 0.959 . S
H1364 C1378 0.961 . S
H1365 C1379 0.960 . S
H1366 C1379 0.961 . S
H1367 C1379 0.959 . S
H1368 C1382 0.929 . S
H1369 C1383 0.931 . S
H1370 C1385 0.930 . S
C1371 H1359 0.930 . S
C1371 C1372 1.399 . S
C1371 C1376 1.399 . S
C1372 C1371 1.399 . S
C1372 C1373 1.376 . S
C1373 H1360 0.930 . S
C1373 C1372 1.376 . S
C1373 C1374 1.388 . S
C1374 H1361 0.930 . S
C1374 C1373 1.388 . S
C1374 C1375 1.390 . S
C1375 C1374 1.390 . S
C1375 C1376 1.394 . S
C1375 C1381 1.465 . S
C1376 C1371 1.399 . S
C1376 C1375 1.394 . S
C1376 C1377 1.516 . S
C1377 C1376 1.516 . S
C1377 C1378 1.502 . S
C1377 C1379 1.561 . S
C1377 C1380 1.526 . S
C1378 H1362 0.959 . S
C1378 H1363 0.959 . S
C1378 H1364 0.961 . S
C1378 C1377 1.502 . S
C1379 H1365 0.960 . S
C1379 H1366 0.961 . S
C1379 H1367 0.959 . S
C1379 C1377 1.561 . S
C1380 C1377 1.526 . S
C1380 C1381 1.396 . S
C1380 C1385 1.390 . S
C1381 C1375 1.465 . S
C1381 C1380 1.396 . S
C1381 C1382 1.399 . S
C1382 H1368 0.929 . S
C1382 C1381 1.399 . S
C1382 C1383 1.385 . S
C1383 H1369 0.931 . S
C1383 C1382 1.385 . S
C1383 C1384 1.389 . S
C1384 C1383 1.389 . S
C1384 C1385 1.387 . S
C1385 H1370 0.930 . S
C1385 C1380 1.390 . S
C1385 C1384 1.387 . S
H1386 C1398 0.930 . S
H1387 C1400 0.930 . S
H1388 C1401 0.930 . S
H1389 C1405 0.959 . S
H1390 C1405 0.959 . S
H1391 C1405 0.961 . S
H1392 C1406 0.960 . S
H1393 C1406 0.961 . S
H1394 C1406 0.959 . S
H1395 C1409 0.929 . S
H1396 C1410 0.931 . S
H1397 C1412 0.930 . S
C1398 H1386 0.930 . S
C1398 C1399 1.399 . S
C1398 C1403 1.399 . S
C1399 C1398 1.399 . S
C1399 C1400 1.376 . S
C1400 H1387 0.930 . S
C1400 C1399 1.376 . S
C1400 C1401 1.388 . S
C1401 H1388 0.930 . S
C1401 C1400 1.388 . S
C1401 C1402 1.390 . S
C1402 C1401 1.390 . S
C1402 C1403 1.394 . S
C1402 C1408 1.465 . S
C1403 C1398 1.399 . S
C1403 C1402 1.394 . S
C1403 C1404 1.516 . S
C1404 C1403 1.516 . S
C1404 C1405 1.502 . S
C1404 C1406 1.561 . S
C1404 C1407 1.526 . S
C1405 H1389 0.959 . S
C1405 H1390 0.959 . S
C1405 H1391 0.961 . S
C1405 C1404 1.502 . S
C1406 H1392 0.960 . S
C1406 H1393 0.961 . S
C1406 H1394 0.959 . S
C1406 C1404 1.561 . S
C1407 C1404 1.526 . S
C1407 C1408 1.396 . S
C1407 C1412 1.390 . S
C1408 C1402 1.465 . S
C1408 C1407 1.396 . S
C1408 C1409 1.399 . S
C1409 H1395 0.929 . S
C1409 C1408 1.399 . S
C1409 C1410 1.385 . S
C1410 H1396 0.931 . S
C1410 C1409 1.385 . S
C1410 C1411 1.389 . S
C1411 C1410 1.389 . S
C1411 C1412 1.387 . S
C1412 H1397 0.930 . S
C1412 C1407 1.390 . S
C1412 C1411 1.387 . S
H1413 C1425 0.930 . S
H1414 C1427 0.930 . S
H1415 C1428 0.930 . S
H1416 C1432 0.959 . S
H1417 C1432 0.959 . S
H1418 C1432 0.961 . S
H1419 C1433 0.960 . S
H1420 C1433 0.961 . S
H1421 C1433 0.959 . S
H1422 C1436 0.929 . S
H1423 C1437 0.931 . S
H1424 C1439 0.930 . S
C1425 H1413 0.930 . S
C1425 C1426 1.399 . S
C1425 C1430 1.399 . S
C1426 C1425 1.399 . S
C1426 C1427 1.376 . S
C1427 H1414 0.930 . S
C1427 C1426 1.376 . S
C1427 C1428 1.388 . S
C1428 H1415 0.930 . S
C1428 C1427 1.388 . S
C1428 C1429 1.390 . S
C1429 C1428 1.390 . S
C1429 C1430 1.394 . S
C1429 C1435 1.465 . S
C1430 C1425 1.399 . S
C1430 C1429 1.394 . S
C1430 C1431 1.516 . S
C1431 C1430 1.516 . S
C1431 C1432 1.502 . S
C1431 C1433 1.561 . S
C1431 C1434 1.526 . S
C1432 H1416 0.959 . S
C1432 H1417 0.959 . S
C1432 H1418 0.961 . S
C1432 C1431 1.502 . S
C1433 H1419 0.960 . S
C1433 H1420 0.961 . S
C1433 H1421 0.959 . S
C1433 C1431 1.561 . S
C1434 C1431 1.526 . S
C1434 C1435 1.396 . S
C1434 C1439 1.390 . S
C1435 C1429 1.465 . S
C1435 C1434 1.396 . S
C1435 C1436 1.399 . S
C1436 H1422 0.929 . S
C1436 C1435 1.399 . S
C1436 C1437 1.385 . S
C1437 H1423 0.931 . S
C1437 C1436 1.385 . S
C1437 C1438 1.389 . S
C1438 C1437 1.389 . S
C1438 C1439 1.387 . S
C1439 H1424 0.930 . S
C1439 C1434 1.390 . S
C1439 C1438 1.387 . S
H1440 C1452 0.930 . S
H1441 C1454 0.930 . S
H1442 C1455 0.930 . S
H1443 C1459 0.959 . S
H1444 C1459 0.959 . S
H1445 C1459 0.961 . S
H1446 C1460 0.960 . S
H1447 C1460 0.961 . S
H1448 C1460 0.959 . S
H1449 C1463 0.929 . S
H1450 C1464 0.931 . S
H1451 C1466 0.930 . S
C1452 H1440 0.930 . S
C1452 C1453 1.399 . S
C1452 C1457 1.399 . S
C1453 C1452 1.399 . S
C1453 C1454 1.376 . S
C1454 H1441 0.930 . S
C1454 C1453 1.376 . S
C1454 C1455 1.388 . S
C1455 H1442 0.930 . S
C1455 C1454 1.388 . S
C1455 C1456 1.390 . S
C1456 C1455 1.390 . S
C1456 C1457 1.394 . S
C1456 C1462 1.465 . S
C1457 C1452 1.399 . S
C1457 C1456 1.394 . S
C1457 C1458 1.516 . S
C1458 C1457 1.516 . S
C1458 C1459 1.502 . S
C1458 C1460 1.561 . S
C1458 C1461 1.526 . S
C1459 H1443 0.959 . S
C1459 H1444 0.959 . S
C1459 H1445 0.961 . S
C1459 C1458 1.502 . S
C1460 H1446 0.960 . S
C1460 H1447 0.961 . S
C1460 H1448 0.959 . S
C1460 C1458 1.561 . S
C1461 C1458 1.526 . S
C1461 C1462 1.396 . S
C1461 C1466 1.390 . S
C1462 C1456 1.465 . S
C1462 C1461 1.396 . S
C1462 C1463 1.399 . S
C1463 H1449 0.929 . S
C1463 C1462 1.399 . S
C1463 C1464 1.385 . S
C1464 H1450 0.931 . S
C1464 C1463 1.385 . S
C1464 C1465 1.389 . S
C1465 C1464 1.389 . S
C1465 C1466 1.387 . S
C1466 H1451 0.930 . S
C1466 C1461 1.390 . S
C1466 C1465 1.387 . S
H1467 C1479 0.930 . S
H1468 C1481 0.930 . S
H1469 C1482 0.930 . S
H1470 C1486 0.959 . S
H1471 C1486 0.959 1_655 S
H1472 C1486 0.961 . S
H1473 C1487 0.960 . S
H1474 C1487 0.961 . S
H1475 C1487 0.959 . S
H1476 C1490 0.929 . S
H1477 C1491 0.931 . S
H1478 C1493 0.930 1_655 S
C1479 H1467 0.930 . S
C1479 C1480 1.399 . S
C1479 C1484 1.399 . S
C1480 C1479 1.399 . S
C1480 C1481 1.376 . S
C1481 H1468 0.930 . S
C1481 C1480 1.376 . S
C1481 C1482 1.388 . S
C1482 H1469 0.930 . S
C1482 C1481 1.388 . S
C1482 C1483 1.390 . S
C1483 C1482 1.390 . S
C1483 C1484 1.394 . S
C1483 C1489 1.465 . S
C1484 C1479 1.399 . S
C1484 C1483 1.394 . S
C1484 C1485 1.540 . S
C1485 C1484 1.540 . S
C1485 C1486 1.510 . S
C1485 C1487 1.514 1_455 S
C1485 C1488 1.543 . S
C1486 H1470 0.959 . S
C1486 H1471 0.959 1_455 S
C1486 H1472 0.961 . S
C1486 C1485 1.510 . S
C1487 H1473 0.960 . S
C1487 H1474 0.961 . S
C1487 H1475 0.959 . S
C1487 C1485 1.514 1_655 S
C1488 C1485 1.543 . S
C1488 C1489 1.396 . S
C1488 C1493 1.390 . S
C1489 C1483 1.465 . S
C1489 C1488 1.396 . S
C1489 C1490 1.399 . S
C1490 H1476 0.929 . S
C1490 C1489 1.399 . S
C1490 C1491 1.385 . S
C1491 H1477 0.931 . S
C1491 C1490 1.385 . S
C1491 C1492 1.389 . S
C1492 C1491 1.389 . S
C1492 C1493 1.387 . S
C1493 H1478 0.930 1_455 S
C1493 C1488 1.390 . S
C1493 C1492 1.387 . S
H1494 C1506 0.930 . S
H1495 C1508 0.930 . S
H1496 C1509 0.930 . S
H1497 C1513 0.959 . S
H1498 C1513 0.959 . S
H1499 C1513 0.961 . S
H1500 C1514 0.960 . S
H1501 C1514 0.961 . S
H1502 C1514 0.959 . S
H1503 C1517 0.929 . S
H1504 C1518 0.931 . S
H1505 C1520 0.930 . S
C1506 H1494 0.930 . S
C1506 C1507 1.399 . S
C1506 C1511 1.399 . S
C1507 C1506 1.399 . S
C1507 C1508 1.376 . S
C1508 H1495 0.930 . S
C1508 C1507 1.376 . S
C1508 C1509 1.388 . S
C1509 H1496 0.930 . S
C1509 C1508 1.388 . S
C1509 C1510 1.390 . S
C1510 C1509 1.390 . S
C1510 C1511 1.394 . S
C1510 C1516 1.465 . S
C1511 C1506 1.399 . S
C1511 C1510 1.394 . S
C1511 C1512 1.516 . S
C1512 C1511 1.516 . S
C1512 C1513 1.502 . S
C1512 C1514 1.561 . S
C1512 C1515 1.526 . S
C1513 H1497 0.959 . S
C1513 H1498 0.959 . S
C1513 H1499 0.961 . S
C1513 C1512 1.502 . S
C1514 H1500 0.960 . S
C1514 H1501 0.961 . S
C1514 H1502 0.959 . S
C1514 C1512 1.561 . S
C1515 C1512 1.526 . S
C1515 C1516 1.396 . S
C1515 C1520 1.390 . S
C1516 C1510 1.465 . S
C1516 C1515 1.396 . S
C1516 C1517 1.399 . S
C1517 H1503 0.929 . S
C1517 C1516 1.399 . S
C1517 C1518 1.385 . S
C1518 H1504 0.931 . S
C1518 C1517 1.385 . S
C1518 C1519 1.389 . S
C1519 C1518 1.389 . S
C1519 C1520 1.387 . S
C1520 H1505 0.930 . S
C1520 C1515 1.390 . S
C1520 C1519 1.387 . S
H1521 C1533 0.930 . S
H1522 C1535 0.930 . S
H1523 C1536 0.930 . S
H1524 C1540 0.959 . S
H1525 C1540 0.959 . S
H1526 C1540 0.961 . S
H1527 C1541 0.960 . S
H1528 C1541 0.961 . S
H1529 C1541 0.959 . S
H1530 C1544 0.929 . S
H1531 C1545 0.931 . S
H1532 C1547 0.930 1_455 S
C1533 H1521 0.930 . S
C1533 C1534 1.399 . S
C1533 C1538 1.399 . S
C1534 C1533 1.399 . S
C1534 C1535 1.376 . S
C1535 H1522 0.930 . S
C1535 C1534 1.376 . S
C1535 C1536 1.388 . S
C1536 H1523 0.930 . S
C1536 C1535 1.388 . S
C1536 C1537 1.390 . S
C1537 C1536 1.390 . S
C1537 C1538 1.394 . S
C1537 C1543 1.465 . S
C1538 C1533 1.399 . S
C1538 C1537 1.394 . S
C1538 C1539 1.516 . S
C1539 C1538 1.516 . S
C1539 C1540 1.502 1_655 S
C1539 C1541 1.561 . S
C1539 C1542 1.526 . S
C1540 H1524 0.959 . S
C1540 H1525 0.959 . S
C1540 H1526 0.961 . S
C1540 C1539 1.502 1_455 S
C1541 H1527 0.960 . S
C1541 H1528 0.961 . S
C1541 H1529 0.959 . S
C1541 C1539 1.561 . S
C1542 C1539 1.526 . S
C1542 C1543 1.396 . S
C1542 C1547 1.390 . S
C1543 C1537 1.465 . S
C1543 C1542 1.396 . S
C1543 C1544 1.399 . S
C1544 H1530 0.929 . S
C1544 C1543 1.399 . S
C1544 C1545 1.385 . S
C1545 H1531 0.931 . S
C1545 C1544 1.385 . S
C1545 C1546 1.389 . S
C1546 C1545 1.389 . S
C1546 C1547 1.387 . S
C1547 H1532 0.930 1_655 S
C1547 C1542 1.390 . S
C1547 C1546 1.387 . S
H1548 C1560 0.930 . S
H1549 C1562 0.930 . S
H1550 C1563 0.930 . S
H1551 C1567 0.959 . S
H1552 C1567 0.959 . S
H1553 C1567 0.961 . S
H1554 C1568 0.960 . S
H1555 C1568 0.961 . S
H1556 C1568 0.959 . S
H1557 C1571 0.929 . S
H1558 C1572 0.931 . S
H1559 C1574 0.930 . S
C1560 H1548 0.930 . S
C1560 C1561 1.399 . S
C1560 C1565 1.399 . S
C1561 C1560 1.399 . S
C1561 C1562 1.376 . S
C1562 H1549 0.930 . S
C1562 C1561 1.376 . S
C1562 C1563 1.388 . S
C1563 H1550 0.930 . S
C1563 C1562 1.388 . S
C1563 C1564 1.390 . S
C1564 C1563 1.390 . S
C1564 C1565 1.394 . S
C1564 C1570 1.465 . S
C1565 C1560 1.399 . S
C1565 C1564 1.394 . S
C1565 C1566 1.516 . S
C1566 C1565 1.516 . S
C1566 C1567 1.502 . S
C1566 C1568 1.561 . S
C1566 C1569 1.526 . S
C1567 H1551 0.959 . S
C1567 H1552 0.959 . S
C1567 H1553 0.961 . S
C1567 C1566 1.502 . S
C1568 H1554 0.960 . S
C1568 H1555 0.961 . S
C1568 H1556 0.959 . S
C1568 C1566 1.561 . S
C1569 C1566 1.526 . S
C1569 C1570 1.396 . S
C1569 C1574 1.390 . S
C1570 C1564 1.465 . S
C1570 C1569 1.396 . S
C1570 C1571 1.399 . S
C1571 H1557 0.929 . S
C1571 C1570 1.399 . S
C1571 C1572 1.385 . S
C1572 H1558 0.931 . S
C1572 C1571 1.385 . S
C1572 C1573 1.389 . S
C1573 C1572 1.389 . S
C1573 C1574 1.387 . S
C1574 H1559 0.930 . S
C1574 C1569 1.390 . S
C1574 C1573 1.387 . S
H1575 C1587 0.930 . S
H1576 C1589 0.930 . S
H1577 C1590 0.930 . S
H1578 C1594 0.959 . S
H1579 C1594 0.959 . S
H1580 C1594 0.961 . S
H1581 C1595 0.960 . S
H1582 C1595 0.961 . S
H1583 C1595 0.959 . S
H1584 C1598 0.929 . S
H1585 C1599 0.931 . S
H1586 C1601 0.930 . S
C1587 H1575 0.930 . S
C1587 C1588 1.399 . S
C1587 C1592 1.399 . S
C1588 C1587 1.399 . S
C1588 C1589 1.376 . S
C1589 H1576 0.930 . S
C1589 C1588 1.376 . S
C1589 C1590 1.388 . S
C1590 H1577 0.930 . S
C1590 C1589 1.388 . S
C1590 C1591 1.390 . S
C1591 C1590 1.390 . S
C1591 C1592 1.394 . S
C1591 C1597 1.465 . S
C1592 C1587 1.399 . S
C1592 C1591 1.394 . S
C1592 C1593 1.516 . S
C1593 C1592 1.516 . S
C1593 C1594 1.502 . S
C1593 C1595 1.561 . S
C1593 C1596 1.526 . S
C1594 H1578 0.959 . S
C1594 H1579 0.959 . S
C1594 H1580 0.961 . S
C1594 C1593 1.502 . S
C1595 H1581 0.960 . S
C1595 H1582 0.961 . S
C1595 H1583 0.959 . S
C1595 C1593 1.561 . S
C1596 C1593 1.526 . S
C1596 C1597 1.396 . S
C1596 C1601 1.390 . S
C1597 C1591 1.465 . S
C1597 C1596 1.396 . S
C1597 C1598 1.399 . S
C1598 H1584 0.929 . S
C1598 C1597 1.399 . S
C1598 C1599 1.385 . S
C1599 H1585 0.931 . S
C1599 C1598 1.385 . S
C1599 C1600 1.389 . S
C1600 C1599 1.389 . S
C1600 C1601 1.387 . S
C1601 H1586 0.930 . S
C1601 C1596 1.390 . S
C1601 C1600 1.387 . S
H1602 C1614 0.930 . S
H1603 C1616 0.930 . S
H1604 C1617 0.930 . S
H1605 C1621 0.959 . S
H1606 C1621 0.959 . S
H1607 C1621 0.961 . S
H1608 C1622 0.960 . S
H1609 C1622 0.961 . S
H1610 C1622 0.959 . S
H1611 C1625 0.929 . S
H1612 C1626 0.931 . S
H1613 C1628 0.930 . S
C1614 H1602 0.930 . S
C1614 C1615 1.399 . S
C1614 C1619 1.399 . S
C1615 C1614 1.399 . S
C1615 C1616 1.376 1_556 S
C1616 H1603 0.930 . S
C1616 C1615 1.376 1_554 S
C1616 C1617 1.388 . S
C1617 H1604 0.930 . S
C1617 C1616 1.388 . S
C1617 C1618 1.420 . S
C1618 C1617 1.420 . S
C1618 C1619 1.347 1_554 S
C1618 C1624 1.474 . S
C1619 C1614 1.399 . S
C1619 C1618 1.347 1_556 S
C1619 C1620 1.516 . S
C1620 C1619 1.516 . S
C1620 C1621 1.502 . S
C1620 C1622 1.561 . S
C1620 C1623 1.526 . S
C1621 H1605 0.959 . S
C1621 H1606 0.959 . S
C1621 H1607 0.961 . S
C1621 C1620 1.502 . S
C1622 H1608 0.960 . S
C1622 H1609 0.961 . S
C1622 H1610 0.959 . S
C1622 C1620 1.561 . S
C1623 C1620 1.526 . S
C1623 C1624 1.396 1_556 S
C1623 C1628 1.390 . S
C1624 C1618 1.474 . S
C1624 C1623 1.396 1_554 S
C1624 C1625 1.399 . S
C1625 H1611 0.929 . S
C1625 C1624 1.399 . S
C1625 C1626 1.385 . S
C1626 H1612 0.931 . S
C1626 C1625 1.385 . S
C1626 C1627 1.389 . S
C1627 C1626 1.389 . S
C1627 C1628 1.387 1_554 S
C1628 H1613 0.930 . S
C1628 C1623 1.390 . S
C1628 C1627 1.387 1_556 S
H1629 C1641 0.930 . S
H1630 C1643 0.930 . S
H1631 C1644 0.930 . S
H1632 C1648 0.959 . S
H1633 C1648 0.959 . S
H1634 C1648 0.961 . S
H1635 C1649 0.960 . S
H1636 C1649 0.961 . S
H1637 C1649 0.959 . S
H1638 C1652 0.929 . S
H1639 C1653 0.931 . S
H1640 C1655 0.930 . S
C1641 H1629 0.930 . S
C1641 C1642 1.399 . S
C1641 C1646 1.399 . S
C1642 C1641 1.399 . S
C1642 C1643 1.376 . S
C1643 H1630 0.930 . S
C1643 C1642 1.376 . S
C1643 C1644 1.388 . S
C1644 H1631 0.930 . S
C1644 C1643 1.388 . S
C1644 C1645 1.390 . S
C1645 C1644 1.390 . S
C1645 C1646 1.394 . S
C1645 C1651 1.465 . S
C1646 C1641 1.399 . S
C1646 C1645 1.394 . S
C1646 C1647 1.516 . S
C1647 C1646 1.516 . S
C1647 C1648 1.502 . S
C1647 C1649 1.561 . S
C1647 C1650 1.526 . S
C1648 H1632 0.959 . S
C1648 H1633 0.959 . S
C1648 H1634 0.961 . S
C1648 C1647 1.502 . S
C1649 H1635 0.960 . S
C1649 H1636 0.961 . S
C1649 H1637 0.959 . S
C1649 C1647 1.561 . S
C1650 C1647 1.526 . S
C1650 C1651 1.396 . S
C1650 C1655 1.390 . S
C1651 C1645 1.465 . S
C1651 C1650 1.396 . S
C1651 C1652 1.399 . S
C1652 H1638 0.929 . S
C1652 C1651 1.399 . S
C1652 C1653 1.385 . S
C1653 H1639 0.931 . S
C1653 C1652 1.385 . S
C1653 C1654 1.389 . S
C1654 C1653 1.389 . S
C1654 C1655 1.387 . S
C1655 H1640 0.930 . S
C1655 C1650 1.390 . S
C1655 C1654 1.387 . S
H1656 C1668 0.930 . S
H1657 C1670 0.930 . S
H1658 C1671 0.930 . S
H1659 C1675 0.959 . S
H1660 C1675 0.959 . S
H1661 C1675 0.961 . S
H1662 C1676 0.960 . S
H1663 C1676 0.961 . S
H1664 C1676 0.959 . S
H1665 C1679 0.929 . S
H1666 C1680 0.931 . S
H1667 C1682 0.930 . S
C1668 H1656 0.930 . S
C1668 C1669 1.399 . S
C1668 C1673 1.399 . S
C1669 C1668 1.399 . S
C1669 C1670 1.376 . S
C1670 H1657 0.930 . S
C1670 C1669 1.376 . S
C1670 C1671 1.388 . S
C1671 H1658 0.930 . S
C1671 C1670 1.388 . S
C1671 C1672 1.390 . S
C1672 C1671 1.390 . S
C1672 C1673 1.394 . S
C1672 C1678 1.465 . S
C1673 C1668 1.399 . S
C1673 C1672 1.394 . S
C1673 C1674 1.516 . S
C1674 C1673 1.516 . S
C1674 C1675 1.502 . S
C1674 C1676 1.561 . S
C1674 C1677 1.526 . S
C1675 H1659 0.959 . S
C1675 H1660 0.959 . S
C1675 H1661 0.961 . S
C1675 C1674 1.502 . S
C1676 H1662 0.960 . S
C1676 H1663 0.961 . S
C1676 H1664 0.959 . S
C1676 C1674 1.561 . S
C1677 C1674 1.526 . S
C1677 C1678 1.396 . S
C1677 C1682 1.390 . S
C1678 C1672 1.465 . S
C1678 C1677 1.396 . S
C1678 C1679 1.399 . S
C1679 H1665 0.929 . S
C1679 C1678 1.399 . S
C1679 C1680 1.385 . S
C1680 H1666 0.931 . S
C1680 C1679 1.385 . S
C1680 C1681 1.389 . S
C1681 C1680 1.389 . S
C1681 C1682 1.387 . S
C1682 H1667 0.930 . S
C1682 C1677 1.390 . S
C1682 C1681 1.387 . S
H1683 C1695 0.930 . S
H1684 C1697 0.930 . S
H1685 C1698 0.930 . S
H1686 C1702 0.959 . S
H1687 C1702 0.959 . S
H1688 C1702 0.961 . S
H1689 C1703 0.960 . S
H1690 C1703 0.961 . S
H1691 C1703 0.959 . S
H1692 C1706 0.929 . S
H1693 C1707 0.931 . S
H1694 C1709 0.930 . S
C1695 H1683 0.930 . S
C1695 C1696 1.399 . S
C1695 C1700 1.399 . S
C1696 C1695 1.399 . S
C1696 C1697 1.376 . S
C1697 H1684 0.930 . S
C1697 C1696 1.376 . S
C1697 C1698 1.388 . S
C1698 H1685 0.930 . S
C1698 C1697 1.388 . S
C1698 C1699 1.390 . S
C1699 C1698 1.390 . S
C1699 C1700 1.394 . S
C1699 C1705 1.465 . S
C1700 C1695 1.399 . S
C1700 C1699 1.394 . S
C1700 C1701 1.516 . S
C1701 C1700 1.516 . S
C1701 C1702 1.502 . S
C1701 C1703 1.561 . S
C1701 C1704 1.526 . S
C1702 H1686 0.959 . S
C1702 H1687 0.959 . S
C1702 H1688 0.961 . S
C1702 C1701 1.502 . S
C1703 H1689 0.960 . S
C1703 H1690 0.961 . S
C1703 H1691 0.959 . S
C1703 C1701 1.561 . S
C1704 C1701 1.526 . S
C1704 C1705 1.396 . S
C1704 C1709 1.390 . S
C1705 C1699 1.465 . S
C1705 C1704 1.396 . S
C1705 C1706 1.399 . S
C1706 H1692 0.929 . S
C1706 C1705 1.399 . S
C1706 C1707 1.385 . S
C1707 H1693 0.931 . S
C1707 C1706 1.385 . S
C1707 C1708 1.389 . S
C1708 C1707 1.389 . S
C1708 C1709 1.387 . S
C1709 H1694 0.930 . S
C1709 C1704 1.390 . S
C1709 C1708 1.387 . S
H1710 C1722 0.930 . S
H1711 C1724 0.930 . S
H1712 C1725 0.930 . S
H1713 C1729 0.959 . S
H1714 C1729 0.959 . S
H1715 C1729 0.961 . S
H1716 C1730 0.960 . S
H1717 C1730 0.961 . S
H1718 C1730 0.959 . S
H1719 C1733 0.929 . S
H1720 C1734 0.931 . S
H1721 C1736 0.930 . S
C1722 H1710 0.930 . S
C1722 C1723 1.399 . S
C1722 C1727 1.399 . S
C1723 C1722 1.399 . S
C1723 C1724 1.376 . S
C1724 H1711 0.930 . S
C1724 C1723 1.376 . S
C1724 C1725 1.388 . S
C1725 H1712 0.930 . S
C1725 C1724 1.388 . S
C1725 C1726 1.390 . S
C1726 C1725 1.390 . S
C1726 C1727 1.394 . S
C1726 C1732 1.465 . S
C1727 C1722 1.399 . S
C1727 C1726 1.394 . S
C1727 C1728 1.516 . S
C1728 C1727 1.516 . S
C1728 C1729 1.502 . S
C1728 C1730 1.561 . S
C1728 C1731 1.526 . S
C1729 H1713 0.959 . S
C1729 H1714 0.959 . S
C1729 H1715 0.961 . S
C1729 C1728 1.502 . S
C1730 H1716 0.960 . S
C1730 H1717 0.961 . S
C1730 H1718 0.959 . S
C1730 C1728 1.561 . S
C1731 C1728 1.526 . S
C1731 C1732 1.396 . S
C1731 C1736 1.390 . S
C1732 C1726 1.465 . S
C1732 C1731 1.396 . S
C1732 C1733 1.399 . S
C1733 H1719 0.929 . S
C1733 C1732 1.399 . S
C1733 C1734 1.385 . S
C1734 H1720 0.931 . S
C1734 C1733 1.385 . S
C1734 C1735 1.389 . S
C1735 C1734 1.389 . S
C1735 C1736 1.387 . S
C1736 H1721 0.930 . S
C1736 C1731 1.390 . S
C1736 C1735 1.387 . S
H1737 C1749 0.930 . S
H1738 C1751 0.930 . S
H1739 C1752 0.930 . S
H1740 C1756 0.959 . S
H1741 C1756 0.959 . S
H1742 C1756 0.961 . S
H1743 C1757 0.960 . S
H1744 C1757 0.961 . S
H1745 C1757 0.959 . S
H1746 C1760 0.929 . S
H1747 C1761 0.931 . S
H1748 C1763 0.930 . S
C1749 H1737 0.930 . S
C1749 C1750 1.399 . S
C1749 C1754 1.399 . S
C1750 C1749 1.399 . S
C1750 C1751 1.376 . S
C1751 H1738 0.930 . S
C1751 C1750 1.376 . S
C1751 C1752 1.388 . S
C1752 H1739 0.930 . S
C1752 C1751 1.388 . S
C1752 C1753 1.390 . S
C1753 C1752 1.390 . S
C1753 C1754 1.394 . S
C1753 C1759 1.465 . S
C1754 C1749 1.399 . S
C1754 C1753 1.394 . S
C1754 C1755 1.516 . S
C1755 C1754 1.516 . S
C1755 C1756 1.502 . S
C1755 C1757 1.561 . S
C1755 C1758 1.526 . S
C1756 H1740 0.959 . S
C1756 H1741 0.959 . S
C1756 H1742 0.961 . S
C1756 C1755 1.502 . S
C1757 H1743 0.960 . S
C1757 H1744 0.961 . S
C1757 H1745 0.959 . S
C1757 C1755 1.561 . S
C1758 C1755 1.526 . S
C1758 C1759 1.396 . S
C1758 C1763 1.390 . S
C1759 C1753 1.465 . S
C1759 C1758 1.396 . S
C1759 C1760 1.399 . S
C1760 H1746 0.929 . S
C1760 C1759 1.399 . S
C1760 C1761 1.385 . S
C1761 H1747 0.931 . S
C1761 C1760 1.385 . S
C1761 C1762 1.389 . S
C1762 C1761 1.389 . S
C1762 C1763 1.387 . S
C1763 H1748 0.930 . S
C1763 C1758 1.390 . S
C1763 C1762 1.387 . S
H1764 C1776 0.930 . S
H1765 C1778 0.930 . S
H1766 C1779 0.930 . S
H1767 C1783 0.959 . S
H1768 C1783 0.959 . S
H1769 C1783 0.961 . S
H1770 C1784 0.960 . S
H1771 C1784 0.961 . S
H1772 C1784 0.959 . S
H1773 C1787 0.929 . S
H1774 C1788 0.931 . S
H1775 C1790 0.930 . S
C1776 H1764 0.930 . S
C1776 C1777 1.399 . S
C1776 C1781 1.399 . S
C1777 C1776 1.399 . S
C1777 C1778 1.376 . S
C1778 H1765 0.930 . S
C1778 C1777 1.376 . S
C1778 C1779 1.388 . S
C1779 H1766 0.930 . S
C1779 C1778 1.388 . S
C1779 C1780 1.390 . S
C1780 C1779 1.390 . S
C1780 C1781 1.394 . S
C1780 C1786 1.465 . S
C1781 C1776 1.399 . S
C1781 C1780 1.394 . S
C1781 C1782 1.516 . S
C1782 C1781 1.516 . S
C1782 C1783 1.502 . S
C1782 C1784 1.561 . S
C1782 C1785 1.526 . S
C1783 H1767 0.959 . S
C1783 H1768 0.959 . S
C1783 H1769 0.961 . S
C1783 C1782 1.502 . S
C1784 H1770 0.960 . S
C1784 H1771 0.961 . S
C1784 H1772 0.959 . S
C1784 C1782 1.561 . S
C1785 C1782 1.526 . S
C1785 C1786 1.396 . S
C1785 C1790 1.390 . S
C1786 C1780 1.465 . S
C1786 C1785 1.396 . S
C1786 C1787 1.399 . S
C1787 H1773 0.929 . S
C1787 C1786 1.399 . S
C1787 C1788 1.385 . S
C1788 H1774 0.931 . S
C1788 C1787 1.385 . S
C1788 C1789 1.389 . S
C1789 C1788 1.389 . S
C1789 C1790 1.387 . S
C1790 H1775 0.930 . S
C1790 C1785 1.390 . S
C1790 C1789 1.387 . S
H1791 C1803 0.930 . S
H1792 C1805 0.930 . S
H1793 C1806 0.930 1_565 S
H1794 C1810 0.959 . S
H1795 C1810 0.959 . S
H1796 C1810 0.961 . S
H1797 C1811 0.960 . S
H1798 C1811 0.961 . S
H1799 C1811 0.959 . S
H1800 C1814 0.929 . S
H1801 C1815 0.931 . S
H1802 C1817 0.930 . S
C1803 H1791 0.930 . S
C1803 C1804 1.399 . S
C1803 C1808 1.399 . S
C1804 C1803 1.399 . S
C1804 C1805 1.376 . S
C1805 H1792 0.930 . S
C1805 C1804 1.376 . S
C1805 C1806 1.388 . S
C1806 H1793 0.930 1_545 S
C1806 C1805 1.388 . S
C1806 C1807 1.390 . S
C1807 C1806 1.390 . S
C1807 C1808 1.394 . S
C1807 C1813 1.465 . S
C1808 C1803 1.399 . S
C1808 C1807 1.394 . S
C1808 C1809 1.516 . S
C1809 C1808 1.516 . S
C1809 C1810 1.502 . S
C1809 C1811 1.561 . S
C1809 C1812 1.526 . S
C1810 H1794 0.959 . S
C1810 H1795 0.959 . S
C1810 H1796 0.961 . S
C1810 C1809 1.502 . S
C1811 H1797 0.960 . S
C1811 H1798 0.961 . S
C1811 H1799 0.959 . S
C1811 C1809 1.561 . S
C1812 C1809 1.526 . S
C1812 C1813 1.396 . S
C1812 C1817 1.390 . S
C1813 C1807 1.465 . S
C1813 C1812 1.396 . S
C1813 C1814 1.399 1_545 S
C1814 H1800 0.929 . S
C1814 C1813 1.399 1_565 S
C1814 C1815 1.385 . S
C1815 H1801 0.931 . S
C1815 C1814 1.385 . S
C1815 C1816 1.389 1_565 S
C1816 C1815 1.389 1_545 S
C1816 C1817 1.387 . S
C1817 H1802 0.930 . S
C1817 C1812 1.390 . S
C1817 C1816 1.387 . S
H1818 C1830 0.930 . S
H1819 C1832 0.930 . S
H1820 C1833 0.930 . S
H1821 C1837 0.959 . S
H1822 C1837 0.959 . S
H1823 C1837 0.961 . S
H1824 C1838 0.960 . S
H1825 C1838 0.961 . S
H1826 C1838 0.959 . S
H1827 C1841 0.929 . S
H1828 C1842 0.931 . S
H1829 C1844 0.930 . S
C1830 H1818 0.930 . S
C1830 C1831 1.399 . S
C1830 C1835 1.399 . S
C1831 C1830 1.399 . S
C1831 C1832 1.376 . S
C1832 H1819 0.930 . S
C1832 C1831 1.376 . S
C1832 C1833 1.388 . S
C1833 H1820 0.930 . S
C1833 C1832 1.388 . S
C1833 C1834 1.390 . S
C1834 C1833 1.390 . S
C1834 C1835 1.394 . S
C1834 C1840 1.465 . S
C1835 C1830 1.399 . S
C1835 C1834 1.394 . S
C1835 C1836 1.516 . S
C1836 C1835 1.516 . S
C1836 C1837 1.502 . S
C1836 C1838 1.561 . S
C1836 C1839 1.526 . S
C1837 H1821 0.959 . S
C1837 H1822 0.959 . S
C1837 H1823 0.961 . S
C1837 C1836 1.502 . S
C1838 H1824 0.960 . S
C1838 H1825 0.961 . S
C1838 H1826 0.959 . S
C1838 C1836 1.561 . S
C1839 C1836 1.526 . S
C1839 C1840 1.396 . S
C1839 C1844 1.390 . S
C1840 C1834 1.465 . S
C1840 C1839 1.396 . S
C1840 C1841 1.399 . S
C1841 H1827 0.929 . S
C1841 C1840 1.399 . S
C1841 C1842 1.385 . S
C1842 H1828 0.931 . S
C1842 C1841 1.385 . S
C1842 C1843 1.389 . S
C1843 C1842 1.389 . S
C1843 C1844 1.387 . S
C1844 H1829 0.930 . S
C1844 C1839 1.390 . S
C1844 C1843 1.387 . S
H1845 C1857 0.930 . S
H1846 C1859 0.930 . S
H1847 C1860 0.930 . S
H1848 C1864 0.959 . S
H1849 C1864 0.959 . S
H1850 C1864 0.961 . S
H1851 C1865 0.960 . S
H1852 C1865 0.961 . S
H1853 C1865 0.959 . S
H1854 C1868 0.929 . S
H1855 C1869 0.931 . S
H1856 C1871 0.930 . S
C1857 H1845 0.930 . S
C1857 C1858 1.399 . S
C1857 C1862 1.399 . S
C1858 C1857 1.399 . S
C1858 C1859 1.376 . S
C1859 H1846 0.930 . S
C1859 C1858 1.376 . S
C1859 C1860 1.388 . S
C1860 H1847 0.930 . S
C1860 C1859 1.388 . S
C1860 C1861 1.390 . S
C1861 C1860 1.390 . S
C1861 C1862 1.394 . S
C1861 C1867 1.465 . S
C1862 C1857 1.399 . S
C1862 C1861 1.394 . S
C1862 C1863 1.516 . S
C1863 C1862 1.516 . S
C1863 C1864 1.502 . S
C1863 C1865 1.561 . S
C1863 C1866 1.526 . S
C1864 H1848 0.959 . S
C1864 H1849 0.959 . S
C1864 H1850 0.961 . S
C1864 C1863 1.502 . S
C1865 H1851 0.960 . S
C1865 H1852 0.961 . S
C1865 H1853 0.959 . S
C1865 C1863 1.561 . S
C1866 C1863 1.526 . S
C1866 C1867 1.396 . S
C1866 C1871 1.390 . S
C1867 C1861 1.465 . S
C1867 C1866 1.396 . S
C1867 C1868 1.399 . S
C1868 H1854 0.929 . S
C1868 C1867 1.399 . S
C1868 C1869 1.385 . S
C1869 H1855 0.931 . S
C1869 C1868 1.385 . S
C1869 C1870 1.389 . S
C1870 C1869 1.389 . S
C1870 C1871 1.387 . S
C1871 H1856 0.930 . S
C1871 C1866 1.390 . S
C1871 C1870 1.387 . S
H1872 C1884 0.930 . S
H1873 C1886 0.930 . S
H1874 C1887 0.930 . S
H1875 C1891 0.959 . S
H1876 C1891 0.959 . S
H1877 C1891 0.961 . S
H1878 C1892 0.960 . S
H1879 C1892 0.961 . S
H1880 C1892 0.959 . S
H1881 C1895 0.929 . S
H1882 C1896 0.931 . S
H1883 C1898 0.930 . S
C1884 H1872 0.930 . S
C1884 C1885 1.399 . S
C1884 C1889 1.399 . S
C1885 C1884 1.399 . S
C1885 C1886 1.376 . S
C1886 H1873 0.930 . S
C1886 C1885 1.376 . S
C1886 C1887 1.388 . S
C1887 H1874 0.930 . S
C1887 C1886 1.388 . S
C1887 C1888 1.390 . S
C1888 C1887 1.390 . S
C1888 C1889 1.394 . S
C1888 C1894 1.465 . S
C1889 C1884 1.399 . S
C1889 C1888 1.394 . S
C1889 C1890 1.516 . S
C1890 C1889 1.516 . S
C1890 C1891 1.502 . S
C1890 C1892 1.561 . S
C1890 C1893 1.526 . S
C1891 H1875 0.959 . S
C1891 H1876 0.959 . S
C1891 H1877 0.961 . S
C1891 C1890 1.502 . S
C1892 H1878 0.960 . S
C1892 H1879 0.961 . S
C1892 H1880 0.959 . S
C1892 C1890 1.561 . S
C1893 C1890 1.526 . S
C1893 C1894 1.396 . S
C1893 C1898 1.390 . S
C1894 C1888 1.465 . S
C1894 C1893 1.396 . S
C1894 C1895 1.399 . S
C1895 H1881 0.929 . S
C1895 C1894 1.399 . S
C1895 C1896 1.385 . S
C1896 H1882 0.931 . S
C1896 C1895 1.385 . S
C1896 C1897 1.389 . S
C1897 C1896 1.389 . S
C1897 C1898 1.387 . S
C1898 H1883 0.930 . S
C1898 C1893 1.390 . S
C1898 C1897 1.387 . S
H1899 C1911 0.930 . S
H1900 C1913 0.930 . S
H1901 C1914 0.930 1_565 S
H1902 C1918 0.959 . S
H1903 C1918 0.959 . S
H1904 C1918 0.961 . S
H1905 C1919 0.960 . S
H1906 C1919 0.961 . S
H1907 C1919 0.959 . S
H1908 C1922 0.969 . S
H1909 C1923 0.901 1_565 S
H1910 C1925 0.930 . S
C1911 H1899 0.930 . S
C1911 C1912 1.399 . S
C1911 C1916 1.399 . S
C1912 C1911 1.399 . S
C1912 C1913 1.376 . S
C1913 H1900 0.930 . S
C1913 C1912 1.376 . S
C1913 C1914 1.388 . S
C1914 H1901 0.930 1_545 S
C1914 C1913 1.388 . S
C1914 C1915 1.390 . S
C1915 C1914 1.390 . S
C1915 C1916 1.394 . S
C1915 C1921 1.465 . S
C1916 C1911 1.399 . S
C1916 C1915 1.394 . S
C1916 C1917 1.516 . S
C1917 C1916 1.516 . S
C1917 C1918 1.502 . S
C1917 C1919 1.561 . S
C1917 C1920 1.526 . S
C1918 H1902 0.959 . S
C1918 H1903 0.959 . S
C1918 H1904 0.961 . S
C1918 C1917 1.502 . S
C1919 H1905 0.960 . S
C1919 H1906 0.961 . S
C1919 H1907 0.959 . S
C1919 C1917 1.561 . S
C1920 C1917 1.526 . S
C1920 C1921 1.396 . S
C1920 C1925 1.390 . S
C1921 C1915 1.465 . S
C1921 C1920 1.396 . S
C1921 C1922 1.362 1_545 S
C1922 H1908 0.969 . S
C1922 C1921 1.362 1_565 S
C1922 C1923 1.382 1_565 S
C1923 H1909 0.901 1_545 S
C1923 C1922 1.382 1_545 S
C1923 C1924 1.422 . S
C1924 C1923 1.422 . S
C1924 C1925 1.387 . S
C1925 H1910 0.930 . S
C1925 C1920 1.390 . S
C1925 C1924 1.387 . S
H1926 C1938 0.930 . S
H1927 C1940 0.930 . S
H1928 C1941 0.930 . S
H1929 C1945 0.959 . S
H1930 C1945 0.959 . S
H1931 C1945 0.961 . S
H1932 C1946 0.960 . S
H1933 C1946 0.961 . S
H1934 C1946 0.959 . S
H1935 C1949 0.929 . S
H1936 C1950 0.931 . S
H1937 C1952 0.930 . S
C1938 H1926 0.930 . S
C1938 C1939 1.399 . S
C1938 C1943 1.399 . S
C1939 C1938 1.399 . S
C1939 C1940 1.376 . S
C1940 H1927 0.930 . S
C1940 C1939 1.376 . S
C1940 C1941 1.388 . S
C1941 H1928 0.930 . S
C1941 C1940 1.388 . S
C1941 C1942 1.390 . S
C1942 C1941 1.390 . S
C1942 C1943 1.394 . S
C1942 C1948 1.465 . S
C1943 C1938 1.399 . S
C1943 C1942 1.394 . S
C1943 C1944 1.516 . S
C1944 C1943 1.516 . S
C1944 C1945 1.502 . S
C1944 C1946 1.561 . S
C1944 C1947 1.526 . S
C1945 H1929 0.959 . S
C1945 H1930 0.959 . S
C1945 H1931 0.961 . S
C1945 C1944 1.502 . S
C1946 H1932 0.960 . S
C1946 H1933 0.961 . S
C1946 H1934 0.959 . S
C1946 C1944 1.561 . S
C1947 C1944 1.526 . S
C1947 C1948 1.396 . S
C1947 C1952 1.390 . S
C1948 C1942 1.465 . S
C1948 C1947 1.396 . S
C1948 C1949 1.399 . S
C1949 H1935 0.929 . S
C1949 C1948 1.399 . S
C1949 C1950 1.385 . S
C1950 H1936 0.931 . S
C1950 C1949 1.385 . S
C1950 C1951 1.389 . S
C1951 C1950 1.389 . S
C1951 C1952 1.387 . S
C1952 H1937 0.930 . S
C1952 C1947 1.390 . S
C1952 C1951 1.387 . S
H1953 C1965 0.930 . S
H1954 C1967 0.930 . S
H1955 C1968 0.930 . S
H1956 C1972 0.959 . S
H1957 C1972 0.959 . S
H1958 C1972 0.961 . S
H1959 C1973 0.960 . S
H1960 C1973 0.961 . S
H1961 C1973 0.959 . S
H1962 C1976 0.929 . S
H1963 C1977 0.931 . S
H1964 C1979 0.930 . S
C1965 H1953 0.930 . S
C1965 C1966 1.399 . S
C1965 C1970 1.399 . S
C1966 C1965 1.399 . S
C1966 C1967 1.376 . S
C1967 H1954 0.930 . S
C1967 C1966 1.376 . S
C1967 C1968 1.388 . S
C1968 H1955 0.930 . S
C1968 C1967 1.388 . S
C1968 C1969 1.390 . S
C1969 C1968 1.390 . S
C1969 C1970 1.394 . S
C1969 C1975 1.465 . S
C1970 C1965 1.399 . S
C1970 C1969 1.394 . S
C1970 C1971 1.516 . S
C1971 C1970 1.516 . S
C1971 C1972 1.502 . S
C1971 C1973 1.561 . S
C1971 C1974 1.526 . S
C1972 H1956 0.959 . S
C1972 H1957 0.959 . S
C1972 H1958 0.961 . S
C1972 C1971 1.502 . S
C1973 H1959 0.960 . S
C1973 H1960 0.961 . S
C1973 H1961 0.959 . S
C1973 C1971 1.561 . S
C1974 C1971 1.526 . S
C1974 C1975 1.396 . S
C1974 C1979 1.390 . S
C1975 C1969 1.465 . S
C1975 C1974 1.396 . S
C1975 C1976 1.399 . S
C1976 H1962 0.929 . S
C1976 C1975 1.399 . S
C1976 C1977 1.385 . S
C1977 H1963 0.931 . S
C1977 C1976 1.385 . S
C1977 C1978 1.389 . S
C1978 C1977 1.389 . S
C1978 C1979 1.387 . S
C1979 H1964 0.930 . S
C1979 C1974 1.390 . S
C1979 C1978 1.387 . S
H1980 C1992 0.930 . S
H1981 C1994 0.930 . S
H1982 C1995 0.930 . S
H1983 C1999 0.959 . S
H1984 C1999 0.959 . S
H1985 C1999 0.961 . S
H1986 C2000 0.960 . S
H1987 C2000 0.961 . S
H1988 C2000 0.959 . S
H1989 C2003 0.929 . S
H1990 C2004 0.931 . S
H1991 C2006 0.930 . S
C1992 H1980 0.930 . S
C1992 C1993 1.399 . S
C1992 C1997 1.399 . S
C1993 C1992 1.399 . S
C1993 C1994 1.376 . S
C1994 H1981 0.930 . S
C1994 C1993 1.376 . S
C1994 C1995 1.388 . S
C1995 H1982 0.930 . S
C1995 C1994 1.388 . S
C1995 C1996 1.390 . S
C1996 C1995 1.390 . S
C1996 C1997 1.394 . S
C1996 C2002 1.465 . S
C1997 C1992 1.399 . S
C1997 C1996 1.394 . S
C1997 C1998 1.516 . S
C1998 C1997 1.516 . S
C1998 C1999 1.502 . S
C1998 C2000 1.561 . S
C1998 C2001 1.526 . S
C1999 H1983 0.959 . S
C1999 H1984 0.959 . S
C1999 H1985 0.961 . S
C1999 C1998 1.502 . S
C2000 H1986 0.960 . S
C2000 H1987 0.961 . S
C2000 H1988 0.959 . S
C2000 C1998 1.561 . S
C2001 C1998 1.526 . S
C2001 C2002 1.396 . S
C2001 C2006 1.390 . S
C2002 C1996 1.465 . S
C2002 C2001 1.396 . S
C2002 C2003 1.399 . S
C2003 H1989 0.929 . S
C2003 C2002 1.399 . S
C2003 C2004 1.385 . S
C2004 H1990 0.931 . S
C2004 C2003 1.385 . S
C2004 C2005 1.389 . S
C2005 C2004 1.389 . S
C2005 C2006 1.387 . S
C2006 H1991 0.930 . S
C2006 C2001 1.390 . S
C2006 C2005 1.387 . S
H2007 C2019 0.930 . S
H2008 C2021 0.930 . S
H2009 C2022 0.930 . S
H2010 C2026 0.959 . S
H2011 C2026 0.959 . S
H2012 C2026 0.961 . S
H2013 C2027 0.960 . S
H2014 C2027 0.961 . S
H2015 C2027 0.959 . S
H2016 C2030 0.929 . S
H2017 C2031 0.931 . S
H2018 C2033 0.930 . S
C2019 H2007 0.930 . S
C2019 C2020 1.399 . S
C2019 C2024 1.399 . S
C2020 C2019 1.399 . S
C2020 C2021 1.376 1_655 S
C2021 H2008 0.930 . S
C2021 C2020 1.376 1_455 S
C2021 C2022 1.388 . S
C2022 H2009 0.930 . S
C2022 C2021 1.388 . S
C2022 C2023 1.390 1_455 S
C2023 C2022 1.390 1_655 S
C2023 C2024 1.394 . S
C2023 C2029 1.470 . S
C2024 C2019 1.399 . S
C2024 C2023 1.394 . S
C2024 C2025 1.516 . S
C2025 C2024 1.516 . S
C2025 C2026 1.502 . S
C2025 C2027 1.561 . S
C2025 C2028 1.526 . S
C2026 H2010 0.959 . S
C2026 H2011 0.959 . S
C2026 H2012 0.961 . S
C2026 C2025 1.502 . S
C2027 H2013 0.960 . S
C2027 H2014 0.961 . S
C2027 H2015 0.959 . S
C2027 C2025 1.561 . S
C2028 C2025 1.526 . S
C2028 C2029 1.418 . S
C2028 C2033 1.390 . S
C2029 C2023 1.470 . S
C2029 C2028 1.418 . S
C2029 C2030 1.377 1_655 S
C2030 H2016 0.929 . S
C2030 C2029 1.377 1_455 S
C2030 C2031 1.385 . S
C2031 H2017 0.931 . S
C2031 C2030 1.385 . S
C2031 C2032 1.389 1_455 S
C2032 C2031 1.389 1_655 S
C2032 C2033 1.387 . S
C2033 H2018 0.930 . S
C2033 C2028 1.390 . S
C2033 C2032 1.387 . S
H2034 C2046 0.930 . S
H2035 C2048 0.930 . S
H2036 C2049 0.930 . S
H2037 C2053 0.959 . S
H2038 C2053 0.959 . S
H2039 C2053 0.961 . S
H2040 C2054 0.960 . S
H2041 C2054 0.961 . S
H2042 C2054 0.959 . S
H2043 C2057 0.929 . S
H2044 C2058 0.931 . S
H2045 C2060 0.930 . S
C2046 H2034 0.930 . S
C2046 C2047 1.399 . S
C2046 C2051 1.399 . S
C2047 C2046 1.399 . S
C2047 C2048 1.376 . S
C2048 H2035 0.930 . S
C2048 C2047 1.376 . S
C2048 C2049 1.388 . S
C2049 H2036 0.930 . S
C2049 C2048 1.388 . S
C2049 C2050 1.390 . S
C2050 C2049 1.390 . S
C2050 C2051 1.394 . S
C2050 C2056 1.465 . S
C2051 C2046 1.399 . S
C2051 C2050 1.394 . S
C2051 C2052 1.516 . S
C2052 C2051 1.516 . S
C2052 C2053 1.502 . S
C2052 C2054 1.561 . S
C2052 C2055 1.526 . S
C2053 H2037 0.959 . S
C2053 H2038 0.959 . S
C2053 H2039 0.961 . S
C2053 C2052 1.502 . S
C2054 H2040 0.960 . S
C2054 H2041 0.961 . S
C2054 H2042 0.959 . S
C2054 C2052 1.561 . S
C2055 C2052 1.526 . S
C2055 C2056 1.396 . S
C2055 C2060 1.390 . S
C2056 C2050 1.465 . S
C2056 C2055 1.396 . S
C2056 C2057 1.399 . S
C2057 H2043 0.929 . S
C2057 C2056 1.399 . S
C2057 C2058 1.385 . S
C2058 H2044 0.931 . S
C2058 C2057 1.385 . S
C2058 C2059 1.389 . S
C2059 C2058 1.389 . S
C2059 C2060 1.387 . S
C2060 H2045 0.930 . S
C2060 C2055 1.390 . S
C2060 C2059 1.387 . S
H2061 C2073 0.930 . S
H2062 C2075 0.930 1_554 S
H2063 C2076 0.948 . S
H2064 C2080 0.959 . S
H2065 C2080 0.959 . S
H2066 C2080 0.961 . S
H2067 C2081 0.960 . S
H2068 C2081 0.961 . S
H2069 C2081 0.959 1_655 S
H2070 C2084 0.929 1_655 S
H2071 C2085 0.931 1_655 S
H2072 C2087 0.930 . S
C2073 H2061 0.930 . S
C2073 C2074 1.399 . S
C2073 C2078 1.399 . S
C2074 C2073 1.399 . S
C2074 C2075 1.376 . S
C2075 H2062 0.930 1_556 S
C2075 C2074 1.376 . S
C2075 C2076 1.388 . S
C2076 H2063 0.948 . S
C2076 C2075 1.388 . S
C2076 C2077 1.390 . S
C2077 C2076 1.390 . S
C2077 C2078 1.394 . S
C2077 C2083 1.465 . S
C2078 C2073 1.399 . S
C2078 C2077 1.394 . S
C2078 C2079 1.516 . S
C2079 C2078 1.516 . S
C2079 C2080 1.502 . S
C2079 C2081 1.561 . S
C2079 C2082 1.526 . S
C2080 H2064 0.959 . S
C2080 H2065 0.959 . S
C2080 H2066 0.961 . S
C2080 C2079 1.502 . S
C2081 H2067 0.960 . S
C2081 H2068 0.961 . S
C2081 H2069 0.959 1_455 S
C2081 C2079 1.561 . S
C2082 C2079 1.526 . S
C2082 C2083 1.396 . S
C2082 C2087 1.390 . S
C2083 C2077 1.465 . S
C2083 C2082 1.396 . S
C2083 C2084 1.399 . S
C2084 H2070 0.929 1_455 S
C2084 C2083 1.399 . S
C2084 C2085 1.385 . S
C2085 H2071 0.931 1_455 S
C2085 C2084 1.385 . S
C2085 C2086 1.389 . S
C2086 C2085 1.389 . S
C2086 C2087 1.387 . S
C2087 H2072 0.930 . S
C2087 C2082 1.390 . S
C2087 C2086 1.387 . S
H2088 C2100 0.930 . S
H2089 C2102 0.930 . S
H2090 C2103 0.930 . S
H2091 C2107 0.959 . S
H2092 C2107 0.959 . S
H2093 C2107 0.961 . S
H2094 C2108 0.960 . S
H2095 C2108 0.961 . S
H2096 C2108 0.959 . S
H2097 C2111 0.929 . S
H2098 C2112 0.931 . S
H2099 C2114 0.930 . S
C2100 H2088 0.930 . S
C2100 C2101 1.399 . S
C2100 C2105 1.399 . S
C2101 C2100 1.399 . S
C2101 C2102 1.376 . S
C2102 H2089 0.930 . S
C2102 C2101 1.376 . S
C2102 C2103 1.388 . S
C2103 H2090 0.930 . S
C2103 C2102 1.388 . S
C2103 C2104 1.390 . S
C2104 C2103 1.390 . S
C2104 C2105 1.394 . S
C2104 C2110 1.465 . S
C2105 C2100 1.399 . S
C2105 C2104 1.394 . S
C2105 C2106 1.516 . S
C2106 C2105 1.516 . S
C2106 C2107 1.502 . S
C2106 C2108 1.561 . S
C2106 C2109 1.526 . S
C2107 H2091 0.959 . S
C2107 H2092 0.959 . S
C2107 H2093 0.961 . S
C2107 C2106 1.502 . S
C2108 H2094 0.960 . S
C2108 H2095 0.961 . S
C2108 H2096 0.959 . S
C2108 C2106 1.561 . S
C2109 C2106 1.526 . S
C2109 C2110 1.396 . S
C2109 C2114 1.390 . S
C2110 C2104 1.465 . S
C2110 C2109 1.396 . S
C2110 C2111 1.399 . S
C2111 H2097 0.929 . S
C2111 C2110 1.399 . S
C2111 C2112 1.385 . S
C2112 H2098 0.931 . S
C2112 C2111 1.385 . S
C2112 C2113 1.389 . S
C2113 C2112 1.389 . S
C2113 C2114 1.387 . S
C2114 H2099 0.930 . S
C2114 C2109 1.390 . S
C2114 C2113 1.387 . S
H2115 C2127 0.930 . S
H2116 C2129 0.930 1_556 S
H2117 C2130 0.930 . S
H2118 C2134 0.959 . S
H2119 C2134 0.959 . S
H2120 C2134 0.961 . S
H2121 C2135 0.960 . S
H2122 C2135 0.961 . S
H2123 C2135 0.959 . S
H2124 C2138 0.929 . S
H2125 C2139 0.931 . S
H2126 C2141 0.930 . S
C2127 H2115 0.930 . S
C2127 C2128 1.399 . S
C2127 C2132 1.399 . S
C2128 C2127 1.399 . S
C2128 C2129 1.376 . S
C2129 H2116 0.930 1_554 S
C2129 C2128 1.376 . S
C2129 C2130 1.388 . S
C2130 H2117 0.930 . S
C2130 C2129 1.388 . S
C2130 C2131 1.390 . S
C2131 C2130 1.390 . S
C2131 C2132 1.394 . S
C2131 C2137 1.465 . S
C2132 C2127 1.399 . S
C2132 C2131 1.394 . S
C2132 C2133 1.516 . S
C2133 C2132 1.516 . S
C2133 C2134 1.502 . S
C2133 C2135 1.561 . S
C2133 C2136 1.526 . S
C2134 H2118 0.959 . S
C2134 H2119 0.959 . S
C2134 H2120 0.961 . S
C2134 C2133 1.502 . S
C2135 H2121 0.960 . S
C2135 H2122 0.961 . S
C2135 H2123 0.959 . S
C2135 C2133 1.561 . S
C2136 C2133 1.526 . S
C2136 C2137 1.396 . S
C2136 C2141 1.390 . S
C2137 C2131 1.465 . S
C2137 C2136 1.396 . S
C2137 C2138 1.399 . S
C2138 H2124 0.929 . S
C2138 C2137 1.399 . S
C2138 C2139 1.385 . S
C2139 H2125 0.931 . S
C2139 C2138 1.385 . S
C2139 C2140 1.389 . S
C2140 C2139 1.389 . S
C2140 C2141 1.387 . S
C2141 H2126 0.930 . S
C2141 C2136 1.390 . S
C2141 C2140 1.387 . S
H2142 C2154 0.930 . S
H2143 C2156 0.930 . S
H2144 C2157 0.930 . S
H2145 C2161 0.959 . S
H2146 C2161 0.959 . S
H2147 C2161 0.961 . S
H2148 C2162 0.960 . S
H2149 C2162 0.961 . S
H2150 C2162 0.959 . S
H2151 C2165 0.929 . S
H2152 C2166 0.931 . S
H2153 C2168 0.930 . S
C2154 H2142 0.930 . S
C2154 C2155 1.399 . S
C2154 C2159 1.399 . S
C2155 C2154 1.399 . S
C2155 C2156 1.376 . S
C2156 H2143 0.930 . S
C2156 C2155 1.376 . S
C2156 C2157 1.388 . S
C2157 H2144 0.930 . S
C2157 C2156 1.388 . S
C2157 C2158 1.390 . S
C2158 C2157 1.390 . S
C2158 C2159 1.394 . S
C2158 C2164 1.465 . S
C2159 C2154 1.399 . S
C2159 C2158 1.394 . S
C2159 C2160 1.516 . S
C2160 C2159 1.516 . S
C2160 C2161 1.502 . S
C2160 C2162 1.561 . S
C2160 C2163 1.526 . S
C2161 H2145 0.959 . S
C2161 H2146 0.959 . S
C2161 H2147 0.961 . S
C2161 C2160 1.502 . S
C2162 H2148 0.960 . S
C2162 H2149 0.961 . S
C2162 H2150 0.959 . S
C2162 C2160 1.561 . S
C2163 C2160 1.526 . S
C2163 C2164 1.396 . S
C2163 C2168 1.390 . S
C2164 C2158 1.465 . S
C2164 C2163 1.396 . S
C2164 C2165 1.399 . S
C2165 H2151 0.929 . S
C2165 C2164 1.399 . S
C2165 C2166 1.385 . S
C2166 H2152 0.931 . S
C2166 C2165 1.385 . S
C2166 C2167 1.389 . S
C2167 C2166 1.389 . S
C2167 C2168 1.387 . S
C2168 H2153 0.930 . S
C2168 C2163 1.390 . S
C2168 C2167 1.387 . S
H2169 C2181 0.930 . S
H2170 C2183 0.930 . S
H2171 C2184 0.930 . S
H2172 C2188 0.959 . S
H2173 C2188 0.959 . S
H2174 C2188 0.961 . S
H2175 C2189 0.960 . S
H2176 C2189 0.961 . S
H2177 C2189 0.959 . S
H2178 C2192 0.929 . S
H2179 C2193 0.931 . S
H2180 C2195 0.930 . S
C2181 H2169 0.930 . S
C2181 C2182 1.399 . S
C2181 C2186 1.399 . S
C2182 C2181 1.399 . S
C2182 C2183 1.376 . S
C2183 H2170 0.930 . S
C2183 C2182 1.376 . S
C2183 C2184 1.388 . S
C2184 H2171 0.930 . S
C2184 C2183 1.388 . S
C2184 C2185 1.390 . S
C2185 C2184 1.390 . S
C2185 C2186 1.394 . S
C2185 C2191 1.465 . S
C2186 C2181 1.399 . S
C2186 C2185 1.394 . S
C2186 C2187 1.516 . S
C2187 C2186 1.516 . S
C2187 C2188 1.502 . S
C2187 C2189 1.561 . S
C2187 C2190 1.526 . S
C2188 H2172 0.959 . S
C2188 H2173 0.959 . S
C2188 H2174 0.961 . S
C2188 C2187 1.502 . S
C2189 H2175 0.960 . S
C2189 H2176 0.961 . S
C2189 H2177 0.959 . S
C2189 C2187 1.561 . S
C2190 C2187 1.526 . S
C2190 C2191 1.396 . S
C2190 C2195 1.390 . S
C2191 C2185 1.465 . S
C2191 C2190 1.396 . S
C2191 C2192 1.399 . S
C2192 H2178 0.929 . S
C2192 C2191 1.399 . S
C2192 C2193 1.385 . S
C2193 H2179 0.931 . S
C2193 C2192 1.385 . S
C2193 C2194 1.389 . S
C2194 C2193 1.389 . S
C2194 C2195 1.387 . S
C2195 H2180 0.930 . S
C2195 C2190 1.390 . S
C2195 C2194 1.387 . S
H2196 C2208 0.930 . S
H2197 C2210 0.930 . S
H2198 C2211 0.930 . S
H2199 C2215 0.959 . S
H2200 C2215 0.959 . S
H2201 C2215 0.961 . S
H2202 C2216 0.960 . S
H2203 C2216 0.961 . S
H2204 C2216 0.959 . S
H2205 C2219 0.929 . S
H2206 C2220 0.931 . S
H2207 C2222 0.930 . S
C2208 H2196 0.930 . S
C2208 C2209 1.399 . S
C2208 C2213 1.399 . S
C2209 C2208 1.399 . S
C2209 C2210 1.376 . S
C2210 H2197 0.930 . S
C2210 C2209 1.376 . S
C2210 C2211 1.388 . S
C2211 H2198 0.930 . S
C2211 C2210 1.388 . S
C2211 C2212 1.390 . S
C2212 C2211 1.390 . S
C2212 C2213 1.394 . S
C2212 C2218 1.465 . S
C2213 C2208 1.399 . S
C2213 C2212 1.394 . S
C2213 C2214 1.516 . S
C2214 C2213 1.516 . S
C2214 C2215 1.502 . S
C2214 C2216 1.561 . S
C2214 C2217 1.526 . S
C2215 H2199 0.959 . S
C2215 H2200 0.959 . S
C2215 H2201 0.961 . S
C2215 C2214 1.502 . S
C2216 H2202 0.960 . S
C2216 H2203 0.961 . S
C2216 H2204 0.959 . S
C2216 C2214 1.561 . S
C2217 C2214 1.526 . S
C2217 C2218 1.396 . S
C2217 C2222 1.390 . S
C2218 C2212 1.465 . S
C2218 C2217 1.396 . S
C2218 C2219 1.399 . S
C2219 H2205 0.929 . S
C2219 C2218 1.399 . S
C2219 C2220 1.385 . S
C2220 H2206 0.931 . S
C2220 C2219 1.385 . S
C2220 C2221 1.389 . S
C2221 C2220 1.389 . S
C2221 C2222 1.387 . S
C2222 H2207 0.930 . S
C2222 C2217 1.390 . S
C2222 C2221 1.387 . S
H2223 C2235 0.930 . S
H2224 C2237 0.930 . S
H2225 C2238 0.930 . S
H2226 C2242 0.959 . S
H2227 C2242 0.959 . S
H2228 C2242 0.961 . S
H2229 C2243 0.960 . S
H2230 C2243 0.961 . S
H2231 C2243 0.959 . S
H2232 C2246 0.929 . S
H2233 C2247 0.931 . S
H2234 C2249 0.930 . S
C2235 H2223 0.930 . S
C2235 C2236 1.399 . S
C2235 C2240 1.399 . S
C2236 C2235 1.399 . S
C2236 C2237 1.376 . S
C2237 H2224 0.930 . S
C2237 C2236 1.376 . S
C2237 C2238 1.388 . S
C2238 H2225 0.930 . S
C2238 C2237 1.388 . S
C2238 C2239 1.390 . S
C2239 C2238 1.390 . S
C2239 C2240 1.394 . S
C2239 C2245 1.465 . S
C2240 C2235 1.399 . S
C2240 C2239 1.394 . S
C2240 C2241 1.516 . S
C2241 C2240 1.516 . S
C2241 C2242 1.502 . S
C2241 C2243 1.561 . S
C2241 C2244 1.526 . S
C2242 H2226 0.959 . S
C2242 H2227 0.959 . S
C2242 H2228 0.961 . S
C2242 C2241 1.502 . S
C2243 H2229 0.960 . S
C2243 H2230 0.961 . S
C2243 H2231 0.959 . S
C2243 C2241 1.561 . S
C2244 C2241 1.526 . S
C2244 C2245 1.396 . S
C2244 C2249 1.390 . S
C2245 C2239 1.465 . S
C2245 C2244 1.396 . S
C2245 C2246 1.399 . S
C2246 H2232 0.929 . S
C2246 C2245 1.399 . S
C2246 C2247 1.385 . S
C2247 H2233 0.931 . S
C2247 C2246 1.385 . S
C2247 C2248 1.389 . S
C2248 C2247 1.389 . S
C2248 C2249 1.387 . S
C2249 H2234 0.930 . S
C2249 C2244 1.390 . S
C2249 C2248 1.387 . S
H2250 C2262 0.930 . S
H2251 C2264 0.930 . S
H2252 C2265 0.930 . S
H2253 C2269 0.959 . S
H2254 C2269 0.959 . S
H2255 C2269 0.961 . S
H2256 C2270 0.960 . S
H2257 C2270 0.961 . S
H2258 C2270 0.959 . S
H2259 C2273 0.929 . S
H2260 C2274 0.931 . S
H2261 C2276 0.930 . S
C2262 H2250 0.930 . S
C2262 C2263 1.399 . S
C2262 C2267 1.399 . S
C2263 C2262 1.399 . S
C2263 C2264 1.376 . S
C2264 H2251 0.930 . S
C2264 C2263 1.376 . S
C2264 C2265 1.388 . S
C2265 H2252 0.930 . S
C2265 C2264 1.388 . S
C2265 C2266 1.390 . S
C2266 C2265 1.390 . S
C2266 C2267 1.394 . S
C2266 C2272 1.465 . S
C2267 C2262 1.399 . S
C2267 C2266 1.394 . S
C2267 C2268 1.516 . S
C2268 C2267 1.516 . S
C2268 C2269 1.502 . S
C2268 C2270 1.561 . S
C2268 C2271 1.526 . S
C2269 H2253 0.959 . S
C2269 H2254 0.959 . S
C2269 H2255 0.961 . S
C2269 C2268 1.502 . S
C2270 H2256 0.960 . S
C2270 H2257 0.961 . S
C2270 H2258 0.959 . S
C2270 C2268 1.561 . S
C2271 C2268 1.526 . S
C2271 C2272 1.396 . S
C2271 C2276 1.390 . S
C2272 C2266 1.465 . S
C2272 C2271 1.396 . S
C2272 C2273 1.399 . S
C2273 H2259 0.929 . S
C2273 C2272 1.399 . S
C2273 C2274 1.385 . S
C2274 H2260 0.931 . S
C2274 C2273 1.385 . S
C2274 C2275 1.389 . S
C2275 C2274 1.389 . S
C2275 C2276 1.387 . S
C2276 H2261 0.930 . S
C2276 C2271 1.390 . S
C2276 C2275 1.387 . S
H2277 C2289 0.930 . S
H2278 C2291 0.930 . S
H2279 C2292 0.930 . S
H2280 C2296 0.959 . S
H2281 C2296 0.959 . S
H2282 C2296 0.961 . S
H2283 C2297 0.960 . S
H2284 C2297 0.961 . S
H2285 C2297 0.959 . S
H2286 C2300 0.929 . S
H2287 C2301 0.931 . S
H2288 C2303 0.930 . S
C2289 H2277 0.930 . S
C2289 C2290 1.399 . S
C2289 C2294 1.399 . S
C2290 C2289 1.399 . S
C2290 C2291 1.376 . S
C2291 H2278 0.930 . S
C2291 C2290 1.376 . S
C2291 C2292 1.388 . S
C2292 H2279 0.930 . S
C2292 C2291 1.388 . S
C2292 C2293 1.390 . S
C2293 C2292 1.390 . S
C2293 C2294 1.394 . S
C2293 C2299 1.465 . S
C2294 C2289 1.399 . S
C2294 C2293 1.394 . S
C2294 C2295 1.516 . S
C2295 C2294 1.516 . S
C2295 C2296 1.502 . S
C2295 C2297 1.561 . S
C2295 C2298 1.526 . S
C2296 H2280 0.959 . S
C2296 H2281 0.959 . S
C2296 H2282 0.961 . S
C2296 C2295 1.502 . S
C2297 H2283 0.960 . S
C2297 H2284 0.961 . S
C2297 H2285 0.959 . S
C2297 C2295 1.561 . S
C2298 C2295 1.526 . S
C2298 C2299 1.396 . S
C2298 C2303 1.390 . S
C2299 C2293 1.465 . S
C2299 C2298 1.396 . S
C2299 C2300 1.399 . S
C2300 H2286 0.929 . S
C2300 C2299 1.399 . S
C2300 C2301 1.385 . S
C2301 H2287 0.931 . S
C2301 C2300 1.385 . S
C2301 C2302 1.389 . S
C2302 C2301 1.389 . S
C2302 C2303 1.387 . S
C2303 H2288 0.930 . S
C2303 C2298 1.390 . S
C2303 C2302 1.387 . S
H2304 C2316 0.930 . S
H2305 C2318 0.930 1_554 S
H2306 C2319 0.930 . S
H2307 C2323 0.959 . S
H2308 C2323 0.959 . S
H2309 C2323 0.961 . S
H2310 C2324 0.960 . S
H2311 C2324 0.961 . S
H2312 C2324 0.959 . S
H2313 C2327 0.929 . S
H2314 C2328 0.931 . S
H2315 C2330 0.930 . S
C2316 H2304 0.930 . S
C2316 C2317 1.399 . S
C2316 C2321 1.399 . S
C2317 C2316 1.399 . S
C2317 C2318 1.376 . S
C2318 H2305 0.930 1_556 S
C2318 C2317 1.376 . S
C2318 C2319 1.388 1_556 S
C2319 H2306 0.930 . S
C2319 C2318 1.388 1_554 S
C2319 C2320 1.390 1_554 S
C2320 C2319 1.390 1_556 S
C2320 C2321 1.394 . S
C2320 C2326 1.465 . S
C2321 C2316 1.399 . S
C2321 C2320 1.394 . S
C2321 C2322 1.516 . S
C2322 C2321 1.516 . S
C2322 C2323 1.502 . S
C2322 C2324 1.561 . S
C2322 C2325 1.526 . S
C2323 H2307 0.959 . S
C2323 H2308 0.959 . S
C2323 H2309 0.961 . S
C2323 C2322 1.502 . S
C2324 H2310 0.960 . S
C2324 H2311 0.961 . S
C2324 H2312 0.959 . S
C2324 C2322 1.561 . S
C2325 C2322 1.526 . S
C2325 C2326 1.396 . S
C2325 C2330 1.390 . S
C2326 C2320 1.465 . S
C2326 C2325 1.396 . S
C2326 C2327 1.399 1_556 S
C2327 H2313 0.929 . S
C2327 C2326 1.399 1_554 S
C2327 C2328 1.385 . S
C2328 H2314 0.931 . S
C2328 C2327 1.385 . S
C2328 C2329 1.389 1_554 S
C2329 C2328 1.389 1_556 S
C2329 C2330 1.387 . S
C2330 H2315 0.930 . S
C2330 C2325 1.390 . S
C2330 C2329 1.387 . S
H2331 C2343 0.930 . S
H2332 C2345 0.930 . S
H2333 C2346 0.930 . S
H2334 C2350 0.959 . S
H2335 C2350 0.959 . S
H2336 C2350 0.961 . S
H2337 C2351 0.960 . S
H2338 C2351 0.961 . S
H2339 C2351 0.959 . S
H2340 C2354 0.929 . S
H2341 C2355 0.931 . S
H2342 C2357 0.930 . S
C2343 H2331 0.930 . S
C2343 C2344 1.399 . S
C2343 C2348 1.399 . S
C2344 C2343 1.399 . S
C2344 C2345 1.376 . S
C2345 H2332 0.930 . S
C2345 C2344 1.376 . S
C2345 C2346 1.388 . S
C2346 H2333 0.930 . S
C2346 C2345 1.388 . S
C2346 C2347 1.390 . S
C2347 C2346 1.390 . S
C2347 C2348 1.394 . S
C2347 C2353 1.465 . S
C2348 C2343 1.399 . S
C2348 C2347 1.394 . S
C2348 C2349 1.516 . S
C2349 C2348 1.516 . S
C2349 C2350 1.502 . S
C2349 C2351 1.561 . S
C2349 C2352 1.526 . S
C2350 H2334 0.959 . S
C2350 H2335 0.959 . S
C2350 H2336 0.961 . S
C2350 C2349 1.502 . S
C2351 H2337 0.960 . S
C2351 H2338 0.961 . S
C2351 H2339 0.959 . S
C2351 C2349 1.561 . S
C2352 C2349 1.526 . S
C2352 C2353 1.396 . S
C2352 C2357 1.390 . S
C2353 C2347 1.465 . S
C2353 C2352 1.396 . S
C2353 C2354 1.399 . S
C2354 H2340 0.929 . S
C2354 C2353 1.399 . S
C2354 C2355 1.385 . S
C2355 H2341 0.931 . S
C2355 C2354 1.385 . S
C2355 C2356 1.389 . S
C2356 C2355 1.389 . S
C2356 C2357 1.387 . S
C2357 H2342 0.930 . S
C2357 C2352 1.390 . S
C2357 C2356 1.387 . S
H2358 C2370 0.930 . S
H2359 C2372 0.930 . S
H2360 C2373 0.930 . S
H2361 C2377 0.959 . S
H2362 C2377 0.959 . S
H2363 C2377 0.961 . S
H2364 C2378 0.960 . S
H2365 C2378 0.961 . S
H2366 C2378 0.959 . S
H2367 C2381 0.929 . S
H2368 C2382 0.931 . S
H2369 C2384 0.930 . S
C2370 H2358 0.930 . S
C2370 C2371 1.399 . S
C2370 C2375 1.399 . S
C2371 C2370 1.399 . S
C2371 C2372 1.376 1_554 S
C2372 H2359 0.930 . S
C2372 C2371 1.376 1_556 S
C2372 C2373 1.388 . S
C2373 H2360 0.930 . S
C2373 C2372 1.388 . S
C2373 C2374 1.390 1_556 S
C2374 C2373 1.390 1_554 S
C2374 C2375 1.394 . S
C2374 C2380 1.465 . S
C2375 C2370 1.399 . S
C2375 C2374 1.394 . S
C2375 C2376 1.516 . S
C2376 C2375 1.516 . S
C2376 C2377 1.502 . S
C2376 C2378 1.561 . S
C2376 C2379 1.526 . S
C2377 H2361 0.959 . S
C2377 H2362 0.959 . S
C2377 H2363 0.961 . S
C2377 C2376 1.502 . S
C2378 H2364 0.960 . S
C2378 H2365 0.961 . S
C2378 H2366 0.959 . S
C2378 C2376 1.561 . S
C2379 C2376 1.526 . S
C2379 C2380 1.396 . S
C2379 C2384 1.390 . S
C2380 C2374 1.465 . S
C2380 C2379 1.396 . S
C2380 C2381 1.399 1_554 S
C2381 H2367 0.929 . S
C2381 C2380 1.399 1_556 S
C2381 C2382 1.385 . S
C2382 H2368 0.931 . S
C2382 C2381 1.385 . S
C2382 C2383 1.389 1_556 S
C2383 C2382 1.389 1_554 S
C2383 C2384 1.387 . S
C2384 H2369 0.930 . S
C2384 C2379 1.390 . S
C2384 C2383 1.387 . S
H2385 C2397 0.930 . S
H2386 C2399 0.930 . S
H2387 C2400 0.930 1_556 S
H2388 C2404 0.959 . S
H2389 C2404 0.959 . S
H2390 C2404 0.961 . S
H2391 C2405 0.960 . S
H2392 C2405 0.961 . S
H2393 C2405 0.959 . S
H2394 C2408 0.924 1_556 S
H2395 C2409 0.931 1_556 S
H2396 C2411 0.930 . S
C2397 H2385 0.930 . S
C2397 C2398 1.399 . S
C2397 C2402 1.399 . S
C2398 C2397 1.399 . S
C2398 C2399 1.376 . S
C2399 H2386 0.930 . S
C2399 C2398 1.376 . S
C2399 C2400 1.388 . S
C2400 H2387 0.930 1_554 S
C2400 C2399 1.388 . S
C2400 C2401 1.390 . S
C2401 C2400 1.390 . S
C2401 C2402 1.394 . S
C2401 C2407 1.465 . S
C2402 C2397 1.399 . S
C2402 C2401 1.394 . S
C2402 C2403 1.516 . S
C2403 C2402 1.516 . S
C2403 C2404 1.502 . S
C2403 C2405 1.561 . S
C2403 C2406 1.526 . S
C2404 H2388 0.959 . S
C2404 H2389 0.959 . S
C2404 H2390 0.961 . S
C2404 C2403 1.502 . S
C2405 H2391 0.960 . S
C2405 H2392 0.961 . S
C2405 H2393 0.959 . S
C2405 C2403 1.561 . S
C2406 C2403 1.526 . S
C2406 C2407 1.396 . S
C2406 C2411 1.390 . S
C2407 C2401 1.465 . S
C2407 C2406 1.396 . S
C2407 C2408 1.404 . S
C2408 H2394 0.924 1_554 S
C2408 C2407 1.404 . S
C2408 C2409 1.386 . S
C2409 H2395 0.931 1_554 S
C2409 C2408 1.386 . S
C2409 C2410 1.389 . S
C2410 C2409 1.389 . S
C2410 C2411 1.387 . S
C2411 H2396 0.930 . S
C2411 C2406 1.390 . S
C2411 C2410 1.387 . S
C1141 C970 1.400 . S
C1129 C331 1.373 . S
C1168 C983 1.604 . S
C1156 C380 1.608 . S
C1183 C421 1.439 . S
C1195 C996 1.453 . S
C1222 C1009 1.514 . S
C1210 C260 1.476 . S
C1249 C1017 1.485 . S
C1237 C620 1.433 . S
C1276 C1030 1.416 . S
C1264 C740 1.405 . S
C1291 C680 1.481 . S
C1303 C1043 1.464 . S
C1330 C1056 1.483 . S
C1318 C571 1.488 . S
C1345 C691 1.404 . S
C1357 C1074 1.423 . S
C1384 C1085 1.519 . S
C1372 C541 1.539 . S
C1399 C601 1.397 . S
C1411 C1069 1.441 . S
C1438 C1077 1.477 . S
C1426 C721 1.476 . S
C1453 C451 1.489 . S
C1465 C1100 1.497 . S
C1480 C241 1.467 . S
C1492 C1090 1.508 . S
C1507 C320 1.491 . S
C1519 C1095 1.447 . S
C1534 C391 1.521 . S
C1546 C1098 1.530 . S
C1561 C211 1.393 . S
C1573 C1007 1.448 . S
C1588 C841 1.421 . S
C1600 C999 1.376 . S
C1627 C968 1.522 . S
C1615 C901 1.550 . S
C1654 C973 1.509 . S
C1642 C500 1.464 . S
C1669 C271 1.523 . S
C1681 C1020 1.509 . S
C1708 C1059 1.473 . S
C1696 C661 1.484 . S
C1735 C1012 1.503 . S
C1723 C560 1.487 . S
C1762 C1038 1.430 . S
C1750 C751 1.429 . S
C1789 C1048 1.417 . S
C1777 C871 1.398 . S
C1804 C920 1.571 . S
C1816 C1061 1.599 . S
C1831 C481 1.449 . S
C1843 C1022 1.455 . S
C1870 C1035 1.500 . S
C1858 C800 1.499 . S
C1885 C200 1.480 . S
C1897 C991 1.425 . S
C1924 C1004 1.403 . S
C1912 C20 1.391 . S
C1951 C965 1.499 . S
C1939 C80 1.517 . S
C1978 C978 1.506 . S
C1966 C151 1.483 . S
C1993 C91 1.402 . S
C2005 C1087 1.436 . S
C2020 C121 1.522 . S
C2032 C1072 1.486 1_655 S
C2047 C181 1.443 . S
C2059 C1082 1.431 . S
C2074 C1 1.431 . S
C2086 C1064 1.459 . S
C2113 C1113 1.472 . S
C2101 C511 1.460 . S
C2140 C1103 1.501 . S
C2128 C781 1.464 . S
C2167 C1108 1.455 . S
C2155 C860 1.505 . S
C2182 C931 1.568 . S
C2194 C1111 1.550 . S
C2209 C631 1.410 . S
C2221 C1033 1.443 . S
C2248 C1025 1.377 . S
C2236 C301 1.422 . S
C2275 C1046 1.523 . S
C2263 C361 1.551 . S
C2302 C1051 1.463 . S
C2290 C440 1.513 . S
C2317 C811 1.520 . S
C2329 C994 1.482 . S
C2356 C981 1.527 . S
C2344 C61 1.523 . S
C2371 C140 1.484 . S
C2383 C986 1.450 . S
C2410 C960 1.412 . S
C2398 C31 1.445 . S
