# Generated by pormake.
# Topology pyr, (3,6)-cn, num edge types: 1
# Building blocks:
#     Node 0, Type 0, BuildingBlock: KAKCAD_clean_linker_0, # of connection points: 3
#     Node 1, Type 0, BuildingBlock: KAKCAD_clean_linker_0, # of connection points: 3
#     Node 2, Type 0, BuildingBlock: KAKCAD_clean_linker_0, # of connection points: 3
#     Node 3, Type 0, BuildingBlock: KAKCAD_clean_linker_0, # of connection points: 3
#     Node 4, Type 0, BuildingBlock: KAKCAD_clean_linker_0, # of connection points: 3
#     Node 5, Type 0, BuildingBlock: KAKCAD_clean_linker_0, # of connection points: 3
#     Node 6, Type 0, BuildingBlock: KAKCAD_clean_linker_0, # of connection points: 3
#     Node 7, Type 0, BuildingBlock: KAKCAD_clean_linker_0, # of connection points: 3
#     Node 8, Type 1, BuildingBlock: BETDAH_clean_sbu_0, # of connection points: 6
#     Node 9, Type 1, BuildingBlock: BETDAH_clean_sbu_0, # of connection points: 6
#     Node 10, Type 1, BuildingBlock: BETDAH_clean_sbu_0, # of connection points: 6
#     Node 11, Type 1, BuildingBlock: BETDAH_clean_sbu_0, # of connection points: 6
#     Edge 12, Type (0, 1), BuildingBlock: ZUJKAS_clean_linker_0, # of connection points: 2
#     Edge 13, Type (0, 1), BuildingBlock: ZUJKAS_clean_linker_0, # of connection points: 2
#     Edge 14, Type (0, 1), BuildingBlock: ZUJKAS_clean_linker_0, # of connection points: 2
#     Edge 15, Type (0, 1), BuildingBlock: ZUJKAS_clean_linker_0, # of connection points: 2
#     Edge 16, Type (0, 1), BuildingBlock: ZUJKAS_clean_linker_0, # of connection points: 2
#     Edge 17, Type (0, 1), BuildingBlock: ZUJKAS_clean_linker_0, # of connection points: 2
#     Edge 18, Type (0, 1), BuildingBlock: ZUJKAS_clean_linker_0, # of connection points: 2
#     Edge 19, Type (0, 1), BuildingBlock: ZUJKAS_clean_linker_0, # of connection points: 2
#     Edge 20, Type (0, 1), BuildingBlock: ZUJKAS_clean_linker_0, # of connection points: 2
#     Edge 21, Type (0, 1), BuildingBlock: ZUJKAS_clean_linker_0, # of connection points: 2
#     Edge 22, Type (0, 1), BuildingBlock: ZUJKAS_clean_linker_0, # of connection points: 2
#     Edge 23, Type (0, 1), BuildingBlock: ZUJKAS_clean_linker_0, # of connection points: 2
#     Edge 24, Type (0, 1), BuildingBlock: ZUJKAS_clean_linker_0, # of connection points: 2
#     Edge 25, Type (0, 1), BuildingBlock: ZUJKAS_clean_linker_0, # of connection points: 2
#     Edge 26, Type (0, 1), BuildingBlock: ZUJKAS_clean_linker_0, # of connection points: 2
#     Edge 27, Type (0, 1), BuildingBlock: ZUJKAS_clean_linker_0, # of connection points: 2
#     Edge 28, Type (0, 1), BuildingBlock: ZUJKAS_clean_linker_0, # of connection points: 2
#     Edge 29, Type (0, 1), BuildingBlock: ZUJKAS_clean_linker_0, # of connection points: 2
#     Edge 30, Type (0, 1), BuildingBlock: ZUJKAS_clean_linker_0, # of connection points: 2
#     Edge 31, Type (0, 1), BuildingBlock: ZUJKAS_clean_linker_0, # of connection points: 2
#     Edge 32, Type (0, 1), BuildingBlock: ZUJKAS_clean_linker_0, # of connection points: 2
#     Edge 33, Type (0, 1), BuildingBlock: ZUJKAS_clean_linker_0, # of connection points: 2
#     Edge 34, Type (0, 1), BuildingBlock: ZUJKAS_clean_linker_0, # of connection points: 2
#     Edge 35, Type (0, 1), BuildingBlock: ZUJKAS_clean_linker_0, # of connection points: 2
# Relax obj value: 0.071
# Max RMSD: 0.118
# Mean RMSD: 0.054
data_MOF--net-pyr--node1-BETDAH_clean_sbu_0--node2-KAKCAD_clean_linker_0--edge1-ZUJKAS_clean_linker_0
_symmetry_space_group_name_H-M    P1
_symmetry_Int_Tables_number       1
_symmetry_cell_setting            triclinic
loop_
_symmetry_equiv_pos_as_xyz
'x, y, z'
_cell_length_a     59.43586
_cell_length_b     59.37289
_cell_length_c     53.457579
_cell_angle_alpha  90.944202
_cell_angle_beta   88.316197
_cell_angle_gamma 99.147688
loop_
_atom_site_label
_atom_site_type_symbol
_atom_site_fract_x
_atom_site_fract_y
_atom_site_fract_z
_atom_type_partial_charge
C0 C 0.24604 0.2696 0.30284 0.0
C1 C 0.25779 0.25951 0.32089 0.0
C2 C 0.25743 0.27939 0.2816 0.0
C3 C 0.28099 0.2796 0.27789 0.0
C4 C 0.29295 0.27012 0.29635 0.0
C5 C 0.28142 0.26006 0.3176 0.0
C6 C 0.29228 0.28808 0.25386 0.0
C7 C 0.28507 0.30631 0.24167 0.0
C8 C 0.2918 0.31156 0.21676 0.0
C9 C 0.30756 0.29946 0.20463 0.0
C10 C 0.31599 0.28195 0.21705 0.0
C11 C 0.30816 0.27631 0.24157 0.0
C12 C 0.3314 0.26803 0.20395 0.0
C13 C 0.32629 0.25878 0.18005 0.0
C14 C 0.35042 0.26251 0.21607 0.0
C15 C 0.36369 0.24753 0.20485 0.0
C16 C 0.35811 0.23755 0.18133 0.0
C17 C 0.28059 0.32818 0.20308 0.0
C18 C 0.25713 0.32842 0.20707 0.0
C19 C 0.29279 0.34365 0.18599 0.0
C20 C 0.28178 0.35926 0.17357 0.0
C21 C 0.25845 0.35975 0.17821 0.0
C22 C 0.24626 0.34406 0.19494 0.0
C23 C 0.33946 0.24364 0.16889 0.0
H24 H 0.22774 0.26898 0.30449 0.0
H25 H 0.24745 0.28588 0.26756 0.0
H26 H 0.31113 0.27017 0.29421 0.0
H27 H 0.29091 0.25244 0.33128 0.0
H28 H 0.27342 0.31599 0.25136 0.0
H29 H 0.31339 0.26176 0.25043 0.0
H30 H 0.31275 0.30314 0.18533 0.0
H31 H 0.31155 0.2625 0.17043 0.0
H32 H 0.35486 0.26959 0.23441 0.0
H33 H 0.37821 0.24363 0.21473 0.0
H34 H 0.24698 0.31629 0.21944 0.0
H35 H 0.31087 0.34392 0.18251 0.0
H36 H 0.33448 0.23608 0.15092 0.0
H37 H 0.22814 0.34365 0.19838 0.0
H38 H 0.29153 0.37117 0.16068 0.0
C39 C 0.31795 0.88293 0.69971 0.0
C40 C 0.34105 0.89234 0.69645 0.0
C41 C 0.30506 0.87456 0.67925 0.0
C42 C 0.31496 0.87542 0.65503 0.0
C43 C 0.33829 0.88399 0.65183 0.0
C44 C 0.35124 0.89239 0.67239 0.0
C45 C 0.30059 0.86832 0.63321 0.0
C46 C 0.2791 0.87507 0.63186 0.0
C47 C 0.26489 0.86821 0.61173 0.0
C48 C 0.27258 0.85466 0.59253 0.0
C49 C 0.29418 0.84797 0.59336 0.0
C50 C 0.30809 0.85488 0.61384 0.0
C51 C 0.30195 0.83319 0.57328 0.0
C52 C 0.28681 0.81485 0.56331 0.0
C53 C 0.32476 0.83681 0.56457 0.0
C54 C 0.33251 0.82178 0.54722 0.0
C55 C 0.31761 0.80284 0.53809 0.0
C56 C 0.24225 0.87566 0.61064 0.0
C57 C 0.2288 0.877 0.63257 0.0
C58 C 0.2343 0.8823 0.58782 0.0
C59 C 0.21363 0.89053 0.58705 0.0
C60 C 0.20062 0.89254 0.60908 0.0
C61 C 0.20826 0.88554 0.63182 0.0
C62 C 0.29454 0.7999 0.54585 0.0
H63 H 0.30976 0.8822 0.71812 0.0
H64 H 0.28724 0.86759 0.68236 0.0
H65 H 0.34633 0.88496 0.63335 0.0
H66 H 0.36899 0.89964 0.66932 0.0
H67 H 0.27365 0.88619 0.64632 0.0
H68 H 0.32448 0.84922 0.61511 0.0
H69 H 0.26174 0.8493 0.57689 0.0
H70 H 0.26915 0.81149 0.5697 0.0
H71 H 0.33675 0.85102 0.57155 0.0
H72 H 0.35045 0.82443 0.54189 0.0
H73 H 0.2342 0.8716 0.65038 0.0
H74 H 0.24436 0.88185 0.57066 0.0
H75 H 0.28257 0.78561 0.53897 0.0
H76 H 0.19841 0.88678 0.64902 0.0
H77 H 0.20824 0.89615 0.56932 0.0
C78 C 0.72922 0.42873 0.89663 0.0
C79 C 0.74514 0.41606 0.90617 0.0
C80 C 0.70882 0.41781 0.88628 0.0
C81 C 0.7037 0.39382 0.88487 0.0
C82 C 0.71975 0.38117 0.89414 0.0
C83 C 0.74 0.39208 0.90473 0.0
C84 C 0.6817 0.38204 0.87411 0.0
C85 C 0.67163 0.39158 0.85404 0.0
C86 C 0.65089 0.38077 0.84399 0.0
C87 C 0.64029 0.35985 0.85428 0.0
C88 C 0.65007 0.34978 0.87414 0.0
C89 C 0.67062 0.36113 0.88394 0.0
C90 C 0.63894 0.32739 0.88479 0.0
C91 C 0.61527 0.32285 0.88979 0.0
C92 C 0.65203 0.31041 0.89037 0.0
C93 C 0.64181 0.28956 0.90068 0.0
C94 C 0.61819 0.28511 0.90597 0.0
C95 C 0.64043 0.39131 0.82267 0.0
C96 C 0.64095 0.41509 0.82167 0.0
C97 C 0.62991 0.37777 0.80307 0.0
C98 C 0.62031 0.38769 0.78311 0.0
C99 C 0.62087 0.41148 0.78208 0.0
C100 C 0.63133 0.425 0.80173 0.0
C101 C 0.60507 0.30207 0.90037 0.0
H102 H 0.73251 0.44719 0.89693 0.0
H103 H 0.69693 0.42828 0.8797 0.0
H104 H 0.7168 0.36272 0.89312 0.0
H105 H 0.75149 0.38155 0.9121 0.0
H106 H 0.68027 0.40721 0.84572 0.0
H107 H 0.67769 0.35384 0.89979 0.0
H108 H 0.62438 0.35132 0.8468 0.0
H109 H 0.60466 0.33555 0.88592 0.0
H110 H 0.67026 0.31318 0.88659 0.0
H111 H 0.65251 0.27703 0.90489 0.0
H112 H 0.64852 0.4261 0.83654 0.0
H113 H 0.62945 0.35947 0.80288 0.0
H114 H 0.58681 0.29921 0.90396 0.0
H115 H 0.6318 0.4433 0.80197 0.0
H116 H 0.61277 0.37667 0.76823 0.0
C117 C 0.8515 0.65419 0.28183 0.0
C118 C 0.87529 0.65539 0.27943 0.0
C119 C 0.84163 0.66451 0.3022 0.0
C120 C 0.85527 0.67628 0.32084 0.0
C121 C 0.87909 0.6776 0.31835 0.0
C122 C 0.88896 0.66733 0.29792 0.0
C123 C 0.84469 0.68687 0.34289 0.0
C124 C 0.82439 0.67566 0.3543 0.0
C125 C 0.81434 0.6853 0.37518 0.0
C126 C 0.82491 0.70643 0.38474 0.0
C127 C 0.84509 0.71814 0.37359 0.0
C128 C 0.85482 0.70815 0.35267 0.0
C129 C 0.85581 0.74082 0.38378 0.0
C130 C 0.84222 0.75674 0.39281 0.0
C131 C 0.87967 0.74668 0.38489 0.0
C132 C 0.88962 0.76776 0.39492 0.0
C133 C 0.87597 0.78347 0.40427 0.0
C134 C 0.7927 0.67341 0.38694 0.0
C135 C 0.77453 0.66348 0.37207 0.0
C136 C 0.78986 0.67229 0.41314 0.0
C137 C 0.76933 0.66167 0.42418 0.0
C138 C 0.75104 0.65201 0.40931 0.0
C139 C 0.75393 0.65298 0.38311 0.0
C140 C 0.85216 0.77771 0.403 0.0
H141 H 0.84045 0.64547 0.26775 0.0
H142 H 0.82327 0.66347 0.30319 0.0
H143 H 0.89015 0.68619 0.33249 0.0
H144 H 0.90732 0.66835 0.29688 0.0
H145 H 0.81665 0.65908 0.34732 0.0
H146 H 0.87002 0.71725 0.34355 0.0
H147 H 0.81728 0.71383 0.40091 0.0
H148 H 0.82383 0.75311 0.3918 0.0
H149 H 0.89071 0.73479 0.37846 0.0
H150 H 0.90801 0.77155 0.39586 0.0
H151 H 0.77607 0.66418 0.35185 0.0
H152 H 0.80358 0.67957 0.42515 0.0
H153 H 0.84115 0.78956 0.40963 0.0
H154 H 0.74029 0.64553 0.37111 0.0
H155 H 0.76764 0.66141 0.4444 0.0
C156 C 0.74371 0.7874 0.75912 0.0
C157 C 0.74946 0.81059 0.75325 0.0
C158 C 0.72991 0.78068 0.78021 0.0
C159 C 0.72202 0.79708 0.79611 0.0
C160 C 0.72744 0.82025 0.78972 0.0
C161 C 0.74082 0.82688 0.76846 0.0
C162 C 0.70978 0.79047 0.82028 0.0
C163 C 0.71617 0.77313 0.83479 0.0
C164 C 0.70694 0.76875 0.85908 0.0
C165 C 0.69114 0.78207 0.86894 0.0
C166 C 0.68471 0.7996 0.85477 0.0
C167 C 0.69353 0.80315 0.83026 0.0
C168 C 0.67081 0.81589 0.86629 0.0
C169 C 0.6509 0.80829 0.88057 0.0
C170 C 0.67792 0.83946 0.86341 0.0
C171 C 0.66546 0.85512 0.87454 0.0
C172 C 0.64552 0.84761 0.88876 0.0
C173 C 0.71595 0.75201 0.87483 0.0
C174 C 0.72021 0.7311 0.86454 0.0
C175 C 0.72243 0.75776 0.89948 0.0
C176 C 0.73402 0.7435 0.91304 0.0
C177 C 0.73939 0.72318 0.90224 0.0
C178 C 0.73179 0.71683 0.8781 0.0
C179 C 0.63826 0.82403 0.89157 0.0
H180 H 0.75013 0.77453 0.74758 0.0
H181 H 0.7258 0.76267 0.78429 0.0
H182 H 0.72228 0.83349 0.8017 0.0
H183 H 0.74536 0.84492 0.76461 0.0
H184 H 0.7295 0.76398 0.82788 0.0
H185 H 0.68817 0.81639 0.81922 0.0
H186 H 0.68459 0.77943 0.88798 0.0
H187 H 0.64505 0.79022 0.88306 0.0
H188 H 0.69338 0.84584 0.85282 0.0
H189 H 0.67135 0.87316 0.87184 0.0
H190 H 0.71521 0.72612 0.84567 0.0
H191 H 0.71958 0.77382 0.90789 0.0
H192 H 0.62302 0.81779 0.90257 0.0
H193 H 0.73575 0.70138 0.86918 0.0
H194 H 0.73937 0.7487 0.93174 0.0
C195 C 0.65243 0.15367 0.40778 0.0
C196 C 0.64365 0.16951 0.39315 0.0
C197 C 0.66603 0.16102 0.42809 0.0
C198 C 0.67097 0.18432 0.43429 0.0
C199 C 0.66135 0.20008 0.42038 0.0
C200 C 0.64789 0.19275 0.3999 0.0
C201 C 0.68746 0.19227 0.45399 0.0
C202 C 0.70844 0.18432 0.45396 0.0
C203 C 0.72482 0.1924 0.47167 0.0
C204 C 0.71998 0.20847 0.48976 0.0
C205 C 0.699 0.21651 0.49017 0.0
C206 C 0.68284 0.20839 0.47211 0.0
C207 C 0.69417 0.23389 0.50892 0.0
C208 C 0.67256 0.2322 0.52075 0.0
C209 C 0.71076 0.25288 0.51422 0.0
C210 C 0.70546 0.27038 0.53 0.0
C211 C 0.68348 0.26922 0.54082 0.0
C212 C 0.74703 0.18411 0.47104 0.0
C213 C 0.74792 0.16078 0.46754 0.0
C214 C 0.76745 0.19944 0.47361 0.0
C215 C 0.78838 0.19153 0.47279 0.0
C216 C 0.78921 0.16815 0.46956 0.0
C217 C 0.76879 0.15288 0.46683 0.0
C218 C 0.66727 0.24966 0.53655 0.0
H219 H 0.64961 0.13568 0.40289 0.0
H220 H 0.67311 0.14851 0.43865 0.0
H221 H 0.66501 0.21816 0.4247 0.0
H222 H 0.64119 0.20529 0.38903 0.0
H223 H 0.71235 0.17237 0.43953 0.0
H224 H 0.66675 0.21479 0.47194 0.0
H225 H 0.73242 0.21443 0.5038 0.0
H226 H 0.65955 0.21759 0.51733 0.0
H227 H 0.72755 0.25469 0.50531 0.0
H228 H 0.71833 0.28518 0.53308 0.0
H229 H 0.73243 0.14857 0.46566 0.0
H230 H 0.76726 0.21756 0.47605 0.0
H231 H 0.6501 0.24835 0.54435 0.0
H232 H 0.76895 0.13478 0.4641 0.0
H233 H 0.80386 0.20364 0.47515 0.0
C234 C 0.25851 0.65951 0.19675 0.0
C235 C 0.25471 0.66172 0.1711 0.0
C236 C 0.27877 0.67032 0.2075 0.0
C237 C 0.29597 0.68351 0.19287 0.0
C238 C 0.29223 0.68537 0.1671 0.0
C239 C 0.27189 0.67477 0.15645 0.0
C240 C 0.31757 0.69546 0.20433 0.0
C241 C 0.32776 0.68553 0.22402 0.0
C242 C 0.34803 0.69664 0.23484 0.0
C243 C 0.35829 0.71799 0.22529 0.0
C244 C 0.34858 0.72831 0.20553 0.0
C245 C 0.32812 0.71694 0.1955 0.0
C246 C 0.3597 0.75094 0.19524 0.0
C247 C 0.37042 0.76842 0.21101 0.0
C248 C 0.3595 0.75534 0.16942 0.0
C249 C 0.36944 0.77655 0.15974 0.0
C250 C 0.38003 0.79405 0.17551 0.0
C251 C 0.35848 0.68589 0.25602 0.0
C252 C 0.3447 0.6739 0.27492 0.0
C253 C 0.38231 0.68754 0.25766 0.0
C254 C 0.39202 0.67758 0.27751 0.0
C255 C 0.37824 0.66558 0.29638 0.0
C256 C 0.35441 0.6639 0.29473 0.0
C257 C 0.38048 0.78961 0.20129 0.0
H258 H 0.24557 0.6498 0.20869 0.0
H259 H 0.2807 0.66868 0.22743 0.0
H260 H 0.30514 0.69486 0.15497 0.0
H261 H 0.26977 0.67655 0.13656 0.0
H262 H 0.32022 0.66878 0.23055 0.0
H263 H 0.32004 0.72516 0.18107 0.0
H264 H 0.37391 0.72662 0.23328 0.0
H265 H 0.37069 0.76593 0.23101 0.0
H266 H 0.35188 0.74227 0.15652 0.0
H267 H 0.36908 0.7791 0.13975 0.0
H268 H 0.32633 0.67253 0.27466 0.0
H269 H 0.39356 0.69624 0.24334 0.0
H270 H 0.38821 0.80272 0.2141 0.0
H271 H 0.34318 0.65515 0.30903 0.0
H272 H 0.4104 0.67897 0.2778 0.0
C273 C 0.14739 0.29714 0.67716 0.0
C274 C 0.12372 0.29241 0.67369 0.0
C275 C 0.15751 0.31816 0.68709 0.0
C276 C 0.14427 0.33505 0.69388 0.0
C277 C 0.12056 0.33025 0.69072 0.0
C278 C 0.11043 0.30922 0.68074 0.0
C279 C 0.15524 0.35768 0.70382 0.0
C280 C 0.17594 0.36863 0.69314 0.0
C281 C 0.18664 0.3899 0.70227 0.0
C282 C 0.17622 0.4003 0.72238 0.0
C283 C 0.15549 0.3897 0.73345 0.0
C284 C 0.14515 0.36839 0.72395 0.0
C285 C 0.14479 0.40082 0.75504 0.0
C286 C 0.15828 0.41237 0.77392 0.0
C287 C 0.12101 0.40008 0.75693 0.0
C288 C 0.11104 0.4107 0.77705 0.0
C289 C 0.12457 0.4224 0.79579 0.0
C290 C 0.2087 0.40116 0.69075 0.0
C291 C 0.22583 0.38827 0.68373 0.0
C292 C 0.21278 0.42481 0.68651 0.0
C293 C 0.23339 0.43524 0.67541 0.0
C294 C 0.25048 0.42231 0.6683 0.0
C295 C 0.24641 0.39869 0.67266 0.0
C296 C 0.14832 0.42304 0.79397 0.0
H297 H 0.15814 0.28449 0.67243 0.0
H298 H 0.17576 0.32109 0.68967 0.0
H299 H 0.10987 0.34295 0.69545 0.0
H300 H 0.09221 0.30634 0.67804 0.0
H301 H 0.1835 0.36081 0.6772 0.0
H302 H 0.12952 0.35979 0.7327 0.0
H303 H 0.18432 0.41669 0.72948 0.0
H304 H 0.17659 0.41294 0.7734 0.0
H305 H 0.11008 0.39165 0.7426 0.0
H306 H 0.09272 0.41012 0.77765 0.0
H307 H 0.2234 0.37007 0.68694 0.0
H308 H 0.19992 0.43526 0.69145 0.0
H309 H 0.15925 0.43156 0.80826 0.0
H310 H 0.25903 0.38812 0.66719 0.0
H311 H 0.23598 0.4535 0.67258 0.0
Ho312 Ho 0.01067 0.04704 0.51266 0.0
Ho313 Ho 0.9882 1.03126 0.56317 0.0
C314 C 0.02147 0.07875 0.56128 0.0
C315 C 0.02307 0.06221 0.46873 0.0
C316 C 0.04324 0.07749 0.4591 0.0
C317 C 0.04086 0.09302 0.44029 0.0
C318 C 0.05969 0.1085 0.43195 0.0
C319 C 0.08121 0.10859 0.44226 0.0
C320 C 0.08356 0.09286 0.46097 0.0
C321 C 0.06471 0.07753 0.46944 0.0
C322 C 0.03745 1.02909 0.54413 0.0
C323 C 0.97638 0.99885 0.51413 0.0
C324 C 0.97235 1.00971 0.60312 0.0
C325 C 0.95886 0.98724 0.60836 0.0
C326 C 0.96032 0.977 0.63154 0.0
C327 C 0.94548 0.95703 0.63779 0.0
C328 C 0.92896 0.94705 0.62088 0.0
C329 C 0.9284 0.95677 0.59715 0.0
C330 C 0.94313 0.97673 0.59102 0.0
C331 C 0.96882 0.06218 0.53868 0.0
O332 O 0.01792 0.07858 0.53692 0.0
O333 O 0.0149 0.06041 0.57508 0.0
O334 O 0.02661 0.04231 0.47661 0.0
O335 O 0.00948 0.07184 0.48375 0.0
O336 O 0.04487 0.04574 0.52917 0.0
O337 O 0.01672 1.02211 0.54056 0.0
O338 O 0.97303 1.00192 0.53847 0.0
O339 O 0.98967 1.01407 0.50024 0.0
O340 O 0.96161 1.02375 0.59134 0.0
O341 O 0.99328 1.01002 0.59459 0.0
O342 O 0.97063 0.06219 0.56278 0.0
O343 O 0.97644 0.04539 0.52903 0.0
H344 H 0.0244 0.09332 0.43223 0.0
H345 H 0.05746 0.12032 0.41735 0.0
H346 H 0.09988 0.09273 0.46942 0.0
H347 H 0.06687 0.0659 0.48426 0.0
H348 H 0.97232 0.98493 0.64519 0.0
H349 H 0.94619 0.9501 0.65631 0.0
H350 H 0.91608 0.94935 0.5836 0.0
H351 H 0.94157 0.98449 0.57313 0.0
Ho352 Ho 0.52047 0.04481 0.05609 0.0
Ho353 Ho 0.47739 1.03063 1.02225 0.0
C354 C 0.47568 0.0663 0.06811 0.0
C355 C 0.55854 0.05935 0.07725 0.0
C356 C 0.56426 0.06653 0.10297 0.0
C357 C 0.58457 0.08127 0.10763 0.0
C358 C 0.58951 0.08909 0.13198 0.0
C359 C 0.57417 0.08226 0.15202 0.0
C360 C 0.55391 0.06728 0.14718 0.0
C361 C 0.54896 0.05958 0.12286 0.0
C362 C 0.4878 1.01108 0.07404 0.0
C363 C 0.52406 1.01331 1.00568 0.0
C364 C 0.44075 1.009 1.00299 0.0
C365 C 0.43557 1.00101 0.97744 0.0
C366 C 0.41346 0.99082 0.97156 0.0
C367 C 0.40867 0.98292 0.94722 0.0
C368 C 0.426 0.98506 0.92848 0.0
C369 C 0.44815 0.99537 0.93454 0.0
C370 C 0.45288 1.00332 0.95883 0.0
C371 C 0.50455 0.06875 1.00384 0.0
O372 O 0.4982 0.06996 0.0685 0.0
O373 O 0.46409 0.04928 0.05516 0.0
O374 O 0.55056 0.03765 0.07405 0.0
O375 O 0.54704 0.07269 0.06535 0.0
O376 O 0.50007 1.02608 0.08799 0.0
O377 O 0.49437 1.01426 0.05156 0.0
O378 O 0.50197 1.01174 1.00198 0.0
O379 O 0.53472 1.02612 1.02367 0.0
O380 O 0.44452 1.03117 1.00617 0.0
O381 O 0.45565 0.99884 1.01406 0.0
O382 O 0.48631 0.05861 0.99313 0.0
O383 O 0.50709 0.05728 1.0228 0.0
H384 H 0.59644 0.08697 0.09241 0.0
H385 H 0.60511 0.10086 0.135 0.0
H386 H 0.54189 0.06142 0.1622 0.0
H387 H 0.53309 0.04831 0.11957 0.0
H388 H 0.39995 0.98888 0.98579 0.0
H389 H 0.3915 0.97483 0.94315 0.0
H390 H 0.46177 0.99751 0.92045 0.0
H391 H 0.47006 1.01126 0.96311 0.0
Ho392 Ho 0.50458 0.51987 0.52085 0.0
Ho393 Ho 0.49605 0.55716 0.55644 0.0
C394 C 0.52032 0.51912 0.57955 0.0
C395 C 0.52362 0.48978 0.49663 0.0
C396 C 0.53827 0.47389 0.50532 0.0
C397 C 0.55606 0.48129 0.52176 0.0
C398 C 0.56834 0.46566 0.53196 0.0
C399 C 0.563 0.44232 0.52604 0.0
C400 C 0.54537 0.43502 0.50932 0.0
C401 C 0.53316 0.45068 0.49904 0.0
C402 C 0.46257 0.51376 0.54247 0.0
C403 C 0.48006 0.55791 0.49791 0.0
C404 C 0.47666 0.58756 0.57945 0.0
C405 C 0.46258 0.60339 0.56904 0.0
C406 C 0.44011 0.5955 0.56173 0.0
C407 C 0.42799 0.60972 0.54885 0.0
C408 C 0.43807 0.63208 0.54297 0.0
C409 C 0.46027 0.64018 0.55084 0.0
C410 C 0.47236 0.62602 0.56386 0.0
C411 C 0.53801 0.56332 0.53456 0.0
O412 O 0.5228 0.51226 0.55601 0.0
O413 O 0.50828 0.53546 0.58532 0.0
O414 O 0.50251 0.48584 0.50504 0.0
O415 O 0.53228 0.51146 0.49729 0.0
O416 O 0.46673 0.50834 0.51936 0.0
O417 O 0.48097 0.52117 0.55319 0.0
O418 O 0.47772 0.56479 0.52144 0.0
O419 O 0.49208 0.54157 0.49208 0.0
O420 O 0.49821 0.59107 0.57253 0.0
O421 O 0.46789 0.56589 0.57906 0.0
O422 O 0.53393 0.56881 0.55767 0.0
O423 O 0.51953 0.55589 0.52401 0.0
H424 H 0.56024 0.4991 0.52715 0.0
H425 H 0.58199 0.47188 0.5445 0.0
H426 H 0.54062 0.41711 0.50464 0.0
H427 H 0.51931 0.4446 0.48667 0.0
H428 H 0.43204 0.57814 0.56533 0.0
H429 H 0.41089 0.60306 0.543 0.0
H430 H 0.46826 0.65752 0.54701 0.0
H431 H 0.48959 0.63261 0.56932 0.0
Ho432 Ho 0.00319 0.51603 0.04603 0.0
Ho433 Ho -0.00244 0.56316 1.02864 0.0
C434 C 0.04323 0.55984 0.05692 0.0
C435 C 0.01847 0.4784 0.05358 0.0
C436 C 0.0399 0.47232 0.06239 0.0
C437 C 0.0483 0.45363 0.05145 0.0
C438 C 0.06911 0.44808 0.05872 0.0
C439 C 0.08188 0.46116 0.07712 0.0
C440 C 0.07337 0.4799 0.08811 0.0
C441 C 0.05258 0.48549 0.08074 0.0
C442 C 0.97923 0.5395 0.07787 0.0
C443 C 0.9575 0.51944 1.01793 0.0
C444 C 0.9829 0.60102 1.0204 0.0
C445 C 0.96191 0.60771 1.0112 0.0
C446 C 0.95586 0.62858 1.01909 0.0
C447 C 0.93586 0.63524 1.01087 0.0
C448 C 0.92154 0.62116 0.99451 0.0
C449 C 0.92761 0.60009 0.98681 0.0
C450 C 0.94762 0.5934 0.99514 0.0
C451 C 0.02155 0.53952 0.99693 0.0
O452 O 0.03754 0.53736 0.05466 0.0
O453 O 0.02925 0.57381 0.05034 0.0
O454 O 0.00586 0.48766 0.07001 0.0
O455 O 0.01997 0.48849 1.03192 0.0
O456 O 0.9745 0.51759 0.07424 0.0
O457 O -0.00302 0.54752 0.06546 0.0
O458 O 0.963 0.54189 1.02068 0.0
O459 O 0.97168 0.5055 1.02403 0.0
O460 O 0.99524 0.59123 1.00415 0.0
O461 O 0.981 0.59107 0.04216 0.0
O462 O 0.02639 0.56141 1.00057 0.0
O463 O 0.00371 0.53169 1.00925 0.0
H464 H 0.0388 0.44336 0.03716 0.0
H465 H 0.07507 0.43339 0.05014 0.0
H466 H 0.08294 0.49043 0.10214 0.0
H467 H 0.04651 0.50017 0.08924 0.0
H468 H 0.96658 0.63971 1.03171 0.0
H469 H 0.93149 0.65135 1.01758 0.0
H470 H 0.9171 0.58891 0.97408 0.0
H471 H 0.95196 0.57712 0.98896 0.0
H472 H 0.22392 0.27287 0.35041 0.0
H473 H 0.19677 0.2486 0.37757 0.0
H474 H 0.23447 0.19294 0.36492 0.0
H475 H 0.26159 0.21704 0.3375 0.0
H476 H 0.17242 0.20779 0.35517 0.0
H477 H 0.21653 0.18975 0.4412 0.0
H478 H 0.226 0.21458 0.42225 0.0
H479 H 0.23172 0.18708 0.41196 0.0
C480 C 0.22671 0.25561 0.35387 0.0
C481 C 0.24472 0.24676 0.34163 0.0
C482 C 0.21126 0.24183 0.36946 0.0
C483 C 0.21368 0.21904 0.37325 0.0
C484 C 0.23254 0.2106 0.36252 0.0
H485 H 0.12421 0.10039 0.43025 0.0
H486 H 0.15667 0.1277 0.41463 0.0
C487 C 0.24802 0.2244 0.34687 0.0
C488 C 0.19473 0.20332 0.38508 0.0
H489 H 0.18003 0.16797 0.43461 0.0
C490 C 0.17399 0.19922 0.37266 0.0
C491 C 0.19705 0.19196 0.40763 0.0
C492 C 0.21895 0.1961 0.42172 0.0
C493 C 0.1555 0.18379 0.38202 0.0
C494 C 0.15763 0.17263 0.4048 0.0
C495 C 0.17843 0.17668 0.41722 0.0
C496 C 0.13846 0.15651 0.41574 0.0
C497 C 0.13409 0.17912 0.367 0.0
C498 C 0.11765 0.16379 0.42199 0.0
C499 C 0.09908 0.14823 0.43068 0.0
C500 C 0.1011 0.12518 0.43364 0.0
C501 C 0.1222 0.11808 0.4282 0.0
C502 C 0.14073 0.13363 0.4193 0.0
H503 H 0.13743 0.18403 0.34711 0.0
H504 H 0.12649 0.16079 0.36763 0.0
H505 H 0.12139 0.18926 0.37497 0.0
H506 H 0.11572 0.1815 0.41993 0.0
H507 H 0.08315 0.15425 0.43521 0.0
H508 H 0.38453 0.88813 0.70941 0.0
H509 H 0.40515 0.90501 0.74608 0.0
H510 H 0.34735 0.93689 0.76874 0.0
H511 H 0.32693 0.92061 0.73207 0.0
H512 H 0.39088 0.96594 0.77075 0.0
H513 H 0.38886 0.88305 0.81892 0.0
H514 H 0.40028 0.8852 0.78735 0.0
H515 H 0.37058 0.88617 0.79324 0.0
C516 C 0.37634 0.8989 0.72213 0.0
C517 C 0.35403 0.90285 0.71806 0.0
C518 C 0.38805 0.90837 0.74311 0.0
C519 C 0.37761 0.92193 0.76019 0.0
C520 C 0.35561 0.92636 0.7558 0.0
H521 H 0.3892 0.98997 0.90087 0.0
H522 H 0.38057 0.9753 0.85866 0.0
C523 C 0.34392 0.91689 0.73497 0.0
C524 C 0.38917 0.93134 0.78304 0.0
H525 H 0.40421 0.9163 0.84081 0.0
C526 C 0.39406 0.95512 0.78599 0.0
C527 C 0.39334 0.91711 0.80276 0.0
C528 C 0.38791 0.89145 0.80064 0.0
C529 C 0.40244 0.9651 0.80849 0.0
C530 C 0.40558 0.95088 0.82862 0.0
C531 C 0.40167 0.92711 0.8253 0.0
C532 C 0.41133 0.96029 0.85381 0.0
C533 C 0.40759 0.99076 0.81063 0.0
C534 C 0.43122 0.95624 0.86522 0.0
C535 C 0.43609 0.96442 0.88943 0.0
C536 C 0.421 0.97659 0.9027 0.0
C537 C 0.40105 0.98051 0.8912 0.0
C538 C 0.39624 0.97239 0.86699 0.0
H539 H 0.41085 0.99876 0.79196 0.0
H540 H 0.39269 0.99719 0.81952 0.0
H541 H 0.42262 0.99628 0.82239 0.0
H542 H 0.44293 0.94671 0.8554 0.0
H543 H 0.45145 0.96089 0.89794 0.0
H544 H 0.63675 0.45214 0.7585 0.0
H545 H 0.61961 0.46983 0.72437 0.0
H546 H 0.56518 0.41252 0.72198 0.0
H547 H 0.58172 0.39508 0.75671 0.0
H548 H 0.61056 0.45555 0.67623 0.0
H549 H 0.52981 0.46554 0.72655 0.0
H550 H 0.5541 0.45839 0.74235 0.0
H551 H 0.5355 0.43674 0.7257 0.0
C552 C 0.62096 0.44337 0.75101 0.0
C553 C 0.61061 0.42216 0.7607 0.0
C554 C 0.61125 0.45347 0.73127 0.0
C555 C 0.59085 0.44277 0.72071 0.0
C556 C 0.58066 0.42143 0.73003 0.0
H557 H 0.53971 0.48004 0.57664 0.0
H558 H 0.55671 0.46136 0.6101 0.0
C559 C 0.59035 0.41131 0.74977 0.0
C560 C 0.58042 0.45384 0.69987 0.0
H561 H 0.53193 0.47349 0.68313 0.0
C562 C 0.59337 0.45949 0.67777 0.0
C563 C 0.55807 0.45933 0.70185 0.0
C564 C 0.54361 0.45491 0.72546 0.0
C565 C 0.5846 0.47018 0.65765 0.0
C566 C 0.562 0.47512 0.65936 0.0
C567 C 0.54915 0.46964 0.68158 0.0
C568 C 0.55152 0.48642 0.6387 0.0
C569 C 0.59992 0.47658 0.63502 0.0
C570 C 0.54212 0.50641 0.64351 0.0
C571 C 0.53204 0.51699 0.62441 0.0
C572 C 0.53111 0.5079 0.5999 0.0
C573 C 0.54038 0.48778 0.59513 0.0
C574 C 0.55028 0.4771 0.6143 0.0
H575 H 0.61821 0.47796 0.63957 0.0
H576 H 0.59625 0.46315 0.62036 0.0
H577 H 0.59704 0.49306 0.62718 0.0
H578 H 0.54269 0.51398 0.6621 0.0
H579 H 0.52508 0.53241 0.62887 0.0
H580 H 0.91393 0.67167 0.25166 0.0
H581 H 0.93104 0.65297 0.21642 0.0
H582 H 0.87779 0.59477 0.22328 0.0
H583 H 0.86056 0.61335 0.25844 0.0
H584 H 0.9479 0.61281 0.21432 0.0
H585 H 0.87625 0.60823 0.14944 0.0
H586 H 0.87798 0.62558 0.17757 0.0
H587 H 0.86793 0.59539 0.17913 0.0
C588 C 0.90587 0.65487 0.24572 0.0
C589 C 0.88576 0.6441 0.25785 0.0
C590 C 0.91563 0.64423 0.22548 0.0
C591 C 0.9055 0.62262 0.21683 0.0
C592 C 0.8856 0.6117 0.2291 0.0
H593 H 0.94115 0.52433 0.10635 0.0
H594 H 0.92355 0.54509 0.1397 0.0
C595 C 0.87578 0.62235 0.24927 0.0
C596 C 0.91613 0.6112 0.19553 0.0
H597 H 0.90565 0.58682 0.13774 0.0
C598 C 0.93871 0.60729 0.1975 0.0
C599 C 0.90417 0.60397 0.17353 0.0
C600 C 0.88032 0.60869 0.16961 0.0
C601 C 0.94943 0.5959 0.17842 0.0
C602 C 0.93738 0.58846 0.15658 0.0
C603 C 0.91486 0.59247 0.15451 0.0
C604 C 0.94777 0.57622 0.13582 0.0
C605 C 0.97339 0.5914 0.18209 0.0
C606 C 0.96698 0.58694 0.12222 0.0
C607 C 0.97704 0.57513 0.10314 0.0
C608 C 0.96802 0.55237 0.09726 0.0
C609 C 0.94852 0.54182 0.11054 0.0
C610 C 0.93844 0.55366 0.12956 0.0
H611 H 0.97826 0.59338 0.202 0.0
H612 H 0.97529 0.57393 0.17555 0.0
H613 H 0.9855 0.60375 0.17094 0.0
H614 H 0.97425 0.60446 0.1264 0.0
H615 H 0.99203 0.58373 0.09321 0.0
H616 H 0.37485 0.20379 0.20569 0.0
H617 H 0.39574 0.17492 0.18771 0.0
H618 H 0.39032 0.20181 0.11407 0.0
H619 H 0.37042 0.23152 0.13202 0.0
H620 H 0.38198 0.14147 0.15418 0.0
H621 H 0.45765 0.19856 0.11603 0.0
H622 H 0.43739 0.2085 0.13765 0.0
H623 H 0.43128 0.20511 0.10491 0.0
C624 C 0.37851 0.20391 0.18572 0.0
C625 C 0.37112 0.22016 0.17034 0.0
C626 C 0.39026 0.18723 0.17545 0.0
C627 C 0.39488 0.1864 0.1496 0.0
C628 C 0.38737 0.20242 0.13413 0.0
H629 H 0.43069 0.07063 0.06477 0.0
H630 H 0.41088 0.09908 0.08558 0.0
C631 C 0.37573 0.21923 0.14441 0.0
C632 C 0.40696 0.16833 0.13882 0.0
H633 H 0.45341 0.15959 0.10311 0.0
C634 C 0.39766 0.14542 0.14311 0.0
C635 C 0.4276 0.17351 0.12471 0.0
C636 C 0.43921 0.19775 0.12074 0.0
C637 C 0.40824 0.12753 0.13333 0.0
C638 C 0.42836 0.13272 0.11835 0.0
C639 C 0.43786 0.15563 0.11441 0.0
C640 C 0.43998 0.11471 0.10663 0.0
C641 C 0.39796 0.1033 0.13952 0.0
C642 C 0.46302 0.11424 0.11122 0.0
C643 C 0.47448 0.0982 0.09911 0.0
C644 C 0.4631 0.08225 0.08216 0.0
C645 C 0.4399 0.08251 0.07789 0.0
C646 C 0.42851 0.09871 0.08987 0.0
H647 H 0.38698 0.10251 0.15677 0.0
H648 H 0.38717 0.09589 0.1239 0.0
H649 H 0.41139 0.09258 0.14213 0.0
H650 H 0.47222 0.12646 0.12404 0.0
H651 H 0.49232 0.09846 0.10289 0.0
H652 H 0.18968 0.92701 0.63887 0.0
H653 H 0.15846 0.94869 0.63354 0.0
H654 H 0.13385 0.90408 0.57232 0.0
H655 H 0.16538 0.8827 0.57723 0.0
H656 H 0.14089 0.94782 0.55924 0.0
H657 H 0.09056 0.93873 0.64845 0.0
H658 H 0.1204 0.94822 0.65279 0.0
H659 H 0.11099 0.9203 0.63975 0.0
C660 C 0.17724 0.92151 0.62471 0.0
C661 C 0.17991 0.90329 0.60837 0.0
C662 C 0.15936 0.93382 0.62176 0.0
C663 C 0.14371 0.92785 0.6027 0.0
C664 C 0.14574 0.90893 0.58718 0.0
H665 H 0.02566 0.98765 0.56595 0.0
H666 H 0.0515 0.96385 0.58292 0.0
C667 C 0.16374 0.89679 0.58993 0.0
C668 C 0.12708 0.94292 0.59683 0.0
H669 H 0.08363 0.96845 0.62129 0.0
C670 C 0.12826 0.95218 0.57277 0.0
C671 C 0.11061 0.94853 0.6145 0.0
C672 C 0.10787 0.93825 0.64024 0.0
C673 C 0.11354 0.96703 0.56588 0.0
C674 C 0.09762 0.97332 0.58379 0.0
C675 C 0.09616 0.96385 0.60778 0.0
C676 C 0.08178 0.98897 0.57734 0.0
C677 C 0.11491 0.97552 0.53931 0.0
C678 C 0.09022 1.01126 0.56957 0.0
C679 C 0.07557 1.02477 0.55966 0.0
C680 C 0.05227 1.01624 0.55771 0.0
C681 C 0.0436 0.99456 0.56715 0.0
C682 C 0.0583 0.98098 0.57689 0.0
H683 H 0.12388 0.96473 0.52652 0.0
H684 H 0.09764 0.97587 0.5321 0.0
H685 H 0.12453 0.99314 0.53882 0.0
H686 H 0.10827 1.01784 0.57027 0.0
H687 H 0.08257 0.04156 0.55277 0.0
H688 H 0.7875 0.40237 0.9051 0.0
H689 H 0.82228 0.42056 0.92493 0.0
H690 H 0.78792 0.47539 0.95151 0.0
H691 H 0.75261 0.45655 0.93327 0.0
H692 H 0.849 0.45956 0.91762 0.0
H693 H 0.81513 0.46091 1.01515 0.0
H694 H 0.79922 0.44526 0.99048 0.0
H695 H 0.79959 0.47553 0.99417 0.0
C696 C 0.78706 0.41805 0.91559 0.0
C697 C 0.76687 0.4277 0.91766 0.0
C698 C 0.80717 0.42862 0.92675 0.0
C699 C 0.80781 0.44921 0.94027 0.0
C700 C 0.78789 0.45922 0.94187 0.0
H701 H 0.9211 0.54121 1.00813 0.0
H702 H 0.88488 0.52487 0.98922 0.0
C703 C 0.76768 0.44853 0.93095 0.0
C704 C 0.82944 0.46036 0.95211 0.0
H705 H 0.85213 0.48199 1.0074 0.0
C706 C 0.84961 0.46435 0.93728 0.0
C707 C 0.83049 0.46667 0.97785 0.0
C708 C 0.81001 0.46167 0.99539 0.0
C709 C 0.87052 0.47452 0.94732 0.0
C710 C 0.87145 0.48097 0.9729 0.0
C711 C 0.85137 0.4772 0.98774 0.0
C712 C 0.89334 0.49091 0.9847 0.0
C713 C 0.89154 0.47847 0.93048 0.0
C714 C 0.91007 0.47723 0.98872 0.0
C715 C 0.9307 0.48644 0.99972 0.0
C716 C 0.93521 0.50964 1.00684 0.0
C717 C 0.91832 0.52331 1.00287 0.0
C718 C 0.89756 0.51399 0.99207 0.0
H719 H 0.88735 0.47616 0.91038 0.0
H720 H 0.90104 0.49594 0.93343 0.0
H721 H 0.90298 0.46617 0.93517 0.0
H722 H 0.90715 0.45935 0.98337 0.0
H723 H 0.94323 0.47536 1.0024 0.0
H724 H 0.74418 0.62378 0.44991 0.0
H725 H 0.70786 0.6072 0.46993 0.0
H726 H 0.67157 0.63922 0.41553 0.0
H727 H 0.70782 0.65619 0.39564 0.0
H728 H 0.65721 0.64551 0.46603 0.0
H729 H 0.66004 0.55433 0.44356 0.0
H730 H 0.68509 0.56939 0.45796 0.0
H731 H 0.67779 0.57737 0.42733 0.0
C732 C 0.72848 0.62732 0.44221 0.0
C733 C 0.72894 0.64129 0.42111 0.0
C734 C 0.70772 0.61764 0.45354 0.0
C735 C 0.68698 0.62172 0.44404 0.0
C736 C 0.68736 0.6357 0.42306 0.0
H737 H 0.54828 0.55779 0.48479 0.0
H738 H 0.58448 0.57144 0.46251 0.0
C739 C 0.7081 0.64528 0.41162 0.0
C740 C 0.66493 0.61215 0.45655 0.0
H741 H 0.63067 0.56215 0.47197 0.0
C742 C 0.65138 0.62729 0.46727 0.0
C743 C 0.65723 0.58838 0.45794 0.0
C744 C 0.67065 0.57136 0.44592 0.0
C745 C 0.63058 0.6193 0.47977 0.0
C746 C 0.62318 0.59552 0.48176 0.0
C747 C 0.63647 0.58037 0.4706 0.0
C748 C 0.60168 0.58618 0.49544 0.0
C749 C 0.61654 0.63635 0.49059 0.0
C750 C 0.59952 0.5895 0.5214 0.0
C751 C 0.57896 0.5816 0.53416 0.0
C752 C 0.56014 0.57027 0.52119 0.0
C753 C 0.56249 0.56646 0.49528 0.0
C754 C 0.58314 0.57426 0.48254 0.0
H755 H 0.62203 0.65367 0.48284 0.0
H756 H 0.59818 0.63092 0.48683 0.0
H757 H 0.61847 0.63742 0.51117 0.0
H758 H 0.61371 0.59839 0.53177 0.0
H759 H 0.5777 0.58469 0.55414 0.0
H760 H 0.25953 0.36966 0.12832 0.0
H761 H 0.23515 0.39265 0.10703 0.0
H762 H 0.2052 0.40884 0.17823 0.0
H763 H 0.22963 0.38629 0.1995 0.0
H764 H 0.18761 0.38216 0.10985 0.0
H765 H 0.21595 0.47056 0.14337 0.0
H766 H 0.23344 0.44841 0.14531 0.0
H767 H 0.21105 0.45031 0.16827 0.0
C768 C 0.24818 0.37866 0.13941 0.0
C769 C 0.24636 0.37614 0.16552 0.0
C770 C 0.23423 0.39169 0.12726 0.0
C771 C 0.21856 0.40264 0.14108 0.0
C772 C 0.21747 0.40091 0.16723 0.0
H773 H 0.09701 0.45944 0.12474 0.0
H774 H 0.13204 0.44683 0.13787 0.0
C775 C 0.23126 0.38783 0.17934 0.0
C776 C 0.20145 0.41361 0.12828 0.0
H777 H 0.17826 0.4626 0.12685 0.0
C778 C 0.18579 0.39987 0.11313 0.0
C779 C 0.19906 0.43665 0.13282 0.0
C780 C 0.2159 0.45241 0.14814 0.0
C781 C 0.1671 0.40822 0.1034 0.0
C782 C 0.16432 0.43109 0.10854 0.0
C783 C 0.18042 0.44507 0.12299 0.0
C784 C 0.14409 0.44036 0.10024 0.0
C785 C 0.14989 0.39214 0.0888 0.0
C786 C 0.13955 0.44141 0.07472 0.0
C787 C 0.11951 0.44852 0.06718 0.0
C788 C 0.10379 0.45495 0.08503 0.0
C789 C 0.10884 0.45472 0.11055 0.0
C790 C 0.12882 0.44748 0.11807 0.0
H791 H 0.15177 0.37401 0.09139 0.0
H792 H 0.13222 0.39429 0.09449 0.0
H793 H 0.15235 0.39596 0.06857 0.0
H794 H 0.15137 0.43647 0.06065 0.0
H795 H 0.11629 0.44894 0.04737 0.0
H796 H 0.58537 0.27799 0.94361 0.0
H797 H 0.568 0.24181 0.96241 0.0
H798 H 0.60856 0.20568 0.91256 0.0
H799 H 0.62629 0.24182 0.89408 0.0
H800 H 0.54233 0.20581 0.94421 0.0
H801 H 0.62048 0.17753 0.97711 0.0
H802 H 0.62037 0.20598 0.96586 0.0
H803 H 0.62213 0.18277 0.94413 0.0
C804 C 0.59061 0.26234 0.93663 0.0
C805 C 0.60737 0.26293 0.91737 0.0
C806 C 0.58071 0.24161 0.94749 0.0
C807 C 0.58722 0.22085 0.93938 0.0
C808 C 0.60369 0.22138 0.91985 0.0
H809 H 0.50377 0.0879 0.95833 0.0
H810 H 0.52432 0.12443 0.94374 0.0
C811 C 0.61377 0.24213 0.90915 0.0
C812 C 0.57609 0.19868 0.9506 0.0
H813 H 0.58695 0.1492 0.97648 0.0
C814 C 0.55216 0.19355 0.9514 0.0
C815 C 0.58871 0.18266 0.96053 0.0
C816 C 0.61432 0.1876 0.96214 0.0
C817 C 0.54062 0.17282 0.9611 0.0
C818 C 0.55326 0.15625 0.96967 0.0
C819 C 0.57717 0.16163 0.9696 0.0
C820 C 0.54193 0.13318 0.97828 0.0
C821 C 0.51489 0.16912 0.9624 0.0
C822 C 0.54574 0.12512 1.0022 0.0
C823 C 0.5342 0.10386 1.01047 0.0
C824 C 0.51868 0.09025 0.99497 0.0
C825 C 0.51548 0.09804 0.97082 0.0
C826 C 0.5271 0.11908 0.96251 0.0
H827 H 0.50824 0.18559 0.96304 0.0
H828 H 0.50825 0.15966 0.9454 0.0
H829 H 0.50813 0.15909 0.97909 0.0
H830 H 0.55719 0.13553 1.01472 0.0
H831 H 0.53689 0.09844 1.0292 0.0
H832 H 0.91309 0.81311 0.38682 0.0
H833 H 0.9301 0.84974 0.40533 0.0
H834 H 0.87952 0.84091 0.46529 0.0
H835 H 0.86254 0.80423 0.44707 0.0
H836 H 0.90629 0.88913 0.41732 0.0
H837 H 0.9428 0.85431 0.50023 0.0
H838 H 0.93522 0.83733 0.47249 0.0
H839 H 0.9134 0.84346 0.4943 0.0
C840 C 0.90571 0.81887 0.40406 0.0
C841 C 0.88647 0.80571 0.41548 0.0
C842 C 0.91537 0.83986 0.41453 0.0
C843 C 0.90619 0.84795 0.43679 0.0
C844 C 0.88701 0.83488 0.44824 0.0
H845 H 0.94337 0.96587 0.53407 0.0
H846 H 0.92599 0.93007 0.51465 0.0
C847 C 0.87722 0.81401 0.43768 0.0
C848 C 0.91643 0.87022 0.44787 0.0
H849 H 0.94499 0.89433 0.49865 0.0
C850 C 0.91484 0.89032 0.43505 0.0
C851 C 0.92742 0.87169 0.47107 0.0
C852 C 0.93003 0.85059 0.48534 0.0
C853 C 0.92359 0.91191 0.44503 0.0
C854 C 0.93482 0.91342 0.46817 0.0
C855 C 0.93641 0.89324 0.48094 0.0
C856 C 0.945 0.93569 0.47956 0.0
C857 C 0.92009 0.93288 0.43102 0.0
C858 C 0.96162 0.95084 0.46644 0.0
C859 C 0.97147 0.97151 0.47746 0.0
C860 C 0.9652 0.97735 0.50204 0.0
C861 C 0.94866 0.96205 0.51517 0.0
C862 C 0.93868 0.94149 0.50406 0.0
H863 H 0.90556 0.92914 0.41817 0.0
H864 H 0.91688 0.94682 0.44408 0.0
H865 H 0.93563 0.939 0.41952 0.0
H866 H 0.96728 0.94655 0.44778 0.0
H867 H 0.98433 0.98269 0.46684 0.0
H868 H 0.35013 0.80827 0.50006 0.0
H869 H 0.37033 0.77872 0.48195 0.0
H870 H 0.32624 0.72766 0.5246 0.0
H871 H 0.30628 0.75681 0.54278 0.0
H872 H 0.39347 0.75591 0.51209 0.0
H873 H 0.33371 0.69276 0.46058 0.0
H874 H 0.3281 0.72134 0.46717 0.0
H875 H 0.32098 0.6992 0.49009 0.0
C876 C 0.34443 0.79065 0.50509 0.0
C877 C 0.32671 0.78492 0.52302 0.0
C878 C 0.35586 0.77379 0.49457 0.0
C879 C 0.34961 0.75093 0.50165 0.0
C880 C 0.33095 0.74504 0.51823 0.0
H881 H 0.39419 0.63844 0.55186 0.0
H882 H 0.37443 0.6667 0.53305 0.0
C883 C 0.31957 0.76183 0.52875 0.0
C884 C 0.36495 0.73404 0.49612 0.0
H885 H 0.36338 0.67736 0.4833 0.0
C886 C 0.38722 0.73893 0.50494 0.0
C887 C 0.35679 0.71194 0.48673 0.0
C888 C 0.33364 0.70612 0.47537 0.0
C889 C 0.40062 0.72172 0.50723 0.0
C890 C 0.39159 0.69913 0.50002 0.0
C891 C 0.37017 0.69467 0.489 0.0
C892 C 0.40239 0.67967 0.5077 0.0
C893 C 0.42345 0.72747 0.51946 0.0
C894 C 0.42438 0.67715 0.49907 0.0
C895 C 0.43579 0.6611 0.50997 0.0
C896 C 0.42525 0.64725 0.52944 0.0
C897 C 0.4027 0.64885 0.53687 0.0
C898 C 0.39139 0.66495 0.5261 0.0
H899 H 0.42655 0.74524 0.5269 0.0
H900 H 0.42462 0.71566 0.53509 0.0
H901 H 0.43724 0.72552 0.50553 0.0
H902 H 0.43299 0.68813 0.4846 0.0
H903 H 0.45301 0.65985 0.50357 0.0
H904 H 0.79129 0.79834 0.74453 0.0
H905 H 0.82167 0.81713 0.71647 0.0
H906 H 0.77548 0.8591 0.68804 0.0
H907 H 0.74521 0.84071 0.71641 0.0
H908 H 0.82811 0.82585 0.6646 0.0
H909 H 0.82514 0.90495 0.72066 0.0
H910 H 0.81039 0.87746 0.73043 0.0
H911 H 0.79842 0.89331 0.7072 0.0
C912 C 0.78749 0.81116 0.73182 0.0
C913 C 0.76605 0.81832 0.7328 0.0
C914 C 0.80485 0.8219 0.71587 0.0
C915 C 0.80092 0.83983 0.70065 0.0
C916 C 0.77895 0.84563 0.70008 0.0
H917 H 0.88349 0.94257 0.61246 0.0
H918 H 0.85306 0.91397 0.62935 0.0
C919 C 0.7617 0.8351 0.71619 0.0
C920 C 0.8202 0.85398 0.68737 0.0
H921 H 0.84922 0.90833 0.68445 0.0
C922 C 0.8328 0.84387 0.66893 0.0
C923 C 0.82645 0.8774 0.69338 0.0
C924 C 0.81456 0.88891 0.71416 0.0
C925 C 0.85115 0.85683 0.65583 0.0
C926 C 0.85693 0.88031 0.66147 0.0
C927 C 0.84453 0.89031 0.68008 0.0
C928 C 0.87567 0.89517 0.64829 0.0
C929 C 0.864 0.84556 0.63577 0.0
C930 C 0.89848 0.89383 0.65317 0.0
C931 C 0.916 0.9102 0.64352 0.0
C932 C 0.91092 0.9281 0.62885 0.0
C933 C 0.88805 0.92881 0.62333 0.0
C934 C 0.8706 0.91255 0.63304 0.0
H935 H 0.8555 0.82797 0.63131 0.0
H936 H 0.86572 0.85581 0.61843 0.0
H937 H 0.88144 0.84471 0.64217 0.0
H938 H 0.90264 0.88068 0.66522 0.0
H939 H 0.93346 0.90914 0.64797 0.0
H940 H 0.65055 0.18889 0.34719 0.0
H941 H 0.63417 0.17407 0.30774 0.0
H942 H 0.59374 0.11794 0.34675 0.0
H943 H 0.61037 0.13258 0.38636 0.0
H944 H 0.6166 0.10353 0.3072 0.0
H945 H 0.57268 0.17379 0.27783 0.0
H946 H 0.60196 0.18368 0.28474 0.0
H947 H 0.58243 0.1718 0.30926 0.0
C948 C 0.63776 0.1737 0.34745 0.0
C949 C 0.63167 0.16192 0.36985 0.0
C950 C 0.62837 0.16527 0.32489 0.0
C951 C 0.61248 0.14509 0.32435 0.0
C952 C 0.60592 0.1336 0.34679 0.0
H953 H 0.54433 0.09574 0.18701 0.0
H954 H 0.55231 0.10943 0.22968 0.0
C955 C 0.61543 0.14194 0.36935 0.0
C956 C 0.60428 0.135 0.30012 0.0
H957 H 0.58045 0.14711 0.24564 0.0
C958 C 0.60843 0.11295 0.29386 0.0
C959 C 0.59339 0.14719 0.28286 0.0
C960 C 0.58713 0.17033 0.28911 0.0
C961 C 0.60269 0.10305 0.27044 0.0
C962 C 0.59307 0.1158 0.25263 0.0
C963 C 0.58815 0.13751 0.25921 0.0
C964 C 0.58824 0.10703 0.22695 0.0
C965 C 0.60693 0.07902 0.26508 0.0
C966 C 0.60586 0.10137 0.2112 0.0
C967 C 0.60131 0.09326 0.18691 0.0
C968 C 0.57909 0.0909 0.17782 0.0
C969 C 0.56155 0.09693 0.19357 0.0
C970 C 0.56609 0.10493 0.21789 0.0
H971 H 0.6077 0.06942 0.28263 0.0
H972 H 0.59342 0.06953 0.2533 0.0
H973 H 0.62355 0.07963 0.2549 0.0
H974 H 0.62317 0.10334 0.21765 0.0
H975 H 0.61517 0.08863 0.17535 0.0
H976 H 0.41689 0.68248 0.32222 0.0
H977 H 0.43389 0.66485 0.35651 0.0
H978 H 0.38028 0.60682 0.35334 0.0
H979 H 0.36316 0.62432 0.31902 0.0
H980 H 0.38881 0.62047 0.4015 0.0
H981 H 0.47043 0.61294 0.35173 0.0
H982 H 0.46423 0.64155 0.35299 0.0
H983 H 0.4461 0.61986 0.33584 0.0
C984 C 0.4088 0.66584 0.32857 0.0
C985 C 0.38864 0.65484 0.31758 0.0
C986 C 0.4186 0.65574 0.34826 0.0
C987 C 0.40866 0.63425 0.35738 0.0
C988 C 0.38838 0.62337 0.3467 0.0
H989 H 0.47611 0.5454 0.4483 0.0
H990 H 0.45828 0.56385 0.41527 0.0
C991 C 0.37853 0.63348 0.32706 0.0
C992 C 0.41921 0.6232 0.37815 0.0
H993 H 0.46823 0.60465 0.39508 0.0
C994 C 0.40617 0.61699 0.40006 0.0
C995 C 0.4418 0.61831 0.37631 0.0
C996 C 0.45641 0.62329 0.35288 0.0
C997 C 0.41506 0.6063 0.42011 0.0
C998 C 0.43788 0.60199 0.41855 0.0
C999 C 0.45083 0.60804 0.39653 0.0
C1000 C 0.44848 0.59068 0.43912 0.0
C1001 C 0.39963 0.59922 0.44248 0.0
C1002 C 0.44923 0.59958 0.46371 0.0
C1003 C 0.45925 0.58887 0.48276 0.0
C1004 C 0.46915 0.56916 0.47768 0.0
C1005 C 0.46868 0.56049 0.453 0.0
C1006 C 0.45848 0.57109 0.43402 0.0
H1007 H 0.38136 0.59748 0.43773 0.0
H1008 H 0.40285 0.58276 0.45005 0.0
H1009 H 0.40285 0.61247 0.45739 0.0
H1010 H 0.4423 0.615 0.46818 0.0
H1011 H 0.45947 0.59624 0.50144 0.0
H1012 H 0.08531 0.40698 0.82291 0.0
H1013 H 0.06789 0.42645 0.85741 0.0
H1014 H 0.12269 0.48331 0.85173 0.0
H1015 H 0.13996 0.46423 0.81693 0.0
H1016 H 0.087 0.44231 0.90427 0.0
H1017 H 0.06475 0.51316 0.84825 0.0
H1018 H 0.07193 0.48731 0.83409 0.0
H1019 H 0.09403 0.50911 0.84515 0.0
C1020 C 0.09355 0.42373 0.82882 0.0
C1021 C 0.11401 0.43406 0.81702 0.0
C1022 C 0.08364 0.43477 0.84866 0.0
C1023 C 0.09383 0.45646 0.85697 0.0
C1024 C 0.11434 0.46672 0.84542 0.0
H1025 H 0.06006 0.55434 0.96909 0.0
H1026 H 0.07791 0.53344 0.93612 0.0
C1027 C 0.12431 0.45568 0.82566 0.0
C1028 C 0.08314 0.46828 0.87784 0.0
H1029 H 0.05989 0.51611 0.89224 0.0
C1030 C 0.08097 0.45839 0.90165 0.0
C1031 C 0.07532 0.48929 0.8744 0.0
C1032 C 0.0764 0.50031 0.84907 0.0
C1033 C 0.07165 0.46919 0.92223 0.0
C1034 C 0.06383 0.49023 0.9188 0.0
C1035 C 0.06593 0.50003 0.89493 0.0
C1036 C 0.05343 0.50243 0.93963 0.0
C1037 C 0.07085 0.45825 0.94759 0.0
C1038 C 0.03367 0.49203 0.95258 0.0
C1039 C 0.0235 0.50393 0.9715 0.0
C1040 C 0.03278 0.52655 0.97768 0.0
C1041 C 0.05255 0.53693 0.96476 0.0
C1042 C 0.06274 0.52501 0.9459 0.0
H1043 H 0.08311 0.44601 0.9485 0.0
H1044 H 0.07468 0.4713 0.96264 0.0
H1045 H 0.05349 0.44869 0.95131 0.0
H1046 H 0.02582 0.47485 0.94773 0.0
H1047 H 0.00814 0.49557 0.98097 0.0
H1048 H 0.59941 0.84729 0.88923 0.0
H1049 H 0.57843 0.87651 0.90684 0.0
H1050 H 0.64134 0.91499 0.93278 0.0
H1051 H 0.66236 0.88606 0.91501 0.0
H1052 H 0.57453 0.89211 0.95483 0.0
H1053 H 0.6155 0.96273 0.8943 0.0
H1054 H 0.61828 0.93333 0.88799 0.0
H1055 H 0.63567 0.94966 0.911 0.0
C1056 C 0.60871 0.86194 0.89881 0.0
C1057 C 0.63253 0.86453 0.90055 0.0
C1058 C 0.59675 0.87865 0.90874 0.0
C1059 C 0.6084 0.89819 0.92058 0.0
C1060 C 0.63209 0.90042 0.92303 0.0
H1061 H 0.56974 1.01084 1.00678 0.0
H1062 H 0.58993 0.98333 0.98458 0.0
C1063 C 0.64406 0.88383 0.91298 0.0
C1064 C 0.59578 0.91601 0.93092 0.0
H1065 H 0.59332 0.97309 0.92935 0.0
C1066 C 0.57849 0.90977 0.94909 0.0
C1067 C 0.60097 0.93905 0.92336 0.0
C1068 C 0.61846 0.94659 0.90291 0.0
C1069 C 0.56665 0.92606 0.9604 0.0
C1070 C 0.57216 0.94912 0.95318 0.0
C1071 C 0.58927 0.95538 0.93487 0.0
C1072 C 0.56042 0.96698 0.96477 0.0
C1073 C 0.54868 0.91863 0.98041 0.0
C1074 C 0.53735 0.96726 0.96031 0.0
C1075 C 0.52578 0.98298 0.97283 0.0
C1076 C 0.53708 0.99869 0.99012 0.0
C1077 C 0.56048 0.99895 0.9937 0.0
C1078 C 0.57206 0.98326 0.98105 0.0
H1079 H 0.54932 0.90109 0.98696 0.0
H1080 H 0.55075 0.93054 0.99672 0.0
H1081 H 0.53157 0.91893 0.97278 0.0
H1082 H 0.52819 0.95497 0.94753 0.0
H1083 H 0.5078 0.98231 0.96947 0.0
H1084 H 0.82953 0.18555 0.44565 0.0
H1085 H 0.86589 0.17093 0.44687 0.0
H1086 H 0.8347 0.11716 0.49593 0.0
H1087 H 0.79857 0.1315 0.49469 0.0
H1088 H 0.89211 0.16618 0.48678 0.0
H1089 H 0.86505 0.08192 0.44297 0.0
H1090 H 0.84856 0.10487 0.44108 0.0
H1091 H 0.8456 0.08667 0.46804 0.0
C1092 C 0.8305 0.17058 0.45662 0.0
C1093 C 0.8112 0.1595 0.46988 0.0
C1094 C 0.85119 0.16221 0.45719 0.0
C1095 C 0.85279 0.14265 0.47097 0.0
C1096 C 0.83362 0.13183 0.4845 0.0
H1097 H 0.94759 0.09593 0.55819 0.0
H1098 H 0.92389 0.11872 0.53625 0.0
C1099 C 0.81301 0.14007 0.48384 0.0
C1100 C 0.87467 0.13404 0.47274 0.0
H1101 H 0.89617 0.08421 0.47201 0.0
C1102 C 0.89327 0.14839 0.483 0.0
C1103 C 0.87645 0.11104 0.46708 0.0
C1104 C 0.8579 0.09535 0.4539 0.0
C1105 C 0.91279 0.13974 0.48992 0.0
C1106 C 0.91333 0.1161 0.4871 0.0
C1107 C 0.89563 0.10227 0.47466 0.0
C1108 C 0.93039 0.10476 0.49949 0.0
C1109 C 0.93229 0.15593 0.50084 0.0
C1110 C 0.94168 0.08905 0.48625 0.0
C1111 C 0.95477 0.07557 0.49891 0.0
C1112 C 0.95684 0.07772 0.52497 0.0
C1113 C 0.94631 0.09403 0.53806 0.0
C1114 C 0.93301 0.10728 0.52547 0.0
H1115 H 0.9336 0.17313 0.4925 0.0
H1116 H 0.92913 0.15784 0.52127 0.0
H1117 H 0.9488 0.14967 0.49774 0.0
H1118 H 0.93973 0.08666 0.46625 0.0
H1119 H 0.96266 0.063 0.48842 0.0
H1120 H 0.22868 0.67979 0.13741 0.0
H1121 H 0.19311 0.66175 0.11869 0.0
H1122 H 0.19605 0.60023 0.15938 0.0
H1123 H 0.23136 0.6184 0.1786 0.0
H1124 H 0.18327 0.62605 0.08874 0.0
H1125 H 0.13198 0.60797 0.17635 0.0
H1126 H 0.15951 0.62583 0.17581 0.0
H1127 H 0.15738 0.59523 0.1757 0.0
C1128 C 0.22176 0.66241 0.14241 0.0
C1129 C 0.2329 0.65063 0.15967 0.0
C1130 C 0.20133 0.6521 0.1317 0.0
C1131 C 0.19146 0.62969 0.13788 0.0
C1132 C 0.20277 0.61774 0.15481 0.0
H1133 H 0.07383 0.53726 0.07998 0.0
H1134 H 0.10983 0.55372 0.09917 0.0
C1135 C 0.22308 0.62815 0.16574 0.0
C1136 C 0.16975 0.61875 0.12608 0.0
H1137 H 0.1156 0.59112 0.13903 0.0
C1138 C 0.16848 0.61853 0.09982 0.0
C1139 C 0.15026 0.60887 0.14037 0.0
C1140 C 0.14971 0.60966 0.16861 0.0
C1141 C 0.14856 0.60862 0.08759 0.0
C1142 C 0.12925 0.59862 0.10188 0.0
C1143 C 0.13046 0.59866 0.12807 0.0
C1144 C 0.10745 0.58857 0.08995 0.0
C1145 C 0.14832 0.60869 0.05939 0.0
C1146 C 0.094 0.60265 0.07848 0.0
C1147 C 0.07329 0.59333 0.06768 0.0
C1148 C 0.06556 0.56963 0.06794 0.0
C1149 C 0.07918 0.55554 0.07933 0.0
C1150 C 0.09979 0.56493 0.09037 0.0
H1151 H 0.16572 0.61326 0.05094 0.0
H1152 H 0.14056 0.5917 0.05206 0.0
H1153 H 0.1378 0.62135 0.0533 0.0
H1154 H 0.09943 0.62095 0.0781 0.0
H1155 H 0.06334 0.60476 0.05913 0.0
H1156 H 0.25695 0.45607 0.63303 0.0
H1157 H 0.29274 0.47316 0.61231 0.0
H1158 H 0.32934 0.4306 0.6551 0.0
H1159 H 0.29372 0.41359 0.67611 0.0
H1160 H 0.33354 0.49672 0.63204 0.0
H1161 H 0.34772 0.41713 0.58238 0.0
H1162 H 0.32068 0.42046 0.59705 0.0
H1163 H 0.34361 0.41431 0.61566 0.0
C1164 C 0.27263 0.45049 0.63825 0.0
C1165 C 0.27236 0.4333 0.65615 0.0
C1166 C 0.29308 0.46022 0.62629 0.0
C1167 C 0.31368 0.45292 0.63186 0.0
C1168 C 0.31358 0.43616 0.6501 0.0
H1169 H 0.45241 0.51748 0.59251 0.0
H1170 H 0.41599 0.50395 0.61429 0.0
C1171 C 0.29317 0.42642 0.66207 0.0
C1172 C 0.33524 0.46269 0.61845 0.0
H1173 H 0.3779 0.44842 0.58008 0.0
C1174 C 0.34324 0.48619 0.62064 0.0
C1175 C 0.34772 0.44898 0.6033 0.0
C1176 C 0.33945 0.42386 0.5992 0.0
C1177 C 0.36358 0.49627 0.60843 0.0
C1178 C 0.37639 0.48243 0.59387 0.0
C1179 C 0.36819 0.459 0.5914 0.0
C1180 C 0.39819 0.49185 0.5807 0.0
C1181 C 0.37095 0.5217 0.61086 0.0
C1182 C 0.40043 0.48938 0.55461 0.0
C1183 C 0.42122 0.497 0.54218 0.0
C1184 C 0.44027 0.50711 0.55559 0.0
C1185 C 0.43798 0.50987 0.58167 0.0
C1186 C 0.41715 0.50224 0.59412 0.0
H1187 H 0.35658 0.53053 0.61707 0.0
H1188 H 0.3844 0.5252 0.62501 0.0
H1189 H 0.37812 0.52906 0.59282 0.0
H1190 H 0.38608 0.48138 0.54387 0.0
H1191 H 0.42246 0.49465 0.52208 0.0
H1192 H 0.73563 0.67656 0.90535 0.0
H1193 H 0.76262 0.65481 0.92389 0.0
H1194 H 0.80453 0.71767 0.94597 0.0
H1195 H 0.77783 0.7394 0.9276 0.0
H1196 H 0.80762 0.65598 0.9105 0.0
H1197 H 0.80031 0.6816 1.00996 0.0
H1198 H 0.77961 0.68617 0.98729 0.0
H1199 H 0.80584 0.70585 0.98987 0.0
C1200 C 0.75051 0.68571 0.91436 0.0
C1201 C 0.75449 0.70971 0.91519 0.0
C1202 C 0.76586 0.67327 0.925 0.0
C1203 C 0.78536 0.68461 0.93672 0.0
C1204 C 0.78926 0.70854 0.93769 0.0
H1205 H 0.91591 0.66401 0.98067 0.0
H1206 H 0.88108 0.67665 0.96724 0.0
C1207 C 0.77395 0.72095 0.92716 0.0
C1208 C 0.80258 0.67171 0.94641 0.0
H1209 H 0.83455 0.66684 0.9975 0.0
C1210 C 0.81321 0.65797 0.92965 0.0
C1211 C 0.8098 0.67427 0.97144 0.0
C1212 C 0.79811 0.68758 0.99073 0.0
C1213 C 0.83169 0.64775 0.93693 0.0
C1214 C 0.83962 0.65137 0.96153 0.0
C1215 C 0.82845 0.66428 0.97858 0.0
C1216 C 0.86051 0.64324 0.9694 0.0
C1217 C 0.84335 0.634 0.91807 0.0
C1218 C 0.86035 0.62025 0.97504 0.0
C1219 C 0.88019 0.61296 0.98304 0.0
C1220 C 0.9005 0.6286 0.98546 0.0
C1221 C 0.90051 0.65159 0.97947 0.0
C1222 C 0.88068 0.65884 0.97164 0.0
H1223 H 0.83589 0.63387 0.89925 0.0
H1224 H 0.8618 0.64105 0.91651 0.0
H1225 H 0.84187 0.61614 0.92452 0.0
H1226 H 0.84483 0.60803 0.97354 0.0
H1227 H 0.87951 0.5952 0.98777 0.0
H1228 H 0.42036 0.82094 0.18808 0.0
H1229 H 0.43728 0.85803 0.17094 0.0
H1230 H 0.38076 0.85564 0.12178 0.0
H1231 H 0.36351 0.81879 0.13911 0.0
H1232 H 0.45058 0.86941 0.12083 0.0
H1233 H 0.38407 0.91873 0.15605 0.0
H1234 H 0.38675 0.89104 0.16801 0.0
H1235 H 0.37349 0.89332 0.13858 0.0
C1236 C 0.41136 0.82839 0.17382 0.0
C1237 C 0.39046 0.81678 0.1651 0.0
C1238 C 0.42116 0.84957 0.1639 0.0
C1239 C 0.41021 0.85985 0.14524 0.0
C1240 C 0.38942 0.8483 0.13641 0.0
H1241 H 0.47214 0.97181 0.04792 0.0
H1242 H 0.45281 0.93538 0.0647 0.0
C1243 C 0.37967 0.82706 0.1462 0.0
C1244 C 0.42075 0.88241 0.1347 0.0
H1245 H 0.41223 0.93768 0.12799 0.0
C1246 C 0.44219 0.88432 0.12241 0.0
C1247 C 0.40996 0.90201 0.13693 0.0
C1248 C 0.38739 0.90135 0.15079 0.0
C1249 C 0.45293 0.90511 0.11205 0.0
C1250 C 0.4419 0.92458 0.11378 0.0
C1251 C 0.42062 0.92276 0.1264 0.0
C1252 C 0.45251 0.94711 0.10324 0.0
C1253 C 0.47623 0.90615 0.09973 0.0
C1254 C 0.45815 0.96617 0.1191 0.0
C1255 C 0.4691 0.98708 0.1095 0.0
C1256 C 0.47445 0.98948 0.08377 0.0
C1257 C 0.46816 0.9706 0.0678 0.0
C1258 C 0.4573 0.94966 0.07742 0.0
H1259 H 0.48457 0.89152 0.10506 0.0
H1260 H 0.47454 0.90564 0.07911 0.0
H1261 H 0.48747 0.92225 0.10481 0.0
H1262 H 0.45457 0.96473 0.13904 0.0
H1263 H 0.47371 1.00128 0.12231 0.0
H1264 H 0.14038 0.26807 0.63519 0.0
H1265 H 0.12293 0.23164 0.61698 0.0
H1266 H 0.06542 0.22979 0.66835 0.0
H1267 H 0.08285 0.26612 0.68691 0.0
H1268 H 0.11 0.18914 0.63972 0.0
H1269 H 0.03559 0.22035 0.59983 0.0
H1270 H 0.06028 0.2394 0.61051 0.0
H1271 H 0.03917 0.22614 0.63269 0.0
C1272 C 0.1241 0.25987 0.6428 0.0
C1273 C 0.11303 0.27015 0.66254 0.0
C1274 C 0.1141 0.23906 0.63226 0.0
C1275 C 0.09273 0.2281 0.64106 0.0
C1276 C 0.0817 0.23815 0.66089 0.0
H1277 H 0.03217 0.08641 0.61071 0.0
H1278 H 0.04962 0.12223 0.6304 0.0
C1279 C 0.0917 0.25897 0.67148 0.0
C1280 C 0.08217 0.20605 0.62963 0.0
H1281 H 0.03576 0.18048 0.5977 0.0
C1282 C 0.09377 0.18723 0.63054 0.0
C1283 C 0.06111 0.20364 0.61739 0.0
C1284 C 0.04836 0.22348 0.61478 0.0
C1285 C 0.08477 0.16604 0.61978 0.0
C1286 C 0.06346 0.1635 0.60803 0.0
C1287 C 0.05199 0.18238 0.60691 0.0
C1288 C 0.05306 0.14159 0.59618 0.0
C1289 C 0.09839 0.1467 0.6206 0.0
C1290 C 0.04881 0.1406 0.57047 0.0
C1291 C 0.03877 0.12018 0.55916 0.0
C1292 C 0.03258 0.10027 0.57335 0.0
C1293 C 0.03679 0.10133 0.59916 0.0
C1294 C 0.04688 0.12179 0.61045 0.0
H1295 H 0.11655 0.15287 0.62477 0.0
H1296 H 0.09113 0.1347 0.63552 0.0
H1297 H 0.09762 0.13712 0.60254 0.0
H1298 H 0.05335 0.15565 0.55908 0.0
H1299 H 0.03576 0.12008 0.53927 0.0
H1300 H 0.6934 0.31346 0.52644 0.0
H1301 H 0.67517 0.34508 0.54135 0.0
H1302 H 0.6386 0.30247 0.59864 0.0
H1303 H 0.65683 0.27041 0.58353 0.0
H1304 H 0.61033 0.31887 0.57016 0.0
H1305 H 0.67537 0.39109 0.59654 0.0
H1306 H 0.68377 0.37983 0.56706 0.0
H1307 H 0.68146 0.36223 0.59453 0.0
C1308 C 0.68222 0.311 0.54287 0.0
C1309 C 0.67643 0.28938 0.5537 0.0
C1310 C 0.67186 0.32921 0.55151 0.0
C1311 C 0.65568 0.32628 0.57134 0.0
C1312 C 0.65112 0.30515 0.58341 0.0
H1313 H 0.57753 0.44128 0.57429 0.0
H1314 H 0.59852 0.41335 0.59236 0.0
C1315 C 0.66143 0.28683 0.57467 0.0
C1316 C 0.64059 0.34365 0.57563 0.0
H1317 H 0.64186 0.40129 0.57521 0.0
C1318 C 0.61715 0.33685 0.57215 0.0
C1319 C 0.64927 0.36712 0.57865 0.0
C1320 C 0.67384 0.3754 0.58469 0.0
C1321 C 0.60271 0.35296 0.56882 0.0
C1322 C 0.61204 0.37635 0.56859 0.0
C1323 C 0.63487 0.38326 0.57484 0.0
C1324 C 0.59932 0.39333 0.55828 0.0
C1325 C 0.57785 0.34475 0.56404 0.0
C1326 C 0.59333 0.3915 0.53306 0.0
C1327 C 0.58165 0.40744 0.52264 0.0
C1328 C 0.57572 0.4256 0.53724 0.0
C1329 C 0.58201 0.42758 0.5625 0.0
C1330 C 0.59385 0.4116 0.57291 0.0
H1331 H 0.57195 0.32788 0.5727 0.0
H1332 H 0.56704 0.35711 0.57145 0.0
H1333 H 0.57542 0.3428 0.54357 0.0
H1334 H 0.59792 0.37778 0.52134 0.0
H1335 H 0.57754 0.4057 0.50303 0.0
loop_
_geom_bond_atom_site_label_1
_geom_bond_atom_site_label_2
_geom_bond_distance
_geom_bond_site_symmetry_2
_ccdc_geom_bond_type
C0 C1 1.386 . S
C0 C2 1.397 . S
C0 H24 0.931 . S
C1 C0 1.386 . S
C1 C5 1.397 . S
C2 C0 1.397 . S
C2 C3 1.384 . S
C2 H25 0.930 . S
C3 C2 1.384 . S
C3 C4 1.377 . S
C3 C6 1.481 . S
C4 C3 1.377 . S
C4 C5 1.389 . S
C4 H26 0.929 . S
C5 C1 1.397 . S
C5 C4 1.389 . S
C5 H27 0.931 . S
C6 C3 1.481 . S
C6 C7 1.387 . S
C6 C11 1.390 . S
C7 C6 1.387 . S
C7 C8 1.401 . S
C7 H28 0.930 . S
C8 C7 1.401 . S
C8 C9 1.376 . S
C8 C17 1.511 . S
C9 C8 1.376 . S
C9 C10 1.392 . S
C9 H30 0.931 . S
C10 C9 1.392 . S
C10 C11 1.361 . S
C10 C12 1.500 . S
C11 C6 1.390 . S
C11 C10 1.361 . S
C11 H29 0.931 . S
C12 C10 1.500 . S
C12 C13 1.371 . S
C12 C14 1.365 . S
C13 C12 1.371 . S
C13 C23 1.386 . S
C13 H31 0.931 . S
C14 C12 1.365 . S
C14 C15 1.409 . S
C14 H32 0.929 . S
C15 C14 1.409 . S
C15 C16 1.380 . S
C15 H33 0.930 . S
C16 C15 1.380 . S
C16 C23 1.357 . S
C17 C8 1.511 . S
C17 C18 1.341 . S
C17 C19 1.371 . S
C18 C17 1.341 . S
C18 C22 1.394 . S
C18 H34 0.930 . S
C19 C17 1.371 . S
C19 C20 1.392 . S
C19 H35 0.931 . S
C20 C19 1.392 . S
C20 C21 1.331 . S
C20 H38 0.932 . S
C21 C20 1.331 . S
C21 C22 1.336 . S
C22 C18 1.394 . S
C22 C21 1.336 . S
C22 H37 0.929 . S
C23 C13 1.386 . S
C23 C16 1.357 . S
C23 H36 0.928 . S
H24 C0 0.931 . S
H25 C2 0.930 . S
H26 C4 0.929 . S
H27 C5 0.931 . S
H28 C7 0.930 . S
H29 C11 0.931 . S
H30 C9 0.931 . S
H31 C13 0.931 . S
H32 C14 0.929 . S
H33 C15 0.930 . S
H34 C18 0.930 . S
H35 C19 0.931 . S
H36 C23 0.928 . S
H37 C22 0.929 . S
H38 C20 0.932 . S
C39 C40 1.386 . S
C39 C41 1.397 . S
C39 H63 0.931 . S
C40 C39 1.386 . S
C40 C44 1.397 . S
C41 C39 1.397 . S
C41 C42 1.384 . S
C41 H64 0.930 . S
C42 C41 1.384 . S
C42 C43 1.377 . S
C42 C45 1.481 . S
C43 C42 1.377 . S
C43 C44 1.389 . S
C43 H65 0.929 . S
C44 C40 1.397 . S
C44 C43 1.389 . S
C44 H66 0.931 . S
C45 C42 1.481 . S
C45 C46 1.387 . S
C45 C50 1.390 . S
C46 C45 1.387 . S
C46 C47 1.401 . S
C46 H67 0.930 . S
C47 C46 1.401 . S
C47 C48 1.376 . S
C47 C56 1.511 . S
C48 C47 1.376 . S
C48 C49 1.392 . S
C48 H69 0.931 . S
C49 C48 1.392 . S
C49 C50 1.361 . S
C49 C51 1.500 . S
C50 C45 1.390 . S
C50 C49 1.361 . S
C50 H68 0.931 . S
C51 C49 1.500 . S
C51 C52 1.371 . S
C51 C53 1.365 . S
C52 C51 1.371 . S
C52 C62 1.386 . S
C52 H70 0.931 . S
C53 C51 1.365 . S
C53 C54 1.409 . S
C53 H71 0.929 . S
C54 C53 1.409 . S
C54 C55 1.380 . S
C54 H72 0.930 . S
C55 C54 1.380 . S
C55 C62 1.357 . S
C56 C47 1.511 . S
C56 C57 1.341 . S
C56 C58 1.371 . S
C57 C56 1.341 . S
C57 C61 1.394 . S
C57 H73 0.930 . S
C58 C56 1.371 . S
C58 C59 1.392 . S
C58 H74 0.931 . S
C59 C58 1.392 . S
C59 C60 1.331 . S
C59 H77 0.932 . S
C60 C59 1.331 . S
C60 C61 1.336 . S
C61 C57 1.394 . S
C61 C60 1.336 . S
C61 H76 0.929 . S
C62 C52 1.386 . S
C62 C55 1.357 . S
C62 H75 0.928 . S
H63 C39 0.931 . S
H64 C41 0.930 . S
H65 C43 0.929 . S
H66 C44 0.931 . S
H67 C46 0.930 . S
H68 C50 0.931 . S
H69 C48 0.931 . S
H70 C52 0.931 . S
H71 C53 0.929 . S
H72 C54 0.930 . S
H73 C57 0.930 . S
H74 C58 0.931 . S
H75 C62 0.928 . S
H76 C61 0.929 . S
H77 C59 0.932 . S
C78 C79 1.386 . S
C78 C80 1.397 . S
C78 H102 0.931 . S
C79 C78 1.386 . S
C79 C83 1.397 . S
C80 C78 1.397 . S
C80 C81 1.384 . S
C80 H103 0.930 . S
C81 C80 1.384 . S
C81 C82 1.377 . S
C81 C84 1.481 . S
C82 C81 1.377 . S
C82 C83 1.389 . S
C82 H104 0.929 . S
C83 C79 1.397 . S
C83 C82 1.389 . S
C83 H105 0.931 . S
C84 C81 1.481 . S
C84 C85 1.387 . S
C84 C89 1.390 . S
C85 C84 1.387 . S
C85 C86 1.401 . S
C85 H106 0.930 . S
C86 C85 1.401 . S
C86 C87 1.376 . S
C86 C95 1.511 . S
C87 C86 1.376 . S
C87 C88 1.392 . S
C87 H108 0.931 . S
C88 C87 1.392 . S
C88 C89 1.361 . S
C88 C90 1.500 . S
C89 C84 1.390 . S
C89 C88 1.361 . S
C89 H107 0.931 . S
C90 C88 1.500 . S
C90 C91 1.371 . S
C90 C92 1.365 . S
C91 C90 1.371 . S
C91 C101 1.386 . S
C91 H109 0.931 . S
C92 C90 1.365 . S
C92 C93 1.409 . S
C92 H110 0.929 . S
C93 C92 1.409 . S
C93 C94 1.380 . S
C93 H111 0.930 . S
C94 C93 1.380 . S
C94 C101 1.357 . S
C95 C86 1.511 . S
C95 C96 1.341 . S
C95 C97 1.371 . S
C96 C95 1.341 . S
C96 C100 1.394 . S
C96 H112 0.930 . S
C97 C95 1.371 . S
C97 C98 1.392 . S
C97 H113 0.931 . S
C98 C97 1.392 . S
C98 C99 1.331 . S
C98 H116 0.932 . S
C99 C98 1.331 . S
C99 C100 1.336 . S
C100 C96 1.394 . S
C100 C99 1.336 . S
C100 H115 0.929 . S
C101 C91 1.386 . S
C101 C94 1.357 . S
C101 H114 0.928 . S
H102 C78 0.931 . S
H103 C80 0.930 . S
H104 C82 0.929 . S
H105 C83 0.931 . S
H106 C85 0.930 . S
H107 C89 0.931 . S
H108 C87 0.931 . S
H109 C91 0.931 . S
H110 C92 0.929 . S
H111 C93 0.930 . S
H112 C96 0.930 . S
H113 C97 0.931 . S
H114 C101 0.928 . S
H115 C100 0.929 . S
H116 C98 0.932 . S
C117 C118 1.386 . S
C117 C119 1.397 . S
C117 H141 0.931 . S
C118 C117 1.386 . S
C118 C122 1.397 . S
C119 C117 1.397 . S
C119 C120 1.384 . S
C119 H142 0.930 . S
C120 C119 1.384 . S
C120 C121 1.377 . S
C120 C123 1.481 . S
C121 C120 1.377 . S
C121 C122 1.389 . S
C121 H143 0.929 . S
C122 C118 1.397 . S
C122 C121 1.389 . S
C122 H144 0.931 . S
C123 C120 1.481 . S
C123 C124 1.387 . S
C123 C128 1.390 . S
C124 C123 1.387 . S
C124 C125 1.401 . S
C124 H145 0.930 . S
C125 C124 1.401 . S
C125 C126 1.376 . S
C125 C134 1.511 . S
C126 C125 1.376 . S
C126 C127 1.392 . S
C126 H147 0.931 . S
C127 C126 1.392 . S
C127 C128 1.361 . S
C127 C129 1.500 . S
C128 C123 1.390 . S
C128 C127 1.361 . S
C128 H146 0.931 . S
C129 C127 1.500 . S
C129 C130 1.371 . S
C129 C131 1.365 . S
C130 C129 1.371 . S
C130 C140 1.386 . S
C130 H148 0.931 . S
C131 C129 1.365 . S
C131 C132 1.409 . S
C131 H149 0.929 . S
C132 C131 1.409 . S
C132 C133 1.380 . S
C132 H150 0.930 . S
C133 C132 1.380 . S
C133 C140 1.357 . S
C134 C125 1.511 . S
C134 C135 1.341 . S
C134 C136 1.371 . S
C135 C134 1.341 . S
C135 C139 1.394 . S
C135 H151 0.930 . S
C136 C134 1.371 . S
C136 C137 1.392 . S
C136 H152 0.931 . S
C137 C136 1.392 . S
C137 C138 1.331 . S
C137 H155 0.932 . S
C138 C137 1.331 . S
C138 C139 1.336 . S
C139 C135 1.394 . S
C139 C138 1.336 . S
C139 H154 0.929 . S
C140 C130 1.386 . S
C140 C133 1.357 . S
C140 H153 0.928 . S
H141 C117 0.931 . S
H142 C119 0.930 . S
H143 C121 0.929 . S
H144 C122 0.931 . S
H145 C124 0.930 . S
H146 C128 0.931 . S
H147 C126 0.931 . S
H148 C130 0.931 . S
H149 C131 0.929 . S
H150 C132 0.930 . S
H151 C135 0.930 . S
H152 C136 0.931 . S
H153 C140 0.928 . S
H154 C139 0.929 . S
H155 C137 0.932 . S
C156 C157 1.386 . S
C156 C158 1.397 . S
C156 H180 0.931 . S
C157 C156 1.386 . S
C157 C161 1.397 . S
C158 C156 1.397 . S
C158 C159 1.384 . S
C158 H181 0.930 . S
C159 C158 1.384 . S
C159 C160 1.377 . S
C159 C162 1.481 . S
C160 C159 1.377 . S
C160 C161 1.389 . S
C160 H182 0.929 . S
C161 C157 1.397 . S
C161 C160 1.389 . S
C161 H183 0.931 . S
C162 C159 1.481 . S
C162 C163 1.387 . S
C162 C167 1.390 . S
C163 C162 1.387 . S
C163 C164 1.401 . S
C163 H184 0.930 . S
C164 C163 1.401 . S
C164 C165 1.376 . S
C164 C173 1.511 . S
C165 C164 1.376 . S
C165 C166 1.392 . S
C165 H186 0.931 . S
C166 C165 1.392 . S
C166 C167 1.361 . S
C166 C168 1.500 . S
C167 C162 1.390 . S
C167 C166 1.361 . S
C167 H185 0.931 . S
C168 C166 1.500 . S
C168 C169 1.371 . S
C168 C170 1.365 . S
C169 C168 1.371 . S
C169 C179 1.386 . S
C169 H187 0.931 . S
C170 C168 1.365 . S
C170 C171 1.409 . S
C170 H188 0.929 . S
C171 C170 1.409 . S
C171 C172 1.380 . S
C171 H189 0.930 . S
C172 C171 1.380 . S
C172 C179 1.357 . S
C173 C164 1.511 . S
C173 C174 1.341 . S
C173 C175 1.371 . S
C174 C173 1.341 . S
C174 C178 1.394 . S
C174 H190 0.930 . S
C175 C173 1.371 . S
C175 C176 1.392 . S
C175 H191 0.931 . S
C176 C175 1.392 . S
C176 C177 1.331 . S
C176 H194 0.932 . S
C177 C176 1.331 . S
C177 C178 1.336 . S
C178 C174 1.394 . S
C178 C177 1.336 . S
C178 H193 0.929 . S
C179 C169 1.386 . S
C179 C172 1.357 . S
C179 H192 0.928 . S
H180 C156 0.931 . S
H181 C158 0.930 . S
H182 C160 0.929 . S
H183 C161 0.931 . S
H184 C163 0.930 . S
H185 C167 0.931 . S
H186 C165 0.931 . S
H187 C169 0.931 . S
H188 C170 0.929 . S
H189 C171 0.930 . S
H190 C174 0.930 . S
H191 C175 0.931 . S
H192 C179 0.928 . S
H193 C178 0.929 . S
H194 C176 0.932 . S
C195 C196 1.386 . S
C195 C197 1.397 . S
C195 H219 0.931 . S
C196 C195 1.386 . S
C196 C200 1.397 . S
C197 C195 1.397 . S
C197 C198 1.384 . S
C197 H220 0.930 . S
C198 C197 1.384 . S
C198 C199 1.377 . S
C198 C201 1.481 . S
C199 C198 1.377 . S
C199 C200 1.389 . S
C199 H221 0.929 . S
C200 C196 1.397 . S
C200 C199 1.389 . S
C200 H222 0.931 . S
C201 C198 1.481 . S
C201 C202 1.387 . S
C201 C206 1.390 . S
C202 C201 1.387 . S
C202 C203 1.401 . S
C202 H223 0.930 . S
C203 C202 1.401 . S
C203 C204 1.376 . S
C203 C212 1.511 . S
C204 C203 1.376 . S
C204 C205 1.392 . S
C204 H225 0.931 . S
C205 C204 1.392 . S
C205 C206 1.361 . S
C205 C207 1.500 . S
C206 C201 1.390 . S
C206 C205 1.361 . S
C206 H224 0.931 . S
C207 C205 1.500 . S
C207 C208 1.371 . S
C207 C209 1.365 . S
C208 C207 1.371 . S
C208 C218 1.386 . S
C208 H226 0.931 . S
C209 C207 1.365 . S
C209 C210 1.409 . S
C209 H227 0.929 . S
C210 C209 1.409 . S
C210 C211 1.380 . S
C210 H228 0.930 . S
C211 C210 1.380 . S
C211 C218 1.357 . S
C212 C203 1.511 . S
C212 C213 1.341 . S
C212 C214 1.371 . S
C213 C212 1.341 . S
C213 C217 1.394 . S
C213 H229 0.930 . S
C214 C212 1.371 . S
C214 C215 1.392 . S
C214 H230 0.931 . S
C215 C214 1.392 . S
C215 C216 1.331 . S
C215 H233 0.932 . S
C216 C215 1.331 . S
C216 C217 1.336 . S
C217 C213 1.394 . S
C217 C216 1.336 . S
C217 H232 0.929 . S
C218 C208 1.386 . S
C218 C211 1.357 . S
C218 H231 0.928 . S
H219 C195 0.931 . S
H220 C197 0.930 . S
H221 C199 0.929 . S
H222 C200 0.931 . S
H223 C202 0.930 . S
H224 C206 0.931 . S
H225 C204 0.931 . S
H226 C208 0.931 . S
H227 C209 0.929 . S
H228 C210 0.930 . S
H229 C213 0.930 . S
H230 C214 0.931 . S
H231 C218 0.928 . S
H232 C217 0.929 . S
H233 C215 0.932 . S
C234 C235 1.386 . S
C234 C236 1.397 . S
C234 H258 0.931 . S
C235 C234 1.386 . S
C235 C239 1.397 . S
C236 C234 1.397 . S
C236 C237 1.384 . S
C236 H259 0.930 . S
C237 C236 1.384 . S
C237 C238 1.377 . S
C237 C240 1.481 . S
C238 C237 1.377 . S
C238 C239 1.389 . S
C238 H260 0.929 . S
C239 C235 1.397 . S
C239 C238 1.389 . S
C239 H261 0.931 . S
C240 C237 1.481 . S
C240 C241 1.387 . S
C240 C245 1.390 . S
C241 C240 1.387 . S
C241 C242 1.401 . S
C241 H262 0.930 . S
C242 C241 1.401 . S
C242 C243 1.376 . S
C242 C251 1.511 . S
C243 C242 1.376 . S
C243 C244 1.392 . S
C243 H264 0.931 . S
C244 C243 1.392 . S
C244 C245 1.361 . S
C244 C246 1.500 . S
C245 C240 1.390 . S
C245 C244 1.361 . S
C245 H263 0.931 . S
C246 C244 1.500 . S
C246 C247 1.371 . S
C246 C248 1.365 . S
C247 C246 1.371 . S
C247 C257 1.386 . S
C247 H265 0.931 . S
C248 C246 1.365 . S
C248 C249 1.409 . S
C248 H266 0.929 . S
C249 C248 1.409 . S
C249 C250 1.380 . S
C249 H267 0.930 . S
C250 C249 1.380 . S
C250 C257 1.357 . S
C251 C242 1.511 . S
C251 C252 1.341 . S
C251 C253 1.371 . S
C252 C251 1.341 . S
C252 C256 1.394 . S
C252 H268 0.930 . S
C253 C251 1.371 . S
C253 C254 1.392 . S
C253 H269 0.931 . S
C254 C253 1.392 . S
C254 C255 1.331 . S
C254 H272 0.932 . S
C255 C254 1.331 . S
C255 C256 1.336 . S
C256 C252 1.394 . S
C256 C255 1.336 . S
C256 H271 0.929 . S
C257 C247 1.386 . S
C257 C250 1.357 . S
C257 H270 0.928 . S
H258 C234 0.931 . S
H259 C236 0.930 . S
H260 C238 0.929 . S
H261 C239 0.931 . S
H262 C241 0.930 . S
H263 C245 0.931 . S
H264 C243 0.931 . S
H265 C247 0.931 . S
H266 C248 0.929 . S
H267 C249 0.930 . S
H268 C252 0.930 . S
H269 C253 0.931 . S
H270 C257 0.928 . S
H271 C256 0.929 . S
H272 C254 0.932 . S
C273 C274 1.386 . S
C273 C275 1.397 . S
C273 H297 0.931 . S
C274 C273 1.386 . S
C274 C278 1.397 . S
C275 C273 1.397 . S
C275 C276 1.384 . S
C275 H298 0.930 . S
C276 C275 1.384 . S
C276 C277 1.377 . S
C276 C279 1.481 . S
C277 C276 1.377 . S
C277 C278 1.389 . S
C277 H299 0.929 . S
C278 C274 1.397 . S
C278 C277 1.389 . S
C278 H300 0.931 . S
C279 C276 1.481 . S
C279 C280 1.387 . S
C279 C284 1.390 . S
C280 C279 1.387 . S
C280 C281 1.401 . S
C280 H301 0.930 . S
C281 C280 1.401 . S
C281 C282 1.376 . S
C281 C290 1.511 . S
C282 C281 1.376 . S
C282 C283 1.392 . S
C282 H303 0.931 . S
C283 C282 1.392 . S
C283 C284 1.361 . S
C283 C285 1.500 . S
C284 C279 1.390 . S
C284 C283 1.361 . S
C284 H302 0.931 . S
C285 C283 1.500 . S
C285 C286 1.371 . S
C285 C287 1.365 . S
C286 C285 1.371 . S
C286 C296 1.386 . S
C286 H304 0.931 . S
C287 C285 1.365 . S
C287 C288 1.409 . S
C287 H305 0.929 . S
C288 C287 1.409 . S
C288 C289 1.380 . S
C288 H306 0.930 . S
C289 C288 1.380 . S
C289 C296 1.357 . S
C290 C281 1.511 . S
C290 C291 1.341 . S
C290 C292 1.371 . S
C291 C290 1.341 . S
C291 C295 1.394 . S
C291 H307 0.930 . S
C292 C290 1.371 . S
C292 C293 1.392 . S
C292 H308 0.931 . S
C293 C292 1.392 . S
C293 C294 1.331 . S
C293 H311 0.932 . S
C294 C293 1.331 . S
C294 C295 1.336 . S
C295 C291 1.394 . S
C295 C294 1.336 . S
C295 H310 0.929 . S
C296 C286 1.386 . S
C296 C289 1.357 . S
C296 H309 0.928 . S
H297 C273 0.931 . S
H298 C275 0.930 . S
H299 C277 0.929 . S
H300 C278 0.931 . S
H301 C280 0.930 . S
H302 C284 0.931 . S
H303 C282 0.931 . S
H304 C286 0.931 . S
H305 C287 0.929 . S
H306 C288 0.930 . S
H307 C291 0.930 . S
H308 C292 0.931 . S
H309 C296 0.928 . S
H310 C295 0.929 . S
H311 C293 0.932 . S
Ho312 C315 2.811 . S
Ho312 O332 2.322 . S
Ho312 O334 2.378 . S
Ho312 O335 2.524 . S
Ho312 O336 2.381 1_545 S
Ho312 O337 2.669 1_545 S
Ho312 O339 2.346 1_445 S
Ho312 O343 2.305 1_455 S
Ho313 C324 2.780 1_545 S
Ho313 O333 2.381 1_655 S
Ho313 O337 2.288 1_645 S
Ho313 O338 2.296 1_545 S
Ho313 O340 2.361 1_545 S
Ho313 O341 2.484 1_545 S
Ho313 O342 2.405 . S
Ho313 O343 2.689 . S
C314 O332 1.259 . S
C314 O333 1.268 . S
C315 Ho312 2.811 . S
C315 C316 1.488 . S
C315 O334 1.215 . S
C315 O335 1.289 . S
C316 C315 1.488 . S
C316 C317 1.348 . S
C316 C321 1.413 . S
C317 C316 1.348 . S
C317 C318 1.442 . S
C317 H344 0.930 . S
C318 C317 1.442 . S
C318 C319 1.381 . S
C318 H345 0.931 . S
C319 C318 1.381 . S
C319 C320 1.321 . S
C320 C319 1.321 . S
C320 C321 1.403 . S
C320 H346 0.934 . S
C321 C316 1.413 . S
C321 C320 1.403 . S
C321 H347 0.930 . S
C322 O336 1.275 . S
C322 O337 1.256 . S
C323 O338 1.259 . S
C323 O339 1.268 . S
C324 Ho313 2.780 1_565 S
C324 C325 1.488 . S
C324 O340 1.215 . S
C324 O341 1.289 . S
C325 C324 1.488 . S
C325 C326 1.348 . S
C325 C330 1.413 . S
C326 C325 1.348 . S
C326 C327 1.442 . S
C326 H348 0.930 . S
C327 C326 1.442 . S
C327 C328 1.381 . S
C327 H349 0.931 . S
C328 C327 1.381 . S
C328 C329 1.321 . S
C329 C328 1.321 . S
C329 C330 1.403 . S
C329 H350 0.934 . S
C330 C325 1.413 . S
C330 C329 1.403 . S
C330 H351 0.930 . S
C331 O342 1.275 . S
C331 O343 1.256 . S
O332 Ho312 2.322 . S
O332 C314 1.259 . S
O333 Ho313 2.381 1_455 S
O333 C314 1.268 . S
O334 Ho312 2.378 . S
O334 C315 1.215 . S
O335 Ho312 2.524 . S
O335 C315 1.289 . S
O336 Ho312 2.381 1_565 S
O336 C322 1.275 . S
O337 Ho312 2.669 1_565 S
O337 Ho313 2.288 1_465 S
O337 C322 1.256 . S
O338 Ho313 2.296 1_565 S
O338 C323 1.259 . S
O339 Ho312 2.346 1_665 S
O339 C323 1.268 . S
O340 Ho313 2.361 1_565 S
O340 C324 1.215 . S
O341 Ho313 2.484 1_565 S
O341 C324 1.289 . S
O342 Ho313 2.405 . S
O342 C331 1.275 . S
O343 Ho312 2.305 1_655 S
O343 Ho313 2.689 . S
O343 C331 1.256 . S
H344 C317 0.930 . S
H345 C318 0.931 . S
H346 C320 0.934 . S
H347 C321 0.930 . S
H348 C326 0.930 . S
H349 C327 0.931 . S
H350 C329 0.934 . S
H351 C330 0.930 . S
Ho352 C355 2.811 . S
Ho352 O372 2.322 . S
Ho352 O374 2.378 . S
Ho352 O375 2.524 . S
Ho352 O376 2.381 1_545 S
Ho352 O377 2.669 1_545 S
Ho352 O379 2.346 1_544 S
Ho352 O383 2.305 1_554 S
Ho353 C364 2.811 1_545 S
Ho353 O373 2.346 1_556 S
Ho353 O377 2.305 1_546 S
Ho353 O378 2.322 1_545 S
Ho353 O380 2.378 1_545 S
Ho353 O381 2.524 1_545 S
Ho353 O382 2.381 . S
Ho353 O383 2.669 . S
C354 O372 1.259 . S
C354 O373 1.268 . S
C355 Ho352 2.811 . S
C355 C356 1.488 . S
C355 O374 1.215 . S
C355 O375 1.289 . S
C356 C355 1.488 . S
C356 C357 1.348 . S
C356 C361 1.413 . S
C357 C356 1.348 . S
C357 C358 1.442 . S
C357 H384 0.930 . S
C358 C357 1.442 . S
C358 C359 1.381 . S
C358 H385 0.931 . S
C359 C358 1.381 . S
C359 C360 1.321 . S
C360 C359 1.321 . S
C360 C361 1.403 . S
C360 H386 0.934 . S
C361 C356 1.413 . S
C361 C360 1.403 . S
C361 H387 0.930 . S
C362 O376 1.275 . S
C362 O377 1.256 . S
C363 O378 1.259 . S
C363 O379 1.268 . S
C364 Ho353 2.811 1_565 S
C364 C365 1.488 . S
C364 O380 1.215 . S
C364 O381 1.289 . S
C365 C364 1.488 . S
C365 C366 1.348 . S
C365 C370 1.413 . S
C366 C365 1.348 . S
C366 C367 1.442 . S
C366 H388 0.930 . S
C367 C366 1.442 . S
C367 C368 1.381 . S
C367 H389 0.931 . S
C368 C367 1.381 . S
C368 C369 1.321 . S
C369 C368 1.321 . S
C369 C370 1.403 . S
C369 H390 0.934 . S
C370 C365 1.413 . S
C370 C369 1.403 . S
C370 H391 0.930 . S
C371 O382 1.275 . S
C371 O383 1.256 . S
O372 Ho352 2.322 . S
O372 C354 1.259 . S
O373 Ho353 2.346 1_554 S
O373 C354 1.268 . S
O374 Ho352 2.378 . S
O374 C355 1.215 . S
O375 Ho352 2.524 . S
O375 C355 1.289 . S
O376 Ho352 2.381 1_565 S
O376 C362 1.275 . S
O377 Ho352 2.669 1_565 S
O377 Ho353 2.305 1_564 S
O377 C362 1.256 . S
O378 Ho353 2.322 1_565 S
O378 C363 1.259 . S
O379 Ho352 2.346 1_566 S
O379 C363 1.268 . S
O380 Ho353 2.378 1_565 S
O380 C364 1.215 . S
O381 Ho353 2.524 1_565 S
O381 C364 1.289 . S
O382 Ho353 2.381 . S
O382 C371 1.275 . S
O383 Ho352 2.305 1_556 S
O383 Ho353 2.669 . S
O383 C371 1.256 . S
H384 C357 0.930 . S
H385 C358 0.931 . S
H386 C360 0.934 . S
H387 C361 0.930 . S
H388 C366 0.930 . S
H389 C367 0.931 . S
H390 C369 0.934 . S
H391 C370 0.930 . S
Ho392 C395 2.811 . S
Ho392 O412 2.322 . S
Ho392 O414 2.378 . S
Ho392 O415 2.524 . S
Ho392 O416 2.381 . S
Ho392 O417 2.669 . S
Ho392 O419 2.346 . S
Ho392 O423 2.305 . S
Ho393 C404 2.811 . S
Ho393 O413 2.346 . S
Ho393 O417 2.305 . S
Ho393 O418 2.322 . S
Ho393 O420 2.378 . S
Ho393 O421 2.524 . S
Ho393 O422 2.381 . S
Ho393 O423 2.669 . S
C394 O412 1.259 . S
C394 O413 1.268 . S
C395 Ho392 2.811 . S
C395 C396 1.488 . S
C395 O414 1.215 . S
C395 O415 1.289 . S
C396 C395 1.488 . S
C396 C397 1.348 . S
C396 C401 1.413 . S
C397 C396 1.348 . S
C397 C398 1.442 . S
C397 H424 0.930 . S
C398 C397 1.442 . S
C398 C399 1.381 . S
C398 H425 0.931 . S
C399 C398 1.381 . S
C399 C400 1.321 . S
C400 C399 1.321 . S
C400 C401 1.403 . S
C400 H426 0.934 . S
C401 C396 1.413 . S
C401 C400 1.403 . S
C401 H427 0.930 . S
C402 O416 1.275 . S
C402 O417 1.256 . S
C403 O418 1.259 . S
C403 O419 1.268 . S
C404 Ho393 2.811 . S
C404 C405 1.488 . S
C404 O420 1.215 . S
C404 O421 1.289 . S
C405 C404 1.488 . S
C405 C406 1.348 . S
C405 C410 1.413 . S
C406 C405 1.348 . S
C406 C407 1.442 . S
C406 H428 0.930 . S
C407 C406 1.442 . S
C407 C408 1.381 . S
C407 H429 0.931 . S
C408 C407 1.381 . S
C408 C409 1.321 . S
C409 C408 1.321 . S
C409 C410 1.403 . S
C409 H430 0.934 . S
C410 C405 1.413 . S
C410 C409 1.403 . S
C410 H431 0.930 . S
C411 O422 1.275 . S
C411 O423 1.256 . S
O412 Ho392 2.322 . S
O412 C394 1.259 . S
O413 Ho393 2.346 . S
O413 C394 1.268 . S
O414 Ho392 2.378 . S
O414 C395 1.215 . S
O415 Ho392 2.524 . S
O415 C395 1.289 . S
O416 Ho392 2.381 . S
O416 C402 1.275 . S
O417 Ho392 2.669 . S
O417 Ho393 2.305 . S
O417 C402 1.256 . S
O418 Ho393 2.322 . S
O418 C403 1.259 . S
O419 Ho392 2.346 . S
O419 C403 1.268 . S
O420 Ho393 2.378 . S
O420 C404 1.215 . S
O421 Ho393 2.524 . S
O421 C404 1.289 . S
O422 Ho393 2.381 . S
O422 C411 1.275 . S
O423 Ho392 2.305 . S
O423 Ho393 2.669 . S
O423 C411 1.256 . S
H424 C397 0.930 . S
H425 C398 0.931 . S
H426 C400 0.934 . S
H427 C401 0.930 . S
H428 C406 0.930 . S
H429 C407 0.931 . S
H430 C409 0.934 . S
H431 C410 0.930 . S
Ho432 C435 2.811 . S
Ho432 O452 2.322 . S
Ho432 O454 2.378 . S
Ho432 O455 2.524 . S
Ho432 O456 2.381 1_455 S
Ho432 O457 2.669 1_455 S
Ho432 O459 2.322 1_454 S
Ho432 O463 2.305 1_554 S
Ho433 C444 2.811 1_455 S
Ho433 O453 2.346 1_556 S
Ho433 O457 2.305 1_456 S
Ho433 O458 2.322 1_455 S
Ho433 O460 2.378 1_455 S
Ho433 O461 2.524 1_455 S
Ho433 O462 2.381 . S
Ho433 O463 2.669 . S
C434 O452 1.259 . S
C434 O453 1.268 . S
C435 Ho432 2.811 . S
C435 C436 1.488 . S
C435 O454 1.215 . S
C435 O455 1.289 . S
C436 C435 1.488 . S
C436 C437 1.348 . S
C436 C441 1.413 . S
C437 C436 1.348 . S
C437 C438 1.442 . S
C437 H464 0.930 . S
C438 C437 1.442 . S
C438 C439 1.381 . S
C438 H465 0.931 . S
C439 C438 1.381 . S
C439 C440 1.321 . S
C440 C439 1.321 . S
C440 C441 1.403 . S
C440 H466 0.934 . S
C441 C436 1.413 . S
C441 C440 1.403 . S
C441 H467 0.930 . S
C442 O456 1.275 . S
C442 O457 1.256 . S
C443 O458 1.259 . S
C443 O459 1.302 . S
C444 Ho433 2.811 1_655 S
C444 C445 1.488 . S
C444 O460 1.215 . S
C444 O461 1.289 . S
C445 C444 1.488 . S
C445 C446 1.348 . S
C445 C450 1.413 . S
C446 C445 1.348 . S
C446 C447 1.442 . S
C446 H468 0.930 . S
C447 C446 1.442 . S
C447 C448 1.381 . S
C447 H469 0.931 . S
C448 C447 1.381 . S
C448 C449 1.321 . S
C449 C448 1.321 . S
C449 C450 1.403 . S
C449 H470 0.934 . S
C450 C445 1.413 . S
C450 C449 1.403 . S
C450 H471 0.930 . S
C451 O462 1.275 . S
C451 O463 1.256 . S
O452 Ho432 2.322 . S
O452 C434 1.259 . S
O453 Ho433 2.346 1_554 S
O453 C434 1.268 . S
O454 Ho432 2.378 . S
O454 C435 1.215 . S
O455 Ho432 2.524 . S
O455 C435 1.289 . S
O456 Ho432 2.381 1_655 S
O456 C442 1.275 . S
O457 Ho432 2.669 1_655 S
O457 Ho433 2.305 1_654 S
O457 C442 1.256 . S
O458 Ho433 2.322 1_655 S
O458 C443 1.259 . S
O459 Ho432 2.322 1_656 S
O459 C443 1.302 . S
O460 Ho433 2.378 1_655 S
O460 C444 1.215 . S
O461 Ho433 2.524 1_655 S
O461 C444 1.289 . S
O462 Ho433 2.381 . S
O462 C451 1.275 . S
O463 Ho432 2.305 1_556 S
O463 Ho433 2.669 . S
O463 C451 1.256 . S
H464 C437 0.930 . S
H465 C438 0.931 . S
H466 C440 0.934 . S
H467 C441 0.930 . S
H468 C446 0.930 . S
H469 C447 0.931 . S
H470 C449 0.934 . S
H471 C450 0.930 . S
H472 C480 0.929 . S
H473 C482 0.930 . S
H474 C484 0.930 . S
H475 C487 0.929 . S
H476 C490 0.930 . S
H477 C492 0.960 . S
H478 C492 0.960 . S
H479 C492 0.960 . S
C480 H472 0.929 . S
C480 C481 1.377 . S
C480 C482 1.384 . S
C481 C480 1.377 . S
C481 C487 1.390 . S
C482 H473 0.930 . S
C482 C480 1.384 . S
C482 C483 1.372 . S
C483 C482 1.372 . S
C483 C484 1.400 . S
C483 C488 1.490 . S
C484 H474 0.930 . S
C484 C483 1.400 . S
C484 C487 1.386 . S
H485 C501 0.930 . S
H486 C502 0.931 . S
C487 H475 0.929 . S
C487 C481 1.390 . S
C487 C484 1.386 . S
C488 C483 1.490 . S
C488 C490 1.395 . S
C488 C491 1.403 . S
H489 C495 0.930 . S
C490 H476 0.930 . S
C490 C488 1.395 . S
C490 C493 1.403 . S
C491 C488 1.403 . S
C491 C492 1.524 . S
C491 C495 1.400 . S
C492 H477 0.960 . S
C492 H478 0.960 . S
C492 H479 0.960 . S
C492 C491 1.524 . S
C493 C490 1.403 . S
C493 C494 1.392 . S
C493 C497 1.495 . S
C494 C493 1.392 . S
C494 C495 1.385 . S
C494 C496 1.478 . S
C495 H489 0.930 . S
C495 C491 1.400 . S
C495 C494 1.385 . S
C496 C494 1.478 . S
C496 C498 1.381 . S
C496 C502 1.383 . S
C497 C493 1.495 . S
C497 H503 0.959 . S
C497 H504 0.961 . S
C497 H505 0.960 . S
C498 C496 1.381 . S
C498 C499 1.394 . S
C498 H506 0.930 . S
C499 C498 1.394 . S
C499 C500 1.383 . S
C499 H507 0.929 . S
C500 C499 1.383 . S
C500 C501 1.377 . S
C501 H485 0.930 . S
C501 C500 1.377 . S
C501 C502 1.379 . S
C502 H486 0.931 . S
C502 C496 1.383 . S
C502 C501 1.379 . S
H503 C497 0.959 . S
H504 C497 0.961 . S
H505 C497 0.960 . S
H506 C498 0.930 . S
H507 C499 0.929 . S
H508 C516 0.929 . S
H509 C518 0.930 . S
H510 C520 0.930 . S
H511 C523 0.929 . S
H512 C526 0.930 . S
H513 C528 0.960 . S
H514 C528 0.960 . S
H515 C528 0.960 . S
C516 H508 0.929 . S
C516 C517 1.377 . S
C516 C518 1.384 . S
C517 C516 1.377 . S
C517 C523 1.390 . S
C518 H509 0.930 . S
C518 C516 1.384 . S
C518 C519 1.372 . S
C519 C518 1.372 . S
C519 C520 1.400 . S
C519 C524 1.490 . S
C520 H510 0.930 . S
C520 C519 1.400 . S
C520 C523 1.386 . S
H521 C537 0.930 . S
H522 C538 0.931 . S
C523 H511 0.929 . S
C523 C517 1.390 . S
C523 C520 1.386 . S
C524 C519 1.490 . S
C524 C526 1.395 . S
C524 C527 1.403 . S
H525 C531 0.930 . S
C526 H512 0.930 . S
C526 C524 1.395 . S
C526 C529 1.403 . S
C527 C524 1.403 . S
C527 C528 1.524 . S
C527 C531 1.400 . S
C528 H513 0.960 . S
C528 H514 0.960 . S
C528 H515 0.960 . S
C528 C527 1.524 . S
C529 C526 1.403 . S
C529 C530 1.392 . S
C529 C533 1.495 . S
C530 C529 1.392 . S
C530 C531 1.385 . S
C530 C532 1.478 . S
C531 H525 0.930 . S
C531 C527 1.400 . S
C531 C530 1.385 . S
C532 C530 1.478 . S
C532 C534 1.381 . S
C532 C538 1.383 . S
C533 C529 1.495 . S
C533 H539 0.959 . S
C533 H540 0.961 . S
C533 H541 0.960 . S
C534 C532 1.381 . S
C534 C535 1.394 . S
C534 H542 0.930 . S
C535 C534 1.394 . S
C535 C536 1.383 . S
C535 H543 0.929 . S
C536 C535 1.383 . S
C536 C537 1.377 . S
C537 H521 0.930 . S
C537 C536 1.377 . S
C537 C538 1.379 . S
C538 H522 0.931 . S
C538 C532 1.383 . S
C538 C537 1.379 . S
H539 C533 0.959 . S
H540 C533 0.961 . S
H541 C533 0.960 . S
H542 C534 0.930 . S
H543 C535 0.929 . S
H544 C552 0.929 . S
H545 C554 0.930 . S
H546 C556 0.930 . S
H547 C559 0.929 . S
H548 C562 0.930 . S
H549 C564 0.960 . S
H550 C564 0.960 . S
H551 C564 0.960 . S
C552 H544 0.929 . S
C552 C553 1.377 . S
C552 C554 1.384 . S
C553 C552 1.377 . S
C553 C559 1.390 . S
C554 H545 0.930 . S
C554 C552 1.384 . S
C554 C555 1.372 . S
C555 C554 1.372 . S
C555 C556 1.400 . S
C555 C560 1.490 . S
C556 H546 0.930 . S
C556 C555 1.400 . S
C556 C559 1.386 . S
H557 C573 0.930 . S
H558 C574 0.931 . S
C559 H547 0.929 . S
C559 C553 1.390 . S
C559 C556 1.386 . S
C560 C555 1.490 . S
C560 C562 1.395 . S
C560 C563 1.403 . S
H561 C567 0.930 . S
C562 H548 0.930 . S
C562 C560 1.395 . S
C562 C565 1.403 . S
C563 C560 1.403 . S
C563 C564 1.524 . S
C563 C567 1.400 . S
C564 H549 0.960 . S
C564 H550 0.960 . S
C564 H551 0.960 . S
C564 C563 1.524 . S
C565 C562 1.403 . S
C565 C566 1.392 . S
C565 C569 1.495 . S
C566 C565 1.392 . S
C566 C567 1.385 . S
C566 C568 1.478 . S
C567 H561 0.930 . S
C567 C563 1.400 . S
C567 C566 1.385 . S
C568 C566 1.478 . S
C568 C570 1.381 . S
C568 C574 1.383 . S
C569 C565 1.495 . S
C569 H575 0.959 . S
C569 H576 0.961 . S
C569 H577 0.960 . S
C570 C568 1.381 . S
C570 C571 1.394 . S
C570 H578 0.930 . S
C571 C570 1.394 . S
C571 C572 1.383 . S
C571 H579 0.929 . S
C572 C571 1.383 . S
C572 C573 1.377 . S
C573 H557 0.930 . S
C573 C572 1.377 . S
C573 C574 1.379 . S
C574 H558 0.931 . S
C574 C568 1.383 . S
C574 C573 1.379 . S
H575 C569 0.959 . S
H576 C569 0.961 . S
H577 C569 0.960 . S
H578 C570 0.930 . S
H579 C571 0.929 . S
H580 C588 0.929 . S
H581 C590 0.930 . S
H582 C592 0.930 . S
H583 C595 0.929 . S
H584 C598 0.930 . S
H585 C600 0.960 . S
H586 C600 0.960 . S
H587 C600 0.960 . S
C588 H580 0.929 . S
C588 C589 1.377 . S
C588 C590 1.384 . S
C589 C588 1.377 . S
C589 C595 1.390 . S
C590 H581 0.930 . S
C590 C588 1.384 . S
C590 C591 1.372 . S
C591 C590 1.372 . S
C591 C592 1.400 . S
C591 C596 1.490 . S
C592 H582 0.930 . S
C592 C591 1.400 . S
C592 C595 1.386 . S
H593 C609 0.930 . S
H594 C610 0.931 . S
C595 H583 0.929 . S
C595 C589 1.390 . S
C595 C592 1.386 . S
C596 C591 1.490 . S
C596 C598 1.395 . S
C596 C599 1.403 . S
H597 C603 0.930 . S
C598 H584 0.930 . S
C598 C596 1.395 . S
C598 C601 1.403 . S
C599 C596 1.403 . S
C599 C600 1.524 . S
C599 C603 1.400 . S
C600 H585 0.960 . S
C600 H586 0.960 . S
C600 H587 0.960 . S
C600 C599 1.524 . S
C601 C598 1.403 . S
C601 C602 1.392 . S
C601 C605 1.495 . S
C602 C601 1.392 . S
C602 C603 1.385 . S
C602 C604 1.478 . S
C603 H597 0.930 . S
C603 C599 1.400 . S
C603 C602 1.385 . S
C604 C602 1.478 . S
C604 C606 1.381 . S
C604 C610 1.383 . S
C605 C601 1.495 . S
C605 H611 0.959 . S
C605 H612 0.961 . S
C605 H613 0.960 . S
C606 C604 1.381 . S
C606 C607 1.394 . S
C606 H614 0.930 . S
C607 C606 1.394 . S
C607 C608 1.383 . S
C607 H615 0.929 . S
C608 C607 1.383 . S
C608 C609 1.377 . S
C609 H593 0.930 . S
C609 C608 1.377 . S
C609 C610 1.379 . S
C610 H594 0.931 . S
C610 C604 1.383 . S
C610 C609 1.379 . S
H611 C605 0.959 . S
H612 C605 0.961 . S
H613 C605 0.960 . S
H614 C606 0.930 . S
H615 C607 0.929 . S
H616 C624 0.929 . S
H617 C626 0.930 . S
H618 C628 0.930 . S
H619 C631 0.929 . S
H620 C634 0.930 . S
H621 C636 0.960 . S
H622 C636 0.960 . S
H623 C636 0.960 . S
C624 H616 0.929 . S
C624 C625 1.377 . S
C624 C626 1.384 . S
C625 C624 1.377 . S
C625 C631 1.390 . S
C626 H617 0.930 . S
C626 C624 1.384 . S
C626 C627 1.372 . S
C627 C626 1.372 . S
C627 C628 1.400 . S
C627 C632 1.490 . S
C628 H618 0.930 . S
C628 C627 1.400 . S
C628 C631 1.386 . S
H629 C645 0.930 . S
H630 C646 0.931 . S
C631 H619 0.929 . S
C631 C625 1.390 . S
C631 C628 1.386 . S
C632 C627 1.490 . S
C632 C634 1.395 . S
C632 C635 1.403 . S
H633 C639 0.930 . S
C634 H620 0.930 . S
C634 C632 1.395 . S
C634 C637 1.403 . S
C635 C632 1.403 . S
C635 C636 1.524 . S
C635 C639 1.400 . S
C636 H621 0.960 . S
C636 H622 0.960 . S
C636 H623 0.960 . S
C636 C635 1.524 . S
C637 C634 1.403 . S
C637 C638 1.392 . S
C637 C641 1.495 . S
C638 C637 1.392 . S
C638 C639 1.385 . S
C638 C640 1.478 . S
C639 H633 0.930 . S
C639 C635 1.400 . S
C639 C638 1.385 . S
C640 C638 1.478 . S
C640 C642 1.381 . S
C640 C646 1.383 . S
C641 C637 1.495 . S
C641 H647 0.959 . S
C641 H648 0.961 . S
C641 H649 0.960 . S
C642 C640 1.381 . S
C642 C643 1.394 . S
C642 H650 0.930 . S
C643 C642 1.394 . S
C643 C644 1.383 . S
C643 H651 0.929 . S
C644 C643 1.383 . S
C644 C645 1.377 . S
C645 H629 0.930 . S
C645 C644 1.377 . S
C645 C646 1.379 . S
C646 H630 0.931 . S
C646 C640 1.383 . S
C646 C645 1.379 . S
H647 C641 0.959 . S
H648 C641 0.961 . S
H649 C641 0.960 . S
H650 C642 0.930 . S
H651 C643 0.929 . S
H652 C660 0.929 . S
H653 C662 0.930 . S
H654 C664 0.930 . S
H655 C667 0.929 . S
H656 C670 0.930 . S
H657 C672 0.960 . S
H658 C672 0.960 . S
H659 C672 0.960 . S
C660 H652 0.929 . S
C660 C661 1.377 . S
C660 C662 1.384 . S
C661 C660 1.377 . S
C661 C667 1.390 . S
C662 H653 0.930 . S
C662 C660 1.384 . S
C662 C663 1.372 . S
C663 C662 1.372 . S
C663 C664 1.400 . S
C663 C668 1.490 . S
C664 H654 0.930 . S
C664 C663 1.400 . S
C664 C667 1.386 . S
H665 C681 0.930 . S
H666 C682 0.931 . S
C667 H655 0.929 . S
C667 C661 1.390 . S
C667 C664 1.386 . S
C668 C663 1.490 . S
C668 C670 1.395 . S
C668 C671 1.403 . S
H669 C675 0.930 . S
C670 H656 0.930 . S
C670 C668 1.395 . S
C670 C673 1.403 . S
C671 C668 1.403 . S
C671 C672 1.524 . S
C671 C675 1.400 . S
C672 H657 0.960 . S
C672 H658 0.960 . S
C672 H659 0.960 . S
C672 C671 1.524 . S
C673 C670 1.403 . S
C673 C674 1.392 . S
C673 C677 1.495 . S
C674 C673 1.392 . S
C674 C675 1.385 . S
C674 C676 1.478 . S
C675 H669 0.930 . S
C675 C671 1.400 . S
C675 C674 1.385 . S
C676 C674 1.478 . S
C676 C678 1.381 . S
C676 C682 1.383 . S
C677 C673 1.495 . S
C677 H683 0.959 . S
C677 H684 0.961 . S
C677 H685 0.960 . S
C678 C676 1.381 . S
C678 C679 1.394 . S
C678 H686 0.930 . S
C679 C678 1.394 . S
C679 C680 1.383 . S
C679 H687 0.929 . S
C680 C679 1.383 . S
C680 C681 1.377 . S
C681 H665 0.930 . S
C681 C680 1.377 . S
C681 C682 1.379 . S
C682 H666 0.931 . S
C682 C676 1.383 . S
C682 C681 1.379 . S
H683 C677 0.959 . S
H684 C677 0.961 . S
H685 C677 0.960 . S
H686 C678 0.930 . S
H687 C679 0.929 . S
H688 C696 0.929 . S
H689 C698 0.930 . S
H690 C700 0.930 . S
H691 C703 0.929 . S
H692 C706 0.930 . S
H693 C708 0.960 . S
H694 C708 0.960 . S
H695 C708 0.960 . S
C696 H688 0.929 . S
C696 C697 1.377 . S
C696 C698 1.384 . S
C697 C696 1.377 . S
C697 C703 1.390 . S
C698 H689 0.930 . S
C698 C696 1.384 . S
C698 C699 1.372 . S
C699 C698 1.372 . S
C699 C700 1.400 . S
C699 C704 1.490 . S
C700 H690 0.930 . S
C700 C699 1.400 . S
C700 C703 1.386 . S
H701 C717 0.930 . S
H702 C718 0.931 . S
C703 H691 0.929 . S
C703 C697 1.390 . S
C703 C700 1.386 . S
C704 C699 1.490 . S
C704 C706 1.395 . S
C704 C707 1.403 . S
H705 C711 0.930 . S
C706 H692 0.930 . S
C706 C704 1.395 . S
C706 C709 1.403 . S
C707 C704 1.403 . S
C707 C708 1.524 . S
C707 C711 1.400 . S
C708 H693 0.960 . S
C708 H694 0.960 . S
C708 H695 0.960 . S
C708 C707 1.524 . S
C709 C706 1.403 . S
C709 C710 1.392 . S
C709 C713 1.495 . S
C710 C709 1.392 . S
C710 C711 1.385 . S
C710 C712 1.478 . S
C711 H705 0.930 . S
C711 C707 1.400 . S
C711 C710 1.385 . S
C712 C710 1.478 . S
C712 C714 1.381 . S
C712 C718 1.383 . S
C713 C709 1.495 . S
C713 H719 0.959 . S
C713 H720 0.961 . S
C713 H721 0.960 . S
C714 C712 1.381 . S
C714 C715 1.394 . S
C714 H722 0.930 . S
C715 C714 1.394 . S
C715 C716 1.383 . S
C715 H723 0.929 . S
C716 C715 1.383 . S
C716 C717 1.377 . S
C717 H701 0.930 . S
C717 C716 1.377 . S
C717 C718 1.379 . S
C718 H702 0.931 . S
C718 C712 1.383 . S
C718 C717 1.379 . S
H719 C713 0.959 . S
H720 C713 0.961 . S
H721 C713 0.960 . S
H722 C714 0.930 . S
H723 C715 0.929 . S
H724 C732 0.929 . S
H725 C734 0.930 . S
H726 C736 0.930 . S
H727 C739 0.929 . S
H728 C742 0.930 . S
H729 C744 0.960 . S
H730 C744 0.960 . S
H731 C744 0.960 . S
C732 H724 0.929 . S
C732 C733 1.377 . S
C732 C734 1.384 . S
C733 C732 1.377 . S
C733 C739 1.390 . S
C734 H725 0.930 . S
C734 C732 1.384 . S
C734 C735 1.372 . S
C735 C734 1.372 . S
C735 C736 1.400 . S
C735 C740 1.490 . S
C736 H726 0.930 . S
C736 C735 1.400 . S
C736 C739 1.386 . S
H737 C753 0.930 . S
H738 C754 0.931 . S
C739 H727 0.929 . S
C739 C733 1.390 . S
C739 C736 1.386 . S
C740 C735 1.490 . S
C740 C742 1.395 . S
C740 C743 1.403 . S
H741 C747 0.930 . S
C742 H728 0.930 . S
C742 C740 1.395 . S
C742 C745 1.403 . S
C743 C740 1.403 . S
C743 C744 1.524 . S
C743 C747 1.400 . S
C744 H729 0.960 . S
C744 H730 0.960 . S
C744 H731 0.960 . S
C744 C743 1.524 . S
C745 C742 1.403 . S
C745 C746 1.392 . S
C745 C749 1.495 . S
C746 C745 1.392 . S
C746 C747 1.385 . S
C746 C748 1.478 . S
C747 H741 0.930 . S
C747 C743 1.400 . S
C747 C746 1.385 . S
C748 C746 1.478 . S
C748 C750 1.381 . S
C748 C754 1.383 . S
C749 C745 1.495 . S
C749 H755 0.959 . S
C749 H756 0.961 . S
C749 H757 0.960 . S
C750 C748 1.381 . S
C750 C751 1.394 . S
C750 H758 0.930 . S
C751 C750 1.394 . S
C751 C752 1.383 . S
C751 H759 0.929 . S
C752 C751 1.383 . S
C752 C753 1.377 . S
C753 H737 0.930 . S
C753 C752 1.377 . S
C753 C754 1.379 . S
C754 H738 0.931 . S
C754 C748 1.383 . S
C754 C753 1.379 . S
H755 C749 0.959 . S
H756 C749 0.961 . S
H757 C749 0.960 . S
H758 C750 0.930 . S
H759 C751 0.929 . S
H760 C768 0.929 . S
H761 C770 0.930 . S
H762 C772 0.930 . S
H763 C775 0.929 . S
H764 C778 0.930 . S
H765 C780 0.960 . S
H766 C780 0.960 . S
H767 C780 0.960 . S
C768 H760 0.929 . S
C768 C769 1.377 . S
C768 C770 1.384 . S
C769 C768 1.377 . S
C769 C775 1.390 . S
C770 H761 0.930 . S
C770 C768 1.384 . S
C770 C771 1.372 . S
C771 C770 1.372 . S
C771 C772 1.400 . S
C771 C776 1.490 . S
C772 H762 0.930 . S
C772 C771 1.400 . S
C772 C775 1.386 . S
H773 C789 0.930 . S
H774 C790 0.931 . S
C775 H763 0.929 . S
C775 C769 1.390 . S
C775 C772 1.386 . S
C776 C771 1.490 . S
C776 C778 1.395 . S
C776 C779 1.403 . S
H777 C783 0.930 . S
C778 H764 0.930 . S
C778 C776 1.395 . S
C778 C781 1.403 . S
C779 C776 1.403 . S
C779 C780 1.524 . S
C779 C783 1.400 . S
C780 H765 0.960 . S
C780 H766 0.960 . S
C780 H767 0.960 . S
C780 C779 1.524 . S
C781 C778 1.403 . S
C781 C782 1.392 . S
C781 C785 1.495 . S
C782 C781 1.392 . S
C782 C783 1.385 . S
C782 C784 1.478 . S
C783 H777 0.930 . S
C783 C779 1.400 . S
C783 C782 1.385 . S
C784 C782 1.478 . S
C784 C786 1.381 . S
C784 C790 1.383 . S
C785 C781 1.495 . S
C785 H791 0.959 . S
C785 H792 0.961 . S
C785 H793 0.960 . S
C786 C784 1.381 . S
C786 C787 1.394 . S
C786 H794 0.930 . S
C787 C786 1.394 . S
C787 C788 1.383 . S
C787 H795 0.929 . S
C788 C787 1.383 . S
C788 C789 1.377 . S
C789 H773 0.930 . S
C789 C788 1.377 . S
C789 C790 1.379 . S
C790 H774 0.931 . S
C790 C784 1.383 . S
C790 C789 1.379 . S
H791 C785 0.959 . S
H792 C785 0.961 . S
H793 C785 0.960 . S
H794 C786 0.930 . S
H795 C787 0.929 . S
H796 C804 0.929 . S
H797 C806 0.930 . S
H798 C808 0.930 . S
H799 C811 0.929 . S
H800 C814 0.930 . S
H801 C816 0.960 . S
H802 C816 0.960 . S
H803 C816 0.960 . S
C804 H796 0.929 . S
C804 C805 1.377 . S
C804 C806 1.384 . S
C805 C804 1.377 . S
C805 C811 1.390 . S
C806 H797 0.930 . S
C806 C804 1.384 . S
C806 C807 1.372 . S
C807 C806 1.372 . S
C807 C808 1.400 . S
C807 C812 1.490 . S
C808 H798 0.930 . S
C808 C807 1.400 . S
C808 C811 1.386 . S
H809 C825 0.930 . S
H810 C826 0.931 . S
C811 H799 0.929 . S
C811 C805 1.390 . S
C811 C808 1.386 . S
C812 C807 1.490 . S
C812 C814 1.395 . S
C812 C815 1.403 . S
H813 C819 0.930 . S
C814 H800 0.930 . S
C814 C812 1.395 . S
C814 C817 1.403 . S
C815 C812 1.403 . S
C815 C816 1.524 . S
C815 C819 1.400 . S
C816 H801 0.960 . S
C816 H802 0.960 . S
C816 H803 0.960 . S
C816 C815 1.524 . S
C817 C814 1.403 . S
C817 C818 1.392 . S
C817 C821 1.495 . S
C818 C817 1.392 . S
C818 C819 1.385 . S
C818 C820 1.478 . S
C819 H813 0.930 . S
C819 C815 1.400 . S
C819 C818 1.385 . S
C820 C818 1.478 . S
C820 C822 1.381 . S
C820 C826 1.383 . S
C821 C817 1.495 . S
C821 H827 0.959 . S
C821 H828 0.961 . S
C821 H829 0.960 . S
C822 C820 1.381 . S
C822 C823 1.394 . S
C822 H830 0.930 . S
C823 C822 1.394 . S
C823 C824 1.383 . S
C823 H831 0.929 . S
C824 C823 1.383 . S
C824 C825 1.377 . S
C825 H809 0.930 . S
C825 C824 1.377 . S
C825 C826 1.379 . S
C826 H810 0.931 . S
C826 C820 1.383 . S
C826 C825 1.379 . S
H827 C821 0.959 . S
H828 C821 0.961 . S
H829 C821 0.960 . S
H830 C822 0.930 . S
H831 C823 0.929 . S
H832 C840 0.929 . S
H833 C842 0.930 . S
H834 C844 0.930 . S
H835 C847 0.929 . S
H836 C850 0.930 . S
H837 C852 0.960 . S
H838 C852 0.960 . S
H839 C852 0.960 . S
C840 H832 0.929 . S
C840 C841 1.377 . S
C840 C842 1.384 . S
C841 C840 1.377 . S
C841 C847 1.390 . S
C842 H833 0.930 . S
C842 C840 1.384 . S
C842 C843 1.372 . S
C843 C842 1.372 . S
C843 C844 1.400 . S
C843 C848 1.490 . S
C844 H834 0.930 . S
C844 C843 1.400 . S
C844 C847 1.386 . S
H845 C861 0.930 . S
H846 C862 0.931 . S
C847 H835 0.929 . S
C847 C841 1.390 . S
C847 C844 1.386 . S
C848 C843 1.490 . S
C848 C850 1.395 . S
C848 C851 1.403 . S
H849 C855 0.930 . S
C850 H836 0.930 . S
C850 C848 1.395 . S
C850 C853 1.403 . S
C851 C848 1.403 . S
C851 C852 1.524 . S
C851 C855 1.400 . S
C852 H837 0.960 . S
C852 H838 0.960 . S
C852 H839 0.960 . S
C852 C851 1.524 . S
C853 C850 1.403 . S
C853 C854 1.392 . S
C853 C857 1.495 . S
C854 C853 1.392 . S
C854 C855 1.385 . S
C854 C856 1.478 . S
C855 H849 0.930 . S
C855 C851 1.400 . S
C855 C854 1.385 . S
C856 C854 1.478 . S
C856 C858 1.381 . S
C856 C862 1.383 . S
C857 C853 1.495 . S
C857 H863 0.959 . S
C857 H864 0.961 . S
C857 H865 0.960 . S
C858 C856 1.381 . S
C858 C859 1.394 . S
C858 H866 0.930 . S
C859 C858 1.394 . S
C859 C860 1.383 . S
C859 H867 0.929 . S
C860 C859 1.383 . S
C860 C861 1.377 . S
C861 H845 0.930 . S
C861 C860 1.377 . S
C861 C862 1.379 . S
C862 H846 0.931 . S
C862 C856 1.383 . S
C862 C861 1.379 . S
H863 C857 0.959 . S
H864 C857 0.961 . S
H865 C857 0.960 . S
H866 C858 0.930 . S
H867 C859 0.929 . S
H868 C876 0.929 . S
H869 C878 0.930 . S
H870 C880 0.930 . S
H871 C883 0.929 . S
H872 C886 0.930 . S
H873 C888 0.960 . S
H874 C888 0.960 . S
H875 C888 0.960 . S
C876 H868 0.929 . S
C876 C877 1.377 . S
C876 C878 1.384 . S
C877 C876 1.377 . S
C877 C883 1.390 . S
C878 H869 0.930 . S
C878 C876 1.384 . S
C878 C879 1.372 . S
C879 C878 1.372 . S
C879 C880 1.400 . S
C879 C884 1.490 . S
C880 H870 0.930 . S
C880 C879 1.400 . S
C880 C883 1.386 . S
H881 C897 0.930 . S
H882 C898 0.931 . S
C883 H871 0.929 . S
C883 C877 1.390 . S
C883 C880 1.386 . S
C884 C879 1.490 . S
C884 C886 1.395 . S
C884 C887 1.403 . S
H885 C891 0.930 . S
C886 H872 0.930 . S
C886 C884 1.395 . S
C886 C889 1.403 . S
C887 C884 1.403 . S
C887 C888 1.524 . S
C887 C891 1.400 . S
C888 H873 0.960 . S
C888 H874 0.960 . S
C888 H875 0.960 . S
C888 C887 1.524 . S
C889 C886 1.403 . S
C889 C890 1.392 . S
C889 C893 1.495 . S
C890 C889 1.392 . S
C890 C891 1.385 . S
C890 C892 1.478 . S
C891 H885 0.930 . S
C891 C887 1.400 . S
C891 C890 1.385 . S
C892 C890 1.478 . S
C892 C894 1.381 . S
C892 C898 1.383 . S
C893 C889 1.495 . S
C893 H899 0.959 . S
C893 H900 0.961 . S
C893 H901 0.960 . S
C894 C892 1.381 . S
C894 C895 1.394 . S
C894 H902 0.930 . S
C895 C894 1.394 . S
C895 C896 1.383 . S
C895 H903 0.929 . S
C896 C895 1.383 . S
C896 C897 1.377 . S
C897 H881 0.930 . S
C897 C896 1.377 . S
C897 C898 1.379 . S
C898 H882 0.931 . S
C898 C892 1.383 . S
C898 C897 1.379 . S
H899 C893 0.959 . S
H900 C893 0.961 . S
H901 C893 0.960 . S
H902 C894 0.930 . S
H903 C895 0.929 . S
H904 C912 0.929 . S
H905 C914 0.930 . S
H906 C916 0.930 . S
H907 C919 0.929 . S
H908 C922 0.930 . S
H909 C924 0.960 . S
H910 C924 0.960 . S
H911 C924 0.960 . S
C912 H904 0.929 . S
C912 C913 1.377 . S
C912 C914 1.384 . S
C913 C912 1.377 . S
C913 C919 1.390 . S
C914 H905 0.930 . S
C914 C912 1.384 . S
C914 C915 1.372 . S
C915 C914 1.372 . S
C915 C916 1.400 . S
C915 C920 1.490 . S
C916 H906 0.930 . S
C916 C915 1.400 . S
C916 C919 1.386 . S
H917 C933 0.930 . S
H918 C934 0.931 . S
C919 H907 0.929 . S
C919 C913 1.390 . S
C919 C916 1.386 . S
C920 C915 1.490 . S
C920 C922 1.395 . S
C920 C923 1.403 . S
H921 C927 0.930 . S
C922 H908 0.930 . S
C922 C920 1.395 . S
C922 C925 1.403 . S
C923 C920 1.403 . S
C923 C924 1.524 . S
C923 C927 1.400 . S
C924 H909 0.960 . S
C924 H910 0.960 . S
C924 H911 0.960 . S
C924 C923 1.524 . S
C925 C922 1.403 . S
C925 C926 1.392 . S
C925 C929 1.495 . S
C926 C925 1.392 . S
C926 C927 1.385 . S
C926 C928 1.478 . S
C927 H921 0.930 . S
C927 C923 1.400 . S
C927 C926 1.385 . S
C928 C926 1.478 . S
C928 C930 1.381 . S
C928 C934 1.383 . S
C929 C925 1.495 . S
C929 H935 0.959 . S
C929 H936 0.961 . S
C929 H937 0.960 . S
C930 C928 1.381 . S
C930 C931 1.394 . S
C930 H938 0.930 . S
C931 C930 1.394 . S
C931 C932 1.383 . S
C931 H939 0.929 . S
C932 C931 1.383 . S
C932 C933 1.377 . S
C933 H917 0.930 . S
C933 C932 1.377 . S
C933 C934 1.379 . S
C934 H918 0.931 . S
C934 C928 1.383 . S
C934 C933 1.379 . S
H935 C929 0.959 . S
H936 C929 0.961 . S
H937 C929 0.960 . S
H938 C930 0.930 . S
H939 C931 0.929 . S
H940 C948 0.929 . S
H941 C950 0.930 . S
H942 C952 0.930 . S
H943 C955 0.929 . S
H944 C958 0.930 . S
H945 C960 0.960 . S
H946 C960 0.960 . S
H947 C960 0.960 . S
C948 H940 0.929 . S
C948 C949 1.377 . S
C948 C950 1.384 . S
C949 C948 1.377 . S
C949 C955 1.390 . S
C950 H941 0.930 . S
C950 C948 1.384 . S
C950 C951 1.372 . S
C951 C950 1.372 . S
C951 C952 1.400 . S
C951 C956 1.490 . S
C952 H942 0.930 . S
C952 C951 1.400 . S
C952 C955 1.386 . S
H953 C969 0.930 . S
H954 C970 0.931 . S
C955 H943 0.929 . S
C955 C949 1.390 . S
C955 C952 1.386 . S
C956 C951 1.490 . S
C956 C958 1.395 . S
C956 C959 1.403 . S
H957 C963 0.930 . S
C958 H944 0.930 . S
C958 C956 1.395 . S
C958 C961 1.403 . S
C959 C956 1.403 . S
C959 C960 1.524 . S
C959 C963 1.400 . S
C960 H945 0.960 . S
C960 H946 0.960 . S
C960 H947 0.960 . S
C960 C959 1.524 . S
C961 C958 1.403 . S
C961 C962 1.392 . S
C961 C965 1.495 . S
C962 C961 1.392 . S
C962 C963 1.385 . S
C962 C964 1.478 . S
C963 H957 0.930 . S
C963 C959 1.400 . S
C963 C962 1.385 . S
C964 C962 1.478 . S
C964 C966 1.381 . S
C964 C970 1.383 . S
C965 C961 1.495 . S
C965 H971 0.959 . S
C965 H972 0.961 . S
C965 H973 0.960 . S
C966 C964 1.381 . S
C966 C967 1.394 . S
C966 H974 0.930 . S
C967 C966 1.394 . S
C967 C968 1.383 . S
C967 H975 0.929 . S
C968 C967 1.383 . S
C968 C969 1.377 . S
C969 H953 0.930 . S
C969 C968 1.377 . S
C969 C970 1.379 . S
C970 H954 0.931 . S
C970 C964 1.383 . S
C970 C969 1.379 . S
H971 C965 0.959 . S
H972 C965 0.961 . S
H973 C965 0.960 . S
H974 C966 0.930 . S
H975 C967 0.929 . S
H976 C984 0.929 . S
H977 C986 0.930 . S
H978 C988 0.930 . S
H979 C991 0.929 . S
H980 C994 0.930 . S
H981 C996 0.960 . S
H982 C996 0.960 . S
H983 C996 0.960 . S
C984 H976 0.929 . S
C984 C985 1.377 . S
C984 C986 1.384 . S
C985 C984 1.377 . S
C985 C991 1.390 . S
C986 H977 0.930 . S
C986 C984 1.384 . S
C986 C987 1.372 . S
C987 C986 1.372 . S
C987 C988 1.400 . S
C987 C992 1.490 . S
C988 H978 0.930 . S
C988 C987 1.400 . S
C988 C991 1.386 . S
H989 C1005 0.930 . S
H990 C1006 0.931 . S
C991 H979 0.929 . S
C991 C985 1.390 . S
C991 C988 1.386 . S
C992 C987 1.490 . S
C992 C994 1.395 . S
C992 C995 1.403 . S
H993 C999 0.930 . S
C994 H980 0.930 . S
C994 C992 1.395 . S
C994 C997 1.403 . S
C995 C992 1.403 . S
C995 C996 1.524 . S
C995 C999 1.400 . S
C996 H981 0.960 . S
C996 H982 0.960 . S
C996 H983 0.960 . S
C996 C995 1.524 . S
C997 C994 1.403 . S
C997 C998 1.392 . S
C997 C1001 1.495 . S
C998 C997 1.392 . S
C998 C999 1.385 . S
C998 C1000 1.478 . S
C999 H993 0.930 . S
C999 C995 1.400 . S
C999 C998 1.385 . S
C1000 C998 1.478 . S
C1000 C1002 1.381 . S
C1000 C1006 1.383 . S
C1001 C997 1.495 . S
C1001 H1007 0.959 . S
C1001 H1008 0.961 . S
C1001 H1009 0.960 . S
C1002 C1000 1.381 . S
C1002 C1003 1.394 . S
C1002 H1010 0.930 . S
C1003 C1002 1.394 . S
C1003 C1004 1.383 . S
C1003 H1011 0.929 . S
C1004 C1003 1.383 . S
C1004 C1005 1.377 . S
C1005 H989 0.930 . S
C1005 C1004 1.377 . S
C1005 C1006 1.379 . S
C1006 H990 0.931 . S
C1006 C1000 1.383 . S
C1006 C1005 1.379 . S
H1007 C1001 0.959 . S
H1008 C1001 0.961 . S
H1009 C1001 0.960 . S
H1010 C1002 0.930 . S
H1011 C1003 0.929 . S
H1012 C1020 0.929 . S
H1013 C1022 0.930 . S
H1014 C1024 0.930 . S
H1015 C1027 0.929 . S
H1016 C1030 0.930 . S
H1017 C1032 0.960 . S
H1018 C1032 0.960 . S
H1019 C1032 0.960 . S
C1020 H1012 0.929 . S
C1020 C1021 1.377 . S
C1020 C1022 1.384 . S
C1021 C1020 1.377 . S
C1021 C1027 1.390 . S
C1022 H1013 0.930 . S
C1022 C1020 1.384 . S
C1022 C1023 1.372 . S
C1023 C1022 1.372 . S
C1023 C1024 1.400 . S
C1023 C1028 1.490 . S
C1024 H1014 0.930 . S
C1024 C1023 1.400 . S
C1024 C1027 1.386 . S
H1025 C1041 0.930 . S
H1026 C1042 0.931 . S
C1027 H1015 0.929 . S
C1027 C1021 1.390 . S
C1027 C1024 1.386 . S
C1028 C1023 1.490 . S
C1028 C1030 1.395 . S
C1028 C1031 1.403 . S
H1029 C1035 0.930 . S
C1030 H1016 0.930 . S
C1030 C1028 1.395 . S
C1030 C1033 1.403 . S
C1031 C1028 1.403 . S
C1031 C1032 1.524 . S
C1031 C1035 1.400 . S
C1032 H1017 0.960 . S
C1032 H1018 0.960 . S
C1032 H1019 0.960 . S
C1032 C1031 1.524 . S
C1033 C1030 1.403 . S
C1033 C1034 1.392 . S
C1033 C1037 1.495 . S
C1034 C1033 1.392 . S
C1034 C1035 1.385 . S
C1034 C1036 1.478 . S
C1035 H1029 0.930 . S
C1035 C1031 1.400 . S
C1035 C1034 1.385 . S
C1036 C1034 1.478 . S
C1036 C1038 1.381 . S
C1036 C1042 1.383 . S
C1037 C1033 1.495 . S
C1037 H1043 0.959 . S
C1037 H1044 0.961 . S
C1037 H1045 0.960 . S
C1038 C1036 1.381 . S
C1038 C1039 1.394 . S
C1038 H1046 0.930 . S
C1039 C1038 1.394 . S
C1039 C1040 1.383 . S
C1039 H1047 0.929 . S
C1040 C1039 1.383 . S
C1040 C1041 1.377 . S
C1041 H1025 0.930 . S
C1041 C1040 1.377 . S
C1041 C1042 1.379 . S
C1042 H1026 0.931 . S
C1042 C1036 1.383 . S
C1042 C1041 1.379 . S
H1043 C1037 0.959 . S
H1044 C1037 0.961 . S
H1045 C1037 0.960 . S
H1046 C1038 0.930 . S
H1047 C1039 0.929 . S
H1048 C1056 0.929 . S
H1049 C1058 0.930 . S
H1050 C1060 0.930 . S
H1051 C1063 0.929 . S
H1052 C1066 0.930 . S
H1053 C1068 0.960 . S
H1054 C1068 0.960 . S
H1055 C1068 0.960 . S
C1056 H1048 0.929 . S
C1056 C1057 1.377 . S
C1056 C1058 1.384 . S
C1057 C1056 1.377 . S
C1057 C1063 1.390 . S
C1058 H1049 0.930 . S
C1058 C1056 1.384 . S
C1058 C1059 1.372 . S
C1059 C1058 1.372 . S
C1059 C1060 1.400 . S
C1059 C1064 1.490 . S
C1060 H1050 0.930 . S
C1060 C1059 1.400 . S
C1060 C1063 1.386 . S
H1061 C1077 0.930 . S
H1062 C1078 0.931 . S
C1063 H1051 0.929 . S
C1063 C1057 1.390 . S
C1063 C1060 1.386 . S
C1064 C1059 1.490 . S
C1064 C1066 1.395 . S
C1064 C1067 1.403 . S
H1065 C1071 0.930 . S
C1066 H1052 0.930 . S
C1066 C1064 1.395 . S
C1066 C1069 1.403 . S
C1067 C1064 1.403 . S
C1067 C1068 1.524 . S
C1067 C1071 1.400 . S
C1068 H1053 0.960 . S
C1068 H1054 0.960 . S
C1068 H1055 0.960 . S
C1068 C1067 1.524 . S
C1069 C1066 1.403 . S
C1069 C1070 1.392 . S
C1069 C1073 1.495 . S
C1070 C1069 1.392 . S
C1070 C1071 1.385 . S
C1070 C1072 1.478 . S
C1071 H1065 0.930 . S
C1071 C1067 1.400 . S
C1071 C1070 1.385 . S
C1072 C1070 1.478 . S
C1072 C1074 1.381 . S
C1072 C1078 1.383 . S
C1073 C1069 1.495 . S
C1073 H1079 0.959 . S
C1073 H1080 0.961 . S
C1073 H1081 0.960 . S
C1074 C1072 1.381 . S
C1074 C1075 1.394 . S
C1074 H1082 0.930 . S
C1075 C1074 1.394 . S
C1075 C1076 1.383 . S
C1075 H1083 0.929 . S
C1076 C1075 1.383 . S
C1076 C1077 1.377 . S
C1077 H1061 0.930 . S
C1077 C1076 1.377 . S
C1077 C1078 1.379 . S
C1078 H1062 0.931 . S
C1078 C1072 1.383 . S
C1078 C1077 1.379 . S
H1079 C1073 0.959 . S
H1080 C1073 0.961 . S
H1081 C1073 0.960 . S
H1082 C1074 0.930 . S
H1083 C1075 0.929 . S
H1084 C1092 0.929 . S
H1085 C1094 0.930 . S
H1086 C1096 0.930 . S
H1087 C1099 0.929 . S
H1088 C1102 0.930 . S
H1089 C1104 0.960 . S
H1090 C1104 0.960 . S
H1091 C1104 0.960 . S
C1092 H1084 0.929 . S
C1092 C1093 1.377 . S
C1092 C1094 1.384 . S
C1093 C1092 1.377 . S
C1093 C1099 1.390 . S
C1094 H1085 0.930 . S
C1094 C1092 1.384 . S
C1094 C1095 1.372 . S
C1095 C1094 1.372 . S
C1095 C1096 1.400 . S
C1095 C1100 1.490 . S
C1096 H1086 0.930 . S
C1096 C1095 1.400 . S
C1096 C1099 1.386 . S
H1097 C1113 0.930 . S
H1098 C1114 0.931 . S
C1099 H1087 0.929 . S
C1099 C1093 1.390 . S
C1099 C1096 1.386 . S
C1100 C1095 1.490 . S
C1100 C1102 1.395 . S
C1100 C1103 1.403 . S
H1101 C1107 0.930 . S
C1102 H1088 0.930 . S
C1102 C1100 1.395 . S
C1102 C1105 1.403 . S
C1103 C1100 1.403 . S
C1103 C1104 1.524 . S
C1103 C1107 1.400 . S
C1104 H1089 0.960 . S
C1104 H1090 0.960 . S
C1104 H1091 0.960 . S
C1104 C1103 1.524 . S
C1105 C1102 1.403 . S
C1105 C1106 1.392 . S
C1105 C1109 1.495 . S
C1106 C1105 1.392 . S
C1106 C1107 1.385 . S
C1106 C1108 1.478 . S
C1107 H1101 0.930 . S
C1107 C1103 1.400 . S
C1107 C1106 1.385 . S
C1108 C1106 1.478 . S
C1108 C1110 1.381 . S
C1108 C1114 1.383 . S
C1109 C1105 1.495 . S
C1109 H1115 0.959 . S
C1109 H1116 0.961 . S
C1109 H1117 0.960 . S
C1110 C1108 1.381 . S
C1110 C1111 1.394 . S
C1110 H1118 0.930 . S
C1111 C1110 1.394 . S
C1111 C1112 1.383 . S
C1111 H1119 0.929 . S
C1112 C1111 1.383 . S
C1112 C1113 1.377 . S
C1113 H1097 0.930 . S
C1113 C1112 1.377 . S
C1113 C1114 1.379 . S
C1114 H1098 0.931 . S
C1114 C1108 1.383 . S
C1114 C1113 1.379 . S
H1115 C1109 0.959 . S
H1116 C1109 0.961 . S
H1117 C1109 0.960 . S
H1118 C1110 0.930 . S
H1119 C1111 0.929 . S
H1120 C1128 0.929 . S
H1121 C1130 0.930 . S
H1122 C1132 0.930 . S
H1123 C1135 0.929 . S
H1124 C1138 0.930 . S
H1125 C1140 0.960 . S
H1126 C1140 0.960 . S
H1127 C1140 0.960 . S
C1128 H1120 0.929 . S
C1128 C1129 1.377 . S
C1128 C1130 1.384 . S
C1129 C1128 1.377 . S
C1129 C1135 1.390 . S
C1130 H1121 0.930 . S
C1130 C1128 1.384 . S
C1130 C1131 1.372 . S
C1131 C1130 1.372 . S
C1131 C1132 1.400 . S
C1131 C1136 1.490 . S
C1132 H1122 0.930 . S
C1132 C1131 1.400 . S
C1132 C1135 1.386 . S
H1133 C1149 0.930 . S
H1134 C1150 0.931 . S
C1135 H1123 0.929 . S
C1135 C1129 1.390 . S
C1135 C1132 1.386 . S
C1136 C1131 1.490 . S
C1136 C1138 1.395 . S
C1136 C1139 1.403 . S
H1137 C1143 0.930 . S
C1138 H1124 0.930 . S
C1138 C1136 1.395 . S
C1138 C1141 1.403 . S
C1139 C1136 1.403 . S
C1139 C1140 1.524 . S
C1139 C1143 1.400 . S
C1140 H1125 0.960 . S
C1140 H1126 0.960 . S
C1140 H1127 0.960 . S
C1140 C1139 1.524 . S
C1141 C1138 1.403 . S
C1141 C1142 1.392 . S
C1141 C1145 1.495 . S
C1142 C1141 1.392 . S
C1142 C1143 1.385 . S
C1142 C1144 1.478 . S
C1143 H1137 0.930 . S
C1143 C1139 1.400 . S
C1143 C1142 1.385 . S
C1144 C1142 1.478 . S
C1144 C1146 1.381 . S
C1144 C1150 1.383 . S
C1145 C1141 1.495 . S
C1145 H1151 0.959 . S
C1145 H1152 0.961 . S
C1145 H1153 0.960 . S
C1146 C1144 1.381 . S
C1146 C1147 1.394 . S
C1146 H1154 0.930 . S
C1147 C1146 1.394 . S
C1147 C1148 1.383 . S
C1147 H1155 0.929 . S
C1148 C1147 1.383 . S
C1148 C1149 1.377 . S
C1149 H1133 0.930 . S
C1149 C1148 1.377 . S
C1149 C1150 1.379 . S
C1150 H1134 0.931 . S
C1150 C1144 1.383 . S
C1150 C1149 1.379 . S
H1151 C1145 0.959 . S
H1152 C1145 0.961 . S
H1153 C1145 0.960 . S
H1154 C1146 0.930 . S
H1155 C1147 0.929 . S
H1156 C1164 0.929 . S
H1157 C1166 0.930 . S
H1158 C1168 0.930 . S
H1159 C1171 0.929 . S
H1160 C1174 0.930 . S
H1161 C1176 0.960 . S
H1162 C1176 0.960 . S
H1163 C1176 0.960 . S
C1164 H1156 0.929 . S
C1164 C1165 1.377 . S
C1164 C1166 1.384 . S
C1165 C1164 1.377 . S
C1165 C1171 1.390 . S
C1166 H1157 0.930 . S
C1166 C1164 1.384 . S
C1166 C1167 1.372 . S
C1167 C1166 1.372 . S
C1167 C1168 1.400 . S
C1167 C1172 1.490 . S
C1168 H1158 0.930 . S
C1168 C1167 1.400 . S
C1168 C1171 1.386 . S
H1169 C1185 0.930 . S
H1170 C1186 0.931 . S
C1171 H1159 0.929 . S
C1171 C1165 1.390 . S
C1171 C1168 1.386 . S
C1172 C1167 1.490 . S
C1172 C1174 1.395 . S
C1172 C1175 1.403 . S
H1173 C1179 0.930 . S
C1174 H1160 0.930 . S
C1174 C1172 1.395 . S
C1174 C1177 1.403 . S
C1175 C1172 1.403 . S
C1175 C1176 1.524 . S
C1175 C1179 1.400 . S
C1176 H1161 0.960 . S
C1176 H1162 0.960 . S
C1176 H1163 0.960 . S
C1176 C1175 1.524 . S
C1177 C1174 1.403 . S
C1177 C1178 1.392 . S
C1177 C1181 1.495 . S
C1178 C1177 1.392 . S
C1178 C1179 1.385 . S
C1178 C1180 1.478 . S
C1179 H1173 0.930 . S
C1179 C1175 1.400 . S
C1179 C1178 1.385 . S
C1180 C1178 1.478 . S
C1180 C1182 1.381 . S
C1180 C1186 1.383 . S
C1181 C1177 1.495 . S
C1181 H1187 0.959 . S
C1181 H1188 0.961 . S
C1181 H1189 0.960 . S
C1182 C1180 1.381 . S
C1182 C1183 1.394 . S
C1182 H1190 0.930 . S
C1183 C1182 1.394 . S
C1183 C1184 1.383 . S
C1183 H1191 0.929 . S
C1184 C1183 1.383 . S
C1184 C1185 1.377 . S
C1185 H1169 0.930 . S
C1185 C1184 1.377 . S
C1185 C1186 1.379 . S
C1186 H1170 0.931 . S
C1186 C1180 1.383 . S
C1186 C1185 1.379 . S
H1187 C1181 0.959 . S
H1188 C1181 0.961 . S
H1189 C1181 0.960 . S
H1190 C1182 0.930 . S
H1191 C1183 0.929 . S
H1192 C1200 0.929 . S
H1193 C1202 0.930 . S
H1194 C1204 0.930 . S
H1195 C1207 0.929 . S
H1196 C1210 0.930 . S
H1197 C1212 0.960 . S
H1198 C1212 0.960 . S
H1199 C1212 0.960 . S
C1200 H1192 0.929 . S
C1200 C1201 1.377 . S
C1200 C1202 1.384 . S
C1201 C1200 1.377 . S
C1201 C1207 1.390 . S
C1202 H1193 0.930 . S
C1202 C1200 1.384 . S
C1202 C1203 1.372 . S
C1203 C1202 1.372 . S
C1203 C1204 1.400 . S
C1203 C1208 1.490 . S
C1204 H1194 0.930 . S
C1204 C1203 1.400 . S
C1204 C1207 1.386 . S
H1205 C1221 0.930 . S
H1206 C1222 0.931 . S
C1207 H1195 0.929 . S
C1207 C1201 1.390 . S
C1207 C1204 1.386 . S
C1208 C1203 1.490 . S
C1208 C1210 1.395 . S
C1208 C1211 1.403 . S
H1209 C1215 0.930 . S
C1210 H1196 0.930 . S
C1210 C1208 1.395 . S
C1210 C1213 1.403 . S
C1211 C1208 1.403 . S
C1211 C1212 1.524 . S
C1211 C1215 1.400 . S
C1212 H1197 0.960 . S
C1212 H1198 0.960 . S
C1212 H1199 0.960 . S
C1212 C1211 1.524 . S
C1213 C1210 1.403 . S
C1213 C1214 1.392 . S
C1213 C1217 1.495 . S
C1214 C1213 1.392 . S
C1214 C1215 1.385 . S
C1214 C1216 1.478 . S
C1215 H1209 0.930 . S
C1215 C1211 1.400 . S
C1215 C1214 1.385 . S
C1216 C1214 1.478 . S
C1216 C1218 1.381 . S
C1216 C1222 1.383 . S
C1217 C1213 1.495 . S
C1217 H1223 0.959 . S
C1217 H1224 0.961 . S
C1217 H1225 0.960 . S
C1218 C1216 1.381 . S
C1218 C1219 1.394 . S
C1218 H1226 0.930 . S
C1219 C1218 1.394 . S
C1219 C1220 1.383 . S
C1219 H1227 0.929 . S
C1220 C1219 1.383 . S
C1220 C1221 1.377 . S
C1221 H1205 0.930 . S
C1221 C1220 1.377 . S
C1221 C1222 1.379 . S
C1222 H1206 0.931 . S
C1222 C1216 1.383 . S
C1222 C1221 1.379 . S
H1223 C1217 0.959 . S
H1224 C1217 0.961 . S
H1225 C1217 0.960 . S
H1226 C1218 0.930 . S
H1227 C1219 0.929 . S
H1228 C1236 0.929 . S
H1229 C1238 0.930 . S
H1230 C1240 0.930 . S
H1231 C1243 0.929 . S
H1232 C1246 0.930 . S
H1233 C1248 0.960 . S
H1234 C1248 0.960 . S
H1235 C1248 0.960 . S
C1236 H1228 0.929 . S
C1236 C1237 1.377 . S
C1236 C1238 1.384 . S
C1237 C1236 1.377 . S
C1237 C1243 1.390 . S
C1238 H1229 0.930 . S
C1238 C1236 1.384 . S
C1238 C1239 1.372 . S
C1239 C1238 1.372 . S
C1239 C1240 1.400 . S
C1239 C1244 1.490 . S
C1240 H1230 0.930 . S
C1240 C1239 1.400 . S
C1240 C1243 1.386 . S
H1241 C1257 0.930 . S
H1242 C1258 0.931 . S
C1243 H1231 0.929 . S
C1243 C1237 1.390 . S
C1243 C1240 1.386 . S
C1244 C1239 1.490 . S
C1244 C1246 1.395 . S
C1244 C1247 1.403 . S
H1245 C1251 0.930 . S
C1246 H1232 0.930 . S
C1246 C1244 1.395 . S
C1246 C1249 1.403 . S
C1247 C1244 1.403 . S
C1247 C1248 1.524 . S
C1247 C1251 1.400 . S
C1248 H1233 0.960 . S
C1248 H1234 0.960 . S
C1248 H1235 0.960 . S
C1248 C1247 1.524 . S
C1249 C1246 1.403 . S
C1249 C1250 1.392 . S
C1249 C1253 1.495 . S
C1250 C1249 1.392 . S
C1250 C1251 1.385 . S
C1250 C1252 1.478 . S
C1251 H1245 0.930 . S
C1251 C1247 1.400 . S
C1251 C1250 1.385 . S
C1252 C1250 1.478 . S
C1252 C1254 1.381 . S
C1252 C1258 1.383 . S
C1253 C1249 1.495 . S
C1253 H1259 0.959 . S
C1253 H1260 0.961 . S
C1253 H1261 0.960 . S
C1254 C1252 1.381 . S
C1254 C1255 1.394 . S
C1254 H1262 0.930 . S
C1255 C1254 1.394 . S
C1255 C1256 1.383 . S
C1255 H1263 0.929 . S
C1256 C1255 1.383 . S
C1256 C1257 1.377 . S
C1257 H1241 0.930 . S
C1257 C1256 1.377 . S
C1257 C1258 1.379 . S
C1258 H1242 0.931 . S
C1258 C1252 1.383 . S
C1258 C1257 1.379 . S
H1259 C1253 0.959 . S
H1260 C1253 0.961 . S
H1261 C1253 0.960 . S
H1262 C1254 0.930 . S
H1263 C1255 0.929 . S
H1264 C1272 0.929 . S
H1265 C1274 0.930 . S
H1266 C1276 0.930 . S
H1267 C1279 0.929 . S
H1268 C1282 0.930 . S
H1269 C1284 0.960 . S
H1270 C1284 0.960 . S
H1271 C1284 0.960 . S
C1272 H1264 0.929 . S
C1272 C1273 1.377 . S
C1272 C1274 1.384 . S
C1273 C1272 1.377 . S
C1273 C1279 1.390 . S
C1274 H1265 0.930 . S
C1274 C1272 1.384 . S
C1274 C1275 1.372 . S
C1275 C1274 1.372 . S
C1275 C1276 1.400 . S
C1275 C1280 1.490 . S
C1276 H1266 0.930 . S
C1276 C1275 1.400 . S
C1276 C1279 1.386 . S
H1277 C1293 0.930 . S
H1278 C1294 0.931 . S
C1279 H1267 0.929 . S
C1279 C1273 1.390 . S
C1279 C1276 1.386 . S
C1280 C1275 1.490 . S
C1280 C1282 1.395 . S
C1280 C1283 1.403 . S
H1281 C1287 0.930 . S
C1282 H1268 0.930 . S
C1282 C1280 1.395 . S
C1282 C1285 1.403 . S
C1283 C1280 1.403 . S
C1283 C1284 1.524 . S
C1283 C1287 1.400 . S
C1284 H1269 0.960 . S
C1284 H1270 0.960 . S
C1284 H1271 0.960 . S
C1284 C1283 1.524 . S
C1285 C1282 1.403 . S
C1285 C1286 1.392 . S
C1285 C1289 1.495 . S
C1286 C1285 1.392 . S
C1286 C1287 1.385 . S
C1286 C1288 1.478 . S
C1287 H1281 0.930 . S
C1287 C1283 1.400 . S
C1287 C1286 1.385 . S
C1288 C1286 1.478 . S
C1288 C1290 1.381 . S
C1288 C1294 1.383 . S
C1289 C1285 1.495 . S
C1289 H1295 0.959 . S
C1289 H1296 0.961 . S
C1289 H1297 0.960 . S
C1290 C1288 1.381 . S
C1290 C1291 1.394 . S
C1290 H1298 0.930 . S
C1291 C1290 1.394 . S
C1291 C1292 1.383 . S
C1291 H1299 0.929 . S
C1292 C1291 1.383 . S
C1292 C1293 1.377 . S
C1293 H1277 0.930 . S
C1293 C1292 1.377 . S
C1293 C1294 1.379 . S
C1294 H1278 0.931 . S
C1294 C1288 1.383 . S
C1294 C1293 1.379 . S
H1295 C1289 0.959 . S
H1296 C1289 0.961 . S
H1297 C1289 0.960 . S
H1298 C1290 0.930 . S
H1299 C1291 0.929 . S
H1300 C1308 0.929 . S
H1301 C1310 0.930 . S
H1302 C1312 0.930 . S
H1303 C1315 0.929 . S
H1304 C1318 0.930 . S
H1305 C1320 0.960 . S
H1306 C1320 0.960 . S
H1307 C1320 0.960 . S
C1308 H1300 0.929 . S
C1308 C1309 1.377 . S
C1308 C1310 1.384 . S
C1309 C1308 1.377 . S
C1309 C1315 1.390 . S
C1310 H1301 0.930 . S
C1310 C1308 1.384 . S
C1310 C1311 1.372 . S
C1311 C1310 1.372 . S
C1311 C1312 1.400 . S
C1311 C1316 1.490 . S
C1312 H1302 0.930 . S
C1312 C1311 1.400 . S
C1312 C1315 1.386 . S
H1313 C1329 0.930 . S
H1314 C1330 0.931 . S
C1315 H1303 0.929 . S
C1315 C1309 1.390 . S
C1315 C1312 1.386 . S
C1316 C1311 1.490 . S
C1316 C1318 1.395 . S
C1316 C1319 1.403 . S
H1317 C1323 0.930 . S
C1318 H1304 0.930 . S
C1318 C1316 1.395 . S
C1318 C1321 1.403 . S
C1319 C1316 1.403 . S
C1319 C1320 1.524 . S
C1319 C1323 1.400 . S
C1320 H1305 0.960 . S
C1320 H1306 0.960 . S
C1320 H1307 0.960 . S
C1320 C1319 1.524 . S
C1321 C1318 1.403 . S
C1321 C1322 1.392 . S
C1321 C1325 1.495 . S
C1322 C1321 1.392 . S
C1322 C1323 1.385 . S
C1322 C1324 1.478 . S
C1323 H1317 0.930 . S
C1323 C1319 1.400 . S
C1323 C1322 1.385 . S
C1324 C1322 1.478 . S
C1324 C1326 1.381 . S
C1324 C1330 1.383 . S
C1325 C1321 1.495 . S
C1325 H1331 0.959 . S
C1325 H1332 0.961 . S
C1325 H1333 0.960 . S
C1326 C1324 1.381 . S
C1326 C1327 1.394 . S
C1326 H1334 0.930 . S
C1327 C1326 1.394 . S
C1327 C1328 1.383 . S
C1327 H1335 0.929 . S
C1328 C1327 1.383 . S
C1328 C1329 1.377 . S
C1329 H1313 0.930 . S
C1329 C1328 1.377 . S
C1329 C1330 1.379 . S
C1330 H1314 0.931 . S
C1330 C1324 1.383 . S
C1330 C1329 1.379 . S
H1331 C1325 0.959 . S
H1332 C1325 0.961 . S
H1333 C1325 0.960 . S
H1334 C1326 0.930 . S
H1335 C1327 0.929 . S
C481 C1 1.239 . S
C500 C319 1.281 . S
C517 C40 0.949 . S
C536 C368 0.941 . S
C572 C394 2.443 . S
C553 C99 2.474 . S
C589 C118 2.309 . S
C608 C442 2.240 . S
C644 C354 2.522 . S
C625 C16 2.448 . S
C680 C322 0.885 . S
C661 C60 0.921 . S
C716 C443 1.859 . S
C697 C79 1.913 . S
C752 C411 1.457 . S
C733 C138 1.500 . S
C769 C21 1.730 . S
C788 C439 1.779 . S
C824 C371 2.313 . S
C805 C94 2.398 . S
C841 C133 2.317 . S
C860 C323 2.295 . S
C877 C55 0.725 . S
C896 C408 0.728 . S
C932 C328 1.266 . S
C913 C157 1.238 . S
C949 C196 0.955 . S
C968 C359 0.928 . S
C985 C255 2.472 . S
C1004 C403 2.436 . S
C1021 C289 2.308 . S
C1040 C451 2.264 . S
C1057 C172 2.436 . S
C1076 C363 2.522 . S
C1112 C331 0.904 . S
C1093 C216 0.922 . S
C1148 C434 1.885 . S
C1129 C235 1.913 . S
C1184 C402 1.489 . S
C1165 C294 1.499 . S
C1201 C177 1.744 . S
C1220 C448 1.781 . S
C1256 C362 2.327 . S
C1237 C250 2.402 . S
C1292 C314 2.302 . S
C1273 C274 2.320 . S
C1309 C211 0.712 . S
C1328 C399 0.733 . S
