# Generated by pormake.
# Topology anh, (6,3)-cn, num edge types: 1
# Building blocks:
#     Node 0, Type 0, BuildingBlock: PAMTOO_clean_sbu_0, # of connection points: 6
#     Node 1, Type 0, BuildingBlock: PAMTOO_clean_sbu_0, # of connection points: 6
#     Node 2, Type 0, BuildingBlock: PAMTOO_clean_sbu_0, # of connection points: 6
#     Node 3, Type 1, BuildingBlock: ESEHIV_clean_linker_0, # of connection points: 3
#     Node 4, Type 1, BuildingBlock: ESEHIV_clean_linker_0, # of connection points: 3
#     Node 5, Type 1, BuildingBlock: ESEHIV_clean_linker_0, # of connection points: 3
#     Node 6, Type 1, BuildingBlock: ESEHIV_clean_linker_0, # of connection points: 3
#     Node 7, Type 1, BuildingBlock: ESEHIV_clean_linker_0, # of connection points: 3
#     Node 8, Type 1, BuildingBlock: ESEHIV_clean_linker_0, # of connection points: 3
#     Edge 9, Type (0, 1), BuildingBlock: UVAHIK_clean_linker_0, # of connection points: 2
#     Edge 10, Type (0, 1), BuildingBlock: UVAHIK_clean_linker_0, # of connection points: 2
#     Edge 11, Type (0, 1), BuildingBlock: UVAHIK_clean_linker_0, # of connection points: 2
#     Edge 12, Type (0, 1), BuildingBlock: UVAHIK_clean_linker_0, # of connection points: 2
#     Edge 13, Type (0, 1), BuildingBlock: UVAHIK_clean_linker_0, # of connection points: 2
#     Edge 14, Type (0, 1), BuildingBlock: UVAHIK_clean_linker_0, # of connection points: 2
#     Edge 15, Type (0, 1), BuildingBlock: UVAHIK_clean_linker_0, # of connection points: 2
#     Edge 16, Type (0, 1), BuildingBlock: UVAHIK_clean_linker_0, # of connection points: 2
#     Edge 17, Type (0, 1), BuildingBlock: UVAHIK_clean_linker_0, # of connection points: 2
#     Edge 18, Type (0, 1), BuildingBlock: UVAHIK_clean_linker_0, # of connection points: 2
#     Edge 19, Type (0, 1), BuildingBlock: UVAHIK_clean_linker_0, # of connection points: 2
#     Edge 20, Type (0, 1), BuildingBlock: UVAHIK_clean_linker_0, # of connection points: 2
#     Edge 21, Type (0, 1), BuildingBlock: UVAHIK_clean_linker_0, # of connection points: 2
#     Edge 22, Type (0, 1), BuildingBlock: UVAHIK_clean_linker_0, # of connection points: 2
#     Edge 23, Type (0, 1), BuildingBlock: UVAHIK_clean_linker_0, # of connection points: 2
#     Edge 24, Type (0, 1), BuildingBlock: UVAHIK_clean_linker_0, # of connection points: 2
#     Edge 25, Type (0, 1), BuildingBlock: UVAHIK_clean_linker_0, # of connection points: 2
#     Edge 26, Type (0, 1), BuildingBlock: UVAHIK_clean_linker_0, # of connection points: 2
# Relax obj value: 0.179
# Max RMSD: 0.195
# Mean RMSD: 0.156
data_MOF--net-anh--node1-PAMTOO_clean_sbu_0--node2-ESEHIV_clean_linker_0--edge1-UVAHIK_clean_linker_0
_symmetry_space_group_name_H-M    P1
_symmetry_Int_Tables_number       1
_symmetry_cell_setting            triclinic
loop_
_symmetry_equiv_pos_as_xyz
'x, y, z'
_cell_length_a     36.567437
_cell_length_b     35.861865
_cell_length_c     70.49229
_cell_angle_alpha  90.753135
_cell_angle_beta   95.020022
_cell_angle_gamma 104.67833
loop_
_atom_site_label
_atom_site_type_symbol
_atom_site_fract_x
_atom_site_fract_y
_atom_site_fract_z
_atom_type_partial_charge
Dy0 Dy 0.06337 0.5789 0.13225 0.0
Dy1 Dy 1.03599 0.48325 0.12772 0.0
C2 C 1.04799 0.53558 0.09195 0.0
O3 O 1.00016 0.56505 0.13465 0.0
O4 O 0.98256 0.50288 0.12195 0.0
O5 O 0.0887 0.63313 0.11992 0.0
O6 O 0.06946 0.63244 0.14817 0.0
O7 O 1.02907 0.5003 0.15746 0.0
O8 O 0.07647 0.55594 0.16055 0.0
O9 O 0.09994 0.49592 0.13101 0.0
O10 O 0.11674 0.56167 0.12703 0.0
O11 O 1.03704 0.42753 0.13863 0.0
O12 O 1.00199 0.43131 0.11263 0.0
C13 C 0.97382 0.53436 0.12771 0.0
O14 O 1.03971 0.56249 0.10225 0.0
O15 O 0.05496 0.50479 0.09976 0.0
C16 C 0.12449 0.6813 0.14207 0.0
C17 C 0.19486 0.73457 0.15351 0.0
C18 C 0.17447 0.73791 0.136 0.0
C19 C 0.13967 0.71165 0.1304 0.0
C20 C 0.14466 0.67775 0.15957 0.0
C21 C 0.17937 0.70419 0.16526 0.0
C22 C 0.08832 0.65325 0.13541 0.0
C23 C 0.05357 0.52702 0.16814 0.0
C24 C 0.12562 0.52835 0.12855 0.0
C25 C 0.97737 0.38144 0.13321 0.0
C26 C 0.91353 0.32912 0.14637 0.0
C27 C 0.937 0.35866 0.15857 0.0
C28 C 0.9684 0.38462 0.15206 0.0
C29 C 0.9542 0.352 0.12101 0.0
C30 C 0.9226 0.32618 0.12748 0.0
C31 C 1.01009 0.40901 0.12597 0.0
H32 H 0.18567 0.76044 0.12641 0.0
H33 H 0.12476 0.7148 0.11678 0.0
H34 H 0.13374 0.6545 0.16884 0.0
H35 H 0.19389 0.70095 0.17895 0.0
H36 H 0.93138 0.36157 0.17327 0.0
H37 H 0.98562 0.40718 0.16179 0.0
H38 H 0.96039 0.34916 0.10639 0.0
H39 H 0.90495 0.30428 0.11756 0.0
Dy40 Dy 0.5461 0.01391 0.49466 0.0
Dy41 Dy 0.64007 0.03907 0.49886 0.0
C42 C 0.5936 0.02717 0.53498 0.0
O43 O 0.56089 0.07765 0.49065 0.0
O44 O 0.62258 0.0932 0.50434 0.0
O45 O 0.49375 0.98893 0.50695 0.0
O46 O 0.49229 0.00934 0.47818 0.0
O47 O 0.61901 0.05092 0.46947 0.0
O48 O 0.56624 0.00078 0.46692 0.0
O49 O 0.62509 0.9747 0.49441 0.0
O50 O 0.56307 0.96 0.50182 0.0
O51 O 0.69289 0.03842 0.48755 0.0
O52 O 0.69338 0.07018 0.514 0.0
C53 C 0.59178 0.10319 0.49778 0.0
O54 O 0.56605 0.03656 0.52446 0.0
O55 O 0.62182 0.01844 0.52716 0.0
C56 C 0.44383 0.95375 0.48486 0.0
C57 C 0.38757 0.88522 0.47338 0.0
C58 C 0.39837 0.89493 0.49281 0.0
C59 C 0.42602 0.92888 0.49847 0.0
C60 C 0.43309 0.94403 0.46542 0.0
C61 C 0.40531 0.91015 0.45976 0.0
C62 C 0.47274 0.98993 0.49112 0.0
C63 C 0.59253 0.02582 0.45893 0.0
C64 C 0.59403 0.94965 0.49862 0.0
C65 C 0.73966 0.09774 0.49339 0.0
C66 C 0.78968 0.16469 0.48076 0.0
C67 C 0.7576 0.14438 0.46891 0.0
C68 C 0.73276 0.11144 0.47518 0.0
C69 C 0.77164 0.11771 0.50522 0.0
C70 C 0.79636 0.15087 0.49902 0.0
C71 C 0.7132 0.06355 0.50041 0.0
H72 H 0.3849 0.87667 0.50367 0.0
H73 H 0.43332 0.93577 0.51356 0.0
H74 H 0.44605 0.96257 0.45454 0.0
H75 H 0.39792 0.90333 0.44467 0.0
H76 H 0.75176 0.15368 0.45467 0.0
H77 H 0.70812 0.09677 0.46578 0.0
H78 H 0.7773 0.10786 0.51938 0.0
H79 H 0.82036 0.166 0.50867 0.0
Dy80 Dy 0.58681 0.51016 0.81892 0.0
Dy81 Dy 0.49523 0.4832 0.80971 0.0
C82 C 0.54895 0.49476 0.77636 0.0
O83 O 0.56748 0.56333 0.82483 0.0
O84 O 0.51362 0.5462 0.80429 0.0
O85 O 0.64137 0.54823 0.81473 0.0
O86 O 0.63775 0.50001 0.83328 0.0
O87 O 0.5052 0.50437 0.84031 0.0
O88 O 0.56421 0.49432 0.84686 0.0
O89 O 0.51142 0.42875 0.81738 0.0
O90 O 0.57206 0.44825 0.80872 0.0
O91 O 0.43786 0.4658 0.81792 0.0
O92 O 0.4477 0.47371 0.78827 0.0
C93 C 0.53979 0.57265 0.81438 0.0
O94 O 0.57494 0.51821 0.78789 0.0
O95 O 0.51957 0.47133 0.78296 0.0
C96 C 0.68838 0.51323 0.81375 0.0
C97 C 0.7425 0.48711 0.79475 0.0
C98 C 0.72505 0.5144 0.78644 0.0
C99 C 0.69814 0.52727 0.79582 0.0
C100 C 0.70554 0.48563 0.82189 0.0
C101 C 0.73214 0.47257 0.81246 0.0
C102 C 0.65985 0.52623 0.82388 0.0
C103 C 0.53278 0.49984 0.85258 0.0
C104 C 0.54278 0.42073 0.81283 0.0
C105 C 0.40082 0.49918 0.7992 0.0
C106 C 0.36452 0.55892 0.79245 0.0
C107 C 0.39603 0.56417 0.80607 0.0
C108 C 0.41409 0.53468 0.80933 0.0
C109 C 0.3694 0.49363 0.78563 0.0
C110 C 0.35131 0.52326 0.78229 0.0
C111 C 0.4232 0.47056 0.80084 0.0
H112 H 0.73267 0.52621 0.77285 0.0
H113 H 0.68529 0.54843 0.78908 0.0
H114 H 0.69867 0.47438 0.83569 0.0
H115 H 0.74577 0.45223 0.81945 0.0
H116 H 0.40656 0.59093 0.8144 0.0
H117 H 0.43891 0.5399 0.81956 0.0
H118 H 0.35944 0.46676 0.77732 0.0
H119 H 0.32732 0.51841 0.77158 0.0
H120 H 0.52821 0.98684 0.2504 0.0
H121 H 0.62996 0.07919 0.25192 0.0
H122 H 0.56871 0.03371 0.19813 0.0
C123 C 0.54942 0.00677 0.24311 0.0
C124 C 0.54544 0.00657 0.22312 0.0
C125 C 0.57961 0.03295 0.25374 0.0
C126 C 0.6059 0.05953 0.24396 0.0
C127 C 0.60223 0.06023 0.22393 0.0
C128 C 0.57182 0.03355 0.21356 0.0
H129 H 0.57453 0.57944 0.57309 0.0
H130 H 0.58329 0.46232 0.57048 0.0
H131 H 0.58882 0.5277 0.51958 0.0
C132 C 0.57781 0.55485 0.56491 0.0
C133 C 0.58157 0.55782 0.54526 0.0
C134 C 0.57826 0.52052 0.57411 0.0
C135 C 0.58259 0.48891 0.56347 0.0
C136 C 0.5864 0.49127 0.54387 0.0
C137 C 0.58592 0.52581 0.53473 0.0
H138 H 0.0537 0.54851 0.88748 0.0
H139 H 0.14224 0.65363 0.89618 0.0
H140 H 0.09563 0.61242 0.83934 0.0
C141 C 0.07246 0.57323 0.88168 0.0
C142 C 0.07125 0.5773 0.86188 0.0
C143 C 0.09753 0.60086 0.89413 0.0
C144 C 0.12215 0.63271 0.88664 0.0
C145 C 0.12185 0.63686 0.86684 0.0
C146 C 0.09595 0.60932 0.85462 0.0
H147 H 1.01643 0.46875 0.37527 0.0
H148 H 0.10896 0.57039 0.3757 0.0
H149 H 0.07235 0.52303 0.4286 0.0
C150 C 1.03816 0.49137 0.38303 0.0
C151 C 1.04192 0.49205 0.40308 0.0
C152 C 0.06206 0.51962 0.37295 0.0
C153 C 0.08969 0.54895 0.38327 0.0
C154 C 0.09333 0.55085 0.40328 0.0
C155 C 0.06986 0.52177 0.41316 0.0
H156 H 0.56593 0.06163 0.74074 0.0
H157 H 0.55278 0.93922 0.73809 0.0
H158 H 0.54949 -0.00302 0.79173 0.0
C159 C 0.5616 0.03435 0.74777 0.0
C160 C 0.558 0.03346 0.76744 0.0
C161 C 0.55969 0.00058 0.73707 0.0
C162 C 0.55425 0.96545 0.74629 0.0
C163 C 0.55052 0.96373 0.76598 0.0
C164 C 0.55239 -0.00204 0.77656 0.0
H165 H 0.47693 0.52177 0.05998 0.0
H166 H 0.59546 0.5254 0.06009 0.0
H167 H 0.54696 0.53151 0.11318 0.0
C168 C 0.50453 0.5243 0.06763 0.0
C169 C 0.50811 0.52742 0.08765 0.0
C170 C 0.53575 0.52348 0.05747 0.0
C171 C 0.57101 0.52559 0.06771 0.0
C172 C 0.57559 0.5283 0.08773 0.0
C173 C 0.54397 0.52971 0.09775 0.0
C174 C 0.17648 0.49233 0.12541 0.0
C175 C 0.16609 0.52745 0.12678 0.0
C176 C 0.21414 0.49172 0.12293 0.0
C177 C 0.31441 0.5532 0.12785 0.0
H178 H 0.33171 0.47655 0.0929 0.0
C179 C 0.46385 0.5613 0.10191 0.0
C180 C 0.47317 0.52679 0.09732 0.0
C181 C 0.42749 0.56089 0.10721 0.0
C182 C 0.32769 0.49785 0.10299 0.0
H183 H 0.18816 0.58962 0.12686 0.0
H184 H 0.25331 0.58851 0.1226 0.0
H185 H 0.2671 0.47653 0.09875 0.0
H186 H 0.45179 0.46481 0.09486 0.0
H187 H 0.38908 0.4637 0.10475 0.0
H188 H 0.37502 0.57454 0.1321 0.0
C189 C 0.23243 0.56131 0.12354 0.0
C190 C 0.29033 0.49786 0.10632 0.0
C191 C 0.19478 0.56192 0.12588 0.0
C192 C 0.44566 0.49182 0.09865 0.0
C193 C 0.4094 0.49133 0.10403 0.0
C194 C 0.35183 0.55309 0.12458 0.0
C195 C 0.24278 0.52621 0.12188 0.0
C196 C 0.28296 0.52564 0.11874 0.0
C197 C 0.39928 0.5259 0.10798 0.0
C198 C 0.35922 0.52548 0.11203 0.0
H199 H 0.15541 0.46513 0.12602 0.0
H200 H 0.22084 0.46407 0.12196 0.0
H201 H 0.31018 0.57476 0.13773 0.0
H202 H 0.48413 0.58874 0.10052 0.0
H203 H 0.42105 0.58822 0.10986 0.0
C204 C 0.85537 0.20816 0.47893 0.0
C205 C 0.81589 0.20013 0.47409 0.0
C206 C 0.87989 0.24105 0.47236 0.0
C207 C 0.88652 0.30964 0.43381 0.0
H208 H 0.96858 0.37487 0.46706 0.0
C209 C 0.97678 0.45187 0.40782 0.0
C210 C 1.01601 0.4618 0.41326 0.0
C211 C 0.95247 0.42149 0.41627 0.0
C212 C 0.94612 0.35673 0.4575 0.0
H213 H 0.77142 0.22148 0.45898 0.0
H214 H 0.81425 0.2782 0.44724 0.0
H215 H 0.92631 0.31855 0.47972 0.0
H216 H 0.06046 0.44827 0.43213 0.0
H217 H 1.01815 0.39451 0.44668 0.0
H218 H 0.90652 0.34693 0.41148 0.0
C219 C 0.82619 0.25878 0.45598 0.0
C220 C 0.92185 0.3245 0.46479 0.0
C221 C 0.80165 0.22612 0.46267 0.0
C222 C 1.0303 0.44137 0.42775 0.0
C223 C 1.00598 0.41062 0.4361 0.0
C224 C 0.91093 0.34158 0.42648 0.0
C225 C 0.8656 0.26655 0.46067 0.0
C226 C 0.89166 0.30071 0.45304 0.0
C227 C 0.96677 0.3999 0.43026 0.0
C228 C 0.94096 0.36574 0.43823 0.0
H229 H 0.8675 0.1886 0.48746 0.0
H230 H 0.91017 0.24603 0.47606 0.0
H231 H 0.86394 0.29151 0.4243 0.0
H232 H 0.96488 0.46754 0.39691 0.0
H233 H 0.92238 0.41486 0.41174 0.0
C234 C 0.56831 0.64396 0.82137 0.0
C235 C 0.53884 0.61376 0.81274 0.0
C236 C 0.56819 0.68263 0.81849 0.0
C237 C 0.53041 0.74204 0.78351 0.0
H238 H 0.55747 0.8226 0.82326 0.0
C239 C 0.5161 0.89415 0.76724 0.0
C240 C 0.54489 0.92572 0.77504 0.0
C241 C 0.51376 0.85702 0.7737 0.0
C242 C 0.55022 0.80056 0.81194 0.0
H243 H 0.48523 0.60085 0.79497 0.0
H244 H 0.48514 0.66774 0.79002 0.0
H245 H 0.55719 0.7562 0.83109 0.0
H246 H 0.59303 0.94346 0.79621 0.0
H247 H 0.58964 0.8783 0.80732 0.0
H248 H 0.52431 0.7859 0.76423 0.0
C249 C 0.50867 0.66167 0.79877 0.0
C250 C 0.55002 0.76247 0.81646 0.0
C251 C 0.5087 0.6232 0.80169 0.0
C252 C 0.57038 0.91963 0.79005 0.0
C253 C 0.56836 0.88225 0.7964 0.0
C254 C 0.53091 0.77997 0.77897 0.0
C255 C 0.5387 0.6919 0.80684 0.0
C256 C 0.53977 0.73269 0.8023 0.0
C257 C 0.54057 0.85025 0.78795 0.0
C258 C 0.54045 0.80982 0.79312 0.0
H259 H 0.59191 0.63779 0.83001 0.0
H260 H 0.59181 0.70523 0.82487 0.0
H261 H 0.52319 0.72003 0.77216 0.0
H262 H 0.49584 0.8981 0.75576 0.0
H263 H 0.49124 0.83346 0.76721 0.0
C264 C 0.92092 0.56826 0.13034 0.0
C265 C 0.93267 0.53495 0.12579 0.0
C266 C 0.88224 0.56843 0.1279 0.0
C267 C 0.78992 0.51485 0.10159 0.0
H268 H 0.74422 0.5691 0.1369 0.0
C269 C 0.62779 0.49535 0.09459 0.0
C270 C 0.61363 0.52779 0.09733 0.0
C271 C 0.66602 0.49663 0.09978 0.0
C272 C 0.7565 0.55404 0.12677 0.0
H273 H 0.91199 0.47536 0.11547 0.0
H274 H 0.84544 0.47557 0.11147 0.0
H275 H 0.8118 0.57118 0.14229 0.0
H276 H 0.62862 0.58696 0.10807 0.0
H277 H 0.69567 0.58948 0.11718 0.0
H278 H 0.73514 0.49793 0.08597 0.0
C279 C 0.86599 0.50195 0.11658 0.0
C280 C 0.79545 0.55527 0.12987 0.0
C281 C 0.90445 0.50177 0.11901 0.0
C282 C 0.63848 0.56125 0.10612 0.0
C283 C 0.67702 0.56266 0.11126 0.0
C284 C 0.75119 0.51365 0.09851 0.0
C285 C 0.85412 0.53533 0.12079 0.0
C286 C 0.81276 0.53536 0.1174 0.0
C287 C 0.69169 0.53065 0.10767 0.0
C288 C 0.73358 0.53286 0.11112 0.0
H289 H 0.94164 0.59441 0.13559 0.0
H290 H 0.87451 0.59483 0.1312 0.0
H291 H 0.80206 0.49992 0.09134 0.0
H292 H 0.60945 0.46925 0.08771 0.0
H293 H 0.67561 0.47099 0.09719 0.0
C294 C 0.32972 0.85028 0.45233 0.0
C295 C 0.35745 0.84959 0.46734 0.0
C296 C 0.30142 0.81695 0.44656 0.0
C297 C 0.2521 0.72034 0.46216 0.0
H298 H 0.22252 0.70133 0.40804 0.0
C299 C 0.14668 0.57914 0.42867 0.0
C300 C 0.12116 0.58422 0.41341 0.0
C301 C 0.17544 0.61065 0.43657 0.0
C302 C 0.23017 0.70637 0.42322 0.0
H303 H 0.3772 0.8131 0.48802 0.0
H304 H 0.32783 0.75474 0.47786 0.0
H305 H 0.27323 0.7575 0.41898 0.0
H306 H 0.10398 0.62655 0.39543 0.0
H307 H 0.15366 0.68114 0.40917 0.0
H308 H 0.20882 0.66884 0.46626 0.0
C309 C 0.3277 0.78128 0.47073 0.0
C310 C 0.25926 0.73864 0.4295 0.0
C311 C 0.35602 0.81472 0.47654 0.0
C312 C 0.12376 0.62158 0.40689 0.0
C313 C 0.1523 0.65286 0.41472 0.0
C314 C 0.22293 0.68786 0.45584 0.0
C315 C 0.30014 0.78195 0.4556 0.0
C316 C 0.27028 0.7464 0.44905 0.0
C317 C 0.17908 0.6477 0.42933 0.0
C318 C 0.21127 0.68086 0.43629 0.0
H319 H 0.32953 0.87679 0.44518 0.0
H320 H 0.28022 0.81875 0.43512 0.0
H321 H 0.2597 0.72557 0.47733 0.0
H322 H 0.14536 0.55066 0.43396 0.0
H323 H 0.19566 0.60576 0.44781 0.0
C324 C 0.57789 0.37132 0.80557 0.0
C325 C 0.54476 0.37988 0.81105 0.0
C326 C 0.57966 0.33311 0.80304 0.0
C327 C 0.53503 0.23194 0.81427 0.0
H328 H 0.58163 0.20886 0.76975 0.0
C329 C 0.52849 0.07554 0.78677 0.0
C330 C 0.55977 0.07025 0.77784 0.0
C331 C 0.52735 0.11255 0.79303 0.0
C332 C 0.56908 0.21476 0.78245 0.0
H333 H 0.48773 0.35457 0.81861 0.0
H334 H 0.49081 0.28769 0.81408 0.0
H335 H 0.57782 0.27434 0.77616 0.0
H336 H 0.61537 0.09874 0.76964 0.0
H337 H 0.61414 0.16278 0.78109 0.0
H338 H 0.52625 0.17201 0.82047 0.0
C339 C 0.51551 0.31072 0.81185 0.0
C340 C 0.5668 0.25244 0.7861 0.0
C341 C 0.51368 0.34909 0.81435 0.0
C342 C 0.59083 0.1021 0.7764 0.0
C343 C 0.58988 0.13885 0.78277 0.0
C344 C 0.53743 0.19406 0.81065 0.0
C345 C 0.54839 0.30227 0.80591 0.0
C346 C 0.54998 0.26167 0.8021 0.0
C347 C 0.55758 0.1449 0.79054 0.0
C348 C 0.55476 0.18502 0.79473 0.0
H349 H 0.60255 0.39416 0.80304 0.0
H350 H 0.60569 0.32774 0.79879 0.0
H351 H 0.5221 0.23807 0.8268 0.0
H352 H 0.50402 0.05149 0.78787 0.0
H353 H 0.50197 0.11604 0.79888 0.0
C354 C 0.56162 0.88237 0.50679 0.0
C355 C 0.59381 0.9084 0.50073 0.0
C356 C 0.56146 0.844 0.50987 0.0
C357 C 0.6059 0.76623 0.49881 0.0
H358 H 0.56718 0.72566 0.54587 0.0
C359 C 0.6114 0.61434 0.52614 0.0
C360 C 0.58116 0.59483 0.5362 0.0
C361 C 0.61349 0.65195 0.52018 0.0
C362 C 0.57754 0.73621 0.53251 0.0
H363 H 0.65075 0.91382 0.49261 0.0
H364 H 0.65029 0.84626 0.49796 0.0
H365 H 0.57046 0.79236 0.53862 0.0
H366 H 0.52818 0.59802 0.54677 0.0
H367 H 0.53101 0.66276 0.5359 0.0
H368 H 0.61251 0.70965 0.49262 0.0
C369 C 0.62523 0.85593 0.50031 0.0
C370 C 0.57958 0.77459 0.52841 0.0
C371 C 0.62553 0.89464 0.49733 0.0
C372 C 0.55205 0.61265 0.53925 0.0
C373 C 0.5539 0.64989 0.53315 0.0
C374 C 0.60361 0.72752 0.50286 0.0
C375 C 0.59337 0.83039 0.50692 0.0
C376 C 0.59334 0.78997 0.51143 0.0
C377 C 0.58521 0.67057 0.52407 0.0
C378 C 0.5889 0.7119 0.51967 0.0
H379 H 0.53651 0.89167 0.50945 0.0
H380 H 0.53625 0.8249 0.51467 0.0
H381 H 0.61652 0.77727 0.48557 0.0
H382 H 0.63433 0.60128 0.52372 0.0
H383 H 0.63807 0.66699 0.51329 0.0
C384 C 0.77953 0.43979 0.78693 0.0
C385 C 0.77504 0.47755 0.78652 0.0
C386 C 0.8149 0.43296 0.78468 0.0
C387 C 0.89235 0.44 0.80415 0.0
H388 H 0.97497 0.51772 0.78612 0.0
C389 C 1.00653 0.53335 0.85386 0.0
C390 C 1.04355 0.54866 0.84885 0.0
C391 C 0.97943 0.50881 0.8412 0.0
C392 C 0.9526 0.49493 0.79099 0.0
H393 H 0.8024 0.53686 0.78093 0.0
H394 H 0.8638 0.52549 0.77758 0.0
H395 H 0.91321 0.50103 0.76769 0.0
H396 H 0.08162 0.54837 0.82689 0.0
H397 H 1.03343 0.50637 0.80437 0.0
H398 H 0.93121 0.43544 0.82795 0.0
C399 C 0.8404 0.50075 0.77935 0.0
C400 C 0.91704 0.4856 0.78051 0.0
C401 C 0.80502 0.50746 0.78139 0.0
C402 C 1.05313 0.53769 0.83105 0.0
C403 C 1.02574 0.51337 0.81823 0.0
C404 C 0.92793 0.449 0.81448 0.0
C405 C 0.84646 0.46393 0.78235 0.0
C406 C 0.88572 0.46066 0.78791 0.0
C407 C 0.98846 0.49913 0.8231 0.0
C408 C 0.95736 0.47892 0.80884 0.0
H409 H 0.75648 0.41603 0.7904 0.0
H410 H 0.81826 0.40403 0.78648 0.0
H411 H 0.86926 0.42026 0.8103 0.0
H412 H 0.99786 0.54166 0.86724 0.0
H413 H 0.95071 0.49917 0.84522 0.0
C414 C 0.23852 0.80174 0.1552 0.0
C415 C 0.23217 0.76245 0.15941 0.0
C416 C 0.27351 0.82782 0.16073 0.0
C417 C 0.3569 0.84195 0.19571 0.0
H418 H 0.40606 0.91838 0.16137 0.0
C419 C 0.50602 0.93887 0.2171 0.0
C420 C 0.51322 0.97794 0.21262 0.0
C421 C 0.47327 0.91226 0.20914 0.0
C422 C 0.39255 0.89753 0.17122 0.0
H423 H 0.25841 0.71993 0.17242 0.0
H424 H 0.31899 0.76554 0.18238 0.0
H425 H 0.34552 0.87295 0.15062 0.0
H426 H 0.49249 0.01965 0.19581 0.0
H427 H 0.43459 0.9733 0.1821 0.0
H428 H 0.40309 0.86675 0.21647 0.0
C429 C 0.29671 0.77615 0.17491 0.0
C430 C 0.35787 0.87144 0.16503 0.0
C431 C 0.26186 0.75001 0.16925 0.0
C432 C 0.48771 0.98963 0.19939 0.0
C433 C 0.45457 0.963 0.19155 0.0
C434 C 0.39131 0.86815 0.20194 0.0
C435 C 0.30293 0.81537 0.17074 0.0
C436 C 0.33974 0.84325 0.17719 0.0
C437 C 0.44652 0.92409 0.19666 0.0
C438 C 0.40978 0.8962 0.18977 0.0
H439 H 0.21623 0.81259 0.14792 0.0
H440 H 0.27724 0.85794 0.15752 0.0
H441 H 0.34335 0.82106 0.20554 0.0
H442 H 0.5255 0.92902 0.22709 0.0
H443 H 0.46869 0.88242 0.21302 0.0
C444 C 0.55946 0.15728 0.49329 0.0
C445 C 0.59191 0.1446 0.49924 0.0
C446 C 0.55956 0.1962 0.49566 0.0
C447 C 0.60793 0.28234 0.52558 0.0
H448 H 0.56427 0.33921 0.48729 0.0
C449 C 0.62324 0.44349 0.53793 0.0
C450 C 0.59086 0.45695 0.53343 0.0
C451 C 0.62468 0.4071 0.53128 0.0
C452 C 0.57631 0.32365 0.49818 0.0
H453 H 0.65033 0.16344 0.51175 0.0
H454 H 0.65038 0.23077 0.5158 0.0
H455 H 0.56317 0.27169 0.48063 0.0
H456 H 0.53508 0.44394 0.51803 0.0
H457 H 0.53712 0.37973 0.50655 0.0
H458 H 0.62041 0.33346 0.54333 0.0
C459 C 0.62469 0.21062 0.50956 0.0
C460 C 0.57566 0.28497 0.49436 0.0
C461 C 0.62466 0.17192 0.50715 0.0
C462 C 0.56056 0.43424 0.52142 0.0
C463 C 0.56179 0.3975 0.5149 0.0
C464 C 0.6084 0.32073 0.52943 0.0
C465 C 0.59203 0.22318 0.5041 0.0
C466 C 0.59175 0.264 0.50799 0.0
C467 C 0.59342 0.38299 0.52027 0.0
C468 C 0.59291 0.34208 0.51575 0.0
H469 H 0.53378 0.13707 0.4871 0.0
H470 H 0.53389 0.20496 0.49139 0.0
H471 H 0.6198 0.26679 0.53656 0.0
H472 H 0.64685 0.46057 0.54725 0.0
H473 H 0.6499 0.39735 0.5353 0.0
C474 C 0.36425 0.62897 0.79109 0.0
C475 C 0.34423 0.58977 0.78991 0.0
C476 C 0.34488 0.6578 0.79228 0.0
C477 C 0.2471 0.67295 0.79162 0.0
H478 H 0.28738 0.72854 0.83951 0.0
C479 C 0.1899 0.66994 0.86491 0.0
C480 C 0.15172 0.66636 0.85856 0.0
C481 C 0.21847 0.68712 0.85357 0.0
C482 C 0.2758 0.71382 0.82597 0.0
H483 H 0.28807 0.5504 0.78747 0.0
H484 H 0.25456 0.60007 0.78954 0.0
H485 H 0.32907 0.70343 0.82082 0.0
H486 H 0.11377 0.68369 0.8371 0.0
H487 H 0.1638 0.71427 0.81732 0.0
H488 H 0.19294 0.67874 0.79788 0.0
C489 C 0.28512 0.60894 0.78934 0.0
C490 C 0.29987 0.69971 0.81509 0.0
C491 C 0.30441 0.58023 0.78824 0.0
C492 C 0.14302 0.68522 0.84206 0.0
C493 C 0.17169 0.70271 0.83074 0.0
C494 C 0.22294 0.68647 0.80263 0.0
C495 C 0.30515 0.64796 0.79219 0.0
C496 C 0.28493 0.67617 0.79869 0.0
C497 C 0.20938 0.70112 0.83564 0.0
C498 C 0.23642 0.70388 0.82079 0.0
H499 H 0.39498 0.63731 0.79192 0.0
H500 H 0.36109 0.6876 0.79423 0.0
H501 H 0.23509 0.6561 0.77866 0.0
H502 H 0.19753 0.65578 0.87758 0.0
H503 H 0.24702 0.68518 0.85797 0.0
C504 C 0.86942 0.26249 0.14725 0.0
C505 C 0.8798 0.30164 0.15332 0.0
C506 C 0.83808 0.23672 0.15398 0.0
C507 C 0.77887 0.22279 0.19422 0.0
H508 H 0.70685 0.14809 0.16014 0.0
C509 C 0.64272 0.12728 0.2207 0.0
C510 C 0.63079 0.08859 0.21407 0.0
C511 C 0.67152 0.15355 0.21244 0.0
C512 C 0.72692 0.16842 0.16991 0.0
H513 H 0.86428 0.3443 0.17092 0.0
H514 H 0.81026 0.29924 0.18288 0.0
H515 H 0.76041 0.19295 0.14749 0.0
H516 H 0.63933 0.04726 0.19333 0.0
H517 H 0.69016 0.09289 0.17907 0.0
H518 H 0.74616 0.19803 0.21672 0.0
C519 C 0.82665 0.28846 0.17304 0.0
C520 C 0.75759 0.1942 0.16263 0.0
C521 C 0.85777 0.31428 0.16621 0.0
C522 C 0.6477 0.07697 0.19864 0.0
C523 C 0.67682 0.1032 0.19046 0.0
C524 C 0.74845 0.19687 0.20152 0.0
C525 C 0.81649 0.24935 0.16706 0.0
C526 C 0.78386 0.22178 0.1747 0.0
C527 C 0.68948 0.14177 0.19742 0.0
C528 C 0.72191 0.16939 0.18948 0.0
H529 H 0.88595 0.25148 0.13758 0.0
H530 H 0.83127 0.20668 0.14926 0.0
H531 H 0.79894 0.24324 0.20396 0.0
H532 H 0.62982 0.13725 0.23238 0.0
H533 H 0.67973 0.18314 0.2179 0.0
C534 C 0.05846 0.5124 0.05965 0.0
C535 C 1.05147 0.5413 0.0714 0.0
C536 C 0.06403 0.51895 0.04049 0.0
C537 C 1.04906 0.58323 0.00141 0.0
H538 H 0.12756 0.54626 -0.02054 0.0
C539 C 0.09739 0.56003 0.92262 0.0
C540 C 0.09764 0.59604 0.91495 0.0
C541 C 0.09413 0.55438 0.94201 0.0
C542 C 0.10542 0.55658 -0.01461 0.0
H543 H 1.04457 0.59967 0.07219 0.0
H544 H 0.05488 0.61124 0.03898 0.0
H545 H 0.11563 0.5334 0.01256 0.0
H546 H 0.0957 0.65465 0.92153 0.0
H547 H 0.09008 0.64481 0.95556 0.0
H548 H 1.0391 0.60663 -0.02575 0.0
C549 C 0.0554 0.58327 0.04442 0.0
C550 C 0.09845 0.54906 0.00431 0.0
C551 C 1.04964 0.57665 0.06352 0.0
C552 C 0.09573 0.62666 0.92712 0.0
C553 C 0.09216 0.62092 0.94651 0.0
C554 C 0.05621 0.59094 -0.01745 0.0
C555 C 0.06291 0.55461 0.0327 0.0
C556 C 0.07011 0.56223 0.01253 0.0
C557 C 0.09083 0.58457 0.95408 0.0
C558 C 0.08439 0.57761 -0.02567 0.0
H559 H 0.05994 0.4848 0.06527 0.0
H560 H 0.06915 0.49604 0.03177 0.0
H561 H 1.02662 0.59325 0.0072 0.0
H562 H 0.09919 0.53605 0.91356 0.0
H563 H 0.09296 0.52601 0.94742 0.0
C564 C 0.57089 -0.00549 0.42649 0.0
C565 C 0.592 0.02637 0.43793 0.0
C566 C 0.57059 -0.00489 0.40664 0.0
C567 C 0.62216 0.04866 0.36769 0.0
H568 H 0.53066 -0.00419 0.33641 0.0
C569 C 0.59639 0.06688 0.28614 0.0
C570 C 0.58335 0.0324 0.27499 0.0
C571 C 0.5987 0.06625 0.30605 0.0
C572 C 0.55646 0.01051 0.34499 0.0
H573 H 0.6289 0.08411 0.43753 0.0
H574 H 0.62715 0.08587 0.403 0.0
H575 H 0.53158 -0.00501 0.371 0.0
H576 H 0.56381 0.97007 0.27633 0.0
H577 H 0.5665 0.96936 0.31097 0.0
H578 H 0.64638 0.06518 0.34146 0.0
C579 C 0.61178 0.05982 0.40926 0.0
C580 C 0.55714 0.00989 0.36484 0.0
C581 C 0.61259 0.05894 0.42911 0.0
C582 C 0.57308 -0.00269 0.28434 0.0
C583 C 0.5748 -0.00321 0.30421 0.0
C584 C 0.62122 0.04982 0.34783 0.0
C585 C 0.59086 0.02786 0.39771 0.0
C586 C 0.59007 0.02878 0.3765 0.0
C587 C 0.58748 0.03124 0.31525 0.0
C588 C 0.58843 0.03057 0.3363 0.0
H589 H 0.55498 0.96885 0.43288 0.0
H590 H 0.55476 0.96961 0.39834 0.0
H591 H 0.6483 0.06295 0.37609 0.0
H592 H 0.60402 0.0945 0.27952 0.0
H593 H 0.60834 0.09326 0.31427 0.0
C594 C 0.52735 0.46824 0.74298 0.0
C595 C 0.55252 0.49554 0.7556 0.0
C596 C 0.53026 0.46983 0.72333 0.0
C597 C 0.59643 0.51244 0.68756 0.0
H598 H 0.5044 0.49024 0.65303 0.0
C599 C 0.59612 0.54686 0.60773 0.0
C600 C 0.57452 0.51765 0.59486 0.0
C601 C 0.59332 0.54362 0.62732 0.0
C602 C 0.53033 0.49621 0.6625 0.0
H603 H 0.60051 0.54595 0.75747 0.0
H604 H 0.60499 0.54927 0.72332 0.0
H605 H 0.49996 0.48525 0.68728 0.0
H606 H 0.53253 0.46256 0.59235 0.0
H607 H 0.52751 0.45698 0.62661 0.0
H608 H 0.6267 0.52411 0.66273 0.0
C609 C 0.58349 0.52608 0.72854 0.0
C610 C 0.52783 0.49322 0.68213 0.0
C611 C 0.58077 0.52431 0.74816 0.0
C612 C 0.54972 0.48537 0.60196 0.0
C613 C 0.54663 0.48232 0.62153 0.0
C614 C 0.59889 0.51575 0.66795 0.0
C615 C 0.55824 0.49893 0.71585 0.0
C616 C 0.56086 0.50135 0.69492 0.0
C617 C 0.56858 0.5113 0.63442 0.0
C618 C 0.56588 0.50771 0.65523 0.0
H619 H 0.50538 0.44558 0.74825 0.0
H620 H 0.51071 0.44807 0.71403 0.0
H621 H 0.62248 0.51822 0.69692 0.0
H622 H 0.61565 0.57192 0.60266 0.0
H623 H 0.61034 0.56656 0.63691 0.0
C624 C 0.61687 0.0088 0.56721 0.0
C625 C 0.59224 0.02572 0.55591 0.0
C626 C 0.6145 0.00619 0.58688 0.0
C627 C 0.58094 0.0492 0.62753 0.0
H628 H 0.58028 0.95224 0.65138 0.0
C629 C 0.54328 0.0235 0.70475 0.0
C630 C 0.56336 0.00225 0.71626 0.0
C631 C 0.54738 0.02602 0.68525 0.0
C632 C 0.58097 0.97971 0.64503 0.0
H633 H 0.54617 0.05366 0.5565 0.0
H634 H 0.54232 0.04937 0.59078 0.0
H635 H 0.58748 0.95806 0.61737 0.0
H636 H 0.60356 0.96706 0.71638 0.0
H637 H 0.61132 0.97198 0.68237 0.0
H638 H 0.57493 0.07113 0.6551 0.0
C639 C 0.56348 0.03817 0.58443 0.0
C640 C 0.58503 0.98299 0.62552 0.0
C641 C 0.56558 0.04044 0.56476 0.0
C642 C 0.58742 0.98331 0.70781 0.0
C643 C 0.59178 0.98609 0.68831 0.0
C644 C 0.5772 0.04604 0.64704 0.0
C645 C 0.58775 0.02082 0.5957 0.0
C646 C 0.58478 0.01769 0.61653 0.0
C647 C 0.57193 0.00764 0.67678 0.0
C648 C 0.57685 0.01116 0.65604 0.0
H649 H 0.63768 -0.0029 0.56085 0.0
H650 H 0.63381 0.99297 0.59522 0.0
H651 H 0.5812 0.07648 0.62106 0.0
H652 H 0.52409 0.03793 0.71081 0.0
H653 H 0.53097 0.04215 0.67679 0.0
C654 C 0.55383 0.4873 0.88611 0.0
C655 C 0.52894 0.50112 0.87336 0.0
C656 C 0.55092 0.48861 0.90573 0.0
C657 C 0.51873 0.54004 0.94345 0.0
H658 H 0.52443 0.45071 0.97283 0.0
C659 C 0.50826 0.53878 0.0252 0.0
C660 C 0.53158 0.51977 0.03618 0.0
C661 C 0.50492 0.53562 0.00525 0.0
C662 C 0.52329 0.47614 0.96493 0.0
H663 H 0.4815 0.52735 0.87133 0.0
H664 H 0.47684 0.53019 0.9058 0.0
H665 H 0.52429 0.4471 0.9383 0.0
H666 H 0.569 0.48178 0.03451 0.0
H667 H 0.56453 0.47768 -2e-05 0.0
H668 H 0.51901 0.56959 0.97007 0.0
C669 C 0.49849 0.51819 0.90048 0.0
C670 C 0.52301 0.47395 0.94509 0.0
C671 C 0.50105 0.51638 0.88075 0.0
C672 C 0.55124 0.49738 0.02662 0.0
C673 C 0.54816 0.49449 0.00671 0.0
C674 C 0.51945 0.54241 0.96335 0.0
C675 C 0.52334 0.50417 0.91317 0.0
C676 C 0.52112 0.50597 0.93413 0.0
C677 C 0.52495 0.51353 -0.0043 0.0
C678 C 0.52217 0.5106 -0.0256 0.0
H679 H 0.57561 0.47528 0.88095 0.0
H680 H 0.57075 0.47796 0.91513 0.0
H681 H 0.5176 0.56531 0.9354 0.0
H682 H 0.49295 0.55659 0.03201 0.0
H683 H 0.48641 0.55035 -0.00267 0.0
C684 C 1.03823 0.49024 0.19761 0.0
C685 C 0.05446 0.52507 0.18911 0.0
C686 C 1.0384 0.48854 0.21742 0.0
C687 C 1.04003 0.54747 0.26001 0.0
H688 H 0.07736 0.46951 0.28743 0.0
C689 C 0.06387 0.55358 0.34192 0.0
C690 C 0.05826 0.51893 0.3517 0.0
C691 C 0.0621 0.55333 0.32206 0.0
C692 C 0.06616 0.49106 0.28002 0.0
H693 H 0.08352 0.58541 0.1947 0.0
H694 H 0.08307 0.58252 0.22932 0.0
H695 H 0.07684 0.4707 0.25281 0.0
H696 H 1.04565 0.45666 0.348 0.0
H697 H 1.04058 0.45609 0.31334 0.0
H698 H 1.02824 0.56734 0.28693 0.0
C699 C 0.07046 0.55657 0.22061 0.0
C700 C 0.06611 0.49183 0.26018 0.0
C701 C 0.07089 0.55814 0.20082 0.0
C702 C 1.04982 0.48391 0.341 0.0
C703 C 1.04751 0.48363 0.32108 0.0
C704 C 1.03947 0.54635 0.27979 0.0
C705 C 0.0542 0.52177 0.22908 0.0
C706 C 0.05341 0.52028 0.25003 0.0
C707 C 0.05398 0.51837 0.31133 0.0
C708 C 1.05292 0.51839 0.29012 0.0
H709 H 1.02546 0.46424 0.18897 0.0
H710 H 1.02555 0.46141 0.22362 0.0
H711 H 1.02957 0.56938 0.25246 0.0
H712 H 0.06971 0.58111 0.3496 0.0
H713 H 0.06779 0.58074 0.31517 0.0
loop_
_geom_bond_atom_site_label_1
_geom_bond_atom_site_label_2
_geom_bond_distance
_geom_bond_site_symmetry_2
_ccdc_geom_bond_type
Dy0 O3 2.307 1_455 S
Dy0 O5 2.395 . S
Dy0 O6 2.379 . S
Dy0 O8 2.339 . S
Dy0 O10 2.298 . S
Dy0 O14 2.275 . S
Dy0 C22 2.738 . S
Dy1 O4 2.298 . S
Dy1 O7 2.275 1_655 S
Dy1 O9 2.307 1_655 S
Dy1 O11 2.395 . S
Dy1 O12 2.379 . S
Dy1 O15 2.339 . S
Dy1 C31 2.738 . S
C2 O14 1.254 . S
C2 O15 1.257 1_455 S
O3 Dy0 2.307 1_655 S
O3 C13 1.266 . S
O4 Dy1 2.298 . S
O4 C13 1.236 . S
O5 Dy0 2.395 . S
O5 C22 1.255 . S
O6 Dy0 2.379 . S
O6 C22 1.249 . S
O7 Dy1 2.275 1_455 S
O7 C23 1.254 . S
O8 Dy0 2.339 . S
O8 C23 1.257 . S
O9 Dy1 2.307 1_455 S
O9 C24 1.266 . S
O10 Dy0 2.298 . S
O10 C24 1.236 . S
O11 Dy1 2.395 . S
O11 C31 1.255 . S
O12 Dy1 2.379 . S
O12 C31 1.249 . S
C13 O3 1.266 . S
C13 O4 1.236 . S
O14 Dy0 2.275 . S
O14 C2 1.254 . S
O15 Dy1 2.339 . S
O15 C2 1.257 1_655 S
C16 C19 1.344 . S
C16 C20 1.328 . S
C16 C22 1.516 . S
C17 C18 1.304 . S
C17 C21 1.323 . S
C18 C17 1.304 . S
C18 C19 1.371 . S
C18 H32 0.930 . S
C19 C16 1.344 . S
C19 C18 1.371 . S
C19 H33 0.931 . S
C20 C16 1.328 . S
C20 C21 1.433 . S
C20 H34 0.931 . S
C21 C17 1.323 . S
C21 C20 1.433 . S
C21 H35 0.933 . S
C22 Dy0 2.738 . S
C22 O5 1.255 . S
C22 O6 1.249 . S
C22 C16 1.516 . S
C23 O7 1.254 . S
C23 O8 1.257 . S
C24 O9 1.266 . S
C24 O10 1.236 . S
C25 C28 1.344 . S
C25 C29 1.328 . S
C25 C31 1.516 . S
C26 C27 1.304 . S
C26 C30 1.323 . S
C27 C26 1.304 . S
C27 C28 1.371 . S
C27 H36 0.930 . S
C28 C25 1.344 . S
C28 C27 1.371 . S
C28 H37 0.931 . S
C29 C25 1.328 . S
C29 C30 1.433 . S
C29 H38 0.931 . S
C30 C26 1.323 . S
C30 C29 1.433 . S
C30 H39 0.933 . S
C31 Dy1 2.738 . S
C31 O11 1.255 . S
C31 O12 1.249 . S
C31 C25 1.516 . S
H32 C18 0.930 . S
H33 C19 0.931 . S
H34 C20 0.931 . S
H35 C21 0.933 . S
H36 C27 0.930 . S
H37 C28 0.931 . S
H38 C29 0.931 . S
H39 C30 0.933 . S
Dy40 O43 2.307 . S
Dy40 O45 2.395 1_545 S
Dy40 O46 2.379 1_545 S
Dy40 O48 2.339 . S
Dy40 O50 2.298 1_545 S
Dy40 O54 2.275 . S
Dy40 C62 2.738 1_545 S
Dy41 O44 2.298 . S
Dy41 O47 2.275 . S
Dy41 O49 2.307 1_545 S
Dy41 O51 2.395 . S
Dy41 O52 2.379 . S
Dy41 O55 2.339 . S
Dy41 C71 2.738 . S
C42 O54 1.254 . S
C42 O55 1.257 . S
O43 Dy40 2.307 . S
O43 C53 1.266 . S
O44 Dy41 2.298 . S
O44 C53 1.236 . S
O45 Dy40 2.395 1_565 S
O45 C62 1.255 . S
O46 Dy40 2.379 1_565 S
O46 C62 1.249 . S
O47 Dy41 2.275 . S
O47 C63 1.254 . S
O48 Dy40 2.339 . S
O48 C63 1.257 . S
O49 Dy41 2.307 1_565 S
O49 C64 1.266 . S
O50 Dy40 2.298 1_565 S
O50 C64 1.236 . S
O51 Dy41 2.395 . S
O51 C71 1.255 . S
O52 Dy41 2.379 . S
O52 C71 1.249 . S
C53 O43 1.266 . S
C53 O44 1.236 . S
O54 Dy40 2.275 . S
O54 C42 1.254 . S
O55 Dy41 2.339 . S
O55 C42 1.257 . S
C56 C59 1.344 . S
C56 C60 1.328 . S
C56 C62 1.516 . S
C57 C58 1.304 . S
C57 C61 1.323 . S
C58 C57 1.304 . S
C58 C59 1.371 . S
C58 H72 0.930 . S
C59 C56 1.344 . S
C59 C58 1.371 . S
C59 H73 0.931 . S
C60 C56 1.328 . S
C60 C61 1.433 . S
C60 H74 0.931 . S
C61 C57 1.323 . S
C61 C60 1.433 . S
C61 H75 0.933 . S
C62 Dy40 2.738 1_565 S
C62 O45 1.255 . S
C62 O46 1.249 . S
C62 C56 1.516 . S
C63 O47 1.254 . S
C63 O48 1.257 . S
C64 O49 1.266 . S
C64 O50 1.236 . S
C65 C68 1.344 . S
C65 C69 1.328 . S
C65 C71 1.516 . S
C66 C67 1.304 . S
C66 C70 1.323 . S
C67 C66 1.304 . S
C67 C68 1.371 . S
C67 H76 0.930 . S
C68 C65 1.344 . S
C68 C67 1.371 . S
C68 H77 0.931 . S
C69 C65 1.328 . S
C69 C70 1.433 . S
C69 H78 0.931 . S
C70 C66 1.323 . S
C70 C69 1.433 . S
C70 H79 0.933 . S
C71 Dy41 2.738 . S
C71 O51 1.255 . S
C71 O52 1.249 . S
C71 C65 1.516 . S
H72 C58 0.930 . S
H73 C59 0.931 . S
H74 C60 0.931 . S
H75 C61 0.933 . S
H76 C67 0.930 . S
H77 C68 0.931 . S
H78 C69 0.931 . S
H79 C70 0.933 . S
Dy80 O83 2.307 . S
Dy80 O85 2.395 . S
Dy80 O86 2.379 . S
Dy80 O88 2.339 . S
Dy80 O90 2.298 . S
Dy80 O94 2.275 . S
Dy80 C102 2.738 . S
Dy81 O84 2.298 . S
Dy81 O87 2.275 . S
Dy81 O89 2.307 . S
Dy81 O91 2.395 . S
Dy81 O92 2.379 . S
Dy81 O95 2.339 . S
Dy81 C111 2.738 . S
C82 O94 1.254 . S
C82 O95 1.257 . S
O83 Dy80 2.307 . S
O83 C93 1.266 . S
O84 Dy81 2.298 . S
O84 C93 1.236 . S
O85 Dy80 2.395 . S
O85 C102 1.255 . S
O86 Dy80 2.379 . S
O86 C102 1.249 . S
O87 Dy81 2.275 . S
O87 C103 1.254 . S
O88 Dy80 2.339 . S
O88 C103 1.257 . S
O89 Dy81 2.307 . S
O89 C104 1.266 . S
O90 Dy80 2.298 . S
O90 C104 1.236 . S
O91 Dy81 2.395 . S
O91 C111 1.255 . S
O92 Dy81 2.379 . S
O92 C111 1.249 . S
C93 O83 1.266 . S
C93 O84 1.236 . S
O94 Dy80 2.275 . S
O94 C82 1.254 . S
O95 Dy81 2.339 . S
O95 C82 1.257 . S
C96 C99 1.344 . S
C96 C100 1.328 . S
C96 C102 1.516 . S
C97 C98 1.304 . S
C97 C101 1.323 . S
C98 C97 1.304 . S
C98 C99 1.371 . S
C98 H112 0.930 . S
C99 C96 1.344 . S
C99 C98 1.371 . S
C99 H113 0.931 . S
C100 C96 1.328 . S
C100 C101 1.433 . S
C100 H114 0.931 . S
C101 C97 1.323 . S
C101 C100 1.433 . S
C101 H115 0.933 . S
C102 Dy80 2.738 . S
C102 O85 1.255 . S
C102 O86 1.249 . S
C102 C96 1.516 . S
C103 O87 1.254 . S
C103 O88 1.257 . S
C104 O89 1.266 . S
C104 O90 1.236 . S
C105 C108 1.344 . S
C105 C109 1.328 . S
C105 C111 1.516 . S
C106 C107 1.304 . S
C106 C110 1.323 . S
C107 C106 1.304 . S
C107 C108 1.371 . S
C107 H116 0.930 . S
C108 C105 1.344 . S
C108 C107 1.371 . S
C108 H117 0.931 . S
C109 C105 1.328 . S
C109 C110 1.433 . S
C109 H118 0.931 . S
C110 C106 1.323 . S
C110 C109 1.433 . S
C110 H119 0.933 . S
C111 Dy81 2.738 . S
C111 O91 1.255 . S
C111 O92 1.249 . S
C111 C105 1.516 . S
H112 C98 0.930 . S
H113 C99 0.931 . S
H114 C100 0.931 . S
H115 C101 0.933 . S
H116 C107 0.930 . S
H117 C108 0.931 . S
H118 C109 0.931 . S
H119 C110 0.933 . S
H120 C123 0.931 . S
H121 C126 0.928 . S
H122 C128 0.930 . S
C123 H120 0.931 . S
C123 C124 1.413 . S
C123 C125 1.360 . S
C124 C123 1.413 . S
C124 C128 1.429 . S
C125 C123 1.360 . S
C125 C126 1.372 . S
C126 H121 0.928 . S
C126 C125 1.372 . S
C126 C127 1.404 . S
C127 C126 1.404 . S
C127 C128 1.391 . S
C128 H122 0.930 . S
C128 C124 1.429 . S
C128 C127 1.391 . S
H129 C132 0.931 . S
H130 C135 0.928 . S
H131 C137 0.930 . S
C132 H129 0.931 . S
C132 C133 1.413 . S
C132 C134 1.360 . S
C133 C132 1.413 . S
C133 C137 1.429 . S
C134 C132 1.360 . S
C134 C135 1.372 . S
C135 H130 0.928 . S
C135 C134 1.372 . S
C135 C136 1.404 . S
C136 C135 1.404 . S
C136 C137 1.391 . S
C137 H131 0.930 . S
C137 C133 1.429 . S
C137 C136 1.391 . S
H138 C141 0.931 . S
H139 C144 0.928 . S
H140 C146 0.930 . S
C141 H138 0.931 . S
C141 C142 1.413 . S
C141 C143 1.360 1_655 S
C142 C141 1.413 . S
C142 C146 1.429 1_655 S
C143 C141 1.360 1_455 S
C143 C144 1.372 . S
C144 H139 0.928 . S
C144 C143 1.372 . S
C144 C145 1.404 . S
C145 C144 1.404 . S
C145 C146 1.391 . S
C146 H140 0.930 . S
C146 C142 1.429 1_455 S
C146 C145 1.391 . S
H147 C150 0.931 . S
H148 C153 0.928 . S
H149 C155 0.930 . S
C150 H147 0.931 . S
C150 C151 1.413 . S
C150 C152 1.360 1_655 S
C151 C150 1.413 . S
C151 C155 1.429 1_655 S
C152 C150 1.360 1_455 S
C152 C153 1.372 . S
C153 H148 0.928 . S
C153 C152 1.372 . S
C153 C154 1.404 . S
C154 C153 1.404 . S
C154 C155 1.391 . S
C155 H149 0.930 . S
C155 C151 1.429 1_455 S
C155 C154 1.391 . S
H156 C159 0.931 . S
H157 C162 0.928 . S
H158 C164 0.930 . S
C159 H156 0.931 . S
C159 C160 1.413 . S
C159 C161 1.360 . S
C160 C159 1.413 . S
C160 C164 1.429 . S
C161 C159 1.360 . S
C161 C162 1.372 1_545 S
C162 H157 0.928 . S
C162 C161 1.372 1_565 S
C162 C163 1.404 . S
C163 C162 1.404 . S
C163 C164 1.391 1_565 S
C164 H158 0.930 . S
C164 C160 1.429 . S
C164 C163 1.391 1_545 S
H165 C168 0.931 . S
H166 C171 0.928 . S
H167 C173 0.930 . S
C168 H165 0.931 . S
C168 C169 1.413 . S
C168 C170 1.360 . S
C169 C168 1.413 . S
C169 C173 1.429 . S
C170 C168 1.360 . S
C170 C171 1.372 . S
C171 H166 0.928 . S
C171 C170 1.372 . S
C171 C172 1.404 . S
C172 C171 1.404 . S
C172 C173 1.391 . S
C173 H167 0.930 . S
C173 C169 1.429 . S
C173 C172 1.391 . S
C174 C175 1.349 . S
C174 C176 1.327 . S
C174 H199 0.950 . S
C175 C174 1.349 . S
C175 C191 1.349 . S
C176 C174 1.327 . S
C176 C195 1.429 . S
C176 H200 0.950 . S
C177 C194 1.574 . S
C177 C196 1.368 . S
C177 H201 0.949 . S
H178 C182 0.949 . S
C179 C180 1.349 . S
C179 C181 1.327 . S
C179 H202 0.950 . S
C180 C179 1.349 . S
C180 C192 1.349 . S
C181 C179 1.327 . S
C181 C197 1.429 . S
C181 H203 0.950 . S
C182 H178 0.949 . S
C182 C190 1.574 . S
C182 C198 1.368 . S
H183 C191 0.950 . S
H184 C189 0.950 . S
H185 C190 0.949 . S
H186 C192 0.950 . S
H187 C193 0.950 . S
H188 C194 0.949 . S
C189 H184 0.950 . S
C189 C191 1.327 . S
C189 C195 1.429 . S
C190 C182 1.574 . S
C190 H185 0.949 . S
C190 C196 1.368 . S
C191 C175 1.349 . S
C191 H183 0.950 . S
C191 C189 1.327 . S
C192 C180 1.349 . S
C192 H186 0.950 . S
C192 C193 1.327 . S
C193 H187 0.950 . S
C193 C192 1.327 . S
C193 C197 1.429 . S
C194 C177 1.574 . S
C194 H188 0.949 . S
C194 C198 1.368 . S
C195 C176 1.429 . S
C195 C189 1.429 . S
C195 C196 1.523 . S
C196 C177 1.368 . S
C196 C190 1.368 . S
C196 C195 1.523 . S
C197 C181 1.429 . S
C197 C193 1.429 . S
C197 C198 1.523 . S
C198 C182 1.368 . S
C198 C194 1.368 . S
C198 C197 1.523 . S
H199 C174 0.950 . S
H200 C176 0.950 . S
H201 C177 0.949 . S
H202 C179 0.950 . S
H203 C181 0.950 . S
C204 C205 1.349 . S
C204 C206 1.327 . S
C204 H229 0.950 . S
C205 C204 1.349 . S
C205 C221 1.349 . S
C206 C204 1.327 . S
C206 C225 1.429 . S
C206 H230 0.950 . S
C207 C224 1.574 . S
C207 C226 1.368 . S
C207 H231 0.949 . S
H208 C212 0.949 . S
C209 C210 1.349 . S
C209 C211 1.327 . S
C209 H232 0.950 . S
C210 C209 1.349 . S
C210 C222 1.349 . S
C211 C209 1.327 . S
C211 C227 1.429 . S
C211 H233 0.950 . S
C212 H208 0.949 . S
C212 C220 1.574 . S
C212 C228 1.368 . S
H213 C221 0.950 . S
H214 C219 0.950 . S
H215 C220 0.949 . S
H216 C222 0.950 . S
H217 C223 0.950 . S
H218 C224 0.949 . S
C219 H214 0.950 . S
C219 C221 1.327 . S
C219 C225 1.429 . S
C220 C212 1.574 . S
C220 H215 0.949 . S
C220 C226 1.368 . S
C221 C205 1.349 . S
C221 H213 0.950 . S
C221 C219 1.327 . S
C222 C210 1.349 . S
C222 H216 0.950 . S
C222 C223 1.327 . S
C223 H217 0.950 . S
C223 C222 1.327 . S
C223 C227 1.429 . S
C224 C207 1.574 . S
C224 H218 0.949 . S
C224 C228 1.368 . S
C225 C206 1.429 . S
C225 C219 1.429 . S
C225 C226 1.523 . S
C226 C207 1.368 . S
C226 C220 1.368 . S
C226 C225 1.523 . S
C227 C211 1.429 . S
C227 C223 1.429 . S
C227 C228 1.523 . S
C228 C212 1.368 . S
C228 C224 1.368 . S
C228 C227 1.523 . S
H229 C204 0.950 . S
H230 C206 0.950 . S
H231 C207 0.949 . S
H232 C209 0.950 . S
H233 C211 0.950 . S
C234 C235 1.349 . S
C234 C236 1.327 . S
C234 H259 0.950 . S
C235 C234 1.349 . S
C235 C251 1.349 . S
C236 C234 1.327 . S
C236 C255 1.429 . S
C236 H260 0.950 . S
C237 C254 1.574 . S
C237 C256 1.368 . S
C237 H261 0.949 . S
H238 C242 0.949 . S
C239 C240 1.349 . S
C239 C241 1.327 . S
C239 H262 0.950 . S
C240 C239 1.349 . S
C240 C252 1.349 . S
C241 C239 1.327 . S
C241 C257 1.429 . S
C241 H263 0.950 . S
C242 H238 0.949 . S
C242 C250 1.574 . S
C242 C258 1.368 . S
H243 C251 0.950 . S
H244 C249 0.950 . S
H245 C250 0.949 . S
H246 C252 0.950 . S
H247 C253 0.950 . S
H248 C254 0.949 . S
C249 H244 0.950 . S
C249 C251 1.327 . S
C249 C255 1.429 . S
C250 C242 1.574 . S
C250 H245 0.949 . S
C250 C256 1.368 . S
C251 C235 1.349 . S
C251 H243 0.950 . S
C251 C249 1.327 . S
C252 C240 1.349 . S
C252 H246 0.950 . S
C252 C253 1.327 . S
C253 H247 0.950 . S
C253 C252 1.327 . S
C253 C257 1.429 . S
C254 C237 1.574 . S
C254 H248 0.949 . S
C254 C258 1.368 . S
C255 C236 1.429 . S
C255 C249 1.429 . S
C255 C256 1.523 . S
C256 C237 1.368 . S
C256 C250 1.368 . S
C256 C255 1.523 . S
C257 C241 1.429 . S
C257 C253 1.429 . S
C257 C258 1.523 . S
C258 C242 1.368 . S
C258 C254 1.368 . S
C258 C257 1.523 . S
H259 C234 0.950 . S
H260 C236 0.950 . S
H261 C237 0.949 . S
H262 C239 0.950 . S
H263 C241 0.950 . S
C264 C265 1.349 . S
C264 C266 1.327 . S
C264 H289 0.950 . S
C265 C264 1.349 . S
C265 C281 1.349 . S
C266 C264 1.327 . S
C266 C285 1.429 . S
C266 H290 0.950 . S
C267 C284 1.574 . S
C267 C286 1.368 . S
C267 H291 0.949 . S
H268 C272 0.949 . S
C269 C270 1.349 . S
C269 C271 1.327 . S
C269 H292 0.950 . S
C270 C269 1.349 . S
C270 C282 1.349 . S
C271 C269 1.327 . S
C271 C287 1.429 . S
C271 H293 0.950 . S
C272 H268 0.949 . S
C272 C280 1.574 . S
C272 C288 1.368 . S
H273 C281 0.950 . S
H274 C279 0.950 . S
H275 C280 0.949 . S
H276 C282 0.950 . S
H277 C283 0.950 . S
H278 C284 0.949 . S
C279 H274 0.950 . S
C279 C281 1.327 . S
C279 C285 1.429 . S
C280 C272 1.574 . S
C280 H275 0.949 . S
C280 C286 1.368 . S
C281 C265 1.349 . S
C281 H273 0.950 . S
C281 C279 1.327 . S
C282 C270 1.349 . S
C282 H276 0.950 . S
C282 C283 1.327 . S
C283 H277 0.950 . S
C283 C282 1.327 . S
C283 C287 1.429 . S
C284 C267 1.574 . S
C284 H278 0.949 . S
C284 C288 1.368 . S
C285 C266 1.429 . S
C285 C279 1.429 . S
C285 C286 1.523 . S
C286 C267 1.368 . S
C286 C280 1.368 . S
C286 C285 1.523 . S
C287 C271 1.429 . S
C287 C283 1.429 . S
C287 C288 1.523 . S
C288 C272 1.368 . S
C288 C284 1.368 . S
C288 C287 1.523 . S
H289 C264 0.950 . S
H290 C266 0.950 . S
H291 C267 0.949 . S
H292 C269 0.950 . S
H293 C271 0.950 . S
C294 C295 1.349 . S
C294 C296 1.327 . S
C294 H319 0.950 . S
C295 C294 1.349 . S
C295 C311 1.349 . S
C296 C294 1.327 . S
C296 C315 1.429 . S
C296 H320 0.950 . S
C297 C314 1.574 . S
C297 C316 1.368 . S
C297 H321 0.949 . S
H298 C302 0.949 . S
C299 C300 1.349 . S
C299 C301 1.327 . S
C299 H322 0.950 . S
C300 C299 1.349 . S
C300 C312 1.349 . S
C301 C299 1.327 . S
C301 C317 1.429 . S
C301 H323 0.950 . S
C302 H298 0.949 . S
C302 C310 1.574 . S
C302 C318 1.368 . S
H303 C311 0.950 . S
H304 C309 0.950 . S
H305 C310 0.949 . S
H306 C312 0.950 . S
H307 C313 0.950 . S
H308 C314 0.949 . S
C309 H304 0.950 . S
C309 C311 1.327 . S
C309 C315 1.429 . S
C310 C302 1.574 . S
C310 H305 0.949 . S
C310 C316 1.368 . S
C311 C295 1.349 . S
C311 H303 0.950 . S
C311 C309 1.327 . S
C312 C300 1.349 . S
C312 H306 0.950 . S
C312 C313 1.327 . S
C313 H307 0.950 . S
C313 C312 1.327 . S
C313 C317 1.429 . S
C314 C297 1.574 . S
C314 H308 0.949 . S
C314 C318 1.368 . S
C315 C296 1.429 . S
C315 C309 1.429 . S
C315 C316 1.523 . S
C316 C297 1.368 . S
C316 C310 1.368 . S
C316 C315 1.523 . S
C317 C301 1.429 . S
C317 C313 1.429 . S
C317 C318 1.523 . S
C318 C302 1.368 . S
C318 C314 1.368 . S
C318 C317 1.523 . S
H319 C294 0.950 . S
H320 C296 0.950 . S
H321 C297 0.949 . S
H322 C299 0.950 . S
H323 C301 0.950 . S
C324 C325 1.349 . S
C324 C326 1.327 . S
C324 H349 0.950 . S
C325 C324 1.349 . S
C325 C341 1.349 . S
C326 C324 1.327 . S
C326 C345 1.429 . S
C326 H350 0.950 . S
C327 C344 1.574 . S
C327 C346 1.368 . S
C327 H351 0.949 . S
H328 C332 0.949 . S
C329 C330 1.349 . S
C329 C331 1.327 . S
C329 H352 0.950 . S
C330 C329 1.349 . S
C330 C342 1.349 . S
C331 C329 1.327 . S
C331 C347 1.429 . S
C331 H353 0.950 . S
C332 H328 0.949 . S
C332 C340 1.574 . S
C332 C348 1.368 . S
H333 C341 0.950 . S
H334 C339 0.950 . S
H335 C340 0.949 . S
H336 C342 0.950 . S
H337 C343 0.950 . S
H338 C344 0.949 . S
C339 H334 0.950 . S
C339 C341 1.327 . S
C339 C345 1.429 . S
C340 C332 1.574 . S
C340 H335 0.949 . S
C340 C346 1.368 . S
C341 C325 1.349 . S
C341 H333 0.950 . S
C341 C339 1.327 . S
C342 C330 1.349 . S
C342 H336 0.950 . S
C342 C343 1.327 . S
C343 H337 0.950 . S
C343 C342 1.327 . S
C343 C347 1.429 . S
C344 C327 1.574 . S
C344 H338 0.949 . S
C344 C348 1.368 . S
C345 C326 1.429 . S
C345 C339 1.429 . S
C345 C346 1.523 . S
C346 C327 1.368 . S
C346 C340 1.368 . S
C346 C345 1.523 . S
C347 C331 1.429 . S
C347 C343 1.429 . S
C347 C348 1.523 . S
C348 C332 1.368 . S
C348 C344 1.368 . S
C348 C347 1.523 . S
H349 C324 0.950 . S
H350 C326 0.950 . S
H351 C327 0.949 . S
H352 C329 0.950 . S
H353 C331 0.950 . S
C354 C355 1.349 . S
C354 C356 1.327 . S
C354 H379 0.950 . S
C355 C354 1.349 . S
C355 C371 1.349 . S
C356 C354 1.327 . S
C356 C375 1.429 . S
C356 H380 0.950 . S
C357 C374 1.574 . S
C357 C376 1.368 . S
C357 H381 0.949 . S
H358 C362 0.949 . S
C359 C360 1.349 . S
C359 C361 1.327 . S
C359 H382 0.950 . S
C360 C359 1.349 . S
C360 C372 1.349 . S
C361 C359 1.327 . S
C361 C377 1.429 . S
C361 H383 0.950 . S
C362 H358 0.949 . S
C362 C370 1.574 . S
C362 C378 1.368 . S
H363 C371 0.950 . S
H364 C369 0.950 . S
H365 C370 0.949 . S
H366 C372 0.950 . S
H367 C373 0.950 . S
H368 C374 0.949 . S
C369 H364 0.950 . S
C369 C371 1.327 . S
C369 C375 1.429 . S
C370 C362 1.574 . S
C370 H365 0.949 . S
C370 C376 1.368 . S
C371 C355 1.349 . S
C371 H363 0.950 . S
C371 C369 1.327 . S
C372 C360 1.349 . S
C372 H366 0.950 . S
C372 C373 1.327 . S
C373 H367 0.950 . S
C373 C372 1.327 . S
C373 C377 1.429 . S
C374 C357 1.574 . S
C374 H368 0.949 . S
C374 C378 1.368 . S
C375 C356 1.429 . S
C375 C369 1.429 . S
C375 C376 1.523 . S
C376 C357 1.368 . S
C376 C370 1.368 . S
C376 C375 1.523 . S
C377 C361 1.429 . S
C377 C373 1.429 . S
C377 C378 1.523 . S
C378 C362 1.368 . S
C378 C374 1.368 . S
C378 C377 1.523 . S
H379 C354 0.950 . S
H380 C356 0.950 . S
H381 C357 0.949 . S
H382 C359 0.950 . S
H383 C361 0.950 . S
C384 C385 1.349 . S
C384 C386 1.327 . S
C384 H409 0.950 . S
C385 C384 1.349 . S
C385 C401 1.349 . S
C386 C384 1.327 . S
C386 C405 1.429 . S
C386 H410 0.950 . S
C387 C404 1.574 . S
C387 C406 1.368 . S
C387 H411 0.949 . S
H388 C392 0.949 . S
C389 C390 1.349 . S
C389 C391 1.327 . S
C389 H412 0.950 . S
C390 C389 1.349 . S
C390 C402 1.349 . S
C391 C389 1.327 . S
C391 C407 1.429 . S
C391 H413 0.950 . S
C392 H388 0.949 . S
C392 C400 1.574 . S
C392 C408 1.368 . S
H393 C401 0.950 . S
H394 C399 0.950 . S
H395 C400 0.949 . S
H396 C402 0.950 . S
H397 C403 0.950 . S
H398 C404 0.949 . S
C399 H394 0.950 . S
C399 C401 1.327 . S
C399 C405 1.429 . S
C400 C392 1.574 . S
C400 H395 0.949 . S
C400 C406 1.368 . S
C401 C385 1.349 . S
C401 H393 0.950 . S
C401 C399 1.327 . S
C402 C390 1.349 . S
C402 H396 0.950 . S
C402 C403 1.327 . S
C403 H397 0.950 . S
C403 C402 1.327 . S
C403 C407 1.429 . S
C404 C387 1.574 . S
C404 H398 0.949 . S
C404 C408 1.368 . S
C405 C386 1.429 . S
C405 C399 1.429 . S
C405 C406 1.523 . S
C406 C387 1.368 . S
C406 C400 1.368 . S
C406 C405 1.523 . S
C407 C391 1.429 . S
C407 C403 1.429 . S
C407 C408 1.523 . S
C408 C392 1.368 . S
C408 C404 1.368 . S
C408 C407 1.523 . S
H409 C384 0.950 . S
H410 C386 0.950 . S
H411 C387 0.949 . S
H412 C389 0.950 . S
H413 C391 0.950 . S
C414 C415 1.349 . S
C414 C416 1.327 . S
C414 H439 0.950 . S
C415 C414 1.349 . S
C415 C431 1.349 . S
C416 C414 1.327 . S
C416 C435 1.429 . S
C416 H440 0.950 . S
C417 C434 1.574 . S
C417 C436 1.368 . S
C417 H441 0.949 . S
H418 C422 0.949 . S
C419 C420 1.349 1_565 S
C419 C421 1.327 . S
C419 H442 0.950 . S
C420 C419 1.349 1_545 S
C420 C432 1.349 . S
C421 C419 1.327 . S
C421 C437 1.429 . S
C421 H443 0.950 . S
C422 H418 0.949 . S
C422 C430 1.574 . S
C422 C438 1.368 . S
H423 C431 0.950 . S
H424 C429 0.950 . S
H425 C430 0.949 . S
H426 C432 0.950 . S
H427 C433 0.950 . S
H428 C434 0.949 . S
C429 H424 0.950 . S
C429 C431 1.327 . S
C429 C435 1.429 . S
C430 C422 1.574 . S
C430 H425 0.949 . S
C430 C436 1.368 . S
C431 C415 1.349 . S
C431 H423 0.950 . S
C431 C429 1.327 . S
C432 C420 1.349 . S
C432 H426 0.950 . S
C432 C433 1.327 1_545 S
C433 H427 0.950 . S
C433 C432 1.327 1_565 S
C433 C437 1.429 . S
C434 C417 1.574 . S
C434 H428 0.949 . S
C434 C438 1.368 . S
C435 C416 1.429 . S
C435 C429 1.429 . S
C435 C436 1.523 . S
C436 C417 1.368 . S
C436 C430 1.368 . S
C436 C435 1.523 . S
C437 C421 1.429 . S
C437 C433 1.429 . S
C437 C438 1.523 . S
C438 C422 1.368 . S
C438 C434 1.368 . S
C438 C437 1.523 . S
H439 C414 0.950 . S
H440 C416 0.950 . S
H441 C417 0.949 . S
H442 C419 0.950 . S
H443 C421 0.950 . S
C444 C445 1.349 . S
C444 C446 1.327 . S
C444 H469 0.950 . S
C445 C444 1.349 . S
C445 C461 1.349 . S
C446 C444 1.327 . S
C446 C465 1.429 . S
C446 H470 0.950 . S
C447 C464 1.574 . S
C447 C466 1.368 . S
C447 H471 0.949 . S
H448 C452 0.949 . S
C449 C450 1.349 . S
C449 C451 1.327 . S
C449 H472 0.950 . S
C450 C449 1.349 . S
C450 C462 1.349 . S
C451 C449 1.327 . S
C451 C467 1.429 . S
C451 H473 0.950 . S
C452 H448 0.949 . S
C452 C460 1.574 . S
C452 C468 1.368 . S
H453 C461 0.950 . S
H454 C459 0.950 . S
H455 C460 0.949 . S
H456 C462 0.950 . S
H457 C463 0.950 . S
H458 C464 0.949 . S
C459 H454 0.950 . S
C459 C461 1.327 . S
C459 C465 1.429 . S
C460 C452 1.574 . S
C460 H455 0.949 . S
C460 C466 1.368 . S
C461 C445 1.349 . S
C461 H453 0.950 . S
C461 C459 1.327 . S
C462 C450 1.349 . S
C462 H456 0.950 . S
C462 C463 1.327 . S
C463 H457 0.950 . S
C463 C462 1.327 . S
C463 C467 1.429 . S
C464 C447 1.574 . S
C464 H458 0.949 . S
C464 C468 1.368 . S
C465 C446 1.429 . S
C465 C459 1.429 . S
C465 C466 1.523 . S
C466 C447 1.368 . S
C466 C460 1.368 . S
C466 C465 1.523 . S
C467 C451 1.429 . S
C467 C463 1.429 . S
C467 C468 1.523 . S
C468 C452 1.368 . S
C468 C464 1.368 . S
C468 C467 1.523 . S
H469 C444 0.950 . S
H470 C446 0.950 . S
H471 C447 0.949 . S
H472 C449 0.950 . S
H473 C451 0.950 . S
C474 C475 1.349 . S
C474 C476 1.327 . S
C474 H499 0.950 . S
C475 C474 1.349 . S
C475 C491 1.349 . S
C476 C474 1.327 . S
C476 C495 1.429 . S
C476 H500 0.950 . S
C477 C494 1.574 . S
C477 C496 1.368 . S
C477 H501 0.949 . S
H478 C482 0.949 . S
C479 C480 1.349 . S
C479 C481 1.327 . S
C479 H502 0.950 . S
C480 C479 1.349 . S
C480 C492 1.349 . S
C481 C479 1.327 . S
C481 C497 1.429 . S
C481 H503 0.950 . S
C482 H478 0.949 . S
C482 C490 1.574 . S
C482 C498 1.368 . S
H483 C491 0.950 . S
H484 C489 0.950 . S
H485 C490 0.949 . S
H486 C492 0.950 . S
H487 C493 0.950 . S
H488 C494 0.949 . S
C489 H484 0.950 . S
C489 C491 1.327 . S
C489 C495 1.429 . S
C490 C482 1.574 . S
C490 H485 0.949 . S
C490 C496 1.368 . S
C491 C475 1.349 . S
C491 H483 0.950 . S
C491 C489 1.327 . S
C492 C480 1.349 . S
C492 H486 0.950 . S
C492 C493 1.327 . S
C493 H487 0.950 . S
C493 C492 1.327 . S
C493 C497 1.429 . S
C494 C477 1.574 . S
C494 H488 0.949 . S
C494 C498 1.368 . S
C495 C476 1.429 . S
C495 C489 1.429 . S
C495 C496 1.523 . S
C496 C477 1.368 . S
C496 C490 1.368 . S
C496 C495 1.523 . S
C497 C481 1.429 . S
C497 C493 1.429 . S
C497 C498 1.523 . S
C498 C482 1.368 . S
C498 C494 1.368 . S
C498 C497 1.523 . S
H499 C474 0.950 . S
H500 C476 0.950 . S
H501 C477 0.949 . S
H502 C479 0.950 . S
H503 C481 0.950 . S
C504 C505 1.349 . S
C504 C506 1.327 . S
C504 H529 0.950 . S
C505 C504 1.349 . S
C505 C521 1.349 . S
C506 C504 1.327 . S
C506 C525 1.429 . S
C506 H530 0.950 . S
C507 C524 1.574 . S
C507 C526 1.368 . S
C507 H531 0.949 . S
H508 C512 0.949 . S
C509 C510 1.349 . S
C509 C511 1.327 . S
C509 H532 0.950 . S
C510 C509 1.349 . S
C510 C522 1.349 . S
C511 C509 1.327 . S
C511 C527 1.429 . S
C511 H533 0.950 . S
C512 H508 0.949 . S
C512 C520 1.574 . S
C512 C528 1.368 . S
H513 C521 0.950 . S
H514 C519 0.950 . S
H515 C520 0.949 . S
H516 C522 0.950 . S
H517 C523 0.950 . S
H518 C524 0.949 . S
C519 H514 0.950 . S
C519 C521 1.327 . S
C519 C525 1.429 . S
C520 C512 1.574 . S
C520 H515 0.949 . S
C520 C526 1.368 . S
C521 C505 1.349 . S
C521 H513 0.950 . S
C521 C519 1.327 . S
C522 C510 1.349 . S
C522 H516 0.950 . S
C522 C523 1.327 . S
C523 H517 0.950 . S
C523 C522 1.327 . S
C523 C527 1.429 . S
C524 C507 1.574 . S
C524 H518 0.949 . S
C524 C528 1.368 . S
C525 C506 1.429 . S
C525 C519 1.429 . S
C525 C526 1.523 . S
C526 C507 1.368 . S
C526 C520 1.368 . S
C526 C525 1.523 . S
C527 C511 1.429 . S
C527 C523 1.429 . S
C527 C528 1.523 . S
C528 C512 1.368 . S
C528 C524 1.368 . S
C528 C527 1.523 . S
H529 C504 0.950 . S
H530 C506 0.950 . S
H531 C507 0.949 . S
H532 C509 0.950 . S
H533 C511 0.950 . S
C534 C535 1.349 . S
C534 C536 1.327 . S
C534 H559 0.950 . S
C535 C534 1.349 . S
C535 C551 1.349 1_455 S
C536 C534 1.327 . S
C536 C555 1.429 . S
C536 H560 0.950 . S
C537 C554 1.574 . S
C537 C556 1.368 1_655 S
C537 H561 0.949 . S
H538 C542 0.949 . S
C539 C540 1.349 1_655 S
C539 C541 1.327 . S
C539 H562 0.950 . S
C540 C539 1.349 1_455 S
C540 C552 1.349 . S
C541 C539 1.327 . S
C541 C557 1.429 1_655 S
C541 H563 0.950 . S
C542 H538 0.949 . S
C542 C550 1.574 . S
C542 C558 1.368 . S
H543 C551 0.950 . S
H544 C549 0.950 . S
H545 C550 0.949 . S
H546 C552 0.950 . S
H547 C553 0.950 . S
H548 C554 0.949 . S
C549 H544 0.950 . S
C549 C551 1.327 . S
C549 C555 1.429 1_655 S
C550 C542 1.574 . S
C550 H545 0.949 . S
C550 C556 1.368 . S
C551 C535 1.349 1_655 S
C551 H543 0.950 . S
C551 C549 1.327 . S
C552 C540 1.349 . S
C552 H546 0.950 . S
C552 C553 1.327 . S
C553 H547 0.950 . S
C553 C552 1.327 . S
C553 C557 1.429 . S
C554 C537 1.574 . S
C554 H548 0.949 . S
C554 C558 1.368 1_655 S
C555 C536 1.429 . S
C555 C549 1.429 1_455 S
C555 C556 1.523 . S
C556 C537 1.368 1_455 S
C556 C550 1.368 . S
C556 C555 1.523 . S
C557 C541 1.429 1_455 S
C557 C553 1.429 . S
C557 C558 1.523 1_556 S
C558 C542 1.368 . S
C558 C554 1.368 1_455 S
C558 C557 1.523 1_554 S
H559 C534 0.950 . S
H560 C536 0.950 . S
H561 C537 0.949 . S
H562 C539 0.950 . S
H563 C541 0.950 . S
C564 C565 1.349 . S
C564 C566 1.327 . S
C564 H589 0.950 1_545 S
C565 C564 1.349 . S
C565 C581 1.349 . S
C566 C564 1.327 . S
C566 C585 1.429 . S
C566 H590 0.950 1_545 S
C567 C584 1.574 . S
C567 C586 1.368 . S
C567 H591 0.949 . S
H568 C572 0.949 . S
C569 C570 1.349 . S
C569 C571 1.327 . S
C569 H592 0.950 . S
C570 C569 1.349 . S
C570 C582 1.349 . S
C571 C569 1.327 . S
C571 C587 1.429 . S
C571 H593 0.950 . S
C572 H568 0.949 . S
C572 C580 1.574 . S
C572 C588 1.368 . S
H573 C581 0.950 . S
H574 C579 0.950 . S
H575 C580 0.949 1_565 S
H576 C582 0.950 . S
H577 C583 0.950 . S
H578 C584 0.949 . S
C579 H574 0.950 . S
C579 C581 1.327 . S
C579 C585 1.429 . S
C580 C572 1.574 . S
C580 H575 0.949 1_545 S
C580 C586 1.368 . S
C581 C565 1.349 . S
C581 H573 0.950 . S
C581 C579 1.327 . S
C582 C570 1.349 . S
C582 H576 0.950 . S
C582 C583 1.327 . S
C583 H577 0.950 . S
C583 C582 1.327 . S
C583 C587 1.429 . S
C584 C567 1.574 . S
C584 H578 0.949 . S
C584 C588 1.368 . S
C585 C566 1.429 . S
C585 C579 1.429 . S
C585 C586 1.523 . S
C586 C567 1.368 . S
C586 C580 1.368 . S
C586 C585 1.523 . S
C587 C571 1.429 . S
C587 C583 1.429 . S
C587 C588 1.523 . S
C588 C572 1.368 . S
C588 C584 1.368 . S
C588 C587 1.523 . S
H589 C564 0.950 1_565 S
H590 C566 0.950 1_565 S
H591 C567 0.949 . S
H592 C569 0.950 . S
H593 C571 0.950 . S
C594 C595 1.349 . S
C594 C596 1.327 . S
C594 H619 0.950 . S
C595 C594 1.349 . S
C595 C611 1.349 . S
C596 C594 1.327 . S
C596 C615 1.429 . S
C596 H620 0.950 . S
C597 C614 1.574 . S
C597 C616 1.368 . S
C597 H621 0.949 . S
H598 C602 0.949 . S
C599 C600 1.349 . S
C599 C601 1.327 . S
C599 H622 0.950 . S
C600 C599 1.349 . S
C600 C612 1.349 . S
C601 C599 1.327 . S
C601 C617 1.429 . S
C601 H623 0.950 . S
C602 H598 0.949 . S
C602 C610 1.574 . S
C602 C618 1.368 . S
H603 C611 0.950 . S
H604 C609 0.950 . S
H605 C610 0.949 . S
H606 C612 0.950 . S
H607 C613 0.950 . S
H608 C614 0.949 . S
C609 H604 0.950 . S
C609 C611 1.327 . S
C609 C615 1.429 . S
C610 C602 1.574 . S
C610 H605 0.949 . S
C610 C616 1.368 . S
C611 C595 1.349 . S
C611 H603 0.950 . S
C611 C609 1.327 . S
C612 C600 1.349 . S
C612 H606 0.950 . S
C612 C613 1.327 . S
C613 H607 0.950 . S
C613 C612 1.327 . S
C613 C617 1.429 . S
C614 C597 1.574 . S
C614 H608 0.949 . S
C614 C618 1.368 . S
C615 C596 1.429 . S
C615 C609 1.429 . S
C615 C616 1.523 . S
C616 C597 1.368 . S
C616 C610 1.368 . S
C616 C615 1.523 . S
C617 C601 1.429 . S
C617 C613 1.429 . S
C617 C618 1.523 . S
C618 C602 1.368 . S
C618 C614 1.368 . S
C618 C617 1.523 . S
H619 C594 0.950 . S
H620 C596 0.950 . S
H621 C597 0.949 . S
H622 C599 0.950 . S
H623 C601 0.950 . S
C624 C625 1.349 1_565 S
C624 C626 1.327 . S
C624 H649 0.950 . S
C625 C624 1.349 1_545 S
C625 C641 1.349 . S
C626 C624 1.327 . S
C626 C645 1.429 1_565 S
C626 H650 0.950 . S
C627 C644 1.574 . S
C627 C646 1.368 . S
C627 H651 0.949 . S
H628 C632 0.949 . S
C629 C630 1.349 . S
C629 C631 1.327 . S
C629 H652 0.950 . S
C630 C629 1.349 . S
C630 C642 1.349 1_545 S
C631 C629 1.327 . S
C631 C647 1.429 . S
C631 H653 0.950 . S
C632 H628 0.949 . S
C632 C640 1.574 . S
C632 C648 1.368 1_565 S
H633 C641 0.950 . S
H634 C639 0.950 . S
H635 C640 0.949 . S
H636 C642 0.950 . S
H637 C643 0.950 . S
H638 C644 0.949 . S
C639 H634 0.950 . S
C639 C641 1.327 . S
C639 C645 1.429 . S
C640 C632 1.574 . S
C640 H635 0.949 . S
C640 C646 1.368 1_565 S
C641 C625 1.349 . S
C641 H633 0.950 . S
C641 C639 1.327 . S
C642 C630 1.349 1_565 S
C642 H636 0.950 . S
C642 C643 1.327 . S
C643 H637 0.950 . S
C643 C642 1.327 . S
C643 C647 1.429 1_565 S
C644 C627 1.574 . S
C644 H638 0.949 . S
C644 C648 1.368 . S
C645 C626 1.429 1_545 S
C645 C639 1.429 . S
C645 C646 1.523 . S
C646 C627 1.368 . S
C646 C640 1.368 1_545 S
C646 C645 1.523 . S
C647 C631 1.429 . S
C647 C643 1.429 1_545 S
C647 C648 1.523 . S
C648 C632 1.368 1_545 S
C648 C644 1.368 . S
C648 C647 1.523 . S
H649 C624 0.950 . S
H650 C626 0.950 . S
H651 C627 0.949 . S
H652 C629 0.950 . S
H653 C631 0.950 . S
C654 C655 1.349 . S
C654 C656 1.327 . S
C654 H679 0.950 . S
C655 C654 1.349 . S
C655 C671 1.349 . S
C656 C654 1.327 . S
C656 C675 1.429 . S
C656 H680 0.950 . S
C657 C674 1.574 . S
C657 C676 1.368 . S
C657 H681 0.949 . S
H658 C662 0.949 . S
C659 C660 1.349 . S
C659 C661 1.327 . S
C659 H682 0.950 . S
C660 C659 1.349 . S
C660 C672 1.349 . S
C661 C659 1.327 . S
C661 C677 1.429 . S
C661 H683 0.950 . S
C662 H658 0.949 . S
C662 C670 1.574 . S
C662 C678 1.368 . S
H663 C671 0.950 . S
H664 C669 0.950 . S
H665 C670 0.949 . S
H666 C672 0.950 . S
H667 C673 0.950 . S
H668 C674 0.949 . S
C669 H664 0.950 . S
C669 C671 1.327 . S
C669 C675 1.429 . S
C670 C662 1.574 . S
C670 H665 0.949 . S
C670 C676 1.368 . S
C671 C655 1.349 . S
C671 H663 0.950 . S
C671 C669 1.327 . S
C672 C660 1.349 . S
C672 H666 0.950 . S
C672 C673 1.327 . S
C673 H667 0.950 . S
C673 C672 1.327 . S
C673 C677 1.429 . S
C674 C657 1.574 . S
C674 H668 0.949 . S
C674 C678 1.368 . S
C675 C656 1.429 . S
C675 C669 1.429 . S
C675 C676 1.523 . S
C676 C657 1.368 . S
C676 C670 1.368 . S
C676 C675 1.523 . S
C677 C661 1.429 . S
C677 C673 1.429 . S
C677 C678 1.523 1_554 S
C678 C662 1.368 . S
C678 C674 1.368 . S
C678 C677 1.523 1_556 S
H679 C654 0.950 . S
H680 C656 0.950 . S
H681 C657 0.949 . S
H682 C659 0.950 . S
H683 C661 0.950 . S
C684 C685 1.349 . S
C684 C686 1.327 . S
C684 H709 0.950 . S
C685 C684 1.349 . S
C685 C701 1.343 1_455 S
C686 C684 1.327 . S
C686 C705 1.429 . S
C686 H710 0.950 . S
C687 C704 1.574 . S
C687 C706 1.360 1_655 S
C687 H711 0.956 . S
H688 C692 0.949 . S
C689 C690 1.350 . S
C689 C691 1.327 1_455 S
C689 H712 0.948 1_455 S
C690 C689 1.350 . S
C690 C702 1.349 . S
C691 C689 1.327 1_655 S
C691 C707 1.430 1_655 S
C691 H713 0.948 . S
C692 H688 0.949 . S
C692 C700 1.574 . S
C692 C708 1.368 . S
H693 C701 0.955 . S
H694 C699 0.957 . S
H695 C700 0.949 . S
H696 C702 0.950 . S
H697 C703 0.950 . S
H698 C704 0.956 . S
C699 H694 0.957 . S
C699 C701 1.327 . S
C699 C705 1.423 1_655 S
C700 C692 1.574 . S
C700 H695 0.949 . S
C700 C706 1.368 . S
C701 C685 1.343 1_655 S
C701 H693 0.955 . S
C701 C699 1.327 . S
C702 C690 1.349 . S
C702 H696 0.950 . S
C702 C703 1.327 . S
C703 H697 0.950 . S
C703 C702 1.327 . S
C703 C707 1.429 . S
C704 C687 1.574 . S
C704 H698 0.956 . S
C704 C708 1.362 1_655 S
C705 C686 1.429 . S
C705 C699 1.423 1_455 S
C705 C706 1.523 . S
C706 C687 1.360 1_455 S
C706 C700 1.368 . S
C706 C705 1.523 . S
C707 C691 1.430 1_455 S
C707 C703 1.429 . S
C707 C708 1.523 . S
C708 C692 1.368 . S
C708 C704 1.362 1_455 S
C708 C707 1.523 . S
H709 C684 0.950 . S
H710 C686 0.950 . S
H711 C687 0.956 . S
H712 C689 0.948 1_655 S
H713 C691 0.948 . S
C175 C24 2.810 . S
C180 C169 2.788 . S
C205 C66 1.107 . S
C210 C151 1.139 . S
C235 C93 1.632 . S
C240 C163 1.630 . S
C265 C13 2.865 . S
C270 C172 2.850 . S
C300 C154 1.230 . S
C295 C57 1.225 . S
C330 C160 1.758 . S
C325 C104 1.782 . S
C355 C64 1.768 . S
C360 C133 1.741 . S
C385 C97 0.444 . S
C390 C142 0.410 . S
C415 C17 1.254 . S
C420 C124 1.274 . S
C450 C136 1.636 . S
C445 C53 1.643 . S
C480 C145 0.147 . S
C475 C106 0.386 . S
C505 C26 1.098 . S
C510 C127 1.126 . S
C540 C143 1.059 . S
C535 C2 1.041 . S
C565 C63 1.451 . S
C570 C125 1.499 . S
C595 C82 1.363 . S
C600 C134 1.384 . S
C630 C161 1.403 . S
C625 C42 1.380 . S
C660 C170 1.787 . S
C655 C103 1.734 . S
C685 C23 1.461 . S
C690 C152 1.497 . S
