# Generated by pormake.
# Topology pyr, (3,6)-cn, num edge types: 1
# Building blocks:
#     Node 0, Type 0, BuildingBlock: VETTIZ_charged_linker_0, # of connection points: 3
#     Node 1, Type 0, BuildingBlock: VETTIZ_charged_linker_0, # of connection points: 3
#     Node 2, Type 0, BuildingBlock: VETTIZ_charged_linker_0, # of connection points: 3
#     Node 3, Type 0, BuildingBlock: VETTIZ_charged_linker_0, # of connection points: 3
#     Node 4, Type 0, BuildingBlock: VETTIZ_charged_linker_0, # of connection points: 3
#     Node 5, Type 0, BuildingBlock: VETTIZ_charged_linker_0, # of connection points: 3
#     Node 6, Type 0, BuildingBlock: VETTIZ_charged_linker_0, # of connection points: 3
#     Node 7, Type 0, BuildingBlock: VETTIZ_charged_linker_0, # of connection points: 3
#     Node 8, Type 1, BuildingBlock: LEVNOQ01_clean_sbu_1, # of connection points: 6
#     Node 9, Type 1, BuildingBlock: LEVNOQ01_clean_sbu_1, # of connection points: 6
#     Node 10, Type 1, BuildingBlock: LEVNOQ01_clean_sbu_1, # of connection points: 6
#     Node 11, Type 1, BuildingBlock: LEVNOQ01_clean_sbu_1, # of connection points: 6
#     Edge 12, Type (0, 1), BuildingBlock: CIFDUS_clean_linker_0, # of connection points: 2
#     Edge 13, Type (0, 1), BuildingBlock: CIFDUS_clean_linker_0, # of connection points: 2
#     Edge 14, Type (0, 1), BuildingBlock: CIFDUS_clean_linker_0, # of connection points: 2
#     Edge 15, Type (0, 1), BuildingBlock: CIFDUS_clean_linker_0, # of connection points: 2
#     Edge 16, Type (0, 1), BuildingBlock: CIFDUS_clean_linker_0, # of connection points: 2
#     Edge 17, Type (0, 1), BuildingBlock: CIFDUS_clean_linker_0, # of connection points: 2
#     Edge 18, Type (0, 1), BuildingBlock: CIFDUS_clean_linker_0, # of connection points: 2
#     Edge 19, Type (0, 1), BuildingBlock: CIFDUS_clean_linker_0, # of connection points: 2
#     Edge 20, Type (0, 1), BuildingBlock: CIFDUS_clean_linker_0, # of connection points: 2
#     Edge 21, Type (0, 1), BuildingBlock: CIFDUS_clean_linker_0, # of connection points: 2
#     Edge 22, Type (0, 1), BuildingBlock: CIFDUS_clean_linker_0, # of connection points: 2
#     Edge 23, Type (0, 1), BuildingBlock: CIFDUS_clean_linker_0, # of connection points: 2
#     Edge 24, Type (0, 1), BuildingBlock: CIFDUS_clean_linker_0, # of connection points: 2
#     Edge 25, Type (0, 1), BuildingBlock: CIFDUS_clean_linker_0, # of connection points: 2
#     Edge 26, Type (0, 1), BuildingBlock: CIFDUS_clean_linker_0, # of connection points: 2
#     Edge 27, Type (0, 1), BuildingBlock: CIFDUS_clean_linker_0, # of connection points: 2
#     Edge 28, Type (0, 1), BuildingBlock: CIFDUS_clean_linker_0, # of connection points: 2
#     Edge 29, Type (0, 1), BuildingBlock: CIFDUS_clean_linker_0, # of connection points: 2
#     Edge 30, Type (0, 1), BuildingBlock: CIFDUS_clean_linker_0, # of connection points: 2
#     Edge 31, Type (0, 1), BuildingBlock: CIFDUS_clean_linker_0, # of connection points: 2
#     Edge 32, Type (0, 1), BuildingBlock: CIFDUS_clean_linker_0, # of connection points: 2
#     Edge 33, Type (0, 1), BuildingBlock: CIFDUS_clean_linker_0, # of connection points: 2
#     Edge 34, Type (0, 1), BuildingBlock: CIFDUS_clean_linker_0, # of connection points: 2
#     Edge 35, Type (0, 1), BuildingBlock: CIFDUS_clean_linker_0, # of connection points: 2
# Relax obj value: 0.035
# Max RMSD: 0.111
# Mean RMSD: 0.047
data_MOF--net-pry--node1-LEVNOQ01_clean_sbu_1--node2-VETTIZ_charged_linker_0--edge1-CIFDUS_clean_linker_0
_symmetry_space_group_name_H-M    P1
_symmetry_Int_Tables_number       1
_symmetry_cell_setting            triclinic
loop_
_symmetry_equiv_pos_as_xyz
'x, y, z'
_cell_length_a     41.092096
_cell_length_b     39.703089
_cell_length_c     39.690848
_cell_angle_alpha  92.32174
_cell_angle_beta   90.998948
_cell_angle_gamma 93.755225
loop_
_atom_site_label
_atom_site_type_symbol
_atom_site_fract_x
_atom_site_fract_y
_atom_site_fract_z
_atom_type_partial_charge
C0 C 0.11614 0.08274 0.23523 0.0
C1 C 0.09126 0.09615 0.2547 0.0
C2 C 0.07274 0.12109 0.24105 0.0
C3 C 0.10519 0.12101 0.19058 0.0
C4 C 0.12289 0.0958 0.20337 0.0
C5 C 0.14998 0.08663 0.18009 0.0
H6 H 0.24017 0.12473 0.04287 0.0
C7 C 0.11983 0.1313 0.15842 0.0
C8 C 0.14632 0.11146 0.15208 0.0
H9 H 0.25579 0.04705 0.11362 0.0
H10 H 0.20586 0.05964 0.14171 0.0
H11 H 0.22514 0.17884 0.09714 0.0
H12 H 0.15821 0.11294 0.03584 0.0
H13 H 0.1466 0.15495 0.03468 0.0
H14 H 0.18561 0.14473 0.01877 0.0
H15 H 0.21727 0.18639 0.05357 0.0
H16 H 0.19177 0.20198 0.08654 0.0
C17 C 0.18281 0.09305 0.19973 0.0
C18 C 0.1428 0.04962 0.167 0.0
C19 C 0.07515 0.23023 0.09955 0.0
C20 C 0.08692 0.25147 0.07416 0.0
C21 C 0.11489 0.24219 0.05664 0.0
C22 C 0.13106 0.21326 0.065 0.0
C23 C 0.1197 0.19352 0.09167 0.0
C24 C 0.09223 0.20243 0.10846 0.0
C25 C 0.08538 0.18133 0.13848 0.0
C26 C 0.11269 0.15744 0.1365 0.0
C27 C 0.13248 0.16417 0.10875 0.0
C28 C 0.08832 0.20501 0.17074 0.0
C29 C 0.05157 0.16215 0.13284 0.0
C30 C 0.23301 0.1103 0.06442 0.0
C31 C 0.25255 0.08513 0.07619 0.0
C32 C 0.24144 0.06652 0.10382 0.0
C33 C 0.21261 0.07422 0.12043 0.0
C34 C 0.1948 0.10112 0.10971 0.0
C35 C 0.20481 0.11815 0.08162 0.0
C36 C 0.18387 0.14681 0.07423 0.0
C37 C 0.15919 0.14395 0.1021 0.0
C38 C 0.1658 0.11734 0.1232 0.0
C39 C 0.20545 0.18036 0.07775 0.0
C40 C 0.16773 0.13979 0.03895 0.0
H41 H 0.06414 0.15213 0.20024 0.0
H42 H 0.13062 0.06338 0.24505 0.0
H43 H 0.1163 0.04437 0.1613 0.0
H44 H 0.1551 0.04387 0.14316 0.0
H45 H 0.14998 0.03169 0.18614 0.0
H46 H 0.18298 0.11684 0.21556 0.0
H47 H 0.18697 0.07211 0.2167 0.0
H48 H 0.20392 0.09641 0.18318 0.0
H49 H 0.05343 0.23548 0.11329 0.0
H50 H 0.12503 0.2578 0.03718 0.0
H51 H 0.15235 0.20789 0.05097 0.0
H52 H 0.10277 0.22909 0.16639 0.0
H53 H 0.06397 0.21171 0.17954 0.0
H54 H 0.10158 0.19392 0.19165 0.0
H55 H 0.04859 0.15205 0.10633 0.0
H56 H 0.04816 0.13997 0.14865 0.0
H57 H 0.03162 0.17914 0.13783 0.0
H58 H 0.05304 0.13121 0.25525 0.0
C59 C 0.07929 0.13325 0.20909 0.0
C60 C 0.26409 0.88837 0.55864 0.0
C61 C 0.24636 0.91546 0.57001 0.0
C62 C 0.25907 0.93693 0.5969 0.0
C63 C 0.30639 0.90401 0.60109 0.0
C64 C 0.29413 0.88336 0.57431 0.0
C65 C 0.31678 0.85659 0.5646 0.0
H66 H 0.45105 0.77377 0.59787 0.0
C67 C 0.33771 0.89143 0.61223 0.0
C68 C 0.34401 0.86378 0.59087 0.0
H69 H 0.38126 0.75625 0.51514 0.0
H70 H 0.35304 0.80428 0.53414 0.0
H71 H 0.45653 0.85946 0.59417 0.0
H72 H 0.39968 0.78946 0.65398 0.0
H73 H 0.41348 0.82461 0.67994 0.0
H74 H 0.44275 0.79796 0.66119 0.0
H75 H 0.47473 0.83323 0.62414 0.0
H76 H 0.45915 0.87292 0.63711 0.0
C77 C 0.32858 0.86298 0.5283 0.0
C78 C 0.29837 0.8217 0.56874 0.0
C79 C 0.39571 0.94533 0.71667 0.0
C80 C 0.42179 0.93624 0.73709 0.0
C81 C 0.43981 0.90895 0.72589 0.0
C82 C 0.43115 0.89039 0.69568 0.0
C83 C 0.40404 0.89901 0.67644 0.0
C84 C 0.38697 0.92621 0.68712 0.0
C85 C 0.35733 0.93037 0.66537 0.0
C86 C 0.35942 0.90143 0.63961 0.0
C87 C 0.38703 0.88328 0.64579 0.0
C88 C 0.36162 0.96505 0.64891 0.0
C89 C 0.32671 0.92582 0.68754 0.0
C90 C 0.4299 0.78066 0.5837 0.0
C91 C 0.41841 0.76125 0.55487 0.0
C92 C 0.3909 0.77104 0.53704 0.0
C93 C 0.37432 0.79882 0.54834 0.0
C94 C 0.38531 0.81722 0.57777 0.0
C95 C 0.4131 0.80864 0.59457 0.0
C96 C 0.4211 0.83156 0.62528 0.0
C97 C 0.39354 0.85528 0.62393 0.0
C98 C 0.37245 0.8462 0.59629 0.0
C99 C 0.45473 0.85028 0.62023 0.0
C100 C 0.41945 0.80997 0.6569 0.0
H101 H 0.29717 0.94843 0.63297 0.0
H102 H 0.25505 0.87183 0.53769 0.0
H103 H 0.28389 0.82183 0.59217 0.0
H104 H 0.31474 0.80099 0.57128 0.0
H105 H 0.2812 0.81523 0.54716 0.0
H106 H 0.32751 0.88998 0.52211 0.0
H107 H 0.31329 0.84772 0.50919 0.0
H108 H 0.35448 0.85774 0.52497 0.0
H109 H 0.38144 0.96628 0.72411 0.0
H110 H 0.45976 0.90097 0.74117 0.0
H111 H 0.4453 0.86944 0.68897 0.0
H112 H 0.38738 0.97043 0.6415 0.0
H113 H 0.35518 0.9858 0.66667 0.0
H114 H 0.3471 0.96611 0.62534 0.0
H115 H 0.33088 0.9086 0.7084 0.0
H116 H 0.30526 0.9138 0.67354 0.0
H117 H 0.3202 0.95035 0.69912 0.0
H118 H 0.24563 0.95789 0.60612 0.0
C119 C 0.28892 0.93133 0.61252 0.0
C120 C 0.60249 0.26863 0.90733 0.0
C121 C 0.57536 0.25118 0.89019 0.0
C122 C 0.55512 0.27057 0.87038 0.0
C123 C 0.59296 0.31925 0.87803 0.0
C124 C 0.61086 0.30242 0.90069 0.0
C125 C 0.63926 0.32447 0.91558 0.0
H126 H 0.73973 0.4649 0.90285 0.0
C127 C 0.61023 0.35189 0.8725 0.0
C128 C 0.63681 0.35591 0.89522 0.0
H129 H 0.73947 0.39262 0.98149 0.0
H130 H 0.69119 0.36278 0.95611 0.0
H131 H 0.66179 0.47336 0.90059 0.0
H132 H 0.7264 0.41287 0.84438 0.0
H133 H 0.69527 0.42095 0.81564 0.0
H134 H 0.72073 0.45574 0.83444 0.0
H135 H 0.69057 0.48996 0.871 0.0
H136 H 0.65005 0.4742 0.85779 0.0
C137 C 0.63349 0.33144 0.9537 0.0
C138 C 0.67113 0.30706 0.90829 0.0
C139 C 0.58303 0.41213 0.76709 0.0
C140 C 0.59723 0.44082 0.75242 0.0
C141 C 0.62597 0.45713 0.76635 0.0
C142 C 0.63954 0.4458 0.79607 0.0
C143 C 0.62409 0.41792 0.81152 0.0
C144 C 0.59672 0.4012 0.79661 0.0
C145 C 0.58356 0.37196 0.81613 0.0
C146 C 0.60766 0.37402 0.84568 0.0
C147 C 0.63109 0.40098 0.84278 0.0
C148 C 0.54837 0.37845 0.82722 0.0
C149 C 0.5859 0.33967 0.79326 0.0
C150 C 0.72887 0.44309 0.91505 0.0
C151 C 0.74304 0.43119 0.94429 0.0
C152 C 0.7288 0.40215 0.95893 0.0
C153 C 0.7009 0.38494 0.94427 0.0
C154 C 0.68751 0.39674 0.91459 0.0
C155 C 0.70125 0.42556 0.9007 0.0
C156 C 0.68385 0.43429 0.86904 0.0
C157 C 0.65649 0.40678 0.86717 0.0
C158 C 0.65911 0.38454 0.89348 0.0
C159 C 0.67095 0.46988 0.87455 0.0
C160 C 0.70764 0.43108 0.83924 0.0
H161 H 0.54706 0.31773 0.84984 0.0
H162 H 0.61734 0.25692 0.92555 0.0
H163 H 0.6722 0.29935 0.88109 0.0
H164 H 0.69319 0.32373 0.91427 0.0
H165 H 0.67258 0.28407 0.92316 0.0
H166 H 0.60788 0.32454 0.9607 0.0
H167 H 0.64948 0.31676 0.96958 0.0
H168 H 0.63768 0.35865 0.96109 0.0
H169 H 0.56078 0.39938 0.75657 0.0
H170 H 0.6369 0.47951 0.7552 0.0
H171 H 0.661 0.45966 0.80623 0.0
H172 H 0.54324 0.40557 0.82609 0.0
H173 H 0.52988 0.36377 0.81083 0.0
H174 H 0.54423 0.37218 0.85385 0.0
H175 H 0.61137 0.33744 0.78485 0.0
H176 H 0.57866 0.31608 0.80544 0.0
H177 H 0.56996 0.34052 0.77044 0.0
H178 H 0.53287 0.26027 0.85818 0.0
C179 C 0.56345 0.30449 0.86497 0.0
C180 C 0.93228 0.70721 0.43356 0.0
C181 C 0.92134 0.72317 0.4631 0.0
C182 C 0.89808 0.70577 0.48279 0.0
C183 C 0.89282 0.65986 0.44075 0.0
C184 C 0.91759 0.67562 0.42279 0.0
C185 C 0.92311 0.65703 0.38982 0.0
H186 H 0.87329 0.53457 0.27392 0.0
C187 C 0.8793 0.63001 0.42052 0.0
C188 C 0.89719 0.62793 0.39084 0.0
H189 H 0.94876 0.61542 0.26639 0.0
H190 H 0.94146 0.63228 0.32399 0.0
H191 H 0.88914 0.51371 0.34932 0.0
H192 H 0.82362 0.58334 0.30966 0.0
H193 H 0.80262 0.5593 0.33954 0.0
H194 H 0.81783 0.53838 0.30266 0.0
H195 H 0.85092 0.49949 0.32931 0.0
H196 H 0.85391 0.51103 0.37381 0.0
C197 C 0.95796 0.64442 0.39099 0.0
C198 C 0.91678 0.68101 0.36074 0.0
C199 C 0.77439 0.56745 0.45622 0.0
C200 C 0.75549 0.53943 0.44208 0.0
C201 C 0.76679 0.52233 0.41315 0.0
C202 C 0.79587 0.5335 0.39803 0.0
C203 C 0.81375 0.56237 0.41163 0.0
C204 C 0.80341 0.57831 0.44074 0.0
C205 C 0.82629 0.60778 0.45234 0.0
C206 C 0.8518 0.60716 0.42509 0.0
C207 C 0.84379 0.58106 0.40084 0.0
C208 C 0.84064 0.60061 0.48756 0.0
C209 C 0.80716 0.64009 0.45153 0.0
C210 C 0.88804 0.5562 0.28435 0.0
C211 C 0.91172 0.57344 0.26496 0.0
C212 C 0.93078 0.60094 0.28039 0.0
C213 C 0.92621 0.61118 0.31397 0.0
C214 C 0.9015 0.59472 0.33229 0.0
C215 C 0.88301 0.56759 0.31758 0.0
C216 C 0.85648 0.55458 0.34029 0.0
C217 C 0.86216 0.57857 0.37096 0.0
C218 C 0.88865 0.60192 0.36606 0.0
C219 C 0.86259 0.5177 0.34856 0.0
C220 C 0.82328 0.55881 0.32229 0.0
H221 H 0.86537 0.66284 0.48725 0.0
H222 H 0.9498 0.72022 0.41772 0.0
H223 H 0.89967 0.70041 0.36835 0.0
H224 H 0.90474 0.66778 0.33838 0.0
H225 H 0.93975 0.69458 0.35297 0.0
H226 H 0.96366 0.63493 0.41627 0.0
H227 H 0.9765 0.66516 0.38598 0.0
H228 H 0.96109 0.62294 0.37303 0.0
H229 H 0.76672 0.58072 0.4788 0.0
H230 H 0.75265 0.50081 0.40157 0.0
H231 H 0.80296 0.51961 0.37591 0.0
H232 H 0.83893 0.57314 0.49239 0.0
H233 H 0.82751 0.61357 0.50803 0.0
H234 H 0.86702 0.60828 0.48996 0.0
H235 H 0.79272 0.64048 0.42758 0.0
H236 H 0.82303 0.6636 0.45264 0.0
H237 H 0.78991 0.64115 0.47273 0.0
H238 H 0.88949 0.71761 0.50575 0.0
C239 C 0.8839 0.67414 0.47186 0.0
C240 C 0.89512 0.7766 0.93846 0.0
C241 C 0.92371 0.76121 0.92828 0.0
C242 C 0.94229 0.77686 0.90269 0.0
C243 C 0.90254 0.8187 0.89563 0.0
C244 C 0.88551 0.80553 0.92235 0.0
C245 C 0.85712 0.82622 0.93135 0.0
H246 H 0.76039 0.95247 0.89345 0.0
C247 C 0.88589 0.84816 0.88364 0.0
C248 C 0.85979 0.85344 0.9053 0.0
H249 H 0.74897 0.88319 0.9739 0.0
H250 H 0.80012 0.85938 0.95964 0.0
H251 H 0.78053 0.89795 0.84001 0.0
H252 H 0.83783 0.97061 0.90309 0.0
H253 H 0.85914 0.96697 0.86529 0.0
H254 H 0.81861 0.98215 0.86471 0.0
H255 H 0.78173 0.94268 0.83457 0.0
H256 H 0.81067 0.91672 0.8148 0.0
C257 C 0.82538 0.8032 0.92639 0.0
C258 C 0.8629 0.84121 0.96776 0.0
C259 C 0.91297 0.89726 0.76912 0.0
C260 C 0.90062 0.92421 0.75152 0.0
C261 C 0.8793 0.94518 0.76873 0.0
C262 C 0.86861 0.93822 0.80115 0.0
C263 C 0.87924 0.90996 0.81722 0.0
C264 C 0.90221 0.89088 0.80202 0.0
C265 C 0.91319 0.86411 0.82506 0.0
C266 C 0.89062 0.86841 0.85494 0.0
C267 C 0.8706 0.89515 0.84981 0.0
C268 C 0.90695 0.82916 0.80675 0.0
C269 C 0.94946 0.8728 0.83532 0.0
C270 C 0.76957 0.93289 0.90856 0.0
C271 C 0.75122 0.92002 0.93515 0.0
C272 C 0.76319 0.89383 0.95371 0.0
C273 C 0.79267 0.87985 0.94512 0.0
C274 C 0.81011 0.89189 0.91734 0.0
C275 C 0.79874 0.91848 0.90004 0.0
C276 C 0.81922 0.92697 0.87017 0.0
C277 C 0.84484 0.90116 0.87228 0.0
C278 C 0.83941 0.88052 0.89989 0.0
C279 C 0.79713 0.92107 0.83808 0.0
C280 C 0.8344 0.96362 0.87576 0.0
H281 H 0.94667 0.81502 0.86666 0.0
H282 H 0.88012 0.76635 0.95818 0.0
H283 H 0.88933 0.84752 0.97304 0.0
H284 H 0.85129 0.86527 0.97218 0.0
H285 H 0.85409 0.82299 0.98662 0.0
H286 H 0.82631 0.78712 0.90285 0.0
H287 H 0.8219 0.78617 0.94775 0.0
H288 H 0.80343 0.81745 0.92353 0.0
H289 H 0.93007 0.88104 0.75744 0.0
H290 H 0.87068 0.96725 0.75717 0.0
H291 H 0.85197 0.95493 0.81229 0.0
H292 H 0.88128 0.8257 0.79723 0.0
H293 H 0.92325 0.82666 0.78488 0.0
H294 H 0.9109 0.80811 0.82332 0.0
H295 H 0.95695 0.89982 0.83159 0.0
H296 H 0.95418 0.86927 0.86248 0.0
H297 H 0.96596 0.85736 0.82021 0.0
H298 H 0.96539 0.76774 0.89518 0.0
C299 C 0.9317 0.80494 0.8862 0.0
C300 C 0.74083 0.12083 0.45344 0.0
C301 C 0.7588 0.09446 0.44039 0.0
C302 C 0.74604 0.07452 0.41243 0.0
C303 C 0.69909 0.10801 0.40974 0.0
C304 C 0.71112 0.12724 0.4376 0.0
C305 C 0.68879 0.15442 0.44761 0.0
H306 H 0.55549 0.23939 0.41169 0.0
C307 C 0.66812 0.12132 0.39873 0.0
C308 C 0.66163 0.1483 0.42102 0.0
H309 H 0.62183 0.25657 0.49712 0.0
H310 H 0.65146 0.20848 0.47863 0.0
H311 H 0.54635 0.16007 0.4169 0.0
H312 H 0.6099 0.22252 0.35675 0.0
H313 H 0.59295 0.18884 0.33061 0.0
H314 H 0.56647 0.21785 0.35023 0.0
H315 H 0.53192 0.17894 0.37963 0.0
H316 H 0.54923 0.13826 0.37782 0.0
C317 C 0.67658 0.14795 0.48365 0.0
C318 C 0.70774 0.18906 0.44418 0.0
C319 C 0.6139 0.07606 0.28856 0.0
C320 C 0.5872 0.08611 0.26992 0.0
C321 C 0.56723 0.11015 0.28417 0.0
C322 C 0.57473 0.12532 0.31611 0.0
C323 C 0.60271 0.11655 0.33378 0.0
C324 C 0.62117 0.09154 0.32042 0.0
C325 C 0.65039 0.08605 0.34235 0.0
C326 C 0.64695 0.11247 0.37061 0.0
C327 C 0.61912 0.13037 0.36535 0.0
C328 C 0.64645 0.04969 0.35521 0.0
C329 C 0.68145 0.09359 0.32153 0.0
C330 C 0.57633 0.2326 0.42644 0.0
C331 C 0.58656 0.25164 0.45575 0.0
C332 C 0.61353 0.24202 0.47456 0.0
C333 C 0.63073 0.21428 0.46366 0.0
C334 C 0.62064 0.19591 0.43381 0.0
C335 C 0.59346 0.20483 0.41613 0.0
C336 C 0.58563 0.18203 0.38552 0.0
C337 C 0.6126 0.15786 0.38767 0.0
C338 C 0.63344 0.16646 0.41564 0.0
C339 C 0.55145 0.16394 0.38984 0.0
C340 C 0.58862 0.20372 0.35398 0.0
H341 H 0.70811 0.06493 0.37599 0.0
H342 H 0.74996 0.13642 0.47502 0.0
H343 H 0.72091 0.18965 0.41992 0.0
H344 H 0.6918 0.21033 0.44394 0.0
H345 H 0.72611 0.19401 0.46496 0.0
H346 H 0.67566 0.12058 0.48887 0.0
H347 H 0.69293 0.16148 0.50306 0.0
H348 H 0.65134 0.15524 0.48731 0.0
H349 H 0.6299 0.05809 0.2777 0.0
H350 H 0.54683 0.1185 0.26976 0.0
H351 H 0.55921 0.14426 0.32517 0.0
H352 H 0.62028 0.04154 0.35832 0.0
H353 H 0.65683 0.03126 0.33726 0.0
H354 H 0.6577 0.04754 0.38048 0.0
H355 H 0.67813 0.11484 0.30461 0.0
H356 H 0.70315 0.10186 0.33722 0.0
H357 H 0.68709 0.07124 0.30547 0.0
H358 H 0.75909 0.05363 0.40236 0.0
C359 C 0.71633 0.08102 0.3972 0.0
C360 C 0.41977 0.61976 0.23832 0.0
C361 C 0.40974 0.59116 0.25561 0.0
C362 C 0.38279 0.57012 0.24341 0.0
C363 C 0.37677 0.60665 0.1966 0.0
C364 C 0.40318 0.62696 0.20914 0.0
C365 C 0.41098 0.65709 0.18881 0.0
H366 H 0.36291 0.76019 0.07191 0.0
C367 C 0.36452 0.62248 0.16638 0.0
C368 C 0.38436 0.65214 0.16213 0.0
H369 H 0.45281 0.76912 0.13109 0.0
H370 H 0.43806 0.71616 0.15618 0.0
H371 H 0.31343 0.72551 0.1242 0.0
H372 H 0.37573 0.68995 0.04707 0.0
H373 H 0.34472 0.6576 0.0488 0.0
H374 H 0.33467 0.6994 0.03747 0.0
H375 H 0.30678 0.72978 0.07979 0.0
H376 H 0.29106 0.69297 0.1007 0.0
C377 C 0.40749 0.68909 0.21195 0.0
C378 C 0.44539 0.65416 0.17381 0.0
C379 C 0.2651 0.57161 0.09951 0.0
C380 C 0.24769 0.58331 0.07189 0.0
C381 C 0.2587 0.61364 0.0574 0.0
C382 C 0.28609 0.63246 0.07052 0.0
C383 C 0.30264 0.62105 0.09858 0.0
C384 C 0.29244 0.59098 0.11254 0.0
C385 C 0.31287 0.58379 0.14303 0.0
C386 C 0.33771 0.61394 0.14393 0.0
C387 C 0.33095 0.63574 0.11818 0.0
C388 C 0.29075 0.58408 0.17422 0.0
C389 C 0.32879 0.55002 0.13622 0.0
C390 C 0.37937 0.75098 0.09051 0.0
C391 C 0.4088 0.76906 0.09991 0.0
C392 C 0.42956 0.75607 0.12409 0.0
C393 C 0.42119 0.72509 0.13822 0.0
C394 C 0.39193 0.70703 0.12787 0.0
C395 C 0.3721 0.71966 0.10378 0.0
C396 C 0.34463 0.69507 0.09213 0.0
C397 C 0.35 0.66631 0.11503 0.0
C398 C 0.37717 0.67387 0.13626 0.0
C399 C 0.31214 0.71152 0.09929 0.0
C400 C 0.3499 0.68501 0.05443 0.0
H401 H 0.34598 0.56085 0.20522 0.0
H402 H 0.44016 0.63654 0.24752 0.0
H403 H 0.4519 0.6274 0.17136 0.0
H404 H 0.44693 0.66332 0.14786 0.0
H405 H 0.46451 0.66814 0.18998 0.0
H406 H 0.38588 0.6857 0.22828 0.0
H407 H 0.42933 0.69429 0.22869 0.0
H408 H 0.40353 0.71198 0.19809 0.0
H409 H 0.25719 0.54836 0.11118 0.0
H410 H 0.24531 0.62369 0.03675 0.0
H411 H 0.2926 0.65571 0.05886 0.0
H412 H 0.27302 0.604 0.17255 0.0
H413 H 0.27658 0.55945 0.17615 0.0
H414 H 0.30444 0.59014 0.19808 0.0
H415 H 0.33753 0.54819 0.10987 0.0
H416 H 0.35047 0.54737 0.15245 0.0
H417 H 0.31102 0.52818 0.13971 0.0
H418 H 0.37495 0.5477 0.25654 0.0
C419 C 0.36621 0.5777 0.21371 0.0
C420 C 0.05092 0.29323 0.5756 0.0
C421 C 0.05919 0.27699 0.54503 0.0
C422 C 0.08505 0.29174 0.52643 0.0
C423 C 0.09531 0.33594 0.57003 0.0
C424 C 0.069 0.32254 0.58735 0.0
C425 C 0.06351 0.34223 0.6196 0.0
H426 H 0.11075 0.46789 0.73298 0.0
C427 C 0.11008 0.36533 0.59027 0.0
C428 C 0.09138 0.36927 0.61913 0.0
H429 H 0.02745 0.39572 0.73464 0.0
H430 H 0.0423 0.37079 0.68154 0.0
H431 H 0.10265 0.48346 0.65361 0.0
H432 H 0.16264 0.41415 0.70306 0.0
H433 H 0.18615 0.43636 0.6735 0.0
H434 H 0.16949 0.4592 0.70852 0.0
H435 H 0.13797 0.49788 0.67876 0.0
H436 H 0.14115 0.48516 0.63484 0.0
C437 C 0.02974 0.35738 0.61663 0.0
C438 C 0.06707 0.31829 0.64927 0.0
C439 C 0.21671 0.42323 0.55438 0.0
C440 C 0.23701 0.45031 0.56818 0.0
C441 C 0.22683 0.46836 0.59704 0.0
C442 C 0.19742 0.45863 0.61263 0.0
C443 C 0.17804 0.43056 0.59921 0.0
C444 C 0.18753 0.41388 0.57013 0.0
C445 C 0.16366 0.38525 0.55872 0.0
C446 C 0.13847 0.38699 0.586 0.0
C447 C 0.14721 0.4132 0.61004 0.0
C448 C 0.14945 0.39298 0.52363 0.0
C449 C 0.18142 0.35205 0.55946 0.0
C450 C 0.09618 0.44645 0.72179 0.0
C451 C 0.06816 0.4333 0.73771 0.0
C452 C 0.04921 0.4059 0.72257 0.0
C453 C 0.05782 0.3916 0.69169 0.0
C454 C 0.08569 0.40487 0.6757 0.0
C455 C 0.1044 0.43188 0.69053 0.0
C456 C 0.13284 0.44264 0.66907 0.0
C457 C 0.12805 0.41737 0.63921 0.0
C458 C 0.10037 0.39544 0.6435 0.0
C459 C 0.12879 0.47928 0.65857 0.0
C460 C 0.1646 0.43813 0.68945 0.0
H461 H 0.12301 0.3304 0.5239 0.0
H462 H 0.03163 0.28271 0.59103 0.0
H463 H 0.08536 0.29948 0.64364 0.0
H464 H 0.07622 0.33157 0.67289 0.0
H465 H 0.04358 0.30405 0.65419 0.0
H466 H 0.02378 0.3629 0.59004 0.0
H467 H 0.00996 0.33964 0.62543 0.0
H468 H 0.02883 0.38198 0.63056 0.0
H469 H 0.2236 0.4093 0.53187 0.0
H470 H 0.24211 0.48931 0.60816 0.0
H471 H 0.19116 0.47299 0.6348 0.0
H472 H 0.15073 0.4206 0.51957 0.0
H473 H 0.16303 0.38082 0.503 0.0
H474 H 0.12321 0.38494 0.52077 0.0
H475 H 0.19642 0.35138 0.58302 0.0
H476 H 0.16457 0.32926 0.55923 0.0
H477 H 0.19797 0.34983 0.53777 0.0
H478 H 0.09167 0.28043 0.50246 0.0
C479 C 0.10318 0.32095 0.53882 0.0
O480 O 0.00483 0.00768 0.59491 0.0
Mg481 Mg 0.03318 0.03341 0.56022 0.0
O482 O 0.9815 0.97796 0.552 0.0
Mg483 Mg 0.00324 -0.00103 0.50017 0.0
O484 O 0.01543 0.05572 0.51876 0.0
O485 O 0.03338 0.08361 0.5669 0.0
O486 O 0.02574 0.01705 0.44763 0.0
O487 O 0.95168 0.02193 0.48932 0.0
Mg488 Mg 0.96728 0.97024 0.45064 0.0
O489 O 0.99082 0.94047 0.48291 0.0
O490 O 0.99038 0.99302 0.41063 0.0
O491 O 0.92059 0.98306 0.46187 0.0
O492 O 0.96276 0.92189 0.43574 0.0
C493 C 0.0811 0.99279 0.52851 0.0
C494 C 0.98506 0.98411 0.58383 0.0
C495 C 0.0232 0.08388 0.53599 0.0
C496 C 0.01614 0.01126 0.41696 0.0
C497 C 0.92374 0.01151 0.47701 0.0
C498 C 0.9788 0.91583 0.46268 0.0
O499 O 0.07866 0.0165 0.55031 0.0
O500 O 0.05641 0.98102 0.51061 0.0
O501 O 0.44924 0.07797 0.0288 0.0
Mg502 Mg 0.49976 0.08729 0.03181 0.0
O503 O 0.45082 0.02386 0.0135 0.0
Mg504 Mg 0.50742 0.01371 0.00319 0.0
O505 O 0.52228 0.06788 0.99113 0.0
O506 O 0.5215 0.12327 0.00326 0.0
O507 O 0.56301 0.00308 0.99441 0.0
O508 O 0.49442 0.01053 0.94262 0.0
Mg509 Mg 0.50578 0.96003 0.97096 0.0
O510 O 0.49295 0.95863 0.0202 0.0
O511 O 0.55379 0.96512 0.9535 0.0
O512 O 0.4671 0.96173 0.93668 0.0
O513 O 0.50354 0.91339 0.98724 0.0
C514 C 0.52916 0.04517 0.08254 0.0
C515 C 0.4346 0.04938 0.02202 0.0
C516 C 0.53077 0.0987 0.98423 0.0
C517 C 0.57392 0.98355 0.97154 0.0
C518 C 0.47574 0.98958 0.92464 0.0
C519 C 0.49368 0.92623 0.01522 0.0
O520 O 0.52406 0.07518 0.07551 0.0
O521 O 0.52249 0.02048 0.06127 0.0
O522 O 0.44348 0.54683 0.5502 0.0
Mg523 Mg 0.4649 0.49964 0.55087 0.0
O524 O 0.48294 0.56025 0.51636 0.0
Mg525 Mg 0.49351 0.50448 0.50307 0.0
O526 O 0.51327 0.49434 0.55845 0.0
O527 O 0.47708 0.50158 0.5992 0.0
O528 O 0.50705 0.44584 0.49243 0.0
O529 O 0.54753 0.52555 0.49962 0.0
Mg530 Mg 0.50909 0.48417 0.44839 0.0
O531 O 0.47826 0.52217 0.45006 0.0
O532 O 0.48537 0.43643 0.44225 0.0
O533 O 0.55937 0.48671 0.46227 0.0
O534 O 0.50817 0.50837 0.40532 0.0
C535 C 0.42178 0.46202 0.51867 0.0
C536 C 0.45994 0.56914 0.53491 0.0
C537 C 0.50623 0.4964 0.59015 0.0
C538 C 0.49891 0.42508 0.46772 0.0
C539 C 0.56873 0.51029 0.48313 0.0
C540 C 0.48638 0.52604 0.41905 0.0
O541 O 0.43627 0.45411 0.54495 0.0
O542 O 0.43582 0.4846 0.50094 0.0
O543 O 0.98257 0.42685 0.03727 0.0
Mg544 Mg -0.00055 0.47726 0.0506 0.0
O545 O 0.02193 0.44706 0.00711 0.0
Mg546 Mg 2e-05 0.50307 0.00371 0.0
O547 O 0.97663 0.52007 0.05759 0.0
O548 O 0.98146 0.48155 0.097 0.0
O549 O 0.98233 0.56384 0.99621 0.0
O550 O 0.95089 0.47327 0.99339 0.0
Mg551 Mg 0.98626 0.517 0.96161 0.0
O552 O 0.02181 0.48584 0.94957 0.0
O553 O 0.00533 0.56379 0.94796 0.0
O554 O 0.93462 0.51709 0.9701 0.0
O555 O 0.97937 0.49269 0.91606 0.0
C556 C 0.06476 0.51204 0.04309 0.0
C557 C 0.00715 0.4215 0.01984 0.0
C558 C 0.97211 0.51014 0.08807 0.0
C559 C 0.99184 0.5804 0.97058 0.0
C560 C 0.92766 0.48893 0.98231 0.0
C561 C 0.00761 0.48158 0.92023 0.0
O562 O 0.05043 0.48804 0.05832 0.0
O563 O 0.04998 0.52633 0.01968 0.0
H564 H 0.07458 0.03236 0.27326 0.0
H565 H 0.09078 0.13465 0.31311 0.0
H566 H 0.07272 0.1173 0.36874 0.0
H567 H 0.04721 0.07344 0.40493 0.0
H568 H 0.02783 0.97225 0.36254 0.0
H569 H 0.05215 0.98848 0.30967 0.0
C570 C 0.07469 0.05066 0.29432 0.0
C571 C 0.08404 0.08465 0.28917 0.0
C572 C 0.06336 0.04067 0.32593 0.0
C573 C 0.08359 0.10828 0.31653 0.0
C574 C 0.07321 0.09838 0.34832 0.0
C575 C 0.04903 0.05492 0.38432 0.0
C576 C 0.03581 0.02167 0.38771 0.0
C577 C 0.06233 0.06472 0.35324 0.0
C578 C 0.03781 -0.00197 0.36055 0.0
C579 C 0.05167 0.00727 0.33021 0.0
H580 H 0.4804 0.95329 0.77046 0.0
H581 H 0.3762 0.9565 0.78137 0.0
H582 H 0.38419 0.97963 0.83864 0.0
H583 H 0.41991 0.99176 0.88842 0.0
H584 H 0.52376 0.98789 0.87913 0.0
H585 H 0.51687 0.97204 0.81897 0.0
C586 C 0.45946 0.95919 0.78531 0.0
C587 C 0.42772 0.95295 0.77132 0.0
C588 C 0.46414 0.97229 0.81876 0.0
C589 C 0.40096 0.96131 0.79099 0.0
C590 C 0.40543 0.97437 0.82401 0.0
C591 C 0.44104 0.98881 0.87281 0.0
C592 C 0.47229 0.99175 0.88783 0.0
C593 C 0.43679 0.9792 0.83844 0.0
C594 C 0.49953 0.98686 0.86774 0.0
C595 C 0.49553 0.97723 0.83348 0.0
H596 H 0.61669 0.45391 0.68875 0.0
H597 H 0.53692 0.4611 0.75746 0.0
H598 H 0.50292 0.48196 0.71327 0.0
H599 H 0.4948 0.49464 0.6558 0.0
H600 H 0.57146 0.48482 0.58367 0.0
H601 H 0.60848 0.46924 0.62898 0.0
C602 C 0.59202 0.4606 0.69382 0.0
C603 C 0.57897 0.45607 0.72588 0.0
C604 C 0.57234 0.47202 0.66803 0.0
C605 C 0.54708 0.46439 0.73269 0.0
C606 C 0.52774 0.47629 0.70758 0.0
C607 C 0.51965 0.48935 0.64972 0.0
C608 C 0.53033 0.49044 0.61648 0.0
C609 C 0.53999 0.47966 0.67521 0.0
C610 C 0.56269 0.4838 0.60921 0.0
C611 C 0.58374 0.47486 0.63501 0.0
H612 H 0.96789 0.5788 0.22912 0.0
H613 H 0.86576 0.54541 0.2186 0.0
H614 H 0.87432 0.52612 0.16064 0.0
H615 H 0.91213 0.51479 0.1142 0.0
H616 H 0.01234 0.55355 0.12384 0.0
H617 H 0.00269 0.57661 0.18047 0.0
C618 C 0.94707 0.56836 0.21414 0.0
C619 C 0.9163 0.5633 0.22883 0.0
C620 C 0.95169 0.55882 0.18034 0.0
C621 C 0.89006 0.54871 0.20867 0.0
C622 C 0.89476 0.53809 0.17522 0.0
C623 C 0.9313 0.52963 0.12827 0.0
C624 C 0.96265 0.53328 0.11499 0.0
C625 C 0.92559 0.54259 0.16093 0.0
C626 C 0.9878 0.55147 0.13351 0.0
C627 C 0.98243 0.56409 0.16602 0.0
H628 H 0.28633 0.02706 0.06504 0.0
H629 H 0.29492 0.13555 0.0566 0.0
H630 H 0.3492 0.13246 0.03489 0.0
H631 H 0.39555 0.10085 0.02154 0.0
H632 H 0.39212 0.9932 0.03317 0.0
H633 H 0.33455 0.99403 0.04966 0.0
C634 C 0.30009 0.04998 0.05841 0.0
C635 C 0.28585 0.08149 0.06205 0.0
C636 C 0.33229 0.04824 0.04639 0.0
C637 C 0.30434 0.11082 0.05324 0.0
C638 C 0.33573 0.10919 0.04103 0.0
C639 C 0.38235 0.07733 0.02746 0.0
C640 C 0.39845 0.04707 0.02639 0.0
C641 C 0.35001 0.07823 0.03783 0.0
C642 C 0.38048 0.0169 0.03365 0.0
C643 C 0.34761 0.01748 0.04341 0.0
H644 H 0.22893 0.97377 0.54514 0.0
H645 H 0.19304 0.87111 0.55959 0.0
H646 H 0.1381 0.88448 0.54156 0.0
H647 H 0.09902 0.92797 0.53009 0.0
H648 H 0.13594 0.03091 0.5185 0.0
H649 H 0.19174 0.01487 0.52621 0.0
C650 C 0.2091 0.95428 0.54387 0.0
C651 C 0.21465 0.92177 0.55417 0.0
C652 C 0.17777 0.96227 0.53399 0.0
C653 C 0.18911 0.89642 0.5519 0.0
C654 C 0.15774 0.90409 0.54174 0.0
C655 C 0.11946 0.94647 0.52816 0.0
C656 C 0.11367 0.98048 0.52389 0.0
C657 C 0.15155 0.93725 0.53382 0.0
C658 C 0.14009 0.00455 0.52184 0.0
C659 C 0.17192 0.99548 0.52648 0.0
H660 H 0.79687 0.40012 0.96134 0.0
H661 H 0.75898 0.49854 0.95535 0.0
H662 H 0.81314 0.52546 0.96874 0.0
H663 H 0.87186 0.52069 0.9774 0.0
H664 H 0.90947 0.42211 0.98344 0.0
H665 H 0.85458 0.3954 0.97501 0.0
C666 C 0.80034 0.42744 0.96382 0.0
C667 C 0.77421 0.44739 0.95737 0.0
C668 C 0.83144 0.44262 0.97112 0.0
C669 C 0.77899 0.48277 0.96001 0.0
C670 C 0.80985 0.49813 0.9676 0.0
C671 C 0.86787 0.4934 0.97716 0.0
C672 C 0.8944 0.47332 0.98069 0.0
C673 C 0.83636 0.47827 0.97238 0.0
C674 C 0.88921 0.43801 0.98079 0.0
C675 C 0.85792 0.42274 0.97588 0.0
H676 H 0.70813 0.57963 0.46386 0.0
H677 H 0.73074 0.4752 0.45202 0.0
H678 H 0.67537 0.4571 0.46771 0.0
H679 H 0.61917 0.4708 0.47847 0.0
H680 H 0.59601 0.57481 0.49095 0.0
H681 H 0.65322 0.59335 0.48205 0.0
C682 C 0.70116 0.55293 0.46545 0.0
C683 C 0.72338 0.52878 0.45622 0.0
C684 C 0.6692 0.54267 0.47443 0.0
C685 C 0.71388 0.49427 0.45823 0.0
C686 C 0.68229 0.4839 0.46734 0.0
C687 C 0.62686 0.49751 0.47988 0.0
C688 C 0.6036 0.52146 0.48506 0.0
C689 C 0.65953 0.50785 0.47447 0.0
C690 C 0.61366 0.55597 0.48718 0.0
C691 C 0.64626 0.56653 0.48179 0.0
H692 H 0.083 0.28692 0.01502 0.0
H693 H 0.05611 0.2913 0.12001 0.0
H694 H 0.02697 0.34102 0.11096 0.0
H695 H 0.00919 0.38415 0.07444 0.0
H696 H 0.04189 0.38716 0.97206 0.0
H697 H 0.0691 0.33431 0.97909 0.0
C698 C 0.07108 0.29878 0.03608 0.0
C699 C 0.07099 0.28387 0.06795 0.0
C700 C 0.0553 0.32895 0.0312 0.0
C701 C 0.05547 0.30045 0.09473 0.0
C702 C 0.03901 0.32947 0.08977 0.0
C703 C 0.02193 0.37305 0.05346 0.0
C704 C 0.02281 0.38903 0.0225 0.0
C705 C 0.0385 0.34374 0.05816 0.0
C706 C 0.04044 0.375 0.99598 0.0
C707 C 0.05606 0.34487 9e-05 0.0
H708 H 0.6131 0.20403 0.91973 0.0
H709 H 0.52092 0.20975 0.86567 0.0
H710 H 0.50449 0.15392 0.88111 0.0
H711 H 0.50861 0.11091 0.92294 0.0
H712 H 0.59615 0.10901 0.98354 0.0
H713 H 0.62172 0.15528 0.9526 0.0
C714 C 0.589 0.19411 0.91171 0.0
C715 C 0.56752 0.21388 0.89401 0.0
C716 C 0.57862 0.16186 0.92189 0.0
C717 C 0.53793 0.19753 0.88119 0.0
C718 C 0.52821 0.1648 0.88976 0.0
C719 C 0.53397 0.11941 0.92785 0.0
C720 C 0.55051 0.10725 0.95543 0.0
C721 C 0.54731 0.1478 0.912 0.0
C722 C 0.5832 0.11815 0.96208 0.0
C723 C 0.59747 0.14514 0.94493 0.0
H724 H 0.98132 0.75842 0.46794 0.0
H725 H 0.87769 0.76999 0.47138 0.0
H726 H 0.88734 0.831 0.47661 0.0
H727 H 0.92428 0.88092 0.47533 0.0
H728 H 0.02787 0.87224 0.46966 0.0
H729 H 0.01958 0.81024 0.47152 0.0
C730 C 0.96105 0.77444 0.47041 0.0
C731 C 0.92884 0.7598 0.46973 0.0
C732 C 0.9668 0.80985 0.47339 0.0
C733 C 0.90266 0.78066 0.4726 0.0
C734 C 0.90813 0.81555 0.47542 0.0
C735 C 0.94509 0.86541 0.47547 0.0
C736 C 0.97655 0.88069 0.47275 0.0
C737 C 0.93996 0.83034 0.47541 0.0
C738 C 0.00347 0.86074 0.47237 0.0
C739 C -0.00138 0.8254 0.47294 0.0
H740 H 0.43323 0.71238 0.59654 0.0
H741 H 0.43343 0.73688 0.49174 0.0
H742 H 0.44858 0.67977 0.47587 0.0
H743 H 0.45784 0.62121 0.49194 0.0
H744 H 0.45316 0.59708 0.59677 0.0
H745 H 0.44444 0.65573 0.61261 0.0
C746 C 0.43736 0.70549 0.57031 0.0
C747 C 0.43237 0.72878 0.5454 0.0
C748 C 0.44503 0.67249 0.56138 0.0
C749 C 0.43708 0.71926 0.51138 0.0
C750 C 0.44567 0.68663 0.50231 0.0
C751 C 0.45502 0.62903 0.51818 0.0
C752 C 0.45565 0.605 0.54318 0.0
C753 C 0.44901 0.66274 0.52706 0.0
C754 C 0.45208 0.61517 0.57712 0.0
C755 C 0.44727 0.64867 0.5862 0.0
H756 H 0.95829 0.91363 0.71907 0.0
H757 H 0.86275 0.94986 0.70196 0.0
H758 H 0.87879 0.96803 0.64658 0.0
H759 H 0.92197 0.97927 0.60489 0.0
H760 H 0.01636 0.94102 0.62115 0.0
H761 H -0.00173 0.91675 0.67381 0.0
C762 C 0.94059 0.92477 0.70312 0.0
C763 C 0.9096 0.93119 0.7157 0.0
C764 C 0.9497 0.93463 0.67063 0.0
C765 C 0.8873 0.94575 0.69403 0.0
C766 C 0.89628 0.95587 0.66194 0.0
C767 C 0.93808 0.96456 0.61942 0.0
C768 C 0.97031 0.96161 0.60903 0.0
C769 C 0.9277 0.95126 0.65024 0.0
C770 C 0.99127 0.94321 0.62848 0.0
C771 C 0.98106 0.92966 0.65882 0.0
H772 H 0.55186 0.03272 0.23808 0.0
H773 H 0.61577 0.12056 0.22098 0.0
H774 H 0.60751 0.11182 0.16012 0.0
H775 H 0.57735 0.08361 0.11276 0.0
H776 H 0.51167 -0.00327 0.12783 0.0
H777 H 0.5261 -0.00033 0.1884 0.0
C778 C 0.56424 0.04945 0.2208 0.0
C779 C 0.58419 0.07737 0.23357 0.0
C780 C 0.55913 0.04435 0.18569 0.0
C781 C 0.60027 0.09905 0.21136 0.0
C782 C 0.59556 0.09405 0.17669 0.0
C783 C 0.56672 0.06487 0.12924 0.0
C784 C 0.54327 0.04028 0.11621 0.0
C785 C 0.57441 0.0674 0.1637 0.0
C786 C 0.52987 0.01584 0.13747 0.0
C787 C 0.53783 0.01782 0.17209 0.0
H788 H 0.38634 0.57588 0.317 0.0
H789 H 0.47517 0.59082 0.26142 0.0
H790 H 0.50749 0.58028 0.31128 0.0
H791 H 0.51018 0.55981 0.36764 0.0
H792 H 0.42217 0.53943 0.42283 0.0
H793 H 0.38968 0.56045 0.37671 0.0
C794 C 0.41274 0.57657 0.31598 0.0
C795 C 0.42847 0.58357 0.28576 0.0
C796 C 0.43119 0.56999 0.34463 0.0
C797 C 0.46268 0.5853 0.28457 0.0
C798 C 0.48115 0.57943 0.31299 0.0
C799 C 0.48393 0.56062 0.36973 0.0
C800 C 0.46828 0.54747 0.39769 0.0
C801 C 0.46562 0.57092 0.34276 0.0
C802 C 0.4345 0.54934 0.40107 0.0
C803 C 0.41597 0.56085 0.3746 0.0
H804 H 0.09567 0.43324 0.80057 0.0
H805 H 0.01385 0.46629 0.74412 0.0
H806 H 0.98759 0.48274 0.79629 0.0
H807 H 0.98631 0.48449 0.8566 0.0
H808 H 0.06752 0.45368 0.91578 0.0
H809 H 0.09569 0.43877 0.86354 0.0
C810 C 0.07246 0.44476 0.8 0.0
C811 C 0.05654 0.44884 0.76894 0.0
C812 C 0.05724 0.45364 0.83023 0.0
C813 C 0.02637 0.46328 0.76797 0.0
C814 C 0.01131 0.47234 0.79767 0.0
C815 C 0.01012 0.47433 0.85841 0.0
C816 C 0.02462 0.46971 0.89005 0.0
C817 C 0.02619 0.46689 0.82878 0.0
C818 C 0.05569 0.45701 0.89165 0.0
C819 C 0.07184 0.44878 0.86185 0.0
H820 H 0.72755 0.96998 0.97601 0.0
H821 H 0.69904 0.89065 0.90199 0.0
H822 H 0.64219 0.90475 0.90541 0.0
H823 H 0.60082 0.93846 0.92962 0.0
H824 H 0.62689 0.01727 0.00519 0.0
H825 H 0.68457 0.00496 0.00072 0.0
C826 C 0.70871 0.95589 0.96083 0.0
C827 C 0.71715 0.92919 0.93891 0.0
C828 C 0.67586 0.96417 0.96302 0.0
C829 C 0.69285 0.91112 0.91911 0.0
C830 C 0.66045 0.91924 0.92099 0.0
C831 C 0.61898 0.95327 0.94508 0.0
C832 C 0.60937 0.97887 0.96769 0.0
C833 C 0.65169 0.94562 0.94285 0.0
C834 C 0.63351 -0.00249 0.98749 0.0
C835 C 0.66649 0.99035 0.98504 0.0
H836 H 0.81418 0.08574 0.40693 0.0
H837 H 0.77514 0.08683 0.50695 0.0
H838 H 0.82553 0.06516 0.52912 0.0
H839 H 0.87775 0.03817 0.51797 0.0
H840 H 0.91453 0.03652 0.41692 0.0
H841 H 0.86808 0.06589 0.39713 0.0
C842 C 0.81685 0.08154 0.43366 0.0
C843 C 0.79085 0.08715 0.45517 0.0
C844 C 0.84544 0.06865 0.44594 0.0
C845 C 0.79484 0.08245 0.48987 0.0
C846 C 0.82354 0.06986 0.50248 0.0
C847 C 0.87586 0.04522 0.49193 0.0
C848 C 0.89935 0.03546 0.46884 0.0
C849 C 0.84861 0.06176 0.48053 0.0
C850 C 0.89668 0.04413 0.43503 0.0
C851 C 0.87009 0.06072 0.42367 0.0
H852 H 0.20009 0.5567 0.11075 0.0
H853 H 0.22449 0.57293 0.00702 0.0
H854 H 0.16911 0.55349 0.98892 0.0
H855 H 0.1132 0.53408 0.00301 0.0
H856 H 0.09029 0.51441 0.10629 0.0
H857 H 0.14598 0.53287 0.12426 0.0
C858 C 0.19362 0.55514 0.08409 0.0
C859 C 0.21624 0.56639 0.06029 0.0
C860 C 0.16199 0.54375 0.07388 0.0
C861 C 0.20727 0.56481 0.02587 0.0
C862 C 0.17568 0.55373 0.0155 0.0
C863 C 0.12057 0.53397 0.02939 0.0
C864 C 0.09804 0.52333 0.05339 0.0
C865 C 0.15271 0.54374 0.03936 0.0
C866 C 0.10756 0.52261 0.08748 0.0
C867 C 0.13927 0.53308 0.09773 0.0
H868 H 0.28154 0.4059 0.55103 0.0
H869 H 0.26547 0.51218 0.55321 0.0
H870 H 0.32016 0.52455 0.53121 0.0
H871 H 0.37422 0.50536 0.5164 0.0
H872 H 0.39127 0.39963 0.51965 0.0
H873 H 0.3341 0.38648 0.53323 0.0
C874 C 0.2898 0.43171 0.54611 0.0
C875 C 0.26952 0.45809 0.55361 0.0
C876 C 0.3213 0.43858 0.53401 0.0
C877 C 0.28078 0.4915 0.54784 0.0
C878 C 0.31193 0.49852 0.53509 0.0
C879 C 0.36496 0.47935 0.51875 0.0
C880 C 0.3865 0.45332 0.51615 0.0
C881 C 0.33258 0.4723 0.52853 0.0
C882 C 0.37478 0.41985 0.52069 0.0
C883 C 0.34228 0.41244 0.52894 0.0
H884 H 0.96071 0.71318 0.89934 0.0
H885 H 0.90984 0.73454 0.99131 0.0
H886 H 0.92576 0.68126 0.01331 0.0
H887 H 0.95448 0.62708 0.00596 0.0
H888 H 0.01104 0.61382 0.91597 0.0
H889 H 0.99372 0.66577 0.89511 0.0
C890 C 0.95374 0.70736 0.92472 0.0
C891 C 0.93406 0.72891 0.94327 0.0
C892 C 0.96428 0.67758 0.93804 0.0
C893 C 0.92449 0.71883 0.97564 0.0
C894 C 0.93392 0.68825 0.98858 0.0
C895 C 0.96342 0.63588 0.98213 0.0
C896 C 0.98386 0.61568 0.96268 0.0
C897 C 0.95391 0.66719 0.96997 0.0
C898 C 0.9951 0.62801 0.93176 0.0
C899 C 0.98513 0.658 0.91946 0.0
H900 H 0.44169 0.82736 0.12435 0.0
H901 H 0.4006 0.77706 0.033 0.0
H902 H 0.41986 0.82406 0.00048 0.0
H903 H 0.45224 0.87597 0.99646 0.0
H904 H 0.49846 0.92628 0.08465 0.0
H905 H 0.47358 0.8824 0.12025 0.0
C906 C 0.43705 0.8268 0.09735 0.0
C907 C 0.41942 0.79893 0.08124 0.0
C908 C 0.44939 0.8535 0.0783 0.0
C909 C 0.41327 0.79855 0.04628 0.0
C910 C 0.42459 0.82523 0.02749 0.0
C911 C 0.45687 0.8773 0.02354 0.0
C912 C 0.47747 0.90334 0.03815 0.0
C913 C 0.44318 0.85227 0.04311 0.0
C914 C 0.48272 0.90587 0.07317 0.0
C915 C 0.46865 0.88087 0.0933 0.0
H916 H 0.0865 0.22383 0.5132 0.0
H917 H 0.99521 0.25383 0.55336 0.0
H918 H 0.97276 0.19544 0.54799 0.0
H919 H 0.98293 0.13483 0.54135 0.0
H920 H 0.07311 0.10593 0.49874 0.0
H921 H 0.09173 0.16524 0.49433 0.0
C922 C 0.06128 0.2181 0.51965 0.0
C923 C 0.04303 0.24331 0.53463 0.0
C924 C 0.04828 0.18456 0.51598 0.0
C925 C 0.01039 0.23486 0.54297 0.0
C926 C -0.00263 0.20146 0.53966 0.0
C927 C 0.00585 0.1417 0.52944 0.0
C928 C 0.02652 0.11636 0.51993 0.0
C929 C 0.01658 0.1759 0.52754 0.0
C930 C 0.05657 0.12521 0.50539 0.0
C931 C 0.06743 0.1591 0.50344 0.0
H932 H 0.57904 0.30417 0.41683 0.0
H933 H 0.55767 0.26821 0.51539 0.0
H934 H 0.52834 0.31899 0.52882 0.0
H935 H 0.50805 0.37389 0.51147 0.0
H936 H 0.5301 0.40744 0.4118 0.0
H937 H 0.5602 0.35791 0.40011 0.0
C938 C 0.56793 0.30754 0.44125 0.0
C939 C 0.57025 0.28268 0.46506 0.0
C940 C 0.55125 0.33648 0.4486 0.0
C941 C 0.55621 0.2873 0.49679 0.0
C942 C 0.53939 0.31621 0.50437 0.0
C943 C 0.51933 0.37007 0.48724 0.0
C944 C 0.51618 0.39388 0.4623 0.0
C945 C 0.53659 0.341 0.48036 0.0
C946 C 0.53132 0.38899 0.4311 0.0
C947 C 0.54878 0.36077 0.42438 0.0
loop_
_geom_bond_atom_site_label_1
_geom_bond_atom_site_label_2
_geom_bond_distance
_geom_bond_site_symmetry_2
_ccdc_geom_bond_type
C0 C1 1.391 . S
C0 C4 1.391 . S
C0 H42 0.948 . S
C1 C0 1.391 . S
C1 C2 1.391 . S
C2 C1 1.391 . S
C2 H58 0.947 . S
C2 C59 1.392 . S
C3 C4 1.391 . S
C3 C7 1.397 . S
C3 C59 1.419 . S
C4 C0 1.391 . S
C4 C3 1.391 . S
C4 C5 1.399 . S
C5 C4 1.399 . S
C5 C8 1.396 . S
C5 C17 1.453 . S
C5 C18 1.684 . S
H6 C30 0.948 . S
C7 C3 1.397 . S
C7 C8 1.394 . S
C7 C26 1.723 . S
C8 C5 1.396 . S
C8 C7 1.394 . S
C8 C38 1.723 . S
H9 C32 0.947 . S
H10 C33 0.948 . S
H11 C39 0.982 . S
H12 C40 0.979 . S
H13 C40 0.980 . S
H14 C40 0.983 . S
H15 C39 0.979 . S
H16 C39 0.977 . S
C17 C5 1.453 . S
C17 H46 0.982 . S
C17 H47 0.979 . S
C17 H48 0.977 . S
C18 C5 1.684 . S
C18 H43 0.979 . S
C18 H44 0.980 . S
C18 H45 0.983 . S
C19 C20 1.391 . S
C19 C24 1.391 . S
C19 H49 0.948 . S
C20 C19 1.391 . S
C20 C21 1.391 . S
C21 C20 1.391 . S
C21 C22 1.392 . S
C21 H50 0.947 . S
C22 C21 1.392 . S
C22 C23 1.419 . S
C22 H51 0.948 . S
C23 C22 1.419 . S
C23 C24 1.391 . S
C23 C27 1.397 . S
C24 C19 1.391 . S
C24 C23 1.391 . S
C24 C25 1.399 . S
C25 C24 1.399 . S
C25 C26 1.396 . S
C25 C28 1.453 . S
C25 C29 1.684 . S
C26 C7 1.723 . S
C26 C25 1.396 . S
C26 C27 1.394 . S
C27 C23 1.397 . S
C27 C26 1.394 . S
C27 C37 1.723 . S
C28 C25 1.453 . S
C28 H52 0.982 . S
C28 H53 0.979 . S
C28 H54 0.977 . S
C29 C25 1.684 . S
C29 H55 0.979 . S
C29 H56 0.980 . S
C29 H57 0.983 . S
C30 H6 0.948 . S
C30 C31 1.391 . S
C30 C35 1.391 . S
C31 C30 1.391 . S
C31 C32 1.391 . S
C32 H9 0.947 . S
C32 C31 1.391 . S
C32 C33 1.392 . S
C33 H10 0.948 . S
C33 C32 1.392 . S
C33 C34 1.419 . S
C34 C33 1.419 . S
C34 C35 1.391 . S
C34 C38 1.397 . S
C35 C30 1.391 . S
C35 C34 1.391 . S
C35 C36 1.399 . S
C36 C35 1.399 . S
C36 C37 1.396 . S
C36 C39 1.453 . S
C36 C40 1.684 . S
C37 C27 1.723 . S
C37 C36 1.396 . S
C37 C38 1.394 . S
C38 C8 1.723 . S
C38 C34 1.397 . S
C38 C37 1.394 . S
C39 H11 0.982 . S
C39 H15 0.979 . S
C39 H16 0.977 . S
C39 C36 1.453 . S
C40 H12 0.979 . S
C40 H13 0.980 . S
C40 H14 0.983 . S
C40 C36 1.684 . S
H41 C59 0.948 . S
H42 C0 0.948 . S
H43 C18 0.979 . S
H44 C18 0.980 . S
H45 C18 0.983 . S
H46 C17 0.982 . S
H47 C17 0.979 . S
H48 C17 0.977 . S
H49 C19 0.948 . S
H50 C21 0.947 . S
H51 C22 0.948 . S
H52 C28 0.982 . S
H53 C28 0.979 . S
H54 C28 0.977 . S
H55 C29 0.979 . S
H56 C29 0.980 . S
H57 C29 0.983 . S
H58 C2 0.947 . S
C59 C2 1.392 . S
C59 C3 1.419 . S
C59 H41 0.948 . S
C60 C61 1.391 . S
C60 C64 1.391 . S
C60 H102 0.948 . S
C61 C60 1.391 . S
C61 C62 1.391 . S
C62 C61 1.391 . S
C62 H118 0.947 . S
C62 C119 1.392 . S
C63 C64 1.391 . S
C63 C67 1.397 . S
C63 C119 1.419 . S
C64 C60 1.391 . S
C64 C63 1.391 . S
C64 C65 1.399 . S
C65 C64 1.399 . S
C65 C68 1.396 . S
C65 C77 1.453 . S
C65 C78 1.684 . S
H66 C90 0.948 . S
C67 C63 1.397 . S
C67 C68 1.394 . S
C67 C86 1.723 . S
C68 C65 1.396 . S
C68 C67 1.394 . S
C68 C98 1.723 . S
H69 C92 0.947 . S
H70 C93 0.948 . S
H71 C99 0.982 . S
H72 C100 0.979 . S
H73 C100 0.980 . S
H74 C100 0.983 . S
H75 C99 0.979 . S
H76 C99 0.977 . S
C77 C65 1.453 . S
C77 H106 0.982 . S
C77 H107 0.979 . S
C77 H108 0.977 . S
C78 C65 1.684 . S
C78 H103 0.979 . S
C78 H104 0.980 . S
C78 H105 0.983 . S
C79 C80 1.391 . S
C79 C84 1.391 . S
C79 H109 0.948 . S
C80 C79 1.391 . S
C80 C81 1.391 . S
C81 C80 1.391 . S
C81 C82 1.392 . S
C81 H110 0.947 . S
C82 C81 1.392 . S
C82 C83 1.419 . S
C82 H111 0.948 . S
C83 C82 1.419 . S
C83 C84 1.391 . S
C83 C87 1.397 . S
C84 C79 1.391 . S
C84 C83 1.391 . S
C84 C85 1.399 . S
C85 C84 1.399 . S
C85 C86 1.396 . S
C85 C88 1.453 . S
C85 C89 1.684 . S
C86 C67 1.723 . S
C86 C85 1.396 . S
C86 C87 1.394 . S
C87 C83 1.397 . S
C87 C86 1.394 . S
C87 C97 1.723 . S
C88 C85 1.453 . S
C88 H112 0.982 . S
C88 H113 0.979 . S
C88 H114 0.977 . S
C89 C85 1.684 . S
C89 H115 0.979 . S
C89 H116 0.980 . S
C89 H117 0.983 . S
C90 H66 0.948 . S
C90 C91 1.391 . S
C90 C95 1.391 . S
C91 C90 1.391 . S
C91 C92 1.391 . S
C92 H69 0.947 . S
C92 C91 1.391 . S
C92 C93 1.392 . S
C93 H70 0.948 . S
C93 C92 1.392 . S
C93 C94 1.419 . S
C94 C93 1.419 . S
C94 C95 1.391 . S
C94 C98 1.397 . S
C95 C90 1.391 . S
C95 C94 1.391 . S
C95 C96 1.399 . S
C96 C95 1.399 . S
C96 C97 1.396 . S
C96 C99 1.453 . S
C96 C100 1.684 . S
C97 C87 1.723 . S
C97 C96 1.396 . S
C97 C98 1.394 . S
C98 C68 1.723 . S
C98 C94 1.397 . S
C98 C97 1.394 . S
C99 H71 0.982 . S
C99 H75 0.979 . S
C99 H76 0.977 . S
C99 C96 1.453 . S
C100 H72 0.979 . S
C100 H73 0.980 . S
C100 H74 0.983 . S
C100 C96 1.684 . S
H101 C119 0.948 . S
H102 C60 0.948 . S
H103 C78 0.979 . S
H104 C78 0.980 . S
H105 C78 0.983 . S
H106 C77 0.982 . S
H107 C77 0.979 . S
H108 C77 0.977 . S
H109 C79 0.948 . S
H110 C81 0.947 . S
H111 C82 0.948 . S
H112 C88 0.982 . S
H113 C88 0.979 . S
H114 C88 0.977 . S
H115 C89 0.979 . S
H116 C89 0.980 . S
H117 C89 0.983 . S
H118 C62 0.947 . S
C119 C62 1.392 . S
C119 C63 1.419 . S
C119 H101 0.948 . S
C120 C121 1.391 . S
C120 C124 1.391 . S
C120 H162 0.948 . S
C121 C120 1.391 . S
C121 C122 1.391 . S
C122 C121 1.391 . S
C122 H178 0.947 . S
C122 C179 1.392 . S
C123 C124 1.391 . S
C123 C127 1.397 . S
C123 C179 1.419 . S
C124 C120 1.391 . S
C124 C123 1.391 . S
C124 C125 1.399 . S
C125 C124 1.399 . S
C125 C128 1.396 . S
C125 C137 1.453 . S
C125 C138 1.684 . S
H126 C150 0.948 . S
C127 C123 1.397 . S
C127 C128 1.394 . S
C127 C146 1.723 . S
C128 C125 1.396 . S
C128 C127 1.394 . S
C128 C158 1.723 . S
H129 C152 0.947 . S
H130 C153 0.948 . S
H131 C159 0.982 . S
H132 C160 0.979 . S
H133 C160 0.980 . S
H134 C160 0.983 . S
H135 C159 0.979 . S
H136 C159 0.977 . S
C137 C125 1.453 . S
C137 H166 0.982 . S
C137 H167 0.979 . S
C137 H168 0.977 . S
C138 C125 1.684 . S
C138 H163 0.979 . S
C138 H164 0.980 . S
C138 H165 0.983 . S
C139 C140 1.391 . S
C139 C144 1.391 . S
C139 H169 0.948 . S
C140 C139 1.391 . S
C140 C141 1.391 . S
C141 C140 1.391 . S
C141 C142 1.392 . S
C141 H170 0.947 . S
C142 C141 1.392 . S
C142 C143 1.419 . S
C142 H171 0.948 . S
C143 C142 1.419 . S
C143 C144 1.391 . S
C143 C147 1.397 . S
C144 C139 1.391 . S
C144 C143 1.391 . S
C144 C145 1.399 . S
C145 C144 1.399 . S
C145 C146 1.396 . S
C145 C148 1.453 . S
C145 C149 1.684 . S
C146 C127 1.723 . S
C146 C145 1.396 . S
C146 C147 1.394 . S
C147 C143 1.397 . S
C147 C146 1.394 . S
C147 C157 1.723 . S
C148 C145 1.453 . S
C148 H172 0.982 . S
C148 H173 0.979 . S
C148 H174 0.977 . S
C149 C145 1.684 . S
C149 H175 0.979 . S
C149 H176 0.980 . S
C149 H177 0.983 . S
C150 H126 0.948 . S
C150 C151 1.391 . S
C150 C155 1.391 . S
C151 C150 1.391 . S
C151 C152 1.391 . S
C152 H129 0.947 . S
C152 C151 1.391 . S
C152 C153 1.392 . S
C153 H130 0.948 . S
C153 C152 1.392 . S
C153 C154 1.419 . S
C154 C153 1.419 . S
C154 C155 1.391 . S
C154 C158 1.397 . S
C155 C150 1.391 . S
C155 C154 1.391 . S
C155 C156 1.399 . S
C156 C155 1.399 . S
C156 C157 1.396 . S
C156 C159 1.453 . S
C156 C160 1.684 . S
C157 C147 1.723 . S
C157 C156 1.396 . S
C157 C158 1.394 . S
C158 C128 1.723 . S
C158 C154 1.397 . S
C158 C157 1.394 . S
C159 H131 0.982 . S
C159 H135 0.979 . S
C159 H136 0.977 . S
C159 C156 1.453 . S
C160 H132 0.979 . S
C160 H133 0.980 . S
C160 H134 0.983 . S
C160 C156 1.684 . S
H161 C179 0.948 . S
H162 C120 0.948 . S
H163 C138 0.979 . S
H164 C138 0.980 . S
H165 C138 0.983 . S
H166 C137 0.982 . S
H167 C137 0.979 . S
H168 C137 0.977 . S
H169 C139 0.948 . S
H170 C141 0.947 . S
H171 C142 0.948 . S
H172 C148 0.982 . S
H173 C148 0.979 . S
H174 C148 0.977 . S
H175 C149 0.979 . S
H176 C149 0.980 . S
H177 C149 0.983 . S
H178 C122 0.947 . S
C179 C122 1.392 . S
C179 C123 1.419 . S
C179 H161 0.948 . S
C180 C181 1.391 . S
C180 C184 1.391 . S
C180 H222 0.948 . S
C181 C180 1.391 . S
C181 C182 1.391 . S
C182 C181 1.391 . S
C182 H238 0.947 . S
C182 C239 1.392 . S
C183 C184 1.391 . S
C183 C187 1.397 . S
C183 C239 1.419 . S
C184 C180 1.391 . S
C184 C183 1.391 . S
C184 C185 1.399 . S
C185 C184 1.399 . S
C185 C188 1.396 . S
C185 C197 1.453 . S
C185 C198 1.684 . S
H186 C210 0.948 . S
C187 C183 1.397 . S
C187 C188 1.394 . S
C187 C206 1.723 . S
C188 C185 1.396 . S
C188 C187 1.394 . S
C188 C218 1.723 . S
H189 C212 0.947 . S
H190 C213 0.948 . S
H191 C219 0.982 . S
H192 C220 0.979 . S
H193 C220 0.980 . S
H194 C220 0.983 . S
H195 C219 0.979 . S
H196 C219 0.977 . S
C197 C185 1.453 . S
C197 H226 0.982 . S
C197 H227 0.979 . S
C197 H228 0.977 . S
C198 C185 1.684 . S
C198 H223 0.979 . S
C198 H224 0.980 . S
C198 H225 0.983 . S
C199 C200 1.391 . S
C199 C204 1.391 . S
C199 H229 0.948 . S
C200 C199 1.391 . S
C200 C201 1.391 . S
C201 C200 1.391 . S
C201 C202 1.392 . S
C201 H230 0.947 . S
C202 C201 1.392 . S
C202 C203 1.419 . S
C202 H231 0.948 . S
C203 C202 1.419 . S
C203 C204 1.391 . S
C203 C207 1.397 . S
C204 C199 1.391 . S
C204 C203 1.391 . S
C204 C205 1.399 . S
C205 C204 1.399 . S
C205 C206 1.396 . S
C205 C208 1.453 . S
C205 C209 1.684 . S
C206 C187 1.723 . S
C206 C205 1.396 . S
C206 C207 1.394 . S
C207 C203 1.397 . S
C207 C206 1.394 . S
C207 C217 1.723 . S
C208 C205 1.453 . S
C208 H232 0.982 . S
C208 H233 0.979 . S
C208 H234 0.977 . S
C209 C205 1.684 . S
C209 H235 0.979 . S
C209 H236 0.980 . S
C209 H237 0.983 . S
C210 H186 0.948 . S
C210 C211 1.391 . S
C210 C215 1.391 . S
C211 C210 1.391 . S
C211 C212 1.391 . S
C212 H189 0.947 . S
C212 C211 1.391 . S
C212 C213 1.392 . S
C213 H190 0.948 . S
C213 C212 1.392 . S
C213 C214 1.419 . S
C214 C213 1.419 . S
C214 C215 1.391 . S
C214 C218 1.397 . S
C215 C210 1.391 . S
C215 C214 1.391 . S
C215 C216 1.399 . S
C216 C215 1.399 . S
C216 C217 1.396 . S
C216 C219 1.453 . S
C216 C220 1.684 . S
C217 C207 1.723 . S
C217 C216 1.396 . S
C217 C218 1.394 . S
C218 C188 1.723 . S
C218 C214 1.397 . S
C218 C217 1.394 . S
C219 H191 0.982 . S
C219 H195 0.979 . S
C219 H196 0.977 . S
C219 C216 1.453 . S
C220 H192 0.979 . S
C220 H193 0.980 . S
C220 H194 0.983 . S
C220 C216 1.684 . S
H221 C239 0.948 . S
H222 C180 0.948 . S
H223 C198 0.979 . S
H224 C198 0.980 . S
H225 C198 0.983 . S
H226 C197 0.982 . S
H227 C197 0.979 . S
H228 C197 0.977 . S
H229 C199 0.948 . S
H230 C201 0.947 . S
H231 C202 0.948 . S
H232 C208 0.982 . S
H233 C208 0.979 . S
H234 C208 0.977 . S
H235 C209 0.979 . S
H236 C209 0.980 . S
H237 C209 0.983 . S
H238 C182 0.947 . S
C239 C182 1.392 . S
C239 C183 1.419 . S
C239 H221 0.948 . S
C240 C241 1.391 . S
C240 C244 1.391 . S
C240 H282 0.948 . S
C241 C240 1.391 . S
C241 C242 1.391 . S
C242 C241 1.391 . S
C242 H298 0.947 . S
C242 C299 1.392 . S
C243 C244 1.391 . S
C243 C247 1.397 . S
C243 C299 1.419 . S
C244 C240 1.391 . S
C244 C243 1.391 . S
C244 C245 1.399 . S
C245 C244 1.399 . S
C245 C248 1.396 . S
C245 C257 1.453 . S
C245 C258 1.684 . S
H246 C270 0.948 . S
C247 C243 1.397 . S
C247 C248 1.394 . S
C247 C266 1.723 . S
C248 C245 1.396 . S
C248 C247 1.394 . S
C248 C278 1.723 . S
H249 C272 0.947 . S
H250 C273 0.948 . S
H251 C279 0.982 . S
H252 C280 0.979 . S
H253 C280 0.980 . S
H254 C280 0.983 . S
H255 C279 0.979 . S
H256 C279 0.977 . S
C257 C245 1.453 . S
C257 H286 0.982 . S
C257 H287 0.979 . S
C257 H288 0.977 . S
C258 C245 1.684 . S
C258 H283 0.979 . S
C258 H284 0.980 . S
C258 H285 0.983 . S
C259 C260 1.391 . S
C259 C264 1.391 . S
C259 H289 0.948 . S
C260 C259 1.391 . S
C260 C261 1.391 . S
C261 C260 1.391 . S
C261 C262 1.392 . S
C261 H290 0.947 . S
C262 C261 1.392 . S
C262 C263 1.419 . S
C262 H291 0.948 . S
C263 C262 1.419 . S
C263 C264 1.391 . S
C263 C267 1.397 . S
C264 C259 1.391 . S
C264 C263 1.391 . S
C264 C265 1.399 . S
C265 C264 1.399 . S
C265 C266 1.396 . S
C265 C268 1.453 . S
C265 C269 1.684 . S
C266 C247 1.723 . S
C266 C265 1.396 . S
C266 C267 1.394 . S
C267 C263 1.397 . S
C267 C266 1.394 . S
C267 C277 1.723 . S
C268 C265 1.453 . S
C268 H292 0.982 . S
C268 H293 0.979 . S
C268 H294 0.977 . S
C269 C265 1.684 . S
C269 H295 0.979 . S
C269 H296 0.980 . S
C269 H297 0.983 . S
C270 H246 0.948 . S
C270 C271 1.391 . S
C270 C275 1.391 . S
C271 C270 1.391 . S
C271 C272 1.391 . S
C272 H249 0.947 . S
C272 C271 1.391 . S
C272 C273 1.392 . S
C273 H250 0.948 . S
C273 C272 1.392 . S
C273 C274 1.419 . S
C274 C273 1.419 . S
C274 C275 1.391 . S
C274 C278 1.397 . S
C275 C270 1.391 . S
C275 C274 1.391 . S
C275 C276 1.399 . S
C276 C275 1.399 . S
C276 C277 1.396 . S
C276 C279 1.453 . S
C276 C280 1.684 . S
C277 C267 1.723 . S
C277 C276 1.396 . S
C277 C278 1.394 . S
C278 C248 1.723 . S
C278 C274 1.397 . S
C278 C277 1.394 . S
C279 H251 0.982 . S
C279 H255 0.979 . S
C279 H256 0.977 . S
C279 C276 1.453 . S
C280 H252 0.979 . S
C280 H253 0.980 . S
C280 H254 0.983 . S
C280 C276 1.684 . S
H281 C299 0.948 . S
H282 C240 0.948 . S
H283 C258 0.979 . S
H284 C258 0.980 . S
H285 C258 0.983 . S
H286 C257 0.982 . S
H287 C257 0.979 . S
H288 C257 0.977 . S
H289 C259 0.948 . S
H290 C261 0.947 . S
H291 C262 0.948 . S
H292 C268 0.982 . S
H293 C268 0.979 . S
H294 C268 0.977 . S
H295 C269 0.979 . S
H296 C269 0.980 . S
H297 C269 0.983 . S
H298 C242 0.947 . S
C299 C242 1.392 . S
C299 C243 1.419 . S
C299 H281 0.948 . S
C300 C301 1.391 . S
C300 C304 1.391 . S
C300 H342 0.948 . S
C301 C300 1.391 . S
C301 C302 1.391 . S
C302 C301 1.391 . S
C302 H358 0.947 . S
C302 C359 1.392 . S
C303 C304 1.391 . S
C303 C307 1.397 . S
C303 C359 1.419 . S
C304 C300 1.391 . S
C304 C303 1.391 . S
C304 C305 1.399 . S
C305 C304 1.399 . S
C305 C308 1.396 . S
C305 C317 1.453 . S
C305 C318 1.684 . S
H306 C330 0.948 . S
C307 C303 1.397 . S
C307 C308 1.394 . S
C307 C326 1.723 . S
C308 C305 1.396 . S
C308 C307 1.394 . S
C308 C338 1.723 . S
H309 C332 0.947 . S
H310 C333 0.948 . S
H311 C339 0.982 . S
H312 C340 0.979 . S
H313 C340 0.980 . S
H314 C340 0.983 . S
H315 C339 0.979 . S
H316 C339 0.977 . S
C317 C305 1.453 . S
C317 H346 0.982 . S
C317 H347 0.979 . S
C317 H348 0.977 . S
C318 C305 1.684 . S
C318 H343 0.979 . S
C318 H344 0.980 . S
C318 H345 0.983 . S
C319 C320 1.391 . S
C319 C324 1.391 . S
C319 H349 0.948 . S
C320 C319 1.391 . S
C320 C321 1.391 . S
C321 C320 1.391 . S
C321 C322 1.392 . S
C321 H350 0.947 . S
C322 C321 1.392 . S
C322 C323 1.419 . S
C322 H351 0.948 . S
C323 C322 1.419 . S
C323 C324 1.391 . S
C323 C327 1.397 . S
C324 C319 1.391 . S
C324 C323 1.391 . S
C324 C325 1.399 . S
C325 C324 1.399 . S
C325 C326 1.396 . S
C325 C328 1.453 . S
C325 C329 1.684 . S
C326 C307 1.723 . S
C326 C325 1.396 . S
C326 C327 1.394 . S
C327 C323 1.397 . S
C327 C326 1.394 . S
C327 C337 1.723 . S
C328 C325 1.453 . S
C328 H352 0.982 . S
C328 H353 0.979 . S
C328 H354 0.977 . S
C329 C325 1.684 . S
C329 H355 0.979 . S
C329 H356 0.980 . S
C329 H357 0.983 . S
C330 H306 0.948 . S
C330 C331 1.391 . S
C330 C335 1.391 . S
C331 C330 1.391 . S
C331 C332 1.391 . S
C332 H309 0.947 . S
C332 C331 1.391 . S
C332 C333 1.392 . S
C333 H310 0.948 . S
C333 C332 1.392 . S
C333 C334 1.419 . S
C334 C333 1.419 . S
C334 C335 1.391 . S
C334 C338 1.397 . S
C335 C330 1.391 . S
C335 C334 1.391 . S
C335 C336 1.399 . S
C336 C335 1.399 . S
C336 C337 1.396 . S
C336 C339 1.453 . S
C336 C340 1.684 . S
C337 C327 1.723 . S
C337 C336 1.396 . S
C337 C338 1.394 . S
C338 C308 1.723 . S
C338 C334 1.397 . S
C338 C337 1.394 . S
C339 H311 0.982 . S
C339 H315 0.979 . S
C339 H316 0.977 . S
C339 C336 1.453 . S
C340 H312 0.979 . S
C340 H313 0.980 . S
C340 H314 0.983 . S
C340 C336 1.684 . S
H341 C359 0.948 . S
H342 C300 0.948 . S
H343 C318 0.979 . S
H344 C318 0.980 . S
H345 C318 0.983 . S
H346 C317 0.982 . S
H347 C317 0.979 . S
H348 C317 0.977 . S
H349 C319 0.948 . S
H350 C321 0.947 . S
H351 C322 0.948 . S
H352 C328 0.982 . S
H353 C328 0.979 . S
H354 C328 0.977 . S
H355 C329 0.979 . S
H356 C329 0.980 . S
H357 C329 0.983 . S
H358 C302 0.947 . S
C359 C302 1.392 . S
C359 C303 1.419 . S
C359 H341 0.948 . S
C360 C361 1.391 . S
C360 C364 1.391 . S
C360 H402 0.948 . S
C361 C360 1.391 . S
C361 C362 1.391 . S
C362 C361 1.391 . S
C362 H418 0.947 . S
C362 C419 1.392 . S
C363 C364 1.391 . S
C363 C367 1.397 . S
C363 C419 1.419 . S
C364 C360 1.391 . S
C364 C363 1.391 . S
C364 C365 1.399 . S
C365 C364 1.399 . S
C365 C368 1.396 . S
C365 C377 1.453 . S
C365 C378 1.684 . S
H366 C390 0.948 . S
C367 C363 1.397 . S
C367 C368 1.394 . S
C367 C386 1.723 . S
C368 C365 1.396 . S
C368 C367 1.394 . S
C368 C398 1.723 . S
H369 C392 0.947 . S
H370 C393 0.948 . S
H371 C399 0.982 . S
H372 C400 0.979 . S
H373 C400 0.980 . S
H374 C400 0.983 . S
H375 C399 0.979 . S
H376 C399 0.977 . S
C377 C365 1.453 . S
C377 H406 0.982 . S
C377 H407 0.979 . S
C377 H408 0.977 . S
C378 C365 1.684 . S
C378 H403 0.979 . S
C378 H404 0.980 . S
C378 H405 0.983 . S
C379 C380 1.391 . S
C379 C384 1.391 . S
C379 H409 0.948 . S
C380 C379 1.391 . S
C380 C381 1.391 . S
C381 C380 1.391 . S
C381 C382 1.392 . S
C381 H410 0.947 . S
C382 C381 1.392 . S
C382 C383 1.419 . S
C382 H411 0.948 . S
C383 C382 1.419 . S
C383 C384 1.391 . S
C383 C387 1.397 . S
C384 C379 1.391 . S
C384 C383 1.391 . S
C384 C385 1.399 . S
C385 C384 1.399 . S
C385 C386 1.396 . S
C385 C388 1.453 . S
C385 C389 1.684 . S
C386 C367 1.723 . S
C386 C385 1.396 . S
C386 C387 1.394 . S
C387 C383 1.397 . S
C387 C386 1.394 . S
C387 C397 1.723 . S
C388 C385 1.453 . S
C388 H412 0.982 . S
C388 H413 0.979 . S
C388 H414 0.977 . S
C389 C385 1.684 . S
C389 H415 0.979 . S
C389 H416 0.980 . S
C389 H417 0.983 . S
C390 H366 0.948 . S
C390 C391 1.391 . S
C390 C395 1.391 . S
C391 C390 1.391 . S
C391 C392 1.391 . S
C392 H369 0.947 . S
C392 C391 1.391 . S
C392 C393 1.392 . S
C393 H370 0.948 . S
C393 C392 1.392 . S
C393 C394 1.419 . S
C394 C393 1.419 . S
C394 C395 1.391 . S
C394 C398 1.397 . S
C395 C390 1.391 . S
C395 C394 1.391 . S
C395 C396 1.399 . S
C396 C395 1.399 . S
C396 C397 1.396 . S
C396 C399 1.453 . S
C396 C400 1.684 . S
C397 C387 1.723 . S
C397 C396 1.396 . S
C397 C398 1.394 . S
C398 C368 1.723 . S
C398 C394 1.397 . S
C398 C397 1.394 . S
C399 H371 0.982 . S
C399 H375 0.979 . S
C399 H376 0.977 . S
C399 C396 1.453 . S
C400 H372 0.979 . S
C400 H373 0.980 . S
C400 H374 0.983 . S
C400 C396 1.684 . S
H401 C419 0.948 . S
H402 C360 0.948 . S
H403 C378 0.979 . S
H404 C378 0.980 . S
H405 C378 0.983 . S
H406 C377 0.982 . S
H407 C377 0.979 . S
H408 C377 0.977 . S
H409 C379 0.948 . S
H410 C381 0.947 . S
H411 C382 0.948 . S
H412 C388 0.982 . S
H413 C388 0.979 . S
H414 C388 0.977 . S
H415 C389 0.979 . S
H416 C389 0.980 . S
H417 C389 0.983 . S
H418 C362 0.947 . S
C419 C362 1.392 . S
C419 C363 1.419 . S
C419 H401 0.948 . S
C420 C421 1.391 . S
C420 C424 1.391 . S
C420 H462 0.948 . S
C421 C420 1.391 . S
C421 C422 1.391 . S
C422 C421 1.391 . S
C422 H478 0.947 . S
C422 C479 1.392 . S
C423 C424 1.391 . S
C423 C427 1.397 . S
C423 C479 1.419 . S
C424 C420 1.391 . S
C424 C423 1.391 . S
C424 C425 1.399 . S
C425 C424 1.399 . S
C425 C428 1.396 . S
C425 C437 1.453 . S
C425 C438 1.684 . S
H426 C450 0.948 . S
C427 C423 1.397 . S
C427 C428 1.394 . S
C427 C446 1.723 . S
C428 C425 1.396 . S
C428 C427 1.394 . S
C428 C458 1.723 . S
H429 C452 0.947 . S
H430 C453 0.948 . S
H431 C459 0.982 . S
H432 C460 0.979 . S
H433 C460 0.980 . S
H434 C460 0.983 . S
H435 C459 0.979 . S
H436 C459 0.977 . S
C437 C425 1.453 . S
C437 H466 0.982 . S
C437 H467 0.979 . S
C437 H468 0.977 . S
C438 C425 1.684 . S
C438 H463 0.979 . S
C438 H464 0.980 . S
C438 H465 0.983 . S
C439 C440 1.391 . S
C439 C444 1.391 . S
C439 H469 0.948 . S
C440 C439 1.391 . S
C440 C441 1.391 . S
C441 C440 1.391 . S
C441 C442 1.392 . S
C441 H470 0.947 . S
C442 C441 1.392 . S
C442 C443 1.419 . S
C442 H471 0.948 . S
C443 C442 1.419 . S
C443 C444 1.391 . S
C443 C447 1.397 . S
C444 C439 1.391 . S
C444 C443 1.391 . S
C444 C445 1.399 . S
C445 C444 1.399 . S
C445 C446 1.396 . S
C445 C448 1.453 . S
C445 C449 1.684 . S
C446 C427 1.723 . S
C446 C445 1.396 . S
C446 C447 1.394 . S
C447 C443 1.397 . S
C447 C446 1.394 . S
C447 C457 1.723 . S
C448 C445 1.453 . S
C448 H472 0.982 . S
C448 H473 0.979 . S
C448 H474 0.977 . S
C449 C445 1.684 . S
C449 H475 0.979 . S
C449 H476 0.980 . S
C449 H477 0.983 . S
C450 H426 0.948 . S
C450 C451 1.391 . S
C450 C455 1.391 . S
C451 C450 1.391 . S
C451 C452 1.391 . S
C452 H429 0.947 . S
C452 C451 1.391 . S
C452 C453 1.392 . S
C453 H430 0.948 . S
C453 C452 1.392 . S
C453 C454 1.419 . S
C454 C453 1.419 . S
C454 C455 1.391 . S
C454 C458 1.397 . S
C455 C450 1.391 . S
C455 C454 1.391 . S
C455 C456 1.399 . S
C456 C455 1.399 . S
C456 C457 1.396 . S
C456 C459 1.453 . S
C456 C460 1.684 . S
C457 C447 1.723 . S
C457 C456 1.396 . S
C457 C458 1.394 . S
C458 C428 1.723 . S
C458 C454 1.397 . S
C458 C457 1.394 . S
C459 H431 0.982 . S
C459 H435 0.979 . S
C459 H436 0.977 . S
C459 C456 1.453 . S
C460 H432 0.979 . S
C460 H433 0.980 . S
C460 H434 0.983 . S
C460 C456 1.684 . S
H461 C479 0.948 . S
H462 C420 0.948 . S
H463 C438 0.979 . S
H464 C438 0.980 . S
H465 C438 0.983 . S
H466 C437 0.982 . S
H467 C437 0.979 . S
H468 C437 0.977 . S
H469 C439 0.948 . S
H470 C441 0.947 . S
H471 C442 0.948 . S
H472 C448 0.982 . S
H473 C448 0.979 . S
H474 C448 0.977 . S
H475 C449 0.979 . S
H476 C449 0.980 . S
H477 C449 0.983 . S
H478 C422 0.947 . S
C479 C422 1.392 . S
C479 C423 1.419 . S
C479 H461 0.948 . S
O480 Mg481 1.990 . S
O480 C494 1.253 1_445 S
Mg481 O480 1.990 . S
Mg481 O484 2.180 . S
Mg481 O485 2.117 . S
Mg481 O499 2.030 1_545 S
O482 Mg483 2.072 1_665 S
O482 C494 1.260 . S
Mg483 O482 2.072 1_445 S
Mg483 O484 2.099 . S
Mg483 O486 2.079 . S
Mg483 O487 2.072 1_455 S
Mg483 O489 2.099 1_445 S
Mg483 O500 2.079 1_545 S
O484 Mg481 2.180 . S
O484 Mg483 2.099 . S
O484 C495 1.279 . S
O485 Mg481 2.117 . S
O485 C495 1.250 . S
O486 Mg483 2.079 . S
O486 C496 1.264 . S
O487 Mg483 2.072 1_655 S
O487 C497 1.260 . S
Mg488 O489 2.180 . S
Mg488 O490 2.030 1_565 S
Mg488 O491 1.990 1_565 S
Mg488 O492 2.117 . S
O489 Mg483 2.099 1_665 S
O489 Mg488 2.180 . S
O489 C498 1.279 . S
O490 Mg488 2.030 1_545 S
O490 C496 1.248 1_655 S
O491 Mg488 1.990 1_545 S
O491 C497 1.253 . S
O492 Mg488 2.117 . S
O492 C498 1.250 . S
C493 O499 1.248 . S
C493 O500 1.264 . S
C494 O480 1.253 1_665 S
C494 O482 1.260 . S
C495 O484 1.279 . S
C495 O485 1.250 . S
C496 O486 1.264 . S
C496 O490 1.248 1_455 S
C497 O487 1.260 . S
C497 O491 1.253 . S
C498 O489 1.279 . S
C498 O492 1.250 . S
O499 Mg481 2.030 1_565 S
O499 C493 1.248 . S
O500 Mg483 2.079 1_565 S
O500 C493 1.264 . S
O501 Mg502 1.990 . S
O501 C515 1.253 . S
Mg502 O501 1.990 . S
Mg502 O505 2.167 1_554 S
Mg502 O506 2.117 1_554 S
Mg502 O520 2.030 . S
O503 Mg504 2.072 . S
O503 C515 1.260 . S
Mg504 O503 2.072 . S
Mg504 O505 2.095 1_554 S
Mg504 O507 2.079 1_554 S
Mg504 O508 2.072 1_554 S
Mg504 O510 2.099 1_545 S
Mg504 O521 2.079 . S
O505 Mg502 2.167 1_556 S
O505 Mg504 2.095 1_556 S
O505 C516 1.292 . S
O506 Mg502 2.117 1_556 S
O506 C516 1.250 . S
O507 Mg504 2.079 1_556 S
O507 C517 1.264 1_545 S
O508 Mg504 2.072 1_556 S
O508 C518 1.260 1_545 S
Mg509 O510 2.180 1_556 S
Mg509 O511 2.030 . S
Mg509 O512 1.990 . S
Mg509 O513 2.117 1_556 S
O510 Mg504 2.099 1_565 S
O510 Mg509 2.180 1_554 S
O510 C519 1.279 . S
O511 Mg509 2.030 . S
O511 C517 1.248 . S
O512 Mg509 1.990 . S
O512 C518 1.253 . S
O513 Mg509 2.117 1_554 S
O513 C519 1.250 . S
C514 O520 1.248 . S
C514 O521 1.264 . S
C515 O501 1.253 . S
C515 O503 1.260 . S
C516 O505 1.292 . S
C516 O506 1.250 . S
C517 O507 1.264 1_565 S
C517 O511 1.248 . S
C518 O508 1.260 1_565 S
C518 O512 1.253 . S
C519 O510 1.279 . S
C519 O513 1.250 . S
O520 Mg502 2.030 . S
O520 C514 1.248 . S
O521 Mg504 2.079 . S
O521 C514 1.264 . S
O522 Mg523 1.990 . S
O522 C536 1.253 . S
Mg523 O522 1.990 . S
Mg523 O526 2.180 . S
Mg523 O527 2.117 . S
Mg523 O541 2.030 . S
O524 Mg525 2.072 . S
O524 C536 1.260 . S
Mg525 O524 2.072 . S
Mg525 O526 2.099 . S
Mg525 O528 2.079 . S
Mg525 O529 2.072 . S
Mg525 O531 2.099 . S
Mg525 O542 2.079 . S
O526 Mg523 2.180 . S
O526 Mg525 2.099 . S
O526 C537 1.279 . S
O527 Mg523 2.117 . S
O527 C537 1.250 . S
O528 Mg525 2.079 . S
O528 C538 1.264 . S
O529 Mg525 2.072 . S
O529 C539 1.260 . S
Mg530 O531 2.180 . S
Mg530 O532 2.030 . S
Mg530 O533 1.990 . S
Mg530 O534 2.117 . S
O531 Mg525 2.099 . S
O531 Mg530 2.180 . S
O531 C540 1.279 . S
O532 Mg530 2.030 . S
O532 C538 1.248 . S
O533 Mg530 1.990 . S
O533 C539 1.253 . S
O534 Mg530 2.117 . S
O534 C540 1.250 . S
C535 O541 1.248 . S
C535 O542 1.264 . S
C536 O522 1.253 . S
C536 O524 1.260 . S
C537 O526 1.279 . S
C537 O527 1.250 . S
C538 O528 1.264 . S
C538 O532 1.248 . S
C539 O529 1.260 . S
C539 O533 1.253 . S
C540 O531 1.279 . S
C540 O534 1.250 . S
O541 Mg523 2.030 . S
O541 C535 1.248 . S
O542 Mg525 2.079 . S
O542 C535 1.264 . S
O543 Mg544 1.990 . S
O543 C557 1.253 . S
Mg544 O543 1.990 . S
Mg544 O547 2.180 1_455 S
Mg544 O548 2.117 1_455 S
Mg544 O562 2.030 . S
O545 Mg546 2.072 . S
O545 C557 1.260 . S
Mg546 O545 2.072 . S
Mg546 O547 2.099 1_455 S
Mg546 O549 2.079 1_454 S
Mg546 O550 2.072 1_455 S
Mg546 O552 2.099 1_554 S
Mg546 O563 2.079 . S
O547 Mg544 2.180 1_655 S
O547 Mg546 2.099 1_655 S
O547 C558 1.279 . S
O548 Mg544 2.117 1_655 S
O548 C558 1.250 . S
O549 Mg546 2.079 1_656 S
O549 C559 1.264 . S
O550 Mg546 2.072 1_655 S
O550 C560 1.260 1_554 S
Mg551 O552 2.180 1_655 S
Mg551 O553 2.030 . S
Mg551 O554 1.990 . S
Mg551 O555 2.117 . S
O552 Mg546 2.099 1_556 S
O552 Mg551 2.180 1_455 S
O552 C561 1.279 . S
O553 Mg551 2.030 . S
O553 C559 1.248 . S
O554 Mg551 1.990 . S
O554 C560 1.253 . S
O555 Mg551 2.117 . S
O555 C561 1.250 1_655 S
C556 O562 1.248 . S
C556 O563 1.264 . S
C557 O543 1.253 . S
C557 O545 1.260 . S
C558 O547 1.279 . S
C558 O548 1.250 . S
C559 O549 1.264 . S
C559 O553 1.248 . S
C560 O550 1.260 1_556 S
C560 O554 1.253 . S
C561 O552 1.279 . S
C561 O555 1.250 1_455 S
O562 Mg544 2.030 . S
O562 C556 1.248 . S
O563 Mg546 2.079 . S
O563 C556 1.264 . S
H564 C570 0.930 . S
H565 C573 0.930 . S
H566 C574 0.930 . S
H567 C575 0.930 . S
H568 C578 0.930 1_565 S
H569 C579 0.930 1_565 S
C570 H564 0.930 . S
C570 C571 1.355 . S
C570 C572 1.415 . S
C571 C570 1.355 . S
C571 C573 1.419 . S
C572 C570 1.415 . S
C572 C577 1.425 . S
C572 C579 1.409 . S
C573 H565 0.930 . S
C573 C571 1.419 . S
C573 C574 1.362 . S
C574 H566 0.930 . S
C574 C573 1.362 . S
C574 C577 1.409 . S
C575 H567 0.930 . S
C575 C576 1.355 . S
C575 C577 1.415 . S
C576 C575 1.355 . S
C576 C578 1.419 . S
C577 C572 1.425 . S
C577 C574 1.409 . S
C577 C575 1.415 . S
C578 H568 0.930 1_545 S
C578 C576 1.419 . S
C578 C579 1.362 . S
C579 H569 0.930 1_545 S
C579 C572 1.409 . S
C579 C578 1.362 . S
H580 C586 0.930 . S
H581 C589 0.930 . S
H582 C590 0.930 1_545 S
H583 C591 0.930 1_545 S
H584 C594 0.930 . S
H585 C595 0.930 . S
C586 H580 0.930 . S
C586 C587 1.355 . S
C586 C588 1.415 . S
C587 C586 1.355 . S
C587 C589 1.419 . S
C588 C586 1.415 . S
C588 C593 1.425 . S
C588 C595 1.409 . S
C589 H581 0.930 . S
C589 C587 1.419 . S
C589 C590 1.362 . S
C590 H582 0.930 1_565 S
C590 C589 1.362 . S
C590 C593 1.409 . S
C591 H583 0.930 1_565 S
C591 C592 1.355 . S
C591 C593 1.415 . S
C592 C591 1.355 . S
C592 C594 1.419 . S
C593 C588 1.425 . S
C593 C590 1.409 . S
C593 C591 1.415 . S
C594 H584 0.930 . S
C594 C592 1.419 . S
C594 C595 1.362 . S
C595 H585 0.930 . S
C595 C588 1.409 . S
C595 C594 1.362 . S
H596 C602 0.930 . S
H597 C605 0.930 . S
H598 C606 0.930 . S
H599 C607 0.930 . S
H600 C610 0.930 . S
H601 C611 0.930 . S
C602 H596 0.930 . S
C602 C603 1.355 . S
C602 C604 1.415 . S
C603 C602 1.355 . S
C603 C605 1.419 . S
C604 C602 1.415 . S
C604 C609 1.425 . S
C604 C611 1.409 . S
C605 H597 0.930 . S
C605 C603 1.419 . S
C605 C606 1.362 . S
C606 H598 0.930 . S
C606 C605 1.362 . S
C606 C609 1.409 . S
C607 H599 0.930 . S
C607 C608 1.355 . S
C607 C609 1.415 . S
C608 C607 1.355 . S
C608 C610 1.419 . S
C609 C604 1.425 . S
C609 C606 1.409 . S
C609 C607 1.415 . S
C610 H600 0.930 . S
C610 C608 1.419 . S
C610 C611 1.362 . S
C611 H601 0.930 . S
C611 C604 1.409 . S
C611 C610 1.362 . S
H612 C618 0.930 . S
H613 C621 0.930 . S
H614 C622 0.930 . S
H615 C623 0.930 . S
H616 C626 0.930 1_455 S
H617 C627 0.930 1_455 S
C618 H612 0.930 . S
C618 C619 1.355 . S
C618 C620 1.415 . S
C619 C618 1.355 . S
C619 C621 1.419 . S
C620 C618 1.415 . S
C620 C625 1.425 . S
C620 C627 1.409 . S
C621 H613 0.930 . S
C621 C619 1.419 . S
C621 C622 1.362 . S
C622 H614 0.930 . S
C622 C621 1.362 . S
C622 C625 1.409 . S
C623 H615 0.930 . S
C623 C624 1.355 . S
C623 C625 1.415 . S
C624 C623 1.355 . S
C624 C626 1.419 . S
C625 C620 1.425 . S
C625 C622 1.409 . S
C625 C623 1.415 . S
C626 H616 0.930 1_655 S
C626 C624 1.419 . S
C626 C627 1.362 . S
C627 H617 0.930 1_655 S
C627 C620 1.409 . S
C627 C626 1.362 . S
H628 C634 0.930 . S
H629 C637 0.930 . S
H630 C638 0.930 . S
H631 C639 0.930 . S
H632 C642 0.930 1_565 S
H633 C643 0.930 1_565 S
C634 H628 0.930 . S
C634 C635 1.355 . S
C634 C636 1.415 . S
C635 C634 1.355 . S
C635 C637 1.419 . S
C636 C634 1.415 . S
C636 C641 1.425 . S
C636 C643 1.409 . S
C637 H629 0.930 . S
C637 C635 1.419 . S
C637 C638 1.362 . S
C638 H630 0.930 . S
C638 C637 1.362 . S
C638 C641 1.409 . S
C639 H631 0.930 . S
C639 C640 1.355 . S
C639 C641 1.415 . S
C640 C639 1.355 . S
C640 C642 1.419 . S
C641 C636 1.425 . S
C641 C638 1.409 . S
C641 C639 1.415 . S
C642 H632 0.930 1_545 S
C642 C640 1.419 . S
C642 C643 1.362 . S
C643 H633 0.930 1_545 S
C643 C636 1.409 . S
C643 C642 1.362 . S
H644 C650 0.930 . S
H645 C653 0.930 . S
H646 C654 0.930 . S
H647 C655 0.930 . S
H648 C658 0.930 1_545 S
H649 C659 0.930 1_545 S
C650 H644 0.930 . S
C650 C651 1.355 . S
C650 C652 1.415 . S
C651 C650 1.355 . S
C651 C653 1.419 . S
C652 C650 1.415 . S
C652 C657 1.425 . S
C652 C659 1.409 . S
C653 H645 0.930 . S
C653 C651 1.419 . S
C653 C654 1.362 . S
C654 H646 0.930 . S
C654 C653 1.362 . S
C654 C657 1.409 . S
C655 H647 0.930 . S
C655 C656 1.355 . S
C655 C657 1.415 . S
C656 C655 1.355 . S
C656 C658 1.419 . S
C657 C652 1.425 . S
C657 C654 1.409 . S
C657 C655 1.415 . S
C658 H648 0.930 1_565 S
C658 C656 1.419 . S
C658 C659 1.362 . S
C659 H649 0.930 1_565 S
C659 C652 1.409 . S
C659 C658 1.362 . S
H660 C666 0.930 . S
H661 C669 0.930 . S
H662 C670 0.930 . S
H663 C671 0.931 1_554 S
H664 C674 0.930 . S
H665 C675 0.930 . S
C666 H660 0.930 . S
C666 C667 1.355 . S
C666 C668 1.415 . S
C667 C666 1.355 . S
C667 C669 1.419 . S
C668 C666 1.415 . S
C668 C673 1.425 . S
C668 C675 1.409 . S
C669 H661 0.930 . S
C669 C667 1.419 . S
C669 C670 1.362 . S
C670 H662 0.930 . S
C670 C669 1.362 . S
C670 C673 1.409 . S
C671 H663 0.931 1_556 S
C671 C672 1.355 . S
C671 C673 1.415 . S
C672 C671 1.355 . S
C672 C674 1.419 . S
C673 C668 1.425 . S
C673 C670 1.409 . S
C673 C671 1.415 . S
C674 H664 0.930 . S
C674 C672 1.419 . S
C674 C675 1.362 . S
C675 H665 0.930 . S
C675 C668 1.409 . S
C675 C674 1.362 . S
H676 C682 0.930 . S
H677 C685 0.930 . S
H678 C686 0.930 . S
H679 C687 0.930 . S
H680 C690 0.930 . S
H681 C691 0.930 . S
C682 H676 0.930 . S
C682 C683 1.355 . S
C682 C684 1.415 . S
C683 C682 1.355 . S
C683 C685 1.419 . S
C684 C682 1.415 . S
C684 C689 1.425 . S
C684 C691 1.409 . S
C685 H677 0.930 . S
C685 C683 1.419 . S
C685 C686 1.362 . S
C686 H678 0.930 . S
C686 C685 1.362 . S
C686 C689 1.409 . S
C687 H679 0.930 . S
C687 C688 1.355 . S
C687 C689 1.415 . S
C688 C687 1.355 . S
C688 C690 1.419 . S
C689 C684 1.425 . S
C689 C686 1.409 . S
C689 C687 1.415 . S
C690 H680 0.930 . S
C690 C688 1.419 . S
C690 C691 1.362 . S
C691 H681 0.930 . S
C691 C684 1.409 . S
C691 C690 1.362 . S
H692 C698 0.930 . S
H693 C701 0.930 . S
H694 C702 0.930 . S
H695 C703 0.930 . S
H696 C706 0.930 1_556 S
H697 C707 0.930 1_556 S
C698 H692 0.930 . S
C698 C699 1.355 . S
C698 C700 1.415 . S
C699 C698 1.355 . S
C699 C701 1.419 . S
C700 C698 1.415 . S
C700 C705 1.425 . S
C700 C707 1.409 . S
C701 H693 0.930 . S
C701 C699 1.419 . S
C701 C702 1.362 . S
C702 H694 0.930 . S
C702 C701 1.362 . S
C702 C705 1.409 . S
C703 H695 0.930 . S
C703 C704 1.355 . S
C703 C705 1.415 . S
C704 C703 1.355 . S
C704 C706 1.419 . S
C705 C700 1.425 . S
C705 C702 1.409 . S
C705 C703 1.415 . S
C706 H696 0.930 1_554 S
C706 C704 1.419 . S
C706 C707 1.362 . S
C707 H697 0.930 1_554 S
C707 C700 1.409 . S
C707 C706 1.362 . S
H708 C714 0.930 . S
H709 C717 0.930 . S
H710 C718 0.930 . S
H711 C719 0.930 . S
H712 C722 0.946 . S
H713 C723 0.930 . S
C714 H708 0.930 . S
C714 C715 1.355 . S
C714 C716 1.415 . S
C715 C714 1.355 . S
C715 C717 1.419 . S
C716 C714 1.415 . S
C716 C721 1.425 . S
C716 C723 1.409 . S
C717 H709 0.930 . S
C717 C715 1.419 . S
C717 C718 1.362 . S
C718 H710 0.930 . S
C718 C717 1.362 . S
C718 C721 1.409 . S
C719 H711 0.930 . S
C719 C720 1.355 . S
C719 C721 1.415 . S
C720 C719 1.355 . S
C720 C722 1.419 . S
C721 C716 1.425 . S
C721 C718 1.409 . S
C721 C719 1.415 . S
C722 H712 0.946 . S
C722 C720 1.419 . S
C722 C723 1.362 . S
C723 H713 0.930 . S
C723 C716 1.409 . S
C723 C722 1.362 . S
H724 C730 0.930 . S
H725 C733 0.930 . S
H726 C734 0.930 . S
H727 C735 0.930 . S
H728 C738 0.930 . S
H729 C739 0.930 . S
C730 H724 0.930 . S
C730 C731 1.355 . S
C730 C732 1.415 . S
C731 C730 1.355 . S
C731 C733 1.419 . S
C732 C730 1.415 . S
C732 C737 1.425 . S
C732 C739 1.409 1_655 S
C733 H725 0.930 . S
C733 C731 1.419 . S
C733 C734 1.362 . S
C734 H726 0.930 . S
C734 C733 1.362 . S
C734 C737 1.409 . S
C735 H727 0.930 . S
C735 C736 1.355 . S
C735 C737 1.415 . S
C736 C735 1.355 . S
C736 C738 1.419 1_655 S
C737 C732 1.425 . S
C737 C734 1.409 . S
C737 C735 1.415 . S
C738 H728 0.930 . S
C738 C736 1.419 1_455 S
C738 C739 1.362 . S
C739 H729 0.930 . S
C739 C732 1.409 1_455 S
C739 C738 1.362 . S
H740 C746 0.930 . S
H741 C749 0.930 . S
H742 C750 0.930 . S
H743 C751 0.930 . S
H744 C754 0.930 . S
H745 C755 0.930 . S
C746 H740 0.930 . S
C746 C747 1.355 . S
C746 C748 1.415 . S
C747 C746 1.355 . S
C747 C749 1.419 . S
C748 C746 1.415 . S
C748 C753 1.425 . S
C748 C755 1.409 . S
C749 H741 0.930 . S
C749 C747 1.419 . S
C749 C750 1.362 . S
C750 H742 0.930 . S
C750 C749 1.362 . S
C750 C753 1.409 . S
C751 H743 0.930 . S
C751 C752 1.355 . S
C751 C753 1.415 . S
C752 C751 1.355 . S
C752 C754 1.419 . S
C753 C748 1.425 . S
C753 C750 1.409 . S
C753 C751 1.415 . S
C754 H744 0.930 . S
C754 C752 1.419 . S
C754 C755 1.362 . S
C755 H745 0.930 . S
C755 C748 1.409 . S
C755 C754 1.362 . S
H756 C762 0.930 . S
H757 C765 0.930 . S
H758 C766 0.930 . S
H759 C767 0.930 . S
H760 C770 0.957 . S
H761 C771 0.930 1_455 S
C762 H756 0.930 . S
C762 C763 1.355 . S
C762 C764 1.415 . S
C763 C762 1.355 . S
C763 C765 1.419 . S
C764 C762 1.415 . S
C764 C769 1.425 . S
C764 C771 1.409 . S
C765 H757 0.930 . S
C765 C763 1.419 . S
C765 C766 1.362 . S
C766 H758 0.930 . S
C766 C765 1.362 . S
C766 C769 1.409 . S
C767 H759 0.930 . S
C767 C768 1.355 . S
C767 C769 1.415 . S
C768 C767 1.355 . S
C768 C770 1.396 1_655 S
C769 C764 1.425 . S
C769 C766 1.409 . S
C769 C767 1.415 . S
C770 H760 0.957 . S
C770 C768 1.396 1_455 S
C770 C771 1.359 1_455 S
C771 H761 0.930 1_655 S
C771 C764 1.409 . S
C771 C770 1.359 1_655 S
H772 C778 0.930 . S
H773 C781 0.930 . S
H774 C782 0.930 . S
H775 C783 0.930 . S
H776 C786 0.930 1_565 S
H777 C787 0.930 1_565 S
C778 H772 0.930 . S
C778 C779 1.355 . S
C778 C780 1.415 . S
C779 C778 1.355 . S
C779 C781 1.419 . S
C780 C778 1.415 . S
C780 C785 1.425 . S
C780 C787 1.409 . S
C781 H773 0.930 . S
C781 C779 1.419 . S
C781 C782 1.362 . S
C782 H774 0.930 . S
C782 C781 1.362 . S
C782 C785 1.409 . S
C783 H775 0.930 . S
C783 C784 1.355 . S
C783 C785 1.415 . S
C784 C783 1.355 . S
C784 C786 1.419 . S
C785 C780 1.425 . S
C785 C782 1.409 . S
C785 C783 1.415 . S
C786 H776 0.930 1_545 S
C786 C784 1.419 . S
C786 C787 1.362 . S
C787 H777 0.930 1_545 S
C787 C780 1.409 . S
C787 C786 1.362 . S
H788 C794 0.930 . S
H789 C797 0.930 . S
H790 C798 0.930 . S
H791 C799 0.930 . S
H792 C802 0.930 . S
H793 C803 0.930 . S
C794 H788 0.930 . S
C794 C795 1.355 . S
C794 C796 1.415 . S
C795 C794 1.355 . S
C795 C797 1.419 . S
C796 C794 1.415 . S
C796 C801 1.425 . S
C796 C803 1.409 . S
C797 H789 0.930 . S
C797 C795 1.419 . S
C797 C798 1.362 . S
C798 H790 0.930 . S
C798 C797 1.362 . S
C798 C801 1.409 . S
C799 H791 0.930 . S
C799 C800 1.355 . S
C799 C801 1.415 . S
C800 C799 1.355 . S
C800 C802 1.419 . S
C801 C796 1.425 . S
C801 C798 1.409 . S
C801 C799 1.415 . S
C802 H792 0.930 . S
C802 C800 1.419 . S
C802 C803 1.362 . S
C803 H793 0.930 . S
C803 C796 1.409 . S
C803 C802 1.362 . S
H804 C810 0.930 . S
H805 C813 0.930 . S
H806 C814 0.930 1_655 S
H807 C815 0.930 1_655 S
H808 C818 0.930 . S
H809 C819 0.930 . S
C810 H804 0.930 . S
C810 C811 1.355 . S
C810 C812 1.415 . S
C811 C810 1.355 . S
C811 C813 1.419 . S
C812 C810 1.415 . S
C812 C817 1.425 . S
C812 C819 1.409 . S
C813 H805 0.930 . S
C813 C811 1.419 . S
C813 C814 1.362 . S
C814 H806 0.930 1_455 S
C814 C813 1.362 . S
C814 C817 1.409 . S
C815 H807 0.930 1_455 S
C815 C816 1.355 . S
C815 C817 1.415 . S
C816 C815 1.355 . S
C816 C818 1.419 . S
C817 C812 1.425 . S
C817 C814 1.409 . S
C817 C815 1.415 . S
C818 H808 0.930 . S
C818 C816 1.419 . S
C818 C819 1.362 . S
C819 H809 0.930 . S
C819 C812 1.409 . S
C819 C818 1.362 . S
H820 C826 0.930 . S
H821 C829 0.930 . S
H822 C830 0.930 . S
H823 C831 0.930 . S
H824 C834 0.930 . S
H825 C835 0.930 1_545 S
C826 H820 0.930 . S
C826 C827 1.355 . S
C826 C828 1.415 . S
C827 C826 1.355 . S
C827 C829 1.419 . S
C828 C826 1.415 . S
C828 C833 1.425 . S
C828 C835 1.409 . S
C829 H821 0.930 . S
C829 C827 1.419 . S
C829 C830 1.362 . S
C830 H822 0.930 . S
C830 C829 1.362 . S
C830 C833 1.409 . S
C831 H823 0.930 . S
C831 C832 1.355 . S
C831 C833 1.415 . S
C832 C831 1.355 . S
C832 C834 1.419 1_565 S
C833 C828 1.425 . S
C833 C830 1.409 . S
C833 C831 1.415 . S
C834 H824 0.930 . S
C834 C832 1.419 1_545 S
C834 C835 1.362 1_545 S
C835 H825 0.930 1_565 S
C835 C828 1.409 . S
C835 C834 1.362 1_565 S
H836 C842 0.930 . S
H837 C845 0.930 . S
H838 C846 0.930 . S
H839 C847 0.930 . S
H840 C850 0.930 . S
H841 C851 0.930 . S
C842 H836 0.930 . S
C842 C843 1.355 . S
C842 C844 1.415 . S
C843 C842 1.355 . S
C843 C845 1.419 . S
C844 C842 1.415 . S
C844 C849 1.425 . S
C844 C851 1.409 . S
C845 H837 0.930 . S
C845 C843 1.419 . S
C845 C846 1.362 . S
C846 H838 0.930 . S
C846 C845 1.362 . S
C846 C849 1.409 . S
C847 H839 0.930 . S
C847 C848 1.355 . S
C847 C849 1.415 . S
C848 C847 1.355 . S
C848 C850 1.419 . S
C849 C844 1.425 . S
C849 C846 1.409 . S
C849 C847 1.415 . S
C850 H840 0.930 . S
C850 C848 1.419 . S
C850 C851 1.362 . S
C851 H841 0.930 . S
C851 C844 1.409 . S
C851 C850 1.362 . S
H852 C858 0.930 . S
H853 C861 0.930 . S
H854 C862 0.930 . S
H855 C863 0.930 . S
H856 C866 0.930 . S
H857 C867 0.930 . S
C858 H852 0.930 . S
C858 C859 1.355 . S
C858 C860 1.415 . S
C859 C858 1.355 . S
C859 C861 1.419 . S
C860 C858 1.415 . S
C860 C865 1.425 . S
C860 C867 1.409 . S
C861 H853 0.930 . S
C861 C859 1.419 . S
C861 C862 1.362 . S
C862 H854 0.930 . S
C862 C861 1.362 . S
C862 C865 1.409 . S
C863 H855 0.930 . S
C863 C864 1.355 . S
C863 C865 1.415 . S
C864 C863 1.355 . S
C864 C866 1.419 . S
C865 C860 1.425 . S
C865 C862 1.409 . S
C865 C863 1.415 . S
C866 H856 0.930 . S
C866 C864 1.419 . S
C866 C867 1.362 . S
C867 H857 0.930 . S
C867 C860 1.409 . S
C867 C866 1.362 . S
H868 C874 0.930 . S
H869 C877 0.930 . S
H870 C878 0.930 . S
H871 C879 0.930 . S
H872 C882 0.930 . S
H873 C883 0.930 . S
C874 H868 0.930 . S
C874 C875 1.355 . S
C874 C876 1.415 . S
C875 C874 1.355 . S
C875 C877 1.419 . S
C876 C874 1.415 . S
C876 C881 1.425 . S
C876 C883 1.409 . S
C877 H869 0.930 . S
C877 C875 1.419 . S
C877 C878 1.362 . S
C878 H870 0.930 . S
C878 C877 1.362 . S
C878 C881 1.409 . S
C879 H871 0.930 . S
C879 C880 1.355 . S
C879 C881 1.415 . S
C880 C879 1.355 . S
C880 C882 1.419 . S
C881 C876 1.425 . S
C881 C878 1.409 . S
C881 C879 1.415 . S
C882 H872 0.930 . S
C882 C880 1.419 . S
C882 C883 1.362 . S
C883 H873 0.930 . S
C883 C876 1.409 . S
C883 C882 1.362 . S
H884 C890 0.930 . S
H885 C893 0.930 . S
H886 C894 0.930 1_554 S
H887 C895 0.930 1_554 S
H888 C898 0.930 . S
H889 C899 0.930 . S
C890 H884 0.930 . S
C890 C891 1.355 . S
C890 C892 1.415 . S
C891 C890 1.355 . S
C891 C893 1.419 . S
C892 C890 1.415 . S
C892 C897 1.425 . S
C892 C899 1.409 . S
C893 H885 0.930 . S
C893 C891 1.419 . S
C893 C894 1.362 . S
C894 H886 0.930 1_556 S
C894 C893 1.362 . S
C894 C897 1.409 . S
C895 H887 0.930 1_556 S
C895 C896 1.355 . S
C895 C897 1.415 . S
C896 C895 1.355 . S
C896 C898 1.419 . S
C897 C892 1.425 . S
C897 C894 1.409 . S
C897 C895 1.415 . S
C898 H888 0.930 . S
C898 C896 1.419 . S
C898 C899 1.362 . S
C899 H889 0.930 . S
C899 C892 1.409 . S
C899 C898 1.362 . S
H900 C906 0.930 . S
H901 C909 0.930 . S
H902 C910 0.930 . S
H903 C911 0.930 . S
H904 C914 0.930 . S
H905 C915 0.930 . S
C906 H900 0.930 . S
C906 C907 1.355 . S
C906 C908 1.415 . S
C907 C906 1.355 . S
C907 C909 1.419 . S
C908 C906 1.415 . S
C908 C913 1.425 . S
C908 C915 1.409 . S
C909 H901 0.930 . S
C909 C907 1.419 . S
C909 C910 1.362 . S
C910 H902 0.930 . S
C910 C909 1.362 . S
C910 C913 1.409 . S
C911 H903 0.930 . S
C911 C912 1.355 . S
C911 C913 1.415 . S
C912 C911 1.355 . S
C912 C914 1.419 . S
C913 C908 1.425 . S
C913 C910 1.409 . S
C913 C911 1.415 . S
C914 H904 0.930 . S
C914 C912 1.419 . S
C914 C915 1.362 . S
C915 H905 0.930 . S
C915 C908 1.409 . S
C915 C914 1.362 . S
H916 C922 0.930 . S
H917 C925 0.930 . S
H918 C926 0.930 1_655 S
H919 C927 0.930 1_655 S
H920 C930 0.930 . S
H921 C931 0.930 . S
C922 H916 0.930 . S
C922 C923 1.355 . S
C922 C924 1.415 . S
C923 C922 1.355 . S
C923 C925 1.419 . S
C924 C922 1.415 . S
C924 C929 1.425 . S
C924 C931 1.409 . S
C925 H917 0.930 . S
C925 C923 1.419 . S
C925 C926 1.362 . S
C926 H918 0.930 1_455 S
C926 C925 1.362 . S
C926 C929 1.409 . S
C927 H919 0.930 1_455 S
C927 C928 1.355 . S
C927 C929 1.415 . S
C928 C927 1.355 . S
C928 C930 1.419 . S
C929 C924 1.425 . S
C929 C926 1.409 . S
C929 C927 1.415 . S
C930 H920 0.930 . S
C930 C928 1.419 . S
C930 C931 1.362 . S
C931 H921 0.930 . S
C931 C924 1.409 . S
C931 C930 1.362 . S
H932 C938 0.930 . S
H933 C941 0.930 . S
H934 C942 0.930 . S
H935 C943 0.930 . S
H936 C946 0.930 . S
H937 C947 0.930 . S
C938 H932 0.930 . S
C938 C939 1.355 . S
C938 C940 1.415 . S
C939 C938 1.355 . S
C939 C941 1.419 . S
C940 C938 1.415 . S
C940 C945 1.425 . S
C940 C947 1.409 . S
C941 H933 0.930 . S
C941 C939 1.419 . S
C941 C942 1.362 . S
C942 H934 0.930 . S
C942 C941 1.362 . S
C942 C945 1.409 . S
C943 H935 0.930 . S
C943 C944 1.355 . S
C943 C945 1.415 . S
C944 C943 1.355 . S
C944 C946 1.419 . S
C945 C940 1.425 . S
C945 C942 1.409 . S
C945 C943 1.415 . S
C946 H936 0.930 . S
C946 C944 1.419 . S
C946 C947 1.362 . S
C947 H937 0.930 . S
C947 C940 1.409 . S
C947 C946 1.362 . S
C571 C1 1.561 . S
C576 C496 1.517 . S
C587 C80 1.464 . S
C592 C518 1.437 . S
C608 C537 1.286 . S
C603 C140 1.459 . S
C619 C211 1.723 . S
C624 C558 1.409 . S
C640 C515 1.763 . S
C635 C31 1.775 . S
C656 C493 1.637 . S
C651 C61 1.623 . S
C672 C560 1.286 . S
C667 C151 1.356 . S
C688 C539 1.461 . S
C683 C200 1.514 . S
C699 C20 1.726 . S
C704 C557 1.707 . S
C720 C516 1.256 . S
C715 C121 1.541 . S
C731 C181 1.587 . S
C736 C498 1.562 . S
C747 C91 1.509 . S
C752 C536 1.499 . S
C768 C494 1.555 . S
C763 C260 1.599 . S
C779 C320 1.267 . S
C784 C514 1.326 . S
C795 C361 1.533 . S
C800 C540 1.311 . S
C811 C451 1.682 . S
C816 C561 1.448 . S
C827 C271 1.708 . S
C832 C517 1.718 . S
C848 C497 1.690 . S
C843 C301 1.736 . S
C864 C556 1.181 . S
C859 C380 1.240 . S
C880 C535 1.564 . S
C875 C440 1.554 . S
C891 C241 1.562 . S
C896 C559 1.505 . S
C912 C519 1.278 . S
C907 C391 1.541 . S
C928 C495 1.327 . S
C923 C421 1.498 . S
C939 C331 1.463 . S
C944 C538 1.430 . S
